# Generated by pormake.
# Topology umq, (4)-cn, num edge types: 1
# Building blocks:
#     Node 0, Type 0, BuildingBlock: QUQFOY_clean_sbu_1, # of connection points: 4
#     Node 1, Type 0, BuildingBlock: QUQFOY_clean_sbu_1, # of connection points: 4
#     Node 2, Type 0, BuildingBlock: QUQFOY_clean_sbu_1, # of connection points: 4
#     Node 3, Type 0, BuildingBlock: QUQFOY_clean_sbu_1, # of connection points: 4
#     Node 4, Type 0, BuildingBlock: QUQFOY_clean_sbu_1, # of connection points: 4
#     Node 5, Type 0, BuildingBlock: QUQFOY_clean_sbu_1, # of connection points: 4
#     Node 6, Type 0, BuildingBlock: QUQFOY_clean_sbu_1, # of connection points: 4
#     Node 7, Type 0, BuildingBlock: QUQFOY_clean_sbu_1, # of connection points: 4
#     Node 8, Type 0, BuildingBlock: QUQFOY_clean_sbu_1, # of connection points: 4
#     Node 9, Type 0, BuildingBlock: QUQFOY_clean_sbu_1, # of connection points: 4
#     Node 10, Type 0, BuildingBlock: QUQFOY_clean_sbu_1, # of connection points: 4
#     Node 11, Type 0, BuildingBlock: QUQFOY_clean_sbu_1, # of connection points: 4
#     Node 12, Type 0, BuildingBlock: QUQFOY_clean_sbu_1, # of connection points: 4
#     Node 13, Type 0, BuildingBlock: QUQFOY_clean_sbu_1, # of connection points: 4
#     Node 14, Type 0, BuildingBlock: QUQFOY_clean_sbu_1, # of connection points: 4
#     Node 15, Type 0, BuildingBlock: QUQFOY_clean_sbu_1, # of connection points: 4
#     Node 16, Type 0, BuildingBlock: QUQFOY_clean_sbu_1, # of connection points: 4
#     Node 17, Type 0, BuildingBlock: QUQFOY_clean_sbu_1, # of connection points: 4
#     Node 18, Type 0, BuildingBlock: QUQFOY_clean_sbu_1, # of connection points: 4
#     Node 19, Type 0, BuildingBlock: QUQFOY_clean_sbu_1, # of connection points: 4
#     Node 20, Type 0, BuildingBlock: QUQFOY_clean_sbu_1, # of connection points: 4
#     Node 21, Type 0, BuildingBlock: QUQFOY_clean_sbu_1, # of connection points: 4
#     Node 22, Type 0, BuildingBlock: QUQFOY_clean_sbu_1, # of connection points: 4
#     Node 23, Type 0, BuildingBlock: QUQFOY_clean_sbu_1, # of connection points: 4
#     Node 24, Type 0, BuildingBlock: QUQFOY_clean_sbu_1, # of connection points: 4
#     Node 25, Type 0, BuildingBlock: QUQFOY_clean_sbu_1, # of connection points: 4
#     Node 26, Type 0, BuildingBlock: QUQFOY_clean_sbu_1, # of connection points: 4
#     Node 27, Type 0, BuildingBlock: QUQFOY_clean_sbu_1, # of connection points: 4
#     Node 28, Type 0, BuildingBlock: QUQFOY_clean_sbu_1, # of connection points: 4
#     Node 29, Type 0, BuildingBlock: QUQFOY_clean_sbu_1, # of connection points: 4
#     Node 30, Type 0, BuildingBlock: QUQFOY_clean_sbu_1, # of connection points: 4
#     Node 31, Type 0, BuildingBlock: QUQFOY_clean_sbu_1, # of connection points: 4
#     Edge 32, Type (0, 0), BuildingBlock: TEMPAE_clean_linker_10, # of connection points: 2
#     Edge 33, Type (0, 0), BuildingBlock: TEMPAE_clean_linker_10, # of connection points: 2
#     Edge 34, Type (0, 0), BuildingBlock: TEMPAE_clean_linker_10, # of connection points: 2
#     Edge 35, Type (0, 0), BuildingBlock: TEMPAE_clean_linker_10, # of connection points: 2
#     Edge 36, Type (0, 0), BuildingBlock: TEMPAE_clean_linker_10, # of connection points: 2
#     Edge 37, Type (0, 0), BuildingBlock: TEMPAE_clean_linker_10, # of connection points: 2
#     Edge 38, Type (0, 0), BuildingBlock: TEMPAE_clean_linker_10, # of connection points: 2
#     Edge 39, Type (0, 0), BuildingBlock: TEMPAE_clean_linker_10, # of connection points: 2
#     Edge 40, Type (0, 0), BuildingBlock: TEMPAE_clean_linker_10, # of connection points: 2
#     Edge 41, Type (0, 0), BuildingBlock: TEMPAE_clean_linker_10, # of connection points: 2
#     Edge 42, Type (0, 0), BuildingBlock: TEMPAE_clean_linker_10, # of connection points: 2
#     Edge 43, Type (0, 0), BuildingBlock: TEMPAE_clean_linker_10, # of connection points: 2
#     Edge 44, Type (0, 0), BuildingBlock: TEMPAE_clean_linker_10, # of connection points: 2
#     Edge 45, Type (0, 0), BuildingBlock: TEMPAE_clean_linker_10, # of connection points: 2
#     Edge 46, Type (0, 0), BuildingBlock: TEMPAE_clean_linker_10, # of connection points: 2
#     Edge 47, Type (0, 0), BuildingBlock: TEMPAE_clean_linker_10, # of connection points: 2
#     Edge 48, Type (0, 0), BuildingBlock: TEMPAE_clean_linker_10, # of connection points: 2
#     Edge 49, Type (0, 0), BuildingBlock: TEMPAE_clean_linker_10, # of connection points: 2
#     Edge 50, Type (0, 0), BuildingBlock: TEMPAE_clean_linker_10, # of connection points: 2
#     Edge 51, Type (0, 0), BuildingBlock: TEMPAE_clean_linker_10, # of connection points: 2
#     Edge 52, Type (0, 0), BuildingBlock: TEMPAE_clean_linker_10, # of connection points: 2
#     Edge 53, Type (0, 0), BuildingBlock: TEMPAE_clean_linker_10, # of connection points: 2
#     Edge 54, Type (0, 0), BuildingBlock: TEMPAE_clean_linker_10, # of connection points: 2
#     Edge 55, Type (0, 0), BuildingBlock: TEMPAE_clean_linker_10, # of connection points: 2
#     Edge 56, Type (0, 0), BuildingBlock: TEMPAE_clean_linker_10, # of connection points: 2
#     Edge 57, Type (0, 0), BuildingBlock: TEMPAE_clean_linker_10, # of connection points: 2
#     Edge 58, Type (0, 0), BuildingBlock: TEMPAE_clean_linker_10, # of connection points: 2
#     Edge 59, Type (0, 0), BuildingBlock: TEMPAE_clean_linker_10, # of connection points: 2
#     Edge 60, Type (0, 0), BuildingBlock: TEMPAE_clean_linker_10, # of connection points: 2
#     Edge 61, Type (0, 0), BuildingBlock: TEMPAE_clean_linker_10, # of connection points: 2
#     Edge 62, Type (0, 0), BuildingBlock: TEMPAE_clean_linker_10, # of connection points: 2
#     Edge 63, Type (0, 0), BuildingBlock: TEMPAE_clean_linker_10, # of connection points: 2
#     Edge 64, Type (0, 0), BuildingBlock: TEMPAE_clean_linker_10, # of connection points: 2
#     Edge 65, Type (0, 0), BuildingBlock: TEMPAE_clean_linker_10, # of connection points: 2
#     Edge 66, Type (0, 0), BuildingBlock: TEMPAE_clean_linker_10, # of connection points: 2
#     Edge 67, Type (0, 0), BuildingBlock: TEMPAE_clean_linker_10, # of connection points: 2
#     Edge 68, Type (0, 0), BuildingBlock: TEMPAE_clean_linker_10, # of connection points: 2
#     Edge 69, Type (0, 0), BuildingBlock: TEMPAE_clean_linker_10, # of connection points: 2
#     Edge 70, Type (0, 0), BuildingBlock: TEMPAE_clean_linker_10, # of connection points: 2
#     Edge 71, Type (0, 0), BuildingBlock: TEMPAE_clean_linker_10, # of connection points: 2
#     Edge 72, Type (0, 0), BuildingBlock: TEMPAE_clean_linker_10, # of connection points: 2
#     Edge 73, Type (0, 0), BuildingBlock: TEMPAE_clean_linker_10, # of connection points: 2
#     Edge 74, Type (0, 0), BuildingBlock: TEMPAE_clean_linker_10, # of connection points: 2
#     Edge 75, Type (0, 0), BuildingBlock: TEMPAE_clean_linker_10, # of connection points: 2
#     Edge 76, Type (0, 0), BuildingBlock: TEMPAE_clean_linker_10, # of connection points: 2
#     Edge 77, Type (0, 0), BuildingBlock: TEMPAE_clean_linker_10, # of connection points: 2
#     Edge 78, Type (0, 0), BuildingBlock: TEMPAE_clean_linker_10, # of connection points: 2
#     Edge 79, Type (0, 0), BuildingBlock: TEMPAE_clean_linker_10, # of connection points: 2
#     Edge 80, Type (0, 0), BuildingBlock: TEMPAE_clean_linker_10, # of connection points: 2
#     Edge 81, Type (0, 0), BuildingBlock: TEMPAE_clean_linker_10, # of connection points: 2
#     Edge 82, Type (0, 0), BuildingBlock: TEMPAE_clean_linker_10, # of connection points: 2
#     Edge 83, Type (0, 0), BuildingBlock: TEMPAE_clean_linker_10, # of connection points: 2
#     Edge 84, Type (0, 0), BuildingBlock: TEMPAE_clean_linker_10, # of connection points: 2
#     Edge 85, Type (0, 0), BuildingBlock: TEMPAE_clean_linker_10, # of connection points: 2
#     Edge 86, Type (0, 0), BuildingBlock: TEMPAE_clean_linker_10, # of connection points: 2
#     Edge 87, Type (0, 0), BuildingBlock: TEMPAE_clean_linker_10, # of connection points: 2
#     Edge 88, Type (0, 0), BuildingBlock: TEMPAE_clean_linker_10, # of connection points: 2
#     Edge 89, Type (0, 0), BuildingBlock: TEMPAE_clean_linker_10, # of connection points: 2
#     Edge 90, Type (0, 0), BuildingBlock: TEMPAE_clean_linker_10, # of connection points: 2
#     Edge 91, Type (0, 0), BuildingBlock: TEMPAE_clean_linker_10, # of connection points: 2
#     Edge 92, Type (0, 0), BuildingBlock: TEMPAE_clean_linker_10, # of connection points: 2
#     Edge 93, Type (0, 0), BuildingBlock: TEMPAE_clean_linker_10, # of connection points: 2
#     Edge 94, Type (0, 0), BuildingBlock: TEMPAE_clean_linker_10, # of connection points: 2
#     Edge 95, Type (0, 0), BuildingBlock: TEMPAE_clean_linker_10, # of connection points: 2
# Relax obj value: 0.035
# Max RMSD: 0.092
# Mean RMSD: 0.092
data_MOF--net-umq--node1-QUQFOY_clean_sbu_1--edge1-TEMPAE_clean_linker_10
_symmetry_space_group_name_H-M    P1
_symmetry_Int_Tables_number       1
_symmetry_cell_setting            triclinic
loop_
_symmetry_equiv_pos_as_xyz
'x, y, z'
_cell_length_a     66.810968
_cell_length_b     66.783245
_cell_length_c     51.342641
_cell_angle_alpha  90.006698
_cell_angle_beta   90.014668
_cell_angle_gamma 90.001524
loop_
_atom_site_label
_atom_site_type_symbol
_atom_site_fract_x
_atom_site_fract_y
_atom_site_fract_z
_atom_type_partial_charge
O0 O 0.22084 0.11062 0.20864 0.0
Cd1 Cd 0.24321 0.09543 0.1899 0.0
Cd2 Cd 0.22272 0.11081 0.14663 0.0
O3 O 0.20113 0.11653 0.17499 0.0
O4 O 0.2556 0.07943 0.21842 0.0
O5 O 0.24018 0.06564 0.18483 0.0
C6 C 0.24931 0.06352 0.20685 0.0
C7 C 0.21372 0.09976 0.10491 0.0
C8 C 0.20443 0.11704 0.19941 0.0
C9 C 0.26446 0.12634 0.15869 0.0
O10 O 0.24817 0.12863 0.1462 0.0
O11 O 0.26618 0.11271 0.17579 0.0
O12 O 0.20912 0.11741 0.11303 0.0
O13 O 0.2226 0.08782 0.12097 0.0
O14 O 0.88878 0.21612 0.198 0.0
Cd15 Cd 0.90354 0.2422 0.18896 0.0
Cd16 Cd 0.88398 0.23355 0.13901 0.0
O17 O 0.87117 0.21136 0.16197 0.0
O18 O 0.91825 0.24824 0.22179 0.0
O19 O 0.93359 0.2415 0.18471 0.0
C20 C 0.9347 0.24583 0.20918 0.0
C21 C 0.89086 0.22596 0.09524 0.0
C22 C 0.87582 0.20636 0.18511 0.0
C23 C 0.87672 0.27377 0.16499 0.0
O24 O 0.87488 0.2627 0.14502 0.0
O25 O 0.88681 0.26799 0.18457 0.0
O26 O 0.87289 0.22872 0.10349 0.0
O27 O 0.90521 0.2269 0.11204 0.0
O28 O 0.77799 0.88621 0.2087 0.0
Cd29 Cd 0.75523 0.90109 0.1903 0.0
Cd30 Cd 0.77531 0.88569 0.14651 0.0
O31 O 0.79711 0.88006 0.17457 0.0
O32 O 0.74304 0.91735 0.21873 0.0
O33 O 0.75801 0.9308 0.18456 0.0
C34 C 0.74908 0.93314 0.20668 0.0
C35 C 0.78439 0.896 0.10452 0.0
C36 C 0.79424 0.87973 0.19907 0.0
C37 C 0.73377 0.87002 0.15949 0.0
O38 O 0.74985 0.86791 0.14653 0.0
O39 O 0.73224 0.88354 0.17679 0.0
O40 O 0.78882 0.87844 0.1131 0.0
O41 O 0.77556 0.90826 0.12021 0.0
O42 O 0.11561 0.77413 0.20571 0.0
Cd43 Cd 0.09801 0.75278 0.1876 0.0
Cd44 Cd 0.11614 0.77117 0.14502 0.0
O45 O 0.1226 0.79327 0.17186 0.0
O46 O 0.08196 0.74187 0.21702 0.0
O47 O 0.06842 0.75811 0.18394 0.0
C48 C 0.06623 0.74909 0.20601 0.0
C49 C 0.10769 0.77964 0.10215 0.0
C50 C 0.12293 0.79013 0.19628 0.0
C51 C 0.12718 0.72845 0.15831 0.0
O52 O 0.13233 0.74484 0.14771 0.0
O53 O 0.11185 0.72765 0.17285 0.0
O54 O 0.12568 0.78146 0.11081 0.0
O55 O 0.09401 0.77384 0.11824 0.0
O56 O 0.22385 0.88345 0.30374 0.0
Cd57 Cd 0.24527 0.90063 0.32241 0.0
Cd58 Cd 0.22553 0.88318 0.36401 0.0
O59 O 0.20352 0.87766 0.33676 0.0
O60 O 0.25694 0.91655 0.2933 0.0
O61 O 0.24044 0.93033 0.32597 0.0
C62 C 0.24977 0.9324 0.3041 0.0
C63 C 0.21741 0.89168 0.40697 0.0
C64 C 0.20733 0.87683 0.31253 0.0
C65 C 0.26782 0.87029 0.35168 0.0
O66 O 0.25097 0.8657 0.3614 0.0
O67 O 0.2697 0.88593 0.33785 0.0
O68 O 0.21469 0.87387 0.39804 0.0
O69 O 0.2238 0.90522 0.39107 0.0
O70 O 0.11271 0.21871 0.30603 0.0
Cd71 Cd 0.09718 0.24111 0.32416 0.0
Cd72 Cd 0.11351 0.22217 0.36822 0.0
O73 O 0.11985 0.20025 0.34046 0.0
O74 O 0.08093 0.25277 0.29542 0.0
O75 O 0.06751 0.23755 0.32944 0.0
C76 C 0.06519 0.2464 0.30727 0.0
C77 C 0.10278 0.21325 0.41008 0.0
C78 C 0.11984 0.20282 0.31589 0.0
C79 C 0.1274 0.26418 0.35448 0.0
O80 O 0.13025 0.24839 0.36782 0.0
O81 O 0.11385 0.26485 0.33716 0.0
O82 O 0.1206 0.20925 0.4021 0.0
O83 O 0.09055 0.2216 0.39389 0.0
O84 O 0.77842 0.11292 0.29559 0.0
Cd85 Cd 0.75535 0.09852 0.31488 0.0
Cd86 Cd 0.77381 0.11827 0.35667 0.0
O87 O 0.79539 0.12458 0.32927 0.0
O88 O 0.74335 0.0819 0.28666 0.0
O89 O 0.7582 0.0688 0.32111 0.0
C90 C 0.74932 0.06623 0.29901 0.0
C91 C 0.78202 0.1075 0.39869 0.0
C92 C 0.79352 0.12204 0.30486 0.0
C93 C 0.73213 0.13075 0.3425 0.0
O94 O 0.74823 0.13526 0.35428 0.0
O95 O 0.73128 0.11545 0.32778 0.0
O96 O 0.78615 0.12536 0.39085 0.0
O97 O 0.77387 0.09531 0.38227 0.0
O98 O 0.88678 0.77636 0.30133 0.0
Cd99 Cd 0.90259 0.75384 0.31884 0.0
Cd100 Cd 0.88767 0.77297 0.36368 0.0
O101 O 0.88087 0.79486 0.33613 0.0
O102 O 0.91872 0.74249 0.28981 0.0
O103 O 0.93225 0.75743 0.32397 0.0
C104 C 0.9345 0.74879 0.30164 0.0
C105 C 0.89827 0.78242 0.40542 0.0
C106 C 0.88015 0.79232 0.31157 0.0
C107 C 0.87324 0.7309 0.35051 0.0
O108 O 0.871 0.74671 0.36402 0.0
O109 O 0.88614 0.73013 0.33239 0.0
O110 O 0.88039 0.78602 0.39737 0.0
O111 O 0.91064 0.77416 0.38935 0.0
O112 O 0.78044 0.88568 0.80762 0.0
Cd113 Cd 0.7572 0.9011 0.82522 0.0
Cd114 Cd 0.77345 0.87861 0.86784 0.0
O115 O 0.7949 0.87049 0.841 0.0
O116 O 0.74674 0.91712 0.79548 0.0
O117 O 0.76072 0.93093 0.83005 0.0
C118 C 0.75261 0.93301 0.80738 0.0
C119 C 0.7816 0.8867 0.91092 0.0
C120 C 0.79423 0.87463 0.81684 0.0
C121 C 0.73087 0.87054 0.85125 0.0
O122 O 0.74617 0.86483 0.86385 0.0
O123 O 0.73165 0.88575 0.83645 0.0
O124 O 0.7823 0.86854 0.90251 0.0
O125 O 0.77725 0.90067 0.89445 0.0
O126 O 0.11329 0.78062 0.80806 0.0
Cd127 Cd 0.09709 0.75997 0.82939 0.0
Cd128 Cd 0.11328 0.78173 0.86752 0.0
O129 O 0.11591 0.8033 0.83896 0.0
O130 O 0.08052 0.74626 0.80249 0.0
O131 O 0.06755 0.76506 0.83366 0.0
C132 C 0.06499 0.75436 0.81295 0.0
C133 C 0.10106 0.78864 0.90909 0.0
C134 C 0.11785 0.79826 0.81523 0.0
C135 C 0.12906 0.74063 0.85942 0.0
O136 O 0.13357 0.75835 0.86628 0.0
O137 O 0.11274 0.73725 0.84749 0.0
O138 O 0.11808 0.79552 0.90136 0.0
O139 O 0.09036 0.77859 0.89267 0.0
O140 O 0.2206 0.11268 0.80532 0.0
Cd141 Cd 0.24324 0.09495 0.81916 0.0
Cd142 Cd 0.22773 0.112 0.86762 0.0
O143 O 0.20592 0.12242 0.84185 0.0
O144 O 0.25197 0.08023 0.78736 0.0
O145 O 0.23921 0.06504 0.82176 0.0
C146 C 0.24634 0.06388 0.79842 0.0
C147 C 0.21892 0.10494 0.91101 0.0
C148 C 0.2067 0.12199 0.81707 0.0
C149 C 0.27066 0.12131 0.8495 0.0
O150 O 0.25627 0.12414 0.86526 0.0
O151 O 0.26883 0.10952 0.83027 0.0
O152 O 0.21967 0.12296 0.90224 0.0
O153 O 0.22212 0.09053 0.89477 0.0
O154 O 0.88735 0.21521 0.79827 0.0
Cd155 Cd 0.90063 0.23981 0.81489 0.0
Cd156 Cd 0.88326 0.22216 0.86037 0.0
O157 O 0.87479 0.20064 0.83333 0.0
O158 O 0.91642 0.25112 0.78546 0.0
O159 O 0.93044 0.23884 0.821 0.0
C160 C 0.93243 0.2466 0.7981 0.0
C161 C 0.89425 0.21346 0.90215 0.0
C162 C 0.8777 0.20101 0.80884 0.0
C163 C 0.86982 0.26369 0.8447 0.0
O164 O 0.86788 0.24884 0.85994 0.0
O165 O 0.88229 0.26326 0.82601 0.0
O166 O 0.8761 0.21026 0.89478 0.0
O167 O 0.90665 0.22066 0.88527 0.0
O168 O 0.78352 0.10788 0.69757 0.0
Cd169 Cd 0.7579 0.09332 0.68626 0.0
Cd170 Cd 0.76986 0.11354 0.63696 0.0
O171 O 0.79173 0.12467 0.6619 0.0
O172 O 0.75026 0.07891 0.71875 0.0
O173 O 0.7588 0.06321 0.68257 0.0
C174 C 0.75341 0.06233 0.7067 0.0
C175 C 0.77778 0.10804 0.59296 0.0
C176 C 0.79483 0.12009 0.68563 0.0
C177 C 0.72846 0.12123 0.66005 0.0
O178 O 0.74098 0.12366 0.64172 0.0
O179 O 0.73251 0.11017 0.67947 0.0
O180 O 0.77608 0.12578 0.60247 0.0
O181 O 0.77595 0.0931 0.60874 0.0
O182 O 0.88958 0.78462 0.70352 0.0
Cd183 Cd 0.90433 0.75908 0.69209 0.0
Cd184 Cd 0.88537 0.77155 0.64273 0.0
O185 O 0.87373 0.79334 0.66733 0.0
O186 O 0.91872 0.75123 0.72458 0.0
O187 O 0.93446 0.75994 0.68854 0.0
C188 C 0.93533 0.75444 0.71263 0.0
C189 C 0.89247 0.7795 0.59914 0.0
C190 C 0.87768 0.79611 0.69132 0.0
C191 C 0.87636 0.7302 0.66494 0.0
O192 O 0.87443 0.74292 0.64675 0.0
O193 O 0.88732 0.73385 0.68461 0.0
O194 O 0.87441 0.77814 0.60763 0.0
O195 O 0.90684 0.77735 0.61573 0.0
O196 O 0.21946 0.88552 0.70191 0.0
Cd197 Cd 0.24026 0.90202 0.68128 0.0
Cd198 Cd 0.21951 0.88537 0.64202 0.0
O199 O 0.19764 0.88208 0.67011 0.0
O200 O 0.2533 0.91845 0.70884 0.0
O201 O 0.23512 0.93158 0.67717 0.0
C202 C 0.2454 0.93404 0.69825 0.0
C203 C 0.21225 0.89731 0.60039 0.0
C204 C 0.20214 0.88048 0.69406 0.0
C205 C 0.26099 0.87075 0.65129 0.0
O206 O 0.24359 0.86588 0.64351 0.0
O207 O 0.26361 0.88689 0.66389 0.0
O208 O 0.20604 0.88003 0.60809 0.0
O209 O 0.22192 0.90836 0.61679 0.0
O210 O 0.11374 0.22293 0.70747 0.0
Cd211 Cd 0.09685 0.24357 0.687 0.0
Cd212 Cd 0.11549 0.22287 0.64727 0.0
O213 O 0.12023 0.20152 0.67581 0.0
O214 O 0.08014 0.25594 0.71483 0.0
O215 O 0.06733 0.23818 0.68258 0.0
C216 C 0.06466 0.24815 0.70386 0.0
C217 C 0.10765 0.21435 0.6042 0.0
C218 C 0.1205 0.20612 0.69986 0.0
C219 C 0.12774 0.26555 0.65815 0.0
O220 O 0.13283 0.24843 0.6497 0.0
O221 O 0.11162 0.2677 0.67091 0.0
O222 O 0.12527 0.21151 0.61368 0.0
O223 O 0.09389 0.22094 0.61965 0.0
O224 O 0.72585 0.61301 0.71723 0.0
Cd225 Cd 0.7463 0.59595 0.69691 0.0
Cd226 Cd 0.72598 0.61315 0.65675 0.0
O227 O 0.70432 0.61698 0.68516 0.0
O228 O 0.7586 0.57924 0.72473 0.0
O229 O 0.74069 0.5665 0.69255 0.0
C230 C 0.75062 0.5638 0.71387 0.0
C231 C 0.71749 0.60288 0.61458 0.0
C232 C 0.70874 0.61849 0.70916 0.0
C233 C 0.76808 0.62659 0.66714 0.0
O234 O 0.75094 0.63159 0.6585 0.0
O235 O 0.77015 0.61062 0.68027 0.0
O236 O 0.71237 0.62021 0.62333 0.0
O237 O 0.72683 0.59088 0.63013 0.0
O238 O 0.38301 0.72091 0.69828 0.0
Cd239 Cd 0.39945 0.7433 0.68144 0.0
Cd240 Cd 0.38168 0.72557 0.63622 0.0
O241 O 0.37322 0.70399 0.66349 0.0
O242 O 0.4158 0.7535 0.71105 0.0
O243 O 0.42911 0.73916 0.67635 0.0
C244 C 0.43149 0.74723 0.69901 0.0
C245 C 0.38952 0.71646 0.59324 0.0
C246 C 0.37419 0.70598 0.68815 0.0
C247 C 0.37061 0.76848 0.65198 0.0
O248 O 0.36759 0.75323 0.63769 0.0
O249 O 0.38366 0.76809 0.66994 0.0
O250 O 0.37146 0.7159 0.60193 0.0
O251 O 0.40359 0.72107 0.60942 0.0
O252 O 0.27698 0.38721 0.71336 0.0
Cd253 Cd 0.25452 0.40333 0.69611 0.0
Cd254 Cd 0.2731 0.3878 0.651 0.0
O255 O 0.29485 0.38023 0.67834 0.0
O256 O 0.24325 0.4192 0.72549 0.0
O257 O 0.2579 0.4331 0.69141 0.0
C258 C 0.24929 0.43514 0.71379 0.0
C259 C 0.28274 0.39839 0.60936 0.0
C260 C 0.29254 0.37983 0.70294 0.0
C261 C 0.23096 0.37413 0.66462 0.0
O262 O 0.24657 0.37163 0.65081 0.0
O263 O 0.23062 0.38705 0.68276 0.0
O264 O 0.28599 0.3804 0.61726 0.0
O265 O 0.27467 0.41085 0.62547 0.0
O266 O 0.61308 0.27658 0.70468 0.0
Cd267 Cd 0.59579 0.25458 0.68755 0.0
Cd268 Cd 0.61453 0.27204 0.6442 0.0
O269 O 0.62087 0.29479 0.67023 0.0
O270 O 0.5802 0.2443 0.71775 0.0
O271 O 0.56605 0.25927 0.68411 0.0
C272 C 0.56424 0.25091 0.70667 0.0
C273 C 0.60665 0.27923 0.60073 0.0
C274 C 0.62072 0.29227 0.69478 0.0
C275 C 0.62542 0.22962 0.65999 0.0
O276 O 0.63047 0.24568 0.64848 0.0
O277 O 0.61002 0.22917 0.67443 0.0
O278 O 0.62457 0.28112 0.60961 0.0
O279 O 0.59271 0.27418 0.61687 0.0
O280 O 0.72062 0.38398 0.80569 0.0
Cd281 Cd 0.74152 0.40014 0.82652 0.0
Cd282 Cd 0.72069 0.38249 0.86551 0.0
O283 O 0.6988 0.37949 0.83729 0.0
O284 O 0.75463 0.41627 0.79874 0.0
O285 O 0.73722 0.42985 0.83076 0.0
C286 C 0.74733 0.43207 0.80951 0.0
C287 C 0.71353 0.39334 0.90778 0.0
C288 C 0.70339 0.37845 0.81331 0.0
C289 C 0.76222 0.36803 0.85487 0.0
O290 O 0.74489 0.3632 0.86293 0.0
O291 O 0.76486 0.38444 0.84286 0.0
O292 O 0.7075 0.37617 0.89941 0.0
O293 O 0.72292 0.4049 0.89172 0.0
O294 O 0.61102 0.72008 0.80526 0.0
Cd295 Cd 0.59326 0.74312 0.81785 0.0
Cd296 Cd 0.61034 0.72928 0.86763 0.0
O297 O 0.62117 0.70713 0.84271 0.0
O298 O 0.5785 0.75105 0.78573 0.0
O299 O 0.56338 0.73918 0.82072 0.0
C300 C 0.56218 0.7458 0.79713 0.0
C301 C 0.60456 0.72071 0.91145 0.0
C302 C 0.62061 0.70686 0.81792 0.0
C303 C 0.61903 0.77181 0.84727 0.0
O304 O 0.62167 0.75809 0.86408 0.0
O305 O 0.60774 0.76906 0.82772 0.0
O306 O 0.62232 0.72213 0.902 0.0
O307 O 0.5897 0.72328 0.89572 0.0
O308 O 0.27442 0.61585 0.80129 0.0
Cd309 Cd 0.25294 0.60058 0.82158 0.0
Cd310 Cd 0.274 0.61649 0.86309 0.0
O311 O 0.29499 0.62221 0.83389 0.0
O312 O 0.24024 0.58351 0.79442 0.0
O313 O 0.25696 0.57109 0.82789 0.0
C314 C 0.24731 0.56812 0.80642 0.0
C315 C 0.28332 0.60443 0.90419 0.0
C316 C 0.29101 0.6225 0.80963 0.0
C317 C 0.23199 0.63163 0.85267 0.0
O318 O 0.24856 0.63431 0.86438 0.0
O319 O 0.23001 0.61767 0.83606 0.0
O320 O 0.28809 0.62219 0.89664 0.0
O321 O 0.27413 0.59295 0.88783 0.0
O322 O 0.38499 0.2757 0.80661 0.0
Cd323 Cd 0.40249 0.25435 0.82482 0.0
Cd324 Cd 0.38425 0.27298 0.86715 0.0
O325 O 0.37867 0.29529 0.84025 0.0
O326 O 0.41834 0.24334 0.79529 0.0
O327 O 0.4321 0.25965 0.82816 0.0
C328 C 0.43413 0.25063 0.80606 0.0
C329 C 0.39184 0.2809 0.91049 0.0
C330 C 0.37815 0.29197 0.81587 0.0
C331 C 0.3729 0.23039 0.85359 0.0
O332 O 0.36769 0.24693 0.86376 0.0
O333 O 0.38854 0.22932 0.83966 0.0
O334 O 0.37411 0.2832 0.90112 0.0
O335 O 0.4058 0.27505 0.89484 0.0
O336 O 0.27986 0.38222 0.31309 0.0
Cd337 Cd 0.25814 0.39899 0.33177 0.0
Cd338 Cd 0.27769 0.38104 0.37301 0.0
O339 O 0.30001 0.37579 0.3461 0.0
O340 O 0.24639 0.41471 0.30252 0.0
O341 O 0.26266 0.42877 0.33519 0.0
C342 C 0.2534 0.43065 0.31324 0.0
C343 C 0.28478 0.39016 0.41602 0.0
C344 C 0.29634 0.37542 0.32181 0.0
C345 C 0.23559 0.36811 0.36014 0.0
O346 O 0.25245 0.36337 0.36976 0.0
O347 O 0.23371 0.38399 0.34679 0.0
O348 O 0.28797 0.37228 0.40758 0.0
O349 O 0.27857 0.40344 0.3996 0.0
O350 O 0.60617 0.28629 0.30284 0.0
Cd351 Cd 0.59285 0.26043 0.31581 0.0
Cd352 Cd 0.61084 0.27435 0.36425 0.0
O353 O 0.62033 0.29686 0.3393 0.0
O354 O 0.57843 0.25098 0.28409 0.0
O355 O 0.56279 0.26003 0.32008 0.0
C356 C 0.56186 0.25384 0.29628 0.0
C357 C 0.6011 0.28238 0.40683 0.0
C358 C 0.61683 0.2989 0.31509 0.0
C359 C 0.62305 0.23378 0.34334 0.0
O360 O 0.62484 0.24697 0.36103 0.0
O361 O 0.61121 0.23636 0.32423 0.0
O362 O 0.61931 0.28446 0.39917 0.0
O363 O 0.58802 0.27629 0.39009 0.0
O364 O 0.71969 0.61409 0.31678 0.0
Cd365 Cd 0.74123 0.59717 0.33558 0.0
Cd366 Cd 0.72199 0.6163 0.37675 0.0
O367 O 0.69964 0.62124 0.34966 0.0
O368 O 0.7529 0.58147 0.30623 0.0
O369 O 0.7365 0.56738 0.33874 0.0
C370 C 0.74576 0.56553 0.31679 0.0
C371 C 0.71496 0.60849 0.42028 0.0
C372 C 0.70331 0.6212 0.32535 0.0
C373 C 0.76428 0.6282 0.36304 0.0
O374 O 0.74754 0.63342 0.37256 0.0
O375 O 0.76587 0.612 0.35028 0.0
O376 O 0.71197 0.62616 0.41101 0.0
O377 O 0.72088 0.59468 0.40443 0.0
O378 O 0.38775 0.72004 0.29481 0.0
Cd379 Cd 0.40415 0.74206 0.31253 0.0
Cd380 Cd 0.38774 0.72312 0.35727 0.0
O381 O 0.3805 0.70162 0.32928 0.0
O382 O 0.4201 0.7533 0.2832 0.0
O383 O 0.43389 0.7382 0.31702 0.0
C384 C 0.43598 0.74688 0.2947 0.0
C385 C 0.39751 0.71352 0.39935 0.0
C386 C 0.38025 0.70434 0.30473 0.0
C387 C 0.37498 0.76569 0.34385 0.0
O388 O 0.37197 0.74992 0.35719 0.0
O389 O 0.38821 0.76611 0.32611 0.0
O390 O 0.37967 0.71031 0.39088 0.0
O391 O 0.41031 0.72137 0.3835 0.0
O392 O 0.27789 0.60849 0.20502 0.0
Cd393 Cd 0.25507 0.59103 0.19109 0.0
Cd394 Cd 0.27076 0.60859 0.14238 0.0
O395 O 0.29268 0.61824 0.16854 0.0
O396 O 0.24623 0.57618 0.22276 0.0
O397 O 0.25899 0.56112 0.18827 0.0
C398 C 0.25185 0.55988 0.21159 0.0
C399 C 0.27948 0.60318 0.0985 0.0
C400 C 0.29192 0.61763 0.19332 0.0
C401 C 0.22787 0.6179 0.1611 0.0
O402 O 0.24227 0.62075 0.14536 0.0
O403 O 0.2296 0.60592 0.18015 0.0
O404 O 0.27874 0.62084 0.10844 0.0
O405 O 0.27633 0.58818 0.11382 0.0
O406 O 0.38287 0.27487 0.20504 0.0
Cd407 Cd 0.39901 0.25481 0.18275 0.0
Cd408 Cd 0.38265 0.2771 0.14559 0.0
O409 O 0.38027 0.29815 0.17493 0.0
O410 O 0.41624 0.24094 0.20876 0.0
O411 O 0.42834 0.2605 0.17776 0.0
C412 C 0.43144 0.24954 0.19811 0.0
C413 C 0.39502 0.28472 0.10429 0.0
C414 C 0.37842 0.29266 0.1985 0.0
C415 C 0.36699 0.2358 0.15258 0.0
O416 O 0.3624 0.25362 0.14625 0.0
O417 O 0.38338 0.23229 0.16426 0.0
O418 O 0.37798 0.2915 0.11212 0.0
O419 O 0.40562 0.27432 0.12044 0.0
O420 O 0.71546 0.39113 0.20662 0.0
Cd421 Cd 0.74044 0.40613 0.19287 0.0
Cd422 Cd 0.72596 0.38451 0.14631 0.0
O423 O 0.70347 0.37605 0.17147 0.0
O424 O 0.74931 0.42062 0.22484 0.0
O425 O 0.73869 0.43629 0.18964 0.0
C426 C 0.74513 0.43719 0.21332 0.0
C427 C 0.71885 0.3908 0.10227 0.0
C428 C 0.70241 0.38014 0.19562 0.0
C429 C 0.76761 0.37568 0.16745 0.0
O430 O 0.75326 0.3712 0.15233 0.0
O431 O 0.76601 0.38995 0.1837 0.0
O432 O 0.71863 0.37296 0.11176 0.0
O433 O 0.72228 0.40546 0.11806 0.0
O434 O 0.61634 0.71981 0.20619 0.0
Cd435 Cd 0.60027 0.73997 0.18396 0.0
Cd436 Cd 0.6174 0.71791 0.14675 0.0
O437 O 0.62012 0.69676 0.17596 0.0
O438 O 0.58344 0.75385 0.21038 0.0
O439 O 0.57077 0.73486 0.17922 0.0
C440 C 0.568 0.74571 0.19974 0.0
C441 C 0.605 0.71069 0.10529 0.0
C442 C 0.62142 0.70218 0.19963 0.0
C443 C 0.63238 0.75943 0.15426 0.0
O444 O 0.63724 0.74172 0.14775 0.0
O445 O 0.61592 0.76266 0.16588 0.0
O446 O 0.62217 0.70406 0.11289 0.0
O447 O 0.59427 0.72059 0.12182 0.0
C448 C 0.33196 0.22319 0.15101 0.0
C449 C 0.3525 0.21941 0.14867 0.0
C450 C 0.31804 0.20747 0.15061 0.0
C451 C 0.3248 0.18757 0.14689 0.0
C452 C 0.34545 0.18382 0.14302 0.0
C453 C 0.35912 0.19976 0.14446 0.0
C454 C 0.29623 0.21206 0.15556 0.0
C455 C 0.35316 0.16291 0.13809 0.0
C456 C 0.29296 0.14625 0.17605 0.0
C457 C 0.28097 0.14072 0.15485 0.0
C458 C 0.30743 0.16134 0.17362 0.0
C459 C 0.31043 0.17065 0.14914 0.0
C460 C 0.29899 0.16446 0.12735 0.0
C461 C 0.2841 0.14981 0.13058 0.0
C462 C 0.31891 0.16788 0.1975 0.0
C463 C 0.30226 0.17353 0.10076 0.0
H464 H 0.32684 0.23837 0.15449 0.0
H465 H 0.37501 0.19685 0.14246 0.0
H466 H 0.28683 0.20602 0.13959 0.0
H467 H 0.29135 0.20465 0.17384 0.0
H468 H 0.29334 0.22839 0.15733 0.0
H469 H 0.36917 0.16286 0.13227 0.0
H470 H 0.35153 0.15376 0.15599 0.0
H471 H 0.34424 0.15555 0.12257 0.0
H472 H 0.29043 0.13938 0.1949 0.0
H473 H 0.27491 0.14543 0.11413 0.0
H474 H 0.31592 0.18395 0.20148 0.0
H475 H 0.33522 0.1663 0.19415 0.0
H476 H 0.31481 0.15908 0.21507 0.0
H477 H 0.29771 0.1895 0.10094 0.0
H478 H 0.29358 0.16567 0.08539 0.0
H479 H 0.31838 0.17303 0.09559 0.0
C480 C 0.85682 0.29872 0.19014 0.0
C481 C 0.86512 0.29256 0.16639 0.0
C482 C 0.84275 0.31431 0.19107 0.0
C483 C 0.83735 0.32433 0.16779 0.0
C484 C 0.84698 0.31925 0.14412 0.0
C485 C 0.86051 0.30317 0.14362 0.0
C486 C 0.83248 0.3189 0.21658 0.0
C487 C 0.84211 0.32998 0.11903 0.0
C488 C 0.78393 0.34264 0.1612 0.0
C489 C 0.78573 0.36302 0.16722 0.0
C490 C 0.80059 0.32994 0.16165 0.0
C491 C 0.81971 0.33792 0.16749 0.0
C492 C 0.82173 0.3586 0.17311 0.0
C493 C 0.80461 0.37088 0.17336 0.0
C494 C 0.79765 0.30789 0.15621 0.0
C495 C 0.84196 0.36773 0.17862 0.0
H496 H 0.86027 0.29045 0.20775 0.0
H497 H 0.86707 0.29855 0.12527 0.0
H498 H 0.83218 0.33526 0.22022 0.0
H499 H 0.81672 0.31369 0.21565 0.0
H500 H 0.83991 0.31142 0.23332 0.0
H501 H 0.85319 0.32663 0.1035 0.0
H502 H 0.82711 0.32527 0.11208 0.0
H503 H 0.84163 0.34641 0.12218 0.0
H504 H 0.76931 0.33647 0.15674 0.0
H505 H 0.80602 0.38667 0.17789 0.0
H506 H 0.80347 0.29888 0.17272 0.0
H507 H 0.8062 0.30349 0.1386 0.0
H508 H 0.78167 0.30397 0.15311 0.0
H509 H 0.8487 0.36066 0.19609 0.0
H510 H 0.84106 0.38415 0.18189 0.0
H511 H 0.85221 0.36482 0.16205 0.0
C512 C 0.66724 0.77254 0.15246 0.0
C513 C 0.64663 0.77606 0.15046 0.0
C514 C 0.68094 0.78845 0.15203 0.0
C515 C 0.67387 0.80828 0.14863 0.0
C516 C 0.65313 0.81178 0.14515 0.0
C517 C 0.6397 0.79564 0.1466 0.0
C518 C 0.70286 0.78413 0.15654 0.0
C519 C 0.6451 0.83262 0.14058 0.0
C520 C 0.70564 0.84984 0.17735 0.0
C521 C 0.71729 0.85556 0.15592 0.0
C522 C 0.69129 0.83462 0.17514 0.0
C523 C 0.68805 0.82537 0.15067 0.0
C524 C 0.69912 0.83176 0.12866 0.0
C525 C 0.7139 0.84655 0.13166 0.0
C526 C 0.6802 0.82787 0.19923 0.0
C527 C 0.69559 0.82275 0.10209 0.0
H528 H 0.67259 0.75741 0.15567 0.0
H529 H 0.62375 0.79835 0.14485 0.0
H530 H 0.71198 0.7903 0.14039 0.0
H531 H 0.70787 0.79158 0.17474 0.0
H532 H 0.70597 0.76784 0.1582 0.0
H533 H 0.629 0.8325 0.13518 0.0
H534 H 0.64691 0.84172 0.1585 0.0
H535 H 0.65368 0.84014 0.12488 0.0
H536 H 0.70838 0.85666 0.19619 0.0
H537 H 0.72283 0.85107 0.11504 0.0
H538 H 0.68348 0.81185 0.20308 0.0
H539 H 0.66383 0.82921 0.19622 0.0
H540 H 0.68439 0.83671 0.21674 0.0
H541 H 0.70035 0.80684 0.10206 0.0
H542 H 0.70394 0.83077 0.08657 0.0
H543 H 0.67939 0.82306 0.0973 0.0
C544 C 0.20019 0.63729 0.18147 0.0
C545 C 0.2098 0.6305 0.15888 0.0
C546 C 0.18519 0.65194 0.18015 0.0
C547 C 0.17921 0.65946 0.15555 0.0
C548 C 0.18786 0.65156 0.13256 0.0
C549 C 0.20336 0.63744 0.13452 0.0
C550 C 0.17677 0.66035 0.20516 0.0
C551 C 0.18137 0.65867 0.10596 0.0
C552 C 0.13204 0.69133 0.15592 0.0
C553 C 0.14013 0.71069 0.15554 0.0
C554 C 0.14452 0.67442 0.1547 0.0
C555 C 0.16556 0.67701 0.15416 0.0
C556 C 0.17374 0.69658 0.1536 0.0
C557 C 0.1609 0.71316 0.15383 0.0
C558 C 0.13525 0.65381 0.15434 0.0
C559 C 0.1961 0.70003 0.15377 0.0
H560 H 0.20528 0.63208 0.20035 0.0
H561 H 0.21069 0.63208 0.11702 0.0
H562 H 0.18125 0.67628 0.20713 0.0
H563 H 0.16018 0.65989 0.20486 0.0
H564 H 0.18212 0.65207 0.22258 0.0
H565 H 0.18725 0.64892 0.09017 0.0
H566 H 0.1648 0.65908 0.10463 0.0
H567 H 0.1869 0.67412 0.10264 0.0
H568 H 0.11594 0.68943 0.15706 0.0
H569 H 0.16718 0.72813 0.15379 0.0
H570 H 0.13887 0.64581 0.17267 0.0
H571 H 0.14155 0.64486 0.13807 0.0
H572 H 0.11871 0.6544 0.15221 0.0
H573 H 0.20277 0.69313 0.17142 0.0
H574 H 0.20001 0.71619 0.15353 0.0
H575 H 0.20308 0.69276 0.13661 0.0
C576 C 0.30447 0.86313 0.35573 0.0
C577 C 0.28471 0.85622 0.35426 0.0
C578 C 0.32056 0.84959 0.35671 0.0
C579 C 0.31674 0.82876 0.35505 0.0
C580 C 0.29675 0.82177 0.35377 0.0
C581 C 0.28098 0.83558 0.35389 0.0
C582 C 0.34163 0.85755 0.35908 0.0
C583 C 0.29203 0.79973 0.35112 0.0
C584 C 0.35579 0.79435 0.32569 0.0
C585 C 0.36177 0.78317 0.34742 0.0
C586 C 0.34147 0.80959 0.32802 0.0
C587 C 0.33351 0.81422 0.35286 0.0
C588 C 0.34037 0.80372 0.37511 0.0
C589 C 0.35415 0.788 0.37205 0.0
C590 C 0.33409 0.81995 0.3037 0.0
C591 C 0.33278 0.80873 0.40202 0.0
H592 H 0.30733 0.87911 0.3562 0.0
H593 H 0.26569 0.83024 0.3525 0.0
H594 H 0.34972 0.84963 0.3749 0.0
H595 H 0.34993 0.85475 0.34074 0.0
H596 H 0.3419 0.87389 0.36315 0.0
H597 H 0.27567 0.79679 0.3504 0.0
H598 H 0.29893 0.79378 0.33305 0.0
H599 H 0.29848 0.79127 0.36769 0.0
H600 H 0.36156 0.79049 0.3066 0.0
H601 H 0.35891 0.77944 0.38889 0.0
H602 H 0.33576 0.8364 0.30561 0.0
H603 H 0.31791 0.8168 0.30097 0.0
H604 H 0.34225 0.815 0.28598 0.0
H605 H 0.3334 0.82514 0.40536 0.0
H606 H 0.34155 0.8011 0.4175 0.0
H607 H 0.3169 0.80409 0.40385 0.0
C608 C 0.22235 0.3334 0.36194 0.0
C609 C 0.21867 0.35405 0.36249 0.0
C610 C 0.20654 0.31962 0.36197 0.0
C611 C 0.18659 0.32664 0.36357 0.0
C612 C 0.18282 0.34748 0.36526 0.0
C613 C 0.19893 0.361 0.36415 0.0
C614 C 0.21119 0.29757 0.35925 0.0
C615 C 0.16179 0.35549 0.36791 0.0
C616 C 0.14687 0.29233 0.3355 0.0
C617 C 0.14106 0.28137 0.3575 0.0
C618 C 0.16139 0.30741 0.33731 0.0
C619 C 0.16976 0.31212 0.3619 0.0
C620 C 0.16314 0.30181 0.38442 0.0
C621 C 0.14914 0.28623 0.38187 0.0
C622 C 0.16851 0.31756 0.3127 0.0
C623 C 0.1712 0.30691 0.41108 0.0
H624 H 0.23762 0.32803 0.36038 0.0
H625 H 0.19612 0.37698 0.36475 0.0
H626 H 0.20498 0.28915 0.37601 0.0
H627 H 0.20401 0.2916 0.34137 0.0
H628 H 0.22753 0.2946 0.35814 0.0
H629 H 0.16156 0.37187 0.37164 0.0
H630 H 0.15324 0.35245 0.34983 0.0
H631 H 0.15392 0.34776 0.38408 0.0
H632 H 0.14074 0.28844 0.3166 0.0
H633 H 0.14451 0.27785 0.39892 0.0
H634 H 0.18463 0.31432 0.30966 0.0
H635 H 0.16694 0.33403 0.31445 0.0
H636 H 0.16009 0.31252 0.29522 0.0
H637 H 0.18712 0.30236 0.41246 0.0
H638 H 0.16274 0.29928 0.42685 0.0
H639 H 0.17055 0.32332 0.41436 0.0
C640 C 0.71776 0.16486 0.34765 0.0
C641 C 0.7147 0.14425 0.34453 0.0
C642 C 0.7016 0.17823 0.34787 0.0
C643 C 0.68184 0.17072 0.34578 0.0
C644 C 0.67861 0.14983 0.3435 0.0
C645 C 0.69514 0.13684 0.34243 0.0
C646 C 0.70573 0.20043 0.34961 0.0
C647 C 0.65774 0.14125 0.3421 0.0
C648 C 0.64259 0.20807 0.36786 0.0
C649 C 0.6361 0.21596 0.34402 0.0
C650 C 0.65657 0.19239 0.3687 0.0
C651 C 0.66473 0.18496 0.34516 0.0
C652 C 0.65779 0.19251 0.32101 0.0
C653 C 0.6433 0.20772 0.32074 0.0
C654 C 0.66311 0.18428 0.39479 0.0
C655 C 0.6665 0.18538 0.2955 0.0
H656 H 0.73289 0.17063 0.34902 0.0
H657 H 0.69277 0.12087 0.34019 0.0
H658 H 0.69935 0.20816 0.33236 0.0
H659 H 0.69837 0.20681 0.3671 0.0
H660 H 0.72199 0.20382 0.35064 0.0
H661 H 0.65776 0.12462 0.34221 0.0
H662 H 0.64871 0.14665 0.35883 0.0
H663 H 0.65019 0.14646 0.3241 0.0
H664 H 0.63689 0.21433 0.38589 0.0
H665 H 0.63841 0.21391 0.30228 0.0
H666 H 0.67874 0.18895 0.39881 0.0
H667 H 0.66283 0.16766 0.39465 0.0
H668 H 0.65346 0.18972 0.41093 0.0
H669 H 0.68257 0.18953 0.29452 0.0
H670 H 0.65871 0.19197 0.27841 0.0
H671 H 0.66562 0.16884 0.29411 0.0
C672 C 0.80111 0.63491 0.36567 0.0
C673 C 0.78142 0.64208 0.36464 0.0
C674 C 0.81741 0.64822 0.36578 0.0
C675 C 0.81386 0.66908 0.36373 0.0
C676 C 0.79396 0.67634 0.36285 0.0
C677 C 0.77799 0.66277 0.36379 0.0
C678 C 0.83839 0.63998 0.36769 0.0
C679 C 0.78951 0.69841 0.35984 0.0
C680 C 0.85221 0.70929 0.37936 0.0
C681 C 0.85962 0.71379 0.35452 0.0
C682 C 0.83815 0.69389 0.38291 0.0
C683 C 0.83081 0.68335 0.36095 0.0
C684 C 0.83853 0.68765 0.33589 0.0
C685 C 0.85312 0.70259 0.33305 0.0
C686 C 0.83079 0.68924 0.41004 0.0
C687 C 0.83065 0.67723 0.31186 0.0
H688 H 0.80374 0.6189 0.3665 0.0
H689 H 0.76276 0.66832 0.36272 0.0
H690 H 0.84647 0.64259 0.34913 0.0
H691 H 0.84681 0.64787 0.38325 0.0
H692 H 0.83851 0.62366 0.37188 0.0
H693 H 0.77319 0.70158 0.35945 0.0
H694 H 0.79632 0.70697 0.37608 0.0
H695 H 0.79625 0.70404 0.34149 0.0
H696 H 0.85738 0.71785 0.396 0.0
H697 H 0.85873 0.70618 0.31379 0.0
H698 H 0.8313 0.67286 0.41365 0.0
H699 H 0.81498 0.69404 0.41207 0.0
H700 H 0.8398 0.69694 0.42523 0.0
H701 H 0.83205 0.66076 0.31397 0.0
H702 H 0.83867 0.68189 0.29391 0.0
H703 H 0.8145 0.68065 0.30944 0.0
C704 C 0.69351 0.86708 0.85041 0.0
C705 C 0.71251 0.85831 0.85239 0.0
C706 C 0.67613 0.85522 0.85099 0.0
C707 C 0.67793 0.83411 0.85257 0.0
C708 C 0.69713 0.82525 0.85444 0.0
C709 C 0.71414 0.83748 0.85479 0.0
C710 C 0.65588 0.8652 0.8499 0.0
C711 C 0.69978 0.80278 0.8554 0.0
C712 C 0.63755 0.79759 0.87303 0.0
C713 C 0.63122 0.7902 0.84886 0.0
C714 C 0.65158 0.8132 0.87454 0.0
C715 C 0.65998 0.821 0.85134 0.0
C716 C 0.6529 0.81422 0.82688 0.0
C717 C 0.63835 0.7991 0.82595 0.0
C718 C 0.65821 0.82055 0.90097 0.0
C719 C 0.66185 0.82171 0.80168 0.0
H720 H 0.69227 0.88322 0.84873 0.0
H721 H 0.72885 0.83067 0.85606 0.0
H722 H 0.64801 0.86088 0.83174 0.0
H723 H 0.6465 0.86008 0.86645 0.0
H724 H 0.65702 0.88179 0.85058 0.0
H725 H 0.71579 0.7983 0.8561 0.0
H726 H 0.69215 0.79658 0.87279 0.0
H727 H 0.69279 0.79583 0.83799 0.0
H728 H 0.63191 0.79082 0.89077 0.0
H729 H 0.63358 0.79331 0.80722 0.0
H730 H 0.65909 0.83715 0.90124 0.0
H731 H 0.67338 0.8147 0.90533 0.0
H732 H 0.64791 0.81557 0.91667 0.0
H733 H 0.66214 0.8383 0.8013 0.0
H734 H 0.65347 0.81629 0.78436 0.0
H735 H 0.67757 0.81645 0.80014 0.0
C736 C 0.13702 0.70457 0.86728 0.0
C737 C 0.14358 0.72424 0.86309 0.0
C738 C 0.15075 0.68868 0.8687 0.0
C739 C 0.17138 0.69251 0.86478 0.0
C740 C 0.17807 0.71242 0.86101 0.0
C741 C 0.1641 0.72809 0.86068 0.0
C742 C 0.14312 0.66775 0.8737 0.0
C743 C 0.19985 0.71708 0.85595 0.0
C744 C 0.21238 0.65503 0.88091 0.0
C745 C 0.21544 0.64592 0.85664 0.0
C746 C 0.19739 0.66956 0.88422 0.0
C747 C 0.18581 0.67564 0.8625 0.0
C748 C 0.18877 0.66632 0.83802 0.0
C749 C 0.20331 0.65132 0.83552 0.0
C750 C 0.19415 0.67863 0.91082 0.0
C751 C 0.17717 0.67277 0.81419 0.0
H752 H 0.12114 0.70163 0.86935 0.0
H753 H 0.16916 0.74329 0.8572 0.0
H754 H 0.14474 0.65858 0.85582 0.0
H755 H 0.1521 0.66044 0.88921 0.0
H756 H 0.12712 0.66766 0.87959 0.0
H757 H 0.20267 0.73341 0.85407 0.0
H758 H 0.2093 0.71116 0.87194 0.0
H759 H 0.20473 0.70961 0.83771 0.0
H760 H 0.22169 0.65074 0.89728 0.0
H761 H 0.20581 0.64442 0.81668 0.0
H762 H 0.17804 0.67809 0.91605 0.0
H763 H 0.19866 0.69461 0.91062 0.0
H764 H 0.20289 0.6708 0.92616 0.0
H765 H 0.16087 0.67109 0.81763 0.0
H766 H 0.18126 0.66397 0.79661 0.0
H767 H 0.18005 0.68884 0.81018 0.0
C768 C 0.36752 0.19333 0.8559 0.0
C769 C 0.35969 0.2128 0.85613 0.0
C770 C 0.35479 0.17659 0.85696 0.0
C771 C 0.33379 0.17948 0.85722 0.0
C772 C 0.32587 0.19915 0.85762 0.0
C773 C 0.33893 0.21555 0.85753 0.0
C774 C 0.36378 0.15586 0.85746 0.0
C775 C 0.30357 0.2029 0.85716 0.0
C776 C 0.29876 0.1403 0.82948 0.0
C777 C 0.28888 0.13367 0.85195 0.0
C778 C 0.31399 0.15469 0.83099 0.0
C779 C 0.31991 0.16212 0.85566 0.0
C780 C 0.31097 0.15437 0.87855 0.0
C781 C 0.29526 0.1405 0.87639 0.0
C782 C 0.32274 0.16295 0.80608 0.0
C783 C 0.31737 0.16139 0.90523 0.0
H784 H 0.38359 0.19121 0.85501 0.0
H785 H 0.33285 0.23061 0.85746 0.0
H786 H 0.35724 0.14702 0.87367 0.0
H787 H 0.36017 0.14789 0.8391 0.0
H788 H 0.38031 0.15622 0.85979 0.0
H789 H 0.29987 0.21912 0.85733 0.0
H790 H 0.29693 0.19607 0.83944 0.0
H791 H 0.29636 0.19575 0.87424 0.0
H792 H 0.29373 0.13516 0.81054 0.0
H793 H 0.28772 0.13526 0.89381 0.0
H794 H 0.33931 0.16226 0.80662 0.0
H795 H 0.3185 0.17894 0.80403 0.0
H796 H 0.31741 0.15472 0.7886 0.0
H797 H 0.33394 0.16155 0.90676 0.0
H798 H 0.31123 0.15174 0.92094 0.0
H799 H 0.31205 0.17692 0.90848 0.0
C800 C 0.8497 0.29168 0.82611 0.0
C801 C 0.85646 0.2811 0.84796 0.0
C802 C 0.83515 0.30671 0.82858 0.0
C803 C 0.82769 0.31166 0.85359 0.0
C804 C 0.8353 0.30175 0.87586 0.0
C805 C 0.84937 0.28633 0.87273 0.0
C806 C 0.82706 0.31659 0.8043 0.0
C807 C 0.8282 0.30706 0.90291 0.0
C808 C 0.79882 0.36056 0.85776 0.0
C809 C 0.77898 0.35374 0.85716 0.0
C810 C 0.81488 0.347 0.85773 0.0
C811 C 0.81096 0.3262 0.85619 0.0
C812 C 0.79093 0.31925 0.85598 0.0
C813 C 0.77518 0.33311 0.85687 0.0
C814 C 0.83603 0.35493 0.85884 0.0
C815 C 0.78612 0.29722 0.85374 0.0
H816 H 0.85506 0.28753 0.80692 0.0
H817 H 0.85473 0.27826 0.88967 0.0
H818 H 0.81087 0.31319 0.80229 0.0
H819 H 0.82854 0.33309 0.80575 0.0
H820 H 0.83488 0.31147 0.7864 0.0
H821 H 0.83718 0.29955 0.91827 0.0
H822 H 0.82898 0.32349 0.90594 0.0
H823 H 0.81232 0.30256 0.90527 0.0
H824 H 0.80177 0.37652 0.85814 0.0
H825 H 0.75985 0.3278 0.85616 0.0
H826 H 0.84379 0.35179 0.84019 0.0
H827 H 0.84455 0.34725 0.87447 0.0
H828 H 0.83648 0.37133 0.86244 0.0
H829 H 0.7924 0.2912 0.83532 0.0
H830 H 0.76976 0.29428 0.85399 0.0
H831 H 0.79315 0.28882 0.86997 0.0
C832 C 0.63081 0.19251 0.66148 0.0
C833 C 0.63853 0.21187 0.65822 0.0
C834 C 0.64348 0.17571 0.66092 0.0
C835 C 0.66437 0.17847 0.6579 0.0
C836 C 0.67218 0.19802 0.65458 0.0
C837 C 0.65913 0.21443 0.65438 0.0
C838 C 0.63457 0.15505 0.66366 0.0
C839 C 0.69441 0.20168 0.6519 0.0
C840 C 0.70201 0.14067 0.68309 0.0
C841 C 0.70984 0.13312 0.65977 0.0
C842 C 0.68651 0.15486 0.68286 0.0
C843 C 0.67831 0.16114 0.65876 0.0
C844 C 0.68517 0.15238 0.63529 0.0
C845 C 0.7011 0.13871 0.63604 0.0
C846 C 0.67995 0.16418 0.70827 0.0
C847 C 0.67638 0.1582 0.60927 0.0
H848 H 0.61486 0.1905 0.66431 0.0
H849 H 0.66517 0.2294 0.65212 0.0
H850 H 0.63942 0.14544 0.64719 0.0
H851 H 0.64006 0.14792 0.68181 0.0
H852 H 0.61795 0.15538 0.66418 0.0
H853 H 0.69807 0.21784 0.65007 0.0
H854 H 0.70238 0.19558 0.66914 0.0
H855 H 0.70026 0.19377 0.63451 0.0
H856 H 0.70885 0.13648 0.70145 0.0
H857 H 0.70705 0.13273 0.61799 0.0
H858 H 0.66342 0.16382 0.71005 0.0
H859 H 0.6846 0.18013 0.70871 0.0
H860 H 0.68656 0.15647 0.72541 0.0
H861 H 0.65979 0.15829 0.61023 0.0
H862 H 0.68116 0.14788 0.59347 0.0
H863 H 0.68127 0.17357 0.60412 0.0
C864 C 0.80498 0.63276 0.66499 0.0
C865 C 0.78536 0.64017 0.66378 0.0
C866 C 0.82149 0.64576 0.66372 0.0
C867 C 0.81823 0.66665 0.66196 0.0
C868 C 0.79843 0.67416 0.66037 0.0
C869 C 0.78225 0.6608 0.66095 0.0
C870 C 0.84238 0.63717 0.66465 0.0
C871 C 0.7943 0.69638 0.65897 0.0
C872 C 0.85686 0.70342 0.68739 0.0
C873 C 0.86399 0.71187 0.6642 0.0
C874 C 0.84241 0.68817 0.68695 0.0
C875 C 0.83536 0.68086 0.66272 0.0
C876 C 0.84353 0.68841 0.63926 0.0
C877 C 0.85754 0.70404 0.64027 0.0
C878 C 0.83381 0.68077 0.71239 0.0
C879 C 0.83685 0.68058 0.61307 0.0
H880 H 0.80744 0.61679 0.66701 0.0
H881 H 0.7671 0.6666 0.66022 0.0
H882 H 0.85137 0.64296 0.64812 0.0
H883 H 0.84995 0.64195 0.68284 0.0
H884 H 0.84237 0.62054 0.66388 0.0
H885 H 0.77805 0.69976 0.65785 0.0
H886 H 0.80057 0.70392 0.67643 0.0
H887 H 0.80177 0.70294 0.64168 0.0
H888 H 0.8617 0.70954 0.70591 0.0
H889 H 0.86315 0.71045 0.6223 0.0
H890 H 0.83457 0.66421 0.7134 0.0
H891 H 0.81778 0.68503 0.71363 0.0
H892 H 0.84175 0.68709 0.72953 0.0
H893 H 0.83701 0.66397 0.61293 0.0
H894 H 0.84649 0.68611 0.59698 0.0
H895 H 0.82124 0.68542 0.60922 0.0
C896 C 0.2975 0.86424 0.6449 0.0
C897 C 0.27795 0.85689 0.64753 0.0
C898 C 0.31386 0.85111 0.64311 0.0
C899 C 0.3106 0.83021 0.64499 0.0
C900 C 0.29083 0.82274 0.64733 0.0
C901 C 0.27471 0.83618 0.64813 0.0
C902 C 0.33464 0.85959 0.63969 0.0
C903 C 0.28675 0.80059 0.65012 0.0
C904 C 0.34873 0.79086 0.62529 0.0
C905 C 0.35729 0.786 0.6494 0.0
C906 C 0.33431 0.80609 0.62328 0.0
C907 C 0.32782 0.81611 0.64607 0.0
C908 C 0.33681 0.81158 0.67035 0.0
C909 C 0.35168 0.7968 0.67164 0.0
C910 C 0.32559 0.81101 0.59692 0.0
C911 C 0.32995 0.82154 0.69521 0.0
H912 H 0.29998 0.88028 0.64424 0.0
H913 H 0.25961 0.83049 0.6504 0.0
H914 H 0.3436 0.85686 0.65752 0.0
H915 H 0.34238 0.85197 0.62333 0.0
H916 H 0.33441 0.87596 0.63582 0.0
H917 H 0.2705 0.79723 0.6516 0.0
H918 H 0.29295 0.79233 0.63322 0.0
H919 H 0.29432 0.7948 0.66783 0.0
H920 H 0.35315 0.78259 0.60805 0.0
H921 H 0.35814 0.79292 0.69034 0.0
H922 H 0.3256 0.82744 0.59372 0.0
H923 H 0.30981 0.8059 0.59602 0.0
H924 H 0.33401 0.80373 0.58083 0.0
H925 H 0.33092 0.83805 0.69338 0.0
H926 H 0.33893 0.81681 0.71235 0.0
H927 H 0.31402 0.81775 0.6989 0.0
C928 C 0.16232 0.27909 0.65584 0.0
C929 C 0.14165 0.28257 0.65527 0.0
C930 C 0.17594 0.29504 0.65568 0.0
C931 C 0.16872 0.31493 0.65397 0.0
C932 C 0.14786 0.31848 0.65211 0.0
C933 C 0.13452 0.30224 0.65331 0.0
C934 C 0.19802 0.29062 0.65851 0.0
C935 C 0.13966 0.33943 0.64933 0.0
C936 C 0.20252 0.35469 0.68292 0.0
C937 C 0.21366 0.36066 0.66115 0.0
C938 C 0.18748 0.34015 0.68072 0.0
C939 C 0.18303 0.33191 0.65598 0.0
C940 C 0.19348 0.33874 0.63367 0.0
C941 C 0.20898 0.35278 0.6366 0.0
C942 C 0.17714 0.33285 0.7051 0.0
C943 C 0.18866 0.33081 0.60686 0.0
H944 H 0.16785 0.26389 0.6576 0.0
H945 H 0.11852 0.30491 0.65267 0.0
H946 H 0.20645 0.29707 0.64192 0.0
H947 H 0.20381 0.29772 0.67654 0.0
H948 H 0.20117 0.2743 0.65943 0.0
H949 H 0.12334 0.33947 0.64517 0.0
H950 H 0.1423 0.34796 0.66755 0.0
H951 H 0.14753 0.34746 0.63342 0.0
H952 H 0.20624 0.36066 0.70196 0.0
H953 H 0.21749 0.35753 0.61973 0.0
H954 H 0.18051 0.31674 0.7081 0.0
H955 H 0.16068 0.33427 0.70306 0.0
H956 H 0.18192 0.34125 0.72272 0.0
H957 H 0.19348 0.31497 0.60533 0.0
H958 H 0.19624 0.33952 0.59129 0.0
H959 H 0.17226 0.33121 0.60341 0.0
C960 C 0.22573 0.08379 0.06385 0.0
C961 C 0.21092 0.09458 0.07714 0.0
C962 C 0.22571 0.08271 0.03648 0.0
C963 C 0.21017 0.09213 0.0222 0.0
C964 C 0.19423 0.10144 0.03577 0.0
C965 C 0.195 0.10289 0.06305 0.0
C966 C 0.24327 0.07308 0.02288 0.0
C967 C 0.17703 0.11109 0.02142 0.0
C968 C 0.2228 0.11577 0.95702 0.0
C969 C 0.21611 0.10132 0.93923 0.0
C970 C 0.22125 0.11271 0.98394 0.0
C971 C 0.21216 0.09501 0.99348 0.0
C972 C 0.20503 0.08046 0.97561 0.0
C973 C 0.20743 0.08363 0.94863 0.0
C974 C 0.22955 0.12841 1.0022 0.0
C975 C 0.19468 0.06172 0.98499 0.0
H976 H 0.23817 0.07752 0.07469 0.0
H977 H 0.18347 0.11116 0.07332 0.0
H978 H 0.23812 0.06311 0.00697 0.0
H979 H 0.25269 0.08491 0.01392 0.0
H980 H 0.25272 0.06426 0.03651 0.0
H981 H 0.16426 0.11441 0.03459 0.0
H982 H 0.18211 0.12535 0.01254 0.0
H983 H 0.1717 0.10126 0.00543 0.0
H984 H 0.22976 0.12936 0.94985 0.0
H985 H 0.2022 0.07246 0.9349 0.0
H986 H 0.24044 0.12149 0.01583 0.0
H987 H 0.2173 0.13489 0.01408 0.0
H988 H 0.23715 0.14078 0.99164 0.0
H989 H 0.20488 0.05294 0.99764 0.0
H990 H 0.18967 0.05206 0.96864 0.0
H991 H 0.18147 0.06581 0.99696 0.0
C992 C 0.88963 0.19712 0.94539 0.0
C993 C 0.89964 0.21121 0.92993 0.0
C994 C 0.89135 0.19746 0.97264 0.0
C995 C 0.9028 0.21271 0.98474 0.0
C996 C 0.91394 0.22619 0.96912 0.0
C997 C 0.91244 0.2251 0.94183 0.0
C998 C 0.87973 0.18239 0.9885 0.0
C999 C 0.92599 0.24293 0.98115 0.0
C1000 C 0.88131 0.23087 0.04892 0.0
C1001 C 0.89461 0.22272 0.06715 0.0
C1002 C 0.8842 0.22814 0.02212 0.0
C1003 C 0.90051 0.21642 0.01324 0.0
C1004 C 0.91401 0.20806 0.03157 0.0
C1005 C 0.91107 0.21158 0.05837 0.0
C1006 C 0.8697 0.23776 1.00331 0.0
C1007 C 0.93121 0.19504 0.02291 0.0
H1008 H 0.87982 0.18628 0.93621 0.0
H1009 H 0.92005 0.23613 0.92992 0.0
H1010 H 0.889 0.17656 1.00474 0.0
H1011 H 0.86641 0.18976 0.99716 0.0
H1012 H 0.87453 0.16959 0.97644 0.0
H1013 H 0.93594 0.25031 0.96672 0.0
H1014 H 0.91563 0.25436 0.98918 0.0
H1015 H 0.93523 0.23731 0.99752 0.0
H1016 H 0.86868 0.23968 0.05562 0.0
H1017 H 0.92132 0.20518 0.07247 0.0
H1018 H 0.86148 0.22602 0.9924 0.0
H1019 H 0.87796 0.24695 0.98886 0.0
H1020 H 0.8586 0.24747 0.01332 0.0
H1021 H 0.92534 0.18161 0.01273 0.0
H1022 H 0.94065 0.19006 0.0395 0.0
H1023 H 0.94076 0.20323 0.00881 0.0
C1024 C 0.7779 0.87647 0.95716 0.0
C1025 C 0.78405 0.89089 0.93904 0.0
C1026 C 0.77902 0.88012 0.984 0.0
C1027 C 0.78717 0.89841 0.99309 0.0
C1028 C 0.79381 0.91293 0.97488 0.0
C1029 C 0.79181 0.90915 0.94799 0.0
C1030 C 0.77122 0.86443 1.00262 0.0
C1031 C 0.80322 0.93228 0.98381 0.0
C1032 C 0.77227 0.91059 0.0627 0.0
C1033 C 0.78734 0.90073 0.07667 0.0
C1034 C 0.77256 0.91104 0.03532 0.0
C1035 C 0.78866 0.90197 0.02172 0.0
C1036 C 0.80482 0.89365 0.03595 0.0
C1037 C 0.80376 0.89276 0.06325 0.0
C1038 C 0.75476 0.91957 0.02101 0.0
C1039 C 0.82261 0.88447 0.02232 0.0
H1040 H 0.77165 0.86244 0.9503 0.0
H1041 H 0.79663 0.92029 0.93398 0.0
H1042 H 0.78362 0.85874 0.01494 0.0
H1043 H 0.75989 0.87111 0.01582 0.0
H1044 H 0.7643 0.85152 0.99235 0.0
H1045 H 0.80807 0.9418 0.96722 0.0
H1046 H 0.79247 0.94089 0.99586 0.0
H1047 H 0.81641 0.92903 0.99625 0.0
H1048 H 0.75945 0.91656 0.07307 0.0
H1049 H 0.81548 0.8852 0.07407 0.0
H1050 H 0.74601 0.90714 0.01227 0.0
H1051 H 0.75966 0.92944 1.00487 0.0
H1052 H 0.74475 0.92822 0.03411 0.0
H1053 H 0.81827 0.8698 0.01389 0.0
H1054 H 0.83534 0.88202 0.03586 0.0
H1055 H 0.82768 0.89417 0.00606 0.0
C1056 C 0.08662 0.7739 0.94951 0.0
C1057 C 0.09542 0.79025 0.93682 0.0
C1058 C 0.08556 0.77319 0.97684 0.0
C1059 C 0.09292 0.78951 0.99168 0.0
C1060 C 0.10002 0.80685 0.97875 0.0
C1061 C 0.10156 0.80685 0.95147 0.0
C1062 C 0.07835 0.75422 0.98976 0.0
C1063 C 0.10737 0.82484 0.99375 0.0
C1064 C 0.08474 0.78916 0.06532 0.0
C1065 C 0.1035 0.78263 0.07414 0.0
C1066 C 0.08107 0.79186 0.03851 0.0
C1067 C 0.09627 0.7872 0.02024 0.0
C1068 C 0.1151 0.78026 0.02918 0.0
C1069 C 0.11856 0.7784 0.05598 0.0
C1070 C 0.06107 0.79993 0.02976 0.0
C1071 C 0.13159 0.77459 0.01043 0.0
H1072 H 0.08204 0.76097 0.9382 0.0
H1073 H 0.10827 0.81956 0.94165 0.0
H1074 H 0.09136 0.74615 0.99819 0.0
H1075 H 0.06794 0.75766 0.00596 0.0
H1076 H 0.07069 0.74407 0.9758 0.0
H1077 H 0.10882 0.83826 0.9811 0.0
H1078 H 0.09705 0.82839 0.01005 0.0
H1079 H 0.12226 0.82152 1.00228 0.0
H1080 H 0.07311 0.79251 0.07938 0.0
H1081 H 0.133 0.77312 0.06272 0.0
H1082 H 0.0536 0.78902 0.0167 0.0
H1083 H 0.06329 0.81389 0.01841 0.0
H1084 H 0.05097 0.80318 0.04642 0.0
H1085 H 0.12605 0.76326 0.99635 0.0
H1086 H 0.14493 0.7684 0.02053 0.0
H1087 H 0.13631 0.78791 0.99909 0.0
C1088 C 0.2192 0.88039 0.45292 0.0
C1089 C 0.21492 0.89568 0.4351 0.0
C1090 C 0.21796 0.88367 0.47981 0.0
C1091 C 0.21156 0.90255 0.48922 0.0
C1092 C 0.20681 0.91799 0.4713 0.0
C1093 C 0.20893 0.91449 0.44437 0.0
C1094 C 0.22374 0.86693 0.49815 0.0
C1095 C 0.19926 0.93805 0.48058 0.0
C1096 C 0.19328 0.89708 0.5586 0.0
C1097 C 0.21021 0.90298 0.57273 0.0
C1098 C 0.19274 0.89877 0.53135 0.0
C1099 C 0.2099 0.90573 0.51789 0.0
C1100 C 0.22661 0.91277 0.53224 0.0
C1101 C 0.22642 0.91161 0.55958 0.0
C1102 C 0.17434 0.8918 0.51691 0.0
C1103 C 0.24543 0.91975 0.51874 0.0
H1104 H 0.22409 0.8659 0.4458 0.0
H1105 H 0.20556 0.9263 0.43058 0.0
H1106 H 0.23541 0.87218 0.51193 0.0
H1107 H 0.21058 0.86231 0.50986 0.0
H1108 H 0.22952 0.85358 0.48767 0.0
H1109 H 0.19578 0.94832 0.46416 0.0
H1110 H 0.18554 0.93597 0.49245 0.0
H1111 H 0.21058 0.94528 0.49328 0.0
H1112 H 0.18069 0.89049 0.56881 0.0
H1113 H 0.23961 0.91598 0.5705 0.0
H1114 H 0.17725 0.87691 0.50811 0.0
H1115 H 0.17061 0.90227 0.50085 0.0
H1116 H 0.16118 0.89046 0.53002 0.0
H1117 H 0.25307 0.90667 0.50984 0.0
H1118 H 0.256 0.92711 0.53242 0.0
H1119 H 0.24184 0.93035 0.5028 0.0
C1120 C 0.11945 0.21744 0.55858 0.0
C1121 C 0.10417 0.21209 0.5759 0.0
C1122 C 0.11653 0.21669 0.53156 0.0
C1123 C 0.09809 0.20962 0.52148 0.0
C1124 C 0.08272 0.2037 0.53891 0.0
C1125 C 0.08579 0.20543 0.56599 0.0
C1126 C 0.13312 0.22378 0.51382 0.0
C1127 C 0.06318 0.19536 0.52894 0.0
C1128 C 0.08822 0.22575 0.45167 0.0
C1129 C 0.0976 0.21034 0.43778 0.0
C1130 C 0.08726 0.22527 0.47903 0.0
C1131 C 0.09523 0.20862 0.49267 0.0
C1132 C 0.1031 0.19222 0.47846 0.0
C1133 C 0.10462 0.19349 0.45121 0.0
C1134 C 0.07935 0.24337 0.49333 0.0
C1135 C 0.11106 0.17385 0.4921 0.0
H1136 H 0.13359 0.22286 0.5662 0.0
H1137 H 0.07398 0.20123 0.5794 0.0
H1138 H 0.13852 0.21119 0.50161 0.0
H1139 H 0.12742 0.23554 0.50046 0.0
H1140 H 0.14606 0.22995 0.52481 0.0
H1141 H 0.05305 0.19071 0.545 0.0
H1142 H 0.05538 0.20671 0.51688 0.0
H1143 H 0.0661 0.18222 0.51625 0.0
H1144 H 0.08303 0.23891 0.44129 0.0
H1145 H 0.11184 0.18153 0.44044 0.0
H1146 H 0.09199 0.25127 0.5029 0.0
H1147 H 0.06874 0.23885 0.50884 0.0
H1148 H 0.07169 0.25405 0.48006 0.0
H1149 H 0.12572 0.17735 0.50116 0.0
H1150 H 0.11318 0.16114 0.47841 0.0
H1151 H 0.10075 0.16911 0.50788 0.0
C1152 C 0.77282 0.11985 0.54754 0.0
C1153 C 0.78028 0.10524 0.56455 0.0
C1154 C 0.77421 0.11756 0.52047 0.0
C1155 C 0.78389 0.1005 0.51001 0.0
C1156 C 0.79176 0.08578 0.52708 0.0
C1157 C 0.78956 0.08816 0.55422 0.0
C1158 C 0.76515 0.13341 0.50307 0.0
C1159 C 0.80272 0.06771 0.51669 0.0
C1160 C 0.77043 0.09055 0.43929 0.0
C1161 C 0.78482 0.10213 0.42638 0.0
C1162 C 0.77055 0.08886 0.4666 0.0
C1163 C 0.7858 0.0985 0.48117 0.0
C1164 C 0.80133 0.10874 0.46793 0.0
C1165 C 0.80044 0.11076 0.44073 0.0
C1166 C 0.75343 0.07825 0.47989 0.0
C1167 C 0.81821 0.11867 0.4826 0.0
H1168 H 0.76542 0.13297 0.55542 0.0
H1169 H 0.7954 0.07687 0.56734 0.0
H1170 H 0.77704 0.14068 0.49134 0.0
H1171 H 0.75443 0.12644 0.48926 0.0
H1172 H 0.75717 0.14518 0.51429 0.0
H1173 H 0.80816 0.05776 0.53252 0.0
H1174 H 0.79277 0.05895 0.50369 0.0
H1175 H 0.81572 0.07261 0.50485 0.0
H1176 H 0.75824 0.08402 0.42823 0.0
H1177 H 0.81166 0.11962 0.43073 0.0
H1178 H 0.74368 0.08948 0.48954 0.0
H1179 H 0.75904 0.06801 0.49523 0.0
H1180 H 0.74419 0.06951 0.46594 0.0
H1181 H 0.8126 0.13243 0.49226 0.0
H1182 H 0.83074 0.12293 0.46949 0.0
H1183 H 0.82405 0.1086 0.49802 0.0
C1184 C 0.88225 0.77435 0.55313 0.0
C1185 C 0.89625 0.78191 0.57091 0.0
C1186 C 0.88545 0.77563 0.52622 0.0
C1187 C 0.90283 0.78531 0.51669 0.0
C1188 C 0.91695 0.79327 0.53454 0.0
C1189 C 0.91365 0.79115 0.56153 0.0
C1190 C 0.87023 0.76647 0.50798 0.0
C1191 C 0.93531 0.80424 0.52513 0.0
C1192 C 0.91475 0.77149 0.44664 0.0
C1193 C 0.90338 0.78571 0.4331 0.0
C1194 C 0.91581 0.77184 0.474 0.0
C1195 C 0.90575 0.78715 0.48798 0.0
C1196 C 0.89585 0.80259 0.47412 0.0
C1197 C 0.89445 0.80146 0.44687 0.0
C1198 C 0.92611 0.75482 0.48794 0.0
C1199 C 0.88549 0.81954 0.48815 0.0
H1200 H 0.86889 0.76696 0.5603 0.0
H1201 H 0.92447 0.79706 0.57526 0.0
H1202 H 0.8633 0.77832 0.49583 0.0
H1203 H 0.87767 0.75575 0.4946 0.0
H1204 H 0.85814 0.75845 0.51856 0.0
H1205 H 0.94476 0.80967 0.54148 0.0
H1206 H 0.94446 0.79431 0.51258 0.0
H1207 H 0.93077 0.81726 0.51306 0.0
H1208 H 0.9215 0.75918 0.43603 0.0
H1209 H 0.88575 0.81255 0.43638 0.0
H1210 H 0.91465 0.74495 0.4969 0.0
H1211 H 0.93575 0.76053 0.50387 0.0
H1212 H 0.93541 0.74567 0.47452 0.0
H1213 H 0.87143 0.81397 0.49705 0.0
H1214 H 0.8817 0.83204 0.47475 0.0
H1215 H 0.89505 0.8254 0.50409 0.0
C1216 C 0.72987 0.58914 0.57241 0.0
C1217 C 0.71443 0.59802 0.58679 0.0
C1218 C 0.72897 0.58829 0.54506 0.0
C1219 C 0.71189 0.59587 0.53194 0.0
C1220 C 0.69554 0.60326 0.54665 0.0
C1221 C 0.6972 0.60466 0.57387 0.0
C1222 C 0.747 0.58088 0.5302 0.0
C1223 C 0.67676 0.6108 0.53357 0.0
C1224 C 0.71883 0.62032 0.46581 0.0
C1225 C 0.71345 0.60493 0.44865 0.0
C1226 C 0.71871 0.61736 0.49284 0.0
C1227 C 0.71229 0.59876 0.50311 0.0
C1228 C 0.70636 0.58325 0.48587 0.0
C1229 C 0.70742 0.58639 0.45875 0.0
C1230 C 0.72575 0.63412 0.51038 0.0
C1231 C 0.69872 0.5635 0.49608 0.0
H1232 H 0.7433 0.58422 0.58238 0.0
H1233 H 0.68521 0.61146 0.58503 0.0
H1234 H 0.74247 0.57013 0.51483 0.0
H1235 H 0.75436 0.59372 0.52037 0.0
H1236 H 0.75812 0.57352 0.54313 0.0
H1237 H 0.66427 0.61268 0.54764 0.0
H1238 H 0.67977 0.62552 0.52436 0.0
H1239 H 0.67196 0.60035 0.51797 0.0
H1240 H 0.72376 0.63459 0.45804 0.0
H1241 H 0.70319 0.5745 0.44546 0.0
H1242 H 0.73791 0.6287 0.5233 0.0
H1243 H 0.71329 0.63919 0.52303 0.0
H1244 H 0.73136 0.64722 0.49921 0.0
H1245 H 0.71048 0.55601 0.5078 0.0
H1246 H 0.69406 0.55324 0.48016 0.0
H1247 H 0.68575 0.56608 0.50915 0.0
C1248 C 0.3935 0.6943 0.44067 0.0
C1249 C 0.40213 0.71037 0.42721 0.0
C1250 C 0.39451 0.69315 0.46797 0.0
C1251 C 0.40359 0.70891 0.48218 0.0
C1252 C 0.41322 0.72466 0.46853 0.0
C1253 C 0.41266 0.725 0.44114 0.0
C1254 C 0.38472 0.6757 0.48164 0.0
C1255 C 0.42253 0.74209 0.48281 0.0
C1256 C 0.37906 0.7205 0.54715 0.0
C1257 C 0.39341 0.71382 0.56507 0.0
C1258 C 0.38244 0.71929 0.52026 0.0
C1259 C 0.40032 0.71046 0.51089 0.0
C1260 C 0.41473 0.70327 0.5289 0.0
C1261 C 0.41128 0.70542 0.55586 0.0
C1262 C 0.36691 0.72772 0.50188 0.0
C1263 C 0.43362 0.69311 0.51969 0.0
H1264 H 0.38541 0.68292 0.42989 0.0
H1265 H 0.41912 0.73757 0.43075 0.0
H1266 H 0.39431 0.6702 0.49777 0.0
H1267 H 0.3703 0.6806 0.49024 0.0
H1268 H 0.38167 0.6631 0.46807 0.0
H1269 H 0.43141 0.75184 0.46962 0.0
H1270 H 0.41052 0.75126 0.4918 0.0
H1271 H 0.43236 0.73676 0.49876 0.0
H1272 H 0.36534 0.72726 0.55422 0.0
H1273 H 0.42236 0.7002 0.56971 0.0
H1274 H 0.36061 0.71557 0.48964 0.0
H1275 H 0.37392 0.7388 0.48859 0.0
H1276 H 0.35439 0.73515 0.51235 0.0
H1277 H 0.42975 0.68011 0.5072 0.0
H1278 H 0.44303 0.68781 0.53614 0.0
H1279 H 0.44257 0.70357 0.50762 0.0
C1280 C 0.28022 0.37981 0.46196 0.0
C1281 C 0.2863 0.39448 0.44416 0.0
C1282 C 0.28054 0.38344 0.48883 0.0
C1283 C 0.28789 0.40196 0.49829 0.0
C1284 C 0.29444 0.41675 0.4804 0.0
C1285 C 0.29316 0.41299 0.45343 0.0
C1286 C 0.2728 0.36745 0.50708 0.0
C1287 C 0.30308 0.43635 0.48975 0.0
C1288 C 0.27124 0.41321 0.56746 0.0
C1289 C 0.28624 0.40356 0.5818 0.0
C1290 C 0.27211 0.41394 0.54011 0.0
C1291 C 0.28873 0.40541 0.52698 0.0
C1292 C 0.30478 0.39737 0.54166 0.0
C1293 C 0.30313 0.39612 0.56888 0.0
C1294 C 0.25438 0.42209 0.52529 0.0
C1295 C 0.32311 0.3888 0.52856 0.0
H1296 H 0.27465 0.36558 0.45479 0.0
H1297 H 0.29792 0.42431 0.43962 0.0
H1298 H 0.28513 0.36196 0.51966 0.0
H1299 H 0.26111 0.37379 0.52003 0.0
H1300 H 0.26635 0.35447 0.49647 0.0
H1301 H 0.30778 0.44615 0.47338 0.0
H1302 H 0.29192 0.4445 0.50172 0.0
H1303 H 0.31624 0.43344 0.50239 0.0
H1304 H 0.25806 0.41873 0.57746 0.0
H1305 H 0.31476 0.3887 0.58002 0.0
H1306 H 0.24609 0.40947 0.51623 0.0
H1307 H 0.25933 0.43213 0.50935 0.0
H1308 H 0.24393 0.43045 0.53813 0.0
H1309 H 0.31939 0.37405 0.51989 0.0
H1310 H 0.33563 0.38667 0.54252 0.0
H1311 H 0.3282 0.39873 0.51255 0.0
C1312 C 0.6173 0.27424 0.55494 0.0
C1313 C 0.60284 0.28117 0.5725 0.0
C1314 C 0.61419 0.27528 0.52799 0.0
C1315 C 0.59648 0.28419 0.51822 0.0
C1316 C 0.58188 0.2915 0.53588 0.0
C1317 C 0.58506 0.28952 0.56291 0.0
C1318 C 0.6299 0.26671 0.50997 0.0
C1319 C 0.56317 0.30175 0.52623 0.0
C1320 C 0.60468 0.30097 0.44859 0.0
C1321 C 0.59613 0.28514 0.4346 0.0
C1322 C 0.6032 0.30185 0.47585 0.0
C1323 C 0.59373 0.28602 0.48948 0.0
C1324 C 0.58422 0.27049 0.47527 0.0
C1325 C 0.58524 0.27044 0.44791 0.0
C1326 C 0.6129 0.31907 0.49012 0.0
C1327 C 0.57452 0.25299 0.48895 0.0
H1328 H 0.63095 0.26755 0.56235 0.0
H1329 H 0.57391 0.29495 0.57652 0.0
H1330 H 0.62296 0.25586 0.49631 0.0
H1331 H 0.63661 0.27886 0.49811 0.0
H1332 H 0.6421 0.25901 0.52073 0.0
H1333 H 0.5533 0.30661 0.54245 0.0
H1334 H 0.56731 0.31507 0.51448 0.0
H1335 H 0.55461 0.29157 0.51331 0.0
H1336 H 0.61305 0.31238 0.43824 0.0
H1337 H 0.57884 0.25806 0.43706 0.0
H1338 H 0.62709 0.31395 0.49915 0.0
H1339 H 0.60304 0.32454 0.50599 0.0
H1340 H 0.61635 0.33175 0.47686 0.0
H1341 H 0.58631 0.24358 0.49803 0.0
H1342 H 0.56573 0.24351 0.47535 0.0
H1343 H 0.56453 0.25823 0.50478 0.0
C1344 C 0.69533 0.39087 0.9501 0.0
C1345 C 0.71144 0.39845 0.93568 0.0
C1346 C 0.69484 0.39258 0.97736 0.0
C1347 C 0.71123 0.40142 0.99058 0.0
C1348 C 0.72706 0.41 0.97597 0.0
C1349 C 0.72682 0.40867 0.94863 0.0
C1350 C 0.67735 0.38383 0.99208 0.0
C1351 C 0.74507 0.41909 0.98923 0.0
C1352 C 0.70865 0.41172 0.06372 0.0
C1353 C 0.71657 0.39391 0.07388 0.0
C1354 C 0.70651 0.41437 0.03662 0.0
C1355 C 0.7131 0.39914 0.0194 0.0
C1356 C 0.72146 0.38132 0.02968 0.0
C1357 C 0.72277 0.37881 0.05673 0.0
C1358 C 0.69694 0.43328 0.02644 0.0
C1359 C 0.72918 0.36489 0.0121 0.0
H1360 H 0.68335 0.38306 0.9401 0.0
H1361 H 0.73939 0.41438 0.93753 0.0
H1362 H 0.68198 0.36964 1.00155 0.0
H1363 H 0.67237 0.39421 0.00766 0.0
H1364 H 0.66446 0.38061 0.97905 0.0
H1365 H 0.75494 0.42711 0.97528 0.0
H1366 H 0.74038 0.42969 1.00469 0.0
H1367 H 0.7539 0.40705 0.99872 0.0
H1368 H 0.70376 0.42338 0.07696 0.0
H1369 H 0.72913 0.36512 0.06449 0.0
H1370 H 0.68353 0.42945 0.01469 0.0
H1371 H 0.70747 0.44128 0.0134 0.0
H1372 H 0.69238 0.44357 0.04237 0.0
H1373 H 0.7167 0.35863 1.0004 0.0
H1374 H 0.73626 0.35249 0.02318 0.0
H1375 H 0.74035 0.37106 0.99826 0.0
C1376 C 0.60664 0.69317 0.06238 0.0
C1377 C 0.59911 0.70888 0.0776 0.0
C1378 C 0.6044 0.69321 0.03517 0.0
C1379 C 0.59501 0.70969 0.02284 0.0
C1380 C 0.58635 0.72501 0.03828 0.0
C1381 C 0.58828 0.72427 0.06554 0.0
C1382 C 0.61331 0.67626 0.01955 0.0
C1383 C 0.5766 0.74307 0.02598 0.0
C1384 C 0.61672 0.7237 0.95703 0.0
C1385 C 0.60169 0.71752 0.93975 0.0
C1386 C 0.61448 0.72152 0.98402 0.0
C1387 C 0.59699 0.71238 0.9941 0.0
C1388 C 0.58182 0.70585 0.97674 0.0
C1389 C 0.58421 0.70879 0.94973 0.0
C1390 C 0.63085 0.72916 1.00176 0.0
C1391 C 0.56325 0.69554 0.9867 0.0
H1392 H 0.6149 0.68116 0.07167 0.0
H1393 H 0.58257 0.73652 0.07723 0.0
H1394 H 0.60287 0.67147 1.00392 0.0
H1395 H 0.62731 0.6814 0.01006 0.0
H1396 H 0.6169 0.66311 0.03195 0.0
H1397 H 0.56839 0.7523 0.04048 0.0
H1398 H 0.58828 0.75254 0.01678 0.0
H1399 H 0.56603 0.73848 0.01043 0.0
H1400 H 0.63017 0.73067 0.94945 0.0
H1401 H 0.5726 0.70394 0.9364 0.0
H1402 H 0.63746 0.71653 0.01283 0.0
H1403 H 0.62453 0.73984 0.01613 0.0
H1404 H 0.64302 0.7368 0.99087 0.0
H1405 H 0.56749 0.6819 0.99775 0.0
H1406 H 0.55294 0.69117 0.97069 0.0
H1407 H 0.5551 0.7055 1.00034 0.0
C1408 C 0.2908 0.58334 0.05944 0.0
C1409 C 0.28215 0.60065 0.07005 0.0
C1410 C 0.29303 0.58119 0.03226 0.0
C1411 C 0.28575 0.59637 0.01541 0.0
C1412 C 0.27672 0.61368 0.02616 0.0
C1413 C 0.27535 0.61574 0.05327 0.0
C1414 C 0.30334 0.56284 0.02159 0.0
C1415 C 0.26825 0.63002 0.00902 0.0
C1416 C 0.30227 0.60652 0.94602 0.0
C1417 C 0.28627 0.59857 0.93172 0.0
C1418 C 0.30326 0.60427 0.9732 0.0
C1419 C 0.28745 0.5945 0.9865 0.0
C1420 C 0.2718 0.58551 0.97196 0.0
C1421 C 0.27158 0.58739 0.94467 0.0
C1422 C 0.32057 0.61348 0.98781 0.0
C1423 C 0.25437 0.57543 0.98529 0.0
H1424 H 0.29613 0.57168 0.07238 0.0
H1425 H 0.26842 0.62903 0.06137 0.0
H1426 H 0.293 0.55444 0.0087 0.0
H1427 H 0.31637 0.56739 0.00957 0.0
H1428 H 0.30862 0.55267 0.03727 0.0
H1429 H 0.26077 0.642 0.02044 0.0
H1430 H 0.28038 0.63691 0.99732 0.0
H1431 H 0.25722 0.62359 0.99517 0.0
H1432 H 0.31372 0.61509 0.93602 0.0
H1433 H 0.25907 0.5814 0.93368 0.0
H1434 H 0.32607 0.60314 1.00313 0.0
H1435 H 0.31553 0.62741 0.99759 0.0
H1436 H 0.3332 0.6173 0.97463 0.0
H1437 H 0.25968 0.56487 1.00045 0.0
H1438 H 0.24473 0.56715 0.97133 0.0
H1439 H 0.2451 0.58694 0.99518 0.0
C1440 C 0.3798 0.27888 0.95613 0.0
C1441 C 0.39536 0.28329 0.93876 0.0
C1442 C 0.38266 0.27997 0.98312 0.0
C1443 C 0.40137 0.28633 0.99311 0.0
C1444 C 0.41706 0.29124 0.97566 0.0
C1445 C 0.41399 0.28928 0.94861 0.0
C1446 C 0.36565 0.27404 1.00094 0.0
C1447 C 0.43697 0.29873 0.98555 0.0
C1448 C 0.39511 0.30401 0.0627 0.0
C1449 C 0.40085 0.28694 0.07669 0.0
C1450 C 0.39705 0.30476 0.03548 0.0
C1451 C 0.40414 0.28771 0.02188 0.0
C1452 C 0.411 0.27086 0.03611 0.0
C1453 C 0.40957 0.27082 0.06343 0.0
C1454 C 0.39024 0.32329 0.02118 0.0
C1455 C 0.41813 0.25216 0.02245 0.0
H1456 H 0.36545 0.27399 0.94858 0.0
H1457 H 0.42601 0.29276 0.93518 0.0
H1458 H 0.37069 0.2622 0.01463 0.0
H1459 H 0.36091 0.28709 0.01279 0.0
H1460 H 0.35244 0.2684 0.99004 0.0
H1461 H 0.44743 0.30247 0.96944 0.0
H1462 H 0.43469 0.31228 0.9977 0.0
H1463 H 0.44406 0.28725 0.99813 0.0
H1464 H 0.38846 0.31654 0.07297 0.0
H1465 H 0.41383 0.25753 0.07421 0.0
H1466 H 0.37549 0.32044 0.01198 0.0
H1467 H 0.40093 0.32719 0.00544 0.0
H1468 H 0.3887 0.33634 0.03447 0.0
H1469 H 0.40518 0.24466 0.01305 0.0
H1470 H 0.42524 0.24141 0.03612 0.0
H1471 H 0.42899 0.25589 0.00687 0.0
C1472 C 0.23957 0.0275 0.21161 0.0
C1473 C 0.25141 0.04373 0.21954 0.0
C1474 C 0.23989 0.00932 0.22539 0.0
C1475 C 0.25257 0.00726 0.24736 0.0
C1476 C 0.26506 0.02337 0.25488 0.0
C1477 C 0.26422 0.04144 0.24099 0.0
C1478 C 0.22625 0.99252 0.21688 0.0
C1479 C 0.27903 0.02164 0.2779 0.0
C1480 C 0.23912 0.96808 0.29823 0.0
C1481 C 0.25142 0.95204 0.2909 0.0
C1482 C 0.2394 0.98619 0.28428 0.0
C1483 C 0.2525 0.98837 0.26276 0.0
C1484 C 0.26536 0.97241 0.25577 0.0
C1485 C 0.26457 0.95441 0.26981 0.0
C1486 C 0.22535 0.00282 0.2922 0.0
C1487 C 0.27977 0.97427 0.23324 0.0
H1488 H 0.22955 0.02921 0.19516 0.0
H1489 H 0.27347 0.05391 0.24717 0.0
H1490 H 0.23512 0.97881 0.21294 0.0
H1491 H 0.21559 0.98889 0.23276 0.0
H1492 H 0.21758 0.99637 0.19911 0.0
H1493 H 0.28849 0.03518 0.2804 0.0
H1494 H 0.27025 0.01932 0.29598 0.0
H1495 H 0.28895 0.00844 0.27552 0.0
H1496 H 0.22886 0.9663 0.3144 0.0
H1497 H 0.27419 0.94209 0.26411 0.0
H1498 H 0.2151 0.00639 0.27584 0.0
H1499 H 0.23397 0.0166 0.29662 0.0
H1500 H 0.21624 0.99883 0.30953 0.0
H1501 H 0.27135 0.97661 0.21487 0.0
H1502 H 0.28935 0.96078 0.231 0.0
H1503 H 0.28957 0.98752 0.23603 0.0
C1504 C 0.95544 0.25885 0.24577 0.0
C1505 C 0.95407 0.24751 0.22286 0.0
C1506 C 0.97336 0.2598 0.25995 0.0
C1507 C 0.99015 0.24871 0.25136 0.0
C1508 C 0.98889 0.23731 0.22812 0.0
C1509 C 0.9709 0.23706 0.21394 0.0
C1510 C 0.97428 0.27255 0.28422 0.0
C1511 C 0.00638 0.22502 0.2186 0.0
C1512 C 0.04236 0.26213 0.27475 0.0
C1513 C 0.04536 0.24813 0.29473 0.0
C1514 C 0.02427 0.26282 0.26091 0.0
C1515 C 0.00898 0.24888 0.26682 0.0
C1516 C 0.0118 0.23491 0.28726 0.0
C1517 C 0.02991 0.23485 0.30119 0.0
C1518 C 0.02163 0.27827 0.2397 0.0
C1519 C 0.99595 0.21962 0.29389 0.0
H1520 H 0.94247 0.26706 0.25261 0.0
H1521 H 0.96981 0.22815 0.19634 0.0
H1522 H 0.97717 0.26298 0.30146 0.0
H1523 H 0.98684 0.28336 0.28279 0.0
H1524 H 0.96019 0.28102 0.28755 0.0
H1525 H 0.00293 0.21689 0.20025 0.0
H1526 H 0.01953 0.23481 0.21522 0.0
H1527 H 0.0107 0.21393 0.23369 0.0
H1528 H 0.05425 0.27249 0.26978 0.0
H1529 H 0.03225 0.22389 0.31646 0.0
H1530 H 0.00779 0.28705 0.24313 0.0
H1531 H 0.01995 0.27071 0.22058 0.0
H1532 H 0.03451 0.28876 0.23854 0.0
H1533 H 0.98172 0.22723 0.29893 0.0
H1534 H 0.00041 0.20989 0.31045 0.0
H1535 H 0.99296 0.21002 0.27668 0.0
C1536 C 0.75903 0.03013 0.29536 0.0
C1537 C 0.74706 0.04616 0.28714 0.0
C1538 C 0.75855 0.01166 0.28224 0.0
C1539 C 0.74554 0.00911 0.26068 0.0
C1540 C 0.73288 0.02502 0.25295 0.0
C1541 C 0.73391 0.04339 0.26613 0.0
C1542 C 0.77241 0.9951 0.29093 0.0
C1543 C 0.71853 0.02276 0.23041 0.0
C1544 C 0.75879 0.96921 0.21071 0.0
C1545 C 0.74692 0.9531 0.21891 0.0
C1546 C 0.75839 0.98758 0.22404 0.0
C1547 C 0.74557 0.98997 0.2458 0.0
C1548 C 0.73304 0.97397 0.25359 0.0
C1549 C 0.73399 0.95568 0.24018 0.0
C1550 C 0.7721 0.00425 0.21528 0.0
C1551 C 0.71889 0.97606 0.27636 0.0
H1552 H 0.76931 0.03222 0.31147 0.0
H1553 H 0.72454 0.05571 0.25976 0.0
H1554 H 0.7637 0.9814 0.29547 0.0
H1555 H 0.78288 0.99127 0.27491 0.0
H1556 H 0.78129 -0.00068 0.30838 0.0
H1557 H 0.70886 0.03615 0.22785 0.0
H1558 H 0.72702 0.02028 0.21213 0.0
H1559 H 0.70882 0.00947 0.23339 0.0
H1560 H 0.76891 0.96726 0.19441 0.0
H1561 H 0.72471 0.9433 0.24656 0.0
H1562 H 0.78259 0.00818 0.23125 0.0
H1563 H 0.76326 0.01787 0.21076 0.0
H1564 H 0.78096 0.0001 0.1978 0.0
H1565 H 0.72753 0.97864 0.29451 0.0
H1566 H 0.7094 0.96256 0.27907 0.0
H1567 H 0.70901 0.98923 0.27353 0.0
C1568 C 0.04398 0.73453 0.24014 0.0
C1569 C 0.04655 0.74767 0.21908 0.0
C1570 C 0.02587 0.73379 0.25391 0.0
C1571 C 0.01003 0.7467 0.24668 0.0
C1572 C 0.01244 0.75986 0.22526 0.0
C1573 C 0.03065 0.76008 0.21157 0.0
C1574 C 0.02375 0.71931 0.27634 0.0
C1575 C 0.99593 0.77398 0.21713 0.0
C1576 C 0.95685 0.73457 0.26737 0.0
C1577 C 0.95433 0.74715 0.289 0.0
C1578 C 0.97502 0.734 0.25371 0.0
C1579 C 0.99097 0.74653 0.26166 0.0
C1580 C 0.98864 0.75904 0.28374 0.0
C1581 C 0.97037 0.75909 0.29729 0.0
C1582 C 0.97706 0.7202 0.23056 0.0
C1583 C 0.00526 0.77273 0.29266 0.0
H1584 H 0.05619 0.72483 0.24597 0.0
H1585 H 0.0326 0.77034 0.19541 0.0
H1586 H 0.02109 0.72768 0.29468 0.0
H1587 H 0.01061 0.70945 0.27317 0.0
H1588 H 0.03724 0.70979 0.27889 0.0
H1589 H 0.00016 0.78322 0.2 0.0
H1590 H 0.98222 0.7654 0.21228 0.0
H1591 H 0.99214 0.78412 0.23353 0.0
H1592 H 0.94453 0.72524 0.26093 0.0
H1593 H 0.96846 0.76894 0.31388 0.0
H1594 H 0.99019 0.71022 0.23315 0.0
H1595 H 0.97967 0.72911 0.21265 0.0
H1596 H 0.96353 0.71078 0.22759 0.0
H1597 H 0.01894 0.7639 0.2969 0.0
H1598 H 0.00115 0.78137 0.31036 0.0
H1599 H 0.00907 0.78344 0.27689 0.0
C1600 C 0.73707 0.95546 0.77434 0.0
C1601 C 0.75097 0.95271 0.79449 0.0
C1602 C 0.73639 0.97341 0.76019 0.0
C1603 C 0.75026 0.98879 0.76596 0.0
C1604 C 0.76414 0.98622 0.78658 0.0
C1605 C 0.76417 0.96826 0.80082 0.0
C1606 C 0.72104 0.97578 0.73881 0.0
C1607 C 0.77935 0.00218 0.79304 0.0
C1608 C 0.76222 0.0262 0.71235 0.0
C1609 C 0.75162 0.0431 0.72073 0.0
C1610 C 0.76197 0.00841 0.72695 0.0
C1611 C 0.75047 0.00743 0.75011 0.0
C1612 C 0.73925 0.02429 0.75819 0.0
C1613 C 0.74015 0.04199 0.74355 0.0
C1614 C 0.77438 0.99083 0.71794 0.0
C1615 C 0.72642 0.02367 0.78239 0.0
H1616 H 0.72676 0.94349 0.76949 0.0
H1617 H 0.77504 0.96609 0.81624 0.0
H1618 H 0.71222 0.98965 0.74192 0.0
H1619 H 0.72868 0.97726 0.71973 0.0
H1620 H 0.71058 0.96287 0.73781 0.0
H1621 H 0.78897 0.99795 0.80981 0.0
H1622 H 0.78906 0.00496 0.77589 0.0
H1623 H 0.77169 0.01648 0.79769 0.0
H1624 H 0.77124 0.02707 0.69483 0.0
H1625 H 0.73183 0.05502 0.75001 0.0
H1626 H 0.76465 0.97759 0.71476 0.0
H1627 H 0.78539 0.98674 0.73323 0.0
H1628 H 0.78259 0.99405 0.6996 0.0
H1629 H 0.71564 0.01106 0.78116 0.0
H1630 H 0.71792 0.03779 0.78535 0.0
H1631 H 0.73593 0.02102 0.79975 0.0
C1632 C 0.97181 0.76221 0.71749 0.0
C1633 C 0.95457 0.75259 0.7267 0.0
C1634 C 0.98967 0.7619 0.73196 0.0
C1635 C 0.99036 0.75141 0.75594 0.0
C1636 C 0.97316 0.74116 0.76491 0.0
C1637 C 0.95542 0.74204 0.7503 0.0
C1638 C 0.00765 0.77321 0.72191 0.0
C1639 C 0.97341 0.72947 0.79008 0.0
C1640 C 0.04191 0.7376 0.78148 0.0
C1641 C 0.04517 0.7525 0.80028 0.0
C1642 C 0.02394 0.73676 0.76737 0.0
C1643 C 0.00901 0.7514 0.77182 0.0
C1644 C 0.01205 0.76625 0.79114 0.0
C1645 C 0.03004 0.7665 0.80532 0.0
C1646 C 0.02109 0.72044 0.74735 0.0
C1647 C 0.99657 0.78223 0.79627 0.0
H1648 H 0.97118 0.77049 0.69935 0.0
H1649 H 0.94216 0.73447 0.75745 0.0
H1650 H 0.01209 0.78487 0.73618 0.0
H1651 H 0.02054 0.7629 0.71966 0.0
H1652 H 0.00469 0.78053 0.70286 0.0
H1653 H 0.95905 0.72156 0.7937 0.0
H1654 H 0.98567 0.71826 0.78973 0.0
H1655 H 0.97637 0.7397 0.80665 0.0
H1656 H 0.05353 0.72668 0.77758 0.0
H1657 H 0.03255 0.77814 0.81968 0.0
H1658 H 0.01985 0.72714 0.72765 0.0
H1659 H 0.00695 0.71223 0.75116 0.0
H1660 H 0.03365 0.70954 0.74729 0.0
H1661 H 0.99411 0.79117 0.77833 0.0
H1662 H 0.00108 0.79253 0.81222 0.0
H1663 H 0.98204 0.77526 0.80147 0.0
C1664 C 0.23373 0.96928 0.705 0.0
C1665 C 0.24712 0.95381 0.71106 0.0
C1666 C 0.23392 0.98734 0.71905 0.0
C1667 C 0.24804 0.99006 0.73935 0.0
C1668 C 0.26202 0.97474 0.74494 0.0
C1669 C 0.26129 0.95675 0.73087 0.0
C1670 C 0.21867 0.00328 0.71266 0.0
C1671 C 0.27754 0.97721 0.7661 0.0
C1672 C 0.25883 0.04328 0.76126 0.0
C1673 C 0.24748 0.04465 0.78419 0.0
C1674 C 0.25935 0.02553 0.74667 0.0
C1675 C 0.24801 0.00882 0.75498 0.0
C1676 C 0.23663 0.01005 0.77822 0.0
C1677 C 0.23663 0.02792 0.79267 0.0
C1678 C 0.27194 0.0247 0.72226 0.0
C1679 C 0.22421 0.99259 0.78758 0.0
H1680 H 0.22266 0.96704 0.68984 0.0
H1681 H 0.27174 0.94487 0.73558 0.0
H1682 H 0.20909 0.00614 0.72992 0.0
H1683 H 0.2263 0.01755 0.70782 0.0
H1684 H 0.20892 0.99898 0.69605 0.0
H1685 H 0.28792 0.96425 0.7672 0.0
H1686 H 0.28643 0.99099 0.76266 0.0
H1687 H 0.27004 0.97894 0.78525 0.0
H1688 H 0.26734 0.05613 0.75466 0.0
H1689 H 0.22774 0.02894 0.81028 0.0
H1690 H 0.26227 0.02179 0.70511 0.0
H1691 H 0.28279 0.01216 0.72355 0.0
H1692 H 0.28035 0.03881 0.71887 0.0
H1693 H 0.21307 0.98845 0.77248 0.0
H1694 H 0.21615 0.99598 0.80598 0.0
H1695 H 0.23391 0.97934 0.79079 0.0
C1696 C 0.96892 0.23844 0.79496 0.0
C1697 C 0.95228 0.24908 0.78574 0.0
C1698 C 0.98725 0.23898 0.78156 0.0
C1699 C 0.98903 0.25069 0.75866 0.0
C1700 C 0.97248 0.26204 0.74984 0.0
C1701 C 0.95427 0.26098 0.76337 0.0
C1702 C 0.00452 0.22654 0.79144 0.0
C1703 C 0.97389 0.27501 0.72581 0.0
C1704 C 0.04161 0.26379 0.73629 0.0
C1705 C 0.04476 0.24977 0.71634 0.0
C1706 C 0.0234 0.26453 0.74986 0.0
C1707 C 0.00807 0.25072 0.74361 0.0
C1708 C 0.01104 0.23674 0.72321 0.0
C1709 C 0.02931 0.23654 0.70966 0.0
C1710 C 0.02067 0.27991 0.77114 0.0
C1711 C 0.9951 0.22165 0.71614 0.0
H1712 H 0.96743 0.22912 0.81213 0.0
H1713 H 0.94148 0.26931 0.75621 0.0
H1714 H 0.0088 0.2153 0.77652 0.0
H1715 H 0.01778 0.23618 0.79489 0.0
H1716 H 0.00084 0.21856 0.80981 0.0
H1717 H 0.96001 0.28378 0.72237 0.0
H1718 H 0.98665 0.28556 0.72761 0.0
H1719 H 0.97676 0.26552 0.70848 0.0
H1720 H 0.05347 0.27412 0.74147 0.0
H1721 H 0.03171 0.22559 0.69439 0.0
H1722 H 0.01854 0.27228 0.79013 0.0
H1723 H 0.00703 0.28894 0.76739 0.0
H1724 H 0.03368 0.29018 0.77277 0.0
H1725 H 0.99178 0.21203 0.73321 0.0
H1726 H -0.00033 0.21193 0.69962 0.0
H1727 H 0.98103 0.22945 0.71082 0.0
C1728 C 0.76486 0.54108 0.74776 0.0
C1729 C 0.75191 0.54394 0.72655 0.0
C1730 C 0.76513 0.52295 0.76153 0.0
C1731 C 0.752 0.50735 0.75408 0.0
C1732 C 0.73916 0.50998 0.73237 0.0
C1733 C 0.73935 0.52823 0.71877 0.0
C1734 C 0.77923 0.52061 0.78432 0.0
C1735 C 0.72489 0.4937 0.72392 0.0
C1736 C 0.76269 0.45404 0.77562 0.0
C1737 C 0.74958 0.45183 0.79678 0.0
C1738 C 0.76387 0.47212 0.76182 0.0
C1739 C 0.75151 0.48835 0.76921 0.0
C1740 C 0.73851 0.48636 0.79086 0.0
C1741 C 0.73778 0.46814 0.80449 0.0
C1742 C 0.77811 0.47375 0.73908 0.0
C1743 C 0.72505 0.50334 0.79925 0.0
H1744 H 0.77467 0.55314 0.75383 0.0
H1745 H 0.72924 0.53038 0.70249 0.0
H1746 H 0.77054 0.5183 0.80248 0.0
H1747 H 0.78879 0.50719 0.78156 0.0
H1748 H 0.78906 0.53387 0.78694 0.0
H1749 H 0.71614 0.49797 0.70638 0.0
H1750 H 0.73328 0.47975 0.7196 0.0
H1751 H 0.71431 0.49026 0.73996 0.0
H1752 H 0.77192 0.44152 0.76959 0.0
H1753 H 0.72756 0.4665 0.82074 0.0
H1754 H 0.78832 0.48668 0.74187 0.0
H1755 H 0.76957 0.47649 0.72089 0.0
H1756 H 0.78727 0.46001 0.73648 0.0
H1757 H 0.7341 0.51685 0.80361 0.0
H1758 H 0.71604 0.4995 0.81673 0.0
H1759 H 0.71469 0.50729 0.78315 0.0
C1760 C 0.5412 0.75894 0.76076 0.0
C1761 C 0.54289 0.74696 0.7831 0.0
C1762 C 0.52331 0.75971 0.74649 0.0
C1763 C 0.50682 0.74792 0.75447 0.0
C1764 C 0.50842 0.7358 0.77703 0.0
C1765 C 0.5264 0.73562 0.79125 0.0
C1766 C 0.52206 0.77315 0.72289 0.0
C1767 C 0.49124 0.72281 0.78593 0.0
C1768 C 0.45435 0.76166 0.7325 0.0
C1769 C 0.45132 0.7484 0.71169 0.0
C1770 C 0.4725 0.76195 0.74622 0.0
C1771 C 0.48785 0.74837 0.7393 0.0
C1772 C 0.48499 0.73511 0.71807 0.0
C1773 C 0.4668 0.73542 0.70433 0.0
C1774 C 0.47514 0.77663 0.76834 0.0
C1775 C 0.50093 0.72022 0.71034 0.0
H1776 H 0.55388 0.76782 0.75445 0.0
H1777 H 0.52769 0.72623 0.80839 0.0
H1778 H 0.51895 0.76408 0.70524 0.0
H1779 H 0.50949 0.78386 0.72515 0.0
H1780 H 0.53607 0.78176 0.71967 0.0
H1781 H 0.495 0.714 0.80363 0.0
H1782 H 0.47797 0.73223 0.79021 0.0
H1783 H 0.48694 0.71229 0.77016 0.0
H1784 H 0.44244 0.7718 0.73817 0.0
H1785 H 0.46445 0.72503 0.68839 0.0
H1786 H 0.48879 0.78579 0.76516 0.0
H1787 H 0.47721 0.76841 0.78691 0.0
H1788 H 0.46211 0.78684 0.77044 0.0
H1789 H 0.51505 0.72815 0.70559 0.0
H1790 H 0.49643 0.71105 0.69326 0.0
H1791 H 0.50414 0.71006 0.72692 0.0
C1792 C 0.23461 0.45713 0.74816 0.0
C1793 C 0.24719 0.45493 0.72648 0.0
C1794 C 0.23345 0.47536 0.76167 0.0
C1795 C 0.24539 0.4917 0.75353 0.0
C1796 C 0.25792 0.48966 0.73142 0.0
C1797 C 0.25856 0.47132 0.71803 0.0
C1798 C 0.21964 0.47705 0.78486 0.0
C1799 C 0.271 0.50671 0.72228 0.0
C1800 C 0.23215 0.54469 0.77405 0.0
C1801 C 0.24553 0.54795 0.7947 0.0
C1802 C 0.23161 0.52628 0.76089 0.0
C1803 C 0.24496 0.51086 0.76832 0.0
C1804 C 0.25819 0.5139 0.78952 0.0
C1805 C 0.25821 0.53238 0.8026 0.0
C1806 C 0.21703 0.5235 0.7387 0.0
C1807 C 0.27276 0.49785 0.79788 0.0
H1808 H 0.2257 0.44454 0.75473 0.0
H1809 H 0.2684 0.46967 0.70138 0.0
H1810 H 0.22849 0.48011 0.8027 0.0
H1811 H 0.20921 0.48981 0.78216 0.0
H1812 H 0.21073 0.46322 0.78801 0.0
H1813 H 0.27977 0.50276 0.70464 0.0
H1814 H 0.26167 0.52002 0.71785 0.0
H1815 H 0.28155 0.51104 0.738 0.0
H1816 H 0.22224 0.55665 0.76791 0.0
H1817 H 0.26867 0.53486 0.81842 0.0
H1818 H 0.2078 0.50992 0.74198 0.0
H1819 H 0.22535 0.52122 0.72024 0.0
H1820 H 0.2069 0.53656 0.7363 0.0
H1821 H 0.2646 0.48386 0.80266 0.0
H1822 H 0.28174 0.5024 0.8151 0.0
H1823 H 0.28312 0.49437 0.78161 0.0
C1824 C 0.45608 0.23638 0.7714 0.0
C1825 C 0.45367 0.2494 0.79261 0.0
C1826 C 0.47399 0.23591 0.75717 0.0
C1827 C 0.48978 0.24898 0.7641 0.0
C1828 C 0.48753 0.26201 0.78568 0.0
C1829 C 0.46953 0.26197 0.79982 0.0
C1830 C 0.47593 0.22155 0.73458 0.0
C1831 C 0.50401 0.27628 0.7935 0.0
C1832 C 0.54264 0.23708 0.74197 0.0
C1833 C 0.54475 0.24961 0.72021 0.0
C1834 C 0.52474 0.23653 0.7562 0.0
C1835 C 0.50864 0.24902 0.74871 0.0
C1836 C 0.51057 0.26155 0.72659 0.0
C1837 C 0.52858 0.26159 0.71246 0.0
C1838 C 0.52313 0.2227 0.77939 0.0
C1839 C 0.49376 0.2752 0.71816 0.0
H1840 H 0.44389 0.22656 0.7658 0.0
H1841 H 0.4677 0.27215 0.81608 0.0
H1842 H 0.47828 0.23002 0.71625 0.0
H1843 H 0.4892 0.21179 0.73738 0.0
H1844 H 0.46249 0.21192 0.73225 0.0
H1845 H 0.49992 0.28542 0.81079 0.0
H1846 H 0.51788 0.26783 0.79797 0.0
H1847 H 0.50747 0.28651 0.77708 0.0
H1848 H 0.55506 0.22771 0.74799 0.0
H1849 H 0.53018 0.27139 0.69576 0.0
H1850 H 0.51011 0.21254 0.777 0.0
H1851 H 0.52055 0.23157 0.79735 0.0
H1852 H 0.53681 0.21348 0.78213 0.0
H1853 H 0.48011 0.26629 0.71405 0.0
H1854 H 0.49763 0.28399 0.70049 0.0
H1855 H 0.49004 0.28575 0.73413 0.0
C1856 C 0.26233 0.52419 0.21784 0.0
C1857 C 0.25077 0.54061 0.22574 0.0
C1858 C 0.26249 0.50637 0.2324 0.0
C1859 C 0.25052 0.50485 0.2551 0.0
C1860 C 0.23843 0.52121 0.26276 0.0
C1861 C 0.23884 0.53895 0.24812 0.0
C1862 C 0.27575 0.4893 0.22377 0.0
C1863 C 0.22516 0.52005 0.28653 0.0
C1864 C 0.23817 0.45251 0.27913 0.0
C1865 C 0.25172 0.45019 0.29979 0.0
C1866 C 0.23737 0.47035 0.26474 0.0
C1867 C 0.25067 0.48615 0.27088 0.0
C1868 C 0.26421 0.48401 0.29195 0.0
C1869 C 0.26446 0.46609 0.30631 0.0
C1870 C 0.22245 0.47219 0.24277 0.0
C1871 C 0.27876 0.50046 0.29891 0.0
H1872 H 0.27168 0.52545 0.20067 0.0
H1873 H 0.22978 0.55156 0.25426 0.0
H1874 H 0.2866 0.48561 0.23942 0.0
H1875 H 0.2666 0.47571 0.22023 0.0
H1876 H 0.28419 0.49288 0.20573 0.0
H1877 H 0.21616 0.53386 0.28935 0.0
H1878 H 0.21482 0.50711 0.28482 0.0
H1879 H 0.23442 0.51759 0.30418 0.0
H1880 H 0.22822 0.44029 0.27407 0.0
H1881 H 0.27506 0.46432 0.32213 0.0
H1882 H 0.23046 0.47415 0.22402 0.0
H1883 H 0.21296 0.48564 0.24566 0.0
H1884 H 0.21258 0.45885 0.2412 0.0
H1885 H 0.28866 0.50362 0.28205 0.0
H1886 H 0.28823 0.49651 0.31594 0.0
H1887 H 0.27053 0.51447 0.30338 0.0
C1888 C 0.52506 0.26014 0.29197 0.0
C1889 C 0.54254 0.25101 0.28267 0.0
C1890 C 0.50711 0.25909 0.27777 0.0
C1891 C 0.50658 0.24835 0.25396 0.0
C1892 C 0.52402 0.23853 0.24496 0.0
C1893 C 0.54183 0.24012 0.25931 0.0
C1894 C 0.48886 0.26992 0.28786 0.0
C1895 C 0.52396 0.2266 0.21997 0.0
C1896 C 0.45522 0.23322 0.22908 0.0
C1897 C 0.45146 0.24801 0.21031 0.0
C1898 C 0.47332 0.23281 0.24293 0.0
C1899 C 0.48788 0.24776 0.23821 0.0
C1900 C 0.48437 0.26246 0.21884 0.0
C1901 C 0.46625 0.26231 0.20495 0.0
C1902 C 0.47668 0.21664 0.26303 0.0
C1903 C 0.49947 0.27876 0.2134 0.0
H1904 H 0.52557 0.26867 0.30992 0.0
H1905 H 0.55528 0.23293 0.25209 0.0
H1906 H 0.48407 0.28143 0.27356 0.0
H1907 H 0.47625 0.25928 0.29021 0.0
H1908 H 0.49167 0.27738 0.30686 0.0
H1909 H 0.53848 0.21896 0.21641 0.0
H1910 H 0.51193 0.21515 0.22051 0.0
H1911 H 0.52077 0.23663 0.20326 0.0
H1912 H 0.44386 0.22207 0.23323 0.0
H1913 H 0.46336 0.27386 0.19061 0.0
H1914 H 0.47776 0.22345 0.28268 0.0
H1915 H 0.49104 0.20882 0.25923 0.0
H1916 H 0.46443 0.2054 0.2632 0.0
H1917 H 0.50177 0.28791 0.2312 0.0
H1918 H 0.49467 0.28881 0.19733 0.0
H1919 H 0.51413 0.27208 0.20822 0.0
C1920 C 0.76124 0.54356 0.28302 0.0
C1921 C 0.74726 0.54607 0.30314 0.0
C1922 C 0.76187 0.52585 0.26833 0.0
C1923 C 0.74793 0.51042 0.27356 0.0
C1924 C 0.73395 0.51275 0.2941 0.0
C1925 C 0.7339 0.53049 0.30882 0.0
C1926 C 0.77729 0.52377 0.247 0.0
C1927 C 0.71869 0.49671 0.30007 0.0
C1928 C 0.73621 0.47333 0.21937 0.0
C1929 C 0.74688 0.45639 0.22754 0.0
C1930 C 0.73642 0.49104 0.23417 0.0
C1931 C 0.74787 0.4919 0.25739 0.0
C1932 C 0.75914 0.47502 0.26528 0.0
C1933 C 0.75836 0.45742 0.25039 0.0
C1934 C 0.72402 0.50866 0.22529 0.0
C1935 C 0.77186 0.47548 0.28959 0.0
H1936 H 0.77166 0.55553 0.27861 0.0
H1937 H 0.72297 0.53243 0.3242 0.0
H1938 H 0.78622 0.50995 0.24999 0.0
H1939 H 0.76972 0.52235 0.22786 0.0
H1940 H 0.78765 0.53677 0.24621 0.0
H1941 H 0.70893 0.50077 0.31676 0.0
H1942 H 0.70914 0.49407 0.28272 0.0
H1943 H 0.72634 0.48238 0.30459 0.0
H1944 H 0.72721 0.47255 0.20184 0.0
H1945 H 0.76672 0.44439 0.25674 0.0
H1946 H 0.73371 0.52197 0.22252 0.0
H1947 H 0.71285 0.51253 0.24048 0.0
H1948 H 0.71599 0.5056 0.20676 0.0
H1949 H 0.78259 0.48814 0.28865 0.0
H1950 H 0.78039 0.46137 0.29243 0.0
H1951 H 0.76224 0.47794 0.30691 0.0
C1952 C 0.45789 0.76061 0.25956 0.0
C1953 C 0.45572 0.74855 0.28178 0.0
C1954 C 0.476 0.76124 0.24577 0.0
C1955 C 0.49228 0.74935 0.2542 0.0
C1956 C 0.49031 0.7374 0.27687 0.0
C1957 C 0.47207 0.73724 0.29049 0.0
C1958 C 0.47761 0.77439 0.22194 0.0
C1959 C 0.50732 0.72444 0.28638 0.0
C1960 C 0.53234 0.73488 0.20506 0.0
C1961 C 0.54803 0.74776 0.21197 0.0
C1962 C 0.51403 0.73535 0.21851 0.0
C1963 C 0.5113 0.74919 0.23912 0.0
C1964 C 0.52686 0.76268 0.24559 0.0
C1965 C 0.54507 0.76172 0.23203 0.0
C1966 C 0.49781 0.72066 0.21114 0.0
C1967 C 0.52442 0.77786 0.26716 0.0
H1968 H 0.44533 0.76946 0.25277 0.0
H1969 H 0.47046 0.72782 0.30755 0.0
H1970 H 0.49048 0.78478 0.22396 0.0
H1971 H 0.48042 0.76503 0.20447 0.0
H1972 H 0.46384 0.78335 0.21858 0.0
H1973 H 0.50348 0.71623 0.30453 0.0
H1974 H 0.51138 0.71337 0.27115 0.0
H1975 H 0.52076 0.73375 0.2901 0.0
H1976 H 0.53457 0.72398 0.18968 0.0
H1977 H 0.55711 0.77179 0.23742 0.0
H1978 H 0.48384 0.72879 0.20615 0.0
H1979 H 0.49439 0.71082 0.22797 0.0
H1980 H 0.50213 0.71113 0.19432 0.0
H1981 H 0.51094 0.78716 0.26363 0.0
H1982 H 0.53762 0.78789 0.26896 0.0
H1983 H 0.52218 0.77005 0.286 0.0
C1984 C 0.16954 0.12767 0.21138 0.0
C1985 C 0.19001 0.12672 0.21726 0.0
C1986 C 0.15618 0.13785 0.22792 0.0
C1987 C 0.16362 0.14784 0.25027 0.0
C1988 C 0.18423 0.14661 0.25645 0.0
C1989 C 0.19708 0.13583 0.24009 0.0
C1990 C 0.1342 0.13832 0.22116 0.0
C1991 C 0.19293 0.15752 0.27963 0.0
C1992 C 0.13759 0.19457 0.27469 0.0
C1993 C 0.12955 0.18808 0.29847 0.0
C1994 C 0.14824 0.18146 0.25853 0.0
C1995 C 0.15044 0.16117 0.26593 0.0
C1996 C 0.14156 0.15427 0.28934 0.0
C1997 C 0.13148 0.16791 0.30559 0.0
C1998 C 0.15795 0.1896 0.23414 0.0
C1999 C 0.1431 0.13261 0.29747 0.0
H2000 H 0.164 0.12049 0.19386 0.0
H2001 H 0.21292 0.13527 0.24465 0.0
H2002 H 0.12505 0.1345 0.2385 0.0
H2003 H 0.12989 0.15364 0.215 0.0
H2004 H 0.13045 0.12776 0.20516 0.0
H2005 H 0.20917 0.15452 0.28217 0.0
H2006 H 0.19078 0.17389 0.27718 0.0
H2007 H 0.18504 0.15306 0.29772 0.0
H2008 H 0.13626 0.21017 0.26914 0.0
H2009 H 0.12512 0.16281 0.32385 0.0
H2010 H 0.15307 0.18088 0.21688 0.0
H2011 H 0.17445 0.18805 0.23563 0.0
H2012 H 0.15431 0.20562 0.23079 0.0
H2013 H 0.13894 0.12266 0.28103 0.0
H2014 H 0.13334 0.12914 0.31439 0.0
H2015 H 0.15879 0.12908 0.30283 0.0
C2016 C 0.84404 0.18898 0.19644 0.0
C2017 C 0.8649 0.19016 0.19843 0.0
C2018 C 0.83307 0.1761 0.21267 0.0
C2019 C 0.84333 0.16365 0.23062 0.0
C2020 C 0.86451 0.16378 0.23129 0.0
C2021 C 0.87504 0.17735 0.21555 0.0
C2022 C 0.81049 0.17683 0.21185 0.0
C2023 C 0.87603 0.15021 0.24942 0.0
C2024 C 0.81617 0.15019 0.29311 0.0
C2025 C 0.80789 0.13153 0.28686 0.0
C2026 C 0.82782 0.16072 0.27499 0.0
C2027 C 0.83187 0.15205 0.25036 0.0
C2028 C 0.82436 0.13275 0.24444 0.0
C2029 C 0.8121 0.12287 0.2626 0.0
C2030 C 0.8351 0.18148 0.28185 0.0
C2031 C 0.829 0.1227 0.21881 0.0
H2032 H 0.83621 0.19907 0.18339 0.0
H2033 H 0.89121 0.17823 0.21698 0.0
H2034 H 0.80424 0.16157 0.20938 0.0
H2035 H 0.80474 0.18277 0.2306 0.0
H2036 H 0.80483 0.18647 0.19582 0.0
H2037 H 0.89227 0.14997 0.2448 0.0
H2038 H 0.87418 0.15542 0.26979 0.0
H2039 H 0.87014 0.13469 0.24835 0.0
H2040 H 0.81272 0.157 0.31175 0.0
H2041 H 0.80576 0.10839 0.2578 0.0
H2042 H 0.82913 0.19248 0.26763 0.0
H2043 H 0.85166 0.18213 0.28069 0.0
H2044 H 0.83046 0.18614 0.30172 0.0
H2045 H 0.82175 0.13102 0.20267 0.0
H2046 H 0.82369 0.10694 0.21828 0.0
H2047 H 0.84537 0.12291 0.21515 0.0
C2048 C 0.86933 0.82752 0.3017 0.0
C2049 C 0.8702 0.80725 0.29471 0.0
C2050 C 0.85908 0.84142 0.286 0.0
C2051 C 0.84894 0.83469 0.26339 0.0
C2052 C 0.85003 0.81427 0.25615 0.0
C2053 C 0.86088 0.80089 0.27168 0.0
C2054 C 0.85876 0.86319 0.29388 0.0
C2055 C 0.83897 0.80634 0.23263 0.0
C2056 C 0.80243 0.86162 0.24004 0.0
C2057 C 0.80897 0.87009 0.21654 0.0
C2058 C 0.81547 0.85059 0.25586 0.0
C2059 C 0.83575 0.84845 0.2484 0.0
C2060 C 0.84273 0.85787 0.22541 0.0
C2061 C 0.82916 0.86833 0.20947 0.0
C2062 C 0.80725 0.84033 0.27981 0.0
C2063 C 0.86439 0.85641 0.21726 0.0
H2064 H 0.87668 0.8325 0.31937 0.0
H2065 H 0.86139 0.78519 0.26629 0.0
H2066 H 0.86273 0.87281 0.27704 0.0
H2067 H 0.84345 0.86744 0.30013 0.0
H2068 H 0.86928 0.86637 0.31013 0.0
H2069 H 0.84172 0.79013 0.22937 0.0
H2070 H 0.82264 0.80867 0.23519 0.0
H2071 H 0.84353 0.81464 0.21489 0.0
H2072 H 0.78681 0.86281 0.24554 0.0
H2073 H 0.83431 0.87501 0.19144 0.0
H2074 H 0.81611 0.84453 0.29724 0.0
H2075 H 0.80848 0.82385 0.27749 0.0
H2076 H 0.79131 0.84416 0.28344 0.0
H2077 H 0.87435 0.85989 0.23395 0.0
H2078 H 0.86797 0.86673 0.20095 0.0
H2079 H 0.86777 0.84089 0.21096 0.0
C2080 C 0.17288 0.86504 0.30061 0.0
C2081 C 0.19329 0.86666 0.29461 0.0
C2082 C 0.15981 0.85431 0.2843 0.0
C2083 C 0.16749 0.84449 0.26198 0.0
C2084 C 0.18803 0.84636 0.25566 0.0
C2085 C 0.2006 0.85765 0.27185 0.0
C2086 C 0.13789 0.85313 0.29124 0.0
C2087 C 0.19693 0.83573 0.23241 0.0
C2088 C 0.14156 0.79773 0.23714 0.0
C2089 C 0.13301 0.80452 0.21381 0.0
C2090 C 0.15251 0.8107 0.25321 0.0
C2091 C 0.1545 0.83109 0.24616 0.0
C2092 C 0.14518 0.83823 0.22317 0.0
C2093 C 0.1348 0.82477 0.20703 0.0
C2094 C 0.16263 0.80236 0.27719 0.0
C2095 C 0.1465 0.86 0.21542 0.0
H2096 H 0.16714 0.87213 0.31808 0.0
H2097 H 0.2164 0.85873 0.26722 0.0
H2098 H 0.12855 0.85703 0.27409 0.0
H2099 H 0.13401 0.83758 0.29692 0.0
H2100 H 0.13393 0.86328 0.30759 0.0
H2101 H 0.21309 0.83911 0.22985 0.0
H2102 H 0.19515 0.8193 0.23477 0.0
H2103 H 0.18889 0.84006 0.21438 0.0
H2104 H 0.14033 0.78205 0.24238 0.0
H2105 H 0.12805 0.8301 0.18912 0.0
H2106 H 0.15782 0.81076 0.29474 0.0
H2107 H 0.17909 0.80418 0.27544 0.0
H2108 H 0.15927 0.78623 0.28021 0.0
H2109 H 0.1421 0.86971 0.23199 0.0
H2110 H 0.13679 0.86353 0.19846 0.0
H2111 H 0.16217 0.8638 0.21032 0.0
C2112 C 0.87676 0.82188 0.72637 0.0
C2113 C 0.86694 0.81157 0.70632 0.0
C2114 C 0.86613 0.83435 0.74348 0.0
C2115 C 0.84508 0.83588 0.74106 0.0
C2116 C 0.83519 0.826 0.72027 0.0
C2117 C 0.84633 0.81421 0.70285 0.0
C2118 C 0.87732 0.84523 0.76475 0.0
C2119 C 0.81271 0.82683 0.7174 0.0
C2120 C 0.81525 0.84577 0.80272 0.0
C2121 C 0.80873 0.86546 0.79872 0.0
C2122 C 0.82715 0.83601 0.78411 0.0
C2123 C 0.83322 0.84644 0.7614 0.0
C2124 C 0.82742 0.86665 0.75787 0.0
C2125 C 0.81491 0.8758 0.77636 0.0
C2126 C 0.83259 0.81429 0.7883 0.0
C2127 C 0.83419 0.87849 0.73444 0.0
H2128 H 0.89275 0.81986 0.72898 0.0
H2129 H 0.83871 0.80603 0.68754 0.0
H2130 H 0.87256 0.86113 0.76566 0.0
H2131 H 0.87383 0.83834 0.78387 0.0
H2132 H 0.89379 0.84467 0.7618 0.0
H2133 H 0.80743 0.81911 0.6995 0.0
H2134 H 0.80558 0.81963 0.73453 0.0
H2135 H 0.80751 0.84259 0.71684 0.0
H2136 H 0.81029 0.8377 0.81987 0.0
H2137 H 0.80994 0.89108 0.77333 0.0
H2138 H 0.84909 0.8125 0.78849 0.0
H2139 H 0.82673 0.80511 0.77198 0.0
H2140 H 0.82651 0.80829 0.80686 0.0
H2141 H 0.8507 0.87753 0.73238 0.0
H2142 H 0.82984 0.89451 0.73575 0.0
H2143 H 0.82754 0.87208 0.7165 0.0
C2144 C 0.19486 0.86299 0.73592 0.0
C2145 C 0.18783 0.87131 0.71256 0.0
C2146 C 0.18199 0.85253 0.75264 0.0
C2147 C 0.16148 0.8507 0.74615 0.0
C2148 C 0.15408 0.85988 0.72322 0.0
C2149 C 0.1674 0.86988 0.70651 0.0
C2150 C 0.19057 0.84266 0.77665 0.0
C2151 C 0.13221 0.85866 0.71601 0.0
C2152 C 0.1357 0.80472 0.77342 0.0
C2153 C 0.12709 0.81222 0.79634 0.0
C2154 C 0.14644 0.81723 0.75654 0.0
C2155 C 0.14826 0.83786 0.76241 0.0
C2156 C 0.13874 0.84574 0.78482 0.0
C2157 C 0.12845 0.83277 0.80172 0.0
C2158 C 0.15666 0.80815 0.73309 0.0
C2159 C 0.13994 0.86774 0.79136 0.0
H2160 H 0.21064 0.86396 0.74068 0.0
H2161 H 0.16185 0.87643 0.68859 0.0
H2162 H 0.18229 0.84757 0.79425 0.0
H2163 H 0.18881 0.82617 0.77515 0.0
H2164 H 0.20669 0.84612 0.77941 0.0
H2165 H 0.12847 0.8684 0.69916 0.0
H2166 H 0.12829 0.843 0.71095 0.0
H2167 H 0.12274 0.86307 0.73282 0.0
H2168 H 0.13478 0.78885 0.76916 0.0
H2169 H 0.12169 0.83868 0.81929 0.0
H2170 H 0.17312 0.80977 0.73508 0.0
H2171 H 0.15216 0.81618 0.71511 0.0
H2172 H 0.15309 0.79201 0.73069 0.0
H2173 H 0.15551 0.87166 0.79689 0.0
H2174 H 0.12986 0.87186 0.80771 0.0
H2175 H 0.13598 0.87692 0.77409 0.0
C2176 C 0.13885 0.20073 0.74155 0.0
C2177 C 0.13014 0.19265 0.71901 0.0
C2178 C 0.14976 0.18867 0.75883 0.0
C2179 C 0.15153 0.1679 0.75387 0.0
C2180 C 0.14184 0.15946 0.73189 0.0
C2181 C 0.13153 0.172 0.71446 0.0
C2182 C 0.16032 0.19838 0.78158 0.0
C2183 C 0.14292 0.13729 0.72634 0.0
C2184 C 0.19856 0.14202 0.77774 0.0
C2185 C 0.19219 0.13344 0.80124 0.0
C2186 C 0.18546 0.15327 0.76228 0.0
C2187 C 0.16527 0.15551 0.77006 0.0
C2188 C 0.1586 0.14655 0.79354 0.0
C2189 C 0.17227 0.13588 0.80914 0.0
C2190 C 0.19338 0.16307 0.73783 0.0
C2191 C 0.13704 0.14816 0.80207 0.0
H2192 H 0.13793 0.21671 0.74509 0.0
H2193 H 0.12465 0.16567 0.6972 0.0
H2194 H 0.15648 0.19062 0.79999 0.0
H2195 H 0.17676 0.19708 0.77893 0.0
H2196 H 0.15646 0.21449 0.78361 0.0
H2197 H 0.13248 0.13273 0.71058 0.0
H2198 H 0.15836 0.13323 0.72038 0.0
H2199 H 0.13937 0.12859 0.74416 0.0
H2200 H 0.21402 0.14033 0.77171 0.0
H2201 H 0.1673 0.12912 0.82721 0.0
H2202 H 0.19096 0.1795 0.73879 0.0
H2203 H 0.18513 0.15745 0.72057 0.0
H2204 H 0.2096 0.16022 0.73486 0.0
H2205 H 0.13313 0.16406 0.80564 0.0
H2206 H 0.13401 0.13948 0.8201 0.0
H2207 H 0.12704 0.14265 0.78637 0.0
C2208 C 0.84872 0.17937 0.7971 0.0
C2209 C 0.86822 0.18592 0.79187 0.0
C2210 C 0.83823 0.16764 0.77898 0.0
C2211 C 0.84775 0.16177 0.75552 0.0
C2212 C 0.86788 0.16737 0.7509 0.0
C2213 C 0.87775 0.17972 0.76892 0.0
C2214 C 0.81664 0.16239 0.78436 0.0
C2215 C 0.8788 0.16076 0.72664 0.0
C2216 C 0.82128 0.11966 0.71979 0.0
C2217 C 0.81067 0.13022 0.70066 0.0
C2218 C 0.83437 0.12959 0.73684 0.0
C2219 C 0.83624 0.15067 0.73533 0.0
C2220 C 0.82598 0.16132 0.71551 0.0
C2221 C 0.81356 0.15088 0.6981 0.0
C2222 C 0.84563 0.11761 0.75702 0.0
C2223 C 0.82719 0.18385 0.71364 0.0
H2224 H 0.84127 0.18438 0.81469 0.0
H2225 H 0.89287 0.18475 0.76494 0.0
H2226 H 0.80693 0.16901 0.76906 0.0
H2227 H 0.81452 0.14593 0.78366 0.0
H2228 H 0.81152 0.16791 0.80365 0.0
H2229 H 0.895 0.16444 0.72743 0.0
H2230 H 0.8771 0.14438 0.72381 0.0
H2231 H 0.87221 0.16822 0.70935 0.0
H2232 H 0.81908 0.10364 0.72169 0.0
H2233 H 0.80515 0.15906 0.6835 0.0
H2234 H 0.83947 0.1208 0.77665 0.0
H2235 H 0.86165 0.12198 0.75724 0.0
H2236 H 0.84456 0.10124 0.75344 0.0
H2237 H 0.82096 0.19065 0.73162 0.0
H2238 H 0.81882 0.1898 0.69662 0.0
H2239 H 0.84301 0.18872 0.7121 0.0
C2240 C 0.67405 0.62829 0.72265 0.0
C2241 C 0.6947 0.62825 0.72744 0.0
C2242 C 0.66089 0.63889 0.73896 0.0
C2243 C 0.66868 0.65023 0.75997 0.0
C2244 C 0.68947 0.64979 0.76526 0.0
C2245 C 0.70218 0.63857 0.74916 0.0
C2246 C 0.63874 0.63851 0.73316 0.0
C2247 C 0.69848 0.66211 0.78697 0.0
C2248 C 0.64057 0.69726 0.77908 0.0
C2249 C 0.63232 0.69189 0.80319 0.0
C2250 C 0.65238 0.68381 0.76489 0.0
C2251 C 0.65553 0.66424 0.77464 0.0
C2252 C 0.64681 0.65851 0.79868 0.0
C2253 C 0.63556 0.67257 0.81294 0.0
C2254 C 0.66188 0.69074 0.73974 0.0
C2255 C 0.64937 0.6376 0.80928 0.0
H2256 H 0.6682 0.62016 0.70603 0.0
H2257 H 0.71815 0.63868 0.75286 0.0
H2258 H 0.6301 0.63565 0.75124 0.0
H2259 H 0.63397 0.65331 0.72555 0.0
H2260 H 0.63482 0.6269 0.71853 0.0
H2261 H 0.71473 0.65919 0.7895 0.0
H2262 H 0.69638 0.67827 0.78271 0.0
H2263 H 0.69078 0.65895 0.80565 0.0
H2264 H 0.63825 0.71227 0.7716 0.0
H2265 H 0.62907 0.66836 0.8315 0.0
H2266 H 0.6568 0.68119 0.72335 0.0
H2267 H 0.67839 0.68925 0.74103 0.0
H2268 H 0.65819 0.70656 0.73511 0.0
H2269 H 0.64462 0.62645 0.79448 0.0
H2270 H 0.64057 0.63514 0.82736 0.0
H2271 H 0.66538 0.63473 0.81358 0.0
C2272 C 0.29706 0.64103 0.76838 0.0
C2273 C 0.30486 0.63206 0.79091 0.0
C2274 C 0.30941 0.65152 0.75108 0.0
C2275 C 0.33023 0.65259 0.75596 0.0
C2276 C 0.33837 0.64278 0.77804 0.0
C2277 C 0.32551 0.63291 0.79556 0.0
C2278 C 0.3 0.66228 0.72827 0.0
C2279 C 0.36056 0.64311 0.78347 0.0
C2280 C 0.36116 0.67161 0.69875 0.0
C2281 C 0.36387 0.69173 0.70564 0.0
C2282 C 0.35108 0.65834 0.71555 0.0
C2283 C 0.34298 0.66561 0.73927 0.0
C2284 C 0.34578 0.68591 0.74626 0.0
C2285 C 0.35642 0.69861 0.72956 0.0
C2286 C 0.34888 0.63665 0.70783 0.0
C2287 C 0.33688 0.69446 0.77093 0.0
H2288 H 0.28107 0.64055 0.76479 0.0
H2289 H 0.33161 0.62583 0.81283 0.0
H2290 H 0.30236 0.67866 0.73033 0.0
H2291 H 0.30721 0.65761 0.7098 0.0
H2292 H 0.28366 0.6594 0.72674 0.0
H2293 H 0.36478 0.63275 0.79948 0.0
H2294 H 0.36904 0.63893 0.76569 0.0
H2295 H 0.36524 0.65847 0.78896 0.0
H2296 H 0.36706 0.66621 0.68038 0.0
H2297 H 0.35834 0.7142 0.73489 0.0
H2298 H 0.33292 0.63324 0.70388 0.0
H2299 H 0.35376 0.62679 0.72403 0.0
H2300 H 0.35774 0.63293 0.69017 0.0
H2301 H 0.32034 0.69293 0.77042 0.0
H2302 H 0.34065 0.71052 0.77366 0.0
H2303 H 0.34231 0.686 0.78812 0.0
C2304 C 0.36731 0.32683 0.8045 0.0
C2305 C 0.36833 0.30643 0.7982 0.0
C2306 C 0.35706 0.34036 0.78832 0.0
C2307 C 0.34707 0.33316 0.76584 0.0
C2308 C 0.34838 0.31263 0.7592 0.0
C2309 C 0.35924 0.29958 0.77525 0.0
C2310 C 0.35649 0.36225 0.79561 0.0
C2311 C 0.3375 0.30423 0.73582 0.0
C2312 C 0.30055 0.36037 0.74289 0.0
C2313 C 0.30712 0.3692 0.71963 0.0
C2314 C 0.31351 0.34886 0.75824 0.0
C2315 C 0.33373 0.34659 0.75058 0.0
C2316 C 0.34068 0.35613 0.72765 0.0
C2317 C 0.32718 0.36708 0.71217 0.0
C2318 C 0.30532 0.33849 0.78213 0.0
C2319 C 0.36228 0.35453 0.71931 0.0
H2320 H 0.3745 0.33219 0.8221 0.0
H2321 H 0.35989 0.2838 0.77038 0.0
H2322 H 0.36035 0.37166 0.77853 0.0
H2323 H 0.34113 0.36642 0.80176 0.0
H2324 H 0.36696 0.36581 0.81178 0.0
H2325 H 0.34067 0.28807 0.73279 0.0
H2326 H 0.32112 0.30616 0.73843 0.0
H2327 H 0.34179 0.3125 0.71795 0.0
H2328 H 0.285 0.36181 0.74863 0.0
H2329 H 0.33233 0.37401 0.69429 0.0
H2330 H 0.31392 0.34301 0.79964 0.0
H2331 H 0.30698 0.32203 0.78 0.0
H2332 H 0.28926 0.34194 0.7855 0.0
H2333 H 0.37232 0.35853 0.73574 0.0
H2334 H 0.36574 0.36441 0.70249 0.0
H2335 H 0.36573 0.33886 0.71375 0.0
C2336 C 0.63269 0.32705 0.70479 0.0
C2337 C 0.63061 0.30694 0.71211 0.0
C2338 C 0.64275 0.34074 0.72097 0.0
C2339 C 0.65146 0.33396 0.74453 0.0
C2340 C 0.64921 0.31369 0.75207 0.0
C2341 C 0.63858 0.30052 0.73595 0.0
C2342 C 0.64436 0.36237 0.71268 0.0
C2343 C 0.6587 0.3057 0.77669 0.0
C2344 C 0.69726 0.35993 0.77196 0.0
C2345 C 0.68954 0.369 0.79447 0.0
C2346 C 0.68489 0.34899 0.75513 0.0
C2347 C 0.66417 0.34751 0.76053 0.0
C2348 C 0.65609 0.35753 0.78246 0.0
C2349 C 0.66894 0.36792 0.79943 0.0
C2350 C 0.69421 0.33812 0.73235 0.0
C2351 C 0.63398 0.35677 0.78842 0.0
H2352 H 0.62638 0.3321 0.68647 0.0
H2353 H 0.63714 0.28495 0.74162 0.0
H2354 H 0.63963 0.37237 0.72881 0.0
H2355 H 0.66016 0.36602 0.7081 0.0
H2356 H 0.63507 0.36566 0.69525 0.0
H2357 H 0.65527 0.28962 0.77995 0.0
H2358 H 0.6752 0.30751 0.77563 0.0
H2359 H 0.65343 0.31434 0.7938 0.0
H2360 H 0.71319 0.36061 0.76809 0.0
H2361 H 0.66289 0.37505 0.81669 0.0
H2362 H 0.68651 0.34223 0.71398 0.0
H2363 H 0.69241 0.32172 0.73498 0.0
H2364 H 0.71042 0.34149 0.73023 0.0
H2365 H 0.62514 0.36034 0.77071 0.0
H2366 H 0.62973 0.36738 0.80415 0.0
H2367 H 0.62978 0.34143 0.7946 0.0
C2368 C 0.36928 0.32712 0.21391 0.0
C2369 C 0.36951 0.30636 0.21798 0.0
C2370 C 0.35949 0.33997 0.23146 0.0
C2371 C 0.34926 0.33177 0.25314 0.0
C2372 C 0.3499 0.31087 0.25767 0.0
C2373 C 0.36022 0.29846 0.24022 0.0
C2374 C 0.35957 0.36223 0.22638 0.0
C2375 C 0.33884 0.30146 0.28023 0.0
C2376 C 0.33065 0.36284 0.31033 0.0
C2377 C 0.31051 0.36573 0.30357 0.0
C2378 C 0.34376 0.35261 0.29354 0.0
C2379 C 0.33639 0.34465 0.26983 0.0
C2380 C 0.31616 0.34784 0.26275 0.0
C2381 C 0.30356 0.35854 0.27955 0.0
C2382 C 0.36536 0.34994 0.3014 0.0
C2383 C 0.30758 0.33926 0.23791 0.0
H2384 H 0.3766 0.33332 0.19688 0.0
H2385 H 0.36027 0.28242 0.24343 0.0
H2386 H 0.34434 0.36719 0.22067 0.0
H2387 H 0.36368 0.3705 0.24435 0.0
H2388 H 0.37016 0.36642 0.21062 0.0
H2389 H 0.34157 0.28509 0.28168 0.0
H2390 H 0.34339 0.30857 0.29882 0.0
H2391 H 0.32252 0.30397 0.27789 0.0
H2392 H 0.33614 0.36852 0.32878 0.0
H2393 H 0.28799 0.36061 0.27424 0.0
H2394 H 0.3754 0.35454 0.28526 0.0
H2395 H 0.36838 0.3339 0.30542 0.0
H2396 H 0.36922 0.35874 0.31906 0.0
H2397 H 0.31635 0.34447 0.22088 0.0
H2398 H 0.29166 0.34352 0.23496 0.0
H2399 H 0.3086 0.32268 0.23837 0.0
C2400 C 0.61751 0.32372 0.2788 0.0
C2401 C 0.62704 0.31472 0.3001 0.0
C2402 C 0.628 0.33666 0.26211 0.0
C2403 C 0.6487 0.33994 0.26627 0.0
C2404 C 0.65822 0.33133 0.28825 0.0
C2405 C 0.64716 0.3191 0.30518 0.0
C2406 C 0.61713 0.34619 0.23952 0.0
C2407 C 0.68037 0.334 0.293 0.0
C2408 C 0.68162 0.35064 0.20765 0.0
C2409 C 0.68684 0.37069 0.21184 0.0
C2410 C 0.66897 0.34053 0.22505 0.0
C2411 C 0.66079 0.35097 0.24661 0.0
C2412 C 0.66513 0.37155 0.25005 0.0
C2413 C 0.67846 0.38107 0.23291 0.0
C2414 C 0.66517 0.31845 0.22107 0.0
C2415 C 0.65607 0.38338 0.27216 0.0
H2416 H 0.6019 0.32037 0.27494 0.0
H2417 H 0.65459 0.31193 0.32149 0.0
H2418 H 0.62077 0.36238 0.2383 0.0
H2419 H 0.62204 0.33916 0.22103 0.0
H2420 H 0.60064 0.34447 0.24117 0.0
H2421 H 0.68534 0.32689 0.31147 0.0
H2422 H 0.68892 0.32726 0.27666 0.0
H2423 H 0.68425 0.35013 0.29367 0.0
H2424 H 0.68829 0.34256 0.19151 0.0
H2425 H 0.68244 0.39663 0.23605 0.0
H2426 H 0.64888 0.31553 0.2196 0.0
H2427 H 0.67082 0.30993 0.23813 0.0
H2428 H 0.67256 0.31259 0.20325 0.0
H2429 H 0.63964 0.38096 0.27291 0.0
H2430 H 0.65904 0.39968 0.2703 0.0
H2431 H 0.66235 0.37815 0.29096 0.0
C2432 C 0.66897 0.6333 0.31307 0.0
C2433 C 0.68924 0.63075 0.30684 0.0
C2434 C 0.65592 0.64323 0.29586 0.0
C2435 C 0.6635 0.65126 0.2723 0.0
C2436 C 0.6839 0.64847 0.26582 0.0
C2437 C 0.69643 0.63804 0.28299 0.0
C2438 C 0.63414 0.64545 0.30309 0.0
C2439 C 0.69271 0.65718 0.2412 0.0
C2440 C 0.6312 0.66794 0.2153 0.0
C2441 C 0.63039 0.68869 0.21932 0.0
C2442 C 0.64098 0.65535 0.23319 0.0
C2443 C 0.65063 0.66381 0.25517 0.0
C2444 C 0.64944 0.6847 0.25959 0.0
C2445 C 0.63913 0.69683 0.2418 0.0
C2446 C 0.64147 0.63308 0.2282 0.0
C2447 C 0.6599 0.6944 0.28242 0.0
H2448 H 0.66331 0.62755 0.33139 0.0
H2449 H 0.71211 0.63624 0.27811 0.0
H2450 H 0.63069 0.66143 0.30688 0.0
H2451 H 0.62448 0.64053 0.28671 0.0
H2452 H 0.63019 0.63664 0.32072 0.0
H2453 H 0.70877 0.6533 0.23877 0.0
H2454 H 0.68438 0.6517 0.22393 0.0
H2455 H 0.69127 0.67373 0.24153 0.0
H2456 H 0.62431 0.66155 0.19807 0.0
H2457 H 0.63865 0.71287 0.24498 0.0
H2458 H 0.63721 0.62477 0.24608 0.0
H2459 H 0.6569 0.62844 0.223 0.0
H2460 H 0.63126 0.62862 0.21213 0.0
H2461 H 0.65517 0.68726 0.30091 0.0
H2462 H 0.65681 0.71072 0.2837 0.0
H2463 H 0.67631 0.69222 0.28061 0.0
C2464 C 0.30034 0.63769 0.23255 0.0
C2465 C 0.30661 0.62881 0.2092 0.0
C2466 C 0.31356 0.64899 0.24779 0.0
C2467 C 0.33377 0.65094 0.23996 0.0
C2468 C 0.34038 0.64147 0.21678 0.0
C2469 C 0.3266 0.6308 0.20137 0.0
C2470 C 0.30569 0.65938 0.27185 0.0
C2471 C 0.36196 0.64273 0.20823 0.0
C2472 C 0.36058 0.6972 0.26468 0.0
C2473 C 0.36974 0.69008 0.28744 0.0
C2474 C 0.34922 0.6845 0.24875 0.0
C2475 C 0.34748 0.66399 0.25528 0.0
C2476 C 0.35744 0.6565 0.27763 0.0
C2477 C 0.36818 0.66973 0.29375 0.0
C2478 C 0.33831 0.69327 0.22562 0.0
C2479 C 0.35641 0.6346 0.28478 0.0
H2480 H 0.28483 0.63631 0.23854 0.0
H2481 H 0.33149 0.62378 0.18343 0.0
H2482 H 0.31418 0.65446 0.28927 0.0
H2483 H 0.30782 0.6758 0.26998 0.0
H2484 H 0.28954 0.65636 0.27521 0.0
H2485 H 0.36506 0.63311 0.19104 0.0
H2486 H 0.36577 0.65842 0.20321 0.0
H2487 H 0.37197 0.63814 0.22442 0.0
H2488 H 0.3616 0.71297 0.25983 0.0
H2489 H 0.37539 0.66416 0.31123 0.0
H2490 H 0.32192 0.69158 0.22838 0.0
H2491 H 0.34236 0.6851 0.20759 0.0
H2492 H 0.34171 0.70941 0.22278 0.0
H2493 H 0.34099 0.63074 0.29097 0.0
H2494 H 0.36685 0.63075 0.30086 0.0
H2495 H 0.36002 0.62518 0.2676 0.0
loop_
_geom_bond_atom_site_label_1
_geom_bond_atom_site_label_2
_geom_bond_distance
_geom_bond_site_symmetry_2
_ccdc_geom_bond_type
O0 Cd1 2.223 . S
O0 C8 1.315 . S
Cd1 O0 2.223 . S
Cd1 O4 2.297 . S
Cd1 O5 2.439 . S
Cd1 O11 2.240 . S
Cd2 O3 2.240 . S
Cd2 O10 2.223 . S
Cd2 O12 2.297 . S
Cd2 O13 2.439 . S
O3 Cd2 2.240 . S
O3 C8 1.279 . S
O4 Cd1 2.297 . S
O4 C6 1.247 . S
O5 Cd1 2.439 . S
O5 C6 1.208 . S
C6 O4 1.247 . S
C6 O5 1.208 . S
C7 O12 1.247 . S
C7 O13 1.208 . S
C8 O0 1.315 . S
C8 O3 1.279 . S
C9 O10 1.315 . S
C9 O11 1.279 . S
O10 Cd2 2.223 . S
O10 C9 1.315 . S
O11 Cd1 2.240 . S
O11 C9 1.279 . S
O12 Cd2 2.297 . S
O12 C7 1.247 . S
O13 Cd2 2.439 . S
O13 C7 1.208 . S
O14 Cd15 2.223 . S
O14 C22 1.315 . S
Cd15 O14 2.223 . S
Cd15 O18 2.297 . S
Cd15 O19 2.439 . S
Cd15 O25 2.240 . S
Cd16 O17 2.240 . S
Cd16 O24 2.223 . S
Cd16 O26 2.297 . S
Cd16 O27 2.439 . S
O17 Cd16 2.240 . S
O17 C22 1.279 . S
O18 Cd15 2.297 . S
O18 C20 1.247 . S
O19 Cd15 2.439 . S
O19 C20 1.208 . S
C20 O18 1.247 . S
C20 O19 1.208 . S
C21 O26 1.247 . S
C21 O27 1.208 . S
C22 O14 1.315 . S
C22 O17 1.279 . S
C23 O24 1.315 . S
C23 O25 1.279 . S
O24 Cd16 2.223 . S
O24 C23 1.315 . S
O25 Cd15 2.240 . S
O25 C23 1.279 . S
O26 Cd16 2.297 . S
O26 C21 1.247 . S
O27 Cd16 2.439 . S
O27 C21 1.208 . S
O28 Cd29 2.223 . S
O28 C36 1.315 . S
Cd29 O28 2.223 . S
Cd29 O32 2.297 . S
Cd29 O33 2.439 . S
Cd29 O39 2.240 . S
Cd30 O31 2.240 . S
Cd30 O38 2.223 . S
Cd30 O40 2.297 . S
Cd30 O41 2.439 . S
O31 Cd30 2.240 . S
O31 C36 1.279 . S
O32 Cd29 2.297 . S
O32 C34 1.247 . S
O33 Cd29 2.439 . S
O33 C34 1.208 . S
C34 O32 1.247 . S
C34 O33 1.208 . S
C35 O40 1.247 . S
C35 O41 1.208 . S
C36 O28 1.315 . S
C36 O31 1.279 . S
C37 O38 1.315 . S
C37 O39 1.279 . S
O38 Cd30 2.223 . S
O38 C37 1.315 . S
O39 Cd29 2.240 . S
O39 C37 1.279 . S
O40 Cd30 2.297 . S
O40 C35 1.247 . S
O41 Cd30 2.439 . S
O41 C35 1.208 . S
O42 Cd43 2.223 . S
O42 C50 1.315 . S
Cd43 O42 2.223 . S
Cd43 O46 2.297 . S
Cd43 O47 2.439 . S
Cd43 O53 2.240 . S
Cd44 O45 2.240 . S
Cd44 O52 2.223 . S
Cd44 O54 2.297 . S
Cd44 O55 2.439 . S
O45 Cd44 2.240 . S
O45 C50 1.279 . S
O46 Cd43 2.297 . S
O46 C48 1.247 . S
O47 Cd43 2.439 . S
O47 C48 1.208 . S
C48 O46 1.247 . S
C48 O47 1.208 . S
C49 O54 1.247 . S
C49 O55 1.208 . S
C50 O42 1.315 . S
C50 O45 1.279 . S
C51 O52 1.315 . S
C51 O53 1.279 . S
O52 Cd44 2.223 . S
O52 C51 1.315 . S
O53 Cd43 2.240 . S
O53 C51 1.279 . S
O54 Cd44 2.297 . S
O54 C49 1.247 . S
O55 Cd44 2.439 . S
O55 C49 1.208 . S
O56 Cd57 2.223 . S
O56 C64 1.315 . S
Cd57 O56 2.223 . S
Cd57 O60 2.297 . S
Cd57 O61 2.439 . S
Cd57 O67 2.240 . S
Cd58 O59 2.240 . S
Cd58 O66 2.223 . S
Cd58 O68 2.297 . S
Cd58 O69 2.439 . S
O59 Cd58 2.240 . S
O59 C64 1.279 . S
O60 Cd57 2.297 . S
O60 C62 1.247 . S
O61 Cd57 2.439 . S
O61 C62 1.208 . S
C62 O60 1.247 . S
C62 O61 1.208 . S
C63 O68 1.247 . S
C63 O69 1.208 . S
C64 O56 1.315 . S
C64 O59 1.279 . S
C65 O66 1.315 . S
C65 O67 1.279 . S
O66 Cd58 2.223 . S
O66 C65 1.315 . S
O67 Cd57 2.240 . S
O67 C65 1.279 . S
O68 Cd58 2.297 . S
O68 C63 1.247 . S
O69 Cd58 2.439 . S
O69 C63 1.208 . S
O70 Cd71 2.223 . S
O70 C78 1.315 . S
Cd71 O70 2.223 . S
Cd71 O74 2.297 . S
Cd71 O75 2.439 . S
Cd71 O81 2.240 . S
Cd72 O73 2.240 . S
Cd72 O80 2.223 . S
Cd72 O82 2.297 . S
Cd72 O83 2.439 . S
O73 Cd72 2.240 . S
O73 C78 1.279 . S
O74 Cd71 2.297 . S
O74 C76 1.247 . S
O75 Cd71 2.439 . S
O75 C76 1.208 . S
C76 O74 1.247 . S
C76 O75 1.208 . S
C77 O82 1.247 . S
C77 O83 1.208 . S
C78 O70 1.315 . S
C78 O73 1.279 . S
C79 O80 1.315 . S
C79 O81 1.279 . S
O80 Cd72 2.223 . S
O80 C79 1.315 . S
O81 Cd71 2.240 . S
O81 C79 1.279 . S
O82 Cd72 2.297 . S
O82 C77 1.247 . S
O83 Cd72 2.439 . S
O83 C77 1.208 . S
O84 Cd85 2.223 . S
O84 C92 1.315 . S
Cd85 O84 2.223 . S
Cd85 O88 2.297 . S
Cd85 O89 2.439 . S
Cd85 O95 2.240 . S
Cd86 O87 2.240 . S
Cd86 O94 2.223 . S
Cd86 O96 2.297 . S
Cd86 O97 2.439 . S
O87 Cd86 2.240 . S
O87 C92 1.279 . S
O88 Cd85 2.297 . S
O88 C90 1.247 . S
O89 Cd85 2.439 . S
O89 C90 1.208 . S
C90 O88 1.247 . S
C90 O89 1.208 . S
C91 O96 1.247 . S
C91 O97 1.208 . S
C92 O84 1.315 . S
C92 O87 1.279 . S
C93 O94 1.315 . S
C93 O95 1.279 . S
O94 Cd86 2.223 . S
O94 C93 1.315 . S
O95 Cd85 2.240 . S
O95 C93 1.279 . S
O96 Cd86 2.297 . S
O96 C91 1.247 . S
O97 Cd86 2.439 . S
O97 C91 1.208 . S
O98 Cd99 2.223 . S
O98 C106 1.315 . S
Cd99 O98 2.223 . S
Cd99 O102 2.297 . S
Cd99 O103 2.439 . S
Cd99 O109 2.240 . S
Cd100 O101 2.240 . S
Cd100 O108 2.223 . S
Cd100 O110 2.297 . S
Cd100 O111 2.439 . S
O101 Cd100 2.240 . S
O101 C106 1.279 . S
O102 Cd99 2.297 . S
O102 C104 1.247 . S
O103 Cd99 2.439 . S
O103 C104 1.208 . S
C104 O102 1.247 . S
C104 O103 1.208 . S
C105 O110 1.247 . S
C105 O111 1.208 . S
C106 O98 1.315 . S
C106 O101 1.279 . S
C107 O108 1.315 . S
C107 O109 1.279 . S
O108 Cd100 2.223 . S
O108 C107 1.315 . S
O109 Cd99 2.240 . S
O109 C107 1.279 . S
O110 Cd100 2.297 . S
O110 C105 1.247 . S
O111 Cd100 2.439 . S
O111 C105 1.208 . S
O112 Cd113 2.223 . S
O112 C120 1.315 . S
Cd113 O112 2.223 . S
Cd113 O116 2.297 . S
Cd113 O117 2.439 . S
Cd113 O123 2.240 . S
Cd114 O115 2.240 . S
Cd114 O122 2.223 . S
Cd114 O124 2.297 . S
Cd114 O125 2.439 . S
O115 Cd114 2.240 . S
O115 C120 1.279 . S
O116 Cd113 2.297 . S
O116 C118 1.247 . S
O117 Cd113 2.439 . S
O117 C118 1.208 . S
C118 O116 1.247 . S
C118 O117 1.208 . S
C119 O124 1.247 . S
C119 O125 1.208 . S
C120 O112 1.315 . S
C120 O115 1.279 . S
C121 O122 1.315 . S
C121 O123 1.279 . S
O122 Cd114 2.223 . S
O122 C121 1.315 . S
O123 Cd113 2.240 . S
O123 C121 1.279 . S
O124 Cd114 2.297 . S
O124 C119 1.247 . S
O125 Cd114 2.439 . S
O125 C119 1.208 . S
O126 Cd127 2.223 . S
O126 C134 1.315 . S
Cd127 O126 2.223 . S
Cd127 O130 2.297 . S
Cd127 O131 2.439 . S
Cd127 O137 2.240 . S
Cd128 O129 2.240 . S
Cd128 O136 2.223 . S
Cd128 O138 2.297 . S
Cd128 O139 2.439 . S
O129 Cd128 2.240 . S
O129 C134 1.279 . S
O130 Cd127 2.297 . S
O130 C132 1.247 . S
O131 Cd127 2.439 . S
O131 C132 1.208 . S
C132 O130 1.247 . S
C132 O131 1.208 . S
C133 O138 1.247 . S
C133 O139 1.208 . S
C134 O126 1.315 . S
C134 O129 1.279 . S
C135 O136 1.315 . S
C135 O137 1.279 . S
O136 Cd128 2.223 . S
O136 C135 1.315 . S
O137 Cd127 2.240 . S
O137 C135 1.279 . S
O138 Cd128 2.297 . S
O138 C133 1.247 . S
O139 Cd128 2.439 . S
O139 C133 1.208 . S
O140 Cd141 2.223 . S
O140 C148 1.315 . S
Cd141 O140 2.223 . S
Cd141 O144 2.297 . S
Cd141 O145 2.439 . S
Cd141 O151 2.240 . S
Cd142 O143 2.240 . S
Cd142 O150 2.223 . S
Cd142 O152 2.297 . S
Cd142 O153 2.439 . S
O143 Cd142 2.240 . S
O143 C148 1.279 . S
O144 Cd141 2.297 . S
O144 C146 1.247 . S
O145 Cd141 2.439 . S
O145 C146 1.208 . S
C146 O144 1.247 . S
C146 O145 1.208 . S
C147 O152 1.247 . S
C147 O153 1.208 . S
C148 O140 1.315 . S
C148 O143 1.279 . S
C149 O150 1.315 . S
C149 O151 1.279 . S
O150 Cd142 2.223 . S
O150 C149 1.315 . S
O151 Cd141 2.240 . S
O151 C149 1.279 . S
O152 Cd142 2.297 . S
O152 C147 1.247 . S
O153 Cd142 2.439 . S
O153 C147 1.208 . S
O154 Cd155 2.223 . S
O154 C162 1.315 . S
Cd155 O154 2.223 . S
Cd155 O158 2.297 . S
Cd155 O159 2.439 . S
Cd155 O165 2.240 . S
Cd156 O157 2.240 . S
Cd156 O164 2.223 . S
Cd156 O166 2.297 . S
Cd156 O167 2.439 . S
O157 Cd156 2.240 . S
O157 C162 1.279 . S
O158 Cd155 2.297 . S
O158 C160 1.247 . S
O159 Cd155 2.439 . S
O159 C160 1.208 . S
C160 O158 1.247 . S
C160 O159 1.208 . S
C161 O166 1.247 . S
C161 O167 1.208 . S
C162 O154 1.315 . S
C162 O157 1.279 . S
C163 O164 1.315 . S
C163 O165 1.279 . S
O164 Cd156 2.223 . S
O164 C163 1.315 . S
O165 Cd155 2.240 . S
O165 C163 1.279 . S
O166 Cd156 2.297 . S
O166 C161 1.247 . S
O167 Cd156 2.439 . S
O167 C161 1.208 . S
O168 Cd169 2.223 . S
O168 C176 1.315 . S
Cd169 O168 2.223 . S
Cd169 O172 2.297 . S
Cd169 O173 2.439 . S
Cd169 O179 2.240 . S
Cd170 O171 2.240 . S
Cd170 O178 2.223 . S
Cd170 O180 2.297 . S
Cd170 O181 2.439 . S
O171 Cd170 2.240 . S
O171 C176 1.279 . S
O172 Cd169 2.297 . S
O172 C174 1.247 . S
O173 Cd169 2.439 . S
O173 C174 1.208 . S
C174 O172 1.247 . S
C174 O173 1.208 . S
C175 O180 1.247 . S
C175 O181 1.208 . S
C176 O168 1.315 . S
C176 O171 1.279 . S
C177 O178 1.315 . S
C177 O179 1.279 . S
O178 Cd170 2.223 . S
O178 C177 1.315 . S
O179 Cd169 2.240 . S
O179 C177 1.279 . S
O180 Cd170 2.297 . S
O180 C175 1.247 . S
O181 Cd170 2.439 . S
O181 C175 1.208 . S
O182 Cd183 2.223 . S
O182 C190 1.315 . S
Cd183 O182 2.223 . S
Cd183 O186 2.297 . S
Cd183 O187 2.439 . S
Cd183 O193 2.240 . S
Cd184 O185 2.240 . S
Cd184 O192 2.223 . S
Cd184 O194 2.297 . S
Cd184 O195 2.439 . S
O185 Cd184 2.240 . S
O185 C190 1.279 . S
O186 Cd183 2.297 . S
O186 C188 1.247 . S
O187 Cd183 2.439 . S
O187 C188 1.208 . S
C188 O186 1.247 . S
C188 O187 1.208 . S
C189 O194 1.247 . S
C189 O195 1.208 . S
C190 O182 1.315 . S
C190 O185 1.279 . S
C191 O192 1.315 . S
C191 O193 1.279 . S
O192 Cd184 2.223 . S
O192 C191 1.315 . S
O193 Cd183 2.240 . S
O193 C191 1.279 . S
O194 Cd184 2.297 . S
O194 C189 1.247 . S
O195 Cd184 2.439 . S
O195 C189 1.208 . S
O196 Cd197 2.223 . S
O196 C204 1.315 . S
Cd197 O196 2.223 . S
Cd197 O200 2.297 . S
Cd197 O201 2.439 . S
Cd197 O207 2.240 . S
Cd198 O199 2.240 . S
Cd198 O206 2.223 . S
Cd198 O208 2.297 . S
Cd198 O209 2.439 . S
O199 Cd198 2.240 . S
O199 C204 1.279 . S
O200 Cd197 2.297 . S
O200 C202 1.247 . S
O201 Cd197 2.439 . S
O201 C202 1.208 . S
C202 O200 1.247 . S
C202 O201 1.208 . S
C203 O208 1.247 . S
C203 O209 1.208 . S
C204 O196 1.315 . S
C204 O199 1.279 . S
C205 O206 1.315 . S
C205 O207 1.279 . S
O206 Cd198 2.223 . S
O206 C205 1.315 . S
O207 Cd197 2.240 . S
O207 C205 1.279 . S
O208 Cd198 2.297 . S
O208 C203 1.247 . S
O209 Cd198 2.439 . S
O209 C203 1.208 . S
O210 Cd211 2.223 . S
O210 C218 1.315 . S
Cd211 O210 2.223 . S
Cd211 O214 2.297 . S
Cd211 O215 2.439 . S
Cd211 O221 2.240 . S
Cd212 O213 2.240 . S
Cd212 O220 2.223 . S
Cd212 O222 2.297 . S
Cd212 O223 2.439 . S
O213 Cd212 2.240 . S
O213 C218 1.279 . S
O214 Cd211 2.297 . S
O214 C216 1.247 . S
O215 Cd211 2.439 . S
O215 C216 1.208 . S
C216 O214 1.247 . S
C216 O215 1.208 . S
C217 O222 1.247 . S
C217 O223 1.208 . S
C218 O210 1.315 . S
C218 O213 1.279 . S
C219 O220 1.315 . S
C219 O221 1.279 . S
O220 Cd212 2.223 . S
O220 C219 1.315 . S
O221 Cd211 2.240 . S
O221 C219 1.279 . S
O222 Cd212 2.297 . S
O222 C217 1.247 . S
O223 Cd212 2.439 . S
O223 C217 1.208 . S
O224 Cd225 2.223 . S
O224 C232 1.315 . S
Cd225 O224 2.223 . S
Cd225 O228 2.297 . S
Cd225 O229 2.439 . S
Cd225 O235 2.240 . S
Cd226 O227 2.240 . S
Cd226 O234 2.223 . S
Cd226 O236 2.297 . S
Cd226 O237 2.439 . S
O227 Cd226 2.240 . S
O227 C232 1.279 . S
O228 Cd225 2.297 . S
O228 C230 1.247 . S
O229 Cd225 2.439 . S
O229 C230 1.208 . S
C230 O228 1.247 . S
C230 O229 1.208 . S
C231 O236 1.247 . S
C231 O237 1.208 . S
C232 O224 1.315 . S
C232 O227 1.279 . S
C233 O234 1.315 . S
C233 O235 1.279 . S
O234 Cd226 2.223 . S
O234 C233 1.315 . S
O235 Cd225 2.240 . S
O235 C233 1.279 . S
O236 Cd226 2.297 . S
O236 C231 1.247 . S
O237 Cd226 2.439 . S
O237 C231 1.208 . S
O238 Cd239 2.223 . S
O238 C246 1.315 . S
Cd239 O238 2.223 . S
Cd239 O242 2.297 . S
Cd239 O243 2.439 . S
Cd239 O249 2.240 . S
Cd240 O241 2.240 . S
Cd240 O248 2.223 . S
Cd240 O250 2.297 . S
Cd240 O251 2.439 . S
O241 Cd240 2.240 . S
O241 C246 1.279 . S
O242 Cd239 2.297 . S
O242 C244 1.247 . S
O243 Cd239 2.439 . S
O243 C244 1.208 . S
C244 O242 1.247 . S
C244 O243 1.208 . S
C245 O250 1.247 . S
C245 O251 1.208 . S
C246 O238 1.315 . S
C246 O241 1.279 . S
C247 O248 1.315 . S
C247 O249 1.279 . S
O248 Cd240 2.223 . S
O248 C247 1.315 . S
O249 Cd239 2.240 . S
O249 C247 1.279 . S
O250 Cd240 2.297 . S
O250 C245 1.247 . S
O251 Cd240 2.439 . S
O251 C245 1.208 . S
O252 Cd253 2.223 . S
O252 C260 1.315 . S
Cd253 O252 2.223 . S
Cd253 O256 2.297 . S
Cd253 O257 2.439 . S
Cd253 O263 2.240 . S
Cd254 O255 2.240 . S
Cd254 O262 2.223 . S
Cd254 O264 2.297 . S
Cd254 O265 2.439 . S
O255 Cd254 2.240 . S
O255 C260 1.279 . S
O256 Cd253 2.297 . S
O256 C258 1.247 . S
O257 Cd253 2.439 . S
O257 C258 1.208 . S
C258 O256 1.247 . S
C258 O257 1.208 . S
C259 O264 1.247 . S
C259 O265 1.208 . S
C260 O252 1.315 . S
C260 O255 1.279 . S
C261 O262 1.315 . S
C261 O263 1.279 . S
O262 Cd254 2.223 . S
O262 C261 1.315 . S
O263 Cd253 2.240 . S
O263 C261 1.279 . S
O264 Cd254 2.297 . S
O264 C259 1.247 . S
O265 Cd254 2.439 . S
O265 C259 1.208 . S
O266 Cd267 2.223 . S
O266 C274 1.315 . S
Cd267 O266 2.223 . S
Cd267 O270 2.297 . S
Cd267 O271 2.439 . S
Cd267 O277 2.240 . S
Cd268 O269 2.240 . S
Cd268 O276 2.223 . S
Cd268 O278 2.297 . S
Cd268 O279 2.439 . S
O269 Cd268 2.240 . S
O269 C274 1.279 . S
O270 Cd267 2.297 . S
O270 C272 1.247 . S
O271 Cd267 2.439 . S
O271 C272 1.208 . S
C272 O270 1.247 . S
C272 O271 1.208 . S
C273 O278 1.247 . S
C273 O279 1.208 . S
C274 O266 1.315 . S
C274 O269 1.279 . S
C275 O276 1.315 . S
C275 O277 1.279 . S
O276 Cd268 2.223 . S
O276 C275 1.315 . S
O277 Cd267 2.240 . S
O277 C275 1.279 . S
O278 Cd268 2.297 . S
O278 C273 1.247 . S
O279 Cd268 2.439 . S
O279 C273 1.208 . S
O280 Cd281 2.223 . S
O280 C288 1.315 . S
Cd281 O280 2.223 . S
Cd281 O284 2.297 . S
Cd281 O285 2.439 . S
Cd281 O291 2.240 . S
Cd282 O283 2.240 . S
Cd282 O290 2.223 . S
Cd282 O292 2.297 . S
Cd282 O293 2.439 . S
O283 Cd282 2.240 . S
O283 C288 1.279 . S
O284 Cd281 2.297 . S
O284 C286 1.247 . S
O285 Cd281 2.439 . S
O285 C286 1.208 . S
C286 O284 1.247 . S
C286 O285 1.208 . S
C287 O292 1.247 . S
C287 O293 1.208 . S
C288 O280 1.315 . S
C288 O283 1.279 . S
C289 O290 1.315 . S
C289 O291 1.279 . S
O290 Cd282 2.223 . S
O290 C289 1.315 . S
O291 Cd281 2.240 . S
O291 C289 1.279 . S
O292 Cd282 2.297 . S
O292 C287 1.247 . S
O293 Cd282 2.439 . S
O293 C287 1.208 . S
O294 Cd295 2.223 . S
O294 C302 1.315 . S
Cd295 O294 2.223 . S
Cd295 O298 2.297 . S
Cd295 O299 2.439 . S
Cd295 O305 2.240 . S
Cd296 O297 2.240 . S
Cd296 O304 2.223 . S
Cd296 O306 2.297 . S
Cd296 O307 2.439 . S
O297 Cd296 2.240 . S
O297 C302 1.279 . S
O298 Cd295 2.297 . S
O298 C300 1.247 . S
O299 Cd295 2.439 . S
O299 C300 1.208 . S
C300 O298 1.247 . S
C300 O299 1.208 . S
C301 O306 1.247 . S
C301 O307 1.208 . S
C302 O294 1.315 . S
C302 O297 1.279 . S
C303 O304 1.315 . S
C303 O305 1.279 . S
O304 Cd296 2.223 . S
O304 C303 1.315 . S
O305 Cd295 2.240 . S
O305 C303 1.279 . S
O306 Cd296 2.297 . S
O306 C301 1.247 . S
O307 Cd296 2.439 . S
O307 C301 1.208 . S
O308 Cd309 2.223 . S
O308 C316 1.315 . S
Cd309 O308 2.223 . S
Cd309 O312 2.297 . S
Cd309 O313 2.439 . S
Cd309 O319 2.240 . S
Cd310 O311 2.240 . S
Cd310 O318 2.223 . S
Cd310 O320 2.297 . S
Cd310 O321 2.439 . S
O311 Cd310 2.240 . S
O311 C316 1.279 . S
O312 Cd309 2.297 . S
O312 C314 1.247 . S
O313 Cd309 2.439 . S
O313 C314 1.208 . S
C314 O312 1.247 . S
C314 O313 1.208 . S
C315 O320 1.247 . S
C315 O321 1.208 . S
C316 O308 1.315 . S
C316 O311 1.279 . S
C317 O318 1.315 . S
C317 O319 1.279 . S
O318 Cd310 2.223 . S
O318 C317 1.315 . S
O319 Cd309 2.240 . S
O319 C317 1.279 . S
O320 Cd310 2.297 . S
O320 C315 1.247 . S
O321 Cd310 2.439 . S
O321 C315 1.208 . S
O322 Cd323 2.223 . S
O322 C330 1.315 . S
Cd323 O322 2.223 . S
Cd323 O326 2.297 . S
Cd323 O327 2.439 . S
Cd323 O333 2.240 . S
Cd324 O325 2.240 . S
Cd324 O332 2.223 . S
Cd324 O334 2.297 . S
Cd324 O335 2.439 . S
O325 Cd324 2.240 . S
O325 C330 1.279 . S
O326 Cd323 2.297 . S
O326 C328 1.247 . S
O327 Cd323 2.439 . S
O327 C328 1.208 . S
C328 O326 1.247 . S
C328 O327 1.208 . S
C329 O334 1.247 . S
C329 O335 1.208 . S
C330 O322 1.315 . S
C330 O325 1.279 . S
C331 O332 1.315 . S
C331 O333 1.279 . S
O332 Cd324 2.223 . S
O332 C331 1.315 . S
O333 Cd323 2.240 . S
O333 C331 1.279 . S
O334 Cd324 2.297 . S
O334 C329 1.247 . S
O335 Cd324 2.439 . S
O335 C329 1.208 . S
O336 Cd337 2.223 . S
O336 C344 1.315 . S
Cd337 O336 2.223 . S
Cd337 O340 2.297 . S
Cd337 O341 2.439 . S
Cd337 O347 2.240 . S
Cd338 O339 2.240 . S
Cd338 O346 2.223 . S
Cd338 O348 2.297 . S
Cd338 O349 2.439 . S
O339 Cd338 2.240 . S
O339 C344 1.279 . S
O340 Cd337 2.297 . S
O340 C342 1.247 . S
O341 Cd337 2.439 . S
O341 C342 1.208 . S
C342 O340 1.247 . S
C342 O341 1.208 . S
C343 O348 1.247 . S
C343 O349 1.208 . S
C344 O336 1.315 . S
C344 O339 1.279 . S
C345 O346 1.315 . S
C345 O347 1.279 . S
O346 Cd338 2.223 . S
O346 C345 1.315 . S
O347 Cd337 2.240 . S
O347 C345 1.279 . S
O348 Cd338 2.297 . S
O348 C343 1.247 . S
O349 Cd338 2.439 . S
O349 C343 1.208 . S
O350 Cd351 2.223 . S
O350 C358 1.315 . S
Cd351 O350 2.223 . S
Cd351 O354 2.297 . S
Cd351 O355 2.439 . S
Cd351 O361 2.240 . S
Cd352 O353 2.240 . S
Cd352 O360 2.223 . S
Cd352 O362 2.297 . S
Cd352 O363 2.439 . S
O353 Cd352 2.240 . S
O353 C358 1.279 . S
O354 Cd351 2.297 . S
O354 C356 1.247 . S
O355 Cd351 2.439 . S
O355 C356 1.208 . S
C356 O354 1.247 . S
C356 O355 1.208 . S
C357 O362 1.247 . S
C357 O363 1.208 . S
C358 O350 1.315 . S
C358 O353 1.279 . S
C359 O360 1.315 . S
C359 O361 1.279 . S
O360 Cd352 2.223 . S
O360 C359 1.315 . S
O361 Cd351 2.240 . S
O361 C359 1.279 . S
O362 Cd352 2.297 . S
O362 C357 1.247 . S
O363 Cd352 2.439 . S
O363 C357 1.208 . S
O364 Cd365 2.223 . S
O364 C372 1.315 . S
Cd365 O364 2.223 . S
Cd365 O368 2.297 . S
Cd365 O369 2.439 . S
Cd365 O375 2.240 . S
Cd366 O367 2.240 . S
Cd366 O374 2.223 . S
Cd366 O376 2.297 . S
Cd366 O377 2.439 . S
O367 Cd366 2.240 . S
O367 C372 1.279 . S
O368 Cd365 2.297 . S
O368 C370 1.247 . S
O369 Cd365 2.439 . S
O369 C370 1.208 . S
C370 O368 1.247 . S
C370 O369 1.208 . S
C371 O376 1.247 . S
C371 O377 1.208 . S
C372 O364 1.315 . S
C372 O367 1.279 . S
C373 O374 1.315 . S
C373 O375 1.279 . S
O374 Cd366 2.223 . S
O374 C373 1.315 . S
O375 Cd365 2.240 . S
O375 C373 1.279 . S
O376 Cd366 2.297 . S
O376 C371 1.247 . S
O377 Cd366 2.439 . S
O377 C371 1.208 . S
O378 Cd379 2.223 . S
O378 C386 1.315 . S
Cd379 O378 2.223 . S
Cd379 O382 2.297 . S
Cd379 O383 2.439 . S
Cd379 O389 2.240 . S
Cd380 O381 2.240 . S
Cd380 O388 2.223 . S
Cd380 O390 2.297 . S
Cd380 O391 2.439 . S
O381 Cd380 2.240 . S
O381 C386 1.279 . S
O382 Cd379 2.297 . S
O382 C384 1.247 . S
O383 Cd379 2.439 . S
O383 C384 1.208 . S
C384 O382 1.247 . S
C384 O383 1.208 . S
C385 O390 1.247 . S
C385 O391 1.208 . S
C386 O378 1.315 . S
C386 O381 1.279 . S
C387 O388 1.315 . S
C387 O389 1.279 . S
O388 Cd380 2.223 . S
O388 C387 1.315 . S
O389 Cd379 2.240 . S
O389 C387 1.279 . S
O390 Cd380 2.297 . S
O390 C385 1.247 . S
O391 Cd380 2.439 . S
O391 C385 1.208 . S
O392 Cd393 2.223 . S
O392 C400 1.315 . S
Cd393 O392 2.223 . S
Cd393 O396 2.297 . S
Cd393 O397 2.439 . S
Cd393 O403 2.240 . S
Cd394 O395 2.240 . S
Cd394 O402 2.223 . S
Cd394 O404 2.297 . S
Cd394 O405 2.439 . S
O395 Cd394 2.240 . S
O395 C400 1.279 . S
O396 Cd393 2.297 . S
O396 C398 1.247 . S
O397 Cd393 2.439 . S
O397 C398 1.208 . S
C398 O396 1.247 . S
C398 O397 1.208 . S
C399 O404 1.247 . S
C399 O405 1.208 . S
C400 O392 1.315 . S
C400 O395 1.279 . S
C401 O402 1.315 . S
C401 O403 1.279 . S
O402 Cd394 2.223 . S
O402 C401 1.315 . S
O403 Cd393 2.240 . S
O403 C401 1.279 . S
O404 Cd394 2.297 . S
O404 C399 1.247 . S
O405 Cd394 2.439 . S
O405 C399 1.208 . S
O406 Cd407 2.223 . S
O406 C414 1.315 . S
Cd407 O406 2.223 . S
Cd407 O410 2.297 . S
Cd407 O411 2.439 . S
Cd407 O417 2.240 . S
Cd408 O409 2.240 . S
Cd408 O416 2.223 . S
Cd408 O418 2.297 . S
Cd408 O419 2.439 . S
O409 Cd408 2.240 . S
O409 C414 1.279 . S
O410 Cd407 2.297 . S
O410 C412 1.247 . S
O411 Cd407 2.439 . S
O411 C412 1.208 . S
C412 O410 1.247 . S
C412 O411 1.208 . S
C413 O418 1.247 . S
C413 O419 1.208 . S
C414 O406 1.315 . S
C414 O409 1.279 . S
C415 O416 1.315 . S
C415 O417 1.279 . S
O416 Cd408 2.223 . S
O416 C415 1.315 . S
O417 Cd407 2.240 . S
O417 C415 1.279 . S
O418 Cd408 2.297 . S
O418 C413 1.247 . S
O419 Cd408 2.439 . S
O419 C413 1.208 . S
O420 Cd421 2.223 . S
O420 C428 1.315 . S
Cd421 O420 2.223 . S
Cd421 O424 2.297 . S
Cd421 O425 2.439 . S
Cd421 O431 2.240 . S
Cd422 O423 2.240 . S
Cd422 O430 2.223 . S
Cd422 O432 2.297 . S
Cd422 O433 2.439 . S
O423 Cd422 2.240 . S
O423 C428 1.279 . S
O424 Cd421 2.297 . S
O424 C426 1.247 . S
O425 Cd421 2.439 . S
O425 C426 1.208 . S
C426 O424 1.247 . S
C426 O425 1.208 . S
C427 O432 1.247 . S
C427 O433 1.208 . S
C428 O420 1.315 . S
C428 O423 1.279 . S
C429 O430 1.315 . S
C429 O431 1.279 . S
O430 Cd422 2.223 . S
O430 C429 1.315 . S
O431 Cd421 2.240 . S
O431 C429 1.279 . S
O432 Cd422 2.297 . S
O432 C427 1.247 . S
O433 Cd422 2.439 . S
O433 C427 1.208 . S
O434 Cd435 2.223 . S
O434 C442 1.315 . S
Cd435 O434 2.223 . S
Cd435 O438 2.297 . S
Cd435 O439 2.439 . S
Cd435 O445 2.240 . S
Cd436 O437 2.240 . S
Cd436 O444 2.223 . S
Cd436 O446 2.297 . S
Cd436 O447 2.439 . S
O437 Cd436 2.240 . S
O437 C442 1.279 . S
O438 Cd435 2.297 . S
O438 C440 1.247 . S
O439 Cd435 2.439 . S
O439 C440 1.208 . S
C440 O438 1.247 . S
C440 O439 1.208 . S
C441 O446 1.247 . S
C441 O447 1.208 . S
C442 O434 1.315 . S
C442 O437 1.279 . S
C443 O444 1.315 . S
C443 O445 1.279 . S
O444 Cd436 2.223 . S
O444 C443 1.315 . S
O445 Cd435 2.240 . S
O445 C443 1.279 . S
O446 Cd436 2.297 . S
O446 C441 1.247 . S
O447 Cd436 2.439 . S
O447 C441 1.208 . S
C448 C449 1.391 . S
C448 C450 1.394 . S
C448 H464 0.931 . S
C449 C448 1.391 . S
C449 C453 1.376 . S
C450 C448 1.394 . S
C450 C451 1.369 . S
C450 C454 1.531 . S
C451 C450 1.369 . S
C451 C452 1.410 . S
C451 C459 1.503 . S
C452 C451 1.410 . S
C452 C453 1.392 . S
C452 C455 1.511 . S
C453 C449 1.376 . S
C453 C452 1.392 . S
C453 H465 0.929 . S
C454 C450 1.531 . S
C454 H466 0.960 . S
C454 H467 0.962 . S
C454 H468 0.960 . S
C455 C452 1.511 . S
C455 H469 0.961 . S
C455 H470 0.961 . S
C455 H471 0.961 . S
C456 C457 1.370 . S
C456 C458 1.363 . S
C456 H472 0.931 . S
C457 C456 1.370 . S
C457 C461 1.408 . S
C458 C456 1.363 . S
C458 C459 1.370 . S
C458 C462 1.524 . S
C459 C451 1.503 . S
C459 C458 1.370 . S
C459 C460 1.403 . S
C460 C459 1.403 . S
C460 C461 1.404 . S
C460 C463 1.539 . S
C461 C457 1.408 . S
C461 C460 1.404 . S
C461 H473 0.930 . S
C462 C458 1.524 . S
C462 H474 0.956 . S
C462 H475 0.961 . S
C462 H476 0.961 . S
C463 C460 1.539 . S
C463 H477 0.958 . S
C463 H478 0.961 . S
C463 H479 0.960 . S
H464 C448 0.931 . S
H465 C453 0.929 . S
H466 C454 0.960 . S
H467 C454 0.962 . S
H468 C454 0.960 . S
H469 C455 0.961 . S
H470 C455 0.961 . S
H471 C455 0.961 . S
H472 C456 0.931 . S
H473 C461 0.930 . S
H474 C462 0.956 . S
H475 C462 0.961 . S
H476 C462 0.961 . S
H477 C463 0.958 . S
H478 C463 0.961 . S
H479 C463 0.960 . S
C480 C481 1.391 . S
C480 C482 1.394 . S
C480 H496 0.931 . S
C481 C480 1.391 . S
C481 C485 1.376 . S
C482 C480 1.394 . S
C482 C483 1.369 . S
C482 C486 1.531 . S
C483 C482 1.369 . S
C483 C484 1.410 . S
C483 C491 1.503 . S
C484 C483 1.410 . S
C484 C485 1.392 . S
C484 C487 1.511 . S
C485 C481 1.376 . S
C485 C484 1.392 . S
C485 H497 0.929 . S
C486 C482 1.531 . S
C486 H498 0.960 . S
C486 H499 0.962 . S
C486 H500 0.960 . S
C487 C484 1.511 . S
C487 H501 0.961 . S
C487 H502 0.961 . S
C487 H503 0.961 . S
C488 C489 1.370 . S
C488 C490 1.363 . S
C488 H504 0.931 . S
C489 C488 1.370 . S
C489 C493 1.408 . S
C490 C488 1.363 . S
C490 C491 1.370 . S
C490 C494 1.524 . S
C491 C483 1.503 . S
C491 C490 1.370 . S
C491 C492 1.403 . S
C492 C491 1.403 . S
C492 C493 1.404 . S
C492 C495 1.539 . S
C493 C489 1.408 . S
C493 C492 1.404 . S
C493 H505 0.930 . S
C494 C490 1.524 . S
C494 H506 0.956 . S
C494 H507 0.961 . S
C494 H508 0.961 . S
C495 C492 1.539 . S
C495 H509 0.958 . S
C495 H510 0.961 . S
C495 H511 0.960 . S
H496 C480 0.931 . S
H497 C485 0.929 . S
H498 C486 0.960 . S
H499 C486 0.962 . S
H500 C486 0.960 . S
H501 C487 0.961 . S
H502 C487 0.961 . S
H503 C487 0.961 . S
H504 C488 0.931 . S
H505 C493 0.930 . S
H506 C494 0.956 . S
H507 C494 0.961 . S
H508 C494 0.961 . S
H509 C495 0.958 . S
H510 C495 0.961 . S
H511 C495 0.960 . S
C512 C513 1.391 . S
C512 C514 1.394 . S
C512 H528 0.931 . S
C513 C512 1.391 . S
C513 C517 1.376 . S
C514 C512 1.394 . S
C514 C515 1.369 . S
C514 C518 1.531 . S
C515 C514 1.369 . S
C515 C516 1.410 . S
C515 C523 1.503 . S
C516 C515 1.410 . S
C516 C517 1.392 . S
C516 C519 1.511 . S
C517 C513 1.376 . S
C517 C516 1.392 . S
C517 H529 0.929 . S
C518 C514 1.531 . S
C518 H530 0.960 . S
C518 H531 0.962 . S
C518 H532 0.960 . S
C519 C516 1.511 . S
C519 H533 0.961 . S
C519 H534 0.961 . S
C519 H535 0.961 . S
C520 C521 1.370 . S
C520 C522 1.363 . S
C520 H536 0.931 . S
C521 C520 1.370 . S
C521 C525 1.408 . S
C522 C520 1.363 . S
C522 C523 1.370 . S
C522 C526 1.524 . S
C523 C515 1.503 . S
C523 C522 1.370 . S
C523 C524 1.403 . S
C524 C523 1.403 . S
C524 C525 1.404 . S
C524 C527 1.539 . S
C525 C521 1.408 . S
C525 C524 1.404 . S
C525 H537 0.930 . S
C526 C522 1.524 . S
C526 H538 0.956 . S
C526 H539 0.961 . S
C526 H540 0.961 . S
C527 C524 1.539 . S
C527 H541 0.958 . S
C527 H542 0.961 . S
C527 H543 0.960 . S
H528 C512 0.931 . S
H529 C517 0.929 . S
H530 C518 0.960 . S
H531 C518 0.962 . S
H532 C518 0.960 . S
H533 C519 0.961 . S
H534 C519 0.961 . S
H535 C519 0.961 . S
H536 C520 0.931 . S
H537 C525 0.930 . S
H538 C526 0.956 . S
H539 C526 0.961 . S
H540 C526 0.961 . S
H541 C527 0.958 . S
H542 C527 0.961 . S
H543 C527 0.960 . S
C544 C545 1.391 . S
C544 C546 1.394 . S
C544 H560 0.931 . S
C545 C544 1.391 . S
C545 C549 1.376 . S
C546 C544 1.394 . S
C546 C547 1.369 . S
C546 C550 1.531 . S
C547 C546 1.369 . S
C547 C548 1.410 . S
C547 C555 1.503 . S
C548 C547 1.410 . S
C548 C549 1.392 . S
C548 C551 1.511 . S
C549 C545 1.376 . S
C549 C548 1.392 . S
C549 H561 0.929 . S
C550 C546 1.531 . S
C550 H562 0.960 . S
C550 H563 0.962 . S
C550 H564 0.960 . S
C551 C548 1.511 . S
C551 H565 0.961 . S
C551 H566 0.961 . S
C551 H567 0.961 . S
C552 C553 1.370 . S
C552 C554 1.363 . S
C552 H568 0.931 . S
C553 C552 1.370 . S
C553 C557 1.408 . S
C554 C552 1.363 . S
C554 C555 1.370 . S
C554 C558 1.524 . S
C555 C547 1.503 . S
C555 C554 1.370 . S
C555 C556 1.403 . S
C556 C555 1.403 . S
C556 C557 1.404 . S
C556 C559 1.539 . S
C557 C553 1.408 . S
C557 C556 1.404 . S
C557 H569 0.930 . S
C558 C554 1.524 . S
C558 H570 0.956 . S
C558 H571 0.961 . S
C558 H572 0.961 . S
C559 C556 1.539 . S
C559 H573 0.958 . S
C559 H574 0.961 . S
C559 H575 0.960 . S
H560 C544 0.931 . S
H561 C549 0.929 . S
H562 C550 0.960 . S
H563 C550 0.962 . S
H564 C550 0.960 . S
H565 C551 0.961 . S
H566 C551 0.961 . S
H567 C551 0.961 . S
H568 C552 0.931 . S
H569 C557 0.930 . S
H570 C558 0.956 . S
H571 C558 0.961 . S
H572 C558 0.961 . S
H573 C559 0.958 . S
H574 C559 0.961 . S
H575 C559 0.960 . S
C576 C577 1.391 . S
C576 C578 1.394 . S
C576 H592 0.931 . S
C577 C576 1.391 . S
C577 C581 1.376 . S
C578 C576 1.394 . S
C578 C579 1.369 . S
C578 C582 1.531 . S
C579 C578 1.369 . S
C579 C580 1.410 . S
C579 C587 1.503 . S
C580 C579 1.410 . S
C580 C581 1.392 . S
C580 C583 1.511 . S
C581 C577 1.376 . S
C581 C580 1.392 . S
C581 H593 0.929 . S
C582 C578 1.531 . S
C582 H594 0.960 . S
C582 H595 0.962 . S
C582 H596 0.960 . S
C583 C580 1.511 . S
C583 H597 0.961 . S
C583 H598 0.961 . S
C583 H599 0.961 . S
C584 C585 1.370 . S
C584 C586 1.363 . S
C584 H600 0.931 . S
C585 C584 1.370 . S
C585 C589 1.408 . S
C586 C584 1.363 . S
C586 C587 1.370 . S
C586 C590 1.524 . S
C587 C579 1.503 . S
C587 C586 1.370 . S
C587 C588 1.403 . S
C588 C587 1.403 . S
C588 C589 1.404 . S
C588 C591 1.539 . S
C589 C585 1.408 . S
C589 C588 1.404 . S
C589 H601 0.930 . S
C590 C586 1.524 . S
C590 H602 0.956 . S
C590 H603 0.961 . S
C590 H604 0.961 . S
C591 C588 1.539 . S
C591 H605 0.958 . S
C591 H606 0.961 . S
C591 H607 0.960 . S
H592 C576 0.931 . S
H593 C581 0.929 . S
H594 C582 0.960 . S
H595 C582 0.962 . S
H596 C582 0.960 . S
H597 C583 0.961 . S
H598 C583 0.961 . S
H599 C583 0.961 . S
H600 C584 0.931 . S
H601 C589 0.930 . S
H602 C590 0.956 . S
H603 C590 0.961 . S
H604 C590 0.961 . S
H605 C591 0.958 . S
H606 C591 0.961 . S
H607 C591 0.960 . S
C608 C609 1.391 . S
C608 C610 1.394 . S
C608 H624 0.931 . S
C609 C608 1.391 . S
C609 C613 1.376 . S
C610 C608 1.394 . S
C610 C611 1.369 . S
C610 C614 1.531 . S
C611 C610 1.369 . S
C611 C612 1.410 . S
C611 C619 1.503 . S
C612 C611 1.410 . S
C612 C613 1.392 . S
C612 C615 1.511 . S
C613 C609 1.376 . S
C613 C612 1.392 . S
C613 H625 0.929 . S
C614 C610 1.531 . S
C614 H626 0.960 . S
C614 H627 0.962 . S
C614 H628 0.960 . S
C615 C612 1.511 . S
C615 H629 0.961 . S
C615 H630 0.961 . S
C615 H631 0.961 . S
C616 C617 1.370 . S
C616 C618 1.363 . S
C616 H632 0.931 . S
C617 C616 1.370 . S
C617 C621 1.408 . S
C618 C616 1.363 . S
C618 C619 1.370 . S
C618 C622 1.524 . S
C619 C611 1.503 . S
C619 C618 1.370 . S
C619 C620 1.403 . S
C620 C619 1.403 . S
C620 C621 1.404 . S
C620 C623 1.539 . S
C621 C617 1.408 . S
C621 C620 1.404 . S
C621 H633 0.930 . S
C622 C618 1.524 . S
C622 H634 0.956 . S
C622 H635 0.961 . S
C622 H636 0.961 . S
C623 C620 1.539 . S
C623 H637 0.958 . S
C623 H638 0.961 . S
C623 H639 0.960 . S
H624 C608 0.931 . S
H625 C613 0.929 . S
H626 C614 0.960 . S
H627 C614 0.962 . S
H628 C614 0.960 . S
H629 C615 0.961 . S
H630 C615 0.961 . S
H631 C615 0.961 . S
H632 C616 0.931 . S
H633 C621 0.930 . S
H634 C622 0.956 . S
H635 C622 0.961 . S
H636 C622 0.961 . S
H637 C623 0.958 . S
H638 C623 0.961 . S
H639 C623 0.960 . S
C640 C641 1.391 . S
C640 C642 1.394 . S
C640 H656 0.931 . S
C641 C640 1.391 . S
C641 C645 1.376 . S
C642 C640 1.394 . S
C642 C643 1.369 . S
C642 C646 1.531 . S
C643 C642 1.369 . S
C643 C644 1.410 . S
C643 C651 1.503 . S
C644 C643 1.410 . S
C644 C645 1.392 . S
C644 C647 1.511 . S
C645 C641 1.376 . S
C645 C644 1.392 . S
C645 H657 0.929 . S
C646 C642 1.531 . S
C646 H658 0.960 . S
C646 H659 0.962 . S
C646 H660 0.960 . S
C647 C644 1.511 . S
C647 H661 0.961 . S
C647 H662 0.961 . S
C647 H663 0.961 . S
C648 C649 1.370 . S
C648 C650 1.363 . S
C648 H664 0.931 . S
C649 C648 1.370 . S
C649 C653 1.408 . S
C650 C648 1.363 . S
C650 C651 1.370 . S
C650 C654 1.524 . S
C651 C643 1.503 . S
C651 C650 1.370 . S
C651 C652 1.403 . S
C652 C651 1.403 . S
C652 C653 1.404 . S
C652 C655 1.539 . S
C653 C649 1.408 . S
C653 C652 1.404 . S
C653 H665 0.930 . S
C654 C650 1.524 . S
C654 H666 0.956 . S
C654 H667 0.961 . S
C654 H668 0.961 . S
C655 C652 1.539 . S
C655 H669 0.958 . S
C655 H670 0.961 . S
C655 H671 0.960 . S
H656 C640 0.931 . S
H657 C645 0.929 . S
H658 C646 0.960 . S
H659 C646 0.962 . S
H660 C646 0.960 . S
H661 C647 0.961 . S
H662 C647 0.961 . S
H663 C647 0.961 . S
H664 C648 0.931 . S
H665 C653 0.930 . S
H666 C654 0.956 . S
H667 C654 0.961 . S
H668 C654 0.961 . S
H669 C655 0.958 . S
H670 C655 0.961 . S
H671 C655 0.960 . S
C672 C673 1.391 . S
C672 C674 1.394 . S
C672 H688 0.931 . S
C673 C672 1.391 . S
C673 C677 1.376 . S
C674 C672 1.394 . S
C674 C675 1.369 . S
C674 C678 1.531 . S
C675 C674 1.369 . S
C675 C676 1.410 . S
C675 C683 1.503 . S
C676 C675 1.410 . S
C676 C677 1.392 . S
C676 C679 1.511 . S
C677 C673 1.376 . S
C677 C676 1.392 . S
C677 H689 0.929 . S
C678 C674 1.531 . S
C678 H690 0.960 . S
C678 H691 0.962 . S
C678 H692 0.960 . S
C679 C676 1.511 . S
C679 H693 0.961 . S
C679 H694 0.961 . S
C679 H695 0.961 . S
C680 C681 1.370 . S
C680 C682 1.363 . S
C680 H696 0.931 . S
C681 C680 1.370 . S
C681 C685 1.408 . S
C682 C680 1.363 . S
C682 C683 1.370 . S
C682 C686 1.524 . S
C683 C675 1.503 . S
C683 C682 1.370 . S
C683 C684 1.403 . S
C684 C683 1.403 . S
C684 C685 1.404 . S
C684 C687 1.539 . S
C685 C681 1.408 . S
C685 C684 1.404 . S
C685 H697 0.930 . S
C686 C682 1.524 . S
C686 H698 0.956 . S
C686 H699 0.961 . S
C686 H700 0.961 . S
C687 C684 1.539 . S
C687 H701 0.958 . S
C687 H702 0.961 . S
C687 H703 0.960 . S
H688 C672 0.931 . S
H689 C677 0.929 . S
H690 C678 0.960 . S
H691 C678 0.962 . S
H692 C678 0.960 . S
H693 C679 0.961 . S
H694 C679 0.961 . S
H695 C679 0.961 . S
H696 C680 0.931 . S
H697 C685 0.930 . S
H698 C686 0.956 . S
H699 C686 0.961 . S
H700 C686 0.961 . S
H701 C687 0.958 . S
H702 C687 0.961 . S
H703 C687 0.960 . S
C704 C705 1.391 . S
C704 C706 1.394 . S
C704 H720 0.931 . S
C705 C704 1.391 . S
C705 C709 1.376 . S
C706 C704 1.394 . S
C706 C707 1.369 . S
C706 C710 1.531 . S
C707 C706 1.369 . S
C707 C708 1.410 . S
C707 C715 1.503 . S
C708 C707 1.410 . S
C708 C709 1.392 . S
C708 C711 1.511 . S
C709 C705 1.376 . S
C709 C708 1.392 . S
C709 H721 0.929 . S
C710 C706 1.531 . S
C710 H722 0.960 . S
C710 H723 0.962 . S
C710 H724 0.960 . S
C711 C708 1.511 . S
C711 H725 0.961 . S
C711 H726 0.961 . S
C711 H727 0.961 . S
C712 C713 1.370 . S
C712 C714 1.363 . S
C712 H728 0.931 . S
C713 C712 1.370 . S
C713 C717 1.408 . S
C714 C712 1.363 . S
C714 C715 1.370 . S
C714 C718 1.524 . S
C715 C707 1.503 . S
C715 C714 1.370 . S
C715 C716 1.403 . S
C716 C715 1.403 . S
C716 C717 1.404 . S
C716 C719 1.539 . S
C717 C713 1.408 . S
C717 C716 1.404 . S
C717 H729 0.930 . S
C718 C714 1.524 . S
C718 H730 0.956 . S
C718 H731 0.961 . S
C718 H732 0.961 . S
C719 C716 1.539 . S
C719 H733 0.958 . S
C719 H734 0.961 . S
C719 H735 0.960 . S
H720 C704 0.931 . S
H721 C709 0.929 . S
H722 C710 0.960 . S
H723 C710 0.962 . S
H724 C710 0.960 . S
H725 C711 0.961 . S
H726 C711 0.961 . S
H727 C711 0.961 . S
H728 C712 0.931 . S
H729 C717 0.930 . S
H730 C718 0.956 . S
H731 C718 0.961 . S
H732 C718 0.961 . S
H733 C719 0.958 . S
H734 C719 0.961 . S
H735 C719 0.960 . S
C736 C737 1.391 . S
C736 C738 1.394 . S
C736 H752 0.931 . S
C737 C736 1.391 . S
C737 C741 1.376 . S
C738 C736 1.394 . S
C738 C739 1.369 . S
C738 C742 1.531 . S
C739 C738 1.369 . S
C739 C740 1.410 . S
C739 C747 1.503 . S
C740 C739 1.410 . S
C740 C741 1.392 . S
C740 C743 1.511 . S
C741 C737 1.376 . S
C741 C740 1.392 . S
C741 H753 0.929 . S
C742 C738 1.531 . S
C742 H754 0.960 . S
C742 H755 0.962 . S
C742 H756 0.960 . S
C743 C740 1.511 . S
C743 H757 0.961 . S
C743 H758 0.961 . S
C743 H759 0.961 . S
C744 C745 1.370 . S
C744 C746 1.363 . S
C744 H760 0.931 . S
C745 C744 1.370 . S
C745 C749 1.408 . S
C746 C744 1.363 . S
C746 C747 1.370 . S
C746 C750 1.524 . S
C747 C739 1.503 . S
C747 C746 1.370 . S
C747 C748 1.403 . S
C748 C747 1.403 . S
C748 C749 1.404 . S
C748 C751 1.539 . S
C749 C745 1.408 . S
C749 C748 1.404 . S
C749 H761 0.930 . S
C750 C746 1.524 . S
C750 H762 0.956 . S
C750 H763 0.961 . S
C750 H764 0.961 . S
C751 C748 1.539 . S
C751 H765 0.958 . S
C751 H766 0.961 . S
C751 H767 0.960 . S
H752 C736 0.931 . S
H753 C741 0.929 . S
H754 C742 0.960 . S
H755 C742 0.962 . S
H756 C742 0.960 . S
H757 C743 0.961 . S
H758 C743 0.961 . S
H759 C743 0.961 . S
H760 C744 0.931 . S
H761 C749 0.930 . S
H762 C750 0.956 . S
H763 C750 0.961 . S
H764 C750 0.961 . S
H765 C751 0.958 . S
H766 C751 0.961 . S
H767 C751 0.960 . S
C768 C769 1.391 . S
C768 C770 1.394 . S
C768 H784 0.931 . S
C769 C768 1.391 . S
C769 C773 1.376 . S
C770 C768 1.394 . S
C770 C771 1.369 . S
C770 C774 1.531 . S
C771 C770 1.369 . S
C771 C772 1.410 . S
C771 C779 1.503 . S
C772 C771 1.410 . S
C772 C773 1.392 . S
C772 C775 1.511 . S
C773 C769 1.376 . S
C773 C772 1.392 . S
C773 H785 0.929 . S
C774 C770 1.531 . S
C774 H786 0.960 . S
C774 H787 0.962 . S
C774 H788 0.960 . S
C775 C772 1.511 . S
C775 H789 0.961 . S
C775 H790 0.961 . S
C775 H791 0.961 . S
C776 C777 1.370 . S
C776 C778 1.363 . S
C776 H792 0.931 . S
C777 C776 1.370 . S
C777 C781 1.408 . S
C778 C776 1.363 . S
C778 C779 1.370 . S
C778 C782 1.524 . S
C779 C771 1.503 . S
C779 C778 1.370 . S
C779 C780 1.403 . S
C780 C779 1.403 . S
C780 C781 1.404 . S
C780 C783 1.539 . S
C781 C777 1.408 . S
C781 C780 1.404 . S
C781 H793 0.930 . S
C782 C778 1.524 . S
C782 H794 0.956 . S
C782 H795 0.961 . S
C782 H796 0.961 . S
C783 C780 1.539 . S
C783 H797 0.958 . S
C783 H798 0.961 . S
C783 H799 0.960 . S
H784 C768 0.931 . S
H785 C773 0.929 . S
H786 C774 0.960 . S
H787 C774 0.962 . S
H788 C774 0.960 . S
H789 C775 0.961 . S
H790 C775 0.961 . S
H791 C775 0.961 . S
H792 C776 0.931 . S
H793 C781 0.930 . S
H794 C782 0.956 . S
H795 C782 0.961 . S
H796 C782 0.961 . S
H797 C783 0.958 . S
H798 C783 0.961 . S
H799 C783 0.960 . S
C800 C801 1.391 . S
C800 C802 1.394 . S
C800 H816 0.931 . S
C801 C800 1.391 . S
C801 C805 1.376 . S
C802 C800 1.394 . S
C802 C803 1.369 . S
C802 C806 1.531 . S
C803 C802 1.369 . S
C803 C804 1.410 . S
C803 C811 1.503 . S
C804 C803 1.410 . S
C804 C805 1.392 . S
C804 C807 1.511 . S
C805 C801 1.376 . S
C805 C804 1.392 . S
C805 H817 0.929 . S
C806 C802 1.531 . S
C806 H818 0.960 . S
C806 H819 0.962 . S
C806 H820 0.960 . S
C807 C804 1.511 . S
C807 H821 0.961 . S
C807 H822 0.961 . S
C807 H823 0.961 . S
C808 C809 1.370 . S
C808 C810 1.363 . S
C808 H824 0.931 . S
C809 C808 1.370 . S
C809 C813 1.408 . S
C810 C808 1.363 . S
C810 C811 1.370 . S
C810 C814 1.524 . S
C811 C803 1.503 . S
C811 C810 1.370 . S
C811 C812 1.403 . S
C812 C811 1.403 . S
C812 C813 1.404 . S
C812 C815 1.539 . S
C813 C809 1.408 . S
C813 C812 1.404 . S
C813 H825 0.930 . S
C814 C810 1.524 . S
C814 H826 0.956 . S
C814 H827 0.961 . S
C814 H828 0.961 . S
C815 C812 1.539 . S
C815 H829 0.958 . S
C815 H830 0.961 . S
C815 H831 0.960 . S
H816 C800 0.931 . S
H817 C805 0.929 . S
H818 C806 0.960 . S
H819 C806 0.962 . S
H820 C806 0.960 . S
H821 C807 0.961 . S
H822 C807 0.961 . S
H823 C807 0.961 . S
H824 C808 0.931 . S
H825 C813 0.930 . S
H826 C814 0.956 . S
H827 C814 0.961 . S
H828 C814 0.961 . S
H829 C815 0.958 . S
H830 C815 0.961 . S
H831 C815 0.960 . S
C832 C833 1.391 . S
C832 C834 1.394 . S
C832 H848 0.931 . S
C833 C832 1.391 . S
C833 C837 1.376 . S
C834 C832 1.394 . S
C834 C835 1.369 . S
C834 C838 1.531 . S
C835 C834 1.369 . S
C835 C836 1.410 . S
C835 C843 1.503 . S
C836 C835 1.410 . S
C836 C837 1.392 . S
C836 C839 1.511 . S
C837 C833 1.376 . S
C837 C836 1.392 . S
C837 H849 0.929 . S
C838 C834 1.531 . S
C838 H850 0.960 . S
C838 H851 0.962 . S
C838 H852 0.960 . S
C839 C836 1.511 . S
C839 H853 0.961 . S
C839 H854 0.961 . S
C839 H855 0.961 . S
C840 C841 1.370 . S
C840 C842 1.363 . S
C840 H856 0.931 . S
C841 C840 1.370 . S
C841 C845 1.408 . S
C842 C840 1.363 . S
C842 C843 1.370 . S
C842 C846 1.524 . S
C843 C835 1.503 . S
C843 C842 1.370 . S
C843 C844 1.403 . S
C844 C843 1.403 . S
C844 C845 1.404 . S
C844 C847 1.539 . S
C845 C841 1.408 . S
C845 C844 1.404 . S
C845 H857 0.930 . S
C846 C842 1.524 . S
C846 H858 0.956 . S
C846 H859 0.961 . S
C846 H860 0.961 . S
C847 C844 1.539 . S
C847 H861 0.958 . S
C847 H862 0.961 . S
C847 H863 0.960 . S
H848 C832 0.931 . S
H849 C837 0.929 . S
H850 C838 0.960 . S
H851 C838 0.962 . S
H852 C838 0.960 . S
H853 C839 0.961 . S
H854 C839 0.961 . S
H855 C839 0.961 . S
H856 C840 0.931 . S
H857 C845 0.930 . S
H858 C846 0.956 . S
H859 C846 0.961 . S
H860 C846 0.961 . S
H861 C847 0.958 . S
H862 C847 0.961 . S
H863 C847 0.960 . S
C864 C865 1.391 . S
C864 C866 1.394 . S
C864 H880 0.931 . S
C865 C864 1.391 . S
C865 C869 1.376 . S
C866 C864 1.394 . S
C866 C867 1.369 . S
C866 C870 1.531 . S
C867 C866 1.369 . S
C867 C868 1.410 . S
C867 C875 1.503 . S
C868 C867 1.410 . S
C868 C869 1.392 . S
C868 C871 1.511 . S
C869 C865 1.376 . S
C869 C868 1.392 . S
C869 H881 0.929 . S
C870 C866 1.531 . S
C870 H882 0.960 . S
C870 H883 0.962 . S
C870 H884 0.960 . S
C871 C868 1.511 . S
C871 H885 0.961 . S
C871 H886 0.961 . S
C871 H887 0.961 . S
C872 C873 1.370 . S
C872 C874 1.363 . S
C872 H888 0.931 . S
C873 C872 1.370 . S
C873 C877 1.408 . S
C874 C872 1.363 . S
C874 C875 1.370 . S
C874 C878 1.524 . S
C875 C867 1.503 . S
C875 C874 1.370 . S
C875 C876 1.403 . S
C876 C875 1.403 . S
C876 C877 1.404 . S
C876 C879 1.539 . S
C877 C873 1.408 . S
C877 C876 1.404 . S
C877 H889 0.930 . S
C878 C874 1.524 . S
C878 H890 0.956 . S
C878 H891 0.961 . S
C878 H892 0.961 . S
C879 C876 1.539 . S
C879 H893 0.958 . S
C879 H894 0.961 . S
C879 H895 0.960 . S
H880 C864 0.931 . S
H881 C869 0.929 . S
H882 C870 0.960 . S
H883 C870 0.962 . S
H884 C870 0.960 . S
H885 C871 0.961 . S
H886 C871 0.961 . S
H887 C871 0.961 . S
H888 C872 0.931 . S
H889 C877 0.930 . S
H890 C878 0.956 . S
H891 C878 0.961 . S
H892 C878 0.961 . S
H893 C879 0.958 . S
H894 C879 0.961 . S
H895 C879 0.960 . S
C896 C897 1.391 . S
C896 C898 1.394 . S
C896 H912 0.931 . S
C897 C896 1.391 . S
C897 C901 1.376 . S
C898 C896 1.394 . S
C898 C899 1.369 . S
C898 C902 1.531 . S
C899 C898 1.369 . S
C899 C900 1.410 . S
C899 C907 1.503 . S
C900 C899 1.410 . S
C900 C901 1.392 . S
C900 C903 1.511 . S
C901 C897 1.376 . S
C901 C900 1.392 . S
C901 H913 0.929 . S
C902 C898 1.531 . S
C902 H914 0.960 . S
C902 H915 0.962 . S
C902 H916 0.960 . S
C903 C900 1.511 . S
C903 H917 0.961 . S
C903 H918 0.961 . S
C903 H919 0.961 . S
C904 C905 1.370 . S
C904 C906 1.363 . S
C904 H920 0.931 . S
C905 C904 1.370 . S
C905 C909 1.408 . S
C906 C904 1.363 . S
C906 C907 1.370 . S
C906 C910 1.524 . S
C907 C899 1.503 . S
C907 C906 1.370 . S
C907 C908 1.403 . S
C908 C907 1.403 . S
C908 C909 1.404 . S
C908 C911 1.539 . S
C909 C905 1.408 . S
C909 C908 1.404 . S
C909 H921 0.930 . S
C910 C906 1.524 . S
C910 H922 0.956 . S
C910 H923 0.961 . S
C910 H924 0.961 . S
C911 C908 1.539 . S
C911 H925 0.958 . S
C911 H926 0.961 . S
C911 H927 0.960 . S
H912 C896 0.931 . S
H913 C901 0.929 . S
H914 C902 0.960 . S
H915 C902 0.962 . S
H916 C902 0.960 . S
H917 C903 0.961 . S
H918 C903 0.961 . S
H919 C903 0.961 . S
H920 C904 0.931 . S
H921 C909 0.930 . S
H922 C910 0.956 . S
H923 C910 0.961 . S
H924 C910 0.961 . S
H925 C911 0.958 . S
H926 C911 0.961 . S
H927 C911 0.960 . S
C928 C929 1.391 . S
C928 C930 1.394 . S
C928 H944 0.931 . S
C929 C928 1.391 . S
C929 C933 1.376 . S
C930 C928 1.394 . S
C930 C931 1.369 . S
C930 C934 1.531 . S
C931 C930 1.369 . S
C931 C932 1.410 . S
C931 C939 1.503 . S
C932 C931 1.410 . S
C932 C933 1.392 . S
C932 C935 1.511 . S
C933 C929 1.376 . S
C933 C932 1.392 . S
C933 H945 0.929 . S
C934 C930 1.531 . S
C934 H946 0.960 . S
C934 H947 0.962 . S
C934 H948 0.960 . S
C935 C932 1.511 . S
C935 H949 0.961 . S
C935 H950 0.961 . S
C935 H951 0.961 . S
C936 C937 1.370 . S
C936 C938 1.363 . S
C936 H952 0.931 . S
C937 C936 1.370 . S
C937 C941 1.408 . S
C938 C936 1.363 . S
C938 C939 1.370 . S
C938 C942 1.524 . S
C939 C931 1.503 . S
C939 C938 1.370 . S
C939 C940 1.403 . S
C940 C939 1.403 . S
C940 C941 1.404 . S
C940 C943 1.539 . S
C941 C937 1.408 . S
C941 C940 1.404 . S
C941 H953 0.930 . S
C942 C938 1.524 . S
C942 H954 0.956 . S
C942 H955 0.961 . S
C942 H956 0.961 . S
C943 C940 1.539 . S
C943 H957 0.958 . S
C943 H958 0.961 . S
C943 H959 0.960 . S
H944 C928 0.931 . S
H945 C933 0.929 . S
H946 C934 0.960 . S
H947 C934 0.962 . S
H948 C934 0.960 . S
H949 C935 0.961 . S
H950 C935 0.961 . S
H951 C935 0.961 . S
H952 C936 0.931 . S
H953 C941 0.930 . S
H954 C942 0.956 . S
H955 C942 0.961 . S
H956 C942 0.961 . S
H957 C943 0.958 . S
H958 C943 0.961 . S
H959 C943 0.960 . S
C960 C961 1.391 . S
C960 C962 1.394 . S
C960 H976 0.931 . S
C961 C960 1.391 . S
C961 C965 1.376 . S
C962 C960 1.394 . S
C962 C963 1.369 . S
C962 C966 1.531 . S
C963 C962 1.369 . S
C963 C964 1.410 . S
C963 C971 1.503 1_554 S
C964 C963 1.410 . S
C964 C965 1.392 . S
C964 C967 1.511 . S
C965 C961 1.376 . S
C965 C964 1.392 . S
C965 H977 0.929 . S
C966 C962 1.531 . S
C966 H978 0.960 1_554 S
C966 H979 0.962 . S
C966 H980 0.960 . S
C967 C964 1.511 . S
C967 H981 0.961 . S
C967 H982 0.961 1_554 S
C967 H983 0.961 . S
C968 C969 1.370 . S
C968 C970 1.363 . S
C968 H984 0.931 . S
C969 C968 1.370 . S
C969 C973 1.408 . S
C970 C968 1.363 . S
C970 C971 1.370 . S
C970 C974 1.524 . S
C971 C963 1.503 1_556 S
C971 C970 1.370 . S
C971 C972 1.403 . S
C972 C971 1.403 . S
C972 C973 1.404 . S
C972 C975 1.539 . S
C973 C969 1.408 . S
C973 C972 1.404 . S
C973 H985 0.930 . S
C974 C970 1.524 . S
C974 H986 0.956 . S
C974 H987 0.961 1_556 S
C974 H988 0.961 . S
C975 C972 1.539 . S
C975 H989 0.958 . S
C975 H990 0.961 . S
C975 H991 0.971 . S
H976 C960 0.931 . S
H977 C965 0.929 . S
H978 C966 0.960 1_556 S
H979 C966 0.962 . S
H980 C966 0.960 . S
H981 C967 0.961 . S
H982 C967 0.961 1_556 S
H983 C967 0.961 . S
H984 C968 0.931 . S
H985 C973 0.930 . S
H986 C974 0.956 . S
H987 C974 0.961 1_554 S
H988 C974 0.961 . S
H989 C975 0.958 . S
H990 C975 0.961 . S
H991 C975 0.971 . S
C992 C993 1.391 . S
C992 C994 1.394 . S
C992 H1008 0.931 . S
C993 C992 1.391 . S
C993 C997 1.376 . S
C994 C992 1.394 . S
C994 C995 1.369 . S
C994 C998 1.531 . S
C995 C994 1.369 . S
C995 C996 1.410 . S
C995 C1003 1.503 1_556 S
C996 C995 1.410 . S
C996 C997 1.392 . S
C996 C999 1.511 . S
C997 C993 1.376 . S
C997 C996 1.392 . S
C997 H1009 0.929 . S
C998 C994 1.531 . S
C998 H1010 0.960 1_556 S
C998 H1011 0.962 . S
C998 H1012 0.960 . S
C999 C996 1.511 . S
C999 H1013 0.961 . S
C999 H1014 0.961 1_556 S
C999 H1015 0.961 . S
C1000 C1001 1.370 . S
C1000 C1002 1.363 . S
C1000 H1016 0.931 . S
C1001 C1000 1.370 . S
C1001 C1005 1.408 . S
C1002 C1000 1.363 . S
C1002 C1003 1.370 . S
C1002 C1006 1.524 . S
C1003 C995 1.503 1_554 S
C1003 C1002 1.370 . S
C1003 C1004 1.403 . S
C1004 C1003 1.403 . S
C1004 C1005 1.404 . S
C1004 C1007 1.539 . S
C1005 C1001 1.408 . S
C1005 C1004 1.404 . S
C1005 H1017 0.930 . S
C1006 C1002 1.524 . S
C1006 H1018 0.956 . S
C1006 H1019 0.961 1_554 S
C1006 H1020 0.961 . S
C1007 C1004 1.539 . S
C1007 H1021 0.958 . S
C1007 H1022 0.961 . S
C1007 H1023 0.971 . S
H1008 C992 0.931 . S
H1009 C997 0.929 . S
H1010 C998 0.960 1_554 S
H1011 C998 0.962 . S
H1012 C998 0.960 . S
H1013 C999 0.961 . S
H1014 C999 0.961 1_554 S
H1015 C999 0.961 . S
H1016 C1000 0.931 . S
H1017 C1005 0.930 . S
H1018 C1006 0.956 . S
H1019 C1006 0.961 1_556 S
H1020 C1006 0.961 . S
H1021 C1007 0.958 . S
H1022 C1007 0.961 . S
H1023 C1007 0.971 . S
C1024 C1025 1.391 . S
C1024 C1026 1.394 . S
C1024 H1040 0.931 . S
C1025 C1024 1.391 . S
C1025 C1029 1.376 . S
C1026 C1024 1.394 . S
C1026 C1027 1.369 . S
C1026 C1030 1.531 . S
C1027 C1026 1.369 . S
C1027 C1028 1.410 . S
C1027 C1035 1.503 1_556 S
C1028 C1027 1.410 . S
C1028 C1029 1.392 . S
C1028 C1031 1.511 . S
C1029 C1025 1.376 . S
C1029 C1028 1.392 . S
C1029 H1041 0.929 . S
C1030 C1026 1.531 . S
C1030 H1042 0.960 1_556 S
C1030 H1043 0.962 . S
C1030 H1044 0.960 . S
C1031 C1028 1.511 . S
C1031 H1045 0.961 . S
C1031 H1046 0.961 1_556 S
C1031 H1047 0.961 . S
C1032 C1033 1.370 . S
C1032 C1034 1.363 . S
C1032 H1048 0.931 . S
C1033 C1032 1.370 . S
C1033 C1037 1.408 . S
C1034 C1032 1.363 . S
C1034 C1035 1.370 . S
C1034 C1038 1.524 . S
C1035 C1027 1.503 1_554 S
C1035 C1034 1.370 . S
C1035 C1036 1.403 . S
C1036 C1035 1.403 . S
C1036 C1037 1.404 . S
C1036 C1039 1.539 . S
C1037 C1033 1.408 . S
C1037 C1036 1.404 . S
C1037 H1049 0.930 . S
C1038 C1034 1.524 . S
C1038 H1050 0.956 . S
C1038 H1051 0.961 1_554 S
C1038 H1052 0.961 . S
C1039 C1036 1.539 . S
C1039 H1053 0.958 . S
C1039 H1054 0.961 . S
C1039 H1055 0.971 . S
H1040 C1024 0.931 . S
H1041 C1029 0.929 . S
H1042 C1030 0.960 1_554 S
H1043 C1030 0.962 . S
H1044 C1030 0.960 . S
H1045 C1031 0.961 . S
H1046 C1031 0.961 1_554 S
H1047 C1031 0.961 . S
H1048 C1032 0.931 . S
H1049 C1037 0.930 . S
H1050 C1038 0.956 . S
H1051 C1038 0.961 1_556 S
H1052 C1038 0.961 . S
H1053 C1039 0.958 . S
H1054 C1039 0.961 . S
H1055 C1039 0.971 . S
C1056 C1057 1.391 . S
C1056 C1058 1.394 . S
C1056 H1072 0.931 . S
C1057 C1056 1.391 . S
C1057 C1061 1.376 . S
C1058 C1056 1.394 . S
C1058 C1059 1.369 . S
C1058 C1062 1.531 . S
C1059 C1058 1.369 . S
C1059 C1060 1.410 . S
C1059 C1067 1.503 1_556 S
C1060 C1059 1.410 . S
C1060 C1061 1.392 . S
C1060 C1063 1.511 . S
C1061 C1057 1.376 . S
C1061 C1060 1.392 . S
C1061 H1073 0.929 . S
C1062 C1058 1.531 . S
C1062 H1074 0.960 1_556 S
C1062 H1075 0.962 . S
C1062 H1076 0.960 . S
C1063 C1060 1.511 . S
C1063 H1077 0.961 . S
C1063 H1078 0.961 1_556 S
C1063 H1079 0.961 . S
C1064 C1065 1.370 . S
C1064 C1066 1.363 . S
C1064 H1080 0.931 . S
C1065 C1064 1.370 . S
C1065 C1069 1.408 . S
C1066 C1064 1.363 . S
C1066 C1067 1.370 . S
C1066 C1070 1.524 . S
C1067 C1059 1.503 1_554 S
C1067 C1066 1.370 . S
C1067 C1068 1.403 . S
C1068 C1067 1.403 . S
C1068 C1069 1.404 . S
C1068 C1071 1.539 . S
C1069 C1065 1.408 . S
C1069 C1068 1.404 . S
C1069 H1081 0.930 . S
C1070 C1066 1.524 . S
C1070 H1082 0.956 . S
C1070 H1083 0.961 1_554 S
C1070 H1084 0.961 . S
C1071 C1068 1.539 . S
C1071 H1085 0.958 . S
C1071 H1086 0.961 . S
C1071 H1087 0.971 . S
H1072 C1056 0.931 . S
H1073 C1061 0.929 . S
H1074 C1062 0.960 1_554 S
H1075 C1062 0.962 . S
H1076 C1062 0.960 . S
H1077 C1063 0.961 . S
H1078 C1063 0.961 1_554 S
H1079 C1063 0.961 . S
H1080 C1064 0.931 . S
H1081 C1069 0.930 . S
H1082 C1070 0.956 . S
H1083 C1070 0.961 1_556 S
H1084 C1070 0.961 . S
H1085 C1071 0.958 . S
H1086 C1071 0.961 . S
H1087 C1071 0.971 . S
C1088 C1089 1.391 . S
C1088 C1090 1.394 . S
C1088 H1104 0.931 . S
C1089 C1088 1.391 . S
C1089 C1093 1.376 . S
C1090 C1088 1.394 . S
C1090 C1091 1.369 . S
C1090 C1094 1.531 . S
C1091 C1090 1.369 . S
C1091 C1092 1.410 . S
C1091 C1099 1.503 . S
C1092 C1091 1.410 . S
C1092 C1093 1.392 . S
C1092 C1095 1.511 . S
C1093 C1089 1.376 . S
C1093 C1092 1.392 . S
C1093 H1105 0.929 . S
C1094 C1090 1.531 . S
C1094 H1106 0.960 . S
C1094 H1107 0.962 . S
C1094 H1108 0.960 . S
C1095 C1092 1.511 . S
C1095 H1109 0.961 . S
C1095 H1110 0.961 . S
C1095 H1111 0.961 . S
C1096 C1097 1.370 . S
C1096 C1098 1.363 . S
C1096 H1112 0.931 . S
C1097 C1096 1.370 . S
C1097 C1101 1.408 . S
C1098 C1096 1.363 . S
C1098 C1099 1.370 . S
C1098 C1102 1.524 . S
C1099 C1091 1.503 . S
C1099 C1098 1.370 . S
C1099 C1100 1.403 . S
C1100 C1099 1.403 . S
C1100 C1101 1.404 . S
C1100 C1103 1.539 . S
C1101 C1097 1.408 . S
C1101 C1100 1.404 . S
C1101 H1113 0.930 . S
C1102 C1098 1.524 . S
C1102 H1114 0.956 . S
C1102 H1115 0.961 . S
C1102 H1116 0.961 . S
C1103 C1100 1.539 . S
C1103 H1117 0.958 . S
C1103 H1118 0.961 . S
C1103 H1119 0.960 . S
H1104 C1088 0.931 . S
H1105 C1093 0.929 . S
H1106 C1094 0.960 . S
H1107 C1094 0.962 . S
H1108 C1094 0.960 . S
H1109 C1095 0.961 . S
H1110 C1095 0.961 . S
H1111 C1095 0.961 . S
H1112 C1096 0.931 . S
H1113 C1101 0.930 . S
H1114 C1102 0.956 . S
H1115 C1102 0.961 . S
H1116 C1102 0.961 . S
H1117 C1103 0.958 . S
H1118 C1103 0.961 . S
H1119 C1103 0.960 . S
C1120 C1121 1.391 . S
C1120 C1122 1.394 . S
C1120 H1136 0.931 . S
C1121 C1120 1.391 . S
C1121 C1125 1.376 . S
C1122 C1120 1.394 . S
C1122 C1123 1.369 . S
C1122 C1126 1.531 . S
C1123 C1122 1.369 . S
C1123 C1124 1.410 . S
C1123 C1131 1.503 . S
C1124 C1123 1.410 . S
C1124 C1125 1.392 . S
C1124 C1127 1.511 . S
C1125 C1121 1.376 . S
C1125 C1124 1.392 . S
C1125 H1137 0.929 . S
C1126 C1122 1.531 . S
C1126 H1138 0.960 . S
C1126 H1139 0.962 . S
C1126 H1140 0.960 . S
C1127 C1124 1.511 . S
C1127 H1141 0.961 . S
C1127 H1142 0.961 . S
C1127 H1143 0.961 . S
C1128 C1129 1.370 . S
C1128 C1130 1.363 . S
C1128 H1144 0.931 . S
C1129 C1128 1.370 . S
C1129 C1133 1.408 . S
C1130 C1128 1.363 . S
C1130 C1131 1.370 . S
C1130 C1134 1.524 . S
C1131 C1123 1.503 . S
C1131 C1130 1.370 . S
C1131 C1132 1.403 . S
C1132 C1131 1.403 . S
C1132 C1133 1.404 . S
C1132 C1135 1.539 . S
C1133 C1129 1.408 . S
C1133 C1132 1.404 . S
C1133 H1145 0.930 . S
C1134 C1130 1.524 . S
C1134 H1146 0.956 . S
C1134 H1147 0.961 . S
C1134 H1148 0.961 . S
C1135 C1132 1.539 . S
C1135 H1149 0.958 . S
C1135 H1150 0.961 . S
C1135 H1151 0.960 . S
H1136 C1120 0.931 . S
H1137 C1125 0.929 . S
H1138 C1126 0.960 . S
H1139 C1126 0.962 . S
H1140 C1126 0.960 . S
H1141 C1127 0.961 . S
H1142 C1127 0.961 . S
H1143 C1127 0.961 . S
H1144 C1128 0.931 . S
H1145 C1133 0.930 . S
H1146 C1134 0.956 . S
H1147 C1134 0.961 . S
H1148 C1134 0.961 . S
H1149 C1135 0.958 . S
H1150 C1135 0.961 . S
H1151 C1135 0.960 . S
C1152 C1153 1.391 . S
C1152 C1154 1.394 . S
C1152 H1168 0.931 . S
C1153 C1152 1.391 . S
C1153 C1157 1.376 . S
C1154 C1152 1.394 . S
C1154 C1155 1.369 . S
C1154 C1158 1.531 . S
C1155 C1154 1.369 . S
C1155 C1156 1.410 . S
C1155 C1163 1.503 . S
C1156 C1155 1.410 . S
C1156 C1157 1.392 . S
C1156 C1159 1.511 . S
C1157 C1153 1.376 . S
C1157 C1156 1.392 . S
C1157 H1169 0.929 . S
C1158 C1154 1.531 . S
C1158 H1170 0.960 . S
C1158 H1171 0.962 . S
C1158 H1172 0.960 . S
C1159 C1156 1.511 . S
C1159 H1173 0.961 . S
C1159 H1174 0.961 . S
C1159 H1175 0.961 . S
C1160 C1161 1.370 . S
C1160 C1162 1.363 . S
C1160 H1176 0.931 . S
C1161 C1160 1.370 . S
C1161 C1165 1.408 . S
C1162 C1160 1.363 . S
C1162 C1163 1.370 . S
C1162 C1166 1.524 . S
C1163 C1155 1.503 . S
C1163 C1162 1.370 . S
C1163 C1164 1.403 . S
C1164 C1163 1.403 . S
C1164 C1165 1.404 . S
C1164 C1167 1.539 . S
C1165 C1161 1.408 . S
C1165 C1164 1.404 . S
C1165 H1177 0.930 . S
C1166 C1162 1.524 . S
C1166 H1178 0.956 . S
C1166 H1179 0.961 . S
C1166 H1180 0.961 . S
C1167 C1164 1.539 . S
C1167 H1181 0.958 . S
C1167 H1182 0.961 . S
C1167 H1183 0.960 . S
H1168 C1152 0.931 . S
H1169 C1157 0.929 . S
H1170 C1158 0.960 . S
H1171 C1158 0.962 . S
H1172 C1158 0.960 . S
H1173 C1159 0.961 . S
H1174 C1159 0.961 . S
H1175 C1159 0.961 . S
H1176 C1160 0.931 . S
H1177 C1165 0.930 . S
H1178 C1166 0.956 . S
H1179 C1166 0.961 . S
H1180 C1166 0.961 . S
H1181 C1167 0.958 . S
H1182 C1167 0.961 . S
H1183 C1167 0.960 . S
C1184 C1185 1.391 . S
C1184 C1186 1.394 . S
C1184 H1200 0.931 . S
C1185 C1184 1.391 . S
C1185 C1189 1.376 . S
C1186 C1184 1.394 . S
C1186 C1187 1.369 . S
C1186 C1190 1.531 . S
C1187 C1186 1.369 . S
C1187 C1188 1.410 . S
C1187 C1195 1.503 . S
C1188 C1187 1.410 . S
C1188 C1189 1.392 . S
C1188 C1191 1.511 . S
C1189 C1185 1.376 . S
C1189 C1188 1.392 . S
C1189 H1201 0.929 . S
C1190 C1186 1.531 . S
C1190 H1202 0.960 . S
C1190 H1203 0.962 . S
C1190 H1204 0.960 . S
C1191 C1188 1.511 . S
C1191 H1205 0.961 . S
C1191 H1206 0.961 . S
C1191 H1207 0.961 . S
C1192 C1193 1.370 . S
C1192 C1194 1.363 . S
C1192 H1208 0.931 . S
C1193 C1192 1.370 . S
C1193 C1197 1.408 . S
C1194 C1192 1.363 . S
C1194 C1195 1.370 . S
C1194 C1198 1.524 . S
C1195 C1187 1.503 . S
C1195 C1194 1.370 . S
C1195 C1196 1.403 . S
C1196 C1195 1.403 . S
C1196 C1197 1.404 . S
C1196 C1199 1.539 . S
C1197 C1193 1.408 . S
C1197 C1196 1.404 . S
C1197 H1209 0.930 . S
C1198 C1194 1.524 . S
C1198 H1210 0.956 . S
C1198 H1211 0.961 . S
C1198 H1212 0.961 . S
C1199 C1196 1.539 . S
C1199 H1213 0.958 . S
C1199 H1214 0.961 . S
C1199 H1215 0.960 . S
H1200 C1184 0.931 . S
H1201 C1189 0.929 . S
H1202 C1190 0.960 . S
H1203 C1190 0.962 . S
H1204 C1190 0.960 . S
H1205 C1191 0.961 . S
H1206 C1191 0.961 . S
H1207 C1191 0.961 . S
H1208 C1192 0.931 . S
H1209 C1197 0.930 . S
H1210 C1198 0.956 . S
H1211 C1198 0.961 . S
H1212 C1198 0.961 . S
H1213 C1199 0.958 . S
H1214 C1199 0.961 . S
H1215 C1199 0.960 . S
C1216 C1217 1.391 . S
C1216 C1218 1.394 . S
C1216 H1232 0.931 . S
C1217 C1216 1.391 . S
C1217 C1221 1.376 . S
C1218 C1216 1.394 . S
C1218 C1219 1.369 . S
C1218 C1222 1.531 . S
C1219 C1218 1.369 . S
C1219 C1220 1.410 . S
C1219 C1227 1.503 . S
C1220 C1219 1.410 . S
C1220 C1221 1.392 . S
C1220 C1223 1.511 . S
C1221 C1217 1.376 . S
C1221 C1220 1.392 . S
C1221 H1233 0.929 . S
C1222 C1218 1.531 . S
C1222 H1234 0.960 . S
C1222 H1235 0.962 . S
C1222 H1236 0.960 . S
C1223 C1220 1.511 . S
C1223 H1237 0.961 . S
C1223 H1238 0.961 . S
C1223 H1239 0.961 . S
C1224 C1225 1.370 . S
C1224 C1226 1.363 . S
C1224 H1240 0.931 . S
C1225 C1224 1.370 . S
C1225 C1229 1.408 . S
C1226 C1224 1.363 . S
C1226 C1227 1.370 . S
C1226 C1230 1.524 . S
C1227 C1219 1.503 . S
C1227 C1226 1.370 . S
C1227 C1228 1.403 . S
C1228 C1227 1.403 . S
C1228 C1229 1.404 . S
C1228 C1231 1.539 . S
C1229 C1225 1.408 . S
C1229 C1228 1.404 . S
C1229 H1241 0.930 . S
C1230 C1226 1.524 . S
C1230 H1242 0.956 . S
C1230 H1243 0.961 . S
C1230 H1244 0.961 . S
C1231 C1228 1.539 . S
C1231 H1245 0.958 . S
C1231 H1246 0.961 . S
C1231 H1247 0.960 . S
H1232 C1216 0.931 . S
H1233 C1221 0.929 . S
H1234 C1222 0.960 . S
H1235 C1222 0.962 . S
H1236 C1222 0.960 . S
H1237 C1223 0.961 . S
H1238 C1223 0.961 . S
H1239 C1223 0.961 . S
H1240 C1224 0.931 . S
H1241 C1229 0.930 . S
H1242 C1230 0.956 . S
H1243 C1230 0.961 . S
H1244 C1230 0.961 . S
H1245 C1231 0.958 . S
H1246 C1231 0.961 . S
H1247 C1231 0.960 . S
C1248 C1249 1.391 . S
C1248 C1250 1.394 . S
C1248 H1264 0.931 . S
C1249 C1248 1.391 . S
C1249 C1253 1.376 . S
C1250 C1248 1.394 . S
C1250 C1251 1.369 . S
C1250 C1254 1.531 . S
C1251 C1250 1.369 . S
C1251 C1252 1.410 . S
C1251 C1259 1.503 . S
C1252 C1251 1.410 . S
C1252 C1253 1.392 . S
C1252 C1255 1.511 . S
C1253 C1249 1.376 . S
C1253 C1252 1.392 . S
C1253 H1265 0.929 . S
C1254 C1250 1.531 . S
C1254 H1266 0.960 . S
C1254 H1267 0.962 . S
C1254 H1268 0.960 . S
C1255 C1252 1.511 . S
C1255 H1269 0.961 . S
C1255 H1270 0.961 . S
C1255 H1271 0.961 . S
C1256 C1257 1.370 . S
C1256 C1258 1.363 . S
C1256 H1272 0.931 . S
C1257 C1256 1.370 . S
C1257 C1261 1.408 . S
C1258 C1256 1.363 . S
C1258 C1259 1.370 . S
C1258 C1262 1.524 . S
C1259 C1251 1.503 . S
C1259 C1258 1.370 . S
C1259 C1260 1.403 . S
C1260 C1259 1.403 . S
C1260 C1261 1.404 . S
C1260 C1263 1.539 . S
C1261 C1257 1.408 . S
C1261 C1260 1.404 . S
C1261 H1273 0.930 . S
C1262 C1258 1.524 . S
C1262 H1274 0.956 . S
C1262 H1275 0.961 . S
C1262 H1276 0.961 . S
C1263 C1260 1.539 . S
C1263 H1277 0.958 . S
C1263 H1278 0.961 . S
C1263 H1279 0.960 . S
H1264 C1248 0.931 . S
H1265 C1253 0.929 . S
H1266 C1254 0.960 . S
H1267 C1254 0.962 . S
H1268 C1254 0.960 . S
H1269 C1255 0.961 . S
H1270 C1255 0.961 . S
H1271 C1255 0.961 . S
H1272 C1256 0.931 . S
H1273 C1261 0.930 . S
H1274 C1262 0.956 . S
H1275 C1262 0.961 . S
H1276 C1262 0.961 . S
H1277 C1263 0.958 . S
H1278 C1263 0.961 . S
H1279 C1263 0.960 . S
C1280 C1281 1.391 . S
C1280 C1282 1.394 . S
C1280 H1296 0.931 . S
C1281 C1280 1.391 . S
C1281 C1285 1.376 . S
C1282 C1280 1.394 . S
C1282 C1283 1.369 . S
C1282 C1286 1.531 . S
C1283 C1282 1.369 . S
C1283 C1284 1.410 . S
C1283 C1291 1.503 . S
C1284 C1283 1.410 . S
C1284 C1285 1.392 . S
C1284 C1287 1.511 . S
C1285 C1281 1.376 . S
C1285 C1284 1.392 . S
C1285 H1297 0.929 . S
C1286 C1282 1.531 . S
C1286 H1298 0.960 . S
C1286 H1299 0.962 . S
C1286 H1300 0.960 . S
C1287 C1284 1.511 . S
C1287 H1301 0.961 . S
C1287 H1302 0.961 . S
C1287 H1303 0.961 . S
C1288 C1289 1.370 . S
C1288 C1290 1.363 . S
C1288 H1304 0.931 . S
C1289 C1288 1.370 . S
C1289 C1293 1.408 . S
C1290 C1288 1.363 . S
C1290 C1291 1.370 . S
C1290 C1294 1.524 . S
C1291 C1283 1.503 . S
C1291 C1290 1.370 . S
C1291 C1292 1.403 . S
C1292 C1291 1.403 . S
C1292 C1293 1.404 . S
C1292 C1295 1.539 . S
C1293 C1289 1.408 . S
C1293 C1292 1.404 . S
C1293 H1305 0.930 . S
C1294 C1290 1.524 . S
C1294 H1306 0.956 . S
C1294 H1307 0.961 . S
C1294 H1308 0.961 . S
C1295 C1292 1.539 . S
C1295 H1309 0.958 . S
C1295 H1310 0.961 . S
C1295 H1311 0.960 . S
H1296 C1280 0.931 . S
H1297 C1285 0.929 . S
H1298 C1286 0.960 . S
H1299 C1286 0.962 . S
H1300 C1286 0.960 . S
H1301 C1287 0.961 . S
H1302 C1287 0.961 . S
H1303 C1287 0.961 . S
H1304 C1288 0.931 . S
H1305 C1293 0.930 . S
H1306 C1294 0.956 . S
H1307 C1294 0.961 . S
H1308 C1294 0.961 . S
H1309 C1295 0.958 . S
H1310 C1295 0.961 . S
H1311 C1295 0.960 . S
C1312 C1313 1.391 . S
C1312 C1314 1.394 . S
C1312 H1328 0.931 . S
C1313 C1312 1.391 . S
C1313 C1317 1.376 . S
C1314 C1312 1.394 . S
C1314 C1315 1.369 . S
C1314 C1318 1.531 . S
C1315 C1314 1.369 . S
C1315 C1316 1.410 . S
C1315 C1323 1.503 . S
C1316 C1315 1.410 . S
C1316 C1317 1.392 . S
C1316 C1319 1.511 . S
C1317 C1313 1.376 . S
C1317 C1316 1.392 . S
C1317 H1329 0.929 . S
C1318 C1314 1.531 . S
C1318 H1330 0.960 . S
C1318 H1331 0.962 . S
C1318 H1332 0.960 . S
C1319 C1316 1.511 . S
C1319 H1333 0.961 . S
C1319 H1334 0.961 . S
C1319 H1335 0.961 . S
C1320 C1321 1.370 . S
C1320 C1322 1.363 . S
C1320 H1336 0.931 . S
C1321 C1320 1.370 . S
C1321 C1325 1.408 . S
C1322 C1320 1.363 . S
C1322 C1323 1.370 . S
C1322 C1326 1.524 . S
C1323 C1315 1.503 . S
C1323 C1322 1.370 . S
C1323 C1324 1.403 . S
C1324 C1323 1.403 . S
C1324 C1325 1.404 . S
C1324 C1327 1.539 . S
C1325 C1321 1.408 . S
C1325 C1324 1.404 . S
C1325 H1337 0.930 . S
C1326 C1322 1.524 . S
C1326 H1338 0.956 . S
C1326 H1339 0.961 . S
C1326 H1340 0.961 . S
C1327 C1324 1.539 . S
C1327 H1341 0.958 . S
C1327 H1342 0.961 . S
C1327 H1343 0.960 . S
H1328 C1312 0.931 . S
H1329 C1317 0.929 . S
H1330 C1318 0.960 . S
H1331 C1318 0.962 . S
H1332 C1318 0.960 . S
H1333 C1319 0.961 . S
H1334 C1319 0.961 . S
H1335 C1319 0.961 . S
H1336 C1320 0.931 . S
H1337 C1325 0.930 . S
H1338 C1326 0.956 . S
H1339 C1326 0.961 . S
H1340 C1326 0.961 . S
H1341 C1327 0.958 . S
H1342 C1327 0.961 . S
H1343 C1327 0.960 . S
C1344 C1345 1.391 . S
C1344 C1346 1.394 . S
C1344 H1360 0.931 . S
C1345 C1344 1.391 . S
C1345 C1349 1.376 . S
C1346 C1344 1.394 . S
C1346 C1347 1.369 . S
C1346 C1350 1.531 . S
C1347 C1346 1.369 . S
C1347 C1348 1.410 . S
C1347 C1355 1.503 1_556 S
C1348 C1347 1.410 . S
C1348 C1349 1.392 . S
C1348 C1351 1.511 . S
C1349 C1345 1.376 . S
C1349 C1348 1.392 . S
C1349 H1361 0.929 . S
C1350 C1346 1.531 . S
C1350 H1362 0.960 1_556 S
C1350 H1363 0.962 . S
C1350 H1364 0.960 . S
C1351 C1348 1.511 . S
C1351 H1365 0.961 . S
C1351 H1366 0.961 1_556 S
C1351 H1367 0.961 . S
C1352 C1353 1.370 . S
C1352 C1354 1.363 . S
C1352 H1368 0.931 . S
C1353 C1352 1.370 . S
C1353 C1357 1.408 . S
C1354 C1352 1.363 . S
C1354 C1355 1.370 . S
C1354 C1358 1.524 . S
C1355 C1347 1.503 1_554 S
C1355 C1354 1.370 . S
C1355 C1356 1.403 . S
C1356 C1355 1.403 . S
C1356 C1357 1.404 . S
C1356 C1359 1.539 . S
C1357 C1353 1.408 . S
C1357 C1356 1.404 . S
C1357 H1369 0.930 . S
C1358 C1354 1.524 . S
C1358 H1370 0.956 . S
C1358 H1371 0.961 1_554 S
C1358 H1372 0.961 . S
C1359 C1356 1.539 . S
C1359 H1373 0.958 . S
C1359 H1374 0.961 . S
C1359 H1375 0.971 . S
H1360 C1344 0.931 . S
H1361 C1349 0.929 . S
H1362 C1350 0.960 1_554 S
H1363 C1350 0.962 . S
H1364 C1350 0.960 . S
H1365 C1351 0.961 . S
H1366 C1351 0.961 1_554 S
H1367 C1351 0.961 . S
H1368 C1352 0.931 . S
H1369 C1357 0.930 . S
H1370 C1358 0.956 . S
H1371 C1358 0.961 1_556 S
H1372 C1358 0.961 . S
H1373 C1359 0.958 . S
H1374 C1359 0.961 . S
H1375 C1359 0.971 . S
C1376 C1377 1.391 . S
C1376 C1378 1.394 . S
C1376 H1392 0.931 . S
C1377 C1376 1.391 . S
C1377 C1381 1.376 . S
C1378 C1376 1.394 . S
C1378 C1379 1.369 . S
C1378 C1382 1.531 . S
C1379 C1378 1.369 . S
C1379 C1380 1.410 . S
C1379 C1387 1.503 1_554 S
C1380 C1379 1.410 . S
C1380 C1381 1.392 . S
C1380 C1383 1.511 . S
C1381 C1377 1.376 . S
C1381 C1380 1.392 . S
C1381 H1393 0.929 . S
C1382 C1378 1.531 . S
C1382 H1394 0.960 1_554 S
C1382 H1395 0.962 . S
C1382 H1396 0.960 . S
C1383 C1380 1.511 . S
C1383 H1397 0.961 . S
C1383 H1398 0.961 1_554 S
C1383 H1399 0.961 . S
C1384 C1385 1.370 . S
C1384 C1386 1.363 . S
C1384 H1400 0.931 . S
C1385 C1384 1.370 . S
C1385 C1389 1.408 . S
C1386 C1384 1.363 . S
C1386 C1387 1.370 . S
C1386 C1390 1.524 . S
C1387 C1379 1.503 1_556 S
C1387 C1386 1.370 . S
C1387 C1388 1.403 . S
C1388 C1387 1.403 . S
C1388 C1389 1.404 . S
C1388 C1391 1.539 . S
C1389 C1385 1.408 . S
C1389 C1388 1.404 . S
C1389 H1401 0.930 . S
C1390 C1386 1.524 . S
C1390 H1402 0.956 . S
C1390 H1403 0.961 1_556 S
C1390 H1404 0.961 . S
C1391 C1388 1.539 . S
C1391 H1405 0.958 . S
C1391 H1406 0.961 . S
C1391 H1407 0.971 . S
H1392 C1376 0.931 . S
H1393 C1381 0.929 . S
H1394 C1382 0.960 1_556 S
H1395 C1382 0.962 . S
H1396 C1382 0.960 . S
H1397 C1383 0.961 . S
H1398 C1383 0.961 1_556 S
H1399 C1383 0.961 . S
H1400 C1384 0.931 . S
H1401 C1389 0.930 . S
H1402 C1390 0.956 . S
H1403 C1390 0.961 1_554 S
H1404 C1390 0.961 . S
H1405 C1391 0.958 . S
H1406 C1391 0.961 . S
H1407 C1391 0.971 . S
C1408 C1409 1.391 . S
C1408 C1410 1.394 . S
C1408 H1424 0.931 . S
C1409 C1408 1.391 . S
C1409 C1413 1.376 . S
C1410 C1408 1.394 . S
C1410 C1411 1.369 . S
C1410 C1414 1.531 . S
C1411 C1410 1.369 . S
C1411 C1412 1.410 . S
C1411 C1419 1.503 1_554 S
C1412 C1411 1.410 . S
C1412 C1413 1.392 . S
C1412 C1415 1.511 . S
C1413 C1409 1.376 . S
C1413 C1412 1.392 . S
C1413 H1425 0.929 . S
C1414 C1410 1.531 . S
C1414 H1426 0.960 1_554 S
C1414 H1427 0.962 . S
C1414 H1428 0.960 . S
C1415 C1412 1.511 . S
C1415 H1429 0.961 . S
C1415 H1430 0.961 1_554 S
C1415 H1431 0.961 . S
C1416 C1417 1.370 . S
C1416 C1418 1.363 . S
C1416 H1432 0.931 . S
C1417 C1416 1.370 . S
C1417 C1421 1.408 . S
C1418 C1416 1.363 . S
C1418 C1419 1.370 . S
C1418 C1422 1.524 . S
C1419 C1411 1.503 1_556 S
C1419 C1418 1.370 . S
C1419 C1420 1.403 . S
C1420 C1419 1.403 . S
C1420 C1421 1.404 . S
C1420 C1423 1.539 . S
C1421 C1417 1.408 . S
C1421 C1420 1.404 . S
C1421 H1433 0.930 . S
C1422 C1418 1.524 . S
C1422 H1434 0.956 . S
C1422 H1435 0.961 1_556 S
C1422 H1436 0.961 . S
C1423 C1420 1.539 . S
C1423 H1437 0.958 . S
C1423 H1438 0.961 . S
C1423 H1439 0.971 . S
H1424 C1408 0.931 . S
H1425 C1413 0.929 . S
H1426 C1414 0.960 1_556 S
H1427 C1414 0.962 . S
H1428 C1414 0.960 . S
H1429 C1415 0.961 . S
H1430 C1415 0.961 1_556 S
H1431 C1415 0.961 . S
H1432 C1416 0.931 . S
H1433 C1421 0.930 . S
H1434 C1422 0.956 . S
H1435 C1422 0.961 1_554 S
H1436 C1422 0.961 . S
H1437 C1423 0.958 . S
H1438 C1423 0.961 . S
H1439 C1423 0.971 . S
C1440 C1441 1.391 . S
C1440 C1442 1.394 . S
C1440 H1456 0.931 . S
C1441 C1440 1.391 . S
C1441 C1445 1.376 . S
C1442 C1440 1.394 . S
C1442 C1443 1.369 . S
C1442 C1446 1.531 . S
C1443 C1442 1.369 . S
C1443 C1444 1.410 . S
C1443 C1451 1.503 1_556 S
C1444 C1443 1.410 . S
C1444 C1445 1.392 . S
C1444 C1447 1.511 . S
C1445 C1441 1.376 . S
C1445 C1444 1.392 . S
C1445 H1457 0.929 . S
C1446 C1442 1.531 . S
C1446 H1458 0.960 1_556 S
C1446 H1459 0.962 . S
C1446 H1460 0.960 . S
C1447 C1444 1.511 . S
C1447 H1461 0.961 . S
C1447 H1462 0.961 1_556 S
C1447 H1463 0.961 . S
C1448 C1449 1.370 . S
C1448 C1450 1.363 . S
C1448 H1464 0.931 . S
C1449 C1448 1.370 . S
C1449 C1453 1.408 . S
C1450 C1448 1.363 . S
C1450 C1451 1.370 . S
C1450 C1454 1.524 . S
C1451 C1443 1.503 1_554 S
C1451 C1450 1.370 . S
C1451 C1452 1.403 . S
C1452 C1451 1.403 . S
C1452 C1453 1.404 . S
C1452 C1455 1.539 . S
C1453 C1449 1.408 . S
C1453 C1452 1.404 . S
C1453 H1465 0.930 . S
C1454 C1450 1.524 . S
C1454 H1466 0.956 . S
C1454 H1467 0.961 1_554 S
C1454 H1468 0.961 . S
C1455 C1452 1.539 . S
C1455 H1469 0.958 . S
C1455 H1470 0.961 . S
C1455 H1471 0.971 . S
H1456 C1440 0.931 . S
H1457 C1445 0.929 . S
H1458 C1446 0.960 1_554 S
H1459 C1446 0.962 . S
H1460 C1446 0.960 . S
H1461 C1447 0.961 . S
H1462 C1447 0.961 1_554 S
H1463 C1447 0.961 . S
H1464 C1448 0.931 . S
H1465 C1453 0.930 . S
H1466 C1454 0.956 . S
H1467 C1454 0.961 1_556 S
H1468 C1454 0.961 . S
H1469 C1455 0.958 . S
H1470 C1455 0.961 . S
H1471 C1455 0.971 . S
C1472 C1473 1.391 . S
C1472 C1474 1.394 . S
C1472 H1488 0.931 . S
C1473 C1472 1.391 . S
C1473 C1477 1.376 . S
C1474 C1472 1.394 . S
C1474 C1475 1.369 . S
C1474 C1478 1.531 1_545 S
C1475 C1474 1.369 . S
C1475 C1476 1.410 . S
C1475 C1483 1.503 1_545 S
C1476 C1475 1.410 . S
C1476 C1477 1.392 . S
C1476 C1479 1.511 . S
C1477 C1473 1.376 . S
C1477 C1476 1.392 . S
C1477 H1489 0.929 . S
C1478 C1474 1.531 1_565 S
C1478 H1490 0.960 . S
C1478 H1491 0.962 1_565 S
C1478 H1492 0.964 . S
C1479 C1476 1.511 . S
C1479 H1493 0.961 . S
C1479 H1494 0.961 . S
C1479 H1495 0.961 . S
C1480 C1481 1.370 . S
C1480 C1482 1.363 . S
C1480 H1496 0.931 . S
C1481 C1480 1.370 . S
C1481 C1485 1.408 . S
C1482 C1480 1.363 . S
C1482 C1483 1.370 . S
C1482 C1486 1.524 1_565 S
C1483 C1475 1.503 1_565 S
C1483 C1482 1.370 . S
C1483 C1484 1.403 . S
C1484 C1483 1.403 . S
C1484 C1485 1.404 . S
C1484 C1487 1.539 . S
C1485 C1481 1.408 . S
C1485 C1484 1.404 . S
C1485 H1497 0.930 . S
C1486 C1482 1.524 1_545 S
C1486 H1498 0.956 . S
C1486 H1499 0.961 . S
C1486 H1500 0.961 . S
C1487 C1484 1.539 . S
C1487 H1501 0.958 . S
C1487 H1502 0.961 . S
C1487 H1503 0.960 . S
H1488 C1472 0.931 . S
H1489 C1477 0.929 . S
H1490 C1478 0.960 . S
H1491 C1478 0.962 1_545 S
H1492 C1478 0.964 . S
H1493 C1479 0.961 . S
H1494 C1479 0.961 . S
H1495 C1479 0.961 . S
H1496 C1480 0.931 . S
H1497 C1485 0.930 . S
H1498 C1486 0.956 . S
H1499 C1486 0.961 . S
H1500 C1486 0.961 . S
H1501 C1487 0.958 . S
H1502 C1487 0.961 . S
H1503 C1487 0.960 . S
C1504 C1505 1.391 . S
C1504 C1506 1.394 . S
C1504 H1520 0.931 . S
C1505 C1504 1.391 . S
C1505 C1509 1.376 . S
C1506 C1504 1.394 . S
C1506 C1507 1.369 . S
C1506 C1510 1.536 . S
C1507 C1506 1.369 . S
C1507 C1508 1.410 . S
C1507 C1515 1.503 1_655 S
C1508 C1507 1.410 . S
C1508 C1509 1.392 . S
C1508 C1511 1.511 . S
C1509 C1505 1.376 . S
C1509 C1508 1.392 . S
C1509 H1521 0.929 . S
C1510 C1506 1.536 . S
C1510 H1522 0.957 1_655 S
C1510 H1523 0.956 1_655 S
C1510 H1524 0.965 . S
C1511 C1508 1.511 . S
C1511 H1525 0.961 . S
C1511 H1526 0.961 . S
C1511 H1527 0.961 . S
C1512 C1513 1.370 . S
C1512 C1514 1.363 . S
C1512 H1528 0.931 . S
C1513 C1512 1.370 . S
C1513 C1517 1.408 . S
C1514 C1512 1.363 . S
C1514 C1515 1.370 . S
C1514 C1518 1.524 . S
C1515 C1507 1.503 1_455 S
C1515 C1514 1.370 . S
C1515 C1516 1.403 . S
C1516 C1515 1.403 . S
C1516 C1517 1.404 . S
C1516 C1519 1.539 1_455 S
C1517 C1513 1.408 . S
C1517 C1516 1.404 . S
C1517 H1529 0.930 . S
C1518 C1514 1.524 . S
C1518 H1530 0.956 . S
C1518 H1531 0.961 . S
C1518 H1532 0.961 . S
C1519 C1516 1.539 1_655 S
C1519 H1533 0.958 . S
C1519 H1534 0.961 . S
C1519 H1535 0.960 . S
H1520 C1504 0.931 . S
H1521 C1509 0.929 . S
H1522 C1510 0.957 1_455 S
H1523 C1510 0.956 1_455 S
H1524 C1510 0.965 . S
H1525 C1511 0.961 . S
H1526 C1511 0.961 . S
H1527 C1511 0.961 . S
H1528 C1512 0.931 . S
H1529 C1517 0.930 . S
H1530 C1518 0.956 . S
H1531 C1518 0.961 . S
H1532 C1518 0.961 . S
H1533 C1519 0.958 . S
H1534 C1519 0.961 . S
H1535 C1519 0.960 . S
C1536 C1537 1.391 . S
C1536 C1538 1.394 . S
C1536 H1552 0.931 . S
C1537 C1536 1.391 . S
C1537 C1541 1.376 . S
C1538 C1536 1.394 . S
C1538 C1539 1.369 . S
C1538 C1542 1.531 1_545 S
C1539 C1538 1.369 . S
C1539 C1540 1.410 . S
C1539 C1547 1.503 1_545 S
C1540 C1539 1.410 . S
C1540 C1541 1.392 . S
C1540 C1543 1.511 . S
C1541 C1537 1.376 . S
C1541 C1540 1.392 . S
C1541 H1553 0.929 . S
C1542 C1538 1.531 1_565 S
C1542 H1554 0.960 . S
C1542 H1555 0.962 . S
C1542 H1556 0.960 . S
C1543 C1540 1.511 . S
C1543 H1557 0.961 . S
C1543 H1558 0.961 . S
C1543 H1559 0.961 . S
C1544 C1545 1.370 . S
C1544 C1546 1.363 . S
C1544 H1560 0.931 . S
C1545 C1544 1.370 . S
C1545 C1549 1.408 . S
C1546 C1544 1.363 . S
C1546 C1547 1.370 . S
C1546 C1550 1.524 1_565 S
C1547 C1539 1.503 1_565 S
C1547 C1546 1.370 . S
C1547 C1548 1.403 . S
C1548 C1547 1.403 . S
C1548 C1549 1.404 . S
C1548 C1551 1.539 . S
C1549 C1545 1.408 . S
C1549 C1548 1.404 . S
C1549 H1561 0.930 . S
C1550 C1546 1.524 1_545 S
C1550 H1562 0.956 . S
C1550 H1563 0.961 . S
C1550 H1564 0.964 . S
C1551 C1548 1.539 . S
C1551 H1565 0.958 . S
C1551 H1566 0.961 . S
C1551 H1567 0.960 . S
H1552 C1536 0.931 . S
H1553 C1541 0.929 . S
H1554 C1542 0.960 . S
H1555 C1542 0.962 . S
H1556 C1542 0.960 . S
H1557 C1543 0.961 . S
H1558 C1543 0.961 . S
H1559 C1543 0.961 . S
H1560 C1544 0.931 . S
H1561 C1549 0.930 . S
H1562 C1550 0.956 . S
H1563 C1550 0.961 . S
H1564 C1550 0.964 . S
H1565 C1551 0.958 . S
H1566 C1551 0.961 . S
H1567 C1551 0.960 . S
C1568 C1569 1.391 . S
C1568 C1570 1.394 . S
C1568 H1584 0.931 . S
C1569 C1568 1.391 . S
C1569 C1573 1.376 . S
C1570 C1568 1.394 . S
C1570 C1571 1.369 . S
C1570 C1574 1.531 . S
C1571 C1570 1.369 . S
C1571 C1572 1.410 . S
C1571 C1579 1.503 1_455 S
C1572 C1571 1.410 . S
C1572 C1573 1.392 . S
C1572 C1575 1.517 . S
C1573 C1569 1.376 . S
C1573 C1572 1.392 . S
C1573 H1585 0.929 . S
C1574 C1570 1.531 . S
C1574 H1586 0.960 . S
C1574 H1587 0.962 . S
C1574 H1588 0.960 . S
C1575 C1572 1.517 . S
C1575 H1589 0.961 . S
C1575 H1590 0.953 1_455 S
C1575 H1591 0.963 . S
C1576 C1577 1.370 . S
C1576 C1578 1.363 . S
C1576 H1592 0.931 . S
C1577 C1576 1.370 . S
C1577 C1581 1.408 . S
C1578 C1576 1.363 . S
C1578 C1579 1.370 . S
C1578 C1582 1.524 . S
C1579 C1571 1.503 1_655 S
C1579 C1578 1.370 . S
C1579 C1580 1.403 . S
C1580 C1579 1.403 . S
C1580 C1581 1.404 . S
C1580 C1583 1.539 1_655 S
C1581 C1577 1.408 . S
C1581 C1580 1.404 . S
C1581 H1593 0.930 . S
C1582 C1578 1.524 . S
C1582 H1594 0.956 . S
C1582 H1595 0.961 . S
C1582 H1596 0.961 . S
C1583 C1580 1.539 1_455 S
C1583 H1597 0.958 . S
C1583 H1598 0.961 . S
C1583 H1599 0.960 . S
H1584 C1568 0.931 . S
H1585 C1573 0.929 . S
H1586 C1574 0.960 . S
H1587 C1574 0.962 . S
H1588 C1574 0.960 . S
H1589 C1575 0.961 . S
H1590 C1575 0.953 1_655 S
H1591 C1575 0.963 . S
H1592 C1576 0.931 . S
H1593 C1581 0.930 . S
H1594 C1582 0.956 . S
H1595 C1582 0.961 . S
H1596 C1582 0.961 . S
H1597 C1583 0.958 . S
H1598 C1583 0.961 . S
H1599 C1583 0.960 . S
C1600 C1601 1.391 . S
C1600 C1602 1.394 . S
C1600 H1616 0.931 . S
C1601 C1600 1.391 . S
C1601 C1605 1.376 . S
C1602 C1600 1.394 . S
C1602 C1603 1.369 . S
C1602 C1606 1.537 . S
C1603 C1602 1.369 . S
C1603 C1604 1.410 . S
C1603 C1611 1.503 1_565 S
C1604 C1603 1.410 . S
C1604 C1605 1.392 . S
C1604 C1607 1.511 . S
C1605 C1601 1.376 . S
C1605 C1604 1.392 . S
C1605 H1617 0.929 . S
C1606 C1602 1.537 . S
C1606 H1618 0.949 1_565 S
C1606 H1619 0.965 . S
C1606 H1620 0.962 . S
C1607 C1604 1.511 . S
C1607 H1621 0.961 . S
C1607 H1622 0.961 . S
C1607 H1623 0.961 . S
C1608 C1609 1.370 . S
C1608 C1610 1.363 . S
C1608 H1624 0.931 . S
C1609 C1608 1.370 . S
C1609 C1613 1.408 . S
C1610 C1608 1.363 . S
C1610 C1611 1.370 . S
C1610 C1614 1.524 1_545 S
C1611 C1603 1.503 1_545 S
C1611 C1610 1.370 . S
C1611 C1612 1.403 . S
C1612 C1611 1.403 . S
C1612 C1613 1.404 . S
C1612 C1615 1.539 . S
C1613 C1609 1.408 . S
C1613 C1612 1.404 . S
C1613 H1625 0.930 . S
C1614 C1610 1.524 1_565 S
C1614 H1626 0.956 . S
C1614 H1627 0.961 . S
C1614 H1628 0.961 . S
C1615 C1612 1.539 . S
C1615 H1629 0.958 . S
C1615 H1630 0.961 . S
C1615 H1631 0.960 . S
H1616 C1600 0.931 . S
H1617 C1605 0.929 . S
H1618 C1606 0.949 1_545 S
H1619 C1606 0.965 . S
H1620 C1606 0.962 . S
H1621 C1607 0.961 . S
H1622 C1607 0.961 . S
H1623 C1607 0.961 . S
H1624 C1608 0.931 . S
H1625 C1613 0.930 . S
H1626 C1614 0.956 . S
H1627 C1614 0.961 . S
H1628 C1614 0.961 . S
H1629 C1615 0.958 . S
H1630 C1615 0.961 . S
H1631 C1615 0.960 . S
C1632 C1633 1.391 . S
C1632 C1634 1.394 . S
C1632 H1648 0.931 . S
C1633 C1632 1.391 . S
C1633 C1637 1.376 . S
C1634 C1632 1.394 . S
C1634 C1635 1.369 . S
C1634 C1638 1.531 1_655 S
C1635 C1634 1.369 . S
C1635 C1636 1.410 . S
C1635 C1643 1.503 1_655 S
C1636 C1635 1.410 . S
C1636 C1637 1.392 . S
C1636 C1639 1.511 . S
C1637 C1633 1.376 . S
C1637 C1636 1.392 . S
C1637 H1649 0.929 . S
C1638 C1634 1.531 1_455 S
C1638 H1650 0.960 . S
C1638 H1651 0.962 . S
C1638 H1652 0.960 . S
C1639 C1636 1.511 . S
C1639 H1653 0.961 . S
C1639 H1654 0.961 . S
C1639 H1655 0.961 . S
C1640 C1641 1.370 . S
C1640 C1642 1.363 . S
C1640 H1656 0.931 . S
C1641 C1640 1.370 . S
C1641 C1645 1.408 . S
C1642 C1640 1.363 . S
C1642 C1643 1.370 . S
C1642 C1646 1.524 . S
C1643 C1635 1.503 1_455 S
C1643 C1642 1.370 . S
C1643 C1644 1.403 . S
C1644 C1643 1.403 . S
C1644 C1645 1.404 . S
C1644 C1647 1.539 . S
C1645 C1641 1.408 . S
C1645 C1644 1.404 . S
C1645 H1657 0.930 . S
C1646 C1642 1.524 . S
C1646 H1658 0.956 . S
C1646 H1659 0.961 1_455 S
C1646 H1660 0.961 . S
C1647 C1644 1.539 . S
C1647 H1661 0.958 . S
C1647 H1662 0.961 . S
C1647 H1663 0.960 1_455 S
H1648 C1632 0.931 . S
H1649 C1637 0.929 . S
H1650 C1638 0.960 . S
H1651 C1638 0.962 . S
H1652 C1638 0.960 . S
H1653 C1639 0.961 . S
H1654 C1639 0.961 . S
H1655 C1639 0.961 . S
H1656 C1640 0.931 . S
H1657 C1645 0.930 . S
H1658 C1646 0.956 . S
H1659 C1646 0.961 1_655 S
H1660 C1646 0.961 . S
H1661 C1647 0.958 . S
H1662 C1647 0.961 . S
H1663 C1647 0.960 1_655 S
C1664 C1665 1.391 . S
C1664 C1666 1.394 . S
C1664 H1680 0.931 . S
C1665 C1664 1.391 . S
C1665 C1669 1.376 . S
C1666 C1664 1.394 . S
C1666 C1667 1.369 . S
C1666 C1670 1.531 . S
C1667 C1666 1.369 . S
C1667 C1668 1.410 . S
C1667 C1675 1.503 1_565 S
C1668 C1667 1.410 . S
C1668 C1669 1.392 . S
C1668 C1671 1.515 . S
C1669 C1665 1.376 . S
C1669 C1668 1.392 . S
C1669 H1681 0.929 . S
C1670 C1666 1.531 . S
C1670 H1682 0.960 . S
C1670 H1683 0.962 . S
C1670 H1684 0.960 . S
C1671 C1668 1.515 . S
C1671 H1685 0.961 . S
C1671 H1686 0.955 1_565 S
C1671 H1687 0.962 . S
C1672 C1673 1.370 . S
C1672 C1674 1.363 . S
C1672 H1688 0.931 . S
C1673 C1672 1.370 . S
C1673 C1677 1.408 . S
C1674 C1672 1.363 . S
C1674 C1675 1.370 . S
C1674 C1678 1.524 . S
C1675 C1667 1.503 1_545 S
C1675 C1674 1.370 . S
C1675 C1676 1.403 . S
C1676 C1675 1.403 . S
C1676 C1677 1.404 . S
C1676 C1679 1.539 1_545 S
C1677 C1673 1.408 . S
C1677 C1676 1.404 . S
C1677 H1689 0.930 . S
C1678 C1674 1.524 . S
C1678 H1690 0.956 . S
C1678 H1691 0.961 . S
C1678 H1692 0.961 . S
C1679 C1676 1.539 1_565 S
C1679 H1693 0.958 . S
C1679 H1694 0.961 . S
C1679 H1695 0.960 . S
H1680 C1664 0.931 . S
H1681 C1669 0.929 . S
H1682 C1670 0.960 . S
H1683 C1670 0.962 . S
H1684 C1670 0.960 . S
H1685 C1671 0.961 . S
H1686 C1671 0.955 1_545 S
H1687 C1671 0.962 . S
H1688 C1672 0.931 . S
H1689 C1677 0.930 . S
H1690 C1678 0.956 . S
H1691 C1678 0.961 . S
H1692 C1678 0.961 . S
H1693 C1679 0.958 . S
H1694 C1679 0.961 . S
H1695 C1679 0.960 . S
C1696 C1697 1.391 . S
C1696 C1698 1.394 . S
C1696 H1712 0.931 . S
C1697 C1696 1.391 . S
C1697 C1701 1.376 . S
C1698 C1696 1.394 . S
C1698 C1699 1.369 . S
C1698 C1702 1.531 1_655 S
C1699 C1698 1.369 . S
C1699 C1700 1.410 . S
C1699 C1707 1.503 1_655 S
C1700 C1699 1.410 . S
C1700 C1701 1.392 . S
C1700 C1703 1.511 . S
C1701 C1697 1.376 . S
C1701 C1700 1.392 . S
C1701 H1713 0.929 . S
C1702 C1698 1.531 1_455 S
C1702 H1714 0.960 . S
C1702 H1715 0.962 . S
C1702 H1716 0.960 . S
C1703 C1700 1.511 . S
C1703 H1717 0.961 . S
C1703 H1718 0.961 . S
C1703 H1719 0.961 . S
C1704 C1705 1.370 . S
C1704 C1706 1.363 . S
C1704 H1720 0.931 . S
C1705 C1704 1.370 . S
C1705 C1709 1.408 . S
C1706 C1704 1.363 . S
C1706 C1707 1.370 . S
C1706 C1710 1.524 . S
C1707 C1699 1.503 1_455 S
C1707 C1706 1.370 . S
C1707 C1708 1.403 . S
C1708 C1707 1.403 . S
C1708 C1709 1.404 . S
C1708 C1711 1.539 . S
C1709 C1705 1.408 . S
C1709 C1708 1.404 . S
C1709 H1721 0.930 . S
C1710 C1706 1.524 . S
C1710 H1722 0.956 . S
C1710 H1723 0.961 1_455 S
C1710 H1724 0.961 . S
C1711 C1708 1.539 . S
C1711 H1725 0.958 . S
C1711 H1726 0.961 . S
C1711 H1727 0.960 1_455 S
H1712 C1696 0.931 . S
H1713 C1701 0.929 . S
H1714 C1702 0.960 . S
H1715 C1702 0.962 . S
H1716 C1702 0.960 . S
H1717 C1703 0.961 . S
H1718 C1703 0.961 . S
H1719 C1703 0.961 . S
H1720 C1704 0.931 . S
H1721 C1709 0.930 . S
H1722 C1710 0.956 . S
H1723 C1710 0.961 1_655 S
H1724 C1710 0.961 . S
H1725 C1711 0.958 . S
H1726 C1711 0.961 . S
H1727 C1711 0.960 1_655 S
C1728 C1729 1.391 . S
C1728 C1730 1.394 . S
C1728 H1744 0.931 . S
C1729 C1728 1.391 . S
C1729 C1733 1.376 . S
C1730 C1728 1.394 . S
C1730 C1731 1.369 . S
C1730 C1734 1.531 . S
C1731 C1730 1.369 . S
C1731 C1732 1.410 . S
C1731 C1739 1.503 . S
C1732 C1731 1.410 . S
C1732 C1733 1.392 . S
C1732 C1735 1.511 . S
C1733 C1729 1.376 . S
C1733 C1732 1.392 . S
C1733 H1745 0.929 . S
C1734 C1730 1.531 . S
C1734 H1746 0.960 . S
C1734 H1747 0.962 . S
C1734 H1748 0.960 . S
C1735 C1732 1.511 . S
C1735 H1749 0.961 . S
C1735 H1750 0.961 . S
C1735 H1751 0.961 . S
C1736 C1737 1.370 . S
C1736 C1738 1.363 . S
C1736 H1752 0.931 . S
C1737 C1736 1.370 . S
C1737 C1741 1.408 . S
C1738 C1736 1.363 . S
C1738 C1739 1.370 . S
C1738 C1742 1.524 . S
C1739 C1731 1.503 . S
C1739 C1738 1.370 . S
C1739 C1740 1.403 . S
C1740 C1739 1.403 . S
C1740 C1741 1.404 . S
C1740 C1743 1.539 . S
C1741 C1737 1.408 . S
C1741 C1740 1.404 . S
C1741 H1753 0.930 . S
C1742 C1738 1.524 . S
C1742 H1754 0.956 . S
C1742 H1755 0.961 . S
C1742 H1756 0.961 . S
C1743 C1740 1.539 . S
C1743 H1757 0.958 . S
C1743 H1758 0.961 . S
C1743 H1759 0.960 . S
H1744 C1728 0.931 . S
H1745 C1733 0.929 . S
H1746 C1734 0.960 . S
H1747 C1734 0.962 . S
H1748 C1734 0.960 . S
H1749 C1735 0.961 . S
H1750 C1735 0.961 . S
H1751 C1735 0.961 . S
H1752 C1736 0.931 . S
H1753 C1741 0.930 . S
H1754 C1742 0.956 . S
H1755 C1742 0.961 . S
H1756 C1742 0.961 . S
H1757 C1743 0.958 . S
H1758 C1743 0.961 . S
H1759 C1743 0.960 . S
C1760 C1761 1.391 . S
C1760 C1762 1.394 . S
C1760 H1776 0.931 . S
C1761 C1760 1.391 . S
C1761 C1765 1.376 . S
C1762 C1760 1.394 . S
C1762 C1763 1.369 . S
C1762 C1766 1.531 . S
C1763 C1762 1.369 . S
C1763 C1764 1.410 . S
C1763 C1771 1.503 . S
C1764 C1763 1.410 . S
C1764 C1765 1.392 . S
C1764 C1767 1.511 . S
C1765 C1761 1.376 . S
C1765 C1764 1.392 . S
C1765 H1777 0.929 . S
C1766 C1762 1.531 . S
C1766 H1778 0.960 . S
C1766 H1779 0.962 . S
C1766 H1780 0.960 . S
C1767 C1764 1.511 . S
C1767 H1781 0.961 . S
C1767 H1782 0.961 . S
C1767 H1783 0.961 . S
C1768 C1769 1.370 . S
C1768 C1770 1.363 . S
C1768 H1784 0.931 . S
C1769 C1768 1.370 . S
C1769 C1773 1.408 . S
C1770 C1768 1.363 . S
C1770 C1771 1.370 . S
C1770 C1774 1.524 . S
C1771 C1763 1.503 . S
C1771 C1770 1.370 . S
C1771 C1772 1.403 . S
C1772 C1771 1.403 . S
C1772 C1773 1.404 . S
C1772 C1775 1.539 . S
C1773 C1769 1.408 . S
C1773 C1772 1.404 . S
C1773 H1785 0.930 . S
C1774 C1770 1.524 . S
C1774 H1786 0.956 . S
C1774 H1787 0.961 . S
C1774 H1788 0.961 . S
C1775 C1772 1.539 . S
C1775 H1789 0.958 . S
C1775 H1790 0.961 . S
C1775 H1791 0.960 . S
H1776 C1760 0.931 . S
H1777 C1765 0.929 . S
H1778 C1766 0.960 . S
H1779 C1766 0.962 . S
H1780 C1766 0.960 . S
H1781 C1767 0.961 . S
H1782 C1767 0.961 . S
H1783 C1767 0.961 . S
H1784 C1768 0.931 . S
H1785 C1773 0.930 . S
H1786 C1774 0.956 . S
H1787 C1774 0.961 . S
H1788 C1774 0.961 . S
H1789 C1775 0.958 . S
H1790 C1775 0.961 . S
H1791 C1775 0.960 . S
C1792 C1793 1.391 . S
C1792 C1794 1.394 . S
C1792 H1808 0.931 . S
C1793 C1792 1.391 . S
C1793 C1797 1.376 . S
C1794 C1792 1.394 . S
C1794 C1795 1.369 . S
C1794 C1798 1.531 . S
C1795 C1794 1.369 . S
C1795 C1796 1.410 . S
C1795 C1803 1.503 . S
C1796 C1795 1.410 . S
C1796 C1797 1.392 . S
C1796 C1799 1.511 . S
C1797 C1793 1.376 . S
C1797 C1796 1.392 . S
C1797 H1809 0.929 . S
C1798 C1794 1.531 . S
C1798 H1810 0.960 . S
C1798 H1811 0.962 . S
C1798 H1812 0.960 . S
C1799 C1796 1.511 . S
C1799 H1813 0.961 . S
C1799 H1814 0.961 . S
C1799 H1815 0.961 . S
C1800 C1801 1.370 . S
C1800 C1802 1.363 . S
C1800 H1816 0.931 . S
C1801 C1800 1.370 . S
C1801 C1805 1.408 . S
C1802 C1800 1.363 . S
C1802 C1803 1.370 . S
C1802 C1806 1.524 . S
C1803 C1795 1.503 . S
C1803 C1802 1.370 . S
C1803 C1804 1.403 . S
C1804 C1803 1.403 . S
C1804 C1805 1.404 . S
C1804 C1807 1.539 . S
C1805 C1801 1.408 . S
C1805 C1804 1.404 . S
C1805 H1817 0.930 . S
C1806 C1802 1.524 . S
C1806 H1818 0.956 . S
C1806 H1819 0.961 . S
C1806 H1820 0.961 . S
C1807 C1804 1.539 . S
C1807 H1821 0.958 . S
C1807 H1822 0.961 . S
C1807 H1823 0.960 . S
H1808 C1792 0.931 . S
H1809 C1797 0.929 . S
H1810 C1798 0.960 . S
H1811 C1798 0.962 . S
H1812 C1798 0.960 . S
H1813 C1799 0.961 . S
H1814 C1799 0.961 . S
H1815 C1799 0.961 . S
H1816 C1800 0.931 . S
H1817 C1805 0.930 . S
H1818 C1806 0.956 . S
H1819 C1806 0.961 . S
H1820 C1806 0.961 . S
H1821 C1807 0.958 . S
H1822 C1807 0.961 . S
H1823 C1807 0.960 . S
C1824 C1825 1.391 . S
C1824 C1826 1.394 . S
C1824 H1840 0.931 . S
C1825 C1824 1.391 . S
C1825 C1829 1.376 . S
C1826 C1824 1.394 . S
C1826 C1827 1.369 . S
C1826 C1830 1.531 . S
C1827 C1826 1.369 . S
C1827 C1828 1.410 . S
C1827 C1835 1.503 . S
C1828 C1827 1.410 . S
C1828 C1829 1.392 . S
C1828 C1831 1.511 . S
C1829 C1825 1.376 . S
C1829 C1828 1.392 . S
C1829 H1841 0.929 . S
C1830 C1826 1.531 . S
C1830 H1842 0.960 . S
C1830 H1843 0.962 . S
C1830 H1844 0.960 . S
C1831 C1828 1.511 . S
C1831 H1845 0.961 . S
C1831 H1846 0.961 . S
C1831 H1847 0.961 . S
C1832 C1833 1.370 . S
C1832 C1834 1.363 . S
C1832 H1848 0.931 . S
C1833 C1832 1.370 . S
C1833 C1837 1.408 . S
C1834 C1832 1.363 . S
C1834 C1835 1.370 . S
C1834 C1838 1.524 . S
C1835 C1827 1.503 . S
C1835 C1834 1.370 . S
C1835 C1836 1.403 . S
C1836 C1835 1.403 . S
C1836 C1837 1.404 . S
C1836 C1839 1.539 . S
C1837 C1833 1.408 . S
C1837 C1836 1.404 . S
C1837 H1849 0.930 . S
C1838 C1834 1.524 . S
C1838 H1850 0.956 . S
C1838 H1851 0.961 . S
C1838 H1852 0.961 . S
C1839 C1836 1.539 . S
C1839 H1853 0.958 . S
C1839 H1854 0.961 . S
C1839 H1855 0.960 . S
H1840 C1824 0.931 . S
H1841 C1829 0.929 . S
H1842 C1830 0.960 . S
H1843 C1830 0.962 . S
H1844 C1830 0.960 . S
H1845 C1831 0.961 . S
H1846 C1831 0.961 . S
H1847 C1831 0.961 . S
H1848 C1832 0.931 . S
H1849 C1837 0.930 . S
H1850 C1838 0.956 . S
H1851 C1838 0.961 . S
H1852 C1838 0.961 . S
H1853 C1839 0.958 . S
H1854 C1839 0.961 . S
H1855 C1839 0.960 . S
C1856 C1857 1.391 . S
C1856 C1858 1.394 . S
C1856 H1872 0.931 . S
C1857 C1856 1.391 . S
C1857 C1861 1.376 . S
C1858 C1856 1.394 . S
C1858 C1859 1.369 . S
C1858 C1862 1.531 . S
C1859 C1858 1.369 . S
C1859 C1860 1.410 . S
C1859 C1867 1.503 . S
C1860 C1859 1.410 . S
C1860 C1861 1.392 . S
C1860 C1863 1.511 . S
C1861 C1857 1.376 . S
C1861 C1860 1.392 . S
C1861 H1873 0.929 . S
C1862 C1858 1.531 . S
C1862 H1874 0.960 . S
C1862 H1875 0.962 . S
C1862 H1876 0.960 . S
C1863 C1860 1.511 . S
C1863 H1877 0.961 . S
C1863 H1878 0.961 . S
C1863 H1879 0.961 . S
C1864 C1865 1.370 . S
C1864 C1866 1.363 . S
C1864 H1880 0.931 . S
C1865 C1864 1.370 . S
C1865 C1869 1.408 . S
C1866 C1864 1.363 . S
C1866 C1867 1.370 . S
C1866 C1870 1.524 . S
C1867 C1859 1.503 . S
C1867 C1866 1.370 . S
C1867 C1868 1.403 . S
C1868 C1867 1.403 . S
C1868 C1869 1.404 . S
C1868 C1871 1.539 . S
C1869 C1865 1.408 . S
C1869 C1868 1.404 . S
C1869 H1881 0.930 . S
C1870 C1866 1.524 . S
C1870 H1882 0.956 . S
C1870 H1883 0.961 . S
C1870 H1884 0.961 . S
C1871 C1868 1.539 . S
C1871 H1885 0.958 . S
C1871 H1886 0.961 . S
C1871 H1887 0.960 . S
H1872 C1856 0.931 . S
H1873 C1861 0.929 . S
H1874 C1862 0.960 . S
H1875 C1862 0.962 . S
H1876 C1862 0.960 . S
H1877 C1863 0.961 . S
H1878 C1863 0.961 . S
H1879 C1863 0.961 . S
H1880 C1864 0.931 . S
H1881 C1869 0.930 . S
H1882 C1870 0.956 . S
H1883 C1870 0.961 . S
H1884 C1870 0.961 . S
H1885 C1871 0.958 . S
H1886 C1871 0.961 . S
H1887 C1871 0.960 . S
C1888 C1889 1.391 . S
C1888 C1890 1.394 . S
C1888 H1904 0.931 . S
C1889 C1888 1.391 . S
C1889 C1893 1.376 . S
C1890 C1888 1.394 . S
C1890 C1891 1.369 . S
C1890 C1894 1.531 . S
C1891 C1890 1.369 . S
C1891 C1892 1.410 . S
C1891 C1899 1.503 . S
C1892 C1891 1.410 . S
C1892 C1893 1.392 . S
C1892 C1895 1.511 . S
C1893 C1889 1.376 . S
C1893 C1892 1.392 . S
C1893 H1905 0.929 . S
C1894 C1890 1.531 . S
C1894 H1906 0.960 . S
C1894 H1907 0.962 . S
C1894 H1908 0.960 . S
C1895 C1892 1.511 . S
C1895 H1909 0.961 . S
C1895 H1910 0.961 . S
C1895 H1911 0.961 . S
C1896 C1897 1.370 . S
C1896 C1898 1.363 . S
C1896 H1912 0.931 . S
C1897 C1896 1.370 . S
C1897 C1901 1.408 . S
C1898 C1896 1.363 . S
C1898 C1899 1.370 . S
C1898 C1902 1.524 . S
C1899 C1891 1.503 . S
C1899 C1898 1.370 . S
C1899 C1900 1.403 . S
C1900 C1899 1.403 . S
C1900 C1901 1.404 . S
C1900 C1903 1.539 . S
C1901 C1897 1.408 . S
C1901 C1900 1.404 . S
C1901 H1913 0.930 . S
C1902 C1898 1.524 . S
C1902 H1914 0.956 . S
C1902 H1915 0.961 . S
C1902 H1916 0.961 . S
C1903 C1900 1.539 . S
C1903 H1917 0.958 . S
C1903 H1918 0.961 . S
C1903 H1919 0.960 . S
H1904 C1888 0.931 . S
H1905 C1893 0.929 . S
H1906 C1894 0.960 . S
H1907 C1894 0.962 . S
H1908 C1894 0.960 . S
H1909 C1895 0.961 . S
H1910 C1895 0.961 . S
H1911 C1895 0.961 . S
H1912 C1896 0.931 . S
H1913 C1901 0.930 . S
H1914 C1902 0.956 . S
H1915 C1902 0.961 . S
H1916 C1902 0.961 . S
H1917 C1903 0.958 . S
H1918 C1903 0.961 . S
H1919 C1903 0.960 . S
C1920 C1921 1.391 . S
C1920 C1922 1.394 . S
C1920 H1936 0.931 . S
C1921 C1920 1.391 . S
C1921 C1925 1.376 . S
C1922 C1920 1.394 . S
C1922 C1923 1.369 . S
C1922 C1926 1.531 . S
C1923 C1922 1.369 . S
C1923 C1924 1.410 . S
C1923 C1931 1.503 . S
C1924 C1923 1.410 . S
C1924 C1925 1.392 . S
C1924 C1927 1.511 . S
C1925 C1921 1.376 . S
C1925 C1924 1.392 . S
C1925 H1937 0.929 . S
C1926 C1922 1.531 . S
C1926 H1938 0.960 . S
C1926 H1939 0.962 . S
C1926 H1940 0.960 . S
C1927 C1924 1.511 . S
C1927 H1941 0.961 . S
C1927 H1942 0.961 . S
C1927 H1943 0.961 . S
C1928 C1929 1.370 . S
C1928 C1930 1.363 . S
C1928 H1944 0.931 . S
C1929 C1928 1.370 . S
C1929 C1933 1.408 . S
C1930 C1928 1.363 . S
C1930 C1931 1.370 . S
C1930 C1934 1.524 . S
C1931 C1923 1.503 . S
C1931 C1930 1.370 . S
C1931 C1932 1.403 . S
C1932 C1931 1.403 . S
C1932 C1933 1.404 . S
C1932 C1935 1.539 . S
C1933 C1929 1.408 . S
C1933 C1932 1.404 . S
C1933 H1945 0.930 . S
C1934 C1930 1.524 . S
C1934 H1946 0.956 . S
C1934 H1947 0.961 . S
C1934 H1948 0.961 . S
C1935 C1932 1.539 . S
C1935 H1949 0.958 . S
C1935 H1950 0.961 . S
C1935 H1951 0.960 . S
H1936 C1920 0.931 . S
H1937 C1925 0.929 . S
H1938 C1926 0.960 . S
H1939 C1926 0.962 . S
H1940 C1926 0.960 . S
H1941 C1927 0.961 . S
H1942 C1927 0.961 . S
H1943 C1927 0.961 . S
H1944 C1928 0.931 . S
H1945 C1933 0.930 . S
H1946 C1934 0.956 . S
H1947 C1934 0.961 . S
H1948 C1934 0.961 . S
H1949 C1935 0.958 . S
H1950 C1935 0.961 . S
H1951 C1935 0.960 . S
C1952 C1953 1.391 . S
C1952 C1954 1.394 . S
C1952 H1968 0.931 . S
C1953 C1952 1.391 . S
C1953 C1957 1.376 . S
C1954 C1952 1.394 . S
C1954 C1955 1.369 . S
C1954 C1958 1.531 . S
C1955 C1954 1.369 . S
C1955 C1956 1.410 . S
C1955 C1963 1.503 . S
C1956 C1955 1.410 . S
C1956 C1957 1.392 . S
C1956 C1959 1.511 . S
C1957 C1953 1.376 . S
C1957 C1956 1.392 . S
C1957 H1969 0.929 . S
C1958 C1954 1.531 . S
C1958 H1970 0.960 . S
C1958 H1971 0.962 . S
C1958 H1972 0.960 . S
C1959 C1956 1.511 . S
C1959 H1973 0.961 . S
C1959 H1974 0.961 . S
C1959 H1975 0.961 . S
C1960 C1961 1.370 . S
C1960 C1962 1.363 . S
C1960 H1976 0.931 . S
C1961 C1960 1.370 . S
C1961 C1965 1.408 . S
C1962 C1960 1.363 . S
C1962 C1963 1.370 . S
C1962 C1966 1.524 . S
C1963 C1955 1.503 . S
C1963 C1962 1.370 . S
C1963 C1964 1.403 . S
C1964 C1963 1.403 . S
C1964 C1965 1.404 . S
C1964 C1967 1.539 . S
C1965 C1961 1.408 . S
C1965 C1964 1.404 . S
C1965 H1977 0.930 . S
C1966 C1962 1.524 . S
C1966 H1978 0.956 . S
C1966 H1979 0.961 . S
C1966 H1980 0.961 . S
C1967 C1964 1.539 . S
C1967 H1981 0.958 . S
C1967 H1982 0.961 . S
C1967 H1983 0.960 . S
H1968 C1952 0.931 . S
H1969 C1957 0.929 . S
H1970 C1958 0.960 . S
H1971 C1958 0.962 . S
H1972 C1958 0.960 . S
H1973 C1959 0.961 . S
H1974 C1959 0.961 . S
H1975 C1959 0.961 . S
H1976 C1960 0.931 . S
H1977 C1965 0.930 . S
H1978 C1966 0.956 . S
H1979 C1966 0.961 . S
H1980 C1966 0.961 . S
H1981 C1967 0.958 . S
H1982 C1967 0.961 . S
H1983 C1967 0.960 . S
C1984 C1985 1.391 . S
C1984 C1986 1.394 . S
C1984 H2000 0.931 . S
C1985 C1984 1.391 . S
C1985 C1989 1.376 . S
C1986 C1984 1.394 . S
C1986 C1987 1.369 . S
C1986 C1990 1.531 . S
C1987 C1986 1.369 . S
C1987 C1988 1.410 . S
C1987 C1995 1.503 . S
C1988 C1987 1.410 . S
C1988 C1989 1.392 . S
C1988 C1991 1.511 . S
C1989 C1985 1.376 . S
C1989 C1988 1.392 . S
C1989 H2001 0.929 . S
C1990 C1986 1.531 . S
C1990 H2002 0.960 . S
C1990 H2003 0.962 . S
C1990 H2004 0.960 . S
C1991 C1988 1.511 . S
C1991 H2005 0.961 . S
C1991 H2006 0.961 . S
C1991 H2007 0.961 . S
C1992 C1993 1.370 . S
C1992 C1994 1.363 . S
C1992 H2008 0.931 . S
C1993 C1992 1.370 . S
C1993 C1997 1.408 . S
C1994 C1992 1.363 . S
C1994 C1995 1.370 . S
C1994 C1998 1.524 . S
C1995 C1987 1.503 . S
C1995 C1994 1.370 . S
C1995 C1996 1.403 . S
C1996 C1995 1.403 . S
C1996 C1997 1.404 . S
C1996 C1999 1.539 . S
C1997 C1993 1.408 . S
C1997 C1996 1.404 . S
C1997 H2009 0.930 . S
C1998 C1994 1.524 . S
C1998 H2010 0.956 . S
C1998 H2011 0.961 . S
C1998 H2012 0.961 . S
C1999 C1996 1.539 . S
C1999 H2013 0.958 . S
C1999 H2014 0.961 . S
C1999 H2015 0.960 . S
H2000 C1984 0.931 . S
H2001 C1989 0.929 . S
H2002 C1990 0.960 . S
H2003 C1990 0.962 . S
H2004 C1990 0.960 . S
H2005 C1991 0.961 . S
H2006 C1991 0.961 . S
H2007 C1991 0.961 . S
H2008 C1992 0.931 . S
H2009 C1997 0.930 . S
H2010 C1998 0.956 . S
H2011 C1998 0.961 . S
H2012 C1998 0.961 . S
H2013 C1999 0.958 . S
H2014 C1999 0.961 . S
H2015 C1999 0.960 . S
C2016 C2017 1.391 . S
C2016 C2018 1.394 . S
C2016 H2032 0.931 . S
C2017 C2016 1.391 . S
C2017 C2021 1.376 . S
C2018 C2016 1.394 . S
C2018 C2019 1.369 . S
C2018 C2022 1.531 . S
C2019 C2018 1.369 . S
C2019 C2020 1.410 . S
C2019 C2027 1.503 . S
C2020 C2019 1.410 . S
C2020 C2021 1.392 . S
C2020 C2023 1.511 . S
C2021 C2017 1.376 . S
C2021 C2020 1.392 . S
C2021 H2033 0.929 . S
C2022 C2018 1.531 . S
C2022 H2034 0.960 . S
C2022 H2035 0.962 . S
C2022 H2036 0.960 . S
C2023 C2020 1.511 . S
C2023 H2037 0.961 . S
C2023 H2038 0.961 . S
C2023 H2039 0.961 . S
C2024 C2025 1.370 . S
C2024 C2026 1.363 . S
C2024 H2040 0.931 . S
C2025 C2024 1.370 . S
C2025 C2029 1.408 . S
C2026 C2024 1.363 . S
C2026 C2027 1.370 . S
C2026 C2030 1.524 . S
C2027 C2019 1.503 . S
C2027 C2026 1.370 . S
C2027 C2028 1.403 . S
C2028 C2027 1.403 . S
C2028 C2029 1.404 . S
C2028 C2031 1.539 . S
C2029 C2025 1.408 . S
C2029 C2028 1.404 . S
C2029 H2041 0.930 . S
C2030 C2026 1.524 . S
C2030 H2042 0.956 . S
C2030 H2043 0.961 . S
C2030 H2044 0.961 . S
C2031 C2028 1.539 . S
C2031 H2045 0.958 . S
C2031 H2046 0.961 . S
C2031 H2047 0.960 . S
H2032 C2016 0.931 . S
H2033 C2021 0.929 . S
H2034 C2022 0.960 . S
H2035 C2022 0.962 . S
H2036 C2022 0.960 . S
H2037 C2023 0.961 . S
H2038 C2023 0.961 . S
H2039 C2023 0.961 . S
H2040 C2024 0.931 . S
H2041 C2029 0.930 . S
H2042 C2030 0.956 . S
H2043 C2030 0.961 . S
H2044 C2030 0.961 . S
H2045 C2031 0.958 . S
H2046 C2031 0.961 . S
H2047 C2031 0.960 . S
C2048 C2049 1.391 . S
C2048 C2050 1.394 . S
C2048 H2064 0.931 . S
C2049 C2048 1.391 . S
C2049 C2053 1.376 . S
C2050 C2048 1.394 . S
C2050 C2051 1.369 . S
C2050 C2054 1.531 . S
C2051 C2050 1.369 . S
C2051 C2052 1.410 . S
C2051 C2059 1.503 . S
C2052 C2051 1.410 . S
C2052 C2053 1.392 . S
C2052 C2055 1.511 . S
C2053 C2049 1.376 . S
C2053 C2052 1.392 . S
C2053 H2065 0.929 . S
C2054 C2050 1.531 . S
C2054 H2066 0.960 . S
C2054 H2067 0.962 . S
C2054 H2068 0.960 . S
C2055 C2052 1.511 . S
C2055 H2069 0.961 . S
C2055 H2070 0.961 . S
C2055 H2071 0.961 . S
C2056 C2057 1.370 . S
C2056 C2058 1.363 . S
C2056 H2072 0.931 . S
C2057 C2056 1.370 . S
C2057 C2061 1.408 . S
C2058 C2056 1.363 . S
C2058 C2059 1.370 . S
C2058 C2062 1.524 . S
C2059 C2051 1.503 . S
C2059 C2058 1.370 . S
C2059 C2060 1.403 . S
C2060 C2059 1.403 . S
C2060 C2061 1.404 . S
C2060 C2063 1.539 . S
C2061 C2057 1.408 . S
C2061 C2060 1.404 . S
C2061 H2073 0.930 . S
C2062 C2058 1.524 . S
C2062 H2074 0.956 . S
C2062 H2075 0.961 . S
C2062 H2076 0.961 . S
C2063 C2060 1.539 . S
C2063 H2077 0.958 . S
C2063 H2078 0.961 . S
C2063 H2079 0.960 . S
H2064 C2048 0.931 . S
H2065 C2053 0.929 . S
H2066 C2054 0.960 . S
H2067 C2054 0.962 . S
H2068 C2054 0.960 . S
H2069 C2055 0.961 . S
H2070 C2055 0.961 . S
H2071 C2055 0.961 . S
H2072 C2056 0.931 . S
H2073 C2061 0.930 . S
H2074 C2062 0.956 . S
H2075 C2062 0.961 . S
H2076 C2062 0.961 . S
H2077 C2063 0.958 . S
H2078 C2063 0.961 . S
H2079 C2063 0.960 . S
C2080 C2081 1.391 . S
C2080 C2082 1.394 . S
C2080 H2096 0.931 . S
C2081 C2080 1.391 . S
C2081 C2085 1.376 . S
C2082 C2080 1.394 . S
C2082 C2083 1.369 . S
C2082 C2086 1.531 . S
C2083 C2082 1.369 . S
C2083 C2084 1.410 . S
C2083 C2091 1.503 . S
C2084 C2083 1.410 . S
C2084 C2085 1.392 . S
C2084 C2087 1.511 . S
C2085 C2081 1.376 . S
C2085 C2084 1.392 . S
C2085 H2097 0.929 . S
C2086 C2082 1.531 . S
C2086 H2098 0.960 . S
C2086 H2099 0.962 . S
C2086 H2100 0.960 . S
C2087 C2084 1.511 . S
C2087 H2101 0.961 . S
C2087 H2102 0.961 . S
C2087 H2103 0.961 . S
C2088 C2089 1.370 . S
C2088 C2090 1.363 . S
C2088 H2104 0.931 . S
C2089 C2088 1.370 . S
C2089 C2093 1.408 . S
C2090 C2088 1.363 . S
C2090 C2091 1.370 . S
C2090 C2094 1.524 . S
C2091 C2083 1.503 . S
C2091 C2090 1.370 . S
C2091 C2092 1.403 . S
C2092 C2091 1.403 . S
C2092 C2093 1.404 . S
C2092 C2095 1.539 . S
C2093 C2089 1.408 . S
C2093 C2092 1.404 . S
C2093 H2105 0.930 . S
C2094 C2090 1.524 . S
C2094 H2106 0.956 . S
C2094 H2107 0.961 . S
C2094 H2108 0.961 . S
C2095 C2092 1.539 . S
C2095 H2109 0.958 . S
C2095 H2110 0.961 . S
C2095 H2111 0.960 . S
H2096 C2080 0.931 . S
H2097 C2085 0.929 . S
H2098 C2086 0.960 . S
H2099 C2086 0.962 . S
H2100 C2086 0.960 . S
H2101 C2087 0.961 . S
H2102 C2087 0.961 . S
H2103 C2087 0.961 . S
H2104 C2088 0.931 . S
H2105 C2093 0.930 . S
H2106 C2094 0.956 . S
H2107 C2094 0.961 . S
H2108 C2094 0.961 . S
H2109 C2095 0.958 . S
H2110 C2095 0.961 . S
H2111 C2095 0.960 . S
C2112 C2113 1.391 . S
C2112 C2114 1.394 . S
C2112 H2128 0.931 . S
C2113 C2112 1.391 . S
C2113 C2117 1.376 . S
C2114 C2112 1.394 . S
C2114 C2115 1.369 . S
C2114 C2118 1.531 . S
C2115 C2114 1.369 . S
C2115 C2116 1.410 . S
C2115 C2123 1.503 . S
C2116 C2115 1.410 . S
C2116 C2117 1.392 . S
C2116 C2119 1.511 . S
C2117 C2113 1.376 . S
C2117 C2116 1.392 . S
C2117 H2129 0.929 . S
C2118 C2114 1.531 . S
C2118 H2130 0.960 . S
C2118 H2131 0.962 . S
C2118 H2132 0.960 . S
C2119 C2116 1.511 . S
C2119 H2133 0.961 . S
C2119 H2134 0.961 . S
C2119 H2135 0.961 . S
C2120 C2121 1.370 . S
C2120 C2122 1.363 . S
C2120 H2136 0.931 . S
C2121 C2120 1.370 . S
C2121 C2125 1.408 . S
C2122 C2120 1.363 . S
C2122 C2123 1.370 . S
C2122 C2126 1.524 . S
C2123 C2115 1.503 . S
C2123 C2122 1.370 . S
C2123 C2124 1.403 . S
C2124 C2123 1.403 . S
C2124 C2125 1.404 . S
C2124 C2127 1.539 . S
C2125 C2121 1.408 . S
C2125 C2124 1.404 . S
C2125 H2137 0.930 . S
C2126 C2122 1.524 . S
C2126 H2138 0.956 . S
C2126 H2139 0.961 . S
C2126 H2140 0.961 . S
C2127 C2124 1.539 . S
C2127 H2141 0.958 . S
C2127 H2142 0.961 . S
C2127 H2143 0.960 . S
H2128 C2112 0.931 . S
H2129 C2117 0.929 . S
H2130 C2118 0.960 . S
H2131 C2118 0.962 . S
H2132 C2118 0.960 . S
H2133 C2119 0.961 . S
H2134 C2119 0.961 . S
H2135 C2119 0.961 . S
H2136 C2120 0.931 . S
H2137 C2125 0.930 . S
H2138 C2126 0.956 . S
H2139 C2126 0.961 . S
H2140 C2126 0.961 . S
H2141 C2127 0.958 . S
H2142 C2127 0.961 . S
H2143 C2127 0.960 . S
C2144 C2145 1.391 . S
C2144 C2146 1.394 . S
C2144 H2160 0.931 . S
C2145 C2144 1.391 . S
C2145 C2149 1.376 . S
C2146 C2144 1.394 . S
C2146 C2147 1.369 . S
C2146 C2150 1.531 . S
C2147 C2146 1.369 . S
C2147 C2148 1.410 . S
C2147 C2155 1.503 . S
C2148 C2147 1.410 . S
C2148 C2149 1.392 . S
C2148 C2151 1.511 . S
C2149 C2145 1.376 . S
C2149 C2148 1.392 . S
C2149 H2161 0.929 . S
C2150 C2146 1.531 . S
C2150 H2162 0.960 . S
C2150 H2163 0.962 . S
C2150 H2164 0.960 . S
C2151 C2148 1.511 . S
C2151 H2165 0.961 . S
C2151 H2166 0.961 . S
C2151 H2167 0.961 . S
C2152 C2153 1.370 . S
C2152 C2154 1.363 . S
C2152 H2168 0.931 . S
C2153 C2152 1.370 . S
C2153 C2157 1.408 . S
C2154 C2152 1.363 . S
C2154 C2155 1.370 . S
C2154 C2158 1.524 . S
C2155 C2147 1.503 . S
C2155 C2154 1.370 . S
C2155 C2156 1.403 . S
C2156 C2155 1.403 . S
C2156 C2157 1.404 . S
C2156 C2159 1.539 . S
C2157 C2153 1.408 . S
C2157 C2156 1.404 . S
C2157 H2169 0.930 . S
C2158 C2154 1.524 . S
C2158 H2170 0.956 . S
C2158 H2171 0.961 . S
C2158 H2172 0.961 . S
C2159 C2156 1.539 . S
C2159 H2173 0.958 . S
C2159 H2174 0.961 . S
C2159 H2175 0.960 . S
H2160 C2144 0.931 . S
H2161 C2149 0.929 . S
H2162 C2150 0.960 . S
H2163 C2150 0.962 . S
H2164 C2150 0.960 . S
H2165 C2151 0.961 . S
H2166 C2151 0.961 . S
H2167 C2151 0.961 . S
H2168 C2152 0.931 . S
H2169 C2157 0.930 . S
H2170 C2158 0.956 . S
H2171 C2158 0.961 . S
H2172 C2158 0.961 . S
H2173 C2159 0.958 . S
H2174 C2159 0.961 . S
H2175 C2159 0.960 . S
C2176 C2177 1.391 . S
C2176 C2178 1.394 . S
C2176 H2192 0.931 . S
C2177 C2176 1.391 . S
C2177 C2181 1.376 . S
C2178 C2176 1.394 . S
C2178 C2179 1.369 . S
C2178 C2182 1.531 . S
C2179 C2178 1.369 . S
C2179 C2180 1.410 . S
C2179 C2187 1.503 . S
C2180 C2179 1.410 . S
C2180 C2181 1.392 . S
C2180 C2183 1.511 . S
C2181 C2177 1.376 . S
C2181 C2180 1.392 . S
C2181 H2193 0.929 . S
C2182 C2178 1.531 . S
C2182 H2194 0.960 . S
C2182 H2195 0.962 . S
C2182 H2196 0.960 . S
C2183 C2180 1.511 . S
C2183 H2197 0.961 . S
C2183 H2198 0.961 . S
C2183 H2199 0.961 . S
C2184 C2185 1.370 . S
C2184 C2186 1.363 . S
C2184 H2200 0.931 . S
C2185 C2184 1.370 . S
C2185 C2189 1.408 . S
C2186 C2184 1.363 . S
C2186 C2187 1.370 . S
C2186 C2190 1.524 . S
C2187 C2179 1.503 . S
C2187 C2186 1.370 . S
C2187 C2188 1.403 . S
C2188 C2187 1.403 . S
C2188 C2189 1.404 . S
C2188 C2191 1.539 . S
C2189 C2185 1.408 . S
C2189 C2188 1.404 . S
C2189 H2201 0.930 . S
C2190 C2186 1.524 . S
C2190 H2202 0.956 . S
C2190 H2203 0.961 . S
C2190 H2204 0.961 . S
C2191 C2188 1.539 . S
C2191 H2205 0.958 . S
C2191 H2206 0.961 . S
C2191 H2207 0.960 . S
H2192 C2176 0.931 . S
H2193 C2181 0.929 . S
H2194 C2182 0.960 . S
H2195 C2182 0.962 . S
H2196 C2182 0.960 . S
H2197 C2183 0.961 . S
H2198 C2183 0.961 . S
H2199 C2183 0.961 . S
H2200 C2184 0.931 . S
H2201 C2189 0.930 . S
H2202 C2190 0.956 . S
H2203 C2190 0.961 . S
H2204 C2190 0.961 . S
H2205 C2191 0.958 . S
H2206 C2191 0.961 . S
H2207 C2191 0.960 . S
C2208 C2209 1.391 . S
C2208 C2210 1.394 . S
C2208 H2224 0.931 . S
C2209 C2208 1.391 . S
C2209 C2213 1.376 . S
C2210 C2208 1.394 . S
C2210 C2211 1.369 . S
C2210 C2214 1.531 . S
C2211 C2210 1.369 . S
C2211 C2212 1.410 . S
C2211 C2219 1.503 . S
C2212 C2211 1.410 . S
C2212 C2213 1.392 . S
C2212 C2215 1.511 . S
C2213 C2209 1.376 . S
C2213 C2212 1.392 . S
C2213 H2225 0.929 . S
C2214 C2210 1.531 . S
C2214 H2226 0.960 . S
C2214 H2227 0.962 . S
C2214 H2228 0.960 . S
C2215 C2212 1.511 . S
C2215 H2229 0.961 . S
C2215 H2230 0.961 . S
C2215 H2231 0.961 . S
C2216 C2217 1.370 . S
C2216 C2218 1.363 . S
C2216 H2232 0.931 . S
C2217 C2216 1.370 . S
C2217 C2221 1.408 . S
C2218 C2216 1.363 . S
C2218 C2219 1.370 . S
C2218 C2222 1.524 . S
C2219 C2211 1.503 . S
C2219 C2218 1.370 . S
C2219 C2220 1.403 . S
C2220 C2219 1.403 . S
C2220 C2221 1.404 . S
C2220 C2223 1.539 . S
C2221 C2217 1.408 . S
C2221 C2220 1.404 . S
C2221 H2233 0.930 . S
C2222 C2218 1.524 . S
C2222 H2234 0.956 . S
C2222 H2235 0.961 . S
C2222 H2236 0.961 . S
C2223 C2220 1.539 . S
C2223 H2237 0.958 . S
C2223 H2238 0.961 . S
C2223 H2239 0.960 . S
H2224 C2208 0.931 . S
H2225 C2213 0.929 . S
H2226 C2214 0.960 . S
H2227 C2214 0.962 . S
H2228 C2214 0.960 . S
H2229 C2215 0.961 . S
H2230 C2215 0.961 . S
H2231 C2215 0.961 . S
H2232 C2216 0.931 . S
H2233 C2221 0.930 . S
H2234 C2222 0.956 . S
H2235 C2222 0.961 . S
H2236 C2222 0.961 . S
H2237 C2223 0.958 . S
H2238 C2223 0.961 . S
H2239 C2223 0.960 . S
C2240 C2241 1.391 . S
C2240 C2242 1.394 . S
C2240 H2256 0.931 . S
C2241 C2240 1.391 . S
C2241 C2245 1.376 . S
C2242 C2240 1.394 . S
C2242 C2243 1.369 . S
C2242 C2246 1.531 . S
C2243 C2242 1.369 . S
C2243 C2244 1.410 . S
C2243 C2251 1.503 . S
C2244 C2243 1.410 . S
C2244 C2245 1.392 . S
C2244 C2247 1.511 . S
C2245 C2241 1.376 . S
C2245 C2244 1.392 . S
C2245 H2257 0.929 . S
C2246 C2242 1.531 . S
C2246 H2258 0.960 . S
C2246 H2259 0.962 . S
C2246 H2260 0.960 . S
C2247 C2244 1.511 . S
C2247 H2261 0.961 . S
C2247 H2262 0.961 . S
C2247 H2263 0.961 . S
C2248 C2249 1.370 . S
C2248 C2250 1.363 . S
C2248 H2264 0.931 . S
C2249 C2248 1.370 . S
C2249 C2253 1.408 . S
C2250 C2248 1.363 . S
C2250 C2251 1.370 . S
C2250 C2254 1.524 . S
C2251 C2243 1.503 . S
C2251 C2250 1.370 . S
C2251 C2252 1.403 . S
C2252 C2251 1.403 . S
C2252 C2253 1.404 . S
C2252 C2255 1.539 . S
C2253 C2249 1.408 . S
C2253 C2252 1.404 . S
C2253 H2265 0.930 . S
C2254 C2250 1.524 . S
C2254 H2266 0.956 . S
C2254 H2267 0.961 . S
C2254 H2268 0.961 . S
C2255 C2252 1.539 . S
C2255 H2269 0.958 . S
C2255 H2270 0.961 . S
C2255 H2271 0.960 . S
H2256 C2240 0.931 . S
H2257 C2245 0.929 . S
H2258 C2246 0.960 . S
H2259 C2246 0.962 . S
H2260 C2246 0.960 . S
H2261 C2247 0.961 . S
H2262 C2247 0.961 . S
H2263 C2247 0.961 . S
H2264 C2248 0.931 . S
H2265 C2253 0.930 . S
H2266 C2254 0.956 . S
H2267 C2254 0.961 . S
H2268 C2254 0.961 . S
H2269 C2255 0.958 . S
H2270 C2255 0.961 . S
H2271 C2255 0.960 . S
C2272 C2273 1.391 . S
C2272 C2274 1.394 . S
C2272 H2288 0.931 . S
C2273 C2272 1.391 . S
C2273 C2277 1.376 . S
C2274 C2272 1.394 . S
C2274 C2275 1.369 . S
C2274 C2278 1.531 . S
C2275 C2274 1.369 . S
C2275 C2276 1.410 . S
C2275 C2283 1.503 . S
C2276 C2275 1.410 . S
C2276 C2277 1.392 . S
C2276 C2279 1.511 . S
C2277 C2273 1.376 . S
C2277 C2276 1.392 . S
C2277 H2289 0.929 . S
C2278 C2274 1.531 . S
C2278 H2290 0.960 . S
C2278 H2291 0.962 . S
C2278 H2292 0.960 . S
C2279 C2276 1.511 . S
C2279 H2293 0.961 . S
C2279 H2294 0.961 . S
C2279 H2295 0.961 . S
C2280 C2281 1.370 . S
C2280 C2282 1.363 . S
C2280 H2296 0.931 . S
C2281 C2280 1.370 . S
C2281 C2285 1.408 . S
C2282 C2280 1.363 . S
C2282 C2283 1.370 . S
C2282 C2286 1.524 . S
C2283 C2275 1.503 . S
C2283 C2282 1.370 . S
C2283 C2284 1.403 . S
C2284 C2283 1.403 . S
C2284 C2285 1.404 . S
C2284 C2287 1.539 . S
C2285 C2281 1.408 . S
C2285 C2284 1.404 . S
C2285 H2297 0.930 . S
C2286 C2282 1.524 . S
C2286 H2298 0.956 . S
C2286 H2299 0.961 . S
C2286 H2300 0.961 . S
C2287 C2284 1.539 . S
C2287 H2301 0.958 . S
C2287 H2302 0.961 . S
C2287 H2303 0.960 . S
H2288 C2272 0.931 . S
H2289 C2277 0.929 . S
H2290 C2278 0.960 . S
H2291 C2278 0.962 . S
H2292 C2278 0.960 . S
H2293 C2279 0.961 . S
H2294 C2279 0.961 . S
H2295 C2279 0.961 . S
H2296 C2280 0.931 . S
H2297 C2285 0.930 . S
H2298 C2286 0.956 . S
H2299 C2286 0.961 . S
H2300 C2286 0.961 . S
H2301 C2287 0.958 . S
H2302 C2287 0.961 . S
H2303 C2287 0.960 . S
C2304 C2305 1.391 . S
C2304 C2306 1.394 . S
C2304 H2320 0.931 . S
C2305 C2304 1.391 . S
C2305 C2309 1.376 . S
C2306 C2304 1.394 . S
C2306 C2307 1.369 . S
C2306 C2310 1.531 . S
C2307 C2306 1.369 . S
C2307 C2308 1.410 . S
C2307 C2315 1.503 . S
C2308 C2307 1.410 . S
C2308 C2309 1.392 . S
C2308 C2311 1.511 . S
C2309 C2305 1.376 . S
C2309 C2308 1.392 . S
C2309 H2321 0.929 . S
C2310 C2306 1.531 . S
C2310 H2322 0.960 . S
C2310 H2323 0.962 . S
C2310 H2324 0.960 . S
C2311 C2308 1.511 . S
C2311 H2325 0.961 . S
C2311 H2326 0.961 . S
C2311 H2327 0.961 . S
C2312 C2313 1.370 . S
C2312 C2314 1.363 . S
C2312 H2328 0.931 . S
C2313 C2312 1.370 . S
C2313 C2317 1.408 . S
C2314 C2312 1.363 . S
C2314 C2315 1.370 . S
C2314 C2318 1.524 . S
C2315 C2307 1.503 . S
C2315 C2314 1.370 . S
C2315 C2316 1.403 . S
C2316 C2315 1.403 . S
C2316 C2317 1.404 . S
C2316 C2319 1.539 . S
C2317 C2313 1.408 . S
C2317 C2316 1.404 . S
C2317 H2329 0.930 . S
C2318 C2314 1.524 . S
C2318 H2330 0.956 . S
C2318 H2331 0.961 . S
C2318 H2332 0.961 . S
C2319 C2316 1.539 . S
C2319 H2333 0.958 . S
C2319 H2334 0.961 . S
C2319 H2335 0.960 . S
H2320 C2304 0.931 . S
H2321 C2309 0.929 . S
H2322 C2310 0.960 . S
H2323 C2310 0.962 . S
H2324 C2310 0.960 . S
H2325 C2311 0.961 . S
H2326 C2311 0.961 . S
H2327 C2311 0.961 . S
H2328 C2312 0.931 . S
H2329 C2317 0.930 . S
H2330 C2318 0.956 . S
H2331 C2318 0.961 . S
H2332 C2318 0.961 . S
H2333 C2319 0.958 . S
H2334 C2319 0.961 . S
H2335 C2319 0.960 . S
C2336 C2337 1.391 . S
C2336 C2338 1.394 . S
C2336 H2352 0.931 . S
C2337 C2336 1.391 . S
C2337 C2341 1.376 . S
C2338 C2336 1.394 . S
C2338 C2339 1.369 . S
C2338 C2342 1.531 . S
C2339 C2338 1.369 . S
C2339 C2340 1.410 . S
C2339 C2347 1.503 . S
C2340 C2339 1.410 . S
C2340 C2341 1.392 . S
C2340 C2343 1.511 . S
C2341 C2337 1.376 . S
C2341 C2340 1.392 . S
C2341 H2353 0.929 . S
C2342 C2338 1.531 . S
C2342 H2354 0.960 . S
C2342 H2355 0.962 . S
C2342 H2356 0.960 . S
C2343 C2340 1.511 . S
C2343 H2357 0.961 . S
C2343 H2358 0.961 . S
C2343 H2359 0.961 . S
C2344 C2345 1.370 . S
C2344 C2346 1.363 . S
C2344 H2360 0.931 . S
C2345 C2344 1.370 . S
C2345 C2349 1.408 . S
C2346 C2344 1.363 . S
C2346 C2347 1.370 . S
C2346 C2350 1.524 . S
C2347 C2339 1.503 . S
C2347 C2346 1.370 . S
C2347 C2348 1.403 . S
C2348 C2347 1.403 . S
C2348 C2349 1.404 . S
C2348 C2351 1.539 . S
C2349 C2345 1.408 . S
C2349 C2348 1.404 . S
C2349 H2361 0.930 . S
C2350 C2346 1.524 . S
C2350 H2362 0.956 . S
C2350 H2363 0.961 . S
C2350 H2364 0.961 . S
C2351 C2348 1.539 . S
C2351 H2365 0.958 . S
C2351 H2366 0.961 . S
C2351 H2367 0.960 . S
H2352 C2336 0.931 . S
H2353 C2341 0.929 . S
H2354 C2342 0.960 . S
H2355 C2342 0.962 . S
H2356 C2342 0.960 . S
H2357 C2343 0.961 . S
H2358 C2343 0.961 . S
H2359 C2343 0.961 . S
H2360 C2344 0.931 . S
H2361 C2349 0.930 . S
H2362 C2350 0.956 . S
H2363 C2350 0.961 . S
H2364 C2350 0.961 . S
H2365 C2351 0.958 . S
H2366 C2351 0.961 . S
H2367 C2351 0.960 . S
C2368 C2369 1.391 . S
C2368 C2370 1.394 . S
C2368 H2384 0.931 . S
C2369 C2368 1.391 . S
C2369 C2373 1.376 . S
C2370 C2368 1.394 . S
C2370 C2371 1.369 . S
C2370 C2374 1.531 . S
C2371 C2370 1.369 . S
C2371 C2372 1.410 . S
C2371 C2379 1.503 . S
C2372 C2371 1.410 . S
C2372 C2373 1.392 . S
C2372 C2375 1.511 . S
C2373 C2369 1.376 . S
C2373 C2372 1.392 . S
C2373 H2385 0.929 . S
C2374 C2370 1.531 . S
C2374 H2386 0.960 . S
C2374 H2387 0.962 . S
C2374 H2388 0.960 . S
C2375 C2372 1.511 . S
C2375 H2389 0.961 . S
C2375 H2390 0.961 . S
C2375 H2391 0.961 . S
C2376 C2377 1.370 . S
C2376 C2378 1.363 . S
C2376 H2392 0.931 . S
C2377 C2376 1.370 . S
C2377 C2381 1.408 . S
C2378 C2376 1.363 . S
C2378 C2379 1.370 . S
C2378 C2382 1.524 . S
C2379 C2371 1.503 . S
C2379 C2378 1.370 . S
C2379 C2380 1.403 . S
C2380 C2379 1.403 . S
C2380 C2381 1.404 . S
C2380 C2383 1.539 . S
C2381 C2377 1.408 . S
C2381 C2380 1.404 . S
C2381 H2393 0.930 . S
C2382 C2378 1.524 . S
C2382 H2394 0.956 . S
C2382 H2395 0.961 . S
C2382 H2396 0.961 . S
C2383 C2380 1.539 . S
C2383 H2397 0.958 . S
C2383 H2398 0.961 . S
C2383 H2399 0.960 . S
H2384 C2368 0.931 . S
H2385 C2373 0.929 . S
H2386 C2374 0.960 . S
H2387 C2374 0.962 . S
H2388 C2374 0.960 . S
H2389 C2375 0.961 . S
H2390 C2375 0.961 . S
H2391 C2375 0.961 . S
H2392 C2376 0.931 . S
H2393 C2381 0.930 . S
H2394 C2382 0.956 . S
H2395 C2382 0.961 . S
H2396 C2382 0.961 . S
H2397 C2383 0.958 . S
H2398 C2383 0.961 . S
H2399 C2383 0.960 . S
C2400 C2401 1.391 . S
C2400 C2402 1.394 . S
C2400 H2416 0.931 . S
C2401 C2400 1.391 . S
C2401 C2405 1.376 . S
C2402 C2400 1.394 . S
C2402 C2403 1.369 . S
C2402 C2406 1.531 . S
C2403 C2402 1.369 . S
C2403 C2404 1.410 . S
C2403 C2411 1.503 . S
C2404 C2403 1.410 . S
C2404 C2405 1.392 . S
C2404 C2407 1.511 . S
C2405 C2401 1.376 . S
C2405 C2404 1.392 . S
C2405 H2417 0.929 . S
C2406 C2402 1.531 . S
C2406 H2418 0.960 . S
C2406 H2419 0.962 . S
C2406 H2420 0.960 . S
C2407 C2404 1.511 . S
C2407 H2421 0.961 . S
C2407 H2422 0.961 . S
C2407 H2423 0.961 . S
C2408 C2409 1.370 . S
C2408 C2410 1.363 . S
C2408 H2424 0.931 . S
C2409 C2408 1.370 . S
C2409 C2413 1.408 . S
C2410 C2408 1.363 . S
C2410 C2411 1.370 . S
C2410 C2414 1.524 . S
C2411 C2403 1.503 . S
C2411 C2410 1.370 . S
C2411 C2412 1.403 . S
C2412 C2411 1.403 . S
C2412 C2413 1.404 . S
C2412 C2415 1.539 . S
C2413 C2409 1.408 . S
C2413 C2412 1.404 . S
C2413 H2425 0.930 . S
C2414 C2410 1.524 . S
C2414 H2426 0.956 . S
C2414 H2427 0.961 . S
C2414 H2428 0.961 . S
C2415 C2412 1.539 . S
C2415 H2429 0.958 . S
C2415 H2430 0.961 . S
C2415 H2431 0.960 . S
H2416 C2400 0.931 . S
H2417 C2405 0.929 . S
H2418 C2406 0.960 . S
H2419 C2406 0.962 . S
H2420 C2406 0.960 . S
H2421 C2407 0.961 . S
H2422 C2407 0.961 . S
H2423 C2407 0.961 . S
H2424 C2408 0.931 . S
H2425 C2413 0.930 . S
H2426 C2414 0.956 . S
H2427 C2414 0.961 . S
H2428 C2414 0.961 . S
H2429 C2415 0.958 . S
H2430 C2415 0.961 . S
H2431 C2415 0.960 . S
C2432 C2433 1.391 . S
C2432 C2434 1.394 . S
C2432 H2448 0.931 . S
C2433 C2432 1.391 . S
C2433 C2437 1.376 . S
C2434 C2432 1.394 . S
C2434 C2435 1.369 . S
C2434 C2438 1.531 . S
C2435 C2434 1.369 . S
C2435 C2436 1.410 . S
C2435 C2443 1.503 . S
C2436 C2435 1.410 . S
C2436 C2437 1.392 . S
C2436 C2439 1.511 . S
C2437 C2433 1.376 . S
C2437 C2436 1.392 . S
C2437 H2449 0.929 . S
C2438 C2434 1.531 . S
C2438 H2450 0.960 . S
C2438 H2451 0.962 . S
C2438 H2452 0.960 . S
C2439 C2436 1.511 . S
C2439 H2453 0.961 . S
C2439 H2454 0.961 . S
C2439 H2455 0.961 . S
C2440 C2441 1.370 . S
C2440 C2442 1.363 . S
C2440 H2456 0.931 . S
C2441 C2440 1.370 . S
C2441 C2445 1.408 . S
C2442 C2440 1.363 . S
C2442 C2443 1.370 . S
C2442 C2446 1.524 . S
C2443 C2435 1.503 . S
C2443 C2442 1.370 . S
C2443 C2444 1.403 . S
C2444 C2443 1.403 . S
C2444 C2445 1.404 . S
C2444 C2447 1.539 . S
C2445 C2441 1.408 . S
C2445 C2444 1.404 . S
C2445 H2457 0.930 . S
C2446 C2442 1.524 . S
C2446 H2458 0.956 . S
C2446 H2459 0.961 . S
C2446 H2460 0.961 . S
C2447 C2444 1.539 . S
C2447 H2461 0.958 . S
C2447 H2462 0.961 . S
C2447 H2463 0.960 . S
H2448 C2432 0.931 . S
H2449 C2437 0.929 . S
H2450 C2438 0.960 . S
H2451 C2438 0.962 . S
H2452 C2438 0.960 . S
H2453 C2439 0.961 . S
H2454 C2439 0.961 . S
H2455 C2439 0.961 . S
H2456 C2440 0.931 . S
H2457 C2445 0.930 . S
H2458 C2446 0.956 . S
H2459 C2446 0.961 . S
H2460 C2446 0.961 . S
H2461 C2447 0.958 . S
H2462 C2447 0.961 . S
H2463 C2447 0.960 . S
C2464 C2465 1.391 . S
C2464 C2466 1.394 . S
C2464 H2480 0.931 . S
C2465 C2464 1.391 . S
C2465 C2469 1.376 . S
C2466 C2464 1.394 . S
C2466 C2467 1.369 . S
C2466 C2470 1.531 . S
C2467 C2466 1.369 . S
C2467 C2468 1.410 . S
C2467 C2475 1.503 . S
C2468 C2467 1.410 . S
C2468 C2469 1.392 . S
C2468 C2471 1.511 . S
C2469 C2465 1.376 . S
C2469 C2468 1.392 . S
C2469 H2481 0.929 . S
C2470 C2466 1.531 . S
C2470 H2482 0.960 . S
C2470 H2483 0.962 . S
C2470 H2484 0.960 . S
C2471 C2468 1.511 . S
C2471 H2485 0.961 . S
C2471 H2486 0.961 . S
C2471 H2487 0.961 . S
C2472 C2473 1.370 . S
C2472 C2474 1.363 . S
C2472 H2488 0.931 . S
C2473 C2472 1.370 . S
C2473 C2477 1.408 . S
C2474 C2472 1.363 . S
C2474 C2475 1.370 . S
C2474 C2478 1.524 . S
C2475 C2467 1.503 . S
C2475 C2474 1.370 . S
C2475 C2476 1.403 . S
C2476 C2475 1.403 . S
C2476 C2477 1.404 . S
C2476 C2479 1.539 . S
C2477 C2473 1.408 . S
C2477 C2476 1.404 . S
C2477 H2489 0.930 . S
C2478 C2474 1.524 . S
C2478 H2490 0.956 . S
C2478 H2491 0.961 . S
C2478 H2492 0.961 . S
C2479 C2476 1.539 . S
C2479 H2493 0.958 . S
C2479 H2494 0.961 . S
C2479 H2495 0.960 . S
H2480 C2464 0.931 . S
H2481 C2469 0.929 . S
H2482 C2470 0.960 . S
H2483 C2470 0.962 . S
H2484 C2470 0.960 . S
H2485 C2471 0.961 . S
H2486 C2471 0.961 . S
H2487 C2471 0.961 . S
H2488 C2472 0.931 . S
H2489 C2477 0.930 . S
H2490 C2478 0.956 . S
H2491 C2478 0.961 . S
H2492 C2478 0.961 . S
H2493 C2479 0.958 . S
H2494 C2479 0.961 . S
H2495 C2479 0.960 . S
C449 C415 1.632 . S
C457 C9 1.645 . S
C481 C23 1.659 . S
C489 C429 1.655 . S
C513 C443 1.631 . S
C521 C37 1.645 . S
C545 C401 1.648 . S
C553 C51 1.650 . S
C577 C65 1.629 . S
C585 C387 1.644 . S
C609 C345 1.630 . S
C617 C79 1.643 . S
C641 C93 1.662 . S
C649 C359 1.657 . S
C673 C373 1.659 . S
C681 C107 1.655 . S
C705 C121 1.653 . S
C713 C303 1.652 . S
C737 C135 1.659 . S
C745 C317 1.655 . S
C769 C331 1.629 . S
C777 C149 1.643 . S
C801 C163 1.649 . S
C809 C289 1.650 . S
C833 C275 1.629 . S
C841 C177 1.643 . S
C865 C233 1.629 . S
C873 C191 1.644 . S
C897 C205 1.662 . S
C905 C247 1.657 . S
C929 C219 1.637 . S
C937 C261 1.647 . S
C961 C7 1.431 . S
C969 C147 1.427 . S
C993 C161 1.446 . S
C1001 C21 1.436 . S
C1025 C119 1.394 . S
C1033 C35 1.414 . S
C1057 C133 1.407 . S
C1065 C49 1.417 . S
C1089 C63 1.428 . S
C1097 C203 1.429 . S
C1121 C217 1.401 . S
C1129 C77 1.418 . S
C1153 C175 1.419 . S
C1161 C91 1.426 . S
C1185 C189 1.412 . S
C1193 C105 1.423 . S
C1217 C231 1.429 . S
C1225 C371 1.426 . S
C1249 C385 1.424 . S
C1257 C245 1.428 . S
C1281 C343 1.392 . S
C1289 C259 1.413 . S
C1313 C273 1.447 . S
C1321 C357 1.436 . S
C1345 C287 1.399 . S
C1353 C427 1.417 . S
C1377 C441 1.432 . S
C1385 C301 1.431 . S
C1409 C399 1.448 . S
C1417 C315 1.435 . S
C1441 C329 1.424 . S
C1449 C413 1.428 . S
C1473 C6 1.588 . S
C1481 C62 1.565 . S
C1505 C20 1.544 . S
C1513 C76 1.583 . S
C1537 C90 1.568 . S
C1545 C34 1.566 . S
C1569 C48 1.563 . S
C1577 C104 1.589 . S
C1601 C118 1.599 . S
C1609 C174 1.571 . S
C1633 C188 1.588 . S
C1641 C132 1.587 . S
C1665 C202 1.544 . S
C1673 C146 1.579 . S
C1697 C160 1.590 . S
C1705 C216 1.587 . S
C1729 C230 1.583 . S
C1737 C286 1.586 . S
C1761 C300 1.595 . S
C1769 C244 1.581 . S
C1793 C258 1.556 . S
C1801 C314 1.588 . S
C1825 C328 1.598 . S
C1833 C272 1.578 . S
C1857 C398 1.544 . S
C1865 C342 1.577 . S
C1889 C356 1.547 . S
C1897 C412 1.583 . S
C1921 C370 1.601 . S
C1929 C426 1.574 . S
C1953 C384 1.598 . S
C1961 C440 1.571 . S
C1985 C8 1.380 . S
C1993 C78 1.405 . S
C2017 C22 1.411 . S
C2025 C92 1.393 . S
C2049 C106 1.381 . S
C2057 C36 1.405 . S
C2081 C64 1.390 . S
C2089 C50 1.402 . S
C2113 C190 1.405 . S
C2121 C120 1.394 . S
C2145 C204 1.388 . S
C2153 C134 1.401 . S
C2177 C218 1.387 . S
C2185 C148 1.402 . S
C2209 C162 1.389 . S
C2217 C176 1.402 . S
C2241 C232 1.386 . S
C2249 C302 1.404 . S
C2273 C316 1.411 . S
C2281 C246 1.392 . S
C2305 C330 1.395 . S
C2313 C260 1.401 . S
C2337 C274 1.388 . S
C2345 C288 1.403 . S
C2369 C414 1.411 . S
C2377 C344 1.392 . S
C2401 C358 1.407 . S
C2409 C428 1.393 . S
C2433 C372 1.405 . S
C2441 C442 1.395 . S
C2465 C400 1.384 . S
C2473 C386 1.403 . S
