# Generated by pormake.
# Topology pcl, (4)-cn, num edge types: 1
# Building blocks:
#     Node 0, Type 0, BuildingBlock: GALJAG_clean_sbu_0, # of connection points: 4
#     Node 1, Type 0, BuildingBlock: GALJAG_clean_sbu_0, # of connection points: 4
#     Node 2, Type 0, BuildingBlock: GALJAG_clean_sbu_0, # of connection points: 4
#     Node 3, Type 0, BuildingBlock: GALJAG_clean_sbu_0, # of connection points: 4
#     Node 4, Type 0, BuildingBlock: GALJAG_clean_sbu_0, # of connection points: 4
#     Node 5, Type 0, BuildingBlock: GALJAG_clean_sbu_0, # of connection points: 4
#     Node 6, Type 0, BuildingBlock: GALJAG_clean_sbu_0, # of connection points: 4
#     Node 7, Type 0, BuildingBlock: GALJAG_clean_sbu_0, # of connection points: 4
#     Node 8, Type 0, BuildingBlock: GALJAG_clean_sbu_0, # of connection points: 4
#     Node 9, Type 0, BuildingBlock: GALJAG_clean_sbu_0, # of connection points: 4
#     Node 10, Type 0, BuildingBlock: GALJAG_clean_sbu_0, # of connection points: 4
#     Node 11, Type 0, BuildingBlock: GALJAG_clean_sbu_0, # of connection points: 4
#     Node 12, Type 0, BuildingBlock: GALJAG_clean_sbu_0, # of connection points: 4
#     Node 13, Type 0, BuildingBlock: GALJAG_clean_sbu_0, # of connection points: 4
#     Node 14, Type 0, BuildingBlock: GALJAG_clean_sbu_0, # of connection points: 4
#     Node 15, Type 0, BuildingBlock: GALJAG_clean_sbu_0, # of connection points: 4
#     Edge 16, Type (0, 0), BuildingBlock: EZIPEK_clean_linker_0, # of connection points: 2
#     Edge 17, Type (0, 0), BuildingBlock: EZIPEK_clean_linker_0, # of connection points: 2
#     Edge 18, Type (0, 0), BuildingBlock: EZIPEK_clean_linker_0, # of connection points: 2
#     Edge 19, Type (0, 0), BuildingBlock: EZIPEK_clean_linker_0, # of connection points: 2
#     Edge 20, Type (0, 0), BuildingBlock: EZIPEK_clean_linker_0, # of connection points: 2
#     Edge 21, Type (0, 0), BuildingBlock: EZIPEK_clean_linker_0, # of connection points: 2
#     Edge 22, Type (0, 0), BuildingBlock: EZIPEK_clean_linker_0, # of connection points: 2
#     Edge 23, Type (0, 0), BuildingBlock: EZIPEK_clean_linker_0, # of connection points: 2
#     Edge 24, Type (0, 0), BuildingBlock: EZIPEK_clean_linker_0, # of connection points: 2
#     Edge 25, Type (0, 0), BuildingBlock: EZIPEK_clean_linker_0, # of connection points: 2
#     Edge 26, Type (0, 0), BuildingBlock: EZIPEK_clean_linker_0, # of connection points: 2
#     Edge 27, Type (0, 0), BuildingBlock: EZIPEK_clean_linker_0, # of connection points: 2
#     Edge 28, Type (0, 0), BuildingBlock: EZIPEK_clean_linker_0, # of connection points: 2
#     Edge 29, Type (0, 0), BuildingBlock: EZIPEK_clean_linker_0, # of connection points: 2
#     Edge 30, Type (0, 0), BuildingBlock: EZIPEK_clean_linker_0, # of connection points: 2
#     Edge 31, Type (0, 0), BuildingBlock: EZIPEK_clean_linker_0, # of connection points: 2
#     Edge 32, Type (0, 0), BuildingBlock: EZIPEK_clean_linker_0, # of connection points: 2
#     Edge 33, Type (0, 0), BuildingBlock: EZIPEK_clean_linker_0, # of connection points: 2
#     Edge 34, Type (0, 0), BuildingBlock: EZIPEK_clean_linker_0, # of connection points: 2
#     Edge 35, Type (0, 0), BuildingBlock: EZIPEK_clean_linker_0, # of connection points: 2
#     Edge 36, Type (0, 0), BuildingBlock: EZIPEK_clean_linker_0, # of connection points: 2
#     Edge 37, Type (0, 0), BuildingBlock: EZIPEK_clean_linker_0, # of connection points: 2
#     Edge 38, Type (0, 0), BuildingBlock: EZIPEK_clean_linker_0, # of connection points: 2
#     Edge 39, Type (0, 0), BuildingBlock: EZIPEK_clean_linker_0, # of connection points: 2
#     Edge 40, Type (0, 0), BuildingBlock: EZIPEK_clean_linker_0, # of connection points: 2
#     Edge 41, Type (0, 0), BuildingBlock: EZIPEK_clean_linker_0, # of connection points: 2
#     Edge 42, Type (0, 0), BuildingBlock: EZIPEK_clean_linker_0, # of connection points: 2
#     Edge 43, Type (0, 0), BuildingBlock: EZIPEK_clean_linker_0, # of connection points: 2
#     Edge 44, Type (0, 0), BuildingBlock: EZIPEK_clean_linker_0, # of connection points: 2
#     Edge 45, Type (0, 0), BuildingBlock: EZIPEK_clean_linker_0, # of connection points: 2
#     Edge 46, Type (0, 0), BuildingBlock: EZIPEK_clean_linker_0, # of connection points: 2
#     Edge 47, Type (0, 0), BuildingBlock: EZIPEK_clean_linker_0, # of connection points: 2
# Relax obj value: 0.122
# Max RMSD: 0.108
# Mean RMSD: 0.092
data_MOF--net-pcl--node1-GALJAG_clean_sbu_0--edge1-EZIPEK_clean_linker_0
_symmetry_space_group_name_H-M    P1
_symmetry_Int_Tables_number       1
_symmetry_cell_setting            triclinic
loop_
_symmetry_equiv_pos_as_xyz
'x, y, z'
_cell_length_a     39.009553
_cell_length_b     29.43693
_cell_length_c     32.029777
_cell_angle_alpha  90.029469
_cell_angle_beta   90.015114
_cell_angle_gamma 90.054007
loop_
_atom_site_label
_atom_site_type_symbol
_atom_site_fract_x
_atom_site_fract_y
_atom_site_fract_z
_atom_type_partial_charge
In0 In 0.121 0.32949 0.07871 0.0
O1 O 0.1437 0.26471 0.0508 0.0
O2 O 0.17528 0.32385 0.0544 0.0
C3 C 0.05355 0.31093 0.07311 0.0
C4 C 0.13759 0.32365 0.16006 0.0
C5 C 0.12005 0.4082 0.036 0.0
O6 O 0.07512 0.29286 0.04892 0.0
O7 O 0.066 0.33723 0.10013 0.0
O8 O 0.12001 0.40676 0.07539 0.0
O9 O 0.12066 0.37005 0.01818 0.0
C10 C 0.17234 0.283 0.04324 0.0
O11 O 0.14331 0.3588 0.13866 0.0
O12 O 0.12445 0.29086 0.14031 0.0
In13 In 0.87473 0.67153 0.57227 0.0
O14 O 0.85465 0.73606 0.54037 0.0
O15 O 0.82412 0.67627 0.53764 0.0
C16 C 0.94023 0.7007 0.56689 0.0
C17 C 0.86101 0.66986 0.65456 0.0
C18 C 0.87353 0.58589 0.54392 0.0
O19 O 0.92754 0.67239 0.54182 0.0
O20 O 0.91945 0.71664 0.59321 0.0
O21 O 0.8598 0.59692 0.57812 0.0
O22 O 0.88765 0.61781 0.52407 0.0
C23 C 0.82732 0.71744 0.52807 0.0
O24 O 0.88425 0.64607 0.63819 0.0
O25 O 0.84432 0.6945 0.62957 0.0
In26 In 0.1212 0.66559 0.91962 0.0
O27 O 0.13391 0.6398 0.85457 0.0
O28 O 0.13094 0.71144 0.86352 0.0
C29 C 0.12107 0.58279 0.95419 0.0
C30 C 0.1749 0.70605 0.95719 0.0
C31 C 0.05424 0.68568 0.92824 0.0
O32 O 0.13062 0.58942 0.91702 0.0
O33 O 0.11164 0.61773 0.97388 0.0
O34 O 0.07641 0.69941 0.95403 0.0
O35 O 0.0658 0.66311 0.89799 0.0
C36 C 0.13602 0.67889 0.83864 0.0
O37 O 0.1483 0.72786 0.94708 0.0
O38 O 0.17419 0.66439 0.94841 0.0
In39 In 0.8768 0.3278 0.43022 0.0
O40 O 0.86801 0.35556 0.3651 0.0
O41 O 0.86579 0.28376 0.37279 0.0
C42 C 0.87527 0.40753 0.47058 0.0
C43 C 0.82422 0.28583 0.46796 0.0
C44 C 0.94403 0.30868 0.43589 0.0
O45 O 0.86317 0.40262 0.43434 0.0
O46 O 0.88793 0.37229 0.48676 0.0
O47 O 0.92188 0.2868 0.45641 0.0
O48 O 0.93236 0.3391 0.41223 0.0
C49 C 0.86345 0.31726 0.34842 0.0
O50 O 0.8533 0.26736 0.46461 0.0
O51 O 0.82163 0.32475 0.45198 0.0
In52 In 0.84257 0.6528 0.91643 0.0
O53 O 0.81891 0.69771 0.96671 0.0
O54 O 0.78658 0.67466 0.91752 0.0
C55 C 0.90842 0.6764 0.92778 0.0
C56 C 0.83468 0.57176 0.9536 0.0
C57 C 0.84264 0.66063 0.83288 0.0
O58 O 0.88433 0.70442 0.93334 0.0
O59 O 0.89926 0.63691 0.91731 0.0
O60 O 0.83976 0.62279 0.85096 0.0
O61 O 0.84484 0.69463 0.85672 0.0
C62 C 0.78928 0.69653 0.95113 0.0
O63 O 0.82111 0.58085 0.91885 0.0
O64 O 0.85203 0.60338 0.96965 0.0
In65 In 0.15616 0.33802 0.42228 0.0
O66 O 0.17758 0.41001 0.42767 0.0
O67 O 0.15148 0.3829 0.47958 0.0
C68 C 0.15658 0.33102 0.33862 0.0
C69 C 0.20967 0.29307 0.45497 0.0
C70 C 0.09 0.31574 0.4338 0.0
O71 O 0.15543 0.36886 0.35708 0.0
O72 O 0.15813 0.29669 0.36212 0.0
O73 O 0.11387 0.28762 0.44017 0.0
O74 O 0.09952 0.35479 0.42249 0.0
C75 C 0.16909 0.41529 0.46539 0.0
O76 O 0.17972 0.28931 0.46938 0.0
O77 O 0.2125 0.31783 0.42307 0.0
In78 In 0.8397 0.32519 0.0878 0.0
O79 O 0.83765 0.40209 0.08002 0.0
O80 O 0.83083 0.36117 0.02598 0.0
C81 C 0.83934 0.31576 0.17105 0.0
C82 C 0.78271 0.28253 0.0628 0.0
C83 C 0.90662 0.30999 0.0733 0.0
O84 O 0.83075 0.35234 0.15333 0.0
O85 O 0.84685 0.28338 0.14689 0.0
O86 O 0.88402 0.28164 0.06205 0.0
O87 O 0.89523 0.34518 0.09076 0.0
C88 C 0.83302 0.40061 0.04099 0.0
O89 O 0.81226 0.26911 0.05219 0.0
O90 O 0.78206 0.31553 0.08798 0.0
In91 In 0.15353 0.67274 0.57777 0.0
O92 O 0.17521 0.60113 0.57921 0.0
O93 O 0.147 0.6213 0.52529 0.0
C94 C 0.15539 0.68439 0.661 0.0
C95 C 0.20644 0.71439 0.54026 0.0
C96 C 0.08693 0.69425 0.56907 0.0
O97 O 0.1507 0.64615 0.64416 0.0
O98 O 0.16048 0.71677 0.63595 0.0
O99 O 0.11022 0.72361 0.56396 0.0
O100 O 0.09736 0.65484 0.57746 0.0
C101 C 0.16374 0.59059 0.54364 0.0
O102 O 0.17641 0.71596 0.52556 0.0
O103 O 0.20949 0.69336 0.5743 0.0
In104 In 0.62258 0.82558 0.07019 0.0
O105 O 0.63548 0.85909 0.13204 0.0
O106 O 0.63226 0.78674 0.13078 0.0
C107 C 0.61961 0.90961 0.03702 0.0
C108 C 0.67517 0.7807 0.03546 0.0
C109 C 0.55837 0.7957 0.05515 0.0
O110 O 0.60237 0.89844 0.0686 0.0
O111 O 0.63852 0.87889 0.02247 0.0
O112 O 0.58045 0.79911 0.0266 0.0
O113 O 0.56923 0.80462 0.09123 0.0
C114 C 0.6374 0.82227 0.15197 0.0
O115 O 0.64458 0.76694 0.03225 0.0
O116 O 0.67925 0.81602 0.05722 0.0
In117 In 0.37447 0.16516 0.57703 0.0
O118 O 0.35336 0.22915 0.54598 0.0
O119 O 0.31954 0.17304 0.55571 0.0
C120 C 0.44069 0.19036 0.56742 0.0
C121 C 0.35612 0.16572 0.65788 0.0
C122 C 0.37584 0.083 0.5403 0.0
O123 O 0.42063 0.18563 0.53692 0.0
O124 O 0.42712 0.18459 0.60261 0.0
O125 O 0.38672 0.08931 0.57694 0.0
O126 O 0.36409 0.11775 0.52248 0.0
C127 C 0.32372 0.21253 0.54148 0.0
O128 O 0.35886 0.12954 0.63701 0.0
O129 O 0.36194 0.20188 0.63791 0.0
In130 In 0.61764 0.17031 0.92662 0.0
O131 O 0.62817 0.14558 0.86076 0.0
O132 O 0.63191 0.21674 0.87204 0.0
C133 C 0.61815 0.0883 0.96334 0.0
C134 C 0.66694 0.20879 0.97355 0.0
C135 C 0.55094 0.19313 0.92454 0.0
O136 O 0.6345 0.09636 0.93018 0.0
O137 O 0.60129 0.12126 0.97769 0.0
O138 O 0.57333 0.21953 0.93963 0.0
O139 O 0.56232 0.15654 0.90959 0.0
C140 C 0.63395 0.18458 0.84605 0.0
O141 O 0.6355 0.21492 0.98092 0.0
O142 O 0.67339 0.18423 0.94233 0.0
In143 In 0.37862 0.82825 0.41806 0.0
O144 O 0.35456 0.77739 0.46327 0.0
O145 O 0.32136 0.81972 0.42768 0.0
C146 C 0.4448 0.8042 0.42301 0.0
C147 C 0.3696 0.81692 0.33569 0.0
C148 C 0.3776 0.90838 0.45831 0.0
O149 O 0.42154 0.78081 0.44016 0.0
O150 O 0.43466 0.83863 0.40322 0.0
O151 O 0.36248 0.90229 0.42396 0.0
O152 O 0.39324 0.87426 0.47236 0.0
C153 C 0.32419 0.7893 0.4551 0.0
O154 O 0.37452 0.85535 0.35205 0.0
O155 O 0.36925 0.7838 0.36071 0.0
In156 In 0.33955 0.16015 0.9204 0.0
O157 O 0.32542 0.08531 0.92681 0.0
O158 O 0.3505 0.11754 0.97798 0.0
C159 C 0.33633 0.16282 0.83663 0.0
C160 C 0.28576 0.20242 0.95551 0.0
C161 C 0.40523 0.18682 0.92541 0.0
O162 O 0.3322 0.12656 0.85704 0.0
O163 O 0.34044 0.19815 0.85842 0.0
O164 O 0.38087 0.21428 0.93151 0.0
O165 O 0.39647 0.14663 0.91701 0.0
C166 C 0.33757 0.08176 0.96317 0.0
O167 O 0.31577 0.20618 0.96961 0.0
O168 O 0.28288 0.17879 0.92291 0.0
In169 In 0.65525 0.83793 0.41391 0.0
O170 O 0.67037 0.91271 0.41921 0.0
O171 O 0.64568 0.88146 0.4712 0.0
C172 C 0.65562 0.83028 0.33042 0.0
C173 C 0.71129 0.79776 0.44564 0.0
C174 C 0.58994 0.81141 0.42351 0.0
O175 O 0.65668 0.86828 0.34867 0.0
O176 O 0.65543 0.79607 0.35412 0.0
O177 O 0.61458 0.78447 0.42998 0.0
O178 O 0.59822 0.8511 0.41282 0.0
C179 C 0.65891 0.91677 0.45588 0.0
O180 O 0.68177 0.79135 0.46055 0.0
O181 O 0.71258 0.82338 0.4142 0.0
In182 In 0.34896 0.82282 0.07415 0.0
O183 O 0.32573 0.89418 0.07617 0.0
O184 O 0.36048 0.8778 0.02705 0.0
C185 C 0.35179 0.81455 0.15745 0.0
C186 C 0.2946 0.78192 0.03807 0.0
C187 C 0.4135 0.79688 0.05793 0.0
O188 O 0.34757 0.85236 0.13963 0.0
O189 O 0.35393 0.78064 0.13348 0.0
O190 O 0.38859 0.77006 0.05238 0.0
O191 O 0.40571 0.83583 0.07101 0.0
C192 C 0.34137 0.90708 0.04374 0.0
O193 O 0.32049 0.79464 0.01773 0.0
O194 O 0.29654 0.78831 0.07688 0.0
In195 In 0.65312 0.16631 0.5857 0.0
O196 O 0.66953 0.09179 0.58326 0.0
O197 O 0.64557 0.12049 0.52956 0.0
C198 C 0.65538 0.18027 0.66882 0.0
C199 C 0.70764 0.20661 0.55096 0.0
C200 C 0.58699 0.18769 0.57264 0.0
O201 O 0.64951 0.14187 0.65295 0.0
O202 O 0.66156 0.21144 0.64292 0.0
O203 O 0.61086 0.21433 0.56202 0.0
O204 O 0.59655 0.15117 0.58941 0.0
C205 C 0.65881 0.08605 0.54643 0.0
O206 O 0.67743 0.22002 0.54408 0.0
O207 O 0.71047 0.17364 0.57585 0.0
C208 C 0.99761 0.34567 0.05335 0.0
C209 C 0.01614 0.30704 0.06706 0.0
C210 C 0.96228 0.26648 0.08032 0.0
C211 C 0.94387 0.30488 0.0655 0.0
N212 N 0.94415 0.37494 0.02658 0.0
N213 N 0.01707 0.22767 0.08543 0.0
C214 C 0.96166 0.34252 0.04839 0.0
C215 C 0.99875 0.26625 0.07745 0.0
N216 N 0.01411 0.38594 0.04625 0.0
N217 N 0.94533 0.23181 0.0998 0.0
H218 H 0.0438 0.22687 0.0853 0.0
H219 H 0.00582 0.19581 0.08896 0.0
H220 H 0.91878 0.23075 0.10302 0.0
H221 H 0.95771 0.20562 0.11558 0.0
H222 H 0.00132 0.4165 0.04123 0.0
H223 H 0.04058 0.38979 0.04844 0.0
H224 H 0.95606 0.40071 0.00965 0.0
H225 H 0.9178 0.37322 0.02177 0.0
C226 C 0.99611 0.72529 0.53553 0.0
C227 C 0.97771 0.70738 0.56999 0.0
C228 C 0.03155 0.69423 0.60723 0.0
C229 C 0.04995 0.70514 0.57042 0.0
N230 N 0.05034 0.72922 0.4985 0.0
N231 N 0.97802 0.66877 0.63672 0.0
C232 C 0.03248 0.7209 0.53438 0.0
C233 C 0.99538 0.69086 0.60565 0.0
N234 N 0.97875 0.74681 0.50421 0.0
N235 N 0.04874 0.68725 0.64388 0.0
H236 H 0.95159 0.66407 0.63669 0.0
H237 H 0.99016 0.65129 0.66081 0.0
H238 H 0.07536 0.68885 0.64615 0.0
H239 H 0.03654 0.68426 0.67268 0.0
H240 H 0.99076 0.76436 0.48009 0.0
H241 H 0.95214 0.75051 0.50443 0.0
H242 H 0.03872 0.73573 0.46986 0.0
H243 H 0.07696 0.72678 0.49667 0.0
C244 C 0.96212 0.7176 0.90646 0.0
C245 C 0.94496 0.68766 0.93423 0.0
C246 C -0.00024 0.66241 0.96326 0.0
C247 C 0.01702 0.69122 0.93464 0.0
N248 N 0.0158 0.75323 0.88584 0.0
N249 N 0.94601 0.64154 0.99621 0.0
C250 C 0.99848 0.72122 0.90848 0.0
C251 C 0.96342 0.66328 0.96499 0.0
N252 N 0.94386 0.74064 0.87684 0.0
N253 N 0.018 0.63244 0.98712 0.0
H254 H 0.91933 0.64222 0.99853 0.0
H255 H 0.95789 0.62665 0.02188 0.0
H256 H 0.0447 0.63167 0.98773 0.0
H257 H 0.00678 0.6065 0.00447 0.0
H258 H 0.95504 0.7585 0.85233 0.0
H259 H 0.91717 0.74018 0.87546 0.0
H260 H 0.00388 0.77891 0.86891 0.0
H261 H 0.04245 0.75637 0.88678 0.0
C262 C 0.03604 0.27662 0.41121 0.0
C263 C 0.05334 0.30501 0.44017 0.0
C264 C 0.99869 0.32412 0.47366 0.0
C265 C 0.98127 0.30172 0.4407 0.0
N266 N 0.98211 0.25701 0.37776 0.0
N267 N 0.05238 0.35461 0.50002 0.0
C268 C -0.0004 0.27755 0.40963 0.0
C269 C 0.035 0.32806 0.47203 0.0
N270 N 0.05442 0.24902 0.38522 0.0
N271 N 0.98042 0.34165 0.50634 0.0
H272 H 0.07909 0.35557 0.50159 0.0
H273 H 0.04059 0.37691 0.52072 0.0
H274 H 0.95376 0.3398 0.5081 0.0
H275 H 0.99152 0.35497 0.53323 0.0
H276 H 0.04339 0.22456 0.36597 0.0
H277 H 0.08112 0.24787 0.38528 0.0
H278 H 0.99383 0.24366 0.35128 0.0
H279 H 0.9554 0.25532 0.37679 0.0
C280 C 0.46797 0.75538 0.07449 0.0
C281 C 0.44945 0.78551 0.04845 0.0
C282 C 0.50272 0.81696 0.02072 0.0
C283 C 0.52154 0.78729 0.04721 0.0
N284 N 0.52275 0.72022 0.0902 0.0
N285 N 0.44814 0.83374 0.98798 0.0
C286 C 0.5043 0.75369 0.07105 0.0
C287 C 0.46661 0.81229 0.01839 0.0
N288 N 0.45114 0.73056 0.10414 0.0
N289 N 0.51865 0.8521 0.00063 0.0
H290 H 0.42154 0.8306 0.98566 0.0
H291 H 0.45939 0.85048 0.96281 0.0
H292 H 0.54486 0.85831 0.00232 0.0
H293 H 0.5054 0.87774 0.98511 0.0
H294 H 0.46361 0.71229 0.12746 0.0
H295 H 0.4245 0.73023 0.10684 0.0
H296 H 0.51156 0.6925 0.10512 0.0
H297 H 0.54937 0.71794 0.0876 0.0
C298 C 0.53207 0.23081 0.58424 0.0
C299 C 0.55039 0.19583 0.56353 0.0
C300 C 0.49682 0.15943 0.54264 0.0
C301 C 0.47821 0.19477 0.56253 0.0
N302 N 0.47745 0.26883 0.5945 0.0
N303 N 0.55082 0.13565 0.51265 0.0
C304 C 0.49568 0.2321 0.58084 0.0
C305 C 0.53287 0.16314 0.53918 0.0
N306 N 0.54921 0.26127 0.60877 0.0
N307 N 0.48054 0.12063 0.52999 0.0
H308 H 0.57732 0.13834 0.50886 0.0
H309 H 0.53914 0.11383 0.49132 0.0
H310 H 0.45441 0.11507 0.53415 0.0
H311 H 0.49351 0.09194 0.51937 0.0
H312 H 0.53704 0.28401 0.62876 0.0
H313 H 0.57587 0.26219 0.61083 0.0
H314 H 0.48879 0.2989 0.60464 0.0
H315 H 0.45079 0.27063 0.59226 0.0
C316 C 0.4958 0.20391 0.88646 0.0
C317 C 0.51373 0.20285 0.92497 0.0
C318 C 0.45927 0.20691 0.96311 0.0
C319 C 0.44163 0.20048 0.92492 0.0
N320 N 0.44166 0.19532 0.84991 0.0
N321 N 0.51325 0.20166 0.00036 0.0
C322 C 0.4595 0.20024 0.88641 0.0
C323 C 0.49572 0.20495 0.96349 0.0
N324 N 0.51366 0.20907 0.85005 0.0
N325 N 0.44109 0.2141 0.99898 0.0
H326 H 0.5399 0.20027 0.00212 0.0
H327 H 0.50146 0.19735 0.02923 0.0
H328 H 0.41436 0.2145 -0.00026 0.0
H329 H 0.45228 0.22344 0.02722 0.0
H330 H 0.50229 0.21426 0.82106 0.0
H331 H 0.54027 0.21182 0.84934 0.0
H332 H 0.45302 0.18886 0.82113 0.0
H333 H 0.41494 0.19627 0.84862 0.0
C334 C 0.49983 0.77759 0.39234 0.0
C335 C 0.48169 0.7944 0.42737 0.0
C336 C 0.53573 0.80809 0.46433 0.0
C337 C 0.55365 0.79802 0.42703 0.0
N338 N 0.55416 0.77258 0.35556 0.0
N339 N 0.48115 0.82567 0.49692 0.0
C340 C 0.53614 0.78184 0.39118 0.0
C341 C 0.49929 0.80884 0.46382 0.0
N342 N 0.48214 0.75757 0.36038 0.0
N343 N 0.55374 0.81716 0.50001 0.0
H344 H 0.45443 0.82522 0.49815 0.0
H345 H 0.49231 0.84201 0.52234 0.0
H346 H 0.58049 0.81713 0.50097 0.0
H347 H 0.54249 0.82107 0.52924 0.0
H348 H 0.49375 0.74121 0.3353 0.0
H349 H 0.45551 0.75406 0.36074 0.0
H350 H 0.54283 0.76591 0.32679 0.0
H351 H 0.58089 0.77349 0.35434 0.0
C352 C 0.17642 0.32833 0.22229 0.0
C353 C 0.14293 0.32271 0.20576 0.0
C354 C 0.1193 0.31753 0.27654 0.0
C355 C 0.15231 0.32704 0.29297 0.0
N356 N 0.21178 0.34594 0.28264 0.0
N357 N 0.08169 0.31873 0.2164 0.0
C358 C 0.18077 0.33374 0.26615 0.0
C359 C 0.11414 0.31868 0.23266 0.0
N360 N 0.2041 0.32683 0.19612 0.0
N361 N 0.09281 0.30754 0.30298 0.0
H362 H 0.07659 0.32003 0.18449 0.0
H363 H 0.0596 0.32128 0.23446 0.0
H364 H 0.09495 0.30939 0.33537 0.0
H365 H 0.06933 0.29463 0.29304 0.0
H366 H 0.22939 0.32615 0.20643 0.0
H367 H 0.20179 0.32245 0.16391 0.0
H368 H 0.2326 0.3563 0.2647 0.0
H369 H 0.21611 0.34851 0.31471 0.0
C370 C 0.82371 0.65353 0.71662 0.0
C371 C 0.85505 0.67012 0.70006 0.0
C372 C 0.87866 0.67768 0.77048 0.0
C373 C 0.84654 0.6644 0.78721 0.0
N374 N 0.78685 0.64623 0.77731 0.0
N375 N 0.90951 0.70721 0.71084 0.0
C376 C 0.81853 0.65418 0.76059 0.0
C377 C 0.88173 0.6849 0.7269 0.0
N378 N 0.79955 0.63542 0.69052 0.0
N379 N 0.90666 0.68133 0.79597 0.0
H380 H 0.91223 0.71417 0.6791 0.0
H381 H 0.9281 0.72281 0.72928 0.0
H382 H 0.90567 0.67506 0.82798 0.0
H383 H 0.93149 0.68626 0.78491 0.0
H384 H 0.77788 0.6182 0.70102 0.0
H385 H 0.80239 0.63448 0.65815 0.0
H386 H 0.76463 0.64333 0.75948 0.0
H387 H 0.78226 0.64613 0.80941 0.0
C388 C 0.17352 0.66646 0.77638 0.0
C389 C 0.14344 0.68569 0.79383 0.0
C390 C 0.12729 0.71571 0.72527 0.0
C391 C 0.15421 0.69017 0.70688 0.0
N392 N 0.20329 0.64106 0.71418 0.0
N393 N 0.08917 0.72381 0.78439 0.0
C394 C 0.17749 0.66554 0.73228 0.0
C395 C 0.11984 0.70962 0.7683 0.0
N396 N 0.19882 0.65059 0.80209 0.0
N397 N 0.10859 0.74548 0.70176 0.0
H398 H 0.08214 0.71917 0.81549 0.0
H399 H 0.06926 0.73642 0.76609 0.0
H400 H 0.11246 0.75035 0.66993 0.0
H401 H 0.09118 0.76839 0.71457 0.0
H402 H 0.22281 0.64022 0.79152 0.0
H403 H 0.19708 0.65173 0.83457 0.0
H404 H 0.21829 0.6177 0.73034 0.0
H405 H 0.20884 0.64268 0.68234 0.0
C406 C 0.87665 0.33238 0.23238 0.0
C407 C 0.84587 0.31342 0.21636 0.0
C408 C 0.8268 0.29477 0.28722 0.0
C409 C 0.85811 0.31244 0.303 0.0
N410 N 0.916 0.33781 0.29072 0.0
N411 N 0.79432 0.26977 0.22663 0.0
C412 C 0.88396 0.32836 0.27559 0.0
C413 C 0.82181 0.29228 0.24323 0.0
N414 N 0.89874 0.3548 0.20638 0.0
N415 N 0.80129 0.28247 0.31423 0.0
H416 H 0.7894 0.26866 0.19462 0.0
H417 H 0.77778 0.24959 0.24413 0.0
H418 H 0.80409 0.28362 0.3466 0.0
H419 H 0.77655 0.27408 0.3048 0.0
H420 H 0.91933 0.37417 0.21696 0.0
H421 H 0.89532 0.35666 0.17416 0.0
H422 H 0.93701 0.34494 0.27178 0.0
H423 H 0.92255 0.33418 0.32212 0.0
C424 C 0.67746 0.80829 0.25957 0.0
C425 C 0.65083 0.8263 0.28482 0.0
C426 C 0.61405 0.83534 0.22331 0.0
C427 C 0.64177 0.82145 0.19771 0.0
N428 N 0.70043 0.79766 0.18968 0.0
N429 N 0.59424 0.85869 0.29174 0.0
C430 C 0.67359 0.80832 0.21535 0.0
C431 C 0.61925 0.84038 0.26695 0.0
N432 N 0.70634 0.79115 0.27793 0.0
N433 N 0.58236 0.84195 0.20596 0.0
H434 H 0.59577 0.85973 0.32421 0.0
H435 H 0.57255 0.87497 0.28022 0.0
H436 H 0.57757 0.83862 0.17407 0.0
H437 H 0.56012 0.84714 0.22323 0.0
H438 H 0.72507 0.77305 0.26189 0.0
H439 H 0.71077 0.79264 0.31002 0.0
H440 H 0.7254 0.79258 0.20008 0.0
H441 H 0.69822 0.79655 0.15723 0.0
C442 C 0.36977 0.14145 0.77302 0.0
C443 C 0.34064 0.16307 0.79074 0.0
C444 C 0.32053 0.18464 0.72085 0.0
C445 C 0.35064 0.16531 0.70353 0.0
N446 N 0.40704 0.13338 0.71299 0.0
N447 N 0.29012 0.20944 0.783 0.0
C448 C 0.37604 0.14565 0.72953 0.0
C449 C 0.31661 0.18612 0.76507 0.0
N450 N 0.39167 0.11704 0.79771 0.0
N451 N 0.29516 0.1999 0.69494 0.0
H452 H 0.28527 0.20902 0.81502 0.0
H453 H 0.27403 0.23124 0.76661 0.0
H454 H 0.29728 0.19938 0.66247 0.0
H455 H 0.27106 0.21004 0.70522 0.0
H456 H 0.41052 0.09556 0.78592 0.0
H457 H 0.39002 0.11598 0.83015 0.0
H458 H 0.42813 0.12403 0.73095 0.0
H459 H 0.41296 0.13644 0.68137 0.0
C460 C 0.62197 0.21746 0.77497 0.0
C461 C 0.64326 0.1912 0.8016 0.0
C462 C 0.67565 0.16305 0.7413 0.0
C463 C 0.65365 0.18798 0.71448 0.0
N464 N 0.60974 0.245 0.7052 0.0
N465 N 0.69543 0.14917 0.81205 0.0
C466 C 0.62827 0.2175 0.73119 0.0
C467 C 0.67165 0.16697 0.78527 0.0
N468 N 0.59443 0.24012 0.79119 0.0
N469 N 0.70017 0.13524 0.72462 0.0
H470 H 0.6937 0.15274 0.8444 0.0
H471 H 0.71844 0.13464 0.8025 0.0
H472 H 0.70591 0.13448 0.69282 0.0
H473 H 0.71398 0.11158 0.74191 0.0
H474 H 0.57494 0.25426 0.77325 0.0
H475 H 0.59 0.24325 0.82308 0.0
H476 H 0.59411 0.27129 0.7156 0.0
H477 H 0.61128 0.2436 0.6728 0.0
C478 C 0.38884 0.82545 0.22017 0.0
C479 C 0.35714 0.81101 0.2029 0.0
C480 C 0.33395 0.79772 0.27293 0.0
C481 C 0.36587 0.81141 0.29012 0.0
N482 N 0.4258 0.82864 0.28104 0.0
N483 N 0.30171 0.77597 0.21117 0.0
C484 C 0.39395 0.82254 0.26398 0.0
C485 C 0.33041 0.79455 0.22881 0.0
N486 N 0.4139 0.84243 0.19467 0.0
N487 N 0.3066 0.79003 0.2987 0.0
H488 H 0.29778 0.77467 0.17897 0.0
H489 H 0.28291 0.75895 0.22811 0.0
H490 H 0.30828 0.79168 0.33117 0.0
H491 H 0.28167 0.78503 0.28807 0.0
H492 H 0.43581 0.85874 0.20563 0.0
H493 H 0.41203 0.84248 0.16218 0.0
H494 H 0.44809 0.8322 0.26349 0.0
H495 H 0.43054 0.8261 0.31301 0.0
C496 C 0.24672 0.20483 0.01729 0.0
C497 C 0.25583 0.22171 0.97726 0.0
C498 C 0.20659 0.27307 0.97822 0.0
C499 C 0.19979 0.25979 0.01999 0.0
N500 N 0.21489 0.21699 0.08138 0.0
N501 N 0.24733 0.275 0.92109 0.0
C502 C 0.22017 0.22658 0.0401 0.0
C503 C 0.23644 0.25653 0.95796 0.0
N504 N 0.26263 0.16703 0.03279 0.0
N505 N 0.18396 0.30055 0.95761 0.0
H506 H 0.26905 0.26361 0.90523 0.0
H507 H 0.23652 0.3039 0.9078 0.0
H508 H 0.1617 0.31312 0.97144 0.0
H509 H 0.18554 0.30766 0.92584 0.0
H510 H 0.25464 0.15022 0.05967 0.0
H511 H 0.28207 0.14995 0.01689 0.0
H512 H 0.23141 0.19704 0.09913 0.0
H513 H 0.1952 0.23165 0.09883 0.0
C514 C 0.79278 0.7298 0.46354 0.0
C515 C 0.80009 0.7419 0.50546 0.0
C516 C 0.75208 0.79538 0.50562 0.0
C517 C 0.74243 0.77938 0.46551 0.0
N518 N 0.75125 0.72905 0.40711 0.0
N519 N 0.7852 0.78229 0.56846 0.0
C520 C 0.76229 0.74619 0.44447 0.0
C521 C 0.77953 0.77394 0.52701 0.0
N522 N 0.81544 0.70342 0.44179 0.0
N523 N 0.73563 0.83195 0.52274 0.0
H524 H 0.80539 0.76784 0.58516 0.0
H525 H 0.76852 0.80096 0.58714 0.0
H526 H 0.71523 0.84843 0.50815 0.0
H527 H 0.74398 0.84844 0.54965 0.0
H528 H 0.81345 0.69702 0.40992 0.0
H529 H 0.83805 0.69098 0.45492 0.0
H530 H 0.76247 0.70127 0.39237 0.0
H531 H 0.72915 0.74049 0.39208 0.0
C532 C 0.23068 0.77922 0.02807 0.0
C533 C 0.26379 0.76273 0.01756 0.0
C534 C 0.23849 0.71625 0.9623 0.0
C535 C 0.20521 0.7273 0.97707 0.0
N536 N 0.17013 0.76219 0.03048 0.0
N537 N 0.29819 0.70759 0.9805 0.0
C538 C 0.20134 0.75686 0.01176 0.0
C539 C 0.26747 0.72897 0.98629 0.0
N540 N 0.22704 0.81741 0.05195 0.0
N541 N 0.24265 0.69533 0.92453 0.0
H542 H 0.31974 0.71418 0.99879 0.0
H543 H 0.30113 0.67976 0.9607 0.0
H544 H 0.22223 0.68784 0.90465 0.0
H545 H 0.26659 0.69035 0.91084 0.0
H546 H 0.20342 0.83302 0.05696 0.0
H547 H 0.24774 0.83648 0.06277 0.0
H548 H 0.16693 0.77996 0.05837 0.0
H549 H 0.14814 0.745 0.02087 0.0
C550 C 0.75094 0.2687 0.54411 0.0
C551 C 0.7376 0.22668 0.52988 0.0
C552 C 0.78052 0.22388 0.47406 0.0
C553 C 0.79528 0.26435 0.49004 0.0
N554 N 0.79866 0.32158 0.54384 0.0
N555 N 0.74093 0.16135 0.48456 0.0
C556 C 0.78156 0.28589 0.526 0.0
C557 C 0.7529 0.20327 0.49592 0.0
N558 N 0.73416 0.29232 0.57468 0.0
N559 N 0.7917 0.20656 0.43683 0.0
H560 H 0.71922 0.14656 0.49784 0.0
H561 H 0.75354 0.14003 0.46368 0.0
H562 H 0.81175 0.22086 0.41975 0.0
H563 H 0.77953 0.18014 0.42109 0.0
H564 H 0.74025 0.32552 0.58308 0.0
H565 H 0.71246 0.27986 0.58991 0.0
H566 H 0.79198 0.33585 0.57244 0.0
H567 H 0.82151 0.33462 0.53191 0.0
C568 C 0.71004 0.71158 0.0182 0.0
C569 C 0.70398 0.75878 0.01324 0.0
C570 C 0.7553 0.7655 0.96948 0.0
C571 C 0.75959 0.71783 0.97164 0.0
N572 N 0.73804 0.64409 0.99159 0.0
N573 N 0.71617 0.82866 0.97643 0.0
C574 C 0.73592 0.69038 0.99388 0.0
C575 C 0.7254 0.78533 0.98688 0.0
N576 N 0.69233 0.68746 0.04764 0.0
N577 N 0.77975 0.79185 0.95077 0.0
H578 H 0.69365 0.8439 0.9868 0.0
H579 H 0.72891 0.84789 0.95397 0.0
H580 H 0.80121 0.77836 0.93581 0.0
H581 H 0.78001 0.82718 0.95264 0.0
H582 H 0.69822 0.65411 0.05571 0.0
H583 H 0.67385 0.702 0.06698 0.0
H584 H 0.71935 0.62239 0.00353 0.0
H585 H 0.75703 0.62726 0.97471 0.0
C586 C 0.27538 0.26802 0.53924 0.0
C587 C 0.29626 0.23589 0.51845 0.0
C588 C 0.25973 0.23992 0.45632 0.0
C589 C 0.23977 0.27369 0.47638 0.0
N590 N 0.23256 0.32713 0.5329 0.0
N591 N 0.31268 0.19677 0.45543 0.0
C592 C 0.24867 0.28979 0.51678 0.0
C593 C 0.28975 0.22351 0.47638 0.0
N594 N 0.28052 0.2768 0.5807 0.0
N595 N 0.24921 0.2223 0.41893 0.0
H596 H 0.33489 0.18403 0.46927 0.0
H597 H 0.31131 0.1903 0.42352 0.0
H598 H 0.22736 0.23361 0.4033 0.0
H599 H 0.2605 0.19416 0.40487 0.0
H600 H 0.26364 0.29577 0.59885 0.0
H601 H 0.30055 0.26247 0.59781 0.0
H602 H 0.24027 0.34333 0.56024 0.0
H603 H 0.21337 0.34461 0.51696 0.0
C604 C 0.74385 0.21725 0.04631 0.0
C605 C 0.75121 0.26425 0.04331 0.0
C606 C 0.69955 0.2758 0.00085 0.0
C607 C 0.69453 0.2281 -0.00024 0.0
N608 N 0.71284 0.15249 0.01875 0.0
N609 N 0.7392 0.33768 0.01275 0.0
C610 C 0.71698 0.19852 0.02171 0.0
C611 C 0.72968 0.29356 0.0197 0.0
N612 N 0.76175 0.19089 0.07388 0.0
N613 N 0.67587 0.30419 0.98327 0.0
H614 H 0.76131 0.35227 0.02509 0.0
H615 H 0.72683 0.35901 0.99166 0.0
H616 H 0.65468 0.29272 0.96647 0.0
H617 H 0.67589 0.33923 0.98777 0.0
H618 H 0.75536 0.1574 0.08084 0.0
H619 H 0.78124 0.20375 0.09283 0.0
H620 H 0.73074 0.12914 0.02969 0.0
H621 H 0.69237 0.13732 0.00314 0.0
C622 C 0.26153 0.70401 0.50135 0.0
C623 C 0.23636 0.73364 0.51822 0.0
C624 C 0.27038 0.79962 0.49691 0.0
C625 C 0.294 0.77007 0.47681 0.0
N626 N 0.3086 0.69486 0.45275 0.0
N627 N 0.21418 0.80937 0.52793 0.0
C628 C 0.28876 0.7224 0.47723 0.0
C629 C 0.23988 0.78139 0.51448 0.0
N630 N 0.25952 0.65825 0.50835 0.0
N631 N 0.27796 0.84476 0.5013 0.0
H632 H 0.19238 0.79758 0.54333 0.0
H633 H 0.21337 0.844 0.52139 0.0
H634 H 0.30031 0.85951 0.48974 0.0
H635 H 0.26371 0.86696 0.5197 0.0
H636 H 0.27923 0.63573 0.50119 0.0
H637 H 0.23917 0.64289 0.524 0.0
H638 H 0.3036 0.66047 0.44816 0.0
H639 H 0.32819 0.70708 0.43366 0.0
C640 C 0.14528 0.52829 0.00614 0.0
C641 C 0.12155 0.53743 0.97368 0.0
C642 C 0.09683 0.46125 0.98111 0.0
C643 C 0.12144 0.45156 0.01264 0.0
N644 N 0.17438 0.47114 0.0473 0.0
N645 N 0.07766 0.51187 0.92608 0.0
C646 C 0.14709 0.48384 0.02311 0.0
C647 C 0.09834 0.50355 0.95973 0.0
N648 N 0.16617 0.56207 0.02081 0.0
N649 N 0.07103 0.43104 0.9729 0.0
H650 H 0.07618 0.54342 0.91141 0.0
H651 H 0.06338 0.48688 0.91099 0.0
H652 H 0.06956 0.39893 0.98631 0.0
H653 H 0.04972 0.43863 0.95465 0.0
H654 H 0.18072 0.5591 0.04793 0.0
H655 H 0.16747 0.5943 0.00743 0.0
H656 H 0.19571 0.49166 0.05247 0.0
H657 H 0.17758 0.43824 0.05871 0.0
C658 C 0.90537 0.51592 0.52346 0.0
C659 C 0.87366 0.53884 0.52824 0.0
C660 C 0.84293 0.47228 0.50181 0.0
C661 C 0.87481 0.45166 0.49227 0.0
N662 N 0.9366 0.45538 0.48916 0.0
N663 N 0.81245 0.54183 0.51765 0.0
C664 C 0.90616 0.47371 0.50203 0.0
C665 C 0.84241 0.51776 0.51652 0.0
N666 N 0.93455 0.53394 0.54043 0.0
N667 N 0.81324 0.44787 0.49799 0.0
H668 H 0.81096 0.57526 0.52829 0.0
H669 H 0.78954 0.53001 0.50496 0.0
H670 H 0.81269 0.41427 0.48767 0.0
H671 H 0.78957 0.45939 0.50865 0.0
H672 H 0.95777 0.51658 0.54183 0.0
H673 H 0.93488 0.5647 0.55663 0.0
H674 H 0.95996 0.47237 0.49126 0.0
H675 H 0.93833 0.42459 0.47318 0.0
C676 C 0.80983 0.47884 0.03005 0.0
C677 C 0.83012 0.44229 0.01513 0.0
C678 C 0.84756 0.48862 0.95496 0.0
C679 C 0.83159 0.52682 0.97359 0.0
N680 N 0.79994 0.55997 0.03074 0.0
N681 N 0.87067 0.41327 0.96426 0.0
C682 C 0.81347 0.52245 0.01174 0.0
C683 C 0.84923 0.44708 0.97746 0.0
N684 N 0.78577 0.4713 0.06032 0.0
N685 N 0.86155 0.49206 0.91592 0.0
H686 H 0.87231 0.38152 0.97819 0.0
H687 H 0.88888 0.41762 0.94083 0.0
H688 H 0.86334 0.52254 0.89952 0.0
H689 H 0.86934 0.46407 0.89844 0.0
H690 H 0.76797 0.49561 0.06966 0.0
H691 H 0.78091 0.43917 0.07272 0.0
H692 H 0.79001 0.55955 0.06093 0.0
H693 H 0.80078 0.59233 0.0176 0.0
C694 C 0.16308 0.4624 0.53106 0.0
C695 C 0.17592 0.45784 0.4898 0.0
C696 C 0.1868 0.5399 0.48717 0.0
C697 C 0.16876 0.54496 0.52542 0.0
N698 N 0.13626 0.51159 0.58182 0.0
N699 N 0.21644 0.48852 0.44045 0.0
C700 C 0.15632 0.50635 0.54713 0.0
C701 C 0.19252 0.49556 0.47093 0.0
N702 N 0.16018 0.42515 0.55624 0.0
N703 N 0.19806 0.5774 0.46604 0.0
H704 H 0.22537 0.45623 0.43278 0.0
H705 H 0.23132 0.51423 0.42742 0.0
H706 H 0.19619 0.6103 0.47782 0.0
H707 H 0.20733 0.5763 0.43558 0.0
H708 H 0.15358 0.42703 0.5877 0.0
H709 H 0.16963 0.39338 0.54777 0.0
H710 H 0.12313 0.48478 0.59581 0.0
H711 H 0.12991 0.54318 0.59434 0.0
C712 C 0.6297 0.03731 0.02444 0.0
C713 C 0.6176 0.04289 0.9829 0.0
C714 C 0.6058 0.96126 0.97743 0.0
C715 C 0.61827 0.95555 0.01874 0.0
N716 N 0.64624 0.98557 0.07996 0.0
N717 N 0.58779 0.01314 0.92284 0.0
C718 C 0.63094 0.99299 0.04208 0.0
C719 C 0.60417 0.0056 0.96002 0.0
N720 N 0.63966 0.07447 0.04711 0.0
N721 N 0.59599 0.92412 0.95463 0.0
H722 H 0.58524 0.04527 0.90951 0.0
H723 H 0.57409 0.98848 0.90661 0.0
H724 H 0.59464 0.89142 0.96699 0.0
H725 H 0.59095 0.9249 0.92275 0.0
H726 H 0.64473 0.07391 0.07897 0.0
H727 H 0.6412 0.10709 0.03468 0.0
H728 H 0.65943 0.01021 0.09682 0.0
H729 H 0.64801 0.95358 0.09375 0.0
C730 C 0.39312 0.9908 0.45985 0.0
C731 C 0.37791 0.95274 0.47982 0.0
C732 C 0.35961 0.00078 0.53821 0.0
C733 C 0.37669 0.03819 0.51958 0.0
N734 N 0.41378 0.06818 0.46588 0.0
N735 N 0.35085 0.91936 0.54035 0.0
C736 C 0.39439 0.03314 0.48112 0.0
C737 C 0.36262 0.95703 0.51985 0.0
N738 N 0.40654 0.98644 0.42058 0.0
N739 N 0.33881 0.00757 0.57205 0.0
H740 H 0.35063 0.88698 0.52723 0.0
H741 H 0.3434 0.91954 0.57156 0.0
H742 H 0.3352 0.03928 0.58588 0.0
H743 H 0.3226 0.98277 0.58419 0.0
H744 H 0.41359 0.01392 0.40202 0.0
H745 H 0.40924 0.95532 0.40539 0.0
H746 H 0.43071 0.06498 0.44096 0.0
H747 H 0.41509 0.10001 0.47999 0.0
C748 C 0.36987 0.97935 0.02329 0.0
C749 C 0.33926 0.95373 0.02716 0.0
C750 C 0.30672 0.01561 0.99501 0.0
C751 C 0.33798 0.03831 0.98615 0.0
N752 N 0.39994 0.03857 0.98598 0.0
N753 N 0.27897 0.94442 0.0125 0.0
C754 C 0.36977 0.0195 0.9989 0.0
C755 C 0.30767 0.9711 0.01217 0.0
N756 N 0.39886 0.96591 0.04388 0.0
N757 N 0.27616 0.03709 0.98822 0.0
H758 H 0.2786 0.91162 0.02478 0.0
H759 H 0.2562 0.95338 0.99766 0.0
H760 H 0.27448 0.0699 0.9761 0.0
H761 H 0.25268 0.02412 0.99811 0.0
H762 H 0.42096 0.98571 0.04565 0.0
H763 H 0.39972 0.93712 0.06284 0.0
H764 H 0.42374 0.02332 0.9905 0.0
H765 H 0.40117 0.06746 0.96724 0.0
C766 C 0.62781 0.02051 0.51473 0.0
C767 C 0.65939 0.04155 0.52519 0.0
C768 C 0.69096 0.97893 0.49254 0.0
C769 C 0.65936 0.96023 0.47881 0.0
N770 N 0.59804 0.96637 0.47078 0.0
N771 N 0.72107 0.04418 0.52092 0.0
C772 C 0.62784 0.98184 0.4883 0.0
C773 C 0.69104 0.02161 0.51342 0.0
N774 N 0.59788 0.0365 0.53141 0.0
N775 N 0.7207 0.95515 0.48685 0.0
H776 H 0.72223 0.0748 0.53722 0.0
H777 H 0.74462 0.03421 0.50869 0.0
H778 H 0.7217 0.9242 0.47105 0.0
H779 H 0.74399 0.96433 0.50031 0.0
H780 H 0.57444 0.01987 0.52845 0.0
H781 H 0.59691 0.06419 0.55169 0.0
H782 H 0.57483 0.98367 0.47277 0.0
H783 H 0.597 0.93826 0.45099 0.0
loop_
_geom_bond_atom_site_label_1
_geom_bond_atom_site_label_2
_geom_bond_distance
_geom_bond_site_symmetry_2
_ccdc_geom_bond_type
In0 O1 2.294 . S
In0 O2 2.326 . S
In0 O6 2.266 . S
In0 O7 2.326 . S
In0 O8 2.266 . S
In0 O9 2.326 . S
In0 O11 2.294 . S
In0 O12 2.326 . S
O1 In0 2.294 . S
O1 C10 1.240 . S
O2 In0 2.326 . S
O2 C10 1.252 . S
C3 O6 1.252 . S
C3 O7 1.260 . S
C4 O11 1.240 . S
C4 O12 1.252 . S
C5 O8 1.252 . S
C5 O9 1.260 . S
O6 In0 2.266 . S
O6 C3 1.252 . S
O7 In0 2.326 . S
O7 C3 1.260 . S
O8 In0 2.266 . S
O8 C5 1.252 . S
O9 In0 2.326 . S
O9 C5 1.260 . S
C10 O1 1.240 . S
C10 O2 1.252 . S
O11 In0 2.294 . S
O11 C4 1.240 . S
O12 In0 2.326 . S
O12 C4 1.252 . S
In13 O14 2.294 . S
In13 O15 2.326 . S
In13 O19 2.266 . S
In13 O20 2.326 . S
In13 O21 2.266 . S
In13 O22 2.326 . S
In13 O24 2.294 . S
In13 O25 2.326 . S
O14 In13 2.294 . S
O14 C23 1.240 . S
O15 In13 2.326 . S
O15 C23 1.252 . S
C16 O19 1.252 . S
C16 O20 1.260 . S
C17 O24 1.240 . S
C17 O25 1.252 . S
C18 O21 1.252 . S
C18 O22 1.260 . S
O19 In13 2.266 . S
O19 C16 1.252 . S
O20 In13 2.326 . S
O20 C16 1.260 . S
O21 In13 2.266 . S
O21 C18 1.252 . S
O22 In13 2.326 . S
O22 C18 1.260 . S
C23 O14 1.240 . S
C23 O15 1.252 . S
O24 In13 2.294 . S
O24 C17 1.240 . S
O25 In13 2.326 . S
O25 C17 1.252 . S
In26 O27 2.294 . S
In26 O28 2.326 . S
In26 O32 2.266 . S
In26 O33 2.326 . S
In26 O34 2.266 . S
In26 O35 2.326 . S
In26 O37 2.294 . S
In26 O38 2.326 . S
O27 In26 2.294 . S
O27 C36 1.240 . S
O28 In26 2.326 . S
O28 C36 1.252 . S
C29 O32 1.252 . S
C29 O33 1.260 . S
C30 O37 1.240 . S
C30 O38 1.252 . S
C31 O34 1.252 . S
C31 O35 1.260 . S
O32 In26 2.266 . S
O32 C29 1.252 . S
O33 In26 2.326 . S
O33 C29 1.260 . S
O34 In26 2.266 . S
O34 C31 1.252 . S
O35 In26 2.326 . S
O35 C31 1.260 . S
C36 O27 1.240 . S
C36 O28 1.252 . S
O37 In26 2.294 . S
O37 C30 1.240 . S
O38 In26 2.326 . S
O38 C30 1.252 . S
In39 O40 2.294 . S
In39 O41 2.326 . S
In39 O45 2.266 . S
In39 O46 2.326 . S
In39 O47 2.266 . S
In39 O48 2.326 . S
In39 O50 2.294 . S
In39 O51 2.326 . S
O40 In39 2.294 . S
O40 C49 1.240 . S
O41 In39 2.326 . S
O41 C49 1.252 . S
C42 O45 1.252 . S
C42 O46 1.260 . S
C43 O50 1.240 . S
C43 O51 1.252 . S
C44 O47 1.252 . S
C44 O48 1.260 . S
O45 In39 2.266 . S
O45 C42 1.252 . S
O46 In39 2.326 . S
O46 C42 1.260 . S
O47 In39 2.266 . S
O47 C44 1.252 . S
O48 In39 2.326 . S
O48 C44 1.260 . S
C49 O40 1.240 . S
C49 O41 1.252 . S
O50 In39 2.294 . S
O50 C43 1.240 . S
O51 In39 2.326 . S
O51 C43 1.252 . S
In52 O53 2.294 . S
In52 O54 2.326 . S
In52 O58 2.266 . S
In52 O59 2.326 . S
In52 O60 2.266 . S
In52 O61 2.326 . S
In52 O63 2.294 . S
In52 O64 2.326 . S
O53 In52 2.294 . S
O53 C62 1.240 . S
O54 In52 2.326 . S
O54 C62 1.252 . S
C55 O58 1.252 . S
C55 O59 1.260 . S
C56 O63 1.240 . S
C56 O64 1.252 . S
C57 O60 1.252 . S
C57 O61 1.260 . S
O58 In52 2.266 . S
O58 C55 1.252 . S
O59 In52 2.326 . S
O59 C55 1.260 . S
O60 In52 2.266 . S
O60 C57 1.252 . S
O61 In52 2.326 . S
O61 C57 1.260 . S
C62 O53 1.240 . S
C62 O54 1.252 . S
O63 In52 2.294 . S
O63 C56 1.240 . S
O64 In52 2.326 . S
O64 C56 1.252 . S
In65 O66 2.294 . S
In65 O67 2.326 . S
In65 O71 2.266 . S
In65 O72 2.326 . S
In65 O73 2.266 . S
In65 O74 2.326 . S
In65 O76 2.294 . S
In65 O77 2.326 . S
O66 In65 2.294 . S
O66 C75 1.240 . S
O67 In65 2.326 . S
O67 C75 1.252 . S
C68 O71 1.252 . S
C68 O72 1.260 . S
C69 O76 1.240 . S
C69 O77 1.252 . S
C70 O73 1.252 . S
C70 O74 1.260 . S
O71 In65 2.266 . S
O71 C68 1.252 . S
O72 In65 2.326 . S
O72 C68 1.260 . S
O73 In65 2.266 . S
O73 C70 1.252 . S
O74 In65 2.326 . S
O74 C70 1.260 . S
C75 O66 1.240 . S
C75 O67 1.252 . S
O76 In65 2.294 . S
O76 C69 1.240 . S
O77 In65 2.326 . S
O77 C69 1.252 . S
In78 O79 2.294 . S
In78 O80 2.326 . S
In78 O84 2.266 . S
In78 O85 2.326 . S
In78 O86 2.266 . S
In78 O87 2.326 . S
In78 O89 2.294 . S
In78 O90 2.326 . S
O79 In78 2.294 . S
O79 C88 1.240 . S
O80 In78 2.326 . S
O80 C88 1.252 . S
C81 O84 1.252 . S
C81 O85 1.260 . S
C82 O89 1.240 . S
C82 O90 1.252 . S
C83 O86 1.252 . S
C83 O87 1.260 . S
O84 In78 2.266 . S
O84 C81 1.252 . S
O85 In78 2.326 . S
O85 C81 1.260 . S
O86 In78 2.266 . S
O86 C83 1.252 . S
O87 In78 2.326 . S
O87 C83 1.260 . S
C88 O79 1.240 . S
C88 O80 1.252 . S
O89 In78 2.294 . S
O89 C82 1.240 . S
O90 In78 2.326 . S
O90 C82 1.252 . S
In91 O92 2.294 . S
In91 O93 2.326 . S
In91 O97 2.266 . S
In91 O98 2.326 . S
In91 O99 2.266 . S
In91 O100 2.326 . S
In91 O102 2.294 . S
In91 O103 2.326 . S
O92 In91 2.294 . S
O92 C101 1.240 . S
O93 In91 2.326 . S
O93 C101 1.252 . S
C94 O97 1.252 . S
C94 O98 1.260 . S
C95 O102 1.240 . S
C95 O103 1.252 . S
C96 O99 1.252 . S
C96 O100 1.260 . S
O97 In91 2.266 . S
O97 C94 1.252 . S
O98 In91 2.326 . S
O98 C94 1.260 . S
O99 In91 2.266 . S
O99 C96 1.252 . S
O100 In91 2.326 . S
O100 C96 1.260 . S
C101 O92 1.240 . S
C101 O93 1.252 . S
O102 In91 2.294 . S
O102 C95 1.240 . S
O103 In91 2.326 . S
O103 C95 1.252 . S
In104 O105 2.294 . S
In104 O106 2.326 . S
In104 O110 2.266 . S
In104 O111 2.326 . S
In104 O112 2.266 . S
In104 O113 2.326 . S
In104 O115 2.294 . S
In104 O116 2.326 . S
O105 In104 2.294 . S
O105 C114 1.240 . S
O106 In104 2.326 . S
O106 C114 1.252 . S
C107 O110 1.252 . S
C107 O111 1.260 . S
C108 O115 1.240 . S
C108 O116 1.252 . S
C109 O112 1.252 . S
C109 O113 1.260 . S
O110 In104 2.266 . S
O110 C107 1.252 . S
O111 In104 2.326 . S
O111 C107 1.260 . S
O112 In104 2.266 . S
O112 C109 1.252 . S
O113 In104 2.326 . S
O113 C109 1.260 . S
C114 O105 1.240 . S
C114 O106 1.252 . S
O115 In104 2.294 . S
O115 C108 1.240 . S
O116 In104 2.326 . S
O116 C108 1.252 . S
In117 O118 2.294 . S
In117 O119 2.326 . S
In117 O123 2.266 . S
In117 O124 2.326 . S
In117 O125 2.266 . S
In117 O126 2.326 . S
In117 O128 2.294 . S
In117 O129 2.326 . S
O118 In117 2.294 . S
O118 C127 1.240 . S
O119 In117 2.326 . S
O119 C127 1.252 . S
C120 O123 1.252 . S
C120 O124 1.260 . S
C121 O128 1.240 . S
C121 O129 1.252 . S
C122 O125 1.252 . S
C122 O126 1.260 . S
O123 In117 2.266 . S
O123 C120 1.252 . S
O124 In117 2.326 . S
O124 C120 1.260 . S
O125 In117 2.266 . S
O125 C122 1.252 . S
O126 In117 2.326 . S
O126 C122 1.260 . S
C127 O118 1.240 . S
C127 O119 1.252 . S
O128 In117 2.294 . S
O128 C121 1.240 . S
O129 In117 2.326 . S
O129 C121 1.252 . S
In130 O131 2.294 . S
In130 O132 2.326 . S
In130 O136 2.266 . S
In130 O137 2.326 . S
In130 O138 2.266 . S
In130 O139 2.326 . S
In130 O141 2.294 . S
In130 O142 2.326 . S
O131 In130 2.294 . S
O131 C140 1.240 . S
O132 In130 2.326 . S
O132 C140 1.252 . S
C133 O136 1.252 . S
C133 O137 1.260 . S
C134 O141 1.240 . S
C134 O142 1.252 . S
C135 O138 1.252 . S
C135 O139 1.260 . S
O136 In130 2.266 . S
O136 C133 1.252 . S
O137 In130 2.326 . S
O137 C133 1.260 . S
O138 In130 2.266 . S
O138 C135 1.252 . S
O139 In130 2.326 . S
O139 C135 1.260 . S
C140 O131 1.240 . S
C140 O132 1.252 . S
O141 In130 2.294 . S
O141 C134 1.240 . S
O142 In130 2.326 . S
O142 C134 1.252 . S
In143 O144 2.294 . S
In143 O145 2.326 . S
In143 O149 2.266 . S
In143 O150 2.326 . S
In143 O151 2.266 . S
In143 O152 2.326 . S
In143 O154 2.294 . S
In143 O155 2.326 . S
O144 In143 2.294 . S
O144 C153 1.240 . S
O145 In143 2.326 . S
O145 C153 1.252 . S
C146 O149 1.252 . S
C146 O150 1.260 . S
C147 O154 1.240 . S
C147 O155 1.252 . S
C148 O151 1.252 . S
C148 O152 1.260 . S
O149 In143 2.266 . S
O149 C146 1.252 . S
O150 In143 2.326 . S
O150 C146 1.260 . S
O151 In143 2.266 . S
O151 C148 1.252 . S
O152 In143 2.326 . S
O152 C148 1.260 . S
C153 O144 1.240 . S
C153 O145 1.252 . S
O154 In143 2.294 . S
O154 C147 1.240 . S
O155 In143 2.326 . S
O155 C147 1.252 . S
In156 O157 2.294 . S
In156 O158 2.326 . S
In156 O162 2.266 . S
In156 O163 2.326 . S
In156 O164 2.266 . S
In156 O165 2.326 . S
In156 O167 2.294 . S
In156 O168 2.326 . S
O157 In156 2.294 . S
O157 C166 1.240 . S
O158 In156 2.326 . S
O158 C166 1.252 . S
C159 O162 1.252 . S
C159 O163 1.260 . S
C160 O167 1.240 . S
C160 O168 1.252 . S
C161 O164 1.252 . S
C161 O165 1.260 . S
O162 In156 2.266 . S
O162 C159 1.252 . S
O163 In156 2.326 . S
O163 C159 1.260 . S
O164 In156 2.266 . S
O164 C161 1.252 . S
O165 In156 2.326 . S
O165 C161 1.260 . S
C166 O157 1.240 . S
C166 O158 1.252 . S
O167 In156 2.294 . S
O167 C160 1.240 . S
O168 In156 2.326 . S
O168 C160 1.252 . S
In169 O170 2.294 . S
In169 O171 2.326 . S
In169 O175 2.266 . S
In169 O176 2.326 . S
In169 O177 2.266 . S
In169 O178 2.326 . S
In169 O180 2.294 . S
In169 O181 2.326 . S
O170 In169 2.294 . S
O170 C179 1.240 . S
O171 In169 2.326 . S
O171 C179 1.252 . S
C172 O175 1.252 . S
C172 O176 1.260 . S
C173 O180 1.240 . S
C173 O181 1.252 . S
C174 O177 1.252 . S
C174 O178 1.260 . S
O175 In169 2.266 . S
O175 C172 1.252 . S
O176 In169 2.326 . S
O176 C172 1.260 . S
O177 In169 2.266 . S
O177 C174 1.252 . S
O178 In169 2.326 . S
O178 C174 1.260 . S
C179 O170 1.240 . S
C179 O171 1.252 . S
O180 In169 2.294 . S
O180 C173 1.240 . S
O181 In169 2.326 . S
O181 C173 1.252 . S
In182 O183 2.294 . S
In182 O184 2.326 . S
In182 O188 2.266 . S
In182 O189 2.326 . S
In182 O190 2.266 . S
In182 O191 2.326 . S
In182 O193 2.294 . S
In182 O194 2.326 . S
O183 In182 2.294 . S
O183 C192 1.240 . S
O184 In182 2.326 . S
O184 C192 1.252 . S
C185 O188 1.252 . S
C185 O189 1.260 . S
C186 O193 1.240 . S
C186 O194 1.252 . S
C187 O190 1.252 . S
C187 O191 1.260 . S
O188 In182 2.266 . S
O188 C185 1.252 . S
O189 In182 2.326 . S
O189 C185 1.260 . S
O190 In182 2.266 . S
O190 C187 1.252 . S
O191 In182 2.326 . S
O191 C187 1.260 . S
C192 O183 1.240 . S
C192 O184 1.252 . S
O193 In182 2.294 . S
O193 C186 1.240 . S
O194 In182 2.326 . S
O194 C186 1.252 . S
In195 O196 2.294 . S
In195 O197 2.326 . S
In195 O201 2.266 . S
In195 O202 2.326 . S
In195 O203 2.266 . S
In195 O204 2.326 . S
In195 O206 2.294 . S
In195 O207 2.326 . S
O196 In195 2.294 . S
O196 C205 1.240 . S
O197 In195 2.326 . S
O197 C205 1.252 . S
C198 O201 1.252 . S
C198 O202 1.260 . S
C199 O206 1.240 . S
C199 O207 1.252 . S
C200 O203 1.252 . S
C200 O204 1.260 . S
O201 In195 2.266 . S
O201 C198 1.252 . S
O202 In195 2.326 . S
O202 C198 1.260 . S
O203 In195 2.266 . S
O203 C200 1.252 . S
O204 In195 2.326 . S
O204 C200 1.260 . S
C205 O196 1.240 . S
C205 O197 1.252 . S
O206 In195 2.294 . S
O206 C199 1.240 . S
O207 In195 2.326 . S
O207 C199 1.252 . S
C208 C209 1.363 1_655 S
C208 C214 1.379 . S
C208 N216 1.356 1_655 S
C209 C208 1.363 1_455 S
C209 C215 1.363 1_455 S
C210 C211 1.363 . S
C210 C215 1.379 . S
C210 N217 1.356 . S
C211 C210 1.363 . S
C211 C214 1.363 . S
N212 C214 1.356 . S
N212 H224 0.984 . S
N212 H225 0.985 . S
N213 C215 1.356 1_455 S
N213 H218 0.984 . S
N213 H219 0.985 . S
C214 C208 1.379 . S
C214 C211 1.363 . S
C214 N212 1.356 . S
C215 C209 1.363 1_655 S
C215 C210 1.379 . S
C215 N213 1.356 1_655 S
N216 C208 1.356 1_455 S
N216 H222 0.984 . S
N216 H223 0.984 . S
N217 C210 1.356 . S
N217 H220 0.984 . S
N217 H221 0.985 . S
H218 N213 0.984 . S
H219 N213 0.985 . S
H220 N217 0.984 . S
H221 N217 0.985 . S
H222 N216 0.984 . S
H223 N216 0.984 . S
H224 N212 0.984 . S
H225 N212 0.985 . S
C226 C227 1.363 1_455 S
C226 C232 1.379 . S
C226 N234 1.356 1_455 S
C227 C226 1.363 1_655 S
C227 C233 1.363 1_655 S
C228 C229 1.363 . S
C228 C233 1.379 . S
C228 N235 1.356 . S
C229 C228 1.363 . S
C229 C232 1.363 . S
N230 C232 1.356 . S
N230 H242 0.984 . S
N230 H243 0.985 . S
N231 C233 1.356 1_655 S
N231 H236 0.984 . S
N231 H237 0.985 . S
C232 C226 1.379 . S
C232 C229 1.363 . S
C232 N230 1.356 . S
C233 C227 1.363 1_455 S
C233 C228 1.379 . S
C233 N231 1.356 1_455 S
N234 C226 1.356 1_655 S
N234 H240 0.984 . S
N234 H241 0.984 . S
N235 C228 1.356 . S
N235 H238 0.984 . S
N235 H239 0.985 . S
H236 N231 0.984 . S
H237 N231 0.985 . S
H238 N235 0.984 . S
H239 N235 0.985 . S
H240 N234 0.984 . S
H241 N234 0.984 . S
H242 N230 0.984 . S
H243 N230 0.985 . S
C244 C245 1.363 . S
C244 C250 1.379 . S
C244 N252 1.356 . S
C245 C244 1.363 . S
C245 C251 1.363 . S
C246 C247 1.363 1_655 S
C246 C251 1.379 . S
C246 N253 1.356 1_655 S
C247 C246 1.363 1_455 S
C247 C250 1.363 1_455 S
N248 C250 1.356 1_455 S
N248 H260 0.984 . S
N248 H261 0.985 . S
N249 C251 1.356 . S
N249 H254 0.984 . S
N249 H255 0.985 . S
C250 C244 1.379 . S
C250 C247 1.363 1_655 S
C250 N248 1.356 1_655 S
C251 C245 1.363 . S
C251 C246 1.379 . S
C251 N249 1.356 . S
N252 C244 1.356 . S
N252 H258 0.984 . S
N252 H259 0.984 . S
N253 C246 1.356 1_455 S
N253 H256 0.984 . S
N253 H257 0.985 . S
H254 N249 0.984 . S
H255 N249 0.985 . S
H256 N253 0.984 . S
H257 N253 0.985 . S
H258 N252 0.984 . S
H259 N252 0.984 . S
H260 N248 0.984 . S
H261 N248 0.985 . S
C262 C263 1.363 . S
C262 C268 1.379 . S
C262 N270 1.356 . S
C263 C262 1.363 . S
C263 C269 1.363 . S
C264 C265 1.363 1_455 S
C264 C269 1.379 . S
C264 N271 1.356 1_455 S
C265 C264 1.363 1_655 S
C265 C268 1.363 1_655 S
N266 C268 1.356 1_655 S
N266 H278 0.984 . S
N266 H279 0.985 . S
N267 C269 1.356 . S
N267 H272 0.984 . S
N267 H273 0.985 . S
C268 C262 1.379 . S
C268 C265 1.363 1_455 S
C268 N266 1.356 1_455 S
C269 C263 1.363 . S
C269 C264 1.379 . S
C269 N267 1.356 . S
N270 C262 1.356 . S
N270 H276 0.984 . S
N270 H277 0.984 . S
N271 C264 1.356 1_655 S
N271 H274 0.984 . S
N271 H275 0.985 . S
H272 N267 0.984 . S
H273 N267 0.985 . S
H274 N271 0.984 . S
H275 N271 0.985 . S
H276 N270 0.984 . S
H277 N270 0.984 . S
H278 N266 0.984 . S
H279 N266 0.985 . S
C280 C281 1.363 . S
C280 C286 1.379 . S
C280 N288 1.356 . S
C281 C280 1.363 . S
C281 C287 1.363 . S
C282 C283 1.363 . S
C282 C287 1.379 . S
C282 N289 1.356 . S
C283 C282 1.363 . S
C283 C286 1.363 . S
N284 C286 1.356 . S
N284 H296 0.984 . S
N284 H297 0.985 . S
N285 C287 1.356 . S
N285 H290 0.984 . S
N285 H291 0.985 . S
C286 C280 1.379 . S
C286 C283 1.363 . S
C286 N284 1.356 . S
C287 C281 1.363 . S
C287 C282 1.379 . S
C287 N285 1.356 . S
N288 C280 1.356 . S
N288 H294 0.984 . S
N288 H295 0.984 . S
N289 C282 1.356 . S
N289 H292 0.984 . S
N289 H293 0.985 . S
H290 N285 0.984 . S
H291 N285 0.985 . S
H292 N289 0.984 . S
H293 N289 0.985 . S
H294 N288 0.984 . S
H295 N288 0.984 . S
H296 N284 0.984 . S
H297 N284 0.985 . S
C298 C299 1.363 . S
C298 C304 1.379 . S
C298 N306 1.356 . S
C299 C298 1.363 . S
C299 C305 1.363 . S
C300 C301 1.363 . S
C300 C305 1.379 . S
C300 N307 1.356 . S
C301 C300 1.363 . S
C301 C304 1.363 . S
N302 C304 1.356 . S
N302 H314 0.984 . S
N302 H315 0.985 . S
N303 C305 1.356 . S
N303 H308 0.984 . S
N303 H309 0.985 . S
C304 C298 1.379 . S
C304 C301 1.363 . S
C304 N302 1.356 . S
C305 C299 1.363 . S
C305 C300 1.379 . S
C305 N303 1.356 . S
N306 C298 1.356 . S
N306 H312 0.984 . S
N306 H313 0.984 . S
N307 C300 1.356 . S
N307 H310 0.984 . S
N307 H311 0.985 . S
H308 N303 0.984 . S
H309 N303 0.985 . S
H310 N307 0.984 . S
H311 N307 0.985 . S
H312 N306 0.984 . S
H313 N306 0.984 . S
H314 N302 0.984 . S
H315 N302 0.985 . S
C316 C317 1.363 . S
C316 C322 1.379 . S
C316 N324 1.356 . S
C317 C316 1.363 . S
C317 C323 1.363 . S
C318 C319 1.363 . S
C318 C323 1.379 . S
C318 N325 1.356 . S
C319 C318 1.363 . S
C319 C322 1.363 . S
N320 C322 1.356 . S
N320 H332 0.984 . S
N320 H333 0.985 . S
N321 C323 1.356 . S
N321 H326 0.984 . S
N321 H327 0.985 1_556 S
C322 C316 1.379 . S
C322 C319 1.363 . S
C322 N320 1.356 . S
C323 C317 1.363 . S
C323 C318 1.379 . S
C323 N321 1.356 . S
N324 C316 1.356 . S
N324 H330 0.984 . S
N324 H331 0.984 . S
N325 C318 1.356 . S
N325 H328 0.984 . S
N325 H329 0.985 1_556 S
H326 N321 0.984 . S
H327 N321 0.985 1_554 S
H328 N325 0.984 . S
H329 N325 0.985 1_554 S
H330 N324 0.984 . S
H331 N324 0.984 . S
H332 N320 0.984 . S
H333 N320 0.985 . S
C334 C335 1.363 . S
C334 C340 1.379 . S
C334 N342 1.356 . S
C335 C334 1.363 . S
C335 C341 1.363 . S
C336 C337 1.363 . S
C336 C341 1.379 . S
C336 N343 1.356 . S
C337 C336 1.363 . S
C337 C340 1.363 . S
N338 C340 1.356 . S
N338 H350 0.984 . S
N338 H351 0.985 . S
N339 C341 1.356 . S
N339 H344 0.984 . S
N339 H345 0.985 . S
C340 C334 1.379 . S
C340 C337 1.363 . S
C340 N338 1.356 . S
C341 C335 1.363 . S
C341 C336 1.379 . S
C341 N339 1.356 . S
N342 C334 1.356 . S
N342 H348 0.984 . S
N342 H349 0.984 . S
N343 C336 1.356 . S
N343 H346 0.984 . S
N343 H347 0.985 . S
H344 N339 0.984 . S
H345 N339 0.985 . S
H346 N343 0.984 . S
H347 N343 0.985 . S
H348 N342 0.984 . S
H349 N342 0.984 . S
H350 N338 0.984 . S
H351 N338 0.985 . S
C352 C353 1.363 . S
C352 C358 1.379 . S
C352 N360 1.356 . S
C353 C352 1.363 . S
C353 C359 1.363 . S
C354 C355 1.363 . S
C354 C359 1.379 . S
C354 N361 1.356 . S
C355 C354 1.363 . S
C355 C358 1.363 . S
N356 C358 1.356 . S
N356 H368 0.984 . S
N356 H369 0.985 . S
N357 C359 1.356 . S
N357 H362 0.984 . S
N357 H363 0.985 . S
C358 C352 1.379 . S
C358 C355 1.363 . S
C358 N356 1.356 . S
C359 C353 1.363 . S
C359 C354 1.379 . S
C359 N357 1.356 . S
N360 C352 1.356 . S
N360 H366 0.984 . S
N360 H367 0.984 . S
N361 C354 1.356 . S
N361 H364 0.984 . S
N361 H365 0.985 . S
H362 N357 0.984 . S
H363 N357 0.985 . S
H364 N361 0.984 . S
H365 N361 0.985 . S
H366 N360 0.984 . S
H367 N360 0.984 . S
H368 N356 0.984 . S
H369 N356 0.985 . S
C370 C371 1.363 . S
C370 C376 1.379 . S
C370 N378 1.356 . S
C371 C370 1.363 . S
C371 C377 1.363 . S
C372 C373 1.363 . S
C372 C377 1.379 . S
C372 N379 1.356 . S
C373 C372 1.363 . S
C373 C376 1.363 . S
N374 C376 1.356 . S
N374 H386 0.984 . S
N374 H387 0.985 . S
N375 C377 1.356 . S
N375 H380 0.984 . S
N375 H381 0.985 . S
C376 C370 1.379 . S
C376 C373 1.363 . S
C376 N374 1.356 . S
C377 C371 1.363 . S
C377 C372 1.379 . S
C377 N375 1.356 . S
N378 C370 1.356 . S
N378 H384 0.984 . S
N378 H385 0.984 . S
N379 C372 1.356 . S
N379 H382 0.984 . S
N379 H383 0.985 . S
H380 N375 0.984 . S
H381 N375 0.985 . S
H382 N379 0.984 . S
H383 N379 0.985 . S
H384 N378 0.984 . S
H385 N378 0.984 . S
H386 N374 0.984 . S
H387 N374 0.985 . S
C388 C389 1.363 . S
C388 C394 1.379 . S
C388 N396 1.356 . S
C389 C388 1.363 . S
C389 C395 1.363 . S
C390 C391 1.363 . S
C390 C395 1.379 . S
C390 N397 1.356 . S
C391 C390 1.363 . S
C391 C394 1.363 . S
N392 C394 1.356 . S
N392 H404 0.984 . S
N392 H405 0.985 . S
N393 C395 1.356 . S
N393 H398 0.984 . S
N393 H399 0.985 . S
C394 C388 1.379 . S
C394 C391 1.363 . S
C394 N392 1.356 . S
C395 C389 1.363 . S
C395 C390 1.379 . S
C395 N393 1.356 . S
N396 C388 1.356 . S
N396 H402 0.984 . S
N396 H403 0.984 . S
N397 C390 1.356 . S
N397 H400 0.984 . S
N397 H401 0.985 . S
H398 N393 0.984 . S
H399 N393 0.985 . S
H400 N397 0.984 . S
H401 N397 0.985 . S
H402 N396 0.984 . S
H403 N396 0.984 . S
H404 N392 0.984 . S
H405 N392 0.985 . S
C406 C407 1.363 . S
C406 C412 1.379 . S
C406 N414 1.356 . S
C407 C406 1.363 . S
C407 C413 1.363 . S
C408 C409 1.363 . S
C408 C413 1.379 . S
C408 N415 1.356 . S
C409 C408 1.363 . S
C409 C412 1.363 . S
N410 C412 1.356 . S
N410 H422 0.984 . S
N410 H423 0.985 . S
N411 C413 1.356 . S
N411 H416 0.984 . S
N411 H417 0.985 . S
C412 C406 1.379 . S
C412 C409 1.363 . S
C412 N410 1.356 . S
C413 C407 1.363 . S
C413 C408 1.379 . S
C413 N411 1.356 . S
N414 C406 1.356 . S
N414 H420 0.984 . S
N414 H421 0.984 . S
N415 C408 1.356 . S
N415 H418 0.984 . S
N415 H419 0.985 . S
H416 N411 0.984 . S
H417 N411 0.985 . S
H418 N415 0.984 . S
H419 N415 0.985 . S
H420 N414 0.984 . S
H421 N414 0.984 . S
H422 N410 0.984 . S
H423 N410 0.985 . S
C424 C425 1.363 . S
C424 C430 1.379 . S
C424 N432 1.356 . S
C425 C424 1.363 . S
C425 C431 1.363 . S
C426 C427 1.363 . S
C426 C431 1.379 . S
C426 N433 1.356 . S
C427 C426 1.363 . S
C427 C430 1.363 . S
N428 C430 1.356 . S
N428 H440 0.984 . S
N428 H441 0.985 . S
N429 C431 1.356 . S
N429 H434 0.984 . S
N429 H435 0.985 . S
C430 C424 1.379 . S
C430 C427 1.363 . S
C430 N428 1.356 . S
C431 C425 1.363 . S
C431 C426 1.379 . S
C431 N429 1.356 . S
N432 C424 1.356 . S
N432 H438 0.984 . S
N432 H439 0.984 . S
N433 C426 1.356 . S
N433 H436 0.984 . S
N433 H437 0.985 . S
H434 N429 0.984 . S
H435 N429 0.985 . S
H436 N433 0.984 . S
H437 N433 0.985 . S
H438 N432 0.984 . S
H439 N432 0.984 . S
H440 N428 0.984 . S
H441 N428 0.985 . S
C442 C443 1.363 . S
C442 C448 1.379 . S
C442 N450 1.356 . S
C443 C442 1.363 . S
C443 C449 1.363 . S
C444 C445 1.363 . S
C444 C449 1.379 . S
C444 N451 1.356 . S
C445 C444 1.363 . S
C445 C448 1.363 . S
N446 C448 1.356 . S
N446 H458 0.984 . S
N446 H459 0.985 . S
N447 C449 1.356 . S
N447 H452 0.984 . S
N447 H453 0.985 . S
C448 C442 1.379 . S
C448 C445 1.363 . S
C448 N446 1.356 . S
C449 C443 1.363 . S
C449 C444 1.379 . S
C449 N447 1.356 . S
N450 C442 1.356 . S
N450 H456 0.984 . S
N450 H457 0.984 . S
N451 C444 1.356 . S
N451 H454 0.984 . S
N451 H455 0.985 . S
H452 N447 0.984 . S
H453 N447 0.985 . S
H454 N451 0.984 . S
H455 N451 0.985 . S
H456 N450 0.984 . S
H457 N450 0.984 . S
H458 N446 0.984 . S
H459 N446 0.985 . S
C460 C461 1.363 . S
C460 C466 1.379 . S
C460 N468 1.356 . S
C461 C460 1.363 . S
C461 C467 1.363 . S
C462 C463 1.363 . S
C462 C467 1.379 . S
C462 N469 1.356 . S
C463 C462 1.363 . S
C463 C466 1.363 . S
N464 C466 1.356 . S
N464 H476 0.984 . S
N464 H477 0.985 . S
N465 C467 1.356 . S
N465 H470 0.984 . S
N465 H471 0.985 . S
C466 C460 1.379 . S
C466 C463 1.363 . S
C466 N464 1.356 . S
C467 C461 1.363 . S
C467 C462 1.379 . S
C467 N465 1.356 . S
N468 C460 1.356 . S
N468 H474 0.984 . S
N468 H475 0.984 . S
N469 C462 1.356 . S
N469 H472 0.984 . S
N469 H473 0.985 . S
H470 N465 0.984 . S
H471 N465 0.985 . S
H472 N469 0.984 . S
H473 N469 0.985 . S
H474 N468 0.984 . S
H475 N468 0.984 . S
H476 N464 0.984 . S
H477 N464 0.985 . S
C478 C479 1.363 . S
C478 C484 1.379 . S
C478 N486 1.356 . S
C479 C478 1.363 . S
C479 C485 1.363 . S
C480 C481 1.363 . S
C480 C485 1.379 . S
C480 N487 1.356 . S
C481 C480 1.363 . S
C481 C484 1.363 . S
N482 C484 1.356 . S
N482 H494 0.984 . S
N482 H495 0.985 . S
N483 C485 1.356 . S
N483 H488 0.984 . S
N483 H489 0.985 . S
C484 C478 1.379 . S
C484 C481 1.363 . S
C484 N482 1.356 . S
C485 C479 1.363 . S
C485 C480 1.379 . S
C485 N483 1.356 . S
N486 C478 1.356 . S
N486 H492 0.984 . S
N486 H493 0.984 . S
N487 C480 1.356 . S
N487 H490 0.984 . S
N487 H491 0.985 . S
H488 N483 0.984 . S
H489 N483 0.985 . S
H490 N487 0.984 . S
H491 N487 0.985 . S
H492 N486 0.984 . S
H493 N486 0.984 . S
H494 N482 0.984 . S
H495 N482 0.985 . S
C496 C497 1.363 1_554 S
C496 C502 1.379 . S
C496 N504 1.356 . S
C497 C496 1.363 1_556 S
C497 C503 1.363 . S
C498 C499 1.363 1_556 S
C498 C503 1.379 . S
C498 N505 1.356 . S
C499 C498 1.363 1_554 S
C499 C502 1.363 . S
N500 C502 1.356 . S
N500 H512 0.984 . S
N500 H513 0.985 . S
N501 C503 1.356 . S
N501 H506 0.984 . S
N501 H507 0.985 . S
C502 C496 1.379 . S
C502 C499 1.363 . S
C502 N500 1.356 . S
C503 C497 1.363 . S
C503 C498 1.379 . S
C503 N501 1.356 . S
N504 C496 1.356 . S
N504 H510 0.984 . S
N504 H511 0.984 1_554 S
N505 C498 1.356 . S
N505 H508 0.984 1_556 S
N505 H509 0.985 . S
H506 N501 0.984 . S
H507 N501 0.985 . S
H508 N505 0.984 1_554 S
H509 N505 0.985 . S
H510 N504 0.984 . S
H511 N504 0.984 1_556 S
H512 N500 0.984 . S
H513 N500 0.985 . S
C514 C515 1.363 . S
C514 C520 1.379 . S
C514 N522 1.356 . S
C515 C514 1.363 . S
C515 C521 1.363 . S
C516 C517 1.363 . S
C516 C521 1.379 . S
C516 N523 1.356 . S
C517 C516 1.363 . S
C517 C520 1.363 . S
N518 C520 1.356 . S
N518 H530 0.984 . S
N518 H531 0.985 . S
N519 C521 1.356 . S
N519 H524 0.984 . S
N519 H525 0.985 . S
C520 C514 1.379 . S
C520 C517 1.363 . S
C520 N518 1.356 . S
C521 C515 1.363 . S
C521 C516 1.379 . S
C521 N519 1.356 . S
N522 C514 1.356 . S
N522 H528 0.984 . S
N522 H529 0.984 . S
N523 C516 1.356 . S
N523 H526 0.984 . S
N523 H527 0.985 . S
H524 N519 0.984 . S
H525 N519 0.985 . S
H526 N523 0.984 . S
H527 N523 0.985 . S
H528 N522 0.984 . S
H529 N522 0.984 . S
H530 N518 0.984 . S
H531 N518 0.985 . S
C532 C533 1.363 . S
C532 C538 1.379 . S
C532 N540 1.356 . S
C533 C532 1.363 . S
C533 C539 1.363 1_554 S
C534 C535 1.363 . S
C534 C539 1.379 . S
C534 N541 1.356 . S
C535 C534 1.363 . S
C535 C538 1.363 1_556 S
N536 C538 1.356 . S
N536 H548 0.984 . S
N536 H549 0.985 1_554 S
N537 C539 1.356 1_554 S
N537 H542 0.984 . S
N537 H543 0.985 1_554 S
C538 C532 1.379 . S
C538 C535 1.363 1_554 S
C538 N536 1.356 . S
C539 C533 1.363 1_556 S
C539 C534 1.379 . S
C539 N537 1.356 1_556 S
N540 C532 1.356 . S
N540 H546 0.984 . S
N540 H547 0.984 . S
N541 C534 1.356 . S
N541 H544 0.984 . S
N541 H545 0.985 . S
H542 N537 0.984 . S
H543 N537 0.985 1_556 S
H544 N541 0.984 . S
H545 N541 0.985 . S
H546 N540 0.984 . S
H547 N540 0.984 . S
H548 N536 0.984 . S
H549 N536 0.985 1_556 S
C550 C551 1.363 . S
C550 C556 1.379 . S
C550 N558 1.356 . S
C551 C550 1.363 . S
C551 C557 1.363 . S
C552 C553 1.363 . S
C552 C557 1.379 . S
C552 N559 1.356 . S
C553 C552 1.363 . S
C553 C556 1.363 . S
N554 C556 1.356 . S
N554 H566 0.984 . S
N554 H567 0.985 . S
N555 C557 1.356 . S
N555 H560 0.984 . S
N555 H561 0.985 . S
C556 C550 1.379 . S
C556 C553 1.363 . S
C556 N554 1.356 . S
C557 C551 1.363 . S
C557 C552 1.379 . S
C557 N555 1.356 . S
N558 C550 1.356 . S
N558 H564 0.984 . S
N558 H565 0.984 . S
N559 C552 1.356 . S
N559 H562 0.984 . S
N559 H563 0.985 . S
H560 N555 0.984 . S
H561 N555 0.985 . S
H562 N559 0.984 . S
H563 N559 0.985 . S
H564 N558 0.984 . S
H565 N558 0.984 . S
H566 N554 0.984 . S
H567 N554 0.985 . S
C568 C569 1.363 . S
C568 C574 1.379 . S
C568 N576 1.356 . S
C569 C568 1.363 . S
C569 C575 1.363 1_554 S
C570 C571 1.363 . S
C570 C575 1.379 . S
C570 N577 1.356 . S
C571 C570 1.363 . S
C571 C574 1.363 1_556 S
N572 C574 1.356 1_556 S
N572 H584 0.984 1_556 S
N572 H585 0.985 . S
N573 C575 1.358 . S
N573 H578 0.976 1_556 S
N573 H579 0.992 . S
C574 C568 1.379 . S
C574 C571 1.363 1_554 S
C574 N572 1.356 1_554 S
C575 C569 1.363 1_556 S
C575 C570 1.379 . S
C575 N573 1.358 . S
N576 C568 1.356 . S
N576 H582 0.984 . S
N576 H583 0.984 . S
N577 C570 1.356 . S
N577 H580 0.984 . S
N577 H581 0.985 . S
H578 N573 0.976 1_554 S
H579 N573 0.992 . S
H580 N577 0.984 . S
H581 N577 0.985 . S
H582 N576 0.984 . S
H583 N576 0.984 . S
H584 N572 0.984 1_554 S
H585 N572 0.985 . S
C586 C587 1.363 . S
C586 C592 1.379 . S
C586 N594 1.356 . S
C587 C586 1.363 . S
C587 C593 1.363 . S
C588 C589 1.363 . S
C588 C593 1.379 . S
C588 N595 1.356 . S
C589 C588 1.363 . S
C589 C592 1.363 . S
N590 C592 1.356 . S
N590 H602 0.984 . S
N590 H603 0.985 . S
N591 C593 1.356 . S
N591 H596 0.984 . S
N591 H597 0.985 . S
C592 C586 1.379 . S
C592 C589 1.363 . S
C592 N590 1.356 . S
C593 C587 1.363 . S
C593 C588 1.379 . S
C593 N591 1.356 . S
N594 C586 1.356 . S
N594 H600 0.984 . S
N594 H601 0.984 . S
N595 C588 1.356 . S
N595 H598 0.984 . S
N595 H599 0.985 . S
H596 N591 0.984 . S
H597 N591 0.985 . S
H598 N595 0.984 . S
H599 N595 0.985 . S
H600 N594 0.984 . S
H601 N594 0.984 . S
H602 N590 0.984 . S
H603 N590 0.985 . S
C604 C605 1.363 . S
C604 C610 1.379 1_554 S
C604 N612 1.356 . S
C605 C604 1.363 . S
C605 C611 1.363 . S
C606 C607 1.363 . S
C606 C611 1.379 1_556 S
C606 N613 1.356 . S
C607 C606 1.363 . S
C607 C610 1.363 . S
N608 C610 1.356 . S
N608 H620 0.984 . S
N608 H621 0.985 . S
N609 C611 1.356 . S
N609 H614 0.984 . S
N609 H615 0.985 . S
C610 C604 1.379 1_556 S
C610 C607 1.363 . S
C610 N608 1.356 . S
C611 C605 1.363 . S
C611 C606 1.379 1_554 S
C611 N609 1.356 . S
N612 C604 1.356 . S
N612 H618 0.984 . S
N612 H619 0.984 . S
N613 C606 1.356 . S
N613 H616 0.984 . S
N613 H617 0.985 . S
H614 N609 0.984 . S
H615 N609 0.985 . S
H616 N613 0.984 . S
H617 N613 0.985 . S
H618 N612 0.984 . S
H619 N612 0.984 . S
H620 N608 0.984 . S
H621 N608 0.985 . S
C622 C623 1.363 . S
C622 C628 1.379 . S
C622 N630 1.356 . S
C623 C622 1.363 . S
C623 C629 1.363 . S
C624 C625 1.363 . S
C624 C629 1.379 . S
C624 N631 1.356 . S
C625 C624 1.363 . S
C625 C628 1.363 . S
N626 C628 1.356 . S
N626 H638 0.984 . S
N626 H639 0.985 . S
N627 C629 1.356 . S
N627 H632 0.984 . S
N627 H633 0.985 . S
C628 C622 1.379 . S
C628 C625 1.363 . S
C628 N626 1.356 . S
C629 C623 1.363 . S
C629 C624 1.379 . S
C629 N627 1.356 . S
N630 C622 1.356 . S
N630 H636 0.984 . S
N630 H637 0.984 . S
N631 C624 1.356 . S
N631 H634 0.984 . S
N631 H635 0.985 . S
H632 N627 0.984 . S
H633 N627 0.985 . S
H634 N631 0.984 . S
H635 N631 0.985 . S
H636 N630 0.984 . S
H637 N630 0.984 . S
H638 N626 0.984 . S
H639 N626 0.985 . S
C640 C641 1.363 1_554 S
C640 C646 1.379 . S
C640 N648 1.356 . S
C641 C640 1.363 1_556 S
C641 C647 1.363 . S
C642 C643 1.363 1_556 S
C642 C647 1.379 . S
C642 N649 1.356 . S
C643 C642 1.363 1_554 S
C643 C646 1.363 . S
N644 C646 1.356 . S
N644 H656 0.984 . S
N644 H657 0.985 . S
N645 C647 1.356 . S
N645 H650 0.984 . S
N645 H651 0.985 . S
C646 C640 1.379 . S
C646 C643 1.363 . S
C646 N644 1.356 . S
C647 C641 1.363 . S
C647 C642 1.379 . S
C647 N645 1.356 . S
N648 C640 1.356 . S
N648 H654 0.984 . S
N648 H655 0.984 . S
N649 C642 1.356 . S
N649 H652 0.984 . S
N649 H653 0.985 . S
H650 N645 0.984 . S
H651 N645 0.985 . S
H652 N649 0.984 . S
H653 N649 0.985 . S
H654 N648 0.984 . S
H655 N648 0.984 . S
H656 N644 0.984 . S
H657 N644 0.985 . S
C658 C659 1.363 . S
C658 C664 1.379 . S
C658 N666 1.356 . S
C659 C658 1.363 . S
C659 C665 1.363 . S
C660 C661 1.363 . S
C660 C665 1.379 . S
C660 N667 1.356 . S
C661 C660 1.363 . S
C661 C664 1.363 . S
N662 C664 1.356 . S
N662 H674 0.984 . S
N662 H675 0.985 . S
N663 C665 1.356 . S
N663 H668 0.984 . S
N663 H669 0.985 . S
C664 C658 1.379 . S
C664 C661 1.363 . S
C664 N662 1.356 . S
C665 C659 1.363 . S
C665 C660 1.379 . S
C665 N663 1.356 . S
N666 C658 1.356 . S
N666 H672 0.984 . S
N666 H673 0.984 . S
N667 C660 1.356 . S
N667 H670 0.984 . S
N667 H671 0.985 . S
H668 N663 0.984 . S
H669 N663 0.985 . S
H670 N667 0.984 . S
H671 N667 0.985 . S
H672 N666 0.984 . S
H673 N666 0.984 . S
H674 N662 0.984 . S
H675 N662 0.985 . S
C676 C677 1.363 . S
C676 C682 1.379 . S
C676 N684 1.356 . S
C677 C676 1.363 . S
C677 C683 1.363 1_554 S
C678 C679 1.363 . S
C678 C683 1.379 . S
C678 N685 1.356 . S
C679 C678 1.363 . S
C679 C682 1.363 1_556 S
N680 C682 1.356 . S
N680 H692 0.984 . S
N680 H693 0.985 . S
N681 C683 1.356 . S
N681 H686 0.984 . S
N681 H687 0.985 . S
C682 C676 1.379 . S
C682 C679 1.363 1_554 S
C682 N680 1.356 . S
C683 C677 1.363 1_556 S
C683 C678 1.379 . S
C683 N681 1.356 . S
N684 C676 1.356 . S
N684 H690 0.984 . S
N684 H691 0.984 . S
N685 C678 1.356 . S
N685 H688 0.984 . S
N685 H689 0.985 . S
H686 N681 0.984 . S
H687 N681 0.985 . S
H688 N685 0.984 . S
H689 N685 0.985 . S
H690 N684 0.984 . S
H691 N684 0.984 . S
H692 N680 0.984 . S
H693 N680 0.985 . S
C694 C695 1.363 . S
C694 C700 1.379 . S
C694 N702 1.356 . S
C695 C694 1.363 . S
C695 C701 1.363 . S
C696 C697 1.363 . S
C696 C701 1.379 . S
C696 N703 1.356 . S
C697 C696 1.363 . S
C697 C700 1.363 . S
N698 C700 1.356 . S
N698 H710 0.984 . S
N698 H711 0.985 . S
N699 C701 1.356 . S
N699 H704 0.984 . S
N699 H705 0.985 . S
C700 C694 1.379 . S
C700 C697 1.363 . S
C700 N698 1.356 . S
C701 C695 1.363 . S
C701 C696 1.379 . S
C701 N699 1.356 . S
N702 C694 1.356 . S
N702 H708 0.984 . S
N702 H709 0.984 . S
N703 C696 1.356 . S
N703 H706 0.984 . S
N703 H707 0.985 . S
H704 N699 0.984 . S
H705 N699 0.985 . S
H706 N703 0.984 . S
H707 N703 0.985 . S
H708 N702 0.984 . S
H709 N702 0.984 . S
H710 N698 0.984 . S
H711 N698 0.985 . S
C712 C713 1.363 1_554 S
C712 C718 1.379 1_545 S
C712 N720 1.356 . S
C713 C712 1.363 1_556 S
C713 C719 1.363 . S
C714 C715 1.363 1_556 S
C714 C719 1.379 1_565 S
C714 N721 1.356 . S
C715 C714 1.363 1_554 S
C715 C718 1.363 . S
N716 C718 1.356 . S
N716 H728 0.984 . S
N716 H729 0.985 . S
N717 C719 1.356 . S
N717 H722 0.984 . S
N717 H723 0.985 . S
C718 C712 1.379 1_565 S
C718 C715 1.363 . S
C718 N716 1.356 . S
C719 C713 1.363 . S
C719 C714 1.379 1_545 S
C719 N717 1.356 . S
N720 C712 1.356 . S
N720 H726 0.984 . S
N720 H727 0.984 . S
N721 C714 1.356 . S
N721 H724 0.984 . S
N721 H725 0.985 . S
H722 N717 0.984 . S
H723 N717 0.985 . S
H724 N721 0.984 . S
H725 N721 0.985 . S
H726 N720 0.984 . S
H727 N720 0.984 . S
H728 N716 0.984 . S
H729 N716 0.985 . S
C730 C731 1.363 . S
C730 C736 1.379 1_565 S
C730 N738 1.356 . S
C731 C730 1.363 . S
C731 C737 1.363 . S
C732 C733 1.363 . S
C732 C737 1.379 1_545 S
C732 N739 1.356 . S
C733 C732 1.363 . S
C733 C736 1.363 . S
N734 C736 1.356 . S
N734 H746 0.984 . S
N734 H747 0.985 . S
N735 C737 1.356 . S
N735 H740 0.984 . S
N735 H741 0.985 . S
C736 C730 1.379 1_545 S
C736 C733 1.363 . S
C736 N734 1.356 . S
C737 C731 1.363 . S
C737 C732 1.379 1_565 S
C737 N735 1.356 . S
N738 C730 1.356 . S
N738 H744 0.984 . S
N738 H745 0.984 . S
N739 C732 1.356 . S
N739 H742 0.984 . S
N739 H743 0.985 . S
H740 N735 0.984 . S
H741 N735 0.985 . S
H742 N739 0.984 . S
H743 N739 0.985 . S
H744 N738 0.984 . S
H745 N738 0.984 . S
H746 N734 0.984 . S
H747 N734 0.985 . S
C748 C749 1.363 . S
C748 C754 1.379 1_565 S
C748 N756 1.356 . S
C749 C748 1.363 . S
C749 C755 1.363 1_554 S
C750 C751 1.363 . S
C750 C755 1.379 1_545 S
C750 N757 1.356 . S
C751 C750 1.363 . S
C751 C754 1.363 1_556 S
N752 C754 1.356 1_556 S
N752 H764 0.984 1_556 S
N752 H765 0.985 . S
N753 C755 1.356 1_554 S
N753 H758 0.984 . S
N753 H759 0.985 1_554 S
C754 C748 1.379 1_545 S
C754 C751 1.363 1_554 S
C754 N752 1.356 1_554 S
C755 C749 1.363 1_556 S
C755 C750 1.379 1_565 S
C755 N753 1.356 1_556 S
N756 C748 1.356 . S
N756 H762 0.984 . S
N756 H763 0.984 . S
N757 C750 1.356 . S
N757 H760 0.984 . S
N757 H761 0.985 . S
H758 N753 0.984 . S
H759 N753 0.985 1_556 S
H760 N757 0.984 . S
H761 N757 0.985 . S
H762 N756 0.984 . S
H763 N756 0.984 . S
H764 N752 0.984 1_554 S
H765 N752 0.985 . S
C766 C767 1.363 . S
C766 C772 1.379 1_545 S
C766 N774 1.356 . S
C767 C766 1.363 . S
C767 C773 1.363 . S
C768 C769 1.363 . S
C768 C773 1.379 1_565 S
C768 N775 1.356 . S
C769 C768 1.363 . S
C769 C772 1.363 . S
N770 C772 1.356 . S
N770 H782 0.984 . S
N770 H783 0.985 . S
N771 C773 1.356 . S
N771 H776 0.984 . S
N771 H777 0.985 . S
C772 C766 1.379 1_565 S
C772 C769 1.363 . S
C772 N770 1.356 . S
C773 C767 1.363 . S
C773 C768 1.379 1_545 S
C773 N771 1.356 . S
N774 C766 1.356 . S
N774 H780 0.984 . S
N774 H781 0.984 . S
N775 C768 1.356 . S
N775 H778 0.984 . S
N775 H779 0.985 . S
H776 N771 0.984 . S
H777 N771 0.985 . S
H778 N775 0.984 . S
H779 N775 0.985 . S
H780 N774 0.984 . S
H781 N774 0.984 . S
H782 N770 0.984 . S
H783 N770 0.985 . S
C209 C3 1.480 . S
C211 C83 1.477 . S
C227 C16 1.480 . S
C229 C96 1.477 . S
C245 C55 1.477 . S
C247 C31 1.480 . S
C263 C70 1.477 . S
C265 C44 1.480 . S
C281 C187 1.477 . S
C283 C109 1.480 . S
C299 C200 1.477 . S
C301 C120 1.480 . S
C317 C135 1.480 . S
C319 C161 1.477 . S
C335 C146 1.480 . S
C337 C174 1.477 . S
C353 C4 1.579 . S
C355 C68 1.581 . S
C371 C17 1.579 . S
C373 C57 1.581 . S
C389 C36 1.579 . S
C391 C94 1.581 . S
C407 C81 1.581 . S
C409 C49 1.579 . S
C425 C172 1.581 . S
C427 C114 1.579 . S
C443 C159 1.581 . S
C445 C121 1.579 . S
C461 C140 1.579 . S
C463 C198 1.581 . S
C479 C185 1.581 . S
C481 C147 1.579 . S
C497 C160 1.507 . S
C499 C10 1.510 . S
C515 C23 1.510 . S
C517 C173 1.507 . S
C533 C186 1.507 . S
C535 C30 1.510 . S
C551 C199 1.507 . S
C553 C43 1.510 . S
C569 C108 1.510 . S
C571 C62 1.507 . S
C587 C127 1.510 . S
C589 C69 1.507 . S
C605 C82 1.507 . S
C607 C134 1.510 . S
C623 C95 1.507 . S
C625 C153 1.510 . S
C641 C29 1.700 . S
C643 C5 1.700 . S
C659 C18 1.700 . S
C661 C42 1.700 . S
C677 C88 1.437 . S
C679 C56 1.437 . S
C695 C75 1.437 . S
C697 C101 1.437 . S
C713 C133 1.700 . S
C715 C107 1.700 . S
C731 C148 1.700 . S
C733 C122 1.700 . S
C749 C192 1.437 . S
C751 C166 1.437 . S
C767 C205 1.437 . S
C769 C179 1.437 . S
