# Generated by pormake.
# Topology wkh, (6)-cn, num edge types: 1
# Building blocks:
#     Node 0, Type 0, BuildingBlock: VOLQOD_clean_sbu_1, # of connection points: 6
#     Node 1, Type 0, BuildingBlock: VOLQOD_clean_sbu_1, # of connection points: 6
#     Node 2, Type 0, BuildingBlock: VOLQOD_clean_sbu_1, # of connection points: 6
#     Node 3, Type 0, BuildingBlock: VOLQOD_clean_sbu_1, # of connection points: 6
#     Node 4, Type 0, BuildingBlock: VOLQOD_clean_sbu_1, # of connection points: 6
#     Node 5, Type 0, BuildingBlock: VOLQOD_clean_sbu_1, # of connection points: 6
#     Node 6, Type 0, BuildingBlock: VOLQOD_clean_sbu_1, # of connection points: 6
#     Node 7, Type 0, BuildingBlock: VOLQOD_clean_sbu_1, # of connection points: 6
#     Node 8, Type 0, BuildingBlock: VOLQOD_clean_sbu_1, # of connection points: 6
#     Node 9, Type 0, BuildingBlock: VOLQOD_clean_sbu_1, # of connection points: 6
#     Node 10, Type 0, BuildingBlock: VOLQOD_clean_sbu_1, # of connection points: 6
#     Node 11, Type 0, BuildingBlock: VOLQOD_clean_sbu_1, # of connection points: 6
#     Edge 12, Type (0, 0), BuildingBlock: XIVTED_clean_linker_0, # of connection points: 2
#     Edge 13, Type (0, 0), BuildingBlock: XIVTED_clean_linker_0, # of connection points: 2
#     Edge 14, Type (0, 0), BuildingBlock: XIVTED_clean_linker_0, # of connection points: 2
#     Edge 15, Type (0, 0), BuildingBlock: XIVTED_clean_linker_0, # of connection points: 2
#     Edge 16, Type (0, 0), BuildingBlock: XIVTED_clean_linker_0, # of connection points: 2
#     Edge 17, Type (0, 0), BuildingBlock: XIVTED_clean_linker_0, # of connection points: 2
#     Edge 18, Type (0, 0), BuildingBlock: XIVTED_clean_linker_0, # of connection points: 2
#     Edge 19, Type (0, 0), BuildingBlock: XIVTED_clean_linker_0, # of connection points: 2
#     Edge 20, Type (0, 0), BuildingBlock: XIVTED_clean_linker_0, # of connection points: 2
#     Edge 21, Type (0, 0), BuildingBlock: XIVTED_clean_linker_0, # of connection points: 2
#     Edge 22, Type (0, 0), BuildingBlock: XIVTED_clean_linker_0, # of connection points: 2
#     Edge 23, Type (0, 0), BuildingBlock: XIVTED_clean_linker_0, # of connection points: 2
#     Edge 24, Type (0, 0), BuildingBlock: XIVTED_clean_linker_0, # of connection points: 2
#     Edge 25, Type (0, 0), BuildingBlock: XIVTED_clean_linker_0, # of connection points: 2
#     Edge 26, Type (0, 0), BuildingBlock: XIVTED_clean_linker_0, # of connection points: 2
#     Edge 27, Type (0, 0), BuildingBlock: XIVTED_clean_linker_0, # of connection points: 2
#     Edge 28, Type (0, 0), BuildingBlock: XIVTED_clean_linker_0, # of connection points: 2
#     Edge 29, Type (0, 0), BuildingBlock: XIVTED_clean_linker_0, # of connection points: 2
#     Edge 30, Type (0, 0), BuildingBlock: XIVTED_clean_linker_0, # of connection points: 2
#     Edge 31, Type (0, 0), BuildingBlock: XIVTED_clean_linker_0, # of connection points: 2
#     Edge 32, Type (0, 0), BuildingBlock: XIVTED_clean_linker_0, # of connection points: 2
#     Edge 33, Type (0, 0), BuildingBlock: XIVTED_clean_linker_0, # of connection points: 2
#     Edge 34, Type (0, 0), BuildingBlock: XIVTED_clean_linker_0, # of connection points: 2
#     Edge 35, Type (0, 0), BuildingBlock: XIVTED_clean_linker_0, # of connection points: 2
#     Edge 36, Type (0, 0), BuildingBlock: XIVTED_clean_linker_0, # of connection points: 2
#     Edge 37, Type (0, 0), BuildingBlock: XIVTED_clean_linker_0, # of connection points: 2
#     Edge 38, Type (0, 0), BuildingBlock: XIVTED_clean_linker_0, # of connection points: 2
#     Edge 39, Type (0, 0), BuildingBlock: XIVTED_clean_linker_0, # of connection points: 2
#     Edge 40, Type (0, 0), BuildingBlock: XIVTED_clean_linker_0, # of connection points: 2
#     Edge 41, Type (0, 0), BuildingBlock: XIVTED_clean_linker_0, # of connection points: 2
#     Edge 42, Type (0, 0), BuildingBlock: XIVTED_clean_linker_0, # of connection points: 2
#     Edge 43, Type (0, 0), BuildingBlock: XIVTED_clean_linker_0, # of connection points: 2
#     Edge 44, Type (0, 0), BuildingBlock: XIVTED_clean_linker_0, # of connection points: 2
#     Edge 45, Type (0, 0), BuildingBlock: XIVTED_clean_linker_0, # of connection points: 2
#     Edge 46, Type (0, 0), BuildingBlock: XIVTED_clean_linker_0, # of connection points: 2
#     Edge 47, Type (0, 0), BuildingBlock: XIVTED_clean_linker_0, # of connection points: 2
# Relax obj value: 0.363
# Max RMSD: 0.262
# Mean RMSD: 0.262
data_MOF--net-wkh--node1-VOLQOD_clean_sbu_1--edge1-XIVTED_clean_linker_0
_symmetry_space_group_name_H-M    P1
_symmetry_Int_Tables_number       1
_symmetry_cell_setting            triclinic
loop_
_symmetry_equiv_pos_as_xyz
'x, y, z'
_cell_length_a     27.582069
_cell_length_b     27.583535
_cell_length_c     88.904006
_cell_angle_alpha  90.081184
_cell_angle_beta   89.871236
_cell_angle_gamma 120.02429
loop_
_atom_site_label
_atom_site_type_symbol
_atom_site_fract_x
_atom_site_fract_y
_atom_site_fract_z
_atom_type_partial_charge
O0 O 0.1241 0.3144 0.04211 0.0
Zn1 Zn 0.14347 0.30794 0.02072 0.0
O2 O 0.22309 0.34456 0.0181 0.0
Zn3 Zn 0.24558 0.29179 0.0124 0.0
Zn4 Zn 0.2579 0.37638 0.03709 0.0
Zn5 Zn 0.2479 0.3998 0.0021 0.0
O6 O 0.29785 0.31774 0.99494 0.0
O7 O 0.269 0.37034 0.98358 0.0
O8 O 0.1045 0.22813 0.01312 0.0
O9 O 0.17839 0.223 0.00535 0.0
O10 O 0.27708 0.26958 0.02955 0.0
O11 O 0.27794 0.3246 0.04785 0.0
O12 O 0.33085 0.44641 0.03267 0.0
O13 O 0.11453 0.34866 0.00883 0.0
O14 O 0.32197 0.4658 0.00882 0.0
O15 O 0.18598 0.41805 -0.00338 0.0
C16 C 0.15132 0.35055 0.05229 0.0
C17 C 0.29488 0.34276 0.98327 0.0
C18 C 0.28554 0.28522 0.04322 0.0
C19 C 0.1257 0.20208 0.00649 0.0
C20 C 0.35082 0.47629 0.02087 0.0
C21 C 0.13399 0.39101 0.00018 0.0
O22 O 0.20404 0.38415 0.05112 0.0
O23 O 0.79962 0.12514 0.21043 0.0
Zn24 Zn 0.82788 0.13865 0.18934 0.0
O25 O 0.87658 0.21662 0.18532 0.0
Zn26 Zn 0.948 0.22829 0.17867 0.0
Zn27 Zn 0.88641 0.25637 0.20405 0.0
Zn28 Zn 0.84717 0.2429 0.16928 0.0
O29 O 0.97596 0.27685 0.16049 0.0
O30 O 0.89592 0.2617 0.15047 0.0
O31 O 0.86268 0.09199 0.18437 0.0
O32 O 0.94029 0.15497 0.17273 0.0
O33 O 0.00526 0.26008 0.19507 0.0
O34 O 0.95992 0.27469 0.21356 0.0
O35 O 0.89167 0.32956 0.19912 0.0
O36 O 0.76086 0.11123 0.1766 0.0
O37 O 0.85843 0.31864 0.17577 0.0
O38 O 0.76635 0.18287 0.16374 0.0
C39 C 0.79862 0.15672 0.22072 0.0
C40 C 0.9485 0.28028 0.14947 0.0
C41 C 0.00344 0.27532 0.20848 0.0
C42 C 0.90597 0.10473 0.17651 0.0
C43 C 0.87997 0.34877 0.1875 0.0
C44 C 0.73997 0.13106 0.16744 0.0
O45 O 0.82636 0.20994 0.21946 0.0
O46 O 0.68096 0.80799 0.3774 0.0
Zn47 Zn 0.69217 0.83414 0.35617 0.0
O48 O 0.66192 0.88226 0.35257 0.0
Zn49 Zn 0.72099 0.95419 0.34596 0.0
Zn50 Zn 0.63246 0.89165 0.37144 0.0
Zn51 Zn 0.60517 0.85199 0.3368 0.0
O52 O 0.69842 0.98168 0.32813 0.0
O53 O 0.63302 0.90167 0.31815 0.0
O54 O 0.77286 0.86904 0.35027 0.0
O55 O 0.78655 0.94741 0.33937 0.0
O56 O 0.7472 0.01143 0.36247 0.0
O57 O 0.68699 0.96552 0.38083 0.0
O58 O 0.56323 0.89523 0.36697 0.0
O59 O 0.65089 0.7657 0.34395 0.0
O60 O 0.53973 0.86062 0.34376 0.0
O61 O 0.58493 0.77146 0.33111 0.0
C62 C 0.64891 0.80659 0.3879 0.0
C63 C 0.66659 0.95439 0.31723 0.0
C64 C 0.72986 0.00925 0.37586 0.0
C65 C 0.80278 0.91286 0.34254 0.0
C66 C 0.53125 0.88206 0.35553 0.0
C67 C 0.60982 0.7447 0.3349 0.0
O68 O 0.62178 0.83273 0.38682 0.0
O69 O 0.8727 0.67606 0.54539 0.0
Zn70 Zn 0.85986 0.69596 0.52478 0.0
O71 O 0.78096 0.66459 0.52122 0.0
Zn72 Zn 0.76437 0.72292 0.51661 0.0
Zn73 Zn 0.74027 0.62869 0.53953 0.0
Zn74 Zn 0.75786 0.61234 0.50429 0.0
O75 O 0.72846 0.71197 0.49661 0.0
O76 O 0.7396 0.64509 0.48611 0.0
O77 O 0.90355 0.7795 0.52198 0.0
O78 O 0.83488 0.79618 0.51626 0.0
O79 O 0.71734 0.73201 0.53209 0.0
O80 O 0.71627 0.6776 0.55051 0.0
O81 O 0.66859 0.56038 0.53347 0.0
O82 O 0.89083 0.66222 0.5109 0.0
O83 O 0.68243 0.54522 0.50962 0.0
O84 O 0.81976 0.59465 0.49822 0.0
C85 C 0.84158 0.64132 0.55539 0.0
C86 C 0.72461 0.68192 0.48533 0.0
C87 C 0.7056 0.71454 0.54555 0.0
C88 C 0.88634 0.81311 0.51862 0.0
C89 C 0.651 0.53278 0.52124 0.0
C90 C 0.87188 0.62199 0.50155 0.0
O91 O 0.7883 0.61486 0.55421 0.0
O92 O 0.19378 0.86745 0.71076 0.0
Zn93 Zn 0.16069 0.85019 0.69011 0.0
O94 O 0.11717 0.77068 0.68722 0.0
Zn95 Zn 0.04051 0.74769 0.68266 0.0
Zn96 Zn 0.1161 0.73408 0.70584 0.0
Zn97 Zn 0.14791 0.74805 0.67068 0.0
O98 O 0.01619 0.70718 0.6631 0.0
O99 O 0.09713 0.72777 0.65241 0.0
O100 O 0.11631 0.88879 0.68626 0.0
O101 O 0.03331 0.81543 0.68078 0.0
O102 O 0.98699 0.70348 0.69909 0.0
O103 O 0.04512 0.71261 0.71744 0.0
O104 O 0.11228 0.6615 0.70036 0.0
O105 O 0.22607 0.88226 0.67644 0.0
O106 O 0.1408 0.67355 0.67647 0.0
O107 O 0.22708 0.81141 0.66478 0.0
C108 C 0.20229 0.83913 0.72064 0.0
C109 C 0.04419 0.70722 0.65171 0.0
C110 C 0.99603 0.69813 0.71283 0.0
C111 C 0.06515 0.86784 0.68257 0.0
C112 C 0.12196 0.64295 0.68823 0.0
C113 C 0.24962 0.86379 0.66768 0.0
O114 O 0.17978 0.78597 0.71961 0.0
O115 O 0.32038 0.19097 0.87731 0.0
Zn116 Zn 0.30579 0.16253 0.85628 0.0
O117 O 0.33592 0.11446 0.85237 0.0
Zn118 Zn 0.27682 0.04341 0.84534 0.0
Zn119 Zn 0.36431 0.1033 0.87121 0.0
Zn120 Zn 0.39304 0.14538 0.83659 0.0
O121 O 0.29945 0.01668 0.82735 0.0
O122 O 0.36629 0.09662 0.81772 0.0
O123 O 0.22411 0.12661 0.85145 0.0
O124 O 0.21115 0.05061 0.83926 0.0
O125 O 0.2506 0.98483 0.86136 0.0
O126 O 0.30896 0.02836 0.88022 0.0
O127 O 0.43302 0.09902 0.86635 0.0
O128 O 0.34473 0.22973 0.84345 0.0
O129 O 0.45834 0.13634 0.84345 0.0
O130 O 0.41234 0.22563 0.8309 0.0
C131 C 0.35171 0.19121 0.88782 0.0
C132 C 0.33233 0.04407 0.81663 0.0
C133 C 0.26677 0.98516 0.87476 0.0
C134 C 0.19431 0.08392 0.84333 0.0
C135 C 0.46561 0.11306 0.85499 0.0
C136 C 0.38591 0.25121 0.83439 0.0
O137 O 0.37644 0.16264 0.88682 0.0
O138 O 0.6772 0.86892 0.78138 0.0
Zn139 Zn 0.68999 0.85405 0.80247 0.0
O140 O 0.65985 0.7756 0.80608 0.0
Zn141 Zn 0.71848 0.76317 0.81329 0.0
Zn142 Zn 0.63258 0.73695 0.78706 0.0
Zn143 Zn 0.60137 0.74853 0.82147 0.0
O144 O 0.69495 0.71408 0.83136 0.0
O145 O 0.6268 0.72629 0.84045 0.0
O146 O 0.77121 0.89973 0.80778 0.0
O147 O 0.7842 0.83597 0.81951 0.0
O148 O 0.7451 0.73061 0.79732 0.0
O149 O 0.68836 0.71777 0.77819 0.0
O150 O 0.56362 0.66356 0.79141 0.0
O151 O 0.64973 0.88157 0.81511 0.0
O152 O 0.53685 0.67426 0.81426 0.0
O153 O 0.58115 0.80882 0.82709 0.0
C154 C 0.64636 0.83824 0.77073 0.0
C155 C 0.66106 0.70824 0.84186 0.0
C156 C 0.72983 0.71581 0.78379 0.0
C157 C 0.80094 0.88639 0.81576 0.0
C158 C 0.53035 0.64432 0.80262 0.0
C159 C 0.60762 0.86104 0.82386 0.0
O160 O 0.62137 0.78489 0.77157 0.0
O161 O 0.79487 0.67105 0.94784 0.0
Zn162 Zn 0.8307 0.69176 0.96817 0.0
O163 O 0.87649 0.65829 0.97128 0.0
Zn164 Zn 0.95283 0.71455 0.97534 0.0
Zn165 Zn 0.87817 0.62147 0.95291 0.0
Zn166 Zn 0.84769 0.60635 0.98821 0.0
O167 O 0.97866 0.7032 0.99519 0.0
O168 O 0.90003 0.63924 0.00615 0.0
O169 O 0.87371 0.77553 0.97065 0.0
O170 O 0.95841 0.78908 0.97582 0.0
O171 O 0.00656 0.72146 0.95929 0.0
O172 O 0.94884 0.6704 0.94109 0.0
O173 O 0.88308 0.55389 0.95883 0.0
O174 O 0.76809 0.66082 0.98279 0.0
O175 O 0.85508 0.53871 0.98276 0.0
O176 O 0.76882 0.59028 0.99463 0.0
C177 C 0.78841 0.63455 0.93803 0.0
C178 C 0.9524 0.67457 0.00667 0.0
C179 C -0.00217 0.70553 0.94566 0.0
C180 C 0.92517 0.80776 0.97372 0.0
C181 C 0.87383 0.52644 0.97106 0.0
C182 C 0.74609 0.62007 0.99197 0.0
O183 O 0.81387 0.60673 0.93911 0.0
O184 O 0.1221 0.80285 0.11455 0.0
Zn185 Zn 0.13616 0.83065 0.13564 0.0
O186 O 0.21436 0.88086 0.13927 0.0
Zn187 Zn 0.22472 0.95189 0.14593 0.0
Zn188 Zn 0.25371 0.89152 0.12038 0.0
Zn189 Zn 0.24239 0.85204 0.15504 0.0
O190 O 0.27384 0.98046 0.16392 0.0
O191 O 0.26475 0.90221 0.17361 0.0
O192 O 0.08854 0.86424 0.14083 0.0
O193 O 0.15111 0.94302 0.15205 0.0
O194 O 0.25594 0.00969 0.12961 0.0
O195 O 0.27238 0.96548 0.1112 0.0
O196 O 0.3271 0.89641 0.12482 0.0
O197 O 0.11015 0.76356 0.14838 0.0
O198 O 0.31662 0.86145 0.14795 0.0
O199 O 0.18313 0.77169 0.1611 0.0
C200 C 0.15338 0.80362 0.10391 0.0
C201 C 0.28124 0.95436 0.17463 0.0
C202 C 0.27221 0.00856 0.11628 0.0
C203 C 0.1009 0.90775 0.14852 0.0
C204 C 0.34637 0.88348 0.13619 0.0
C205 C 0.13124 0.74399 0.15757 0.0
O206 O 0.20664 0.83255 0.10484 0.0
O207 O 0.32593 0.1261 0.2811 0.0
Zn208 Zn 0.30843 0.13831 0.30202 0.0
O209 O 0.33684 0.21624 0.30613 0.0
Zn210 Zn 0.27591 0.22747 0.31201 0.0
Zn211 Zn 0.36984 0.25728 0.28774 0.0
Zn212 Zn 0.39037 0.24184 0.32267 0.0
O213 O 0.29357 0.2747 0.33046 0.0
O214 O 0.35789 0.25988 0.34101 0.0
O215 O 0.2262 0.09116 0.30616 0.0
O216 O 0.20969 0.15376 0.31729 0.0
O217 O 0.25249 0.25972 0.29517 0.0
O218 O 0.31658 0.2767 0.27769 0.0
O219 O 0.43721 0.33024 0.29327 0.0
O220 O 0.34643 0.11031 0.31527 0.0
O221 O 0.45609 0.31759 0.31683 0.0
O222 O 0.41043 0.18186 0.32863 0.0
C223 C 0.35929 0.15813 0.271 0.0
C224 C 0.32333 0.27782 0.34173 0.0
C225 C 0.27244 0.2764 0.28205 0.0
C226 C 0.19446 0.10368 0.31353 0.0
C227 C 0.46647 0.34853 0.3052 0.0
C228 C 0.38587 0.13018 0.32484 0.0
O229 O 0.38458 0.21132 0.2724 0.0
O230 O 0.18651 0.31505 0.44973 0.0
Zn231 Zn 0.16277 0.31009 0.47128 0.0
O232 O 0.11883 0.34553 0.47405 0.0
Zn233 Zn 0.04436 0.29209 0.48015 0.0
Zn234 Zn 0.11401 0.37615 0.45505 0.0
Zn235 Zn 0.14899 0.40097 0.49 0.0
O236 O 0.01793 0.31933 0.49733 0.0
O237 O 0.09953 0.37082 0.50874 0.0
O238 O 0.12405 0.23117 0.47946 0.0
O239 O 0.04551 0.2255 0.48793 0.0
O240 O 0.98965 0.26676 0.46313 0.0
O241 O 0.04142 0.32333 0.44476 0.0
O242 O 0.11117 0.44621 0.45937 0.0
O243 O 0.23328 0.35277 0.48273 0.0
O244 O 0.13911 0.46586 0.48325 0.0
O245 O 0.22981 0.42095 0.49519 0.0
C246 C 0.19388 0.35021 0.43941 0.0
C247 C 0.04604 0.34368 0.50905 0.0
C248 C 0.99544 0.28264 0.44949 0.0
C249 C 0.07805 0.20552 0.48668 0.0
C250 C 0.12074 0.4761 0.47117 0.0
C251 C 0.2557 0.3951 0.49139 0.0
O252 O 0.17441 0.38346 0.44063 0.0
O253 O 0.86808 0.1807 0.61485 0.0
Zn254 Zn 0.85014 0.15548 0.63641 0.0
O255 O 0.77057 0.11384 0.63957 0.0
Zn256 Zn 0.74693 0.03888 0.64565 0.0
Zn257 Zn 0.73446 0.10949 0.62072 0.0
Zn258 Zn 0.74763 0.14619 0.65557 0.0
O259 O 0.6969 0.01505 0.66353 0.0
O260 O 0.72772 0.09766 0.67444 0.0
O261 O 0.88821 0.11314 0.64361 0.0
O262 O 0.81384 0.0358 0.65198 0.0
O263 O 0.71175 0.98347 0.62909 0.0
O264 O 0.71164 0.03591 0.61027 0.0
O265 O 0.66276 0.10825 0.62546 0.0
O266 O 0.88124 0.22571 0.64833 0.0
O267 O 0.67309 0.13804 0.6492 0.0
O268 O 0.81101 0.22619 0.66058 0.0
C269 C 0.84004 0.18969 0.60496 0.0
C270 C 0.70122 0.04423 0.67506 0.0
C271 C 0.70239 0.98892 0.61539 0.0
C272 C 0.86651 0.06613 0.65036 0.0
C273 C 0.64349 0.11895 0.63728 0.0
C274 C 0.8629 0.24979 0.65696 0.0
O275 O 0.78747 0.17063 0.60651 0.0
H276 H 0.69589 0.68351 0.99067 0.0
H277 H 0.40978 0.55842 3e-05 0.0
H278 H 0.67284 0.52891 0.00939 0.0
H279 H 0.43194 0.47698 0.03869 0.0
H280 H 0.50963 0.60125 0.99464 0.0
H281 H 0.60406 0.66065 -9e-05 0.0
C282 C 0.67154 0.64453 -0.00329 0.0
C283 C 0.69198 0.60745 -0.00104 0.0
C284 C 0.49307 0.57543 0.00458 0.0
C285 C 0.58556 0.58076 0.00943 0.0
C286 C 0.43592 0.55096 0.00767 0.0
C287 C 0.41227 0.51417 0.01985 0.0
C288 C 0.52685 0.56251 0.01364 0.0
C289 C 0.44828 0.50543 0.02924 0.0
C290 C 0.61877 0.63147 0.00192 0.0
C291 C 0.65863 0.55838 0.00722 0.0
N292 N 0.50352 0.52842 0.02574 0.0
N293 N 0.6068 0.54626 0.0121 0.0
H294 H 0.15062 0.68877 0.18071 0.0
H295 H 0.9459 0.42929 0.20805 0.0
H296 H 0.0242 0.671 0.14903 0.0
H297 H 0.87283 0.40928 0.16395 0.0
H298 H 0.00671 0.52879 0.203 0.0
H299 H 0.0846 0.59572 0.19071 0.0
C300 C 0.10901 0.66557 0.17594 0.0
C301 C 0.09312 0.68789 0.16402 0.0
C302 C 0.97746 0.50268 0.19443 0.0
C303 C 0.01682 0.58211 0.1756 0.0
C304 C 0.94183 0.44586 0.19739 0.0
C305 C 0.90471 0.41033 0.18629 0.0
C306 C 0.9759 0.52419 0.18026 0.0
C307 C 0.90114 0.43468 0.17279 0.0
C308 C 0.07097 0.61273 0.18178 0.0
C309 C 0.03855 0.65583 0.15825 0.0
N310 N 0.9367 0.48995 0.17011 0.0
N311 N 0.00273 0.60463 0.164 0.0
H312 H 0.4595 0.14769 0.34813 0.0
H313 H 0.44957 0.85801 0.33452 0.0
H314 H 0.3482 0.02212 0.31656 0.0
H315 H 0.52814 0.96118 0.37351 0.0
H316 H 0.40746 0.91529 0.32877 0.0
H317 H 0.484 0.07971 0.35819 0.0
C318 C 0.44022 0.10604 0.34334 0.0
C319 C 0.40208 0.09092 0.33141 0.0
C320 C 0.43313 0.92485 0.33874 0.0
C321 C 0.42951 0.01308 0.34287 0.0
C322 C 0.45687 0.89181 0.34209 0.0
C323 C 0.493 0.90505 0.35441 0.0
C324 C 0.44633 0.97208 0.34764 0.0
C325 C 0.50079 0.94945 0.36384 0.0
C326 C 0.45386 0.06714 0.34914 0.0
C327 C 0.37801 0.03607 0.32571 0.0
N328 N 0.47864 0.9821 0.36008 0.0
N329 N 0.3924 -0.00051 0.33141 0.0
H330 H 0.3131 0.46482 0.51528 0.0
H331 H 0.59491 0.46138 0.49787 0.0
H332 H 0.32854 0.36481 0.48022 0.0
H333 H 0.56709 0.52368 0.53968 0.0
H334 H 0.49635 0.42352 0.49158 0.0
H335 H 0.40665 0.48861 0.52437 0.0
C336 C 0.33611 0.44809 0.50948 0.0
C337 C 0.31287 0.41286 0.49697 0.0
C338 C 0.51159 0.44469 0.50225 0.0
C339 C 0.41935 0.43945 0.50731 0.0
C340 C 0.56787 0.46592 0.50591 0.0
C341 C 0.58968 0.49621 0.51927 0.0
C342 C 0.47695 0.45451 0.51191 0.0
C343 C 0.55236 0.50077 0.52923 0.0
C344 C 0.38921 0.46122 0.51474 0.0
C345 C 0.34448 0.392 0.48994 0.0
N346 N 0.49813 0.48114 0.52522 0.0
N347 N 0.39597 0.40579 0.49515 0.0
H348 H 0.96795 0.31886 0.64622 0.0
H349 H 0.04777 0.56024 0.70709 0.0
H350 H 0.85301 0.30966 0.68067 0.0
H351 H 0.13555 0.58499 0.66499 0.0
H352 H 0.98659 0.46188 0.70053 0.0
H353 H 0.0377 0.41024 0.65562 0.0
C354 C 0.95724 0.33597 0.6558 0.0
C355 C 0.90416 0.30635 0.66262 0.0
C356 C 0.01981 0.4887 0.69285 0.0
C357 C 0.98484 0.4116 0.67355 0.0
C358 C 0.05539 0.54482 0.69666 0.0
C359 C 0.09678 0.58142 0.6865 0.0
C360 C 0.02601 0.46873 0.67889 0.0
C361 C 0.10412 0.55865 0.67313 0.0
C362 C 0.99732 0.38832 0.66116 0.0
C363 C 0.8931 0.33109 0.67499 0.0
N364 N 0.06876 0.50397 0.66966 0.0
N365 N 0.93319 0.38233 0.68008 0.0
H366 H 0.53255 0.84369 0.84682 0.0
H367 H 0.54595 0.13542 0.83355 0.0
H368 H 0.64485 0.96861 0.81524 0.0
H369 H 0.46763 0.03281 0.87267 0.0
H370 H 0.58602 0.07651 0.8274 0.0
H371 H 0.50811 0.91203 0.85675 0.0
C372 C 0.55197 0.88525 0.84198 0.0
C373 C 0.59059 0.90018 0.83014 0.0
C374 C 0.56082 0.06742 0.83748 0.0
C375 C 0.56323 0.97844 0.84144 0.0
C376 C 0.53827 0.1014 0.84106 0.0
C377 C 0.50282 0.08887 0.85356 0.0
C378 C 0.54717 0.02 0.84631 0.0
C379 C 0.49448 0.04407 0.86287 0.0
C380 C 0.5384 0.92437 0.84771 0.0
C381 C 0.61482 0.95491 0.82436 0.0
N382 N 0.51552 0.01059 0.8589 0.0
N383 N 0.60051 0.99173 0.82999 0.0
H384 H 0.52814 0.563 0.78435 0.0
H385 H 0.34655 0.31987 0.843 0.0
H386 H 0.45001 0.58496 0.82393 0.0
H387 H 0.46051 0.31002 0.81138 0.0
H388 H 0.37043 0.41073 0.83292 0.0
H389 H 0.48756 0.46396 0.79059 0.0
C390 C 0.50119 0.54685 0.79413 0.0
C391 C 0.49312 0.58281 0.80375 0.0
C392 C 0.39019 0.38878 0.82814 0.0
C393 C 0.44724 0.46942 0.81099 0.0
C394 C 0.37667 0.33668 0.83389 0.0
C395 C 0.40185 0.30707 0.8281 0.0
C396 C 0.42919 0.41201 0.81642 0.0
C397 C 0.44043 0.33145 0.81627 0.0
C398 C 0.47863 0.49034 0.79775 0.0
C399 C 0.45785 0.55914 0.81625 0.0
N400 N 0.45304 0.38267 0.81082 0.0
N401 N 0.43674 0.50412 0.81958 0.0
H402 H 0.85927 0.45455 0.99423 0.0
H403 H 0.14638 0.46237 0.9767 0.0
H404 H 0.94924 0.51893 0.95249 0.0
H405 H 0.0293 0.35711 0.01081 0.0
H406 H 0.07613 0.48571 0.96775 0.0
H407 H 0.92049 0.41702 0.00024 0.0
C408 C 0.89094 0.45963 0.98615 0.0
C409 C 0.89915 0.49032 0.97288 0.0
C410 C 0.06593 0.45724 0.97713 0.0
C411 C 0.97078 0.44903 0.97993 0.0
C412 C 0.10616 0.44432 0.98231 0.0
C413 C 0.09391 0.40782 0.99454 0.0
C414 C 0.01352 0.43402 0.98437 0.0
C415 C 0.04082 0.38533 0.00132 0.0
C416 C 0.92626 0.43857 0.98964 0.0
C417 C 0.9412 0.49563 0.96287 0.0
N418 N 0.00293 0.39901 -0.00379 0.0
N419 N 0.97609 0.47618 0.96672 0.0
H420 H 0.42777 0.96132 0.1177 0.0
H421 H 0.67014 0.02398 0.17649 0.0
H422 H 0.40539 0.86291 0.15758 0.0
H423 H 0.68187 0.14643 0.14422 0.0
H424 H 0.57917 0.95708 0.16652 0.0
H425 H 0.52697 0.01951 0.1238 0.0
C426 C 0.44386 0.95082 0.12752 0.0
C427 C 0.40779 0.9074 0.13727 0.0
C428 C 0.60153 -0.00153 0.16157 0.0
C429 C 0.52127 0.97456 0.14434 0.0
C430 C 0.6537 0.03701 0.16726 0.0
C431 C 0.6839 0.0914 0.16125 0.0
C432 C 0.57876 0.01386 0.1497 0.0
C433 C 0.65996 0.10525 0.14928 0.0
C434 C 0.50046 0.98462 0.13106 0.0
C435 C 0.43132 0.89612 0.14981 0.0
N436 N 0.60861 0.06667 0.1439 0.0
N437 N 0.48641 0.92988 0.15306 0.0
H438 H 0.54178 0.40571 0.3277 0.0
H439 H 0.53803 0.6876 0.31131 0.0
H440 H 0.47273 0.43139 0.28693 0.0
H441 H 0.64223 0.67233 0.345 0.0
H442 H 0.51284 0.59381 0.30201 0.0
H443 H 0.58173 0.50481 0.33366 0.0
C444 C 0.53611 0.43237 0.31982 0.0
C445 C 0.50339 0.40988 0.30687 0.0
C446 C 0.54151 0.61141 0.31138 0.0
C447 C 0.54756 0.52324 0.31385 0.0
C448 C 0.5555 0.66467 0.31675 0.0
C449 C 0.59213 0.68794 0.32898 0.0
C450 C 0.56392 0.58122 0.31841 0.0
C451 C 0.61386 0.65639 0.33554 0.0
C452 C 0.55858 0.48897 0.32327 0.0
C453 C 0.4975 0.44669 0.29708 0.0
N454 N 0.59922 0.6048 0.33023 0.0
N455 N 0.51842 0.50131 0.30091 0.0
H456 H 0.04379 0.47937 0.45238 0.0
H457 H 0.9815 0.66573 0.50918 0.0
H458 H 0.1399 0.55561 0.49255 0.0
H459 H 0.85612 0.54556 0.47904 0.0
H460 H 0.04859 0.64129 0.4994 0.0
H461 H 0.98557 0.52086 0.45804 0.0
C462 C 0.05385 0.50618 0.46216 0.0
C463 C 0.09671 0.51357 0.47209 0.0
C464 C 0.00653 0.62038 0.49486 0.0
C465 C 0.02955 0.56053 0.47866 0.0
C466 C 0.96788 0.63424 0.50043 0.0
C467 C 0.91253 0.60729 0.49503 0.0
C468 C 0.9903 0.57936 0.48369 0.0
C469 C 0.89806 0.56707 0.48364 0.0
C470 C 0.02001 0.52921 0.46546 0.0
C471 C 0.10723 0.54843 0.48462 0.0
N472 N 0.93674 0.55416 0.47836 0.0
N473 N 0.07358 0.57019 0.48761 0.0
H474 H 0.5624 0.04459 0.61816 0.0
H475 H 0.31491 0.97235 0.67633 0.0
H476 H 0.58377 0.13483 0.65964 0.0
H477 H 0.31127 0.85105 0.64487 0.0
H478 H 0.4063 0.0413 0.66679 0.0
H479 H 0.46319 0.98479 0.62409 0.0
C480 C 0.5461 0.05307 0.62831 0.0
C481 C 0.58195 0.09469 0.63851 0.0
C482 C 0.38551 -0.00027 0.66192 0.0
C483 C 0.46827 0.02564 0.64535 0.0
C484 C 0.33311 0.96006 0.66733 0.0
C485 C 0.30516 0.90534 0.66146 0.0
C486 C 0.41056 0.98519 0.65041 0.0
C487 C 0.33135 0.89246 0.64982 0.0
C488 C 0.48949 0.01829 0.63174 0.0
C489 C 0.55804 0.10318 0.65148 0.0
N490 N 0.38271 0.93216 0.64467 0.0
N491 N 0.50285 0.06863 0.65459 0.0
H492 H 0.28371 0.3745 0.95476 0.0
H493 H 0.39624 0.18858 0.91534 0.0
H494 H 0.35593 0.29046 0.97903 0.0
H495 H 0.31882 0.26866 0.8916 0.0
H496 H 0.39415 0.23625 0.93842 0.0
H497 H 0.30903 0.34733 0.93113 0.0
C498 C 0.30554 0.35103 0.95514 0.0
C499 C 0.31692 0.33408 0.96892 0.0
C500 C 0.37813 0.24374 0.92811 0.0
C501 C 0.3456 0.30235 0.94191 0.0
C502 C 0.37943 0.21661 0.91493 0.0
C503 C 0.35694 0.22394 0.90156 0.0
C504 C 0.35425 0.27843 0.92788 0.0
C505 C 0.33586 0.26098 0.90168 0.0
C506 C 0.31985 0.33534 0.94164 0.0
C507 C 0.34558 0.30387 0.96869 0.0
N508 N 0.33461 0.28639 0.91464 0.0
N509 N 0.35836 0.28847 0.95542 0.0
H510 H 0.0613 0.34358 0.14495 0.0
H511 H 0.03812 0.30059 0.05638 0.0
H512 H 0.90393 0.26788 0.12115 0.0
H513 H 0.19502 0.4014 0.07943 0.0
H514 H 0.98822 0.29338 0.07969 0.0
H515 H 0.1108 0.37059 0.12097 0.0
C516 C 0.03709 0.33305 0.13467 0.0
C517 C 0.9783 0.30278 0.13506 0.0
C518 C 0.03353 0.31759 0.07963 0.0
C519 C 0.03494 0.33329 0.10749 0.0
C520 C 0.06214 0.32161 0.06632 0.0
C521 C 0.12096 0.35114 0.06598 0.0
C522 C 0.06385 0.34271 0.09278 0.0
C523 C 0.14971 0.378 0.07918 0.0
C524 C 0.06546 0.34863 0.12096 0.0
C525 C 0.94925 0.29094 0.12138 0.0
N526 N 0.12087 0.37256 0.09209 0.0
N527 N 0.97788 0.30556 0.10814 0.0
H528 H 0.80409 0.2059 0.24809 0.0
H529 H 0.62398 0.91046 0.28937 0.0
H530 H 0.72129 0.0466 0.22511 0.0
H531 H 0.72284 0.06748 0.31263 0.0
H532 H 0.64503 0.96168 0.26558 0.0
H533 H 0.76042 0.15777 0.27165 0.0
C534 C 0.77616 0.16099 0.24795 0.0
C535 C 0.76707 0.13016 0.23466 0.0
C536 C 0.66161 0.98493 0.27593 0.0
C537 C 0.71722 0.07486 0.26153 0.0
C538 C 0.64947 0.95569 0.28951 0.0
C539 C 0.67242 0.98458 0.30299 0.0
C540 C 0.69685 0.04342 0.27584 0.0
C541 C 0.70496 0.0433 0.30249 0.0
C542 C 0.75137 0.13349 0.26141 0.0
C543 C 0.73027 0.07201 0.23514 0.0
N544 N 0.71662 0.07069 0.28914 0.0
N545 N 0.70715 0.04624 0.24837 0.0
H546 H 0.68166 0.72917 0.39186 0.0
H547 H 0.67317 0.74343 0.48106 0.0
H548 H 0.61192 0.81642 0.41585 0.0
H549 H 0.72651 0.64178 0.45712 0.0
H550 H 0.64353 0.76434 0.45737 0.0
H551 H 0.69048 0.69001 0.41554 0.0
C552 C 0.66765 0.73968 0.40211 0.0
C553 C 0.6467 0.77677 0.40191 0.0
C554 C 0.66128 0.73711 0.45728 0.0
C555 C 0.65717 0.73231 0.42912 0.0
C556 C 0.67849 0.72527 0.47081 0.0
C557 C 0.7031 0.69133 0.47106 0.0
C558 C 0.66911 0.7153 0.44382 0.0
C559 C 0.70813 0.66844 0.45745 0.0
C560 C 0.67266 0.7172 0.41564 0.0
C561 C 0.62855 0.78825 0.4155 0.0
N562 N 0.69182 0.68134 0.44435 0.0
N563 N 0.63491 0.76667 0.4286 0.0
H564 H 0.79286 0.59397 0.5825 0.0
H565 H 0.08886 0.71372 0.62361 0.0
H566 H 0.95229 0.6762 0.55952 0.0
H567 H 0.93113 0.65032 0.64697 0.0
H568 H 0.03804 0.68489 0.59976 0.0
H569 H 0.84148 0.59837 0.60591 0.0
C570 C 0.83792 0.61213 0.58232 0.0
C571 C 0.86861 0.63554 0.56909 0.0
C572 C 0.01457 0.67687 0.61013 0.0
C573 C 0.92447 0.64108 0.5958 0.0
C574 C 0.04358 0.69328 0.62375 0.0
C575 C 0.01433 0.68526 0.6373 0.0
C576 C 0.95594 0.6522 0.61008 0.0
C577 C 0.95557 0.65817 0.63679 0.0
C578 C 0.8657 0.61486 0.59569 0.0
C579 C 0.92697 0.65843 0.56951 0.0
N580 N 0.92838 0.64306 0.62341 0.0
N581 N 0.95302 0.6611 0.58267 0.0
H582 H 0.28533 0.93142 0.81263 0.0
H583 H 0.27321 0.95154 0.72387 0.0
H584 H 0.36814 0.08779 0.78833 0.0
H585 H 0.20777 0.79515 0.74788 0.0
H586 H 0.31759 0.00186 0.74695 0.0
H587 H 0.26609 0.88093 0.7889 0.0
C588 C 0.29996 0.95521 0.80229 0.0
C589 C 0.32763 0.01398 0.80244 0.0
C590 C 0.29417 0.95654 0.74716 0.0
C591 C 0.30527 0.95619 0.77516 0.0
C592 C 0.26866 0.92769 0.73398 0.0
C593 C 0.23595 0.86899 0.734 0.0
C594 C 0.28646 0.9266 0.76053 0.0
C595 C 0.23225 0.84038 0.74737 0.0
C596 C 0.28905 0.92627 0.78873 0.0
C597 C 0.34634 0.0425 0.78872 0.0
N598 N 0.2565 0.86953 0.76016 0.0
N599 N 0.33406 0.01329 0.7756 0.0
H600 H 0.61836 0.71203 0.86954 0.0
H601 H 0.78369 0.58192 0.91137 0.0
H602 H 0.71228 0.64693 0.8468 0.0
H603 H 0.71634 0.67426 0.93387 0.0
H604 H 0.73937 0.58656 0.88804 0.0
H605 H 0.63609 0.68002 0.89351 0.0
C606 C 0.642 0.69034 0.86955 0.0
C607 C 0.6647 0.68303 0.85618 0.0
C608 C 0.73374 0.60518 0.89814 0.0
C609 C 0.68509 0.64636 0.8835 0.0
C610 C 0.75884 0.60233 0.91148 0.0
C611 C 0.75456 0.62859 0.92454 0.0
C612 C 0.70408 0.63436 0.89788 0.0
C613 C 0.72157 0.65424 0.92402 0.0
C614 C 0.65223 0.67221 0.88323 0.0
C615 C 0.6948 0.65438 0.85686 0.0
N616 N 0.69813 0.65702 0.91087 0.0
N617 N 0.70451 0.63756 0.87029 0.0
H618 H 0.06564 0.73588 0.01074 0.0
H619 H 0.04429 0.72257 0.10006 0.0
H620 H 0.91107 0.63549 0.03499 0.0
H621 H 0.20022 0.81558 0.07585 0.0
H622 H 0.99653 0.68226 0.07642 0.0
H623 H 0.11673 0.75787 0.03438 0.0
C624 C 0.04236 0.71818 0.02103 0.0
C625 C 0.98375 0.68433 0.02089 0.0
C626 C 0.04128 0.711 0.07627 0.0
C627 C 0.04234 0.70955 0.04807 0.0
C628 C 0.06866 0.73412 0.08977 0.0
C629 C 0.12629 0.77316 0.08991 0.0
C630 C 0.07154 0.72734 0.06274 0.0
C631 C 0.15573 0.7859 0.07626 0.0
C632 C 0.07171 0.73068 0.03454 0.0
C633 C 0.95613 0.66209 0.03457 0.0
N634 N 0.12786 0.76359 0.06319 0.0
N635 N 0.98564 0.67557 0.04763 0.0
H636 H 0.28638 0.91216 0.20222 0.0
H637 H 0.40004 0.20752 0.24349 0.0
H638 H 0.33427 0.06743 0.17914 0.0
H639 H 0.33007 0.04897 0.26662 0.0
H640 H 0.39392 0.15942 0.21978 0.0
H641 H 0.31939 0.96427 0.22584 0.0
C642 C 0.3044 0.95721 0.20208 0.0
C643 C 0.30667 0.98529 0.18872 0.0
C644 C 0.38056 0.13533 0.23009 0.0
C645 C 0.34445 0.04514 0.21567 0.0
C646 C 0.38431 0.16282 0.24363 0.0
C647 C 0.36469 0.1321 0.25701 0.0
C648 C 0.35721 0.07682 0.22998 0.0
C649 C 0.34481 0.07422 0.25653 0.0
C650 C 0.32316 0.98694 0.21556 0.0
C651 C 0.3308 0.04383 0.1892 0.0
N652 N 0.34106 0.04842 0.24323 0.0
N653 N 0.34826 0.0717 0.20246 0.0
H654 H 0.26811 0.33585 0.34621 0.0
H655 H 0.25874 0.30222 0.4351 0.0
H656 H 0.35797 0.26895 0.37003 0.0
H657 H 0.19594 0.39714 0.412 0.0
H658 H 0.29923 0.29366 0.41154 0.0
H659 H 0.24527 0.36274 0.37019 0.0
C660 C 0.28344 0.32717 0.35648 0.0
C661 C 0.31454 0.29952 0.35611 0.0
C662 C 0.27711 0.31686 0.41163 0.0
C663 C 0.28811 0.32997 0.38365 0.0
C664 C 0.25379 0.32165 0.42508 0.0
C665 C 0.22336 0.34998 0.4255 0.0
C666 C 0.26946 0.33996 0.39841 0.0
C667 C 0.21888 0.37478 0.4122 0.0
C668 C 0.27047 0.34271 0.37018 0.0
C669 C 0.33371 0.28995 0.36977 0.0
N670 N 0.2411 0.36861 0.39915 0.0
N671 N 0.31961 0.30455 0.383 0.0
H672 H 0.93402 0.30258 0.51291 0.0
H673 H 0.79711 0.22168 0.5816 0.0
H674 H 0.0874 0.36161 0.53791 0.0
H675 H 0.95009 0.23184 0.59718 0.0
H676 H 0.84531 0.27056 0.55869 0.0
H677 H 0.8814 0.27253 0.5362 0.0
C678 C 0.9568 0.31032 0.52337 0.0
C679 C 0.0153 0.33435 0.52342 0.0
C680 C 0.8683 0.26149 0.56697 0.0
C681 C 0.95493 0.30061 0.55043 0.0
C682 C 0.84076 0.23389 0.58017 0.0
C683 C 0.86921 0.22168 0.59125 0.0
C684 C 0.92464 0.27645 0.56475 0.0
C685 C 0.92613 0.23962 0.58888 0.0
C686 C 0.92656 0.29347 0.53678 0.0
C687 C 0.04239 0.34329 0.53733 0.0
N688 N 0.95178 0.26572 0.57588 0.0
N689 N 0.01189 0.32566 0.55026 0.0
H690 H 0.59896 0.79118 0.74342 0.0
H691 H 0.718 0.08931 0.70349 0.0
H692 H 0.68358 0.94954 0.76683 0.0
H693 H 0.63639 0.93156 0.67975 0.0
H694 H 0.69385 0.03803 0.7273 0.0
H695 H 0.60097 0.84101 0.72043 0.0
C696 C 0.61743 0.83626 0.74378 0.0
C697 C 0.64182 0.86621 0.75703 0.0
C698 C 0.68071 0.01467 0.71687 0.0
C699 C 0.64442 0.9235 0.7308 0.0
C700 C 0.69434 0.04398 0.70327 0.0
C701 C 0.67998 0.01478 0.68959 0.0
C702 C 0.65265 0.95577 0.71677 0.0
C703 C 0.6491 0.95593 0.69001 0.0
C704 C 0.61864 0.86473 0.73065 0.0
C705 C 0.66495 0.92466 0.75684 0.0
N706 N 0.63703 0.92843 0.70336 0.0
N707 N 0.66608 0.95135 0.74393 0.0
H708 H 0.27873 0.10858 0.12313 0.0
H709 H 0.31083 0.2029 0.03734 0.0
H710 H 0.30189 0.01897 0.08652 0.0
H711 H 0.29138 0.29492 0.07396 0.0
H712 H 0.32041 0.14229 0.05557 0.0
H713 H 0.29548 0.18374 0.10573 0.0
C714 C 0.28781 0.10487 0.11146 0.0
C715 C 0.28809 0.05695 0.10624 0.0
C716 C 0.31466 0.17611 0.05963 0.0
C717 C 0.30711 0.14287 0.08625 0.0
C718 C 0.3092 0.2108 0.04922 0.0
C719 C 0.29942 0.25357 0.05412 0.0
C720 C 0.3099 0.18392 0.07506 0.0
C721 C 0.29834 0.26216 0.06966 0.0
C722 C 0.29744 0.14789 0.10153 0.0
C723 C 0.30067 0.05482 0.09103 0.0
N724 N 0.30276 0.22715 0.07957 0.0
N725 N 0.30909 0.09688 0.08154 0.0
H726 H 0.10457 0.28516 0.20139 0.0
H727 H 0.30438 0.31958 0.25366 0.0
H728 H 0.01125 0.29829 0.2387 0.0
H729 H 0.16995 0.26821 0.28585 0.0
H730 H 0.24813 0.33403 0.2351 0.0
H731 H 0.17794 0.29767 0.21864 0.0
C732 C 0.09998 0.29176 0.2132 0.0
C733 C 0.05136 0.29018 0.2186 0.0
C734 C 0.23051 0.31899 0.24614 0.0
C735 C 0.13627 0.30584 0.23856 0.0
C736 C 0.26297 0.31129 0.25683 0.0
C737 C 0.24144 0.29151 0.27126 0.0
C738 C 0.17576 0.30606 0.24984 0.0
C739 C 0.18801 0.28273 0.27481 0.0
C740 C 0.1424 0.29953 0.22309 0.0
C741 C 0.04785 0.29896 0.23403 0.0
N742 N 0.15682 0.28953 0.26412 0.0
N743 N 0.08939 0.30566 0.24348 0.0
H744 H 0.82205 0.11074 0.3693 0.0
H745 H 0.88973 0.19638 0.45555 0.0
H746 H 0.71196 0.01644 0.40591 0.0
H747 H 0.99645 0.29487 0.41887 0.0
H748 H 0.81891 0.13615 0.43738 0.0
H749 H 0.88101 0.18434 0.38704 0.0
C750 C 0.80993 0.10569 0.38104 0.0
C751 C 0.76234 0.05691 0.38615 0.0
C752 C 0.85757 0.17128 0.4333 0.0
C753 C 0.82992 0.141 0.40654 0.0
C754 C 0.8981 0.20574 0.44368 0.0
C755 C 0.94951 0.25034 0.43873 0.0
C756 C 0.86862 0.18118 0.41784 0.0
C757 C 0.95767 0.26069 0.42321 0.0
C758 C 0.84365 0.14781 0.39117 0.0
C759 C 0.74851 0.05303 0.40148 0.0
N760 N 0.91793 0.22596 0.41331 0.0
N761 N 0.78249 0.09422 0.41115 0.0
H762 H 0.68723 0.69935 0.57601 0.0
H763 H 0.68326 0.98415 0.58497 0.0
H764 H 0.67858 0.79472 0.53866 0.0
H765 H 0.68166 0.88368 0.6224 0.0
H766 H 0.66705 0.908 0.56792 0.0
H767 H 0.6702 0.75838 0.59322 0.0
C768 C 0.68086 0.73207 0.5714 0.0
C769 C 0.68546 0.74276 0.55588 0.0
C770 C 0.66954 0.90235 0.57989 0.0
C771 C 0.66657 0.81085 0.57551 0.0
C772 C 0.67882 0.94588 0.58963 0.0
C773 C 0.68487 0.94077 0.60512 0.0
C774 C 0.6667 0.85356 0.58566 0.0
C775 C 0.67815 0.8899 0.61052 0.0
C776 C 0.67124 0.76587 0.58123 0.0
C777 C 0.67634 0.78547 0.55055 0.0
N778 N 0.67019 0.84862 0.60079 0.0
N779 N 0.66817 0.81845 0.56036 0.0
H780 H 0.88555 0.66125 0.707 0.0
H781 H 0.82234 0.70899 0.79159 0.0
H782 H 0.00157 0.69917 0.74367 0.0
H783 H 0.71243 0.68351 0.75417 0.0
H784 H 0.88118 0.68952 0.77503 0.0
H785 H 0.81456 0.65206 0.72496 0.0
C786 C 0.89591 0.66683 0.71885 0.0
C787 C 0.95002 0.682 0.7238 0.0
C788 C 0.84391 0.68767 0.77047 0.0
C789 C 0.86888 0.67208 0.74442 0.0
C790 C 0.81024 0.69884 0.77993 0.0
C791 C 0.76273 0.69873 0.77422 0.0
C792 C 0.83011 0.6764 0.75519 0.0
C793 C 0.74897 0.68472 0.75904 0.0
C794 C 0.85531 0.6617 0.72911 0.0
C795 C 0.96066 0.68801 0.73932 0.0
N796 N 0.7828 0.67466 0.75002 0.0
N797 N 0.92069 0.68381 0.74906 0.0
H798 H 0.10847 0.77778 0.95162 0.0
H799 H 0.17455 0.88566 0.86693 0.0
H800 H 0.99303 0.69952 0.91482 0.0
H801 H 0.2839 0.97074 0.90443 0.0
H802 H 0.11518 0.80783 0.88351 0.0
H803 H 0.18044 0.83804 0.9337 0.0
C804 C 0.09843 0.77263 0.93975 0.0
C805 C 0.04422 0.73418 0.93475 0.0
C806 C 0.15245 0.84326 0.88808 0.0
C807 C 0.1265 0.80362 0.91416 0.0
C808 C 0.18642 0.88784 0.87862 0.0
C809 C 0.23389 0.93533 0.88434 0.0
C810 C 0.16586 0.84615 0.90339 0.0
C811 C 0.2474 0.93535 0.89955 0.0
C812 C 0.13961 0.80721 0.92951 0.0
C813 C 0.03401 0.72895 0.9192 0.0
N814 N 0.21322 0.89172 0.90858 0.0
N815 N 0.07455 0.76392 0.90948 0.0
H816 H 0.0129 0.12895 0.01103 0.0
H817 H 0.02813 0.88895 0.9654 0.0
H818 H 0.15629 0.15042 0.98576 0.0
H819 H 0.87429 0.86354 0.98524 0.0
H820 H 0.07176 0.98827 0.9708 0.0
H821 H 0.95736 0.03476 0.00015 0.0
C822 C 0.0325 0.11407 0.00313 0.0
C823 C 0.08953 0.14701 -0.00047 0.0
C824 C 0.02827 0.96139 0.97388 0.0
C825 C 0.02664 0.04039 0.98704 0.0
C826 C 0.00343 0.90465 0.97079 0.0
C827 C 0.94794 0.8683 0.97506 0.0
C828 C -0.00221 0.98192 0.98161 0.0
C829 C 0.91737 0.89059 0.98183 0.0
C830 C 0.00084 0.06053 -0.00309 0.0
C831 C 0.11281 0.1261 0.98914 0.0
N832 N 0.94309 0.94616 0.98517 0.0
N833 N 0.08141 0.07413 0.98337 0.0
H834 H 0.08688 0.93993 0.17616 0.0
H835 H 0.94104 0.09268 0.14904 0.0
H836 H 0.01591 0.90163 0.13161 0.0
H837 H 0.89775 0.01819 0.19319 0.0
H838 H 0.97194 0.02646 0.14204 0.0
H839 H 0.02124 0.97167 0.18311 0.0
C840 C 0.05674 0.93746 0.16795 0.0
C841 C 0.05663 0.91878 0.15331 0.0
C842 C 0.95448 0.02387 0.15314 0.0
C843 C 0.98306 0.95574 0.161 0.0
C844 C 0.93742 0.06176 0.15716 0.0
C845 C 0.91752 0.0608 0.17172 0.0
C846 C 0.95335 0.98638 0.16395 0.0
C847 C 0.91309 0.01999 0.18187 0.0
C848 C 0.01921 0.95505 0.17193 0.0
C849 C 0.01695 0.91594 0.14301 0.0
N850 N 0.93239 0.98509 0.17792 0.0
N851 N 0.98249 0.93579 0.14694 0.0
H852 H 0.14984 0.08314 0.34143 0.0
H853 H 0.84963 0.95463 0.31538 0.0
H854 H 0.11278 0.02629 0.29549 0.0
H855 H 0.88044 0.89836 0.35766 0.0
H856 H 0.94586 0.98472 0.30762 0.0
H857 H 0.05182 0.01895 0.34815 0.0
C858 C 0.12101 0.05628 0.33285 0.0
C859 C 0.13857 0.05969 0.31792 0.0
C860 C 0.93109 0.96469 0.31846 0.0
C861 C 0.02736 0.98798 0.32537 0.0
C862 C 0.87664 0.94808 0.32293 0.0
C863 C 0.85784 0.9247 0.3372 0.0
C864 C 0.96714 0.95949 0.32856 0.0
C865 C 0.89385 0.91648 0.34657 0.0
C866 C 0.0655 0.0196 0.33668 0.0
C867 C 0.10026 0.02441 0.30712 0.0
N868 N 0.94759 0.93526 0.34223 0.0
N869 N 0.0457 0.99079 0.31098 0.0
H870 H 0.00766 0.1614 0.51037 0.0
H871 H 0.99398 0.86571 0.50769 0.0
H872 H 0.11184 0.12887 0.48051 0.0
H873 H 0.86787 0.89672 0.52663 0.0
H874 H 0.05259 0.96666 0.50249 0.0
H875 H 0.97247 0.06961 0.5215 0.0
C876 C 0.02321 0.13482 0.50615 0.0
C877 C 0.06161 0.15206 0.49423 0.0
C878 C 0.01243 0.95121 0.50799 0.0
C879 C 0.0211 0.04651 0.50692 0.0
C880 C 0.97926 0.89396 0.511 0.0
C881 C 0.92595 0.87329 0.51737 0.0
C882 C 0.99208 0.98736 0.51165 0.0
C883 C 0.90842 0.91108 0.52147 0.0
C884 C 0.00323 0.08246 0.51256 0.0
C885 C 0.08157 0.11662 0.48954 0.0
N886 N 0.94128 0.96622 0.51846 0.0
N887 N 0.06031 0.06482 0.49576 0.0
H888 H 0.95811 0.84066 0.68768 0.0
H889 H 0.9789 0.10391 0.64541 0.0
H890 H 0.11672 0.97652 0.67235 0.0
H891 H 0.83467 0.98149 0.67032 0.0
H892 H 0.03284 0.06212 0.65544 0.0
H893 H 0.91424 0.89549 0.68175 0.0
C894 C 0.98376 0.88238 0.68312 0.0
C895 C 0.04088 0.90402 0.68035 0.0
C896 C 0.98952 0.04501 0.65877 0.0
C897 C 0.99082 0.96718 0.67333 0.0
C898 C 0.95877 0.06867 0.65304 0.0
C899 C 0.90197 0.04546 0.65681 0.0
C900 C 0.96296 0.9981 0.66827 0.0
C901 C 0.87799 0.00016 0.66683 0.0
C902 C 0.95876 0.91386 0.67977 0.0
C903 C 0.07242 0.95853 0.67461 0.0
N904 N 0.90847 0.97787 0.6721 0.0
N905 N 0.04672 0.98819 0.67106 0.0
H906 H 0.1477 0.05094 0.81578 0.0
H907 H 0.84789 0.89703 0.84315 0.0
H908 H 0.11455 0.08784 0.86052 0.0
H909 H 0.88001 0.97293 0.79918 0.0
H910 H 0.9453 0.96223 0.85012 0.0
H911 H 0.05001 0.01813 0.80903 0.0
C912 C 0.11984 0.05279 0.82408 0.0
C913 C 0.13844 0.0715 0.83872 0.0
C914 C 0.93058 0.96533 0.83907 0.0
C915 C 0.02757 0.03338 0.83123 0.0
C916 C 0.87545 0.92803 0.83507 0.0
C917 C 0.85665 0.92973 0.82057 0.0
C918 C 0.96721 0.00294 0.8283 0.0
C919 C 0.8934 0.9706 0.81046 0.0
C920 C 0.06454 0.03459 0.82021 0.0
C921 C 0.1013 0.07354 0.84912 0.0
N922 N 0.9477 0.0049 0.81439 0.0
N923 N 0.04687 0.05319 0.84529 0.0
loop_
_geom_bond_atom_site_label_1
_geom_bond_atom_site_label_2
_geom_bond_distance
_geom_bond_site_symmetry_2
_ccdc_geom_bond_type
O0 Zn1 1.953 . S
O0 C16 1.225 . S
Zn1 O0 1.953 . S
Zn1 O2 1.949 . S
Zn1 O8 1.919 . S
Zn1 O13 1.924 . S
O2 Zn1 1.949 . S
O2 Zn3 1.923 . S
O2 Zn4 1.950 . S
O2 Zn5 1.945 . S
Zn3 O2 1.923 . S
Zn3 O6 1.933 1_554 S
Zn3 O9 1.941 . S
Zn3 O10 1.965 . S
Zn4 O2 1.950 . S
Zn4 O11 1.938 . S
Zn4 O12 1.906 . S
Zn4 O22 1.953 . S
Zn5 O2 1.945 . S
Zn5 O7 1.932 1_554 S
Zn5 O14 1.977 . S
Zn5 O15 1.910 1_554 S
O6 Zn3 1.933 1_556 S
O6 C17 1.226 . S
O7 Zn5 1.932 1_556 S
O7 C17 1.307 . S
O8 Zn1 1.919 . S
O8 C19 1.253 . S
O9 Zn3 1.941 . S
O9 C19 1.283 . S
O10 Zn3 1.965 . S
O10 C18 1.303 . S
O11 Zn4 1.938 . S
O11 C18 1.247 . S
O12 Zn4 1.906 . S
O12 C20 1.304 . S
O13 Zn1 1.924 . S
O13 C21 1.311 . S
O14 Zn5 1.977 . S
O14 C20 1.272 . S
O15 Zn5 1.910 1_556 S
O15 C21 1.231 1_556 S
C16 O0 1.225 . S
C16 O22 1.298 . S
C17 O6 1.226 . S
C17 O7 1.307 . S
C18 O10 1.303 . S
C18 O11 1.247 . S
C19 O8 1.253 . S
C19 O9 1.283 . S
C20 O12 1.304 . S
C20 O14 1.272 . S
C21 O13 1.311 . S
C21 O15 1.231 1_554 S
O22 Zn4 1.953 . S
O22 C16 1.298 . S
O23 Zn24 1.953 . S
O23 C39 1.225 . S
Zn24 O23 1.953 . S
Zn24 O25 1.949 . S
Zn24 O31 1.919 . S
Zn24 O36 1.924 . S
O25 Zn24 1.949 . S
O25 Zn26 1.923 . S
O25 Zn27 1.950 . S
O25 Zn28 1.945 . S
Zn26 O25 1.923 . S
Zn26 O29 1.933 1_655 S
Zn26 O32 1.941 . S
Zn26 O33 1.965 1_655 S
Zn27 O25 1.950 . S
Zn27 O34 1.938 1_655 S
Zn27 O35 1.906 . S
Zn27 O45 1.953 . S
Zn28 O25 1.945 . S
Zn28 O30 1.932 . S
Zn28 O37 1.977 . S
Zn28 O38 1.910 . S
O29 Zn26 1.933 1_455 S
O29 C40 1.231 . S
O30 Zn28 1.932 . S
O30 C40 1.300 1_655 S
O31 Zn24 1.919 . S
O31 C42 1.253 . S
O32 Zn26 1.941 . S
O32 C42 1.283 . S
O33 Zn26 1.965 1_455 S
O33 C41 1.303 . S
O34 Zn27 1.938 1_455 S
O34 C41 1.247 . S
O35 Zn27 1.906 . S
O35 C43 1.304 . S
O36 Zn24 1.924 . S
O36 C44 1.311 . S
O37 Zn28 1.977 . S
O37 C43 1.272 . S
O38 Zn28 1.910 . S
O38 C44 1.231 . S
C39 O23 1.225 . S
C39 O45 1.298 . S
C40 O29 1.231 . S
C40 O30 1.300 1_455 S
C41 O33 1.303 . S
C41 O34 1.247 . S
C42 O31 1.253 . S
C42 O32 1.283 . S
C43 O35 1.304 . S
C43 O37 1.272 . S
C44 O36 1.311 . S
C44 O38 1.231 . S
O45 Zn27 1.953 . S
O45 C39 1.298 . S
O46 Zn47 1.953 . S
O46 C62 1.225 . S
Zn47 O46 1.953 . S
Zn47 O48 1.949 . S
Zn47 O54 1.919 . S
Zn47 O59 1.924 . S
O48 Zn47 1.949 . S
O48 Zn49 1.923 . S
O48 Zn50 1.950 . S
O48 Zn51 1.945 . S
Zn49 O48 1.923 . S
Zn49 O52 1.933 1_565 S
Zn49 O55 1.941 . S
Zn49 O56 1.965 1_565 S
Zn50 O48 1.950 . S
Zn50 O57 1.938 1_565 S
Zn50 O58 1.906 . S
Zn50 O68 1.953 . S
Zn51 O48 1.945 . S
Zn51 O53 1.932 . S
Zn51 O60 1.977 . S
Zn51 O61 1.910 . S
O52 Zn49 1.933 1_545 S
O52 C63 1.227 . S
O53 Zn51 1.932 . S
O53 C63 1.304 1_565 S
O54 Zn47 1.919 . S
O54 C65 1.253 . S
O55 Zn49 1.941 . S
O55 C65 1.283 . S
O56 Zn49 1.965 1_545 S
O56 C64 1.303 . S
O57 Zn50 1.938 1_545 S
O57 C64 1.247 . S
O58 Zn50 1.906 . S
O58 C66 1.304 . S
O59 Zn47 1.924 . S
O59 C67 1.311 . S
O60 Zn51 1.977 . S
O60 C66 1.272 . S
O61 Zn51 1.910 . S
O61 C67 1.231 . S
C62 O46 1.225 . S
C62 O68 1.298 . S
C63 O52 1.227 . S
C63 O53 1.304 1_545 S
C64 O56 1.303 . S
C64 O57 1.247 . S
C65 O54 1.253 . S
C65 O55 1.283 . S
C66 O58 1.304 . S
C66 O60 1.272 . S
C67 O59 1.311 . S
C67 O61 1.231 . S
O68 Zn50 1.953 . S
O68 C62 1.298 . S
O69 Zn70 1.953 . S
O69 C85 1.225 . S
Zn70 O69 1.953 . S
Zn70 O71 1.949 . S
Zn70 O77 1.919 . S
Zn70 O82 1.924 . S
O71 Zn70 1.949 . S
O71 Zn72 1.923 . S
O71 Zn73 1.950 . S
O71 Zn74 1.945 . S
Zn72 O71 1.923 . S
Zn72 O75 1.933 . S
Zn72 O78 1.941 . S
Zn72 O79 1.965 . S
Zn73 O71 1.950 . S
Zn73 O80 1.938 . S
Zn73 O81 1.906 . S
Zn73 O91 1.953 . S
Zn74 O71 1.945 . S
Zn74 O76 1.932 . S
Zn74 O83 1.977 . S
Zn74 O84 1.910 . S
O75 Zn72 1.933 . S
O75 C86 1.226 . S
O76 Zn74 1.932 . S
O76 C86 1.307 . S
O77 Zn70 1.919 . S
O77 C88 1.253 . S
O78 Zn72 1.941 . S
O78 C88 1.283 . S
O79 Zn72 1.965 . S
O79 C87 1.303 . S
O80 Zn73 1.938 . S
O80 C87 1.247 . S
O81 Zn73 1.906 . S
O81 C89 1.304 . S
O82 Zn70 1.924 . S
O82 C90 1.311 . S
O83 Zn74 1.977 . S
O83 C89 1.272 . S
O84 Zn74 1.910 . S
O84 C90 1.231 . S
C85 O69 1.225 . S
C85 O91 1.298 . S
C86 O75 1.226 . S
C86 O76 1.307 . S
C87 O79 1.303 . S
C87 O80 1.247 . S
C88 O77 1.253 . S
C88 O78 1.283 . S
C89 O81 1.304 . S
C89 O83 1.272 . S
C90 O82 1.311 . S
C90 O84 1.231 . S
O91 Zn73 1.953 . S
O91 C85 1.298 . S
O92 Zn93 1.953 . S
O92 C108 1.225 . S
Zn93 O92 1.953 . S
Zn93 O94 1.949 . S
Zn93 O100 1.919 . S
Zn93 O105 1.924 . S
O94 Zn93 1.949 . S
O94 Zn95 1.923 . S
O94 Zn96 1.950 . S
O94 Zn97 1.945 . S
Zn95 O94 1.923 . S
Zn95 O98 1.933 1_455 S
Zn95 O101 1.941 . S
Zn95 O102 1.965 1_455 S
Zn96 O94 1.950 . S
Zn96 O103 1.938 1_455 S
Zn96 O104 1.906 . S
Zn96 O114 1.953 . S
Zn97 O94 1.945 . S
Zn97 O99 1.932 . S
Zn97 O106 1.977 . S
Zn97 O107 1.910 . S
O98 Zn95 1.933 1_655 S
O98 C109 1.231 . S
O99 Zn97 1.932 . S
O99 C109 1.300 1_455 S
O100 Zn93 1.919 . S
O100 C111 1.253 . S
O101 Zn95 1.941 . S
O101 C111 1.283 . S
O102 Zn95 1.965 1_655 S
O102 C110 1.303 . S
O103 Zn96 1.938 1_655 S
O103 C110 1.247 . S
O104 Zn96 1.906 . S
O104 C112 1.304 . S
O105 Zn93 1.924 . S
O105 C113 1.311 . S
O106 Zn97 1.977 . S
O106 C112 1.272 . S
O107 Zn97 1.910 . S
O107 C113 1.231 . S
C108 O92 1.225 . S
C108 O114 1.298 . S
C109 O98 1.231 . S
C109 O99 1.300 1_655 S
C110 O102 1.303 . S
C110 O103 1.247 . S
C111 O100 1.253 . S
C111 O101 1.283 . S
C112 O104 1.304 . S
C112 O106 1.272 . S
C113 O105 1.311 . S
C113 O107 1.231 . S
O114 Zn96 1.953 . S
O114 C108 1.298 . S
O115 Zn116 1.953 . S
O115 C131 1.225 . S
Zn116 O115 1.953 . S
Zn116 O117 1.949 . S
Zn116 O123 1.919 . S
Zn116 O128 1.924 . S
O117 Zn116 1.949 . S
O117 Zn118 1.923 . S
O117 Zn119 1.950 . S
O117 Zn120 1.945 . S
Zn118 O117 1.923 . S
Zn118 O121 1.933 1_545 S
Zn118 O124 1.941 . S
Zn118 O125 1.965 1_545 S
Zn119 O117 1.950 . S
Zn119 O126 1.938 1_545 S
Zn119 O127 1.906 . S
Zn119 O137 1.953 . S
Zn120 O117 1.945 . S
Zn120 O122 1.932 . S
Zn120 O129 1.977 . S
Zn120 O130 1.910 . S
O121 Zn118 1.933 1_565 S
O121 C132 1.227 . S
O122 Zn120 1.932 . S
O122 C132 1.304 1_545 S
O123 Zn116 1.919 . S
O123 C134 1.253 . S
O124 Zn118 1.941 . S
O124 C134 1.283 . S
O125 Zn118 1.965 1_565 S
O125 C133 1.303 . S
O126 Zn119 1.938 1_565 S
O126 C133 1.247 . S
O127 Zn119 1.906 . S
O127 C135 1.304 . S
O128 Zn116 1.924 . S
O128 C136 1.311 . S
O129 Zn120 1.977 . S
O129 C135 1.272 . S
O130 Zn120 1.910 . S
O130 C136 1.231 . S
C131 O115 1.225 . S
C131 O137 1.298 . S
C132 O121 1.227 . S
C132 O122 1.304 1_565 S
C133 O125 1.303 . S
C133 O126 1.247 . S
C134 O123 1.253 . S
C134 O124 1.283 . S
C135 O127 1.304 . S
C135 O129 1.272 . S
C136 O128 1.311 . S
C136 O130 1.231 . S
O137 Zn119 1.953 . S
O137 C131 1.298 . S
O138 Zn139 1.953 . S
O138 C154 1.225 . S
Zn139 O138 1.953 . S
Zn139 O140 1.949 . S
Zn139 O146 1.919 . S
Zn139 O151 1.924 . S
O140 Zn139 1.949 . S
O140 Zn141 1.923 . S
O140 Zn142 1.950 . S
O140 Zn143 1.945 . S
Zn141 O140 1.923 . S
Zn141 O144 1.933 . S
Zn141 O147 1.941 . S
Zn141 O148 1.965 . S
Zn142 O140 1.950 . S
Zn142 O149 1.938 . S
Zn142 O150 1.906 . S
Zn142 O160 1.953 . S
Zn143 O140 1.945 . S
Zn143 O145 1.932 . S
Zn143 O152 1.977 . S
Zn143 O153 1.910 . S
O144 Zn141 1.933 . S
O144 C155 1.226 . S
O145 Zn143 1.932 . S
O145 C155 1.307 . S
O146 Zn139 1.919 . S
O146 C157 1.253 . S
O147 Zn141 1.941 . S
O147 C157 1.283 . S
O148 Zn141 1.965 . S
O148 C156 1.303 . S
O149 Zn142 1.938 . S
O149 C156 1.247 . S
O150 Zn142 1.906 . S
O150 C158 1.304 . S
O151 Zn139 1.924 . S
O151 C159 1.311 . S
O152 Zn143 1.977 . S
O152 C158 1.272 . S
O153 Zn143 1.910 . S
O153 C159 1.231 . S
C154 O138 1.225 . S
C154 O160 1.298 . S
C155 O144 1.226 . S
C155 O145 1.307 . S
C156 O148 1.303 . S
C156 O149 1.247 . S
C157 O146 1.253 . S
C157 O147 1.283 . S
C158 O150 1.304 . S
C158 O152 1.272 . S
C159 O151 1.311 . S
C159 O153 1.231 . S
O160 Zn142 1.953 . S
O160 C154 1.298 . S
O161 Zn162 1.953 . S
O161 C177 1.225 . S
Zn162 O161 1.953 . S
Zn162 O163 1.949 . S
Zn162 O169 1.919 . S
Zn162 O174 1.924 . S
O163 Zn162 1.949 . S
O163 Zn164 1.923 . S
O163 Zn165 1.950 . S
O163 Zn166 1.945 . S
Zn164 O163 1.923 . S
Zn164 O167 1.933 1_656 S
Zn164 O170 1.941 . S
Zn164 O171 1.965 1_655 S
Zn165 O163 1.950 . S
Zn165 O172 1.938 1_655 S
Zn165 O173 1.906 . S
Zn165 O183 1.953 . S
Zn166 O163 1.945 . S
Zn166 O168 1.932 1_556 S
Zn166 O175 1.977 . S
Zn166 O176 1.910 1_556 S
O167 Zn164 1.933 1_454 S
O167 C178 1.227 . S
O168 Zn166 1.932 1_554 S
O168 C178 1.304 1_655 S
O169 Zn162 1.919 . S
O169 C180 1.253 . S
O170 Zn164 1.941 . S
O170 C180 1.283 . S
O171 Zn164 1.965 1_455 S
O171 C179 1.303 . S
O172 Zn165 1.938 1_455 S
O172 C179 1.247 . S
O173 Zn165 1.906 . S
O173 C181 1.304 . S
O174 Zn162 1.924 . S
O174 C182 1.311 . S
O175 Zn166 1.977 . S
O175 C181 1.272 . S
O176 Zn166 1.910 1_554 S
O176 C182 1.231 1_554 S
C177 O161 1.225 . S
C177 O183 1.298 . S
C178 O167 1.227 . S
C178 O168 1.304 1_455 S
C179 O171 1.303 . S
C179 O172 1.247 . S
C180 O169 1.253 . S
C180 O170 1.283 . S
C181 O173 1.304 . S
C181 O175 1.272 . S
C182 O174 1.311 . S
C182 O176 1.231 1_556 S
O183 Zn165 1.953 . S
O183 C177 1.298 . S
O184 Zn185 1.953 . S
O184 C200 1.225 . S
Zn185 O184 1.953 . S
Zn185 O186 1.949 . S
Zn185 O192 1.919 . S
Zn185 O197 1.924 . S
O186 Zn185 1.949 . S
O186 Zn187 1.923 . S
O186 Zn188 1.950 . S
O186 Zn189 1.945 . S
Zn187 O186 1.923 . S
Zn187 O190 1.933 1_565 S
Zn187 O193 1.941 . S
Zn187 O194 1.965 1_565 S
Zn188 O186 1.950 . S
Zn188 O195 1.938 1_565 S
Zn188 O196 1.906 . S
Zn188 O206 1.953 . S
Zn189 O186 1.945 . S
Zn189 O191 1.932 . S
Zn189 O198 1.977 . S
Zn189 O199 1.910 . S
O190 Zn187 1.933 1_545 S
O190 C201 1.231 . S
O191 Zn189 1.932 . S
O191 C201 1.300 1_565 S
O192 Zn185 1.919 . S
O192 C203 1.253 . S
O193 Zn187 1.941 . S
O193 C203 1.283 . S
O194 Zn187 1.965 1_545 S
O194 C202 1.303 . S
O195 Zn188 1.938 1_545 S
O195 C202 1.247 . S
O196 Zn188 1.906 . S
O196 C204 1.304 . S
O197 Zn185 1.924 . S
O197 C205 1.311 . S
O198 Zn189 1.977 . S
O198 C204 1.272 . S
O199 Zn189 1.910 . S
O199 C205 1.231 . S
C200 O184 1.225 . S
C200 O206 1.298 . S
C201 O190 1.231 . S
C201 O191 1.300 1_545 S
C202 O194 1.303 . S
C202 O195 1.247 . S
C203 O192 1.253 . S
C203 O193 1.283 . S
C204 O196 1.304 . S
C204 O198 1.272 . S
C205 O197 1.311 . S
C205 O199 1.231 . S
O206 Zn188 1.953 . S
O206 C200 1.298 . S
O207 Zn208 1.953 . S
O207 C223 1.225 . S
Zn208 O207 1.953 . S
Zn208 O209 1.949 . S
Zn208 O215 1.919 . S
Zn208 O220 1.924 . S
O209 Zn208 1.949 . S
O209 Zn210 1.923 . S
O209 Zn211 1.950 . S
O209 Zn212 1.945 . S
Zn210 O209 1.923 . S
Zn210 O213 1.933 . S
Zn210 O216 1.941 . S
Zn210 O217 1.965 . S
Zn211 O209 1.950 . S
Zn211 O218 1.938 . S
Zn211 O219 1.906 . S
Zn211 O229 1.953 . S
Zn212 O209 1.945 . S
Zn212 O214 1.932 . S
Zn212 O221 1.977 . S
Zn212 O222 1.910 . S
O213 Zn210 1.933 . S
O213 C224 1.226 . S
O214 Zn212 1.932 . S
O214 C224 1.307 . S
O215 Zn208 1.919 . S
O215 C226 1.253 . S
O216 Zn210 1.941 . S
O216 C226 1.283 . S
O217 Zn210 1.965 . S
O217 C225 1.303 . S
O218 Zn211 1.938 . S
O218 C225 1.247 . S
O219 Zn211 1.906 . S
O219 C227 1.304 . S
O220 Zn208 1.924 . S
O220 C228 1.311 . S
O221 Zn212 1.977 . S
O221 C227 1.272 . S
O222 Zn212 1.910 . S
O222 C228 1.231 . S
C223 O207 1.225 . S
C223 O229 1.298 . S
C224 O213 1.226 . S
C224 O214 1.307 . S
C225 O217 1.303 . S
C225 O218 1.247 . S
C226 O215 1.253 . S
C226 O216 1.283 . S
C227 O219 1.304 . S
C227 O221 1.272 . S
C228 O220 1.311 . S
C228 O222 1.231 . S
O229 Zn211 1.953 . S
O229 C223 1.298 . S
O230 Zn231 1.953 . S
O230 C246 1.225 . S
Zn231 O230 1.953 . S
Zn231 O232 1.949 . S
Zn231 O238 1.919 . S
Zn231 O243 1.924 . S
O232 Zn231 1.949 . S
O232 Zn233 1.923 . S
O232 Zn234 1.950 . S
O232 Zn235 1.945 . S
Zn233 O232 1.923 . S
Zn233 O236 1.933 1_455 S
Zn233 O239 1.941 . S
Zn233 O240 1.965 1_455 S
Zn234 O232 1.950 . S
Zn234 O241 1.938 1_455 S
Zn234 O242 1.906 . S
Zn234 O252 1.953 . S
Zn235 O232 1.945 . S
Zn235 O237 1.932 . S
Zn235 O244 1.977 . S
Zn235 O245 1.910 . S
O236 Zn233 1.933 1_655 S
O236 C247 1.227 . S
O237 Zn235 1.932 . S
O237 C247 1.304 1_455 S
O238 Zn231 1.919 . S
O238 C249 1.253 . S
O239 Zn233 1.941 . S
O239 C249 1.283 . S
O240 Zn233 1.965 1_655 S
O240 C248 1.303 . S
O241 Zn234 1.938 1_655 S
O241 C248 1.247 . S
O242 Zn234 1.906 . S
O242 C250 1.304 . S
O243 Zn231 1.924 . S
O243 C251 1.311 . S
O244 Zn235 1.977 . S
O244 C250 1.272 . S
O245 Zn235 1.910 . S
O245 C251 1.231 . S
C246 O230 1.225 . S
C246 O252 1.298 . S
C247 O236 1.227 . S
C247 O237 1.304 1_655 S
C248 O240 1.303 . S
C248 O241 1.247 . S
C249 O238 1.253 . S
C249 O239 1.283 . S
C250 O242 1.304 . S
C250 O244 1.272 . S
C251 O243 1.311 . S
C251 O245 1.231 . S
O252 Zn234 1.953 . S
O252 C246 1.298 . S
O253 Zn254 1.953 . S
O253 C269 1.225 . S
Zn254 O253 1.953 . S
Zn254 O255 1.949 . S
Zn254 O261 1.919 . S
Zn254 O266 1.924 . S
O255 Zn254 1.949 . S
O255 Zn256 1.923 . S
O255 Zn257 1.950 . S
O255 Zn258 1.945 . S
Zn256 O255 1.923 . S
Zn256 O259 1.933 1_545 S
Zn256 O262 1.941 . S
Zn256 O263 1.965 1_545 S
Zn257 O255 1.950 . S
Zn257 O264 1.938 1_545 S
Zn257 O265 1.906 . S
Zn257 O275 1.953 . S
Zn258 O255 1.945 . S
Zn258 O260 1.932 . S
Zn258 O267 1.977 . S
Zn258 O268 1.910 . S
O259 Zn256 1.933 1_565 S
O259 C270 1.231 . S
O260 Zn258 1.932 . S
O260 C270 1.300 1_545 S
O261 Zn254 1.919 . S
O261 C272 1.253 . S
O262 Zn256 1.941 . S
O262 C272 1.283 . S
O263 Zn256 1.965 1_565 S
O263 C271 1.303 . S
O264 Zn257 1.938 1_565 S
O264 C271 1.247 . S
O265 Zn257 1.906 . S
O265 C273 1.304 . S
O266 Zn254 1.924 . S
O266 C274 1.311 . S
O267 Zn258 1.977 . S
O267 C273 1.272 . S
O268 Zn258 1.910 . S
O268 C274 1.231 . S
C269 O253 1.225 . S
C269 O275 1.298 . S
C270 O259 1.231 . S
C270 O260 1.300 1_565 S
C271 O263 1.303 . S
C271 O264 1.247 . S
C272 O261 1.253 . S
C272 O262 1.283 . S
C273 O265 1.304 . S
C273 O267 1.272 . S
C274 O266 1.311 . S
C274 O268 1.231 . S
O275 Zn257 1.953 . S
O275 C269 1.298 . S
H276 C282 0.930 . S
H277 C286 0.930 . S
H278 C291 0.929 . S
H279 C289 0.929 . S
H280 C284 0.932 . S
H281 C290 0.929 . S
C282 H276 0.930 . S
C282 C283 1.356 1_554 S
C282 C290 1.378 . S
C283 C282 1.356 1_556 S
C283 C291 1.440 . S
C284 H280 0.932 . S
C284 C286 1.378 . S
C284 C288 1.350 . S
C285 C288 1.463 . S
C285 C290 1.350 . S
C285 N293 1.427 1_554 S
C286 H277 0.930 . S
C286 C284 1.378 . S
C286 C287 1.367 . S
C287 C286 1.367 . S
C287 C289 1.433 . S
C288 C284 1.350 . S
C288 C285 1.463 . S
C288 N292 1.427 . S
C289 H279 0.929 . S
C289 C287 1.433 . S
C289 N292 1.384 . S
C290 H281 0.929 . S
C290 C282 1.378 . S
C290 C285 1.350 . S
C291 H278 0.929 . S
C291 C283 1.440 . S
C291 N293 1.384 . S
N292 C288 1.427 . S
N292 C289 1.384 . S
N293 C285 1.427 1_556 S
N293 C291 1.384 . S
H294 C300 0.930 . S
H295 C304 0.930 . S
H296 C309 0.929 . S
H297 C307 0.929 . S
H298 C302 0.929 . S
H299 C308 0.929 . S
C300 H294 0.930 . S
C300 C301 1.367 . S
C300 C308 1.378 . S
C301 C300 1.367 . S
C301 C309 1.433 . S
C302 H298 0.929 . S
C302 C304 1.378 . S
C302 C306 1.350 1_655 S
C303 C306 1.463 . S
C303 C308 1.350 . S
C303 N311 1.427 . S
C304 H295 0.930 . S
C304 C302 1.378 . S
C304 C305 1.367 . S
C305 C304 1.367 . S
C305 C307 1.433 1_655 S
C306 C302 1.350 1_455 S
C306 C303 1.463 . S
C306 N310 1.427 . S
C307 H297 0.929 . S
C307 C305 1.433 1_455 S
C307 N310 1.384 . S
C308 H299 0.929 . S
C308 C300 1.378 . S
C308 C303 1.350 . S
C309 H296 0.929 . S
C309 C301 1.433 . S
C309 N311 1.384 . S
N310 C306 1.427 . S
N310 C307 1.384 . S
N311 C303 1.427 . S
N311 C309 1.384 . S
H312 C318 0.930 . S
H313 C322 0.930 . S
H314 C327 0.929 . S
H315 C325 0.929 . S
H316 C320 0.926 . S
H317 C326 0.929 . S
C318 H312 0.930 . S
C318 C319 1.367 . S
C318 C326 1.378 . S
C319 C318 1.367 . S
C319 C327 1.433 . S
C320 H316 0.926 . S
C320 C322 1.392 . S
C320 C324 1.339 1_565 S
C321 C324 1.463 . S
C321 C326 1.350 . S
C321 N329 1.427 . S
C322 H313 0.930 . S
C322 C320 1.392 . S
C322 C323 1.367 . S
C323 C322 1.367 . S
C323 C325 1.433 1_565 S
C324 C320 1.339 1_545 S
C324 C321 1.463 . S
C324 N328 1.427 . S
C325 H315 0.929 . S
C325 C323 1.433 1_545 S
C325 N328 1.384 . S
C326 H317 0.929 . S
C326 C318 1.378 . S
C326 C321 1.350 . S
C327 H314 0.929 . S
C327 C319 1.433 . S
C327 N329 1.384 . S
N328 C324 1.427 . S
N328 C325 1.384 . S
N329 C321 1.427 . S
N329 C327 1.384 . S
H330 C336 0.930 . S
H331 C340 0.930 . S
H332 C345 0.929 . S
H333 C343 0.929 . S
H334 C338 0.929 . S
H335 C344 0.929 . S
C336 H330 0.930 . S
C336 C337 1.367 . S
C336 C344 1.378 . S
C337 C336 1.367 . S
C337 C345 1.433 . S
C338 H334 0.929 . S
C338 C340 1.378 . S
C338 C342 1.350 . S
C339 C342 1.463 . S
C339 C344 1.350 . S
C339 N347 1.427 . S
C340 H331 0.930 . S
C340 C338 1.378 . S
C340 C341 1.367 . S
C341 C340 1.367 . S
C341 C343 1.433 . S
C342 C338 1.350 . S
C342 C339 1.463 . S
C342 N346 1.427 . S
C343 H333 0.929 . S
C343 C341 1.433 . S
C343 N346 1.384 . S
C344 H335 0.929 . S
C344 C336 1.378 . S
C344 C339 1.350 . S
C345 H332 0.929 . S
C345 C337 1.433 . S
C345 N347 1.384 . S
N346 C342 1.427 . S
N346 C343 1.384 . S
N347 C339 1.427 . S
N347 C345 1.384 . S
H348 C354 0.930 . S
H349 C358 0.930 . S
H350 C363 0.929 . S
H351 C361 0.929 . S
H352 C356 0.929 . S
H353 C362 0.929 . S
C354 H348 0.930 . S
C354 C355 1.367 . S
C354 C362 1.378 . S
C355 C354 1.367 . S
C355 C363 1.433 . S
C356 H352 0.929 . S
C356 C358 1.378 . S
C356 C360 1.350 1_455 S
C357 C360 1.463 . S
C357 C362 1.350 . S
C357 N365 1.427 . S
C358 H349 0.930 . S
C358 C356 1.378 . S
C358 C359 1.367 . S
C359 C358 1.367 . S
C359 C361 1.433 1_455 S
C360 C356 1.350 1_655 S
C360 C357 1.463 . S
C360 N364 1.427 . S
C361 H351 0.929 . S
C361 C359 1.433 1_655 S
C361 N364 1.384 . S
C362 H353 0.929 . S
C362 C354 1.378 . S
C362 C357 1.350 . S
C363 H350 0.929 . S
C363 C355 1.433 . S
C363 N365 1.384 . S
N364 C360 1.427 . S
N364 C361 1.384 . S
N365 C357 1.427 . S
N365 C363 1.384 . S
H366 C372 0.930 . S
H367 C376 0.930 . S
H368 C381 0.929 . S
H369 C379 0.929 . S
H370 C374 0.929 . S
H371 C380 0.929 . S
C372 H366 0.930 . S
C372 C373 1.367 . S
C372 C380 1.378 . S
C373 C372 1.367 . S
C373 C381 1.433 . S
C374 H370 0.929 . S
C374 C376 1.378 1_565 S
C374 C378 1.350 . S
C375 C378 1.463 . S
C375 C380 1.350 . S
C375 N383 1.427 . S
C376 H367 0.930 . S
C376 C374 1.378 1_545 S
C376 C377 1.367 . S
C377 C376 1.367 . S
C377 C379 1.433 . S
C378 C374 1.350 . S
C378 C375 1.463 . S
C378 N382 1.427 . S
C379 H369 0.929 . S
C379 C377 1.433 . S
C379 N382 1.384 1_545 S
C380 H371 0.929 . S
C380 C372 1.378 . S
C380 C375 1.350 . S
C381 H368 0.929 . S
C381 C373 1.433 . S
C381 N383 1.384 . S
N382 C378 1.427 . S
N382 C379 1.384 1_565 S
N383 C375 1.427 . S
N383 C381 1.384 . S
H384 C390 0.930 . S
H385 C394 0.930 . S
H386 C399 0.929 . S
H387 C397 0.929 . S
H388 C392 0.929 . S
H389 C398 0.929 . S
C390 H384 0.930 . S
C390 C391 1.367 . S
C390 C398 1.378 . S
C391 C390 1.367 . S
C391 C399 1.433 . S
C392 H388 0.929 . S
C392 C394 1.378 . S
C392 C396 1.350 . S
C393 C396 1.463 . S
C393 C398 1.350 . S
C393 N401 1.427 . S
C394 H385 0.930 . S
C394 C392 1.378 . S
C394 C395 1.367 . S
C395 C394 1.367 . S
C395 C397 1.433 . S
C396 C392 1.350 . S
C396 C393 1.463 . S
C396 N400 1.427 . S
C397 H387 0.929 . S
C397 C395 1.433 . S
C397 N400 1.384 . S
C398 H389 0.929 . S
C398 C390 1.378 . S
C398 C393 1.350 . S
C399 H386 0.929 . S
C399 C391 1.433 . S
C399 N401 1.384 . S
N400 C396 1.427 . S
N400 C397 1.384 . S
N401 C393 1.427 . S
N401 C399 1.384 . S
H402 C408 0.930 1_554 S
H403 C412 0.930 . S
H404 C417 0.929 . S
H405 C415 0.929 . S
H406 C410 0.929 . S
H407 C416 0.929 . S
C408 H402 0.930 1_556 S
C408 C409 1.367 . S
C408 C416 1.378 1_556 S
C409 C408 1.367 . S
C409 C417 1.433 1_655 S
C410 H406 0.929 . S
C410 C412 1.378 . S
C410 C414 1.350 . S
C411 C414 1.463 . S
C411 C416 1.350 1_456 S
C411 N419 1.427 . S
C412 H403 0.930 . S
C412 C410 1.378 . S
C412 C413 1.356 1_556 S
C413 C412 1.356 1_554 S
C413 C415 1.442 . S
C414 C410 1.350 . S
C414 C411 1.463 . S
C414 N418 1.427 1_556 S
C415 H405 0.929 . S
C415 C413 1.442 . S
C415 N418 1.384 . S
C416 H407 0.929 . S
C416 C408 1.378 1_554 S
C416 C411 1.350 1_654 S
C417 H404 0.929 . S
C417 C409 1.433 1_455 S
C417 N419 1.384 . S
N418 C414 1.427 1_554 S
N418 C415 1.384 . S
N419 C411 1.427 . S
N419 C417 1.384 . S
H420 C426 0.930 . S
H421 C430 0.930 . S
H422 C435 0.929 . S
H423 C433 0.929 . S
H424 C428 0.929 . S
H425 C434 0.929 . S
C426 H420 0.930 . S
C426 C427 1.367 . S
C426 C434 1.378 . S
C427 C426 1.367 . S
C427 C435 1.433 1_565 S
C428 H424 0.929 . S
C428 C430 1.378 . S
C428 C432 1.350 . S
C429 C432 1.463 . S
C429 C434 1.350 1_545 S
C429 N437 1.427 . S
C430 H421 0.930 . S
C430 C428 1.378 . S
C430 C431 1.367 . S
C431 C430 1.367 . S
C431 C433 1.433 . S
C432 C428 1.350 . S
C432 C429 1.463 . S
C432 N436 1.427 . S
C433 H423 0.929 . S
C433 C431 1.433 . S
C433 N436 1.384 . S
C434 H425 0.929 . S
C434 C426 1.378 . S
C434 C429 1.350 1_565 S
C435 H422 0.929 . S
C435 C427 1.433 1_545 S
C435 N437 1.384 . S
N436 C432 1.427 . S
N436 C433 1.384 . S
N437 C429 1.427 . S
N437 C435 1.384 . S
H438 C444 0.930 . S
H439 C448 0.930 . S
H440 C453 0.929 . S
H441 C451 0.929 . S
H442 C446 0.929 . S
H443 C452 0.929 . S
C444 H438 0.930 . S
C444 C445 1.367 . S
C444 C452 1.378 . S
C445 C444 1.367 . S
C445 C453 1.433 . S
C446 H442 0.929 . S
C446 C448 1.378 . S
C446 C450 1.350 . S
C447 C450 1.463 . S
C447 C452 1.350 . S
C447 N455 1.427 . S
C448 H439 0.930 . S
C448 C446 1.378 . S
C448 C449 1.367 . S
C449 C448 1.367 . S
C449 C451 1.433 . S
C450 C446 1.350 . S
C450 C447 1.463 . S
C450 N454 1.427 . S
C451 H441 0.929 . S
C451 C449 1.433 . S
C451 N454 1.384 . S
C452 H443 0.929 . S
C452 C444 1.378 . S
C452 C447 1.350 . S
C453 H440 0.929 . S
C453 C445 1.433 . S
C453 N455 1.384 . S
N454 C450 1.427 . S
N454 C451 1.384 . S
N455 C447 1.427 . S
N455 C453 1.384 . S
H456 C462 0.930 . S
H457 C466 0.930 . S
H458 C471 0.929 . S
H459 C469 0.929 . S
H460 C464 0.929 . S
H461 C470 0.929 . S
C462 H456 0.930 . S
C462 C463 1.367 1_655 S
C462 C470 1.378 . S
C463 C462 1.367 1_455 S
C463 C471 1.433 . S
C464 H460 0.929 . S
C464 C466 1.378 . S
C464 C468 1.350 . S
C465 C468 1.463 . S
C465 C470 1.350 . S
C465 N473 1.427 1_655 S
C466 H457 0.930 . S
C466 C464 1.378 . S
C466 C467 1.367 . S
C467 C466 1.367 . S
C467 C469 1.433 . S
C468 C464 1.350 . S
C468 C465 1.463 . S
C468 N472 1.427 . S
C469 H459 0.929 . S
C469 C467 1.433 . S
C469 N472 1.384 . S
C470 H461 0.929 . S
C470 C462 1.378 . S
C470 C465 1.350 . S
C471 H458 0.929 . S
C471 C463 1.433 . S
C471 N473 1.384 . S
N472 C468 1.427 . S
N472 C469 1.384 . S
N473 C465 1.427 1_455 S
N473 C471 1.384 . S
H474 C480 0.930 . S
H475 C484 0.930 . S
H476 C489 0.929 . S
H477 C487 0.929 . S
H478 C482 0.929 . S
H479 C488 0.929 . S
C480 H474 0.930 . S
C480 C481 1.367 1_565 S
C480 C488 1.378 . S
C481 C480 1.367 1_545 S
C481 C489 1.433 . S
C482 H478 0.929 . S
C482 C484 1.378 . S
C482 C486 1.350 . S
C483 C486 1.463 . S
C483 C488 1.350 . S
C483 N491 1.427 . S
C484 H475 0.930 . S
C484 C482 1.378 . S
C484 C485 1.367 . S
C485 C484 1.367 . S
C485 C487 1.433 . S
C486 C482 1.350 . S
C486 C483 1.463 . S
C486 N490 1.427 . S
C487 H477 0.929 . S
C487 C485 1.433 . S
C487 N490 1.384 . S
C488 H479 0.929 . S
C488 C480 1.378 . S
C488 C483 1.350 . S
C489 H476 0.929 . S
C489 C481 1.433 . S
C489 N491 1.384 1_545 S
N490 C486 1.427 . S
N490 C487 1.384 . S
N491 C483 1.427 . S
N491 C489 1.384 1_565 S
H492 C498 0.930 . S
H493 C502 0.930 . S
H494 C507 0.929 . S
H495 C505 0.929 . S
H496 C500 0.929 . S
H497 C506 0.929 . S
C498 H492 0.930 . S
C498 C499 1.367 . S
C498 C506 1.378 . S
C499 C498 1.367 . S
C499 C507 1.433 . S
C500 H496 0.929 . S
C500 C502 1.378 . S
C500 C504 1.350 . S
C501 C504 1.463 . S
C501 C506 1.350 . S
C501 N509 1.427 . S
C502 H493 0.930 . S
C502 C500 1.378 . S
C502 C503 1.367 . S
C503 C502 1.367 . S
C503 C505 1.433 . S
C504 C500 1.350 . S
C504 C501 1.463 . S
C504 N508 1.427 . S
C505 H495 0.929 . S
C505 C503 1.433 . S
C505 N508 1.384 . S
C506 H497 0.929 . S
C506 C498 1.378 . S
C506 C501 1.350 . S
C507 H494 0.929 . S
C507 C499 1.433 . S
C507 N509 1.384 . S
N508 C504 1.427 . S
N508 C505 1.384 . S
N509 C501 1.427 . S
N509 C507 1.384 . S
H510 C516 0.930 . S
H511 C520 0.930 . S
H512 C525 0.929 . S
H513 C523 0.929 . S
H514 C518 0.929 . S
H515 C524 0.929 . S
C516 H510 0.930 . S
C516 C517 1.367 . S
C516 C524 1.378 . S
C517 C516 1.367 . S
C517 C525 1.433 1_455 S
C518 H514 0.929 . S
C518 C520 1.378 . S
C518 C522 1.350 . S
C519 C522 1.463 . S
C519 C524 1.350 . S
C519 N527 1.427 . S
C520 H511 0.930 . S
C520 C518 1.378 . S
C520 C521 1.367 . S
C521 C520 1.367 . S
C521 C523 1.433 . S
C522 C518 1.350 . S
C522 C519 1.463 . S
C522 N526 1.427 . S
C523 H513 0.929 . S
C523 C521 1.433 . S
C523 N526 1.384 . S
C524 H515 0.929 . S
C524 C516 1.378 . S
C524 C519 1.350 . S
C525 H512 0.929 . S
C525 C517 1.433 1_655 S
C525 N527 1.384 1_655 S
N526 C522 1.427 . S
N526 C523 1.384 . S
N527 C519 1.427 . S
N527 C525 1.384 1_455 S
H528 C534 0.930 . S
H529 C538 0.932 . S
H530 C543 0.929 . S
H531 C541 0.929 . S
H532 C536 0.929 . S
H533 C542 0.929 . S
C534 H528 0.930 . S
C534 C535 1.367 . S
C534 C542 1.378 . S
C535 C534 1.367 . S
C535 C543 1.433 . S
C536 H532 0.929 . S
C536 C538 1.377 1_545 S
C536 C540 1.350 . S
C537 C540 1.463 . S
C537 C542 1.350 . S
C537 N545 1.427 . S
C538 H529 0.932 . S
C538 C536 1.377 1_565 S
C538 C539 1.365 1_565 S
C539 C538 1.365 1_545 S
C539 C541 1.433 . S
C540 C536 1.350 . S
C540 C537 1.463 . S
C540 N544 1.427 . S
C541 H531 0.929 . S
C541 C539 1.433 . S
C541 N544 1.384 . S
C542 H533 0.929 . S
C542 C534 1.378 . S
C542 C537 1.350 . S
C543 H530 0.929 . S
C543 C535 1.433 . S
C543 N545 1.384 . S
N544 C540 1.427 . S
N544 C541 1.384 . S
N545 C537 1.427 . S
N545 C543 1.384 . S
H546 C552 0.930 . S
H547 C556 0.930 . S
H548 C561 0.929 . S
H549 C559 0.929 . S
H550 C554 0.929 . S
H551 C560 0.929 . S
C552 H546 0.930 . S
C552 C553 1.367 . S
C552 C560 1.378 . S
C553 C552 1.367 . S
C553 C561 1.433 . S
C554 H550 0.929 . S
C554 C556 1.378 . S
C554 C558 1.350 . S
C555 C558 1.463 . S
C555 C560 1.350 . S
C555 N563 1.427 . S
C556 H547 0.930 . S
C556 C554 1.378 . S
C556 C557 1.367 . S
C557 C556 1.367 . S
C557 C559 1.433 . S
C558 C554 1.350 . S
C558 C555 1.463 . S
C558 N562 1.427 . S
C559 H549 0.929 . S
C559 C557 1.433 . S
C559 N562 1.384 . S
C560 H551 0.929 . S
C560 C552 1.378 . S
C560 C555 1.350 . S
C561 H548 0.929 . S
C561 C553 1.433 . S
C561 N563 1.384 . S
N562 C558 1.427 . S
N562 C559 1.384 . S
N563 C555 1.427 . S
N563 C561 1.384 . S
H564 C570 0.930 . S
H565 C574 0.930 . S
H566 C579 0.929 . S
H567 C577 0.929 . S
H568 C572 0.929 . S
H569 C578 0.929 . S
C570 H564 0.930 . S
C570 C571 1.367 . S
C570 C578 1.378 . S
C571 C570 1.367 . S
C571 C579 1.433 . S
C572 H568 0.929 . S
C572 C574 1.378 . S
C572 C576 1.350 . S
C573 C576 1.463 . S
C573 C578 1.350 . S
C573 N581 1.427 . S
C574 H565 0.930 . S
C574 C572 1.378 . S
C574 C575 1.367 . S
C575 C574 1.367 . S
C575 C577 1.433 . S
C576 C572 1.350 . S
C576 C573 1.463 . S
C576 N580 1.427 . S
C577 H567 0.929 . S
C577 C575 1.433 . S
C577 N580 1.384 . S
C578 H569 0.929 . S
C578 C570 1.378 . S
C578 C573 1.350 . S
C579 H566 0.929 . S
C579 C571 1.433 . S
C579 N581 1.384 . S
N580 C576 1.427 . S
N580 C577 1.384 . S
N581 C573 1.427 . S
N581 C579 1.384 . S
H582 C588 0.930 . S
H583 C592 0.930 . S
H584 C597 0.929 . S
H585 C595 0.929 . S
H586 C590 0.929 . S
H587 C596 0.929 . S
C588 H582 0.930 . S
C588 C589 1.367 . S
C588 C596 1.378 . S
C589 C588 1.367 . S
C589 C597 1.433 1_565 S
C590 H586 0.929 . S
C590 C592 1.378 . S
C590 C594 1.350 . S
C591 C594 1.463 . S
C591 C596 1.350 . S
C591 N599 1.427 . S
C592 H583 0.930 . S
C592 C590 1.378 . S
C592 C593 1.367 . S
C593 C592 1.367 . S
C593 C595 1.433 . S
C594 C590 1.350 . S
C594 C591 1.463 . S
C594 N598 1.427 . S
C595 H585 0.929 . S
C595 C593 1.433 . S
C595 N598 1.384 . S
C596 H587 0.929 . S
C596 C588 1.378 . S
C596 C591 1.350 . S
C597 H584 0.929 . S
C597 C589 1.433 1_545 S
C597 N599 1.384 1_545 S
N598 C594 1.427 . S
N598 C595 1.384 . S
N599 C591 1.427 . S
N599 C597 1.384 1_565 S
H600 C606 0.930 . S
H601 C610 0.930 . S
H602 C615 0.929 . S
H603 C613 0.929 . S
H604 C608 0.929 . S
H605 C614 0.929 . S
C606 H600 0.930 . S
C606 C607 1.367 . S
C606 C614 1.378 . S
C607 C606 1.367 . S
C607 C615 1.433 . S
C608 H604 0.929 . S
C608 C610 1.378 . S
C608 C612 1.350 . S
C609 C612 1.463 . S
C609 C614 1.350 . S
C609 N617 1.427 . S
C610 H601 0.930 . S
C610 C608 1.378 . S
C610 C611 1.367 . S
C611 C610 1.367 . S
C611 C613 1.433 . S
C612 C608 1.350 . S
C612 C609 1.463 . S
C612 N616 1.427 . S
C613 H603 0.929 . S
C613 C611 1.433 . S
C613 N616 1.384 . S
C614 H605 0.929 . S
C614 C606 1.378 . S
C614 C609 1.350 . S
C615 H602 0.929 . S
C615 C607 1.433 . S
C615 N617 1.384 . S
N616 C612 1.427 . S
N616 C613 1.384 . S
N617 C609 1.427 . S
N617 C615 1.384 . S
H618 C624 0.930 . S
H619 C628 0.930 . S
H620 C633 0.929 . S
H621 C631 0.929 . S
H622 C626 0.929 . S
H623 C632 0.929 . S
C624 H618 0.930 . S
C624 C625 1.367 . S
C624 C632 1.378 . S
C625 C624 1.367 . S
C625 C633 1.433 . S
C626 H622 0.929 . S
C626 C628 1.378 . S
C626 C630 1.350 . S
C627 C630 1.463 . S
C627 C632 1.350 . S
C627 N635 1.427 . S
C628 H619 0.930 . S
C628 C626 1.378 . S
C628 C629 1.367 . S
C629 C628 1.367 . S
C629 C631 1.433 . S
C630 C626 1.350 . S
C630 C627 1.463 . S
C630 N634 1.427 . S
C631 H621 0.929 . S
C631 C629 1.433 . S
C631 N634 1.384 . S
C632 H623 0.929 . S
C632 C624 1.378 . S
C632 C627 1.350 . S
C633 H620 0.929 . S
C633 C625 1.433 . S
C633 N635 1.384 . S
N634 C630 1.427 . S
N634 C631 1.384 . S
N635 C627 1.427 . S
N635 C633 1.384 . S
H636 C642 0.941 . S
H637 C646 0.930 . S
H638 C651 0.929 . S
H639 C649 0.929 . S
H640 C644 0.929 . S
H641 C650 0.929 . S
C642 H636 0.941 . S
C642 C643 1.361 1_565 S
C642 C650 1.373 1_565 S
C643 C642 1.361 1_545 S
C643 C651 1.433 . S
C644 H640 0.929 . S
C644 C646 1.378 . S
C644 C648 1.350 . S
C645 C648 1.463 . S
C645 C650 1.350 . S
C645 N653 1.427 . S
C646 H637 0.930 . S
C646 C644 1.378 . S
C646 C647 1.367 . S
C647 C646 1.367 . S
C647 C649 1.433 . S
C648 C644 1.350 . S
C648 C645 1.463 . S
C648 N652 1.427 . S
C649 H639 0.929 . S
C649 C647 1.433 . S
C649 N652 1.384 . S
C650 H641 0.929 . S
C650 C642 1.373 1_545 S
C650 C645 1.350 . S
C651 H638 0.929 . S
C651 C643 1.433 . S
C651 N653 1.384 . S
N652 C648 1.427 . S
N652 C649 1.384 . S
N653 C645 1.427 . S
N653 C651 1.384 . S
H654 C660 0.930 . S
H655 C664 0.930 . S
H656 C669 0.929 . S
H657 C667 0.929 . S
H658 C662 0.929 . S
H659 C668 0.929 . S
C660 H654 0.930 . S
C660 C661 1.367 . S
C660 C668 1.378 . S
C661 C660 1.367 . S
C661 C669 1.433 . S
C662 H658 0.929 . S
C662 C664 1.378 . S
C662 C666 1.350 . S
C663 C666 1.463 . S
C663 C668 1.350 . S
C663 N671 1.427 . S
C664 H655 0.930 . S
C664 C662 1.378 . S
C664 C665 1.367 . S
C665 C664 1.367 . S
C665 C667 1.433 . S
C666 C662 1.350 . S
C666 C663 1.463 . S
C666 N670 1.427 . S
C667 H657 0.929 . S
C667 C665 1.433 . S
C667 N670 1.384 . S
C668 H659 0.929 . S
C668 C660 1.378 . S
C668 C663 1.350 . S
C669 H656 0.929 . S
C669 C661 1.433 . S
C669 N671 1.384 . S
N670 C666 1.427 . S
N670 C667 1.384 . S
N671 C663 1.427 . S
N671 C669 1.384 . S
H672 C678 0.930 . S
H673 C682 0.930 . S
H674 C687 0.929 . S
H675 C685 0.929 . S
H676 C680 0.929 . S
H677 C686 0.929 . S
C678 H672 0.930 . S
C678 C679 1.367 . S
C678 C686 1.378 . S
C679 C678 1.367 . S
C679 C687 1.433 . S
C680 H676 0.929 . S
C680 C682 1.378 . S
C680 C684 1.350 . S
C681 C684 1.463 . S
C681 C686 1.350 . S
C681 N689 1.427 . S
C682 H673 0.930 . S
C682 C680 1.378 . S
C682 C683 1.367 . S
C683 C682 1.367 . S
C683 C685 1.433 . S
C684 C680 1.350 . S
C684 C681 1.463 . S
C684 N688 1.427 . S
C685 H675 0.929 . S
C685 C683 1.433 . S
C685 N688 1.384 . S
C686 H677 0.929 . S
C686 C678 1.378 . S
C686 C681 1.350 . S
C687 H674 0.929 . S
C687 C679 1.433 . S
C687 N689 1.384 . S
N688 C684 1.427 . S
N688 C685 1.384 . S
N689 C681 1.427 . S
N689 C687 1.384 . S
H690 C696 0.930 . S
H691 C700 0.930 1_545 S
H692 C705 0.929 . S
H693 C703 0.929 . S
H694 C698 0.929 . S
H695 C704 0.929 . S
C696 H690 0.930 . S
C696 C697 1.367 . S
C696 C704 1.378 . S
C697 C696 1.367 . S
C697 C705 1.433 . S
C698 H694 0.929 . S
C698 C700 1.378 . S
C698 C702 1.350 . S
C699 C702 1.463 . S
C699 C704 1.350 . S
C699 N707 1.427 . S
C700 H691 0.930 1_565 S
C700 C698 1.378 . S
C700 C701 1.367 . S
C701 C700 1.367 . S
C701 C703 1.433 . S
C702 C698 1.350 . S
C702 C699 1.463 . S
C702 N706 1.427 . S
C703 H693 0.929 . S
C703 C701 1.433 . S
C703 N706 1.384 . S
C704 H695 0.929 . S
C704 C696 1.378 . S
C704 C699 1.350 . S
C705 H692 0.929 . S
C705 C697 1.433 . S
C705 N707 1.384 . S
N706 C702 1.427 . S
N706 C703 1.384 . S
N707 C699 1.427 . S
N707 C705 1.384 . S
H708 C714 0.930 . S
H709 C718 0.930 . S
H710 C723 0.929 1_565 S
H711 C721 0.929 . S
H712 C716 0.929 . S
H713 C722 0.929 . S
C714 H708 0.930 . S
C714 C715 1.367 . S
C714 C722 1.378 . S
C715 C714 1.367 . S
C715 C723 1.433 . S
C716 H712 0.929 . S
C716 C718 1.378 . S
C716 C720 1.350 . S
C717 C720 1.463 . S
C717 C722 1.350 . S
C717 N725 1.427 . S
C718 H709 0.930 . S
C718 C716 1.378 . S
C718 C719 1.367 . S
C719 C718 1.367 . S
C719 C721 1.433 . S
C720 C716 1.350 . S
C720 C717 1.463 . S
C720 N724 1.427 . S
C721 H711 0.929 . S
C721 C719 1.433 . S
C721 N724 1.384 . S
C722 H713 0.929 . S
C722 C714 1.378 . S
C722 C717 1.350 . S
C723 H710 0.929 1_545 S
C723 C715 1.433 . S
C723 N725 1.384 . S
N724 C720 1.427 . S
N724 C721 1.384 . S
N725 C717 1.427 . S
N725 C723 1.384 . S
H726 C732 0.930 . S
H727 C736 0.930 . S
H728 C741 0.929 . S
H729 C739 0.929 . S
H730 C734 0.929 . S
H731 C740 0.929 . S
C732 H726 0.930 . S
C732 C733 1.367 . S
C732 C740 1.378 . S
C733 C732 1.367 . S
C733 C741 1.433 . S
C734 H730 0.929 . S
C734 C736 1.378 . S
C734 C738 1.350 . S
C735 C738 1.463 . S
C735 C740 1.350 . S
C735 N743 1.427 . S
C736 H727 0.930 . S
C736 C734 1.378 . S
C736 C737 1.367 . S
C737 C736 1.367 . S
C737 C739 1.433 . S
C738 C734 1.350 . S
C738 C735 1.463 . S
C738 N742 1.427 . S
C739 H729 0.929 . S
C739 C737 1.433 . S
C739 N742 1.384 . S
C740 H731 0.929 . S
C740 C732 1.378 . S
C740 C735 1.350 . S
C741 H728 0.929 . S
C741 C733 1.433 . S
C741 N743 1.384 . S
N742 C738 1.427 . S
N742 C739 1.384 . S
N743 C735 1.427 . S
N743 C741 1.384 . S
H744 C750 0.930 . S
H745 C754 0.930 . S
H746 C759 0.929 1_565 S
H747 C757 0.929 . S
H748 C752 0.929 . S
H749 C758 0.929 . S
C750 H744 0.930 . S
C750 C751 1.367 . S
C750 C758 1.378 . S
C751 C750 1.367 . S
C751 C759 1.433 . S
C752 H748 0.929 . S
C752 C754 1.378 . S
C752 C756 1.350 . S
C753 C756 1.463 . S
C753 C758 1.350 . S
C753 N761 1.427 . S
C754 H745 0.930 . S
C754 C752 1.378 . S
C754 C755 1.367 . S
C755 C754 1.367 . S
C755 C757 1.433 . S
C756 C752 1.350 . S
C756 C753 1.463 . S
C756 N760 1.427 . S
C757 H747 0.929 . S
C757 C755 1.433 . S
C757 N760 1.384 . S
C758 H749 0.929 . S
C758 C750 1.378 . S
C758 C753 1.350 . S
C759 H746 0.929 1_545 S
C759 C751 1.433 . S
C759 N761 1.384 . S
N760 C756 1.427 . S
N760 C757 1.384 . S
N761 C753 1.427 . S
N761 C759 1.384 . S
H762 C768 0.930 . S
H763 C772 0.930 . S
H764 C777 0.929 . S
H765 C775 0.929 . S
H766 C770 0.929 . S
H767 C776 0.929 . S
C768 H762 0.930 . S
C768 C769 1.367 . S
C768 C776 1.378 . S
C769 C768 1.367 . S
C769 C777 1.433 . S
C770 H766 0.929 . S
C770 C772 1.378 . S
C770 C774 1.350 . S
C771 C774 1.463 . S
C771 C776 1.350 . S
C771 N779 1.427 . S
C772 H763 0.930 . S
C772 C770 1.378 . S
C772 C773 1.367 . S
C773 C772 1.367 . S
C773 C775 1.433 . S
C774 C770 1.350 . S
C774 C771 1.463 . S
C774 N778 1.427 . S
C775 H765 0.929 . S
C775 C773 1.433 . S
C775 N778 1.384 . S
C776 H767 0.929 . S
C776 C768 1.378 . S
C776 C771 1.350 . S
C777 H764 0.929 . S
C777 C769 1.433 . S
C777 N779 1.384 . S
N778 C774 1.427 . S
N778 C775 1.384 . S
N779 C771 1.427 . S
N779 C777 1.384 . S
H780 C786 0.930 . S
H781 C790 0.930 . S
H782 C795 0.929 . S
H783 C793 0.929 . S
H784 C788 0.929 . S
H785 C794 0.929 . S
C786 H780 0.930 . S
C786 C787 1.367 . S
C786 C794 1.378 . S
C787 C786 1.367 . S
C787 C795 1.433 . S
C788 H784 0.929 . S
C788 C790 1.378 . S
C788 C792 1.350 . S
C789 C792 1.463 . S
C789 C794 1.350 . S
C789 N797 1.427 . S
C790 H781 0.930 . S
C790 C788 1.378 . S
C790 C791 1.367 . S
C791 C790 1.367 . S
C791 C793 1.433 . S
C792 C788 1.350 . S
C792 C789 1.463 . S
C792 N796 1.427 . S
C793 H783 0.929 . S
C793 C791 1.433 . S
C793 N796 1.384 . S
C794 H785 0.929 . S
C794 C786 1.378 . S
C794 C789 1.350 . S
C795 H782 0.929 . S
C795 C787 1.433 . S
C795 N797 1.384 . S
N796 C792 1.427 . S
N796 C793 1.384 . S
N797 C789 1.427 . S
N797 C795 1.384 . S
H798 C804 0.930 . S
H799 C808 0.930 . S
H800 C813 0.943 . S
H801 C811 0.929 . S
H802 C806 0.929 . S
H803 C812 0.929 . S
C804 H798 0.930 . S
C804 C805 1.367 . S
C804 C812 1.378 . S
C805 C804 1.367 . S
C805 C813 1.433 . S
C806 H802 0.929 . S
C806 C808 1.378 . S
C806 C810 1.350 . S
C807 C810 1.463 . S
C807 C812 1.350 . S
C807 N815 1.427 . S
C808 H799 0.930 . S
C808 C806 1.378 . S
C808 C809 1.367 . S
C809 C808 1.367 . S
C809 C811 1.433 . S
C810 C806 1.350 . S
C810 C807 1.463 . S
C810 N814 1.427 . S
C811 H801 0.929 . S
C811 C809 1.433 . S
C811 N814 1.384 . S
C812 H803 0.929 . S
C812 C804 1.378 . S
C812 C807 1.350 . S
C813 H800 0.943 . S
C813 C805 1.433 . S
C813 N815 1.384 . S
N814 C810 1.427 . S
N814 C811 1.384 . S
N815 C807 1.427 . S
N815 C813 1.384 . S
H816 C822 0.930 . S
H817 C826 0.930 1_455 S
H818 C831 0.939 . S
H819 C829 0.939 . S
H820 C824 0.929 . S
H821 C830 0.929 . S
C822 H816 0.930 . S
C822 C823 1.367 . S
C822 C830 1.378 1_455 S
C823 C822 1.367 . S
C823 C831 1.433 . S
C824 H820 0.929 . S
C824 C826 1.378 1_455 S
C824 C828 1.350 1_455 S
C825 C828 1.463 1_444 S
C825 C830 1.350 1_455 S
C825 N833 1.422 1_554 S
C826 H817 0.930 1_655 S
C826 C824 1.378 1_655 S
C826 C827 1.367 . S
C827 C826 1.367 . S
C827 C829 1.433 . S
C828 C824 1.350 1_655 S
C828 C825 1.463 1_666 S
C828 N832 1.422 1_556 S
C829 H819 0.939 . S
C829 C827 1.433 . S
C829 N832 1.377 1_556 S
C830 H821 0.929 . S
C830 C822 1.378 1_655 S
C830 C825 1.350 1_655 S
C831 H818 0.939 . S
C831 C823 1.433 . S
C831 N833 1.377 1_554 S
N832 C828 1.422 1_554 S
N832 C829 1.377 1_554 S
N833 C825 1.422 1_556 S
N833 C831 1.377 1_556 S
H834 C840 0.930 . S
H835 C844 0.930 . S
H836 C849 0.929 . S
H837 C847 0.929 . S
H838 C842 0.929 . S
H839 C848 0.929 1_545 S
C840 H834 0.930 . S
C840 C841 1.367 . S
C840 C848 1.378 . S
C841 C840 1.367 . S
C841 C849 1.433 . S
C842 H838 0.929 . S
C842 C844 1.378 . S
C842 C846 1.350 . S
C843 C846 1.463 1_465 S
C843 C848 1.350 . S
C843 N851 1.427 . S
C844 H835 0.930 . S
C844 C842 1.378 . S
C844 C845 1.367 . S
C845 C844 1.367 . S
C845 C847 1.433 . S
C846 C842 1.350 . S
C846 C843 1.463 1_645 S
C846 N850 1.427 . S
C847 H837 0.929 . S
C847 C845 1.433 . S
C847 N850 1.384 . S
C848 H839 0.929 1_565 S
C848 C840 1.378 . S
C848 C843 1.350 . S
C849 H836 0.929 . S
C849 C841 1.433 . S
C849 N851 1.384 . S
N850 C846 1.427 . S
N850 C847 1.384 . S
N851 C843 1.427 . S
N851 C849 1.384 . S
H852 C858 0.930 . S
H853 C862 0.930 . S
H854 C867 0.929 . S
H855 C865 0.929 . S
H856 C860 0.929 . S
H857 C866 0.929 1_565 S
C858 H852 0.930 . S
C858 C859 1.367 . S
C858 C866 1.378 . S
C859 C858 1.367 . S
C859 C867 1.433 . S
C860 H856 0.929 . S
C860 C862 1.378 1_545 S
C860 C864 1.350 1_545 S
C861 C864 1.463 1_445 S
C861 C866 1.350 . S
C861 N869 1.427 . S
C862 H853 0.930 . S
C862 C860 1.378 1_565 S
C862 C863 1.367 . S
C863 C862 1.367 . S
C863 C865 1.433 . S
C864 C860 1.350 1_565 S
C864 C861 1.463 1_665 S
C864 N868 1.427 . S
C865 H855 0.929 . S
C865 C863 1.433 . S
C865 N868 1.384 . S
C866 H857 0.929 1_545 S
C866 C858 1.378 . S
C866 C861 1.350 . S
C867 H854 0.929 . S
C867 C859 1.433 . S
C867 N869 1.384 . S
N868 C864 1.427 . S
N868 C865 1.384 . S
N869 C861 1.427 . S
N869 C867 1.384 . S
H870 C876 0.930 . S
H871 C880 0.930 . S
H872 C885 0.929 . S
H873 C883 0.929 . S
H874 C878 0.929 1_455 S
H875 C884 0.929 . S
C876 H870 0.930 . S
C876 C877 1.367 . S
C876 C884 1.378 1_455 S
C877 C876 1.367 . S
C877 C885 1.433 . S
C878 H874 0.929 1_655 S
C878 C880 1.378 . S
C878 C882 1.350 . S
C879 C882 1.463 1_445 S
C879 C884 1.350 1_455 S
C879 N887 1.427 . S
C880 H871 0.930 . S
C880 C878 1.378 . S
C880 C881 1.367 . S
C881 C880 1.367 . S
C881 C883 1.433 . S
C882 C878 1.350 . S
C882 C879 1.463 1_665 S
C882 N886 1.427 . S
C883 H873 0.929 . S
C883 C881 1.433 . S
C883 N886 1.384 . S
C884 H875 0.929 . S
C884 C876 1.378 1_655 S
C884 C879 1.350 1_655 S
C885 H872 0.929 . S
C885 C877 1.433 . S
C885 N887 1.384 . S
N886 C882 1.427 . S
N886 C883 1.384 . S
N887 C879 1.427 . S
N887 C885 1.384 . S
H888 C894 0.930 1_655 S
H889 C898 0.930 . S
H890 C903 0.929 . S
H891 C901 0.929 1_565 S
H892 C896 0.929 . S
H893 C902 0.929 . S
C894 H888 0.930 1_455 S
C894 C895 1.367 . S
C894 C902 1.378 1_455 S
C895 C894 1.367 . S
C895 C903 1.433 . S
C896 H892 0.929 . S
C896 C898 1.378 1_455 S
C896 C900 1.350 1_455 S
C897 C900 1.463 1_465 S
C897 C902 1.350 1_455 S
C897 N905 1.427 1_565 S
C898 H889 0.930 . S
C898 C896 1.378 1_655 S
C898 C899 1.367 . S
C899 C898 1.367 . S
C899 C901 1.433 . S
C900 C896 1.350 1_655 S
C900 C897 1.463 1_645 S
C900 N904 1.427 1_545 S
C901 H891 0.929 1_545 S
C901 C899 1.433 . S
C901 N904 1.384 1_545 S
C902 H893 0.929 . S
C902 C894 1.378 1_655 S
C902 C897 1.350 1_655 S
C903 H890 0.929 . S
C903 C895 1.433 . S
C903 N905 1.384 1_565 S
N904 C900 1.427 1_565 S
N904 C901 1.384 1_565 S
N905 C897 1.427 1_545 S
N905 C903 1.384 1_545 S
H906 C912 0.930 . S
H907 C916 0.930 . S
H908 C921 0.929 . S
H909 C919 0.929 . S
H910 C914 0.929 . S
H911 C920 0.929 1_565 S
C912 H906 0.930 . S
C912 C913 1.367 . S
C912 C920 1.378 . S
C913 C912 1.367 . S
C913 C921 1.433 . S
C914 H910 0.929 . S
C914 C916 1.378 . S
C914 C918 1.350 . S
C915 C918 1.463 1_445 S
C915 C920 1.350 . S
C915 N923 1.427 . S
C916 H907 0.930 . S
C916 C914 1.378 . S
C916 C917 1.367 . S
C917 C916 1.367 . S
C917 C919 1.433 . S
C918 C914 1.350 . S
C918 C915 1.463 1_665 S
C918 N922 1.427 . S
C919 H909 0.929 . S
C919 C917 1.433 . S
C919 N922 1.384 . S
C920 H911 0.929 1_545 S
C920 C912 1.378 . S
C920 C915 1.350 . S
C921 H908 0.929 . S
C921 C913 1.433 . S
C921 N923 1.384 . S
N922 C918 1.427 . S
N922 C919 1.384 . S
N923 C915 1.427 . S
N923 C921 1.384 . S
C283 C182 1.797 . S
C287 C20 1.802 . S
C301 C205 1.800 . S
C305 C43 1.806 . S
C319 C228 1.796 . S
C323 C66 1.804 . S
C337 C251 1.795 . S
C341 C89 1.803 . S
C355 C274 1.800 . S
C359 C112 1.806 . S
C373 C159 1.795 . S
C377 C135 1.803 . S
C391 C158 1.803 . S
C395 C136 1.796 . S
C409 C181 1.804 . S
C413 C21 1.798 . S
C427 C204 1.806 . S
C431 C44 1.800 . S
C445 C227 1.802 . S
C449 C67 1.794 . S
C463 C250 1.802 . S
C467 C90 1.794 . S
C481 C273 1.804 . S
C485 C113 1.797 . S
C499 C17 1.320 . S
C503 C131 1.297 . S
C517 C40 1.321 . S
C521 C16 1.298 . S
C535 C39 1.307 . S
C539 C63 1.319 . S
C553 C62 1.302 . S
C557 C86 1.317 . S
C571 C85 1.297 . S
C575 C109 1.323 . S
C589 C132 1.322 . S
C593 C108 1.298 . S
C607 C155 1.318 . S
C611 C177 1.306 . S
C625 C178 1.318 . S
C629 C200 1.307 . S
C643 C201 1.322 . S
C647 C223 1.302 . S
C661 C224 1.319 . S
C665 C246 1.297 . S
C679 C247 1.318 . S
C683 C269 1.308 . S
C697 C154 1.307 . S
C701 C270 1.319 . S
C715 C202 0.986 . S
C719 C18 0.989 . S
C733 C41 0.986 . S
C737 C225 0.982 . S
C751 C64 0.986 . S
C755 C248 0.989 . S
C769 C87 0.980 . S
C773 C271 0.981 . S
C787 C110 0.989 . S
C791 C156 0.989 . S
C805 C179 0.989 . S
C809 C133 0.989 . S
C823 C19 0.750 . S
C827 C180 0.730 . S
C841 C203 0.751 . S
C845 C42 0.757 . S
C859 C226 0.759 . S
C863 C65 0.745 . S
C877 C249 0.742 . S
C881 C88 0.758 . S
C895 C111 0.731 . S
C899 C272 0.752 . S
C913 C134 0.750 . S
C917 C157 0.758 . S
