# Generated by pormake.
# Topology ghw, (5)-cn, num edge types: 1
# Building blocks:
#     Node 0, Type 0, BuildingBlock: XOMCOT_clean_sbu_1, # of connection points: 5
#     Node 1, Type 0, BuildingBlock: XOMCOT_clean_sbu_1, # of connection points: 5
#     Node 2, Type 0, BuildingBlock: XOMCOT_clean_sbu_1, # of connection points: 5
#     Node 3, Type 0, BuildingBlock: XOMCOT_clean_sbu_1, # of connection points: 5
#     Node 4, Type 0, BuildingBlock: XOMCOT_clean_sbu_1, # of connection points: 5
#     Node 5, Type 0, BuildingBlock: XOMCOT_clean_sbu_1, # of connection points: 5
#     Node 6, Type 0, BuildingBlock: XOMCOT_clean_sbu_1, # of connection points: 5
#     Node 7, Type 0, BuildingBlock: XOMCOT_clean_sbu_1, # of connection points: 5
#     Node 8, Type 0, BuildingBlock: XOMCOT_clean_sbu_1, # of connection points: 5
#     Node 9, Type 0, BuildingBlock: XOMCOT_clean_sbu_1, # of connection points: 5
#     Node 10, Type 0, BuildingBlock: XOMCOT_clean_sbu_1, # of connection points: 5
#     Node 11, Type 0, BuildingBlock: XOMCOT_clean_sbu_1, # of connection points: 5
#     Node 12, Type 0, BuildingBlock: XOMCOT_clean_sbu_1, # of connection points: 5
#     Node 13, Type 0, BuildingBlock: XOMCOT_clean_sbu_1, # of connection points: 5
#     Node 14, Type 0, BuildingBlock: XOMCOT_clean_sbu_1, # of connection points: 5
#     Node 15, Type 0, BuildingBlock: XOMCOT_clean_sbu_1, # of connection points: 5
#     Edge 16, Type (0, 0), None
#     Edge 17, Type (0, 0), None
#     Edge 18, Type (0, 0), None
#     Edge 19, Type (0, 0), None
#     Edge 20, Type (0, 0), None
#     Edge 21, Type (0, 0), None
#     Edge 22, Type (0, 0), None
#     Edge 23, Type (0, 0), None
#     Edge 24, Type (0, 0), None
#     Edge 25, Type (0, 0), None
#     Edge 26, Type (0, 0), None
#     Edge 27, Type (0, 0), None
#     Edge 28, Type (0, 0), None
#     Edge 29, Type (0, 0), None
#     Edge 30, Type (0, 0), None
#     Edge 31, Type (0, 0), None
#     Edge 32, Type (0, 0), None
#     Edge 33, Type (0, 0), None
#     Edge 34, Type (0, 0), None
#     Edge 35, Type (0, 0), None
#     Edge 36, Type (0, 0), None
#     Edge 37, Type (0, 0), None
#     Edge 38, Type (0, 0), None
#     Edge 39, Type (0, 0), None
#     Edge 40, Type (0, 0), None
#     Edge 41, Type (0, 0), None
#     Edge 42, Type (0, 0), None
#     Edge 43, Type (0, 0), None
#     Edge 44, Type (0, 0), None
#     Edge 45, Type (0, 0), None
#     Edge 46, Type (0, 0), None
#     Edge 47, Type (0, 0), None
#     Edge 48, Type (0, 0), None
#     Edge 49, Type (0, 0), None
#     Edge 50, Type (0, 0), None
#     Edge 51, Type (0, 0), None
#     Edge 52, Type (0, 0), None
#     Edge 53, Type (0, 0), None
#     Edge 54, Type (0, 0), None
#     Edge 55, Type (0, 0), None
# Relax obj value: 0.287
# Max RMSD: 0.266
# Mean RMSD: 0.266
data_MOF--net-ghw--node1-XOMCOT_clean_sbu_1--edge1-none
_symmetry_space_group_name_H-M    P1
_symmetry_Int_Tables_number       1
_symmetry_cell_setting            triclinic
loop_
_symmetry_equiv_pos_as_xyz
'x, y, z'
_cell_length_a     16.70004
_cell_length_b     20.826996
_cell_length_c     18.379055
_cell_angle_alpha  89.999999
_cell_angle_beta   97.055724
_cell_angle_gamma 90.000032
loop_
_atom_site_label
_atom_site_type_symbol
_atom_site_fract_x
_atom_site_fract_y
_atom_site_fract_z
_atom_type_partial_charge
C0 C 0.24135 -0.05158 0.36307 0.0
C1 C 0.31545 0.93872 0.33984 0.0
N2 N 0.3691 -0.02395 0.37945 0.0
N3 N 0.24778 -0.0062 0.41588 0.0
C4 C 0.32785 0.00845 0.42642 0.0
H5 H 0.18475 0.93072 0.33543 0.0
Co6 Co 0.16167 0.05025 0.41499 0.0
C7 C 0.26373 0.17559 0.47042 0.0
O8 O 0.25582 0.20316 0.40585 0.0
N9 N 0.07853 0.10947 0.41137 0.0
C10 C 0.99723 0.17462 0.34239 0.0
C11 C 0.07528 0.16124 0.36627 0.0
C12 C 1.00153 0.09925 0.42266 0.0
N13 N 0.95257 0.13874 0.38134 0.0
O14 O 0.11689 0.00394 0.49859 0.0
H15 H 0.1247 0.18088 0.34112 0.0
H16 H 0.97995 0.06093 0.45434 0.0
O17 O 0.23336 0.11842 0.47787 0.0
C18 C 0.0629 -0.04021 0.47732 0.0
O19 O 0.04958 -0.05426 0.40728 0.0
N20 N 0.18301 0.07629 0.32134 0.0
C21 C 0.16616 0.08591 0.16836 0.0
C22 C 0.23925 0.10373 0.21173 0.0
C23 C 0.24595 0.09986 0.28888 0.0
C24 C 0.1159 0.0534 0.2791 0.0
C25 C 0.10391 0.06209 0.20423 0.0
H26 H 0.30212 0.11224 0.32154 0.0
H27 H 0.06866 0.03024 0.30464 0.0
H28 H 0.35392 0.04671 0.4614 0.0
H29 H 0.32842 0.90971 0.29465 0.0
H30 H 0.97512 0.20224 0.29497 0.0
H31 H 0.29162 0.11799 0.18676 0.0
H32 H 0.04619 0.04939 0.17494 0.0
C33 C 0.08051 -0.05158 0.89184 0.0
C34 C 1.00642 0.93872 0.91509 0.0
N35 N 0.95277 -0.02393 0.8755 0.0
N36 N 0.07408 -0.00619 0.83904 0.0
C37 C 0.99401 0.00846 0.82852 0.0
H38 H 0.13711 0.93072 0.91947 0.0
Co39 Co 0.16018 0.05026 0.83994 0.0
C40 C 0.05814 0.17561 0.78449 0.0
O41 O 0.06615 0.2032 0.84905 0.0
N42 N 0.24333 0.10949 0.84357 0.0
C43 C 0.32465 0.1746 0.91258 0.0
C44 C 0.2466 0.16124 0.8887 0.0
C45 C 0.32032 0.09926 0.83227 0.0
N46 N 0.3693 0.13872 0.87362 0.0
O47 O 0.20497 0.00394 0.75635 0.0
H48 H 0.19718 0.18088 0.91385 0.0
H49 H 0.34189 0.06095 0.80056 0.0
O50 O 0.08847 0.11842 0.77705 0.0
C51 C 0.25896 -0.04021 0.77762 0.0
O52 O 0.27226 -0.05426 0.84766 0.0
N53 N 0.13882 0.0763 0.93357 0.0
C54 C 0.15567 0.08591 0.08654 0.0
C55 C 0.0826 0.10377 0.04318 0.0
C56 C 0.0759 0.0999 0.96603 0.0
C57 C 0.20592 0.05338 0.9758 0.0
C58 C 0.2179 0.06204 0.05068 0.0
H59 H 1.01975 0.11232 0.93336 0.0
H60 H 0.25314 0.03021 0.95027 0.0
H61 H 0.96793 0.04673 0.79355 0.0
H62 H 0.99346 0.90971 0.96028 0.0
H63 H 0.34677 0.2022 0.96001 0.0
H64 H 1.03024 0.11806 0.06814 0.0
H65 H 0.27562 0.04933 0.07997 0.0
C66 C 0.83052 0.93961 0.64188 0.0
C67 C 0.75641 -0.05068 0.66511 0.0
N68 N 0.70277 0.91198 0.62551 0.0
N69 N 0.82408 0.89423 0.58908 0.0
C70 C 0.74402 0.87958 0.57853 0.0
H71 H 0.88711 -0.04269 0.66952 0.0
Co72 Co 0.9102 0.83778 0.58997 0.0
C73 C 0.80813 0.71243 0.53454 0.0
O74 O 0.81605 0.68487 0.59911 0.0
N75 N 0.99334 0.77856 0.59359 0.0
C76 C 0.07463 0.71341 0.66257 0.0
C77 C 0.99658 0.72679 0.63869 0.0
C78 C 0.07033 0.78877 0.58229 0.0
N79 N 0.1193 0.74929 0.62362 0.0
O80 O 0.95497 0.88409 0.50637 0.0
H81 H 0.94716 0.70715 0.66384 0.0
H82 H 0.09192 0.82709 0.55061 0.0
O83 O 0.8385 0.76961 0.52709 0.0
C84 C 1.00897 0.92824 0.52764 0.0
O85 O 1.02228 0.94229 0.59768 0.0
N86 N 0.88885 0.81174 0.68362 0.0
C87 C 0.9057 0.80212 0.83659 0.0
C88 C 0.83261 0.78431 0.79322 0.0
C89 C 0.82591 0.78817 0.71607 0.0
C90 C 0.95596 0.83463 0.72585 0.0
C91 C 0.96795 0.82594 0.80072 0.0
H92 H 0.76974 0.77579 0.68341 0.0
H93 H 1.0032 0.85779 0.70031 0.0
H94 H 0.71795 0.84132 0.54355 0.0
H95 H 0.74345 -0.02168 0.7103 0.0
H96 H 0.09674 0.68579 0.70999 0.0
H97 H 0.78024 0.77004 0.81819 0.0
H98 H 1.02567 0.83864 0.83001 0.0
C99 C 0.99135 0.93961 0.11311 0.0
C100 C 0.06545 -0.05069 0.08987 0.0
N101 N 0.1191 0.91196 0.12945 0.0
N102 N 0.99779 0.89422 0.16591 0.0
C103 C 0.07786 0.87957 0.17644 0.0
H104 H 0.93475 -0.04269 0.08549 0.0
Co105 Co 0.91168 0.83777 0.16502 0.0
C106 C 1.01372 0.71242 0.22046 0.0
O107 O 1.00571 0.68482 0.15591 0.0
N108 N 0.82853 0.77854 0.16139 0.0
C109 C 0.74721 0.71343 0.09237 0.0
C110 C 0.82527 0.72679 0.11626 0.0
C111 C 0.75154 0.78877 0.17269 0.0
N112 N 0.70257 0.74931 0.13133 0.0
O113 O 0.86689 0.88409 0.24861 0.0
H114 H 0.87468 0.70715 0.0911 0.0
H115 H 0.72997 0.82707 0.2044 0.0
O116 O 0.98339 0.76961 0.22791 0.0
C117 C 0.81291 0.92824 0.22733 0.0
O118 O 0.79961 0.94229 0.15729 0.0
N119 N 0.93304 0.81173 0.07138 0.0
C120 C 0.91619 0.80212 0.91841 0.0
C121 C 0.98926 0.78427 0.96178 0.0
C122 C 0.99596 0.78813 0.03893 0.0
C123 C 0.86595 0.83466 0.02915 0.0
C124 C 0.85397 0.82599 0.95428 0.0
H125 H 0.05212 0.77571 0.07159 0.0
H126 H 0.81872 0.85782 0.05469 0.0
H127 H 0.10393 0.8413 0.2114 0.0
H128 H 0.07841 -0.02168 0.04468 0.0
H129 H 0.72509 0.68583 0.04494 0.0
H130 H 0.04162 0.76997 0.93681 0.0
H131 H 0.79625 0.83871 0.92499 0.0
C132 C 0.24135 0.44842 0.86307 0.0
C133 C 0.31545 0.43872 0.83984 0.0
N134 N 0.3691 0.47605 0.87945 0.0
N135 N 0.24778 0.4938 0.91588 0.0
C136 C 0.32785 0.50845 0.92642 0.0
H137 H 0.18475 0.43072 0.83543 0.0
Co138 Co 0.16167 0.55025 0.91499 0.0
C139 C 0.26373 0.67559 0.97042 0.0
O140 O 0.25582 0.70316 0.90585 0.0
N141 N 0.07853 0.60947 0.91137 0.0
C142 C 0.99723 0.67462 0.84239 0.0
C143 C 0.07528 0.66124 0.86627 0.0
C144 C 1.00153 0.59925 0.92266 0.0
N145 N 0.95257 0.63874 0.88134 0.0
O146 O 0.11689 0.50394 0.99859 0.0
H147 H 0.1247 0.68088 0.84112 0.0
H148 H 0.97995 0.56093 0.95434 0.0
O149 O 0.23336 0.61842 0.97787 0.0
C150 C 0.0629 0.45979 0.97732 0.0
O151 O 0.04958 0.44574 0.90728 0.0
N152 N 0.18301 0.57629 0.82134 0.0
C153 C 0.16616 0.58591 0.66836 0.0
C154 C 0.23925 0.60373 0.71173 0.0
C155 C 0.24595 0.59986 0.78888 0.0
C156 C 0.1159 0.5534 0.7791 0.0
C157 C 0.10391 0.56209 0.70423 0.0
H158 H 0.30212 0.61224 0.82154 0.0
H159 H 0.06866 0.53024 0.80464 0.0
H160 H 0.35392 0.54671 0.9614 0.0
H161 H 0.32842 0.40971 0.79465 0.0
H162 H 0.97512 0.70224 0.79497 0.0
H163 H 0.29162 0.61799 0.68676 0.0
H164 H 0.04619 0.54939 0.67494 0.0
C165 C 0.08051 0.44842 0.39184 0.0
C166 C 1.00642 0.43872 0.41509 0.0
N167 N 0.95277 0.47607 0.3755 0.0
N168 N 0.07408 0.49381 0.33904 0.0
C169 C 0.99401 0.50846 0.32852 0.0
H170 H 0.13711 0.43072 0.41947 0.0
Co171 Co 0.16018 0.55026 0.33994 0.0
C172 C 0.05814 0.67561 0.28449 0.0
O173 O 0.06615 0.7032 0.34905 0.0
N174 N 0.24333 0.60949 0.34357 0.0
C175 C 0.32465 0.6746 0.41258 0.0
C176 C 0.2466 0.66124 0.3887 0.0
C177 C 0.32032 0.59926 0.33227 0.0
N178 N 0.3693 0.63872 0.37362 0.0
O179 O 0.20497 0.50394 0.25635 0.0
H180 H 0.19718 0.68088 0.41385 0.0
H181 H 0.34189 0.56095 0.30056 0.0
O182 O 0.08847 0.61842 0.27705 0.0
C183 C 0.25896 0.45979 0.27762 0.0
O184 O 0.27226 0.44574 0.34766 0.0
N185 N 0.13882 0.5763 0.43357 0.0
C186 C 0.15567 0.58591 0.58654 0.0
C187 C 0.0826 0.60377 0.54318 0.0
C188 C 0.0759 0.5999 0.46603 0.0
C189 C 0.20592 0.55338 0.4758 0.0
C190 C 0.2179 0.56204 0.55068 0.0
H191 H 1.01975 0.61232 0.43336 0.0
H192 H 0.25314 0.53021 0.45027 0.0
H193 H 0.96793 0.54673 0.29355 0.0
H194 H 0.99346 0.40971 0.46028 0.0
H195 H 0.34677 0.7022 0.46001 0.0
H196 H 1.03024 0.61806 0.56814 0.0
H197 H 0.27562 0.54933 0.57997 0.0
C198 C 0.83052 0.43961 0.14188 0.0
C199 C 0.75641 0.44932 0.16511 0.0
N200 N 0.70277 0.41198 0.12551 0.0
N201 N 0.82408 0.39423 0.08908 0.0
C202 C 0.74402 0.37958 0.07853 0.0
H203 H 0.88711 0.45731 0.16952 0.0
Co204 Co 0.9102 0.33778 0.08997 0.0
C205 C 0.80813 0.21243 0.03454 0.0
O206 O 0.81605 0.18487 0.09911 0.0
N207 N 0.99334 0.27856 0.09359 0.0
C208 C 0.07463 0.21341 0.16257 0.0
C209 C 0.99658 0.22679 0.13869 0.0
C210 C 0.07033 0.28877 0.08229 0.0
N211 N 0.1193 0.24929 0.12362 0.0
O212 O 0.95497 0.38409 0.00637 0.0
H213 H 0.94716 0.20715 0.16384 0.0
H214 H 0.09192 0.32709 0.05061 0.0
O215 O 0.8385 0.26961 0.02709 0.0
C216 C 1.00897 0.42824 0.02764 0.0
O217 O 1.02228 0.44229 0.09768 0.0
N218 N 0.88885 0.31174 0.18362 0.0
C219 C 0.9057 0.30212 0.33659 0.0
C220 C 0.83261 0.28431 0.29322 0.0
C221 C 0.82591 0.28817 0.21607 0.0
C222 C 0.95596 0.33463 0.22585 0.0
C223 C 0.96795 0.32594 0.30072 0.0
H224 H 0.76974 0.27579 0.18341 0.0
H225 H 1.0032 0.35779 0.20031 0.0
H226 H 0.71795 0.34132 0.04355 0.0
H227 H 0.74345 0.47832 0.2103 0.0
H228 H 0.09674 0.18579 0.20999 0.0
H229 H 0.78024 0.27004 0.31819 0.0
H230 H 1.02567 0.33864 0.33001 0.0
C231 C 0.99135 0.43961 0.61311 0.0
C232 C 0.06545 0.44931 0.58987 0.0
N233 N 0.1191 0.41196 0.62945 0.0
N234 N 0.99779 0.39422 0.66591 0.0
C235 C 0.07786 0.37957 0.67644 0.0
H236 H 0.93475 0.45731 0.58549 0.0
Co237 Co 0.91168 0.33777 0.66502 0.0
C238 C 1.01372 0.21242 0.72046 0.0
O239 O 1.00571 0.18483 0.65591 0.0
N240 N 0.82853 0.27854 0.66139 0.0
C241 C 0.74721 0.21343 0.59237 0.0
C242 C 0.82527 0.22679 0.61626 0.0
C243 C 0.75154 0.28877 0.67269 0.0
N244 N 0.70257 0.24931 0.63133 0.0
O245 O 0.86689 0.38409 0.74861 0.0
H246 H 0.87468 0.20715 0.5911 0.0
H247 H 0.72997 0.32707 0.7044 0.0
O248 O 0.98339 0.26961 0.72791 0.0
C249 C 0.81291 0.42824 0.72733 0.0
O250 O 0.79961 0.44229 0.65729 0.0
N251 N 0.93304 0.31173 0.57138 0.0
C252 C 0.91619 0.30212 0.41841 0.0
C253 C 0.98926 0.28427 0.46178 0.0
C254 C 0.99596 0.28813 0.53893 0.0
C255 C 0.86595 0.33466 0.52915 0.0
C256 C 0.85397 0.32599 0.45428 0.0
H257 H 0.05212 0.27571 0.57159 0.0
H258 H 0.81872 0.35782 0.55469 0.0
H259 H 0.10393 0.3413 0.7114 0.0
H260 H 0.07841 0.47832 0.54468 0.0
H261 H 0.72509 0.18583 0.54494 0.0
H262 H 0.04162 0.26997 0.43681 0.0
H263 H 0.79625 0.33871 0.42499 0.0
C264 C 0.74139 -0.05153 0.86308 0.0
C265 C 0.81553 0.93875 0.83992 0.0
N266 N 0.86916 -0.02398 0.87964 0.0
N267 N 0.74778 -0.00618 0.91592 0.0
C268 C 0.82785 0.00845 0.92655 0.0
H269 H 0.68482 0.9308 0.83538 0.0
Co270 Co 0.66167 0.05027 0.91502 0.0
C271 C 0.7638 0.1756 0.97048 0.0
O272 O 0.756 0.20314 0.9059 0.0
N273 N 0.57852 0.10949 0.91138 0.0
C274 C 0.49739 0.17465 0.84224 0.0
C275 C 0.57539 0.1613 0.86635 0.0
C276 C 0.50145 0.09919 0.92239 0.0
N277 N 0.45259 0.13862 0.88089 0.0
O278 O 0.61687 0.00396 0.99861 0.0
H279 H 0.6249 0.18098 0.84137 0.0
H280 H 0.47979 0.06085 0.954 0.0
O281 O 0.73337 0.11845 0.97792 0.0
C282 C 0.5629 -0.04021 0.97733 0.0
O283 O 0.54964 -0.05428 0.90729 0.0
N284 N 0.68303 0.07632 0.82138 0.0
C285 C 0.66618 0.08593 0.66841 0.0
C286 C 0.73926 0.10377 0.71178 0.0
C287 C 0.74596 0.09989 0.78893 0.0
C288 C 0.61593 0.05341 0.77914 0.0
C289 C 0.60396 0.06207 0.70427 0.0
H290 H 0.80213 0.11227 0.82159 0.0
H291 H 0.5687 0.03024 0.80468 0.0
H292 H 0.8539 0.04672 0.96154 0.0
H293 H 0.82854 0.90978 0.79471 0.0
H294 H 0.47542 0.20236 0.79486 0.0
H295 H 0.79163 0.11806 0.68681 0.0
H296 H 0.54624 0.04934 0.67497 0.0
C297 C 0.58048 -0.05154 0.39191 0.0
C298 C 0.50633 0.93875 0.41506 0.0
N299 N 0.45271 -0.02399 0.37532 0.0
N300 N 0.5741 -0.00619 0.33907 0.0
C301 C 0.49403 0.00844 0.32842 0.0
H302 H 0.63705 0.93081 0.41963 0.0
Co303 Co 0.66021 0.05026 0.33996 0.0
C304 C 0.55806 0.17559 0.28452 0.0
O305 O 0.56578 0.2031 0.34911 0.0
N306 N 0.74336 0.10948 0.34359 0.0
C307 C 0.82447 0.17467 0.41269 0.0
C308 C 0.74647 0.16131 0.3886 0.0
C309 C 0.82042 0.09918 0.33258 0.0
N310 N 0.86928 0.13864 0.37405 0.0
O311 O 0.705 0.00396 0.25637 0.0
H312 H 0.69696 0.18098 0.41357 0.0
H313 H 0.8421 0.06084 0.30099 0.0
O314 O 0.58853 0.11845 0.27707 0.0
C315 C 0.75898 -0.0402 0.27765 0.0
O316 O 0.77225 -0.05428 0.34768 0.0
N317 N 0.63887 0.07631 0.43362 0.0
C318 C 0.65571 0.08592 0.58659 0.0
C319 C 0.58262 0.10373 0.54322 0.0
C320 C 0.57592 0.09986 0.46607 0.0
C321 C 0.70599 0.05344 0.47585 0.0
C322 C 0.71796 0.06212 0.55073 0.0
H323 H 0.51974 0.11221 0.43341 0.0
H324 H 0.75323 0.03028 0.45032 0.0
H325 H 0.46798 0.0467 0.29342 0.0
H326 H 0.49331 0.90978 0.46027 0.0
H327 H 0.84643 0.2024 0.46006 0.0
H328 H 0.53024 0.118 0.56818 0.0
H329 H 0.77569 0.04941 0.58003 0.0
C330 C 0.33047 0.93956 0.14187 0.0
C331 C 0.25633 -0.05072 0.16503 0.0
N332 N 0.2027 0.91201 0.12531 0.0
N333 N 0.32408 0.89421 0.08904 0.0
C334 C 0.24401 0.87958 0.07841 0.0
H335 H 0.38705 -0.04277 0.16957 0.0
Co336 Co 0.4102 0.83776 0.08993 0.0
C337 C 0.30806 0.71243 0.03448 0.0
O338 O 0.31586 0.68489 0.09906 0.0
N339 N 0.49335 0.77854 0.09358 0.0
C340 C 0.57448 0.71338 0.16272 0.0
C341 C 0.49648 0.72673 0.13861 0.0
C342 C 0.57041 0.78884 0.08256 0.0
N343 N 0.61928 0.74941 0.12406 0.0
O344 O 0.455 0.88407 0.00635 0.0
H345 H 0.44697 0.70705 0.16359 0.0
H346 H 0.59207 0.82718 0.05095 0.0
O347 O 0.3385 0.76958 0.02703 0.0
C348 C 0.50897 0.92823 0.02763 0.0
O349 O 0.52222 0.94231 0.09766 0.0
N350 N 0.38883 0.81171 0.18358 0.0
C351 C 0.40568 0.8021 0.33655 0.0
C352 C 0.3326 0.78426 0.29317 0.0
C353 C 0.3259 0.78814 0.21603 0.0
C354 C 0.45593 0.83462 0.22581 0.0
C355 C 0.46791 0.82596 0.30068 0.0
H356 H 0.26973 0.77576 0.18337 0.0
H357 H 0.50316 0.85779 0.20028 0.0
H358 H 0.21797 0.84131 0.04342 0.0
H359 H 0.24332 -0.02175 0.21024 0.0
H360 H 0.59645 0.68567 0.2101 0.0
H361 H 0.28024 0.76997 0.31814 0.0
H362 H 0.52562 0.83869 0.32998 0.0
C363 C 0.49139 0.93957 0.61304 0.0
C364 C 0.56553 -0.05072 0.5899 0.0
N365 N 0.61916 0.91202 0.62963 0.0
N366 N 0.49777 0.89422 0.66588 0.0
C367 C 0.57784 0.87959 0.67653 0.0
H368 H 0.43481 -0.04278 0.58533 0.0
Co369 Co 0.41165 0.83777 0.66499 0.0
C370 C 0.51381 0.71244 0.72043 0.0
O371 O 0.50609 0.68493 0.65584 0.0
N372 N 0.32851 0.77855 0.66136 0.0
C373 C 0.24739 0.71336 0.59226 0.0
C374 C 0.32539 0.72672 0.61635 0.0
C375 C 0.25144 0.78885 0.67238 0.0
N376 N 0.20259 0.74939 0.63091 0.0
O377 O 0.36687 0.88407 0.74859 0.0
H378 H 0.37491 0.70705 0.59138 0.0
H379 H 0.22977 0.82719 0.70397 0.0
O380 O 0.48334 0.76958 0.72788 0.0
C381 C 0.31289 0.92823 0.72731 0.0
O382 O 0.29962 0.94231 0.65728 0.0
N383 N 0.433 0.81172 0.57134 0.0
C384 C 0.41616 0.80211 0.41836 0.0
C385 C 0.48925 0.7843 0.46173 0.0
C386 C 0.49595 0.78817 0.53888 0.0
C387 C 0.36587 0.83459 0.5291 0.0
C388 C 0.3539 0.82592 0.45423 0.0
H389 H 0.55213 0.77582 0.57154 0.0
H390 H 0.31863 0.85775 0.55463 0.0
H391 H 0.60388 0.84133 0.71153 0.0
H392 H 0.57855 -0.02175 0.54469 0.0
H393 H 0.22543 0.68563 0.54489 0.0
H394 H 0.54162 0.77003 0.43677 0.0
H395 H 0.29618 0.83862 0.42493 0.0
C396 C 0.74139 0.44847 0.36308 0.0
C397 C 0.81553 0.43875 0.33992 0.0
N398 N 0.86916 0.47602 0.37964 0.0
N399 N 0.74778 0.49382 0.41592 0.0
C400 C 0.82785 0.50845 0.42655 0.0
H401 H 0.68482 0.4308 0.33538 0.0
Co402 Co 0.66167 0.55027 0.41502 0.0
C403 C 0.7638 0.6756 0.47048 0.0
O404 O 0.756 0.70314 0.4059 0.0
N405 N 0.57852 0.60949 0.41138 0.0
C406 C 0.49739 0.67465 0.34224 0.0
C407 C 0.57539 0.6613 0.36635 0.0
C408 C 0.50145 0.59919 0.42239 0.0
N409 N 0.45259 0.63862 0.38089 0.0
O410 O 0.61687 0.50396 0.49861 0.0
H411 H 0.6249 0.68098 0.34137 0.0
H412 H 0.47979 0.56085 0.454 0.0
O413 O 0.73337 0.61845 0.47792 0.0
C414 C 0.5629 0.45979 0.47733 0.0
O415 O 0.54964 0.44572 0.40729 0.0
N416 N 0.68303 0.57632 0.32138 0.0
C417 C 0.66618 0.58593 0.16841 0.0
C418 C 0.73926 0.60377 0.21178 0.0
C419 C 0.74596 0.59989 0.28893 0.0
C420 C 0.61593 0.55341 0.27914 0.0
C421 C 0.60396 0.56207 0.20427 0.0
H422 H 0.80213 0.61227 0.32159 0.0
H423 H 0.5687 0.53024 0.30468 0.0
H424 H 0.8539 0.54672 0.46154 0.0
H425 H 0.82854 0.40978 0.29471 0.0
H426 H 0.47542 0.70236 0.29486 0.0
H427 H 0.79163 0.61806 0.18681 0.0
H428 H 0.54624 0.54934 0.17497 0.0
C429 C 0.58048 0.44846 0.89191 0.0
C430 C 0.50633 0.43875 0.91506 0.0
N431 N 0.45271 0.47601 0.87532 0.0
N432 N 0.5741 0.49381 0.83907 0.0
C433 C 0.49403 0.50844 0.82842 0.0
H434 H 0.63705 0.43081 0.91963 0.0
Co435 Co 0.66021 0.55026 0.83996 0.0
C436 C 0.55806 0.67559 0.78452 0.0
O437 O 0.56578 0.7031 0.84911 0.0
N438 N 0.74336 0.60948 0.84359 0.0
C439 C 0.82447 0.67467 0.91269 0.0
C440 C 0.74647 0.66131 0.8886 0.0
C441 C 0.82042 0.59918 0.83258 0.0
N442 N 0.86928 0.63864 0.87405 0.0
O443 O 0.705 0.50396 0.75637 0.0
H444 H 0.69696 0.68098 0.91357 0.0
H445 H 0.8421 0.56084 0.80099 0.0
O446 O 0.58853 0.61845 0.77707 0.0
C447 C 0.75898 0.4598 0.77765 0.0
O448 O 0.77225 0.44572 0.84768 0.0
N449 N 0.63887 0.57631 0.93362 0.0
C450 C 0.65571 0.58592 0.08659 0.0
C451 C 0.58262 0.60373 0.04322 0.0
C452 C 0.57592 0.59986 0.96607 0.0
C453 C 0.70599 0.55344 0.97585 0.0
C454 C 0.71796 0.56212 0.05073 0.0
H455 H 0.51974 0.61221 0.93341 0.0
H456 H 0.75323 0.53028 0.95032 0.0
H457 H 0.46798 0.5467 0.79342 0.0
H458 H 0.49331 0.40978 0.96027 0.0
H459 H 0.84643 0.7024 0.96006 0.0
H460 H 0.53024 0.618 0.06818 0.0
H461 H 0.77569 0.54941 0.08003 0.0
C462 C 0.33047 0.43956 0.64187 0.0
C463 C 0.25633 0.44928 0.66503 0.0
N464 N 0.2027 0.41201 0.62531 0.0
N465 N 0.32408 0.39421 0.58904 0.0
C466 C 0.24401 0.37958 0.57841 0.0
H467 H 0.38705 0.45723 0.66957 0.0
Co468 Co 0.4102 0.33776 0.58993 0.0
C469 C 0.30806 0.21243 0.53448 0.0
O470 O 0.31586 0.18489 0.59906 0.0
N471 N 0.49335 0.27854 0.59358 0.0
C472 C 0.57448 0.21338 0.66272 0.0
C473 C 0.49648 0.22673 0.63861 0.0
C474 C 0.57041 0.28884 0.58256 0.0
N475 N 0.61928 0.24941 0.62406 0.0
O476 O 0.455 0.38407 0.50635 0.0
H477 H 0.44697 0.20705 0.66359 0.0
H478 H 0.59207 0.32718 0.55095 0.0
O479 O 0.3385 0.26958 0.52703 0.0
C480 C 0.50897 0.42823 0.52763 0.0
O481 O 0.52222 0.44231 0.59766 0.0
N482 N 0.38883 0.31171 0.68358 0.0
C483 C 0.40568 0.3021 0.83655 0.0
C484 C 0.3326 0.28426 0.79317 0.0
C485 C 0.3259 0.28814 0.71603 0.0
C486 C 0.45593 0.33462 0.72581 0.0
C487 C 0.46791 0.32596 0.80068 0.0
H488 H 0.26973 0.27576 0.68337 0.0
H489 H 0.50316 0.35779 0.70028 0.0
H490 H 0.21797 0.34131 0.54342 0.0
H491 H 0.24332 0.47825 0.71024 0.0
H492 H 0.59645 0.18567 0.7101 0.0
H493 H 0.28024 0.26997 0.81814 0.0
H494 H 0.52562 0.33869 0.82998 0.0
C495 C 0.49139 0.43957 0.11304 0.0
C496 C 0.56553 0.44928 0.0899 0.0
N497 N 0.61916 0.41202 0.12963 0.0
N498 N 0.49777 0.39422 0.16588 0.0
C499 C 0.57784 0.37959 0.17653 0.0
H500 H 0.43481 0.45722 0.08533 0.0
Co501 Co 0.41165 0.33777 0.16499 0.0
C502 C 0.51381 0.21244 0.22043 0.0
O503 O 0.50609 0.18493 0.15584 0.0
N504 N 0.32851 0.27855 0.16136 0.0
C505 C 0.24739 0.21336 0.09226 0.0
C506 C 0.32539 0.22672 0.11635 0.0
C507 C 0.25144 0.28885 0.17238 0.0
N508 N 0.20259 0.24939 0.13091 0.0
O509 O 0.36687 0.38407 0.24859 0.0
H510 H 0.37491 0.20705 0.09138 0.0
H511 H 0.22977 0.32719 0.20397 0.0
O512 O 0.48334 0.26958 0.22788 0.0
C513 C 0.31289 0.42823 0.22731 0.0
O514 O 0.29962 0.44231 0.15728 0.0
N515 N 0.433 0.31172 0.07134 0.0
C516 C 0.41616 0.30211 0.91836 0.0
C517 C 0.48925 0.2843 0.96173 0.0
C518 C 0.49595 0.28817 0.03888 0.0
C519 C 0.36587 0.33459 0.0291 0.0
C520 C 0.3539 0.32592 0.95423 0.0
H521 H 0.55213 0.27582 0.07154 0.0
H522 H 0.31863 0.35775 0.05463 0.0
H523 H 0.60388 0.34133 0.21153 0.0
H524 H 0.57855 0.47825 0.04469 0.0
H525 H 0.22543 0.18563 0.04489 0.0
H526 H 0.54162 0.27003 0.93677 0.0
H527 H 0.29618 0.33862 0.92493 0.0
loop_
_geom_bond_atom_site_label_1
_geom_bond_atom_site_label_2
_geom_bond_distance
_geom_bond_site_symmetry_2
_ccdc_geom_bond_type
C0 C1 1.351 . S
C0 N3 1.368 1_565 S
C0 H5 0.931 . S
C1 C0 1.351 . S
C1 N2 1.373 1_565 S
C1 H29 0.930 . S
N2 C1 1.373 1_545 S
N2 C4 1.340 . S
N3 C0 1.368 1_545 S
N3 C4 1.321 . S
N3 Co6 2.135 . S
C4 N2 1.340 . S
C4 N3 1.321 . S
C4 H28 0.930 . S
H5 C0 0.931 . S
Co6 N3 2.135 . S
Co6 N9 2.121 . S
Co6 O14 2.055 . S
Co6 O17 2.039 . S
Co6 N20 2.140 . S
C7 O8 1.227 . S
C7 O17 1.265 . S
O8 C7 1.227 . S
N9 Co6 2.121 . S
N9 C11 1.375 . S
N9 C12 1.313 1_455 S
C10 C11 1.338 1_655 S
C10 N13 1.377 . S
C10 H30 0.930 . S
C11 N9 1.375 . S
C11 C10 1.338 1_455 S
C11 H15 0.931 . S
C12 N9 1.313 1_655 S
C12 N13 1.344 . S
C12 H16 0.930 . S
N13 C10 1.377 . S
N13 C12 1.344 . S
O14 Co6 2.055 . S
O14 C18 1.253 1_545 S
H15 C11 0.931 . S
H16 C12 0.930 . S
O17 Co6 2.039 . S
O17 C7 1.265 . S
C18 O14 1.253 1_565 S
C18 O19 1.227 . S
O19 C18 1.227 . S
N20 Co6 2.140 . S
N20 C23 1.346 . S
N20 C24 1.345 . S
C21 C22 1.387 . S
C21 C25 1.391 . S
C22 C21 1.387 . S
C22 C23 1.369 . S
C22 H31 0.929 . S
C23 N20 1.346 . S
C23 C22 1.369 . S
C23 H26 0.928 . S
C24 N20 1.345 . S
C24 C25 1.371 . S
C24 H27 0.931 . S
C25 C21 1.391 . S
C25 C24 1.371 . S
C25 H32 0.930 . S
H26 C23 0.928 . S
H27 C24 0.931 . S
H28 C4 0.930 . S
H29 C1 0.930 . S
H30 C10 0.930 . S
H31 C22 0.929 . S
H32 C25 0.930 . S
C33 C34 1.351 1_455 S
C33 N36 1.368 1_565 S
C33 H38 0.931 . S
C34 C33 1.351 1_655 S
C34 N35 1.373 1_565 S
C34 H62 0.930 . S
N35 C34 1.373 1_545 S
N35 C37 1.340 . S
N36 C33 1.368 1_545 S
N36 C37 1.321 1_455 S
N36 Co39 2.135 . S
C37 N35 1.340 . S
C37 N36 1.321 1_655 S
C37 H61 0.930 . S
H38 C33 0.931 . S
Co39 N36 2.135 . S
Co39 N42 2.121 . S
Co39 O47 2.055 . S
Co39 O50 2.039 . S
Co39 N53 2.140 . S
C40 O41 1.227 . S
C40 O50 1.265 . S
O41 C40 1.227 . S
N42 Co39 2.121 . S
N42 C44 1.375 . S
N42 C45 1.313 . S
C43 C44 1.338 . S
C43 N46 1.377 . S
C43 H63 0.930 . S
C44 N42 1.375 . S
C44 C43 1.338 . S
C44 H48 0.931 . S
C45 N42 1.313 . S
C45 N46 1.344 . S
C45 H49 0.930 . S
N46 C43 1.377 . S
N46 C45 1.344 . S
O47 Co39 2.055 . S
O47 C51 1.253 1_545 S
H48 C44 0.931 . S
H49 C45 0.930 . S
O50 Co39 2.039 . S
O50 C40 1.265 . S
C51 O47 1.253 1_565 S
C51 O52 1.227 . S
O52 C51 1.227 . S
N53 Co39 2.140 . S
N53 C56 1.346 . S
N53 C57 1.345 . S
C54 C55 1.387 . S
C54 C58 1.391 . S
C55 C54 1.387 . S
C55 C56 1.369 1_554 S
C55 H64 0.929 . S
C56 N53 1.346 . S
C56 C55 1.369 1_556 S
C56 H59 0.928 . S
C57 N53 1.345 . S
C57 C58 1.371 1_556 S
C57 H60 0.931 . S
C58 C54 1.391 . S
C58 C57 1.371 1_554 S
C58 H65 0.930 . S
H59 C56 0.928 . S
H60 C57 0.931 . S
H61 C37 0.930 . S
H62 C34 0.930 . S
H63 C43 0.930 . S
H64 C55 0.929 . S
H65 C58 0.930 . S
C66 C67 1.351 . S
C66 N69 1.368 1_545 S
C66 H71 0.931 . S
C67 C66 1.351 . S
C67 N68 1.373 1_545 S
C67 H95 0.930 . S
N68 C67 1.373 1_565 S
N68 C70 1.340 . S
N69 C66 1.368 1_565 S
N69 C70 1.321 . S
N69 Co72 2.135 . S
C70 N68 1.340 . S
C70 N69 1.321 . S
C70 H94 0.930 . S
H71 C66 0.931 . S
Co72 N69 2.135 . S
Co72 N75 2.121 . S
Co72 O80 2.055 . S
Co72 O83 2.039 . S
Co72 N86 2.140 . S
C73 O74 1.227 . S
C73 O83 1.265 . S
O74 C73 1.227 . S
N75 Co72 2.121 . S
N75 C77 1.375 . S
N75 C78 1.313 1_655 S
C76 C77 1.338 1_455 S
C76 N79 1.377 . S
C76 H96 0.930 . S
C77 N75 1.375 . S
C77 C76 1.338 1_655 S
C77 H81 0.931 . S
C78 N75 1.313 1_455 S
C78 N79 1.344 . S
C78 H82 0.930 . S
N79 C76 1.377 . S
N79 C78 1.344 . S
O80 Co72 2.055 . S
O80 C84 1.253 1_565 S
H81 C77 0.931 . S
H82 C78 0.930 . S
O83 Co72 2.039 . S
O83 C73 1.265 . S
C84 O80 1.253 1_545 S
C84 O85 1.227 . S
O85 C84 1.227 . S
N86 Co72 2.140 . S
N86 C89 1.346 . S
N86 C90 1.345 . S
C87 C88 1.387 . S
C87 C91 1.391 . S
C88 C87 1.387 . S
C88 C89 1.369 . S
C88 H97 0.929 . S
C89 N86 1.346 . S
C89 C88 1.369 . S
C89 H92 0.928 . S
C90 N86 1.345 . S
C90 C91 1.371 . S
C90 H93 0.931 . S
C91 C87 1.391 . S
C91 C90 1.371 . S
C91 H98 0.930 . S
H92 C89 0.928 . S
H93 C90 0.931 . S
H94 C70 0.930 . S
H95 C67 0.930 . S
H96 C76 0.930 . S
H97 C88 0.929 . S
H98 C91 0.930 . S
C99 C100 1.351 1_655 S
C99 N102 1.368 1_545 S
C99 H104 0.931 . S
C100 C99 1.351 1_455 S
C100 N101 1.373 1_545 S
C100 H128 0.930 . S
N101 C100 1.373 1_565 S
N101 C103 1.340 . S
N102 C99 1.368 1_565 S
N102 C103 1.321 1_655 S
N102 Co105 2.135 . S
C103 N101 1.340 . S
C103 N102 1.321 1_455 S
C103 H127 0.930 . S
H104 C99 0.931 . S
Co105 N102 2.135 . S
Co105 N108 2.121 . S
Co105 O113 2.055 . S
Co105 O116 2.039 . S
Co105 N119 2.140 . S
C106 O107 1.227 . S
C106 O116 1.265 . S
O107 C106 1.227 . S
N108 Co105 2.121 . S
N108 C110 1.375 . S
N108 C111 1.313 . S
C109 C110 1.338 . S
C109 N112 1.377 . S
C109 H129 0.930 . S
C110 N108 1.375 . S
C110 C109 1.338 . S
C110 H114 0.931 . S
C111 N108 1.313 . S
C111 N112 1.344 . S
C111 H115 0.930 . S
N112 C109 1.377 . S
N112 C111 1.344 . S
O113 Co105 2.055 . S
O113 C117 1.253 1_565 S
H114 C110 0.931 . S
H115 C111 0.930 . S
O116 Co105 2.039 . S
O116 C106 1.265 . S
C117 O113 1.253 1_545 S
C117 O118 1.227 . S
O118 C117 1.227 . S
N119 Co105 2.140 . S
N119 C122 1.346 . S
N119 C123 1.345 . S
C120 C121 1.387 . S
C120 C124 1.391 . S
C121 C120 1.387 . S
C121 C122 1.369 1_556 S
C121 H130 0.929 . S
C122 N119 1.346 . S
C122 C121 1.369 1_554 S
C122 H125 0.928 . S
C123 N119 1.345 . S
C123 C124 1.371 1_554 S
C123 H126 0.931 . S
C124 C120 1.391 . S
C124 C123 1.371 1_556 S
C124 H131 0.930 . S
H125 C122 0.928 . S
H126 C123 0.931 . S
H127 C103 0.930 . S
H128 C100 0.930 . S
H129 C109 0.930 . S
H130 C121 0.929 . S
H131 C124 0.930 . S
C132 C133 1.351 . S
C132 N135 1.368 . S
C132 H137 0.931 . S
C133 C132 1.351 . S
C133 N134 1.373 . S
C133 H161 0.930 . S
N134 C133 1.373 . S
N134 C136 1.340 . S
N135 C132 1.368 . S
N135 C136 1.321 . S
N135 Co138 2.135 . S
C136 N134 1.340 . S
C136 N135 1.321 . S
C136 H160 0.930 . S
H137 C132 0.931 . S
Co138 N135 2.135 . S
Co138 N141 2.121 . S
Co138 O146 2.055 . S
Co138 O149 2.039 . S
Co138 N152 2.140 . S
C139 O140 1.227 . S
C139 O149 1.265 . S
O140 C139 1.227 . S
N141 Co138 2.121 . S
N141 C143 1.375 . S
N141 C144 1.313 1_455 S
C142 C143 1.338 1_655 S
C142 N145 1.377 . S
C142 H162 0.930 . S
C143 N141 1.375 . S
C143 C142 1.338 1_455 S
C143 H147 0.931 . S
C144 N141 1.313 1_655 S
C144 N145 1.344 . S
C144 H148 0.930 . S
N145 C142 1.377 . S
N145 C144 1.344 . S
O146 Co138 2.055 . S
O146 C150 1.253 . S
H147 C143 0.931 . S
H148 C144 0.930 . S
O149 Co138 2.039 . S
O149 C139 1.265 . S
C150 O146 1.253 . S
C150 O151 1.227 . S
O151 C150 1.227 . S
N152 Co138 2.140 . S
N152 C155 1.346 . S
N152 C156 1.345 . S
C153 C154 1.387 . S
C153 C157 1.391 . S
C154 C153 1.387 . S
C154 C155 1.369 . S
C154 H163 0.929 . S
C155 N152 1.346 . S
C155 C154 1.369 . S
C155 H158 0.928 . S
C156 N152 1.345 . S
C156 C157 1.371 . S
C156 H159 0.931 . S
C157 C153 1.391 . S
C157 C156 1.371 . S
C157 H164 0.930 . S
H158 C155 0.928 . S
H159 C156 0.931 . S
H160 C136 0.930 . S
H161 C133 0.930 . S
H162 C142 0.930 . S
H163 C154 0.929 . S
H164 C157 0.930 . S
C165 C166 1.351 1_455 S
C165 N168 1.368 . S
C165 H170 0.931 . S
C166 C165 1.351 1_655 S
C166 N167 1.373 . S
C166 H194 0.930 . S
N167 C166 1.373 . S
N167 C169 1.340 . S
N168 C165 1.368 . S
N168 C169 1.321 1_455 S
N168 Co171 2.135 . S
C169 N167 1.340 . S
C169 N168 1.321 1_655 S
C169 H193 0.930 . S
H170 C165 0.931 . S
Co171 N168 2.135 . S
Co171 N174 2.121 . S
Co171 O179 2.055 . S
Co171 O182 2.039 . S
Co171 N185 2.140 . S
C172 O173 1.227 . S
C172 O182 1.265 . S
O173 C172 1.227 . S
N174 Co171 2.121 . S
N174 C176 1.375 . S
N174 C177 1.313 . S
C175 C176 1.338 . S
C175 N178 1.377 . S
C175 H195 0.930 . S
C176 N174 1.375 . S
C176 C175 1.338 . S
C176 H180 0.931 . S
C177 N174 1.313 . S
C177 N178 1.344 . S
C177 H181 0.930 . S
N178 C175 1.377 . S
N178 C177 1.344 . S
O179 Co171 2.055 . S
O179 C183 1.253 . S
H180 C176 0.931 . S
H181 C177 0.930 . S
O182 Co171 2.039 . S
O182 C172 1.265 . S
C183 O179 1.253 . S
C183 O184 1.227 . S
O184 C183 1.227 . S
N185 Co171 2.140 . S
N185 C188 1.346 . S
N185 C189 1.345 . S
C186 C187 1.387 . S
C186 C190 1.391 . S
C187 C186 1.387 . S
C187 C188 1.369 . S
C187 H196 0.929 . S
C188 N185 1.346 . S
C188 C187 1.369 . S
C188 H191 0.928 . S
C189 N185 1.345 . S
C189 C190 1.371 . S
C189 H192 0.931 . S
C190 C186 1.391 . S
C190 C189 1.371 . S
C190 H197 0.930 . S
H191 C188 0.928 . S
H192 C189 0.931 . S
H193 C169 0.930 . S
H194 C166 0.930 . S
H195 C175 0.930 . S
H196 C187 0.929 . S
H197 C190 0.930 . S
C198 C199 1.351 . S
C198 N201 1.368 . S
C198 H203 0.931 . S
C199 C198 1.351 . S
C199 N200 1.373 . S
C199 H227 0.930 . S
N200 C199 1.373 . S
N200 C202 1.340 . S
N201 C198 1.368 . S
N201 C202 1.321 . S
N201 Co204 2.135 . S
C202 N200 1.340 . S
C202 N201 1.321 . S
C202 H226 0.930 . S
H203 C198 0.931 . S
Co204 N201 2.135 . S
Co204 N207 2.121 . S
Co204 O212 2.055 . S
Co204 O215 2.039 . S
Co204 N218 2.140 . S
C205 O206 1.227 . S
C205 O215 1.265 . S
O206 C205 1.227 . S
N207 Co204 2.121 . S
N207 C209 1.375 . S
N207 C210 1.313 1_655 S
C208 C209 1.338 1_455 S
C208 N211 1.377 . S
C208 H228 0.930 . S
C209 N207 1.375 . S
C209 C208 1.338 1_655 S
C209 H213 0.931 . S
C210 N207 1.313 1_455 S
C210 N211 1.344 . S
C210 H214 0.930 . S
N211 C208 1.377 . S
N211 C210 1.344 . S
O212 Co204 2.055 . S
O212 C216 1.253 . S
H213 C209 0.931 . S
H214 C210 0.930 . S
O215 Co204 2.039 . S
O215 C205 1.265 . S
C216 O212 1.253 . S
C216 O217 1.227 . S
O217 C216 1.227 . S
N218 Co204 2.140 . S
N218 C221 1.346 . S
N218 C222 1.345 . S
C219 C220 1.387 . S
C219 C223 1.391 . S
C220 C219 1.387 . S
C220 C221 1.369 . S
C220 H229 0.929 . S
C221 N218 1.346 . S
C221 C220 1.369 . S
C221 H224 0.928 . S
C222 N218 1.345 . S
C222 C223 1.371 . S
C222 H225 0.931 . S
C223 C219 1.391 . S
C223 C222 1.371 . S
C223 H230 0.930 . S
H224 C221 0.928 . S
H225 C222 0.931 . S
H226 C202 0.930 . S
H227 C199 0.930 . S
H228 C208 0.930 . S
H229 C220 0.929 . S
H230 C223 0.930 . S
C231 C232 1.351 1_655 S
C231 N234 1.368 . S
C231 H236 0.931 . S
C232 C231 1.351 1_455 S
C232 N233 1.373 . S
C232 H260 0.930 . S
N233 C232 1.373 . S
N233 C235 1.340 . S
N234 C231 1.368 . S
N234 C235 1.321 1_655 S
N234 Co237 2.135 . S
C235 N233 1.340 . S
C235 N234 1.321 1_455 S
C235 H259 0.930 . S
H236 C231 0.931 . S
Co237 N234 2.135 . S
Co237 N240 2.121 . S
Co237 O245 2.055 . S
Co237 O248 2.039 . S
Co237 N251 2.140 . S
C238 O239 1.227 . S
C238 O248 1.265 . S
O239 C238 1.227 . S
N240 Co237 2.121 . S
N240 C242 1.375 . S
N240 C243 1.313 . S
C241 C242 1.338 . S
C241 N244 1.377 . S
C241 H261 0.930 . S
C242 N240 1.375 . S
C242 C241 1.338 . S
C242 H246 0.931 . S
C243 N240 1.313 . S
C243 N244 1.344 . S
C243 H247 0.930 . S
N244 C241 1.377 . S
N244 C243 1.344 . S
O245 Co237 2.055 . S
O245 C249 1.253 . S
H246 C242 0.931 . S
H247 C243 0.930 . S
O248 Co237 2.039 . S
O248 C238 1.265 . S
C249 O245 1.253 . S
C249 O250 1.227 . S
O250 C249 1.227 . S
N251 Co237 2.140 . S
N251 C254 1.346 . S
N251 C255 1.345 . S
C252 C253 1.387 . S
C252 C256 1.391 . S
C253 C252 1.387 . S
C253 C254 1.369 . S
C253 H262 0.929 . S
C254 N251 1.346 . S
C254 C253 1.369 . S
C254 H257 0.928 . S
C255 N251 1.345 . S
C255 C256 1.371 . S
C255 H258 0.931 . S
C256 C252 1.391 . S
C256 C255 1.371 . S
C256 H263 0.930 . S
H257 C254 0.928 . S
H258 C255 0.931 . S
H259 C235 0.930 . S
H260 C232 0.930 . S
H261 C241 0.930 . S
H262 C253 0.929 . S
H263 C256 0.930 . S
C264 C265 1.351 . S
C264 N267 1.368 1_565 S
C264 H269 0.931 . S
C265 C264 1.351 . S
C265 N266 1.373 1_565 S
C265 H293 0.930 . S
N266 C265 1.373 1_545 S
N266 C268 1.340 . S
N267 C264 1.368 1_545 S
N267 C268 1.321 . S
N267 Co270 2.135 . S
C268 N266 1.340 . S
C268 N267 1.321 . S
C268 H292 0.930 . S
H269 C264 0.931 . S
Co270 N267 2.135 . S
Co270 N273 2.121 . S
Co270 O278 2.055 . S
Co270 O281 2.039 . S
Co270 N284 2.140 . S
C271 O272 1.227 . S
C271 O281 1.265 . S
O272 C271 1.227 . S
N273 Co270 2.121 . S
N273 C275 1.375 . S
N273 C276 1.313 . S
C274 C275 1.338 . S
C274 N277 1.377 . S
C274 H294 0.930 . S
C275 N273 1.375 . S
C275 C274 1.338 . S
C275 H279 0.931 . S
C276 N273 1.313 . S
C276 N277 1.344 . S
C276 H280 0.930 . S
N277 C274 1.377 . S
N277 C276 1.344 . S
O278 Co270 2.055 . S
O278 C282 1.253 1_545 S
H279 C275 0.931 . S
H280 C276 0.930 . S
O281 Co270 2.039 . S
O281 C271 1.265 . S
C282 O278 1.253 1_565 S
C282 O283 1.227 . S
O283 C282 1.227 . S
N284 Co270 2.140 . S
N284 C287 1.346 . S
N284 C288 1.345 . S
C285 C286 1.387 . S
C285 C289 1.391 . S
C286 C285 1.387 . S
C286 C287 1.369 . S
C286 H295 0.929 . S
C287 N284 1.346 . S
C287 C286 1.369 . S
C287 H290 0.928 . S
C288 N284 1.345 . S
C288 C289 1.371 . S
C288 H291 0.931 . S
C289 C285 1.391 . S
C289 C288 1.371 . S
C289 H296 0.930 . S
H290 C287 0.928 . S
H291 C288 0.931 . S
H292 C268 0.930 . S
H293 C265 0.930 . S
H294 C274 0.930 . S
H295 C286 0.929 . S
H296 C289 0.930 . S
C297 C298 1.351 . S
C297 N300 1.368 1_565 S
C297 H302 0.931 . S
C298 C297 1.351 . S
C298 N299 1.373 1_565 S
C298 H326 0.930 . S
N299 C298 1.373 1_545 S
N299 C301 1.340 . S
N300 C297 1.368 1_545 S
N300 C301 1.321 . S
N300 Co303 2.135 . S
C301 N299 1.340 . S
C301 N300 1.321 . S
C301 H325 0.930 . S
H302 C297 0.931 . S
Co303 N300 2.135 . S
Co303 N306 2.121 . S
Co303 O311 2.055 . S
Co303 O314 2.039 . S
Co303 N317 2.140 . S
C304 O305 1.227 . S
C304 O314 1.265 . S
O305 C304 1.227 . S
N306 Co303 2.121 . S
N306 C308 1.375 . S
N306 C309 1.313 . S
C307 C308 1.338 . S
C307 N310 1.377 . S
C307 H327 0.930 . S
C308 N306 1.375 . S
C308 C307 1.338 . S
C308 H312 0.931 . S
C309 N306 1.313 . S
C309 N310 1.344 . S
C309 H313 0.930 . S
N310 C307 1.377 . S
N310 C309 1.344 . S
O311 Co303 2.055 . S
O311 C315 1.253 1_545 S
H312 C308 0.931 . S
H313 C309 0.930 . S
O314 Co303 2.039 . S
O314 C304 1.265 . S
C315 O311 1.253 1_565 S
C315 O316 1.227 . S
O316 C315 1.227 . S
N317 Co303 2.140 . S
N317 C320 1.346 . S
N317 C321 1.345 . S
C318 C319 1.387 . S
C318 C322 1.391 . S
C319 C318 1.387 . S
C319 C320 1.369 . S
C319 H328 0.929 . S
C320 N317 1.346 . S
C320 C319 1.369 . S
C320 H323 0.928 . S
C321 N317 1.345 . S
C321 C322 1.371 . S
C321 H324 0.931 . S
C322 C318 1.391 . S
C322 C321 1.371 . S
C322 H329 0.930 . S
H323 C320 0.928 . S
H324 C321 0.931 . S
H325 C301 0.930 . S
H326 C298 0.930 . S
H327 C307 0.930 . S
H328 C319 0.929 . S
H329 C322 0.930 . S
C330 C331 1.351 . S
C330 N333 1.368 1_545 S
C330 H335 0.931 . S
C331 C330 1.351 . S
C331 N332 1.373 1_545 S
C331 H359 0.930 . S
N332 C331 1.373 1_565 S
N332 C334 1.340 . S
N333 C330 1.368 1_565 S
N333 C334 1.321 . S
N333 Co336 2.135 . S
C334 N332 1.340 . S
C334 N333 1.321 . S
C334 H358 0.930 . S
H335 C330 0.931 . S
Co336 N333 2.135 . S
Co336 N339 2.121 . S
Co336 O344 2.055 . S
Co336 O347 2.039 . S
Co336 N350 2.140 . S
C337 O338 1.227 . S
C337 O347 1.265 . S
O338 C337 1.227 . S
N339 Co336 2.121 . S
N339 C341 1.375 . S
N339 C342 1.313 . S
C340 C341 1.338 . S
C340 N343 1.377 . S
C340 H360 0.930 . S
C341 N339 1.375 . S
C341 C340 1.338 . S
C341 H345 0.931 . S
C342 N339 1.313 . S
C342 N343 1.344 . S
C342 H346 0.930 . S
N343 C340 1.377 . S
N343 C342 1.344 . S
O344 Co336 2.055 . S
O344 C348 1.253 1_565 S
H345 C341 0.931 . S
H346 C342 0.930 . S
O347 Co336 2.039 . S
O347 C337 1.265 . S
C348 O344 1.253 1_545 S
C348 O349 1.227 . S
O349 C348 1.227 . S
N350 Co336 2.140 . S
N350 C353 1.346 . S
N350 C354 1.345 . S
C351 C352 1.387 . S
C351 C355 1.391 . S
C352 C351 1.387 . S
C352 C353 1.369 . S
C352 H361 0.929 . S
C353 N350 1.346 . S
C353 C352 1.369 . S
C353 H356 0.928 . S
C354 N350 1.345 . S
C354 C355 1.371 . S
C354 H357 0.931 . S
C355 C351 1.391 . S
C355 C354 1.371 . S
C355 H362 0.930 . S
H356 C353 0.928 . S
H357 C354 0.931 . S
H358 C334 0.930 . S
H359 C331 0.930 . S
H360 C340 0.930 . S
H361 C352 0.929 . S
H362 C355 0.930 . S
C363 C364 1.351 . S
C363 N366 1.368 1_545 S
C363 H368 0.931 . S
C364 C363 1.351 . S
C364 N365 1.373 1_545 S
C364 H392 0.930 . S
N365 C364 1.373 1_565 S
N365 C367 1.340 . S
N366 C363 1.368 1_565 S
N366 C367 1.321 . S
N366 Co369 2.135 . S
C367 N365 1.340 . S
C367 N366 1.321 . S
C367 H391 0.930 . S
H368 C363 0.931 . S
Co369 N366 2.135 . S
Co369 N372 2.121 . S
Co369 O377 2.055 . S
Co369 O380 2.039 . S
Co369 N383 2.140 . S
C370 O371 1.227 . S
C370 O380 1.265 . S
O371 C370 1.227 . S
N372 Co369 2.121 . S
N372 C374 1.375 . S
N372 C375 1.313 . S
C373 C374 1.338 . S
C373 N376 1.377 . S
C373 H393 0.930 . S
C374 N372 1.375 . S
C374 C373 1.338 . S
C374 H378 0.931 . S
C375 N372 1.313 . S
C375 N376 1.344 . S
C375 H379 0.930 . S
N376 C373 1.377 . S
N376 C375 1.344 . S
O377 Co369 2.055 . S
O377 C381 1.253 1_565 S
H378 C374 0.931 . S
H379 C375 0.930 . S
O380 Co369 2.039 . S
O380 C370 1.265 . S
C381 O377 1.253 1_545 S
C381 O382 1.227 . S
O382 C381 1.227 . S
N383 Co369 2.140 . S
N383 C386 1.346 . S
N383 C387 1.345 . S
C384 C385 1.387 . S
C384 C388 1.391 . S
C385 C384 1.387 . S
C385 C386 1.369 . S
C385 H394 0.929 . S
C386 N383 1.346 . S
C386 C385 1.369 . S
C386 H389 0.928 . S
C387 N383 1.345 . S
C387 C388 1.371 . S
C387 H390 0.931 . S
C388 C384 1.391 . S
C388 C387 1.371 . S
C388 H395 0.930 . S
H389 C386 0.928 . S
H390 C387 0.931 . S
H391 C367 0.930 . S
H392 C364 0.930 . S
H393 C373 0.930 . S
H394 C385 0.929 . S
H395 C388 0.930 . S
C396 C397 1.351 . S
C396 N399 1.368 . S
C396 H401 0.931 . S
C397 C396 1.351 . S
C397 N398 1.373 . S
C397 H425 0.930 . S
N398 C397 1.373 . S
N398 C400 1.340 . S
N399 C396 1.368 . S
N399 C400 1.321 . S
N399 Co402 2.135 . S
C400 N398 1.340 . S
C400 N399 1.321 . S
C400 H424 0.930 . S
H401 C396 0.931 . S
Co402 N399 2.135 . S
Co402 N405 2.121 . S
Co402 O410 2.055 . S
Co402 O413 2.039 . S
Co402 N416 2.140 . S
C403 O404 1.227 . S
C403 O413 1.265 . S
O404 C403 1.227 . S
N405 Co402 2.121 . S
N405 C407 1.375 . S
N405 C408 1.313 . S
C406 C407 1.338 . S
C406 N409 1.377 . S
C406 H426 0.930 . S
C407 N405 1.375 . S
C407 C406 1.338 . S
C407 H411 0.931 . S
C408 N405 1.313 . S
C408 N409 1.344 . S
C408 H412 0.930 . S
N409 C406 1.377 . S
N409 C408 1.344 . S
O410 Co402 2.055 . S
O410 C414 1.253 . S
H411 C407 0.931 . S
H412 C408 0.930 . S
O413 Co402 2.039 . S
O413 C403 1.265 . S
C414 O410 1.253 . S
C414 O415 1.227 . S
O415 C414 1.227 . S
N416 Co402 2.140 . S
N416 C419 1.346 . S
N416 C420 1.345 . S
C417 C418 1.387 . S
C417 C421 1.391 . S
C418 C417 1.387 . S
C418 C419 1.369 . S
C418 H427 0.929 . S
C419 N416 1.346 . S
C419 C418 1.369 . S
C419 H422 0.928 . S
C420 N416 1.345 . S
C420 C421 1.371 . S
C420 H423 0.931 . S
C421 C417 1.391 . S
C421 C420 1.371 . S
C421 H428 0.930 . S
H422 C419 0.928 . S
H423 C420 0.931 . S
H424 C400 0.930 . S
H425 C397 0.930 . S
H426 C406 0.930 . S
H427 C418 0.929 . S
H428 C421 0.930 . S
C429 C430 1.351 . S
C429 N432 1.368 . S
C429 H434 0.931 . S
C430 C429 1.351 . S
C430 N431 1.373 . S
C430 H458 0.930 . S
N431 C430 1.373 . S
N431 C433 1.340 . S
N432 C429 1.368 . S
N432 C433 1.321 . S
N432 Co435 2.135 . S
C433 N431 1.340 . S
C433 N432 1.321 . S
C433 H457 0.930 . S
H434 C429 0.931 . S
Co435 N432 2.135 . S
Co435 N438 2.121 . S
Co435 O443 2.055 . S
Co435 O446 2.039 . S
Co435 N449 2.140 . S
C436 O437 1.227 . S
C436 O446 1.265 . S
O437 C436 1.227 . S
N438 Co435 2.121 . S
N438 C440 1.375 . S
N438 C441 1.313 . S
C439 C440 1.338 . S
C439 N442 1.377 . S
C439 H459 0.930 . S
C440 N438 1.375 . S
C440 C439 1.338 . S
C440 H444 0.931 . S
C441 N438 1.313 . S
C441 N442 1.344 . S
C441 H445 0.930 . S
N442 C439 1.377 . S
N442 C441 1.344 . S
O443 Co435 2.055 . S
O443 C447 1.253 . S
H444 C440 0.931 . S
H445 C441 0.930 . S
O446 Co435 2.039 . S
O446 C436 1.265 . S
C447 O443 1.253 . S
C447 O448 1.227 . S
O448 C447 1.227 . S
N449 Co435 2.140 . S
N449 C452 1.346 . S
N449 C453 1.345 . S
C450 C451 1.387 . S
C450 C454 1.391 . S
C451 C450 1.387 . S
C451 C452 1.369 1_554 S
C451 H460 0.929 . S
C452 N449 1.346 . S
C452 C451 1.369 1_556 S
C452 H455 0.928 . S
C453 N449 1.345 . S
C453 C454 1.371 1_556 S
C453 H456 0.931 . S
C454 C450 1.391 . S
C454 C453 1.371 1_554 S
C454 H461 0.930 . S
H455 C452 0.928 . S
H456 C453 0.931 . S
H457 C433 0.930 . S
H458 C430 0.930 . S
H459 C439 0.930 . S
H460 C451 0.929 . S
H461 C454 0.930 . S
C462 C463 1.351 . S
C462 N465 1.368 . S
C462 H467 0.931 . S
C463 C462 1.351 . S
C463 N464 1.373 . S
C463 H491 0.930 . S
N464 C463 1.373 . S
N464 C466 1.340 . S
N465 C462 1.368 . S
N465 C466 1.321 . S
N465 Co468 2.135 . S
C466 N464 1.340 . S
C466 N465 1.321 . S
C466 H490 0.930 . S
H467 C462 0.931 . S
Co468 N465 2.135 . S
Co468 N471 2.121 . S
Co468 O476 2.055 . S
Co468 O479 2.039 . S
Co468 N482 2.140 . S
C469 O470 1.227 . S
C469 O479 1.265 . S
O470 C469 1.227 . S
N471 Co468 2.121 . S
N471 C473 1.375 . S
N471 C474 1.313 . S
C472 C473 1.338 . S
C472 N475 1.377 . S
C472 H492 0.930 . S
C473 N471 1.375 . S
C473 C472 1.338 . S
C473 H477 0.931 . S
C474 N471 1.313 . S
C474 N475 1.344 . S
C474 H478 0.930 . S
N475 C472 1.377 . S
N475 C474 1.344 . S
O476 Co468 2.055 . S
O476 C480 1.253 . S
H477 C473 0.931 . S
H478 C474 0.930 . S
O479 Co468 2.039 . S
O479 C469 1.265 . S
C480 O476 1.253 . S
C480 O481 1.227 . S
O481 C480 1.227 . S
N482 Co468 2.140 . S
N482 C485 1.346 . S
N482 C486 1.345 . S
C483 C484 1.387 . S
C483 C487 1.391 . S
C484 C483 1.387 . S
C484 C485 1.369 . S
C484 H493 0.929 . S
C485 N482 1.346 . S
C485 C484 1.369 . S
C485 H488 0.928 . S
C486 N482 1.345 . S
C486 C487 1.371 . S
C486 H489 0.931 . S
C487 C483 1.391 . S
C487 C486 1.371 . S
C487 H494 0.930 . S
H488 C485 0.928 . S
H489 C486 0.931 . S
H490 C466 0.930 . S
H491 C463 0.930 . S
H492 C472 0.930 . S
H493 C484 0.929 . S
H494 C487 0.930 . S
C495 C496 1.351 . S
C495 N498 1.368 . S
C495 H500 0.931 . S
C496 C495 1.351 . S
C496 N497 1.373 . S
C496 H524 0.930 . S
N497 C496 1.373 . S
N497 C499 1.340 . S
N498 C495 1.368 . S
N498 C499 1.321 . S
N498 Co501 2.135 . S
C499 N497 1.340 . S
C499 N498 1.321 . S
C499 H523 0.930 . S
H500 C495 0.931 . S
Co501 N498 2.135 . S
Co501 N504 2.121 . S
Co501 O509 2.055 . S
Co501 O512 2.039 . S
Co501 N515 2.140 . S
C502 O503 1.227 . S
C502 O512 1.265 . S
O503 C502 1.227 . S
N504 Co501 2.121 . S
N504 C506 1.375 . S
N504 C507 1.313 . S
C505 C506 1.338 . S
C505 N508 1.377 . S
C505 H525 0.930 . S
C506 N504 1.375 . S
C506 C505 1.338 . S
C506 H510 0.931 . S
C507 N504 1.313 . S
C507 N508 1.344 . S
C507 H511 0.930 . S
N508 C505 1.377 . S
N508 C507 1.344 . S
O509 Co501 2.055 . S
O509 C513 1.253 . S
H510 C506 0.931 . S
H511 C507 0.930 . S
O512 Co501 2.039 . S
O512 C502 1.265 . S
C513 O509 1.253 . S
C513 O514 1.227 . S
O514 C513 1.227 . S
N515 Co501 2.140 . S
N515 C518 1.346 . S
N515 C519 1.345 . S
C516 C517 1.387 . S
C516 C520 1.391 . S
C517 C516 1.387 . S
C517 C518 1.369 1_556 S
C517 H526 0.929 . S
C518 N515 1.346 . S
C518 C517 1.369 1_554 S
C518 H521 0.928 . S
C519 N515 1.345 . S
C519 C520 1.371 1_554 S
C519 H522 0.931 . S
C520 C516 1.391 . S
C520 C519 1.371 1_556 S
C520 H527 0.930 . S
H521 C518 0.928 . S
H522 C519 0.931 . S
H523 C499 0.930 . S
H524 C496 0.930 . S
H525 C505 0.930 . S
H526 C517 0.929 . S
H527 C520 0.930 . S
N2 N299 1.888 . S
N13 N310 1.576 . S
N277 N46 1.576 . S
N35 N266 1.888 . S
N68 N365 1.888 . S
N79 N376 1.576 . S
N112 N343 1.576 . S
N101 N332 1.888 . S
N134 N431 1.888 . S
N442 N145 1.576 . S
N409 N178 1.576 . S
N398 N167 1.888 . S
N497 N200 1.888 . S
N508 N211 1.576 . S
N475 N244 1.576 . S
N233 N464 1.888 . S
C21 C54 1.012 . S
C120 C87 1.012 . S
C186 C153 1.012 . S
C252 C219 1.012 . S
C318 C285 1.012 . S
C351 C384 1.012 . S
C450 C417 1.012 . S
C483 C516 1.012 . S
C469 C7 2.596 . S
C84 C18 2.717 1_645 S
C381 C51 2.717 1_545 S
C238 C40 2.596 1_655 S
C73 C403 2.596 . S
C315 C117 2.717 1_565 S
C106 C172 2.596 1_655 S
C337 C139 2.596 1_554 S
C150 C216 2.717 1_456 S
C183 C513 2.717 . S
C205 C271 2.596 1_554 S
C249 C447 2.717 . S
C348 C282 2.717 1_544 S
C502 C304 2.596 . S
C370 C436 2.596 . S
C414 C480 2.717 . S
