# Generated by pormake.
# Topology dei, (4)-cn, num edge types: 1
# Building blocks:
#     Node 0, Type 0, BuildingBlock: NAHDIM_clean_sbu_0, # of connection points: 4
#     Node 1, Type 0, BuildingBlock: NAHDIM_clean_sbu_0, # of connection points: 4
#     Node 2, Type 0, BuildingBlock: NAHDIM_clean_sbu_0, # of connection points: 4
#     Node 3, Type 0, BuildingBlock: NAHDIM_clean_sbu_0, # of connection points: 4
#     Node 4, Type 0, BuildingBlock: NAHDIM_clean_sbu_0, # of connection points: 4
#     Node 5, Type 0, BuildingBlock: NAHDIM_clean_sbu_0, # of connection points: 4
#     Node 6, Type 0, BuildingBlock: NAHDIM_clean_sbu_0, # of connection points: 4
#     Node 7, Type 0, BuildingBlock: NAHDIM_clean_sbu_0, # of connection points: 4
#     Node 8, Type 0, BuildingBlock: NAHDIM_clean_sbu_0, # of connection points: 4
#     Node 9, Type 0, BuildingBlock: NAHDIM_clean_sbu_0, # of connection points: 4
#     Node 10, Type 0, BuildingBlock: NAHDIM_clean_sbu_0, # of connection points: 4
#     Node 11, Type 0, BuildingBlock: NAHDIM_clean_sbu_0, # of connection points: 4
#     Node 12, Type 0, BuildingBlock: NAHDIM_clean_sbu_0, # of connection points: 4
#     Node 13, Type 0, BuildingBlock: NAHDIM_clean_sbu_0, # of connection points: 4
#     Node 14, Type 0, BuildingBlock: NAHDIM_clean_sbu_0, # of connection points: 4
#     Node 15, Type 0, BuildingBlock: NAHDIM_clean_sbu_0, # of connection points: 4
#     Node 16, Type 0, BuildingBlock: NAHDIM_clean_sbu_0, # of connection points: 4
#     Node 17, Type 0, BuildingBlock: NAHDIM_clean_sbu_0, # of connection points: 4
#     Node 18, Type 0, BuildingBlock: NAHDIM_clean_sbu_0, # of connection points: 4
#     Node 19, Type 0, BuildingBlock: NAHDIM_clean_sbu_0, # of connection points: 4
#     Node 20, Type 0, BuildingBlock: NAHDIM_clean_sbu_0, # of connection points: 4
#     Node 21, Type 0, BuildingBlock: NAHDIM_clean_sbu_0, # of connection points: 4
#     Node 22, Type 0, BuildingBlock: NAHDIM_clean_sbu_0, # of connection points: 4
#     Node 23, Type 0, BuildingBlock: NAHDIM_clean_sbu_0, # of connection points: 4
#     Node 24, Type 0, BuildingBlock: NAHDIM_clean_sbu_0, # of connection points: 4
#     Node 25, Type 0, BuildingBlock: NAHDIM_clean_sbu_0, # of connection points: 4
#     Node 26, Type 0, BuildingBlock: NAHDIM_clean_sbu_0, # of connection points: 4
#     Node 27, Type 0, BuildingBlock: NAHDIM_clean_sbu_0, # of connection points: 4
#     Node 28, Type 0, BuildingBlock: NAHDIM_clean_sbu_0, # of connection points: 4
#     Node 29, Type 0, BuildingBlock: NAHDIM_clean_sbu_0, # of connection points: 4
#     Node 30, Type 0, BuildingBlock: NAHDIM_clean_sbu_0, # of connection points: 4
#     Node 31, Type 0, BuildingBlock: NAHDIM_clean_sbu_0, # of connection points: 4
#     Edge 32, Type (0, 0), BuildingBlock: CIFDUS_clean_linker_0, # of connection points: 2
#     Edge 33, Type (0, 0), BuildingBlock: CIFDUS_clean_linker_0, # of connection points: 2
#     Edge 34, Type (0, 0), BuildingBlock: CIFDUS_clean_linker_0, # of connection points: 2
#     Edge 35, Type (0, 0), BuildingBlock: CIFDUS_clean_linker_0, # of connection points: 2
#     Edge 36, Type (0, 0), BuildingBlock: CIFDUS_clean_linker_0, # of connection points: 2
#     Edge 37, Type (0, 0), BuildingBlock: CIFDUS_clean_linker_0, # of connection points: 2
#     Edge 38, Type (0, 0), BuildingBlock: CIFDUS_clean_linker_0, # of connection points: 2
#     Edge 39, Type (0, 0), BuildingBlock: CIFDUS_clean_linker_0, # of connection points: 2
#     Edge 40, Type (0, 0), BuildingBlock: CIFDUS_clean_linker_0, # of connection points: 2
#     Edge 41, Type (0, 0), BuildingBlock: CIFDUS_clean_linker_0, # of connection points: 2
#     Edge 42, Type (0, 0), BuildingBlock: CIFDUS_clean_linker_0, # of connection points: 2
#     Edge 43, Type (0, 0), BuildingBlock: CIFDUS_clean_linker_0, # of connection points: 2
#     Edge 44, Type (0, 0), BuildingBlock: CIFDUS_clean_linker_0, # of connection points: 2
#     Edge 45, Type (0, 0), BuildingBlock: CIFDUS_clean_linker_0, # of connection points: 2
#     Edge 46, Type (0, 0), BuildingBlock: CIFDUS_clean_linker_0, # of connection points: 2
#     Edge 47, Type (0, 0), BuildingBlock: CIFDUS_clean_linker_0, # of connection points: 2
#     Edge 48, Type (0, 0), BuildingBlock: CIFDUS_clean_linker_0, # of connection points: 2
#     Edge 49, Type (0, 0), BuildingBlock: CIFDUS_clean_linker_0, # of connection points: 2
#     Edge 50, Type (0, 0), BuildingBlock: CIFDUS_clean_linker_0, # of connection points: 2
#     Edge 51, Type (0, 0), BuildingBlock: CIFDUS_clean_linker_0, # of connection points: 2
#     Edge 52, Type (0, 0), BuildingBlock: CIFDUS_clean_linker_0, # of connection points: 2
#     Edge 53, Type (0, 0), BuildingBlock: CIFDUS_clean_linker_0, # of connection points: 2
#     Edge 54, Type (0, 0), BuildingBlock: CIFDUS_clean_linker_0, # of connection points: 2
#     Edge 55, Type (0, 0), BuildingBlock: CIFDUS_clean_linker_0, # of connection points: 2
#     Edge 56, Type (0, 0), BuildingBlock: CIFDUS_clean_linker_0, # of connection points: 2
#     Edge 57, Type (0, 0), BuildingBlock: CIFDUS_clean_linker_0, # of connection points: 2
#     Edge 58, Type (0, 0), BuildingBlock: CIFDUS_clean_linker_0, # of connection points: 2
#     Edge 59, Type (0, 0), BuildingBlock: CIFDUS_clean_linker_0, # of connection points: 2
#     Edge 60, Type (0, 0), BuildingBlock: CIFDUS_clean_linker_0, # of connection points: 2
#     Edge 61, Type (0, 0), BuildingBlock: CIFDUS_clean_linker_0, # of connection points: 2
#     Edge 62, Type (0, 0), BuildingBlock: CIFDUS_clean_linker_0, # of connection points: 2
#     Edge 63, Type (0, 0), BuildingBlock: CIFDUS_clean_linker_0, # of connection points: 2
#     Edge 64, Type (0, 0), BuildingBlock: CIFDUS_clean_linker_0, # of connection points: 2
#     Edge 65, Type (0, 0), BuildingBlock: CIFDUS_clean_linker_0, # of connection points: 2
#     Edge 66, Type (0, 0), BuildingBlock: CIFDUS_clean_linker_0, # of connection points: 2
#     Edge 67, Type (0, 0), BuildingBlock: CIFDUS_clean_linker_0, # of connection points: 2
#     Edge 68, Type (0, 0), BuildingBlock: CIFDUS_clean_linker_0, # of connection points: 2
#     Edge 69, Type (0, 0), BuildingBlock: CIFDUS_clean_linker_0, # of connection points: 2
#     Edge 70, Type (0, 0), BuildingBlock: CIFDUS_clean_linker_0, # of connection points: 2
#     Edge 71, Type (0, 0), BuildingBlock: CIFDUS_clean_linker_0, # of connection points: 2
#     Edge 72, Type (0, 0), BuildingBlock: CIFDUS_clean_linker_0, # of connection points: 2
#     Edge 73, Type (0, 0), BuildingBlock: CIFDUS_clean_linker_0, # of connection points: 2
#     Edge 74, Type (0, 0), BuildingBlock: CIFDUS_clean_linker_0, # of connection points: 2
#     Edge 75, Type (0, 0), BuildingBlock: CIFDUS_clean_linker_0, # of connection points: 2
#     Edge 76, Type (0, 0), BuildingBlock: CIFDUS_clean_linker_0, # of connection points: 2
#     Edge 77, Type (0, 0), BuildingBlock: CIFDUS_clean_linker_0, # of connection points: 2
#     Edge 78, Type (0, 0), BuildingBlock: CIFDUS_clean_linker_0, # of connection points: 2
#     Edge 79, Type (0, 0), BuildingBlock: CIFDUS_clean_linker_0, # of connection points: 2
#     Edge 80, Type (0, 0), BuildingBlock: CIFDUS_clean_linker_0, # of connection points: 2
#     Edge 81, Type (0, 0), BuildingBlock: CIFDUS_clean_linker_0, # of connection points: 2
#     Edge 82, Type (0, 0), BuildingBlock: CIFDUS_clean_linker_0, # of connection points: 2
#     Edge 83, Type (0, 0), BuildingBlock: CIFDUS_clean_linker_0, # of connection points: 2
#     Edge 84, Type (0, 0), BuildingBlock: CIFDUS_clean_linker_0, # of connection points: 2
#     Edge 85, Type (0, 0), BuildingBlock: CIFDUS_clean_linker_0, # of connection points: 2
#     Edge 86, Type (0, 0), BuildingBlock: CIFDUS_clean_linker_0, # of connection points: 2
#     Edge 87, Type (0, 0), BuildingBlock: CIFDUS_clean_linker_0, # of connection points: 2
#     Edge 88, Type (0, 0), BuildingBlock: CIFDUS_clean_linker_0, # of connection points: 2
#     Edge 89, Type (0, 0), BuildingBlock: CIFDUS_clean_linker_0, # of connection points: 2
#     Edge 90, Type (0, 0), BuildingBlock: CIFDUS_clean_linker_0, # of connection points: 2
#     Edge 91, Type (0, 0), BuildingBlock: CIFDUS_clean_linker_0, # of connection points: 2
#     Edge 92, Type (0, 0), BuildingBlock: CIFDUS_clean_linker_0, # of connection points: 2
#     Edge 93, Type (0, 0), BuildingBlock: CIFDUS_clean_linker_0, # of connection points: 2
#     Edge 94, Type (0, 0), BuildingBlock: CIFDUS_clean_linker_0, # of connection points: 2
#     Edge 95, Type (0, 0), BuildingBlock: CIFDUS_clean_linker_0, # of connection points: 2
# Relax obj value: 0.224
# Max RMSD: 0.092
# Mean RMSD: 0.092
data_MOF--net-dei--node1-NAHDIM_clean_sbu_0--edge1-CIFDUS_clean_linker_0
_symmetry_space_group_name_H-M    P1
_symmetry_Int_Tables_number       1
_symmetry_cell_setting            triclinic
loop_
_symmetry_equiv_pos_as_xyz
'x, y, z'
_cell_length_a     46.734196
_cell_length_b     46.71724
_cell_length_c     82.16346
_cell_angle_alpha  89.998201
_cell_angle_beta   90.005811
_cell_angle_gamma 89.968384
loop_
_atom_site_label
_atom_site_type_symbol
_atom_site_fract_x
_atom_site_fract_y
_atom_site_fract_z
_atom_type_partial_charge
C0 C 0.16917 0.55567 0.03152 0.0
O1 O 0.16568 0.5462 0.04643 0.0
O2 O 0.16113 0.60131 0.06799 0.0
Zn3 Zn 0.14803 0.60906 0.04499 0.0
O4 O 0.10511 0.60579 0.0443 0.0
C5 C 0.17644 0.66435 0.04595 0.0
O6 O 0.19205 0.65254 0.05743 0.0
O7 O 0.16425 0.58185 0.02844 0.0
C8 C 0.09015 0.6229 0.0528 0.0
O9 O 0.10319 0.64205 0.06186 0.0
C10 C 0.14756 0.58371 0.0769 0.0
O11 O 0.12622 0.56918 0.07058 0.0
O12 O 0.15741 0.64951 0.03884 0.0
C13 C 0.70237 0.89809 0.29118 0.0
O14 O 0.70624 0.89212 0.30664 0.0
O15 O 0.64771 0.89301 0.32253 0.0
Zn16 Zn 0.64377 0.88296 0.2987 0.0
O17 O 0.64069 0.84005 0.29706 0.0
C18 C 0.59521 0.92149 0.29613 0.0
O19 O 0.60952 0.9366 0.30689 0.0
O20 O 0.6773 0.89653 0.28522 0.0
C21 C 0.61951 0.82841 0.30415 0.0
O22 O 0.60114 0.84478 0.31191 0.0
C23 C 0.66025 0.87606 0.33232 0.0
O24 O 0.67227 0.85271 0.32659 0.0
O25 O 0.60641 0.89881 0.29044 0.0
C26 C 0.32941 0.43331 0.53268 0.0
O27 O 0.32968 0.44155 0.54796 0.0
O28 O 0.33063 0.38664 0.56862 0.0
Zn29 Zn 0.34431 0.37731 0.54598 0.0
O30 O 0.38718 0.37214 0.54696 0.0
C31 C 0.30527 0.329 0.54564 0.0
O32 O 0.29048 0.34458 0.55596 0.0
O33 O 0.33417 0.4072 0.52929 0.0
C34 C 0.40534 0.38926 0.5408 0.0
O35 O 0.39631 0.41217 0.53308 0.0
C36 C 0.34579 0.40162 0.57823 0.0
O37 O 0.36945 0.41332 0.57274 0.0
O38 O 0.32806 0.3392 0.53951 0.0
C39 C 0.81127 0.08828 0.78723 0.0
O40 O 0.80586 0.09192 0.80278 0.0
O41 O 0.86195 0.09775 0.81972 0.0
Zn42 Zn 0.8661 0.11098 0.79651 0.0
O43 O 0.86226 0.15388 0.79543 0.0
C44 C 0.91708 0.07699 0.79349 0.0
O45 O 0.90187 0.05862 0.80196 0.0
O46 O 0.83616 0.09386 0.78188 0.0
C47 C 0.87998 0.17002 0.80274 0.0
O48 O 0.90081 0.15832 0.81118 0.0
C49 C 0.8477 0.11141 0.83036 0.0
O50 O 0.83383 0.13468 0.82607 0.0
O51 O 0.90568 0.10048 0.78914 0.0
C52 C 0.15618 0.4307 0.96691 0.0
O53 O 0.15767 0.4402 0.95189 0.0
O54 O 0.1477 0.38808 0.93018 0.0
Zn55 Zn 0.12954 0.381 0.952 0.0
O56 O 0.08699 0.38706 0.95016 0.0
C57 C 0.15863 0.32681 0.95368 0.0
O58 O 0.17898 0.34102 0.94616 0.0
O59 O 0.1456 0.40612 0.96959 0.0
C60 C 0.07138 0.3897 0.96274 0.0
O61 O 0.08345 0.38917 0.97718 0.0
C62 C 0.1374 0.40568 0.91995 0.0
O63 O 0.11516 0.42129 0.92408 0.0
O64 O 0.13587 0.33983 0.95777 0.0
C65 C 0.81789 0.90744 0.22033 0.0
O66 O 0.81441 0.91348 0.20485 0.0
O67 O 0.86431 0.89427 0.18629 0.0
Zn68 Zn 0.87134 0.88144 0.20939 0.0
O69 O 0.87115 0.83837 0.20922 0.0
C70 C 0.92408 0.91448 0.21018 0.0
O71 O 0.91067 0.93087 0.19966 0.0
O72 O 0.84075 0.89506 0.22493 0.0
C73 C 0.8887 0.82581 0.1998 0.0
O74 O 0.90609 0.84137 0.19088 0.0
C75 C 0.84641 0.88085 0.17749 0.0
O76 O 0.83143 0.85999 0.184 0.0
O77 O 0.91091 0.89334 0.2164 0.0
C78 C 0.34384 0.56492 0.47197 0.0
O79 O 0.34688 0.55617 0.45687 0.0
O80 O 0.35569 0.60954 0.43619 0.0
Zn81 Zn 0.36742 0.61794 0.45935 0.0
O82 O 0.41031 0.61557 0.46105 0.0
C83 C 0.33282 0.66919 0.45958 0.0
O84 O 0.31512 0.65326 0.45108 0.0
O85 O 0.35032 0.59055 0.47557 0.0
C86 C 0.4226 0.6217 0.4744 0.0
O87 O 0.40689 0.62926 0.48694 0.0
C88 C 0.37 0.59248 0.42729 0.0
O89 O 0.39197 0.57889 0.43361 0.0
O90 O 0.35604 0.65828 0.46472 0.0
C91 C 0.70094 0.0875 0.71407 0.0
O92 O 0.70518 0.08576 0.6983 0.0
O93 O 0.65357 0.1068 0.68119 0.0
Zn94 Zn 0.64542 0.11166 0.70517 0.0
O95 O 0.6411 0.15412 0.70852 0.0
C96 C 0.59107 0.08223 0.70154 0.0
O97 O 0.59984 0.0782 0.68652 0.0
O98 O 0.67726 0.09709 0.71938 0.0
C99 C 0.61998 0.16604 0.70149 0.0
O100 O 0.60187 0.15005 0.69331 0.0
C101 C 0.66954 0.1256 0.67464 0.0
O102 O 0.68179 0.14491 0.68395 0.0
O103 O 0.60769 0.09437 0.71163 0.0
C104 C 0.83035 0.44727 0.96721 0.0
O105 O 0.84132 0.45754 0.95371 0.0
O106 O 0.83765 0.40569 0.92939 0.0
Zn107 Zn 0.84612 0.39382 0.95247 0.0
O108 O 0.88904 0.39321 0.95551 0.0
C109 C 0.83915 0.33739 0.96659 0.0
O110 O 0.85751 0.34694 0.97741 0.0
O111 O 0.82881 0.42033 0.96905 0.0
C112 C 0.90097 0.3992 0.969 0.0
O113 O 0.88495 0.40566 0.98162 0.0
C114 C 0.85509 0.42091 0.92126 0.0
O115 O 0.87807 0.43096 0.92848 0.0
O116 O 0.83086 0.35393 0.95526 0.0
C117 C 0.31398 0.07684 0.70636 0.0
O118 O 0.30337 0.08103 0.69175 0.0
O119 O 0.35043 0.09189 0.6688 0.0
Zn120 Zn 0.36515 0.09913 0.69143 0.0
O121 O 0.36638 0.14164 0.69549 0.0
C122 C 0.42174 0.08559 0.70419 0.0
O123 O 0.41232 0.0975 0.71765 0.0
O124 O 0.34038 0.08166 0.70881 0.0
C125 C 0.38173 0.15823 0.6869 0.0
O126 O 0.39741 0.14731 0.67516 0.0
C127 C 0.33402 0.10909 0.66128 0.0
O128 O 0.32428 0.13184 0.66888 0.0
O129 O 0.40509 0.08356 0.69204 0.0
C130 C 0.67415 0.55774 0.46197 0.0
O131 O 0.6732 0.55426 0.44613 0.0
O132 O 0.66391 0.61 0.43042 0.0
Zn133 Zn 0.6508 0.61316 0.45374 0.0
O134 O 0.60787 0.60971 0.45375 0.0
C135 C 0.68191 0.66643 0.4566 0.0
O136 O 0.70019 0.65327 0.44702 0.0
O137 O 0.66694 0.58177 0.468 0.0
C138 C 0.59291 0.61573 0.4662 0.0
O139 O 0.60582 0.62406 0.47959 0.0
C140 C 0.64963 0.59519 0.4203 0.0
O141 O 0.62734 0.58066 0.42547 0.0
O142 O 0.6602 0.6528 0.46177 0.0
C143 C 0.17391 0.92321 0.22566 0.0
O144 O 0.14872 0.93206 0.23067 0.0
O145 O 0.14937 0.91037 0.17551 0.0
Zn146 Zn 0.14311 0.89642 0.19832 0.0
O147 O 0.14326 0.85342 0.19725 0.0
C148 C 0.0921 0.93141 0.20078 0.0
O149 O 0.10619 0.94808 0.19071 0.0
O150 O 0.17573 0.90878 0.2126 0.0
C151 C 0.1358 0.83805 0.20928 0.0
O152 O 0.12787 0.85057 0.22287 0.0
C153 C 0.17149 0.90214 0.16783 0.0
O154 O 0.19035 0.88604 0.17539 0.0
O155 O 0.10427 0.90905 0.20625 0.0
C156 C 0.8374 0.56449 0.03677 0.0
O157 O 0.83203 0.55365 0.0512 0.0
O158 O 0.85697 0.5914 0.07633 0.0
Zn159 Zn 0.86458 0.6107 0.05493 0.0
O160 O 0.90729 0.61479 0.053 0.0
C161 C 0.85126 0.66801 0.04427 0.0
O162 O 0.86614 0.66037 0.03142 0.0
O163 O 0.85019 0.5884 0.03572 0.0
C164 C 0.92023 0.63199 0.06245 0.0
O165 O 0.90522 0.647 0.07295 0.0
C166 C 0.83477 0.59725 0.08461 0.0
O167 O 0.81523 0.61418 0.07831 0.0
O168 O 0.84721 0.64995 0.05557 0.0
C169 C 0.19133 0.08758 0.77231 0.0
O170 O 0.20152 0.08812 0.78721 0.0
O171 O 0.14939 0.10148 0.80929 0.0
Zn172 Zn 0.14182 0.11605 0.7866 0.0
O173 O 0.14847 0.15861 0.78619 0.0
C174 C 0.08617 0.08843 0.78586 0.0
O175 O 0.09924 0.06801 0.79396 0.0
O176 O 0.16646 0.09745 0.76958 0.0
C177 C 0.13244 0.17414 0.79503 0.0
O178 O 0.11291 0.16173 0.80413 0.0
C179 C 0.16828 0.11308 0.81826 0.0
O180 O 0.18432 0.13353 0.81216 0.0
O181 O 0.10035 0.11014 0.78124 0.0
C182 C 0.66742 0.43977 0.5311 0.0
O183 O 0.66615 0.4433 0.54693 0.0
O184 O 0.64639 0.3902 0.56231 0.0
Zn185 Zn 0.63657 0.38744 0.53842 0.0
O186 O 0.59447 0.39533 0.53577 0.0
C187 C 0.66424 0.3317 0.53567 0.0
O188 O 0.68346 0.34309 0.54537 0.0
O189 O 0.65768 0.4168 0.5249 0.0
C190 C 0.57609 0.37888 0.54226 0.0
O191 O 0.58498 0.35669 0.55069 0.0
C192 C 0.633 0.40746 0.57155 0.0
O193 O 0.61336 0.42427 0.56525 0.0
O194 O 0.64349 0.34703 0.53074 0.0
C195 C 0.32208 0.91591 0.27323 0.0
O196 O 0.32035 0.92732 0.2878 0.0
O197 O 0.36646 0.90521 0.30827 0.0
Zn198 Zn 0.37251 0.88702 0.28635 0.0
O199 O 0.36855 0.84454 0.28974 0.0
C200 C 0.42706 0.91602 0.28394 0.0
O201 O 0.41419 0.93517 0.29309 0.0
O202 O 0.34295 0.89943 0.26988 0.0
C203 C 0.36738 0.82681 0.27804 0.0
O204 O 0.36886 0.83633 0.26302 0.0
C205 C 0.34702 0.89549 0.31756 0.0
O206 O 0.33007 0.8752 0.31212 0.0
O207 O 0.41293 0.89449 0.27894 0.0
C208 C 0.63186 0.05743 0.53651 0.0
O209 O 0.61985 0.05556 0.55094 0.0
O210 O 0.64326 0.10695 0.5686 0.0
Zn211 Zn 0.62934 0.11522 0.54586 0.0
O212 O 0.5865 0.11922 0.54746 0.0
C213 C 0.67004 0.16211 0.54026 0.0
O214 O 0.68864 0.14534 0.54754 0.0
O215 O 0.63899 0.08198 0.53122 0.0
C216 C 0.56899 0.1097 0.53693 0.0
O217 O 0.57883 0.09647 0.52398 0.0
C218 C 0.64671 0.1271 0.5788 0.0
O219 O 0.64226 0.15365 0.57419 0.0
O220 O 0.64479 0.15298 0.53774 0.0
C221 C 0.1942 0.41102 0.77878 0.0
O222 O 0.20056 0.39959 0.79292 0.0
O223 O 0.14194 0.41576 0.81319 0.0
Zn224 Zn 0.13766 0.40017 0.79039 0.0
O225 O 0.13951 0.35713 0.79146 0.0
C226 C 0.08362 0.43031 0.78803 0.0
O227 O 0.09551 0.44766 0.79864 0.0
O228 O 0.16805 0.41449 0.77504 0.0
C229 C 0.12074 0.34452 0.80006 0.0
O230 O 0.10162 0.36003 0.80781 0.0
C231 C 0.15581 0.4022 0.82405 0.0
O232 O 0.16938 0.37861 0.82002 0.0
O233 O 0.09822 0.40971 0.78227 0.0
C234 C 0.83488 0.94831 0.04258 0.0
O235 O 0.83608 0.95304 0.05831 0.0
O236 O 0.85418 0.89849 0.07453 0.0
Zn237 Zn 0.8631 0.8945 0.05061 0.0
O238 O 0.9057 0.89793 0.04777 0.0
C239 C 0.83953 0.83697 0.05127 0.0
O240 O 0.83018 0.84455 0.06572 0.0
O241 O 0.84414 0.92473 0.03694 0.0
C242 C 0.92155 0.87971 0.05489 0.0
O243 O 0.90954 0.85979 0.06388 0.0
C244 C 0.86899 0.91507 0.08345 0.0
O245 O 0.88905 0.9308 0.0767 0.0
O246 O 0.85276 0.85517 0.0426 0.0
C247 C 0.30316 0.58762 0.28742 0.0
O248 O 0.29323 0.60065 0.30042 0.0
O249 O 0.35014 0.59653 0.3244 0.0
Zn250 Zn 0.3577 0.60453 0.30068 0.0
O251 O 0.3566 0.647 0.29656 0.0
C252 C 0.40746 0.56786 0.30077 0.0
O253 O 0.39139 0.5513 0.3099 0.0
O254 O 0.33002 0.5855 0.28551 0.0
C255 C 0.35835 0.65609 0.28201 0.0
O256 O 0.36033 0.63744 0.27009 0.0
C257 C 0.33528 0.61325 0.3332 0.0
O258 O 0.32277 0.63546 0.32643 0.0
O259 O 0.39724 0.5912 0.29537 0.0
C260 C 0.64218 0.93682 0.4681 0.0
O261 O 0.65282 0.93819 0.45333 0.0
O262 O 0.63104 0.88934 0.43414 0.0
Zn263 Zn 0.61552 0.88368 0.45678 0.0
O264 O 0.57258 0.88295 0.45496 0.0
C265 C 0.65112 0.83321 0.46078 0.0
O266 O 0.6689 0.84746 0.45142 0.0
O267 O 0.62681 0.91548 0.47209 0.0
C268 C 0.56135 0.864 0.44589 0.0
O269 O 0.57811 0.8458 0.43828 0.0
C270 C 0.61971 0.90758 0.42464 0.0
O271 O 0.599 0.92396 0.43014 0.0
O272 O 0.62782 0.84501 0.46511 0.0
C273 C 0.32963 0.40764 0.72031 0.0
O274 O 0.32409 0.41745 0.70566 0.0
O275 O 0.37255 0.40085 0.68369 0.0
Zn276 Zn 0.3806 0.38228 0.70533 0.0
O277 O 0.37949 0.33954 0.70208 0.0
C278 C 0.43352 0.4144 0.70727 0.0
O279 O 0.41979 0.43265 0.69794 0.0
O280 O 0.35226 0.39314 0.72271 0.0
C281 C 0.39551 0.32869 0.6912 0.0
O282 O 0.4119 0.34571 0.68253 0.0
C283 C 0.35314 0.39127 0.67434 0.0
O284 O 0.33675 0.37028 0.67946 0.0
O285 O 0.4206 0.39215 0.71229 0.0
C286 C 0.83064 0.05798 0.96952 0.0
O287 O 0.83103 0.05306 0.95379 0.0
O288 O 0.84205 0.11102 0.93749 0.0
Zn289 Zn 0.8574 0.11173 0.96043 0.0
O290 O 0.8999 0.10493 0.95948 0.0
C291 C 0.83246 0.16781 0.96447 0.0
O292 O 0.81453 0.15849 0.95336 0.0
O293 O 0.83972 0.08184 0.97486 0.0
C294 C 0.9149 0.12156 0.95071 0.0
O295 O 0.9021 0.14229 0.94271 0.0
C296 C 0.85333 0.09515 0.92668 0.0
O297 O 0.87391 0.07745 0.93089 0.0
O298 O 0.85175 0.15107 0.96977 0.0
C299 C 0.18472 0.58669 0.21855 0.0
O300 O 0.19576 0.58177 0.20411 0.0
O301 O 0.15111 0.60055 0.179 0.0
Zn302 Zn 0.13641 0.61239 0.201 0.0
O303 O 0.13537 0.65541 0.20222 0.0
C304 C 0.08674 0.57685 0.19527 0.0
O305 O 0.10375 0.56367 0.18498 0.0
O306 O 0.16028 0.59839 0.21962 0.0
C307 C 0.12778 0.66743 0.21541 0.0
O308 O 0.12049 0.65138 0.22787 0.0
C309 C 0.16893 0.61531 0.17087 0.0
O310 O 0.18031 0.63817 0.17756 0.0
O311 O 0.09631 0.59779 0.20352 0.0
C312 C 0.30438 0.94299 0.45459 0.0
O313 O 0.30744 0.94716 0.43889 0.0
O314 O 0.32209 0.8919 0.42346 0.0
Zn315 Zn 0.33166 0.88897 0.4473 0.0
O316 O 0.37425 0.89349 0.45004 0.0
C317 C 0.3014 0.83501 0.4489 0.0
O318 O 0.28432 0.84729 0.43828 0.0
O319 O 0.31204 0.9192 0.46071 0.0
C320 C 0.39073 0.87528 0.44339 0.0
O321 O 0.37943 0.85437 0.43484 0.0
C322 C 0.33693 0.90714 0.41383 0.0
O323 O 0.35804 0.92255 0.41972 0.0
O324 O 0.32194 0.84934 0.45491 0.0
C325 C 0.81551 0.56248 0.22321 0.0
O326 O 0.81019 0.55575 0.20799 0.0
O327 O 0.8502 0.58745 0.18688 0.0
Zn328 Zn 0.8616 0.5973 0.20981 0.0
O329 O 0.85811 0.64 0.21217 0.0
C330 C 0.91778 0.57213 0.20454 0.0
O331 O 0.90563 0.55964 0.19199 0.0
O332 O 0.83648 0.57875 0.22652 0.0
C333 C 0.87388 0.65553 0.2032 0.0
O334 O 0.89139 0.64307 0.19287 0.0
C335 C 0.82792 0.5989 0.18084 0.0
O336 O 0.81202 0.61543 0.1901 0.0
O337 O 0.90278 0.58782 0.21383 0.0
C338 C 0.15981 0.05324 0.95789 0.0
O339 O 0.15382 0.04236 0.94355 0.0
O340 O 0.15259 0.09741 0.92057 0.0
Zn341 Zn 0.14007 0.1065 0.94346 0.0
O342 O 0.09704 0.10578 0.94445 0.0
C343 C 0.17418 0.1586 0.94352 0.0
O344 O 0.19205 0.14384 0.93447 0.0
O345 O 0.15621 0.07986 0.96026 0.0
C346 C 0.08379 0.12391 0.93571 0.0
O347 O 0.09867 0.1413 0.92642 0.0
C348 C 0.13794 0.08089 0.91154 0.0
O349 O 0.11552 0.06785 0.91771 0.0
O350 O 0.15162 0.14665 0.94881 0.0
C351 C 0.70955 0.41033 0.70693 0.0
O352 O 0.71478 0.39777 0.69295 0.0
O353 O 0.65654 0.40033 0.67446 0.0
Zn354 Zn 0.65243 0.3942 0.69867 0.0
O355 O 0.65387 0.35198 0.70325 0.0
C356 C 0.60166 0.42963 0.69891 0.0
O357 O 0.61597 0.44469 0.68814 0.0
O358 O 0.68377 0.41283 0.71164 0.0
C359 C 0.63303 0.3362 0.69904 0.0
O360 O 0.61087 0.34795 0.69179 0.0
C361 C 0.66874 0.382 0.66535 0.0
O362 O 0.68052 0.35927 0.67195 0.0
O363 O 0.61363 0.40815 0.70552 0.0
C364 C 0.30362 0.05606 0.52568 0.0
O365 O 0.30151 0.05255 0.54149 0.0
O366 O 0.33021 0.10081 0.55798 0.0
Zn367 Zn 0.33796 0.10611 0.53407 0.0
O368 O 0.38015 0.10054 0.53024 0.0
C369 C 0.30882 0.16068 0.53464 0.0
O370 O 0.29238 0.14787 0.54537 0.0
O371 O 0.31684 0.07774 0.52013 0.0
C372 C 0.39807 0.11422 0.53889 0.0
O373 O 0.38855 0.1317 0.55019 0.0
C374 C 0.3428 0.08121 0.56597 0.0
O375 O 0.35981 0.06341 0.55823 0.0
O376 O 0.32872 0.14656 0.52782 0.0
C377 C 0.68102 0.56846 0.28035 0.0
O378 O 0.68773 0.57053 0.29582 0.0
O379 O 0.6347 0.58638 0.31376 0.0
Zn380 Zn 0.63039 0.59898 0.29046 0.0
O381 O 0.63762 0.64141 0.28919 0.0
C382 C 0.57567 0.57114 0.28924 0.0
O383 O 0.58863 0.5523 0.29856 0.0
O384 O 0.65724 0.5784 0.27545 0.0
C385 C 0.62038 0.65785 0.29667 0.0
O386 O 0.59898 0.64646 0.30476 0.0
C387 C 0.65154 0.59896 0.32356 0.0
O388 O 0.66785 0.6198 0.31815 0.0
O389 O 0.58978 0.59229 0.28379 0.0
C390 C 0.168 0.93372 0.02628 0.0
O391 O 0.1721 0.94467 0.04082 0.0
O392 O 0.15948 0.89941 0.06564 0.0
Zn393 Zn 0.1466 0.88406 0.04397 0.0
O394 O 0.10363 0.88203 0.04457 0.0
C395 C 0.18214 0.83398 0.04931 0.0
O396 O 0.19592 0.8508 0.05944 0.0
O397 O 0.15827 0.90844 0.025 0.0
C398 C 0.09187 0.86496 0.05458 0.0
O399 O 0.10816 0.84888 0.06388 0.0
C400 C 0.1444 0.91781 0.07315 0.0
O401 O 0.12188 0.92875 0.06587 0.0
O402 O 0.16126 0.84398 0.04118 0.0
C403 C 0.81507 0.42336 0.78208 0.0
O404 O 0.81089 0.43317 0.79687 0.0
O405 O 0.85581 0.40866 0.81845 0.0
Zn406 Zn 0.86584 0.39565 0.79583 0.0
O407 O 0.86803 0.35258 0.79627 0.0
C408 C 0.91475 0.43363 0.79576 0.0
O409 O 0.89848 0.44941 0.80523 0.0
O410 O 0.83681 0.40784 0.77916 0.0
C411 C 0.88656 0.341 0.80549 0.0
O412 O 0.90348 0.35751 0.81415 0.0
C413 C 0.83585 0.39649 0.82634 0.0
O414 O 0.82059 0.37657 0.81914 0.0
O415 O 0.90485 0.41043 0.79 0.0
H416 H 0.14456 0.57282 0.15308 0.0
H417 H 0.20212 0.64475 0.14913 0.0
H418 H 0.20293 0.63937 0.11956 0.0
H419 H 0.18325 0.6175 0.09476 0.0
H420 H 0.1242 0.5468 0.09889 0.0
H421 H 0.12824 0.54837 0.12846 0.0
C422 C 0.15762 0.58711 0.1458 0.0
C423 C 0.17298 0.60937 0.15332 0.0
C424 C 0.15754 0.58427 0.1288 0.0
C425 C 0.18993 0.62754 0.14367 0.0
C426 C 0.19033 0.62454 0.12674 0.0
C427 C 0.17158 0.60215 0.10211 0.0
C428 C 0.1532 0.58227 0.09461 0.0
C429 C 0.17359 0.60349 0.11915 0.0
C430 C 0.13831 0.5625 0.10433 0.0
C431 C 0.14057 0.56339 0.12126 0.0
H432 H 0.65721 0.87271 0.40891 0.0
H433 H 0.5998 0.94385 0.40113 0.0
H434 H 0.60907 0.94181 0.37192 0.0
H435 H 0.63061 0.91754 0.34841 0.0
H436 H 0.68685 0.84547 0.35621 0.0
H437 H 0.68102 0.85035 0.38558 0.0
C438 C 0.64694 0.88798 0.40086 0.0
C439 C 0.62767 0.90825 0.40721 0.0
C440 C 0.65203 0.88644 0.38405 0.0
C441 C 0.61462 0.92791 0.39658 0.0
C442 C 0.61987 0.92675 0.37985 0.0
C443 C 0.64186 0.90309 0.35653 0.0
C444 C 0.65897 0.88104 0.3501 0.0
C445 C 0.6381 0.90574 0.37342 0.0
C446 C 0.6734 0.86253 0.36082 0.0
C447 C 0.67006 0.86528 0.37763 0.0
H448 H 0.31523 0.37453 0.65109 0.0
H449 H 0.38814 0.42954 0.659 0.0
H450 H 0.3903 0.44009 0.62996 0.0
H451 H 0.3748 0.42963 0.60207 0.0
H452 H 0.30249 0.37387 0.59409 0.0
H453 H 0.29661 0.36805 0.6234 0.0
C454 C 0.33137 0.38912 0.6465 0.0
C455 C 0.35173 0.40088 0.65719 0.0
C456 C 0.33273 0.39485 0.62974 0.0
C457 C 0.37231 0.41999 0.65104 0.0
C458 C 0.37363 0.42599 0.63441 0.0
C459 C 0.35749 0.41652 0.60673 0.0
C460 C 0.33939 0.40189 0.59588 0.0
C461 C 0.35446 0.41291 0.6236 0.0
C462 C 0.31689 0.38522 0.60215 0.0
C463 C 0.31356 0.38178 0.61893 0.0
H464 H 0.87377 0.06526 0.90083 0.0
H465 H 0.81613 0.13398 0.91353 0.0
H466 H 0.80789 0.14392 0.88475 0.0
H467 H 0.8198 0.1354 0.85604 0.0
H468 H 0.87792 0.067 0.84345 0.0
H469 H 0.88305 0.0546 0.87213 0.0
C470 C 0.85918 0.08224 0.89732 0.0
C471 C 0.84581 0.09899 0.90933 0.0
C472 C 0.85475 0.08804 0.88076 0.0
C473 C 0.82681 0.12079 0.90455 0.0
C474 C 0.82214 0.12656 0.88808 0.0
C475 C 0.83341 0.11763 0.85955 0.0
C476 C 0.84865 0.10236 0.84761 0.0
C477 C 0.83644 0.1107 0.87609 0.0
C478 C 0.86603 0.07924 0.85238 0.0
C479 C 0.86904 0.07214 0.86879 0.0
H480 H 0.11855 0.43836 0.89468 0.0
H481 H 0.18001 0.37279 0.90702 0.0
H482 H 0.19309 0.36796 0.87844 0.0
H483 H 0.18377 0.3789 0.84979 0.0
H484 H 0.12178 0.44382 0.83727 0.0
H485 H 0.11252 0.45255 0.86608 0.0
C486 C 0.13506 0.42327 0.89115 0.0
C487 C 0.14798 0.40571 0.90297 0.0
C488 C 0.14229 0.42033 0.87464 0.0
C489 C 0.16953 0.38644 0.89819 0.0
C490 C 0.177 0.38359 0.88182 0.0
C491 C 0.16848 0.39521 0.85334 0.0
C492 C 0.15325 0.41041 0.84138 0.0
C493 C 0.16299 0.39989 0.86992 0.0
C494 C 0.13372 0.43169 0.84622 0.0
C495 C 0.12832 0.43663 0.86271 0.0
H496 H 0.83203 0.88277 0.10126 0.0
H497 H 0.8982 0.94673 0.10589 0.0
H498 H 0.89562 0.94321 0.13548 0.0
H499 H 0.87696 0.91968 0.15996 0.0
H500 H 0.81143 0.85506 0.15529 0.0
H501 H 0.81128 0.86135 0.12582 0.0
C502 C 0.84571 0.89615 0.10873 0.0
C503 C 0.86543 0.91482 0.10135 0.0
C504 C 0.84434 0.89383 0.12575 0.0
C505 C 0.88292 0.93206 0.11123 0.0
C506 C 0.8815 0.93004 0.12817 0.0
C507 C 0.86243 0.90716 0.15252 0.0
C508 C 0.8444 0.88678 0.15983 0.0
C509 C 0.86266 0.91064 0.13555 0.0
C510 C 0.82565 0.87081 0.15 0.0
C511 C 0.82557 0.87435 0.13312 0.0
H512 H 0.33136 0.62317 0.40965 0.0
H513 H 0.39455 0.55614 0.40533 0.0
H514 H 0.38749 0.55497 0.37591 0.0
H515 H 0.36612 0.57541 0.35126 0.0
H516 H 0.30423 0.64366 0.35546 0.0
H517 H 0.30787 0.64168 0.38508 0.0
C518 C 0.34338 0.60808 0.40231 0.0
C519 C 0.36361 0.58992 0.4097 0.0
C520 C 0.33955 0.60781 0.38535 0.0
C521 C 0.37897 0.57049 0.39997 0.0
C522 C 0.37497 0.56981 0.38313 0.0
C523 C 0.35316 0.58964 0.35864 0.0
C524 C 0.33508 0.60979 0.35112 0.0
C525 C 0.35572 0.58875 0.37566 0.0
C526 C 0.31845 0.62805 0.36091 0.0
C527 C 0.32055 0.62697 0.37786 0.0
H528 H 0.65407 0.08624 0.65177 0.0
H529 H 0.68829 0.17151 0.65733 0.0
H530 H 0.6856 0.17895 0.62803 0.0
H531 H 0.67018 0.1627 0.60106 0.0
H532 H 0.63745 0.07703 0.5951 0.0
H533 H 0.64313 0.06821 0.62426 0.0
C534 C 0.66121 0.10632 0.64653 0.0
C535 C 0.67108 0.12837 0.65674 0.0
C536 C 0.65973 0.11047 0.62961 0.0
C537 C 0.68056 0.15417 0.64977 0.0
C538 C 0.67892 0.15852 0.63301 0.0
C539 C 0.66451 0.14203 0.60614 0.0
C540 C 0.6531 0.12069 0.59601 0.0
C541 C 0.66801 0.13705 0.62286 0.0
C542 C 0.64624 0.09384 0.60268 0.0
C543 C 0.64938 0.08882 0.61935 0.0
H544 H 0.86762 0.43199 0.84534 0.0
H545 H 0.79607 0.37362 0.84694 0.0
H546 H 0.79385 0.37843 0.87649 0.0
H547 H 0.81508 0.39556 0.90199 0.0
H548 H 0.88779 0.45249 0.9004 0.0
H549 H 0.88644 0.4521 0.87071 0.0
C550 C 0.8513 0.42058 0.85211 0.0
C551 C 0.83224 0.40223 0.84393 0.0
C552 C 0.85044 0.42305 0.86913 0.0
C553 C 0.81115 0.38773 0.85292 0.0
C554 C 0.80988 0.39042 0.86983 0.0
C555 C 0.8304 0.40821 0.89517 0.0
C556 C 0.8517 0.42379 0.90342 0.0
C557 C 0.82986 0.40747 0.87809 0.0
C558 C 0.87131 0.44013 0.89437 0.0
C559 C 0.8706 0.43988 0.87738 0.0
H560 H 0.35458 0.06681 0.64182 0.0
H561 H 0.30227 0.14303 0.64102 0.0
H562 H 0.29858 0.13983 0.61143 0.0
H563 H 0.31338 0.11761 0.58569 0.0
H564 H 0.36687 0.04222 0.58657 0.0
H565 H 0.36675 0.04285 0.61625 0.0
C566 C 0.34209 0.08258 0.63521 0.0
C567 C 0.32893 0.10527 0.64363 0.0
C568 C 0.34043 0.08088 0.6182 0.0
C569 C 0.31275 0.12541 0.63486 0.0
C570 C 0.31068 0.12365 0.61792 0.0
C571 C 0.32478 0.10114 0.59237 0.0
C572 C 0.34032 0.08004 0.5839 0.0
C573 C 0.32494 0.10182 0.60945 0.0
C574 C 0.35488 0.05881 0.59276 0.0
C575 C 0.35486 0.05916 0.60975 0.0
H576 H 0.62445 0.56491 0.39604 0.0
H577 H 0.69005 0.62798 0.40509 0.0
H578 H 0.69784 0.63323 0.37586 0.0
H579 H 0.68355 0.62251 0.34776 0.0
H580 H 0.61747 0.55985 0.33883 0.0
H581 H 0.61254 0.55175 0.368 0.0
C582 C 0.64063 0.57964 0.39164 0.0
C583 C 0.65643 0.59622 0.40273 0.0
C584 C 0.64483 0.58275 0.37483 0.0
C585 C 0.67748 0.61503 0.39682 0.0
C586 C 0.68191 0.61811 0.3801 0.0
C587 C 0.66825 0.60689 0.35217 0.0
C588 C 0.65073 0.59203 0.34111 0.0
C589 C 0.66532 0.60248 0.36899 0.0
C590 C 0.63114 0.57172 0.34706 0.0
C591 C 0.62825 0.56709 0.36376 0.0
H592 H 0.13671 0.93477 0.14883 0.0
H593 H 0.21167 0.88079 0.14697 0.0
H594 H 0.21173 0.88354 0.11733 0.0
H595 H 0.18752 0.89694 0.09197 0.0
H596 H 0.11199 0.95013 0.09383 0.0
H597 H 0.11543 0.9523 0.12343 0.0
C598 C 0.15328 0.92389 0.14196 0.0
C599 C 0.17389 0.90725 0.15011 0.0
C600 C 0.15301 0.92528 0.1249 0.0
C601 C 0.1954 0.89357 0.14102 0.0
C602 C 0.19542 0.89506 0.12405 0.0
C603 C 0.17203 0.90937 0.09882 0.0
C604 C 0.1493 0.92301 0.0907 0.0
C605 C 0.17387 0.91019 0.11586 0.0
C606 C 0.1296 0.93924 0.09976 0.0
C607 C 0.13147 0.94042 0.11671 0.0
H608 H 0.79568 0.61438 0.10711 0.0
H609 H 0.87163 0.56269 0.10135 0.0
H610 H 0.87449 0.55622 0.13077 0.0
H611 H 0.8586 0.56965 0.15815 0.0
H612 H 0.78362 0.62274 0.16393 0.0
H613 H 0.77713 0.624 0.13448 0.0
C614 C 0.8126 0.60131 0.11225 0.0
C615 C 0.83361 0.58936 0.10204 0.0
C616 C 0.81449 0.59815 0.1292 0.0
C617 C 0.8553 0.57235 0.10893 0.0
C618 C 0.85703 0.5687 0.12576 0.0
C619 C 0.84061 0.5812 0.15299 0.0
C620 C 0.82186 0.59639 0.16323 0.0
C621 C 0.83724 0.58222 0.13603 0.0
C622 C 0.79855 0.61106 0.15633 0.0
C623 C 0.79482 0.61184 0.13948 0.0
H624 H 0.13543 0.07513 0.83506 0.0
H625 H 0.2043 0.13582 0.841 0.0
H626 H 0.20279 0.12907 0.87043 0.0
H627 H 0.17901 0.10938 0.89456 0.0
H628 H 0.10928 0.04968 0.88865 0.0
H629 H 0.1143 0.05241 0.85913 0.0
C630 C 0.15036 0.08663 0.84276 0.0
C631 C 0.16973 0.10619 0.83582 0.0
C632 C 0.14913 0.08297 0.8597 0.0
C633 C 0.18902 0.12078 0.846 0.0
C634 C 0.18815 0.11698 0.86286 0.0
C635 C 0.16514 0.09667 0.88684 0.0
C636 C 0.1436 0.07959 0.89383 0.0
C637 C 0.16784 0.09866 0.86986 0.0
C638 C 0.12592 0.06316 0.88361 0.0
C639 C 0.12872 0.06475 0.86671 0.0
H640 H 0.66823 0.3723 0.58879 0.0
H641 H 0.61054 0.44392 0.59414 0.0
H642 H 0.6179 0.44346 0.62353 0.0
H643 H 0.63887 0.42136 0.64782 0.0
H644 H 0.69553 0.34891 0.64259 0.0
H645 H 0.69054 0.35125 0.61304 0.0
C646 C 0.6574 0.38794 0.59636 0.0
C647 C 0.63877 0.40803 0.58926 0.0
C648 C 0.6615 0.38739 0.61329 0.0
C649 C 0.62491 0.42812 0.59927 0.0
C650 C 0.62911 0.42789 0.6161 0.0
C651 C 0.65036 0.40623 0.64023 0.0
C652 C 0.66748 0.38494 0.64743 0.0
C653 C 0.64709 0.40743 0.62326 0.0
C654 C 0.68212 0.36546 0.63738 0.0
C655 C 0.67926 0.36675 0.62047 0.0
H656 H 0.31042 0.87639 0.34081 0.0
H657 H 0.38084 0.93464 0.33309 0.0
H658 H 0.38239 0.94511 0.36218 0.0
H659 H 0.36645 0.93467 0.39 0.0
H660 H 0.29676 0.87553 0.39772 0.0
H661 H 0.29216 0.86867 0.36841 0.0
C662 C 0.32592 0.89162 0.34545 0.0
C663 C 0.34566 0.90447 0.3348 0.0
C664 C 0.32697 0.89726 0.36221 0.0
C665 C 0.36548 0.92429 0.34102 0.0
C666 C 0.36645 0.93026 0.35767 0.0
C667 C 0.35006 0.92049 0.38528 0.0
C668 C 0.33219 0.90542 0.39606 0.0
C669 C 0.34772 0.91637 0.36841 0.0
C670 C 0.31094 0.88728 0.38971 0.0
C671 C 0.3083 0.88329 0.37294 0.0
H672 H 0.05256 0.65537 0.07003 0.0
H673 H 0.05659 0.58666 0.03496 0.0
H674 H 0.00443 0.58384 0.03459 0.0
H675 H 0.95769 0.60052 0.04442 0.0
H676 H 0.9538 0.66887 0.07973 0.0
H677 H 0.00589 0.6722 0.07974 0.0
C678 C 0.04206 0.63978 0.06229 0.0
C679 C 0.05851 0.62126 0.05255 0.0
C680 C 0.01206 0.6382 0.06216 0.0
C681 C 0.04449 0.60118 0.0426 0.0
C682 C 0.01464 0.59955 0.04237 0.0
C683 C 0.96821 0.61621 0.05208 0.0
C684 C 0.95181 0.6344 0.06206 0.0
C685 C 0.99822 0.61792 0.05212 0.0
C686 C 0.96585 0.65456 0.07194 0.0
C687 C 0.99567 0.65649 0.07197 0.0
H688 H 0.58654 0.69804 0.31075 0.0
H689 H 0.66319 0.68835 0.28194 0.0
H690 H 0.66966 0.74025 0.28164 0.0
H691 H 0.6536 0.78841 0.28965 0.0
H692 H 0.57683 0.79766 0.31844 0.0
H693 H 0.57043 0.7459 0.31861 0.0
C694 C 0.60468 0.70723 0.30439 0.0
C695 C 0.62434 0.68929 0.29639 0.0
C696 C 0.60827 0.73704 0.30425 0.0
C697 C 0.6477 0.70163 0.28821 0.0
C698 C 0.65143 0.73133 0.28802 0.0
C699 C 0.63545 0.77911 0.29595 0.0
C700 C 0.61574 0.79695 0.30402 0.0
C701 C 0.63185 0.74924 0.29602 0.0
C702 C 0.59235 0.7845 0.31212 0.0
C703 C 0.58865 0.75486 0.31224 0.0
H704 H 0.44967 0.42036 0.52853 0.0
H705 H 0.43078 0.34494 0.55695 0.0
H706 H 0.48177 0.33516 0.55989 0.0
H707 H 0.53174 0.34791 0.55444 0.0
H708 H 0.55078 0.42324 0.526 0.0
H709 H 0.49974 0.43309 0.52305 0.0
C710 C 0.45668 0.40178 0.53537 0.0
C711 C 0.43636 0.38343 0.5425 0.0
C712 C 0.48609 0.39623 0.53702 0.0
C713 C 0.4459 0.35944 0.55131 0.0
C714 C 0.47509 0.35381 0.55301 0.0
C715 C 0.52476 0.36649 0.54759 0.0
C716 C 0.5451 0.38478 0.54046 0.0
C717 C 0.49537 0.37204 0.54592 0.0
C718 C 0.53562 0.40877 0.53162 0.0
C719 C 0.50641 0.41444 0.52992 0.0
H720 H 0.85296 0.30091 0.79082 0.0
H721 H 0.92581 0.31012 0.82271 0.0
H722 H 0.93014 0.25821 0.82468 0.0
H723 H 0.91337 0.21016 0.81737 0.0
H724 H 0.84034 0.20082 0.78563 0.0
H725 H 0.83599 0.25277 0.78362 0.0
C726 C 0.86981 0.29158 0.79819 0.0
C727 C 0.88904 0.30944 0.80658 0.0
C728 C 0.87215 0.26165 0.79932 0.0
C729 C 0.91069 0.29693 0.81611 0.0
C730 C 0.9132 0.26721 0.81726 0.0
C731 C 0.89649 0.21946 0.81001 0.0
C732 C 0.87725 0.20156 0.80166 0.0
C733 C 0.89407 0.24936 0.80892 0.0
C734 C 0.85547 0.21404 0.7922 0.0
C735 C 0.85296 0.24378 0.79103 0.0
H736 H 0.94007 0.39309 0.94471 0.0
H737 H 0.93283 0.40428 0.99671 0.0
H738 H 0.98484 0.4028 -0.00068 0.0
H739 H 0.03236 0.39762 0.98692 0.0
H740 H 0.03957 0.38699 0.93488 0.0
H741 H 0.98761 0.38907 0.93224 0.0
C742 C 0.94985 0.39519 0.95662 0.0
C743 C 0.93254 0.39866 0.9705 0.0
C744 C 0.97979 0.39445 0.95804 0.0
C745 C 0.94561 0.40156 0.98582 0.0
C746 C 0.97538 0.4007 0.98734 0.0
C747 C 0.0226 0.39582 0.97499 0.0
C748 C 0.03989 0.39205 0.96114 0.0
C749 C 0.99267 0.39706 0.97354 0.0
C750 C 0.02682 0.38988 0.94576 0.0
C751 C 0.99708 0.39103 0.94423 0.0
H752 H 0.85572 0.78753 0.21637 0.0
H753 H 0.92314 0.79301 0.18057 0.0
H754 H 0.9243 0.74097 0.17842 0.0
H755 H 0.90635 0.69394 0.18667 0.0
H756 H 0.83908 0.68815 0.22253 0.0
H757 H 0.83771 0.74029 0.22465 0.0
C758 C 0.87068 0.77735 0.20811 0.0
C759 C 0.88932 0.79419 0.19866 0.0
C760 C 0.87127 0.74736 0.20692 0.0
C761 C 0.90856 0.78062 0.188 0.0
C762 C 0.90925 0.75083 0.18675 0.0
C763 C 0.89135 0.70404 0.19495 0.0
C764 C 0.87286 0.68713 0.20442 0.0
C765 C 0.89071 0.734 0.19614 0.0
C766 C 0.85359 0.70063 0.2151 0.0
C767 C 0.85278 0.73046 0.21632 0.0
H768 H 0.46084 0.60659 0.45094 0.0
H769 H 0.45545 0.63539 0.50078 0.0
H770 H 0.50756 0.63554 0.50274 0.0
H771 H 0.5547 0.6284 0.49017 0.0
H772 H 0.55998 0.59974 0.44029 0.0
H773 H 0.5079 0.59859 0.43854 0.0
C774 C 0.47103 0.61285 0.46225 0.0
C775 C 0.45421 0.62104 0.47567 0.0
C776 C 0.50102 0.61295 0.4633 0.0
C777 C 0.46783 0.62902 0.49024 0.0
C778 C 0.49766 0.62913 0.49138 0.0
C779 C 0.54449 0.62182 0.47893 0.0
C780 C 0.56128 0.61425 0.46539 0.0
C781 C 0.51448 0.62127 0.47797 0.0
C782 C 0.54762 0.60574 0.45092 0.0
C783 C 0.51781 0.60508 0.44989 0.0
H784 H 0.6581 0.20557 0.71256 0.0
H785 H 0.57534 0.1973 0.68967 0.0
H786 H 0.5717 0.24922 0.68739 0.0
H787 H 0.59277 0.29683 0.69085 0.0
H788 H 0.67591 0.30523 0.71326 0.0
H789 H 0.67856 0.25341 0.71679 0.0
C790 C 0.63916 0.21513 0.7072 0.0
C791 C 0.61707 0.19756 0.70126 0.0
C792 C 0.63731 0.24503 0.70575 0.0
C793 C 0.59272 0.2103 0.69429 0.0
C794 C 0.59061 0.24001 0.69296 0.0
C795 C 0.61144 0.28737 0.69657 0.0
C796 C 0.63414 0.3049 0.70172 0.0
C797 C 0.61292 0.25756 0.69847 0.0
C798 C 0.65814 0.29225 0.70914 0.0
C799 C 0.65969 0.2626 0.71116 0.0
H800 H 0.36596 0.28752 0.70762 0.0
H801 H 0.42615 0.29942 0.66834 0.0
H802 H 0.42729 0.24789 0.66361 0.0
H803 H 0.41128 0.19941 0.67057 0.0
H804 H 0.35116 0.18744 0.70989 0.0
H805 H 0.35001 0.23898 0.71463 0.0
C806 C 0.37932 0.27887 0.69802 0.0
C807 C 0.39594 0.29737 0.68836 0.0
C808 C 0.37994 0.24916 0.69536 0.0
C809 C 0.41314 0.28573 0.67598 0.0
C810 C 0.41383 0.25622 0.67325 0.0
C811 C 0.39794 0.20804 0.6802 0.0
C812 C 0.38135 0.18952 0.68985 0.0
C813 C 0.39734 0.23773 0.68287 0.0
C814 C 0.36418 0.20115 0.70226 0.0
C815 C 0.36348 0.23066 0.70499 0.0
H816 H 0.14273 0.7064 0.19229 0.0
H817 H 0.11224 0.69956 0.24174 0.0
H818 H 0.11206 0.75161 0.24421 0.0
H819 H 0.12063 0.79911 0.23239 0.0
H820 H 0.15118 0.80586 0.18294 0.0
H821 H 0.15125 0.75384 0.18047 0.0
C822 C 0.13601 0.71627 0.20361 0.0
C823 C 0.1275 0.69905 0.2168 0.0
C824 C 0.13599 0.74623 0.20497 0.0
C825 C 0.1189 0.71225 0.23138 0.0
C826 C 0.11879 0.74205 0.23282 0.0
C827 C 0.12732 0.78923 0.22107 0.0
C828 C 0.13589 0.80643 0.20789 0.0
C829 C 0.12731 0.75925 0.2197 0.0
C830 C 0.14448 0.7932 0.1933 0.0
C831 C 0.14453 0.76341 0.19186 0.0
H832 H 0.0997 0.21266 0.81132 0.0
H833 H 0.17085 0.20663 0.77798 0.0
H834 H 0.17393 0.2588 0.77685 0.0
H835 H 0.15571 0.30615 0.78487 0.0
H836 H 0.08419 0.3118 0.818 0.0
H837 H 0.08206 0.25975 0.81965 0.0
C838 C 0.11596 0.22271 0.80383 0.0
C839 C 0.13496 0.20572 0.79472 0.0
C840 C 0.11752 0.25268 0.80316 0.0
C841 C 0.1559 0.21917 0.7851 0.0
C842 C 0.15767 0.24902 0.78443 0.0
C843 C 0.1397 0.29601 0.79248 0.0
C844 C 0.1201 0.3129 0.80126 0.0
C845 C 0.13848 0.26599 0.79334 0.0
C846 C 0.09951 0.29937 0.81107 0.0
C847 C 0.09825 0.26957 0.81204 0.0
H848 H 0.35733 0.6999 0.30385 0.0
H849 H 0.36128 0.68221 0.25232 0.0
H850 H 0.36401 0.73337 0.24654 0.0
H851 H 0.36611 0.78313 0.2561 0.0
H852 H 0.36253 0.8007 0.30765 0.0
H853 H 0.35881 0.74962 0.31338 0.0
C854 C 0.3587 0.70721 0.29135 0.0
C855 C 0.35915 0.68719 0.27856 0.0
C856 C 0.3604 0.73667 0.28809 0.0
C857 C 0.36094 0.6971 0.26242 0.0
C858 C 0.36251 0.72638 0.25909 0.0
C859 C 0.36447 0.77581 0.26859 0.0
C860 C 0.36467 0.79577 0.28141 0.0
C861 C 0.3624 0.74636 0.27183 0.0
C862 C 0.3625 0.78586 0.29753 0.0
C863 C 0.36035 0.75662 0.30084 0.0
H864 H 0.44138 0.13693 0.55677 0.0
H865 H 0.42474 0.08305 0.51515 0.0
H866 H 0.47609 0.07712 0.51078 0.0
H867 H 0.52573 0.0872 0.51878 0.0
H868 H 0.54216 0.14053 0.56068 0.0
H869 H 0.49088 0.14667 0.56489 0.0
C870 C 0.44894 0.12391 0.54673 0.0
C871 C 0.4292 0.11052 0.53629 0.0
C872 C 0.47849 0.12047 0.54432 0.0
C873 C 0.43944 0.09361 0.52338 0.0
C874 C 0.46882 0.09021 0.52086 0.0
C875 C 0.51811 0.10021 0.52882 0.0
C876 C 0.53781 0.11341 0.53937 0.0
C877 C 0.48854 0.10355 0.53125 0.0
C878 C 0.52752 0.13009 0.55236 0.0
C879 C 0.49816 0.13364 0.55479 0.0
H880 H 0.96087 0.84517 0.06929 0.0
H881 H 0.95301 0.91663 0.03627 0.0
H882 H 0.00494 0.91809 0.03308 0.0
H883 H 0.05258 0.89919 0.03973 0.0
H884 H 0.0603 0.82807 0.07301 0.0
H885 H 0.0084 0.82638 0.07598 0.0
C886 C 0.97048 0.86107 0.06139 0.0
C887 C 0.95304 0.88074 0.05303 0.0
C888 C 0.00034 0.86185 0.05963 0.0
C889 C 0.96591 0.90123 0.04286 0.0
C890 C 0.99561 0.90208 0.04101 0.0
C891 C 0.04292 0.88326 0.0476 0.0
C892 C 0.06034 0.86376 0.05611 0.0
C893 C 0.01304 0.88249 0.04934 0.0
C894 C 0.04744 0.84335 0.06631 0.0
C895 C 0.01774 0.84236 0.06803 0.0
H896 H 0.43122 0.84029 0.43045 0.0
H897 H 0.42092 0.91514 0.46071 0.0
H898 H 0.47273 0.91826 0.46416 0.0
H899 H 0.52097 0.89959 0.4587 0.0
H900 H 0.53104 0.82482 0.42834 0.0
H901 H 0.47931 0.82188 0.42484 0.0
C902 C 0.44027 0.85731 0.4378 0.0
C903 C 0.42217 0.87741 0.44532 0.0
C904 C 0.47006 0.859 0.43973 0.0
C905 C 0.43432 0.89935 0.45478 0.0
C906 C 0.46397 0.90116 0.45677 0.0
C907 C 0.51186 0.88264 0.45133 0.0
C908 C 0.52991 0.86244 0.44382 0.0
C909 C 0.48204 0.88107 0.44933 0.0
C910 C 0.51771 0.84066 0.43427 0.0
C911 C 0.48809 0.83894 0.43225 0.0
H912 H 0.04673 0.09194 0.95379 0.0
H913 H 0.04983 0.16112 0.91897 0.0
H914 H 0.998 0.16621 0.92044 0.0
H915 H 0.9519 0.15174 0.93191 0.0
H916 H 0.94841 0.08259 0.96671 0.0
H917 H 0.00027 0.07681 0.96492 0.0
C918 C 0.03607 0.10808 0.94649 0.0
C919 C 0.05221 0.12616 0.93632 0.0
C920 C 0.00618 0.11097 0.94741 0.0
C921 C 0.038 0.14692 0.92692 0.0
C922 C 0.00832 0.14989 0.92776 0.0
C923 C 0.96243 0.13538 0.93911 0.0
C924 C 0.94627 0.11771 0.94947 0.0
C925 C 0.99223 0.13215 0.93802 0.0
C926 C 0.96032 0.09653 0.95865 0.0
C927 C 0.98999 0.09321 0.95764 0.0
H928 H 0.17122 0.48691 0.96585 0.0
H929 H 0.1577 0.41669 -0.00085 0.0
H930 H 0.1641 0.44886 0.02222 0.0
H931 H 0.16847 0.4976 0.03288 0.0
H932 H 0.17984 0.56821 -0.00039 0.0
H933 H 0.17977 0.53512 0.97663 0.0
C934 C 0.17004 0.47855 0.97814 0.0
C935 C 0.16363 0.44951 0.98075 0.0
C936 C 0.17322 0.49727 0.99138 0.0
C937 C 0.16233 0.43902 0.99678 0.0
C938 C 0.16596 0.45741 0.01 0.0
C939 C 0.17141 0.50574 0.02063 0.0
C940 C 0.17381 0.53536 0.01797 0.0
C941 C 0.17066 0.48669 0.00744 0.0
C942 C 0.17768 0.54551 0.002 0.0
C943 C 0.17757 0.52662 0.98884 0.0
H944 H 0.81935 0.90166 0.25325 0.0
H945 H 0.76265 0.92229 0.21346 0.0
H946 H 0.72202 0.92319 0.23211 0.0
H947 H 0.70204 0.91417 0.25929 0.0
H948 H 0.7589 0.89368 0.29905 0.0
H949 H 0.79996 0.89691 0.28084 0.0
C950 C 0.79815 0.90663 0.24867 0.0
C951 C 0.79403 0.91155 0.23195 0.0
C952 C 0.77484 0.90698 0.25944 0.0
C953 C 0.76646 0.9183 0.22626 0.0
C954 C 0.74316 0.91872 0.23691 0.0
C955 C 0.72343 0.91067 0.26401 0.0
C956 C 0.72731 0.90334 0.28047 0.0
C957 C 0.74701 0.91246 0.25346 0.0
C958 C 0.75523 0.8992 0.28642 0.0
C959 C 0.77876 0.90097 0.27601 0.0
H960 H 0.32715 0.49132 0.53546 0.0
H961 H 0.32703 0.42313 0.49998 0.0
H962 H 0.32897 0.45811 0.47798 0.0
H963 H 0.33474 0.50771 0.4689 0.0
H964 H 0.33639 0.57588 0.50437 0.0
H965 H 0.32953 0.54123 0.52625 0.0
C966 C 0.3272 0.48409 0.52292 0.0
C967 C 0.32721 0.45463 0.51941 0.0
C968 C 0.32876 0.50431 0.51031 0.0
C969 C 0.32721 0.44567 0.50306 0.0
C970 C 0.32836 0.46566 0.49045 0.0
C971 C 0.33328 0.51506 0.48139 0.0
C972 C 0.33635 0.54433 0.48498 0.0
C973 C 0.32978 0.49499 0.49394 0.0
C974 C 0.33428 0.55345 0.50125 0.0
C975 C 0.33041 0.53364 0.51379 0.0
H976 H 0.81491 0.08002 0.75449 0.0
H977 H 0.75444 0.08303 0.7942 0.0
H978 H 0.71481 0.08039 0.77496 0.0
H979 H 0.69736 0.08233 0.74688 0.0
H980 H 0.75761 0.07976 0.70709 0.0
H981 H 0.79727 0.07681 0.72638 0.0
C982 C 0.79307 0.07972 0.75896 0.0
C983 C 0.78767 0.08217 0.77575 0.0
C984 C 0.77033 0.0785 0.74782 0.0
C985 C 0.75925 0.08141 0.78133 0.0
C986 C 0.73653 0.07999 0.77034 0.0
C987 C 0.71915 0.08082 0.74242 0.0
C988 C 0.72454 0.08171 0.72559 0.0
C989 C 0.74183 0.07937 0.75355 0.0
C990 C 0.75286 0.07929 0.71999 0.0
C991 C 0.77557 0.07771 0.73102 0.0
H992 H 0.81797 0.50967 0.03464 0.0
H993 H 0.84469 0.58151 0.00528 0.0
H994 H 0.84175 0.55213 0.98083 0.0
H995 H 0.83638 0.50503 0.96818 0.0
H996 H 0.81124 0.43267 0.99757 0.0
H997 H 0.8084 0.4634 0.02154 0.0
C998 C 0.82278 0.51901 0.02288 0.0
C999 C 0.8319 0.54764 0.02184 0.0
C1000 C 0.8215 0.50187 0.00886 0.0
C1001 C 0.83789 0.55944 0.00647 0.0
C1002 C 0.83625 0.54265 0.99246 0.0
C1003 C 0.82989 0.49601 0.97977 0.0
C1004 C 0.82438 0.46653 0.9811 0.0
C1005 C 0.82882 0.51367 0.99357 0.0
C1006 C 0.8158 0.45527 0.99621 0.0
C1007 C 0.81426 0.47281 0.00995 0.0
H1008 H 0.24828 0.07536 0.77302 0.0
H1009 H 0.17602 0.08159 0.74045 0.0
H1010 H 0.20756 0.07511 0.71711 0.0
H1011 H 0.256 0.07329 0.70586 0.0
H1012 H 0.32856 0.06911 0.73831 0.0
H1013 H 0.29649 0.06873 0.76175 0.0
C1014 C 0.23936 0.07486 0.76084 0.0
C1015 C 0.20988 0.07937 0.75849 0.0
C1016 C 0.25769 0.07169 0.74742 0.0
C1017 C 0.19868 0.0785 0.74261 0.0
C1018 C 0.2167 0.07483 0.72923 0.0
C1019 C 0.26483 0.07184 0.71804 0.0
C1020 C 0.29465 0.07164 0.72031 0.0
C1021 C 0.24632 0.07228 0.73148 0.0
C1022 C 0.30569 0.06955 0.7362 0.0
C1023 C 0.28736 0.06942 0.74963 0.0
H1024 H 0.67506 0.43932 0.49825 0.0
H1025 H 0.67724 0.49514 0.54011 0.0
H1026 H 0.68227 0.53666 0.52236 0.0
H1027 H 0.68063 0.55752 0.49493 0.0
H1028 H 0.67856 0.50165 0.45309 0.0
H1029 H 0.67923 0.45988 0.47086 0.0
C1030 C 0.67704 0.46053 0.50351 0.0
C1031 C 0.67531 0.46411 0.52047 0.0
C1032 C 0.67972 0.48439 0.49323 0.0
C1033 C 0.6783 0.49172 0.52709 0.0
C1034 C 0.68106 0.51555 0.51694 0.0
C1035 C 0.68072 0.53621 0.48969 0.0
C1036 C 0.67909 0.53277 0.47271 0.0
C1037 C 0.68094 0.5122 0.49999 0.0
C1038 C 0.6796 0.50498 0.46612 0.0
C1039 C 0.67988 0.48102 0.47628 0.0
H1040 H 0.22827 0.90704 0.21856 0.0
H1041 H 0.17787 0.94964 0.25535 0.0
H1042 H 0.22007 0.95333 0.27281 0.0
H1043 H 0.27036 0.94126 0.27839 0.0
H1044 H 0.32003 0.89737 0.24175 0.0
H1045 H 0.279 0.89764 0.22343 0.0
C1046 C 0.22648 0.91734 0.23035 0.0
C1047 C 0.19984 0.92781 0.23569 0.0
C1048 C 0.25069 0.91909 0.24038 0.0
C1049 C 0.19806 0.94126 0.25096 0.0
C1050 C 0.22218 0.94335 0.26097 0.0
C1051 C 0.27234 0.93207 0.26633 0.0
C1052 C 0.29821 0.91913 0.26152 0.0
C1053 C 0.24848 0.93187 0.25592 0.0
C1054 C 0.30035 0.90732 0.24582 0.0
C1055 C 0.27687 0.90741 0.23533 0.0
H1056 H 0.65541 0.05342 0.50618 0.0
H1057 H 0.61454 0.00323 0.5437 0.0
H1058 H 0.61565 0.96119 0.52618 0.0
H1059 H 0.62565 0.93927 0.49976 0.0
H1060 H 0.66643 0.98906 0.46207 0.0
H1061 H 0.66814 0.0305 0.48018 0.0
C1062 C 0.64693 0.03324 0.51057 0.0
C1063 C 0.6347 0.0316 0.52619 0.0
C1064 C 0.64753 0.00905 0.50039 0.0
C1065 C 0.62397 0.00521 0.53171 0.0
C1066 C 0.62455 0.9811 0.52169 0.0
C1067 C 0.6351 0.95911 0.49552 0.0
C1068 C 0.64566 0.96109 0.47953 0.0
C1069 C 0.63588 0.98289 0.50594 0.0
C1070 C 0.65806 0.98693 0.47431 0.0
C1071 C 0.65898 0.01069 0.48464 0.0
H1072 H 0.25107 0.40142 0.78235 0.0
H1073 H 0.18859 0.43278 0.74799 0.0
H1074 H 0.22567 0.4368 0.72715 0.0
H1075 H 0.27501 0.42767 0.71811 0.0
H1076 H 0.33681 0.39467 0.7524 0.0
H1077 H 0.3008 0.39523 0.77385 0.0
C1078 C 0.24556 0.40942 0.77036 0.0
C1079 C 0.21704 0.41653 0.76671 0.0
C1080 C 0.26685 0.41122 0.75838 0.0
C1081 C 0.21035 0.42699 0.75111 0.0
C1082 C 0.23153 0.42925 0.73917 0.0
C1083 C 0.28069 0.42092 0.73032 0.0
C1084 C 0.30851 0.41091 0.73359 0.0
C1085 C 0.25974 0.42085 0.74257 0.0
C1086 C 0.3155 0.40225 0.74949 0.0
C1087 C 0.29492 0.40255 0.76179 0.0
H1088 H 0.82549 0.94435 0.01003 0.0
H1089 H 0.82724 0.00491 0.04971 0.0
H1090 H 0.82273 0.04445 0.03048 0.0
H1091 H 0.82425 0.06189 0.00232 0.0
H1092 H 0.82307 0.0013 0.96264 0.0
H1093 H 0.821 0.96174 0.98198 0.0
C1094 C 0.82449 0.96618 0.0145 0.0
C1095 C 0.82722 0.97169 0.03125 0.0
C1096 C 0.82221 0.98883 0.00337 0.0
C1097 C 0.82541 6e-05 0.03686 0.0
C1098 C 0.82295 0.02272 0.02587 0.0
C1099 C 0.82314 0.04005 0.99789 0.0
C1100 C 0.82434 0.03455 0.98107 0.0
C1101 C 0.82227 0.01737 0.00907 0.0
C1102 C 0.82241 0.00615 0.97553 0.0
C1103 C 0.82134 0.98348 0.98658 0.0
H1104 H 0.24523 0.59221 0.28673 0.0
H1105 H 0.31752 0.56589 0.25763 0.0
H1106 H 0.2865 0.56042 0.23396 0.0
H1107 H 0.23992 0.56825 0.22084 0.0
H1108 H 0.16799 0.59567 0.24993 0.0
H1109 H 0.19777 0.59528 0.27425 0.0
C1110 C 0.25416 0.58489 0.27528 0.0
C1111 C 0.28371 0.57988 0.27392 0.0
C1112 C 0.2363 0.58221 0.26164 0.0
C1113 C 0.29486 0.57012 0.25901 0.0
C1114 C 0.27716 0.56707 0.24543 0.0
C1115 C 0.23065 0.57375 0.23253 0.0
C1116 C 0.20188 0.58238 0.23349 0.0
C1117 C 0.248 0.57387 0.24648 0.0
C1118 C 0.19016 0.58922 0.24878 0.0
C1119 C 0.20718 0.58906 0.26272 0.0
H1120 H 0.29845 0.05882 0.49283 0.0
H1121 H 0.29117 0.00059 0.5334 0.0
H1122 H 0.28728 0.96023 0.51467 0.0
H1123 H 0.29246 0.9411 0.48698 0.0
H1124 H 0.30011 0.99946 0.44646 0.0
H1125 H 0.29694 0.04012 0.46496 0.0
C1126 C 0.29555 0.03735 0.49757 0.0
C1127 C 0.29563 0.03266 0.51447 0.0
C1128 C 0.29365 0.01422 0.48675 0.0
C1129 C 0.29137 0.00479 0.52044 0.0
C1130 C 0.28929 0.98165 0.50974 0.0
C1131 C 0.29298 0.96272 0.48217 0.0
C1132 C 0.29707 0.96722 0.4654 0.0
C1133 C 0.29143 0.98604 0.49289 0.0
C1134 C 0.29723 0.99535 0.45933 0.0
C1135 C 0.29554 0.01866 0.46991 0.0
H1136 H 0.73801 0.56197 0.28521 0.0
H1137 H 0.67244 0.55453 0.24845 0.0
H1138 H 0.70895 0.54726 0.2276 0.0
H1139 H 0.75933 0.54981 0.21938 0.0
H1140 H 0.82465 0.56132 0.25592 0.0
H1141 H 0.78845 0.55973 0.27732 0.0
C1142 C 0.73167 0.5582 0.27269 0.0
C1143 C 0.70261 0.55916 0.26834 0.0
C1144 C 0.75277 0.55499 0.2607 0.0
C1145 C 0.69473 0.55422 0.25207 0.0
C1146 C 0.71558 0.5501 0.24014 0.0
C1147 C 0.76569 0.5513 0.23205 0.0
C1148 C 0.79453 0.55595 0.23608 0.0
C1149 C 0.74467 0.55146 0.24423 0.0
C1150 C 0.80249 0.558 0.25253 0.0
C1151 C 0.78181 0.55717 0.26476 0.0
H1152 H 0.17892 0.99083 0.02484 0.0
H1153 H 0.16369 0.91683 0.99457 0.0
H1154 H 0.16257 0.94718 0.97044 0.0
H1155 H 0.16136 0.99507 0.95827 0.0
H1156 H 0.17491 0.06922 0.98868 0.0
H1157 H 0.1815 0.03841 0.01235 0.0
C1158 C 0.17574 0.98127 0.01295 0.0
C1159 C 0.17108 0.95165 0.01156 0.0
C1160 C 0.1746 0.9989 -0.00087 0.0
C1161 C 0.16708 0.93963 0.99603 0.0
C1162 C 0.16639 0.95696 0.9822 0.0
C1163 C 0.16611 0.0045 0.97003 0.0
C1164 C 0.16731 0.03441 0.97172 0.0
C1165 C 0.16941 0.98669 0.98366 0.0
C1166 C 0.17361 0.04625 0.98705 0.0
C1167 C 0.17736 0.02865 0.00061 0.0
H1168 H 0.82075 0.41314 0.74976 0.0
H1169 H 0.76041 0.44332 0.78564 0.0
H1170 H 0.72279 0.44478 0.765 0.0
H1171 H 0.70609 0.43294 0.73745 0.0
H1172 H 0.76663 0.40229 0.70175 0.0
H1173 H 0.80517 0.40595 0.72162 0.0
C1174 C 0.79944 0.4203 0.75305 0.0
C1175 C 0.79329 0.4277 0.76926 0.0
C1176 C 0.77791 0.4209 0.74117 0.0
C1177 C 0.76568 0.43735 0.77327 0.0
C1178 C 0.74413 0.43811 0.76148 0.0
C1179 C 0.72778 0.42744 0.73393 0.0
C1180 C 0.73335 0.41696 0.71819 0.0
C1181 C 0.74985 0.42926 0.74549 0.0
C1182 C 0.76164 0.41019 0.71381 0.0
C1183 C 0.78372 0.41218 0.72519 0.0
H1184 H 0.15841 0.79436 0.02932 0.0
H1185 H 0.2197 0.80383 0.06827 0.0
H1186 H 0.22534 0.7519 0.06968 0.0
H1187 H 0.20951 0.70379 0.06154 0.0
H1188 H 0.14733 0.6948 0.02298 0.0
H1189 H 0.14564 0.74658 0.01968 0.0
C1190 C 0.17325 0.78512 0.03802 0.0
C1191 C 0.18834 0.80295 0.0488 0.0
C1192 C 0.17611 0.7553 0.03891 0.0
C1193 C 0.20768 0.7906 0.05988 0.0
C1194 C 0.21087 0.76089 0.06073 0.0
C1195 C 0.19586 0.71312 0.05228 0.0
C1196 C 0.17834 0.69542 0.04267 0.0
C1197 C 0.19467 0.74301 0.05057 0.0
C1198 C 0.16088 0.7079 0.03066 0.0
C1199 C 0.15984 0.73754 0.02876 0.0
H1200 H 0.55874 0.89197 0.27654 0.0
H1201 H 0.56314 0.96574 0.30809 0.0
H1202 H 0.51152 0.97244 0.30561 0.0
H1203 H 0.46465 0.95428 0.2969 0.0
H1204 H 0.46028 0.87951 0.2661 0.0
H1205 H 0.51238 0.87654 0.26575 0.0
C1206 C 0.54851 0.90977 0.2827 0.0
C1207 C 0.5648 0.9281 0.29265 0.0
C1208 C 0.51875 0.91321 0.28146 0.0
C1209 C 0.55115 0.95116 0.30045 0.0
C1210 C 0.52158 0.95498 0.29908 0.0
C1211 C 0.47507 0.93758 0.2899 0.0
C1212 C 0.45851 0.91695 0.28171 0.0
C1213 C 0.50507 0.93566 0.28998 0.0
C1214 C 0.47244 0.89555 0.27264 0.0
C1215 C 0.50227 0.89377 0.27246 0.0
H1216 H 0.2736 0.19845 0.55005 0.0
H1217 H 0.34072 0.1935 0.51403 0.0
H1218 H 0.34335 0.24555 0.51305 0.0
H1219 H 0.33031 0.29208 0.52448 0.0
H1220 H 0.26407 0.29734 0.56098 0.0
H1221 H 0.25716 0.24559 0.55952 0.0
C1222 C 0.28851 0.20874 0.54181 0.0
C1223 C 0.30719 0.19205 0.53231 0.0
C1224 C 0.29024 0.23875 0.54147 0.0
C1225 C 0.32625 0.20578 0.52161 0.0
C1226 C 0.32784 0.23558 0.52105 0.0
C1227 C 0.3141 0.28199 0.53199 0.0
C1228 C 0.29803 0.29853 0.54299 0.0
C1229 C 0.31052 0.25223 0.53126 0.0
C1230 C 0.27688 0.28512 0.55247 0.0
C1231 C 0.27298 0.25549 0.55169 0.0
H1232 H 0.95438 0.11144 0.77743 0.0
H1233 H 0.94955 0.03195 0.80408 0.0
H1234 H 0.00156 0.02727 0.80294 0.0
H1235 H 0.04859 0.0479 0.79645 0.0
H1236 H 0.05305 0.12795 0.77028 0.0
H1237 H 0.00102 0.13008 0.76909 0.0
C1238 C 0.96463 0.09291 0.78284 0.0
C1239 C 0.94809 0.07225 0.79098 0.0
C1240 C 0.99454 0.09053 0.78233 0.0
C1241 C 0.96176 0.04827 0.79781 0.0
C1242 C 0.99153 0.04561 0.79721 0.0
C1243 C 0.0382 0.06565 0.79033 0.0
C1244 C 0.05475 0.08786 0.78363 0.0
C1245 C 0.00817 0.06694 0.78983 0.0
C1246 C 0.04089 0.11064 0.77566 0.0
C1247 C 0.01109 0.11192 0.77498 0.0
H1248 H 0.1408 0.19428 0.9613 0.0
H1249 H 0.21681 0.19277 0.93145 0.0
H1250 H 0.22023 0.24488 0.93324 0.0
H1251 H 0.19914 0.29101 0.94128 0.0
H1252 H 0.12217 0.29203 0.97038 0.0
H1253 H 0.12181 0.23988 0.97096 0.0
C1254 C 0.15831 0.20526 0.9553 0.0
C1255 C 0.17833 0.18966 0.9461 0.0
C1256 C 0.15989 0.23517 0.95617 0.0
C1257 C 0.201 0.20426 0.93853 0.0
C1258 C 0.20294 0.23408 0.93952 0.0
C1259 C 0.18249 0.27984 0.94793 0.0
C1260 C 0.16056 0.29541 0.95563 0.0
C1261 C 0.18212 0.24978 0.948 0.0
C1262 C 0.13918 0.28059 0.96422 0.0
C1263 C 0.13893 0.25075 0.96455 0.0
H1264 H 0.95963 0.95451 0.19704 0.0
H1265 H 0.95882 0.88146 0.22924 0.0
H1266 H 0.01092 0.88218 0.2305 0.0
H1267 H 0.05671 0.90026 0.22022 0.0
H1268 H 0.05769 0.97268 0.18758 0.0
H1269 H 0.00561 0.97566 0.18893 0.0
C1270 C 0.9708 0.93899 0.20452 0.0
C1271 C 0.95528 0.91774 0.21285 0.0
C1272 C 0.00086 0.93926 0.20504 0.0
C1273 C 0.97017 0.89794 0.22259 0.0
C1274 C 2e-05 0.89827 0.22329 0.0
C1275 C 0.04559 0.91696 0.21357 0.0
C1276 C 0.06111 0.93596 0.20364 0.0
C1277 C 0.0156 0.91832 0.21421 0.0
C1278 C 0.04632 0.95763 0.19524 0.0
C1279 C 0.01649 0.9593 0.19595 0.0
H1280 H 0.28971 0.7009 0.4464 0.0
H1281 H 0.36429 0.70732 0.47723 0.0
H1282 H 0.3592 0.75922 0.478 0.0
H1283 H 0.33644 0.80287 0.4679 0.0
H1284 H 0.26285 0.79688 0.43631 0.0
H1285 H 0.2645 0.74471 0.43807 0.0
C1286 C 0.30464 0.7136 0.45346 0.0
C1287 C 0.32753 0.70022 0.46159 0.0
C1288 C 0.30187 0.74355 0.45366 0.0
C1289 C 0.34661 0.71704 0.47073 0.0
C1290 C 0.34375 0.74676 0.47118 0.0
C1291 C 0.3205 0.79022 0.46156 0.0
C1292 C 0.29975 0.8038 0.45185 0.0
C1293 C 0.32189 0.76026 0.46237 0.0
C1294 C 0.27918 0.78701 0.4438 0.0
C1295 C 0.28016 0.75715 0.44475 0.0
H1296 H 0.46437 0.09111 0.72661 0.0
H1297 H 0.44785 0.06275 0.67748 0.0
H1298 H 0.49891 0.05596 0.67297 0.0
H1299 H 0.54838 0.06295 0.68192 0.0
H1300 H 0.56515 0.09241 0.73081 0.0
H1301 H 0.51394 0.0934 0.73649 0.0
C1302 C 0.4719 0.08309 0.71499 0.0
C1303 C 0.4523 0.07787 0.70235 0.0
C1304 C 0.50139 0.07954 0.71238 0.0
C1305 C 0.46244 0.06724 0.6874 0.0
C1306 C 0.49169 0.06336 0.68478 0.0
C1307 C 0.5409 0.06915 0.69391 0.0
C1308 C 0.5606 0.07797 0.70582 0.0
C1309 C 0.51139 0.07018 0.69702 0.0
C1310 C 0.55047 0.08574 0.72134 0.0
C1311 C 0.52115 0.08642 0.7246 0.0
H1312 H 0.8607 0.29429 0.98517 0.0
H1313 H 0.79897 0.31183 0.94735 0.0
H1314 H 0.78926 0.26077 0.94458 0.0
H1315 H 0.80156 0.21107 0.95106 0.0
H1316 H 0.86481 0.19341 0.98803 0.0
H1317 H 0.87038 0.24458 0.99307 0.0
C1318 C 0.84484 0.28699 0.97647 0.0
C1319 C 0.83081 0.30685 0.96637 0.0
C1320 C 0.83974 0.25754 0.97471 0.0
C1321 C 0.81028 0.297 0.95518 0.0
C1322 C 0.80472 0.26778 0.95357 0.0
C1323 C 0.81627 0.21837 0.96038 0.0
C1324 C 0.83293 0.19844 0.96903 0.0
C1325 C 0.81982 0.24784 0.96299 0.0
C1326 C 0.85187 0.2083 0.9811 0.0
C1327 C 0.85512 0.23757 0.98398 0.0
H1328 H 0.69573 0.79996 0.4508 0.0
H1329 H 0.61739 0.79724 0.47863 0.0
H1330 H 0.62181 0.74546 0.48132 0.0
H1331 H 0.64509 0.70058 0.47339 0.0
H1332 H 0.72268 0.70301 0.4449 0.0
H1333 H 0.72153 0.75524 0.44508 0.0
C1334 C 0.67981 0.78812 0.45765 0.0
C1335 C 0.65608 0.80249 0.46432 0.0
C1336 C 0.68224 0.75822 0.45896 0.0
C1337 C 0.63577 0.78676 0.47325 0.0
C1338 C 0.63824 0.75709 0.47478 0.0
C1339 C 0.66201 0.71249 0.46741 0.0
C1340 C 0.68373 0.69783 0.45897 0.0
C1341 C 0.66096 0.74253 0.46731 0.0
C1342 C 0.70557 0.71369 0.4514 0.0
C1343 C 0.70489 0.7436 0.45145 0.0
H1344 H 0.86056 0.713 0.02391 0.0
H1345 H 0.82189 0.69073 0.06993 0.0
H1346 H 0.81222 0.7411 0.0754 0.0
H1347 H 0.8188 0.79164 0.06834 0.0
H1348 H 0.85861 0.81402 0.02266 0.0
H1349 H 0.86341 0.76346 0.01579 0.0
C1350 C 0.84971 0.71911 0.03505 0.0
C1351 C 0.84229 0.69813 0.04656 0.0
C1352 C 0.84453 0.74818 0.03824 0.0
C1353 C 0.82806 0.70644 0.06089 0.0
C1354 C 0.82254 0.73527 0.06406 0.0
C1355 C 0.82818 0.7855 0.05678 0.0
C1356 C 0.83862 0.80661 0.04614 0.0
C1357 C 0.83131 0.75637 0.05301 0.0
C1358 C 0.85057 0.79823 0.03116 0.0
C1359 C 0.8534 0.76929 0.02722 0.0
H1360 H 0.7039 0.29222 0.54522 0.0
H1361 H 0.62457 0.3009 0.5187 0.0
H1362 H 0.62099 0.24904 0.51635 0.0
H1363 H 0.6377 0.20129 0.52416 0.0
H1364 H 0.71661 0.19222 0.55097 0.0
H1365 H 0.72318 0.24409 0.55064 0.0
C1366 C 0.68601 0.2828 0.53875 0.0
C1367 C 0.66436 0.3005 0.53235 0.0
C1368 C 0.6839 0.25284 0.53755 0.0
C1369 C 0.64147 0.28786 0.52386 0.0
C1370 C 0.63934 0.25815 0.52253 0.0
C1371 C 0.65655 0.21059 0.52975 0.0
C1372 C 0.67643 0.19287 0.53775 0.0
C1373 C 0.66002 0.24044 0.5297 0.0
C1374 C 0.70089 0.20531 0.54477 0.0
C1375 C 0.7046 0.23502 0.54466 0.0
H1376 H 0.95306 0.40665 0.77622 0.0
H1377 H 0.94534 0.47634 0.81045 0.0
H1378 H 0.99707 0.48358 0.80966 0.0
H1379 H 0.04478 0.46676 0.80151 0.0
H1380 H 0.05226 0.39626 0.76777 0.0
H1381 H 0.00031 0.393 0.76599 0.0
C1382 C 0.96262 0.42366 0.78337 0.0
C1383 C 0.94538 0.44065 0.79355 0.0
C1384 C 0.99238 0.42747 0.78303 0.0
C1385 C 0.95811 0.4628 0.80258 0.0
C1386 C 0.98772 0.46692 0.80218 0.0
C1387 C 0.03508 0.45097 0.79356 0.0
C1388 C 0.05243 0.43155 0.78496 0.0
C1389 C 0.00513 0.44887 0.79279 0.0
C1390 C 0.03945 0.41134 0.77465 0.0
C1391 C 0.00971 0.40938 0.77365 0.0
H1392 H 0.4445 0.59561 0.28093 0.0
H1393 H 0.43906 0.52501 0.31469 0.0
H1394 H 0.49074 0.51779 0.31273 0.0
H1395 H 0.53785 0.53464 0.30351 0.0
H1396 H 0.54292 0.60617 0.27033 0.0
H1397 H 0.49091 0.60966 0.26987 0.0
C1398 C 0.45454 0.57845 0.28776 0.0
C1399 C 0.43801 0.56114 0.29812 0.0
C1400 C 0.48422 0.57466 0.28674 0.0
C1401 C 0.45132 0.53878 0.3067 0.0
C1402 C 0.48088 0.53467 0.30563 0.0
C1403 C 0.52758 0.55072 0.29599 0.0
C1404 C 0.54428 0.57033 0.28713 0.0
C1405 C 0.49762 0.55295 0.29599 0.0
C1406 C 0.53061 0.59096 0.27739 0.0
C1407 C 0.50085 0.59303 0.27714 0.0
H1408 H 0.46954 0.45375 0.69394 0.0
H1409 H 0.46755 0.38155 0.72675 0.0
H1410 H 0.51962 0.38205 0.72844 0.0
H1411 H 0.56562 0.39964 0.71843 0.0
H1412 H 0.56796 0.47065 0.68482 0.0
H1413 H 0.51585 0.47416 0.68582 0.0
C1414 C 0.48046 0.43838 0.70165 0.0
C1415 C 0.46465 0.41743 0.71005 0.0
C1416 C 0.51049 0.43844 0.70235 0.0
C1417 C 0.47917 0.39776 0.72003 0.0
C1418 C 0.50898 0.39799 0.721 0.0
C1419 C 0.55482 0.41616 0.71148 0.0
C1420 C 0.57069 0.43462 0.70141 0.0
C1421 C 0.52486 0.41771 0.71186 0.0
C1422 C 0.55628 0.45602 0.69259 0.0
C1423 C 0.52645 0.458 0.69311 0.0
H1424 H 0.95701 0.54483 0.18552 0.0
H1425 H 0.94922 0.59817 0.22823 0.0
H1426 H 0.00105 0.60257 0.22976 0.0
H1427 H 0.04821 0.59481 0.21769 0.0
H1428 H 0.05647 0.54186 0.17489 0.0
H1429 H 0.00485 0.5336 0.17479 0.0
C1430 C 0.96665 0.55712 0.19528 0.0
C1431 C 0.9492 0.57142 0.20661 0.0
C1432 C 0.99655 0.55982 0.19602 0.0
C1433 C 0.96209 0.5871 0.21926 0.0
C1434 C 0.99176 0.5897 0.22014 0.0
C1435 C 0.03877 0.58127 0.20841 0.0
C1436 C 0.0561 0.56928 0.19621 0.0
C1437 C 0.00913 0.57674 0.20836 0.0
C1438 C 0.04359 0.55147 0.18439 0.0
C1439 C 0.01406 0.54679 0.18429 0.0
loop_
_geom_bond_atom_site_label_1
_geom_bond_atom_site_label_2
_geom_bond_distance
_geom_bond_site_symmetry_2
_ccdc_geom_bond_type
C0 O1 1.160 . S
C0 O7 1.185 . S
O1 C0 1.160 . S
O2 Zn3 1.899 . S
O2 C10 1.284 . S
Zn3 O2 1.899 . S
Zn3 O4 2.032 . S
Zn3 O7 2.086 . S
Zn3 O12 1.977 . S
O4 Zn3 2.032 . S
O4 C8 1.278 . S
C5 O6 1.203 . S
C5 O12 1.267 . S
O6 C5 1.203 . S
O7 C0 1.185 . S
O7 Zn3 2.086 . S
C8 O4 1.278 . S
C8 O9 1.211 . S
O9 C8 1.211 . S
C10 O2 1.284 . S
C10 O11 1.273 . S
O11 C10 1.273 . S
O12 Zn3 1.977 . S
O12 C5 1.267 . S
C13 O14 1.160 . S
C13 O20 1.185 . S
O14 C13 1.160 . S
O15 Zn16 1.899 . S
O15 C23 1.284 . S
Zn16 O15 1.899 . S
Zn16 O17 2.032 . S
Zn16 O20 2.086 . S
Zn16 O25 1.977 . S
O17 Zn16 2.032 . S
O17 C21 1.278 . S
C18 O19 1.203 . S
C18 O25 1.267 . S
O19 C18 1.203 . S
O20 C13 1.185 . S
O20 Zn16 2.086 . S
C21 O17 1.278 . S
C21 O22 1.211 . S
O22 C21 1.211 . S
C23 O15 1.284 . S
C23 O24 1.273 . S
O24 C23 1.273 . S
O25 Zn16 1.977 . S
O25 C18 1.267 . S
C26 O27 1.160 . S
C26 O33 1.185 . S
O27 C26 1.160 . S
O28 Zn29 1.899 . S
O28 C36 1.284 . S
Zn29 O28 1.899 . S
Zn29 O30 2.032 . S
Zn29 O33 2.086 . S
Zn29 O38 1.977 . S
O30 Zn29 2.032 . S
O30 C34 1.278 . S
C31 O32 1.203 . S
C31 O38 1.267 . S
O32 C31 1.203 . S
O33 C26 1.185 . S
O33 Zn29 2.086 . S
C34 O30 1.278 . S
C34 O35 1.211 . S
O35 C34 1.211 . S
C36 O28 1.284 . S
C36 O37 1.273 . S
O37 C36 1.273 . S
O38 Zn29 1.977 . S
O38 C31 1.267 . S
C39 O40 1.160 . S
C39 O46 1.185 . S
O40 C39 1.160 . S
O41 Zn42 1.899 . S
O41 C49 1.284 . S
Zn42 O41 1.899 . S
Zn42 O43 2.032 . S
Zn42 O46 2.086 . S
Zn42 O51 1.977 . S
O43 Zn42 2.032 . S
O43 C47 1.278 . S
C44 O45 1.203 . S
C44 O51 1.267 . S
O45 C44 1.203 . S
O46 C39 1.185 . S
O46 Zn42 2.086 . S
C47 O43 1.278 . S
C47 O48 1.211 . S
O48 C47 1.211 . S
C49 O41 1.284 . S
C49 O50 1.273 . S
O50 C49 1.273 . S
O51 Zn42 1.977 . S
O51 C44 1.267 . S
C52 O53 1.160 . S
C52 O59 1.185 . S
O53 C52 1.160 . S
O54 Zn55 1.899 . S
O54 C62 1.284 . S
Zn55 O54 1.899 . S
Zn55 O56 2.032 . S
Zn55 O59 2.086 . S
Zn55 O64 1.977 . S
O56 Zn55 2.032 . S
O56 C60 1.278 . S
C57 O58 1.203 . S
C57 O64 1.267 . S
O58 C57 1.203 . S
O59 C52 1.185 . S
O59 Zn55 2.086 . S
C60 O56 1.278 . S
C60 O61 1.211 . S
O61 C60 1.211 . S
C62 O54 1.284 . S
C62 O63 1.273 . S
O63 C62 1.273 . S
O64 Zn55 1.977 . S
O64 C57 1.267 . S
C65 O66 1.160 . S
C65 O72 1.185 . S
O66 C65 1.160 . S
O67 Zn68 1.899 . S
O67 C75 1.284 . S
Zn68 O67 1.899 . S
Zn68 O69 2.032 . S
Zn68 O72 2.086 . S
Zn68 O77 1.977 . S
O69 Zn68 2.032 . S
O69 C73 1.278 . S
C70 O71 1.203 . S
C70 O77 1.267 . S
O71 C70 1.203 . S
O72 C65 1.185 . S
O72 Zn68 2.086 . S
C73 O69 1.278 . S
C73 O74 1.211 . S
O74 C73 1.211 . S
C75 O67 1.284 . S
C75 O76 1.273 . S
O76 C75 1.273 . S
O77 Zn68 1.977 . S
O77 C70 1.267 . S
C78 O79 1.160 . S
C78 O85 1.185 . S
O79 C78 1.160 . S
O80 Zn81 1.899 . S
O80 C88 1.284 . S
Zn81 O80 1.899 . S
Zn81 O82 2.032 . S
Zn81 O85 2.086 . S
Zn81 O90 1.977 . S
O82 Zn81 2.032 . S
O82 C86 1.278 . S
C83 O84 1.203 . S
C83 O90 1.267 . S
O84 C83 1.203 . S
O85 C78 1.185 . S
O85 Zn81 2.086 . S
C86 O82 1.278 . S
C86 O87 1.211 . S
O87 C86 1.211 . S
C88 O80 1.284 . S
C88 O89 1.273 . S
O89 C88 1.273 . S
O90 Zn81 1.977 . S
O90 C83 1.267 . S
C91 O92 1.160 . S
C91 O98 1.185 . S
O92 C91 1.160 . S
O93 Zn94 1.899 . S
O93 C101 1.284 . S
Zn94 O93 1.899 . S
Zn94 O95 2.032 . S
Zn94 O98 2.086 . S
Zn94 O103 1.977 . S
O95 Zn94 2.032 . S
O95 C99 1.278 . S
C96 O97 1.203 . S
C96 O103 1.267 . S
O97 C96 1.203 . S
O98 C91 1.185 . S
O98 Zn94 2.086 . S
C99 O95 1.278 . S
C99 O100 1.211 . S
O100 C99 1.211 . S
C101 O93 1.284 . S
C101 O102 1.273 . S
O102 C101 1.273 . S
O103 Zn94 1.977 . S
O103 C96 1.267 . S
C104 O105 1.160 . S
C104 O111 1.185 . S
O105 C104 1.160 . S
O106 Zn107 1.899 . S
O106 C114 1.284 . S
Zn107 O106 1.899 . S
Zn107 O108 2.032 . S
Zn107 O111 2.086 . S
Zn107 O116 1.977 . S
O108 Zn107 2.032 . S
O108 C112 1.278 . S
C109 O110 1.203 . S
C109 O116 1.267 . S
O110 C109 1.203 . S
O111 C104 1.185 . S
O111 Zn107 2.086 . S
C112 O108 1.278 . S
C112 O113 1.211 . S
O113 C112 1.211 . S
C114 O106 1.284 . S
C114 O115 1.273 . S
O115 C114 1.273 . S
O116 Zn107 1.977 . S
O116 C109 1.267 . S
C117 O118 1.160 . S
C117 O124 1.185 . S
O118 C117 1.160 . S
O119 Zn120 1.899 . S
O119 C127 1.284 . S
Zn120 O119 1.899 . S
Zn120 O121 2.032 . S
Zn120 O124 2.086 . S
Zn120 O129 1.977 . S
O121 Zn120 2.032 . S
O121 C125 1.278 . S
C122 O123 1.203 . S
C122 O129 1.267 . S
O123 C122 1.203 . S
O124 C117 1.185 . S
O124 Zn120 2.086 . S
C125 O121 1.278 . S
C125 O126 1.211 . S
O126 C125 1.211 . S
C127 O119 1.284 . S
C127 O128 1.273 . S
O128 C127 1.273 . S
O129 Zn120 1.977 . S
O129 C122 1.267 . S
C130 O131 1.160 . S
C130 O137 1.185 . S
O131 C130 1.160 . S
O132 Zn133 1.899 . S
O132 C140 1.284 . S
Zn133 O132 1.899 . S
Zn133 O134 2.032 . S
Zn133 O137 2.086 . S
Zn133 O142 1.977 . S
O134 Zn133 2.032 . S
O134 C138 1.278 . S
C135 O136 1.203 . S
C135 O142 1.267 . S
O136 C135 1.203 . S
O137 C130 1.185 . S
O137 Zn133 2.086 . S
C138 O134 1.278 . S
C138 O139 1.211 . S
O139 C138 1.211 . S
C140 O132 1.284 . S
C140 O141 1.273 . S
O141 C140 1.273 . S
O142 Zn133 1.977 . S
O142 C135 1.267 . S
C143 O144 1.160 . S
C143 O150 1.185 . S
O144 C143 1.160 . S
O145 Zn146 1.899 . S
O145 C153 1.284 . S
Zn146 O145 1.899 . S
Zn146 O147 2.032 . S
Zn146 O150 2.086 . S
Zn146 O155 1.977 . S
O147 Zn146 2.032 . S
O147 C151 1.278 . S
C148 O149 1.203 . S
C148 O155 1.267 . S
O149 C148 1.203 . S
O150 C143 1.185 . S
O150 Zn146 2.086 . S
C151 O147 1.278 . S
C151 O152 1.211 . S
O152 C151 1.211 . S
C153 O145 1.284 . S
C153 O154 1.273 . S
O154 C153 1.273 . S
O155 Zn146 1.977 . S
O155 C148 1.267 . S
C156 O157 1.160 . S
C156 O163 1.185 . S
O157 C156 1.160 . S
O158 Zn159 1.899 . S
O158 C166 1.284 . S
Zn159 O158 1.899 . S
Zn159 O160 2.032 . S
Zn159 O163 2.086 . S
Zn159 O168 1.977 . S
O160 Zn159 2.032 . S
O160 C164 1.278 . S
C161 O162 1.203 . S
C161 O168 1.267 . S
O162 C161 1.203 . S
O163 C156 1.185 . S
O163 Zn159 2.086 . S
C164 O160 1.278 . S
C164 O165 1.211 . S
O165 C164 1.211 . S
C166 O158 1.284 . S
C166 O167 1.273 . S
O167 C166 1.273 . S
O168 Zn159 1.977 . S
O168 C161 1.267 . S
C169 O170 1.160 . S
C169 O176 1.185 . S
O170 C169 1.160 . S
O171 Zn172 1.899 . S
O171 C179 1.284 . S
Zn172 O171 1.899 . S
Zn172 O173 2.032 . S
Zn172 O176 2.086 . S
Zn172 O181 1.977 . S
O173 Zn172 2.032 . S
O173 C177 1.278 . S
C174 O175 1.203 . S
C174 O181 1.267 . S
O175 C174 1.203 . S
O176 C169 1.185 . S
O176 Zn172 2.086 . S
C177 O173 1.278 . S
C177 O178 1.211 . S
O178 C177 1.211 . S
C179 O171 1.284 . S
C179 O180 1.273 . S
O180 C179 1.273 . S
O181 Zn172 1.977 . S
O181 C174 1.267 . S
C182 O183 1.160 . S
C182 O189 1.185 . S
O183 C182 1.160 . S
O184 Zn185 1.899 . S
O184 C192 1.284 . S
Zn185 O184 1.899 . S
Zn185 O186 2.032 . S
Zn185 O189 2.086 . S
Zn185 O194 1.977 . S
O186 Zn185 2.032 . S
O186 C190 1.278 . S
C187 O188 1.203 . S
C187 O194 1.267 . S
O188 C187 1.203 . S
O189 C182 1.185 . S
O189 Zn185 2.086 . S
C190 O186 1.278 . S
C190 O191 1.211 . S
O191 C190 1.211 . S
C192 O184 1.284 . S
C192 O193 1.273 . S
O193 C192 1.273 . S
O194 Zn185 1.977 . S
O194 C187 1.267 . S
C195 O196 1.160 . S
C195 O202 1.185 . S
O196 C195 1.160 . S
O197 Zn198 1.899 . S
O197 C205 1.284 . S
Zn198 O197 1.899 . S
Zn198 O199 2.032 . S
Zn198 O202 2.086 . S
Zn198 O207 1.977 . S
O199 Zn198 2.032 . S
O199 C203 1.278 . S
C200 O201 1.203 . S
C200 O207 1.267 . S
O201 C200 1.203 . S
O202 C195 1.185 . S
O202 Zn198 2.086 . S
C203 O199 1.278 . S
C203 O204 1.211 . S
O204 C203 1.211 . S
C205 O197 1.284 . S
C205 O206 1.273 . S
O206 C205 1.273 . S
O207 Zn198 1.977 . S
O207 C200 1.267 . S
C208 O209 1.160 . S
C208 O215 1.185 . S
O209 C208 1.160 . S
O210 Zn211 1.899 . S
O210 C218 1.284 . S
Zn211 O210 1.899 . S
Zn211 O212 2.032 . S
Zn211 O215 2.086 . S
Zn211 O220 1.977 . S
O212 Zn211 2.032 . S
O212 C216 1.278 . S
C213 O214 1.203 . S
C213 O220 1.267 . S
O214 C213 1.203 . S
O215 C208 1.185 . S
O215 Zn211 2.086 . S
C216 O212 1.278 . S
C216 O217 1.211 . S
O217 C216 1.211 . S
C218 O210 1.284 . S
C218 O219 1.273 . S
O219 C218 1.273 . S
O220 Zn211 1.977 . S
O220 C213 1.267 . S
C221 O222 1.160 . S
C221 O228 1.185 . S
O222 C221 1.160 . S
O223 Zn224 1.899 . S
O223 C231 1.284 . S
Zn224 O223 1.899 . S
Zn224 O225 2.032 . S
Zn224 O228 2.086 . S
Zn224 O233 1.977 . S
O225 Zn224 2.032 . S
O225 C229 1.278 . S
C226 O227 1.203 . S
C226 O233 1.267 . S
O227 C226 1.203 . S
O228 C221 1.185 . S
O228 Zn224 2.086 . S
C229 O225 1.278 . S
C229 O230 1.211 . S
O230 C229 1.211 . S
C231 O223 1.284 . S
C231 O232 1.273 . S
O232 C231 1.273 . S
O233 Zn224 1.977 . S
O233 C226 1.267 . S
C234 O235 1.160 . S
C234 O241 1.185 . S
O235 C234 1.160 . S
O236 Zn237 1.899 . S
O236 C244 1.284 . S
Zn237 O236 1.899 . S
Zn237 O238 2.032 . S
Zn237 O241 2.086 . S
Zn237 O246 1.977 . S
O238 Zn237 2.032 . S
O238 C242 1.278 . S
C239 O240 1.203 . S
C239 O246 1.267 . S
O240 C239 1.203 . S
O241 C234 1.185 . S
O241 Zn237 2.086 . S
C242 O238 1.278 . S
C242 O243 1.211 . S
O243 C242 1.211 . S
C244 O236 1.284 . S
C244 O245 1.273 . S
O245 C244 1.273 . S
O246 Zn237 1.977 . S
O246 C239 1.267 . S
C247 O248 1.160 . S
C247 O254 1.185 . S
O248 C247 1.160 . S
O249 Zn250 1.899 . S
O249 C257 1.284 . S
Zn250 O249 1.899 . S
Zn250 O251 2.032 . S
Zn250 O254 2.086 . S
Zn250 O259 1.977 . S
O251 Zn250 2.032 . S
O251 C255 1.278 . S
C252 O253 1.203 . S
C252 O259 1.267 . S
O253 C252 1.203 . S
O254 C247 1.185 . S
O254 Zn250 2.086 . S
C255 O251 1.278 . S
C255 O256 1.211 . S
O256 C255 1.211 . S
C257 O249 1.284 . S
C257 O258 1.273 . S
O258 C257 1.273 . S
O259 Zn250 1.977 . S
O259 C252 1.267 . S
C260 O261 1.160 . S
C260 O267 1.185 . S
O261 C260 1.160 . S
O262 Zn263 1.899 . S
O262 C270 1.284 . S
Zn263 O262 1.899 . S
Zn263 O264 2.032 . S
Zn263 O267 2.086 . S
Zn263 O272 1.977 . S
O264 Zn263 2.032 . S
O264 C268 1.278 . S
C265 O266 1.203 . S
C265 O272 1.267 . S
O266 C265 1.203 . S
O267 C260 1.185 . S
O267 Zn263 2.086 . S
C268 O264 1.278 . S
C268 O269 1.211 . S
O269 C268 1.211 . S
C270 O262 1.284 . S
C270 O271 1.273 . S
O271 C270 1.273 . S
O272 Zn263 1.977 . S
O272 C265 1.267 . S
C273 O274 1.160 . S
C273 O280 1.185 . S
O274 C273 1.160 . S
O275 Zn276 1.899 . S
O275 C283 1.284 . S
Zn276 O275 1.899 . S
Zn276 O277 2.032 . S
Zn276 O280 2.086 . S
Zn276 O285 1.977 . S
O277 Zn276 2.032 . S
O277 C281 1.278 . S
C278 O279 1.203 . S
C278 O285 1.267 . S
O279 C278 1.203 . S
O280 C273 1.185 . S
O280 Zn276 2.086 . S
C281 O277 1.278 . S
C281 O282 1.211 . S
O282 C281 1.211 . S
C283 O275 1.284 . S
C283 O284 1.273 . S
O284 C283 1.273 . S
O285 Zn276 1.977 . S
O285 C278 1.267 . S
C286 O287 1.160 . S
C286 O293 1.185 . S
O287 C286 1.160 . S
O288 Zn289 1.899 . S
O288 C296 1.284 . S
Zn289 O288 1.899 . S
Zn289 O290 2.032 . S
Zn289 O293 2.086 . S
Zn289 O298 1.977 . S
O290 Zn289 2.032 . S
O290 C294 1.278 . S
C291 O292 1.203 . S
C291 O298 1.267 . S
O292 C291 1.203 . S
O293 C286 1.185 . S
O293 Zn289 2.086 . S
C294 O290 1.278 . S
C294 O295 1.211 . S
O295 C294 1.211 . S
C296 O288 1.284 . S
C296 O297 1.273 . S
O297 C296 1.273 . S
O298 Zn289 1.977 . S
O298 C291 1.267 . S
C299 O300 1.160 . S
C299 O306 1.185 . S
O300 C299 1.160 . S
O301 Zn302 1.899 . S
O301 C309 1.284 . S
Zn302 O301 1.899 . S
Zn302 O303 2.032 . S
Zn302 O306 2.086 . S
Zn302 O311 1.977 . S
O303 Zn302 2.032 . S
O303 C307 1.278 . S
C304 O305 1.203 . S
C304 O311 1.267 . S
O305 C304 1.203 . S
O306 C299 1.185 . S
O306 Zn302 2.086 . S
C307 O303 1.278 . S
C307 O308 1.211 . S
O308 C307 1.211 . S
C309 O301 1.284 . S
C309 O310 1.273 . S
O310 C309 1.273 . S
O311 Zn302 1.977 . S
O311 C304 1.267 . S
C312 O313 1.160 . S
C312 O319 1.185 . S
O313 C312 1.160 . S
O314 Zn315 1.899 . S
O314 C322 1.284 . S
Zn315 O314 1.899 . S
Zn315 O316 2.032 . S
Zn315 O319 2.086 . S
Zn315 O324 1.977 . S
O316 Zn315 2.032 . S
O316 C320 1.278 . S
C317 O318 1.203 . S
C317 O324 1.267 . S
O318 C317 1.203 . S
O319 C312 1.185 . S
O319 Zn315 2.086 . S
C320 O316 1.278 . S
C320 O321 1.211 . S
O321 C320 1.211 . S
C322 O314 1.284 . S
C322 O323 1.273 . S
O323 C322 1.273 . S
O324 Zn315 1.977 . S
O324 C317 1.267 . S
C325 O326 1.160 . S
C325 O332 1.185 . S
O326 C325 1.160 . S
O327 Zn328 1.899 . S
O327 C335 1.284 . S
Zn328 O327 1.899 . S
Zn328 O329 2.032 . S
Zn328 O332 2.086 . S
Zn328 O337 1.977 . S
O329 Zn328 2.032 . S
O329 C333 1.278 . S
C330 O331 1.203 . S
C330 O337 1.267 . S
O331 C330 1.203 . S
O332 C325 1.185 . S
O332 Zn328 2.086 . S
C333 O329 1.278 . S
C333 O334 1.211 . S
O334 C333 1.211 . S
C335 O327 1.284 . S
C335 O336 1.273 . S
O336 C335 1.273 . S
O337 Zn328 1.977 . S
O337 C330 1.267 . S
C338 O339 1.160 . S
C338 O345 1.185 . S
O339 C338 1.160 . S
O340 Zn341 1.899 . S
O340 C348 1.284 . S
Zn341 O340 1.899 . S
Zn341 O342 2.032 . S
Zn341 O345 2.086 . S
Zn341 O350 1.977 . S
O342 Zn341 2.032 . S
O342 C346 1.278 . S
C343 O344 1.203 . S
C343 O350 1.267 . S
O344 C343 1.203 . S
O345 C338 1.185 . S
O345 Zn341 2.086 . S
C346 O342 1.278 . S
C346 O347 1.211 . S
O347 C346 1.211 . S
C348 O340 1.284 . S
C348 O349 1.273 . S
O349 C348 1.273 . S
O350 Zn341 1.977 . S
O350 C343 1.267 . S
C351 O352 1.160 . S
C351 O358 1.185 . S
O352 C351 1.160 . S
O353 Zn354 1.899 . S
O353 C361 1.284 . S
Zn354 O353 1.899 . S
Zn354 O355 2.032 . S
Zn354 O358 2.086 . S
Zn354 O363 1.977 . S
O355 Zn354 2.032 . S
O355 C359 1.278 . S
C356 O357 1.203 . S
C356 O363 1.267 . S
O357 C356 1.203 . S
O358 C351 1.185 . S
O358 Zn354 2.086 . S
C359 O355 1.278 . S
C359 O360 1.211 . S
O360 C359 1.211 . S
C361 O353 1.284 . S
C361 O362 1.273 . S
O362 C361 1.273 . S
O363 Zn354 1.977 . S
O363 C356 1.267 . S
C364 O365 1.160 . S
C364 O371 1.185 . S
O365 C364 1.160 . S
O366 Zn367 1.899 . S
O366 C374 1.284 . S
Zn367 O366 1.899 . S
Zn367 O368 2.032 . S
Zn367 O371 2.086 . S
Zn367 O376 1.977 . S
O368 Zn367 2.032 . S
O368 C372 1.278 . S
C369 O370 1.203 . S
C369 O376 1.267 . S
O370 C369 1.203 . S
O371 C364 1.185 . S
O371 Zn367 2.086 . S
C372 O368 1.278 . S
C372 O373 1.211 . S
O373 C372 1.211 . S
C374 O366 1.284 . S
C374 O375 1.273 . S
O375 C374 1.273 . S
O376 Zn367 1.977 . S
O376 C369 1.267 . S
C377 O378 1.160 . S
C377 O384 1.185 . S
O378 C377 1.160 . S
O379 Zn380 1.899 . S
O379 C387 1.284 . S
Zn380 O379 1.899 . S
Zn380 O381 2.032 . S
Zn380 O384 2.086 . S
Zn380 O389 1.977 . S
O381 Zn380 2.032 . S
O381 C385 1.278 . S
C382 O383 1.203 . S
C382 O389 1.267 . S
O383 C382 1.203 . S
O384 C377 1.185 . S
O384 Zn380 2.086 . S
C385 O381 1.278 . S
C385 O386 1.211 . S
O386 C385 1.211 . S
C387 O379 1.284 . S
C387 O388 1.273 . S
O388 C387 1.273 . S
O389 Zn380 1.977 . S
O389 C382 1.267 . S
C390 O391 1.160 . S
C390 O397 1.185 . S
O391 C390 1.160 . S
O392 Zn393 1.899 . S
O392 C400 1.284 . S
Zn393 O392 1.899 . S
Zn393 O394 2.032 . S
Zn393 O397 2.086 . S
Zn393 O402 1.977 . S
O394 Zn393 2.032 . S
O394 C398 1.278 . S
C395 O396 1.203 . S
C395 O402 1.267 . S
O396 C395 1.203 . S
O397 C390 1.185 . S
O397 Zn393 2.086 . S
C398 O394 1.278 . S
C398 O399 1.211 . S
O399 C398 1.211 . S
C400 O392 1.284 . S
C400 O401 1.273 . S
O401 C400 1.273 . S
O402 Zn393 1.977 . S
O402 C395 1.267 . S
C403 O404 1.160 . S
C403 O410 1.185 . S
O404 C403 1.160 . S
O405 Zn406 1.899 . S
O405 C413 1.284 . S
Zn406 O405 1.899 . S
Zn406 O407 2.032 . S
Zn406 O410 2.086 . S
Zn406 O415 1.977 . S
O407 Zn406 2.032 . S
O407 C411 1.278 . S
C408 O409 1.203 . S
C408 O415 1.267 . S
O409 C408 1.203 . S
O410 C403 1.185 . S
O410 Zn406 2.086 . S
C411 O407 1.278 . S
C411 O412 1.211 . S
O412 C411 1.211 . S
C413 O405 1.284 . S
C413 O414 1.273 . S
O414 C413 1.273 . S
O415 Zn406 1.977 . S
O415 C408 1.267 . S
H416 C422 0.930 . S
H417 C425 0.930 . S
H418 C426 0.930 . S
H419 C427 0.930 . S
H420 C430 0.930 . S
H421 C431 0.930 . S
C422 H416 0.930 . S
C422 C423 1.355 . S
C422 C424 1.415 . S
C423 C422 1.355 . S
C423 C425 1.419 . S
C424 C422 1.415 . S
C424 C429 1.425 . S
C424 C431 1.409 . S
C425 H417 0.930 . S
C425 C423 1.419 . S
C425 C426 1.362 . S
C426 H418 0.930 . S
C426 C425 1.362 . S
C426 C429 1.409 . S
C427 H419 0.930 . S
C427 C428 1.355 . S
C427 C429 1.415 . S
C428 C427 1.355 . S
C428 C430 1.419 . S
C429 C424 1.425 . S
C429 C426 1.409 . S
C429 C427 1.415 . S
C430 H420 0.930 . S
C430 C428 1.419 . S
C430 C431 1.362 . S
C431 H421 0.930 . S
C431 C424 1.409 . S
C431 C430 1.362 . S
H432 C438 0.930 . S
H433 C441 0.930 . S
H434 C442 0.930 . S
H435 C443 0.930 . S
H436 C446 0.930 . S
H437 C447 0.930 . S
C438 H432 0.930 . S
C438 C439 1.355 . S
C438 C440 1.415 . S
C439 C438 1.355 . S
C439 C441 1.419 . S
C440 C438 1.415 . S
C440 C445 1.425 . S
C440 C447 1.409 . S
C441 H433 0.930 . S
C441 C439 1.419 . S
C441 C442 1.362 . S
C442 H434 0.930 . S
C442 C441 1.362 . S
C442 C445 1.409 . S
C443 H435 0.930 . S
C443 C444 1.355 . S
C443 C445 1.415 . S
C444 C443 1.355 . S
C444 C446 1.419 . S
C445 C440 1.425 . S
C445 C442 1.409 . S
C445 C443 1.415 . S
C446 H436 0.930 . S
C446 C444 1.419 . S
C446 C447 1.362 . S
C447 H437 0.930 . S
C447 C440 1.409 . S
C447 C446 1.362 . S
H448 C454 0.930 . S
H449 C457 0.930 . S
H450 C458 0.930 . S
H451 C459 0.930 . S
H452 C462 0.930 . S
H453 C463 0.930 . S
C454 H448 0.930 . S
C454 C455 1.355 . S
C454 C456 1.415 . S
C455 C454 1.355 . S
C455 C457 1.419 . S
C456 C454 1.415 . S
C456 C461 1.425 . S
C456 C463 1.409 . S
C457 H449 0.930 . S
C457 C455 1.419 . S
C457 C458 1.362 . S
C458 H450 0.930 . S
C458 C457 1.362 . S
C458 C461 1.409 . S
C459 H451 0.930 . S
C459 C460 1.355 . S
C459 C461 1.415 . S
C460 C459 1.355 . S
C460 C462 1.419 . S
C461 C456 1.425 . S
C461 C458 1.409 . S
C461 C459 1.415 . S
C462 H452 0.930 . S
C462 C460 1.419 . S
C462 C463 1.362 . S
C463 H453 0.930 . S
C463 C456 1.409 . S
C463 C462 1.362 . S
H464 C470 0.930 . S
H465 C473 0.930 . S
H466 C474 0.930 . S
H467 C475 0.930 . S
H468 C478 0.930 . S
H469 C479 0.930 . S
C470 H464 0.930 . S
C470 C471 1.355 . S
C470 C472 1.415 . S
C471 C470 1.355 . S
C471 C473 1.419 . S
C472 C470 1.415 . S
C472 C477 1.425 . S
C472 C479 1.409 . S
C473 H465 0.930 . S
C473 C471 1.419 . S
C473 C474 1.362 . S
C474 H466 0.930 . S
C474 C473 1.362 . S
C474 C477 1.409 . S
C475 H467 0.930 . S
C475 C476 1.355 . S
C475 C477 1.415 . S
C476 C475 1.355 . S
C476 C478 1.419 . S
C477 C472 1.425 . S
C477 C474 1.409 . S
C477 C475 1.415 . S
C478 H468 0.930 . S
C478 C476 1.419 . S
C478 C479 1.362 . S
C479 H469 0.930 . S
C479 C472 1.409 . S
C479 C478 1.362 . S
H480 C486 0.930 . S
H481 C489 0.930 . S
H482 C490 0.930 . S
H483 C491 0.930 . S
H484 C494 0.930 . S
H485 C495 0.930 . S
C486 H480 0.930 . S
C486 C487 1.355 . S
C486 C488 1.415 . S
C487 C486 1.355 . S
C487 C489 1.419 . S
C488 C486 1.415 . S
C488 C493 1.425 . S
C488 C495 1.409 . S
C489 H481 0.930 . S
C489 C487 1.419 . S
C489 C490 1.362 . S
C490 H482 0.930 . S
C490 C489 1.362 . S
C490 C493 1.409 . S
C491 H483 0.930 . S
C491 C492 1.355 . S
C491 C493 1.415 . S
C492 C491 1.355 . S
C492 C494 1.419 . S
C493 C488 1.425 . S
C493 C490 1.409 . S
C493 C491 1.415 . S
C494 H484 0.930 . S
C494 C492 1.419 . S
C494 C495 1.362 . S
C495 H485 0.930 . S
C495 C488 1.409 . S
C495 C494 1.362 . S
H496 C502 0.930 . S
H497 C505 0.930 . S
H498 C506 0.930 . S
H499 C507 0.930 . S
H500 C510 0.930 . S
H501 C511 0.930 . S
C502 H496 0.930 . S
C502 C503 1.355 . S
C502 C504 1.415 . S
C503 C502 1.355 . S
C503 C505 1.419 . S
C504 C502 1.415 . S
C504 C509 1.425 . S
C504 C511 1.409 . S
C505 H497 0.930 . S
C505 C503 1.419 . S
C505 C506 1.362 . S
C506 H498 0.930 . S
C506 C505 1.362 . S
C506 C509 1.409 . S
C507 H499 0.930 . S
C507 C508 1.355 . S
C507 C509 1.415 . S
C508 C507 1.355 . S
C508 C510 1.419 . S
C509 C504 1.425 . S
C509 C506 1.409 . S
C509 C507 1.415 . S
C510 H500 0.930 . S
C510 C508 1.419 . S
C510 C511 1.362 . S
C511 H501 0.930 . S
C511 C504 1.409 . S
C511 C510 1.362 . S
H512 C518 0.930 . S
H513 C521 0.930 . S
H514 C522 0.930 . S
H515 C523 0.930 . S
H516 C526 0.930 . S
H517 C527 0.930 . S
C518 H512 0.930 . S
C518 C519 1.355 . S
C518 C520 1.415 . S
C519 C518 1.355 . S
C519 C521 1.419 . S
C520 C518 1.415 . S
C520 C525 1.425 . S
C520 C527 1.409 . S
C521 H513 0.930 . S
C521 C519 1.419 . S
C521 C522 1.362 . S
C522 H514 0.930 . S
C522 C521 1.362 . S
C522 C525 1.409 . S
C523 H515 0.930 . S
C523 C524 1.355 . S
C523 C525 1.415 . S
C524 C523 1.355 . S
C524 C526 1.419 . S
C525 C520 1.425 . S
C525 C522 1.409 . S
C525 C523 1.415 . S
C526 H516 0.930 . S
C526 C524 1.419 . S
C526 C527 1.362 . S
C527 H517 0.930 . S
C527 C520 1.409 . S
C527 C526 1.362 . S
H528 C534 0.930 . S
H529 C537 0.930 . S
H530 C538 0.930 . S
H531 C539 0.930 . S
H532 C542 0.930 . S
H533 C543 0.930 . S
C534 H528 0.930 . S
C534 C535 1.355 . S
C534 C536 1.415 . S
C535 C534 1.355 . S
C535 C537 1.419 . S
C536 C534 1.415 . S
C536 C541 1.425 . S
C536 C543 1.409 . S
C537 H529 0.930 . S
C537 C535 1.419 . S
C537 C538 1.362 . S
C538 H530 0.930 . S
C538 C537 1.362 . S
C538 C541 1.409 . S
C539 H531 0.930 . S
C539 C540 1.355 . S
C539 C541 1.415 . S
C540 C539 1.355 . S
C540 C542 1.419 . S
C541 C536 1.425 . S
C541 C538 1.409 . S
C541 C539 1.415 . S
C542 H532 0.930 . S
C542 C540 1.419 . S
C542 C543 1.362 . S
C543 H533 0.930 . S
C543 C536 1.409 . S
C543 C542 1.362 . S
H544 C550 0.930 . S
H545 C553 0.930 . S
H546 C554 0.930 . S
H547 C555 0.930 . S
H548 C558 0.930 . S
H549 C559 0.930 . S
C550 H544 0.930 . S
C550 C551 1.355 . S
C550 C552 1.415 . S
C551 C550 1.355 . S
C551 C553 1.419 . S
C552 C550 1.415 . S
C552 C557 1.425 . S
C552 C559 1.409 . S
C553 H545 0.930 . S
C553 C551 1.419 . S
C553 C554 1.362 . S
C554 H546 0.930 . S
C554 C553 1.362 . S
C554 C557 1.409 . S
C555 H547 0.930 . S
C555 C556 1.355 . S
C555 C557 1.415 . S
C556 C555 1.355 . S
C556 C558 1.419 . S
C557 C552 1.425 . S
C557 C554 1.409 . S
C557 C555 1.415 . S
C558 H548 0.930 . S
C558 C556 1.419 . S
C558 C559 1.362 . S
C559 H549 0.930 . S
C559 C552 1.409 . S
C559 C558 1.362 . S
H560 C566 0.930 . S
H561 C569 0.930 . S
H562 C570 0.930 . S
H563 C571 0.930 . S
H564 C574 0.930 . S
H565 C575 0.930 . S
C566 H560 0.930 . S
C566 C567 1.355 . S
C566 C568 1.415 . S
C567 C566 1.355 . S
C567 C569 1.419 . S
C568 C566 1.415 . S
C568 C573 1.425 . S
C568 C575 1.409 . S
C569 H561 0.930 . S
C569 C567 1.419 . S
C569 C570 1.362 . S
C570 H562 0.930 . S
C570 C569 1.362 . S
C570 C573 1.409 . S
C571 H563 0.930 . S
C571 C572 1.355 . S
C571 C573 1.415 . S
C572 C571 1.355 . S
C572 C574 1.419 . S
C573 C568 1.425 . S
C573 C570 1.409 . S
C573 C571 1.415 . S
C574 H564 0.930 . S
C574 C572 1.419 . S
C574 C575 1.362 . S
C575 H565 0.930 . S
C575 C568 1.409 . S
C575 C574 1.362 . S
H576 C582 0.930 . S
H577 C585 0.930 . S
H578 C586 0.930 . S
H579 C587 0.930 . S
H580 C590 0.930 . S
H581 C591 0.930 . S
C582 H576 0.930 . S
C582 C583 1.355 . S
C582 C584 1.415 . S
C583 C582 1.355 . S
C583 C585 1.419 . S
C584 C582 1.415 . S
C584 C589 1.425 . S
C584 C591 1.409 . S
C585 H577 0.930 . S
C585 C583 1.419 . S
C585 C586 1.362 . S
C586 H578 0.930 . S
C586 C585 1.362 . S
C586 C589 1.409 . S
C587 H579 0.930 . S
C587 C588 1.355 . S
C587 C589 1.415 . S
C588 C587 1.355 . S
C588 C590 1.419 . S
C589 C584 1.425 . S
C589 C586 1.409 . S
C589 C587 1.415 . S
C590 H580 0.930 . S
C590 C588 1.419 . S
C590 C591 1.362 . S
C591 H581 0.930 . S
C591 C584 1.409 . S
C591 C590 1.362 . S
H592 C598 0.930 . S
H593 C601 0.930 . S
H594 C602 0.930 . S
H595 C603 0.930 . S
H596 C606 0.930 . S
H597 C607 0.930 . S
C598 H592 0.930 . S
C598 C599 1.355 . S
C598 C600 1.415 . S
C599 C598 1.355 . S
C599 C601 1.419 . S
C600 C598 1.415 . S
C600 C605 1.425 . S
C600 C607 1.409 . S
C601 H593 0.930 . S
C601 C599 1.419 . S
C601 C602 1.362 . S
C602 H594 0.930 . S
C602 C601 1.362 . S
C602 C605 1.409 . S
C603 H595 0.930 . S
C603 C604 1.355 . S
C603 C605 1.415 . S
C604 C603 1.355 . S
C604 C606 1.419 . S
C605 C600 1.425 . S
C605 C602 1.409 . S
C605 C603 1.415 . S
C606 H596 0.930 . S
C606 C604 1.419 . S
C606 C607 1.362 . S
C607 H597 0.930 . S
C607 C600 1.409 . S
C607 C606 1.362 . S
H608 C614 0.930 . S
H609 C617 0.930 . S
H610 C618 0.930 . S
H611 C619 0.930 . S
H612 C622 0.930 . S
H613 C623 0.930 . S
C614 H608 0.930 . S
C614 C615 1.355 . S
C614 C616 1.415 . S
C615 C614 1.355 . S
C615 C617 1.419 . S
C616 C614 1.415 . S
C616 C621 1.425 . S
C616 C623 1.409 . S
C617 H609 0.930 . S
C617 C615 1.419 . S
C617 C618 1.362 . S
C618 H610 0.930 . S
C618 C617 1.362 . S
C618 C621 1.409 . S
C619 H611 0.930 . S
C619 C620 1.355 . S
C619 C621 1.415 . S
C620 C619 1.355 . S
C620 C622 1.419 . S
C621 C616 1.425 . S
C621 C618 1.409 . S
C621 C619 1.415 . S
C622 H612 0.930 . S
C622 C620 1.419 . S
C622 C623 1.362 . S
C623 H613 0.930 . S
C623 C616 1.409 . S
C623 C622 1.362 . S
H624 C630 0.930 . S
H625 C633 0.930 . S
H626 C634 0.930 . S
H627 C635 0.930 . S
H628 C638 0.930 . S
H629 C639 0.930 . S
C630 H624 0.930 . S
C630 C631 1.355 . S
C630 C632 1.415 . S
C631 C630 1.355 . S
C631 C633 1.419 . S
C632 C630 1.415 . S
C632 C637 1.425 . S
C632 C639 1.409 . S
C633 H625 0.930 . S
C633 C631 1.419 . S
C633 C634 1.362 . S
C634 H626 0.930 . S
C634 C633 1.362 . S
C634 C637 1.409 . S
C635 H627 0.930 . S
C635 C636 1.355 . S
C635 C637 1.415 . S
C636 C635 1.355 . S
C636 C638 1.419 . S
C637 C632 1.425 . S
C637 C634 1.409 . S
C637 C635 1.415 . S
C638 H628 0.930 . S
C638 C636 1.419 . S
C638 C639 1.362 . S
C639 H629 0.930 . S
C639 C632 1.409 . S
C639 C638 1.362 . S
H640 C646 0.930 . S
H641 C649 0.930 . S
H642 C650 0.930 . S
H643 C651 0.930 . S
H644 C654 0.930 . S
H645 C655 0.930 . S
C646 H640 0.930 . S
C646 C647 1.355 . S
C646 C648 1.415 . S
C647 C646 1.355 . S
C647 C649 1.419 . S
C648 C646 1.415 . S
C648 C653 1.425 . S
C648 C655 1.409 . S
C649 H641 0.930 . S
C649 C647 1.419 . S
C649 C650 1.362 . S
C650 H642 0.930 . S
C650 C649 1.362 . S
C650 C653 1.409 . S
C651 H643 0.930 . S
C651 C652 1.355 . S
C651 C653 1.415 . S
C652 C651 1.355 . S
C652 C654 1.419 . S
C653 C648 1.425 . S
C653 C650 1.409 . S
C653 C651 1.415 . S
C654 H644 0.930 . S
C654 C652 1.419 . S
C654 C655 1.362 . S
C655 H645 0.930 . S
C655 C648 1.409 . S
C655 C654 1.362 . S
H656 C662 0.930 . S
H657 C665 0.930 . S
H658 C666 0.930 . S
H659 C667 0.930 . S
H660 C670 0.930 . S
H661 C671 0.930 . S
C662 H656 0.930 . S
C662 C663 1.355 . S
C662 C664 1.415 . S
C663 C662 1.355 . S
C663 C665 1.419 . S
C664 C662 1.415 . S
C664 C669 1.425 . S
C664 C671 1.409 . S
C665 H657 0.930 . S
C665 C663 1.419 . S
C665 C666 1.362 . S
C666 H658 0.930 . S
C666 C665 1.362 . S
C666 C669 1.409 . S
C667 H659 0.930 . S
C667 C668 1.355 . S
C667 C669 1.415 . S
C668 C667 1.355 . S
C668 C670 1.419 . S
C669 C664 1.425 . S
C669 C666 1.409 . S
C669 C667 1.415 . S
C670 H660 0.930 . S
C670 C668 1.419 . S
C670 C671 1.362 . S
C671 H661 0.930 . S
C671 C664 1.409 . S
C671 C670 1.362 . S
H672 C678 0.930 . S
H673 C681 0.930 . S
H674 C682 0.930 . S
H675 C683 0.930 . S
H676 C686 0.930 . S
H677 C687 0.930 . S
C678 H672 0.930 . S
C678 C679 1.355 . S
C678 C680 1.415 . S
C679 C678 1.355 . S
C679 C681 1.419 . S
C680 C678 1.415 . S
C680 C685 1.425 1_455 S
C680 C687 1.409 1_455 S
C681 H673 0.930 . S
C681 C679 1.419 . S
C681 C682 1.362 . S
C682 H674 0.930 . S
C682 C681 1.362 . S
C682 C685 1.409 1_455 S
C683 H675 0.930 . S
C683 C684 1.355 . S
C683 C685 1.415 . S
C684 C683 1.355 . S
C684 C686 1.419 . S
C685 C680 1.425 1_655 S
C685 C682 1.409 1_655 S
C685 C683 1.415 . S
C686 H676 0.930 . S
C686 C684 1.419 . S
C686 C687 1.362 . S
C687 H677 0.930 . S
C687 C680 1.409 1_655 S
C687 C686 1.362 . S
H688 C694 0.930 . S
H689 C697 0.930 . S
H690 C698 0.930 . S
H691 C699 0.930 . S
H692 C702 0.930 . S
H693 C703 0.930 . S
C694 H688 0.930 . S
C694 C695 1.355 . S
C694 C696 1.415 . S
C695 C694 1.355 . S
C695 C697 1.419 . S
C696 C694 1.415 . S
C696 C701 1.425 . S
C696 C703 1.409 . S
C697 H689 0.930 . S
C697 C695 1.419 . S
C697 C698 1.362 . S
C698 H690 0.930 . S
C698 C697 1.362 . S
C698 C701 1.409 . S
C699 H691 0.930 . S
C699 C700 1.355 . S
C699 C701 1.415 . S
C700 C699 1.355 . S
C700 C702 1.419 . S
C701 C696 1.425 . S
C701 C698 1.409 . S
C701 C699 1.415 . S
C702 H692 0.930 . S
C702 C700 1.419 . S
C702 C703 1.362 . S
C703 H693 0.930 . S
C703 C696 1.409 . S
C703 C702 1.362 . S
H704 C710 0.930 . S
H705 C713 0.930 . S
H706 C714 0.930 . S
H707 C715 0.930 . S
H708 C718 0.930 . S
H709 C719 0.930 . S
C710 H704 0.930 . S
C710 C711 1.355 . S
C710 C712 1.415 . S
C711 C710 1.355 . S
C711 C713 1.419 . S
C712 C710 1.415 . S
C712 C717 1.425 . S
C712 C719 1.409 . S
C713 H705 0.930 . S
C713 C711 1.419 . S
C713 C714 1.362 . S
C714 H706 0.930 . S
C714 C713 1.362 . S
C714 C717 1.409 . S
C715 H707 0.930 . S
C715 C716 1.355 . S
C715 C717 1.415 . S
C716 C715 1.355 . S
C716 C718 1.419 . S
C717 C712 1.425 . S
C717 C714 1.409 . S
C717 C715 1.415 . S
C718 H708 0.930 . S
C718 C716 1.419 . S
C718 C719 1.362 . S
C719 H709 0.930 . S
C719 C712 1.409 . S
C719 C718 1.362 . S
H720 C726 0.930 . S
H721 C729 0.930 . S
H722 C730 0.930 . S
H723 C731 0.930 . S
H724 C734 0.930 . S
H725 C735 0.930 . S
C726 H720 0.930 . S
C726 C727 1.355 . S
C726 C728 1.415 . S
C727 C726 1.355 . S
C727 C729 1.419 . S
C728 C726 1.415 . S
C728 C733 1.425 . S
C728 C735 1.409 . S
C729 H721 0.930 . S
C729 C727 1.419 . S
C729 C730 1.362 . S
C730 H722 0.930 . S
C730 C729 1.362 . S
C730 C733 1.409 . S
C731 H723 0.930 . S
C731 C732 1.355 . S
C731 C733 1.415 . S
C732 C731 1.355 . S
C732 C734 1.419 . S
C733 C728 1.425 . S
C733 C730 1.409 . S
C733 C731 1.415 . S
C734 H724 0.930 . S
C734 C732 1.419 . S
C734 C735 1.362 . S
C735 H725 0.930 . S
C735 C728 1.409 . S
C735 C734 1.362 . S
H736 C742 0.930 . S
H737 C745 0.930 . S
H738 C746 0.930 . S
H739 C747 0.930 . S
H740 C750 0.930 . S
H741 C751 0.930 . S
C742 H736 0.930 . S
C742 C743 1.355 . S
C742 C744 1.415 . S
C743 C742 1.355 . S
C743 C745 1.419 . S
C744 C742 1.415 . S
C744 C749 1.425 1_655 S
C744 C751 1.409 1_655 S
C745 H737 0.930 . S
C745 C743 1.419 . S
C745 C746 1.362 . S
C746 H738 0.930 . S
C746 C745 1.362 . S
C746 C749 1.409 1_655 S
C747 H739 0.930 . S
C747 C748 1.355 . S
C747 C749 1.415 . S
C748 C747 1.355 . S
C748 C750 1.419 . S
C749 C744 1.425 1_455 S
C749 C746 1.409 1_455 S
C749 C747 1.415 . S
C750 H740 0.930 . S
C750 C748 1.419 . S
C750 C751 1.362 . S
C751 H741 0.930 . S
C751 C744 1.409 1_455 S
C751 C750 1.362 . S
H752 C758 0.930 . S
H753 C761 0.930 . S
H754 C762 0.930 . S
H755 C763 0.930 . S
H756 C766 0.930 . S
H757 C767 0.930 . S
C758 H752 0.930 . S
C758 C759 1.355 . S
C758 C760 1.415 . S
C759 C758 1.355 . S
C759 C761 1.419 . S
C760 C758 1.415 . S
C760 C765 1.425 . S
C760 C767 1.409 . S
C761 H753 0.930 . S
C761 C759 1.419 . S
C761 C762 1.362 . S
C762 H754 0.930 . S
C762 C761 1.362 . S
C762 C765 1.409 . S
C763 H755 0.930 . S
C763 C764 1.355 . S
C763 C765 1.415 . S
C764 C763 1.355 . S
C764 C766 1.419 . S
C765 C760 1.425 . S
C765 C762 1.409 . S
C765 C763 1.415 . S
C766 H756 0.930 . S
C766 C764 1.419 . S
C766 C767 1.362 . S
C767 H757 0.930 . S
C767 C760 1.409 . S
C767 C766 1.362 . S
H768 C774 0.930 . S
H769 C777 0.930 . S
H770 C778 0.930 . S
H771 C779 0.930 . S
H772 C782 0.930 . S
H773 C783 0.930 . S
C774 H768 0.930 . S
C774 C775 1.355 . S
C774 C776 1.415 . S
C775 C774 1.355 . S
C775 C777 1.419 . S
C776 C774 1.415 . S
C776 C781 1.425 . S
C776 C783 1.409 . S
C777 H769 0.930 . S
C777 C775 1.419 . S
C777 C778 1.362 . S
C778 H770 0.930 . S
C778 C777 1.362 . S
C778 C781 1.409 . S
C779 H771 0.930 . S
C779 C780 1.355 . S
C779 C781 1.415 . S
C780 C779 1.355 . S
C780 C782 1.419 . S
C781 C776 1.425 . S
C781 C778 1.409 . S
C781 C779 1.415 . S
C782 H772 0.930 . S
C782 C780 1.419 . S
C782 C783 1.362 . S
C783 H773 0.930 . S
C783 C776 1.409 . S
C783 C782 1.362 . S
H784 C790 0.930 . S
H785 C793 0.930 . S
H786 C794 0.930 . S
H787 C795 0.930 . S
H788 C798 0.930 . S
H789 C799 0.930 . S
C790 H784 0.930 . S
C790 C791 1.355 . S
C790 C792 1.415 . S
C791 C790 1.355 . S
C791 C793 1.419 . S
C792 C790 1.415 . S
C792 C797 1.425 . S
C792 C799 1.409 . S
C793 H785 0.930 . S
C793 C791 1.419 . S
C793 C794 1.362 . S
C794 H786 0.930 . S
C794 C793 1.362 . S
C794 C797 1.409 . S
C795 H787 0.930 . S
C795 C796 1.355 . S
C795 C797 1.415 . S
C796 C795 1.355 . S
C796 C798 1.419 . S
C797 C792 1.425 . S
C797 C794 1.409 . S
C797 C795 1.415 . S
C798 H788 0.930 . S
C798 C796 1.419 . S
C798 C799 1.362 . S
C799 H789 0.930 . S
C799 C792 1.409 . S
C799 C798 1.362 . S
H800 C806 0.930 . S
H801 C809 0.930 . S
H802 C810 0.930 . S
H803 C811 0.930 . S
H804 C814 0.930 . S
H805 C815 0.930 . S
C806 H800 0.930 . S
C806 C807 1.355 . S
C806 C808 1.415 . S
C807 C806 1.355 . S
C807 C809 1.419 . S
C808 C806 1.415 . S
C808 C813 1.425 . S
C808 C815 1.409 . S
C809 H801 0.930 . S
C809 C807 1.419 . S
C809 C810 1.362 . S
C810 H802 0.930 . S
C810 C809 1.362 . S
C810 C813 1.409 . S
C811 H803 0.930 . S
C811 C812 1.355 . S
C811 C813 1.415 . S
C812 C811 1.355 . S
C812 C814 1.419 . S
C813 C808 1.425 . S
C813 C810 1.409 . S
C813 C811 1.415 . S
C814 H804 0.930 . S
C814 C812 1.419 . S
C814 C815 1.362 . S
C815 H805 0.930 . S
C815 C808 1.409 . S
C815 C814 1.362 . S
H816 C822 0.930 . S
H817 C825 0.930 . S
H818 C826 0.930 . S
H819 C827 0.930 . S
H820 C830 0.930 . S
H821 C831 0.930 . S
C822 H816 0.930 . S
C822 C823 1.355 . S
C822 C824 1.415 . S
C823 C822 1.355 . S
C823 C825 1.419 . S
C824 C822 1.415 . S
C824 C829 1.425 . S
C824 C831 1.409 . S
C825 H817 0.930 . S
C825 C823 1.419 . S
C825 C826 1.362 . S
C826 H818 0.930 . S
C826 C825 1.362 . S
C826 C829 1.409 . S
C827 H819 0.930 . S
C827 C828 1.355 . S
C827 C829 1.415 . S
C828 C827 1.355 . S
C828 C830 1.419 . S
C829 C824 1.425 . S
C829 C826 1.409 . S
C829 C827 1.415 . S
C830 H820 0.930 . S
C830 C828 1.419 . S
C830 C831 1.362 . S
C831 H821 0.930 . S
C831 C824 1.409 . S
C831 C830 1.362 . S
H832 C838 0.930 . S
H833 C841 0.930 . S
H834 C842 0.930 . S
H835 C843 0.930 . S
H836 C846 0.930 . S
H837 C847 0.930 . S
C838 H832 0.930 . S
C838 C839 1.355 . S
C838 C840 1.415 . S
C839 C838 1.355 . S
C839 C841 1.419 . S
C840 C838 1.415 . S
C840 C845 1.425 . S
C840 C847 1.409 . S
C841 H833 0.930 . S
C841 C839 1.419 . S
C841 C842 1.362 . S
C842 H834 0.930 . S
C842 C841 1.362 . S
C842 C845 1.409 . S
C843 H835 0.930 . S
C843 C844 1.355 . S
C843 C845 1.415 . S
C844 C843 1.355 . S
C844 C846 1.419 . S
C845 C840 1.425 . S
C845 C842 1.409 . S
C845 C843 1.415 . S
C846 H836 0.930 . S
C846 C844 1.419 . S
C846 C847 1.362 . S
C847 H837 0.930 . S
C847 C840 1.409 . S
C847 C846 1.362 . S
H848 C854 0.930 . S
H849 C857 0.930 . S
H850 C858 0.930 . S
H851 C859 0.930 . S
H852 C862 0.930 . S
H853 C863 0.930 . S
C854 H848 0.930 . S
C854 C855 1.355 . S
C854 C856 1.415 . S
C855 C854 1.355 . S
C855 C857 1.419 . S
C856 C854 1.415 . S
C856 C861 1.425 . S
C856 C863 1.409 . S
C857 H849 0.930 . S
C857 C855 1.419 . S
C857 C858 1.362 . S
C858 H850 0.930 . S
C858 C857 1.362 . S
C858 C861 1.409 . S
C859 H851 0.930 . S
C859 C860 1.355 . S
C859 C861 1.415 . S
C860 C859 1.355 . S
C860 C862 1.419 . S
C861 C856 1.425 . S
C861 C858 1.409 . S
C861 C859 1.415 . S
C862 H852 0.930 . S
C862 C860 1.419 . S
C862 C863 1.362 . S
C863 H853 0.930 . S
C863 C856 1.409 . S
C863 C862 1.362 . S
H864 C870 0.930 . S
H865 C873 0.930 . S
H866 C874 0.930 . S
H867 C875 0.930 . S
H868 C878 0.930 . S
H869 C879 0.930 . S
C870 H864 0.930 . S
C870 C871 1.355 . S
C870 C872 1.415 . S
C871 C870 1.355 . S
C871 C873 1.419 . S
C872 C870 1.415 . S
C872 C877 1.425 . S
C872 C879 1.409 . S
C873 H865 0.930 . S
C873 C871 1.419 . S
C873 C874 1.362 . S
C874 H866 0.930 . S
C874 C873 1.362 . S
C874 C877 1.409 . S
C875 H867 0.930 . S
C875 C876 1.355 . S
C875 C877 1.415 . S
C876 C875 1.355 . S
C876 C878 1.419 . S
C877 C872 1.425 . S
C877 C874 1.409 . S
C877 C875 1.415 . S
C878 H868 0.930 . S
C878 C876 1.419 . S
C878 C879 1.362 . S
C879 H869 0.930 . S
C879 C872 1.409 . S
C879 C878 1.362 . S
H880 C886 0.930 . S
H881 C889 0.930 . S
H882 C890 0.930 . S
H883 C891 0.930 . S
H884 C894 0.930 . S
H885 C895 0.930 . S
C886 H880 0.930 . S
C886 C887 1.355 . S
C886 C888 1.415 . S
C887 C886 1.355 . S
C887 C889 1.419 . S
C888 C886 1.415 . S
C888 C893 1.425 1_655 S
C888 C895 1.409 1_655 S
C889 H881 0.930 . S
C889 C887 1.419 . S
C889 C890 1.362 . S
C890 H882 0.930 . S
C890 C889 1.362 . S
C890 C893 1.409 1_655 S
C891 H883 0.930 . S
C891 C892 1.355 . S
C891 C893 1.415 . S
C892 C891 1.355 . S
C892 C894 1.419 . S
C893 C888 1.425 1_455 S
C893 C890 1.409 1_455 S
C893 C891 1.415 . S
C894 H884 0.930 . S
C894 C892 1.419 . S
C894 C895 1.362 . S
C895 H885 0.930 . S
C895 C888 1.409 1_455 S
C895 C894 1.362 . S
H896 C902 0.930 . S
H897 C905 0.930 . S
H898 C906 0.930 . S
H899 C907 0.930 . S
H900 C910 0.930 . S
H901 C911 0.930 . S
C902 H896 0.930 . S
C902 C903 1.355 . S
C902 C904 1.415 . S
C903 C902 1.355 . S
C903 C905 1.419 . S
C904 C902 1.415 . S
C904 C909 1.425 . S
C904 C911 1.409 . S
C905 H897 0.930 . S
C905 C903 1.419 . S
C905 C906 1.362 . S
C906 H898 0.930 . S
C906 C905 1.362 . S
C906 C909 1.409 . S
C907 H899 0.930 . S
C907 C908 1.355 . S
C907 C909 1.415 . S
C908 C907 1.355 . S
C908 C910 1.419 . S
C909 C904 1.425 . S
C909 C906 1.409 . S
C909 C907 1.415 . S
C910 H900 0.930 . S
C910 C908 1.419 . S
C910 C911 1.362 . S
C911 H901 0.930 . S
C911 C904 1.409 . S
C911 C910 1.362 . S
H912 C918 0.930 . S
H913 C921 0.930 . S
H914 C922 0.930 . S
H915 C923 0.930 . S
H916 C926 0.930 . S
H917 C927 0.930 . S
C918 H912 0.930 . S
C918 C919 1.355 . S
C918 C920 1.415 . S
C919 C918 1.355 . S
C919 C921 1.419 . S
C920 C918 1.415 . S
C920 C925 1.425 1_455 S
C920 C927 1.409 1_455 S
C921 H913 0.930 . S
C921 C919 1.419 . S
C921 C922 1.362 . S
C922 H914 0.930 . S
C922 C921 1.362 . S
C922 C925 1.409 1_455 S
C923 H915 0.930 . S
C923 C924 1.355 . S
C923 C925 1.415 . S
C924 C923 1.355 . S
C924 C926 1.419 . S
C925 C920 1.425 1_655 S
C925 C922 1.409 1_655 S
C925 C923 1.415 . S
C926 H916 0.930 . S
C926 C924 1.419 . S
C926 C927 1.362 . S
C927 H917 0.930 . S
C927 C920 1.409 1_655 S
C927 C926 1.362 . S
H928 C934 0.930 . S
H929 C937 0.939 . S
H930 C938 0.930 . S
H931 C939 0.930 . S
H932 C942 0.939 . S
H933 C943 0.930 . S
C934 H928 0.930 . S
C934 C935 1.355 . S
C934 C936 1.415 . S
C935 C934 1.355 . S
C935 C937 1.387 1_556 S
C936 C934 1.415 . S
C936 C941 1.425 1_556 S
C936 C943 1.409 . S
C937 H929 0.939 . S
C937 C935 1.387 1_554 S
C937 C938 1.386 . S
C938 H930 0.930 . S
C938 C937 1.386 . S
C938 C941 1.409 . S
C939 H931 0.930 . S
C939 C940 1.355 . S
C939 C941 1.415 . S
C940 C939 1.355 . S
C940 C942 1.387 1_554 S
C941 C936 1.425 1_554 S
C941 C938 1.409 . S
C941 C939 1.415 . S
C942 H932 0.939 . S
C942 C940 1.387 1_556 S
C942 C943 1.386 . S
C943 H933 0.930 . S
C943 C936 1.409 . S
C943 C942 1.386 . S
H944 C950 0.930 . S
H945 C953 0.930 . S
H946 C954 0.930 . S
H947 C955 0.930 . S
H948 C958 0.930 . S
H949 C959 0.930 . S
C950 H944 0.930 . S
C950 C951 1.355 . S
C950 C952 1.415 . S
C951 C950 1.355 . S
C951 C953 1.419 . S
C952 C950 1.415 . S
C952 C957 1.425 . S
C952 C959 1.409 . S
C953 H945 0.930 . S
C953 C951 1.419 . S
C953 C954 1.362 . S
C954 H946 0.930 . S
C954 C953 1.362 . S
C954 C957 1.409 . S
C955 H947 0.930 . S
C955 C956 1.355 . S
C955 C957 1.415 . S
C956 C955 1.355 . S
C956 C958 1.419 . S
C957 C952 1.425 . S
C957 C954 1.409 . S
C957 C955 1.415 . S
C958 H948 0.930 . S
C958 C956 1.419 . S
C958 C959 1.362 . S
C959 H949 0.930 . S
C959 C952 1.409 . S
C959 C958 1.362 . S
H960 C966 0.930 . S
H961 C969 0.930 . S
H962 C970 0.930 . S
H963 C971 0.930 . S
H964 C974 0.930 . S
H965 C975 0.930 . S
C966 H960 0.930 . S
C966 C967 1.355 . S
C966 C968 1.415 . S
C967 C966 1.355 . S
C967 C969 1.419 . S
C968 C966 1.415 . S
C968 C973 1.425 . S
C968 C975 1.409 . S
C969 H961 0.930 . S
C969 C967 1.419 . S
C969 C970 1.362 . S
C970 H962 0.930 . S
C970 C969 1.362 . S
C970 C973 1.409 . S
C971 H963 0.930 . S
C971 C972 1.355 . S
C971 C973 1.415 . S
C972 C971 1.355 . S
C972 C974 1.419 . S
C973 C968 1.425 . S
C973 C970 1.409 . S
C973 C971 1.415 . S
C974 H964 0.930 . S
C974 C972 1.419 . S
C974 C975 1.362 . S
C975 H965 0.930 . S
C975 C968 1.409 . S
C975 C974 1.362 . S
H976 C982 0.930 . S
H977 C985 0.930 . S
H978 C986 0.930 . S
H979 C987 0.930 . S
H980 C990 0.930 . S
H981 C991 0.930 . S
C982 H976 0.930 . S
C982 C983 1.355 . S
C982 C984 1.415 . S
C983 C982 1.355 . S
C983 C985 1.419 . S
C984 C982 1.415 . S
C984 C989 1.425 . S
C984 C991 1.409 . S
C985 H977 0.930 . S
C985 C983 1.419 . S
C985 C986 1.362 . S
C986 H978 0.930 . S
C986 C985 1.362 . S
C986 C989 1.409 . S
C987 H979 0.930 . S
C987 C988 1.355 . S
C987 C989 1.415 . S
C988 C987 1.355 . S
C988 C990 1.419 . S
C989 C984 1.425 . S
C989 C986 1.409 . S
C989 C987 1.415 . S
C990 H980 0.930 . S
C990 C988 1.419 . S
C990 C991 1.362 . S
C991 H981 0.930 . S
C991 C984 1.409 . S
C991 C990 1.362 . S
H992 C998 0.930 . S
H993 C1001 0.930 . S
H994 C1002 0.930 . S
H995 C1003 0.930 . S
H996 C1006 0.930 . S
H997 C1007 0.930 . S
C998 H992 0.930 . S
C998 C999 1.355 . S
C998 C1000 1.415 . S
C999 C998 1.355 . S
C999 C1001 1.419 . S
C1000 C998 1.415 . S
C1000 C1005 1.425 1_554 S
C1000 C1007 1.409 . S
C1001 H993 0.930 . S
C1001 C999 1.419 . S
C1001 C1002 1.362 1_554 S
C1002 H994 0.930 . S
C1002 C1001 1.362 1_556 S
C1002 C1005 1.409 . S
C1003 H995 0.930 . S
C1003 C1004 1.355 . S
C1003 C1005 1.415 . S
C1004 C1003 1.355 . S
C1004 C1006 1.419 . S
C1005 C1000 1.425 1_556 S
C1005 C1002 1.409 . S
C1005 C1003 1.415 . S
C1006 H996 0.930 . S
C1006 C1004 1.419 . S
C1006 C1007 1.362 1_556 S
C1007 H997 0.930 . S
C1007 C1000 1.409 . S
C1007 C1006 1.362 1_554 S
H1008 C1014 0.930 . S
H1009 C1017 0.930 . S
H1010 C1018 0.930 . S
H1011 C1019 0.930 . S
H1012 C1022 0.930 . S
H1013 C1023 0.930 . S
C1014 H1008 0.930 . S
C1014 C1015 1.355 . S
C1014 C1016 1.415 . S
C1015 C1014 1.355 . S
C1015 C1017 1.419 . S
C1016 C1014 1.415 . S
C1016 C1021 1.425 . S
C1016 C1023 1.409 . S
C1017 H1009 0.930 . S
C1017 C1015 1.419 . S
C1017 C1018 1.362 . S
C1018 H1010 0.930 . S
C1018 C1017 1.362 . S
C1018 C1021 1.409 . S
C1019 H1011 0.930 . S
C1019 C1020 1.355 . S
C1019 C1021 1.415 . S
C1020 C1019 1.355 . S
C1020 C1022 1.419 . S
C1021 C1016 1.425 . S
C1021 C1018 1.409 . S
C1021 C1019 1.415 . S
C1022 H1012 0.930 . S
C1022 C1020 1.419 . S
C1022 C1023 1.362 . S
C1023 H1013 0.930 . S
C1023 C1016 1.409 . S
C1023 C1022 1.362 . S
H1024 C1030 0.930 . S
H1025 C1033 0.930 . S
H1026 C1034 0.930 . S
H1027 C1035 0.930 . S
H1028 C1038 0.930 . S
H1029 C1039 0.930 . S
C1030 H1024 0.930 . S
C1030 C1031 1.355 . S
C1030 C1032 1.415 . S
C1031 C1030 1.355 . S
C1031 C1033 1.419 . S
C1032 C1030 1.415 . S
C1032 C1037 1.425 . S
C1032 C1039 1.409 . S
C1033 H1025 0.930 . S
C1033 C1031 1.419 . S
C1033 C1034 1.362 . S
C1034 H1026 0.930 . S
C1034 C1033 1.362 . S
C1034 C1037 1.409 . S
C1035 H1027 0.930 . S
C1035 C1036 1.355 . S
C1035 C1037 1.415 . S
C1036 C1035 1.355 . S
C1036 C1038 1.419 . S
C1037 C1032 1.425 . S
C1037 C1034 1.409 . S
C1037 C1035 1.415 . S
C1038 H1028 0.930 . S
C1038 C1036 1.419 . S
C1038 C1039 1.362 . S
C1039 H1029 0.930 . S
C1039 C1032 1.409 . S
C1039 C1038 1.362 . S
H1040 C1046 0.930 . S
H1041 C1049 0.930 . S
H1042 C1050 0.930 . S
H1043 C1051 0.930 . S
H1044 C1054 0.930 . S
H1045 C1055 0.930 . S
C1046 H1040 0.930 . S
C1046 C1047 1.355 . S
C1046 C1048 1.415 . S
C1047 C1046 1.355 . S
C1047 C1049 1.419 . S
C1048 C1046 1.415 . S
C1048 C1053 1.425 . S
C1048 C1055 1.409 . S
C1049 H1041 0.930 . S
C1049 C1047 1.419 . S
C1049 C1050 1.362 . S
C1050 H1042 0.930 . S
C1050 C1049 1.362 . S
C1050 C1053 1.409 . S
C1051 H1043 0.930 . S
C1051 C1052 1.355 . S
C1051 C1053 1.415 . S
C1052 C1051 1.355 . S
C1052 C1054 1.419 . S
C1053 C1048 1.425 . S
C1053 C1050 1.409 . S
C1053 C1051 1.415 . S
C1054 H1044 0.930 . S
C1054 C1052 1.419 . S
C1054 C1055 1.362 . S
C1055 H1045 0.930 . S
C1055 C1048 1.409 . S
C1055 C1054 1.362 . S
H1056 C1062 0.930 . S
H1057 C1065 0.930 . S
H1058 C1066 0.953 . S
H1059 C1067 0.930 . S
H1060 C1070 0.930 . S
H1061 C1071 0.953 . S
C1062 H1056 0.930 . S
C1062 C1063 1.355 . S
C1062 C1064 1.415 . S
C1063 C1062 1.355 . S
C1063 C1065 1.419 . S
C1064 C1062 1.415 . S
C1064 C1069 1.425 1_545 S
C1064 C1071 1.420 . S
C1065 H1057 0.930 . S
C1065 C1063 1.419 . S
C1065 C1066 1.330 1_545 S
C1066 H1058 0.953 . S
C1066 C1065 1.330 1_565 S
C1066 C1069 1.420 . S
C1067 H1059 0.930 . S
C1067 C1068 1.355 . S
C1067 C1069 1.415 . S
C1068 C1067 1.355 . S
C1068 C1070 1.419 . S
C1069 C1064 1.425 1_565 S
C1069 C1066 1.420 . S
C1069 C1067 1.415 . S
C1070 H1060 0.930 . S
C1070 C1068 1.419 . S
C1070 C1071 1.330 1_565 S
C1071 H1061 0.953 . S
C1071 C1064 1.420 . S
C1071 C1070 1.330 1_545 S
H1072 C1078 0.930 . S
H1073 C1081 0.930 . S
H1074 C1082 0.930 . S
H1075 C1083 0.930 . S
H1076 C1086 0.930 . S
H1077 C1087 0.930 . S
C1078 H1072 0.930 . S
C1078 C1079 1.355 . S
C1078 C1080 1.415 . S
C1079 C1078 1.355 . S
C1079 C1081 1.419 . S
C1080 C1078 1.415 . S
C1080 C1085 1.425 . S
C1080 C1087 1.409 . S
C1081 H1073 0.930 . S
C1081 C1079 1.419 . S
C1081 C1082 1.362 . S
C1082 H1074 0.930 . S
C1082 C1081 1.362 . S
C1082 C1085 1.409 . S
C1083 H1075 0.930 . S
C1083 C1084 1.355 . S
C1083 C1085 1.415 . S
C1084 C1083 1.355 . S
C1084 C1086 1.419 . S
C1085 C1080 1.425 . S
C1085 C1082 1.409 . S
C1085 C1083 1.415 . S
C1086 H1076 0.930 . S
C1086 C1084 1.419 . S
C1086 C1087 1.362 . S
C1087 H1077 0.930 . S
C1087 C1080 1.409 . S
C1087 C1086 1.362 . S
H1088 C1094 0.930 . S
H1089 C1097 0.930 . S
H1090 C1098 0.930 1_545 S
H1091 C1099 0.930 . S
H1092 C1102 0.930 . S
H1093 C1103 0.930 1_565 S
C1094 H1088 0.930 . S
C1094 C1095 1.355 . S
C1094 C1096 1.384 1_554 S
C1095 C1094 1.355 . S
C1095 C1097 1.419 . S
C1096 C1094 1.384 1_556 S
C1096 C1101 1.419 1_566 S
C1096 C1103 1.448 1_565 S
C1097 H1089 0.930 . S
C1097 C1095 1.419 . S
C1097 C1098 1.362 . S
C1098 H1090 0.930 1_565 S
C1098 C1097 1.362 . S
C1098 C1101 1.448 1_565 S
C1099 H1091 0.930 . S
C1099 C1100 1.355 . S
C1099 C1101 1.383 1_556 S
C1100 C1099 1.355 . S
C1100 C1102 1.419 . S
C1101 C1096 1.419 1_544 S
C1101 C1098 1.448 1_545 S
C1101 C1099 1.383 1_554 S
C1102 H1092 0.930 . S
C1102 C1100 1.419 . S
C1102 C1103 1.362 . S
C1103 H1093 0.930 1_545 S
C1103 C1096 1.448 1_545 S
C1103 C1102 1.362 . S
H1104 C1110 0.930 . S
H1105 C1113 0.930 . S
H1106 C1114 0.930 . S
H1107 C1115 0.930 . S
H1108 C1118 0.930 . S
H1109 C1119 0.930 . S
C1110 H1104 0.930 . S
C1110 C1111 1.355 . S
C1110 C1112 1.415 . S
C1111 C1110 1.355 . S
C1111 C1113 1.419 . S
C1112 C1110 1.415 . S
C1112 C1117 1.425 . S
C1112 C1119 1.409 . S
C1113 H1105 0.930 . S
C1113 C1111 1.419 . S
C1113 C1114 1.362 . S
C1114 H1106 0.930 . S
C1114 C1113 1.362 . S
C1114 C1117 1.409 . S
C1115 H1107 0.930 . S
C1115 C1116 1.355 . S
C1115 C1117 1.415 . S
C1116 C1115 1.355 . S
C1116 C1118 1.419 . S
C1117 C1112 1.425 . S
C1117 C1114 1.409 . S
C1117 C1115 1.415 . S
C1118 H1108 0.930 . S
C1118 C1116 1.419 . S
C1118 C1119 1.362 . S
C1119 H1109 0.930 . S
C1119 C1112 1.409 . S
C1119 C1118 1.362 . S
H1120 C1126 0.930 . S
H1121 C1129 0.930 . S
H1122 C1130 0.930 . S
H1123 C1131 0.930 . S
H1124 C1134 0.930 . S
H1125 C1135 0.930 . S
C1126 H1120 0.930 . S
C1126 C1127 1.355 . S
C1126 C1128 1.415 . S
C1127 C1126 1.355 . S
C1127 C1129 1.419 . S
C1128 C1126 1.415 . S
C1128 C1133 1.425 1_545 S
C1128 C1135 1.409 . S
C1129 H1121 0.930 . S
C1129 C1127 1.419 . S
C1129 C1130 1.362 1_545 S
C1130 H1122 0.930 . S
C1130 C1129 1.362 1_565 S
C1130 C1133 1.409 . S
C1131 H1123 0.930 . S
C1131 C1132 1.355 . S
C1131 C1133 1.415 . S
C1132 C1131 1.355 . S
C1132 C1134 1.419 . S
C1133 C1128 1.425 1_565 S
C1133 C1130 1.409 . S
C1133 C1131 1.415 . S
C1134 H1124 0.930 . S
C1134 C1132 1.419 . S
C1134 C1135 1.362 1_565 S
C1135 H1125 0.930 . S
C1135 C1128 1.409 . S
C1135 C1134 1.362 1_545 S
H1136 C1142 0.930 . S
H1137 C1145 0.930 . S
H1138 C1146 0.930 . S
H1139 C1147 0.930 . S
H1140 C1150 0.930 . S
H1141 C1151 0.930 . S
C1142 H1136 0.930 . S
C1142 C1143 1.355 . S
C1142 C1144 1.415 . S
C1143 C1142 1.355 . S
C1143 C1145 1.419 . S
C1144 C1142 1.415 . S
C1144 C1149 1.425 . S
C1144 C1151 1.409 . S
C1145 H1137 0.930 . S
C1145 C1143 1.419 . S
C1145 C1146 1.362 . S
C1146 H1138 0.930 . S
C1146 C1145 1.362 . S
C1146 C1149 1.409 . S
C1147 H1139 0.930 . S
C1147 C1148 1.355 . S
C1147 C1149 1.415 . S
C1148 C1147 1.355 . S
C1148 C1150 1.419 . S
C1149 C1144 1.425 . S
C1149 C1146 1.409 . S
C1149 C1147 1.415 . S
C1150 H1140 0.930 . S
C1150 C1148 1.419 . S
C1150 C1151 1.362 . S
C1151 H1141 0.930 . S
C1151 C1144 1.409 . S
C1151 C1150 1.362 . S
H1152 C1158 0.930 . S
H1153 C1161 0.922 1_556 S
H1154 C1162 0.930 . S
H1155 C1163 0.930 . S
H1156 C1166 0.922 1_554 S
H1157 C1167 0.930 . S
C1158 H1152 0.930 . S
C1158 C1159 1.355 . S
C1158 C1160 1.415 1_565 S
C1159 C1158 1.355 . S
C1159 C1161 1.456 . S
C1160 C1158 1.415 1_545 S
C1160 C1165 1.425 1_544 S
C1160 C1167 1.409 . S
C1161 H1153 0.922 1_554 S
C1161 C1159 1.456 . S
C1161 C1162 1.334 1_554 S
C1162 H1154 0.930 . S
C1162 C1161 1.334 1_556 S
C1162 C1165 1.409 . S
C1163 H1155 0.930 . S
C1163 C1164 1.355 . S
C1163 C1165 1.415 1_545 S
C1164 C1163 1.355 . S
C1164 C1166 1.456 . S
C1165 C1160 1.425 1_566 S
C1165 C1162 1.409 . S
C1165 C1163 1.415 1_565 S
C1166 H1156 0.922 1_556 S
C1166 C1164 1.456 . S
C1166 C1167 1.334 1_556 S
C1167 H1157 0.930 . S
C1167 C1160 1.409 . S
C1167 C1166 1.334 1_554 S
H1168 C1174 0.930 . S
H1169 C1177 0.930 . S
H1170 C1178 0.930 . S
H1171 C1179 0.930 . S
H1172 C1182 0.930 . S
H1173 C1183 0.930 . S
C1174 H1168 0.930 . S
C1174 C1175 1.355 . S
C1174 C1176 1.415 . S
C1175 C1174 1.355 . S
C1175 C1177 1.419 . S
C1176 C1174 1.415 . S
C1176 C1181 1.425 . S
C1176 C1183 1.409 . S
C1177 H1169 0.930 . S
C1177 C1175 1.419 . S
C1177 C1178 1.362 . S
C1178 H1170 0.930 . S
C1178 C1177 1.362 . S
C1178 C1181 1.409 . S
C1179 H1171 0.930 . S
C1179 C1180 1.355 . S
C1179 C1181 1.415 . S
C1180 C1179 1.355 . S
C1180 C1182 1.419 . S
C1181 C1176 1.425 . S
C1181 C1178 1.409 . S
C1181 C1179 1.415 . S
C1182 H1172 0.930 . S
C1182 C1180 1.419 . S
C1182 C1183 1.362 . S
C1183 H1173 0.930 . S
C1183 C1176 1.409 . S
C1183 C1182 1.362 . S
H1184 C1190 0.930 . S
H1185 C1193 0.930 . S
H1186 C1194 0.930 . S
H1187 C1195 0.930 . S
H1188 C1198 0.930 . S
H1189 C1199 0.930 . S
C1190 H1184 0.930 . S
C1190 C1191 1.355 . S
C1190 C1192 1.415 . S
C1191 C1190 1.355 . S
C1191 C1193 1.419 . S
C1192 C1190 1.415 . S
C1192 C1197 1.425 . S
C1192 C1199 1.409 . S
C1193 H1185 0.930 . S
C1193 C1191 1.419 . S
C1193 C1194 1.362 . S
C1194 H1186 0.930 . S
C1194 C1193 1.362 . S
C1194 C1197 1.409 . S
C1195 H1187 0.930 . S
C1195 C1196 1.355 . S
C1195 C1197 1.415 . S
C1196 C1195 1.355 . S
C1196 C1198 1.419 . S
C1197 C1192 1.425 . S
C1197 C1194 1.409 . S
C1197 C1195 1.415 . S
C1198 H1188 0.930 . S
C1198 C1196 1.419 . S
C1198 C1199 1.362 . S
C1199 H1189 0.930 . S
C1199 C1192 1.409 . S
C1199 C1198 1.362 . S
H1200 C1206 0.930 . S
H1201 C1209 0.930 . S
H1202 C1210 0.930 . S
H1203 C1211 0.930 . S
H1204 C1214 0.930 . S
H1205 C1215 0.930 . S
C1206 H1200 0.930 . S
C1206 C1207 1.355 . S
C1206 C1208 1.415 . S
C1207 C1206 1.355 . S
C1207 C1209 1.419 . S
C1208 C1206 1.415 . S
C1208 C1213 1.425 . S
C1208 C1215 1.409 . S
C1209 H1201 0.930 . S
C1209 C1207 1.419 . S
C1209 C1210 1.362 . S
C1210 H1202 0.930 . S
C1210 C1209 1.362 . S
C1210 C1213 1.409 . S
C1211 H1203 0.930 . S
C1211 C1212 1.355 . S
C1211 C1213 1.415 . S
C1212 C1211 1.355 . S
C1212 C1214 1.419 . S
C1213 C1208 1.425 . S
C1213 C1210 1.409 . S
C1213 C1211 1.415 . S
C1214 H1204 0.930 . S
C1214 C1212 1.419 . S
C1214 C1215 1.362 . S
C1215 H1205 0.930 . S
C1215 C1208 1.409 . S
C1215 C1214 1.362 . S
H1216 C1222 0.930 . S
H1217 C1225 0.930 . S
H1218 C1226 0.930 . S
H1219 C1227 0.930 . S
H1220 C1230 0.930 . S
H1221 C1231 0.930 . S
C1222 H1216 0.930 . S
C1222 C1223 1.355 . S
C1222 C1224 1.415 . S
C1223 C1222 1.355 . S
C1223 C1225 1.419 . S
C1224 C1222 1.415 . S
C1224 C1229 1.425 . S
C1224 C1231 1.409 . S
C1225 H1217 0.930 . S
C1225 C1223 1.419 . S
C1225 C1226 1.362 . S
C1226 H1218 0.930 . S
C1226 C1225 1.362 . S
C1226 C1229 1.409 . S
C1227 H1219 0.930 . S
C1227 C1228 1.355 . S
C1227 C1229 1.415 . S
C1228 C1227 1.355 . S
C1228 C1230 1.419 . S
C1229 C1224 1.425 . S
C1229 C1226 1.409 . S
C1229 C1227 1.415 . S
C1230 H1220 0.930 . S
C1230 C1228 1.419 . S
C1230 C1231 1.362 . S
C1231 H1221 0.930 . S
C1231 C1224 1.409 . S
C1231 C1230 1.362 . S
H1232 C1238 0.930 . S
H1233 C1241 0.930 . S
H1234 C1242 0.930 . S
H1235 C1243 0.930 . S
H1236 C1246 0.930 . S
H1237 C1247 0.930 . S
C1238 H1232 0.930 . S
C1238 C1239 1.355 . S
C1238 C1240 1.415 . S
C1239 C1238 1.355 . S
C1239 C1241 1.419 . S
C1240 C1238 1.415 . S
C1240 C1245 1.425 1_655 S
C1240 C1247 1.409 1_655 S
C1241 H1233 0.930 . S
C1241 C1239 1.419 . S
C1241 C1242 1.362 . S
C1242 H1234 0.930 . S
C1242 C1241 1.362 . S
C1242 C1245 1.409 1_655 S
C1243 H1235 0.930 . S
C1243 C1244 1.355 . S
C1243 C1245 1.415 . S
C1244 C1243 1.355 . S
C1244 C1246 1.419 . S
C1245 C1240 1.425 1_455 S
C1245 C1242 1.409 1_455 S
C1245 C1243 1.415 . S
C1246 H1236 0.930 . S
C1246 C1244 1.419 . S
C1246 C1247 1.362 . S
C1247 H1237 0.930 . S
C1247 C1240 1.409 1_455 S
C1247 C1246 1.362 . S
H1248 C1254 0.930 . S
H1249 C1257 0.930 . S
H1250 C1258 0.930 . S
H1251 C1259 0.930 . S
H1252 C1262 0.930 . S
H1253 C1263 0.930 . S
C1254 H1248 0.930 . S
C1254 C1255 1.355 . S
C1254 C1256 1.415 . S
C1255 C1254 1.355 . S
C1255 C1257 1.419 . S
C1256 C1254 1.415 . S
C1256 C1261 1.425 . S
C1256 C1263 1.409 . S
C1257 H1249 0.930 . S
C1257 C1255 1.419 . S
C1257 C1258 1.362 . S
C1258 H1250 0.930 . S
C1258 C1257 1.362 . S
C1258 C1261 1.409 . S
C1259 H1251 0.930 . S
C1259 C1260 1.355 . S
C1259 C1261 1.415 . S
C1260 C1259 1.355 . S
C1260 C1262 1.419 . S
C1261 C1256 1.425 . S
C1261 C1258 1.409 . S
C1261 C1259 1.415 . S
C1262 H1252 0.930 . S
C1262 C1260 1.419 . S
C1262 C1263 1.362 . S
C1263 H1253 0.930 . S
C1263 C1256 1.409 . S
C1263 C1262 1.362 . S
H1264 C1270 0.930 . S
H1265 C1273 0.930 . S
H1266 C1274 0.930 . S
H1267 C1275 0.930 . S
H1268 C1278 0.930 . S
H1269 C1279 0.930 . S
C1270 H1264 0.930 . S
C1270 C1271 1.355 . S
C1270 C1272 1.415 . S
C1271 C1270 1.355 . S
C1271 C1273 1.419 . S
C1272 C1270 1.415 . S
C1272 C1277 1.425 1_655 S
C1272 C1279 1.409 1_655 S
C1273 H1265 0.930 . S
C1273 C1271 1.419 . S
C1273 C1274 1.362 . S
C1274 H1266 0.930 . S
C1274 C1273 1.362 . S
C1274 C1277 1.409 1_655 S
C1275 H1267 0.930 . S
C1275 C1276 1.355 . S
C1275 C1277 1.415 . S
C1276 C1275 1.355 . S
C1276 C1278 1.419 . S
C1277 C1272 1.425 1_455 S
C1277 C1274 1.409 1_455 S
C1277 C1275 1.415 . S
C1278 H1268 0.930 . S
C1278 C1276 1.419 . S
C1278 C1279 1.362 . S
C1279 H1269 0.930 . S
C1279 C1272 1.409 1_455 S
C1279 C1278 1.362 . S
H1280 C1286 0.930 . S
H1281 C1289 0.930 . S
H1282 C1290 0.930 . S
H1283 C1291 0.930 . S
H1284 C1294 0.930 . S
H1285 C1295 0.930 . S
C1286 H1280 0.930 . S
C1286 C1287 1.355 . S
C1286 C1288 1.415 . S
C1287 C1286 1.355 . S
C1287 C1289 1.419 . S
C1288 C1286 1.415 . S
C1288 C1293 1.425 . S
C1288 C1295 1.409 . S
C1289 H1281 0.930 . S
C1289 C1287 1.419 . S
C1289 C1290 1.362 . S
C1290 H1282 0.930 . S
C1290 C1289 1.362 . S
C1290 C1293 1.409 . S
C1291 H1283 0.930 . S
C1291 C1292 1.355 . S
C1291 C1293 1.415 . S
C1292 C1291 1.355 . S
C1292 C1294 1.419 . S
C1293 C1288 1.425 . S
C1293 C1290 1.409 . S
C1293 C1291 1.415 . S
C1294 H1284 0.930 . S
C1294 C1292 1.419 . S
C1294 C1295 1.362 . S
C1295 H1285 0.930 . S
C1295 C1288 1.409 . S
C1295 C1294 1.362 . S
H1296 C1302 0.930 . S
H1297 C1305 0.930 . S
H1298 C1306 0.930 . S
H1299 C1307 0.930 . S
H1300 C1310 0.930 . S
H1301 C1311 0.930 . S
C1302 H1296 0.930 . S
C1302 C1303 1.355 . S
C1302 C1304 1.415 . S
C1303 C1302 1.355 . S
C1303 C1305 1.419 . S
C1304 C1302 1.415 . S
C1304 C1309 1.425 . S
C1304 C1311 1.409 . S
C1305 H1297 0.930 . S
C1305 C1303 1.419 . S
C1305 C1306 1.362 . S
C1306 H1298 0.930 . S
C1306 C1305 1.362 . S
C1306 C1309 1.409 . S
C1307 H1299 0.930 . S
C1307 C1308 1.355 . S
C1307 C1309 1.415 . S
C1308 C1307 1.355 . S
C1308 C1310 1.419 . S
C1309 C1304 1.425 . S
C1309 C1306 1.409 . S
C1309 C1307 1.415 . S
C1310 H1300 0.930 . S
C1310 C1308 1.419 . S
C1310 C1311 1.362 . S
C1311 H1301 0.930 . S
C1311 C1304 1.409 . S
C1311 C1310 1.362 . S
H1312 C1318 0.930 . S
H1313 C1321 0.930 . S
H1314 C1322 0.930 . S
H1315 C1323 0.930 . S
H1316 C1326 0.930 . S
H1317 C1327 0.930 . S
C1318 H1312 0.930 . S
C1318 C1319 1.355 . S
C1318 C1320 1.415 . S
C1319 C1318 1.355 . S
C1319 C1321 1.419 . S
C1320 C1318 1.415 . S
C1320 C1325 1.425 . S
C1320 C1327 1.409 . S
C1321 H1313 0.930 . S
C1321 C1319 1.419 . S
C1321 C1322 1.362 . S
C1322 H1314 0.930 . S
C1322 C1321 1.362 . S
C1322 C1325 1.409 . S
C1323 H1315 0.930 . S
C1323 C1324 1.355 . S
C1323 C1325 1.415 . S
C1324 C1323 1.355 . S
C1324 C1326 1.419 . S
C1325 C1320 1.425 . S
C1325 C1322 1.409 . S
C1325 C1323 1.415 . S
C1326 H1316 0.930 . S
C1326 C1324 1.419 . S
C1326 C1327 1.362 . S
C1327 H1317 0.930 . S
C1327 C1320 1.409 . S
C1327 C1326 1.362 . S
H1328 C1334 0.930 . S
H1329 C1337 0.930 . S
H1330 C1338 0.930 . S
H1331 C1339 0.930 . S
H1332 C1342 0.930 . S
H1333 C1343 0.930 . S
C1334 H1328 0.930 . S
C1334 C1335 1.355 . S
C1334 C1336 1.415 . S
C1335 C1334 1.355 . S
C1335 C1337 1.419 . S
C1336 C1334 1.415 . S
C1336 C1341 1.425 . S
C1336 C1343 1.409 . S
C1337 H1329 0.930 . S
C1337 C1335 1.419 . S
C1337 C1338 1.362 . S
C1338 H1330 0.930 . S
C1338 C1337 1.362 . S
C1338 C1341 1.409 . S
C1339 H1331 0.930 . S
C1339 C1340 1.355 . S
C1339 C1341 1.415 . S
C1340 C1339 1.355 . S
C1340 C1342 1.419 . S
C1341 C1336 1.425 . S
C1341 C1338 1.409 . S
C1341 C1339 1.415 . S
C1342 H1332 0.930 . S
C1342 C1340 1.419 . S
C1342 C1343 1.362 . S
C1343 H1333 0.930 . S
C1343 C1336 1.409 . S
C1343 C1342 1.362 . S
H1344 C1350 0.930 . S
H1345 C1353 0.930 . S
H1346 C1354 0.930 . S
H1347 C1355 0.930 . S
H1348 C1358 0.930 . S
H1349 C1359 0.930 . S
C1350 H1344 0.930 . S
C1350 C1351 1.355 . S
C1350 C1352 1.415 . S
C1351 C1350 1.355 . S
C1351 C1353 1.419 . S
C1352 C1350 1.415 . S
C1352 C1357 1.425 . S
C1352 C1359 1.409 . S
C1353 H1345 0.930 . S
C1353 C1351 1.419 . S
C1353 C1354 1.362 . S
C1354 H1346 0.930 . S
C1354 C1353 1.362 . S
C1354 C1357 1.409 . S
C1355 H1347 0.930 . S
C1355 C1356 1.355 . S
C1355 C1357 1.415 . S
C1356 C1355 1.355 . S
C1356 C1358 1.419 . S
C1357 C1352 1.425 . S
C1357 C1354 1.409 . S
C1357 C1355 1.415 . S
C1358 H1348 0.930 . S
C1358 C1356 1.419 . S
C1358 C1359 1.362 . S
C1359 H1349 0.930 . S
C1359 C1352 1.409 . S
C1359 C1358 1.362 . S
H1360 C1366 0.930 . S
H1361 C1369 0.930 . S
H1362 C1370 0.930 . S
H1363 C1371 0.930 . S
H1364 C1374 0.930 . S
H1365 C1375 0.930 . S
C1366 H1360 0.930 . S
C1366 C1367 1.355 . S
C1366 C1368 1.415 . S
C1367 C1366 1.355 . S
C1367 C1369 1.419 . S
C1368 C1366 1.415 . S
C1368 C1373 1.425 . S
C1368 C1375 1.409 . S
C1369 H1361 0.930 . S
C1369 C1367 1.419 . S
C1369 C1370 1.362 . S
C1370 H1362 0.930 . S
C1370 C1369 1.362 . S
C1370 C1373 1.409 . S
C1371 H1363 0.930 . S
C1371 C1372 1.355 . S
C1371 C1373 1.415 . S
C1372 C1371 1.355 . S
C1372 C1374 1.419 . S
C1373 C1368 1.425 . S
C1373 C1370 1.409 . S
C1373 C1371 1.415 . S
C1374 H1364 0.930 . S
C1374 C1372 1.419 . S
C1374 C1375 1.362 . S
C1375 H1365 0.930 . S
C1375 C1368 1.409 . S
C1375 C1374 1.362 . S
H1376 C1382 0.930 . S
H1377 C1385 0.930 . S
H1378 C1386 0.930 . S
H1379 C1387 0.930 . S
H1380 C1390 0.930 . S
H1381 C1391 0.930 . S
C1382 H1376 0.930 . S
C1382 C1383 1.355 . S
C1382 C1384 1.415 . S
C1383 C1382 1.355 . S
C1383 C1385 1.419 . S
C1384 C1382 1.415 . S
C1384 C1389 1.425 1_655 S
C1384 C1391 1.409 1_655 S
C1385 H1377 0.930 . S
C1385 C1383 1.419 . S
C1385 C1386 1.362 . S
C1386 H1378 0.930 . S
C1386 C1385 1.362 . S
C1386 C1389 1.409 1_655 S
C1387 H1379 0.930 . S
C1387 C1388 1.355 . S
C1387 C1389 1.415 . S
C1388 C1387 1.355 . S
C1388 C1390 1.419 . S
C1389 C1384 1.425 1_455 S
C1389 C1386 1.409 1_455 S
C1389 C1387 1.415 . S
C1390 H1380 0.930 . S
C1390 C1388 1.419 . S
C1390 C1391 1.362 . S
C1391 H1381 0.930 . S
C1391 C1384 1.409 1_455 S
C1391 C1390 1.362 . S
H1392 C1398 0.930 . S
H1393 C1401 0.930 . S
H1394 C1402 0.930 . S
H1395 C1403 0.930 . S
H1396 C1406 0.930 . S
H1397 C1407 0.930 . S
C1398 H1392 0.930 . S
C1398 C1399 1.355 . S
C1398 C1400 1.415 . S
C1399 C1398 1.355 . S
C1399 C1401 1.419 . S
C1400 C1398 1.415 . S
C1400 C1405 1.425 . S
C1400 C1407 1.409 . S
C1401 H1393 0.930 . S
C1401 C1399 1.419 . S
C1401 C1402 1.362 . S
C1402 H1394 0.930 . S
C1402 C1401 1.362 . S
C1402 C1405 1.409 . S
C1403 H1395 0.930 . S
C1403 C1404 1.355 . S
C1403 C1405 1.415 . S
C1404 C1403 1.355 . S
C1404 C1406 1.419 . S
C1405 C1400 1.425 . S
C1405 C1402 1.409 . S
C1405 C1403 1.415 . S
C1406 H1396 0.930 . S
C1406 C1404 1.419 . S
C1406 C1407 1.362 . S
C1407 H1397 0.930 . S
C1407 C1400 1.409 . S
C1407 C1406 1.362 . S
H1408 C1414 0.930 . S
H1409 C1417 0.930 . S
H1410 C1418 0.930 . S
H1411 C1419 0.930 . S
H1412 C1422 0.930 . S
H1413 C1423 0.930 . S
C1414 H1408 0.930 . S
C1414 C1415 1.355 . S
C1414 C1416 1.415 . S
C1415 C1414 1.355 . S
C1415 C1417 1.419 . S
C1416 C1414 1.415 . S
C1416 C1421 1.425 . S
C1416 C1423 1.409 . S
C1417 H1409 0.930 . S
C1417 C1415 1.419 . S
C1417 C1418 1.362 . S
C1418 H1410 0.930 . S
C1418 C1417 1.362 . S
C1418 C1421 1.409 . S
C1419 H1411 0.930 . S
C1419 C1420 1.355 . S
C1419 C1421 1.415 . S
C1420 C1419 1.355 . S
C1420 C1422 1.419 . S
C1421 C1416 1.425 . S
C1421 C1418 1.409 . S
C1421 C1419 1.415 . S
C1422 H1412 0.930 . S
C1422 C1420 1.419 . S
C1422 C1423 1.362 . S
C1423 H1413 0.930 . S
C1423 C1416 1.409 . S
C1423 C1422 1.362 . S
H1424 C1430 0.930 . S
H1425 C1433 0.930 . S
H1426 C1434 0.930 . S
H1427 C1435 0.930 . S
H1428 C1438 0.930 . S
H1429 C1439 0.930 . S
C1430 H1424 0.930 . S
C1430 C1431 1.355 . S
C1430 C1432 1.415 . S
C1431 C1430 1.355 . S
C1431 C1433 1.419 . S
C1432 C1430 1.415 . S
C1432 C1437 1.425 1_655 S
C1432 C1439 1.409 1_655 S
C1433 H1425 0.930 . S
C1433 C1431 1.419 . S
C1433 C1434 1.362 . S
C1434 H1426 0.930 . S
C1434 C1433 1.362 . S
C1434 C1437 1.409 1_655 S
C1435 H1427 0.930 . S
C1435 C1436 1.355 . S
C1435 C1437 1.415 . S
C1436 C1435 1.355 . S
C1436 C1438 1.419 . S
C1437 C1432 1.425 1_455 S
C1437 C1434 1.409 1_455 S
C1437 C1435 1.415 . S
C1438 H1428 0.930 . S
C1438 C1436 1.419 . S
C1438 C1439 1.362 . S
C1439 H1429 0.930 . S
C1439 C1432 1.409 1_455 S
C1439 C1438 1.362 . S
C423 C309 1.380 . S
C428 C10 1.421 . S
C439 C270 1.406 . S
C444 C23 1.387 . S
C455 C283 1.384 . S
C460 C36 1.449 . S
C471 C296 1.441 . S
C476 C49 1.454 . S
C487 C62 1.396 . S
C492 C231 1.460 . S
C503 C244 1.419 . S
C508 C75 1.381 . S
C519 C88 1.413 . S
C524 C257 1.384 . S
C535 C101 1.379 . S
C540 C218 1.431 . S
C551 C413 1.427 . S
C556 C114 1.379 . S
C567 C127 1.429 . S
C572 C374 1.379 . S
C583 C140 1.462 . S
C588 C387 1.401 . S
C599 C153 1.413 . S
C604 C400 1.383 . S
C615 C166 1.407 . S
C620 C335 1.387 . S
C631 C179 1.405 . S
C636 C348 1.388 . S
C647 C192 1.386 . S
C652 C361 1.409 . S
C663 C205 1.400 . S
C668 C322 1.462 . S
C679 C8 1.503 . S
C684 C164 1.471 . S
C695 C385 1.511 . S
C700 C21 1.463 . S
C711 C34 1.481 . S
C716 C190 1.493 . S
C727 C411 1.459 . S
C732 C47 1.514 . S
C743 C112 1.460 . S
C748 C60 1.513 . S
C759 C73 1.469 . S
C764 C333 1.505 . S
C775 C86 1.479 . S
C780 C138 1.495 . S
C791 C99 1.474 . S
C796 C359 1.500 . S
C807 C281 1.463 . S
C812 C125 1.511 . S
C823 C307 1.488 . S
C828 C151 1.486 . S
C839 C177 1.487 . S
C844 C229 1.487 . S
C855 C255 1.479 . S
C860 C203 1.495 . S
C871 C372 1.475 . S
C876 C216 1.499 . S
C887 C242 1.515 . S
C892 C398 1.459 . S
C903 C320 1.495 . S
C908 C268 1.479 . S
C919 C346 1.478 . S
C924 C294 1.496 . S
C935 C52 1.235 . S
C940 C0 1.233 . S
C951 C65 1.163 . S
C956 C13 1.168 . S
C967 C26 1.234 . S
C972 C78 1.218 . S
C983 C39 1.164 . S
C988 C91 1.180 . S
C999 C156 1.206 . S
C1004 C104 1.227 . S
C1015 C169 1.212 . S
C1020 C117 1.231 . S
C1031 C182 1.178 . S
C1036 C130 1.164 . S
C1047 C143 1.220 . S
C1052 C195 1.197 . S
C1063 C208 1.175 . S
C1068 C260 1.198 . S
C1079 C221 1.229 . S
C1084 C273 1.209 . S
C1095 C234 1.187 . S
C1100 C286 1.168 . S
C1111 C247 1.221 . S
C1116 C299 1.235 . S
C1127 C364 1.178 . S
C1132 C312 1.164 . S
C1143 C377 1.225 . S
C1148 C325 1.236 . S
C1159 C390 1.216 . S
C1164 C338 1.233 . S
C1175 C403 1.178 . S
C1180 C351 1.164 . S
C1191 C395 1.320 . S
C1196 C5 1.273 . S
C1207 C18 1.342 . S
C1212 C200 1.249 . S
C1223 C369 1.335 . S
C1228 C31 1.258 . S
C1239 C44 1.252 . S
C1244 C174 1.340 . S
C1255 C343 1.336 . S
C1260 C57 1.256 . S
C1271 C70 1.284 . S
C1276 C148 1.309 . S
C1287 C83 1.338 . S
C1292 C317 1.254 . S
C1303 C122 1.262 . S
C1308 C96 1.330 . S
C1319 C109 1.322 . S
C1324 C291 1.271 . S
C1335 C265 1.280 . S
C1340 C135 1.313 . S
C1351 C161 1.253 . S
C1356 C239 1.339 . S
C1367 C187 1.293 . S
C1372 C213 1.300 . S
C1383 C408 1.258 . S
C1388 C226 1.334 . S
C1399 C252 1.344 . S
C1404 C382 1.248 . S
C1415 C278 1.270 . S
C1420 C356 1.322 . S
C1431 C330 1.295 . S
C1436 C304 1.298 . S
