# Generated by pormake.
# Topology upb, (4)-cn, num edge types: 1
# Building blocks:
#     Node 0, Type 0, BuildingBlock: CEKHIL_clean_sbu_0, # of connection points: 4
#     Node 1, Type 0, BuildingBlock: CEKHIL_clean_sbu_0, # of connection points: 4
#     Node 2, Type 0, BuildingBlock: CEKHIL_clean_sbu_0, # of connection points: 4
#     Node 3, Type 0, BuildingBlock: CEKHIL_clean_sbu_0, # of connection points: 4
#     Node 4, Type 0, BuildingBlock: CEKHIL_clean_sbu_0, # of connection points: 4
#     Node 5, Type 0, BuildingBlock: CEKHIL_clean_sbu_0, # of connection points: 4
#     Node 6, Type 0, BuildingBlock: CEKHIL_clean_sbu_0, # of connection points: 4
#     Node 7, Type 0, BuildingBlock: CEKHIL_clean_sbu_0, # of connection points: 4
#     Node 8, Type 0, BuildingBlock: CEKHIL_clean_sbu_0, # of connection points: 4
#     Node 9, Type 0, BuildingBlock: CEKHIL_clean_sbu_0, # of connection points: 4
#     Node 10, Type 0, BuildingBlock: CEKHIL_clean_sbu_0, # of connection points: 4
#     Node 11, Type 0, BuildingBlock: CEKHIL_clean_sbu_0, # of connection points: 4
#     Node 12, Type 0, BuildingBlock: CEKHIL_clean_sbu_0, # of connection points: 4
#     Node 13, Type 0, BuildingBlock: CEKHIL_clean_sbu_0, # of connection points: 4
#     Node 14, Type 0, BuildingBlock: CEKHIL_clean_sbu_0, # of connection points: 4
#     Node 15, Type 0, BuildingBlock: CEKHIL_clean_sbu_0, # of connection points: 4
#     Edge 16, Type (0, 0), BuildingBlock: UVAHIK_clean_linker_0, # of connection points: 2
#     Edge 17, Type (0, 0), BuildingBlock: UVAHIK_clean_linker_0, # of connection points: 2
#     Edge 18, Type (0, 0), BuildingBlock: UVAHIK_clean_linker_0, # of connection points: 2
#     Edge 19, Type (0, 0), BuildingBlock: UVAHIK_clean_linker_0, # of connection points: 2
#     Edge 20, Type (0, 0), BuildingBlock: UVAHIK_clean_linker_0, # of connection points: 2
#     Edge 21, Type (0, 0), BuildingBlock: UVAHIK_clean_linker_0, # of connection points: 2
#     Edge 22, Type (0, 0), BuildingBlock: UVAHIK_clean_linker_0, # of connection points: 2
#     Edge 23, Type (0, 0), BuildingBlock: UVAHIK_clean_linker_0, # of connection points: 2
#     Edge 24, Type (0, 0), BuildingBlock: UVAHIK_clean_linker_0, # of connection points: 2
#     Edge 25, Type (0, 0), BuildingBlock: UVAHIK_clean_linker_0, # of connection points: 2
#     Edge 26, Type (0, 0), BuildingBlock: UVAHIK_clean_linker_0, # of connection points: 2
#     Edge 27, Type (0, 0), BuildingBlock: UVAHIK_clean_linker_0, # of connection points: 2
#     Edge 28, Type (0, 0), BuildingBlock: UVAHIK_clean_linker_0, # of connection points: 2
#     Edge 29, Type (0, 0), BuildingBlock: UVAHIK_clean_linker_0, # of connection points: 2
#     Edge 30, Type (0, 0), BuildingBlock: UVAHIK_clean_linker_0, # of connection points: 2
#     Edge 31, Type (0, 0), BuildingBlock: UVAHIK_clean_linker_0, # of connection points: 2
#     Edge 32, Type (0, 0), BuildingBlock: UVAHIK_clean_linker_0, # of connection points: 2
#     Edge 33, Type (0, 0), BuildingBlock: UVAHIK_clean_linker_0, # of connection points: 2
#     Edge 34, Type (0, 0), BuildingBlock: UVAHIK_clean_linker_0, # of connection points: 2
#     Edge 35, Type (0, 0), BuildingBlock: UVAHIK_clean_linker_0, # of connection points: 2
#     Edge 36, Type (0, 0), BuildingBlock: UVAHIK_clean_linker_0, # of connection points: 2
#     Edge 37, Type (0, 0), BuildingBlock: UVAHIK_clean_linker_0, # of connection points: 2
#     Edge 38, Type (0, 0), BuildingBlock: UVAHIK_clean_linker_0, # of connection points: 2
#     Edge 39, Type (0, 0), BuildingBlock: UVAHIK_clean_linker_0, # of connection points: 2
#     Edge 40, Type (0, 0), BuildingBlock: UVAHIK_clean_linker_0, # of connection points: 2
#     Edge 41, Type (0, 0), BuildingBlock: UVAHIK_clean_linker_0, # of connection points: 2
#     Edge 42, Type (0, 0), BuildingBlock: UVAHIK_clean_linker_0, # of connection points: 2
#     Edge 43, Type (0, 0), BuildingBlock: UVAHIK_clean_linker_0, # of connection points: 2
#     Edge 44, Type (0, 0), BuildingBlock: UVAHIK_clean_linker_0, # of connection points: 2
#     Edge 45, Type (0, 0), BuildingBlock: UVAHIK_clean_linker_0, # of connection points: 2
#     Edge 46, Type (0, 0), BuildingBlock: UVAHIK_clean_linker_0, # of connection points: 2
#     Edge 47, Type (0, 0), BuildingBlock: UVAHIK_clean_linker_0, # of connection points: 2
# Relax obj value: 0.217
# Max RMSD: 0.060
# Mean RMSD: 0.060
data_MOF--net-upb--node1-CEKHIL_clean_sbu_0--edge1-UVAHIK_clean_linker_0
_symmetry_space_group_name_H-M    P1
_symmetry_Int_Tables_number       1
_symmetry_cell_setting            triclinic
loop_
_symmetry_equiv_pos_as_xyz
'x, y, z'
_cell_length_a     56.93257
_cell_length_b     56.925701
_cell_length_c     41.616357
_cell_angle_alpha  89.993634
_cell_angle_beta   89.996012
_cell_angle_gamma 90.008106
loop_
_atom_site_label
_atom_site_type_symbol
_atom_site_fract_x
_atom_site_fract_y
_atom_site_fract_z
_atom_type_partial_charge
Co0 Co 0.03862 0.2298 0.28348 0.0
O1 O 0.06602 0.24613 0.29826 0.0
O2 O 0.04672 0.25448 0.25347 0.0
C3 C 0.02075 0.23016 0.33178 0.0
O4 O 0.00885 0.21768 0.26142 0.0
Co5 Co 0.02517 0.1812 0.31168 0.0
O6 O 0.99554 0.18588 0.28805 0.0
C7 C 0.06394 0.18476 0.26479 0.0
C8 C 0.0638 0.25941 0.27314 0.0
C9 C 0.99334 0.20165 0.2666 0.0
O10 O 0.05931 0.20661 0.25992 0.0
O11 O 0.05323 0.17208 0.28553 0.0
O12 O 0.01928 0.24823 0.31283 0.0
O13 O 0.03392 0.2132 0.32182 0.0
Co14 Co 0.77086 0.04216 0.28547 0.0
O15 O 0.75266 0.06863 0.29914 0.0
O16 O 0.74639 0.04849 0.25436 0.0
C17 C 0.77075 0.02466 0.33406 0.0
O18 O 0.78511 0.01294 0.26453 0.0
Co19 Co 0.81973 0.03239 0.31542 0.0
O20 O 0.81801 0.00269 0.29116 0.0
C21 C 0.81461 0.06988 0.26704 0.0
C22 C 0.74014 0.06545 0.2735 0.0
C23 C 0.80249 0.99898 0.26975 0.0
O24 O 0.79313 0.0639 0.262 0.0
O25 O 0.82766 0.06038 0.28842 0.0
O26 O 0.75313 0.022 0.31456 0.0
O27 O 0.78701 0.03885 0.32449 0.0
Co28 Co 0.95795 0.77026 0.28573 0.0
O29 O 0.93248 0.75166 0.30165 0.0
O30 O 0.94933 0.74677 0.2541 0.0
C31 C 0.97886 0.76846 0.33168 0.0
O32 O 0.98559 0.7855 0.26217 0.0
Co33 Co 0.96944 0.81806 0.31831 0.0
O34 O 0.99716 0.81751 0.28991 0.0
C35 C 0.92972 0.81483 0.27295 0.0
C36 C 0.93381 0.73988 0.27507 0.0
C37 C -0.00045 0.80297 0.2669 0.0
O38 O 0.93495 0.79337 0.2664 0.0
O39 O 0.94049 0.82713 0.29404 0.0
O40 O 0.97998 0.7515 0.31088 0.0
O41 O 0.96401 0.78493 0.3252 0.0
Co42 Co 0.22696 0.95667 0.28503 0.0
O43 O 0.24249 0.92809 0.29686 0.0
O44 O 0.25071 0.949 0.25339 0.0
C45 C 0.22898 0.97223 0.33476 0.0
O46 O 0.21542 0.98774 0.26595 0.0
Co47 Co 0.17962 0.97084 0.31639 0.0
O48 O 0.18609 0.00175 0.2968 0.0
C49 C 0.18043 0.93471 0.26527 0.0
C50 C 0.25537 0.93093 0.27148 0.0
C51 C 0.20094 0.00404 0.27419 0.0
O52 O 0.20251 0.93814 0.26059 0.0
O53 O 0.16857 0.9451 0.28722 0.0
O54 O 0.24671 0.97393 0.31525 0.0
O55 O 0.21133 0.9602 0.32435 0.0
Co56 Co 0.04124 0.76726 0.71879 0.0
O57 O 0.07052 0.7512 0.71473 0.0
O58 O 0.04414 0.74407 0.75272 0.0
C59 C 0.03205 0.76435 0.66628 0.0
O60 O 0.00866 0.78016 0.72949 0.0
Co61 Co 0.03302 0.81415 0.68215 0.0
O62 O -0.00027 0.80654 0.69114 0.0
C63 C 0.06412 0.8128 0.73897 0.0
C64 C 0.06433 0.73909 0.73969 0.0
C65 C 0.99387 0.79334 0.71454 0.0
O66 O 0.0572 0.79191 0.74593 0.0
O67 O 0.05799 0.82384 0.71352 0.0
O68 O 0.02754 0.74706 0.68571 0.0
O69 O 0.04314 0.78189 0.67871 0.0
Co70 Co 0.22726 0.03775 0.71989 0.0
O71 O 0.24324 0.06562 0.70643 0.0
O72 O 0.25063 0.04637 0.75159 0.0
C73 C 0.22977 0.0201 0.67162 0.0
O74 O 0.21475 0.0078 0.741 0.0
Co75 Co 0.18021 0.02286 0.68876 0.0
O76 O 0.18869 0.99185 0.70681 0.0
C77 C 0.18104 0.0616 0.73613 0.0
C78 C 0.25555 0.06381 0.7325 0.0
C79 C 0.20201 0.99051 0.73128 0.0
O80 O 0.20287 0.05769 0.74193 0.0
O81 O 0.16917 0.05037 0.71497 0.0
O82 O 0.2472 0.01899 0.69171 0.0
O83 O 0.21214 0.0328 0.68053 0.0
Co84 Co 0.95897 0.22944 0.71817 0.0
O85 O 0.9306 0.24424 0.70424 0.0
O86 O 0.95037 0.25394 0.74825 0.0
C87 C 0.97619 0.23051 0.66951 0.0
O88 O 0.98942 0.2184 0.73939 0.0
Co89 Co 0.97359 0.18132 0.6896 0.0
O90 O 0.00387 0.1881 0.71071 0.0
C91 C 0.93514 0.18372 0.73711 0.0
C92 C 0.93256 0.25761 0.72927 0.0
C93 C 0.00574 0.20355 0.73265 0.0
O94 O 0.9396 0.20555 0.74229 0.0
O95 O 0.9458 0.17138 0.71593 0.0
O96 O 0.97711 0.24864 0.6884 0.0
O97 O 0.96376 0.21304 0.6797 0.0
Co98 Co 0.76665 0.96179 0.72138 0.0
O99 O 0.75362 0.93196 0.70972 0.0
O100 O 0.74275 0.95285 0.75217 0.0
C101 C 0.76441 0.97672 0.67135 0.0
O102 O 0.77576 0.99368 0.74042 0.0
Co103 Co 0.81303 0.98004 0.6911 0.0
O104 O 0.80177 0.01069 0.70707 0.0
C105 C 0.81429 0.94353 0.74208 0.0
C106 C 0.74001 0.93419 0.73449 0.0
C107 C 0.78749 0.01163 0.73053 0.0
O108 O 0.79198 0.94518 0.74661 0.0
O109 O 0.82543 0.95505 0.72046 0.0
O110 O 0.74622 0.97729 0.69017 0.0
O111 O 0.78272 0.96621 0.68262 0.0
Co112 Co 0.5406 0.72949 0.77809 0.0
O113 O 0.56832 0.74748 0.78652 0.0
O114 O 0.54541 0.75198 0.74375 0.0
C115 C 0.52598 0.73277 0.82825 0.0
O116 O 0.51024 0.71431 0.76214 0.0
Co117 Co 0.53272 0.68271 0.81538 0.0
O118 O 0.50298 0.6815 0.79093 0.0
C119 C 0.57096 0.68737 0.76837 0.0
C120 C 0.56392 0.7584 0.75987 0.0
C121 C 0.49757 0.69628 0.76915 0.0
O122 O 0.56068 0.70522 0.75565 0.0
O123 O 0.5641 0.67782 0.79457 0.0
O124 O 0.52248 0.74943 0.80743 0.0
O125 O 0.53933 0.71588 0.81876 0.0
Co126 Co 0.26887 0.53943 0.78276 0.0
O127 O 0.25326 0.56709 0.79777 0.0
O128 O 0.24411 0.54801 0.75306 0.0
C129 C 0.26816 0.52125 0.83087 0.0
O130 O 0.28069 0.50966 0.76043 0.0
Co131 Co 0.31728 0.52547 0.81146 0.0
O132 O 0.31282 0.49642 0.78643 0.0
C133 C 0.31426 0.56404 0.76407 0.0
C134 C 0.23977 0.56519 0.77283 0.0
C135 C 0.297 0.49434 0.76501 0.0
O136 O 0.29236 0.55974 0.75919 0.0
O137 O 0.32672 0.5533 0.78504 0.0
O138 O 0.25009 0.52025 0.81189 0.0
O139 O 0.2853 0.5343 0.82116 0.0
Co140 Co 0.45522 0.27216 0.78158 0.0
O141 O 0.42751 0.25638 0.79624 0.0
O142 O 0.44724 0.2471 0.75212 0.0
C143 C 0.47284 0.27228 0.83007 0.0
O144 O 0.48517 0.28388 0.75966 0.0
Co145 Co 0.46842 0.32108 0.80898 0.0
O146 O 0.49799 0.31637 0.78517 0.0
C147 C 0.43053 0.31709 0.76082 0.0
C148 C 0.42981 0.24276 0.77148 0.0
C149 C 0.50041 0.30024 0.76426 0.0
O150 O 0.43501 0.29512 0.75693 0.0
O151 O 0.44097 0.33005 0.7815 0.0
O152 O 0.4742 0.25397 0.81156 0.0
O153 O 0.45974 0.28918 0.81969 0.0
Co154 Co 0.72651 0.45347 0.77737 0.0
O155 O 0.74351 0.42481 0.78345 0.0
O156 O 0.74929 0.44984 0.74327 0.0
C157 C 0.72986 0.465 0.82893 0.0
O158 O 0.71289 0.48514 0.7637 0.0
Co159 Co 0.68017 0.4636 0.81335 0.0
O160 O 0.687 0.49654 0.8013 0.0
C161 C 0.68059 0.43036 0.75862 0.0
C162 C 0.75502 0.43039 0.75768 0.0
C163 C 0.69987 0.50085 0.777 0.0
O164 O 0.70207 0.43558 0.75231 0.0
O165 O 0.66919 0.4388 0.78251 0.0
O166 O 0.74658 0.46934 0.80854 0.0
O167 O 0.71231 0.45304 0.81801 0.0
Co168 Co 0.54052 0.27222 0.21618 0.0
O169 O 0.56881 0.25689 0.20282 0.0
O170 O 0.54831 0.24741 0.24622 0.0
C171 C 0.52453 0.27187 0.1667 0.0
O172 O 0.50963 0.28323 0.23639 0.0
Co173 Co 0.52583 0.32044 0.18849 0.0
O174 O 0.49437 0.31003 0.20271 0.0
C175 C 0.56288 0.31794 0.23825 0.0
C176 C 0.56605 0.24316 0.22736 0.0
C177 C 0.49232 0.29558 0.22586 0.0
O178 O 0.55952 0.29572 0.24159 0.0
O179 O 0.55194 0.3306 0.21768 0.0
O180 O 0.52289 0.25355 0.18518 0.0
O181 O 0.53669 0.28918 0.17795 0.0
Co182 Co 0.72847 0.54015 0.21206 0.0
O183 O 0.7471 0.56644 0.19884 0.0
O184 O 0.7526 0.54631 0.2438 0.0
C185 C 0.72918 0.52277 0.16332 0.0
O186 O 0.71351 0.51121 0.23278 0.0
Co187 Co 0.68011 0.53063 0.18039 0.0
O188 O 0.68091 0.50118 0.20533 0.0
C189 C 0.68445 0.56769 0.22971 0.0
C190 C 0.75925 0.56322 0.22479 0.0
C191 C 0.69598 0.49748 0.22733 0.0
O192 O 0.706 0.56203 0.23493 0.0
O193 O 0.6717 0.55815 0.208 0.0
O194 O 0.74637 0.5197 0.18342 0.0
O195 O 0.71296 0.5371 0.17254 0.0
Co196 Co 0.46169 0.73006 0.21149 0.0
O197 O 0.43439 0.74638 0.19657 0.0
O198 O 0.45182 0.75285 0.24338 0.0
C199 C 0.48117 0.73346 0.16454 0.0
O200 O 0.49102 0.71735 0.234 0.0
Co201 Co 0.47699 0.68341 0.17865 0.0
O202 O 0.50556 0.68722 0.20496 0.0
C203 C 0.43785 0.68321 0.22534 0.0
C204 C 0.43538 0.75837 0.22298 0.0
C205 C 0.50683 0.70173 0.22816 0.0
O206 O 0.4412 0.70507 0.23177 0.0
O207 O 0.44935 0.67194 0.20388 0.0
O208 O 0.48141 0.75055 0.1852 0.0
O209 O 0.46807 0.71576 0.17193 0.0
Co210 Co 0.27134 0.45589 0.21596 0.0
O211 O 0.25014 0.43161 0.20316 0.0
O212 O 0.24751 0.45156 0.24882 0.0
C213 C 0.27126 0.47383 0.16766 0.0
O214 O 0.28952 0.48322 0.23575 0.0
Co215 Co 0.31973 0.4597 0.18165 0.0
O216 O 0.32305 0.48854 0.20777 0.0
C217 C 0.30999 0.42056 0.22558 0.0
C218 C 0.23891 0.43566 0.22964 0.0
C219 C 0.30868 0.49447 0.22981 0.0
O220 O 0.29233 0.43179 0.23727 0.0
O221 O 0.32137 0.42744 0.2008 0.0
O222 O 0.25461 0.47807 0.18822 0.0
O223 O 0.28611 0.45789 0.17608 0.0
C224 C 0.0806 0.15063 0.23556 0.0
C225 C 0.08336 0.1736 0.24714 0.0
C226 C 0.10001 0.13786 0.22493 0.0
C227 C 0.14473 0.11627 0.19693 0.0
H228 H 0.1845 0.10784 0.2716 0.0
C229 C 0.17994 0.02738 0.23355 0.0
C230 C 0.19892 0.02542 0.25472 0.0
C231 C 0.17317 0.04931 0.22179 0.0
C232 C 0.17425 0.11029 0.24994 0.0
H233 H 0.10819 0.20178 0.25532 0.0
H234 H 0.14255 0.17896 0.23781 0.0
H235 H 0.15805 0.1412 0.26908 0.0
H236 H 0.2268 0.04421 0.27884 0.0
H237 H 0.21553 0.08274 0.25747 0.0
H238 H 0.16028 0.08495 0.17818 0.0
C239 C 0.12526 0.17111 0.23631 0.0
C240 C 0.15899 0.12949 0.24859 0.0
C241 C 0.10565 0.18414 0.24619 0.0
C242 C 0.21225 0.04539 0.26214 0.0
C243 C 0.20557 0.06743 0.2502 0.0
C244 C 0.1603 0.09729 0.19797 0.0
C245 C 0.12264 0.14763 0.22643 0.0
C246 C 0.14322 0.13193 0.2229 0.0
C247 C 0.18524 0.06981 0.23111 0.0
C248 C 0.17424 0.09325 0.22539 0.0
H249 H 0.06356 0.14215 0.23618 0.0
H250 H 0.09751 0.11972 0.21784 0.0
H251 H 0.13287 0.11793 0.17669 0.0
H252 H 0.16922 0.01217 0.228 0.0
H253 H 0.15725 0.05024 0.20763 0.0
C254 C 0.95366 0.21557 0.24968 0.0
C255 C 0.9725 0.19993 0.24599 0.0
C256 C 0.93147 0.20983 0.23728 0.0
C257 C 0.89944 0.16369 0.18952 0.0
H258 H 0.85586 0.16588 0.26102 0.0
C259 C 0.84777 0.08619 0.23558 0.0
C260 C 0.82506 0.08898 0.24799 0.0
C261 C 0.8598 0.10533 0.22271 0.0
C262 C 0.86742 0.16561 0.24034 0.0
H263 H 0.98379 0.16719 0.22475 0.0
H264 H 0.94556 0.15715 0.20307 0.0
H265 H 0.88969 0.19189 0.26061 0.0
H266 H 0.79653 0.11351 0.25548 0.0
H267 H 0.81812 0.14754 0.23402 0.0
H268 H 0.87828 0.13559 0.1711 0.0
C269 C 0.94751 0.17395 0.21499 0.0
C270 C 0.88688 0.1806 0.24003 0.0
C271 C 0.96948 0.17959 0.22754 0.0
C272 C 0.814 0.11098 0.24578 0.0
C273 C 0.82633 0.13038 0.23362 0.0
C274 C 0.88015 0.1485 0.19006 0.0
C275 C 0.92793 0.18839 0.22102 0.0
C276 C 0.90391 0.17876 0.21563 0.0
C277 C 0.84956 0.12779 0.2227 0.0
C278 C 0.86474 0.14843 0.21641 0.0
H279 H 0.95562 0.23124 0.26422 0.0
H280 H 0.91683 0.22145 0.2421 0.0
H281 H 0.91188 0.16226 0.16992 0.0
H282 H 0.85662 0.06937 0.23711 0.0
H283 H 0.87779 0.10285 0.21493 0.0
C284 C 0.82743 0.97372 0.23574 0.0
C285 C 0.80551 0.97782 0.24995 0.0
C286 C 0.83283 0.95174 0.22307 0.0
C287 C 0.82114 0.89148 0.24263 0.0
H288 H 0.86888 0.88215 0.17743 0.0
C289 C 0.88852 0.81623 0.25165 0.0
C290 C 0.91082 0.82653 0.25493 0.0
C291 C 0.86978 0.82935 0.23908 0.0
C292 C 0.85519 0.88422 0.1953 0.0
H293 H 0.77145 0.96288 0.26059 0.0
H294 H 0.78108 0.92384 0.23887 0.0
H295 H 0.84397 0.91703 0.17544 0.0
H296 H 0.93161 0.85764 0.24572 0.0
H297 H 0.89934 0.8802 0.22307 0.0
H298 H 0.8336 0.85954 0.26383 0.0
C299 C 0.79397 0.93778 0.23719 0.0
C300 C 0.84098 0.9042 0.19422 0.0
C301 C 0.78841 0.96007 0.24944 0.0
C302 C 0.91453 0.84939 0.2435 0.0
C303 C 0.89609 0.8622 0.23027 0.0
C304 C 0.83528 0.8714 0.2436 0.0
C305 C 0.81655 0.9332 0.22485 0.0
C306 C 0.82495 0.90884 0.21914 0.0
C307 C 0.87337 0.85263 0.22881 0.0
C308 C 0.85347 0.86844 0.22115 0.0
H309 H 0.84089 0.98718 0.23604 0.0
H310 H 0.85049 0.94883 0.21425 0.0
H311 H 0.80898 0.8945 0.26222 0.0
H312 H 0.8853 0.79862 0.26048 0.0
H313 H 0.85239 0.82165 0.23838 0.0
C314 C 0.02091 0.83025 0.23139 0.0
C315 C 0.01889 0.80765 0.24441 0.0
C316 C 0.04173 0.83742 0.21682 0.0
C317 C 0.10371 0.82756 0.22882 0.0
H318 H 0.10713 0.88011 0.16972 0.0
C319 C 0.17795 0.89561 0.23776 0.0
C320 C 0.16783 0.91744 0.24528 0.0
C321 C 0.16421 0.87774 0.22415 0.0
C322 C 0.10666 0.86516 0.18582 0.0
H323 H 0.0362 0.77414 0.25066 0.0
H324 H 0.0731 0.78675 0.22523 0.0
H325 H 0.07308 0.85403 0.16844 0.0
H326 H 0.13622 0.93847 0.24215 0.0
H327 H 0.1125 0.9077 0.21779 0.0
H328 H 0.13659 0.83961 0.24753 0.0
C329 C 0.05849 0.79891 0.22618 0.0
C330 C 0.08715 0.85027 0.18519 0.0
C331 C 0.03739 0.79162 0.2405 0.0
C332 C 0.14439 0.92174 0.23671 0.0
C333 C 0.13088 0.90417 0.22251 0.0
C334 C 0.12333 0.84233 0.22924 0.0
C335 C 0.06118 0.82222 0.21536 0.0
C336 C 0.08473 0.83228 0.20815 0.0
C337 C 0.14038 0.88173 0.21712 0.0
C338 C 0.12425 0.86213 0.20913 0.0
H339 H 0.00685 0.8429 0.23431 0.0
H340 H 0.04313 0.85556 0.20925 0.0
H341 H 0.10246 0.81394 0.24691 0.0
H342 H 0.19599 0.89187 0.24429 0.0
H343 H 0.17191 0.86057 0.22031 0.0
C344 C 0.07615 0.83952 0.78349 0.0
C345 C 0.0822 0.82383 0.75893 0.0
C346 C 0.09337 0.85391 0.79731 0.0
C347 C 0.15826 0.86779 0.794 0.0
H348 H 0.13543 0.93189 0.79646 0.0
C349 C 0.19094 0.97083 0.78243 0.0
C350 C 0.19975 0.96924 0.75101 0.0
C351 C 0.18165 0.9509 0.79754 0.0
C352 C 0.14213 0.91407 0.79677 0.0
H353 H 0.1106 0.80973 0.73044 0.0
H354 H 0.14043 0.8351 0.75337 0.0
H355 H 0.1076 0.89975 0.79757 0.0
H356 H 0.20788 0.94566 0.71181 0.0
H357 H 0.19258 0.91071 0.73858 0.0
H358 H 0.19276 0.88265 0.7896 0.0
C359 C 0.12283 0.83613 0.76307 0.0
C360 C 0.12612 0.8955 0.79748 0.0
C361 C 0.10571 0.82162 0.74965 0.0
C362 C 0.20136 0.94718 0.73619 0.0
C363 C 0.19264 0.92721 0.75156 0.0
C364 C 0.17424 0.88643 0.79259 0.0
C365 C 0.11678 0.85316 0.78621 0.0
C366 C 0.13388 0.87212 0.79444 0.0
C367 C 0.1816 0.92911 0.78164 0.0
C368 C 0.1662 0.90973 0.79256 0.0
H369 H 0.05799 0.8415 0.79078 0.0
H370 H 0.08807 0.86644 0.81549 0.0
H371 H 0.16498 0.85003 0.79266 0.0
H372 H 0.18924 0.98777 0.79407 0.0
H373 H 0.17312 0.95279 0.82067 0.0
C374 C 0.18108 0.10237 0.75843 0.0
C375 C 0.16925 0.08104 0.75307 0.0
C376 C 0.16871 0.12212 0.76922 0.0
C377 C 0.12857 0.1586 0.75662 0.0
H378 H 0.08513 0.16002 0.8283 0.0
C379 C 0.04685 0.21474 0.7459 0.0
C380 C 0.02659 0.20181 0.75312 0.0
C381 C 0.06868 0.20759 0.75803 0.0
C382 C 0.09716 0.16001 0.80816 0.0
H383 H 0.13586 0.06303 0.75695 0.0
H384 H 0.11449 0.09727 0.77695 0.0
H385 H 0.11626 0.13052 0.82689 0.0
H386 H 0.01253 0.17259 0.78005 0.0
H387 H 0.05013 0.15973 0.80058 0.0
H388 H 0.10821 0.18602 0.73579 0.0
C389 C 0.13318 0.0988 0.77247 0.0
C390 C 0.1151 0.14324 0.8076 0.0
C391 C 0.14534 0.07929 0.76085 0.0
C392 C 0.02799 0.18298 0.77462 0.0
C393 C 0.04969 0.17569 0.78647 0.0
C394 C 0.1103 0.17497 0.75676 0.0
C395 C 0.14458 0.12053 0.77576 0.0
C396 C 0.13028 0.1418 0.78114 0.0
C397 C 0.07052 0.18711 0.77696 0.0
C398 C 0.09356 0.17505 0.78171 0.0
H399 H 0.1995 0.10417 0.75237 0.0
H400 H 0.17776 0.13879 0.77133 0.0
H401 H 0.14001 0.15768 0.73585 0.0
H402 H 0.0461 0.22919 0.72899 0.0
H403 H 0.08423 0.21716 0.75075 0.0
C404 C 0.8942 0.18468 0.75861 0.0
C405 C 0.91548 0.17256 0.75439 0.0
C406 C 0.87404 0.17261 0.76856 0.0
C407 C 0.83816 0.13262 0.75268 0.0
H408 H 0.83101 0.09107 0.82578 0.0
C409 C 0.77857 0.05384 0.739 0.0
C410 C 0.78866 0.03295 0.75016 0.0
C411 C 0.7864 0.07552 0.75072 0.0
C412 C 0.83269 0.10246 0.80509 0.0
H413 H 0.933 0.13902 0.75971 0.0
H414 H 0.89799 0.11817 0.77833 0.0
H415 H 0.86182 0.12094 0.82607 0.0
H416 H 0.81352 0.01785 0.78345 0.0
H417 H 0.8281 0.05518 0.80276 0.0
H418 H 0.8113 0.1129 0.72976 0.0
C419 C 0.89683 0.13685 0.7736 0.0
C420 C 0.85018 0.11975 0.80554 0.0
C421 C 0.91678 0.14872 0.7628 0.0
C422 C 0.80523 0.03383 0.77496 0.0
C423 C 0.81356 0.05542 0.78604 0.0
C424 C 0.82117 0.11496 0.75178 0.0
C425 C 0.87514 0.14849 0.7754 0.0
C426 C 0.85351 0.13441 0.77886 0.0
C427 C 0.80522 0.07664 0.77276 0.0
C428 C 0.81884 0.09889 0.77739 0.0
H429 H 0.89274 0.20304 0.75199 0.0
H430 H 0.8574 0.18182 0.76951 0.0
H431 H 0.8406 0.14361 0.73167 0.0
H432 H 0.76587 0.05348 0.71961 0.0
H433 H 0.77885 0.09135 0.7407 0.0
C434 C 0.81967 0.90268 0.76261 0.0
C435 C 0.8279 0.92588 0.76002 0.0
C436 C 0.83541 0.88439 0.76935 0.0
C437 C 0.89495 0.87403 0.74661 0.0
H438 H 0.89158 0.81466 0.79223 0.0
C439 C 0.95161 0.80069 0.70486 0.0
C440 C 0.96976 0.79618 0.72681 0.0
C441 C 0.93067 0.81079 0.71523 0.0
C442 C 0.8926 0.83121 0.77946 0.0
H443 H 0.8579 0.94871 0.76683 0.0
H444 H 0.88512 0.917 0.77944 0.0
H445 H 0.86237 0.84577 0.80349 0.0
H446 H 0.97939 0.7961 0.77717 0.0
H447 H 0.9426 0.81432 0.79534 0.0
H448 H 0.9245 0.8597 0.722 0.0
C449 C 0.86679 0.91277 0.7755 0.0
C450 C 0.87602 0.84891 0.78587 0.0
C451 C 0.85123 0.93091 0.76835 0.0
C452 C 0.96559 0.79937 0.75982 0.0
C453 C 0.94457 0.80974 0.77022 0.0
C454 C 0.91108 0.85642 0.73992 0.0
C455 C 0.8594 0.88925 0.77382 0.0
C456 C 0.8772 0.87053 0.76952 0.0
C457 C 0.92761 0.81677 0.74768 0.0
C458 C 0.91 0.83481 0.75601 0.0
H459 H 0.80173 0.8984 0.75618 0.0
H460 H 0.82927 0.86641 0.76791 0.0
H461 H 0.89605 0.89028 0.73313 0.0
H462 H 0.95434 0.79817 0.67932 0.0
H463 H 0.91773 0.81593 0.69747 0.0
C464 C 0.61153 0.67262 0.77292 0.0
C465 C 0.5921 0.67741 0.75335 0.0
C466 C 0.6301 0.65916 0.76144 0.0
C467 C 0.63844 0.60974 0.70872 0.0
H468 H 0.701 0.61334 0.74526 0.0
C469 C 0.69626 0.54411 0.7823 0.0
C470 C 0.69789 0.52432 0.76238 0.0
C471 C 0.69046 0.56596 0.76945 0.0
C472 C 0.68379 0.61222 0.73426 0.0
H473 H 0.57722 0.67323 0.70586 0.0
H474 H 0.60982 0.64897 0.68559 0.0
H475 H 0.67693 0.64876 0.74175 0.0
H476 H 0.69568 0.51181 0.71332 0.0
H477 H 0.68449 0.55018 0.69083 0.0
H478 H 0.64482 0.57289 0.70311 0.0
C479 C 0.6107 0.65587 0.70981 0.0
C480 C 0.66998 0.63244 0.73233 0.0
C481 C 0.59215 0.66979 0.72128 0.0
C482 C 0.6947 0.52693 0.72909 0.0
C483 C 0.68826 0.54877 0.71627 0.0
C484 C 0.65237 0.58954 0.71035 0.0
C485 C 0.62955 0.64984 0.73016 0.0
C486 C 0.64659 0.63109 0.72155 0.0
C487 C 0.68563 0.56837 0.7365 0.0
C488 C 0.67459 0.59037 0.72497 0.0
H489 H 0.61183 0.67838 0.79775 0.0
H490 H 0.64405 0.65463 0.77801 0.0
H491 H 0.6205 0.60803 0.70037 0.0
H492 H 0.69864 0.5425 0.80804 0.0
H493 H 0.68823 0.58067 0.78569 0.0
C494 C 0.47274 0.66857 0.73865 0.0
C495 C 0.47618 0.69134 0.75051 0.0
C496 C 0.45128 0.66212 0.7253 0.0
C497 C 0.39017 0.67295 0.73794 0.0
H498 H 0.38494 0.62481 0.67241 0.0
C499 C 0.31576 0.60485 0.74162 0.0
C500 C 0.32601 0.58257 0.74535 0.0
C501 C 0.32914 0.62363 0.72971 0.0
C502 C 0.38589 0.63856 0.69036 0.0
H503 H 0.46045 0.72565 0.75668 0.0
H504 H 0.42214 0.71408 0.73406 0.0
H505 H 0.41958 0.65008 0.67382 0.0
H506 H 0.35731 0.56182 0.73731 0.0
H507 H 0.38037 0.59417 0.7159 0.0
H508 H 0.35739 0.66014 0.75608 0.0
C509 C 0.43631 0.70138 0.73463 0.0
C510 C 0.40571 0.653 0.69119 0.0
C511 C 0.45814 0.70801 0.74744 0.0
C512 C 0.34907 0.57888 0.73469 0.0
C513 C 0.36219 0.59739 0.7222 0.0
C514 C 0.3703 0.65851 0.73708 0.0
C515 C 0.43256 0.67819 0.72404 0.0
C516 C 0.40874 0.66927 0.71625 0.0
C517 C 0.35269 0.62015 0.72066 0.0
C518 C 0.36874 0.64018 0.71454 0.0
H519 H 0.48644 0.65545 0.74079 0.0
H520 H 0.44889 0.64403 0.71792 0.0
H521 H 0.39201 0.6853 0.75758 0.0
H522 H 0.29801 0.60809 0.7499 0.0
H523 H 0.32143 0.64102 0.72884 0.0
C524 C 0.28388 0.45509 0.74503 0.0
C525 C 0.29936 0.4742 0.74325 0.0
C526 C 0.29016 0.43345 0.73136 0.0
C527 C 0.33803 0.40374 0.68381 0.0
H528 H 0.33433 0.3576 0.7521 0.0
C529 C 0.41478 0.35126 0.73066 0.0
C530 C 0.41184 0.32814 0.74156 0.0
C531 C 0.39593 0.36355 0.71749 0.0
C532 C 0.33506 0.3699 0.73226 0.0
H533 H 0.33236 0.48664 0.72405 0.0
H534 H 0.34339 0.44938 0.70036 0.0
H535 H 0.30787 0.39104 0.7525 0.0
H536 H 0.38736 0.29918 0.74581 0.0
H537 H 0.35384 0.32118 0.72381 0.0
H538 H 0.36699 0.38367 0.66564 0.0
C539 C 0.32631 0.45068 0.71168 0.0
C540 C 0.31981 0.38914 0.73241 0.0
C541 C 0.3201 0.4721 0.72541 0.0
C542 C 0.39003 0.31699 0.73739 0.0
C543 C 0.37091 0.32954 0.7249 0.0
C544 C 0.35349 0.38467 0.68394 0.0
C545 C 0.31201 0.43074 0.7158 0.0
C546 C 0.32212 0.40706 0.70931 0.0
C547 C 0.37359 0.35314 0.71561 0.0
C548 C 0.35299 0.36833 0.7092 0.0
H549 H 0.26788 0.45635 0.75901 0.0
H550 H 0.27863 0.41852 0.73469 0.0
H551 H 0.33985 0.41688 0.66515 0.0
H552 H 0.43147 0.36018 0.73356 0.0
H553 H 0.39846 0.3818 0.71095 0.0
C554 C 0.67973 0.39083 0.73271 0.0
C555 C 0.66869 0.41241 0.73906 0.0
C556 C 0.6667 0.37192 0.7206 0.0
C557 C 0.62574 0.33648 0.73121 0.0
H558 H 0.57869 0.34097 0.66418 0.0
C559 C 0.53982 0.28659 0.74547 0.0
C560 C 0.52088 0.30224 0.74302 0.0
C561 C 0.56159 0.29243 0.73181 0.0
C562 C 0.59183 0.33924 0.68285 0.0
H563 H 0.63616 0.4319 0.73556 0.0
H564 H 0.61366 0.39927 0.71318 0.0
H565 H 0.61207 0.36793 0.66413 0.0
H566 H 0.50888 0.33504 0.7227 0.0
H567 H 0.54635 0.3453 0.69905 0.0
H568 H 0.60436 0.30976 0.75216 0.0
C569 C 0.63222 0.39681 0.7178 0.0
C570 C 0.611 0.35458 0.68263 0.0
C571 C 0.64503 0.41543 0.73074 0.0
C572 C 0.52329 0.32267 0.72462 0.0
C573 C 0.54483 0.32843 0.71089 0.0
C574 C 0.60634 0.32143 0.7318 0.0
C575 C 0.64269 0.37466 0.71377 0.0
C576 C 0.62739 0.35414 0.70778 0.0
C577 C 0.56459 0.31397 0.71556 0.0
C578 C 0.58839 0.32367 0.70873 0.0
H579 H 0.69794 0.38808 0.73929 0.0
H580 H 0.67505 0.35494 0.71793 0.0
H581 H 0.63812 0.33588 0.75097 0.0
H582 H 0.53829 0.27081 0.75987 0.0
H583 H 0.57636 0.28078 0.7356 0.0
C584 C 0.66955 0.47472 0.26247 0.0
C585 C 0.69174 0.47717 0.24834 0.0
C586 C 0.66313 0.45372 0.27719 0.0
C587 C 0.6725 0.39202 0.26477 0.0
H588 H 0.62417 0.38857 0.33027 0.0
C589 C 0.60323 0.31898 0.26216 0.0
C590 C 0.5812 0.3296 0.25755 0.0
C591 C 0.62208 0.33212 0.27427 0.0
C592 C 0.63797 0.38903 0.31235 0.0
H593 H 0.72522 0.46032 0.23981 0.0
H594 H 0.71376 0.42293 0.26515 0.0
H595 H 0.65031 0.42256 0.32836 0.0
H596 H 0.56095 0.36138 0.26445 0.0
H597 H 0.59346 0.38406 0.28626 0.0
H598 H 0.65903 0.35932 0.24734 0.0
C599 C 0.70145 0.43744 0.26515 0.0
C600 C 0.6529 0.40848 0.3112 0.0
C601 C 0.70805 0.45877 0.25082 0.0
C602 C 0.57779 0.35284 0.26771 0.0
C603 C 0.59639 0.36574 0.28043 0.0
C604 C 0.65764 0.37248 0.26605 0.0
C605 C 0.67863 0.4345 0.27763 0.0
C606 C 0.66923 0.41093 0.28605 0.0
C607 C 0.61895 0.35584 0.28268 0.0
C608 C 0.63926 0.37158 0.28855 0.0
H609 H 0.65671 0.48872 0.26074 0.0
H610 H 0.64531 0.45204 0.28602 0.0
H611 H 0.68486 0.39334 0.24507 0.0
H612 H 0.60629 0.30109 0.25431 0.0
H613 H 0.6393 0.3241 0.2757 0.0
C614 C 0.54582 0.71417 0.24965 0.0
C615 C 0.52671 0.69864 0.25019 0.0
C616 C 0.56737 0.70745 0.26317 0.0
C617 C 0.59688 0.65839 0.30844 0.0
H618 H 0.64348 0.66398 0.24097 0.0
C619 C 0.65033 0.5829 0.26024 0.0
C620 C 0.67338 0.58618 0.24924 0.0
C621 C 0.63788 0.6015 0.27377 0.0
C622 C 0.63106 0.66271 0.26061 0.0
H623 H 0.5142 0.66496 0.26697 0.0
H624 H 0.55133 0.65319 0.2905 0.0
H625 H 0.60986 0.69022 0.24128 0.0
H626 H 0.70205 0.61099 0.24512 0.0
H627 H 0.67976 0.64411 0.26785 0.0
H628 H 0.61709 0.62926 0.32576 0.0
C629 C 0.55006 0.67063 0.28027 0.0
C630 C 0.61171 0.67783 0.26086 0.0
C631 C 0.52872 0.67729 0.26665 0.0
C632 C 0.6843 0.60807 0.25362 0.0
C633 C 0.67158 0.62696 0.26652 0.0
C634 C 0.6161 0.64312 0.30797 0.0
C635 C 0.56999 0.68511 0.27736 0.0
C636 C 0.59365 0.67488 0.28361 0.0
C637 C 0.64804 0.62393 0.27596 0.0
C638 C 0.63263 0.6443 0.28296 0.0
H639 H 0.54464 0.73063 0.23667 0.0
H640 H 0.5823 0.7191 0.26077 0.0
H641 H 0.5836 0.65604 0.3268 0.0
H642 H 0.64159 0.56614 0.25713 0.0
H643 H 0.61969 0.59868 0.28038 0.0
C644 C 0.42519 0.64661 0.25249 0.0
C645 C 0.42017 0.66984 0.24364 0.0
C646 C 0.40786 0.63242 0.26589 0.0
C647 C 0.36987 0.60686 0.30202 0.0
H648 H 0.31873 0.59972 0.24132 0.0
C649 C 0.29804 0.53334 0.25416 0.0
C650 C 0.31465 0.51554 0.24867 0.0
C651 C 0.30523 0.55521 0.26621 0.0
C652 C 0.33239 0.60181 0.25921 0.0
H653 H 0.39346 0.69692 0.24302 0.0
H654 H 0.36253 0.67157 0.26566 0.0
H655 H 0.34291 0.63507 0.23989 0.0
H656 H 0.35121 0.50577 0.25362 0.0
H657 H 0.36365 0.54341 0.27519 0.0
H658 H 0.36052 0.57279 0.31964 0.0
C659 C 0.38008 0.66458 0.26263 0.0
C660 C 0.34626 0.6221 0.25837 0.0
C661 C 0.39772 0.67904 0.24979 0.0
C662 C 0.33809 0.51925 0.25763 0.0
C663 C 0.34515 0.54078 0.27022 0.0
C664 C 0.35601 0.58663 0.30288 0.0
C665 C 0.38494 0.64099 0.27026 0.0
C666 C 0.36601 0.6241 0.27844 0.0
C667 C 0.32901 0.55929 0.27362 0.0
C668 C 0.33807 0.58327 0.28014 0.0
H669 H 0.44242 0.63916 0.24811 0.0
H670 H 0.41209 0.61425 0.27101 0.0
H671 H 0.38476 0.60815 0.31813 0.0
H672 H 0.27987 0.53089 0.24718 0.0
H673 H 0.29244 0.5692 0.26855 0.0
C674 C 0.32436 0.37966 0.22214 0.0
C675 C 0.31837 0.39898 0.24131 0.0
C676 C 0.3367 0.3608 0.23514 0.0
C677 C 0.38266 0.35216 0.29238 0.0
H678 H 0.37982 0.28891 0.25805 0.0
C679 C 0.44909 0.29279 0.22283 0.0
C680 C 0.46931 0.29461 0.24185 0.0
C681 C 0.42704 0.29749 0.23583 0.0
C682 C 0.38076 0.30635 0.26839 0.0
H683 H 0.31924 0.41338 0.28942 0.0
H684 H 0.34167 0.38041 0.31226 0.0
H685 H 0.34464 0.31345 0.25776 0.0
H686 H 0.4825 0.30131 0.28974 0.0
H687 H 0.44367 0.31017 0.31262 0.0
H688 H 0.4192 0.34584 0.30044 0.0
C689 C 0.33646 0.37977 0.28725 0.0
C690 C 0.36063 0.32039 0.26824 0.0
C691 C 0.32359 0.39853 0.27427 0.0
C692 C 0.46704 0.2996 0.27474 0.0
C693 C 0.4449 0.30477 0.28772 0.0
C694 C 0.40281 0.33812 0.29251 0.0
C695 C 0.34373 0.36104 0.26751 0.0
C696 C 0.36179 0.34394 0.27826 0.0
C697 C 0.42477 0.30457 0.26805 0.0
C698 C 0.4024 0.31563 0.27854 0.0
H699 H 0.32049 0.37966 0.19664 0.0
H700 H 0.34229 0.34688 0.21912 0.0
H701 H 0.38416 0.37024 0.30022 0.0
H702 H 0.45049 0.28907 0.19736 0.0
H703 H 0.41203 0.29748 0.21984 0.0
C704 C 0.09497 0.28646 0.29305 0.0
C705 C 0.07953 0.27972 0.26835 0.0
C706 C 0.10966 0.30586 0.28929 0.0
C707 C 0.13944 0.3402 0.22818 0.0
H708 H 0.14783 0.38604 0.29623 0.0
C709 C 0.20236 0.41695 0.2105 0.0
C710 C 0.21703 0.42288 0.23632 0.0
C711 C 0.18303 0.40238 0.21514 0.0
C712 C 0.14585 0.37328 0.27713 0.0
H713 H 0.06729 0.28805 0.22037 0.0
H714 H 0.09342 0.3219 0.21353 0.0
H715 H 0.11887 0.35466 0.3025 0.0
H716 H 0.22264 0.41924 0.28748 0.0
H717 H 0.18923 0.39271 0.29562 0.0
H718 H 0.16691 0.35791 0.20327 0.0
C719 C 0.094 0.31212 0.23584 0.0
C720 C 0.12921 0.35539 0.28067 0.0
C721 C 0.07907 0.2928 0.23975 0.0
C722 C 0.21148 0.41488 0.26726 0.0
C723 C 0.19232 0.39978 0.27184 0.0
C724 C 0.15622 0.35786 0.22478 0.0
C725 C 0.1094 0.31882 0.26063 0.0
C726 C 0.12594 0.33864 0.25626 0.0
C727 C 0.17825 0.39286 0.2456 0.0
C728 C 0.1597 0.37463 0.2492 0.0
H729 H 0.09569 0.27679 0.31545 0.0
H730 H 0.12157 0.31045 0.30859 0.0
H731 H 0.13757 0.32728 0.20923 0.0
H732 H 0.2061 0.42327 0.18647 0.0
H733 H 0.17217 0.39812 0.19459 0.0
C734 C 0.70915 0.09276 0.29277 0.0
C735 C 0.7195 0.08036 0.26725 0.0
C736 C 0.69016 0.10767 0.28729 0.0
C737 C 0.66635 0.14601 0.22725 0.0
H738 H 0.60998 0.1461 0.27963 0.0
C739 C 0.59359 0.21357 0.2052 0.0
C740 C 0.58167 0.22281 0.23186 0.0
C741 C 0.60849 0.19434 0.20861 0.0
C742 C 0.62573 0.14652 0.26507 0.0
H743 H 0.71794 0.07341 0.21611 0.0
H744 H 0.68493 0.10026 0.2063 0.0
H745 H 0.63927 0.11517 0.28686 0.0
H746 H 0.57572 0.21918 0.28299 0.0
H747 H 0.60284 0.18617 0.28948 0.0
H748 H 0.65381 0.17788 0.2066 0.0
C749 C 0.69148 0.09813 0.23056 0.0
C750 C 0.64236 0.12869 0.26903 0.0
C751 C 0.71027 0.08281 0.23616 0.0
C752 C 0.58476 0.21235 0.26207 0.0
C753 C 0.60014 0.19333 0.26566 0.0
C754 C 0.64998 0.16404 0.22366 0.0
C755 C 0.68139 0.11076 0.25611 0.0
C756 C 0.66283 0.12837 0.25022 0.0
C757 C 0.61233 0.18418 0.23894 0.0
C758 C 0.62946 0.1646 0.24256 0.0
H759 H 0.71582 0.09106 0.31705 0.0
H760 H 0.68282 0.11738 0.3073 0.0
H761 H 0.68222 0.14635 0.21288 0.0
H762 H 0.59118 0.22102 0.18147 0.0
H763 H 0.61695 0.18743 0.18731 0.0
C764 C 0.78951 0.57964 0.26248 0.0
C765 C 0.7799 0.57805 0.23149 0.0
C766 C 0.80844 0.59474 0.26844 0.0
C767 C 0.85689 0.62656 0.22941 0.0
H768 H 0.84835 0.67241 0.29722 0.0
C769 C 0.91405 0.71039 0.23926 0.0
C770 C 0.91874 0.71915 0.2701 0.0
C771 C 0.89878 0.69131 0.23526 0.0
C772 C 0.85134 0.65949 0.27857 0.0
H773 H 0.78301 0.59023 0.18224 0.0
H774 H 0.8161 0.61621 0.19261 0.0
H775 H 0.81947 0.64138 0.29007 0.0
H776 H 0.91224 0.71419 0.32101 0.0
H777 H 0.88655 0.68059 0.31423 0.0
H778 H 0.88882 0.64453 0.21793 0.0
C779 C 0.80902 0.60594 0.21227 0.0
C780 C 0.83472 0.64172 0.2745 0.0
C781 C 0.78996 0.59121 0.20644 0.0
C782 C 0.90861 0.70807 0.29687 0.0
C783 C 0.89376 0.68885 0.29295 0.0
C784 C 0.87372 0.64416 0.23373 0.0
C785 C 0.81826 0.60808 0.24336 0.0
C786 C 0.83717 0.6253 0.24963 0.0
C787 C 0.88826 0.68046 0.26211 0.0
C788 C 0.87101 0.66103 0.25814 0.0
H789 H 0.7821 0.56966 0.28218 0.0
H790 H 0.81534 0.59608 0.29263 0.0
H791 H 0.85922 0.61397 0.21015 0.0
H792 H 0.92166 0.71865 0.21825 0.0
H793 H 0.89477 0.68551 0.21111 0.0
C794 C 0.28636 0.91447 0.2349 0.0
C795 C 0.27513 0.91487 0.26494 0.0
C796 C 0.30517 0.89913 0.22944 0.0
C797 C 0.35152 0.86622 0.2704 0.0
H798 H 0.34765 0.8229 0.19881 0.0
C799 C 0.41308 0.7857 0.25918 0.0
C800 C 0.41908 0.7781 0.2282 0.0
C801 C 0.3967 0.80381 0.2633 0.0
C802 C 0.34936 0.83514 0.21858 0.0
H803 H 0.27498 0.89993 0.31295 0.0
H804 H 0.30792 0.87356 0.30349 0.0
H805 H 0.31749 0.85275 0.20558 0.0
H806 H 0.41383 0.78417 0.17728 0.0
H807 H 0.38634 0.81628 0.18431 0.0
H808 H 0.38354 0.849 0.28324 0.0
C809 C 0.30217 0.88497 0.2842 0.0
C810 C 0.33198 0.85219 0.22244 0.0
C811 C 0.28319 0.89994 0.28947 0.0
C812 C 0.40916 0.7894 0.20149 0.0
C813 C 0.39326 0.80774 0.20555 0.0
C814 C 0.36915 0.84942 0.26626 0.0
C815 C 0.31327 0.88435 0.25414 0.0
C816 C 0.33275 0.86768 0.24859 0.0
C817 C 0.38642 0.81493 0.23647 0.0
C818 C 0.36818 0.83346 0.24047 0.0
H819 H 0.28051 0.92583 0.21562 0.0
H820 H 0.31352 0.89893 0.20605 0.0
H821 H 0.35254 0.87812 0.29067 0.0
H822 H 0.42052 0.77722 0.28014 0.0
H823 H 0.3917 0.80865 0.28751 0.0
C824 C 0.21909 0.60229 0.78631 0.0
C825 C 0.21963 0.58118 0.76891 0.0
C826 C 0.19925 0.61657 0.78569 0.0
C827 C 0.14663 0.63027 0.73874 0.0
H828 H 0.12868 0.66315 0.81676 0.0
C829 C 0.07029 0.70042 0.76766 0.0
C830 C 0.07949 0.71986 0.75102 0.0
C831 C 0.08449 0.68076 0.77363 0.0
C832 C 0.13324 0.6537 0.79504 0.0
H833 H 0.20004 0.55855 0.73675 0.0
H834 H 0.16503 0.5836 0.73576 0.0
H835 H 0.15944 0.63309 0.81878 0.0
H836 H 0.11088 0.73473 0.72954 0.0
H837 H 0.13544 0.70056 0.74004 0.0
H838 H 0.12104 0.6517 0.71492 0.0
C839 C 0.1801 0.58913 0.74972 0.0
C840 C 0.15097 0.63675 0.79602 0.0
C841 C 0.20013 0.57486 0.75017 0.0
C842 C 0.10326 0.71987 0.74205 0.0
C843 C 0.1173 0.70039 0.74798 0.0
C844 C 0.12899 0.64727 0.73778 0.0
C845 C 0.17937 0.60999 0.76787 0.0
C846 C 0.15835 0.62539 0.76768 0.0
C847 C 0.10789 0.68053 0.76304 0.0
C848 C 0.12264 0.65946 0.76574 0.0
H849 H 0.23399 0.60772 0.80071 0.0
H850 H 0.19955 0.63287 0.79912 0.0
H851 H 0.15195 0.62194 0.71651 0.0
H852 H 0.05196 0.69997 0.77463 0.0
H853 H 0.07702 0.66549 0.78533 0.0
C854 C 0.41855 0.20511 0.7442 0.0
C855 C 0.41369 0.22278 0.76677 0.0
C856 C 0.40369 0.18563 0.74141 0.0
C857 C 0.35673 0.15338 0.78521 0.0
H858 H 0.33981 0.13114 0.70032 0.0
C859 C 0.27752 0.10016 0.71882 0.0
C860 C 0.27473 0.08057 0.73897 0.0
C861 C 0.29627 0.11553 0.72311 0.0
C862 C 0.34433 0.13718 0.72421 0.0
H863 H 0.38929 0.23419 0.80367 0.0
H864 H 0.36317 0.20075 0.79821 0.0
H865 H 0.36919 0.16191 0.70585 0.0
H866 H 0.28917 0.06188 0.77981 0.0
H867 H 0.32229 0.08886 0.78729 0.0
H868 H 0.331 0.1294 0.80342 0.0
C869 C 0.37873 0.20147 0.78327 0.0
C870 C 0.36139 0.15462 0.7274 0.0
C871 C 0.39359 0.22079 0.78616 0.0
C872 C 0.29088 0.07688 0.76398 0.0
C873 C 0.3098 0.09231 0.76825 0.0
C874 C 0.33957 0.136 0.78201 0.0
C875 C 0.38366 0.18356 0.76105 0.0
C876 C 0.36741 0.1633 0.75788 0.0
C877 C 0.3128 0.11165 0.74757 0.0
C878 C 0.3328 0.12812 0.75141 0.0
H879 H 0.43401 0.20612 0.7291 0.0
H880 H 0.40805 0.17205 0.7242 0.0
H881 H 0.3613 0.15938 0.8091 0.0
H882 H 0.26526 0.10363 0.69949 0.0
H883 H 0.29771 0.13058 0.70731 0.0
C884 C 0.8926 0.274 0.72298 0.0
C885 C 0.91559 0.27667 0.73442 0.0
C886 C 0.87702 0.29282 0.7235 0.0
C887 C 0.86691 0.35208 0.75765 0.0
H888 H 0.82243 0.3553 0.68707 0.0
C889 C 0.79562 0.42517 0.73623 0.0
C890 C 0.77426 0.41538 0.74649 0.0
C891 C 0.81506 0.41065 0.73075 0.0
C892 C 0.83502 0.35476 0.70658 0.0
H893 H 0.94034 0.30075 0.75619 0.0
H894 H 0.91323 0.33417 0.75626 0.0
H895 H 0.85288 0.32515 0.68686 0.0
H896 H 0.75581 0.38307 0.7574 0.0
H897 H 0.7895 0.35765 0.74636 0.0
H898 H 0.84871 0.3819 0.77709 0.0
C899 C 0.90706 0.31738 0.74743 0.0
C900 C 0.85223 0.33734 0.70681 0.0
C901 C 0.92258 0.29829 0.74747 0.0
C902 C 0.77216 0.39094 0.7495 0.0
C903 C 0.79132 0.37646 0.74323 0.0
C904 C 0.84989 0.36977 0.75709 0.0
C905 C 0.88424 0.31496 0.73478 0.0
C906 C 0.86788 0.33527 0.7329 0.0
C907 C 0.81299 0.38626 0.73461 0.0
C908 C 0.83352 0.37078 0.73196 0.0
H909 H 0.88674 0.25738 0.71314 0.0
H910 H 0.85935 0.29002 0.71468 0.0
H911 H 0.87854 0.35096 0.77817 0.0
H912 H 0.79762 0.44404 0.73415 0.0
H913 H 0.83176 0.41843 0.72419 0.0
C914 C 0.72419 0.89378 0.7296 0.0
C915 C 0.72123 0.91695 0.74022 0.0
C916 C 0.70548 0.87802 0.73033 0.0
C917 C 0.64527 0.86853 0.76264 0.0
H918 H 0.64326 0.82294 0.69334 0.0
C919 C 0.57058 0.79936 0.74038 0.0
C920 C 0.57955 0.77732 0.74921 0.0
C921 C 0.58587 0.81834 0.7357 0.0
C922 C 0.6435 0.8358 0.71254 0.0
H923 H 0.69669 0.94181 0.76078 0.0
H924 H 0.66354 0.91448 0.76109 0.0
H925 H 0.67401 0.85275 0.69393 0.0
H926 H 0.61112 0.75725 0.75856 0.0
H927 H 0.63788 0.79012 0.74874 0.0
H928 H 0.61441 0.85137 0.78081 0.0
C929 C 0.68046 0.90824 0.75284 0.0
C930 C 0.66127 0.85266 0.71324 0.0
C931 C 0.69943 0.92392 0.75273 0.0
C932 C 0.6039 0.77413 0.75164 0.0
C933 C 0.61914 0.79284 0.74608 0.0
C934 C 0.62721 0.85188 0.76156 0.0
C935 C 0.68314 0.88523 0.74093 0.0
C936 C 0.66284 0.8688 0.73883 0.0
C937 C 0.61022 0.81516 0.73887 0.0
C938 C 0.62657 0.83512 0.73689 0.0
H939 H 0.74093 0.88793 0.72014 0.0
H940 H 0.70851 0.86024 0.72208 0.0
H941 H 0.64595 0.88051 0.78282 0.0
H942 H 0.55179 0.80218 0.73883 0.0
H943 H 0.57875 0.83553 0.73023 0.0
C944 C 0.00717 0.25217 0.38024 0.0
C945 C 0.01212 0.23069 0.36512 0.0
C946 C 0.00322 0.253 0.41338 0.0
C947 C 0.01627 0.21834 0.48643 0.0
H948 H 0.97289 0.26137 0.52754 0.0
C949 C 0.98654 0.2105 0.61822 0.0
C950 C 0.98513 0.23124 0.63633 0.0
C951 C 0.9919 0.21141 0.58554 0.0
C952 C 0.98528 0.24948 0.51633 0.0
H953 H 0.01505 0.19309 0.37204 0.0
H954 H 0.00721 0.19435 0.42951 0.0
H955 H 0.97572 0.26061 0.46899 0.0
H956 H 0.98902 0.26913 0.63491 0.0
H957 H 0.99812 0.27072 0.57747 0.0
H958 H 0.02531 0.20679 0.53381 0.0
C959 C 0.00728 0.21069 0.41618 0.0
C960 C 0.9869 0.24901 0.48283 0.0
C961 C 0.01152 0.20992 0.3832 0.0
C962 C 0.99005 0.25286 0.6215 0.0
C963 C 0.99507 0.25381 0.58865 0.0
C964 C 0.01447 0.21864 0.51984 0.0
C965 C 0.00389 0.23231 0.43187 0.0
C966 C 0.00224 0.23324 0.46747 0.0
C967 C 0.99564 0.23311 0.57031 0.0
C968 C 0.99884 0.23407 0.53508 0.0
H969 H 0.00764 0.26848 0.36685 0.0
H970 H 0.00074 0.26996 0.42467 0.0
H971 H 0.02876 0.20644 0.47548 0.0
H972 H 0.98284 0.19361 0.6291 0.0
H973 H 0.99212 0.19521 0.57188 0.0
C974 C 0.74234 0.9881 0.6218 0.0
C975 C 0.7638 0.98526 0.63797 0.0
C976 C 0.74205 0.99311 0.58889 0.0
C977 C 0.77759 0.01658 0.52284 0.0
H978 H 0.7413 0.97485 0.46839 0.0
C979 C 0.79044 0.0172 0.38651 0.0
C980 C 0.77021 0.01588 0.36735 0.0
C981 C 0.78923 0.01237 0.41934 0.0
C982 C 0.7513 0.98686 0.48323 0.0
H983 H 0.80169 0.98651 0.63302 0.0
H984 H 0.80116 0.99576 0.57584 0.0
H985 H 0.73885 0.97101 0.52675 0.0
H986 H 0.73308 0.00745 0.36704 0.0
H987 H 0.7308 -0.00045 0.42451 0.0
H988 H 0.78984 0.03272 0.47968 0.0
C989 C 0.7846 0.99394 0.58844 0.0
C990 C 0.74985 0.98466 0.51663 0.0
C991 C 0.7849 0.98858 0.62112 0.0
C992 C 0.74898 0.00853 0.38126 0.0
C993 C 0.7477 0.00396 0.41422 0.0
C994 C 0.77885 0.01896 0.48953 0.0
C995 C 0.7632 0.99576 0.57188 0.0
C996 C 0.7632 -0.00067 0.53669 0.0
C997 C 0.7677 0.00642 0.43379 0.0
C998 C 0.76596 0.00393 0.46927 0.0
H999 H 0.72583 0.98552 0.63424 0.0
H1000 H 0.72532 0.99462 0.57665 0.0
H1001 H 0.78787 0.02827 0.53782 0.0
H1002 H 0.80709 0.02261 0.37632 0.0
H1003 H 0.80513 0.01376 0.4335 0.0
C1004 C 0.02746 0.78413 0.61333 0.0
C1005 C 0.02667 0.76348 0.63169 0.0
C1006 C 0.02436 0.7833 0.58012 0.0
C1007 C 0.00266 0.74527 0.514 0.0
H1008 H 0.03807 0.78924 0.46172 0.0
C1009 C 0.99805 0.74546 0.37547 0.0
C1010 C 0.99066 0.7672 0.36312 0.0
C1011 C 0.00572 0.74368 0.40728 0.0
C1012 C 0.02816 0.77683 0.47607 0.0
H1013 H 0.02178 0.72576 0.62992 0.0
H1014 H 0.01703 0.72412 0.57167 0.0
H1015 H 0.04431 0.78822 0.51967 0.0
H1016 H 0.98687 0.80433 0.3734 0.0
H1017 H 0.00089 0.80132 0.42874 0.0
H1018 H 0.98676 0.7338 0.47006 0.0
C1019 C 0.01954 0.74107 0.58294 0.0
C1020 C 0.03154 0.77635 0.50928 0.0
C1021 C 0.02229 0.74198 0.61632 0.0
C1022 C 0.99241 0.78735 0.3824 0.0
C1023 C 0.00049 0.78565 0.41397 0.0
C1024 C -0.00043 0.74553 0.48071 0.0
C1025 C 0.0208 0.76172 0.56438 0.0
C1026 C 0.01844 0.76093 0.52878 0.0
C1027 C 0.00658 0.7637 0.42694 0.0
C1028 C 0.01196 0.76162 0.46156 0.0
H1029 H 0.03063 0.80098 0.62461 0.0
H1030 H 0.02478 0.79963 0.56681 0.0
H1031 H 0.99208 0.73335 0.52819 0.0
H1032 H 0.9968 0.72964 0.36111 0.0
H1033 H 0.01047 0.7266 0.41675 0.0
C1034 C 0.25301 0.00543 0.62479 0.0
C1035 C 0.23115 0.01039 0.63889 0.0
C1036 C 0.25443 -0.00047 0.59223 0.0
C1037 C 0.22014 0.97775 0.52377 0.0
H1038 H 0.26143 0.01622 0.47149 0.0
C1039 C 0.20976 0.98022 0.38731 0.0
C1040 C 0.2302 0.97994 0.36851 0.0
C1041 C 0.2111 0.98411 0.42034 0.0
C1042 C 0.25005 0.00509 0.48575 0.0
H1043 H 0.19358 0.01189 0.63069 0.0
H1044 H 0.19601 0.00109 0.57408 0.0
H1045 H 0.26225 0.02009 0.52995 0.0
H1046 H 0.268 0.98447 0.36912 0.0
H1047 H 0.27045 0.99084 0.42706 0.0
H1048 H 0.20798 0.96259 0.47991 0.0
C1049 C 0.21204 0.00194 0.58804 0.0
C1050 C 0.25056 0.0073 0.51921 0.0
C1051 C 0.21066 0.00819 0.62039 0.0
C1052 C 0.25194 0.98469 0.38308 0.0
C1053 C 0.25333 0.98834 0.41626 0.0
C1054 C 0.21979 0.97537 0.49043 0.0
C1055 C 0.23396 0.99809 0.57348 0.0
C1056 C 0.2353 0.99393 0.53845 0.0
C1057 C 0.23296 0.98751 0.43538 0.0
C1058 C 0.23439 0.98935 0.47095 0.0
H1059 H 0.26909 0.0071 0.63853 0.0
H1060 H 0.27151 0.99647 0.58156 0.0
H1061 H 0.20842 0.96703 0.53812 0.0
H1062 H 0.19274 0.97685 0.37664 0.0
H1063 H 0.19499 0.98405 0.43417 0.0
C1064 C 0.51389 0.75644 0.87616 0.0
C1065 C 0.51879 0.73454 0.86215 0.0
C1066 C 0.51115 0.75837 0.90949 0.0
C1067 C 0.52715 0.72638 0.98389 0.0
H1068 H 0.4817 0.76737 0.02469 0.0
C1069 C 0.49494 0.71529 0.11359 0.0
C1070 C 0.49181 0.73548 0.13243 0.0
C1071 C 0.50158 0.71724 0.08145 0.0
C1072 C 0.49473 0.75614 0.01358 0.0
H1073 H 0.52301 0.69733 0.87141 0.0
H1074 H 0.51735 0.70049 0.92913 0.0
H1075 H 0.48458 0.76652 0.96611 0.0
H1076 H 0.49406 0.7735 0.13303 0.0
H1077 H 0.50534 0.77693 0.07638 0.0
H1078 H 0.53664 0.71536 0.03133 0.0
C1079 C 0.51652 0.71634 0.91477 0.0
C1080 C 0.49636 0.75562 0.98005 0.0
C1081 C 0.5195 0.71447 0.88165 0.0
C1082 C 0.49644 0.75765 0.11901 0.0
C1083 C 0.50271 0.75963 0.08662 0.0
C1084 C 0.52536 0.72675 0.01729 0.0
C1085 C 0.51307 0.73839 0.92923 0.0
C1086 C 0.51225 0.74034 0.96482 0.0
C1087 C 0.50489 0.73944 0.06745 0.0
C1088 C 0.50886 0.74131 0.03242 0.0
H1089 H 0.51338 0.77222 0.86162 0.0
H1090 H 0.50853 0.77562 0.91985 0.0
H1091 H 0.54007 0.71492 0.97299 0.0
H1092 H 0.49152 0.69799 0.12339 0.0
H1093 H 0.503 0.70141 0.06714 0.0
C1094 C 0.24607 0.50715 0.87893 0.0
C1095 C 0.26763 0.51177 0.86375 0.0
C1096 C 0.24539 0.5018 0.91169 0.0
C1097 C 0.28034 0.48051 0.97932 0.0
H1098 H 0.24163 0.52144 0.03178 0.0
C1099 C 0.29124 0.48163 0.11571 0.0
C1100 C 0.27084 0.48277 0.13451 0.0
C1101 C 0.29024 0.48609 0.0828 0.0
C1102 C 0.25228 0.50963 0.01752 0.0
H1103 H 0.30537 0.51314 0.87019 0.0
H1104 H 0.30421 0.50314 0.92725 0.0
H1105 H 0.24009 0.52461 0.9733 0.0
H1106 H 0.23357 0.49043 0.13417 0.0
H1107 H 0.2316 0.49761 0.07642 0.0
H1108 H 0.29228 0.46515 0.02312 0.0
C1109 C 0.28788 0.50392 0.91394 0.0
C1110 C 0.25138 0.51146 0.98405 0.0
C1111 C 0.28854 0.50968 0.88136 0.0
C1112 C 0.2496 0.4896 0.12018 0.0
C1113 C 0.2485 0.4937 0.08708 0.0
C1114 C 0.28102 0.47844 0.0127 0.0
C1115 C 0.26628 0.50055 0.92955 0.0
C1116 C 0.26565 0.49713 0.96473 0.0
C1117 C 0.26871 0.49135 0.06786 0.0
C1118 C 0.26731 0.49324 0.03227 0.0
H1119 H 0.22968 0.50875 0.8659 0.0
H1120 H 0.22854 0.49908 0.92322 0.0
H1121 H 0.29132 0.46911 0.96486 0.0
H1122 H 0.30789 0.4766 0.12628 0.0
H1123 H 0.3063 0.48486 0.06896 0.0
C1124 C 0.51507 0.29298 0.11591 0.0
C1125 C 0.51602 0.27189 0.13329 0.0
C1126 C 0.51004 0.29281 0.08311 0.0
C1127 C 0.48757 0.25527 0.01666 0.0
H1128 H 0.52323 0.29886 0.96409 0.0
C1129 C 0.48819 0.25102 0.87813 0.0
C1130 C 0.48214 0.27227 0.86309 0.0
C1131 C 0.49371 0.25058 0.91083 0.0
C1132 C 0.51314 0.28665 0.97852 0.0
H1133 H 0.51162 0.23413 0.13041 0.0
H1134 H 0.50346 0.23369 0.07293 0.0
H1135 H 0.5286 0.29882 0.02218 0.0
H1136 H 0.47835 0.30983 0.86983 0.0
H1137 H 0.48856 0.30912 0.92685 0.0
H1138 H 0.47253 0.24284 0.97263 0.0
C1139 C 0.50617 0.25046 0.08463 0.0
C1140 C 0.51603 0.28672 0.01182 0.0
C1141 C 0.5109 0.25068 0.11759 0.0
C1142 C 0.4829 0.29321 0.88087 0.0
C1143 C 0.48879 0.29281 0.91343 0.0
C1144 C 0.48492 0.25501 0.98329 0.0
C1145 C 0.50618 0.27149 0.06685 0.0
C1146 C 0.50312 0.27119 0.03136 0.0
C1147 C 0.49368 0.27143 0.92886 0.0
C1148 C 0.49754 0.27082 0.96397 0.0
H1149 H 0.51872 0.30962 0.12753 0.0
H1150 H 0.50953 0.30941 0.0704 0.0
H1151 H 0.47713 0.24328 0.03092 0.0
H1152 H 0.48768 0.2346 0.865 0.0
H1153 H 0.49765 0.2339 0.92216 0.0
C1154 C 0.749 0.48684 0.87419 0.0
C1155 C 0.73163 0.47125 0.86322 0.0
C1156 C 0.7511 0.49178 0.907 0.0
C1157 C 0.73833 0.46773 0.98668 0.0
H1158 H 0.73671 0.53251 0.01542 0.0
C1159 C 0.74762 0.49818 0.12015 0.0
C1160 C 0.72996 0.51383 0.13007 0.0
C1161 C 0.74963 0.49185 0.08776 0.0
C1162 C 0.7373 0.51435 0.00766 0.0
H1163 H 0.70296 0.44853 0.87785 0.0
H1164 H 0.70687 0.45693 0.93504 0.0
H1165 H 0.73765 0.52384 0.95784 0.0
H1166 H 0.70017 0.53458 0.11413 0.0
H1167 H 0.70392 0.52376 0.05774 0.0
H1168 H 0.73773 0.45828 0.03659 0.0
C1169 C 0.71881 0.46531 0.91832 0.0
C1170 C 0.738 0.50942 0.97482 0.0
C1171 C 0.71645 0.46069 0.88558 0.0
C1172 C 0.71399 0.52251 0.10724 0.0
C1173 C 0.71622 0.51648 0.07493 0.0
C1174 C 0.73801 0.47268 0.01957 0.0
C1175 C 0.73615 0.48086 0.92934 0.0
C1176 C 0.738 0.48607 0.96405 0.0
C1177 C 0.73424 0.50138 0.06483 0.0
C1178 C 0.73694 0.49603 0.03028 0.0
H1179 H 0.76095 0.49519 0.85745 0.0
H1180 H 0.7646 0.50386 0.91498 0.0
H1181 H 0.73851 0.44957 0.97889 0.0
H1182 H 0.76016 0.49123 0.13726 0.0
H1183 H 0.76363 0.48012 0.08047 0.0
loop_
_geom_bond_atom_site_label_1
_geom_bond_atom_site_label_2
_geom_bond_distance
_geom_bond_site_symmetry_2
_ccdc_geom_bond_type
Co0 O1 2.216 . S
Co0 O2 2.091 . S
Co0 O4 2.004 . S
Co0 O10 2.021 . S
Co0 O12 2.137 . S
Co0 O13 2.244 . S
O1 Co0 2.216 . S
O1 C8 1.247 . S
O2 Co0 2.091 . S
O2 C8 1.261 . S
C3 O12 1.247 . S
C3 O13 1.272 . S
O4 Co0 2.004 . S
O4 C9 1.259 1_455 S
Co5 O6 2.059 1_455 S
Co5 O11 2.052 . S
Co5 O13 2.135 . S
O6 Co5 2.059 1_655 S
O6 C9 1.236 . S
C7 O10 1.238 . S
C7 O11 1.241 . S
C8 O1 1.247 . S
C8 O2 1.261 . S
C9 O4 1.259 1_655 S
C9 O6 1.236 . S
O10 Co0 2.021 . S
O10 C7 1.238 . S
O11 Co5 2.052 . S
O11 C7 1.241 . S
O12 Co0 2.137 . S
O12 C3 1.247 . S
O13 Co0 2.244 . S
O13 C3 1.272 . S
O13 Co5 2.135 . S
Co14 O15 2.216 . S
Co14 O16 2.091 . S
Co14 O18 2.004 . S
Co14 O24 2.021 . S
Co14 O26 2.137 . S
Co14 O27 2.244 . S
O15 Co14 2.216 . S
O15 C22 1.247 . S
O16 Co14 2.091 . S
O16 C22 1.261 . S
C17 O26 1.247 . S
C17 O27 1.272 . S
O18 Co14 2.004 . S
O18 C23 1.259 1_545 S
Co19 O20 2.059 1_545 S
Co19 O25 2.052 . S
Co19 O27 2.135 . S
O20 Co19 2.059 1_565 S
O20 C23 1.236 . S
C21 O24 1.238 . S
C21 O25 1.241 . S
C22 O15 1.247 . S
C22 O16 1.261 . S
C23 O18 1.259 1_565 S
C23 O20 1.236 . S
O24 Co14 2.021 . S
O24 C21 1.238 . S
O25 Co19 2.052 . S
O25 C21 1.241 . S
O26 Co14 2.137 . S
O26 C17 1.247 . S
O27 Co14 2.244 . S
O27 C17 1.272 . S
O27 Co19 2.135 . S
Co28 O29 2.216 . S
Co28 O30 2.091 . S
Co28 O32 2.004 . S
Co28 O38 2.021 . S
Co28 O40 2.137 . S
Co28 O41 2.244 . S
O29 Co28 2.216 . S
O29 C36 1.247 . S
O30 Co28 2.091 . S
O30 C36 1.261 . S
C31 O40 1.247 . S
C31 O41 1.272 . S
O32 Co28 2.004 . S
O32 C37 1.259 1_655 S
Co33 O34 2.059 1_655 S
Co33 O39 2.052 . S
Co33 O41 2.135 . S
O34 Co33 2.059 1_455 S
O34 C37 1.236 . S
C35 O38 1.238 . S
C35 O39 1.241 . S
C36 O29 1.247 . S
C36 O30 1.261 . S
C37 O32 1.259 1_455 S
C37 O34 1.236 . S
O38 Co28 2.021 . S
O38 C35 1.238 . S
O39 Co33 2.052 . S
O39 C35 1.241 . S
O40 Co28 2.137 . S
O40 C31 1.247 . S
O41 Co28 2.244 . S
O41 C31 1.272 . S
O41 Co33 2.135 . S
Co42 O43 2.216 . S
Co42 O44 2.091 . S
Co42 O46 2.004 . S
Co42 O52 2.021 . S
Co42 O54 2.137 . S
Co42 O55 2.244 . S
O43 Co42 2.216 . S
O43 C50 1.247 . S
O44 Co42 2.091 . S
O44 C50 1.261 . S
C45 O54 1.247 . S
C45 O55 1.272 . S
O46 Co42 2.004 . S
O46 C51 1.259 1_565 S
Co47 O48 2.059 1_565 S
Co47 O53 2.052 . S
Co47 O55 2.135 . S
O48 Co47 2.059 1_545 S
O48 C51 1.236 . S
C49 O52 1.238 . S
C49 O53 1.241 . S
C50 O43 1.247 . S
C50 O44 1.261 . S
C51 O46 1.259 1_545 S
C51 O48 1.236 . S
O52 Co42 2.021 . S
O52 C49 1.238 . S
O53 Co47 2.052 . S
O53 C49 1.241 . S
O54 Co42 2.137 . S
O54 C45 1.247 . S
O55 Co42 2.244 . S
O55 C45 1.272 . S
O55 Co47 2.135 . S
Co56 O57 2.216 . S
Co56 O58 2.091 . S
Co56 O60 2.004 . S
Co56 O66 2.021 . S
Co56 O68 2.137 . S
Co56 O69 2.244 . S
O57 Co56 2.216 . S
O57 C64 1.247 . S
O58 Co56 2.091 . S
O58 C64 1.261 . S
C59 O68 1.247 . S
C59 O69 1.272 . S
O60 Co56 2.004 . S
O60 C65 1.259 1_455 S
Co61 O62 2.059 1_455 S
Co61 O67 2.052 . S
Co61 O69 2.135 . S
O62 Co61 2.059 1_655 S
O62 C65 1.236 . S
C63 O66 1.238 . S
C63 O67 1.241 . S
C64 O57 1.247 . S
C64 O58 1.261 . S
C65 O60 1.259 1_655 S
C65 O62 1.236 . S
O66 Co56 2.021 . S
O66 C63 1.238 . S
O67 Co61 2.052 . S
O67 C63 1.241 . S
O68 Co56 2.137 . S
O68 C59 1.247 . S
O69 Co56 2.244 . S
O69 C59 1.272 . S
O69 Co61 2.135 . S
Co70 O71 2.216 . S
Co70 O72 2.091 . S
Co70 O74 2.004 . S
Co70 O80 2.021 . S
Co70 O82 2.137 . S
Co70 O83 2.244 . S
O71 Co70 2.216 . S
O71 C78 1.247 . S
O72 Co70 2.091 . S
O72 C78 1.261 . S
C73 O82 1.247 . S
C73 O83 1.272 . S
O74 Co70 2.004 . S
O74 C79 1.259 1_545 S
Co75 O76 2.059 1_545 S
Co75 O81 2.052 . S
Co75 O83 2.135 . S
O76 Co75 2.059 1_565 S
O76 C79 1.236 . S
C77 O80 1.238 . S
C77 O81 1.241 . S
C78 O71 1.247 . S
C78 O72 1.261 . S
C79 O74 1.259 1_565 S
C79 O76 1.236 . S
O80 Co70 2.021 . S
O80 C77 1.238 . S
O81 Co75 2.052 . S
O81 C77 1.241 . S
O82 Co70 2.137 . S
O82 C73 1.247 . S
O83 Co70 2.244 . S
O83 C73 1.272 . S
O83 Co75 2.135 . S
Co84 O85 2.216 . S
Co84 O86 2.091 . S
Co84 O88 2.004 . S
Co84 O94 2.021 . S
Co84 O96 2.137 . S
Co84 O97 2.244 . S
O85 Co84 2.216 . S
O85 C92 1.247 . S
O86 Co84 2.091 . S
O86 C92 1.261 . S
C87 O96 1.247 . S
C87 O97 1.272 . S
O88 Co84 2.004 . S
O88 C93 1.259 1_655 S
Co89 O90 2.059 1_655 S
Co89 O95 2.052 . S
Co89 O97 2.135 . S
O90 Co89 2.059 1_455 S
O90 C93 1.236 . S
C91 O94 1.238 . S
C91 O95 1.241 . S
C92 O85 1.247 . S
C92 O86 1.261 . S
C93 O88 1.259 1_455 S
C93 O90 1.236 . S
O94 Co84 2.021 . S
O94 C91 1.238 . S
O95 Co89 2.052 . S
O95 C91 1.241 . S
O96 Co84 2.137 . S
O96 C87 1.247 . S
O97 Co84 2.244 . S
O97 C87 1.272 . S
O97 Co89 2.135 . S
Co98 O99 2.216 . S
Co98 O100 2.091 . S
Co98 O102 2.004 . S
Co98 O108 2.021 . S
Co98 O110 2.137 . S
Co98 O111 2.244 . S
O99 Co98 2.216 . S
O99 C106 1.247 . S
O100 Co98 2.091 . S
O100 C106 1.261 . S
C101 O110 1.247 . S
C101 O111 1.272 . S
O102 Co98 2.004 . S
O102 C107 1.259 1_565 S
Co103 O104 2.059 1_565 S
Co103 O109 2.052 . S
Co103 O111 2.135 . S
O104 Co103 2.059 1_545 S
O104 C107 1.236 . S
C105 O108 1.238 . S
C105 O109 1.241 . S
C106 O99 1.247 . S
C106 O100 1.261 . S
C107 O102 1.259 1_545 S
C107 O104 1.236 . S
O108 Co98 2.021 . S
O108 C105 1.238 . S
O109 Co103 2.052 . S
O109 C105 1.241 . S
O110 Co98 2.137 . S
O110 C101 1.247 . S
O111 Co98 2.244 . S
O111 C101 1.272 . S
O111 Co103 2.135 . S
Co112 O113 2.216 . S
Co112 O114 2.091 . S
Co112 O116 2.004 . S
Co112 O122 2.021 . S
Co112 O124 2.137 . S
Co112 O125 2.244 . S
O113 Co112 2.216 . S
O113 C120 1.247 . S
O114 Co112 2.091 . S
O114 C120 1.261 . S
C115 O124 1.247 . S
C115 O125 1.272 . S
O116 Co112 2.004 . S
O116 C121 1.259 . S
Co117 O118 2.061 . S
Co117 O123 2.052 . S
Co117 O125 2.135 . S
O118 Co117 2.061 . S
O118 C121 1.235 . S
C119 O122 1.238 . S
C119 O123 1.241 . S
C120 O113 1.247 . S
C120 O114 1.261 . S
C121 O116 1.259 . S
C121 O118 1.235 . S
O122 Co112 2.021 . S
O122 C119 1.238 . S
O123 Co117 2.052 . S
O123 C119 1.241 . S
O124 Co112 2.137 . S
O124 C115 1.247 . S
O125 Co112 2.244 . S
O125 C115 1.272 . S
O125 Co117 2.135 . S
Co126 O127 2.216 . S
Co126 O128 2.091 . S
Co126 O130 2.004 . S
Co126 O136 2.021 . S
Co126 O138 2.137 . S
Co126 O139 2.244 . S
O127 Co126 2.216 . S
O127 C134 1.247 . S
O128 Co126 2.091 . S
O128 C134 1.261 . S
C129 O138 1.247 . S
C129 O139 1.272 . S
O130 Co126 2.004 . S
O130 C135 1.259 . S
Co131 O132 2.061 . S
Co131 O137 2.052 . S
Co131 O139 2.135 . S
O132 Co131 2.061 . S
O132 C135 1.235 . S
C133 O136 1.238 . S
C133 O137 1.241 . S
C134 O127 1.247 . S
C134 O128 1.261 . S
C135 O130 1.259 . S
C135 O132 1.235 . S
O136 Co126 2.021 . S
O136 C133 1.238 . S
O137 Co131 2.052 . S
O137 C133 1.241 . S
O138 Co126 2.137 . S
O138 C129 1.247 . S
O139 Co126 2.244 . S
O139 C129 1.272 . S
O139 Co131 2.135 . S
Co140 O141 2.216 . S
Co140 O142 2.091 . S
Co140 O144 2.004 . S
Co140 O150 2.021 . S
Co140 O152 2.137 . S
Co140 O153 2.244 . S
O141 Co140 2.216 . S
O141 C148 1.247 . S
O142 Co140 2.091 . S
O142 C148 1.261 . S
C143 O152 1.247 . S
C143 O153 1.272 . S
O144 Co140 2.004 . S
O144 C149 1.259 . S
Co145 O146 2.061 . S
Co145 O151 2.052 . S
Co145 O153 2.135 . S
O146 Co145 2.061 . S
O146 C149 1.235 . S
C147 O150 1.238 . S
C147 O151 1.241 . S
C148 O141 1.247 . S
C148 O142 1.261 . S
C149 O144 1.259 . S
C149 O146 1.235 . S
O150 Co140 2.021 . S
O150 C147 1.238 . S
O151 Co145 2.052 . S
O151 C147 1.241 . S
O152 Co140 2.137 . S
O152 C143 1.247 . S
O153 Co140 2.244 . S
O153 C143 1.272 . S
O153 Co145 2.135 . S
Co154 O155 2.216 . S
Co154 O156 2.091 . S
Co154 O158 2.004 . S
Co154 O164 2.021 . S
Co154 O166 2.137 . S
Co154 O167 2.244 . S
O155 Co154 2.216 . S
O155 C162 1.247 . S
O156 Co154 2.091 . S
O156 C162 1.261 . S
C157 O166 1.247 . S
C157 O167 1.272 . S
O158 Co154 2.004 . S
O158 C163 1.259 . S
Co159 O160 2.061 . S
Co159 O165 2.052 . S
Co159 O167 2.135 . S
O160 Co159 2.061 . S
O160 C163 1.235 . S
C161 O164 1.238 . S
C161 O165 1.241 . S
C162 O155 1.247 . S
C162 O156 1.261 . S
C163 O158 1.259 . S
C163 O160 1.235 . S
O164 Co154 2.021 . S
O164 C161 1.238 . S
O165 Co159 2.052 . S
O165 C161 1.241 . S
O166 Co154 2.137 . S
O166 C157 1.247 . S
O167 Co154 2.244 . S
O167 C157 1.272 . S
O167 Co159 2.135 . S
Co168 O169 2.216 . S
Co168 O170 2.091 . S
Co168 O172 2.004 . S
Co168 O178 2.021 . S
Co168 O180 2.137 . S
Co168 O181 2.244 . S
O169 Co168 2.216 . S
O169 C176 1.247 . S
O170 Co168 2.091 . S
O170 C176 1.261 . S
C171 O180 1.247 . S
C171 O181 1.272 . S
O172 Co168 2.004 . S
O172 C177 1.259 . S
Co173 O174 2.061 . S
Co173 O179 2.052 . S
Co173 O181 2.135 . S
O174 Co173 2.061 . S
O174 C177 1.235 . S
C175 O178 1.238 . S
C175 O179 1.241 . S
C176 O169 1.247 . S
C176 O170 1.261 . S
C177 O172 1.259 . S
C177 O174 1.235 . S
O178 Co168 2.021 . S
O178 C175 1.238 . S
O179 Co173 2.052 . S
O179 C175 1.241 . S
O180 Co168 2.137 . S
O180 C171 1.247 . S
O181 Co168 2.244 . S
O181 C171 1.272 . S
O181 Co173 2.135 . S
Co182 O183 2.216 . S
Co182 O184 2.091 . S
Co182 O186 2.004 . S
Co182 O192 2.021 . S
Co182 O194 2.137 . S
Co182 O195 2.244 . S
O183 Co182 2.216 . S
O183 C190 1.247 . S
O184 Co182 2.091 . S
O184 C190 1.261 . S
C185 O194 1.247 . S
C185 O195 1.272 . S
O186 Co182 2.004 . S
O186 C191 1.259 . S
Co187 O188 2.061 . S
Co187 O193 2.052 . S
Co187 O195 2.135 . S
O188 Co187 2.061 . S
O188 C191 1.235 . S
C189 O192 1.238 . S
C189 O193 1.241 . S
C190 O183 1.247 . S
C190 O184 1.261 . S
C191 O186 1.259 . S
C191 O188 1.235 . S
O192 Co182 2.021 . S
O192 C189 1.238 . S
O193 Co187 2.052 . S
O193 C189 1.241 . S
O194 Co182 2.137 . S
O194 C185 1.247 . S
O195 Co182 2.244 . S
O195 C185 1.272 . S
O195 Co187 2.135 . S
Co196 O197 2.216 . S
Co196 O198 2.091 . S
Co196 O200 2.004 . S
Co196 O206 2.021 . S
Co196 O208 2.137 . S
Co196 O209 2.244 . S
O197 Co196 2.216 . S
O197 C204 1.247 . S
O198 Co196 2.091 . S
O198 C204 1.261 . S
C199 O208 1.247 . S
C199 O209 1.272 . S
O200 Co196 2.004 . S
O200 C205 1.259 . S
Co201 O202 2.061 . S
Co201 O207 2.052 . S
Co201 O209 2.135 . S
O202 Co201 2.061 . S
O202 C205 1.235 . S
C203 O206 1.238 . S
C203 O207 1.241 . S
C204 O197 1.247 . S
C204 O198 1.261 . S
C205 O200 1.259 . S
C205 O202 1.235 . S
O206 Co196 2.021 . S
O206 C203 1.238 . S
O207 Co201 2.052 . S
O207 C203 1.241 . S
O208 Co196 2.137 . S
O208 C199 1.247 . S
O209 Co196 2.244 . S
O209 C199 1.272 . S
O209 Co201 2.135 . S
Co210 O211 2.216 . S
Co210 O212 2.091 . S
Co210 O214 2.004 . S
Co210 O220 2.021 . S
Co210 O222 2.137 . S
Co210 O223 2.244 . S
O211 Co210 2.216 . S
O211 C218 1.247 . S
O212 Co210 2.091 . S
O212 C218 1.261 . S
C213 O222 1.247 . S
C213 O223 1.272 . S
O214 Co210 2.004 . S
O214 C219 1.259 . S
Co215 O216 2.061 . S
Co215 O221 2.052 . S
Co215 O223 2.135 . S
O216 Co215 2.061 . S
O216 C219 1.235 . S
C217 O220 1.238 . S
C217 O221 1.241 . S
C218 O211 1.247 . S
C218 O212 1.261 . S
C219 O214 1.259 . S
C219 O216 1.235 . S
O220 Co210 2.021 . S
O220 C217 1.238 . S
O221 Co215 2.052 . S
O221 C217 1.241 . S
O222 Co210 2.137 . S
O222 C213 1.247 . S
O223 Co210 2.244 . S
O223 C213 1.272 . S
O223 Co215 2.135 . S
C224 C225 1.349 . S
C224 C226 1.327 . S
C224 H249 0.950 . S
C225 C224 1.349 . S
C225 C241 1.349 . S
C226 C224 1.327 . S
C226 C245 1.429 . S
C226 H250 0.950 . S
C227 C244 1.574 . S
C227 C246 1.368 . S
C227 H251 0.949 . S
H228 C232 0.949 . S
C229 C230 1.349 . S
C229 C231 1.327 . S
C229 H252 0.950 . S
C230 C229 1.349 . S
C230 C242 1.349 . S
C231 C229 1.327 . S
C231 C247 1.429 . S
C231 H253 0.950 . S
C232 H228 0.949 . S
C232 C240 1.574 . S
C232 C248 1.368 . S
H233 C241 0.950 . S
H234 C239 0.950 . S
H235 C240 0.949 . S
H236 C242 0.950 . S
H237 C243 0.950 . S
H238 C244 0.949 . S
C239 H234 0.950 . S
C239 C241 1.327 . S
C239 C245 1.429 . S
C240 C232 1.574 . S
C240 H235 0.949 . S
C240 C246 1.368 . S
C241 C225 1.349 . S
C241 H233 0.950 . S
C241 C239 1.327 . S
C242 C230 1.349 . S
C242 H236 0.950 . S
C242 C243 1.327 . S
C243 H237 0.950 . S
C243 C242 1.327 . S
C243 C247 1.429 . S
C244 C227 1.574 . S
C244 H238 0.949 . S
C244 C248 1.368 . S
C245 C226 1.429 . S
C245 C239 1.429 . S
C245 C246 1.523 . S
C246 C227 1.368 . S
C246 C240 1.368 . S
C246 C245 1.523 . S
C247 C231 1.429 . S
C247 C243 1.429 . S
C247 C248 1.523 . S
C248 C232 1.368 . S
C248 C244 1.368 . S
C248 C247 1.523 . S
H249 C224 0.950 . S
H250 C226 0.950 . S
H251 C227 0.949 . S
H252 C229 0.950 . S
H253 C231 0.950 . S
C254 C255 1.349 . S
C254 C256 1.327 . S
C254 H279 0.950 . S
C255 C254 1.349 . S
C255 C271 1.349 . S
C256 C254 1.327 . S
C256 C275 1.429 . S
C256 H280 0.950 . S
C257 C274 1.574 . S
C257 C276 1.368 . S
C257 H281 0.949 . S
H258 C262 0.949 . S
C259 C260 1.349 . S
C259 C261 1.327 . S
C259 H282 0.950 . S
C260 C259 1.349 . S
C260 C272 1.349 . S
C261 C259 1.327 . S
C261 C277 1.429 . S
C261 H283 0.950 . S
C262 H258 0.949 . S
C262 C270 1.574 . S
C262 C278 1.368 . S
H263 C271 0.950 . S
H264 C269 0.950 . S
H265 C270 0.949 . S
H266 C272 0.950 . S
H267 C273 0.950 . S
H268 C274 0.949 . S
C269 H264 0.950 . S
C269 C271 1.327 . S
C269 C275 1.429 . S
C270 C262 1.574 . S
C270 H265 0.949 . S
C270 C276 1.368 . S
C271 C255 1.349 . S
C271 H263 0.950 . S
C271 C269 1.327 . S
C272 C260 1.349 . S
C272 H266 0.950 . S
C272 C273 1.327 . S
C273 H267 0.950 . S
C273 C272 1.327 . S
C273 C277 1.429 . S
C274 C257 1.574 . S
C274 H268 0.949 . S
C274 C278 1.368 . S
C275 C256 1.429 . S
C275 C269 1.429 . S
C275 C276 1.523 . S
C276 C257 1.368 . S
C276 C270 1.368 . S
C276 C275 1.523 . S
C277 C261 1.429 . S
C277 C273 1.429 . S
C277 C278 1.523 . S
C278 C262 1.368 . S
C278 C274 1.368 . S
C278 C277 1.523 . S
H279 C254 0.950 . S
H280 C256 0.950 . S
H281 C257 0.949 . S
H282 C259 0.950 . S
H283 C261 0.950 . S
C284 C285 1.349 . S
C284 C286 1.327 . S
C284 H309 0.950 . S
C285 C284 1.349 . S
C285 C301 1.349 . S
C286 C284 1.327 . S
C286 C305 1.429 . S
C286 H310 0.950 . S
C287 C304 1.574 . S
C287 C306 1.368 . S
C287 H311 0.949 . S
H288 C292 0.949 . S
C289 C290 1.349 . S
C289 C291 1.327 . S
C289 H312 0.950 . S
C290 C289 1.349 . S
C290 C302 1.349 . S
C291 C289 1.327 . S
C291 C307 1.429 . S
C291 H313 0.950 . S
C292 H288 0.949 . S
C292 C300 1.574 . S
C292 C308 1.368 . S
H293 C301 0.950 . S
H294 C299 0.950 . S
H295 C300 0.949 . S
H296 C302 0.950 . S
H297 C303 0.950 . S
H298 C304 0.949 . S
C299 H294 0.950 . S
C299 C301 1.327 . S
C299 C305 1.429 . S
C300 C292 1.574 . S
C300 H295 0.949 . S
C300 C306 1.368 . S
C301 C285 1.349 . S
C301 H293 0.950 . S
C301 C299 1.327 . S
C302 C290 1.349 . S
C302 H296 0.950 . S
C302 C303 1.327 . S
C303 H297 0.950 . S
C303 C302 1.327 . S
C303 C307 1.429 . S
C304 C287 1.574 . S
C304 H298 0.949 . S
C304 C308 1.368 . S
C305 C286 1.429 . S
C305 C299 1.429 . S
C305 C306 1.523 . S
C306 C287 1.368 . S
C306 C300 1.368 . S
C306 C305 1.523 . S
C307 C291 1.429 . S
C307 C303 1.429 . S
C307 C308 1.523 . S
C308 C292 1.368 . S
C308 C304 1.368 . S
C308 C307 1.523 . S
H309 C284 0.950 . S
H310 C286 0.950 . S
H311 C287 0.949 . S
H312 C289 0.950 . S
H313 C291 0.950 . S
C314 C315 1.349 . S
C314 C316 1.327 . S
C314 H339 0.950 . S
C315 C314 1.349 . S
C315 C331 1.349 . S
C316 C314 1.327 . S
C316 C335 1.429 . S
C316 H340 0.950 . S
C317 C334 1.574 . S
C317 C336 1.368 . S
C317 H341 0.949 . S
H318 C322 0.949 . S
C319 C320 1.349 . S
C319 C321 1.327 . S
C319 H342 0.950 . S
C320 C319 1.349 . S
C320 C332 1.349 . S
C321 C319 1.327 . S
C321 C337 1.429 . S
C321 H343 0.950 . S
C322 H318 0.949 . S
C322 C330 1.574 . S
C322 C338 1.368 . S
H323 C331 0.950 . S
H324 C329 0.950 . S
H325 C330 0.949 . S
H326 C332 0.950 . S
H327 C333 0.950 . S
H328 C334 0.949 . S
C329 H324 0.950 . S
C329 C331 1.327 . S
C329 C335 1.429 . S
C330 C322 1.574 . S
C330 H325 0.949 . S
C330 C336 1.368 . S
C331 C315 1.349 . S
C331 H323 0.950 . S
C331 C329 1.327 . S
C332 C320 1.349 . S
C332 H326 0.950 . S
C332 C333 1.327 . S
C333 H327 0.950 . S
C333 C332 1.327 . S
C333 C337 1.429 . S
C334 C317 1.574 . S
C334 H328 0.949 . S
C334 C338 1.368 . S
C335 C316 1.429 . S
C335 C329 1.429 . S
C335 C336 1.523 . S
C336 C317 1.368 . S
C336 C330 1.368 . S
C336 C335 1.523 . S
C337 C321 1.429 . S
C337 C333 1.429 . S
C337 C338 1.523 . S
C338 C322 1.368 . S
C338 C334 1.368 . S
C338 C337 1.523 . S
H339 C314 0.950 . S
H340 C316 0.950 . S
H341 C317 0.949 . S
H342 C319 0.950 . S
H343 C321 0.950 . S
C344 C345 1.349 . S
C344 C346 1.327 . S
C344 H369 0.950 . S
C345 C344 1.349 . S
C345 C361 1.349 . S
C346 C344 1.327 . S
C346 C365 1.429 . S
C346 H370 0.950 . S
C347 C364 1.574 . S
C347 C366 1.368 . S
C347 H371 0.949 . S
H348 C352 0.949 . S
C349 C350 1.349 . S
C349 C351 1.327 . S
C349 H372 0.950 . S
C350 C349 1.349 . S
C350 C362 1.349 . S
C351 C349 1.327 . S
C351 C367 1.429 . S
C351 H373 0.950 . S
C352 H348 0.949 . S
C352 C360 1.574 . S
C352 C368 1.368 . S
H353 C361 0.950 . S
H354 C359 0.950 . S
H355 C360 0.949 . S
H356 C362 0.950 . S
H357 C363 0.950 . S
H358 C364 0.949 . S
C359 H354 0.950 . S
C359 C361 1.327 . S
C359 C365 1.429 . S
C360 C352 1.574 . S
C360 H355 0.949 . S
C360 C366 1.368 . S
C361 C345 1.349 . S
C361 H353 0.950 . S
C361 C359 1.327 . S
C362 C350 1.349 . S
C362 H356 0.950 . S
C362 C363 1.327 . S
C363 H357 0.950 . S
C363 C362 1.327 . S
C363 C367 1.429 . S
C364 C347 1.574 . S
C364 H358 0.949 . S
C364 C368 1.368 . S
C365 C346 1.429 . S
C365 C359 1.429 . S
C365 C366 1.523 . S
C366 C347 1.368 . S
C366 C360 1.368 . S
C366 C365 1.523 . S
C367 C351 1.429 . S
C367 C363 1.429 . S
C367 C368 1.523 . S
C368 C352 1.368 . S
C368 C364 1.368 . S
C368 C367 1.523 . S
H369 C344 0.950 . S
H370 C346 0.950 . S
H371 C347 0.949 . S
H372 C349 0.950 . S
H373 C351 0.950 . S
C374 C375 1.349 . S
C374 C376 1.327 . S
C374 H399 0.950 . S
C375 C374 1.349 . S
C375 C391 1.349 . S
C376 C374 1.327 . S
C376 C395 1.429 . S
C376 H400 0.950 . S
C377 C394 1.574 . S
C377 C396 1.368 . S
C377 H401 0.949 . S
H378 C382 0.949 . S
C379 C380 1.349 . S
C379 C381 1.327 . S
C379 H402 0.950 . S
C380 C379 1.349 . S
C380 C392 1.349 . S
C381 C379 1.327 . S
C381 C397 1.429 . S
C381 H403 0.950 . S
C382 H378 0.949 . S
C382 C390 1.574 . S
C382 C398 1.368 . S
H383 C391 0.950 . S
H384 C389 0.950 . S
H385 C390 0.949 . S
H386 C392 0.950 . S
H387 C393 0.950 . S
H388 C394 0.949 . S
C389 H384 0.950 . S
C389 C391 1.327 . S
C389 C395 1.429 . S
C390 C382 1.574 . S
C390 H385 0.949 . S
C390 C396 1.368 . S
C391 C375 1.349 . S
C391 H383 0.950 . S
C391 C389 1.327 . S
C392 C380 1.349 . S
C392 H386 0.950 . S
C392 C393 1.327 . S
C393 H387 0.950 . S
C393 C392 1.327 . S
C393 C397 1.429 . S
C394 C377 1.574 . S
C394 H388 0.949 . S
C394 C398 1.368 . S
C395 C376 1.429 . S
C395 C389 1.429 . S
C395 C396 1.523 . S
C396 C377 1.368 . S
C396 C390 1.368 . S
C396 C395 1.523 . S
C397 C381 1.429 . S
C397 C393 1.429 . S
C397 C398 1.523 . S
C398 C382 1.368 . S
C398 C394 1.368 . S
C398 C397 1.523 . S
H399 C374 0.950 . S
H400 C376 0.950 . S
H401 C377 0.949 . S
H402 C379 0.950 . S
H403 C381 0.950 . S
C404 C405 1.349 . S
C404 C406 1.327 . S
C404 H429 0.950 . S
C405 C404 1.349 . S
C405 C421 1.349 . S
C406 C404 1.327 . S
C406 C425 1.429 . S
C406 H430 0.950 . S
C407 C424 1.574 . S
C407 C426 1.368 . S
C407 H431 0.949 . S
H408 C412 0.949 . S
C409 C410 1.349 . S
C409 C411 1.327 . S
C409 H432 0.950 . S
C410 C409 1.349 . S
C410 C422 1.349 . S
C411 C409 1.327 . S
C411 C427 1.429 . S
C411 H433 0.950 . S
C412 H408 0.949 . S
C412 C420 1.574 . S
C412 C428 1.368 . S
H413 C421 0.950 . S
H414 C419 0.950 . S
H415 C420 0.949 . S
H416 C422 0.950 . S
H417 C423 0.950 . S
H418 C424 0.949 . S
C419 H414 0.950 . S
C419 C421 1.327 . S
C419 C425 1.429 . S
C420 C412 1.574 . S
C420 H415 0.949 . S
C420 C426 1.368 . S
C421 C405 1.349 . S
C421 H413 0.950 . S
C421 C419 1.327 . S
C422 C410 1.349 . S
C422 H416 0.950 . S
C422 C423 1.327 . S
C423 H417 0.950 . S
C423 C422 1.327 . S
C423 C427 1.429 . S
C424 C407 1.574 . S
C424 H418 0.949 . S
C424 C428 1.368 . S
C425 C406 1.429 . S
C425 C419 1.429 . S
C425 C426 1.523 . S
C426 C407 1.368 . S
C426 C420 1.368 . S
C426 C425 1.523 . S
C427 C411 1.429 . S
C427 C423 1.429 . S
C427 C428 1.523 . S
C428 C412 1.368 . S
C428 C424 1.368 . S
C428 C427 1.523 . S
H429 C404 0.950 . S
H430 C406 0.950 . S
H431 C407 0.949 . S
H432 C409 0.950 . S
H433 C411 0.950 . S
C434 C435 1.349 . S
C434 C436 1.327 . S
C434 H459 0.950 . S
C435 C434 1.349 . S
C435 C451 1.349 . S
C436 C434 1.327 . S
C436 C455 1.429 . S
C436 H460 0.950 . S
C437 C454 1.574 . S
C437 C456 1.368 . S
C437 H461 0.949 . S
H438 C442 0.949 . S
C439 C440 1.349 . S
C439 C441 1.327 . S
C439 H462 0.950 . S
C440 C439 1.349 . S
C440 C452 1.349 . S
C441 C439 1.327 . S
C441 C457 1.429 . S
C441 H463 0.950 . S
C442 H438 0.949 . S
C442 C450 1.574 . S
C442 C458 1.368 . S
H443 C451 0.950 . S
H444 C449 0.950 . S
H445 C450 0.949 . S
H446 C452 0.950 . S
H447 C453 0.950 . S
H448 C454 0.949 . S
C449 H444 0.950 . S
C449 C451 1.327 . S
C449 C455 1.429 . S
C450 C442 1.574 . S
C450 H445 0.949 . S
C450 C456 1.368 . S
C451 C435 1.349 . S
C451 H443 0.950 . S
C451 C449 1.327 . S
C452 C440 1.349 . S
C452 H446 0.950 . S
C452 C453 1.327 . S
C453 H447 0.950 . S
C453 C452 1.327 . S
C453 C457 1.429 . S
C454 C437 1.574 . S
C454 H448 0.949 . S
C454 C458 1.368 . S
C455 C436 1.429 . S
C455 C449 1.429 . S
C455 C456 1.523 . S
C456 C437 1.368 . S
C456 C450 1.368 . S
C456 C455 1.523 . S
C457 C441 1.429 . S
C457 C453 1.429 . S
C457 C458 1.523 . S
C458 C442 1.368 . S
C458 C454 1.368 . S
C458 C457 1.523 . S
H459 C434 0.950 . S
H460 C436 0.950 . S
H461 C437 0.949 . S
H462 C439 0.950 . S
H463 C441 0.950 . S
C464 C465 1.349 . S
C464 C466 1.327 . S
C464 H489 0.950 . S
C465 C464 1.349 . S
C465 C481 1.349 . S
C466 C464 1.327 . S
C466 C485 1.429 . S
C466 H490 0.950 . S
C467 C484 1.574 . S
C467 C486 1.368 . S
C467 H491 0.949 . S
H468 C472 0.949 . S
C469 C470 1.349 . S
C469 C471 1.327 . S
C469 H492 0.950 . S
C470 C469 1.349 . S
C470 C482 1.349 . S
C471 C469 1.327 . S
C471 C487 1.429 . S
C471 H493 0.950 . S
C472 H468 0.949 . S
C472 C480 1.574 . S
C472 C488 1.368 . S
H473 C481 0.950 . S
H474 C479 0.950 . S
H475 C480 0.949 . S
H476 C482 0.950 . S
H477 C483 0.950 . S
H478 C484 0.949 . S
C479 H474 0.950 . S
C479 C481 1.327 . S
C479 C485 1.429 . S
C480 C472 1.574 . S
C480 H475 0.949 . S
C480 C486 1.368 . S
C481 C465 1.349 . S
C481 H473 0.950 . S
C481 C479 1.327 . S
C482 C470 1.349 . S
C482 H476 0.950 . S
C482 C483 1.327 . S
C483 H477 0.950 . S
C483 C482 1.327 . S
C483 C487 1.429 . S
C484 C467 1.574 . S
C484 H478 0.949 . S
C484 C488 1.368 . S
C485 C466 1.429 . S
C485 C479 1.429 . S
C485 C486 1.523 . S
C486 C467 1.368 . S
C486 C480 1.368 . S
C486 C485 1.523 . S
C487 C471 1.429 . S
C487 C483 1.429 . S
C487 C488 1.523 . S
C488 C472 1.368 . S
C488 C484 1.368 . S
C488 C487 1.523 . S
H489 C464 0.950 . S
H490 C466 0.950 . S
H491 C467 0.949 . S
H492 C469 0.950 . S
H493 C471 0.950 . S
C494 C495 1.349 . S
C494 C496 1.327 . S
C494 H519 0.950 . S
C495 C494 1.349 . S
C495 C511 1.349 . S
C496 C494 1.327 . S
C496 C515 1.429 . S
C496 H520 0.950 . S
C497 C514 1.574 . S
C497 C516 1.368 . S
C497 H521 0.949 . S
H498 C502 0.949 . S
C499 C500 1.349 . S
C499 C501 1.327 . S
C499 H522 0.950 . S
C500 C499 1.349 . S
C500 C512 1.349 . S
C501 C499 1.327 . S
C501 C517 1.429 . S
C501 H523 0.950 . S
C502 H498 0.949 . S
C502 C510 1.574 . S
C502 C518 1.368 . S
H503 C511 0.950 . S
H504 C509 0.950 . S
H505 C510 0.949 . S
H506 C512 0.950 . S
H507 C513 0.950 . S
H508 C514 0.949 . S
C509 H504 0.950 . S
C509 C511 1.327 . S
C509 C515 1.429 . S
C510 C502 1.574 . S
C510 H505 0.949 . S
C510 C516 1.368 . S
C511 C495 1.349 . S
C511 H503 0.950 . S
C511 C509 1.327 . S
C512 C500 1.349 . S
C512 H506 0.950 . S
C512 C513 1.327 . S
C513 H507 0.950 . S
C513 C512 1.327 . S
C513 C517 1.429 . S
C514 C497 1.574 . S
C514 H508 0.949 . S
C514 C518 1.368 . S
C515 C496 1.429 . S
C515 C509 1.429 . S
C515 C516 1.523 . S
C516 C497 1.368 . S
C516 C510 1.368 . S
C516 C515 1.523 . S
C517 C501 1.429 . S
C517 C513 1.429 . S
C517 C518 1.523 . S
C518 C502 1.368 . S
C518 C514 1.368 . S
C518 C517 1.523 . S
H519 C494 0.950 . S
H520 C496 0.950 . S
H521 C497 0.949 . S
H522 C499 0.950 . S
H523 C501 0.950 . S
C524 C525 1.349 . S
C524 C526 1.327 . S
C524 H549 0.950 . S
C525 C524 1.349 . S
C525 C541 1.349 . S
C526 C524 1.327 . S
C526 C545 1.429 . S
C526 H550 0.950 . S
C527 C544 1.574 . S
C527 C546 1.368 . S
C527 H551 0.949 . S
H528 C532 0.949 . S
C529 C530 1.349 . S
C529 C531 1.327 . S
C529 H552 0.950 . S
C530 C529 1.349 . S
C530 C542 1.349 . S
C531 C529 1.327 . S
C531 C547 1.429 . S
C531 H553 0.950 . S
C532 H528 0.949 . S
C532 C540 1.574 . S
C532 C548 1.368 . S
H533 C541 0.950 . S
H534 C539 0.950 . S
H535 C540 0.949 . S
H536 C542 0.950 . S
H537 C543 0.950 . S
H538 C544 0.949 . S
C539 H534 0.950 . S
C539 C541 1.327 . S
C539 C545 1.429 . S
C540 C532 1.574 . S
C540 H535 0.949 . S
C540 C546 1.368 . S
C541 C525 1.349 . S
C541 H533 0.950 . S
C541 C539 1.327 . S
C542 C530 1.349 . S
C542 H536 0.950 . S
C542 C543 1.327 . S
C543 H537 0.950 . S
C543 C542 1.327 . S
C543 C547 1.429 . S
C544 C527 1.574 . S
C544 H538 0.949 . S
C544 C548 1.368 . S
C545 C526 1.429 . S
C545 C539 1.429 . S
C545 C546 1.523 . S
C546 C527 1.368 . S
C546 C540 1.368 . S
C546 C545 1.523 . S
C547 C531 1.429 . S
C547 C543 1.429 . S
C547 C548 1.523 . S
C548 C532 1.368 . S
C548 C544 1.368 . S
C548 C547 1.523 . S
H549 C524 0.950 . S
H550 C526 0.950 . S
H551 C527 0.949 . S
H552 C529 0.950 . S
H553 C531 0.950 . S
C554 C555 1.349 . S
C554 C556 1.327 . S
C554 H579 0.950 . S
C555 C554 1.349 . S
C555 C571 1.349 . S
C556 C554 1.327 . S
C556 C575 1.429 . S
C556 H580 0.950 . S
C557 C574 1.574 . S
C557 C576 1.368 . S
C557 H581 0.949 . S
H558 C562 0.949 . S
C559 C560 1.349 . S
C559 C561 1.327 . S
C559 H582 0.950 . S
C560 C559 1.349 . S
C560 C572 1.349 . S
C561 C559 1.327 . S
C561 C577 1.429 . S
C561 H583 0.950 . S
C562 H558 0.949 . S
C562 C570 1.574 . S
C562 C578 1.368 . S
H563 C571 0.950 . S
H564 C569 0.950 . S
H565 C570 0.949 . S
H566 C572 0.950 . S
H567 C573 0.950 . S
H568 C574 0.949 . S
C569 H564 0.950 . S
C569 C571 1.327 . S
C569 C575 1.429 . S
C570 C562 1.574 . S
C570 H565 0.949 . S
C570 C576 1.368 . S
C571 C555 1.349 . S
C571 H563 0.950 . S
C571 C569 1.327 . S
C572 C560 1.349 . S
C572 H566 0.950 . S
C572 C573 1.327 . S
C573 H567 0.950 . S
C573 C572 1.327 . S
C573 C577 1.429 . S
C574 C557 1.574 . S
C574 H568 0.949 . S
C574 C578 1.368 . S
C575 C556 1.429 . S
C575 C569 1.429 . S
C575 C576 1.523 . S
C576 C557 1.368 . S
C576 C570 1.368 . S
C576 C575 1.523 . S
C577 C561 1.429 . S
C577 C573 1.429 . S
C577 C578 1.523 . S
C578 C562 1.368 . S
C578 C574 1.368 . S
C578 C577 1.523 . S
H579 C554 0.950 . S
H580 C556 0.950 . S
H581 C557 0.949 . S
H582 C559 0.950 . S
H583 C561 0.950 . S
C584 C585 1.349 . S
C584 C586 1.327 . S
C584 H609 0.950 . S
C585 C584 1.349 . S
C585 C601 1.349 . S
C586 C584 1.327 . S
C586 C605 1.429 . S
C586 H610 0.950 . S
C587 C604 1.574 . S
C587 C606 1.368 . S
C587 H611 0.949 . S
H588 C592 0.949 . S
C589 C590 1.349 . S
C589 C591 1.327 . S
C589 H612 0.950 . S
C590 C589 1.349 . S
C590 C602 1.349 . S
C591 C589 1.327 . S
C591 C607 1.429 . S
C591 H613 0.950 . S
C592 H588 0.949 . S
C592 C600 1.574 . S
C592 C608 1.368 . S
H593 C601 0.950 . S
H594 C599 0.950 . S
H595 C600 0.949 . S
H596 C602 0.950 . S
H597 C603 0.950 . S
H598 C604 0.949 . S
C599 H594 0.950 . S
C599 C601 1.327 . S
C599 C605 1.429 . S
C600 C592 1.574 . S
C600 H595 0.949 . S
C600 C606 1.368 . S
C601 C585 1.349 . S
C601 H593 0.950 . S
C601 C599 1.327 . S
C602 C590 1.349 . S
C602 H596 0.950 . S
C602 C603 1.327 . S
C603 H597 0.950 . S
C603 C602 1.327 . S
C603 C607 1.429 . S
C604 C587 1.574 . S
C604 H598 0.949 . S
C604 C608 1.368 . S
C605 C586 1.429 . S
C605 C599 1.429 . S
C605 C606 1.523 . S
C606 C587 1.368 . S
C606 C600 1.368 . S
C606 C605 1.523 . S
C607 C591 1.429 . S
C607 C603 1.429 . S
C607 C608 1.523 . S
C608 C592 1.368 . S
C608 C604 1.368 . S
C608 C607 1.523 . S
H609 C584 0.950 . S
H610 C586 0.950 . S
H611 C587 0.949 . S
H612 C589 0.950 . S
H613 C591 0.950 . S
C614 C615 1.349 . S
C614 C616 1.327 . S
C614 H639 0.950 . S
C615 C614 1.349 . S
C615 C631 1.349 . S
C616 C614 1.327 . S
C616 C635 1.429 . S
C616 H640 0.950 . S
C617 C634 1.574 . S
C617 C636 1.368 . S
C617 H641 0.949 . S
H618 C622 0.949 . S
C619 C620 1.349 . S
C619 C621 1.327 . S
C619 H642 0.950 . S
C620 C619 1.349 . S
C620 C632 1.349 . S
C621 C619 1.327 . S
C621 C637 1.429 . S
C621 H643 0.950 . S
C622 H618 0.949 . S
C622 C630 1.574 . S
C622 C638 1.368 . S
H623 C631 0.950 . S
H624 C629 0.950 . S
H625 C630 0.949 . S
H626 C632 0.950 . S
H627 C633 0.950 . S
H628 C634 0.949 . S
C629 H624 0.950 . S
C629 C631 1.327 . S
C629 C635 1.429 . S
C630 C622 1.574 . S
C630 H625 0.949 . S
C630 C636 1.368 . S
C631 C615 1.349 . S
C631 H623 0.950 . S
C631 C629 1.327 . S
C632 C620 1.349 . S
C632 H626 0.950 . S
C632 C633 1.327 . S
C633 H627 0.950 . S
C633 C632 1.327 . S
C633 C637 1.429 . S
C634 C617 1.574 . S
C634 H628 0.949 . S
C634 C638 1.368 . S
C635 C616 1.429 . S
C635 C629 1.429 . S
C635 C636 1.523 . S
C636 C617 1.368 . S
C636 C630 1.368 . S
C636 C635 1.523 . S
C637 C621 1.429 . S
C637 C633 1.429 . S
C637 C638 1.523 . S
C638 C622 1.368 . S
C638 C634 1.368 . S
C638 C637 1.523 . S
H639 C614 0.950 . S
H640 C616 0.950 . S
H641 C617 0.949 . S
H642 C619 0.950 . S
H643 C621 0.950 . S
C644 C645 1.349 . S
C644 C646 1.327 . S
C644 H669 0.950 . S
C645 C644 1.349 . S
C645 C661 1.349 . S
C646 C644 1.327 . S
C646 C665 1.429 . S
C646 H670 0.950 . S
C647 C664 1.574 . S
C647 C666 1.368 . S
C647 H671 0.949 . S
H648 C652 0.949 . S
C649 C650 1.349 . S
C649 C651 1.327 . S
C649 H672 0.950 . S
C650 C649 1.349 . S
C650 C662 1.349 . S
C651 C649 1.327 . S
C651 C667 1.429 . S
C651 H673 0.950 . S
C652 H648 0.949 . S
C652 C660 1.574 . S
C652 C668 1.368 . S
H653 C661 0.950 . S
H654 C659 0.950 . S
H655 C660 0.949 . S
H656 C662 0.950 . S
H657 C663 0.950 . S
H658 C664 0.949 . S
C659 H654 0.950 . S
C659 C661 1.327 . S
C659 C665 1.429 . S
C660 C652 1.574 . S
C660 H655 0.949 . S
C660 C666 1.368 . S
C661 C645 1.349 . S
C661 H653 0.950 . S
C661 C659 1.327 . S
C662 C650 1.349 . S
C662 H656 0.950 . S
C662 C663 1.327 . S
C663 H657 0.950 . S
C663 C662 1.327 . S
C663 C667 1.429 . S
C664 C647 1.574 . S
C664 H658 0.949 . S
C664 C668 1.368 . S
C665 C646 1.429 . S
C665 C659 1.429 . S
C665 C666 1.523 . S
C666 C647 1.368 . S
C666 C660 1.368 . S
C666 C665 1.523 . S
C667 C651 1.429 . S
C667 C663 1.429 . S
C667 C668 1.523 . S
C668 C652 1.368 . S
C668 C664 1.368 . S
C668 C667 1.523 . S
H669 C644 0.950 . S
H670 C646 0.950 . S
H671 C647 0.949 . S
H672 C649 0.950 . S
H673 C651 0.950 . S
C674 C675 1.349 . S
C674 C676 1.327 . S
C674 H699 0.950 . S
C675 C674 1.349 . S
C675 C691 1.349 . S
C676 C674 1.327 . S
C676 C695 1.429 . S
C676 H700 0.950 . S
C677 C694 1.574 . S
C677 C696 1.368 . S
C677 H701 0.949 . S
H678 C682 0.949 . S
C679 C680 1.349 . S
C679 C681 1.327 . S
C679 H702 0.950 . S
C680 C679 1.349 . S
C680 C692 1.349 . S
C681 C679 1.327 . S
C681 C697 1.429 . S
C681 H703 0.950 . S
C682 H678 0.949 . S
C682 C690 1.574 . S
C682 C698 1.368 . S
H683 C691 0.950 . S
H684 C689 0.950 . S
H685 C690 0.949 . S
H686 C692 0.950 . S
H687 C693 0.950 . S
H688 C694 0.949 . S
C689 H684 0.950 . S
C689 C691 1.327 . S
C689 C695 1.429 . S
C690 C682 1.574 . S
C690 H685 0.949 . S
C690 C696 1.368 . S
C691 C675 1.349 . S
C691 H683 0.950 . S
C691 C689 1.327 . S
C692 C680 1.349 . S
C692 H686 0.950 . S
C692 C693 1.327 . S
C693 H687 0.950 . S
C693 C692 1.327 . S
C693 C697 1.429 . S
C694 C677 1.574 . S
C694 H688 0.949 . S
C694 C698 1.368 . S
C695 C676 1.429 . S
C695 C689 1.429 . S
C695 C696 1.523 . S
C696 C677 1.368 . S
C696 C690 1.368 . S
C696 C695 1.523 . S
C697 C681 1.429 . S
C697 C693 1.429 . S
C697 C698 1.523 . S
C698 C682 1.368 . S
C698 C694 1.368 . S
C698 C697 1.523 . S
H699 C674 0.950 . S
H700 C676 0.950 . S
H701 C677 0.949 . S
H702 C679 0.950 . S
H703 C681 0.950 . S
C704 C705 1.349 . S
C704 C706 1.327 . S
C704 H729 0.950 . S
C705 C704 1.349 . S
C705 C721 1.349 . S
C706 C704 1.327 . S
C706 C725 1.429 . S
C706 H730 0.950 . S
C707 C724 1.574 . S
C707 C726 1.368 . S
C707 H731 0.949 . S
H708 C712 0.949 . S
C709 C710 1.349 . S
C709 C711 1.327 . S
C709 H732 0.950 . S
C710 C709 1.349 . S
C710 C722 1.349 . S
C711 C709 1.327 . S
C711 C727 1.429 . S
C711 H733 0.950 . S
C712 H708 0.949 . S
C712 C720 1.574 . S
C712 C728 1.368 . S
H713 C721 0.950 . S
H714 C719 0.950 . S
H715 C720 0.949 . S
H716 C722 0.950 . S
H717 C723 0.950 . S
H718 C724 0.949 . S
C719 H714 0.950 . S
C719 C721 1.327 . S
C719 C725 1.429 . S
C720 C712 1.574 . S
C720 H715 0.949 . S
C720 C726 1.368 . S
C721 C705 1.349 . S
C721 H713 0.950 . S
C721 C719 1.327 . S
C722 C710 1.349 . S
C722 H716 0.950 . S
C722 C723 1.327 . S
C723 H717 0.950 . S
C723 C722 1.327 . S
C723 C727 1.429 . S
C724 C707 1.574 . S
C724 H718 0.949 . S
C724 C728 1.368 . S
C725 C706 1.429 . S
C725 C719 1.429 . S
C725 C726 1.523 . S
C726 C707 1.368 . S
C726 C720 1.368 . S
C726 C725 1.523 . S
C727 C711 1.429 . S
C727 C723 1.429 . S
C727 C728 1.523 . S
C728 C712 1.368 . S
C728 C724 1.368 . S
C728 C727 1.523 . S
H729 C704 0.950 . S
H730 C706 0.950 . S
H731 C707 0.949 . S
H732 C709 0.950 . S
H733 C711 0.950 . S
C734 C735 1.349 . S
C734 C736 1.327 . S
C734 H759 0.950 . S
C735 C734 1.349 . S
C735 C751 1.349 . S
C736 C734 1.327 . S
C736 C755 1.429 . S
C736 H760 0.950 . S
C737 C754 1.574 . S
C737 C756 1.368 . S
C737 H761 0.949 . S
H738 C742 0.949 . S
C739 C740 1.349 . S
C739 C741 1.327 . S
C739 H762 0.950 . S
C740 C739 1.349 . S
C740 C752 1.349 . S
C741 C739 1.327 . S
C741 C757 1.429 . S
C741 H763 0.950 . S
C742 H738 0.949 . S
C742 C750 1.574 . S
C742 C758 1.368 . S
H743 C751 0.950 . S
H744 C749 0.950 . S
H745 C750 0.949 . S
H746 C752 0.950 . S
H747 C753 0.950 . S
H748 C754 0.949 . S
C749 H744 0.950 . S
C749 C751 1.327 . S
C749 C755 1.429 . S
C750 C742 1.574 . S
C750 H745 0.949 . S
C750 C756 1.368 . S
C751 C735 1.349 . S
C751 H743 0.950 . S
C751 C749 1.327 . S
C752 C740 1.349 . S
C752 H746 0.950 . S
C752 C753 1.327 . S
C753 H747 0.950 . S
C753 C752 1.327 . S
C753 C757 1.429 . S
C754 C737 1.574 . S
C754 H748 0.949 . S
C754 C758 1.368 . S
C755 C736 1.429 . S
C755 C749 1.429 . S
C755 C756 1.523 . S
C756 C737 1.368 . S
C756 C750 1.368 . S
C756 C755 1.523 . S
C757 C741 1.429 . S
C757 C753 1.429 . S
C757 C758 1.523 . S
C758 C742 1.368 . S
C758 C754 1.368 . S
C758 C757 1.523 . S
H759 C734 0.950 . S
H760 C736 0.950 . S
H761 C737 0.949 . S
H762 C739 0.950 . S
H763 C741 0.950 . S
C764 C765 1.349 . S
C764 C766 1.327 . S
C764 H789 0.950 . S
C765 C764 1.349 . S
C765 C781 1.349 . S
C766 C764 1.327 . S
C766 C785 1.429 . S
C766 H790 0.950 . S
C767 C784 1.574 . S
C767 C786 1.368 . S
C767 H791 0.949 . S
H768 C772 0.949 . S
C769 C770 1.349 . S
C769 C771 1.327 . S
C769 H792 0.950 . S
C770 C769 1.349 . S
C770 C782 1.349 . S
C771 C769 1.327 . S
C771 C787 1.429 . S
C771 H793 0.950 . S
C772 H768 0.949 . S
C772 C780 1.574 . S
C772 C788 1.368 . S
H773 C781 0.950 . S
H774 C779 0.950 . S
H775 C780 0.949 . S
H776 C782 0.950 . S
H777 C783 0.950 . S
H778 C784 0.949 . S
C779 H774 0.950 . S
C779 C781 1.327 . S
C779 C785 1.429 . S
C780 C772 1.574 . S
C780 H775 0.949 . S
C780 C786 1.368 . S
C781 C765 1.349 . S
C781 H773 0.950 . S
C781 C779 1.327 . S
C782 C770 1.349 . S
C782 H776 0.950 . S
C782 C783 1.327 . S
C783 H777 0.950 . S
C783 C782 1.327 . S
C783 C787 1.429 . S
C784 C767 1.574 . S
C784 H778 0.949 . S
C784 C788 1.368 . S
C785 C766 1.429 . S
C785 C779 1.429 . S
C785 C786 1.523 . S
C786 C767 1.368 . S
C786 C780 1.368 . S
C786 C785 1.523 . S
C787 C771 1.429 . S
C787 C783 1.429 . S
C787 C788 1.523 . S
C788 C772 1.368 . S
C788 C784 1.368 . S
C788 C787 1.523 . S
H789 C764 0.950 . S
H790 C766 0.950 . S
H791 C767 0.949 . S
H792 C769 0.950 . S
H793 C771 0.950 . S
C794 C795 1.349 . S
C794 C796 1.327 . S
C794 H819 0.950 . S
C795 C794 1.349 . S
C795 C811 1.349 . S
C796 C794 1.327 . S
C796 C815 1.429 . S
C796 H820 0.950 . S
C797 C814 1.574 . S
C797 C816 1.368 . S
C797 H821 0.949 . S
H798 C802 0.949 . S
C799 C800 1.349 . S
C799 C801 1.327 . S
C799 H822 0.950 . S
C800 C799 1.349 . S
C800 C812 1.349 . S
C801 C799 1.327 . S
C801 C817 1.429 . S
C801 H823 0.950 . S
C802 H798 0.949 . S
C802 C810 1.574 . S
C802 C818 1.368 . S
H803 C811 0.950 . S
H804 C809 0.950 . S
H805 C810 0.949 . S
H806 C812 0.950 . S
H807 C813 0.950 . S
H808 C814 0.949 . S
C809 H804 0.950 . S
C809 C811 1.327 . S
C809 C815 1.429 . S
C810 C802 1.574 . S
C810 H805 0.949 . S
C810 C816 1.368 . S
C811 C795 1.349 . S
C811 H803 0.950 . S
C811 C809 1.327 . S
C812 C800 1.349 . S
C812 H806 0.950 . S
C812 C813 1.327 . S
C813 H807 0.950 . S
C813 C812 1.327 . S
C813 C817 1.429 . S
C814 C797 1.574 . S
C814 H808 0.949 . S
C814 C818 1.368 . S
C815 C796 1.429 . S
C815 C809 1.429 . S
C815 C816 1.523 . S
C816 C797 1.368 . S
C816 C810 1.368 . S
C816 C815 1.523 . S
C817 C801 1.429 . S
C817 C813 1.429 . S
C817 C818 1.523 . S
C818 C802 1.368 . S
C818 C814 1.368 . S
C818 C817 1.523 . S
H819 C794 0.950 . S
H820 C796 0.950 . S
H821 C797 0.949 . S
H822 C799 0.950 . S
H823 C801 0.950 . S
C824 C825 1.349 . S
C824 C826 1.327 . S
C824 H849 0.950 . S
C825 C824 1.349 . S
C825 C841 1.349 . S
C826 C824 1.327 . S
C826 C845 1.429 . S
C826 H850 0.950 . S
C827 C844 1.574 . S
C827 C846 1.368 . S
C827 H851 0.949 . S
H828 C832 0.949 . S
C829 C830 1.349 . S
C829 C831 1.327 . S
C829 H852 0.950 . S
C830 C829 1.349 . S
C830 C842 1.349 . S
C831 C829 1.327 . S
C831 C847 1.429 . S
C831 H853 0.950 . S
C832 H828 0.949 . S
C832 C840 1.574 . S
C832 C848 1.368 . S
H833 C841 0.950 . S
H834 C839 0.950 . S
H835 C840 0.949 . S
H836 C842 0.950 . S
H837 C843 0.950 . S
H838 C844 0.949 . S
C839 H834 0.950 . S
C839 C841 1.327 . S
C839 C845 1.429 . S
C840 C832 1.574 . S
C840 H835 0.949 . S
C840 C846 1.368 . S
C841 C825 1.349 . S
C841 H833 0.950 . S
C841 C839 1.327 . S
C842 C830 1.349 . S
C842 H836 0.950 . S
C842 C843 1.327 . S
C843 H837 0.950 . S
C843 C842 1.327 . S
C843 C847 1.429 . S
C844 C827 1.574 . S
C844 H838 0.949 . S
C844 C848 1.368 . S
C845 C826 1.429 . S
C845 C839 1.429 . S
C845 C846 1.523 . S
C846 C827 1.368 . S
C846 C840 1.368 . S
C846 C845 1.523 . S
C847 C831 1.429 . S
C847 C843 1.429 . S
C847 C848 1.523 . S
C848 C832 1.368 . S
C848 C844 1.368 . S
C848 C847 1.523 . S
H849 C824 0.950 . S
H850 C826 0.950 . S
H851 C827 0.949 . S
H852 C829 0.950 . S
H853 C831 0.950 . S
C854 C855 1.349 . S
C854 C856 1.327 . S
C854 H879 0.950 . S
C855 C854 1.349 . S
C855 C871 1.349 . S
C856 C854 1.327 . S
C856 C875 1.429 . S
C856 H880 0.950 . S
C857 C874 1.574 . S
C857 C876 1.368 . S
C857 H881 0.949 . S
H858 C862 0.949 . S
C859 C860 1.349 . S
C859 C861 1.327 . S
C859 H882 0.950 . S
C860 C859 1.349 . S
C860 C872 1.349 . S
C861 C859 1.327 . S
C861 C877 1.429 . S
C861 H883 0.950 . S
C862 H858 0.949 . S
C862 C870 1.574 . S
C862 C878 1.368 . S
H863 C871 0.950 . S
H864 C869 0.950 . S
H865 C870 0.949 . S
H866 C872 0.950 . S
H867 C873 0.950 . S
H868 C874 0.949 . S
C869 H864 0.950 . S
C869 C871 1.327 . S
C869 C875 1.429 . S
C870 C862 1.574 . S
C870 H865 0.949 . S
C870 C876 1.368 . S
C871 C855 1.349 . S
C871 H863 0.950 . S
C871 C869 1.327 . S
C872 C860 1.349 . S
C872 H866 0.950 . S
C872 C873 1.327 . S
C873 H867 0.950 . S
C873 C872 1.327 . S
C873 C877 1.429 . S
C874 C857 1.574 . S
C874 H868 0.949 . S
C874 C878 1.368 . S
C875 C856 1.429 . S
C875 C869 1.429 . S
C875 C876 1.523 . S
C876 C857 1.368 . S
C876 C870 1.368 . S
C876 C875 1.523 . S
C877 C861 1.429 . S
C877 C873 1.429 . S
C877 C878 1.523 . S
C878 C862 1.368 . S
C878 C874 1.368 . S
C878 C877 1.523 . S
H879 C854 0.950 . S
H880 C856 0.950 . S
H881 C857 0.949 . S
H882 C859 0.950 . S
H883 C861 0.950 . S
C884 C885 1.349 . S
C884 C886 1.327 . S
C884 H909 0.950 . S
C885 C884 1.349 . S
C885 C901 1.349 . S
C886 C884 1.327 . S
C886 C905 1.429 . S
C886 H910 0.950 . S
C887 C904 1.574 . S
C887 C906 1.368 . S
C887 H911 0.949 . S
H888 C892 0.949 . S
C889 C890 1.349 . S
C889 C891 1.327 . S
C889 H912 0.950 . S
C890 C889 1.349 . S
C890 C902 1.349 . S
C891 C889 1.327 . S
C891 C907 1.429 . S
C891 H913 0.950 . S
C892 H888 0.949 . S
C892 C900 1.574 . S
C892 C908 1.368 . S
H893 C901 0.950 . S
H894 C899 0.950 . S
H895 C900 0.949 . S
H896 C902 0.950 . S
H897 C903 0.950 . S
H898 C904 0.949 . S
C899 H894 0.950 . S
C899 C901 1.327 . S
C899 C905 1.429 . S
C900 C892 1.574 . S
C900 H895 0.949 . S
C900 C906 1.368 . S
C901 C885 1.349 . S
C901 H893 0.950 . S
C901 C899 1.327 . S
C902 C890 1.349 . S
C902 H896 0.950 . S
C902 C903 1.327 . S
C903 H897 0.950 . S
C903 C902 1.327 . S
C903 C907 1.429 . S
C904 C887 1.574 . S
C904 H898 0.949 . S
C904 C908 1.368 . S
C905 C886 1.429 . S
C905 C899 1.429 . S
C905 C906 1.523 . S
C906 C887 1.368 . S
C906 C900 1.368 . S
C906 C905 1.523 . S
C907 C891 1.429 . S
C907 C903 1.429 . S
C907 C908 1.523 . S
C908 C892 1.368 . S
C908 C904 1.368 . S
C908 C907 1.523 . S
H909 C884 0.950 . S
H910 C886 0.950 . S
H911 C887 0.949 . S
H912 C889 0.950 . S
H913 C891 0.950 . S
C914 C915 1.349 . S
C914 C916 1.327 . S
C914 H939 0.950 . S
C915 C914 1.349 . S
C915 C931 1.349 . S
C916 C914 1.327 . S
C916 C935 1.429 . S
C916 H940 0.950 . S
C917 C934 1.574 . S
C917 C936 1.368 . S
C917 H941 0.949 . S
H918 C922 0.949 . S
C919 C920 1.349 . S
C919 C921 1.327 . S
C919 H942 0.950 . S
C920 C919 1.349 . S
C920 C932 1.349 . S
C921 C919 1.327 . S
C921 C937 1.429 . S
C921 H943 0.950 . S
C922 H918 0.949 . S
C922 C930 1.574 . S
C922 C938 1.368 . S
H923 C931 0.950 . S
H924 C929 0.950 . S
H925 C930 0.949 . S
H926 C932 0.950 . S
H927 C933 0.950 . S
H928 C934 0.949 . S
C929 H924 0.950 . S
C929 C931 1.327 . S
C929 C935 1.429 . S
C930 C922 1.574 . S
C930 H925 0.949 . S
C930 C936 1.368 . S
C931 C915 1.349 . S
C931 H923 0.950 . S
C931 C929 1.327 . S
C932 C920 1.349 . S
C932 H926 0.950 . S
C932 C933 1.327 . S
C933 H927 0.950 . S
C933 C932 1.327 . S
C933 C937 1.429 . S
C934 C917 1.574 . S
C934 H928 0.949 . S
C934 C938 1.368 . S
C935 C916 1.429 . S
C935 C929 1.429 . S
C935 C936 1.523 . S
C936 C917 1.368 . S
C936 C930 1.368 . S
C936 C935 1.523 . S
C937 C921 1.429 . S
C937 C933 1.429 . S
C937 C938 1.523 . S
C938 C922 1.368 . S
C938 C934 1.368 . S
C938 C937 1.523 . S
H939 C914 0.950 . S
H940 C916 0.950 . S
H941 C917 0.949 . S
H942 C919 0.950 . S
H943 C921 0.950 . S
C944 C945 1.349 . S
C944 C946 1.327 1_455 S
C944 H969 0.950 1_455 S
C945 C944 1.349 . S
C945 C961 1.349 . S
C946 C944 1.327 1_655 S
C946 C965 1.429 1_655 S
C946 H970 0.950 . S
C947 C964 1.574 . S
C947 C966 1.368 . S
C947 H971 0.949 . S
H948 C952 0.949 . S
C949 C950 1.349 . S
C949 C951 1.327 1_655 S
C949 H972 0.950 1_655 S
C950 C949 1.349 . S
C950 C962 1.349 . S
C951 C949 1.327 1_455 S
C951 C967 1.429 1_455 S
C951 H973 0.950 . S
C952 H948 0.949 . S
C952 C960 1.574 . S
C952 C968 1.368 . S
H953 C961 0.950 . S
H954 C959 0.950 . S
H955 C960 0.949 . S
H956 C962 0.950 . S
H957 C963 0.950 . S
H958 C964 0.949 . S
C959 H954 0.950 . S
C959 C961 1.327 . S
C959 C965 1.429 . S
C960 C952 1.574 . S
C960 H955 0.949 . S
C960 C966 1.368 1_655 S
C961 C945 1.349 . S
C961 H953 0.950 . S
C961 C959 1.327 . S
C962 C950 1.349 . S
C962 H956 0.950 . S
C962 C963 1.327 . S
C963 H957 0.950 . S
C963 C962 1.327 . S
C963 C967 1.429 . S
C964 C947 1.574 . S
C964 H958 0.949 . S
C964 C968 1.368 1_455 S
C965 C946 1.429 1_455 S
C965 C959 1.429 . S
C965 C966 1.523 . S
C966 C947 1.368 . S
C966 C960 1.368 1_455 S
C966 C965 1.523 . S
C967 C951 1.429 1_655 S
C967 C963 1.429 . S
C967 C968 1.523 . S
C968 C952 1.368 . S
C968 C964 1.368 1_655 S
C968 C967 1.523 . S
H969 C944 0.950 1_655 S
H970 C946 0.950 . S
H971 C947 0.949 . S
H972 C949 0.950 1_455 S
H973 C951 0.950 . S
C974 C975 1.349 . S
C974 C976 1.327 . S
C974 H999 0.950 . S
C975 C974 1.349 . S
C975 C991 1.349 . S
C976 C974 1.327 . S
C976 C995 1.429 . S
C976 H1000 0.950 . S
C977 C994 1.574 . S
C977 C996 1.368 1_545 S
C977 H1001 0.949 . S
H978 C982 0.949 . S
C979 C980 1.349 . S
C979 C981 1.327 . S
C979 H1002 0.950 . S
C980 C979 1.349 . S
C980 C992 1.349 . S
C981 C979 1.327 . S
C981 C997 1.429 . S
C981 H1003 0.950 . S
C982 H978 0.949 . S
C982 C990 1.574 . S
C982 C998 1.368 1_565 S
H983 C991 0.950 . S
H984 C989 0.950 1_545 S
H985 C990 0.949 . S
H986 C992 0.950 . S
H987 C993 0.950 1_565 S
H988 C994 0.949 . S
C989 H984 0.950 1_565 S
C989 C991 1.327 . S
C989 C995 1.429 . S
C990 C982 1.574 . S
C990 H985 0.949 . S
C990 C996 1.368 . S
C991 C975 1.349 . S
C991 H983 0.950 . S
C991 C989 1.327 . S
C992 C980 1.349 . S
C992 H986 0.950 . S
C992 C993 1.327 . S
C993 H987 0.950 1_545 S
C993 C992 1.327 . S
C993 C997 1.429 . S
C994 C977 1.574 . S
C994 H988 0.949 . S
C994 C998 1.368 . S
C995 C976 1.429 . S
C995 C989 1.429 . S
C995 C996 1.523 . S
C996 C977 1.368 1_565 S
C996 C990 1.368 . S
C996 C995 1.523 . S
C997 C981 1.429 . S
C997 C993 1.429 . S
C997 C998 1.523 . S
C998 C982 1.368 1_545 S
C998 C994 1.368 . S
C998 C997 1.523 . S
H999 C974 0.950 . S
H1000 C976 0.950 . S
H1001 C977 0.949 . S
H1002 C979 0.950 . S
H1003 C981 0.950 . S
C1004 C1005 1.349 . S
C1004 C1006 1.327 . S
C1004 H1029 0.950 . S
C1005 C1004 1.349 . S
C1005 C1021 1.349 . S
C1006 C1004 1.327 . S
C1006 C1025 1.429 . S
C1006 H1030 0.950 . S
C1007 C1024 1.574 . S
C1007 C1026 1.368 1_655 S
C1007 H1031 0.949 . S
H1008 C1012 0.949 . S
C1009 C1010 1.349 . S
C1009 C1011 1.327 . S
C1009 H1032 0.950 . S
C1010 C1009 1.349 . S
C1010 C1022 1.349 . S
C1011 C1009 1.327 . S
C1011 C1027 1.429 . S
C1011 H1033 0.950 . S
C1012 H1008 0.949 . S
C1012 C1020 1.574 . S
C1012 C1028 1.368 1_455 S
H1013 C1021 0.950 1_655 S
H1014 C1019 0.950 . S
H1015 C1020 0.949 . S
H1016 C1022 0.950 1_455 S
H1017 C1023 0.950 . S
H1018 C1024 0.949 . S
C1019 H1014 0.950 . S
C1019 C1021 1.327 1_655 S
C1019 C1025 1.429 1_655 S
C1020 C1012 1.574 . S
C1020 H1015 0.949 . S
C1020 C1026 1.368 . S
C1021 C1005 1.349 . S
C1021 H1013 0.950 1_455 S
C1021 C1019 1.327 1_455 S
C1022 C1010 1.349 . S
C1022 H1016 0.950 1_655 S
C1022 C1023 1.327 1_655 S
C1023 H1017 0.950 . S
C1023 C1022 1.327 1_455 S
C1023 C1027 1.429 1_455 S
C1024 C1007 1.574 . S
C1024 H1018 0.949 . S
C1024 C1028 1.368 . S
C1025 C1006 1.429 . S
C1025 C1019 1.429 1_455 S
C1025 C1026 1.523 . S
C1026 C1007 1.368 1_455 S
C1026 C1020 1.368 . S
C1026 C1025 1.523 . S
C1027 C1011 1.429 . S
C1027 C1023 1.429 1_655 S
C1027 C1028 1.523 . S
C1028 C1012 1.368 1_655 S
C1028 C1024 1.368 . S
C1028 C1027 1.523 . S
H1029 C1004 0.950 . S
H1030 C1006 0.950 . S
H1031 C1007 0.949 . S
H1032 C1009 0.950 . S
H1033 C1011 0.950 . S
C1034 C1035 1.349 . S
C1034 C1036 1.327 . S
C1034 H1059 0.950 . S
C1035 C1034 1.349 . S
C1035 C1051 1.349 1_545 S
C1036 C1034 1.327 . S
C1036 C1055 1.429 . S
C1036 H1060 0.950 . S
C1037 C1054 1.574 . S
C1037 C1056 1.368 1_565 S
C1037 H1061 0.949 . S
H1038 C1042 0.949 . S
C1039 C1040 1.349 . S
C1039 C1041 1.327 . S
C1039 H1062 0.950 . S
C1040 C1039 1.349 . S
C1040 C1052 1.349 1_565 S
C1041 C1039 1.327 . S
C1041 C1057 1.429 . S
C1041 H1063 0.950 . S
C1042 H1038 0.949 . S
C1042 C1050 1.574 . S
C1042 C1058 1.368 1_545 S
H1043 C1051 0.950 . S
H1044 C1049 0.950 . S
H1045 C1050 0.949 . S
H1046 C1052 0.950 . S
H1047 C1053 0.950 . S
H1048 C1054 0.949 . S
C1049 H1044 0.950 . S
C1049 C1051 1.327 . S
C1049 C1055 1.429 1_565 S
C1050 C1042 1.574 . S
C1050 H1045 0.949 . S
C1050 C1056 1.368 . S
C1051 C1035 1.349 1_565 S
C1051 H1043 0.950 . S
C1051 C1049 1.327 . S
C1052 C1040 1.349 1_545 S
C1052 H1046 0.950 . S
C1052 C1053 1.327 . S
C1053 H1047 0.950 . S
C1053 C1052 1.327 . S
C1053 C1057 1.429 1_545 S
C1054 C1037 1.574 . S
C1054 H1048 0.949 . S
C1054 C1058 1.368 . S
C1055 C1036 1.429 . S
C1055 C1049 1.429 1_545 S
C1055 C1056 1.523 . S
C1056 C1037 1.368 1_545 S
C1056 C1050 1.368 . S
C1056 C1055 1.523 . S
C1057 C1041 1.429 . S
C1057 C1053 1.429 1_565 S
C1057 C1058 1.523 . S
C1058 C1042 1.368 1_565 S
C1058 C1054 1.368 . S
C1058 C1057 1.523 . S
H1059 C1034 0.950 . S
H1060 C1036 0.950 . S
H1061 C1037 0.949 . S
H1062 C1039 0.950 . S
H1063 C1041 0.950 . S
C1064 C1065 1.349 . S
C1064 C1066 1.327 . S
C1064 H1089 0.950 . S
C1065 C1064 1.349 . S
C1065 C1081 1.349 . S
C1066 C1064 1.327 . S
C1066 C1085 1.429 . S
C1066 H1090 0.950 . S
C1067 C1084 1.574 1_556 S
C1067 C1086 1.368 . S
C1067 H1091 0.949 . S
H1068 C1072 0.949 . S
C1069 C1070 1.349 . S
C1069 C1071 1.327 . S
C1069 H1092 0.950 . S
C1070 C1069 1.349 . S
C1070 C1082 1.349 . S
C1071 C1069 1.327 . S
C1071 C1087 1.429 . S
C1071 H1093 0.950 . S
C1072 H1068 0.949 . S
C1072 C1080 1.574 1_554 S
C1072 C1088 1.368 . S
H1073 C1081 0.950 . S
H1074 C1079 0.950 . S
H1075 C1080 0.949 . S
H1076 C1082 0.950 . S
H1077 C1083 0.950 . S
H1078 C1084 0.949 . S
C1079 H1074 0.950 . S
C1079 C1081 1.327 . S
C1079 C1085 1.429 . S
C1080 C1072 1.574 1_556 S
C1080 H1075 0.949 . S
C1080 C1086 1.368 . S
C1081 C1065 1.349 . S
C1081 H1073 0.950 . S
C1081 C1079 1.327 . S
C1082 C1070 1.349 . S
C1082 H1076 0.950 . S
C1082 C1083 1.327 . S
C1083 H1077 0.950 . S
C1083 C1082 1.327 . S
C1083 C1087 1.429 . S
C1084 C1067 1.574 1_554 S
C1084 H1078 0.949 . S
C1084 C1088 1.368 . S
C1085 C1066 1.429 . S
C1085 C1079 1.429 . S
C1085 C1086 1.523 . S
C1086 C1067 1.368 . S
C1086 C1080 1.368 . S
C1086 C1085 1.523 . S
C1087 C1071 1.429 . S
C1087 C1083 1.429 . S
C1087 C1088 1.523 . S
C1088 C1072 1.368 . S
C1088 C1084 1.368 . S
C1088 C1087 1.523 . S
H1089 C1064 0.950 . S
H1090 C1066 0.950 . S
H1091 C1067 0.949 . S
H1092 C1069 0.950 . S
H1093 C1071 0.950 . S
C1094 C1095 1.349 . S
C1094 C1096 1.327 . S
C1094 H1119 0.950 . S
C1095 C1094 1.349 . S
C1095 C1111 1.349 . S
C1096 C1094 1.327 . S
C1096 C1115 1.429 . S
C1096 H1120 0.950 . S
C1097 C1114 1.574 1_556 S
C1097 C1116 1.368 . S
C1097 H1121 0.949 . S
H1098 C1102 0.949 . S
C1099 C1100 1.349 . S
C1099 C1101 1.327 . S
C1099 H1122 0.950 . S
C1100 C1099 1.349 . S
C1100 C1112 1.349 . S
C1101 C1099 1.327 . S
C1101 C1117 1.429 . S
C1101 H1123 0.950 . S
C1102 H1098 0.949 . S
C1102 C1110 1.574 1_554 S
C1102 C1118 1.368 . S
H1103 C1111 0.950 . S
H1104 C1109 0.950 . S
H1105 C1110 0.949 . S
H1106 C1112 0.950 . S
H1107 C1113 0.950 . S
H1108 C1114 0.949 . S
C1109 H1104 0.950 . S
C1109 C1111 1.327 . S
C1109 C1115 1.429 . S
C1110 C1102 1.574 1_556 S
C1110 H1105 0.949 . S
C1110 C1116 1.368 . S
C1111 C1095 1.349 . S
C1111 H1103 0.950 . S
C1111 C1109 1.327 . S
C1112 C1100 1.349 . S
C1112 H1106 0.950 . S
C1112 C1113 1.327 . S
C1113 H1107 0.950 . S
C1113 C1112 1.327 . S
C1113 C1117 1.429 . S
C1114 C1097 1.574 1_554 S
C1114 H1108 0.949 . S
C1114 C1118 1.368 . S
C1115 C1096 1.429 . S
C1115 C1109 1.429 . S
C1115 C1116 1.523 . S
C1116 C1097 1.368 . S
C1116 C1110 1.368 . S
C1116 C1115 1.523 . S
C1117 C1101 1.429 . S
C1117 C1113 1.429 . S
C1117 C1118 1.523 . S
C1118 C1102 1.368 . S
C1118 C1114 1.368 . S
C1118 C1117 1.523 . S
H1119 C1094 0.950 . S
H1120 C1096 0.950 . S
H1121 C1097 0.949 . S
H1122 C1099 0.950 . S
H1123 C1101 0.950 . S
C1124 C1125 1.349 . S
C1124 C1126 1.327 . S
C1124 H1149 0.950 . S
C1125 C1124 1.349 . S
C1125 C1141 1.349 . S
C1126 C1124 1.327 . S
C1126 C1145 1.429 . S
C1126 H1150 0.950 . S
C1127 C1144 1.574 1_554 S
C1127 C1146 1.368 . S
C1127 H1151 0.949 . S
H1128 C1132 0.949 . S
C1129 C1130 1.349 . S
C1129 C1131 1.327 . S
C1129 H1152 0.950 . S
C1130 C1129 1.349 . S
C1130 C1142 1.349 . S
C1131 C1129 1.327 . S
C1131 C1147 1.429 . S
C1131 H1153 0.950 . S
C1132 H1128 0.949 . S
C1132 C1140 1.574 1_556 S
C1132 C1148 1.368 . S
H1133 C1141 0.950 . S
H1134 C1139 0.950 . S
H1135 C1140 0.949 . S
H1136 C1142 0.950 . S
H1137 C1143 0.950 . S
H1138 C1144 0.949 . S
C1139 H1134 0.950 . S
C1139 C1141 1.327 . S
C1139 C1145 1.429 . S
C1140 C1132 1.574 1_554 S
C1140 H1135 0.949 . S
C1140 C1146 1.368 . S
C1141 C1125 1.349 . S
C1141 H1133 0.950 . S
C1141 C1139 1.327 . S
C1142 C1130 1.349 . S
C1142 H1136 0.950 . S
C1142 C1143 1.327 . S
C1143 H1137 0.950 . S
C1143 C1142 1.327 . S
C1143 C1147 1.429 . S
C1144 C1127 1.574 1_556 S
C1144 H1138 0.949 . S
C1144 C1148 1.368 . S
C1145 C1126 1.429 . S
C1145 C1139 1.429 . S
C1145 C1146 1.523 . S
C1146 C1127 1.368 . S
C1146 C1140 1.368 . S
C1146 C1145 1.523 . S
C1147 C1131 1.429 . S
C1147 C1143 1.429 . S
C1147 C1148 1.523 . S
C1148 C1132 1.368 . S
C1148 C1144 1.368 . S
C1148 C1147 1.523 . S
H1149 C1124 0.950 . S
H1150 C1126 0.950 . S
H1151 C1127 0.949 . S
H1152 C1129 0.950 . S
H1153 C1131 0.950 . S
C1154 C1155 1.349 . S
C1154 C1156 1.327 . S
C1154 H1179 0.950 . S
C1155 C1154 1.349 . S
C1155 C1171 1.349 . S
C1156 C1154 1.327 . S
C1156 C1175 1.429 . S
C1156 H1180 0.950 . S
C1157 C1174 1.574 1_556 S
C1157 C1176 1.368 . S
C1157 H1181 0.949 . S
H1158 C1162 0.949 . S
C1159 C1160 1.349 . S
C1159 C1161 1.327 . S
C1159 H1182 0.950 . S
C1160 C1159 1.349 . S
C1160 C1172 1.349 . S
C1161 C1159 1.327 . S
C1161 C1177 1.429 . S
C1161 H1183 0.950 . S
C1162 H1158 0.949 . S
C1162 C1170 1.574 1_554 S
C1162 C1178 1.368 . S
H1163 C1171 0.950 . S
H1164 C1169 0.950 . S
H1165 C1170 0.949 . S
H1166 C1172 0.950 . S
H1167 C1173 0.950 . S
H1168 C1174 0.949 . S
C1169 H1164 0.950 . S
C1169 C1171 1.327 . S
C1169 C1175 1.429 . S
C1170 C1162 1.574 1_556 S
C1170 H1165 0.949 . S
C1170 C1176 1.368 . S
C1171 C1155 1.349 . S
C1171 H1163 0.950 . S
C1171 C1169 1.327 . S
C1172 C1160 1.349 . S
C1172 H1166 0.950 . S
C1172 C1173 1.327 . S
C1173 H1167 0.950 . S
C1173 C1172 1.327 . S
C1173 C1177 1.429 . S
C1174 C1157 1.574 1_554 S
C1174 H1168 0.949 . S
C1174 C1178 1.368 . S
C1175 C1156 1.429 . S
C1175 C1169 1.429 . S
C1175 C1176 1.523 . S
C1176 C1157 1.368 . S
C1176 C1170 1.368 . S
C1176 C1175 1.523 . S
C1177 C1161 1.429 . S
C1177 C1173 1.429 . S
C1177 C1178 1.523 . S
C1178 C1162 1.368 . S
C1178 C1174 1.368 . S
C1178 C1177 1.523 . S
H1179 C1154 0.950 . S
H1180 C1156 0.950 . S
H1181 C1157 0.949 . S
H1182 C1159 0.950 . S
H1183 C1161 0.950 . S
C225 C7 1.383 . S
C230 C51 1.366 . S
C255 C9 1.366 . S
C260 C21 1.383 . S
C285 C23 1.366 . S
C290 C35 1.383 . S
C315 C37 1.366 . S
C320 C49 1.383 . S
C345 C63 1.383 . S
C350 C79 1.366 . S
C375 C77 1.383 . S
C380 C93 1.366 . S
C405 C91 1.383 . S
C410 C107 1.366 . S
C435 C105 1.383 . S
C440 C65 1.366 . S
C465 C119 1.383 . S
C470 C163 1.366 . S
C495 C121 1.366 . S
C500 C133 1.383 . S
C525 C135 1.366 . S
C530 C147 1.383 . S
C555 C161 1.383 . S
C560 C149 1.366 . S
C585 C191 1.366 . S
C590 C175 1.383 . S
C615 C205 1.366 . S
C620 C189 1.383 . S
C645 C203 1.383 . S
C650 C219 1.366 . S
C675 C217 1.383 . S
C680 C177 1.366 . S
C705 C8 1.110 . S
C710 C218 1.110 . S
C735 C22 1.110 . S
C740 C176 1.110 . S
C765 C190 1.110 . S
C770 C36 1.110 . S
C795 C50 1.110 . S
C800 C204 1.110 . S
C825 C134 1.110 . S
C830 C64 1.110 . S
C855 C148 1.110 . S
C860 C78 1.110 . S
C885 C92 1.110 . S
C890 C162 1.110 . S
C915 C106 1.110 . S
C920 C120 1.110 . S
C945 C3 1.623 . S
C950 C87 1.623 . S
C975 C101 1.623 . S
C980 C17 1.623 . S
C1005 C59 1.623 . S
C1010 C31 1.623 . S
C1035 C73 1.623 . S
C1040 C45 1.623 . S
C1065 C115 1.623 . S
C1070 C199 1.623 . S
C1095 C129 1.623 . S
C1100 C213 1.623 . S
C1125 C171 1.623 . S
C1130 C143 1.623 . S
C1155 C157 1.623 . S
C1160 C185 1.623 . S
