# Generated by pormake.
# Topology umd, (4)-cn, num edge types: 1
# Building blocks:
#     Node 0, Type 0, BuildingBlock: QUQFOY_clean_sbu_3, # of connection points: 4
#     Node 1, Type 0, BuildingBlock: QUQFOY_clean_sbu_3, # of connection points: 4
#     Node 2, Type 0, BuildingBlock: QUQFOY_clean_sbu_3, # of connection points: 4
#     Node 3, Type 0, BuildingBlock: QUQFOY_clean_sbu_3, # of connection points: 4
#     Node 4, Type 0, BuildingBlock: QUQFOY_clean_sbu_3, # of connection points: 4
#     Node 5, Type 0, BuildingBlock: QUQFOY_clean_sbu_3, # of connection points: 4
#     Node 6, Type 0, BuildingBlock: QUQFOY_clean_sbu_3, # of connection points: 4
#     Node 7, Type 0, BuildingBlock: QUQFOY_clean_sbu_3, # of connection points: 4
#     Node 8, Type 0, BuildingBlock: QUQFOY_clean_sbu_3, # of connection points: 4
#     Node 9, Type 0, BuildingBlock: QUQFOY_clean_sbu_3, # of connection points: 4
#     Node 10, Type 0, BuildingBlock: QUQFOY_clean_sbu_3, # of connection points: 4
#     Node 11, Type 0, BuildingBlock: QUQFOY_clean_sbu_3, # of connection points: 4
#     Node 12, Type 0, BuildingBlock: QUQFOY_clean_sbu_3, # of connection points: 4
#     Node 13, Type 0, BuildingBlock: QUQFOY_clean_sbu_3, # of connection points: 4
#     Node 14, Type 0, BuildingBlock: QUQFOY_clean_sbu_3, # of connection points: 4
#     Node 15, Type 0, BuildingBlock: QUQFOY_clean_sbu_3, # of connection points: 4
#     Edge 16, Type (0, 0), BuildingBlock: AJUNOK_clean_linker_0, # of connection points: 2
#     Edge 17, Type (0, 0), BuildingBlock: AJUNOK_clean_linker_0, # of connection points: 2
#     Edge 18, Type (0, 0), BuildingBlock: AJUNOK_clean_linker_0, # of connection points: 2
#     Edge 19, Type (0, 0), BuildingBlock: AJUNOK_clean_linker_0, # of connection points: 2
#     Edge 20, Type (0, 0), BuildingBlock: AJUNOK_clean_linker_0, # of connection points: 2
#     Edge 21, Type (0, 0), BuildingBlock: AJUNOK_clean_linker_0, # of connection points: 2
#     Edge 22, Type (0, 0), BuildingBlock: AJUNOK_clean_linker_0, # of connection points: 2
#     Edge 23, Type (0, 0), BuildingBlock: AJUNOK_clean_linker_0, # of connection points: 2
#     Edge 24, Type (0, 0), BuildingBlock: AJUNOK_clean_linker_0, # of connection points: 2
#     Edge 25, Type (0, 0), BuildingBlock: AJUNOK_clean_linker_0, # of connection points: 2
#     Edge 26, Type (0, 0), BuildingBlock: AJUNOK_clean_linker_0, # of connection points: 2
#     Edge 27, Type (0, 0), BuildingBlock: AJUNOK_clean_linker_0, # of connection points: 2
#     Edge 28, Type (0, 0), BuildingBlock: AJUNOK_clean_linker_0, # of connection points: 2
#     Edge 29, Type (0, 0), BuildingBlock: AJUNOK_clean_linker_0, # of connection points: 2
#     Edge 30, Type (0, 0), BuildingBlock: AJUNOK_clean_linker_0, # of connection points: 2
#     Edge 31, Type (0, 0), BuildingBlock: AJUNOK_clean_linker_0, # of connection points: 2
#     Edge 32, Type (0, 0), BuildingBlock: AJUNOK_clean_linker_0, # of connection points: 2
#     Edge 33, Type (0, 0), BuildingBlock: AJUNOK_clean_linker_0, # of connection points: 2
#     Edge 34, Type (0, 0), BuildingBlock: AJUNOK_clean_linker_0, # of connection points: 2
#     Edge 35, Type (0, 0), BuildingBlock: AJUNOK_clean_linker_0, # of connection points: 2
#     Edge 36, Type (0, 0), BuildingBlock: AJUNOK_clean_linker_0, # of connection points: 2
#     Edge 37, Type (0, 0), BuildingBlock: AJUNOK_clean_linker_0, # of connection points: 2
#     Edge 38, Type (0, 0), BuildingBlock: AJUNOK_clean_linker_0, # of connection points: 2
#     Edge 39, Type (0, 0), BuildingBlock: AJUNOK_clean_linker_0, # of connection points: 2
#     Edge 40, Type (0, 0), BuildingBlock: AJUNOK_clean_linker_0, # of connection points: 2
#     Edge 41, Type (0, 0), BuildingBlock: AJUNOK_clean_linker_0, # of connection points: 2
#     Edge 42, Type (0, 0), BuildingBlock: AJUNOK_clean_linker_0, # of connection points: 2
#     Edge 43, Type (0, 0), BuildingBlock: AJUNOK_clean_linker_0, # of connection points: 2
#     Edge 44, Type (0, 0), BuildingBlock: AJUNOK_clean_linker_0, # of connection points: 2
#     Edge 45, Type (0, 0), BuildingBlock: AJUNOK_clean_linker_0, # of connection points: 2
#     Edge 46, Type (0, 0), BuildingBlock: AJUNOK_clean_linker_0, # of connection points: 2
#     Edge 47, Type (0, 0), BuildingBlock: AJUNOK_clean_linker_0, # of connection points: 2
# Relax obj value: 0.098
# Max RMSD: 0.236
# Mean RMSD: 0.236
data_MOF--net-umd--node1-QUQFOY_clean_sbu_3--edge1-AJUNOK_clean_linker_0
_symmetry_space_group_name_H-M    P1
_symmetry_Int_Tables_number       1
_symmetry_cell_setting            triclinic
loop_
_symmetry_equiv_pos_as_xyz
'x, y, z'
_cell_length_a     30.668701
_cell_length_b     30.393146
_cell_length_c     44.141977
_cell_angle_alpha  89.766526
_cell_angle_beta   90.165137
_cell_angle_gamma 90.117398
loop_
_atom_site_label
_atom_site_type_symbol
_atom_site_fract_x
_atom_site_fract_y
_atom_site_fract_z
_atom_type_partial_charge
C0 C 0.17861 0.50473 0.15665 0.0
O1 O 0.17745 0.54329 0.14542 0.0
Cd2 Cd 0.15602 0.54584 0.09191 0.0
O3 O 0.17443 0.47175 0.13959 0.0
Cd4 Cd 0.16731 0.43776 0.09198 0.0
C5 C 0.07249 0.46281 0.09663 0.0
O6 O 0.19573 0.49908 0.05696 0.0
O7 O 0.149 0.44987 0.04205 0.0
O8 O 0.23951 0.40707 0.09981 0.0
C9 C 0.1748 0.48099 0.03528 0.0
O10 O 0.09897 0.49436 0.0948 0.0
C11 C 0.22838 0.36744 0.0956 0.0
O12 O 0.08755 0.42405 0.09938 0.0
O13 O 0.18851 0.35974 0.0897 0.0
C14 C 0.46021 0.18312 0.65542 0.0
O15 O 0.42144 0.1832 0.64517 0.0
Cd16 Cd 0.4195 0.16341 0.59092 0.0
O17 O 0.49162 0.1794 0.63722 0.0
Cd18 Cd 0.52806 0.17299 0.59025 0.0
C19 C 0.4984 0.07646 0.59537 0.0
O20 O 0.46914 0.20159 0.55677 0.0
O21 O 0.52174 0.16234 0.53752 0.0
O22 O 0.55711 0.24465 0.59794 0.0
C23 C 0.48675 0.18386 0.53365 0.0
O24 O 0.46491 0.10049 0.59328 0.0
C25 C 0.59664 0.23275 0.59806 0.0
O26 O 0.53609 0.09354 0.59791 0.0
O27 O 0.60499 0.19213 0.59458 0.0
C28 C 0.77528 0.46387 0.15732 0.0
O29 O 0.77514 0.42622 0.14499 0.0
Cd30 Cd 0.79991 0.42648 0.09213 0.0
O31 O 0.78208 0.49804 0.14168 0.0
Cd32 Cd 0.78954 0.52795 0.09231 0.0
C33 C 0.88826 0.50412 0.09626 0.0
O34 O 0.76035 0.4706 0.0558 0.0
O35 O 0.81146 0.51641 0.0427 0.0
O36 O 0.71698 0.55717 0.09552 0.0
C37 C 0.7829 0.48849 0.03486 0.0
O38 O 0.86595 0.46901 0.09438 0.0
C39 C 0.7278 0.59737 0.09493 0.0
O40 O 0.86909 0.54116 0.09792 0.0
O41 O 0.76825 0.60628 0.09304 0.0
C42 C 0.49656 0.78413 0.65611 0.0
O43 O 0.53379 0.78671 0.64356 0.0
Cd44 Cd 0.53618 0.80638 0.58951 0.0
O45 O 0.46223 0.78719 0.64022 0.0
Cd46 Cd 0.43016 0.79287 0.59055 0.0
C47 C 0.45846 0.89288 0.59387 0.0
O48 O 0.48867 0.76447 0.55687 0.0
O49 O 0.43412 0.80163 0.53815 0.0
O50 O 0.40004 0.72216 0.60151 0.0
C51 C 0.46937 0.78096 0.53384 0.0
O52 O 0.494 0.87187 0.59205 0.0
C53 C 0.36096 0.73344 0.59634 0.0
O54 O 0.42198 0.87289 0.59486 0.0
O55 O 0.3537 0.77344 0.5894 0.0
C56 C 0.17828 0.46657 0.28473 0.0
O57 O 0.17891 0.4283 0.29635 0.0
Cd58 Cd 0.15502 0.42488 0.34899 0.0
O59 O 0.17195 0.49963 0.30115 0.0
Cd60 Cd 0.16818 0.52714 0.34996 0.0
C61 C 0.06842 0.50167 0.34629 0.0
O62 O 0.19632 0.46748 0.38506 0.0
O63 O 0.14872 0.51606 0.39933 0.0
O64 O 0.23935 0.55891 0.33995 0.0
C65 C 0.17484 0.48542 0.40638 0.0
O66 O 0.08728 0.46463 0.34819 0.0
C67 C 0.22833 0.59824 0.34542 0.0
O68 O 0.08991 0.53741 0.34404 0.0
O69 O 0.18892 0.60501 0.35301 0.0
C70 C 0.49704 0.18295 0.78461 0.0
O71 O 0.5344 0.18097 0.79718 0.0
Cd72 Cd 0.5376 0.16205 0.85118 0.0
O73 O 0.46278 0.17929 0.80041 0.0
Cd74 Cd 0.42966 0.17265 0.84983 0.0
C75 C 0.45758 0.0763 0.84606 0.0
O76 O 0.48875 0.20262 0.88366 0.0
O77 O 0.43628 0.16317 0.90296 0.0
O78 O 0.40162 0.24389 0.83719 0.0
C79 C 0.47065 0.18565 0.90698 0.0
O80 O 0.48961 0.10212 0.8482 0.0
C81 C 0.36221 0.23413 0.84253 0.0
O82 O 0.41943 0.09205 0.84307 0.0
O83 O 0.35375 0.19495 0.85097 0.0
C84 C 0.77405 0.50174 0.2843 0.0
O85 O 0.78099 0.53852 0.29706 0.0
Cd86 Cd 0.80323 0.54249 0.3504 0.0
O87 O 0.77633 0.46623 0.29902 0.0
Cd88 Cd 0.78524 0.43756 0.34814 0.0
C89 C 0.88752 0.46526 0.34624 0.0
O90 O 0.7612 0.49754 0.38452 0.0
O91 O 0.78497 0.43362 0.39903 0.0
O92 O 0.71624 0.40802 0.3365 0.0
C93 C 0.77394 0.4723 0.406 0.0
O94 O 0.86933 0.50236 0.34914 0.0
C95 C 0.72708 0.36831 0.34112 0.0
O96 O 0.86538 0.43002 0.34321 0.0
O97 O 0.7665 0.36034 0.34837 0.0
C98 C 0.46031 0.7842 0.78538 0.0
O99 O 0.42162 0.78591 0.79563 0.0
Cd100 Cd 0.41916 0.80576 0.85033 0.0
O101 O 0.49194 0.7864 0.8036 0.0
Cd102 Cd 0.52742 0.79101 0.85082 0.0
C103 C 0.49905 0.89169 0.84668 0.0
O104 O 0.46677 0.76557 0.88477 0.0
O105 O 0.52751 0.79255 0.90239 0.0
O106 O 0.5565 0.7203 0.83978 0.0
C107 C 0.48895 0.77954 0.90738 0.0
O108 O 0.46391 0.86977 0.8479 0.0
C109 C 0.59586 0.73226 0.84285 0.0
O110 O 0.53579 0.87217 0.84676 0.0
O111 O 0.60378 0.77243 0.84866 0.0
C112 C 0.7774 0.46606 0.78381 0.0
O113 O 0.77737 0.42832 0.79626 0.0
Cd114 Cd 0.80078 0.42649 0.84903 0.0
O115 O 0.78402 0.50011 0.79939 0.0
Cd116 Cd 0.79068 0.52961 0.84829 0.0
C117 C 0.8884 0.50411 0.84309 0.0
O118 O 0.7613 0.47144 0.88465 0.0
O119 O 0.81247 0.5168 0.89818 0.0
O120 O 0.71824 0.56029 0.84012 0.0
C121 C 0.78388 0.48875 0.9058 0.0
O122 O 0.86562 0.46956 0.84597 0.0
C123 C 0.7296 0.60014 0.843 0.0
O124 O 0.86988 0.54136 0.8401 0.0
O125 O 0.76936 0.60782 0.84937 0.0
C126 C 0.49809 0.78335 0.28464 0.0
O127 O 0.53595 0.78505 0.29641 0.0
Cd128 Cd 0.53718 0.8048 0.35064 0.0
O129 O 0.46495 0.78654 0.30149 0.0
Cd130 Cd 0.43084 0.79248 0.34999 0.0
C131 C 0.46065 0.89197 0.34548 0.0
O132 O 0.48897 0.76516 0.38484 0.0
O133 O 0.435 0.80401 0.40236 0.0
O134 O 0.40004 0.7219 0.33892 0.0
C135 C 0.47006 0.78318 0.40736 0.0
O136 O 0.49621 0.87123 0.3485 0.0
C137 C 0.36106 0.73312 0.3443 0.0
O138 O 0.42438 0.87202 0.3424 0.0
O139 O 0.354 0.773 0.35145 0.0
C140 C 0.17801 0.50323 0.78453 0.0
O141 O 0.17826 0.54235 0.79453 0.0
Cd142 Cd 0.15783 0.54426 0.84857 0.0
O143 O 0.17442 0.47152 0.80272 0.0
Cd144 Cd 0.16929 0.43857 0.85004 0.0
C145 C 0.07186 0.46445 0.84386 0.0
O146 O 0.19731 0.49886 0.8849 0.0
O147 O 0.15077 0.44913 0.89955 0.0
O148 O 0.24086 0.40902 0.83924 0.0
C149 C 0.17618 0.48049 0.9064 0.0
O150 O 0.09453 0.49917 0.8457 0.0
C151 C 0.23041 0.36911 0.84335 0.0
O152 O 0.0902 0.42693 0.84323 0.0
O153 O 0.19129 0.36102 0.85119 0.0
C154 C 0.46068 0.18714 0.28419 0.0
O155 O 0.42351 0.18602 0.29682 0.0
Cd156 Cd 0.42234 0.16163 0.35005 0.0
O157 O 0.49501 0.18141 0.2997 0.0
Cd158 Cd 0.52564 0.17485 0.34997 0.0
C159 C 0.49782 0.07429 0.34523 0.0
O160 O 0.46833 0.2026 0.38417 0.0
O161 O 0.52127 0.16291 0.4028 0.0
O162 O 0.55473 0.24558 0.33944 0.0
C163 C 0.48671 0.18478 0.40707 0.0
O164 O 0.46109 0.09314 0.34755 0.0
C165 C 0.59423 0.23468 0.34316 0.0
O166 O 0.53329 0.09596 0.34395 0.0
O167 O 0.60233 0.19488 0.35026 0.0
C168 C 0.77829 0.50297 0.65561 0.0
O169 O 0.78096 0.54163 0.64451 0.0
Cd170 Cd 0.80262 0.54606 0.59044 0.0
O171 O 0.78122 0.47001 0.63854 0.0
Cd172 Cd 0.78771 0.43465 0.5919 0.0
C173 C 0.88447 0.46226 0.59486 0.0
O174 O 0.76304 0.49718 0.55649 0.0
O175 O 0.7849 0.43317 0.54111 0.0
O176 O 0.71705 0.40587 0.60073 0.0
C177 C 0.77486 0.47241 0.53462 0.0
O178 O 0.85825 0.49388 0.59322 0.0
C179 C 0.72876 0.36598 0.59958 0.0
O180 O 0.86902 0.42348 0.59655 0.0
O181 O 0.769 0.35751 0.59602 0.0
C182 C 0.46123 0.78342 0.15503 0.0
O183 O 0.42271 0.7871 0.14435 0.0
Cd184 Cd 0.41685 0.80799 0.08991 0.0
O185 O 0.49343 0.78639 0.13743 0.0
Cd186 Cd 0.52942 0.7936 0.0905 0.0
C187 C 0.50142 0.88894 0.09504 0.0
O188 O 0.46673 0.76829 0.05693 0.0
O189 O 0.52749 0.79417 0.03874 0.0
O190 O 0.55569 0.72148 0.09939 0.0
C191 C 0.48878 0.78125 0.03399 0.0
O192 O 0.47185 0.86052 0.09324 0.0
C193 C 0.59565 0.73174 0.09749 0.0
O194 O 0.54059 0.87543 0.09565 0.0
O195 O 0.60539 0.77211 0.09381 0.0
C196 C 0.17881 0.46395 0.65703 0.0
O197 O 0.17632 0.42661 0.6443 0.0
Cd198 Cd 0.15409 0.42408 0.59139 0.0
O199 O 0.17419 0.49892 0.6418 0.0
Cd200 Cd 0.16749 0.52802 0.59203 0.0
C201 C 0.06875 0.50439 0.59518 0.0
O202 O 0.19611 0.46788 0.55678 0.0
O203 O 0.14936 0.51695 0.54197 0.0
O204 O 0.23921 0.55921 0.60075 0.0
C205 C 0.17502 0.48596 0.53517 0.0
O206 O 0.09124 0.46962 0.59346 0.0
C207 C 0.22821 0.59866 0.59554 0.0
O208 O 0.08778 0.54157 0.59694 0.0
O209 O 0.1885 0.60575 0.58874 0.0
C210 C 0.49466 0.18676 0.15577 0.0
O211 O 0.53166 0.18315 0.14308 0.0
Cd212 Cd 0.53496 0.16151 0.08976 0.0
O213 O 0.45977 0.18215 0.14069 0.0
Cd214 Cd 0.42886 0.17311 0.09047 0.0
C215 C 0.45636 0.07419 0.09548 0.0
O216 O 0.48782 0.20297 0.05678 0.0
O217 O 0.4356 0.1633 0.03748 0.0
O218 O 0.39983 0.2447 0.10027 0.0
C219 C 0.46992 0.18585 0.03352 0.0
O220 O 0.48988 0.09831 0.09328 0.0
C221 C 0.3605 0.23355 0.09606 0.0
O222 O 0.4189 0.09203 0.09658 0.0
O223 O 0.35247 0.19369 0.08934 0.0
C224 C -0.00534 0.445 0.10798 0.0
C225 C 0.02567 0.47369 0.09587 0.0
C226 C 0.95091 0.45722 0.10927 0.0
C227 C 0.93603 0.49818 0.09808 0.0
H228 H 0.00422 0.41323 0.11696 0.0
H229 H 0.92826 0.43367 0.11894 0.0
S230 S 0.00535 0.58483 0.06308 0.0
N231 N 0.03931 0.54475 0.07177 0.0
N232 N 0.95669 0.56769 0.07421 0.0
C233 C 0.96688 0.52755 0.08594 0.0
C234 C 0.0117 0.51505 0.08466 0.0
C235 C 0.49701 0.95623 0.61506 0.0
C236 C 0.46288 0.94051 0.5965 0.0
C237 C 0.51091 -6e-05 0.61357 0.0
C238 C 0.49075 0.02918 0.5935 0.0
H239 H 0.51386 0.93408 0.63042 0.0
H240 H 0.53656 0.01105 0.62865 0.0
S241 S 0.40206 0.00463 0.53873 0.0
N242 N 0.41023 0.95759 0.55683 0.0
N243 N 0.43702 0.03985 0.55353 0.0
C244 C 0.45706 0.01387 0.5745 0.0
C245 C 0.44255 0.96956 0.57628 0.0
C246 C 0.00173 0.48047 0.3198 0.0
C247 C 0.02107 0.50003 0.34534 0.0
C248 C 0.95907 0.46406 0.32086 0.0
C249 C 0.93492 0.46622 0.34772 0.0
H250 H 0.02027 0.47675 0.2991 0.0
H251 H 0.94439 0.45124 0.30035 0.0
S252 S 0.97078 0.51306 0.421 0.0
N253 N 0.01308 0.52011 0.39831 0.0
N254 N 0.93292 0.4886 0.40037 0.0
C255 C 0.95415 0.48505 0.37349 0.0
C256 C -0.00285 0.50242 0.37228 0.0
C257 C 0.45576 0.95485 0.82923 0.0
C258 C 0.49377 0.93963 0.84409 0.0
C259 C 0.4426 -0.00131 0.83085 0.0
C260 C 0.46752 0.0291 0.84704 0.0
H261 H 0.43522 0.93224 0.81668 0.0
H262 H 0.41337 0.00888 0.81893 0.0
S263 S 0.56941 0.00722 0.89033 0.0
N264 N 0.5562 0.95905 0.87557 0.0
N265 N 0.53133 0.0417 0.87888 0.0
C266 C 0.5058 0.01464 0.86188 0.0
C267 C 0.51931 0.96993 0.86014 0.0
C268 C 0.95154 0.46012 0.8597 0.0
C269 C 0.93599 0.49752 0.84383 0.0
C270 C -0.00492 0.44692 0.85812 0.0
C271 C 0.02474 0.47105 0.84074 0.0
H272 H 0.92968 0.44054 0.87355 0.0
H273 H 0.00579 0.41888 0.87141 0.0
S274 S 0.00228 0.57095 0.79484 0.0
N275 N 0.95472 0.55855 0.81032 0.0
N276 N 0.03659 0.53304 0.8069 0.0
C277 C 0.00989 0.50823 0.82465 0.0
C278 C 0.96564 0.52203 0.82648 0.0
C279 C 0.47351 0.00805 0.31911 0.0
C280 C 0.49648 0.02668 0.34353 0.0
C281 C 0.45782 0.96486 0.3206 0.0
C282 C 0.46442 0.93956 0.34677 0.0
H283 H 0.46643 0.02762 0.29912 0.0
H284 H 0.44176 0.95085 0.30099 0.0
S285 S 0.52246 0.9729 0.41673 0.0
N286 N 0.5253 0.0166 0.39442 0.0
N287 N 0.49523 0.93542 0.39738 0.0
C288 C 0.48724 0.95788 0.37129 0.0
C289 C 0.50377 0.00142 0.3696 0.0
C290 C 0.9625 0.44419 0.60618 0.0
C291 C 0.93141 0.47309 0.59438 0.0
C292 C 0.00632 0.45651 0.60754 0.0
C293 C 0.02109 0.49786 0.59684 0.0
H294 H 0.95297 0.41219 0.61482 0.0
H295 H 0.02908 0.4328 0.61689 0.0
S296 S 0.95179 0.58482 0.5625 0.0
N297 N 0.9178 0.5446 0.57095 0.0
N298 N 0.00045 0.56761 0.57354 0.0
C299 C -0.00978 0.52732 0.58501 0.0
C300 C 0.94541 0.51473 0.58363 0.0
C301 C 0.50813 0.01254 0.10126 0.0
C302 C 0.46437 0.02624 0.0974 0.0
C303 C 0.52004 0.96839 0.10062 0.0
C304 C 0.48864 0.93569 0.09646 0.0
H305 H 0.53417 0.03621 0.10446 0.0
H306 H 0.55416 0.95998 0.10324 0.0
S307 S 0.36899 0.9523 0.08738 0.0
N308 N 0.38903 0.00262 0.09053 0.0
N309 N 0.41125 0.91907 0.08989 0.0
C310 C 0.44438 0.94839 0.09357 0.0
C311 C 0.43219 -0.00628 0.09399 0.0
C312 C 0.17639 0.44235 0.23095 0.0
C313 C 0.18538 0.47496 0.25227 0.0
C314 C 0.17562 0.45258 0.20011 0.0
C315 C 0.18355 0.49583 0.18941 0.0
H316 H 0.16787 0.4093 0.23811 0.0
H317 H 0.16707 0.42635 0.18464 0.0
S318 S 0.21543 0.59152 0.23643 0.0
N319 N 0.20832 0.5509 0.26081 0.0
N320 N 0.20494 0.5704 0.20276 0.0
C321 C 0.19507 0.5282 0.21049 0.0
C322 C 0.19662 0.5176 0.24193 0.0
C323 C 0.44235 0.20541 0.7089 0.0
C324 C 0.47073 0.18557 0.6882 0.0
C325 C 0.45263 0.20664 0.73992 0.0
C326 C 0.49153 0.188 0.7514 0.0
H327 H 0.41195 0.21974 0.70119 0.0
H328 H 0.42931 0.22142 0.7552 0.0
S329 S 0.57689 0.13243 0.70636 0.0
N330 N 0.53967 0.14716 0.6813 0.0
N331 N 0.55886 0.15011 0.73934 0.0
C332 C 0.52083 0.16947 0.73078 0.0
C333 C 0.51033 0.16796 0.69929 0.0
C334 C 0.80759 0.49452 0.20339 0.0
C335 C 0.77357 0.47004 0.1902 0.0
C336 C 0.80567 0.50821 0.23348 0.0
C337 C 0.76965 0.49772 0.25148 0.0
H338 H 0.83605 0.50337 0.19017 0.0
H339 H 0.83342 0.5254 0.24307 0.0
S340 S 0.67045 0.43703 0.22765 0.0
N341 N 0.70133 0.43817 0.19696 0.0
N342 N 0.69848 0.46268 0.25433 0.0
C343 C 0.73501 0.47368 0.23866 0.0
C344 C 0.73675 0.46003 0.20778 0.0
C345 C 0.44089 0.76412 0.73163 0.0
C346 C 0.47072 0.78139 0.75259 0.0
C347 C 0.45098 0.76276 0.70064 0.0
C348 C 0.49107 0.77891 0.68934 0.0
H349 H 0.40949 0.75194 0.73912 0.0
H350 H 0.42652 0.74995 0.68525 0.0
S351 S 0.58114 0.82585 0.73522 0.0
N352 N 0.54286 0.81364 0.76002 0.0
N353 N 0.56146 0.8108 0.70198 0.0
C354 C 0.5219 0.79452 0.71022 0.0
C355 C 0.51168 0.79598 0.74174 0.0
C356 C 0.78671 0.44214 0.73039 0.0
C357 C 0.77037 0.47249 0.75113 0.0
C358 C 0.78839 0.45258 0.69955 0.0
C359 C 0.77392 0.49374 0.68835 0.0
H360 H 0.80038 0.41122 0.73812 0.0
H361 H 0.80265 0.42854 0.68449 0.0
S362 S 0.72066 0.58074 0.73311 0.0
N363 N 0.73357 0.54259 0.75827 0.0
N364 N 0.73778 0.56242 0.70011 0.0
C365 C 0.75507 0.5232 0.70869 0.0
C366 C 0.75288 0.51239 0.7401 0.0
C367 C 0.44714 0.7832 0.24042 0.0
C368 C 0.49029 0.77887 0.25147 0.0
C369 C 0.43751 0.78275 0.2094 0.0
C370 C 0.47056 0.77755 0.18791 0.0
H371 H 0.42023 0.78838 0.25582 0.0
H372 H 0.4041 0.78799 0.20226 0.0
S373 S 0.58831 0.75847 0.20449 0.0
N374 N 0.56599 0.76538 0.23815 0.0
N375 N 0.54797 0.76281 0.17988 0.0
C376 C 0.51364 0.77034 0.19859 0.0
C377 C 0.52353 0.77151 0.23028 0.0
C378 C 0.20462 0.51783 0.73172 0.0
C379 C 0.1805 0.49216 0.75212 0.0
C380 C 0.2067 0.50624 0.70105 0.0
C381 C 0.18474 0.46874 0.6899 0.0
H382 H 0.22162 0.54702 0.7394 0.0
H383 H 0.22442 0.52764 0.6857 0.0
S384 S 0.11873 0.38987 0.73452 0.0
N385 N 0.13536 0.42679 0.75929 0.0
N386 N 0.13998 0.40514 0.7018 0.0
C387 C 0.16235 0.44175 0.71031 0.0
C388 C 0.15989 0.45361 0.74138 0.0
C389 C 0.48597 0.15228 0.23725 0.0
C390 C 0.46576 0.1885 0.25103 0.0
C391 C 0.49805 0.15328 0.20672 0.0
C392 C 0.49051 0.19066 0.18882 0.0
H393 H 0.4927 0.1228 0.25034 0.0
H394 H 0.51213 0.12403 0.1968 0.0
S395 S 0.4404 0.29521 0.21397 0.0
N396 N 0.44005 0.2637 0.24464 0.0
N397 N 0.46237 0.2653 0.18679 0.0
C398 C 0.47061 0.22742 0.20221 0.0
C399 C 0.45828 0.22646 0.23347 0.0
C400 C 0.18663 0.44574 0.95545 0.0
C401 C 0.1873 0.48498 0.93871 0.0
C402 C 0.18639 0.44586 -0.01332 0.0
C403 C 0.18674 0.48522 0.00307 0.0
H404 H 0.18412 0.41411 0.94431 0.0
H405 H 0.18369 0.41431 -0.00191 0.0
S406 S 0.20222 0.59693 -0.02958 0.0
N407 N 0.19775 0.56452 0.94049 0.0
N408 N 0.1974 0.56475 0.00061 0.0
C409 C 0.19261 0.52504 -0.01298 0.0
C410 C 0.19284 0.52492 0.95442 0.0
C411 C 0.45469 0.15642 0.45445 0.0
C412 C 0.47227 0.19206 0.43821 0.0
C413 C 0.45444 0.15633 0.4862 0.0
C414 C 0.47182 0.19185 0.50255 0.0
H415 H 0.44449 0.12694 0.44262 0.0
H416 H 0.44415 0.12673 0.49798 0.0
S417 S 0.52187 0.2926 0.47043 0.0
N418 N 0.50671 0.26382 0.44051 0.0
N419 N 0.50632 0.26369 0.50031 0.0
C420 C 0.48713 0.22871 0.48654 0.0
C421 C 0.48735 0.2288 0.45423 0.0
C422 C 0.76712 0.44689 -0.0136 0.0
C423 C 0.77123 0.48667 0.0025 0.0
C424 C 0.76737 0.44693 0.95432 0.0
C425 C 0.77176 0.48678 0.93808 0.0
H426 H 0.76696 0.41578 -0.00153 0.0
H427 H 0.76739 0.41586 0.94239 0.0
S428 S 0.77753 0.59923 0.97011 0.0
N429 N 0.77469 0.56639 -0.00018 0.0
N430 N 0.77515 0.56649 0.94051 0.0
C431 C 0.77199 0.52641 0.95422 0.0
C432 C 0.77174 0.52636 -0.01378 0.0
C433 C 0.48883 0.7408 0.48653 0.0
C434 C 0.48705 0.78029 0.50301 0.0
C435 C 0.48879 0.74145 0.45458 0.0
C436 C 0.48667 0.78159 0.43863 0.0
H437 H 0.48578 0.70952 0.4982 0.0
H438 H 0.48589 0.71062 0.4425 0.0
S439 S 0.48318 0.89327 0.47179 0.0
N440 N 0.48596 0.85993 0.50128 0.0
N441 N 0.48492 0.8612 0.44173 0.0
C442 C 0.4882 0.82096 0.45507 0.0
C443 C 0.4887 0.82029 0.4872 0.0
C444 C 0.18582 0.52036 0.45498 0.0
C445 C 0.18592 0.48103 0.43861 0.0
C446 C 0.18583 0.52042 0.48619 0.0
C447 C 0.18595 0.48117 0.5029 0.0
H448 H 0.18356 0.55193 0.44355 0.0
H449 H 0.1836 0.55206 0.49734 0.0
S450 S 0.19448 0.36857 0.47104 0.0
N451 N 0.19214 0.40113 0.44091 0.0
N452 N 0.19218 0.40112 0.50101 0.0
C453 C 0.19 0.44104 0.48716 0.0
C454 C 0.18999 0.44101 0.45458 0.0
C455 C 0.49613 0.15234 0.95465 0.0
C456 C 0.48726 0.19084 0.93808 0.0
C457 C 0.4959 0.15234 -0.01367 0.0
C458 C 0.48685 0.19086 0.00257 0.0
H459 H 0.49933 0.12115 0.94304 0.0
H460 H 0.49894 0.12117 -0.00184 0.0
S461 S 0.46515 0.30111 0.96997 0.0
N462 N 0.47244 0.26925 0.94013 0.0
N463 N 0.4722 0.26924 2e-05 0.0
C464 C 0.4817 0.23042 -0.01358 0.0
C465 C 0.48185 0.23042 0.95398 0.0
C466 C 0.75071 0.51219 0.45414 0.0
C467 C 0.78001 0.48524 0.43803 0.0
C468 C 0.751 0.51243 0.48631 0.0
C469 C 0.78075 0.48587 0.5026 0.0
H470 H 0.72542 0.52998 0.4421 0.0
H471 H 0.72583 0.53025 0.49824 0.0
S472 S 0.86671 0.41385 0.47052 0.0
N473 N 0.84216 0.43577 0.44098 0.0
N474 N 0.84284 0.43634 0.4999 0.0
C475 C 0.8127 0.46286 0.48632 0.0
C476 C 0.8123 0.4625 0.45439 0.0
C477 C 0.45214 0.75125 -0.01312 0.0
C478 C 0.47193 0.78616 0.00282 0.0
C479 C 0.45222 0.75086 0.95478 0.0
C480 C 0.47226 0.78527 0.9384 0.0
H481 H 0.44071 0.72243 -0.00099 0.0
H482 H 0.44078 0.72179 0.94305 0.0
S483 S 0.52477 0.88521 0.96995 0.0
N484 N 0.50775 0.85734 -0.00027 0.0
N485 N 0.50817 0.85652 0.94052 0.0
C486 C 0.48773 0.82205 0.95434 0.0
C487 C 0.4875 0.8225 -0.01366 0.0
C488 C 0.27898 0.31723 0.12309 0.0
C489 C 0.26114 0.33248 0.09563 0.0
C490 C 0.31131 0.28464 0.12325 0.0
C491 C 0.3263 0.26673 0.09595 0.0
H492 H 0.26785 0.33051 0.14445 0.0
H493 H 0.32453 0.27334 0.1447 0.0
S494 S 0.29383 0.29942 0.01834 0.0
N495 N 0.26314 0.32988 0.04068 0.0
N496 N 0.32413 0.26872 0.04105 0.0
C497 C 0.30973 0.28264 0.06847 0.0
C498 C 0.27693 0.3156 0.06829 0.0
C499 C 0.66362 0.33148 0.57734 0.0
C500 C 0.69612 0.33131 0.59976 0.0
C501 C 0.63142 0.29902 0.57704 0.0
C502 C 0.63105 0.26572 0.59914 0.0
H503 H 0.66335 0.35662 0.55985 0.0
H504 H 0.60689 0.29972 0.55931 0.0
S505 S 0.70623 0.25439 0.6644 0.0
N506 N 0.72466 0.29764 0.64555 0.0
N507 N 0.66348 0.23628 0.6452 0.0
C508 C 0.66281 0.26577 0.62201 0.0
C509 C 0.69568 0.29881 0.62224 0.0
C510 C 0.70015 0.67007 0.1126 0.0
C511 C 0.69423 0.63174 0.09534 0.0
C512 C 0.66783 0.70258 0.11341 0.0
C513 C 0.62888 0.69742 0.09706 0.0
H514 H 0.72964 0.67467 0.12577 0.0
H515 H 0.67312 0.73166 0.12707 0.0
S516 S 0.59948 0.60499 0.04634 0.0
N517 N 0.64765 0.59155 0.06036 0.0
N518 N 0.587 0.65272 0.0618 0.0
C519 C 0.62274 0.65949 0.07952 0.0
C520 C 0.65548 0.62654 0.07871 0.0
C521 C 0.29551 0.63252 0.61708 0.0
C522 C 0.26082 0.63418 0.59618 0.0
C523 C 0.3277 0.66525 0.6173 0.0
C524 C 0.32605 0.70052 0.59666 0.0
H525 H 0.2977 0.60586 0.63338 0.0
H526 H 0.35394 0.663 0.63374 0.0
S527 S 0.24624 0.71578 0.53444 0.0
N528 N 0.22925 0.67133 0.55256 0.0
N529 N 0.29005 0.73271 0.55285 0.0
C530 C 0.29236 0.70184 0.57517 0.0
C531 C 0.25958 0.66866 0.57498 0.0
C532 C 0.32454 0.66813 0.32131 0.0
C533 C 0.3261 0.70021 0.34413 0.0
C534 C 0.29229 0.63538 0.32157 0.0
C535 C 0.26082 0.63386 0.34468 0.0
H536 H 0.34827 0.66846 0.30317 0.0
H537 H 0.29187 0.61122 0.30359 0.0
S538 S 0.25625 0.70547 0.41226 0.0
N539 N 0.29715 0.72536 0.39213 0.0
N540 N 0.23627 0.66399 0.39251 0.0
C541 C 0.26301 0.66494 0.36803 0.0
C542 C 0.29582 0.69812 0.3678 0.0
C543 C 0.29656 0.26906 0.86401 0.0
C544 C 0.32831 0.26793 0.84123 0.0
C545 C 0.26454 0.30168 0.86413 0.0
C546 C 0.26333 0.3342 0.8415 0.0
H547 H 0.29699 0.24506 0.88223 0.0
H548 H 0.24109 0.302 0.88244 0.0
S549 S 0.33861 0.3447 0.77616 0.0
N550 N 0.35669 0.30146 0.79518 0.0
N551 N 0.29601 0.36293 0.79522 0.0
C552 C 0.295 0.33353 0.81851 0.0
C553 C 0.32773 0.3003 0.81844 0.0
C554 C 0.66606 0.26397 0.35919 0.0
C555 C 0.6288 0.26775 0.34084 0.0
C556 C 0.69835 0.29642 0.3587 0.0
C557 C 0.69424 0.33346 0.33982 0.0
H558 H 0.6698 0.23634 0.37455 0.0
H559 H 0.72614 0.29298 0.37373 0.0
S560 S 0.60386 0.3576 0.28635 0.0
N561 N 0.59012 0.3105 0.30254 0.0
N562 N 0.65094 0.37174 0.30174 0.0
C563 C 0.65729 0.3375 0.32119 0.0
C564 C 0.62447 0.3045 0.32165 0.0
C565 C 0.67708 0.64819 0.86931 0.0
C566 C 0.69688 0.63528 0.84215 0.0
C567 C 0.6444 0.68024 0.86934 0.0
C568 C 0.63057 0.69985 0.84218 0.0
H569 H 0.68676 0.6332 0.8906 0.0
H570 H 0.62962 0.6895 0.89065 0.0
S571 S 0.67121 0.67756 0.76518 0.0
N572 N 0.70029 0.64487 0.78745 0.0
N573 N 0.63759 0.70433 0.78766 0.0
C574 C 0.64946 0.68706 0.8149 0.0
C575 C 0.68309 0.65483 0.81483 0.0
loop_
_geom_bond_atom_site_label_1
_geom_bond_atom_site_label_2
_geom_bond_distance
_geom_bond_site_symmetry_2
_ccdc_geom_bond_type
C0 O1 1.306 . S
C0 O3 1.160 . S
O1 C0 1.306 . S
O1 Cd2 2.228 . S
Cd2 O1 2.228 . S
Cd2 O6 2.273 . S
Cd2 O10 2.277 . S
O3 C0 1.160 . S
O3 Cd4 2.203 . S
Cd4 O3 2.203 . S
Cd4 O6 2.411 . S
Cd4 O7 2.333 . S
Cd4 O8 2.352 . S
Cd4 O12 2.277 . S
Cd4 O13 2.356 . S
C5 O10 1.209 . S
C5 O12 1.226 . S
O6 Cd2 2.273 . S
O6 Cd4 2.411 . S
O6 C9 1.320 . S
O7 Cd4 2.333 . S
O7 C9 1.214 . S
O8 Cd4 2.352 . S
O8 C11 1.258 . S
C9 O6 1.320 . S
C9 O7 1.214 . S
O10 Cd2 2.277 . S
O10 C5 1.209 . S
C11 O8 1.258 . S
C11 O13 1.282 . S
O12 Cd4 2.277 . S
O12 C5 1.226 . S
O13 Cd4 2.356 . S
O13 C11 1.282 . S
C14 O15 1.306 . S
C14 O17 1.160 . S
O15 C14 1.306 . S
O15 Cd16 2.228 . S
Cd16 O15 2.228 . S
Cd16 O20 2.273 . S
Cd16 O24 2.277 . S
O17 C14 1.160 . S
O17 Cd18 2.203 . S
Cd18 O17 2.203 . S
Cd18 O20 2.411 . S
Cd18 O21 2.333 . S
Cd18 O22 2.352 . S
Cd18 O26 2.277 . S
Cd18 O27 2.356 . S
C19 O24 1.209 . S
C19 O26 1.226 . S
O20 Cd16 2.273 . S
O20 Cd18 2.411 . S
O20 C23 1.320 . S
O21 Cd18 2.333 . S
O21 C23 1.214 . S
O22 Cd18 2.352 . S
O22 C25 1.258 . S
C23 O20 1.320 . S
C23 O21 1.214 . S
O24 Cd16 2.277 . S
O24 C19 1.209 . S
C25 O22 1.258 . S
C25 O27 1.282 . S
O26 Cd18 2.277 . S
O26 C19 1.226 . S
O27 Cd18 2.356 . S
O27 C25 1.282 . S
C28 O29 1.306 . S
C28 O31 1.160 . S
O29 C28 1.306 . S
O29 Cd30 2.228 . S
Cd30 O29 2.228 . S
Cd30 O34 2.273 . S
Cd30 O38 2.277 . S
O31 C28 1.160 . S
O31 Cd32 2.203 . S
Cd32 O31 2.203 . S
Cd32 O34 2.411 . S
Cd32 O35 2.333 . S
Cd32 O36 2.352 . S
Cd32 O40 2.277 . S
Cd32 O41 2.356 . S
C33 O38 1.209 . S
C33 O40 1.226 . S
O34 Cd30 2.273 . S
O34 Cd32 2.411 . S
O34 C37 1.320 . S
O35 Cd32 2.333 . S
O35 C37 1.214 . S
O36 Cd32 2.352 . S
O36 C39 1.258 . S
C37 O34 1.320 . S
C37 O35 1.214 . S
O38 Cd30 2.277 . S
O38 C33 1.209 . S
C39 O36 1.258 . S
C39 O41 1.282 . S
O40 Cd32 2.277 . S
O40 C33 1.226 . S
O41 Cd32 2.356 . S
O41 C39 1.282 . S
C42 O43 1.306 . S
C42 O45 1.160 . S
O43 C42 1.306 . S
O43 Cd44 2.228 . S
Cd44 O43 2.228 . S
Cd44 O48 2.273 . S
Cd44 O52 2.277 . S
O45 C42 1.160 . S
O45 Cd46 2.203 . S
Cd46 O45 2.203 . S
Cd46 O48 2.411 . S
Cd46 O49 2.333 . S
Cd46 O50 2.352 . S
Cd46 O54 2.277 . S
Cd46 O55 2.356 . S
C47 O52 1.209 . S
C47 O54 1.226 . S
O48 Cd44 2.273 . S
O48 Cd46 2.411 . S
O48 C51 1.320 . S
O49 Cd46 2.333 . S
O49 C51 1.214 . S
O50 Cd46 2.352 . S
O50 C53 1.258 . S
C51 O48 1.320 . S
C51 O49 1.214 . S
O52 Cd44 2.277 . S
O52 C47 1.209 . S
C53 O50 1.258 . S
C53 O55 1.282 . S
O54 Cd46 2.277 . S
O54 C47 1.226 . S
O55 Cd46 2.356 . S
O55 C53 1.282 . S
C56 O57 1.306 . S
C56 O59 1.160 . S
O57 C56 1.306 . S
O57 Cd58 2.228 . S
Cd58 O57 2.228 . S
Cd58 O62 2.273 . S
Cd58 O66 2.277 . S
O59 C56 1.160 . S
O59 Cd60 2.203 . S
Cd60 O59 2.203 . S
Cd60 O62 2.411 . S
Cd60 O63 2.333 . S
Cd60 O64 2.352 . S
Cd60 O68 2.277 . S
Cd60 O69 2.356 . S
C61 O66 1.209 . S
C61 O68 1.226 . S
O62 Cd58 2.273 . S
O62 Cd60 2.411 . S
O62 C65 1.320 . S
O63 Cd60 2.333 . S
O63 C65 1.214 . S
O64 Cd60 2.352 . S
O64 C67 1.258 . S
C65 O62 1.320 . S
C65 O63 1.214 . S
O66 Cd58 2.277 . S
O66 C61 1.209 . S
C67 O64 1.258 . S
C67 O69 1.282 . S
O68 Cd60 2.277 . S
O68 C61 1.226 . S
O69 Cd60 2.356 . S
O69 C67 1.282 . S
C70 O71 1.306 . S
C70 O73 1.160 . S
O71 C70 1.306 . S
O71 Cd72 2.228 . S
Cd72 O71 2.228 . S
Cd72 O76 2.273 . S
Cd72 O80 2.277 . S
O73 C70 1.160 . S
O73 Cd74 2.203 . S
Cd74 O73 2.203 . S
Cd74 O76 2.411 . S
Cd74 O77 2.333 . S
Cd74 O78 2.352 . S
Cd74 O82 2.277 . S
Cd74 O83 2.356 . S
C75 O80 1.209 . S
C75 O82 1.226 . S
O76 Cd72 2.273 . S
O76 Cd74 2.411 . S
O76 C79 1.320 . S
O77 Cd74 2.333 . S
O77 C79 1.214 . S
O78 Cd74 2.352 . S
O78 C81 1.258 . S
C79 O76 1.320 . S
C79 O77 1.214 . S
O80 Cd72 2.277 . S
O80 C75 1.209 . S
C81 O78 1.258 . S
C81 O83 1.282 . S
O82 Cd74 2.277 . S
O82 C75 1.226 . S
O83 Cd74 2.356 . S
O83 C81 1.282 . S
C84 O85 1.306 . S
C84 O87 1.160 . S
O85 C84 1.306 . S
O85 Cd86 2.228 . S
Cd86 O85 2.228 . S
Cd86 O90 2.273 . S
Cd86 O94 2.277 . S
O87 C84 1.160 . S
O87 Cd88 2.203 . S
Cd88 O87 2.203 . S
Cd88 O90 2.411 . S
Cd88 O91 2.333 . S
Cd88 O92 2.352 . S
Cd88 O96 2.277 . S
Cd88 O97 2.356 . S
C89 O94 1.209 . S
C89 O96 1.226 . S
O90 Cd86 2.273 . S
O90 Cd88 2.411 . S
O90 C93 1.320 . S
O91 Cd88 2.333 . S
O91 C93 1.214 . S
O92 Cd88 2.352 . S
O92 C95 1.258 . S
C93 O90 1.320 . S
C93 O91 1.214 . S
O94 Cd86 2.277 . S
O94 C89 1.209 . S
C95 O92 1.258 . S
C95 O97 1.282 . S
O96 Cd88 2.277 . S
O96 C89 1.226 . S
O97 Cd88 2.356 . S
O97 C95 1.282 . S
C98 O99 1.306 . S
C98 O101 1.160 . S
O99 C98 1.306 . S
O99 Cd100 2.228 . S
Cd100 O99 2.228 . S
Cd100 O104 2.273 . S
Cd100 O108 2.277 . S
O101 C98 1.160 . S
O101 Cd102 2.203 . S
Cd102 O101 2.203 . S
Cd102 O104 2.411 . S
Cd102 O105 2.333 . S
Cd102 O106 2.352 . S
Cd102 O110 2.277 . S
Cd102 O111 2.356 . S
C103 O108 1.209 . S
C103 O110 1.226 . S
O104 Cd100 2.273 . S
O104 Cd102 2.411 . S
O104 C107 1.320 . S
O105 Cd102 2.333 . S
O105 C107 1.214 . S
O106 Cd102 2.352 . S
O106 C109 1.258 . S
C107 O104 1.320 . S
C107 O105 1.214 . S
O108 Cd100 2.277 . S
O108 C103 1.209 . S
C109 O106 1.258 . S
C109 O111 1.282 . S
O110 Cd102 2.277 . S
O110 C103 1.226 . S
O111 Cd102 2.356 . S
O111 C109 1.282 . S
C112 O113 1.306 . S
C112 O115 1.160 . S
O113 C112 1.306 . S
O113 Cd114 2.228 . S
Cd114 O113 2.228 . S
Cd114 O118 2.273 . S
Cd114 O122 2.277 . S
O115 C112 1.160 . S
O115 Cd116 2.203 . S
Cd116 O115 2.203 . S
Cd116 O118 2.411 . S
Cd116 O119 2.333 . S
Cd116 O120 2.352 . S
Cd116 O124 2.277 . S
Cd116 O125 2.356 . S
C117 O122 1.209 . S
C117 O124 1.226 . S
O118 Cd114 2.273 . S
O118 Cd116 2.411 . S
O118 C121 1.320 . S
O119 Cd116 2.333 . S
O119 C121 1.214 . S
O120 Cd116 2.352 . S
O120 C123 1.258 . S
C121 O118 1.320 . S
C121 O119 1.214 . S
O122 Cd114 2.277 . S
O122 C117 1.209 . S
C123 O120 1.258 . S
C123 O125 1.282 . S
O124 Cd116 2.277 . S
O124 C117 1.226 . S
O125 Cd116 2.356 . S
O125 C123 1.282 . S
C126 O127 1.306 . S
C126 O129 1.160 . S
O127 C126 1.306 . S
O127 Cd128 2.228 . S
Cd128 O127 2.228 . S
Cd128 O132 2.273 . S
Cd128 O136 2.277 . S
O129 C126 1.160 . S
O129 Cd130 2.203 . S
Cd130 O129 2.203 . S
Cd130 O132 2.411 . S
Cd130 O133 2.333 . S
Cd130 O134 2.352 . S
Cd130 O138 2.277 . S
Cd130 O139 2.356 . S
C131 O136 1.209 . S
C131 O138 1.226 . S
O132 Cd128 2.273 . S
O132 Cd130 2.411 . S
O132 C135 1.320 . S
O133 Cd130 2.333 . S
O133 C135 1.214 . S
O134 Cd130 2.352 . S
O134 C137 1.258 . S
C135 O132 1.320 . S
C135 O133 1.214 . S
O136 Cd128 2.277 . S
O136 C131 1.209 . S
C137 O134 1.258 . S
C137 O139 1.282 . S
O138 Cd130 2.277 . S
O138 C131 1.226 . S
O139 Cd130 2.356 . S
O139 C137 1.282 . S
C140 O141 1.306 . S
C140 O143 1.160 . S
O141 C140 1.306 . S
O141 Cd142 2.228 . S
Cd142 O141 2.228 . S
Cd142 O146 2.273 . S
Cd142 O150 2.277 . S
O143 C140 1.160 . S
O143 Cd144 2.203 . S
Cd144 O143 2.203 . S
Cd144 O146 2.411 . S
Cd144 O147 2.333 . S
Cd144 O148 2.352 . S
Cd144 O152 2.277 . S
Cd144 O153 2.356 . S
C145 O150 1.209 . S
C145 O152 1.226 . S
O146 Cd142 2.273 . S
O146 Cd144 2.411 . S
O146 C149 1.320 . S
O147 Cd144 2.333 . S
O147 C149 1.214 . S
O148 Cd144 2.352 . S
O148 C151 1.258 . S
C149 O146 1.320 . S
C149 O147 1.214 . S
O150 Cd142 2.277 . S
O150 C145 1.209 . S
C151 O148 1.258 . S
C151 O153 1.282 . S
O152 Cd144 2.277 . S
O152 C145 1.226 . S
O153 Cd144 2.356 . S
O153 C151 1.282 . S
C154 O155 1.306 . S
C154 O157 1.160 . S
O155 C154 1.306 . S
O155 Cd156 2.228 . S
Cd156 O155 2.228 . S
Cd156 O160 2.273 . S
Cd156 O164 2.277 . S
O157 C154 1.160 . S
O157 Cd158 2.203 . S
Cd158 O157 2.203 . S
Cd158 O160 2.411 . S
Cd158 O161 2.333 . S
Cd158 O162 2.352 . S
Cd158 O166 2.277 . S
Cd158 O167 2.356 . S
C159 O164 1.209 . S
C159 O166 1.226 . S
O160 Cd156 2.273 . S
O160 Cd158 2.411 . S
O160 C163 1.320 . S
O161 Cd158 2.333 . S
O161 C163 1.214 . S
O162 Cd158 2.352 . S
O162 C165 1.258 . S
C163 O160 1.320 . S
C163 O161 1.214 . S
O164 Cd156 2.277 . S
O164 C159 1.209 . S
C165 O162 1.258 . S
C165 O167 1.282 . S
O166 Cd158 2.277 . S
O166 C159 1.226 . S
O167 Cd158 2.356 . S
O167 C165 1.282 . S
C168 O169 1.306 . S
C168 O171 1.160 . S
O169 C168 1.306 . S
O169 Cd170 2.228 . S
Cd170 O169 2.228 . S
Cd170 O174 2.273 . S
Cd170 O178 2.277 . S
O171 C168 1.160 . S
O171 Cd172 2.203 . S
Cd172 O171 2.203 . S
Cd172 O174 2.411 . S
Cd172 O175 2.333 . S
Cd172 O176 2.352 . S
Cd172 O180 2.277 . S
Cd172 O181 2.356 . S
C173 O178 1.209 . S
C173 O180 1.226 . S
O174 Cd170 2.273 . S
O174 Cd172 2.411 . S
O174 C177 1.320 . S
O175 Cd172 2.333 . S
O175 C177 1.214 . S
O176 Cd172 2.352 . S
O176 C179 1.258 . S
C177 O174 1.320 . S
C177 O175 1.214 . S
O178 Cd170 2.277 . S
O178 C173 1.209 . S
C179 O176 1.258 . S
C179 O181 1.282 . S
O180 Cd172 2.277 . S
O180 C173 1.226 . S
O181 Cd172 2.356 . S
O181 C179 1.282 . S
C182 O183 1.306 . S
C182 O185 1.160 . S
O183 C182 1.306 . S
O183 Cd184 2.228 . S
Cd184 O183 2.228 . S
Cd184 O188 2.273 . S
Cd184 O192 2.277 . S
O185 C182 1.160 . S
O185 Cd186 2.203 . S
Cd186 O185 2.203 . S
Cd186 O188 2.411 . S
Cd186 O189 2.333 . S
Cd186 O190 2.352 . S
Cd186 O194 2.277 . S
Cd186 O195 2.356 . S
C187 O192 1.209 . S
C187 O194 1.226 . S
O188 Cd184 2.273 . S
O188 Cd186 2.411 . S
O188 C191 1.320 . S
O189 Cd186 2.333 . S
O189 C191 1.214 . S
O190 Cd186 2.352 . S
O190 C193 1.258 . S
C191 O188 1.320 . S
C191 O189 1.214 . S
O192 Cd184 2.277 . S
O192 C187 1.209 . S
C193 O190 1.258 . S
C193 O195 1.282 . S
O194 Cd186 2.277 . S
O194 C187 1.226 . S
O195 Cd186 2.356 . S
O195 C193 1.282 . S
C196 O197 1.306 . S
C196 O199 1.160 . S
O197 C196 1.306 . S
O197 Cd198 2.228 . S
Cd198 O197 2.228 . S
Cd198 O202 2.273 . S
Cd198 O206 2.277 . S
O199 C196 1.160 . S
O199 Cd200 2.203 . S
Cd200 O199 2.203 . S
Cd200 O202 2.411 . S
Cd200 O203 2.333 . S
Cd200 O204 2.352 . S
Cd200 O208 2.277 . S
Cd200 O209 2.356 . S
C201 O206 1.209 . S
C201 O208 1.226 . S
O202 Cd198 2.273 . S
O202 Cd200 2.411 . S
O202 C205 1.320 . S
O203 Cd200 2.333 . S
O203 C205 1.214 . S
O204 Cd200 2.352 . S
O204 C207 1.258 . S
C205 O202 1.320 . S
C205 O203 1.214 . S
O206 Cd198 2.277 . S
O206 C201 1.209 . S
C207 O204 1.258 . S
C207 O209 1.282 . S
O208 Cd200 2.277 . S
O208 C201 1.226 . S
O209 Cd200 2.356 . S
O209 C207 1.282 . S
C210 O211 1.306 . S
C210 O213 1.160 . S
O211 C210 1.306 . S
O211 Cd212 2.228 . S
Cd212 O211 2.228 . S
Cd212 O216 2.273 . S
Cd212 O220 2.277 . S
O213 C210 1.160 . S
O213 Cd214 2.203 . S
Cd214 O213 2.203 . S
Cd214 O216 2.411 . S
Cd214 O217 2.333 . S
Cd214 O218 2.352 . S
Cd214 O222 2.277 . S
Cd214 O223 2.356 . S
C215 O220 1.209 . S
C215 O222 1.226 . S
O216 Cd212 2.273 . S
O216 Cd214 2.411 . S
O216 C219 1.320 . S
O217 Cd214 2.333 . S
O217 C219 1.214 . S
O218 Cd214 2.352 . S
O218 C221 1.258 . S
C219 O216 1.320 . S
C219 O217 1.214 . S
O220 Cd212 2.277 . S
O220 C215 1.209 . S
C221 O218 1.258 . S
C221 O223 1.282 . S
O222 Cd214 2.277 . S
O222 C215 1.226 . S
O223 Cd214 2.356 . S
O223 C221 1.282 . S
C224 C225 1.369 . S
C224 C226 1.419 1_455 S
C224 H228 0.930 . S
C225 C224 1.369 . S
C225 C234 1.429 . S
C226 C224 1.419 1_655 S
C226 C227 1.363 . S
C226 H229 0.929 . S
C227 C226 1.363 . S
C227 C233 1.428 . S
H228 C224 0.930 . S
H229 C226 0.929 . S
S230 N231 1.613 . S
S230 N232 1.610 1_455 S
N231 S230 1.613 . S
N231 C234 1.350 . S
N232 S230 1.610 1_655 S
N232 C233 1.351 . S
C233 C227 1.428 . S
C233 N232 1.351 . S
C233 C234 1.434 1_655 S
C234 C225 1.429 . S
C234 N231 1.350 . S
C234 C233 1.434 1_455 S
C235 C236 1.369 . S
C235 C237 1.419 1_565 S
C235 H239 0.930 . S
C236 C235 1.369 . S
C236 C245 1.429 . S
C237 C235 1.419 1_545 S
C237 C238 1.363 . S
C237 H240 0.929 . S
C238 C237 1.363 . S
C238 C244 1.428 . S
H239 C235 0.930 . S
H240 C237 0.929 . S
S241 N242 1.613 1_545 S
S241 N243 1.610 . S
N242 S241 1.613 1_565 S
N242 C245 1.350 . S
N243 S241 1.610 . S
N243 C244 1.351 . S
C244 C238 1.428 . S
C244 N243 1.351 . S
C244 C245 1.434 1_545 S
C245 C236 1.429 . S
C245 N242 1.350 . S
C245 C244 1.434 1_565 S
C246 C247 1.369 . S
C246 C248 1.419 1_455 S
C246 H250 0.930 . S
C247 C246 1.369 . S
C247 C256 1.429 . S
C248 C246 1.419 1_655 S
C248 C249 1.363 . S
C248 H251 0.929 . S
C249 C248 1.363 . S
C249 C255 1.428 . S
H250 C246 0.930 . S
H251 C248 0.929 . S
S252 N253 1.613 1_655 S
S252 N254 1.610 . S
N253 S252 1.613 1_455 S
N253 C256 1.350 . S
N254 S252 1.610 . S
N254 C255 1.351 . S
C255 C249 1.428 . S
C255 N254 1.351 . S
C255 C256 1.434 1_655 S
C256 C247 1.429 . S
C256 N253 1.350 . S
C256 C255 1.434 1_455 S
C257 C258 1.369 . S
C257 C259 1.419 1_565 S
C257 H261 0.930 . S
C258 C257 1.369 . S
C258 C267 1.429 . S
C259 C257 1.419 1_545 S
C259 C260 1.363 . S
C259 H262 0.929 . S
C260 C259 1.363 . S
C260 C266 1.428 . S
H261 C257 0.930 . S
H262 C259 0.929 . S
S263 N264 1.613 1_545 S
S263 N265 1.610 . S
N264 S263 1.613 1_565 S
N264 C267 1.350 . S
N265 S263 1.610 . S
N265 C266 1.351 . S
C266 C260 1.428 . S
C266 N265 1.351 . S
C266 C267 1.434 1_545 S
C267 C258 1.429 . S
C267 N264 1.350 . S
C267 C266 1.434 1_565 S
C268 C269 1.369 . S
C268 C270 1.419 1_655 S
C268 H272 0.930 . S
C269 C268 1.369 . S
C269 C278 1.429 . S
C270 C268 1.419 1_455 S
C270 C271 1.363 . S
C270 H273 0.929 . S
C271 C270 1.363 . S
C271 C277 1.428 . S
H272 C268 0.930 . S
H273 C270 0.929 . S
S274 N275 1.613 1_455 S
S274 N276 1.610 . S
N275 S274 1.613 1_655 S
N275 C278 1.350 . S
N276 S274 1.610 . S
N276 C277 1.351 . S
C277 C271 1.428 . S
C277 N276 1.351 . S
C277 C278 1.434 1_455 S
C278 C269 1.429 . S
C278 N275 1.350 . S
C278 C277 1.434 1_655 S
C279 C280 1.369 . S
C279 C281 1.419 1_545 S
C279 H283 0.930 . S
C280 C279 1.369 . S
C280 C289 1.429 . S
C281 C279 1.419 1_565 S
C281 C282 1.363 . S
C281 H284 0.929 . S
C282 C281 1.363 . S
C282 C288 1.428 . S
H283 C279 0.930 . S
H284 C281 0.929 . S
S285 N286 1.613 1_565 S
S285 N287 1.610 . S
N286 S285 1.613 1_545 S
N286 C289 1.350 . S
N287 S285 1.610 . S
N287 C288 1.351 . S
C288 C282 1.428 . S
C288 N287 1.351 . S
C288 C289 1.434 1_565 S
C289 C280 1.429 . S
C289 N286 1.350 . S
C289 C288 1.434 1_545 S
C290 C291 1.369 . S
C290 C292 1.419 1_655 S
C290 H294 0.930 . S
C291 C290 1.369 . S
C291 C300 1.429 . S
C292 C290 1.419 1_455 S
C292 C293 1.363 . S
C292 H295 0.929 . S
C293 C292 1.363 . S
C293 C299 1.428 . S
H294 C290 0.930 . S
H295 C292 0.929 . S
S296 N297 1.613 . S
S296 N298 1.610 1_655 S
N297 S296 1.613 . S
N297 C300 1.350 . S
N298 S296 1.610 1_455 S
N298 C299 1.351 . S
C299 C293 1.428 . S
C299 N298 1.351 . S
C299 C300 1.434 1_455 S
C300 C291 1.429 . S
C300 N297 1.350 . S
C300 C299 1.434 1_655 S
C301 C302 1.369 . S
C301 C303 1.419 1_545 S
C301 H305 0.930 . S
C302 C301 1.369 . S
C302 C311 1.429 . S
C303 C301 1.419 1_565 S
C303 C304 1.363 . S
C303 H306 0.929 . S
C304 C303 1.363 . S
C304 C310 1.428 . S
H305 C301 0.930 . S
H306 C303 0.929 . S
S307 N308 1.613 1_565 S
S307 N309 1.610 . S
N308 S307 1.613 1_545 S
N308 C311 1.350 . S
N309 S307 1.610 . S
N309 C310 1.351 . S
C310 C304 1.428 . S
C310 N309 1.351 . S
C310 C311 1.434 1_565 S
C311 C302 1.429 . S
C311 N308 1.350 . S
C311 C310 1.434 1_545 S
C312 C313 1.369 . S
C312 C314 1.419 . S
C312 H316 0.930 . S
C313 C312 1.369 . S
C313 C322 1.429 . S
C314 C312 1.419 . S
C314 C315 1.363 . S
C314 H317 0.929 . S
C315 C314 1.363 . S
C315 C321 1.428 . S
H316 C312 0.930 . S
H317 C314 0.929 . S
S318 N319 1.613 . S
S318 N320 1.610 . S
N319 S318 1.613 . S
N319 C322 1.350 . S
N320 S318 1.610 . S
N320 C321 1.351 . S
C321 C315 1.428 . S
C321 N320 1.351 . S
C321 C322 1.434 . S
C322 C313 1.429 . S
C322 N319 1.350 . S
C322 C321 1.434 . S
C323 C324 1.369 . S
C323 C325 1.419 . S
C323 H327 0.930 . S
C324 C323 1.369 . S
C324 C333 1.429 . S
C325 C323 1.419 . S
C325 C326 1.363 . S
C325 H328 0.929 . S
C326 C325 1.363 . S
C326 C332 1.428 . S
H327 C323 0.930 . S
H328 C325 0.929 . S
S329 N330 1.613 . S
S329 N331 1.610 . S
N330 S329 1.613 . S
N330 C333 1.350 . S
N331 S329 1.610 . S
N331 C332 1.351 . S
C332 C326 1.428 . S
C332 N331 1.351 . S
C332 C333 1.434 . S
C333 C324 1.429 . S
C333 N330 1.350 . S
C333 C332 1.434 . S
C334 C335 1.369 . S
C334 C336 1.419 . S
C334 H338 0.930 . S
C335 C334 1.369 . S
C335 C344 1.429 . S
C336 C334 1.419 . S
C336 C337 1.363 . S
C336 H339 0.929 . S
C337 C336 1.363 . S
C337 C343 1.428 . S
H338 C334 0.930 . S
H339 C336 0.929 . S
S340 N341 1.613 . S
S340 N342 1.610 . S
N341 S340 1.613 . S
N341 C344 1.350 . S
N342 S340 1.610 . S
N342 C343 1.351 . S
C343 C337 1.428 . S
C343 N342 1.351 . S
C343 C344 1.434 . S
C344 C335 1.429 . S
C344 N341 1.350 . S
C344 C343 1.434 . S
C345 C346 1.369 . S
C345 C347 1.419 . S
C345 H349 0.930 . S
C346 C345 1.369 . S
C346 C355 1.429 . S
C347 C345 1.419 . S
C347 C348 1.363 . S
C347 H350 0.929 . S
C348 C347 1.363 . S
C348 C354 1.428 . S
H349 C345 0.930 . S
H350 C347 0.929 . S
S351 N352 1.613 . S
S351 N353 1.610 . S
N352 S351 1.613 . S
N352 C355 1.350 . S
N353 S351 1.610 . S
N353 C354 1.351 . S
C354 C348 1.428 . S
C354 N353 1.351 . S
C354 C355 1.434 . S
C355 C346 1.429 . S
C355 N352 1.350 . S
C355 C354 1.434 . S
C356 C357 1.369 . S
C356 C358 1.419 . S
C356 H360 0.930 . S
C357 C356 1.369 . S
C357 C366 1.429 . S
C358 C356 1.419 . S
C358 C359 1.363 . S
C358 H361 0.929 . S
C359 C358 1.363 . S
C359 C365 1.428 . S
H360 C356 0.930 . S
H361 C358 0.929 . S
S362 N363 1.613 . S
S362 N364 1.610 . S
N363 S362 1.613 . S
N363 C366 1.350 . S
N364 S362 1.610 . S
N364 C365 1.351 . S
C365 C359 1.428 . S
C365 N364 1.351 . S
C365 C366 1.434 . S
C366 C357 1.429 . S
C366 N363 1.350 . S
C366 C365 1.434 . S
C367 C368 1.369 . S
C367 C369 1.419 . S
C367 H371 0.930 . S
C368 C367 1.369 . S
C368 C377 1.429 . S
C369 C367 1.419 . S
C369 C370 1.363 . S
C369 H372 0.929 . S
C370 C369 1.363 . S
C370 C376 1.428 . S
H371 C367 0.930 . S
H372 C369 0.929 . S
S373 N374 1.613 . S
S373 N375 1.610 . S
N374 S373 1.613 . S
N374 C377 1.350 . S
N375 S373 1.610 . S
N375 C376 1.351 . S
C376 C370 1.428 . S
C376 N375 1.351 . S
C376 C377 1.434 . S
C377 C368 1.429 . S
C377 N374 1.350 . S
C377 C376 1.434 . S
C378 C379 1.369 . S
C378 C380 1.419 . S
C378 H382 0.930 . S
C379 C378 1.369 . S
C379 C388 1.429 . S
C380 C378 1.419 . S
C380 C381 1.363 . S
C380 H383 0.929 . S
C381 C380 1.363 . S
C381 C387 1.428 . S
H382 C378 0.930 . S
H383 C380 0.929 . S
S384 N385 1.613 . S
S384 N386 1.610 . S
N385 S384 1.613 . S
N385 C388 1.350 . S
N386 S384 1.610 . S
N386 C387 1.351 . S
C387 C381 1.428 . S
C387 N386 1.351 . S
C387 C388 1.434 . S
C388 C379 1.429 . S
C388 N385 1.350 . S
C388 C387 1.434 . S
C389 C390 1.369 . S
C389 C391 1.419 . S
C389 H393 0.930 . S
C390 C389 1.369 . S
C390 C399 1.429 . S
C391 C389 1.419 . S
C391 C392 1.363 . S
C391 H394 0.929 . S
C392 C391 1.363 . S
C392 C398 1.428 . S
H393 C389 0.930 . S
H394 C391 0.929 . S
S395 N396 1.613 . S
S395 N397 1.610 . S
N396 S395 1.613 . S
N396 C399 1.350 . S
N397 S395 1.610 . S
N397 C398 1.351 . S
C398 C392 1.428 . S
C398 N397 1.351 . S
C398 C399 1.434 . S
C399 C390 1.429 . S
C399 N396 1.350 . S
C399 C398 1.434 . S
C400 C401 1.369 . S
C400 C402 1.419 1_556 S
C400 H404 0.930 . S
C401 C400 1.369 . S
C401 C410 1.429 . S
C402 C400 1.419 1_554 S
C402 C403 1.363 . S
C402 H405 0.929 . S
C403 C402 1.363 . S
C403 C409 1.428 . S
H404 C400 0.930 . S
H405 C402 0.929 . S
S406 N407 1.616 1_554 S
S406 N408 1.608 . S
N407 S406 1.616 1_556 S
N407 C410 1.350 . S
N408 S406 1.608 . S
N408 C409 1.351 . S
C409 C403 1.428 . S
C409 N408 1.351 . S
C409 C410 1.434 1_554 S
C410 C401 1.429 . S
C410 N407 1.350 . S
C410 C409 1.434 1_556 S
C411 C412 1.369 . S
C411 C413 1.419 . S
C411 H415 0.930 . S
C412 C411 1.369 . S
C412 C421 1.429 . S
C413 C411 1.419 . S
C413 C414 1.363 . S
C413 H416 0.929 . S
C414 C413 1.363 . S
C414 C420 1.428 . S
H415 C411 0.930 . S
H416 C413 0.929 . S
S417 N418 1.613 . S
S417 N419 1.610 . S
N418 S417 1.613 . S
N418 C421 1.350 . S
N419 S417 1.610 . S
N419 C420 1.351 . S
C420 C414 1.428 . S
C420 N419 1.351 . S
C420 C421 1.434 . S
C421 C412 1.429 . S
C421 N418 1.350 . S
C421 C420 1.434 . S
C422 C423 1.369 . S
C422 C424 1.419 1_554 S
C422 H426 0.930 . S
C423 C422 1.369 . S
C423 C432 1.429 . S
C424 C422 1.419 1_556 S
C424 C425 1.363 . S
C424 H427 0.929 . S
C425 C424 1.363 . S
C425 C431 1.428 . S
H426 C422 0.930 . S
H427 C424 0.929 . S
S428 N429 1.616 1_556 S
S428 N430 1.608 . S
N429 S428 1.616 1_554 S
N429 C432 1.350 . S
N430 S428 1.608 . S
N430 C431 1.351 . S
C431 C425 1.428 . S
C431 N430 1.351 . S
C431 C432 1.434 1_556 S
C432 C423 1.429 . S
C432 N429 1.350 . S
C432 C431 1.434 1_554 S
C433 C434 1.369 . S
C433 C435 1.419 . S
C433 H437 0.930 . S
C434 C433 1.369 . S
C434 C443 1.429 . S
C435 C433 1.419 . S
C435 C436 1.363 . S
C435 H438 0.929 . S
C436 C435 1.363 . S
C436 C442 1.428 . S
H437 C433 0.930 . S
H438 C435 0.929 . S
S439 N440 1.613 . S
S439 N441 1.610 . S
N440 S439 1.613 . S
N440 C443 1.350 . S
N441 S439 1.610 . S
N441 C442 1.351 . S
C442 C436 1.428 . S
C442 N441 1.351 . S
C442 C443 1.434 . S
C443 C434 1.429 . S
C443 N440 1.350 . S
C443 C442 1.434 . S
C444 C445 1.369 . S
C444 C446 1.419 . S
C444 H448 0.930 . S
C445 C444 1.369 . S
C445 C454 1.429 . S
C446 C444 1.419 . S
C446 C447 1.363 . S
C446 H449 0.929 . S
C447 C446 1.363 . S
C447 C453 1.428 . S
H448 C444 0.930 . S
H449 C446 0.929 . S
S450 N451 1.613 . S
S450 N452 1.610 . S
N451 S450 1.613 . S
N451 C454 1.350 . S
N452 S450 1.610 . S
N452 C453 1.351 . S
C453 C447 1.428 . S
C453 N452 1.351 . S
C453 C454 1.434 . S
C454 C445 1.429 . S
C454 N451 1.350 . S
C454 C453 1.434 . S
C455 C456 1.369 . S
C455 C457 1.419 1_556 S
C455 H459 0.930 . S
C456 C455 1.369 . S
C456 C465 1.429 . S
C457 C455 1.419 1_554 S
C457 C458 1.363 . S
C457 H460 0.929 . S
C458 C457 1.363 . S
C458 C464 1.428 . S
H459 C455 0.930 . S
H460 C457 0.929 . S
S461 N462 1.616 1_554 S
S461 N463 1.608 . S
N462 S461 1.616 1_556 S
N462 C465 1.350 . S
N463 S461 1.608 . S
N463 C464 1.351 . S
C464 C458 1.428 . S
C464 N463 1.351 . S
C464 C465 1.434 1_554 S
C465 C456 1.429 . S
C465 N462 1.350 . S
C465 C464 1.434 1_556 S
C466 C467 1.369 . S
C466 C468 1.419 . S
C466 H470 0.930 . S
C467 C466 1.369 . S
C467 C476 1.429 . S
C468 C466 1.419 . S
C468 C469 1.363 . S
C468 H471 0.929 . S
C469 C468 1.363 . S
C469 C475 1.428 . S
H470 C466 0.930 . S
H471 C468 0.929 . S
S472 N473 1.613 . S
S472 N474 1.610 . S
N473 S472 1.613 . S
N473 C476 1.350 . S
N474 S472 1.610 . S
N474 C475 1.351 . S
C475 C469 1.428 . S
C475 N474 1.351 . S
C475 C476 1.434 . S
C476 C467 1.429 . S
C476 N473 1.350 . S
C476 C475 1.434 . S
C477 C478 1.369 . S
C477 C479 1.419 1_554 S
C477 H481 0.930 . S
C478 C477 1.369 . S
C478 C487 1.429 . S
C479 C477 1.419 1_556 S
C479 C480 1.363 . S
C479 H482 0.929 . S
C480 C479 1.363 . S
C480 C486 1.428 . S
H481 C477 0.930 . S
H482 C479 0.929 . S
S483 N484 1.616 1_556 S
S483 N485 1.608 . S
N484 S483 1.616 1_554 S
N484 C487 1.350 . S
N485 S483 1.608 . S
N485 C486 1.351 . S
C486 C480 1.428 . S
C486 N485 1.351 . S
C486 C487 1.434 1_556 S
C487 C478 1.429 . S
C487 N484 1.350 . S
C487 C486 1.434 1_554 S
C488 C489 1.369 . S
C488 C490 1.419 . S
C488 H492 0.930 . S
C489 C488 1.369 . S
C489 C498 1.429 . S
C490 C488 1.419 . S
C490 C491 1.363 . S
C490 H493 0.929 . S
C491 C490 1.363 . S
C491 C497 1.428 . S
H492 C488 0.930 . S
H493 C490 0.929 . S
S494 N495 1.613 . S
S494 N496 1.610 . S
N495 S494 1.613 . S
N495 C498 1.350 . S
N496 S494 1.610 . S
N496 C497 1.351 . S
C497 C491 1.428 . S
C497 N496 1.351 . S
C497 C498 1.434 . S
C498 C489 1.429 . S
C498 N495 1.350 . S
C498 C497 1.434 . S
C499 C500 1.369 . S
C499 C501 1.419 . S
C499 H503 0.930 . S
C500 C499 1.369 . S
C500 C509 1.429 . S
C501 C499 1.419 . S
C501 C502 1.363 . S
C501 H504 0.929 . S
C502 C501 1.363 . S
C502 C508 1.428 . S
H503 C499 0.930 . S
H504 C501 0.929 . S
S505 N506 1.613 . S
S505 N507 1.610 . S
N506 S505 1.613 . S
N506 C509 1.350 . S
N507 S505 1.610 . S
N507 C508 1.351 . S
C508 C502 1.428 . S
C508 N507 1.351 . S
C508 C509 1.434 . S
C509 C500 1.429 . S
C509 N506 1.350 . S
C509 C508 1.434 . S
C510 C511 1.369 . S
C510 C512 1.419 . S
C510 H514 0.930 . S
C511 C510 1.369 . S
C511 C520 1.429 . S
C512 C510 1.419 . S
C512 C513 1.363 . S
C512 H515 0.929 . S
C513 C512 1.363 . S
C513 C519 1.428 . S
H514 C510 0.930 . S
H515 C512 0.929 . S
S516 N517 1.613 . S
S516 N518 1.610 . S
N517 S516 1.613 . S
N517 C520 1.350 . S
N518 S516 1.610 . S
N518 C519 1.351 . S
C519 C513 1.428 . S
C519 N518 1.351 . S
C519 C520 1.434 . S
C520 C511 1.429 . S
C520 N517 1.350 . S
C520 C519 1.434 . S
C521 C522 1.369 . S
C521 C523 1.419 . S
C521 H525 0.930 . S
C522 C521 1.369 . S
C522 C531 1.429 . S
C523 C521 1.419 . S
C523 C524 1.363 . S
C523 H526 0.929 . S
C524 C523 1.363 . S
C524 C530 1.428 . S
H525 C521 0.930 . S
H526 C523 0.929 . S
S527 N528 1.613 . S
S527 N529 1.610 . S
N528 S527 1.613 . S
N528 C531 1.350 . S
N529 S527 1.610 . S
N529 C530 1.351 . S
C530 C524 1.428 . S
C530 N529 1.351 . S
C530 C531 1.434 . S
C531 C522 1.429 . S
C531 N528 1.350 . S
C531 C530 1.434 . S
C532 C533 1.369 . S
C532 C534 1.419 . S
C532 H536 0.930 . S
C533 C532 1.369 . S
C533 C542 1.429 . S
C534 C532 1.419 . S
C534 C535 1.363 . S
C534 H537 0.929 . S
C535 C534 1.363 . S
C535 C541 1.428 . S
H536 C532 0.930 . S
H537 C534 0.929 . S
S538 N539 1.613 . S
S538 N540 1.610 . S
N539 S538 1.613 . S
N539 C542 1.350 . S
N540 S538 1.610 . S
N540 C541 1.351 . S
C541 C535 1.428 . S
C541 N540 1.351 . S
C541 C542 1.434 . S
C542 C533 1.429 . S
C542 N539 1.350 . S
C542 C541 1.434 . S
C543 C544 1.369 . S
C543 C545 1.419 . S
C543 H547 0.930 . S
C544 C543 1.369 . S
C544 C553 1.429 . S
C545 C543 1.419 . S
C545 C546 1.363 . S
C545 H548 0.929 . S
C546 C545 1.363 . S
C546 C552 1.428 . S
H547 C543 0.930 . S
H548 C545 0.929 . S
S549 N550 1.613 . S
S549 N551 1.610 . S
N550 S549 1.613 . S
N550 C553 1.350 . S
N551 S549 1.610 . S
N551 C552 1.351 . S
C552 C546 1.428 . S
C552 N551 1.351 . S
C552 C553 1.434 . S
C553 C544 1.429 . S
C553 N550 1.350 . S
C553 C552 1.434 . S
C554 C555 1.369 . S
C554 C556 1.419 . S
C554 H558 0.930 . S
C555 C554 1.369 . S
C555 C564 1.429 . S
C556 C554 1.419 . S
C556 C557 1.363 . S
C556 H559 0.929 . S
C557 C556 1.363 . S
C557 C563 1.428 . S
H558 C554 0.930 . S
H559 C556 0.929 . S
S560 N561 1.613 . S
S560 N562 1.610 . S
N561 S560 1.613 . S
N561 C564 1.350 . S
N562 S560 1.610 . S
N562 C563 1.351 . S
C563 C557 1.428 . S
C563 N562 1.351 . S
C563 C564 1.434 . S
C564 C555 1.429 . S
C564 N561 1.350 . S
C564 C563 1.434 . S
C565 C566 1.369 . S
C565 C567 1.419 . S
C565 H569 0.930 . S
C566 C565 1.369 . S
C566 C575 1.429 . S
C567 C565 1.419 . S
C567 C568 1.363 . S
C567 H570 0.929 . S
C568 C567 1.363 . S
C568 C574 1.428 . S
H569 C565 0.930 . S
H570 C567 0.929 . S
S571 N572 1.613 . S
S571 N573 1.610 . S
N572 S571 1.613 . S
N572 C575 1.350 . S
N573 S571 1.610 . S
N573 C574 1.351 . S
C574 C568 1.428 . S
C574 N573 1.351 . S
C574 C575 1.434 . S
C575 C566 1.429 . S
C575 N572 1.350 . S
C575 C574 1.434 . S
C225 C5 1.408 . S
C227 C33 1.414 . S
C236 C47 1.412 . S
C238 C19 1.410 . S
C247 C61 1.411 . S
C249 C89 1.411 . S
C258 C103 1.413 . S
C260 C75 1.410 . S
C269 C117 1.413 . S
C271 C145 1.410 . S
C280 C159 1.413 . S
C282 C131 1.410 . S
C291 C173 1.409 . S
C293 C201 1.413 . S
C302 C215 1.414 . S
C304 C187 1.409 . S
C313 C56 1.528 . S
C315 C0 1.537 . S
C324 C14 1.528 . S
C326 C70 1.534 . S
C335 C28 1.536 . S
C337 C84 1.534 . S
C346 C98 1.528 . S
C348 C42 1.535 . S
C357 C112 1.531 . S
C359 C168 1.537 . S
C368 C126 1.537 . S
C370 C182 1.529 . S
C379 C140 1.528 . S
C381 C196 1.536 . S
C390 C154 1.538 . S
C392 C210 1.532 . S
C401 C149 1.339 . S
C403 C9 1.338 . S
C412 C163 1.332 . S
C414 C23 1.333 . S
C423 C37 1.331 . S
C425 C121 1.332 . S
C434 C51 1.332 . S
C436 C135 1.333 . S
C445 C65 1.339 . S
C447 C205 1.338 . S
C456 C79 1.337 . S
C458 C219 1.336 . S
C467 C93 1.330 . S
C469 C177 1.331 . S
C478 C191 1.333 . S
C480 C107 1.333 . S
C489 C11 1.411 . S
C491 C221 1.411 . S
C500 C179 1.412 . S
C502 C25 1.412 . S
C511 C39 1.411 . S
C513 C193 1.411 . S
C522 C207 1.411 . S
C524 C53 1.411 . S
C533 C137 1.411 . S
C535 C67 1.411 . S
C544 C81 1.412 . S
C546 C151 1.412 . S
C555 C165 1.412 . S
C557 C95 1.412 . S
C566 C123 1.412 . S
C568 C109 1.412 . S
