# Generated by pormake.
# Topology umn, (4)-cn, num edge types: 1
# Building blocks:
#     Node 0, Type 0, BuildingBlock: CEKHIL_clean_sbu_0, # of connection points: 4
#     Node 1, Type 0, BuildingBlock: CEKHIL_clean_sbu_0, # of connection points: 4
#     Node 2, Type 0, BuildingBlock: CEKHIL_clean_sbu_0, # of connection points: 4
#     Node 3, Type 0, BuildingBlock: CEKHIL_clean_sbu_0, # of connection points: 4
#     Node 4, Type 0, BuildingBlock: CEKHIL_clean_sbu_0, # of connection points: 4
#     Node 5, Type 0, BuildingBlock: CEKHIL_clean_sbu_0, # of connection points: 4
#     Node 6, Type 0, BuildingBlock: CEKHIL_clean_sbu_0, # of connection points: 4
#     Node 7, Type 0, BuildingBlock: CEKHIL_clean_sbu_0, # of connection points: 4
#     Node 8, Type 0, BuildingBlock: CEKHIL_clean_sbu_0, # of connection points: 4
#     Node 9, Type 0, BuildingBlock: CEKHIL_clean_sbu_0, # of connection points: 4
#     Node 10, Type 0, BuildingBlock: CEKHIL_clean_sbu_0, # of connection points: 4
#     Node 11, Type 0, BuildingBlock: CEKHIL_clean_sbu_0, # of connection points: 4
#     Node 12, Type 0, BuildingBlock: CEKHIL_clean_sbu_0, # of connection points: 4
#     Node 13, Type 0, BuildingBlock: CEKHIL_clean_sbu_0, # of connection points: 4
#     Node 14, Type 0, BuildingBlock: CEKHIL_clean_sbu_0, # of connection points: 4
#     Node 15, Type 0, BuildingBlock: CEKHIL_clean_sbu_0, # of connection points: 4
#     Node 16, Type 0, BuildingBlock: CEKHIL_clean_sbu_0, # of connection points: 4
#     Node 17, Type 0, BuildingBlock: CEKHIL_clean_sbu_0, # of connection points: 4
#     Node 18, Type 0, BuildingBlock: CEKHIL_clean_sbu_0, # of connection points: 4
#     Node 19, Type 0, BuildingBlock: CEKHIL_clean_sbu_0, # of connection points: 4
#     Node 20, Type 0, BuildingBlock: CEKHIL_clean_sbu_0, # of connection points: 4
#     Node 21, Type 0, BuildingBlock: CEKHIL_clean_sbu_0, # of connection points: 4
#     Node 22, Type 0, BuildingBlock: CEKHIL_clean_sbu_0, # of connection points: 4
#     Node 23, Type 0, BuildingBlock: CEKHIL_clean_sbu_0, # of connection points: 4
#     Node 24, Type 0, BuildingBlock: CEKHIL_clean_sbu_0, # of connection points: 4
#     Node 25, Type 0, BuildingBlock: CEKHIL_clean_sbu_0, # of connection points: 4
#     Node 26, Type 0, BuildingBlock: CEKHIL_clean_sbu_0, # of connection points: 4
#     Node 27, Type 0, BuildingBlock: CEKHIL_clean_sbu_0, # of connection points: 4
#     Node 28, Type 0, BuildingBlock: CEKHIL_clean_sbu_0, # of connection points: 4
#     Node 29, Type 0, BuildingBlock: CEKHIL_clean_sbu_0, # of connection points: 4
#     Node 30, Type 0, BuildingBlock: CEKHIL_clean_sbu_0, # of connection points: 4
#     Node 31, Type 0, BuildingBlock: CEKHIL_clean_sbu_0, # of connection points: 4
#     Node 32, Type 0, BuildingBlock: CEKHIL_clean_sbu_0, # of connection points: 4
#     Node 33, Type 0, BuildingBlock: CEKHIL_clean_sbu_0, # of connection points: 4
#     Node 34, Type 0, BuildingBlock: CEKHIL_clean_sbu_0, # of connection points: 4
#     Node 35, Type 0, BuildingBlock: CEKHIL_clean_sbu_0, # of connection points: 4
#     Edge 36, Type (0, 0), BuildingBlock: KIFKEQ_clean_linker_1, # of connection points: 2
#     Edge 37, Type (0, 0), BuildingBlock: KIFKEQ_clean_linker_1, # of connection points: 2
#     Edge 38, Type (0, 0), BuildingBlock: KIFKEQ_clean_linker_1, # of connection points: 2
#     Edge 39, Type (0, 0), BuildingBlock: KIFKEQ_clean_linker_1, # of connection points: 2
#     Edge 40, Type (0, 0), BuildingBlock: KIFKEQ_clean_linker_1, # of connection points: 2
#     Edge 41, Type (0, 0), BuildingBlock: KIFKEQ_clean_linker_1, # of connection points: 2
#     Edge 42, Type (0, 0), BuildingBlock: KIFKEQ_clean_linker_1, # of connection points: 2
#     Edge 43, Type (0, 0), BuildingBlock: KIFKEQ_clean_linker_1, # of connection points: 2
#     Edge 44, Type (0, 0), BuildingBlock: KIFKEQ_clean_linker_1, # of connection points: 2
#     Edge 45, Type (0, 0), BuildingBlock: KIFKEQ_clean_linker_1, # of connection points: 2
#     Edge 46, Type (0, 0), BuildingBlock: KIFKEQ_clean_linker_1, # of connection points: 2
#     Edge 47, Type (0, 0), BuildingBlock: KIFKEQ_clean_linker_1, # of connection points: 2
#     Edge 48, Type (0, 0), BuildingBlock: KIFKEQ_clean_linker_1, # of connection points: 2
#     Edge 49, Type (0, 0), BuildingBlock: KIFKEQ_clean_linker_1, # of connection points: 2
#     Edge 50, Type (0, 0), BuildingBlock: KIFKEQ_clean_linker_1, # of connection points: 2
#     Edge 51, Type (0, 0), BuildingBlock: KIFKEQ_clean_linker_1, # of connection points: 2
#     Edge 52, Type (0, 0), BuildingBlock: KIFKEQ_clean_linker_1, # of connection points: 2
#     Edge 53, Type (0, 0), BuildingBlock: KIFKEQ_clean_linker_1, # of connection points: 2
#     Edge 54, Type (0, 0), BuildingBlock: KIFKEQ_clean_linker_1, # of connection points: 2
#     Edge 55, Type (0, 0), BuildingBlock: KIFKEQ_clean_linker_1, # of connection points: 2
#     Edge 56, Type (0, 0), BuildingBlock: KIFKEQ_clean_linker_1, # of connection points: 2
#     Edge 57, Type (0, 0), BuildingBlock: KIFKEQ_clean_linker_1, # of connection points: 2
#     Edge 58, Type (0, 0), BuildingBlock: KIFKEQ_clean_linker_1, # of connection points: 2
#     Edge 59, Type (0, 0), BuildingBlock: KIFKEQ_clean_linker_1, # of connection points: 2
#     Edge 60, Type (0, 0), BuildingBlock: KIFKEQ_clean_linker_1, # of connection points: 2
#     Edge 61, Type (0, 0), BuildingBlock: KIFKEQ_clean_linker_1, # of connection points: 2
#     Edge 62, Type (0, 0), BuildingBlock: KIFKEQ_clean_linker_1, # of connection points: 2
#     Edge 63, Type (0, 0), BuildingBlock: KIFKEQ_clean_linker_1, # of connection points: 2
#     Edge 64, Type (0, 0), BuildingBlock: KIFKEQ_clean_linker_1, # of connection points: 2
#     Edge 65, Type (0, 0), BuildingBlock: KIFKEQ_clean_linker_1, # of connection points: 2
#     Edge 66, Type (0, 0), BuildingBlock: KIFKEQ_clean_linker_1, # of connection points: 2
#     Edge 67, Type (0, 0), BuildingBlock: KIFKEQ_clean_linker_1, # of connection points: 2
#     Edge 68, Type (0, 0), BuildingBlock: KIFKEQ_clean_linker_1, # of connection points: 2
#     Edge 69, Type (0, 0), BuildingBlock: KIFKEQ_clean_linker_1, # of connection points: 2
#     Edge 70, Type (0, 0), BuildingBlock: KIFKEQ_clean_linker_1, # of connection points: 2
#     Edge 71, Type (0, 0), BuildingBlock: KIFKEQ_clean_linker_1, # of connection points: 2
#     Edge 72, Type (0, 0), BuildingBlock: KIFKEQ_clean_linker_1, # of connection points: 2
#     Edge 73, Type (0, 0), BuildingBlock: KIFKEQ_clean_linker_1, # of connection points: 2
#     Edge 74, Type (0, 0), BuildingBlock: KIFKEQ_clean_linker_1, # of connection points: 2
#     Edge 75, Type (0, 0), BuildingBlock: KIFKEQ_clean_linker_1, # of connection points: 2
#     Edge 76, Type (0, 0), BuildingBlock: KIFKEQ_clean_linker_1, # of connection points: 2
#     Edge 77, Type (0, 0), BuildingBlock: KIFKEQ_clean_linker_1, # of connection points: 2
#     Edge 78, Type (0, 0), BuildingBlock: KIFKEQ_clean_linker_1, # of connection points: 2
#     Edge 79, Type (0, 0), BuildingBlock: KIFKEQ_clean_linker_1, # of connection points: 2
#     Edge 80, Type (0, 0), BuildingBlock: KIFKEQ_clean_linker_1, # of connection points: 2
#     Edge 81, Type (0, 0), BuildingBlock: KIFKEQ_clean_linker_1, # of connection points: 2
#     Edge 82, Type (0, 0), BuildingBlock: KIFKEQ_clean_linker_1, # of connection points: 2
#     Edge 83, Type (0, 0), BuildingBlock: KIFKEQ_clean_linker_1, # of connection points: 2
#     Edge 84, Type (0, 0), BuildingBlock: KIFKEQ_clean_linker_1, # of connection points: 2
#     Edge 85, Type (0, 0), BuildingBlock: KIFKEQ_clean_linker_1, # of connection points: 2
#     Edge 86, Type (0, 0), BuildingBlock: KIFKEQ_clean_linker_1, # of connection points: 2
#     Edge 87, Type (0, 0), BuildingBlock: KIFKEQ_clean_linker_1, # of connection points: 2
#     Edge 88, Type (0, 0), BuildingBlock: KIFKEQ_clean_linker_1, # of connection points: 2
#     Edge 89, Type (0, 0), BuildingBlock: KIFKEQ_clean_linker_1, # of connection points: 2
#     Edge 90, Type (0, 0), BuildingBlock: KIFKEQ_clean_linker_1, # of connection points: 2
#     Edge 91, Type (0, 0), BuildingBlock: KIFKEQ_clean_linker_1, # of connection points: 2
#     Edge 92, Type (0, 0), BuildingBlock: KIFKEQ_clean_linker_1, # of connection points: 2
#     Edge 93, Type (0, 0), BuildingBlock: KIFKEQ_clean_linker_1, # of connection points: 2
#     Edge 94, Type (0, 0), BuildingBlock: KIFKEQ_clean_linker_1, # of connection points: 2
#     Edge 95, Type (0, 0), BuildingBlock: KIFKEQ_clean_linker_1, # of connection points: 2
#     Edge 96, Type (0, 0), BuildingBlock: KIFKEQ_clean_linker_1, # of connection points: 2
#     Edge 97, Type (0, 0), BuildingBlock: KIFKEQ_clean_linker_1, # of connection points: 2
#     Edge 98, Type (0, 0), BuildingBlock: KIFKEQ_clean_linker_1, # of connection points: 2
#     Edge 99, Type (0, 0), BuildingBlock: KIFKEQ_clean_linker_1, # of connection points: 2
#     Edge 100, Type (0, 0), BuildingBlock: KIFKEQ_clean_linker_1, # of connection points: 2
#     Edge 101, Type (0, 0), BuildingBlock: KIFKEQ_clean_linker_1, # of connection points: 2
#     Edge 102, Type (0, 0), BuildingBlock: KIFKEQ_clean_linker_1, # of connection points: 2
#     Edge 103, Type (0, 0), BuildingBlock: KIFKEQ_clean_linker_1, # of connection points: 2
#     Edge 104, Type (0, 0), BuildingBlock: KIFKEQ_clean_linker_1, # of connection points: 2
#     Edge 105, Type (0, 0), BuildingBlock: KIFKEQ_clean_linker_1, # of connection points: 2
#     Edge 106, Type (0, 0), BuildingBlock: KIFKEQ_clean_linker_1, # of connection points: 2
#     Edge 107, Type (0, 0), BuildingBlock: KIFKEQ_clean_linker_1, # of connection points: 2
# Relax obj value: 0.180
# Max RMSD: 0.212
# Mean RMSD: 0.212
data_MOF--net-umn--node1-CEKHIL_clean_sbu_0--edge1-KIFKEQ_clean_linker_1
_symmetry_space_group_name_H-M    P1
_symmetry_Int_Tables_number       1
_symmetry_cell_setting            triclinic
loop_
_symmetry_equiv_pos_as_xyz
'x, y, z'
_cell_length_a     83.187246
_cell_length_b     83.228394
_cell_length_c     36.512638
_cell_angle_alpha  89.95517
_cell_angle_beta   90.016598
_cell_angle_gamma 119.97078
loop_
_atom_site_label
_atom_site_type_symbol
_atom_site_fract_x
_atom_site_fract_y
_atom_site_fract_z
_atom_type_partial_charge
Co0 Co 0.36445 0.10196 0.23671 0.0
O1 O 0.37012 0.12701 0.22881 0.0
O2 O 0.342 0.10218 0.22496 0.0
C3 C 0.38711 0.1028 0.2011 0.0
O4 O 0.35357 0.07425 0.24242 0.0
Co5 Co 0.39273 0.09575 0.27959 0.0
O6 O 0.3744 0.06926 0.27224 0.0
C7 C 0.36595 0.1017 0.3213 0.0
C8 C 0.35255 0.12007 0.22221 0.0
C9 C 0.35865 0.06348 0.25716 0.0
O10 O 0.35951 0.10351 0.29053 0.0
O11 O 0.38014 0.09956 0.32335 0.0
O12 O 0.37183 0.1005 0.18704 0.0
O13 O 0.3895 0.10713 0.23569 0.0
Co14 Co 0.8862 0.25917 0.23146 0.0
O15 O 0.86021 0.24125 0.22835 0.0
O16 O 0.88299 0.23468 0.22815 0.0
C17 C 0.88645 0.27905 0.18855 0.0
O18 O 0.91434 0.27379 0.23281 0.0
Co19 Co 0.89926 0.29841 0.25979 0.0
O20 O 0.9228 0.30389 0.23598 0.0
C21 C 0.89256 0.26893 0.31306 0.0
C22 C 0.86531 0.22887 0.22616 0.0
C23 C 0.92671 0.29106 0.23151 0.0
O24 O 0.88591 0.25712 0.28674 0.0
O25 O 0.89846 0.28626 0.30829 0.0
O26 O 0.88682 0.2642 0.17946 0.0
O27 O 0.88363 0.28039 0.22319 0.0
Co28 Co 0.73233 0.6287 0.22666 0.0
O29 O 0.75219 0.62348 0.22087 0.0
O30 O 0.75544 0.65162 0.22224 0.0
C31 C 0.71302 0.60844 0.18393 0.0
O32 O 0.71533 0.63949 0.23114 0.0
Co33 Co 0.69467 0.59918 0.25675 0.0
O34 O 0.68619 0.61606 0.23857 0.0
C35 C 0.7241 0.62319 0.30899 0.0
C36 C 0.76301 0.64132 0.21852 0.0
C37 C 0.69777 0.63316 0.23336 0.0
O38 O 0.73534 0.63004 0.28178 0.0
O39 O 0.70717 0.61037 0.30507 0.0
O40 O 0.72667 0.62457 0.17496 0.0
O41 O 0.71266 0.60393 0.21822 0.0
Co42 Co 0.09931 0.363 0.29366 0.0
O43 O 0.12516 0.37078 0.29775 0.0
O44 O 0.10216 0.34157 0.29951 0.0
C45 C 0.09932 0.38349 0.3347 0.0
O46 O 0.07118 0.34989 0.29172 0.0
Co47 Co 0.08708 0.38915 0.2617 0.0
O48 O 0.06348 0.37204 0.28646 0.0
C49 C 0.09375 0.36536 0.21121 0.0
C50 C 0.11987 0.35333 0.30167 0.0
C51 C 0.05914 0.35527 0.29217 0.0
O52 O 0.0999 0.36033 0.23864 0.0
O53 O 0.08811 0.37709 0.21432 0.0
O54 O 0.09855 0.36825 0.34509 0.0
O55 O 0.1023 0.38712 0.29985 0.0
Co56 Co 0.62741 0.73616 0.29069 0.0
O57 O 0.62004 0.75455 0.29392 0.0
O58 O 0.64909 0.76022 0.29654 0.0
C59 C 0.60657 0.71603 0.33161 0.0
O60 O 0.64007 0.7207 0.28981 0.0
Co61 Co 0.60106 0.69793 0.25873 0.0
O62 O 0.61738 0.69105 0.28552 0.0
C63 C 0.62543 0.72811 0.20833 0.0
C64 C 0.63754 0.76645 0.29816 0.0
C65 C 0.63423 0.70322 0.29143 0.0
O66 O 0.63044 0.73928 0.23572 0.0
O67 O 0.61352 0.71081 0.21138 0.0
O68 O 0.62185 0.73042 0.34205 0.0
O69 O 0.6031 0.71529 0.29664 0.0
Co70 Co 0.25984 0.8881 0.29636 0.0
O71 O 0.24115 0.86269 0.3039 0.0
O72 O 0.236 0.88639 0.30225 0.0
C73 C 0.2806 0.88873 0.33762 0.0
O74 O 0.27555 0.91599 0.29049 0.0
Co75 Co 0.29722 0.89676 0.26261 0.0
O76 O 0.30349 0.92281 0.26806 0.0
C77 C 0.26643 0.89032 0.21324 0.0
C78 C 0.22951 0.8687 0.30682 0.0
C79 C 0.29193 0.92756 0.27892 0.0
O80 O 0.25574 0.88585 0.24138 0.0
O81 O 0.2835 0.89468 0.21563 0.0
O82 O 0.26659 0.89038 0.34776 0.0
O83 O 0.28052 0.88438 0.30338 0.0
Co84 Co 0.62698 0.88955 0.80411 0.0
O85 O 0.62147 0.86438 0.80951 0.0
O86 O 0.6497 0.88911 0.81082 0.0
C87 C 0.60576 0.88838 0.84471 0.0
O88 O 0.63778 0.91735 0.80036 0.0
Co89 Co 0.59809 0.89735 0.76957 0.0
O90 O 0.61411 0.92246 0.78987 0.0
C91 C 0.62321 0.89207 0.7206 0.0
C92 C 0.63921 0.8712 0.81339 0.0
C93 C 0.6311 0.92825 0.79724 0.0
O94 O 0.6299 0.8886 0.7493 0.0
O95 O 0.60965 0.89525 0.72226 0.0
O96 O 0.62158 0.89054 0.85525 0.0
O97 O 0.60203 0.88444 0.81009 0.0
Co98 Co 0.10169 0.73253 0.79382 0.0
O99 O 0.12727 0.75113 0.79853 0.0
O100 O 0.10371 0.75654 0.79796 0.0
C101 C 0.10195 0.71286 0.83655 0.0
O102 O 0.07365 0.71681 0.79095 0.0
Co103 Co 0.09085 0.69404 0.76428 0.0
O104 O 0.06688 0.68717 0.78788 0.0
C105 C 0.09717 0.72366 0.71174 0.0
C106 C 0.12145 0.76293 0.8013 0.0
C107 C 0.06203 0.69933 0.79222 0.0
O108 O 0.10276 0.73516 0.73864 0.0
O109 O 0.09198 0.70646 0.71592 0.0
O110 O 0.10057 0.72716 0.8456 0.0
O111 O 0.10536 0.71194 0.80204 0.0
Co112 Co 0.2549 0.36375 0.80258 0.0
O113 O 0.23588 0.37007 0.80881 0.0
O114 O 0.23125 0.34139 0.80824 0.0
C115 C 0.27512 0.3842 0.84384 0.0
O116 O 0.27127 0.35222 0.79809 0.0
Co117 Co 0.29208 0.39228 0.76912 0.0
O118 O 0.30038 0.37563 0.78965 0.0
C119 C 0.26159 0.36821 0.71935 0.0
C120 C 0.22446 0.3524 0.81188 0.0
C121 C 0.28885 0.35861 0.79594 0.0
O122 O 0.25118 0.36159 0.74774 0.0
O123 O 0.27851 0.3813 0.7215 0.0
O124 O 0.26122 0.36844 0.85389 0.0
O125 O 0.27515 0.38832 0.80939 0.0
Co126 Co 0.88871 0.62689 0.73409 0.0
O127 O 0.86354 0.62171 0.72993 0.0
O128 O 0.88861 0.64959 0.72517 0.0
C129 C 0.88614 0.6043 0.69574 0.0
O130 O 0.91657 0.63757 0.73567 0.0
Co131 Co 0.89733 0.59856 0.76979 0.0
O132 O 0.9223 0.61457 0.74899 0.0
C133 C 0.8931 0.62498 0.81733 0.0
C134 C 0.87065 0.63934 0.72371 0.0
C135 C 0.92772 0.63122 0.73951 0.0
O136 O 0.88881 0.63111 0.78878 0.0
O137 O 0.89656 0.61161 0.81587 0.0
O138 O 0.88835 0.61985 0.68333 0.0
O139 O 0.88328 0.6018 0.73085 0.0
Co140 Co 0.36161 0.2581 0.73325 0.0
O141 O 0.36809 0.23914 0.7284 0.0
O142 O 0.33938 0.23445 0.72684 0.0
C143 C 0.3827 0.27835 0.69276 0.0
O144 O 0.34993 0.27438 0.73607 0.0
Co145 Co 0.38944 0.2952 0.76762 0.0
O146 O 0.37311 0.30349 0.74538 0.0
C147 C 0.36484 0.26463 0.81666 0.0
C148 C 0.35046 0.22769 0.7245 0.0
C149 C 0.35622 0.29193 0.73806 0.0
O150 O 0.35856 0.25435 0.78805 0.0
O151 O 0.37801 0.28153 0.815 0.0
O152 O 0.36711 0.26443 0.68207 0.0
O153 O 0.38628 0.27841 0.72754 0.0
Co154 Co 0.73243 0.10151 0.73218 0.0
O155 O 0.75149 0.12679 0.72567 0.0
O156 O 0.7556 0.10248 0.72155 0.0
C157 C 0.71108 0.10275 0.69553 0.0
O158 O 0.71588 0.07363 0.73595 0.0
Co159 Co 0.69669 0.09319 0.77227 0.0
O160 O 0.68744 0.06814 0.75152 0.0
C161 C 0.72896 0.09945 0.81642 0.0
C162 C 0.76251 0.12033 0.71901 0.0
C163 C 0.69846 0.0626 0.74112 0.0
O164 O 0.73806 0.1024 0.78634 0.0
O165 O 0.71224 0.09637 0.81723 0.0
O166 O 0.72435 0.10073 0.68208 0.0
O167 O 0.71228 0.10628 0.73047 0.0
Co168 Co 0.02669 0.43402 0.56174 0.0
O169 O 0.03068 0.45805 0.5493 0.0
O170 O 0.00303 0.43277 0.55493 0.0
C171 C 0.04707 0.43353 0.52103 0.0
O172 O 0.01765 0.40704 0.57402 0.0
Co173 Co 0.05908 0.43251 0.59845 0.0
O174 O 0.04184 0.40552 0.59785 0.0
C175 C 0.03348 0.43812 0.64506 0.0
C176 C 0.01278 0.45043 0.54773 0.0
C177 C 0.02488 0.398 0.58837 0.0
O178 O 0.02545 0.43886 0.61557 0.0
O179 O 0.04795 0.43641 0.64454 0.0
O180 O 0.0305 0.42951 0.51146 0.0
O181 O 0.0519 0.44024 0.55398 0.0
Co182 Co 0.55522 0.59388 0.56412 0.0
O183 O 0.5303 0.5756 0.55175 0.0
O184 O 0.55353 0.57001 0.55899 0.0
C185 C 0.55816 0.61543 0.52231 0.0
O186 O 0.58266 0.60931 0.57607 0.0
Co187 Co 0.56153 0.63004 0.59878 0.0
O188 O 0.58767 0.63621 0.60081 0.0
C189 C 0.55334 0.59854 0.64709 0.0
C190 C 0.53613 0.56378 0.55125 0.0
C191 C 0.59324 0.62512 0.59107 0.0
O192 O 0.55007 0.58862 0.61815 0.0
O193 O 0.55754 0.61558 0.6457 0.0
O194 O 0.56046 0.60164 0.51356 0.0
O195 O 0.55178 0.61465 0.55523 0.0
Co196 Co 0.39825 0.95921 0.57284 0.0
O197 O 0.41799 0.95388 0.56612 0.0
O198 O 0.42103 0.98192 0.56363 0.0
C199 C 0.37741 0.93718 0.53462 0.0
O200 O 0.3812 0.96995 0.57749 0.0
Co201 Co 0.36242 0.9302 0.61113 0.0
O202 O 0.35427 0.94845 0.60293 0.0
C203 C 0.39374 0.9568 0.65675 0.0
C204 C 0.4286 0.97157 0.56085 0.0
C205 C 0.36481 0.96454 0.58978 0.0
O206 O 0.40345 0.96305 0.62736 0.0
O207 O 0.37702 0.94323 0.6565 0.0
O208 O 0.39065 0.95277 0.52225 0.0
O209 O 0.37846 0.93415 0.56929 0.0
Co210 Co 0.76761 0.69647 0.62463 0.0
O211 O 0.79329 0.70332 0.62671 0.0
O212 O 0.76959 0.67451 0.62997 0.0
C213 C 0.7691 0.71753 0.66594 0.0
O214 O 0.73954 0.68426 0.62533 0.0
Co215 Co 0.75612 0.72352 0.59388 0.0
O216 O 0.73271 0.70704 0.6199 0.0
C217 C 0.76154 0.69934 0.54232 0.0
C218 C 0.78742 0.68576 0.63108 0.0
C219 C 0.72802 0.69027 0.62678 0.0
O220 O 0.76703 0.69346 0.56949 0.0
O221 O 0.75684 0.71176 0.54594 0.0
O222 O 0.76813 0.70218 0.67617 0.0
O223 O 0.77149 0.72091 0.63092 0.0
Co224 Co 0.29111 0.06557 0.63395 0.0
O225 O 0.28534 0.08477 0.64333 0.0
O226 O 0.31375 0.08864 0.64197 0.0
C227 C 0.27044 0.04425 0.67359 0.0
O228 O 0.30222 0.04905 0.62598 0.0
Co229 Co 0.26188 0.03041 0.59572 0.0
O230 O 0.28053 0.02248 0.59992 0.0
C231 C 0.28668 0.06223 0.5499 0.0
C232 C 0.30309 0.09575 0.64682 0.0
C233 C 0.29682 0.03294 0.61225 0.0
O234 O 0.29361 0.07122 0.57974 0.0
O235 O 0.27299 0.04558 0.5498 0.0
O236 O 0.28632 0.05767 0.68434 0.0
O237 O 0.2662 0.0454 0.63965 0.0
Co238 Co 0.92359 0.22316 0.62531 0.0
O239 O 0.90372 0.1979 0.62677 0.0
O240 O 0.90043 0.2227 0.63161 0.0
C241 C 0.94266 0.22034 0.66592 0.0
O242 O 0.94071 0.25104 0.62636 0.0
Co243 Co 0.96127 0.23248 0.59306 0.0
O244 O 0.96973 0.25644 0.61801 0.0
C245 C 0.93197 0.22895 0.54268 0.0
C246 C 0.89286 0.20474 0.63176 0.0
C247 C 0.95838 0.26194 0.62611 0.0
O248 O 0.92098 0.2242 0.57036 0.0
O249 O 0.9488 0.23254 0.54551 0.0
O250 O 0.92873 0.22202 0.67659 0.0
O251 O 0.9433 0.21787 0.63081 0.0
Co252 Co 0.29346 0.22349 0.1353 0.0
O253 O 0.28709 0.19811 0.1406 0.0
O254 O 0.31578 0.22215 0.14105 0.0
C255 C 0.27276 0.223 0.17639 0.0
O256 O 0.30504 0.25138 0.1318 0.0
Co257 Co 0.26525 0.23247 0.10153 0.0
O258 O 0.28171 0.25719 0.12305 0.0
C259 C 0.28967 0.22651 0.05197 0.0
C260 C 0.30477 0.20432 0.14383 0.0
C261 C 0.29867 0.26259 0.12983 0.0
O262 O 0.29606 0.22249 0.08044 0.0
O263 O 0.27653 0.23028 0.05392 0.0
O264 O 0.28842 0.22464 0.18661 0.0
O265 O 0.26883 0.21918 0.14179 0.0
Co266 Co 0.76583 0.06694 0.13318 0.0
O267 O 0.78975 0.08726 0.14499 0.0
O268 O 0.76419 0.08916 0.13966 0.0
C269 C 0.76598 0.04655 0.17442 0.0
O270 O 0.73886 0.04856 0.12159 0.0
Co271 Co 0.7648 0.03339 0.09694 0.0
O272 O 0.7377 0.02266 0.10012 0.0
C273 C 0.76973 0.06411 0.04976 0.0
C274 C 0.7819 0.09733 0.14649 0.0
C275 C 0.72991 0.03193 0.1089 0.0
O276 O 0.7704 0.07285 0.0792 0.0
O277 O 0.76824 0.04804 0.05043 0.0
O278 O 0.76163 0.0589 0.18359 0.0
O279 O 0.77262 0.04834 0.14138 0.0
Co280 Co 0.92498 0.70101 0.12764 0.0
O281 O 0.9062 0.70781 0.13261 0.0
O282 O 0.90109 0.67895 0.13234 0.0
C283 C 0.94497 0.72116 0.16965 0.0
O284 O 0.94082 0.68882 0.12466 0.0
Co285 Co 0.9633 0.72872 0.09687 0.0
O286 O 0.97041 0.71173 0.12017 0.0
C287 C 0.93336 0.70503 0.04528 0.0
C288 C 0.89453 0.69017 0.13551 0.0
C289 C 0.95834 0.69476 0.1252 0.0
O290 O 0.92204 0.69915 0.0725 0.0
O291 O 0.95056 0.71718 0.04894 0.0
O292 O 0.93069 0.70559 0.17931 0.0
O293 O 0.94559 0.72529 0.13508 0.0
Co294 Co 0.55488 0.96074 0.06699 0.0
O295 O 0.52991 0.95599 0.06302 0.0
O296 O 0.55518 0.98373 0.05841 0.0
C297 C 0.55228 0.93829 0.02825 0.0
O298 O 0.58261 0.97054 0.06858 0.0
Co299 Co 0.5614 0.93154 0.1045 0.0
O300 O 0.58641 0.94639 0.08291 0.0
C301 C 0.55757 0.95819 0.15107 0.0
C302 C 0.53717 0.97367 0.05735 0.0
C303 C 0.59285 0.96314 0.07271 0.0
O304 O 0.55506 0.96506 0.12154 0.0
O305 O 0.55952 0.94386 0.15084 0.0
O306 O 0.55459 0.95395 0.01631 0.0
O307 O 0.54887 0.93547 0.06325 0.0
Co308 Co 0.03076 0.59369 0.07006 0.0
O309 O 0.03655 0.57414 0.06653 0.0
O310 O 0.00819 0.57039 0.06459 0.0
C311 C 0.05174 0.61305 0.02849 0.0
O312 O 0.01949 0.61036 0.07169 0.0
Co313 Co 0.05908 0.63156 0.10118 0.0
O314 O 0.0428 0.63962 0.07807 0.0
C315 C 0.03433 0.60202 0.15244 0.0
C316 C 0.01882 0.5631 0.0627 0.0
C317 C 0.02581 0.62794 0.072 0.0
O318 O 0.0282 0.59083 0.12508 0.0
O319 O 0.04704 0.61904 0.14905 0.0
O320 O 0.03598 0.59912 0.01857 0.0
O321 O 0.05553 0.61365 0.06327 0.0
Co322 Co 0.3993 0.43572 0.06698 0.0
O323 O 0.41801 0.46112 0.06091 0.0
O324 O 0.42286 0.43721 0.05871 0.0
C325 C 0.37829 0.43611 0.0281 0.0
O326 O 0.3832 0.40781 0.07078 0.0
Co327 Co 0.36285 0.42653 0.10428 0.0
O328 O 0.35422 0.40196 0.08171 0.0
C329 C 0.39442 0.43302 0.1508 0.0
C330 C 0.42945 0.45501 0.05595 0.0
C331 C 0.36567 0.3966 0.07354 0.0
O332 O 0.40411 0.43688 0.12137 0.0
O333 O 0.37743 0.42911 0.15056 0.0
O334 O 0.3921 0.4345 0.01639 0.0
O335 O 0.37878 0.43988 0.06289 0.0
Co336 Co 0.70107 0.76992 0.90202 0.0
O337 O 0.70673 0.79448 0.88924 0.0
O338 O 0.67834 0.77078 0.89816 0.0
C339 C 0.71942 0.76742 0.85884 0.0
O340 O 0.69012 0.74264 0.91456 0.0
Co341 Co 0.73226 0.76474 0.93395 0.0
O342 O 0.71328 0.73828 0.93452 0.0
C343 C 0.70825 0.77122 0.98418 0.0
C344 C 0.68898 0.78814 0.88947 0.0
C345 C 0.69627 0.73231 0.9272 0.0
O346 O 0.70175 0.77543 0.95614 0.0
O347 O 0.72088 0.76677 0.98142 0.0
O348 O 0.70298 0.76451 0.85122 0.0
O349 O 0.72542 0.77407 0.89142 0.0
Co350 Co 0.22285 0.92304 0.9015 0.0
O351 O 0.19767 0.90316 0.89773 0.0
O352 O 0.22265 0.90005 0.89495 0.0
C353 C 0.2207 0.94247 0.86067 0.0
O354 O 0.25073 0.94018 0.90281 0.0
Co355 Co 0.23152 0.9603 0.93427 0.0
O356 O 0.25595 0.96911 0.911 0.0
C357 C 0.22702 0.93053 0.98442 0.0
C358 C 0.2047 0.89245 0.89307 0.0
C359 C 0.26161 0.95783 0.90356 0.0
O360 O 0.22265 0.91975 0.95649 0.0
O361 O 0.2308 0.94742 0.98176 0.0
O362 O 0.22286 0.92881 0.85022 0.0
O363 O 0.21749 0.94272 0.89556 0.0
Co364 Co 0.06189 0.29094 0.90212 0.0
O365 O 0.08139 0.28567 0.89209 0.0
O366 O 0.0851 0.31388 0.89768 0.0
C367 C 0.04165 0.2717 0.85907 0.0
O368 O 0.0451 0.30166 0.91186 0.0
Co369 Co 0.02547 0.25994 0.93405 0.0
O370 O 0.01777 0.27878 0.93309 0.0
C371 C 0.05554 0.28436 0.98464 0.0
C372 C 0.09237 0.30349 0.89127 0.0
C373 C 0.02865 0.29564 0.92444 0.0
O374 O 0.06626 0.29122 0.95671 0.0
O375 O 0.03862 0.27137 0.98171 0.0
O376 O 0.05507 0.28809 0.85092 0.0
O377 O 0.04209 0.26627 0.89234 0.0
Co378 Co 0.43562 0.03414 0.96249 0.0
O379 O 0.46055 0.04028 0.97343 0.0
O380 O 0.43679 0.01166 0.96788 0.0
C381 C 0.43406 0.05347 1.00445 0.0
O382 O 0.40802 0.02265 0.9522 0.0
Co383 Co 0.42929 0.06433 0.92887 0.0
O384 O 0.40294 0.04504 0.93034 0.0
C385 C 0.43589 0.04004 0.87969 0.0
C386 C 0.45433 0.02257 0.97486 0.0
C387 C 0.39732 0.02828 0.9393 0.0
O388 O 0.43996 0.0336 0.90803 0.0
O389 O 0.43152 0.05274 0.8819 0.0
O390 O 0.43144 0.03731 1.01353 0.0
O391 O 0.43977 0.05861 0.97105 0.0
Co392 Co 0.96129 0.40269 0.96374 0.0
O393 O 0.95516 0.42183 0.96935 0.0
O394 O 0.98365 0.426 0.97235 0.0
C395 C 0.93951 0.38195 1.00242 0.0
O396 O 0.97242 0.38593 0.96092 0.0
Co397 Co 0.93327 0.36663 0.9259 0.0
O398 O 0.94869 0.35741 0.94876 0.0
C399 C 0.95864 0.39804 0.87965 0.0
C400 C 0.97272 0.43294 0.97492 0.0
C401 C 0.96546 0.3683 0.95815 0.0
O402 O 0.96519 0.40741 0.90927 0.0
O403 O 0.94497 0.38137 0.87976 0.0
O404 O 0.95497 0.3956 1.01433 0.0
O405 O 0.93642 0.38258 0.96757 0.0
Co406 Co 0.59038 0.55826 0.96174 0.0
O407 O 0.57049 0.53311 0.96431 0.0
O408 O 0.56762 0.55806 0.97171 0.0
C409 C 0.61059 0.55537 0.99881 0.0
O410 O 0.60777 0.58601 0.96216 0.0
Co411 Co 0.6263 0.56652 0.92279 0.0
O412 O 0.63605 0.59085 0.94728 0.0
C413 C 0.59519 0.56229 0.87772 0.0
C414 C 0.55993 0.54009 0.97141 0.0
C415 C 0.62538 0.59663 0.95877 0.0
O416 O 0.586 0.55934 0.90762 0.0
O417 O 0.61162 0.5646 0.87708 0.0
O418 O 0.59707 0.5571 1.01187 0.0
O419 O 0.61002 0.55272 0.96351 0.0
Co420 Co 0.9547 0.55442 0.4613 0.0
O421 O 0.94698 0.52847 0.46299 0.0
O422 O 0.97609 0.55153 0.46691 0.0
C423 C 0.93354 0.55342 0.50177 0.0
O424 O 0.96789 0.58256 0.46198 0.0
Co425 Co 0.92889 0.56752 0.43008 0.0
O426 O 0.94633 0.59099 0.45476 0.0
C427 C 0.95318 0.5617 0.37928 0.0
C428 C 0.96444 0.53379 0.46722 0.0
C429 C 0.96285 0.59485 0.46192 0.0
O430 O 0.95816 0.55526 0.40631 0.0
O431 O 0.94125 0.56707 0.38271 0.0
O432 O 0.94852 0.55377 0.51276 0.0
O433 O 0.9306 0.55146 0.46664 0.0
Co434 Co 0.43495 0.40062 0.46487 0.0
O435 O 0.45935 0.42046 0.47539 0.0
O436 O 0.43427 0.42332 0.47168 0.0
C437 C 0.43485 0.37995 0.50558 0.0
O438 O 0.40766 0.38283 0.45467 0.0
Co439 Co 0.43239 0.36638 0.42799 0.0
O440 O 0.40549 0.35652 0.43276 0.0
C441 C 0.43704 0.39716 0.38122 0.0
C442 C 0.45206 0.43102 0.47738 0.0
C443 C 0.39822 0.36622 0.44208 0.0
O444 O 0.43875 0.40623 0.41076 0.0
O445 O 0.43507 0.38088 0.38159 0.0
O446 O 0.43131 0.39279 0.51544 0.0
O447 O 0.44095 0.38145 0.47216 0.0
Co448 Co 0.5908 0.03307 0.4675 0.0
O449 O 0.57133 0.03886 0.47261 0.0
O450 O 0.56762 0.01057 0.47595 0.0
C451 C 0.61131 0.0552 0.50593 0.0
O452 O 0.60767 0.02207 0.46482 0.0
Co453 Co 0.62723 0.06124 0.43025 0.0
O454 O 0.63629 0.0453 0.45124 0.0
C455 C 0.59607 0.03537 0.38363 0.0
C456 C 0.56038 0.02124 0.47797 0.0
C457 C 0.62519 0.02862 0.46078 0.0
O458 O 0.58634 0.02899 0.41295 0.0
O459 O 0.61275 0.04905 0.3841 0.0
O460 O 0.5978 0.03975 0.51824 0.0
O461 O 0.61076 0.05797 0.47095 0.0
Co462 Co 0.22338 0.29651 0.39975 0.0
O463 O 0.19846 0.29178 0.39536 0.0
O464 O 0.22375 0.31954 0.3911 0.0
C465 C 0.22087 0.27414 0.36092 0.0
O466 O 0.25107 0.30628 0.40187 0.0
Co467 Co 0.22964 0.26713 0.43723 0.0
O468 O 0.2548 0.28209 0.4163 0.0
C469 C 0.22553 0.29362 0.48381 0.0
C470 C 0.20575 0.30945 0.3897 0.0
C471 C 0.26128 0.29887 0.40626 0.0
O472 O 0.22329 0.30067 0.45428 0.0
O473 O 0.22739 0.27923 0.48354 0.0
O474 O 0.22332 0.28986 0.34906 0.0
O475 O 0.21732 0.27123 0.39585 0.0
Co476 Co 0.69566 0.92593 0.40154 0.0
O477 O 0.70048 0.90585 0.39607 0.0
O478 O 0.67264 0.90333 0.3931 0.0
C479 C 0.71779 0.94592 0.36235 0.0
O480 O 0.68559 0.94354 0.40496 0.0
Co481 Co 0.72472 0.96178 0.43824 0.0
O482 O 0.70956 0.97183 0.41752 0.0
C483 C 0.69859 0.93105 0.4854 0.0
C484 C 0.68276 0.89548 0.39077 0.0
C485 C 0.69265 0.96112 0.40886 0.0
O486 O 0.69183 0.92145 0.45609 0.0
O487 O 0.71258 0.94754 0.48477 0.0
O488 O 0.70195 0.93275 0.35082 0.0
O489 O 0.72093 0.9453 0.39718 0.0
Co490 Co 0.06717 0.76683 0.39733 0.0
O491 O 0.08698 0.79199 0.39248 0.0
O492 O 0.09034 0.76717 0.3916 0.0
C493 C 0.04762 0.76837 0.35593 0.0
O494 O 0.05012 0.73897 0.40055 0.0
Co495 Co 0.0296 0.75841 0.42902 0.0
O496 O 0.02107 0.7336 0.40779 0.0
C497 C 0.05933 0.76324 0.47993 0.0
C498 C 0.09785 0.78508 0.38899 0.0
C499 C 0.0325 0.72793 0.40198 0.0
O500 O 0.07038 0.76772 0.45238 0.0
O501 O 0.04241 0.75932 0.4767 0.0
O502 O 0.06127 0.76609 0.34583 0.0
O503 O 0.04745 0.77199 0.39056 0.0
H504 H 0.28524 0.9492 0.32567 0.0
H505 H 0.31021 0.9495 0.22179 0.0
H506 H 0.29723 0.98276 0.31969 0.0
H507 H 0.3217 0.98263 0.21548 0.0
H508 H 0.33179 0.04152 0.20789 0.0
H509 H 0.31059 0.00786 0.21271 0.0
H510 H 0.33364 0.00776 0.31863 0.0
H511 H 0.35493 0.04098 0.31357 0.0
C512 C 0.29296 0.9564 0.30137 0.0
C513 C 0.29722 0.94706 0.27457 0.0
C514 C 0.2997 0.97544 0.29788 0.0
C515 C 0.31025 0.98508 0.26705 0.0
C516 C 0.31341 0.97541 0.23924 0.0
C517 C 0.30709 0.95658 0.24312 0.0
C518 C 0.33214 0.03424 0.23223 0.0
C519 C 0.34516 0.04363 0.26001 0.0
C520 C 0.32001 0.01514 0.23507 0.0
C521 C 0.32048 0.00543 0.26618 0.0
C522 C 0.33287 0.01504 0.29466 0.0
C523 C 0.34522 0.03395 0.29147 0.0
H524 H 0.04265 0.31952 0.26735 0.0
H525 H 0.03085 0.36012 0.31465 0.0
H526 H 0.01001 0.30062 0.24932 0.0
H527 H -0.00153 0.34127 0.29681 0.0
H528 H 0.9558 0.32391 0.20987 0.0
H529 H 0.98802 0.33635 0.228 0.0
H530 H 0.97464 0.28343 0.27466 0.0
H531 H 0.94216 0.27079 0.25638 0.0
C532 C 0.03297 0.32405 0.27509 0.0
C533 C 0.03926 0.34141 0.29181 0.0
C534 C 0.01438 0.31331 0.26454 0.0
C535 C 0.00203 0.31987 0.27074 0.0
C536 C 0.00794 0.33623 0.2909 0.0
C537 C 0.0264 0.34691 0.30134 0.0
C538 C 0.9598 0.31477 0.22311 0.0
C539 C 0.94647 0.29652 0.23231 0.0
C540 C 0.97817 0.32191 0.2337 0.0
C541 C 0.98353 0.31095 0.25367 0.0
C542 C 0.97069 0.29214 0.25959 0.0
C543 C 0.95219 0.28493 0.24892 0.0
H544 H 0.71756 0.67 0.25103 0.0
H545 H 0.66234 0.62587 0.22412 0.0
H546 H 0.70475 0.68945 0.27035 0.0
H547 H 0.6497 0.64533 0.24291 0.0
H548 H 0.62888 0.67089 0.31993 0.0
H549 H 0.64677 0.65587 0.30518 0.0
H550 H 0.68715 0.70525 0.24841 0.0
H551 H 0.66938 0.72047 0.2639 0.0
C552 C 0.70278 0.66463 0.24832 0.0
C553 C 0.69089 0.64632 0.23657 0.0
C554 C 0.69547 0.67573 0.2596 0.0
C555 C 0.67623 0.66863 0.25918 0.0
C556 C 0.66456 0.65089 0.24467 0.0
C557 C 0.67181 0.63982 0.23354 0.0
C558 C 0.64188 0.67872 0.3053 0.0
C559 C 0.64765 0.69669 0.29257 0.0
C560 C 0.652 0.67009 0.29653 0.0
C561 C 0.66796 0.67923 0.2746 0.0
C562 C 0.67479 0.69788 0.26508 0.0
C563 C 0.6647 0.70661 0.27414 0.0
H564 H 0.62338 0.95543 0.81388 0.0
H565 H 0.66725 0.94628 0.77522 0.0
H566 H 0.64169 0.98799 0.79715 0.0
H567 H 0.68543 0.97888 0.75738 0.0
H568 H 0.7165 0.04426 0.76137 0.0
H569 H 0.70186 0.01143 0.77773 0.0
H570 H 0.64932 0.00304 0.73759 0.0
H571 H 0.6638 0.03584 0.72246 0.0
C572 C 0.63708 0.96048 0.80234 0.0
C573 C 0.64384 0.94836 0.79552 0.0
C574 C 0.64747 0.97905 0.79232 0.0
C575 C 0.66471 0.98579 0.77485 0.0
C576 C 0.67213 0.97401 0.77058 0.0
C577 C 0.66177 0.9554 0.78099 0.0
C578 C 0.70194 0.03524 0.75512 0.0
C579 C 0.69117 0.04251 0.74113 0.0
C580 C 0.69356 0.0165 0.76467 0.0
C581 C 0.67435 0.00486 0.76 0.0
C582 C 0.66403 0.01186 0.74271 0.0
C583 C 0.67233 0.03055 0.73362 0.0
H584 H 0.03446 0.66654 0.81784 0.0
H585 H 0.04467 0.71706 0.76408 0.0
H586 H 0.00171 0.65215 0.80227 0.0
H587 H 0.01178 0.70245 0.7478 0.0
H588 H 0.94578 0.66827 0.7549 0.0
H589 H 0.97861 0.6873 0.77087 0.0
H590 H 0.98758 0.64224 0.74041 0.0
H591 H 0.95489 0.62319 0.72513 0.0
C592 C 0.02959 0.67467 0.80336 0.0
C593 C 0.04205 0.69277 0.7917 0.0
C594 C 0.01093 0.6664 0.79411 0.0
C595 C 0.00443 0.67602 0.77277 0.0
C596 C 0.01653 0.69471 0.76398 0.0
C597 C 0.03528 0.70307 0.7735 0.0
C598 C 0.95491 0.66266 0.75064 0.0
C599 C 0.94781 0.64418 0.73934 0.0
C600 C 0.97363 0.6735 0.76 0.0
C601 C 0.9854 0.66597 0.75797 0.0
C602 C 0.97861 0.64813 0.74338 0.0
C603 C 0.95998 0.6373 0.73427 0.0
H604 H 0.31995 0.27347 0.75949 0.0
H605 H 0.36328 0.32635 0.71919 0.0
H606 H 0.30141 0.2877 0.77631 0.0
H607 H 0.34467 0.3404 0.73517 0.0
H608 H 0.32336 0.36564 0.81398 0.0
H609 H 0.33752 0.34728 0.79686 0.0
H610 H 0.2849 0.30433 0.75481 0.0
H611 H 0.27055 0.32262 0.77273 0.0
C612 C 0.32522 0.28797 0.75309 0.0
C613 C 0.34314 0.29893 0.73857 0.0
C614 C 0.31466 0.2961 0.76291 0.0
C615 C 0.3219 0.31524 0.7581 0.0
C616 C 0.33905 0.32573 0.74032 0.0
C617 C 0.34961 0.31767 0.7308 0.0
C618 C 0.31472 0.3521 0.80184 0.0
C619 C 0.29595 0.34563 0.79425 0.0
C620 C 0.32285 0.34169 0.79167 0.0
C621 C 0.3124 0.32469 0.77341 0.0
C622 C 0.29327 0.31747 0.76857 0.0
C623 C 0.28506 0.32788 0.77902 0.0
H624 H 0.02901 0.38064 0.64676 0.0
H625 H 0.99336 0.37161 0.55374 0.0
H626 H 0.0104 0.34828 0.66381 0.0
H627 H 0.97497 0.33867 0.57003 0.0
H628 H 0.94008 0.28148 0.61908 0.0
H629 H 0.95423 0.31521 0.61489 0.0
H630 H 0.00799 0.32106 0.63679 0.0
H631 H 0.99393 0.28775 0.64194 0.0
C632 C 0.01724 0.37163 0.62974 0.0
C633 C 0.01287 0.37844 0.59835 0.0
C634 C 0.00654 0.35312 0.63962 0.0
C635 C 0.99143 0.34089 0.61795 0.0
C636 C 0.9865 0.34783 0.58739 0.0
C637 C -0.00291 0.36657 0.57781 0.0
C638 C 0.95484 0.29005 0.62396 0.0
C639 C 0.96595 0.28202 0.6305 0.0
C640 C 0.96294 0.30931 0.62115 0.0
C641 C 0.98221 0.32074 0.62518 0.0
C642 C 0.99307 0.31267 0.6339 0.0
C643 C 0.98502 0.29354 0.63663 0.0
H644 H 0.60967 0.6399 0.65521 0.0
H645 H 0.61893 0.62089 0.55159 0.0
H646 H 0.64179 0.65125 0.67241 0.0
H647 H 0.6516 0.63308 0.56812 0.0
H648 H 0.7092 0.65306 0.61201 0.0
H649 H 0.67544 0.63299 0.60913 0.0
H650 H 0.6687 0.67823 0.64878 0.0
H651 H 0.70206 0.69793 0.65224 0.0
C652 C 0.61868 0.63818 0.63612 0.0
C653 C 0.61213 0.63006 0.60168 0.0
C654 C 0.63701 0.64459 0.64602 0.0
C655 C 0.64928 0.64339 0.62134 0.0
C656 C 0.64242 0.63412 0.58777 0.0
C657 C 0.62384 0.62733 0.57811 0.0
C658 C 0.70042 0.65847 0.62108 0.0
C659 C 0.70817 0.67707 0.632 0.0
C660 C 0.68116 0.64706 0.6191 0.0
C661 C 0.66946 0.65407 0.62847 0.0
C662 C 0.67731 0.67231 0.64173 0.0
C663 C 0.69644 0.68367 0.64348 0.0
H664 H 0.29878 0.01297 0.55606 0.0
H665 H 0.32537 0.03912 0.65798 0.0
H666 H 0.31981 0.00073 0.54941 0.0
H667 H 0.34625 0.02636 0.65162 0.0
H668 H 0.34618 0.96822 0.64625 0.0
H669 H 0.33405 0.98939 0.65137 0.0
H670 H 0.35678 0.01232 0.54515 0.0
H671 H 0.3695 0.99129 0.54038 0.0
C672 C 0.30921 0.01615 0.57693 0.0
C673 C 0.31032 0.02666 0.60788 0.0
C674 C 0.32137 0.00939 0.57282 0.0
C675 C 0.3346 0.01275 0.59991 0.0
C676 C 0.33616 0.02376 0.63034 0.0
C677 C 0.32423 0.03092 0.63405 0.0
C678 C 0.34872 0.9779 0.62413 0.0
C679 C 0.35844 0.97801 0.59262 0.0
C680 C 0.34203 0.99014 0.62732 0.0
C681 C 0.34465 0.00245 0.59876 0.0
C682 C 0.35477 0.00295 0.56756 0.0
C683 C 0.36191 0.99095 0.56475 0.0
H684 H 0.33121 0.36941 0.05471 0.0
H685 H 0.3841 0.37871 0.09461 0.0
H686 H 0.31708 0.33673 0.07055 0.0
H687 H 0.36979 0.34594 0.11135 0.0
H688 H 0.33474 0.28027 0.10717 0.0
H689 H 0.35313 0.31294 0.08976 0.0
H690 H 0.31015 0.32257 0.13206 0.0
H691 H 0.29167 0.28998 0.14861 0.0
C692 C 0.33987 0.36435 0.06621 0.0
C693 C 0.35864 0.37655 0.07391 0.0
C694 C 0.33176 0.34573 0.07566 0.0
C695 C 0.34224 0.33902 0.09331 0.0
C696 C 0.3614 0.35084 0.09805 0.0
C697 C 0.36958 0.36953 0.08827 0.0
C698 C 0.3295 0.28952 0.11366 0.0
C699 C 0.3117 0.28263 0.12873 0.0
C700 C 0.33997 0.30815 0.10349 0.0
C701 C 0.33275 0.32006 0.10851 0.0
C702 C 0.31573 0.31349 0.12673 0.0
C703 C 0.30525 0.29492 0.13658 0.0
H704 H 0.61378 0.00111 0.07333 0.0
H705 H 0.61778 0.95135 0.0662 0.0
H706 H 0.6476 0.01973 0.07823 0.0
H707 H 0.65112 0.9697 0.07217 0.0
H708 H 0.7111 0.0063 0.05685 0.0
H709 H 0.67855 0.99201 0.04133 0.0
H710 H 0.67104 0.02433 0.12513 0.0
H711 H 0.7042 0.03938 0.13987 0.0
C712 C 0.62187 0.99419 0.07219 0.0
C713 C 0.61314 0.97477 0.06962 0.0
C714 C 0.64117 0.00482 0.07541 0.0
C715 C 0.65197 0.99616 0.07583 0.0
C716 C 0.64323 0.97683 0.07153 0.0
C717 C 0.62407 0.96628 0.06832 0.0
C718 C 0.70254 0.01037 0.07213 0.0
C719 C 0.71007 0.02363 0.10023 0.0
C720 C 0.68389 0.0022 0.0631 0.0
C721 C 0.6722 0.00684 0.08234 0.0
C722 C 0.67978 0.02058 0.10967 0.0
C723 C 0.69866 0.02903 0.11839 0.0
H724 H 0.99175 0.70055 0.14835 0.0
H725 H 0.94009 0.65912 0.09994 0.0
H726 H 0.00586 0.68194 0.13279 0.0
H727 H 0.95441 0.64056 0.08379 0.0
H728 H 0.98921 0.6092 0.09161 0.0
H729 H 0.97037 0.62319 0.10778 0.0
H730 H 0.01416 0.67637 0.06991 0.0
H731 H 0.03303 0.66257 0.05427 0.0
C732 C 0.98332 0.68727 0.13506 0.0
C733 C 0.96496 0.68138 0.12483 0.0
C734 C 0.99143 0.67673 0.12585 0.0
C735 C 0.98136 0.66017 0.10603 0.0
C736 C 0.96248 0.65339 0.09877 0.0
C737 C 0.95429 0.66394 0.1082 0.0
C738 C 0.99457 0.62377 0.08578 0.0
C739 C 0.01269 0.63491 0.07227 0.0
C740 C 0.98383 0.63175 0.09524 0.0
C741 C 0.99111 0.65092 0.09115 0.0
C742 C 0.0085 0.66165 0.07443 0.0
C743 C 0.01922 0.65373 0.06515 0.0
H744 H 0.66136 0.62143 0.9734 0.0
H745 H 0.60789 0.61704 0.95596 0.0
H746 H 0.67613 0.65493 0.97128 0.0
H747 H 0.62279 0.65091 0.95446 0.0
H748 H 0.66377 0.70751 0.8933 0.0
H749 H 0.644 0.67463 0.90907 0.0
H750 H 0.67903 0.68196 1.00236 0.0
H751 H 0.69893 0.7143 0.98594 0.0
C752 C 0.65272 0.62767 0.96988 0.0
C753 C 0.63353 0.61667 0.96446 0.0
C754 C 0.66116 0.64688 0.96892 0.0
C755 C 0.65059 0.6555 0.96253 0.0
C756 C 0.63124 0.64456 0.95907 0.0
C757 C 0.62274 0.62523 0.96027 0.0
C758 C 0.66704 0.70201 0.91727 0.0
C759 C 0.68311 0.71313 0.93772 0.0
C760 C 0.65569 0.68333 0.92653 0.0
C761 C 0.6602 0.67574 0.95664 0.0
C762 C 0.6755 0.68734 0.97855 0.0
C763 C 0.68691 0.7058 0.96902 0.0
H764 H 0.37989 0.028 0.87739 0.0
H765 H 0.37202 -0.00222 0.9782 0.0
H766 H 0.34751 0.00777 0.86153 0.0
H767 H 0.33906 0.9777 0.96291 0.0
H768 H 0.28132 0.94006 0.91574 0.0
H769 H 0.31514 0.95447 0.9198 0.0
H770 H 0.32069 0.00718 0.88905 0.0
H771 H 0.28728 0.99288 0.88448 0.0
C772 C 0.37113 0.01697 0.89619 0.0
C773 C 0.37816 0.01469 0.92951 0.0
C774 C 0.35265 0.00537 0.88704 0.0
C775 C 0.34072 0.99144 0.91131 0.0
C776 C 0.348 0.98834 0.94366 0.0
C777 C 0.36674 -0.00014 0.95259 0.0
C778 C 0.28985 0.95463 0.90899 0.0
C779 C 0.28173 0.96542 0.9 0.0
C780 C 0.30914 0.96287 0.91167 0.0
C781 C 0.3205 0.98192 0.90488 0.0
C782 C 0.31232 0.99241 0.89403 0.0
C783 C 0.29316 0.98425 0.89162 0.0
H784 H 0.0094 0.29452 0.9843 0.0
H785 H 0.03529 0.3271 0.88744 0.0
H786 H -0.00226 0.31511 1.00045 0.0
H787 H 0.02282 0.34748 0.90282 0.0
H788 H 0.00315 0.38534 0.94926 0.0
H789 H 0.02181 0.37005 0.94629 0.0
H790 H 0.97302 0.31766 0.97224 0.0
H791 H 0.95472 0.33282 0.97595 0.0
C792 C 0.01247 0.30607 0.96632 0.0
C793 C 0.02271 0.30897 0.93404 0.0
C794 C 0.00588 0.3179 0.97567 0.0
C795 C 0.00907 0.33267 0.95255 0.0
C796 C 0.02023 0.33623 0.92123 0.0
C797 C 0.02717 0.3245 0.91218 0.0
C798 C -0.00339 0.37065 0.95523 0.0
C799 C 0.97749 0.36019 0.96252 0.0
C800 C 0.00722 0.3619 0.95318 0.0
C801 C -0.00115 0.34268 0.95885 0.0
C802 C 0.97995 0.33253 0.96815 0.0
C803 C 0.96941 0.34119 0.97001 0.0
H804 H -0.0025 0.7006 0.38651 0.0
H805 H 0.05088 0.70995 0.42349 0.0
H806 H 0.98329 0.66832 0.40531 0.0
H807 H 0.03648 0.67748 0.44274 0.0
H808 H -0.00139 0.61087 0.4377 0.0
H809 H 0.01809 0.64353 0.42079 0.0
H810 H 0.97819 0.65581 0.46977 0.0
H811 H 0.95866 0.62329 0.4861 0.0
C812 C 0.00625 0.69565 0.39799 0.0
C813 C 0.02522 0.70781 0.40404 0.0
C814 C -0.0019 0.67724 0.4091 0.0
C815 C 0.00873 0.67067 0.42659 0.0
C816 C 0.02799 0.68233 0.42968 0.0
C817 C 0.03621 0.70084 0.41842 0.0
C818 C 0.99436 0.6207 0.44599 0.0
C819 C 0.97702 0.6146 0.46266 0.0
C820 C 0.00544 0.63933 0.43608 0.0
C821 C -0.00072 0.65195 0.44294 0.0
C822 C 0.98293 0.64617 0.46317 0.0
C823 C 0.97187 0.62763 0.47285 0.0
H824 H 0.2822 0.33679 0.40923 0.0
H825 H 0.28616 0.28714 0.39833 0.0
H826 H 0.31604 0.35532 0.41443 0.0
H827 H 0.31952 0.3054 0.40445 0.0
H828 H 0.37927 0.34211 0.38808 0.0
H829 H 0.34672 0.32836 0.37306 0.0
H830 H 0.33964 0.35898 0.4611 0.0
H831 H 0.37286 0.37348 0.47545 0.0
C832 C 0.29029 0.3299 0.40731 0.0
C833 C 0.28157 0.31052 0.40354 0.0
C834 C 0.30959 0.34046 0.41071 0.0
C835 C 0.32037 0.33179 0.41003 0.0
C836 C 0.31162 0.31253 0.40466 0.0
C837 C 0.29247 0.30203 0.40135 0.0
C838 C 0.37081 0.34592 0.4044 0.0
C839 C 0.37844 0.35848 0.43362 0.0
C840 C 0.35217 0.33808 0.39564 0.0
C841 C 0.3406 0.34236 0.41627 0.0
C842 C 0.34831 0.35551 0.44464 0.0
C843 C 0.3672 0.36364 0.45311 0.0
H844 H 0.65609 0.94339 0.42762 0.0
H845 H 0.70155 -0.00345 0.39383 0.0
H846 H 0.63802 0.95808 0.44414 0.0
H847 H 0.68331 0.01111 0.40907 0.0
H848 H 0.65961 0.03639 0.48126 0.0
H849 H 0.67434 0.0182 0.46695 0.0
H850 H 0.62247 0.97457 0.42326 0.0
H851 H 0.60758 0.99257 0.43894 0.0
C852 C 0.66197 0.95811 0.42263 0.0
C853 C 0.68027 0.96893 0.40987 0.0
C854 C 0.65167 0.96652 0.43227 0.0
C855 C 0.65949 0.98581 0.42892 0.0
C856 C 0.67719 -0.0037 0.4132 0.0
C857 C 0.68754 0.98796 0.40402 0.0
C858 C 0.65128 0.0227 0.46949 0.0
C859 C 0.63256 0.0159 0.4609 0.0
C860 C 0.65973 0.0124 0.46083 0.0
C861 C 0.64968 0.99525 0.44286 0.0
C862 C 0.63057 0.98779 0.43691 0.0
C863 C 0.62203 -0.00197 0.44608 0.0
H864 H 0.31988 0.09444 0.54142 0.0
H865 H 0.27703 0.04915 0.47909 0.0
H866 H 0.33902 0.10588 0.48664 0.0
H867 H 0.29628 0.06087 0.42402 0.0
H868 H 0.33065 0.09621 0.32608 0.0
H869 H 0.31091 0.08832 0.38016 0.0
H870 H 0.35602 0.09393 0.44762 0.0
H871 H 0.37582 0.10163 0.39343 0.0
C872 C 0.31432 0.08706 0.51595 0.0
C873 C 0.29679 0.07076 0.51495 0.0
C874 C 0.32545 0.09359 0.48454 0.0
C875 C 0.3193 0.08423 0.45098 0.0
C876 C 0.30142 0.06848 0.44941 0.0
C877 C 0.29036 0.06175 0.48103 0.0
C878 C 0.33654 0.09607 0.35246 0.0
C879 C 0.35495 0.09962 0.35519 0.0
C880 C 0.3251 0.09136 0.38346 0.0
C881 C 0.33181 0.09037 0.41823 0.0
C882 C 0.35042 0.09467 0.42128 0.0
C883 C 0.3618 0.09909 0.39016 0.0
H884 H 0.95282 0.25075 0.48539 0.0
H885 H 0.89602 0.21563 0.51981 0.0
H886 H 0.94205 0.26 0.43133 0.0
H887 H 0.88529 0.22472 0.46533 0.0
H888 H 0.87643 0.23328 0.33989 0.0
H889 H 0.88531 0.22248 0.39458 0.0
H890 H 0.92572 0.27899 0.42156 0.0
H891 H 0.91672 0.28986 0.36739 0.0
C892 C 0.93803 0.24471 0.48114 0.0
C893 C 0.92532 0.23238 0.50707 0.0
C894 C 0.93186 0.25018 0.45031 0.0
C895 C 0.91281 0.24325 0.44418 0.0
C896 C 0.90005 0.23032 0.46921 0.0
C897 C 0.90622 0.2251 0.50043 0.0
C898 C 0.88697 0.24345 0.35782 0.0
C899 C 0.89577 0.26249 0.34915 0.0
C900 C 0.89208 0.23724 0.38915 0.0
C901 C 0.90639 0.24985 0.41222 0.0
C902 C 0.91482 0.26889 0.40412 0.0
C903 C 0.90948 0.27513 0.37323 0.0
H904 H 0.73873 0.69742 0.48628 0.0
H905 H 0.77677 0.67868 0.51727 0.0
H906 H 0.73024 0.67807 0.43144 0.0
H907 H 0.76847 0.65958 0.4618 0.0
H908 H 0.75989 0.64468 0.33406 0.0
H909 H 0.77014 0.66346 0.38997 0.0
H910 H 0.71308 0.64229 0.4214 0.0
H911 H 0.70279 0.62326 0.3661 0.0
C912 C 0.74558 0.68948 0.48111 0.0
C913 C 0.75851 0.68971 0.50631 0.0
C914 C 0.74054 0.67822 0.44981 0.0
C915 C 0.74854 0.66714 0.44243 0.0
C916 C 0.76206 0.66795 0.46671 0.0
C917 C 0.76683 0.67892 0.49847 0.0
C918 C 0.74952 0.64374 0.35323 0.0
C919 C 0.73048 0.63233 0.3455 0.0
C920 C 0.75542 0.65454 0.38524 0.0
C921 C 0.74243 0.65454 0.4099 0.0
C922 C 0.72344 0.64276 0.40273 0.0
C923 C 0.71754 0.63169 0.37117 0.0
H924 H 0.11016 0.34557 0.18738 0.0
H925 H 0.07004 0.36144 0.15536 0.0
H926 H 0.1018 0.32526 0.13371 0.0
H927 H 0.06152 0.34092 0.10232 0.0
H928 H 0.03473 0.28482 0.04225 0.0
H929 H 0.04535 0.30514 0.09571 0.0
H930 H 0.10217 0.32694 0.06179 0.0
H931 H 0.09157 0.30682 1.00769 0.0
C932 C 0.09977 0.34496 0.16867 0.0
C933 C 0.09086 0.35527 0.17577 0.0
C934 C 0.09495 0.33328 0.13795 0.0
C935 C 0.08082 0.33128 0.11399 0.0
C936 C 0.0723 0.34196 0.1205 0.0
C937 C 0.07735 0.3539 0.15074 0.0
C938 C 0.04952 0.29362 0.04647 0.0
C939 C 0.06227 0.29404 0.02058 0.0
C940 C 0.05559 0.30546 0.07694 0.0
C941 C 0.0746 0.31783 0.08281 0.0
C942 C 0.08744 0.31759 0.05806 0.0
C943 C 0.08135 0.306 0.02711 0.0
H944 H 0.62983 0.70837 0.15302 0.0
H945 H 0.64528 0.76427 0.1845 0.0
H946 H 0.65079 0.72046 0.10054 0.0
H947 H 0.66604 0.77629 0.13147 0.0
H948 H 0.68581 0.78498 1.00651 0.0
H949 H 0.66519 0.77529 0.05988 0.0
H950 H 0.6865 0.73999 0.09475 0.0
H951 H 0.7073 0.74983 0.04201 0.0
C952 C 0.63736 0.72321 0.14838 0.0
C953 C 0.63575 0.73531 0.1731 0.0
C954 C 0.64956 0.73015 0.11848 0.0
C955 C 0.66026 0.74936 0.11203 0.0
C956 C 0.65802 0.76143 0.13566 0.0
C957 C 0.64608 0.75452 0.16602 0.0
C958 C 0.68643 0.77549 0.02601 0.0
C959 C 0.69839 0.76833 0.01992 0.0
C960 C 0.67454 0.76988 0.05653 0.0
C961 C 0.674 0.75666 0.0813 0.0
C962 C 0.68639 0.75 0.07593 0.0
C963 C 0.69852 0.75586 0.04589 0.0
H964 H 0.28679 0.91196 0.15566 0.0
H965 H 0.23018 0.87613 0.19055 0.0
H966 H 0.2757 0.92103 0.10199 0.0
H967 H 0.21912 0.88498 0.13602 0.0
H968 H 0.21227 0.89442 1.00775 0.0
H969 H 0.2207 0.88321 0.06257 0.0
H970 H 0.25776 0.93968 0.09573 0.0
H971 H 0.24908 0.95094 0.04161 0.0
C972 C 0.27196 0.90565 0.15152 0.0
C973 C 0.25941 0.8932 0.17754 0.0
C974 C 0.26562 0.91104 0.12089 0.0
C975 C 0.24654 0.90388 0.11493 0.0
C976 C 0.23391 0.89075 0.13987 0.0
C977 C 0.24026 0.88565 0.17105 0.0
C978 C 0.22195 0.90446 0.02708 0.0
C979 C 0.22992 0.92362 0.02021 0.0
C980 C 0.22679 0.89802 0.05846 0.0
C981 C 0.24005 0.91055 0.08327 0.0
C982 C 0.24763 0.92967 0.07694 0.0
C983 C 0.2425 0.93612 0.04606 0.0
H984 H 0.61235 0.89548 0.65078 0.0
H985 H 0.65736 0.89545 0.70979 0.0
H986 H 0.63078 0.90356 0.59443 0.0
H987 H 0.67572 0.90377 0.65376 0.0
H988 H 0.70965 0.94345 0.5562 0.0
H989 H 0.69108 0.93236 0.61229 0.0
H990 H 0.64516 0.89046 0.55014 0.0
H991 H 0.66365 0.90124 0.49435 0.0
C992 C 0.62603 0.89694 0.65175 0.0
C993 C 0.63323 0.8947 0.68505 0.0
C994 C 0.63662 0.9016 0.6194 0.0
C995 C 0.65482 0.90447 0.6196 0.0
C996 C 0.66186 0.90187 0.65267 0.0
C997 C 0.65119 0.89691 0.68479 0.0
C998 C 0.6957 0.93171 0.55453 0.0
C999 C 0.68828 0.92326 0.52054 0.0
C1000 C 0.68504 0.92534 0.58672 0.0
C1001 C 0.66655 0.91058 0.58571 0.0
C1002 C 0.65925 0.90196 0.5519 0.0
C1003 C 0.66999 0.90809 0.51989 0.0
H1004 H 0.03831 0.7418 0.53727 0.0
H1005 H 0.09526 0.77701 0.50375 0.0
H1006 H 0.04885 0.73277 0.59189 0.0
H1007 H 0.10576 0.76816 0.55896 0.0
H1008 H 0.11307 0.75948 0.68597 0.0
H1009 H 0.10473 0.77039 0.63066 0.0
H1010 H 0.06566 0.71383 0.60124 0.0
H1011 H 0.07416 0.70285 0.65595 0.0
C1012 C 0.05309 0.74795 0.54187 0.0
C1013 C 0.06591 0.7602 0.51599 0.0
C1014 C 0.05912 0.74259 0.57303 0.0
C1015 C 0.07814 0.74959 0.57958 0.0
C1016 C 0.09102 0.76252 0.5547 0.0
C1017 C 0.08498 0.7676 0.52309 0.0
C1018 C 0.10296 0.74933 0.66736 0.0
C1019 C 0.09438 0.73025 0.67547 0.0
C1020 C 0.09816 0.75561 0.6357 0.0
C1021 C 0.08437 0.74299 0.61179 0.0
C1022 C 0.07617 0.72392 0.61934 0.0
C1023 C 0.08122 0.71762 0.65054 0.0
H1024 H 0.23152 0.32888 0.4924 0.0
H1025 H 0.22595 0.28221 0.55476 0.0
H1026 H 0.2391 0.34727 0.54824 0.0
H1027 H 0.23332 0.30071 0.61088 0.0
H1028 H 0.23018 0.33473 0.7076 0.0
H1029 H 0.22021 0.3166 0.65135 0.0
H1030 H 0.26626 0.36086 0.59348 0.0
H1031 H 0.27653 0.37906 0.65006 0.0
C1032 C 0.23163 0.32239 0.51805 0.0
C1033 C 0.22805 0.30393 0.51886 0.0
C1034 C 0.23615 0.33305 0.55008 0.0
C1035 C 0.23692 0.32553 0.58403 0.0
C1036 C 0.23275 0.30691 0.58518 0.0
C1037 C 0.22853 0.2963 0.55297 0.0
C1038 C 0.23811 0.34081 0.68286 0.0
C1039 C 0.25421 0.35849 0.68359 0.0
C1040 C 0.23244 0.33027 0.65063 0.0
C1041 C 0.24248 0.33718 0.61795 0.0
C1042 C 0.25815 0.35514 0.61817 0.0
C1043 C 0.26404 0.36559 0.65063 0.0
H1044 H 0.89742 0.6849 0.02009 0.0
H1045 H 0.954 0.70256 0.98949 0.0
H1046 H 0.88636 0.66528 0.96532 0.0
H1047 H 0.94288 0.68267 0.93544 0.0
H1048 H 0.91429 0.62599 0.87561 0.0
H1049 H 0.92345 0.64634 0.92899 0.0
H1050 H 0.88896 0.66829 0.89234 0.0
H1051 H 0.88003 0.64818 0.8382 0.0
C1052 C 0.90752 0.68484 1.00146 0.0
C1053 C 0.92664 0.69544 1.00926 0.0
C1054 C 0.90116 0.67356 0.97012 0.0
C1055 C 0.91373 0.67225 0.94628 0.0
C1056 C 0.93283 0.68322 0.95348 0.0
C1057 C 0.93921 0.69479 0.98432 0.0
C1058 C 0.90839 0.63491 0.87908 0.0
C1059 C 0.89635 0.63535 0.85248 0.0
C1060 C 0.91381 0.64673 0.90954 0.0
C1061 C 0.90708 0.65906 0.91471 0.0
C1062 C 0.8944 0.65895 0.8891 0.0
C1063 C 0.88926 0.6474 0.85813 0.0
H1064 H 0.27876 0.22964 0.98201 0.0
H1065 H 0.32392 0.23016 0.04148 0.0
H1066 H 0.29722 0.23759 0.92564 0.0
H1067 H 0.34233 0.23844 0.98551 0.0
H1068 H 0.37568 0.27822 0.88687 0.0
H1069 H 0.35717 0.2674 0.94314 0.0
H1070 H 0.31202 0.22371 0.8825 0.0
H1071 H 0.33047 0.23415 0.8266 0.0
C1072 C 0.29248 0.23121 0.98307 0.0
C1073 C 0.29971 0.22912 0.01647 0.0
C1074 C 0.30308 0.23579 0.95075 0.0
C1075 C 0.32132 0.23879 0.95113 0.0
C1076 C 0.32842 0.23641 0.98431 0.0
C1077 C 0.31773 0.23147 0.01638 0.0
C1078 C 0.36193 0.26614 0.88561 0.0
C1079 C 0.35471 0.25706 0.85203 0.0
C1080 C 0.35131 0.25994 0.91787 0.0
C1081 C 0.33304 0.24476 0.91727 0.0
C1082 C 0.32594 0.23553 0.88388 0.0
C1083 C 0.33666 0.24147 0.85185 0.0
H1084 H 0.71764 0.09839 0.88785 0.0
H1085 H 0.75954 0.09533 0.82328 0.0
H1086 H 0.72984 0.0916 0.94308 0.0
H1087 H 0.77151 0.08835 0.87841 0.0
H1088 H 0.76788 0.05088 0.97947 0.0
H1089 H 0.75985 0.06133 0.92319 0.0
H1090 H 0.75846 0.10523 0.98321 0.0
H1091 H 0.76666 0.09509 0.03915 0.0
C1092 C 0.72958 0.09652 0.8854 0.0
C1093 C 0.73759 0.09752 0.85092 0.0
C1094 C 0.7366 0.09263 0.91713 0.0
C1095 C 0.75162 0.08933 0.91521 0.0
C1096 C 0.75984 0.09064 0.88088 0.0
C1097 C 0.75303 0.09483 0.84927 0.0
C1098 C 0.76625 0.06299 0.98059 0.0
C1099 C 0.76795 0.07206 1.01414 0.0
C1100 C 0.76161 0.06898 0.94827 0.0
C1101 C 0.75829 0.08401 0.94873 0.0
C1102 C 0.76065 0.09346 0.98193 0.0
C1103 C 0.76554 0.08768 1.01403 0.0
H1104 H 0.04528 0.43717 0.7154 0.0
H1105 H -0.00091 0.43425 0.65544 0.0
H1106 H 0.02694 0.42916 0.77179 0.0
H1107 H 0.98086 0.42604 0.71153 0.0
H1108 H 0.94814 0.38563 0.80877 0.0
H1109 H 0.96671 0.39763 0.75294 0.0
H1110 H 0.01123 0.44089 0.81562 0.0
H1111 H 0.99274 0.42916 0.87123 0.0
C1112 C 0.03139 0.43517 0.71424 0.0
C1113 C 0.02378 0.43641 0.68061 0.0
C1114 C 0.02084 0.43053 0.74661 0.0
C1115 C 0.00233 0.42674 0.74612 0.0
C1116 C -0.00504 0.42862 0.71282 0.0
C1117 C 0.00556 0.43352 0.68065 0.0
C1118 C 0.96176 0.39786 0.81062 0.0
C1119 C 0.96882 0.40639 0.8447 0.0
C1120 C 0.97242 0.40476 0.77857 0.0
C1121 C 0.99053 0.42018 0.77982 0.0
C1122 C -0.00256 0.42891 0.81371 0.0
C1123 C 0.9867 0.42222 0.8456 0.0
H1124 H 0.5654 0.56764 0.87194 0.0
H1125 H 0.60628 0.56351 0.80589 0.0
H1126 H 0.55339 0.57501 0.81748 0.0
H1127 H 0.59392 0.57063 0.75112 0.0
H1128 H 0.55481 0.56671 0.65759 0.0
H1129 H 0.56379 0.55669 0.7128 0.0
H1130 H 0.56611 0.60251 0.77244 0.0
H1131 H 0.55744 0.61289 0.71688 0.0
C1132 C 0.57171 0.56803 0.84576 0.0
C1133 C 0.58686 0.56491 0.8435 0.0
C1134 C 0.56486 0.57241 0.81454 0.0
C1135 C 0.57271 0.57348 0.77997 0.0
C1136 C 0.58748 0.56981 0.77736 0.0
C1137 C 0.59459 0.56575 0.80877 0.0
C1138 C 0.55688 0.57454 0.68253 0.0
C1139 C 0.55531 0.59066 0.68255 0.0
C1140 C 0.56224 0.56885 0.71415 0.0
C1141 C 0.56585 0.57889 0.74694 0.0
C1142 C 0.56339 0.59445 0.7476 0.0
C1143 C 0.55836 0.60037 0.71575 0.0
H1144 H 0.4511 0.01891 0.85699 0.0
H1145 H 0.4136 0.03775 0.82261 0.0
H1146 H 0.44213 -0.00159 0.80339 0.0
H1147 H 0.40438 0.01697 0.7699 0.0
H1148 H 0.37452 0.95857 0.7159 0.0
H1149 H 0.38656 0.97975 0.76798 0.0
H1150 H 0.44239 0.00091 0.72845 0.0
H1151 H 0.43035 0.98001 0.67549 0.0
C1152 C 0.44122 0.01896 0.83771 0.0
C1153 C 0.43322 0.03016 0.84409 0.0
C1154 C 0.43605 0.00716 0.80709 0.0
C1155 C 0.4224 0.00592 0.78267 0.0
C1156 C 0.41482 0.0175 0.7884 0.0
C1157 C 0.42029 0.02959 0.81844 0.0
C1158 C 0.38939 0.96746 0.71852 0.0
C1159 C 0.40144 0.96746 0.69143 0.0
C1160 C 0.39627 0.97975 0.74822 0.0
C1161 C 0.41541 0.99212 0.75215 0.0
C1162 C 0.42758 0.99155 0.72614 0.0
C1163 C 0.42066 0.97954 0.69587 0.0
H1164 H 0.5596 0.9476 0.22195 0.0
H1165 H 0.56242 0.99305 0.15948 0.0
H1166 H 0.56748 0.96651 0.27758 0.0
H1167 H 0.57047 0.01185 0.21481 0.0
H1168 H 0.60919 0.04567 0.31306 0.0
H1169 H 0.59825 0.02673 0.25753 0.0
H1170 H 0.55484 0.982 0.31965 0.0
H1171 H 0.56551 0.00088 0.37497 0.0
C1172 C 0.56167 0.9615 0.22005 0.0
C1173 C 0.56029 0.96868 0.18601 0.0
C1174 C 0.56619 0.97235 0.25199 0.0
C1175 C 0.56975 0.99077 0.25064 0.0
C1176 C 0.56803 -0.00219 0.2168 0.0
C1177 C 0.56323 0.98691 0.18506 0.0
C1178 C 0.59714 0.03191 0.31483 0.0
C1179 C 0.58825 0.02493 0.34869 0.0
C1180 C 0.59086 0.02103 0.28295 0.0
C1181 C 0.57573 0.00276 0.28414 0.0
C1182 C 0.56663 0.99592 0.31779 0.0
C1183 C 0.5727 0.00687 0.34949 0.0
H1184 H 0.97397 0.54647 0.35497 0.0
H1185 H 0.95655 0.58556 0.32414 0.0
H1186 H 0.99437 0.55564 0.30134 0.0
H1187 H 0.97711 0.59484 0.27104 0.0
H1188 H 0.03275 0.62282 0.20905 0.0
H1189 H 0.01255 0.6119 0.26279 0.0
H1190 H 0.99275 0.55522 0.23047 0.0
H1191 H 0.01276 0.56609 0.17631 0.0
C1192 C 0.97427 0.55682 0.33654 0.0
C1193 C 0.96348 0.56518 0.34395 0.0
C1194 C 0.986 0.5621 0.30583 0.0
C1195 C 0.98755 0.57614 0.28215 0.0
C1196 C 0.97644 0.58416 0.28901 0.0
C1197 C 0.96446 0.57866 0.31928 0.0
C1198 C 0.02437 0.60802 0.21366 0.0
C1199 C 0.02448 0.59536 0.18823 0.0
C1200 C 0.01261 0.60176 0.24429 0.0
C1201 C 0.00087 0.58268 0.25071 0.0
C1202 C 0.00162 0.57 0.22633 0.0
C1203 C 0.01313 0.57625 0.1953 0.0
H1204 H 0.38172 0.42959 0.22198 0.0
H1205 H 0.42598 0.43075 0.15799 0.0
H1206 H 0.39401 0.4225 0.27687 0.0
H1207 H 0.43791 0.42337 0.21254 0.0
H1208 H 0.43498 0.38447 0.31037 0.0
H1209 H 0.42608 0.39487 0.25507 0.0
H1210 H 0.42323 0.43729 0.31769 0.0
H1211 H 0.43241 0.42729 0.37258 0.0
C1212 C 0.39416 0.42857 0.2196 0.0
C1213 C 0.40283 0.43086 0.18538 0.0
C1214 C 0.4012 0.42449 0.25108 0.0
C1215 C 0.41689 0.42224 0.24904 0.0
C1216 C 0.42572 0.42483 0.21502 0.0
C1217 C 0.41892 0.42924 0.18377 0.0
C1218 C 0.43283 0.39624 0.31225 0.0
C1219 C 0.43451 0.405 0.34616 0.0
C1220 C 0.42768 0.40219 0.28054 0.0
C1221 C 0.42374 0.4168 0.28205 0.0
C1222 C 0.42593 0.42586 0.31564 0.0
C1223 C 0.43139 0.42018 0.34711 0.0
H1224 H 0.28475 0.16884 0.16793 0.0
H1225 H 0.34047 0.21128 0.13968 0.0
H1226 H 0.2962 0.14841 0.18675 0.0
H1227 H 0.35193 0.19046 0.15684 0.0
H1228 H 0.36897 0.15742 0.23017 0.0
H1229 H 0.35737 0.17758 0.20979 0.0
H1230 H 0.30841 0.12999 0.16597 0.0
H1231 H 0.31969 0.10978 0.18808 0.0
C1232 C 0.29944 0.17368 0.16517 0.0
C1233 C 0.31175 0.19165 0.15247 0.0
C1234 C 0.306 0.16192 0.17578 0.0
C1235 C 0.325 0.16777 0.17339 0.0
C1236 C 0.33726 0.18563 0.15973 0.0
C1237 C 0.33071 0.19752 0.14962 0.0
C1238 C 0.35568 0.15129 0.21634 0.0
C1239 C 0.34517 0.13207 0.2108 0.0
C1240 C 0.34911 0.16285 0.20432 0.0
C1241 C 0.332 0.15545 0.186 0.0
C1242 C 0.32151 0.13615 0.18047 0.0
C1243 C 0.32797 0.12456 0.19302 0.0
H1244 H 0.81896 0.11931 0.13965 0.0
H1245 H 0.76975 0.11953 0.17649 0.0
H1246 H 0.83808 0.15094 0.16077 0.0
H1247 H 0.78906 0.15121 0.19937 0.0
H1248 H 0.82991 0.21459 0.20131 0.0
H1249 H 0.80881 0.18283 0.18192 0.0
H1250 H 0.84882 0.16715 0.21648 0.0
H1251 H 0.87019 0.19908 0.23417 0.0
C1252 C 0.81225 0.12617 0.15242 0.0
C1253 C 0.79291 0.117 0.15665 0.0
C1254 C 0.82323 0.14425 0.1649 0.0
C1255 C 0.81517 0.1535 0.1825 0.0
C1256 C 0.79571 0.14449 0.18583 0.0
C1257 C 0.78465 0.12639 0.17277 0.0
C1258 C 0.83408 0.20428 0.20505 0.0
C1259 C 0.85174 0.20929 0.21885 0.0
C1260 C 0.82196 0.18607 0.19407 0.0
C1261 C 0.82722 0.17248 0.19711 0.0
C1262 C 0.84454 0.17737 0.21277 0.0
C1263 C 0.85674 0.19563 0.22321 0.0
H1264 H 0.7842 0.62503 0.22513 0.0
H1265 H 0.78599 0.6754 0.18959 0.0
H1266 H 0.81606 0.6372 0.20469 0.0
H1267 H 0.8175 0.68725 0.16731 0.0
H1268 H 0.87979 0.71027 0.16303 0.0
H1269 H 0.84837 0.69885 0.18493 0.0
H1270 H 0.83359 0.64339 0.15068 0.0
H1271 H 0.86543 0.65478 0.13055 0.0
C1272 C 0.79145 0.63872 0.21292 0.0
C1273 C 0.7827 0.64931 0.20898 0.0
C1274 C 0.80963 0.64562 0.20081 0.0
C1275 C 0.81932 0.66313 0.18393 0.0
C1276 C 0.81058 0.67382 0.18059 0.0
C1277 C 0.79251 0.66704 0.1933 0.0
C1278 C 0.86978 0.69566 0.15993 0.0
C1279 C 0.87502 0.68338 0.14518 0.0
C1280 C 0.85172 0.68911 0.17238 0.0
C1281 C 0.83842 0.67017 0.16978 0.0
C1282 C 0.84357 0.65799 0.15391 0.0
C1283 C 0.86175 0.66451 0.14202 0.0
H1284 H 0.11441 0.31818 0.3015 0.0
H1285 H 0.15548 0.37515 0.32423 0.0
H1286 H 0.13592 0.30828 0.32249 0.0
H1287 H 0.17666 0.36526 0.3468 0.0
H1288 H 0.21619 0.34213 0.35451 0.0
H1289 H 0.19586 0.35294 0.33056 0.0
H1290 H 0.1485 0.3052 0.37843 0.0
H1291 H 0.16872 0.29408 0.40078 0.0
C1292 C 0.12805 0.32857 0.31094 0.0
C1293 C 0.13328 0.3474 0.31132 0.0
C1294 C 0.14032 0.32291 0.32331 0.0
C1295 C 0.15794 0.33596 0.3368 0.0
C1296 C 0.16329 0.35486 0.33626 0.0
C1297 C 0.15112 0.36052 0.32343 0.0
C1298 C 0.20145 0.33409 0.36016 0.0
C1299 C 0.19398 0.31726 0.37931 0.0
C1300 C 0.18979 0.34026 0.34648 0.0
C1301 C 0.1705 0.32981 0.35216 0.0
C1302 C 0.16321 0.31333 0.37264 0.0
C1303 C 0.17481 0.30706 0.38582 0.0
H1304 H 0.69804 0.87359 0.39984 0.0
H1305 H 0.65006 0.87388 0.35545 0.0
H1306 H 0.68666 0.84247 0.37604 0.0
H1307 H 0.63903 0.84306 0.32996 0.0
H1308 H 0.61611 0.78056 0.32131 0.0
H1309 H 0.62643 0.81149 0.34484 0.0
H1310 H 0.68324 0.82715 0.31972 0.0
H1311 H 0.67289 0.79581 0.29784 0.0
C1312 C 0.68503 0.86695 0.38498 0.0
C1313 C 0.6749 0.87607 0.37947 0.0
C1314 C 0.67861 0.84921 0.37096 0.0
C1315 C 0.66207 0.84036 0.35059 0.0
C1316 C 0.65173 0.84938 0.3458 0.0
C1317 C 0.65803 0.86703 0.36037 0.0
C1318 C 0.63079 0.79068 0.32049 0.0
C1319 C 0.64374 0.7858 0.30795 0.0
C1320 C 0.63671 0.80844 0.33388 0.0
C1321 C 0.65568 0.82178 0.33452 0.0
C1322 C 0.66855 0.81707 0.32049 0.0
C1323 C 0.66264 0.7992 0.30761 0.0
H1324 H 0.11868 0.82255 0.39629 0.0
H1325 H 0.1213 0.77454 0.35998 0.0
H1326 H 0.15061 0.84261 0.37663 0.0
H1327 H 0.15291 0.79458 0.33859 0.0
H1328 H 0.20032 0.87499 0.30276 0.0
H1329 H 0.16852 0.85444 0.32301 0.0
H1330 H 0.18363 0.81397 0.35732 0.0
H1331 H 0.21503 0.8341 0.33541 0.0
C1332 C 0.12612 0.81631 0.38407 0.0
C1333 C 0.11757 0.79701 0.3797 0.0
C1334 C 0.14435 0.82781 0.37244 0.0
C1335 C 0.15432 0.82027 0.35566 0.0
C1336 C 0.14578 0.80089 0.35184 0.0
C1337 C 0.12764 0.78937 0.36401 0.0
C1338 C 0.19674 0.86163 0.31436 0.0
C1339 C 0.21009 0.8561 0.3174 0.0
C1340 C 0.17858 0.84991 0.32629 0.0
C1341 C 0.17349 0.83256 0.34204 0.0
C1342 C 0.18692 0.82707 0.34481 0.0
C1343 C 0.20496 0.83865 0.33237 0.0
H1344 H 0.6737 0.88153 0.83949 0.0
H1345 H 0.62177 0.83358 0.80833 0.0
H1346 H 0.68543 0.86133 0.85908 0.0
H1347 H 0.63372 0.81335 0.82642 0.0
H1348 H 0.65354 0.78172 0.89798 0.0
H1349 H 0.64159 0.802 0.87937 0.0
H1350 H 0.69561 0.84144 0.83625 0.0
H1351 H 0.70761 0.82166 0.8562 0.0
C1352 C 0.66492 0.86667 0.8363 0.0
C1353 C 0.64685 0.85911 0.82242 0.0
C1354 C 0.67163 0.85507 0.84743 0.0
C1355 C 0.6605 0.83568 0.84441 0.0
C1356 C 0.64253 0.82818 0.8298 0.0
C1357 C 0.63575 0.83978 0.81911 0.0
C1358 C 0.66282 0.79478 0.88467 0.0
C1359 C 0.6815 0.80017 0.87871 0.0
C1360 C 0.65597 0.80633 0.87377 0.0
C1361 C 0.66765 0.82337 0.85632 0.0
C1362 C 0.68631 0.82862 0.85024 0.0
C1363 C 0.69317 0.81722 0.86152 0.0
H1364 H 0.11523 0.7922 0.79947 0.0
H1365 H 0.15645 0.77714 0.82745 0.0
H1366 H 0.1358 0.8236 0.82178 0.0
H1367 H 0.17654 0.80803 0.8514 0.0
H1368 H 0.21554 0.87006 0.86048 0.0
H1369 H 0.19572 0.83919 0.83569 0.0
H1370 H 0.14738 0.83985 0.8774 0.0
H1371 H 0.16725 0.87116 0.90051 0.0
C1372 C 0.1287 0.79564 0.81032 0.0
C1373 C 0.13428 0.7823 0.81165 0.0
C1374 C 0.1404 0.81354 0.82347 0.0
C1375 C 0.15778 0.81832 0.83872 0.0
C1376 C 0.16341 0.80497 0.83938 0.0
C1377 C 0.15185 0.78721 0.82573 0.0
C1378 C 0.20069 0.86351 0.86466 0.0
C1379 C 0.1929 0.87295 0.88237 0.0
C1380 C 0.18931 0.84579 0.85048 0.0
C1381 C 0.16991 0.83705 0.8543 0.0
C1382 C 0.16221 0.84633 0.87317 0.0
C1383 C 0.17359 0.86417 0.88681 0.0
H1384 H 0.1158 0.33784 0.86368 0.0
H1385 H 0.11301 0.28664 0.8964 0.0
H1386 H 0.14748 0.34963 0.8422 0.0
H1387 H 0.14496 0.29869 0.87691 0.0
H1388 H 0.19539 0.31703 0.80548 0.0
H1389 H 0.16331 0.30556 0.82414 0.0
H1390 H 0.17801 0.3606 0.86122 0.0
H1391 H 0.20965 0.37211 0.84072 0.0
C1392 C 0.12212 0.32927 0.86687 0.0
C1393 C 0.11202 0.31136 0.88158 0.0
C1394 C 0.14028 0.33601 0.85466 0.0
C1395 C 0.14878 0.32507 0.85759 0.0
C1396 C 0.13874 0.30732 0.87334 0.0
C1397 C 0.1205 0.30048 0.88489 0.0
C1398 C 0.19164 0.32664 0.81734 0.0
C1399 C 0.20493 0.34543 0.82159 0.0
C1400 C 0.17332 0.32008 0.82834 0.0
C1401 C 0.16805 0.33213 0.84444 0.0
C1402 C 0.18143 0.35097 0.84838 0.0
C1403 C 0.19962 0.35756 0.83679 0.0
H1404 H 0.88155 0.67201 0.68857 0.0
H1405 H 0.83326 0.6237 0.73179 0.0
H1406 H 0.86183 0.68308 0.66315 0.0
H1407 H 0.81351 0.63519 0.70809 0.0
H1408 H 0.78084 0.65017 0.63083 0.0
H1409 H 0.80144 0.63929 0.65274 0.0
H1410 H 0.84319 0.6958 0.67802 0.0
H1411 H 0.823 0.70663 0.65438 0.0
C1412 C 0.86673 0.66395 0.69326 0.0
C1413 C 0.85891 0.64701 0.71211 0.0
C1414 C 0.8554 0.67031 0.67874 0.0
C1415 C 0.83603 0.65999 0.68332 0.0
C1416 C 0.82831 0.64328 0.70323 0.0
C1417 C 0.83962 0.63679 0.71721 0.0
C1418 C 0.79453 0.66024 0.64061 0.0
C1419 C 0.80035 0.67922 0.64087 0.0
C1420 C 0.80627 0.65401 0.65355 0.0
C1421 C 0.82393 0.66664 0.66756 0.0
C1422 C 0.82982 0.68568 0.667 0.0
C1423 C 0.81822 0.69191 0.65352 0.0
H1424 H 0.37062 0.21271 0.69873 0.0
H1425 H 0.31497 0.1987 0.72946 0.0
H1426 H 0.35939 0.18098 0.67936 0.0
H1427 H 0.30375 0.16654 0.71191 0.0
H1428 H 0.28621 0.11629 0.63983 0.0
H1429 H 0.29782 0.14813 0.65942 0.0
H1430 H 0.34793 0.15048 0.6994 0.0
H1431 H 0.33663 0.11891 0.67788 0.0
C1432 C 0.356 0.20272 0.70192 0.0
C1433 C 0.34363 0.20812 0.71549 0.0
C1434 C 0.34956 0.18448 0.69099 0.0
C1435 C 0.33064 0.17116 0.69398 0.0
C1436 C 0.31834 0.17652 0.7085 0.0
C1437 C 0.32476 0.19488 0.71884 0.0
C1438 C 0.29976 0.1237 0.6526 0.0
C1439 C 0.31057 0.11523 0.6573 0.0
C1440 C 0.30635 0.14188 0.66418 0.0
C1441 C 0.32376 0.15186 0.68131 0.0
C1442 C 0.33459 0.14333 0.68583 0.0
C1443 C 0.32812 0.12523 0.67362 0.0
H1444 H 0.8697 0.2146 0.66429 0.0
H1445 H 0.8718 0.16755 0.62017 0.0
H1446 H 0.83831 0.19413 0.68598 0.0
H1447 H 0.83997 0.14705 0.64013 0.0
H1448 H 0.7913 0.11334 0.71662 0.0
H1449 H 0.82268 0.13395 0.69408 0.0
H1450 H 0.80746 0.17536 0.6682 0.0
H1451 H 0.77661 0.1552 0.69245 0.0
C1452 C 0.86326 0.1999 0.65853 0.0
C1453 C 0.87314 0.19263 0.64064 0.0
C1454 C 0.84523 0.18814 0.67087 0.0
C1455 C 0.83659 0.16888 0.665 0.0
C1456 C 0.84632 0.16174 0.64588 0.0
C1457 C 0.86448 0.17349 0.63408 0.0
C1458 C 0.79479 0.12691 0.70634 0.0
C1459 C 0.78162 0.13274 0.7065 0.0
C1460 C 0.81268 0.13867 0.69309 0.0
C1461 C 0.81762 0.15634 0.6792 0.0
C1462 C 0.80431 0.16203 0.6793 0.0
C1463 C 0.78658 0.15044 0.6931 0.0
H1464 H 0.02808 0.48754 0.55411 0.0
H1465 H 0.97856 0.43849 0.51734 0.0
H1466 H 0.01562 0.50676 0.53303 0.0
H1467 H 0.9663 0.45786 0.49432 0.0
H1468 H 0.94344 0.49826 0.49141 0.0
H1469 H 0.95429 0.47732 0.51109 0.0
H1470 H 0.01009 0.51789 0.47832 0.0
H1471 H -0.00067 0.53912 0.46053 0.0
C1472 C 0.01451 0.48089 0.54131 0.0
C1473 C 0.00428 0.46157 0.53719 0.0
C1474 C 0.00744 0.49192 0.52885 0.0
C1475 C 0.9901 0.48393 0.51128 0.0
C1476 C 0.97965 0.46448 0.5079 0.0
C1477 C 0.98665 0.45338 0.52101 0.0
C1478 C 0.958 0.50259 0.48815 0.0
C1479 C 0.97061 0.52035 0.47481 0.0
C1480 C 0.96421 0.49057 0.4993 0.0
C1481 C 0.98312 0.49599 0.49681 0.0
C1482 C -0.00448 0.51345 0.48165 0.0
C1483 C 0.98936 0.52557 0.47114 0.0
H1484 H 0.54163 0.53431 0.56015 0.0
H1485 H 0.50208 0.54936 0.51996 0.0
H1486 H 0.52062 0.50214 0.54289 0.0
H1487 H 0.48144 0.51747 0.50123 0.0
H1488 H 0.44114 0.45489 0.50355 0.0
H1489 H 0.46124 0.48698 0.52307 0.0
H1490 H 0.50939 0.48367 0.48967 0.0
H1491 H 0.48942 0.45158 0.47184 0.0
C1492 C 0.5285 0.53074 0.54743 0.0
C1493 C 0.52349 0.54429 0.54134 0.0
C1494 C 0.51649 0.51235 0.53732 0.0
C1495 C 0.49937 0.50723 0.52044 0.0
C1496 C 0.49437 0.52085 0.51463 0.0
C1497 C 0.50626 0.53916 0.52517 0.0
C1498 C 0.45601 0.46112 0.50029 0.0
C1499 C 0.46375 0.45078 0.48645 0.0
C1500 C 0.46754 0.47949 0.51136 0.0
C1501 C 0.48697 0.48785 0.50828 0.0
C1502 C 0.49455 0.47755 0.49336 0.0
C1503 C 0.48309 0.4592 0.48282 0.0
H1504 H 0.54477 0.04092 0.50329 0.0
H1505 H 0.53214 0.98527 0.47651 0.0
H1506 H 0.5132 0.0291 0.52459 0.0
H1507 H 0.50011 0.97341 0.49602 0.0
H1508 H 0.45011 0.95573 0.56929 0.0
H1509 H 0.48199 0.96785 0.549 0.0
H1510 H 0.48243 0.01647 0.50561 0.0
H1511 H 0.45091 0.00471 0.52773 0.0
C1512 C 0.53511 0.02616 0.50138 0.0
C1513 C 0.54086 0.01399 0.48827 0.0
C1514 C 0.51696 0.01938 0.51345 0.0
C1515 C 0.50405 0.00028 0.51207 0.0
C1516 C 0.50977 0.98815 0.49817 0.0
C1517 C 0.52805 0.99493 0.48668 0.0
C1518 C 0.45713 0.96908 0.55567 0.0
C1519 C 0.44813 0.97934 0.55017 0.0
C1520 C 0.47533 0.97595 0.5437 0.0
C1521 C 0.48479 0.9931 0.5254 0.0
C1522 C 0.47572 0.00337 0.52011 0.0
C1523 C 0.45763 -0.00338 0.53267 0.0
H1524 H 0.44751 0.98686 0.97134 0.0
H1525 H 0.48886 0.04229 1.00379 0.0
H1526 H 0.4679 0.97534 0.99152 0.0
H1527 H 0.50883 0.03077 0.02532 0.0
H1528 H 0.54788 0.00733 0.02635 0.0
H1529 H 0.52789 0.01901 1.00493 0.0
H1530 H 0.47988 0.96956 0.046 0.0
H1531 H 0.49983 0.95761 0.06594 0.0
C1532 C 0.46092 -0.00346 0.98287 0.0
C1533 C 0.46663 0.01545 0.9859 0.0
C1534 C 0.47255 0.98996 0.9947 0.0
C1535 C 0.49 0.00213 1.01017 0.0
C1536 C 0.49565 0.02105 1.013 0.0
C1537 C 0.48414 0.02764 1.00081 0.0
C1538 C 0.53307 -0.00094 0.03102 0.0
C1539 C 0.52539 0.98158 0.04771 0.0
C1540 C 0.5216 0.00574 0.01883 0.0
C1541 C 0.50224 0.99516 0.02354 0.0
C1542 C 0.49466 0.97788 0.04118 0.0
C1543 C 0.50611 0.97111 0.05294 0.0
H1544 H 0.03546 0.54233 0.07193 0.0
H1545 H 0.98561 0.53997 0.03099 0.0
H1546 H 0.0242 0.51066 0.05113 0.0
H1547 H 0.97476 0.50877 1.00838 0.0
H1548 H 0.9522 0.44713 1.00218 0.0
H1549 H 0.96307 0.47804 0.02602 0.0
H1550 H 0.01939 0.49333 0.99708 0.0
H1551 H 0.00845 0.46184 0.97501 0.0
C1552 C 0.02207 0.53499 0.05851 0.0
C1553 C 0.01135 0.5435 0.05316 0.0
C1554 C 0.01571 0.51693 0.04621 0.0
C1555 C -0.00137 0.50718 0.02779 0.0
C1556 C 0.98783 0.51571 0.02297 0.0
C1557 C 0.99404 0.53362 0.03586 0.0
C1558 C 0.9669 0.45713 1.00072 0.0
C1559 C 0.97951 0.45215 0.98668 0.0
C1560 C 0.97314 0.4749 1.01427 0.0
C1561 C 0.99211 0.48823 1.01346 0.0
C1562 C 0.00471 0.48331 0.99878 0.0
C1563 C -0.00153 0.46536 0.9858 0.0
H1564 H 0.44385 0.49036 0.03184 0.0
H1565 H 0.45839 0.44828 0.05512 0.0
H1566 H 0.47505 0.51093 1.00962 0.0
H1567 H 0.49004 0.46926 0.03444 0.0
H1568 H 0.53865 0.50306 0.95916 0.0
H1569 H 0.50697 0.48257 0.97977 0.0
H1570 H 0.50603 0.52939 0.02889 0.0
H1571 H 0.53737 0.54992 1.00672 0.0
C1572 C 0.45384 0.48563 0.03274 0.0
C1573 C 0.44875 0.46774 0.04516 0.0
C1574 C 0.47176 0.49746 0.02013 0.0
C1575 C 0.48505 0.49175 0.02019 0.0
C1576 C 0.48002 0.47395 0.03337 0.0
C1577 C 0.46198 0.46199 0.04551 0.0
C1578 C 0.53156 0.50895 0.97404 0.0
C1579 C 0.54038 0.52803 0.98133 0.0
C1580 C 0.5135 0.49721 0.98618 0.0
C1581 C 0.50402 0.5043 1.00629 0.0
C1582 C 0.51282 0.52349 1.01306 0.0
C1583 C 0.53079 0.53526 1.00044 0.0
H1584 H 0.44403 0.05664 0.07552 0.0
H1585 H 0.41886 0.07609 0.99716 0.0
H1586 H 0.43715 0.0719 0.12473 0.0
H1587 H 0.41072 0.09049 0.04673 0.0
H1588 H 0.4028 0.12116 0.13847 0.0
H1589 H 0.41778 0.11257 0.09121 0.0
H1590 H 0.41317 0.06837 0.1609 0.0
H1591 H 0.39929 0.07797 0.20876 0.0
C1592 C 0.43707 0.06434 0.06885 0.0
C1593 C 0.43201 0.06522 0.03248 0.0
C1594 C 0.43289 0.07293 0.09723 0.0
C1595 C 0.42302 0.08229 0.09034 0.0
C1596 C 0.41854 0.0837 0.05349 0.0
C1597 C 0.42315 0.07541 0.02486 0.0
C1598 C 0.40568 0.11005 0.14404 0.0
C1599 C 0.40025 0.10047 0.17753 0.0
C1600 C 0.41395 0.10485 0.11663 0.0
C1601 C 0.41654 0.0895 0.12149 0.0
C1602 C 0.41179 0.08044 0.1559 0.0
C1603 C 0.40385 0.08595 0.18364 0.0
H1604 H 0.893 0.27792 0.11596 0.0
H1605 H 0.88922 0.3133 0.19778 0.0
H1606 H 0.90228 0.3022 0.07046 0.0
H1607 H 0.89798 0.33765 0.15158 0.0
H1608 H 0.94073 0.38356 0.07621 0.0
H1609 H 0.92515 0.3587 0.11997 0.0
H1610 H 0.89499 0.32083 0.0319 0.0
H1611 H 0.91132 0.34607 0.98737 0.0
C1612 C 0.89389 0.29084 0.12419 0.0
C1613 C 0.89053 0.2937 0.16075 0.0
C1614 C 0.89905 0.30476 0.0978 0.0
C1615 C 0.90097 0.32202 0.10705 0.0
C1616 C 0.89693 0.32466 0.14342 0.0
C1617 C 0.89182 0.31068 0.16997 0.0
C1618 C 0.93062 0.36999 0.06599 0.0
C1619 C 0.92741 0.3668 0.02813 0.0
C1620 C 0.9215 0.35568 0.09134 0.0
C1621 C 0.90877 0.33761 0.07979 0.0
C1622 C 0.90489 0.33451 0.04189 0.0
C1623 C 0.9141 0.34898 0.01631 0.0
H1624 H 0.64704 0.5654 0.98258 0.0
H1625 H 0.60856 0.55165 0.07227 0.0
H1626 H 0.67246 0.57472 0.02675 0.0
H1627 H 0.63359 0.56138 0.11584 0.0
H1628 H 0.68056 0.57478 0.19261 0.0
H1629 H 0.65658 0.5579 0.14627 0.0
H1630 H 0.68918 0.6002 0.06651 0.0
H1631 H 0.71308 0.61645 0.11193 0.0
C1632 C 0.64395 0.56404 1.01161 0.0
C1633 C 0.62581 0.55796 0.02383 0.0
C1634 C 0.65852 0.56956 0.03703 0.0
C1635 C 0.65522 0.56905 0.07515 0.0
C1636 C 0.63683 0.56185 0.08701 0.0
C1637 C 0.62241 0.5564 0.0618 0.0
C1638 C 0.68265 0.58027 0.16503 0.0
C1639 C 0.69869 0.59704 0.15618 0.0
C1640 C 0.66888 0.57067 0.13841 0.0
C1641 C 0.6708 0.57766 0.10238 0.0
C1642 C 0.68719 0.59411 0.09351 0.0
C1643 C 0.70089 0.6036 0.11992 0.0
H1644 H 0.09691 0.37931 0.40851 0.0
H1645 H 0.09379 0.41321 0.3224 0.0
H1646 H 0.08801 0.39489 0.45333 0.0
H1647 H 0.08523 0.42934 0.36783 0.0
H1648 H 0.04237 0.4301 0.44778 0.0
H1649 H 0.05822 0.42151 0.40321 0.0
H1650 H 0.0949 0.42221 0.48779 0.0
H1651 H 0.07846 0.43056 0.53323 0.0
C1652 C 0.09458 0.39033 0.39914 0.0
C1653 C 0.09587 0.39485 0.36166 0.0
C1654 C 0.08965 0.39944 0.4251 0.0
C1655 C 0.0858 0.41339 0.41446 0.0
C1656 C 0.08785 0.41849 0.37707 0.0
C1657 C 0.09285 0.40933 0.35097 0.0
C1658 C 0.05396 0.42865 0.45702 0.0
C1659 C 0.05902 0.43085 0.49426 0.0
C1660 C 0.06322 0.42388 0.43117 0.0
C1661 C 0.07787 0.42108 0.44163 0.0
C1662 C 0.08353 0.42405 0.47873 0.0
C1663 C 0.07423 0.42897 0.50479 0.0
H1664 H 0.5657 0.61481 0.4504 0.0
H1665 H 0.55884 0.6489 0.53091 0.0
H1666 H 0.57375 0.63857 0.40445 0.0
H1667 H 0.5667 0.67294 0.48405 0.0
H1668 H 0.60882 0.71908 0.40547 0.0
H1669 H 0.59411 0.69483 0.45109 0.0
H1670 H 0.5637 0.65521 0.36572 0.0
H1671 H 0.57892 0.67973 0.31951 0.0
C1672 C 0.5657 0.62736 0.4583 0.0
C1673 C 0.56175 0.62998 0.49459 0.0
C1674 C 0.57015 0.64097 0.43161 0.0
C1675 C 0.57085 0.65774 0.44025 0.0
C1676 C 0.56644 0.66024 0.47641 0.0
C1677 C 0.56187 0.64647 0.50329 0.0
C1678 C 0.59882 0.70524 0.39629 0.0
C1679 C 0.59521 0.70131 0.35869 0.0
C1680 C 0.59022 0.69131 0.42267 0.0
C1681 C 0.57776 0.67296 0.41232 0.0
C1682 C 0.57344 0.66916 0.37473 0.0
C1683 C 0.58204 0.6832 0.3482 0.0
H1684 H 0.3817 0.92567 0.46821 0.0
H1685 H 0.33976 0.92153 0.54294 0.0
H1686 H 0.35845 0.91059 0.42055 0.0
H1687 H 0.31646 0.9076 0.49473 0.0
H1688 H 0.2748 0.87665 0.40758 0.0
H1689 H 0.29749 0.88432 0.45609 0.0
H1690 H 0.34152 0.91626 0.3787 0.0
H1691 H 0.31857 0.90731 0.32977 0.0
C1692 C 0.36734 0.9212 0.47454 0.0
C1693 C 0.36247 0.92451 0.50942 0.0
C1694 C 0.35399 0.91283 0.44694 0.0
C1695 C 0.33539 0.90802 0.45302 0.0
C1696 C 0.33046 0.91073 0.48866 0.0
C1697 C 0.34381 0.91873 0.51658 0.0
C1698 C 0.2894 0.88498 0.40087 0.0
C1699 C 0.29493 0.8913 0.36485 0.0
C1700 C 0.30247 0.88963 0.42889 0.0
C1701 C 0.32155 0.90125 0.42203 0.0
C1702 C 0.32708 0.90707 0.38545 0.0
C1703 C 0.31393 0.90198 0.35715 0.0
H1704 H 0.5736 0.88998 0.83278 0.0
H1705 H 0.61126 0.89347 0.91784 0.0
H1706 H 0.55649 0.89749 0.87799 0.0
H1707 H 0.59488 0.9015 0.96213 0.0
H1708 H 0.55963 0.90986 0.04333 0.0
H1709 H 0.56868 0.89365 0.99894 0.0
H1710 H 0.56093 0.92376 0.9107 0.0
H1711 H 0.55141 0.93919 0.95441 0.0
C1712 C 0.57813 0.89218 0.86106 0.0
C1713 C 0.59389 0.89125 0.87148 0.0
C1714 C 0.56842 0.8966 0.88705 0.0
C1715 C 0.57428 0.90022 0.92401 0.0
C1716 C 0.58964 0.89856 0.93436 0.0
C1717 C 0.59923 0.89413 0.9086 0.0
C1718 C 0.55946 0.91262 1.01438 0.0
C1719 C 0.55497 0.92595 1.00254 0.0
C1720 C 0.56482 0.90349 0.98884 0.0
C1721 C 0.56578 0.90748 0.95094 0.0
C1722 C 0.56023 0.92005 0.93931 0.0
C1723 C 0.55491 0.9291 0.96464 0.0
H1724 H 0.08136 0.64851 0.03965 0.0
H1725 H 0.04791 0.61023 0.95485 0.0
H1726 H 0.0972 0.67273 0.9931 0.0
H1727 H 0.0631 0.6342 0.90904 0.0
H1728 H 0.09813 0.6781 0.82715 0.0
H1729 H 0.08991 0.65414 0.87414 0.0
H1730 H 0.08939 0.69138 0.95591 0.0
H1731 H 0.09801 0.71516 0.90969 0.0
C1732 C 0.07756 0.6452 1.01114 0.0
C1733 C 0.06327 0.62749 1.00109 0.0
C1734 C 0.08652 0.65909 0.98441 0.0
C1735 C 0.08139 0.65553 0.9471 0.0
C1736 C 0.06768 0.63752 0.93718 0.0
C1737 C 0.05879 0.62376 0.96371 0.0
C1738 C 0.09652 0.68119 0.85527 0.0
C1739 C 0.09859 0.6985 0.86451 0.0
C1740 C 0.09171 0.66745 0.88225 0.0
C1741 C 0.08888 0.67072 0.91904 0.0
C1742 C 0.09168 0.68832 0.92822 0.0
C1743 C 0.09646 0.70196 0.90143 0.0
H1744 H 0.30918 0.41586 0.83239 0.0
H1745 H 0.27432 0.37831 0.91692 0.0
H1746 H 0.3338 0.43237 0.87783 0.0
H1747 H 0.29875 0.39417 0.96152 0.0
H1748 H 0.34271 0.42938 0.04276 0.0
H1749 H 0.31752 0.4206 0.99823 0.0
H1750 H 0.35496 0.42652 0.91047 0.0
H1751 H 0.37982 0.43569 0.95425 0.0
C1752 C 0.30671 0.41124 0.86061 0.0
C1753 C 0.28984 0.39567 0.87084 0.0
C1754 C 0.32083 0.42061 0.88671 0.0
C1755 C 0.31838 0.4146 0.92358 0.0
C1756 C 0.30118 0.39947 0.93377 0.0
C1757 C 0.28717 0.3902 0.90788 0.0
C1758 C 0.34555 0.42915 1.01388 0.0
C1759 C 0.36322 0.43307 1.00219 0.0
C1760 C 0.33112 0.42398 0.98829 0.0
C1761 C 0.33409 0.42268 0.95052 0.0
C1762 C 0.35205 0.42754 0.93901 0.0
C1763 C 0.36634 0.43264 0.96438 0.0
H1764 H 0.90532 0.58565 0.70587 0.0
H1765 H 0.87189 0.59469 0.62764 0.0
H1766 H 0.91441 0.57123 0.65851 0.0
H1767 H 0.87927 0.57867 0.58088 0.0
H1768 H 0.91474 0.57254 0.49264 0.0
H1769 H 0.90101 0.58216 0.54048 0.0
H1770 H 0.91101 0.54915 0.61916 0.0
H1771 H 0.9263 0.54122 0.57176 0.0
C1772 C 0.89941 0.58396 0.67879 0.0
C1773 C 0.88805 0.59144 0.6704 0.0
C1774 C 0.90453 0.57555 0.65133 0.0
C1775 C 0.89793 0.57389 0.61498 0.0
C1776 C 0.88534 0.58017 0.60774 0.0
C1777 C 0.88078 0.58911 0.63483 0.0
C1778 C 0.91384 0.56727 0.52012 0.0
C1779 C 0.9218 0.55633 0.5285 0.0
C1780 C 0.90579 0.57266 0.54785 0.0
C1781 C 0.90494 0.56673 0.58453 0.0
C1782 C 0.91185 0.55468 0.59197 0.0
C1783 C 0.92042 0.54985 0.56455 0.0
H1784 H 0.37894 0.27661 0.61899 0.0
H1785 H 0.41327 0.31311 0.70518 0.0
H1786 H 0.3952 0.30084 0.57412 0.0
H1787 H 0.43017 0.33758 0.65958 0.0
H1788 H 0.43247 0.38176 0.57898 0.0
H1789 H 0.42358 0.35743 0.62389 0.0
H1790 H 0.42233 0.32051 0.53938 0.0
H1791 H 0.43089 0.34517 0.49359 0.0
C1792 C 0.39022 0.28979 0.62838 0.0
C1793 C 0.39463 0.29296 0.6659 0.0
C1794 C 0.39973 0.30369 0.60236 0.0
C1795 C 0.41403 0.32131 0.61292 0.0
C1796 C 0.41906 0.32427 0.65036 0.0
C1797 C 0.40947 0.31024 0.67657 0.0
C1798 C 0.43053 0.36853 0.56982 0.0
C1799 C 0.4322 0.36537 0.53248 0.0
C1800 C 0.4256 0.35455 0.59588 0.0
C1801 C 0.42211 0.33685 0.58557 0.0
C1802 C 0.42466 0.3339 0.54837 0.0
C1803 C 0.42971 0.34804 0.52208 0.0
H1804 H 0.60701 0.06356 0.57528 0.0
H1805 H 0.64913 0.07453 0.49478 0.0
H1806 H 0.63066 0.079 0.6219 0.0
H1807 H 0.67293 0.08857 0.54185 0.0
H1808 H 0.71515 0.11774 0.62829 0.0
H1809 H 0.6914 0.11062 0.58231 0.0
H1810 H 0.64947 0.07453 0.65993 0.0
H1811 H 0.67333 0.08313 0.70655 0.0
C1812 C 0.62145 0.06945 0.56754 0.0
C1813 C 0.62621 0.0678 0.53137 0.0
C1814 C 0.63508 0.07808 0.59451 0.0
C1815 C 0.65394 0.0848 0.58646 0.0
C1816 C 0.65872 0.08386 0.5496 0.0
C1817 C 0.64503 0.0757 0.52232 0.0
C1818 C 0.70075 0.1087 0.6357 0.0
C1819 C 0.69609 0.10103 0.67104 0.0
C1820 C 0.68707 0.10432 0.60907 0.0
C1821 C 0.66829 0.09159 0.61655 0.0
C1822 C 0.66361 0.08456 0.65269 0.0
C1823 C 0.67732 0.08943 0.6797 0.0
H1824 H 0.76073 0.74542 0.65432 0.0
H1825 H 0.77026 0.7153 0.7398 0.0
H1826 H 0.75204 0.76099 0.70087 0.0
H1827 H 0.76135 0.73039 0.7858 0.0
H1828 H 0.75215 0.76646 0.86609 0.0
H1829 H 0.76764 0.75812 0.81861 0.0
H1830 H 0.72573 0.75147 0.74052 0.0
H1831 H 0.71069 0.75999 0.78711 0.0
C1832 C 0.76123 0.74233 0.68297 0.0
C1833 C 0.76603 0.729 0.69324 0.0
C1834 C 0.75614 0.75113 0.70971 0.0
C1835 C 0.75585 0.74688 0.74728 0.0
C1836 C 0.76156 0.73423 0.75739 0.0
C1837 C 0.76653 0.72542 0.73081 0.0
C1838 C 0.74645 0.76344 0.83865 0.0
C1839 C 0.73011 0.76378 0.83058 0.0
C1840 C 0.75525 0.75858 0.81142 0.0
C1841 C 0.74797 0.7541 0.77552 0.0
C1842 C 0.73199 0.75509 0.76746 0.0
C1843 C 0.72321 0.7598 0.79451 0.0
H1844 H 0.27416 0.04587 0.74713 0.0
H1845 H 0.24013 0.00918 0.66088 0.0
H1846 H 0.25864 0.02146 0.79173 0.0
H1847 H 0.22388 0.98442 0.7064 0.0
H1848 H 0.22272 0.94056 0.78695 0.0
H1849 H 0.23084 0.96474 0.74189 0.0
H1850 H 0.23222 0.00154 0.82682 0.0
H1851 H 0.22458 0.97715 0.87262 0.0
C1852 C 0.26307 0.03259 0.73768 0.0
C1853 C 0.25855 0.02946 0.70019 0.0
C1854 C 0.25397 0.01856 0.76358 0.0
C1855 C 0.23996 0.00081 0.75301 0.0
C1856 C 0.23478 -0.00216 0.71562 0.0
C1857 C 0.24396 0.01204 0.68947 0.0
C1858 C 0.22456 0.95374 0.79617 0.0
C1859 C 0.22321 0.95696 0.83363 0.0
C1860 C 0.22905 0.96763 0.77003 0.0
C1861 C 0.23234 0.98526 0.7804 0.0
C1862 C 0.23009 0.98823 0.81774 0.0
C1863 C 0.22558 0.97424 0.84408 0.0
H1864 H 0.93904 0.21787 0.73959 0.0
H1865 H 0.9791 0.2292 0.65401 0.0
H1866 H 0.96303 0.22706 0.78561 0.0
H1867 H 0.00339 0.23809 0.70061 0.0
H1868 H 0.0429 0.2799 0.78701 0.0
H1869 H 0.01963 0.26414 0.74029 0.0
H1870 H 0.985 0.22213 0.8188 0.0
H1871 H 0.00851 0.23842 0.86646 0.0
C1872 C 0.95299 0.222 0.73058 0.0
C1873 C 0.95718 0.223 0.69298 0.0
C1874 C 0.96678 0.22714 0.75718 0.0
C1875 C 0.98528 0.2335 0.7471 0.0
C1876 C 0.98934 0.23354 0.70947 0.0
C1877 C 0.97542 0.2283 0.68268 0.0
C1878 C 0.0304 0.26721 0.79449 0.0
C1879 C 0.02754 0.26054 0.83075 0.0
C1880 C 0.01708 0.25801 0.76735 0.0
C1881 C 0.00034 0.24178 0.77544 0.0
C1882 C -0.00235 0.23471 0.81154 0.0
C1883 C 0.01113 0.24397 0.83889 0.0
H1884 H 0.27881 0.22842 0.24938 0.0
H1885 H 0.24083 0.22506 0.16514 0.0
H1886 H 0.26284 0.2368 0.29402 0.0
H1887 H 0.22417 0.23295 0.21067 0.0
H1888 H 0.21994 0.27508 0.28711 0.0
H1889 H 0.22915 0.25947 0.24325 0.0
H1890 H 0.23674 0.22914 0.33127 0.0
H1891 H 0.22798 0.24553 0.37583 0.0
C1892 C 0.26681 0.22919 0.2404 0.0
C1893 C 0.26125 0.22623 0.20341 0.0
C1894 C 0.25746 0.23382 0.26634 0.0
C1895 C 0.24214 0.23563 0.25631 0.0
C1896 C 0.23607 0.23195 0.21948 0.0
C1897 C 0.24553 0.22733 0.19331 0.0
C1898 C 0.22334 0.2649 0.29727 0.0
C1899 C 0.22342 0.26173 0.33515 0.0
C1900 C 0.22848 0.25576 0.27185 0.0
C1901 C 0.23388 0.24306 0.28338 0.0
C1902 C 0.23298 0.23907 0.32127 0.0
C1903 C 0.22779 0.2483 0.3469 0.0
H1904 H 0.76655 0.01368 0.16458 0.0
H1905 H 0.76071 0.0475 0.24719 0.0
H1906 H 0.75976 0.98971 0.21109 0.0
H1907 H 0.75357 0.02381 0.29269 0.0
H1908 H 0.7462 0.98179 0.37627 0.0
H1909 H 0.76253 0.00655 0.33088 0.0
H1910 H 0.73299 0.96765 0.24386 0.0
H1911 H 0.71734 0.94322 0.28864 0.0
C1912 C 0.76406 0.0161 0.1926 0.0
C1913 C 0.764 0.03244 0.20195 0.0
C1914 C 0.76006 0.00235 0.21931 0.0
C1915 C 0.75601 0.0047 0.25591 0.0
C1916 C 0.75685 0.02146 0.26522 0.0
C1917 C 0.76076 0.03504 0.23876 0.0
C1918 C 0.7436 0.97852 0.34741 0.0
C1919 C 0.73032 0.96058 0.33617 0.0
C1920 C 0.75281 0.99271 0.3213 0.0
C1921 C 0.74897 0.98924 0.28345 0.0
C1922 C 0.73654 0.97098 0.27246 0.0
C1923 C 0.72738 0.95692 0.29837 0.0
H1924 H 0.04882 0.76499 0.28234 0.0
H1925 H 0.01321 0.76496 0.36833 0.0
H1926 H 0.02437 0.75688 0.23781 0.0
H1927 H 0.98855 0.75719 0.32312 0.0
H1928 H 0.94321 0.71611 0.24316 0.0
H1929 H 0.96789 0.73054 0.28792 0.0
H1930 H 0.00541 0.76546 0.20328 0.0
H1931 H 0.98049 0.75047 0.15785 0.0
C1932 C 0.0358 0.76352 0.29173 0.0
C1933 C 0.03295 0.76548 0.32909 0.0
C1934 C 0.02177 0.75902 0.26593 0.0
C1935 C 0.00437 0.75631 0.27661 0.0
C1936 C 0.00169 0.75894 0.31387 0.0
C1937 C 0.01585 0.76351 0.33983 0.0
C1938 C 0.95667 0.72701 0.23399 0.0
C1939 C 0.95989 0.732 0.19674 0.0
C1940 C 0.97084 0.73545 0.25991 0.0
C1941 C 0.98877 0.74918 0.24946 0.0
C1942 C 0.99185 0.75476 0.21234 0.0
C1943 C 0.97755 0.74628 0.18627 0.0
loop_
_geom_bond_atom_site_label_1
_geom_bond_atom_site_label_2
_geom_bond_distance
_geom_bond_site_symmetry_2
_ccdc_geom_bond_type
Co0 O1 2.216 . S
Co0 O2 2.091 . S
Co0 O4 2.004 . S
Co0 O10 2.021 . S
Co0 O12 2.137 . S
Co0 O13 2.244 . S
O1 Co0 2.216 . S
O1 C8 1.247 . S
O2 Co0 2.091 . S
O2 C8 1.261 . S
C3 O12 1.247 . S
C3 O13 1.272 . S
O4 Co0 2.004 . S
O4 C9 1.259 . S
Co5 O6 2.061 . S
Co5 O11 2.052 . S
Co5 O13 2.135 . S
O6 Co5 2.061 . S
O6 C9 1.235 . S
C7 O10 1.238 . S
C7 O11 1.241 . S
C8 O1 1.247 . S
C8 O2 1.261 . S
C9 O4 1.259 . S
C9 O6 1.235 . S
O10 Co0 2.021 . S
O10 C7 1.238 . S
O11 Co5 2.052 . S
O11 C7 1.241 . S
O12 Co0 2.137 . S
O12 C3 1.247 . S
O13 Co0 2.244 . S
O13 C3 1.272 . S
O13 Co5 2.135 . S
Co14 O15 2.216 . S
Co14 O16 2.091 . S
Co14 O18 2.004 . S
Co14 O24 2.021 . S
Co14 O26 2.137 . S
Co14 O27 2.244 . S
O15 Co14 2.216 . S
O15 C22 1.247 . S
O16 Co14 2.091 . S
O16 C22 1.261 . S
C17 O26 1.247 . S
C17 O27 1.272 . S
O18 Co14 2.004 . S
O18 C23 1.259 . S
Co19 O20 2.061 . S
Co19 O25 2.052 . S
Co19 O27 2.135 . S
O20 Co19 2.061 . S
O20 C23 1.235 . S
C21 O24 1.238 . S
C21 O25 1.241 . S
C22 O15 1.247 . S
C22 O16 1.261 . S
C23 O18 1.259 . S
C23 O20 1.235 . S
O24 Co14 2.021 . S
O24 C21 1.238 . S
O25 Co19 2.052 . S
O25 C21 1.241 . S
O26 Co14 2.137 . S
O26 C17 1.247 . S
O27 Co14 2.244 . S
O27 C17 1.272 . S
O27 Co19 2.135 . S
Co28 O29 2.216 . S
Co28 O30 2.091 . S
Co28 O32 2.004 . S
Co28 O38 2.021 . S
Co28 O40 2.137 . S
Co28 O41 2.244 . S
O29 Co28 2.216 . S
O29 C36 1.247 . S
O30 Co28 2.091 . S
O30 C36 1.261 . S
C31 O40 1.247 . S
C31 O41 1.272 . S
O32 Co28 2.004 . S
O32 C37 1.259 . S
Co33 O34 2.061 . S
Co33 O39 2.052 . S
Co33 O41 2.135 . S
O34 Co33 2.061 . S
O34 C37 1.235 . S
C35 O38 1.238 . S
C35 O39 1.241 . S
C36 O29 1.247 . S
C36 O30 1.261 . S
C37 O32 1.259 . S
C37 O34 1.235 . S
O38 Co28 2.021 . S
O38 C35 1.238 . S
O39 Co33 2.052 . S
O39 C35 1.241 . S
O40 Co28 2.137 . S
O40 C31 1.247 . S
O41 Co28 2.244 . S
O41 C31 1.272 . S
O41 Co33 2.135 . S
Co42 O43 2.216 . S
Co42 O44 2.091 . S
Co42 O46 2.004 . S
Co42 O52 2.021 . S
Co42 O54 2.137 . S
Co42 O55 2.244 . S
O43 Co42 2.216 . S
O43 C50 1.247 . S
O44 Co42 2.091 . S
O44 C50 1.261 . S
C45 O54 1.247 . S
C45 O55 1.272 . S
O46 Co42 2.004 . S
O46 C51 1.259 . S
Co47 O48 2.061 . S
Co47 O53 2.052 . S
Co47 O55 2.135 . S
O48 Co47 2.061 . S
O48 C51 1.235 . S
C49 O52 1.238 . S
C49 O53 1.241 . S
C50 O43 1.247 . S
C50 O44 1.261 . S
C51 O46 1.259 . S
C51 O48 1.235 . S
O52 Co42 2.021 . S
O52 C49 1.238 . S
O53 Co47 2.052 . S
O53 C49 1.241 . S
O54 Co42 2.137 . S
O54 C45 1.247 . S
O55 Co42 2.244 . S
O55 C45 1.272 . S
O55 Co47 2.135 . S
Co56 O57 2.216 . S
Co56 O58 2.091 . S
Co56 O60 2.004 . S
Co56 O66 2.021 . S
Co56 O68 2.137 . S
Co56 O69 2.244 . S
O57 Co56 2.216 . S
O57 C64 1.247 . S
O58 Co56 2.091 . S
O58 C64 1.261 . S
C59 O68 1.247 . S
C59 O69 1.272 . S
O60 Co56 2.004 . S
O60 C65 1.259 . S
Co61 O62 2.061 . S
Co61 O67 2.052 . S
Co61 O69 2.135 . S
O62 Co61 2.061 . S
O62 C65 1.235 . S
C63 O66 1.238 . S
C63 O67 1.241 . S
C64 O57 1.247 . S
C64 O58 1.261 . S
C65 O60 1.259 . S
C65 O62 1.235 . S
O66 Co56 2.021 . S
O66 C63 1.238 . S
O67 Co61 2.052 . S
O67 C63 1.241 . S
O68 Co56 2.137 . S
O68 C59 1.247 . S
O69 Co56 2.244 . S
O69 C59 1.272 . S
O69 Co61 2.135 . S
Co70 O71 2.216 . S
Co70 O72 2.091 . S
Co70 O74 2.004 . S
Co70 O80 2.021 . S
Co70 O82 2.137 . S
Co70 O83 2.244 . S
O71 Co70 2.216 . S
O71 C78 1.247 . S
O72 Co70 2.091 . S
O72 C78 1.261 . S
C73 O82 1.247 . S
C73 O83 1.272 . S
O74 Co70 2.004 . S
O74 C79 1.259 . S
Co75 O76 2.061 . S
Co75 O81 2.052 . S
Co75 O83 2.135 . S
O76 Co75 2.061 . S
O76 C79 1.235 . S
C77 O80 1.238 . S
C77 O81 1.241 . S
C78 O71 1.247 . S
C78 O72 1.261 . S
C79 O74 1.259 . S
C79 O76 1.235 . S
O80 Co70 2.021 . S
O80 C77 1.238 . S
O81 Co75 2.052 . S
O81 C77 1.241 . S
O82 Co70 2.137 . S
O82 C73 1.247 . S
O83 Co70 2.244 . S
O83 C73 1.272 . S
O83 Co75 2.135 . S
Co84 O85 2.216 . S
Co84 O86 2.091 . S
Co84 O88 2.004 . S
Co84 O94 2.021 . S
Co84 O96 2.137 . S
Co84 O97 2.244 . S
O85 Co84 2.216 . S
O85 C92 1.247 . S
O86 Co84 2.091 . S
O86 C92 1.261 . S
C87 O96 1.247 . S
C87 O97 1.272 . S
O88 Co84 2.004 . S
O88 C93 1.259 . S
Co89 O90 2.061 . S
Co89 O95 2.052 . S
Co89 O97 2.135 . S
O90 Co89 2.061 . S
O90 C93 1.235 . S
C91 O94 1.238 . S
C91 O95 1.241 . S
C92 O85 1.247 . S
C92 O86 1.261 . S
C93 O88 1.259 . S
C93 O90 1.235 . S
O94 Co84 2.021 . S
O94 C91 1.238 . S
O95 Co89 2.052 . S
O95 C91 1.241 . S
O96 Co84 2.137 . S
O96 C87 1.247 . S
O97 Co84 2.244 . S
O97 C87 1.272 . S
O97 Co89 2.135 . S
Co98 O99 2.216 . S
Co98 O100 2.091 . S
Co98 O102 2.004 . S
Co98 O108 2.021 . S
Co98 O110 2.137 . S
Co98 O111 2.244 . S
O99 Co98 2.216 . S
O99 C106 1.247 . S
O100 Co98 2.091 . S
O100 C106 1.261 . S
C101 O110 1.247 . S
C101 O111 1.272 . S
O102 Co98 2.004 . S
O102 C107 1.259 . S
Co103 O104 2.061 . S
Co103 O109 2.052 . S
Co103 O111 2.135 . S
O104 Co103 2.061 . S
O104 C107 1.235 . S
C105 O108 1.238 . S
C105 O109 1.241 . S
C106 O99 1.247 . S
C106 O100 1.261 . S
C107 O102 1.259 . S
C107 O104 1.235 . S
O108 Co98 2.021 . S
O108 C105 1.238 . S
O109 Co103 2.052 . S
O109 C105 1.241 . S
O110 Co98 2.137 . S
O110 C101 1.247 . S
O111 Co98 2.244 . S
O111 C101 1.272 . S
O111 Co103 2.135 . S
Co112 O113 2.216 . S
Co112 O114 2.091 . S
Co112 O116 2.004 . S
Co112 O122 2.021 . S
Co112 O124 2.137 . S
Co112 O125 2.244 . S
O113 Co112 2.216 . S
O113 C120 1.247 . S
O114 Co112 2.091 . S
O114 C120 1.261 . S
C115 O124 1.247 . S
C115 O125 1.272 . S
O116 Co112 2.004 . S
O116 C121 1.259 . S
Co117 O118 2.061 . S
Co117 O123 2.052 . S
Co117 O125 2.135 . S
O118 Co117 2.061 . S
O118 C121 1.235 . S
C119 O122 1.238 . S
C119 O123 1.241 . S
C120 O113 1.247 . S
C120 O114 1.261 . S
C121 O116 1.259 . S
C121 O118 1.235 . S
O122 Co112 2.021 . S
O122 C119 1.238 . S
O123 Co117 2.052 . S
O123 C119 1.241 . S
O124 Co112 2.137 . S
O124 C115 1.247 . S
O125 Co112 2.244 . S
O125 C115 1.272 . S
O125 Co117 2.135 . S
Co126 O127 2.216 . S
Co126 O128 2.091 . S
Co126 O130 2.004 . S
Co126 O136 2.021 . S
Co126 O138 2.137 . S
Co126 O139 2.244 . S
O127 Co126 2.216 . S
O127 C134 1.247 . S
O128 Co126 2.091 . S
O128 C134 1.261 . S
C129 O138 1.247 . S
C129 O139 1.272 . S
O130 Co126 2.004 . S
O130 C135 1.259 . S
Co131 O132 2.061 . S
Co131 O137 2.052 . S
Co131 O139 2.135 . S
O132 Co131 2.061 . S
O132 C135 1.235 . S
C133 O136 1.238 . S
C133 O137 1.241 . S
C134 O127 1.247 . S
C134 O128 1.261 . S
C135 O130 1.259 . S
C135 O132 1.235 . S
O136 Co126 2.021 . S
O136 C133 1.238 . S
O137 Co131 2.052 . S
O137 C133 1.241 . S
O138 Co126 2.137 . S
O138 C129 1.247 . S
O139 Co126 2.244 . S
O139 C129 1.272 . S
O139 Co131 2.135 . S
Co140 O141 2.216 . S
Co140 O142 2.091 . S
Co140 O144 2.004 . S
Co140 O150 2.021 . S
Co140 O152 2.137 . S
Co140 O153 2.244 . S
O141 Co140 2.216 . S
O141 C148 1.247 . S
O142 Co140 2.091 . S
O142 C148 1.261 . S
C143 O152 1.247 . S
C143 O153 1.272 . S
O144 Co140 2.004 . S
O144 C149 1.259 . S
Co145 O146 2.061 . S
Co145 O151 2.052 . S
Co145 O153 2.135 . S
O146 Co145 2.061 . S
O146 C149 1.235 . S
C147 O150 1.238 . S
C147 O151 1.241 . S
C148 O141 1.247 . S
C148 O142 1.261 . S
C149 O144 1.259 . S
C149 O146 1.235 . S
O150 Co140 2.021 . S
O150 C147 1.238 . S
O151 Co145 2.052 . S
O151 C147 1.241 . S
O152 Co140 2.137 . S
O152 C143 1.247 . S
O153 Co140 2.244 . S
O153 C143 1.272 . S
O153 Co145 2.135 . S
Co154 O155 2.216 . S
Co154 O156 2.091 . S
Co154 O158 2.004 . S
Co154 O164 2.021 . S
Co154 O166 2.137 . S
Co154 O167 2.244 . S
O155 Co154 2.216 . S
O155 C162 1.247 . S
O156 Co154 2.091 . S
O156 C162 1.261 . S
C157 O166 1.247 . S
C157 O167 1.272 . S
O158 Co154 2.004 . S
O158 C163 1.259 . S
Co159 O160 2.061 . S
Co159 O165 2.052 . S
Co159 O167 2.135 . S
O160 Co159 2.061 . S
O160 C163 1.235 . S
C161 O164 1.238 . S
C161 O165 1.241 . S
C162 O155 1.247 . S
C162 O156 1.261 . S
C163 O158 1.259 . S
C163 O160 1.235 . S
O164 Co154 2.021 . S
O164 C161 1.238 . S
O165 Co159 2.052 . S
O165 C161 1.241 . S
O166 Co154 2.137 . S
O166 C157 1.247 . S
O167 Co154 2.244 . S
O167 C157 1.272 . S
O167 Co159 2.135 . S
Co168 O169 2.216 . S
Co168 O170 2.091 . S
Co168 O172 2.004 . S
Co168 O178 2.021 . S
Co168 O180 2.137 . S
Co168 O181 2.244 . S
O169 Co168 2.216 . S
O169 C176 1.247 . S
O170 Co168 2.091 . S
O170 C176 1.261 . S
C171 O180 1.247 . S
C171 O181 1.272 . S
O172 Co168 2.004 . S
O172 C177 1.259 . S
Co173 O174 2.061 . S
Co173 O179 2.052 . S
Co173 O181 2.135 . S
O174 Co173 2.061 . S
O174 C177 1.235 . S
C175 O178 1.238 . S
C175 O179 1.241 . S
C176 O169 1.247 . S
C176 O170 1.261 . S
C177 O172 1.259 . S
C177 O174 1.235 . S
O178 Co168 2.021 . S
O178 C175 1.238 . S
O179 Co173 2.052 . S
O179 C175 1.241 . S
O180 Co168 2.137 . S
O180 C171 1.247 . S
O181 Co168 2.244 . S
O181 C171 1.272 . S
O181 Co173 2.135 . S
Co182 O183 2.216 . S
Co182 O184 2.091 . S
Co182 O186 2.004 . S
Co182 O192 2.021 . S
Co182 O194 2.137 . S
Co182 O195 2.244 . S
O183 Co182 2.216 . S
O183 C190 1.247 . S
O184 Co182 2.091 . S
O184 C190 1.261 . S
C185 O194 1.247 . S
C185 O195 1.272 . S
O186 Co182 2.004 . S
O186 C191 1.259 . S
Co187 O188 2.061 . S
Co187 O193 2.052 . S
Co187 O195 2.135 . S
O188 Co187 2.061 . S
O188 C191 1.235 . S
C189 O192 1.238 . S
C189 O193 1.241 . S
C190 O183 1.247 . S
C190 O184 1.261 . S
C191 O186 1.259 . S
C191 O188 1.235 . S
O192 Co182 2.021 . S
O192 C189 1.238 . S
O193 Co187 2.052 . S
O193 C189 1.241 . S
O194 Co182 2.137 . S
O194 C185 1.247 . S
O195 Co182 2.244 . S
O195 C185 1.272 . S
O195 Co187 2.135 . S
Co196 O197 2.216 . S
Co196 O198 2.091 . S
Co196 O200 2.004 . S
Co196 O206 2.021 . S
Co196 O208 2.137 . S
Co196 O209 2.244 . S
O197 Co196 2.216 . S
O197 C204 1.247 . S
O198 Co196 2.091 . S
O198 C204 1.261 . S
C199 O208 1.247 . S
C199 O209 1.272 . S
O200 Co196 2.004 . S
O200 C205 1.259 . S
Co201 O202 2.061 . S
Co201 O207 2.052 . S
Co201 O209 2.135 . S
O202 Co201 2.061 . S
O202 C205 1.235 . S
C203 O206 1.238 . S
C203 O207 1.241 . S
C204 O197 1.247 . S
C204 O198 1.261 . S
C205 O200 1.259 . S
C205 O202 1.235 . S
O206 Co196 2.021 . S
O206 C203 1.238 . S
O207 Co201 2.052 . S
O207 C203 1.241 . S
O208 Co196 2.137 . S
O208 C199 1.247 . S
O209 Co196 2.244 . S
O209 C199 1.272 . S
O209 Co201 2.135 . S
Co210 O211 2.216 . S
Co210 O212 2.091 . S
Co210 O214 2.004 . S
Co210 O220 2.021 . S
Co210 O222 2.137 . S
Co210 O223 2.244 . S
O211 Co210 2.216 . S
O211 C218 1.247 . S
O212 Co210 2.091 . S
O212 C218 1.261 . S
C213 O222 1.247 . S
C213 O223 1.272 . S
O214 Co210 2.004 . S
O214 C219 1.259 . S
Co215 O216 2.061 . S
Co215 O221 2.052 . S
Co215 O223 2.135 . S
O216 Co215 2.061 . S
O216 C219 1.235 . S
C217 O220 1.238 . S
C217 O221 1.241 . S
C218 O211 1.247 . S
C218 O212 1.261 . S
C219 O214 1.259 . S
C219 O216 1.235 . S
O220 Co210 2.021 . S
O220 C217 1.238 . S
O221 Co215 2.052 . S
O221 C217 1.241 . S
O222 Co210 2.137 . S
O222 C213 1.247 . S
O223 Co210 2.244 . S
O223 C213 1.272 . S
O223 Co215 2.135 . S
Co224 O225 2.216 . S
Co224 O226 2.091 . S
Co224 O228 2.004 . S
Co224 O234 2.021 . S
Co224 O236 2.137 . S
Co224 O237 2.244 . S
O225 Co224 2.216 . S
O225 C232 1.247 . S
O226 Co224 2.091 . S
O226 C232 1.261 . S
C227 O236 1.247 . S
C227 O237 1.272 . S
O228 Co224 2.004 . S
O228 C233 1.259 . S
Co229 O230 2.061 . S
Co229 O235 2.052 . S
Co229 O237 2.135 . S
O230 Co229 2.061 . S
O230 C233 1.235 . S
C231 O234 1.238 . S
C231 O235 1.241 . S
C232 O225 1.247 . S
C232 O226 1.261 . S
C233 O228 1.259 . S
C233 O230 1.235 . S
O234 Co224 2.021 . S
O234 C231 1.238 . S
O235 Co229 2.052 . S
O235 C231 1.241 . S
O236 Co224 2.137 . S
O236 C227 1.247 . S
O237 Co224 2.244 . S
O237 C227 1.272 . S
O237 Co229 2.135 . S
Co238 O239 2.216 . S
Co238 O240 2.091 . S
Co238 O242 2.004 . S
Co238 O248 2.021 . S
Co238 O250 2.137 . S
Co238 O251 2.244 . S
O239 Co238 2.216 . S
O239 C246 1.247 . S
O240 Co238 2.091 . S
O240 C246 1.261 . S
C241 O250 1.247 . S
C241 O251 1.272 . S
O242 Co238 2.004 . S
O242 C247 1.259 . S
Co243 O244 2.061 . S
Co243 O249 2.052 . S
Co243 O251 2.135 . S
O244 Co243 2.061 . S
O244 C247 1.235 . S
C245 O248 1.238 . S
C245 O249 1.241 . S
C246 O239 1.247 . S
C246 O240 1.261 . S
C247 O242 1.259 . S
C247 O244 1.235 . S
O248 Co238 2.021 . S
O248 C245 1.238 . S
O249 Co243 2.052 . S
O249 C245 1.241 . S
O250 Co238 2.137 . S
O250 C241 1.247 . S
O251 Co238 2.244 . S
O251 C241 1.272 . S
O251 Co243 2.135 . S
Co252 O253 2.216 . S
Co252 O254 2.091 . S
Co252 O256 2.004 . S
Co252 O262 2.021 . S
Co252 O264 2.137 . S
Co252 O265 2.244 . S
O253 Co252 2.216 . S
O253 C260 1.247 . S
O254 Co252 2.091 . S
O254 C260 1.261 . S
C255 O264 1.247 . S
C255 O265 1.272 . S
O256 Co252 2.004 . S
O256 C261 1.259 . S
Co257 O258 2.061 . S
Co257 O263 2.052 . S
Co257 O265 2.135 . S
O258 Co257 2.061 . S
O258 C261 1.235 . S
C259 O262 1.238 . S
C259 O263 1.241 . S
C260 O253 1.247 . S
C260 O254 1.261 . S
C261 O256 1.259 . S
C261 O258 1.235 . S
O262 Co252 2.021 . S
O262 C259 1.238 . S
O263 Co257 2.052 . S
O263 C259 1.241 . S
O264 Co252 2.137 . S
O264 C255 1.247 . S
O265 Co252 2.244 . S
O265 C255 1.272 . S
O265 Co257 2.135 . S
Co266 O267 2.216 . S
Co266 O268 2.091 . S
Co266 O270 2.004 . S
Co266 O276 2.021 . S
Co266 O278 2.137 . S
Co266 O279 2.244 . S
O267 Co266 2.216 . S
O267 C274 1.247 . S
O268 Co266 2.091 . S
O268 C274 1.261 . S
C269 O278 1.247 . S
C269 O279 1.272 . S
O270 Co266 2.004 . S
O270 C275 1.259 . S
Co271 O272 2.061 . S
Co271 O277 2.052 . S
Co271 O279 2.135 . S
O272 Co271 2.061 . S
O272 C275 1.235 . S
C273 O276 1.238 . S
C273 O277 1.241 . S
C274 O267 1.247 . S
C274 O268 1.261 . S
C275 O270 1.259 . S
C275 O272 1.235 . S
O276 Co266 2.021 . S
O276 C273 1.238 . S
O277 Co271 2.052 . S
O277 C273 1.241 . S
O278 Co266 2.137 . S
O278 C269 1.247 . S
O279 Co266 2.244 . S
O279 C269 1.272 . S
O279 Co271 2.135 . S
Co280 O281 2.216 . S
Co280 O282 2.091 . S
Co280 O284 2.004 . S
Co280 O290 2.021 . S
Co280 O292 2.137 . S
Co280 O293 2.244 . S
O281 Co280 2.216 . S
O281 C288 1.247 . S
O282 Co280 2.091 . S
O282 C288 1.261 . S
C283 O292 1.247 . S
C283 O293 1.272 . S
O284 Co280 2.004 . S
O284 C289 1.259 . S
Co285 O286 2.061 . S
Co285 O291 2.052 . S
Co285 O293 2.135 . S
O286 Co285 2.061 . S
O286 C289 1.235 . S
C287 O290 1.238 . S
C287 O291 1.241 . S
C288 O281 1.247 . S
C288 O282 1.261 . S
C289 O284 1.259 . S
C289 O286 1.235 . S
O290 Co280 2.021 . S
O290 C287 1.238 . S
O291 Co285 2.052 . S
O291 C287 1.241 . S
O292 Co280 2.137 . S
O292 C283 1.247 . S
O293 Co280 2.244 . S
O293 C283 1.272 . S
O293 Co285 2.135 . S
Co294 O295 2.216 . S
Co294 O296 2.091 . S
Co294 O298 2.004 . S
Co294 O304 2.021 . S
Co294 O306 2.137 . S
Co294 O307 2.244 . S
O295 Co294 2.216 . S
O295 C302 1.247 . S
O296 Co294 2.091 . S
O296 C302 1.261 . S
C297 O306 1.247 . S
C297 O307 1.272 . S
O298 Co294 2.004 . S
O298 C303 1.259 . S
Co299 O300 2.061 . S
Co299 O305 2.052 . S
Co299 O307 2.135 . S
O300 Co299 2.061 . S
O300 C303 1.235 . S
C301 O304 1.238 . S
C301 O305 1.241 . S
C302 O295 1.247 . S
C302 O296 1.261 . S
C303 O298 1.259 . S
C303 O300 1.235 . S
O304 Co294 2.021 . S
O304 C301 1.238 . S
O305 Co299 2.052 . S
O305 C301 1.241 . S
O306 Co294 2.137 . S
O306 C297 1.247 . S
O307 Co294 2.244 . S
O307 C297 1.272 . S
O307 Co299 2.135 . S
Co308 O309 2.216 . S
Co308 O310 2.091 . S
Co308 O312 2.004 . S
Co308 O318 2.021 . S
Co308 O320 2.137 . S
Co308 O321 2.244 . S
O309 Co308 2.216 . S
O309 C316 1.247 . S
O310 Co308 2.091 . S
O310 C316 1.261 . S
C311 O320 1.247 . S
C311 O321 1.272 . S
O312 Co308 2.004 . S
O312 C317 1.259 . S
Co313 O314 2.061 . S
Co313 O319 2.052 . S
Co313 O321 2.135 . S
O314 Co313 2.061 . S
O314 C317 1.235 . S
C315 O318 1.238 . S
C315 O319 1.241 . S
C316 O309 1.247 . S
C316 O310 1.261 . S
C317 O312 1.259 . S
C317 O314 1.235 . S
O318 Co308 2.021 . S
O318 C315 1.238 . S
O319 Co313 2.052 . S
O319 C315 1.241 . S
O320 Co308 2.137 . S
O320 C311 1.247 . S
O321 Co308 2.244 . S
O321 C311 1.272 . S
O321 Co313 2.135 . S
Co322 O323 2.216 . S
Co322 O324 2.091 . S
Co322 O326 2.004 . S
Co322 O332 2.021 . S
Co322 O334 2.137 . S
Co322 O335 2.244 . S
O323 Co322 2.216 . S
O323 C330 1.247 . S
O324 Co322 2.091 . S
O324 C330 1.261 . S
C325 O334 1.247 . S
C325 O335 1.272 . S
O326 Co322 2.004 . S
O326 C331 1.259 . S
Co327 O328 2.061 . S
Co327 O333 2.052 . S
Co327 O335 2.135 . S
O328 Co327 2.061 . S
O328 C331 1.235 . S
C329 O332 1.238 . S
C329 O333 1.241 . S
C330 O323 1.247 . S
C330 O324 1.261 . S
C331 O326 1.259 . S
C331 O328 1.235 . S
O332 Co322 2.021 . S
O332 C329 1.238 . S
O333 Co327 2.052 . S
O333 C329 1.241 . S
O334 Co322 2.137 . S
O334 C325 1.247 . S
O335 Co322 2.244 . S
O335 C325 1.272 . S
O335 Co327 2.135 . S
Co336 O337 2.216 . S
Co336 O338 2.091 . S
Co336 O340 2.004 . S
Co336 O346 2.021 . S
Co336 O348 2.137 . S
Co336 O349 2.244 . S
O337 Co336 2.216 . S
O337 C344 1.247 . S
O338 Co336 2.091 . S
O338 C344 1.261 . S
C339 O348 1.247 . S
C339 O349 1.272 . S
O340 Co336 2.004 . S
O340 C345 1.259 . S
Co341 O342 2.061 . S
Co341 O347 2.052 . S
Co341 O349 2.135 . S
O342 Co341 2.061 . S
O342 C345 1.235 . S
C343 O346 1.238 . S
C343 O347 1.241 . S
C344 O337 1.247 . S
C344 O338 1.261 . S
C345 O340 1.259 . S
C345 O342 1.235 . S
O346 Co336 2.021 . S
O346 C343 1.238 . S
O347 Co341 2.052 . S
O347 C343 1.241 . S
O348 Co336 2.137 . S
O348 C339 1.247 . S
O349 Co336 2.244 . S
O349 C339 1.272 . S
O349 Co341 2.135 . S
Co350 O351 2.216 . S
Co350 O352 2.091 . S
Co350 O354 2.004 . S
Co350 O360 2.021 . S
Co350 O362 2.137 . S
Co350 O363 2.244 . S
O351 Co350 2.216 . S
O351 C358 1.247 . S
O352 Co350 2.091 . S
O352 C358 1.261 . S
C353 O362 1.247 . S
C353 O363 1.272 . S
O354 Co350 2.004 . S
O354 C359 1.259 . S
Co355 O356 2.061 . S
Co355 O361 2.052 . S
Co355 O363 2.135 . S
O356 Co355 2.061 . S
O356 C359 1.235 . S
C357 O360 1.238 . S
C357 O361 1.241 . S
C358 O351 1.247 . S
C358 O352 1.261 . S
C359 O354 1.259 . S
C359 O356 1.235 . S
O360 Co350 2.021 . S
O360 C357 1.238 . S
O361 Co355 2.052 . S
O361 C357 1.241 . S
O362 Co350 2.137 . S
O362 C353 1.247 . S
O363 Co350 2.244 . S
O363 C353 1.272 . S
O363 Co355 2.135 . S
Co364 O365 2.216 . S
Co364 O366 2.091 . S
Co364 O368 2.004 . S
Co364 O374 2.021 . S
Co364 O376 2.137 . S
Co364 O377 2.244 . S
O365 Co364 2.216 . S
O365 C372 1.247 . S
O366 Co364 2.091 . S
O366 C372 1.261 . S
C367 O376 1.247 . S
C367 O377 1.272 . S
O368 Co364 2.004 . S
O368 C373 1.259 . S
Co369 O370 2.061 . S
Co369 O375 2.052 . S
Co369 O377 2.135 . S
O370 Co369 2.061 . S
O370 C373 1.235 . S
C371 O374 1.238 . S
C371 O375 1.241 . S
C372 O365 1.247 . S
C372 O366 1.261 . S
C373 O368 1.259 . S
C373 O370 1.235 . S
O374 Co364 2.021 . S
O374 C371 1.238 . S
O375 Co369 2.052 . S
O375 C371 1.241 . S
O376 Co364 2.137 . S
O376 C367 1.247 . S
O377 Co364 2.244 . S
O377 C367 1.272 . S
O377 Co369 2.135 . S
Co378 O379 2.216 . S
Co378 O380 2.091 . S
Co378 O382 2.004 . S
Co378 O388 2.021 . S
Co378 O390 2.137 . S
Co378 O391 2.244 . S
O379 Co378 2.216 . S
O379 C386 1.247 . S
O380 Co378 2.091 . S
O380 C386 1.261 . S
C381 O390 1.247 . S
C381 O391 1.272 . S
O382 Co378 2.004 . S
O382 C387 1.259 . S
Co383 O384 2.061 . S
Co383 O389 2.052 . S
Co383 O391 2.135 . S
O384 Co383 2.061 . S
O384 C387 1.235 . S
C385 O388 1.238 . S
C385 O389 1.241 . S
C386 O379 1.247 . S
C386 O380 1.261 . S
C387 O382 1.259 . S
C387 O384 1.235 . S
O388 Co378 2.021 . S
O388 C385 1.238 . S
O389 Co383 2.052 . S
O389 C385 1.241 . S
O390 Co378 2.137 . S
O390 C381 1.247 . S
O391 Co378 2.244 . S
O391 C381 1.272 . S
O391 Co383 2.135 . S
Co392 O393 2.216 . S
Co392 O394 2.091 . S
Co392 O396 2.004 . S
Co392 O402 2.021 . S
Co392 O404 2.137 . S
Co392 O405 2.244 . S
O393 Co392 2.216 . S
O393 C400 1.247 . S
O394 Co392 2.091 . S
O394 C400 1.261 . S
C395 O404 1.247 . S
C395 O405 1.272 . S
O396 Co392 2.004 . S
O396 C401 1.259 . S
Co397 O398 2.061 . S
Co397 O403 2.052 . S
Co397 O405 2.135 . S
O398 Co397 2.061 . S
O398 C401 1.235 . S
C399 O402 1.238 . S
C399 O403 1.241 . S
C400 O393 1.247 . S
C400 O394 1.261 . S
C401 O396 1.259 . S
C401 O398 1.235 . S
O402 Co392 2.021 . S
O402 C399 1.238 . S
O403 Co397 2.052 . S
O403 C399 1.241 . S
O404 Co392 2.137 . S
O404 C395 1.247 . S
O405 Co392 2.244 . S
O405 C395 1.272 . S
O405 Co397 2.135 . S
Co406 O407 2.216 . S
Co406 O408 2.091 . S
Co406 O410 2.004 . S
Co406 O416 2.021 . S
Co406 O418 2.137 . S
Co406 O419 2.244 . S
O407 Co406 2.216 . S
O407 C414 1.247 . S
O408 Co406 2.091 . S
O408 C414 1.261 . S
C409 O418 1.247 . S
C409 O419 1.272 . S
O410 Co406 2.004 . S
O410 C415 1.259 . S
Co411 O412 2.061 . S
Co411 O417 2.052 . S
Co411 O419 2.135 . S
O412 Co411 2.061 . S
O412 C415 1.235 . S
C413 O416 1.238 . S
C413 O417 1.241 . S
C414 O407 1.247 . S
C414 O408 1.261 . S
C415 O410 1.259 . S
C415 O412 1.235 . S
O416 Co406 2.021 . S
O416 C413 1.238 . S
O417 Co411 2.052 . S
O417 C413 1.241 . S
O418 Co406 2.137 . S
O418 C409 1.247 . S
O419 Co406 2.244 . S
O419 C409 1.272 . S
O419 Co411 2.135 . S
Co420 O421 2.216 . S
Co420 O422 2.091 . S
Co420 O424 2.004 . S
Co420 O430 2.021 . S
Co420 O432 2.137 . S
Co420 O433 2.244 . S
O421 Co420 2.216 . S
O421 C428 1.247 . S
O422 Co420 2.091 . S
O422 C428 1.261 . S
C423 O432 1.247 . S
C423 O433 1.272 . S
O424 Co420 2.004 . S
O424 C429 1.259 . S
Co425 O426 2.061 . S
Co425 O431 2.052 . S
Co425 O433 2.135 . S
O426 Co425 2.061 . S
O426 C429 1.235 . S
C427 O430 1.238 . S
C427 O431 1.241 . S
C428 O421 1.247 . S
C428 O422 1.261 . S
C429 O424 1.259 . S
C429 O426 1.235 . S
O430 Co420 2.021 . S
O430 C427 1.238 . S
O431 Co425 2.052 . S
O431 C427 1.241 . S
O432 Co420 2.137 . S
O432 C423 1.247 . S
O433 Co420 2.244 . S
O433 C423 1.272 . S
O433 Co425 2.135 . S
Co434 O435 2.216 . S
Co434 O436 2.091 . S
Co434 O438 2.004 . S
Co434 O444 2.021 . S
Co434 O446 2.137 . S
Co434 O447 2.244 . S
O435 Co434 2.216 . S
O435 C442 1.247 . S
O436 Co434 2.091 . S
O436 C442 1.261 . S
C437 O446 1.247 . S
C437 O447 1.272 . S
O438 Co434 2.004 . S
O438 C443 1.259 . S
Co439 O440 2.061 . S
Co439 O445 2.052 . S
Co439 O447 2.135 . S
O440 Co439 2.061 . S
O440 C443 1.235 . S
C441 O444 1.238 . S
C441 O445 1.241 . S
C442 O435 1.247 . S
C442 O436 1.261 . S
C443 O438 1.259 . S
C443 O440 1.235 . S
O444 Co434 2.021 . S
O444 C441 1.238 . S
O445 Co439 2.052 . S
O445 C441 1.241 . S
O446 Co434 2.137 . S
O446 C437 1.247 . S
O447 Co434 2.244 . S
O447 C437 1.272 . S
O447 Co439 2.135 . S
Co448 O449 2.216 . S
Co448 O450 2.091 . S
Co448 O452 2.004 . S
Co448 O458 2.021 . S
Co448 O460 2.137 . S
Co448 O461 2.244 . S
O449 Co448 2.216 . S
O449 C456 1.247 . S
O450 Co448 2.091 . S
O450 C456 1.261 . S
C451 O460 1.247 . S
C451 O461 1.272 . S
O452 Co448 2.004 . S
O452 C457 1.259 . S
Co453 O454 2.061 . S
Co453 O459 2.052 . S
Co453 O461 2.135 . S
O454 Co453 2.061 . S
O454 C457 1.235 . S
C455 O458 1.238 . S
C455 O459 1.241 . S
C456 O449 1.247 . S
C456 O450 1.261 . S
C457 O452 1.259 . S
C457 O454 1.235 . S
O458 Co448 2.021 . S
O458 C455 1.238 . S
O459 Co453 2.052 . S
O459 C455 1.241 . S
O460 Co448 2.137 . S
O460 C451 1.247 . S
O461 Co448 2.244 . S
O461 C451 1.272 . S
O461 Co453 2.135 . S
Co462 O463 2.216 . S
Co462 O464 2.091 . S
Co462 O466 2.004 . S
Co462 O472 2.021 . S
Co462 O474 2.137 . S
Co462 O475 2.244 . S
O463 Co462 2.216 . S
O463 C470 1.247 . S
O464 Co462 2.091 . S
O464 C470 1.261 . S
C465 O474 1.247 . S
C465 O475 1.272 . S
O466 Co462 2.004 . S
O466 C471 1.259 . S
Co467 O468 2.061 . S
Co467 O473 2.052 . S
Co467 O475 2.135 . S
O468 Co467 2.061 . S
O468 C471 1.235 . S
C469 O472 1.238 . S
C469 O473 1.241 . S
C470 O463 1.247 . S
C470 O464 1.261 . S
C471 O466 1.259 . S
C471 O468 1.235 . S
O472 Co462 2.021 . S
O472 C469 1.238 . S
O473 Co467 2.052 . S
O473 C469 1.241 . S
O474 Co462 2.137 . S
O474 C465 1.247 . S
O475 Co462 2.244 . S
O475 C465 1.272 . S
O475 Co467 2.135 . S
Co476 O477 2.216 . S
Co476 O478 2.091 . S
Co476 O480 2.004 . S
Co476 O486 2.021 . S
Co476 O488 2.137 . S
Co476 O489 2.244 . S
O477 Co476 2.216 . S
O477 C484 1.247 . S
O478 Co476 2.091 . S
O478 C484 1.261 . S
C479 O488 1.247 . S
C479 O489 1.272 . S
O480 Co476 2.004 . S
O480 C485 1.259 . S
Co481 O482 2.061 . S
Co481 O487 2.052 . S
Co481 O489 2.135 . S
O482 Co481 2.061 . S
O482 C485 1.235 . S
C483 O486 1.238 . S
C483 O487 1.241 . S
C484 O477 1.247 . S
C484 O478 1.261 . S
C485 O480 1.259 . S
C485 O482 1.235 . S
O486 Co476 2.021 . S
O486 C483 1.238 . S
O487 Co481 2.052 . S
O487 C483 1.241 . S
O488 Co476 2.137 . S
O488 C479 1.247 . S
O489 Co476 2.244 . S
O489 C479 1.272 . S
O489 Co481 2.135 . S
Co490 O491 2.216 . S
Co490 O492 2.091 . S
Co490 O494 2.004 . S
Co490 O500 2.021 . S
Co490 O502 2.137 . S
Co490 O503 2.244 . S
O491 Co490 2.216 . S
O491 C498 1.247 . S
O492 Co490 2.091 . S
O492 C498 1.261 . S
C493 O502 1.247 . S
C493 O503 1.272 . S
O494 Co490 2.004 . S
O494 C499 1.259 . S
Co495 O496 2.061 . S
Co495 O501 2.052 . S
Co495 O503 2.135 . S
O496 Co495 2.061 . S
O496 C499 1.235 . S
C497 O500 1.238 . S
C497 O501 1.241 . S
C498 O491 1.247 . S
C498 O492 1.261 . S
C499 O494 1.259 . S
C499 O496 1.235 . S
O500 Co490 2.021 . S
O500 C497 1.238 . S
O501 Co495 2.052 . S
O501 C497 1.241 . S
O502 Co490 2.137 . S
O502 C493 1.247 . S
O503 Co490 2.244 . S
O503 C493 1.272 . S
O503 Co495 2.135 . S
H504 C512 0.950 . S
H505 C517 0.950 . S
H506 C514 0.950 . S
H507 C516 0.950 . S
H508 C518 0.950 . S
H509 C520 0.950 . S
H510 C522 0.950 . S
H511 C523 0.950 . S
C512 H504 0.950 . S
C512 C513 1.386 . S
C512 C514 1.391 . S
C513 C512 1.386 . S
C513 C517 1.393 . S
C514 H506 0.950 . S
C514 C512 1.391 . S
C514 C515 1.400 . S
C515 C514 1.400 . S
C515 C516 1.398 . S
C515 C521 1.491 1_565 S
C516 H507 0.950 . S
C516 C515 1.398 . S
C516 C517 1.391 . S
C517 H505 0.950 . S
C517 C513 1.393 . S
C517 C516 1.391 . S
C518 H508 0.950 . S
C518 C519 1.386 . S
C518 C520 1.391 . S
C519 C518 1.386 . S
C519 C523 1.393 . S
C520 H509 0.950 . S
C520 C518 1.391 . S
C520 C521 1.400 . S
C521 C515 1.491 1_545 S
C521 C520 1.400 . S
C521 C522 1.398 . S
C522 H510 0.950 . S
C522 C521 1.398 . S
C522 C523 1.391 . S
C523 H511 0.950 . S
C523 C519 1.393 . S
C523 C522 1.391 . S
H524 C532 0.950 . S
H525 C537 0.950 . S
H526 C534 0.950 . S
H527 C536 0.950 . S
H528 C538 0.950 . S
H529 C540 0.950 . S
H530 C542 0.950 . S
H531 C543 0.950 . S
C532 H524 0.950 . S
C532 C533 1.386 . S
C532 C534 1.391 . S
C533 C532 1.386 . S
C533 C537 1.393 . S
C534 H526 0.950 . S
C534 C532 1.391 . S
C534 C535 1.400 . S
C535 C534 1.400 . S
C535 C536 1.398 . S
C535 C541 1.491 1_455 S
C536 H527 0.950 . S
C536 C535 1.398 . S
C536 C537 1.391 . S
C537 H525 0.950 . S
C537 C533 1.393 . S
C537 C536 1.391 . S
C538 H528 0.950 . S
C538 C539 1.386 . S
C538 C540 1.391 . S
C539 C538 1.386 . S
C539 C543 1.393 . S
C540 H529 0.950 . S
C540 C538 1.391 . S
C540 C541 1.400 . S
C541 C535 1.491 1_655 S
C541 C540 1.400 . S
C541 C542 1.398 . S
C542 H530 0.950 . S
C542 C541 1.398 . S
C542 C543 1.391 . S
C543 H531 0.950 . S
C543 C539 1.393 . S
C543 C542 1.391 . S
H544 C552 0.950 . S
H545 C557 0.950 . S
H546 C554 0.950 . S
H547 C556 0.950 . S
H548 C558 0.950 . S
H549 C560 0.950 . S
H550 C562 0.950 . S
H551 C563 0.950 . S
C552 H544 0.950 . S
C552 C553 1.386 . S
C552 C554 1.391 . S
C553 C552 1.386 . S
C553 C557 1.393 . S
C554 H546 0.950 . S
C554 C552 1.391 . S
C554 C555 1.400 . S
C555 C554 1.400 . S
C555 C556 1.398 . S
C555 C561 1.491 . S
C556 H547 0.950 . S
C556 C555 1.398 . S
C556 C557 1.391 . S
C557 H545 0.950 . S
C557 C553 1.393 . S
C557 C556 1.391 . S
C558 H548 0.950 . S
C558 C559 1.386 . S
C558 C560 1.391 . S
C559 C558 1.386 . S
C559 C563 1.393 . S
C560 H549 0.950 . S
C560 C558 1.391 . S
C560 C561 1.400 . S
C561 C555 1.491 . S
C561 C560 1.400 . S
C561 C562 1.398 . S
C562 H550 0.950 . S
C562 C561 1.398 . S
C562 C563 1.391 . S
C563 H551 0.950 . S
C563 C559 1.393 . S
C563 C562 1.391 . S
H564 C572 0.950 . S
H565 C577 0.950 . S
H566 C574 0.950 . S
H567 C576 0.950 . S
H568 C578 0.950 . S
H569 C580 0.950 . S
H570 C582 0.950 . S
H571 C583 0.950 . S
C572 H564 0.950 . S
C572 C573 1.386 . S
C572 C574 1.391 . S
C573 C572 1.386 . S
C573 C577 1.393 . S
C574 H566 0.950 . S
C574 C572 1.391 . S
C574 C575 1.400 . S
C575 C574 1.400 . S
C575 C576 1.398 . S
C575 C581 1.491 1_565 S
C576 H567 0.950 . S
C576 C575 1.398 . S
C576 C577 1.391 . S
C577 H565 0.950 . S
C577 C573 1.393 . S
C577 C576 1.391 . S
C578 H568 0.950 . S
C578 C579 1.386 . S
C578 C580 1.391 . S
C579 C578 1.386 . S
C579 C583 1.393 . S
C580 H569 0.950 . S
C580 C578 1.391 . S
C580 C581 1.400 . S
C581 C575 1.491 1_545 S
C581 C580 1.400 . S
C581 C582 1.398 . S
C582 H570 0.950 . S
C582 C581 1.398 . S
C582 C583 1.391 . S
C583 H571 0.950 . S
C583 C579 1.393 . S
C583 C582 1.391 . S
H584 C592 0.950 . S
H585 C597 0.950 . S
H586 C594 0.950 . S
H587 C596 0.950 . S
H588 C598 0.950 . S
H589 C600 0.950 . S
H590 C602 0.950 . S
H591 C603 0.950 . S
C592 H584 0.950 . S
C592 C593 1.386 . S
C592 C594 1.391 . S
C593 C592 1.386 . S
C593 C597 1.393 . S
C594 H586 0.950 . S
C594 C592 1.391 . S
C594 C595 1.400 . S
C595 C594 1.400 . S
C595 C596 1.398 . S
C595 C601 1.491 1_455 S
C596 H587 0.950 . S
C596 C595 1.398 . S
C596 C597 1.391 . S
C597 H585 0.950 . S
C597 C593 1.393 . S
C597 C596 1.391 . S
C598 H588 0.950 . S
C598 C599 1.386 . S
C598 C600 1.391 . S
C599 C598 1.386 . S
C599 C603 1.393 . S
C600 H589 0.950 . S
C600 C598 1.391 . S
C600 C601 1.400 . S
C601 C595 1.491 1_655 S
C601 C600 1.400 . S
C601 C602 1.398 . S
C602 H590 0.950 . S
C602 C601 1.398 . S
C602 C603 1.391 . S
C603 H591 0.950 . S
C603 C599 1.393 . S
C603 C602 1.391 . S
H604 C612 0.950 . S
H605 C617 0.950 . S
H606 C614 0.950 . S
H607 C616 0.950 . S
H608 C618 0.950 . S
H609 C620 0.950 . S
H610 C622 0.950 . S
H611 C623 0.950 . S
C612 H604 0.950 . S
C612 C613 1.386 . S
C612 C614 1.391 . S
C613 C612 1.386 . S
C613 C617 1.393 . S
C614 H606 0.950 . S
C614 C612 1.391 . S
C614 C615 1.400 . S
C615 C614 1.400 . S
C615 C616 1.398 . S
C615 C621 1.491 . S
C616 H607 0.950 . S
C616 C615 1.398 . S
C616 C617 1.391 . S
C617 H605 0.950 . S
C617 C613 1.393 . S
C617 C616 1.391 . S
C618 H608 0.950 . S
C618 C619 1.386 . S
C618 C620 1.391 . S
C619 C618 1.386 . S
C619 C623 1.393 . S
C620 H609 0.950 . S
C620 C618 1.391 . S
C620 C621 1.400 . S
C621 C615 1.491 . S
C621 C620 1.400 . S
C621 C622 1.398 . S
C622 H610 0.950 . S
C622 C621 1.398 . S
C622 C623 1.391 . S
C623 H611 0.950 . S
C623 C619 1.393 . S
C623 C622 1.391 . S
H624 C632 0.950 . S
H625 C637 0.950 . S
H626 C634 0.950 . S
H627 C636 0.950 . S
H628 C638 0.950 . S
H629 C640 0.950 . S
H630 C642 0.950 . S
H631 C643 0.950 . S
C632 H624 0.950 . S
C632 C633 1.386 . S
C632 C634 1.391 . S
C633 C632 1.386 . S
C633 C637 1.393 1_455 S
C634 H626 0.950 . S
C634 C632 1.391 . S
C634 C635 1.400 1_455 S
C635 C634 1.400 1_655 S
C635 C636 1.398 . S
C635 C641 1.491 . S
C636 H627 0.950 . S
C636 C635 1.398 . S
C636 C637 1.391 . S
C637 H625 0.950 . S
C637 C633 1.393 1_655 S
C637 C636 1.391 . S
C638 H628 0.950 . S
C638 C639 1.386 . S
C638 C640 1.391 . S
C639 C638 1.386 . S
C639 C643 1.393 . S
C640 H629 0.950 . S
C640 C638 1.391 . S
C640 C641 1.400 . S
C641 C635 1.491 . S
C641 C640 1.400 . S
C641 C642 1.398 . S
C642 H630 0.950 . S
C642 C641 1.398 . S
C642 C643 1.391 . S
C643 H631 0.950 . S
C643 C639 1.393 . S
C643 C642 1.391 . S
H644 C652 0.950 . S
H645 C657 0.950 . S
H646 C654 0.950 . S
H647 C656 0.950 . S
H648 C658 0.950 . S
H649 C660 0.950 . S
H650 C662 0.950 . S
H651 C663 0.950 . S
C652 H644 0.950 . S
C652 C653 1.386 . S
C652 C654 1.391 . S
C653 C652 1.386 . S
C653 C657 1.393 . S
C654 H646 0.950 . S
C654 C652 1.391 . S
C654 C655 1.400 . S
C655 C654 1.400 . S
C655 C656 1.398 . S
C655 C661 1.491 . S
C656 H647 0.950 . S
C656 C655 1.398 . S
C656 C657 1.391 . S
C657 H645 0.950 . S
C657 C653 1.393 . S
C657 C656 1.391 . S
C658 H648 0.950 . S
C658 C659 1.386 . S
C658 C660 1.391 . S
C659 C658 1.386 . S
C659 C663 1.393 . S
C660 H649 0.950 . S
C660 C658 1.391 . S
C660 C661 1.400 . S
C661 C655 1.491 . S
C661 C660 1.400 . S
C661 C662 1.398 . S
C662 H650 0.950 . S
C662 C661 1.398 . S
C662 C663 1.391 . S
C663 H651 0.950 . S
C663 C659 1.393 . S
C663 C662 1.391 . S
H664 C672 0.950 . S
H665 C677 0.950 . S
H666 C674 0.950 . S
H667 C676 0.950 . S
H668 C678 0.950 . S
H669 C680 0.950 . S
H670 C682 0.950 . S
H671 C683 0.950 . S
C672 H664 0.950 . S
C672 C673 1.386 . S
C672 C674 1.391 . S
C673 C672 1.386 . S
C673 C677 1.393 . S
C674 H666 0.950 . S
C674 C672 1.391 . S
C674 C675 1.400 . S
C675 C674 1.400 . S
C675 C676 1.398 . S
C675 C681 1.491 . S
C676 H667 0.950 . S
C676 C675 1.398 . S
C676 C677 1.391 . S
C677 H665 0.950 . S
C677 C673 1.393 . S
C677 C676 1.391 . S
C678 H668 0.950 . S
C678 C679 1.386 . S
C678 C680 1.391 1_565 S
C679 C678 1.386 . S
C679 C683 1.393 . S
C680 H669 0.950 . S
C680 C678 1.391 1_545 S
C680 C681 1.400 . S
C681 C675 1.491 . S
C681 C680 1.400 . S
C681 C682 1.398 . S
C682 H670 0.950 . S
C682 C681 1.398 . S
C682 C683 1.391 1_545 S
C683 H671 0.950 . S
C683 C679 1.393 . S
C683 C682 1.391 1_565 S
H684 C692 0.950 . S
H685 C697 0.950 . S
H686 C694 0.950 . S
H687 C696 0.950 . S
H688 C698 0.950 . S
H689 C700 0.950 . S
H690 C702 0.950 . S
H691 C703 0.950 . S
C692 H684 0.950 . S
C692 C693 1.386 . S
C692 C694 1.391 . S
C693 C692 1.386 . S
C693 C697 1.393 . S
C694 H686 0.950 . S
C694 C692 1.391 . S
C694 C695 1.400 . S
C695 C694 1.400 . S
C695 C696 1.398 . S
C695 C701 1.491 . S
C696 H687 0.950 . S
C696 C695 1.398 . S
C696 C697 1.391 . S
C697 H685 0.950 . S
C697 C693 1.393 . S
C697 C696 1.391 . S
C698 H688 0.950 . S
C698 C699 1.386 . S
C698 C700 1.391 . S
C699 C698 1.386 . S
C699 C703 1.393 . S
C700 H689 0.950 . S
C700 C698 1.391 . S
C700 C701 1.400 . S
C701 C695 1.491 . S
C701 C700 1.400 . S
C701 C702 1.398 . S
C702 H690 0.950 . S
C702 C701 1.398 . S
C702 C703 1.391 . S
C703 H691 0.950 . S
C703 C699 1.393 . S
C703 C702 1.391 . S
H704 C712 0.950 . S
H705 C717 0.950 . S
H706 C714 0.950 . S
H707 C716 0.950 . S
H708 C718 0.950 . S
H709 C720 0.950 . S
H710 C722 0.950 . S
H711 C723 0.950 . S
C712 H704 0.950 . S
C712 C713 1.386 1_545 S
C712 C714 1.391 . S
C713 C712 1.386 1_565 S
C713 C717 1.393 . S
C714 H706 0.950 . S
C714 C712 1.391 . S
C714 C715 1.400 . S
C715 C714 1.400 . S
C715 C716 1.398 1_545 S
C715 C721 1.491 . S
C716 H707 0.950 . S
C716 C715 1.398 1_565 S
C716 C717 1.391 . S
C717 H705 0.950 . S
C717 C713 1.393 . S
C717 C716 1.391 . S
C718 H708 0.950 . S
C718 C719 1.386 . S
C718 C720 1.391 . S
C719 C718 1.386 . S
C719 C723 1.393 . S
C720 H709 0.950 . S
C720 C718 1.391 . S
C720 C721 1.400 . S
C721 C715 1.491 . S
C721 C720 1.400 . S
C721 C722 1.398 . S
C722 H710 0.950 . S
C722 C721 1.398 . S
C722 C723 1.391 . S
C723 H711 0.950 . S
C723 C719 1.393 . S
C723 C722 1.391 . S
H724 C732 0.950 . S
H725 C737 0.950 . S
H726 C734 0.950 . S
H727 C736 0.950 . S
H728 C738 0.950 . S
H729 C740 0.950 . S
H730 C742 0.950 . S
H731 C743 0.950 . S
C732 H724 0.950 . S
C732 C733 1.386 . S
C732 C734 1.391 . S
C733 C732 1.386 . S
C733 C737 1.393 . S
C734 H726 0.950 . S
C734 C732 1.391 . S
C734 C735 1.400 . S
C735 C734 1.400 . S
C735 C736 1.398 . S
C735 C741 1.491 . S
C736 H727 0.950 . S
C736 C735 1.398 . S
C736 C737 1.391 . S
C737 H725 0.950 . S
C737 C733 1.393 . S
C737 C736 1.391 . S
C738 H728 0.950 . S
C738 C739 1.386 1_655 S
C738 C740 1.391 . S
C739 C738 1.386 1_455 S
C739 C743 1.393 . S
C740 H729 0.950 . S
C740 C738 1.391 . S
C740 C741 1.400 . S
C741 C735 1.491 . S
C741 C740 1.400 . S
C741 C742 1.398 1_655 S
C742 H730 0.950 . S
C742 C741 1.398 1_455 S
C742 C743 1.391 . S
C743 H731 0.950 . S
C743 C739 1.393 . S
C743 C742 1.391 . S
H744 C752 0.950 . S
H745 C757 0.950 . S
H746 C754 0.950 . S
H747 C756 0.950 . S
H748 C758 0.950 . S
H749 C760 0.950 . S
H750 C762 0.950 . S
H751 C763 0.950 . S
C752 H744 0.950 . S
C752 C753 1.386 . S
C752 C754 1.391 . S
C753 C752 1.386 . S
C753 C757 1.393 . S
C754 H746 0.950 . S
C754 C752 1.391 . S
C754 C755 1.400 . S
C755 C754 1.400 . S
C755 C756 1.398 . S
C755 C761 1.491 . S
C756 H747 0.950 . S
C756 C755 1.398 . S
C756 C757 1.391 . S
C757 H745 0.950 . S
C757 C753 1.393 . S
C757 C756 1.391 . S
C758 H748 0.950 . S
C758 C759 1.386 . S
C758 C760 1.391 . S
C759 C758 1.386 . S
C759 C763 1.393 . S
C760 H749 0.950 . S
C760 C758 1.391 . S
C760 C761 1.400 . S
C761 C755 1.491 . S
C761 C760 1.400 . S
C761 C762 1.398 . S
C762 H750 0.950 . S
C762 C761 1.398 . S
C762 C763 1.391 . S
C763 H751 0.950 . S
C763 C759 1.393 . S
C763 C762 1.391 . S
H764 C772 0.950 . S
H765 C777 0.950 . S
H766 C774 0.931 . S
H767 C776 0.950 . S
H768 C778 0.950 . S
H769 C780 0.950 . S
H770 C782 0.950 . S
H771 C783 0.950 . S
C772 H764 0.950 . S
C772 C773 1.386 . S
C772 C774 1.391 . S
C773 C772 1.386 . S
C773 C777 1.393 1_545 S
C774 H766 0.931 . S
C774 C772 1.391 . S
C774 C775 1.399 1_545 S
C775 C774 1.399 1_565 S
C775 C776 1.398 . S
C775 C781 1.491 . S
C776 H767 0.950 . S
C776 C775 1.398 . S
C776 C777 1.391 . S
C777 H765 0.950 . S
C777 C773 1.393 1_565 S
C777 C776 1.391 . S
C778 H768 0.950 . S
C778 C779 1.386 . S
C778 C780 1.391 . S
C779 C778 1.386 . S
C779 C783 1.393 . S
C780 H769 0.950 . S
C780 C778 1.391 . S
C780 C781 1.400 . S
C781 C775 1.491 . S
C781 C780 1.400 . S
C781 C782 1.398 . S
C782 H770 0.950 . S
C782 C781 1.398 . S
C782 C783 1.391 . S
C783 H771 0.950 . S
C783 C779 1.393 . S
C783 C782 1.391 . S
H784 C792 0.950 . S
H785 C797 0.950 . S
H786 C794 0.950 . S
H787 C796 0.950 . S
H788 C798 0.950 . S
H789 C800 0.950 . S
H790 C802 0.950 . S
H791 C803 0.950 . S
C792 H784 0.950 . S
C792 C793 1.386 . S
C792 C794 1.391 . S
C793 C792 1.386 . S
C793 C797 1.393 . S
C794 H786 0.950 . S
C794 C792 1.391 . S
C794 C795 1.400 . S
C795 C794 1.400 . S
C795 C796 1.398 . S
C795 C801 1.491 . S
C796 H787 0.950 . S
C796 C795 1.398 . S
C796 C797 1.391 . S
C797 H785 0.950 . S
C797 C793 1.393 . S
C797 C796 1.391 . S
C798 H788 0.950 . S
C798 C799 1.386 . S
C798 C800 1.391 1_655 S
C799 C798 1.386 . S
C799 C803 1.393 . S
C800 H789 0.950 . S
C800 C798 1.391 1_455 S
C800 C801 1.400 . S
C801 C795 1.491 . S
C801 C800 1.400 . S
C801 C802 1.398 . S
C802 H790 0.950 . S
C802 C801 1.398 . S
C802 C803 1.391 1_455 S
C803 H791 0.950 . S
C803 C799 1.393 . S
C803 C802 1.391 1_655 S
H804 C812 0.950 . S
H805 C817 0.950 . S
H806 C814 0.950 1_655 S
H807 C816 0.950 . S
H808 C818 0.950 . S
H809 C820 0.950 . S
H810 C822 0.950 . S
H811 C823 0.950 . S
C812 H804 0.950 . S
C812 C813 1.386 . S
C812 C814 1.391 . S
C813 C812 1.386 . S
C813 C817 1.393 . S
C814 H806 0.950 1_455 S
C814 C812 1.391 . S
C814 C815 1.400 . S
C815 C814 1.400 . S
C815 C816 1.398 . S
C815 C821 1.491 . S
C816 H807 0.950 . S
C816 C815 1.398 . S
C816 C817 1.391 . S
C817 H805 0.950 . S
C817 C813 1.393 . S
C817 C816 1.391 . S
C818 H808 0.950 . S
C818 C819 1.386 1_455 S
C818 C820 1.391 . S
C819 C818 1.386 1_655 S
C819 C823 1.393 . S
C820 H809 0.950 . S
C820 C818 1.391 . S
C820 C821 1.400 . S
C821 C815 1.491 . S
C821 C820 1.400 . S
C821 C822 1.398 1_455 S
C822 H810 0.950 . S
C822 C821 1.398 1_655 S
C822 C823 1.391 . S
C823 H811 0.950 . S
C823 C819 1.393 . S
C823 C822 1.391 . S
H824 C832 0.950 . S
H825 C837 0.950 . S
H826 C834 0.950 . S
H827 C836 0.950 . S
H828 C838 0.950 . S
H829 C840 0.950 . S
H830 C842 0.950 . S
H831 C843 0.950 . S
C832 H824 0.950 . S
C832 C833 1.386 . S
C832 C834 1.391 . S
C833 C832 1.386 . S
C833 C837 1.393 . S
C834 H826 0.950 . S
C834 C832 1.391 . S
C834 C835 1.400 . S
C835 C834 1.400 . S
C835 C836 1.398 . S
C835 C841 1.491 . S
C836 H827 0.950 . S
C836 C835 1.398 . S
C836 C837 1.391 . S
C837 H825 0.950 . S
C837 C833 1.393 . S
C837 C836 1.391 . S
C838 H828 0.950 . S
C838 C839 1.386 . S
C838 C840 1.391 . S
C839 C838 1.386 . S
C839 C843 1.393 . S
C840 H829 0.950 . S
C840 C838 1.391 . S
C840 C841 1.400 . S
C841 C835 1.491 . S
C841 C840 1.400 . S
C841 C842 1.398 . S
C842 H830 0.950 . S
C842 C841 1.398 . S
C842 C843 1.391 . S
C843 H831 0.950 . S
C843 C839 1.393 . S
C843 C842 1.391 . S
H844 C852 0.950 . S
H845 C857 0.950 . S
H846 C854 0.950 . S
H847 C856 0.950 1_545 S
H848 C858 0.950 . S
H849 C860 0.950 . S
H850 C862 0.950 . S
H851 C863 0.950 . S
C852 H844 0.950 . S
C852 C853 1.386 . S
C852 C854 1.391 . S
C853 C852 1.386 . S
C853 C857 1.393 . S
C854 H846 0.950 . S
C854 C852 1.391 . S
C854 C855 1.400 . S
C855 C854 1.400 . S
C855 C856 1.398 . S
C855 C861 1.491 . S
C856 H847 0.950 1_565 S
C856 C855 1.398 . S
C856 C857 1.391 . S
C857 H845 0.950 . S
C857 C853 1.393 . S
C857 C856 1.391 . S
C858 H848 0.950 . S
C858 C859 1.386 . S
C858 C860 1.391 . S
C859 C858 1.386 . S
C859 C863 1.393 1_545 S
C860 H849 0.950 . S
C860 C858 1.391 . S
C860 C861 1.400 1_545 S
C861 C855 1.491 . S
C861 C860 1.400 1_565 S
C861 C862 1.398 . S
C862 H850 0.950 . S
C862 C861 1.398 . S
C862 C863 1.391 . S
C863 H851 0.950 . S
C863 C859 1.393 1_565 S
C863 C862 1.391 . S
H864 C872 0.950 . S
H865 C877 0.950 . S
H866 C874 0.950 . S
H867 C876 0.950 . S
H868 C878 0.950 . S
H869 C880 0.950 . S
H870 C882 0.950 . S
H871 C883 0.950 . S
C872 H864 0.950 . S
C872 C873 1.386 . S
C872 C874 1.391 . S
C873 C872 1.386 . S
C873 C877 1.393 . S
C874 H866 0.950 . S
C874 C872 1.391 . S
C874 C875 1.400 . S
C875 C874 1.400 . S
C875 C876 1.398 . S
C875 C881 1.491 . S
C876 H867 0.950 . S
C876 C875 1.398 . S
C876 C877 1.391 . S
C877 H865 0.950 . S
C877 C873 1.393 . S
C877 C876 1.391 . S
C878 H868 0.950 . S
C878 C879 1.386 . S
C878 C880 1.391 . S
C879 C878 1.386 . S
C879 C883 1.393 . S
C880 H869 0.950 . S
C880 C878 1.391 . S
C880 C881 1.400 . S
C881 C875 1.491 . S
C881 C880 1.400 . S
C881 C882 1.398 . S
C882 H870 0.950 . S
C882 C881 1.398 . S
C882 C883 1.391 . S
C883 H871 0.950 . S
C883 C879 1.393 . S
C883 C882 1.391 . S
H884 C892 0.950 . S
H885 C897 0.950 . S
H886 C894 0.950 . S
H887 C896 0.950 . S
H888 C898 0.950 . S
H889 C900 0.950 . S
H890 C902 0.950 . S
H891 C903 0.950 . S
C892 H884 0.950 . S
C892 C893 1.386 . S
C892 C894 1.391 . S
C893 C892 1.386 . S
C893 C897 1.393 . S
C894 H886 0.950 . S
C894 C892 1.391 . S
C894 C895 1.400 . S
C895 C894 1.400 . S
C895 C896 1.398 . S
C895 C901 1.491 . S
C896 H887 0.950 . S
C896 C895 1.398 . S
C896 C897 1.391 . S
C897 H885 0.950 . S
C897 C893 1.393 . S
C897 C896 1.391 . S
C898 H888 0.950 . S
C898 C899 1.386 . S
C898 C900 1.391 . S
C899 C898 1.386 . S
C899 C903 1.393 . S
C900 H889 0.950 . S
C900 C898 1.391 . S
C900 C901 1.400 . S
C901 C895 1.491 . S
C901 C900 1.400 . S
C901 C902 1.398 . S
C902 H890 0.950 . S
C902 C901 1.398 . S
C902 C903 1.391 . S
C903 H891 0.950 . S
C903 C899 1.393 . S
C903 C902 1.391 . S
H904 C912 0.950 . S
H905 C917 0.950 . S
H906 C914 0.950 . S
H907 C916 0.950 . S
H908 C918 0.950 . S
H909 C920 0.950 . S
H910 C922 0.950 . S
H911 C923 0.950 . S
C912 H904 0.950 . S
C912 C913 1.386 . S
C912 C914 1.391 . S
C913 C912 1.386 . S
C913 C917 1.393 . S
C914 H906 0.950 . S
C914 C912 1.391 . S
C914 C915 1.400 . S
C915 C914 1.400 . S
C915 C916 1.398 . S
C915 C921 1.491 . S
C916 H907 0.950 . S
C916 C915 1.398 . S
C916 C917 1.391 . S
C917 H905 0.950 . S
C917 C913 1.393 . S
C917 C916 1.391 . S
C918 H908 0.950 . S
C918 C919 1.386 . S
C918 C920 1.391 . S
C919 C918 1.386 . S
C919 C923 1.393 . S
C920 H909 0.950 . S
C920 C918 1.391 . S
C920 C921 1.400 . S
C921 C915 1.491 . S
C921 C920 1.400 . S
C921 C922 1.398 . S
C922 H910 0.950 . S
C922 C921 1.398 . S
C922 C923 1.391 . S
C923 H911 0.950 . S
C923 C919 1.393 . S
C923 C922 1.391 . S
H924 C932 0.950 . S
H925 C937 0.950 . S
H926 C934 0.950 . S
H927 C936 0.950 . S
H928 C938 0.950 . S
H929 C940 0.950 . S
H930 C942 0.950 . S
H931 C943 0.950 . S
C932 H924 0.950 . S
C932 C933 1.386 . S
C932 C934 1.391 . S
C933 C932 1.386 . S
C933 C937 1.393 . S
C934 H926 0.950 . S
C934 C932 1.391 . S
C934 C935 1.400 . S
C935 C934 1.400 . S
C935 C936 1.398 . S
C935 C941 1.491 . S
C936 H927 0.950 . S
C936 C935 1.398 . S
C936 C937 1.391 . S
C937 H925 0.950 . S
C937 C933 1.393 . S
C937 C936 1.391 . S
C938 H928 0.950 . S
C938 C939 1.386 . S
C938 C940 1.391 . S
C939 C938 1.386 . S
C939 C943 1.393 . S
C940 H929 0.950 . S
C940 C938 1.391 . S
C940 C941 1.400 . S
C941 C935 1.491 . S
C941 C940 1.400 . S
C941 C942 1.398 . S
C942 H930 0.950 . S
C942 C941 1.398 . S
C942 C943 1.391 . S
C943 H931 0.950 . S
C943 C939 1.393 . S
C943 C942 1.391 . S
H944 C952 0.950 . S
H945 C957 0.950 . S
H946 C954 0.950 . S
H947 C956 0.950 . S
H948 C958 0.950 . S
H949 C960 0.950 . S
H950 C962 0.950 . S
H951 C963 0.950 . S
C952 H944 0.950 . S
C952 C953 1.386 . S
C952 C954 1.391 . S
C953 C952 1.386 . S
C953 C957 1.393 . S
C954 H946 0.950 . S
C954 C952 1.391 . S
C954 C955 1.400 . S
C955 C954 1.400 . S
C955 C956 1.398 . S
C955 C961 1.491 . S
C956 H947 0.950 . S
C956 C955 1.398 . S
C956 C957 1.391 . S
C957 H945 0.950 . S
C957 C953 1.393 . S
C957 C956 1.391 . S
C958 H948 0.950 . S
C958 C959 1.386 . S
C958 C960 1.391 . S
C959 C958 1.386 . S
C959 C963 1.393 . S
C960 H949 0.950 . S
C960 C958 1.391 . S
C960 C961 1.400 . S
C961 C955 1.491 . S
C961 C960 1.400 . S
C961 C962 1.398 . S
C962 H950 0.950 . S
C962 C961 1.398 . S
C962 C963 1.391 . S
C963 H951 0.950 . S
C963 C959 1.393 . S
C963 C962 1.391 . S
H964 C972 0.950 . S
H965 C977 0.950 . S
H966 C974 0.950 . S
H967 C976 0.950 . S
H968 C978 0.950 . S
H969 C980 0.950 . S
H970 C982 0.950 . S
H971 C983 0.950 . S
C972 H964 0.950 . S
C972 C973 1.386 . S
C972 C974 1.391 . S
C973 C972 1.386 . S
C973 C977 1.393 . S
C974 H966 0.950 . S
C974 C972 1.391 . S
C974 C975 1.400 . S
C975 C974 1.400 . S
C975 C976 1.398 . S
C975 C981 1.491 . S
C976 H967 0.950 . S
C976 C975 1.398 . S
C976 C977 1.391 . S
C977 H965 0.950 . S
C977 C973 1.393 . S
C977 C976 1.391 . S
C978 H968 0.950 . S
C978 C979 1.386 . S
C978 C980 1.391 . S
C979 C978 1.386 . S
C979 C983 1.393 . S
C980 H969 0.950 . S
C980 C978 1.391 . S
C980 C981 1.400 . S
C981 C975 1.491 . S
C981 C980 1.400 . S
C981 C982 1.398 . S
C982 H970 0.950 . S
C982 C981 1.398 . S
C982 C983 1.391 . S
C983 H971 0.950 . S
C983 C979 1.393 . S
C983 C982 1.391 . S
H984 C992 0.950 . S
H985 C997 0.950 . S
H986 C994 0.950 . S
H987 C996 0.950 . S
H988 C998 0.950 . S
H989 C1000 0.950 . S
H990 C1002 0.950 . S
H991 C1003 0.950 . S
C992 H984 0.950 . S
C992 C993 1.386 . S
C992 C994 1.391 . S
C993 C992 1.386 . S
C993 C997 1.393 . S
C994 H986 0.950 . S
C994 C992 1.391 . S
C994 C995 1.400 . S
C995 C994 1.400 . S
C995 C996 1.398 . S
C995 C1001 1.491 . S
C996 H987 0.950 . S
C996 C995 1.398 . S
C996 C997 1.391 . S
C997 H985 0.950 . S
C997 C993 1.393 . S
C997 C996 1.391 . S
C998 H988 0.950 . S
C998 C999 1.386 . S
C998 C1000 1.391 . S
C999 C998 1.386 . S
C999 C1003 1.393 . S
C1000 H989 0.950 . S
C1000 C998 1.391 . S
C1000 C1001 1.400 . S
C1001 C995 1.491 . S
C1001 C1000 1.400 . S
C1001 C1002 1.398 . S
C1002 H990 0.950 . S
C1002 C1001 1.398 . S
C1002 C1003 1.391 . S
C1003 H991 0.950 . S
C1003 C999 1.393 . S
C1003 C1002 1.391 . S
H1004 C1012 0.950 . S
H1005 C1017 0.950 . S
H1006 C1014 0.950 . S
H1007 C1016 0.950 . S
H1008 C1018 0.950 . S
H1009 C1020 0.950 . S
H1010 C1022 0.950 . S
H1011 C1023 0.950 . S
C1012 H1004 0.950 . S
C1012 C1013 1.386 . S
C1012 C1014 1.391 . S
C1013 C1012 1.386 . S
C1013 C1017 1.393 . S
C1014 H1006 0.950 . S
C1014 C1012 1.391 . S
C1014 C1015 1.400 . S
C1015 C1014 1.400 . S
C1015 C1016 1.398 . S
C1015 C1021 1.491 . S
C1016 H1007 0.950 . S
C1016 C1015 1.398 . S
C1016 C1017 1.391 . S
C1017 H1005 0.950 . S
C1017 C1013 1.393 . S
C1017 C1016 1.391 . S
C1018 H1008 0.950 . S
C1018 C1019 1.386 . S
C1018 C1020 1.391 . S
C1019 C1018 1.386 . S
C1019 C1023 1.393 . S
C1020 H1009 0.950 . S
C1020 C1018 1.391 . S
C1020 C1021 1.400 . S
C1021 C1015 1.491 . S
C1021 C1020 1.400 . S
C1021 C1022 1.398 . S
C1022 H1010 0.950 . S
C1022 C1021 1.398 . S
C1022 C1023 1.391 . S
C1023 H1011 0.950 . S
C1023 C1019 1.393 . S
C1023 C1022 1.391 . S
H1024 C1032 0.950 . S
H1025 C1037 0.950 . S
H1026 C1034 0.950 . S
H1027 C1036 0.950 . S
H1028 C1038 0.950 . S
H1029 C1040 0.950 . S
H1030 C1042 0.950 . S
H1031 C1043 0.950 . S
C1032 H1024 0.950 . S
C1032 C1033 1.386 . S
C1032 C1034 1.391 . S
C1033 C1032 1.386 . S
C1033 C1037 1.393 . S
C1034 H1026 0.950 . S
C1034 C1032 1.391 . S
C1034 C1035 1.400 . S
C1035 C1034 1.400 . S
C1035 C1036 1.398 . S
C1035 C1041 1.491 . S
C1036 H1027 0.950 . S
C1036 C1035 1.398 . S
C1036 C1037 1.391 . S
C1037 H1025 0.950 . S
C1037 C1033 1.393 . S
C1037 C1036 1.391 . S
C1038 H1028 0.950 . S
C1038 C1039 1.386 . S
C1038 C1040 1.391 . S
C1039 C1038 1.386 . S
C1039 C1043 1.393 . S
C1040 H1029 0.950 . S
C1040 C1038 1.391 . S
C1040 C1041 1.400 . S
C1041 C1035 1.491 . S
C1041 C1040 1.400 . S
C1041 C1042 1.398 . S
C1042 H1030 0.950 . S
C1042 C1041 1.398 . S
C1042 C1043 1.391 . S
C1043 H1031 0.950 . S
C1043 C1039 1.393 . S
C1043 C1042 1.391 . S
H1044 C1052 0.950 1_554 S
H1045 C1057 0.950 . S
H1046 C1054 0.950 . S
H1047 C1056 0.950 . S
H1048 C1058 0.950 . S
H1049 C1060 0.950 . S
H1050 C1062 0.950 . S
H1051 C1063 0.950 . S
C1052 H1044 0.950 1_556 S
C1052 C1053 1.386 . S
C1052 C1054 1.391 . S
C1053 C1052 1.386 . S
C1053 C1057 1.393 . S
C1054 H1046 0.950 . S
C1054 C1052 1.391 . S
C1054 C1055 1.400 . S
C1055 C1054 1.400 . S
C1055 C1056 1.398 . S
C1055 C1061 1.491 . S
C1056 H1047 0.950 . S
C1056 C1055 1.398 . S
C1056 C1057 1.391 . S
C1057 H1045 0.950 . S
C1057 C1053 1.393 . S
C1057 C1056 1.391 . S
C1058 H1048 0.950 . S
C1058 C1059 1.386 . S
C1058 C1060 1.391 . S
C1059 C1058 1.386 . S
C1059 C1063 1.393 . S
C1060 H1049 0.950 . S
C1060 C1058 1.391 . S
C1060 C1061 1.400 . S
C1061 C1055 1.491 . S
C1061 C1060 1.400 . S
C1061 C1062 1.398 . S
C1062 H1050 0.950 . S
C1062 C1061 1.398 . S
C1062 C1063 1.391 . S
C1063 H1051 0.950 . S
C1063 C1059 1.393 . S
C1063 C1062 1.391 . S
H1064 C1072 0.950 . S
H1065 C1077 0.950 1_554 S
H1066 C1074 0.950 . S
H1067 C1076 0.950 . S
H1068 C1078 0.950 . S
H1069 C1080 0.950 . S
H1070 C1082 0.950 . S
H1071 C1083 0.950 . S
C1072 H1064 0.950 . S
C1072 C1073 1.386 . S
C1072 C1074 1.391 . S
C1073 C1072 1.386 . S
C1073 C1077 1.393 . S
C1074 H1066 0.950 . S
C1074 C1072 1.391 . S
C1074 C1075 1.400 . S
C1075 C1074 1.400 . S
C1075 C1076 1.398 . S
C1075 C1081 1.491 . S
C1076 H1067 0.950 . S
C1076 C1075 1.398 . S
C1076 C1077 1.391 . S
C1077 H1065 0.950 1_556 S
C1077 C1073 1.393 . S
C1077 C1076 1.391 . S
C1078 H1068 0.950 . S
C1078 C1079 1.386 . S
C1078 C1080 1.391 . S
C1079 C1078 1.386 . S
C1079 C1083 1.393 . S
C1080 H1069 0.950 . S
C1080 C1078 1.391 . S
C1080 C1081 1.400 . S
C1081 C1075 1.491 . S
C1081 C1080 1.400 . S
C1081 C1082 1.398 . S
C1082 H1070 0.950 . S
C1082 C1081 1.398 . S
C1082 C1083 1.391 . S
C1083 H1071 0.950 . S
C1083 C1079 1.393 . S
C1083 C1082 1.391 . S
H1084 C1092 0.950 . S
H1085 C1097 0.950 . S
H1086 C1094 0.950 . S
H1087 C1096 0.950 . S
H1088 C1098 0.950 . S
H1089 C1100 0.950 . S
H1090 C1102 0.950 . S
H1091 C1103 0.950 1_554 S
C1092 H1084 0.950 . S
C1092 C1093 1.386 . S
C1092 C1094 1.391 . S
C1093 C1092 1.386 . S
C1093 C1097 1.393 . S
C1094 H1086 0.950 . S
C1094 C1092 1.391 . S
C1094 C1095 1.400 . S
C1095 C1094 1.400 . S
C1095 C1096 1.398 . S
C1095 C1101 1.491 . S
C1096 H1087 0.950 . S
C1096 C1095 1.398 . S
C1096 C1097 1.391 . S
C1097 H1085 0.950 . S
C1097 C1093 1.393 . S
C1097 C1096 1.391 . S
C1098 H1088 0.950 . S
C1098 C1099 1.386 . S
C1098 C1100 1.391 . S
C1099 C1098 1.386 . S
C1099 C1103 1.393 . S
C1100 H1089 0.950 . S
C1100 C1098 1.391 . S
C1100 C1101 1.400 . S
C1101 C1095 1.491 . S
C1101 C1100 1.400 . S
C1101 C1102 1.398 . S
C1102 H1090 0.950 . S
C1102 C1101 1.398 . S
C1102 C1103 1.391 . S
C1103 H1091 0.950 1_556 S
C1103 C1099 1.393 . S
C1103 C1102 1.391 . S
H1104 C1112 0.950 . S
H1105 C1117 0.950 . S
H1106 C1114 0.950 . S
H1107 C1116 0.907 1_655 S
H1108 C1118 0.950 . S
H1109 C1120 0.950 . S
H1110 C1122 0.908 1_455 S
H1111 C1123 0.950 . S
C1112 H1104 0.950 . S
C1112 C1113 1.386 . S
C1112 C1114 1.391 . S
C1113 C1112 1.386 . S
C1113 C1117 1.393 . S
C1114 H1106 0.950 . S
C1114 C1112 1.391 . S
C1114 C1115 1.400 . S
C1115 C1114 1.400 . S
C1115 C1116 1.418 . S
C1115 C1121 1.491 1_455 S
C1116 H1107 0.907 1_455 S
C1116 C1115 1.418 . S
C1116 C1117 1.415 . S
C1117 H1105 0.950 . S
C1117 C1113 1.393 . S
C1117 C1116 1.415 . S
C1118 H1108 0.950 . S
C1118 C1119 1.386 . S
C1118 C1120 1.391 . S
C1119 C1118 1.386 . S
C1119 C1123 1.393 . S
C1120 H1109 0.950 . S
C1120 C1118 1.391 . S
C1120 C1121 1.400 . S
C1121 C1115 1.491 1_655 S
C1121 C1120 1.400 . S
C1121 C1122 1.417 . S
C1122 H1110 0.908 1_655 S
C1122 C1121 1.417 . S
C1122 C1123 1.414 . S
C1123 H1111 0.950 . S
C1123 C1119 1.393 . S
C1123 C1122 1.414 . S
H1124 C1132 0.950 . S
H1125 C1137 0.950 . S
H1126 C1134 0.950 . S
H1127 C1136 0.950 . S
H1128 C1138 0.950 . S
H1129 C1140 0.950 . S
H1130 C1142 0.950 . S
H1131 C1143 0.950 . S
C1132 H1124 0.950 . S
C1132 C1133 1.386 . S
C1132 C1134 1.391 . S
C1133 C1132 1.386 . S
C1133 C1137 1.393 . S
C1134 H1126 0.950 . S
C1134 C1132 1.391 . S
C1134 C1135 1.400 . S
C1135 C1134 1.400 . S
C1135 C1136 1.398 . S
C1135 C1141 1.491 . S
C1136 H1127 0.950 . S
C1136 C1135 1.398 . S
C1136 C1137 1.391 . S
C1137 H1125 0.950 . S
C1137 C1133 1.393 . S
C1137 C1136 1.391 . S
C1138 H1128 0.950 . S
C1138 C1139 1.386 . S
C1138 C1140 1.391 . S
C1139 C1138 1.386 . S
C1139 C1143 1.393 . S
C1140 H1129 0.950 . S
C1140 C1138 1.391 . S
C1140 C1141 1.400 . S
C1141 C1135 1.491 . S
C1141 C1140 1.400 . S
C1141 C1142 1.398 . S
C1142 H1130 0.950 . S
C1142 C1141 1.398 . S
C1142 C1143 1.391 . S
C1143 H1131 0.950 . S
C1143 C1139 1.393 . S
C1143 C1142 1.391 . S
H1144 C1152 0.950 . S
H1145 C1157 0.950 . S
H1146 C1154 0.950 . S
H1147 C1156 0.950 1_565 S
H1148 C1158 0.950 . S
H1149 C1160 0.950 . S
H1150 C1162 0.950 1_545 S
H1151 C1163 0.950 . S
C1152 H1144 0.950 . S
C1152 C1153 1.386 . S
C1152 C1154 1.391 . S
C1153 C1152 1.386 . S
C1153 C1157 1.393 . S
C1154 H1146 0.950 . S
C1154 C1152 1.391 . S
C1154 C1155 1.400 . S
C1155 C1154 1.400 . S
C1155 C1156 1.398 . S
C1155 C1161 1.491 1_545 S
C1156 H1147 0.950 1_545 S
C1156 C1155 1.398 . S
C1156 C1157 1.391 . S
C1157 H1145 0.950 . S
C1157 C1153 1.393 . S
C1157 C1156 1.391 . S
C1158 H1148 0.950 . S
C1158 C1159 1.386 . S
C1158 C1160 1.391 . S
C1159 C1158 1.386 . S
C1159 C1163 1.393 . S
C1160 H1149 0.950 . S
C1160 C1158 1.391 . S
C1160 C1161 1.400 . S
C1161 C1155 1.491 1_565 S
C1161 C1160 1.400 . S
C1161 C1162 1.398 . S
C1162 H1150 0.950 1_565 S
C1162 C1161 1.398 . S
C1162 C1163 1.391 . S
C1163 H1151 0.950 . S
C1163 C1159 1.393 . S
C1163 C1162 1.391 . S
H1164 C1172 0.950 . S
H1165 C1177 0.950 . S
H1166 C1174 0.950 . S
H1167 C1176 0.961 . S
H1168 C1178 0.950 . S
H1169 C1180 0.950 . S
H1170 C1182 0.962 . S
H1171 C1183 0.950 . S
C1172 H1164 0.950 . S
C1172 C1173 1.386 . S
C1172 C1174 1.391 . S
C1173 C1172 1.386 . S
C1173 C1177 1.393 . S
C1174 H1166 0.950 . S
C1174 C1172 1.391 . S
C1174 C1175 1.400 . S
C1175 C1174 1.400 . S
C1175 C1176 1.394 1_565 S
C1175 C1181 1.491 1_565 S
C1176 H1167 0.961 . S
C1176 C1175 1.394 1_545 S
C1176 C1177 1.384 1_545 S
C1177 H1165 0.950 . S
C1177 C1173 1.393 . S
C1177 C1176 1.384 1_565 S
C1178 H1168 0.950 . S
C1178 C1179 1.386 . S
C1178 C1180 1.391 . S
C1179 C1178 1.386 . S
C1179 C1183 1.393 . S
C1180 H1169 0.950 . S
C1180 C1178 1.391 . S
C1180 C1181 1.400 . S
C1181 C1175 1.491 1_545 S
C1181 C1180 1.400 . S
C1181 C1182 1.393 1_545 S
C1182 H1170 0.962 . S
C1182 C1181 1.393 1_565 S
C1182 C1183 1.384 1_565 S
C1183 H1171 0.950 . S
C1183 C1179 1.393 . S
C1183 C1182 1.384 1_545 S
H1184 C1192 0.950 . S
H1185 C1197 0.950 . S
H1186 C1194 0.950 . S
H1187 C1196 0.950 . S
H1188 C1198 0.950 . S
H1189 C1200 0.950 . S
H1190 C1202 0.950 . S
H1191 C1203 0.950 . S
C1192 H1184 0.950 . S
C1192 C1193 1.386 . S
C1192 C1194 1.391 . S
C1193 C1192 1.386 . S
C1193 C1197 1.393 . S
C1194 H1186 0.950 . S
C1194 C1192 1.391 . S
C1194 C1195 1.400 . S
C1195 C1194 1.400 . S
C1195 C1196 1.398 . S
C1195 C1201 1.491 1_655 S
C1196 H1187 0.950 . S
C1196 C1195 1.398 . S
C1196 C1197 1.391 . S
C1197 H1185 0.950 . S
C1197 C1193 1.393 . S
C1197 C1196 1.391 . S
C1198 H1188 0.950 . S
C1198 C1199 1.386 . S
C1198 C1200 1.391 . S
C1199 C1198 1.386 . S
C1199 C1203 1.393 . S
C1200 H1189 0.950 . S
C1200 C1198 1.391 . S
C1200 C1201 1.400 . S
C1201 C1195 1.491 1_455 S
C1201 C1200 1.400 . S
C1201 C1202 1.398 . S
C1202 H1190 0.950 . S
C1202 C1201 1.398 . S
C1202 C1203 1.391 . S
C1203 H1191 0.950 . S
C1203 C1199 1.393 . S
C1203 C1202 1.391 . S
H1204 C1212 0.950 . S
H1205 C1217 0.950 . S
H1206 C1214 0.950 . S
H1207 C1216 0.950 . S
H1208 C1218 0.950 . S
H1209 C1220 0.950 . S
H1210 C1222 0.950 . S
H1211 C1223 0.950 . S
C1212 H1204 0.950 . S
C1212 C1213 1.386 . S
C1212 C1214 1.391 . S
C1213 C1212 1.386 . S
C1213 C1217 1.393 . S
C1214 H1206 0.950 . S
C1214 C1212 1.391 . S
C1214 C1215 1.400 . S
C1215 C1214 1.400 . S
C1215 C1216 1.398 . S
C1215 C1221 1.491 . S
C1216 H1207 0.950 . S
C1216 C1215 1.398 . S
C1216 C1217 1.391 . S
C1217 H1205 0.950 . S
C1217 C1213 1.393 . S
C1217 C1216 1.391 . S
C1218 H1208 0.950 . S
C1218 C1219 1.386 . S
C1218 C1220 1.391 . S
C1219 C1218 1.386 . S
C1219 C1223 1.393 . S
C1220 H1209 0.950 . S
C1220 C1218 1.391 . S
C1220 C1221 1.400 . S
C1221 C1215 1.491 . S
C1221 C1220 1.400 . S
C1221 C1222 1.398 . S
C1222 H1210 0.950 . S
C1222 C1221 1.398 . S
C1222 C1223 1.391 . S
C1223 H1211 0.950 . S
C1223 C1219 1.393 . S
C1223 C1222 1.391 . S
H1224 C1232 0.950 . S
H1225 C1237 0.950 . S
H1226 C1234 0.950 . S
H1227 C1236 0.950 . S
H1228 C1238 0.950 . S
H1229 C1240 0.950 . S
H1230 C1242 0.950 . S
H1231 C1243 0.950 . S
C1232 H1224 0.950 . S
C1232 C1233 1.386 . S
C1232 C1234 1.391 . S
C1233 C1232 1.386 . S
C1233 C1237 1.393 . S
C1234 H1226 0.950 . S
C1234 C1232 1.391 . S
C1234 C1235 1.400 . S
C1235 C1234 1.400 . S
C1235 C1236 1.398 . S
C1235 C1241 1.491 . S
C1236 H1227 0.950 . S
C1236 C1235 1.398 . S
C1236 C1237 1.391 . S
C1237 H1225 0.950 . S
C1237 C1233 1.393 . S
C1237 C1236 1.391 . S
C1238 H1228 0.950 . S
C1238 C1239 1.386 . S
C1238 C1240 1.391 . S
C1239 C1238 1.386 . S
C1239 C1243 1.393 . S
C1240 H1229 0.950 . S
C1240 C1238 1.391 . S
C1240 C1241 1.400 . S
C1241 C1235 1.491 . S
C1241 C1240 1.400 . S
C1241 C1242 1.398 . S
C1242 H1230 0.950 . S
C1242 C1241 1.398 . S
C1242 C1243 1.391 . S
C1243 H1231 0.950 . S
C1243 C1239 1.393 . S
C1243 C1242 1.391 . S
H1244 C1252 0.950 . S
H1245 C1257 0.950 . S
H1246 C1254 0.950 . S
H1247 C1256 0.950 . S
H1248 C1258 0.950 . S
H1249 C1260 0.950 . S
H1250 C1262 0.950 . S
H1251 C1263 0.950 . S
C1252 H1244 0.950 . S
C1252 C1253 1.386 . S
C1252 C1254 1.391 . S
C1253 C1252 1.386 . S
C1253 C1257 1.393 . S
C1254 H1246 0.950 . S
C1254 C1252 1.391 . S
C1254 C1255 1.400 . S
C1255 C1254 1.400 . S
C1255 C1256 1.398 . S
C1255 C1261 1.491 . S
C1256 H1247 0.950 . S
C1256 C1255 1.398 . S
C1256 C1257 1.391 . S
C1257 H1245 0.950 . S
C1257 C1253 1.393 . S
C1257 C1256 1.391 . S
C1258 H1248 0.950 . S
C1258 C1259 1.386 . S
C1258 C1260 1.391 . S
C1259 C1258 1.386 . S
C1259 C1263 1.393 . S
C1260 H1249 0.950 . S
C1260 C1258 1.391 . S
C1260 C1261 1.400 . S
C1261 C1255 1.491 . S
C1261 C1260 1.400 . S
C1261 C1262 1.398 . S
C1262 H1250 0.950 . S
C1262 C1261 1.398 . S
C1262 C1263 1.391 . S
C1263 H1251 0.950 . S
C1263 C1259 1.393 . S
C1263 C1262 1.391 . S
H1264 C1272 0.950 . S
H1265 C1277 0.950 . S
H1266 C1274 0.950 . S
H1267 C1276 0.950 . S
H1268 C1278 0.950 . S
H1269 C1280 0.950 . S
H1270 C1282 0.950 . S
H1271 C1283 0.950 . S
C1272 H1264 0.950 . S
C1272 C1273 1.386 . S
C1272 C1274 1.391 . S
C1273 C1272 1.386 . S
C1273 C1277 1.393 . S
C1274 H1266 0.950 . S
C1274 C1272 1.391 . S
C1274 C1275 1.400 . S
C1275 C1274 1.400 . S
C1275 C1276 1.398 . S
C1275 C1281 1.491 . S
C1276 H1267 0.950 . S
C1276 C1275 1.398 . S
C1276 C1277 1.391 . S
C1277 H1265 0.950 . S
C1277 C1273 1.393 . S
C1277 C1276 1.391 . S
C1278 H1268 0.950 . S
C1278 C1279 1.386 . S
C1278 C1280 1.391 . S
C1279 C1278 1.386 . S
C1279 C1283 1.393 . S
C1280 H1269 0.950 . S
C1280 C1278 1.391 . S
C1280 C1281 1.400 . S
C1281 C1275 1.491 . S
C1281 C1280 1.400 . S
C1281 C1282 1.398 . S
C1282 H1270 0.950 . S
C1282 C1281 1.398 . S
C1282 C1283 1.391 . S
C1283 H1271 0.950 . S
C1283 C1279 1.393 . S
C1283 C1282 1.391 . S
H1284 C1292 0.950 . S
H1285 C1297 0.950 . S
H1286 C1294 0.950 . S
H1287 C1296 0.950 . S
H1288 C1298 0.950 . S
H1289 C1300 0.950 . S
H1290 C1302 0.950 . S
H1291 C1303 0.950 . S
C1292 H1284 0.950 . S
C1292 C1293 1.386 . S
C1292 C1294 1.391 . S
C1293 C1292 1.386 . S
C1293 C1297 1.393 . S
C1294 H1286 0.950 . S
C1294 C1292 1.391 . S
C1294 C1295 1.400 . S
C1295 C1294 1.400 . S
C1295 C1296 1.398 . S
C1295 C1301 1.491 . S
C1296 H1287 0.950 . S
C1296 C1295 1.398 . S
C1296 C1297 1.391 . S
C1297 H1285 0.950 . S
C1297 C1293 1.393 . S
C1297 C1296 1.391 . S
C1298 H1288 0.950 . S
C1298 C1299 1.386 . S
C1298 C1300 1.391 . S
C1299 C1298 1.386 . S
C1299 C1303 1.393 . S
C1300 H1289 0.950 . S
C1300 C1298 1.391 . S
C1300 C1301 1.400 . S
C1301 C1295 1.491 . S
C1301 C1300 1.400 . S
C1301 C1302 1.398 . S
C1302 H1290 0.950 . S
C1302 C1301 1.398 . S
C1302 C1303 1.391 . S
C1303 H1291 0.950 . S
C1303 C1299 1.393 . S
C1303 C1302 1.391 . S
H1304 C1312 0.950 . S
H1305 C1317 0.950 . S
H1306 C1314 0.950 . S
H1307 C1316 0.950 . S
H1308 C1318 0.950 . S
H1309 C1320 0.950 . S
H1310 C1322 0.950 . S
H1311 C1323 0.950 . S
C1312 H1304 0.950 . S
C1312 C1313 1.386 . S
C1312 C1314 1.391 . S
C1313 C1312 1.386 . S
C1313 C1317 1.393 . S
C1314 H1306 0.950 . S
C1314 C1312 1.391 . S
C1314 C1315 1.400 . S
C1315 C1314 1.400 . S
C1315 C1316 1.398 . S
C1315 C1321 1.491 . S
C1316 H1307 0.950 . S
C1316 C1315 1.398 . S
C1316 C1317 1.391 . S
C1317 H1305 0.950 . S
C1317 C1313 1.393 . S
C1317 C1316 1.391 . S
C1318 H1308 0.950 . S
C1318 C1319 1.386 . S
C1318 C1320 1.391 . S
C1319 C1318 1.386 . S
C1319 C1323 1.393 . S
C1320 H1309 0.950 . S
C1320 C1318 1.391 . S
C1320 C1321 1.400 . S
C1321 C1315 1.491 . S
C1321 C1320 1.400 . S
C1321 C1322 1.398 . S
C1322 H1310 0.950 . S
C1322 C1321 1.398 . S
C1322 C1323 1.391 . S
C1323 H1311 0.950 . S
C1323 C1319 1.393 . S
C1323 C1322 1.391 . S
H1324 C1332 0.950 . S
H1325 C1337 0.950 . S
H1326 C1334 0.950 . S
H1327 C1336 0.950 . S
H1328 C1338 0.950 . S
H1329 C1340 0.950 . S
H1330 C1342 0.950 . S
H1331 C1343 0.950 . S
C1332 H1324 0.950 . S
C1332 C1333 1.386 . S
C1332 C1334 1.391 . S
C1333 C1332 1.386 . S
C1333 C1337 1.393 . S
C1334 H1326 0.950 . S
C1334 C1332 1.391 . S
C1334 C1335 1.400 . S
C1335 C1334 1.400 . S
C1335 C1336 1.398 . S
C1335 C1341 1.491 . S
C1336 H1327 0.950 . S
C1336 C1335 1.398 . S
C1336 C1337 1.391 . S
C1337 H1325 0.950 . S
C1337 C1333 1.393 . S
C1337 C1336 1.391 . S
C1338 H1328 0.950 . S
C1338 C1339 1.386 . S
C1338 C1340 1.391 . S
C1339 C1338 1.386 . S
C1339 C1343 1.393 . S
C1340 H1329 0.950 . S
C1340 C1338 1.391 . S
C1340 C1341 1.400 . S
C1341 C1335 1.491 . S
C1341 C1340 1.400 . S
C1341 C1342 1.398 . S
C1342 H1330 0.950 . S
C1342 C1341 1.398 . S
C1342 C1343 1.391 . S
C1343 H1331 0.950 . S
C1343 C1339 1.393 . S
C1343 C1342 1.391 . S
H1344 C1352 0.950 . S
H1345 C1357 0.950 . S
H1346 C1354 0.950 . S
H1347 C1356 0.950 . S
H1348 C1358 0.950 . S
H1349 C1360 0.950 . S
H1350 C1362 0.950 . S
H1351 C1363 0.950 . S
C1352 H1344 0.950 . S
C1352 C1353 1.386 . S
C1352 C1354 1.391 . S
C1353 C1352 1.386 . S
C1353 C1357 1.393 . S
C1354 H1346 0.950 . S
C1354 C1352 1.391 . S
C1354 C1355 1.400 . S
C1355 C1354 1.400 . S
C1355 C1356 1.398 . S
C1355 C1361 1.491 . S
C1356 H1347 0.950 . S
C1356 C1355 1.398 . S
C1356 C1357 1.391 . S
C1357 H1345 0.950 . S
C1357 C1353 1.393 . S
C1357 C1356 1.391 . S
C1358 H1348 0.950 . S
C1358 C1359 1.386 . S
C1358 C1360 1.391 . S
C1359 C1358 1.386 . S
C1359 C1363 1.393 . S
C1360 H1349 0.950 . S
C1360 C1358 1.391 . S
C1360 C1361 1.400 . S
C1361 C1355 1.491 . S
C1361 C1360 1.400 . S
C1361 C1362 1.398 . S
C1362 H1350 0.950 . S
C1362 C1361 1.398 . S
C1362 C1363 1.391 . S
C1363 H1351 0.950 . S
C1363 C1359 1.393 . S
C1363 C1362 1.391 . S
H1364 C1372 0.950 . S
H1365 C1377 0.950 . S
H1366 C1374 0.950 . S
H1367 C1376 0.950 . S
H1368 C1378 0.950 . S
H1369 C1380 0.950 . S
H1370 C1382 0.950 . S
H1371 C1383 0.950 . S
C1372 H1364 0.950 . S
C1372 C1373 1.386 . S
C1372 C1374 1.391 . S
C1373 C1372 1.386 . S
C1373 C1377 1.393 . S
C1374 H1366 0.950 . S
C1374 C1372 1.391 . S
C1374 C1375 1.400 . S
C1375 C1374 1.400 . S
C1375 C1376 1.398 . S
C1375 C1381 1.491 . S
C1376 H1367 0.950 . S
C1376 C1375 1.398 . S
C1376 C1377 1.391 . S
C1377 H1365 0.950 . S
C1377 C1373 1.393 . S
C1377 C1376 1.391 . S
C1378 H1368 0.950 . S
C1378 C1379 1.386 . S
C1378 C1380 1.391 . S
C1379 C1378 1.386 . S
C1379 C1383 1.393 . S
C1380 H1369 0.950 . S
C1380 C1378 1.391 . S
C1380 C1381 1.400 . S
C1381 C1375 1.491 . S
C1381 C1380 1.400 . S
C1381 C1382 1.398 . S
C1382 H1370 0.950 . S
C1382 C1381 1.398 . S
C1382 C1383 1.391 . S
C1383 H1371 0.950 . S
C1383 C1379 1.393 . S
C1383 C1382 1.391 . S
H1384 C1392 0.950 . S
H1385 C1397 0.950 . S
H1386 C1394 0.950 . S
H1387 C1396 0.950 . S
H1388 C1398 0.950 . S
H1389 C1400 0.950 . S
H1390 C1402 0.950 . S
H1391 C1403 0.950 . S
C1392 H1384 0.950 . S
C1392 C1393 1.386 . S
C1392 C1394 1.391 . S
C1393 C1392 1.386 . S
C1393 C1397 1.393 . S
C1394 H1386 0.950 . S
C1394 C1392 1.391 . S
C1394 C1395 1.400 . S
C1395 C1394 1.400 . S
C1395 C1396 1.398 . S
C1395 C1401 1.491 . S
C1396 H1387 0.950 . S
C1396 C1395 1.398 . S
C1396 C1397 1.391 . S
C1397 H1385 0.950 . S
C1397 C1393 1.393 . S
C1397 C1396 1.391 . S
C1398 H1388 0.950 . S
C1398 C1399 1.386 . S
C1398 C1400 1.391 . S
C1399 C1398 1.386 . S
C1399 C1403 1.393 . S
C1400 H1389 0.950 . S
C1400 C1398 1.391 . S
C1400 C1401 1.400 . S
C1401 C1395 1.491 . S
C1401 C1400 1.400 . S
C1401 C1402 1.398 . S
C1402 H1390 0.950 . S
C1402 C1401 1.398 . S
C1402 C1403 1.391 . S
C1403 H1391 0.950 . S
C1403 C1399 1.393 . S
C1403 C1402 1.391 . S
H1404 C1412 0.950 . S
H1405 C1417 0.950 . S
H1406 C1414 0.950 . S
H1407 C1416 0.950 . S
H1408 C1418 0.950 . S
H1409 C1420 0.950 . S
H1410 C1422 0.950 . S
H1411 C1423 0.950 . S
C1412 H1404 0.950 . S
C1412 C1413 1.386 . S
C1412 C1414 1.391 . S
C1413 C1412 1.386 . S
C1413 C1417 1.393 . S
C1414 H1406 0.950 . S
C1414 C1412 1.391 . S
C1414 C1415 1.400 . S
C1415 C1414 1.400 . S
C1415 C1416 1.398 . S
C1415 C1421 1.491 . S
C1416 H1407 0.950 . S
C1416 C1415 1.398 . S
C1416 C1417 1.391 . S
C1417 H1405 0.950 . S
C1417 C1413 1.393 . S
C1417 C1416 1.391 . S
C1418 H1408 0.950 . S
C1418 C1419 1.386 . S
C1418 C1420 1.391 . S
C1419 C1418 1.386 . S
C1419 C1423 1.393 . S
C1420 H1409 0.950 . S
C1420 C1418 1.391 . S
C1420 C1421 1.400 . S
C1421 C1415 1.491 . S
C1421 C1420 1.400 . S
C1421 C1422 1.398 . S
C1422 H1410 0.950 . S
C1422 C1421 1.398 . S
C1422 C1423 1.391 . S
C1423 H1411 0.950 . S
C1423 C1419 1.393 . S
C1423 C1422 1.391 . S
H1424 C1432 0.950 . S
H1425 C1437 0.950 . S
H1426 C1434 0.950 . S
H1427 C1436 0.950 . S
H1428 C1438 0.950 . S
H1429 C1440 0.950 . S
H1430 C1442 0.950 . S
H1431 C1443 0.950 . S
C1432 H1424 0.950 . S
C1432 C1433 1.386 . S
C1432 C1434 1.391 . S
C1433 C1432 1.386 . S
C1433 C1437 1.393 . S
C1434 H1426 0.950 . S
C1434 C1432 1.391 . S
C1434 C1435 1.400 . S
C1435 C1434 1.400 . S
C1435 C1436 1.398 . S
C1435 C1441 1.491 . S
C1436 H1427 0.950 . S
C1436 C1435 1.398 . S
C1436 C1437 1.391 . S
C1437 H1425 0.950 . S
C1437 C1433 1.393 . S
C1437 C1436 1.391 . S
C1438 H1428 0.950 . S
C1438 C1439 1.386 . S
C1438 C1440 1.391 . S
C1439 C1438 1.386 . S
C1439 C1443 1.393 . S
C1440 H1429 0.950 . S
C1440 C1438 1.391 . S
C1440 C1441 1.400 . S
C1441 C1435 1.491 . S
C1441 C1440 1.400 . S
C1441 C1442 1.398 . S
C1442 H1430 0.950 . S
C1442 C1441 1.398 . S
C1442 C1443 1.391 . S
C1443 H1431 0.950 . S
C1443 C1439 1.393 . S
C1443 C1442 1.391 . S
H1444 C1452 0.950 . S
H1445 C1457 0.950 . S
H1446 C1454 0.950 . S
H1447 C1456 0.950 . S
H1448 C1458 0.950 . S
H1449 C1460 0.950 . S
H1450 C1462 0.950 . S
H1451 C1463 0.950 . S
C1452 H1444 0.950 . S
C1452 C1453 1.386 . S
C1452 C1454 1.391 . S
C1453 C1452 1.386 . S
C1453 C1457 1.393 . S
C1454 H1446 0.950 . S
C1454 C1452 1.391 . S
C1454 C1455 1.400 . S
C1455 C1454 1.400 . S
C1455 C1456 1.398 . S
C1455 C1461 1.491 . S
C1456 H1447 0.950 . S
C1456 C1455 1.398 . S
C1456 C1457 1.391 . S
C1457 H1445 0.950 . S
C1457 C1453 1.393 . S
C1457 C1456 1.391 . S
C1458 H1448 0.950 . S
C1458 C1459 1.386 . S
C1458 C1460 1.391 . S
C1459 C1458 1.386 . S
C1459 C1463 1.393 . S
C1460 H1449 0.950 . S
C1460 C1458 1.391 . S
C1460 C1461 1.400 . S
C1461 C1455 1.491 . S
C1461 C1460 1.400 . S
C1461 C1462 1.398 . S
C1462 H1450 0.950 . S
C1462 C1461 1.398 . S
C1462 C1463 1.391 . S
C1463 H1451 0.950 . S
C1463 C1459 1.393 . S
C1463 C1462 1.391 . S
H1464 C1472 0.950 . S
H1465 C1477 0.950 . S
H1466 C1474 0.950 . S
H1467 C1476 0.950 . S
H1468 C1478 0.950 . S
H1469 C1480 0.950 . S
H1470 C1482 0.950 . S
H1471 C1483 0.950 . S
C1472 H1464 0.950 . S
C1472 C1473 1.386 . S
C1472 C1474 1.391 . S
C1473 C1472 1.386 . S
C1473 C1477 1.393 . S
C1474 H1466 0.950 . S
C1474 C1472 1.391 . S
C1474 C1475 1.400 . S
C1475 C1474 1.400 . S
C1475 C1476 1.398 1_455 S
C1475 C1481 1.491 1_455 S
C1476 H1467 0.950 . S
C1476 C1475 1.398 1_655 S
C1476 C1477 1.391 1_655 S
C1477 H1465 0.950 . S
C1477 C1473 1.393 . S
C1477 C1476 1.391 1_455 S
C1478 H1468 0.950 . S
C1478 C1479 1.386 . S
C1478 C1480 1.391 . S
C1479 C1478 1.386 . S
C1479 C1483 1.393 . S
C1480 H1469 0.950 . S
C1480 C1478 1.391 . S
C1480 C1481 1.400 . S
C1481 C1475 1.491 1_655 S
C1481 C1480 1.400 . S
C1481 C1482 1.398 1_655 S
C1482 H1470 0.950 . S
C1482 C1481 1.398 1_455 S
C1482 C1483 1.391 1_455 S
C1483 H1471 0.950 . S
C1483 C1479 1.393 . S
C1483 C1482 1.391 1_655 S
H1484 C1492 0.950 . S
H1485 C1497 0.950 . S
H1486 C1494 0.950 . S
H1487 C1496 0.950 . S
H1488 C1498 0.950 . S
H1489 C1500 0.950 . S
H1490 C1502 0.950 . S
H1491 C1503 0.950 . S
C1492 H1484 0.950 . S
C1492 C1493 1.386 . S
C1492 C1494 1.391 . S
C1493 C1492 1.386 . S
C1493 C1497 1.393 . S
C1494 H1486 0.950 . S
C1494 C1492 1.391 . S
C1494 C1495 1.400 . S
C1495 C1494 1.400 . S
C1495 C1496 1.398 . S
C1495 C1501 1.491 . S
C1496 H1487 0.950 . S
C1496 C1495 1.398 . S
C1496 C1497 1.391 . S
C1497 H1485 0.950 . S
C1497 C1493 1.393 . S
C1497 C1496 1.391 . S
C1498 H1488 0.950 . S
C1498 C1499 1.386 . S
C1498 C1500 1.391 . S
C1499 C1498 1.386 . S
C1499 C1503 1.393 . S
C1500 H1489 0.950 . S
C1500 C1498 1.391 . S
C1500 C1501 1.400 . S
C1501 C1495 1.491 . S
C1501 C1500 1.400 . S
C1501 C1502 1.398 . S
C1502 H1490 0.950 . S
C1502 C1501 1.398 . S
C1502 C1503 1.391 . S
C1503 H1491 0.950 . S
C1503 C1499 1.393 . S
C1503 C1502 1.391 . S
H1504 C1512 0.950 . S
H1505 C1517 0.893 1_565 S
H1506 C1514 0.950 . S
H1507 C1516 0.950 . S
H1508 C1518 0.950 . S
H1509 C1520 0.950 . S
H1510 C1522 0.950 . S
H1511 C1523 0.893 1_545 S
C1512 H1504 0.950 . S
C1512 C1513 1.386 . S
C1512 C1514 1.391 . S
C1513 C1512 1.386 . S
C1513 C1517 1.445 . S
C1514 H1506 0.950 . S
C1514 C1512 1.391 . S
C1514 C1515 1.400 . S
C1515 C1514 1.400 . S
C1515 C1516 1.398 1_545 S
C1515 C1521 1.491 1_545 S
C1516 H1507 0.950 . S
C1516 C1515 1.398 1_565 S
C1516 C1517 1.397 1_565 S
C1517 H1505 0.893 1_545 S
C1517 C1513 1.445 . S
C1517 C1516 1.397 1_545 S
C1518 H1508 0.950 . S
C1518 C1519 1.386 . S
C1518 C1520 1.391 . S
C1519 C1518 1.386 . S
C1519 C1523 1.445 . S
C1520 H1509 0.950 . S
C1520 C1518 1.391 . S
C1520 C1521 1.400 . S
C1521 C1515 1.491 1_565 S
C1521 C1520 1.400 . S
C1521 C1522 1.398 1_565 S
C1522 H1510 0.950 . S
C1522 C1521 1.398 1_545 S
C1522 C1523 1.397 1_545 S
C1523 H1511 0.893 1_565 S
C1523 C1519 1.445 . S
C1523 C1522 1.397 1_565 S
H1524 C1532 0.944 1_565 S
H1525 C1537 0.950 . S
H1526 C1534 0.950 . S
H1527 C1536 0.950 . S
H1528 C1538 0.944 1_545 S
H1529 C1540 0.950 . S
H1530 C1542 0.950 . S
H1531 C1543 0.950 . S
C1532 H1524 0.944 1_545 S
C1532 C1533 1.431 . S
C1532 C1534 1.353 1_545 S
C1533 C1532 1.431 . S
C1533 C1537 1.393 . S
C1534 H1526 0.950 . S
C1534 C1532 1.353 1_565 S
C1534 C1535 1.400 1_565 S
C1535 C1534 1.400 1_545 S
C1535 C1536 1.398 . S
C1535 C1541 1.491 1_546 S
C1536 H1527 0.950 . S
C1536 C1535 1.398 . S
C1536 C1537 1.391 . S
C1537 H1525 0.950 . S
C1537 C1533 1.393 . S
C1537 C1536 1.391 . S
C1538 H1528 0.944 1_565 S
C1538 C1539 1.431 . S
C1538 C1540 1.353 1_565 S
C1539 C1538 1.431 . S
C1539 C1543 1.393 . S
C1540 H1529 0.950 . S
C1540 C1538 1.353 1_545 S
C1540 C1541 1.400 1_545 S
C1541 C1535 1.491 1_564 S
C1541 C1540 1.400 1_565 S
C1541 C1542 1.398 . S
C1542 H1530 0.950 . S
C1542 C1541 1.398 . S
C1542 C1543 1.391 . S
C1543 H1531 0.950 . S
C1543 C1539 1.393 . S
C1543 C1542 1.391 . S
H1544 C1552 0.950 . S
H1545 C1557 0.950 1_556 S
H1546 C1554 0.950 . S
H1547 C1556 0.950 . S
H1548 C1558 0.950 . S
H1549 C1560 0.950 . S
H1550 C1562 0.950 . S
H1551 C1563 0.950 1_554 S
C1552 H1544 0.950 . S
C1552 C1553 1.386 . S
C1552 C1554 1.391 . S
C1553 C1552 1.386 . S
C1553 C1557 1.393 . S
C1554 H1546 0.950 . S
C1554 C1552 1.391 . S
C1554 C1555 1.400 . S
C1555 C1554 1.400 . S
C1555 C1556 1.398 1_454 S
C1555 C1561 1.491 1_454 S
C1556 H1547 0.950 . S
C1556 C1555 1.398 1_656 S
C1556 C1557 1.391 1_656 S
C1557 H1545 0.950 1_554 S
C1557 C1553 1.393 . S
C1557 C1556 1.391 1_454 S
C1558 H1548 0.950 . S
C1558 C1559 1.386 . S
C1558 C1560 1.391 . S
C1559 C1558 1.386 . S
C1559 C1563 1.393 . S
C1560 H1549 0.950 . S
C1560 C1558 1.391 . S
C1560 C1561 1.400 . S
C1561 C1555 1.491 1_656 S
C1561 C1560 1.400 . S
C1561 C1562 1.398 1_656 S
C1562 H1550 0.950 . S
C1562 C1561 1.398 1_454 S
C1562 C1563 1.391 1_454 S
C1563 H1551 0.950 1_556 S
C1563 C1559 1.393 . S
C1563 C1562 1.391 1_656 S
H1564 C1572 0.950 . S
H1565 C1577 0.950 . S
H1566 C1574 0.950 . S
H1567 C1576 0.950 . S
H1568 C1578 0.950 . S
H1569 C1580 0.950 . S
H1570 C1582 0.950 . S
H1571 C1583 0.950 . S
C1572 H1564 0.950 . S
C1572 C1573 1.386 . S
C1572 C1574 1.391 . S
C1573 C1572 1.386 . S
C1573 C1577 1.393 . S
C1574 H1566 0.950 . S
C1574 C1572 1.391 . S
C1574 C1575 1.400 . S
C1575 C1574 1.400 . S
C1575 C1576 1.398 . S
C1575 C1581 1.491 1_554 S
C1576 H1567 0.950 . S
C1576 C1575 1.398 . S
C1576 C1577 1.391 . S
C1577 H1565 0.950 . S
C1577 C1573 1.393 . S
C1577 C1576 1.391 . S
C1578 H1568 0.950 . S
C1578 C1579 1.386 . S
C1578 C1580 1.391 . S
C1579 C1578 1.386 . S
C1579 C1583 1.393 . S
C1580 H1569 0.950 . S
C1580 C1578 1.391 . S
C1580 C1581 1.400 . S
C1581 C1575 1.491 1_556 S
C1581 C1580 1.400 . S
C1581 C1582 1.398 . S
C1582 H1570 0.950 . S
C1582 C1581 1.398 . S
C1582 C1583 1.391 . S
C1583 H1571 0.950 . S
C1583 C1579 1.393 . S
C1583 C1582 1.391 . S
H1584 C1592 0.950 . S
H1585 C1597 0.950 1_556 S
H1586 C1594 0.950 . S
H1587 C1596 0.950 . S
H1588 C1598 0.950 . S
H1589 C1600 0.950 . S
H1590 C1602 0.950 . S
H1591 C1603 0.950 . S
C1592 H1584 0.950 . S
C1592 C1593 1.386 . S
C1592 C1594 1.391 . S
C1593 C1592 1.386 . S
C1593 C1597 1.393 . S
C1594 H1586 0.950 . S
C1594 C1592 1.391 . S
C1594 C1595 1.400 . S
C1595 C1594 1.400 . S
C1595 C1596 1.398 . S
C1595 C1601 1.491 . S
C1596 H1587 0.950 . S
C1596 C1595 1.398 . S
C1596 C1597 1.391 . S
C1597 H1585 0.950 1_554 S
C1597 C1593 1.393 . S
C1597 C1596 1.391 . S
C1598 H1588 0.950 . S
C1598 C1599 1.386 . S
C1598 C1600 1.391 . S
C1599 C1598 1.386 . S
C1599 C1603 1.393 . S
C1600 H1589 0.950 . S
C1600 C1598 1.391 . S
C1600 C1601 1.400 . S
C1601 C1595 1.491 . S
C1601 C1600 1.400 . S
C1601 C1602 1.398 . S
C1602 H1590 0.950 . S
C1602 C1601 1.398 . S
C1602 C1603 1.391 . S
C1603 H1591 0.950 . S
C1603 C1599 1.393 . S
C1603 C1602 1.391 . S
H1604 C1612 0.950 . S
H1605 C1617 0.950 . S
H1606 C1614 0.950 . S
H1607 C1616 0.950 . S
H1608 C1618 0.950 . S
H1609 C1620 0.950 . S
H1610 C1622 0.950 . S
H1611 C1623 0.950 1_556 S
C1612 H1604 0.950 . S
C1612 C1613 1.386 . S
C1612 C1614 1.391 . S
C1613 C1612 1.386 . S
C1613 C1617 1.393 . S
C1614 H1606 0.950 . S
C1614 C1612 1.391 . S
C1614 C1615 1.400 . S
C1615 C1614 1.400 . S
C1615 C1616 1.398 . S
C1615 C1621 1.491 . S
C1616 H1607 0.950 . S
C1616 C1615 1.398 . S
C1616 C1617 1.391 . S
C1617 H1605 0.950 . S
C1617 C1613 1.393 . S
C1617 C1616 1.391 . S
C1618 H1608 0.950 . S
C1618 C1619 1.386 . S
C1618 C1620 1.391 . S
C1619 C1618 1.386 . S
C1619 C1623 1.393 . S
C1620 H1609 0.950 . S
C1620 C1618 1.391 . S
C1620 C1621 1.400 . S
C1621 C1615 1.491 . S
C1621 C1620 1.400 . S
C1621 C1622 1.398 . S
C1622 H1610 0.950 . S
C1622 C1621 1.398 . S
C1622 C1623 1.391 . S
C1623 H1611 0.950 1_554 S
C1623 C1619 1.393 . S
C1623 C1622 1.391 . S
H1624 C1632 0.950 1_556 S
H1625 C1637 0.950 . S
H1626 C1634 0.950 . S
H1627 C1636 0.950 . S
H1628 C1638 0.950 . S
H1629 C1640 0.950 . S
H1630 C1642 0.950 . S
H1631 C1643 0.950 . S
C1632 H1624 0.950 1_554 S
C1632 C1633 1.386 . S
C1632 C1634 1.391 . S
C1633 C1632 1.386 . S
C1633 C1637 1.393 . S
C1634 H1626 0.950 . S
C1634 C1632 1.391 . S
C1634 C1635 1.400 . S
C1635 C1634 1.400 . S
C1635 C1636 1.398 . S
C1635 C1641 1.491 . S
C1636 H1627 0.950 . S
C1636 C1635 1.398 . S
C1636 C1637 1.391 . S
C1637 H1625 0.950 . S
C1637 C1633 1.393 . S
C1637 C1636 1.391 . S
C1638 H1628 0.950 . S
C1638 C1639 1.386 . S
C1638 C1640 1.391 . S
C1639 C1638 1.386 . S
C1639 C1643 1.393 . S
C1640 H1629 0.950 . S
C1640 C1638 1.391 . S
C1640 C1641 1.400 . S
C1641 C1635 1.491 . S
C1641 C1640 1.400 . S
C1641 C1642 1.398 . S
C1642 H1630 0.950 . S
C1642 C1641 1.398 . S
C1642 C1643 1.391 . S
C1643 H1631 0.950 . S
C1643 C1639 1.393 . S
C1643 C1642 1.391 . S
H1644 C1652 0.950 . S
H1645 C1657 0.950 . S
H1646 C1654 0.950 . S
H1647 C1656 0.950 . S
H1648 C1658 0.950 . S
H1649 C1660 0.950 . S
H1650 C1662 0.950 . S
H1651 C1663 0.950 . S
C1652 H1644 0.950 . S
C1652 C1653 1.386 . S
C1652 C1654 1.391 . S
C1653 C1652 1.386 . S
C1653 C1657 1.393 . S
C1654 H1646 0.950 . S
C1654 C1652 1.391 . S
C1654 C1655 1.400 . S
C1655 C1654 1.400 . S
C1655 C1656 1.398 . S
C1655 C1661 1.491 . S
C1656 H1647 0.950 . S
C1656 C1655 1.398 . S
C1656 C1657 1.391 . S
C1657 H1645 0.950 . S
C1657 C1653 1.393 . S
C1657 C1656 1.391 . S
C1658 H1648 0.950 . S
C1658 C1659 1.386 . S
C1658 C1660 1.391 . S
C1659 C1658 1.386 . S
C1659 C1663 1.393 . S
C1660 H1649 0.950 . S
C1660 C1658 1.391 . S
C1660 C1661 1.400 . S
C1661 C1655 1.491 . S
C1661 C1660 1.400 . S
C1661 C1662 1.398 . S
C1662 H1650 0.950 . S
C1662 C1661 1.398 . S
C1662 C1663 1.391 . S
C1663 H1651 0.950 . S
C1663 C1659 1.393 . S
C1663 C1662 1.391 . S
H1664 C1672 0.950 . S
H1665 C1677 0.950 . S
H1666 C1674 0.950 . S
H1667 C1676 0.950 . S
H1668 C1678 0.950 . S
H1669 C1680 0.950 . S
H1670 C1682 0.950 . S
H1671 C1683 0.950 . S
C1672 H1664 0.950 . S
C1672 C1673 1.386 . S
C1672 C1674 1.391 . S
C1673 C1672 1.386 . S
C1673 C1677 1.393 . S
C1674 H1666 0.950 . S
C1674 C1672 1.391 . S
C1674 C1675 1.400 . S
C1675 C1674 1.400 . S
C1675 C1676 1.398 . S
C1675 C1681 1.491 . S
C1676 H1667 0.950 . S
C1676 C1675 1.398 . S
C1676 C1677 1.391 . S
C1677 H1665 0.950 . S
C1677 C1673 1.393 . S
C1677 C1676 1.391 . S
C1678 H1668 0.950 . S
C1678 C1679 1.386 . S
C1678 C1680 1.391 . S
C1679 C1678 1.386 . S
C1679 C1683 1.393 . S
C1680 H1669 0.950 . S
C1680 C1678 1.391 . S
C1680 C1681 1.400 . S
C1681 C1675 1.491 . S
C1681 C1680 1.400 . S
C1681 C1682 1.398 . S
C1682 H1670 0.950 . S
C1682 C1681 1.398 . S
C1682 C1683 1.391 . S
C1683 H1671 0.950 . S
C1683 C1679 1.393 . S
C1683 C1682 1.391 . S
H1684 C1692 0.950 . S
H1685 C1697 0.950 . S
H1686 C1694 0.950 . S
H1687 C1696 0.950 . S
H1688 C1698 0.950 . S
H1689 C1700 0.950 . S
H1690 C1702 0.950 . S
H1691 C1703 0.950 . S
C1692 H1684 0.950 . S
C1692 C1693 1.386 . S
C1692 C1694 1.391 . S
C1693 C1692 1.386 . S
C1693 C1697 1.393 . S
C1694 H1686 0.950 . S
C1694 C1692 1.391 . S
C1694 C1695 1.400 . S
C1695 C1694 1.400 . S
C1695 C1696 1.398 . S
C1695 C1701 1.491 . S
C1696 H1687 0.950 . S
C1696 C1695 1.398 . S
C1696 C1697 1.391 . S
C1697 H1685 0.950 . S
C1697 C1693 1.393 . S
C1697 C1696 1.391 . S
C1698 H1688 0.950 . S
C1698 C1699 1.386 . S
C1698 C1700 1.391 . S
C1699 C1698 1.386 . S
C1699 C1703 1.393 . S
C1700 H1689 0.950 . S
C1700 C1698 1.391 . S
C1700 C1701 1.400 . S
C1701 C1695 1.491 . S
C1701 C1700 1.400 . S
C1701 C1702 1.398 . S
C1702 H1690 0.950 . S
C1702 C1701 1.398 . S
C1702 C1703 1.391 . S
C1703 H1691 0.950 . S
C1703 C1699 1.393 . S
C1703 C1702 1.391 . S
H1704 C1712 0.950 . S
H1705 C1717 0.950 . S
H1706 C1714 0.950 . S
H1707 C1716 0.950 . S
H1708 C1718 0.950 . S
H1709 C1720 0.950 . S
H1710 C1722 0.950 . S
H1711 C1723 0.950 . S
C1712 H1704 0.950 . S
C1712 C1713 1.386 . S
C1712 C1714 1.391 . S
C1713 C1712 1.386 . S
C1713 C1717 1.393 . S
C1714 H1706 0.950 . S
C1714 C1712 1.391 . S
C1714 C1715 1.400 . S
C1715 C1714 1.400 . S
C1715 C1716 1.398 . S
C1715 C1721 1.491 . S
C1716 H1707 0.950 . S
C1716 C1715 1.398 . S
C1716 C1717 1.391 . S
C1717 H1705 0.950 . S
C1717 C1713 1.393 . S
C1717 C1716 1.391 . S
C1718 H1708 0.950 . S
C1718 C1719 1.386 . S
C1718 C1720 1.391 . S
C1719 C1718 1.386 . S
C1719 C1723 1.393 . S
C1720 H1709 0.950 . S
C1720 C1718 1.391 . S
C1720 C1721 1.400 . S
C1721 C1715 1.491 . S
C1721 C1720 1.400 . S
C1721 C1722 1.398 . S
C1722 H1710 0.950 . S
C1722 C1721 1.398 . S
C1722 C1723 1.391 . S
C1723 H1711 0.950 . S
C1723 C1719 1.393 . S
C1723 C1722 1.391 . S
H1724 C1732 0.950 1_554 S
H1725 C1737 0.950 . S
H1726 C1734 0.950 . S
H1727 C1736 0.950 . S
H1728 C1738 0.950 . S
H1729 C1740 0.950 . S
H1730 C1742 0.950 . S
H1731 C1743 0.950 . S
C1732 H1724 0.950 1_556 S
C1732 C1733 1.386 . S
C1732 C1734 1.391 . S
C1733 C1732 1.386 . S
C1733 C1737 1.393 . S
C1734 H1726 0.950 . S
C1734 C1732 1.391 . S
C1734 C1735 1.400 . S
C1735 C1734 1.400 . S
C1735 C1736 1.398 . S
C1735 C1741 1.491 . S
C1736 H1727 0.950 . S
C1736 C1735 1.398 . S
C1736 C1737 1.391 . S
C1737 H1725 0.950 . S
C1737 C1733 1.393 . S
C1737 C1736 1.391 . S
C1738 H1728 0.950 . S
C1738 C1739 1.386 . S
C1738 C1740 1.391 . S
C1739 C1738 1.386 . S
C1739 C1743 1.393 . S
C1740 H1729 0.950 . S
C1740 C1738 1.391 . S
C1740 C1741 1.400 . S
C1741 C1735 1.491 . S
C1741 C1740 1.400 . S
C1741 C1742 1.398 . S
C1742 H1730 0.950 . S
C1742 C1741 1.398 . S
C1742 C1743 1.391 . S
C1743 H1731 0.950 . S
C1743 C1739 1.393 . S
C1743 C1742 1.391 . S
H1744 C1752 0.950 . S
H1745 C1757 0.950 . S
H1746 C1754 0.950 . S
H1747 C1756 0.950 . S
H1748 C1758 0.950 1_554 S
H1749 C1760 0.950 . S
H1750 C1762 0.950 . S
H1751 C1763 0.950 . S
C1752 H1744 0.950 . S
C1752 C1753 1.386 . S
C1752 C1754 1.391 . S
C1753 C1752 1.386 . S
C1753 C1757 1.393 . S
C1754 H1746 0.950 . S
C1754 C1752 1.391 . S
C1754 C1755 1.400 . S
C1755 C1754 1.400 . S
C1755 C1756 1.398 . S
C1755 C1761 1.491 . S
C1756 H1747 0.950 . S
C1756 C1755 1.398 . S
C1756 C1757 1.391 . S
C1757 H1745 0.950 . S
C1757 C1753 1.393 . S
C1757 C1756 1.391 . S
C1758 H1748 0.950 1_556 S
C1758 C1759 1.386 . S
C1758 C1760 1.391 . S
C1759 C1758 1.386 . S
C1759 C1763 1.393 . S
C1760 H1749 0.950 . S
C1760 C1758 1.391 . S
C1760 C1761 1.400 . S
C1761 C1755 1.491 . S
C1761 C1760 1.400 . S
C1761 C1762 1.398 . S
C1762 H1750 0.950 . S
C1762 C1761 1.398 . S
C1762 C1763 1.391 . S
C1763 H1751 0.950 . S
C1763 C1759 1.393 . S
C1763 C1762 1.391 . S
H1764 C1772 0.950 . S
H1765 C1777 0.950 . S
H1766 C1774 0.950 . S
H1767 C1776 0.950 . S
H1768 C1778 0.950 . S
H1769 C1780 0.950 . S
H1770 C1782 0.950 . S
H1771 C1783 0.950 . S
C1772 H1764 0.950 . S
C1772 C1773 1.386 . S
C1772 C1774 1.391 . S
C1773 C1772 1.386 . S
C1773 C1777 1.393 . S
C1774 H1766 0.950 . S
C1774 C1772 1.391 . S
C1774 C1775 1.400 . S
C1775 C1774 1.400 . S
C1775 C1776 1.398 . S
C1775 C1781 1.491 . S
C1776 H1767 0.950 . S
C1776 C1775 1.398 . S
C1776 C1777 1.391 . S
C1777 H1765 0.950 . S
C1777 C1773 1.393 . S
C1777 C1776 1.391 . S
C1778 H1768 0.950 . S
C1778 C1779 1.386 . S
C1778 C1780 1.391 . S
C1779 C1778 1.386 . S
C1779 C1783 1.393 . S
C1780 H1769 0.950 . S
C1780 C1778 1.391 . S
C1780 C1781 1.400 . S
C1781 C1775 1.491 . S
C1781 C1780 1.400 . S
C1781 C1782 1.398 . S
C1782 H1770 0.950 . S
C1782 C1781 1.398 . S
C1782 C1783 1.391 . S
C1783 H1771 0.950 . S
C1783 C1779 1.393 . S
C1783 C1782 1.391 . S
H1784 C1792 0.950 . S
H1785 C1797 0.950 . S
H1786 C1794 0.950 . S
H1787 C1796 0.950 . S
H1788 C1798 0.950 . S
H1789 C1800 0.950 . S
H1790 C1802 0.950 . S
H1791 C1803 0.950 . S
C1792 H1784 0.950 . S
C1792 C1793 1.386 . S
C1792 C1794 1.391 . S
C1793 C1792 1.386 . S
C1793 C1797 1.393 . S
C1794 H1786 0.950 . S
C1794 C1792 1.391 . S
C1794 C1795 1.400 . S
C1795 C1794 1.400 . S
C1795 C1796 1.398 . S
C1795 C1801 1.491 . S
C1796 H1787 0.950 . S
C1796 C1795 1.398 . S
C1796 C1797 1.391 . S
C1797 H1785 0.950 . S
C1797 C1793 1.393 . S
C1797 C1796 1.391 . S
C1798 H1788 0.950 . S
C1798 C1799 1.386 . S
C1798 C1800 1.391 . S
C1799 C1798 1.386 . S
C1799 C1803 1.393 . S
C1800 H1789 0.950 . S
C1800 C1798 1.391 . S
C1800 C1801 1.400 . S
C1801 C1795 1.491 . S
C1801 C1800 1.400 . S
C1801 C1802 1.398 . S
C1802 H1790 0.950 . S
C1802 C1801 1.398 . S
C1802 C1803 1.391 . S
C1803 H1791 0.950 . S
C1803 C1799 1.393 . S
C1803 C1802 1.391 . S
H1804 C1812 0.950 . S
H1805 C1817 0.950 . S
H1806 C1814 0.950 . S
H1807 C1816 0.950 . S
H1808 C1818 0.950 . S
H1809 C1820 0.950 . S
H1810 C1822 0.950 . S
H1811 C1823 0.950 . S
C1812 H1804 0.950 . S
C1812 C1813 1.386 . S
C1812 C1814 1.391 . S
C1813 C1812 1.386 . S
C1813 C1817 1.393 . S
C1814 H1806 0.950 . S
C1814 C1812 1.391 . S
C1814 C1815 1.400 . S
C1815 C1814 1.400 . S
C1815 C1816 1.398 . S
C1815 C1821 1.491 . S
C1816 H1807 0.950 . S
C1816 C1815 1.398 . S
C1816 C1817 1.391 . S
C1817 H1805 0.950 . S
C1817 C1813 1.393 . S
C1817 C1816 1.391 . S
C1818 H1808 0.950 . S
C1818 C1819 1.386 . S
C1818 C1820 1.391 . S
C1819 C1818 1.386 . S
C1819 C1823 1.393 . S
C1820 H1809 0.950 . S
C1820 C1818 1.391 . S
C1820 C1821 1.400 . S
C1821 C1815 1.491 . S
C1821 C1820 1.400 . S
C1821 C1822 1.398 . S
C1822 H1810 0.950 . S
C1822 C1821 1.398 . S
C1822 C1823 1.391 . S
C1823 H1811 0.950 . S
C1823 C1819 1.393 . S
C1823 C1822 1.391 . S
H1824 C1832 0.950 . S
H1825 C1837 0.950 . S
H1826 C1834 0.950 . S
H1827 C1836 0.950 . S
H1828 C1838 0.950 . S
H1829 C1840 0.950 . S
H1830 C1842 0.950 . S
H1831 C1843 0.950 . S
C1832 H1824 0.950 . S
C1832 C1833 1.386 . S
C1832 C1834 1.391 . S
C1833 C1832 1.386 . S
C1833 C1837 1.393 . S
C1834 H1826 0.950 . S
C1834 C1832 1.391 . S
C1834 C1835 1.400 . S
C1835 C1834 1.400 . S
C1835 C1836 1.398 . S
C1835 C1841 1.491 . S
C1836 H1827 0.950 . S
C1836 C1835 1.398 . S
C1836 C1837 1.391 . S
C1837 H1825 0.950 . S
C1837 C1833 1.393 . S
C1837 C1836 1.391 . S
C1838 H1828 0.950 . S
C1838 C1839 1.386 . S
C1838 C1840 1.391 . S
C1839 C1838 1.386 . S
C1839 C1843 1.393 . S
C1840 H1829 0.950 . S
C1840 C1838 1.391 . S
C1840 C1841 1.400 . S
C1841 C1835 1.491 . S
C1841 C1840 1.400 . S
C1841 C1842 1.398 . S
C1842 H1830 0.950 . S
C1842 C1841 1.398 . S
C1842 C1843 1.391 . S
C1843 H1831 0.950 . S
C1843 C1839 1.393 . S
C1843 C1842 1.391 . S
H1844 C1852 0.950 . S
H1845 C1857 0.950 . S
H1846 C1854 0.950 . S
H1847 C1856 0.950 . S
H1848 C1858 0.950 . S
H1849 C1860 0.950 . S
H1850 C1862 0.950 . S
H1851 C1863 0.950 . S
C1852 H1844 0.950 . S
C1852 C1853 1.386 . S
C1852 C1854 1.391 . S
C1853 C1852 1.386 . S
C1853 C1857 1.393 . S
C1854 H1846 0.950 . S
C1854 C1852 1.391 . S
C1854 C1855 1.400 . S
C1855 C1854 1.400 . S
C1855 C1856 1.398 1_545 S
C1855 C1861 1.491 1_545 S
C1856 H1847 0.950 . S
C1856 C1855 1.398 1_565 S
C1856 C1857 1.391 1_565 S
C1857 H1845 0.950 . S
C1857 C1853 1.393 . S
C1857 C1856 1.391 1_545 S
C1858 H1848 0.950 . S
C1858 C1859 1.386 . S
C1858 C1860 1.391 . S
C1859 C1858 1.386 . S
C1859 C1863 1.393 . S
C1860 H1849 0.950 . S
C1860 C1858 1.391 . S
C1860 C1861 1.400 . S
C1861 C1855 1.491 1_565 S
C1861 C1860 1.400 . S
C1861 C1862 1.398 1_565 S
C1862 H1850 0.950 . S
C1862 C1861 1.398 1_545 S
C1862 C1863 1.391 1_545 S
C1863 H1851 0.950 . S
C1863 C1859 1.393 . S
C1863 C1862 1.391 1_565 S
H1864 C1872 0.950 . S
H1865 C1877 0.950 . S
H1866 C1874 0.950 . S
H1867 C1876 0.950 1_455 S
H1868 C1878 0.950 . S
H1869 C1880 0.950 . S
H1870 C1882 0.950 1_655 S
H1871 C1883 0.950 . S
C1872 H1864 0.950 . S
C1872 C1873 1.386 . S
C1872 C1874 1.391 . S
C1873 C1872 1.386 . S
C1873 C1877 1.393 . S
C1874 H1866 0.950 . S
C1874 C1872 1.391 . S
C1874 C1875 1.400 . S
C1875 C1874 1.400 . S
C1875 C1876 1.398 . S
C1875 C1881 1.491 1_655 S
C1876 H1867 0.950 1_655 S
C1876 C1875 1.398 . S
C1876 C1877 1.391 . S
C1877 H1865 0.950 . S
C1877 C1873 1.393 . S
C1877 C1876 1.391 . S
C1878 H1868 0.950 . S
C1878 C1879 1.386 . S
C1878 C1880 1.391 . S
C1879 C1878 1.386 . S
C1879 C1883 1.393 . S
C1880 H1869 0.950 . S
C1880 C1878 1.391 . S
C1880 C1881 1.400 . S
C1881 C1875 1.491 1_455 S
C1881 C1880 1.400 . S
C1881 C1882 1.398 . S
C1882 H1870 0.950 1_455 S
C1882 C1881 1.398 . S
C1882 C1883 1.391 . S
C1883 H1871 0.950 . S
C1883 C1879 1.393 . S
C1883 C1882 1.391 . S
H1884 C1892 0.950 . S
H1885 C1897 0.950 . S
H1886 C1894 0.950 . S
H1887 C1896 0.950 . S
H1888 C1898 0.950 . S
H1889 C1900 0.950 . S
H1890 C1902 0.950 . S
H1891 C1903 0.950 . S
C1892 H1884 0.950 . S
C1892 C1893 1.386 . S
C1892 C1894 1.391 . S
C1893 C1892 1.386 . S
C1893 C1897 1.393 . S
C1894 H1886 0.950 . S
C1894 C1892 1.391 . S
C1894 C1895 1.400 . S
C1895 C1894 1.400 . S
C1895 C1896 1.398 . S
C1895 C1901 1.491 . S
C1896 H1887 0.950 . S
C1896 C1895 1.398 . S
C1896 C1897 1.391 . S
C1897 H1885 0.950 . S
C1897 C1893 1.393 . S
C1897 C1896 1.391 . S
C1898 H1888 0.950 . S
C1898 C1899 1.386 . S
C1898 C1900 1.391 . S
C1899 C1898 1.386 . S
C1899 C1903 1.393 . S
C1900 H1889 0.950 . S
C1900 C1898 1.391 . S
C1900 C1901 1.400 . S
C1901 C1895 1.491 . S
C1901 C1900 1.400 . S
C1901 C1902 1.398 . S
C1902 H1890 0.950 . S
C1902 C1901 1.398 . S
C1902 C1903 1.391 . S
C1903 H1891 0.950 . S
C1903 C1899 1.393 . S
C1903 C1902 1.391 . S
H1904 C1912 0.950 . S
H1905 C1917 0.950 . S
H1906 C1914 0.950 . S
H1907 C1916 0.950 . S
H1908 C1918 0.950 . S
H1909 C1920 0.950 . S
H1910 C1922 0.950 . S
H1911 C1923 0.950 . S
C1912 H1904 0.950 . S
C1912 C1913 1.386 . S
C1912 C1914 1.391 . S
C1913 C1912 1.386 . S
C1913 C1917 1.393 . S
C1914 H1906 0.950 . S
C1914 C1912 1.391 . S
C1914 C1915 1.400 . S
C1915 C1914 1.400 . S
C1915 C1916 1.398 . S
C1915 C1921 1.491 1_545 S
C1916 H1907 0.950 . S
C1916 C1915 1.398 . S
C1916 C1917 1.391 . S
C1917 H1905 0.950 . S
C1917 C1913 1.393 . S
C1917 C1916 1.391 . S
C1918 H1908 0.950 . S
C1918 C1919 1.386 . S
C1918 C1920 1.391 . S
C1919 C1918 1.386 . S
C1919 C1923 1.393 . S
C1920 H1909 0.950 . S
C1920 C1918 1.391 . S
C1920 C1921 1.400 . S
C1921 C1915 1.491 1_565 S
C1921 C1920 1.400 . S
C1921 C1922 1.398 . S
C1922 H1910 0.950 . S
C1922 C1921 1.398 . S
C1922 C1923 1.391 . S
C1923 H1911 0.950 . S
C1923 C1919 1.393 . S
C1923 C1922 1.391 . S
H1924 C1932 0.950 . S
H1925 C1937 0.950 . S
H1926 C1934 0.950 . S
H1927 C1936 0.950 1_655 S
H1928 C1938 0.950 . S
H1929 C1940 0.950 . S
H1930 C1942 0.950 1_455 S
H1931 C1943 0.950 . S
C1932 H1924 0.950 . S
C1932 C1933 1.386 . S
C1932 C1934 1.391 . S
C1933 C1932 1.386 . S
C1933 C1937 1.393 . S
C1934 H1926 0.950 . S
C1934 C1932 1.391 . S
C1934 C1935 1.400 . S
C1935 C1934 1.400 . S
C1935 C1936 1.398 . S
C1935 C1941 1.491 1_455 S
C1936 H1927 0.950 1_455 S
C1936 C1935 1.398 . S
C1936 C1937 1.391 . S
C1937 H1925 0.950 . S
C1937 C1933 1.393 . S
C1937 C1936 1.391 . S
C1938 H1928 0.950 . S
C1938 C1939 1.386 . S
C1938 C1940 1.391 . S
C1939 C1938 1.386 . S
C1939 C1943 1.393 . S
C1940 H1929 0.950 . S
C1940 C1938 1.391 . S
C1940 C1941 1.400 . S
C1941 C1935 1.491 1_655 S
C1941 C1940 1.400 . S
C1941 C1942 1.398 . S
C1942 H1930 0.950 1_655 S
C1942 C1941 1.398 . S
C1942 C1943 1.391 . S
C1943 H1931 0.950 . S
C1943 C1939 1.393 . S
C1943 C1942 1.391 . S
C513 C79 0.780 . S
C519 C9 0.808 . S
C533 C51 0.803 . S
C539 C23 0.797 . S
C553 C37 0.793 . S
C559 C65 0.806 . S
C573 C93 0.796 . S
C579 C163 0.803 . S
C593 C107 0.809 . S
C599 C135 0.786 . S
C613 C149 0.787 . S
C619 C121 0.790 . S
C633 C177 0.803 . S
C639 C247 0.779 . S
C653 C191 0.798 . S
C659 C219 0.781 . S
C673 C233 0.808 . S
C679 C205 0.781 . S
C693 C331 0.802 . S
C699 C261 0.797 . S
C713 C303 0.779 . S
C719 C275 0.802 . S
C733 C289 0.808 . S
C739 C317 0.790 . S
C753 C415 0.780 . S
C759 C345 0.800 . S
C773 C387 0.806 . S
C779 C359 0.779 . S
C793 C373 0.807 . S
C799 C401 0.780 . S
C813 C499 0.804 . S
C819 C429 0.795 . S
C833 C471 0.779 . S
C839 C443 0.804 . S
C853 C485 0.786 . S
C859 C457 0.792 . S
C873 C231 1.604 . S
C879 C7 1.625 . S
C893 C245 1.623 . S
C899 C21 1.616 . S
C913 C217 1.620 . S
C919 C35 1.621 . S
C933 C49 1.600 . S
C939 C371 1.598 1_554 S
C953 C63 1.623 . S
C959 C343 1.615 1_554 S
C973 C77 1.620 . S
C979 C357 1.621 1_554 S
C993 C91 1.594 . S
C999 C483 1.611 . S
C1013 C497 1.606 . S
C1019 C105 1.595 . S
C1033 C469 1.623 . S
C1039 C119 1.601 . S
C1053 C287 1.625 1_556 S
C1059 C133 1.610 . S
C1073 C259 1.605 1_556 S
C1079 C147 1.625 . S
C1093 C161 1.594 . S
C1099 C273 1.612 1_556 S
C1113 C175 1.623 . S
C1119 C399 1.601 . S
C1133 C413 1.598 . S
C1139 C189 1.621 . S
C1153 C385 1.603 . S
C1159 C203 1.596 . S
C1173 C301 1.595 . S
C1179 C455 1.616 . S
C1193 C427 1.620 . S
C1199 C315 1.621 . S
C1213 C329 1.594 . S
C1219 C441 1.609 . S
C1233 C260 1.606 . S
C1239 C8 1.606 . S
C1253 C274 1.612 . S
C1259 C22 1.612 . S
C1273 C36 1.606 . S
C1279 C288 1.606 . S
C1293 C50 1.615 . S
C1299 C470 1.615 . S
C1313 C484 1.611 . S
C1319 C64 1.611 . S
C1333 C498 1.605 . S
C1339 C78 1.605 . S
C1353 C92 1.608 . S
C1359 C344 1.608 . S
C1373 C106 1.605 . S
C1379 C358 1.605 . S
C1393 C372 1.613 . S
C1399 C120 1.613 . S
C1413 C134 1.606 . S
C1419 C218 1.606 . S
C1433 C148 1.616 . S
C1439 C232 1.616 . S
C1453 C246 1.616 . S
C1459 C162 1.616 . S
C1473 C176 1.605 . S
C1479 C428 1.605 . S
C1493 C190 1.614 . S
C1499 C442 1.614 . S
C1513 C456 1.611 . S
C1519 C204 1.611 . S
C1533 C386 1.614 . S
C1539 C302 1.614 . S
C1553 C316 1.608 . S
C1559 C400 1.608 . S
C1573 C330 1.611 . S
C1579 C414 1.611 . S
C1593 C381 1.645 1_554 S
C1599 C3 1.623 . S
C1613 C17 1.646 . S
C1619 C395 1.629 1_554 S
C1633 C409 1.623 1_554 S
C1639 C31 1.638 . S
C1653 C45 1.643 . S
C1659 C171 1.622 . S
C1673 C185 1.644 . S
C1679 C59 1.633 . S
C1693 C199 1.646 . S
C1699 C73 1.625 . S
C1713 C87 1.629 . S
C1719 C297 1.629 1_556 S
C1733 C311 1.644 1_556 S
C1739 C101 1.633 . S
C1753 C115 1.637 . S
C1759 C325 1.623 1_556 S
C1773 C129 1.646 . S
C1779 C423 1.623 . S
C1793 C143 1.629 . S
C1799 C437 1.646 . S
C1813 C451 1.625 . S
C1819 C157 1.646 . S
C1833 C213 1.624 . S
C1839 C339 1.646 . S
C1853 C227 1.647 . S
C1859 C353 1.627 . S
C1873 C241 1.638 . S
C1879 C367 1.623 . S
C1893 C255 1.637 . S
C1899 C465 1.642 . S
C1913 C269 1.629 . S
C1919 C479 1.629 . S
C1933 C493 1.632 . S
C1939 C283 1.645 . S
