# Generated by pormake.
# Topology wji, (4)-cn, num edge types: 1
# Building blocks:
#     Node 0, Type 0, BuildingBlock: NAHDIM_clean_sbu_0, # of connection points: 4
#     Node 1, Type 0, BuildingBlock: NAHDIM_clean_sbu_0, # of connection points: 4
#     Node 2, Type 0, BuildingBlock: NAHDIM_clean_sbu_0, # of connection points: 4
#     Node 3, Type 0, BuildingBlock: NAHDIM_clean_sbu_0, # of connection points: 4
#     Node 4, Type 0, BuildingBlock: NAHDIM_clean_sbu_0, # of connection points: 4
#     Node 5, Type 0, BuildingBlock: NAHDIM_clean_sbu_0, # of connection points: 4
#     Node 6, Type 0, BuildingBlock: NAHDIM_clean_sbu_0, # of connection points: 4
#     Node 7, Type 0, BuildingBlock: NAHDIM_clean_sbu_0, # of connection points: 4
#     Node 8, Type 0, BuildingBlock: NAHDIM_clean_sbu_0, # of connection points: 4
#     Node 9, Type 0, BuildingBlock: NAHDIM_clean_sbu_0, # of connection points: 4
#     Node 10, Type 0, BuildingBlock: NAHDIM_clean_sbu_0, # of connection points: 4
#     Node 11, Type 0, BuildingBlock: NAHDIM_clean_sbu_0, # of connection points: 4
#     Edge 12, Type (0, 0), BuildingBlock: EZIPEK_clean_linker_0, # of connection points: 2
#     Edge 13, Type (0, 0), BuildingBlock: EZIPEK_clean_linker_0, # of connection points: 2
#     Edge 14, Type (0, 0), BuildingBlock: EZIPEK_clean_linker_0, # of connection points: 2
#     Edge 15, Type (0, 0), BuildingBlock: EZIPEK_clean_linker_0, # of connection points: 2
#     Edge 16, Type (0, 0), BuildingBlock: EZIPEK_clean_linker_0, # of connection points: 2
#     Edge 17, Type (0, 0), BuildingBlock: EZIPEK_clean_linker_0, # of connection points: 2
#     Edge 18, Type (0, 0), BuildingBlock: EZIPEK_clean_linker_0, # of connection points: 2
#     Edge 19, Type (0, 0), BuildingBlock: EZIPEK_clean_linker_0, # of connection points: 2
#     Edge 20, Type (0, 0), BuildingBlock: EZIPEK_clean_linker_0, # of connection points: 2
#     Edge 21, Type (0, 0), BuildingBlock: EZIPEK_clean_linker_0, # of connection points: 2
#     Edge 22, Type (0, 0), BuildingBlock: EZIPEK_clean_linker_0, # of connection points: 2
#     Edge 23, Type (0, 0), BuildingBlock: EZIPEK_clean_linker_0, # of connection points: 2
#     Edge 24, Type (0, 0), BuildingBlock: EZIPEK_clean_linker_0, # of connection points: 2
#     Edge 25, Type (0, 0), BuildingBlock: EZIPEK_clean_linker_0, # of connection points: 2
#     Edge 26, Type (0, 0), BuildingBlock: EZIPEK_clean_linker_0, # of connection points: 2
#     Edge 27, Type (0, 0), BuildingBlock: EZIPEK_clean_linker_0, # of connection points: 2
#     Edge 28, Type (0, 0), BuildingBlock: EZIPEK_clean_linker_0, # of connection points: 2
#     Edge 29, Type (0, 0), BuildingBlock: EZIPEK_clean_linker_0, # of connection points: 2
#     Edge 30, Type (0, 0), BuildingBlock: EZIPEK_clean_linker_0, # of connection points: 2
#     Edge 31, Type (0, 0), BuildingBlock: EZIPEK_clean_linker_0, # of connection points: 2
#     Edge 32, Type (0, 0), BuildingBlock: EZIPEK_clean_linker_0, # of connection points: 2
#     Edge 33, Type (0, 0), BuildingBlock: EZIPEK_clean_linker_0, # of connection points: 2
#     Edge 34, Type (0, 0), BuildingBlock: EZIPEK_clean_linker_0, # of connection points: 2
#     Edge 35, Type (0, 0), BuildingBlock: EZIPEK_clean_linker_0, # of connection points: 2
# Relax obj value: 0.148
# Max RMSD: 0.092
# Mean RMSD: 0.092
data_MOF--net-wji--node1-NAHDIM_clean_sbu_0--edge1-EZIPEK_clean_linker_0
_symmetry_space_group_name_H-M    P1
_symmetry_Int_Tables_number       1
_symmetry_cell_setting            triclinic
loop_
_symmetry_equiv_pos_as_xyz
'x, y, z'
_cell_length_a     42.648164
_cell_length_b     42.637107
_cell_length_c     17.08987
_cell_angle_alpha  89.767898
_cell_angle_beta   90.214777
_cell_angle_gamma 119.82635
loop_
_atom_site_label
_atom_site_type_symbol
_atom_site_fract_x
_atom_site_fract_y
_atom_site_fract_z
_atom_type_partial_charge
C0 C 0.43476 0.27523 0.50306 0.0
O1 O 0.46001 0.30822 0.52068 0.0
O2 O 0.45509 0.35722 0.40767 0.0
Zn3 Zn 0.40544 0.31442 0.42793 0.0
O4 O 0.38348 0.32577 0.5185 0.0
C5 C 0.3658 0.33147 0.32208 0.0
O6 O 0.37535 0.35724 0.37409 0.0
O7 O 0.40871 0.27056 0.45888 0.0
C8 C 0.35862 0.30173 0.56055 0.0
O9 O 0.34449 0.26737 0.54285 0.0
C10 C 0.47027 0.38268 0.45715 0.0
O11 O 0.45441 0.38047 0.52427 0.0
O12 O 0.37504 0.30759 0.33203 0.0
C13 C 0.15422 0.43797 0.6833 0.0
O14 O 0.13931 0.45466 0.7183 0.0
O15 O 0.10554 0.47259 0.57122 0.0
Zn16 Zn 0.09568 0.42146 0.58772 0.0
O17 O 0.0625 0.39975 0.67893 0.0
C18 C 0.04052 0.39021 0.4783 0.0
O19 O 0.02834 0.40497 0.52797 0.0
O20 O 0.14101 0.42157 0.61914 0.0
C21 C 0.0433 0.36614 0.6926 0.0
O22 O 0.04345 0.34264 0.64344 0.0
C23 C 0.08629 0.48332 0.60606 0.0
O24 O 0.06148 0.46183 0.65595 0.0
O25 O 0.07112 0.39272 0.49055 0.0
C26 C 0.7256 0.14608 0.85034 0.0
O27 O 0.69315 0.13772 0.87466 0.0
O28 O 0.6427 0.09283 0.75887 0.0
Zn29 Zn 0.68157 0.08007 0.78569 0.0
O30 O 0.67148 0.0565 0.8905 0.0
C31 C 0.67195 0.04094 0.64146 0.0
O32 O 0.66757 0.06674 0.61063 0.0
O33 O 0.72893 0.12525 0.80221 0.0
C34 C 0.64026 0.03481 0.91652 0.0
O35 O 0.61143 0.02627 0.8742 0.0
C36 C 0.61188 0.07017 0.73154 0.0
O37 O 0.60457 0.0372 0.71497 0.0
O38 O 0.68213 0.04353 0.71205 0.0
C39 C 0.55206 0.71866 0.99142 0.0
O40 O 0.52898 0.68541 0.01315 0.0
O41 O 0.51973 0.63855 0.88187 0.0
Zn42 Zn 0.57111 0.67781 0.89978 0.0
O43 O 0.58721 0.66131 -0.00661 0.0
C44 C 0.61791 0.66553 0.79927 0.0
O45 O 0.62199 0.65071 0.8629 0.0
O46 O 0.57353 0.72372 0.93517 0.0
C47 C 0.61892 0.67812 0.02147 0.0
O48 O 0.64389 0.70719 0.98582 0.0
C49 C 0.51558 0.60697 0.87687 0.0
O50 O 0.54406 0.6028 0.88 0.0
O51 O 0.60002 0.68209 0.80207 0.0
C52 C 0.83924 0.57142 0.16511 0.0
O53 O 0.85797 0.56044 0.20653 0.0
O54 O 0.8843 0.53252 0.04012 0.0
Zn55 Zn 0.89416 0.58343 0.05993 0.0
O56 O 0.92994 0.60429 0.1469 0.0
C57 C 0.94726 0.61661 0.9481 0.0
O58 O 0.95984 0.60045 -0.00654 0.0
O59 O 0.84897 0.58271 0.09554 0.0
C60 C 0.94501 0.63706 0.16792 0.0
O61 O 0.93838 0.66004 0.13021 0.0
C62 C 0.89385 0.51719 0.09137 0.0
O63 O 0.90771 0.5336 0.15791 0.0
O64 O 0.91707 0.61412 0.96464 0.0
C65 C 0.26775 0.84498 0.31504 0.0
O66 O 0.29526 0.86688 0.35888 0.0
O67 O 0.3557 0.8868 0.20416 0.0
Zn68 Zn 0.31279 0.89534 0.20241 0.0
O69 O 0.32412 0.93462 0.27895 0.0
C70 C 0.33203 0.92536 0.04831 0.0
O71 O 0.35958 0.92055 0.06255 0.0
O72 O 0.26822 0.85104 0.24196 0.0
C73 C 0.34986 0.96651 0.26749 0.0
O74 O 0.36771 0.97494 0.20117 0.0
C75 C 0.37556 0.89437 0.26496 0.0
O76 O 0.36758 0.90659 0.32772 0.0
O77 O 0.30619 0.91369 0.09707 0.0
C78 C 0.71503 0.56651 0.31082 0.0
O79 O 0.6837 0.54743 0.27567 0.0
O80 O 0.63171 0.52888 0.41239 0.0
Zn81 Zn 0.67014 0.58164 0.39905 0.0
O82 O 0.65775 0.60162 0.30495 0.0
C83 C 0.65145 0.59972 0.54839 0.0
O84 O 0.62852 0.56491 0.5506 0.0
O85 O 0.7171 0.58437 0.37192 0.0
C86 C 0.64739 0.62481 0.30898 0.0
O87 O 0.64313 0.636 0.37745 0.0
C88 C 0.59859 0.52004 0.4074 0.0
O89 O 0.59009 0.54525 0.39408 0.0
O90 O 0.67358 0.61288 0.49191 0.0
C91 C 0.14934 0.72525 0.47283 0.0
O92 O 0.13533 0.69343 0.43923 0.0
O93 O 0.09825 0.64343 0.57453 0.0
Zn94 Zn 0.08759 0.68437 0.55742 0.0
O95 O 0.05865 0.67747 0.45941 0.0
C96 C 0.03658 0.66061 0.68144 0.0
O97 O 0.02979 0.62943 0.65236 0.0
O98 O 0.13419 0.72919 0.53301 0.0
C99 C 0.02478 0.65744 0.4515 0.0
O100 O 0.00506 0.63765 0.51006 0.0
C101 C 0.07806 0.61187 0.54746 0.0
O102 O 0.04948 0.60516 0.50591 0.0
O103 O 0.06131 0.68971 0.65111 0.0
C104 C 0.44141 0.15349 0.63445 0.0
O105 O 0.46303 0.14436 0.59926 0.0
O106 O 0.47141 0.09638 0.71958 0.0
Zn107 Zn 0.4208 0.0863 0.69419 0.0
O108 O 0.4094 0.06852 0.58347 0.0
C109 C 0.38797 0.02371 0.79529 0.0
O110 O 0.41396 0.01945 0.76588 0.0
O111 O 0.42021 0.13297 0.68752 0.0
C112 C 0.38488 0.03751 0.56224 0.0
O113 O 0.36368 0.01426 0.615 0.0
C114 C 0.48236 0.07662 0.68796 0.0
O115 O 0.46078 0.05044 0.64085 0.0
O116 O 0.38432 0.05017 0.77215 0.0
C117 C 0.27078 0.42908 0.8335 0.0
O118 O 0.29929 0.43963 0.789 0.0
O119 O 0.3586 0.46004 0.91723 0.0
Zn120 Zn 0.31367 0.4106 0.92206 0.0
O121 O 0.31377 0.37785 0.83774 0.0
C122 C 0.30848 0.35803 0.03895 0.0
O123 O 0.29681 0.33516 0.9804 0.0
O124 O 0.26994 0.41567 0.90063 0.0
C125 C 0.34111 0.3748 0.82136 0.0
O126 O 0.37102 0.39279 0.86201 0.0
C127 C 0.37932 0.47391 0.85858 0.0
O128 O 0.37184 0.4563 0.79215 0.0
O129 O 0.31464 0.39017 0.02864 0.0
C130 C 0.84305 0.27272 -0.00692 0.0
O131 O 0.85253 0.30364 0.95798 0.0
O132 O 0.88475 0.35758 0.08378 0.0
Zn133 Zn 0.90211 0.32123 0.07805 0.0
O134 O 0.93332 0.33278 0.98304 0.0
C135 C 0.94155 0.34692 0.22438 0.0
O136 O 0.93172 0.37145 0.21841 0.0
O137 O 0.86015 0.27245 0.05398 0.0
C138 C 0.96438 0.33562 0.98242 0.0
O139 O 0.9787 0.33233 0.04793 0.0
C140 C 0.90781 0.39074 0.07349 0.0
O141 O 0.94185 0.40023 0.06259 0.0
O142 O 0.931 0.32193 0.17369 0.0
C143 C 0.55475 0.83263 0.17873 0.0
O144 O 0.53394 0.84554 0.15573 0.0
O145 O 0.52125 0.87702 0.29548 0.0
Zn146 Zn 0.57341 0.88871 0.28413 0.0
O147 O 0.59506 0.92612 0.19991 0.0
C148 C 0.59869 0.92923 0.42561 0.0
O149 O 0.572 0.93515 0.4093 0.0
O150 O 0.57459 0.84603 0.2389 0.0
C151 C 0.61663 0.95975 0.20793 0.0
O152 O 0.62834 0.97363 0.27747 0.0
C153 C 0.5142 0.90216 0.28093 0.0
O154 O 0.5408 0.93481 0.26582 0.0
O155 O 0.60359 0.90772 0.38295 0.0
C156 C 0.29837 0.32655 0.16886 0.0
C157 C 0.32254 0.34928 0.11021 0.0
C158 C 0.37402 0.35395 0.18476 0.0
C159 C 0.35027 0.33445 0.24686 0.0
N160 N 0.29053 0.30394 0.30236 0.0
N161 N 0.38356 0.38718 0.06371 0.0
C162 C 0.31255 0.32106 0.24001 0.0
C163 C 0.36044 0.36364 0.11849 0.0
N164 N 0.26192 0.31009 0.15616 0.0
N165 N 0.40953 0.36274 0.18874 0.0
H166 H 0.37481 0.39367 0.01242 0.0
H167 H 0.41146 0.40221 0.07109 0.0
H168 H 0.42061 0.35659 0.23688 0.0
H169 H 0.42747 0.37347 0.14211 0.0
H170 H 0.24279 0.29031 0.19275 0.0
H171 H 0.25073 0.31454 0.10585 0.0
H172 H 0.26349 0.29713 0.30493 0.0
H173 H 0.29989 0.29815 0.35387 0.0
C174 C 0.02985 0.39284 0.33503 0.0
C175 C 0.01932 0.37346 0.40668 0.0
C176 C 0.9593 0.33187 0.35308 0.0
C177 C 0.96936 0.35218 0.28271 0.0
N178 N 0.01585 0.3958 0.19834 0.0
N179 N 0.97826 0.32029 0.47905 0.0
C180 C 0.00531 0.38061 0.27097 0.0
C181 C 0.98534 0.34144 0.4139 0.0
N182 N 0.06235 0.42414 0.32982 0.0
N183 N 0.92443 0.30468 0.36295 0.0
H184 H -0.00291 0.32677 0.52401 0.0
H185 H 0.95531 0.29503 0.48582 0.0
H186 H 0.90513 0.29634 0.31846 0.0
H187 H 0.91406 0.29146 0.41588 0.0
H188 H 0.06965 0.44212 0.28304 0.0
H189 H 0.08158 0.43327 0.37448 0.0
H190 H 0.04251 0.41411 0.1836 0.0
H191 H -0.00172 0.3878 0.15055 0.0
C192 C 0.60858 0.94709 0.5659 0.0
C193 C 0.62347 0.94971 0.49067 0.0
C194 C 0.67604 0.00792 0.52466 0.0
C195 C 0.65963 0.00688 0.59732 0.0
N196 N 0.61642 0.97075 0.69747 0.0
N197 N 0.67663 0.9752 0.40934 0.0
C198 C 0.62808 0.97475 0.62175 0.0
C199 C 0.65911 0.97762 0.47376 0.0
N200 N 0.57499 0.91877 0.58241 0.0
N201 N 0.70724 0.03837 0.50349 0.0
H202 H 0.66534 0.9529 0.37231 0.0
H203 H 0.70363 0.99333 0.39698 0.0
H204 H 0.72154 0.05996 0.54171 0.0
H205 H 0.71819 0.04289 0.44748 0.0
H206 H 0.56006 0.91751 0.63156 0.0
H207 H 0.5614 0.89682 0.54466 0.0
H208 H 0.59574 0.94663 0.72016 0.0
H209 H 0.62924 0.99033 0.74031 0.0
C210 C 0.61195 0.62184 0.60258 0.0
C211 C 0.64604 0.62366 0.60228 0.0
C212 C 0.6649 0.66454 0.71465 0.0
C213 C 0.62869 0.65683 0.72383 0.0
N214 N 0.56637 0.62496 0.67967 0.0
N215 N 0.70547 0.64637 0.65767 0.0
C216 C 0.6019 0.6352 0.6679 0.0
C217 C 0.67299 0.64546 0.65739 0.0
N218 N 0.58922 0.60756 0.53988 0.0
N219 N 0.69143 0.69021 0.76075 0.0
H220 H 0.7124 0.6331 0.61593 0.0
H221 H 0.72466 0.65838 0.70185 0.0
H222 H 0.68613 0.70478 0.80246 0.0
H223 H 0.71885 0.69943 0.75277 0.0
H224 H 0.56565 0.60896 0.5332 0.0
H225 H 0.59583 0.59772 0.49063 0.0
H226 H 0.54538 0.60528 0.64619 0.0
H227 H 0.55717 0.63378 0.72625 0.0
C228 C 0.02946 0.67076 0.8236 0.0
C229 C 0.0144 0.66066 0.74771 0.0
C230 C 0.95348 0.62765 0.80236 0.0
C231 C 0.96851 0.63678 0.87868 0.0
N232 N 0.01844 0.67752 0.95989 0.0
N233 N 0.96277 0.64296 0.66464 0.0
C234 C 0.00584 0.66189 0.88858 0.0
C235 C 0.97653 0.64357 0.73713 0.0
N236 N 0.06598 0.68692 0.83419 0.0
N237 N 0.91806 0.60209 0.79141 0.0
H238 H 0.97955 0.65672 0.61761 0.0
H239 H 0.93537 0.63317 0.65403 0.0
H240 H 0.90008 0.58907 0.8371 0.0
H241 H 0.90719 0.59172 0.73654 0.0
H242 H 0.07804 0.69092 0.88913 0.0
H243 H 0.08413 0.69451 0.78777 0.0
H244 H 0.04495 0.69801 0.96951 0.0
H245 H 0.00114 0.67284 0.00698 0.0
C246 C 0.36032 0.00948 0.93064 0.0
C247 C 0.36388 -0.00246 0.85534 0.0
C248 C 0.33606 0.93512 0.90375 0.0
C249 C 0.33375 0.94731 0.97925 0.0
N250 N 0.33171 0.99305 0.05805 0.0
N251 N 0.34509 0.94809 0.76487 0.0
C252 C 0.34156 0.98343 0.99026 0.0
C253 C 0.34837 0.95996 0.84019 0.0
N254 N 0.3773 0.04556 0.94761 0.0
N255 N 0.3275 0.89996 0.89352 0.0
H256 H 0.35329 0.96561 0.71707 0.0
H257 H 0.33119 0.9209 0.74924 0.0
H258 H 0.31605 0.88063 0.93789 0.0
H259 H 0.33302 0.89034 0.8425 0.0
H260 H 0.37935 0.0555 0.00409 0.0
H261 H 0.39202 0.0658 0.90687 0.0
H262 H 0.33387 0.01824 0.06645 0.0
H263 H 0.31765 0.97463 0.10252 0.0
C264 C 0.5658 0.46107 0.48252 0.0
C265 C 0.56932 0.48181 0.4144 0.0
C266 C 0.5085 0.43653 0.37202 0.0
C267 C 0.50522 0.41532 0.43895 0.0
N268 N 0.53395 0.40264 0.54667 0.0
N269 N 0.54929 0.48328 0.28315 0.0
C270 C 0.5349 0.42613 0.49078 0.0
C271 C 0.54227 0.46759 0.35558 0.0
N272 N 0.59089 0.47514 0.54115 0.0
N273 N 0.47898 0.4284 0.32655 0.0
H274 H 0.57455 0.50488 0.26818 0.0
H275 H 0.53172 0.47225 0.23579 0.0
H276 H 0.45331 0.40665 0.33783 0.0
H277 H 0.4792 0.44526 0.28201 0.0
H278 H 0.58703 0.46327 0.59626 0.0
H279 H 0.61473 0.49978 0.53688 0.0
H280 H 0.55622 0.40748 0.5807 0.0
H281 H 0.51194 0.3767 0.55387 0.0
C282 C 0.09579 0.54295 0.6518 0.0
C283 C 0.09027 0.51916 0.58891 0.0
C284 C 0.08725 0.56203 0.49785 0.0
C285 C 0.08621 0.58241 0.5622 0.0
N286 N 0.0853 0.58978 0.70241 0.0
N287 N 0.07586 0.50368 0.45241 0.0
C288 C 0.0898 0.57253 0.63984 0.0
C289 C 0.08508 0.52817 0.51172 0.0
N290 N 0.10733 0.53758 0.72271 0.0
N291 N 0.09102 0.57539 0.42351 0.0
H292 H 0.07301 0.47814 0.45994 0.0
H293 H 0.06779 0.50744 0.39719 0.0
H294 H 0.09376 0.60064 0.4114 0.0
H295 H 0.09534 0.56326 0.37509 0.0
H296 H 0.1152 0.55604 0.76851 0.0
H297 H 0.11264 0.51651 0.73298 0.0
H298 H 0.08343 0.58076 0.75986 0.0
H299 H 0.08029 0.61122 0.69704 0.0
C300 C 0.54189 0.08845 0.63706 0.0
C301 C 0.51918 0.08271 0.70227 0.0
C302 C 0.56405 0.08071 0.7889 0.0
C303 C 0.58327 0.07983 0.72214 0.0
N304 N 0.59094 0.08247 0.58218 0.0
N305 N 0.50694 0.07069 0.84035 0.0
C306 C 0.57244 0.08383 0.646 0.0
C307 C 0.53002 0.07875 0.77858 0.0
N308 N 0.53463 0.09924 0.56713 0.0
N309 N 0.57811 0.0831 0.86205 0.0
H310 H 0.48176 0.06895 0.83564 0.0
H311 H 0.51151 0.06303 0.89524 0.0
H312 H 0.60283 0.08435 0.87182 0.0
H313 H 0.56706 0.08734 0.91241 0.0
H314 H 0.55184 0.10697 0.51908 0.0
H315 H 0.51305 0.104 0.55966 0.0
H316 H 0.58175 0.0806 0.52491 0.0
H317 H 0.61477 0.0814 0.58678 0.0
C318 C 0.47001 0.54784 0.93421 0.0
C319 C 0.47914 0.57466 0.87563 0.0
C320 C 0.41983 0.53782 0.81448 0.0
C321 C 0.41304 0.50903 0.86633 0.0
N322 N 0.4347 0.48444 0.967 0.0
N323 N 0.46484 0.59355 0.75369 0.0
C324 C 0.43885 0.51344 0.92424 0.0
C325 C 0.45455 0.56938 0.81418 0.0
N326 N 0.49055 0.55557 0.00058 0.0
N327 N 0.3928 0.53549 0.76729 0.0
H328 H 0.49007 0.61693 0.75103 0.0
H329 H 0.44951 0.58892 0.70302 0.0
H330 H 0.3668 0.51309 0.76707 0.0
H331 H 0.39512 0.55709 0.7341 0.0
H332 H 0.48308 0.53817 0.04855 0.0
H333 H 0.51302 0.58089 0.01129 0.0
H334 H 0.4547 0.48549 0.0039 0.0
H335 H 0.41289 0.45839 0.96 0.0
C336 C 0.90798 0.44275 0.00619 0.0
C337 C 0.89697 0.41878 0.07102 0.0
C338 C 0.87283 0.45381 0.13393 0.0
C339 C 0.89049 0.48142 0.0771 0.0
N340 N 0.9278 0.50354 0.96119 0.0
N341 N 0.87025 0.40231 0.19991 0.0
C342 C 0.90841 0.47612 0.01295 0.0
C343 C 0.87919 0.42411 0.1354 0.0
N344 N 0.91744 0.43328 0.93763 0.0
N345 N 0.84957 0.45581 0.1858 0.0
H346 H 0.87405 0.38006 0.20376 0.0
H347 H 0.86142 0.40783 0.25208 0.0
H348 H 0.84379 0.4769 0.18498 0.0
H349 H 0.83326 0.43487 0.22386 0.0
H350 H 0.92255 0.44817 0.8861 0.0
H351 H 0.91621 0.40841 0.93004 0.0
H352 H 0.94488 0.5024 0.91928 0.0
H353 H 0.92925 0.52861 0.96365 0.0
C354 C 0.43598 0.91145 0.20679 0.0
C355 C 0.40921 0.89231 0.26426 0.0
C356 C 0.45101 0.87806 0.33391 0.0
C357 C 0.47655 0.8948 0.27284 0.0
N358 N 0.48825 0.91705 0.13979 0.0
N359 N 0.38813 0.85026 0.37248 0.0
C360 C 0.46735 0.90811 0.20553 0.0
C361 C 0.41573 0.8733 0.32472 0.0
N362 N 0.43293 0.93493 0.15694 0.0
N363 N 0.46083 0.86858 0.40233 0.0
H364 H 0.36181 0.84563 0.36645 0.0
H365 H 0.39055 0.83314 0.41268 0.0
H366 H 0.48657 0.87228 0.41232 0.0
H367 H 0.44438 0.85996 0.45173 0.0
H368 H 0.45355 0.95201 0.11904 0.0
H369 H 0.41184 0.94054 0.15996 0.0
H370 H 0.48087 0.92399 0.08707 0.0
H371 H 0.51067 0.91347 0.13534 0.0
C372 C 0.34785 0.32363 0.77017 0.0
C373 C 0.33956 0.35152 0.75586 0.0
C374 C 0.33162 0.33642 0.61642 0.0
C375 C 0.3461 0.31334 0.62902 0.0
N376 N 0.36841 0.28444 0.71684 0.0
N377 N 0.32557 0.38633 0.66422 0.0
C378 C 0.35381 0.30629 0.70577 0.0
C379 C 0.33136 0.35808 0.67885 0.0
N380 N 0.34915 0.31316 0.84529 0.0
N381 N 0.31778 0.33724 0.54462 0.0
H382 H 0.32505 0.40306 0.70766 0.0
H383 H 0.324 0.39505 0.60809 0.0
H384 H 0.31729 0.32121 0.49809 0.0
H385 H 0.30356 0.35079 0.53344 0.0
H386 H 0.35142 0.29059 0.85938 0.0
H387 H 0.34461 0.32506 0.89389 0.0
H388 H 0.37922 0.28217 0.76989 0.0
H389 H 0.37144 0.26981 0.67174 0.0
C390 C -0.0008 0.32048 0.88555 0.0
C391 C 0.98389 0.34211 0.90735 0.0
C392 C -0.00092 0.371 0.77892 0.0
C393 C 0.01997 0.35436 0.76277 0.0
N394 N 0.04439 0.31686 0.80741 0.0
N395 N 0.97683 0.39398 0.87981 0.0
C396 C 0.02122 0.32991 0.81768 0.0
C397 C 0.98581 0.36901 0.85537 0.0
N398 N 0.9916 0.29012 0.92732 0.0
N399 N 0.991 0.38789 0.72073 0.0
H400 H 0.96951 0.39522 0.93719 0.0
H401 H 0.98093 0.41602 0.84569 0.0
H402 H -0.00154 0.38796 0.66274 0.0
H403 H 0.97325 0.39779 0.7284 0.0
H404 H -0.00062 0.27169 0.90912 0.0
H405 H 0.9742 0.28117 0.97521 0.0
H406 H 0.04905 0.30225 0.85043 0.0
H407 H 0.06134 0.32319 0.75918 0.0
C408 C 0.64339 0.97431 0.07491 0.0
C409 C 0.62733 0.98283 0.13771 0.0
C410 C 0.62539 0.02973 0.05833 0.0
C411 C 0.63673 0.01766 0.99295 0.0
N412 N 0.65338 0.97649 0.93515 0.0
N413 N 0.59947 0.01607 0.18809 0.0
C414 C 0.64509 0.98952 0.00015 0.0
C415 C 0.61769 0.01014 0.12962 0.0
N416 N 0.65785 0.95239 0.0875 0.0
N417 N 0.62269 0.0603 0.05261 0.0
H418 H 0.59368 0.00284 0.2419 0.0
H419 H 0.58779 0.03232 0.18137 0.0
H420 H 0.62788 0.07515 0.00089 0.0
H421 H 0.61838 0.07269 0.10052 0.0
H422 H 0.67298 0.9479 0.04595 0.0
H423 H 0.65779 0.94144 0.14226 0.0
H424 H 0.65558 0.95324 0.93542 0.0
H425 H 0.65536 0.9873 0.87931 0.0
C426 C 0.61479 0.6274 0.10401 0.0
C427 C 0.62711 0.66489 0.09462 0.0
C428 C 0.65596 0.67655 0.22346 0.0
C429 C 0.63982 0.63876 0.2363 0.0
N430 N 0.59611 0.57824 0.19577 0.0
N431 N 0.65144 0.72377 0.15494 0.0
C432 C 0.61699 0.61415 0.17858 0.0
C433 C 0.64552 0.68919 0.15694 0.0
N434 N 0.60218 0.60448 0.0415 0.0
N435 N 0.68223 0.70044 0.27275 0.0
H436 H 0.64257 0.73379 0.10945 0.0
H437 H 0.66153 0.7412 0.20265 0.0
H438 H 0.69171 0.69238 0.3207 0.0
H439 H 0.69722 0.72808 0.26117 0.0
H440 H 0.59634 0.57768 0.04443 0.0
H441 H 0.60128 0.61298 0.98488 0.0
H442 H 0.5763 0.55979 0.15807 0.0
H443 H 0.59562 0.56768 0.25103 0.0
C444 C 0.98046 0.66676 0.3741 0.0
C445 C 0.00745 0.65661 0.37635 0.0
C446 C -0.00053 0.64344 0.23639 0.0
C447 C 0.96886 0.64822 0.23702 0.0
N448 N 0.92729 0.66039 0.30846 0.0
N449 N 0.04086 0.63208 0.31193 0.0
C450 C 0.95872 0.65919 0.30615 0.0
C451 C 0.01683 0.64446 0.30794 0.0
N452 N 0.97622 0.68443 0.4362 0.0
N453 N 0.01223 0.63845 0.16707 0.0
H454 H 0.05443 0.63245 0.36301 0.0
H455 H 0.04532 0.61878 0.26605 0.0
H456 H 7e-05 0.63754 0.11357 0.0
H457 H 0.03664 0.63864 0.16171 0.0
H458 H 0.95944 0.69569 0.43478 0.0
H459 H 0.99221 0.69104 0.48647 0.0
H460 H 0.91642 0.66393 0.35992 0.0
H461 H 0.91044 0.65499 0.26012 0.0
C462 C 0.33654 -0.00028 0.36939 0.0
C463 C 0.36189 0.99221 0.33313 0.0
C464 C 0.40661 0.02724 0.43343 0.0
C465 C 0.37895 0.02789 0.4782 0.0
N466 N 0.31831 0.01817 0.48681 0.0
N467 N 0.42026 -0.00444 0.33467 0.0
C468 C 0.34411 0.01531 0.44527 0.0
C469 C 0.39695 0.00558 0.36531 0.0
N470 N 0.30563 0.99253 0.33033 0.0
N471 N 0.44204 0.04719 0.45517 0.0
H472 H 0.41459 0.97942 0.28526 0.0
H473 H 0.44412 0.00065 0.36245 0.0
H474 H 0.45078 0.06455 0.50276 0.0
H475 H 0.46328 0.05006 0.42023 0.0
H476 H 0.28734 0.0001 0.35037 0.0
H477 H 0.29989 0.98179 0.27391 0.0
H478 H 0.29115 0.00539 0.47096 0.0
H479 H 0.32399 0.03268 0.53893 0.0
C480 C 0.43984 0.24186 0.61985 0.0
C481 C 0.43584 0.24383 0.53752 0.0
C482 C 0.42913 0.18376 0.52264 0.0
C483 C 0.43783 0.18391 0.60295 0.0
N484 N 0.45655 0.21526 0.72622 0.0
N485 N 0.43401 0.21972 0.40883 0.0
C486 C 0.4445 0.21351 0.65126 0.0
C487 C 0.43241 0.21558 0.48835 0.0
N488 N 0.43774 0.26611 0.66852 0.0
N489 N 0.41642 0.15279 0.47963 0.0
H490 H 0.43776 0.24316 0.38109 0.0
H491 H 0.43543 0.20145 0.37074 0.0
H492 H 0.41234 0.12844 0.50316 0.0
H493 H 0.40625 0.15025 0.42304 0.0
H494 H 0.43646 0.26349 0.72922 0.0
H495 H 0.4337 0.28695 0.64857 0.0
H496 H 0.46581 0.23815 0.7612 0.0
H497 H 0.4602 0.19497 0.75137 0.0
C498 C 0.24417 0.46556 0.78202 0.0
C499 C 0.23959 0.43124 0.80227 0.0
C500 C 0.17778 0.40162 0.75084 0.0
C501 C 0.18381 0.43556 0.72282 0.0
N502 N 0.22385 0.49938 0.70281 0.0
N503 N 0.20435 0.3661 0.7958 0.0
C504 C 0.21728 0.46749 0.73627 0.0
C505 C 0.20695 0.39908 0.78437 0.0
N506 N 0.27385 0.49628 0.80828 0.0
N507 N 0.14387 0.37205 0.74799 0.0
H508 H 0.22502 0.36293 0.82037 0.0
H509 H 0.18284 0.342 0.77516 0.0
H510 H 0.12173 0.37277 0.72395 0.0
H511 H 0.13697 0.34763 0.77557 0.0
H512 H 0.27706 0.52202 0.8023 0.0
H513 H 0.2939 0.49578 0.84255 0.0
H514 H 0.24906 0.52277 0.70333 0.0
H515 H 0.20483 0.50177 0.6686 0.0
C516 C 0.78531 0.21316 0.004 0.0
C517 C 0.81458 0.23866 0.958 0.0
C518 C 0.78546 0.20369 0.83982 0.0
C519 C 0.75761 0.17687 0.88668 0.0
N520 N 0.73723 0.15117 0.01549 0.0
N521 N 0.84738 0.25256 0.83595 0.0
C522 C 0.75938 0.18009 0.96951 0.0
C523 C 0.81616 0.23226 0.87695 0.0
N524 N 0.7811 0.22103 0.07935 0.0
N525 N 0.78204 0.20298 0.76022 0.0
H526 H 0.87109 0.2726 0.86183 0.0
H527 H 0.85092 0.24676 0.77857 0.0
H528 H 0.75961 0.18303 0.73056 0.0
H529 H 0.79991 0.22409 0.72423 0.0
H530 H 0.75807 0.20477 0.1123 0.0
H531 H 0.79877 0.24544 0.10645 0.0
H532 H 0.73981 0.15123 0.07617 0.0
H533 H 0.71914 0.12579 0.99274 0.0
C534 C 0.5536 0.77318 0.16747 0.0
C535 C 0.5567 0.8046 0.13135 0.0
C536 C 0.5557 0.77935 0.00214 0.0
C537 C 0.55562 0.74937 0.03854 0.0
N538 N 0.56592 0.72389 0.156 0.0
N539 N 0.57159 0.84197 0.01532 0.0
C540 C 0.55801 0.74809 0.12133 0.0
C541 C 0.56098 0.80904 0.04889 0.0
N542 N 0.54476 0.76623 0.24484 0.0
N543 N 0.54922 0.779 0.92369 0.0
H544 H 0.57778 0.865 0.04782 0.0
H545 H 0.57828 0.84734 0.95631 0.0
H546 H 0.54422 0.75738 0.88747 0.0
H547 H 0.54534 0.79866 0.89615 0.0
H548 H 0.53867 0.74182 0.27152 0.0
H549 H 0.53982 0.78309 0.28045 0.0
H550 H 0.57131 0.72429 0.21564 0.0
H551 H 0.57132 0.70628 0.12424 0.0
C552 C 0.77484 0.60135 0.24338 0.0
C553 C 0.74761 0.5684 0.27628 0.0
C554 C 0.77821 0.53686 0.22663 0.0
C555 C 0.8071 0.57038 0.20011 0.0
N556 N 0.83599 0.63548 0.19393 0.0
N557 N 0.72585 0.50607 0.31083 0.0
C558 C 0.80628 0.60293 0.21125 0.0
C559 C 0.74998 0.53647 0.27114 0.0
N560 N 0.77 0.63072 0.23979 0.0
N561 N 0.77704 0.50526 0.20658 0.0
H562 H 0.70492 0.50488 0.3445 0.0
H563 H 0.72845 0.48314 0.31626 0.0
H564 H 0.79687 0.50439 0.17262 0.0
H565 H 0.75483 0.47982 0.21716 0.0
H566 H 0.78692 0.6541 0.20845 0.0
H567 H 0.74736 0.63074 0.2626 0.0
H568 H 0.83854 0.66023 0.2096 0.0
H569 H 0.85944 0.63789 0.16945 0.0
C570 C 0.21404 0.75875 0.43182 0.0
C571 C 0.17983 0.75662 0.43469 0.0
C572 C 0.20336 0.81294 0.35967 0.0
C573 C 0.23676 0.81358 0.35185 0.0
N574 N 0.27262 0.78468 0.36892 0.0
N575 N 0.1396 0.77762 0.39028 0.0
C576 C 0.24178 0.78579 0.38479 0.0
C577 C 0.17381 0.78263 0.39568 0.0
N578 N 0.22025 0.73554 0.47589 0.0
N579 N 0.20028 0.84189 0.33538 0.0
H580 H 0.11717 0.75584 0.41607 0.0
H581 H 0.1329 0.79337 0.35494 0.0
H582 H 0.22119 0.86446 0.30787 0.0
H583 H 0.17801 0.84486 0.34788 0.0
H584 H 0.24567 0.73806 0.48292 0.0
H585 H 0.20047 0.71538 0.511 0.0
H586 H 0.27641 0.76317 0.3845 0.0
H587 H 0.29333 0.80387 0.33391 0.0
loop_
_geom_bond_atom_site_label_1
_geom_bond_atom_site_label_2
_geom_bond_distance
_geom_bond_site_symmetry_2
_ccdc_geom_bond_type
C0 O1 1.160 . S
C0 O7 1.185 . S
O1 C0 1.160 . S
O2 Zn3 1.899 . S
O2 C10 1.284 . S
Zn3 O2 1.899 . S
Zn3 O4 2.032 . S
Zn3 O7 2.086 . S
Zn3 O12 1.977 . S
O4 Zn3 2.032 . S
O4 C8 1.278 . S
C5 O6 1.203 . S
C5 O12 1.267 . S
O6 C5 1.203 . S
O7 C0 1.185 . S
O7 Zn3 2.086 . S
C8 O4 1.278 . S
C8 O9 1.211 . S
O9 C8 1.211 . S
C10 O2 1.284 . S
C10 O11 1.273 . S
O11 C10 1.273 . S
O12 Zn3 1.977 . S
O12 C5 1.267 . S
C13 O14 1.160 . S
C13 O20 1.185 . S
O14 C13 1.160 . S
O15 Zn16 1.899 . S
O15 C23 1.284 . S
Zn16 O15 1.899 . S
Zn16 O17 2.032 . S
Zn16 O20 2.086 . S
Zn16 O25 1.977 . S
O17 Zn16 2.032 . S
O17 C21 1.278 . S
C18 O19 1.203 . S
C18 O25 1.267 . S
O19 C18 1.203 . S
O20 C13 1.185 . S
O20 Zn16 2.086 . S
C21 O17 1.278 . S
C21 O22 1.211 . S
O22 C21 1.211 . S
C23 O15 1.284 . S
C23 O24 1.273 . S
O24 C23 1.273 . S
O25 Zn16 1.977 . S
O25 C18 1.267 . S
C26 O27 1.160 . S
C26 O33 1.185 . S
O27 C26 1.160 . S
O28 Zn29 1.899 . S
O28 C36 1.284 . S
Zn29 O28 1.899 . S
Zn29 O30 2.032 . S
Zn29 O33 2.086 . S
Zn29 O38 1.977 . S
O30 Zn29 2.032 . S
O30 C34 1.278 . S
C31 O32 1.203 . S
C31 O38 1.267 . S
O32 C31 1.203 . S
O33 C26 1.185 . S
O33 Zn29 2.086 . S
C34 O30 1.278 . S
C34 O35 1.211 . S
O35 C34 1.211 . S
C36 O28 1.284 . S
C36 O37 1.273 . S
O37 C36 1.273 . S
O38 Zn29 1.977 . S
O38 C31 1.267 . S
C39 O40 1.160 1_556 S
C39 O46 1.185 . S
O40 C39 1.160 1_554 S
O41 Zn42 1.899 . S
O41 C49 1.284 . S
Zn42 O41 1.899 . S
Zn42 O43 2.032 1_556 S
Zn42 O46 2.086 . S
Zn42 O51 1.977 . S
O43 Zn42 2.032 1_554 S
O43 C47 1.278 . S
C44 O45 1.203 . S
C44 O51 1.267 . S
O45 C44 1.203 . S
O46 C39 1.185 . S
O46 Zn42 2.086 . S
C47 O43 1.278 . S
C47 O48 1.211 1_554 S
O48 C47 1.211 1_556 S
C49 O41 1.284 . S
C49 O50 1.273 . S
O50 C49 1.273 . S
O51 Zn42 1.977 . S
O51 C44 1.267 . S
C52 O53 1.160 . S
C52 O59 1.185 . S
O53 C52 1.160 . S
O54 Zn55 1.899 . S
O54 C62 1.284 . S
Zn55 O54 1.899 . S
Zn55 O56 2.032 . S
Zn55 O59 2.086 . S
Zn55 O64 1.977 . S
O56 Zn55 2.032 . S
O56 C60 1.278 . S
C57 O58 1.203 . S
C57 O64 1.267 1_556 S
O58 C57 1.203 . S
O59 C52 1.185 . S
O59 Zn55 2.086 . S
C60 O56 1.278 . S
C60 O61 1.211 . S
O61 C60 1.211 . S
C62 O54 1.284 . S
C62 O63 1.273 . S
O63 C62 1.273 . S
O64 Zn55 1.977 . S
O64 C57 1.267 1_554 S
C65 O66 1.160 . S
C65 O72 1.185 . S
O66 C65 1.160 . S
O67 Zn68 1.899 . S
O67 C75 1.284 . S
Zn68 O67 1.899 . S
Zn68 O69 2.032 . S
Zn68 O72 2.086 . S
Zn68 O77 1.977 . S
O69 Zn68 2.032 . S
O69 C73 1.278 . S
C70 O71 1.203 . S
C70 O77 1.267 . S
O71 C70 1.203 . S
O72 C65 1.185 . S
O72 Zn68 2.086 . S
C73 O69 1.278 . S
C73 O74 1.211 . S
O74 C73 1.211 . S
C75 O67 1.284 . S
C75 O76 1.273 . S
O76 C75 1.273 . S
O77 Zn68 1.977 . S
O77 C70 1.267 . S
C78 O79 1.160 . S
C78 O85 1.185 . S
O79 C78 1.160 . S
O80 Zn81 1.899 . S
O80 C88 1.284 . S
Zn81 O80 1.899 . S
Zn81 O82 2.032 . S
Zn81 O85 2.086 . S
Zn81 O90 1.977 . S
O82 Zn81 2.032 . S
O82 C86 1.278 . S
C83 O84 1.203 . S
C83 O90 1.267 . S
O84 C83 1.203 . S
O85 C78 1.185 . S
O85 Zn81 2.086 . S
C86 O82 1.278 . S
C86 O87 1.211 . S
O87 C86 1.211 . S
C88 O80 1.284 . S
C88 O89 1.273 . S
O89 C88 1.273 . S
O90 Zn81 1.977 . S
O90 C83 1.267 . S
C91 O92 1.160 . S
C91 O98 1.185 . S
O92 C91 1.160 . S
O93 Zn94 1.899 . S
O93 C101 1.284 . S
Zn94 O93 1.899 . S
Zn94 O95 2.032 . S
Zn94 O98 2.086 . S
Zn94 O103 1.977 . S
O95 Zn94 2.032 . S
O95 C99 1.278 . S
C96 O97 1.203 . S
C96 O103 1.267 . S
O97 C96 1.203 . S
O98 C91 1.185 . S
O98 Zn94 2.086 . S
C99 O95 1.278 . S
C99 O100 1.211 . S
O100 C99 1.211 . S
C101 O93 1.284 . S
C101 O102 1.273 . S
O102 C101 1.273 . S
O103 Zn94 1.977 . S
O103 C96 1.267 . S
C104 O105 1.160 . S
C104 O111 1.185 . S
O105 C104 1.160 . S
O106 Zn107 1.899 . S
O106 C114 1.284 . S
Zn107 O106 1.899 . S
Zn107 O108 2.032 . S
Zn107 O111 2.086 . S
Zn107 O116 1.977 . S
O108 Zn107 2.032 . S
O108 C112 1.278 . S
C109 O110 1.203 . S
C109 O116 1.267 . S
O110 C109 1.203 . S
O111 C104 1.185 . S
O111 Zn107 2.086 . S
C112 O108 1.278 . S
C112 O113 1.211 . S
O113 C112 1.211 . S
C114 O106 1.284 . S
C114 O115 1.273 . S
O115 C114 1.273 . S
O116 Zn107 1.977 . S
O116 C109 1.267 . S
C117 O118 1.160 . S
C117 O124 1.185 . S
O118 C117 1.160 . S
O119 Zn120 1.899 . S
O119 C127 1.284 . S
Zn120 O119 1.899 . S
Zn120 O121 2.032 . S
Zn120 O124 2.086 . S
Zn120 O129 1.977 . S
O121 Zn120 2.032 . S
O121 C125 1.278 . S
C122 O123 1.203 . S
C122 O129 1.267 1_554 S
O123 C122 1.203 . S
O124 C117 1.185 . S
O124 Zn120 2.086 . S
C125 O121 1.278 . S
C125 O126 1.211 . S
O126 C125 1.211 . S
C127 O119 1.284 . S
C127 O128 1.273 . S
O128 C127 1.273 . S
O129 Zn120 1.977 . S
O129 C122 1.267 1_556 S
C130 O131 1.160 1_554 S
C130 O137 1.185 . S
O131 C130 1.160 1_556 S
O132 Zn133 1.899 . S
O132 C140 1.284 . S
Zn133 O132 1.899 . S
Zn133 O134 2.032 1_554 S
Zn133 O137 2.086 . S
Zn133 O142 1.977 . S
O134 Zn133 2.032 1_556 S
O134 C138 1.278 . S
C135 O136 1.203 . S
C135 O142 1.267 . S
O136 C135 1.203 . S
O137 C130 1.185 . S
O137 Zn133 2.086 . S
C138 O134 1.278 . S
C138 O139 1.211 1_556 S
O139 C138 1.211 1_554 S
C140 O132 1.284 . S
C140 O141 1.273 . S
O141 C140 1.273 . S
O142 Zn133 1.977 . S
O142 C135 1.267 . S
C143 O144 1.160 . S
C143 O150 1.185 . S
O144 C143 1.160 . S
O145 Zn146 1.899 . S
O145 C153 1.284 . S
Zn146 O145 1.899 . S
Zn146 O147 2.032 . S
Zn146 O150 2.086 . S
Zn146 O155 1.977 . S
O147 Zn146 2.032 . S
O147 C151 1.278 . S
C148 O149 1.203 . S
C148 O155 1.267 . S
O149 C148 1.203 . S
O150 C143 1.185 . S
O150 Zn146 2.086 . S
C151 O147 1.278 . S
C151 O152 1.211 . S
O152 C151 1.211 . S
C153 O145 1.284 . S
C153 O154 1.273 . S
O154 C153 1.273 . S
O155 Zn146 1.977 . S
O155 C148 1.267 . S
C156 C157 1.363 . S
C156 C162 1.379 . S
C156 N164 1.356 . S
C157 C156 1.363 . S
C157 C163 1.363 . S
C158 C159 1.363 . S
C158 C163 1.379 . S
C158 N165 1.356 . S
C159 C158 1.363 . S
C159 C162 1.363 . S
N160 C162 1.356 . S
N160 H172 0.984 . S
N160 H173 0.985 . S
N161 C163 1.356 . S
N161 H166 0.984 . S
N161 H167 0.985 . S
C162 C156 1.379 . S
C162 C159 1.363 . S
C162 N160 1.356 . S
C163 C157 1.363 . S
C163 C158 1.379 . S
C163 N161 1.356 . S
N164 C156 1.356 . S
N164 H170 0.984 . S
N164 H171 0.984 . S
N165 C158 1.356 . S
N165 H168 0.984 . S
N165 H169 0.985 . S
H166 N161 0.984 . S
H167 N161 0.985 . S
H168 N165 0.984 . S
H169 N165 0.985 . S
H170 N164 0.984 . S
H171 N164 0.984 . S
H172 N160 0.984 . S
H173 N160 0.985 . S
C174 C175 1.363 . S
C174 C180 1.379 . S
C174 N182 1.356 . S
C175 C174 1.363 . S
C175 C181 1.363 1_455 S
C176 C177 1.363 . S
C176 C181 1.379 . S
C176 N183 1.356 . S
C177 C176 1.363 . S
C177 C180 1.363 1_655 S
N178 C180 1.356 1_655 S
N178 H190 0.984 1_655 S
N178 H191 0.985 . S
N179 C181 1.356 1_455 S
N179 H184 0.984 . S
N179 H185 0.985 1_455 S
C180 C174 1.379 . S
C180 C177 1.363 1_455 S
C180 N178 1.356 1_455 S
C181 C175 1.363 1_655 S
C181 C176 1.379 . S
C181 N179 1.356 1_655 S
N182 C174 1.356 . S
N182 H188 0.984 . S
N182 H189 0.984 . S
N183 C176 1.356 . S
N183 H186 0.984 . S
N183 H187 0.985 . S
H184 N179 0.984 . S
H185 N179 0.985 1_655 S
H186 N183 0.984 . S
H187 N183 0.985 . S
H188 N182 0.984 . S
H189 N182 0.984 . S
H190 N178 0.984 1_455 S
H191 N178 0.985 . S
C192 C193 1.363 . S
C192 C198 1.379 . S
C192 N200 1.356 . S
C193 C192 1.363 . S
C193 C199 1.363 1_565 S
C194 C195 1.363 . S
C194 C199 1.379 . S
C194 N201 1.356 . S
C195 C194 1.363 . S
C195 C198 1.363 1_545 S
N196 C198 1.356 . S
N196 H208 0.984 . S
N196 H209 0.985 1_565 S
N197 C199 1.356 . S
N197 H202 0.984 1_545 S
N197 H203 0.985 . S
C198 C192 1.379 . S
C198 C195 1.363 1_565 S
C198 N196 1.356 . S
C199 C193 1.363 1_545 S
C199 C194 1.379 . S
C199 N197 1.356 . S
N200 C192 1.356 . S
N200 H206 0.984 . S
N200 H207 0.984 . S
N201 C194 1.356 . S
N201 H204 0.984 . S
N201 H205 0.985 . S
H202 N197 0.984 1_565 S
H203 N197 0.985 . S
H204 N201 0.984 . S
H205 N201 0.985 . S
H206 N200 0.984 . S
H207 N200 0.984 . S
H208 N196 0.984 . S
H209 N196 0.985 1_545 S
C210 C211 1.363 . S
C210 C216 1.379 . S
C210 N218 1.356 . S
C211 C210 1.363 . S
C211 C217 1.363 . S
C212 C213 1.363 . S
C212 C217 1.379 . S
C212 N219 1.356 . S
C213 C212 1.363 . S
C213 C216 1.363 . S
N214 C216 1.356 . S
N214 H226 0.984 . S
N214 H227 0.985 . S
N215 C217 1.356 . S
N215 H220 0.984 . S
N215 H221 0.985 . S
C216 C210 1.379 . S
C216 C213 1.363 . S
C216 N214 1.356 . S
C217 C211 1.363 . S
C217 C212 1.379 . S
C217 N215 1.356 . S
N218 C210 1.356 . S
N218 H224 0.984 . S
N218 H225 0.984 . S
N219 C212 1.356 . S
N219 H222 0.984 . S
N219 H223 0.985 . S
H220 N215 0.984 . S
H221 N215 0.985 . S
H222 N219 0.984 . S
H223 N219 0.985 . S
H224 N218 0.984 . S
H225 N218 0.984 . S
H226 N214 0.984 . S
H227 N214 0.985 . S
C228 C229 1.363 . S
C228 C234 1.379 . S
C228 N236 1.356 . S
C229 C228 1.363 . S
C229 C235 1.363 1_455 S
C230 C231 1.363 . S
C230 C235 1.379 . S
C230 N237 1.356 . S
C231 C230 1.363 . S
C231 C234 1.363 1_655 S
N232 C234 1.356 . S
N232 H244 0.984 1_556 S
N232 H245 0.985 1_456 S
N233 C235 1.356 . S
N233 H238 0.984 1_655 S
N233 H239 0.985 . S
C234 C228 1.379 . S
C234 C231 1.363 1_455 S
C234 N232 1.356 . S
C235 C229 1.363 1_655 S
C235 C230 1.379 . S
C235 N233 1.356 . S
N236 C228 1.356 . S
N236 H242 0.984 . S
N236 H243 0.984 . S
N237 C230 1.356 . S
N237 H240 0.984 . S
N237 H241 0.985 . S
H238 N233 0.984 1_455 S
H239 N233 0.985 . S
H240 N237 0.984 . S
H241 N237 0.985 . S
H242 N236 0.984 . S
H243 N236 0.984 . S
H244 N232 0.984 1_554 S
H245 N232 0.985 1_654 S
C246 C247 1.363 1_554 S
C246 C252 1.379 . S
C246 N254 1.356 . S
C247 C246 1.363 1_556 S
C247 C253 1.363 1_545 S
C248 C249 1.363 1_556 S
C248 C253 1.379 . S
C248 N255 1.356 . S
C249 C248 1.363 1_554 S
C249 C252 1.363 1_565 S
N250 C252 1.356 . S
N250 H262 0.984 . S
N250 H263 0.985 1_545 S
N251 C253 1.356 . S
N251 H256 0.984 1_565 S
N251 H257 0.985 . S
C252 C246 1.379 . S
C252 C249 1.363 1_545 S
C252 N250 1.356 . S
C253 C247 1.363 1_565 S
C253 C248 1.379 . S
C253 N251 1.356 . S
N254 C246 1.356 . S
N254 H260 0.984 . S
N254 H261 0.984 1_554 S
N255 C248 1.356 . S
N255 H258 0.984 1_556 S
N255 H259 0.985 . S
H256 N251 0.984 1_545 S
H257 N251 0.985 . S
H258 N255 0.984 1_554 S
H259 N255 0.985 . S
H260 N254 0.984 . S
H261 N254 0.984 1_556 S
H262 N250 0.984 . S
H263 N250 0.985 1_565 S
C264 C265 1.363 . S
C264 C270 1.379 . S
C264 N272 1.356 . S
C265 C264 1.363 . S
C265 C271 1.363 . S
C266 C267 1.363 . S
C266 C271 1.379 . S
C266 N273 1.356 . S
C267 C266 1.363 . S
C267 C270 1.363 . S
N268 C270 1.356 . S
N268 H280 0.984 . S
N268 H281 0.985 . S
N269 C271 1.356 . S
N269 H274 0.984 . S
N269 H275 0.985 . S
C270 C264 1.379 . S
C270 C267 1.363 . S
C270 N268 1.356 . S
C271 C265 1.363 . S
C271 C266 1.379 . S
C271 N269 1.356 . S
N272 C264 1.356 . S
N272 H278 0.984 . S
N272 H279 0.984 . S
N273 C266 1.356 . S
N273 H276 0.984 . S
N273 H277 0.985 . S
H274 N269 0.984 . S
H275 N269 0.985 . S
H276 N273 0.984 . S
H277 N273 0.985 . S
H278 N272 0.984 . S
H279 N272 0.984 . S
H280 N268 0.984 . S
H281 N268 0.985 . S
C282 C283 1.363 . S
C282 C288 1.379 . S
C282 N290 1.356 . S
C283 C282 1.363 . S
C283 C289 1.363 . S
C284 C285 1.363 . S
C284 C289 1.379 . S
C284 N291 1.356 . S
C285 C284 1.363 . S
C285 C288 1.363 . S
N286 C288 1.356 . S
N286 H298 0.984 . S
N286 H299 0.985 . S
N287 C289 1.356 . S
N287 H292 0.984 . S
N287 H293 0.985 . S
C288 C282 1.379 . S
C288 C285 1.363 . S
C288 N286 1.356 . S
C289 C283 1.363 . S
C289 C284 1.379 . S
C289 N287 1.356 . S
N290 C282 1.356 . S
N290 H296 0.984 . S
N290 H297 0.984 . S
N291 C284 1.356 . S
N291 H294 0.984 . S
N291 H295 0.985 . S
H292 N287 0.984 . S
H293 N287 0.985 . S
H294 N291 0.984 . S
H295 N291 0.985 . S
H296 N290 0.984 . S
H297 N290 0.984 . S
H298 N286 0.984 . S
H299 N286 0.985 . S
C300 C301 1.363 . S
C300 C306 1.379 . S
C300 N308 1.356 . S
C301 C300 1.363 . S
C301 C307 1.363 . S
C302 C303 1.363 . S
C302 C307 1.379 . S
C302 N309 1.356 . S
C303 C302 1.363 . S
C303 C306 1.363 . S
N304 C306 1.356 . S
N304 H316 0.984 . S
N304 H317 0.985 . S
N305 C307 1.356 . S
N305 H310 0.984 . S
N305 H311 0.985 . S
C306 C300 1.379 . S
C306 C303 1.363 . S
C306 N304 1.356 . S
C307 C301 1.363 . S
C307 C302 1.379 . S
C307 N305 1.356 . S
N308 C300 1.356 . S
N308 H314 0.984 . S
N308 H315 0.984 . S
N309 C302 1.356 . S
N309 H312 0.984 . S
N309 H313 0.985 . S
H310 N305 0.984 . S
H311 N305 0.985 . S
H312 N309 0.984 . S
H313 N309 0.985 . S
H314 N308 0.984 . S
H315 N308 0.984 . S
H316 N304 0.984 . S
H317 N304 0.985 . S
C318 C319 1.363 . S
C318 C324 1.379 . S
C318 N326 1.356 1_556 S
C319 C318 1.363 . S
C319 C325 1.363 . S
C320 C321 1.363 . S
C320 C325 1.379 . S
C320 N327 1.356 . S
C321 C320 1.363 . S
C321 C324 1.363 . S
N322 C324 1.356 1_554 S
N322 H334 0.984 . S
N322 H335 0.985 . S
N323 C325 1.356 . S
N323 H328 0.984 . S
N323 H329 0.985 . S
C324 C318 1.379 . S
C324 C321 1.363 . S
C324 N322 1.356 1_556 S
C325 C319 1.363 . S
C325 C320 1.379 . S
C325 N323 1.356 . S
N326 C318 1.356 1_554 S
N326 H332 0.984 . S
N326 H333 0.984 . S
N327 C320 1.356 . S
N327 H330 0.984 . S
N327 H331 0.985 . S
H328 N323 0.984 . S
H329 N323 0.985 . S
H330 N327 0.984 . S
H331 N327 0.985 . S
H332 N326 0.984 . S
H333 N326 0.984 . S
H334 N322 0.984 . S
H335 N322 0.985 . S
C336 C337 1.363 . S
C336 C342 1.379 . S
C336 N344 1.356 1_554 S
C337 C336 1.363 . S
C337 C343 1.363 . S
C338 C339 1.363 . S
C338 C343 1.379 . S
C338 N345 1.356 . S
C339 C338 1.363 . S
C339 C342 1.363 . S
N340 C342 1.356 1_556 S
N340 H352 0.984 . S
N340 H353 0.985 . S
N341 C343 1.356 . S
N341 H346 0.984 . S
N341 H347 0.985 . S
C342 C336 1.379 . S
C342 C339 1.363 . S
C342 N340 1.356 1_554 S
C343 C337 1.363 . S
C343 C338 1.379 . S
C343 N341 1.356 . S
N344 C336 1.356 1_556 S
N344 H350 0.984 . S
N344 H351 0.984 . S
N345 C338 1.356 . S
N345 H348 0.984 . S
N345 H349 0.985 . S
H346 N341 0.984 . S
H347 N341 0.985 . S
H348 N345 0.984 . S
H349 N345 0.985 . S
H350 N344 0.984 . S
H351 N344 0.984 . S
H352 N340 0.984 . S
H353 N340 0.985 . S
C354 C355 1.363 . S
C354 C360 1.379 . S
C354 N362 1.356 . S
C355 C354 1.363 . S
C355 C361 1.363 . S
C356 C357 1.363 . S
C356 C361 1.379 . S
C356 N363 1.356 . S
C357 C356 1.363 . S
C357 C360 1.363 . S
N358 C360 1.356 . S
N358 H370 0.984 . S
N358 H371 0.985 . S
N359 C361 1.356 . S
N359 H364 0.984 . S
N359 H365 0.985 . S
C360 C354 1.379 . S
C360 C357 1.363 . S
C360 N358 1.356 . S
C361 C355 1.363 . S
C361 C356 1.379 . S
C361 N359 1.356 . S
N362 C354 1.356 . S
N362 H368 0.984 . S
N362 H369 0.984 . S
N363 C356 1.356 . S
N363 H366 0.984 . S
N363 H367 0.985 . S
H364 N359 0.984 . S
H365 N359 0.985 . S
H366 N363 0.984 . S
H367 N363 0.985 . S
H368 N362 0.984 . S
H369 N362 0.984 . S
H370 N358 0.984 . S
H371 N358 0.985 . S
C372 C373 1.363 . S
C372 C378 1.379 . S
C372 N380 1.356 . S
C373 C372 1.363 . S
C373 C379 1.363 . S
C374 C375 1.363 . S
C374 C379 1.379 . S
C374 N381 1.356 . S
C375 C374 1.363 . S
C375 C378 1.363 . S
N376 C378 1.356 . S
N376 H388 0.984 . S
N376 H389 0.985 . S
N377 C379 1.356 . S
N377 H382 0.984 . S
N377 H383 0.985 . S
C378 C372 1.379 . S
C378 C375 1.363 . S
C378 N376 1.356 . S
C379 C373 1.363 . S
C379 C374 1.379 . S
C379 N377 1.356 . S
N380 C372 1.356 . S
N380 H386 0.984 . S
N380 H387 0.984 . S
N381 C374 1.356 . S
N381 H384 0.984 . S
N381 H385 0.985 . S
H382 N377 0.984 . S
H383 N377 0.985 . S
H384 N381 0.984 . S
H385 N381 0.985 . S
H386 N380 0.984 . S
H387 N380 0.984 . S
H388 N376 0.984 . S
H389 N376 0.985 . S
C390 C391 1.363 . S
C390 C396 1.379 1_655 S
C390 N398 1.356 . S
C391 C390 1.363 . S
C391 C397 1.363 . S
C392 C393 1.363 . S
C392 C397 1.379 1_455 S
C392 N399 1.356 . S
C393 C392 1.363 . S
C393 C396 1.363 . S
N394 C396 1.356 . S
N394 H406 0.984 . S
N394 H407 0.985 . S
N395 C397 1.356 . S
N395 H400 0.984 . S
N395 H401 0.985 . S
C396 C390 1.379 1_455 S
C396 C393 1.363 . S
C396 N394 1.356 . S
C397 C391 1.363 . S
C397 C392 1.379 1_655 S
C397 N395 1.356 . S
N398 C390 1.356 . S
N398 H404 0.984 . S
N398 H405 0.984 . S
N399 C392 1.356 . S
N399 H402 0.984 . S
N399 H403 0.985 . S
H400 N395 0.984 . S
H401 N395 0.985 . S
H402 N399 0.984 . S
H403 N399 0.985 . S
H404 N398 0.984 . S
H405 N398 0.984 . S
H406 N394 0.984 . S
H407 N394 0.985 . S
C408 C409 1.363 . S
C408 C414 1.379 1_554 S
C408 N416 1.356 . S
C409 C408 1.363 . S
C409 C415 1.363 1_565 S
C410 C411 1.363 . S
C410 C415 1.379 1_556 S
C410 N417 1.356 . S
C411 C410 1.363 . S
C411 C414 1.363 1_545 S
N412 C414 1.353 . S
N412 H424 1.002 . S
N412 H425 0.971 1_565 S
N413 C415 1.353 . S
N413 H418 0.970 1_545 S
N413 H419 1.003 . S
C414 C408 1.379 1_556 S
C414 C411 1.363 1_565 S
C414 N412 1.353 . S
C415 C409 1.363 1_545 S
C415 C410 1.379 1_554 S
C415 N413 1.353 . S
N416 C408 1.356 . S
N416 H422 0.984 . S
N416 H423 0.984 . S
N417 C410 1.356 . S
N417 H420 0.984 . S
N417 H421 0.985 . S
H418 N413 0.970 1_565 S
H419 N413 1.003 . S
H420 N417 0.984 . S
H421 N417 0.985 . S
H422 N416 0.984 . S
H423 N416 0.984 . S
H424 N412 1.002 . S
H425 N412 0.971 1_545 S
C426 C427 1.363 . S
C426 C432 1.379 . S
C426 N434 1.356 . S
C427 C426 1.363 . S
C427 C433 1.363 . S
C428 C429 1.363 . S
C428 C433 1.379 . S
C428 N435 1.356 . S
C429 C428 1.363 . S
C429 C432 1.363 . S
N430 C432 1.356 . S
N430 H442 0.984 . S
N430 H443 0.985 . S
N431 C433 1.356 . S
N431 H436 0.984 . S
N431 H437 0.985 . S
C432 C426 1.379 . S
C432 C429 1.363 . S
C432 N430 1.356 . S
C433 C427 1.363 . S
C433 C428 1.379 . S
C433 N431 1.356 . S
N434 C426 1.356 . S
N434 H440 0.984 . S
N434 H441 0.984 . S
N435 C428 1.356 . S
N435 H438 0.984 . S
N435 H439 0.985 . S
H436 N431 0.984 . S
H437 N431 0.985 . S
H438 N435 0.984 . S
H439 N435 0.985 . S
H440 N434 0.984 . S
H441 N434 0.984 . S
H442 N430 0.984 . S
H443 N430 0.985 . S
C444 C445 1.366 1_655 S
C444 C450 1.377 . S
C444 N452 1.356 1_655 S
C445 C444 1.366 1_455 S
C445 C451 1.363 . S
C446 C447 1.366 1_455 S
C446 C451 1.377 . S
C446 N453 1.356 1_455 S
C447 C446 1.366 1_655 S
C447 C450 1.363 . S
N448 C450 1.356 . S
N448 H460 0.984 . S
N448 H461 0.985 . S
N449 C451 1.356 . S
N449 H454 0.984 . S
N449 H455 0.985 . S
C450 C444 1.377 . S
C450 C447 1.363 . S
C450 N448 1.356 . S
C451 C445 1.363 . S
C451 C446 1.377 . S
C451 N449 1.356 . S
N452 C444 1.356 1_455 S
N452 H458 0.984 1_455 S
N452 H459 0.984 . S
N453 C446 1.356 1_655 S
N453 H456 0.984 . S
N453 H457 0.985 1_655 S
H454 N449 0.984 . S
H455 N449 0.985 . S
H456 N453 0.984 . S
H457 N453 0.985 1_455 S
H458 N452 0.984 1_655 S
H459 N452 0.984 . S
H460 N448 0.984 . S
H461 N448 0.985 . S
C462 C463 1.363 . S
C462 C468 1.379 1_565 S
C462 N470 1.356 . S
C463 C462 1.363 . S
C463 C469 1.363 . S
C464 C465 1.363 . S
C464 C469 1.379 1_545 S
C464 N471 1.356 . S
C465 C464 1.363 . S
C465 C468 1.363 . S
N466 C468 1.356 . S
N466 H478 0.984 1_545 S
N466 H479 0.985 . S
N467 C469 1.356 . S
N467 H472 0.984 . S
N467 H473 0.985 1_565 S
C468 C462 1.379 1_545 S
C468 C465 1.363 . S
C468 N466 1.356 . S
C469 C463 1.363 . S
C469 C464 1.379 1_565 S
C469 N467 1.356 . S
N470 C462 1.356 . S
N470 H476 0.984 . S
N470 H477 0.984 . S
N471 C464 1.356 . S
N471 H474 0.984 . S
N471 H475 0.985 . S
H472 N467 0.984 . S
H473 N467 0.985 1_545 S
H474 N471 0.984 . S
H475 N471 0.985 . S
H476 N470 0.984 . S
H477 N470 0.984 . S
H478 N466 0.984 1_565 S
H479 N466 0.985 . S
C480 C481 1.363 . S
C480 C486 1.379 . S
C480 N488 1.356 . S
C481 C480 1.363 . S
C481 C487 1.363 . S
C482 C483 1.363 . S
C482 C487 1.379 . S
C482 N489 1.356 . S
C483 C482 1.363 . S
C483 C486 1.363 . S
N484 C486 1.356 . S
N484 H496 0.984 . S
N484 H497 0.985 . S
N485 C487 1.356 . S
N485 H490 0.984 . S
N485 H491 0.985 . S
C486 C480 1.379 . S
C486 C483 1.363 . S
C486 N484 1.356 . S
C487 C481 1.363 . S
C487 C482 1.379 . S
C487 N485 1.356 . S
N488 C480 1.356 . S
N488 H494 0.984 . S
N488 H495 0.984 . S
N489 C482 1.356 . S
N489 H492 0.984 . S
N489 H493 0.985 . S
H490 N485 0.984 . S
H491 N485 0.985 . S
H492 N489 0.984 . S
H493 N489 0.985 . S
H494 N488 0.984 . S
H495 N488 0.984 . S
H496 N484 0.984 . S
H497 N484 0.985 . S
C498 C499 1.363 . S
C498 C504 1.379 . S
C498 N506 1.356 . S
C499 C498 1.363 . S
C499 C505 1.363 . S
C500 C501 1.363 . S
C500 C505 1.379 . S
C500 N507 1.356 . S
C501 C500 1.363 . S
C501 C504 1.363 . S
N502 C504 1.356 . S
N502 H514 0.984 . S
N502 H515 0.985 . S
N503 C505 1.356 . S
N503 H508 0.984 . S
N503 H509 0.985 . S
C504 C498 1.379 . S
C504 C501 1.363 . S
C504 N502 1.356 . S
C505 C499 1.363 . S
C505 C500 1.379 . S
C505 N503 1.356 . S
N506 C498 1.356 . S
N506 H512 0.984 . S
N506 H513 0.984 . S
N507 C500 1.356 . S
N507 H510 0.984 . S
N507 H511 0.985 . S
H508 N503 0.984 . S
H509 N503 0.985 . S
H510 N507 0.984 . S
H511 N507 0.985 . S
H512 N506 0.984 . S
H513 N506 0.984 . S
H514 N502 0.984 . S
H515 N502 0.985 . S
C516 C517 1.363 . S
C516 C522 1.379 . S
C516 N524 1.356 1_556 S
C517 C516 1.363 . S
C517 C523 1.363 . S
C518 C519 1.363 . S
C518 C523 1.379 . S
C518 N525 1.356 . S
C519 C518 1.363 . S
C519 C522 1.363 . S
N520 C522 1.356 . S
N520 H532 0.984 . S
N520 H533 0.985 . S
N521 C523 1.356 . S
N521 H526 0.984 . S
N521 H527 0.985 . S
C522 C516 1.379 . S
C522 C519 1.363 . S
C522 N520 1.356 . S
C523 C517 1.363 . S
C523 C518 1.379 . S
C523 N521 1.356 . S
N524 C516 1.356 1_554 S
N524 H530 0.984 . S
N524 H531 0.984 . S
N525 C518 1.356 . S
N525 H528 0.984 . S
N525 H529 0.985 . S
H526 N521 0.984 . S
H527 N521 0.985 . S
H528 N525 0.984 . S
H529 N525 0.985 . S
H530 N524 0.984 . S
H531 N524 0.984 . S
H532 N520 0.984 . S
H533 N520 0.985 . S
C534 C535 1.363 . S
C534 C540 1.379 . S
C534 N542 1.356 . S
C535 C534 1.363 . S
C535 C541 1.363 . S
C536 C537 1.363 . S
C536 C541 1.379 . S
C536 N543 1.356 1_554 S
C537 C536 1.363 . S
C537 C540 1.363 . S
N538 C540 1.356 . S
N538 H550 0.984 . S
N538 H551 0.985 . S
N539 C541 1.356 . S
N539 H544 0.984 . S
N539 H545 0.985 . S
C540 C534 1.379 . S
C540 C537 1.363 . S
C540 N538 1.356 . S
C541 C535 1.363 . S
C541 C536 1.379 . S
C541 N539 1.356 . S
N542 C534 1.356 . S
N542 H548 0.984 . S
N542 H549 0.984 . S
N543 C536 1.356 1_556 S
N543 H546 0.984 . S
N543 H547 0.985 . S
H544 N539 0.984 . S
H545 N539 0.985 . S
H546 N543 0.984 . S
H547 N543 0.985 . S
H548 N542 0.984 . S
H549 N542 0.984 . S
H550 N538 0.984 . S
H551 N538 0.985 . S
C552 C553 1.363 . S
C552 C558 1.379 . S
C552 N560 1.356 . S
C553 C552 1.363 . S
C553 C559 1.363 . S
C554 C555 1.363 . S
C554 C559 1.379 . S
C554 N561 1.356 . S
C555 C554 1.363 . S
C555 C558 1.363 . S
N556 C558 1.356 . S
N556 H568 0.984 . S
N556 H569 0.985 . S
N557 C559 1.356 . S
N557 H562 0.984 . S
N557 H563 0.985 . S
C558 C552 1.379 . S
C558 C555 1.363 . S
C558 N556 1.356 . S
C559 C553 1.363 . S
C559 C554 1.379 . S
C559 N557 1.356 . S
N560 C552 1.356 . S
N560 H566 0.984 . S
N560 H567 0.984 . S
N561 C554 1.356 . S
N561 H564 0.984 . S
N561 H565 0.985 . S
H562 N557 0.984 . S
H563 N557 0.985 . S
H564 N561 0.984 . S
H565 N561 0.985 . S
H566 N560 0.984 . S
H567 N560 0.984 . S
H568 N556 0.984 . S
H569 N556 0.985 . S
C570 C571 1.363 . S
C570 C576 1.379 . S
C570 N578 1.356 . S
C571 C570 1.363 . S
C571 C577 1.363 . S
C572 C573 1.363 . S
C572 C577 1.379 . S
C572 N579 1.356 . S
C573 C572 1.363 . S
C573 C576 1.363 . S
N574 C576 1.356 . S
N574 H586 0.984 . S
N574 H587 0.985 . S
N575 C577 1.356 . S
N575 H580 0.984 . S
N575 H581 0.985 . S
C576 C570 1.379 . S
C576 C573 1.363 . S
C576 N574 1.356 . S
C577 C571 1.363 . S
C577 C572 1.379 . S
C577 N575 1.356 . S
N578 C570 1.356 . S
N578 H584 0.984 . S
N578 H585 0.984 . S
N579 C572 1.356 . S
N579 H582 0.984 . S
N579 H583 0.985 . S
H580 N575 0.984 . S
H581 N575 0.985 . S
H582 N579 0.984 . S
H583 N579 0.985 . S
H584 N578 0.984 . S
H585 N578 0.984 . S
H586 N574 0.984 . S
H587 N574 0.985 . S
C157 C122 1.410 . S
C159 C5 1.410 . S
C175 C18 1.410 . S
C177 C135 1.410 . S
C193 C148 1.410 . S
C195 C31 1.410 . S
C211 C83 1.410 . S
C213 C44 1.410 . S
C229 C96 1.410 . S
C231 C57 1.410 . S
C247 C109 1.410 . S
C249 C70 1.410 . S
C265 C88 1.458 . S
C267 C10 1.458 . S
C283 C23 1.458 . S
C285 C101 1.458 . S
C301 C114 1.458 . S
C303 C36 1.458 . S
C319 C49 1.458 . S
C321 C127 1.458 . S
C337 C140 1.458 . S
C339 C62 1.458 . S
C355 C75 1.458 . S
C357 C153 1.458 . S
C373 C125 1.148 . S
C375 C8 1.148 . S
C391 C138 1.148 . S
C393 C21 1.148 . S
C409 C151 1.148 . S
C411 C34 1.148 . S
C427 C47 1.148 . S
C429 C86 1.148 . S
C445 C99 1.148 . S
C447 C60 1.148 . S
C463 C73 1.148 . S
C465 C112 1.148 . S
C481 C0 1.421 . S
C483 C104 1.421 . S
C499 C117 1.421 . S
C501 C13 1.421 . S
C517 C130 1.421 1_556 S
C519 C26 1.421 . S
C535 C143 1.421 . S
C537 C39 1.421 1_554 S
C553 C78 1.421 . S
C555 C52 1.421 . S
C571 C91 1.421 . S
C573 C65 1.421 . S
