# Generated by pormake.
# Topology sra, (4)-cn, num edge types: 1
# Building blocks:
#     Node 0, Type 0, BuildingBlock: KUFVIS_clean_sbu_0, # of connection points: 4
#     Node 1, Type 0, BuildingBlock: KUFVIS_clean_sbu_0, # of connection points: 4
#     Node 2, Type 0, BuildingBlock: KUFVIS_clean_sbu_0, # of connection points: 4
#     Node 3, Type 0, BuildingBlock: KUFVIS_clean_sbu_0, # of connection points: 4
#     Node 4, Type 0, BuildingBlock: KUFVIS_clean_sbu_0, # of connection points: 4
#     Node 5, Type 0, BuildingBlock: KUFVIS_clean_sbu_0, # of connection points: 4
#     Node 6, Type 0, BuildingBlock: KUFVIS_clean_sbu_0, # of connection points: 4
#     Node 7, Type 0, BuildingBlock: KUFVIS_clean_sbu_0, # of connection points: 4
#     Edge 8, Type (0, 0), BuildingBlock: CIFDUS_clean_linker_0, # of connection points: 2
#     Edge 9, Type (0, 0), BuildingBlock: CIFDUS_clean_linker_0, # of connection points: 2
#     Edge 10, Type (0, 0), BuildingBlock: CIFDUS_clean_linker_0, # of connection points: 2
#     Edge 11, Type (0, 0), BuildingBlock: CIFDUS_clean_linker_0, # of connection points: 2
#     Edge 12, Type (0, 0), BuildingBlock: CIFDUS_clean_linker_0, # of connection points: 2
#     Edge 13, Type (0, 0), BuildingBlock: CIFDUS_clean_linker_0, # of connection points: 2
#     Edge 14, Type (0, 0), BuildingBlock: CIFDUS_clean_linker_0, # of connection points: 2
#     Edge 15, Type (0, 0), BuildingBlock: CIFDUS_clean_linker_0, # of connection points: 2
#     Edge 16, Type (0, 0), BuildingBlock: CIFDUS_clean_linker_0, # of connection points: 2
#     Edge 17, Type (0, 0), BuildingBlock: CIFDUS_clean_linker_0, # of connection points: 2
#     Edge 18, Type (0, 0), BuildingBlock: CIFDUS_clean_linker_0, # of connection points: 2
#     Edge 19, Type (0, 0), BuildingBlock: CIFDUS_clean_linker_0, # of connection points: 2
#     Edge 20, Type (0, 0), BuildingBlock: CIFDUS_clean_linker_0, # of connection points: 2
#     Edge 21, Type (0, 0), BuildingBlock: CIFDUS_clean_linker_0, # of connection points: 2
#     Edge 22, Type (0, 0), BuildingBlock: CIFDUS_clean_linker_0, # of connection points: 2
#     Edge 23, Type (0, 0), BuildingBlock: CIFDUS_clean_linker_0, # of connection points: 2
# Relax obj value: 0.055
# Max RMSD: 0.084
# Mean RMSD: 0.084
data_MOF--net-sra--node1-KUFVIS_clean_sbu_0--edge1-CIFDUS_clean_linker_0
_symmetry_space_group_name_H-M    P1
_symmetry_Int_Tables_number       1
_symmetry_cell_setting            triclinic
loop_
_symmetry_equiv_pos_as_xyz
'x, y, z'
_cell_length_a     23.301847
_cell_length_b     45.423805
_cell_length_c     29.13879
_cell_angle_alpha  89.755728
_cell_angle_beta   90.190209
_cell_angle_gamma 89.975426
loop_
_atom_site_label
_atom_site_type_symbol
_atom_site_fract_x
_atom_site_fract_y
_atom_site_fract_z
_atom_type_partial_charge
Mn0 Mn 0.98168 0.13681 0.15572 0.0
Mn1 Mn 0.98643 0.07093 0.20924 0.0
C2 C 0.8988 0.11736 0.18793 0.0
C3 C 0.99155 0.18807 0.15537 0.0
C4 C 0.9935 0.07859 0.10558 0.0
O5 O 0.06729 0.13016 0.1683 0.0
O6 O 0.06284 0.09001 0.21454 0.0
C7 C 0.00449 0.08806 0.30624 0.0
N8 N 0.97316 0.07372 0.27378 0.0
C9 C 0.90742 0.05543 0.33073 0.0
C10 C 0.93952 0.06966 0.36484 0.0
C11 C 0.98813 0.08614 0.3525 0.0
C12 C 0.92622 0.05786 0.28527 0.0
H13 H 0.04131 0.10103 0.2968 0.0
C14 C 0.09008 0.11145 0.19586 0.0
O15 O -0.00302 0.17261 0.11833 0.0
O16 O 0.982 0.17367 0.1932 0.0
N17 N 0.91425 0.05105 0.20673 0.0
C18 C 0.88464 0.04149 0.16925 0.0
C19 C 0.83304 0.02616 0.17531 0.0
C20 C 0.81257 0.02081 0.21976 0.0
C21 C 0.84334 0.03108 0.25783 0.0
C22 C 0.89482 0.04601 0.24969 0.0
H23 H 0.90011 0.04555 0.13497 0.0
O24 O 0.89555 0.13716 0.15573 0.0
O25 O 0.95032 0.10957 0.20001 0.0
O26 O 0.98265 0.10603 0.10486 0.0
O27 O -0.00034 0.06406 0.14287 0.0
C28 C 0.82438 0.02766 0.3034 0.0
C29 C 0.85643 0.03981 0.33985 0.0
H30 H 0.92668 0.06851 0.4005 0.0
H31 H 0.01274 0.09748 0.37855 0.0
H32 H 0.80911 0.01844 0.14582 0.0
H33 H 0.77308 1.00892 0.22415 0.0
H34 H 0.78469 0.01619 0.31073 0.0
H35 H 0.84082 0.03757 0.37466 0.0
Mn36 Mn 0.00025 0.41455 0.17798 0.0
Mn37 Mn 0.00267 0.48247 0.22509 0.0
C38 C 0.08592 0.43401 0.20427 0.0
C39 C 0.99096 0.36334 0.18335 0.0
C40 C 0.99414 0.4724 0.12266 0.0
O41 O 0.91677 0.42092 0.19461 0.0
O42 O 0.9239 0.46638 0.22499 0.0
C43 C 0.97173 0.46563 0.32019 0.0
N44 N 0.00797 0.47932 0.29038 0.0
C45 C 0.06688 0.49703 0.35234 0.0
C46 C 0.03008 0.48322 0.38374 0.0
C47 C 0.98244 0.46734 0.36756 0.0
C48 C 0.0542 0.49441 0.30555 0.0
H49 H 0.93494 0.45351 0.30792 0.0
C50 C 0.8952 0.44353 0.21373 0.0
O51 O 0.98211 0.37728 0.14499 0.0
O52 O 0.00381 0.37921 0.21885 0.0
N53 N 0.07613 0.501 0.22829 0.0
C54 C 0.10779 0.51261 0.19344 0.0
C55 C 0.15582 0.53001 0.20377 0.0
C56 C 0.17099 0.53512 0.24977 0.0
C57 C 0.13835 0.52255 0.28502 0.0
C58 C 0.09001 0.50611 0.27265 0.0
H59 H 0.09573 0.50919 0.15805 0.0
O60 O 0.08505 0.41398 0.17261 0.0
O61 O 0.03609 0.44281 0.21894 0.0
O62 O 0.99411 0.44432 0.12474 0.0
O63 O -0.00226 0.48864 0.15815 0.0
C64 C 0.1514 0.52602 0.33194 0.0
C65 C 0.11598 0.51303 0.36559 0.0
H66 H 0.03816 0.48452 0.42031 0.0
H67 H 0.95395 0.45654 0.39156 0.0
H68 H 0.18096 0.5396 0.17635 0.0
H69 H 0.208 0.54865 0.25759 0.0
H70 H 0.18872 0.5385 0.34253 0.0
H71 H 0.12681 0.51553 0.40154 0.0
Mn72 Mn 0.99557 0.90868 0.8426 0.0
Mn73 Mn -0.00028 0.97388 0.78624 0.0
C74 C 0.91268 0.92753 0.80967 0.0
C75 C 0.00396 0.85753 0.84728 0.0
C76 C -0.00036 0.9692 0.88983 0.0
O77 O 0.08048 0.91325 0.829 0.0
O78 O 0.07788 0.95727 0.7929 0.0
C79 C 0.0379 0.95158 0.6959 0.0
N80 N -0.00012 0.96723 0.72152 0.0
C81 C 0.94722 0.98204 0.65411 0.0
C82 C 0.98597 0.96622 0.62697 0.0
C83 C 0.03136 0.95082 0.64799 0.0
C84 C 0.95581 0.98189 0.70169 0.0
H85 H 0.07295 0.93979 0.71188 0.0
C86 C 0.10449 0.93468 0.80832 0.0
O87 O 0.01037 0.8742 0.88292 0.0
O88 O 0.99364 0.8706 0.80835 0.0
N89 N 0.92753 0.99279 0.77627 0.0
C90 C 0.89312 1.00625 0.80749 0.0
C91 C 0.84654 0.02323 0.79208 0.0
C92 C 0.83561 0.02599 0.74478 0.0
C93 C 0.87104 1.01156 0.71336 0.0
C94 C 0.91778 0.99565 0.73069 0.0
H95 H 0.90191 1.0046 0.84382 0.0
O96 O 0.91041 0.9092 0.84395 0.0
O97 O 0.96389 0.93491 0.79592 0.0
O98 O -0.00087 0.94117 0.89114 0.0
O99 O -0.00084 0.98379 0.85231 0.0
C100 C 0.86218 1.01259 0.66552 0.0
C101 C 0.89998 0.99762 0.63593 0.0
H102 H 0.98107 0.96558 0.59 0.0
H103 H 0.06131 0.93846 0.6273 0.0
H104 H 0.81955 0.03444 0.81659 0.0
H105 H 0.80015 0.03944 0.73289 0.0
H106 H 0.82617 0.02463 0.65116 0.0
H107 H 0.89231 0.99823 0.59925 0.0
Mn108 Mn 0.01682 0.63077 0.84182 0.0
Mn109 Mn 0.01064 0.56291 0.79598 0.0
C110 C 0.10159 0.60665 0.82342 0.0
C111 C 0.01374 0.68186 0.8331 0.0
C112 C 0.9944 0.57468 0.89763 0.0
O113 O 0.9334 0.62748 0.8215 0.0
O114 O 0.93613 0.5835 0.78666 0.0
C115 C 0.00015 0.57966 0.69797 0.0
N116 N 0.0274 0.56439 0.73195 0.0
C117 C 0.08895 0.54037 0.67763 0.0
C118 C 0.06156 0.5558 0.64196 0.0
C119 C 0.01724 0.57569 0.65223 0.0
C120 C 0.0709 0.54573 0.72256 0.0
H121 H 0.96554 0.59464 0.70576 0.0
C122 C 0.90995 0.60716 0.79798 0.0
O123 O 0.00095 0.66922 0.87179 0.0
O124 O 0.02809 0.6648 0.79941 0.0
N125 N 0.07901 0.54004 0.8017 0.0
C126 C 0.10215 0.52776 0.84028 0.0
C127 C 0.14537 0.50648 0.83614 0.0
C128 C 0.164 0.49792 0.79244 0.0
C129 C 0.14108 0.51163 0.75321 0.0
C130 C 0.09764 0.53246 0.7595 0.0
H131 H 0.08668 0.53353 0.87392 0.0
O132 O 0.10091 0.62821 0.85251 0.0
O133 O 0.05223 0.60016 0.80477 0.0
O134 O 0.00291 0.60241 0.89574 0.0
O135 O 0.99407 0.55835 0.8621 0.0
C136 C 0.1584 0.50498 0.70809 0.0
C137 C 0.13315 0.51975 0.6704 0.0
H138 H 0.07419 0.55254 0.6066 0.0
H139 H 0.99592 0.58769 0.62491 0.0
H140 H 0.16323 0.49613 0.86651 0.0
H141 H 0.19523 0.48043 0.78969 0.0
H142 H 0.19108 0.48856 0.70183 0.0
H143 H 0.14755 0.51482 0.63597 0.0
Mn144 Mn 0.48201 0.62263 0.66386 0.0
Mn145 Mn 0.4774 0.5588 0.72373 0.0
C146 C 0.3939 0.60395 0.68781 0.0
C147 C 0.49301 0.67426 0.66519 0.0
C148 C 0.49347 0.56129 0.62038 0.0
O149 O 0.56553 0.61669 0.6838 0.0
O150 O 0.55562 0.57564 0.72672 0.0
C151 C 0.49514 0.58287 0.81699 0.0
N152 N 0.46362 0.56649 0.78709 0.0
C153 C 0.39826 0.55184 0.84667 0.0
C154 C 0.4301 0.56845 0.87823 0.0
C155 C 0.47859 0.58415 0.86326 0.0
C156 C 0.4166 0.5516 0.801 0.0
H157 H 0.53262 0.59478 0.80556 0.0
C158 C 0.58574 0.59658 0.70998 0.0
O159 O 0.50271 0.6593 0.62807 0.0
O160 O 0.4775 0.65927 0.70092 0.0
N161 N 0.40493 0.53944 0.72405 0.0
C162 C 0.37733 0.52594 0.68865 0.0
C163 C 0.3281 0.50922 0.69759 0.0
C164 C 0.30825 0.50642 0.74279 0.0
C165 C 0.33658 0.52098 0.77856 0.0
C166 C 0.38587 0.53699 0.76764 0.0
H167 H 0.39324 0.52757 0.65398 0.0
O168 O 0.39696 0.62324 0.65497 0.0
O169 O 0.44267 0.59669 0.70676 0.0
O170 O 0.48967 0.58932 0.61536 0.0
O171 O 0.4907 0.54845 0.65934 0.0
C172 C 0.31811 0.52018 0.82457 0.0
C173 C 0.34868 0.53579 0.85855 0.0
H174 H 0.41753 0.56945 0.91394 0.0
H175 H 0.50327 0.59709 0.88736 0.0
H176 H 0.30608 0.49808 0.66989 0.0
H177 H 0.27184 0.49262 0.74961 0.0
H178 H 0.28015 0.50791 0.83414 0.0
H179 H 0.33353 0.53543 0.89365 0.0
Mn180 Mn 0.52169 0.90196 0.65574 0.0
Mn181 Mn 0.52145 0.96208 0.72415 0.0
C182 C 0.6062 0.91812 0.69024 0.0
C183 C 0.512 0.85062 0.64653 0.0
C184 C 0.51738 0.96611 0.62013 0.0
O185 O 0.43674 0.90626 0.67162 0.0
O186 O 0.44352 0.94589 0.71731 0.0
C187 C 0.48757 0.93272 0.81097 0.0
N188 N 0.5245 0.95024 0.78713 0.0
C189 C 0.58057 0.95952 0.855 0.0
C190 C 0.54294 0.94175 0.88034 0.0
C191 C 0.49637 0.9282 0.85817 0.0
C192 C 0.56956 0.96325 0.80806 0.0
H193 H 0.45166 0.92228 0.79414 0.0
C194 C 0.41465 0.92527 0.6985 0.0
O195 O 0.50522 0.8687 0.61226 0.0
O196 O 0.52358 0.86239 0.68591 0.0
N197 N 0.59441 0.97989 0.73507 0.0
C198 C 0.62914 0.9944 0.70504 0.0
C199 C 0.67834 1.00871 0.72158 0.0
C200 C 0.69091 1.00806 0.76876 0.0
C201 C 0.65509 0.99266 0.79885 0.0
C202 C 0.60634 0.97914 0.78052 0.0
H203 H 0.61917 0.99516 0.66884 0.0
O204 O 0.60778 0.90202 0.65357 0.0
O205 O 0.55543 0.92453 0.70542 0.0
O206 O 0.51756 0.93835 0.61242 0.0
O207 O 0.51896 0.97692 0.66049 0.0
C208 C 0.66628 0.98992 0.84624 0.0
C209 C 0.62917 0.97324 0.87427 0.0
H210 H 0.54969 0.93813 0.91673 0.0
H211 H 0.46728 0.91433 0.87744 0.0
H212 H 0.70613 0.02044 0.69812 0.0
H213 H 0.72788 0.01954 0.78184 0.0
H214 H 0.70383 1.00014 0.86131 0.0
H215 H 0.63873 0.97083 0.9105 0.0
Mn216 Mn 0.4757 0.40102 0.35636 0.0
Mn217 Mn 0.47556 0.46057 0.28603 0.0
C218 C 0.39182 0.41633 0.32068 0.0
C219 C 0.48645 0.34987 0.36663 0.0
C220 C 0.47546 0.46568 0.38953 0.0
O221 O 0.56058 0.40577 0.34199 0.0
O222 O 0.55404 0.44607 0.2972 0.0
C223 C 0.51712 0.43008 0.20278 0.0
N224 N 0.4774 0.44735 0.22385 0.0
C225 C 0.42418 0.45321 0.15354 0.0
C226 C 0.46472 0.43566 0.13101 0.0
C227 C 0.51129 0.42397 0.1558 0.0
C228 C 0.43238 0.45862 0.20039 0.0
H229 H 0.55301 0.42101 0.22162 0.0
C230 C 0.58302 0.42575 0.31699 0.0
O231 O 0.49213 0.36796 0.40082 0.0
O232 O 0.47539 0.36157 0.32699 0.0
N233 N 0.40237 0.47696 0.27089 0.0
C234 C 0.36496 0.49166 0.29836 0.0
C235 C 0.31498 0.50384 0.27909 0.0
C236 C 0.30461 0.50108 0.23178 0.0
C237 C 0.34386 0.48614 0.20419 0.0
C238 C 0.39296 0.47455 0.22521 0.0
H239 H 0.37301 0.49384 0.3347 0.0
O240 O 0.38988 0.40045 0.35776 0.0
O241 O 0.44258 0.42291 0.30558 0.0
O242 O 0.47805 0.43797 0.39812 0.0
O243 O 0.47289 0.47627 0.34889 0.0
C244 C 0.33533 0.4816 0.15684 0.0
C245 C 0.37542 0.46508 0.13154 0.0
H246 H 0.46022 0.43081 0.09481 0.0
H247 H 0.54262 0.41029 0.13873 0.0
H248 H 0.28459 0.51528 0.30061 0.0
H249 H 0.26631 0.51024 0.21671 0.0
H250 H 0.29754 0.49027 0.13974 0.0
H251 H 0.36796 0.46131 0.09533 0.0
Mn252 Mn 0.51322 0.12228 0.34455 0.0
Mn253 Mn 0.50457 0.06033 0.28212 0.0
C254 C 0.59597 0.10389 0.31021 0.0
C255 C 0.50363 0.1739 0.3453 0.0
C256 C 0.49798 0.06156 0.38682 0.0
O257 O 0.42746 0.11715 0.33221 0.0
O258 O 0.43014 0.08159 0.2783 0.0
C259 C 0.48977 0.08337 0.18756 0.0
N260 N 0.5191 0.0664 0.21831 0.0
C261 C 0.58109 0.04788 0.15917 0.0
C262 C 0.5514 0.06508 0.12682 0.0
C263 C 0.50575 0.08302 0.14114 0.0
C264 C 0.5635 0.0493 0.205 0.0
H265 H 0.45471 0.09713 0.19846 0.0
C266 C 0.40394 0.1016 0.30093 0.0
O267 O 0.49917 0.15852 0.38288 0.0
O268 O 0.51324 0.1593 0.30809 0.0
N269 N 0.57428 0.03809 0.28252 0.0
C270 C 0.60052 0.02418 0.31842 0.0
C271 C 0.64679 1.00522 0.31006 0.0
C272 C 0.66546 1.00066 0.26493 0.0
C273 C 0.63897 0.01588 0.2286 0.0
C274 C 0.5926 0.03424 0.23901 0.0
H275 H 0.58567 0.02701 0.35312 0.0
O276 O 0.59912 0.12207 0.34439 0.0
O277 O 0.54422 0.09704 0.29734 0.0
O278 O 0.51156 0.08859 0.39246 0.0
O279 O 0.48972 0.05038 0.34719 0.0
C280 C 0.65627 1.01335 0.18247 0.0
C281 C 0.62778 0.02961 0.14786 0.0
H282 H 0.56353 0.06484 0.09097 0.0
H283 H 0.48281 0.09647 0.11642 0.0
H284 H 0.66737 0.99373 0.33826 0.0
H285 H 0.69988 0.98522 0.25871 0.0
H286 H 0.69168 0.99915 0.17321 0.0
H287 H 0.64213 0.02788 0.11266 0.0
H288 H 0.99252 0.32457 0.11269 0.0
H289 H 0.98621 0.32896 0.26042 0.0
H290 H 0.98611 0.27516 0.26515 0.0
H291 H 0.98828 0.22669 0.22711 0.0
H292 H -0.00185 0.22288 0.07934 0.0
H293 H -0.00322 0.27646 0.07494 0.0
C294 C 0.99078 0.31377 0.14592 0.0
C295 C 0.98901 0.33076 0.18611 0.0
C296 C 0.99177 0.28285 0.14841 0.0
C297 C 0.98751 0.31639 0.22892 0.0
C298 C 0.98752 0.28562 0.23166 0.0
C299 C 0.99032 0.2376 0.19398 0.0
C300 C 0.99329 0.22071 0.15365 0.0
C301 C 0.98983 0.26859 0.19163 0.0
C302 C 0.996 0.23525 0.11099 0.0
C303 C 0.99504 0.26595 0.10838 0.0
H304 H 0.00866 0.81682 0.77865 0.0
H305 H 0.00489 0.82533 0.9261 0.0
H306 H 0.00655 0.77194 0.93464 0.0
H307 H 0.00859 0.72273 0.90056 0.0
H308 H 0.01614 0.71369 0.7534 0.0
H309 H 0.01346 0.76725 0.74445 0.0
C310 C 0.00826 0.80696 0.81261 0.0
C311 C 0.00653 0.82506 0.85164 0.0
C312 C 0.00981 0.77611 0.81737 0.0
C313 C 0.00636 0.81195 0.89544 0.0
C314 C 0.00717 0.78138 0.90041 0.0
C315 C 0.00952 0.73247 0.86652 0.0
C316 C 0.01229 0.71426 0.82772 0.0
C317 C 0.00877 0.76325 0.86166 0.0
C318 C 0.01404 0.72724 0.78386 0.0
C319 C 0.01246 0.75786 0.7787 0.0
H320 H 0.496 0.71488 0.59459 0.0
H321 H 0.5028 0.70709 0.74218 0.0
H322 H 0.5095 0.76035 0.74923 0.0
H323 H 0.51238 0.80936 0.71425 0.0
H324 H 0.50228 0.81852 0.5671 0.0
H325 H 0.49765 0.76486 0.55919 0.0
C326 C 0.49926 0.72488 0.62822 0.0
C327 C 0.49902 0.70686 0.66778 0.0
C328 C 0.5022 0.75589 0.6322 0.0
C329 C 0.50273 0.72028 0.71112 0.0
C330 C 0.50658 0.75083 0.71525 0.0
C331 C 0.50916 0.79969 0.68038 0.0
C332 C 0.50777 0.81806 0.64135 0.0
C333 C 0.50609 0.76887 0.67612 0.0
C334 C 0.50332 0.80499 0.59779 0.0
C335 C 0.5008 0.77425 0.59323 0.0
H336 H 0.48291 0.3093 0.29903 0.0
H337 H 0.50039 0.31715 0.44583 0.0
H338 H 0.50573 0.26335 0.45301 0.0
H339 H 0.50555 0.21366 0.41682 0.0
H340 H 0.48977 0.20768 0.26944 0.0
H341 H 0.48336 0.26093 0.26348 0.0
C342 C 0.48793 0.29935 0.33271 0.0
C343 C 0.4912 0.31733 0.37182 0.0
C344 C 0.4911 0.26855 0.33651 0.0
C345 C 0.49785 0.30389 0.4151 0.0
C346 C 0.50079 0.27308 0.41921 0.0
C347 C 0.50045 0.22406 0.3835 0.0
C348 C 0.49812 0.20653 0.34366 0.0
C349 C 0.49738 0.25511 0.38009 0.0
C350 C 0.49189 0.22046 0.30071 0.0
C351 C 0.4882 0.25101 0.29717 0.0
H352 H 0.35881 0.10998 0.21642 0.0
H353 H 0.31388 0.1054 0.35961 0.0
H354 H 0.21186 0.10934 0.33955 0.0
H355 H 0.13606 0.11079 0.28082 0.0
H356 H 0.18063 0.11868 0.13793 0.0
H357 H 0.28297 0.11714 0.15814 0.0
C358 C 0.32661 0.11002 0.24314 0.0
C359 C 0.34333 0.10697 0.28933 0.0
C360 C 0.26844 0.11289 0.23134 0.0
C361 C 0.30163 0.10766 0.32387 0.0
C362 C 0.2435 0.10981 0.31238 0.0
C363 C 0.16819 0.11239 0.25419 0.0
C364 C 0.15119 0.11444 0.20796 0.0
C365 C 0.22647 0.11193 0.26619 0.0
C366 C 0.19303 0.11709 0.17372 0.0
C367 C 0.25134 0.11605 0.18528 0.0
H368 H 0.64574 0.46913 0.2793 0.0
H369 H 0.65807 0.37923 0.32711 0.0
H370 H 0.75554 0.37593 0.296 0.0
H371 H 0.8361 0.39865 0.25305 0.0
H372 H 0.82071 0.48857 0.20634 0.0
H373 H 0.72407 0.49146 0.23783 0.0
C374 C 0.66961 0.44875 0.28321 0.0
C375 C 0.64456 0.42442 0.30533 0.0
C376 C 0.7244 0.44683 0.26445 0.0
C377 C 0.67655 0.39837 0.31051 0.0
C378 C 0.73194 0.39637 0.29226 0.0
C379 C 0.81091 0.4186 0.24915 0.0
C380 C 0.83466 0.44326 0.22698 0.0
C381 C 0.7559 0.42035 0.26849 0.0
C382 C 0.80272 0.46932 0.223 0.0
C383 C 0.74783 0.47104 0.24127 0.0
H384 H 0.15795 0.89572 0.75333 0.0
H385 H 0.18578 0.97198 0.83799 0.0
H386 H 0.28441 0.97589 0.8103 0.0
H387 H 0.35949 0.95955 0.75962 0.0
H388 H 0.33385 0.88403 0.67222 0.0
H389 H 0.23643 0.87824 0.70265 0.0
C390 C 0.18641 0.91265 0.76638 0.0
C391 C 0.16579 0.93321 0.79826 0.0
C392 C 0.24236 0.91533 0.749 0.0
C393 C 0.20168 0.95572 0.81407 0.0
C394 C 0.2576 0.9581 0.7979 0.0
C395 C 0.33291 0.94178 0.7468 0.0
C396 C 0.35409 0.92236 0.7133 0.0
C397 C 0.27786 0.9384 0.76476 0.0
C398 C 0.31858 0.89946 0.69765 0.0
C399 C 0.26307 0.89602 0.7153 0.0
H400 H 0.65515 0.6412 0.74009 0.0
H401 H 0.65432 0.54931 0.70364 0.0
H402 H 0.75475 0.54472 0.72633 0.0
H403 H 0.84114 0.56589 0.75946 0.0
H404 H 0.84294 0.65707 0.80059 0.0
H405 H 0.74393 0.66281 0.77363 0.0
C406 C 0.67745 0.62037 0.73666 0.0
C407 C 0.64775 0.59564 0.72006 0.0
C408 C 0.73505 0.61764 0.75115 0.0
C409 C 0.67651 0.56859 0.71639 0.0
C410 C 0.73383 0.56593 0.72944 0.0
C411 C 0.82016 0.58711 0.76251 0.0
C412 C 0.84966 0.61096 0.78217 0.0
C413 C 0.76326 0.59017 0.74744 0.0
C414 C 0.82129 0.63823 0.78588 0.0
C415 C 0.76467 0.64157 0.7703 0.0
H416 H 0.71448 0.93034 0.66124 0.0
H417 H 0.61552 0.91025 0.78177 0.0
H418 H 0.69982 0.91744 0.83039 0.0
H419 H 0.80281 0.92718 0.83828 0.0
H420 H 0.90609 0.93082 0.71649 0.0
H421 H 0.82015 0.93379 0.66858 0.0
C422 C 0.71155 0.92793 0.69821 0.0
C423 C 0.65819 0.92204 0.71849 0.0
C424 C 0.76123 0.92991 0.72559 0.0
C425 C 0.65538 0.91704 0.76597 0.0
C426 C 0.70373 0.92067 0.79366 0.0
C427 C 0.80635 0.92923 0.80129 0.0
C428 C 0.86077 0.93165 0.78107 0.0
C429 C 0.7569 0.92721 0.77386 0.0
C430 C 0.8648 0.93225 0.73301 0.0
C431 C 0.81553 0.93283 0.70555 0.0
H432 H 0.3623 0.60224 0.77725 0.0
H433 H 0.29667 0.59171 0.64013 0.0
H434 H 0.19869 0.58827 0.67 0.0
H435 H 0.13196 0.59566 0.73479 0.0
H436 H 0.19885 0.59905 0.87257 0.0
H437 H 0.29675 0.59736 0.84306 0.0
C438 C 0.327 0.59745 0.75419 0.0
C439 C 0.33696 0.59619 0.70675 0.0
C440 C 0.27112 0.59456 0.77175 0.0
C441 C 0.29012 0.59222 0.67691 0.0
C442 C 0.23413 0.5903 0.69396 0.0
C443 C 0.16764 0.59391 0.7585 0.0
C444 C 0.15789 0.59666 0.80589 0.0
C445 C 0.22398 0.59218 0.7413 0.0
C446 C 0.20519 0.59658 0.83596 0.0
C447 C 0.26121 0.5958 0.81911 0.0
H448 H 0.7066 0.1001 0.33744 0.0
H449 H 0.60018 0.1053 0.21702 0.0
H450 H 0.68437 0.1037 0.1678 0.0
H451 H 0.78965 0.10685 0.15931 0.0
H452 H 0.89332 0.11761 0.28051 0.0
H453 H 0.81033 0.10804 0.32922 0.0
C454 C 0.70202 0.10014 0.30037 0.0
C455 C 0.64691 0.0999 0.2807 0.0
C456 C 0.75092 0.10285 0.27255 0.0
C457 C 0.64166 0.10206 0.23279 0.0
C458 C 0.69009 0.10229 0.20467 0.0
C459 C 0.79394 0.10658 0.19639 0.0
C460 C 0.84815 0.11079 0.21646 0.0
C461 C 0.74507 0.10325 0.22418 0.0
C462 C 0.85275 0.11226 0.26442 0.0
C463 C 0.8051 0.10727 0.29227 0.0
H464 H 0.19447 0.42826 0.17421 0.0
H465 H 0.09515 0.44094 0.29659 0.0
H466 H 0.1821 0.44131 0.34319 0.0
H467 H 0.28646 0.43281 0.34979 0.0
H468 H 0.38025 0.40591 0.23005 0.0
H469 H 0.29561 0.41415 0.18187 0.0
C470 C 0.19215 0.43173 0.21098 0.0
C471 C 0.13891 0.43743 0.23152 0.0
C472 C 0.24151 0.4281 0.23806 0.0
C473 C 0.13606 0.43995 0.27946 0.0
C474 C 0.1857 0.43892 0.30631 0.0
C475 C 0.28815 0.42906 0.31308 0.0
C476 C 0.33996 0.42057 0.29273 0.0
C477 C 0.23862 0.43252 0.28604 0.0
C478 C 0.34135 0.41412 0.24572 0.0
C479 C 0.29295 0.41857 0.21832 0.0
H480 H 0.00199 0.01921 0.09236 0.0
H481 H 0.99158 0.10168 0.01848 0.0
H482 H 0.99308 0.07532 0.94571 0.0
H483 H 0.99568 0.02886 0.90277 0.0
H484 H 0.00532 0.94644 0.97694 0.0
H485 H 0.00573 0.97287 0.04952 0.0
C486 C 0.00039 0.03152 0.0604 0.0
C487 C -0.00327 0.06249 0.06121 0.0
C488 C 0.00091 0.01621 0.01851 0.0
C489 C 0.99436 0.07788 0.01919 0.0
C490 C 0.99518 0.06281 0.97742 0.0
C491 C -0.00197 0.01661 0.93475 0.0
C492 C 0.00045 0.98559 0.93404 0.0
C493 C -0.00185 0.03196 0.97664 0.0
C494 C 0.00333 0.97026 0.9761 0.0
C495 C 0.00361 0.98537 0.01779 0.0
H496 H 0.98665 0.51581 0.91609 0.0
H497 H 0.99068 0.60064 0.9825 0.0
H498 H 0.98972 0.57649 0.0575 0.0
H499 H 0.99159 0.53143 0.10426 0.0
H500 H 0.9888 0.44662 0.03773 0.0
H501 H 0.98559 0.47081 0.96282 0.0
C502 C 0.98682 0.52914 0.94687 0.0
C503 C 0.98881 0.56013 0.94333 0.0
C504 C 0.98692 0.51512 0.98999 0.0
C505 C 0.98917 0.57682 0.98389 0.0
C506 C 0.98878 0.56301 0.02691 0.0
C507 C 0.99008 0.51813 0.07347 0.0
C508 C 0.99063 0.48713 0.07695 0.0
C509 C 0.98834 0.53217 0.03036 0.0
C510 C 0.98855 0.47045 0.03639 0.0
C511 C 0.98668 0.48428 0.99342 0.0
H512 H 0.51047 0.45683 0.47829 0.0
H513 H 0.44243 0.52346 0.38716 0.0
H514 H 0.44497 0.55946 0.4489 0.0
H515 H 0.46453 0.57214 0.53001 0.0
H516 H 0.53403 0.50525 0.62008 0.0
H517 H 0.53342 0.46986 0.55786 0.0
C518 C 0.49595 0.47917 0.47195 0.0
C519 C 0.47598 0.48718 0.42805 0.0
C520 C 0.49813 0.50005 0.50756 0.0
C521 C 0.45802 0.51647 0.42053 0.0
C522 C 0.45951 0.53722 0.45588 0.0
C523 C 0.48028 0.54996 0.53581 0.0
C524 C 0.499 0.54153 0.57992 0.0
C525 C 0.47948 0.52932 0.49966 0.0
C526 C 0.51888 0.51249 0.5867 0.0
C527 C 0.51849 0.49207 0.55108 0.0
H528 H 0.48884 0.9559 0.52996 0.0
H529 H 0.54202 0.02493 0.62214 0.0
H530 H 0.53909 0.06055 0.55955 0.0
H531 H 0.52274 0.0725 0.47784 0.0
H532 H 0.46766 1.00346 0.38623 0.0
H533 H 0.46971 0.96812 0.44896 0.0
C534 C 0.49994 0.9787 0.53638 0.0
C535 C 0.51581 0.98745 0.58094 0.0
C536 C 0.4976 0.99941 0.50013 0.0
C537 C 0.52953 0.0173 0.58838 0.0
C538 C 0.52789 0.03785 0.55249 0.0
C539 C 0.5107 0.04981 0.47162 0.0
C540 C 0.49515 0.04096 0.42698 0.0
C541 C 0.51198 0.02922 0.50813 0.0
C542 C 0.4799 1.01124 0.41995 0.0
C543 C 0.48117 0.99079 0.45592 0.0
loop_
_geom_bond_atom_site_label_1
_geom_bond_atom_site_label_2
_geom_bond_distance
_geom_bond_site_symmetry_2
_ccdc_geom_bond_type
Mn0 O5 2.095 1_655 S
Mn0 O15 2.162 1_655 S
Mn0 O16 2.297 . S
Mn0 O24 2.385 . S
Mn0 O25 2.209 . S
Mn0 O26 2.094 . S
Mn1 O6 2.121 1_655 S
Mn1 N8 2.257 . S
Mn1 N17 2.282 . S
Mn1 O25 2.215 . S
Mn1 O27 2.117 . S
C2 O24 1.234 . S
C2 O25 1.283 . S
C3 O15 1.280 1_655 S
C3 O16 1.236 . S
C4 O26 1.240 . S
C4 O27 1.264 . S
O5 Mn0 2.095 1_455 S
O5 C14 1.250 . S
O6 Mn1 2.121 1_455 S
O6 C14 1.258 . S
C7 N8 1.326 1_455 S
C7 C11 1.460 1_455 S
C7 H13 0.929 . S
N8 Mn1 2.257 . S
N8 C7 1.326 1_655 S
N8 C12 1.362 . S
C9 C10 1.258 . S
C9 C12 1.431 . S
C9 C29 1.449 . S
C10 C9 1.258 . S
C10 C11 1.477 . S
C10 H30 0.931 . S
C11 C7 1.460 1_655 S
C11 C10 1.477 . S
C11 H31 0.930 1_655 S
C12 N8 1.362 . S
C12 C9 1.431 . S
C12 C22 1.476 . S
H13 C7 0.929 . S
C14 O5 1.250 . S
C14 O6 1.258 . S
O15 Mn0 2.162 1_455 S
O15 C3 1.280 1_455 S
O16 Mn0 2.297 . S
O16 C3 1.236 . S
N17 Mn1 2.282 . S
N17 C18 1.328 . S
N17 C22 1.318 . S
C18 N17 1.328 . S
C18 C19 1.457 . S
C18 H23 0.929 . S
C19 C18 1.457 . S
C19 C20 1.291 . S
C19 H32 0.931 . S
C20 C19 1.291 . S
C20 C21 1.373 . S
C20 H33 0.929 1_545 S
C21 C20 1.373 . S
C21 C22 1.396 . S
C21 C28 1.403 1_545 S
C22 C12 1.476 . S
C22 N17 1.318 . S
C22 C21 1.396 . S
H23 C18 0.929 . S
O24 Mn0 2.385 . S
O24 C2 1.234 . S
O25 Mn0 2.209 . S
O25 Mn1 2.215 . S
O25 C2 1.283 . S
O26 Mn0 2.094 . S
O26 C4 1.240 . S
O27 Mn1 2.117 . S
O27 C4 1.264 . S
C28 C21 1.403 1_565 S
C28 C29 1.399 1_565 S
C28 H34 0.929 . S
C29 C9 1.449 . S
C29 C28 1.399 1_545 S
C29 H35 0.930 1_545 S
H30 C10 0.931 . S
H31 C11 0.930 1_455 S
H32 C19 0.931 . S
H33 C20 0.929 1_565 S
H34 C28 0.929 . S
H35 C29 0.930 1_565 S
Mn36 O41 2.095 1_455 S
Mn36 O51 2.161 1_455 S
Mn36 O52 2.297 . S
Mn36 O60 2.385 . S
Mn36 O61 2.209 . S
Mn36 O62 2.094 . S
Mn37 O42 2.121 1_455 S
Mn37 N44 2.257 . S
Mn37 N53 2.282 . S
Mn37 O61 2.215 . S
Mn37 O63 2.117 . S
C38 O60 1.234 . S
C38 O61 1.283 . S
C39 O51 1.281 1_455 S
C39 O52 1.236 . S
C40 O62 1.240 . S
C40 O63 1.264 . S
O41 Mn36 2.095 1_655 S
O41 C50 1.250 . S
O42 Mn37 2.121 1_655 S
O42 C50 1.258 . S
C43 N44 1.326 1_655 S
C43 C47 1.460 1_655 S
C43 H49 0.929 . S
N44 Mn37 2.257 . S
N44 C43 1.326 1_455 S
N44 C48 1.362 . S
C45 C46 1.258 . S
C45 C48 1.431 . S
C45 C65 1.449 . S
C46 C45 1.258 . S
C46 C47 1.477 . S
C46 H66 0.931 . S
C47 C43 1.460 1_455 S
C47 C46 1.477 . S
C47 H67 0.930 1_455 S
C48 N44 1.362 . S
C48 C45 1.431 . S
C48 C58 1.476 . S
H49 C43 0.929 . S
C50 O41 1.250 . S
C50 O42 1.258 . S
O51 Mn36 2.161 1_655 S
O51 C39 1.281 1_655 S
O52 Mn36 2.297 . S
O52 C39 1.236 . S
N53 Mn37 2.282 . S
N53 C54 1.328 . S
N53 C58 1.318 . S
C54 N53 1.328 . S
C54 C55 1.457 . S
C54 H59 0.929 . S
C55 C54 1.457 . S
C55 C56 1.291 . S
C55 H68 0.931 . S
C56 C55 1.291 . S
C56 C57 1.373 . S
C56 H69 0.929 . S
C57 C56 1.373 . S
C57 C58 1.396 . S
C57 C64 1.403 . S
C58 C48 1.476 . S
C58 N53 1.318 . S
C58 C57 1.396 . S
H59 C54 0.929 . S
O60 Mn36 2.385 . S
O60 C38 1.234 . S
O61 Mn36 2.209 . S
O61 Mn37 2.215 . S
O61 C38 1.283 . S
O62 Mn36 2.094 . S
O62 C40 1.240 . S
O63 Mn37 2.117 . S
O63 C40 1.264 . S
C64 C57 1.403 . S
C64 C65 1.399 . S
C64 H70 0.929 . S
C65 C45 1.449 . S
C65 C64 1.399 . S
C65 H71 0.930 . S
H66 C46 0.931 . S
H67 C47 0.930 1_655 S
H68 C55 0.931 . S
H69 C56 0.929 . S
H70 C64 0.929 . S
H71 C65 0.930 . S
Mn72 O77 2.095 1_655 S
Mn72 O87 2.162 1_655 S
Mn72 O88 2.297 . S
Mn72 O96 2.385 . S
Mn72 O97 2.209 . S
Mn72 O98 2.094 . S
Mn73 O78 2.121 1_655 S
Mn73 N80 2.257 . S
Mn73 N89 2.282 . S
Mn73 O97 2.215 . S
Mn73 O99 2.117 . S
C74 O96 1.234 . S
C74 O97 1.283 . S
C75 O87 1.280 1_655 S
C75 O88 1.236 . S
C76 O98 1.240 . S
C76 O99 1.264 . S
O77 Mn72 2.095 1_455 S
O77 C86 1.250 . S
O78 Mn73 2.121 1_455 S
O78 C86 1.258 . S
C79 N80 1.326 1_455 S
C79 C83 1.460 1_455 S
C79 H85 0.929 . S
N80 Mn73 2.257 . S
N80 C79 1.326 1_655 S
N80 C84 1.362 . S
C81 C82 1.258 . S
C81 C84 1.431 . S
C81 C101 1.449 . S
C82 C81 1.258 . S
C82 C83 1.477 . S
C82 H102 0.931 . S
C83 C79 1.460 1_655 S
C83 C82 1.477 . S
C83 H103 0.930 1_655 S
C84 N80 1.362 . S
C84 C81 1.431 . S
C84 C94 1.476 . S
H85 C79 0.929 . S
C86 O77 1.250 . S
C86 O78 1.258 . S
O87 Mn72 2.162 1_455 S
O87 C75 1.280 1_455 S
O88 Mn72 2.297 . S
O88 C75 1.236 . S
N89 Mn73 2.282 . S
N89 C90 1.328 . S
N89 C94 1.318 . S
C90 N89 1.328 . S
C90 C91 1.457 . S
C90 H95 0.929 . S
C91 C90 1.457 . S
C91 C92 1.291 . S
C91 H104 0.931 . S
C92 C91 1.291 . S
C92 C93 1.373 . S
C92 H105 0.929 1_565 S
C93 C92 1.373 . S
C93 C94 1.396 . S
C93 C100 1.403 1_565 S
C94 C84 1.476 . S
C94 N89 1.318 . S
C94 C93 1.396 . S
H95 C90 0.929 . S
O96 Mn72 2.385 . S
O96 C74 1.234 . S
O97 Mn72 2.209 . S
O97 Mn73 2.215 . S
O97 C74 1.283 . S
O98 Mn72 2.094 . S
O98 C76 1.240 . S
O99 Mn73 2.117 . S
O99 C76 1.264 . S
C100 C93 1.403 1_545 S
C100 C101 1.399 1_545 S
C100 H106 0.929 . S
C101 C81 1.449 . S
C101 C100 1.399 1_565 S
C101 H107 0.930 1_565 S
H102 C82 0.931 . S
H103 C83 0.930 1_455 S
H104 C91 0.931 . S
H105 C92 0.929 1_545 S
H106 C100 0.929 . S
H107 C101 0.930 1_545 S
Mn108 O113 2.095 1_455 S
Mn108 O123 2.161 1_455 S
Mn108 O124 2.297 . S
Mn108 O132 2.385 . S
Mn108 O133 2.209 . S
Mn108 O134 2.094 . S
Mn109 O114 2.121 1_455 S
Mn109 N116 2.257 . S
Mn109 N125 2.282 . S
Mn109 O133 2.215 . S
Mn109 O135 2.117 . S
C110 O132 1.234 . S
C110 O133 1.283 . S
C111 O123 1.281 1_455 S
C111 O124 1.236 . S
C112 O134 1.240 . S
C112 O135 1.264 . S
O113 Mn108 2.095 1_655 S
O113 C122 1.250 . S
O114 Mn109 2.121 1_655 S
O114 C122 1.258 . S
C115 N116 1.326 1_655 S
C115 C119 1.460 1_655 S
C115 H121 0.929 . S
N116 Mn109 2.257 . S
N116 C115 1.326 1_455 S
N116 C120 1.362 . S
C117 C118 1.258 . S
C117 C120 1.431 . S
C117 C137 1.449 . S
C118 C117 1.258 . S
C118 C119 1.477 . S
C118 H138 0.931 . S
C119 C115 1.460 1_455 S
C119 C118 1.477 . S
C119 H139 0.930 1_455 S
C120 N116 1.362 . S
C120 C117 1.431 . S
C120 C130 1.476 . S
H121 C115 0.929 . S
C122 O113 1.250 . S
C122 O114 1.258 . S
O123 Mn108 2.161 1_655 S
O123 C111 1.281 1_655 S
O124 Mn108 2.297 . S
O124 C111 1.236 . S
N125 Mn109 2.282 . S
N125 C126 1.328 . S
N125 C130 1.318 . S
C126 N125 1.328 . S
C126 C127 1.457 . S
C126 H131 0.929 . S
C127 C126 1.457 . S
C127 C128 1.291 . S
C127 H140 0.931 . S
C128 C127 1.291 . S
C128 C129 1.373 . S
C128 H141 0.929 . S
C129 C128 1.373 . S
C129 C130 1.396 . S
C129 C136 1.403 . S
C130 C120 1.476 . S
C130 N125 1.318 . S
C130 C129 1.396 . S
H131 C126 0.929 . S
O132 Mn108 2.385 . S
O132 C110 1.234 . S
O133 Mn108 2.209 . S
O133 Mn109 2.215 . S
O133 C110 1.283 . S
O134 Mn108 2.094 . S
O134 C112 1.240 . S
O135 Mn109 2.117 . S
O135 C112 1.264 . S
C136 C129 1.403 . S
C136 C137 1.399 . S
C136 H142 0.929 . S
C137 C117 1.449 . S
C137 C136 1.399 . S
C137 H143 0.930 . S
H138 C118 0.931 . S
H139 C119 0.930 1_655 S
H140 C127 0.931 . S
H141 C128 0.929 . S
H142 C136 0.929 . S
H143 C137 0.930 . S
Mn144 O149 2.095 . S
Mn144 O159 2.162 . S
Mn144 O160 2.297 . S
Mn144 O168 2.385 . S
Mn144 O169 2.209 . S
Mn144 O170 2.094 . S
Mn145 O150 2.121 . S
Mn145 N152 2.257 . S
Mn145 N161 2.282 . S
Mn145 O169 2.215 . S
Mn145 O171 2.117 . S
C146 O168 1.234 . S
C146 O169 1.283 . S
C147 O159 1.281 . S
C147 O160 1.236 . S
C148 O170 1.240 . S
C148 O171 1.264 . S
O149 Mn144 2.095 . S
O149 C158 1.250 . S
O150 Mn145 2.121 . S
O150 C158 1.258 . S
C151 N152 1.326 . S
C151 C155 1.460 . S
C151 H157 0.929 . S
N152 Mn145 2.257 . S
N152 C151 1.326 . S
N152 C156 1.362 . S
C153 C154 1.258 . S
C153 C156 1.431 . S
C153 C173 1.449 . S
C154 C153 1.258 . S
C154 C155 1.477 . S
C154 H174 0.931 . S
C155 C151 1.460 . S
C155 C154 1.477 . S
C155 H175 0.930 . S
C156 N152 1.362 . S
C156 C153 1.431 . S
C156 C166 1.476 . S
H157 C151 0.929 . S
C158 O149 1.250 . S
C158 O150 1.258 . S
O159 Mn144 2.162 . S
O159 C147 1.281 . S
O160 Mn144 2.297 . S
O160 C147 1.236 . S
N161 Mn145 2.282 . S
N161 C162 1.328 . S
N161 C166 1.318 . S
C162 N161 1.328 . S
C162 C163 1.457 . S
C162 H167 0.929 . S
C163 C162 1.457 . S
C163 C164 1.291 . S
C163 H176 0.931 . S
C164 C163 1.291 . S
C164 C165 1.373 . S
C164 H177 0.929 . S
C165 C164 1.373 . S
C165 C166 1.396 . S
C165 C172 1.403 . S
C166 C156 1.476 . S
C166 N161 1.318 . S
C166 C165 1.396 . S
H167 C162 0.929 . S
O168 Mn144 2.385 . S
O168 C146 1.234 . S
O169 Mn144 2.209 . S
O169 Mn145 2.215 . S
O169 C146 1.283 . S
O170 Mn144 2.094 . S
O170 C148 1.240 . S
O171 Mn145 2.117 . S
O171 C148 1.264 . S
C172 C165 1.403 . S
C172 C173 1.399 . S
C172 H178 0.929 . S
C173 C153 1.449 . S
C173 C172 1.399 . S
C173 H179 0.930 . S
H174 C154 0.931 . S
H175 C155 0.930 . S
H176 C163 0.931 . S
H177 C164 0.929 . S
H178 C172 0.929 . S
H179 C173 0.930 . S
Mn180 O185 2.095 . S
Mn180 O195 2.162 . S
Mn180 O196 2.297 . S
Mn180 O204 2.385 . S
Mn180 O205 2.209 . S
Mn180 O206 2.094 . S
Mn181 O186 2.121 . S
Mn181 N188 2.257 . S
Mn181 N197 2.282 . S
Mn181 O205 2.215 . S
Mn181 O207 2.117 . S
C182 O204 1.234 . S
C182 O205 1.283 . S
C183 O195 1.281 . S
C183 O196 1.236 . S
C184 O206 1.240 . S
C184 O207 1.264 . S
O185 Mn180 2.095 . S
O185 C194 1.250 . S
O186 Mn181 2.121 . S
O186 C194 1.258 . S
C187 N188 1.326 . S
C187 C191 1.460 . S
C187 H193 0.929 . S
N188 Mn181 2.257 . S
N188 C187 1.326 . S
N188 C192 1.362 . S
C189 C190 1.258 . S
C189 C192 1.431 . S
C189 C209 1.449 . S
C190 C189 1.258 . S
C190 C191 1.477 . S
C190 H210 0.931 . S
C191 C187 1.460 . S
C191 C190 1.477 . S
C191 H211 0.930 . S
C192 N188 1.362 . S
C192 C189 1.431 . S
C192 C202 1.476 . S
H193 C187 0.929 . S
C194 O185 1.250 . S
C194 O186 1.258 . S
O195 Mn180 2.162 . S
O195 C183 1.281 . S
O196 Mn180 2.297 . S
O196 C183 1.236 . S
N197 Mn181 2.282 . S
N197 C198 1.328 . S
N197 C202 1.318 . S
C198 N197 1.328 . S
C198 C199 1.457 . S
C198 H203 0.929 . S
C199 C198 1.457 . S
C199 C200 1.291 . S
C199 H212 0.931 . S
C200 C199 1.291 . S
C200 C201 1.373 . S
C200 H213 0.929 1_565 S
C201 C200 1.373 . S
C201 C202 1.396 . S
C201 C208 1.403 1_565 S
C202 C192 1.476 . S
C202 N197 1.318 . S
C202 C201 1.396 . S
H203 C198 0.929 . S
O204 Mn180 2.385 . S
O204 C182 1.234 . S
O205 Mn180 2.209 . S
O205 Mn181 2.215 . S
O205 C182 1.283 . S
O206 Mn180 2.094 . S
O206 C184 1.240 . S
O207 Mn181 2.117 . S
O207 C184 1.264 . S
C208 C201 1.403 1_545 S
C208 C209 1.399 1_545 S
C208 H214 0.929 . S
C209 C189 1.449 . S
C209 C208 1.399 1_565 S
C209 H215 0.930 1_565 S
H210 C190 0.931 . S
H211 C191 0.930 . S
H212 C199 0.931 . S
H213 C200 0.929 1_545 S
H214 C208 0.929 . S
H215 C209 0.930 1_545 S
Mn216 O221 2.095 . S
Mn216 O231 2.162 . S
Mn216 O232 2.297 . S
Mn216 O240 2.385 . S
Mn216 O241 2.209 . S
Mn216 O242 2.094 . S
Mn217 O222 2.121 . S
Mn217 N224 2.257 . S
Mn217 N233 2.282 . S
Mn217 O241 2.215 . S
Mn217 O243 2.117 . S
C218 O240 1.234 . S
C218 O241 1.283 . S
C219 O231 1.281 . S
C219 O232 1.236 . S
C220 O242 1.240 . S
C220 O243 1.264 . S
O221 Mn216 2.095 . S
O221 C230 1.250 . S
O222 Mn217 2.121 . S
O222 C230 1.258 . S
C223 N224 1.326 . S
C223 C227 1.460 . S
C223 H229 0.929 . S
N224 Mn217 2.257 . S
N224 C223 1.326 . S
N224 C228 1.362 . S
C225 C226 1.258 . S
C225 C228 1.431 . S
C225 C245 1.449 . S
C226 C225 1.258 . S
C226 C227 1.477 . S
C226 H246 0.931 . S
C227 C223 1.460 . S
C227 C226 1.477 . S
C227 H247 0.930 . S
C228 N224 1.362 . S
C228 C225 1.431 . S
C228 C238 1.476 . S
H229 C223 0.929 . S
C230 O221 1.250 . S
C230 O222 1.258 . S
O231 Mn216 2.162 . S
O231 C219 1.281 . S
O232 Mn216 2.297 . S
O232 C219 1.236 . S
N233 Mn217 2.282 . S
N233 C234 1.328 . S
N233 C238 1.318 . S
C234 N233 1.328 . S
C234 C235 1.457 . S
C234 H239 0.929 . S
C235 C234 1.457 . S
C235 C236 1.291 . S
C235 H248 0.931 . S
C236 C235 1.291 . S
C236 C237 1.373 . S
C236 H249 0.929 . S
C237 C236 1.373 . S
C237 C238 1.396 . S
C237 C244 1.403 . S
C238 C228 1.476 . S
C238 N233 1.318 . S
C238 C237 1.396 . S
H239 C234 0.929 . S
O240 Mn216 2.385 . S
O240 C218 1.234 . S
O241 Mn216 2.209 . S
O241 Mn217 2.215 . S
O241 C218 1.283 . S
O242 Mn216 2.094 . S
O242 C220 1.240 . S
O243 Mn217 2.117 . S
O243 C220 1.264 . S
C244 C237 1.403 . S
C244 C245 1.399 . S
C244 H250 0.929 . S
C245 C225 1.449 . S
C245 C244 1.399 . S
C245 H251 0.930 . S
H246 C226 0.931 . S
H247 C227 0.930 . S
H248 C235 0.931 . S
H249 C236 0.929 . S
H250 C244 0.929 . S
H251 C245 0.930 . S
Mn252 O257 2.095 . S
Mn252 O267 2.162 . S
Mn252 O268 2.297 . S
Mn252 O276 2.385 . S
Mn252 O277 2.209 . S
Mn252 O278 2.094 . S
Mn253 O258 2.121 . S
Mn253 N260 2.257 . S
Mn253 N269 2.282 . S
Mn253 O277 2.215 . S
Mn253 O279 2.117 . S
C254 O276 1.234 . S
C254 O277 1.283 . S
C255 O267 1.281 . S
C255 O268 1.236 . S
C256 O278 1.240 . S
C256 O279 1.264 . S
O257 Mn252 2.095 . S
O257 C266 1.250 . S
O258 Mn253 2.121 . S
O258 C266 1.258 . S
C259 N260 1.326 . S
C259 C263 1.460 . S
C259 H265 0.929 . S
N260 Mn253 2.257 . S
N260 C259 1.326 . S
N260 C264 1.362 . S
C261 C262 1.258 . S
C261 C264 1.431 . S
C261 C281 1.449 . S
C262 C261 1.258 . S
C262 C263 1.477 . S
C262 H282 0.931 . S
C263 C259 1.460 . S
C263 C262 1.477 . S
C263 H283 0.930 . S
C264 N260 1.362 . S
C264 C261 1.431 . S
C264 C274 1.476 . S
H265 C259 0.929 . S
C266 O257 1.250 . S
C266 O258 1.258 . S
O267 Mn252 2.162 . S
O267 C255 1.281 . S
O268 Mn252 2.297 . S
O268 C255 1.236 . S
N269 Mn253 2.282 . S
N269 C270 1.328 . S
N269 C274 1.318 . S
C270 N269 1.328 . S
C270 C271 1.457 . S
C270 H275 0.929 . S
C271 C270 1.457 . S
C271 C272 1.291 . S
C271 H284 0.931 . S
C272 C271 1.291 . S
C272 C273 1.373 . S
C272 H285 0.929 1_545 S
C273 C272 1.373 . S
C273 C274 1.396 . S
C273 C280 1.403 1_545 S
C274 C264 1.476 . S
C274 N269 1.318 . S
C274 C273 1.396 . S
H275 C270 0.929 . S
O276 Mn252 2.385 . S
O276 C254 1.234 . S
O277 Mn252 2.209 . S
O277 Mn253 2.215 . S
O277 C254 1.283 . S
O278 Mn252 2.094 . S
O278 C256 1.240 . S
O279 Mn253 2.117 . S
O279 C256 1.264 . S
C280 C273 1.403 1_565 S
C280 C281 1.399 1_565 S
C280 H286 0.929 . S
C281 C261 1.449 . S
C281 C280 1.399 1_545 S
C281 H287 0.930 1_545 S
H282 C262 0.931 . S
H283 C263 0.930 . S
H284 C271 0.931 . S
H285 C272 0.929 1_565 S
H286 C280 0.929 . S
H287 C281 0.930 1_565 S
H288 C294 0.930 . S
H289 C297 0.930 . S
H290 C298 0.930 . S
H291 C299 0.930 . S
H292 C302 0.930 . S
H293 C303 0.930 . S
C294 H288 0.930 . S
C294 C295 1.345 1_455 S
C294 C296 1.415 . S
C295 C294 1.345 1_655 S
C295 C297 1.432 . S
C296 C294 1.415 . S
C296 C301 1.425 1_455 S
C296 C303 1.409 . S
C297 H289 0.930 . S
C297 C295 1.432 . S
C297 C298 1.362 . S
C298 H290 0.930 . S
C298 C297 1.362 . S
C298 C301 1.409 . S
C299 H291 0.930 . S
C299 C300 1.355 1_655 S
C299 C301 1.415 . S
C300 C299 1.355 1_455 S
C300 C302 1.419 . S
C301 C296 1.425 1_655 S
C301 C298 1.409 . S
C301 C299 1.415 . S
C302 H292 0.930 . S
C302 C300 1.419 . S
C302 C303 1.362 . S
C303 H293 0.930 . S
C303 C296 1.409 . S
C303 C302 1.362 . S
H304 C310 0.930 . S
H305 C313 0.930 . S
H306 C314 0.930 . S
H307 C315 0.930 . S
H308 C318 0.930 . S
H309 C319 0.930 . S
C310 H304 0.930 . S
C310 C311 1.355 1_655 S
C310 C312 1.415 . S
C311 C310 1.355 1_455 S
C311 C313 1.419 . S
C312 C310 1.415 . S
C312 C317 1.425 1_655 S
C312 C319 1.409 . S
C313 H305 0.930 . S
C313 C311 1.419 . S
C313 C314 1.362 . S
C314 H306 0.930 . S
C314 C313 1.362 . S
C314 C317 1.409 . S
C315 H307 0.930 . S
C315 C316 1.355 . S
C315 C317 1.415 . S
C316 C315 1.355 . S
C316 C318 1.419 1_455 S
C317 C312 1.425 1_455 S
C317 C314 1.409 . S
C317 C315 1.415 . S
C318 H308 0.930 . S
C318 C316 1.419 1_655 S
C318 C319 1.362 . S
C319 H309 0.930 . S
C319 C312 1.409 . S
C319 C318 1.362 . S
H320 C326 0.930 . S
H321 C329 0.930 . S
H322 C330 0.930 . S
H323 C331 0.930 . S
H324 C334 0.930 . S
H325 C335 0.930 . S
C326 H320 0.930 . S
C326 C327 1.355 . S
C326 C328 1.415 . S
C327 C326 1.355 . S
C327 C329 1.419 . S
C328 C326 1.415 . S
C328 C333 1.425 . S
C328 C335 1.409 . S
C329 H321 0.930 . S
C329 C327 1.419 . S
C329 C330 1.362 . S
C330 H322 0.930 . S
C330 C329 1.362 . S
C330 C333 1.409 . S
C331 H323 0.930 . S
C331 C332 1.355 . S
C331 C333 1.415 . S
C332 C331 1.355 . S
C332 C334 1.419 . S
C333 C328 1.425 . S
C333 C330 1.409 . S
C333 C331 1.415 . S
C334 H324 0.930 . S
C334 C332 1.419 . S
C334 C335 1.362 . S
C335 H325 0.930 . S
C335 C328 1.409 . S
C335 C334 1.362 . S
H336 C342 0.930 . S
H337 C345 0.930 . S
H338 C346 0.930 . S
H339 C347 0.930 . S
H340 C350 0.930 . S
H341 C351 0.930 . S
C342 H336 0.930 . S
C342 C343 1.355 . S
C342 C344 1.415 . S
C343 C342 1.355 . S
C343 C345 1.419 . S
C344 C342 1.415 . S
C344 C349 1.425 . S
C344 C351 1.409 . S
C345 H337 0.930 . S
C345 C343 1.419 . S
C345 C346 1.362 . S
C346 H338 0.930 . S
C346 C345 1.362 . S
C346 C349 1.409 . S
C347 H339 0.930 . S
C347 C348 1.355 . S
C347 C349 1.415 . S
C348 C347 1.355 . S
C348 C350 1.419 . S
C349 C344 1.425 . S
C349 C346 1.409 . S
C349 C347 1.415 . S
C350 H340 0.930 . S
C350 C348 1.419 . S
C350 C351 1.362 . S
C351 H341 0.930 . S
C351 C344 1.409 . S
C351 C350 1.362 . S
H352 C358 0.930 . S
H353 C361 0.930 . S
H354 C362 0.930 . S
H355 C363 0.930 . S
H356 C366 0.930 . S
H357 C367 0.930 . S
C358 H352 0.930 . S
C358 C359 1.355 . S
C358 C360 1.415 . S
C359 C358 1.355 . S
C359 C361 1.419 . S
C360 C358 1.415 . S
C360 C365 1.425 . S
C360 C367 1.409 . S
C361 H353 0.930 . S
C361 C359 1.419 . S
C361 C362 1.362 . S
C362 H354 0.930 . S
C362 C361 1.362 . S
C362 C365 1.409 . S
C363 H355 0.930 . S
C363 C364 1.355 . S
C363 C365 1.415 . S
C364 C363 1.355 . S
C364 C366 1.419 . S
C365 C360 1.425 . S
C365 C362 1.409 . S
C365 C363 1.415 . S
C366 H356 0.930 . S
C366 C364 1.419 . S
C366 C367 1.362 . S
C367 H357 0.930 . S
C367 C360 1.409 . S
C367 C366 1.362 . S
H368 C374 0.930 . S
H369 C377 0.930 . S
H370 C378 0.930 . S
H371 C379 0.930 . S
H372 C382 0.930 . S
H373 C383 0.930 . S
C374 H368 0.930 . S
C374 C375 1.355 . S
C374 C376 1.415 . S
C375 C374 1.355 . S
C375 C377 1.419 . S
C376 C374 1.415 . S
C376 C381 1.425 . S
C376 C383 1.409 . S
C377 H369 0.930 . S
C377 C375 1.419 . S
C377 C378 1.362 . S
C378 H370 0.930 . S
C378 C377 1.362 . S
C378 C381 1.409 . S
C379 H371 0.930 . S
C379 C380 1.355 . S
C379 C381 1.415 . S
C380 C379 1.355 . S
C380 C382 1.419 . S
C381 C376 1.425 . S
C381 C378 1.409 . S
C381 C379 1.415 . S
C382 H372 0.930 . S
C382 C380 1.419 . S
C382 C383 1.362 . S
C383 H373 0.930 . S
C383 C376 1.409 . S
C383 C382 1.362 . S
H384 C390 0.930 . S
H385 C393 0.930 . S
H386 C394 0.930 . S
H387 C395 0.930 . S
H388 C398 0.930 . S
H389 C399 0.930 . S
C390 H384 0.930 . S
C390 C391 1.355 . S
C390 C392 1.415 . S
C391 C390 1.355 . S
C391 C393 1.419 . S
C392 C390 1.415 . S
C392 C397 1.425 . S
C392 C399 1.409 . S
C393 H385 0.930 . S
C393 C391 1.419 . S
C393 C394 1.362 . S
C394 H386 0.930 . S
C394 C393 1.362 . S
C394 C397 1.409 . S
C395 H387 0.930 . S
C395 C396 1.355 . S
C395 C397 1.415 . S
C396 C395 1.355 . S
C396 C398 1.419 . S
C397 C392 1.425 . S
C397 C394 1.409 . S
C397 C395 1.415 . S
C398 H388 0.930 . S
C398 C396 1.419 . S
C398 C399 1.362 . S
C399 H389 0.930 . S
C399 C392 1.409 . S
C399 C398 1.362 . S
H400 C406 0.930 . S
H401 C409 0.930 . S
H402 C410 0.930 . S
H403 C411 0.930 . S
H404 C414 0.930 . S
H405 C415 0.930 . S
C406 H400 0.930 . S
C406 C407 1.355 . S
C406 C408 1.415 . S
C407 C406 1.355 . S
C407 C409 1.419 . S
C408 C406 1.415 . S
C408 C413 1.425 . S
C408 C415 1.409 . S
C409 H401 0.930 . S
C409 C407 1.419 . S
C409 C410 1.362 . S
C410 H402 0.930 . S
C410 C409 1.362 . S
C410 C413 1.409 . S
C411 H403 0.930 . S
C411 C412 1.355 . S
C411 C413 1.415 . S
C412 C411 1.355 . S
C412 C414 1.419 . S
C413 C408 1.425 . S
C413 C410 1.409 . S
C413 C411 1.415 . S
C414 H404 0.930 . S
C414 C412 1.419 . S
C414 C415 1.362 . S
C415 H405 0.930 . S
C415 C408 1.409 . S
C415 C414 1.362 . S
H416 C422 0.930 . S
H417 C425 0.930 . S
H418 C426 0.930 . S
H419 C427 0.930 . S
H420 C430 0.930 . S
H421 C431 0.930 . S
C422 H416 0.930 . S
C422 C423 1.355 . S
C422 C424 1.415 . S
C423 C422 1.355 . S
C423 C425 1.419 . S
C424 C422 1.415 . S
C424 C429 1.425 . S
C424 C431 1.409 . S
C425 H417 0.930 . S
C425 C423 1.419 . S
C425 C426 1.362 . S
C426 H418 0.930 . S
C426 C425 1.362 . S
C426 C429 1.409 . S
C427 H419 0.930 . S
C427 C428 1.355 . S
C427 C429 1.415 . S
C428 C427 1.355 . S
C428 C430 1.419 . S
C429 C424 1.425 . S
C429 C426 1.409 . S
C429 C427 1.415 . S
C430 H420 0.930 . S
C430 C428 1.419 . S
C430 C431 1.362 . S
C431 H421 0.930 . S
C431 C424 1.409 . S
C431 C430 1.362 . S
H432 C438 0.930 . S
H433 C441 0.930 . S
H434 C442 0.930 . S
H435 C443 0.930 . S
H436 C446 0.930 . S
H437 C447 0.930 . S
C438 H432 0.930 . S
C438 C439 1.355 . S
C438 C440 1.415 . S
C439 C438 1.355 . S
C439 C441 1.419 . S
C440 C438 1.415 . S
C440 C445 1.425 . S
C440 C447 1.409 . S
C441 H433 0.930 . S
C441 C439 1.419 . S
C441 C442 1.362 . S
C442 H434 0.930 . S
C442 C441 1.362 . S
C442 C445 1.409 . S
C443 H435 0.930 . S
C443 C444 1.355 . S
C443 C445 1.415 . S
C444 C443 1.355 . S
C444 C446 1.419 . S
C445 C440 1.425 . S
C445 C442 1.409 . S
C445 C443 1.415 . S
C446 H436 0.930 . S
C446 C444 1.419 . S
C446 C447 1.362 . S
C447 H437 0.930 . S
C447 C440 1.409 . S
C447 C446 1.362 . S
H448 C454 0.930 . S
H449 C457 0.930 . S
H450 C458 0.930 . S
H451 C459 0.930 . S
H452 C462 0.930 . S
H453 C463 0.930 . S
C454 H448 0.930 . S
C454 C455 1.355 . S
C454 C456 1.415 . S
C455 C454 1.355 . S
C455 C457 1.419 . S
C456 C454 1.415 . S
C456 C461 1.425 . S
C456 C463 1.409 . S
C457 H449 0.930 . S
C457 C455 1.419 . S
C457 C458 1.362 . S
C458 H450 0.930 . S
C458 C457 1.362 . S
C458 C461 1.409 . S
C459 H451 0.930 . S
C459 C460 1.355 . S
C459 C461 1.415 . S
C460 C459 1.355 . S
C460 C462 1.419 . S
C461 C456 1.425 . S
C461 C458 1.409 . S
C461 C459 1.415 . S
C462 H452 0.930 . S
C462 C460 1.419 . S
C462 C463 1.362 . S
C463 H453 0.930 . S
C463 C456 1.409 . S
C463 C462 1.362 . S
H464 C470 0.930 . S
H465 C473 0.930 . S
H466 C474 0.930 . S
H467 C475 0.930 . S
H468 C478 0.930 . S
H469 C479 0.930 . S
C470 H464 0.930 . S
C470 C471 1.355 . S
C470 C472 1.415 . S
C471 C470 1.355 . S
C471 C473 1.419 . S
C472 C470 1.415 . S
C472 C477 1.425 . S
C472 C479 1.409 . S
C473 H465 0.930 . S
C473 C471 1.419 . S
C473 C474 1.362 . S
C474 H466 0.930 . S
C474 C473 1.362 . S
C474 C477 1.409 . S
C475 H467 0.930 . S
C475 C476 1.355 . S
C475 C477 1.415 . S
C476 C475 1.355 . S
C476 C478 1.419 . S
C477 C472 1.425 . S
C477 C474 1.409 . S
C477 C475 1.415 . S
C478 H468 0.930 . S
C478 C476 1.419 . S
C478 C479 1.362 . S
C479 H469 0.930 . S
C479 C472 1.409 . S
C479 C478 1.362 . S
H480 C486 0.930 . S
H481 C489 0.930 . S
H482 C490 0.930 . S
H483 C491 0.930 . S
H484 C494 0.930 . S
H485 C495 0.930 . S
C486 H480 0.930 . S
C486 C487 1.355 1_655 S
C486 C488 1.415 1_545 S
C487 C486 1.355 1_455 S
C487 C489 1.419 . S
C488 C486 1.415 1_565 S
C488 C493 1.425 1_664 S
C488 C495 1.409 . S
C489 H481 0.930 . S
C489 C487 1.419 . S
C489 C490 1.362 1_554 S
C490 H482 0.930 . S
C490 C489 1.362 1_556 S
C490 C493 1.409 . S
C491 H483 0.930 . S
C491 C492 1.355 1_455 S
C491 C493 1.415 1_565 S
C492 C491 1.355 1_655 S
C492 C494 1.419 . S
C493 C488 1.425 1_446 S
C493 C490 1.409 . S
C493 C491 1.415 1_545 S
C494 H484 0.930 . S
C494 C492 1.419 . S
C494 C495 1.362 1_556 S
C495 H485 0.930 . S
C495 C488 1.409 . S
C495 C494 1.362 1_554 S
H496 C502 0.930 . S
H497 C505 0.930 . S
H498 C506 0.930 . S
H499 C507 0.930 . S
H500 C510 0.930 . S
H501 C511 0.930 . S
C502 H496 0.930 . S
C502 C503 1.355 1_455 S
C502 C504 1.415 . S
C503 C502 1.355 1_655 S
C503 C505 1.419 . S
C504 C502 1.415 . S
C504 C509 1.425 1_456 S
C504 C511 1.409 . S
C505 H497 0.930 . S
C505 C503 1.419 . S
C505 C506 1.362 1_556 S
C506 H498 0.930 . S
C506 C505 1.362 1_554 S
C506 C509 1.409 . S
C507 H499 0.930 . S
C507 C508 1.355 1_655 S
C507 C509 1.415 . S
C508 C507 1.355 1_455 S
C508 C510 1.419 . S
C509 C504 1.425 1_654 S
C509 C506 1.409 . S
C509 C507 1.415 . S
C510 H500 0.930 . S
C510 C508 1.419 . S
C510 C511 1.362 1_554 S
C511 H501 0.930 . S
C511 C504 1.409 . S
C511 C510 1.362 1_556 S
H512 C518 0.930 . S
H513 C521 0.930 . S
H514 C522 0.930 . S
H515 C523 0.930 . S
H516 C526 0.930 . S
H517 C527 0.930 . S
C518 H512 0.930 . S
C518 C519 1.355 . S
C518 C520 1.415 . S
C519 C518 1.355 . S
C519 C521 1.419 . S
C520 C518 1.415 . S
C520 C525 1.425 . S
C520 C527 1.409 . S
C521 H513 0.930 . S
C521 C519 1.419 . S
C521 C522 1.362 . S
C522 H514 0.930 . S
C522 C521 1.362 . S
C522 C525 1.409 . S
C523 H515 0.930 . S
C523 C524 1.355 . S
C523 C525 1.415 . S
C524 C523 1.355 . S
C524 C526 1.419 . S
C525 C520 1.425 . S
C525 C522 1.409 . S
C525 C523 1.415 . S
C526 H516 0.930 . S
C526 C524 1.419 . S
C526 C527 1.362 . S
C527 H517 0.930 . S
C527 C520 1.409 . S
C527 C526 1.362 . S
H528 C534 0.930 . S
H529 C537 0.930 . S
H530 C538 0.930 . S
H531 C539 0.930 . S
H532 C542 0.930 . S
H533 C543 0.930 . S
C534 H528 0.930 . S
C534 C535 1.355 . S
C534 C536 1.415 . S
C535 C534 1.355 . S
C535 C537 1.419 . S
C536 C534 1.415 . S
C536 C541 1.425 1_565 S
C536 C543 1.409 . S
C537 H529 0.930 . S
C537 C535 1.419 . S
C537 C538 1.362 1_565 S
C538 H530 0.930 . S
C538 C537 1.362 1_545 S
C538 C541 1.409 . S
C539 H531 0.930 . S
C539 C540 1.355 . S
C539 C541 1.415 . S
C540 C539 1.355 . S
C540 C542 1.419 . S
C541 C536 1.425 1_545 S
C541 C538 1.409 . S
C541 C539 1.415 . S
C542 H532 0.930 . S
C542 C540 1.419 . S
C542 C543 1.362 1_545 S
C543 H533 0.930 . S
C543 C536 1.409 . S
C543 C542 1.362 1_565 S
C295 C39 1.432 1_655 S
C300 C3 1.432 1_455 S
C311 C75 1.440 1_455 S
C316 C111 1.432 . S
C327 C147 1.433 . S
C332 C183 1.433 . S
C343 C219 1.449 . S
C348 C255 1.447 . S
C359 C266 1.329 . S
C364 C14 1.348 . S
C375 C230 1.332 . S
C380 C50 1.345 . S
C391 C86 1.314 . S
C396 C194 1.364 . S
C407 C158 1.315 . S
C412 C122 1.362 . S
C423 C182 1.470 . S
C428 C74 1.484 . S
C439 C146 1.436 . S
C444 C110 1.455 . S
C455 C254 1.444 . S
C460 C2 1.470 . S
C471 C38 1.473 . S
C476 C218 1.483 . S
C487 C4 1.347 1_455 S
C492 C76 1.339 . S
C503 C112 1.351 1_655 S
C508 C40 1.344 . S
C519 C220 1.324 . S
C524 C148 1.323 . S
C535 C184 1.327 . S
C540 C256 1.335 . S
