# Generated by pormake.
# Topology umd, (4)-cn, num edge types: 1
# Building blocks:
#     Node 0, Type 0, BuildingBlock: NAWXER_clean_sbu_0, # of connection points: 4
#     Node 1, Type 0, BuildingBlock: NAWXER_clean_sbu_0, # of connection points: 4
#     Node 2, Type 0, BuildingBlock: NAWXER_clean_sbu_0, # of connection points: 4
#     Node 3, Type 0, BuildingBlock: NAWXER_clean_sbu_0, # of connection points: 4
#     Node 4, Type 0, BuildingBlock: NAWXER_clean_sbu_0, # of connection points: 4
#     Node 5, Type 0, BuildingBlock: NAWXER_clean_sbu_0, # of connection points: 4
#     Node 6, Type 0, BuildingBlock: NAWXER_clean_sbu_0, # of connection points: 4
#     Node 7, Type 0, BuildingBlock: NAWXER_clean_sbu_0, # of connection points: 4
#     Node 8, Type 0, BuildingBlock: NAWXER_clean_sbu_0, # of connection points: 4
#     Node 9, Type 0, BuildingBlock: NAWXER_clean_sbu_0, # of connection points: 4
#     Node 10, Type 0, BuildingBlock: NAWXER_clean_sbu_0, # of connection points: 4
#     Node 11, Type 0, BuildingBlock: NAWXER_clean_sbu_0, # of connection points: 4
#     Node 12, Type 0, BuildingBlock: NAWXER_clean_sbu_0, # of connection points: 4
#     Node 13, Type 0, BuildingBlock: NAWXER_clean_sbu_0, # of connection points: 4
#     Node 14, Type 0, BuildingBlock: NAWXER_clean_sbu_0, # of connection points: 4
#     Node 15, Type 0, BuildingBlock: NAWXER_clean_sbu_0, # of connection points: 4
#     Edge 16, Type (0, 0), BuildingBlock: ZUJKAS_clean_linker_0, # of connection points: 2
#     Edge 17, Type (0, 0), BuildingBlock: ZUJKAS_clean_linker_0, # of connection points: 2
#     Edge 18, Type (0, 0), BuildingBlock: ZUJKAS_clean_linker_0, # of connection points: 2
#     Edge 19, Type (0, 0), BuildingBlock: ZUJKAS_clean_linker_0, # of connection points: 2
#     Edge 20, Type (0, 0), BuildingBlock: ZUJKAS_clean_linker_0, # of connection points: 2
#     Edge 21, Type (0, 0), BuildingBlock: ZUJKAS_clean_linker_0, # of connection points: 2
#     Edge 22, Type (0, 0), BuildingBlock: ZUJKAS_clean_linker_0, # of connection points: 2
#     Edge 23, Type (0, 0), BuildingBlock: ZUJKAS_clean_linker_0, # of connection points: 2
#     Edge 24, Type (0, 0), BuildingBlock: ZUJKAS_clean_linker_0, # of connection points: 2
#     Edge 25, Type (0, 0), BuildingBlock: ZUJKAS_clean_linker_0, # of connection points: 2
#     Edge 26, Type (0, 0), BuildingBlock: ZUJKAS_clean_linker_0, # of connection points: 2
#     Edge 27, Type (0, 0), BuildingBlock: ZUJKAS_clean_linker_0, # of connection points: 2
#     Edge 28, Type (0, 0), BuildingBlock: ZUJKAS_clean_linker_0, # of connection points: 2
#     Edge 29, Type (0, 0), BuildingBlock: ZUJKAS_clean_linker_0, # of connection points: 2
#     Edge 30, Type (0, 0), BuildingBlock: ZUJKAS_clean_linker_0, # of connection points: 2
#     Edge 31, Type (0, 0), BuildingBlock: ZUJKAS_clean_linker_0, # of connection points: 2
#     Edge 32, Type (0, 0), BuildingBlock: ZUJKAS_clean_linker_0, # of connection points: 2
#     Edge 33, Type (0, 0), BuildingBlock: ZUJKAS_clean_linker_0, # of connection points: 2
#     Edge 34, Type (0, 0), BuildingBlock: ZUJKAS_clean_linker_0, # of connection points: 2
#     Edge 35, Type (0, 0), BuildingBlock: ZUJKAS_clean_linker_0, # of connection points: 2
#     Edge 36, Type (0, 0), BuildingBlock: ZUJKAS_clean_linker_0, # of connection points: 2
#     Edge 37, Type (0, 0), BuildingBlock: ZUJKAS_clean_linker_0, # of connection points: 2
#     Edge 38, Type (0, 0), BuildingBlock: ZUJKAS_clean_linker_0, # of connection points: 2
#     Edge 39, Type (0, 0), BuildingBlock: ZUJKAS_clean_linker_0, # of connection points: 2
#     Edge 40, Type (0, 0), BuildingBlock: ZUJKAS_clean_linker_0, # of connection points: 2
#     Edge 41, Type (0, 0), BuildingBlock: ZUJKAS_clean_linker_0, # of connection points: 2
#     Edge 42, Type (0, 0), BuildingBlock: ZUJKAS_clean_linker_0, # of connection points: 2
#     Edge 43, Type (0, 0), BuildingBlock: ZUJKAS_clean_linker_0, # of connection points: 2
#     Edge 44, Type (0, 0), BuildingBlock: ZUJKAS_clean_linker_0, # of connection points: 2
#     Edge 45, Type (0, 0), BuildingBlock: ZUJKAS_clean_linker_0, # of connection points: 2
#     Edge 46, Type (0, 0), BuildingBlock: ZUJKAS_clean_linker_0, # of connection points: 2
#     Edge 47, Type (0, 0), BuildingBlock: ZUJKAS_clean_linker_0, # of connection points: 2
# Relax obj value: 0.021
# Max RMSD: 0.190
# Mean RMSD: 0.190
data_MOF--net-umd--node1-NAWXER_clean_sbu_0--edge1-ZUJKAS_clean_linker_0
_symmetry_space_group_name_H-M    P1
_symmetry_Int_Tables_number       1
_symmetry_cell_setting            triclinic
loop_
_symmetry_equiv_pos_as_xyz
'x, y, z'
_cell_length_a     52.503489
_cell_length_b     52.539463
_cell_length_c     75.758549
_cell_angle_alpha  90.065191
_cell_angle_beta   90.001412
_cell_angle_gamma 90.00441
loop_
_atom_site_label
_atom_site_type_symbol
_atom_site_fract_x
_atom_site_fract_y
_atom_site_fract_z
_atom_type_partial_charge
C0 C 0.128 0.4489 0.13473 0.0
C1 C 0.2064 0.39998 0.13712 0.0
O2 O 0.13107 0.42506 0.13634 0.0
Zn3 Zn 0.16742 0.42501 0.136 0.0
O4 O 0.14762 0.46342 0.13343 0.0
Zn5 Zn 0.18877 0.45835 0.13305 0.0
O6 O 0.19805 0.47112 0.11019 0.0
O7 O 0.17577 0.43559 0.10902 0.0
O8 O 0.21103 0.4238 0.1351 0.0
O9 O 0.1835 0.39251 0.13838 0.0
O10 O 0.17685 0.44429 0.16037 0.0
O11 O 0.19999 0.47772 0.15311 0.0
C12 C 0.1876 0.45368 0.10112 0.0
C13 C 0.18949 0.46417 0.16491 0.0
C14 C 0.55037 0.1867 0.60076 0.0
C15 C 0.53957 0.18842 0.66457 0.0
O16 O 0.53274 0.19692 0.60979 0.0
Zn17 Zn 0.54543 0.18768 0.63269 0.0
O18 O 0.56855 0.17507 0.60871 0.0
Zn19 Zn 0.5791 0.16681 0.6357 0.0
O20 O 0.57937 0.13042 0.63609 0.0
O21 O 0.54088 0.1466 0.63292 0.0
O22 O 0.55982 0.17636 0.66005 0.0
O23 O 0.52562 0.19826 0.65272 0.0
O24 O 0.57978 0.21036 0.63502 0.0
O25 O 0.61143 0.18317 0.63811 0.0
C26 C 0.55556 0.12714 0.6343 0.0
C27 C 0.60367 0.20598 0.63703 0.0
C28 C 0.81436 0.5394 0.16466 0.0
C29 C 0.81554 0.55022 0.10089 0.0
O30 O 0.80355 0.52601 0.15289 0.0
Zn31 Zn 0.81453 0.54546 0.13282 0.0
O32 O 0.82698 0.55927 0.16011 0.0
Zn33 Zn 0.83603 0.57873 0.13579 0.0
O34 O 0.82 0.61124 0.13839 0.0
O35 O 0.79238 0.58003 0.13509 0.0
O36 O 0.8275 0.56823 0.10882 0.0
O37 O 0.80501 0.53282 0.10993 0.0
O38 O 0.85569 0.54033 0.13293 0.0
O39 O 0.87239 0.57863 0.13594 0.0
C40 C 0.79707 0.60382 0.13719 0.0
C41 C 0.87536 0.55479 0.13419 0.0
C42 C 0.45396 0.81525 0.60102 0.0
C43 C 0.46418 0.81313 0.66482 0.0
O44 O 0.47123 0.80455 0.61009 0.0
Zn45 Zn 0.45846 0.81389 0.63297 0.0
O46 O 0.43594 0.82723 0.60893 0.0
Zn47 Zn 0.42528 0.83553 0.6359 0.0
O48 O 0.42565 0.87185 0.63633 0.0
O49 O 0.4639 0.85497 0.63342 0.0
O50 O 0.44441 0.82592 0.66028 0.0
O51 O 0.47768 0.80251 0.65303 0.0
O52 O 0.42367 0.79196 0.63498 0.0
O53 O 0.39261 0.81976 0.63822 0.0
C54 C 0.44954 0.8747 0.63475 0.0
C55 C 0.39988 0.79681 0.63698 0.0
C56 C 0.18963 0.53929 0.34752 0.0
C57 C 0.18736 0.54924 0.41135 0.0
O58 O 0.20014 0.52569 0.35929 0.0
Zn59 Zn 0.18878 0.54486 0.3794 0.0
O60 O 0.17692 0.55909 0.3521 0.0
Zn61 Zn 0.16735 0.57816 0.37653 0.0
O62 O 0.18338 0.61072 0.37434 0.0
O63 O 0.21096 0.57948 0.37757 0.0
O64 O 0.17552 0.56734 0.40348 0.0
O65 O 0.19796 0.53192 0.40224 0.0
O66 O 0.14763 0.5397 0.37891 0.0
O67 O 0.131 0.57804 0.37609 0.0
C68 C 0.20629 0.6033 0.37564 0.0
C69 C 0.12799 0.55418 0.37761 0.0
C70 C 0.45328 0.18676 0.91083 0.0
C71 C 0.46364 0.18939 0.84701 0.0
O72 O 0.47078 0.19723 0.90184 0.0
Zn73 Zn 0.45788 0.18836 0.87891 0.0
O74 O 0.43505 0.17524 0.90284 0.0
Zn75 Zn 0.42426 0.16745 0.87581 0.0
O76 O 0.42402 0.13106 0.87511 0.0
O77 O 0.46248 0.14728 0.87835 0.0
O78 O 0.44341 0.17727 0.85148 0.0
O79 O 0.47758 0.19917 0.85891 0.0
O80 O 0.42348 0.21103 0.87698 0.0
O81 O 0.39191 0.18379 0.87366 0.0
C82 C 0.44784 0.12781 0.87684 0.0
C83 C 0.39958 0.2066 0.87501 0.0
C84 C 0.81557 0.45267 0.41102 0.0
C85 C 0.81443 0.46346 0.34725 0.0
O86 O 0.80509 0.47009 0.40196 0.0
Zn87 Zn 0.8146 0.45742 0.37909 0.0
O88 O 0.82751 0.43464 0.4031 0.0
Zn89 Zn 0.83605 0.42412 0.37613 0.0
O90 O 0.87242 0.42419 0.37598 0.0
O91 O 0.85576 0.46251 0.37898 0.0
O92 O 0.82702 0.44358 0.3518 0.0
O93 O 0.80364 0.47687 0.35901 0.0
O94 O 0.7924 0.42288 0.37682 0.0
O95 O 0.81997 0.39163 0.37354 0.0
C96 C 0.87542 0.44803 0.37773 0.0
C97 C 0.79706 0.39908 0.37473 0.0
C98 C 0.53934 0.81381 0.84737 0.0
C99 C 0.54992 0.81571 0.91115 0.0
O100 O 0.52594 0.8031 0.85916 0.0
Zn101 Zn 0.54522 0.8145 0.8792 0.0
O102 O 0.55906 0.8267 0.8519 0.0
Zn103 Zn 0.57827 0.83634 0.87628 0.0
O104 O 0.61103 0.82075 0.8738 0.0
O105 O 0.58009 0.79279 0.87692 0.0
O106 O 0.56781 0.82784 0.90324 0.0
O107 O 0.53267 0.80494 0.90207 0.0
O108 O 0.53954 0.85552 0.87892 0.0
O109 O 0.57766 0.87267 0.87598 0.0
C110 C 0.60385 0.79775 0.87489 0.0
C111 C 0.55376 0.87535 0.87764 0.0
C112 C 0.81611 0.55095 0.91105 0.0
C113 C 0.81466 0.54035 0.84726 0.0
O114 O 0.82811 0.56894 0.90316 0.0
Zn115 Zn 0.83654 0.57954 0.87622 0.0
O116 O 0.80544 0.53366 0.90196 0.0
Zn117 Zn 0.81495 0.54632 0.87911 0.0
O118 O 0.85609 0.54107 0.87894 0.0
O119 O 0.8729 0.57932 0.876 0.0
O120 O 0.80387 0.52694 0.859 0.0
O121 O 0.82735 0.56017 0.85184 0.0
O122 O 0.8206 0.61212 0.87377 0.0
O123 O 0.79291 0.58095 0.8769 0.0
C124 C 0.8758 0.55547 0.87769 0.0
C125 C 0.79766 0.60474 0.8749 0.0
C126 C 0.4641 0.81309 0.34732 0.0
C127 C 0.45413 0.81576 0.41117 0.0
O128 O 0.44395 0.82528 0.35188 0.0
Zn129 Zn 0.42507 0.8353 0.37627 0.0
O130 O 0.47817 0.80336 0.35914 0.0
Zn131 Zn 0.45863 0.81423 0.37922 0.0
O132 O 0.42409 0.79175 0.37726 0.0
O133 O 0.39261 0.81913 0.37418 0.0
O134 O 0.47154 0.80522 0.40212 0.0
O135 O 0.43594 0.8274 0.40324 0.0
O136 O 0.42504 0.87168 0.37564 0.0
O137 O 0.46344 0.85529 0.37877 0.0
C138 C 0.40021 0.79628 0.37537 0.0
C139 C 0.44888 0.87483 0.37734 0.0
C140 C 0.18772 0.45446 0.9113 0.0
C141 C 0.18987 0.46469 0.84751 0.0
O142 O 0.17596 0.43632 0.90338 0.0
Zn143 Zn 0.16781 0.42559 0.87639 0.0
O144 O 0.19824 0.47185 0.90225 0.0
Zn145 Zn 0.18908 0.45898 0.87936 0.0
O146 O 0.14792 0.46394 0.87891 0.0
O147 O 0.13145 0.42554 0.87596 0.0
O148 O 0.20032 0.4783 0.85932 0.0
O149 O 0.17727 0.4448 0.85203 0.0
O150 O 0.18397 0.39312 0.87406 0.0
O151 O 0.21142 0.42448 0.87735 0.0
C152 C 0.12834 0.44938 0.87757 0.0
C153 C 0.20685 0.40065 0.87533 0.0
C154 C 0.54962 0.18687 0.4109 0.0
C155 C 0.53905 0.18926 0.3471 0.0
O156 O 0.56768 0.17506 0.40292 0.0
Zn157 Zn 0.57825 0.16695 0.37589 0.0
O158 O 0.53221 0.19745 0.40189 0.0
Zn159 Zn 0.54491 0.18827 0.37897 0.0
O160 O 0.53977 0.14725 0.3785 0.0
O161 O 0.57803 0.13057 0.37528 0.0
O162 O 0.52529 0.19927 0.359 0.0
O163 O 0.55913 0.17689 0.35156 0.0
O164 O 0.61081 0.18286 0.37362 0.0
O165 O 0.57959 0.2105 0.37691 0.0
C166 C 0.55418 0.12759 0.37703 0.0
C167 C 0.60342 0.20577 0.37491 0.0
C168 C 0.81418 0.46399 0.66464 0.0
C169 C 0.81558 0.45273 0.60089 0.0
O170 O 0.82676 0.44407 0.66013 0.0
Zn171 Zn 0.83584 0.4244 0.63586 0.0
O172 O 0.80341 0.47734 0.65284 0.0
Zn173 Zn 0.81439 0.4577 0.63282 0.0
O174 O 0.79218 0.42322 0.63524 0.0
O175 O 0.81971 0.39194 0.63851 0.0
O176 O 0.805 0.47017 0.60989 0.0
O177 O 0.82748 0.43476 0.60887 0.0
O178 O 0.87221 0.42447 0.63612 0.0
O179 O 0.85555 0.46277 0.63305 0.0
C180 C 0.79681 0.39943 0.63738 0.0
C181 C 0.8752 0.44831 0.63438 0.0
C182 C 0.60357 0.79723 0.13713 0.0
C183 C 0.55431 0.87536 0.13464 0.0
O184 O 0.57975 0.79249 0.13506 0.0
Zn185 Zn 0.54507 0.81468 0.13288 0.0
O186 O 0.61094 0.82015 0.13842 0.0
Zn187 Zn 0.57839 0.83603 0.13602 0.0
O188 O 0.55916 0.82619 0.1603 0.0
O189 O 0.52537 0.80373 0.15283 0.0
O190 O 0.57815 0.8724 0.13649 0.0
O191 O 0.53991 0.8557 0.13318 0.0
O192 O 0.53251 0.80533 0.10996 0.0
O193 O 0.56803 0.82769 0.10897 0.0
C194 C 0.53908 0.81381 0.16474 0.0
C195 C 0.55002 0.81582 0.10098 0.0
C196 C 0.1872 0.54969 0.60118 0.0
C197 C 0.18958 0.53966 0.66499 0.0
O198 O 0.17523 0.56769 0.6091 0.0
Zn199 Zn 0.16704 0.57844 0.63609 0.0
O200 O 0.19802 0.53248 0.61024 0.0
Zn201 Zn 0.18874 0.54531 0.63311 0.0
O202 O 0.14763 0.53985 0.63351 0.0
O203 O 0.1307 0.57804 0.6365 0.0
O204 O 0.20021 0.52618 0.65319 0.0
O205 O 0.17672 0.55938 0.66045 0.0
O206 O 0.18281 0.61111 0.63835 0.0
O207 O 0.21064 0.5801 0.63501 0.0
C208 C 0.12788 0.55417 0.63484 0.0
C209 C 0.20578 0.60388 0.63701 0.0
C210 C 0.44854 0.12791 0.13457 0.0
C211 C 0.39958 0.20627 0.13652 0.0
O212 O 0.46304 0.14751 0.13317 0.0
Zn213 Zn 0.45807 0.18854 0.13268 0.0
O214 O 0.42468 0.13097 0.1362 0.0
Zn215 Zn 0.42459 0.16736 0.13562 0.0
O216 O 0.43538 0.17541 0.10865 0.0
O217 O 0.47098 0.1976 0.1098 0.0
O218 O 0.39207 0.18339 0.13775 0.0
O219 O 0.42345 0.2109 0.13462 0.0
O220 O 0.47754 0.19952 0.15277 0.0
O221 O 0.44347 0.17735 0.16002 0.0
C222 C 0.45355 0.18711 0.10073 0.0
C223 C 0.46356 0.18964 0.16459 0.0
H224 H 0.11442 0.49921 0.13357 0.0
H225 H 0.07133 0.51701 0.13352 0.0
H226 H 0.0398 0.44124 0.13471 0.0
H227 H 0.08269 0.42328 0.13508 0.0
H228 H 0.03221 0.50987 0.10938 0.0
H229 H 0.00356 0.4758 0.17579 0.0
H230 H 0.03626 0.47574 0.16843 0.0
H231 H 0.0148 0.45103 0.16143 0.0
C232 C 0.09832 0.48632 0.13388 0.0
C233 C 0.10201 0.45982 0.13445 0.0
C234 C 0.07373 0.49653 0.13384 0.0
C235 C 0.05239 0.48045 0.13442 0.0
C236 C 0.056 0.454 0.13468 0.0
H237 H 0.88876 0.50446 0.13253 0.0
H238 H 0.9318 0.48652 0.13198 0.0
C239 C 0.08056 0.44378 0.13479 0.0
C240 C 0.02635 0.49132 0.13438 0.0
H241 H 0.97091 0.49353 0.15791 0.0
C242 C 0.01883 0.50642 0.12003 0.0
C243 C 0.00895 0.48674 0.14829 0.0
C244 C 0.01632 0.47165 0.16444 0.0
C245 C 0.99421 0.51674 0.11906 0.0
C246 C 0.97681 0.51206 0.13293 0.0
C247 C 0.9843 0.49696 0.14728 0.0
C248 C 0.95083 0.523 0.13294 0.0
C249 C 0.98684 0.53217 0.10307 0.0
C250 C 0.94736 0.54943 0.13383 0.0
C251 C 0.92284 0.55975 0.13418 0.0
C252 C 0.90132 0.54379 0.13369 0.0
C253 C 0.9049 0.51728 0.13286 0.0
C254 C 0.92946 0.50699 0.13257 0.0
H255 H 1.00004 0.52887 0.09183 0.0
H256 H 0.96716 0.52754 0.09877 0.0
H257 H 0.9875 0.5527 0.10647 0.0
H258 H 0.96362 0.56208 0.13444 0.0
H259 H 0.92078 0.58023 0.13489 0.0
H260 H 0.50001 0.88784 0.63374 0.0
H261 H 0.51821 0.93075 0.63383 0.0
H262 H 0.44265 0.96289 0.63488 0.0
H263 H 0.4243 0.92019 0.6351 0.0
H264 H 0.51161 0.96998 0.60977 0.0
H265 H 0.47721 0.9987 0.67612 0.0
H266 H 0.47694 0.96605 0.66868 0.0
H267 H 0.4524 0.9877 0.6617 0.0
C268 C 0.48726 0.90403 0.63405 0.0
C269 C 0.4607 0.90058 0.63454 0.0
C270 C 0.49769 0.92853 0.63409 0.0
C271 C 0.48178 0.94997 0.63467 0.0
C272 C 0.45528 0.94659 0.63485 0.0
H273 H 0.50537 0.11326 0.63254 0.0
H274 H 0.4878 0.0701 0.63211 0.0
C275 C 0.44484 0.92215 0.63488 0.0
C276 C 0.49286 0.97592 0.63472 0.0
H277 H 0.495 0.03135 0.65825 0.0
C278 C 0.50812 0.98336 0.62042 0.0
C279 C 0.48824 0.99332 0.64863 0.0
C280 C 0.47301 0.98602 0.66474 0.0
C281 C 0.5185 0.00795 0.61948 0.0
C282 C 0.51371 0.02538 0.63331 0.0
C283 C 0.49852 0.01794 0.64764 0.0
C284 C 0.52447 0.05142 0.63327 0.0
C285 C 0.53406 0.01527 0.60352 0.0
C286 C 0.55088 0.05513 0.63423 0.0
C287 C 0.56099 0.07973 0.63451 0.0
C288 C 0.54483 0.10108 0.63388 0.0
C289 C 0.51835 0.09725 0.63298 0.0
C290 C 0.50826 0.07263 0.63276 0.0
H291 H 0.53099 0.00195 0.59232 0.0
H292 H 0.52932 0.03486 0.59913 0.0
H293 H 0.55458 0.01483 0.60703 0.0
H294 H 0.56367 0.03899 0.63494 0.0
H295 H 0.58146 0.08199 0.63528 0.0
H296 H 0.11451 0.50383 0.37844 0.0
H297 H 0.07146 0.48592 0.37838 0.0
H298 H 0.03977 0.56164 0.37767 0.0
H299 H 0.08262 0.5797 0.37742 0.0
H300 H 0.03236 0.4926 0.40255 0.0
H301 H 0.00352 0.5276 0.33642 0.0
H302 H 0.03623 0.52766 0.34376 0.0
H303 H 0.0147 0.5522 0.35094 0.0
C304 C 0.09839 0.51668 0.37821 0.0
C305 C 0.10202 0.5432 0.37781 0.0
C306 C 0.07381 0.50641 0.37818 0.0
C307 C 0.05245 0.52245 0.37771 0.0
C308 C 0.056 0.54891 0.37762 0.0
H309 H 0.88886 0.49833 0.3796 0.0
H310 H 0.93191 0.51625 0.38017 0.0
C311 C 0.08053 0.55919 0.37757 0.0
C312 C 0.02642 0.51152 0.37769 0.0
H313 H 0.97091 0.5096 0.35422 0.0
C314 C 0.01896 0.49619 0.39194 0.0
C315 C 0.00898 0.51629 0.36384 0.0
C316 C 0.01628 0.53163 0.34779 0.0
C317 C 0.99435 0.48583 0.39287 0.0
C318 C 0.9769 0.4907 0.37906 0.0
C319 C 0.98434 0.50602 0.36481 0.0
C320 C 0.95092 0.47976 0.37902 0.0
C321 C 0.98705 0.47016 0.40876 0.0
C322 C 0.94742 0.45334 0.37799 0.0
C323 C 0.92289 0.44304 0.37763 0.0
C324 C 0.90139 0.459 0.37823 0.0
C325 C 0.90499 0.4855 0.37918 0.0
C326 C 0.92956 0.49578 0.37949 0.0
H327 H 1.00026 0.47332 0.42001 0.0
H328 H 0.96736 0.47469 0.41311 0.0
H329 H 0.98773 0.44967 0.40521 0.0
H330 H 0.96368 0.44069 0.3773 0.0
H331 H 0.92082 0.42257 0.37683 0.0
H332 H 0.57867 0.92103 0.87719 0.0
H333 H 0.56001 0.96361 0.87764 0.0
H334 H 0.48471 0.93086 0.87889 0.0
H335 H 0.5032 0.88812 0.87875 0.0
H336 H 0.52733 0.98542 0.85352 0.0
H337 H 0.48238 0.98123 0.91979 0.0
H338 H 0.50578 0.95832 0.91254 0.0
H339 H 0.47327 0.95574 0.90531 0.0
C340 C 0.55813 0.92284 0.87765 0.0
C341 C 0.54242 0.90115 0.87801 0.0
C342 C 0.54751 0.9472 0.8779 0.0
C343 C 0.521 0.9504 0.87856 0.0
C344 C 0.50524 0.92882 0.87877 0.0
H345 H 0.42205 0.08259 0.87572 0.0
H346 H 0.43998 0.03962 0.87586 0.0
C347 C 0.51584 0.90441 0.87859 0.0
C348 C 0.50993 0.97634 0.87848 0.0
H349 H 0.47235 0.01709 0.90207 0.0
C350 C 0.5154 0.9924 0.86417 0.0
C351 C 0.49435 0.98536 0.89239 0.0
C352 C 0.48875 0.96938 0.90846 0.0
C353 C 0.50542 0.01713 0.86327 0.0
C354 C 0.48984 0.02612 0.87716 0.0
C355 C 0.48429 0.01007 0.89144 0.0
C356 C 0.47916 0.05218 0.87712 0.0
C357 C 0.51123 0.03331 0.84732 0.0
C358 C 0.49529 0.07344 0.878 0.0
C359 C 0.48513 0.09803 0.87795 0.0
C360 C 0.45863 0.10178 0.87706 0.0
C361 C 0.44254 0.08039 0.87635 0.0
C362 C 0.45272 0.05582 0.87646 0.0
H363 H 0.51839 0.02171 0.83609 0.0
H364 H 0.49403 0.04388 0.84297 0.0
H365 H 0.52613 0.04743 0.85081 0.0
H366 H 0.51574 0.07099 0.87881 0.0
H367 H 0.49805 0.11407 0.87858 0.0
H368 H 0.88903 0.5051 0.87929 0.0
H369 H 0.93201 0.48702 0.8799 0.0
H370 H 0.96408 0.56249 0.87755 0.0
H371 H 0.9213 0.58077 0.87704 0.0
H372 H 0.97131 0.49386 0.85408 0.0
H373 H 1.00011 0.52926 0.92027 0.0
H374 H 0.96727 0.52799 0.91323 0.0
H375 H 0.98772 0.5531 0.90562 0.0
C376 C 0.90522 0.51787 0.87899 0.0
C377 C 0.90172 0.54439 0.87818 0.0
C378 C 0.92974 0.5075 0.87932 0.0
C379 C 0.95116 0.52345 0.87901 0.0
C380 C 0.94777 0.54989 0.87812 0.0
H381 H 0.11467 0.49966 0.87872 0.0
H382 H 0.07156 0.51739 0.8787 0.0
C383 C 0.92329 0.56028 0.87773 0.0
C384 C 0.97711 0.51244 0.87909 0.0
H385 H 0.03237 0.51023 0.90278 0.0
C386 C 0.98465 0.4973 0.86476 0.0
C387 C 0.99443 0.51711 0.89301 0.0
C388 C 0.987 0.53257 0.909 0.0
C389 C 0.00929 0.48704 0.8638 0.0
C390 C 0.02663 0.49164 0.87775 0.0
C391 C 0.01905 0.50677 0.8921 0.0
C392 C 0.05268 0.48081 0.87775 0.0
C393 C 0.01673 0.4719 0.84766 0.0
C394 C 0.05633 0.45436 0.87748 0.0
C395 C 0.0809 0.44417 0.87742 0.0
C396 C 0.10232 0.46025 0.87781 0.0
C397 C 0.0986 0.48675 0.87837 0.0
C398 C 0.07399 0.49692 0.87837 0.0
H399 H 0.00401 0.476 0.83629 0.0
H400 H 0.03668 0.47601 0.84371 0.0
H401 H 0.01523 0.45129 0.85067 0.0
H402 H 0.04015 0.44157 0.87742 0.0
H403 H 0.08307 0.42368 0.87713 0.0
H404 H 0.57948 0.08211 0.37601 0.0
H405 H 0.56111 0.03934 0.37616 0.0
H406 H 0.48566 0.07147 0.37895 0.0
H407 H 0.5038 0.11438 0.37871 0.0
H408 H 0.52839 0.01726 0.40238 0.0
H409 H 0.4827 0.02206 0.33627 0.0
H410 H 0.50726 0.04402 0.34314 0.0
H411 H 0.47521 0.04785 0.35099 0.0
C412 C 0.55896 0.08013 0.37661 0.0
C413 C 0.54309 0.10168 0.37727 0.0
C414 C 0.54852 0.05566 0.37672 0.0
C415 C 0.52205 0.0523 0.37735 0.0
C416 C 0.50614 0.07371 0.37818 0.0
H417 H 0.42323 0.92012 0.37664 0.0
H418 H 0.44123 0.96302 0.37726 0.0
C419 C 0.51655 0.0982 0.37812 0.0
C420 C 0.51114 0.02633 0.3774 0.0
H421 H 0.47393 0.98562 0.35354 0.0
C422 C 0.51654 0.01027 0.3917 0.0
C423 C 0.49566 0.01737 0.36344 0.0
C424 C 0.48997 0.03359 0.3475 0.0
C425 C 0.50651 0.98553 0.39256 0.0
C426 C 0.49114 0.9765 0.37855 0.0
C427 C 0.48572 0.9926 0.36426 0.0
C428 C 0.48042 0.9504 0.37844 0.0
C429 C 0.51199 0.96953 0.40865 0.0
C430 C 0.49651 0.92907 0.37871 0.0
C431 C 0.48628 0.9045 0.37842 0.0
C432 C 0.45977 0.90082 0.37769 0.0
C433 C 0.44373 0.92226 0.37723 0.0
C434 C 0.45397 0.9468 0.37757 0.0
H435 H 0.51798 0.9814 0.42006 0.0
H436 H 0.49503 0.95822 0.41253 0.0
H437 H 0.52773 0.95612 0.40561 0.0
H438 H 0.517 0.93142 0.37896 0.0
H439 H 0.49918 0.88842 0.37866 0.0
H440 H 0.92066 0.42296 0.6357 0.0
H441 H 0.96349 0.44123 0.63562 0.0
H442 H 0.93152 0.51663 0.63203 0.0
H443 H 0.88854 0.49859 0.63223 0.0
H444 H 0.98629 0.47313 0.6095 0.0
H445 H 0.98003 0.52051 0.67499 0.0
H446 H 0.95803 0.49601 0.66811 0.0
H447 H 0.95466 0.52791 0.65992 0.0
C448 C 0.92269 0.44344 0.63493 0.0
C449 C 0.90115 0.45933 0.63406 0.0
C450 C 0.94719 0.45382 0.63486 0.0
C451 C 0.95062 0.48026 0.63405 0.0
C452 C 0.92923 0.49618 0.63297 0.0
H453 H 0.08234 0.57938 0.63482 0.0
H454 H 0.03961 0.56103 0.63403 0.0
C455 C 0.9047 0.48583 0.63299 0.0
C456 C 0.97663 0.49111 0.63415 0.0
H457 H 0.01682 0.52897 0.65793 0.0
C458 C 0.99305 0.48528 0.6201 0.0
C459 C 0.98528 0.50696 0.648 0.0
C460 C 0.96871 0.51311 0.6637 0.0
C461 C 0.01782 0.49527 0.61936 0.0
C462 C 0.02653 0.51106 0.63325 0.0
C463 C 0.01009 0.51686 0.6473 0.0
C464 C 0.05257 0.52195 0.63344 0.0
C465 C 0.03421 0.48931 0.60352 0.0
C466 C 0.07405 0.50604 0.63354 0.0
C467 C 0.09855 0.51647 0.63392 0.0
C468 C 0.10199 0.54301 0.63438 0.0
C469 C 0.08039 0.55886 0.63446 0.0
C470 C 0.05594 0.54842 0.63401 0.0
H471 H 0.02261 0.48291 0.59208 0.0
H472 H 0.04555 0.50618 0.59949 0.0
H473 H 0.04762 0.47375 0.60694 0.0
H474 H 0.07187 0.48554 0.63352 0.0
H475 H 0.11476 0.50373 0.63398 0.0
H476 H 0.42308 0.08249 0.13514 0.0
H477 H 0.44134 0.03966 0.13506 0.0
H478 H 0.51693 0.07161 0.13326 0.0
H479 H 0.49891 0.11456 0.13342 0.0
H480 H 0.4748 0.0176 0.10912 0.0
H481 H 0.51849 0.02206 0.1759 0.0
H482 H 0.49412 0.04402 0.16877 0.0
H483 H 0.52639 0.04794 0.1614 0.0
C484 C 0.4436 0.08045 0.13477 0.0
C485 C 0.45955 0.10197 0.13436 0.0
C486 C 0.45397 0.05596 0.1347 0.0
C487 C 0.48045 0.05253 0.13437 0.0
C488 C 0.49644 0.0739 0.1338 0.0
H489 H 0.57963 0.92082 0.13574 0.0
H490 H 0.56137 0.96359 0.13507 0.0
C491 C 0.4861 0.09842 0.1338 0.0
C492 C 0.49131 0.02653 0.13439 0.0
H493 H 0.52787 0.98574 0.15858 0.0
C494 C 0.48634 0.01055 0.11994 0.0
C495 C 0.50637 0.01751 0.14852 0.0
C496 C 0.51155 0.03364 0.16462 0.0
C497 C 0.49644 0.98584 0.11911 0.0
C498 C 0.51144 0.97675 0.13329 0.0
C499 C 0.51637 0.99277 0.14773 0.0
C500 C 0.5223 0.95072 0.13339 0.0
C501 C 0.49147 0.96992 0.10288 0.0
C502 C 0.50636 0.92929 0.13285 0.0
C503 C 0.51674 0.90479 0.13316 0.0
C504 C 0.54325 0.90128 0.1342 0.0
C505 C 0.55914 0.92282 0.13491 0.0
C506 C 0.54875 0.94729 0.13454 0.0
H507 H 0.48567 0.98183 0.09145 0.0
H508 H 0.50861 0.95877 0.09914 0.0
H509 H 0.47577 0.95637 0.10567 0.0
H510 H 0.48587 0.93151 0.13235 0.0
H511 H 0.50395 0.88862 0.13272 0.0
H512 H 0.22444 0.50762 0.33208 0.0
H513 H 0.22742 0.49578 0.3009 0.0
H514 H 0.16133 0.54175 0.2895 0.0
H515 H 0.15898 0.55452 0.32046 0.0
H516 H 0.19646 0.47051 0.28064 0.0
H517 H 0.20785 0.56643 0.25185 0.0
H518 H 0.21 0.56078 0.27528 0.0
H519 H 0.17938 0.56441 0.26481 0.0
C520 C 0.2107 0.51537 0.32288 0.0
C521 C 0.19161 0.53217 0.32868 0.0
C522 C 0.2124 0.50859 0.30507 0.0
C523 C 0.19492 0.51827 0.29274 0.0
C524 C 0.17557 0.53469 0.2986 0.0
H525 H 0.15894 0.44892 0.19202 0.0
H526 H 0.16132 0.46178 0.22296 0.0
C527 C 0.17412 0.54183 0.31635 0.0
C528 C 0.19627 0.51035 0.27392 0.0
H529 H 0.19619 0.53317 0.23174 0.0
C530 C 0.19666 0.48423 0.26996 0.0
C531 C 0.19703 0.5282 0.25994 0.0
C532 C 0.19883 0.5565 0.26319 0.0
C533 C 0.19712 0.47548 0.25245 0.0
C534 C 0.19621 0.49333 0.23847 0.0
C535 C 0.19651 0.51945 0.24243 0.0
C536 C 0.19481 0.48539 0.21965 0.0
C537 C 0.19904 0.44719 0.24919 0.0
C538 C 0.2122 0.49513 0.20729 0.0
C539 C 0.21047 0.48829 0.18948 0.0
C540 C 0.19145 0.47139 0.18373 0.0
C541 C 0.17403 0.46169 0.1961 0.0
C542 C 0.1755 0.46888 0.21383 0.0
H543 H 0.20815 0.4373 0.26051 0.0
H544 H 0.17962 0.43919 0.24761 0.0
H545 H 0.21017 0.44296 0.23708 0.0
H546 H 0.22718 0.50801 0.21142 0.0
H547 H 0.22417 0.49608 0.18026 0.0
H548 H 0.49773 0.21191 0.67879 0.0
H549 H 0.48526 0.21371 0.70988 0.0
H550 H 0.55244 0.1712 0.72411 0.0
H551 H 0.56492 0.16902 0.69306 0.0
H552 H 0.50829 0.15238 0.7393 0.0
H553 H 0.51625 0.25668 0.74961 0.0
H554 H 0.49657 0.24772 0.73123 0.0
H555 H 0.53008 0.24071 0.7308 0.0
C556 C 0.50995 0.20308 0.68854 0.0
C557 C 0.53236 0.19036 0.68343 0.0
C558 C 0.50286 0.20426 0.70631 0.0
C559 C 0.5181 0.19289 0.71932 0.0
C560 C 0.54047 0.18021 0.71428 0.0
H561 H 0.50692 0.21044 0.83308 0.0
H562 H 0.51994 0.21132 0.80208 0.0
C563 C 0.54758 0.17901 0.69652 0.0
C564 C 0.51025 0.19327 0.73811 0.0
H565 H 0.4968 0.2329 0.77264 0.0
C566 C 0.50584 0.16997 0.74662 0.0
C567 C 0.50736 0.21624 0.74766 0.0
C568 C 0.51303 0.24177 0.73944 0.0
C569 C 0.49828 0.16901 0.76437 0.0
C570 C 0.4946 0.19201 0.77377 0.0
C571 C 0.49938 0.21531 0.76535 0.0
C572 C 0.48618 0.19221 0.79245 0.0
C573 C 0.49475 0.14336 0.77298 0.0
C574 C 0.46265 0.18163 0.79726 0.0
C575 C 0.45518 0.181 0.81496 0.0
C576 C 0.47103 0.19116 0.82818 0.0
C577 C 0.49429 0.20239 0.82325 0.0
C578 C 0.50176 0.20294 0.80554 0.0
H579 H 0.50466 0.12803 0.76555 0.0
H580 H 0.50197 0.1435 0.78676 0.0
H581 H 0.47415 0.13865 0.77332 0.0
H582 H 0.45008 0.17375 0.78732 0.0
H583 H 0.43706 0.17239 0.81828 0.0
H584 H 0.84578 0.55431 0.19139 0.0
H585 H 0.8447 0.54072 0.22221 0.0
H586 H 0.7782 0.49499 0.21142 0.0
H587 H 0.7799 0.50763 0.18037 0.0
H588 H 0.81126 0.54691 0.24731 0.0
H589 H 0.82181 0.44346 0.23531 0.0
H590 H 0.8259 0.46669 0.21805 0.0
H591 H 0.79446 0.45647 0.22441 0.0
C592 C 0.83097 0.54129 0.19557 0.0
C593 C 0.81305 0.53187 0.18344 0.0
C594 C 0.83036 0.53354 0.2132 0.0
C595 C 0.81168 0.51642 0.2191 0.0
C596 C 0.79329 0.50757 0.2071 0.0
H597 H 0.77996 0.49521 0.33153 0.0
H598 H 0.77823 0.50783 0.30048 0.0
C599 C 0.79416 0.51496 0.18938 0.0
C600 C 0.81134 0.50822 0.23788 0.0
H601 H 0.81128 0.45592 0.26459 0.0
C602 C 0.81136 0.52701 0.25109 0.0
C603 C 0.81187 0.48224 0.24283 0.0
C604 C 0.81378 0.46107 0.22941 0.0
C605 C 0.81187 0.52059 0.26907 0.0
C606 C 0.81135 0.49461 0.27402 0.0
C607 C 0.81138 0.47583 0.26081 0.0
C608 C 0.81171 0.48642 0.2928 0.0
C609 C 0.81379 0.54176 0.28249 0.0
C610 C 0.83039 0.46929 0.2987 0.0
C611 C 0.83101 0.46155 0.31633 0.0
C612 C 0.8131 0.47098 0.32847 0.0
C613 C 0.79421 0.48788 0.32253 0.0
C614 C 0.79332 0.49526 0.3048 0.0
H615 H 0.82182 0.55938 0.27658 0.0
H616 H 0.79447 0.54636 0.28749 0.0
H617 H 0.82592 0.53615 0.29384 0.0
H618 H 0.84472 0.46211 0.28969 0.0
H619 H 0.84583 0.44854 0.32051 0.0
H620 H 0.50792 0.77873 0.83198 0.0
H621 H 0.49605 0.77558 0.80082 0.0
H622 H 0.54137 0.84207 0.78935 0.0
H623 H 0.55417 0.8446 0.82029 0.0
H624 H 0.47044 0.80624 0.78056 0.0
H625 H 0.56655 0.79568 0.75172 0.0
H626 H 0.5609 0.79353 0.77515 0.0
H627 H 0.56425 0.82414 0.76467 0.0
C628 C 0.51552 0.79253 0.82277 0.0
C629 C 0.53215 0.81178 0.82855 0.0
C630 C 0.50872 0.79073 0.80497 0.0
C631 C 0.51822 0.80827 0.79263 0.0
C632 C 0.53446 0.82779 0.79847 0.0
H633 H 0.4487 0.84355 0.69197 0.0
H634 H 0.46153 0.84123 0.72291 0.0
C635 C 0.54161 0.82934 0.8162 0.0
C636 C 0.51031 0.80678 0.77382 0.0
H637 H 0.53315 0.80693 0.73162 0.0
C638 C 0.48418 0.80613 0.76987 0.0
C639 C 0.52819 0.80614 0.75982 0.0
C640 C 0.55652 0.80462 0.76306 0.0
C641 C 0.47543 0.80555 0.75237 0.0
C642 C 0.49329 0.80658 0.73837 0.0
C643 C 0.51943 0.80652 0.74232 0.0
C644 C 0.48534 0.8079 0.71957 0.0
C645 C 0.44715 0.80338 0.74912 0.0
C646 C 0.49518 0.79056 0.70719 0.0
C647 C 0.48834 0.79223 0.68939 0.0
C648 C 0.47135 0.81117 0.68365 0.0
C649 C 0.46155 0.82853 0.69603 0.0
C650 C 0.46872 0.8271 0.71377 0.0
H651 H 0.43731 0.79423 0.76045 0.0
H652 H 0.43898 0.82272 0.74753 0.0
H653 H 0.44301 0.79219 0.73702 0.0
H654 H 0.50814 0.77566 0.71132 0.0
H655 H 0.49622 0.77859 0.68016 0.0
H656 H 0.78008 0.50867 0.83154 0.0
H657 H 0.77822 0.49607 0.80047 0.0
H658 H 0.84471 0.54174 0.78963 0.0
H659 H 0.84596 0.55529 0.82048 0.0
H660 H 0.81116 0.5479 0.76457 0.0
H661 H 0.82176 0.44447 0.7765 0.0
H662 H 0.79445 0.45751 0.78746 0.0
H663 H 0.82592 0.46774 0.79376 0.0
C664 C 0.7943 0.516 0.82252 0.0
C665 C 0.81324 0.53287 0.82846 0.0
C666 C 0.79333 0.50863 0.80479 0.0
C667 C 0.81168 0.51746 0.79276 0.0
C668 C 0.8304 0.53457 0.79866 0.0
H669 H 0.84563 0.44927 0.69137 0.0
H670 H 0.84456 0.46301 0.72217 0.0
C671 C 0.8311 0.5423 0.8163 0.0
C672 C 0.81127 0.50923 0.77398 0.0
H673 H 0.81114 0.45686 0.74725 0.0
C674 C 0.81125 0.52798 0.76078 0.0
C675 C 0.81179 0.48324 0.76902 0.0
C676 C 0.81375 0.4621 0.78243 0.0
C677 C 0.8117 0.52152 0.7428 0.0
C678 C 0.81118 0.49553 0.73783 0.0
C679 C 0.81124 0.47678 0.75104 0.0
C680 C 0.81153 0.48728 0.71906 0.0
C681 C 0.81357 0.54266 0.72938 0.0
C682 C 0.79313 0.49606 0.70705 0.0
C683 C 0.794 0.48859 0.68934 0.0
C684 C 0.81288 0.47165 0.6834 0.0
C685 C 0.83081 0.4623 0.69554 0.0
C686 C 0.83021 0.47014 0.71316 0.0
H687 H 0.82158 0.5603 0.73529 0.0
H688 H 0.82569 0.53703 0.71802 0.0
H689 H 0.79424 0.54722 0.72439 0.0
H690 H 0.77804 0.50866 0.71137 0.0
H691 H 0.77973 0.49587 0.68033 0.0
H692 H 0.43702 0.82981 0.31878 0.0
H693 H 0.44918 0.82763 0.28768 0.0
H694 H 0.51934 0.79027 0.30194 0.0
H695 H 0.50717 0.79195 0.33308 0.0
H696 H 0.49086 0.84921 0.27196 0.0
H697 H 0.49215 0.74444 0.26282 0.0
H698 H 0.47754 0.7595 0.28171 0.0
H699 H 0.51152 0.75535 0.28083 0.0
C700 C 0.45495 0.82092 0.31531 0.0
C701 C 0.47109 0.81099 0.32843 0.0
C702 C 0.46187 0.81972 0.29753 0.0
C703 C 0.485 0.80849 0.29247 0.0
C704 C 0.50115 0.79852 0.30551 0.0
H705 H 0.56408 0.83334 0.19339 0.0
H706 H 0.55099 0.83158 0.22432 0.0
C707 C 0.49422 0.79963 0.32331 0.0
C708 C 0.49269 0.80834 0.27364 0.0
H709 H 0.50958 0.7693 0.23951 0.0
C710 C 0.49487 0.83174 0.26484 0.0
C711 C 0.49763 0.7855 0.26433 0.0
C712 C 0.49437 0.75975 0.27283 0.0
C713 C 0.50223 0.83296 0.24706 0.0
C714 C 0.50799 0.81018 0.23793 0.0
C715 C 0.50541 0.78675 0.24662 0.0
C716 C 0.51644 0.81034 0.21927 0.0
C717 C 0.50337 0.8586 0.23813 0.0
C718 C 0.50175 0.7983 0.20624 0.0
C719 C 0.50923 0.79914 0.18854 0.0
C720 C 0.53164 0.81194 0.18356 0.0
C721 C 0.54663 0.82346 0.19673 0.0
C722 C 0.53912 0.8226 0.21442 0.0
H723 H 0.49224 0.87318 0.24545 0.0
H724 H 0.52346 0.86508 0.23757 0.0
H725 H 0.496 0.85746 0.22442 0.0
H726 H 0.48424 0.78863 0.20974 0.0
H727 H 0.4973 0.78999 0.17874 0.0
H728 H 0.15939 0.44928 0.82038 0.0
H729 H 0.16174 0.46208 0.78945 0.0
H730 H 0.22746 0.50853 0.80102 0.0
H731 H 0.22447 0.49666 0.83218 0.0
H732 H 0.19637 0.53357 0.78074 0.0
H733 H 0.20862 0.43772 0.75186 0.0
H734 H 0.18008 0.43953 0.76477 0.0
H735 H 0.21064 0.44341 0.77529 0.0
C736 C 0.17445 0.46209 0.81631 0.0
C737 C 0.19183 0.47187 0.82869 0.0
C738 C 0.17589 0.46925 0.79858 0.0
C739 C 0.19515 0.4858 0.79278 0.0
C740 C 0.21252 0.49561 0.80515 0.0
H741 H 0.22453 0.50811 0.68035 0.0
H742 H 0.22761 0.49627 0.71151 0.0
C743 C 0.21081 0.48881 0.82295 0.0
C744 C 0.19652 0.49372 0.77397 0.0
H745 H 0.19677 0.47087 0.73177 0.0
C746 C 0.19672 0.51984 0.77004 0.0
C747 C 0.19747 0.47587 0.75997 0.0
C748 C 0.19948 0.44759 0.76319 0.0
C749 C 0.19718 0.52858 0.75254 0.0
C750 C 0.19646 0.51072 0.73853 0.0
C751 C 0.19695 0.4846 0.74247 0.0
C752 C 0.19503 0.51862 0.71973 0.0
C753 C 0.19888 0.55688 0.74932 0.0
C754 C 0.1756 0.53495 0.71391 0.0
C755 C 0.17409 0.5421 0.69618 0.0
C756 C 0.1916 0.53252 0.68381 0.0
C757 C 0.21077 0.5158 0.68957 0.0
C758 C 0.21253 0.50901 0.70737 0.0
H759 H 0.20788 0.56686 0.76066 0.0
H760 H 0.21 0.56119 0.73722 0.0
H761 H 0.17939 0.56472 0.74772 0.0
H762 H 0.16135 0.54195 0.72303 0.0
H763 H 0.15889 0.55473 0.6921 0.0
H764 H 0.49666 0.21201 0.33315 0.0
H765 H 0.4836 0.21322 0.30215 0.0
H766 H 0.55163 0.1724 0.28746 0.0
H767 H 0.5647 0.17076 0.3184 0.0
H768 H 0.50793 0.23352 0.27257 0.0
H769 H 0.49463 0.12913 0.266 0.0
H770 H 0.49801 0.14468 0.28712 0.0
H771 H 0.52561 0.13828 0.27379 0.0
C772 C 0.50888 0.20331 0.32333 0.0
C773 C 0.53164 0.19111 0.32828 0.0
C774 C 0.50139 0.20405 0.30562 0.0
C775 C 0.51644 0.19254 0.29256 0.0
C776 C 0.53948 0.18094 0.29738 0.0
H777 H 0.50603 0.21194 0.17885 0.0
H778 H 0.51834 0.21359 0.20997 0.0
C779 C 0.54697 0.18014 0.31508 0.0
C780 C 0.50799 0.19259 0.27389 0.0
H781 H 0.49229 0.15336 0.23963 0.0
C782 C 0.50444 0.21602 0.26536 0.0
C783 C 0.5031 0.16972 0.26461 0.0
C784 C 0.50528 0.14402 0.27337 0.0
C785 C 0.49654 0.21718 0.24766 0.0
C786 C 0.49247 0.19429 0.23822 0.0
C787 C 0.49563 0.17088 0.24685 0.0
C788 C 0.48468 0.1941 0.2194 0.0
C789 C 0.49221 0.2429 0.23933 0.0
C790 C 0.4619 0.1822 0.21434 0.0
C791 C 0.45489 0.18104 0.19657 0.0
C792 C 0.47061 0.19168 0.18348 0.0
C793 C 0.4934 0.20369 0.1886 0.0
C794 C 0.50042 0.20479 0.20639 0.0
H795 H 0.48952 0.258 0.24944 0.0
H796 H 0.50907 0.24803 0.23126 0.0
H797 H 0.47528 0.2426 0.23055 0.0
H798 H 0.44954 0.17373 0.22417 0.0
H799 H 0.43723 0.17163 0.19309 0.0
H800 H 0.16729 0.42018 0.93443 0.0
H801 H 0.16872 0.42138 0.96666 0.0
H802 H 0.21235 0.49086 0.96471 0.0
H803 H 0.2108 0.49002 0.93243 0.0
H804 H 0.21174 0.4215 0.98882 0.0
H805 H 0.15317 0.50864 0.99802 0.0
H806 H 0.15426 0.49144 0.97739 0.0
H807 H 0.17999 0.51219 0.98351 0.0
C808 C 0.17714 0.43578 0.94083 0.0
C809 C 0.18883 0.45508 0.93084 0.0
C810 C 0.17795 0.43641 0.95925 0.0
C811 C 0.19033 0.45638 0.96806 0.0
C812 C 0.20228 0.47553 0.95816 0.0
H813 H 0.21048 0.48935 0.08004 0.0
H814 H 0.21242 0.48992 0.04775 0.0
C815 C 0.20148 0.47493 0.93971 0.0
C816 C 0.19105 0.45684 0.98761 0.0
H817 H 0.1717 0.49081 0.02364 0.0
C818 C 0.20298 0.43663 0.99645 0.0
C819 C 0.17968 0.47667 0.99749 0.0
C820 C 0.16585 0.49839 0.98868 0.0
C821 C 0.20394 0.43577 0.01495 0.0
C822 C 0.19227 0.45542 0.02484 0.0
C823 C 0.18063 0.47579 0.016 0.0
C824 C 0.19137 0.45485 0.04439 0.0
C825 C 0.21772 0.414 0.02375 0.0
C826 C 0.17863 0.4351 0.05316 0.0
C827 C 0.17748 0.4347 0.07158 0.0
C828 C 0.18894 0.45414 0.08159 0.0
C829 C 0.20152 0.47404 0.07274 0.0
C830 C 0.20264 0.47442 0.05429 0.0
H831 H 0.23131 0.40458 0.0146 0.0
H832 H 0.22831 0.42063 0.03558 0.0
H833 H 0.20361 0.39955 0.02804 0.0
H834 H 0.16935 0.4201 0.04575 0.0
H835 H 0.16752 0.41917 0.07796 0.0
H836 H 0.58382 0.16609 0.43397 0.0
H837 H 0.58273 0.16745 0.46621 0.0
H838 H 0.5136 0.21168 0.46438 0.0
H839 H 0.51433 0.2102 0.4321 0.0
H840 H 0.58308 0.2103 0.48848 0.0
H841 H 0.49528 0.15268 0.49757 0.0
H842 H 0.51244 0.15368 0.47693 0.0
H843 H 0.49194 0.17957 0.48313 0.0
C844 C 0.56832 0.17606 0.44039 0.0
C845 C 0.54909 0.18794 0.43044 0.0
C846 C 0.56776 0.17683 0.45882 0.0
C847 C 0.5479 0.18935 0.46767 0.0
C848 C 0.52883 0.20149 0.45781 0.0
H849 H 0.51486 0.2097 0.57959 0.0
H850 H 0.51441 0.2116 0.5473 0.0
C851 C 0.52936 0.20074 0.43936 0.0
C852 C 0.5475 0.19003 0.48722 0.0
H853 H 0.51327 0.17108 0.52322 0.0
C854 C 0.56785 0.20171 0.49609 0.0
C855 C 0.52753 0.17888 0.49708 0.0
C856 C 0.50564 0.16529 0.48824 0.0
C857 C 0.56871 0.20269 0.5146 0.0
C858 C 0.54891 0.19126 0.52447 0.0
C859 C 0.5284 0.17983 0.5156 0.0
C860 C 0.54942 0.19041 0.54402 0.0
C861 C 0.59064 0.21624 0.52342 0.0
C862 C 0.5691 0.17761 0.55285 0.0
C863 C 0.56944 0.17651 0.57127 0.0
C864 C 0.54999 0.18804 0.58123 0.0
C865 C 0.53017 0.20068 0.57233 0.0
C866 C 0.52986 0.20177 0.55388 0.0
H867 H 0.60017 0.22976 0.51428 0.0
H868 H 0.58413 0.22687 0.53527 0.0
H869 H 0.60498 0.202 0.52768 0.0
H870 H 0.58409 0.16825 0.54547 0.0
H871 H 0.58491 0.16649 0.57768 0.0
H872 H 0.8363 0.58435 0.07781 0.0
H873 H 0.83488 0.58325 0.04559 0.0
H874 H 0.79125 0.51377 0.04742 0.0
H875 H 0.7923 0.51482 0.07971 0.0
H876 H 0.85336 0.5447 0.02331 0.0
H877 H 0.74933 0.55935 0.01429 0.0
H878 H 0.76532 0.56578 0.03492 0.0
H879 H 0.75788 0.53361 0.02871 0.0
C880 C 0.82626 0.56889 0.0714 0.0
C881 C 0.81433 0.54971 0.08136 0.0
C882 C 0.8255 0.56829 0.05297 0.0
C883 C 0.81269 0.54862 0.04413 0.0
C884 C 0.80082 0.52939 0.054 0.0
H885 H 0.79284 0.51552 0.93215 0.0
H886 H 0.79224 0.51415 0.96446 0.0
C887 C 0.80157 0.52995 0.07245 0.0
C888 C 0.81252 0.54791 0.02458 0.0
H889 H 0.77344 0.55054 0.98859 0.0
C890 C 0.8359 0.54601 0.0157 0.0
C891 C 0.78969 0.54949 0.01473 0.0
C892 C 0.76412 0.55239 0.0236 0.0
C893 C 0.83708 0.54555 0.99721 0.0
C894 C 0.81429 0.5475 0.98734 0.0
C895 C 0.79087 0.54907 0.99621 0.0
C896 C 0.81444 0.5485 0.9678 0.0
C897 C 0.86269 0.54263 0.98838 0.0
C898 C 0.82677 0.5685 0.95902 0.0
C899 C 0.82718 0.56935 0.94059 0.0
C900 C 0.81512 0.55027 0.93058 0.0
C901 C 0.80239 0.53047 0.93945 0.0
C902 C 0.802 0.52966 0.9579 0.0
H903 H 0.87711 0.53455 0.99753 0.0
H904 H 0.86133 0.53017 0.97657 0.0
H905 H 0.86953 0.56161 0.98405 0.0
H906 H 0.83604 0.58352 0.96642 0.0
H907 H 0.83702 0.58495 0.93421 0.0
H908 H 0.41998 0.83615 0.57787 0.0
H909 H 0.42128 0.83484 0.54564 0.0
H910 H 0.49079 0.79124 0.54763 0.0
H911 H 0.48954 0.79216 0.57992 0.0
H912 H 0.45984 0.85334 0.52349 0.0
H913 H 0.44549 0.74936 0.51431 0.0
H914 H 0.439 0.76529 0.53495 0.0
H915 H 0.47121 0.75791 0.52879 0.0
C916 C 0.43549 0.82614 0.57148 0.0
C917 C 0.45461 0.81417 0.58149 0.0
C918 C 0.4362 0.82545 0.55306 0.0
C919 C 0.45594 0.81267 0.54426 0.0
C920 C 0.47512 0.80078 0.55417 0.0
H921 H 0.48975 0.79294 0.43236 0.0
H922 H 0.49104 0.79247 0.46468 0.0
C923 C 0.47444 0.80146 0.57262 0.0
C924 C 0.45676 0.81252 0.52471 0.0
H925 H 0.4545 0.77347 0.48867 0.0
C926 C 0.45863 0.83589 0.51586 0.0
C927 C 0.45531 0.7897 0.51483 0.0
C928 C 0.45242 0.76413 0.52365 0.0
C929 C 0.45921 0.83708 0.49737 0.0
C930 C 0.45741 0.8143 0.48748 0.0
C931 C 0.45587 0.79089 0.49631 0.0
C932 C 0.45652 0.81445 0.46793 0.0
C933 C 0.46207 0.86268 0.48858 0.0
C934 C 0.43647 0.82663 0.45909 0.0
C935 C 0.43567 0.82695 0.44066 0.0
C936 C 0.45485 0.81497 0.43071 0.0
C937 C 0.47472 0.80243 0.43962 0.0
C938 C 0.47549 0.80211 0.45808 0.0
H939 H 0.47002 0.87714 0.49777 0.0
H940 H 0.47464 0.86138 0.47682 0.0
H941 H 0.44309 0.86943 0.48416 0.0
H942 H 0.42136 0.83582 0.46646 0.0
H943 H 0.42 0.83665 0.43424 0.0
H944 H 0.1666 0.58325 0.43455 0.0
H945 H 0.16798 0.58199 0.46678 0.0
H946 H 0.21136 0.51236 0.46468 0.0
H947 H 0.21035 0.51358 0.43239 0.0
H948 H 0.14942 0.54341 0.48897 0.0
H949 H 0.25354 0.55771 0.49788 0.0
H950 H 0.23751 0.56423 0.47729 0.0
H951 H 0.24484 0.53203 0.4834 0.0
C952 C 0.17656 0.56772 0.44091 0.0
C953 C 0.18844 0.54856 0.43088 0.0
C954 C 0.17731 0.56703 0.45933 0.0
C955 C 0.19005 0.54727 0.4681 0.0
C956 C 0.20184 0.52804 0.45816 0.0
H957 H 0.21026 0.51415 0.58002 0.0
H958 H 0.21069 0.5127 0.5477 0.0
C959 C 0.20112 0.5287 0.43971 0.0
C960 C 0.19027 0.54649 0.48764 0.0
H961 H 0.22946 0.54895 0.52358 0.0
C962 C 0.16691 0.54466 0.49655 0.0
C963 C 0.21313 0.54799 0.49747 0.0
C964 C 0.2387 0.55081 0.48858 0.0
C965 C 0.16578 0.54418 0.51505 0.0
C966 C 0.18861 0.54605 0.52488 0.0
C967 C 0.21201 0.54754 0.51599 0.0
C968 C 0.18851 0.54706 0.54442 0.0
C969 C 0.14019 0.54133 0.5239 0.0
C970 C 0.17625 0.56709 0.55325 0.0
C971 C 0.17594 0.56798 0.57168 0.0
C972 C 0.18803 0.54892 0.58165 0.0
C973 C 0.20068 0.52909 0.57274 0.0
C974 C 0.20098 0.52822 0.55429 0.0
H975 H 0.12572 0.53326 0.51476 0.0
H976 H 0.14154 0.52888 0.5357 0.0
H977 H 0.13339 0.56032 0.52824 0.0
H978 H 0.16697 0.58211 0.54587 0.0
H979 H 0.16616 0.58362 0.57809 0.0
H980 H 0.48933 0.20878 0.93212 0.0
H981 H 0.4906 0.20915 0.96443 0.0
H982 H 0.41995 0.16737 0.96606 0.0
H983 H 0.41864 0.16661 0.93383 0.0
H984 H 0.45478 0.22892 0.98846 0.0
H985 H 0.46736 0.12485 0.9973 0.0
H986 H 0.47228 0.14048 0.97636 0.0
H987 H 0.44056 0.1333 0.98379 0.0
C988 C 0.47409 0.19961 0.93934 0.0
C989 C 0.45396 0.18752 0.93038 0.0
C990 C 0.47484 0.19987 0.9578 0.0
C991 C 0.45559 0.18793 0.96761 0.0
C992 C 0.43528 0.17623 0.95872 0.0
H993 H 0.41899 0.16703 0.07762 0.0
H994 H 0.42016 0.16832 0.04539 0.0
C995 C 0.4345 0.17594 0.94029 0.0
C996 C 0.45649 0.18803 0.98716 0.0
H997 H 0.45794 0.14888 0.02308 0.0
C998 C 0.45566 0.21146 0.99606 0.0
C999 C 0.45766 0.16519 0.997 0.0
C1000 C 0.45976 0.13952 0.98816 0.0
C1001 C 0.45522 0.21264 0.01458 0.0
C1002 C 0.45606 0.18978 0.02441 0.0
C1003 C 0.4572 0.16637 0.0155 0.0
C1004 C 0.45535 0.18962 0.04396 0.0
C1005 C 0.45312 0.23828 0.02345 0.0
C1006 C 0.47488 0.20102 0.05385 0.0
C1007 C 0.47427 0.20036 0.0723 0.0
C1008 C 0.45417 0.18814 0.08119 0.0
C1009 C 0.43472 0.17664 0.07121 0.0
C1010 C 0.43535 0.17733 0.05279 0.0
H1011 H 0.44651 0.25323 0.01416 0.0
H1012 H 0.43978 0.23748 0.03481 0.0
H1013 H 0.47212 0.24398 0.02851 0.0
H1014 H 0.49075 0.21017 0.04729 0.0
H1015 H 0.48963 0.20928 0.07958 0.0
H1016 H 0.83581 0.41825 0.43411 0.0
H1017 H 0.83431 0.41935 0.46634 0.0
H1018 H 0.79166 0.48943 0.46446 0.0
H1019 H 0.79277 0.48838 0.43217 0.0
H1020 H 0.85327 0.45743 0.48866 0.0
H1021 H 0.74898 0.44466 0.49754 0.0
H1022 H 0.76489 0.43807 0.47691 0.0
H1023 H 0.75797 0.47033 0.48318 0.0
C1024 C 0.82597 0.43385 0.44052 0.0
C1025 C 0.81433 0.45319 0.43055 0.0
C1026 C 0.82516 0.43444 0.45895 0.0
C1027 C 0.8126 0.45428 0.46777 0.0
C1028 C 0.80103 0.47368 0.4579 0.0
H1029 H 0.79293 0.48831 0.5796 0.0
H1030 H 0.79244 0.4894 0.54729 0.0
C1031 C 0.80181 0.47311 0.43945 0.0
C1032 C 0.81238 0.455 0.48732 0.0
H1033 H 0.77314 0.45326 0.52326 0.0
C1034 C 0.83576 0.45647 0.49624 0.0
C1035 C 0.78949 0.45387 0.49714 0.0
C1036 C 0.76389 0.45143 0.48825 0.0
C1037 C 0.83689 0.45698 0.51474 0.0
C1038 C 0.81404 0.45552 0.52457 0.0
C1039 C 0.79062 0.45436 0.51567 0.0
C1040 C 0.8141 0.45468 0.54412 0.0
C1041 C 0.86253 0.45945 0.52359 0.0
C1042 C 0.82607 0.43456 0.55301 0.0
C1043 C 0.82642 0.43387 0.57144 0.0
C1044 C 0.81464 0.45324 0.58135 0.0
C1045 C 0.80225 0.47314 0.57238 0.0
C1046 C 0.80193 0.4738 0.55392 0.0
H1047 H 0.87713 0.46721 0.51445 0.0
H1048 H 0.86138 0.47198 0.53538 0.0
H1049 H 0.869 0.44036 0.52797 0.0
H1050 H 0.83511 0.41932 0.54568 0.0
H1051 H 0.83598 0.41818 0.5779 0.0
H1052 H 0.5148 0.79248 0.07972 0.0
H1053 H 0.51448 0.79055 0.04743 0.0
H1054 H 0.58374 0.8346 0.04577 0.0
H1055 H 0.58443 0.8364 0.07798 0.0
H1056 H 0.51306 0.83108 0.02339 0.0
H1057 H 0.60048 0.77313 0.01456 0.0
H1058 H 0.58432 0.77589 0.03552 0.0
H1059 H 0.60498 0.80093 0.02801 0.0
C1060 C 0.53004 0.80165 0.07249 0.0
C1061 C 0.54971 0.81449 0.08145 0.0
C1062 C 0.52981 0.80054 0.05405 0.0
C1063 C 0.54929 0.81209 0.04423 0.0
C1064 C 0.56881 0.82509 0.05311 0.0
H1065 H 0.58385 0.83674 0.93432 0.0
H1066 H 0.58266 0.83531 0.96655 0.0
C1067 C 0.56908 0.82622 0.07153 0.0
C1068 C 0.54886 0.8112 0.02469 0.0
H1069 H 0.58332 0.79238 0.98875 0.0
C1070 C 0.52829 0.82244 0.01579 0.0
C1071 C 0.56879 0.79992 0.01485 0.0
C1072 C 0.59079 0.78657 0.02369 0.0
C1073 C 0.52748 0.82336 0.99728 0.0
C1074 C 0.54757 0.81236 0.98744 0.0
C1075 C 0.56798 0.80085 0.99634 0.0
C1076 C 0.54806 0.81303 0.9679 0.0
C1077 C 0.50551 0.83675 0.98841 0.0
C1078 C 0.52916 0.8007 0.95797 0.0
C1079 C 0.52975 0.8015 0.93953 0.0
C1080 C 0.54936 0.81453 0.93068 0.0
C1081 C 0.56844 0.82659 0.94069 0.0
C1082 C 0.56782 0.82578 0.95912 0.0
H1083 H 0.49499 0.84925 0.99773 0.0
H1084 H 0.51228 0.84843 0.97713 0.0
H1085 H 0.49198 0.82234 0.98322 0.0
H1086 H 0.51401 0.79035 0.9645 0.0
H1087 H 0.51484 0.79189 0.93222 0.0
H1088 H 0.203 0.34844 0.14128 0.0
H1089 H 0.2377 0.31748 0.14147 0.0
H1090 H 0.29218 0.37794 0.13403 0.0
H1091 H 0.25758 0.40918 0.13401 0.0
H1092 H 0.27292 0.30852 0.11421 0.0
H1093 H 0.3213 0.33817 0.17621 0.0
H1094 H 0.28927 0.34799 0.1708 0.0
H1095 H 0.31603 0.36307 0.16038 0.0
C1096 C 0.22236 0.35522 0.1398 0.0
C1097 C 0.22751 0.38131 0.13767 0.0
C1098 C 0.24216 0.33749 0.1399 0.0
C1099 C 0.2675 0.34545 0.13797 0.0
C1100 C 0.27278 0.37145 0.13586 0.0
H1101 H 0.40871 0.25747 0.13347 0.0
H1102 H 0.37731 0.29197 0.1333 0.0
C1103 C 0.25296 0.38925 0.13576 0.0
C1104 C 0.28821 0.32632 0.13752 0.0
H1105 H 0.34123 0.30583 0.15943 0.0
C1106 C 0.28786 0.30792 0.12409 0.0
C1107 C 0.30776 0.32574 0.15037 0.0
C1108 C 0.30863 0.34465 0.16536 0.0
C1109 C 0.3065 0.28885 0.12317 0.0
C1110 C 0.32574 0.28791 0.13623 0.0
C1111 C 0.32641 0.30661 0.14947 0.0
C1112 C 0.3448 0.26715 0.13665 0.0
C1113 C 0.30558 0.27001 0.10813 0.0
C1114 C 0.33692 0.24186 0.13892 0.0
C1115 C 0.35475 0.22214 0.13901 0.0
C1116 C 0.38085 0.22735 0.13694 0.0
C1117 C 0.38875 0.25279 0.13503 0.0
C1118 C 0.37086 0.27253 0.13494 0.0
H1119 H 0.29431 0.2774 0.09683 0.0
H1120 H 0.32504 0.26526 0.10343 0.0
H1121 H 0.2964 0.2522 0.11275 0.0
H1122 H 0.31694 0.23736 0.14063 0.0
H1123 H 0.34801 0.2028 0.14063 0.0
H1124 H 0.74561 0.40874 0.63472 0.0
H1125 H 0.71084 0.37772 0.63604 0.0
H1126 H 0.76531 0.31719 0.64321 0.0
H1127 H 0.80012 0.34796 0.64209 0.0
H1128 H 0.7028 0.33552 0.61391 0.0
H1129 H 0.71469 0.30569 0.68362 0.0
H1130 H 0.72902 0.33426 0.67487 0.0
H1131 H 0.74346 0.30376 0.67087 0.0
C1132 C 0.75019 0.38884 0.63669 0.0
C1133 C 0.77565 0.38084 0.63838 0.0
C1134 C 0.7303 0.37117 0.63743 0.0
C1135 C 0.73549 0.34524 0.64 0.0
C1136 C 0.76086 0.33719 0.64159 0.0
H1137 H 0.65528 0.20308 0.64121 0.0
H1138 H 0.68584 0.23811 0.64202 0.0
C1139 C 0.78075 0.35481 0.64084 0.0
C1140 C 0.71452 0.3264 0.64039 0.0
H1141 H 0.68798 0.27963 0.66565 0.0
C1142 C 0.69933 0.32347 0.62528 0.0
C1143 C 0.71008 0.31076 0.65525 0.0
C1144 C 0.725 0.31388 0.67214 0.0
C1145 C 0.68042 0.30462 0.62439 0.0
C1146 C 0.67637 0.2886 0.63912 0.0
C1147 C 0.6912 0.2919 0.65436 0.0
C1148 C 0.65752 0.26764 0.63876 0.0
C1149 C 0.66555 0.30138 0.60748 0.0
C1150 C 0.63142 0.27268 0.63687 0.0
C1151 C 0.61385 0.25267 0.63638 0.0
C1152 C 0.62211 0.22728 0.63786 0.0
C1153 C 0.64826 0.22239 0.63999 0.0
C1154 C 0.66577 0.24238 0.64048 0.0
H1155 H 0.67472 0.31138 0.59623 0.0
H1156 H 0.66354 0.28092 0.60407 0.0
H1157 H 0.64618 0.30942 0.60925 0.0
H1158 H 0.62463 0.29209 0.63584 0.0
H1159 H 0.59384 0.25711 0.63481 0.0
H1160 H 0.80057 0.65532 0.14168 0.0
H1161 H 0.76592 0.68634 0.14207 0.0
H1162 H 0.71134 0.62603 0.13427 0.0
H1163 H 0.74588 0.59474 0.13406 0.0
H1164 H 0.73079 0.69567 0.11491 0.0
H1165 H 0.68218 0.6654 0.17662 0.0
H1166 H 0.71418 0.65554 0.17116 0.0
H1167 H 0.68738 0.64064 0.16064 0.0
C1168 C 0.7812 0.64858 0.14017 0.0
C1169 C 0.776 0.62252 0.13788 0.0
C1170 C 0.76142 0.66635 0.14038 0.0
C1171 C 0.73607 0.65844 0.13841 0.0
C1172 C 0.73075 0.63247 0.13615 0.0
H1173 H 0.59472 0.74602 0.13386 0.0
H1174 H 0.62629 0.71167 0.13371 0.0
C1175 C 0.75053 0.61464 0.13594 0.0
C1176 C 0.71538 0.67761 0.13807 0.0
H1177 H 0.6622 0.69779 0.15994 0.0
C1178 C 0.7158 0.69616 0.12476 0.0
C1179 C 0.69577 0.67805 0.15086 0.0
C1180 C 0.69484 0.65899 0.16574 0.0
C1181 C 0.69713 0.7152 0.12391 0.0
C1182 C 0.6778 0.71597 0.1369 0.0
C1183 C 0.67709 0.69715 0.15003 0.0
C1184 C 0.65864 0.73663 0.13736 0.0
C1185 C 0.69811 0.73419 0.10899 0.0
C1186 C 0.66636 0.76195 0.1398 0.0
C1187 C 0.64844 0.78158 0.13987 0.0
C1188 C 0.62239 0.77625 0.13762 0.0
C1189 C 0.61464 0.75078 0.13556 0.0
C1190 C 0.63263 0.73113 0.13549 0.0
H1191 H 0.70952 0.72697 0.09769 0.0
H1192 H 0.67867 0.73889 0.10422 0.0
H1193 H 0.70716 0.752 0.11376 0.0
H1194 H 0.6863 0.76653 0.14163 0.0
H1195 H 0.65507 0.80094 0.14161 0.0
H1196 H 0.20189 0.65541 0.64116 0.0
H1197 H 0.23627 0.68672 0.64113 0.0
H1198 H 0.29133 0.62679 0.63365 0.0
H1199 H 0.25704 0.59517 0.63385 0.0
H1200 H 0.30498 0.66282 0.6598 0.0
H1201 H 0.27615 0.70969 0.59732 0.0
H1202 H 0.25104 0.70745 0.61333 0.0
H1203 H 0.26417 0.67891 0.60389 0.0
C1204 C 0.22129 0.64883 0.6395 0.0
C1205 C 0.2267 0.62278 0.6374 0.0
C1206 C 0.2409 0.66679 0.63939 0.0
C1207 C 0.26627 0.65909 0.63708 0.0
C1208 C 0.27183 0.6331 0.63533 0.0
H1209 H 0.40862 0.74558 0.63391 0.0
H1210 H 0.37707 0.71127 0.63409 0.0
C1211 C 0.25221 0.61508 0.63544 0.0
C1212 C 0.28694 0.67826 0.63665 0.0
H1213 H 0.30754 0.73093 0.61452 0.0
C1214 C 0.30571 0.67761 0.64983 0.0
C1215 C 0.28782 0.69745 0.62359 0.0
C1216 C 0.26887 0.69836 0.60862 0.0
C1217 C 0.3249 0.6962 0.65065 0.0
C1218 C 0.32548 0.71567 0.63777 0.0
C1219 C 0.30695 0.71604 0.62442 0.0
C1220 C 0.34478 0.73622 0.63807 0.0
C1221 C 0.34391 0.69534 0.66557 0.0
C1222 C 0.33703 0.76163 0.63993 0.0
C1223 C 0.35495 0.78126 0.63973 0.0
C1224 C 0.38101 0.77588 0.63757 0.0
C1225 C 0.38873 0.75037 0.63569 0.0
C1226 C 0.37075 0.73072 0.63589 0.0
H1227 H 0.33738 0.68285 0.6765 0.0
H1228 H 0.36225 0.68772 0.66056 0.0
H1229 H 0.34746 0.7147 0.67092 0.0
H1230 H 0.31706 0.76626 0.64155 0.0
H1231 H 0.34833 0.80068 0.64119 0.0
H1232 H 0.40955 0.74511 0.37829 0.0
H1233 H 0.37832 0.71048 0.37828 0.0
H1234 H 0.31767 0.76488 0.37131 0.0
H1235 H 0.34859 0.79959 0.37149 0.0
H1236 H 0.30903 0.72946 0.39847 0.0
H1237 H 0.33808 0.68174 0.33607 0.0
H1238 H 0.36313 0.68691 0.35184 0.0
H1239 H 0.3479 0.7137 0.3416 0.0
C1240 C 0.38958 0.7497 0.37665 0.0
C1241 C 0.38157 0.77513 0.37486 0.0
C1242 C 0.37178 0.72987 0.37655 0.0
C1243 C 0.34573 0.73512 0.37458 0.0
C1244 C 0.33771 0.76044 0.37278 0.0
H1245 H 0.2028 0.6549 0.37185 0.0
H1246 H 0.23742 0.68593 0.37195 0.0
C1247 C 0.35543 0.78025 0.37288 0.0
C1248 C 0.3266 0.71441 0.375 0.0
H1249 H 0.30574 0.66177 0.3528 0.0
C1250 C 0.3083 0.71465 0.38849 0.0
C1251 C 0.32585 0.69505 0.36202 0.0
C1252 C 0.34464 0.69431 0.34696 0.0
C1253 C 0.28916 0.69607 0.38935 0.0
C1254 C 0.28805 0.67703 0.37616 0.0
C1255 C 0.30665 0.67646 0.36286 0.0
C1256 C 0.26723 0.65802 0.37569 0.0
C1257 C 0.27043 0.69686 0.40445 0.0
C1258 C 0.2726 0.63196 0.37724 0.0
C1259 C 0.25283 0.61411 0.3771 0.0
C1260 C 0.22736 0.62203 0.37529 0.0
C1261 C 0.22216 0.64814 0.37338 0.0
C1262 C 0.24191 0.66594 0.37353 0.0
H1263 H 0.27793 0.708 0.41579 0.0
H1264 H 0.25258 0.70609 0.39993 0.0
H1265 H 0.26571 0.67737 0.40906 0.0
H1266 H 0.29206 0.62548 0.3788 0.0
H1267 H 0.25751 0.59414 0.37854 0.0
H1268 H 0.40911 0.25773 0.87811 0.0
H1269 H 0.37795 0.29246 0.8785 0.0
H1270 H 0.31714 0.23826 0.87133 0.0
H1271 H 0.34796 0.2035 0.87109 0.0
H1272 H 0.34152 0.30651 0.85252 0.0
H1273 H 0.29545 0.27844 0.91545 0.0
H1274 H 0.32606 0.26622 0.90864 0.0
H1275 H 0.29725 0.25317 0.89951 0.0
C1276 C 0.38911 0.2532 0.87662 0.0
C1277 C 0.38102 0.22781 0.87469 0.0
C1278 C 0.37135 0.27306 0.87684 0.0
C1279 C 0.34524 0.26785 0.87524 0.0
C1280 C 0.33717 0.24262 0.87294 0.0
H1281 H 0.20356 0.34907 0.87129 0.0
H1282 H 0.23834 0.3182 0.87102 0.0
C1283 C 0.35486 0.22279 0.87272 0.0
C1284 C 0.32631 0.28873 0.87583 0.0
H1285 H 0.27385 0.30953 0.89819 0.0
C1286 C 0.32685 0.30737 0.86258 0.0
C1287 C 0.30728 0.28977 0.88902 0.0
C1288 C 0.30654 0.27098 0.90407 0.0
C1289 C 0.30822 0.32653 0.8618 0.0
C1290 C 0.28884 0.32719 0.87476 0.0
C1291 C 0.28866 0.30886 0.88822 0.0
C1292 C 0.26809 0.34627 0.87439 0.0
C1293 C 0.3089 0.34536 0.84679 0.0
C1294 C 0.27331 0.37229 0.87645 0.0
C1295 C 0.25345 0.39004 0.8766 0.0
C1296 C 0.22801 0.38203 0.87477 0.0
C1297 C 0.22291 0.35591 0.8727 0.0
C1298 C 0.24276 0.33823 0.87256 0.0
H1299 H 0.32149 0.33888 0.83589 0.0
H1300 H 0.28948 0.34861 0.84142 0.0
H1301 H 0.31627 0.36384 0.85172 0.0
H1302 H 0.29271 0.37884 0.87821 0.0
H1303 H 0.25803 0.41 0.8783 0.0
H1304 H 0.65496 0.20206 0.37073 0.0
H1305 H 0.68619 0.23649 0.37072 0.0
H1306 H 0.62607 0.29138 0.37812 0.0
H1307 H 0.59452 0.25701 0.37797 0.0
H1308 H 0.66225 0.30499 0.35195 0.0
H1309 H 0.70895 0.27655 0.41458 0.0
H1310 H 0.70673 0.25132 0.39865 0.0
H1311 H 0.67816 0.26456 0.40798 0.0
C1312 C 0.64831 0.22144 0.37236 0.0
C1313 C 0.62223 0.22676 0.37446 0.0
C1314 C 0.66622 0.24108 0.37244 0.0
C1315 C 0.65846 0.26641 0.37473 0.0
C1316 C 0.63243 0.27191 0.37646 0.0
H1317 H 0.74585 0.40826 0.37766 0.0
H1318 H 0.71127 0.37702 0.37748 0.0
C1319 C 0.61446 0.25225 0.37638 0.0
C1320 C 0.67762 0.28709 0.37516 0.0
H1321 H 0.73043 0.30762 0.39727 0.0
C1322 C 0.67704 0.30575 0.36193 0.0
C1323 C 0.69682 0.28801 0.38824 0.0
C1324 C 0.69764 0.26919 0.40327 0.0
C1325 C 0.69575 0.32483 0.36106 0.0
C1326 C 0.71525 0.3254 0.37394 0.0
C1327 C 0.71552 0.30702 0.38736 0.0
C1328 C 0.73596 0.34453 0.37356 0.0
C1329 C 0.69498 0.3437 0.34608 0.0
C1330 C 0.76132 0.33657 0.3717 0.0
C1331 C 0.78112 0.35432 0.3719 0.0
C1332 C 0.77595 0.3804 0.37405 0.0
C1333 C 0.75049 0.38834 0.37588 0.0
C1334 C 0.73068 0.37053 0.37569 0.0
H1335 H 0.68237 0.3372 0.33519 0.0
H1336 H 0.68755 0.36214 0.35104 0.0
H1337 H 0.71436 0.34703 0.34069 0.0
H1338 H 0.76579 0.31656 0.37012 0.0
H1339 H 0.80049 0.34753 0.37047 0.0
H1340 H 0.80125 0.65635 0.87109 0.0
H1341 H 0.76657 0.68734 0.87045 0.0
H1342 H 0.71179 0.62673 0.87605 0.0
H1343 H 0.74638 0.59554 0.87692 0.0
H1344 H 0.72527 0.69048 0.84683 0.0
H1345 H 0.6927 0.67624 0.91596 0.0
H1346 H 0.72307 0.66478 0.9081 0.0
H1347 H 0.69434 0.64787 0.90275 0.0
C1348 C 0.78184 0.64956 0.87221 0.0
C1349 C 0.7766 0.62346 0.87415 0.0
C1350 C 0.76205 0.66732 0.87183 0.0
C1351 C 0.73666 0.65935 0.87345 0.0
C1352 C 0.73129 0.6333 0.87511 0.0
H1353 H 0.59516 0.74646 0.8772 0.0
H1354 H 0.62665 0.71213 0.87592 0.0
C1355 C 0.75109 0.61551 0.87551 0.0
C1356 C 0.71588 0.67841 0.87319 0.0
H1357 H 0.6685 0.70433 0.89832 0.0
C1358 C 0.71283 0.69351 0.85808 0.0
C1359 C 0.69965 0.68222 0.88787 0.0
C1360 C 0.70264 0.6671 0.90466 0.0
C1361 C 0.69394 0.71237 0.85722 0.0
C1362 C 0.67801 0.71648 0.87201 0.0
C1363 C 0.68077 0.7011 0.88701 0.0
C1364 C 0.65891 0.73722 0.87239 0.0
C1365 C 0.69105 0.72754 0.84044 0.0
C1366 C 0.66668 0.76269 0.87102 0.0
C1367 C 0.64878 0.78233 0.87173 0.0
C1368 C 0.62275 0.77688 0.87395 0.0
C1369 C 0.61504 0.75132 0.87543 0.0
C1370 C 0.63299 0.73168 0.87471 0.0
H1371 H 0.69958 0.71752 0.82895 0.0
H1372 H 0.67068 0.73143 0.83756 0.0
H1373 H 0.70099 0.74606 0.84198 0.0
H1374 H 0.68666 0.7674 0.86959 0.0
H1375 H 0.6554 0.80179 0.87066 0.0
loop_
_geom_bond_atom_site_label_1
_geom_bond_atom_site_label_2
_geom_bond_distance
_geom_bond_site_symmetry_2
_ccdc_geom_bond_type
C0 O2 1.247 . S
C0 O4 1.258 . S
C1 O8 1.247 . S
C1 O9 1.258 . S
O2 C0 1.247 . S
O2 Zn3 2.028 . S
Zn3 O2 2.028 . S
Zn3 O7 2.035 . S
Zn3 O9 2.035 . S
Zn3 O10 2.028 . S
O4 C0 1.258 . S
O4 Zn5 2.035 . S
Zn5 O4 2.035 . S
Zn5 O6 2.028 . S
Zn5 O8 2.028 . S
Zn5 O11 2.035 . S
O6 Zn5 2.028 . S
O6 C12 1.247 . S
O7 Zn3 2.035 . S
O7 C12 1.258 . S
O8 C1 1.247 . S
O8 Zn5 2.028 . S
O9 C1 1.258 . S
O9 Zn3 2.035 . S
O10 Zn3 2.028 . S
O10 C13 1.247 . S
O11 Zn5 2.035 . S
O11 C13 1.258 . S
C12 O6 1.247 . S
C12 O7 1.258 . S
C13 O10 1.247 . S
C13 O11 1.258 . S
C14 O16 1.247 . S
C14 O18 1.258 . S
C15 O22 1.247 . S
C15 O23 1.258 . S
O16 C14 1.247 . S
O16 Zn17 2.028 . S
Zn17 O16 2.028 . S
Zn17 O21 2.035 . S
Zn17 O23 2.035 . S
Zn17 O24 2.028 . S
O18 C14 1.258 . S
O18 Zn19 2.035 . S
Zn19 O18 2.035 . S
Zn19 O20 2.028 . S
Zn19 O22 2.028 . S
Zn19 O25 2.035 . S
O20 Zn19 2.028 . S
O20 C26 1.247 . S
O21 Zn17 2.035 . S
O21 C26 1.258 . S
O22 C15 1.247 . S
O22 Zn19 2.028 . S
O23 C15 1.258 . S
O23 Zn17 2.035 . S
O24 Zn17 2.028 . S
O24 C27 1.247 . S
O25 Zn19 2.035 . S
O25 C27 1.258 . S
C26 O20 1.247 . S
C26 O21 1.258 . S
C27 O24 1.247 . S
C27 O25 1.258 . S
C28 O30 1.247 . S
C28 O32 1.258 . S
C29 O36 1.247 . S
C29 O37 1.258 . S
O30 C28 1.247 . S
O30 Zn31 2.028 . S
Zn31 O30 2.028 . S
Zn31 O35 2.035 . S
Zn31 O37 2.035 . S
Zn31 O38 2.028 . S
O32 C28 1.258 . S
O32 Zn33 2.035 . S
Zn33 O32 2.035 . S
Zn33 O34 2.028 . S
Zn33 O36 2.028 . S
Zn33 O39 2.035 . S
O34 Zn33 2.028 . S
O34 C40 1.247 . S
O35 Zn31 2.035 . S
O35 C40 1.258 . S
O36 C29 1.247 . S
O36 Zn33 2.028 . S
O37 C29 1.258 . S
O37 Zn31 2.035 . S
O38 Zn31 2.028 . S
O38 C41 1.247 . S
O39 Zn33 2.035 . S
O39 C41 1.258 . S
C40 O34 1.247 . S
C40 O35 1.258 . S
C41 O38 1.247 . S
C41 O39 1.258 . S
C42 O44 1.247 . S
C42 O46 1.258 . S
C43 O50 1.247 . S
C43 O51 1.258 . S
O44 C42 1.247 . S
O44 Zn45 2.028 . S
Zn45 O44 2.028 . S
Zn45 O49 2.035 . S
Zn45 O51 2.035 . S
Zn45 O52 2.028 . S
O46 C42 1.258 . S
O46 Zn47 2.035 . S
Zn47 O46 2.035 . S
Zn47 O48 2.028 . S
Zn47 O50 2.028 . S
Zn47 O53 2.035 . S
O48 Zn47 2.028 . S
O48 C54 1.247 . S
O49 Zn45 2.035 . S
O49 C54 1.258 . S
O50 C43 1.247 . S
O50 Zn47 2.028 . S
O51 C43 1.258 . S
O51 Zn45 2.035 . S
O52 Zn45 2.028 . S
O52 C55 1.247 . S
O53 Zn47 2.035 . S
O53 C55 1.258 . S
C54 O48 1.247 . S
C54 O49 1.258 . S
C55 O52 1.247 . S
C55 O53 1.258 . S
C56 O58 1.247 . S
C56 O60 1.258 . S
C57 O64 1.247 . S
C57 O65 1.258 . S
O58 C56 1.247 . S
O58 Zn59 2.028 . S
Zn59 O58 2.028 . S
Zn59 O63 2.035 . S
Zn59 O65 2.035 . S
Zn59 O66 2.028 . S
O60 C56 1.258 . S
O60 Zn61 2.035 . S
Zn61 O60 2.035 . S
Zn61 O62 2.028 . S
Zn61 O64 2.028 . S
Zn61 O67 2.035 . S
O62 Zn61 2.028 . S
O62 C68 1.247 . S
O63 Zn59 2.035 . S
O63 C68 1.258 . S
O64 C57 1.247 . S
O64 Zn61 2.028 . S
O65 C57 1.258 . S
O65 Zn59 2.035 . S
O66 Zn59 2.028 . S
O66 C69 1.247 . S
O67 Zn61 2.035 . S
O67 C69 1.258 . S
C68 O62 1.247 . S
C68 O63 1.258 . S
C69 O66 1.247 . S
C69 O67 1.258 . S
C70 O72 1.247 . S
C70 O74 1.258 . S
C71 O78 1.247 . S
C71 O79 1.258 . S
O72 C70 1.247 . S
O72 Zn73 2.028 . S
Zn73 O72 2.028 . S
Zn73 O77 2.035 . S
Zn73 O79 2.035 . S
Zn73 O80 2.028 . S
O74 C70 1.258 . S
O74 Zn75 2.035 . S
Zn75 O74 2.035 . S
Zn75 O76 2.028 . S
Zn75 O78 2.028 . S
Zn75 O81 2.035 . S
O76 Zn75 2.028 . S
O76 C82 1.247 . S
O77 Zn73 2.035 . S
O77 C82 1.258 . S
O78 C71 1.247 . S
O78 Zn75 2.028 . S
O79 C71 1.258 . S
O79 Zn73 2.035 . S
O80 Zn73 2.028 . S
O80 C83 1.247 . S
O81 Zn75 2.035 . S
O81 C83 1.258 . S
C82 O76 1.247 . S
C82 O77 1.258 . S
C83 O80 1.247 . S
C83 O81 1.258 . S
C84 O86 1.247 . S
C84 O88 1.258 . S
C85 O92 1.247 . S
C85 O93 1.258 . S
O86 C84 1.247 . S
O86 Zn87 2.028 . S
Zn87 O86 2.028 . S
Zn87 O91 2.035 . S
Zn87 O93 2.035 . S
Zn87 O94 2.028 . S
O88 C84 1.258 . S
O88 Zn89 2.035 . S
Zn89 O88 2.035 . S
Zn89 O90 2.028 . S
Zn89 O92 2.028 . S
Zn89 O95 2.035 . S
O90 Zn89 2.028 . S
O90 C96 1.247 . S
O91 Zn87 2.035 . S
O91 C96 1.258 . S
O92 C85 1.247 . S
O92 Zn89 2.028 . S
O93 C85 1.258 . S
O93 Zn87 2.035 . S
O94 Zn87 2.028 . S
O94 C97 1.247 . S
O95 Zn89 2.035 . S
O95 C97 1.258 . S
C96 O90 1.247 . S
C96 O91 1.258 . S
C97 O94 1.247 . S
C97 O95 1.258 . S
C98 O100 1.247 . S
C98 O102 1.258 . S
C99 O106 1.247 . S
C99 O107 1.258 . S
O100 C98 1.247 . S
O100 Zn101 2.028 . S
Zn101 O100 2.028 . S
Zn101 O105 2.035 . S
Zn101 O107 2.035 . S
Zn101 O108 2.028 . S
O102 C98 1.258 . S
O102 Zn103 2.035 . S
Zn103 O102 2.035 . S
Zn103 O104 2.028 . S
Zn103 O106 2.028 . S
Zn103 O109 2.035 . S
O104 Zn103 2.028 . S
O104 C110 1.247 . S
O105 Zn101 2.035 . S
O105 C110 1.258 . S
O106 C99 1.247 . S
O106 Zn103 2.028 . S
O107 C99 1.258 . S
O107 Zn101 2.035 . S
O108 Zn101 2.028 . S
O108 C111 1.247 . S
O109 Zn103 2.035 . S
O109 C111 1.258 . S
C110 O104 1.247 . S
C110 O105 1.258 . S
C111 O108 1.247 . S
C111 O109 1.258 . S
C112 O114 1.247 . S
C112 O116 1.258 . S
C113 O120 1.247 . S
C113 O121 1.258 . S
O114 C112 1.247 . S
O114 Zn115 2.028 . S
Zn115 O114 2.028 . S
Zn115 O119 2.035 . S
Zn115 O121 2.035 . S
Zn115 O122 2.028 . S
O116 C112 1.258 . S
O116 Zn117 2.035 . S
Zn117 O116 2.035 . S
Zn117 O118 2.028 . S
Zn117 O120 2.028 . S
Zn117 O123 2.035 . S
O118 Zn117 2.028 . S
O118 C124 1.247 . S
O119 Zn115 2.035 . S
O119 C124 1.258 . S
O120 C113 1.247 . S
O120 Zn117 2.028 . S
O121 C113 1.258 . S
O121 Zn115 2.035 . S
O122 Zn115 2.028 . S
O122 C125 1.247 . S
O123 Zn117 2.035 . S
O123 C125 1.258 . S
C124 O118 1.247 . S
C124 O119 1.258 . S
C125 O122 1.247 . S
C125 O123 1.258 . S
C126 O128 1.247 . S
C126 O130 1.258 . S
C127 O134 1.247 . S
C127 O135 1.258 . S
O128 C126 1.247 . S
O128 Zn129 2.028 . S
Zn129 O128 2.028 . S
Zn129 O133 2.035 . S
Zn129 O135 2.035 . S
Zn129 O136 2.028 . S
O130 C126 1.258 . S
O130 Zn131 2.035 . S
Zn131 O130 2.035 . S
Zn131 O132 2.028 . S
Zn131 O134 2.028 . S
Zn131 O137 2.035 . S
O132 Zn131 2.028 . S
O132 C138 1.247 . S
O133 Zn129 2.035 . S
O133 C138 1.258 . S
O134 C127 1.247 . S
O134 Zn131 2.028 . S
O135 C127 1.258 . S
O135 Zn129 2.035 . S
O136 Zn129 2.028 . S
O136 C139 1.247 . S
O137 Zn131 2.035 . S
O137 C139 1.258 . S
C138 O132 1.247 . S
C138 O133 1.258 . S
C139 O136 1.247 . S
C139 O137 1.258 . S
C140 O142 1.247 . S
C140 O144 1.258 . S
C141 O148 1.247 . S
C141 O149 1.258 . S
O142 C140 1.247 . S
O142 Zn143 2.028 . S
Zn143 O142 2.028 . S
Zn143 O147 2.035 . S
Zn143 O149 2.035 . S
Zn143 O150 2.028 . S
O144 C140 1.258 . S
O144 Zn145 2.035 . S
Zn145 O144 2.035 . S
Zn145 O146 2.028 . S
Zn145 O148 2.028 . S
Zn145 O151 2.035 . S
O146 Zn145 2.028 . S
O146 C152 1.247 . S
O147 Zn143 2.035 . S
O147 C152 1.258 . S
O148 C141 1.247 . S
O148 Zn145 2.028 . S
O149 C141 1.258 . S
O149 Zn143 2.035 . S
O150 Zn143 2.028 . S
O150 C153 1.247 . S
O151 Zn145 2.035 . S
O151 C153 1.258 . S
C152 O146 1.247 . S
C152 O147 1.258 . S
C153 O150 1.247 . S
C153 O151 1.258 . S
C154 O156 1.247 . S
C154 O158 1.258 . S
C155 O162 1.247 . S
C155 O163 1.258 . S
O156 C154 1.247 . S
O156 Zn157 2.028 . S
Zn157 O156 2.028 . S
Zn157 O161 2.035 . S
Zn157 O163 2.035 . S
Zn157 O164 2.028 . S
O158 C154 1.258 . S
O158 Zn159 2.035 . S
Zn159 O158 2.035 . S
Zn159 O160 2.028 . S
Zn159 O162 2.028 . S
Zn159 O165 2.035 . S
O160 Zn159 2.028 . S
O160 C166 1.247 . S
O161 Zn157 2.035 . S
O161 C166 1.258 . S
O162 C155 1.247 . S
O162 Zn159 2.028 . S
O163 C155 1.258 . S
O163 Zn157 2.035 . S
O164 Zn157 2.028 . S
O164 C167 1.247 . S
O165 Zn159 2.035 . S
O165 C167 1.258 . S
C166 O160 1.247 . S
C166 O161 1.258 . S
C167 O164 1.247 . S
C167 O165 1.258 . S
C168 O170 1.247 . S
C168 O172 1.258 . S
C169 O176 1.247 . S
C169 O177 1.258 . S
O170 C168 1.247 . S
O170 Zn171 2.028 . S
Zn171 O170 2.028 . S
Zn171 O175 2.035 . S
Zn171 O177 2.035 . S
Zn171 O178 2.028 . S
O172 C168 1.258 . S
O172 Zn173 2.035 . S
Zn173 O172 2.035 . S
Zn173 O174 2.028 . S
Zn173 O176 2.028 . S
Zn173 O179 2.035 . S
O174 Zn173 2.028 . S
O174 C180 1.247 . S
O175 Zn171 2.035 . S
O175 C180 1.258 . S
O176 C169 1.247 . S
O176 Zn173 2.028 . S
O177 C169 1.258 . S
O177 Zn171 2.035 . S
O178 Zn171 2.028 . S
O178 C181 1.247 . S
O179 Zn173 2.035 . S
O179 C181 1.258 . S
C180 O174 1.247 . S
C180 O175 1.258 . S
C181 O178 1.247 . S
C181 O179 1.258 . S
C182 O184 1.247 . S
C182 O186 1.258 . S
C183 O190 1.247 . S
C183 O191 1.258 . S
O184 C182 1.247 . S
O184 Zn185 2.028 . S
Zn185 O184 2.028 . S
Zn185 O189 2.035 . S
Zn185 O191 2.035 . S
Zn185 O192 2.028 . S
O186 C182 1.258 . S
O186 Zn187 2.035 . S
Zn187 O186 2.035 . S
Zn187 O188 2.028 . S
Zn187 O190 2.028 . S
Zn187 O193 2.035 . S
O188 Zn187 2.028 . S
O188 C194 1.247 . S
O189 Zn185 2.035 . S
O189 C194 1.258 . S
O190 C183 1.247 . S
O190 Zn187 2.028 . S
O191 C183 1.258 . S
O191 Zn185 2.035 . S
O192 Zn185 2.028 . S
O192 C195 1.247 . S
O193 Zn187 2.035 . S
O193 C195 1.258 . S
C194 O188 1.247 . S
C194 O189 1.258 . S
C195 O192 1.247 . S
C195 O193 1.258 . S
C196 O198 1.247 . S
C196 O200 1.258 . S
C197 O204 1.247 . S
C197 O205 1.258 . S
O198 C196 1.247 . S
O198 Zn199 2.028 . S
Zn199 O198 2.028 . S
Zn199 O203 2.035 . S
Zn199 O205 2.035 . S
Zn199 O206 2.028 . S
O200 C196 1.258 . S
O200 Zn201 2.035 . S
Zn201 O200 2.035 . S
Zn201 O202 2.028 . S
Zn201 O204 2.028 . S
Zn201 O207 2.035 . S
O202 Zn201 2.028 . S
O202 C208 1.247 . S
O203 Zn199 2.035 . S
O203 C208 1.258 . S
O204 C197 1.247 . S
O204 Zn201 2.028 . S
O205 C197 1.258 . S
O205 Zn199 2.035 . S
O206 Zn199 2.028 . S
O206 C209 1.247 . S
O207 Zn201 2.035 . S
O207 C209 1.258 . S
C208 O202 1.247 . S
C208 O203 1.258 . S
C209 O206 1.247 . S
C209 O207 1.258 . S
C210 O212 1.247 . S
C210 O214 1.258 . S
C211 O218 1.247 . S
C211 O219 1.258 . S
O212 C210 1.247 . S
O212 Zn213 2.028 . S
Zn213 O212 2.028 . S
Zn213 O217 2.035 . S
Zn213 O219 2.035 . S
Zn213 O220 2.028 . S
O214 C210 1.258 . S
O214 Zn215 2.035 . S
Zn215 O214 2.035 . S
Zn215 O216 2.028 . S
Zn215 O218 2.028 . S
Zn215 O221 2.035 . S
O216 Zn215 2.028 . S
O216 C222 1.247 . S
O217 Zn213 2.035 . S
O217 C222 1.258 . S
O218 C211 1.247 . S
O218 Zn215 2.028 . S
O219 C211 1.258 . S
O219 Zn213 2.035 . S
O220 Zn213 2.028 . S
O220 C223 1.247 . S
O221 Zn215 2.035 . S
O221 C223 1.258 . S
C222 O216 1.247 . S
C222 O217 1.258 . S
C223 O220 1.247 . S
C223 O221 1.258 . S
H224 C232 0.929 . S
H225 C234 0.930 . S
H226 C236 0.930 . S
H227 C239 0.929 . S
H228 C242 0.930 . S
H229 C244 0.959 1_655 S
H230 C244 0.960 . S
H231 C244 0.960 . S
C232 H224 0.929 . S
C232 C233 1.377 . S
C232 C234 1.384 . S
C233 C232 1.377 . S
C233 C239 1.390 . S
C234 H225 0.930 . S
C234 C232 1.384 . S
C234 C235 1.372 . S
C235 C234 1.372 . S
C235 C236 1.400 . S
C235 C240 1.490 . S
C236 H226 0.930 . S
C236 C235 1.400 . S
C236 C239 1.386 . S
H237 C253 0.930 . S
H238 C254 0.931 . S
C239 H227 0.929 . S
C239 C233 1.390 . S
C239 C236 1.386 . S
C240 C235 1.490 . S
C240 C242 1.395 . S
C240 C243 1.403 . S
H241 C247 0.930 . S
C242 H228 0.930 . S
C242 C240 1.395 . S
C242 C245 1.403 1_455 S
C243 C240 1.403 . S
C243 C244 1.524 . S
C243 C247 1.400 1_455 S
C244 H229 0.959 1_455 S
C244 H230 0.960 . S
C244 H231 0.960 . S
C244 C243 1.524 . S
C245 C242 1.403 1_655 S
C245 C246 1.392 . S
C245 C249 1.495 . S
C246 C245 1.392 . S
C246 C247 1.385 . S
C246 C248 1.478 . S
C247 H241 0.930 . S
C247 C243 1.400 1_655 S
C247 C246 1.385 . S
C248 C246 1.478 . S
C248 C250 1.381 . S
C248 C254 1.383 . S
C249 C245 1.495 . S
C249 H255 0.954 1_655 S
C249 H256 0.961 . S
C249 H257 0.960 . S
C250 C248 1.381 . S
C250 C251 1.394 . S
C250 H258 0.930 . S
C251 C250 1.394 . S
C251 C252 1.383 . S
C251 H259 0.929 . S
C252 C251 1.383 . S
C252 C253 1.377 . S
C253 H237 0.930 . S
C253 C252 1.377 . S
C253 C254 1.379 . S
C254 H238 0.931 . S
C254 C248 1.383 . S
C254 C253 1.379 . S
H255 C249 0.954 1_455 S
H256 C249 0.961 . S
H257 C249 0.960 . S
H258 C250 0.930 . S
H259 C251 0.929 . S
H260 C268 0.929 . S
H261 C270 0.930 . S
H262 C272 0.930 . S
H263 C275 0.929 . S
H264 C278 0.930 . S
H265 C280 0.933 1_545 S
H266 C280 0.960 . S
H267 C280 0.960 . S
C268 H260 0.929 . S
C268 C269 1.377 . S
C268 C270 1.384 . S
C269 C268 1.377 . S
C269 C275 1.390 . S
C270 H261 0.930 . S
C270 C268 1.384 . S
C270 C271 1.372 . S
C271 C270 1.372 . S
C271 C272 1.400 . S
C271 C276 1.490 . S
C272 H262 0.930 . S
C272 C271 1.400 . S
C272 C275 1.386 . S
H273 C289 0.930 . S
H274 C290 0.931 . S
C275 H263 0.929 . S
C275 C269 1.390 . S
C275 C272 1.386 . S
C276 C271 1.490 . S
C276 C278 1.395 . S
C276 C279 1.403 . S
H277 C283 0.930 . S
C278 H264 0.930 . S
C278 C276 1.395 . S
C278 C281 1.403 1_565 S
C279 C276 1.403 . S
C279 C280 1.524 . S
C279 C283 1.400 1_565 S
C280 H265 0.933 1_565 S
C280 H266 0.960 . S
C280 H267 0.960 . S
C280 C279 1.524 . S
C281 C278 1.403 1_545 S
C281 C282 1.392 . S
C281 C285 1.495 . S
C282 C281 1.392 . S
C282 C283 1.385 . S
C282 C284 1.478 . S
C283 H277 0.930 . S
C283 C279 1.400 1_545 S
C283 C282 1.385 . S
C284 C282 1.478 . S
C284 C286 1.381 . S
C284 C290 1.383 . S
C285 C281 1.495 . S
C285 H291 0.930 1_545 S
C285 H292 0.961 . S
C285 H293 0.960 . S
C286 C284 1.381 . S
C286 C287 1.394 . S
C286 H294 0.930 . S
C287 C286 1.394 . S
C287 C288 1.383 . S
C287 H295 0.929 . S
C288 C287 1.383 . S
C288 C289 1.377 . S
C289 H273 0.930 . S
C289 C288 1.377 . S
C289 C290 1.379 . S
C290 H274 0.931 . S
C290 C284 1.383 . S
C290 C289 1.379 . S
H291 C285 0.930 1_565 S
H292 C285 0.961 . S
H293 C285 0.960 . S
H294 C286 0.930 . S
H295 C287 0.929 . S
H296 C304 0.929 . S
H297 C306 0.930 . S
H298 C308 0.930 . S
H299 C311 0.929 . S
H300 C314 0.930 . S
H301 C316 0.960 1_655 S
H302 C316 0.960 . S
H303 C316 0.960 . S
C304 H296 0.929 . S
C304 C305 1.377 . S
C304 C306 1.384 . S
C305 C304 1.377 . S
C305 C311 1.390 . S
C306 H297 0.930 . S
C306 C304 1.384 . S
C306 C307 1.372 . S
C307 C306 1.372 . S
C307 C308 1.400 . S
C307 C312 1.490 . S
C308 H298 0.930 . S
C308 C307 1.400 . S
C308 C311 1.386 . S
H309 C325 0.930 . S
H310 C326 0.931 . S
C311 H299 0.929 . S
C311 C305 1.390 . S
C311 C308 1.386 . S
C312 C307 1.490 . S
C312 C314 1.395 . S
C312 C315 1.403 . S
H313 C319 0.930 . S
C314 H300 0.930 . S
C314 C312 1.395 . S
C314 C317 1.403 1_455 S
C315 C312 1.403 . S
C315 C316 1.524 . S
C315 C319 1.400 1_455 S
C316 H301 0.960 1_455 S
C316 H302 0.960 . S
C316 H303 0.960 . S
C316 C315 1.524 . S
C317 C314 1.403 1_655 S
C317 C318 1.392 . S
C317 C321 1.495 . S
C318 C317 1.392 . S
C318 C319 1.385 . S
C318 C320 1.478 . S
C319 H313 0.930 . S
C319 C315 1.400 1_655 S
C319 C318 1.385 . S
C320 C318 1.478 . S
C320 C322 1.381 . S
C320 C326 1.383 . S
C321 C317 1.495 . S
C321 H327 0.921 1_655 S
C321 H328 0.961 . S
C321 H329 0.960 . S
C322 C320 1.381 . S
C322 C323 1.394 . S
C322 H330 0.930 . S
C323 C322 1.394 . S
C323 C324 1.383 . S
C323 H331 0.929 . S
C324 C323 1.383 . S
C324 C325 1.377 . S
C325 H309 0.930 . S
C325 C324 1.377 . S
C325 C326 1.379 . S
C326 H310 0.931 . S
C326 C320 1.383 . S
C326 C325 1.379 . S
H327 C321 0.921 1_455 S
H328 C321 0.961 . S
H329 C321 0.960 . S
H330 C322 0.930 . S
H331 C323 0.929 . S
H332 C340 0.929 . S
H333 C342 0.930 . S
H334 C344 0.930 . S
H335 C347 0.929 . S
H336 C350 0.930 . S
H337 C352 0.960 . S
H338 C352 0.960 . S
H339 C352 0.960 . S
C340 H332 0.929 . S
C340 C341 1.377 . S
C340 C342 1.384 . S
C341 C340 1.377 . S
C341 C347 1.390 . S
C342 H333 0.930 . S
C342 C340 1.384 . S
C342 C343 1.372 . S
C343 C342 1.372 . S
C343 C344 1.400 . S
C343 C348 1.490 . S
C344 H334 0.930 . S
C344 C343 1.400 . S
C344 C347 1.386 . S
H345 C361 0.930 . S
H346 C362 0.931 . S
C347 H335 0.929 . S
C347 C341 1.390 . S
C347 C344 1.386 . S
C348 C343 1.490 . S
C348 C350 1.395 . S
C348 C351 1.403 . S
H349 C355 0.930 . S
C350 H336 0.930 . S
C350 C348 1.395 . S
C350 C353 1.403 1_565 S
C351 C348 1.403 . S
C351 C352 1.524 . S
C351 C355 1.400 1_565 S
C352 H337 0.960 . S
C352 H338 0.960 . S
C352 H339 0.960 . S
C352 C351 1.524 . S
C353 C350 1.403 1_545 S
C353 C354 1.392 . S
C353 C357 1.495 . S
C354 C353 1.392 . S
C354 C355 1.385 . S
C354 C356 1.478 . S
C355 H349 0.930 . S
C355 C351 1.400 1_545 S
C355 C354 1.385 . S
C356 C354 1.478 . S
C356 C358 1.381 . S
C356 C362 1.383 . S
C357 C353 1.495 . S
C357 H363 0.959 . S
C357 H364 0.961 . S
C357 H365 0.960 . S
C358 C356 1.381 . S
C358 C359 1.394 . S
C358 H366 0.930 . S
C359 C358 1.394 . S
C359 C360 1.383 . S
C359 H367 0.929 . S
C360 C359 1.383 . S
C360 C361 1.377 . S
C361 H345 0.930 . S
C361 C360 1.377 . S
C361 C362 1.379 . S
C362 H346 0.931 . S
C362 C356 1.383 . S
C362 C361 1.379 . S
H363 C357 0.959 . S
H364 C357 0.961 . S
H365 C357 0.960 . S
H366 C358 0.930 . S
H367 C359 0.929 . S
H368 C376 0.929 . S
H369 C378 0.930 . S
H370 C380 0.930 . S
H371 C383 0.929 . S
H372 C386 0.930 . S
H373 C388 0.964 . S
H374 C388 0.960 . S
H375 C388 0.960 . S
C376 H368 0.929 . S
C376 C377 1.377 . S
C376 C378 1.384 . S
C377 C376 1.377 . S
C377 C383 1.390 . S
C378 H369 0.930 . S
C378 C376 1.384 . S
C378 C379 1.372 . S
C379 C378 1.372 . S
C379 C380 1.400 . S
C379 C384 1.490 . S
C380 H370 0.930 . S
C380 C379 1.400 . S
C380 C383 1.386 . S
H381 C397 0.930 . S
H382 C398 0.931 . S
C383 H371 0.929 . S
C383 C377 1.390 . S
C383 C380 1.386 . S
C384 C379 1.490 . S
C384 C386 1.395 . S
C384 C387 1.403 . S
H385 C391 0.930 . S
C386 H372 0.930 . S
C386 C384 1.395 . S
C386 C389 1.403 1_655 S
C387 C384 1.403 . S
C387 C388 1.524 . S
C387 C391 1.400 1_655 S
C388 H373 0.964 . S
C388 H374 0.960 . S
C388 H375 0.960 . S
C388 C387 1.524 . S
C389 C386 1.403 1_455 S
C389 C390 1.392 . S
C389 C393 1.495 . S
C390 C389 1.392 . S
C390 C391 1.385 . S
C390 C392 1.478 . S
C391 H385 0.930 . S
C391 C387 1.400 1_455 S
C391 C390 1.385 . S
C392 C390 1.478 . S
C392 C394 1.381 . S
C392 C398 1.383 . S
C393 C389 1.495 . S
C393 H399 0.959 . S
C393 H400 0.961 . S
C393 H401 0.960 . S
C394 C392 1.381 . S
C394 C395 1.394 . S
C394 H402 0.930 . S
C395 C394 1.394 . S
C395 C396 1.383 . S
C395 H403 0.929 . S
C396 C395 1.383 . S
C396 C397 1.377 . S
C397 H381 0.930 . S
C397 C396 1.377 . S
C397 C398 1.379 . S
C398 H382 0.931 . S
C398 C392 1.383 . S
C398 C397 1.379 . S
H399 C393 0.959 . S
H400 C393 0.961 . S
H401 C393 0.960 . S
H402 C394 0.930 . S
H403 C395 0.929 . S
H404 C412 0.929 . S
H405 C414 0.930 . S
H406 C416 0.930 . S
H407 C419 0.929 . S
H408 C422 0.930 . S
H409 C424 0.960 . S
H410 C424 0.960 . S
H411 C424 0.960 . S
C412 H404 0.929 . S
C412 C413 1.377 . S
C412 C414 1.384 . S
C413 C412 1.377 . S
C413 C419 1.390 . S
C414 H405 0.930 . S
C414 C412 1.384 . S
C414 C415 1.372 . S
C415 C414 1.372 . S
C415 C416 1.400 . S
C415 C420 1.490 . S
C416 H406 0.930 . S
C416 C415 1.400 . S
C416 C419 1.386 . S
H417 C433 0.930 . S
H418 C434 0.931 . S
C419 H407 0.929 . S
C419 C413 1.390 . S
C419 C416 1.386 . S
C420 C415 1.490 . S
C420 C422 1.395 . S
C420 C423 1.403 . S
H421 C427 0.930 . S
C422 H408 0.930 . S
C422 C420 1.395 . S
C422 C425 1.403 1_545 S
C423 C420 1.403 . S
C423 C424 1.524 . S
C423 C427 1.400 1_545 S
C424 H409 0.960 . S
C424 H410 0.960 . S
C424 H411 0.960 . S
C424 C423 1.524 . S
C425 C422 1.403 1_565 S
C425 C426 1.392 . S
C425 C429 1.495 . S
C426 C425 1.392 . S
C426 C427 1.385 . S
C426 C428 1.478 . S
C427 H421 0.930 . S
C427 C423 1.400 1_565 S
C427 C426 1.385 . S
C428 C426 1.478 . S
C428 C430 1.381 . S
C428 C434 1.383 . S
C429 C425 1.495 . S
C429 H435 0.959 . S
C429 H436 0.961 . S
C429 H437 0.960 . S
C430 C428 1.381 . S
C430 C431 1.394 . S
C430 H438 0.930 . S
C431 C430 1.394 . S
C431 C432 1.383 . S
C431 H439 0.929 . S
C432 C431 1.383 . S
C432 C433 1.377 . S
C433 H417 0.930 . S
C433 C432 1.377 . S
C433 C434 1.379 . S
C434 H418 0.931 . S
C434 C428 1.383 . S
C434 C433 1.379 . S
H435 C429 0.959 . S
H436 C429 0.961 . S
H437 C429 0.960 . S
H438 C430 0.930 . S
H439 C431 0.929 . S
H440 C448 0.929 . S
H441 C450 0.930 . S
H442 C452 0.930 . S
H443 C455 0.929 . S
H444 C458 0.930 . S
H445 C460 0.960 . S
H446 C460 0.960 . S
H447 C460 0.960 . S
C448 H440 0.929 . S
C448 C449 1.377 . S
C448 C450 1.384 . S
C449 C448 1.377 . S
C449 C455 1.390 . S
C450 H441 0.930 . S
C450 C448 1.384 . S
C450 C451 1.372 . S
C451 C450 1.372 . S
C451 C452 1.400 . S
C451 C456 1.490 . S
C452 H442 0.930 . S
C452 C451 1.400 . S
C452 C455 1.386 . S
H453 C469 0.930 . S
H454 C470 0.931 . S
C455 H443 0.929 . S
C455 C449 1.390 . S
C455 C452 1.386 . S
C456 C451 1.490 . S
C456 C458 1.395 . S
C456 C459 1.403 . S
H457 C463 0.930 . S
C458 H444 0.930 . S
C458 C456 1.395 . S
C458 C461 1.403 1_655 S
C459 C456 1.403 . S
C459 C460 1.524 . S
C459 C463 1.400 1_655 S
C460 H445 0.960 . S
C460 H446 0.960 . S
C460 H447 0.960 . S
C460 C459 1.524 . S
C461 C458 1.403 1_455 S
C461 C462 1.392 . S
C461 C465 1.495 . S
C462 C461 1.392 . S
C462 C463 1.385 . S
C462 C464 1.478 . S
C463 H457 0.930 . S
C463 C459 1.400 1_455 S
C463 C462 1.385 . S
C464 C462 1.478 . S
C464 C466 1.381 . S
C464 C470 1.383 . S
C465 C461 1.495 . S
C465 H471 0.959 . S
C465 H472 0.961 . S
C465 H473 0.960 . S
C466 C464 1.381 . S
C466 C467 1.394 . S
C466 H474 0.930 . S
C467 C466 1.394 . S
C467 C468 1.383 . S
C467 H475 0.929 . S
C468 C467 1.383 . S
C468 C469 1.377 . S
C469 H453 0.930 . S
C469 C468 1.377 . S
C469 C470 1.379 . S
C470 H454 0.931 . S
C470 C464 1.383 . S
C470 C469 1.379 . S
H471 C465 0.959 . S
H472 C465 0.961 . S
H473 C465 0.960 . S
H474 C466 0.930 . S
H475 C467 0.929 . S
H476 C484 0.929 . S
H477 C486 0.930 . S
H478 C488 0.930 . S
H479 C491 0.929 . S
H480 C494 0.930 . S
H481 C496 0.960 . S
H482 C496 0.960 . S
H483 C496 0.960 . S
C484 H476 0.929 . S
C484 C485 1.377 . S
C484 C486 1.384 . S
C485 C484 1.377 . S
C485 C491 1.390 . S
C486 H477 0.930 . S
C486 C484 1.384 . S
C486 C487 1.372 . S
C487 C486 1.372 . S
C487 C488 1.400 . S
C487 C492 1.490 . S
C488 H478 0.930 . S
C488 C487 1.400 . S
C488 C491 1.386 . S
H489 C505 0.930 . S
H490 C506 0.931 . S
C491 H479 0.929 . S
C491 C485 1.390 . S
C491 C488 1.386 . S
C492 C487 1.490 . S
C492 C494 1.395 . S
C492 C495 1.403 . S
H493 C499 0.930 . S
C494 H480 0.930 . S
C494 C492 1.395 . S
C494 C497 1.403 1_545 S
C495 C492 1.403 . S
C495 C496 1.524 . S
C495 C499 1.400 1_545 S
C496 H481 0.960 . S
C496 H482 0.960 . S
C496 H483 0.960 . S
C496 C495 1.524 . S
C497 C494 1.403 1_565 S
C497 C498 1.392 . S
C497 C501 1.495 . S
C498 C497 1.392 . S
C498 C499 1.385 . S
C498 C500 1.478 . S
C499 H493 0.930 . S
C499 C495 1.400 1_565 S
C499 C498 1.385 . S
C500 C498 1.478 . S
C500 C502 1.381 . S
C500 C506 1.383 . S
C501 C497 1.495 . S
C501 H507 0.959 . S
C501 H508 0.961 . S
C501 H509 0.960 . S
C502 C500 1.381 . S
C502 C503 1.394 . S
C502 H510 0.930 . S
C503 C502 1.394 . S
C503 C504 1.383 . S
C503 H511 0.929 . S
C504 C503 1.383 . S
C504 C505 1.377 . S
C505 H489 0.930 . S
C505 C504 1.377 . S
C505 C506 1.379 . S
C506 H490 0.931 . S
C506 C500 1.383 . S
C506 C505 1.379 . S
H507 C501 0.959 . S
H508 C501 0.961 . S
H509 C501 0.960 . S
H510 C502 0.930 . S
H511 C503 0.929 . S
H512 C520 0.929 . S
H513 C522 0.930 . S
H514 C524 0.930 . S
H515 C527 0.929 . S
H516 C530 0.930 . S
H517 C532 0.960 . S
H518 C532 0.960 . S
H519 C532 0.960 . S
C520 H512 0.929 . S
C520 C521 1.377 . S
C520 C522 1.384 . S
C521 C520 1.377 . S
C521 C527 1.390 . S
C522 H513 0.930 . S
C522 C520 1.384 . S
C522 C523 1.372 . S
C523 C522 1.372 . S
C523 C524 1.400 . S
C523 C528 1.490 . S
C524 H514 0.930 . S
C524 C523 1.400 . S
C524 C527 1.386 . S
H525 C541 0.930 . S
H526 C542 0.931 . S
C527 H515 0.929 . S
C527 C521 1.390 . S
C527 C524 1.386 . S
C528 C523 1.490 . S
C528 C530 1.395 . S
C528 C531 1.403 . S
H529 C535 0.930 . S
C530 H516 0.930 . S
C530 C528 1.395 . S
C530 C533 1.403 . S
C531 C528 1.403 . S
C531 C532 1.524 . S
C531 C535 1.400 . S
C532 H517 0.960 . S
C532 H518 0.960 . S
C532 H519 0.960 . S
C532 C531 1.524 . S
C533 C530 1.403 . S
C533 C534 1.392 . S
C533 C537 1.495 . S
C534 C533 1.392 . S
C534 C535 1.385 . S
C534 C536 1.478 . S
C535 H529 0.930 . S
C535 C531 1.400 . S
C535 C534 1.385 . S
C536 C534 1.478 . S
C536 C538 1.381 . S
C536 C542 1.383 . S
C537 C533 1.495 . S
C537 H543 0.959 . S
C537 H544 0.961 . S
C537 H545 0.960 . S
C538 C536 1.381 . S
C538 C539 1.394 . S
C538 H546 0.930 . S
C539 C538 1.394 . S
C539 C540 1.383 . S
C539 H547 0.929 . S
C540 C539 1.383 . S
C540 C541 1.377 . S
C541 H525 0.930 . S
C541 C540 1.377 . S
C541 C542 1.379 . S
C542 H526 0.931 . S
C542 C536 1.383 . S
C542 C541 1.379 . S
H543 C537 0.959 . S
H544 C537 0.961 . S
H545 C537 0.960 . S
H546 C538 0.930 . S
H547 C539 0.929 . S
H548 C556 0.929 . S
H549 C558 0.930 . S
H550 C560 0.930 . S
H551 C563 0.929 . S
H552 C566 0.930 . S
H553 C568 0.960 . S
H554 C568 0.960 . S
H555 C568 0.960 . S
C556 H548 0.929 . S
C556 C557 1.377 . S
C556 C558 1.384 . S
C557 C556 1.377 . S
C557 C563 1.390 . S
C558 H549 0.930 . S
C558 C556 1.384 . S
C558 C559 1.372 . S
C559 C558 1.372 . S
C559 C560 1.400 . S
C559 C564 1.490 . S
C560 H550 0.930 . S
C560 C559 1.400 . S
C560 C563 1.386 . S
H561 C577 0.930 . S
H562 C578 0.931 . S
C563 H551 0.929 . S
C563 C557 1.390 . S
C563 C560 1.386 . S
C564 C559 1.490 . S
C564 C566 1.395 . S
C564 C567 1.403 . S
H565 C571 0.930 . S
C566 H552 0.930 . S
C566 C564 1.395 . S
C566 C569 1.403 . S
C567 C564 1.403 . S
C567 C568 1.524 . S
C567 C571 1.400 . S
C568 H553 0.960 . S
C568 H554 0.960 . S
C568 H555 0.960 . S
C568 C567 1.524 . S
C569 C566 1.403 . S
C569 C570 1.392 . S
C569 C573 1.495 . S
C570 C569 1.392 . S
C570 C571 1.385 . S
C570 C572 1.478 . S
C571 H565 0.930 . S
C571 C567 1.400 . S
C571 C570 1.385 . S
C572 C570 1.478 . S
C572 C574 1.381 . S
C572 C578 1.383 . S
C573 C569 1.495 . S
C573 H579 0.959 . S
C573 H580 0.961 . S
C573 H581 0.960 . S
C574 C572 1.381 . S
C574 C575 1.394 . S
C574 H582 0.930 . S
C575 C574 1.394 . S
C575 C576 1.383 . S
C575 H583 0.929 . S
C576 C575 1.383 . S
C576 C577 1.377 . S
C577 H561 0.930 . S
C577 C576 1.377 . S
C577 C578 1.379 . S
C578 H562 0.931 . S
C578 C572 1.383 . S
C578 C577 1.379 . S
H579 C573 0.959 . S
H580 C573 0.961 . S
H581 C573 0.960 . S
H582 C574 0.930 . S
H583 C575 0.929 . S
H584 C592 0.929 . S
H585 C594 0.930 . S
H586 C596 0.930 . S
H587 C599 0.929 . S
H588 C602 0.930 . S
H589 C604 0.960 . S
H590 C604 0.960 . S
H591 C604 0.960 . S
C592 H584 0.929 . S
C592 C593 1.377 . S
C592 C594 1.384 . S
C593 C592 1.377 . S
C593 C599 1.390 . S
C594 H585 0.930 . S
C594 C592 1.384 . S
C594 C595 1.372 . S
C595 C594 1.372 . S
C595 C596 1.400 . S
C595 C600 1.490 . S
C596 H586 0.930 . S
C596 C595 1.400 . S
C596 C599 1.386 . S
H597 C613 0.930 . S
H598 C614 0.931 . S
C599 H587 0.929 . S
C599 C593 1.390 . S
C599 C596 1.386 . S
C600 C595 1.490 . S
C600 C602 1.395 . S
C600 C603 1.403 . S
H601 C607 0.930 . S
C602 H588 0.930 . S
C602 C600 1.395 . S
C602 C605 1.403 . S
C603 C600 1.403 . S
C603 C604 1.524 . S
C603 C607 1.400 . S
C604 H589 0.960 . S
C604 H590 0.960 . S
C604 H591 0.960 . S
C604 C603 1.524 . S
C605 C602 1.403 . S
C605 C606 1.392 . S
C605 C609 1.495 . S
C606 C605 1.392 . S
C606 C607 1.385 . S
C606 C608 1.478 . S
C607 H601 0.930 . S
C607 C603 1.400 . S
C607 C606 1.385 . S
C608 C606 1.478 . S
C608 C610 1.381 . S
C608 C614 1.383 . S
C609 C605 1.495 . S
C609 H615 0.959 . S
C609 H616 0.961 . S
C609 H617 0.960 . S
C610 C608 1.381 . S
C610 C611 1.394 . S
C610 H618 0.930 . S
C611 C610 1.394 . S
C611 C612 1.383 . S
C611 H619 0.929 . S
C612 C611 1.383 . S
C612 C613 1.377 . S
C613 H597 0.930 . S
C613 C612 1.377 . S
C613 C614 1.379 . S
C614 H598 0.931 . S
C614 C608 1.383 . S
C614 C613 1.379 . S
H615 C609 0.959 . S
H616 C609 0.961 . S
H617 C609 0.960 . S
H618 C610 0.930 . S
H619 C611 0.929 . S
H620 C628 0.929 . S
H621 C630 0.930 . S
H622 C632 0.930 . S
H623 C635 0.929 . S
H624 C638 0.930 . S
H625 C640 0.960 . S
H626 C640 0.960 . S
H627 C640 0.960 . S
C628 H620 0.929 . S
C628 C629 1.377 . S
C628 C630 1.384 . S
C629 C628 1.377 . S
C629 C635 1.390 . S
C630 H621 0.930 . S
C630 C628 1.384 . S
C630 C631 1.372 . S
C631 C630 1.372 . S
C631 C632 1.400 . S
C631 C636 1.490 . S
C632 H622 0.930 . S
C632 C631 1.400 . S
C632 C635 1.386 . S
H633 C649 0.930 . S
H634 C650 0.931 . S
C635 H623 0.929 . S
C635 C629 1.390 . S
C635 C632 1.386 . S
C636 C631 1.490 . S
C636 C638 1.395 . S
C636 C639 1.403 . S
H637 C643 0.930 . S
C638 H624 0.930 . S
C638 C636 1.395 . S
C638 C641 1.403 . S
C639 C636 1.403 . S
C639 C640 1.524 . S
C639 C643 1.400 . S
C640 H625 0.960 . S
C640 H626 0.960 . S
C640 H627 0.960 . S
C640 C639 1.524 . S
C641 C638 1.403 . S
C641 C642 1.392 . S
C641 C645 1.495 . S
C642 C641 1.392 . S
C642 C643 1.385 . S
C642 C644 1.478 . S
C643 H637 0.930 . S
C643 C639 1.400 . S
C643 C642 1.385 . S
C644 C642 1.478 . S
C644 C646 1.381 . S
C644 C650 1.383 . S
C645 C641 1.495 . S
C645 H651 0.959 . S
C645 H652 0.961 . S
C645 H653 0.960 . S
C646 C644 1.381 . S
C646 C647 1.394 . S
C646 H654 0.930 . S
C647 C646 1.394 . S
C647 C648 1.383 . S
C647 H655 0.929 . S
C648 C647 1.383 . S
C648 C649 1.377 . S
C649 H633 0.930 . S
C649 C648 1.377 . S
C649 C650 1.379 . S
C650 H634 0.931 . S
C650 C644 1.383 . S
C650 C649 1.379 . S
H651 C645 0.959 . S
H652 C645 0.961 . S
H653 C645 0.960 . S
H654 C646 0.930 . S
H655 C647 0.929 . S
H656 C664 0.929 . S
H657 C666 0.930 . S
H658 C668 0.930 . S
H659 C671 0.929 . S
H660 C674 0.930 . S
H661 C676 0.960 . S
H662 C676 0.960 . S
H663 C676 0.960 . S
C664 H656 0.929 . S
C664 C665 1.377 . S
C664 C666 1.384 . S
C665 C664 1.377 . S
C665 C671 1.390 . S
C666 H657 0.930 . S
C666 C664 1.384 . S
C666 C667 1.372 . S
C667 C666 1.372 . S
C667 C668 1.400 . S
C667 C672 1.490 . S
C668 H658 0.930 . S
C668 C667 1.400 . S
C668 C671 1.386 . S
H669 C685 0.930 . S
H670 C686 0.931 . S
C671 H659 0.929 . S
C671 C665 1.390 . S
C671 C668 1.386 . S
C672 C667 1.490 . S
C672 C674 1.395 . S
C672 C675 1.403 . S
H673 C679 0.930 . S
C674 H660 0.930 . S
C674 C672 1.395 . S
C674 C677 1.403 . S
C675 C672 1.403 . S
C675 C676 1.524 . S
C675 C679 1.400 . S
C676 H661 0.960 . S
C676 H662 0.960 . S
C676 H663 0.960 . S
C676 C675 1.524 . S
C677 C674 1.403 . S
C677 C678 1.392 . S
C677 C681 1.495 . S
C678 C677 1.392 . S
C678 C679 1.385 . S
C678 C680 1.478 . S
C679 H673 0.930 . S
C679 C675 1.400 . S
C679 C678 1.385 . S
C680 C678 1.478 . S
C680 C682 1.381 . S
C680 C686 1.383 . S
C681 C677 1.495 . S
C681 H687 0.959 . S
C681 H688 0.961 . S
C681 H689 0.960 . S
C682 C680 1.381 . S
C682 C683 1.394 . S
C682 H690 0.930 . S
C683 C682 1.394 . S
C683 C684 1.383 . S
C683 H691 0.929 . S
C684 C683 1.383 . S
C684 C685 1.377 . S
C685 H669 0.930 . S
C685 C684 1.377 . S
C685 C686 1.379 . S
C686 H670 0.931 . S
C686 C680 1.383 . S
C686 C685 1.379 . S
H687 C681 0.959 . S
H688 C681 0.961 . S
H689 C681 0.960 . S
H690 C682 0.930 . S
H691 C683 0.929 . S
H692 C700 0.929 . S
H693 C702 0.930 . S
H694 C704 0.930 . S
H695 C707 0.929 . S
H696 C710 0.930 . S
H697 C712 0.960 . S
H698 C712 0.960 . S
H699 C712 0.960 . S
C700 H692 0.929 . S
C700 C701 1.377 . S
C700 C702 1.384 . S
C701 C700 1.377 . S
C701 C707 1.390 . S
C702 H693 0.930 . S
C702 C700 1.384 . S
C702 C703 1.372 . S
C703 C702 1.372 . S
C703 C704 1.400 . S
C703 C708 1.490 . S
C704 H694 0.930 . S
C704 C703 1.400 . S
C704 C707 1.386 . S
H705 C721 0.930 . S
H706 C722 0.931 . S
C707 H695 0.929 . S
C707 C701 1.390 . S
C707 C704 1.386 . S
C708 C703 1.490 . S
C708 C710 1.395 . S
C708 C711 1.403 . S
H709 C715 0.930 . S
C710 H696 0.930 . S
C710 C708 1.395 . S
C710 C713 1.403 . S
C711 C708 1.403 . S
C711 C712 1.524 . S
C711 C715 1.400 . S
C712 H697 0.960 . S
C712 H698 0.960 . S
C712 H699 0.960 . S
C712 C711 1.524 . S
C713 C710 1.403 . S
C713 C714 1.392 . S
C713 C717 1.495 . S
C714 C713 1.392 . S
C714 C715 1.385 . S
C714 C716 1.478 . S
C715 H709 0.930 . S
C715 C711 1.400 . S
C715 C714 1.385 . S
C716 C714 1.478 . S
C716 C718 1.381 . S
C716 C722 1.383 . S
C717 C713 1.495 . S
C717 H723 0.959 . S
C717 H724 0.961 . S
C717 H725 0.960 . S
C718 C716 1.381 . S
C718 C719 1.394 . S
C718 H726 0.930 . S
C719 C718 1.394 . S
C719 C720 1.383 . S
C719 H727 0.929 . S
C720 C719 1.383 . S
C720 C721 1.377 . S
C721 H705 0.930 . S
C721 C720 1.377 . S
C721 C722 1.379 . S
C722 H706 0.931 . S
C722 C716 1.383 . S
C722 C721 1.379 . S
H723 C717 0.959 . S
H724 C717 0.961 . S
H725 C717 0.960 . S
H726 C718 0.930 . S
H727 C719 0.929 . S
H728 C736 0.929 . S
H729 C738 0.930 . S
H730 C740 0.930 . S
H731 C743 0.929 . S
H732 C746 0.930 . S
H733 C748 0.960 . S
H734 C748 0.960 . S
H735 C748 0.960 . S
C736 H728 0.929 . S
C736 C737 1.377 . S
C736 C738 1.384 . S
C737 C736 1.377 . S
C737 C743 1.390 . S
C738 H729 0.930 . S
C738 C736 1.384 . S
C738 C739 1.372 . S
C739 C738 1.372 . S
C739 C740 1.400 . S
C739 C744 1.490 . S
C740 H730 0.930 . S
C740 C739 1.400 . S
C740 C743 1.386 . S
H741 C757 0.930 . S
H742 C758 0.931 . S
C743 H731 0.929 . S
C743 C737 1.390 . S
C743 C740 1.386 . S
C744 C739 1.490 . S
C744 C746 1.395 . S
C744 C747 1.403 . S
H745 C751 0.930 . S
C746 H732 0.930 . S
C746 C744 1.395 . S
C746 C749 1.403 . S
C747 C744 1.403 . S
C747 C748 1.524 . S
C747 C751 1.400 . S
C748 H733 0.960 . S
C748 H734 0.960 . S
C748 H735 0.960 . S
C748 C747 1.524 . S
C749 C746 1.403 . S
C749 C750 1.392 . S
C749 C753 1.495 . S
C750 C749 1.392 . S
C750 C751 1.385 . S
C750 C752 1.478 . S
C751 H745 0.930 . S
C751 C747 1.400 . S
C751 C750 1.385 . S
C752 C750 1.478 . S
C752 C754 1.381 . S
C752 C758 1.383 . S
C753 C749 1.495 . S
C753 H759 0.959 . S
C753 H760 0.961 . S
C753 H761 0.960 . S
C754 C752 1.381 . S
C754 C755 1.394 . S
C754 H762 0.930 . S
C755 C754 1.394 . S
C755 C756 1.383 . S
C755 H763 0.929 . S
C756 C755 1.383 . S
C756 C757 1.377 . S
C757 H741 0.930 . S
C757 C756 1.377 . S
C757 C758 1.379 . S
C758 H742 0.931 . S
C758 C752 1.383 . S
C758 C757 1.379 . S
H759 C753 0.959 . S
H760 C753 0.961 . S
H761 C753 0.960 . S
H762 C754 0.930 . S
H763 C755 0.929 . S
H764 C772 0.929 . S
H765 C774 0.930 . S
H766 C776 0.930 . S
H767 C779 0.929 . S
H768 C782 0.930 . S
H769 C784 0.960 . S
H770 C784 0.960 . S
H771 C784 0.960 . S
C772 H764 0.929 . S
C772 C773 1.377 . S
C772 C774 1.384 . S
C773 C772 1.377 . S
C773 C779 1.390 . S
C774 H765 0.930 . S
C774 C772 1.384 . S
C774 C775 1.372 . S
C775 C774 1.372 . S
C775 C776 1.400 . S
C775 C780 1.490 . S
C776 H766 0.930 . S
C776 C775 1.400 . S
C776 C779 1.386 . S
H777 C793 0.930 . S
H778 C794 0.931 . S
C779 H767 0.929 . S
C779 C773 1.390 . S
C779 C776 1.386 . S
C780 C775 1.490 . S
C780 C782 1.395 . S
C780 C783 1.403 . S
H781 C787 0.930 . S
C782 H768 0.930 . S
C782 C780 1.395 . S
C782 C785 1.403 . S
C783 C780 1.403 . S
C783 C784 1.524 . S
C783 C787 1.400 . S
C784 H769 0.960 . S
C784 H770 0.960 . S
C784 H771 0.960 . S
C784 C783 1.524 . S
C785 C782 1.403 . S
C785 C786 1.392 . S
C785 C789 1.495 . S
C786 C785 1.392 . S
C786 C787 1.385 . S
C786 C788 1.478 . S
C787 H781 0.930 . S
C787 C783 1.400 . S
C787 C786 1.385 . S
C788 C786 1.478 . S
C788 C790 1.381 . S
C788 C794 1.383 . S
C789 C785 1.495 . S
C789 H795 0.959 . S
C789 H796 0.961 . S
C789 H797 0.960 . S
C790 C788 1.381 . S
C790 C791 1.394 . S
C790 H798 0.930 . S
C791 C790 1.394 . S
C791 C792 1.383 . S
C791 H799 0.929 . S
C792 C791 1.383 . S
C792 C793 1.377 . S
C793 H777 0.930 . S
C793 C792 1.377 . S
C793 C794 1.379 . S
C794 H778 0.931 . S
C794 C788 1.383 . S
C794 C793 1.379 . S
H795 C789 0.959 . S
H796 C789 0.961 . S
H797 C789 0.960 . S
H798 C790 0.930 . S
H799 C791 0.929 . S
H800 C808 0.929 . S
H801 C810 0.930 . S
H802 C812 0.930 . S
H803 C815 0.929 . S
H804 C818 0.930 . S
H805 C820 0.960 . S
H806 C820 0.960 . S
H807 C820 0.960 . S
C808 H800 0.929 . S
C808 C809 1.377 . S
C808 C810 1.384 . S
C809 C808 1.377 . S
C809 C815 1.390 . S
C810 H801 0.930 . S
C810 C808 1.384 . S
C810 C811 1.372 . S
C811 C810 1.372 . S
C811 C812 1.400 . S
C811 C816 1.490 . S
C812 H802 0.930 . S
C812 C811 1.400 . S
C812 C815 1.386 . S
H813 C829 0.930 . S
H814 C830 0.931 . S
C815 H803 0.929 . S
C815 C809 1.390 . S
C815 C812 1.386 . S
C816 C811 1.490 . S
C816 C818 1.395 . S
C816 C819 1.403 . S
H817 C823 0.930 . S
C818 H804 0.930 . S
C818 C816 1.395 . S
C818 C821 1.403 1_556 S
C819 C816 1.403 . S
C819 C820 1.524 . S
C819 C823 1.400 1_556 S
C820 H805 0.960 . S
C820 H806 0.960 . S
C820 H807 0.960 . S
C820 C819 1.524 . S
C821 C818 1.403 1_554 S
C821 C822 1.392 . S
C821 C825 1.495 . S
C822 C821 1.392 . S
C822 C823 1.385 . S
C822 C824 1.478 . S
C823 H817 0.930 . S
C823 C819 1.400 1_554 S
C823 C822 1.385 . S
C824 C822 1.478 . S
C824 C826 1.381 . S
C824 C830 1.383 . S
C825 C821 1.495 . S
C825 H831 0.959 . S
C825 H832 0.961 . S
C825 H833 0.960 . S
C826 C824 1.381 . S
C826 C827 1.394 . S
C826 H834 0.930 . S
C827 C826 1.394 . S
C827 C828 1.383 . S
C827 H835 0.929 . S
C828 C827 1.383 . S
C828 C829 1.377 . S
C829 H813 0.930 . S
C829 C828 1.377 . S
C829 C830 1.379 . S
C830 H814 0.931 . S
C830 C824 1.383 . S
C830 C829 1.379 . S
H831 C825 0.959 . S
H832 C825 0.961 . S
H833 C825 0.960 . S
H834 C826 0.930 . S
H835 C827 0.929 . S
H836 C844 0.929 . S
H837 C846 0.930 . S
H838 C848 0.930 . S
H839 C851 0.929 . S
H840 C854 0.930 . S
H841 C856 0.960 . S
H842 C856 0.960 . S
H843 C856 0.960 . S
C844 H836 0.929 . S
C844 C845 1.377 . S
C844 C846 1.384 . S
C845 C844 1.377 . S
C845 C851 1.390 . S
C846 H837 0.930 . S
C846 C844 1.384 . S
C846 C847 1.372 . S
C847 C846 1.372 . S
C847 C848 1.400 . S
C847 C852 1.490 . S
C848 H838 0.930 . S
C848 C847 1.400 . S
C848 C851 1.386 . S
H849 C865 0.930 . S
H850 C866 0.931 . S
C851 H839 0.929 . S
C851 C845 1.390 . S
C851 C848 1.386 . S
C852 C847 1.490 . S
C852 C854 1.395 . S
C852 C855 1.403 . S
H853 C859 0.930 . S
C854 H840 0.930 . S
C854 C852 1.395 . S
C854 C857 1.403 . S
C855 C852 1.403 . S
C855 C856 1.524 . S
C855 C859 1.400 . S
C856 H841 0.960 . S
C856 H842 0.960 . S
C856 H843 0.960 . S
C856 C855 1.524 . S
C857 C854 1.403 . S
C857 C858 1.392 . S
C857 C861 1.495 . S
C858 C857 1.392 . S
C858 C859 1.385 . S
C858 C860 1.478 . S
C859 H853 0.930 . S
C859 C855 1.400 . S
C859 C858 1.385 . S
C860 C858 1.478 . S
C860 C862 1.381 . S
C860 C866 1.383 . S
C861 C857 1.495 . S
C861 H867 0.959 . S
C861 H868 0.961 . S
C861 H869 0.960 . S
C862 C860 1.381 . S
C862 C863 1.394 . S
C862 H870 0.930 . S
C863 C862 1.394 . S
C863 C864 1.383 . S
C863 H871 0.929 . S
C864 C863 1.383 . S
C864 C865 1.377 . S
C865 H849 0.930 . S
C865 C864 1.377 . S
C865 C866 1.379 . S
C866 H850 0.931 . S
C866 C860 1.383 . S
C866 C865 1.379 . S
H867 C861 0.959 . S
H868 C861 0.961 . S
H869 C861 0.960 . S
H870 C862 0.930 . S
H871 C863 0.929 . S
H872 C880 0.929 . S
H873 C882 0.930 . S
H874 C884 0.930 . S
H875 C887 0.929 . S
H876 C890 0.930 . S
H877 C892 0.960 . S
H878 C892 0.960 . S
H879 C892 0.960 . S
C880 H872 0.929 . S
C880 C881 1.377 . S
C880 C882 1.384 . S
C881 C880 1.377 . S
C881 C887 1.390 . S
C882 H873 0.930 . S
C882 C880 1.384 . S
C882 C883 1.372 . S
C883 C882 1.372 . S
C883 C884 1.400 . S
C883 C888 1.490 . S
C884 H874 0.930 . S
C884 C883 1.400 . S
C884 C887 1.386 . S
H885 C901 0.930 . S
H886 C902 0.931 . S
C887 H875 0.929 . S
C887 C881 1.390 . S
C887 C884 1.386 . S
C888 C883 1.490 . S
C888 C890 1.395 . S
C888 C891 1.403 . S
H889 C895 0.930 . S
C890 H876 0.930 . S
C890 C888 1.395 . S
C890 C893 1.403 1_554 S
C891 C888 1.403 . S
C891 C892 1.524 . S
C891 C895 1.400 1_554 S
C892 H877 0.960 . S
C892 H878 0.960 . S
C892 H879 0.960 . S
C892 C891 1.524 . S
C893 C890 1.403 1_556 S
C893 C894 1.392 . S
C893 C897 1.495 . S
C894 C893 1.392 . S
C894 C895 1.385 . S
C894 C896 1.478 . S
C895 H889 0.930 . S
C895 C891 1.400 1_556 S
C895 C894 1.385 . S
C896 C894 1.478 . S
C896 C898 1.381 . S
C896 C902 1.383 . S
C897 C893 1.495 . S
C897 H903 0.959 . S
C897 H904 0.961 . S
C897 H905 0.960 . S
C898 C896 1.381 . S
C898 C899 1.394 . S
C898 H906 0.930 . S
C899 C898 1.394 . S
C899 C900 1.383 . S
C899 H907 0.929 . S
C900 C899 1.383 . S
C900 C901 1.377 . S
C901 H885 0.930 . S
C901 C900 1.377 . S
C901 C902 1.379 . S
C902 H886 0.931 . S
C902 C896 1.383 . S
C902 C901 1.379 . S
H903 C897 0.959 . S
H904 C897 0.961 . S
H905 C897 0.960 . S
H906 C898 0.930 . S
H907 C899 0.929 . S
H908 C916 0.929 . S
H909 C918 0.930 . S
H910 C920 0.930 . S
H911 C923 0.929 . S
H912 C926 0.930 . S
H913 C928 0.960 . S
H914 C928 0.960 . S
H915 C928 0.960 . S
C916 H908 0.929 . S
C916 C917 1.377 . S
C916 C918 1.384 . S
C917 C916 1.377 . S
C917 C923 1.390 . S
C918 H909 0.930 . S
C918 C916 1.384 . S
C918 C919 1.372 . S
C919 C918 1.372 . S
C919 C920 1.400 . S
C919 C924 1.490 . S
C920 H910 0.930 . S
C920 C919 1.400 . S
C920 C923 1.386 . S
H921 C937 0.930 . S
H922 C938 0.931 . S
C923 H911 0.929 . S
C923 C917 1.390 . S
C923 C920 1.386 . S
C924 C919 1.490 . S
C924 C926 1.395 . S
C924 C927 1.403 . S
H925 C931 0.930 . S
C926 H912 0.930 . S
C926 C924 1.395 . S
C926 C929 1.403 . S
C927 C924 1.403 . S
C927 C928 1.524 . S
C927 C931 1.400 . S
C928 H913 0.960 . S
C928 H914 0.960 . S
C928 H915 0.960 . S
C928 C927 1.524 . S
C929 C926 1.403 . S
C929 C930 1.392 . S
C929 C933 1.495 . S
C930 C929 1.392 . S
C930 C931 1.385 . S
C930 C932 1.478 . S
C931 H925 0.930 . S
C931 C927 1.400 . S
C931 C930 1.385 . S
C932 C930 1.478 . S
C932 C934 1.381 . S
C932 C938 1.383 . S
C933 C929 1.495 . S
C933 H939 0.959 . S
C933 H940 0.961 . S
C933 H941 0.960 . S
C934 C932 1.381 . S
C934 C935 1.394 . S
C934 H942 0.930 . S
C935 C934 1.394 . S
C935 C936 1.383 . S
C935 H943 0.929 . S
C936 C935 1.383 . S
C936 C937 1.377 . S
C937 H921 0.930 . S
C937 C936 1.377 . S
C937 C938 1.379 . S
C938 H922 0.931 . S
C938 C932 1.383 . S
C938 C937 1.379 . S
H939 C933 0.959 . S
H940 C933 0.961 . S
H941 C933 0.960 . S
H942 C934 0.930 . S
H943 C935 0.929 . S
H944 C952 0.929 . S
H945 C954 0.930 . S
H946 C956 0.930 . S
H947 C959 0.929 . S
H948 C962 0.930 . S
H949 C964 0.960 . S
H950 C964 0.960 . S
H951 C964 0.960 . S
C952 H944 0.929 . S
C952 C953 1.377 . S
C952 C954 1.384 . S
C953 C952 1.377 . S
C953 C959 1.390 . S
C954 H945 0.930 . S
C954 C952 1.384 . S
C954 C955 1.372 . S
C955 C954 1.372 . S
C955 C956 1.400 . S
C955 C960 1.490 . S
C956 H946 0.930 . S
C956 C955 1.400 . S
C956 C959 1.386 . S
H957 C973 0.930 . S
H958 C974 0.931 . S
C959 H947 0.929 . S
C959 C953 1.390 . S
C959 C956 1.386 . S
C960 C955 1.490 . S
C960 C962 1.395 . S
C960 C963 1.403 . S
H961 C967 0.930 . S
C962 H948 0.930 . S
C962 C960 1.395 . S
C962 C965 1.403 . S
C963 C960 1.403 . S
C963 C964 1.524 . S
C963 C967 1.400 . S
C964 H949 0.960 . S
C964 H950 0.960 . S
C964 H951 0.960 . S
C964 C963 1.524 . S
C965 C962 1.403 . S
C965 C966 1.392 . S
C965 C969 1.495 . S
C966 C965 1.392 . S
C966 C967 1.385 . S
C966 C968 1.478 . S
C967 H961 0.930 . S
C967 C963 1.400 . S
C967 C966 1.385 . S
C968 C966 1.478 . S
C968 C970 1.381 . S
C968 C974 1.383 . S
C969 C965 1.495 . S
C969 H975 0.959 . S
C969 H976 0.961 . S
C969 H977 0.960 . S
C970 C968 1.381 . S
C970 C971 1.394 . S
C970 H978 0.930 . S
C971 C970 1.394 . S
C971 C972 1.383 . S
C971 H979 0.929 . S
C972 C971 1.383 . S
C972 C973 1.377 . S
C973 H957 0.930 . S
C973 C972 1.377 . S
C973 C974 1.379 . S
C974 H958 0.931 . S
C974 C968 1.383 . S
C974 C973 1.379 . S
H975 C969 0.959 . S
H976 C969 0.961 . S
H977 C969 0.960 . S
H978 C970 0.930 . S
H979 C971 0.929 . S
H980 C988 0.929 . S
H981 C990 0.930 . S
H982 C992 0.930 . S
H983 C995 0.929 . S
H984 C998 0.930 . S
H985 C1000 0.960 . S
H986 C1000 0.960 . S
H987 C1000 0.960 . S
C988 H980 0.929 . S
C988 C989 1.377 . S
C988 C990 1.384 . S
C989 C988 1.377 . S
C989 C995 1.390 . S
C990 H981 0.930 . S
C990 C988 1.384 . S
C990 C991 1.372 . S
C991 C990 1.372 . S
C991 C992 1.400 . S
C991 C996 1.490 . S
C992 H982 0.930 . S
C992 C991 1.400 . S
C992 C995 1.386 . S
H993 C1009 0.930 . S
H994 C1010 0.931 . S
C995 H983 0.929 . S
C995 C989 1.390 . S
C995 C992 1.386 . S
C996 C991 1.490 . S
C996 C998 1.395 . S
C996 C999 1.403 . S
H997 C1003 0.930 . S
C998 H984 0.930 . S
C998 C996 1.395 . S
C998 C1001 1.403 1_556 S
C999 C996 1.403 . S
C999 C1000 1.524 . S
C999 C1003 1.400 1_556 S
C1000 H985 0.960 . S
C1000 H986 0.960 . S
C1000 H987 0.960 . S
C1000 C999 1.524 . S
C1001 C998 1.403 1_554 S
C1001 C1002 1.392 . S
C1001 C1005 1.495 . S
C1002 C1001 1.392 . S
C1002 C1003 1.385 . S
C1002 C1004 1.478 . S
C1003 H997 0.930 . S
C1003 C999 1.400 1_554 S
C1003 C1002 1.385 . S
C1004 C1002 1.478 . S
C1004 C1006 1.381 . S
C1004 C1010 1.383 . S
C1005 C1001 1.495 . S
C1005 H1011 0.959 . S
C1005 H1012 0.961 . S
C1005 H1013 0.960 . S
C1006 C1004 1.381 . S
C1006 C1007 1.394 . S
C1006 H1014 0.930 . S
C1007 C1006 1.394 . S
C1007 C1008 1.383 . S
C1007 H1015 0.929 . S
C1008 C1007 1.383 . S
C1008 C1009 1.377 . S
C1009 H993 0.930 . S
C1009 C1008 1.377 . S
C1009 C1010 1.379 . S
C1010 H994 0.931 . S
C1010 C1004 1.383 . S
C1010 C1009 1.379 . S
H1011 C1005 0.959 . S
H1012 C1005 0.961 . S
H1013 C1005 0.960 . S
H1014 C1006 0.930 . S
H1015 C1007 0.929 . S
H1016 C1024 0.929 . S
H1017 C1026 0.930 . S
H1018 C1028 0.930 . S
H1019 C1031 0.929 . S
H1020 C1034 0.930 . S
H1021 C1036 0.960 . S
H1022 C1036 0.960 . S
H1023 C1036 0.960 . S
C1024 H1016 0.929 . S
C1024 C1025 1.377 . S
C1024 C1026 1.384 . S
C1025 C1024 1.377 . S
C1025 C1031 1.390 . S
C1026 H1017 0.930 . S
C1026 C1024 1.384 . S
C1026 C1027 1.372 . S
C1027 C1026 1.372 . S
C1027 C1028 1.400 . S
C1027 C1032 1.490 . S
C1028 H1018 0.930 . S
C1028 C1027 1.400 . S
C1028 C1031 1.386 . S
H1029 C1045 0.930 . S
H1030 C1046 0.931 . S
C1031 H1019 0.929 . S
C1031 C1025 1.390 . S
C1031 C1028 1.386 . S
C1032 C1027 1.490 . S
C1032 C1034 1.395 . S
C1032 C1035 1.403 . S
H1033 C1039 0.930 . S
C1034 H1020 0.930 . S
C1034 C1032 1.395 . S
C1034 C1037 1.403 . S
C1035 C1032 1.403 . S
C1035 C1036 1.524 . S
C1035 C1039 1.400 . S
C1036 H1021 0.960 . S
C1036 H1022 0.960 . S
C1036 H1023 0.960 . S
C1036 C1035 1.524 . S
C1037 C1034 1.403 . S
C1037 C1038 1.392 . S
C1037 C1041 1.495 . S
C1038 C1037 1.392 . S
C1038 C1039 1.385 . S
C1038 C1040 1.478 . S
C1039 H1033 0.930 . S
C1039 C1035 1.400 . S
C1039 C1038 1.385 . S
C1040 C1038 1.478 . S
C1040 C1042 1.381 . S
C1040 C1046 1.383 . S
C1041 C1037 1.495 . S
C1041 H1047 0.959 . S
C1041 H1048 0.961 . S
C1041 H1049 0.960 . S
C1042 C1040 1.381 . S
C1042 C1043 1.394 . S
C1042 H1050 0.930 . S
C1043 C1042 1.394 . S
C1043 C1044 1.383 . S
C1043 H1051 0.929 . S
C1044 C1043 1.383 . S
C1044 C1045 1.377 . S
C1045 H1029 0.930 . S
C1045 C1044 1.377 . S
C1045 C1046 1.379 . S
C1046 H1030 0.931 . S
C1046 C1040 1.383 . S
C1046 C1045 1.379 . S
H1047 C1041 0.959 . S
H1048 C1041 0.961 . S
H1049 C1041 0.960 . S
H1050 C1042 0.930 . S
H1051 C1043 0.929 . S
H1052 C1060 0.929 . S
H1053 C1062 0.930 . S
H1054 C1064 0.930 . S
H1055 C1067 0.929 . S
H1056 C1070 0.930 . S
H1057 C1072 0.960 . S
H1058 C1072 0.960 . S
H1059 C1072 0.960 . S
C1060 H1052 0.929 . S
C1060 C1061 1.377 . S
C1060 C1062 1.384 . S
C1061 C1060 1.377 . S
C1061 C1067 1.390 . S
C1062 H1053 0.930 . S
C1062 C1060 1.384 . S
C1062 C1063 1.372 . S
C1063 C1062 1.372 . S
C1063 C1064 1.400 . S
C1063 C1068 1.490 . S
C1064 H1054 0.930 . S
C1064 C1063 1.400 . S
C1064 C1067 1.386 . S
H1065 C1081 0.930 . S
H1066 C1082 0.931 . S
C1067 H1055 0.929 . S
C1067 C1061 1.390 . S
C1067 C1064 1.386 . S
C1068 C1063 1.490 . S
C1068 C1070 1.395 . S
C1068 C1071 1.403 . S
H1069 C1075 0.930 . S
C1070 H1056 0.930 . S
C1070 C1068 1.395 . S
C1070 C1073 1.403 1_554 S
C1071 C1068 1.403 . S
C1071 C1072 1.524 . S
C1071 C1075 1.400 1_554 S
C1072 H1057 0.960 . S
C1072 H1058 0.960 . S
C1072 H1059 0.960 . S
C1072 C1071 1.524 . S
C1073 C1070 1.403 1_556 S
C1073 C1074 1.392 . S
C1073 C1077 1.495 . S
C1074 C1073 1.392 . S
C1074 C1075 1.385 . S
C1074 C1076 1.478 . S
C1075 H1069 0.930 . S
C1075 C1071 1.400 1_556 S
C1075 C1074 1.385 . S
C1076 C1074 1.478 . S
C1076 C1078 1.381 . S
C1076 C1082 1.383 . S
C1077 C1073 1.495 . S
C1077 H1083 0.959 . S
C1077 H1084 0.961 . S
C1077 H1085 0.960 . S
C1078 C1076 1.381 . S
C1078 C1079 1.394 . S
C1078 H1086 0.930 . S
C1079 C1078 1.394 . S
C1079 C1080 1.383 . S
C1079 H1087 0.929 . S
C1080 C1079 1.383 . S
C1080 C1081 1.377 . S
C1081 H1065 0.930 . S
C1081 C1080 1.377 . S
C1081 C1082 1.379 . S
C1082 H1066 0.931 . S
C1082 C1076 1.383 . S
C1082 C1081 1.379 . S
H1083 C1077 0.959 . S
H1084 C1077 0.961 . S
H1085 C1077 0.960 . S
H1086 C1078 0.930 . S
H1087 C1079 0.929 . S
H1088 C1096 0.929 . S
H1089 C1098 0.930 . S
H1090 C1100 0.930 . S
H1091 C1103 0.929 . S
H1092 C1106 0.930 . S
H1093 C1108 0.960 . S
H1094 C1108 0.960 . S
H1095 C1108 0.960 . S
C1096 H1088 0.929 . S
C1096 C1097 1.377 . S
C1096 C1098 1.384 . S
C1097 C1096 1.377 . S
C1097 C1103 1.390 . S
C1098 H1089 0.930 . S
C1098 C1096 1.384 . S
C1098 C1099 1.372 . S
C1099 C1098 1.372 . S
C1099 C1100 1.400 . S
C1099 C1104 1.490 . S
C1100 H1090 0.930 . S
C1100 C1099 1.400 . S
C1100 C1103 1.386 . S
H1101 C1117 0.930 . S
H1102 C1118 0.931 . S
C1103 H1091 0.929 . S
C1103 C1097 1.390 . S
C1103 C1100 1.386 . S
C1104 C1099 1.490 . S
C1104 C1106 1.395 . S
C1104 C1107 1.403 . S
H1105 C1111 0.930 . S
C1106 H1092 0.930 . S
C1106 C1104 1.395 . S
C1106 C1109 1.403 . S
C1107 C1104 1.403 . S
C1107 C1108 1.524 . S
C1107 C1111 1.400 . S
C1108 H1093 0.960 . S
C1108 H1094 0.960 . S
C1108 H1095 0.960 . S
C1108 C1107 1.524 . S
C1109 C1106 1.403 . S
C1109 C1110 1.392 . S
C1109 C1113 1.495 . S
C1110 C1109 1.392 . S
C1110 C1111 1.385 . S
C1110 C1112 1.478 . S
C1111 H1105 0.930 . S
C1111 C1107 1.400 . S
C1111 C1110 1.385 . S
C1112 C1110 1.478 . S
C1112 C1114 1.381 . S
C1112 C1118 1.383 . S
C1113 C1109 1.495 . S
C1113 H1119 0.959 . S
C1113 H1120 0.961 . S
C1113 H1121 0.960 . S
C1114 C1112 1.381 . S
C1114 C1115 1.394 . S
C1114 H1122 0.930 . S
C1115 C1114 1.394 . S
C1115 C1116 1.383 . S
C1115 H1123 0.929 . S
C1116 C1115 1.383 . S
C1116 C1117 1.377 . S
C1117 H1101 0.930 . S
C1117 C1116 1.377 . S
C1117 C1118 1.379 . S
C1118 H1102 0.931 . S
C1118 C1112 1.383 . S
C1118 C1117 1.379 . S
H1119 C1113 0.959 . S
H1120 C1113 0.961 . S
H1121 C1113 0.960 . S
H1122 C1114 0.930 . S
H1123 C1115 0.929 . S
H1124 C1132 0.929 . S
H1125 C1134 0.930 . S
H1126 C1136 0.930 . S
H1127 C1139 0.929 . S
H1128 C1142 0.930 . S
H1129 C1144 0.960 . S
H1130 C1144 0.960 . S
H1131 C1144 0.960 . S
C1132 H1124 0.929 . S
C1132 C1133 1.377 . S
C1132 C1134 1.384 . S
C1133 C1132 1.377 . S
C1133 C1139 1.390 . S
C1134 H1125 0.930 . S
C1134 C1132 1.384 . S
C1134 C1135 1.372 . S
C1135 C1134 1.372 . S
C1135 C1136 1.400 . S
C1135 C1140 1.490 . S
C1136 H1126 0.930 . S
C1136 C1135 1.400 . S
C1136 C1139 1.386 . S
H1137 C1153 0.930 . S
H1138 C1154 0.931 . S
C1139 H1127 0.929 . S
C1139 C1133 1.390 . S
C1139 C1136 1.386 . S
C1140 C1135 1.490 . S
C1140 C1142 1.395 . S
C1140 C1143 1.403 . S
H1141 C1147 0.930 . S
C1142 H1128 0.930 . S
C1142 C1140 1.395 . S
C1142 C1145 1.403 . S
C1143 C1140 1.403 . S
C1143 C1144 1.524 . S
C1143 C1147 1.400 . S
C1144 H1129 0.960 . S
C1144 H1130 0.960 . S
C1144 H1131 0.960 . S
C1144 C1143 1.524 . S
C1145 C1142 1.403 . S
C1145 C1146 1.392 . S
C1145 C1149 1.495 . S
C1146 C1145 1.392 . S
C1146 C1147 1.385 . S
C1146 C1148 1.478 . S
C1147 H1141 0.930 . S
C1147 C1143 1.400 . S
C1147 C1146 1.385 . S
C1148 C1146 1.478 . S
C1148 C1150 1.381 . S
C1148 C1154 1.383 . S
C1149 C1145 1.495 . S
C1149 H1155 0.959 . S
C1149 H1156 0.961 . S
C1149 H1157 0.960 . S
C1150 C1148 1.381 . S
C1150 C1151 1.394 . S
C1150 H1158 0.930 . S
C1151 C1150 1.394 . S
C1151 C1152 1.383 . S
C1151 H1159 0.929 . S
C1152 C1151 1.383 . S
C1152 C1153 1.377 . S
C1153 H1137 0.930 . S
C1153 C1152 1.377 . S
C1153 C1154 1.379 . S
C1154 H1138 0.931 . S
C1154 C1148 1.383 . S
C1154 C1153 1.379 . S
H1155 C1149 0.959 . S
H1156 C1149 0.961 . S
H1157 C1149 0.960 . S
H1158 C1150 0.930 . S
H1159 C1151 0.929 . S
H1160 C1168 0.929 . S
H1161 C1170 0.930 . S
H1162 C1172 0.930 . S
H1163 C1175 0.929 . S
H1164 C1178 0.930 . S
H1165 C1180 0.960 . S
H1166 C1180 0.960 . S
H1167 C1180 0.960 . S
C1168 H1160 0.929 . S
C1168 C1169 1.377 . S
C1168 C1170 1.384 . S
C1169 C1168 1.377 . S
C1169 C1175 1.390 . S
C1170 H1161 0.930 . S
C1170 C1168 1.384 . S
C1170 C1171 1.372 . S
C1171 C1170 1.372 . S
C1171 C1172 1.400 . S
C1171 C1176 1.490 . S
C1172 H1162 0.930 . S
C1172 C1171 1.400 . S
C1172 C1175 1.386 . S
H1173 C1189 0.930 . S
H1174 C1190 0.931 . S
C1175 H1163 0.929 . S
C1175 C1169 1.390 . S
C1175 C1172 1.386 . S
C1176 C1171 1.490 . S
C1176 C1178 1.395 . S
C1176 C1179 1.403 . S
H1177 C1183 0.930 . S
C1178 H1164 0.930 . S
C1178 C1176 1.395 . S
C1178 C1181 1.403 . S
C1179 C1176 1.403 . S
C1179 C1180 1.524 . S
C1179 C1183 1.400 . S
C1180 H1165 0.960 . S
C1180 H1166 0.960 . S
C1180 H1167 0.960 . S
C1180 C1179 1.524 . S
C1181 C1178 1.403 . S
C1181 C1182 1.392 . S
C1181 C1185 1.495 . S
C1182 C1181 1.392 . S
C1182 C1183 1.385 . S
C1182 C1184 1.478 . S
C1183 H1177 0.930 . S
C1183 C1179 1.400 . S
C1183 C1182 1.385 . S
C1184 C1182 1.478 . S
C1184 C1186 1.381 . S
C1184 C1190 1.383 . S
C1185 C1181 1.495 . S
C1185 H1191 0.959 . S
C1185 H1192 0.961 . S
C1185 H1193 0.960 . S
C1186 C1184 1.381 . S
C1186 C1187 1.394 . S
C1186 H1194 0.930 . S
C1187 C1186 1.394 . S
C1187 C1188 1.383 . S
C1187 H1195 0.929 . S
C1188 C1187 1.383 . S
C1188 C1189 1.377 . S
C1189 H1173 0.930 . S
C1189 C1188 1.377 . S
C1189 C1190 1.379 . S
C1190 H1174 0.931 . S
C1190 C1184 1.383 . S
C1190 C1189 1.379 . S
H1191 C1185 0.959 . S
H1192 C1185 0.961 . S
H1193 C1185 0.960 . S
H1194 C1186 0.930 . S
H1195 C1187 0.929 . S
H1196 C1204 0.929 . S
H1197 C1206 0.930 . S
H1198 C1208 0.930 . S
H1199 C1211 0.929 . S
H1200 C1214 0.930 . S
H1201 C1216 0.960 . S
H1202 C1216 0.960 . S
H1203 C1216 0.960 . S
C1204 H1196 0.929 . S
C1204 C1205 1.377 . S
C1204 C1206 1.384 . S
C1205 C1204 1.377 . S
C1205 C1211 1.390 . S
C1206 H1197 0.930 . S
C1206 C1204 1.384 . S
C1206 C1207 1.372 . S
C1207 C1206 1.372 . S
C1207 C1208 1.400 . S
C1207 C1212 1.490 . S
C1208 H1198 0.930 . S
C1208 C1207 1.400 . S
C1208 C1211 1.386 . S
H1209 C1225 0.930 . S
H1210 C1226 0.931 . S
C1211 H1199 0.929 . S
C1211 C1205 1.390 . S
C1211 C1208 1.386 . S
C1212 C1207 1.490 . S
C1212 C1214 1.395 . S
C1212 C1215 1.403 . S
H1213 C1219 0.930 . S
C1214 H1200 0.930 . S
C1214 C1212 1.395 . S
C1214 C1217 1.403 . S
C1215 C1212 1.403 . S
C1215 C1216 1.524 . S
C1215 C1219 1.400 . S
C1216 H1201 0.960 . S
C1216 H1202 0.960 . S
C1216 H1203 0.960 . S
C1216 C1215 1.524 . S
C1217 C1214 1.403 . S
C1217 C1218 1.392 . S
C1217 C1221 1.495 . S
C1218 C1217 1.392 . S
C1218 C1219 1.385 . S
C1218 C1220 1.478 . S
C1219 H1213 0.930 . S
C1219 C1215 1.400 . S
C1219 C1218 1.385 . S
C1220 C1218 1.478 . S
C1220 C1222 1.381 . S
C1220 C1226 1.383 . S
C1221 C1217 1.495 . S
C1221 H1227 0.959 . S
C1221 H1228 0.961 . S
C1221 H1229 0.960 . S
C1222 C1220 1.381 . S
C1222 C1223 1.394 . S
C1222 H1230 0.930 . S
C1223 C1222 1.394 . S
C1223 C1224 1.383 . S
C1223 H1231 0.929 . S
C1224 C1223 1.383 . S
C1224 C1225 1.377 . S
C1225 H1209 0.930 . S
C1225 C1224 1.377 . S
C1225 C1226 1.379 . S
C1226 H1210 0.931 . S
C1226 C1220 1.383 . S
C1226 C1225 1.379 . S
H1227 C1221 0.959 . S
H1228 C1221 0.961 . S
H1229 C1221 0.960 . S
H1230 C1222 0.930 . S
H1231 C1223 0.929 . S
H1232 C1240 0.929 . S
H1233 C1242 0.930 . S
H1234 C1244 0.930 . S
H1235 C1247 0.929 . S
H1236 C1250 0.930 . S
H1237 C1252 0.960 . S
H1238 C1252 0.960 . S
H1239 C1252 0.960 . S
C1240 H1232 0.929 . S
C1240 C1241 1.377 . S
C1240 C1242 1.384 . S
C1241 C1240 1.377 . S
C1241 C1247 1.390 . S
C1242 H1233 0.930 . S
C1242 C1240 1.384 . S
C1242 C1243 1.372 . S
C1243 C1242 1.372 . S
C1243 C1244 1.400 . S
C1243 C1248 1.490 . S
C1244 H1234 0.930 . S
C1244 C1243 1.400 . S
C1244 C1247 1.386 . S
H1245 C1261 0.930 . S
H1246 C1262 0.931 . S
C1247 H1235 0.929 . S
C1247 C1241 1.390 . S
C1247 C1244 1.386 . S
C1248 C1243 1.490 . S
C1248 C1250 1.395 . S
C1248 C1251 1.403 . S
H1249 C1255 0.930 . S
C1250 H1236 0.930 . S
C1250 C1248 1.395 . S
C1250 C1253 1.403 . S
C1251 C1248 1.403 . S
C1251 C1252 1.524 . S
C1251 C1255 1.400 . S
C1252 H1237 0.960 . S
C1252 H1238 0.960 . S
C1252 H1239 0.960 . S
C1252 C1251 1.524 . S
C1253 C1250 1.403 . S
C1253 C1254 1.392 . S
C1253 C1257 1.495 . S
C1254 C1253 1.392 . S
C1254 C1255 1.385 . S
C1254 C1256 1.478 . S
C1255 H1249 0.930 . S
C1255 C1251 1.400 . S
C1255 C1254 1.385 . S
C1256 C1254 1.478 . S
C1256 C1258 1.381 . S
C1256 C1262 1.383 . S
C1257 C1253 1.495 . S
C1257 H1263 0.959 . S
C1257 H1264 0.961 . S
C1257 H1265 0.960 . S
C1258 C1256 1.381 . S
C1258 C1259 1.394 . S
C1258 H1266 0.930 . S
C1259 C1258 1.394 . S
C1259 C1260 1.383 . S
C1259 H1267 0.929 . S
C1260 C1259 1.383 . S
C1260 C1261 1.377 . S
C1261 H1245 0.930 . S
C1261 C1260 1.377 . S
C1261 C1262 1.379 . S
C1262 H1246 0.931 . S
C1262 C1256 1.383 . S
C1262 C1261 1.379 . S
H1263 C1257 0.959 . S
H1264 C1257 0.961 . S
H1265 C1257 0.960 . S
H1266 C1258 0.930 . S
H1267 C1259 0.929 . S
H1268 C1276 0.929 . S
H1269 C1278 0.930 . S
H1270 C1280 0.930 . S
H1271 C1283 0.929 . S
H1272 C1286 0.930 . S
H1273 C1288 0.960 . S
H1274 C1288 0.960 . S
H1275 C1288 0.960 . S
C1276 H1268 0.929 . S
C1276 C1277 1.377 . S
C1276 C1278 1.384 . S
C1277 C1276 1.377 . S
C1277 C1283 1.390 . S
C1278 H1269 0.930 . S
C1278 C1276 1.384 . S
C1278 C1279 1.372 . S
C1279 C1278 1.372 . S
C1279 C1280 1.400 . S
C1279 C1284 1.490 . S
C1280 H1270 0.930 . S
C1280 C1279 1.400 . S
C1280 C1283 1.386 . S
H1281 C1297 0.930 . S
H1282 C1298 0.931 . S
C1283 H1271 0.929 . S
C1283 C1277 1.390 . S
C1283 C1280 1.386 . S
C1284 C1279 1.490 . S
C1284 C1286 1.395 . S
C1284 C1287 1.403 . S
H1285 C1291 0.930 . S
C1286 H1272 0.930 . S
C1286 C1284 1.395 . S
C1286 C1289 1.403 . S
C1287 C1284 1.403 . S
C1287 C1288 1.524 . S
C1287 C1291 1.400 . S
C1288 H1273 0.960 . S
C1288 H1274 0.960 . S
C1288 H1275 0.960 . S
C1288 C1287 1.524 . S
C1289 C1286 1.403 . S
C1289 C1290 1.392 . S
C1289 C1293 1.495 . S
C1290 C1289 1.392 . S
C1290 C1291 1.385 . S
C1290 C1292 1.478 . S
C1291 H1285 0.930 . S
C1291 C1287 1.400 . S
C1291 C1290 1.385 . S
C1292 C1290 1.478 . S
C1292 C1294 1.381 . S
C1292 C1298 1.383 . S
C1293 C1289 1.495 . S
C1293 H1299 0.959 . S
C1293 H1300 0.961 . S
C1293 H1301 0.960 . S
C1294 C1292 1.381 . S
C1294 C1295 1.394 . S
C1294 H1302 0.930 . S
C1295 C1294 1.394 . S
C1295 C1296 1.383 . S
C1295 H1303 0.929 . S
C1296 C1295 1.383 . S
C1296 C1297 1.377 . S
C1297 H1281 0.930 . S
C1297 C1296 1.377 . S
C1297 C1298 1.379 . S
C1298 H1282 0.931 . S
C1298 C1292 1.383 . S
C1298 C1297 1.379 . S
H1299 C1293 0.959 . S
H1300 C1293 0.961 . S
H1301 C1293 0.960 . S
H1302 C1294 0.930 . S
H1303 C1295 0.929 . S
H1304 C1312 0.929 . S
H1305 C1314 0.930 . S
H1306 C1316 0.930 . S
H1307 C1319 0.929 . S
H1308 C1322 0.930 . S
H1309 C1324 0.960 . S
H1310 C1324 0.960 . S
H1311 C1324 0.960 . S
C1312 H1304 0.929 . S
C1312 C1313 1.377 . S
C1312 C1314 1.384 . S
C1313 C1312 1.377 . S
C1313 C1319 1.390 . S
C1314 H1305 0.930 . S
C1314 C1312 1.384 . S
C1314 C1315 1.372 . S
C1315 C1314 1.372 . S
C1315 C1316 1.400 . S
C1315 C1320 1.490 . S
C1316 H1306 0.930 . S
C1316 C1315 1.400 . S
C1316 C1319 1.386 . S
H1317 C1333 0.930 . S
H1318 C1334 0.931 . S
C1319 H1307 0.929 . S
C1319 C1313 1.390 . S
C1319 C1316 1.386 . S
C1320 C1315 1.490 . S
C1320 C1322 1.395 . S
C1320 C1323 1.403 . S
H1321 C1327 0.930 . S
C1322 H1308 0.930 . S
C1322 C1320 1.395 . S
C1322 C1325 1.403 . S
C1323 C1320 1.403 . S
C1323 C1324 1.524 . S
C1323 C1327 1.400 . S
C1324 H1309 0.960 . S
C1324 H1310 0.960 . S
C1324 H1311 0.960 . S
C1324 C1323 1.524 . S
C1325 C1322 1.403 . S
C1325 C1326 1.392 . S
C1325 C1329 1.495 . S
C1326 C1325 1.392 . S
C1326 C1327 1.385 . S
C1326 C1328 1.478 . S
C1327 H1321 0.930 . S
C1327 C1323 1.400 . S
C1327 C1326 1.385 . S
C1328 C1326 1.478 . S
C1328 C1330 1.381 . S
C1328 C1334 1.383 . S
C1329 C1325 1.495 . S
C1329 H1335 0.959 . S
C1329 H1336 0.961 . S
C1329 H1337 0.960 . S
C1330 C1328 1.381 . S
C1330 C1331 1.394 . S
C1330 H1338 0.930 . S
C1331 C1330 1.394 . S
C1331 C1332 1.383 . S
C1331 H1339 0.929 . S
C1332 C1331 1.383 . S
C1332 C1333 1.377 . S
C1333 H1317 0.930 . S
C1333 C1332 1.377 . S
C1333 C1334 1.379 . S
C1334 H1318 0.931 . S
C1334 C1328 1.383 . S
C1334 C1333 1.379 . S
H1335 C1329 0.959 . S
H1336 C1329 0.961 . S
H1337 C1329 0.960 . S
H1338 C1330 0.930 . S
H1339 C1331 0.929 . S
H1340 C1348 0.929 . S
H1341 C1350 0.930 . S
H1342 C1352 0.930 . S
H1343 C1355 0.929 . S
H1344 C1358 0.930 . S
H1345 C1360 0.960 . S
H1346 C1360 0.960 . S
H1347 C1360 0.960 . S
C1348 H1340 0.929 . S
C1348 C1349 1.377 . S
C1348 C1350 1.384 . S
C1349 C1348 1.377 . S
C1349 C1355 1.390 . S
C1350 H1341 0.930 . S
C1350 C1348 1.384 . S
C1350 C1351 1.372 . S
C1351 C1350 1.372 . S
C1351 C1352 1.400 . S
C1351 C1356 1.490 . S
C1352 H1342 0.930 . S
C1352 C1351 1.400 . S
C1352 C1355 1.386 . S
H1353 C1369 0.930 . S
H1354 C1370 0.931 . S
C1355 H1343 0.929 . S
C1355 C1349 1.390 . S
C1355 C1352 1.386 . S
C1356 C1351 1.490 . S
C1356 C1358 1.395 . S
C1356 C1359 1.403 . S
H1357 C1363 0.930 . S
C1358 H1344 0.930 . S
C1358 C1356 1.395 . S
C1358 C1361 1.403 . S
C1359 C1356 1.403 . S
C1359 C1360 1.524 . S
C1359 C1363 1.400 . S
C1360 H1345 0.960 . S
C1360 H1346 0.960 . S
C1360 H1347 0.960 . S
C1360 C1359 1.524 . S
C1361 C1358 1.403 . S
C1361 C1362 1.392 . S
C1361 C1365 1.495 . S
C1362 C1361 1.392 . S
C1362 C1363 1.385 . S
C1362 C1364 1.478 . S
C1363 H1357 0.930 . S
C1363 C1359 1.400 . S
C1363 C1362 1.385 . S
C1364 C1362 1.478 . S
C1364 C1366 1.381 . S
C1364 C1370 1.383 . S
C1365 C1361 1.495 . S
C1365 H1371 0.959 . S
C1365 H1372 0.961 . S
C1365 H1373 0.960 . S
C1366 C1364 1.381 . S
C1366 C1367 1.394 . S
C1366 H1374 0.930 . S
C1367 C1366 1.394 . S
C1367 C1368 1.383 . S
C1367 H1375 0.929 . S
C1368 C1367 1.383 . S
C1368 C1369 1.377 . S
C1369 H1353 0.930 . S
C1369 C1368 1.377 . S
C1369 C1370 1.379 . S
C1370 H1354 0.931 . S
C1370 C1364 1.383 . S
C1370 C1369 1.379 . S
H1371 C1365 0.959 . S
H1372 C1365 0.961 . S
H1373 C1365 0.960 . S
H1374 C1366 0.930 . S
H1375 C1367 0.929 . S
C233 C0 1.765 . S
C252 C41 1.747 . S
C269 C54 1.764 . S
C288 C26 1.744 . S
C305 C69 1.765 . S
C324 C96 1.745 . S
C341 C111 1.763 . S
C360 C82 1.767 . S
C377 C124 1.765 . S
C396 C152 1.752 . S
C413 C166 1.765 . S
C432 C139 1.763 . S
C449 C181 1.767 . S
C468 C208 1.778 . S
C485 C210 1.763 . S
C504 C183 1.749 . S
C521 C56 1.620 . S
C540 C13 1.624 . S
C557 C15 1.620 . S
C576 C71 1.626 . S
C593 C28 1.620 . S
C612 C85 1.609 . S
C629 C98 1.621 . S
C648 C43 1.619 . S
C665 C113 1.618 . S
C684 C168 1.609 . S
C701 C126 1.620 . S
C720 C194 1.613 . S
C737 C141 1.621 . S
C756 C197 1.624 . S
C773 C155 1.619 . S
C792 C223 1.612 . S
C809 C140 1.606 . S
C828 C12 1.609 . S
C845 C154 1.604 . S
C864 C14 1.612 . S
C881 C29 1.607 . S
C900 C112 1.592 . S
C917 C42 1.606 . S
C936 C127 1.591 . S
C953 C57 1.608 . S
C972 C196 1.593 . S
C989 C70 1.603 . S
C1008 C222 1.600 . S
C1025 C84 1.607 . S
C1044 C169 1.604 . S
C1061 C195 1.605 . S
C1080 C99 1.592 . S
C1097 C1 1.732 . S
C1116 C211 1.718 . S
C1133 C180 1.732 . S
C1152 C27 1.739 . S
C1169 C40 1.731 . S
C1188 C182 1.719 . S
C1205 C209 1.729 . S
C1224 C55 1.737 . S
C1241 C138 1.735 . S
C1260 C68 1.723 . S
C1277 C83 1.734 . S
C1296 C153 1.733 . S
C1313 C167 1.729 . S
C1332 C97 1.734 . S
C1349 C125 1.732 . S
C1368 C110 1.716 . S
