# Generated by pormake.
# Topology svj, (7)-cn, num edge types: 1
# Building blocks:
#     Node 0, Type 0, BuildingBlock: HICVOG_clean_sbu_0, # of connection points: 7
#     Node 1, Type 0, BuildingBlock: HICVOG_clean_sbu_0, # of connection points: 7
#     Node 2, Type 0, BuildingBlock: HICVOG_clean_sbu_0, # of connection points: 7
#     Node 3, Type 0, BuildingBlock: HICVOG_clean_sbu_0, # of connection points: 7
#     Node 4, Type 0, BuildingBlock: HICVOG_clean_sbu_0, # of connection points: 7
#     Node 5, Type 0, BuildingBlock: HICVOG_clean_sbu_0, # of connection points: 7
#     Edge 6, Type (0, 0), BuildingBlock: EZIPEK_clean_linker_0, # of connection points: 2
#     Edge 7, Type (0, 0), BuildingBlock: EZIPEK_clean_linker_0, # of connection points: 2
#     Edge 8, Type (0, 0), BuildingBlock: EZIPEK_clean_linker_0, # of connection points: 2
#     Edge 9, Type (0, 0), BuildingBlock: EZIPEK_clean_linker_0, # of connection points: 2
#     Edge 10, Type (0, 0), BuildingBlock: EZIPEK_clean_linker_0, # of connection points: 2
#     Edge 11, Type (0, 0), BuildingBlock: EZIPEK_clean_linker_0, # of connection points: 2
#     Edge 12, Type (0, 0), BuildingBlock: EZIPEK_clean_linker_0, # of connection points: 2
#     Edge 13, Type (0, 0), BuildingBlock: EZIPEK_clean_linker_0, # of connection points: 2
#     Edge 14, Type (0, 0), BuildingBlock: EZIPEK_clean_linker_0, # of connection points: 2
#     Edge 15, Type (0, 0), BuildingBlock: EZIPEK_clean_linker_0, # of connection points: 2
#     Edge 16, Type (0, 0), BuildingBlock: EZIPEK_clean_linker_0, # of connection points: 2
#     Edge 17, Type (0, 0), BuildingBlock: EZIPEK_clean_linker_0, # of connection points: 2
#     Edge 18, Type (0, 0), BuildingBlock: EZIPEK_clean_linker_0, # of connection points: 2
#     Edge 19, Type (0, 0), BuildingBlock: EZIPEK_clean_linker_0, # of connection points: 2
#     Edge 20, Type (0, 0), BuildingBlock: EZIPEK_clean_linker_0, # of connection points: 2
#     Edge 21, Type (0, 0), BuildingBlock: EZIPEK_clean_linker_0, # of connection points: 2
#     Edge 22, Type (0, 0), BuildingBlock: EZIPEK_clean_linker_0, # of connection points: 2
#     Edge 23, Type (0, 0), BuildingBlock: EZIPEK_clean_linker_0, # of connection points: 2
#     Edge 24, Type (0, 0), BuildingBlock: EZIPEK_clean_linker_0, # of connection points: 2
#     Edge 25, Type (0, 0), BuildingBlock: EZIPEK_clean_linker_0, # of connection points: 2
#     Edge 26, Type (0, 0), BuildingBlock: EZIPEK_clean_linker_0, # of connection points: 2
# Relax obj value: 0.283
# Max RMSD: 0.258
# Mean RMSD: 0.241
data_MOF--net-svj--node1-HICVOG_clean_sbu_0--edge1-EZIPEK_clean_linker_0
_symmetry_space_group_name_H-M    P1
_symmetry_Int_Tables_number       1
_symmetry_cell_setting            triclinic
loop_
_symmetry_equiv_pos_as_xyz
'x, y, z'
_cell_length_a     30.8303
_cell_length_b     30.795678
_cell_length_c     16.243117
_cell_angle_alpha  90.016084
_cell_angle_beta   89.933097
_cell_angle_gamma 120.35942
loop_
_atom_site_label
_atom_site_type_symbol
_atom_site_fract_x
_atom_site_fract_y
_atom_site_fract_z
_atom_type_partial_charge
Zn0 Zn 0.22197 0.45948 0.98459 0.0
C1 C 0.13093 0.48037 0.13307 0.0
N2 N 0.15469 0.52698 0.10136 0.0
C3 C 0.19019 0.52704 0.05383 0.0
N4 N 0.18837 0.48246 0.05526 0.0
N5 N 0.15208 0.45356 0.10708 0.0
C6 C 0.04726 0.30618 0.14223 0.0
O7 O 0.07107 0.28962 0.09668 0.0
O8 O 0.28013 0.52046 0.93297 0.0
Zn9 Zn 0.14692 0.39737 0.16887 0.0
N10 N 0.17519 0.41373 0.90331 0.0
C11 C 0.09596 0.34041 0.87733 0.0
C12 C 0.13209 0.37391 0.9324 0.0
C13 C 0.1839 0.42139 0.82095 0.0
N14 N 0.10424 0.34828 0.7951 0.0
C15 C 0.14737 0.38792 0.7653 0.0
O16 O 0.18921 0.36632 0.13055 0.0
C17 C 0.23289 0.38606 0.09781 0.0
O18 O 0.24952 0.42341 0.04895 0.0
H19 H 0.12581 0.36866 0.99799 0.0
H20 H 0.21826 0.45368 0.79907 0.0
C21 C 0.16104 0.40805 0.35015 0.0
C22 C 0.18946 0.43443 0.41976 0.0
C23 C 0.25128 0.49678 0.33281 0.0
C24 C 0.22324 0.47087 0.2641 0.0
N25 N 0.1786 0.42727 0.27367 0.0
N26 N 0.23374 0.47812 0.40891 0.0
H27 H 0.12556 0.37325 0.35673 0.0
C28 C 0.32029 0.52029 0.91649 0.0
O29 O 0.31977 0.47739 0.9164 0.0
O30 O 0.0719 0.34783 0.18021 0.0
H31 H 0.23723 0.48515 0.20311 0.0
H32 H 0.06138 0.30869 0.89977 0.0
H33 H 0.28677 0.53149 0.32576 0.0
Zn34 Zn 0.62993 0.11053 0.26128 0.0
C35 C 0.71838 0.24539 0.19634 0.0
N36 N 0.6809 0.25273 0.22018 0.0
C37 C 0.64034 0.20651 0.21838 0.0
N38 N 0.65308 0.1719 0.19695 0.0
N39 N 0.7015 0.1965 0.17767 0.0
C40 C 0.83061 0.21642 0.14567 0.0
O41 O 0.80996 0.20435 0.21888 0.0
O42 O 0.55586 0.07792 0.29034 0.0
Zn43 Zn 0.72628 0.16427 0.10018 0.0
N44 N 0.67303 0.12836 0.35922 0.0
C45 C 0.75626 0.15128 0.39952 0.0
C46 C 0.71982 0.13802 0.339 0.0
C47 C 0.66085 0.1309 0.4394 0.0
N48 N 0.74436 0.15362 0.47901 0.0
C49 C 0.69775 0.14384 0.5012 0.0
O50 O 0.71035 0.09329 0.13191 0.0
C51 C 0.67218 0.05401 0.161 0.0
O52 O 0.63807 0.05638 0.20203 0.0
H53 H 0.72856 0.13512 0.27581 0.0
H54 H 0.62317 0.12221 0.45507 0.0
C55 C 0.70339 0.16129 0.91817 0.0
C56 C 0.66787 0.14239 0.85323 0.0
C57 C 0.60198 0.10276 0.9506 0.0
C58 C 0.63693 0.11982 0.01406 0.0
N59 N 0.68679 0.14976 0.99776 0.0
N60 N 0.61821 0.114 0.87186 0.0
H61 H 0.74329 0.1829 0.90537 0.0
C62 C 0.52708 0.0744 0.23164 0.0
O63 O 0.54776 0.09377 0.1602 0.0
O64 O 0.80244 0.20562 0.08258 0.0
H65 H 0.62445 0.10866 0.07643 0.0
H66 H 0.79362 0.15911 0.38358 0.0
H67 H 0.56226 0.07952 0.96367 0.0
Zn68 Zn 0.62611 0.7532 0.15362 0.0
C69 C 0.51524 0.65914 1.00016 0.0
N70 N 0.5196 0.62381 0.04132 0.0
C71 C 0.5595 0.65132 0.08964 0.0
N72 N 0.57866 0.70134 0.07955 0.0
N73 N 0.55092 0.70606 0.02221 0.0
C74 C 0.49688 0.79772 0.91069 0.0
O75 O 0.5396 0.83942 0.89687 0.0
O76 O 0.68476 0.74108 0.16923 0.0
Zn77 Zn 0.5635 0.76658 0.96871 0.0
N78 N 0.58833 0.74328 0.25323 0.0
C79 C 0.51358 0.73734 0.30678 0.0
C80 C 0.54358 0.7408 0.24023 0.0
C81 C 0.6054 0.74429 0.33074 0.0
N82 N 0.53067 0.73898 0.38418 0.0
C83 C 0.57593 0.74273 0.39801 0.0
O84 O 0.59564 0.82897 0.03982 0.0
C85 C 0.63023 0.85053 0.09329 0.0
O86 O 0.64999 0.82768 0.12878 0.0
H87 H 0.53186 0.74238 0.17835 0.0
H88 H 0.64221 0.74874 0.33983 0.0
C89 C 0.59479 0.76583 0.8003 0.0
C90 C 0.63132 0.77584 0.73997 0.0
C91 C 0.69496 0.81073 0.84154 0.0
C92 C 0.65877 0.80135 0.90116 0.0
N93 N 0.60953 0.77891 0.87965 0.0
N94 N 0.6805 0.79808 0.76218 0.0
H95 H 0.55541 0.74854 0.78433 0.0
C96 C 0.71035 0.74549 0.10492 0.0
O97 O 0.69665 0.75776 0.03669 0.0
O98 O 0.49767 0.75834 0.93106 0.0
H99 H 0.66973 0.81218 0.96428 0.0
H100 H 0.47773 0.73495 0.29709 0.0
H101 H 0.73427 0.82847 0.85799 0.0
Zn102 Zn 0.9049 0.52542 0.2388 0.0
C103 C 0.77015 0.48218 0.18091 0.0
N104 N 0.76133 0.43766 0.21001 0.0
C105 C 0.80637 0.44129 0.20708 0.0
N106 N 0.84186 0.48715 0.17913 0.0
N107 N 0.81893 0.5121 0.15775 0.0
C108 C 0.79978 0.62079 0.11898 0.0
O109 O 0.79558 0.59943 0.19069 0.0
O110 O 0.94123 0.48693 0.25769 0.0
Zn111 Zn 0.85336 0.56825 0.07626 0.0
N112 N 0.88918 0.55204 0.33687 0.0
C113 C 0.86564 0.61206 0.3755 0.0
C114 C 0.87859 0.58839 0.31548 0.0
C115 C 0.88714 0.5382 0.41736 0.0
N116 N 0.86373 0.5986 0.45532 0.0
C117 C 0.87398 0.56232 0.47833 0.0
O118 O 0.92609 0.62126 0.10032 0.0
C119 C 0.96397 0.6229 0.13458 0.0
O120 O 0.95937 0.58757 0.18095 0.0
H121 H 0.88011 0.59888 0.25167 0.0
H122 H 0.89577 0.50935 0.4338 0.0
C123 C 0.85371 0.54836 0.89463 0.0
C124 C 0.86712 0.5273 0.82876 0.0
C125 C 0.89374 0.48756 0.92422 0.0
C126 C 0.88269 0.51005 0.98872 0.0
N127 N 0.8616 0.5388 0.97375 0.0
N128 N 0.88618 0.49706 0.84591 0.0
H129 H 0.83924 0.57329 0.88298 0.0
C130 C 0.94026 0.4587 0.1996 0.0
O131 O 0.90613 0.44507 0.14202 0.0
O132 O 0.82024 0.6105 0.05989 0.0
H133 H 0.89186 0.50539 0.05063 0.0
H134 H 0.85716 0.64095 0.35889 0.0
H135 H 0.90956 0.46384 0.93612 0.0
Zn136 Zn 0.26383 0.87618 0.15227 0.0
C137 C 0.36569 0.86149 0.01955 0.0
N138 N 0.39831 0.89983 0.06688 0.0
C139 C 0.36824 0.91167 0.10857 0.0
N140 N 0.31931 0.88174 0.08878 0.0
N141 N 0.31789 0.85059 0.03167 0.0
C142 C 0.23674 0.70793 0.9187 0.0
O143 O 0.19131 0.70151 0.9159 0.0
O144 O 0.28033 0.9482 0.16747 0.0
Zn145 Zn 0.26021 0.80487 0.96994 0.0
N146 N 0.26711 0.8452 0.2535 0.0
C147 C 0.26807 0.77382 0.30763 0.0
C148 C 0.2676 0.80179 0.24078 0.0
C149 C 0.26619 0.86155 0.33098 0.0
N150 N 0.26677 0.78971 0.38491 0.0
C151 C 0.26567 0.83271 0.39853 0.0
O152 O 0.19545 0.76992 0.03627 0.0
C153 C 0.17072 0.78379 0.08122 0.0
O154 O 0.19119 0.8278 0.11297 0.0
H155 H 0.26715 0.78887 0.17877 0.0
H156 H 0.26463 0.89557 0.33982 0.0
C157 C 0.25604 0.83529 0.80237 0.0
C158 C 0.24733 0.86342 0.74357 0.0
C159 C 0.22707 0.9027 0.84996 0.0
C160 C 0.23637 0.87528 0.9084 0.0
N161 N 0.25036 0.84198 0.88358 0.0
N162 N 0.23278 0.89621 0.7689 0.0
H163 H 0.26704 0.80844 0.78388 0.0
C164 C 0.26048 0.96886 0.12648 0.0
O165 O 0.22046 0.941 0.0815 0.0
O166 O 0.274 0.752 0.92698 0.0
H167 H 0.23223 0.88016 0.9732 0.0
H168 H 0.26868 0.73936 0.2982 0.0
H169 H 0.21525 0.92883 0.86873 0.0
Zn170 Zn 0.44645 0.2895 0.08545 0.0
C171 C 0.57856 0.37386 0.17532 0.0
N172 N 0.58541 0.3352 0.15853 0.0
C173 C 0.53843 0.29609 0.15177 0.0
N174 N 0.5038 0.31049 0.16135 0.0
N175 N 0.52907 0.35898 0.18064 0.0
C176 C 0.5602 0.48907 0.21144 0.0
O177 O 0.55563 0.46777 0.13951 0.0
O178 O 0.40452 0.21437 0.06682 0.0
Zn179 Zn 0.49431 0.38595 0.24603 0.0
N180 N 0.4721 0.32899 0.98335 0.0
C181 C 0.51025 0.41408 0.93727 0.0
C182 C 0.4923 0.37873 1.00033 0.0
C183 C 0.46709 0.3128 0.90359 0.0
N184 N 0.50538 0.39829 0.85832 0.0
C185 C 0.48404 0.34871 0.8391 0.0
O186 O 0.43175 0.37948 0.19073 0.0
C187 C 0.39428 0.34532 0.15111 0.0
O188 O 0.39451 0.30743 0.12046 0.0
H189 H 0.49368 0.39069 0.06297 0.0
H190 H 0.44863 0.27294 0.89033 0.0
C191 C 0.48161 0.35571 0.42477 0.0
C192 C 0.45696 0.31899 0.48689 0.0
C193 C 0.40644 0.25971 0.38536 0.0
C194 C 0.43032 0.29589 0.32442 0.0
N195 N 0.46762 0.34305 0.34442 0.0
N196 N 0.42008 0.2721 0.46492 0.0
H197 H 0.51073 0.39357 0.44025 0.0
C198 C 0.39502 0.18415 0.12655 0.0
O199 O 0.41781 0.20212 0.19713 0.0
O200 O 0.53813 0.46066 0.27269 0.0
H201 H 0.41955 0.28621 0.26095 0.0
H202 H 0.52684 0.45373 0.95085 0.0
H203 H 0.37704 0.22206 0.36968 0.0
C204 C 0.33183 0.35087 0.0577 0.0
C205 C 0.34895 0.35003 0.13868 0.0
C206 C 0.28434 0.36585 0.19569 0.0
C207 C 0.26649 0.36535 0.1147 0.0
N208 N 0.26402 0.34333 0.97196 0.0
N209 N 0.3333 0.34376 0.2849 0.0
C210 C 0.28734 0.35326 0.04683 0.0
C211 C 0.32268 0.35359 0.20777 0.0
N212 N 0.35947 0.35229 0.99085 0.0
N213 N 0.26668 0.38045 0.26082 0.0
H214 H 0.36061 0.33404 0.29609 0.0
H215 H 0.31186 0.34048 0.33665 0.0
H216 H 0.23733 0.38765 0.25583 0.0
H217 H 0.28318 0.38834 0.31894 0.0
H218 H 0.35199 0.359 0.93115 0.0
H219 H 0.39263 0.35137 0.99544 0.0
H220 H 0.27453 0.32957 0.92186 0.0
H221 H 0.23073 0.34374 0.96258 0.0
C222 C 0.96901 0.3031 0.09132 0.0
C223 C 0.9916 0.28099 0.13832 0.0
C224 C 0.90792 0.21115 0.17408 0.0
C225 C 0.88576 0.23741 0.13782 0.0
N226 N 0.89635 0.31236 0.07163 0.0
N227 N 0.98314 0.21577 0.23004 0.0
C228 C 0.91655 0.28436 0.09857 0.0
C229 C 0.9612 0.23537 0.18113 0.0
N230 N 0.99733 0.34072 0.03693 0.0
N231 N 0.87812 0.16229 0.19867 0.0
H232 H 0.02204 0.23199 0.23511 0.0
H233 H 0.96295 0.1857 0.27008 0.0
H234 H 0.83915 0.14261 0.19165 0.0
H235 H 0.89227 0.13965 0.21813 0.0
H236 H 0.98166 0.35398 0.99404 0.0
H237 H 0.03578 0.35499 0.0291 0.0
H238 H 0.91817 0.34945 0.05155 0.0
H239 H 0.85817 0.30013 0.07598 0.0
C240 C 0.64324 0.91893 0.19469 0.0
C241 C 0.64765 0.90435 0.11341 0.0
C242 C 0.66724 0.98761 0.06282 0.0
C243 C 0.66645 1.00347 0.14484 0.0
N244 N 0.66555 0.9875 0.29039 0.0
N245 N 0.67611 0.92939 0.97397 0.0
C246 C 0.65802 0.97008 0.21127 0.0
C247 C 0.6635 0.94019 0.04875 0.0
N248 N 0.6223 0.88361 0.25546 0.0
N249 N 0.66854 0.01626 0.99763 0.0
H250 H 0.67497 0.8956 0.96199 0.0
H251 H 0.69275 0.95587 0.92703 0.0
H252 H 0.67023 0.05066 1.00422 0.0
H253 H 0.66288 1.00348 0.93703 0.0
H254 H 0.61222 0.891 0.31276 0.0
H255 H 0.61092 0.84588 0.24647 0.0
H256 H 0.66489 0.9662 0.34073 0.0
H257 H 0.67758 0.02489 0.30498 0.0
C258 C 0.76507 0.66664 0.03593 0.0
C259 C 0.78536 0.66026 0.11042 0.0
C260 C 0.76939 0.72262 0.1773 0.0
C261 C 0.74721 0.72698 0.10348 0.0
N262 N 0.75429 0.72597 0.95476 0.0
N263 N 0.82693 0.69993 0.23796 0.0
C264 C 0.75472 0.70648 0.03 0.0
C265 C 0.79338 0.69338 0.17743 0.0
N266 N 0.75277 0.63351 0.97217 0.0
N267 N 0.76945 0.7479 0.24636 0.0
H268 H 0.84976 0.68401 0.23497 0.0
H269 H 0.83713 0.72629 0.28499 0.0
H270 H 0.76075 0.77651 0.2451 0.0
H271 H 0.7781 0.74026 0.30464 0.0
H272 H 0.73399 0.63504 0.91984 0.0
H273 H 0.75509 0.60099 0.9753 0.0
H274 H 0.76213 0.71326 0.90039 0.0
H275 H 0.7552 0.76004 0.94792 0.0
C276 C 0.08403 0.72308 0.02685 0.0
C277 C 0.11602 0.74693 0.09541 0.0
C278 C 0.04481 0.69588 0.18832 0.0
C279 C 0.01528 0.66727 0.12031 0.0
N280 N 1.0098 0.6491 0.97481 0.0
N281 N 0.12814 0.75036 0.2428 0.0
C282 C 0.03557 0.67983 0.03941 0.0
C283 C 0.09667 0.73211 0.1766 0.0
N284 N 0.0994 0.74263 0.94968 0.0
N285 N 0.02297 0.68952 0.26403 0.0
H286 H 0.16618 0.77685 0.23777 0.0
H287 H 0.11739 0.7359 0.30206 0.0
H288 H 0.985 0.66406 0.27482 0.0
H289 H 0.04117 0.71294 0.31399 0.0
H290 H 0.07593 0.72993 0.89841 0.0
H291 H 0.13392 0.77502 0.93834 0.0
H292 H 0.02521 0.65321 0.91624 0.0
H293 H 0.97472 0.61665 0.98118 0.0
C294 C 0.31203 0.04928 0.0469 0.0
C295 C 0.28728 0.02469 0.12115 0.0
C296 C 0.32188 0.1068 0.18807 0.0
C297 C 0.35496 0.13005 0.12029 0.0
N298 N 0.3845 0.1212 0.9866 0.0
N299 N 0.27015 0.03002 0.26449 0.0
C300 C 0.35014 0.10103 0.04913 0.0
C301 C 0.29277 0.05348 0.19244 0.0
N302 N 0.30091 0.02299 0.97477 0.0
N303 N 0.3159 0.13565 0.24583 0.0
H304 H 0.24577 0.99124 0.26888 0.0
H305 H 0.27793 0.04886 0.32067 0.0
H306 H 0.33271 0.17462 0.24046 0.0
H307 H 0.28932 0.1206 0.29289 0.0
H308 H 0.31319 0.04021 0.91754 0.0
H309 H 0.27668 0.98433 0.97109 0.0
H310 H 0.38574 0.10017 0.93738 0.0
H311 H 0.41556 0.15743 0.98774 0.0
C312 C 0.16993 0.36867 0.62675 0.0
C313 C 0.15403 0.39651 0.67509 0.0
C314 C 0.15225 0.44198 0.55212 0.0
C315 C 0.17226 0.41723 0.50517 0.0
N316 N 0.204 0.36015 0.4967 0.0
N317 N 0.129 0.45877 0.68644 0.0
C318 C 0.18163 0.38096 0.54198 0.0
C319 C 0.14459 0.43274 0.63831 0.0
N320 N 0.17354 0.33028 0.66203 0.0
N321 N 0.14015 0.47394 0.51358 0.0
H322 H 0.11945 0.45035 0.74836 0.0
H323 H 0.12698 0.4898 0.66667 0.0
H324 H 0.14709 0.48292 0.45129 0.0
H325 H 0.12086 0.48965 0.54132 0.0
H326 H 0.17952 0.30485 0.62892 0.0
H327 H 0.16729 0.32162 0.72457 0.0
H328 H 0.21748 0.33813 0.5216 0.0
H329 H 0.21183 0.36724 0.43405 0.0
C330 C 0.68237 0.10279 0.63923 0.0
C331 C 0.68708 0.14328 0.59072 0.0
C332 C 0.68337 0.1862 0.71611 0.0
C333 C 0.68203 0.14719 0.76468 0.0
N334 N 0.68831 0.07256 0.77432 0.0
N335 N 0.69906 0.22674 0.58216 0.0
C336 C 0.68405 0.10679 0.7266 0.0
C337 C 0.68948 0.18594 0.62894 0.0
N338 N 0.67481 0.05979 0.60147 0.0
N339 N 0.67755 0.22276 0.75327 0.0
H340 H 0.70223 0.22718 0.51816 0.0
H341 H 0.70689 0.26116 0.60685 0.0
H342 H 0.67539 0.22527 0.81707 0.0
H343 H 0.67225 0.24893 0.72105 0.0
H344 H 0.66582 0.02684 0.63295 0.0
H345 H 0.67309 0.05542 0.53763 0.0
H346 H 0.69501 0.04504 0.75078 0.0
H347 H 0.68972 0.07449 0.83842 0.0
C348 C 0.59625 0.71719 0.61939 0.0
C349 C 0.61802 0.76661 0.65194 0.0
C350 C 0.6213 0.80049 0.51443 0.0
C351 C 0.59496 0.75069 0.4832 0.0
N352 N 0.55347 0.6611 0.50456 0.0
N353 N 0.64524 0.85453 0.6343 0.0
C354 C 0.58141 0.70879 0.53528 0.0
C355 C 0.62913 0.80813 0.60045 0.0
N356 N 0.59106 0.67875 0.66838 0.0
N357 N 0.63928 0.84048 0.46157 0.0
H358 H 0.6515 0.86175 0.69723 0.0
H359 H 0.64844 0.885 0.60133 0.0
H360 H 0.63379 0.8363 0.39814 0.0
H361 H 0.6633 0.87761 0.47936 0.0
H362 H 0.58006 0.64285 0.64662 0.0
H363 H 0.60132 0.68367 0.73035 0.0
H364 H 0.5374 0.62887 0.54099 0.0
H365 H 0.54397 0.6538 0.44242 0.0
C366 C 0.8254 0.5041 0.69024 0.0
C367 C 0.86517 0.53944 0.74084 0.0
C368 C 0.91326 0.58496 0.61801 0.0
C369 C 0.87244 0.55118 0.56761 0.0
N370 N 0.78698 0.48299 0.55458 0.0
N371 N 0.9439 0.61716 0.75525 0.0
C372 C 0.82771 0.5119 0.60342 0.0
C373 C 0.90814 0.5811 0.70528 0.0
N374 N 0.78599 0.46241 0.72525 0.0
N375 N 0.95749 0.61983 0.58204 0.0
H376 H 0.94175 0.6151 0.81932 0.0
H377 H 0.97364 0.65107 0.73393 0.0
H378 H 0.96248 0.62367 0.51836 0.0
H379 H 0.99052 0.64228 0.61451 0.0
H380 H 0.75884 0.43206 0.69159 0.0
H381 H 0.78178 0.45702 0.78885 0.0
H382 H 0.75144 0.45758 0.57742 0.0
H383 H 0.7879 0.48654 0.49062 0.0
C384 C 0.21283 0.82421 0.52061 0.0
C385 C 0.26123 0.84607 0.48428 0.0
C386 C 0.30047 0.88313 0.61686 0.0
C387 C 0.25235 0.85717 0.65452 0.0
N388 N 0.16316 0.79901 0.64599 0.0
N389 N 0.35144 0.89319 0.49638 0.0
C390 C 0.20855 0.82679 0.60733 0.0
C391 C 0.30521 0.87491 0.53196 0.0
N392 N 0.17101 0.80154 0.47178 0.0
N393 N 0.34134 0.9164 0.66198 0.0
H394 H 0.35614 0.88971 0.43361 0.0
H395 H 0.38497 0.90941 0.52927 0.0
H396 H 0.33936 0.92252 0.72471 0.0
H397 H 0.37652 0.9405 0.63658 0.0
H398 H 0.13476 0.78927 0.49298 0.0
H399 H 0.17289 0.79867 0.40807 0.0
H400 H 0.13076 0.7718 0.61659 0.0
H401 H 0.1585 0.80038 0.70938 0.0
C402 C 0.43023 0.33341 0.62462 0.0
C403 C 0.46677 0.3299 0.5764 0.0
C404 C 0.51361 0.33496 0.70207 0.0
C405 C 0.4752 0.33499 0.75039 0.0
N406 N 0.39345 0.32687 0.75958 0.0
N407 N 0.53954 0.32035 0.56842 0.0
C408 C 0.43239 0.33189 0.71206 0.0
C409 C 0.50755 0.32882 0.6149 0.0
N410 N 0.39426 0.33975 0.5865 0.0
N411 N 0.55641 0.34206 0.73945 0.0
H412 H 0.53703 0.31712 0.50443 0.0
H413 H 0.56656 0.31344 0.59337 0.0
H414 H 0.56096 0.34429 0.80327 0.0
H415 H 0.58836 0.34842 0.70739 0.0
H416 H 0.36963 0.34779 0.61766 0.0
H417 H 0.3918 0.34142 0.52263 0.0
H418 H 0.35895 0.31925 0.73587 0.0
H419 H 0.39395 0.32599 0.82375 0.0
C420 C 0.22366 0.62269 0.88871 0.0
C421 C 0.24213 0.66458 0.94226 0.0
C422 C 0.25359 0.61577 0.04976 0.0
C423 C 0.22348 0.57162 1.00419 0.0
N424 N 0.17979 0.53178 0.8792 0.0
N425 N 0.2691 0.69888 0.07962 0.0
C426 C 0.20983 0.57475 0.92214 0.0
C427 C 0.25727 0.66131 0.02371 0.0
N428 N 0.21805 0.62866 0.80687 0.0
N429 N 0.27453 0.61287 0.12204 0.0
H430 H 0.26882 0.73178 0.06644 0.0
H431 H 0.27451 0.69538 0.14202 0.0
H432 H 0.26915 0.5787 0.14443 0.0
H433 H 0.30057 0.6445 0.1548 0.0
H434 H 0.20834 0.60027 0.76352 0.0
H435 H 0.22778 0.66363 0.78166 0.0
H436 H 0.16322 0.53132 0.82316 0.0
H437 H 0.16933 0.49635 0.90256 0.0
C438 C 0.54611 0.22624 0.09946 0.0
C439 C 0.53066 0.24497 0.16499 0.0
C440 C 0.56336 0.20727 0.26241 0.0
C441 C 0.59156 0.20289 0.19763 0.0
N442 N 0.61079 0.21027 0.05178 0.0
N443 N 0.51721 0.24714 0.31012 0.0
C444 C 0.58187 0.21104 0.11477 0.0
C445 C 0.53524 0.23162 0.24693 0.0
N446 N 0.53006 0.22781 0.02197 0.0
N447 N 0.56568 0.19036 0.339 0.0
H448 H 0.49627 0.26447 0.29925 0.0
H449 H 0.52423 0.24443 0.37202 0.0
H450 H 0.58714 0.1735 0.35076 0.0
H451 H 0.54344 0.18913 0.38823 0.0
H452 H 0.53713 0.21166 0.97112 0.0
H453 H 0.50549 0.24128 0.0114 0.0
H454 H 0.6087 0.22092 0.99173 0.0
H455 H 0.63995 0.20316 0.06074 0.0
C456 C 0.40647 0.58222 0.86299 0.0
C457 C 0.36907 0.56762 0.92493 0.0
C458 C 0.42809 0.63884 1.00899 0.0
C459 C 0.46777 0.64532 0.95761 0.0
N460 N 0.49611 0.62689 0.8322 0.0
N461 N 0.34844 0.57732 0.06552 0.0
C462 C 0.45719 0.61883 0.88233 0.0
C463 C 0.38039 0.59535 0.9996 0.0
N464 N 0.39353 0.56059 0.78687 0.0
N465 N 0.43709 0.67228 0.07076 0.0
H466 H 0.31463 0.54319 0.06561 0.0
H467 H 0.35833 0.59356 0.12383 0.0
H468 H 0.47247 0.70378 0.07926 0.0
H469 H 0.40858 0.67153 0.10648 0.0
H470 H 0.41834 0.57212 0.73729 0.0
H471 H 0.35658 0.53372 0.7718 0.0
H472 H 0.49211 0.60524 0.78042 0.0
H473 H 0.53305 0.65486 0.84506 0.0
C474 C 0.81368 0.36894 0.26164 0.0
C475 C 0.80739 0.39394 0.19357 0.0
C476 C 0.77528 0.31666 0.1114 0.0
C477 C 0.769 0.28965 0.18442 0.0
N478 N 0.792 0.2884 0.32428 0.0
N479 N 0.78624 0.3932 0.04997 0.0
C480 C 0.7934 0.31581 0.25729 0.0
C481 C 0.79098 0.36867 0.11635 0.0
N482 N 0.83667 0.39576 0.331 0.0
N483 N 0.7623 0.29108 0.03865 0.0
H484 H 0.79681 0.43105 0.05137 0.0
H485 H 0.76969 0.37572 0.9946 0.0
H486 H 0.74927 0.25253 0.03679 0.0
H487 H 0.76845 0.30818 0.9812 0.0
H488 H 0.84454 0.38085 0.38244 0.0
H489 H 0.85059 0.43442 0.33478 0.0
H490 H 0.80516 0.30331 0.38246 0.0
H491 H 0.77656 0.24949 0.3204 0.0
C492 C 0.42904 0.81649 0.87252 0.0
C493 C 0.45239 0.80162 0.93262 0.0
C494 C 0.39664 0.80311 0.03812 0.0
C495 C 0.38116 0.82779 0.98234 0.0
N496 N 0.38116 0.85818 0.84633 0.0
N497 N 0.46442 0.79006 0.07683 0.0
C498 C 0.3961 0.83364 0.89881 0.0
C499 C 0.43706 0.79615 0.01639 0.0
N500 N 0.43892 0.81474 0.79101 0.0
N501 N 0.37491 0.78956 0.11419 0.0
H502 H 0.49732 0.78942 0.06572 0.0
H503 H 0.45772 0.79122 0.13944 0.0
H504 H 0.3466 0.79648 0.13297 0.0
H505 H 0.38132 0.76716 0.15471 0.0
H506 H 0.42019 0.82138 0.74378 0.0
H507 H 0.46312 0.80254 0.77072 0.0
H508 H 0.39485 0.8686 0.78662 0.0
H509 H 0.35632 0.87 0.86463 0.0
C510 C 0.69973 0.4842 0.24471 0.0
C511 C 0.72695 0.49012 0.1712 0.0
C512 C 0.64818 0.44266 0.0959 0.0
C513 C 0.6223 0.4259 0.1725 0.0
N514 N 0.62099 0.43457 0.31909 0.0
N515 N 0.72876 0.48969 0.02462 0.0
C516 C 0.64701 0.44936 0.24666 0.0
C517 C 0.7013 0.47555 0.09556 0.0
N518 N 0.72578 0.5088 0.31367 0.0
N519 N 0.62218 0.42348 0.02442 0.0
H520 H 0.76764 0.51327 0.02587 0.0
H521 H 0.71389 0.47995 0.96565 0.0
H522 H 0.58387 0.39743 0.02439 0.0
H523 H 0.63761 0.43318 0.96575 0.0
H524 H 0.70904 0.50866 0.3694 0.0
H525 H 0.76478 0.53232 0.31224 0.0
H526 H 0.63732 0.44647 0.37683 0.0
H527 H 0.58243 0.40892 0.32087 0.0
C528 C 1.00676 0.46573 0.10273 0.0
C529 C 0.98531 0.45465 0.18291 0.0
C530 C 0.05878 0.45237 0.23323 0.0
C531 C 0.07686 0.45788 0.15143 0.0
N532 N 0.05948 0.45448 1.00589 0.0
N533 N 0.98553 0.42494 0.32032 0.0
C534 C 0.04696 0.45782 0.08541 0.0
C535 C 1.00932 0.44336 0.24686 0.0
N536 N 0.99351 0.48969 0.04591 0.0
N537 N 0.08983 0.45984 0.29787 0.0
H538 H 0.949 0.41737 0.33142 0.0
H539 H 1.00025 0.41265 0.36651 0.0
H540 H 0.12734 0.47044 0.28941 0.0
H541 H 0.07952 0.46056 0.35873 0.0
H542 H 0.01136 0.50176 0.98903 0.0
H543 H 0.97079 0.50472 0.0598 0.0
H544 H 0.03678 0.45146 0.9561 0.0
H545 H 0.08905 0.44863 0.99095 0.0
C546 C 0.44299 0.04593 0.17232 0.0
C547 C 0.47144 0.04017 0.23473 0.0
C548 C 0.41098 0.95017 0.24102 0.0
C549 C 0.38959 0.95451 0.16622 0.0
N550 N 0.38463 1.00628 0.06011 0.0
N551 N 0.46703 0.9934 0.35586 0.0
C552 C 0.40387 1.00257 0.13363 0.0
C553 C 0.45021 0.99434 0.27865 0.0
N554 N 0.45481 0.09323 0.14939 0.0
N555 N 0.39724 0.90359 0.27119 0.0
H556 H 0.49267 0.02632 0.38629 0.0
H557 H 0.45108 0.96154 0.39317 0.0
H558 H 0.36873 0.87075 0.2445 0.0
H559 H 0.41585 0.89742 0.31919 0.0
H560 H 0.43461 0.10075 0.10628 0.0
H561 H 0.48245 0.12482 0.18027 0.0
H562 H 0.4003 0.03929 0.02569 0.0
H563 H 0.35471 0.97536 0.03134 0.0
C564 C 0.5576 0.56593 0.25766 0.0
C565 C 0.58195 0.54478 0.21357 0.0
C566 C 0.61157 0.61195 0.11124 0.0
C567 C 0.57845 0.62661 0.14504 0.0
N568 N 0.51852 0.61705 0.24943 0.0
N569 N 0.65047 0.56068 0.12567 0.0
C570 C 0.55229 0.60465 0.2197 0.0
C571 C 0.61563 0.57287 0.14983 0.0
N572 N 0.54012 0.54934 0.33524 0.0
N573 N 0.63439 0.63116 0.03726 0.0
H574 H 0.65454 0.53347 0.15706 0.0
H575 H 0.67759 0.58002 0.08096 0.0
H576 H 0.63255 0.66017 1.00741 0.0
H577 H 0.6525 0.6164 1.00311 0.0
H578 H 0.52473 0.56552 0.37281 0.0
H579 H 0.54732 0.52387 0.36574 0.0
H580 H 0.49427 0.59857 0.29838 0.0
H581 H 0.51217 0.64356 0.2208 0.0
loop_
_geom_bond_atom_site_label_1
_geom_bond_atom_site_label_2
_geom_bond_distance
_geom_bond_site_symmetry_2
_ccdc_geom_bond_type
Zn0 N4 2.020 1_556 S
Zn0 O8 2.019 . S
Zn0 N10 2.119 . S
Zn0 O18 1.975 1_556 S
C1 N2 1.334 . S
C1 N5 1.336 . S
N2 C1 1.334 . S
N2 C3 1.334 . S
C3 N2 1.334 . S
C3 N4 1.336 . S
N4 Zn0 2.020 1_554 S
N4 C3 1.336 . S
N4 N5 1.354 . S
N5 C1 1.336 . S
N5 N4 1.354 . S
N5 Zn9 2.020 . S
C6 O7 1.244 . S
C6 O30 1.257 . S
O7 C6 1.244 . S
O8 Zn0 2.019 . S
O8 C28 1.257 . S
Zn9 N5 2.020 . S
Zn9 O16 1.975 . S
Zn9 N25 2.119 . S
Zn9 O30 2.019 . S
N10 Zn0 2.119 . S
N10 C12 1.334 . S
N10 C13 1.328 . S
C11 C12 1.391 . S
C11 N14 1.329 . S
C11 H32 0.930 . S
C12 N10 1.334 . S
C12 C11 1.391 . S
C12 H19 0.930 . S
C13 N10 1.328 . S
C13 C15 1.392 . S
C13 H20 0.930 . S
N14 C11 1.329 . S
N14 C15 1.331 . S
C15 C13 1.392 . S
C15 N14 1.331 . S
O16 Zn9 1.975 . S
O16 C17 1.252 . S
C17 O16 1.252 . S
C17 O18 1.252 . S
O18 Zn0 1.975 1_554 S
O18 C17 1.252 . S
H19 C12 0.930 . S
H20 C13 0.930 . S
C21 C22 1.392 . S
C21 N25 1.328 . S
C21 H27 0.930 . S
C22 C21 1.392 . S
C22 N26 1.331 . S
C23 C24 1.391 . S
C23 N26 1.329 . S
C23 H33 0.930 . S
C24 C23 1.391 . S
C24 N25 1.334 . S
C24 H31 0.930 . S
N25 Zn9 2.119 . S
N25 C21 1.328 . S
N25 C24 1.334 . S
N26 C22 1.331 . S
N26 C23 1.329 . S
H27 C21 0.930 . S
C28 O8 1.257 . S
C28 O29 1.244 1_556 S
O29 C28 1.244 1_554 S
O30 C6 1.257 . S
O30 Zn9 2.019 . S
H31 C24 0.930 . S
H32 C11 0.930 . S
H33 C23 0.930 . S
Zn34 N38 2.020 . S
Zn34 O42 2.019 . S
Zn34 N44 2.119 . S
Zn34 O52 1.975 . S
C35 N36 1.334 . S
C35 N39 1.336 . S
N36 C35 1.334 . S
N36 C37 1.334 . S
C37 N36 1.334 . S
C37 N38 1.336 . S
N38 Zn34 2.020 . S
N38 C37 1.336 . S
N38 N39 1.354 . S
N39 C35 1.336 . S
N39 N38 1.354 . S
N39 Zn43 2.020 . S
C40 O41 1.244 . S
C40 O64 1.257 . S
O41 C40 1.244 . S
O42 Zn34 2.019 . S
O42 C62 1.257 . S
Zn43 N39 2.020 . S
Zn43 O50 1.975 . S
Zn43 N59 2.119 1_554 S
Zn43 O64 2.019 . S
N44 Zn34 2.119 . S
N44 C46 1.334 . S
N44 C47 1.328 . S
C45 C46 1.391 . S
C45 N48 1.329 . S
C45 H66 0.930 . S
C46 N44 1.334 . S
C46 C45 1.391 . S
C46 H53 0.930 . S
C47 N44 1.328 . S
C47 C49 1.392 . S
C47 H54 0.930 . S
N48 C45 1.329 . S
N48 C49 1.331 . S
C49 C47 1.392 . S
C49 N48 1.331 . S
O50 Zn43 1.975 . S
O50 C51 1.252 . S
C51 O50 1.252 . S
C51 O52 1.252 . S
O52 Zn34 1.975 . S
O52 C51 1.252 . S
H53 C46 0.930 . S
H54 C47 0.930 . S
C55 C56 1.392 . S
C55 N59 1.328 . S
C55 H61 0.930 . S
C56 C55 1.392 . S
C56 N60 1.331 . S
C57 C58 1.391 . S
C57 N60 1.329 . S
C57 H67 0.930 . S
C58 C57 1.391 . S
C58 N59 1.334 . S
C58 H65 0.930 1_556 S
N59 Zn43 2.119 1_556 S
N59 C55 1.328 . S
N59 C58 1.334 . S
N60 C56 1.331 . S
N60 C57 1.329 . S
H61 C55 0.930 . S
C62 O42 1.257 . S
C62 O63 1.244 . S
O63 C62 1.244 . S
O64 C40 1.257 . S
O64 Zn43 2.019 . S
H65 C58 0.930 1_554 S
H66 C45 0.930 . S
H67 C57 0.930 . S
Zn68 N72 2.020 . S
Zn68 O76 2.019 . S
Zn68 N78 2.119 . S
Zn68 O86 1.975 . S
C69 N70 1.334 . S
C69 N73 1.336 . S
N70 C69 1.334 . S
N70 C71 1.334 . S
C71 N70 1.334 . S
C71 N72 1.336 . S
N72 Zn68 2.020 . S
N72 C71 1.336 . S
N72 N73 1.354 . S
N73 C69 1.336 . S
N73 N72 1.354 . S
N73 Zn77 2.020 1_554 S
C74 O75 1.244 1_556 S
C74 O98 1.257 . S
O75 C74 1.244 1_554 S
O76 Zn68 2.019 . S
O76 C96 1.257 . S
Zn77 N73 2.020 1_556 S
Zn77 O84 1.975 1_556 S
Zn77 N93 2.119 . S
Zn77 O98 2.019 . S
N78 Zn68 2.119 . S
N78 C80 1.334 . S
N78 C81 1.328 . S
C79 C80 1.391 . S
C79 N82 1.329 . S
C79 H100 0.930 . S
C80 N78 1.334 . S
C80 C79 1.391 . S
C80 H87 0.930 . S
C81 N78 1.328 . S
C81 C83 1.392 . S
C81 H88 0.930 . S
N82 C79 1.329 . S
N82 C83 1.331 . S
C83 C81 1.392 . S
C83 N82 1.331 . S
O84 Zn77 1.975 1_554 S
O84 C85 1.252 . S
C85 O84 1.252 . S
C85 O86 1.252 . S
O86 Zn68 1.975 . S
O86 C85 1.252 . S
H87 C80 0.930 . S
H88 C81 0.930 . S
C89 C90 1.392 . S
C89 N93 1.328 . S
C89 H95 0.930 . S
C90 C89 1.392 . S
C90 N94 1.331 . S
C91 C92 1.391 . S
C91 N94 1.329 . S
C91 H101 0.930 . S
C92 C91 1.391 . S
C92 N93 1.334 . S
C92 H99 0.930 . S
N93 Zn77 2.119 . S
N93 C89 1.328 . S
N93 C92 1.334 . S
N94 C90 1.331 . S
N94 C91 1.329 . S
H95 C89 0.930 . S
C96 O76 1.257 . S
C96 O97 1.244 . S
O97 C96 1.244 . S
O98 C74 1.257 . S
O98 Zn77 2.019 . S
H99 C92 0.930 . S
H100 C79 0.930 . S
H101 C91 0.930 . S
Zn102 N106 2.020 . S
Zn102 O110 2.019 . S
Zn102 N112 2.119 . S
Zn102 O120 1.975 . S
C103 N104 1.334 . S
C103 N107 1.336 . S
N104 C103 1.334 . S
N104 C105 1.334 . S
C105 N104 1.334 . S
C105 N106 1.336 . S
N106 Zn102 2.020 . S
N106 C105 1.336 . S
N106 N107 1.354 . S
N107 C103 1.336 . S
N107 N106 1.354 . S
N107 Zn111 2.020 . S
C108 O109 1.244 . S
C108 O132 1.257 . S
O109 C108 1.244 . S
O110 Zn102 2.019 . S
O110 C130 1.257 . S
Zn111 N107 2.020 . S
Zn111 O118 1.975 . S
Zn111 N127 2.119 1_554 S
Zn111 O132 2.019 . S
N112 Zn102 2.119 . S
N112 C114 1.334 . S
N112 C115 1.328 . S
C113 C114 1.391 . S
C113 N116 1.329 . S
C113 H134 0.930 . S
C114 N112 1.334 . S
C114 C113 1.391 . S
C114 H121 0.930 . S
C115 N112 1.328 . S
C115 C117 1.392 . S
C115 H122 0.930 . S
N116 C113 1.329 . S
N116 C117 1.331 . S
C117 C115 1.392 . S
C117 N116 1.331 . S
O118 Zn111 1.975 . S
O118 C119 1.252 . S
C119 O118 1.252 . S
C119 O120 1.252 . S
O120 Zn102 1.975 . S
O120 C119 1.252 . S
H121 C114 0.930 . S
H122 C115 0.930 . S
C123 C124 1.392 . S
C123 N127 1.328 . S
C123 H129 0.930 . S
C124 C123 1.392 . S
C124 N128 1.331 . S
C125 C126 1.391 . S
C125 N128 1.329 . S
C125 H135 0.930 . S
C126 C125 1.391 . S
C126 N127 1.334 . S
C126 H133 0.930 1_556 S
N127 Zn111 2.119 1_556 S
N127 C123 1.328 . S
N127 C126 1.334 . S
N128 C124 1.331 . S
N128 C125 1.329 . S
H129 C123 0.930 . S
C130 O110 1.257 . S
C130 O131 1.244 . S
O131 C130 1.244 . S
O132 C108 1.257 . S
O132 Zn111 2.019 . S
H133 C126 0.930 1_554 S
H134 C113 0.930 . S
H135 C125 0.930 . S
Zn136 N140 2.020 . S
Zn136 O144 2.019 . S
Zn136 N146 2.119 . S
Zn136 O154 1.975 . S
C137 N138 1.334 . S
C137 N141 1.336 . S
N138 C137 1.334 . S
N138 C139 1.334 . S
C139 N138 1.334 . S
C139 N140 1.336 . S
N140 Zn136 2.020 . S
N140 C139 1.336 . S
N140 N141 1.354 . S
N141 C137 1.336 . S
N141 N140 1.354 . S
N141 Zn145 2.020 1_554 S
C142 O143 1.244 1_556 S
C142 O166 1.257 . S
O143 C142 1.244 1_554 S
O144 Zn136 2.019 . S
O144 C164 1.257 . S
Zn145 N141 2.020 1_556 S
Zn145 O152 1.975 1_556 S
Zn145 N161 2.119 . S
Zn145 O166 2.019 . S
N146 Zn136 2.119 . S
N146 C148 1.334 . S
N146 C149 1.328 . S
C147 C148 1.391 . S
C147 N150 1.329 . S
C147 H168 0.930 . S
C148 N146 1.334 . S
C148 C147 1.391 . S
C148 H155 0.930 . S
C149 N146 1.328 . S
C149 C151 1.392 . S
C149 H156 0.930 . S
N150 C147 1.329 . S
N150 C151 1.331 . S
C151 C149 1.392 . S
C151 N150 1.331 . S
O152 Zn145 1.975 1_554 S
O152 C153 1.252 . S
C153 O152 1.252 . S
C153 O154 1.252 . S
O154 Zn136 1.975 . S
O154 C153 1.252 . S
H155 C148 0.930 . S
H156 C149 0.930 . S
C157 C158 1.392 . S
C157 N161 1.328 . S
C157 H163 0.930 . S
C158 C157 1.392 . S
C158 N162 1.331 . S
C159 C160 1.391 . S
C159 N162 1.329 . S
C159 H169 0.930 . S
C160 C159 1.391 . S
C160 N161 1.334 . S
C160 H167 0.930 . S
N161 Zn145 2.119 . S
N161 C157 1.328 . S
N161 C160 1.334 . S
N162 C158 1.331 . S
N162 C159 1.329 . S
H163 C157 0.930 . S
C164 O144 1.257 . S
C164 O165 1.244 . S
O165 C164 1.244 . S
O166 C142 1.257 . S
O166 Zn145 2.019 . S
H167 C160 0.930 . S
H168 C147 0.930 . S
H169 C159 0.930 . S
Zn170 N174 2.020 . S
Zn170 O178 2.019 . S
Zn170 N180 2.119 1_554 S
Zn170 O188 1.975 . S
C171 N172 1.334 . S
C171 N175 1.336 . S
N172 C171 1.334 . S
N172 C173 1.334 . S
C173 N172 1.334 . S
C173 N174 1.336 . S
N174 Zn170 2.020 . S
N174 C173 1.336 . S
N174 N175 1.354 . S
N175 C171 1.336 . S
N175 N174 1.354 . S
N175 Zn179 2.020 . S
C176 O177 1.244 . S
C176 O200 1.257 . S
O177 C176 1.244 . S
O178 Zn170 2.019 . S
O178 C198 1.257 . S
Zn179 N175 2.020 . S
Zn179 O186 1.975 . S
Zn179 N195 2.119 . S
Zn179 O200 2.019 . S
N180 Zn170 2.119 1_556 S
N180 C182 1.334 . S
N180 C183 1.328 . S
C181 C182 1.391 . S
C181 N184 1.329 . S
C181 H202 0.930 . S
C182 N180 1.334 . S
C182 C181 1.391 . S
C182 H189 0.930 1_556 S
C183 N180 1.328 . S
C183 C185 1.392 . S
C183 H190 0.930 . S
N184 C181 1.329 . S
N184 C185 1.331 . S
C185 C183 1.392 . S
C185 N184 1.331 . S
O186 Zn179 1.975 . S
O186 C187 1.252 . S
C187 O186 1.252 . S
C187 O188 1.252 . S
O188 Zn170 1.975 . S
O188 C187 1.252 . S
H189 C182 0.930 1_554 S
H190 C183 0.930 . S
C191 C192 1.392 . S
C191 N195 1.328 . S
C191 H197 0.930 . S
C192 C191 1.392 . S
C192 N196 1.331 . S
C193 C194 1.391 . S
C193 N196 1.329 . S
C193 H203 0.930 . S
C194 C193 1.391 . S
C194 N195 1.334 . S
C194 H201 0.930 . S
N195 Zn179 2.119 . S
N195 C191 1.328 . S
N195 C194 1.334 . S
N196 C192 1.331 . S
N196 C193 1.329 . S
H197 C191 0.930 . S
C198 O178 1.257 . S
C198 O199 1.244 . S
O199 C198 1.244 . S
O200 C176 1.257 . S
O200 Zn179 2.019 . S
H201 C194 0.930 . S
H202 C181 0.930 . S
H203 C193 0.930 . S
C204 C205 1.363 . S
C204 C210 1.379 . S
C204 N212 1.356 . S
C205 C204 1.363 . S
C205 C211 1.363 . S
C206 C207 1.363 . S
C206 C211 1.379 . S
C206 N213 1.356 . S
C207 C206 1.363 . S
C207 C210 1.363 . S
N208 C210 1.356 1_556 S
N208 H220 0.984 . S
N208 H221 0.985 . S
N209 C211 1.356 . S
N209 H214 0.984 . S
N209 H215 0.985 . S
C210 C204 1.379 . S
C210 C207 1.363 . S
C210 N208 1.356 1_554 S
C211 C205 1.363 . S
C211 C206 1.379 . S
C211 N209 1.356 . S
N212 C204 1.356 . S
N212 H218 0.984 1_554 S
N212 H219 0.984 . S
N213 C206 1.356 . S
N213 H216 0.984 . S
N213 H217 0.985 . S
H214 N209 0.984 . S
H215 N209 0.985 . S
H216 N213 0.984 . S
H217 N213 0.985 . S
H218 N212 0.984 1_556 S
H219 N212 0.984 . S
H220 N208 0.984 . S
H221 N208 0.985 . S
C222 C223 1.363 . S
C222 C228 1.379 . S
C222 N230 1.356 1_655 S
C223 C222 1.363 . S
C223 C229 1.363 . S
C224 C225 1.363 . S
C224 C229 1.379 . S
C224 N231 1.356 . S
C225 C224 1.363 . S
C225 C228 1.363 . S
N226 C228 1.356 . S
N226 H238 0.984 . S
N226 H239 0.985 . S
N227 C229 1.356 . S
N227 H232 0.984 1_655 S
N227 H233 0.985 . S
C228 C222 1.379 . S
C228 C225 1.363 . S
C228 N226 1.356 . S
C229 C223 1.363 . S
C229 C224 1.379 . S
C229 N227 1.356 . S
N230 C222 1.356 1_455 S
N230 H236 0.984 . S
N230 H237 0.984 . S
N231 C224 1.356 . S
N231 H234 0.984 . S
N231 H235 0.985 . S
H232 N227 0.984 1_455 S
H233 N227 0.985 . S
H234 N231 0.984 . S
H235 N231 0.985 . S
H236 N230 0.984 . S
H237 N230 0.984 . S
H238 N226 0.984 . S
H239 N226 0.985 . S
C240 C241 1.363 . S
C240 C246 1.379 . S
C240 N248 1.356 . S
C241 C240 1.363 . S
C241 C247 1.363 . S
C242 C243 1.363 . S
C242 C247 1.379 . S
C242 N249 1.356 1_565 S
C243 C242 1.363 . S
C243 C246 1.363 . S
N244 C246 1.356 . S
N244 H256 0.984 . S
N244 H257 0.985 . S
N245 C247 1.356 1_556 S
N245 H250 0.984 . S
N245 H251 0.985 . S
C246 C240 1.379 . S
C246 C243 1.363 . S
C246 N244 1.356 . S
C247 C241 1.363 . S
C247 C242 1.379 . S
C247 N245 1.356 1_554 S
N248 C240 1.356 . S
N248 H254 0.984 . S
N248 H255 0.984 . S
N249 C242 1.356 1_545 S
N249 H252 0.984 . S
N249 H253 0.985 . S
H250 N245 0.984 . S
H251 N245 0.985 . S
H252 N249 0.984 . S
H253 N249 0.985 . S
H254 N248 0.984 . S
H255 N248 0.984 . S
H256 N244 0.984 . S
H257 N244 0.985 . S
C258 C259 1.363 . S
C258 C264 1.379 . S
C258 N266 1.350 1_554 S
C259 C258 1.363 . S
C259 C265 1.363 . S
C260 C261 1.363 . S
C260 C265 1.379 . S
C260 N267 1.356 . S
C261 C260 1.363 . S
C261 C264 1.363 . S
N262 C264 1.356 1_556 S
N262 H274 0.984 . S
N262 H275 0.985 . S
N263 C265 1.356 . S
N263 H268 0.984 . S
N263 H269 0.985 . S
C264 C258 1.379 . S
C264 C261 1.363 . S
C264 N262 1.356 1_554 S
C265 C259 1.363 . S
C265 C260 1.379 . S
C265 N263 1.356 . S
N266 C258 1.350 1_556 S
N266 H272 0.994 . S
N266 H273 0.981 1_556 S
N267 C260 1.356 . S
N267 H270 0.984 . S
N267 H271 0.985 . S
H268 N263 0.984 . S
H269 N263 0.985 . S
H270 N267 0.984 . S
H271 N267 0.985 . S
H272 N266 0.994 . S
H273 N266 0.981 1_554 S
H274 N262 0.984 . S
H275 N262 0.985 . S
C276 C277 1.363 . S
C276 C282 1.379 . S
C276 N284 1.356 1_554 S
C277 C276 1.363 . S
C277 C283 1.363 . S
C278 C279 1.363 . S
C278 C283 1.379 . S
C278 N285 1.356 . S
C279 C278 1.363 . S
C279 C282 1.363 . S
N280 C282 1.356 1_655 S
N280 H292 0.984 . S
N280 H293 0.985 . S
N281 C283 1.356 . S
N281 H286 0.984 . S
N281 H287 0.985 . S
C282 C276 1.379 . S
C282 C279 1.363 . S
C282 N280 1.356 1_455 S
C283 C277 1.363 . S
C283 C278 1.379 . S
C283 N281 1.356 . S
N284 C276 1.356 1_556 S
N284 H290 0.984 . S
N284 H291 0.984 . S
N285 C278 1.356 . S
N285 H288 0.984 . S
N285 H289 0.985 . S
H286 N281 0.984 . S
H287 N281 0.985 . S
H288 N285 0.984 . S
H289 N285 0.985 . S
H290 N284 0.984 . S
H291 N284 0.984 . S
H292 N280 0.984 . S
H293 N280 0.985 . S
C294 C295 1.363 . S
C294 C300 1.379 . S
C294 N302 1.356 1_554 S
C295 C294 1.363 . S
C295 C301 1.363 . S
C296 C297 1.363 . S
C296 C301 1.379 . S
C296 N303 1.356 . S
C297 C296 1.363 . S
C297 C300 1.363 . S
N298 C300 1.356 . S
N298 H310 0.984 1_554 S
N298 H311 0.985 . S
N299 C301 1.356 . S
N299 H304 0.984 1_545 S
N299 H305 0.985 . S
C300 C294 1.379 . S
C300 C297 1.363 . S
C300 N298 1.356 . S
C301 C295 1.363 . S
C301 C296 1.379 . S
C301 N299 1.356 . S
N302 C294 1.356 1_556 S
N302 H308 0.984 . S
N302 H309 0.984 1_546 S
N303 C296 1.356 . S
N303 H306 0.984 . S
N303 H307 0.985 . S
H304 N299 0.984 1_565 S
H305 N299 0.985 . S
H306 N303 0.984 . S
H307 N303 0.985 . S
H308 N302 0.984 . S
H309 N302 0.984 1_564 S
H310 N298 0.984 1_556 S
H311 N298 0.985 . S
C312 C313 1.363 . S
C312 C318 1.379 . S
C312 N320 1.356 . S
C313 C312 1.363 . S
C313 C319 1.363 . S
C314 C315 1.363 . S
C314 C319 1.379 . S
C314 N321 1.356 . S
C315 C314 1.363 . S
C315 C318 1.363 . S
N316 C318 1.356 . S
N316 H328 0.984 . S
N316 H329 0.985 . S
N317 C319 1.356 . S
N317 H322 0.984 . S
N317 H323 0.985 . S
C318 C312 1.379 . S
C318 C315 1.363 . S
C318 N316 1.356 . S
C319 C313 1.363 . S
C319 C314 1.379 . S
C319 N317 1.356 . S
N320 C312 1.356 . S
N320 H326 0.984 . S
N320 H327 0.984 . S
N321 C314 1.356 . S
N321 H324 0.984 . S
N321 H325 0.985 . S
H322 N317 0.984 . S
H323 N317 0.985 . S
H324 N321 0.984 . S
H325 N321 0.985 . S
H326 N320 0.984 . S
H327 N320 0.984 . S
H328 N316 0.984 . S
H329 N316 0.985 . S
C330 C331 1.363 . S
C330 C336 1.379 . S
C330 N338 1.356 . S
C331 C330 1.363 . S
C331 C337 1.363 . S
C332 C333 1.363 . S
C332 C337 1.379 . S
C332 N339 1.356 . S
C333 C332 1.363 . S
C333 C336 1.363 . S
N334 C336 1.356 . S
N334 H346 0.984 . S
N334 H347 0.985 . S
N335 C337 1.356 . S
N335 H340 0.984 . S
N335 H341 0.985 . S
C336 C330 1.379 . S
C336 C333 1.363 . S
C336 N334 1.356 . S
C337 C331 1.363 . S
C337 C332 1.379 . S
C337 N335 1.356 . S
N338 C330 1.356 . S
N338 H344 0.984 1_545 S
N338 H345 0.984 1_545 S
N339 C332 1.356 . S
N339 H342 0.984 . S
N339 H343 0.985 . S
H340 N335 0.984 . S
H341 N335 0.985 . S
H342 N339 0.984 . S
H343 N339 0.985 . S
H344 N338 0.984 1_565 S
H345 N338 0.984 1_565 S
H346 N334 0.984 . S
H347 N334 0.985 . S
C348 C349 1.363 . S
C348 C354 1.379 . S
C348 N356 1.356 . S
C349 C348 1.363 . S
C349 C355 1.363 . S
C350 C351 1.363 . S
C350 C355 1.379 . S
C350 N357 1.356 . S
C351 C350 1.363 . S
C351 C354 1.363 . S
N352 C354 1.356 . S
N352 H364 0.984 . S
N352 H365 0.985 . S
N353 C355 1.356 . S
N353 H358 0.984 . S
N353 H359 0.985 . S
C354 C348 1.379 . S
C354 C351 1.363 . S
C354 N352 1.356 . S
C355 C349 1.363 . S
C355 C350 1.379 . S
C355 N353 1.356 . S
N356 C348 1.356 . S
N356 H362 0.984 . S
N356 H363 0.984 . S
N357 C350 1.356 . S
N357 H360 0.984 . S
N357 H361 0.985 . S
H358 N353 0.984 . S
H359 N353 0.985 . S
H360 N357 0.984 . S
H361 N357 0.985 . S
H362 N356 0.984 . S
H363 N356 0.984 . S
H364 N352 0.984 . S
H365 N352 0.985 . S
C366 C367 1.363 . S
C366 C372 1.379 . S
C366 N374 1.356 . S
C367 C366 1.363 . S
C367 C373 1.363 . S
C368 C369 1.363 . S
C368 C373 1.379 . S
C368 N375 1.356 . S
C369 C368 1.363 . S
C369 C372 1.363 . S
N370 C372 1.356 . S
N370 H382 0.984 . S
N370 H383 0.985 . S
N371 C373 1.356 . S
N371 H376 0.984 . S
N371 H377 0.985 . S
C372 C366 1.379 . S
C372 C369 1.363 . S
C372 N370 1.356 . S
C373 C367 1.363 . S
C373 C368 1.379 . S
C373 N371 1.356 . S
N374 C366 1.356 . S
N374 H380 0.984 . S
N374 H381 0.984 . S
N375 C368 1.356 . S
N375 H378 0.984 . S
N375 H379 0.985 . S
H376 N371 0.984 . S
H377 N371 0.985 . S
H378 N375 0.984 . S
H379 N375 0.985 . S
H380 N374 0.984 . S
H381 N374 0.984 . S
H382 N370 0.984 . S
H383 N370 0.985 . S
C384 C385 1.363 . S
C384 C390 1.379 . S
C384 N392 1.356 . S
C385 C384 1.363 . S
C385 C391 1.363 . S
C386 C387 1.363 . S
C386 C391 1.379 . S
C386 N393 1.356 . S
C387 C386 1.363 . S
C387 C390 1.363 . S
N388 C390 1.356 . S
N388 H400 0.984 . S
N388 H401 0.985 . S
N389 C391 1.356 . S
N389 H394 0.984 . S
N389 H395 0.985 . S
C390 C384 1.379 . S
C390 C387 1.363 . S
C390 N388 1.356 . S
C391 C385 1.363 . S
C391 C386 1.379 . S
C391 N389 1.356 . S
N392 C384 1.356 . S
N392 H398 0.984 . S
N392 H399 0.984 . S
N393 C386 1.356 . S
N393 H396 0.984 . S
N393 H397 0.985 . S
H394 N389 0.984 . S
H395 N389 0.985 . S
H396 N393 0.984 . S
H397 N393 0.985 . S
H398 N392 0.984 . S
H399 N392 0.984 . S
H400 N388 0.984 . S
H401 N388 0.985 . S
C402 C403 1.363 . S
C402 C408 1.379 . S
C402 N410 1.356 . S
C403 C402 1.363 . S
C403 C409 1.363 . S
C404 C405 1.363 . S
C404 C409 1.379 . S
C404 N411 1.356 . S
C405 C404 1.363 . S
C405 C408 1.363 . S
N406 C408 1.356 . S
N406 H418 0.984 . S
N406 H419 0.985 . S
N407 C409 1.356 . S
N407 H412 0.984 . S
N407 H413 0.985 . S
C408 C402 1.379 . S
C408 C405 1.363 . S
C408 N406 1.356 . S
C409 C403 1.363 . S
C409 C404 1.379 . S
C409 N407 1.356 . S
N410 C402 1.356 . S
N410 H416 0.984 . S
N410 H417 0.984 . S
N411 C404 1.356 . S
N411 H414 0.984 . S
N411 H415 0.985 . S
H412 N407 0.984 . S
H413 N407 0.985 . S
H414 N411 0.984 . S
H415 N411 0.985 . S
H416 N410 0.984 . S
H417 N410 0.984 . S
H418 N406 0.984 . S
H419 N406 0.985 . S
C420 C421 1.363 . S
C420 C426 1.379 . S
C420 N428 1.356 . S
C421 C420 1.363 . S
C421 C427 1.363 1_556 S
C422 C423 1.363 1_554 S
C422 C427 1.379 . S
C422 N429 1.356 . S
C423 C422 1.363 1_556 S
C423 C426 1.363 . S
N424 C426 1.356 . S
N424 H436 0.984 . S
N424 H437 0.985 . S
N425 C427 1.356 . S
N425 H430 0.984 . S
N425 H431 0.985 . S
C426 C420 1.379 . S
C426 C423 1.363 . S
C426 N424 1.356 . S
C427 C421 1.363 1_554 S
C427 C422 1.379 . S
C427 N425 1.356 . S
N428 C420 1.356 . S
N428 H434 0.984 . S
N428 H435 0.984 . S
N429 C422 1.356 . S
N429 H432 0.984 . S
N429 H433 0.985 . S
H430 N425 0.984 . S
H431 N425 0.985 . S
H432 N429 0.984 . S
H433 N429 0.985 . S
H434 N428 0.984 . S
H435 N428 0.984 . S
H436 N424 0.984 . S
H437 N424 0.985 . S
C438 C439 1.363 . S
C438 C444 1.379 . S
C438 N446 1.356 . S
C439 C438 1.363 . S
C439 C445 1.363 . S
C440 C441 1.363 . S
C440 C445 1.379 . S
C440 N447 1.356 . S
C441 C440 1.363 . S
C441 C444 1.363 . S
N442 C444 1.356 . S
N442 H454 0.984 . S
N442 H455 0.985 . S
N443 C445 1.356 . S
N443 H448 0.984 . S
N443 H449 0.985 . S
C444 C438 1.379 . S
C444 C441 1.363 . S
C444 N442 1.356 . S
C445 C439 1.363 . S
C445 C440 1.379 . S
C445 N443 1.356 . S
N446 C438 1.356 . S
N446 H452 0.984 . S
N446 H453 0.984 . S
N447 C440 1.356 . S
N447 H450 0.984 . S
N447 H451 0.985 . S
H448 N443 0.984 . S
H449 N443 0.985 . S
H450 N447 0.984 . S
H451 N447 0.985 . S
H452 N446 0.984 . S
H453 N446 0.984 . S
H454 N442 0.984 . S
H455 N442 0.985 . S
C456 C457 1.363 . S
C456 C462 1.379 . S
C456 N464 1.356 . S
C457 C456 1.363 . S
C457 C463 1.363 1_556 S
C458 C459 1.363 1_554 S
C458 C463 1.379 . S
C458 N465 1.356 . S
C459 C458 1.363 1_556 S
C459 C462 1.363 . S
N460 C462 1.356 . S
N460 H472 0.984 . S
N460 H473 0.985 . S
N461 C463 1.356 . S
N461 H466 0.984 . S
N461 H467 0.985 . S
C462 C456 1.379 . S
C462 C459 1.363 . S
C462 N460 1.356 . S
C463 C457 1.363 1_554 S
C463 C458 1.379 . S
C463 N461 1.356 . S
N464 C456 1.356 . S
N464 H470 0.984 . S
N464 H471 0.984 . S
N465 C458 1.356 . S
N465 H468 0.984 . S
N465 H469 0.985 . S
H466 N461 0.984 . S
H467 N461 0.985 . S
H468 N465 0.984 . S
H469 N465 0.985 . S
H470 N464 0.984 . S
H471 N464 0.984 . S
H472 N460 0.984 . S
H473 N460 0.985 . S
C474 C475 1.363 . S
C474 C480 1.379 . S
C474 N482 1.356 . S
C475 C474 1.363 . S
C475 C481 1.363 . S
C476 C477 1.363 . S
C476 C481 1.379 . S
C476 N483 1.356 . S
C477 C476 1.363 . S
C477 C480 1.363 . S
N478 C480 1.356 . S
N478 H490 0.984 . S
N478 H491 0.985 . S
N479 C481 1.356 . S
N479 H484 0.984 . S
N479 H485 0.985 . S
C480 C474 1.379 . S
C480 C477 1.363 . S
C480 N478 1.356 . S
C481 C475 1.363 . S
C481 C476 1.379 . S
C481 N479 1.356 . S
N482 C474 1.356 . S
N482 H488 0.984 . S
N482 H489 0.984 . S
N483 C476 1.356 . S
N483 H486 0.984 . S
N483 H487 0.985 1_554 S
H484 N479 0.984 . S
H485 N479 0.985 . S
H486 N483 0.984 . S
H487 N483 0.985 1_556 S
H488 N482 0.984 . S
H489 N482 0.984 . S
H490 N478 0.984 . S
H491 N478 0.985 . S
C492 C493 1.363 . S
C492 C498 1.379 . S
C492 N500 1.356 . S
C493 C492 1.363 . S
C493 C499 1.363 1_556 S
C494 C495 1.363 1_554 S
C494 C499 1.379 . S
C494 N501 1.356 . S
C495 C494 1.363 1_556 S
C495 C498 1.363 . S
N496 C498 1.356 . S
N496 H508 0.984 . S
N496 H509 0.985 . S
N497 C499 1.356 . S
N497 H502 0.984 . S
N497 H503 0.985 . S
C498 C492 1.379 . S
C498 C495 1.363 . S
C498 N496 1.356 . S
C499 C493 1.363 1_554 S
C499 C494 1.379 . S
C499 N497 1.356 . S
N500 C492 1.356 . S
N500 H506 0.984 . S
N500 H507 0.984 . S
N501 C494 1.356 . S
N501 H504 0.984 . S
N501 H505 0.985 . S
H502 N497 0.984 . S
H503 N497 0.985 . S
H504 N501 0.984 . S
H505 N501 0.985 . S
H506 N500 0.984 . S
H507 N500 0.984 . S
H508 N496 0.984 . S
H509 N496 0.985 . S
C510 C511 1.363 . S
C510 C516 1.379 . S
C510 N518 1.356 . S
C511 C510 1.363 . S
C511 C517 1.363 . S
C512 C513 1.363 . S
C512 C517 1.379 . S
C512 N519 1.356 . S
C513 C512 1.363 . S
C513 C516 1.363 . S
N514 C516 1.356 . S
N514 H526 0.984 . S
N514 H527 0.985 . S
N515 C517 1.356 . S
N515 H520 0.984 . S
N515 H521 0.985 1_554 S
C516 C510 1.379 . S
C516 C513 1.363 . S
C516 N514 1.356 . S
C517 C511 1.363 . S
C517 C512 1.379 . S
C517 N515 1.356 . S
N518 C510 1.356 . S
N518 H524 0.984 . S
N518 H525 0.984 . S
N519 C512 1.356 . S
N519 H522 0.984 . S
N519 H523 0.985 . S
H520 N515 0.984 . S
H521 N515 0.985 1_556 S
H522 N519 0.984 . S
H523 N519 0.985 . S
H524 N518 0.984 . S
H525 N518 0.984 . S
H526 N514 0.984 . S
H527 N514 0.985 . S
C528 C529 1.363 . S
C528 C534 1.379 . S
C528 N536 1.356 . S
C529 C528 1.363 . S
C529 C535 1.363 . S
C530 C531 1.363 . S
C530 C535 1.379 . S
C530 N537 1.356 . S
C531 C530 1.363 . S
C531 C534 1.363 . S
N532 C534 1.356 . S
N532 H544 0.984 1_554 S
N532 H545 0.985 . S
N533 C535 1.356 1_655 S
N533 H538 0.984 . S
N533 H539 0.985 . S
C534 C528 1.379 . S
C534 C531 1.363 . S
C534 N532 1.356 . S
C535 C529 1.363 . S
C535 C530 1.379 . S
C535 N533 1.356 1_455 S
N536 C528 1.356 . S
N536 H542 0.984 . S
N536 H543 0.984 . S
N537 C530 1.356 . S
N537 H540 0.984 . S
N537 H541 0.985 . S
H538 N533 0.984 . S
H539 N533 0.985 . S
H540 N537 0.984 . S
H541 N537 0.985 . S
H542 N536 0.984 . S
H543 N536 0.984 . S
H544 N532 0.984 1_556 S
H545 N532 0.985 . S
C546 C547 1.363 1_545 S
C546 C552 1.379 1_545 S
C546 N554 1.356 . S
C547 C546 1.363 1_565 S
C547 C553 1.363 . S
C548 C549 1.363 . S
C548 C553 1.379 . S
C548 N555 1.356 . S
C549 C548 1.363 . S
C549 C552 1.363 . S
N550 C552 1.356 . S
N550 H562 0.984 1_565 S
N550 H563 0.985 . S
N551 C553 1.356 . S
N551 H556 0.984 . S
N551 H557 0.985 . S
C552 C546 1.379 1_565 S
C552 C549 1.363 . S
C552 N550 1.356 . S
C553 C547 1.363 . S
C553 C548 1.379 . S
C553 N551 1.356 . S
N554 C546 1.356 . S
N554 H560 0.984 . S
N554 H561 0.984 . S
N555 C548 1.356 . S
N555 H558 0.984 . S
N555 H559 0.985 . S
H556 N551 0.984 . S
H557 N551 0.985 . S
H558 N555 0.984 . S
H559 N555 0.985 . S
H560 N554 0.984 . S
H561 N554 0.984 . S
H562 N550 0.984 1_545 S
H563 N550 0.985 . S
C564 C565 1.363 . S
C564 C570 1.379 . S
C564 N572 1.356 . S
C565 C564 1.363 . S
C565 C571 1.363 . S
C566 C567 1.363 . S
C566 C571 1.379 . S
C566 N573 1.356 . S
C567 C566 1.363 . S
C567 C570 1.363 . S
N568 C570 1.356 . S
N568 H580 0.984 . S
N568 H581 0.985 . S
N569 C571 1.356 . S
N569 H574 0.984 . S
N569 H575 0.985 . S
C570 C564 1.379 . S
C570 C567 1.363 . S
C570 N568 1.356 . S
C571 C565 1.363 . S
C571 C566 1.379 . S
C571 N569 1.356 . S
N572 C564 1.356 . S
N572 H578 0.984 . S
N572 H579 0.984 . S
N573 C566 1.356 . S
N573 H576 0.984 . S
N573 H577 0.985 1_554 S
H574 N569 0.984 . S
H575 N569 0.985 . S
H576 N573 0.984 . S
H577 N573 0.985 1_556 S
H578 N572 0.984 . S
H579 N572 0.984 . S
H580 N568 0.984 . S
H581 N568 0.985 . S
C205 C187 1.688 . S
C207 C17 1.624 . S
C223 C6 1.239 1_655 S
C225 C40 1.291 . S
C241 C85 1.624 . S
C243 C51 1.688 1_565 S
C259 C108 1.290 . S
C261 C96 1.238 . S
C277 C153 1.624 . S
C279 C119 1.688 1_455 S
C295 C164 1.238 1_545 S
C297 C198 1.290 . S
C313 C15 1.711 . S
C315 C22 1.714 . S
C331 C49 1.907 . S
C333 C56 1.914 . S
C349 C90 1.711 . S
C351 C83 1.714 . S
C367 C124 1.914 . S
C369 C117 1.907 . S
C385 C151 1.714 . S
C387 C158 1.711 . S
C403 C192 1.907 . S
C405 C185 1.914 . S
C421 C142 1.435 . S
C423 C3 1.270 1_556 S
C439 C173 1.913 . S
C441 C37 1.907 . S
C457 C28 1.436 . S
C459 C69 1.270 1_556 S
C475 C105 1.907 . S
C477 C35 1.913 . S
C493 C74 1.435 . S
C495 C137 1.270 1_556 S
C511 C103 1.913 . S
C513 C171 1.907 . S
C529 C130 1.490 1_455 S
C531 C1 1.409 . S
C547 C62 1.490 1_565 S
C549 C139 1.409 . S
C565 C176 1.490 . S
C567 C71 1.409 . S
