# Generated by pormake.
# Topology wgn, (5)-cn, num edge types: 1
# Building blocks:
#     Node 0, Type 0, BuildingBlock: XOMCOT_clean_sbu_0, # of connection points: 5
#     Node 1, Type 0, BuildingBlock: XOMCOT_clean_sbu_0, # of connection points: 5
#     Node 2, Type 0, BuildingBlock: XOMCOT_clean_sbu_0, # of connection points: 5
#     Node 3, Type 0, BuildingBlock: XOMCOT_clean_sbu_0, # of connection points: 5
#     Node 4, Type 0, BuildingBlock: XOMCOT_clean_sbu_0, # of connection points: 5
#     Node 5, Type 0, BuildingBlock: XOMCOT_clean_sbu_0, # of connection points: 5
#     Node 6, Type 0, BuildingBlock: XOMCOT_clean_sbu_0, # of connection points: 5
#     Node 7, Type 0, BuildingBlock: XOMCOT_clean_sbu_0, # of connection points: 5
#     Node 8, Type 0, BuildingBlock: XOMCOT_clean_sbu_0, # of connection points: 5
#     Node 9, Type 0, BuildingBlock: XOMCOT_clean_sbu_0, # of connection points: 5
#     Node 10, Type 0, BuildingBlock: XOMCOT_clean_sbu_0, # of connection points: 5
#     Node 11, Type 0, BuildingBlock: XOMCOT_clean_sbu_0, # of connection points: 5
#     Node 12, Type 0, BuildingBlock: XOMCOT_clean_sbu_0, # of connection points: 5
#     Node 13, Type 0, BuildingBlock: XOMCOT_clean_sbu_0, # of connection points: 5
#     Node 14, Type 0, BuildingBlock: XOMCOT_clean_sbu_0, # of connection points: 5
#     Node 15, Type 0, BuildingBlock: XOMCOT_clean_sbu_0, # of connection points: 5
#     Node 16, Type 0, BuildingBlock: XOMCOT_clean_sbu_0, # of connection points: 5
#     Node 17, Type 0, BuildingBlock: XOMCOT_clean_sbu_0, # of connection points: 5
#     Node 18, Type 0, BuildingBlock: XOMCOT_clean_sbu_0, # of connection points: 5
#     Node 19, Type 0, BuildingBlock: XOMCOT_clean_sbu_0, # of connection points: 5
#     Node 20, Type 0, BuildingBlock: XOMCOT_clean_sbu_0, # of connection points: 5
#     Node 21, Type 0, BuildingBlock: XOMCOT_clean_sbu_0, # of connection points: 5
#     Node 22, Type 0, BuildingBlock: XOMCOT_clean_sbu_0, # of connection points: 5
#     Node 23, Type 0, BuildingBlock: XOMCOT_clean_sbu_0, # of connection points: 5
#     Node 24, Type 0, BuildingBlock: XOMCOT_clean_sbu_0, # of connection points: 5
#     Node 25, Type 0, BuildingBlock: XOMCOT_clean_sbu_0, # of connection points: 5
#     Node 26, Type 0, BuildingBlock: XOMCOT_clean_sbu_0, # of connection points: 5
#     Node 27, Type 0, BuildingBlock: XOMCOT_clean_sbu_0, # of connection points: 5
#     Node 28, Type 0, BuildingBlock: XOMCOT_clean_sbu_0, # of connection points: 5
#     Node 29, Type 0, BuildingBlock: XOMCOT_clean_sbu_0, # of connection points: 5
#     Node 30, Type 0, BuildingBlock: XOMCOT_clean_sbu_0, # of connection points: 5
#     Node 31, Type 0, BuildingBlock: XOMCOT_clean_sbu_0, # of connection points: 5
#     Edge 32, Type (0, 0), BuildingBlock: KIFKEQ_clean_linker_1, # of connection points: 2
#     Edge 33, Type (0, 0), BuildingBlock: KIFKEQ_clean_linker_1, # of connection points: 2
#     Edge 34, Type (0, 0), BuildingBlock: KIFKEQ_clean_linker_1, # of connection points: 2
#     Edge 35, Type (0, 0), BuildingBlock: KIFKEQ_clean_linker_1, # of connection points: 2
#     Edge 36, Type (0, 0), BuildingBlock: KIFKEQ_clean_linker_1, # of connection points: 2
#     Edge 37, Type (0, 0), BuildingBlock: KIFKEQ_clean_linker_1, # of connection points: 2
#     Edge 38, Type (0, 0), BuildingBlock: KIFKEQ_clean_linker_1, # of connection points: 2
#     Edge 39, Type (0, 0), BuildingBlock: KIFKEQ_clean_linker_1, # of connection points: 2
#     Edge 40, Type (0, 0), BuildingBlock: KIFKEQ_clean_linker_1, # of connection points: 2
#     Edge 41, Type (0, 0), BuildingBlock: KIFKEQ_clean_linker_1, # of connection points: 2
#     Edge 42, Type (0, 0), BuildingBlock: KIFKEQ_clean_linker_1, # of connection points: 2
#     Edge 43, Type (0, 0), BuildingBlock: KIFKEQ_clean_linker_1, # of connection points: 2
#     Edge 44, Type (0, 0), BuildingBlock: KIFKEQ_clean_linker_1, # of connection points: 2
#     Edge 45, Type (0, 0), BuildingBlock: KIFKEQ_clean_linker_1, # of connection points: 2
#     Edge 46, Type (0, 0), BuildingBlock: KIFKEQ_clean_linker_1, # of connection points: 2
#     Edge 47, Type (0, 0), BuildingBlock: KIFKEQ_clean_linker_1, # of connection points: 2
#     Edge 48, Type (0, 0), BuildingBlock: KIFKEQ_clean_linker_1, # of connection points: 2
#     Edge 49, Type (0, 0), BuildingBlock: KIFKEQ_clean_linker_1, # of connection points: 2
#     Edge 50, Type (0, 0), BuildingBlock: KIFKEQ_clean_linker_1, # of connection points: 2
#     Edge 51, Type (0, 0), BuildingBlock: KIFKEQ_clean_linker_1, # of connection points: 2
#     Edge 52, Type (0, 0), BuildingBlock: KIFKEQ_clean_linker_1, # of connection points: 2
#     Edge 53, Type (0, 0), BuildingBlock: KIFKEQ_clean_linker_1, # of connection points: 2
#     Edge 54, Type (0, 0), BuildingBlock: KIFKEQ_clean_linker_1, # of connection points: 2
#     Edge 55, Type (0, 0), BuildingBlock: KIFKEQ_clean_linker_1, # of connection points: 2
#     Edge 56, Type (0, 0), BuildingBlock: KIFKEQ_clean_linker_1, # of connection points: 2
#     Edge 57, Type (0, 0), BuildingBlock: KIFKEQ_clean_linker_1, # of connection points: 2
#     Edge 58, Type (0, 0), BuildingBlock: KIFKEQ_clean_linker_1, # of connection points: 2
#     Edge 59, Type (0, 0), BuildingBlock: KIFKEQ_clean_linker_1, # of connection points: 2
#     Edge 60, Type (0, 0), BuildingBlock: KIFKEQ_clean_linker_1, # of connection points: 2
#     Edge 61, Type (0, 0), BuildingBlock: KIFKEQ_clean_linker_1, # of connection points: 2
#     Edge 62, Type (0, 0), BuildingBlock: KIFKEQ_clean_linker_1, # of connection points: 2
#     Edge 63, Type (0, 0), BuildingBlock: KIFKEQ_clean_linker_1, # of connection points: 2
#     Edge 64, Type (0, 0), BuildingBlock: KIFKEQ_clean_linker_1, # of connection points: 2
#     Edge 65, Type (0, 0), BuildingBlock: KIFKEQ_clean_linker_1, # of connection points: 2
#     Edge 66, Type (0, 0), BuildingBlock: KIFKEQ_clean_linker_1, # of connection points: 2
#     Edge 67, Type (0, 0), BuildingBlock: KIFKEQ_clean_linker_1, # of connection points: 2
#     Edge 68, Type (0, 0), BuildingBlock: KIFKEQ_clean_linker_1, # of connection points: 2
#     Edge 69, Type (0, 0), BuildingBlock: KIFKEQ_clean_linker_1, # of connection points: 2
#     Edge 70, Type (0, 0), BuildingBlock: KIFKEQ_clean_linker_1, # of connection points: 2
#     Edge 71, Type (0, 0), BuildingBlock: KIFKEQ_clean_linker_1, # of connection points: 2
#     Edge 72, Type (0, 0), BuildingBlock: KIFKEQ_clean_linker_1, # of connection points: 2
#     Edge 73, Type (0, 0), BuildingBlock: KIFKEQ_clean_linker_1, # of connection points: 2
#     Edge 74, Type (0, 0), BuildingBlock: KIFKEQ_clean_linker_1, # of connection points: 2
#     Edge 75, Type (0, 0), BuildingBlock: KIFKEQ_clean_linker_1, # of connection points: 2
#     Edge 76, Type (0, 0), BuildingBlock: KIFKEQ_clean_linker_1, # of connection points: 2
#     Edge 77, Type (0, 0), BuildingBlock: KIFKEQ_clean_linker_1, # of connection points: 2
#     Edge 78, Type (0, 0), BuildingBlock: KIFKEQ_clean_linker_1, # of connection points: 2
#     Edge 79, Type (0, 0), BuildingBlock: KIFKEQ_clean_linker_1, # of connection points: 2
#     Edge 80, Type (0, 0), BuildingBlock: KIFKEQ_clean_linker_1, # of connection points: 2
#     Edge 81, Type (0, 0), BuildingBlock: KIFKEQ_clean_linker_1, # of connection points: 2
#     Edge 82, Type (0, 0), BuildingBlock: KIFKEQ_clean_linker_1, # of connection points: 2
#     Edge 83, Type (0, 0), BuildingBlock: KIFKEQ_clean_linker_1, # of connection points: 2
#     Edge 84, Type (0, 0), BuildingBlock: KIFKEQ_clean_linker_1, # of connection points: 2
#     Edge 85, Type (0, 0), BuildingBlock: KIFKEQ_clean_linker_1, # of connection points: 2
#     Edge 86, Type (0, 0), BuildingBlock: KIFKEQ_clean_linker_1, # of connection points: 2
#     Edge 87, Type (0, 0), BuildingBlock: KIFKEQ_clean_linker_1, # of connection points: 2
#     Edge 88, Type (0, 0), BuildingBlock: KIFKEQ_clean_linker_1, # of connection points: 2
#     Edge 89, Type (0, 0), BuildingBlock: KIFKEQ_clean_linker_1, # of connection points: 2
#     Edge 90, Type (0, 0), BuildingBlock: KIFKEQ_clean_linker_1, # of connection points: 2
#     Edge 91, Type (0, 0), BuildingBlock: KIFKEQ_clean_linker_1, # of connection points: 2
#     Edge 92, Type (0, 0), BuildingBlock: KIFKEQ_clean_linker_1, # of connection points: 2
#     Edge 93, Type (0, 0), BuildingBlock: KIFKEQ_clean_linker_1, # of connection points: 2
#     Edge 94, Type (0, 0), BuildingBlock: KIFKEQ_clean_linker_1, # of connection points: 2
#     Edge 95, Type (0, 0), BuildingBlock: KIFKEQ_clean_linker_1, # of connection points: 2
#     Edge 96, Type (0, 0), BuildingBlock: KIFKEQ_clean_linker_1, # of connection points: 2
#     Edge 97, Type (0, 0), BuildingBlock: KIFKEQ_clean_linker_1, # of connection points: 2
#     Edge 98, Type (0, 0), BuildingBlock: KIFKEQ_clean_linker_1, # of connection points: 2
#     Edge 99, Type (0, 0), BuildingBlock: KIFKEQ_clean_linker_1, # of connection points: 2
#     Edge 100, Type (0, 0), BuildingBlock: KIFKEQ_clean_linker_1, # of connection points: 2
#     Edge 101, Type (0, 0), BuildingBlock: KIFKEQ_clean_linker_1, # of connection points: 2
#     Edge 102, Type (0, 0), BuildingBlock: KIFKEQ_clean_linker_1, # of connection points: 2
#     Edge 103, Type (0, 0), BuildingBlock: KIFKEQ_clean_linker_1, # of connection points: 2
#     Edge 104, Type (0, 0), BuildingBlock: KIFKEQ_clean_linker_1, # of connection points: 2
#     Edge 105, Type (0, 0), BuildingBlock: KIFKEQ_clean_linker_1, # of connection points: 2
#     Edge 106, Type (0, 0), BuildingBlock: KIFKEQ_clean_linker_1, # of connection points: 2
#     Edge 107, Type (0, 0), BuildingBlock: KIFKEQ_clean_linker_1, # of connection points: 2
#     Edge 108, Type (0, 0), BuildingBlock: KIFKEQ_clean_linker_1, # of connection points: 2
#     Edge 109, Type (0, 0), BuildingBlock: KIFKEQ_clean_linker_1, # of connection points: 2
#     Edge 110, Type (0, 0), BuildingBlock: KIFKEQ_clean_linker_1, # of connection points: 2
#     Edge 111, Type (0, 0), BuildingBlock: KIFKEQ_clean_linker_1, # of connection points: 2
# Relax obj value: 0.319
# Max RMSD: 0.208
# Mean RMSD: 0.207
data_MOF--net-wgn--node1-XOMCOT_clean_sbu_0--edge1-KIFKEQ_clean_linker_1
_symmetry_space_group_name_H-M    P1
_symmetry_Int_Tables_number       1
_symmetry_cell_setting            triclinic
loop_
_symmetry_equiv_pos_as_xyz
'x, y, z'
_cell_length_a     30.766296
_cell_length_b     30.824039
_cell_length_c     136.52401
_cell_angle_alpha  90.04188
_cell_angle_beta   89.904017
_cell_angle_gamma 89.801705
loop_
_atom_site_label
_atom_site_type_symbol
_atom_site_fract_x
_atom_site_fract_y
_atom_site_fract_z
_atom_type_partial_charge
Co0 Co 0.29081 0.15398 0.32837 0.0
C1 C 0.31786 0.13866 0.34958 0.0
C2 C 0.25956 0.17632 0.34784 0.0
C3 C 0.26778 0.17189 0.35767 0.0
N4 N 0.29094 0.15603 0.34269 0.0
N5 N 0.30444 0.14834 0.35886 0.0
H6 H 0.34655 0.11973 0.34785 0.0
H7 H 0.23196 0.19285 0.34465 0.0
C8 C 0.28226 0.25004 0.32301 0.0
O9 O 0.31151 0.24073 0.31631 0.0
N10 N 0.28729 0.1519 0.31378 0.0
C11 C 0.30746 0.12397 0.30761 0.0
C12 C 0.30043 0.13665 0.29804 0.0
C13 C 0.26468 0.1785 0.30762 0.0
N14 N 0.27428 0.17182 0.29801 0.0
C15 C 0.37851 0.15966 0.32188 0.0
C16 C 0.39013 0.24281 0.32876 0.0
C17 C 0.41152 0.22937 0.32017 0.0
C18 C 0.40958 0.18566 0.31747 0.0
C19 C 0.3591 0.21535 0.33287 0.0
N20 N 0.34902 0.17775 0.32812 0.0
H21 H 0.37501 0.12673 0.31944 0.0
H22 H 0.33826 0.22771 0.33862 0.0
H23 H 0.32684 0.09638 0.30982 0.0
H24 H 0.24227 0.20327 0.31007 0.0
O25 O 0.30929 0.09378 0.3287 0.0
O26 O 0.24077 0.11211 0.32894 0.0
O27 O 0.26627 0.21841 0.32825 0.0
C28 C 0.2697 0.08066 0.32892 0.0
H29 H 0.24747 0.18428 0.36353 0.0
H30 H 0.31521 0.1221 0.29163 0.0
H31 H 0.39304 0.27576 0.33144 0.0
H32 H 0.42775 0.17302 0.31129 0.0
Co33 Co 0.13413 0.02437 0.57743 0.0
C34 C 0.14572 0.04862 0.59931 0.0
C35 C 0.1208 0.98507 0.59651 0.0
C36 C 0.12427 0.99048 0.60648 0.0
N37 N 0.13367 0.02146 0.59189 0.0
N38 N 0.13994 0.03042 0.60832 0.0
H39 H 0.15798 0.08097 0.59835 0.0
H40 H 0.10966 0.95611 0.59283 0.0
C41 C 0.03921 0.01982 0.58289 0.0
O42 O 0.0499 0.04842 0.58959 0.0
N43 N 0.13396 0.02485 0.56296 0.0
C44 C 0.16251 0.04604 0.55722 0.0
C45 C 0.14853 0.04449 0.54763 0.0
C46 C 0.10266 0.01077 0.55664 0.0
N47 N 0.11069 0.02244 0.54718 0.0
C48 C 0.14779 0.1136 0.57937 0.0
C49 C 0.08789 0.13479 0.5652 0.0
C50 C 0.1247 0.16109 0.56641 0.0
C51 C 0.15342 0.15135 0.57401 0.0
C52 C 0.08408 0.0966 0.5706 0.0
N53 N 0.11597 0.0846 0.57702 0.0
H54 H 0.17388 0.1049 0.58421 0.0
H55 H 0.05894 0.07421 0.56848 0.0
H56 H 0.1906 0.06348 0.55984 0.0
H57 H 0.07394 0.99344 0.55895 0.0
O58 O 0.19578 0.03732 0.57766 0.0
O59 O 0.17219 0.97085 0.57731 0.0
O60 O 0.06951 1.0038 0.57733 0.0
C61 C 0.20571 0.99703 0.57766 0.0
H62 H 0.1167 0.96628 0.61196 0.0
H63 H 0.16429 0.06039 0.54153 0.0
H64 H 0.06338 0.14222 0.55977 0.0
H65 H 0.18208 0.17069 0.57535 0.0
Co66 Co 0.24027 0.87208 0.82806 0.0
C67 C 0.22169 0.88813 0.84956 0.0
C68 C 0.28072 0.85254 0.84697 0.0
C69 C 0.27527 0.85742 0.85692 0.0
N70 N 0.24705 0.87128 0.84231 0.0
N71 N 0.23818 0.87973 0.85861 0.0
H72 H 0.19164 0.90552 0.84824 0.0
H73 H 0.30765 0.83643 0.84338 0.0
C74 C 0.25294 0.77744 0.82236 0.0
O75 O 0.21974 0.7847 0.81655 0.0
N76 N 0.23645 0.87373 0.8135 0.0
C77 C 0.21136 0.8997 0.80787 0.0
C78 C 0.21561 0.88773 0.79816 0.0
C79 C 0.25896 0.84949 0.80683 0.0
N80 N 0.24492 0.85523 0.79749 0.0
C81 C 0.15126 0.85435 0.82355 0.0
C82 C 0.15217 0.77435 0.83255 0.0
C83 C 0.12612 0.78079 0.82424 0.0
C84 C 0.12209 0.82292 0.82047 0.0
C85 C 0.18155 0.80658 0.83515 0.0
N86 N 0.18488 0.84289 0.82947 0.0
H87 H 0.14965 0.88612 0.82035 0.0
H88 H 0.20615 0.79888 0.84052 0.0
H89 H 0.19057 0.92541 0.81056 0.0
H90 H 0.28465 0.82715 0.80875 0.0
O91 O 0.21777 0.93077 0.82894 0.0
O92 O 0.28717 0.91662 0.82716 0.0
O93 O 0.26935 0.80995 0.82724 0.0
C94 C 0.25653 0.94607 0.82813 0.0
H95 H 0.2975 0.84599 0.86249 0.0
H96 H 0.19705 0.90097 0.79213 0.0
H97 H 0.15392 0.74311 0.83615 0.0
H98 H 0.10042 0.83053 0.81447 0.0
Co99 Co 0.40162 0.98871 0.08004 0.0
C100 C 0.38179 0.96775 0.10178 0.0
C101 C 0.42096 0.02392 0.09934 0.0
C102 C 0.41491 0.01923 0.10925 0.0
N103 N 0.40154 0.99106 0.09452 0.0
N104 N 0.39039 0.98385 0.11086 0.0
H105 H 0.3609 0.94032 0.10062 0.0
H106 H 0.43819 0.05021 0.09584 0.0
C107 C 0.49697 0.99143 0.08524 0.0
O108 O 0.48629 0.96166 0.09168 0.0
N109 N 0.40247 0.98926 0.06558 0.0
C110 C 0.37327 0.97058 0.05956 0.0
C111 C 0.38839 0.97257 0.05003 0.0
C112 C 0.43516 1.00228 0.0595 0.0
N113 N 0.42755 0.99221 0.04996 0.0
C114 C 0.38849 0.89937 0.08193 0.0
C115 C 0.44468 0.88042 0.06683 0.0
C116 C 0.40706 0.85527 0.068 0.0
C117 C 0.38054 0.86334 0.07611 0.0
C118 C 0.45086 0.91679 0.07273 0.0
N119 N 0.42006 0.92846 0.07948 0.0
H120 H 0.36378 0.90738 0.08716 0.0
H121 H 0.47651 0.93876 0.0707 0.0
H122 H 0.34386 0.95461 0.06193 0.0
H123 H 0.46463 0.01764 0.06201 0.0
O124 O 0.34006 0.97536 0.08016 0.0
O125 O 0.36326 0.042 0.08001 0.0
O126 O 0.46645 1.00905 0.08002 0.0
C127 C 0.32985 0.0156 0.08021 0.0
H128 H 0.42673 0.04107 0.11485 0.0
H129 H 0.3726 0.95861 0.0437 0.0
H130 H 0.46776 0.87382 0.06101 0.0
H131 H 0.35161 0.84445 0.07752 0.0
Co132 Co 0.27706 0.89422 0.20959 0.0
C133 C 0.30211 0.90659 0.1878 0.0
C134 C 0.23896 0.88001 0.19041 0.0
C135 C 0.24492 0.88364 0.18047 0.0
N136 N 0.27481 0.89375 0.19514 0.0
N137 N 0.28461 0.90036 0.17875 0.0
H138 H 0.33406 0.91983 0.18886 0.0
H139 H 0.21003 0.86814 0.19402 0.0
C140 C 0.27275 0.79912 0.20418 0.0
O141 O 0.30163 0.80954 0.1975 0.0
N142 N 0.27698 0.89398 0.22403 0.0
C143 C 0.29839 0.92208 0.22983 0.0
C144 C 0.29668 0.90766 0.23939 0.0
C145 C 0.26258 0.86259 0.23027 0.0
N146 N 0.27432 0.87003 0.23974 0.0
C147 C 0.36656 0.90805 0.20779 0.0
C148 C 0.38859 0.84668 0.22155 0.0
C149 C 0.41562 0.88292 0.22027 0.0
C150 C 0.40508 0.91261 0.21293 0.0
C151 C 0.34949 0.84408 0.21644 0.0
N152 N 0.33745 0.87631 0.21012 0.0
H153 H 0.35777 0.93454 0.20308 0.0
H154 H 0.32686 0.81923 0.21861 0.0
H155 H 0.31617 0.95004 0.22725 0.0
H156 H 0.24506 0.83415 0.22789 0.0
O157 O 0.28986 0.95587 0.20939 0.0
O158 O 0.22335 0.93213 0.2096 0.0
O159 O 0.25658 0.82957 0.20966 0.0
C160 C 0.24948 0.96568 0.20931 0.0
H161 H 0.22127 0.87543 0.17491 0.0
H162 H 0.31276 0.92293 0.24552 0.0
H163 H 0.39633 0.8215 0.22679 0.0
H164 H 0.42467 0.94106 0.21156 0.0
Co165 Co 0.40362 0.03985 0.45697 0.0
C166 C 0.38994 0.0642 0.43558 0.0
C167 C 0.42403 1.0041 0.43775 0.0
C168 C 0.42008 0.01122 0.42786 0.0
N169 N 0.4056 0.03726 0.44266 0.0
N170 N 0.39878 0.04902 0.4264 0.0
H171 H 0.37289 0.09422 0.43711 0.0
H172 H 0.43902 0.97616 0.44115 0.0
C173 C 0.49957 0.02945 0.46241 0.0
O174 O 0.49161 0.05969 0.46896 0.0
N175 N 0.40134 0.03949 0.47157 0.0
C176 C 0.37347 0.06166 0.47737 0.0
C177 C 0.38549 0.05693 0.48702 0.0
C178 C 0.42713 0.01791 0.47809 0.0
N179 N 0.4203 0.03021 0.48756 0.0
C180 C 0.41172 0.12842 0.46254 0.0
C181 C 0.49558 0.13578 0.45568 0.0
C182 C 0.48279 0.15891 0.46409 0.0
C183 C 0.43885 0.15905 0.46674 0.0
C184 C 0.46704 0.10517 0.45182 0.0
N185 N 0.42893 0.09729 0.45661 0.0
H186 H 0.37853 0.12658 0.46496 0.0
H187 H 0.47877 0.08302 0.44626 0.0
H188 H 0.34621 0.08075 0.47484 0.0
H189 H 0.45139 0.99441 0.47594 0.0
O190 O 0.34366 0.05918 0.45644 0.0
O191 O 0.36121 0.99048 0.45694 0.0
O192 O 0.46731 0.01395 0.45731 0.0
C193 C 0.33011 0.01975 0.45666 0.0
H194 H 0.43129 0.98946 0.42216 0.0
H195 H 0.36993 0.07317 0.49311 0.0
H196 H 0.52868 0.13711 0.45299 0.0
H197 H 0.42666 0.17855 0.47275 0.0
Co198 Co 0.23771 0.13979 0.70677 0.0
C199 C 0.21285 0.12289 0.68553 0.0
C200 C 0.27095 0.16046 0.68726 0.0
C201 C 0.26308 0.1554 0.67742 0.0
N202 N 0.23939 0.14067 0.69242 0.0
N203 N 0.2266 0.13184 0.67624 0.0
H204 H 0.18407 0.10427 0.68725 0.0
H205 H 0.29833 0.17722 0.69044 0.0
C206 C 0.25138 0.23602 0.71148 0.0
O207 O 0.22005 0.23181 0.71794 0.0
N208 N 0.23883 0.13872 0.72139 0.0
C209 C 0.2182 0.11059 0.7274 0.0
C210 C 0.22359 0.12329 0.73703 0.0
C211 C 0.25968 0.16583 0.72774 0.0
N212 N 0.24898 0.15879 0.73726 0.0
C213 C 0.1502 0.15181 0.71284 0.0
C214 C 0.14296 0.23382 0.70499 0.0
C215 C 0.11995 0.22338 0.71356 0.0
C216 C 0.1199 0.18029 0.71677 0.0
C217 C 0.17326 0.20401 0.70139 0.0
N218 N 0.18095 0.1669 0.70655 0.0
H219 H 0.15209 0.11937 0.71569 0.0
H220 H 0.19519 0.21395 0.69563 0.0
H221 H 0.19941 0.08299 0.72502 0.0
H222 H 0.28241 0.19055 0.72554 0.0
O223 O 0.2168 0.08064 0.70634 0.0
O224 O 0.28617 0.09644 0.70676 0.0
O225 O 0.26585 0.20195 0.70683 0.0
C226 C 0.25616 0.0663 0.70638 0.0
H227 H 0.28339 0.16744 0.67155 0.0
H228 H 0.20835 0.10849 0.74334 0.0
H229 H 0.14159 0.26613 0.70188 0.0
H230 H 0.10064 0.16986 0.72298 0.0
Co231 Co 0.14114 0.9794 0.95732 0.0
C232 C 0.15692 0.96057 0.93582 0.0
C233 C 0.12648 0.02227 0.93847 0.0
C234 C 0.13104 0.01672 0.92851 0.0
N235 N 0.14221 0.98706 0.94309 0.0
N236 N 0.15007 0.97793 0.92678 0.0
H237 H 0.1714 0.92904 0.9371 0.0
H238 H 0.11246 0.05021 0.9421 0.0
C239 C 0.04566 0.99466 0.96217 0.0
O240 O 0.04932 0.9607 0.9679 0.0
N241 N 0.14065 0.97424 0.97188 0.0
C242 C 0.16633 0.94868 0.97745 0.0
C243 C 0.1532 0.95116 0.9871 0.0
C244 C 0.11508 0.99512 0.97859 0.0
N245 N 0.12005 0.97979 0.98787 0.0
C246 C 0.12259 0.89034 0.96129 0.0
C247 C 0.04293 0.89249 0.95209 0.0
C248 C 0.04901 0.86551 0.96025 0.0
C249 C 0.091 0.86079 0.96407 0.0
C250 C 0.07545 0.92203 0.94974 0.0
N251 N 0.11139 0.92467 0.95556 0.0
H252 H 0.15422 0.88837 0.96457 0.0
H253 H 0.06833 0.94711 0.94445 0.0
H254 H 0.19268 0.92872 0.97475 0.0
H255 H 0.09273 0.02084 0.97672 0.0
O256 O 0.19971 0.95634 0.95672 0.0
O257 O 0.18586 0.0257 0.95862 0.0
O258 O 0.07999 0.00989 0.95777 0.0
C259 C 0.21518 0.99493 0.9577 0.0
H260 H 0.1215 0.03991 0.92296 0.0
H261 H 0.16667 0.93205 0.993 0.0
H262 H 0.01168 0.89485 0.94849 0.0
H263 H 0.09819 0.83839 0.96996 0.0
Co264 Co 0.73692 0.86859 0.7071 0.0
C265 C 0.71311 0.88097 0.6851 0.0
C266 C 0.77642 0.85533 0.6881 0.0
C267 C 0.77169 0.85873 0.67812 0.0
N268 N 0.73992 0.86904 0.69263 0.0
N269 N 0.73191 0.87486 0.67615 0.0
H270 H 0.68043 0.89292 0.68594 0.0
H271 H 0.80503 0.8436 0.69186 0.0
C272 C 0.73133 0.7733 0.70163 0.0
O273 O 0.70272 0.78756 0.69525 0.0
N274 N 0.7368 0.86681 0.72155 0.0
C275 C 0.71851 0.89643 0.72755 0.0
C276 C 0.71946 0.88116 0.73704 0.0
C277 C 0.74866 0.83367 0.72762 0.0
N278 N 0.73808 0.84134 0.73718 0.0
C279 C 0.6494 0.89083 0.70486 0.0
C280 C 0.62165 0.83488 0.71925 0.0
C281 C 0.59876 0.87379 0.71769 0.0
C282 C 0.61166 0.90052 0.70999 0.0
C283 C 0.65981 0.82671 0.71401 0.0
N284 N 0.67516 0.85653 0.70747 0.0
H285 H 0.66105 0.91559 0.69999 0.0
H286 H 0.67971 0.79967 0.71629 0.0
H287 H 0.70371 0.92649 0.72518 0.0
H288 H 0.76296 0.80371 0.72504 0.0
O289 O 0.72876 0.93151 0.70737 0.0
O290 O 0.79317 0.90279 0.7073 0.0
O291 O 0.75195 0.80187 0.70684 0.0
C292 C 0.76959 0.93838 0.70743 0.0
H293 H 0.79624 0.85066 0.67273 0.0
H294 H 0.70651 0.89828 0.74332 0.0
H295 H 0.61156 0.81198 0.72481 0.0
H296 H 0.59487 0.93062 0.7084 0.0
Co297 Co 0.90174 0.98894 0.45536 0.0
C298 C 0.88831 0.96658 0.43339 0.0
C299 C 0.91719 0.02822 0.43637 0.0
C300 C 0.91286 0.02386 0.4264 0.0
N301 N 0.90242 0.99232 0.4409 0.0
N302 N 0.89474 0.98508 0.42443 0.0
H303 H 0.87372 0.9352 0.43427 0.0
H304 H 0.92998 0.05628 0.44014 0.0
C305 C 0.99681 0.99031 0.45013 0.0
O306 O 0.98488 0.9614 0.4436 0.0
N307 N 0.90176 0.98824 0.46984 0.0
C308 C 0.87188 0.96885 0.47557 0.0
C309 C 0.88582 0.96947 0.48516 0.0
C310 C 0.93371 1.0005 0.47619 0.0
N311 N 0.92504 0.98901 0.48565 0.0
C312 C 0.88659 0.89989 0.45321 0.0
C313 C 0.94409 0.87808 0.46783 0.0
C314 C 0.90671 0.85284 0.46647 0.0
C315 C 0.87946 0.86247 0.45862 0.0
C316 C 0.94974 0.91563 0.4623 0.0
N317 N 0.91874 0.92829 0.45572 0.0
H318 H 0.86114 0.90907 0.44826 0.0
H319 H 0.97529 0.93739 0.4645 0.0
H320 H 0.84256 0.95353 0.47295 0.0
H321 H 0.96372 0.01553 0.47389 0.0
O322 O 0.83991 0.97692 0.45508 0.0
O323 O 0.86451 0.04302 0.45556 0.0
O324 O 0.96684 1.00829 0.45548 0.0
C325 C 0.83059 0.01734 0.45519 0.0
H326 H 0.92136 0.04821 0.42103 0.0
H327 H 0.8683 0.95571 0.49128 0.0
H328 H 0.9674 0.87047 0.47352 0.0
H329 H 0.8506 0.84354 0.45715 0.0
Co330 Co 0.77922 0.14501 0.20591 0.0
C331 C 0.80339 0.13457 0.18401 0.0
C332 C 0.73827 0.15562 0.18691 0.0
C333 C 0.74348 0.15174 0.17695 0.0
N334 N 0.77568 0.1452 0.19147 0.0
N335 N 0.78444 0.13849 0.17504 0.0
H336 H 0.83665 0.12463 0.18494 0.0
H337 H 0.7087 0.1651 0.19065 0.0
C338 C 0.77228 0.23973 0.20047 0.0
O339 O 0.80021 0.22939 0.19356 0.0
N340 N 0.78034 0.14532 0.22035 0.0
C341 C 0.80327 0.1179 0.22604 0.0
C342 C 0.80161 0.13211 0.23562 0.0
C343 C 0.76503 0.17608 0.22667 0.0
N344 N 0.77767 0.16891 0.2361 0.0
C345 C 0.8689 0.13272 0.20379 0.0
C346 C 0.88857 0.19277 0.21802 0.0
C347 C 0.91553 0.15632 0.21683 0.0
C348 C 0.90681 0.1277 0.20917 0.0
C349 C 0.85051 0.19621 0.21256 0.0
N350 N 0.83915 0.16409 0.20616 0.0
H351 H 0.86071 0.10646 0.19896 0.0
H352 H 0.82757 0.22098 0.2147 0.0
H353 H 0.82199 0.09058 0.22338 0.0
H354 H 0.74611 0.20388 0.22438 0.0
O355 O 0.79348 0.08362 0.20565 0.0
O356 O 0.72643 0.10622 0.2062 0.0
O357 O 0.75732 0.20926 0.20607 0.0
C358 C 0.75333 0.07312 0.20578 0.0
H359 H 0.71838 0.15717 0.17154 0.0
H360 H 0.8187 0.1173 0.24168 0.0
H361 H 0.89532 0.21709 0.22354 0.0
H362 H 0.92701 0.09947 0.20783 0.0
Co363 Co 0.64051 0.03072 0.95922 0.0
C364 C 0.65583 0.05009 0.93767 0.0
C365 C 0.62766 0.98764 0.94038 0.0
C366 C 0.6334 0.99248 0.93044 0.0
N367 N 0.64135 0.02367 0.94496 0.0
N368 N 0.65098 0.0318 0.92863 0.0
H369 H 0.66923 0.082 0.93896 0.0
H370 H 0.61478 0.95936 0.94404 0.0
C371 C 0.54592 0.01688 0.96453 0.0
O372 O 0.55206 0.05033 0.97033 0.0
N373 N 0.64066 0.03504 0.97383 0.0
C374 C 0.6661 0.06069 0.97942 0.0
C375 C 0.65412 0.05699 0.98911 0.0
C376 C 0.61647 0.01287 0.98058 0.0
N377 N 0.62201 0.02747 0.98991 0.0
C378 C 0.62242 0.11993 0.96334 0.0
C379 C 0.54204 0.11853 0.95446 0.0
C380 C 0.54892 0.14576 0.96255 0.0
C381 C 0.5912 0.14991 0.96623 0.0
C382 C 0.57427 0.08866 0.95197 0.0
N383 N 0.61069 0.08572 0.95764 0.0
H384 H 0.6543 0.12159 0.9665 0.0
H385 H 0.5666 0.06354 0.94673 0.0
H386 H 0.69172 0.08135 0.97671 0.0
H387 H 0.59447 0.98697 0.9787 0.0
O388 O 0.69877 0.05379 0.95874 0.0
O389 O 0.68573 0.98425 0.96027 0.0
O390 O 0.57904 1.00093 0.95975 0.0
C391 C 0.7147 0.0153 0.95967 0.0
H392 H 0.62593 0.96814 0.92499 0.0
H393 H 0.66744 0.07594 0.99505 0.0
H394 H 0.51053 0.11648 0.95096 0.0
H395 H 0.59898 0.1724 0.97205 0.0
Co396 Co 0.73045 0.14767 0.82971 0.0
C397 C 0.72397 0.12494 0.85163 0.0
C398 C 0.75267 0.18679 0.84888 0.0
C399 C 0.74983 0.18095 0.85882 0.0
N400 N 0.73546 0.15234 0.84419 0.0
N401 N 0.73112 0.14233 0.86068 0.0
H402 H 0.71074 0.09292 0.85052 0.0
H403 H 0.76709 0.21475 0.84544 0.0
C404 C 0.73914 0.2463 0.8225 0.0
O405 O 0.72521 0.23677 0.81371 0.0
N406 N 0.72731 0.14264 0.8153 0.0
C407 C 0.69583 0.12235 0.81023 0.0
C408 C 0.70093 0.1309 0.80038 0.0
C409 C 0.75332 0.16019 0.80827 0.0
N410 N 0.73657 0.15575 0.79907 0.0
C411 C 0.64469 0.12693 0.83486 0.0
C412 C 0.60757 0.17321 0.81987 0.0
C413 C 0.5884 0.13415 0.82286 0.0
C414 C 0.60541 0.11298 0.831 0.0
C415 C 0.64718 0.18574 0.82395 0.0
N416 N 0.66797 0.15933 0.83046 0.0
H417 H 0.65898 0.10648 0.8403 0.0
H418 H 0.66219 0.21401 0.82108 0.0
H419 H 0.66946 0.10432 0.81349 0.0
H420 H 0.78213 0.17882 0.80994 0.0
O421 O 0.72261 0.08519 0.83066 0.0
O422 O 0.78685 0.11352 0.8293 0.0
O423 O 0.74483 0.21538 0.82891 0.0
C424 C 0.76343 0.07812 0.83013 0.0
H425 H 0.76135 0.20369 0.86426 0.0
H426 H 0.67816 0.12174 0.79472 0.0
H427 H 0.59337 0.19266 0.81409 0.0
H428 H 0.59067 0.08375 0.83386 0.0
Co429 Co 0.63348 0.97512 0.5772 0.0
C430 C 0.64824 0.9494 0.59851 0.0
C431 C 0.60843 1.00609 0.59661 0.0
C432 C 0.61232 0.99797 0.60646 0.0
N433 N 0.63036 0.97559 0.59154 0.0
N434 N 0.63724 0.96235 0.60775 0.0
H435 H 0.66839 0.92147 0.59686 0.0
H436 H 0.59099 0.03296 0.59335 0.0
C437 C 0.53754 0.98365 0.57155 0.0
O438 O 0.54665 0.95422 0.56489 0.0
N439 N 0.63672 0.97791 0.56262 0.0
C440 C 0.66557 0.95803 0.55661 0.0
C441 C 0.65373 0.96475 0.54697 0.0
C442 C 0.61041 1.00002 0.55631 0.0
N443 N 0.61819 0.99041 0.54676 0.0
C444 C 0.62691 0.88751 0.57073 0.0
C445 C 0.54389 0.87676 0.57788 0.0
C446 C 0.55669 0.85503 0.56929 0.0
C447 C 0.6003 0.85666 0.56642 0.0
C448 C 0.57183 0.90762 0.58185 0.0
N449 N 0.60947 0.91712 0.57702 0.0
H450 H 0.6598 0.89069 0.56818 0.0
H451 H 0.5598 0.92871 0.58758 0.0
H452 H 0.69318 0.93903 0.55899 0.0
H453 H 0.58521 0.02228 0.55861 0.0
O454 O 0.69384 0.95707 0.57793 0.0
O455 O 0.67445 0.02547 0.57769 0.0
O456 O 0.56918 0.99959 0.57678 0.0
C457 C 0.70617 0.99691 0.57811 0.0
H458 H 0.59851 0.01757 0.61227 0.0
H459 H 0.66909 0.95014 0.54063 0.0
H460 H 0.51105 0.87412 0.58069 0.0
H461 H 0.61239 0.83823 0.56023 0.0
Co462 Co 0.78712 0.88407 0.3259 0.0
C463 C 0.81167 0.90135 0.34722 0.0
C464 C 0.75358 0.86394 0.34531 0.0
C465 C 0.75977 0.8707 0.35515 0.0
N466 N 0.78594 0.88283 0.34026 0.0
N467 N 0.79608 0.89447 0.35646 0.0
H468 H 0.84025 0.92035 0.34556 0.0
H469 H 0.72653 0.84697 0.34205 0.0
C470 C 0.77706 0.78749 0.32109 0.0
O471 O 0.80756 0.79381 0.31452 0.0
N472 N 0.78498 0.88547 0.31127 0.0
C473 C 0.80409 0.91439 0.3052 0.0
C474 C 0.79821 0.90171 0.29557 0.0
C475 C 0.76438 0.85788 0.30499 0.0
N476 N 0.77397 0.86542 0.29543 0.0
C477 C 0.87436 0.87352 0.31937 0.0
C478 C 0.88413 0.79252 0.32762 0.0
C479 C 0.90605 0.80253 0.31887 0.0
C480 C 0.9048 0.8452 0.31541 0.0
C481 C 0.85359 0.82202 0.33122 0.0
N482 N 0.84467 0.85854 0.32593 0.0
H483 H 0.87152 0.90561 0.31637 0.0
H484 H 0.83231 0.81197 0.3371 0.0
H485 H 0.82227 0.94249 0.30753 0.0
H486 H 0.74274 0.83233 0.30727 0.0
O487 O 0.80641 0.9439 0.32635 0.0
O488 O 0.73753 0.92642 0.32616 0.0
O489 O 0.76122 0.82067 0.32586 0.0
C490 C 0.76675 0.95733 0.32653 0.0
H491 H 0.7388 0.85886 0.36092 0.0
H492 H 0.81239 0.91704 0.2892 0.0
H493 H 0.88651 0.76058 0.33088 0.0
H494 H 0.92332 0.85524 0.30906 0.0
Co495 Co 0.90167 0.03511 0.0772 0.0
C496 C 0.88199 0.06067 0.09834 0.0
C497 C 0.92708 1.00781 0.0968 0.0
C498 C 0.91935 0.0144 0.10659 0.0
N499 N 0.90402 0.03672 0.09154 0.0
N500 N 0.89075 0.04735 0.10766 0.0
H501 H 0.85901 0.08604 0.0965 0.0
H502 H 0.94739 0.98254 0.09373 0.0
C503 C 0.99852 0.0283 0.07195 0.0
O504 O 0.98953 0.05673 0.06508 0.0
N505 N 0.89936 0.03019 0.06264 0.0
C506 C 0.87 0.0481 0.05647 0.0
C507 C 0.88278 0.04106 0.04689 0.0
C508 C 0.92716 1.00884 0.05649 0.0
N509 N 0.91953 0.01714 0.04688 0.0
C510 C 0.90531 0.12179 0.07015 0.0
C511 C 0.98779 0.1367 0.07716 0.0
C512 C 0.97409 0.15693 0.06847 0.0
C513 C 0.93065 0.15311 0.06563 0.0
C514 C 0.96107 0.1053 0.08135 0.0
N515 N 0.92386 0.09373 0.07661 0.0
H516 H 0.87258 0.117 0.06764 0.0
H517 H 0.97377 0.08551 0.08723 0.0
H518 H 0.84144 0.0661 0.05869 0.0
H519 H 0.95319 0.98795 0.05894 0.0
O520 O 0.84076 0.05166 0.0777 0.0
O521 O 0.86201 0.98383 0.07807 0.0
O522 O 0.96664 0.01226 0.0771 0.0
C523 C 0.82954 0.01159 0.07824 0.0
H524 H 0.93367 0.99583 0.11249 0.0
H525 H 0.86713 0.05432 0.04046 0.0
H526 H 0.02044 0.14113 0.07994 0.0
H527 H 0.91781 0.17037 0.05936 0.0
Co528 Co 0.78694 0.64735 0.82897 0.0
C529 C 0.79529 0.62613 0.8509 0.0
C530 C 0.75972 0.68438 0.84796 0.0
C531 C 0.76274 0.67928 0.85793 0.0
N532 N 0.78105 0.65182 0.84339 0.0
N533 N 0.78562 0.64294 0.85988 0.0
H534 H 0.81181 0.59554 0.84991 0.0
H535 H 0.74229 0.71033 0.84438 0.0
C536 C 0.77883 0.74637 0.82195 0.0
O537 O 0.79402 0.73712 0.81323 0.0
N538 N 0.79128 0.64253 0.81456 0.0
C539 C 0.82315 0.62146 0.80973 0.0
C540 C 0.81992 0.63024 0.79987 0.0
C541 C 0.76687 0.66099 0.80734 0.0
N542 N 0.78529 0.65642 0.7983 0.0
C543 C 0.87296 0.62415 0.83357 0.0
C544 C 0.91008 0.67635 0.81963 0.0
C545 C 0.92973 0.63647 0.82188 0.0
C546 C 0.91264 0.61206 0.82953 0.0
C547 C 0.87023 0.68707 0.8239 0.0
N548 N 0.84949 0.65816 0.82984 0.0
H549 H 0.85884 0.60161 0.83859 0.0
H550 H 0.85554 0.71689 0.82181 0.0
H551 H 0.84841 0.60241 0.81316 0.0
H552 H 0.73847 0.68078 0.80881 0.0
O553 O 0.79402 0.58468 0.82987 0.0
O554 O 0.7302 0.61418 0.82843 0.0
O555 O 0.77273 0.71522 0.82828 0.0
C556 C 0.75317 0.57837 0.8293 0.0
H557 H 0.7484 0.70074 0.86332 0.0
H558 H 0.84264 0.61921 0.79434 0.0
H559 H 0.92443 0.69822 0.81434 0.0
H560 H 0.92779 0.58201 0.83185 0.0
Co561 Co 0.62445 0.54082 0.07668 0.0
C562 C 0.63798 0.56571 0.09808 0.0
C563 C 0.60129 0.50741 0.09593 0.0
C564 C 0.60563 0.51438 0.10581 0.0
N565 N 0.62108 0.53956 0.09101 0.0
N566 N 0.62857 0.55108 0.10728 0.0
H567 H 0.65668 0.59459 0.09654 0.0
H568 H 0.58543 0.47998 0.09255 0.0
C569 C 0.52887 0.53052 0.0709 0.0
O570 O 0.53729 0.5599 0.06421 0.0
N571 N 0.62804 0.53888 0.0621 0.0
C572 C 0.65589 0.56049 0.05623 0.0
C573 C 0.64423 0.55456 0.04656 0.0
C574 C 0.60275 0.51642 0.05565 0.0
N575 N 0.60984 0.52754 0.04614 0.0
C576 C 0.61666 0.62879 0.0706 0.0
C577 C 0.53235 0.63748 0.07712 0.0
C578 C 0.54579 0.65988 0.06869 0.0
C579 C 0.58987 0.65923 0.06616 0.0
C580 C 0.56057 0.60701 0.08123 0.0
N581 N 0.59905 0.59842 0.07663 0.0
H582 H 0.65005 0.62654 0.06834 0.0
H583 H 0.54843 0.58551 0.08685 0.0
H584 H 0.68277 0.58006 0.0587 0.0
H585 H 0.57868 0.49303 0.05788 0.0
O586 O 0.68434 0.5599 0.07755 0.0
O587 O 0.66675 0.4912 0.07713 0.0
O588 O 0.56082 0.51527 0.07616 0.0
C589 C 0.69771 0.52031 0.0777 0.0
H590 H 0.59379 0.49299 0.1115 0.0
H591 H 0.65929 0.57053 0.04039 0.0
H592 H 0.49913 0.63949 0.07973 0.0
H593 H 0.60251 0.67824 0.06014 0.0
Co594 Co 0.73859 0.38401 0.32717 0.0
C595 C 0.71648 0.39705 0.34913 0.0
C596 C 0.78139 0.3759 0.34603 0.0
C597 C 0.77703 0.38056 0.356 0.0
N598 N 0.74357 0.38585 0.34159 0.0
N599 N 0.73623 0.39391 0.35803 0.0
H600 H 0.68306 0.40668 0.34834 0.0
H601 H 0.81062 0.36602 0.34221 0.0
C602 C 0.7465 0.28986 0.33307 0.0
O603 O 0.71961 0.30069 0.34015 0.0
N604 N 0.73591 0.38172 0.31272 0.0
C605 C 0.71273 0.40885 0.30701 0.0
C606 C 0.71317 0.39376 0.29751 0.0
C607 C 0.75015 0.35014 0.30647 0.0
N608 N 0.73637 0.35647 0.29708 0.0
C609 C 0.64943 0.39678 0.32962 0.0
C610 C 0.62911 0.33644 0.31552 0.0
C611 C 0.60336 0.37394 0.31641 0.0
C612 C 0.61225 0.40269 0.32404 0.0
C613 C 0.66664 0.33226 0.32115 0.0
N614 N 0.67868 0.36479 0.32738 0.0
H615 H 0.65801 0.42321 0.33437 0.0
H616 H 0.68898 0.30666 0.3192 0.0
H617 H 0.69473 0.43674 0.30961 0.0
H618 H 0.76842 0.32201 0.30881 0.0
O619 O 0.72414 0.44528 0.32693 0.0
O620 O 0.79123 0.42295 0.3263 0.0
O621 O 0.76069 0.31993 0.32727 0.0
C622 C 0.76415 0.45595 0.32633 0.0
H623 H 0.80251 0.37547 0.36134 0.0
H624 H 0.69671 0.40908 0.29143 0.0
H625 H 0.62206 0.31187 0.31008 0.0
H626 H 0.59304 0.43174 0.32519 0.0
Co627 Co 0.89388 0.47577 0.57861 0.0
C628 C 0.87956 0.45324 0.60003 0.0
C629 C 0.91388 0.51289 0.59772 0.0
C630 C 0.90927 0.50648 0.60763 0.0
N631 N 0.89568 0.47955 0.5929 0.0
N632 N 0.88782 0.46894 0.60918 0.0
H633 H 0.86247 0.42332 0.59855 0.0
H634 H 0.92907 0.54048 0.59425 0.0
C635 C 0.98946 0.48529 0.57293 0.0
O636 O 0.98126 0.4543 0.5666 0.0
N637 N 0.89186 0.47497 0.56402 0.0
C638 C 0.86569 0.45128 0.55819 0.0
C639 C 0.87863 0.45583 0.54857 0.0
C640 C 0.91722 0.49723 0.55755 0.0
N641 N 0.91207 0.48402 0.54812 0.0
C642 C 0.90264 0.38642 0.57358 0.0
C643 C 0.98642 0.37998 0.58051 0.0
C644 C 0.97398 0.35578 0.57225 0.0
C645 C 0.93006 0.35522 0.5696 0.0
C646 C 0.95762 0.41112 0.58413 0.0
N647 N 0.91956 0.41837 0.57928 0.0
H648 H 0.86942 0.38787 0.57119 0.0
H649 H 0.96912 0.43403 0.58954 0.0
H650 H 0.83911 0.43129 0.56066 0.0
H651 H 0.94022 0.52177 0.55973 0.0
O652 O 0.83401 0.45667 0.57936 0.0
O653 O 0.85148 0.52529 0.57836 0.0
O654 O 0.95742 0.50147 0.57806 0.0
C655 C 0.82054 0.49622 0.57906 0.0
H656 H 0.92006 0.52864 0.61327 0.0
H657 H 0.86513 0.43814 0.54245 0.0
H658 H 0.01949 0.37906 0.58321 0.0
H659 H 0.91812 0.33491 0.56373 0.0
Co660 Co 0.78264 0.36839 0.70797 0.0
C661 C 0.80676 0.38443 0.68611 0.0
C662 C 0.74574 0.35362 0.68885 0.0
C663 C 0.75009 0.35936 0.67893 0.0
N664 N 0.78103 0.36907 0.6935 0.0
N665 N 0.78835 0.37894 0.67712 0.0
H666 H 0.83764 0.40004 0.68709 0.0
H667 H 0.71809 0.33925 0.6925 0.0
C668 C 0.78861 0.27331 0.70236 0.0
O669 O 0.81779 0.28774 0.69614 0.0
N670 N 0.78123 0.36645 0.72241 0.0
C671 C 0.79874 0.39598 0.72852 0.0
C672 C 0.79633 0.38084 0.73801 0.0
C673 C 0.76858 0.33339 0.72841 0.0
N674 N 0.77754 0.3413 0.73801 0.0
C675 C 0.87074 0.38921 0.70613 0.0
C676 C 0.89722 0.33164 0.72033 0.0
C677 C 0.92122 0.36975 0.71881 0.0
C678 C 0.90877 0.39739 0.71123 0.0
C679 C 0.85877 0.32503 0.71515 0.0
N680 N 0.84427 0.35547 0.70864 0.0
H681 H 0.8597 0.41456 0.70136 0.0
H682 H 0.8382 0.29855 0.71739 0.0
H683 H 0.81417 0.42576 0.72623 0.0
H684 H 0.75412 0.30364 0.7258 0.0
O685 O 0.79108 0.4312 0.70831 0.0
O686 O 0.72655 0.40326 0.70787 0.0
O687 O 0.76751 0.30176 0.70758 0.0
C688 C 0.75029 0.43857 0.70812 0.0
H689 H 0.72669 0.34955 0.67346 0.0
H690 H 0.80936 0.39709 0.74438 0.0
H691 H 0.90678 0.30813 0.72582 0.0
H692 H 0.92625 0.42704 0.7097 0.0
Co693 Co 0.87745 0.53085 0.95885 0.0
C694 C 0.86284 0.55584 0.93702 0.0
C695 C 0.89001 0.49297 0.9397 0.0
C696 C 0.88521 0.49807 0.92977 0.0
N697 N 0.87627 0.52896 0.94439 0.0
N698 N 0.86817 0.53761 0.92798 0.0
H699 H 0.85011 0.58807 0.93804 0.0
H700 H 0.90253 0.46438 0.94333 0.0
C701 C 0.97247 0.53663 0.95304 0.0
O702 O 0.9577 0.56543 0.94677 0.0
N703 N 0.87982 0.52999 0.9733 0.0
C704 C 0.85017 0.54778 0.97938 0.0
C705 C 0.86571 0.54657 0.98884 0.0
C706 C 0.91328 0.51811 0.9793 0.0
N707 N 0.90571 0.52829 0.98887 0.0
C708 C 0.85573 0.61891 0.95683 0.0
C709 C 0.91647 0.64805 0.97005 0.0
C710 C 0.87934 0.67339 0.9682 0.0
C711 C 0.84981 0.65915 0.96119 0.0
C712 C 0.9209 0.60754 0.96561 0.0
N713 N 0.88956 0.59243 0.95942 0.0
H714 H 0.8295 0.60724 0.95237 0.0
H715 H 0.94703 0.58675 0.96802 0.0
H716 H 0.81987 0.56242 0.97709 0.0
H717 H 0.94347 0.50432 0.97667 0.0
O718 O 0.81449 0.53885 0.95928 0.0
O719 O 0.84355 0.47461 0.95884 0.0
O720 O 0.94427 0.5159 0.95835 0.0
C721 C 0.80783 0.49804 0.95909 0.0
H722 H 0.89289 0.47381 0.9243 0.0
H723 H 0.84874 0.55904 0.9952 0.0
H724 H 0.94117 0.65863 0.97516 0.0
H725 H 0.8208 0.67765 0.95948 0.0
Co726 Co 0.73122 0.6464 0.20593 0.0
C727 C 0.71131 0.63181 0.18439 0.0
C728 C 0.77241 0.66304 0.18706 0.0
C729 C 0.76782 0.65712 0.17713 0.0
N730 N 0.73717 0.64734 0.19167 0.0
N731 N 0.72953 0.63734 0.17536 0.0
H732 H 0.68044 0.61606 0.18568 0.0
H733 H 0.8 0.67747 0.1907 0.0
C734 C 0.74047 0.74185 0.2115 0.0
O735 O 0.70845 0.73387 0.2176 0.0
N736 N 0.72825 0.64518 0.22053 0.0
C737 C 0.7034 0.61959 0.22625 0.0
C738 C 0.70714 0.63251 0.23589 0.0
C739 C 0.75018 0.6703 0.22711 0.0
N740 N 0.73591 0.6654 0.23648 0.0
C741 C 0.641 0.65601 0.21017 0.0
C742 C 0.63626 0.73928 0.20295 0.0
C743 C 0.61054 0.72745 0.21102 0.0
C744 C 0.60915 0.68372 0.21377 0.0
C745 C 0.66795 0.71019 0.1997 0.0
N746 N 0.67412 0.67245 0.20474 0.0
H747 H 0.64188 0.623 0.2127 0.0
H748 H 0.69193 0.72125 0.19447 0.0
H749 H 0.6833 0.59328 0.2237 0.0
H750 H 0.77534 0.69286 0.22504 0.0
O751 O 0.71162 0.58673 0.20519 0.0
O752 O 0.78031 0.6034 0.20665 0.0
O753 O 0.75731 0.7097 0.20652 0.0
C754 C 0.75098 0.57278 0.2058 0.0
H755 H 0.79106 0.66698 0.17161 0.0
H756 H 0.68864 0.61929 0.24193 0.0
H757 H 0.63613 0.77217 0.20016 0.0
H758 H 0.58779 0.67221 0.21951 0.0
Co759 Co 0.63363 0.48698 0.45735 0.0
C760 C 0.65002 0.46737 0.43535 0.0
C761 C 0.62131 0.52906 0.43856 0.0
C762 C 0.62714 0.52596 0.4286 0.0
N763 N 0.6351 0.49237 0.44293 0.0
N764 N 0.64545 0.48723 0.42648 0.0
H765 H 0.66476 0.43593 0.43613 0.0
H766 H 0.60777 0.55664 0.44242 0.0
C767 C 0.53902 0.493 0.45164 0.0
O768 O 0.55006 0.46585 0.44464 0.0
N769 N 0.63154 0.48415 0.47178 0.0
C770 C 0.658 0.46016 0.47749 0.0
C771 C 0.6431 0.46144 0.48702 0.0
C772 C 0.60057 0.49964 0.47805 0.0
N773 N 0.60679 0.48617 0.48745 0.0
C774 C 0.64763 0.39819 0.4547 0.0
C775 C 0.58831 0.37629 0.46894 0.0
C776 C 0.62607 0.35103 0.46782 0.0
C777 C 0.65426 0.36073 0.46012 0.0
C778 C 0.58335 0.41408 0.46344 0.0
N779 N 0.61537 0.42684 0.45712 0.0
H780 H 0.67381 0.40739 0.44995 0.0
H781 H 0.55766 0.43604 0.46556 0.0
H782 H 0.68508 0.44098 0.47486 0.0
H783 H 0.5734 0.51946 0.47574 0.0
O784 O 0.69523 0.47363 0.45754 0.0
O785 O 0.67138 0.54021 0.45823 0.0
O786 O 0.56909 0.50793 0.45734 0.0
C787 C 0.70497 0.51383 0.45817 0.0
H788 H 0.61812 0.55063 0.42335 0.0
H789 H 0.65703 0.44361 0.49308 0.0
H790 H 0.56419 0.36865 0.47446 0.0
H791 H 0.68352 0.34198 0.45882 0.0
Co792 Co 0.22828 0.39281 0.20913 0.0
C793 C 0.2057 0.40851 0.18773 0.0
C794 C 0.26305 0.3698 0.18986 0.0
C795 C 0.25595 0.37408 0.17996 0.0
N796 N 0.23148 0.39084 0.19479 0.0
N797 N 0.21992 0.39833 0.17854 0.0
H798 H 0.17702 0.42779 0.18926 0.0
H799 H 0.28978 0.35255 0.19323 0.0
C800 C 0.23759 0.29698 0.21466 0.0
O801 O 0.20655 0.3052 0.22101 0.0
N802 N 0.228 0.39504 0.22373 0.0
C803 C 0.20571 0.42273 0.22953 0.0
C804 C 0.20992 0.41017 0.23918 0.0
C805 C 0.24922 0.36891 0.23023 0.0
N806 N 0.23646 0.37522 0.23968 0.0
C807 C 0.13937 0.38314 0.21467 0.0
C808 C 0.13269 0.30085 0.20696 0.0
C809 C 0.10905 0.3118 0.21542 0.0
C810 C 0.10865 0.35504 0.21854 0.0
C811 C 0.16344 0.33013 0.20347 0.0
N812 N 0.17081 0.36739 0.2086 0.0
H813 H 0.14088 0.41579 0.2174 0.0
H814 H 0.18605 0.31941 0.19789 0.0
H815 H 0.18677 0.45009 0.22701 0.0
H816 H 0.27275 0.34472 0.22807 0.0
O817 O 0.20909 0.45281 0.2084 0.0
O818 O 0.27784 0.43496 0.20926 0.0
O819 O 0.25396 0.32904 0.20962 0.0
C820 C 0.2487 0.46606 0.20863 0.0
H821 H 0.2764 0.36088 0.17422 0.0
H822 H 0.19349 0.42545 0.24528 0.0
H823 H 0.13165 0.26837 0.20393 0.0
H824 H 0.08873 0.3658 0.22462 0.0
Co825 Co 0.37843 0.48501 0.95757 0.0
C826 C 0.36437 0.45817 0.93581 0.0
C827 C 0.39124 0.52118 0.93829 0.0
C828 C 0.38791 0.51484 0.92837 0.0
N829 N 0.37692 0.48583 0.94311 0.0
N830 N 0.37104 0.47526 0.92673 0.0
H831 H 0.35161 0.42608 0.93691 0.0
H832 H 0.40363 0.54999 0.94183 0.0
C833 C 0.47358 0.47961 0.95178 0.0
O834 O 0.4595 0.45031 0.94556 0.0
N835 N 0.38157 0.48718 0.97199 0.0
C836 C 0.35241 0.47082 0.97837 0.0
C837 C 0.36885 0.47381 0.98775 0.0
C838 C 0.41563 0.49968 0.9777 0.0
N839 N 0.40883 0.49168 0.98737 0.0
C840 C 0.35822 0.39668 0.95587 0.0
C841 C 0.41906 0.3695 0.96931 0.0
C842 C 0.38208 0.34398 0.96765 0.0
C843 C 0.35259 0.35705 0.96049 0.0
C844 C 0.42324 0.40933 0.96458 0.0
N845 N 0.39168 0.42363 0.95833 0.0
H846 H 0.33188 0.40773 0.95134 0.0
H847 H 0.44922 0.43042 0.96687 0.0
H848 H 0.32197 0.45588 0.97635 0.0
H849 H 0.44538 0.51334 0.97485 0.0
O850 O 0.31562 0.47634 0.95818 0.0
O851 O 0.34339 0.54085 0.95748 0.0
O852 O 0.4449 0.50057 0.95695 0.0
C853 C 0.30812 0.51705 0.95793 0.0
H854 H 0.3967 0.53805 0.92276 0.0
H855 H 0.35325 0.4618 0.99432 0.0
H856 H 0.44374 0.3597 0.97452 0.0
H857 H 0.32374 0.33829 0.95891 0.0
Co858 Co 0.29034 0.64082 0.70757 0.0
C859 C 0.30949 0.62367 0.6861 0.0
C860 C 0.25031 0.65905 0.68864 0.0
C861 C 0.25486 0.65238 0.67874 0.0
N862 N 0.28444 0.64132 0.69332 0.0
N863 N 0.2919 0.62989 0.67705 0.0
H864 H 0.3393 0.60597 0.68747 0.0
H865 H 0.22347 0.67542 0.69221 0.0
C866 C 0.27773 0.73583 0.71296 0.0
O867 O 0.31055 0.72903 0.71891 0.0
N868 N 0.29352 0.63958 0.72217 0.0
C869 C 0.31779 0.61267 0.72775 0.0
C870 C 0.31438 0.62468 0.73744 0.0
C871 C 0.27224 0.6647 0.7289 0.0
N872 N 0.28657 0.65846 0.73821 0.0
C873 C 0.37964 0.65481 0.71207 0.0
C874 C 0.38143 0.73666 0.70399 0.0
C875 C 0.40724 0.72738 0.71221 0.0
C876 C 0.41003 0.68435 0.71545 0.0
C877 C 0.35111 0.70591 0.70099 0.0
N878 N 0.34635 0.66882 0.70634 0.0
H879 H 0.37996 0.6224 0.71496 0.0
H880 H 0.32689 0.71526 0.69565 0.0
H881 H 0.33733 0.58606 0.72504 0.0
H882 H 0.24769 0.68829 0.727 0.0
O883 O 0.31233 0.58208 0.70698 0.0
O884 O 0.24288 0.59656 0.70833 0.0
O885 O 0.26167 0.70305 0.70814 0.0
C886 C 0.27355 0.56692 0.70777 0.0
H887 H 0.23239 0.66361 0.6732 0.0
H888 H 0.33175 0.60963 0.74343 0.0
H889 H 0.38051 0.76888 0.70083 0.0
H890 H 0.43144 0.67471 0.72135 0.0
Co891 Co 0.13332 0.5355 0.45932 0.0
C892 C 0.15106 0.56074 0.43811 0.0
C893 C 0.11089 0.50446 0.43984 0.0
C894 C 0.11769 0.51116 0.43002 0.0
N895 N 0.13144 0.53542 0.44499 0.0
N896 N 0.14322 0.54631 0.42883 0.0
H897 H 0.17152 0.58814 0.43986 0.0
H898 H 0.09274 0.47797 0.44301 0.0
C899 C 0.03666 0.5261 0.46431 0.0
O900 O 0.04372 0.55594 0.47098 0.0
N901 N 0.13539 0.53231 0.47392 0.0
C902 C 0.16463 0.55086 0.48001 0.0
C903 C 0.15208 0.54451 0.48963 0.0
C904 C 0.10783 0.51149 0.48017 0.0
N905 N 0.1156 0.52051 0.48974 0.0
C906 C 0.12416 0.62231 0.46615 0.0
C907 C 0.04258 0.63343 0.45823 0.0
C908 C 0.0534 0.6546 0.467 0.0
C909 C 0.09636 0.65272 0.47031 0.0
C910 C 0.07159 0.60292 0.45442 0.0
N911 N 0.1084 0.59325 0.45955 0.0
H912 H 0.15649 0.61896 0.46902 0.0
H913 H 0.06092 0.58219 0.44851 0.0
H914 H 0.19281 0.56901 0.47769 0.0
H915 H 0.082 0.49025 0.47786 0.0
O916 O 0.19344 0.55406 0.45881 0.0
O917 O 0.17501 0.4855 0.4588 0.0
O918 O 0.06951 0.51031 0.45941 0.0
C919 C 0.20632 0.51431 0.45848 0.0
H920 H 0.10468 0.49131 0.42419 0.0
H921 H 0.16752 0.55833 0.49603 0.0
H922 H 1.01037 0.63632 0.4551 0.0
H923 H 0.10701 0.6707 0.47668 0.0
Co924 Co 0.24195 0.65268 0.33043 0.0
C925 C 0.21982 0.64067 0.35241 0.0
C926 C 0.28446 0.66203 0.34927 0.0
C927 C 0.28019 0.65764 0.35925 0.0
N928 N 0.24681 0.65155 0.34485 0.0
N929 N 0.23956 0.64416 0.3613 0.0
H930 H 0.18643 0.63115 0.35163 0.0
H931 H 0.31354 0.67196 0.34543 0.0
C932 C 0.24329 0.74739 0.33613 0.0
O933 O 0.21558 0.73499 0.34289 0.0
N934 N 0.23959 0.65455 0.31599 0.0
C935 C 0.21839 0.62617 0.31023 0.0
C936 C 0.21855 0.64116 0.30072 0.0
C937 C 0.2524 0.6867 0.30977 0.0
N938 N 0.2396 0.67956 0.30035 0.0
C939 C 0.15349 0.63563 0.33303 0.0
C940 C 0.12915 0.69416 0.31884 0.0
C941 C 0.10486 0.65615 0.32011 0.0
C942 C 0.11562 0.62837 0.32779 0.0
C943 C 0.16704 0.70011 0.32424 0.0
N944 N 0.18098 0.66867 0.33057 0.0
H945 H 0.16383 0.60975 0.33777 0.0
H946 H 0.18817 0.72624 0.32207 0.0
H947 H 0.2021 0.5973 0.31279 0.0
H948 H 0.26889 0.71573 0.31215 0.0
O949 O 0.23098 0.59055 0.33026 0.0
O950 O 0.29663 0.61653 0.32963 0.0
O951 O 0.2606 0.71788 0.33057 0.0
C952 C 0.27161 0.58213 0.32975 0.0
H953 H 0.30567 0.66296 0.36456 0.0
H954 H 0.20345 0.62494 0.29459 0.0
H955 H 0.1206 0.71771 0.31327 0.0
H956 H 0.09732 0.59904 0.32916 0.0
Co957 Co 0.12532 0.49499 0.07916 0.0
C958 C 0.13804 0.47353 0.10116 0.0
C959 C 0.11339 0.53702 0.09802 0.0
C960 C 0.11738 0.53286 0.10801 0.0
N961 N 0.12573 0.49985 0.09359 0.0
N962 N 0.13289 0.49297 0.11006 0.0
H963 H 0.1501 0.44093 0.10038 0.0
H964 H 0.10224 0.56564 0.09418 0.0
C965 C 0.03056 0.50241 0.08471 0.0
O966 O 0.04101 0.47517 0.09172 0.0
N967 N 0.12428 0.49269 0.06471 0.0
C968 C 0.15164 0.46975 0.05896 0.0
C969 C 0.13678 0.47072 0.04943 0.0
C970 C 0.09292 0.50727 0.05846 0.0
N971 N 0.09962 0.49416 0.04904 0.0
C972 C 0.13739 0.40574 0.08158 0.0
C973 C 0.07776 0.38578 0.06728 0.0
C974 C 0.11482 0.35956 0.06837 0.0
C975 C 0.14313 0.36825 0.07609 0.0
C976 C 0.07369 0.42349 0.07285 0.0
N977 N 0.10587 0.43524 0.0792 0.0
H978 H 0.16356 0.4141 0.08641 0.0
H979 H 0.04856 0.44606 0.07075 0.0
H980 H 0.17939 0.45154 0.06157 0.0
H981 H 0.06504 0.52607 0.06079 0.0
O982 O 0.18676 0.4805 0.0793 0.0
O983 O 0.16436 0.54746 0.07853 0.0
O984 O 0.06106 0.51699 0.07904 0.0
C985 C 0.19745 0.52051 0.07894 0.0
H986 H 0.11025 0.55786 0.11335 0.0
H987 H 0.15136 0.45352 0.04334 0.0
H988 H 0.0536 0.37894 0.06174 0.0
H989 H 0.1718 0.34862 0.07737 0.0
Co990 Co 0.28754 0.37125 0.82764 0.0
C991 C 0.3049 0.38689 0.84922 0.0
C992 C 0.24528 0.35305 0.84645 0.0
C993 C 0.25016 0.35769 0.85642 0.0
N994 N 0.27967 0.37083 0.84189 0.0
N995 N 0.28761 0.37891 0.85823 0.0
H996 H 0.33543 0.40337 0.848 0.0
H997 H 0.21827 0.33771 0.84278 0.0
C998 C 0.27335 0.27692 0.82199 0.0
O999 O 0.30689 0.28301 0.8162 0.0
N1000 N 0.29259 0.37265 0.81307 0.0
C1001 C 0.31863 0.39825 0.80762 0.0
C1002 C 0.31574 0.38638 0.7979 0.0
C1003 C 0.27081 0.34878 0.80623 0.0
N1004 N 0.28628 0.35427 0.79697 0.0
C1005 C 0.37634 0.35015 0.8233 0.0
C1006 C 0.37251 0.2708 0.83253 0.0
C1007 C 0.39868 0.27552 0.82417 0.0
C1008 C 0.40429 0.31726 0.82028 0.0
C1009 C 0.34424 0.30438 0.83503 0.0
N1010 N 0.34222 0.34048 0.82924 0.0
H1011 H 0.37918 0.38166 0.82002 0.0
H1012 H 0.31929 0.29792 0.84041 0.0
H1013 H 0.33928 0.42359 0.81046 0.0
H1014 H 0.24467 0.3269 0.80802 0.0
O1015 O 0.3109 0.42948 0.82857 0.0
O1016 O 0.24144 0.41682 0.8266 0.0
O1017 O 0.25739 0.30997 0.82679 0.0
C1018 C 0.2724 0.44563 0.82767 0.0
H1019 H 0.22732 0.34683 0.86193 0.0
H1020 H 0.33526 0.39978 0.79205 0.0
H1021 H 0.36966 0.23992 0.83625 0.0
H1022 H 0.4262 0.32362 0.81424 0.0
Co1023 Co 0.39261 0.52466 0.57847 0.0
C1024 C 0.38095 0.54954 0.60027 0.0
C1025 C 0.40416 0.48508 0.59756 0.0
C1026 C 0.40007 0.49069 0.60751 0.0
N1027 N 0.39266 0.52187 0.5929 0.0
N1028 N 0.38548 0.53123 0.60929 0.0
H1029 H 0.3697 0.58229 0.59923 0.0
H1030 H 0.4146 0.45568 0.59391 0.0
C1031 C 0.48728 0.51828 0.58402 0.0
O1032 O 0.47669 0.54668 0.5908 0.0
N1033 N 0.39305 0.5251 0.56401 0.0
C1034 C 0.364 0.54558 0.55825 0.0
C1035 C 0.37851 0.54477 0.54869 0.0
C1036 C 0.42506 0.51201 0.55773 0.0
N1037 N 0.41725 0.524 0.54828 0.0
C1038 C 0.37982 0.61427 0.58022 0.0
C1039 C 0.44076 0.63324 0.56609 0.0
C1040 C 0.40403 0.66003 0.56706 0.0
C1041 C 0.37488 0.65165 0.57467 0.0
C1042 C 0.44402 0.59564 0.5717 0.0
N1043 N 0.4115 0.58456 0.57804 0.0
H1044 H 0.35341 0.60639 0.58505 0.0
H1045 H 0.46919 0.57283 0.56974 0.0
H1046 H 0.33499 0.56186 0.56083 0.0
H1047 H 0.4546 0.49609 0.56008 0.0
O1048 O 0.33107 0.53854 0.57869 0.0
O1049 O 0.35424 0.47171 0.57834 0.0
O1050 O 0.45699 0.503 0.57841 0.0
C1051 C 0.3209 0.49836 0.57869 0.0
H1052 H 0.4063 0.46615 0.613 0.0
H1053 H 0.36181 0.55928 0.54254 0.0
H1054 H 0.46554 0.63975 0.56065 0.0
H1055 H 0.34642 0.67174 0.57585 0.0
H1056 H 0.37299 0.30465 0.31444 0.0
H1057 H 0.48607 0.22438 0.3094 0.0
H1058 H 0.40338 0.36082 0.30398 0.0
H1059 H 0.51675 0.27985 0.29912 0.0
H1060 H 0.52529 0.41476 0.32018 0.0
H1061 H 0.45964 0.40272 0.31125 0.0
H1062 H 0.53177 0.34144 0.28797 0.0
H1063 H 0.59929 0.35616 0.29664 0.0
C1064 C 0.40427 0.29896 0.31103 0.0
C1065 C 0.42856 0.26144 0.31318 0.0
C1066 C 0.42112 0.33063 0.30483 0.0
C1067 C 0.46331 0.326 0.30102 0.0
C1068 C 0.48448 0.28548 0.30203 0.0
C1069 C 0.46743 0.25372 0.30814 0.0
C1070 C 0.52796 0.40052 0.31295 0.0
C1071 C 0.56706 0.38225 0.30956 0.0
C1072 C 0.48991 0.39404 0.30768 0.0
C1073 C 0.49069 0.36512 0.2997 0.0
C1074 C 0.53035 0.3601 0.2947 0.0
C1075 C 0.56891 0.36708 0.29983 0.0
H1076 H 0.04912 0.39465 0.56648 0.0
H1077 H 0.97148 0.27986 0.562 0.0
H1078 H 0.10604 0.36443 0.55609 0.0
H1079 H 0.02745 0.24982 0.55167 0.0
H1080 H 0.16371 0.23867 0.57116 0.0
H1081 H 0.1486 0.30636 0.56334 0.0
H1082 H 0.08777 0.23988 0.53927 0.0
H1083 H 0.10573 0.17046 0.54677 0.0
C1084 C 0.0441 0.36307 0.56321 0.0
C1085 C 1.00695 0.33845 0.56545 0.0
C1086 C 0.07616 0.34639 0.55703 0.0
C1087 C 0.07208 0.30432 0.55321 0.0
C1088 C 0.03228 0.2823 0.55448 0.0
C1089 C 1.00028 0.29903 0.56061 0.0
C1090 C 0.14912 0.23773 0.56396 0.0
C1091 C 0.13188 0.1993 0.56004 0.0
C1092 C 0.1409 0.27705 0.55933 0.0
C1093 C 0.11161 0.27789 0.55144 0.0
C1094 C 0.10715 0.23976 0.54589 0.0
C1095 C 0.11598 0.20001 0.55038 0.0
H1096 H 0.94415 0.63854 0.80208 0.0
H1097 H 1.00278 0.59742 0.82929 0.0
H1098 H 0.01617 0.64483 0.79481 0.0
H1099 H 0.07374 0.60271 0.82189 0.0
H1100 H 0.05062 0.77549 0.81379 0.0
H1101 H 0.02185 0.71335 0.80551 0.0
H1102 H 0.13577 0.63837 0.81341 0.0
H1103 H 0.16564 0.70213 0.82146 0.0
C1104 C 0.97227 0.6292 0.80637 0.0
C1105 C 0.96857 0.62162 0.8165 0.0
C1106 C 0.01346 0.63135 0.80211 0.0
C1107 C 0.04992 0.63028 0.80829 0.0
C1108 C 0.04572 0.6081 0.81724 0.0
C1109 C 1.00484 0.60581 0.8216 0.0
C1110 C 0.07026 0.7463 0.81354 0.0
C1111 C 0.1095 0.7433 0.81866 0.0
C1112 C 0.05412 0.71045 0.8086 0.0
C1113 C 0.07626 0.67026 0.80892 0.0
C1114 C 0.11784 0.66866 0.8131 0.0
C1115 C 0.13424 0.70485 0.81796 0.0
H1116 H 0.36592 0.77759 0.0716 0.0
H1117 H 0.41985 0.85412 0.04801 0.0
H1118 H 0.3742 0.71345 0.06191 0.0
H1119 H 0.43084 0.78801 0.03853 0.0
H1120 H 0.46963 0.62337 0.06285 0.0
H1121 H 0.41224 0.65725 0.05322 0.0
H1122 H 0.49493 0.76893 0.04875 0.0
H1123 H 0.55117 0.73535 0.05835 0.0
C1124 C 0.37831 0.7812 0.06423 0.0
C1125 C 0.39645 0.82036 0.06095 0.0
C1126 C 0.38256 0.74405 0.05851 0.0
C1127 C 0.40925 0.74549 0.05014 0.0
C1128 C 0.41392 0.78585 0.04548 0.0
C1129 C 0.40913 0.82354 0.05106 0.0
C1130 C 0.4754 0.65507 0.05971 0.0
C1131 C 0.51362 0.67811 0.06184 0.0
C1132 C 0.44303 0.67388 0.05396 0.0
C1133 C 0.4479 0.71662 0.05057 0.0
C1134 C 0.48912 0.73636 0.05139 0.0
C1135 C 0.52141 0.71752 0.0571 0.0
H1136 H 0.53388 0.72632 0.22108 0.0
H1137 H 0.65025 0.80208 0.21678 0.0
H1138 H 0.50556 0.78135 0.23189 0.0
H1139 H 0.62172 0.858 0.22765 0.0
H1140 H 0.43018 0.8594 0.23953 0.0
H1141 H 0.50126 0.83768 0.24562 0.0
H1142 H 0.56222 0.90309 0.22141 0.0
H1143 H 0.49273 0.92184 0.21488 0.0
C1144 C 0.55374 0.75449 0.22259 0.0
C1145 C 0.59333 0.76075 0.21775 0.0
C1146 C 0.53802 0.78585 0.229 0.0
C1147 C 0.56129 0.82461 0.2306 0.0
C1148 C 0.60298 0.82871 0.22653 0.0
C1149 C 0.61867 0.79726 0.22009 0.0
C1150 C 0.45887 0.86987 0.23559 0.0
C1151 C 0.45569 0.88816 0.22617 0.0
C1152 C 0.49969 0.85883 0.2393 0.0
C1153 C 0.53625 0.86397 0.23324 0.0
C1154 C 0.53388 0.89517 0.22577 0.0
C1155 C 0.49343 0.90552 0.22189 0.0
H1156 H 0.66745 0.27374 0.46367 0.0
H1157 H 0.6101 0.34574 0.48766 0.0
H1158 H 0.657 0.20761 0.47252 0.0
H1159 H 0.59706 0.27774 0.49624 0.0
H1160 H 0.55839 0.1201 0.46973 0.0
H1161 H 0.61534 0.1506 0.47997 0.0
H1162 H 0.53491 0.26422 0.48485 0.0
H1163 H 0.47906 0.23394 0.47465 0.0
C1164 C 0.65383 0.27587 0.47097 0.0
C1165 C 0.63537 0.31451 0.47454 0.0
C1166 C 0.64834 0.23757 0.4762 0.0
C1167 C 0.62001 0.23762 0.4843 0.0
C1168 C 0.61517 0.27688 0.48943 0.0
C1169 C 0.62112 0.31571 0.48435 0.0
C1170 C 0.55302 0.15153 0.47307 0.0
C1171 C 0.51546 0.17594 0.47095 0.0
C1172 C 0.58512 0.16838 0.47916 0.0
C1173 C 0.58071 0.21051 0.48297 0.0
C1174 C 0.54027 0.23191 0.48196 0.0
C1175 C 0.50826 0.21502 0.47591 0.0
H1176 H 0.15772 0.30073 0.71811 0.0
H1177 H 0.04489 0.22199 0.72415 0.0
H1178 H 0.12663 0.35959 0.72784 0.0
H1179 H 0.0145 0.27941 0.73393 0.0
H1180 H 0.99661 0.41025 0.71309 0.0
H1181 H 0.06606 0.39906 0.72056 0.0
H1182 H 1.00479 0.3417 0.74577 0.0
H1183 H 0.9337 0.35498 0.73852 0.0
C1184 C 0.1264 0.29592 0.72158 0.0
C1185 C 0.10249 0.25773 0.71997 0.0
C1186 C 0.10931 0.32912 0.72738 0.0
C1187 C 0.06772 0.32488 0.73152 0.0
C1188 C 0.0466 0.28438 0.73088 0.0
C1189 C 0.06356 0.25144 0.72507 0.0
C1190 C 0.99725 0.39721 0.72044 0.0
C1191 C 0.95994 0.37951 0.72482 0.0
C1192 C 0.03751 0.39134 0.72487 0.0
C1193 C 0.0404 0.36395 0.73307 0.0
C1194 C 1.00311 0.35952 0.73894 0.0
C1195 C 0.96244 0.36568 0.73463 0.0
H1196 H 0.04119 0.7885 0.96988 0.0
H1197 H 0.9729 0.90845 0.96393 0.0
H1198 H 0.97963 0.76277 0.97907 0.0
H1199 H 0.90987 0.88179 0.97292 0.0
H1200 H 0.89628 0.69484 0.98738 0.0
H1201 H 0.91868 0.76717 0.99239 0.0
H1202 H 0.86693 0.81972 0.9656 0.0
H1203 H 0.84617 0.74833 0.96037 0.0
C1204 C 0.01323 0.80967 0.97067 0.0
C1205 C 0.01135 0.84971 0.96588 0.0
C1206 C 0.97803 0.79537 0.97614 0.0
C1207 C 0.93972 0.82049 0.9768 0.0
C1208 C 0.939 0.86197 0.9726 0.0
C1209 C 0.97458 0.87651 0.9672 0.0
C1210 C 0.88829 0.72216 0.98272 0.0
C1211 C 0.87322 0.7157 0.97311 0.0
C1212 C 0.89987 0.76377 0.98574 0.0
C1213 C 0.89869 0.79762 0.97886 0.0
C1214 C 0.87105 0.79329 0.97075 0.0
C1215 C 0.85968 0.75188 0.96764 0.0
H1216 H 0.36691 0.8038 0.71673 0.0
H1217 H 0.48331 0.72926 0.72244 0.0
H1218 H 0.39511 0.86325 0.72658 0.0
H1219 H 0.51093 0.78726 0.73236 0.0
H1220 H 0.52402 0.9164 0.7121 0.0
H1221 H 0.45461 0.90655 0.71977 0.0
H1222 H 0.51595 0.84907 0.74489 0.0
H1223 H 0.58703 0.86104 0.73751 0.0
C1224 C 0.39839 0.79998 0.72014 0.0
C1225 C 0.42386 0.76267 0.71846 0.0
C1226 C 0.41388 0.83354 0.72602 0.0
C1227 C 0.45546 0.83063 0.73019 0.0
C1228 C 0.47864 0.79116 0.72933 0.0
C1229 C 0.46325 0.75787 0.72345 0.0
C1230 C 0.52344 0.9036 0.71947 0.0
C1231 C 0.56065 0.88527 0.7238 0.0
C1232 C 0.48325 0.89852 0.72402 0.0
C1233 C 0.48047 0.87071 0.73214 0.0
C1234 C 0.51764 0.86673 0.73805 0.0
C1235 C 0.55831 0.87209 0.73365 0.0
H1236 H 0.97551 0.61801 0.47154 0.0
H1237 H 0.05571 0.72956 0.47757 0.0
H1238 H 0.91503 0.65203 0.48021 0.0
H1239 H 0.99626 0.76337 0.48618 0.0
H1240 H 0.91743 0.84884 0.48644 0.0
H1241 H 0.92982 0.78175 0.49545 0.0
H1242 H 0.88078 0.70869 0.47092 0.0
H1243 H 0.87034 0.77436 0.46183 0.0
C1244 C 0.98028 0.64966 0.47482 0.0
C1245 C 0.0192 0.67262 0.47337 0.0
C1246 C 0.94606 0.66854 0.48001 0.0
C1247 C 0.9499 0.71121 0.48352 0.0
C1248 C 0.99134 0.73081 0.48343 0.0
C1249 C 0.0255 0.71189 0.47829 0.0
C1250 C 0.90839 0.81833 0.48308 0.0
C1251 C 0.89698 0.8163 0.47311 0.0
C1252 C 0.91413 0.78 0.48836 0.0
C1253 C 0.91137 0.7402 0.48338 0.0
C1254 C 0.88689 0.73901 0.47468 0.0
C1255 C 0.88142 0.77699 0.46933 0.0
H1256 H 0.99537 0.12192 0.21219 0.0
H1257 H 0.92058 0.17093 0.23667 0.0
H1258 H 0.06128 0.13716 0.22081 0.0
H1259 H 0.98788 0.18844 0.24514 0.0
H1260 H 0.14834 0.23579 0.22043 0.0
H1261 H 0.117 0.17581 0.22959 0.0
H1262 H 1.00133 0.25312 0.23466 0.0
H1263 H 0.03268 0.31228 0.22559 0.0
C1264 C 0.99278 0.13444 0.21957 0.0
C1265 C 0.953 0.14913 0.22339 0.0
C1266 C 0.03096 0.14272 0.22466 0.0
C1267 C 0.02926 0.16912 0.23307 0.0
C1268 C 0.98978 0.17119 0.23824 0.0
C1269 C 0.95125 0.1625 0.23324 0.0
C1270 C 0.11635 0.23989 0.22362 0.0
C1271 C 0.09171 0.27761 0.22184 0.0
C1272 C 0.09896 0.20599 0.22909 0.0
C1273 C 0.05612 0.20883 0.23258 0.0
C1274 C 0.03428 0.24913 0.232 0.0
C1275 C 0.05177 0.28303 0.22659 0.0
H1276 H 0.54336 0.22376 0.97192 0.0
H1277 H 0.47165 0.10594 0.96636 0.0
H1278 H 0.48193 0.25313 0.98064 0.0
H1279 H 0.40883 0.13614 0.97492 0.0
H1280 H 0.39789 0.32683 0.98707 0.0
H1281 H 0.41892 0.25549 0.9931 0.0
H1282 H 0.36914 0.19724 0.96672 0.0
H1283 H 0.34967 0.26759 0.96053 0.0
C1284 C 0.5147 0.20376 0.97273 0.0
C1285 C 0.51179 0.16331 0.96814 0.0
C1286 C 0.47951 0.2202 0.97793 0.0
C1287 C 0.44021 0.19688 0.97848 0.0
C1288 C 0.43863 0.15474 0.97463 0.0
C1289 C 0.47414 0.1381 0.96949 0.0
C1290 C 0.39008 0.29852 0.98272 0.0
C1291 C 0.37582 0.30282 0.97298 0.0
C1292 C 0.40087 0.25754 0.98631 0.0
C1293 C 0.39973 0.22195 0.97988 0.0
C1294 C 0.37314 0.22483 0.97155 0.0
C1295 C 0.36252 0.26558 0.96789 0.0
H1296 H 0.57568 0.12891 0.80301 0.0
H1297 H 0.51589 0.0954 0.83064 0.0
H1298 H 0.50412 0.13084 0.79542 0.0
H1299 H 0.44556 0.09591 0.82287 0.0
H1300 H 0.47291 0.26645 0.81327 0.0
H1301 H 0.4992 0.20253 0.80523 0.0
H1302 H 0.38429 0.13226 0.81424 0.0
H1303 H 0.35671 0.19794 0.82198 0.0
C1304 C 0.5475 0.12039 0.80736 0.0
C1305 C 0.55051 0.11651 0.81761 0.0
C1306 C 0.5066 0.11992 0.80294 0.0
C1307 C 0.46976 0.12061 0.80903 0.0
C1308 C 0.47383 0.10078 0.81827 0.0
C1309 C 0.51431 0.10128 0.82283 0.0
C1310 C 0.45246 0.23795 0.81331 0.0
C1311 C 0.41369 0.2369 0.81867 0.0
C1312 C 0.46721 0.20098 0.80852 0.0
C1313 C 0.44427 0.16149 0.80928 0.0
C1314 C 0.40293 0.16189 0.81362 0.0
C1315 C 0.38786 0.19923 0.81832 0.0
H1316 H 0.48078 0.89304 0.56378 0.0
H1317 H 0.56044 0.77948 0.55892 0.0
H1318 H 0.42262 0.86098 0.55415 0.0
H1319 H 0.5029 0.74716 0.54946 0.0
H1320 H 0.36807 0.73955 0.57131 0.0
H1321 H 0.38387 0.80517 0.56269 0.0
H1322 H 0.43956 0.73175 0.53885 0.0
H1323 H 0.4213 0.66465 0.5473 0.0
C1324 C 0.48595 0.86135 0.56055 0.0
C1325 C 0.52391 0.83743 0.56255 0.0
C1326 C 0.4531 0.84353 0.55483 0.0
C1327 C 0.45715 0.80083 0.55135 0.0
C1328 C 0.49792 0.77989 0.55213 0.0
C1329 C 0.53085 0.79791 0.55776 0.0
C1330 C 0.38167 0.73683 0.56402 0.0
C1331 C 0.39729 0.69714 0.56037 0.0
C1332 C 0.39034 0.77488 0.55893 0.0
C1333 C 0.41794 0.77322 0.5507 0.0
C1334 C 0.42129 0.73367 0.54563 0.0
C1335 C 0.41213 0.69527 0.55062 0.0
H1336 H 0.10111 0.66594 0.30015 0.0
H1337 H 0.02653 0.61979 0.32486 0.0
H1338 H 0.03397 0.67713 0.29104 0.0
H1339 H 0.96066 0.62955 0.31571 0.0
H1340 H 0.86953 0.72433 0.31466 0.0
H1341 H 0.9039 0.66324 0.30631 0.0
H1342 H 0.01549 0.74393 0.30006 0.0
H1343 H 0.9815 0.80386 0.30841 0.0
C1344 C 0.07053 0.65685 0.30351 0.0
C1345 C 0.06838 0.646 0.3135 0.0
C1346 C 0.03219 0.66193 0.29819 0.0
C1347 C 0.99225 0.65942 0.30316 0.0
C1348 C 0.99106 0.63552 0.31195 0.0
C1349 C 0.02907 0.63048 0.31733 0.0
C1350 C 0.90134 0.72882 0.3114 0.0
C1351 C 0.9243 0.76779 0.3127 0.0
C1352 C 0.92041 0.69423 0.30639 0.0
C1353 C 0.96319 0.69785 0.30289 0.0
C1354 C 0.98283 0.7392 0.30281 0.0
C1355 C 0.96377 0.77368 0.3078 0.0
H1356 H 0.052 0.1229 0.06294 0.0
H1357 H 0.96631 0.2319 0.05805 0.0
H1358 H 0.10919 0.15905 0.05371 0.0
H1359 H 0.02269 0.26806 0.04894 0.0
H1360 H 0.15255 0.28074 0.07242 0.0
H1361 H 0.14201 0.21573 0.06317 0.0
H1362 H 0.08711 0.28974 0.03939 0.0
H1363 H 0.10012 0.3564 0.04851 0.0
C1364 C 0.04531 0.15443 0.05978 0.0
C1365 C 1.00595 0.17611 0.06172 0.0
C1366 C 0.07762 0.17454 0.05427 0.0
C1367 C 0.0715 0.21732 0.051 0.0
C1368 C 0.02937 0.23552 0.05153 0.0
C1369 C 0.99702 0.21527 0.05696 0.0
C1370 C 0.14014 0.28383 0.06504 0.0
C1371 C 0.12333 0.32324 0.06154 0.0
C1372 C 0.13457 0.24618 0.05958 0.0
C1373 C 0.1088 0.2476 0.05108 0.0
C1374 C 0.10403 0.28774 0.04633 0.0
C1375 C 0.11011 0.32577 0.05169 0.0
H1376 H 0.27207 0.15063 0.27858 0.0
H1377 H 0.25759 0.25866 0.29837 0.0
H1378 H 0.26357 0.1994 0.26466 0.0
H1379 H 0.2509 0.30784 0.28455 0.0
H1380 H 0.20303 0.38395 0.25827 0.0
H1381 H 0.20987 0.33489 0.27192 0.0
H1382 H 0.29439 0.25238 0.25476 0.0
H1383 H 0.28606 0.30071 0.24085 0.0
C1384 C 0.26722 0.18485 0.27999 0.0
C1385 C 0.26554 0.20038 0.28971 0.0
C1386 C 0.26268 0.21316 0.27195 0.0
C1387 C 0.25676 0.25825 0.27329 0.0
C1388 C 0.2546 0.27356 0.28304 0.0
C1389 C 0.25858 0.24517 0.29107 0.0
C1390 C 0.22332 0.35564 0.25728 0.0
C1391 C 0.24389 0.34718 0.24821 0.0
C1392 C 0.2275 0.32717 0.26528 0.0
C1393 C 0.25276 0.28901 0.26464 0.0
C1394 C 0.27394 0.28076 0.25563 0.0
C1395 C 0.2695 0.30913 0.24758 0.0
H1396 H 0.91853 0.94483 0.503 0.0
H1397 H 0.99463 0.04318 0.4885 0.0
H1398 H 0.96226 0.95278 0.51763 0.0
H1399 H 0.03873 0.05114 0.50327 0.0
H1400 H 0.13663 0.02557 0.52803 0.0
H1401 H 0.09251 0.01823 0.51339 0.0
H1402 H 0.97898 0.99731 0.53136 0.0
H1403 H 0.02338 1.00471 0.54609 0.0
C1404 C 0.94421 0.96865 0.50289 0.0
C1405 C 0.95225 0.99361 0.4944 0.0
C1406 C 0.96957 0.97324 0.51141 0.0
C1407 C 1.00432 1.00283 0.51182 0.0
C1408 C 0.01273 0.02757 0.50331 0.0
C1409 C 0.98722 0.02305 0.49476 0.0
C1410 C 0.10222 0.01976 0.52895 0.0
C1411 C 0.08399 0.01604 0.53842 0.0
C1412 C 0.07666 0.01561 0.52045 0.0
C1413 C 0.03169 1.00737 0.52102 0.0
C1414 C 0.01345 1.00312 0.53049 0.0
C1415 C 0.03908 1.00737 0.53902 0.0
H1416 H 0.33424 0.66074 0.75512 0.0
H1417 H 0.22305 0.72015 0.74117 0.0
H1418 H 0.32524 0.70818 0.76908 0.0
H1419 H 0.21383 0.76769 0.75532 0.0
H1420 H 0.23348 0.87565 0.77817 0.0
H1421 H 0.24249 0.82824 0.764 0.0
H1422 H 0.28363 0.72431 0.78307 0.0
H1423 H 0.27523 0.77186 0.79717 0.0
C1424 C 0.30728 0.68328 0.75502 0.0
C1425 C 0.27922 0.6857 0.74685 0.0
C1426 C 0.30212 0.71087 0.76314 0.0
C1427 C 0.26869 0.74217 0.76349 0.0
C1428 C 0.24042 0.74461 0.75536 0.0
C1429 C 0.2456 0.71694 0.7472 0.0
C1430 C 0.24452 0.84273 0.77937 0.0
C1431 C 0.25364 0.82802 0.78894 0.0
C1432 C 0.24948 0.81525 0.77119 0.0
C1433 C 0.26367 0.77194 0.77225 0.0
C1434 C 0.27329 0.75744 0.78182 0.0
C1435 C 0.26847 0.78495 0.78999 0.0
H1436 H 0.40412 1.00307 0.03091 0.0
H1437 H 0.51635 0.9928 0.04961 0.0
H1438 H 0.45116 1.00972 1.01664 0.0
H1439 H 0.56382 0.99792 0.03533 0.0
H1440 H 0.64068 0.04746 1.00901 0.0
H1441 H 0.59438 0.03991 0.02324 0.0
H1442 H 0.49714 0.97723 1.00543 0.0
H1443 H 0.54256 0.98734 0.99101 0.0
C1444 C 0.43894 1.00188 0.03199 0.0
C1445 C 0.45615 0.99752 0.0415 0.0
C1446 C 0.46622 1.00541 0.02373 0.0
C1447 C 0.51194 1.0042 0.02462 0.0
C1448 C 0.52908 0.99984 0.03419 0.0
C1449 C 0.50172 0.99682 0.04247 0.0
C1450 C 0.60941 0.03223 1.00802 0.0
C1451 C 0.59585 0.01841 0.99865 0.0
C1452 C 0.58269 0.02736 1.01633 0.0
C1453 C 0.54129 1.00803 1.01569 0.0
C1454 C 0.52817 0.9931 1.00635 0.0
C1455 C 0.5548 0.99832 0.998 0.0
H1456 H 0.25512 0.78316 0.24047 0.0
H1457 H 0.27887 0.89411 0.25899 0.0
H1458 H 0.24738 0.73767 0.255 0.0
H1459 H 0.2713 0.84879 0.27344 0.0
H1460 H 0.29602 0.74739 0.29765 0.0
H1461 H 0.30429 0.79282 0.2831 0.0
H1462 H 0.2021 0.72152 0.26876 0.0
H1463 H 0.19372 0.67653 0.28317 0.0
C1464 C 0.25836 0.79814 0.2476 0.0
C1465 C 0.26789 0.84273 0.2484 0.0
C1466 C 0.25392 0.77187 0.25601 0.0
C1467 C 0.25889 0.78913 0.26554 0.0
C1468 C 0.26806 0.83375 0.26631 0.0
C1469 C 0.27236 0.85999 0.25793 0.0
C1470 C 0.2751 0.74141 0.29144 0.0
C1471 C 0.24444 0.70751 0.29174 0.0
C1472 C 0.27982 0.76767 0.28303 0.0
C1473 C 0.25409 0.76104 0.27459 0.0
C1474 C 0.22329 0.72739 0.27494 0.0
C1475 C 0.21847 0.70131 0.28332 0.0
H1476 H 0.40849 0.06019 0.50634 0.0
H1477 H 0.49614 0.98259 0.48875 0.0
H1478 H 0.45632 0.05275 0.52018 0.0
H1479 H 0.54318 0.9733 0.50287 0.0
H1480 H 0.64168 0.99504 0.52749 0.0
H1481 H 0.59424 1.0038 0.51332 0.0
H1482 H 0.48294 0.01068 0.53262 0.0
H1483 H 0.5307 1.00371 0.54669 0.0
C1484 C 0.43756 0.04098 0.50534 0.0
C1485 C 0.44763 0.02215 0.49617 0.0
C1486 C 0.46529 0.03637 0.51345 0.0
C1487 C 0.50424 0.0123 0.51284 0.0
C1488 C 0.5141 0.99279 0.50373 0.0
C1489 C 0.48648 0.99773 0.49556 0.0
C1490 C 0.6071 0.99871 0.52871 0.0
C1491 C 0.59033 0.99887 0.53833 0.0
C1492 C 0.57958 1.00338 0.52053 0.0
C1493 C 0.53412 1.00786 0.52164 0.0
C1494 C 0.51754 1.00825 0.5313 0.0
C1495 C 0.54512 1.00416 0.53947 0.0
H1496 H 0.31299 0.36937 0.77808 0.0
H1497 H 0.24168 0.27728 0.79566 0.0
H1498 H 0.30632 0.32231 0.76402 0.0
H1499 H 0.23259 0.23132 0.78136 0.0
H1500 H 0.2556 0.13515 0.75643 0.0
H1501 H 0.26379 0.18227 0.77066 0.0
H1502 H 0.26535 0.29411 0.75158 0.0
H1503 H 0.25889 0.24656 0.73741 0.0
C1504 C 0.29545 0.33935 0.77902 0.0
C1505 C 0.27819 0.32774 0.78824 0.0
C1506 C 0.29115 0.31217 0.77079 0.0
C1507 C 0.26893 0.27228 0.77135 0.0
C1508 C 0.25074 0.26108 0.78052 0.0
C1509 C 0.25542 0.28811 0.78879 0.0
C1510 C 0.25799 0.16979 0.75527 0.0
C1511 C 0.25691 0.18675 0.74569 0.0
C1512 C 0.26231 0.19715 0.76349 0.0
C1513 C 0.26508 0.24268 0.76247 0.0
C1514 C 0.26423 0.25948 0.75284 0.0
C1515 C 0.2605 0.23204 0.74462 0.0
H1516 H 1.00762 1.00739 0.04698 0.0
H1517 H 0.89715 1.00975 0.02761 0.0
H1518 H 0.05617 1.00083 0.03297 0.0
H1519 H 0.94545 1.00167 1.01354 0.0
H1520 H 0.04301 0.02516 0.98899 0.0
H1521 H 0.9956 0.03396 1.0031 0.0
H1522 H 0.08488 0.95862 0.02062 0.0
H1523 H 0.13318 0.95188 1.00675 0.0
C1524 C 0.9935 1.00565 0.03974 0.0
C1525 C 0.94814 1.00902 0.03853 0.0
C1526 C 0.02155 1.00183 0.03161 0.0
C1527 C 1.00535 1.00074 0.02193 0.0
C1528 C 0.9598 1.0033 0.02076 0.0
C1529 C 0.9318 1.0076 0.02889 0.0
C1530 C 0.0531 0.01087 0.99584 0.0
C1531 C 0.09262 0.98762 0.9965 0.0
C1532 C 0.02528 0.01547 1.00401 0.0
C1533 C 0.03565 0.99682 1.01317 0.0
C1534 C 0.07542 0.97413 1.01384 0.0
C1535 C 0.10333 0.96982 1.00572 0.0
H1536 H 0.84064 0.67208 0.78301 0.0
H1537 H 0.70969 0.69765 0.7929 0.0
H1538 H 0.8277 0.71422 0.7684 0.0
H1539 H 0.69637 0.73989 0.77802 0.0
H1540 H 0.70068 0.85006 0.75537 0.0
H1541 H 0.71073 0.80495 0.76968 0.0
H1542 H 0.79479 0.71995 0.75305 0.0
H1543 H 0.78637 0.76645 0.73876 0.0
C1544 C 0.80859 0.68586 0.78204 0.0
C1545 C 0.77613 0.68052 0.78928 0.0
C1546 C 0.80112 0.71038 0.77353 0.0
C1547 C 0.76082 0.73079 0.77181 0.0
C1548 C 0.72813 0.72539 0.77902 0.0
C1549 C 0.73569 0.70083 0.7876 0.0
C1550 C 0.72175 0.82213 0.75467 0.0
C1551 C 0.74305 0.81285 0.74571 0.0
C1552 C 0.72704 0.79556 0.76297 0.0
C1553 C 0.75373 0.75833 0.76272 0.0
C1554 C 0.77449 0.74855 0.75372 0.0
C1555 C 0.7693 0.77525 0.7454 0.0
H1556 H 0.79629 0.29142 0.29417 0.0
H1557 H 0.6892 0.35716 0.28007 0.0
H1558 H 0.80627 0.24662 0.27953 0.0
H1559 H 0.69929 0.31289 0.26559 0.0
H1560 H 0.75403 0.2548 0.23705 0.0
H1561 H 0.74478 0.29951 0.25168 0.0
H1562 H 0.77586 0.18923 0.26985 0.0
H1563 H 0.7849 0.14466 0.2553 0.0
C1564 C 0.7747 0.29642 0.28802 0.0
C1565 C 0.74219 0.32875 0.28845 0.0
C1566 C 0.7804 0.27052 0.27957 0.0
C1567 C 0.75385 0.276 0.27121 0.0
C1568 C 0.72116 0.30802 0.27169 0.0
C1569 C 0.71536 0.33369 0.28012 0.0
C1570 C 0.75854 0.23981 0.24414 0.0
C1571 C 0.77048 0.1957 0.24482 0.0
C1572 C 0.75324 0.26564 0.25261 0.0
C1573 C 0.75972 0.2484 0.26209 0.0
C1574 C 0.77136 0.20427 0.26276 0.0
C1575 C 0.77651 0.17846 0.25432 0.0
H1576 H 0.76795 0.36586 0.75705 0.0
H1577 H 0.77372 0.25248 0.73858 0.0
H1578 H 0.76117 0.32006 0.77144 0.0
H1579 H 0.76772 0.20615 0.75305 0.0
H1580 H 0.71407 0.13547 0.78026 0.0
H1581 H 0.72368 0.17914 0.76562 0.0
H1582 H 0.79566 0.2733 0.78243 0.0
H1583 H 0.78413 0.23048 0.79719 0.0
C1584 C 0.76818 0.33105 0.75603 0.0
C1585 C 0.77158 0.31324 0.74654 0.0
C1586 C 0.7645 0.30449 0.76437 0.0
C1587 C 0.76426 0.25885 0.76361 0.0
C1588 C 0.76723 0.24097 0.75408 0.0
C1589 C 0.77069 0.26766 0.7457 0.0
C1590 C 0.73192 0.1655 0.7809 0.0
C1591 C 0.74778 0.17921 0.7901 0.0
C1592 C 0.73788 0.19061 0.77239 0.0
C1593 C 0.76016 0.2305 0.77267 0.0
C1594 C 0.77745 0.24344 0.78181 0.0
C1595 C 0.77138 0.21834 0.79035 0.0
H1596 H 0.77057 0.77752 0.29532 0.0
H1597 H 0.76253 0.88844 0.2763 0.0
H1598 H 0.76377 0.72923 0.28131 0.0
H1599 H 0.75419 0.84047 0.26217 0.0
H1600 H 0.77611 0.74493 0.23706 0.0
H1601 H 0.78552 0.79246 0.25112 0.0
H1602 H 0.72102 0.69853 0.2695 0.0
H1603 H 0.71409 0.65019 0.25566 0.0
C1604 C 0.76621 0.79165 0.28816 0.0
C1605 C 0.76649 0.83702 0.28704 0.0
C1606 C 0.76236 0.76383 0.28002 0.0
C1607 C 0.75818 0.78029 0.2704 0.0
C1608 C 0.75807 0.82592 0.26932 0.0
C1609 C 0.76247 0.85372 0.27748 0.0
C1610 C 0.76452 0.73386 0.2441 0.0
C1611 C 0.74425 0.69302 0.24502 0.0
C1612 C 0.76936 0.76173 0.25224 0.0
C1613 C 0.75391 0.75011 0.26163 0.0
C1614 C 0.73411 0.70907 0.26254 0.0
C1615 C 0.72961 0.68112 0.25445 0.0
H1616 H 0.38794 0.5075 1.0064 0.0
H1617 H 0.49763 0.48856 0.98718 0.0
H1618 H 0.43665 0.51453 0.02032 0.0
H1619 H 0.54677 0.49399 1.00116 0.0
H1620 H 0.62831 0.54352 0.0268 0.0
H1621 H 0.58067 0.53606 1.01281 0.0
H1622 H 0.48167 0.48125 0.03149 0.0
H1623 H 0.52839 0.4913 0.04561 0.0
C1624 C 0.42256 0.50445 1.00514 0.0
C1625 C 0.43856 0.49745 0.99559 0.0
C1626 C 0.45079 0.50819 1.0132 0.0
C1627 C 0.49629 0.50454 1.01207 0.0
C1628 C 0.51227 0.49775 1.00246 0.0
C1629 C 0.48395 0.49453 0.99437 0.0
C1630 C 0.5964 0.53002 0.02802 0.0
C1631 C 0.58277 0.51842 0.03756 0.0
C1632 C 0.56887 0.52523 0.01986 0.0
C1633 C 0.52657 0.50821 0.02083 0.0
C1634 C 0.51339 0.4954 0.03032 0.0
C1635 C 0.54079 0.50057 0.03851 0.0
H1636 H 0.02773 0.51958 0.48972 0.0
H1637 H 0.13789 0.50754 0.50887 0.0
H1638 H 0.97862 0.51327 0.50361 0.0
H1639 H 0.08906 0.49958 0.52291 0.0
H1640 H 0.99256 0.52255 0.54784 0.0
H1641 H 0.0411 0.53159 0.53393 0.0
H1642 H 0.94657 0.47023 0.51517 0.0
H1643 H 0.89723 0.46374 0.52886 0.0
C1644 C 0.04144 0.51439 0.49689 0.0
C1645 C 0.08682 0.51336 0.49808 0.0
C1646 C 0.01319 0.51082 0.50496 0.0
C1647 C 0.02922 0.50559 0.51458 0.0
C1648 C 0.07488 0.50425 0.51574 0.0
C1649 C 0.10315 0.50841 0.50764 0.0
C1650 C 0.98156 0.51161 0.54075 0.0
C1651 C 0.94026 0.49233 0.53967 0.0
C1652 C 1.01002 0.51622 0.5327 0.0
C1653 C 0.9985 0.50152 0.52325 0.0
C1654 C 0.95702 0.48273 0.52218 0.0
C1655 C 0.92848 0.47849 0.53018 0.0
H1656 H 0.90225 0.57301 1.00618 0.0
H1657 H 0.97577 0.4738 0.99111 0.0
H1658 H 0.94834 0.56501 0.02044 0.0
H1659 H 0.02218 0.46555 1.00553 0.0
H1660 H 0.12324 0.48899 0.02977 0.0
H1661 H 0.07746 0.49674 1.01537 0.0
H1662 H 0.96653 0.52112 0.034 0.0
H1663 H 0.01259 0.51359 0.04844 0.0
C1664 C 0.92789 0.54897 1.00588 0.0
C1665 C 0.9345 0.52377 0.99736 0.0
C1666 C 0.9546 0.54433 1.01418 0.0
C1667 C 0.98926 0.51433 1.01434 0.0
C1668 C 0.9963 0.48941 1.00577 0.0
C1669 C 0.96947 0.49407 0.99743 0.0
C1670 C 0.08906 0.49574 0.03086 0.0
C1671 C 0.07204 0.5005 0.04042 0.0
C1672 C 0.06252 0.5001 0.02252 0.0
C1673 C 0.01778 0.50947 0.02335 0.0
C1674 C 1.00078 0.51455 0.03292 0.0
C1675 C 0.02738 0.5102 0.04129 0.0
H1676 H 0.52048 0.50868 0.48824 0.0
H1677 H 0.63082 0.48016 0.50664 0.0
H1678 H 0.47505 0.51728 0.50282 0.0
H1679 H 0.58572 0.4888 0.52114 0.0
H1680 H 0.48446 0.4666 0.54545 0.0
H1681 H 0.52956 0.45774 0.53083 0.0
H1682 H 0.45914 0.56145 0.51668 0.0
H1683 H 0.41432 0.57022 0.53117 0.0
C1684 C 0.53532 0.50462 0.49536 0.0
C1685 C 0.57966 0.49342 0.49612 0.0
C1686 C 0.50912 0.50956 0.5038 0.0
C1687 C 0.52625 0.50354 0.51331 0.0
C1688 C 0.5707 0.49285 0.51403 0.0
C1689 C 0.59682 0.48795 0.50563 0.0
C1690 C 0.47862 0.4877 0.53926 0.0
C1691 C 0.44501 0.51889 0.53963 0.0
C1692 C 0.5047 0.48267 0.53081 0.0
C1693 C 0.49825 0.50867 0.5224 0.0
C1694 C 0.46488 0.54003 0.52283 0.0
C1695 C 0.43891 0.54509 0.53125 0.0
H1696 H 0.32569 0.01685 0.32336 0.0
H1697 H 0.19577 0.03289 0.33468 0.0
H1698 H 0.31928 0.93869 0.32457 0.0
H1699 H 0.18891 0.95337 0.33581 0.0
H1700 H 0.20984 0.81349 0.34728 0.0
H1701 H 0.21278 0.89135 0.34486 0.0
H1702 H 0.29007 0.87213 0.31882 0.0
H1703 H 0.28727 0.79317 0.32131 0.0
C1704 C 0.29529 1.00376 0.32605 0.0
C1705 C 0.2613 0.03206 0.32895 0.0
C1706 C 0.29154 0.9583 0.32667 0.0
C1707 C 0.25365 0.93852 0.33032 0.0
C1708 C 0.21904 0.96674 0.33306 0.0
C1709 C 0.22269 0.01267 0.33234 0.0
C1710 C 0.22771 0.82544 0.341 0.0
C1711 C 0.24857 0.79602 0.33454 0.0
C1712 C 0.22897 0.87073 0.33956 0.0
C1713 C 0.25136 0.88921 0.33159 0.0
C1714 C 0.27266 0.85988 0.32512 0.0
C1715 C 0.27117 0.8142 0.32654 0.0
H1716 H 0.26423 0.03313 0.58988 0.0
H1717 H 0.25621 0.93845 0.56677 0.0
H1718 H 0.34319 0.03155 0.58899 0.0
H1719 H 0.33612 0.93595 0.56594 0.0
H1720 H 0.47325 0.9806 0.55799 0.0
H1721 H 0.3952 0.97804 0.56029 0.0
H1722 H 0.41243 0.99862 0.59131 0.0
H1723 H 0.49174 1.00149 0.58891 0.0
C1724 C 0.27943 0.01077 0.58478 0.0
C1725 C 0.2533 0.98542 0.5785 0.0
C1726 C 0.32518 0.00995 0.58426 0.0
C1727 C 0.34714 0.98408 0.57732 0.0
C1728 C 0.32099 0.95706 0.5713 0.0
C1729 C 0.27487 0.95771 0.57188 0.0
C1730 C 0.46066 0.98551 0.56532 0.0
C1731 C 0.48955 0.992 0.57323 0.0
C1732 C 0.41537 0.98318 0.56667 0.0
C1733 C 0.39641 0.98725 0.57602 0.0
C1734 C 0.42514 0.9954 0.58395 0.0
C1735 C 0.47093 0.99759 0.58258 0.0
H1736 H 0.27435 0.21394 0.80819 0.0
H1737 H 0.24796 0.2323 0.83892 0.0
H1738 H 0.2741 0.13565 0.81037 0.0
H1739 H 0.24668 0.15283 0.84112 0.0
H1740 H 0.20681 1.00527 0.83781 0.0
H1741 H 0.20779 0.08429 0.83689 0.0
H1742 H 0.3194 0.07776 0.81779 0.0
H1743 H 0.31858 0.99795 0.81881 0.0
C1744 C 0.26728 0.20127 0.81542 0.0
C1745 C 0.26054 0.23006 0.82334 0.0
C1746 C 0.26789 0.156 0.81669 0.0
C1747 C 0.26122 0.13718 0.82595 0.0
C1748 C 0.25206 0.16577 0.83385 0.0
C1749 C 0.25208 0.21154 0.83258 0.0
C1750 C 0.23211 0.02055 0.83351 0.0
C1751 C 0.2627 0.99471 0.8284 0.0
C1752 C 0.23268 0.06621 0.83301 0.0
C1753 C 0.26337 0.08814 0.82721 0.0
C1754 C 0.29481 0.06238 0.82227 0.0
C1755 C 0.29473 0.01643 0.82292 0.0
H1756 H 0.0649 0.03527 0.05891 0.0
H1757 H 0.04223 1.00839 0.08946 0.0
H1758 H 0.14256 0.03794 0.06174 0.0
H1759 H 0.12113 0.01131 0.0924 0.0
H1760 H 0.26944 0.97736 0.09165 0.0
H1761 H 0.19067 0.97913 0.09025 0.0
H1762 H 0.20106 0.07852 0.06812 0.0
H1763 H 0.28081 0.07584 0.06946 0.0
C1764 C 0.07647 0.02928 0.06627 0.0
C1765 C 0.04651 0.02103 0.07391 0.0
C1766 C 0.12154 0.03156 0.06794 0.0
C1767 C 0.13925 0.02569 0.07735 0.0
C1768 C 0.10945 0.01595 0.085 0.0
C1769 C 0.06387 0.01379 0.08332 0.0
C1770 C 0.255 1.00054 0.08664 0.0
C1771 C 0.28205 0.0269 0.08078 0.0
C1772 C 0.20934 1.00148 0.08582 0.0
C1773 C 0.18837 0.02854 0.07898 0.0
C1774 C 0.21539 0.0565 0.07338 0.0
C1775 C 0.26142 0.05572 0.07427 0.0
H1776 H 0.24037 0.23408 0.2285 0.0
H1777 H 0.25189 0.25065 0.19729 0.0
H1778 H 0.2373 0.1558 0.22648 0.0
H1779 H 0.24868 0.17139 0.19517 0.0
H1780 H 0.28248 0.02316 0.1964 0.0
H1781 H 0.28198 0.10208 0.19714 0.0
H1782 H 0.19301 0.0968 0.22159 0.0
H1783 H 0.19438 0.01701 0.22087 0.0
C1784 C 0.24327 0.22094 0.22116 0.0
C1785 C 0.24729 0.24931 0.21308 0.0
C1786 C 0.24062 0.17561 0.21998 0.0
C1787 C 0.24186 0.15617 0.21063 0.0
C1788 C 0.2477 0.18444 0.20253 0.0
C1789 C 0.25018 0.23021 0.20372 0.0
C1790 C 0.26166 0.03877 0.20176 0.0
C1791 C 0.23775 0.01316 0.20844 0.0
C1792 C 0.26153 0.08449 0.20222 0.0
C1793 C 0.23793 0.10693 0.2095 0.0
C1794 C 0.21237 0.08131 0.21595 0.0
C1795 C 0.21229 0.03525 0.21543 0.0
H1796 H 0.04219 0.03842 0.46435 0.0
H1797 H 0.06317 0.95439 0.4395 0.0
H1798 H 0.12137 0.04251 0.46675 0.0
H1799 H 0.14104 0.95846 0.44184 0.0
H1800 H 0.28232 0.94437 0.4523 0.0
H1801 H 0.20269 0.93702 0.45143 0.0
H1802 H 0.18791 0.07071 0.46024 0.0
H1803 H 0.26631 0.07771 0.46118 0.0
C1804 C 0.06338 0.02109 0.45935 0.0
C1805 C 0.04538 0.99627 0.45169 0.0
C1806 C 0.10913 0.02331 0.46072 0.0
C1807 C 0.13858 1.00049 0.45454 0.0
C1808 C 0.12027 0.97589 0.44692 0.0
C1809 C 0.07497 0.97396 0.44551 0.0
C1810 C 0.26207 0.97198 0.45415 0.0
C1811 C 0.28146 0.01165 0.45677 0.0
C1812 C 0.2161 0.968 0.45358 0.0
C1813 C 0.18789 1.00337 0.45573 0.0
C1814 C 0.20763 0.04244 0.45862 0.0
C1815 C 0.25317 0.04649 0.45908 0.0
H1816 H 0.20584 1.00654 0.69724 0.0
H1817 H 0.32153 0.01549 0.71486 0.0
H1818 H 0.20848 0.92756 0.6982 0.0
H1819 H 0.32413 0.93571 0.71591 0.0
H1820 H 0.28265 0.80006 0.72643 0.0
H1821 H 0.28157 0.87809 0.72398 0.0
H1822 H 0.24694 0.85901 0.69369 0.0
H1823 H 0.24914 0.77967 0.69613 0.0
C1824 C 0.23239 0.99161 0.70122 0.0
C1825 C 0.26357 0.01787 0.70595 0.0
C1826 C 0.23391 0.94599 0.70175 0.0
C1827 C 0.26623 0.92454 0.7072 0.0
C1828 C 0.29831 0.95074 0.71172 0.0
C1829 C 0.29722 0.99665 0.71104 0.0
C1830 C 0.27407 0.81222 0.71924 0.0
C1831 C 0.26562 0.78292 0.7115 0.0
C1832 C 0.27411 0.85737 0.71781 0.0
C1833 C 0.26504 0.87559 0.70859 0.0
C1834 C 0.25424 0.84652 0.70092 0.0
C1835 C 0.25486 0.80083 0.70233 0.0
H1836 H 0.50238 0.98678 0.94783 0.0
H1837 H 0.48182 0.02189 0.97806 0.0
H1838 H 0.4229 0.9838 0.94547 0.0
H1839 H 0.40365 0.02001 0.97569 0.0
H1840 H 0.26583 0.05979 0.96628 0.0
H1841 H 0.34568 0.06213 0.96744 0.0
H1842 H 0.35474 0.94507 0.95023 0.0
H1843 H 0.27569 0.94265 0.94915 0.0
C1844 C 0.48117 0.99264 0.95403 0.0
C1845 C 0.49903 1.00409 0.96316 0.0
C1846 C 0.43541 0.99158 0.95266 0.0
C1847 C 0.40627 1.00261 0.96034 0.0
C1848 C 0.42446 0.01232 0.96952 0.0
C1849 C 0.46968 0.01274 0.9709 0.0
C1850 C 0.28487 0.03494 0.96264 0.0
C1851 C 0.26387 1.00102 0.95764 0.0
C1852 C 0.33082 0.03596 0.96336 0.0
C1853 C 0.35726 1.00352 0.95898 0.0
C1854 C 0.33606 0.97075 0.95366 0.0
C1855 C 0.29039 0.96933 0.95309 0.0
H1856 H 0.73462 0.22173 0.71452 0.0
H1857 H 0.83728 0.21101 0.69313 0.0
H1858 H 0.73395 0.14224 0.71607 0.0
H1859 H 0.83824 0.13333 0.69496 0.0
H1860 H 0.80981 0.98734 0.69303 0.0
H1861 H 0.81255 0.06637 0.69192 0.0
H1862 H 0.76059 0.07635 0.72125 0.0
H1863 H 0.75641 0.99737 0.72204 0.0
C1864 C 0.75708 0.20276 0.71014 0.0
C1865 C 0.78562 0.22398 0.70362 0.0
C1866 C 0.75715 0.15661 0.71109 0.0
C1867 C 0.78603 0.12959 0.70562 0.0
C1868 C 0.81456 0.15134 0.6992 0.0
C1869 C 0.81418 0.19692 0.69819 0.0
C1870 C 0.80065 1.00633 0.69939 0.0
C1871 C 0.78468 0.98516 0.70779 0.0
C1872 C 0.8017 0.05237 0.69875 0.0
C1873 C 0.78671 0.07958 0.70649 0.0
C1874 C 0.77193 0.05794 0.715 0.0
C1875 C 0.77049 0.01203 0.71557 0.0
H1876 H 0.78085 0.07204 0.46716 0.0
H1877 H 0.77162 0.98589 0.44244 0.0
H1878 H 0.70105 0.07381 0.46832 0.0
H1879 H 0.6927 0.98664 0.44364 0.0
H1880 H 0.54415 0.01587 0.44477 0.0
H1881 H 0.62326 0.01937 0.4422 0.0
H1882 H 0.64228 0.0302 0.47342 0.0
H1883 H 0.56412 0.02705 0.47588 0.0
C1884 C 0.76191 0.05467 0.46176 0.0
C1885 C 0.78313 0.02962 0.45457 0.0
C1886 C 0.71584 0.05479 0.46254 0.0
C1887 C 0.68937 0.0298 0.45616 0.0
C1888 C 0.71094 1.00666 0.44868 0.0
C1889 C 0.75666 1.00639 0.44796 0.0
C1890 C 0.56533 0.01761 0.45109 0.0
C1891 C 0.54722 0.02035 0.46056 0.0
C1892 C 0.61101 0.02021 0.44963 0.0
C1893 C 0.64019 0.02592 0.45758 0.0
C1894 C 0.62174 0.02702 0.46703 0.0
C1895 C 0.57649 0.02434 0.46847 0.0
H1896 H 0.73961 0.80505 0.2253 0.0
H1897 H 0.75897 0.78773 0.19429 0.0
H1898 H 0.73714 0.88328 0.22319 0.0
H1899 H 0.75638 0.86697 0.19209 0.0
H1900 H 0.79039 0.01458 0.19363 0.0
H1901 H 0.78967 0.93576 0.19451 0.0
H1902 H 0.69415 0.94263 0.21765 0.0
H1903 H 0.69567 0.02243 0.21681 0.0
C1904 C 0.74437 0.818 0.218 0.0
C1905 C 0.75036 0.78943 0.21 0.0
C1906 C 0.74207 0.8633 0.21676 0.0
C1907 C 0.74571 0.88252 0.20744 0.0
C1908 C 0.75352 0.85407 0.19943 0.0
C1909 C 0.75563 0.80831 0.20068 0.0
C1910 C 0.76825 0.99937 0.19875 0.0
C1911 C 0.74258 0.02542 0.20504 0.0
C1912 C 0.76793 0.95371 0.19927 0.0
C1913 C 0.74229 0.93174 0.20622 0.0
C1914 C 0.71507 0.95778 0.21228 0.0
C1915 C 0.71517 1.00383 0.21169 0.0
H1916 H 0.77179 0.07463 0.96643 0.0
H1917 H 0.76895 0.94589 0.95409 0.0
H1918 H 0.85067 0.07364 0.96627 0.0
H1919 H 0.84933 0.94488 0.9539 0.0
H1920 H 0.99431 0.97955 0.94608 0.0
H1921 H 0.91448 0.98111 0.94561 0.0
H1922 H 0.91252 0.03902 0.97438 0.0
H1923 H 0.99188 0.03655 0.97484 0.0
C1924 C 0.78801 0.04572 0.96373 0.0
C1925 C 0.76344 0.01023 0.96031 0.0
C1926 C 0.83365 0.04519 0.96367 0.0
C1927 C 0.85706 1.00933 0.96004 0.0
C1928 C 0.83268 0.97338 0.95666 0.0
C1929 C 0.78649 0.97366 0.95687 0.0
C1930 C 0.9769 0.99418 0.95214 0.0
C1931 C 0.99999 1.00963 0.96034 0.0
C1932 C 0.9309 0.99415 0.95197 0.0
C1933 C 0.90642 0.00998 0.95998 0.0
C1934 C 0.92974 0.02693 0.968 0.0
C1935 C 0.97553 0.02619 0.96823 0.0
H1936 H 0.81613 0.03067 0.81725 0.0
H1937 H 0.73972 0.01761 0.84349 0.0
H1938 H 0.82106 0.95121 0.81601 0.0
H1939 H 0.74385 0.93882 0.84226 0.0
H1940 H 0.77607 0.79078 0.84011 0.0
H1941 H 0.77947 0.86975 0.84288 0.0
H1942 H 0.77803 0.89103 0.81167 0.0
H1943 H 0.77475 0.81355 0.80896 0.0
C1944 C 0.80173 0.01105 0.82296 0.0
C1945 C 0.77848 0.03126 0.83061 0.0
C1946 C 0.80365 0.96504 0.82216 0.0
C1947 C 0.78235 0.93735 0.82897 0.0
C1948 C 0.76111 0.95794 0.83687 0.0
C1949 C 0.75894 1.00366 0.83761 0.0
C1950 C 0.77584 0.8123 0.83385 0.0
C1951 C 0.77503 0.79474 0.82429 0.0
C1952 C 0.77807 0.85801 0.83542 0.0
C1953 C 0.7799 0.88796 0.82751 0.0
C1954 C 0.77802 0.87006 0.81802 0.0
C1955 C 0.77558 0.82489 0.81647 0.0
H1956 H 0.97887 0.01114 0.59725 0.0
H1957 H 0.9896 0.01221 0.5658 0.0
H1958 H 0.89995 1.00918 0.59604 0.0
H1959 H 0.90947 0.01064 0.56453 0.0
H1960 H 0.76014 0.05368 0.56764 0.0
H1961 H 0.84047 0.05678 0.56814 0.0
H1962 H 0.84099 0.96112 0.59117 0.0
H1963 H 0.76198 0.95791 0.59058 0.0
C1964 C 0.96439 0.01012 0.59003 0.0
C1965 C 0.9912 0.0109 0.58164 0.0
C1966 C 0.91874 1.00918 0.58932 0.0
C1967 C 0.89749 0.00988 0.58018 0.0
C1968 C 0.92422 0.01039 0.57172 0.0
C1969 C 0.97035 0.01053 0.57243 0.0
C1970 C 0.77745 0.03413 0.57295 0.0
C1971 C 0.75412 1.00621 0.57922 0.0
C1972 C 0.82369 0.0353 0.57313 0.0
C1973 C 0.84796 1.00913 0.5797 0.0
C1974 C 0.82416 0.98214 0.58606 0.0
C1975 C 0.77847 0.98042 0.58576 0.0
H1976 H 0.75157 0.24176 0.3157 0.0
H1977 H 0.75617 0.22798 0.34707 0.0
H1978 H 0.75251 0.16194 0.31398 0.0
H1979 H 0.75766 0.14928 0.3454 0.0
H1980 H 0.80877 0.0119 0.33872 0.0
H1981 H 0.80584 0.0907 0.33972 0.0
H1982 H 0.70581 0.09301 0.31765 0.0
H1983 H 0.70852 0.01282 0.31674 0.0
C1984 C 0.75385 0.22191 0.32222 0.0
C1985 C 0.75465 0.24184 0.33154 0.0
C1986 C 0.75365 0.17595 0.32124 0.0
C1987 C 0.75505 0.14844 0.32954 0.0
C1988 C 0.75689 0.16873 0.3388 0.0
C1989 C 0.75623 0.21424 0.33976 0.0
C1990 C 0.78546 0.02894 0.33417 0.0
C1991 C 0.75834 1.00541 0.32778 0.0
C1992 C 0.78387 0.07452 0.33474 0.0
C1993 C 0.75568 0.09905 0.32877 0.0
C1994 C 0.72824 0.07564 0.32234 0.0
C1995 C 0.72925 0.02948 0.32192 0.0
H1996 H 0.77298 0.96296 0.06663 0.0
H1997 H 0.77725 0.04157 0.09266 0.0
H1998 H 0.69284 0.96075 0.06778 0.0
H1999 H 0.69826 0.03947 0.09388 0.0
H2000 H 0.55931 0.99199 0.09928 0.0
H2001 H 0.63799 0.99294 0.09756 0.0
H2002 H 0.62477 1.00715 0.06629 0.0
H2003 H 0.54487 1.00621 0.06807 0.0
C2004 C 0.75702 0.97864 0.07276 0.0
C2005 C 0.78204 1.00128 0.07973 0.0
C2006 C 0.71084 0.97814 0.07333 0.0
C2007 C 0.68822 0.99993 0.08094 0.0
C2008 C 0.71372 0.02171 0.08797 0.0
C2009 C 0.75942 0.02272 0.08731 0.0
C2010 C 0.57292 0.99617 0.09202 0.0
C2011 C 0.54509 0.99984 0.08386 0.0
C2012 C 0.61849 0.99661 0.09102 0.0
C2013 C 0.63869 1.00004 0.08177 0.0
C2014 C 0.61093 1.0041 0.07355 0.0
C2015 C 0.56488 1.00433 0.07458 0.0
H2016 H 0.70463 0.53006 0.81593 0.0
H2017 H 0.77209 0.51936 0.84339 0.0
H2018 H 0.70019 0.45056 0.81501 0.0
H2019 H 0.76844 0.44041 0.8425 0.0
H2020 H 0.73671 0.29217 0.84047 0.0
H2021 H 0.73282 0.3714 0.84285 0.0
H2022 H 0.74467 0.38994 0.81165 0.0
H2023 H 0.74843 0.31217 0.80933 0.0
C2024 C 0.71702 0.51096 0.82197 0.0
C2025 C 0.73756 0.53185 0.82988 0.0
C2026 C 0.71545 0.4649 0.82137 0.0
C2027 C 0.73449 0.4378 0.82862 0.0
C2028 C 0.75297 0.45908 0.83676 0.0
C2029 C 0.7548 0.50487 0.83731 0.0
C2030 C 0.73921 0.31314 0.83414 0.0
C2031 C 0.74302 0.29474 0.8247 0.0
C2032 C 0.73666 0.359 0.83548 0.0
C2033 C 0.7375 0.38828 0.82743 0.0
C2034 C 0.74251 0.36953 0.81807 0.0
C2035 C 0.74524 0.32421 0.81676 0.0
H2036 H 0.75134 0.56147 0.09024 0.0
H2037 H 0.75416 0.46324 0.0678 0.0
H2038 H 0.83024 0.55936 0.09133 0.0
H2039 H 0.83446 0.46124 0.06882 0.0
H2040 H 0.98307 0.50736 0.06726 0.0
H2041 H 0.90316 0.50772 0.06544 0.0
H2042 H 0.88936 0.51266 0.09686 0.0
H2043 H 0.9681 0.51192 0.09862 0.0
C2044 C 0.76883 0.53871 0.08562 0.0
C2045 C 0.74579 0.51193 0.07907 0.0
C2046 C 0.81448 0.53759 0.08623 0.0
C2047 C 0.83959 0.51021 0.08017 0.0
C2048 C 0.81666 0.48305 0.07359 0.0
C2049 C 0.77042 0.48363 0.0731 0.0
C2050 C 0.96293 0.50955 0.07376 0.0
C2051 C 0.98254 0.51052 0.0831 0.0
C2052 C 0.91692 0.50898 0.07273 0.0
C2053 C 0.88905 0.51011 0.081 0.0
C2054 C 0.90904 0.51213 0.09027 0.0
C2055 C 0.95459 0.5119 0.0913 0.0
H2056 H 0.78335 0.73879 0.33822 0.0
H2057 H 0.75172 0.72857 0.30765 0.0
H2058 H 0.78497 0.65894 0.33944 0.0
H2059 H 0.75513 0.65033 0.30861 0.0
H2060 H 0.72392 0.5097 0.31383 0.0
H2061 H 0.72258 0.5879 0.31348 0.0
H2062 H 0.82265 0.59153 0.33561 0.0
H2063 H 0.8224 0.51133 0.33618 0.0
C2064 C 0.77517 0.71964 0.33184 0.0
C2065 C 0.76568 0.74063 0.3229 0.0
C2066 C 0.77724 0.67359 0.33245 0.0
C2067 C 0.77015 0.64697 0.32414 0.0
C2068 C 0.75989 0.6685 0.3153 0.0
C2069 C 0.75771 0.71401 0.31472 0.0
C2070 C 0.74662 0.52686 0.31848 0.0
C2071 C 0.77406 0.50348 0.32485 0.0
C2072 C 0.74583 0.5724 0.31829 0.0
C2073 C 0.77262 0.59737 0.32447 0.0
C2074 C 0.80111 0.57408 0.33075 0.0
C2075 C 0.80178 0.52783 0.33095 0.0
H2076 H 0.76614 0.55427 0.5689 0.0
H2077 H 0.76449 0.45467 0.591 0.0
H2078 H 0.68573 0.55716 0.56939 0.0
H2079 H 0.68552 0.45769 0.59158 0.0
H2080 H 0.54774 0.50764 0.59826 0.0
H2081 H 0.62667 0.50574 0.59693 0.0
H2082 H 0.61681 0.51104 0.56545 0.0
H2083 H 0.53669 0.51249 0.56683 0.0
C2084 C 0.74887 0.5337 0.574 0.0
C2085 C 0.77227 0.50472 0.58003 0.0
C2086 C 0.70259 0.53482 0.57419 0.0
C2087 C 0.67843 0.50758 0.58053 0.0
C2088 C 0.70229 0.4795 0.58665 0.0
C2089 C 0.74797 0.47785 0.58633 0.0
C2090 C 0.56215 0.50744 0.59101 0.0
C2091 C 0.53527 0.50924 0.58267 0.0
C2092 C 0.60779 0.50657 0.59024 0.0
C2093 C 0.62893 0.50837 0.58108 0.0
C2094 C 0.60213 0.50992 0.57266 0.0
C2095 C 0.55601 0.50997 0.57343 0.0
H2096 H 0.76507 0.4989 0.7223 0.0
H2097 H 0.70864 0.48657 0.69368 0.0
H2098 H 0.76071 0.57775 0.72118 0.0
H2099 H 0.70573 0.56555 0.69222 0.0
H2100 H 0.6818 0.71072 0.69287 0.0
H2101 H 0.68087 0.63317 0.69501 0.0
H2102 H 0.78651 0.64292 0.71567 0.0
H2103 H 0.78578 0.72223 0.71381 0.0
C2104 C 0.75036 0.51305 0.71584 0.0
C2105 C 0.73542 0.48558 0.70828 0.0
C2106 C 0.74879 0.5589 0.71507 0.0
C2107 C 0.73312 0.57988 0.70656 0.0
C2108 C 0.71734 0.55208 0.69904 0.0
C2109 C 0.71849 0.50608 0.69988 0.0
C2110 C 0.70519 0.69682 0.6979 0.0
C2111 C 0.73412 0.72405 0.7031 0.0
C2112 C 0.70482 0.65131 0.69908 0.0
C2113 C 0.73375 0.62983 0.70548 0.0
C2114 C 0.76298 0.65705 0.71072 0.0
C2115 C 0.76301 0.70311 0.7096 0.0
H2116 H 0.53698 0.43211 0.94258 0.0
H2117 H 0.52369 0.53239 0.96441 0.0
H2118 H 0.61458 0.43077 0.94491 0.0
H2119 H 0.60302 0.53278 0.96646 0.0
H2120 H 0.74686 0.50956 0.97336 0.0
H2121 H 0.6679 0.50537 0.97199 0.0
H2122 H 0.68213 0.45649 0.94249 0.0
H2123 H 0.7611 0.45911 0.94419 0.0
C2124 C 0.55051 0.45462 0.94784 0.0
C2125 C 0.52282 0.48262 0.95324 0.0
C2126 C 0.59602 0.45402 0.94914 0.0
C2127 C 0.61695 0.48178 0.95586 0.0
C2128 C 0.58927 0.51016 0.96127 0.0
C2129 C 0.54323 0.51042 0.96003 0.0
C2130 C 0.7331 0.49612 0.96672 0.0
C2131 C 0.76108 0.48276 0.95907 0.0
C2132 C 0.68724 0.49471 0.96582 0.0
C2133 C 0.66685 0.48085 0.95708 0.0
C2134 C 0.69517 0.46662 0.94947 0.0
C2135 C 0.74115 0.46759 0.95045 0.0
H2136 H 0.70804 0.51667 0.19414 0.0
H2137 H 0.80965 0.51807 0.2158 0.0
H2138 H 0.71095 0.43791 0.19353 0.0
H2139 H 0.81242 0.43778 0.21527 0.0
H2140 H 0.76784 0.28847 0.21777 0.0
H2141 H 0.76653 0.36842 0.21931 0.0
H2142 H 0.75886 0.37949 0.18788 0.0
H2143 H 0.76066 0.30076 0.1864 0.0
C2144 C 0.73158 0.50016 0.19872 0.0
C2145 C 0.75904 0.5244 0.20491 0.0
C2146 C 0.73318 0.45456 0.19838 0.0
C2147 C 0.76183 0.43062 0.20435 0.0
C2148 C 0.78961 0.45468 0.21059 0.0
C2149 C 0.78854 0.50091 0.2108 0.0
C2150 C 0.76484 0.30802 0.21122 0.0
C2151 C 0.7634 0.28765 0.20195 0.0
C2152 C 0.76487 0.35405 0.21208 0.0
C2153 C 0.76268 0.38117 0.20372 0.0
C2154 C 0.7602 0.36039 0.19453 0.0
C2155 C 0.76101 0.31485 0.19367 0.0
H2156 H 0.76121 0.56654 0.44719 0.0
H2157 H 0.75703 0.48052 0.47198 0.0
H2158 H 0.84144 0.56656 0.44801 0.0
H2159 H 0.83543 0.47868 0.4726 0.0
H2160 H 0.97596 0.5088 0.47803 0.0
H2161 H 0.89794 0.51258 0.47673 0.0
H2162 H 0.90891 0.52722 0.44538 0.0
H2163 H 0.98887 0.52551 0.44689 0.0
C2164 C 0.77721 0.54881 0.45301 0.0
C2165 C 0.75216 0.52478 0.45975 0.0
C2166 C 0.82348 0.54788 0.45336 0.0
C2167 C 0.84611 0.52266 0.46041 0.0
C2168 C 0.82044 0.49949 0.46718 0.0
C2169 C 0.77483 0.50062 0.46686 0.0
C2170 C 0.96206 0.51165 0.47079 0.0
C2171 C 0.98943 0.5155 0.46257 0.0
C2172 C 0.9166 0.51393 0.47002 0.0
C2173 C 0.89574 0.51998 0.46092 0.0
C2174 C 0.92305 0.52284 0.45256 0.0
C2175 C 0.96916 0.52074 0.45337 0.0
H2176 H 0.30766 0.51959 0.2187 0.0
H2177 H 0.20645 0.52303 0.19696 0.0
H2178 H 0.31101 0.59982 0.21833 0.0
H2179 H 0.21005 0.60187 0.19648 0.0
H2180 H 0.26147 0.73908 0.18985 0.0
H2181 H 0.25882 0.66025 0.19106 0.0
H2182 H 0.2651 0.66934 0.22254 0.0
H2183 H 0.2671 0.74934 0.22128 0.0
C2184 C 0.2868 0.53721 0.2137 0.0
C2185 C 0.25724 0.5143 0.20775 0.0
C2186 C 0.28821 0.58341 0.21359 0.0
C2187 C 0.26072 0.60808 0.20738 0.0
C2188 C 0.23205 0.58472 0.20132 0.0
C2189 C 0.23006 0.5391 0.20158 0.0
C2190 C 0.26131 0.72453 0.19708 0.0
C2191 C 0.26348 0.75121 0.20546 0.0
C2192 C 0.26003 0.67894 0.19778 0.0
C2193 C 0.26189 0.65757 0.2069 0.0
C2194 C 0.26389 0.68416 0.21536 0.0
C2195 C 0.26428 0.73024 0.21465 0.0
H2196 H 0.02458 0.48172 0.96487 0.0
H2197 H 0.03439 0.58635 0.94407 0.0
H2198 H 0.10419 0.48081 0.96635 0.0
H2199 H 0.11227 0.58705 0.94583 0.0
H2200 H 0.25887 0.55878 0.94372 0.0
H2201 H 0.17962 0.56184 0.94264 0.0
H2202 H 0.16986 0.50669 0.97163 0.0
H2203 H 0.24894 0.50219 0.97238 0.0
C2204 C 0.04339 0.5046 0.96062 0.0
C2205 C 0.0219 0.53373 0.95427 0.0
C2206 C 0.08962 0.50451 0.96152 0.0
C2207 C 0.11644 0.53386 0.95619 0.0
C2208 C 0.09442 0.56302 0.94995 0.0
C2209 C 0.04874 0.56278 0.94899 0.0
C2210 C 0.23985 0.54889 0.95001 0.0
C2211 C 0.26107 0.53183 0.9583 0.0
C2212 C 0.19371 0.55015 0.94939 0.0
C2213 C 0.16652 0.53435 0.95704 0.0
C2214 C 0.18824 0.51859 0.96544 0.0
C2215 C 0.23421 0.51692 0.96599 0.0
H2216 H 0.20205 0.51386 0.70301 0.0
H2217 H 0.33361 0.50857 0.71378 0.0
H2218 H 0.19977 0.43364 0.70307 0.0
H2219 H 0.33145 0.43003 0.71383 0.0
H2220 H 0.29688 0.2905 0.72325 0.0
H2221 H 0.29944 0.36963 0.72246 0.0
H2222 H 0.23123 0.36662 0.69489 0.0
H2223 H 0.22924 0.28697 0.69571 0.0
C2224 C 0.23024 0.49586 0.70548 0.0
C2225 C 0.26793 0.51825 0.70842 0.0
C2226 C 0.2292 0.44971 0.70542 0.0
C2227 C 0.26553 0.42467 0.70846 0.0
C2228 C 0.30261 0.44747 0.71153 0.0
C2229 C 0.30384 0.493 0.71146 0.0
C2230 C 0.2841 0.30655 0.7168 0.0
C2231 C 0.26471 0.28183 0.70933 0.0
C2232 C 0.28498 0.35225 0.71639 0.0
C2233 C 0.26543 0.3753 0.70861 0.0
C2234 C 0.24643 0.35051 0.70105 0.0
C2235 C 0.24618 0.30458 0.7014 0.0
H2236 H 0.47688 0.50066 0.43763 0.0
H2237 H 0.49106 0.49997 0.46901 0.0
H2238 H 0.39808 0.5023 0.43936 0.0
H2239 H 0.41111 0.50112 0.47079 0.0
H2240 H 0.26185 0.45719 0.4685 0.0
H2241 H 0.34214 0.45418 0.4675 0.0
H2242 H 0.3395 0.55106 0.44474 0.0
H2243 H 0.26055 0.55428 0.44584 0.0
C2244 C 0.4632 0.50159 0.44495 0.0
C2245 C 0.49092 0.50104 0.45316 0.0
C2246 C 0.41763 0.50236 0.44594 0.0
C2247 C 0.39743 0.50169 0.45522 0.0
C2248 C 0.42507 0.50133 0.46351 0.0
C2249 C 0.47109 0.5014 0.4625 0.0
C2250 C 0.27846 0.47709 0.46315 0.0
C2251 C 0.25428 0.50537 0.45712 0.0
C2252 C 0.32467 0.47593 0.46268 0.0
C2253 C 0.348 0.50244 0.45603 0.0
C2254 C 0.32336 0.5298 0.4499 0.0
C2255 C 0.27771 0.53154 0.45051 0.0
H2256 H 0.25897 0.53254 0.31374 0.0
H2257 H 0.30608 0.5242 0.3433 0.0
H2258 H 0.25626 0.45417 0.31268 0.0
H2259 H 0.30556 0.44442 0.34221 0.0
H2260 H 0.26385 0.29834 0.34016 0.0
H2261 H 0.26555 0.37811 0.34192 0.0
H2262 H 0.28992 0.38984 0.31088 0.0
H2263 H 0.28597 0.31245 0.30917 0.0
C2264 C 0.27093 0.51382 0.31989 0.0
C2265 C 0.28477 0.53533 0.32843 0.0
C2266 C 0.26909 0.46819 0.31934 0.0
C2267 C 0.28098 0.44142 0.32732 0.0
C2268 C 0.29575 0.46302 0.33586 0.0
C2269 C 0.29724 0.50909 0.33642 0.0
C2270 C 0.26792 0.3182 0.33369 0.0
C2271 C 0.27363 0.29817 0.32447 0.0
C2272 C 0.2699 0.36425 0.33471 0.0
C2273 C 0.2778 0.39182 0.32655 0.0
C2274 C 0.28265 0.37121 0.31739 0.0
C2275 C 0.28034 0.32593 0.31639 0.0
H2276 H 0.25755 0.4834 0.09066 0.0
H2277 H 0.247 0.57792 0.06759 0.0
H2278 H 0.33636 0.48403 0.08926 0.0
H2279 H 0.32682 0.57934 0.06621 0.0
H2280 H 0.46349 0.53304 0.05759 0.0
H2281 H 0.38549 0.53635 0.06026 0.0
H2282 H 0.40563 0.51699 0.09122 0.0
H2283 H 0.48467 0.5136 0.08846 0.0
C2284 C 0.27218 0.50546 0.08544 0.0
C2285 C 0.24536 0.53109 0.07934 0.0
C2286 C 0.31785 0.50574 0.08462 0.0
C2287 C 0.33904 0.53131 0.07755 0.0
C2288 C 0.31227 0.55849 0.07168 0.0
C2289 C 0.26622 0.55843 0.07257 0.0
C2290 C 0.45147 0.52867 0.06499 0.0
C2291 C 0.48106 0.52238 0.07278 0.0
C2292 C 0.40628 0.53136 0.06655 0.0
C2293 C 0.38818 0.52779 0.076 0.0
C2294 C 0.41765 0.51982 0.0838 0.0
C2295 C 0.46329 0.51731 0.08222 0.0
H2296 H 0.32545 0.50463 0.8364 0.0
H2297 H 0.20764 0.49817 0.81944 0.0
H2298 H 0.3236 0.58367 0.83571 0.0
H2299 H 0.20588 0.57801 0.81866 0.0
H2300 H 0.24632 0.71443 0.80864 0.0
H2301 H 0.24776 0.63627 0.81065 0.0
H2302 H 0.28588 0.65215 0.84081 0.0
H2303 H 0.28344 0.73177 0.83882 0.0
C2304 C 0.29873 0.52006 0.83258 0.0
C2305 C 0.26669 0.49442 0.82796 0.0
C2306 C 0.29764 0.56576 0.83223 0.0
C2307 C 0.26486 0.58798 0.82707 0.0
C2308 C 0.23209 0.56242 0.82262 0.0
C2309 C 0.23278 0.51643 0.82312 0.0
C2310 C 0.25587 0.70161 0.81571 0.0
C2311 C 0.26524 0.73017 0.82353 0.0
C2312 C 0.25599 0.65633 0.81689 0.0
C2313 C 0.2661 0.63711 0.82594 0.0
C2314 C 0.27778 0.6654 0.83371 0.0
C2315 C 0.27702 0.71126 0.83255 0.0
H2316 H 0.26233 0.53471 0.59096 0.0
H2317 H 0.27046 0.4407 0.56769 0.0
H2318 H 0.18335 0.5337 0.5901 0.0
H2319 H 0.19054 0.43888 0.56687 0.0
H2320 H 0.05305 0.48472 0.55918 0.0
H2321 H 0.13135 0.48218 0.56134 0.0
H2322 H 0.11445 0.50009 0.59247 0.0
H2323 H 0.0351 0.50276 0.59021 0.0
C2324 C 0.24714 0.51264 0.58582 0.0
C2325 C 0.27328 0.48726 0.5795 0.0
C2326 C 0.2014 0.51216 0.58532 0.0
C2327 C 0.17951 0.48666 0.57834 0.0
C2328 C 0.20566 0.45968 0.57226 0.0
C2329 C 0.25176 0.45994 0.57283 0.0
C2330 C 0.06587 0.4891 0.5665 0.0
C2331 C 0.03713 0.49474 0.57449 0.0
C2332 C 0.11121 0.48678 0.56777 0.0
C2333 C 0.13027 0.49005 0.57711 0.0
C2334 C 0.10164 0.4975 0.58512 0.0
C2335 C 0.05584 0.49964 0.58384 0.0
H2336 H 0.30078 0.19445 0.37576 0.0
H2337 H 0.34985 0.07484 0.36359 0.0
H2338 H 0.32461 0.17247 0.39198 0.0
H2339 H 0.37355 0.05219 0.37995 0.0
H2340 H 0.4431 0.03845 0.40933 0.0
H2341 H 0.42279 0.06308 0.39307 0.0
H2342 H 0.30879 0.12535 0.40518 0.0
H2343 H 0.32968 0.10079 0.42158 0.0
C2344 C 0.31656 0.16322 0.37654 0.0
C2345 C 0.32293 0.1363 0.3683 0.0
C2346 C 0.33014 0.15045 0.38592 0.0
C2347 C 0.35066 0.11016 0.38745 0.0
C2348 C 0.35822 0.08365 0.37915 0.0
C2349 C 0.34468 0.09659 0.36971 0.0
C2350 C 0.41355 0.05726 0.40857 0.0
C2351 C 0.38788 0.06718 0.41685 0.0
C2352 C 0.40176 0.07136 0.39916 0.0
C2353 C 0.36378 0.096 0.39764 0.0
C2354 C 0.33854 0.10685 0.40597 0.0
C2355 C 0.35048 0.09278 0.41543 0.0
H2356 H 0.22634 0.17901 0.65954 0.0
H2357 H 0.18621 0.05601 0.67139 0.0
H2358 H 0.20334 0.15657 0.64329 0.0
H2359 H 0.16407 0.03249 0.65499 0.0
H2360 H 0.09842 0.01212 0.6254 0.0
H2361 H 0.116 0.03749 0.64179 0.0
H2362 H 0.22123 0.11355 0.62987 0.0
H2363 H 0.20262 0.08874 0.6134 0.0
C2364 C 0.21263 0.14695 0.65866 0.0
C2365 C 0.20842 0.11928 0.66682 0.0
C2366 C 0.19964 0.13383 0.64927 0.0
C2367 C 0.18223 0.09225 0.64761 0.0
C2368 C 0.17686 0.06492 0.65586 0.0
C2369 C 0.18955 0.07833 0.66532 0.0
C2370 C 0.12537 0.03426 0.62626 0.0
C2371 C 0.14915 0.04814 0.618 0.0
C2372 C 0.13567 0.04876 0.63574 0.0
C2373 C 0.17039 0.07757 0.63736 0.0
C2374 C 0.19382 0.09196 0.62905 0.0
C2375 C 0.18322 0.07768 0.61953 0.0
H2376 H 0.24629 0.83437 0.87552 0.0
H2377 H 0.19233 0.95233 0.86368 0.0
H2378 H 0.2235 0.85576 0.89189 0.0
H2379 H 0.1704 0.97483 0.88016 0.0
H2380 H 0.10552 0.99076 0.90989 0.0
H2381 H 0.12422 0.96582 0.89352 0.0
H2382 H 0.23761 0.9009 0.90516 0.0
H2383 H 0.21775 0.9251 0.92165 0.0
C2384 C 0.22972 0.86515 0.87642 0.0
C2385 C 0.22143 0.89169 0.86823 0.0
C2386 C 0.21677 0.87765 0.88588 0.0
C2387 C 0.19532 0.91744 0.88755 0.0
C2388 C 0.18628 0.94368 0.87929 0.0
C2389 C 0.1989 0.93087 0.86978 0.0
C2390 C 0.13449 0.97116 0.90897 0.0
C2391 C 0.16022 0.96023 0.91715 0.0
C2392 C 0.14545 0.95694 0.89951 0.0
C2393 C 0.18284 0.93148 0.89782 0.0
C2394 C 0.20822 0.91989 0.90605 0.0
C2395 C 0.19693 0.93382 0.91557 0.0
H2396 H 0.43476 0.9895 0.12794 0.0
H2397 H 0.31463 0.94293 0.11569 0.0
H2398 H 0.41116 0.96792 0.14421 0.0
H2399 H 0.28999 0.92221 0.13209 0.0
H2400 H 0.26967 0.85744 0.16173 0.0
H2401 H 0.29588 0.87532 0.14541 0.0
H2402 H 0.36609 0.9843 0.15738 0.0
H2403 H 0.34057 0.96528 0.17379 0.0
C2404 C 0.40301 0.97488 0.12873 0.0
C2405 C 0.37657 0.96827 0.12044 0.0
C2406 C 0.38925 0.96262 0.13814 0.0
C2407 C 0.34825 0.94353 0.13966 0.0
C2408 C 0.32201 0.93623 0.13132 0.0
C2409 C 0.33607 0.94818 0.12186 0.0
C2410 C 0.29071 0.88526 0.16089 0.0
C2411 C 0.30279 0.90996 0.16914 0.0
C2412 C 0.30567 0.89576 0.15146 0.0
C2413 C 0.33307 0.93164 0.14988 0.0
C2414 C 0.34564 0.95602 0.15818 0.0
C2415 C 0.33095 0.9452 0.16766 0.0
H2416 H 0.71339 0.92282 0.61303 0.0
H2417 H 0.58795 0.96117 0.62419 0.0
H2418 H 0.73519 0.90045 0.62954 0.0
H2419 H 0.60884 0.93818 0.64055 0.0
H2420 H 0.67361 0.93756 0.67081 0.0
H2421 H 0.6505 0.95646 0.65422 0.0
H2422 H 0.72845 0.85145 0.64263 0.0
H2423 H 0.75195 0.83341 0.65914 0.0
C2424 C 0.6902 0.92578 0.61896 0.0
C2425 C 0.64903 0.9442 0.61723 0.0
C2426 C 0.70262 0.91297 0.62849 0.0
C2427 C 0.6741 0.91783 0.63658 0.0
C2428 C 0.63241 0.93486 0.6347 0.0
C2429 C 0.62022 0.94788 0.62524 0.0
C2430 C 0.68542 0.91825 0.66474 0.0
C2431 C 0.71496 0.88411 0.6664 0.0
C2432 C 0.67215 0.92903 0.65515 0.0
C2433 C 0.68764 0.90579 0.6469 0.0
C2434 C 0.71639 0.87098 0.64865 0.0
C2435 C 0.72981 0.86043 0.65819 0.0
H2436 H 0.74855 0.91181 0.37277 0.0
H2437 H 0.88015 0.9114 0.36185 0.0
H2438 H 0.77424 0.93084 0.38898 0.0
H2439 H 0.90638 0.93055 0.37828 0.0
H2440 H 0.93218 1.0068 0.40701 0.0
H2441 H 0.90988 0.98556 0.39062 0.0
H2442 H 0.81047 0.90368 0.40304 0.0
H2443 H 0.83188 0.92639 0.41949 0.0
C2444 C 0.7832 0.91538 0.37383 0.0
C2445 C 0.81221 0.90937 0.36592 0.0
C2446 C 0.79805 0.92623 0.38322 0.0
C2447 C 0.84262 0.93168 0.38514 0.0
C2448 C 0.87176 0.92686 0.37717 0.0
C2449 C 0.85677 0.91593 0.3677 0.0
C2450 C 0.90537 0.98442 0.4063 0.0
C2451 C 0.88357 0.96891 0.4147 0.0
C2452 C 0.89285 0.97175 0.39682 0.0
C2453 C 0.85797 0.94304 0.39535 0.0
C2454 C 0.83696 0.92647 0.40377 0.0
C2455 C 0.84958 0.93911 0.41328 0.0
H2456 H 0.87828 0.99935 0.12406 0.0
H2457 H 0.86263 0.12889 0.11266 0.0
H2458 H 0.85499 0.02371 0.14011 0.0
H2459 H 0.83913 0.1538 0.12895 0.0
H2460 H 0.75837 0.1717 0.15749 0.0
H2461 H 0.78308 0.1512 0.14119 0.0
H2462 H 0.87734 0.0642 0.15401 0.0
H2463 H 0.85133 0.08358 0.17036 0.0
C2464 C 0.87023 0.0333 0.12498 0.0
C2465 C 0.87308 0.06219 0.117 0.0
C2466 C 0.85691 0.0474 0.13428 0.0
C2467 C 0.84576 0.09103 0.13601 0.0
C2468 C 0.8473 0.11989 0.12796 0.0
C2469 C 0.86071 0.10565 0.11858 0.0
C2470 C 0.78424 0.148 0.15688 0.0
C2471 C 0.80231 0.12897 0.16536 0.0
C2472 C 0.79885 0.13657 0.14746 0.0
C2473 C 0.83209 0.10561 0.14614 0.0
C2474 C 0.85112 0.08755 0.15464 0.0
C2475 C 0.83653 0.09907 0.16408 0.0
H2476 H 0.70942 0.09563 0.92403 0.0
H2477 H 0.61777 1.00718 0.91096 0.0
H2478 H 0.72977 0.12117 0.90768 0.0
H2479 H 0.63808 0.03236 0.89476 0.0
H2480 H 0.71251 0.05844 0.86605 0.0
H2481 H 0.69403 0.03183 0.88243 0.0
H2482 H 0.70454 0.16189 0.89387 0.0
H2483 H 0.72253 0.18832 0.8777 0.0
C2484 C 0.69334 0.08175 0.91772 0.0
C2485 C 0.66213 0.04887 0.91896 0.0
C2486 C 0.70506 0.09639 0.90828 0.0
C2487 C 0.68596 0.07869 0.89976 0.0
C2488 C 0.65442 0.04624 0.90104 0.0
C2489 C 0.64266 0.03175 0.91043 0.0
C2490 C 0.7108 0.08144 0.87203 0.0
C2491 C 0.71975 0.12566 0.87039 0.0
C2492 C 0.70009 0.06615 0.88148 0.0
C2493 C 0.698 0.09453 0.88962 0.0
C2494 C 0.70671 0.13865 0.88794 0.0
C2495 C 0.71718 0.15389 0.87854 0.0
H2496 H 0.81015 0.56079 0.8654 0.0
H2497 H 0.79015 0.69008 0.87677 0.0
H2498 H 0.82978 0.53597 0.88183 0.0
H2499 H 0.80951 0.66544 0.89304 0.0
H2500 H 0.80723 0.59907 0.92326 0.0
H2501 H 0.78676 0.62378 0.90686 0.0
H2502 H 0.88458 0.53992 0.89423 0.0
H2503 H 0.90481 0.51546 0.9105 0.0
C2504 C 0.81002 0.58405 0.87134 0.0
C2505 C 0.79792 0.6275 0.86962 0.0
C2506 C 0.82138 0.5698 0.88082 0.0
C2507 C 0.8211 0.59851 0.88891 0.0
C2508 C 0.80929 0.64193 0.88714 0.0
C2509 C 0.79807 0.65614 0.8777 0.0
C2510 C 0.82465 0.58622 0.917 0.0
C2511 C 0.8575 0.55485 0.91832 0.0
C2512 C 0.81288 0.60036 0.90754 0.0
C2513 C 0.83361 0.58366 0.89908 0.0
C2514 C 0.86696 0.55291 0.90045 0.0
C2515 C 0.8787 0.53887 0.90987 0.0
H2516 H 0.7774 0.61581 0.15933 0.0
H2517 H 0.64513 0.6304 0.1693 0.0
H2518 H 0.75197 0.59877 0.14296 0.0
H2519 H 0.61922 0.61401 0.15276 0.0
H2520 H 0.58634 0.53961 0.1246 0.0
H2521 H 0.60988 0.56039 0.14085 0.0
H2522 H 0.72129 0.62491 0.12833 0.0
H2523 H 0.69851 0.60188 0.11195 0.0
C2524 C 0.74273 0.61584 0.15802 0.0
C2525 C 0.71342 0.62485 0.16572 0.0
C2526 C 0.72802 0.60621 0.14853 0.0
C2527 C 0.68334 0.6053 0.14633 0.0
C2528 C 0.65389 0.61383 0.15408 0.0
C2529 C 0.66869 0.62327 0.16363 0.0
C2530 C 0.61608 0.55799 0.12525 0.0
C2531 C 0.64079 0.5683 0.11685 0.0
C2532 C 0.62938 0.57055 0.13466 0.0
C2533 C 0.66786 0.59425 0.1361 0.0
C2534 C 0.6919 0.60597 0.12765 0.0
C2535 C 0.67856 0.59324 0.11818 0.0
H2536 H 0.67277 0.4523 0.36296 0.0
H2537 H 0.76098 0.35838 0.3754 0.0
H2538 H 0.64886 0.47269 0.37946 0.0
H2539 H 0.73803 0.37929 0.39182 0.0
H2540 H 0.66174 0.40364 0.42047 0.0
H2541 H 0.68051 0.37881 0.40396 0.0
H2542 H 0.67599 0.51095 0.39361 0.0
H2543 H 0.65792 0.5357 0.40995 0.0
C2544 C 0.68683 0.43569 0.36918 0.0
C2545 C 0.71916 0.40387 0.36776 0.0
C2546 C 0.67345 0.4477 0.3787 0.0
C2547 C 0.69165 0.428 0.3871 0.0
C2548 C 0.72292 0.39517 0.38562 0.0
C2549 C 0.73649 0.38344 0.37614 0.0
C2550 C 0.66498 0.42751 0.41472 0.0
C2551 C 0.65775 0.47185 0.41672 0.0
C2552 C 0.67574 0.4132 0.40518 0.0
C2553 C 0.67945 0.44271 0.39731 0.0
C2554 C 0.6725 0.48694 0.39934 0.0
C2555 C 0.66206 0.50122 0.40883 0.0
H2556 H 0.8727 0.38782 0.67105 0.0
H2557 H 0.74024 0.39924 0.66106 0.0
H2558 H 0.89844 0.40549 0.65455 0.0
H2559 H 0.76556 0.4172 0.64473 0.0
H2560 H 0.82024 0.41504 0.61378 0.0
H2561 H 0.79797 0.39107 0.63013 0.0
H2562 H 0.90556 0.46099 0.64279 0.0
H2563 H 0.9286 0.48305 0.62655 0.0
C2564 C 0.84903 0.39444 0.66539 0.0
C2565 C 0.80431 0.39164 0.66747 0.0
C2566 C 0.86376 0.40459 0.65586 0.0
C2567 C 0.83423 0.41252 0.64813 0.0
C2568 C 0.78956 0.41029 0.65031 0.0
C2569 C 0.77492 0.40006 0.65977 0.0
C2570 C 0.83948 0.42474 0.62004 0.0
C2571 C 0.876 0.45153 0.61875 0.0
C2572 C 0.82643 0.41142 0.62948 0.0
C2573 C 0.84956 0.42432 0.63794 0.0
C2574 C 0.88685 0.44994 0.63657 0.0
C2575 C 0.89982 0.46318 0.62717 0.0
H2576 H 0.19571 0.43481 0.11538 0.0
H2577 H 0.09194 0.51361 0.12709 0.0
H2578 H 0.2148 0.41179 0.13196 0.0
H2579 H 0.1099 0.48997 0.14359 0.0
H2580 H 0.17972 0.47394 0.17325 0.0
H2581 H 0.15778 0.4959 0.15673 0.0
H2582 H 0.19776 0.37059 0.14564 0.0
H2583 H 0.22062 0.3497 0.16201 0.0
C2584 C 0.17651 0.44672 0.12147 0.0
C2585 C 0.14241 0.47634 0.11982 0.0
C2586 C 0.18737 0.43347 0.13105 0.0
C2587 C 0.16418 0.44898 0.13932 0.0
C2588 C 0.12943 0.47786 0.13758 0.0
C2589 C 0.11889 0.49136 0.12804 0.0
C2590 C 0.18332 0.45103 0.16729 0.0
C2591 C 0.20231 0.41017 0.16901 0.0
C2592 C 0.17071 0.46353 0.15775 0.0
C2593 C 0.17624 0.43536 0.14964 0.0
C2594 C 0.1939 0.39394 0.15151 0.0
C2595 C 0.20683 0.38172 0.16098 0.0
H2596 H 0.27781 0.33321 0.87505 0.0
H2597 H 0.33419 0.45036 0.86353 0.0
H2598 H 0.29983 0.35361 0.89151 0.0
H2599 H 0.35526 0.47195 0.88011 0.0
H2600 H 0.41728 0.48726 0.91004 0.0
H2601 H 0.39998 0.46242 0.8936 0.0
H2602 H 0.28575 0.39809 0.90486 0.0
H2603 H 0.30434 0.42209 0.92142 0.0
C2604 C 0.29478 0.3636 0.87604 0.0
C2605 C 0.30397 0.39019 0.8679 0.0
C2606 C 0.30727 0.37555 0.88556 0.0
C2607 C 0.32913 0.41486 0.88735 0.0
C2608 C 0.33907 0.44113 0.87915 0.0
C2609 C 0.32693 0.42885 0.86958 0.0
C2610 C 0.38851 0.46768 0.90902 0.0
C2611 C 0.36214 0.45691 0.91711 0.0
C2612 C 0.3783 0.45357 0.89951 0.0
C2613 C 0.34102 0.42842 0.89768 0.0
C2614 C 0.31509 0.41685 0.90585 0.0
C2615 C 0.32565 0.43064 0.91541 0.0
H2616 H 0.37535 0.61071 0.67142 0.0
H2617 H 0.24359 0.61567 0.66068 0.0
H2618 H 0.40058 0.59007 0.65501 0.0
H2619 H 0.26847 0.59538 0.64447 0.0
H2620 H 0.32666 0.59472 0.61392 0.0
H2621 H 0.30652 0.62027 0.63029 0.0
H2622 H 0.40065 0.53293 0.64305 0.0
H2623 H 0.42165 0.50868 0.62675 0.0
C2624 C 0.35169 0.60721 0.66562 0.0
C2625 C 0.30738 0.6155 0.66747 0.0
C2626 C 0.36615 0.5954 0.65616 0.0
C2627 C 0.33674 0.59148 0.64826 0.0
C2628 C 0.29245 0.59912 0.6502 0.0
C2629 C 0.27808 0.61078 0.6596 0.0
C2630 C 0.34351 0.58143 0.6202 0.0
C2631 C 0.37555 0.54921 0.61892 0.0
C2632 C 0.33162 0.59573 0.62964 0.0
C2633 C 0.35152 0.57846 0.63812 0.0
C2634 C 0.38459 0.54733 0.63679 0.0
C2635 C 0.39633 0.53297 0.62737 0.0
H2636 H 0.17459 0.58773 0.36607 0.0
H2637 H 0.26599 0.67727 0.37881 0.0
H2638 H 0.1506 0.56685 0.38247 0.0
H2639 H 0.24314 0.65546 0.39516 0.0
H2640 H 0.16616 0.62938 0.4239 0.0
H2641 H 0.18701 0.65604 0.4076 0.0
H2642 H 0.17686 0.52597 0.39612 0.0
H2643 H 0.15647 0.49976 0.41219 0.0
C2644 C 0.18941 0.60326 0.37234 0.0
C2645 C 0.22264 0.63396 0.37101 0.0
C2646 C 0.17599 0.59091 0.3818 0.0
C2647 C 0.19518 0.60898 0.39027 0.0
C2648 C 0.22733 0.6408 0.38891 0.0
C2649 C 0.24084 0.653 0.37947 0.0
C2650 C 0.16874 0.60651 0.41791 0.0
C2651 C 0.15887 0.56244 0.41943 0.0
C2652 C 0.18062 0.62177 0.40852 0.0
C2653 C 0.18298 0.59339 0.40039 0.0
C2654 C 0.17422 0.54924 0.40203 0.0
C2655 C 0.16252 0.5341 0.41135 0.0
loop_
_geom_bond_atom_site_label_1
_geom_bond_atom_site_label_2
_geom_bond_distance
_geom_bond_site_symmetry_2
_ccdc_geom_bond_type
Co0 N4 2.148 . S
Co0 N10 2.128 . S
Co0 N20 2.194 . S
Co0 O25 2.351 . S
Co0 O26 2.155 . S
Co0 O27 2.096 . S
C1 N4 1.301 . S
C1 N5 1.328 . S
C1 H6 0.930 . S
C2 C3 1.333 . S
C2 N4 1.317 . S
C2 H7 0.930 . S
C3 C2 1.333 . S
C3 N5 1.350 . S
C3 H29 0.931 . S
N4 Co0 2.148 . S
N4 C1 1.301 . S
N4 C2 1.317 . S
N5 C1 1.328 . S
N5 C3 1.350 . S
H6 C1 0.930 . S
H7 C2 0.930 . S
C8 O9 1.224 . S
C8 O27 1.247 . S
O9 C8 1.224 . S
N10 Co0 2.128 . S
N10 C11 1.355 . S
N10 C13 1.311 . S
C11 N10 1.355 . S
C11 C12 1.363 . S
C11 H23 0.929 . S
C12 C11 1.363 . S
C12 N14 1.375 . S
C12 H30 0.931 . S
C13 N10 1.311 . S
C13 N14 1.347 . S
C13 H24 0.929 . S
N14 C12 1.375 . S
N14 C13 1.347 . S
C15 C18 1.365 . S
C15 N20 1.328 . S
C15 H21 0.929 . S
C16 C17 1.362 . S
C16 C19 1.378 . S
C16 H31 0.929 . S
C17 C16 1.362 . S
C17 C18 1.366 . S
C18 C15 1.365 . S
C18 C17 1.366 . S
C18 H32 0.930 . S
C19 C16 1.378 . S
C19 N20 1.315 . S
C19 H22 0.930 . S
N20 Co0 2.194 . S
N20 C15 1.328 . S
N20 C19 1.315 . S
H21 C15 0.929 . S
H22 C19 0.930 . S
H23 C11 0.929 . S
H24 C13 0.929 . S
O25 Co0 2.351 . S
O25 C28 1.244 . S
O26 Co0 2.155 . S
O26 C28 1.240 . S
O27 Co0 2.096 . S
O27 C8 1.247 . S
C28 O25 1.244 . S
C28 O26 1.240 . S
H29 C3 0.931 . S
H30 C12 0.931 . S
H31 C16 0.929 . S
H32 C18 0.930 . S
Co33 N37 2.148 . S
Co33 N43 2.128 . S
Co33 N53 2.194 . S
Co33 O58 2.351 . S
Co33 O59 2.155 1_545 S
Co33 O60 2.096 1_545 S
C34 N37 1.301 . S
C34 N38 1.328 . S
C34 H39 0.930 . S
C35 C36 1.333 . S
C35 N37 1.317 . S
C35 H40 0.930 1_545 S
C36 C35 1.333 . S
C36 N38 1.350 . S
C36 H62 0.931 . S
N37 Co33 2.148 . S
N37 C34 1.301 . S
N37 C35 1.317 . S
N38 C34 1.328 . S
N38 C36 1.350 . S
H39 C34 0.930 . S
H40 C35 0.930 1_565 S
C41 O42 1.224 1_565 S
C41 O60 1.247 1_655 S
O42 C41 1.224 1_545 S
N43 Co33 2.128 . S
N43 C44 1.355 . S
N43 C46 1.311 . S
C44 N43 1.355 . S
C44 C45 1.363 . S
C44 H56 0.929 . S
C45 C44 1.363 . S
C45 N47 1.375 . S
C45 H63 0.931 . S
C46 N43 1.311 . S
C46 N47 1.347 . S
C46 H57 0.929 1_545 S
N47 C45 1.375 . S
N47 C46 1.347 . S
C48 C51 1.365 . S
C48 N53 1.328 . S
C48 H54 0.929 . S
C49 C50 1.362 . S
C49 C52 1.378 . S
C49 H64 0.929 1_455 S
C50 C49 1.362 . S
C50 C51 1.366 . S
C51 C48 1.365 . S
C51 C50 1.366 . S
C51 H65 0.930 . S
C52 C49 1.378 . S
C52 N53 1.315 . S
C52 H55 0.930 1_455 S
N53 Co33 2.194 . S
N53 C48 1.328 . S
N53 C52 1.315 . S
H54 C48 0.929 . S
H55 C52 0.930 1_655 S
H56 C44 0.929 . S
H57 C46 0.929 1_565 S
O58 Co33 2.351 . S
O58 C61 1.244 . S
O59 Co33 2.155 1_565 S
O59 C61 1.240 1_565 S
O60 Co33 2.096 1_565 S
O60 C41 1.247 1_455 S
C61 O58 1.244 . S
C61 O59 1.240 1_545 S
H62 C36 0.931 . S
H63 C45 0.931 . S
H64 C49 0.929 1_655 S
H65 C51 0.930 . S
Co66 N70 2.148 . S
Co66 N76 2.128 . S
Co66 N86 2.194 . S
Co66 O91 2.351 . S
Co66 O92 2.155 . S
Co66 O93 2.096 . S
C67 N70 1.301 . S
C67 N71 1.328 . S
C67 H72 0.930 . S
C68 C69 1.333 . S
C68 N70 1.317 . S
C68 H73 0.930 . S
C69 C68 1.333 . S
C69 N71 1.350 . S
C69 H95 0.931 . S
N70 Co66 2.148 . S
N70 C67 1.301 . S
N70 C68 1.317 . S
N71 C67 1.328 . S
N71 C69 1.350 . S
H72 C67 0.930 . S
H73 C68 0.930 . S
C74 O75 1.224 . S
C74 O93 1.247 . S
O75 C74 1.224 . S
N76 Co66 2.128 . S
N76 C77 1.355 . S
N76 C79 1.311 . S
C77 N76 1.355 . S
C77 C78 1.363 . S
C77 H89 0.929 . S
C78 C77 1.363 . S
C78 N80 1.375 . S
C78 H96 0.931 . S
C79 N76 1.311 . S
C79 N80 1.347 . S
C79 H90 0.929 . S
N80 C78 1.375 . S
N80 C79 1.347 . S
C81 C84 1.365 . S
C81 N86 1.328 . S
C81 H87 0.929 . S
C82 C83 1.362 . S
C82 C85 1.378 . S
C82 H97 0.929 . S
C83 C82 1.362 . S
C83 C84 1.366 . S
C84 C81 1.365 . S
C84 C83 1.366 . S
C84 H98 0.930 . S
C85 C82 1.378 . S
C85 N86 1.315 . S
C85 H88 0.930 . S
N86 Co66 2.194 . S
N86 C81 1.328 . S
N86 C85 1.315 . S
H87 C81 0.929 . S
H88 C85 0.930 . S
H89 C77 0.929 . S
H90 C79 0.929 . S
O91 Co66 2.351 . S
O91 C94 1.244 . S
O92 Co66 2.155 . S
O92 C94 1.240 . S
O93 Co66 2.096 . S
O93 C74 1.247 . S
C94 O91 1.244 . S
C94 O92 1.240 . S
H95 C69 0.931 . S
H96 C78 0.931 . S
H97 C82 0.929 . S
H98 C84 0.930 . S
Co99 N103 2.148 . S
Co99 N109 2.128 . S
Co99 N119 2.194 . S
Co99 O124 2.351 . S
Co99 O125 2.155 1_565 S
Co99 O126 2.096 1_565 S
C100 N103 1.301 . S
C100 N104 1.328 . S
C100 H105 0.930 . S
C101 C102 1.333 . S
C101 N103 1.317 . S
C101 H106 0.930 1_565 S
C102 C101 1.333 . S
C102 N104 1.350 . S
C102 H128 0.931 . S
N103 Co99 2.148 . S
N103 C100 1.301 . S
N103 C101 1.317 . S
N104 C100 1.328 . S
N104 C102 1.350 . S
H105 C100 0.930 . S
H106 C101 0.930 1_545 S
C107 O108 1.224 1_545 S
C107 O126 1.247 . S
O108 C107 1.224 1_565 S
N109 Co99 2.128 . S
N109 C110 1.355 . S
N109 C112 1.311 . S
C110 N109 1.355 . S
C110 C111 1.363 . S
C110 H122 0.929 . S
C111 C110 1.363 . S
C111 N113 1.375 . S
C111 H129 0.931 . S
C112 N109 1.311 . S
C112 N113 1.347 . S
C112 H123 0.929 1_565 S
N113 C111 1.375 . S
N113 C112 1.347 . S
C114 C117 1.365 . S
C114 N119 1.328 . S
C114 H120 0.929 . S
C115 C116 1.362 . S
C115 C118 1.378 . S
C115 H130 0.929 . S
C116 C115 1.362 . S
C116 C117 1.366 . S
C117 C114 1.365 . S
C117 C116 1.366 . S
C117 H131 0.930 . S
C118 C115 1.378 . S
C118 N119 1.315 . S
C118 H121 0.930 . S
N119 Co99 2.194 . S
N119 C114 1.328 . S
N119 C118 1.315 . S
H120 C114 0.929 . S
H121 C118 0.930 . S
H122 C110 0.929 . S
H123 C112 0.929 1_545 S
O124 Co99 2.351 . S
O124 C127 1.244 . S
O125 Co99 2.155 1_545 S
O125 C127 1.240 1_545 S
O126 Co99 2.096 1_545 S
O126 C107 1.247 . S
C127 O124 1.244 . S
C127 O125 1.240 1_565 S
H128 C102 0.931 . S
H129 C111 0.931 . S
H130 C115 0.929 . S
H131 C117 0.930 . S
Co132 N136 2.148 . S
Co132 N142 2.128 . S
Co132 N152 2.194 . S
Co132 O157 2.351 . S
Co132 O158 2.155 . S
Co132 O159 2.096 . S
C133 N136 1.301 . S
C133 N137 1.328 . S
C133 H138 0.930 . S
C134 C135 1.333 . S
C134 N136 1.317 . S
C134 H139 0.930 . S
C135 C134 1.333 . S
C135 N137 1.350 . S
C135 H161 0.931 . S
N136 Co132 2.148 . S
N136 C133 1.301 . S
N136 C134 1.317 . S
N137 C133 1.328 . S
N137 C135 1.350 . S
H138 C133 0.930 . S
H139 C134 0.930 . S
C140 O141 1.224 . S
C140 O159 1.247 . S
O141 C140 1.224 . S
N142 Co132 2.128 . S
N142 C143 1.355 . S
N142 C145 1.311 . S
C143 N142 1.355 . S
C143 C144 1.363 . S
C143 H155 0.929 . S
C144 C143 1.363 . S
C144 N146 1.375 . S
C144 H162 0.931 . S
C145 N142 1.311 . S
C145 N146 1.347 . S
C145 H156 0.929 . S
N146 C144 1.375 . S
N146 C145 1.347 . S
C147 C150 1.365 . S
C147 N152 1.328 . S
C147 H153 0.929 . S
C148 C149 1.362 . S
C148 C151 1.378 . S
C148 H163 0.929 . S
C149 C148 1.362 . S
C149 C150 1.366 . S
C150 C147 1.365 . S
C150 C149 1.366 . S
C150 H164 0.930 . S
C151 C148 1.378 . S
C151 N152 1.315 . S
C151 H154 0.930 . S
N152 Co132 2.194 . S
N152 C147 1.328 . S
N152 C151 1.315 . S
H153 C147 0.929 . S
H154 C151 0.930 . S
H155 C143 0.929 . S
H156 C145 0.929 . S
O157 Co132 2.351 . S
O157 C160 1.244 . S
O158 Co132 2.155 . S
O158 C160 1.240 . S
O159 Co132 2.096 . S
O159 C140 1.247 . S
C160 O157 1.244 . S
C160 O158 1.240 . S
H161 C135 0.931 . S
H162 C144 0.931 . S
H163 C148 0.929 . S
H164 C150 0.930 . S
Co165 N169 2.148 . S
Co165 N175 2.128 . S
Co165 N185 2.194 . S
Co165 O190 2.351 . S
Co165 O191 2.155 1_545 S
Co165 O192 2.096 1_545 S
C166 N169 1.301 . S
C166 N170 1.328 . S
C166 H171 0.930 . S
C167 C168 1.333 . S
C167 N169 1.317 . S
C167 H172 0.930 1_545 S
C168 C167 1.333 . S
C168 N170 1.350 . S
C168 H194 0.931 . S
N169 Co165 2.148 . S
N169 C166 1.301 . S
N169 C167 1.317 . S
N170 C166 1.328 . S
N170 C168 1.350 . S
H171 C166 0.930 . S
H172 C167 0.930 1_565 S
C173 O174 1.224 1_565 S
C173 O192 1.247 . S
O174 C173 1.224 1_545 S
N175 Co165 2.128 . S
N175 C176 1.355 . S
N175 C178 1.311 . S
C176 N175 1.355 . S
C176 C177 1.363 . S
C176 H188 0.929 . S
C177 C176 1.363 . S
C177 N179 1.375 . S
C177 H195 0.931 . S
C178 N175 1.311 . S
C178 N179 1.347 . S
C178 H189 0.929 1_545 S
N179 C177 1.375 . S
N179 C178 1.347 . S
C180 C183 1.365 . S
C180 N185 1.328 . S
C180 H186 0.929 . S
C181 C182 1.362 . S
C181 C184 1.378 . S
C181 H196 0.929 . S
C182 C181 1.362 . S
C182 C183 1.366 . S
C183 C180 1.365 . S
C183 C182 1.366 . S
C183 H197 0.930 . S
C184 C181 1.378 . S
C184 N185 1.315 . S
C184 H187 0.930 . S
N185 Co165 2.194 . S
N185 C180 1.328 . S
N185 C184 1.315 . S
H186 C180 0.929 . S
H187 C184 0.930 . S
H188 C176 0.929 . S
H189 C178 0.929 1_565 S
O190 Co165 2.351 . S
O190 C193 1.244 . S
O191 Co165 2.155 1_565 S
O191 C193 1.240 1_565 S
O192 Co165 2.096 1_565 S
O192 C173 1.247 . S
C193 O190 1.244 . S
C193 O191 1.240 1_545 S
H194 C168 0.931 . S
H195 C177 0.931 . S
H196 C181 0.929 . S
H197 C183 0.930 . S
Co198 N202 2.148 . S
Co198 N208 2.128 . S
Co198 N218 2.194 . S
Co198 O223 2.351 . S
Co198 O224 2.155 . S
Co198 O225 2.096 . S
C199 N202 1.301 . S
C199 N203 1.328 . S
C199 H204 0.930 . S
C200 C201 1.333 . S
C200 N202 1.317 . S
C200 H205 0.930 . S
C201 C200 1.333 . S
C201 N203 1.350 . S
C201 H227 0.931 . S
N202 Co198 2.148 . S
N202 C199 1.301 . S
N202 C200 1.317 . S
N203 C199 1.328 . S
N203 C201 1.350 . S
H204 C199 0.930 . S
H205 C200 0.930 . S
C206 O207 1.224 . S
C206 O225 1.247 . S
O207 C206 1.224 . S
N208 Co198 2.128 . S
N208 C209 1.355 . S
N208 C211 1.311 . S
C209 N208 1.355 . S
C209 C210 1.363 . S
C209 H221 0.929 . S
C210 C209 1.363 . S
C210 N212 1.375 . S
C210 H228 0.931 . S
C211 N208 1.311 . S
C211 N212 1.347 . S
C211 H222 0.929 . S
N212 C210 1.375 . S
N212 C211 1.347 . S
C213 C216 1.365 . S
C213 N218 1.328 . S
C213 H219 0.929 . S
C214 C215 1.362 . S
C214 C217 1.378 . S
C214 H229 0.929 . S
C215 C214 1.362 . S
C215 C216 1.366 . S
C216 C213 1.365 . S
C216 C215 1.366 . S
C216 H230 0.930 . S
C217 C214 1.378 . S
C217 N218 1.315 . S
C217 H220 0.930 . S
N218 Co198 2.194 . S
N218 C213 1.328 . S
N218 C217 1.315 . S
H219 C213 0.929 . S
H220 C217 0.930 . S
H221 C209 0.929 . S
H222 C211 0.929 . S
O223 Co198 2.351 . S
O223 C226 1.244 . S
O224 Co198 2.155 . S
O224 C226 1.240 . S
O225 Co198 2.096 . S
O225 C206 1.247 . S
C226 O223 1.244 . S
C226 O224 1.240 . S
H227 C201 0.931 . S
H228 C210 0.931 . S
H229 C214 0.929 . S
H230 C216 0.930 . S
Co231 N235 2.148 . S
Co231 N241 2.128 . S
Co231 N251 2.194 . S
Co231 O256 2.351 . S
Co231 O257 2.155 1_565 S
Co231 O258 2.096 1_565 S
C232 N235 1.301 . S
C232 N236 1.328 . S
C232 H237 0.930 . S
C233 C234 1.333 . S
C233 N235 1.317 . S
C233 H238 0.930 1_565 S
C234 C233 1.333 . S
C234 N236 1.350 . S
C234 H260 0.931 . S
N235 Co231 2.148 . S
N235 C232 1.301 . S
N235 C233 1.317 . S
N236 C232 1.328 . S
N236 C234 1.350 . S
H237 C232 0.930 . S
H238 C233 0.930 1_545 S
C239 O240 1.224 1_545 S
C239 O258 1.247 1_655 S
O240 C239 1.224 1_565 S
N241 Co231 2.128 . S
N241 C242 1.355 . S
N241 C244 1.311 . S
C242 N241 1.355 . S
C242 C243 1.363 . S
C242 H254 0.929 . S
C243 C242 1.363 . S
C243 N245 1.375 . S
C243 H261 0.931 . S
C244 N241 1.311 . S
C244 N245 1.347 . S
C244 H255 0.929 1_565 S
N245 C243 1.375 . S
N245 C244 1.347 . S
C246 C249 1.365 . S
C246 N251 1.328 . S
C246 H252 0.929 . S
C247 C248 1.362 . S
C247 C250 1.378 . S
C247 H262 0.929 1_455 S
C248 C247 1.362 . S
C248 C249 1.366 . S
C249 C246 1.365 . S
C249 C248 1.366 . S
C249 H263 0.930 . S
C250 C247 1.378 . S
C250 N251 1.315 . S
C250 H253 0.930 1_455 S
N251 Co231 2.194 . S
N251 C246 1.328 . S
N251 C250 1.315 . S
H252 C246 0.929 . S
H253 C250 0.930 1_655 S
H254 C242 0.929 . S
H255 C244 0.929 1_545 S
O256 Co231 2.351 . S
O256 C259 1.244 . S
O257 Co231 2.155 1_545 S
O257 C259 1.240 1_545 S
O258 Co231 2.096 1_545 S
O258 C239 1.247 1_455 S
C259 O256 1.244 . S
C259 O257 1.240 1_565 S
H260 C234 0.931 . S
H261 C243 0.931 . S
H262 C247 0.929 1_655 S
H263 C249 0.930 . S
Co264 N268 2.148 . S
Co264 N274 2.128 . S
Co264 N284 2.194 . S
Co264 O289 2.351 . S
Co264 O290 2.155 . S
Co264 O291 2.096 . S
C265 N268 1.301 . S
C265 N269 1.328 . S
C265 H270 0.930 . S
C266 C267 1.333 . S
C266 N268 1.317 . S
C266 H271 0.930 . S
C267 C266 1.333 . S
C267 N269 1.350 . S
C267 H293 0.931 . S
N268 Co264 2.148 . S
N268 C265 1.301 . S
N268 C266 1.317 . S
N269 C265 1.328 . S
N269 C267 1.350 . S
H270 C265 0.930 . S
H271 C266 0.930 . S
C272 O273 1.224 . S
C272 O291 1.247 . S
O273 C272 1.224 . S
N274 Co264 2.128 . S
N274 C275 1.355 . S
N274 C277 1.311 . S
C275 N274 1.355 . S
C275 C276 1.363 . S
C275 H287 0.929 . S
C276 C275 1.363 . S
C276 N278 1.375 . S
C276 H294 0.931 . S
C277 N274 1.311 . S
C277 N278 1.347 . S
C277 H288 0.929 . S
N278 C276 1.375 . S
N278 C277 1.347 . S
C279 C282 1.365 . S
C279 N284 1.328 . S
C279 H285 0.929 . S
C280 C281 1.362 . S
C280 C283 1.378 . S
C280 H295 0.929 . S
C281 C280 1.362 . S
C281 C282 1.366 . S
C282 C279 1.365 . S
C282 C281 1.366 . S
C282 H296 0.930 . S
C283 C280 1.378 . S
C283 N284 1.315 . S
C283 H286 0.930 . S
N284 Co264 2.194 . S
N284 C279 1.328 . S
N284 C283 1.315 . S
H285 C279 0.929 . S
H286 C283 0.930 . S
H287 C275 0.929 . S
H288 C277 0.929 . S
O289 Co264 2.351 . S
O289 C292 1.244 . S
O290 Co264 2.155 . S
O290 C292 1.240 . S
O291 Co264 2.096 . S
O291 C272 1.247 . S
C292 O289 1.244 . S
C292 O290 1.240 . S
H293 C267 0.931 . S
H294 C276 0.931 . S
H295 C280 0.929 . S
H296 C282 0.930 . S
Co297 N301 2.148 . S
Co297 N307 2.128 . S
Co297 N317 2.194 . S
Co297 O322 2.351 . S
Co297 O323 2.155 1_565 S
Co297 O324 2.096 1_565 S
C298 N301 1.301 . S
C298 N302 1.328 . S
C298 H303 0.930 . S
C299 C300 1.333 . S
C299 N301 1.317 . S
C299 H304 0.930 1_565 S
C300 C299 1.333 . S
C300 N302 1.350 . S
C300 H326 0.931 . S
N301 Co297 2.148 . S
N301 C298 1.301 . S
N301 C299 1.317 . S
N302 C298 1.328 . S
N302 C300 1.350 . S
H303 C298 0.930 . S
H304 C299 0.930 1_545 S
C305 O306 1.224 1_545 S
C305 O324 1.247 1_455 S
O306 C305 1.224 1_565 S
N307 Co297 2.128 . S
N307 C308 1.355 . S
N307 C310 1.311 . S
C308 N307 1.355 . S
C308 C309 1.363 . S
C308 H320 0.929 . S
C309 C308 1.363 . S
C309 N311 1.375 . S
C309 H327 0.931 . S
C310 N307 1.311 . S
C310 N311 1.347 . S
C310 H321 0.929 1_565 S
N311 C309 1.375 . S
N311 C310 1.347 . S
C312 C315 1.365 . S
C312 N317 1.328 . S
C312 H318 0.929 . S
C313 C314 1.362 . S
C313 C316 1.378 . S
C313 H328 0.929 1_655 S
C314 C313 1.362 . S
C314 C315 1.366 . S
C315 C312 1.365 . S
C315 C314 1.366 . S
C315 H329 0.930 . S
C316 C313 1.378 . S
C316 N317 1.315 . S
C316 H319 0.930 1_655 S
N317 Co297 2.194 . S
N317 C312 1.328 . S
N317 C316 1.315 . S
H318 C312 0.929 . S
H319 C316 0.930 1_455 S
H320 C308 0.929 . S
H321 C310 0.929 1_545 S
O322 Co297 2.351 . S
O322 C325 1.244 . S
O323 Co297 2.155 1_545 S
O323 C325 1.240 1_545 S
O324 Co297 2.096 1_545 S
O324 C305 1.247 1_655 S
C325 O322 1.244 . S
C325 O323 1.240 1_565 S
H326 C300 0.931 . S
H327 C309 0.931 . S
H328 C313 0.929 1_455 S
H329 C315 0.930 . S
Co330 N334 2.148 . S
Co330 N340 2.128 . S
Co330 N350 2.194 . S
Co330 O355 2.351 . S
Co330 O356 2.155 . S
Co330 O357 2.096 . S
C331 N334 1.301 . S
C331 N335 1.328 . S
C331 H336 0.930 . S
C332 C333 1.333 . S
C332 N334 1.317 . S
C332 H337 0.930 . S
C333 C332 1.333 . S
C333 N335 1.350 . S
C333 H359 0.931 . S
N334 Co330 2.148 . S
N334 C331 1.301 . S
N334 C332 1.317 . S
N335 C331 1.328 . S
N335 C333 1.350 . S
H336 C331 0.930 . S
H337 C332 0.930 . S
C338 O339 1.224 . S
C338 O357 1.247 . S
O339 C338 1.224 . S
N340 Co330 2.128 . S
N340 C341 1.355 . S
N340 C343 1.311 . S
C341 N340 1.355 . S
C341 C342 1.363 . S
C341 H353 0.929 . S
C342 C341 1.363 . S
C342 N344 1.375 . S
C342 H360 0.931 . S
C343 N340 1.311 . S
C343 N344 1.347 . S
C343 H354 0.929 . S
N344 C342 1.375 . S
N344 C343 1.347 . S
C345 C348 1.365 . S
C345 N350 1.328 . S
C345 H351 0.929 . S
C346 C347 1.362 . S
C346 C349 1.378 . S
C346 H361 0.929 . S
C347 C346 1.362 . S
C347 C348 1.366 . S
C348 C345 1.365 . S
C348 C347 1.366 . S
C348 H362 0.930 . S
C349 C346 1.378 . S
C349 N350 1.315 . S
C349 H352 0.930 . S
N350 Co330 2.194 . S
N350 C345 1.328 . S
N350 C349 1.315 . S
H351 C345 0.929 . S
H352 C349 0.930 . S
H353 C341 0.929 . S
H354 C343 0.929 . S
O355 Co330 2.351 . S
O355 C358 1.244 . S
O356 Co330 2.155 . S
O356 C358 1.240 . S
O357 Co330 2.096 . S
O357 C338 1.247 . S
C358 O355 1.244 . S
C358 O356 1.240 . S
H359 C333 0.931 . S
H360 C342 0.931 . S
H361 C346 0.929 . S
H362 C348 0.930 . S
Co363 N367 2.148 . S
Co363 N373 2.128 . S
Co363 N383 2.194 . S
Co363 O388 2.351 . S
Co363 O389 2.155 1_545 S
Co363 O390 2.096 1_545 S
C364 N367 1.301 . S
C364 N368 1.328 . S
C364 H369 0.930 . S
C365 C366 1.333 . S
C365 N367 1.317 . S
C365 H370 0.930 1_545 S
C366 C365 1.333 . S
C366 N368 1.350 . S
C366 H392 0.931 . S
N367 Co363 2.148 . S
N367 C364 1.301 . S
N367 C365 1.317 . S
N368 C364 1.328 . S
N368 C366 1.350 . S
H369 C364 0.930 . S
H370 C365 0.930 1_565 S
C371 O372 1.224 1_565 S
C371 O390 1.247 . S
O372 C371 1.224 1_545 S
N373 Co363 2.128 . S
N373 C374 1.355 . S
N373 C376 1.311 . S
C374 N373 1.355 . S
C374 C375 1.363 . S
C374 H386 0.929 . S
C375 C374 1.363 . S
C375 N377 1.375 . S
C375 H393 0.931 . S
C376 N373 1.311 . S
C376 N377 1.347 . S
C376 H387 0.929 1_545 S
N377 C375 1.375 . S
N377 C376 1.347 . S
C378 C381 1.365 . S
C378 N383 1.328 . S
C378 H384 0.929 . S
C379 C380 1.362 . S
C379 C382 1.378 . S
C379 H394 0.929 . S
C380 C379 1.362 . S
C380 C381 1.366 . S
C381 C378 1.365 . S
C381 C380 1.366 . S
C381 H395 0.930 . S
C382 C379 1.378 . S
C382 N383 1.315 . S
C382 H385 0.930 . S
N383 Co363 2.194 . S
N383 C378 1.328 . S
N383 C382 1.315 . S
H384 C378 0.929 . S
H385 C382 0.930 . S
H386 C374 0.929 . S
H387 C376 0.929 1_565 S
O388 Co363 2.351 . S
O388 C391 1.244 . S
O389 Co363 2.155 1_565 S
O389 C391 1.240 1_565 S
O390 Co363 2.096 1_565 S
O390 C371 1.247 . S
C391 O388 1.244 . S
C391 O389 1.240 1_545 S
H392 C366 0.931 . S
H393 C375 0.931 . S
H394 C379 0.929 . S
H395 C381 0.930 . S
Co396 N400 2.148 . S
Co396 N406 2.128 . S
Co396 N416 2.194 . S
Co396 O421 2.351 . S
Co396 O422 2.155 . S
Co396 O423 2.096 . S
C397 N400 1.301 . S
C397 N401 1.328 . S
C397 H402 0.930 . S
C398 C399 1.333 . S
C398 N400 1.317 . S
C398 H403 0.930 . S
C399 C398 1.333 . S
C399 N401 1.350 . S
C399 H425 0.931 . S
N400 Co396 2.148 . S
N400 C397 1.301 . S
N400 C398 1.317 . S
N401 C397 1.328 . S
N401 C399 1.350 . S
H402 C397 0.930 . S
H403 C398 0.930 . S
C404 O405 1.224 . S
C404 O423 1.247 . S
O405 C404 1.224 . S
N406 Co396 2.128 . S
N406 C407 1.355 . S
N406 C409 1.311 . S
C407 N406 1.355 . S
C407 C408 1.363 . S
C407 H419 0.929 . S
C408 C407 1.363 . S
C408 N410 1.375 . S
C408 H426 0.931 . S
C409 N406 1.311 . S
C409 N410 1.347 . S
C409 H420 0.929 . S
N410 C408 1.375 . S
N410 C409 1.347 . S
C411 C414 1.365 . S
C411 N416 1.328 . S
C411 H417 0.929 . S
C412 C413 1.362 . S
C412 C415 1.378 . S
C412 H427 0.929 . S
C413 C412 1.362 . S
C413 C414 1.366 . S
C414 C411 1.365 . S
C414 C413 1.366 . S
C414 H428 0.930 . S
C415 C412 1.378 . S
C415 N416 1.315 . S
C415 H418 0.930 . S
N416 Co396 2.194 . S
N416 C411 1.328 . S
N416 C415 1.315 . S
H417 C411 0.929 . S
H418 C415 0.930 . S
H419 C407 0.929 . S
H420 C409 0.929 . S
O421 Co396 2.351 . S
O421 C424 1.244 . S
O422 Co396 2.155 . S
O422 C424 1.240 . S
O423 Co396 2.096 . S
O423 C404 1.247 . S
C424 O421 1.244 . S
C424 O422 1.240 . S
H425 C399 0.931 . S
H426 C408 0.931 . S
H427 C412 0.929 . S
H428 C414 0.930 . S
Co429 N433 2.148 . S
Co429 N439 2.128 . S
Co429 N449 2.194 . S
Co429 O454 2.351 . S
Co429 O455 2.155 1_565 S
Co429 O456 2.096 1_565 S
C430 N433 1.301 . S
C430 N434 1.328 . S
C430 H435 0.930 . S
C431 C432 1.333 . S
C431 N433 1.317 . S
C431 H436 0.930 1_565 S
C432 C431 1.333 . S
C432 N434 1.350 . S
C432 H458 0.931 . S
N433 Co429 2.148 . S
N433 C430 1.301 . S
N433 C431 1.317 . S
N434 C430 1.328 . S
N434 C432 1.350 . S
H435 C430 0.930 . S
H436 C431 0.930 1_545 S
C437 O438 1.224 1_545 S
C437 O456 1.247 . S
O438 C437 1.224 1_565 S
N439 Co429 2.128 . S
N439 C440 1.355 . S
N439 C442 1.311 . S
C440 N439 1.355 . S
C440 C441 1.363 . S
C440 H452 0.929 . S
C441 C440 1.363 . S
C441 N443 1.375 . S
C441 H459 0.931 . S
C442 N439 1.311 . S
C442 N443 1.347 . S
C442 H453 0.929 1_565 S
N443 C441 1.375 . S
N443 C442 1.347 . S
C444 C447 1.365 . S
C444 N449 1.328 . S
C444 H450 0.929 . S
C445 C446 1.362 . S
C445 C448 1.378 . S
C445 H460 0.929 . S
C446 C445 1.362 . S
C446 C447 1.366 . S
C447 C444 1.365 . S
C447 C446 1.366 . S
C447 H461 0.930 . S
C448 C445 1.378 . S
C448 N449 1.315 . S
C448 H451 0.930 . S
N449 Co429 2.194 . S
N449 C444 1.328 . S
N449 C448 1.315 . S
H450 C444 0.929 . S
H451 C448 0.930 . S
H452 C440 0.929 . S
H453 C442 0.929 1_545 S
O454 Co429 2.351 . S
O454 C457 1.244 . S
O455 Co429 2.155 1_545 S
O455 C457 1.240 1_545 S
O456 Co429 2.096 1_545 S
O456 C437 1.247 . S
C457 O454 1.244 . S
C457 O455 1.240 1_565 S
H458 C432 0.931 . S
H459 C441 0.931 . S
H460 C445 0.929 . S
H461 C447 0.930 . S
Co462 N466 2.148 . S
Co462 N472 2.128 . S
Co462 N482 2.194 . S
Co462 O487 2.351 . S
Co462 O488 2.155 . S
Co462 O489 2.096 . S
C463 N466 1.301 . S
C463 N467 1.328 . S
C463 H468 0.930 . S
C464 C465 1.333 . S
C464 N466 1.317 . S
C464 H469 0.930 . S
C465 C464 1.333 . S
C465 N467 1.350 . S
C465 H491 0.931 . S
N466 Co462 2.148 . S
N466 C463 1.301 . S
N466 C464 1.317 . S
N467 C463 1.328 . S
N467 C465 1.350 . S
H468 C463 0.930 . S
H469 C464 0.930 . S
C470 O471 1.224 . S
C470 O489 1.247 . S
O471 C470 1.224 . S
N472 Co462 2.128 . S
N472 C473 1.355 . S
N472 C475 1.311 . S
C473 N472 1.355 . S
C473 C474 1.363 . S
C473 H485 0.929 . S
C474 C473 1.363 . S
C474 N476 1.375 . S
C474 H492 0.931 . S
C475 N472 1.311 . S
C475 N476 1.347 . S
C475 H486 0.929 . S
N476 C474 1.375 . S
N476 C475 1.347 . S
C477 C480 1.365 . S
C477 N482 1.328 . S
C477 H483 0.929 . S
C478 C479 1.362 . S
C478 C481 1.378 . S
C478 H493 0.929 . S
C479 C478 1.362 . S
C479 C480 1.366 . S
C480 C477 1.365 . S
C480 C479 1.366 . S
C480 H494 0.930 . S
C481 C478 1.378 . S
C481 N482 1.315 . S
C481 H484 0.930 . S
N482 Co462 2.194 . S
N482 C477 1.328 . S
N482 C481 1.315 . S
H483 C477 0.929 . S
H484 C481 0.930 . S
H485 C473 0.929 . S
H486 C475 0.929 . S
O487 Co462 2.351 . S
O487 C490 1.244 . S
O488 Co462 2.155 . S
O488 C490 1.240 . S
O489 Co462 2.096 . S
O489 C470 1.247 . S
C490 O487 1.244 . S
C490 O488 1.240 . S
H491 C465 0.931 . S
H492 C474 0.931 . S
H493 C478 0.929 . S
H494 C480 0.930 . S
Co495 N499 2.148 . S
Co495 N505 2.128 . S
Co495 N515 2.194 . S
Co495 O520 2.351 . S
Co495 O521 2.155 1_545 S
Co495 O522 2.096 1_545 S
C496 N499 1.301 . S
C496 N500 1.328 . S
C496 H501 0.930 . S
C497 C498 1.333 . S
C497 N499 1.317 . S
C497 H502 0.930 1_545 S
C498 C497 1.333 . S
C498 N500 1.350 . S
C498 H524 0.931 . S
N499 Co495 2.148 . S
N499 C496 1.301 . S
N499 C497 1.317 . S
N500 C496 1.328 . S
N500 C498 1.350 . S
H501 C496 0.930 . S
H502 C497 0.930 1_565 S
C503 O504 1.224 1_565 S
C503 O522 1.247 1_455 S
O504 C503 1.224 1_545 S
N505 Co495 2.128 . S
N505 C506 1.355 . S
N505 C508 1.311 . S
C506 N505 1.355 . S
C506 C507 1.363 . S
C506 H518 0.929 . S
C507 C506 1.363 . S
C507 N509 1.375 . S
C507 H525 0.931 . S
C508 N505 1.311 . S
C508 N509 1.347 . S
C508 H519 0.929 1_545 S
N509 C507 1.375 . S
N509 C508 1.347 . S
C510 C513 1.365 . S
C510 N515 1.328 . S
C510 H516 0.929 . S
C511 C512 1.362 . S
C511 C514 1.378 . S
C511 H526 0.929 1_655 S
C512 C511 1.362 . S
C512 C513 1.366 . S
C513 C510 1.365 . S
C513 C512 1.366 . S
C513 H527 0.930 . S
C514 C511 1.378 . S
C514 N515 1.315 . S
C514 H517 0.930 1_655 S
N515 Co495 2.194 . S
N515 C510 1.328 . S
N515 C514 1.315 . S
H516 C510 0.929 . S
H517 C514 0.930 1_455 S
H518 C506 0.929 . S
H519 C508 0.929 1_565 S
O520 Co495 2.351 . S
O520 C523 1.244 . S
O521 Co495 2.155 1_565 S
O521 C523 1.240 1_565 S
O522 Co495 2.096 1_565 S
O522 C503 1.247 1_655 S
C523 O520 1.244 . S
C523 O521 1.240 1_545 S
H524 C498 0.931 . S
H525 C507 0.931 . S
H526 C511 0.929 1_455 S
H527 C513 0.930 . S
Co528 N532 2.148 . S
Co528 N538 2.128 . S
Co528 N548 2.194 . S
Co528 O553 2.351 . S
Co528 O554 2.155 . S
Co528 O555 2.096 . S
C529 N532 1.301 . S
C529 N533 1.328 . S
C529 H534 0.930 . S
C530 C531 1.333 . S
C530 N532 1.317 . S
C530 H535 0.930 . S
C531 C530 1.333 . S
C531 N533 1.350 . S
C531 H557 0.931 . S
N532 Co528 2.148 . S
N532 C529 1.301 . S
N532 C530 1.317 . S
N533 C529 1.328 . S
N533 C531 1.350 . S
H534 C529 0.930 . S
H535 C530 0.930 . S
C536 O537 1.224 . S
C536 O555 1.247 . S
O537 C536 1.224 . S
N538 Co528 2.128 . S
N538 C539 1.355 . S
N538 C541 1.311 . S
C539 N538 1.355 . S
C539 C540 1.363 . S
C539 H551 0.929 . S
C540 C539 1.363 . S
C540 N542 1.375 . S
C540 H558 0.931 . S
C541 N538 1.311 . S
C541 N542 1.347 . S
C541 H552 0.929 . S
N542 C540 1.375 . S
N542 C541 1.347 . S
C543 C546 1.365 . S
C543 N548 1.328 . S
C543 H549 0.929 . S
C544 C545 1.362 . S
C544 C547 1.378 . S
C544 H559 0.929 . S
C545 C544 1.362 . S
C545 C546 1.366 . S
C546 C543 1.365 . S
C546 C545 1.366 . S
C546 H560 0.930 . S
C547 C544 1.378 . S
C547 N548 1.315 . S
C547 H550 0.930 . S
N548 Co528 2.194 . S
N548 C543 1.328 . S
N548 C547 1.315 . S
H549 C543 0.929 . S
H550 C547 0.930 . S
H551 C539 0.929 . S
H552 C541 0.929 . S
O553 Co528 2.351 . S
O553 C556 1.244 . S
O554 Co528 2.155 . S
O554 C556 1.240 . S
O555 Co528 2.096 . S
O555 C536 1.247 . S
C556 O553 1.244 . S
C556 O554 1.240 . S
H557 C531 0.931 . S
H558 C540 0.931 . S
H559 C544 0.929 . S
H560 C546 0.930 . S
Co561 N565 2.148 . S
Co561 N571 2.128 . S
Co561 N581 2.194 . S
Co561 O586 2.351 . S
Co561 O587 2.155 . S
Co561 O588 2.096 . S
C562 N565 1.301 . S
C562 N566 1.328 . S
C562 H567 0.930 . S
C563 C564 1.333 . S
C563 N565 1.317 . S
C563 H568 0.930 . S
C564 C563 1.333 . S
C564 N566 1.350 . S
C564 H590 0.931 . S
N565 Co561 2.148 . S
N565 C562 1.301 . S
N565 C563 1.317 . S
N566 C562 1.328 . S
N566 C564 1.350 . S
H567 C562 0.930 . S
H568 C563 0.930 . S
C569 O570 1.224 . S
C569 O588 1.247 . S
O570 C569 1.224 . S
N571 Co561 2.128 . S
N571 C572 1.355 . S
N571 C574 1.311 . S
C572 N571 1.355 . S
C572 C573 1.363 . S
C572 H584 0.929 . S
C573 C572 1.363 . S
C573 N575 1.375 . S
C573 H591 0.931 . S
C574 N571 1.311 . S
C574 N575 1.347 . S
C574 H585 0.929 . S
N575 C573 1.375 . S
N575 C574 1.347 . S
C576 C579 1.365 . S
C576 N581 1.328 . S
C576 H582 0.929 . S
C577 C578 1.362 . S
C577 C580 1.378 . S
C577 H592 0.929 . S
C578 C577 1.362 . S
C578 C579 1.366 . S
C579 C576 1.365 . S
C579 C578 1.366 . S
C579 H593 0.930 . S
C580 C577 1.378 . S
C580 N581 1.315 . S
C580 H583 0.930 . S
N581 Co561 2.194 . S
N581 C576 1.328 . S
N581 C580 1.315 . S
H582 C576 0.929 . S
H583 C580 0.930 . S
H584 C572 0.929 . S
H585 C574 0.929 . S
O586 Co561 2.351 . S
O586 C589 1.244 . S
O587 Co561 2.155 . S
O587 C589 1.240 . S
O588 Co561 2.096 . S
O588 C569 1.247 . S
C589 O586 1.244 . S
C589 O587 1.240 . S
H590 C564 0.931 . S
H591 C573 0.931 . S
H592 C577 0.929 . S
H593 C579 0.930 . S
Co594 N598 2.148 . S
Co594 N604 2.128 . S
Co594 N614 2.194 . S
Co594 O619 2.351 . S
Co594 O620 2.155 . S
Co594 O621 2.096 . S
C595 N598 1.301 . S
C595 N599 1.328 . S
C595 H600 0.930 . S
C596 C597 1.333 . S
C596 N598 1.317 . S
C596 H601 0.930 . S
C597 C596 1.333 . S
C597 N599 1.350 . S
C597 H623 0.931 . S
N598 Co594 2.148 . S
N598 C595 1.301 . S
N598 C596 1.317 . S
N599 C595 1.328 . S
N599 C597 1.350 . S
H600 C595 0.930 . S
H601 C596 0.930 . S
C602 O603 1.224 . S
C602 O621 1.247 . S
O603 C602 1.224 . S
N604 Co594 2.128 . S
N604 C605 1.355 . S
N604 C607 1.311 . S
C605 N604 1.355 . S
C605 C606 1.363 . S
C605 H617 0.929 . S
C606 C605 1.363 . S
C606 N608 1.375 . S
C606 H624 0.931 . S
C607 N604 1.311 . S
C607 N608 1.347 . S
C607 H618 0.929 . S
N608 C606 1.375 . S
N608 C607 1.347 . S
C609 C612 1.365 . S
C609 N614 1.328 . S
C609 H615 0.929 . S
C610 C611 1.362 . S
C610 C613 1.378 . S
C610 H625 0.929 . S
C611 C610 1.362 . S
C611 C612 1.366 . S
C612 C609 1.365 . S
C612 C611 1.366 . S
C612 H626 0.930 . S
C613 C610 1.378 . S
C613 N614 1.315 . S
C613 H616 0.930 . S
N614 Co594 2.194 . S
N614 C609 1.328 . S
N614 C613 1.315 . S
H615 C609 0.929 . S
H616 C613 0.930 . S
H617 C605 0.929 . S
H618 C607 0.929 . S
O619 Co594 2.351 . S
O619 C622 1.244 . S
O620 Co594 2.155 . S
O620 C622 1.240 . S
O621 Co594 2.096 . S
O621 C602 1.247 . S
C622 O619 1.244 . S
C622 O620 1.240 . S
H623 C597 0.931 . S
H624 C606 0.931 . S
H625 C610 0.929 . S
H626 C612 0.930 . S
Co627 N631 2.148 . S
Co627 N637 2.128 . S
Co627 N647 2.194 . S
Co627 O652 2.351 . S
Co627 O653 2.155 . S
Co627 O654 2.096 . S
C628 N631 1.301 . S
C628 N632 1.328 . S
C628 H633 0.930 . S
C629 C630 1.333 . S
C629 N631 1.317 . S
C629 H634 0.930 . S
C630 C629 1.333 . S
C630 N632 1.350 . S
C630 H656 0.931 . S
N631 Co627 2.148 . S
N631 C628 1.301 . S
N631 C629 1.317 . S
N632 C628 1.328 . S
N632 C630 1.350 . S
H633 C628 0.930 . S
H634 C629 0.930 . S
C635 O636 1.224 . S
C635 O654 1.247 1_455 S
O636 C635 1.224 . S
N637 Co627 2.128 . S
N637 C638 1.355 . S
N637 C640 1.311 . S
C638 N637 1.355 . S
C638 C639 1.363 . S
C638 H650 0.929 . S
C639 C638 1.363 . S
C639 N641 1.375 . S
C639 H657 0.931 . S
C640 N637 1.311 . S
C640 N641 1.347 . S
C640 H651 0.929 . S
N641 C639 1.375 . S
N641 C640 1.347 . S
C642 C645 1.365 . S
C642 N647 1.328 . S
C642 H648 0.929 . S
C643 C644 1.362 . S
C643 C646 1.378 . S
C643 H658 0.929 1_655 S
C644 C643 1.362 . S
C644 C645 1.366 . S
C645 C642 1.365 . S
C645 C644 1.366 . S
C645 H659 0.930 . S
C646 C643 1.378 . S
C646 N647 1.315 . S
C646 H649 0.930 1_655 S
N647 Co627 2.194 . S
N647 C642 1.328 . S
N647 C646 1.315 . S
H648 C642 0.929 . S
H649 C646 0.930 1_455 S
H650 C638 0.929 . S
H651 C640 0.929 . S
O652 Co627 2.351 . S
O652 C655 1.244 . S
O653 Co627 2.155 . S
O653 C655 1.240 . S
O654 Co627 2.096 . S
O654 C635 1.247 1_655 S
C655 O652 1.244 . S
C655 O653 1.240 . S
H656 C630 0.931 . S
H657 C639 0.931 . S
H658 C643 0.929 1_455 S
H659 C645 0.930 . S
Co660 N664 2.148 . S
Co660 N670 2.128 . S
Co660 N680 2.194 . S
Co660 O685 2.351 . S
Co660 O686 2.155 . S
Co660 O687 2.096 . S
C661 N664 1.301 . S
C661 N665 1.328 . S
C661 H666 0.930 . S
C662 C663 1.333 . S
C662 N664 1.317 . S
C662 H667 0.930 . S
C663 C662 1.333 . S
C663 N665 1.350 . S
C663 H689 0.931 . S
N664 Co660 2.148 . S
N664 C661 1.301 . S
N664 C662 1.317 . S
N665 C661 1.328 . S
N665 C663 1.350 . S
H666 C661 0.930 . S
H667 C662 0.930 . S
C668 O669 1.224 . S
C668 O687 1.247 . S
O669 C668 1.224 . S
N670 Co660 2.128 . S
N670 C671 1.355 . S
N670 C673 1.311 . S
C671 N670 1.355 . S
C671 C672 1.363 . S
C671 H683 0.929 . S
C672 C671 1.363 . S
C672 N674 1.375 . S
C672 H690 0.931 . S
C673 N670 1.311 . S
C673 N674 1.347 . S
C673 H684 0.929 . S
N674 C672 1.375 . S
N674 C673 1.347 . S
C675 C678 1.365 . S
C675 N680 1.328 . S
C675 H681 0.929 . S
C676 C677 1.362 . S
C676 C679 1.378 . S
C676 H691 0.929 . S
C677 C676 1.362 . S
C677 C678 1.366 . S
C678 C675 1.365 . S
C678 C677 1.366 . S
C678 H692 0.930 . S
C679 C676 1.378 . S
C679 N680 1.315 . S
C679 H682 0.930 . S
N680 Co660 2.194 . S
N680 C675 1.328 . S
N680 C679 1.315 . S
H681 C675 0.929 . S
H682 C679 0.930 . S
H683 C671 0.929 . S
H684 C673 0.929 . S
O685 Co660 2.351 . S
O685 C688 1.244 . S
O686 Co660 2.155 . S
O686 C688 1.240 . S
O687 Co660 2.096 . S
O687 C668 1.247 . S
C688 O685 1.244 . S
C688 O686 1.240 . S
H689 C663 0.931 . S
H690 C672 0.931 . S
H691 C676 0.929 . S
H692 C678 0.930 . S
Co693 N697 2.148 . S
Co693 N703 2.128 . S
Co693 N713 2.194 . S
Co693 O718 2.351 . S
Co693 O719 2.155 . S
Co693 O720 2.096 . S
C694 N697 1.301 . S
C694 N698 1.328 . S
C694 H699 0.930 . S
C695 C696 1.333 . S
C695 N697 1.317 . S
C695 H700 0.930 . S
C696 C695 1.333 . S
C696 N698 1.350 . S
C696 H722 0.931 . S
N697 Co693 2.148 . S
N697 C694 1.301 . S
N697 C695 1.317 . S
N698 C694 1.328 . S
N698 C696 1.350 . S
H699 C694 0.930 . S
H700 C695 0.930 . S
C701 O702 1.224 . S
C701 O720 1.247 1_455 S
O702 C701 1.224 . S
N703 Co693 2.128 . S
N703 C704 1.355 . S
N703 C706 1.311 . S
C704 N703 1.355 . S
C704 C705 1.363 . S
C704 H716 0.929 . S
C705 C704 1.363 . S
C705 N707 1.375 . S
C705 H723 0.931 . S
C706 N703 1.311 . S
C706 N707 1.347 . S
C706 H717 0.929 . S
N707 C705 1.375 . S
N707 C706 1.347 . S
C708 C711 1.365 . S
C708 N713 1.328 . S
C708 H714 0.929 . S
C709 C710 1.362 . S
C709 C712 1.378 . S
C709 H724 0.929 1_655 S
C710 C709 1.362 . S
C710 C711 1.366 . S
C711 C708 1.365 . S
C711 C710 1.366 . S
C711 H725 0.930 . S
C712 C709 1.378 . S
C712 N713 1.315 . S
C712 H715 0.930 1_655 S
N713 Co693 2.194 . S
N713 C708 1.328 . S
N713 C712 1.315 . S
H714 C708 0.929 . S
H715 C712 0.930 1_455 S
H716 C704 0.929 . S
H717 C706 0.929 . S
O718 Co693 2.351 . S
O718 C721 1.244 . S
O719 Co693 2.155 . S
O719 C721 1.240 . S
O720 Co693 2.096 . S
O720 C701 1.247 1_655 S
C721 O718 1.244 . S
C721 O719 1.240 . S
H722 C696 0.931 . S
H723 C705 0.931 . S
H724 C709 0.929 1_455 S
H725 C711 0.930 . S
Co726 N730 2.148 . S
Co726 N736 2.128 . S
Co726 N746 2.194 . S
Co726 O751 2.351 . S
Co726 O752 2.155 . S
Co726 O753 2.096 . S
C727 N730 1.301 . S
C727 N731 1.328 . S
C727 H732 0.930 . S
C728 C729 1.333 . S
C728 N730 1.317 . S
C728 H733 0.930 . S
C729 C728 1.333 . S
C729 N731 1.350 . S
C729 H755 0.931 . S
N730 Co726 2.148 . S
N730 C727 1.301 . S
N730 C728 1.317 . S
N731 C727 1.328 . S
N731 C729 1.350 . S
H732 C727 0.930 . S
H733 C728 0.930 . S
C734 O735 1.224 . S
C734 O753 1.247 . S
O735 C734 1.224 . S
N736 Co726 2.128 . S
N736 C737 1.355 . S
N736 C739 1.311 . S
C737 N736 1.355 . S
C737 C738 1.363 . S
C737 H749 0.929 . S
C738 C737 1.363 . S
C738 N740 1.375 . S
C738 H756 0.931 . S
C739 N736 1.311 . S
C739 N740 1.347 . S
C739 H750 0.929 . S
N740 C738 1.375 . S
N740 C739 1.347 . S
C741 C744 1.365 . S
C741 N746 1.328 . S
C741 H747 0.929 . S
C742 C743 1.362 . S
C742 C745 1.378 . S
C742 H757 0.929 . S
C743 C742 1.362 . S
C743 C744 1.366 . S
C744 C741 1.365 . S
C744 C743 1.366 . S
C744 H758 0.930 . S
C745 C742 1.378 . S
C745 N746 1.315 . S
C745 H748 0.930 . S
N746 Co726 2.194 . S
N746 C741 1.328 . S
N746 C745 1.315 . S
H747 C741 0.929 . S
H748 C745 0.930 . S
H749 C737 0.929 . S
H750 C739 0.929 . S
O751 Co726 2.351 . S
O751 C754 1.244 . S
O752 Co726 2.155 . S
O752 C754 1.240 . S
O753 Co726 2.096 . S
O753 C734 1.247 . S
C754 O751 1.244 . S
C754 O752 1.240 . S
H755 C729 0.931 . S
H756 C738 0.931 . S
H757 C742 0.929 . S
H758 C744 0.930 . S
Co759 N763 2.148 . S
Co759 N769 2.128 . S
Co759 N779 2.194 . S
Co759 O784 2.351 . S
Co759 O785 2.155 . S
Co759 O786 2.096 . S
C760 N763 1.301 . S
C760 N764 1.328 . S
C760 H765 0.930 . S
C761 C762 1.333 . S
C761 N763 1.317 . S
C761 H766 0.930 . S
C762 C761 1.333 . S
C762 N764 1.350 . S
C762 H788 0.931 . S
N763 Co759 2.148 . S
N763 C760 1.301 . S
N763 C761 1.317 . S
N764 C760 1.328 . S
N764 C762 1.350 . S
H765 C760 0.930 . S
H766 C761 0.930 . S
C767 O768 1.224 . S
C767 O786 1.247 . S
O768 C767 1.224 . S
N769 Co759 2.128 . S
N769 C770 1.355 . S
N769 C772 1.311 . S
C770 N769 1.355 . S
C770 C771 1.363 . S
C770 H782 0.929 . S
C771 C770 1.363 . S
C771 N773 1.375 . S
C771 H789 0.931 . S
C772 N769 1.311 . S
C772 N773 1.347 . S
C772 H783 0.929 . S
N773 C771 1.375 . S
N773 C772 1.347 . S
C774 C777 1.365 . S
C774 N779 1.328 . S
C774 H780 0.929 . S
C775 C776 1.362 . S
C775 C778 1.378 . S
C775 H790 0.929 . S
C776 C775 1.362 . S
C776 C777 1.366 . S
C777 C774 1.365 . S
C777 C776 1.366 . S
C777 H791 0.930 . S
C778 C775 1.378 . S
C778 N779 1.315 . S
C778 H781 0.930 . S
N779 Co759 2.194 . S
N779 C774 1.328 . S
N779 C778 1.315 . S
H780 C774 0.929 . S
H781 C778 0.930 . S
H782 C770 0.929 . S
H783 C772 0.929 . S
O784 Co759 2.351 . S
O784 C787 1.244 . S
O785 Co759 2.155 . S
O785 C787 1.240 . S
O786 Co759 2.096 . S
O786 C767 1.247 . S
C787 O784 1.244 . S
C787 O785 1.240 . S
H788 C762 0.931 . S
H789 C771 0.931 . S
H790 C775 0.929 . S
H791 C777 0.930 . S
Co792 N796 2.148 . S
Co792 N802 2.128 . S
Co792 N812 2.194 . S
Co792 O817 2.351 . S
Co792 O818 2.155 . S
Co792 O819 2.096 . S
C793 N796 1.301 . S
C793 N797 1.328 . S
C793 H798 0.930 . S
C794 C795 1.333 . S
C794 N796 1.317 . S
C794 H799 0.930 . S
C795 C794 1.333 . S
C795 N797 1.350 . S
C795 H821 0.931 . S
N796 Co792 2.148 . S
N796 C793 1.301 . S
N796 C794 1.317 . S
N797 C793 1.328 . S
N797 C795 1.350 . S
H798 C793 0.930 . S
H799 C794 0.930 . S
C800 O801 1.224 . S
C800 O819 1.247 . S
O801 C800 1.224 . S
N802 Co792 2.128 . S
N802 C803 1.355 . S
N802 C805 1.311 . S
C803 N802 1.355 . S
C803 C804 1.363 . S
C803 H815 0.929 . S
C804 C803 1.363 . S
C804 N806 1.375 . S
C804 H822 0.931 . S
C805 N802 1.311 . S
C805 N806 1.347 . S
C805 H816 0.929 . S
N806 C804 1.375 . S
N806 C805 1.347 . S
C807 C810 1.365 . S
C807 N812 1.328 . S
C807 H813 0.929 . S
C808 C809 1.362 . S
C808 C811 1.378 . S
C808 H823 0.929 . S
C809 C808 1.362 . S
C809 C810 1.366 . S
C810 C807 1.365 . S
C810 C809 1.366 . S
C810 H824 0.930 . S
C811 C808 1.378 . S
C811 N812 1.315 . S
C811 H814 0.930 . S
N812 Co792 2.194 . S
N812 C807 1.328 . S
N812 C811 1.315 . S
H813 C807 0.929 . S
H814 C811 0.930 . S
H815 C803 0.929 . S
H816 C805 0.929 . S
O817 Co792 2.351 . S
O817 C820 1.244 . S
O818 Co792 2.155 . S
O818 C820 1.240 . S
O819 Co792 2.096 . S
O819 C800 1.247 . S
C820 O817 1.244 . S
C820 O818 1.240 . S
H821 C795 0.931 . S
H822 C804 0.931 . S
H823 C808 0.929 . S
H824 C810 0.930 . S
Co825 N829 2.148 . S
Co825 N835 2.128 . S
Co825 N845 2.194 . S
Co825 O850 2.351 . S
Co825 O851 2.155 . S
Co825 O852 2.096 . S
C826 N829 1.301 . S
C826 N830 1.328 . S
C826 H831 0.930 . S
C827 C828 1.333 . S
C827 N829 1.317 . S
C827 H832 0.930 . S
C828 C827 1.333 . S
C828 N830 1.350 . S
C828 H854 0.931 . S
N829 Co825 2.148 . S
N829 C826 1.301 . S
N829 C827 1.317 . S
N830 C826 1.328 . S
N830 C828 1.350 . S
H831 C826 0.930 . S
H832 C827 0.930 . S
C833 O834 1.224 . S
C833 O852 1.247 . S
O834 C833 1.224 . S
N835 Co825 2.128 . S
N835 C836 1.355 . S
N835 C838 1.311 . S
C836 N835 1.355 . S
C836 C837 1.363 . S
C836 H848 0.929 . S
C837 C836 1.363 . S
C837 N839 1.375 . S
C837 H855 0.931 . S
C838 N835 1.311 . S
C838 N839 1.347 . S
C838 H849 0.929 . S
N839 C837 1.375 . S
N839 C838 1.347 . S
C840 C843 1.365 . S
C840 N845 1.328 . S
C840 H846 0.929 . S
C841 C842 1.362 . S
C841 C844 1.378 . S
C841 H856 0.929 . S
C842 C841 1.362 . S
C842 C843 1.366 . S
C843 C840 1.365 . S
C843 C842 1.366 . S
C843 H857 0.930 . S
C844 C841 1.378 . S
C844 N845 1.315 . S
C844 H847 0.930 . S
N845 Co825 2.194 . S
N845 C840 1.328 . S
N845 C844 1.315 . S
H846 C840 0.929 . S
H847 C844 0.930 . S
H848 C836 0.929 . S
H849 C838 0.929 . S
O850 Co825 2.351 . S
O850 C853 1.244 . S
O851 Co825 2.155 . S
O851 C853 1.240 . S
O852 Co825 2.096 . S
O852 C833 1.247 . S
C853 O850 1.244 . S
C853 O851 1.240 . S
H854 C828 0.931 . S
H855 C837 0.931 . S
H856 C841 0.929 . S
H857 C843 0.930 . S
Co858 N862 2.148 . S
Co858 N868 2.128 . S
Co858 N878 2.194 . S
Co858 O883 2.351 . S
Co858 O884 2.155 . S
Co858 O885 2.096 . S
C859 N862 1.301 . S
C859 N863 1.328 . S
C859 H864 0.930 . S
C860 C861 1.333 . S
C860 N862 1.317 . S
C860 H865 0.930 . S
C861 C860 1.333 . S
C861 N863 1.350 . S
C861 H887 0.931 . S
N862 Co858 2.148 . S
N862 C859 1.301 . S
N862 C860 1.317 . S
N863 C859 1.328 . S
N863 C861 1.350 . S
H864 C859 0.930 . S
H865 C860 0.930 . S
C866 O867 1.224 . S
C866 O885 1.247 . S
O867 C866 1.224 . S
N868 Co858 2.128 . S
N868 C869 1.355 . S
N868 C871 1.311 . S
C869 N868 1.355 . S
C869 C870 1.363 . S
C869 H881 0.929 . S
C870 C869 1.363 . S
C870 N872 1.375 . S
C870 H888 0.931 . S
C871 N868 1.311 . S
C871 N872 1.347 . S
C871 H882 0.929 . S
N872 C870 1.375 . S
N872 C871 1.347 . S
C873 C876 1.365 . S
C873 N878 1.328 . S
C873 H879 0.929 . S
C874 C875 1.362 . S
C874 C877 1.378 . S
C874 H889 0.929 . S
C875 C874 1.362 . S
C875 C876 1.366 . S
C876 C873 1.365 . S
C876 C875 1.366 . S
C876 H890 0.930 . S
C877 C874 1.378 . S
C877 N878 1.315 . S
C877 H880 0.930 . S
N878 Co858 2.194 . S
N878 C873 1.328 . S
N878 C877 1.315 . S
H879 C873 0.929 . S
H880 C877 0.930 . S
H881 C869 0.929 . S
H882 C871 0.929 . S
O883 Co858 2.351 . S
O883 C886 1.244 . S
O884 Co858 2.155 . S
O884 C886 1.240 . S
O885 Co858 2.096 . S
O885 C866 1.247 . S
C886 O883 1.244 . S
C886 O884 1.240 . S
H887 C861 0.931 . S
H888 C870 0.931 . S
H889 C874 0.929 . S
H890 C876 0.930 . S
Co891 N895 2.148 . S
Co891 N901 2.128 . S
Co891 N911 2.194 . S
Co891 O916 2.351 . S
Co891 O917 2.155 . S
Co891 O918 2.096 . S
C892 N895 1.301 . S
C892 N896 1.328 . S
C892 H897 0.930 . S
C893 C894 1.333 . S
C893 N895 1.317 . S
C893 H898 0.930 . S
C894 C893 1.333 . S
C894 N896 1.350 . S
C894 H920 0.931 . S
N895 Co891 2.148 . S
N895 C892 1.301 . S
N895 C893 1.317 . S
N896 C892 1.328 . S
N896 C894 1.350 . S
H897 C892 0.930 . S
H898 C893 0.930 . S
C899 O900 1.224 . S
C899 O918 1.247 1_655 S
O900 C899 1.224 . S
N901 Co891 2.128 . S
N901 C902 1.355 . S
N901 C904 1.311 . S
C902 N901 1.355 . S
C902 C903 1.363 . S
C902 H914 0.929 . S
C903 C902 1.363 . S
C903 N905 1.375 . S
C903 H921 0.931 . S
C904 N901 1.311 . S
C904 N905 1.347 . S
C904 H915 0.929 . S
N905 C903 1.375 . S
N905 C904 1.347 . S
C906 C909 1.365 . S
C906 N911 1.328 . S
C906 H912 0.929 . S
C907 C908 1.362 . S
C907 C910 1.378 . S
C907 H922 0.929 1_455 S
C908 C907 1.362 . S
C908 C909 1.366 . S
C909 C906 1.365 . S
C909 C908 1.366 . S
C909 H923 0.930 . S
C910 C907 1.378 . S
C910 N911 1.315 . S
C910 H913 0.930 1_455 S
N911 Co891 2.194 . S
N911 C906 1.328 . S
N911 C910 1.315 . S
H912 C906 0.929 . S
H913 C910 0.930 1_655 S
H914 C902 0.929 . S
H915 C904 0.929 . S
O916 Co891 2.351 . S
O916 C919 1.244 . S
O917 Co891 2.155 . S
O917 C919 1.240 . S
O918 Co891 2.096 . S
O918 C899 1.247 1_455 S
C919 O916 1.244 . S
C919 O917 1.240 . S
H920 C894 0.931 . S
H921 C903 0.931 . S
H922 C907 0.929 1_655 S
H923 C909 0.930 . S
Co924 N928 2.148 . S
Co924 N934 2.128 . S
Co924 N944 2.194 . S
Co924 O949 2.351 . S
Co924 O950 2.155 . S
Co924 O951 2.096 . S
C925 N928 1.301 . S
C925 N929 1.328 . S
C925 H930 0.930 . S
C926 C927 1.333 . S
C926 N928 1.317 . S
C926 H931 0.930 . S
C927 C926 1.333 . S
C927 N929 1.350 . S
C927 H953 0.931 . S
N928 Co924 2.148 . S
N928 C925 1.301 . S
N928 C926 1.317 . S
N929 C925 1.328 . S
N929 C927 1.350 . S
H930 C925 0.930 . S
H931 C926 0.930 . S
C932 O933 1.224 . S
C932 O951 1.247 . S
O933 C932 1.224 . S
N934 Co924 2.128 . S
N934 C935 1.355 . S
N934 C937 1.311 . S
C935 N934 1.355 . S
C935 C936 1.363 . S
C935 H947 0.929 . S
C936 C935 1.363 . S
C936 N938 1.375 . S
C936 H954 0.931 . S
C937 N934 1.311 . S
C937 N938 1.347 . S
C937 H948 0.929 . S
N938 C936 1.375 . S
N938 C937 1.347 . S
C939 C942 1.365 . S
C939 N944 1.328 . S
C939 H945 0.929 . S
C940 C941 1.362 . S
C940 C943 1.378 . S
C940 H955 0.929 . S
C941 C940 1.362 . S
C941 C942 1.366 . S
C942 C939 1.365 . S
C942 C941 1.366 . S
C942 H956 0.930 . S
C943 C940 1.378 . S
C943 N944 1.315 . S
C943 H946 0.930 . S
N944 Co924 2.194 . S
N944 C939 1.328 . S
N944 C943 1.315 . S
H945 C939 0.929 . S
H946 C943 0.930 . S
H947 C935 0.929 . S
H948 C937 0.929 . S
O949 Co924 2.351 . S
O949 C952 1.244 . S
O950 Co924 2.155 . S
O950 C952 1.240 . S
O951 Co924 2.096 . S
O951 C932 1.247 . S
C952 O949 1.244 . S
C952 O950 1.240 . S
H953 C927 0.931 . S
H954 C936 0.931 . S
H955 C940 0.929 . S
H956 C942 0.930 . S
Co957 N961 2.148 . S
Co957 N967 2.128 . S
Co957 N977 2.194 . S
Co957 O982 2.351 . S
Co957 O983 2.155 . S
Co957 O984 2.096 . S
C958 N961 1.301 . S
C958 N962 1.328 . S
C958 H963 0.930 . S
C959 C960 1.333 . S
C959 N961 1.317 . S
C959 H964 0.930 . S
C960 C959 1.333 . S
C960 N962 1.350 . S
C960 H986 0.931 . S
N961 Co957 2.148 . S
N961 C958 1.301 . S
N961 C959 1.317 . S
N962 C958 1.328 . S
N962 C960 1.350 . S
H963 C958 0.930 . S
H964 C959 0.930 . S
C965 O966 1.224 . S
C965 O984 1.247 1_655 S
O966 C965 1.224 . S
N967 Co957 2.128 . S
N967 C968 1.355 . S
N967 C970 1.311 . S
C968 N967 1.355 . S
C968 C969 1.363 . S
C968 H980 0.929 . S
C969 C968 1.363 . S
C969 N971 1.375 . S
C969 H987 0.931 . S
C970 N967 1.311 . S
C970 N971 1.347 . S
C970 H981 0.929 . S
N971 C969 1.375 . S
N971 C970 1.347 . S
C972 C975 1.365 . S
C972 N977 1.328 . S
C972 H978 0.929 . S
C973 C974 1.362 . S
C973 C976 1.378 . S
C973 H988 0.929 1_455 S
C974 C973 1.362 . S
C974 C975 1.366 . S
C975 C972 1.365 . S
C975 C974 1.366 . S
C975 H989 0.930 . S
C976 C973 1.378 . S
C976 N977 1.315 . S
C976 H979 0.930 1_455 S
N977 Co957 2.194 . S
N977 C972 1.328 . S
N977 C976 1.315 . S
H978 C972 0.929 . S
H979 C976 0.930 1_655 S
H980 C968 0.929 . S
H981 C970 0.929 . S
O982 Co957 2.351 . S
O982 C985 1.244 . S
O983 Co957 2.155 . S
O983 C985 1.240 . S
O984 Co957 2.096 . S
O984 C965 1.247 1_455 S
C985 O982 1.244 . S
C985 O983 1.240 . S
H986 C960 0.931 . S
H987 C969 0.931 . S
H988 C973 0.929 1_655 S
H989 C975 0.930 . S
Co990 N994 2.148 . S
Co990 N1000 2.128 . S
Co990 N1010 2.194 . S
Co990 O1015 2.351 . S
Co990 O1016 2.155 . S
Co990 O1017 2.096 . S
C991 N994 1.301 . S
C991 N995 1.328 . S
C991 H996 0.930 . S
C992 C993 1.333 . S
C992 N994 1.317 . S
C992 H997 0.930 . S
C993 C992 1.333 . S
C993 N995 1.350 . S
C993 H1019 0.931 . S
N994 Co990 2.148 . S
N994 C991 1.301 . S
N994 C992 1.317 . S
N995 C991 1.328 . S
N995 C993 1.350 . S
H996 C991 0.930 . S
H997 C992 0.930 . S
C998 O999 1.224 . S
C998 O1017 1.247 . S
O999 C998 1.224 . S
N1000 Co990 2.128 . S
N1000 C1001 1.355 . S
N1000 C1003 1.311 . S
C1001 N1000 1.355 . S
C1001 C1002 1.363 . S
C1001 H1013 0.929 . S
C1002 C1001 1.363 . S
C1002 N1004 1.375 . S
C1002 H1020 0.931 . S
C1003 N1000 1.311 . S
C1003 N1004 1.347 . S
C1003 H1014 0.929 . S
N1004 C1002 1.375 . S
N1004 C1003 1.347 . S
C1005 C1008 1.365 . S
C1005 N1010 1.328 . S
C1005 H1011 0.929 . S
C1006 C1007 1.362 . S
C1006 C1009 1.378 . S
C1006 H1021 0.929 . S
C1007 C1006 1.362 . S
C1007 C1008 1.366 . S
C1008 C1005 1.365 . S
C1008 C1007 1.366 . S
C1008 H1022 0.930 . S
C1009 C1006 1.378 . S
C1009 N1010 1.315 . S
C1009 H1012 0.930 . S
N1010 Co990 2.194 . S
N1010 C1005 1.328 . S
N1010 C1009 1.315 . S
H1011 C1005 0.929 . S
H1012 C1009 0.930 . S
H1013 C1001 0.929 . S
H1014 C1003 0.929 . S
O1015 Co990 2.351 . S
O1015 C1018 1.244 . S
O1016 Co990 2.155 . S
O1016 C1018 1.240 . S
O1017 Co990 2.096 . S
O1017 C998 1.247 . S
C1018 O1015 1.244 . S
C1018 O1016 1.240 . S
H1019 C993 0.931 . S
H1020 C1002 0.931 . S
H1021 C1006 0.929 . S
H1022 C1008 0.930 . S
Co1023 N1027 2.148 . S
Co1023 N1033 2.128 . S
Co1023 N1043 2.194 . S
Co1023 O1048 2.351 . S
Co1023 O1049 2.155 . S
Co1023 O1050 2.096 . S
C1024 N1027 1.301 . S
C1024 N1028 1.328 . S
C1024 H1029 0.930 . S
C1025 C1026 1.333 . S
C1025 N1027 1.317 . S
C1025 H1030 0.930 . S
C1026 C1025 1.333 . S
C1026 N1028 1.350 . S
C1026 H1052 0.931 . S
N1027 Co1023 2.148 . S
N1027 C1024 1.301 . S
N1027 C1025 1.317 . S
N1028 C1024 1.328 . S
N1028 C1026 1.350 . S
H1029 C1024 0.930 . S
H1030 C1025 0.930 . S
C1031 O1032 1.224 . S
C1031 O1050 1.247 . S
O1032 C1031 1.224 . S
N1033 Co1023 2.128 . S
N1033 C1034 1.355 . S
N1033 C1036 1.311 . S
C1034 N1033 1.355 . S
C1034 C1035 1.363 . S
C1034 H1046 0.929 . S
C1035 C1034 1.363 . S
C1035 N1037 1.375 . S
C1035 H1053 0.931 . S
C1036 N1033 1.311 . S
C1036 N1037 1.347 . S
C1036 H1047 0.929 . S
N1037 C1035 1.375 . S
N1037 C1036 1.347 . S
C1038 C1041 1.365 . S
C1038 N1043 1.328 . S
C1038 H1044 0.929 . S
C1039 C1040 1.362 . S
C1039 C1042 1.378 . S
C1039 H1054 0.929 . S
C1040 C1039 1.362 . S
C1040 C1041 1.366 . S
C1041 C1038 1.365 . S
C1041 C1040 1.366 . S
C1041 H1055 0.930 . S
C1042 C1039 1.378 . S
C1042 N1043 1.315 . S
C1042 H1045 0.930 . S
N1043 Co1023 2.194 . S
N1043 C1038 1.328 . S
N1043 C1042 1.315 . S
H1044 C1038 0.929 . S
H1045 C1042 0.930 . S
H1046 C1034 0.929 . S
H1047 C1036 0.929 . S
O1048 Co1023 2.351 . S
O1048 C1051 1.244 . S
O1049 Co1023 2.155 . S
O1049 C1051 1.240 . S
O1050 Co1023 2.096 . S
O1050 C1031 1.247 . S
C1051 O1048 1.244 . S
C1051 O1049 1.240 . S
H1052 C1026 0.931 . S
H1053 C1035 0.931 . S
H1054 C1039 0.929 . S
H1055 C1041 0.930 . S
H1056 C1064 0.950 . S
H1057 C1069 0.950 . S
H1058 C1066 0.950 . S
H1059 C1068 0.950 . S
H1060 C1070 0.950 . S
H1061 C1072 0.950 . S
H1062 C1074 0.950 . S
H1063 C1075 0.950 . S
C1064 H1056 0.950 . S
C1064 C1065 1.386 . S
C1064 C1066 1.391 . S
C1065 C1064 1.386 . S
C1065 C1069 1.393 . S
C1066 H1058 0.950 . S
C1066 C1064 1.391 . S
C1066 C1067 1.400 . S
C1067 C1066 1.400 . S
C1067 C1068 1.398 . S
C1067 C1073 1.491 . S
C1068 H1059 0.950 . S
C1068 C1067 1.398 . S
C1068 C1069 1.391 . S
C1069 H1057 0.950 . S
C1069 C1065 1.393 . S
C1069 C1068 1.391 . S
C1070 H1060 0.950 . S
C1070 C1071 1.386 . S
C1070 C1072 1.391 . S
C1071 C1070 1.386 . S
C1071 C1075 1.393 . S
C1072 H1061 0.950 . S
C1072 C1070 1.391 . S
C1072 C1073 1.400 . S
C1073 C1067 1.491 . S
C1073 C1072 1.400 . S
C1073 C1074 1.398 . S
C1074 H1062 0.950 . S
C1074 C1073 1.398 . S
C1074 C1075 1.391 . S
C1075 H1063 0.950 . S
C1075 C1071 1.393 . S
C1075 C1074 1.391 . S
H1076 C1084 0.950 . S
H1077 C1089 0.950 . S
H1078 C1086 0.950 . S
H1079 C1088 0.950 1_455 S
H1080 C1090 0.950 . S
H1081 C1092 0.950 . S
H1082 C1094 0.950 1_655 S
H1083 C1095 0.950 . S
C1084 H1076 0.950 . S
C1084 C1085 1.386 . S
C1084 C1086 1.391 . S
C1085 C1084 1.386 . S
C1085 C1089 1.393 . S
C1086 H1078 0.950 . S
C1086 C1084 1.391 . S
C1086 C1087 1.400 . S
C1087 C1086 1.400 . S
C1087 C1088 1.398 . S
C1087 C1093 1.491 1_655 S
C1088 H1079 0.950 1_655 S
C1088 C1087 1.398 . S
C1088 C1089 1.391 . S
C1089 H1077 0.950 . S
C1089 C1085 1.393 . S
C1089 C1088 1.391 . S
C1090 H1080 0.950 . S
C1090 C1091 1.386 . S
C1090 C1092 1.391 . S
C1091 C1090 1.386 . S
C1091 C1095 1.393 . S
C1092 H1081 0.950 . S
C1092 C1090 1.391 . S
C1092 C1093 1.400 . S
C1093 C1087 1.491 1_455 S
C1093 C1092 1.400 . S
C1093 C1094 1.398 . S
C1094 H1082 0.950 1_455 S
C1094 C1093 1.398 . S
C1094 C1095 1.391 . S
C1095 H1083 0.950 . S
C1095 C1091 1.393 . S
C1095 C1094 1.391 . S
H1096 C1104 0.950 . S
H1097 C1109 0.950 . S
H1098 C1106 0.950 . S
H1099 C1108 0.950 . S
H1100 C1110 0.950 . S
H1101 C1112 0.950 . S
H1102 C1114 0.950 . S
H1103 C1115 0.950 . S
C1104 H1096 0.950 . S
C1104 C1105 1.386 . S
C1104 C1106 1.391 . S
C1105 C1104 1.386 . S
C1105 C1109 1.393 . S
C1106 H1098 0.950 . S
C1106 C1104 1.391 . S
C1106 C1107 1.400 . S
C1107 C1106 1.400 . S
C1107 C1108 1.398 . S
C1107 C1113 1.491 1_655 S
C1108 H1099 0.950 . S
C1108 C1107 1.398 . S
C1108 C1109 1.391 . S
C1109 H1097 0.950 . S
C1109 C1105 1.393 . S
C1109 C1108 1.391 . S
C1110 H1100 0.950 . S
C1110 C1111 1.386 . S
C1110 C1112 1.391 . S
C1111 C1110 1.386 . S
C1111 C1115 1.393 . S
C1112 H1101 0.950 . S
C1112 C1110 1.391 . S
C1112 C1113 1.400 . S
C1113 C1107 1.491 1_455 S
C1113 C1112 1.400 . S
C1113 C1114 1.398 . S
C1114 H1102 0.950 . S
C1114 C1113 1.398 . S
C1114 C1115 1.391 . S
C1115 H1103 0.950 . S
C1115 C1111 1.393 . S
C1115 C1114 1.391 . S
H1116 C1124 0.950 . S
H1117 C1129 0.950 . S
H1118 C1126 0.950 . S
H1119 C1128 0.950 . S
H1120 C1130 0.950 . S
H1121 C1132 0.950 . S
H1122 C1134 0.950 . S
H1123 C1135 0.950 . S
C1124 H1116 0.950 . S
C1124 C1125 1.386 . S
C1124 C1126 1.391 . S
C1125 C1124 1.386 . S
C1125 C1129 1.393 . S
C1126 H1118 0.950 . S
C1126 C1124 1.391 . S
C1126 C1127 1.400 . S
C1127 C1126 1.400 . S
C1127 C1128 1.398 . S
C1127 C1133 1.491 . S
C1128 H1119 0.950 . S
C1128 C1127 1.398 . S
C1128 C1129 1.391 . S
C1129 H1117 0.950 . S
C1129 C1125 1.393 . S
C1129 C1128 1.391 . S
C1130 H1120 0.950 . S
C1130 C1131 1.386 . S
C1130 C1132 1.391 . S
C1131 C1130 1.386 . S
C1131 C1135 1.393 . S
C1132 H1121 0.950 . S
C1132 C1130 1.391 . S
C1132 C1133 1.400 . S
C1133 C1127 1.491 . S
C1133 C1132 1.400 . S
C1133 C1134 1.398 . S
C1134 H1122 0.950 . S
C1134 C1133 1.398 . S
C1134 C1135 1.391 . S
C1135 H1123 0.950 . S
C1135 C1131 1.393 . S
C1135 C1134 1.391 . S
H1136 C1144 0.950 . S
H1137 C1149 0.950 . S
H1138 C1146 0.950 . S
H1139 C1148 0.950 . S
H1140 C1150 0.950 . S
H1141 C1152 0.950 . S
H1142 C1154 0.950 . S
H1143 C1155 0.950 . S
C1144 H1136 0.950 . S
C1144 C1145 1.386 . S
C1144 C1146 1.391 . S
C1145 C1144 1.386 . S
C1145 C1149 1.393 . S
C1146 H1138 0.950 . S
C1146 C1144 1.391 . S
C1146 C1147 1.400 . S
C1147 C1146 1.400 . S
C1147 C1148 1.398 . S
C1147 C1153 1.491 . S
C1148 H1139 0.950 . S
C1148 C1147 1.398 . S
C1148 C1149 1.391 . S
C1149 H1137 0.950 . S
C1149 C1145 1.393 . S
C1149 C1148 1.391 . S
C1150 H1140 0.950 . S
C1150 C1151 1.386 . S
C1150 C1152 1.391 . S
C1151 C1150 1.386 . S
C1151 C1155 1.393 . S
C1152 H1141 0.950 . S
C1152 C1150 1.391 . S
C1152 C1153 1.400 . S
C1153 C1147 1.491 . S
C1153 C1152 1.400 . S
C1153 C1154 1.398 . S
C1154 H1142 0.950 . S
C1154 C1153 1.398 . S
C1154 C1155 1.391 . S
C1155 H1143 0.950 . S
C1155 C1151 1.393 . S
C1155 C1154 1.391 . S
H1156 C1164 0.950 . S
H1157 C1169 0.950 . S
H1158 C1166 0.950 . S
H1159 C1168 0.950 . S
H1160 C1170 0.950 . S
H1161 C1172 0.950 . S
H1162 C1174 0.950 . S
H1163 C1175 0.950 . S
C1164 H1156 0.950 . S
C1164 C1165 1.386 . S
C1164 C1166 1.391 . S
C1165 C1164 1.386 . S
C1165 C1169 1.393 . S
C1166 H1158 0.950 . S
C1166 C1164 1.391 . S
C1166 C1167 1.400 . S
C1167 C1166 1.400 . S
C1167 C1168 1.398 . S
C1167 C1173 1.491 . S
C1168 H1159 0.950 . S
C1168 C1167 1.398 . S
C1168 C1169 1.391 . S
C1169 H1157 0.950 . S
C1169 C1165 1.393 . S
C1169 C1168 1.391 . S
C1170 H1160 0.950 . S
C1170 C1171 1.386 . S
C1170 C1172 1.391 . S
C1171 C1170 1.386 . S
C1171 C1175 1.393 . S
C1172 H1161 0.950 . S
C1172 C1170 1.391 . S
C1172 C1173 1.400 . S
C1173 C1167 1.491 . S
C1173 C1172 1.400 . S
C1173 C1174 1.398 . S
C1174 H1162 0.950 . S
C1174 C1173 1.398 . S
C1174 C1175 1.391 . S
C1175 H1163 0.950 . S
C1175 C1171 1.393 . S
C1175 C1174 1.391 . S
H1176 C1184 0.950 . S
H1177 C1189 0.950 . S
H1178 C1186 0.950 . S
H1179 C1188 0.950 . S
H1180 C1190 0.950 . S
H1181 C1192 0.950 . S
H1182 C1194 0.950 . S
H1183 C1195 0.950 . S
C1184 H1176 0.950 . S
C1184 C1185 1.386 . S
C1184 C1186 1.391 . S
C1185 C1184 1.386 . S
C1185 C1189 1.393 . S
C1186 H1178 0.950 . S
C1186 C1184 1.391 . S
C1186 C1187 1.400 . S
C1187 C1186 1.400 . S
C1187 C1188 1.398 . S
C1187 C1193 1.491 1_455 S
C1188 H1179 0.950 . S
C1188 C1187 1.398 . S
C1188 C1189 1.391 . S
C1189 H1177 0.950 . S
C1189 C1185 1.393 . S
C1189 C1188 1.391 . S
C1190 H1180 0.950 . S
C1190 C1191 1.386 . S
C1190 C1192 1.391 . S
C1191 C1190 1.386 . S
C1191 C1195 1.393 . S
C1192 H1181 0.950 . S
C1192 C1190 1.391 . S
C1192 C1193 1.400 . S
C1193 C1187 1.491 1_655 S
C1193 C1192 1.400 . S
C1193 C1194 1.398 . S
C1194 H1182 0.950 . S
C1194 C1193 1.398 . S
C1194 C1195 1.391 . S
C1195 H1183 0.950 . S
C1195 C1191 1.393 . S
C1195 C1194 1.391 . S
H1196 C1204 0.950 . S
H1197 C1209 0.950 . S
H1198 C1206 0.950 1_655 S
H1199 C1208 0.950 . S
H1200 C1210 0.950 . S
H1201 C1212 0.950 1_455 S
H1202 C1214 0.950 . S
H1203 C1215 0.950 . S
C1204 H1196 0.950 . S
C1204 C1205 1.386 . S
C1204 C1206 1.391 . S
C1205 C1204 1.386 . S
C1205 C1209 1.393 . S
C1206 H1198 0.950 1_455 S
C1206 C1204 1.391 . S
C1206 C1207 1.400 . S
C1207 C1206 1.400 . S
C1207 C1208 1.398 . S
C1207 C1213 1.491 1_455 S
C1208 H1199 0.950 . S
C1208 C1207 1.398 . S
C1208 C1209 1.391 . S
C1209 H1197 0.950 . S
C1209 C1205 1.393 . S
C1209 C1208 1.391 . S
C1210 H1200 0.950 . S
C1210 C1211 1.386 . S
C1210 C1212 1.391 . S
C1211 C1210 1.386 . S
C1211 C1215 1.393 . S
C1212 H1201 0.950 1_655 S
C1212 C1210 1.391 . S
C1212 C1213 1.400 . S
C1213 C1207 1.491 1_655 S
C1213 C1212 1.400 . S
C1213 C1214 1.398 . S
C1214 H1202 0.950 . S
C1214 C1213 1.398 . S
C1214 C1215 1.391 . S
C1215 H1203 0.950 . S
C1215 C1211 1.393 . S
C1215 C1214 1.391 . S
H1216 C1224 0.950 . S
H1217 C1229 0.950 . S
H1218 C1226 0.950 . S
H1219 C1228 0.950 . S
H1220 C1230 0.950 . S
H1221 C1232 0.950 . S
H1222 C1234 0.950 . S
H1223 C1235 0.950 . S
C1224 H1216 0.950 . S
C1224 C1225 1.386 . S
C1224 C1226 1.391 . S
C1225 C1224 1.386 . S
C1225 C1229 1.393 . S
C1226 H1218 0.950 . S
C1226 C1224 1.391 . S
C1226 C1227 1.400 . S
C1227 C1226 1.400 . S
C1227 C1228 1.398 . S
C1227 C1233 1.491 . S
C1228 H1219 0.950 . S
C1228 C1227 1.398 . S
C1228 C1229 1.391 . S
C1229 H1217 0.950 . S
C1229 C1225 1.393 . S
C1229 C1228 1.391 . S
C1230 H1220 0.950 . S
C1230 C1231 1.386 . S
C1230 C1232 1.391 . S
C1231 C1230 1.386 . S
C1231 C1235 1.393 . S
C1232 H1221 0.950 . S
C1232 C1230 1.391 . S
C1232 C1233 1.400 . S
C1233 C1227 1.491 . S
C1233 C1232 1.400 . S
C1233 C1234 1.398 . S
C1234 H1222 0.950 . S
C1234 C1233 1.398 . S
C1234 C1235 1.391 . S
C1235 H1223 0.950 . S
C1235 C1231 1.393 . S
C1235 C1234 1.391 . S
H1236 C1244 0.950 . S
H1237 C1249 0.950 . S
H1238 C1246 0.950 1_655 S
H1239 C1248 0.950 . S
H1240 C1250 0.950 . S
H1241 C1252 0.950 1_455 S
H1242 C1254 0.950 . S
H1243 C1255 0.950 . S
C1244 H1236 0.950 . S
C1244 C1245 1.386 . S
C1244 C1246 1.391 . S
C1245 C1244 1.386 . S
C1245 C1249 1.393 . S
C1246 H1238 0.950 1_455 S
C1246 C1244 1.391 . S
C1246 C1247 1.400 . S
C1247 C1246 1.400 . S
C1247 C1248 1.398 . S
C1247 C1253 1.491 1_455 S
C1248 H1239 0.950 . S
C1248 C1247 1.398 . S
C1248 C1249 1.391 . S
C1249 H1237 0.950 . S
C1249 C1245 1.393 . S
C1249 C1248 1.391 . S
C1250 H1240 0.950 . S
C1250 C1251 1.386 . S
C1250 C1252 1.391 . S
C1251 C1250 1.386 . S
C1251 C1255 1.393 . S
C1252 H1241 0.950 1_655 S
C1252 C1250 1.391 . S
C1252 C1253 1.400 . S
C1253 C1247 1.491 1_655 S
C1253 C1252 1.400 . S
C1253 C1254 1.398 . S
C1254 H1242 0.950 . S
C1254 C1253 1.398 . S
C1254 C1255 1.391 . S
C1255 H1243 0.950 . S
C1255 C1251 1.393 . S
C1255 C1254 1.391 . S
H1256 C1264 0.950 . S
H1257 C1269 0.950 . S
H1258 C1266 0.950 . S
H1259 C1268 0.950 1_455 S
H1260 C1270 0.950 . S
H1261 C1272 0.950 . S
H1262 C1274 0.950 1_655 S
H1263 C1275 0.950 . S
C1264 H1256 0.950 . S
C1264 C1265 1.386 . S
C1264 C1266 1.391 . S
C1265 C1264 1.386 . S
C1265 C1269 1.393 . S
C1266 H1258 0.950 . S
C1266 C1264 1.391 . S
C1266 C1267 1.400 . S
C1267 C1266 1.400 . S
C1267 C1268 1.398 . S
C1267 C1273 1.491 1_655 S
C1268 H1259 0.950 1_655 S
C1268 C1267 1.398 . S
C1268 C1269 1.391 . S
C1269 H1257 0.950 . S
C1269 C1265 1.393 . S
C1269 C1268 1.391 . S
C1270 H1260 0.950 . S
C1270 C1271 1.386 . S
C1270 C1272 1.391 . S
C1271 C1270 1.386 . S
C1271 C1275 1.393 . S
C1272 H1261 0.950 . S
C1272 C1270 1.391 . S
C1272 C1273 1.400 . S
C1273 C1267 1.491 1_455 S
C1273 C1272 1.400 . S
C1273 C1274 1.398 . S
C1274 H1262 0.950 1_455 S
C1274 C1273 1.398 . S
C1274 C1275 1.391 . S
C1275 H1263 0.950 . S
C1275 C1271 1.393 . S
C1275 C1274 1.391 . S
H1276 C1284 0.950 . S
H1277 C1289 0.950 . S
H1278 C1286 0.950 . S
H1279 C1288 0.950 . S
H1280 C1290 0.950 . S
H1281 C1292 0.950 . S
H1282 C1294 0.950 . S
H1283 C1295 0.950 . S
C1284 H1276 0.950 . S
C1284 C1285 1.386 . S
C1284 C1286 1.391 . S
C1285 C1284 1.386 . S
C1285 C1289 1.393 . S
C1286 H1278 0.950 . S
C1286 C1284 1.391 . S
C1286 C1287 1.400 . S
C1287 C1286 1.400 . S
C1287 C1288 1.398 . S
C1287 C1293 1.491 . S
C1288 H1279 0.950 . S
C1288 C1287 1.398 . S
C1288 C1289 1.391 . S
C1289 H1277 0.950 . S
C1289 C1285 1.393 . S
C1289 C1288 1.391 . S
C1290 H1280 0.950 . S
C1290 C1291 1.386 . S
C1290 C1292 1.391 . S
C1291 C1290 1.386 . S
C1291 C1295 1.393 . S
C1292 H1281 0.950 . S
C1292 C1290 1.391 . S
C1292 C1293 1.400 . S
C1293 C1287 1.491 . S
C1293 C1292 1.400 . S
C1293 C1294 1.398 . S
C1294 H1282 0.950 . S
C1294 C1293 1.398 . S
C1294 C1295 1.391 . S
C1295 H1283 0.950 . S
C1295 C1291 1.393 . S
C1295 C1294 1.391 . S
H1296 C1304 0.950 . S
H1297 C1309 0.950 . S
H1298 C1306 0.950 . S
H1299 C1308 0.950 . S
H1300 C1310 0.950 . S
H1301 C1312 0.950 . S
H1302 C1314 0.950 . S
H1303 C1315 0.950 . S
C1304 H1296 0.950 . S
C1304 C1305 1.386 . S
C1304 C1306 1.391 . S
C1305 C1304 1.386 . S
C1305 C1309 1.393 . S
C1306 H1298 0.950 . S
C1306 C1304 1.391 . S
C1306 C1307 1.400 . S
C1307 C1306 1.400 . S
C1307 C1308 1.398 . S
C1307 C1313 1.491 . S
C1308 H1299 0.950 . S
C1308 C1307 1.398 . S
C1308 C1309 1.391 . S
C1309 H1297 0.950 . S
C1309 C1305 1.393 . S
C1309 C1308 1.391 . S
C1310 H1300 0.950 . S
C1310 C1311 1.386 . S
C1310 C1312 1.391 . S
C1311 C1310 1.386 . S
C1311 C1315 1.393 . S
C1312 H1301 0.950 . S
C1312 C1310 1.391 . S
C1312 C1313 1.400 . S
C1313 C1307 1.491 . S
C1313 C1312 1.400 . S
C1313 C1314 1.398 . S
C1314 H1302 0.950 . S
C1314 C1313 1.398 . S
C1314 C1315 1.391 . S
C1315 H1303 0.950 . S
C1315 C1311 1.393 . S
C1315 C1314 1.391 . S
H1316 C1324 0.950 . S
H1317 C1329 0.950 . S
H1318 C1326 0.950 . S
H1319 C1328 0.950 . S
H1320 C1330 0.950 . S
H1321 C1332 0.950 . S
H1322 C1334 0.950 . S
H1323 C1335 0.950 . S
C1324 H1316 0.950 . S
C1324 C1325 1.386 . S
C1324 C1326 1.391 . S
C1325 C1324 1.386 . S
C1325 C1329 1.393 . S
C1326 H1318 0.950 . S
C1326 C1324 1.391 . S
C1326 C1327 1.400 . S
C1327 C1326 1.400 . S
C1327 C1328 1.398 . S
C1327 C1333 1.491 . S
C1328 H1319 0.950 . S
C1328 C1327 1.398 . S
C1328 C1329 1.391 . S
C1329 H1317 0.950 . S
C1329 C1325 1.393 . S
C1329 C1328 1.391 . S
C1330 H1320 0.950 . S
C1330 C1331 1.386 . S
C1330 C1332 1.391 . S
C1331 C1330 1.386 . S
C1331 C1335 1.393 . S
C1332 H1321 0.950 . S
C1332 C1330 1.391 . S
C1332 C1333 1.400 . S
C1333 C1327 1.491 . S
C1333 C1332 1.400 . S
C1333 C1334 1.398 . S
C1334 H1322 0.950 . S
C1334 C1333 1.398 . S
C1334 C1335 1.391 . S
C1335 H1323 0.950 . S
C1335 C1331 1.393 . S
C1335 C1334 1.391 . S
H1336 C1344 0.950 . S
H1337 C1349 0.950 . S
H1338 C1346 0.950 . S
H1339 C1348 0.950 1_655 S
H1340 C1350 0.950 . S
H1341 C1352 0.950 . S
H1342 C1354 0.950 1_455 S
H1343 C1355 0.950 . S
C1344 H1336 0.950 . S
C1344 C1345 1.386 . S
C1344 C1346 1.391 . S
C1345 C1344 1.386 . S
C1345 C1349 1.393 . S
C1346 H1338 0.950 . S
C1346 C1344 1.391 . S
C1346 C1347 1.400 . S
C1347 C1346 1.400 . S
C1347 C1348 1.398 . S
C1347 C1353 1.491 1_455 S
C1348 H1339 0.950 1_455 S
C1348 C1347 1.398 . S
C1348 C1349 1.391 . S
C1349 H1337 0.950 . S
C1349 C1345 1.393 . S
C1349 C1348 1.391 . S
C1350 H1340 0.950 . S
C1350 C1351 1.386 . S
C1350 C1352 1.391 . S
C1351 C1350 1.386 . S
C1351 C1355 1.393 . S
C1352 H1341 0.950 . S
C1352 C1350 1.391 . S
C1352 C1353 1.400 . S
C1353 C1347 1.491 1_655 S
C1353 C1352 1.400 . S
C1353 C1354 1.398 . S
C1354 H1342 0.950 1_655 S
C1354 C1353 1.398 . S
C1354 C1355 1.391 . S
C1355 H1343 0.950 . S
C1355 C1351 1.393 . S
C1355 C1354 1.391 . S
H1356 C1364 0.950 . S
H1357 C1369 0.950 . S
H1358 C1366 0.950 1_455 S
H1359 C1368 0.950 . S
H1360 C1370 0.950 . S
H1361 C1372 0.950 1_655 S
H1362 C1374 0.950 . S
H1363 C1375 0.950 . S
C1364 H1356 0.950 . S
C1364 C1365 1.386 . S
C1364 C1366 1.391 . S
C1365 C1364 1.386 . S
C1365 C1369 1.393 . S
C1366 H1358 0.950 1_655 S
C1366 C1364 1.391 . S
C1366 C1367 1.400 . S
C1367 C1366 1.400 . S
C1367 C1368 1.398 . S
C1367 C1373 1.491 1_655 S
C1368 H1359 0.950 . S
C1368 C1367 1.398 . S
C1368 C1369 1.391 . S
C1369 H1357 0.950 . S
C1369 C1365 1.393 . S
C1369 C1368 1.391 . S
C1370 H1360 0.950 . S
C1370 C1371 1.386 . S
C1370 C1372 1.391 . S
C1371 C1370 1.386 . S
C1371 C1375 1.393 . S
C1372 H1361 0.950 1_455 S
C1372 C1370 1.391 . S
C1372 C1373 1.400 . S
C1373 C1367 1.491 1_455 S
C1373 C1372 1.400 . S
C1373 C1374 1.398 . S
C1374 H1362 0.950 . S
C1374 C1373 1.398 . S
C1374 C1375 1.391 . S
C1375 H1363 0.950 . S
C1375 C1371 1.393 . S
C1375 C1374 1.391 . S
H1376 C1384 0.950 . S
H1377 C1389 0.950 . S
H1378 C1386 0.950 . S
H1379 C1388 0.950 . S
H1380 C1390 0.950 . S
H1381 C1392 0.950 . S
H1382 C1394 0.950 . S
H1383 C1395 0.950 . S
C1384 H1376 0.950 . S
C1384 C1385 1.386 . S
C1384 C1386 1.391 . S
C1385 C1384 1.386 . S
C1385 C1389 1.393 . S
C1386 H1378 0.950 . S
C1386 C1384 1.391 . S
C1386 C1387 1.400 . S
C1387 C1386 1.400 . S
C1387 C1388 1.398 . S
C1387 C1393 1.491 . S
C1388 H1379 0.950 . S
C1388 C1387 1.398 . S
C1388 C1389 1.391 . S
C1389 H1377 0.950 . S
C1389 C1385 1.393 . S
C1389 C1388 1.391 . S
C1390 H1380 0.950 . S
C1390 C1391 1.386 . S
C1390 C1392 1.391 . S
C1391 C1390 1.386 . S
C1391 C1395 1.393 . S
C1392 H1381 0.950 . S
C1392 C1390 1.391 . S
C1392 C1393 1.400 . S
C1393 C1387 1.491 . S
C1393 C1392 1.400 . S
C1393 C1394 1.398 . S
C1394 H1382 0.950 . S
C1394 C1393 1.398 . S
C1394 C1395 1.391 . S
C1395 H1383 0.950 . S
C1395 C1391 1.393 . S
C1395 C1394 1.391 . S
H1396 C1404 0.950 . S
H1397 C1409 0.950 . S
H1398 C1406 0.950 . S
H1399 C1408 0.950 . S
H1400 C1410 0.950 . S
H1401 C1412 0.950 . S
H1402 C1414 0.950 . S
H1403 C1415 0.950 . S
C1404 H1396 0.950 . S
C1404 C1405 1.386 . S
C1404 C1406 1.391 . S
C1405 C1404 1.386 . S
C1405 C1409 1.393 1_665 S
C1406 H1398 0.950 . S
C1406 C1404 1.391 . S
C1406 C1407 1.400 . S
C1407 C1406 1.400 . S
C1407 C1408 1.398 1_665 S
C1407 C1413 1.491 1_665 S
C1408 H1399 0.950 . S
C1408 C1407 1.398 1_445 S
C1408 C1409 1.391 . S
C1409 H1397 0.950 . S
C1409 C1405 1.393 1_445 S
C1409 C1408 1.391 . S
C1410 H1400 0.950 . S
C1410 C1411 1.386 . S
C1410 C1412 1.391 . S
C1411 C1410 1.386 . S
C1411 C1415 1.393 1_445 S
C1412 H1401 0.950 . S
C1412 C1410 1.391 . S
C1412 C1413 1.400 . S
C1413 C1407 1.491 1_445 S
C1413 C1412 1.400 . S
C1413 C1414 1.398 1_445 S
C1414 H1402 0.950 . S
C1414 C1413 1.398 1_665 S
C1414 C1415 1.391 . S
C1415 H1403 0.950 . S
C1415 C1411 1.393 1_665 S
C1415 C1414 1.391 . S
H1416 C1424 0.950 . S
H1417 C1429 0.950 . S
H1418 C1426 0.950 . S
H1419 C1428 0.950 . S
H1420 C1430 0.950 . S
H1421 C1432 0.950 . S
H1422 C1434 0.950 . S
H1423 C1435 0.950 . S
C1424 H1416 0.950 . S
C1424 C1425 1.386 . S
C1424 C1426 1.391 . S
C1425 C1424 1.386 . S
C1425 C1429 1.393 . S
C1426 H1418 0.950 . S
C1426 C1424 1.391 . S
C1426 C1427 1.400 . S
C1427 C1426 1.400 . S
C1427 C1428 1.398 . S
C1427 C1433 1.491 . S
C1428 H1419 0.950 . S
C1428 C1427 1.398 . S
C1428 C1429 1.391 . S
C1429 H1417 0.950 . S
C1429 C1425 1.393 . S
C1429 C1428 1.391 . S
C1430 H1420 0.950 . S
C1430 C1431 1.386 . S
C1430 C1432 1.391 . S
C1431 C1430 1.386 . S
C1431 C1435 1.393 . S
C1432 H1421 0.950 . S
C1432 C1430 1.391 . S
C1432 C1433 1.400 . S
C1433 C1427 1.491 . S
C1433 C1432 1.400 . S
C1433 C1434 1.398 . S
C1434 H1422 0.950 . S
C1434 C1433 1.398 . S
C1434 C1435 1.391 . S
C1435 H1423 0.950 . S
C1435 C1431 1.393 . S
C1435 C1434 1.391 . S
H1436 C1444 0.950 . S
H1437 C1449 0.950 . S
H1438 C1446 0.950 . S
H1439 C1448 0.950 . S
H1440 C1450 0.950 . S
H1441 C1452 0.950 . S
H1442 C1454 0.950 . S
H1443 C1455 0.950 . S
C1444 H1436 0.950 . S
C1444 C1445 1.386 1_545 S
C1444 C1446 1.391 . S
C1445 C1444 1.386 1_565 S
C1445 C1449 1.393 . S
C1446 H1438 0.950 . S
C1446 C1444 1.391 . S
C1446 C1447 1.400 1_545 S
C1447 C1446 1.400 1_565 S
C1447 C1448 1.399 . S
C1447 C1453 1.491 1_564 S
C1448 H1439 0.950 . S
C1448 C1447 1.399 . S
C1448 C1449 1.391 . S
C1449 H1437 0.950 . S
C1449 C1445 1.393 . S
C1449 C1448 1.391 . S
C1450 H1440 0.950 . S
C1450 C1451 1.386 1_565 S
C1450 C1452 1.391 . S
C1451 C1450 1.386 1_545 S
C1451 C1455 1.393 . S
C1452 H1441 0.950 . S
C1452 C1450 1.391 . S
C1452 C1453 1.400 1_565 S
C1453 C1447 1.491 1_546 S
C1453 C1452 1.400 1_545 S
C1453 C1454 1.399 . S
C1454 H1442 0.950 . S
C1454 C1453 1.399 . S
C1454 C1455 1.391 . S
C1455 H1443 0.950 . S
C1455 C1451 1.393 . S
C1455 C1454 1.391 . S
H1456 C1464 0.950 . S
H1457 C1469 0.950 . S
H1458 C1466 0.950 . S
H1459 C1468 0.950 . S
H1460 C1470 0.950 . S
H1461 C1472 0.950 . S
H1462 C1474 0.950 . S
H1463 C1475 0.950 . S
C1464 H1456 0.950 . S
C1464 C1465 1.386 . S
C1464 C1466 1.391 . S
C1465 C1464 1.386 . S
C1465 C1469 1.393 . S
C1466 H1458 0.950 . S
C1466 C1464 1.391 . S
C1466 C1467 1.400 . S
C1467 C1466 1.400 . S
C1467 C1468 1.398 . S
C1467 C1473 1.491 . S
C1468 H1459 0.950 . S
C1468 C1467 1.398 . S
C1468 C1469 1.391 . S
C1469 H1457 0.950 . S
C1469 C1465 1.393 . S
C1469 C1468 1.391 . S
C1470 H1460 0.950 . S
C1470 C1471 1.386 . S
C1470 C1472 1.391 . S
C1471 C1470 1.386 . S
C1471 C1475 1.393 . S
C1472 H1461 0.950 . S
C1472 C1470 1.391 . S
C1472 C1473 1.400 . S
C1473 C1467 1.491 . S
C1473 C1472 1.400 . S
C1473 C1474 1.398 . S
C1474 H1462 0.950 . S
C1474 C1473 1.398 . S
C1474 C1475 1.391 . S
C1475 H1463 0.950 . S
C1475 C1471 1.393 . S
C1475 C1474 1.391 . S
H1476 C1484 0.950 . S
H1477 C1489 0.950 . S
H1478 C1486 0.950 . S
H1479 C1488 0.950 . S
H1480 C1490 0.950 . S
H1481 C1492 0.950 . S
H1482 C1494 0.950 . S
H1483 C1495 0.950 . S
C1484 H1476 0.950 . S
C1484 C1485 1.386 . S
C1484 C1486 1.391 . S
C1485 C1484 1.386 . S
C1485 C1489 1.393 1_545 S
C1486 H1478 0.950 . S
C1486 C1484 1.391 . S
C1486 C1487 1.417 . S
C1487 C1486 1.417 . S
C1487 C1488 1.382 1_545 S
C1487 C1493 1.490 1_545 S
C1488 H1479 0.950 . S
C1488 C1487 1.382 1_565 S
C1488 C1489 1.391 . S
C1489 H1477 0.950 . S
C1489 C1485 1.393 1_565 S
C1489 C1488 1.391 . S
C1490 H1480 0.950 . S
C1490 C1491 1.386 . S
C1490 C1492 1.391 . S
C1491 C1490 1.386 . S
C1491 C1495 1.393 1_565 S
C1492 H1481 0.950 . S
C1492 C1490 1.391 . S
C1492 C1493 1.417 . S
C1493 C1487 1.490 1_565 S
C1493 C1492 1.417 . S
C1493 C1494 1.382 1_565 S
C1494 H1482 0.950 . S
C1494 C1493 1.382 1_545 S
C1494 C1495 1.391 . S
C1495 H1483 0.950 . S
C1495 C1491 1.393 1_545 S
C1495 C1494 1.391 . S
H1496 C1504 0.950 . S
H1497 C1509 0.950 . S
H1498 C1506 0.950 . S
H1499 C1508 0.950 . S
H1500 C1510 0.950 . S
H1501 C1512 0.950 . S
H1502 C1514 0.950 . S
H1503 C1515 0.950 . S
C1504 H1496 0.950 . S
C1504 C1505 1.386 . S
C1504 C1506 1.391 . S
C1505 C1504 1.386 . S
C1505 C1509 1.393 . S
C1506 H1498 0.950 . S
C1506 C1504 1.391 . S
C1506 C1507 1.400 . S
C1507 C1506 1.400 . S
C1507 C1508 1.398 . S
C1507 C1513 1.491 . S
C1508 H1499 0.950 . S
C1508 C1507 1.398 . S
C1508 C1509 1.391 . S
C1509 H1497 0.950 . S
C1509 C1505 1.393 . S
C1509 C1508 1.391 . S
C1510 H1500 0.950 . S
C1510 C1511 1.386 . S
C1510 C1512 1.391 . S
C1511 C1510 1.386 . S
C1511 C1515 1.393 . S
C1512 H1501 0.950 . S
C1512 C1510 1.391 . S
C1512 C1513 1.400 . S
C1513 C1507 1.491 . S
C1513 C1512 1.400 . S
C1513 C1514 1.398 . S
C1514 H1502 0.950 . S
C1514 C1513 1.398 . S
C1514 C1515 1.391 . S
C1515 H1503 0.950 . S
C1515 C1511 1.393 . S
C1515 C1514 1.391 . S
H1516 C1524 0.950 . S
H1517 C1529 0.950 . S
H1518 C1526 0.950 . S
H1519 C1528 0.950 . S
H1520 C1530 0.950 . S
H1521 C1532 0.950 . S
H1522 C1534 0.950 . S
H1523 C1535 0.950 . S
C1524 H1516 0.950 . S
C1524 C1525 1.386 1_465 S
C1524 C1526 1.391 . S
C1525 C1524 1.386 1_645 S
C1525 C1529 1.393 . S
C1526 H1518 0.950 . S
C1526 C1524 1.391 . S
C1526 C1527 1.393 1_465 S
C1527 C1526 1.393 1_645 S
C1527 C1528 1.406 . S
C1527 C1533 1.490 1_644 S
C1528 H1519 0.950 . S
C1528 C1527 1.406 . S
C1528 C1529 1.391 . S
C1529 H1517 0.950 . S
C1529 C1525 1.393 . S
C1529 C1528 1.391 . S
C1530 H1520 0.950 . S
C1530 C1531 1.386 1_645 S
C1530 C1532 1.391 . S
C1531 C1530 1.386 1_465 S
C1531 C1535 1.393 . S
C1532 H1521 0.950 . S
C1532 C1530 1.391 . S
C1532 C1533 1.393 1_645 S
C1533 C1527 1.490 1_466 S
C1533 C1532 1.393 1_465 S
C1533 C1534 1.406 . S
C1534 H1522 0.950 . S
C1534 C1533 1.406 . S
C1534 C1535 1.391 . S
C1535 H1523 0.950 . S
C1535 C1531 1.393 . S
C1535 C1534 1.391 . S
H1536 C1544 0.950 . S
H1537 C1549 0.950 . S
H1538 C1546 0.950 . S
H1539 C1548 0.950 . S
H1540 C1550 0.950 . S
H1541 C1552 0.950 . S
H1542 C1554 0.950 . S
H1543 C1555 0.950 . S
C1544 H1536 0.950 . S
C1544 C1545 1.386 . S
C1544 C1546 1.391 . S
C1545 C1544 1.386 . S
C1545 C1549 1.393 . S
C1546 H1538 0.950 . S
C1546 C1544 1.391 . S
C1546 C1547 1.400 . S
C1547 C1546 1.400 . S
C1547 C1548 1.398 . S
C1547 C1553 1.491 . S
C1548 H1539 0.950 . S
C1548 C1547 1.398 . S
C1548 C1549 1.391 . S
C1549 H1537 0.950 . S
C1549 C1545 1.393 . S
C1549 C1548 1.391 . S
C1550 H1540 0.950 . S
C1550 C1551 1.386 . S
C1550 C1552 1.391 . S
C1551 C1550 1.386 . S
C1551 C1555 1.393 . S
C1552 H1541 0.950 . S
C1552 C1550 1.391 . S
C1552 C1553 1.400 . S
C1553 C1547 1.491 . S
C1553 C1552 1.400 . S
C1553 C1554 1.398 . S
C1554 H1542 0.950 . S
C1554 C1553 1.398 . S
C1554 C1555 1.391 . S
C1555 H1543 0.950 . S
C1555 C1551 1.393 . S
C1555 C1554 1.391 . S
H1556 C1564 0.950 . S
H1557 C1569 0.950 . S
H1558 C1566 0.950 . S
H1559 C1568 0.950 . S
H1560 C1570 0.950 . S
H1561 C1572 0.950 . S
H1562 C1574 0.950 . S
H1563 C1575 0.950 . S
C1564 H1556 0.950 . S
C1564 C1565 1.386 . S
C1564 C1566 1.391 . S
C1565 C1564 1.386 . S
C1565 C1569 1.393 . S
C1566 H1558 0.950 . S
C1566 C1564 1.391 . S
C1566 C1567 1.400 . S
C1567 C1566 1.400 . S
C1567 C1568 1.398 . S
C1567 C1573 1.491 . S
C1568 H1559 0.950 . S
C1568 C1567 1.398 . S
C1568 C1569 1.391 . S
C1569 H1557 0.950 . S
C1569 C1565 1.393 . S
C1569 C1568 1.391 . S
C1570 H1560 0.950 . S
C1570 C1571 1.386 . S
C1570 C1572 1.391 . S
C1571 C1570 1.386 . S
C1571 C1575 1.393 . S
C1572 H1561 0.950 . S
C1572 C1570 1.391 . S
C1572 C1573 1.400 . S
C1573 C1567 1.491 . S
C1573 C1572 1.400 . S
C1573 C1574 1.398 . S
C1574 H1562 0.950 . S
C1574 C1573 1.398 . S
C1574 C1575 1.391 . S
C1575 H1563 0.950 . S
C1575 C1571 1.393 . S
C1575 C1574 1.391 . S
H1576 C1584 0.950 . S
H1577 C1589 0.950 . S
H1578 C1586 0.950 . S
H1579 C1588 0.950 . S
H1580 C1590 0.950 . S
H1581 C1592 0.950 . S
H1582 C1594 0.950 . S
H1583 C1595 0.950 . S
C1584 H1576 0.950 . S
C1584 C1585 1.386 . S
C1584 C1586 1.391 . S
C1585 C1584 1.386 . S
C1585 C1589 1.393 . S
C1586 H1578 0.950 . S
C1586 C1584 1.391 . S
C1586 C1587 1.400 . S
C1587 C1586 1.400 . S
C1587 C1588 1.398 . S
C1587 C1593 1.491 . S
C1588 H1579 0.950 . S
C1588 C1587 1.398 . S
C1588 C1589 1.391 . S
C1589 H1577 0.950 . S
C1589 C1585 1.393 . S
C1589 C1588 1.391 . S
C1590 H1580 0.950 . S
C1590 C1591 1.386 . S
C1590 C1592 1.391 . S
C1591 C1590 1.386 . S
C1591 C1595 1.393 . S
C1592 H1581 0.950 . S
C1592 C1590 1.391 . S
C1592 C1593 1.400 . S
C1593 C1587 1.491 . S
C1593 C1592 1.400 . S
C1593 C1594 1.398 . S
C1594 H1582 0.950 . S
C1594 C1593 1.398 . S
C1594 C1595 1.391 . S
C1595 H1583 0.950 . S
C1595 C1591 1.393 . S
C1595 C1594 1.391 . S
H1596 C1604 0.950 . S
H1597 C1609 0.950 . S
H1598 C1606 0.950 . S
H1599 C1608 0.950 . S
H1600 C1610 0.950 . S
H1601 C1612 0.950 . S
H1602 C1614 0.950 . S
H1603 C1615 0.950 . S
C1604 H1596 0.950 . S
C1604 C1605 1.386 . S
C1604 C1606 1.391 . S
C1605 C1604 1.386 . S
C1605 C1609 1.393 . S
C1606 H1598 0.950 . S
C1606 C1604 1.391 . S
C1606 C1607 1.400 . S
C1607 C1606 1.400 . S
C1607 C1608 1.398 . S
C1607 C1613 1.491 . S
C1608 H1599 0.950 . S
C1608 C1607 1.398 . S
C1608 C1609 1.391 . S
C1609 H1597 0.950 . S
C1609 C1605 1.393 . S
C1609 C1608 1.391 . S
C1610 H1600 0.950 . S
C1610 C1611 1.386 . S
C1610 C1612 1.391 . S
C1611 C1610 1.386 . S
C1611 C1615 1.393 . S
C1612 H1601 0.950 . S
C1612 C1610 1.391 . S
C1612 C1613 1.400 . S
C1613 C1607 1.491 . S
C1613 C1612 1.400 . S
C1613 C1614 1.398 . S
C1614 H1602 0.950 . S
C1614 C1613 1.398 . S
C1614 C1615 1.391 . S
C1615 H1603 0.950 . S
C1615 C1611 1.393 . S
C1615 C1614 1.391 . S
H1616 C1624 0.950 . S
H1617 C1629 0.950 . S
H1618 C1626 0.950 . S
H1619 C1628 0.950 . S
H1620 C1630 0.950 . S
H1621 C1632 0.950 . S
H1622 C1634 0.950 . S
H1623 C1635 0.950 . S
C1624 H1616 0.950 . S
C1624 C1625 1.386 . S
C1624 C1626 1.391 . S
C1625 C1624 1.386 . S
C1625 C1629 1.393 . S
C1626 H1618 0.950 . S
C1626 C1624 1.391 . S
C1626 C1627 1.400 . S
C1627 C1626 1.400 . S
C1627 C1628 1.398 . S
C1627 C1633 1.491 1_556 S
C1628 H1619 0.950 . S
C1628 C1627 1.398 . S
C1628 C1629 1.391 . S
C1629 H1617 0.950 . S
C1629 C1625 1.393 . S
C1629 C1628 1.391 . S
C1630 H1620 0.950 . S
C1630 C1631 1.386 . S
C1630 C1632 1.391 . S
C1631 C1630 1.386 . S
C1631 C1635 1.393 . S
C1632 H1621 0.950 . S
C1632 C1630 1.391 . S
C1632 C1633 1.400 . S
C1633 C1627 1.491 1_554 S
C1633 C1632 1.400 . S
C1633 C1634 1.398 . S
C1634 H1622 0.950 . S
C1634 C1633 1.398 . S
C1634 C1635 1.391 . S
C1635 H1623 0.950 . S
C1635 C1631 1.393 . S
C1635 C1634 1.391 . S
H1636 C1644 0.950 . S
H1637 C1649 0.950 . S
H1638 C1646 0.950 . S
H1639 C1648 0.950 . S
H1640 C1650 0.950 . S
H1641 C1652 0.950 . S
H1642 C1654 0.950 . S
H1643 C1655 0.950 . S
C1644 H1636 0.950 . S
C1644 C1645 1.386 1_655 S
C1644 C1646 1.391 . S
C1645 C1644 1.386 1_455 S
C1645 C1649 1.393 . S
C1646 H1638 0.950 . S
C1646 C1644 1.391 . S
C1646 C1647 1.400 1_655 S
C1647 C1646 1.400 1_455 S
C1647 C1648 1.398 . S
C1647 C1653 1.491 1_455 S
C1648 H1639 0.950 . S
C1648 C1647 1.398 . S
C1648 C1649 1.391 . S
C1649 H1637 0.950 . S
C1649 C1645 1.393 . S
C1649 C1648 1.391 . S
C1650 H1640 0.950 . S
C1650 C1651 1.386 1_455 S
C1650 C1652 1.391 . S
C1651 C1650 1.386 1_655 S
C1651 C1655 1.393 . S
C1652 H1641 0.950 . S
C1652 C1650 1.391 . S
C1652 C1653 1.400 1_455 S
C1653 C1647 1.491 1_655 S
C1653 C1652 1.400 1_655 S
C1653 C1654 1.398 . S
C1654 H1642 0.950 . S
C1654 C1653 1.398 . S
C1654 C1655 1.391 . S
C1655 H1643 0.950 . S
C1655 C1651 1.393 . S
C1655 C1654 1.391 . S
H1656 C1664 0.950 . S
H1657 C1669 0.950 . S
H1658 C1666 0.950 . S
H1659 C1668 0.950 . S
H1660 C1670 0.950 . S
H1661 C1672 0.950 . S
H1662 C1674 0.950 . S
H1663 C1675 0.950 . S
C1664 H1656 0.950 . S
C1664 C1665 1.386 . S
C1664 C1666 1.391 . S
C1665 C1664 1.386 . S
C1665 C1669 1.393 1_655 S
C1666 H1658 0.950 . S
C1666 C1664 1.391 . S
C1666 C1667 1.400 . S
C1667 C1666 1.400 . S
C1667 C1668 1.398 1_655 S
C1667 C1673 1.491 1_656 S
C1668 H1659 0.950 . S
C1668 C1667 1.398 1_455 S
C1668 C1669 1.391 . S
C1669 H1657 0.950 . S
C1669 C1665 1.393 1_455 S
C1669 C1668 1.391 . S
C1670 H1660 0.950 . S
C1670 C1671 1.386 . S
C1670 C1672 1.391 . S
C1671 C1670 1.386 . S
C1671 C1675 1.393 1_455 S
C1672 H1661 0.950 . S
C1672 C1670 1.391 . S
C1672 C1673 1.400 . S
C1673 C1667 1.491 1_454 S
C1673 C1672 1.400 . S
C1673 C1674 1.398 1_455 S
C1674 H1662 0.950 . S
C1674 C1673 1.398 1_655 S
C1674 C1675 1.391 . S
C1675 H1663 0.950 . S
C1675 C1671 1.393 1_655 S
C1675 C1674 1.391 . S
H1676 C1684 0.950 . S
H1677 C1689 0.950 . S
H1678 C1686 0.950 . S
H1679 C1688 0.950 . S
H1680 C1690 0.950 . S
H1681 C1692 0.950 . S
H1682 C1694 0.950 . S
H1683 C1695 0.950 . S
C1684 H1676 0.950 . S
C1684 C1685 1.386 . S
C1684 C1686 1.391 . S
C1685 C1684 1.386 . S
C1685 C1689 1.393 . S
C1686 H1678 0.950 . S
C1686 C1684 1.391 . S
C1686 C1687 1.400 . S
C1687 C1686 1.400 . S
C1687 C1688 1.398 . S
C1687 C1693 1.491 . S
C1688 H1679 0.950 . S
C1688 C1687 1.398 . S
C1688 C1689 1.391 . S
C1689 H1677 0.950 . S
C1689 C1685 1.393 . S
C1689 C1688 1.391 . S
C1690 H1680 0.950 . S
C1690 C1691 1.386 . S
C1690 C1692 1.391 . S
C1691 C1690 1.386 . S
C1691 C1695 1.393 . S
C1692 H1681 0.950 . S
C1692 C1690 1.391 . S
C1692 C1693 1.400 . S
C1693 C1687 1.491 . S
C1693 C1692 1.400 . S
C1693 C1694 1.398 . S
C1694 H1682 0.950 . S
C1694 C1693 1.398 . S
C1694 C1695 1.391 . S
C1695 H1683 0.950 . S
C1695 C1691 1.393 . S
C1695 C1694 1.391 . S
H1696 C1704 0.950 . S
H1697 C1709 0.950 . S
H1698 C1706 0.950 . S
H1699 C1708 0.950 . S
H1700 C1710 0.950 . S
H1701 C1712 0.950 . S
H1702 C1714 0.950 . S
H1703 C1715 0.950 . S
C1704 H1696 0.950 . S
C1704 C1705 1.386 . S
C1704 C1706 1.391 1_545 S
C1705 C1704 1.386 . S
C1705 C1709 1.393 . S
C1706 H1698 0.950 . S
C1706 C1704 1.391 1_565 S
C1706 C1707 1.400 . S
C1707 C1706 1.400 . S
C1707 C1708 1.398 . S
C1707 C1713 1.491 . S
C1708 H1699 0.950 . S
C1708 C1707 1.398 . S
C1708 C1709 1.391 1_565 S
C1709 H1697 0.950 . S
C1709 C1705 1.393 . S
C1709 C1708 1.391 1_545 S
C1710 H1700 0.950 . S
C1710 C1711 1.386 . S
C1710 C1712 1.391 . S
C1711 C1710 1.386 . S
C1711 C1715 1.393 . S
C1712 H1701 0.950 . S
C1712 C1710 1.391 . S
C1712 C1713 1.400 . S
C1713 C1707 1.491 . S
C1713 C1712 1.400 . S
C1713 C1714 1.398 . S
C1714 H1702 0.950 . S
C1714 C1713 1.398 . S
C1714 C1715 1.391 . S
C1715 H1703 0.950 . S
C1715 C1711 1.393 . S
C1715 C1714 1.391 . S
H1716 C1724 0.950 . S
H1717 C1729 0.950 . S
H1718 C1726 0.950 . S
H1719 C1728 0.950 . S
H1720 C1730 0.950 . S
H1721 C1732 0.950 . S
H1722 C1734 0.950 . S
H1723 C1735 0.950 . S
C1724 H1716 0.950 . S
C1724 C1725 1.387 . S
C1724 C1726 1.390 1_565 S
C1725 C1724 1.387 . S
C1725 C1729 1.393 . S
C1726 H1718 0.950 . S
C1726 C1724 1.390 1_545 S
C1726 C1727 1.400 . S
C1727 C1726 1.400 . S
C1727 C1728 1.398 . S
C1727 C1733 1.491 . S
C1728 H1719 0.950 . S
C1728 C1727 1.398 . S
C1728 C1729 1.391 1_545 S
C1729 H1717 0.950 . S
C1729 C1725 1.393 . S
C1729 C1728 1.391 1_565 S
C1730 H1720 0.950 . S
C1730 C1731 1.386 . S
C1730 C1732 1.391 . S
C1731 C1730 1.386 . S
C1731 C1735 1.393 . S
C1732 H1721 0.950 . S
C1732 C1730 1.391 . S
C1732 C1733 1.400 . S
C1733 C1727 1.491 . S
C1733 C1732 1.400 . S
C1733 C1734 1.398 . S
C1734 H1722 0.950 . S
C1734 C1733 1.398 . S
C1734 C1735 1.391 . S
C1735 H1723 0.950 . S
C1735 C1731 1.393 . S
C1735 C1734 1.391 . S
H1736 C1744 0.950 . S
H1737 C1749 0.950 . S
H1738 C1746 0.950 . S
H1739 C1748 0.950 . S
H1740 C1750 0.950 . S
H1741 C1752 0.950 . S
H1742 C1754 0.950 . S
H1743 C1755 0.950 . S
C1744 H1736 0.950 . S
C1744 C1745 1.386 . S
C1744 C1746 1.391 . S
C1745 C1744 1.386 . S
C1745 C1749 1.393 . S
C1746 H1738 0.950 . S
C1746 C1744 1.391 . S
C1746 C1747 1.400 . S
C1747 C1746 1.400 . S
C1747 C1748 1.398 . S
C1747 C1753 1.491 . S
C1748 H1739 0.950 . S
C1748 C1747 1.398 . S
C1748 C1749 1.391 . S
C1749 H1737 0.950 . S
C1749 C1745 1.393 . S
C1749 C1748 1.391 . S
C1750 H1740 0.950 . S
C1750 C1751 1.386 . S
C1750 C1752 1.391 1_565 S
C1751 C1750 1.386 . S
C1751 C1755 1.393 . S
C1752 H1741 0.950 . S
C1752 C1750 1.391 1_545 S
C1752 C1753 1.400 . S
C1753 C1747 1.491 . S
C1753 C1752 1.400 . S
C1753 C1754 1.398 . S
C1754 H1742 0.950 . S
C1754 C1753 1.398 . S
C1754 C1755 1.391 1_545 S
C1755 H1743 0.950 . S
C1755 C1751 1.393 . S
C1755 C1754 1.391 1_565 S
H1756 C1764 0.950 . S
H1757 C1769 0.950 . S
H1758 C1766 0.950 . S
H1759 C1768 0.950 . S
H1760 C1770 0.952 . S
H1761 C1772 0.950 . S
H1762 C1774 0.950 . S
H1763 C1775 0.950 . S
C1764 H1756 0.950 . S
C1764 C1765 1.386 . S
C1764 C1766 1.391 . S
C1765 C1764 1.386 . S
C1765 C1769 1.393 . S
C1766 H1758 0.950 . S
C1766 C1764 1.391 . S
C1766 C1767 1.400 . S
C1767 C1766 1.400 . S
C1767 C1768 1.398 . S
C1767 C1773 1.491 . S
C1768 H1759 0.950 . S
C1768 C1767 1.398 . S
C1768 C1769 1.391 . S
C1769 H1757 0.950 . S
C1769 C1765 1.393 . S
C1769 C1768 1.391 . S
C1770 H1760 0.952 . S
C1770 C1771 1.386 . S
C1770 C1772 1.389 1_545 S
C1771 C1770 1.386 . S
C1771 C1775 1.391 1_545 S
C1772 H1761 0.950 . S
C1772 C1770 1.389 1_565 S
C1772 C1773 1.400 . S
C1773 C1767 1.491 . S
C1773 C1772 1.400 . S
C1773 C1774 1.398 . S
C1774 H1762 0.950 . S
C1774 C1773 1.398 . S
C1774 C1775 1.391 . S
C1775 H1763 0.950 . S
C1775 C1771 1.391 1_565 S
C1775 C1774 1.391 . S
H1776 C1784 0.950 . S
H1777 C1789 0.950 . S
H1778 C1786 0.950 . S
H1779 C1788 0.950 . S
H1780 C1790 0.950 . S
H1781 C1792 0.950 . S
H1782 C1794 0.950 . S
H1783 C1795 0.950 . S
C1784 H1776 0.950 . S
C1784 C1785 1.386 . S
C1784 C1786 1.391 . S
C1785 C1784 1.386 . S
C1785 C1789 1.393 . S
C1786 H1778 0.950 . S
C1786 C1784 1.391 . S
C1786 C1787 1.400 . S
C1787 C1786 1.400 . S
C1787 C1788 1.398 . S
C1787 C1793 1.491 . S
C1788 H1779 0.950 . S
C1788 C1787 1.398 . S
C1788 C1789 1.391 . S
C1789 H1777 0.950 . S
C1789 C1785 1.393 . S
C1789 C1788 1.391 . S
C1790 H1780 0.950 . S
C1790 C1791 1.386 . S
C1790 C1792 1.391 1_565 S
C1791 C1790 1.386 . S
C1791 C1795 1.393 . S
C1792 H1781 0.950 . S
C1792 C1790 1.391 1_545 S
C1792 C1793 1.400 . S
C1793 C1787 1.491 . S
C1793 C1792 1.400 . S
C1793 C1794 1.398 . S
C1794 H1782 0.950 . S
C1794 C1793 1.398 . S
C1794 C1795 1.391 1_545 S
C1795 H1783 0.950 . S
C1795 C1791 1.393 . S
C1795 C1794 1.391 1_565 S
H1796 C1804 0.950 . S
H1797 C1809 0.950 . S
H1798 C1806 0.950 . S
H1799 C1808 0.950 . S
H1800 C1810 0.950 . S
H1801 C1812 0.950 . S
H1802 C1814 0.949 1_565 S
H1803 C1815 0.950 . S
C1804 H1796 0.950 . S
C1804 C1805 1.386 . S
C1804 C1806 1.391 . S
C1805 C1804 1.386 . S
C1805 C1809 1.393 . S
C1806 H1798 0.950 . S
C1806 C1804 1.391 . S
C1806 C1807 1.400 . S
C1807 C1806 1.400 . S
C1807 C1808 1.398 . S
C1807 C1813 1.491 . S
C1808 H1799 0.950 . S
C1808 C1807 1.398 . S
C1808 C1809 1.391 . S
C1809 H1797 0.950 . S
C1809 C1805 1.393 . S
C1809 C1808 1.391 . S
C1810 H1800 0.950 . S
C1810 C1811 1.382 1_545 S
C1810 C1812 1.391 . S
C1811 C1810 1.382 1_565 S
C1811 C1815 1.395 . S
C1812 H1801 0.950 . S
C1812 C1810 1.391 . S
C1812 C1813 1.400 . S
C1813 C1807 1.491 . S
C1813 C1812 1.400 . S
C1813 C1814 1.398 . S
C1814 H1802 0.949 1_545 S
C1814 C1813 1.398 . S
C1814 C1815 1.391 1_545 S
C1815 H1803 0.950 . S
C1815 C1811 1.395 . S
C1815 C1814 1.391 1_565 S
H1816 C1824 0.950 . S
H1817 C1829 0.950 . S
H1818 C1826 0.950 . S
H1819 C1828 0.950 . S
H1820 C1830 0.950 . S
H1821 C1832 0.950 . S
H1822 C1834 0.950 . S
H1823 C1835 0.950 . S
C1824 H1816 0.950 . S
C1824 C1825 1.386 . S
C1824 C1826 1.391 1_545 S
C1825 C1824 1.386 . S
C1825 C1829 1.393 . S
C1826 H1818 0.950 . S
C1826 C1824 1.391 1_565 S
C1826 C1827 1.400 . S
C1827 C1826 1.400 . S
C1827 C1828 1.398 . S
C1827 C1833 1.491 . S
C1828 H1819 0.950 . S
C1828 C1827 1.398 . S
C1828 C1829 1.391 1_565 S
C1829 H1817 0.950 . S
C1829 C1825 1.393 . S
C1829 C1828 1.391 1_545 S
C1830 H1820 0.950 . S
C1830 C1831 1.386 . S
C1830 C1832 1.391 . S
C1831 C1830 1.386 . S
C1831 C1835 1.393 . S
C1832 H1821 0.950 . S
C1832 C1830 1.391 . S
C1832 C1833 1.400 . S
C1833 C1827 1.491 . S
C1833 C1832 1.400 . S
C1833 C1834 1.398 . S
C1834 H1822 0.950 . S
C1834 C1833 1.398 . S
C1834 C1835 1.391 . S
C1835 H1823 0.950 . S
C1835 C1831 1.393 . S
C1835 C1834 1.391 . S
H1836 C1844 0.950 . S
H1837 C1849 0.950 . S
H1838 C1846 0.950 . S
H1839 C1848 0.950 . S
H1840 C1850 0.949 1_545 S
H1841 C1852 0.950 . S
H1842 C1854 0.951 . S
H1843 C1855 0.950 . S
C1844 H1836 0.950 . S
C1844 C1845 1.386 . S
C1844 C1846 1.391 . S
C1845 C1844 1.386 . S
C1845 C1849 1.393 . S
C1846 H1838 0.950 . S
C1846 C1844 1.391 . S
C1846 C1847 1.400 . S
C1847 C1846 1.400 . S
C1847 C1848 1.398 . S
C1847 C1853 1.491 . S
C1848 H1839 0.950 . S
C1848 C1847 1.398 . S
C1848 C1849 1.391 . S
C1849 H1837 0.950 . S
C1849 C1845 1.393 . S
C1849 C1848 1.391 . S
C1850 H1840 0.949 1_565 S
C1850 C1851 1.385 1_565 S
C1850 C1852 1.392 . S
C1851 C1850 1.385 1_545 S
C1851 C1855 1.393 . S
C1852 H1841 0.950 . S
C1852 C1850 1.392 . S
C1852 C1853 1.400 . S
C1853 C1847 1.491 . S
C1853 C1852 1.400 . S
C1853 C1854 1.398 . S
C1854 H1842 0.951 . S
C1854 C1853 1.398 . S
C1854 C1855 1.391 1_565 S
C1855 H1843 0.950 . S
C1855 C1851 1.393 . S
C1855 C1854 1.391 1_545 S
H1856 C1864 0.950 . S
H1857 C1869 0.950 . S
H1858 C1866 0.950 . S
H1859 C1868 0.950 . S
H1860 C1870 0.950 . S
H1861 C1872 0.950 . S
H1862 C1874 0.950 . S
H1863 C1875 0.950 . S
C1864 H1856 0.950 . S
C1864 C1865 1.386 . S
C1864 C1866 1.391 . S
C1865 C1864 1.386 . S
C1865 C1869 1.393 . S
C1866 H1858 0.950 . S
C1866 C1864 1.391 . S
C1866 C1867 1.400 . S
C1867 C1866 1.400 . S
C1867 C1868 1.398 . S
C1867 C1873 1.491 . S
C1868 H1859 0.950 . S
C1868 C1867 1.398 . S
C1868 C1869 1.391 . S
C1869 H1857 0.950 . S
C1869 C1865 1.393 . S
C1869 C1868 1.391 . S
C1870 H1860 0.950 . S
C1870 C1871 1.386 . S
C1870 C1872 1.391 1_565 S
C1871 C1870 1.386 . S
C1871 C1875 1.393 . S
C1872 H1861 0.950 . S
C1872 C1870 1.391 1_545 S
C1872 C1873 1.400 . S
C1873 C1867 1.491 . S
C1873 C1872 1.400 . S
C1873 C1874 1.398 . S
C1874 H1862 0.950 . S
C1874 C1873 1.398 . S
C1874 C1875 1.391 1_545 S
C1875 H1863 0.950 . S
C1875 C1871 1.393 . S
C1875 C1874 1.391 1_565 S
H1876 C1884 0.950 . S
H1877 C1889 0.950 . S
H1878 C1886 0.950 . S
H1879 C1888 0.950 . S
H1880 C1890 0.947 1_545 S
H1881 C1892 0.950 1_545 S
H1882 C1894 0.950 . S
H1883 C1895 0.950 . S
C1884 H1876 0.950 . S
C1884 C1885 1.386 1_565 S
C1884 C1886 1.391 . S
C1885 C1884 1.386 1_545 S
C1885 C1889 1.393 . S
C1886 H1878 0.950 . S
C1886 C1884 1.391 . S
C1886 C1887 1.400 . S
C1887 C1886 1.400 . S
C1887 C1888 1.398 1_565 S
C1887 C1893 1.491 . S
C1888 H1879 0.950 . S
C1888 C1887 1.398 1_545 S
C1888 C1889 1.391 . S
C1889 H1877 0.950 . S
C1889 C1885 1.393 . S
C1889 C1888 1.391 . S
C1890 H1880 0.947 1_565 S
C1890 C1891 1.386 . S
C1890 C1892 1.391 . S
C1891 C1890 1.386 . S
C1891 C1895 1.393 . S
C1892 H1881 0.950 1_565 S
C1892 C1890 1.391 . S
C1892 C1893 1.400 . S
C1893 C1887 1.491 . S
C1893 C1892 1.400 . S
C1893 C1894 1.398 . S
C1894 H1882 0.950 . S
C1894 C1893 1.398 . S
C1894 C1895 1.391 . S
C1895 H1883 0.950 . S
C1895 C1891 1.393 . S
C1895 C1894 1.391 . S
H1896 C1904 0.950 . S
H1897 C1909 0.950 . S
H1898 C1906 0.950 . S
H1899 C1908 0.950 . S
H1900 C1910 0.950 . S
H1901 C1912 0.950 . S
H1902 C1914 0.950 . S
H1903 C1915 0.950 . S
C1904 H1896 0.950 . S
C1904 C1905 1.386 . S
C1904 C1906 1.391 . S
C1905 C1904 1.386 . S
C1905 C1909 1.393 . S
C1906 H1898 0.950 . S
C1906 C1904 1.391 . S
C1906 C1907 1.400 . S
C1907 C1906 1.400 . S
C1907 C1908 1.398 . S
C1907 C1913 1.491 . S
C1908 H1899 0.950 . S
C1908 C1907 1.398 . S
C1908 C1909 1.391 . S
C1909 H1897 0.950 . S
C1909 C1905 1.393 . S
C1909 C1908 1.391 . S
C1910 H1900 0.950 . S
C1910 C1911 1.386 . S
C1910 C1912 1.391 1_545 S
C1911 C1910 1.386 . S
C1911 C1915 1.393 . S
C1912 H1901 0.950 . S
C1912 C1910 1.391 1_565 S
C1912 C1913 1.400 . S
C1913 C1907 1.491 . S
C1913 C1912 1.400 . S
C1913 C1914 1.398 . S
C1914 H1902 0.950 . S
C1914 C1913 1.398 . S
C1914 C1915 1.391 1_565 S
C1915 H1903 0.950 . S
C1915 C1911 1.393 . S
C1915 C1914 1.391 1_545 S
H1916 C1924 0.950 . S
H1917 C1929 0.950 . S
H1918 C1926 0.950 . S
H1919 C1928 0.950 . S
H1920 C1930 0.950 . S
H1921 C1932 0.950 . S
H1922 C1934 0.950 . S
H1923 C1935 0.950 . S
C1924 H1916 0.950 . S
C1924 C1925 1.386 1_545 S
C1924 C1926 1.391 . S
C1925 C1924 1.386 1_565 S
C1925 C1929 1.393 . S
C1926 H1918 0.950 . S
C1926 C1924 1.391 . S
C1926 C1927 1.400 . S
C1927 C1926 1.400 . S
C1927 C1928 1.398 1_545 S
C1927 C1933 1.491 . S
C1928 H1919 0.950 . S
C1928 C1927 1.398 1_565 S
C1928 C1929 1.391 . S
C1929 H1917 0.950 . S
C1929 C1925 1.393 . S
C1929 C1928 1.391 . S
C1930 H1920 0.950 . S
C1930 C1931 1.386 1_565 S
C1930 C1932 1.391 . S
C1931 C1930 1.386 1_545 S
C1931 C1935 1.393 . S
C1932 H1921 0.950 . S
C1932 C1930 1.391 . S
C1932 C1933 1.400 1_565 S
C1933 C1927 1.491 . S
C1933 C1932 1.400 1_545 S
C1933 C1934 1.398 . S
C1934 H1922 0.950 . S
C1934 C1933 1.398 . S
C1934 C1935 1.391 . S
C1935 H1923 0.950 . S
C1935 C1931 1.393 . S
C1935 C1934 1.391 . S
H1936 C1944 0.950 . S
H1937 C1949 0.950 . S
H1938 C1946 0.950 . S
H1939 C1948 0.950 . S
H1940 C1950 0.950 . S
H1941 C1952 0.950 . S
H1942 C1954 0.950 . S
H1943 C1955 0.950 . S
C1944 H1936 0.950 . S
C1944 C1945 1.386 . S
C1944 C1946 1.391 1_545 S
C1945 C1944 1.386 . S
C1945 C1949 1.393 . S
C1946 H1938 0.950 . S
C1946 C1944 1.391 1_565 S
C1946 C1947 1.400 . S
C1947 C1946 1.400 . S
C1947 C1948 1.398 . S
C1947 C1953 1.491 . S
C1948 H1939 0.950 . S
C1948 C1947 1.398 . S
C1948 C1949 1.391 1_565 S
C1949 H1937 0.950 . S
C1949 C1945 1.393 . S
C1949 C1948 1.391 1_545 S
C1950 H1940 0.950 . S
C1950 C1951 1.386 . S
C1950 C1952 1.391 . S
C1951 C1950 1.386 . S
C1951 C1955 1.393 . S
C1952 H1941 0.950 . S
C1952 C1950 1.391 . S
C1952 C1953 1.400 . S
C1953 C1947 1.491 . S
C1953 C1952 1.400 . S
C1953 C1954 1.398 . S
C1954 H1942 0.950 . S
C1954 C1953 1.398 . S
C1954 C1955 1.391 . S
C1955 H1943 0.950 . S
C1955 C1951 1.393 . S
C1955 C1954 1.391 . S
H1956 C1964 0.950 . S
H1957 C1969 0.950 . S
H1958 C1966 0.950 . S
H1959 C1968 0.950 . S
H1960 C1970 0.950 . S
H1961 C1972 0.950 . S
H1962 C1974 0.950 . S
H1963 C1975 0.950 . S
C1964 H1956 0.950 . S
C1964 C1965 1.386 . S
C1964 C1966 1.391 . S
C1965 C1964 1.386 . S
C1965 C1969 1.393 1_565 S
C1966 H1958 0.950 . S
C1966 C1964 1.391 . S
C1966 C1967 1.400 . S
C1967 C1966 1.400 . S
C1967 C1968 1.398 1_565 S
C1967 C1973 1.491 . S
C1968 H1959 0.950 . S
C1968 C1967 1.398 1_545 S
C1968 C1969 1.391 . S
C1969 H1957 0.950 . S
C1969 C1965 1.393 1_545 S
C1969 C1968 1.391 . S
C1970 H1960 0.950 . S
C1970 C1971 1.396 . S
C1970 C1972 1.391 . S
C1971 C1970 1.396 . S
C1971 C1975 1.380 1_545 S
C1972 H1961 0.950 . S
C1972 C1970 1.391 . S
C1972 C1973 1.400 1_545 S
C1973 C1967 1.491 . S
C1973 C1972 1.400 1_565 S
C1973 C1974 1.398 . S
C1974 H1962 0.950 . S
C1974 C1973 1.398 . S
C1974 C1975 1.391 . S
C1975 H1963 0.950 . S
C1975 C1971 1.380 1_565 S
C1975 C1974 1.391 . S
H1976 C1984 0.950 . S
H1977 C1989 0.950 . S
H1978 C1986 0.950 . S
H1979 C1988 0.950 . S
H1980 C1990 0.950 . S
H1981 C1992 0.950 . S
H1982 C1994 0.950 . S
H1983 C1995 0.950 . S
C1984 H1976 0.950 . S
C1984 C1985 1.386 . S
C1984 C1986 1.391 . S
C1985 C1984 1.386 . S
C1985 C1989 1.393 . S
C1986 H1978 0.950 . S
C1986 C1984 1.391 . S
C1986 C1987 1.400 . S
C1987 C1986 1.400 . S
C1987 C1988 1.398 . S
C1987 C1993 1.491 . S
C1988 H1979 0.950 . S
C1988 C1987 1.398 . S
C1988 C1989 1.391 . S
C1989 H1977 0.950 . S
C1989 C1985 1.393 . S
C1989 C1988 1.391 . S
C1990 H1980 0.950 . S
C1990 C1991 1.386 . S
C1990 C1992 1.391 1_565 S
C1991 C1990 1.386 . S
C1991 C1995 1.393 . S
C1992 H1981 0.950 . S
C1992 C1990 1.391 1_545 S
C1992 C1993 1.400 . S
C1993 C1987 1.491 . S
C1993 C1992 1.400 . S
C1993 C1994 1.398 . S
C1994 H1982 0.950 . S
C1994 C1993 1.398 . S
C1994 C1995 1.391 1_545 S
C1995 H1983 0.950 . S
C1995 C1991 1.393 . S
C1995 C1994 1.391 1_565 S
H1996 C2004 0.950 . S
H1997 C2009 0.950 . S
H1998 C2006 0.950 . S
H1999 C2008 0.950 . S
H2000 C2010 0.950 . S
H2001 C2012 0.950 . S
H2002 C2014 0.950 . S
H2003 C2015 0.950 . S
C2004 H1996 0.950 . S
C2004 C2005 1.386 . S
C2004 C2006 1.391 . S
C2005 C2004 1.386 . S
C2005 C2009 1.393 1_565 S
C2006 H1998 0.950 . S
C2006 C2004 1.391 . S
C2006 C2007 1.400 1_565 S
C2007 C2006 1.400 1_545 S
C2007 C2008 1.398 . S
C2007 C2013 1.491 . S
C2008 H1999 0.950 . S
C2008 C2007 1.398 . S
C2008 C2009 1.391 . S
C2009 H1997 0.950 . S
C2009 C2005 1.393 1_545 S
C2009 C2008 1.391 . S
C2010 H2000 0.950 . S
C2010 C2011 1.386 . S
C2010 C2012 1.391 . S
C2011 C2010 1.386 . S
C2011 C2015 1.393 1_545 S
C2012 H2001 0.950 . S
C2012 C2010 1.391 . S
C2012 C2013 1.400 . S
C2013 C2007 1.491 . S
C2013 C2012 1.400 . S
C2013 C2014 1.398 1_545 S
C2014 H2002 0.950 . S
C2014 C2013 1.398 1_565 S
C2014 C2015 1.391 . S
C2015 H2003 0.950 . S
C2015 C2011 1.393 1_565 S
C2015 C2014 1.391 . S
H2016 C2024 0.950 . S
H2017 C2029 0.950 . S
H2018 C2026 0.950 . S
H2019 C2028 0.950 . S
H2020 C2030 0.950 . S
H2021 C2032 0.950 . S
H2022 C2034 0.950 . S
H2023 C2035 0.950 . S
C2024 H2016 0.950 . S
C2024 C2025 1.386 . S
C2024 C2026 1.391 . S
C2025 C2024 1.386 . S
C2025 C2029 1.393 . S
C2026 H2018 0.950 . S
C2026 C2024 1.391 . S
C2026 C2027 1.400 . S
C2027 C2026 1.400 . S
C2027 C2028 1.398 . S
C2027 C2033 1.491 . S
C2028 H2019 0.950 . S
C2028 C2027 1.398 . S
C2028 C2029 1.391 . S
C2029 H2017 0.950 . S
C2029 C2025 1.393 . S
C2029 C2028 1.391 . S
C2030 H2020 0.950 . S
C2030 C2031 1.386 . S
C2030 C2032 1.391 . S
C2031 C2030 1.386 . S
C2031 C2035 1.393 . S
C2032 H2021 0.950 . S
C2032 C2030 1.391 . S
C2032 C2033 1.400 . S
C2033 C2027 1.491 . S
C2033 C2032 1.400 . S
C2033 C2034 1.398 . S
C2034 H2022 0.950 . S
C2034 C2033 1.398 . S
C2034 C2035 1.391 . S
C2035 H2023 0.950 . S
C2035 C2031 1.393 . S
C2035 C2034 1.391 . S
H2036 C2044 0.950 . S
H2037 C2049 0.950 . S
H2038 C2046 0.950 . S
H2039 C2048 0.950 . S
H2040 C2050 0.950 . S
H2041 C2052 0.950 . S
H2042 C2054 0.950 . S
H2043 C2055 0.950 . S
C2044 H2036 0.950 . S
C2044 C2045 1.386 . S
C2044 C2046 1.391 . S
C2045 C2044 1.386 . S
C2045 C2049 1.393 . S
C2046 H2038 0.950 . S
C2046 C2044 1.391 . S
C2046 C2047 1.400 . S
C2047 C2046 1.400 . S
C2047 C2048 1.398 . S
C2047 C2053 1.491 . S
C2048 H2039 0.950 . S
C2048 C2047 1.398 . S
C2048 C2049 1.391 . S
C2049 H2037 0.950 . S
C2049 C2045 1.393 . S
C2049 C2048 1.391 . S
C2050 H2040 0.950 . S
C2050 C2051 1.386 . S
C2050 C2052 1.391 . S
C2051 C2050 1.386 . S
C2051 C2055 1.393 . S
C2052 H2041 0.950 . S
C2052 C2050 1.391 . S
C2052 C2053 1.400 . S
C2053 C2047 1.491 . S
C2053 C2052 1.400 . S
C2053 C2054 1.398 . S
C2054 H2042 0.950 . S
C2054 C2053 1.398 . S
C2054 C2055 1.391 . S
C2055 H2043 0.950 . S
C2055 C2051 1.393 . S
C2055 C2054 1.391 . S
H2056 C2064 0.950 . S
H2057 C2069 0.950 . S
H2058 C2066 0.950 . S
H2059 C2068 0.950 . S
H2060 C2070 0.950 . S
H2061 C2072 0.950 . S
H2062 C2074 0.950 . S
H2063 C2075 0.950 . S
C2064 H2056 0.950 . S
C2064 C2065 1.386 . S
C2064 C2066 1.391 . S
C2065 C2064 1.386 . S
C2065 C2069 1.393 . S
C2066 H2058 0.950 . S
C2066 C2064 1.391 . S
C2066 C2067 1.400 . S
C2067 C2066 1.400 . S
C2067 C2068 1.398 . S
C2067 C2073 1.491 . S
C2068 H2059 0.950 . S
C2068 C2067 1.398 . S
C2068 C2069 1.391 . S
C2069 H2057 0.950 . S
C2069 C2065 1.393 . S
C2069 C2068 1.391 . S
C2070 H2060 0.950 . S
C2070 C2071 1.386 . S
C2070 C2072 1.391 . S
C2071 C2070 1.386 . S
C2071 C2075 1.393 . S
C2072 H2061 0.950 . S
C2072 C2070 1.391 . S
C2072 C2073 1.400 . S
C2073 C2067 1.491 . S
C2073 C2072 1.400 . S
C2073 C2074 1.398 . S
C2074 H2062 0.950 . S
C2074 C2073 1.398 . S
C2074 C2075 1.391 . S
C2075 H2063 0.950 . S
C2075 C2071 1.393 . S
C2075 C2074 1.391 . S
H2076 C2084 0.950 . S
H2077 C2089 0.950 . S
H2078 C2086 0.950 . S
H2079 C2088 0.950 . S
H2080 C2090 0.950 . S
H2081 C2092 0.950 . S
H2082 C2094 0.950 . S
H2083 C2095 0.950 . S
C2084 H2076 0.950 . S
C2084 C2085 1.386 . S
C2084 C2086 1.391 . S
C2085 C2084 1.386 . S
C2085 C2089 1.393 . S
C2086 H2078 0.950 . S
C2086 C2084 1.391 . S
C2086 C2087 1.400 . S
C2087 C2086 1.400 . S
C2087 C2088 1.398 . S
C2087 C2093 1.491 . S
C2088 H2079 0.950 . S
C2088 C2087 1.398 . S
C2088 C2089 1.391 . S
C2089 H2077 0.950 . S
C2089 C2085 1.393 . S
C2089 C2088 1.391 . S
C2090 H2080 0.950 . S
C2090 C2091 1.386 . S
C2090 C2092 1.391 . S
C2091 C2090 1.386 . S
C2091 C2095 1.393 . S
C2092 H2081 0.950 . S
C2092 C2090 1.391 . S
C2092 C2093 1.400 . S
C2093 C2087 1.491 . S
C2093 C2092 1.400 . S
C2093 C2094 1.398 . S
C2094 H2082 0.950 . S
C2094 C2093 1.398 . S
C2094 C2095 1.391 . S
C2095 H2083 0.950 . S
C2095 C2091 1.393 . S
C2095 C2094 1.391 . S
H2096 C2104 0.950 . S
H2097 C2109 0.950 . S
H2098 C2106 0.950 . S
H2099 C2108 0.950 . S
H2100 C2110 0.950 . S
H2101 C2112 0.950 . S
H2102 C2114 0.950 . S
H2103 C2115 0.950 . S
C2104 H2096 0.950 . S
C2104 C2105 1.386 . S
C2104 C2106 1.391 . S
C2105 C2104 1.386 . S
C2105 C2109 1.393 . S
C2106 H2098 0.950 . S
C2106 C2104 1.391 . S
C2106 C2107 1.400 . S
C2107 C2106 1.400 . S
C2107 C2108 1.398 . S
C2107 C2113 1.491 . S
C2108 H2099 0.950 . S
C2108 C2107 1.398 . S
C2108 C2109 1.391 . S
C2109 H2097 0.950 . S
C2109 C2105 1.393 . S
C2109 C2108 1.391 . S
C2110 H2100 0.950 . S
C2110 C2111 1.386 . S
C2110 C2112 1.391 . S
C2111 C2110 1.386 . S
C2111 C2115 1.393 . S
C2112 H2101 0.950 . S
C2112 C2110 1.391 . S
C2112 C2113 1.400 . S
C2113 C2107 1.491 . S
C2113 C2112 1.400 . S
C2113 C2114 1.398 . S
C2114 H2102 0.950 . S
C2114 C2113 1.398 . S
C2114 C2115 1.391 . S
C2115 H2103 0.950 . S
C2115 C2111 1.393 . S
C2115 C2114 1.391 . S
H2116 C2124 0.950 . S
H2117 C2129 0.950 . S
H2118 C2126 0.950 . S
H2119 C2128 0.950 . S
H2120 C2130 0.950 . S
H2121 C2132 0.950 . S
H2122 C2134 0.950 . S
H2123 C2135 0.950 . S
C2124 H2116 0.950 . S
C2124 C2125 1.386 . S
C2124 C2126 1.391 . S
C2125 C2124 1.386 . S
C2125 C2129 1.393 . S
C2126 H2118 0.950 . S
C2126 C2124 1.391 . S
C2126 C2127 1.400 . S
C2127 C2126 1.400 . S
C2127 C2128 1.398 . S
C2127 C2133 1.491 . S
C2128 H2119 0.950 . S
C2128 C2127 1.398 . S
C2128 C2129 1.391 . S
C2129 H2117 0.950 . S
C2129 C2125 1.393 . S
C2129 C2128 1.391 . S
C2130 H2120 0.950 . S
C2130 C2131 1.386 . S
C2130 C2132 1.391 . S
C2131 C2130 1.386 . S
C2131 C2135 1.393 . S
C2132 H2121 0.950 . S
C2132 C2130 1.391 . S
C2132 C2133 1.400 . S
C2133 C2127 1.491 . S
C2133 C2132 1.400 . S
C2133 C2134 1.398 . S
C2134 H2122 0.950 . S
C2134 C2133 1.398 . S
C2134 C2135 1.391 . S
C2135 H2123 0.950 . S
C2135 C2131 1.393 . S
C2135 C2134 1.391 . S
H2136 C2144 0.950 . S
H2137 C2149 0.950 . S
H2138 C2146 0.950 . S
H2139 C2148 0.950 . S
H2140 C2150 0.950 . S
H2141 C2152 0.950 . S
H2142 C2154 0.950 . S
H2143 C2155 0.950 . S
C2144 H2136 0.950 . S
C2144 C2145 1.386 . S
C2144 C2146 1.391 . S
C2145 C2144 1.386 . S
C2145 C2149 1.393 . S
C2146 H2138 0.950 . S
C2146 C2144 1.391 . S
C2146 C2147 1.400 . S
C2147 C2146 1.400 . S
C2147 C2148 1.398 . S
C2147 C2153 1.491 . S
C2148 H2139 0.950 . S
C2148 C2147 1.398 . S
C2148 C2149 1.391 . S
C2149 H2137 0.950 . S
C2149 C2145 1.393 . S
C2149 C2148 1.391 . S
C2150 H2140 0.950 . S
C2150 C2151 1.386 . S
C2150 C2152 1.391 . S
C2151 C2150 1.386 . S
C2151 C2155 1.393 . S
C2152 H2141 0.950 . S
C2152 C2150 1.391 . S
C2152 C2153 1.400 . S
C2153 C2147 1.491 . S
C2153 C2152 1.400 . S
C2153 C2154 1.398 . S
C2154 H2142 0.950 . S
C2154 C2153 1.398 . S
C2154 C2155 1.391 . S
C2155 H2143 0.950 . S
C2155 C2151 1.393 . S
C2155 C2154 1.391 . S
H2156 C2164 0.950 . S
H2157 C2169 0.950 . S
H2158 C2166 0.950 . S
H2159 C2168 0.950 . S
H2160 C2170 0.950 . S
H2161 C2172 0.950 . S
H2162 C2174 0.950 . S
H2163 C2175 0.950 . S
C2164 H2156 0.950 . S
C2164 C2165 1.386 . S
C2164 C2166 1.391 . S
C2165 C2164 1.386 . S
C2165 C2169 1.393 . S
C2166 H2158 0.950 . S
C2166 C2164 1.391 . S
C2166 C2167 1.400 . S
C2167 C2166 1.400 . S
C2167 C2168 1.398 . S
C2167 C2173 1.491 . S
C2168 H2159 0.950 . S
C2168 C2167 1.398 . S
C2168 C2169 1.391 . S
C2169 H2157 0.950 . S
C2169 C2165 1.393 . S
C2169 C2168 1.391 . S
C2170 H2160 0.950 . S
C2170 C2171 1.386 . S
C2170 C2172 1.391 . S
C2171 C2170 1.386 . S
C2171 C2175 1.393 . S
C2172 H2161 0.950 . S
C2172 C2170 1.391 . S
C2172 C2173 1.400 . S
C2173 C2167 1.491 . S
C2173 C2172 1.400 . S
C2173 C2174 1.398 . S
C2174 H2162 0.950 . S
C2174 C2173 1.398 . S
C2174 C2175 1.391 . S
C2175 H2163 0.950 . S
C2175 C2171 1.393 . S
C2175 C2174 1.391 . S
H2176 C2184 0.950 . S
H2177 C2189 0.950 . S
H2178 C2186 0.950 . S
H2179 C2188 0.950 . S
H2180 C2190 0.950 . S
H2181 C2192 0.950 . S
H2182 C2194 0.950 . S
H2183 C2195 0.950 . S
C2184 H2176 0.950 . S
C2184 C2185 1.386 . S
C2184 C2186 1.391 . S
C2185 C2184 1.386 . S
C2185 C2189 1.393 . S
C2186 H2178 0.950 . S
C2186 C2184 1.391 . S
C2186 C2187 1.400 . S
C2187 C2186 1.400 . S
C2187 C2188 1.398 . S
C2187 C2193 1.491 . S
C2188 H2179 0.950 . S
C2188 C2187 1.398 . S
C2188 C2189 1.391 . S
C2189 H2177 0.950 . S
C2189 C2185 1.393 . S
C2189 C2188 1.391 . S
C2190 H2180 0.950 . S
C2190 C2191 1.386 . S
C2190 C2192 1.391 . S
C2191 C2190 1.386 . S
C2191 C2195 1.393 . S
C2192 H2181 0.950 . S
C2192 C2190 1.391 . S
C2192 C2193 1.400 . S
C2193 C2187 1.491 . S
C2193 C2192 1.400 . S
C2193 C2194 1.398 . S
C2194 H2182 0.950 . S
C2194 C2193 1.398 . S
C2194 C2195 1.391 . S
C2195 H2183 0.950 . S
C2195 C2191 1.393 . S
C2195 C2194 1.391 . S
H2196 C2204 0.950 . S
H2197 C2209 0.950 . S
H2198 C2206 0.950 . S
H2199 C2208 0.950 . S
H2200 C2210 0.950 . S
H2201 C2212 0.950 . S
H2202 C2214 0.950 . S
H2203 C2215 0.950 . S
C2204 H2196 0.950 . S
C2204 C2205 1.386 . S
C2204 C2206 1.391 . S
C2205 C2204 1.386 . S
C2205 C2209 1.393 . S
C2206 H2198 0.950 . S
C2206 C2204 1.391 . S
C2206 C2207 1.400 . S
C2207 C2206 1.400 . S
C2207 C2208 1.398 . S
C2207 C2213 1.491 . S
C2208 H2199 0.950 . S
C2208 C2207 1.398 . S
C2208 C2209 1.391 . S
C2209 H2197 0.950 . S
C2209 C2205 1.393 . S
C2209 C2208 1.391 . S
C2210 H2200 0.950 . S
C2210 C2211 1.386 . S
C2210 C2212 1.391 . S
C2211 C2210 1.386 . S
C2211 C2215 1.393 . S
C2212 H2201 0.950 . S
C2212 C2210 1.391 . S
C2212 C2213 1.400 . S
C2213 C2207 1.491 . S
C2213 C2212 1.400 . S
C2213 C2214 1.398 . S
C2214 H2202 0.950 . S
C2214 C2213 1.398 . S
C2214 C2215 1.391 . S
C2215 H2203 0.950 . S
C2215 C2211 1.393 . S
C2215 C2214 1.391 . S
H2216 C2224 0.950 . S
H2217 C2229 0.950 . S
H2218 C2226 0.950 . S
H2219 C2228 0.950 . S
H2220 C2230 0.950 . S
H2221 C2232 0.950 . S
H2222 C2234 0.950 . S
H2223 C2235 0.950 . S
C2224 H2216 0.950 . S
C2224 C2225 1.386 . S
C2224 C2226 1.391 . S
C2225 C2224 1.386 . S
C2225 C2229 1.393 . S
C2226 H2218 0.950 . S
C2226 C2224 1.391 . S
C2226 C2227 1.400 . S
C2227 C2226 1.400 . S
C2227 C2228 1.398 . S
C2227 C2233 1.491 . S
C2228 H2219 0.950 . S
C2228 C2227 1.398 . S
C2228 C2229 1.391 . S
C2229 H2217 0.950 . S
C2229 C2225 1.393 . S
C2229 C2228 1.391 . S
C2230 H2220 0.950 . S
C2230 C2231 1.386 . S
C2230 C2232 1.391 . S
C2231 C2230 1.386 . S
C2231 C2235 1.393 . S
C2232 H2221 0.950 . S
C2232 C2230 1.391 . S
C2232 C2233 1.400 . S
C2233 C2227 1.491 . S
C2233 C2232 1.400 . S
C2233 C2234 1.398 . S
C2234 H2222 0.950 . S
C2234 C2233 1.398 . S
C2234 C2235 1.391 . S
C2235 H2223 0.950 . S
C2235 C2231 1.393 . S
C2235 C2234 1.391 . S
H2236 C2244 0.950 . S
H2237 C2249 0.950 . S
H2238 C2246 0.950 . S
H2239 C2248 0.950 . S
H2240 C2250 0.950 . S
H2241 C2252 0.950 . S
H2242 C2254 0.950 . S
H2243 C2255 0.950 . S
C2244 H2236 0.950 . S
C2244 C2245 1.386 . S
C2244 C2246 1.391 . S
C2245 C2244 1.386 . S
C2245 C2249 1.393 . S
C2246 H2238 0.950 . S
C2246 C2244 1.391 . S
C2246 C2247 1.400 . S
C2247 C2246 1.400 . S
C2247 C2248 1.398 . S
C2247 C2253 1.491 . S
C2248 H2239 0.950 . S
C2248 C2247 1.398 . S
C2248 C2249 1.391 . S
C2249 H2237 0.950 . S
C2249 C2245 1.393 . S
C2249 C2248 1.391 . S
C2250 H2240 0.950 . S
C2250 C2251 1.386 . S
C2250 C2252 1.391 . S
C2251 C2250 1.386 . S
C2251 C2255 1.393 . S
C2252 H2241 0.950 . S
C2252 C2250 1.391 . S
C2252 C2253 1.400 . S
C2253 C2247 1.491 . S
C2253 C2252 1.400 . S
C2253 C2254 1.398 . S
C2254 H2242 0.950 . S
C2254 C2253 1.398 . S
C2254 C2255 1.391 . S
C2255 H2243 0.950 . S
C2255 C2251 1.393 . S
C2255 C2254 1.391 . S
H2256 C2264 0.950 . S
H2257 C2269 0.950 . S
H2258 C2266 0.950 . S
H2259 C2268 0.950 . S
H2260 C2270 0.950 . S
H2261 C2272 0.950 . S
H2262 C2274 0.950 . S
H2263 C2275 0.950 . S
C2264 H2256 0.950 . S
C2264 C2265 1.386 . S
C2264 C2266 1.391 . S
C2265 C2264 1.386 . S
C2265 C2269 1.393 . S
C2266 H2258 0.950 . S
C2266 C2264 1.391 . S
C2266 C2267 1.400 . S
C2267 C2266 1.400 . S
C2267 C2268 1.398 . S
C2267 C2273 1.491 . S
C2268 H2259 0.950 . S
C2268 C2267 1.398 . S
C2268 C2269 1.391 . S
C2269 H2257 0.950 . S
C2269 C2265 1.393 . S
C2269 C2268 1.391 . S
C2270 H2260 0.950 . S
C2270 C2271 1.386 . S
C2270 C2272 1.391 . S
C2271 C2270 1.386 . S
C2271 C2275 1.393 . S
C2272 H2261 0.950 . S
C2272 C2270 1.391 . S
C2272 C2273 1.400 . S
C2273 C2267 1.491 . S
C2273 C2272 1.400 . S
C2273 C2274 1.398 . S
C2274 H2262 0.950 . S
C2274 C2273 1.398 . S
C2274 C2275 1.391 . S
C2275 H2263 0.950 . S
C2275 C2271 1.393 . S
C2275 C2274 1.391 . S
H2276 C2284 0.950 . S
H2277 C2289 0.950 . S
H2278 C2286 0.950 . S
H2279 C2288 0.950 . S
H2280 C2290 0.950 . S
H2281 C2292 0.950 . S
H2282 C2294 0.950 . S
H2283 C2295 0.950 . S
C2284 H2276 0.950 . S
C2284 C2285 1.386 . S
C2284 C2286 1.391 . S
C2285 C2284 1.386 . S
C2285 C2289 1.393 . S
C2286 H2278 0.950 . S
C2286 C2284 1.391 . S
C2286 C2287 1.400 . S
C2287 C2286 1.400 . S
C2287 C2288 1.398 . S
C2287 C2293 1.491 . S
C2288 H2279 0.950 . S
C2288 C2287 1.398 . S
C2288 C2289 1.391 . S
C2289 H2277 0.950 . S
C2289 C2285 1.393 . S
C2289 C2288 1.391 . S
C2290 H2280 0.950 . S
C2290 C2291 1.386 . S
C2290 C2292 1.391 . S
C2291 C2290 1.386 . S
C2291 C2295 1.393 . S
C2292 H2281 0.950 . S
C2292 C2290 1.391 . S
C2292 C2293 1.400 . S
C2293 C2287 1.491 . S
C2293 C2292 1.400 . S
C2293 C2294 1.398 . S
C2294 H2282 0.950 . S
C2294 C2293 1.398 . S
C2294 C2295 1.391 . S
C2295 H2283 0.950 . S
C2295 C2291 1.393 . S
C2295 C2294 1.391 . S
H2296 C2304 0.950 . S
H2297 C2309 0.950 . S
H2298 C2306 0.950 . S
H2299 C2308 0.950 . S
H2300 C2310 0.950 . S
H2301 C2312 0.950 . S
H2302 C2314 0.950 . S
H2303 C2315 0.950 . S
C2304 H2296 0.950 . S
C2304 C2305 1.386 . S
C2304 C2306 1.391 . S
C2305 C2304 1.386 . S
C2305 C2309 1.393 . S
C2306 H2298 0.950 . S
C2306 C2304 1.391 . S
C2306 C2307 1.400 . S
C2307 C2306 1.400 . S
C2307 C2308 1.398 . S
C2307 C2313 1.491 . S
C2308 H2299 0.950 . S
C2308 C2307 1.398 . S
C2308 C2309 1.391 . S
C2309 H2297 0.950 . S
C2309 C2305 1.393 . S
C2309 C2308 1.391 . S
C2310 H2300 0.950 . S
C2310 C2311 1.386 . S
C2310 C2312 1.391 . S
C2311 C2310 1.386 . S
C2311 C2315 1.393 . S
C2312 H2301 0.950 . S
C2312 C2310 1.391 . S
C2312 C2313 1.400 . S
C2313 C2307 1.491 . S
C2313 C2312 1.400 . S
C2313 C2314 1.398 . S
C2314 H2302 0.950 . S
C2314 C2313 1.398 . S
C2314 C2315 1.391 . S
C2315 H2303 0.950 . S
C2315 C2311 1.393 . S
C2315 C2314 1.391 . S
H2316 C2324 0.950 . S
H2317 C2329 0.950 . S
H2318 C2326 0.950 . S
H2319 C2328 0.950 . S
H2320 C2330 0.950 . S
H2321 C2332 0.950 . S
H2322 C2334 0.950 . S
H2323 C2335 0.950 . S
C2324 H2316 0.950 . S
C2324 C2325 1.386 . S
C2324 C2326 1.391 . S
C2325 C2324 1.386 . S
C2325 C2329 1.393 . S
C2326 H2318 0.950 . S
C2326 C2324 1.391 . S
C2326 C2327 1.400 . S
C2327 C2326 1.400 . S
C2327 C2328 1.398 . S
C2327 C2333 1.491 . S
C2328 H2319 0.950 . S
C2328 C2327 1.398 . S
C2328 C2329 1.391 . S
C2329 H2317 0.950 . S
C2329 C2325 1.393 . S
C2329 C2328 1.391 . S
C2330 H2320 0.950 . S
C2330 C2331 1.386 . S
C2330 C2332 1.391 . S
C2331 C2330 1.386 . S
C2331 C2335 1.393 . S
C2332 H2321 0.950 . S
C2332 C2330 1.391 . S
C2332 C2333 1.400 . S
C2333 C2327 1.491 . S
C2333 C2332 1.400 . S
C2333 C2334 1.398 . S
C2334 H2322 0.950 . S
C2334 C2333 1.398 . S
C2334 C2335 1.391 . S
C2335 H2323 0.950 . S
C2335 C2331 1.393 . S
C2335 C2334 1.391 . S
H2336 C2344 0.950 . S
H2337 C2349 0.950 . S
H2338 C2346 0.950 . S
H2339 C2348 0.950 . S
H2340 C2350 0.950 . S
H2341 C2352 0.950 . S
H2342 C2354 0.950 . S
H2343 C2355 0.950 . S
C2344 H2336 0.950 . S
C2344 C2345 1.386 . S
C2344 C2346 1.391 . S
C2345 C2344 1.386 . S
C2345 C2349 1.393 . S
C2346 H2338 0.950 . S
C2346 C2344 1.391 . S
C2346 C2347 1.400 . S
C2347 C2346 1.400 . S
C2347 C2348 1.398 . S
C2347 C2353 1.491 . S
C2348 H2339 0.950 . S
C2348 C2347 1.398 . S
C2348 C2349 1.391 . S
C2349 H2337 0.950 . S
C2349 C2345 1.393 . S
C2349 C2348 1.391 . S
C2350 H2340 0.950 . S
C2350 C2351 1.386 . S
C2350 C2352 1.391 . S
C2351 C2350 1.386 . S
C2351 C2355 1.393 . S
C2352 H2341 0.950 . S
C2352 C2350 1.391 . S
C2352 C2353 1.400 . S
C2353 C2347 1.491 . S
C2353 C2352 1.400 . S
C2353 C2354 1.398 . S
C2354 H2342 0.950 . S
C2354 C2353 1.398 . S
C2354 C2355 1.391 . S
C2355 H2343 0.950 . S
C2355 C2351 1.393 . S
C2355 C2354 1.391 . S
H2356 C2364 0.950 . S
H2357 C2369 0.950 . S
H2358 C2366 0.950 . S
H2359 C2368 0.950 . S
H2360 C2370 0.950 . S
H2361 C2372 0.950 . S
H2362 C2374 0.950 . S
H2363 C2375 0.950 . S
C2364 H2356 0.950 . S
C2364 C2365 1.386 . S
C2364 C2366 1.391 . S
C2365 C2364 1.386 . S
C2365 C2369 1.393 . S
C2366 H2358 0.950 . S
C2366 C2364 1.391 . S
C2366 C2367 1.400 . S
C2367 C2366 1.400 . S
C2367 C2368 1.398 . S
C2367 C2373 1.491 . S
C2368 H2359 0.950 . S
C2368 C2367 1.398 . S
C2368 C2369 1.391 . S
C2369 H2357 0.950 . S
C2369 C2365 1.393 . S
C2369 C2368 1.391 . S
C2370 H2360 0.950 . S
C2370 C2371 1.386 . S
C2370 C2372 1.391 . S
C2371 C2370 1.386 . S
C2371 C2375 1.393 . S
C2372 H2361 0.950 . S
C2372 C2370 1.391 . S
C2372 C2373 1.400 . S
C2373 C2367 1.491 . S
C2373 C2372 1.400 . S
C2373 C2374 1.398 . S
C2374 H2362 0.950 . S
C2374 C2373 1.398 . S
C2374 C2375 1.391 . S
C2375 H2363 0.950 . S
C2375 C2371 1.393 . S
C2375 C2374 1.391 . S
H2376 C2384 0.950 . S
H2377 C2389 0.950 . S
H2378 C2386 0.950 . S
H2379 C2388 0.950 . S
H2380 C2390 0.950 . S
H2381 C2392 0.950 . S
H2382 C2394 0.950 . S
H2383 C2395 0.950 . S
C2384 H2376 0.950 . S
C2384 C2385 1.386 . S
C2384 C2386 1.391 . S
C2385 C2384 1.386 . S
C2385 C2389 1.393 . S
C2386 H2378 0.950 . S
C2386 C2384 1.391 . S
C2386 C2387 1.400 . S
C2387 C2386 1.400 . S
C2387 C2388 1.398 . S
C2387 C2393 1.491 . S
C2388 H2379 0.950 . S
C2388 C2387 1.398 . S
C2388 C2389 1.391 . S
C2389 H2377 0.950 . S
C2389 C2385 1.393 . S
C2389 C2388 1.391 . S
C2390 H2380 0.950 . S
C2390 C2391 1.386 . S
C2390 C2392 1.391 . S
C2391 C2390 1.386 . S
C2391 C2395 1.393 . S
C2392 H2381 0.950 . S
C2392 C2390 1.391 . S
C2392 C2393 1.400 . S
C2393 C2387 1.491 . S
C2393 C2392 1.400 . S
C2393 C2394 1.398 . S
C2394 H2382 0.950 . S
C2394 C2393 1.398 . S
C2394 C2395 1.391 . S
C2395 H2383 0.950 . S
C2395 C2391 1.393 . S
C2395 C2394 1.391 . S
H2396 C2404 0.950 . S
H2397 C2409 0.950 . S
H2398 C2406 0.950 . S
H2399 C2408 0.950 . S
H2400 C2410 0.950 . S
H2401 C2412 0.950 . S
H2402 C2414 0.950 . S
H2403 C2415 0.950 . S
C2404 H2396 0.950 . S
C2404 C2405 1.386 . S
C2404 C2406 1.391 . S
C2405 C2404 1.386 . S
C2405 C2409 1.393 . S
C2406 H2398 0.950 . S
C2406 C2404 1.391 . S
C2406 C2407 1.400 . S
C2407 C2406 1.400 . S
C2407 C2408 1.398 . S
C2407 C2413 1.491 . S
C2408 H2399 0.950 . S
C2408 C2407 1.398 . S
C2408 C2409 1.391 . S
C2409 H2397 0.950 . S
C2409 C2405 1.393 . S
C2409 C2408 1.391 . S
C2410 H2400 0.950 . S
C2410 C2411 1.386 . S
C2410 C2412 1.391 . S
C2411 C2410 1.386 . S
C2411 C2415 1.393 . S
C2412 H2401 0.950 . S
C2412 C2410 1.391 . S
C2412 C2413 1.400 . S
C2413 C2407 1.491 . S
C2413 C2412 1.400 . S
C2413 C2414 1.398 . S
C2414 H2402 0.950 . S
C2414 C2413 1.398 . S
C2414 C2415 1.391 . S
C2415 H2403 0.950 . S
C2415 C2411 1.393 . S
C2415 C2414 1.391 . S
H2416 C2424 0.950 . S
H2417 C2429 0.950 . S
H2418 C2426 0.950 . S
H2419 C2428 0.950 . S
H2420 C2430 0.950 . S
H2421 C2432 0.950 . S
H2422 C2434 0.950 . S
H2423 C2435 0.950 . S
C2424 H2416 0.950 . S
C2424 C2425 1.386 . S
C2424 C2426 1.391 . S
C2425 C2424 1.386 . S
C2425 C2429 1.393 . S
C2426 H2418 0.950 . S
C2426 C2424 1.391 . S
C2426 C2427 1.400 . S
C2427 C2426 1.400 . S
C2427 C2428 1.398 . S
C2427 C2433 1.491 . S
C2428 H2419 0.950 . S
C2428 C2427 1.398 . S
C2428 C2429 1.391 . S
C2429 H2417 0.950 . S
C2429 C2425 1.393 . S
C2429 C2428 1.391 . S
C2430 H2420 0.950 . S
C2430 C2431 1.386 . S
C2430 C2432 1.391 . S
C2431 C2430 1.386 . S
C2431 C2435 1.393 . S
C2432 H2421 0.950 . S
C2432 C2430 1.391 . S
C2432 C2433 1.400 . S
C2433 C2427 1.491 . S
C2433 C2432 1.400 . S
C2433 C2434 1.398 . S
C2434 H2422 0.950 . S
C2434 C2433 1.398 . S
C2434 C2435 1.391 . S
C2435 H2423 0.950 . S
C2435 C2431 1.393 . S
C2435 C2434 1.391 . S
H2436 C2444 0.950 . S
H2437 C2449 0.950 . S
H2438 C2446 0.950 . S
H2439 C2448 0.950 . S
H2440 C2450 0.950 . S
H2441 C2452 0.950 . S
H2442 C2454 0.950 . S
H2443 C2455 0.950 . S
C2444 H2436 0.950 . S
C2444 C2445 1.386 . S
C2444 C2446 1.391 . S
C2445 C2444 1.386 . S
C2445 C2449 1.393 . S
C2446 H2438 0.950 . S
C2446 C2444 1.391 . S
C2446 C2447 1.400 . S
C2447 C2446 1.400 . S
C2447 C2448 1.398 . S
C2447 C2453 1.491 . S
C2448 H2439 0.950 . S
C2448 C2447 1.398 . S
C2448 C2449 1.391 . S
C2449 H2437 0.950 . S
C2449 C2445 1.393 . S
C2449 C2448 1.391 . S
C2450 H2440 0.950 . S
C2450 C2451 1.386 . S
C2450 C2452 1.391 . S
C2451 C2450 1.386 . S
C2451 C2455 1.393 . S
C2452 H2441 0.950 . S
C2452 C2450 1.391 . S
C2452 C2453 1.400 . S
C2453 C2447 1.491 . S
C2453 C2452 1.400 . S
C2453 C2454 1.398 . S
C2454 H2442 0.950 . S
C2454 C2453 1.398 . S
C2454 C2455 1.391 . S
C2455 H2443 0.950 . S
C2455 C2451 1.393 . S
C2455 C2454 1.391 . S
H2456 C2464 0.950 . S
H2457 C2469 0.950 . S
H2458 C2466 0.950 . S
H2459 C2468 0.950 . S
H2460 C2470 0.950 . S
H2461 C2472 0.950 . S
H2462 C2474 0.950 . S
H2463 C2475 0.950 . S
C2464 H2456 0.950 . S
C2464 C2465 1.386 . S
C2464 C2466 1.391 . S
C2465 C2464 1.386 . S
C2465 C2469 1.393 . S
C2466 H2458 0.950 . S
C2466 C2464 1.391 . S
C2466 C2467 1.400 . S
C2467 C2466 1.400 . S
C2467 C2468 1.398 . S
C2467 C2473 1.491 . S
C2468 H2459 0.950 . S
C2468 C2467 1.398 . S
C2468 C2469 1.391 . S
C2469 H2457 0.950 . S
C2469 C2465 1.393 . S
C2469 C2468 1.391 . S
C2470 H2460 0.950 . S
C2470 C2471 1.386 . S
C2470 C2472 1.391 . S
C2471 C2470 1.386 . S
C2471 C2475 1.393 . S
C2472 H2461 0.950 . S
C2472 C2470 1.391 . S
C2472 C2473 1.400 . S
C2473 C2467 1.491 . S
C2473 C2472 1.400 . S
C2473 C2474 1.398 . S
C2474 H2462 0.950 . S
C2474 C2473 1.398 . S
C2474 C2475 1.391 . S
C2475 H2463 0.950 . S
C2475 C2471 1.393 . S
C2475 C2474 1.391 . S
H2476 C2484 0.950 . S
H2477 C2489 0.950 . S
H2478 C2486 0.950 . S
H2479 C2488 0.950 . S
H2480 C2490 0.950 . S
H2481 C2492 0.950 . S
H2482 C2494 0.950 . S
H2483 C2495 0.950 . S
C2484 H2476 0.950 . S
C2484 C2485 1.386 . S
C2484 C2486 1.391 . S
C2485 C2484 1.386 . S
C2485 C2489 1.393 . S
C2486 H2478 0.950 . S
C2486 C2484 1.391 . S
C2486 C2487 1.400 . S
C2487 C2486 1.400 . S
C2487 C2488 1.398 . S
C2487 C2493 1.491 . S
C2488 H2479 0.950 . S
C2488 C2487 1.398 . S
C2488 C2489 1.391 . S
C2489 H2477 0.950 . S
C2489 C2485 1.393 . S
C2489 C2488 1.391 . S
C2490 H2480 0.950 . S
C2490 C2491 1.386 . S
C2490 C2492 1.391 . S
C2491 C2490 1.386 . S
C2491 C2495 1.393 . S
C2492 H2481 0.950 . S
C2492 C2490 1.391 . S
C2492 C2493 1.400 . S
C2493 C2487 1.491 . S
C2493 C2492 1.400 . S
C2493 C2494 1.398 . S
C2494 H2482 0.950 . S
C2494 C2493 1.398 . S
C2494 C2495 1.391 . S
C2495 H2483 0.950 . S
C2495 C2491 1.393 . S
C2495 C2494 1.391 . S
H2496 C2504 0.950 . S
H2497 C2509 0.950 . S
H2498 C2506 0.950 . S
H2499 C2508 0.950 . S
H2500 C2510 0.950 . S
H2501 C2512 0.950 . S
H2502 C2514 0.950 . S
H2503 C2515 0.950 . S
C2504 H2496 0.950 . S
C2504 C2505 1.386 . S
C2504 C2506 1.391 . S
C2505 C2504 1.386 . S
C2505 C2509 1.393 . S
C2506 H2498 0.950 . S
C2506 C2504 1.391 . S
C2506 C2507 1.400 . S
C2507 C2506 1.400 . S
C2507 C2508 1.398 . S
C2507 C2513 1.491 . S
C2508 H2499 0.950 . S
C2508 C2507 1.398 . S
C2508 C2509 1.391 . S
C2509 H2497 0.950 . S
C2509 C2505 1.393 . S
C2509 C2508 1.391 . S
C2510 H2500 0.950 . S
C2510 C2511 1.386 . S
C2510 C2512 1.391 . S
C2511 C2510 1.386 . S
C2511 C2515 1.393 . S
C2512 H2501 0.950 . S
C2512 C2510 1.391 . S
C2512 C2513 1.400 . S
C2513 C2507 1.491 . S
C2513 C2512 1.400 . S
C2513 C2514 1.398 . S
C2514 H2502 0.950 . S
C2514 C2513 1.398 . S
C2514 C2515 1.391 . S
C2515 H2503 0.950 . S
C2515 C2511 1.393 . S
C2515 C2514 1.391 . S
H2516 C2524 0.950 . S
H2517 C2529 0.950 . S
H2518 C2526 0.950 . S
H2519 C2528 0.950 . S
H2520 C2530 0.950 . S
H2521 C2532 0.950 . S
H2522 C2534 0.950 . S
H2523 C2535 0.950 . S
C2524 H2516 0.950 . S
C2524 C2525 1.386 . S
C2524 C2526 1.391 . S
C2525 C2524 1.386 . S
C2525 C2529 1.393 . S
C2526 H2518 0.950 . S
C2526 C2524 1.391 . S
C2526 C2527 1.400 . S
C2527 C2526 1.400 . S
C2527 C2528 1.398 . S
C2527 C2533 1.491 . S
C2528 H2519 0.950 . S
C2528 C2527 1.398 . S
C2528 C2529 1.391 . S
C2529 H2517 0.950 . S
C2529 C2525 1.393 . S
C2529 C2528 1.391 . S
C2530 H2520 0.950 . S
C2530 C2531 1.386 . S
C2530 C2532 1.391 . S
C2531 C2530 1.386 . S
C2531 C2535 1.393 . S
C2532 H2521 0.950 . S
C2532 C2530 1.391 . S
C2532 C2533 1.400 . S
C2533 C2527 1.491 . S
C2533 C2532 1.400 . S
C2533 C2534 1.398 . S
C2534 H2522 0.950 . S
C2534 C2533 1.398 . S
C2534 C2535 1.391 . S
C2535 H2523 0.950 . S
C2535 C2531 1.393 . S
C2535 C2534 1.391 . S
H2536 C2544 0.950 . S
H2537 C2549 0.950 . S
H2538 C2546 0.950 . S
H2539 C2548 0.950 . S
H2540 C2550 0.950 . S
H2541 C2552 0.950 . S
H2542 C2554 0.950 . S
H2543 C2555 0.950 . S
C2544 H2536 0.950 . S
C2544 C2545 1.386 . S
C2544 C2546 1.391 . S
C2545 C2544 1.386 . S
C2545 C2549 1.393 . S
C2546 H2538 0.950 . S
C2546 C2544 1.391 . S
C2546 C2547 1.400 . S
C2547 C2546 1.400 . S
C2547 C2548 1.398 . S
C2547 C2553 1.491 . S
C2548 H2539 0.950 . S
C2548 C2547 1.398 . S
C2548 C2549 1.391 . S
C2549 H2537 0.950 . S
C2549 C2545 1.393 . S
C2549 C2548 1.391 . S
C2550 H2540 0.950 . S
C2550 C2551 1.386 . S
C2550 C2552 1.391 . S
C2551 C2550 1.386 . S
C2551 C2555 1.393 . S
C2552 H2541 0.950 . S
C2552 C2550 1.391 . S
C2552 C2553 1.400 . S
C2553 C2547 1.491 . S
C2553 C2552 1.400 . S
C2553 C2554 1.398 . S
C2554 H2542 0.950 . S
C2554 C2553 1.398 . S
C2554 C2555 1.391 . S
C2555 H2543 0.950 . S
C2555 C2551 1.393 . S
C2555 C2554 1.391 . S
H2556 C2564 0.950 . S
H2557 C2569 0.950 . S
H2558 C2566 0.950 . S
H2559 C2568 0.950 . S
H2560 C2570 0.950 . S
H2561 C2572 0.950 . S
H2562 C2574 0.950 . S
H2563 C2575 0.950 . S
C2564 H2556 0.950 . S
C2564 C2565 1.386 . S
C2564 C2566 1.391 . S
C2565 C2564 1.386 . S
C2565 C2569 1.393 . S
C2566 H2558 0.950 . S
C2566 C2564 1.391 . S
C2566 C2567 1.400 . S
C2567 C2566 1.400 . S
C2567 C2568 1.398 . S
C2567 C2573 1.491 . S
C2568 H2559 0.950 . S
C2568 C2567 1.398 . S
C2568 C2569 1.391 . S
C2569 H2557 0.950 . S
C2569 C2565 1.393 . S
C2569 C2568 1.391 . S
C2570 H2560 0.950 . S
C2570 C2571 1.386 . S
C2570 C2572 1.391 . S
C2571 C2570 1.386 . S
C2571 C2575 1.393 . S
C2572 H2561 0.950 . S
C2572 C2570 1.391 . S
C2572 C2573 1.400 . S
C2573 C2567 1.491 . S
C2573 C2572 1.400 . S
C2573 C2574 1.398 . S
C2574 H2562 0.950 . S
C2574 C2573 1.398 . S
C2574 C2575 1.391 . S
C2575 H2563 0.950 . S
C2575 C2571 1.393 . S
C2575 C2574 1.391 . S
H2576 C2584 0.950 . S
H2577 C2589 0.950 . S
H2578 C2586 0.950 . S
H2579 C2588 0.950 . S
H2580 C2590 0.950 . S
H2581 C2592 0.950 . S
H2582 C2594 0.950 . S
H2583 C2595 0.950 . S
C2584 H2576 0.950 . S
C2584 C2585 1.386 . S
C2584 C2586 1.391 . S
C2585 C2584 1.386 . S
C2585 C2589 1.393 . S
C2586 H2578 0.950 . S
C2586 C2584 1.391 . S
C2586 C2587 1.400 . S
C2587 C2586 1.400 . S
C2587 C2588 1.398 . S
C2587 C2593 1.491 . S
C2588 H2579 0.950 . S
C2588 C2587 1.398 . S
C2588 C2589 1.391 . S
C2589 H2577 0.950 . S
C2589 C2585 1.393 . S
C2589 C2588 1.391 . S
C2590 H2580 0.950 . S
C2590 C2591 1.386 . S
C2590 C2592 1.391 . S
C2591 C2590 1.386 . S
C2591 C2595 1.393 . S
C2592 H2581 0.950 . S
C2592 C2590 1.391 . S
C2592 C2593 1.400 . S
C2593 C2587 1.491 . S
C2593 C2592 1.400 . S
C2593 C2594 1.398 . S
C2594 H2582 0.950 . S
C2594 C2593 1.398 . S
C2594 C2595 1.391 . S
C2595 H2583 0.950 . S
C2595 C2591 1.393 . S
C2595 C2594 1.391 . S
H2596 C2604 0.950 . S
H2597 C2609 0.950 . S
H2598 C2606 0.950 . S
H2599 C2608 0.950 . S
H2600 C2610 0.950 . S
H2601 C2612 0.950 . S
H2602 C2614 0.950 . S
H2603 C2615 0.950 . S
C2604 H2596 0.950 . S
C2604 C2605 1.386 . S
C2604 C2606 1.391 . S
C2605 C2604 1.386 . S
C2605 C2609 1.393 . S
C2606 H2598 0.950 . S
C2606 C2604 1.391 . S
C2606 C2607 1.400 . S
C2607 C2606 1.400 . S
C2607 C2608 1.398 . S
C2607 C2613 1.491 . S
C2608 H2599 0.950 . S
C2608 C2607 1.398 . S
C2608 C2609 1.391 . S
C2609 H2597 0.950 . S
C2609 C2605 1.393 . S
C2609 C2608 1.391 . S
C2610 H2600 0.950 . S
C2610 C2611 1.386 . S
C2610 C2612 1.391 . S
C2611 C2610 1.386 . S
C2611 C2615 1.393 . S
C2612 H2601 0.950 . S
C2612 C2610 1.391 . S
C2612 C2613 1.400 . S
C2613 C2607 1.491 . S
C2613 C2612 1.400 . S
C2613 C2614 1.398 . S
C2614 H2602 0.950 . S
C2614 C2613 1.398 . S
C2614 C2615 1.391 . S
C2615 H2603 0.950 . S
C2615 C2611 1.393 . S
C2615 C2614 1.391 . S
H2616 C2624 0.950 . S
H2617 C2629 0.950 . S
H2618 C2626 0.950 . S
H2619 C2628 0.950 . S
H2620 C2630 0.950 . S
H2621 C2632 0.950 . S
H2622 C2634 0.950 . S
H2623 C2635 0.950 . S
C2624 H2616 0.950 . S
C2624 C2625 1.386 . S
C2624 C2626 1.391 . S
C2625 C2624 1.386 . S
C2625 C2629 1.393 . S
C2626 H2618 0.950 . S
C2626 C2624 1.391 . S
C2626 C2627 1.400 . S
C2627 C2626 1.400 . S
C2627 C2628 1.398 . S
C2627 C2633 1.491 . S
C2628 H2619 0.950 . S
C2628 C2627 1.398 . S
C2628 C2629 1.391 . S
C2629 H2617 0.950 . S
C2629 C2625 1.393 . S
C2629 C2628 1.391 . S
C2630 H2620 0.950 . S
C2630 C2631 1.386 . S
C2630 C2632 1.391 . S
C2631 C2630 1.386 . S
C2631 C2635 1.393 . S
C2632 H2621 0.950 . S
C2632 C2630 1.391 . S
C2632 C2633 1.400 . S
C2633 C2627 1.491 . S
C2633 C2632 1.400 . S
C2633 C2634 1.398 . S
C2634 H2622 0.950 . S
C2634 C2633 1.398 . S
C2634 C2635 1.391 . S
C2635 H2623 0.950 . S
C2635 C2631 1.393 . S
C2635 C2634 1.391 . S
H2636 C2644 0.950 . S
H2637 C2649 0.950 . S
H2638 C2646 0.950 . S
H2639 C2648 0.950 . S
H2640 C2650 0.950 . S
H2641 C2652 0.950 . S
H2642 C2654 0.950 . S
H2643 C2655 0.950 . S
C2644 H2636 0.950 . S
C2644 C2645 1.386 . S
C2644 C2646 1.391 . S
C2645 C2644 1.386 . S
C2645 C2649 1.393 . S
C2646 H2638 0.950 . S
C2646 C2644 1.391 . S
C2646 C2647 1.400 . S
C2647 C2646 1.400 . S
C2647 C2648 1.398 . S
C2647 C2653 1.491 . S
C2648 H2639 0.950 . S
C2648 C2647 1.398 . S
C2648 C2649 1.391 . S
C2649 H2637 0.950 . S
C2649 C2645 1.393 . S
C2649 C2648 1.391 . S
C2650 H2640 0.950 . S
C2650 C2651 1.386 . S
C2650 C2652 1.391 . S
C2651 C2650 1.386 . S
C2651 C2655 1.393 . S
C2652 H2641 0.950 . S
C2652 C2650 1.391 . S
C2652 C2653 1.400 . S
C2653 C2647 1.491 . S
C2653 C2652 1.400 . S
C2653 C2654 1.398 . S
C2654 H2642 0.950 . S
C2654 C2653 1.398 . S
C2654 C2655 1.391 . S
C2655 H2643 0.950 . S
C2655 C2651 1.393 . S
C2655 C2654 1.391 . S
C1065 C17 1.055 . S
C1071 C611 1.068 . S
C1085 C644 1.053 . S
C1091 C50 1.045 . S
C1105 C545 1.046 . S
C1111 C83 1.044 . S
C1125 C116 1.081 . S
C1131 C578 1.083 . S
C1145 C743 1.081 . S
C1151 C149 1.083 . S
C1165 C776 1.071 . S
C1171 C182 1.081 . S
C1185 C215 1.047 . S
C1191 C677 1.044 . S
C1205 C248 1.076 . S
C1211 C710 1.082 . S
C1225 C875 1.083 . S
C1231 C281 1.078 . S
C1245 C908 1.072 . S
C1251 C314 1.059 . S
C1265 C347 1.068 . S
C1271 C809 1.055 . S
C1285 C380 1.049 . S
C1291 C842 1.060 . S
C1305 C413 1.079 . S
C1311 C1007 1.067 . S
C1325 C446 1.075 . S
C1331 C1040 1.082 . S
C1345 C941 1.071 . S
C1351 C479 1.058 . S
C1365 C512 1.080 . S
C1371 C974 1.069 . S
C1385 N14 1.466 . S
C1391 N806 1.466 . S
C1405 N311 1.473 . S
C1411 N47 1.473 . S
C1425 N872 1.468 . S
C1431 N80 1.468 . S
C1445 N113 1.485 . S
C1451 N377 1.485 . S
C1465 N146 1.480 . S
C1471 N938 1.480 . S
C1485 N179 1.467 . S
C1491 N443 1.467 . S
C1505 N1004 1.463 . S
C1511 N212 1.463 . S
C1525 N509 1.471 . S
C1531 N245 1.471 . S
C1545 N542 1.464 . S
C1551 N278 1.464 . S
C1565 N608 1.480 . S
C1571 N344 1.480 . S
C1585 N674 1.485 . S
C1591 N410 1.485 . S
C1605 N476 1.462 . S
C1611 N740 1.462 . S
C1625 N839 1.485 . S
C1631 N575 1.485 . S
C1645 N905 1.479 . S
C1651 N641 1.479 . S
C1665 N707 1.485 . S
C1671 N971 1.485 . S
C1685 N773 1.468 . S
C1691 N1037 1.468 . S
C1705 C28 1.862 . S
C1711 C932 1.760 . S
C1725 C61 1.878 1_565 S
C1731 C437 1.789 . S
C1745 C998 1.760 . S
C1751 C94 1.861 . S
C1765 C503 1.760 . S
C1771 C127 1.861 1_545 S
C1785 C800 1.760 . S
C1791 C160 1.861 . S
C1805 C305 1.761 . S
C1811 C193 1.861 1_565 S
C1825 C226 1.875 . S
C1831 C866 1.785 . S
C1845 C371 1.789 . S
C1851 C259 1.879 1_545 S
C1865 C668 1.782 . S
C1871 C292 1.876 . S
C1885 C325 1.878 1_545 S
C1891 C173 1.789 . S
C1905 C734 1.789 . S
C1911 C358 1.878 . S
C1925 C391 1.875 1_565 S
C1931 C239 1.786 . S
C1945 C424 1.876 . S
C1951 C536 1.787 . S
C1965 C41 1.762 . S
C1971 C457 1.861 1_545 S
C1985 C602 1.787 . S
C1991 C490 1.878 . S
C2005 C523 1.876 1_565 S
C2011 C107 1.780 . S
C2025 C556 1.863 . S
C2031 C404 1.760 . S
C2045 C589 1.878 . S
C2051 C965 1.785 . S
C2065 C470 1.786 . S
C2071 C622 1.875 . S
C2085 C655 1.862 . S
C2091 C1031 1.761 . S
C2105 C688 1.873 . S
C2111 C272 1.777 . S
C2125 C833 1.785 . S
C2131 C721 1.877 . S
C2145 C754 1.877 . S
C2151 C338 1.783 . S
C2165 C787 1.873 . S
C2171 C899 1.783 . S
C2185 C820 1.878 . S
C2191 C140 1.785 . S
C2205 C701 1.787 . S
C2211 C853 1.878 . S
C2225 C886 1.867 . S
C2231 C206 1.766 . S
C2245 C767 1.761 . S
C2251 C919 1.861 . S
C2265 C952 1.876 . S
C2271 C8 1.787 . S
C2285 C985 1.862 . S
C2291 C569 1.760 . S
C2305 C1018 1.864 . S
C2311 C74 1.762 . S
C2325 C1051 1.862 . S
C2331 C635 1.760 . S
C2345 N5 1.636 . S
C2351 N170 1.632 . S
C2365 N203 1.640 . S
C2371 N38 1.637 . S
C2385 N71 1.640 . S
C2391 N236 1.637 . S
C2405 N104 1.640 . S
C2411 N137 1.634 . S
C2425 N434 1.638 . S
C2431 N269 1.632 . S
C2445 N467 1.633 . S
C2451 N302 1.639 . S
C2465 N500 1.632 . S
C2471 N335 1.635 . S
C2485 N368 1.637 . S
C2491 N401 1.632 . S
C2505 N533 1.636 . S
C2511 N698 1.640 . S
C2525 N731 1.638 . S
C2531 N566 1.639 . S
C2545 N599 1.638 . S
C2551 N764 1.640 . S
C2565 N665 1.633 . S
C2571 N632 1.634 . S
C2585 N962 1.638 . S
C2591 N797 1.632 . S
C2605 N995 1.637 . S
C2611 N830 1.639 . S
C2625 N863 1.640 . S
C2631 N1028 1.638 . S
C2645 N929 1.639 . S
C2651 N896 1.633 . S
