# Generated by pormake.
# Topology ukh, (4)-cn, num edge types: 1
# Building blocks:
#     Node 0, Type 0, BuildingBlock: CEKHIL_clean_sbu_0, # of connection points: 4
#     Node 1, Type 0, BuildingBlock: CEKHIL_clean_sbu_0, # of connection points: 4
#     Node 2, Type 0, BuildingBlock: CEKHIL_clean_sbu_0, # of connection points: 4
#     Node 3, Type 0, BuildingBlock: CEKHIL_clean_sbu_0, # of connection points: 4
#     Node 4, Type 0, BuildingBlock: CEKHIL_clean_sbu_0, # of connection points: 4
#     Node 5, Type 0, BuildingBlock: CEKHIL_clean_sbu_0, # of connection points: 4
#     Node 6, Type 0, BuildingBlock: CEKHIL_clean_sbu_0, # of connection points: 4
#     Node 7, Type 0, BuildingBlock: CEKHIL_clean_sbu_0, # of connection points: 4
#     Node 8, Type 0, BuildingBlock: CEKHIL_clean_sbu_0, # of connection points: 4
#     Node 9, Type 0, BuildingBlock: CEKHIL_clean_sbu_0, # of connection points: 4
#     Node 10, Type 0, BuildingBlock: CEKHIL_clean_sbu_0, # of connection points: 4
#     Node 11, Type 0, BuildingBlock: CEKHIL_clean_sbu_0, # of connection points: 4
#     Edge 12, Type (0, 0), BuildingBlock: KIFKEQ_clean_linker_1, # of connection points: 2
#     Edge 13, Type (0, 0), BuildingBlock: KIFKEQ_clean_linker_1, # of connection points: 2
#     Edge 14, Type (0, 0), BuildingBlock: KIFKEQ_clean_linker_1, # of connection points: 2
#     Edge 15, Type (0, 0), BuildingBlock: KIFKEQ_clean_linker_1, # of connection points: 2
#     Edge 16, Type (0, 0), BuildingBlock: KIFKEQ_clean_linker_1, # of connection points: 2
#     Edge 17, Type (0, 0), BuildingBlock: KIFKEQ_clean_linker_1, # of connection points: 2
#     Edge 18, Type (0, 0), BuildingBlock: KIFKEQ_clean_linker_1, # of connection points: 2
#     Edge 19, Type (0, 0), BuildingBlock: KIFKEQ_clean_linker_1, # of connection points: 2
#     Edge 20, Type (0, 0), BuildingBlock: KIFKEQ_clean_linker_1, # of connection points: 2
#     Edge 21, Type (0, 0), BuildingBlock: KIFKEQ_clean_linker_1, # of connection points: 2
#     Edge 22, Type (0, 0), BuildingBlock: KIFKEQ_clean_linker_1, # of connection points: 2
#     Edge 23, Type (0, 0), BuildingBlock: KIFKEQ_clean_linker_1, # of connection points: 2
#     Edge 24, Type (0, 0), BuildingBlock: KIFKEQ_clean_linker_1, # of connection points: 2
#     Edge 25, Type (0, 0), BuildingBlock: KIFKEQ_clean_linker_1, # of connection points: 2
#     Edge 26, Type (0, 0), BuildingBlock: KIFKEQ_clean_linker_1, # of connection points: 2
#     Edge 27, Type (0, 0), BuildingBlock: KIFKEQ_clean_linker_1, # of connection points: 2
#     Edge 28, Type (0, 0), BuildingBlock: KIFKEQ_clean_linker_1, # of connection points: 2
#     Edge 29, Type (0, 0), BuildingBlock: KIFKEQ_clean_linker_1, # of connection points: 2
#     Edge 30, Type (0, 0), BuildingBlock: KIFKEQ_clean_linker_1, # of connection points: 2
#     Edge 31, Type (0, 0), BuildingBlock: KIFKEQ_clean_linker_1, # of connection points: 2
#     Edge 32, Type (0, 0), BuildingBlock: KIFKEQ_clean_linker_1, # of connection points: 2
#     Edge 33, Type (0, 0), BuildingBlock: KIFKEQ_clean_linker_1, # of connection points: 2
#     Edge 34, Type (0, 0), BuildingBlock: KIFKEQ_clean_linker_1, # of connection points: 2
#     Edge 35, Type (0, 0), BuildingBlock: KIFKEQ_clean_linker_1, # of connection points: 2
# Relax obj value: 0.070
# Max RMSD: 0.091
# Mean RMSD: 0.091
data_MOF--net-ukh--node1-CEKHIL_clean_sbu_0--edge1-KIFKEQ_clean_linker_1
_symmetry_space_group_name_H-M    P1
_symmetry_Int_Tables_number       1
_symmetry_cell_setting            triclinic
loop_
_symmetry_equiv_pos_as_xyz
'x, y, z'
_cell_length_a     32.89211
_cell_length_b     32.873128
_cell_length_c     61.818468
_cell_angle_alpha  90.000493
_cell_angle_beta   90.046525
_cell_angle_gamma 119.95087
loop_
_atom_site_label
_atom_site_type_symbol
_atom_site_fract_x
_atom_site_fract_y
_atom_site_fract_z
_atom_type_partial_charge
Co0 Co 0.32576 0.25519 0.04799 0.0
O1 O 0.34535 0.3193 0.05429 0.0
O2 O 0.39211 0.29576 0.04064 0.0
C3 C 0.2593 0.24037 0.03079 0.0
O4 O 0.31361 0.18982 0.03913 0.0
Co5 Co 0.23192 0.1824 0.07028 0.0
O6 O 0.24202 0.1381 0.05246 0.0
C7 C 0.31841 0.23012 0.09574 0.0
C8 C 0.38635 0.33045 0.04698 0.0
C9 C 0.2788 0.14757 0.04166 0.0
O10 O 0.34262 0.24567 0.07829 0.0
O11 O 0.27357 0.20938 0.09619 0.0
O12 O 0.29893 0.25972 0.02048 0.0
O13 O 0.26234 0.23566 0.05132 0.0
Co14 Co 0.0759 0.32313 0.38079 0.0
O15 O 0.03221 0.3412 0.39119 0.0
O16 O 0.09878 0.3893 0.37473 0.0
C17 C 0.02114 0.25718 0.36433 0.0
O18 O 0.12813 0.31464 0.36707 0.0
Co19 Co 0.06582 0.22843 0.39692 0.0
O20 O 0.11119 0.24012 0.37357 0.0
C21 C 0.11453 0.31362 0.42418 0.0
C22 C 0.05977 0.38257 0.3834 0.0
C23 C 0.13563 0.27991 0.36454 0.0
O24 O 0.10899 0.33874 0.40977 0.0
O25 O 0.09815 0.26934 0.42242 0.0
O26 O 0.03846 0.29746 0.35466 0.0
O27 O 0.03425 0.25859 0.38413 0.0
Co28 Co 0.7516 0.07289 0.71665 0.0
O29 O 0.68843 0.02733 0.72408 0.0
O30 O 0.70921 0.09679 0.71005 0.0
C31 C 0.76716 0.02196 0.69924 0.0
O32 O 0.81477 0.12715 0.70632 0.0
Co33 Co 0.8302 0.05816 0.73695 0.0
O34 O 0.87129 0.11277 0.71852 0.0
C35 C 0.78054 0.09273 0.76384 0.0
C36 C 0.67577 0.05631 0.71697 0.0
C37 C 0.85803 0.13729 0.70784 0.0
O38 O 0.76282 0.10027 0.7468 0.0
O39 O 0.80354 0.0708 0.76358 0.0
O40 O 0.74569 0.04063 0.68931 0.0
O41 O 0.7739 0.0309 0.71966 0.0
Co42 Co 0.68625 0.75271 0.04786 0.0
O43 O 0.66805 0.68905 0.05469 0.0
O44 O 0.62032 0.71085 0.04046 0.0
C45 C 0.75324 0.76878 0.03093 0.0
O46 O 0.69624 0.81675 0.03811 0.0
Co47 Co 0.77871 0.82944 0.06951 0.0
O48 O 0.76664 0.87196 0.05135 0.0
C49 C 0.69312 0.77919 0.09536 0.0
C50 C 0.62691 0.67689 0.04713 0.0
C51 C 0.7296 0.85978 0.04025 0.0
O52 O 0.66876 0.76255 0.07799 0.0
O53 O 0.738 0.80173 0.09563 0.0
O54 O 0.71356 0.74801 0.02064 0.0
O55 O 0.75024 0.77435 0.05141 0.0
Co56 Co 0.93352 0.68 0.38322 0.0
O57 O 0.97837 0.66168 0.3911 0.0
O58 O 0.90954 0.61376 0.37636 0.0
C59 C 0.98534 0.74659 0.36629 0.0
O60 O 0.8802 0.69008 0.37237 0.0
Co61 Co 0.94849 0.77315 0.40386 0.0
O62 O 0.89517 0.76106 0.38477 0.0
C63 C 0.91178 0.68805 0.43023 0.0
C64 C 0.94963 0.62033 0.38366 0.0
C65 C 0.87074 0.72374 0.37378 0.0
O66 O 0.90475 0.66328 0.41306 0.0
O67 O 0.93422 0.73296 0.43029 0.0
O68 O 0.96689 0.70665 0.3562 0.0
O69 O 0.97579 0.74406 0.38665 0.0
Co70 Co 0.25286 0.93061 0.71381 0.0
O71 O 0.31466 0.97442 0.72406 0.0
O72 O 0.29616 0.90791 0.70742 0.0
C73 C 0.24094 0.98525 0.6977 0.0
O74 O 0.19203 0.87823 0.70027 0.0
Co75 Co 0.16844 0.94042 0.73055 0.0
O76 O 0.13415 0.89434 0.7075 0.0
C77 C 0.20572 0.89157 0.75725 0.0
C78 C 0.32844 0.94691 0.71613 0.0
C79 C 0.14954 0.87018 0.69819 0.0
O80 O 0.23611 0.89732 0.7427 0.0
O81 O 0.17772 0.90789 0.75578 0.0
O82 O 0.26389 0.96818 0.68779 0.0
O83 O 0.22977 0.97202 0.7175 0.0
Co84 Co 0.75053 0.68047 0.61401 0.0
O85 O 0.6872 0.66201 0.60652 0.0
O86 O 0.70855 0.61454 0.62145 0.0
C87 C 0.76575 0.74782 0.63049 0.0
O88 O 0.81421 0.69067 0.62437 0.0
Co89 Co 0.82769 0.77299 0.59249 0.0
O90 O 0.86968 0.76072 0.61095 0.0
C91 C 0.77943 0.68656 0.56693 0.0
C92 C 0.67485 0.62093 0.61423 0.0
C93 C 0.85726 0.72382 0.6222 0.0
O94 O 0.76167 0.66251 0.58426 0.0
O95 O 0.80184 0.73146 0.56645 0.0
O96 O 0.7448 0.70831 0.64091 0.0
O97 O 0.77207 0.74441 0.61014 0.0
Co98 Co 0.08145 0.75531 0.94762 0.0
O99 O 0.03899 0.69188 0.93914 0.0
O100 O 0.1067 0.71465 0.95561 0.0
C101 C 0.02648 0.76734 0.96327 0.0
O102 O 0.13285 0.81962 0.95892 0.0
Co103 Co 0.06439 0.83214 0.92653 0.0
O104 O 0.1143 0.87331 0.94689 0.0
C105 C 0.11322 0.79248 0.9019 0.0
C106 C 0.0682 0.68065 0.9473 0.0
C107 C 0.14025 0.86212 0.95773 0.0
O108 O 0.11271 0.7682 0.91831 0.0
O109 O 0.09354 0.8176 0.90154 0.0
O110 O 0.0455 0.74712 0.97392 0.0
O111 O 0.03759 0.77497 0.94307 0.0
Co112 Co 0.32234 0.06933 0.27837 0.0
O113 O 0.34049 0.0242 0.27076 0.0
O114 O 0.38858 0.09346 0.2851 0.0
C115 C 0.25606 0.01792 0.29565 0.0
O116 O 0.3126 0.1231 0.28879 0.0
Co117 Co 0.22868 0.05346 0.25785 0.0
O118 O 0.24162 0.10791 0.27632 0.0
C119 C 0.31366 0.09108 0.23134 0.0
C120 C 0.38189 0.05313 0.27807 0.0
C121 C 0.27916 0.13276 0.2871 0.0
O122 O 0.33858 0.09748 0.24839 0.0
O123 O 0.26876 0.06875 0.23135 0.0
O124 O 0.29614 0.03669 0.3056 0.0
O125 O 0.25825 0.02691 0.27524 0.0
Co126 Co 0.25115 0.32645 0.61521 0.0
O127 O 0.31351 0.34365 0.6062 0.0
O128 O 0.29475 0.39202 0.62229 0.0
C129 C 0.23689 0.25909 0.63127 0.0
O130 O 0.18967 0.31862 0.62767 0.0
Co131 Co 0.16746 0.23403 0.59684 0.0
O132 O 0.13124 0.24597 0.6188 0.0
C133 C 0.2094 0.32051 0.57049 0.0
C134 C 0.32729 0.38481 0.61428 0.0
C135 C 0.1466 0.28493 0.62867 0.0
O136 O 0.23759 0.34444 0.5859 0.0
O137 O 0.1809 0.27627 0.57135 0.0
O138 O 0.25933 0.29875 0.64151 0.0
O139 O 0.2275 0.26188 0.61123 0.0
Co140 Co 0.93187 0.25697 0.9485 0.0
O141 O 0.97468 0.31927 0.93866 0.0
O142 O 0.9088 0.29954 0.95616 0.0
C143 C 0.9868 0.24445 0.96378 0.0
O144 O 0.88081 0.19476 0.96141 0.0
Co145 Co 0.94404 0.17659 0.92824 0.0
O146 O 0.89442 0.1376 0.94935 0.0
C147 C 0.90279 0.222 0.90259 0.0
C148 C 0.94707 0.33226 0.94714 0.0
C149 C 0.87154 0.15165 0.96076 0.0
O150 O 0.89816 0.24157 0.9197 0.0
O151 O 0.9252 0.19949 0.90215 0.0
O152 O 0.96984 0.26682 0.97428 0.0
O153 O 0.97385 0.23513 0.94384 0.0
Co154 Co 0.67998 0.92813 0.28033 0.0
O155 O 0.66119 0.97208 0.27138 0.0
O156 O 0.61399 0.90456 0.28735 0.0
C157 C 0.74678 0.98189 0.29652 0.0
O158 O 0.69044 0.87592 0.29244 0.0
Co159 Co 0.77293 0.9414 0.26035 0.0
O160 O 0.76169 0.89043 0.28081 0.0
C161 C 0.6875 0.90222 0.23397 0.0
C162 C 0.6202 0.94397 0.27931 0.0
C163 C 0.72433 0.86674 0.29182 0.0
O164 O 0.66277 0.89672 0.25098 0.0
O165 O 0.73238 0.92443 0.23391 0.0
O166 O 0.70712 0.964 0.30675 0.0
O167 O 0.7439 0.97038 0.27639 0.0
H168 H 0.53545 0.63613 0.03255 0.0
H169 H 0.63776 0.60293 0.05809 0.0
H170 H 0.47816 0.55199 0.03022 0.0
H171 H 0.58092 0.51979 0.05604 0.0
H172 H 0.47859 0.37027 0.03331 0.0
H173 H 0.53664 0.45438 0.03115 0.0
H174 H 0.43355 0.4878 0.05526 0.0
H175 H 0.37619 0.40502 0.05715 0.0
C176 C 0.54568 0.61101 0.03769 0.0
C177 C 0.59105 0.62634 0.04563 0.0
C178 C 0.51293 0.56282 0.03638 0.0
C179 C 0.525 0.52904 0.0429 0.0
C180 C 0.57058 0.54461 0.05056 0.0
C181 C 0.60306 0.5925 0.05194 0.0
C182 C 0.4685 0.39569 0.03809 0.0
C183 C 0.42284 0.38081 0.04549 0.0
C184 C 0.50166 0.44383 0.03689 0.0
C185 C 0.48966 0.47793 0.04294 0.0
C186 C 0.44386 0.46276 0.05011 0.0
C187 C 0.41105 0.41502 0.0514 0.0
H188 H 0.10792 0.47363 0.36845 0.0
H189 H 0.9768 0.37183 0.39767 0.0
H190 H 0.08005 0.53021 0.36714 0.0
H191 H 0.94932 0.42807 0.39647 0.0
H192 H 0.89789 0.52695 0.37171 0.0
H193 H 0.92492 0.46952 0.37059 0.0
H194 H 0.06172 0.57582 0.3929 0.0
H195 H 0.0352 0.6326 0.3939 0.0
C196 C 0.07336 0.46342 0.37468 0.0
C197 C 0.04478 0.41833 0.38326 0.0
C198 C 0.05734 0.49576 0.37394 0.0
C199 C 0.01229 0.48354 0.38162 0.0
C200 C 0.98383 0.43841 0.39013 0.0
C201 C 0.9999 0.40633 0.39101 0.0
C202 C 0.93366 0.53789 0.37635 0.0
C203 C 0.96422 0.58428 0.38296 0.0
C204 C 0.94916 0.50507 0.37577 0.0
C205 C 0.99563 0.5182 0.38156 0.0
C206 C 0.02602 0.56466 0.38801 0.0
C207 C 0.01053 0.59714 0.38876 0.0
H208 H 0.37121 0.89863 0.70113 0.0
H209 H 0.40061 0.02978 0.73055 0.0
H210 H 0.45554 0.92623 0.70003 0.0
H211 H 0.48418 0.05698 0.72957 0.0
H212 H 0.63432 0.10823 0.70512 0.0
H213 H 0.55001 0.08135 0.70385 0.0
H214 H 0.51925 0.94423 0.7259 0.0
H215 H 0.60248 0.97062 0.72703 0.0
C216 C 0.39555 0.93314 0.70744 0.0
C217 C 0.37911 0.96181 0.71602 0.0
C218 C 0.44384 0.949 0.70683 0.0
C219 C 0.47664 0.99398 0.71463 0.0
C220 C 0.46003 0.02253 0.72313 0.0
C221 C 0.41196 0.00662 0.72388 0.0
C222 C 0.60947 0.07243 0.70968 0.0
C223 C 0.6252 0.04172 0.71624 0.0
C224 C 0.56123 0.05701 0.709 0.0
C225 C 0.52787 0.0105 0.71468 0.0
C226 C 0.54382 0.97996 0.7211 0.0
C227 C 0.59174 0.99537 0.72192 0.0
H228 H 0.63341 0.52878 0.62813 0.0
H229 H 0.60154 0.63223 0.6028 0.0
H230 H 0.54904 0.47159 0.62978 0.0
H231 H 0.5184 0.5757 0.6043 0.0
H232 H 0.37005 0.47647 0.62846 0.0
H233 H 0.45446 0.53261 0.63024 0.0
H234 H 0.48338 0.4278 0.60417 0.0
H235 H 0.39973 0.37202 0.60252 0.0
C236 C 0.60856 0.53928 0.62291 0.0
C237 C 0.6243 0.58499 0.61526 0.0
C238 C 0.56029 0.50661 0.62382 0.0
C239 C 0.52694 0.51922 0.61729 0.0
C240 C 0.54293 0.565 0.6098 0.0
C241 C 0.59083 0.59732 0.60876 0.0
C242 C 0.39448 0.46554 0.6231 0.0
C243 C 0.37809 0.41992 0.6152 0.0
C244 C 0.44281 0.49763 0.62411 0.0
C245 C 0.4757 0.48461 0.61739 0.0
C246 C 0.45915 0.43881 0.60974 0.0
C247 C 0.41104 0.40698 0.6086 0.0
H248 H 0.92863 0.38241 0.97743 0.0
H249 H 0.99936 0.39601 0.91681 0.0
H250 H 0.96178 0.46826 0.9784 0.0
H251 H 0.03139 0.48072 0.9176 0.0
H252 H 0.02304 0.61798 0.91558 0.0
H253 H 0.99228 0.53343 0.91621 0.0
H254 H 0.05138 0.545 0.97979 0.0
H255 H 0.08338 0.63073 0.97896 0.0
C256 C 0.95051 0.40359 0.96419 0.0
C257 C 0.96113 0.38259 0.94696 0.0
C258 C 0.96995 0.4526 0.96489 0.0
C259 C 0.99939 0.48103 0.94814 0.0
C260 C 0.00886 0.45969 0.93072 0.0
C261 C 0.99035 0.41118 0.93024 0.0
C262 C 0.03015 0.60264 0.92957 0.0
C263 C 0.05601 0.63089 0.94712 0.0
C264 C 0.01237 0.55424 0.92995 0.0
C265 C 0.01912 0.53268 0.9481 0.0
C266 C 0.04539 0.56083 0.96567 0.0
C267 C 0.0642 0.60977 0.96508 0.0
H268 H 0.37041 0.96814 0.26704 0.0
H269 H 0.47424 0.10414 0.29143 0.0
H270 H 0.42706 0.94148 0.26873 0.0
H271 H 0.53144 0.07699 0.29326 0.0
H272 H 0.63122 0.02795 0.26672 0.0
H273 H 0.57464 0.05475 0.26781 0.0
H274 H 0.47126 0.92146 0.29466 0.0
H275 H 0.52838 0.89416 0.29344 0.0
C276 C 0.40543 0.99248 0.27282 0.0
C277 C 0.41785 0.03849 0.27902 0.0
C278 C 0.4378 0.97689 0.27397 0.0
C279 C 0.48369 0.0069 0.28124 0.0
C280 C 0.49635 0.05304 0.28745 0.0
C281 C 0.46367 0.06864 0.28643 0.0
C282 C 0.59643 0.00412 0.27286 0.0
C283 C 0.58425 0.95868 0.27989 0.0
C284 C 0.56411 0.01982 0.27368 0.0
C285 C 0.51851 0.99046 0.28143 0.0
C286 C 0.50611 0.94488 0.28847 0.0
C287 C 0.53875 0.9292 0.2878 0.0
H288 H 0.3812 0.18255 0.22744 0.0
H289 H 0.29545 0.05688 0.19039 0.0
H290 H 0.40197 0.22932 0.1941 0.0
H291 H 0.31782 0.10325 0.1571 0.0
H292 H 0.30461 0.25185 0.13642 0.0
H293 H 0.3242 0.22596 0.16996 0.0
H294 H 0.39947 0.17281 0.13347 0.0
H295 H 0.38161 0.20059 0.0999 0.0
C296 C 0.36869 0.16474 0.21207 0.0
C297 C 0.33679 0.11623 0.21135 0.0
C298 C 0.38046 0.19146 0.19309 0.0
C299 C 0.36165 0.16967 0.17317 0.0
C300 C 0.33325 0.12063 0.17228 0.0
C301 C 0.32039 0.09417 0.19127 0.0
C302 C 0.32726 0.23672 0.13571 0.0
C303 C 0.34174 0.22825 0.1157 0.0
C304 C 0.33852 0.22201 0.15484 0.0
C305 C 0.36329 0.1975 0.15416 0.0
C306 C 0.38075 0.19209 0.13432 0.0
C307 C 0.37066 0.2081 0.1152 0.0
H308 H 0.1814 0.29938 0.44153 0.0
H309 H 0.10948 0.37758 0.45088 0.0
H310 H 0.21678 0.32294 0.47717 0.0
H311 H 0.14463 0.40095 0.48712 0.0
H312 H 0.13499 0.32471 0.5554 0.0
H313 H 0.12384 0.34417 0.51865 0.0
H314 H 0.26794 0.38655 0.50378 0.0
H315 H 0.27905 0.36741 0.54095 0.0
C316 C 0.17414 0.32265 0.4511 0.0
C317 C 0.14231 0.33619 0.44371 0.0
C318 C 0.19481 0.33659 0.47143 0.0
C319 C 0.1834 0.36371 0.48497 0.0
C320 C 0.154 0.38002 0.47697 0.0
C321 C 0.13394 0.36674 0.45632 0.0
C322 C 0.16473 0.33997 0.54448 0.0
C323 C 0.20773 0.34446 0.55077 0.0
C324 C 0.15849 0.35141 0.52349 0.0
C325 C 0.19493 0.36659 0.50831 0.0
C326 C 0.23926 0.37483 0.51519 0.0
C327 C 0.24571 0.36407 0.53639 0.0
H328 H 0.76213 0.05376 0.80381 0.0
H329 H 0.80101 0.1829 0.76997 0.0
H330 H 0.78117 0.09568 0.83828 0.0
H331 H 0.82183 0.22537 0.80455 0.0
H332 H 0.93796 0.25445 0.86272 0.0
H333 H 0.89425 0.2295 0.82868 0.0
H334 H 0.76471 0.15347 0.86428 0.0
H335 H 0.80851 0.18009 0.8984 0.0
C336 C 0.77328 0.09084 0.80387 0.0
C337 C 0.78014 0.1152 0.78435 0.0
C338 C 0.78399 0.11479 0.82355 0.0
C339 C 0.80292 0.16368 0.82398 0.0
C340 C 0.80695 0.18761 0.80457 0.0
C341 C 0.79494 0.16334 0.78487 0.0
C342 C 0.89997 0.23434 0.86319 0.0
C343 C 0.87638 0.21938 0.88301 0.0
C344 C 0.87496 0.22013 0.84378 0.0
C345 C 0.82619 0.1896 0.84395 0.0
C346 C 0.80225 0.17733 0.8638 0.0
C347 C 0.82721 0.19266 0.88324 0.0
H348 H 0.70927 0.75678 0.13542 0.0
H349 H 0.62626 0.80374 0.10082 0.0
H350 H 0.68668 0.77686 0.16972 0.0
H351 H 0.6051 0.82567 0.13521 0.0
H352 H 0.69646 0.93904 0.19393 0.0
H353 H 0.67686 0.89562 0.1598 0.0
H354 H 0.61172 0.76488 0.19503 0.0
H355 H 0.62969 0.80852 0.22925 0.0
C356 C 0.68484 0.76984 0.13526 0.0
C357 C 0.6694 0.77871 0.1156 0.0
C358 C 0.67181 0.78118 0.15484 0.0
C359 C 0.6442 0.80278 0.15501 0.0
C360 C 0.62611 0.8087 0.13543 0.0
C361 C 0.63808 0.79605 0.11583 0.0
C362 C 0.67601 0.90104 0.19428 0.0
C363 C 0.66427 0.87697 0.21405 0.0
C364 C 0.66472 0.87621 0.17481 0.0
C365 C 0.64278 0.82699 0.17488 0.0
C366 C 0.62825 0.80281 0.19463 0.0
C367 C 0.63836 0.8277 0.21412 0.0
H368 H 0.81234 0.6261 0.56314 0.0
H369 H 0.75389 0.69633 0.52642 0.0
H370 H 0.83855 0.60685 0.52946 0.0
H371 H 0.77819 0.67538 0.4928 0.0
H372 H 0.82015 0.62167 0.43498 0.0
H373 H 0.77551 0.60124 0.46891 0.0
H374 H 0.90422 0.68273 0.50455 0.0
H375 H 0.94846 0.70467 0.47069 0.0
C376 C 0.80301 0.63523 0.54781 0.0
C377 C 0.78111 0.66254 0.54721 0.0
C378 C 0.8181 0.62437 0.52863 0.0
C379 C 0.81015 0.63952 0.50865 0.0
C380 C 0.78412 0.66278 0.50801 0.0
C381 C 0.77032 0.67484 0.52718 0.0
C382 C 0.83894 0.63362 0.45016 0.0
C383 C 0.8876 0.66476 0.45036 0.0
C384 C 0.81344 0.62205 0.46949 0.0
C385 C 0.83657 0.64034 0.48922 0.0
C386 C 0.88573 0.66772 0.48954 0.0
C387 C 0.911 0.68039 0.47021 0.0
H388 H 0.0921 0.72349 0.87222 0.0
H389 H 0.19278 0.86707 0.88797 0.0
H390 H 0.12442 0.73544 0.83547 0.0
H391 H 0.22527 0.87921 0.85159 0.0
H392 H 0.27456 0.89708 0.7842 0.0
H393 H 0.26229 0.86059 0.82014 0.0
H394 H 0.11257 0.7862 0.80899 0.0
H395 H 0.1249 0.82279 0.77366 0.0
C396 C 0.12239 0.75691 0.86803 0.0
C397 C 0.14004 0.79451 0.88263 0.0
C398 C 0.1408 0.76384 0.84708 0.0
C399 C 0.17713 0.80838 0.84062 0.0
C400 C 0.19768 0.8444 0.85609 0.0
C401 C 0.17895 0.83762 0.87686 0.0
C402 C 0.23929 0.87183 0.78932 0.0
C403 C 0.20057 0.86314 0.77649 0.0
C404 C 0.23224 0.85101 0.80979 0.0
C405 C 0.18646 0.82063 0.81739 0.0
C406 C 0.14826 0.80892 0.80357 0.0
C407 C 0.15525 0.83028 0.78343 0.0
H408 H 0.1783 0.86244 0.99766 0.0
H409 H 0.1916 0.9512 0.94357 0.0
H410 H 0.23055 0.93237 0.01894 0.0
H411 H 0.24134 0.02028 0.96467 0.0
H412 H 0.32301 0.14483 0.00413 0.0
H413 H 0.30735 0.07418 0.98404 0.0
H414 H 0.21661 0.98796 0.03569 0.0
H415 H 0.23389 0.0577 0.0558 0.0
C416 C 0.19336 0.89672 0.99016 0.0
C417 C 0.18016 0.90143 0.96914 0.0
C418 C 0.2229 0.93691 0.00237 0.0
C419 C 0.23958 0.98239 0.99377 0.0
C420 C 0.22976 0.98633 0.972 0.0
C421 C 0.2006 0.94647 0.95989 0.0
C422 C 0.30101 0.11072 0.0114 0.0
C423 C 0.27889 0.10686 0.03132 0.0
C424 C 0.2916 0.07012 -0.00016 0.0
C425 C 0.2598 0.02498 0.00796 0.0
C426 C 0.24139 0.02165 0.0288 0.0
C427 C 0.25088 0.06194 0.04029 0.0
H428 H 0.22025 0.2963 0.37853 0.0
H429 H 0.13578 0.26837 0.32125 0.0
H430 H 0.27243 0.27593 0.35915 0.0
H431 H 0.18649 0.24652 0.3019 0.0
H432 H 0.27715 0.20601 0.26858 0.0
H433 H 0.25774 0.26041 0.28634 0.0
H434 H 0.26218 0.20197 0.34838 0.0
H435 H 0.28373 0.14924 0.33045 0.0
C436 C 0.21417 0.28775 0.36147 0.0
C437 C 0.17472 0.28477 0.35118 0.0
C438 C 0.24352 0.27529 0.35046 0.0
C439 C 0.23351 0.25887 0.329 0.0
C440 C 0.19595 0.25955 0.31828 0.0
C441 C 0.16682 0.27229 0.32929 0.0
C442 C 0.27589 0.20636 0.2861 0.0
C443 C 0.28221 0.17382 0.29821 0.0
C444 C 0.26415 0.23706 0.29627 0.0
C445 C 0.25736 0.23512 0.31879 0.0
C446 C 0.26748 0.20499 0.33105 0.0
C447 C 0.27996 0.17471 0.32083 0.0
H448 H 0.86849 0.15151 0.66441 0.0
H449 H 0.9332 0.2122 0.72557 0.0
H450 H 0.94167 0.20395 0.64582 0.0
H451 H 0.0059 0.26669 0.70713 0.0
H452 H 0.13704 0.27838 0.6722 0.0
H453 H 0.06479 0.25608 0.69184 0.0
H454 H 1.00339 0.27597 0.63373 0.0
H455 H 0.0754 0.29612 0.61406 0.0
C456 C 0.89778 0.17779 0.67372 0.0
C457 C 0.89534 0.17808 0.69634 0.0
C458 C 0.93996 0.20797 0.66312 0.0
C459 C 0.98037 0.23932 0.67497 0.0
C460 C 0.97612 0.24236 0.69748 0.0
C461 C 0.93428 0.21164 0.70805 0.0
C462 C 0.10879 0.28 0.66397 0.0
C463 C 0.11184 0.28952 0.64177 0.0
C464 C 0.06707 0.26702 0.67516 0.0
C465 C 0.02757 0.26343 0.66436 0.0
C466 C 0.0325 0.27729 0.64253 0.0
C467 C 0.07403 0.28968 0.63131 0.0
H468 H 0.73413 0.93687 0.0582 0.0
H469 H 0.72465 0.87051 0.99686 0.0
H470 H 0.75396 0.01013 0.03984 0.0
H471 H 0.74714 0.94422 0.97832 0.0
H472 H 0.78961 0.07898 0.94661 0.0
H473 H 0.73877 0.00686 0.96644 0.0
H474 H 0.82236 0.06826 0.02397 0.0
H475 H 0.87108 0.14078 0.00422 0.0
C476 C 0.73502 0.93778 0.04067 0.0
C477 C 0.72753 0.89812 0.02889 0.0
C478 C 0.74711 0.97995 0.03013 0.0
C479 C 0.75331 0.98384 0.00755 0.0
C480 C 0.74233 0.94288 0.99567 0.0
C481 C 0.7293 0.90037 0.00625 0.0
C482 C 0.79554 0.07749 0.96377 0.0
C483 C 0.83363 0.11547 0.97404 0.0
C484 C 0.76696 0.03591 0.97507 0.0
C485 C 0.77666 0.03098 0.9968 0.0
C486 C 0.81305 0.0705 0.0074 0.0
C487 C 0.84112 0.11234 0.99613 0.0
H488 H 0.72964 0.86298 0.33547 0.0
H489 H 0.7195 0.78699 0.27709 0.0
H490 H 0.75291 0.81412 0.35553 0.0
H491 H 0.74005 0.73583 0.29717 0.0
H492 H 0.79571 0.72576 0.39028 0.0
H493 H 0.74339 0.74573 0.37092 0.0
H494 H 0.80964 0.74439 0.31068 0.0
H495 H 0.85963 0.72165 0.33017 0.0
C496 C 0.73009 0.83413 0.32721 0.0
C497 C 0.72237 0.82833 0.30486 0.0
C498 C 0.74356 0.80597 0.33866 0.0
C499 C 0.74917 0.77108 0.32799 0.0
C500 C 0.73733 0.76291 0.3059 0.0
C501 C 0.72474 0.79166 0.29442 0.0
C502 C 0.79748 0.72783 0.37278 0.0
C503 C 0.8312 0.7217 0.36164 0.0
C504 C 0.76806 0.74005 0.36167 0.0
C505 C 0.77263 0.7478 0.33918 0.0
C506 C 0.80435 0.73832 0.32791 0.0
C507 C 0.83313 0.72514 0.33904 0.0
H508 H 0.1367 0.86864 0.65493 0.0
H509 H 0.08194 0.78593 0.71277 0.0
H510 H 0.06375 0.81712 0.63602 0.0
H511 H 0.00903 0.73294 0.69383 0.0
H512 H 0.93195 0.72517 0.60351 0.0
H513 H 0.00618 0.74517 0.62099 0.0
H514 H 0.945 0.74282 0.6832 0.0
H515 H 0.8703 0.72068 0.66556 0.0
C516 C 0.10988 0.83781 0.6632 0.0
C517 C 0.11505 0.83065 0.68511 0.0
C518 C 0.0678 0.80821 0.65243 0.0
C519 C 0.02996 0.77093 0.66344 0.0
C520 C 0.03697 0.76164 0.68493 0.0
C521 C 0.07899 0.79145 0.69569 0.0
C522 C 0.93404 0.72704 0.62101 0.0
C523 C 0.89555 0.72117 0.63325 0.0
C524 C 0.9767 0.7391 0.63102 0.0
C525 C 0.98214 0.74666 0.65349 0.0
C526 C 0.94226 0.73694 0.66589 0.0
C527 C 0.89927 0.72414 0.65585 0.0
H528 H 0.01713 0.25945 0.00543 0.0
H529 H 0.03243 0.20365 0.94462 0.0
H530 H 0.07862 0.24835 0.02116 0.0
H531 H 0.09371 0.19166 0.96056 0.0
H532 H 0.17243 0.20093 0.04906 0.0
H533 H 0.10068 0.19109 0.03251 0.0
H534 H 0.17449 0.2451 0.97215 0.0
H535 H 0.24581 0.25392 0.98855 0.0
C536 C 0.03317 0.24411 0.99552 0.0
C537 C 0.0204 0.23286 0.97375 0.0
C538 C 0.06815 0.23736 0.0046 0.0
C539 C 0.09107 0.21919 0.99208 0.0
C540 C 0.07698 0.20619 0.97052 0.0
C541 C 0.04184 0.21289 0.96143 0.0
C542 C 0.17306 0.20996 0.03216 0.0
C543 C 0.21475 0.22876 0.02015 0.0
C544 C 0.13207 0.20449 0.02272 0.0
C545 C 0.13209 0.21779 0.00111 0.0
C546 C 0.17322 0.23414 0.98878 0.0
C547 C 0.21417 0.23952 -0.00179 0.0
H548 H 0.83277 0.03165 0.27747 0.0
H549 H 0.76115 0.00961 0.33861 0.0
H550 H 0.90452 0.09454 0.29369 0.0
H551 H 0.83245 0.07267 0.35469 0.0
H552 H 0.9893 0.24552 0.32286 0.0
H553 H 0.92694 0.17417 0.30642 0.0
H554 H 0.91378 0.09769 0.3653 0.0
H555 H 0.97585 0.16937 0.38189 0.0
C556 C 0.83254 0.03989 0.29442 0.0
C557 C 0.79136 0.0161 0.30675 0.0
C558 C 0.8735 0.07597 0.30366 0.0
C559 C 0.874 0.08867 0.32541 0.0
C560 C 0.83331 0.06338 0.33796 0.0
C561 C 0.79238 0.02747 0.32871 0.0
C562 C 0.97348 0.21335 0.33221 0.0
C563 C 0.98705 0.21304 0.35371 0.0
C564 C 0.938 0.17241 0.32274 0.0
C565 C 0.91538 0.13041 0.33461 0.0
C566 C 0.93026 0.12972 0.35586 0.0
C567 C 0.96586 0.17066 0.36531 0.0
H568 H 0.75409 0.76272 0.67273 0.0
H569 H 0.8035 0.83416 0.61153 0.0
H570 H 0.76416 0.83459 0.68896 0.0
H571 H 0.81448 0.90661 0.62792 0.0
H572 H 0.80931 0.97619 0.7168 0.0
H573 H 0.81962 0.91478 0.69993 0.0
H574 H 0.75998 0.93143 0.64056 0.0
H575 H 0.75064 0.99333 0.65725 0.0
C576 C 0.76789 0.79404 0.66285 0.0
C577 C 0.77752 0.79277 0.64082 0.0
C578 C 0.774 0.83535 0.67219 0.0
C579 C 0.78992 0.87624 0.65969 0.0
C580 C 0.80159 0.87548 0.63788 0.0
C581 C 0.7955 0.8341 0.62853 0.0
C582 C 0.79911 0.96718 0.70004 0.0
C583 C 0.77871 0.98912 0.68839 0.0
C584 C 0.80483 0.93193 0.69042 0.0
C585 C 0.79025 0.91799 0.66898 0.0
C586 C 0.77202 0.94166 0.65703 0.0
C587 C 0.76636 0.97692 0.66664 0.0
H588 H 0.8404 0.80909 0.04917 0.0
H589 H 0.76665 0.75502 0.98877 0.0
H590 H 0.91231 0.81952 0.03255 0.0
H591 H 0.83799 0.76436 0.97233 0.0
H592 H 0.9791 0.80645 0.94424 0.0
H593 H 0.9178 0.81792 0.96044 0.0
H594 H 0.93602 0.76373 0.02116 0.0
H595 H 0.99767 0.75329 0.00515 0.0
C596 C 0.83972 0.79995 0.03229 0.0
C597 C 0.79789 0.78072 0.02032 0.0
C598 C 0.88079 0.80573 0.02281 0.0
C599 C 0.88071 0.79234 0.0012 0.0
C600 C 0.83938 0.77546 0.98894 0.0
C601 C 0.79838 0.76977 -0.00159 0.0
C602 C 0.97038 0.79764 0.96112 0.0
C603 C 0.99278 0.77858 0.9734 0.0
C604 C 0.93522 0.80405 0.97037 0.0
C605 C 0.92194 0.79154 0.99204 0.0
C606 C 0.94582 0.77431 0.00451 0.0
C607 C 0.9809 0.76794 0.99528 0.0
H608 H 0.03331 0.83387 0.3844 0.0
H609 H 0.01123 0.75957 0.32398 0.0
H610 H 0.09402 0.90572 0.36737 0.0
H611 H 0.07231 0.83085 0.30712 0.0
H612 H 0.16822 0.97117 0.27807 0.0
H613 H 0.09667 0.91048 0.29528 0.0
H614 H 0.17316 0.92994 0.35486 0.0
H615 H 0.24415 0.99106 0.33784 0.0
C616 C 0.04107 0.83305 0.36743 0.0
C617 C 0.01799 0.7911 0.35556 0.0
C618 C 0.07591 0.87409 0.35772 0.0
C619 C 0.08815 0.87387 0.33595 0.0
C620 C 0.06336 0.83235 0.32385 0.0
C621 C 0.02861 0.79139 0.33355 0.0
C622 C 0.16947 0.96292 0.29494 0.0
C623 C 0.21177 0.98539 0.30657 0.0
C624 C 0.1286 0.9281 0.30476 0.0
C625 C 0.12936 0.91519 0.32637 0.0
C626 C 0.17124 0.9394 0.33826 0.0
C627 C 0.21203 0.97419 0.32846 0.0
H628 H 0.19827 0.02987 0.7158 0.0
H629 H 0.25963 0.01714 0.65621 0.0
H630 H 0.1875 0.0916 0.69961 0.0
H631 H 0.24944 0.07917 0.64016 0.0
H632 H 0.25111 0.24456 0.67323 0.0
H633 H 0.24331 0.17316 0.68901 0.0
H634 H 0.19138 0.10116 0.62806 0.0
H635 H 0.19976 0.173 0.61214 0.0
C636 C 0.209 0.03994 0.69919 0.0
C637 C 0.23018 0.01909 0.68731 0.0
C638 C 0.20297 0.07534 0.68996 0.0
C639 C 0.21784 0.09034 0.66868 0.0
C640 C 0.23717 0.068 0.65652 0.0
C641 C 0.24332 0.03273 0.66576 0.0
C642 C 0.23742 0.21332 0.66328 0.0
C643 C 0.22649 0.2144 0.64141 0.0
C644 C 0.23265 0.17233 0.67236 0.0
C645 C 0.21695 0.13166 0.65972 0.0
C646 C 0.20408 0.13218 0.63809 0.0
C647 C 0.20868 0.17319 0.62902 0.0
loop_
_geom_bond_atom_site_label_1
_geom_bond_atom_site_label_2
_geom_bond_distance
_geom_bond_site_symmetry_2
_ccdc_geom_bond_type
Co0 O1 2.216 . S
Co0 O2 2.091 . S
Co0 O4 2.004 . S
Co0 O10 2.021 . S
Co0 O12 2.137 . S
Co0 O13 2.244 . S
O1 Co0 2.216 . S
O1 C8 1.247 . S
O2 Co0 2.091 . S
O2 C8 1.261 . S
C3 O12 1.247 . S
C3 O13 1.272 . S
O4 Co0 2.004 . S
O4 C9 1.259 . S
Co5 O6 2.061 . S
Co5 O11 2.052 . S
Co5 O13 2.135 . S
O6 Co5 2.061 . S
O6 C9 1.235 . S
C7 O10 1.238 . S
C7 O11 1.241 . S
C8 O1 1.247 . S
C8 O2 1.261 . S
C9 O4 1.259 . S
C9 O6 1.235 . S
O10 Co0 2.021 . S
O10 C7 1.238 . S
O11 Co5 2.052 . S
O11 C7 1.241 . S
O12 Co0 2.137 . S
O12 C3 1.247 . S
O13 Co0 2.244 . S
O13 C3 1.272 . S
O13 Co5 2.135 . S
Co14 O15 2.216 . S
Co14 O16 2.091 . S
Co14 O18 2.004 . S
Co14 O24 2.021 . S
Co14 O26 2.137 . S
Co14 O27 2.244 . S
O15 Co14 2.216 . S
O15 C22 1.247 . S
O16 Co14 2.091 . S
O16 C22 1.261 . S
C17 O26 1.247 . S
C17 O27 1.272 . S
O18 Co14 2.004 . S
O18 C23 1.259 . S
Co19 O20 2.061 . S
Co19 O25 2.052 . S
Co19 O27 2.135 . S
O20 Co19 2.061 . S
O20 C23 1.235 . S
C21 O24 1.238 . S
C21 O25 1.241 . S
C22 O15 1.247 . S
C22 O16 1.261 . S
C23 O18 1.259 . S
C23 O20 1.235 . S
O24 Co14 2.021 . S
O24 C21 1.238 . S
O25 Co19 2.052 . S
O25 C21 1.241 . S
O26 Co14 2.137 . S
O26 C17 1.247 . S
O27 Co14 2.244 . S
O27 C17 1.272 . S
O27 Co19 2.135 . S
Co28 O29 2.216 . S
Co28 O30 2.091 . S
Co28 O32 2.004 . S
Co28 O38 2.021 . S
Co28 O40 2.137 . S
Co28 O41 2.244 . S
O29 Co28 2.216 . S
O29 C36 1.247 . S
O30 Co28 2.091 . S
O30 C36 1.261 . S
C31 O40 1.247 . S
C31 O41 1.272 . S
O32 Co28 2.004 . S
O32 C37 1.259 . S
Co33 O34 2.061 . S
Co33 O39 2.052 . S
Co33 O41 2.135 . S
O34 Co33 2.061 . S
O34 C37 1.235 . S
C35 O38 1.238 . S
C35 O39 1.241 . S
C36 O29 1.247 . S
C36 O30 1.261 . S
C37 O32 1.259 . S
C37 O34 1.235 . S
O38 Co28 2.021 . S
O38 C35 1.238 . S
O39 Co33 2.052 . S
O39 C35 1.241 . S
O40 Co28 2.137 . S
O40 C31 1.247 . S
O41 Co28 2.244 . S
O41 C31 1.272 . S
O41 Co33 2.135 . S
Co42 O43 2.216 . S
Co42 O44 2.091 . S
Co42 O46 2.004 . S
Co42 O52 2.021 . S
Co42 O54 2.137 . S
Co42 O55 2.244 . S
O43 Co42 2.216 . S
O43 C50 1.247 . S
O44 Co42 2.091 . S
O44 C50 1.261 . S
C45 O54 1.247 . S
C45 O55 1.272 . S
O46 Co42 2.004 . S
O46 C51 1.259 . S
Co47 O48 2.061 . S
Co47 O53 2.052 . S
Co47 O55 2.135 . S
O48 Co47 2.061 . S
O48 C51 1.235 . S
C49 O52 1.238 . S
C49 O53 1.241 . S
C50 O43 1.247 . S
C50 O44 1.261 . S
C51 O46 1.259 . S
C51 O48 1.235 . S
O52 Co42 2.021 . S
O52 C49 1.238 . S
O53 Co47 2.052 . S
O53 C49 1.241 . S
O54 Co42 2.137 . S
O54 C45 1.247 . S
O55 Co42 2.244 . S
O55 C45 1.272 . S
O55 Co47 2.135 . S
Co56 O57 2.216 . S
Co56 O58 2.091 . S
Co56 O60 2.004 . S
Co56 O66 2.021 . S
Co56 O68 2.137 . S
Co56 O69 2.244 . S
O57 Co56 2.216 . S
O57 C64 1.247 . S
O58 Co56 2.091 . S
O58 C64 1.261 . S
C59 O68 1.247 . S
C59 O69 1.272 . S
O60 Co56 2.004 . S
O60 C65 1.259 . S
Co61 O62 2.061 . S
Co61 O67 2.052 . S
Co61 O69 2.135 . S
O62 Co61 2.061 . S
O62 C65 1.235 . S
C63 O66 1.238 . S
C63 O67 1.241 . S
C64 O57 1.247 . S
C64 O58 1.261 . S
C65 O60 1.259 . S
C65 O62 1.235 . S
O66 Co56 2.021 . S
O66 C63 1.238 . S
O67 Co61 2.052 . S
O67 C63 1.241 . S
O68 Co56 2.137 . S
O68 C59 1.247 . S
O69 Co56 2.244 . S
O69 C59 1.272 . S
O69 Co61 2.135 . S
Co70 O71 2.216 . S
Co70 O72 2.091 . S
Co70 O74 2.004 . S
Co70 O80 2.021 . S
Co70 O82 2.137 . S
Co70 O83 2.244 . S
O71 Co70 2.216 . S
O71 C78 1.247 . S
O72 Co70 2.091 . S
O72 C78 1.261 . S
C73 O82 1.247 . S
C73 O83 1.272 . S
O74 Co70 2.004 . S
O74 C79 1.259 . S
Co75 O76 2.061 . S
Co75 O81 2.052 . S
Co75 O83 2.135 . S
O76 Co75 2.061 . S
O76 C79 1.235 . S
C77 O80 1.238 . S
C77 O81 1.241 . S
C78 O71 1.247 . S
C78 O72 1.261 . S
C79 O74 1.259 . S
C79 O76 1.235 . S
O80 Co70 2.021 . S
O80 C77 1.238 . S
O81 Co75 2.052 . S
O81 C77 1.241 . S
O82 Co70 2.137 . S
O82 C73 1.247 . S
O83 Co70 2.244 . S
O83 C73 1.272 . S
O83 Co75 2.135 . S
Co84 O85 2.216 . S
Co84 O86 2.091 . S
Co84 O88 2.004 . S
Co84 O94 2.021 . S
Co84 O96 2.137 . S
Co84 O97 2.244 . S
O85 Co84 2.216 . S
O85 C92 1.247 . S
O86 Co84 2.091 . S
O86 C92 1.261 . S
C87 O96 1.247 . S
C87 O97 1.272 . S
O88 Co84 2.004 . S
O88 C93 1.259 . S
Co89 O90 2.061 . S
Co89 O95 2.052 . S
Co89 O97 2.135 . S
O90 Co89 2.061 . S
O90 C93 1.235 . S
C91 O94 1.238 . S
C91 O95 1.241 . S
C92 O85 1.247 . S
C92 O86 1.261 . S
C93 O88 1.259 . S
C93 O90 1.235 . S
O94 Co84 2.021 . S
O94 C91 1.238 . S
O95 Co89 2.052 . S
O95 C91 1.241 . S
O96 Co84 2.137 . S
O96 C87 1.247 . S
O97 Co84 2.244 . S
O97 C87 1.272 . S
O97 Co89 2.135 . S
Co98 O99 2.216 . S
Co98 O100 2.091 . S
Co98 O102 2.004 . S
Co98 O108 2.021 . S
Co98 O110 2.137 . S
Co98 O111 2.244 . S
O99 Co98 2.216 . S
O99 C106 1.247 . S
O100 Co98 2.091 . S
O100 C106 1.261 . S
C101 O110 1.247 . S
C101 O111 1.272 . S
O102 Co98 2.004 . S
O102 C107 1.259 . S
Co103 O104 2.061 . S
Co103 O109 2.052 . S
Co103 O111 2.135 . S
O104 Co103 2.061 . S
O104 C107 1.235 . S
C105 O108 1.238 . S
C105 O109 1.241 . S
C106 O99 1.247 . S
C106 O100 1.261 . S
C107 O102 1.259 . S
C107 O104 1.235 . S
O108 Co98 2.021 . S
O108 C105 1.238 . S
O109 Co103 2.052 . S
O109 C105 1.241 . S
O110 Co98 2.137 . S
O110 C101 1.247 . S
O111 Co98 2.244 . S
O111 C101 1.272 . S
O111 Co103 2.135 . S
Co112 O113 2.216 . S
Co112 O114 2.091 . S
Co112 O116 2.004 . S
Co112 O122 2.021 . S
Co112 O124 2.137 . S
Co112 O125 2.244 . S
O113 Co112 2.216 . S
O113 C120 1.247 . S
O114 Co112 2.091 . S
O114 C120 1.261 . S
C115 O124 1.247 . S
C115 O125 1.272 . S
O116 Co112 2.004 . S
O116 C121 1.259 . S
Co117 O118 2.061 . S
Co117 O123 2.052 . S
Co117 O125 2.135 . S
O118 Co117 2.061 . S
O118 C121 1.235 . S
C119 O122 1.238 . S
C119 O123 1.241 . S
C120 O113 1.247 . S
C120 O114 1.261 . S
C121 O116 1.259 . S
C121 O118 1.235 . S
O122 Co112 2.021 . S
O122 C119 1.238 . S
O123 Co117 2.052 . S
O123 C119 1.241 . S
O124 Co112 2.137 . S
O124 C115 1.247 . S
O125 Co112 2.244 . S
O125 C115 1.272 . S
O125 Co117 2.135 . S
Co126 O127 2.216 . S
Co126 O128 2.091 . S
Co126 O130 2.004 . S
Co126 O136 2.021 . S
Co126 O138 2.137 . S
Co126 O139 2.244 . S
O127 Co126 2.216 . S
O127 C134 1.247 . S
O128 Co126 2.091 . S
O128 C134 1.261 . S
C129 O138 1.247 . S
C129 O139 1.272 . S
O130 Co126 2.004 . S
O130 C135 1.259 . S
Co131 O132 2.061 . S
Co131 O137 2.052 . S
Co131 O139 2.135 . S
O132 Co131 2.061 . S
O132 C135 1.235 . S
C133 O136 1.238 . S
C133 O137 1.241 . S
C134 O127 1.247 . S
C134 O128 1.261 . S
C135 O130 1.259 . S
C135 O132 1.235 . S
O136 Co126 2.021 . S
O136 C133 1.238 . S
O137 Co131 2.052 . S
O137 C133 1.241 . S
O138 Co126 2.137 . S
O138 C129 1.247 . S
O139 Co126 2.244 . S
O139 C129 1.272 . S
O139 Co131 2.135 . S
Co140 O141 2.216 . S
Co140 O142 2.091 . S
Co140 O144 2.004 . S
Co140 O150 2.021 . S
Co140 O152 2.137 . S
Co140 O153 2.244 . S
O141 Co140 2.216 . S
O141 C148 1.247 . S
O142 Co140 2.091 . S
O142 C148 1.261 . S
C143 O152 1.247 . S
C143 O153 1.272 . S
O144 Co140 2.004 . S
O144 C149 1.259 . S
Co145 O146 2.061 . S
Co145 O151 2.052 . S
Co145 O153 2.135 . S
O146 Co145 2.061 . S
O146 C149 1.235 . S
C147 O150 1.238 . S
C147 O151 1.241 . S
C148 O141 1.247 . S
C148 O142 1.261 . S
C149 O144 1.259 . S
C149 O146 1.235 . S
O150 Co140 2.021 . S
O150 C147 1.238 . S
O151 Co145 2.052 . S
O151 C147 1.241 . S
O152 Co140 2.137 . S
O152 C143 1.247 . S
O153 Co140 2.244 . S
O153 C143 1.272 . S
O153 Co145 2.135 . S
Co154 O155 2.216 . S
Co154 O156 2.091 . S
Co154 O158 2.004 . S
Co154 O164 2.021 . S
Co154 O166 2.137 . S
Co154 O167 2.244 . S
O155 Co154 2.216 . S
O155 C162 1.247 . S
O156 Co154 2.091 . S
O156 C162 1.261 . S
C157 O166 1.247 . S
C157 O167 1.272 . S
O158 Co154 2.004 . S
O158 C163 1.259 . S
Co159 O160 2.061 . S
Co159 O165 2.052 . S
Co159 O167 2.135 . S
O160 Co159 2.061 . S
O160 C163 1.235 . S
C161 O164 1.238 . S
C161 O165 1.241 . S
C162 O155 1.247 . S
C162 O156 1.261 . S
C163 O158 1.259 . S
C163 O160 1.235 . S
O164 Co154 2.021 . S
O164 C161 1.238 . S
O165 Co159 2.052 . S
O165 C161 1.241 . S
O166 Co154 2.137 . S
O166 C157 1.247 . S
O167 Co154 2.244 . S
O167 C157 1.272 . S
O167 Co159 2.135 . S
H168 C176 0.950 . S
H169 C181 0.950 . S
H170 C178 0.950 . S
H171 C180 0.950 . S
H172 C182 0.950 . S
H173 C184 0.950 . S
H174 C186 0.950 . S
H175 C187 0.950 . S
C176 H168 0.950 . S
C176 C177 1.386 . S
C176 C178 1.391 . S
C177 C176 1.386 . S
C177 C181 1.393 . S
C178 H170 0.950 . S
C178 C176 1.391 . S
C178 C179 1.400 . S
C179 C178 1.400 . S
C179 C180 1.398 . S
C179 C185 1.491 . S
C180 H171 0.950 . S
C180 C179 1.398 . S
C180 C181 1.391 . S
C181 H169 0.950 . S
C181 C177 1.393 . S
C181 C180 1.391 . S
C182 H172 0.950 . S
C182 C183 1.386 . S
C182 C184 1.391 . S
C183 C182 1.386 . S
C183 C187 1.393 . S
C184 H173 0.950 . S
C184 C182 1.391 . S
C184 C185 1.400 . S
C185 C179 1.491 . S
C185 C184 1.400 . S
C185 C186 1.398 . S
C186 H174 0.950 . S
C186 C185 1.398 . S
C186 C187 1.391 . S
C187 H175 0.950 . S
C187 C183 1.393 . S
C187 C186 1.391 . S
H188 C196 0.950 . S
H189 C201 0.950 . S
H190 C198 0.950 . S
H191 C200 0.950 . S
H192 C202 0.950 . S
H193 C204 0.950 . S
H194 C206 0.950 . S
H195 C207 0.950 . S
C196 H188 0.950 . S
C196 C197 1.386 . S
C196 C198 1.391 . S
C197 C196 1.386 . S
C197 C201 1.393 . S
C198 H190 0.950 . S
C198 C196 1.391 . S
C198 C199 1.400 . S
C199 C198 1.400 . S
C199 C200 1.398 1_455 S
C199 C205 1.491 1_455 S
C200 H191 0.950 . S
C200 C199 1.398 1_655 S
C200 C201 1.391 1_655 S
C201 H189 0.950 . S
C201 C197 1.393 . S
C201 C200 1.391 1_455 S
C202 H192 0.950 . S
C202 C203 1.386 . S
C202 C204 1.391 . S
C203 C202 1.386 . S
C203 C207 1.393 . S
C204 H193 0.950 . S
C204 C202 1.391 . S
C204 C205 1.400 . S
C205 C199 1.491 1_655 S
C205 C204 1.400 . S
C205 C206 1.398 1_655 S
C206 H194 0.950 . S
C206 C205 1.398 1_455 S
C206 C207 1.391 1_455 S
C207 H195 0.950 . S
C207 C203 1.393 . S
C207 C206 1.391 1_655 S
H208 C216 0.950 . S
H209 C221 0.957 . S
H210 C218 0.950 . S
H211 C220 0.950 . S
H212 C222 0.950 . S
H213 C224 0.950 . S
H214 C226 0.950 . S
H215 C227 0.957 . S
C216 H208 0.950 . S
C216 C217 1.386 . S
C216 C218 1.391 . S
C217 C216 1.386 . S
C217 C221 1.393 . S
C218 H210 0.950 . S
C218 C216 1.391 . S
C218 C219 1.400 . S
C219 C218 1.400 . S
C219 C220 1.398 1_565 S
C219 C225 1.491 1_565 S
C220 H211 0.950 . S
C220 C219 1.398 1_545 S
C220 C221 1.391 1_545 S
C221 H209 0.957 . S
C221 C217 1.393 . S
C221 C220 1.391 1_565 S
C222 H212 0.950 . S
C222 C223 1.386 . S
C222 C224 1.391 . S
C223 C222 1.386 . S
C223 C227 1.393 . S
C224 H213 0.950 . S
C224 C222 1.391 . S
C224 C225 1.400 . S
C225 C219 1.491 1_545 S
C225 C224 1.400 . S
C225 C226 1.398 1_545 S
C226 H214 0.950 . S
C226 C225 1.398 1_565 S
C226 C227 1.391 1_565 S
C227 H215 0.957 . S
C227 C223 1.393 . S
C227 C226 1.391 1_545 S
H228 C236 0.950 . S
H229 C241 0.950 . S
H230 C238 0.950 . S
H231 C240 0.950 . S
H232 C242 0.950 . S
H233 C244 0.950 . S
H234 C246 0.950 . S
H235 C247 0.950 . S
C236 H228 0.950 . S
C236 C237 1.386 . S
C236 C238 1.391 . S
C237 C236 1.386 . S
C237 C241 1.393 . S
C238 H230 0.950 . S
C238 C236 1.391 . S
C238 C239 1.400 . S
C239 C238 1.400 . S
C239 C240 1.398 . S
C239 C245 1.491 . S
C240 H231 0.950 . S
C240 C239 1.398 . S
C240 C241 1.391 . S
C241 H229 0.950 . S
C241 C237 1.393 . S
C241 C240 1.391 . S
C242 H232 0.950 . S
C242 C243 1.386 . S
C242 C244 1.391 . S
C243 C242 1.386 . S
C243 C247 1.393 . S
C244 H233 0.950 . S
C244 C242 1.391 . S
C244 C245 1.400 . S
C245 C239 1.491 . S
C245 C244 1.400 . S
C245 C246 1.398 . S
C246 H234 0.950 . S
C246 C245 1.398 . S
C246 C247 1.391 . S
C247 H235 0.950 . S
C247 C243 1.393 . S
C247 C246 1.391 . S
H248 C256 0.950 . S
H249 C261 0.950 . S
H250 C258 0.950 . S
H251 C260 0.950 . S
H252 C262 0.950 . S
H253 C264 0.950 . S
H254 C266 0.950 . S
H255 C267 0.950 . S
C256 H248 0.950 . S
C256 C257 1.386 . S
C256 C258 1.391 . S
C257 C256 1.386 . S
C257 C261 1.393 . S
C258 H250 0.950 . S
C258 C256 1.391 . S
C258 C259 1.400 . S
C259 C258 1.400 . S
C259 C260 1.398 . S
C259 C265 1.491 1_655 S
C260 H251 0.950 . S
C260 C259 1.398 . S
C260 C261 1.391 . S
C261 H249 0.950 . S
C261 C257 1.393 . S
C261 C260 1.391 . S
C262 H252 0.950 . S
C262 C263 1.386 . S
C262 C264 1.391 . S
C263 C262 1.386 . S
C263 C267 1.393 . S
C264 H253 0.950 . S
C264 C262 1.391 . S
C264 C265 1.400 . S
C265 C259 1.491 1_455 S
C265 C264 1.400 . S
C265 C266 1.398 . S
C266 H254 0.950 . S
C266 C265 1.398 . S
C266 C267 1.391 . S
C267 H255 0.950 . S
C267 C263 1.393 . S
C267 C266 1.391 . S
H268 C276 0.950 1_565 S
H269 C281 0.950 . S
H270 C278 0.950 . S
H271 C280 0.950 . S
H272 C282 0.950 1_545 S
H273 C284 0.950 . S
H274 C286 0.950 . S
H275 C287 0.950 . S
C276 H268 0.950 1_545 S
C276 C277 1.386 . S
C276 C278 1.391 1_545 S
C277 C276 1.386 . S
C277 C281 1.393 . S
C278 H270 0.950 . S
C278 C276 1.391 1_565 S
C278 C279 1.400 1_565 S
C279 C278 1.400 1_545 S
C279 C280 1.398 . S
C279 C285 1.491 1_545 S
C280 H271 0.950 . S
C280 C279 1.398 . S
C280 C281 1.391 . S
C281 H269 0.950 . S
C281 C277 1.393 . S
C281 C280 1.391 . S
C282 H272 0.950 1_565 S
C282 C283 1.386 . S
C282 C284 1.391 1_565 S
C283 C282 1.386 . S
C283 C287 1.393 . S
C284 H273 0.950 . S
C284 C282 1.391 1_545 S
C284 C285 1.400 1_545 S
C285 C279 1.491 1_565 S
C285 C284 1.400 1_565 S
C285 C286 1.398 . S
C286 H274 0.950 . S
C286 C285 1.398 . S
C286 C287 1.391 . S
C287 H275 0.950 . S
C287 C283 1.393 . S
C287 C286 1.391 . S
H288 C296 0.950 . S
H289 C301 0.950 . S
H290 C298 0.950 . S
H291 C300 0.950 . S
H292 C302 0.950 . S
H293 C304 0.950 . S
H294 C306 0.950 . S
H295 C307 0.950 . S
C296 H288 0.950 . S
C296 C297 1.386 . S
C296 C298 1.391 . S
C297 C296 1.386 . S
C297 C301 1.393 . S
C298 H290 0.950 . S
C298 C296 1.391 . S
C298 C299 1.400 . S
C299 C298 1.400 . S
C299 C300 1.398 . S
C299 C305 1.491 . S
C300 H291 0.950 . S
C300 C299 1.398 . S
C300 C301 1.391 . S
C301 H289 0.950 . S
C301 C297 1.393 . S
C301 C300 1.391 . S
C302 H292 0.950 . S
C302 C303 1.386 . S
C302 C304 1.391 . S
C303 C302 1.386 . S
C303 C307 1.393 . S
C304 H293 0.950 . S
C304 C302 1.391 . S
C304 C305 1.400 . S
C305 C299 1.491 . S
C305 C304 1.400 . S
C305 C306 1.398 . S
C306 H294 0.950 . S
C306 C305 1.398 . S
C306 C307 1.391 . S
C307 H295 0.950 . S
C307 C303 1.393 . S
C307 C306 1.391 . S
H308 C316 0.950 . S
H309 C321 0.950 . S
H310 C318 0.950 . S
H311 C320 0.950 . S
H312 C322 0.950 . S
H313 C324 0.950 . S
H314 C326 0.950 . S
H315 C327 0.950 . S
C316 H308 0.950 . S
C316 C317 1.386 . S
C316 C318 1.391 . S
C317 C316 1.386 . S
C317 C321 1.393 . S
C318 H310 0.950 . S
C318 C316 1.391 . S
C318 C319 1.400 . S
C319 C318 1.400 . S
C319 C320 1.398 . S
C319 C325 1.491 . S
C320 H311 0.950 . S
C320 C319 1.398 . S
C320 C321 1.391 . S
C321 H309 0.950 . S
C321 C317 1.393 . S
C321 C320 1.391 . S
C322 H312 0.950 . S
C322 C323 1.386 . S
C322 C324 1.391 . S
C323 C322 1.386 . S
C323 C327 1.393 . S
C324 H313 0.950 . S
C324 C322 1.391 . S
C324 C325 1.400 . S
C325 C319 1.491 . S
C325 C324 1.400 . S
C325 C326 1.398 . S
C326 H314 0.950 . S
C326 C325 1.398 . S
C326 C327 1.391 . S
C327 H315 0.950 . S
C327 C323 1.393 . S
C327 C326 1.391 . S
H328 C336 0.950 . S
H329 C341 0.950 . S
H330 C338 0.950 . S
H331 C340 0.950 . S
H332 C342 0.950 . S
H333 C344 0.950 . S
H334 C346 0.950 . S
H335 C347 0.950 . S
C336 H328 0.950 . S
C336 C337 1.386 . S
C336 C338 1.391 . S
C337 C336 1.386 . S
C337 C341 1.393 . S
C338 H330 0.950 . S
C338 C336 1.391 . S
C338 C339 1.400 . S
C339 C338 1.400 . S
C339 C340 1.398 . S
C339 C345 1.491 . S
C340 H331 0.950 . S
C340 C339 1.398 . S
C340 C341 1.391 . S
C341 H329 0.950 . S
C341 C337 1.393 . S
C341 C340 1.391 . S
C342 H332 0.950 . S
C342 C343 1.386 . S
C342 C344 1.391 . S
C343 C342 1.386 . S
C343 C347 1.393 . S
C344 H333 0.950 . S
C344 C342 1.391 . S
C344 C345 1.400 . S
C345 C339 1.491 . S
C345 C344 1.400 . S
C345 C346 1.398 . S
C346 H334 0.950 . S
C346 C345 1.398 . S
C346 C347 1.391 . S
C347 H335 0.950 . S
C347 C343 1.393 . S
C347 C346 1.391 . S
H348 C356 0.950 . S
H349 C361 0.950 . S
H350 C358 0.950 . S
H351 C360 0.950 . S
H352 C362 0.950 . S
H353 C364 0.950 . S
H354 C366 0.950 . S
H355 C367 0.950 . S
C356 H348 0.950 . S
C356 C357 1.386 . S
C356 C358 1.391 . S
C357 C356 1.386 . S
C357 C361 1.393 . S
C358 H350 0.950 . S
C358 C356 1.391 . S
C358 C359 1.400 . S
C359 C358 1.400 . S
C359 C360 1.398 . S
C359 C365 1.491 . S
C360 H351 0.950 . S
C360 C359 1.398 . S
C360 C361 1.391 . S
C361 H349 0.950 . S
C361 C357 1.393 . S
C361 C360 1.391 . S
C362 H352 0.950 . S
C362 C363 1.386 . S
C362 C364 1.391 . S
C363 C362 1.386 . S
C363 C367 1.393 . S
C364 H353 0.950 . S
C364 C362 1.391 . S
C364 C365 1.400 . S
C365 C359 1.491 . S
C365 C364 1.400 . S
C365 C366 1.398 . S
C366 H354 0.950 . S
C366 C365 1.398 . S
C366 C367 1.391 . S
C367 H355 0.950 . S
C367 C363 1.393 . S
C367 C366 1.391 . S
H368 C376 0.950 . S
H369 C381 0.950 . S
H370 C378 0.950 . S
H371 C380 0.950 . S
H372 C382 0.950 . S
H373 C384 0.950 . S
H374 C386 0.950 . S
H375 C387 0.950 . S
C376 H368 0.950 . S
C376 C377 1.386 . S
C376 C378 1.391 . S
C377 C376 1.386 . S
C377 C381 1.393 . S
C378 H370 0.950 . S
C378 C376 1.391 . S
C378 C379 1.400 . S
C379 C378 1.400 . S
C379 C380 1.398 . S
C379 C385 1.491 . S
C380 H371 0.950 . S
C380 C379 1.398 . S
C380 C381 1.391 . S
C381 H369 0.950 . S
C381 C377 1.393 . S
C381 C380 1.391 . S
C382 H372 0.950 . S
C382 C383 1.386 . S
C382 C384 1.391 . S
C383 C382 1.386 . S
C383 C387 1.393 . S
C384 H373 0.950 . S
C384 C382 1.391 . S
C384 C385 1.400 . S
C385 C379 1.491 . S
C385 C384 1.400 . S
C385 C386 1.398 . S
C386 H374 0.950 . S
C386 C385 1.398 . S
C386 C387 1.391 . S
C387 H375 0.950 . S
C387 C383 1.393 . S
C387 C386 1.391 . S
H388 C396 0.950 . S
H389 C401 0.950 . S
H390 C398 0.950 . S
H391 C400 0.950 . S
H392 C402 0.950 . S
H393 C404 0.950 . S
H394 C406 0.950 . S
H395 C407 0.950 . S
C396 H388 0.950 . S
C396 C397 1.386 . S
C396 C398 1.391 . S
C397 C396 1.386 . S
C397 C401 1.393 . S
C398 H390 0.950 . S
C398 C396 1.391 . S
C398 C399 1.400 . S
C399 C398 1.400 . S
C399 C400 1.398 . S
C399 C405 1.491 . S
C400 H391 0.950 . S
C400 C399 1.398 . S
C400 C401 1.391 . S
C401 H389 0.950 . S
C401 C397 1.393 . S
C401 C400 1.391 . S
C402 H392 0.950 . S
C402 C403 1.386 . S
C402 C404 1.391 . S
C403 C402 1.386 . S
C403 C407 1.393 . S
C404 H393 0.950 . S
C404 C402 1.391 . S
C404 C405 1.400 . S
C405 C399 1.491 . S
C405 C404 1.400 . S
C405 C406 1.398 . S
C406 H394 0.950 . S
C406 C405 1.398 . S
C406 C407 1.391 . S
C407 H395 0.950 . S
C407 C403 1.393 . S
C407 C406 1.391 . S
H408 C416 0.954 . S
H409 C421 0.950 . S
H410 C418 0.950 . S
H411 C420 0.950 . S
H412 C422 0.953 . S
H413 C424 0.950 . S
H414 C426 0.950 . S
H415 C427 0.950 . S
C416 H408 0.954 . S
C416 C417 1.386 . S
C416 C418 1.391 1_556 S
C417 C416 1.386 . S
C417 C421 1.393 . S
C418 H410 0.950 . S
C418 C416 1.391 1_554 S
C418 C419 1.400 1_554 S
C419 C418 1.400 1_556 S
C419 C420 1.398 . S
C419 C425 1.491 1_566 S
C420 H411 0.950 . S
C420 C419 1.398 . S
C420 C421 1.391 . S
C421 H409 0.950 . S
C421 C417 1.393 . S
C421 C420 1.391 . S
C422 H412 0.953 . S
C422 C423 1.386 . S
C422 C424 1.391 1_554 S
C423 C422 1.386 . S
C423 C427 1.393 . S
C424 H413 0.950 . S
C424 C422 1.391 1_556 S
C424 C425 1.400 1_556 S
C425 C419 1.491 1_544 S
C425 C424 1.400 1_554 S
C425 C426 1.398 . S
C426 H414 0.950 . S
C426 C425 1.398 . S
C426 C427 1.391 . S
C427 H415 0.950 . S
C427 C423 1.393 . S
C427 C426 1.391 . S
H428 C436 0.950 . S
H429 C441 0.950 . S
H430 C438 0.950 . S
H431 C440 0.950 . S
H432 C442 0.950 . S
H433 C444 0.950 . S
H434 C446 0.950 . S
H435 C447 0.950 . S
C436 H428 0.950 . S
C436 C437 1.386 . S
C436 C438 1.391 . S
C437 C436 1.386 . S
C437 C441 1.393 . S
C438 H430 0.950 . S
C438 C436 1.391 . S
C438 C439 1.400 . S
C439 C438 1.400 . S
C439 C440 1.398 . S
C439 C445 1.491 . S
C440 H431 0.950 . S
C440 C439 1.398 . S
C440 C441 1.391 . S
C441 H429 0.950 . S
C441 C437 1.393 . S
C441 C440 1.391 . S
C442 H432 0.950 . S
C442 C443 1.386 . S
C442 C444 1.391 . S
C443 C442 1.386 . S
C443 C447 1.393 . S
C444 H433 0.950 . S
C444 C442 1.391 . S
C444 C445 1.400 . S
C445 C439 1.491 . S
C445 C444 1.400 . S
C445 C446 1.398 . S
C446 H434 0.950 . S
C446 C445 1.398 . S
C446 C447 1.391 . S
C447 H435 0.950 . S
C447 C443 1.393 . S
C447 C446 1.391 . S
H448 C456 0.950 . S
H449 C461 0.950 . S
H450 C458 0.950 . S
H451 C460 0.950 . S
H452 C462 0.950 . S
H453 C464 0.950 . S
H454 C466 0.950 . S
H455 C467 0.950 . S
C456 H448 0.950 . S
C456 C457 1.386 . S
C456 C458 1.391 . S
C457 C456 1.386 . S
C457 C461 1.393 . S
C458 H450 0.950 . S
C458 C456 1.391 . S
C458 C459 1.400 . S
C459 C458 1.400 . S
C459 C460 1.398 . S
C459 C465 1.491 1_655 S
C460 H451 0.950 . S
C460 C459 1.398 . S
C460 C461 1.391 . S
C461 H449 0.950 . S
C461 C457 1.393 . S
C461 C460 1.391 . S
C462 H452 0.950 . S
C462 C463 1.386 . S
C462 C464 1.391 . S
C463 C462 1.386 . S
C463 C467 1.393 . S
C464 H453 0.950 . S
C464 C462 1.391 . S
C464 C465 1.400 . S
C465 C459 1.491 1_455 S
C465 C464 1.400 . S
C465 C466 1.398 . S
C466 H454 0.950 . S
C466 C465 1.398 . S
C466 C467 1.391 . S
C467 H455 0.950 . S
C467 C463 1.393 . S
C467 C466 1.391 . S
H468 C476 0.950 . S
H469 C481 0.950 . S
H470 C478 0.950 . S
H471 C480 0.950 . S
H472 C482 0.950 . S
H473 C484 0.950 . S
H474 C486 0.950 . S
H475 C487 0.950 . S
C476 H468 0.950 . S
C476 C477 1.386 . S
C476 C478 1.391 . S
C477 C476 1.386 . S
C477 C481 1.393 1_554 S
C478 H470 0.950 . S
C478 C476 1.391 . S
C478 C479 1.400 . S
C479 C478 1.400 . S
C479 C480 1.398 1_554 S
C479 C485 1.491 1_564 S
C480 H471 0.950 . S
C480 C479 1.398 1_556 S
C480 C481 1.391 . S
C481 H469 0.950 . S
C481 C477 1.393 1_556 S
C481 C480 1.391 . S
C482 H472 0.950 . S
C482 C483 1.386 . S
C482 C484 1.391 . S
C483 C482 1.386 . S
C483 C487 1.393 1_556 S
C484 H473 0.950 . S
C484 C482 1.391 . S
C484 C485 1.400 . S
C485 C479 1.491 1_546 S
C485 C484 1.400 . S
C485 C486 1.398 1_556 S
C486 H474 0.950 . S
C486 C485 1.398 1_554 S
C486 C487 1.391 . S
C487 H475 0.950 . S
C487 C483 1.393 1_554 S
C487 C486 1.391 . S
H488 C496 0.950 . S
H489 C501 0.950 . S
H490 C498 0.950 . S
H491 C500 0.950 . S
H492 C502 0.950 . S
H493 C504 0.950 . S
H494 C506 0.950 . S
H495 C507 0.950 . S
C496 H488 0.950 . S
C496 C497 1.386 . S
C496 C498 1.391 . S
C497 C496 1.386 . S
C497 C501 1.393 . S
C498 H490 0.950 . S
C498 C496 1.391 . S
C498 C499 1.400 . S
C499 C498 1.400 . S
C499 C500 1.398 . S
C499 C505 1.491 . S
C500 H491 0.950 . S
C500 C499 1.398 . S
C500 C501 1.391 . S
C501 H489 0.950 . S
C501 C497 1.393 . S
C501 C500 1.391 . S
C502 H492 0.950 . S
C502 C503 1.386 . S
C502 C504 1.391 . S
C503 C502 1.386 . S
C503 C507 1.393 . S
C504 H493 0.950 . S
C504 C502 1.391 . S
C504 C505 1.400 . S
C505 C499 1.491 . S
C505 C504 1.400 . S
C505 C506 1.398 . S
C506 H494 0.950 . S
C506 C505 1.398 . S
C506 C507 1.391 . S
C507 H495 0.950 . S
C507 C503 1.393 . S
C507 C506 1.391 . S
H508 C516 0.950 . S
H509 C521 0.950 . S
H510 C518 0.950 . S
H511 C520 0.950 . S
H512 C522 0.950 . S
H513 C524 0.950 . S
H514 C526 0.950 . S
H515 C527 0.950 . S
C516 H508 0.950 . S
C516 C517 1.386 . S
C516 C518 1.391 . S
C517 C516 1.386 . S
C517 C521 1.393 . S
C518 H510 0.950 . S
C518 C516 1.391 . S
C518 C519 1.400 . S
C519 C518 1.400 . S
C519 C520 1.398 . S
C519 C525 1.491 1_455 S
C520 H511 0.950 . S
C520 C519 1.398 . S
C520 C521 1.391 . S
C521 H509 0.950 . S
C521 C517 1.393 . S
C521 C520 1.391 . S
C522 H512 0.950 . S
C522 C523 1.386 . S
C522 C524 1.391 . S
C523 C522 1.386 . S
C523 C527 1.393 . S
C524 H513 0.950 . S
C524 C522 1.391 . S
C524 C525 1.400 . S
C525 C519 1.491 1_655 S
C525 C524 1.400 . S
C525 C526 1.398 . S
C526 H514 0.950 . S
C526 C525 1.398 . S
C526 C527 1.391 . S
C527 H515 0.950 . S
C527 C523 1.393 . S
C527 C526 1.391 . S
H528 C536 0.950 . S
H529 C541 0.950 1_655 S
H530 C538 0.950 . S
H531 C540 0.973 . S
H532 C542 0.950 . S
H533 C544 0.950 . S
H534 C546 0.973 . S
H535 C547 0.950 . S
C536 H528 0.950 . S
C536 C537 1.386 . S
C536 C538 1.391 . S
C537 C536 1.386 . S
C537 C541 1.393 . S
C538 H530 0.950 . S
C538 C536 1.391 . S
C538 C539 1.400 . S
C539 C538 1.400 . S
C539 C540 1.391 1_556 S
C539 C545 1.491 1_556 S
C540 H531 0.973 . S
C540 C539 1.391 1_554 S
C540 C541 1.377 1_554 S
C541 H529 0.950 1_455 S
C541 C537 1.393 . S
C541 C540 1.377 1_556 S
C542 H532 0.950 . S
C542 C543 1.386 . S
C542 C544 1.391 . S
C543 C542 1.386 . S
C543 C547 1.393 . S
C544 H533 0.950 . S
C544 C542 1.391 . S
C544 C545 1.400 . S
C545 C539 1.491 1_554 S
C545 C544 1.400 . S
C545 C546 1.391 1_554 S
C546 H534 0.973 . S
C546 C545 1.391 1_556 S
C546 C547 1.377 1_556 S
C547 H535 0.950 . S
C547 C543 1.393 . S
C547 C546 1.377 1_554 S
H548 C556 0.950 1_565 S
H549 C561 0.950 . S
H550 C558 0.950 . S
H551 C560 0.950 . S
H552 C562 0.950 . S
H553 C564 0.950 . S
H554 C566 0.950 . S
H555 C567 0.950 1_455 S
C556 H548 0.950 1_545 S
C556 C557 1.386 . S
C556 C558 1.391 . S
C557 C556 1.386 . S
C557 C561 1.393 . S
C558 H550 0.950 . S
C558 C556 1.391 . S
C558 C559 1.400 . S
C559 C558 1.400 . S
C559 C560 1.398 . S
C559 C565 1.491 . S
C560 H551 0.950 . S
C560 C559 1.398 . S
C560 C561 1.391 . S
C561 H549 0.950 . S
C561 C557 1.393 . S
C561 C560 1.391 . S
C562 H552 0.950 . S
C562 C563 1.386 . S
C562 C564 1.391 . S
C563 C562 1.386 . S
C563 C567 1.393 . S
C564 H553 0.950 . S
C564 C562 1.391 . S
C564 C565 1.400 . S
C565 C559 1.491 . S
C565 C564 1.400 . S
C565 C566 1.398 . S
C566 H554 0.950 . S
C566 C565 1.398 . S
C566 C567 1.391 . S
C567 H555 0.950 1_655 S
C567 C563 1.393 . S
C567 C566 1.391 . S
H568 C576 0.950 . S
H569 C581 0.950 . S
H570 C578 0.950 . S
H571 C580 0.950 . S
H572 C582 0.950 1_545 S
H573 C584 0.950 . S
H574 C586 0.950 . S
H575 C587 0.950 . S
C576 H568 0.950 . S
C576 C577 1.386 . S
C576 C578 1.391 . S
C577 C576 1.386 . S
C577 C581 1.393 . S
C578 H570 0.950 . S
C578 C576 1.391 . S
C578 C579 1.400 . S
C579 C578 1.400 . S
C579 C580 1.398 . S
C579 C585 1.491 . S
C580 H571 0.950 . S
C580 C579 1.398 . S
C580 C581 1.391 . S
C581 H569 0.950 . S
C581 C577 1.393 . S
C581 C580 1.391 . S
C582 H572 0.950 1_565 S
C582 C583 1.386 . S
C582 C584 1.391 . S
C583 C582 1.386 . S
C583 C587 1.393 . S
C584 H573 0.950 . S
C584 C582 1.391 . S
C584 C585 1.400 . S
C585 C579 1.491 . S
C585 C584 1.400 . S
C585 C586 1.398 . S
C586 H574 0.950 . S
C586 C585 1.398 . S
C586 C587 1.391 . S
C587 H575 0.950 . S
C587 C583 1.393 . S
C587 C586 1.391 . S
H588 C596 0.950 . S
H589 C601 0.950 1_556 S
H590 C598 0.950 . S
H591 C600 0.950 . S
H592 C602 0.950 . S
H593 C604 0.950 . S
H594 C606 0.950 . S
H595 C607 0.950 1_454 S
C596 H588 0.950 . S
C596 C597 1.386 . S
C596 C598 1.391 . S
C597 C596 1.386 . S
C597 C601 1.393 . S
C598 H590 0.950 . S
C598 C596 1.391 . S
C598 C599 1.400 . S
C599 C598 1.400 . S
C599 C600 1.398 1_554 S
C599 C605 1.491 1_554 S
C600 H591 0.950 . S
C600 C599 1.398 1_556 S
C600 C601 1.391 1_556 S
C601 H589 0.950 1_554 S
C601 C597 1.393 . S
C601 C600 1.391 1_554 S
C602 H592 0.950 . S
C602 C603 1.386 . S
C602 C604 1.391 . S
C603 C602 1.386 . S
C603 C607 1.393 . S
C604 H593 0.950 . S
C604 C602 1.391 . S
C604 C605 1.400 . S
C605 C599 1.491 1_556 S
C605 C604 1.400 . S
C605 C606 1.398 1_556 S
C606 H594 0.950 . S
C606 C605 1.398 1_554 S
C606 C607 1.391 1_554 S
C607 H595 0.950 1_656 S
C607 C603 1.393 . S
C607 C606 1.391 1_556 S
H608 C616 0.950 . S
H609 C621 0.950 . S
H610 C618 0.950 . S
H611 C620 0.950 . S
H612 C622 0.950 . S
H613 C624 0.950 . S
H614 C626 0.950 . S
H615 C627 0.950 1_545 S
C616 H608 0.950 . S
C616 C617 1.386 . S
C616 C618 1.391 . S
C617 C616 1.386 . S
C617 C621 1.393 . S
C618 H610 0.950 . S
C618 C616 1.391 . S
C618 C619 1.400 . S
C619 C618 1.400 . S
C619 C620 1.398 . S
C619 C625 1.491 . S
C620 H611 0.950 . S
C620 C619 1.398 . S
C620 C621 1.391 . S
C621 H609 0.950 . S
C621 C617 1.393 . S
C621 C620 1.391 . S
C622 H612 0.950 . S
C622 C623 1.386 . S
C622 C624 1.391 . S
C623 C622 1.386 . S
C623 C627 1.393 . S
C624 H613 0.950 . S
C624 C622 1.391 . S
C624 C625 1.400 . S
C625 C619 1.491 . S
C625 C624 1.400 . S
C625 C626 1.398 . S
C626 H614 0.950 . S
C626 C625 1.398 . S
C626 C627 1.391 . S
C627 H615 0.950 1_565 S
C627 C623 1.393 . S
C627 C626 1.391 . S
H628 C636 0.950 . S
H629 C641 0.950 . S
H630 C638 0.950 . S
H631 C640 0.950 . S
H632 C642 0.950 . S
H633 C644 0.950 . S
H634 C646 0.950 . S
H635 C647 0.950 . S
C636 H628 0.950 . S
C636 C637 1.386 . S
C636 C638 1.391 . S
C637 C636 1.386 . S
C637 C641 1.393 . S
C638 H630 0.950 . S
C638 C636 1.391 . S
C638 C639 1.400 . S
C639 C638 1.400 . S
C639 C640 1.398 . S
C639 C645 1.491 . S
C640 H631 0.950 . S
C640 C639 1.398 . S
C640 C641 1.391 . S
C641 H629 0.950 . S
C641 C637 1.393 . S
C641 C640 1.391 . S
C642 H632 0.950 . S
C642 C643 1.386 . S
C642 C644 1.391 . S
C643 C642 1.386 . S
C643 C647 1.393 . S
C644 H633 0.950 . S
C644 C642 1.391 . S
C644 C645 1.400 . S
C645 C639 1.491 . S
C645 C644 1.400 . S
C645 C646 1.398 . S
C646 H634 0.950 . S
C646 C645 1.398 . S
C646 C647 1.391 . S
C647 H635 0.950 . S
C647 C643 1.393 . S
C647 C646 1.391 . S
C177 C50 1.381 . S
C183 C8 1.383 . S
C197 C22 1.374 . S
C203 C64 1.375 . S
C217 C78 1.375 . S
C223 C36 1.376 . S
C237 C92 1.374 . S
C243 C134 1.376 . S
C257 C148 1.372 . S
C263 C106 1.372 . S
C277 C120 1.384 . S
C283 C162 1.383 . S
C297 C119 1.584 . S
C303 C7 1.594 . S
C317 C21 1.595 . S
C323 C133 1.575 . S
C337 C35 1.577 . S
C343 C147 1.590 . S
C357 C49 1.575 . S
C363 C161 1.593 . S
C377 C91 1.593 . S
C383 C63 1.576 . S
C397 C105 1.575 . S
C403 C77 1.596 . S
C417 C107 1.193 . S
C423 C9 1.177 . S
C437 C23 1.176 . S
C443 C121 1.206 . S
C457 C37 1.208 . S
C463 C135 1.182 . S
C477 C51 1.178 . S
C483 C149 1.207 . S
C497 C163 1.200 . S
C503 C65 1.198 . S
C517 C79 1.199 . S
C523 C93 1.200 . S
C537 C143 1.466 1_455 S
C543 C3 1.466 . S
C557 C157 1.471 1_545 S
C563 C17 1.471 1_655 S
C577 C87 1.466 . S
C583 C31 1.467 1_565 S
C597 C45 1.470 . S
C603 C101 1.468 1_655 S
C617 C59 1.470 1_455 S
C623 C115 1.469 1_565 S
C637 C73 1.471 1_545 S
C643 C129 1.470 . S
