# Generated by pormake.
# Topology sml, (6)-cn, num edge types: 1
# Building blocks:
#     Node 0, Type 0, BuildingBlock: BETGAK_clean_sbu_0, # of connection points: 6
#     Node 1, Type 0, BuildingBlock: BETGAK_clean_sbu_0, # of connection points: 6
#     Node 2, Type 0, BuildingBlock: BETGAK_clean_sbu_0, # of connection points: 6
#     Node 3, Type 0, BuildingBlock: BETGAK_clean_sbu_0, # of connection points: 6
#     Node 4, Type 0, BuildingBlock: BETGAK_clean_sbu_0, # of connection points: 6
#     Node 5, Type 0, BuildingBlock: BETGAK_clean_sbu_0, # of connection points: 6
#     Edge 6, Type (0, 0), BuildingBlock: XUDNAN_clean_linker_2, # of connection points: 2
#     Edge 7, Type (0, 0), BuildingBlock: XUDNAN_clean_linker_2, # of connection points: 2
#     Edge 8, Type (0, 0), BuildingBlock: XUDNAN_clean_linker_2, # of connection points: 2
#     Edge 9, Type (0, 0), BuildingBlock: XUDNAN_clean_linker_2, # of connection points: 2
#     Edge 10, Type (0, 0), BuildingBlock: XUDNAN_clean_linker_2, # of connection points: 2
#     Edge 11, Type (0, 0), BuildingBlock: XUDNAN_clean_linker_2, # of connection points: 2
#     Edge 12, Type (0, 0), BuildingBlock: XUDNAN_clean_linker_2, # of connection points: 2
#     Edge 13, Type (0, 0), BuildingBlock: XUDNAN_clean_linker_2, # of connection points: 2
#     Edge 14, Type (0, 0), BuildingBlock: XUDNAN_clean_linker_2, # of connection points: 2
#     Edge 15, Type (0, 0), BuildingBlock: XUDNAN_clean_linker_2, # of connection points: 2
#     Edge 16, Type (0, 0), BuildingBlock: XUDNAN_clean_linker_2, # of connection points: 2
#     Edge 17, Type (0, 0), BuildingBlock: XUDNAN_clean_linker_2, # of connection points: 2
#     Edge 18, Type (0, 0), BuildingBlock: XUDNAN_clean_linker_2, # of connection points: 2
#     Edge 19, Type (0, 0), BuildingBlock: XUDNAN_clean_linker_2, # of connection points: 2
#     Edge 20, Type (0, 0), BuildingBlock: XUDNAN_clean_linker_2, # of connection points: 2
#     Edge 21, Type (0, 0), BuildingBlock: XUDNAN_clean_linker_2, # of connection points: 2
#     Edge 22, Type (0, 0), BuildingBlock: XUDNAN_clean_linker_2, # of connection points: 2
#     Edge 23, Type (0, 0), BuildingBlock: XUDNAN_clean_linker_2, # of connection points: 2
# Relax obj value: 0.192
# Max RMSD: 0.223
# Mean RMSD: 0.223
data_MOF--net-sml--node1-BETGAK_clean_sbu_0--edge1-XUDNAN_clean_linker_2
_symmetry_space_group_name_H-M    P1
_symmetry_Int_Tables_number       1
_symmetry_cell_setting            triclinic
loop_
_symmetry_equiv_pos_as_xyz
'x, y, z'
_cell_length_a     31.976547
_cell_length_b     31.974663
_cell_length_c     25.039028
_cell_angle_alpha  89.999717
_cell_angle_beta   89.652808
_cell_angle_gamma 120.03208
loop_
_atom_site_label
_atom_site_type_symbol
_atom_site_fract_x
_atom_site_fract_y
_atom_site_fract_z
_atom_type_partial_charge
La0 La 0.1913 0.44791 0.11203 0.0
La1 La 0.22562 0.4209 0.21202 0.0
C2 C 0.18255 0.47321 0.01946 0.0
C3 C 0.19741 0.47117 0.96425 0.0
C4 C 0.1678 0.46954 0.92242 0.0
C5 C 0.18149 0.46943 0.86941 0.0
C6 C 0.22524 0.47102 0.8571 0.0
C7 C 0.25484 0.4723 0.89928 0.0
C8 C 0.24093 0.47217 0.95248 0.0
C9 C 0.12314 0.39334 0.18091 0.0
C10 C 0.21537 0.36235 0.11022 0.0
C11 C 0.23558 0.39628 0.30466 0.0
C12 C 0.24152 0.41379 0.36027 0.0
C13 C 0.28218 0.42099 0.38888 0.0
C14 C 0.28798 0.43518 0.44233 0.0
C15 C 0.253 0.44219 0.46859 0.0
C16 C 0.21242 0.43546 0.43978 0.0
C17 C 0.20677 0.42153 0.38605 0.0
C18 C 0.2933 0.47484 0.14218 0.0
C19 C 0.20242 0.50778 0.21451 0.0
O20 O 0.15102 0.43201 0.04139 0.0
O21 O 0.2169 0.50119 0.0525 0.0
O22 O 0.12177 0.4256 0.15087 0.0
O23 O 0.15971 0.39006 0.16901 0.0
O24 O 0.21475 0.39771 0.0832 0.0
O25 O 0.21093 0.35936 0.16283 0.0
O26 O 0.27165 0.42169 0.27194 0.0
O27 O 0.19358 0.38119 0.282 0.0
O28 O 0.2943 0.44192 0.17142 0.0
O29 O 0.25699 0.47825 0.15492 0.0
O30 O 0.21272 0.47833 0.2413 0.0
O31 O 0.19621 0.50529 0.16224 0.0
H32 H 0.13421 0.46895 0.93076 0.0
H33 H 0.15822 0.46917 0.838 0.0
H34 H 0.28854 0.4731 0.89118 0.0
H35 H 0.26423 0.47319 0.98429 0.0
H36 H 0.30927 0.41491 0.37001 0.0
H37 H 0.3193 0.43942 0.46352 0.0
H38 H 0.18508 0.44102 0.45879 0.0
H39 H 0.17505 0.41637 0.36499 0.0
La40 La 0.81496 0.26185 0.53906 0.0
La41 La 0.77767 0.19613 0.44191 0.0
C42 C 0.82419 0.29678 0.63128 0.0
C43 C 0.81186 0.27828 0.68664 0.0
C44 C 0.84755 0.29801 0.72606 0.0
C45 C 0.83707 0.28105 0.7787 0.0
C46 C 0.79048 0.24402 0.79322 0.0
C47 C 0.75461 0.22456 0.75359 0.0
C48 C 0.76523 0.24137 0.70086 0.0
C49 C 0.88112 0.27282 0.469 0.0
C50 C 0.78936 0.15114 0.5466 0.0
C51 C 0.76492 0.15808 0.35084 0.0
C52 C 0.76446 0.16873 0.29333 0.0
C53 C 0.72085 0.14347 0.26545 0.0
C54 C 0.71959 0.14836 0.21019 0.0
C55 C 0.76204 0.17837 0.18116 0.0
C56 C 0.80556 0.20516 0.20925 0.0
C57 C 0.80682 0.20028 0.26485 0.0
C58 C 0.71207 0.18511 0.51304 0.0
C59 C 0.80379 0.30747 0.43461 0.0
O60 O 0.85768 0.29128 0.60737 0.0
O61 O 0.78815 0.28764 0.59947 0.0
O62 O 0.88353 0.30751 0.49806 0.0
O63 O 0.84474 0.23327 0.48265 0.0
O64 O 0.79599 0.19068 0.57118 0.0
O65 O 0.78672 0.14676 0.49397 0.0
O66 O 0.73018 0.15644 0.38034 0.0
O67 O 0.80648 0.17838 0.37572 0.0
O68 O 0.7101 0.15017 0.48492 0.0
O69 O 0.74811 0.22444 0.49842 0.0
O70 O 0.79355 0.26685 0.40956 0.0
O71 O 0.80922 0.31254 0.4869 0.0
H72 H 0.88378 0.32644 0.716 0.0
H73 H 0.8658 0.2964 0.8078 0.0
H74 H 0.71815 0.19651 0.7633 0.0
H75 H 0.73693 0.22545 0.67134 0.0
H76 H 0.6877 0.11883 0.2863 0.0
H77 H 0.6853 0.12792 0.19003 0.0
H78 H 0.83895 0.22844 0.18807 0.0
H79 H 0.8411 0.22018 0.28517 0.0
La80 La 0.57635 0.74153 0.76699 0.0
La81 La 0.58679 0.80398 0.86479 0.0
C82 C 0.56376 0.7035 0.67585 0.0
C83 C 0.57391 0.71594 0.61868 0.0
C84 C 0.58255 0.68555 0.58588 0.0
C85 C 0.59151 0.69512 0.53134 0.0
C86 C 0.59207 0.73546 0.50813 0.0
C87 C 0.58319 0.76598 0.54108 0.0
C88 C 0.57433 0.75639 0.59602 0.0
C89 C 0.63022 0.73938 0.84464 0.0
C90 C 0.64693 0.85686 0.7639 0.0
C91 C 0.60167 0.83905 0.95764 0.0
C92 C 0.59843 0.82166 1.01291 0.0
C93 C 0.59462 0.84827 0.05523 0.0
C94 C 0.59532 0.83466 0.1082 0.0
C95 C 0.60014 0.79423 0.11989 0.0
C96 C 0.60264 0.76683 0.07718 0.0
C97 C 0.60157 0.78029 0.0242 0.0
C98 C 0.52882 0.80157 0.78909 0.0
C99 C 0.51373 0.68969 0.86737 0.0
O100 O 0.60101 0.71388 0.70605 0.0
O101 O 0.53244 0.71245 0.69957 0.0
O102 O 0.60442 0.70331 0.81344 0.0
O103 O 0.62796 0.77572 0.82924 0.0
O104 O 0.62067 0.81626 0.73683 0.0
O105 O 0.6438 0.85913 0.81636 0.0
O106 O 0.5609 0.82373 0.9322 0.0
O107 O 0.63504 0.83866 0.92739 0.0
O108 O 0.55365 0.83896 0.81929 0.0
O109 O 0.53444 0.76749 0.80476 0.0
O110 O 0.54093 0.72999 0.8943 0.0
O111 O 0.51734 0.68654 0.81494 0.0
H112 H 0.5821 0.65402 0.6025 0.0
H113 H 0.59736 0.6704 0.50716 0.0
H114 H 0.58374 0.79755 0.52455 0.0
H115 H 0.56783 0.78044 0.62066 0.0
H116 H 0.59223 0.88033 0.04733 0.0
H117 H 0.59382 0.85685 0.13999 0.0
H118 H 0.60579 0.73517 0.08471 0.0
H119 H 0.60412 0.75895 0.99211 0.0
La120 La 0.74589 0.57452 0.22325 0.0
La121 La 0.80736 0.61067 0.12309 0.0
C122 C 0.71 0.54309 0.31444 0.0
C123 C 0.72291 0.54655 0.37149 0.0
C124 C 0.73626 0.58862 0.40126 0.0
C125 C 0.74196 0.58866 0.45664 0.0
C126 C 0.73426 0.54662 0.48332 0.0
C127 C 0.7229 0.50527 0.45306 0.0
C128 C 0.71712 0.50522 0.39783 0.0
C129 C 0.72746 0.62851 0.15921 0.0
C130 C 0.85359 0.66532 0.22686 0.0
C131 C 0.83942 0.64054 0.03033 0.0
C132 C 0.82143 0.62654 0.97559 0.0
C133 C 0.85449 0.63575 0.93407 0.0
C134 C 0.83835 0.62152 0.88193 0.0
C135 C 0.7887 0.59768 0.87036 0.0
C136 C 0.75558 0.58871 0.91217 0.0
C137 C 0.77181 0.60307 0.96436 0.0
C138 C 0.8242 0.55474 0.18619 0.0
C139 C 0.70289 0.51656 0.11919 0.0
O140 O 0.71128 0.58066 0.29177 0.0
O141 O 0.72628 0.52168 0.28288 0.0
O142 O 0.69449 0.5917 0.18545 0.0
O143 O 0.76836 0.6347 0.17068 0.0
O144 O 0.81843 0.62788 0.25301 0.0
O145 O 0.8524 0.67004 0.17461 0.0
O146 O 0.84725 0.60976 0.05659 0.0
O147 O 0.81788 0.65806 0.05988 0.0
O148 O 0.85782 0.59096 0.15964 0.0
O149 O 0.78405 0.55027 0.17502 0.0
O150 O 0.73726 0.55398 0.09278 0.0
O151 O 0.70235 0.51363 0.17182 0.0
H152 H 0.7408 0.62104 0.38216 0.0
H153 H 0.7504 0.62102 0.47879 0.0
H154 H 0.71758 0.47256 0.47221 0.0
H155 H 0.70664 0.47226 0.37587 0.0
H156 H 0.89288 0.65358 0.94208 0.0
H157 H 0.86474 0.62834 0.85087 0.0
H158 H 0.71715 0.57088 0.90452 0.0
H159 H 0.74561 0.59573 0.99583 0.0
La160 La 0.26619 0.83667 0.43004 0.0
La161 La 0.20096 0.80678 0.52881 0.0
C162 C 0.30181 0.84278 0.33826 0.0
C163 C 0.28507 0.83265 0.28259 0.0
C164 C 0.31781 0.85766 0.24111 0.0
C165 C 0.3034 0.84766 0.18781 0.0
C166 C 0.25584 0.8123 0.17492 0.0
C167 C 0.22287 0.7877 0.2168 0.0
C168 C 0.23733 0.79781 0.27017 0.0
C169 C 0.27897 0.90667 0.49457 0.0
C170 C 0.15634 0.81424 0.42312 0.0
C171 C 0.16845 0.80501 0.62127 0.0
C172 C 0.18205 0.80323 0.67722 0.0
C173 C 0.19394 0.76864 0.69439 0.0
C174 C 0.20233 0.76481 0.74847 0.0
C175 C 0.19934 0.79565 0.78647 0.0
C176 C 0.1895 0.83159 0.76881 0.0
C177 C 0.18079 0.8352 0.71475 0.0
C178 C 0.18853 0.73637 0.46484 0.0
C179 C 0.30781 0.82076 0.53511 0.0
O180 O 0.29999 0.87849 0.3616 0.0
O181 O 0.28713 0.80524 0.36984 0.0
O182 O 0.31375 0.9056 0.46887 0.0
O183 O 0.23915 0.87063 0.48211 0.0
O184 O 0.19462 0.81731 0.39836 0.0
O185 O 0.15335 0.8161 0.47561 0.0
O186 O 0.15548 0.76643 0.59213 0.0
O187 O 0.19591 0.84498 0.5947 0.0
O188 O 0.15377 0.7361 0.49217 0.0
O189 O 0.2279 0.77306 0.47671 0.0
O190 O 0.26926 0.81632 0.56049 0.0
O191 O 0.31253 0.82413 0.48256 0.0
H192 H 0.35482 0.88459 0.24995 0.0
H193 H 0.32988 0.86683 0.15668 0.0
H194 H 0.18582 0.7607 0.20836 0.0
H195 H 0.21139 0.77817 0.30164 0.0
H196 H 0.19581 0.74387 0.66627 0.0
H197 H 0.21067 0.7373 0.76065 0.0
H198 H 0.1867 0.85575 0.79704 0.0
H199 H 0.17185 0.86226 0.7024 0.0
La200 La 0.4294 0.16136 0.8932 0.0
La201 La 0.41788 0.21501 0.79706 0.0
C202 C 0.43927 0.13176 0.98342 0.0
C203 C 0.43576 0.13763 0.04162 0.0
C204 C 0.42368 0.09792 0.07496 0.0
C205 C 0.4242 0.10261 0.13049 0.0
C206 C 0.43681 0.14724 0.15423 0.0
C207 C 0.44721 0.18677 0.12072 0.0
C208 C 0.44691 0.18208 0.06481 0.0
C209 C 0.37421 0.10653 0.81571 0.0
C210 C 0.36235 0.21007 0.90089 0.0
C211 C 0.40242 0.23369 0.70367 0.0
C212 C 0.40956 0.22128 0.64869 0.0
C213 C 0.41886 0.25415 0.60699 0.0
C214 C 0.42562 0.24322 0.55456 0.0
C215 C 0.42304 0.19895 0.54253 0.0
C216 C 0.41368 0.16604 0.58468 0.0
C217 C 0.4073 0.1772 0.63716 0.0
C218 C 0.47781 0.27088 0.87116 0.0
C219 C 0.49181 0.17452 0.79195 0.0
O220 O 0.39898 0.11111 0.95635 0.0
O221 O 0.47431 0.16774 0.9572 0.0
O222 O 0.40017 0.09567 0.8458 0.0
O223 O 0.37705 0.14515 0.83207 0.0
O224 O 0.38822 0.19386 0.92533 0.0
O225 O 0.36425 0.21716 0.84864 0.0
O226 O 0.44164 0.26174 0.73054 0.0
O227 O 0.36994 0.19831 0.73316 0.0
O228 O 0.45353 0.28378 0.8405 0.0
O229 O 0.47108 0.23033 0.8564 0.0
O230 O 0.46484 0.18874 0.76648 0.0
O231 O 0.48785 0.16566 0.84401 0.0
H232 H 0.41484 0.06329 0.05799 0.0
H233 H 0.41516 0.07122 0.15495 0.0
H234 H 0.45721 0.22167 0.13769 0.0
H235 H 0.45639 0.2133 0.03985 0.0
H236 H 0.42108 0.28851 0.61501 0.0
H237 H 0.43358 0.26987 0.52361 0.0
H238 H 0.41069 0.13131 0.57714 0.0
H239 H 0.40046 0.1513 0.66866 0.0
H240 H 0.33926 0.28155 0.88553 0.0
H241 H 0.31754 0.16618 0.99361 0.0
H242 H 0.27081 0.18822 0.05447 0.0
H243 H 0.35926 0.36664 0.98732 0.0
H244 H 0.32939 0.39401 0.95333 0.0
H245 H 0.35679 0.3661 0.91539 0.0
H246 H 0.27495 0.31163 0.86851 0.0
H247 H 0.24756 0.33944 0.90687 0.0
H248 H 0.22178 0.27477 0.90841 0.0
H249 H 0.23137 0.22525 0.10639 0.0
H250 H 0.20445 0.27747 0.1485 0.0
H251 H 0.2529 0.37096 1.00883 0.0
C252 C 0.32368 0.26034 0.92144 0.0
C253 C 0.33144 0.22173 0.9346 0.0
C254 C 0.31181 0.19571 0.98269 0.0
C255 C 0.28507 0.20784 1.01741 0.0
C256 C 0.27855 0.24642 1.00378 0.0
C257 C 0.29744 0.27254 0.95715 0.0
C258 C 0.28841 0.31485 0.95447 0.0
C259 C 0.33632 0.36325 0.95253 0.0
C260 C 0.25625 0.30984 0.90673 0.0
C261 C 0.26197 0.30854 1.00705 0.0
C262 C 0.25633 0.26855 0.03452 0.0
C263 C 0.23515 0.25642 0.08509 0.0
C264 C 0.22001 0.28638 0.10872 0.0
C265 C 0.2262 0.32814 0.08191 0.0
C266 C 0.24683 0.33883 0.02999 0.0
H267 H 0.07072 0.42313 0.2388 0.0
H268 H 0.09724 0.30364 0.22016 0.0
H269 H 0.03546 0.25765 0.28991 0.0
H270 H 0.0583 0.41355 0.38193 0.0
H271 H 0.01271 0.43097 0.38417 0.0
H272 H 0.05696 0.4528 0.33112 0.0
H273 H 0.98827 0.41799 0.26128 0.0
H274 H 0.94381 0.3958 0.31416 0.0
H275 H 0.94289 0.35487 0.26407 0.0
H276 H 0.96668 0.22328 0.35861 0.0
H277 H 0.90607 0.20826 0.42959 0.0
H278 H 0.93139 0.35366 0.40852 0.0
C279 C 0.06326 0.38716 0.2493 0.0
C280 C 0.08801 0.36643 0.22383 0.0
C281 C 0.07832 0.31985 0.23923 0.0
C282 C 0.04322 0.2935 0.27854 0.0
C283 C 0.01897 0.31477 0.30265 0.0
C284 C 0.0293 0.36096 0.28926 0.0
C285 C 1.00048 0.3769 0.32323 0.0
C286 C 0.03412 0.42116 0.35713 0.0
C287 C 0.96687 0.38697 0.2886 0.0
C288 C 0.97194 0.33234 0.35757 0.0
C289 C 0.98235 0.29649 0.34453 0.0
C290 C 0.95875 0.25133 0.36958 0.0
C291 C 0.92432 0.24301 0.40959 0.0
C292 C 0.91474 0.28001 0.42474 0.0
C293 C 0.93868 0.32502 0.39814 0.0
H294 H 0.72584 0.0543 0.5306 0.0
H295 H 0.8323 0.15565 0.64103 0.0
H296 H 0.81213 0.08925 0.7047 0.0
H297 H 0.63849 0.98845 0.62928 0.0
H298 H 0.61547 0.93014 0.59842 0.0
H299 H 0.6424 0.98396 0.55787 0.0
H300 H 0.70281 0.96045 0.51816 0.0
H301 H 0.67582 0.90634 0.55844 0.0
H302 H 0.73979 0.94832 0.5624 0.0
H303 H 0.77619 0.01478 0.75959 0.0
H304 H 0.72581 0.93604 0.80355 0.0
H305 H 0.64057 0.8811 0.65951 0.0
C306 C 0.74592 0.06204 0.56744 0.0
C307 C 0.7814 0.1099 0.58052 0.0
C308 C 0.8055 0.11914 0.63003 0.0
C309 C 0.7943 0.08166 0.66642 0.0
C310 C 0.75854 0.03506 0.65298 0.0
C311 C 0.73457 0.02494 0.60478 0.0
C312 C 0.6945 0.97239 0.60271 0.0
C313 C 0.64479 0.96853 0.59673 0.0
C314 C 0.7038 0.94527 0.55775 0.0
C315 C 0.69966 0.95482 0.65733 0.0
C316 C 0.73702 0.99166 0.68541 0.0
C317 C 0.74725 0.98545 0.73781 0.0
C318 C 0.7183 0.94058 0.7625 0.0
C319 C 0.67952 0.90226 0.73489 0.0
C320 C 0.67056 0.90939 0.68128 0.0
H321 H 0.59715 0.65807 0.90448 0.0
H322 H 0.70663 0.8097 0.90024 0.0
H323 H 0.74181 0.79902 0.98378 0.0
H324 H 0.58092 0.65019 0.05009 0.0
H325 H 0.57088 0.58951 0.05263 0.0
H326 H 0.55398 0.61029 0.99413 0.0
H327 H 0.60661 0.58744 0.9353 0.0
H328 H 0.62344 0.56689 0.9938 0.0
H329 H 0.66957 0.61196 0.95115 0.0
H330 H 0.77031 0.76847 0.06119 0.0
H331 H 0.78421 0.72332 0.13279 0.0
H332 H 0.65137 0.59366 0.09068 0.0
C333 C 0.62839 0.68907 0.92137 0.0
C334 C 0.64969 0.73462 0.89598 0.0
C335 C 0.69003 0.77455 0.91935 0.0
C336 C 0.71015 0.76875 0.96661 0.0
C337 C 0.68873 0.72302 0.99029 0.0
C338 C 0.64814 0.68413 0.96895 0.0
C339 C 0.63186 0.63879 1.00186 0.0
C340 C 0.58143 0.62118 0.02613 0.0
C341 C 0.63298 0.59896 0.96849 0.0
C342 C 0.67045 0.65777 0.04438 0.0
C343 C 0.70318 0.70636 0.03679 0.0
C344 C 0.74432 0.73076 0.06825 0.0
C345 C 0.75204 0.70488 0.10857 0.0
C346 C 0.71837 0.65548 0.11759 0.0
C347 C 0.67695 0.63179 0.08535 0.0
H348 H 0.0625 0.74659 0.44271 0.0
H349 H 0.15575 0.85748 0.32976 0.0
H350 H 0.08513 0.83723 0.27271 0.0
H351 H 0.99424 0.66137 0.3436 0.0
H352 H 0.93788 0.63481 0.37999 0.0
H353 H 0.99414 0.66247 0.41558 0.0
H354 H 0.96948 0.71833 0.4647 0.0
H355 H 0.91312 0.69087 0.42909 0.0
H356 H 0.95279 0.7554 0.42635 0.0
H357 H 0.00606 0.80285 0.22651 0.0
H358 H 0.92578 0.75103 0.18795 0.0
H359 H 0.88387 0.6577 0.32763 0.0
C360 C 0.06761 0.76737 0.40664 0.0
C361 C 0.11406 0.80446 0.39102 0.0
C362 C 0.12016 0.82953 0.34254 0.0
C363 C 0.08031 0.81836 0.31014 0.0
C364 C 0.03489 0.78141 0.32644 0.0
C365 C 0.02838 0.75576 0.37314 0.0
C366 C 0.97691 0.71403 0.37818 0.0
C367 C 0.97574 0.6653 0.37939 0.0
C368 C 0.95158 0.72004 0.42752 0.0
C369 C 0.95551 0.72019 0.32696 0.0
C370 C 0.98947 0.75976 0.29824 0.0
C371 C 0.9791 0.77191 0.2487 0.0
C372 C 0.93328 0.74213 0.22715 0.0
C373 C 0.89836 0.70022 0.25474 0.0
C374 C 0.90943 0.68981 0.30589 0.0
H375 H 0.40314 0.05449 0.75711 0.0
H376 H 0.29902 0.10359 0.75986 0.0
H377 H 0.26335 0.05889 0.6757 0.0
H378 H 0.42361 0.06215 0.61493 0.0
H379 H 0.4286 0.00842 0.61318 0.0
H380 H 0.44536 0.04506 0.67244 0.0
H381 H 0.38687 0.96925 0.72647 0.0
H382 H 0.36554 0.93186 0.66775 0.0
H383 H 0.32338 0.93733 0.71077 0.0
H384 H 0.23498 1.00171 0.59535 0.0
H385 H 0.2225 0.94548 0.52069 0.0
H386 H 0.35005 0.9408 0.56833 0.0
C387 C 0.37294 0.05604 0.73987 0.0
C388 C 0.35362 0.08231 0.76467 0.0
C389 C 0.31435 0.08378 0.741 0.0
C390 C 0.29388 0.05842 0.69346 0.0
C391 C 0.31363 0.03241 0.67017 0.0
C392 C 0.35273 0.03169 0.69237 0.0
C393 C 0.36723 1.00089 0.66025 0.0
C394 C 0.41928 0.03094 0.63892 0.0
C395 C 0.36041 0.95731 0.69333 0.0
C396 C 0.33077 0.98489 0.6158 0.0
C397 C 0.29933 1.00238 0.62273 0.0
C398 C 0.26001 0.98869 0.58899 0.0
C399 C 0.25309 0.95674 0.54693 0.0
C400 C 0.28594 0.93993 0.53854 0.0
C401 C 0.32522 0.95431 0.57326 0.0
H402 H 0.16828 0.41835 0.77323 0.0
H403 H 0.3153 0.52695 0.81248 0.0
H404 H 0.33849 0.532 0.71729 0.0
H405 H 0.19869 0.35796 0.67139 0.0
H406 H 0.14827 0.34648 0.62975 0.0
H407 H 0.14394 0.35074 0.70108 0.0
H408 H 0.12186 0.41778 0.68808 0.0
H409 H 0.12646 0.41397 0.61672 0.0
H410 H 0.16177 0.47107 0.64998 0.0
H411 H 0.34493 0.52642 0.61709 0.0
H412 H 0.33489 0.50854 0.52045 0.0
H413 H 0.18341 0.40413 0.54718 0.0
C414 C 0.20535 0.44333 0.76185 0.0
C415 C 0.23997 0.47232 0.80037 0.0
C416 C 0.28827 0.50398 0.78383 0.0
C417 C 0.3017 0.50734 0.7298 0.0
C418 C 0.26645 0.47871 0.69283 0.0
C419 C 0.21933 0.44712 0.70822 0.0
C420 C 0.18833 0.42029 0.66075 0.0
C421 C 0.16867 0.36563 0.66607 0.0
C422 C 0.14718 0.43147 0.65347 0.0
C423 C 0.22525 0.442 0.61607 0.0
C424 C 0.27012 0.47557 0.63536 0.0
C425 C 0.31 0.50008 0.6016 0.0
C426 C 0.30397 0.48959 0.54681 0.0
C427 C 0.25838 0.45496 0.52623 0.0
C428 C 0.21855 0.43124 0.56152 0.0
H429 H 0.80843 0.25705 0.11317 0.0
H430 H 0.71338 0.10146 0.11439 0.0
H431 H 0.70955 0.1017 1.01619 0.0
H432 H 0.75131 0.28235 1.00422 0.0
H433 H 0.80711 0.32946 0.97595 0.0
H434 H 0.80253 0.31739 0.04665 0.0
H435 H 0.87655 0.305 0.04106 0.0
H436 H 0.88139 0.31708 0.97034 0.0
H437 H 0.87597 0.26154 0.99476 0.0
H438 H 0.71629 0.11816 0.91799 0.0
H439 H 0.73363 0.14993 0.82593 0.0
H440 H 0.82341 0.29511 0.88741 0.0
C441 C 0.78706 0.22303 0.09274 0.0
C442 C 0.76086 0.17928 0.12169 0.0
C443 C 0.73305 0.13557 0.09332 0.0
C444 C 0.73086 0.13525 0.03744 0.0
C445 C 0.75673 0.17893 1.01021 0.0
C446 C 0.78435 0.22204 0.03676 0.0
C447 C 0.80859 0.26386 0.99763 0.0
C448 C 0.79134 0.30041 1.00666 0.0
C449 C 0.8639 0.2883 1.00117 0.0
C450 C 0.7903 0.23743 0.94507 0.0
C451 C 0.76046 0.18848 0.95331 0.0
C452 C 0.73942 0.1565 0.911 0.0
C453 C 0.74922 0.17499 0.85878 0.0
C454 C 0.77971 0.22511 0.84909 0.0
C455 C 0.80034 0.25658 0.89316 0.0
H456 H 0.54646 0.76418 0.43551 0.0
H457 H 0.66019 0.72827 0.44854 0.0
H458 H 0.67358 0.73828 0.3512 0.0
H459 H 0.49815 0.70346 0.31195 0.0
H460 H 0.48567 0.74862 0.28592 0.0
H461 H 0.48538 0.73972 0.35698 0.0
H462 H 0.54887 0.83019 0.36913 0.0
H463 H 0.5491 0.83944 0.29814 0.0
H464 H 0.60483 0.85594 0.33198 0.0
H465 H 0.67333 0.74974 0.25223 0.0
H466 H 0.6624 0.76634 0.15868 0.0
H467 H 0.54938 0.79565 0.20894 0.0
C468 C 0.57461 0.75908 0.41798 0.0
C469 C 0.60204 0.74509 0.4498 0.0
C470 C 0.63817 0.73823 0.42504 0.0
C471 C 0.64621 0.74402 0.36974 0.0
C472 C 0.61799 0.75689 0.33947 0.0
C473 C 0.58315 0.7647 0.36264 0.0
C474 C 0.55764 0.77798 0.32071 0.0
C475 C 0.50351 0.74019 0.31879 0.0
C476 C 0.5656 0.82892 0.33059 0.0
C477 C 0.58367 0.77646 0.27049 0.0
C478 C 0.61817 0.76398 0.28225 0.0
C479 C 0.64646 0.75962 0.24252 0.0
C480 C 0.63971 0.76876 0.18939 0.0
C481 C 0.605 0.78226 0.17626 0.0
C482 C 0.57655 0.7859 0.21761 0.0
H483 H 0.82824 0.64703 0.77673 0.0
H484 H 0.71105 0.51184 0.83872 0.0
H485 H 0.68447 0.48413 0.74657 0.0
H486 H 0.76293 0.65923 0.66696 0.0
H487 H 0.8141 0.68392 0.62206 0.0
H488 H 0.82335 0.69336 0.69292 0.0
H489 H 0.87907 0.65611 0.69098 0.0
H490 H 0.86994 0.6465 0.62012 0.0
H491 H 0.8567 0.59649 0.6638 0.0
H492 H 0.67173 0.47057 0.64768 0.0
H493 H 0.67178 0.47313 0.54924 0.0
H494 H 0.79849 0.61655 0.55171 0.0
C495 C 0.79712 0.61148 0.77097 0.0
C496 C 0.77174 0.58159 0.81501 0.0
C497 C 0.73073 0.53562 0.80569 0.0
C498 C 0.71555 0.51944 0.75348 0.0
C499 C 0.74168 0.54967 0.71105 0.0
C500 C 0.78147 0.5948 0.71921 0.0
C501 C 0.80319 0.62029 0.66673 0.0
C502 C 0.80072 0.66696 0.6619 0.0
C503 C 0.85531 0.63042 0.66003 0.0
C504 C 0.76949 0.58236 0.6277 0.0
C505 C 0.73433 0.54188 0.65409 0.0
C506 C 0.69915 0.50203 0.62658 0.0
C507 C 0.69973 0.50371 0.57062 0.0
C508 C 0.73529 0.54494 0.54263 0.0
C509 C 0.77061 0.58467 0.57184 0.0
H510 H 0.24873 0.86508 0.86297 0.0
H511 H 0.15928 0.71019 0.84141 0.0
H512 H 0.1639 0.69772 0.93796 0.0
H513 H 0.32672 0.85962 0.96354 0.0
H514 H 0.33145 0.90996 1.00095 0.0
H515 H 0.32163 0.90673 0.92994 0.0
H516 H 0.24523 0.91387 0.94506 0.0
H517 H 0.25477 0.91702 1.0161 0.0
H518 H 0.19797 0.87154 0.98886 0.0
H519 H 0.17661 0.70198 0.03712 0.0
H520 H 0.19928 0.72251 0.13154 0.0
H521 H 0.27982 0.87471 0.08929 0.0
C522 C 0.23005 0.82856 0.87861 0.0
C523 C 0.20378 0.78858 0.8445 0.0
C524 C 0.18022 0.74133 0.86653 0.0
C525 C 0.18235 0.73388 0.92141 0.0
C526 C 0.20835 0.77403 0.95388 0.0
C527 C 0.23202 0.82043 0.93334 0.0
C528 C 0.25771 0.85727 0.97702 0.0
C529 C 0.31263 0.88502 0.96727 0.0
C530 C 0.2377 0.89196 0.98205 0.0
C531 C 0.24442 0.82431 0.02534 0.0
C532 C 0.21588 0.77646 1.01109 0.0
C533 C 0.19892 0.73935 0.04877 0.0
C534 C 0.2117 0.75141 0.10242 0.0
C535 C 0.24124 0.80022 0.11805 0.0
C536 C 0.2576 0.83702 0.07871 0.0
H537 H 0.39429 0.2216 0.44776 0.0
H538 H 0.46955 0.15056 0.50973 0.0
H539 H 0.48144 0.13058 0.4179 0.0
H540 H 0.3338 0.13982 0.34059 0.0
H541 H 0.34083 0.18607 0.29424 0.0
H542 H 0.33795 0.19483 0.36493 0.0
H543 H 0.41988 0.27476 0.35948 0.0
H544 H 0.42302 0.26627 0.28873 0.0
H545 H 0.47176 0.27446 0.33136 0.0
H546 H 0.48457 0.11734 0.31946 0.0
H547 H 0.47928 0.11225 0.22126 0.0
H548 H 0.40424 0.19386 0.22174 0.0
C549 C 0.41375 0.20229 0.44217 0.0
C550 C 0.43066 0.18745 0.48653 0.0
C551 C 0.45533 0.1616 0.47691 0.0
C552 C 0.46265 0.15039 0.42471 0.0
C553 C 0.44545 0.16547 0.38215 0.0
C554 C 0.42167 0.19102 0.39021 0.0
C555 C 0.4068 0.20292 0.33735 0.0
C556 C 0.35156 0.1795 0.3341 0.0
C557 C 0.43187 0.25787 0.32873 0.0
C558 C 0.42565 0.17976 0.29832 0.0
C559 C 0.44781 0.15837 0.32515 0.0
C560 C 0.46731 0.13398 0.29807 0.0
C561 C 0.46388 0.13106 0.24222 0.0
C562 C 0.44112 0.1524 0.21359 0.0
C563 C 0.42218 0.17749 0.24229 0.0
H564 H 0.25698 0.56725 0.2957 0.0
H565 H 0.12887 0.52587 0.20151 0.0
H566 H 0.11103 0.58011 0.25529 0.0
H567 H 0.21136 0.57789 0.42145 0.0
H568 H 0.26624 0.63091 0.44195 0.0
H569 H 0.26891 0.58885 0.39619 0.0
H570 H 0.31582 0.65806 0.32775 0.0
H571 H 0.31352 0.70035 0.37352 0.0
H572 H 0.29054 0.69466 0.30677 0.0
H573 H 0.10395 0.63396 0.324 0.0
H574 H 0.11327 0.69104 0.39618 0.0
H575 H 0.25035 0.70405 0.43929 0.0
C576 C 0.22541 0.56999 0.28636 0.0
C577 C 0.1942 0.54259 0.24467 0.0
C578 C 0.15334 0.54705 0.23311 0.0
C579 C 0.14284 0.57751 0.26355 0.0
C580 C 0.17422 0.60406 0.30457 0.0
C581 C 0.21521 0.60138 0.31532 0.0
C582 C 0.24376 0.63491 0.36052 0.0
C583 C 0.24778 0.60643 0.40782 0.0
C584 C 0.29388 0.67433 0.34095 0.0
C585 C 0.21189 0.65599 0.37428 0.0
C586 C 0.17166 0.63733 0.34193 0.0
C587 C 0.13563 0.64934 0.34908 0.0
C588 C 0.14103 0.68147 0.39021 0.0
C589 C 0.18257 0.70184 0.4227 0.0
C590 C 0.21853 0.68921 0.41439 0.0
H591 H 0.67791 0.24255 0.5505 0.0
H592 H 0.67986 0.11053 0.58356 0.0
H593 H 0.6288 0.09637 0.66382 0.0
H594 H 0.67566 0.27892 0.68791 0.0
H595 H 0.63369 0.29953 0.67384 0.0
H596 H 0.67454 0.30187 0.6225 0.0
H597 H 0.60206 0.25109 0.55995 0.0
H598 H 0.561 0.24874 0.61091 0.0
H599 H 0.55359 0.19356 0.58288 0.0
H600 H 0.5759 0.09625 0.74008 0.0
H601 H 0.51916 0.10595 0.80008 0.0
H602 H 0.54626 0.23364 0.7114 0.0
C603 C 0.66803 0.21109 0.57519 0.0
C604 C 0.68308 0.17791 0.5616 0.0
C605 C 0.6687 0.13644 0.59377 0.0
C606 C 0.63991 0.12822 0.63944 0.0
C607 C 0.62505 0.16135 0.65162 0.0
C608 C 0.63808 0.20159 0.61995 0.0
C609 C 0.61393 0.22929 0.63892 0.0
C610 C 0.65171 0.28044 0.65687 0.0
C611 C 0.58068 0.23073 0.59559 0.0
C612 C 0.58509 0.19828 0.68592 0.0
C613 C 0.59263 0.15976 0.69339 0.0
C614 C 0.56973 0.1263 0.7346 0.0
C615 C 0.53779 0.13211 0.76855 0.0
C616 C 0.52846 0.17039 0.76011 0.0
C617 C 0.55268 0.2039 0.71851 0.0
H618 H 0.31687 0.56128 0.09632 0.0
H619 H 0.33892 0.43862 0.08164 0.0
H620 H 0.39199 0.47683 1.003 0.0
H621 H 0.32016 0.58768 0.95274 0.0
H622 H 0.3525 0.6521 0.96312 0.0
H623 H 0.31196 0.61236 1.01402 0.0
H624 H 0.38145 0.64939 0.0831 0.0
H625 H 0.42205 0.68914 0.03249 0.0
H626 H 0.43699 0.64977 0.06886 0.0
H627 H 0.44539 0.53052 0.92756 0.0
H628 H 0.5001 0.59819 0.8676 0.0
H629 H 0.44751 0.68747 0.93686 0.0
C630 C 0.33244 0.54231 0.076 0.0
C631 C 0.32388 0.49711 0.09463 0.0
C632 C 0.34533 0.47348 0.06786 0.0
C633 C 0.37516 0.4947 0.02299 0.0
C634 C 0.38348 0.53974 1.00585 0.0
C635 C 0.36302 0.56342 0.03187 0.0
C636 C 0.38076 0.61315 1.00845 0.0
C637 C 0.33885 0.61651 0.98307 0.0
C638 C 0.40687 0.65268 0.05074 0.0
C639 C 0.41551 0.61444 0.96631 0.0
C640 C 0.41568 0.57132 0.96433 0.0
C641 C 0.44535 0.56434 0.9286 0.0
C642 C 0.47611 0.60273 0.89465 0.0
C643 C 0.47762 0.64758 0.89784 0.0
C644 C 0.44675 0.6533 0.93378 0.0
H645 H 0.75271 0.31333 0.34982 0.0
H646 H 0.87905 0.39824 0.44727 0.0
H647 H 0.90003 0.47058 0.39244 0.0
H648 H 0.80274 0.37109 0.2235 0.0
H649 H 0.74847 0.36987 0.20189 0.0
H650 H 0.7446 0.32429 0.24721 0.0
H651 H 0.69641 0.34578 0.31437 0.0
H652 H 0.70027 0.3917 0.2696 0.0
H653 H 0.72175 0.40717 0.33712 0.0
H654 H 0.90897 0.53306 0.32437 0.0
H655 H 0.89997 0.58288 0.25434 0.0
H656 H 0.76372 0.45952 0.20739 0.0
C657 C 0.78473 0.34723 0.35943 0.0
C658 C 0.81438 0.35044 0.40257 0.0
C659 C 0.85575 0.39533 0.41452 0.0
C660 C 0.86809 0.43647 0.38345 0.0
C661 C 0.83809 0.43231 0.34122 0.0
C662 C 0.7968 0.38905 0.32973 0.0
C663 C 0.76938 0.39501 0.28399 0.0
C664 C 0.76612 0.36318 0.23633 0.0
C665 C 0.71897 0.38429 0.30237 0.0
C666 C 0.80187 0.44816 0.2713 0.0
C667 C 0.84175 0.46891 0.30417 0.0
C668 C 0.87771 0.51727 0.29865 0.0
C669 C 0.87252 0.54521 0.25872 0.0
C670 C 0.83121 0.52487 0.22587 0.0
C671 C 0.79551 0.47586 0.23238 0.0
H672 H 0.38957 0.88547 0.58927 0.0
H673 H 0.29892 0.73396 0.5506 0.0
H674 H 0.34878 0.71351 0.60803 0.0
H675 H 0.50499 0.88138 0.59444 0.0
H676 H 0.5286 0.92402 0.64856 0.0
H677 H 0.48851 0.92746 0.6007 0.0
H678 H 0.43438 0.92389 0.67803 0.0
H679 H 0.47079 0.91656 0.72725 0.0
H680 H 0.40746 0.8723 0.72235 0.0
H681 H 0.4024 0.70825 0.6744 0.0
H682 H 0.46021 0.71842 0.74461 0.0
H683 H 0.51984 0.87372 0.73972 0.0
C684 C 0.38108 0.84824 0.5924 0.0
C685 C 0.34091 0.81104 0.56566 0.0
C686 C 0.32994 0.76264 0.57075 0.0
C687 C 0.35799 0.75079 0.60314 0.0
C688 C 0.39711 0.78797 0.62961 0.0
C689 C 0.40926 0.83581 0.62422 0.0
C690 C 0.45263 0.86826 0.65851 0.0
C691 C 0.49626 0.90228 0.62346 0.0
C692 C 0.44048 0.89685 0.69898 0.0
C693 C 0.46107 0.83084 0.68596 0.0
C694 C 0.429 0.78491 0.66791 0.0
C695 C 0.42829 0.74407 0.68822 0.0
C696 C 0.46137 0.75024 0.72797 0.0
C697 C 0.49485 0.79686 0.7469 0.0
C698 C 0.49471 0.83771 0.72565 0.0
H699 H 0.64293 0.51144 0.03872 0.0
H700 H 0.68772 0.42634 0.13137 0.0
H701 H 0.63595 0.35466 0.07643 0.0
H702 H 0.51712 0.41561 0.02747 0.0
H703 H 0.51036 0.43249 0.96077 0.0
H704 H 0.55228 0.47767 1.00598 0.0
H705 H 0.62181 0.50166 0.93686 0.0
H706 H 0.57967 0.4567 0.89168 0.0
H707 H 0.63341 0.45583 0.91116 0.0
H708 H 0.58825 0.29632 1.00506 0.0
H709 H 0.53359 0.24849 0.93259 0.0
H710 H 0.50636 0.36514 0.89654 0.0
C711 C 0.6413 0.47749 0.04736 0.0
C712 C 0.66901 0.4739 0.08882 0.0
C713 C 0.66629 0.42927 0.09977 0.0
C714 C 0.63733 0.38863 0.06867 0.0
C715 C 0.61053 0.39318 0.02778 0.0
C716 C 0.61118 0.43603 1.01782 0.0
C717 C 0.57692 0.43014 0.97302 0.0
C718 C 0.53679 0.43953 0.99302 0.0
C719 C 0.6046 0.46303 0.92538 0.0
C720 C 0.55715 0.37733 0.95937 0.0
C721 C 0.57816 0.35729 0.99057 0.0
C722 C 0.56983 0.31078 0.98198 0.0
C723 C 0.53806 0.28347 0.94135 0.0
C724 C 0.51322 0.30169 0.91158 0.0
C725 C 0.52348 0.34959 0.92017 0.0
loop_
_geom_bond_atom_site_label_1
_geom_bond_atom_site_label_2
_geom_bond_distance
_geom_bond_site_symmetry_2
_ccdc_geom_bond_type
La0 C2 2.928 . S
La0 O20 2.521 . S
La0 O21 2.628 . S
La0 O22 2.554 . S
La0 O23 2.757 . S
La0 O24 2.470 . S
La0 O29 2.482 . S
La0 O31 2.503 . S
La1 C11 2.928 . S
La1 O23 2.482 . S
La1 O25 2.503 . S
La1 O26 2.521 . S
La1 O27 2.628 . S
La1 O28 2.554 . S
La1 O29 2.757 . S
La1 O30 2.470 . S
C2 La0 2.928 . S
C2 C3 1.503 1_554 S
C2 O20 1.261 . S
C2 O21 1.243 . S
C3 C2 1.503 1_556 S
C3 C4 1.394 . S
C3 C8 1.373 . S
C4 C3 1.394 . S
C4 C5 1.380 . S
C4 H32 0.930 . S
C5 C4 1.380 . S
C5 C6 1.376 . S
C5 H33 0.930 . S
C6 C5 1.376 . S
C6 C7 1.370 . S
C7 C6 1.370 . S
C7 C8 1.396 . S
C7 H34 0.929 . S
C8 C3 1.373 . S
C8 C7 1.396 . S
C8 H35 0.929 . S
C9 O22 1.240 . S
C9 O23 1.289 . S
C10 O24 1.258 . S
C10 O25 1.256 . S
C11 La1 2.928 . S
C11 C12 1.503 . S
C11 O26 1.261 . S
C11 O27 1.243 . S
C12 C11 1.503 . S
C12 C13 1.394 . S
C12 C17 1.373 . S
C13 C12 1.394 . S
C13 C14 1.380 . S
C13 H36 0.930 . S
C14 C13 1.380 . S
C14 C15 1.376 . S
C14 H37 0.930 . S
C15 C14 1.376 . S
C15 C16 1.370 . S
C16 C15 1.370 . S
C16 C17 1.396 . S
C16 H38 0.929 . S
C17 C12 1.373 . S
C17 C16 1.396 . S
C17 H39 0.929 . S
C18 O28 1.240 . S
C18 O29 1.289 . S
C19 O30 1.258 . S
C19 O31 1.256 . S
O20 La0 2.521 . S
O20 C2 1.261 . S
O21 La0 2.628 . S
O21 C2 1.243 . S
O22 La0 2.554 . S
O22 C9 1.240 . S
O23 La0 2.757 . S
O23 La1 2.482 . S
O23 C9 1.289 . S
O24 La0 2.470 . S
O24 C10 1.258 . S
O25 La1 2.503 . S
O25 C10 1.256 . S
O26 La1 2.521 . S
O26 C11 1.261 . S
O27 La1 2.628 . S
O27 C11 1.243 . S
O28 La1 2.554 . S
O28 C18 1.240 . S
O29 La0 2.482 . S
O29 La1 2.757 . S
O29 C18 1.289 . S
O30 La1 2.470 . S
O30 C19 1.258 . S
O31 La0 2.503 . S
O31 C19 1.256 . S
H32 C4 0.930 . S
H33 C5 0.930 . S
H34 C7 0.929 . S
H35 C8 0.929 . S
H36 C13 0.930 . S
H37 C14 0.930 . S
H38 C16 0.929 . S
H39 C17 0.929 . S
La40 C42 2.928 . S
La40 O60 2.521 . S
La40 O61 2.628 . S
La40 O62 2.554 . S
La40 O63 2.757 . S
La40 O64 2.470 . S
La40 O69 2.482 . S
La40 O71 2.503 . S
La41 C51 2.928 . S
La41 O63 2.482 . S
La41 O65 2.503 . S
La41 O66 2.521 . S
La41 O67 2.628 . S
La41 O68 2.554 . S
La41 O69 2.757 . S
La41 O70 2.470 . S
C42 La40 2.928 . S
C42 C43 1.503 . S
C42 O60 1.261 . S
C42 O61 1.243 . S
C43 C42 1.503 . S
C43 C44 1.394 . S
C43 C48 1.373 . S
C44 C43 1.394 . S
C44 C45 1.380 . S
C44 H72 0.930 . S
C45 C44 1.380 . S
C45 C46 1.376 . S
C45 H73 0.930 . S
C46 C45 1.376 . S
C46 C47 1.370 . S
C47 C46 1.370 . S
C47 C48 1.396 . S
C47 H74 0.929 . S
C48 C43 1.373 . S
C48 C47 1.396 . S
C48 H75 0.929 . S
C49 O62 1.240 . S
C49 O63 1.289 . S
C50 O64 1.258 . S
C50 O65 1.256 . S
C51 La41 2.928 . S
C51 C52 1.503 . S
C51 O66 1.261 . S
C51 O67 1.243 . S
C52 C51 1.503 . S
C52 C53 1.394 . S
C52 C57 1.373 . S
C53 C52 1.394 . S
C53 C54 1.380 . S
C53 H76 0.930 . S
C54 C53 1.380 . S
C54 C55 1.376 . S
C54 H77 0.930 . S
C55 C54 1.376 . S
C55 C56 1.370 . S
C56 C55 1.370 . S
C56 C57 1.396 . S
C56 H78 0.929 . S
C57 C52 1.373 . S
C57 C56 1.396 . S
C57 H79 0.929 . S
C58 O68 1.240 . S
C58 O69 1.289 . S
C59 O70 1.258 . S
C59 O71 1.256 . S
O60 La40 2.521 . S
O60 C42 1.261 . S
O61 La40 2.628 . S
O61 C42 1.243 . S
O62 La40 2.554 . S
O62 C49 1.240 . S
O63 La40 2.757 . S
O63 La41 2.482 . S
O63 C49 1.289 . S
O64 La40 2.470 . S
O64 C50 1.258 . S
O65 La41 2.503 . S
O65 C50 1.256 . S
O66 La41 2.521 . S
O66 C51 1.261 . S
O67 La41 2.628 . S
O67 C51 1.243 . S
O68 La41 2.554 . S
O68 C58 1.240 . S
O69 La40 2.482 . S
O69 La41 2.757 . S
O69 C58 1.289 . S
O70 La41 2.470 . S
O70 C59 1.258 . S
O71 La40 2.503 . S
O71 C59 1.256 . S
H72 C44 0.930 . S
H73 C45 0.930 . S
H74 C47 0.929 . S
H75 C48 0.929 . S
H76 C53 0.930 . S
H77 C54 0.930 . S
H78 C56 0.929 . S
H79 C57 0.929 . S
La80 C82 2.928 . S
La80 O100 2.521 . S
La80 O101 2.628 . S
La80 O102 2.554 . S
La80 O103 2.757 . S
La80 O104 2.470 . S
La80 O109 2.482 . S
La80 O111 2.503 . S
La81 C91 2.928 1_556 S
La81 O103 2.482 . S
La81 O105 2.503 . S
La81 O106 2.521 1_556 S
La81 O107 2.628 1_556 S
La81 O108 2.554 . S
La81 O109 2.757 . S
La81 O110 2.470 . S
C82 La80 2.928 . S
C82 C83 1.503 . S
C82 O100 1.261 . S
C82 O101 1.243 . S
C83 C82 1.503 . S
C83 C84 1.394 . S
C83 C88 1.373 . S
C84 C83 1.394 . S
C84 C85 1.380 . S
C84 H112 0.930 . S
C85 C84 1.380 . S
C85 C86 1.376 . S
C85 H113 0.930 . S
C86 C85 1.376 . S
C86 C87 1.370 . S
C87 C86 1.370 . S
C87 C88 1.396 . S
C87 H114 0.929 . S
C88 C83 1.373 . S
C88 C87 1.396 . S
C88 H115 0.929 . S
C89 O102 1.240 . S
C89 O103 1.289 . S
C90 O104 1.258 . S
C90 O105 1.256 . S
C91 La81 2.928 1_554 S
C91 C92 1.503 . S
C91 O106 1.261 . S
C91 O107 1.243 . S
C92 C91 1.503 . S
C92 C93 1.394 . S
C92 C97 1.373 . S
C93 C92 1.394 . S
C93 C94 1.380 . S
C93 H116 0.930 . S
C94 C93 1.380 . S
C94 C95 1.376 . S
C94 H117 0.930 . S
C95 C94 1.376 . S
C95 C96 1.370 . S
C96 C95 1.370 . S
C96 C97 1.396 . S
C96 H118 0.929 . S
C97 C92 1.373 . S
C97 C96 1.396 . S
C97 H119 0.929 . S
C98 O108 1.240 . S
C98 O109 1.289 . S
C99 O110 1.258 . S
C99 O111 1.256 . S
O100 La80 2.521 . S
O100 C82 1.261 . S
O101 La80 2.628 . S
O101 C82 1.243 . S
O102 La80 2.554 . S
O102 C89 1.240 . S
O103 La80 2.757 . S
O103 La81 2.482 . S
O103 C89 1.289 . S
O104 La80 2.470 . S
O104 C90 1.258 . S
O105 La81 2.503 . S
O105 C90 1.256 . S
O106 La81 2.521 1_554 S
O106 C91 1.261 . S
O107 La81 2.628 1_554 S
O107 C91 1.243 . S
O108 La81 2.554 . S
O108 C98 1.240 . S
O109 La80 2.482 . S
O109 La81 2.757 . S
O109 C98 1.289 . S
O110 La81 2.470 . S
O110 C99 1.258 . S
O111 La80 2.503 . S
O111 C99 1.256 . S
H112 C84 0.930 . S
H113 C85 0.930 . S
H114 C87 0.929 . S
H115 C88 0.929 . S
H116 C93 0.930 . S
H117 C94 0.930 . S
H118 C96 0.929 . S
H119 C97 0.929 . S
La120 C122 2.928 . S
La120 O140 2.521 . S
La120 O141 2.628 . S
La120 O142 2.554 . S
La120 O143 2.757 . S
La120 O144 2.470 . S
La120 O149 2.482 . S
La120 O151 2.503 . S
La121 C131 2.928 1_554 S
La121 O143 2.482 . S
La121 O145 2.503 . S
La121 O146 2.521 1_554 S
La121 O147 2.628 1_554 S
La121 O148 2.554 . S
La121 O149 2.757 . S
La121 O150 2.470 1_554 S
C122 La120 2.928 . S
C122 C123 1.503 . S
C122 O140 1.261 . S
C122 O141 1.243 . S
C123 C122 1.503 . S
C123 C124 1.394 . S
C123 C128 1.373 . S
C124 C123 1.394 . S
C124 C125 1.380 . S
C124 H152 0.930 . S
C125 C124 1.380 . S
C125 C126 1.376 . S
C125 H153 0.930 . S
C126 C125 1.376 . S
C126 C127 1.370 . S
C127 C126 1.370 . S
C127 C128 1.396 . S
C127 H154 0.929 . S
C128 C123 1.373 . S
C128 C127 1.396 . S
C128 H155 0.929 . S
C129 O142 1.240 . S
C129 O143 1.289 . S
C130 O144 1.258 . S
C130 O145 1.256 . S
C131 La121 2.928 1_556 S
C131 C132 1.503 . S
C131 O146 1.261 . S
C131 O147 1.243 . S
C132 C131 1.503 . S
C132 C133 1.394 . S
C132 C137 1.373 . S
C133 C132 1.394 . S
C133 C134 1.380 . S
C133 H156 0.930 . S
C134 C133 1.380 . S
C134 C135 1.376 . S
C134 H157 0.930 . S
C135 C134 1.376 . S
C135 C136 1.370 . S
C136 C135 1.370 . S
C136 C137 1.396 . S
C136 H158 0.929 . S
C137 C132 1.373 . S
C137 C136 1.396 . S
C137 H159 0.929 . S
C138 O148 1.240 . S
C138 O149 1.289 . S
C139 O150 1.258 . S
C139 O151 1.255 1_556 S
O140 La120 2.521 . S
O140 C122 1.261 . S
O141 La120 2.628 . S
O141 C122 1.243 . S
O142 La120 2.554 . S
O142 C129 1.240 . S
O143 La120 2.757 . S
O143 La121 2.482 . S
O143 C129 1.289 . S
O144 La120 2.470 . S
O144 C130 1.258 . S
O145 La121 2.503 . S
O145 C130 1.256 . S
O146 La121 2.521 1_556 S
O146 C131 1.261 . S
O147 La121 2.628 1_556 S
O147 C131 1.243 . S
O148 La121 2.554 . S
O148 C138 1.240 . S
O149 La120 2.482 . S
O149 La121 2.757 . S
O149 C138 1.289 . S
O150 La121 2.470 1_556 S
O150 C139 1.258 . S
O151 La120 2.503 . S
O151 C139 1.255 1_554 S
H152 C124 0.930 . S
H153 C125 0.930 . S
H154 C127 0.929 . S
H155 C128 0.929 . S
H156 C133 0.930 . S
H157 C134 0.930 . S
H158 C136 0.929 . S
H159 C137 0.929 . S
La160 C162 2.928 . S
La160 O180 2.521 . S
La160 O181 2.628 . S
La160 O182 2.554 . S
La160 O183 2.757 . S
La160 O184 2.470 . S
La160 O189 2.482 . S
La160 O191 2.503 . S
La161 C171 2.928 . S
La161 O183 2.482 . S
La161 O185 2.503 . S
La161 O186 2.521 . S
La161 O187 2.628 . S
La161 O188 2.554 . S
La161 O189 2.757 . S
La161 O190 2.470 . S
C162 La160 2.928 . S
C162 C163 1.503 . S
C162 O180 1.261 . S
C162 O181 1.243 . S
C163 C162 1.503 . S
C163 C164 1.394 . S
C163 C168 1.373 . S
C164 C163 1.394 . S
C164 C165 1.380 . S
C164 H192 0.930 . S
C165 C164 1.380 . S
C165 C166 1.376 . S
C165 H193 0.930 . S
C166 C165 1.376 . S
C166 C167 1.370 . S
C167 C166 1.370 . S
C167 C168 1.396 . S
C167 H194 0.929 . S
C168 C163 1.373 . S
C168 C167 1.396 . S
C168 H195 0.929 . S
C169 O182 1.240 . S
C169 O183 1.289 . S
C170 O184 1.258 . S
C170 O185 1.256 . S
C171 La161 2.928 . S
C171 C172 1.503 . S
C171 O186 1.261 . S
C171 O187 1.243 . S
C172 C171 1.503 . S
C172 C173 1.394 . S
C172 C177 1.373 . S
C173 C172 1.394 . S
C173 C174 1.380 . S
C173 H196 0.930 . S
C174 C173 1.380 . S
C174 C175 1.376 . S
C174 H197 0.930 . S
C175 C174 1.376 . S
C175 C176 1.370 . S
C176 C175 1.370 . S
C176 C177 1.396 . S
C176 H198 0.929 . S
C177 C172 1.373 . S
C177 C176 1.396 . S
C177 H199 0.929 . S
C178 O188 1.240 . S
C178 O189 1.289 . S
C179 O190 1.258 . S
C179 O191 1.256 . S
O180 La160 2.521 . S
O180 C162 1.261 . S
O181 La160 2.628 . S
O181 C162 1.243 . S
O182 La160 2.554 . S
O182 C169 1.240 . S
O183 La160 2.757 . S
O183 La161 2.482 . S
O183 C169 1.289 . S
O184 La160 2.470 . S
O184 C170 1.258 . S
O185 La161 2.503 . S
O185 C170 1.256 . S
O186 La161 2.521 . S
O186 C171 1.261 . S
O187 La161 2.628 . S
O187 C171 1.243 . S
O188 La161 2.554 . S
O188 C178 1.240 . S
O189 La160 2.482 . S
O189 La161 2.757 . S
O189 C178 1.289 . S
O190 La161 2.470 . S
O190 C179 1.258 . S
O191 La160 2.503 . S
O191 C179 1.256 . S
H192 C164 0.930 . S
H193 C165 0.930 . S
H194 C167 0.929 . S
H195 C168 0.929 . S
H196 C173 0.930 . S
H197 C174 0.930 . S
H198 C176 0.929 . S
H199 C177 0.929 . S
La200 C202 2.928 . S
La200 O220 2.521 . S
La200 O221 2.628 . S
La200 O222 2.554 . S
La200 O223 2.757 . S
La200 O224 2.470 . S
La200 O229 2.482 . S
La200 O231 2.503 . S
La201 C211 2.928 . S
La201 O223 2.482 . S
La201 O225 2.503 . S
La201 O226 2.521 . S
La201 O227 2.628 . S
La201 O228 2.554 . S
La201 O229 2.757 . S
La201 O230 2.470 . S
C202 La200 2.928 . S
C202 C203 1.503 . S
C202 O220 1.261 . S
C202 O221 1.243 . S
C203 C202 1.503 . S
C203 C204 1.394 . S
C203 C208 1.373 . S
C204 C203 1.394 . S
C204 C205 1.380 1_556 S
C204 H232 0.930 . S
C205 C204 1.380 1_554 S
C205 C206 1.376 . S
C205 H233 0.930 . S
C206 C205 1.376 . S
C206 C207 1.370 . S
C207 C206 1.370 . S
C207 C208 1.396 1_554 S
C207 H234 0.929 . S
C208 C203 1.373 . S
C208 C207 1.396 1_556 S
C208 H235 0.929 . S
C209 O222 1.240 . S
C209 O223 1.289 . S
C210 O224 1.258 . S
C210 O225 1.256 . S
C211 La201 2.928 . S
C211 C212 1.503 . S
C211 O226 1.261 . S
C211 O227 1.243 . S
C212 C211 1.503 . S
C212 C213 1.394 . S
C212 C217 1.373 . S
C213 C212 1.394 . S
C213 C214 1.380 . S
C213 H236 0.930 . S
C214 C213 1.380 . S
C214 C215 1.376 . S
C214 H237 0.930 . S
C215 C214 1.376 . S
C215 C216 1.370 . S
C216 C215 1.370 . S
C216 C217 1.396 . S
C216 H238 0.929 . S
C217 C212 1.373 . S
C217 C216 1.396 . S
C217 H239 0.929 . S
C218 O228 1.240 . S
C218 O229 1.289 . S
C219 O230 1.258 . S
C219 O231 1.256 . S
O220 La200 2.521 . S
O220 C202 1.261 . S
O221 La200 2.628 . S
O221 C202 1.243 . S
O222 La200 2.554 . S
O222 C209 1.240 . S
O223 La200 2.757 . S
O223 La201 2.482 . S
O223 C209 1.289 . S
O224 La200 2.470 . S
O224 C210 1.258 . S
O225 La201 2.503 . S
O225 C210 1.256 . S
O226 La201 2.521 . S
O226 C211 1.261 . S
O227 La201 2.628 . S
O227 C211 1.243 . S
O228 La201 2.554 . S
O228 C218 1.240 . S
O229 La200 2.482 . S
O229 La201 2.757 . S
O229 C218 1.289 . S
O230 La201 2.470 . S
O230 C219 1.258 . S
O231 La200 2.503 . S
O231 C219 1.256 . S
H232 C204 0.930 . S
H233 C205 0.930 . S
H234 C207 0.929 . S
H235 C208 0.929 . S
H236 C213 0.930 . S
H237 C214 0.930 . S
H238 C216 0.929 . S
H239 C217 0.929 . S
H240 C252 0.930 . S
H241 C254 0.930 . S
H242 C255 0.930 . S
H243 C259 0.959 . S
H244 C259 0.959 . S
H245 C259 0.961 . S
H246 C260 0.960 . S
H247 C260 0.961 . S
H248 C260 0.959 . S
H249 C263 0.929 . S
H250 C264 0.931 . S
H251 C266 0.930 . S
C252 H240 0.930 . S
C252 C253 1.399 . S
C252 C257 1.399 . S
C253 C252 1.399 . S
C253 C254 1.376 . S
C254 H241 0.930 . S
C254 C253 1.376 . S
C254 C255 1.388 . S
C255 H242 0.930 . S
C255 C254 1.388 . S
C255 C256 1.390 . S
C256 C255 1.390 . S
C256 C257 1.394 . S
C256 C262 1.465 1_556 S
C257 C252 1.399 . S
C257 C256 1.394 . S
C257 C258 1.516 . S
C258 C257 1.516 . S
C258 C259 1.502 . S
C258 C260 1.561 . S
C258 C261 1.526 1_556 S
C259 H243 0.959 . S
C259 H244 0.959 . S
C259 H245 0.961 . S
C259 C258 1.502 . S
C260 H246 0.960 . S
C260 H247 0.961 . S
C260 H248 0.959 . S
C260 C258 1.561 . S
C261 C258 1.526 1_554 S
C261 C262 1.396 . S
C261 C266 1.390 . S
C262 C256 1.465 1_554 S
C262 C261 1.396 . S
C262 C263 1.399 . S
C263 H249 0.929 . S
C263 C262 1.399 . S
C263 C264 1.385 . S
C264 H250 0.931 . S
C264 C263 1.385 . S
C264 C265 1.389 . S
C265 C264 1.389 . S
C265 C266 1.387 . S
C266 H251 0.930 . S
C266 C261 1.390 . S
C266 C265 1.387 . S
H267 C279 0.930 . S
H268 C281 0.930 . S
H269 C282 0.930 . S
H270 C286 0.959 . S
H271 C286 0.959 . S
H272 C286 0.961 . S
H273 C287 0.960 . S
H274 C287 0.961 1_655 S
H275 C287 0.959 1_655 S
H276 C290 0.929 . S
H277 C291 0.931 . S
H278 C293 0.930 . S
C279 H267 0.930 . S
C279 C280 1.399 . S
C279 C284 1.399 . S
C280 C279 1.399 . S
C280 C281 1.376 . S
C281 H268 0.930 . S
C281 C280 1.376 . S
C281 C282 1.388 . S
C282 H269 0.930 . S
C282 C281 1.388 . S
C282 C283 1.390 . S
C283 C282 1.390 . S
C283 C284 1.394 . S
C283 C289 1.465 1_455 S
C284 C279 1.399 . S
C284 C283 1.394 . S
C284 C285 1.516 . S
C285 C284 1.516 . S
C285 C286 1.502 . S
C285 C287 1.561 . S
C285 C288 1.526 1_455 S
C286 H270 0.959 . S
C286 H271 0.959 . S
C286 H272 0.961 . S
C286 C285 1.502 . S
C287 H273 0.960 . S
C287 H274 0.961 1_455 S
C287 H275 0.959 1_455 S
C287 C285 1.561 . S
C288 C285 1.526 1_655 S
C288 C289 1.396 . S
C288 C293 1.390 . S
C289 C283 1.465 1_655 S
C289 C288 1.396 . S
C289 C290 1.399 . S
C290 H276 0.929 . S
C290 C289 1.399 . S
C290 C291 1.385 . S
C291 H277 0.931 . S
C291 C290 1.385 . S
C291 C292 1.389 . S
C292 C291 1.389 . S
C292 C293 1.387 . S
C293 H278 0.930 . S
C293 C288 1.390 . S
C293 C292 1.387 . S
H294 C306 0.930 . S
H295 C308 0.930 . S
H296 C309 0.930 . S
H297 C313 0.959 . S
H298 C313 0.959 . S
H299 C313 0.961 . S
H300 C314 0.960 . S
H301 C314 0.961 1_565 S
H302 C314 0.959 . S
H303 C317 0.929 . S
H304 C318 0.931 . S
H305 C320 0.930 . S
C306 H294 0.930 . S
C306 C307 1.399 . S
C306 C311 1.399 . S
C307 C306 1.399 . S
C307 C308 1.376 . S
C308 H295 0.930 . S
C308 C307 1.376 . S
C308 C309 1.388 . S
C309 H296 0.930 . S
C309 C308 1.388 . S
C309 C310 1.390 . S
C310 C309 1.390 . S
C310 C311 1.394 . S
C310 C316 1.465 . S
C311 C306 1.399 . S
C311 C310 1.394 . S
C311 C312 1.516 1_545 S
C312 C311 1.516 1_565 S
C312 C313 1.502 . S
C312 C314 1.561 1_565 S
C312 C315 1.526 . S
C313 H297 0.959 . S
C313 H298 0.959 . S
C313 H299 0.961 . S
C313 C312 1.502 . S
C314 H300 0.960 . S
C314 H301 0.961 1_545 S
C314 H302 0.959 . S
C314 C312 1.561 1_545 S
C315 C312 1.526 . S
C315 C316 1.396 1_565 S
C315 C320 1.390 . S
C316 C310 1.465 . S
C316 C315 1.396 1_545 S
C316 C317 1.399 . S
C317 H303 0.929 . S
C317 C316 1.399 . S
C317 C318 1.385 1_545 S
C318 H304 0.931 . S
C318 C317 1.385 1_565 S
C318 C319 1.389 . S
C319 C318 1.389 . S
C319 C320 1.387 . S
C320 H305 0.930 . S
C320 C315 1.390 . S
C320 C319 1.387 . S
H321 C333 0.930 . S
H322 C335 0.930 . S
H323 C336 0.930 1_554 S
H324 C340 0.959 . S
H325 C340 0.959 . S
H326 C340 0.961 . S
H327 C341 0.960 . S
H328 C341 0.961 . S
H329 C341 0.959 . S
H330 C344 0.929 . S
H331 C345 0.931 . S
H332 C347 0.930 . S
C333 H321 0.930 . S
C333 C334 1.399 . S
C333 C338 1.399 . S
C334 C333 1.399 . S
C334 C335 1.376 . S
C335 H322 0.930 . S
C335 C334 1.376 . S
C335 C336 1.388 . S
C336 H323 0.930 1_556 S
C336 C335 1.388 . S
C336 C337 1.390 . S
C337 C336 1.390 . S
C337 C338 1.394 . S
C337 C343 1.463 1_556 S
C338 C333 1.399 . S
C338 C337 1.394 . S
C338 C339 1.516 . S
C339 C338 1.516 . S
C339 C340 1.502 . S
C339 C341 1.561 . S
C339 C342 1.526 . S
C340 H324 0.959 . S
C340 H325 0.959 . S
C340 H326 0.961 . S
C340 C339 1.502 . S
C341 H327 0.960 . S
C341 H328 0.961 . S
C341 H329 0.959 . S
C341 C339 1.561 . S
C342 C339 1.526 . S
C342 C343 1.393 1_556 S
C342 C347 1.390 . S
C343 C337 1.463 1_554 S
C343 C342 1.393 1_554 S
C343 C344 1.404 . S
C344 H330 0.929 . S
C344 C343 1.404 . S
C344 C345 1.385 . S
C345 H331 0.931 . S
C345 C344 1.385 . S
C345 C346 1.389 . S
C346 C345 1.389 . S
C346 C347 1.387 1_554 S
C347 H332 0.930 . S
C347 C342 1.390 . S
C347 C346 1.387 1_556 S
H348 C360 0.930 1_655 S
H349 C362 0.930 . S
H350 C363 0.930 . S
H351 C367 0.959 . S
H352 C367 0.959 . S
H353 C367 0.961 . S
H354 C368 0.960 . S
H355 C368 0.961 . S
H356 C368 0.959 . S
H357 C371 0.929 . S
H358 C372 0.931 . S
H359 C374 0.930 . S
C360 H348 0.930 1_455 S
C360 C361 1.399 . S
C360 C365 1.399 1_455 S
C361 C360 1.399 . S
C361 C362 1.376 . S
C362 H349 0.930 . S
C362 C361 1.376 . S
C362 C363 1.388 . S
C363 H350 0.930 . S
C363 C362 1.388 . S
C363 C364 1.390 . S
C364 C363 1.390 . S
C364 C365 1.394 1_455 S
C364 C370 1.465 . S
C365 C360 1.399 1_655 S
C365 C364 1.394 1_655 S
C365 C366 1.516 . S
C366 C365 1.516 . S
C366 C367 1.502 . S
C366 C368 1.561 . S
C366 C369 1.526 . S
C367 H351 0.959 . S
C367 H352 0.959 . S
C367 H353 0.961 . S
C367 C366 1.502 . S
C368 H354 0.960 . S
C368 H355 0.961 . S
C368 H356 0.959 . S
C368 C366 1.561 . S
C369 C366 1.526 . S
C369 C370 1.396 1_655 S
C369 C374 1.390 . S
C370 C364 1.465 . S
C370 C369 1.396 1_455 S
C370 C371 1.399 . S
C371 H357 0.929 . S
C371 C370 1.399 . S
C371 C372 1.385 1_455 S
C372 H358 0.931 . S
C372 C371 1.385 1_655 S
C372 C373 1.389 . S
C373 C372 1.389 . S
C373 C374 1.387 . S
C374 H359 0.930 . S
C374 C369 1.390 . S
C374 C373 1.387 . S
H375 C387 0.930 . S
H376 C389 0.930 . S
H377 C390 0.930 . S
H378 C394 0.959 . S
H379 C394 0.959 . S
H380 C394 0.961 . S
H381 C395 0.960 . S
H382 C395 0.961 . S
H383 C395 0.959 . S
H384 C398 0.929 . S
H385 C399 0.931 . S
H386 C401 0.930 . S
C387 H375 0.930 . S
C387 C388 1.399 . S
C387 C392 1.399 . S
C388 C387 1.399 . S
C388 C389 1.376 . S
C389 H376 0.930 . S
C389 C388 1.376 . S
C389 C390 1.388 . S
C390 H377 0.930 . S
C390 C389 1.388 . S
C390 C391 1.390 . S
C391 C390 1.390 . S
C391 C392 1.394 . S
C391 C397 1.465 1_545 S
C392 C387 1.399 . S
C392 C391 1.394 . S
C392 C393 1.516 1_545 S
C393 C392 1.516 1_565 S
C393 C394 1.502 . S
C393 C395 1.561 . S
C393 C396 1.526 . S
C394 H378 0.959 . S
C394 H379 0.959 . S
C394 H380 0.961 . S
C394 C393 1.502 . S
C395 H381 0.960 . S
C395 H382 0.961 . S
C395 H383 0.959 . S
C395 C393 1.561 . S
C396 C393 1.526 . S
C396 C397 1.396 . S
C396 C401 1.390 . S
C397 C391 1.465 1_565 S
C397 C396 1.396 . S
C397 C398 1.399 . S
C398 H384 0.929 . S
C398 C397 1.399 . S
C398 C399 1.385 . S
C399 H385 0.931 . S
C399 C398 1.385 . S
C399 C400 1.389 . S
C400 C399 1.389 . S
C400 C401 1.387 . S
C401 H386 0.930 . S
C401 C396 1.390 . S
C401 C400 1.387 . S
H402 C414 0.930 . S
H403 C416 0.930 . S
H404 C417 0.930 . S
H405 C421 0.959 . S
H406 C421 0.959 . S
H407 C421 0.961 . S
H408 C422 0.960 . S
H409 C422 0.961 . S
H410 C422 0.959 . S
H411 C425 0.929 . S
H412 C426 0.931 . S
H413 C428 0.930 . S
C414 H402 0.930 . S
C414 C415 1.399 . S
C414 C419 1.399 . S
C415 C414 1.399 . S
C415 C416 1.376 . S
C416 H403 0.930 . S
C416 C415 1.376 . S
C416 C417 1.388 . S
C417 H404 0.930 . S
C417 C416 1.388 . S
C417 C418 1.390 . S
C418 C417 1.390 . S
C418 C419 1.394 . S
C418 C424 1.465 . S
C419 C414 1.399 . S
C419 C418 1.394 . S
C419 C420 1.516 . S
C420 C419 1.516 . S
C420 C421 1.502 . S
C420 C422 1.561 . S
C420 C423 1.526 . S
C421 H405 0.959 . S
C421 H406 0.959 . S
C421 H407 0.961 . S
C421 C420 1.502 . S
C422 H408 0.960 . S
C422 H409 0.961 . S
C422 H410 0.959 . S
C422 C420 1.561 . S
C423 C420 1.526 . S
C423 C424 1.396 . S
C423 C428 1.390 . S
C424 C418 1.465 . S
C424 C423 1.396 . S
C424 C425 1.399 . S
C425 H411 0.929 . S
C425 C424 1.399 . S
C425 C426 1.385 . S
C426 H412 0.931 . S
C426 C425 1.385 . S
C426 C427 1.389 . S
C427 C426 1.389 . S
C427 C428 1.387 . S
C428 H413 0.930 . S
C428 C423 1.390 . S
C428 C427 1.387 . S
H429 C441 0.926 1_554 S
H430 C443 0.930 1_554 S
H431 C444 0.930 . S
H432 C448 0.959 . S
H433 C448 0.959 . S
H434 C448 0.961 . S
H435 C449 0.960 . S
H436 C449 0.961 . S
H437 C449 0.959 . S
H438 C452 0.929 . S
H439 C453 0.931 . S
H440 C455 0.930 . S
C441 H429 0.926 1_556 S
C441 C442 1.399 1_556 S
C441 C446 1.399 . S
C442 C441 1.399 1_554 S
C442 C443 1.376 1_554 S
C443 H430 0.930 1_556 S
C443 C442 1.376 1_556 S
C443 C444 1.388 . S
C444 H431 0.930 . S
C444 C443 1.388 . S
C444 C445 1.390 . S
C445 C444 1.390 . S
C445 C446 1.394 . S
C445 C451 1.465 . S
C446 C441 1.399 . S
C446 C445 1.394 . S
C446 C447 1.516 . S
C447 C446 1.516 . S
C447 C448 1.502 . S
C447 C449 1.561 . S
C447 C450 1.526 . S
C448 H432 0.959 . S
C448 H433 0.959 . S
C448 H434 0.961 . S
C448 C447 1.502 . S
C449 H435 0.960 . S
C449 H436 0.961 . S
C449 H437 0.959 . S
C449 C447 1.561 . S
C450 C447 1.526 . S
C450 C451 1.396 . S
C450 C455 1.390 . S
C451 C445 1.465 . S
C451 C450 1.396 . S
C451 C452 1.399 . S
C452 H438 0.929 . S
C452 C451 1.399 . S
C452 C453 1.385 . S
C453 H439 0.931 . S
C453 C452 1.385 . S
C453 C454 1.389 . S
C454 C453 1.389 . S
C454 C455 1.387 . S
C455 H440 0.930 . S
C455 C450 1.390 . S
C455 C454 1.387 . S
H456 C468 0.930 . S
H457 C470 0.930 . S
H458 C471 0.930 . S
H459 C475 0.959 . S
H460 C475 0.959 . S
H461 C475 0.961 . S
H462 C476 0.960 . S
H463 C476 0.961 . S
H464 C476 0.959 . S
H465 C479 0.929 . S
H466 C480 0.931 . S
H467 C482 0.930 . S
C468 H456 0.930 . S
C468 C469 1.399 . S
C468 C473 1.399 . S
C469 C468 1.399 . S
C469 C470 1.376 . S
C470 H457 0.930 . S
C470 C469 1.376 . S
C470 C471 1.388 . S
C471 H458 0.930 . S
C471 C470 1.388 . S
C471 C472 1.390 . S
C472 C471 1.390 . S
C472 C473 1.394 . S
C472 C478 1.465 . S
C473 C468 1.399 . S
C473 C472 1.394 . S
C473 C474 1.516 . S
C474 C473 1.516 . S
C474 C475 1.502 . S
C474 C476 1.561 . S
C474 C477 1.526 . S
C475 H459 0.959 . S
C475 H460 0.959 . S
C475 H461 0.961 . S
C475 C474 1.502 . S
C476 H462 0.960 . S
C476 H463 0.961 . S
C476 H464 0.959 . S
C476 C474 1.561 . S
C477 C474 1.526 . S
C477 C478 1.396 . S
C477 C482 1.390 . S
C478 C472 1.465 . S
C478 C477 1.396 . S
C478 C479 1.399 . S
C479 H465 0.929 . S
C479 C478 1.399 . S
C479 C480 1.385 . S
C480 H466 0.931 . S
C480 C479 1.385 . S
C480 C481 1.389 . S
C481 C480 1.389 . S
C481 C482 1.387 . S
C482 H467 0.930 . S
C482 C477 1.390 . S
C482 C481 1.387 . S
H483 C495 0.930 . S
H484 C497 0.930 . S
H485 C498 0.930 . S
H486 C502 0.959 . S
H487 C502 0.959 . S
H488 C502 0.961 . S
H489 C503 0.960 . S
H490 C503 0.961 . S
H491 C503 0.959 . S
H492 C506 0.929 . S
H493 C507 0.931 . S
H494 C509 0.930 . S
C495 H483 0.930 . S
C495 C496 1.399 . S
C495 C500 1.399 . S
C496 C495 1.399 . S
C496 C497 1.376 . S
C497 H484 0.930 . S
C497 C496 1.376 . S
C497 C498 1.388 . S
C498 H485 0.930 . S
C498 C497 1.388 . S
C498 C499 1.390 . S
C499 C498 1.390 . S
C499 C500 1.394 . S
C499 C505 1.465 . S
C500 C495 1.399 . S
C500 C499 1.394 . S
C500 C501 1.516 . S
C501 C500 1.516 . S
C501 C502 1.502 . S
C501 C503 1.561 . S
C501 C504 1.526 . S
C502 H486 0.959 . S
C502 H487 0.959 . S
C502 H488 0.961 . S
C502 C501 1.502 . S
C503 H489 0.960 . S
C503 H490 0.961 . S
C503 H491 0.959 . S
C503 C501 1.561 . S
C504 C501 1.526 . S
C504 C505 1.396 . S
C504 C509 1.390 . S
C505 C499 1.465 . S
C505 C504 1.396 . S
C505 C506 1.399 . S
C506 H492 0.929 . S
C506 C505 1.399 . S
C506 C507 1.385 . S
C507 H493 0.931 . S
C507 C506 1.385 . S
C507 C508 1.389 . S
C508 C507 1.389 . S
C508 C509 1.387 . S
C509 H494 0.930 . S
C509 C504 1.390 . S
C509 C508 1.387 . S
H510 C522 0.930 . S
H511 C524 0.930 . S
H512 C525 0.930 . S
H513 C529 0.959 . S
H514 C529 0.959 . S
H515 C529 0.961 1_556 S
H516 C530 0.960 1_556 S
H517 C530 0.961 . S
H518 C530 0.959 . S
H519 C533 0.929 . S
H520 C534 0.931 . S
H521 C536 0.930 . S
C522 H510 0.930 . S
C522 C523 1.399 . S
C522 C527 1.399 1_556 S
C523 C522 1.399 . S
C523 C524 1.376 . S
C524 H511 0.930 . S
C524 C523 1.376 . S
C524 C525 1.388 1_556 S
C525 H512 0.930 . S
C525 C524 1.388 1_554 S
C525 C526 1.390 . S
C526 C525 1.390 . S
C526 C527 1.394 . S
C526 C532 1.465 . S
C527 C522 1.399 1_554 S
C527 C526 1.394 . S
C527 C528 1.516 . S
C528 C527 1.516 . S
C528 C529 1.502 . S
C528 C530 1.561 . S
C528 C531 1.526 . S
C529 H513 0.959 . S
C529 H514 0.959 . S
C529 H515 0.961 1_554 S
C529 C528 1.502 . S
C530 H516 0.960 1_554 S
C530 H517 0.961 . S
C530 H518 0.959 . S
C530 C528 1.561 . S
C531 C528 1.526 . S
C531 C532 1.396 . S
C531 C536 1.390 . S
C532 C526 1.465 . S
C532 C531 1.396 . S
C532 C533 1.399 . S
C533 H519 0.929 . S
C533 C532 1.399 . S
C533 C534 1.385 . S
C534 H520 0.931 . S
C534 C533 1.385 . S
C534 C535 1.389 . S
C535 C534 1.389 . S
C535 C536 1.387 . S
C536 H521 0.930 . S
C536 C531 1.390 . S
C536 C535 1.387 . S
H537 C549 0.930 . S
H538 C551 0.930 . S
H539 C552 0.930 . S
H540 C556 0.959 . S
H541 C556 0.959 . S
H542 C556 0.961 . S
H543 C557 0.960 . S
H544 C557 0.961 . S
H545 C557 0.959 . S
H546 C560 0.929 . S
H547 C561 0.931 . S
H548 C563 0.930 . S
C549 H537 0.930 . S
C549 C550 1.399 . S
C549 C554 1.399 . S
C550 C549 1.399 . S
C550 C551 1.376 . S
C551 H538 0.930 . S
C551 C550 1.376 . S
C551 C552 1.388 . S
C552 H539 0.930 . S
C552 C551 1.388 . S
C552 C553 1.390 . S
C553 C552 1.390 . S
C553 C554 1.394 . S
C553 C559 1.465 . S
C554 C549 1.399 . S
C554 C553 1.394 . S
C554 C555 1.516 . S
C555 C554 1.516 . S
C555 C556 1.502 . S
C555 C557 1.561 . S
C555 C558 1.526 . S
C556 H540 0.959 . S
C556 H541 0.959 . S
C556 H542 0.961 . S
C556 C555 1.502 . S
C557 H543 0.960 . S
C557 H544 0.961 . S
C557 H545 0.959 . S
C557 C555 1.561 . S
C558 C555 1.526 . S
C558 C559 1.396 . S
C558 C563 1.390 . S
C559 C553 1.465 . S
C559 C558 1.396 . S
C559 C560 1.399 . S
C560 H546 0.929 . S
C560 C559 1.399 . S
C560 C561 1.385 . S
C561 H547 0.931 . S
C561 C560 1.385 . S
C561 C562 1.389 . S
C562 C561 1.389 . S
C562 C563 1.387 . S
C563 H548 0.930 . S
C563 C558 1.390 . S
C563 C562 1.387 . S
H564 C576 0.930 . S
H565 C578 0.930 . S
H566 C579 0.930 . S
H567 C583 0.959 . S
H568 C583 0.959 . S
H569 C583 0.961 . S
H570 C584 0.960 . S
H571 C584 0.961 . S
H572 C584 0.959 . S
H573 C587 0.929 . S
H574 C588 0.931 . S
H575 C590 0.930 . S
C576 H564 0.930 . S
C576 C577 1.399 . S
C576 C581 1.399 . S
C577 C576 1.399 . S
C577 C578 1.376 . S
C578 H565 0.930 . S
C578 C577 1.376 . S
C578 C579 1.388 . S
C579 H566 0.930 . S
C579 C578 1.388 . S
C579 C580 1.390 . S
C580 C579 1.390 . S
C580 C581 1.394 . S
C580 C586 1.465 . S
C581 C576 1.399 . S
C581 C580 1.394 . S
C581 C582 1.516 . S
C582 C581 1.516 . S
C582 C583 1.502 . S
C582 C584 1.561 . S
C582 C585 1.526 . S
C583 H567 0.959 . S
C583 H568 0.959 . S
C583 H569 0.961 . S
C583 C582 1.502 . S
C584 H570 0.960 . S
C584 H571 0.961 . S
C584 H572 0.959 . S
C584 C582 1.561 . S
C585 C582 1.526 . S
C585 C586 1.396 . S
C585 C590 1.390 . S
C586 C580 1.465 . S
C586 C585 1.396 . S
C586 C587 1.399 . S
C587 H573 0.929 . S
C587 C586 1.399 . S
C587 C588 1.385 . S
C588 H574 0.931 . S
C588 C587 1.385 . S
C588 C589 1.389 . S
C589 C588 1.389 . S
C589 C590 1.387 . S
C590 H575 0.930 . S
C590 C585 1.390 . S
C590 C589 1.387 . S
H591 C603 0.930 . S
H592 C605 0.930 . S
H593 C606 0.930 . S
H594 C610 0.959 . S
H595 C610 0.959 . S
H596 C610 0.961 . S
H597 C611 0.960 . S
H598 C611 0.961 . S
H599 C611 0.959 . S
H600 C614 0.929 . S
H601 C615 0.931 . S
H602 C617 0.930 . S
C603 H591 0.930 . S
C603 C604 1.399 . S
C603 C608 1.399 . S
C604 C603 1.399 . S
C604 C605 1.376 . S
C605 H592 0.930 . S
C605 C604 1.376 . S
C605 C606 1.388 . S
C606 H593 0.930 . S
C606 C605 1.388 . S
C606 C607 1.390 . S
C607 C606 1.390 . S
C607 C608 1.394 . S
C607 C613 1.465 . S
C608 C603 1.399 . S
C608 C607 1.394 . S
C608 C609 1.516 . S
C609 C608 1.516 . S
C609 C610 1.502 . S
C609 C611 1.561 . S
C609 C612 1.526 . S
C610 H594 0.959 . S
C610 H595 0.959 . S
C610 H596 0.961 . S
C610 C609 1.502 . S
C611 H597 0.960 . S
C611 H598 0.961 . S
C611 H599 0.959 . S
C611 C609 1.561 . S
C612 C609 1.526 . S
C612 C613 1.396 . S
C612 C617 1.390 . S
C613 C607 1.465 . S
C613 C612 1.396 . S
C613 C614 1.399 . S
C614 H600 0.929 . S
C614 C613 1.399 . S
C614 C615 1.385 . S
C615 H601 0.931 . S
C615 C614 1.385 . S
C615 C616 1.389 . S
C616 C615 1.389 . S
C616 C617 1.387 . S
C617 H602 0.930 . S
C617 C612 1.390 . S
C617 C616 1.387 . S
H618 C630 0.930 . S
H619 C632 0.930 . S
H620 C633 0.930 . S
H621 C637 0.959 . S
H622 C637 0.959 . S
H623 C637 0.961 1_554 S
H624 C638 0.960 . S
H625 C638 0.961 . S
H626 C638 0.959 . S
H627 C641 0.929 . S
H628 C642 0.931 . S
H629 C644 0.933 . S
C630 H618 0.930 . S
C630 C631 1.399 . S
C630 C635 1.399 . S
C631 C630 1.399 . S
C631 C632 1.376 . S
C632 H619 0.930 . S
C632 C631 1.376 . S
C632 C633 1.388 . S
C633 H620 0.930 . S
C633 C632 1.388 . S
C633 C634 1.390 . S
C634 C633 1.390 . S
C634 C635 1.394 . S
C634 C640 1.465 . S
C635 C630 1.399 . S
C635 C634 1.394 . S
C635 C636 1.516 . S
C636 C635 1.516 . S
C636 C637 1.502 1_554 S
C636 C638 1.561 . S
C636 C639 1.526 . S
C637 H621 0.959 . S
C637 H622 0.959 . S
C637 H623 0.961 1_556 S
C637 C636 1.502 1_556 S
C638 H624 0.960 . S
C638 H625 0.961 . S
C638 H626 0.959 . S
C638 C636 1.561 . S
C639 C636 1.526 . S
C639 C640 1.396 . S
C639 C644 1.387 1_554 S
C640 C634 1.465 . S
C640 C639 1.396 . S
C640 C641 1.399 . S
C641 H627 0.929 . S
C641 C640 1.399 . S
C641 C642 1.385 . S
C642 H628 0.931 . S
C642 C641 1.385 . S
C642 C643 1.389 . S
C643 C642 1.389 . S
C643 C644 1.386 1_554 S
C644 H629 0.933 . S
C644 C639 1.387 1_556 S
C644 C643 1.386 1_556 S
H645 C657 0.930 . S
H646 C659 0.930 . S
H647 C660 0.930 . S
H648 C664 0.959 . S
H649 C664 0.959 . S
H650 C664 0.961 . S
H651 C665 0.960 . S
H652 C665 0.961 . S
H653 C665 0.959 . S
H654 C668 0.929 . S
H655 C669 0.931 . S
H656 C671 0.930 . S
C657 H645 0.930 . S
C657 C658 1.399 . S
C657 C662 1.399 . S
C658 C657 1.399 . S
C658 C659 1.376 . S
C659 H646 0.930 . S
C659 C658 1.376 . S
C659 C660 1.388 . S
C660 H647 0.930 . S
C660 C659 1.388 . S
C660 C661 1.390 . S
C661 C660 1.390 . S
C661 C662 1.394 . S
C661 C667 1.465 . S
C662 C657 1.399 . S
C662 C661 1.394 . S
C662 C663 1.516 . S
C663 C662 1.516 . S
C663 C664 1.502 . S
C663 C665 1.561 . S
C663 C666 1.526 . S
C664 H648 0.959 . S
C664 H649 0.959 . S
C664 H650 0.961 . S
C664 C663 1.502 . S
C665 H651 0.960 . S
C665 H652 0.961 . S
C665 H653 0.959 . S
C665 C663 1.561 . S
C666 C663 1.526 . S
C666 C667 1.396 . S
C666 C671 1.390 . S
C667 C661 1.465 . S
C667 C666 1.396 . S
C667 C668 1.399 . S
C668 H654 0.929 . S
C668 C667 1.399 . S
C668 C669 1.385 . S
C669 H655 0.931 . S
C669 C668 1.385 . S
C669 C670 1.389 . S
C670 C669 1.389 . S
C670 C671 1.387 . S
C671 H656 0.930 . S
C671 C666 1.390 . S
C671 C670 1.387 . S
H672 C684 0.930 . S
H673 C686 0.930 . S
H674 C687 0.930 . S
H675 C691 0.959 . S
H676 C691 0.959 . S
H677 C691 0.961 . S
H678 C692 0.960 . S
H679 C692 0.961 . S
H680 C692 0.959 . S
H681 C695 0.929 . S
H682 C696 0.931 . S
H683 C698 0.930 . S
C684 H672 0.930 . S
C684 C685 1.399 . S
C684 C689 1.399 . S
C685 C684 1.399 . S
C685 C686 1.376 . S
C686 H673 0.930 . S
C686 C685 1.376 . S
C686 C687 1.388 . S
C687 H674 0.930 . S
C687 C686 1.388 . S
C687 C688 1.390 . S
C688 C687 1.390 . S
C688 C689 1.394 . S
C688 C694 1.465 . S
C689 C684 1.399 . S
C689 C688 1.394 . S
C689 C690 1.516 . S
C690 C689 1.516 . S
C690 C691 1.502 . S
C690 C692 1.561 . S
C690 C693 1.526 . S
C691 H675 0.959 . S
C691 H676 0.959 . S
C691 H677 0.961 . S
C691 C690 1.502 . S
C692 H678 0.960 . S
C692 H679 0.961 . S
C692 H680 0.959 . S
C692 C690 1.561 . S
C693 C690 1.526 . S
C693 C694 1.396 . S
C693 C698 1.390 . S
C694 C688 1.465 . S
C694 C693 1.396 . S
C694 C695 1.399 . S
C695 H681 0.929 . S
C695 C694 1.399 . S
C695 C696 1.385 . S
C696 H682 0.931 . S
C696 C695 1.385 . S
C696 C697 1.389 . S
C697 C696 1.389 . S
C697 C698 1.387 . S
C698 H683 0.930 . S
C698 C693 1.390 . S
C698 C697 1.387 . S
H699 C711 0.930 . S
H700 C713 0.930 . S
H701 C714 0.930 . S
H702 C718 0.959 . S
H703 C718 0.959 . S
H704 C718 0.961 . S
H705 C719 0.960 . S
H706 C719 0.961 . S
H707 C719 0.959 . S
H708 C722 0.929 . S
H709 C723 0.931 . S
H710 C725 0.930 . S
C711 H699 0.930 . S
C711 C712 1.399 . S
C711 C716 1.399 . S
C712 C711 1.399 . S
C712 C713 1.376 . S
C713 H700 0.930 . S
C713 C712 1.376 . S
C713 C714 1.388 . S
C714 H701 0.930 . S
C714 C713 1.388 . S
C714 C715 1.390 . S
C715 C714 1.390 . S
C715 C716 1.394 . S
C715 C721 1.465 . S
C716 C711 1.399 . S
C716 C715 1.394 . S
C716 C717 1.516 . S
C717 C716 1.516 . S
C717 C718 1.502 . S
C717 C719 1.561 . S
C717 C720 1.526 . S
C718 H702 0.959 . S
C718 H703 0.959 . S
C718 H704 0.961 . S
C718 C717 1.502 . S
C719 H705 0.960 . S
C719 H706 0.961 . S
C719 H707 0.959 . S
C719 C717 1.561 . S
C720 C717 1.526 . S
C720 C721 1.396 . S
C720 C725 1.390 . S
C721 C715 1.465 . S
C721 C720 1.396 . S
C721 C722 1.399 . S
C722 H708 0.929 . S
C722 C721 1.399 . S
C722 C723 1.385 . S
C723 H709 0.931 . S
C723 C722 1.385 . S
C723 C724 1.389 . S
C724 C723 1.389 . S
C724 C725 1.387 . S
C725 H710 0.930 . S
C725 C720 1.390 . S
C725 C724 1.387 . S
C253 C210 1.761 . S
C265 C10 1.766 . S
C280 C9 1.367 . S
C292 C49 1.435 . S
C307 C50 1.749 . S
C319 C90 1.778 . S
C334 C89 1.441 . S
C346 C129 1.405 . S
C361 C170 1.754 . S
C373 C130 1.773 . S
C388 C209 1.442 . S
C400 C169 1.389 . S
C415 C6 1.299 . S
C427 C15 1.293 . S
C442 C55 1.272 . S
C454 C46 1.289 . S
C469 C86 1.307 . S
C481 C95 1.256 . S
C496 C135 1.288 . S
C508 C126 1.303 . S
C523 C175 1.317 . S
C535 C166 1.248 . S
C550 C215 1.272 . S
C562 C206 1.317 . S
C577 C19 1.843 . S
C589 C178 1.847 . S
C604 C58 1.846 . S
C616 C219 1.835 . S
C631 C18 1.846 . S
C643 C99 1.844 1_554 S
C658 C59 1.826 . S
C670 C138 1.846 . S
C685 C179 1.841 . S
C697 C98 1.845 . S
C712 C139 1.837 . S
C724 C218 1.845 . S
