# Generated by pormake.
# Topology smd, (6)-cn, num edge types: 1
# Building blocks:
#     Node 0, Type 0, BuildingBlock: MIFKUJ_clean_sbu_0, # of connection points: 6
#     Node 1, Type 0, BuildingBlock: MIFKUJ_clean_sbu_0, # of connection points: 6
#     Node 2, Type 0, BuildingBlock: MIFKUJ_clean_sbu_0, # of connection points: 6
#     Node 3, Type 0, BuildingBlock: MIFKUJ_clean_sbu_0, # of connection points: 6
#     Node 4, Type 0, BuildingBlock: MIFKUJ_clean_sbu_0, # of connection points: 6
#     Node 5, Type 0, BuildingBlock: MIFKUJ_clean_sbu_0, # of connection points: 6
#     Node 6, Type 0, BuildingBlock: MIFKUJ_clean_sbu_0, # of connection points: 6
#     Node 7, Type 0, BuildingBlock: MIFKUJ_clean_sbu_0, # of connection points: 6
#     Node 8, Type 0, BuildingBlock: MIFKUJ_clean_sbu_0, # of connection points: 6
#     Node 9, Type 0, BuildingBlock: MIFKUJ_clean_sbu_0, # of connection points: 6
#     Node 10, Type 0, BuildingBlock: MIFKUJ_clean_sbu_0, # of connection points: 6
#     Node 11, Type 0, BuildingBlock: MIFKUJ_clean_sbu_0, # of connection points: 6
#     Node 12, Type 0, BuildingBlock: MIFKUJ_clean_sbu_0, # of connection points: 6
#     Node 13, Type 0, BuildingBlock: MIFKUJ_clean_sbu_0, # of connection points: 6
#     Node 14, Type 0, BuildingBlock: MIFKUJ_clean_sbu_0, # of connection points: 6
#     Node 15, Type 0, BuildingBlock: MIFKUJ_clean_sbu_0, # of connection points: 6
#     Node 16, Type 0, BuildingBlock: MIFKUJ_clean_sbu_0, # of connection points: 6
#     Node 17, Type 0, BuildingBlock: MIFKUJ_clean_sbu_0, # of connection points: 6
#     Edge 18, Type (0, 0), BuildingBlock: TEMPAE_clean_linker_10, # of connection points: 2
#     Edge 19, Type (0, 0), BuildingBlock: TEMPAE_clean_linker_10, # of connection points: 2
#     Edge 20, Type (0, 0), BuildingBlock: TEMPAE_clean_linker_10, # of connection points: 2
#     Edge 21, Type (0, 0), BuildingBlock: TEMPAE_clean_linker_10, # of connection points: 2
#     Edge 22, Type (0, 0), BuildingBlock: TEMPAE_clean_linker_10, # of connection points: 2
#     Edge 23, Type (0, 0), BuildingBlock: TEMPAE_clean_linker_10, # of connection points: 2
#     Edge 24, Type (0, 0), BuildingBlock: TEMPAE_clean_linker_10, # of connection points: 2
#     Edge 25, Type (0, 0), BuildingBlock: TEMPAE_clean_linker_10, # of connection points: 2
#     Edge 26, Type (0, 0), BuildingBlock: TEMPAE_clean_linker_10, # of connection points: 2
#     Edge 27, Type (0, 0), BuildingBlock: TEMPAE_clean_linker_10, # of connection points: 2
#     Edge 28, Type (0, 0), BuildingBlock: TEMPAE_clean_linker_10, # of connection points: 2
#     Edge 29, Type (0, 0), BuildingBlock: TEMPAE_clean_linker_10, # of connection points: 2
#     Edge 30, Type (0, 0), BuildingBlock: TEMPAE_clean_linker_10, # of connection points: 2
#     Edge 31, Type (0, 0), BuildingBlock: TEMPAE_clean_linker_10, # of connection points: 2
#     Edge 32, Type (0, 0), BuildingBlock: TEMPAE_clean_linker_10, # of connection points: 2
#     Edge 33, Type (0, 0), BuildingBlock: TEMPAE_clean_linker_10, # of connection points: 2
#     Edge 34, Type (0, 0), BuildingBlock: TEMPAE_clean_linker_10, # of connection points: 2
#     Edge 35, Type (0, 0), BuildingBlock: TEMPAE_clean_linker_10, # of connection points: 2
#     Edge 36, Type (0, 0), BuildingBlock: TEMPAE_clean_linker_10, # of connection points: 2
#     Edge 37, Type (0, 0), BuildingBlock: TEMPAE_clean_linker_10, # of connection points: 2
#     Edge 38, Type (0, 0), BuildingBlock: TEMPAE_clean_linker_10, # of connection points: 2
#     Edge 39, Type (0, 0), BuildingBlock: TEMPAE_clean_linker_10, # of connection points: 2
#     Edge 40, Type (0, 0), BuildingBlock: TEMPAE_clean_linker_10, # of connection points: 2
#     Edge 41, Type (0, 0), BuildingBlock: TEMPAE_clean_linker_10, # of connection points: 2
#     Edge 42, Type (0, 0), BuildingBlock: TEMPAE_clean_linker_10, # of connection points: 2
#     Edge 43, Type (0, 0), BuildingBlock: TEMPAE_clean_linker_10, # of connection points: 2
#     Edge 44, Type (0, 0), BuildingBlock: TEMPAE_clean_linker_10, # of connection points: 2
#     Edge 45, Type (0, 0), BuildingBlock: TEMPAE_clean_linker_10, # of connection points: 2
#     Edge 46, Type (0, 0), BuildingBlock: TEMPAE_clean_linker_10, # of connection points: 2
#     Edge 47, Type (0, 0), BuildingBlock: TEMPAE_clean_linker_10, # of connection points: 2
#     Edge 48, Type (0, 0), BuildingBlock: TEMPAE_clean_linker_10, # of connection points: 2
#     Edge 49, Type (0, 0), BuildingBlock: TEMPAE_clean_linker_10, # of connection points: 2
#     Edge 50, Type (0, 0), BuildingBlock: TEMPAE_clean_linker_10, # of connection points: 2
#     Edge 51, Type (0, 0), BuildingBlock: TEMPAE_clean_linker_10, # of connection points: 2
#     Edge 52, Type (0, 0), BuildingBlock: TEMPAE_clean_linker_10, # of connection points: 2
#     Edge 53, Type (0, 0), BuildingBlock: TEMPAE_clean_linker_10, # of connection points: 2
#     Edge 54, Type (0, 0), BuildingBlock: TEMPAE_clean_linker_10, # of connection points: 2
#     Edge 55, Type (0, 0), BuildingBlock: TEMPAE_clean_linker_10, # of connection points: 2
#     Edge 56, Type (0, 0), BuildingBlock: TEMPAE_clean_linker_10, # of connection points: 2
#     Edge 57, Type (0, 0), BuildingBlock: TEMPAE_clean_linker_10, # of connection points: 2
#     Edge 58, Type (0, 0), BuildingBlock: TEMPAE_clean_linker_10, # of connection points: 2
#     Edge 59, Type (0, 0), BuildingBlock: TEMPAE_clean_linker_10, # of connection points: 2
#     Edge 60, Type (0, 0), BuildingBlock: TEMPAE_clean_linker_10, # of connection points: 2
#     Edge 61, Type (0, 0), BuildingBlock: TEMPAE_clean_linker_10, # of connection points: 2
#     Edge 62, Type (0, 0), BuildingBlock: TEMPAE_clean_linker_10, # of connection points: 2
#     Edge 63, Type (0, 0), BuildingBlock: TEMPAE_clean_linker_10, # of connection points: 2
#     Edge 64, Type (0, 0), BuildingBlock: TEMPAE_clean_linker_10, # of connection points: 2
#     Edge 65, Type (0, 0), BuildingBlock: TEMPAE_clean_linker_10, # of connection points: 2
#     Edge 66, Type (0, 0), BuildingBlock: TEMPAE_clean_linker_10, # of connection points: 2
#     Edge 67, Type (0, 0), BuildingBlock: TEMPAE_clean_linker_10, # of connection points: 2
#     Edge 68, Type (0, 0), BuildingBlock: TEMPAE_clean_linker_10, # of connection points: 2
#     Edge 69, Type (0, 0), BuildingBlock: TEMPAE_clean_linker_10, # of connection points: 2
#     Edge 70, Type (0, 0), BuildingBlock: TEMPAE_clean_linker_10, # of connection points: 2
#     Edge 71, Type (0, 0), BuildingBlock: TEMPAE_clean_linker_10, # of connection points: 2
# Relax obj value: 0.198
# Max RMSD: 0.244
# Mean RMSD: 0.244
data_MOF--net-smd--node1-MIFKUJ_clean_sbu_0--edge1-TEMPAE_clean_linker_10
_symmetry_space_group_name_H-M    P1
_symmetry_Int_Tables_number       1
_symmetry_cell_setting            triclinic
loop_
_symmetry_equiv_pos_as_xyz
'x, y, z'
_cell_length_a     72.154337
_cell_length_b     72.159344
_cell_length_c     18.494727
_cell_angle_alpha  90.000402
_cell_angle_beta   90.0028
_cell_angle_gamma 120.00615
loop_
_atom_site_label
_atom_site_type_symbol
_atom_site_fract_x
_atom_site_fract_y
_atom_site_fract_z
_atom_type_partial_charge
Zn0 Zn 0.00491 0.23251 0.54366 0.0
Zn1 Zn 0.01025 0.21702 0.36243 0.0
C2 C 0.99595 0.26459 0.59299 0.0
O3 O 0.01656 0.27416 0.60683 0.0
C4 C 0.04077 0.20426 0.4015 0.0
O5 O 0.02652 0.18645 0.36998 0.0
O6 O 0.01743 0.23242 0.64162 0.0
O7 O 0.98378 0.20187 0.5146 0.0
O8 O 0.98439 0.19151 0.40233 0.0
C9 C 0.01455 0.21563 0.67405 0.0
O10 O 0.0046 0.19716 0.64021 0.0
O11 O 0.98695 0.24613 0.56408 0.0
C12 C 0.02768 0.21998 0.21742 0.0
O13 O 0.04623 0.23048 0.25051 0.0
O14 O 0.01055 0.21252 0.25437 0.0
O15 O 0.01044 0.24475 0.37262 0.0
O16 O 0.02814 0.25339 0.47551 0.0
O17 O 0.03707 0.21969 0.40629 0.0
C18 C 0.97632 0.18765 0.46533 0.0
C19 C 0.02313 0.25892 0.41666 0.0
Zn20 Zn 0.79256 0.7883 0.53718 0.0
Zn21 Zn 0.8081 0.81132 0.36201 0.0
C22 C 0.76029 0.74746 0.58786 0.0
O23 O 0.75109 0.75877 0.60303 0.0
C24 C 0.82047 0.8537 0.40624 0.0
O25 O 0.8379 0.85736 0.37175 0.0
O26 O 0.79435 0.80158 0.63493 0.0
O27 O 0.82294 0.79749 0.50598 0.0
O28 O 0.83398 0.81083 0.39654 0.0
C29 C 0.80223 0.79512 0.68371 0.0
O30 O 0.80916 0.78204 0.66537 0.0
O31 O 0.77852 0.75665 0.55735 0.0
C32 C 0.79575 0.81475 0.21841 0.0
O33 O 0.77738 0.80819 0.25139 0.0
O34 O 0.81197 0.81806 0.25547 0.0
O35 O 0.78092 0.78308 0.36884 0.0
O36 O 0.77129 0.79086 0.47192 0.0
O37 O 0.80512 0.83455 0.4115 0.0
C38 C 0.8374 0.80507 0.45755 0.0
C39 C 0.76632 0.78118 0.41148 0.0
Zn40 Zn 0.23637 0.02149 0.52943 0.0
Zn41 Zn 0.21477 0.0149 0.35431 0.0
C42 C 0.27804 0.02939 0.56941 0.0
O43 O 0.26758 0.00844 0.57506 0.0
C44 C 0.1721 0.98489 0.39791 0.0
O45 O 0.16825 0.99813 0.3608 0.0
O46 O 0.22329 0.01022 0.62737 0.0
O47 O 0.22761 0.04304 0.49896 0.0
O48 O 0.21566 0.04157 0.38784 0.0
C49 C 0.2301 0.02458 0.67607 0.0
O50 O 0.24342 0.04452 0.65756 0.0
O51 O 0.26806 0.03883 0.54897 0.0
C52 C 0.21131 0.99895 0.21079 0.0
O53 O 0.21808 0.98728 0.2436 0.0
O54 O 0.20798 0.01183 0.24788 0.0
O55 O 0.24265 0.0152 0.36227 0.0
O56 O 0.23305 0.99731 0.46434 0.0
O57 O 0.19133 0.98903 0.40463 0.0
C58 C 0.22074 0.05035 0.44963 0.0
C59 C 0.24354 0.00202 0.40549 0.0
Zn60 Zn 0.01194 0.81217 0.63483 0.0
Zn61 Zn 0.01909 0.79649 0.4595 0.0
C62 C 0.98142 0.82417 0.59358 0.0
O63 O 0.99462 0.84115 0.63126 0.0
C64 C 0.02708 0.764 0.40749 0.0
O65 O 0.00668 0.75533 0.39125 0.0
O66 O 0.00913 0.81612 0.74137 0.0
O67 O 0.01276 0.78486 0.62792 0.0
O68 O 0.99521 0.77545 0.52504 0.0
C69 C 0.99618 0.79994 0.77853 0.0
O70 O 0.98433 0.78155 0.74571 0.0
O71 O 0.98578 0.80928 0.58529 0.0
C72 C 0.02202 0.80639 0.31331 0.0
O73 O 0.042 0.8132 0.3318 0.0
O74 O 0.00764 0.79846 0.36192 0.0
O75 O 0.04047 0.82681 0.4906 0.0
O76 O 0.03837 0.83795 0.60008 0.0
O77 O 0.03634 0.78208 0.43911 0.0
C78 C 1.00002 0.77035 0.58505 0.0
C79 C 0.04749 0.8413 0.53896 0.0
Zn80 Zn 0.21552 0.21899 0.62534 0.0
Zn81 Zn 0.23114 0.242 0.45098 0.0
C82 C 0.20315 0.17636 0.58334 0.0
O83 O 0.1858 0.17272 0.61835 0.0
C84 C 0.26357 0.28361 0.406 0.0
O85 O 0.27312 0.2727 0.3898 0.0
O86 O 0.21175 0.21275 0.73208 0.0
O87 O 0.24277 0.24712 0.61698 0.0
O88 O 0.25218 0.23856 0.51507 0.0
C89 C 0.22769 0.215 0.76857 0.0
O90 O 0.24564 0.2201 0.73489 0.0
O91 O 0.21841 0.19552 0.57712 0.0
C92 C 0.22277 0.2368 0.30278 0.0
O93 O 0.21618 0.25017 0.32092 0.0
O94 O 0.22993 0.22972 0.35191 0.0
O95 O 0.20041 0.23218 0.48036 0.0
O96 O 0.18959 0.21923 0.59033 0.0
O97 O 0.24512 0.27388 0.43496 0.0
C98 C 0.25714 0.24726 0.57717 0.0
C99 C 0.18597 0.22456 0.52886 0.0
Zn100 Zn 0.80768 0.01382 0.64209 0.0
Zn101 Zn 0.78694 0.00842 0.46007 0.0
C102 C 0.85086 0.04336 0.59777 0.0
O103 O 0.8542 0.02852 0.62559 0.0
C104 C 0.74635 0.99999 0.40729 0.0
O105 O 0.75766 0.02057 0.39326 0.0
O106 O 0.81247 0.01418 0.75019 0.0
O107 O 0.78028 0.01428 0.63179 0.0
O108 O 0.78922 0.03161 0.52816 0.0
C109 C 0.82336 0.03114 0.78708 0.0
O110 O 0.8329 0.04973 0.75393 0.0
O111 O 0.83195 0.0404 0.59741 0.0
C112 C 0.81336 0.01703 0.33004 0.0
O113 O 0.82054 0.00574 0.36301 0.0
O114 O 0.80027 0.02105 0.3629 0.0
O115 O 0.79577 0.98691 0.49068 0.0
O116 O 0.80687 0.98768 0.60287 0.0
O117 O 0.75547 0.99084 0.43756 0.0
C118 C 0.77857 0.02661 0.58676 0.0
C119 C 0.80236 0.97937 0.54024 0.0
Zn120 Zn 0.67208 0.56683 0.86974 0.0
Zn121 Zn 0.67908 0.55081 0.6945 0.0
C122 C 0.66387 0.5994 0.92035 0.0
O123 O 0.68436 0.60851 0.93563 0.0
C124 C 0.7096 0.53872 0.73519 0.0
O125 O 0.6964 0.5218 0.69723 0.0
O126 O 0.68349 0.56484 0.96741 0.0
O127 O 0.6506 0.53658 0.83854 0.0
O128 O 0.65248 0.52518 0.72929 0.0
C129 C 0.6691 0.55697 0.01602 0.0
O130 O 0.64914 0.55023 0.99752 0.0
O131 O 0.65474 0.58115 0.88994 0.0
C132 C 0.69486 0.56294 0.55082 0.0
O133 O 0.70682 0.5813 0.58373 0.0
O134 O 0.68183 0.5468 0.58795 0.0
O135 O 0.67844 0.57821 0.70107 0.0
O136 O 0.69594 0.58783 0.80406 0.0
O137 O 0.70522 0.55358 0.744 0.0
C138 C 0.64343 0.52202 0.79046 0.0
C139 C 0.69118 0.59281 0.7437 0.0
Zn140 Zn 0.45718 0.11692 0.89006 0.0
Zn141 Zn 0.4748 0.14991 0.70856 0.0
C142 C 0.44935 0.07284 0.9086 0.0
O143 O 0.46186 0.07671 0.85226 0.0
C144 C 0.48891 0.19435 0.73662 0.0
O145 O 0.50339 0.19739 0.68776 0.0
O146 O 0.45988 0.13453 0.9796 0.0
O147 O 0.48641 0.12596 0.84913 0.0
O148 O 0.49781 0.14433 0.74661 0.0
C149 C 0.47056 0.13146 0.02837 0.0
O150 O 0.47962 0.12011 0.01191 0.0
O151 O 0.446 0.08744 0.93216 0.0
C152 C 0.46498 0.15504 0.56207 0.0
O153 O 0.44712 0.15132 0.59357 0.0
O154 O 0.48009 0.15614 0.60081 0.0
O155 O 0.4445 0.12576 0.71287 0.0
O156 O 0.43312 0.11097 0.8211 0.0
O157 O 0.47561 0.17537 0.75627 0.0
C158 C 0.5007 0.13519 0.80079 0.0
C159 C 0.42964 0.11316 0.7551 0.0
Zn160 Zn 0.90291 0.35341 0.8671 0.0
Zn161 Zn 0.88016 0.34612 0.69091 0.0
C162 C 0.94301 0.3614 0.92369 0.0
O163 O 0.93123 0.34099 0.93971 0.0
C164 C 0.83742 0.31611 0.73143 0.0
O165 O 0.83408 0.3298 0.69495 0.0
O166 O 0.88892 0.3419 0.96391 0.0
O167 O 0.89448 0.37506 0.83464 0.0
O168 O 0.88121 0.3728 0.72515 0.0
C169 C 0.89515 0.35631 0.01239 0.0
O170 O 0.90827 0.3763 0.99393 0.0
O171 O 0.93442 0.37057 0.89015 0.0
C172 C 0.87654 0.33039 0.54705 0.0
O173 O 0.88301 0.31844 0.57962 0.0
O174 O 0.87345 0.3434 0.58439 0.0
O175 O 0.9081 0.34653 0.69791 0.0
O176 O 0.90041 0.32957 0.802 0.0
O177 O 0.85653 0.32001 0.7397 0.0
C178 C 0.88718 0.38212 0.78589 0.0
C179 C 0.91008 0.33407 0.74153 0.0
Zn180 Zn 0.67667 0.14259 0.95939 0.0
Zn181 Zn 0.68237 0.12719 0.77865 0.0
C182 C 0.64564 0.15456 0.92061 0.0
O183 O 0.65909 0.17188 0.9563 0.0
C184 C 0.69152 0.09561 0.72549 0.0
O185 O 0.67097 0.08619 0.71074 0.0
O186 O 0.67598 0.14704 0.06746 0.0
O187 O 0.67712 0.11522 0.94997 0.0
O188 O 0.65947 0.10583 0.84696 0.0
C189 C 0.65885 0.13912 0.10459 0.0
O190 O 0.64032 0.12811 0.07169 0.0
O191 O 0.64995 0.1396 0.9134 0.0
C192 C 0.67274 0.14414 0.64803 0.0
O193 O 0.68316 0.16273 0.68094 0.0
O194 O 0.66959 0.12735 0.68114 0.0
O195 O 0.70363 0.15779 0.80854 0.0
O196 O 0.70253 0.16814 0.92045 0.0
O197 O 0.70041 0.11379 0.75639 0.0
C198 C 0.66447 0.10075 0.90675 0.0
C199 C 0.71092 0.17198 0.85796 0.0
Zn200 Zn 0.88309 0.5512 0.96298 0.0
Zn201 Zn 0.89861 0.57448 0.78791 0.0
C202 C 0.8708 0.50879 0.91994 0.0
O203 O 0.85366 0.50519 0.95627 0.0
C204 C 0.93086 0.61539 0.73743 0.0
O205 O 0.9401 0.60412 0.72224 0.0
O206 O 0.87922 0.54441 0.06954 0.0
O207 O 0.91027 0.57944 0.95639 0.0
O208 O 0.92001 0.57198 0.85288 0.0
C209 C 0.89543 0.54772 0.10667 0.0
O210 O 0.91381 0.55427 0.07376 0.0
O211 O 0.88601 0.52796 0.91309 0.0
C212 C 0.88892 0.56766 0.64126 0.0
O213 O 0.882 0.58075 0.65949 0.0
O214 O 0.89679 0.56121 0.6901 0.0
O215 O 0.86822 0.56526 0.81941 0.0
O216 O 0.85724 0.55177 0.92871 0.0
O217 O 0.9126 0.60614 0.7678 0.0
C218 C 0.92492 0.58143 0.91375 0.0
C219 C 0.85379 0.55762 0.86792 0.0
Zn220 Zn 0.47207 0.35183 0.97274 0.0
Zn221 Zn 0.45194 0.34699 0.79008 0.0
C222 C 0.51481 0.38052 0.92596 0.0
O223 O 0.51762 0.36526 0.95303 0.0
C224 C 0.40772 0.31072 0.77164 0.0
O225 O 0.41401 0.29915 0.80768 0.0
O226 O 0.47677 0.35242 0.08116 0.0
O227 O 0.44436 0.35152 0.96174 0.0
O228 O 0.45284 0.36946 0.85922 0.0
C229 C 0.48853 0.36924 0.11774 0.0
O230 O 0.49926 0.38769 0.08418 0.0
O231 O 0.49618 0.37828 0.92721 0.0
C232 C 0.47815 0.35466 0.66053 0.0
O233 O 0.48265 0.34086 0.69043 0.0
O234 O 0.4668 0.3606 0.69539 0.0
O235 O 0.4605 0.32525 0.82179 0.0
O236 O 0.47167 0.32596 0.93392 0.0
O237 O 0.42092 0.33039 0.76003 0.0
C238 C 0.44274 0.36438 0.91898 0.0
C239 C 0.46712 0.3177 0.87126 0.0
Zn240 Zn 0.33746 0.89763 0.23182 0.0
Zn241 Zn 0.34374 0.88286 0.05775 0.0
C242 C 0.32907 0.93068 0.27588 0.0
O243 O 0.34918 0.93939 0.29599 0.0
C244 C 0.3747 0.87053 0.0914 0.0
O245 O 0.36145 0.85384 0.05263 0.0
O246 O 0.34799 0.89644 0.33142 0.0
O247 O 0.3161 0.86692 0.20378 0.0
O248 O 0.31754 0.85688 0.09197 0.0
C249 C 0.33363 0.88967 0.38006 0.0
O250 O 0.3138 0.88344 0.36119 0.0
O251 O 0.32027 0.9125 0.24495 0.0
C252 C 0.3595 0.89561 0.91444 0.0
O253 O 0.37232 0.91358 0.94811 0.0
O254 O 0.3459 0.87962 0.95084 0.0
O255 O 0.34356 0.91037 0.07003 0.0
O256 O 0.36264 0.91791 0.16901 0.0
O257 O 0.37015 0.88514 0.10327 0.0
C258 C 0.30894 0.85284 0.15406 0.0
C259 C 0.35883 0.92386 0.10889 0.0
Zn260 Zn 0.12358 0.45499 0.21503 0.0
Zn261 Zn 0.13899 0.4757 0.0334 0.0
C262 C 0.09234 0.41444 0.27043 0.0
O263 O 0.08292 0.42559 0.28486 0.0
C264 C 0.152 0.51854 0.07781 0.0
O265 O 0.17017 0.52195 0.04966 0.0
O266 O 0.12382 0.46828 0.31194 0.0
O267 O 0.15417 0.46455 0.18487 0.0
O268 O 0.16463 0.47564 0.07276 0.0
C269 C 0.14075 0.48164 0.3451 0.0
O270 O 0.15932 0.48925 0.31246 0.0
O271 O 0.11041 0.42364 0.23874 0.0
C272 C 0.13637 0.49075 0.88848 0.0
O273 O 0.12646 0.49939 0.92184 0.0
O274 O 0.14335 0.48061 0.92524 0.0
O275 O 0.11161 0.44788 0.04361 0.0
O276 O 0.10209 0.45616 0.14639 0.0
O277 O 0.13611 0.4996 0.0783 0.0
C278 C 0.16844 0.47139 0.13575 0.0
C279 C 0.09709 0.44607 0.08661 0.0
Zn280 Zn 0.57126 0.68808 0.20007 0.0
Zn281 Zn 0.54843 0.68075 0.02468 0.0
C282 C 0.61183 0.69637 0.25289 0.0
O283 O 0.60038 0.67586 0.26789 0.0
C284 C 0.50632 0.65205 0.07555 0.0
O285 O 0.50279 0.66612 0.04258 0.0
O286 O 0.55756 0.67655 0.29739 0.0
O287 O 0.56251 0.70952 0.16784 0.0
O288 O 0.54956 0.70752 0.05794 0.0
C289 C 0.56385 0.69088 0.34615 0.0
O290 O 0.57696 0.71089 0.32794 0.0
O291 O 0.60284 0.70552 0.22175 0.0
C292 C 0.54467 0.66466 0.88092 0.0
O293 O 0.55166 0.65314 0.91346 0.0
O294 O 0.54121 0.67742 0.9183 0.0
O295 O 0.57651 0.68145 0.03105 0.0
O296 O 0.56889 0.66432 0.13477 0.0
O297 O 0.52526 0.6551 0.07687 0.0
C298 C 0.55527 0.71664 0.11905 0.0
C299 C 0.57855 0.66895 0.07427 0.0
Zn300 Zn 0.34399 0.48142 0.31638 0.0
Zn301 Zn 0.35043 0.46602 0.14028 0.0
C302 C 0.31353 0.49355 0.27386 0.0
O303 O 0.32667 0.51069 0.31098 0.0
C304 C 0.35844 0.43404 0.08299 0.0
O305 O 0.33809 0.42553 0.06628 0.0
O306 O 0.34097 0.4853 0.42283 0.0
O307 O 0.34444 0.45389 0.30898 0.0
O308 O 0.32681 0.44479 0.20615 0.0
C309 C 0.3281 0.46912 0.46014 0.0
O310 O 0.31648 0.45063 0.42761 0.0
O311 O 0.31797 0.4787 0.26641 0.0
C312 C 0.35324 0.47674 0.99525 0.0
O313 O 0.37323 0.48375 0.01395 0.0
O314 O 0.33879 0.4684 0.04355 0.0
O315 O 0.37213 0.49608 0.17219 0.0
O316 O 0.37068 0.50716 0.28236 0.0
O317 O 0.36757 0.45169 0.11719 0.0
C318 C 0.3317 0.43951 0.26567 0.0
C319 C 0.37955 0.51048 0.2208 0.0
Zn320 Zn 0.54988 0.88422 0.30442 0.0
Zn321 Zn 0.56427 0.90667 0.12816 0.0
C322 C 0.53749 0.8421 0.25734 0.0
O323 O 0.52011 0.83827 0.29254 0.0
C324 C 0.59562 0.94671 0.06959 0.0
O325 O 0.60452 0.93514 0.05423 0.0
O326 O 0.54618 0.87707 0.41082 0.0
O327 O 0.57689 0.91258 0.29731 0.0
O328 O 0.58634 0.90524 0.19291 0.0
C329 C 0.56247 0.88097 0.44855 0.0
O330 O 0.58112 0.88854 0.41651 0.0
O331 O 0.55284 0.86127 0.25287 0.0
C332 C 0.55318 0.89808 0.98327 0.0
O333 O 0.5457 0.9107 0.0016 0.0
O334 O 0.56189 0.89245 0.03176 0.0
O335 O 0.5341 0.89772 0.16163 0.0
O336 O 0.52386 0.88468 0.27183 0.0
O337 O 0.57791 0.93802 0.10349 0.0
C338 C 0.59141 0.91485 0.25352 0.0
C339 C 0.52001 0.89029 0.21127 0.0
Zn340 Zn 0.1391 0.6784 0.31585 0.0
Zn341 Zn 0.11923 0.67379 0.13351 0.0
C342 C 0.1824 0.70799 0.27383 0.0
O343 O 0.18558 0.69313 0.3023 0.0
C344 C 0.07898 0.66547 0.07773 0.0
O345 O 0.09035 0.68612 0.06493 0.0
O346 O 0.1437 0.67876 0.42412 0.0
O347 O 0.11173 0.67889 0.30473 0.0
O348 O 0.12092 0.69669 0.20195 0.0
C349 C 0.15481 0.69574 0.46077 0.0
O350 O 0.16465 0.71427 0.42736 0.0
O351 O 0.1635 0.70501 0.2719 0.0
C352 C 0.1456 0.68213 0.00376 0.0
O353 O 0.15197 0.67005 0.03583 0.0
O354 O 0.13304 0.68678 0.0372 0.0
O355 O 0.12791 0.65218 0.16423 0.0
O356 O 0.13841 0.65231 0.27678 0.0
O357 O 0.08792 0.65622 0.10861 0.0
C358 C 0.11045 0.69175 0.26096 0.0
C359 C 0.13422 0.64434 0.21364 0.0
C360 C 0.06244 0.38181 0.32835 0.0
C361 C 0.08223 0.39167 0.29241 0.0
C362 C 0.05272 0.36033 0.35023 0.0
C363 C 0.06301 0.34839 0.33573 0.0
C364 C 0.08299 0.35825 0.29959 0.0
C365 C 0.09236 0.37976 0.27835 0.0
C366 C 0.0314 0.35038 0.38862 0.0
C367 C 0.09442 0.34602 0.2831 0.0
C368 C 0.04705 0.29789 0.44465 0.0
C369 C 0.03322 0.28185 0.39658 0.0
C370 C 0.05679 0.31962 0.42573 0.0
C371 C 0.05266 0.32546 0.35706 0.0
C372 C 0.03865 0.30938 0.30846 0.0
C373 C 0.0291 0.2878 0.32881 0.0
C374 C 0.07156 0.33633 0.47914 0.0
C375 C 0.03382 0.31497 0.23478 0.0
H376 H 0.05449 0.39087 0.33952 0.0
H377 H 0.10765 0.38725 0.25071 0.0
H378 H 0.01921 0.33662 0.35686 0.0
H379 H 0.03263 0.34409 0.44208 0.0
H380 H 0.02568 0.36194 0.39693 0.0
H381 H 0.10999 0.35608 0.25544 0.0
H382 H 0.09736 0.33971 0.33387 0.0
H383 H 0.08424 0.33207 0.24815 0.0
H384 H 0.05031 0.29347 0.49715 0.0
H385 H 0.01844 0.27557 0.29123 0.0
H386 H 0.06563 0.34751 0.49154 0.0
H387 H 0.08775 0.34594 0.45522 0.0
H388 H 0.07296 0.32916 0.53055 0.0
H389 H 0.02683 0.32553 0.24054 0.0
H390 H 0.02251 0.30057 0.20343 0.0
H391 H 0.04884 0.32395 0.20331 0.0
C392 C 0.72709 0.76552 0.43586 0.0
C393 C 0.74361 0.76863 0.38858 0.0
C394 C 0.70556 0.75372 0.41439 0.0
C395 C 0.70044 0.7449 0.3439 0.0
C396 C 0.71703 0.74798 0.29596 0.0
C397 C 0.73838 0.75973 0.31893 0.0
C398 C 0.68829 0.75071 0.46711 0.0
C399 C 0.71222 0.73886 0.22032 0.0
C400 C 0.64447 0.69847 0.30828 0.0
C401 C 0.63462 0.70876 0.27482 0.0
C402 C 0.66588 0.71003 0.33108 0.0
C403 C 0.67772 0.73244 0.32018 0.0
C404 C 0.66791 0.74293 0.28616 0.0
C405 C 0.64648 0.73096 0.26383 0.0
C406 C 0.67581 0.69828 0.36697 0.0
C407 C 0.68004 0.7668 0.27357 0.0
H408 H 0.73096 0.77227 0.4898 0.0
H409 H 0.75101 0.76202 0.28194 0.0
H410 H 0.6787 0.75744 0.44413 0.0
H411 H 0.67721 0.7334 0.47649 0.0
H412 H 0.69493 0.75854 0.51999 0.0
H413 H 0.72698 0.74287 0.18947 0.0
H414 H 0.70199 0.72119 0.22265 0.0
H415 H 0.70317 0.74508 0.19023 0.0
H416 H 0.63545 0.68132 0.31695 0.0
H417 H 0.63899 0.73905 0.23814 0.0
H418 H 0.6815 0.70483 0.42193 0.0
H419 H 0.68997 0.70069 0.33567 0.0
H420 H 0.66442 0.68082 0.37158 0.0
H421 H 0.68575 0.77532 0.3259 0.0
H422 H 0.67011 0.77252 0.24633 0.0
H423 H 0.69438 0.77125 0.23982 0.0
C424 C 0.26712 0.99632 0.31978 0.0
C425 C 0.25599 0.9915 0.38566 0.0
C426 C 0.27902 0.98655 0.30027 0.0
C427 C 0.2799 0.97165 0.34787 0.0
C428 C 0.26871 0.9667 0.4144 0.0
C429 C 0.25683 0.97661 0.43237 0.0
C430 C 0.29069 0.99222 0.22877 0.0
C431 C 0.26932 0.95093 0.46667 0.0
C432 C 0.29503 0.93202 0.2722 0.0
C433 C 0.31661 0.94142 0.2924 0.0
C434 C 0.28292 0.94174 0.2896 0.0
C435 C 0.29261 0.96131 0.32819 0.0
C436 C 0.31441 0.97095 0.34832 0.0
C437 C 0.32616 0.96091 0.3301 0.0
C438 C 0.2597 0.93098 0.26716 0.0
C439 C 0.3253 0.99181 0.38958 0.0
H440 H 0.26654 0.00776 0.28321 0.0
H441 H 0.24822 0.9727 0.4832 0.0
H442 H 0.30811 0.9991 0.23802 0.0
H443 H 0.28521 0.97758 0.19558 0.0
H444 H 0.28816 0.00391 0.19749 0.0
H445 H 0.25971 0.9488 0.51612 0.0
H446 H 0.26313 0.93514 0.44006 0.0
H447 H 0.28609 0.95646 0.48299 0.0
H448 H 0.28752 0.91696 0.24311 0.0
H449 H 0.34282 0.96829 0.34602 0.0
H450 H 0.25689 0.94196 0.23289 0.0
H451 H 0.24938 0.92723 0.31567 0.0
H452 H 0.25463 0.91593 0.23666 0.0
H453 H 0.32434 0.00445 0.35846 0.0
H454 H 0.34241 0.9973 0.40079 0.0
H455 H 0.31699 0.99 0.4418 0.0
C456 C 0.31024 0.06381 0.60599 0.0
C457 C 0.30078 0.04187 0.59126 0.0
C458 C 0.33138 0.07554 0.63119 0.0
C459 C 0.34342 0.06513 0.64099 0.0
C460 C 0.33414 0.0431 0.62437 0.0
C461 C 0.31287 0.0317 0.60013 0.0
C462 C 0.34069 0.09898 0.64876 0.0
C463 C 0.34657 0.03151 0.63311 0.0
C464 C 0.40391 0.09976 0.6512 0.0
C465 C 0.40756 0.10067 0.72606 0.0
C466 C 0.38315 0.08813 0.62271 0.0
C467 C 0.36557 0.0772 0.67018 0.0
C468 C 0.36911 0.07797 0.74572 0.0
C469 C 0.39006 0.08962 0.77274 0.0
C470 C 0.38005 0.08754 0.54179 0.0
C471 C 0.35073 0.06662 0.79807 0.0
H472 H 0.30095 0.07174 0.59953 0.0
H473 H 0.30568 0.01477 0.5883 0.0
H474 H 0.34503 0.10176 0.7069 0.0
H475 H 0.35558 0.10871 0.61736 0.0
H476 H 0.32937 0.10478 0.63682 0.0
H477 H 0.33738 0.01463 0.61443 0.0
H478 H 0.36175 0.03985 0.60216 0.0
H479 H 0.35084 0.03163 0.6908 0.0
H480 H 0.41732 0.10803 0.61453 0.0
H481 H 0.3927 0.09023 0.83061 0.0
H482 H 0.36964 0.09426 0.52784 0.0
H483 H 0.37187 0.07073 0.52243 0.0
H484 H 0.39544 0.09672 0.51223 0.0
H485 H 0.33942 0.07272 0.79195 0.0
H486 H 0.35617 0.06879 0.85522 0.0
H487 H 0.34172 0.04924 0.78587 0.0
C488 C 0.92613 0.31099 0.7685 0.0
C489 C 0.92271 0.32389 0.7198 0.0
C490 C 0.93805 0.30128 0.7483 0.0
C491 C 0.94668 0.30447 0.67762 0.0
C492 C 0.94329 0.31746 0.62822 0.0
C493 C 0.93141 0.32706 0.64995 0.0
C494 C 0.94141 0.2876 0.80258 0.0
C495 C 0.9522 0.32123 0.55235 0.0
C496 C 0.9935 0.29537 0.6445 0.0
C497 C 0.98335 0.27491 0.61323 0.0
C498 C 0.98177 0.30518 0.66567 0.0
C499 C 0.95933 0.29427 0.65533 0.0
C500 C 0.94898 0.27368 0.62341 0.0
C501 C 0.96112 0.26424 0.60269 0.0
C502 C 0.99338 0.32719 0.69935 0.0
C503 C 0.92508 0.26157 0.61142 0.0
H504 H 0.91954 0.30851 0.82262 0.0
H505 H 0.92889 0.337 0.61187 0.0
H506 H 0.93482 0.27112 0.78118 0.0
H507 H 0.95878 0.29412 0.81173 0.0
H508 H 0.93367 0.28675 0.85537 0.0
H509 H 0.9479 0.33154 0.52024 0.0
H510 H 0.9699 0.32892 0.55427 0.0
H511 H 0.9461 0.30573 0.52382 0.0
H512 H 0.01067 0.30376 0.65276 0.0
H513 H 0.95313 0.24843 0.57862 0.0
H514 H 0.98695 0.32672 0.75423 0.0
H515 H 0.99069 0.33852 0.66668 0.0
H516 H 0.01089 0.33352 0.70368 0.0
H517 H 0.91665 0.25908 0.6638 0.0
H518 H 0.91948 0.24572 0.58572 0.0
H519 H 0.92038 0.27104 0.57651 0.0
C520 C 0.72975 0.7146 0.64218 0.0
C521 C 0.74996 0.72463 0.60908 0.0
C522 C 0.72 0.69316 0.66449 0.0
C523 C 0.7307 0.68146 0.65344 0.0
C524 C 0.75104 0.69144 0.61972 0.0
C525 C 0.76042 0.7129 0.59789 0.0
C526 C 0.69826 0.68304 0.70009 0.0
C527 C 0.76293 0.67946 0.60698 0.0
C528 C 0.7146 0.63202 0.76849 0.0
C529 C 0.70129 0.61552 0.72099 0.0
C530 C 0.72424 0.65357 0.74729 0.0
C531 C 0.72056 0.65872 0.67684 0.0
C532 C 0.70715 0.64215 0.62865 0.0
C533 C 0.69764 0.62078 0.65136 0.0
C534 C 0.73838 0.67081 0.80027 0.0
C535 C 0.70286 0.64699 0.55303 0.0
H536 H 0.72153 0.72352 0.651 0.0
H537 H 0.77605 0.72053 0.57247 0.0
H538 H 0.68662 0.66888 0.66856 0.0
H539 H 0.69912 0.67732 0.75501 0.0
H540 H 0.69207 0.69433 0.70475 0.0
H541 H 0.77859 0.6895 0.57989 0.0
H542 H 0.76576 0.67373 0.65924 0.0
H543 H 0.75313 0.66514 0.57304 0.0
H544 H 0.71747 0.62813 0.82241 0.0
H545 H 0.68738 0.60816 0.61419 0.0
H546 H 0.73203 0.68178 0.80979 0.0
H547 H 0.75471 0.68053 0.77746 0.0
H548 H 0.73959 0.66415 0.85307 0.0
H549 H 0.6953 0.65711 0.55544 0.0
H550 H 0.69223 0.63225 0.52195 0.0
H551 H 0.71815 0.65618 0.52315 0.0
C552 C 0.99353 0.74218 0.67664 0.0
C553 C 0.98993 0.74759 0.60718 0.0
C554 C 0.98401 0.72076 0.69881 0.0
C555 C 0.97065 0.70429 0.65025 0.0
C556 C 0.96702 0.7096 0.57995 0.0
C557 C 0.97667 0.73118 0.55929 0.0
C558 C 0.98824 0.71576 0.77428 0.0
C559 C 0.95292 0.69246 0.52656 0.0
C560 C 0.96141 0.64834 0.68359 0.0
C561 C 0.94118 0.63825 0.71655 0.0
C562 C 0.97118 0.66982 0.66173 0.0
C563 C 0.96047 0.68151 0.67309 0.0
C564 C 0.94011 0.67146 0.70665 0.0
C565 C 0.93071 0.64996 0.72802 0.0
C566 C 0.99295 0.68 0.62629 0.0
C567 C 0.92821 0.68342 0.71971 0.0
H568 H 0.00376 0.75472 0.7141 0.0
H569 H 0.97383 0.73519 0.50549 0.0
H570 H 0.97293 0.70652 0.804 0.0
H571 H 0.99579 0.70563 0.77158 0.0
H572 H 0.99886 0.73043 0.80568 0.0
H573 H 0.95177 0.69924 0.47393 0.0
H574 H 0.95928 0.68151 0.51677 0.0
H575 H 0.93657 0.6827 0.54916 0.0
H576 H 0.96964 0.63944 0.67455 0.0
H577 H 0.91507 0.64228 0.75334 0.0
H578 H 0.00457 0.69409 0.65814 0.0
H579 H 0.99213 0.68584 0.57153 0.0
H580 H 0.99913 0.66872 0.62128 0.0
H581 H 0.93798 0.69766 0.754 0.0
H582 H 0.91252 0.67331 0.74657 0.0
H583 H 0.92543 0.68926 0.66761 0.0
C584 C 0.29526 0.25598 0.56331 0.0
C585 C 0.27924 0.25628 0.60541 0.0
C586 C 0.31618 0.26436 0.58996 0.0
C587 C 0.3212 0.27324 0.66039 0.0
C588 C 0.30509 0.27351 0.70325 0.0
C589 C 0.28436 0.26513 0.67516 0.0
C590 C 0.33295 0.26381 0.54263 0.0
C591 C 0.30977 0.28279 0.77868 0.0
C592 C 0.37077 0.27927 0.75489 0.0
C593 C 0.38554 0.30101 0.74352 0.0
C594 C 0.34978 0.26998 0.72795 0.0
C595 C 0.34342 0.28273 0.6887 0.0
C596 C 0.35824 0.30466 0.67705 0.0
C597 C 0.37909 0.31353 0.70457 0.0
C598 C 0.3344 0.24653 0.74155 0.0
C599 C 0.35206 0.3188 0.63559 0.0
H600 H 0.29148 0.24921 0.50937 0.0
H601 H 0.27213 0.26549 0.70816 0.0
H602 H 0.34622 0.28033 0.5327 0.0
H603 H 0.33988 0.25505 0.57046 0.0
H604 H 0.32638 0.256 0.48967 0.0
H605 H 0.29528 0.28115 0.80584 0.0
H606 H 0.31635 0.27469 0.81227 0.0
H607 H 0.32207 0.30001 0.77648 0.0
H608 H 0.3756 0.26947 0.78486 0.0
H609 H 0.39036 0.33034 0.69544 0.0
H610 H 0.32848 0.23798 0.68936 0.0
H611 H 0.32026 0.24458 0.77189 0.0
H612 H 0.34186 0.23879 0.77271 0.0
H613 H 0.34657 0.31226 0.5805 0.0
H614 H 0.36553 0.33551 0.63068 0.0
H615 H 0.33852 0.31907 0.66297 0.0
C616 C 0.72619 0.09556 0.71904 0.0
C617 C 0.70417 0.08539 0.70472 0.0
C618 C 0.73835 0.08612 0.69884 0.0
C619 C 0.72825 0.06602 0.66348 0.0
C620 C 0.70603 0.05567 0.64878 0.0
C621 C 0.69426 0.06547 0.66963 0.0
C622 C 0.76201 0.09762 0.71553 0.0
C623 C 0.69469 0.03422 0.61121 0.0
C624 C 0.76312 0.05005 0.5567 0.0
C625 C 0.76544 0.03648 0.60564 0.0
C626 C 0.75093 0.05965 0.57455 0.0
C627 C 0.74087 0.05565 0.64304 0.0
C628 C 0.74301 0.04186 0.69245 0.0
C629 C 0.75523 0.03243 0.67314 0.0
C630 C 0.7489 0.07418 0.52028 0.0
C631 C 0.7325 0.03718 0.76597 0.0
H632 H 0.73399 0.11096 0.74604 0.0
H633 H 0.67725 0.05749 0.65828 0.0
H634 H 0.76576 0.08754 0.75102 0.0
H635 H 0.77129 0.10044 0.66489 0.0
H636 H 0.76748 0.11325 0.74267 0.0
H637 H 0.6774 0.02844 0.60278 0.0
H638 H 0.70221 0.03529 0.55788 0.0
H639 H 0.69628 0.02215 0.64361 0.0
H640 H 0.77089 0.05324 0.50438 0.0
H641 H 0.75687 0.02196 0.71136 0.0
H642 H 0.7555 0.09046 0.54343 0.0
H643 H 0.73179 0.06819 0.50791 0.0
H644 H 0.75743 0.07537 0.46895 0.0
H645 H 0.73851 0.05226 0.79703 0.0
H646 H 0.73556 0.02593 0.79787 0.0
H647 H 0.71495 0.03017 0.75992 0.0
C648 C 0.63059 0.93085 0.22746 0.0
C649 C 0.61418 0.92756 0.27558 0.0
C650 C 0.65218 0.94271 0.2482 0.0
C651 C 0.65749 0.95144 0.31879 0.0
C652 C 0.64102 0.94823 0.36751 0.0
C653 C 0.6196 0.93641 0.34527 0.0
C654 C 0.66931 0.94586 0.19465 0.0
C655 C 0.64603 0.95726 0.44326 0.0
C656 C 0.71171 0.96536 0.39646 0.0
C657 C 0.72351 0.98758 0.38586 0.0
C658 C 0.69022 0.9534 0.37478 0.0
C659 C 0.68028 0.9639 0.34183 0.0
C660 C 0.69205 0.98633 0.33135 0.0
C661 C 0.71352 0.99789 0.35348 0.0
C662 C 0.67816 0.9295 0.38696 0.0
C663 C 0.68198 0.99811 0.29661 0.0
H664 H 0.62658 0.92416 0.17345 0.0
H665 H 0.60707 0.93401 0.38287 0.0
H666 H 0.68035 0.9632 0.18557 0.0
H667 H 0.67898 0.9391 0.21669 0.0
H668 H 0.66253 0.93816 0.14173 0.0
H669 H 0.63136 0.9532 0.47469 0.0
H670 H 0.65517 0.95102 0.47263 0.0
H671 H 0.65624 0.97493 0.44112 0.0
H672 H 0.7193 0.95725 0.42138 0.0
H673 H 0.72249 0.01506 0.34517 0.0
H674 H 0.6723 0.92106 0.33457 0.0
H675 H 0.66392 0.92498 0.42134 0.0
H676 H 0.6882 0.92376 0.41333 0.0
H677 H 0.67613 0.99164 0.24168 0.0
H678 H 0.69334 0.01558 0.29217 0.0
H679 H 0.66791 0.99563 0.32863 0.0
C680 C 0.02879 0.73331 0.35166 0.0
C681 C 0.03919 0.75324 0.38662 0.0
C682 C 0.04009 0.72308 0.33011 0.0
C683 C 0.06233 0.73301 0.3439 0.0
C684 C 0.07292 0.75309 0.37932 0.0
C685 C 0.06122 0.76296 0.40028 0.0
C686 C 0.02824 0.70165 0.29257 0.0
C687 C 0.09662 0.76415 0.39503 0.0
C688 C 0.08814 0.69829 0.34976 0.0
C689 C 0.09794 0.70215 0.28156 0.0
C690 C 0.07647 0.70819 0.3706 0.0
C691 C 0.07449 0.72226 0.32207 0.0
C692 C 0.08418 0.72611 0.25296 0.0
C693 C 0.09581 0.71603 0.23355 0.0
C694 C 0.06634 0.70365 0.44473 0.0
C695 C 0.08232 0.74094 0.19963 0.0
H696 H 0.01177 0.72566 0.34088 0.0
H697 H 0.0694 0.77837 0.42715 0.0
H698 H 0.0354 0.70261 0.23865 0.0
H699 H 0.02976 0.68943 0.32426 0.0
H700 H 0.01096 0.69616 0.28539 0.0
H701 H 0.10247 0.77976 0.42271 0.0
H702 H 0.10024 0.75379 0.42963 0.0
H703 H 0.10568 0.76691 0.34391 0.0
H704 H 0.08967 0.6876 0.38729 0.0
H705 H 0.10326 0.71906 0.1807 0.0
H706 H 0.04881 0.69696 0.43974 0.0
H707 H 0.07277 0.71875 0.47596 0.0
H708 H 0.06927 0.6922 0.47589 0.0
H709 H 0.06522 0.73528 0.18803 0.0
H710 H 0.09062 0.74208 0.14782 0.0
H711 H 0.08926 0.75721 0.22323 0.0
C712 C 0.30855 0.40045 0.23788 0.0
C713 C 0.32172 0.41665 0.28656 0.0
C714 C 0.29902 0.37877 0.25718 0.0
C715 C 0.30269 0.37314 0.32691 0.0
C716 C 0.31594 0.3894 0.37631 0.0
C717 C 0.32534 0.41093 0.35549 0.0
C718 C 0.28503 0.36188 0.20293 0.0
C719 C 0.32022 0.38404 0.45118 0.0
C720 C 0.26309 0.31809 0.40075 0.0
C721 C 0.27376 0.30665 0.38753 0.0
C722 C 0.27233 0.33975 0.38141 0.0
C723 C 0.29274 0.35023 0.34812 0.0
C724 C 0.30365 0.33882 0.33508 0.0
C725 C 0.29404 0.31718 0.35494 0.0
C726 C 0.26021 0.35139 0.3962 0.0
C727 C 0.32545 0.34946 0.29981 0.0
H728 H 0.30571 0.4047 0.18446 0.0
H729 H 0.33548 0.42331 0.39355 0.0
H730 H 0.29158 0.35115 0.1918 0.0
H731 H 0.26872 0.35183 0.22542 0.0
H732 H 0.28376 0.36891 0.151 0.0
H733 H 0.33069 0.39858 0.48346 0.0
H734 H 0.30491 0.37448 0.48063 0.0
H735 H 0.32796 0.37412 0.44735 0.0
H736 H 0.24741 0.31008 0.42579 0.0
H737 H 0.30241 0.3085 0.3445 0.0
H738 H 0.25731 0.35745 0.34478 0.0
H739 H 0.26987 0.36547 0.43128 0.0
H740 H 0.24456 0.34099 0.42291 0.0
H741 H 0.32458 0.35554 0.24556 0.0
H742 H 0.33186 0.33838 0.2937 0.0
H743 H 0.33693 0.36343 0.33242 0.0
C744 C 0.97779 0.3958 0.93535 0.0
C745 C 0.96563 0.37367 0.94742 0.0
C746 C 0.99908 0.40767 0.95911 0.0
C747 C 0.00846 0.39716 0.99569 0.0
C748 C 0.9963 0.37483 0.00796 0.0
C749 C 0.97503 0.36336 0.98369 0.0
C750 C 0.01156 0.43147 0.94501 0.0
C751 C 0.00577 0.36304 0.04656 0.0
C752 C 0.06906 0.42382 0.99541 0.0
C753 C 0.07435 0.43333 0.06417 0.0
C754 C 0.0477 0.41194 0.97266 0.0
C755 C 0.03116 0.40946 0.01977 0.0
C756 C 0.03633 0.41885 0.08944 0.0
C757 C 0.05787 0.43068 0.11083 0.0
C758 C 0.04283 0.40213 0.898 0.0
C759 C 0.0191 0.41648 0.14124 0.0
H760 H 0.97064 0.40392 0.90757 0.0
H761 H 0.96577 0.34627 0.99329 0.0
H762 H 0.01733 0.44026 0.99684 0.0
H763 H 0.02587 0.43547 0.9117 0.0
H764 H 0.00186 0.43727 0.91662 0.0
H765 H 0.9941 0.3457 0.05263 0.0
H766 H 0.01987 0.36488 0.01629 0.0
H767 H 0.01145 0.37002 0.10106 0.0
H768 H 0.08165 0.42573 0.9589 0.0
H769 H 0.06178 0.43789 0.16412 0.0
H770 H 0.03427 0.40853 0.86596 0.0
H771 H 0.03212 0.38455 0.90191 0.0
H772 H 0.05752 0.40538 0.86821 0.0
H773 H 0.00979 0.42334 0.11688 0.0
H774 H 0.02576 0.42458 0.19375 0.0
H775 H 0.00776 0.39929 0.15164 0.0
C776 C 0.66171 0.63012 0.97391 0.0
C777 C 0.65144 0.60984 0.9413 0.0
C778 C 0.6501 0.63998 0.99596 0.0
C779 C 0.62768 0.62931 0.98517 0.0
C780 C 0.61723 0.6089 0.95191 0.0
C781 C 0.62924 0.59942 0.93032 0.0
C782 C 0.66181 0.66179 0.03102 0.0
C783 C 0.59334 0.59704 0.93944 0.0
C784 C 0.59447 0.64567 0.09977 0.0
C785 C 0.59121 0.65887 0.05192 0.0
C786 C 0.60637 0.63601 0.07886 0.0
C787 C 0.61515 0.63955 0.00834 0.0
C788 C 0.61195 0.65286 0.95984 0.0
C789 C 0.60009 0.6624 0.98226 0.0
C790 C 0.60952 0.62197 0.13218 0.0
C791 C 0.62103 0.657 0.88415 0.0
H792 H 0.67886 0.63831 0.98254 0.0
H793 H 0.62117 0.58374 0.90528 0.0
H794 H 0.65929 0.67339 0.99924 0.0
H795 H 0.65531 0.66107 0.08598 0.0
H796 H 0.67929 0.66795 0.03549 0.0
H797 H 0.58767 0.58132 0.9127 0.0
H798 H 0.58485 0.59433 0.99177 0.0
H799 H 0.58883 0.6068 0.9053 0.0
H800 H 0.58774 0.6429 0.15373 0.0
H801 H 0.5977 0.67257 0.94484 0.0
H802 H 0.62685 0.6283 0.14144 0.0
H803 H 0.60283 0.60558 0.10982 0.0
H804 H 0.60174 0.62092 0.18505 0.0
H805 H 0.63871 0.66451 0.88642 0.0
H806 H 0.61695 0.66762 0.85288 0.0
H807 H 0.61484 0.64166 0.85455 0.0
C808 C 0.44125 0.03478 0.91685 0.0
C809 C 0.43794 0.05125 0.94183 0.0
C810 C 0.42951 0.01398 0.94538 0.0
C811 C 0.41402 0.00957 0.99977 0.0
C812 C 0.41095 0.02624 0.02627 0.0
C813 C 0.42299 0.04686 0.99722 0.0
C814 C 0.43334 0.99663 0.91628 0.0
C815 C 0.3945 0.02215 0.08391 0.0
C816 C 0.36738 0.95293 0.01909 0.0
C817 C 0.37312 0.94574 0.08104 0.0
C818 C 0.38067 0.97357 0.99169 0.0
C819 C 0.40027 0.98735 0.02678 0.0
C820 C 0.4063 0.98014 0.08885 0.0
C821 C 0.39259 0.95945 0.11552 0.0
C822 C 0.37358 0.98072 0.92569 0.0
C823 C 0.42719 0.99431 0.12724 0.0
H824 H 0.45282 0.03803 0.87431 0.0
H825 H 0.42033 0.05948 0.01705 0.0
H826 H 0.43682 0.98867 0.96132 0.0
H827 H 0.4187 0.98421 0.88879 0.0
H828 H 0.44683 0.00293 0.87721 0.0
H829 H 0.39463 0.03701 0.10055 0.0
H830 H 0.37829 0.01057 0.06355 0.0
H831 H 0.39744 0.01492 0.13234 0.0
H832 H 0.35236 0.94246 0.99215 0.0
H833 H 0.39721 0.95397 0.16317 0.0
H834 H 0.38577 0.98564 0.88236 0.0
H835 H 0.37203 0.99487 0.93922 0.0
H836 H 0.35801 0.96795 0.90418 0.0
H837 H 0.44072 0.99981 0.08872 0.0
H838 H 0.42993 0.98601 0.17305 0.0
H839 H 0.42734 0.00878 0.14832 0.0
C840 C 0.65863 0.07263 0.99762 0.0
C841 C 0.6544 0.07799 0.92898 0.0
C842 C 0.64912 0.05125 0.02014 0.0
C843 C 0.63503 0.03476 0.97293 0.0
C844 C 0.63078 0.03999 0.90341 0.0
C845 C 0.64052 0.06156 0.88224 0.0
C846 C 0.6541 0.04631 0.09464 0.0
C847 C 0.61589 0.02282 0.85151 0.0
C848 C 0.62534 0.97874 0.00847 0.0
C849 C 0.6057 0.96926 0.04522 0.0
C850 C 0.63498 0.99998 0.98404 0.0
C851 C 0.62472 0.01204 0.99666 0.0
C852 C 0.60487 0.00256 0.03355 0.0
C853 C 0.5956 0.98129 0.05744 0.0
C854 C 0.65619 0.00955 0.94508 0.0
C855 C 0.59346 0.01493 0.04801 0.0
H856 H 0.66934 0.08518 0.0342 0.0
H857 H 0.63721 0.06552 0.82906 0.0
H858 H 0.63914 0.03765 0.12666 0.0
H859 H 0.66104 0.03567 0.0904 0.0
H860 H 0.6655 0.06098 0.12464 0.0
H861 H 0.61438 0.02953 0.79924 0.0
H862 H 0.62178 0.01153 0.84062 0.0
H863 H 0.59976 0.01343 0.87603 0.0
H864 H 0.63326 0.96957 0.99871 0.0
H865 H 0.5804 0.97409 0.08559 0.0
H866 H 0.66847 0.0236 0.97549 0.0
H867 H 0.65481 0.01532 0.89084 0.0
H868 H 0.66188 0.99791 0.9384 0.0
H869 H 0.60371 0.02919 0.08162 0.0
H870 H 0.57795 0.00513 0.07627 0.0
H871 H 0.59043 0.02078 0.99635 0.0
C872 C 0.04657 0.66353 0.02094 0.0
C873 C 0.05632 0.65312 0.05434 0.0
C874 C 0.02525 0.65204 0.99719 0.0
C875 C 0.01338 0.62959 0.00706 0.0
C876 C 0.02309 0.61898 0.04086 0.0
C877 C 0.04444 0.63087 0.06415 0.0
C878 C 0.01543 0.66393 0.96155 0.0
C879 C 0.01093 0.59505 0.05238 0.0
C880 C 0.95273 0.60246 0.00715 0.0
C881 C 0.94759 0.59381 0.93714 0.0
C882 C 0.97404 0.61406 0.03061 0.0
C883 C 0.9907 0.61724 0.98282 0.0
C884 C 0.98568 0.60867 0.91198 0.0
C885 C 0.96418 0.59702 0.89001 0.0
C886 C 0.97874 0.62291 0.10662 0.0
C887 C 0.00302 0.6118 0.8594 0.0
H888 H 0.05561 0.68071 0.01316 0.0
H889 H 0.05184 0.62268 0.0898 0.0
H890 H 0.0098 0.65752 0.90642 0.0
H891 H 0.00126 0.6615 0.99278 0.0
H892 H 0.02687 0.68139 0.95741 0.0
H893 H 0.02082 0.58921 0.07922 0.0
H894 H 0.99655 0.5905 0.08607 0.0
H895 H 0.00527 0.58674 0.9997 0.0
H896 H 0.94005 0.60011 0.04402 0.0
H897 H 0.96038 0.59046 0.8358 0.0
H898 H 0.98896 0.64059 0.10498 0.0
H899 H 0.98774 0.61659 0.13641 0.0
H900 H 0.96393 0.61879 0.13735 0.0
H901 H 0.01414 0.62913 0.85064 0.0
H902 H 0.99645 0.60414 0.80624 0.0
H903 H 0.01254 0.60497 0.88217 0.0
C904 C 0.3927 0.43331 0.07372 0.0
C905 C 0.37072 0.42371 0.05929 0.0
C906 C 0.40459 0.4239 0.05004 0.0
C907 C 0.39424 0.40442 0.01103 0.0
C908 C 0.37206 0.39462 0.99638 0.0
C909 C 0.36057 0.40438 0.02071 0.0
C910 C 0.42822 0.43479 0.06683 0.0
C911 C 0.36046 0.37381 0.95509 0.0
C912 C 0.4283 0.38911 0.89643 0.0
C913 C 0.43019 0.37455 0.94177 0.0
C914 C 0.4166 0.39893 0.91816 0.0
C915 C 0.40655 0.39406 0.9868 0.0
C916 C 0.40831 0.37931 0.03262 0.0
C917 C 0.42008 0.36974 0.00958 0.0
C918 C 0.41503 0.41456 0.8678 0.0
C919 C 0.3978 0.37368 0.10618 0.0
H920 H 0.40069 0.44826 0.10336 0.0
H921 H 0.34359 0.39684 0.00926 0.0
H922 H 0.43172 0.42399 0.0994 0.0
H923 H 0.43753 0.4383 0.01594 0.0
H924 H 0.4339 0.44999 0.09707 0.0
H925 H 0.34322 0.3684 0.94743 0.0
H926 H 0.36793 0.37564 0.90119 0.0
H927 H 0.36184 0.36113 0.98428 0.0
H928 H 0.43599 0.39289 0.84391 0.0
H929 H 0.4214 0.3585 0.04507 0.0
H930 H 0.42177 0.43042 0.89431 0.0
H931 H 0.398 0.40903 0.85552 0.0
H932 H 0.42367 0.41654 0.8161 0.0
H933 H 0.40402 0.38831 0.13991 0.0
H934 H 0.40061 0.36182 0.13514 0.0
H935 H 0.38028 0.36702 0.10054 0.0
C936 C 0.07715 0.22626 0.45673 0.0
C937 C 0.06151 0.20689 0.4261 0.0
C938 C 0.09731 0.22936 0.47637 0.0
C939 C 0.10196 0.2127 0.46511 0.0
C940 C 0.08611 0.19297 0.43563 0.0
C941 C 0.06608 0.1903 0.41653 0.0
C942 C 0.11378 0.25061 0.50788 0.0
C943 C 0.09044 0.1748 0.42294 0.0
C944 C 0.16007 0.22709 0.44469 0.0
C945 C 0.16456 0.22184 0.51309 0.0
C946 C 0.13982 0.22431 0.42858 0.0
C947 C 0.12362 0.2161 0.48212 0.0
C948 C 0.12805 0.2109 0.55138 0.0
C949 C 0.14844 0.21381 0.56602 0.0
C950 C 0.13571 0.23003 0.35403 0.0
C951 C 0.1112 0.20214 0.60989 0.0
H952 H 0.07376 0.23917 0.46448 0.0
H953 H 0.05411 0.17527 0.39303 0.0
H954 H 0.11949 0.24814 0.56074 0.0
H955 H 0.12787 0.25843 0.4715 0.0
H956 H 0.10738 0.26163 0.51575 0.0
H957 H 0.07617 0.16023 0.40188 0.0
H958 H 0.1037 0.17982 0.38357 0.0
H959 H 0.09558 0.17066 0.47403 0.0
H960 H 0.17236 0.23329 0.40334 0.0
H961 H 0.15171 0.20971 0.61905 0.0
H962 H 0.13061 0.24216 0.35809 0.0
H963 H 0.12249 0.21568 0.32772 0.0
H964 H 0.15007 0.23644 0.31874 0.0
H965 H 0.10538 0.21349 0.62063 0.0
H966 H 0.11728 0.1992 0.66126 0.0
H967 H 0.09723 0.18688 0.59171 0.0
C968 C 0.81225 0.95196 0.57752 0.0
C969 C 0.80474 0.96049 0.52436 0.0
C970 C 0.81482 0.93428 0.56269 0.0
C971 C 0.80976 0.92489 0.49306 0.0
C972 C 0.80203 0.9333 0.43935 0.0
C973 C 0.79963 0.95098 0.4556 0.0
C974 C 0.82313 0.92577 0.62131 0.0
C975 C 0.79645 0.92372 0.36442 0.0
C976 C 0.83503 0.8929 0.42554 0.0
C977 C 0.81817 0.87178 0.4334 0.0
C978 C 0.83265 0.9103 0.44629 0.0
C979 C 0.81294 0.90653 0.4756 0.0
C980 C 0.79604 0.88525 0.48545 0.0
C981 C 0.79886 0.86812 0.46429 0.0
C982 C 0.85109 0.93276 0.4352 0.0
C983 C 0.7748 0.88059 0.51663 0.0
H984 H 0.81625 0.95916 0.63081 0.0
H985 H 0.79381 0.95739 0.41409 0.0
H986 H 0.81157 0.90859 0.63112 0.0
H987 H 0.83838 0.92695 0.60376 0.0
H988 H 0.82593 0.93461 0.67304 0.0
H989 H 0.79029 0.93191 0.32918 0.0
H990 H 0.81081 0.92476 0.33847 0.0
H991 H 0.78416 0.90651 0.36778 0.0
H992 H 0.85003 0.89589 0.40197 0.0
H993 H 0.78576 0.85186 0.4707 0.0
H994 H 0.85504 0.94183 0.48673 0.0
H995 H 0.84645 0.94132 0.39576 0.0
H996 H 0.86568 0.93296 0.41492 0.0
H997 H 0.77722 0.88868 0.56964 0.0
H998 H 0.76365 0.86317 0.52407 0.0
H999 H 0.76715 0.88703 0.4802 0.0
C1000 C 0.07663 0.86639 0.45545 0.0
C1001 C 0.06644 0.86249 0.52295 0.0
C1002 C 0.09418 0.88649 0.43853 0.0
C1003 C 0.10178 0.90316 0.49028 0.0
C1004 C 0.09178 0.89931 0.55881 0.0
C1005 C 0.07423 0.87903 0.57434 0.0
C1006 C 0.10442 0.88995 0.36483 0.0
C1007 C 0.09946 0.9167 0.61537 0.0
C1008 C 0.15816 0.94974 0.46173 0.0
C1009 C 0.15418 0.96464 0.42653 0.0
C1010 C 0.14125 0.92985 0.48442 0.0
C1011 C 0.11987 0.92475 0.47165 0.0
C1012 C 0.11575 0.93995 0.43803 0.0
C1013 C 0.13294 0.9597 0.41589 0.0
C1014 C 0.14629 0.91408 0.5203 0.0
C1015 C 0.09316 0.93513 0.42366 0.0
H1016 H 0.07079 0.85376 0.41534 0.0
H1017 H 0.06651 0.87621 0.62666 0.0
H1018 H 0.10312 0.90268 0.33562 0.0
H1019 H 0.12172 0.89544 0.37059 0.0
H1020 H 0.0969 0.8752 0.3313 0.0
H1021 H 0.09035 0.91096 0.66674 0.0
H1022 H 0.11667 0.92297 0.62693 0.0
H1023 H 0.09785 0.93027 0.59477 0.0
H1024 H 0.17452 0.95344 0.47038 0.0
H1025 H 0.1297 0.97112 0.38899 0.0
H1026 H 0.14054 0.89966 0.48581 0.0
H1027 H 0.13779 0.90878 0.5728 0.0
H1028 H 0.16371 0.92094 0.5299 0.0
H1029 H 0.08518 0.92148 0.38556 0.0
H1030 H 0.09265 0.94905 0.40025 0.0
H1031 H 0.08374 0.93034 0.47451 0.0
C1032 C 0.22459 0.16194 0.52396 0.0
C1033 C 0.20544 0.15826 0.55625 0.0
C1034 C 0.22739 0.14482 0.50252 0.0
C1035 C 0.21065 0.12353 0.51358 0.0
C1036 C 0.19109 0.11973 0.54439 0.0
C1037 C 0.18873 0.13713 0.56534 0.0
C1038 C 0.24847 0.14951 0.46973 0.0
C1039 C 0.17284 0.09726 0.5569 0.0
C1040 C 0.21076 0.0777 0.41221 0.0
C1041 C 0.21862 0.06942 0.465 0.0
C1042 C 0.20831 0.09547 0.4269 0.0
C1043 C 0.21386 0.10519 0.49599 0.0
C1044 C 0.222 0.09706 0.54922 0.0
C1045 C 0.22428 0.0793 0.53312 0.0
C1046 C 0.19958 0.1037 0.36876 0.0
C1047 C 0.22811 0.10698 0.62357 0.0
H1048 H 0.23758 0.17821 0.51659 0.0
H1049 H 0.17385 0.13412 0.59 0.0
H1050 H 0.25645 0.1433 0.5056 0.0
H1051 H 0.24573 0.14123 0.41696 0.0
H1052 H 0.25947 0.16692 0.46136 0.0
H1053 H 0.15834 0.09703 0.57831 0.0
H1054 H 0.16859 0.08803 0.50568 0.0
H1055 H 0.17782 0.08891 0.59596 0.0
H1056 H 0.20635 0.07022 0.3594 0.0
H1057 H 0.2304 0.07309 0.57433 0.0
H1058 H 0.21097 0.12088 0.35822 0.0
H1059 H 0.18436 0.10243 0.38724 0.0
H1060 H 0.19657 0.09472 0.31724 0.0
H1061 H 0.24027 0.12421 0.61907 0.0
H1062 H 0.23464 0.09904 0.65834 0.0
H1063 H 0.2139 0.10592 0.65074 0.0
C1064 C 0.8656 0.08011 0.54537 0.0
C1065 C 0.86906 0.06389 0.57213 0.0
C1066 C 0.88281 0.10008 0.52495 0.0
C1067 C 0.90401 0.10394 0.53143 0.0
C1068 C 0.90759 0.08749 0.55684 0.0
C1069 C 0.89008 0.06767 0.57685 0.0
C1070 C 0.87834 0.11721 0.49789 0.0
C1071 C 0.92996 0.09098 0.56436 0.0
C1072 C 0.94863 0.15044 0.42807 0.0
C1073 C 0.95774 0.16623 0.48191 0.0
C1074 C 0.9311 0.13012 0.4433 0.0
C1075 C 0.92248 0.12544 0.51406 0.0
C1076 C 0.93158 0.14127 0.56862 0.0
C1077 C 0.94907 0.16145 0.55192 0.0
C1078 C 0.92182 0.11365 0.38369 0.0
C1079 C 0.92287 0.13688 0.6448 0.0
H1080 H 0.84942 0.07733 0.54135 0.0
H1081 H 0.89293 0.05523 0.5973 0.0
H1082 H 0.8855 0.13108 0.53535 0.0
H1083 H 0.88588 0.12307 0.4442 0.0
H1084 H 0.86093 0.11137 0.49319 0.0
H1085 H 0.92999 0.07629 0.58224 0.0
H1086 H 0.93855 0.09626 0.51202 0.0
H1087 H 0.93909 0.10387 0.60425 0.0
H1088 H 0.95518 0.15393 0.37382 0.0
H1089 H 0.95596 0.17348 0.59401 0.0
H1090 H 0.90465 0.10845 0.37592 0.0
H1091 H 0.92274 0.09926 0.39894 0.0
H1092 H 0.93029 0.11984 0.33143 0.0
H1093 H 0.90575 0.1324 0.6444 0.0
H1094 H 0.93173 0.15092 0.68096 0.0
H1095 H 0.92378 0.12316 0.66781 0.0
C1096 C 0.94608 0.80293 0.53077 0.0
C1097 C 0.96102 0.82175 0.56615 0.0
C1098 C 0.9261 0.79992 0.50905 0.0
C1099 C 0.92095 0.81611 0.52298 0.0
C1100 C 0.93617 0.83536 0.55693 0.0
C1101 C 0.956 0.83795 0.57808 0.0
C1102 C 0.91031 0.77919 0.47283 0.0
C1103 C 0.93129 0.85303 0.57254 0.0
C1104 C 0.87515 0.81627 0.42175 0.0
C1105 C 0.85863 0.80736 0.4732 0.0
C1106 C 0.89544 0.81898 0.4368 0.0
C1107 C 0.89933 0.81262 0.50489 0.0
C1108 C 0.88269 0.8034 0.55671 0.0
C1109 C 0.86257 0.80089 0.54028 0.0
C1110 C 0.9128 0.82888 0.38019 0.0
C1111 C 0.8862 0.7964 0.62995 0.0
H1112 H 0.94983 0.79035 0.52118 0.0
H1113 H 0.96745 0.85257 0.60516 0.0
H1114 H 0.8959 0.77043 0.50738 0.0
H1115 H 0.90496 0.78249 0.4206 0.0
H1116 H 0.91716 0.76865 0.46262 0.0
H1117 H 0.9452 0.86739 0.59635 0.0
H1118 H 0.92648 0.85783 0.52212 0.0
H1119 H 0.91765 0.84719 0.61074 0.0
H1120 H 0.87229 0.82132 0.36975 0.0
H1121 H 0.84996 0.79396 0.58043 0.0
H1122 H 0.91907 0.81798 0.36785 0.0
H1123 H 0.92638 0.84399 0.40115 0.0
H1124 H 0.90703 0.83241 0.32919 0.0
H1125 H 0.89171 0.78463 0.62342 0.0
H1126 H 0.87146 0.78905 0.66355 0.0
H1127 H 0.89893 0.81035 0.65948 0.0
C1128 C 0.81613 0.54653 0.9045 0.0
C1129 C 0.83254 0.55537 0.85269 0.0
C1130 C 0.79582 0.54387 0.88991 0.0
C1131 C 0.79182 0.55019 0.82192 0.0
C1132 C 0.80837 0.55932 0.76973 0.0
C1133 C 0.82849 0.5618 0.78571 0.0
C1134 C 0.77858 0.53407 0.94692 0.0
C1135 C 0.80473 0.56627 0.69658 0.0
C1136 C 0.73499 0.52488 0.75011 0.0
C1137 C 0.73003 0.54111 0.7622 0.0
C1138 C 0.75486 0.52745 0.77075 0.0
C1139 C 0.77018 0.54673 0.80432 0.0
C1140 C 0.76509 0.56296 0.81842 0.0
C1141 C 0.74507 0.55996 0.79723 0.0
C1142 C 0.75965 0.50973 0.75502 0.0
C1143 C 0.78099 0.58371 0.85424 0.0
H1144 H 0.81906 0.54152 0.95644 0.0
H1145 H 0.84103 0.56866 0.74528 0.0
H1146 H 0.77237 0.54501 0.95941 0.0
H1147 H 0.76493 0.51895 0.92627 0.0
H1148 H 0.78443 0.53056 0.99779 0.0
H1149 H 0.8194 0.57356 0.66264 0.0
H1150 H 0.79192 0.5523 0.66733 0.0
H1151 H 0.79927 0.57807 0.70323 0.0
H1152 H 0.72347 0.51024 0.7233 0.0
H1153 H 0.74137 0.57257 0.80692 0.0
H1154 H 0.76455 0.50496 0.80532 0.0
H1155 H 0.77322 0.51552 0.7165 0.0
H1156 H 0.74568 0.49537 0.73152 0.0
H1157 H 0.78643 0.58045 0.90635 0.0
H1158 H 0.77419 0.59429 0.86461 0.0
H1159 H 0.79533 0.59241 0.81935 0.0
C1160 C 0.46202 0.28761 0.79052 0.0
C1161 C 0.47009 0.29923 0.85485 0.0
C1162 C 0.46516 0.27042 0.77356 0.0
C1163 C 0.47683 0.26482 0.82171 0.0
C1164 C 0.48498 0.27643 0.88677 0.0
C1165 C 0.48142 0.29342 0.90273 0.0
C1166 C 0.45605 0.25828 0.70395 0.0
C1167 C 0.49766 0.27106 0.93914 0.0
C1168 C 0.46912 0.2089 0.80571 0.0
C1169 C 0.48671 0.21256 0.76293 0.0
C1170 C 0.46587 0.2258 0.82607 0.0
C1171 C 0.48063 0.2469 0.8036 0.0
C1172 C 0.49873 0.25079 0.76217 0.0
C1173 C 0.50152 0.23357 0.74215 0.0
C1174 C 0.44633 0.221 0.87007 0.0
C1175 C 0.51494 0.27311 0.73779 0.0
H1176 H 0.45318 0.29192 0.7533 0.0
H1177 H 0.48783 0.30237 0.95237 0.0
H1178 H 0.46916 0.2595 0.66926 0.0
H1179 H 0.44522 0.24105 0.71568 0.0
H1180 H 0.44698 0.26437 0.67308 0.0
H1181 H 0.50282 0.28158 0.98756 0.0
H1182 H 0.48794 0.25419 0.95717 0.0
H1183 H 0.51209 0.27265 0.91188 0.0
H1184 H 0.45757 0.19272 0.82197 0.0
H1185 H 0.51518 0.23657 0.7093 0.0
H1186 H 0.436 0.22542 0.83877 0.0
H1187 H 0.45114 0.23073 0.92022 0.0
H1188 H 0.43674 0.20382 0.88514 0.0
H1189 H 0.50717 0.27942 0.70138 0.0
H1190 H 0.52864 0.27358 0.70871 0.0
H1191 H 0.52119 0.28401 0.78506 0.0
C1192 C 0.73955 0.1978 0.77419 0.0
C1193 C 0.72972 0.19333 0.84242 0.0
C1194 C 0.7573 0.21792 0.75865 0.0
C1195 C 0.76542 0.23403 0.81252 0.0
C1196 C 0.75564 0.22964 0.88151 0.0
C1197 C 0.73793 0.20936 0.89566 0.0
C1198 C 0.7673 0.22198 0.68439 0.0
C1199 C 0.76382 0.24643 0.94026 0.0
C1200 C 0.82245 0.27988 0.78845 0.0
C1201 C 0.81909 0.29566 0.75702 0.0
C1202 C 0.80513 0.25987 0.80801 0.0
C1203 C 0.78395 0.25556 0.79605 0.0
C1204 C 0.78046 0.27161 0.76613 0.0
C1205 C 0.79806 0.29145 0.74692 0.0
C1206 C 0.80949 0.24316 0.83985 0.0
C1207 C 0.75812 0.26767 0.75291 0.0
H1208 H 0.73338 0.18557 0.73263 0.0
H1209 H 0.73048 0.20612 0.94854 0.0
H1210 H 0.7665 0.23538 0.65805 0.0
H1211 H 0.78446 0.2268 0.68899 0.0
H1212 H 0.75925 0.20768 0.64886 0.0
H1213 H 0.75459 0.2404 0.99131 0.0
H1214 H 0.7809 0.25192 0.95166 0.0
H1215 H 0.7629 0.26059 0.92198 0.0
H1216 H 0.83864 0.28299 0.79651 0.0
H1217 H 0.79529 0.30356 0.7229 0.0
H1218 H 0.80317 0.22911 0.80326 0.0
H1219 H 0.80109 0.23745 0.89237 0.0
H1220 H 0.82685 0.24931 0.84846 0.0
H1221 H 0.74981 0.25454 0.71312 0.0
H1222 H 0.75812 0.28212 0.7321 0.0
H1223 H 0.74869 0.26253 0.80371 0.0
C1224 C 0.89184 0.49427 0.8583 0.0
C1225 C 0.87294 0.49065 0.8924 0.0
C1226 C 0.89455 0.47711 0.83659 0.0
C1227 C 0.87797 0.45584 0.84929 0.0
C1228 C 0.85865 0.4521 0.8819 0.0
C1229 C 0.85637 0.46953 0.90302 0.0
C1230 C 0.91536 0.48173 0.80177 0.0
C1231 C 0.84056 0.42965 0.89622 0.0
C1232 C 0.87716 0.40946 0.74867 0.0
C1233 C 0.88543 0.40141 0.80091 0.0
C1234 C 0.87494 0.42737 0.76319 0.0
C1235 C 0.88111 0.43747 0.83156 0.0
C1236 C 0.88972 0.42961 0.88415 0.0
C1237 C 0.89177 0.41171 0.86821 0.0
C1238 C 0.86573 0.4353 0.70574 0.0
C1239 C 0.89648 0.43994 0.95774 0.0
H1240 H 0.90472 0.51053 0.84971 0.0
H1241 H 0.84168 0.46656 0.92909 0.0
H1242 H 0.92372 0.47579 0.837 0.0
H1243 H 0.91221 0.47317 0.74942 0.0
H1244 H 0.9262 0.4991 0.79211 0.0
H1245 H 0.82621 0.42945 0.91898 0.0
H1246 H 0.83592 0.42019 0.84548 0.0
H1247 H 0.84592 0.42152 0.93485 0.0
H1248 H 0.87224 0.40166 0.69648 0.0
H1249 H 0.89821 0.4057 0.90897 0.0
H1250 H 0.87696 0.45245 0.69422 0.0
H1251 H 0.8506 0.43401 0.72544 0.0
H1252 H 0.86239 0.42613 0.65451 0.0
H1253 H 0.90854 0.45715 0.95184 0.0
H1254 H 0.90339 0.43224 0.9919 0.0
H1255 H 0.8825 0.43896 0.98634 0.0
C1256 C 0.55413 0.40389 0.90504 0.0
C1257 C 0.53332 0.40061 0.89913 0.0
C1258 C 0.57196 0.42333 0.88403 0.0
C1259 C 0.56892 0.43989 0.85615 0.0
C1260 C 0.54793 0.43649 0.84819 0.0
C1261 C 0.53037 0.41691 0.86989 0.0
C1262 C 0.5941 0.42636 0.89343 0.0
C1263 C 0.54403 0.45372 0.81827 0.0
C1264 C 0.61491 0.49691 0.87569 0.0
C1265 C 0.62417 0.50107 0.80654 0.0
C1266 C 0.59688 0.47712 0.89229 0.0
C1267 C 0.58777 0.46108 0.83843 0.0
C1268 C 0.59688 0.46518 0.76837 0.0
C1269 C 0.615 0.48511 0.75329 0.0
C1270 C 0.58767 0.47334 0.96775 0.0
C1271 C 0.58755 0.44848 0.70949 0.0
H1272 H 0.55657 0.39139 0.92743 0.0
H1273 H 0.51434 0.41448 0.86481 0.0
H1274 H 0.60292 0.43119 0.84141 0.0
H1275 H 0.60328 0.4394 0.93278 0.0
H1276 H 0.5937 0.4116 0.91299 0.0
H1277 H 0.52672 0.44815 0.8119 0.0
H1278 H 0.55116 0.46778 0.85491 0.0
H1279 H 0.55196 0.4592 0.76492 0.0
H1280 H 0.62185 0.50908 0.91731 0.0
H1281 H 0.62197 0.48816 0.69966 0.0
H1282 H 0.58811 0.45959 0.99274 0.0
H1283 H 0.57066 0.46919 0.96553 0.0
H1284 H 0.59652 0.48754 0.00323 0.0
H1285 H 0.58809 0.43399 0.72617 0.0
H1286 H 0.59625 0.45433 0.65744 0.0
H1287 H 0.57048 0.44356 0.70067 0.0
C1288 C 0.61084 0.13362 0.85434 0.0
C1289 C 0.62502 0.15183 0.89413 0.0
C1290 C 0.5907 0.13027 0.833 0.0
C1291 C 0.58455 0.14542 0.85229 0.0
C1292 C 0.59901 0.16408 0.89086 0.0
C1293 C 0.61908 0.16709 0.91109 0.0
C1294 C 0.5758 0.11026 0.7914 0.0
C1295 C 0.59303 0.18059 0.91267 0.0
C1296 C 0.53815 0.14673 0.75956 0.0
C1297 C 0.5217 0.13636 0.81064 0.0
C1298 C 0.55853 0.14925 0.77128 0.0
C1299 C 0.56261 0.14131 0.83576 0.0
C1300 C 0.54594 0.13032 0.88653 0.0
C1301 C 0.52571 0.12792 0.87328 0.0
C1302 C 0.57586 0.16089 0.7156 0.0
C1303 C 0.54965 0.12165 0.95603 0.0
H1304 H 0.61535 0.1218 0.84066 0.0
H1305 H 0.62992 0.18122 0.94172 0.0
H1306 H 0.56144 0.10002 0.82457 0.0
H1307 H 0.57021 0.11447 0.74144 0.0
H1308 H 0.58353 0.10081 0.7763 0.0
H1309 H 0.60642 0.19465 0.93983 0.0
H1310 H 0.58811 0.18624 0.86449 0.0
H1311 H 0.57916 0.17328 0.95009 0.0
H1312 H 0.53523 0.15323 0.71086 0.0
H1313 H 0.51316 0.11981 0.91307 0.0
H1314 H 0.58312 0.15107 0.70002 0.0
H1315 H 0.58879 0.17602 0.73899 0.0
H1316 H 0.56974 0.16477 0.66613 0.0
H1317 H 0.55605 0.11084 0.94418 0.0
H1318 H 0.53478 0.11271 0.98846 0.0
H1319 H 0.56176 0.13503 0.98931 0.0
C1320 C 0.49421 0.89434 0.13124 0.0
C1321 C 0.49865 0.88794 0.19761 0.0
C1322 C 0.47395 0.89173 0.11676 0.0
C1323 C 0.45768 0.88247 0.16984 0.0
C1324 C 0.46207 0.87618 0.2372 0.0
C1325 C 0.4825 0.87899 0.25031 0.0
C1326 C 0.46989 0.89869 0.04427 0.0
C1327 C 0.44512 0.86623 0.2951 0.0
C1328 C 0.41058 0.89191 0.15053 0.0
C1329 C 0.39539 0.87304 0.11598 0.0
C1330 C 0.4308 0.89505 0.1696 0.0
C1331 C 0.43591 0.87892 0.15394 0.0
C1332 C 0.42047 0.85963 0.12075 0.0
C1333 C 0.40041 0.85694 0.10212 0.0
C1334 C 0.44685 0.91582 0.20497 0.0
C1335 C 0.42529 0.84202 0.10345 0.0
H1336 H 0.50655 0.9013 0.09017 0.0
H1337 H 0.48573 0.87399 0.30177 0.0
H1338 H 0.45698 0.8847 0.0154 0.0
H1339 H 0.46438 0.91041 0.05197 0.0
H1340 H 0.48439 0.90606 0.00949 0.0
H1341 H 0.45125 0.86269 0.34524 0.0
H1342 H 0.43892 0.8771 0.30878 0.0
H1343 H 0.43141 0.85111 0.27474 0.0
H1344 H 0.40685 0.90444 0.16149 0.0
H1345 H 0.38876 0.84229 0.07566 0.0
H1346 H 0.46101 0.92454 0.16935 0.0
H1347 H 0.45255 0.91258 0.25655 0.0
H1348 H 0.44007 0.92638 0.21622 0.0
H1349 H 0.43867 0.84793 0.06412 0.0
H1350 H 0.41125 0.82766 0.08029 0.0
H1351 H 0.43048 0.83721 0.15301 0.0
C1352 C 0.13234 0.61673 0.12708 0.0
C1353 C 0.13664 0.62553 0.19693 0.0
C1354 C 0.13478 0.59911 0.11005 0.0
C1355 C 0.14167 0.59002 0.16412 0.0
C1356 C 0.14593 0.59871 0.23479 0.0
C1357 C 0.14339 0.61637 0.25035 0.0
C1358 C 0.1301 0.59031 0.03399 0.0
C1359 C 0.15329 0.58943 0.29386 0.0
C1360 C 0.13008 0.53317 0.13179 0.0
C1361 C 0.14969 0.53669 0.10402 0.0
C1362 C 0.12737 0.55035 0.15295 0.0
C1363 C 0.14465 0.57156 0.14615 0.0
C1364 C 0.16461 0.5752 0.11969 0.0
C1365 C 0.16689 0.55772 0.099 0.0
C1366 C 0.10586 0.54584 0.18114 0.0
C1367 C 0.18343 0.59758 0.11174 0.0
H1368 H 0.12712 0.62364 0.08534 0.0
H1369 H 0.14675 0.62302 0.30448 0.0
H1370 H 0.14464 0.59125 0.01003 0.0
H1371 H 0.1175 0.57318 0.03485 0.0
H1372 H 0.12471 0.59911 0.99836 0.0
H1373 H 0.15565 0.59784 0.34627 0.0
H1374 H 0.14139 0.57224 0.30159 0.0
H1375 H 0.1686 0.59043 0.27805 0.0
H1376 H 0.11672 0.51697 0.13607 0.0
H1377 H 0.18211 0.56061 0.07778 0.0
H1378 H 0.09897 0.55294 0.14424 0.0
H1379 H 0.10773 0.5534 0.23491 0.0
H1380 H 0.09434 0.52842 0.18611 0.0
H1381 H 0.17949 0.60669 0.07234 0.0
H1382 H 0.1981 0.59765 0.09302 0.0
H1383 H 0.18693 0.60617 0.16414 0.0
C1384 C 0.49176 0.61654 0.13759 0.0
C1385 C 0.48824 0.63217 0.10568 0.0
C1386 C 0.47456 0.59699 0.1614 0.0
C1387 C 0.45335 0.59295 0.15303 0.0
C1388 C 0.44974 0.60892 0.12293 0.0
C1389 C 0.46722 0.62832 0.0997 0.0
C1390 C 0.47905 0.58039 0.19352 0.0
C1391 C 0.42737 0.60524 0.11317 0.0
C1392 C 0.4082 0.53546 0.13574 0.0
C1393 C 0.39878 0.53146 0.2046 0.0
C1394 C 0.42608 0.5553 0.11867 0.0
C1395 C 0.43486 0.57161 0.17172 0.0
C1396 C 0.42563 0.56766 0.24158 0.0
C1397 C 0.40768 0.54764 0.25719 0.0
C1398 C 0.43544 0.55888 0.04347 0.0
C1399 C 0.43458 0.58466 0.29958 0.0
H1400 H 0.50795 0.6194 0.14271 0.0
H1401 H 0.46433 0.64031 0.07539 0.0
H1402 H 0.47103 0.575 0.24675 0.0
H1403 H 0.47243 0.56615 0.15775 0.0
H1404 H 0.49646 0.58653 0.20073 0.0
H1405 H 0.42734 0.6197 0.09268 0.0
H1406 H 0.41844 0.59195 0.07437 0.0
H1407 H 0.41857 0.60044 0.16524 0.0
H1408 H 0.40151 0.52311 0.09465 0.0
H1409 H 0.40057 0.54473 0.31058 0.0
H1410 H 0.45259 0.56356 0.04638 0.0
H1411 H 0.43454 0.57222 0.01704 0.0
H1412 H 0.42698 0.54442 0.00887 0.0
H1413 H 0.45176 0.59014 0.30849 0.0
H1414 H 0.42596 0.57886 0.35179 0.0
H1415 H 0.4335 0.59879 0.2819 0.0
C1416 C 0.55912 0.74571 0.20247 0.0
C1417 C 0.5533 0.73578 0.13446 0.0
C1418 C 0.5568 0.76343 0.21879 0.0
C1419 C 0.54849 0.77149 0.16588 0.0
C1420 C 0.54285 0.76176 0.09682 0.0
C1421 C 0.54531 0.74401 0.08193 0.0
C1422 C 0.56298 0.77336 0.29312 0.0
C1423 C 0.53397 0.76993 0.039 0.0
C1424 C 0.52313 0.80298 0.23717 0.0
C1425 C 0.53977 0.82417 0.22859 0.0
C1426 C 0.52557 0.78571 0.21524 0.0
C1427 C 0.54513 0.7897 0.1839 0.0
C1428 C 0.56176 0.81105 0.17307 0.0
C1429 C 0.55889 0.82804 0.19554 0.0
C1430 C 0.50743 0.76317 0.22753 0.0
C1431 C 0.58282 0.81593 0.13959 0.0
H1432 H 0.56533 0.73953 0.24347 0.0
H1433 H 0.5408 0.7365 0.0292 0.0
H1434 H 0.57503 0.79062 0.28855 0.0
H1435 H 0.54877 0.77216 0.32069 0.0
H1436 H 0.56969 0.76551 0.32756 0.0
H1437 H 0.53103 0.76105 0.9873 0.0
H1438 H 0.51867 0.76846 0.05765 0.0
H1439 H 0.54521 0.78715 0.02871 0.0
H1440 H 0.50827 0.79983 0.26238 0.0
H1441 H 0.57182 0.84436 0.18849 0.0
H1442 H 0.51251 0.75485 0.26636 0.0
H1443 H 0.50321 0.75399 0.1762 0.0
H1444 H 0.49288 0.76279 0.24915 0.0
H1445 H 0.59101 0.80989 0.17519 0.0
H1446 H 0.59365 0.83335 0.13097 0.0
H1447 H 0.58004 0.80761 0.08687 0.0
C1448 C 0.28087 0.82638 0.23799 0.0
C1449 C 0.29017 0.83141 0.16891 0.0
C1450 C 0.26321 0.80616 0.25298 0.0
C1451 C 0.25457 0.79054 0.19759 0.0
C1452 C 0.2638 0.7955 0.12771 0.0
C1453 C 0.28149 0.81585 0.11422 0.0
C1454 C 0.25383 0.80147 0.32826 0.0
C1455 C 0.25501 0.77928 0.06724 0.0
C1456 C 0.22177 0.73247 0.25679 0.0
C1457 C 0.20078 0.72865 0.24994 0.0
C1458 C 0.23941 0.75242 0.23875 0.0
C1459 C 0.23599 0.76897 0.21317 0.0
C1460 C 0.21484 0.76508 0.20455 0.0
C1461 C 0.19749 0.74497 0.22303 0.0
C1462 C 0.26172 0.75594 0.24853 0.0
C1463 C 0.21055 0.78229 0.17718 0.0
H1464 H 0.28742 0.83825 0.28068 0.0
H1465 H 0.28851 0.81954 0.06065 0.0
H1466 H 0.23671 0.79693 0.32612 0.0
H1467 H 0.25461 0.7877 0.3515 0.0
H1468 H 0.26234 0.81538 0.36516 0.0
H1469 H 0.26388 0.7857 0.01576 0.0
H1470 H 0.25585 0.76485 0.0825 0.0
H1471 H 0.2379 0.77408 0.05796 0.0
H1472 H 0.22448 0.71996 0.2774 0.0
H1473 H 0.18133 0.74217 0.21739 0.0
H1474 H 0.27048 0.76868 0.28926 0.0
H1475 H 0.27076 0.76144 0.19705 0.0
H1476 H 0.26164 0.74121 0.26647 0.0
H1477 H 0.21736 0.79599 0.21537 0.0
H1478 H 0.19318 0.77645 0.17082 0.0
H1479 H 0.21853 0.78841 0.12425 0.0
C1480 C 0.2779 0.47159 0.21371 0.0
C1481 C 0.29301 0.49084 0.24643 0.0
C1482 C 0.25779 0.46827 0.19233 0.0
C1483 C 0.25269 0.48462 0.20371 0.0
C1484 C 0.26808 0.50429 0.23486 0.0
C1485 C 0.28804 0.50716 0.25591 0.0
C1486 C 0.2418 0.44707 0.15925 0.0
C1487 C 0.26329 0.52215 0.24749 0.0
C1488 C 0.20627 0.48286 0.10045 0.0
C1489 C 0.18993 0.47447 0.15257 0.0
C1490 C 0.22675 0.48615 0.11615 0.0
C1491 C 0.23099 0.48087 0.18556 0.0
C1492 C 0.21456 0.47227 0.23825 0.0
C1493 C 0.19426 0.4692 0.22118 0.0
C1494 C 0.24389 0.49541 0.05866 0.0
C1495 C 0.21845 0.46641 0.31288 0.0
H1496 H 0.28161 0.4589 0.20609 0.0
H1497 H 0.29963 0.52211 0.2809 0.0
H1498 H 0.22755 0.43883 0.19476 0.0
H1499 H 0.23624 0.44966 0.10628 0.0
H1500 H 0.24857 0.43637 0.15118 0.0
H1501 H 0.27732 0.53682 0.2692 0.0
H1502 H 0.25819 0.52627 0.19626 0.0
H1503 H 0.24985 0.51682 0.28635 0.0
H1504 H 0.20314 0.48702 0.04731 0.0
H1505 H 0.18178 0.4627 0.26188 0.0
H1506 H 0.25006 0.48435 0.04791 0.0
H1507 H 0.25758 0.51072 0.07787 0.0
H1508 H 0.23794 0.49841 0.00708 0.0
H1509 H 0.22391 0.45455 0.3088 0.0
H1510 H 0.20389 0.4596 0.34732 0.0
H1511 H 0.23135 0.48079 0.34014 0.0
C1512 C 0.04528 0.22356 0.09723 0.0
C1513 C 0.02673 0.21802 0.13744 0.0
C1514 C 0.04477 0.22275 0.02126 0.0
C1515 C 0.02529 0.21652 0.98457 0.0
C1516 C 0.00646 0.21063 0.0249 0.0
C1517 C 0.00737 0.21133 0.10076 0.0
C1518 C 0.06512 0.22886 0.98023 0.0
C1519 C 0.98541 0.20407 0.98786 0.0
C1520 C 0.02585 0.23524 0.79207 0.0
C1521 C 0.01963 0.21647 0.7522 0.0
C1522 C 0.02829 0.23561 0.86748 0.0
C1523 C 0.02465 0.21683 0.90401 0.0
C1524 C 0.01927 0.1981 0.86379 0.0
C1525 C 0.01673 0.19812 0.78843 0.0
C1526 C 0.03394 0.25588 0.90836 0.0
C1527 C 0.01552 0.17784 0.90063 0.0
H1528 H 0.06028 0.22864 0.12511 0.0
H1529 H 0.99297 0.20708 0.1313 0.0
H1530 H 0.06258 0.21582 0.9426 0.0
H1531 H 0.06964 0.24331 0.94702 0.0
H1532 H 0.07867 0.23223 0.01677 0.0
H1533 H 0.97214 0.19956 0.02699 0.0
H1534 H 0.98691 0.21744 0.95393 0.0
H1535 H 0.9811 0.19029 0.95141 0.0
H1536 H 0.02811 0.24951 0.76471 0.0
H1537 H 0.01202 0.18357 0.75811 0.0
H1538 H 0.04821 0.26063 0.94282 0.0
H1539 H 0.02054 0.25304 0.94472 0.0
H1540 H 0.03728 0.2694 0.8717 0.0
H1541 H 0.02926 0.18123 0.93613 0.0
H1542 H 0.01317 0.16522 0.86128 0.0
H1543 H 0.00111 0.17155 0.9355 0.0
C1544 C 0.77816 0.80451 0.09741 0.0
C1545 C 0.79689 0.81575 0.13855 0.0
C1546 C 0.77908 0.80311 0.02197 0.0
C1547 C 0.79919 0.81355 0.98672 0.0
C1548 C 0.81805 0.82595 0.0276 0.0
C1549 C 0.8167 0.82671 0.10319 0.0
C1550 C 0.75863 0.78942 0.98055 0.0
C1551 C 0.83975 0.83765 0.99183 0.0
C1552 C 0.80449 0.7882 0.81432 0.0
C1553 C 0.80212 0.80061 0.76074 0.0
C1554 C 0.80359 0.79232 0.88785 0.0
C1555 C 0.80066 0.80956 0.90857 0.0
C1556 C 0.79869 0.82246 0.85483 0.0
C1557 C 0.79922 0.81769 0.78135 0.0
C1558 C 0.80541 0.77794 0.94338 0.0
C1559 C 0.79594 0.84121 0.87499 0.0
H1560 H 0.7628 0.79593 0.12444 0.0
H1561 H 0.8312 0.83559 0.13472 0.0
H1562 H 0.75732 0.79846 0.93428 0.0
H1563 H 0.75884 0.77526 0.95809 0.0
H1564 H 0.74419 0.78373 0.01509 0.0
H1565 H 0.85243 0.84867 0.02975 0.0
H1566 H 0.84412 0.8259 0.97125 0.0
H1567 H 0.83935 0.84699 0.9448 0.0
H1568 H 0.80658 0.77487 0.79885 0.0
H1569 H 0.79748 0.82738 0.74011 0.0
H1570 H 0.79083 0.77037 0.97764 0.0
H1571 H 0.81923 0.78749 0.97956 0.0
H1572 H 0.80747 0.7651 0.91821 0.0
H1573 H 0.78081 0.83552 0.90552 0.0
H1574 H 0.7956 0.85024 0.82683 0.0
H1575 H 0.80919 0.85229 0.91094 0.0
C1576 C 0.19917 0.00793 0.096 0.0
C1577 C 0.21007 0.99895 0.13098 0.0
C1578 C 0.19977 0.00999 0.02042 0.0
C1579 C 0.21192 0.00331 0.97915 0.0
C1580 C 0.22224 0.99347 0.01399 0.0
C1581 C 0.22102 0.99122 0.08946 0.0
C1582 C 0.1882 0.02018 0.98509 0.0
C1583 C 0.23565 0.98645 0.9721 0.0
C1584 C 0.20743 0.99921 0.77392 0.0
C1585 C 0.22466 0.01908 0.75314 0.0
C1586 C 0.20271 0.99395 0.84743 0.0
C1587 C 0.21581 0.00875 0.90101 0.0
C1588 C 0.23319 0.02883 0.88012 0.0
C1589 C 0.23726 0.0338 0.80657 0.0
C1590 C 0.18382 0.97256 0.8678 0.0
C1591 C 0.24778 0.04494 0.9355 0.0
H1592 H 0.19049 0.01373 0.12782 0.0
H1593 H 0.22953 0.98431 0.11617 0.0
H1594 H 0.20003 0.03627 0.96449 0.0
H1595 H 0.17873 0.01051 0.93812 0.0
H1596 H 0.17731 0.02196 0.0233 0.0
H1597 H 0.24119 0.97752 0.00633 0.0
H1598 H 0.22644 0.97617 0.92587 0.0
H1599 H 0.24989 0.00071 0.94955 0.0
H1600 H 0.19758 0.98782 0.73279 0.0
H1601 H 0.2507 0.04914 0.79095 0.0
H1602 H 0.17292 0.97491 0.90412 0.0
H1603 H 0.18938 0.96297 0.898 0.0
H1604 H 0.17462 0.96327 0.81976 0.0
H1605 H 0.23839 0.04935 0.97198 0.0
H1606 H 0.26067 0.05978 0.9102 0.0
H1607 H 0.25527 0.0378 0.96947 0.0
C1608 C 0.98879 0.78245 0.89971 0.0
C1609 C 0.9963 0.80115 0.85838 0.0
C1610 C 0.99108 0.78344 0.97516 0.0
C1611 C 0.00075 0.80357 0.01022 0.0
C1612 C 0.00724 0.8224 0.96915 0.0
C1613 C 0.00515 0.82099 0.89355 0.0
C1614 C 0.98431 0.76302 0.01679 0.0
C1615 C 0.01723 0.84412 0.00471 0.0
C1616 C 0.99655 0.80358 0.21555 0.0
C1617 C 0.01651 0.80642 0.23628 0.0
C1618 C 0.9913 0.80311 0.14205 0.0
C1619 C 0.0062 0.8051 0.0884 0.0
C1620 C 0.02636 0.80801 0.10922 0.0
C1621 C 0.03133 0.80884 0.18278 0.0
C1622 C 0.96982 0.8004 0.12178 0.0
C1623 C 0.04258 0.80983 0.05379 0.0
H1624 H 0.98199 0.76707 0.87284 0.0
H1625 H 0.01079 0.83547 0.86187 0.0
H1626 H 0.99866 0.76325 0.03945 0.0
H1627 H 0.97392 0.76174 0.06294 0.0
H1628 H 0.97557 0.74855 0.98236 0.0
H1629 H 0.01887 0.85677 0.96665 0.0
H1630 H 0.00749 0.84376 0.05171 0.0
H1631 H 0.03336 0.84853 0.02531 0.0
H1632 H 0.98509 0.8018 0.25673 0.0
H1633 H 0.04673 0.8109 0.19832 0.0
H1634 H 0.96035 0.78523 0.09149 0.0
H1635 H 0.97202 0.81361 0.08557 0.0
H1636 H 0.96048 0.80016 0.16987 0.0
H1637 H 0.0356 0.79524 0.01959 0.0
H1638 H 0.05748 0.81193 0.07903 0.0
H1639 H 0.04684 0.82364 0.01753 0.0
C1640 C 0.22141 0.24421 0.17201 0.0
C1641 C 0.22303 0.23139 0.22578 0.0
C1642 C 0.22221 0.23994 0.09855 0.0
C1643 C 0.22429 0.22216 0.07813 0.0
C1644 C 0.22563 0.20895 0.13207 0.0
C1645 C 0.2252 0.21385 0.20544 0.0
C1646 C 0.22108 0.25465 0.04277 0.0
C1647 C 0.22749 0.18965 0.11222 0.0
C1648 C 0.20715 0.2045 0.88461 0.0
C1649 C 0.22686 0.21453 0.84843 0.0
C1650 C 0.20614 0.20577 0.96013 0.0
C1651 C 0.22528 0.21776 1.00007 0.0
C1652 C 0.24526 0.2273 0.964 0.0
C1653 C 0.24582 0.22538 0.88865 0.0
C1654 C 0.18455 0.19504 0.99679 0.0
C1655 C 0.266 0.24055 0.00441 0.0
H1656 H 0.2199 0.25789 0.1873 0.0
H1657 H 0.22637 0.20385 0.24684 0.0
H1658 H 0.23555 0.26153 0.00801 0.0
H1659 H 0.20702 0.24549 0.00711 0.0
H1660 H 0.21985 0.268 0.06771 0.0
H1661 H 0.22774 0.18064 0.16056 0.0
H1662 H 0.21384 0.17872 0.0773 0.0
H1663 H 0.24233 0.19471 0.08068 0.0
H1664 H 0.19246 0.19593 0.85374 0.0
H1665 H 0.2611 0.23327 0.86091 0.0
H1666 H 0.18099 0.20737 0.01731 0.0
H1667 H 0.18462 0.18557 0.04398 0.0
H1668 H 0.17149 0.18429 0.95951 0.0
H1669 H 0.26651 0.2551 0.02646 0.0
H1670 H 0.28023 0.24559 0.96929 0.0
H1671 H 0.26707 0.23142 0.05091 0.0
C1672 C 0.83255 0.01817 0.21559 0.0
C1673 C 0.81798 0.02235 0.25216 0.0
C1674 C 0.83528 0.02086 0.14032 0.0
C1675 C 0.82302 0.0277 0.10053 0.0
C1676 C 0.80885 0.03267 0.13745 0.0
C1677 C 0.80659 0.03003 0.21277 0.0
C1678 C 0.85075 0.01566 0.10308 0.0
C1679 C 0.79541 0.03991 0.09704 0.0
C1680 C 0.83813 0.04819 0.90751 0.0
C1681 C 0.82413 0.03004 0.86709 0.0
C1682 C 0.8383 0.04757 0.98349 0.0
C1683 C 0.82397 0.02842 0.01997 0.0
C1684 C 0.81 0.00998 0.97943 0.0
C1685 C 0.81034 0.01098 0.90359 0.0
C1686 C 0.85363 0.06747 0.02476 0.0
C1687 C 0.79434 0.98929 0.01622 0.0
H1688 H 0.8415 0.01232 0.24553 0.0
H1689 H 0.79527 0.03329 0.24041 0.0
H1690 H 0.84178 0.00141 0.06799 0.0
H1691 H 0.86178 0.02912 0.06774 0.0
H1692 H 0.86039 0.0123 0.14218 0.0
H1693 H 0.78604 0.04425 0.13401 0.0
H1694 H 0.80571 0.05395 0.06266 0.0
H1695 H 0.78411 0.02693 0.06063 0.0
H1696 H 0.84892 0.06296 0.87979 0.0
H1697 H 0.79942 0.99689 0.87291 0.0
H1698 H 0.86348 0.0639 0.06208 0.0
H1699 H 0.84452 0.07293 0.05831 0.0
H1700 H 0.86447 0.08076 0.98837 0.0
H1701 H 0.803 0.98392 0.05237 0.0
H1702 H 0.7848 0.97631 0.97694 0.0
H1703 H 0.78319 0.99186 0.05044 0.0
C1704 C 0.65976 0.55446 0.14656 0.0
C1705 C 0.67458 0.55687 0.09305 0.0
C1706 C 0.6647 0.5552 0.22011 0.0
C1707 C 0.68482 0.55802 0.24094 0.0
C1708 C 0.69971 0.55999 0.18727 0.0
C1709 C 0.6945 0.55962 0.11377 0.0
C1710 C 0.64849 0.5534 0.27556 0.0
C1711 C 0.72116 0.5626 0.20754 0.0
C1712 C 0.70229 0.5805 0.42978 0.0
C1713 C 0.69471 0.56177 0.47096 0.0
C1714 C 0.69998 0.57958 0.35434 0.0
C1715 C 0.69024 0.55946 0.31912 0.0
C1716 C 0.68369 0.5406 0.36004 0.0
C1717 C 0.68578 0.54195 0.43565 0.0
C1718 C 0.70683 0.60004 0.31288 0.0
C1719 C 0.67363 0.5189 0.32431 0.0
H1720 H 0.64439 0.55248 0.13101 0.0
H1721 H 0.70596 0.56138 0.07259 0.0
H1722 H 0.64417 0.53955 0.31168 0.0
H1723 H 0.6555 0.56796 0.30989 0.0
H1724 H 0.63361 0.55138 0.25032 0.0
H1725 H 0.73049 0.56284 0.15943 0.0
H1726 H 0.73066 0.57774 0.23796 0.0
H1727 H 0.71889 0.54934 0.24362 0.0
H1728 H 0.70913 0.59588 0.45678 0.0
H1729 H 0.68009 0.52745 0.46722 0.0
H1730 H 0.69251 0.59988 0.29022 0.0
H1731 H 0.71722 0.60132 0.26675 0.0
H1732 H 0.71559 0.61447 0.34744 0.0
H1733 H 0.65752 0.51456 0.3037 0.0
H1734 H 0.67193 0.5062 0.36225 0.0
H1735 H 0.68336 0.51925 0.27729 0.0
C1736 C 0.44756 0.14422 0.44098 0.0
C1737 C 0.46632 0.15532 0.4821 0.0
C1738 C 0.44841 0.14236 0.36564 0.0
C1739 C 0.4685 0.15236 0.33015 0.0
C1740 C 0.48743 0.16459 0.37102 0.0
C1741 C 0.48615 0.16564 0.4467 0.0
C1742 C 0.42788 0.12864 0.32471 0.0
C1743 C 0.50911 0.17593 0.3351 0.0
C1744 C 0.47325 0.12581 0.15962 0.0
C1745 C 0.4706 0.13771 0.10476 0.0
C1746 C 0.47259 0.13047 0.23279 0.0
C1747 C 0.4698 0.14789 0.25207 0.0
C1748 C 0.46759 0.16034 0.19698 0.0
C1749 C 0.46768 0.15489 0.12378 0.0
C1750 C 0.47442 0.11637 0.28949 0.0
C1751 C 0.46515 0.17937 0.21542 0.0
H1752 H 0.43218 0.13609 0.46809 0.0
H1753 H 0.50067 0.17439 0.47823 0.0
H1754 H 0.42651 0.13763 0.27837 0.0
H1755 H 0.428 0.11442 0.30239 0.0
H1756 H 0.4135 0.12305 0.35951 0.0
H1757 H 0.52186 0.18708 0.37263 0.0
H1758 H 0.51335 0.164 0.31553 0.0
H1759 H 0.50878 0.18508 0.28737 0.0
H1760 H 0.47529 0.11236 0.14541 0.0
H1761 H 0.46572 0.16419 0.08154 0.0
H1762 H 0.46001 0.10926 0.32457 0.0
H1763 H 0.48846 0.12605 0.32467 0.0
H1764 H 0.47612 0.1032 0.2654 0.0
H1765 H 0.4501 0.17406 0.24601 0.0
H1766 H 0.46487 0.18815 0.16646 0.0
H1767 H 0.47853 0.19057 0.25078 0.0
C1768 C 0.87259 0.33078 0.11016 0.0
C1769 C 0.8896 0.35079 0.08941 0.0
C1770 C 0.86789 0.32549 0.18367 0.0
C1771 C 0.88081 0.34041 0.23729 0.0
C1772 C 0.89795 0.36063 0.21643 0.0
C1773 C 0.90199 0.36564 0.14288 0.0
C1774 C 0.84923 0.30395 0.204 0.0
C1775 C 0.91236 0.37687 0.27182 0.0
C1776 C 0.86416 0.33923 0.43251 0.0
C1777 C 0.87531 0.33049 0.46725 0.0
C1778 C 0.86467 0.3413 0.35693 0.0
C1779 C 0.87702 0.33492 0.31545 0.0
C1780 C 0.88765 0.32535 0.35009 0.0
C1781 C 0.88648 0.32306 0.42554 0.0
C1782 C 0.85276 0.35117 0.32182 0.0
C1783 C 0.90131 0.31869 0.308 0.0
H1784 H 0.86292 0.3193 0.06899 0.0
H1785 H 0.91527 0.38108 0.12731 0.0
H1786 H 0.85506 0.29451 0.23383 0.0
H1787 H 0.83824 0.30604 0.24065 0.0
H1788 H 0.84007 0.29462 0.15596 0.0
H1789 H 0.92507 0.39182 0.24654 0.0
H1790 H 0.9028 0.38102 0.30839 0.0
H1791 H 0.9201 0.36995 0.30569 0.0
H1792 H 0.85532 0.34481 0.46452 0.0
H1793 H 0.8952 0.31635 0.45211 0.0
H1794 H 0.84337 0.34142 0.27487 0.0
H1795 H 0.86438 0.36734 0.30124 0.0
H1796 H 0.84176 0.3527 0.36017 0.0
H1797 H 0.89217 0.3083 0.26191 0.0
H1798 H 0.90716 0.31001 0.34215 0.0
H1799 H 0.91536 0.3331 0.28524 0.0
C1800 C 0.64122 0.13512 0.22508 0.0
C1801 C 0.65983 0.1411 0.18461 0.0
C1802 C 0.64181 0.13598 0.30107 0.0
C1803 C 0.66141 0.14269 0.33754 0.0
C1804 C 0.68029 0.149 0.29694 0.0
C1805 C 0.6793 0.14827 0.22107 0.0
C1806 C 0.62139 0.12941 0.34236 0.0
C1807 C 0.70149 0.15607 0.33369 0.0
C1808 C 0.66993 0.16127 0.53358 0.0
C1809 C 0.66747 0.1431 0.56994 0.0
C1810 C 0.66722 0.16113 0.45825 0.0
C1811 C 0.66218 0.14247 0.41815 0.0
C1812 C 0.65901 0.12388 0.45483 0.0
C1813 C 0.66157 0.12438 0.53022 0.0
C1814 C 0.67041 0.18118 0.42131 0.0
C1815 C 0.65378 0.10369 0.41411 0.0
H1816 H 0.62613 0.12967 0.19738 0.0
H1817 H 0.69376 0.15285 0.19035 0.0
H1818 H 0.61726 0.11507 0.37564 0.0
H1819 H 0.62365 0.14236 0.37993 0.0
H1820 H 0.60771 0.12569 0.30599 0.0
H1821 H 0.71476 0.16082 0.29439 0.0
H1822 H 0.70554 0.16982 0.36998 0.0
H1823 H 0.70036 0.14288 0.36775 0.0
H1824 H 0.67439 0.17578 0.5638 0.0
H1825 H 0.65968 0.11026 0.55768 0.0
H1826 H 0.65654 0.17744 0.38599 0.0
H1827 H 0.6848 0.18776 0.38624 0.0
H1828 H 0.67249 0.19373 0.4606 0.0
H1829 H 0.63941 0.09859 0.37985 0.0
H1830 H 0.65082 0.09031 0.45086 0.0
H1831 H 0.66724 0.10683 0.37755 0.0
C1832 C 0.87447 0.53579 0.22189 0.0
C1833 C 0.89428 0.54677 0.18655 0.0
C1834 C 0.8731 0.53661 0.29747 0.0
C1835 C 0.89195 0.54907 0.33835 0.0
C1836 C 0.91206 0.55954 0.30312 0.0
C1837 C 0.913 0.55808 0.22769 0.0
C1838 C 0.85141 0.52488 0.33321 0.0
C1839 C 0.93249 0.5733 0.34451 0.0
C1840 C 0.88658 0.57447 0.51057 0.0
C1841 C 0.889 0.56212 0.56426 0.0
C1842 C 0.88747 0.57031 0.43707 0.0
C1843 C 0.89045 0.55309 0.41648 0.0
C1844 C 0.89248 0.54024 0.47033 0.0
C1845 C 0.89195 0.54505 0.54377 0.0
C1846 C 0.8856 0.58463 0.38142 0.0
C1847 C 0.89529 0.52152 0.45031 0.0
H1848 H 0.85997 0.52686 0.19036 0.0
H1849 H 0.92836 0.56667 0.20068 0.0
H1850 H 0.85183 0.51558 0.38033 0.0
H1851 H 0.84698 0.53661 0.35367 0.0
H1852 H 0.83873 0.51382 0.29532 0.0
H1853 H 0.94694 0.57902 0.30999 0.0
H1854 H 0.93223 0.58743 0.36691 0.0
H1855 H 0.93385 0.56429 0.39083 0.0
H1856 H 0.88445 0.58778 0.52593 0.0
H1857 H 0.89373 0.5354 0.58508 0.0
H1858 H 0.87179 0.57502 0.34525 0.0
H1859 H 0.90018 0.59222 0.34717 0.0
H1860 H 0.88349 0.59744 0.40648 0.0
H1861 H 0.88205 0.5104 0.41435 0.0
H1862 H 0.89563 0.51252 0.49854 0.0
H1863 H 0.91042 0.52723 0.41985 0.0
C1864 C 0.50423 0.38586 0.23795 0.0
C1865 C 0.48913 0.36821 0.19786 0.0
C1866 C 0.50443 0.38531 0.31397 0.0
C1867 C 0.48899 0.36677 0.35084 0.0
C1868 C 0.47381 0.34886 0.31063 0.0
C1869 C 0.47415 0.34975 0.23475 0.0
C1870 C 0.52105 0.40461 0.35484 0.0
C1871 C 0.45694 0.32885 0.34781 0.0
C1872 C 0.4965 0.35469 0.54539 0.0
C1873 C 0.48324 0.36043 0.58308 0.0
C1874 C 0.49927 0.35752 0.47017 0.0
C1875 C 0.48833 0.36609 0.43149 0.0
C1876 C 0.47561 0.37271 0.46959 0.0
C1877 C 0.47332 0.36993 0.54491 0.0
C1878 C 0.51324 0.35056 0.43176 0.0
C1879 C 0.46358 0.38181 0.43038 0.0
H1880 H 0.51592 0.40016 0.20993 0.0
H1881 H 0.46236 0.33606 0.20433 0.0
H1882 H 0.5131 0.41117 0.38931 0.0
H1883 H 0.53022 0.39992 0.39126 0.0
H1884 H 0.53244 0.41748 0.31816 0.0
H1885 H 0.44634 0.31629 0.30877 0.0
H1886 H 0.46464 0.32221 0.38307 0.0
H1887 H 0.44691 0.33278 0.38297 0.0
H1888 H 0.50434 0.34745 0.5744 0.0
H1889 H 0.46301 0.37439 0.57341 0.0
H1890 H 0.52486 0.36354 0.39608 0.0
H1891 H 0.50318 0.33655 0.3969 0.0
H1892 H 0.5222 0.34609 0.47014 0.0
H1893 H 0.47462 0.39538 0.39547 0.0
H1894 H 0.45548 0.38746 0.46819 0.0
H1895 H 0.4513 0.36939 0.39463 0.0
C1896 C 0.35872 0.89207 0.47818 0.0
C1897 C 0.33911 0.89006 0.45721 0.0
C1898 C 0.36397 0.89271 0.55167 0.0
C1899 C 0.34942 0.89172 0.60502 0.0
C1900 C 0.32967 0.88978 0.58398 0.0
C1901 C 0.32469 0.88878 0.51041 0.0
C1902 C 0.38501 0.89442 0.57226 0.0
C1903 C 0.31385 0.889 0.63921 0.0
C1904 C 0.34951 0.8749 0.79897 0.0
C1905 C 0.35926 0.89468 0.83468 0.0
C1906 C 0.34733 0.87376 0.72349 0.0
C1907 C 0.35469 0.89284 0.68311 0.0
C1908 C 0.36525 0.91289 0.71867 0.0
C1909 C 0.36759 0.91358 0.79407 0.0
C1910 C 0.33635 0.85209 0.68731 0.0
C1911 C 0.37301 0.93358 0.67764 0.0
H1912 H 0.36988 0.89298 0.43719 0.0
H1913 H 0.30958 0.88739 0.49456 0.0
H1914 H 0.39485 0.90931 0.60352 0.0
H1915 H 0.38212 0.88082 0.60768 0.0
H1916 H 0.3943 0.89448 0.52428 0.0
H1917 H 0.29937 0.88785 0.61377 0.0
H1918 H 0.30878 0.87502 0.67541 0.0
H1919 H 0.32153 0.90356 0.6735 0.0
H1920 H 0.34325 0.86026 0.83018 0.0
H1921 H 0.37509 0.92892 0.82148 0.0
H1922 H 0.3459 0.85195 0.64051 0.0
H1923 H 0.32054 0.84865 0.66632 0.0
H1924 H 0.33384 0.83906 0.72506 0.0
H1925 H 0.38313 0.93438 0.63125 0.0
H1926 H 0.38236 0.94785 0.7124 0.0
H1927 H 0.35908 0.93425 0.65537 0.0
C1928 C 0.13302 0.50494 0.76824 0.0
C1929 C 0.1382 0.49165 0.80843 0.0
C1930 C 0.13376 0.5052 0.69225 0.0
C1931 C 0.13958 0.49164 0.65548 0.0
C1932 C 0.14508 0.47839 0.69577 0.0
C1933 C 0.14445 0.47865 0.77165 0.0
C1934 C 0.12806 0.51975 0.65127 0.0
C1935 C 0.15119 0.46357 0.65868 0.0
C1936 C 0.12091 0.47382 0.46261 0.0
C1937 C 0.13983 0.48604 0.42308 0.0
C1938 C 0.12047 0.47591 0.53801 0.0
C1939 C 0.13933 0.49075 0.57487 0.0
C1940 C 0.15821 0.50382 0.53495 0.0
C1941 C 0.15827 0.50123 0.45961 0.0
C1942 C 0.10003 0.46159 0.57854 0.0
C1943 C 0.17857 0.52003 0.57209 0.0
H1944 H 0.12827 0.51512 0.79617 0.0
H1945 H 0.14842 0.46828 0.80214 0.0
H1946 H 0.14123 0.53013 0.61386 0.0
H1947 H 0.1136 0.51006 0.61784 0.0
H1948 H 0.12491 0.53008 0.68786 0.0
H1949 H 0.15535 0.45453 0.69778 0.0
H1950 H 0.13773 0.45195 0.62449 0.0
H1951 H 0.16509 0.47284 0.62248 0.0
H1952 H 0.10658 0.462 0.43501 0.0
H1953 H 0.17293 0.51081 0.42956 0.0
H1954 H 0.09557 0.4713 0.61313 0.0
H1955 H 0.10251 0.45075 0.61475 0.0
H1956 H 0.08647 0.45169 0.54165 0.0
H1957 H 0.17542 0.53054 0.60764 0.0
H1958 H 0.19133 0.53018 0.53293 0.0
H1959 H 0.18458 0.51166 0.60696 0.0
C1960 C 0.55479 0.65746 0.75944 0.0
C1961 C 0.54346 0.66475 0.80104 0.0
C1962 C 0.55603 0.65979 0.68398 0.0
C1963 C 0.54534 0.66926 0.64914 0.0
C1964 C 0.53284 0.67549 0.69049 0.0
C1965 C 0.53224 0.67338 0.76609 0.0
C1966 C 0.56984 0.65328 0.6421 0.0
C1967 C 0.52086 0.68526 0.65519 0.0
C1968 C 0.57046 0.70012 0.47683 0.0
C1969 C 0.55822 0.68528 0.42315 0.0
C1970 C 0.56631 0.69508 0.55034 0.0
C1971 C 0.54921 0.67481 0.57098 0.0
C1972 C 0.53644 0.65988 0.51714 0.0
C1973 C 0.54124 0.66522 0.44368 0.0
C1974 C 0.58056 0.71134 0.60595 0.0
C1975 C 0.51783 0.63828 0.53718 0.0
H1976 H 0.56356 0.65083 0.7861 0.0
H1977 H 0.52329 0.67886 0.79795 0.0
H1978 H 0.5608 0.64287 0.59589 0.0
H1979 H 0.58387 0.66774 0.61953 0.0
H1980 H 0.57573 0.64465 0.67634 0.0
H1981 H 0.50974 0.68667 0.69337 0.0
H1982 H 0.53242 0.70147 0.6348 0.0
H1983 H 0.51157 0.67551 0.60809 0.0
H1984 H 0.58371 0.71561 0.46147 0.0
H1985 H 0.53167 0.65373 0.40237 0.0
H1986 H 0.58834 0.7045 0.63998 0.0
H1987 H 0.57088 0.71538 0.64233 0.0
H1988 H 0.59324 0.72635 0.58086 0.0
H1989 H 0.52369 0.62889 0.56708 0.0
H1990 H 0.50876 0.62896 0.489 0.0
H1991 H 0.50674 0.64027 0.57367 0.0
C1992 C 0.32768 0.47344 0.89706 0.0
C1993 C 0.3478 0.4768 0.91815 0.0
C1994 C 0.32246 0.47283 0.82344 0.0
C1995 C 0.33758 0.47516 0.77008 0.0
C1996 C 0.35792 0.47864 0.79129 0.0
C1997 C 0.36283 0.47962 0.86493 0.0
C1998 C 0.30078 0.46952 0.80274 0.0
C1999 C 0.37438 0.48086 0.73619 0.0
C2000 C 0.32084 0.45194 0.58179 0.0
C2001 C 0.32803 0.47049 0.53992 0.0
C2002 C 0.32299 0.45314 0.6573 0.0
C2003 C 0.33215 0.47333 0.69182 0.0
C2004 C 0.33826 0.49198 0.65014 0.0
C2005 C 0.33636 0.49037 0.57452 0.0
C2006 C 0.31664 0.43292 0.69958 0.0
C2007 C 0.34768 0.51374 0.68512 0.0
H2008 H 0.31604 0.47134 0.93802 0.0
H2009 H 0.37837 0.48208 0.88074 0.0
H2010 H 0.30266 0.48246 0.7658 0.0
H2011 H 0.29158 0.45419 0.77312 0.0
H2012 H 0.29134 0.46923 0.8506 0.0
H2013 H 0.38942 0.48344 0.76173 0.0
H2014 H 0.36778 0.46622 0.70233 0.0
H2015 H 0.37829 0.4945 0.69958 0.0
H2016 H 0.31444 0.43653 0.55535 0.0
H2017 H 0.34174 0.50473 0.54239 0.0
H2018 H 0.30609 0.43146 0.74542 0.0
H2019 H 0.33116 0.4336 0.72273 0.0
H2020 H 0.30823 0.41834 0.66548 0.0
H2021 H 0.33778 0.51318 0.73189 0.0
H2022 H 0.34897 0.52615 0.6466 0.0
H2023 H 0.36392 0.51865 0.70593 0.0
C2024 C 0.55001 0.90437 0.85271 0.0
C2025 C 0.55331 0.89256 0.90625 0.0
C2026 C 0.55126 0.90051 0.77916 0.0
C2027 C 0.55551 0.88413 0.75833 0.0
C2028 C 0.5583 0.87173 0.812 0.0
C2029 C 0.5574 0.87625 0.88553 0.0
C2030 C 0.54853 0.91436 0.72374 0.0
C2031 C 0.56243 0.85385 0.79174 0.0
C2032 C 0.54109 0.8674 0.56251 0.0
C2033 C 0.56096 0.87949 0.52834 0.0
C2034 C 0.53927 0.86764 0.63808 0.0
C2035 C 0.55768 0.88068 0.68016 0.0
C2036 C 0.57791 0.89229 0.64609 0.0
C2037 C 0.57933 0.89138 0.57064 0.0
C2038 C 0.5175 0.85469 0.67254 0.0
C2039 C 0.59787 0.90669 0.68879 0.0
H2040 H 0.54698 0.91711 0.86821 0.0
H2041 H 0.55987 0.86702 0.92672 0.0
H2042 H 0.56321 0.92284 0.69024 0.0
H2043 H 0.53509 0.90427 0.68682 0.0
H2044 H 0.54532 0.92645 0.74897 0.0
H2045 H 0.56294 0.84486 0.83976 0.0
H2046 H 0.54978 0.84252 0.75444 0.0
H2047 H 0.5779 0.86047 0.76267 0.0
H2048 H 0.52688 0.85802 0.53007 0.0
H2049 H 0.59473 0.90082 0.54455 0.0
H2050 H 0.512 0.86559 0.69294 0.0
H2051 H 0.51834 0.84558 0.71953 0.0
H2052 H 0.50538 0.8433 0.63382 0.0
H2053 H 0.59657 0.92021 0.7117 0.0
H2054 H 0.61256 0.91333 0.65505 0.0
H2055 H 0.59963 0.89784 0.73481 0.0
C2056 C 0.14133 0.67596 0.57774 0.0
C2057 C 0.15563 0.69473 0.54078 0.0
C2058 C 0.14112 0.67509 0.6536 0.0
C2059 C 0.15575 0.69334 0.69365 0.0
C2060 C 0.17056 0.71218 0.65669 0.0
C2061 C 0.17023 0.7127 0.58071 0.0
C2062 C 0.12493 0.65474 0.69093 0.0
C2063 C 0.18659 0.73186 0.69742 0.0
C2064 C 0.13948 0.69597 0.88718 0.0
C2065 C 0.15029 0.68751 0.92594 0.0
C2066 C 0.14163 0.69856 0.81181 0.0
C2067 C 0.15506 0.69275 0.77423 0.0
C2068 C 0.16679 0.68515 0.81341 0.0
C2069 C 0.16419 0.68254 0.88872 0.0
C2070 C 0.12877 0.70663 0.77206 0.0
C2071 C 0.18149 0.67904 0.77546 0.0
H2072 H 0.12994 0.66203 0.5474 0.0
H2073 H 0.18141 0.72723 0.55261 0.0
H2074 H 0.13321 0.64882 0.72661 0.0
H2075 H 0.11435 0.658 0.72569 0.0
H2076 H 0.11483 0.64189 0.65198 0.0
H2077 H 0.19765 0.74491 0.66066 0.0
H2078 H 0.17809 0.7379 0.7315 0.0
H2079 H 0.19618 0.72779 0.73421 0.0
H2080 H 0.12868 0.69985 0.91533 0.0
H2081 H 0.17269 0.67608 0.91818 0.0
H2082 H 0.11696 0.69386 0.73616 0.0
H2083 H 0.13939 0.72043 0.73725 0.0
H2084 H 0.12003 0.71163 0.8095 0.0
H2085 H 0.17193 0.66484 0.74072 0.0
H2086 H 0.19087 0.6752 0.81413 0.0
H2087 H 0.19276 0.69223 0.73969 0.0
loop_
_geom_bond_atom_site_label_1
_geom_bond_atom_site_label_2
_geom_bond_distance
_geom_bond_site_symmetry_2
_ccdc_geom_bond_type
Zn0 O6 1.969 . S
Zn0 O7 1.965 . S
Zn0 O11 2.024 1_455 S
Zn0 O16 1.969 . S
Zn1 O8 1.969 . S
Zn1 O14 1.969 . S
Zn1 O15 1.965 . S
Zn1 O17 2.024 . S
C2 O3 1.229 . S
C2 O11 1.058 . S
O3 C2 1.229 . S
C4 O5 1.229 . S
C4 O17 1.058 . S
O5 C4 1.229 . S
O6 Zn0 1.969 . S
O6 C9 1.267 . S
O7 Zn0 1.965 . S
O7 C18 1.260 1_455 S
O8 Zn1 1.969 . S
O8 C18 1.258 1_455 S
C9 O6 1.267 . S
C9 O10 1.228 1_455 S
O10 C9 1.228 1_655 S
O11 Zn0 2.024 1_655 S
O11 C2 1.058 . S
C12 O13 1.228 . S
C12 O14 1.267 . S
O13 C12 1.228 . S
O14 Zn1 1.969 . S
O14 C12 1.267 . S
O15 Zn1 1.965 . S
O15 C19 1.260 . S
O16 Zn0 1.969 . S
O16 C19 1.258 . S
O17 Zn1 2.024 . S
O17 C4 1.058 . S
C18 O7 1.260 1_655 S
C18 O8 1.258 1_655 S
C19 O15 1.260 . S
C19 O16 1.258 . S
Zn20 O26 1.969 . S
Zn20 O27 1.965 . S
Zn20 O31 2.024 . S
Zn20 O36 1.969 . S
Zn21 O28 1.969 . S
Zn21 O34 1.969 . S
Zn21 O35 1.965 . S
Zn21 O37 2.024 . S
C22 O23 1.229 . S
C22 O31 1.058 . S
O23 C22 1.229 . S
C24 O25 1.229 . S
C24 O37 1.058 . S
O25 C24 1.229 . S
O26 Zn20 1.969 . S
O26 C29 1.267 . S
O27 Zn20 1.965 . S
O27 C38 1.260 . S
O28 Zn21 1.969 . S
O28 C38 1.258 . S
C29 O26 1.267 . S
C29 O30 1.228 . S
O30 C29 1.228 . S
O31 Zn20 2.024 . S
O31 C22 1.058 . S
C32 O33 1.228 . S
C32 O34 1.267 . S
O33 C32 1.228 . S
O34 Zn21 1.969 . S
O34 C32 1.267 . S
O35 Zn21 1.965 . S
O35 C39 1.260 . S
O36 Zn20 1.969 . S
O36 C39 1.258 . S
O37 Zn21 2.024 . S
O37 C24 1.058 . S
C38 O27 1.260 . S
C38 O28 1.258 . S
C39 O35 1.260 . S
C39 O36 1.258 . S
Zn40 O46 1.969 . S
Zn40 O47 1.965 . S
Zn40 O51 2.024 . S
Zn40 O56 1.969 . S
Zn41 O48 1.969 . S
Zn41 O54 1.969 . S
Zn41 O55 1.965 . S
Zn41 O57 2.024 1_545 S
C42 O43 1.229 . S
C42 O51 1.058 . S
O43 C42 1.229 . S
C44 O45 1.229 . S
C44 O57 1.058 . S
O45 C44 1.229 . S
O46 Zn40 1.969 . S
O46 C49 1.267 . S
O47 Zn40 1.965 . S
O47 C58 1.260 . S
O48 Zn41 1.969 . S
O48 C58 1.258 . S
C49 O46 1.267 . S
C49 O50 1.228 . S
O50 C49 1.228 . S
O51 Zn40 2.024 . S
O51 C42 1.058 . S
C52 O53 1.228 1_545 S
C52 O54 1.267 . S
O53 C52 1.228 1_565 S
O54 Zn41 1.969 . S
O54 C52 1.267 . S
O55 Zn41 1.965 . S
O55 C59 1.260 1_545 S
O56 Zn40 1.969 . S
O56 C59 1.258 1_545 S
O57 Zn41 2.024 1_565 S
O57 C44 1.058 . S
C58 O47 1.260 . S
C58 O48 1.258 . S
C59 O55 1.260 1_565 S
C59 O56 1.258 1_565 S
Zn60 O66 1.957 1_655 S
Zn60 O67 1.951 1_655 S
Zn60 O71 2.050 . S
Zn60 O76 1.958 1_655 S
Zn61 O68 1.969 1_455 S
Zn61 O74 1.969 . S
Zn61 O75 1.965 . S
Zn61 O77 2.024 . S
C62 O63 1.229 . S
C62 O71 1.058 . S
O63 C62 1.229 . S
C64 O65 1.229 . S
C64 O77 1.058 . S
O65 C64 1.229 . S
O66 Zn60 1.957 1_455 S
O66 C69 1.288 . S
O67 Zn60 1.951 1_455 S
O67 C78 1.260 1_455 S
O68 Zn61 1.969 1_655 S
O68 C78 1.258 . S
C69 O66 1.288 . S
C69 O70 1.194 1_455 S
O70 C69 1.194 1_655 S
O71 Zn60 2.050 . S
O71 C62 1.058 . S
C72 O73 1.228 . S
C72 O74 1.267 . S
O73 C72 1.228 . S
O74 Zn61 1.969 . S
O74 C72 1.267 . S
O75 Zn61 1.965 . S
O75 C79 1.260 . S
O76 Zn60 1.958 1_455 S
O76 C79 1.258 . S
O77 Zn61 2.024 . S
O77 C64 1.058 . S
C78 O67 1.260 1_655 S
C78 O68 1.258 . S
C79 O75 1.260 . S
C79 O76 1.258 . S
Zn80 O86 1.969 . S
Zn80 O87 1.965 . S
Zn80 O91 2.024 . S
Zn80 O96 1.969 . S
Zn81 O88 1.969 . S
Zn81 O94 1.969 . S
Zn81 O95 1.965 . S
Zn81 O97 2.024 . S
C82 O83 1.229 . S
C82 O91 1.058 . S
O83 C82 1.229 . S
C84 O85 1.229 . S
C84 O97 1.058 . S
O85 C84 1.229 . S
O86 Zn80 1.969 . S
O86 C89 1.267 . S
O87 Zn80 1.965 . S
O87 C98 1.260 . S
O88 Zn81 1.969 . S
O88 C98 1.258 . S
C89 O86 1.267 . S
C89 O90 1.228 . S
O90 C89 1.228 . S
O91 Zn80 2.024 . S
O91 C82 1.058 . S
C92 O93 1.228 . S
C92 O94 1.267 . S
O93 C92 1.228 . S
O94 Zn81 1.969 . S
O94 C92 1.267 . S
O95 Zn81 1.965 . S
O95 C99 1.260 . S
O96 Zn80 1.969 . S
O96 C99 1.258 . S
O97 Zn81 2.024 . S
O97 C84 1.058 . S
C98 O87 1.260 . S
C98 O88 1.258 . S
C99 O95 1.260 . S
C99 O96 1.258 . S
Zn100 O106 1.969 . S
Zn100 O107 1.965 . S
Zn100 O111 2.024 . S
Zn100 O116 1.969 . S
Zn101 O108 1.969 . S
Zn101 O114 1.969 . S
Zn101 O115 1.965 . S
Zn101 O117 2.024 1_545 S
C102 O103 1.229 . S
C102 O111 1.058 . S
O103 C102 1.229 . S
C104 O105 1.229 . S
C104 O117 1.058 . S
O105 C104 1.229 . S
O106 Zn100 1.969 . S
O106 C109 1.267 . S
O107 Zn100 1.965 . S
O107 C118 1.260 . S
O108 Zn101 1.969 . S
O108 C118 1.258 . S
C109 O106 1.267 . S
C109 O110 1.228 . S
O110 C109 1.228 . S
O111 Zn100 2.024 . S
O111 C102 1.058 . S
C112 O113 1.228 1_545 S
C112 O114 1.267 . S
O113 C112 1.228 1_565 S
O114 Zn101 1.969 . S
O114 C112 1.267 . S
O115 Zn101 1.965 . S
O115 C119 1.260 1_545 S
O116 Zn100 1.969 . S
O116 C119 1.258 1_545 S
O117 Zn101 2.024 1_565 S
O117 C104 1.058 . S
C118 O107 1.260 . S
C118 O108 1.258 . S
C119 O115 1.260 1_565 S
C119 O116 1.258 1_565 S
Zn120 O126 1.969 1_556 S
Zn120 O127 1.965 . S
Zn120 O131 2.024 . S
Zn120 O136 1.969 . S
Zn121 O128 1.969 . S
Zn121 O134 1.969 . S
Zn121 O135 1.965 . S
Zn121 O137 2.024 . S
C122 O123 1.229 1_556 S
C122 O131 1.058 . S
O123 C122 1.229 1_554 S
C124 O125 1.229 . S
C124 O137 1.058 . S
O125 C124 1.229 . S
O126 Zn120 1.969 1_554 S
O126 C129 1.267 . S
O127 Zn120 1.965 . S
O127 C138 1.260 . S
O128 Zn121 1.969 . S
O128 C138 1.258 . S
C129 O126 1.267 . S
C129 O130 1.228 . S
O130 C129 1.228 . S
O131 Zn120 2.024 . S
O131 C122 1.058 . S
C132 O133 1.228 . S
C132 O134 1.267 . S
O133 C132 1.228 . S
O134 Zn121 1.969 . S
O134 C132 1.267 . S
O135 Zn121 1.965 . S
O135 C139 1.260 . S
O136 Zn120 1.969 . S
O136 C139 1.258 . S
O137 Zn121 2.024 . S
O137 C124 1.058 . S
C138 O127 1.260 . S
C138 O128 1.258 . S
C139 O135 1.260 . S
C139 O136 1.258 . S
Zn140 O146 1.969 1_556 S
Zn140 O147 1.965 . S
Zn140 O151 2.024 . S
Zn140 O156 1.969 . S
Zn141 O148 1.969 . S
Zn141 O154 1.969 . S
Zn141 O155 1.965 . S
Zn141 O157 2.024 . S
C142 O143 1.229 1_556 S
C142 O151 1.058 . S
O143 C142 1.229 1_554 S
C144 O145 1.229 . S
C144 O157 1.058 . S
O145 C144 1.229 . S
O146 Zn140 1.969 1_554 S
O146 C149 1.267 . S
O147 Zn140 1.965 . S
O147 C158 1.260 . S
O148 Zn141 1.969 . S
O148 C158 1.258 . S
C149 O146 1.267 . S
C149 O150 1.228 . S
O150 C149 1.228 . S
O151 Zn140 2.024 . S
O151 C142 1.058 . S
C152 O153 1.228 . S
C152 O154 1.267 . S
O153 C152 1.228 . S
O154 Zn141 1.969 . S
O154 C152 1.267 . S
O155 Zn141 1.965 . S
O155 C159 1.260 . S
O156 Zn140 1.969 . S
O156 C159 1.258 . S
O157 Zn141 2.024 . S
O157 C144 1.058 . S
C158 O147 1.260 . S
C158 O148 1.258 . S
C159 O155 1.260 . S
C159 O156 1.258 . S
Zn160 O166 1.969 1_556 S
Zn160 O167 1.965 . S
Zn160 O171 2.024 . S
Zn160 O176 1.969 . S
Zn161 O168 1.969 . S
Zn161 O174 1.969 . S
Zn161 O175 1.965 . S
Zn161 O177 2.024 . S
C162 O163 1.229 1_556 S
C162 O171 1.058 . S
O163 C162 1.229 1_554 S
C164 O165 1.229 . S
C164 O177 1.058 . S
O165 C164 1.229 . S
O166 Zn160 1.969 1_554 S
O166 C169 1.267 . S
O167 Zn160 1.965 . S
O167 C178 1.260 . S
O168 Zn161 1.969 . S
O168 C178 1.258 . S
C169 O166 1.267 . S
C169 O170 1.228 . S
O170 C169 1.228 . S
O171 Zn160 2.024 . S
O171 C162 1.058 . S
C172 O173 1.228 . S
C172 O174 1.267 . S
O173 C172 1.228 . S
O174 Zn161 1.969 . S
O174 C172 1.267 . S
O175 Zn161 1.965 . S
O175 C179 1.260 . S
O176 Zn160 1.969 . S
O176 C179 1.258 . S
O177 Zn161 2.024 . S
O177 C164 1.058 . S
C178 O167 1.260 . S
C178 O168 1.258 . S
C179 O175 1.260 . S
C179 O176 1.258 . S
Zn180 O186 1.969 . S
Zn180 O187 1.965 . S
Zn180 O191 2.024 . S
Zn180 O196 1.969 . S
Zn181 O188 1.969 . S
Zn181 O194 1.969 . S
Zn181 O195 1.965 . S
Zn181 O197 2.024 . S
C182 O183 1.229 . S
C182 O191 1.058 . S
O183 C182 1.229 . S
C184 O185 1.229 . S
C184 O197 1.058 . S
O185 C184 1.229 . S
O186 Zn180 1.969 . S
O186 C189 1.267 1_556 S
O187 Zn180 1.965 . S
O187 C198 1.260 . S
O188 Zn181 1.969 . S
O188 C198 1.258 . S
C189 O186 1.267 1_554 S
C189 O190 1.226 1_554 S
O190 C189 1.226 1_556 S
O191 Zn180 2.024 . S
O191 C182 1.058 . S
C192 O193 1.228 . S
C192 O194 1.267 . S
O193 C192 1.228 . S
O194 Zn181 1.969 . S
O194 C192 1.267 . S
O195 Zn181 1.965 . S
O195 C199 1.260 . S
O196 Zn180 1.969 . S
O196 C199 1.258 . S
O197 Zn181 2.024 . S
O197 C184 1.058 . S
C198 O187 1.260 . S
C198 O188 1.258 . S
C199 O195 1.260 . S
C199 O196 1.258 . S
Zn200 O206 1.969 . S
Zn200 O207 1.965 . S
Zn200 O211 2.024 . S
Zn200 O216 1.969 . S
Zn201 O208 1.969 . S
Zn201 O214 1.969 . S
Zn201 O215 1.965 . S
Zn201 O217 2.024 . S
C202 O203 1.229 . S
C202 O211 1.058 . S
O203 C202 1.229 . S
C204 O205 1.229 . S
C204 O217 1.058 . S
O205 C204 1.229 . S
O206 Zn200 1.969 . S
O206 C209 1.267 1_556 S
O207 Zn200 1.965 . S
O207 C218 1.260 . S
O208 Zn201 1.969 . S
O208 C218 1.258 . S
C209 O206 1.267 1_554 S
C209 O210 1.226 1_554 S
O210 C209 1.226 1_556 S
O211 Zn200 2.024 . S
O211 C202 1.058 . S
C212 O213 1.228 . S
C212 O214 1.267 . S
O213 C212 1.228 . S
O214 Zn201 1.969 . S
O214 C212 1.267 . S
O215 Zn201 1.965 . S
O215 C219 1.260 . S
O216 Zn200 1.969 . S
O216 C219 1.258 . S
O217 Zn201 2.024 . S
O217 C204 1.058 . S
C218 O207 1.260 . S
C218 O208 1.258 . S
C219 O215 1.260 . S
C219 O216 1.258 . S
Zn220 O226 1.969 . S
Zn220 O227 1.965 . S
Zn220 O231 2.024 . S
Zn220 O236 1.969 . S
Zn221 O228 1.969 . S
Zn221 O234 1.969 . S
Zn221 O235 1.965 . S
Zn221 O237 2.024 . S
C222 O223 1.229 . S
C222 O231 1.058 . S
O223 C222 1.229 . S
C224 O225 1.229 . S
C224 O237 1.058 . S
O225 C224 1.229 . S
O226 Zn220 1.969 . S
O226 C229 1.267 1_556 S
O227 Zn220 1.965 . S
O227 C238 1.260 . S
O228 Zn221 1.969 . S
O228 C238 1.258 . S
C229 O226 1.267 1_554 S
C229 O230 1.226 1_554 S
O230 C229 1.226 1_556 S
O231 Zn220 2.024 . S
O231 C222 1.058 . S
C232 O233 1.228 . S
C232 O234 1.267 . S
O233 C232 1.228 . S
O234 Zn221 1.969 . S
O234 C232 1.267 . S
O235 Zn221 1.965 . S
O235 C239 1.260 . S
O236 Zn220 1.969 . S
O236 C239 1.258 . S
O237 Zn221 2.024 . S
O237 C224 1.058 . S
C238 O227 1.260 . S
C238 O228 1.258 . S
C239 O235 1.260 . S
C239 O236 1.258 . S
Zn240 O246 1.969 . S
Zn240 O247 1.965 . S
Zn240 O251 2.024 . S
Zn240 O256 1.969 . S
Zn241 O248 1.969 . S
Zn241 O254 1.969 . S
Zn241 O255 1.965 . S
Zn241 O257 2.024 . S
C242 O243 1.229 . S
C242 O251 1.058 . S
O243 C242 1.229 . S
C244 O245 1.229 . S
C244 O257 1.058 . S
O245 C244 1.229 . S
O246 Zn240 1.969 . S
O246 C249 1.267 . S
O247 Zn240 1.965 . S
O247 C258 1.260 . S
O248 Zn241 1.969 . S
O248 C258 1.258 . S
C249 O246 1.267 . S
C249 O250 1.228 . S
O250 C249 1.228 . S
O251 Zn240 2.024 . S
O251 C242 1.058 . S
C252 O253 1.226 1_556 S
C252 O254 1.267 1_556 S
O253 C252 1.226 1_554 S
O254 Zn241 1.969 . S
O254 C252 1.267 1_554 S
O255 Zn241 1.965 . S
O255 C259 1.260 . S
O256 Zn240 1.969 . S
O256 C259 1.258 . S
O257 Zn241 2.024 . S
O257 C244 1.058 . S
C258 O247 1.260 . S
C258 O248 1.258 . S
C259 O255 1.260 . S
C259 O256 1.258 . S
Zn260 O266 1.969 . S
Zn260 O267 1.965 . S
Zn260 O271 2.024 . S
Zn260 O276 1.969 . S
Zn261 O268 1.969 . S
Zn261 O274 1.969 . S
Zn261 O275 1.965 . S
Zn261 O277 2.024 . S
C262 O263 1.229 . S
C262 O271 1.058 . S
O263 C262 1.229 . S
C264 O265 1.229 . S
C264 O277 1.058 . S
O265 C264 1.229 . S
O266 Zn260 1.969 . S
O266 C269 1.267 . S
O267 Zn260 1.965 . S
O267 C278 1.260 . S
O268 Zn261 1.969 . S
O268 C278 1.258 . S
C269 O266 1.267 . S
C269 O270 1.228 . S
O270 C269 1.228 . S
O271 Zn260 2.024 . S
O271 C262 1.058 . S
C272 O273 1.226 1_556 S
C272 O274 1.267 1_556 S
O273 C272 1.226 1_554 S
O274 Zn261 1.969 . S
O274 C272 1.267 1_554 S
O275 Zn261 1.965 . S
O275 C279 1.260 . S
O276 Zn260 1.969 . S
O276 C279 1.258 . S
O277 Zn261 2.024 . S
O277 C264 1.058 . S
C278 O267 1.260 . S
C278 O268 1.258 . S
C279 O275 1.260 . S
C279 O276 1.258 . S
Zn280 O286 1.969 . S
Zn280 O287 1.965 . S
Zn280 O291 2.024 . S
Zn280 O296 1.969 . S
Zn281 O288 1.969 . S
Zn281 O294 1.969 . S
Zn281 O295 1.965 . S
Zn281 O297 2.024 . S
C282 O283 1.229 . S
C282 O291 1.058 . S
O283 C282 1.229 . S
C284 O285 1.229 . S
C284 O297 1.058 . S
O285 C284 1.229 . S
O286 Zn280 1.969 . S
O286 C289 1.267 . S
O287 Zn280 1.965 . S
O287 C298 1.260 . S
O288 Zn281 1.969 . S
O288 C298 1.258 . S
C289 O286 1.267 . S
C289 O290 1.228 . S
O290 C289 1.228 . S
O291 Zn280 2.024 . S
O291 C282 1.058 . S
C292 O293 1.226 1_556 S
C292 O294 1.267 1_556 S
O293 C292 1.226 1_554 S
O294 Zn281 1.969 . S
O294 C292 1.267 1_554 S
O295 Zn281 1.965 . S
O295 C299 1.260 . S
O296 Zn280 1.969 . S
O296 C299 1.258 . S
O297 Zn281 2.024 . S
O297 C284 1.058 . S
C298 O287 1.260 . S
C298 O288 1.258 . S
C299 O295 1.260 . S
C299 O296 1.258 . S
Zn300 O306 1.969 . S
Zn300 O307 1.965 . S
Zn300 O311 2.024 . S
Zn300 O316 1.969 . S
Zn301 O308 1.969 . S
Zn301 O314 1.969 1_554 S
Zn301 O315 1.965 . S
Zn301 O317 2.024 . S
C302 O303 1.229 . S
C302 O311 1.058 . S
O303 C302 1.229 . S
C304 O305 1.229 1_554 S
C304 O317 1.058 . S
O305 C304 1.229 1_556 S
O306 Zn300 1.969 . S
O306 C309 1.267 . S
O307 Zn300 1.965 . S
O307 C318 1.260 . S
O308 Zn301 1.969 . S
O308 C318 1.258 . S
C309 O306 1.267 . S
C309 O310 1.228 . S
O310 C309 1.228 . S
O311 Zn300 2.024 . S
O311 C302 1.058 . S
C312 O313 1.228 . S
C312 O314 1.267 . S
O313 C312 1.228 . S
O314 Zn301 1.969 1_556 S
O314 C312 1.267 . S
O315 Zn301 1.965 . S
O315 C319 1.260 . S
O316 Zn300 1.969 . S
O316 C319 1.258 . S
O317 Zn301 2.024 . S
O317 C304 1.058 . S
C318 O307 1.260 . S
C318 O308 1.258 . S
C319 O315 1.260 . S
C319 O316 1.258 . S
Zn320 O326 1.969 . S
Zn320 O327 1.965 . S
Zn320 O331 2.024 . S
Zn320 O336 1.969 . S
Zn321 O328 1.969 . S
Zn321 O334 1.969 1_554 S
Zn321 O335 1.965 . S
Zn321 O337 2.024 . S
C322 O323 1.229 . S
C322 O331 1.058 . S
O323 C322 1.229 . S
C324 O325 1.229 1_554 S
C324 O337 1.058 . S
O325 C324 1.229 1_556 S
O326 Zn320 1.969 . S
O326 C329 1.267 . S
O327 Zn320 1.965 . S
O327 C338 1.260 . S
O328 Zn321 1.969 . S
O328 C338 1.258 . S
C329 O326 1.267 . S
C329 O330 1.228 . S
O330 C329 1.228 . S
O331 Zn320 2.024 . S
O331 C322 1.058 . S
C332 O333 1.228 . S
C332 O334 1.267 . S
O333 C332 1.228 . S
O334 Zn321 1.969 1_556 S
O334 C332 1.267 . S
O335 Zn321 1.965 . S
O335 C339 1.260 . S
O336 Zn320 1.969 . S
O336 C339 1.258 . S
O337 Zn321 2.024 . S
O337 C324 1.058 . S
C338 O327 1.260 . S
C338 O328 1.258 . S
C339 O335 1.260 . S
C339 O336 1.258 . S
Zn340 O346 1.969 . S
Zn340 O347 1.965 . S
Zn340 O351 2.024 . S
Zn340 O356 1.969 . S
Zn341 O348 1.969 . S
Zn341 O354 1.969 1_554 S
Zn341 O355 1.965 . S
Zn341 O357 2.024 . S
C342 O343 1.229 . S
C342 O351 1.058 . S
O343 C342 1.229 . S
C344 O345 1.229 1_554 S
C344 O357 1.058 . S
O345 C344 1.229 1_556 S
O346 Zn340 1.969 . S
O346 C349 1.267 . S
O347 Zn340 1.965 . S
O347 C358 1.260 . S
O348 Zn341 1.969 . S
O348 C358 1.258 . S
C349 O346 1.267 . S
C349 O350 1.228 . S
O350 C349 1.228 . S
O351 Zn340 2.024 . S
O351 C342 1.058 . S
C352 O353 1.228 . S
C352 O354 1.267 . S
O353 C352 1.228 . S
O354 Zn341 1.969 1_556 S
O354 C352 1.267 . S
O355 Zn341 1.965 . S
O355 C359 1.260 . S
O356 Zn340 1.969 . S
O356 C359 1.258 . S
O357 Zn341 2.024 . S
O357 C344 1.058 . S
C358 O347 1.260 . S
C358 O348 1.258 . S
C359 O355 1.260 . S
C359 O356 1.258 . S
C360 C361 1.391 . S
C360 C362 1.394 . S
C360 H376 0.931 . S
C361 C360 1.391 . S
C361 C365 1.376 . S
C362 C360 1.394 . S
C362 C363 1.369 . S
C362 C366 1.531 . S
C363 C362 1.369 . S
C363 C364 1.410 . S
C363 C371 1.503 . S
C364 C363 1.410 . S
C364 C365 1.392 . S
C364 C367 1.511 . S
C365 C361 1.376 . S
C365 C364 1.392 . S
C365 H377 0.929 . S
C366 C362 1.531 . S
C366 H378 0.960 . S
C366 H379 0.962 . S
C366 H380 0.960 . S
C367 C364 1.511 . S
C367 H381 0.961 . S
C367 H382 0.961 . S
C367 H383 0.961 . S
C368 C369 1.370 . S
C368 C370 1.363 . S
C368 H384 0.931 . S
C369 C368 1.370 . S
C369 C373 1.408 . S
C370 C368 1.363 . S
C370 C371 1.370 . S
C370 C374 1.524 . S
C371 C363 1.503 . S
C371 C370 1.370 . S
C371 C372 1.403 . S
C372 C371 1.403 . S
C372 C373 1.404 . S
C372 C375 1.539 . S
C373 C369 1.408 . S
C373 C372 1.404 . S
C373 H385 0.930 . S
C374 C370 1.524 . S
C374 H386 0.956 . S
C374 H387 0.961 . S
C374 H388 0.961 . S
C375 C372 1.539 . S
C375 H389 0.958 . S
C375 H390 0.961 . S
C375 H391 0.960 . S
H376 C360 0.931 . S
H377 C365 0.929 . S
H378 C366 0.960 . S
H379 C366 0.962 . S
H380 C366 0.960 . S
H381 C367 0.961 . S
H382 C367 0.961 . S
H383 C367 0.961 . S
H384 C368 0.931 . S
H385 C373 0.930 . S
H386 C374 0.956 . S
H387 C374 0.961 . S
H388 C374 0.961 . S
H389 C375 0.958 . S
H390 C375 0.961 . S
H391 C375 0.960 . S
C392 C393 1.391 . S
C392 C394 1.394 . S
C392 H408 0.931 . S
C393 C392 1.391 . S
C393 C397 1.376 . S
C394 C392 1.394 . S
C394 C395 1.369 . S
C394 C398 1.531 . S
C395 C394 1.369 . S
C395 C396 1.410 . S
C395 C403 1.503 . S
C396 C395 1.410 . S
C396 C397 1.392 . S
C396 C399 1.511 . S
C397 C393 1.376 . S
C397 C396 1.392 . S
C397 H409 0.929 . S
C398 C394 1.531 . S
C398 H410 0.960 . S
C398 H411 0.962 . S
C398 H412 0.960 . S
C399 C396 1.511 . S
C399 H413 0.961 . S
C399 H414 0.961 . S
C399 H415 0.961 . S
C400 C401 1.370 . S
C400 C402 1.363 . S
C400 H416 0.931 . S
C401 C400 1.370 . S
C401 C405 1.408 . S
C402 C400 1.363 . S
C402 C403 1.370 . S
C402 C406 1.524 . S
C403 C395 1.503 . S
C403 C402 1.370 . S
C403 C404 1.403 . S
C404 C403 1.403 . S
C404 C405 1.404 . S
C404 C407 1.539 . S
C405 C401 1.408 . S
C405 C404 1.404 . S
C405 H417 0.930 . S
C406 C402 1.524 . S
C406 H418 0.956 . S
C406 H419 0.961 . S
C406 H420 0.961 . S
C407 C404 1.539 . S
C407 H421 0.958 . S
C407 H422 0.961 . S
C407 H423 0.960 . S
H408 C392 0.931 . S
H409 C397 0.929 . S
H410 C398 0.960 . S
H411 C398 0.962 . S
H412 C398 0.960 . S
H413 C399 0.961 . S
H414 C399 0.961 . S
H415 C399 0.961 . S
H416 C400 0.931 . S
H417 C405 0.930 . S
H418 C406 0.956 . S
H419 C406 0.961 . S
H420 C406 0.961 . S
H421 C407 0.958 . S
H422 C407 0.961 . S
H423 C407 0.960 . S
C424 C425 1.391 . S
C424 C426 1.394 . S
C424 H440 0.931 . S
C425 C424 1.391 . S
C425 C429 1.376 . S
C426 C424 1.394 . S
C426 C427 1.369 . S
C426 C430 1.531 . S
C427 C426 1.369 . S
C427 C428 1.410 . S
C427 C435 1.503 . S
C428 C427 1.410 . S
C428 C429 1.392 . S
C428 C431 1.511 . S
C429 C425 1.376 . S
C429 C428 1.392 . S
C429 H441 0.929 . S
C430 C426 1.531 . S
C430 H442 0.960 . S
C430 H443 0.962 . S
C430 H444 0.960 . S
C431 C428 1.511 . S
C431 H445 0.961 . S
C431 H446 0.961 . S
C431 H447 0.961 . S
C432 C433 1.370 . S
C432 C434 1.363 . S
C432 H448 0.931 . S
C433 C432 1.370 . S
C433 C437 1.408 . S
C434 C432 1.363 . S
C434 C435 1.370 . S
C434 C438 1.524 . S
C435 C427 1.503 . S
C435 C434 1.370 . S
C435 C436 1.403 . S
C436 C435 1.403 . S
C436 C437 1.404 . S
C436 C439 1.539 . S
C437 C433 1.408 . S
C437 C436 1.404 . S
C437 H449 0.930 . S
C438 C434 1.524 . S
C438 H450 0.956 . S
C438 H451 0.961 . S
C438 H452 0.961 . S
C439 C436 1.539 . S
C439 H453 0.958 . S
C439 H454 0.961 . S
C439 H455 0.960 . S
H440 C424 0.931 . S
H441 C429 0.929 . S
H442 C430 0.960 . S
H443 C430 0.962 . S
H444 C430 0.960 . S
H445 C431 0.961 . S
H446 C431 0.961 . S
H447 C431 0.961 . S
H448 C432 0.931 . S
H449 C437 0.930 . S
H450 C438 0.956 . S
H451 C438 0.961 . S
H452 C438 0.961 . S
H453 C439 0.958 . S
H454 C439 0.961 . S
H455 C439 0.960 . S
C456 C457 1.391 . S
C456 C458 1.394 . S
C456 H472 0.931 . S
C457 C456 1.391 . S
C457 C461 1.376 . S
C458 C456 1.394 . S
C458 C459 1.369 . S
C458 C462 1.531 . S
C459 C458 1.369 . S
C459 C460 1.410 . S
C459 C467 1.503 . S
C460 C459 1.410 . S
C460 C461 1.392 . S
C460 C463 1.511 . S
C461 C457 1.376 . S
C461 C460 1.392 . S
C461 H473 0.929 . S
C462 C458 1.531 . S
C462 H474 0.960 . S
C462 H475 0.962 . S
C462 H476 0.960 . S
C463 C460 1.511 . S
C463 H477 0.961 . S
C463 H478 0.961 . S
C463 H479 0.961 . S
C464 C465 1.370 . S
C464 C466 1.363 . S
C464 H480 0.931 . S
C465 C464 1.370 . S
C465 C469 1.408 . S
C466 C464 1.363 . S
C466 C467 1.370 . S
C466 C470 1.524 . S
C467 C459 1.503 . S
C467 C466 1.370 . S
C467 C468 1.403 . S
C468 C467 1.403 . S
C468 C469 1.404 . S
C468 C471 1.539 . S
C469 C465 1.408 . S
C469 C468 1.404 . S
C469 H481 0.930 . S
C470 C466 1.524 . S
C470 H482 0.956 . S
C470 H483 0.961 . S
C470 H484 0.961 . S
C471 C468 1.539 . S
C471 H485 0.958 . S
C471 H486 0.961 . S
C471 H487 0.960 . S
H472 C456 0.931 . S
H473 C461 0.929 . S
H474 C462 0.960 . S
H475 C462 0.962 . S
H476 C462 0.960 . S
H477 C463 0.961 . S
H478 C463 0.961 . S
H479 C463 0.961 . S
H480 C464 0.931 . S
H481 C469 0.930 . S
H482 C470 0.956 . S
H483 C470 0.961 . S
H484 C470 0.961 . S
H485 C471 0.958 . S
H486 C471 0.961 . S
H487 C471 0.960 . S
C488 C489 1.391 . S
C488 C490 1.394 . S
C488 H504 0.931 . S
C489 C488 1.391 . S
C489 C493 1.376 . S
C490 C488 1.394 . S
C490 C491 1.369 . S
C490 C494 1.531 . S
C491 C490 1.369 . S
C491 C492 1.410 . S
C491 C499 1.503 . S
C492 C491 1.410 . S
C492 C493 1.392 . S
C492 C495 1.511 . S
C493 C489 1.376 . S
C493 C492 1.392 . S
C493 H505 0.929 . S
C494 C490 1.531 . S
C494 H506 0.960 . S
C494 H507 0.962 . S
C494 H508 0.960 . S
C495 C492 1.511 . S
C495 H509 0.961 . S
C495 H510 0.961 . S
C495 H511 0.961 . S
C496 C497 1.370 . S
C496 C498 1.363 . S
C496 H512 0.931 . S
C497 C496 1.370 . S
C497 C501 1.408 . S
C498 C496 1.363 . S
C498 C499 1.370 . S
C498 C502 1.524 . S
C499 C491 1.503 . S
C499 C498 1.370 . S
C499 C500 1.403 . S
C500 C499 1.403 . S
C500 C501 1.404 . S
C500 C503 1.539 . S
C501 C497 1.408 . S
C501 C500 1.404 . S
C501 H513 0.930 . S
C502 C498 1.524 . S
C502 H514 0.956 . S
C502 H515 0.961 . S
C502 H516 0.961 . S
C503 C500 1.539 . S
C503 H517 0.958 . S
C503 H518 0.961 . S
C503 H519 0.960 . S
H504 C488 0.931 . S
H505 C493 0.929 . S
H506 C494 0.960 . S
H507 C494 0.962 . S
H508 C494 0.960 . S
H509 C495 0.961 . S
H510 C495 0.961 . S
H511 C495 0.961 . S
H512 C496 0.931 . S
H513 C501 0.930 . S
H514 C502 0.956 . S
H515 C502 0.961 . S
H516 C502 0.961 . S
H517 C503 0.958 . S
H518 C503 0.961 . S
H519 C503 0.960 . S
C520 C521 1.391 . S
C520 C522 1.394 . S
C520 H536 0.931 . S
C521 C520 1.391 . S
C521 C525 1.376 . S
C522 C520 1.394 . S
C522 C523 1.369 . S
C522 C526 1.531 . S
C523 C522 1.369 . S
C523 C524 1.410 . S
C523 C531 1.503 . S
C524 C523 1.410 . S
C524 C525 1.392 . S
C524 C527 1.511 . S
C525 C521 1.376 . S
C525 C524 1.392 . S
C525 H537 0.929 . S
C526 C522 1.531 . S
C526 H538 0.960 . S
C526 H539 0.962 . S
C526 H540 0.960 . S
C527 C524 1.511 . S
C527 H541 0.961 . S
C527 H542 0.961 . S
C527 H543 0.961 . S
C528 C529 1.370 . S
C528 C530 1.363 . S
C528 H544 0.931 . S
C529 C528 1.370 . S
C529 C533 1.408 . S
C530 C528 1.363 . S
C530 C531 1.370 . S
C530 C534 1.524 . S
C531 C523 1.503 . S
C531 C530 1.370 . S
C531 C532 1.403 . S
C532 C531 1.403 . S
C532 C533 1.404 . S
C532 C535 1.539 . S
C533 C529 1.408 . S
C533 C532 1.404 . S
C533 H545 0.930 . S
C534 C530 1.524 . S
C534 H546 0.956 . S
C534 H547 0.961 . S
C534 H548 0.961 . S
C535 C532 1.539 . S
C535 H549 0.958 . S
C535 H550 0.961 . S
C535 H551 0.960 . S
H536 C520 0.931 . S
H537 C525 0.929 . S
H538 C526 0.960 . S
H539 C526 0.962 . S
H540 C526 0.960 . S
H541 C527 0.961 . S
H542 C527 0.961 . S
H543 C527 0.961 . S
H544 C528 0.931 . S
H545 C533 0.930 . S
H546 C534 0.956 . S
H547 C534 0.961 . S
H548 C534 0.961 . S
H549 C535 0.958 . S
H550 C535 0.961 . S
H551 C535 0.960 . S
C552 C553 1.391 . S
C552 C554 1.394 . S
C552 H568 0.931 . S
C553 C552 1.391 . S
C553 C557 1.376 . S
C554 C552 1.394 . S
C554 C555 1.369 . S
C554 C558 1.531 . S
C555 C554 1.369 . S
C555 C556 1.410 . S
C555 C563 1.503 . S
C556 C555 1.410 . S
C556 C557 1.392 . S
C556 C559 1.511 . S
C557 C553 1.376 . S
C557 C556 1.392 . S
C557 H569 0.929 . S
C558 C554 1.531 . S
C558 H570 0.960 . S
C558 H571 0.962 . S
C558 H572 0.960 . S
C559 C556 1.511 . S
C559 H573 0.961 . S
C559 H574 0.961 . S
C559 H575 0.961 . S
C560 C561 1.370 . S
C560 C562 1.363 . S
C560 H576 0.931 . S
C561 C560 1.370 . S
C561 C565 1.408 . S
C562 C560 1.363 . S
C562 C563 1.370 . S
C562 C566 1.524 . S
C563 C555 1.503 . S
C563 C562 1.370 . S
C563 C564 1.403 . S
C564 C563 1.403 . S
C564 C565 1.404 . S
C564 C567 1.539 . S
C565 C561 1.408 . S
C565 C564 1.404 . S
C565 H577 0.930 . S
C566 C562 1.524 . S
C566 H578 0.956 . S
C566 H579 0.961 . S
C566 H580 0.961 . S
C567 C564 1.539 . S
C567 H581 0.958 . S
C567 H582 0.961 . S
C567 H583 0.960 . S
H568 C552 0.931 . S
H569 C557 0.929 . S
H570 C558 0.960 . S
H571 C558 0.962 . S
H572 C558 0.960 . S
H573 C559 0.961 . S
H574 C559 0.961 . S
H575 C559 0.961 . S
H576 C560 0.931 . S
H577 C565 0.930 . S
H578 C566 0.956 . S
H579 C566 0.961 . S
H580 C566 0.961 . S
H581 C567 0.958 . S
H582 C567 0.961 . S
H583 C567 0.960 . S
C584 C585 1.391 . S
C584 C586 1.394 . S
C584 H600 0.931 . S
C585 C584 1.391 . S
C585 C589 1.376 . S
C586 C584 1.394 . S
C586 C587 1.369 . S
C586 C590 1.531 . S
C587 C586 1.369 . S
C587 C588 1.410 . S
C587 C595 1.503 . S
C588 C587 1.410 . S
C588 C589 1.392 . S
C588 C591 1.511 . S
C589 C585 1.376 . S
C589 C588 1.392 . S
C589 H601 0.929 . S
C590 C586 1.531 . S
C590 H602 0.960 . S
C590 H603 0.962 . S
C590 H604 0.960 . S
C591 C588 1.511 . S
C591 H605 0.961 . S
C591 H606 0.961 . S
C591 H607 0.961 . S
C592 C593 1.370 . S
C592 C594 1.363 . S
C592 H608 0.931 . S
C593 C592 1.370 . S
C593 C597 1.408 . S
C594 C592 1.363 . S
C594 C595 1.370 . S
C594 C598 1.524 . S
C595 C587 1.503 . S
C595 C594 1.370 . S
C595 C596 1.403 . S
C596 C595 1.403 . S
C596 C597 1.404 . S
C596 C599 1.539 . S
C597 C593 1.408 . S
C597 C596 1.404 . S
C597 H609 0.930 . S
C598 C594 1.524 . S
C598 H610 0.956 . S
C598 H611 0.961 . S
C598 H612 0.961 . S
C599 C596 1.539 . S
C599 H613 0.958 . S
C599 H614 0.961 . S
C599 H615 0.960 . S
H600 C584 0.931 . S
H601 C589 0.929 . S
H602 C590 0.960 . S
H603 C590 0.962 . S
H604 C590 0.960 . S
H605 C591 0.961 . S
H606 C591 0.961 . S
H607 C591 0.961 . S
H608 C592 0.931 . S
H609 C597 0.930 . S
H610 C598 0.956 . S
H611 C598 0.961 . S
H612 C598 0.961 . S
H613 C599 0.958 . S
H614 C599 0.961 . S
H615 C599 0.960 . S
C616 C617 1.391 . S
C616 C618 1.394 . S
C616 H632 0.931 . S
C617 C616 1.391 . S
C617 C621 1.376 . S
C618 C616 1.394 . S
C618 C619 1.369 . S
C618 C622 1.531 . S
C619 C618 1.369 . S
C619 C620 1.410 . S
C619 C627 1.503 . S
C620 C619 1.410 . S
C620 C621 1.392 . S
C620 C623 1.511 . S
C621 C617 1.376 . S
C621 C620 1.392 . S
C621 H633 0.929 . S
C622 C618 1.531 . S
C622 H634 0.960 . S
C622 H635 0.962 . S
C622 H636 0.960 . S
C623 C620 1.511 . S
C623 H637 0.961 . S
C623 H638 0.961 . S
C623 H639 0.961 . S
C624 C625 1.370 . S
C624 C626 1.363 . S
C624 H640 0.931 . S
C625 C624 1.370 . S
C625 C629 1.408 . S
C626 C624 1.363 . S
C626 C627 1.370 . S
C626 C630 1.524 . S
C627 C619 1.503 . S
C627 C626 1.370 . S
C627 C628 1.403 . S
C628 C627 1.403 . S
C628 C629 1.404 . S
C628 C631 1.539 . S
C629 C625 1.408 . S
C629 C628 1.404 . S
C629 H641 0.930 . S
C630 C626 1.524 . S
C630 H642 0.956 . S
C630 H643 0.961 . S
C630 H644 0.961 . S
C631 C628 1.539 . S
C631 H645 0.958 . S
C631 H646 0.961 . S
C631 H647 0.960 . S
H632 C616 0.931 . S
H633 C621 0.929 . S
H634 C622 0.960 . S
H635 C622 0.962 . S
H636 C622 0.960 . S
H637 C623 0.961 . S
H638 C623 0.961 . S
H639 C623 0.961 . S
H640 C624 0.931 . S
H641 C629 0.930 . S
H642 C630 0.956 . S
H643 C630 0.961 . S
H644 C630 0.961 . S
H645 C631 0.958 . S
H646 C631 0.961 . S
H647 C631 0.960 . S
C648 C649 1.391 . S
C648 C650 1.394 . S
C648 H664 0.931 . S
C649 C648 1.391 . S
C649 C653 1.376 . S
C650 C648 1.394 . S
C650 C651 1.369 . S
C650 C654 1.531 . S
C651 C650 1.369 . S
C651 C652 1.410 . S
C651 C659 1.503 . S
C652 C651 1.410 . S
C652 C653 1.392 . S
C652 C655 1.511 . S
C653 C649 1.376 . S
C653 C652 1.392 . S
C653 H665 0.929 . S
C654 C650 1.531 . S
C654 H666 0.960 . S
C654 H667 0.962 . S
C654 H668 0.960 . S
C655 C652 1.511 . S
C655 H669 0.961 . S
C655 H670 0.961 . S
C655 H671 0.961 . S
C656 C657 1.370 . S
C656 C658 1.363 . S
C656 H672 0.931 . S
C657 C656 1.370 . S
C657 C661 1.408 . S
C658 C656 1.363 . S
C658 C659 1.370 . S
C658 C662 1.524 . S
C659 C651 1.503 . S
C659 C658 1.370 . S
C659 C660 1.403 . S
C660 C659 1.403 . S
C660 C661 1.404 . S
C660 C663 1.539 . S
C661 C657 1.408 . S
C661 C660 1.404 . S
C661 H673 0.930 . S
C662 C658 1.524 . S
C662 H674 0.956 . S
C662 H675 0.961 . S
C662 H676 0.961 . S
C663 C660 1.539 . S
C663 H677 0.958 . S
C663 H678 0.961 . S
C663 H679 0.960 . S
H664 C648 0.931 . S
H665 C653 0.929 . S
H666 C654 0.960 . S
H667 C654 0.962 . S
H668 C654 0.960 . S
H669 C655 0.961 . S
H670 C655 0.961 . S
H671 C655 0.961 . S
H672 C656 0.931 . S
H673 C661 0.930 . S
H674 C662 0.956 . S
H675 C662 0.961 . S
H676 C662 0.961 . S
H677 C663 0.958 . S
H678 C663 0.961 . S
H679 C663 0.960 . S
C680 C681 1.391 . S
C680 C682 1.394 . S
C680 H696 0.931 . S
C681 C680 1.391 . S
C681 C685 1.376 . S
C682 C680 1.394 . S
C682 C683 1.369 . S
C682 C686 1.531 . S
C683 C682 1.369 . S
C683 C684 1.410 . S
C683 C691 1.503 . S
C684 C683 1.410 . S
C684 C685 1.392 . S
C684 C687 1.511 . S
C685 C681 1.376 . S
C685 C684 1.392 . S
C685 H697 0.929 . S
C686 C682 1.531 . S
C686 H698 0.960 . S
C686 H699 0.962 . S
C686 H700 0.960 . S
C687 C684 1.511 . S
C687 H701 0.961 . S
C687 H702 0.961 . S
C687 H703 0.961 . S
C688 C689 1.370 . S
C688 C690 1.363 . S
C688 H704 0.931 . S
C689 C688 1.370 . S
C689 C693 1.408 . S
C690 C688 1.363 . S
C690 C691 1.370 . S
C690 C694 1.524 . S
C691 C683 1.503 . S
C691 C690 1.370 . S
C691 C692 1.403 . S
C692 C691 1.403 . S
C692 C693 1.404 . S
C692 C695 1.539 . S
C693 C689 1.408 . S
C693 C692 1.404 . S
C693 H705 0.930 . S
C694 C690 1.524 . S
C694 H706 0.956 . S
C694 H707 0.961 . S
C694 H708 0.961 . S
C695 C692 1.539 . S
C695 H709 0.958 . S
C695 H710 0.961 . S
C695 H711 0.960 . S
H696 C680 0.931 . S
H697 C685 0.929 . S
H698 C686 0.960 . S
H699 C686 0.962 . S
H700 C686 0.960 . S
H701 C687 0.961 . S
H702 C687 0.961 . S
H703 C687 0.961 . S
H704 C688 0.931 . S
H705 C693 0.930 . S
H706 C694 0.956 . S
H707 C694 0.961 . S
H708 C694 0.961 . S
H709 C695 0.958 . S
H710 C695 0.961 . S
H711 C695 0.960 . S
C712 C713 1.391 . S
C712 C714 1.394 . S
C712 H728 0.931 . S
C713 C712 1.391 . S
C713 C717 1.376 . S
C714 C712 1.394 . S
C714 C715 1.369 . S
C714 C718 1.531 . S
C715 C714 1.369 . S
C715 C716 1.410 . S
C715 C723 1.503 . S
C716 C715 1.410 . S
C716 C717 1.392 . S
C716 C719 1.511 . S
C717 C713 1.376 . S
C717 C716 1.392 . S
C717 H729 0.929 . S
C718 C714 1.531 . S
C718 H730 0.960 . S
C718 H731 0.962 . S
C718 H732 0.960 . S
C719 C716 1.511 . S
C719 H733 0.961 . S
C719 H734 0.961 . S
C719 H735 0.961 . S
C720 C721 1.370 . S
C720 C722 1.363 . S
C720 H736 0.931 . S
C721 C720 1.370 . S
C721 C725 1.408 . S
C722 C720 1.363 . S
C722 C723 1.370 . S
C722 C726 1.524 . S
C723 C715 1.503 . S
C723 C722 1.370 . S
C723 C724 1.403 . S
C724 C723 1.403 . S
C724 C725 1.404 . S
C724 C727 1.539 . S
C725 C721 1.408 . S
C725 C724 1.404 . S
C725 H737 0.930 . S
C726 C722 1.524 . S
C726 H738 0.956 . S
C726 H739 0.961 . S
C726 H740 0.961 . S
C727 C724 1.539 . S
C727 H741 0.958 . S
C727 H742 0.961 . S
C727 H743 0.960 . S
H728 C712 0.931 . S
H729 C717 0.929 . S
H730 C718 0.960 . S
H731 C718 0.962 . S
H732 C718 0.960 . S
H733 C719 0.961 . S
H734 C719 0.961 . S
H735 C719 0.961 . S
H736 C720 0.931 . S
H737 C725 0.930 . S
H738 C726 0.956 . S
H739 C726 0.961 . S
H740 C726 0.961 . S
H741 C727 0.958 . S
H742 C727 0.961 . S
H743 C727 0.960 . S
C744 C745 1.391 . S
C744 C746 1.394 1_655 S
C744 H760 0.931 . S
C745 C744 1.391 . S
C745 C749 1.376 . S
C746 C744 1.394 1_455 S
C746 C747 1.369 . S
C746 C750 1.531 . S
C747 C746 1.369 . S
C747 C748 1.410 1_455 S
C747 C755 1.503 . S
C748 C747 1.410 1_655 S
C748 C749 1.397 . S
C748 C751 1.506 1_655 S
C749 C745 1.376 . S
C749 C748 1.397 . S
C749 H761 0.929 . S
C750 C746 1.531 . S
C750 H762 0.960 . S
C750 H763 0.962 . S
C750 H764 0.960 . S
C751 C748 1.506 1_455 S
C751 H765 0.961 . S
C751 H766 0.961 . S
C751 H767 0.961 . S
C752 C753 1.370 . S
C752 C754 1.363 . S
C752 H768 0.931 . S
C753 C752 1.370 . S
C753 C757 1.408 . S
C754 C752 1.363 . S
C754 C755 1.370 . S
C754 C758 1.524 1_554 S
C755 C747 1.503 . S
C755 C754 1.370 . S
C755 C756 1.403 . S
C756 C755 1.403 . S
C756 C757 1.404 . S
C756 C759 1.539 . S
C757 C753 1.408 . S
C757 C756 1.404 . S
C757 H769 0.930 . S
C758 C754 1.524 1_556 S
C758 H770 0.956 . S
C758 H771 0.961 . S
C758 H772 0.961 . S
C759 C756 1.539 . S
C759 H773 0.958 . S
C759 H774 0.961 . S
C759 H775 0.960 . S
H760 C744 0.931 . S
H761 C749 0.929 . S
H762 C750 0.960 . S
H763 C750 0.962 . S
H764 C750 0.960 . S
H765 C751 0.961 . S
H766 C751 0.961 . S
H767 C751 0.961 . S
H768 C752 0.931 . S
H769 C757 0.930 . S
H770 C758 0.956 . S
H771 C758 0.961 . S
H772 C758 0.961 . S
H773 C759 0.958 . S
H774 C759 0.961 . S
H775 C759 0.960 . S
C776 C777 1.391 . S
C776 C778 1.394 1_556 S
C776 H792 0.931 . S
C777 C776 1.391 . S
C777 C781 1.376 1_556 S
C778 C776 1.394 1_554 S
C778 C779 1.369 . S
C778 C782 1.531 . S
C779 C778 1.369 . S
C779 C780 1.410 . S
C779 C787 1.503 . S
C780 C779 1.410 . S
C780 C781 1.392 . S
C780 C783 1.511 . S
C781 C777 1.376 1_554 S
C781 C780 1.392 . S
C781 H793 0.929 . S
C782 C778 1.531 . S
C782 H794 0.960 . S
C782 H795 0.962 . S
C782 H796 0.960 1_554 S
C783 C780 1.511 . S
C783 H797 0.961 . S
C783 H798 0.961 . S
C783 H799 0.961 . S
C784 C785 1.370 . S
C784 C786 1.363 . S
C784 H800 0.931 . S
C785 C784 1.370 . S
C785 C789 1.408 . S
C786 C784 1.363 . S
C786 C787 1.370 . S
C786 C790 1.524 . S
C787 C779 1.503 . S
C787 C786 1.370 . S
C787 C788 1.403 . S
C788 C787 1.403 . S
C788 C789 1.404 . S
C788 C791 1.539 1_554 S
C789 C785 1.408 . S
C789 C788 1.404 . S
C789 H801 0.930 . S
C790 C786 1.524 . S
C790 H802 0.956 . S
C790 H803 0.961 . S
C790 H804 0.961 . S
C791 C788 1.539 1_556 S
C791 H805 0.958 . S
C791 H806 0.961 . S
C791 H807 0.960 . S
H792 C776 0.931 . S
H793 C781 0.929 . S
H794 C782 0.960 . S
H795 C782 0.962 . S
H796 C782 0.960 1_556 S
H797 C783 0.961 . S
H798 C783 0.961 . S
H799 C783 0.961 . S
H800 C784 0.931 . S
H801 C789 0.930 . S
H802 C790 0.956 . S
H803 C790 0.961 . S
H804 C790 0.961 . S
H805 C791 0.958 . S
H806 C791 0.961 . S
H807 C791 0.960 . S
C808 C809 1.391 1_556 S
C808 C810 1.394 . S
C808 H824 0.931 . S
C809 C808 1.391 1_554 S
C809 C813 1.376 . S
C810 C808 1.394 . S
C810 C811 1.369 1_556 S
C810 C814 1.531 1_545 S
C811 C810 1.369 1_554 S
C811 C812 1.410 . S
C811 C819 1.503 1_545 S
C812 C811 1.410 . S
C812 C813 1.392 . S
C812 C815 1.511 . S
C813 C809 1.376 . S
C813 C812 1.392 . S
C813 H825 0.929 . S
C814 C810 1.531 1_565 S
C814 H826 0.960 . S
C814 H827 0.962 . S
C814 H828 0.960 . S
C815 C812 1.511 . S
C815 H829 0.961 . S
C815 H830 0.961 . S
C815 H831 0.961 . S
C816 C817 1.370 . S
C816 C818 1.363 . S
C816 H832 0.931 . S
C817 C816 1.370 . S
C817 C821 1.408 . S
C818 C816 1.363 . S
C818 C819 1.370 . S
C818 C822 1.524 1_565 S
C819 C811 1.503 1_565 S
C819 C818 1.370 . S
C819 C820 1.403 . S
C820 C819 1.403 . S
C820 C821 1.404 . S
C820 C823 1.539 . S
C821 C817 1.408 . S
C821 C820 1.404 . S
C821 H833 0.930 . S
C822 C818 1.524 1_545 S
C822 H834 0.956 . S
C822 H835 0.961 . S
C822 H836 0.961 1_545 S
C823 C820 1.539 . S
C823 H837 0.958 . S
C823 H838 0.961 . S
C823 H839 0.960 . S
H824 C808 0.931 . S
H825 C813 0.929 . S
H826 C814 0.960 . S
H827 C814 0.962 . S
H828 C814 0.960 . S
H829 C815 0.961 . S
H830 C815 0.961 . S
H831 C815 0.961 . S
H832 C816 0.931 . S
H833 C821 0.930 . S
H834 C822 0.956 . S
H835 C822 0.961 . S
H836 C822 0.961 1_565 S
H837 C823 0.958 . S
H838 C823 0.961 . S
H839 C823 0.960 . S
C840 C841 1.391 . S
C840 C842 1.394 . S
C840 H856 0.931 . S
C841 C840 1.391 . S
C841 C845 1.376 . S
C842 C840 1.394 . S
C842 C843 1.369 . S
C842 C846 1.531 . S
C843 C842 1.369 . S
C843 C844 1.410 . S
C843 C851 1.503 . S
C844 C843 1.410 . S
C844 C845 1.392 . S
C844 C847 1.511 . S
C845 C841 1.376 . S
C845 C844 1.392 . S
C845 H857 0.929 . S
C846 C842 1.531 . S
C846 H858 0.960 1_556 S
C846 H859 0.962 . S
C846 H860 0.960 1_556 S
C847 C844 1.511 . S
C847 H861 0.961 . S
C847 H862 0.961 . S
C847 H863 0.961 . S
C848 C849 1.370 . S
C848 C850 1.314 1_565 S
C848 H864 0.931 . S
C849 C848 1.370 . S
C849 C853 1.408 1_556 S
C850 C848 1.314 1_545 S
C850 C851 1.427 . S
C850 C854 1.518 . S
C851 C843 1.503 . S
C851 C850 1.427 . S
C851 C852 1.403 1_556 S
C852 C851 1.403 1_554 S
C852 C853 1.404 1_545 S
C852 C855 1.539 . S
C853 C849 1.408 1_554 S
C853 C852 1.404 1_565 S
C853 H865 0.930 . S
C854 C850 1.518 . S
C854 H866 0.956 . S
C854 H867 0.961 . S
C854 H868 0.961 1_545 S
C855 C852 1.539 . S
C855 H869 0.958 . S
C855 H870 0.961 . S
C855 H871 0.959 1_554 S
H856 C840 0.931 . S
H857 C845 0.929 . S
H858 C846 0.960 1_554 S
H859 C846 0.962 . S
H860 C846 0.960 1_554 S
H861 C847 0.961 . S
H862 C847 0.961 . S
H863 C847 0.961 . S
H864 C848 0.931 . S
H865 C853 0.930 . S
H866 C854 0.956 . S
H867 C854 0.961 . S
H868 C854 0.961 1_565 S
H869 C855 0.958 . S
H870 C855 0.961 . S
H871 C855 0.959 1_556 S
C872 C873 1.391 . S
C872 C874 1.394 . S
C872 H888 0.931 . S
C873 C872 1.391 . S
C873 C877 1.376 . S
C874 C872 1.394 . S
C874 C875 1.369 . S
C874 C878 1.531 . S
C875 C874 1.369 . S
C875 C876 1.410 . S
C875 C883 1.503 1_455 S
C876 C875 1.410 . S
C876 C877 1.392 . S
C876 C879 1.511 . S
C877 C873 1.376 . S
C877 C876 1.392 . S
C877 H889 0.929 . S
C878 C874 1.531 . S
C878 H890 0.960 . S
C878 H891 0.962 . S
C878 H892 0.960 . S
C879 C876 1.511 . S
C879 H893 0.961 . S
C879 H894 0.957 . S
C879 H895 0.961 . S
C880 C881 1.370 . S
C880 C882 1.363 . S
C880 H896 0.931 . S
C881 C880 1.370 . S
C881 C885 1.408 . S
C882 C880 1.363 . S
C882 C883 1.370 . S
C882 C886 1.524 1_556 S
C883 C875 1.503 1_655 S
C883 C882 1.370 . S
C883 C884 1.403 . S
C884 C883 1.403 . S
C884 C885 1.404 . S
C884 C887 1.539 1_655 S
C885 C881 1.408 . S
C885 C884 1.404 . S
C885 H897 0.930 . S
C886 C882 1.524 1_554 S
C886 H898 0.956 . S
C886 H899 0.961 . S
C886 H900 0.961 . S
C887 C884 1.539 1_455 S
C887 H901 0.958 . S
C887 H902 0.961 . S
C887 H903 0.960 . S
H888 C872 0.931 . S
H889 C877 0.929 . S
H890 C878 0.960 . S
H891 C878 0.962 . S
H892 C878 0.960 . S
H893 C879 0.961 . S
H894 C879 0.957 . S
H895 C879 0.961 . S
H896 C880 0.931 . S
H897 C885 0.930 . S
H898 C886 0.956 . S
H899 C886 0.961 . S
H900 C886 0.961 . S
H901 C887 0.958 . S
H902 C887 0.961 . S
H903 C887 0.960 . S
C904 C905 1.391 1_556 S
C904 C906 1.394 . S
C904 H920 0.931 . S
C905 C904 1.391 1_554 S
C905 C909 1.376 1_554 S
C906 C904 1.394 . S
C906 C907 1.369 . S
C906 C910 1.531 . S
C907 C906 1.369 . S
C907 C908 1.410 . S
C907 C915 1.503 . S
C908 C907 1.410 . S
C908 C909 1.392 . S
C908 C911 1.511 . S
C909 C905 1.376 1_556 S
C909 C908 1.392 . S
C909 H921 0.929 1_556 S
C910 C906 1.531 . S
C910 H922 0.960 . S
C910 H923 0.962 . S
C910 H924 0.960 . S
C911 C908 1.511 . S
C911 H925 0.961 . S
C911 H926 0.961 . S
C911 H927 0.972 . S
C912 C913 1.370 . S
C912 C914 1.363 . S
C912 H928 0.931 . S
C913 C912 1.370 . S
C913 C917 1.408 . S
C914 C912 1.363 . S
C914 C915 1.370 . S
C914 C918 1.524 . S
C915 C907 1.503 . S
C915 C914 1.370 . S
C915 C916 1.403 . S
C916 C915 1.403 . S
C916 C917 1.404 . S
C916 C919 1.539 1_556 S
C917 C913 1.408 . S
C917 C916 1.404 . S
C917 H929 0.930 . S
C918 C914 1.524 . S
C918 H930 0.956 . S
C918 H931 0.961 . S
C918 H932 0.961 . S
C919 C916 1.539 1_554 S
C919 H933 0.958 . S
C919 H934 0.961 . S
C919 H935 0.960 . S
H920 C904 0.931 . S
H921 C909 0.929 1_554 S
H922 C910 0.960 . S
H923 C910 0.962 . S
H924 C910 0.960 . S
H925 C911 0.961 . S
H926 C911 0.961 . S
H927 C911 0.972 . S
H928 C912 0.931 . S
H929 C917 0.930 . S
H930 C918 0.956 . S
H931 C918 0.961 . S
H932 C918 0.961 . S
H933 C919 0.958 . S
H934 C919 0.961 . S
H935 C919 0.960 . S
C936 C937 1.391 . S
C936 C938 1.394 . S
C936 H952 0.931 . S
C937 C936 1.391 . S
C937 C941 1.376 . S
C938 C936 1.394 . S
C938 C939 1.369 . S
C938 C942 1.531 . S
C939 C938 1.369 . S
C939 C940 1.410 . S
C939 C947 1.503 . S
C940 C939 1.410 . S
C940 C941 1.392 . S
C940 C943 1.511 . S
C941 C937 1.376 . S
C941 C940 1.392 . S
C941 H953 0.929 . S
C942 C938 1.531 . S
C942 H954 0.960 . S
C942 H955 0.962 . S
C942 H956 0.960 . S
C943 C940 1.511 . S
C943 H957 0.961 . S
C943 H958 0.961 . S
C943 H959 0.961 . S
C944 C945 1.370 . S
C944 C946 1.363 . S
C944 H960 0.931 . S
C945 C944 1.370 . S
C945 C949 1.408 . S
C946 C944 1.363 . S
C946 C947 1.370 . S
C946 C950 1.524 . S
C947 C939 1.503 . S
C947 C946 1.370 . S
C947 C948 1.403 . S
C948 C947 1.403 . S
C948 C949 1.404 . S
C948 C951 1.539 . S
C949 C945 1.408 . S
C949 C948 1.404 . S
C949 H961 0.930 . S
C950 C946 1.524 . S
C950 H962 0.956 . S
C950 H963 0.961 . S
C950 H964 0.961 . S
C951 C948 1.539 . S
C951 H965 0.958 . S
C951 H966 0.961 . S
C951 H967 0.960 . S
H952 C936 0.931 . S
H953 C941 0.929 . S
H954 C942 0.960 . S
H955 C942 0.962 . S
H956 C942 0.960 . S
H957 C943 0.961 . S
H958 C943 0.961 . S
H959 C943 0.961 . S
H960 C944 0.931 . S
H961 C949 0.930 . S
H962 C950 0.956 . S
H963 C950 0.961 . S
H964 C950 0.961 . S
H965 C951 0.958 . S
H966 C951 0.961 . S
H967 C951 0.960 . S
C968 C969 1.391 . S
C968 C970 1.394 . S
C968 H984 0.931 . S
C969 C968 1.391 . S
C969 C973 1.376 . S
C970 C968 1.394 . S
C970 C971 1.369 . S
C970 C974 1.531 . S
C971 C970 1.369 . S
C971 C972 1.410 . S
C971 C979 1.503 . S
C972 C971 1.410 . S
C972 C973 1.392 . S
C972 C975 1.511 . S
C973 C969 1.376 . S
C973 C972 1.392 . S
C973 H985 0.929 . S
C974 C970 1.531 . S
C974 H986 0.960 . S
C974 H987 0.962 . S
C974 H988 0.960 . S
C975 C972 1.511 . S
C975 H989 0.961 . S
C975 H990 0.961 . S
C975 H991 0.961 . S
C976 C977 1.370 . S
C976 C978 1.363 . S
C976 H992 0.931 . S
C977 C976 1.370 . S
C977 C981 1.408 . S
C978 C976 1.363 . S
C978 C979 1.370 . S
C978 C982 1.524 . S
C979 C971 1.503 . S
C979 C978 1.370 . S
C979 C980 1.403 . S
C980 C979 1.403 . S
C980 C981 1.404 . S
C980 C983 1.539 . S
C981 C977 1.408 . S
C981 C980 1.404 . S
C981 H993 0.930 . S
C982 C978 1.524 . S
C982 H994 0.956 . S
C982 H995 0.961 . S
C982 H996 0.961 . S
C983 C980 1.539 . S
C983 H997 0.958 . S
C983 H998 0.961 . S
C983 H999 0.960 . S
H984 C968 0.931 . S
H985 C973 0.929 . S
H986 C974 0.960 . S
H987 C974 0.962 . S
H988 C974 0.960 . S
H989 C975 0.961 . S
H990 C975 0.961 . S
H991 C975 0.961 . S
H992 C976 0.931 . S
H993 C981 0.930 . S
H994 C982 0.956 . S
H995 C982 0.961 . S
H996 C982 0.961 . S
H997 C983 0.958 . S
H998 C983 0.961 . S
H999 C983 0.960 . S
C1000 C1001 1.391 . S
C1000 C1002 1.394 . S
C1000 H1016 0.931 . S
C1001 C1000 1.391 . S
C1001 C1005 1.376 . S
C1002 C1000 1.394 . S
C1002 C1003 1.369 . S
C1002 C1006 1.531 . S
C1003 C1002 1.369 . S
C1003 C1004 1.410 . S
C1003 C1011 1.503 . S
C1004 C1003 1.410 . S
C1004 C1005 1.392 . S
C1004 C1007 1.511 . S
C1005 C1001 1.376 . S
C1005 C1004 1.392 . S
C1005 H1017 0.929 . S
C1006 C1002 1.531 . S
C1006 H1018 0.960 . S
C1006 H1019 0.962 . S
C1006 H1020 0.960 . S
C1007 C1004 1.511 . S
C1007 H1021 0.961 . S
C1007 H1022 0.961 . S
C1007 H1023 0.961 . S
C1008 C1009 1.370 . S
C1008 C1010 1.363 . S
C1008 H1024 0.931 . S
C1009 C1008 1.370 . S
C1009 C1013 1.408 . S
C1010 C1008 1.363 . S
C1010 C1011 1.370 . S
C1010 C1014 1.524 . S
C1011 C1003 1.503 . S
C1011 C1010 1.370 . S
C1011 C1012 1.403 . S
C1012 C1011 1.403 . S
C1012 C1013 1.404 . S
C1012 C1015 1.539 . S
C1013 C1009 1.408 . S
C1013 C1012 1.404 . S
C1013 H1025 0.930 . S
C1014 C1010 1.524 . S
C1014 H1026 0.956 . S
C1014 H1027 0.961 . S
C1014 H1028 0.961 . S
C1015 C1012 1.539 . S
C1015 H1029 0.958 . S
C1015 H1030 0.961 . S
C1015 H1031 0.960 . S
H1016 C1000 0.931 . S
H1017 C1005 0.929 . S
H1018 C1006 0.960 . S
H1019 C1006 0.962 . S
H1020 C1006 0.960 . S
H1021 C1007 0.961 . S
H1022 C1007 0.961 . S
H1023 C1007 0.961 . S
H1024 C1008 0.931 . S
H1025 C1013 0.930 . S
H1026 C1014 0.956 . S
H1027 C1014 0.961 . S
H1028 C1014 0.961 . S
H1029 C1015 0.958 . S
H1030 C1015 0.961 . S
H1031 C1015 0.960 . S
C1032 C1033 1.391 . S
C1032 C1034 1.394 . S
C1032 H1048 0.931 . S
C1033 C1032 1.391 . S
C1033 C1037 1.376 . S
C1034 C1032 1.394 . S
C1034 C1035 1.369 . S
C1034 C1038 1.531 . S
C1035 C1034 1.369 . S
C1035 C1036 1.410 . S
C1035 C1043 1.503 . S
C1036 C1035 1.410 . S
C1036 C1037 1.392 . S
C1036 C1039 1.511 . S
C1037 C1033 1.376 . S
C1037 C1036 1.392 . S
C1037 H1049 0.929 . S
C1038 C1034 1.531 . S
C1038 H1050 0.960 . S
C1038 H1051 0.962 . S
C1038 H1052 0.960 . S
C1039 C1036 1.511 . S
C1039 H1053 0.961 . S
C1039 H1054 0.961 . S
C1039 H1055 0.961 . S
C1040 C1041 1.370 . S
C1040 C1042 1.363 . S
C1040 H1056 0.931 . S
C1041 C1040 1.370 . S
C1041 C1045 1.408 . S
C1042 C1040 1.363 . S
C1042 C1043 1.370 . S
C1042 C1046 1.524 . S
C1043 C1035 1.503 . S
C1043 C1042 1.370 . S
C1043 C1044 1.403 . S
C1044 C1043 1.403 . S
C1044 C1045 1.404 . S
C1044 C1047 1.539 . S
C1045 C1041 1.408 . S
C1045 C1044 1.404 . S
C1045 H1057 0.930 . S
C1046 C1042 1.524 . S
C1046 H1058 0.956 . S
C1046 H1059 0.961 . S
C1046 H1060 0.961 . S
C1047 C1044 1.539 . S
C1047 H1061 0.958 . S
C1047 H1062 0.961 . S
C1047 H1063 0.960 . S
H1048 C1032 0.931 . S
H1049 C1037 0.929 . S
H1050 C1038 0.960 . S
H1051 C1038 0.962 . S
H1052 C1038 0.960 . S
H1053 C1039 0.961 . S
H1054 C1039 0.961 . S
H1055 C1039 0.961 . S
H1056 C1040 0.931 . S
H1057 C1045 0.930 . S
H1058 C1046 0.956 . S
H1059 C1046 0.961 . S
H1060 C1046 0.961 . S
H1061 C1047 0.958 . S
H1062 C1047 0.961 . S
H1063 C1047 0.960 . S
C1064 C1065 1.391 . S
C1064 C1066 1.394 . S
C1064 H1080 0.931 . S
C1065 C1064 1.391 . S
C1065 C1069 1.376 . S
C1066 C1064 1.394 . S
C1066 C1067 1.369 . S
C1066 C1070 1.531 . S
C1067 C1066 1.369 . S
C1067 C1068 1.410 . S
C1067 C1075 1.503 . S
C1068 C1067 1.410 . S
C1068 C1069 1.392 . S
C1068 C1071 1.511 . S
C1069 C1065 1.376 . S
C1069 C1068 1.392 . S
C1069 H1081 0.929 . S
C1070 C1066 1.531 . S
C1070 H1082 0.960 . S
C1070 H1083 0.962 . S
C1070 H1084 0.960 . S
C1071 C1068 1.511 . S
C1071 H1085 0.961 . S
C1071 H1086 0.961 . S
C1071 H1087 0.961 . S
C1072 C1073 1.370 . S
C1072 C1074 1.363 . S
C1072 H1088 0.931 . S
C1073 C1072 1.370 . S
C1073 C1077 1.408 . S
C1074 C1072 1.363 . S
C1074 C1075 1.370 . S
C1074 C1078 1.524 . S
C1075 C1067 1.503 . S
C1075 C1074 1.370 . S
C1075 C1076 1.403 . S
C1076 C1075 1.403 . S
C1076 C1077 1.404 . S
C1076 C1079 1.539 . S
C1077 C1073 1.408 . S
C1077 C1076 1.404 . S
C1077 H1089 0.930 . S
C1078 C1074 1.524 . S
C1078 H1090 0.956 . S
C1078 H1091 0.961 . S
C1078 H1092 0.961 . S
C1079 C1076 1.539 . S
C1079 H1093 0.958 . S
C1079 H1094 0.961 . S
C1079 H1095 0.960 . S
H1080 C1064 0.931 . S
H1081 C1069 0.929 . S
H1082 C1070 0.960 . S
H1083 C1070 0.962 . S
H1084 C1070 0.960 . S
H1085 C1071 0.961 . S
H1086 C1071 0.961 . S
H1087 C1071 0.961 . S
H1088 C1072 0.931 . S
H1089 C1077 0.930 . S
H1090 C1078 0.956 . S
H1091 C1078 0.961 . S
H1092 C1078 0.961 . S
H1093 C1079 0.958 . S
H1094 C1079 0.961 . S
H1095 C1079 0.960 . S
C1096 C1097 1.391 . S
C1096 C1098 1.394 . S
C1096 H1112 0.931 . S
C1097 C1096 1.391 . S
C1097 C1101 1.376 . S
C1098 C1096 1.394 . S
C1098 C1099 1.369 . S
C1098 C1102 1.531 . S
C1099 C1098 1.369 . S
C1099 C1100 1.410 . S
C1099 C1107 1.503 . S
C1100 C1099 1.410 . S
C1100 C1101 1.392 . S
C1100 C1103 1.511 . S
C1101 C1097 1.376 . S
C1101 C1100 1.392 . S
C1101 H1113 0.929 . S
C1102 C1098 1.531 . S
C1102 H1114 0.960 . S
C1102 H1115 0.962 . S
C1102 H1116 0.960 . S
C1103 C1100 1.511 . S
C1103 H1117 0.961 . S
C1103 H1118 0.961 . S
C1103 H1119 0.961 . S
C1104 C1105 1.370 . S
C1104 C1106 1.363 . S
C1104 H1120 0.931 . S
C1105 C1104 1.370 . S
C1105 C1109 1.408 . S
C1106 C1104 1.363 . S
C1106 C1107 1.370 . S
C1106 C1110 1.524 . S
C1107 C1099 1.503 . S
C1107 C1106 1.370 . S
C1107 C1108 1.403 . S
C1108 C1107 1.403 . S
C1108 C1109 1.404 . S
C1108 C1111 1.539 . S
C1109 C1105 1.408 . S
C1109 C1108 1.404 . S
C1109 H1121 0.930 . S
C1110 C1106 1.524 . S
C1110 H1122 0.956 . S
C1110 H1123 0.961 . S
C1110 H1124 0.961 . S
C1111 C1108 1.539 . S
C1111 H1125 0.958 . S
C1111 H1126 0.961 . S
C1111 H1127 0.960 . S
H1112 C1096 0.931 . S
H1113 C1101 0.929 . S
H1114 C1102 0.960 . S
H1115 C1102 0.962 . S
H1116 C1102 0.960 . S
H1117 C1103 0.961 . S
H1118 C1103 0.961 . S
H1119 C1103 0.961 . S
H1120 C1104 0.931 . S
H1121 C1109 0.930 . S
H1122 C1110 0.956 . S
H1123 C1110 0.961 . S
H1124 C1110 0.961 . S
H1125 C1111 0.958 . S
H1126 C1111 0.961 . S
H1127 C1111 0.960 . S
C1128 C1129 1.391 . S
C1128 C1130 1.394 . S
C1128 H1144 0.931 . S
C1129 C1128 1.391 . S
C1129 C1133 1.376 . S
C1130 C1128 1.394 . S
C1130 C1131 1.369 . S
C1130 C1134 1.531 . S
C1131 C1130 1.369 . S
C1131 C1132 1.410 . S
C1131 C1139 1.503 . S
C1132 C1131 1.410 . S
C1132 C1133 1.392 . S
C1132 C1135 1.511 . S
C1133 C1129 1.376 . S
C1133 C1132 1.392 . S
C1133 H1145 0.929 . S
C1134 C1130 1.531 . S
C1134 H1146 0.960 . S
C1134 H1147 0.962 . S
C1134 H1148 0.960 . S
C1135 C1132 1.511 . S
C1135 H1149 0.961 . S
C1135 H1150 0.961 . S
C1135 H1151 0.961 . S
C1136 C1137 1.370 . S
C1136 C1138 1.363 . S
C1136 H1152 0.931 . S
C1137 C1136 1.370 . S
C1137 C1141 1.408 . S
C1138 C1136 1.363 . S
C1138 C1139 1.370 . S
C1138 C1142 1.524 . S
C1139 C1131 1.503 . S
C1139 C1138 1.370 . S
C1139 C1140 1.403 . S
C1140 C1139 1.403 . S
C1140 C1141 1.404 . S
C1140 C1143 1.539 . S
C1141 C1137 1.408 . S
C1141 C1140 1.404 . S
C1141 H1153 0.930 . S
C1142 C1138 1.524 . S
C1142 H1154 0.956 . S
C1142 H1155 0.961 . S
C1142 H1156 0.961 . S
C1143 C1140 1.539 . S
C1143 H1157 0.958 . S
C1143 H1158 0.961 . S
C1143 H1159 0.960 . S
H1144 C1128 0.931 . S
H1145 C1133 0.929 . S
H1146 C1134 0.960 . S
H1147 C1134 0.962 . S
H1148 C1134 0.960 . S
H1149 C1135 0.961 . S
H1150 C1135 0.961 . S
H1151 C1135 0.961 . S
H1152 C1136 0.931 . S
H1153 C1141 0.930 . S
H1154 C1142 0.956 . S
H1155 C1142 0.961 . S
H1156 C1142 0.961 . S
H1157 C1143 0.958 . S
H1158 C1143 0.961 . S
H1159 C1143 0.960 . S
C1160 C1161 1.391 . S
C1160 C1162 1.394 . S
C1160 H1176 0.931 . S
C1161 C1160 1.391 . S
C1161 C1165 1.376 . S
C1162 C1160 1.394 . S
C1162 C1163 1.369 . S
C1162 C1166 1.531 . S
C1163 C1162 1.369 . S
C1163 C1164 1.410 . S
C1163 C1171 1.503 . S
C1164 C1163 1.410 . S
C1164 C1165 1.392 . S
C1164 C1167 1.511 . S
C1165 C1161 1.376 . S
C1165 C1164 1.392 . S
C1165 H1177 0.929 . S
C1166 C1162 1.531 . S
C1166 H1178 0.960 . S
C1166 H1179 0.962 . S
C1166 H1180 0.960 . S
C1167 C1164 1.511 . S
C1167 H1181 0.961 . S
C1167 H1182 0.961 . S
C1167 H1183 0.961 . S
C1168 C1169 1.370 . S
C1168 C1170 1.363 . S
C1168 H1184 0.931 . S
C1169 C1168 1.370 . S
C1169 C1173 1.408 . S
C1170 C1168 1.363 . S
C1170 C1171 1.370 . S
C1170 C1174 1.524 . S
C1171 C1163 1.503 . S
C1171 C1170 1.370 . S
C1171 C1172 1.403 . S
C1172 C1171 1.403 . S
C1172 C1173 1.404 . S
C1172 C1175 1.539 . S
C1173 C1169 1.408 . S
C1173 C1172 1.404 . S
C1173 H1185 0.930 . S
C1174 C1170 1.524 . S
C1174 H1186 0.956 . S
C1174 H1187 0.961 . S
C1174 H1188 0.961 . S
C1175 C1172 1.539 . S
C1175 H1189 0.958 . S
C1175 H1190 0.961 . S
C1175 H1191 0.960 . S
H1176 C1160 0.931 . S
H1177 C1165 0.929 . S
H1178 C1166 0.960 . S
H1179 C1166 0.962 . S
H1180 C1166 0.960 . S
H1181 C1167 0.961 . S
H1182 C1167 0.961 . S
H1183 C1167 0.961 . S
H1184 C1168 0.931 . S
H1185 C1173 0.930 . S
H1186 C1174 0.956 . S
H1187 C1174 0.961 . S
H1188 C1174 0.961 . S
H1189 C1175 0.958 . S
H1190 C1175 0.961 . S
H1191 C1175 0.960 . S
C1192 C1193 1.391 . S
C1192 C1194 1.394 . S
C1192 H1208 0.931 . S
C1193 C1192 1.391 . S
C1193 C1197 1.376 . S
C1194 C1192 1.394 . S
C1194 C1195 1.369 . S
C1194 C1198 1.531 . S
C1195 C1194 1.369 . S
C1195 C1196 1.410 . S
C1195 C1203 1.503 . S
C1196 C1195 1.410 . S
C1196 C1197 1.392 . S
C1196 C1199 1.511 . S
C1197 C1193 1.376 . S
C1197 C1196 1.392 . S
C1197 H1209 0.929 . S
C1198 C1194 1.531 . S
C1198 H1210 0.960 . S
C1198 H1211 0.962 . S
C1198 H1212 0.960 . S
C1199 C1196 1.511 . S
C1199 H1213 0.961 . S
C1199 H1214 0.961 . S
C1199 H1215 0.961 . S
C1200 C1201 1.370 . S
C1200 C1202 1.363 . S
C1200 H1216 0.931 . S
C1201 C1200 1.370 . S
C1201 C1205 1.408 . S
C1202 C1200 1.363 . S
C1202 C1203 1.370 . S
C1202 C1206 1.524 . S
C1203 C1195 1.503 . S
C1203 C1202 1.370 . S
C1203 C1204 1.403 . S
C1204 C1203 1.403 . S
C1204 C1205 1.404 . S
C1204 C1207 1.539 . S
C1205 C1201 1.408 . S
C1205 C1204 1.404 . S
C1205 H1217 0.930 . S
C1206 C1202 1.524 . S
C1206 H1218 0.956 . S
C1206 H1219 0.961 . S
C1206 H1220 0.961 . S
C1207 C1204 1.539 . S
C1207 H1221 0.958 . S
C1207 H1222 0.961 . S
C1207 H1223 0.960 . S
H1208 C1192 0.931 . S
H1209 C1197 0.929 . S
H1210 C1198 0.960 . S
H1211 C1198 0.962 . S
H1212 C1198 0.960 . S
H1213 C1199 0.961 . S
H1214 C1199 0.961 . S
H1215 C1199 0.961 . S
H1216 C1200 0.931 . S
H1217 C1205 0.930 . S
H1218 C1206 0.956 . S
H1219 C1206 0.961 . S
H1220 C1206 0.961 . S
H1221 C1207 0.958 . S
H1222 C1207 0.961 . S
H1223 C1207 0.960 . S
C1224 C1225 1.391 . S
C1224 C1226 1.394 . S
C1224 H1240 0.931 . S
C1225 C1224 1.391 . S
C1225 C1229 1.376 . S
C1226 C1224 1.394 . S
C1226 C1227 1.369 . S
C1226 C1230 1.531 . S
C1227 C1226 1.369 . S
C1227 C1228 1.410 . S
C1227 C1235 1.503 . S
C1228 C1227 1.410 . S
C1228 C1229 1.392 . S
C1228 C1231 1.511 1_556 S
C1229 C1225 1.376 . S
C1229 C1228 1.392 . S
C1229 H1241 0.929 . S
C1230 C1226 1.531 . S
C1230 H1242 0.960 . S
C1230 H1243 0.962 . S
C1230 H1244 0.960 . S
C1231 C1228 1.511 1_554 S
C1231 H1245 0.961 . S
C1231 H1246 0.961 . S
C1231 H1247 0.961 . S
C1232 C1233 1.370 . S
C1232 C1234 1.363 . S
C1232 H1248 0.931 . S
C1233 C1232 1.370 . S
C1233 C1237 1.408 . S
C1234 C1232 1.363 . S
C1234 C1235 1.370 . S
C1234 C1238 1.524 . S
C1235 C1227 1.503 . S
C1235 C1234 1.370 . S
C1235 C1236 1.403 . S
C1236 C1235 1.403 . S
C1236 C1237 1.404 . S
C1236 C1239 1.539 . S
C1237 C1233 1.408 . S
C1237 C1236 1.404 . S
C1237 H1249 0.930 . S
C1238 C1234 1.524 . S
C1238 H1250 0.956 . S
C1238 H1251 0.961 . S
C1238 H1252 0.961 . S
C1239 C1236 1.539 . S
C1239 H1253 0.958 . S
C1239 H1254 0.961 1_556 S
C1239 H1255 0.960 . S
H1240 C1224 0.931 . S
H1241 C1229 0.929 . S
H1242 C1230 0.960 . S
H1243 C1230 0.962 . S
H1244 C1230 0.960 . S
H1245 C1231 0.961 . S
H1246 C1231 0.961 . S
H1247 C1231 0.961 . S
H1248 C1232 0.931 . S
H1249 C1237 0.930 . S
H1250 C1238 0.956 . S
H1251 C1238 0.961 . S
H1252 C1238 0.961 . S
H1253 C1239 0.958 . S
H1254 C1239 0.961 1_554 S
H1255 C1239 0.960 . S
C1256 C1257 1.391 . S
C1256 C1258 1.394 . S
C1256 H1272 0.931 . S
C1257 C1256 1.391 . S
C1257 C1261 1.376 . S
C1258 C1256 1.394 . S
C1258 C1259 1.369 . S
C1258 C1262 1.531 . S
C1259 C1258 1.369 . S
C1259 C1260 1.410 . S
C1259 C1267 1.503 . S
C1260 C1259 1.410 . S
C1260 C1261 1.392 . S
C1260 C1263 1.511 . S
C1261 C1257 1.376 . S
C1261 C1260 1.392 . S
C1261 H1273 0.929 . S
C1262 C1258 1.531 . S
C1262 H1274 0.960 . S
C1262 H1275 0.962 . S
C1262 H1276 0.960 . S
C1263 C1260 1.511 . S
C1263 H1277 0.961 . S
C1263 H1278 0.961 . S
C1263 H1279 0.961 . S
C1264 C1265 1.370 . S
C1264 C1266 1.363 . S
C1264 H1280 0.931 1_556 S
C1265 C1264 1.370 . S
C1265 C1269 1.408 . S
C1266 C1264 1.363 . S
C1266 C1267 1.370 . S
C1266 C1270 1.524 1_556 S
C1267 C1259 1.503 . S
C1267 C1266 1.370 . S
C1267 C1268 1.403 . S
C1268 C1267 1.403 . S
C1268 C1269 1.404 . S
C1268 C1271 1.539 . S
C1269 C1265 1.408 . S
C1269 C1268 1.404 . S
C1269 H1281 0.930 . S
C1270 C1266 1.524 1_554 S
C1270 H1282 0.956 . S
C1270 H1283 0.961 . S
C1270 H1284 0.961 . S
C1271 C1268 1.539 . S
C1271 H1285 0.958 . S
C1271 H1286 0.961 . S
C1271 H1287 0.960 . S
H1272 C1256 0.931 . S
H1273 C1261 0.929 . S
H1274 C1262 0.960 . S
H1275 C1262 0.962 . S
H1276 C1262 0.960 . S
H1277 C1263 0.961 . S
H1278 C1263 0.961 . S
H1279 C1263 0.961 . S
H1280 C1264 0.931 1_554 S
H1281 C1269 0.930 . S
H1282 C1270 0.956 . S
H1283 C1270 0.961 . S
H1284 C1270 0.961 . S
H1285 C1271 0.958 . S
H1286 C1271 0.961 . S
H1287 C1271 0.960 . S
C1288 C1289 1.391 . S
C1288 C1290 1.394 . S
C1288 H1304 0.931 . S
C1289 C1288 1.391 . S
C1289 C1293 1.376 . S
C1290 C1288 1.394 . S
C1290 C1291 1.369 . S
C1290 C1294 1.531 . S
C1291 C1290 1.369 . S
C1291 C1292 1.410 . S
C1291 C1299 1.503 . S
C1292 C1291 1.410 . S
C1292 C1293 1.392 . S
C1292 C1295 1.511 . S
C1293 C1289 1.376 . S
C1293 C1292 1.392 . S
C1293 H1305 0.929 . S
C1294 C1290 1.531 . S
C1294 H1306 0.960 . S
C1294 H1307 0.962 . S
C1294 H1308 0.960 . S
C1295 C1292 1.511 . S
C1295 H1309 0.961 . S
C1295 H1310 0.961 . S
C1295 H1311 0.961 1_556 S
C1296 C1297 1.370 . S
C1296 C1298 1.363 . S
C1296 H1312 0.931 . S
C1297 C1296 1.370 . S
C1297 C1301 1.408 . S
C1298 C1296 1.363 . S
C1298 C1299 1.370 . S
C1298 C1302 1.524 . S
C1299 C1291 1.503 . S
C1299 C1298 1.370 . S
C1299 C1300 1.403 . S
C1300 C1299 1.403 . S
C1300 C1301 1.404 . S
C1300 C1303 1.539 1_556 S
C1301 C1297 1.408 . S
C1301 C1300 1.404 . S
C1301 H1313 0.930 1_556 S
C1302 C1298 1.524 . S
C1302 H1314 0.956 . S
C1302 H1315 0.961 . S
C1302 H1316 0.961 . S
C1303 C1300 1.539 1_554 S
C1303 H1317 0.958 . S
C1303 H1318 0.961 . S
C1303 H1319 0.960 . S
H1304 C1288 0.931 . S
H1305 C1293 0.929 . S
H1306 C1294 0.960 . S
H1307 C1294 0.962 . S
H1308 C1294 0.960 . S
H1309 C1295 0.961 . S
H1310 C1295 0.961 . S
H1311 C1295 0.961 1_554 S
H1312 C1296 0.931 . S
H1313 C1301 0.930 1_554 S
H1314 C1302 0.956 . S
H1315 C1302 0.961 . S
H1316 C1302 0.961 . S
H1317 C1303 0.958 . S
H1318 C1303 0.961 . S
H1319 C1303 0.960 . S
C1320 C1321 1.391 . S
C1320 C1322 1.394 . S
C1320 H1336 0.931 1_554 S
C1321 C1320 1.391 . S
C1321 C1325 1.376 . S
C1322 C1320 1.394 . S
C1322 C1323 1.369 . S
C1322 C1326 1.531 1_554 S
C1323 C1322 1.369 . S
C1323 C1324 1.410 . S
C1323 C1331 1.503 . S
C1324 C1323 1.410 . S
C1324 C1325 1.392 . S
C1324 C1327 1.511 . S
C1325 C1321 1.376 . S
C1325 C1324 1.392 . S
C1325 H1337 0.929 . S
C1326 C1322 1.531 1_556 S
C1326 H1338 0.960 . S
C1326 H1339 0.962 . S
C1326 H1340 0.960 . S
C1327 C1324 1.511 . S
C1327 H1341 0.961 . S
C1327 H1342 0.961 . S
C1327 H1343 0.961 . S
C1328 C1329 1.370 . S
C1328 C1330 1.363 . S
C1328 H1344 0.931 . S
C1329 C1328 1.370 . S
C1329 C1333 1.408 . S
C1330 C1328 1.363 . S
C1330 C1331 1.370 . S
C1330 C1334 1.524 . S
C1331 C1323 1.503 . S
C1331 C1330 1.370 . S
C1331 C1332 1.403 . S
C1332 C1331 1.403 . S
C1332 C1333 1.404 . S
C1332 C1335 1.539 . S
C1333 C1329 1.408 . S
C1333 C1332 1.404 . S
C1333 H1345 0.930 . S
C1334 C1330 1.524 . S
C1334 H1346 0.956 . S
C1334 H1347 0.961 . S
C1334 H1348 0.961 . S
C1335 C1332 1.539 . S
C1335 H1349 0.958 . S
C1335 H1350 0.961 . S
C1335 H1351 0.960 . S
H1336 C1320 0.931 1_556 S
H1337 C1325 0.929 . S
H1338 C1326 0.960 . S
H1339 C1326 0.962 . S
H1340 C1326 0.960 . S
H1341 C1327 0.961 . S
H1342 C1327 0.961 . S
H1343 C1327 0.961 . S
H1344 C1328 0.931 . S
H1345 C1333 0.930 . S
H1346 C1334 0.956 . S
H1347 C1334 0.961 . S
H1348 C1334 0.961 . S
H1349 C1335 0.958 . S
H1350 C1335 0.961 . S
H1351 C1335 0.960 . S
C1352 C1353 1.391 . S
C1352 C1354 1.394 . S
C1352 H1368 0.931 . S
C1353 C1352 1.391 . S
C1353 C1357 1.376 . S
C1354 C1352 1.394 . S
C1354 C1355 1.369 . S
C1354 C1358 1.531 . S
C1355 C1354 1.369 . S
C1355 C1356 1.410 . S
C1355 C1363 1.503 . S
C1356 C1355 1.410 . S
C1356 C1357 1.392 . S
C1356 C1359 1.511 . S
C1357 C1353 1.376 . S
C1357 C1356 1.392 . S
C1357 H1369 0.929 . S
C1358 C1354 1.531 . S
C1358 H1370 0.960 . S
C1358 H1371 0.962 . S
C1358 H1372 0.960 . S
C1359 C1356 1.511 . S
C1359 H1373 0.961 . S
C1359 H1374 0.961 . S
C1359 H1375 0.961 . S
C1360 C1361 1.370 . S
C1360 C1362 1.363 . S
C1360 H1376 0.931 . S
C1361 C1360 1.370 . S
C1361 C1365 1.408 . S
C1362 C1360 1.363 . S
C1362 C1363 1.370 . S
C1362 C1366 1.524 . S
C1363 C1355 1.503 . S
C1363 C1362 1.370 . S
C1363 C1364 1.403 . S
C1364 C1363 1.403 . S
C1364 C1365 1.404 . S
C1364 C1367 1.539 1_554 S
C1365 C1361 1.408 . S
C1365 C1364 1.404 . S
C1365 H1377 0.930 . S
C1366 C1362 1.524 . S
C1366 H1378 0.956 . S
C1366 H1379 0.961 . S
C1366 H1380 0.961 . S
C1367 C1364 1.539 1_556 S
C1367 H1381 0.958 . S
C1367 H1382 0.961 . S
C1367 H1383 0.960 . S
H1368 C1352 0.931 . S
H1369 C1357 0.929 . S
H1370 C1358 0.960 . S
H1371 C1358 0.962 . S
H1372 C1358 0.960 . S
H1373 C1359 0.961 . S
H1374 C1359 0.961 . S
H1375 C1359 0.961 . S
H1376 C1360 0.931 . S
H1377 C1365 0.930 . S
H1378 C1366 0.956 . S
H1379 C1366 0.961 . S
H1380 C1366 0.961 . S
H1381 C1367 0.958 . S
H1382 C1367 0.961 . S
H1383 C1367 0.960 . S
C1384 C1385 1.391 . S
C1384 C1386 1.394 . S
C1384 H1400 0.931 . S
C1385 C1384 1.391 . S
C1385 C1389 1.376 . S
C1386 C1384 1.394 . S
C1386 C1387 1.369 . S
C1386 C1390 1.531 . S
C1387 C1386 1.369 . S
C1387 C1388 1.410 . S
C1387 C1395 1.503 . S
C1388 C1387 1.410 . S
C1388 C1389 1.392 . S
C1388 C1391 1.511 . S
C1389 C1385 1.376 . S
C1389 C1388 1.392 . S
C1389 H1401 0.929 . S
C1390 C1386 1.531 . S
C1390 H1402 0.960 . S
C1390 H1403 0.962 . S
C1390 H1404 0.960 . S
C1391 C1388 1.511 . S
C1391 H1405 0.961 . S
C1391 H1406 0.961 . S
C1391 H1407 0.961 . S
C1392 C1393 1.370 . S
C1392 C1394 1.363 . S
C1392 H1408 0.931 1_554 S
C1393 C1392 1.370 . S
C1393 C1397 1.408 . S
C1394 C1392 1.363 . S
C1394 C1395 1.370 . S
C1394 C1398 1.524 1_554 S
C1395 C1387 1.503 . S
C1395 C1394 1.370 . S
C1395 C1396 1.403 . S
C1396 C1395 1.403 . S
C1396 C1397 1.404 . S
C1396 C1399 1.539 . S
C1397 C1393 1.408 . S
C1397 C1396 1.404 . S
C1397 H1409 0.930 . S
C1398 C1394 1.524 1_556 S
C1398 H1410 0.956 . S
C1398 H1411 0.961 . S
C1398 H1412 0.961 . S
C1399 C1396 1.539 . S
C1399 H1413 0.958 . S
C1399 H1414 0.961 . S
C1399 H1415 0.960 . S
H1400 C1384 0.931 . S
H1401 C1389 0.929 . S
H1402 C1390 0.960 . S
H1403 C1390 0.962 . S
H1404 C1390 0.960 . S
H1405 C1391 0.961 . S
H1406 C1391 0.961 . S
H1407 C1391 0.961 . S
H1408 C1392 0.931 1_556 S
H1409 C1397 0.930 . S
H1410 C1398 0.956 . S
H1411 C1398 0.961 . S
H1412 C1398 0.961 . S
H1413 C1399 0.958 . S
H1414 C1399 0.961 . S
H1415 C1399 0.960 . S
C1416 C1417 1.391 . S
C1416 C1418 1.394 . S
C1416 H1432 0.931 . S
C1417 C1416 1.391 . S
C1417 C1421 1.376 . S
C1418 C1416 1.394 . S
C1418 C1419 1.369 . S
C1418 C1422 1.531 . S
C1419 C1418 1.369 . S
C1419 C1420 1.410 . S
C1419 C1427 1.503 . S
C1420 C1419 1.410 . S
C1420 C1421 1.392 . S
C1420 C1423 1.511 . S
C1421 C1417 1.376 . S
C1421 C1420 1.392 . S
C1421 H1433 0.929 . S
C1422 C1418 1.531 . S
C1422 H1434 0.960 . S
C1422 H1435 0.962 . S
C1422 H1436 0.960 . S
C1423 C1420 1.511 . S
C1423 H1437 0.961 . S
C1423 H1438 0.961 . S
C1423 H1439 0.961 . S
C1424 C1425 1.370 . S
C1424 C1426 1.363 . S
C1424 H1440 0.931 . S
C1425 C1424 1.370 . S
C1425 C1429 1.408 . S
C1426 C1424 1.363 . S
C1426 C1427 1.370 . S
C1426 C1430 1.524 . S
C1427 C1419 1.503 . S
C1427 C1426 1.370 . S
C1427 C1428 1.403 . S
C1428 C1427 1.403 . S
C1428 C1429 1.404 . S
C1428 C1431 1.539 . S
C1429 C1425 1.408 . S
C1429 C1428 1.404 . S
C1429 H1441 0.930 . S
C1430 C1426 1.524 . S
C1430 H1442 0.956 . S
C1430 H1443 0.961 . S
C1430 H1444 0.961 . S
C1431 C1428 1.539 . S
C1431 H1445 0.958 . S
C1431 H1446 0.961 . S
C1431 H1447 0.960 . S
H1432 C1416 0.931 . S
H1433 C1421 0.929 . S
H1434 C1422 0.960 . S
H1435 C1422 0.962 . S
H1436 C1422 0.960 . S
H1437 C1423 0.961 . S
H1438 C1423 0.961 . S
H1439 C1423 0.961 . S
H1440 C1424 0.931 . S
H1441 C1429 0.930 . S
H1442 C1430 0.956 . S
H1443 C1430 0.961 . S
H1444 C1430 0.961 . S
H1445 C1431 0.958 . S
H1446 C1431 0.961 . S
H1447 C1431 0.960 . S
C1448 C1449 1.391 . S
C1448 C1450 1.394 . S
C1448 H1464 0.931 . S
C1449 C1448 1.391 . S
C1449 C1453 1.376 . S
C1450 C1448 1.394 . S
C1450 C1451 1.369 . S
C1450 C1454 1.531 . S
C1451 C1450 1.369 . S
C1451 C1452 1.410 . S
C1451 C1459 1.503 . S
C1452 C1451 1.410 . S
C1452 C1453 1.392 . S
C1452 C1455 1.511 . S
C1453 C1449 1.376 . S
C1453 C1452 1.392 . S
C1453 H1465 0.929 . S
C1454 C1450 1.531 . S
C1454 H1466 0.960 . S
C1454 H1467 0.962 . S
C1454 H1468 0.960 . S
C1455 C1452 1.511 . S
C1455 H1469 0.961 . S
C1455 H1470 0.961 . S
C1455 H1471 0.961 . S
C1456 C1457 1.370 . S
C1456 C1458 1.363 . S
C1456 H1472 0.931 . S
C1457 C1456 1.370 . S
C1457 C1461 1.408 . S
C1458 C1456 1.363 . S
C1458 C1459 1.370 . S
C1458 C1462 1.524 . S
C1459 C1451 1.503 . S
C1459 C1458 1.370 . S
C1459 C1460 1.403 . S
C1460 C1459 1.403 . S
C1460 C1461 1.404 . S
C1460 C1463 1.539 . S
C1461 C1457 1.408 . S
C1461 C1460 1.404 . S
C1461 H1473 0.930 . S
C1462 C1458 1.524 . S
C1462 H1474 0.956 . S
C1462 H1475 0.961 . S
C1462 H1476 0.961 . S
C1463 C1460 1.539 . S
C1463 H1477 0.958 . S
C1463 H1478 0.961 . S
C1463 H1479 0.960 . S
H1464 C1448 0.931 . S
H1465 C1453 0.929 . S
H1466 C1454 0.960 . S
H1467 C1454 0.962 . S
H1468 C1454 0.960 . S
H1469 C1455 0.961 . S
H1470 C1455 0.961 . S
H1471 C1455 0.961 . S
H1472 C1456 0.931 . S
H1473 C1461 0.930 . S
H1474 C1462 0.956 . S
H1475 C1462 0.961 . S
H1476 C1462 0.961 . S
H1477 C1463 0.958 . S
H1478 C1463 0.961 . S
H1479 C1463 0.960 . S
C1480 C1481 1.391 . S
C1480 C1482 1.394 . S
C1480 H1496 0.931 . S
C1481 C1480 1.391 . S
C1481 C1485 1.376 . S
C1482 C1480 1.394 . S
C1482 C1483 1.369 . S
C1482 C1486 1.531 . S
C1483 C1482 1.369 . S
C1483 C1484 1.410 . S
C1483 C1491 1.503 . S
C1484 C1483 1.410 . S
C1484 C1485 1.392 . S
C1484 C1487 1.511 . S
C1485 C1481 1.376 . S
C1485 C1484 1.392 . S
C1485 H1497 0.929 . S
C1486 C1482 1.531 . S
C1486 H1498 0.960 . S
C1486 H1499 0.962 . S
C1486 H1500 0.960 . S
C1487 C1484 1.511 . S
C1487 H1501 0.961 . S
C1487 H1502 0.961 . S
C1487 H1503 0.961 . S
C1488 C1489 1.370 . S
C1488 C1490 1.363 . S
C1488 H1504 0.931 . S
C1489 C1488 1.370 . S
C1489 C1493 1.408 . S
C1490 C1488 1.363 . S
C1490 C1491 1.370 . S
C1490 C1494 1.524 . S
C1491 C1483 1.503 . S
C1491 C1490 1.370 . S
C1491 C1492 1.403 . S
C1492 C1491 1.403 . S
C1492 C1493 1.404 . S
C1492 C1495 1.539 . S
C1493 C1489 1.408 . S
C1493 C1492 1.404 . S
C1493 H1505 0.930 . S
C1494 C1490 1.524 . S
C1494 H1506 0.956 . S
C1494 H1507 0.961 . S
C1494 H1508 0.961 . S
C1495 C1492 1.539 . S
C1495 H1509 0.958 . S
C1495 H1510 0.961 . S
C1495 H1511 0.960 . S
H1496 C1480 0.931 . S
H1497 C1485 0.929 . S
H1498 C1486 0.960 . S
H1499 C1486 0.962 . S
H1500 C1486 0.960 . S
H1501 C1487 0.961 . S
H1502 C1487 0.961 . S
H1503 C1487 0.961 . S
H1504 C1488 0.931 . S
H1505 C1493 0.930 . S
H1506 C1494 0.956 . S
H1507 C1494 0.961 . S
H1508 C1494 0.961 . S
H1509 C1495 0.958 . S
H1510 C1495 0.961 . S
H1511 C1495 0.960 . S
C1512 C1513 1.391 . S
C1512 C1514 1.394 . S
C1512 H1528 0.931 . S
C1513 C1512 1.391 . S
C1513 C1517 1.376 . S
C1514 C1512 1.394 . S
C1514 C1515 1.369 . S
C1514 C1518 1.531 . S
C1515 C1514 1.369 . S
C1515 C1516 1.410 . S
C1515 C1523 1.503 . S
C1516 C1515 1.410 . S
C1516 C1517 1.392 . S
C1516 C1519 1.511 1_455 S
C1517 C1513 1.376 . S
C1517 C1516 1.392 . S
C1517 H1529 0.929 . S
C1518 C1514 1.531 . S
C1518 H1530 0.960 . S
C1518 H1531 0.962 . S
C1518 H1532 0.960 . S
C1519 C1516 1.511 1_655 S
C1519 H1533 0.961 . S
C1519 H1534 0.961 . S
C1519 H1535 0.961 . S
C1520 C1521 1.370 . S
C1520 C1522 1.363 . S
C1520 H1536 0.931 . S
C1521 C1520 1.370 . S
C1521 C1525 1.408 1_455 S
C1522 C1520 1.363 . S
C1522 C1523 1.370 1_556 S
C1522 C1526 1.524 1_556 S
C1523 C1515 1.503 . S
C1523 C1522 1.370 1_554 S
C1523 C1524 1.403 1_454 S
C1524 C1523 1.403 1_656 S
C1524 C1525 1.404 . S
C1524 C1527 1.539 1_556 S
C1525 C1521 1.408 1_655 S
C1525 C1524 1.404 . S
C1525 H1537 0.930 . S
C1526 C1522 1.524 1_554 S
C1526 H1538 0.956 . S
C1526 H1539 0.961 . S
C1526 H1540 0.961 1_554 S
C1527 C1524 1.539 1_554 S
C1527 H1541 0.958 . S
C1527 H1542 0.961 1_554 S
C1527 H1543 0.960 . S
H1528 C1512 0.931 . S
H1529 C1517 0.929 . S
H1530 C1518 0.960 . S
H1531 C1518 0.962 . S
H1532 C1518 0.960 . S
H1533 C1519 0.961 . S
H1534 C1519 0.961 . S
H1535 C1519 0.961 . S
H1536 C1520 0.931 . S
H1537 C1525 0.930 . S
H1538 C1526 0.956 . S
H1539 C1526 0.961 . S
H1540 C1526 0.961 1_556 S
H1541 C1527 0.958 . S
H1542 C1527 0.961 1_556 S
H1543 C1527 0.960 . S
C1544 C1545 1.391 . S
C1544 C1546 1.394 . S
C1544 H1560 0.931 . S
C1545 C1544 1.391 . S
C1545 C1549 1.376 . S
C1546 C1544 1.394 . S
C1546 C1547 1.369 . S
C1546 C1550 1.531 . S
C1547 C1546 1.369 . S
C1547 C1548 1.410 . S
C1547 C1555 1.503 . S
C1548 C1547 1.410 . S
C1548 C1549 1.392 . S
C1548 C1551 1.511 . S
C1549 C1545 1.376 . S
C1549 C1548 1.392 . S
C1549 H1561 0.929 . S
C1550 C1546 1.531 . S
C1550 H1562 0.960 . S
C1550 H1563 0.962 . S
C1550 H1564 0.960 . S
C1551 C1548 1.511 . S
C1551 H1565 0.961 . S
C1551 H1566 0.961 . S
C1551 H1567 0.961 . S
C1552 C1553 1.370 . S
C1552 C1554 1.363 . S
C1552 H1568 0.931 . S
C1553 C1552 1.370 . S
C1553 C1557 1.408 . S
C1554 C1552 1.363 . S
C1554 C1555 1.370 1_556 S
C1554 C1558 1.524 1_556 S
C1555 C1547 1.503 . S
C1555 C1554 1.370 1_554 S
C1555 C1556 1.403 1_554 S
C1556 C1555 1.403 1_556 S
C1556 C1557 1.404 . S
C1556 C1559 1.539 1_556 S
C1557 C1553 1.408 . S
C1557 C1556 1.404 . S
C1557 H1569 0.930 . S
C1558 C1554 1.524 1_554 S
C1558 H1570 0.956 . S
C1558 H1571 0.961 . S
C1558 H1572 0.961 . S
C1559 C1556 1.539 1_554 S
C1559 H1573 0.958 . S
C1559 H1574 0.961 1_554 S
C1559 H1575 0.960 . S
H1560 C1544 0.931 . S
H1561 C1549 0.929 . S
H1562 C1550 0.960 . S
H1563 C1550 0.962 . S
H1564 C1550 0.960 . S
H1565 C1551 0.961 . S
H1566 C1551 0.961 . S
H1567 C1551 0.961 . S
H1568 C1552 0.931 . S
H1569 C1557 0.930 . S
H1570 C1558 0.956 . S
H1571 C1558 0.961 . S
H1572 C1558 0.961 . S
H1573 C1559 0.958 . S
H1574 C1559 0.961 1_556 S
H1575 C1559 0.960 . S
C1576 C1577 1.391 . S
C1576 C1578 1.394 . S
C1576 H1592 0.931 . S
C1577 C1576 1.391 . S
C1577 C1581 1.376 1_545 S
C1578 C1576 1.394 . S
C1578 C1579 1.369 . S
C1578 C1582 1.531 . S
C1579 C1578 1.369 . S
C1579 C1580 1.410 1_545 S
C1579 C1587 1.503 . S
C1580 C1579 1.410 1_565 S
C1580 C1581 1.392 . S
C1580 C1583 1.511 . S
C1581 C1577 1.376 1_565 S
C1581 C1580 1.392 . S
C1581 H1593 0.929 . S
C1582 C1578 1.531 . S
C1582 H1594 0.960 . S
C1582 H1595 0.962 . S
C1582 H1596 0.960 . S
C1583 C1580 1.511 . S
C1583 H1597 0.961 . S
C1583 H1598 0.961 . S
C1583 H1599 0.961 . S
C1584 C1585 1.370 . S
C1584 C1586 1.363 . S
C1584 H1600 0.931 . S
C1585 C1584 1.370 . S
C1585 C1589 1.408 . S
C1586 C1584 1.363 . S
C1586 C1587 1.370 1_556 S
C1586 C1590 1.524 1_546 S
C1587 C1579 1.503 . S
C1587 C1586 1.370 1_554 S
C1587 C1588 1.403 1_554 S
C1588 C1587 1.403 1_556 S
C1588 C1589 1.404 . S
C1588 C1591 1.539 1_556 S
C1589 C1585 1.408 . S
C1589 C1588 1.404 . S
C1589 H1601 0.930 . S
C1590 C1586 1.524 1_564 S
C1590 H1602 0.956 1_565 S
C1590 H1603 0.961 . S
C1590 H1604 0.961 1_554 S
C1591 C1588 1.539 1_554 S
C1591 H1605 0.958 . S
C1591 H1606 0.961 1_554 S
C1591 H1607 0.960 . S
H1592 C1576 0.931 . S
H1593 C1581 0.929 . S
H1594 C1582 0.960 . S
H1595 C1582 0.962 . S
H1596 C1582 0.960 . S
H1597 C1583 0.961 . S
H1598 C1583 0.961 . S
H1599 C1583 0.961 . S
H1600 C1584 0.931 . S
H1601 C1589 0.930 . S
H1602 C1590 0.956 1_545 S
H1603 C1590 0.961 . S
H1604 C1590 0.961 1_556 S
H1605 C1591 0.958 . S
H1606 C1591 0.961 1_556 S
H1607 C1591 0.960 . S
C1608 C1609 1.391 1_655 S
C1608 C1610 1.394 . S
C1608 H1624 0.931 . S
C1609 C1608 1.391 1_455 S
C1609 C1613 1.376 . S
C1610 C1608 1.394 . S
C1610 C1611 1.369 1_655 S
C1610 C1614 1.531 . S
C1611 C1610 1.369 1_455 S
C1611 C1612 1.410 . S
C1611 C1619 1.503 . S
C1612 C1611 1.410 . S
C1612 C1613 1.392 . S
C1612 C1615 1.511 . S
C1613 C1609 1.376 . S
C1613 C1612 1.392 . S
C1613 H1625 0.929 . S
C1614 C1610 1.531 . S
C1614 H1626 0.960 . S
C1614 H1627 0.962 . S
C1614 H1628 0.960 . S
C1615 C1612 1.511 . S
C1615 H1629 0.961 . S
C1615 H1630 0.961 . S
C1615 H1631 0.961 . S
C1616 C1617 1.370 . S
C1616 C1618 1.363 . S
C1616 H1632 0.931 . S
C1617 C1616 1.370 . S
C1617 C1621 1.408 . S
C1618 C1616 1.363 . S
C1618 C1619 1.370 1_554 S
C1618 C1622 1.524 1_454 S
C1619 C1611 1.503 . S
C1619 C1618 1.370 1_556 S
C1619 C1620 1.403 1_556 S
C1620 C1619 1.403 1_554 S
C1620 C1621 1.404 . S
C1620 C1623 1.539 1_554 S
C1621 C1617 1.408 . S
C1621 C1620 1.404 . S
C1621 H1633 0.930 . S
C1622 C1618 1.524 1_656 S
C1622 H1634 0.956 . S
C1622 H1635 0.961 1_655 S
C1622 H1636 0.961 1_556 S
C1623 C1620 1.539 1_556 S
C1623 H1637 0.958 . S
C1623 H1638 0.961 1_556 S
C1623 H1639 0.960 . S
H1624 C1608 0.931 . S
H1625 C1613 0.929 . S
H1626 C1614 0.960 . S
H1627 C1614 0.962 . S
H1628 C1614 0.960 . S
H1629 C1615 0.961 . S
H1630 C1615 0.961 . S
H1631 C1615 0.961 . S
H1632 C1616 0.931 . S
H1633 C1621 0.930 . S
H1634 C1622 0.956 . S
H1635 C1622 0.961 1_455 S
H1636 C1622 0.961 1_554 S
H1637 C1623 0.958 . S
H1638 C1623 0.961 1_554 S
H1639 C1623 0.960 . S
C1640 C1641 1.391 . S
C1640 C1642 1.394 . S
C1640 H1656 0.931 . S
C1641 C1640 1.391 . S
C1641 C1645 1.376 . S
C1642 C1640 1.394 . S
C1642 C1643 1.369 1_554 S
C1642 C1646 1.531 1_554 S
C1643 C1642 1.369 1_556 S
C1643 C1644 1.410 1_556 S
C1643 C1651 1.503 . S
C1644 C1643 1.410 1_554 S
C1644 C1645 1.392 . S
C1644 C1647 1.511 1_554 S
C1645 C1641 1.376 . S
C1645 C1644 1.392 . S
C1645 H1657 0.929 . S
C1646 C1642 1.531 1_556 S
C1646 H1658 0.960 . S
C1646 H1659 0.962 . S
C1646 H1660 0.960 . S
C1647 C1644 1.511 1_556 S
C1647 H1661 0.961 1_556 S
C1647 H1662 0.961 . S
C1647 H1663 0.961 . S
C1648 C1649 1.370 . S
C1648 C1650 1.363 . S
C1648 H1664 0.931 . S
C1649 C1648 1.370 . S
C1649 C1653 1.408 . S
C1650 C1648 1.363 . S
C1650 C1651 1.370 . S
C1650 C1654 1.524 . S
C1651 C1643 1.503 . S
C1651 C1650 1.370 . S
C1651 C1652 1.403 . S
C1652 C1651 1.403 . S
C1652 C1653 1.404 . S
C1652 C1655 1.539 . S
C1653 C1649 1.408 . S
C1653 C1652 1.404 . S
C1653 H1665 0.930 . S
C1654 C1650 1.524 . S
C1654 H1666 0.956 . S
C1654 H1667 0.961 . S
C1654 H1668 0.961 . S
C1655 C1652 1.539 . S
C1655 H1669 0.958 . S
C1655 H1670 0.961 . S
C1655 H1671 0.960 . S
H1656 C1640 0.931 . S
H1657 C1645 0.929 . S
H1658 C1646 0.960 . S
H1659 C1646 0.962 . S
H1660 C1646 0.960 . S
H1661 C1647 0.961 1_554 S
H1662 C1647 0.961 . S
H1663 C1647 0.961 . S
H1664 C1648 0.931 . S
H1665 C1653 0.930 . S
H1666 C1654 0.956 . S
H1667 C1654 0.961 . S
H1668 C1654 0.961 . S
H1669 C1655 0.958 . S
H1670 C1655 0.961 . S
H1671 C1655 0.960 . S
C1672 C1673 1.391 1_565 S
C1672 C1674 1.394 . S
C1672 H1688 0.931 . S
C1673 C1672 1.391 1_545 S
C1673 C1677 1.376 . S
C1674 C1672 1.394 . S
C1674 C1675 1.369 1_564 S
C1674 C1678 1.531 1_554 S
C1675 C1674 1.369 1_546 S
C1675 C1676 1.410 1_556 S
C1675 C1683 1.503 . S
C1676 C1675 1.410 1_554 S
C1676 C1677 1.392 . S
C1676 C1679 1.511 1_554 S
C1677 C1673 1.376 . S
C1677 C1676 1.392 . S
C1677 H1689 0.929 . S
C1678 C1674 1.531 1_556 S
C1678 H1690 0.960 . S
C1678 H1691 0.962 . S
C1678 H1692 0.960 1_556 S
C1679 C1676 1.511 1_556 S
C1679 H1693 0.961 1_556 S
C1679 H1694 0.961 . S
C1679 H1695 0.961 . S
C1680 C1681 1.370 . S
C1680 C1682 1.363 . S
C1680 H1696 0.931 . S
C1681 C1680 1.370 . S
C1681 C1685 1.408 . S
C1682 C1680 1.363 . S
C1682 C1683 1.370 . S
C1682 C1686 1.524 . S
C1683 C1675 1.503 . S
C1683 C1682 1.370 . S
C1683 C1684 1.403 . S
C1684 C1683 1.403 . S
C1684 C1685 1.404 . S
C1684 C1687 1.539 1_545 S
C1685 C1681 1.408 . S
C1685 C1684 1.404 . S
C1685 H1697 0.930 1_545 S
C1686 C1682 1.524 . S
C1686 H1698 0.956 . S
C1686 H1699 0.961 . S
C1686 H1700 0.961 . S
C1687 C1684 1.539 1_565 S
C1687 H1701 0.958 . S
C1687 H1702 0.961 . S
C1687 H1703 0.960 . S
H1688 C1672 0.931 . S
H1689 C1677 0.929 . S
H1690 C1678 0.960 . S
H1691 C1678 0.962 . S
H1692 C1678 0.960 1_554 S
H1693 C1679 0.961 1_554 S
H1694 C1679 0.961 . S
H1695 C1679 0.961 . S
H1696 C1680 0.931 . S
H1697 C1685 0.930 1_565 S
H1698 C1686 0.956 . S
H1699 C1686 0.961 . S
H1700 C1686 0.961 . S
H1701 C1687 0.958 . S
H1702 C1687 0.961 . S
H1703 C1687 0.960 . S
C1704 C1705 1.391 . S
C1704 C1706 1.394 . S
C1704 H1720 0.931 . S
C1705 C1704 1.391 . S
C1705 C1709 1.376 . S
C1706 C1704 1.394 . S
C1706 C1707 1.369 . S
C1706 C1710 1.531 . S
C1707 C1706 1.369 . S
C1707 C1708 1.410 . S
C1707 C1715 1.503 . S
C1708 C1707 1.410 . S
C1708 C1709 1.392 . S
C1708 C1711 1.511 . S
C1709 C1705 1.376 . S
C1709 C1708 1.392 . S
C1709 H1721 0.929 . S
C1710 C1706 1.531 . S
C1710 H1722 0.960 . S
C1710 H1723 0.962 . S
C1710 H1724 0.960 . S
C1711 C1708 1.511 . S
C1711 H1725 0.961 . S
C1711 H1726 0.961 . S
C1711 H1727 0.961 . S
C1712 C1713 1.370 . S
C1712 C1714 1.363 . S
C1712 H1728 0.931 . S
C1713 C1712 1.370 . S
C1713 C1717 1.408 . S
C1714 C1712 1.363 . S
C1714 C1715 1.370 . S
C1714 C1718 1.524 . S
C1715 C1707 1.503 . S
C1715 C1714 1.370 . S
C1715 C1716 1.403 . S
C1716 C1715 1.403 . S
C1716 C1717 1.404 . S
C1716 C1719 1.539 . S
C1717 C1713 1.408 . S
C1717 C1716 1.404 . S
C1717 H1729 0.930 . S
C1718 C1714 1.524 . S
C1718 H1730 0.956 . S
C1718 H1731 0.961 . S
C1718 H1732 0.961 . S
C1719 C1716 1.539 . S
C1719 H1733 0.958 . S
C1719 H1734 0.961 . S
C1719 H1735 0.960 . S
H1720 C1704 0.931 . S
H1721 C1709 0.929 . S
H1722 C1710 0.960 . S
H1723 C1710 0.962 . S
H1724 C1710 0.960 . S
H1725 C1711 0.961 . S
H1726 C1711 0.961 . S
H1727 C1711 0.961 . S
H1728 C1712 0.931 . S
H1729 C1717 0.930 . S
H1730 C1718 0.956 . S
H1731 C1718 0.961 . S
H1732 C1718 0.961 . S
H1733 C1719 0.958 . S
H1734 C1719 0.961 . S
H1735 C1719 0.960 . S
C1736 C1737 1.391 . S
C1736 C1738 1.394 . S
C1736 H1752 0.931 . S
C1737 C1736 1.391 . S
C1737 C1741 1.376 . S
C1738 C1736 1.394 . S
C1738 C1739 1.369 . S
C1738 C1742 1.531 . S
C1739 C1738 1.369 . S
C1739 C1740 1.410 . S
C1739 C1747 1.503 . S
C1740 C1739 1.410 . S
C1740 C1741 1.392 . S
C1740 C1743 1.511 . S
C1741 C1737 1.376 . S
C1741 C1740 1.392 . S
C1741 H1753 0.929 . S
C1742 C1738 1.531 . S
C1742 H1754 0.960 . S
C1742 H1755 0.962 . S
C1742 H1756 0.960 . S
C1743 C1740 1.511 . S
C1743 H1757 0.961 . S
C1743 H1758 0.961 . S
C1743 H1759 0.961 . S
C1744 C1745 1.370 . S
C1744 C1746 1.363 . S
C1744 H1760 0.931 . S
C1745 C1744 1.370 . S
C1745 C1749 1.408 . S
C1746 C1744 1.363 . S
C1746 C1747 1.370 . S
C1746 C1750 1.524 . S
C1747 C1739 1.503 . S
C1747 C1746 1.370 . S
C1747 C1748 1.403 . S
C1748 C1747 1.403 . S
C1748 C1749 1.404 . S
C1748 C1751 1.539 . S
C1749 C1745 1.408 . S
C1749 C1748 1.404 . S
C1749 H1761 0.930 . S
C1750 C1746 1.524 . S
C1750 H1762 0.956 . S
C1750 H1763 0.961 . S
C1750 H1764 0.961 . S
C1751 C1748 1.539 . S
C1751 H1765 0.958 . S
C1751 H1766 0.961 . S
C1751 H1767 0.960 . S
H1752 C1736 0.931 . S
H1753 C1741 0.929 . S
H1754 C1742 0.960 . S
H1755 C1742 0.962 . S
H1756 C1742 0.960 . S
H1757 C1743 0.961 . S
H1758 C1743 0.961 . S
H1759 C1743 0.961 . S
H1760 C1744 0.931 . S
H1761 C1749 0.930 . S
H1762 C1750 0.956 . S
H1763 C1750 0.961 . S
H1764 C1750 0.961 . S
H1765 C1751 0.958 . S
H1766 C1751 0.961 . S
H1767 C1751 0.960 . S
C1768 C1769 1.391 . S
C1768 C1770 1.394 . S
C1768 H1784 0.931 . S
C1769 C1768 1.391 . S
C1769 C1773 1.376 . S
C1770 C1768 1.394 . S
C1770 C1771 1.369 . S
C1770 C1774 1.531 . S
C1771 C1770 1.369 . S
C1771 C1772 1.410 . S
C1771 C1779 1.503 . S
C1772 C1771 1.410 . S
C1772 C1773 1.392 . S
C1772 C1775 1.511 . S
C1773 C1769 1.376 . S
C1773 C1772 1.392 . S
C1773 H1785 0.929 . S
C1774 C1770 1.531 . S
C1774 H1786 0.960 . S
C1774 H1787 0.962 . S
C1774 H1788 0.960 . S
C1775 C1772 1.511 . S
C1775 H1789 0.961 . S
C1775 H1790 0.961 . S
C1775 H1791 0.961 . S
C1776 C1777 1.370 . S
C1776 C1778 1.363 . S
C1776 H1792 0.931 . S
C1777 C1776 1.370 . S
C1777 C1781 1.408 . S
C1778 C1776 1.363 . S
C1778 C1779 1.370 . S
C1778 C1782 1.524 . S
C1779 C1771 1.503 . S
C1779 C1778 1.370 . S
C1779 C1780 1.403 . S
C1780 C1779 1.403 . S
C1780 C1781 1.404 . S
C1780 C1783 1.539 . S
C1781 C1777 1.408 . S
C1781 C1780 1.404 . S
C1781 H1793 0.930 . S
C1782 C1778 1.524 . S
C1782 H1794 0.956 . S
C1782 H1795 0.961 . S
C1782 H1796 0.961 . S
C1783 C1780 1.539 . S
C1783 H1797 0.958 . S
C1783 H1798 0.961 . S
C1783 H1799 0.960 . S
H1784 C1768 0.931 . S
H1785 C1773 0.929 . S
H1786 C1774 0.960 . S
H1787 C1774 0.962 . S
H1788 C1774 0.960 . S
H1789 C1775 0.961 . S
H1790 C1775 0.961 . S
H1791 C1775 0.961 . S
H1792 C1776 0.931 . S
H1793 C1781 0.930 . S
H1794 C1782 0.956 . S
H1795 C1782 0.961 . S
H1796 C1782 0.961 . S
H1797 C1783 0.958 . S
H1798 C1783 0.961 . S
H1799 C1783 0.960 . S
C1800 C1801 1.391 . S
C1800 C1802 1.394 . S
C1800 H1816 0.931 . S
C1801 C1800 1.391 . S
C1801 C1805 1.376 . S
C1802 C1800 1.394 . S
C1802 C1803 1.369 . S
C1802 C1806 1.531 . S
C1803 C1802 1.369 . S
C1803 C1804 1.410 . S
C1803 C1811 1.503 . S
C1804 C1803 1.410 . S
C1804 C1805 1.392 . S
C1804 C1807 1.511 . S
C1805 C1801 1.376 . S
C1805 C1804 1.392 . S
C1805 H1817 0.929 . S
C1806 C1802 1.531 . S
C1806 H1818 0.960 . S
C1806 H1819 0.962 . S
C1806 H1820 0.960 . S
C1807 C1804 1.511 . S
C1807 H1821 0.961 . S
C1807 H1822 0.961 . S
C1807 H1823 0.961 . S
C1808 C1809 1.370 . S
C1808 C1810 1.363 . S
C1808 H1824 0.931 . S
C1809 C1808 1.370 . S
C1809 C1813 1.408 . S
C1810 C1808 1.363 . S
C1810 C1811 1.370 . S
C1810 C1814 1.524 . S
C1811 C1803 1.503 . S
C1811 C1810 1.370 . S
C1811 C1812 1.403 . S
C1812 C1811 1.403 . S
C1812 C1813 1.404 . S
C1812 C1815 1.539 . S
C1813 C1809 1.408 . S
C1813 C1812 1.404 . S
C1813 H1825 0.930 . S
C1814 C1810 1.524 . S
C1814 H1826 0.956 . S
C1814 H1827 0.961 . S
C1814 H1828 0.961 . S
C1815 C1812 1.539 . S
C1815 H1829 0.958 . S
C1815 H1830 0.961 . S
C1815 H1831 0.960 . S
H1816 C1800 0.931 . S
H1817 C1805 0.929 . S
H1818 C1806 0.960 . S
H1819 C1806 0.962 . S
H1820 C1806 0.960 . S
H1821 C1807 0.961 . S
H1822 C1807 0.961 . S
H1823 C1807 0.961 . S
H1824 C1808 0.931 . S
H1825 C1813 0.930 . S
H1826 C1814 0.956 . S
H1827 C1814 0.961 . S
H1828 C1814 0.961 . S
H1829 C1815 0.958 . S
H1830 C1815 0.961 . S
H1831 C1815 0.960 . S
C1832 C1833 1.391 . S
C1832 C1834 1.394 . S
C1832 H1848 0.931 . S
C1833 C1832 1.391 . S
C1833 C1837 1.376 . S
C1834 C1832 1.394 . S
C1834 C1835 1.369 . S
C1834 C1838 1.531 . S
C1835 C1834 1.369 . S
C1835 C1836 1.410 . S
C1835 C1843 1.503 . S
C1836 C1835 1.410 . S
C1836 C1837 1.392 . S
C1836 C1839 1.511 . S
C1837 C1833 1.376 . S
C1837 C1836 1.392 . S
C1837 H1849 0.929 . S
C1838 C1834 1.531 . S
C1838 H1850 0.960 . S
C1838 H1851 0.962 . S
C1838 H1852 0.960 . S
C1839 C1836 1.511 . S
C1839 H1853 0.961 . S
C1839 H1854 0.961 . S
C1839 H1855 0.961 . S
C1840 C1841 1.370 . S
C1840 C1842 1.363 . S
C1840 H1856 0.931 . S
C1841 C1840 1.370 . S
C1841 C1845 1.408 . S
C1842 C1840 1.363 . S
C1842 C1843 1.370 . S
C1842 C1846 1.524 . S
C1843 C1835 1.503 . S
C1843 C1842 1.370 . S
C1843 C1844 1.403 . S
C1844 C1843 1.403 . S
C1844 C1845 1.404 . S
C1844 C1847 1.539 . S
C1845 C1841 1.408 . S
C1845 C1844 1.404 . S
C1845 H1857 0.930 . S
C1846 C1842 1.524 . S
C1846 H1858 0.956 . S
C1846 H1859 0.961 . S
C1846 H1860 0.961 . S
C1847 C1844 1.539 . S
C1847 H1861 0.958 . S
C1847 H1862 0.961 . S
C1847 H1863 0.960 . S
H1848 C1832 0.931 . S
H1849 C1837 0.929 . S
H1850 C1838 0.960 . S
H1851 C1838 0.962 . S
H1852 C1838 0.960 . S
H1853 C1839 0.961 . S
H1854 C1839 0.961 . S
H1855 C1839 0.961 . S
H1856 C1840 0.931 . S
H1857 C1845 0.930 . S
H1858 C1846 0.956 . S
H1859 C1846 0.961 . S
H1860 C1846 0.961 . S
H1861 C1847 0.958 . S
H1862 C1847 0.961 . S
H1863 C1847 0.960 . S
C1864 C1865 1.391 . S
C1864 C1866 1.394 . S
C1864 H1880 0.931 . S
C1865 C1864 1.391 . S
C1865 C1869 1.376 . S
C1866 C1864 1.394 . S
C1866 C1867 1.369 . S
C1866 C1870 1.531 . S
C1867 C1866 1.369 . S
C1867 C1868 1.410 . S
C1867 C1875 1.503 . S
C1868 C1867 1.410 . S
C1868 C1869 1.392 . S
C1868 C1871 1.511 . S
C1869 C1865 1.376 . S
C1869 C1868 1.392 . S
C1869 H1881 0.929 . S
C1870 C1866 1.531 . S
C1870 H1882 0.960 . S
C1870 H1883 0.962 . S
C1870 H1884 0.960 . S
C1871 C1868 1.511 . S
C1871 H1885 0.961 . S
C1871 H1886 0.961 . S
C1871 H1887 0.961 . S
C1872 C1873 1.370 . S
C1872 C1874 1.363 . S
C1872 H1888 0.931 . S
C1873 C1872 1.370 . S
C1873 C1877 1.408 . S
C1874 C1872 1.363 . S
C1874 C1875 1.370 . S
C1874 C1878 1.524 . S
C1875 C1867 1.503 . S
C1875 C1874 1.370 . S
C1875 C1876 1.403 . S
C1876 C1875 1.403 . S
C1876 C1877 1.404 . S
C1876 C1879 1.539 . S
C1877 C1873 1.408 . S
C1877 C1876 1.404 . S
C1877 H1889 0.930 . S
C1878 C1874 1.524 . S
C1878 H1890 0.956 . S
C1878 H1891 0.961 . S
C1878 H1892 0.961 . S
C1879 C1876 1.539 . S
C1879 H1893 0.958 . S
C1879 H1894 0.961 . S
C1879 H1895 0.960 . S
H1880 C1864 0.931 . S
H1881 C1869 0.929 . S
H1882 C1870 0.960 . S
H1883 C1870 0.962 . S
H1884 C1870 0.960 . S
H1885 C1871 0.961 . S
H1886 C1871 0.961 . S
H1887 C1871 0.961 . S
H1888 C1872 0.931 . S
H1889 C1877 0.930 . S
H1890 C1878 0.956 . S
H1891 C1878 0.961 . S
H1892 C1878 0.961 . S
H1893 C1879 0.958 . S
H1894 C1879 0.961 . S
H1895 C1879 0.960 . S
C1896 C1897 1.391 . S
C1896 C1898 1.394 . S
C1896 H1912 0.931 . S
C1897 C1896 1.391 . S
C1897 C1901 1.376 . S
C1898 C1896 1.394 . S
C1898 C1899 1.369 . S
C1898 C1902 1.531 . S
C1899 C1898 1.369 . S
C1899 C1900 1.410 . S
C1899 C1907 1.503 . S
C1900 C1899 1.410 . S
C1900 C1901 1.392 . S
C1900 C1903 1.511 . S
C1901 C1897 1.376 . S
C1901 C1900 1.392 . S
C1901 H1913 0.929 . S
C1902 C1898 1.531 . S
C1902 H1914 0.960 . S
C1902 H1915 0.962 . S
C1902 H1916 0.960 . S
C1903 C1900 1.511 . S
C1903 H1917 0.961 . S
C1903 H1918 0.961 . S
C1903 H1919 0.961 . S
C1904 C1905 1.370 . S
C1904 C1906 1.363 . S
C1904 H1920 0.931 . S
C1905 C1904 1.370 . S
C1905 C1909 1.408 . S
C1906 C1904 1.363 . S
C1906 C1907 1.370 . S
C1906 C1910 1.524 . S
C1907 C1899 1.503 . S
C1907 C1906 1.370 . S
C1907 C1908 1.403 . S
C1908 C1907 1.403 . S
C1908 C1909 1.404 . S
C1908 C1911 1.539 . S
C1909 C1905 1.408 . S
C1909 C1908 1.404 . S
C1909 H1921 0.930 . S
C1910 C1906 1.524 . S
C1910 H1922 0.956 . S
C1910 H1923 0.961 . S
C1910 H1924 0.961 . S
C1911 C1908 1.539 . S
C1911 H1925 0.958 . S
C1911 H1926 0.961 . S
C1911 H1927 0.960 . S
H1912 C1896 0.931 . S
H1913 C1901 0.929 . S
H1914 C1902 0.960 . S
H1915 C1902 0.962 . S
H1916 C1902 0.960 . S
H1917 C1903 0.961 . S
H1918 C1903 0.961 . S
H1919 C1903 0.961 . S
H1920 C1904 0.931 . S
H1921 C1909 0.930 . S
H1922 C1910 0.956 . S
H1923 C1910 0.961 . S
H1924 C1910 0.961 . S
H1925 C1911 0.958 . S
H1926 C1911 0.961 . S
H1927 C1911 0.960 . S
C1928 C1929 1.391 . S
C1928 C1930 1.394 . S
C1928 H1944 0.931 . S
C1929 C1928 1.391 . S
C1929 C1933 1.376 . S
C1930 C1928 1.394 . S
C1930 C1931 1.369 . S
C1930 C1934 1.531 . S
C1931 C1930 1.369 . S
C1931 C1932 1.410 . S
C1931 C1939 1.503 . S
C1932 C1931 1.410 . S
C1932 C1933 1.392 . S
C1932 C1935 1.511 . S
C1933 C1929 1.376 . S
C1933 C1932 1.392 . S
C1933 H1945 0.929 . S
C1934 C1930 1.531 . S
C1934 H1946 0.960 . S
C1934 H1947 0.962 . S
C1934 H1948 0.960 . S
C1935 C1932 1.511 . S
C1935 H1949 0.961 . S
C1935 H1950 0.961 . S
C1935 H1951 0.961 . S
C1936 C1937 1.370 . S
C1936 C1938 1.363 . S
C1936 H1952 0.931 . S
C1937 C1936 1.370 . S
C1937 C1941 1.408 . S
C1938 C1936 1.363 . S
C1938 C1939 1.370 . S
C1938 C1942 1.524 . S
C1939 C1931 1.503 . S
C1939 C1938 1.370 . S
C1939 C1940 1.403 . S
C1940 C1939 1.403 . S
C1940 C1941 1.404 . S
C1940 C1943 1.539 . S
C1941 C1937 1.408 . S
C1941 C1940 1.404 . S
C1941 H1953 0.930 . S
C1942 C1938 1.524 . S
C1942 H1954 0.956 . S
C1942 H1955 0.961 . S
C1942 H1956 0.961 . S
C1943 C1940 1.539 . S
C1943 H1957 0.958 . S
C1943 H1958 0.961 . S
C1943 H1959 0.960 . S
H1944 C1928 0.931 . S
H1945 C1933 0.929 . S
H1946 C1934 0.960 . S
H1947 C1934 0.962 . S
H1948 C1934 0.960 . S
H1949 C1935 0.961 . S
H1950 C1935 0.961 . S
H1951 C1935 0.961 . S
H1952 C1936 0.931 . S
H1953 C1941 0.930 . S
H1954 C1942 0.956 . S
H1955 C1942 0.961 . S
H1956 C1942 0.961 . S
H1957 C1943 0.958 . S
H1958 C1943 0.961 . S
H1959 C1943 0.960 . S
C1960 C1961 1.391 . S
C1960 C1962 1.394 . S
C1960 H1976 0.931 . S
C1961 C1960 1.391 . S
C1961 C1965 1.376 . S
C1962 C1960 1.394 . S
C1962 C1963 1.369 . S
C1962 C1966 1.531 . S
C1963 C1962 1.369 . S
C1963 C1964 1.410 . S
C1963 C1971 1.503 . S
C1964 C1963 1.410 . S
C1964 C1965 1.392 . S
C1964 C1967 1.511 . S
C1965 C1961 1.376 . S
C1965 C1964 1.392 . S
C1965 H1977 0.929 . S
C1966 C1962 1.531 . S
C1966 H1978 0.960 . S
C1966 H1979 0.962 . S
C1966 H1980 0.960 . S
C1967 C1964 1.511 . S
C1967 H1981 0.961 . S
C1967 H1982 0.961 . S
C1967 H1983 0.961 . S
C1968 C1969 1.370 . S
C1968 C1970 1.363 . S
C1968 H1984 0.931 . S
C1969 C1968 1.370 . S
C1969 C1973 1.408 . S
C1970 C1968 1.363 . S
C1970 C1971 1.370 . S
C1970 C1974 1.524 . S
C1971 C1963 1.503 . S
C1971 C1970 1.370 . S
C1971 C1972 1.403 . S
C1972 C1971 1.403 . S
C1972 C1973 1.404 . S
C1972 C1975 1.539 . S
C1973 C1969 1.408 . S
C1973 C1972 1.404 . S
C1973 H1985 0.930 . S
C1974 C1970 1.524 . S
C1974 H1986 0.956 . S
C1974 H1987 0.961 . S
C1974 H1988 0.961 . S
C1975 C1972 1.539 . S
C1975 H1989 0.958 . S
C1975 H1990 0.961 . S
C1975 H1991 0.960 . S
H1976 C1960 0.931 . S
H1977 C1965 0.929 . S
H1978 C1966 0.960 . S
H1979 C1966 0.962 . S
H1980 C1966 0.960 . S
H1981 C1967 0.961 . S
H1982 C1967 0.961 . S
H1983 C1967 0.961 . S
H1984 C1968 0.931 . S
H1985 C1973 0.930 . S
H1986 C1974 0.956 . S
H1987 C1974 0.961 . S
H1988 C1974 0.961 . S
H1989 C1975 0.958 . S
H1990 C1975 0.961 . S
H1991 C1975 0.960 . S
C1992 C1993 1.391 . S
C1992 C1994 1.394 . S
C1992 H2008 0.931 . S
C1993 C1992 1.391 . S
C1993 C1997 1.376 . S
C1994 C1992 1.394 . S
C1994 C1995 1.369 . S
C1994 C1998 1.531 . S
C1995 C1994 1.369 . S
C1995 C1996 1.410 . S
C1995 C2003 1.503 . S
C1996 C1995 1.410 . S
C1996 C1997 1.392 . S
C1996 C1999 1.511 . S
C1997 C1993 1.376 . S
C1997 C1996 1.392 . S
C1997 H2009 0.929 . S
C1998 C1994 1.531 . S
C1998 H2010 0.960 . S
C1998 H2011 0.962 . S
C1998 H2012 0.960 . S
C1999 C1996 1.511 . S
C1999 H2013 0.961 . S
C1999 H2014 0.961 . S
C1999 H2015 0.961 . S
C2000 C2001 1.370 . S
C2000 C2002 1.363 . S
C2000 H2016 0.931 . S
C2001 C2000 1.370 . S
C2001 C2005 1.408 . S
C2002 C2000 1.363 . S
C2002 C2003 1.370 . S
C2002 C2006 1.524 . S
C2003 C1995 1.503 . S
C2003 C2002 1.370 . S
C2003 C2004 1.403 . S
C2004 C2003 1.403 . S
C2004 C2005 1.404 . S
C2004 C2007 1.539 . S
C2005 C2001 1.408 . S
C2005 C2004 1.404 . S
C2005 H2017 0.930 . S
C2006 C2002 1.524 . S
C2006 H2018 0.956 . S
C2006 H2019 0.961 . S
C2006 H2020 0.961 . S
C2007 C2004 1.539 . S
C2007 H2021 0.958 . S
C2007 H2022 0.961 . S
C2007 H2023 0.960 . S
H2008 C1992 0.931 . S
H2009 C1997 0.929 . S
H2010 C1998 0.960 . S
H2011 C1998 0.962 . S
H2012 C1998 0.960 . S
H2013 C1999 0.961 . S
H2014 C1999 0.961 . S
H2015 C1999 0.961 . S
H2016 C2000 0.931 . S
H2017 C2005 0.930 . S
H2018 C2006 0.956 . S
H2019 C2006 0.961 . S
H2020 C2006 0.961 . S
H2021 C2007 0.958 . S
H2022 C2007 0.961 . S
H2023 C2007 0.960 . S
C2024 C2025 1.391 . S
C2024 C2026 1.394 . S
C2024 H2040 0.931 . S
C2025 C2024 1.391 . S
C2025 C2029 1.376 . S
C2026 C2024 1.394 . S
C2026 C2027 1.369 . S
C2026 C2030 1.531 . S
C2027 C2026 1.369 . S
C2027 C2028 1.410 . S
C2027 C2035 1.503 . S
C2028 C2027 1.410 . S
C2028 C2029 1.392 . S
C2028 C2031 1.511 . S
C2029 C2025 1.376 . S
C2029 C2028 1.392 . S
C2029 H2041 0.929 . S
C2030 C2026 1.531 . S
C2030 H2042 0.960 . S
C2030 H2043 0.962 . S
C2030 H2044 0.960 . S
C2031 C2028 1.511 . S
C2031 H2045 0.961 . S
C2031 H2046 0.961 . S
C2031 H2047 0.961 . S
C2032 C2033 1.370 . S
C2032 C2034 1.363 . S
C2032 H2048 0.931 . S
C2033 C2032 1.370 . S
C2033 C2037 1.408 . S
C2034 C2032 1.363 . S
C2034 C2035 1.370 . S
C2034 C2038 1.524 . S
C2035 C2027 1.503 . S
C2035 C2034 1.370 . S
C2035 C2036 1.403 . S
C2036 C2035 1.403 . S
C2036 C2037 1.404 . S
C2036 C2039 1.539 . S
C2037 C2033 1.408 . S
C2037 C2036 1.404 . S
C2037 H2049 0.930 . S
C2038 C2034 1.524 . S
C2038 H2050 0.956 . S
C2038 H2051 0.961 . S
C2038 H2052 0.961 . S
C2039 C2036 1.539 . S
C2039 H2053 0.958 . S
C2039 H2054 0.961 . S
C2039 H2055 0.960 . S
H2040 C2024 0.931 . S
H2041 C2029 0.929 . S
H2042 C2030 0.960 . S
H2043 C2030 0.962 . S
H2044 C2030 0.960 . S
H2045 C2031 0.961 . S
H2046 C2031 0.961 . S
H2047 C2031 0.961 . S
H2048 C2032 0.931 . S
H2049 C2037 0.930 . S
H2050 C2038 0.956 . S
H2051 C2038 0.961 . S
H2052 C2038 0.961 . S
H2053 C2039 0.958 . S
H2054 C2039 0.961 . S
H2055 C2039 0.960 . S
C2056 C2057 1.391 . S
C2056 C2058 1.394 . S
C2056 H2072 0.931 . S
C2057 C2056 1.391 . S
C2057 C2061 1.376 . S
C2058 C2056 1.394 . S
C2058 C2059 1.369 . S
C2058 C2062 1.531 . S
C2059 C2058 1.369 . S
C2059 C2060 1.410 . S
C2059 C2067 1.503 . S
C2060 C2059 1.410 . S
C2060 C2061 1.392 . S
C2060 C2063 1.511 . S
C2061 C2057 1.376 . S
C2061 C2060 1.392 . S
C2061 H2073 0.929 . S
C2062 C2058 1.531 . S
C2062 H2074 0.960 . S
C2062 H2075 0.962 . S
C2062 H2076 0.960 . S
C2063 C2060 1.511 . S
C2063 H2077 0.961 . S
C2063 H2078 0.961 . S
C2063 H2079 0.961 . S
C2064 C2065 1.370 . S
C2064 C2066 1.363 . S
C2064 H2080 0.931 . S
C2065 C2064 1.370 . S
C2065 C2069 1.408 . S
C2066 C2064 1.363 . S
C2066 C2067 1.370 . S
C2066 C2070 1.524 . S
C2067 C2059 1.503 . S
C2067 C2066 1.370 . S
C2067 C2068 1.403 . S
C2068 C2067 1.403 . S
C2068 C2069 1.404 . S
C2068 C2071 1.539 . S
C2069 C2065 1.408 . S
C2069 C2068 1.404 . S
C2069 H2081 0.930 . S
C2070 C2066 1.524 . S
C2070 H2082 0.956 . S
C2070 H2083 0.961 . S
C2070 H2084 0.961 . S
C2071 C2068 1.539 . S
C2071 H2085 0.958 . S
C2071 H2086 0.961 . S
C2071 H2087 0.960 . S
H2072 C2056 0.931 . S
H2073 C2061 0.929 . S
H2074 C2062 0.960 . S
H2075 C2062 0.962 . S
H2076 C2062 0.960 . S
H2077 C2063 0.961 . S
H2078 C2063 0.961 . S
H2079 C2063 0.961 . S
H2080 C2064 0.931 . S
H2081 C2069 0.930 . S
H2082 C2070 0.956 . S
H2083 C2070 0.961 . S
H2084 C2070 0.961 . S
H2085 C2071 0.958 . S
H2086 C2071 0.961 . S
H2087 C2071 0.960 . S
C361 C262 1.604 . S
C369 C19 1.671 . S
C393 C39 1.667 . S
C401 C282 1.588 . S
C425 C59 1.642 . S
C433 C242 1.569 . S
C457 C42 1.524 . S
C465 C159 1.669 . S
C489 C179 1.694 . S
C497 C2 1.573 . S
C521 C22 1.537 . S
C529 C139 1.662 . S
C553 C78 1.690 . S
C561 C204 1.583 . S
C585 C98 1.678 . S
C593 C224 1.555 . S
C617 C184 1.563 . S
C625 C118 1.661 . S
C649 C338 1.653 . S
C657 C104 1.555 . S
C681 C64 1.572 . S
C689 C358 1.684 . S
C713 C318 1.657 . S
C721 C84 1.554 . S
C745 C162 1.532 1_554 S
C753 C279 1.674 . S
C777 C122 1.611 . S
C785 C299 1.675 . S
C809 C142 1.603 1_554 S
C817 C259 1.682 . S
C841 C198 1.678 . S
C849 C324 1.589 1_556 S
C873 C344 1.528 1_556 S
C881 C218 1.676 . S
C905 C304 1.606 . S
C913 C238 1.668 . S
C937 C4 1.623 . S
C945 C99 1.629 . S
C969 C119 1.614 . S
C977 C24 1.622 . S
C1001 C79 1.628 . S
C1009 C44 1.622 . S
C1033 C82 1.605 . S
C1041 C58 1.633 . S
C1065 C102 1.599 . S
C1073 C18 1.635 . S
C1097 C62 1.611 . S
C1105 C38 1.631 . S
C1129 C219 1.635 . S
C1137 C124 1.612 . S
C1161 C239 1.645 . S
C1169 C144 1.610 . S
C1193 C199 1.642 . S
C1201 C164 1.613 . S
C1225 C202 1.598 . S
C1233 C178 1.636 . S
C1257 C222 1.638 . S
C1265 C138 1.622 . S
C1289 C182 1.593 . S
C1297 C158 1.638 . S
C1321 C339 1.618 . S
C1329 C244 1.626 . S
C1353 C359 1.644 . S
C1361 C264 1.611 . S
C1385 C284 1.638 . S
C1393 C319 1.621 . S
C1417 C298 1.644 . S
C1425 C322 1.610 . S
C1449 C258 1.635 . S
C1457 C342 1.615 . S
C1481 C302 1.605 . S
C1489 C278 1.634 . S
C1513 C12 1.401 . S
C1521 C9 1.385 . S
C1545 C32 1.378 . S
C1553 C29 1.394 . S
C1577 C52 1.401 . S
C1585 C49 1.387 . S
C1609 C69 1.415 . S
C1617 C72 1.385 . S
C1641 C92 1.385 . S
C1649 C89 1.391 . S
C1673 C112 1.370 . S
C1681 C109 1.398 . S
C1705 C129 1.377 . S
C1713 C132 1.395 . S
C1737 C152 1.373 . S
C1745 C149 1.396 . S
C1769 C169 1.400 . S
C1777 C172 1.387 . S
C1801 C189 1.396 . S
C1809 C192 1.386 . S
C1833 C209 1.371 . S
C1841 C212 1.399 . S
C1865 C229 1.376 . S
C1873 C232 1.395 . S
C1897 C249 1.382 . S
C1905 C252 1.395 . S
C1929 C272 1.391 . S
C1937 C269 1.389 . S
C1961 C292 1.370 . S
C1969 C289 1.398 . S
C1993 C312 1.373 . S
C2001 C309 1.398 . S
C2025 C332 1.387 . S
C2033 C329 1.390 . S
C2057 C349 1.398 . S
C2065 C352 1.388 . S
