# Generated by pormake.
# Topology wjd, (6)-cn, num edge types: 1
# Building blocks:
#     Node 0, Type 0, BuildingBlock: JUFBIX_clean_sbu_0, # of connection points: 6
#     Node 1, Type 0, BuildingBlock: JUFBIX_clean_sbu_0, # of connection points: 6
#     Node 2, Type 0, BuildingBlock: JUFBIX_clean_sbu_0, # of connection points: 6
#     Node 3, Type 0, BuildingBlock: JUFBIX_clean_sbu_0, # of connection points: 6
#     Node 4, Type 0, BuildingBlock: JUFBIX_clean_sbu_0, # of connection points: 6
#     Node 5, Type 0, BuildingBlock: JUFBIX_clean_sbu_0, # of connection points: 6
#     Node 6, Type 0, BuildingBlock: JUFBIX_clean_sbu_0, # of connection points: 6
#     Node 7, Type 0, BuildingBlock: JUFBIX_clean_sbu_0, # of connection points: 6
#     Node 8, Type 0, BuildingBlock: JUFBIX_clean_sbu_0, # of connection points: 6
#     Node 9, Type 0, BuildingBlock: JUFBIX_clean_sbu_0, # of connection points: 6
#     Node 10, Type 0, BuildingBlock: JUFBIX_clean_sbu_0, # of connection points: 6
#     Node 11, Type 0, BuildingBlock: JUFBIX_clean_sbu_0, # of connection points: 6
#     Edge 12, Type (0, 0), BuildingBlock: CIFDUS_clean_linker_0, # of connection points: 2
#     Edge 13, Type (0, 0), BuildingBlock: CIFDUS_clean_linker_0, # of connection points: 2
#     Edge 14, Type (0, 0), BuildingBlock: CIFDUS_clean_linker_0, # of connection points: 2
#     Edge 15, Type (0, 0), BuildingBlock: CIFDUS_clean_linker_0, # of connection points: 2
#     Edge 16, Type (0, 0), BuildingBlock: CIFDUS_clean_linker_0, # of connection points: 2
#     Edge 17, Type (0, 0), BuildingBlock: CIFDUS_clean_linker_0, # of connection points: 2
#     Edge 18, Type (0, 0), BuildingBlock: CIFDUS_clean_linker_0, # of connection points: 2
#     Edge 19, Type (0, 0), BuildingBlock: CIFDUS_clean_linker_0, # of connection points: 2
#     Edge 20, Type (0, 0), BuildingBlock: CIFDUS_clean_linker_0, # of connection points: 2
#     Edge 21, Type (0, 0), BuildingBlock: CIFDUS_clean_linker_0, # of connection points: 2
#     Edge 22, Type (0, 0), BuildingBlock: CIFDUS_clean_linker_0, # of connection points: 2
#     Edge 23, Type (0, 0), BuildingBlock: CIFDUS_clean_linker_0, # of connection points: 2
#     Edge 24, Type (0, 0), BuildingBlock: CIFDUS_clean_linker_0, # of connection points: 2
#     Edge 25, Type (0, 0), BuildingBlock: CIFDUS_clean_linker_0, # of connection points: 2
#     Edge 26, Type (0, 0), BuildingBlock: CIFDUS_clean_linker_0, # of connection points: 2
#     Edge 27, Type (0, 0), BuildingBlock: CIFDUS_clean_linker_0, # of connection points: 2
#     Edge 28, Type (0, 0), BuildingBlock: CIFDUS_clean_linker_0, # of connection points: 2
#     Edge 29, Type (0, 0), BuildingBlock: CIFDUS_clean_linker_0, # of connection points: 2
#     Edge 30, Type (0, 0), BuildingBlock: CIFDUS_clean_linker_0, # of connection points: 2
#     Edge 31, Type (0, 0), BuildingBlock: CIFDUS_clean_linker_0, # of connection points: 2
#     Edge 32, Type (0, 0), BuildingBlock: CIFDUS_clean_linker_0, # of connection points: 2
#     Edge 33, Type (0, 0), BuildingBlock: CIFDUS_clean_linker_0, # of connection points: 2
#     Edge 34, Type (0, 0), BuildingBlock: CIFDUS_clean_linker_0, # of connection points: 2
#     Edge 35, Type (0, 0), BuildingBlock: CIFDUS_clean_linker_0, # of connection points: 2
#     Edge 36, Type (0, 0), BuildingBlock: CIFDUS_clean_linker_0, # of connection points: 2
#     Edge 37, Type (0, 0), BuildingBlock: CIFDUS_clean_linker_0, # of connection points: 2
#     Edge 38, Type (0, 0), BuildingBlock: CIFDUS_clean_linker_0, # of connection points: 2
#     Edge 39, Type (0, 0), BuildingBlock: CIFDUS_clean_linker_0, # of connection points: 2
#     Edge 40, Type (0, 0), BuildingBlock: CIFDUS_clean_linker_0, # of connection points: 2
#     Edge 41, Type (0, 0), BuildingBlock: CIFDUS_clean_linker_0, # of connection points: 2
#     Edge 42, Type (0, 0), BuildingBlock: CIFDUS_clean_linker_0, # of connection points: 2
#     Edge 43, Type (0, 0), BuildingBlock: CIFDUS_clean_linker_0, # of connection points: 2
#     Edge 44, Type (0, 0), BuildingBlock: CIFDUS_clean_linker_0, # of connection points: 2
#     Edge 45, Type (0, 0), BuildingBlock: CIFDUS_clean_linker_0, # of connection points: 2
#     Edge 46, Type (0, 0), BuildingBlock: CIFDUS_clean_linker_0, # of connection points: 2
#     Edge 47, Type (0, 0), BuildingBlock: CIFDUS_clean_linker_0, # of connection points: 2
# Relax obj value: 0.311
# Max RMSD: 0.241
# Mean RMSD: 0.241
data_MOF--net-wjd--node1-JUFBIX_clean_sbu_0--edge1-CIFDUS_clean_linker_0
_symmetry_space_group_name_H-M    P1
_symmetry_Int_Tables_number       1
_symmetry_cell_setting            triclinic
loop_
_symmetry_equiv_pos_as_xyz
'x, y, z'
_cell_length_a     29.658779
_cell_length_b     29.682106
_cell_length_c     48.091094
_cell_angle_alpha  89.897972
_cell_angle_beta   89.931399
_cell_angle_gamma 120.17316
loop_
_atom_site_label
_atom_site_type_symbol
_atom_site_fract_x
_atom_site_fract_y
_atom_site_fract_z
_atom_type_partial_charge
Co0 Co 0.30333 0.15262 0.12755 0.0
C1 C 0.34434 0.16499 0.18145 0.0
Co2 Co 0.35865 0.12427 0.13245 0.0
C3 C 0.22208 0.17393 0.14298 0.0
C4 C 0.25516 0.20555 0.10309 0.0
N5 N 0.25703 0.17649 0.12416 0.0
N6 N 0.19903 0.20091 0.13465 0.0
C7 C 0.21956 0.22067 0.1095 0.0
H8 H 0.21493 0.15407 0.16279 0.0
H9 H 0.27913 0.21613 0.08458 0.0
C10 C 0.3133 0.10608 0.07946 0.0
N11 N 0.40739 0.10296 0.1355 0.0
C12 C 0.45807 0.13379 0.14226 0.0
C13 C 0.40302 0.05715 0.12816 0.0
N14 N 0.48603 0.10973 0.13886 0.0
C15 C 0.45129 0.06117 0.1302 0.0
C16 C 0.25702 0.04957 0.1432 0.0
O17 O 0.29217 0.13093 0.08922 0.0
O18 O 0.34596 0.10127 0.09449 0.0
O19 O 0.30319 0.05689 0.14341 0.0
O20 O 0.24967 0.08702 0.13727 0.0
O21 O 0.36981 0.14548 0.17061 0.0
H22 H 0.36761 0.02381 0.12064 0.0
H23 H 0.47473 0.17424 0.14808 0.0
O24 O 0.31356 0.17223 0.16612 0.0
O25 O 0.35696 0.21886 0.11786 0.0
O26 O 0.41338 0.19254 0.1214 0.0
C27 C 0.40367 0.22893 0.11677 0.0
H28 H 0.20938 0.24416 0.09661 0.0
H29 H 0.46017 0.03102 0.12499 0.0
Co30 Co 0.78106 0.69656 0.39569 0.0
C31 C 0.80261 0.64883 0.35265 0.0
Co32 Co 0.81465 0.64933 0.41039 0.0
C33 C 0.77745 0.78963 0.39144 0.0
C34 C 0.71388 0.72928 0.36872 0.0
N35 N 0.75575 0.73911 0.38418 0.0
N36 N 0.75126 0.81205 0.38121 0.0
C37 C 0.71084 0.7742 0.36698 0.0
H38 H 0.8112 0.80935 0.40482 0.0
H39 H 0.68712 0.69191 0.35961 0.0
C40 C 0.79106 0.69853 0.4531 0.0
N41 N 0.84247 0.60903 0.42272 0.0
C42 C 0.83079 0.56076 0.41467 0.0
C43 C 0.8816 0.62384 0.44119 0.0
N44 N 0.86146 0.54517 0.42721 0.0
C45 C 0.89348 0.58482 0.4439 0.0
C46 C 0.89006 0.74948 0.39804 0.0
O47 O 0.7795 0.71715 0.43245 0.0
O48 O 0.80711 0.66647 0.44874 0.0
O49 O 0.88214 0.70689 0.40835 0.0
O50 O 0.85122 0.75397 0.39102 0.0
O51 O 0.82116 0.63331 0.37194 0.0
H52 H 0.90062 0.66092 0.45183 0.0
H53 H 0.80106 0.53794 0.39949 0.0
O54 O 0.78202 0.67608 0.35881 0.0
O55 O 0.71141 0.63777 0.40025 0.0
O56 O 0.74723 0.59123 0.41198 0.0
C57 C 0.70665 0.59395 0.40698 0.0
H58 H 0.68141 0.77869 0.35609 0.0
H59 H 0.9229 0.58528 0.45739 0.0
Co60 Co 0.86509 0.18146 0.15623 0.0
C61 C 0.85404 0.22861 0.20493 0.0
Co62 Co 0.89049 0.26438 0.15286 0.0
C63 C 0.85429 0.07685 0.15614 0.0
C64 C 0.7918 0.08211 0.17512 0.0
N65 N 0.83808 0.11091 0.16209 0.0
N66 N 0.81943 0.02809 0.16495 0.0
C67 C 0.78047 0.03172 0.17703 0.0
H68 H 0.89032 0.08743 0.14533 0.0
H69 H 0.76743 0.09686 0.18285 0.0
C70 C 0.90931 0.22179 0.10517 0.0
N71 N 0.91176 0.33376 0.14789 0.0
C72 C 0.88168 0.35461 0.15369 0.0
C73 C 0.95315 0.3713 0.13396 0.0
N74 N 0.90135 0.40289 0.14318 0.0
C75 C 0.94663 0.41391 0.13083 0.0
C76 C 0.96791 0.24392 0.16968 0.0
O77 O 0.88969 0.17924 0.11903 0.0
O78 O 0.90753 0.26029 0.11546 0.0
O79 O 0.95941 0.28057 0.1629 0.0
O80 O 0.93028 0.19714 0.16991 0.0
O81 O 0.87565 0.26967 0.19033 0.0
H82 H 0.98435 0.36689 0.12529 0.0
H83 H 0.84386 0.33314 0.16362 0.0
O84 O 0.84353 0.18578 0.19367 0.0
O85 O 0.79959 0.16507 0.14199 0.0
O86 O 0.82057 0.24666 0.14261 0.0
C87 C 0.78685 0.19929 0.13839 0.0
H88 H 0.74632 1.0003 0.18695 0.0
H89 H 0.97209 0.44927 0.11945 0.0
Co90 Co 0.30841 0.07819 0.38786 0.0
C91 C 0.35678 0.15061 0.34592 0.0
Co92 Co 0.35709 0.15776 0.40416 0.0
C93 C 0.21474 0.98209 0.38156 0.0
C94 C 0.27557 0.98107 0.35814 0.0
N95 N 0.26566 0.01137 0.37498 0.0
N96 N 0.19213 0.93495 0.36948 0.0
C97 C 0.23025 0.93368 0.35484 0.0
H98 H 0.19469 0.99475 0.39556 0.0
H99 H 0.31315 0.99263 0.34893 0.0
C100 C 0.30704 0.08132 0.44554 0.0
N101 N 0.39798 0.22511 0.4175 0.0
C102 C 0.44552 0.26232 0.40856 0.0
C103 C 0.38417 0.2489 0.43681 0.0
N104 N 0.4616 0.30848 0.42129 0.0
C105 C 0.42308 0.30018 0.43909 0.0
C106 C 0.25639 0.13439 0.39351 0.0
O107 O 0.28843 0.05296 0.42424 0.0
O108 O 0.3391 0.13002 0.44219 0.0
O109 O 0.3 0.16841 0.40318 0.0
O110 O 0.25084 0.09123 0.38526 0.0
O111 O 0.37426 0.18306 0.36597 0.0
H112 H 0.3476 0.23039 0.44808 0.0
H113 H 0.46722 0.25606 0.3924 0.0
O114 O 0.32788 0.10244 0.3511 0.0
O115 O 0.36752 0.06692 0.3909 0.0
O116 O 0.4144 0.14791 0.40505 0.0
C117 C 0.41126 0.10492 0.39888 0.0
H118 H 0.22558 0.90117 0.34248 0.0
H119 H 0.42315 0.32906 0.45284 0.0
Co120 Co 0.82737 0.69064 0.1389 0.0
C121 C 0.77799 0.63571 0.18818 0.0
Co122 Co 0.74214 0.6429 0.13681 0.0
C123 C 0.93285 0.77754 0.13819 0.0
C124 C 0.92797 0.7061 0.15077 0.0
N125 N 0.89873 0.72667 0.14244 0.0
N126 N 0.98251 0.78967 0.14342 0.0
C127 C 0.97936 0.74453 0.15125 0.0
H128 H 0.921 0.80501 0.13184 0.0
H129 H 0.91283 0.66563 0.15625 0.0
C130 C 0.78858 0.70121 0.08864 0.0
N131 N 0.67058 0.60427 0.13312 0.0
C132 C 0.64069 0.55215 0.13573 0.0
C133 C 0.63844 0.62002 0.12287 0.0
N134 N 0.5915 0.53434 0.12681 0.0
C135 C 0.58975 0.57709 0.119 0.0
C136 C 0.77945 0.74451 0.15455 0.0
O137 O 0.8315 0.71807 0.10171 0.0
O138 O 0.7469 0.6657 0.09975 0.0
O139 O 0.73809 0.7021 0.1486 0.0
O140 O 0.82322 0.74682 0.15302 0.0
O141 O 0.73686 0.6212 0.17404 0.0
H142 H 0.65038 0.65971 0.11709 0.0
H143 H 0.65538 0.52755 0.14315 0.0
O144 O 0.82206 0.6642 0.17651 0.0
O145 O 0.83212 0.63506 0.1243 0.0
O146 O 0.74757 0.58401 0.12504 0.0
C147 C 0.79261 0.59089 0.12016 0.0
H148 H 0.01167 0.73913 0.15675 0.0
H149 H 0.55664 0.57719 0.10964 0.0
Co150 Co 0.9221 0.22088 0.41102 0.0
C151 C 0.85235 0.19882 0.36835 0.0
Co152 Co 0.84117 0.18779 0.42604 0.0
C153 C 0.01901 0.22335 0.40279 0.0
C154 C 0.02022 0.28889 0.38337 0.0
N155 N 0.98984 0.24601 0.39872 0.0
N156 N 0.06619 0.25011 0.39055 0.0
C157 C 0.06738 0.29168 0.37845 0.0
H158 H 0.00609 0.18804 0.41478 0.0
H159 H 0.00864 0.31603 0.37599 0.0
C160 C 0.91438 0.2123 0.46861 0.0
N161 N 0.77236 0.16094 0.43746 0.0
C162 C 0.73773 0.1727 0.42631 0.0
C163 C 0.74391 0.12087 0.45495 0.0
N164 N 0.68874 0.14121 0.43576 0.0
C165 C 0.69241 0.10851 0.45387 0.0
C166 C 0.86519 0.11192 0.41436 0.0
O167 O 0.94449 0.22295 0.44783 0.0
O168 O 0.866 0.19625 0.4644 0.0
O169 O 0.83055 0.11985 0.42477 0.0
O170 O 0.90856 0.15073 0.40696 0.0
O171 O 0.81872 0.18046 0.38782 0.0
H172 H 0.75922 0.1006 0.46686 0.0
H173 H 0.74788 0.2022 0.41044 0.0
O174 O 0.90039 0.21951 0.37415 0.0
O175 O 0.93369 0.29052 0.41496 0.0
O176 O 0.8513 0.25567 0.42679 0.0
C177 C 0.89492 0.29586 0.42139 0.0
H178 H 0.0996 0.32136 0.36647 0.0
H179 H 0.66016 0.07759 0.46526 0.0
Co180 Co 0.10959 0.35238 0.65612 0.0
C181 C 0.09583 0.30271 0.60422 0.0
Co182 Co 0.14076 0.29917 0.65356 0.0
C183 C 0.11358 0.44965 0.66116 0.0
C184 C 0.04134 0.39254 0.64309 0.0
N185 N 0.08443 0.39822 0.65574 0.0
N186 N 0.09186 0.47681 0.65127 0.0
C187 C 0.04595 0.44093 0.64016 0.0
H188 H 0.1527 0.46765 0.66952 0.0
H189 H 0.01104 0.35649 0.63423 0.0
C190 C 0.14897 0.34442 0.7064 0.0
N191 N 0.17071 0.25786 0.65455 0.0
C192 C 0.15375 0.20826 0.64677 0.0
C193 C 0.218 0.2743 0.66598 0.0
N194 N 0.18901 0.19354 0.6529 0.0
C195 C 0.22925 0.2351 0.66504 0.0
C196 C 0.21421 0.40016 0.6406 0.0
O197 O 0.12736 0.36711 0.69467 0.0
O198 O 0.15907 0.31493 0.69188 0.0
O199 O 0.20502 0.35399 0.64254 0.0
O200 O 0.17752 0.40924 0.64549 0.0
O201 O 0.12042 0.28227 0.61529 0.0
H202 H 0.24245 0.31227 0.67512 0.0
H203 H 0.11634 0.18355 0.63707 0.0
O204 O 0.09001 0.33604 0.61796 0.0
O205 O 0.04275 0.29496 0.66624 0.0
O206 O 0.07657 0.24389 0.66423 0.0
C207 C 0.03738 0.2496 0.66804 0.0
H208 H 0.01933 0.44937 0.62905 0.0
H209 H 0.26375 0.23665 0.67358 0.0
Co210 Co 0.19168 0.88236 0.89412 0.0
C211 C 0.23771 0.87941 0.84314 0.0
Co212 Co 0.27611 0.91321 0.89567 0.0
C213 C 0.08355 0.86276 0.89711 0.0
C214 C 0.09221 0.80175 0.87904 0.0
N215 N 0.11965 0.84935 0.89081 0.0
N216 N 0.0349 0.82489 0.88988 0.0
C217 C 0.04054 0.78667 0.87853 0.0
H218 H 0.09281 0.89952 0.90651 0.0
H219 H 0.10891 0.77956 0.87067 0.0
C220 C 0.23359 0.92014 0.94627 0.0
N221 N 0.3473 0.94 0.89816 0.0
C222 C 0.37129 0.91412 0.88956 0.0
C223 C 0.38307 0.97964 0.91367 0.0
N224 N 0.41984 0.93446 0.89985 0.0
C225 C 0.42775 0.97617 0.91487 0.0
C226 C 0.24504 0.98677 0.88391 0.0
O227 O 0.19068 0.9017 0.93287 0.0
O228 O 0.27349 0.92422 0.93412 0.0
O229 O 0.28465 0.98154 0.8887 0.0
O230 O 0.19983 0.94653 0.88336 0.0
O231 O 0.27947 0.90297 0.85708 0.0
H232 H 0.37572 0.0066 0.92517 0.0
H233 H 0.35157 0.87786 0.87815 0.0
O234 O 0.19466 0.86546 0.85544 0.0
O235 O 0.18299 0.81791 0.90538 0.0
O236 O 0.26573 0.84445 0.90303 0.0
C237 C 0.21938 0.80774 0.90696 0.0
H238 H 0.00976 0.75115 0.86944 0.0
H239 H 0.4621 1.00061 0.92712 0.0
Co240 Co 0.63431 0.73237 0.63627 0.0
C241 C 0.69143 0.78072 0.58773 0.0
Co242 Co 0.68677 0.81697 0.63952 0.0
C243 C 0.54141 0.63339 0.6368 0.0
C244 C 0.60474 0.62851 0.61866 0.0
N245 N 0.59287 0.66167 0.63138 0.0
N246 N 0.52016 0.58408 0.62748 0.0
C247 C 0.56004 0.58067 0.61625 0.0
H248 H 0.51979 0.64921 0.64689 0.0
H249 H 0.64288 0.63905 0.61061 0.0
C250 C 0.63311 0.76592 0.68893 0.0
N251 N 0.72478 0.88828 0.64527 0.0
C252 C 0.77609 0.9237 0.64322 0.0
C253 C 0.70317 0.91471 0.65651 0.0
N254 N 0.7869 0.97105 0.65272 0.0
C255 C 0.74091 0.9652 0.661 0.0
C256 C 0.58543 0.78807 0.6241 0.0
O257 O 0.61412 0.72508 0.67418 0.0
O258 O 0.66397 0.80949 0.67758 0.0
O259 O 0.63128 0.82501 0.62805 0.0
O260 O 0.57636 0.74165 0.62636 0.0
O261 O 0.7105 0.82316 0.60148 0.0
H262 H 0.66263 0.89775 0.66241 0.0
H263 H 0.80491 0.91453 0.63564 0.0
O264 O 0.6557 0.73891 0.59865 0.0
O265 O 0.69229 0.72441 0.64596 0.0
O266 O 0.74263 0.80911 0.65057 0.0
C267 C 0.73699 0.7638 0.65089 0.0
H268 H 0.55686 0.54681 0.60595 0.0
H269 H 0.73512 0.99454 0.67101 0.0
Co270 Co 0.14187 0.32009 0.92541 0.0
C271 C 0.14409 0.36185 0.87265 0.0
Co272 Co 0.11628 0.37845 0.92503 0.0
C273 C 0.16381 0.23767 0.90843 0.0
C274 C 0.20077 0.27611 0.94633 0.0
N275 N 0.16799 0.27459 0.92645 0.0
N276 N 0.19331 0.21677 0.91627 0.0
C277 C 0.21634 0.24088 0.94016 0.0
H278 H 0.14065 0.22726 0.88965 0.0
H279 H 0.21329 0.30195 0.96406 0.0
C280 C 0.10789 0.3347 0.97715 0.0
N281 N 0.0928 0.42566 0.92512 0.0
C282 C 0.11886 0.47632 0.91736 0.0
C283 C 0.0475 0.41793 0.93594 0.0
N284 N 0.09178 0.50063 0.9231 0.0
C285 C 0.04671 0.46378 0.93468 0.0
C286 C 0.03745 0.27499 0.91759 0.0
O287 O 0.1262 0.30917 0.96501 0.0
O288 O 0.1042 0.36942 0.96363 0.0
O289 O 0.04679 0.32176 0.91885 0.0
O290 O 0.07456 0.26542 0.91907 0.0
O291 O 0.12727 0.38687 0.88643 0.0
H292 H 0.01781 0.38179 0.94514 0.0
H293 H 0.15734 0.49518 0.90808 0.0
O294 O 0.1544 0.33036 0.88551 0.0
O295 O 0.21037 0.37589 0.9319 0.0
O296 O 0.18587 0.43404 0.93104 0.0
C297 C 0.22207 0.42322 0.93288 0.0
H298 H 0.24218 0.23313 0.95254 0.0
H299 H 0.01615 0.46991 0.94276 0.0
Co300 Co 0.25291 0.87534 0.62805 0.0
C301 C 0.21492 0.88662 0.57614 0.0
Co302 Co 0.1678 0.84064 0.62544 0.0
C303 C 0.35241 0.88214 0.63219 0.0
C304 C 0.35932 0.95311 0.61692 0.0
N305 N 0.32461 0.90592 0.62727 0.0
N306 N 0.40283 0.91191 0.62463 0.0
C307 C 0.40745 0.95694 0.6153 0.0
H308 H 0.33542 0.84285 0.6402 0.0
H309 H 0.34963 0.98157 0.60942 0.0
C310 C 0.20775 0.83657 0.67848 0.0
N311 N 0.09556 0.80639 0.62683 0.0
C312 C 0.0617 0.82417 0.62557 0.0
C313 C 0.06628 0.75605 0.63472 0.0
N314 N 0.01261 0.78672 0.63245 0.0
C315 C 0.01571 0.74391 0.63806 0.0
C316 C 0.20141 0.77115 0.61346 0.0
O317 O 0.25189 0.86078 0.66652 0.0
O318 O 0.16687 0.82204 0.66398 0.0
O319 O 0.16298 0.77829 0.61373 0.0
O320 O 0.24623 0.80882 0.6194 0.0
O321 O 0.16985 0.86157 0.58737 0.0
H322 H 0.08114 0.73036 0.63964 0.0
H323 H 0.07329 0.86421 0.62086 0.0
O324 O 0.25435 0.89233 0.5896 0.0
O325 O 0.2581 0.94016 0.63695 0.0
O326 O 0.17269 0.90306 0.63664 0.0
C327 C 0.21715 0.94341 0.63973 0.0
H328 H 0.44226 0.98914 0.60633 0.0
H329 H 0.98449 0.70719 0.64588 0.0
Co330 Co 0.70327 0.83994 0.905 0.0
C331 C 0.65104 0.79524 0.85394 0.0
Co332 Co 0.64806 0.75571 0.90503 0.0
C333 C 0.76843 0.95077 0.91825 0.0
C334 C 0.77071 0.93238 0.87543 0.0
N335 N 0.74915 0.91055 0.90019 0.0
N336 N 0.80001 0.99661 0.90538 0.0
C337 C 0.80147 0.98504 0.87852 0.0
H338 H 0.7601 0.94655 0.94033 0.0
H339 H 0.76569 0.9113 0.8563 0.0
C340 C 0.70076 0.79771 0.95566 0.0
N341 N 0.60183 0.68469 0.90923 0.0
C342 C 0.54921 0.65803 0.90734 0.0
C343 C 0.61432 0.64942 0.91846 0.0
N344 N 0.52849 0.60764 0.91516 0.0
C345 C 0.56955 0.6022 0.92201 0.0
C346 C 0.7494 0.78253 0.89191 0.0
O347 O 0.72652 0.84079 0.94262 0.0
O348 O 0.6638 0.7589 0.94338 0.0
O349 O 0.70479 0.74306 0.89697 0.0
O350 O 0.75463 0.82742 0.89261 0.0
O351 O 0.63244 0.75187 0.86653 0.0
H352 H 0.65332 0.65792 0.92355 0.0
H353 H 0.52647 0.67549 0.90091 0.0
O354 O 0.67957 0.83684 0.86743 0.0
O355 O 0.65222 0.85388 0.91772 0.0
O356 O 0.59325 0.77114 0.913 0.0
C357 C 0.60506 0.81772 0.91872 0.0
H358 H 0.82543 0.01249 0.86255 0.0
H359 H 0.56739 0.56723 0.93028 0.0
H360 H 0.99791 0.17746 0.189 0.0
H361 H 0.05777 0.32968 0.15198 0.0
H362 H 0.13905 0.332 0.14028 0.0
H363 H 0.18628 0.28434 0.13365 0.0
H364 H 0.12385 0.13028 0.1684 0.0
H365 H 0.0504 0.13509 0.18804 0.0
C366 C 0.02929 0.21178 0.17903 0.0
C367 C 0.02152 0.25295 0.17096 0.0
C368 C 0.07497 0.21197 0.17144 0.0
C369 C 0.06272 0.29743 0.1584 0.0
C370 C 0.10897 0.29849 0.15137 0.0
C371 C 0.15672 0.25205 0.14569 0.0
C372 C 0.15977 0.20661 0.14912 0.0
C373 C 0.11435 0.25489 0.15658 0.0
C374 C 0.12217 0.16556 0.16543 0.0
C375 C 0.08012 0.16824 0.17656 0.0
H376 H 0.10931 0.94825 0.37393 0.0
H377 H 0.15482 0.83133 0.37228 0.0
H378 H 0.06458 0.76335 0.38144 0.0
H379 H 0.97386 0.73794 0.39129 0.0
H380 H 0.92693 0.85399 0.39126 0.0
H381 H 0.01715 0.92213 0.38167 0.0
C382 C 0.09935 0.90785 0.37563 0.0
C383 C 0.13856 0.89467 0.37267 0.0
C384 C 0.04749 0.86919 0.38079 0.0
C385 C 0.12517 0.8422 0.37432 0.0
C386 C 0.07375 0.80351 0.37974 0.0
C387 C 0.98338 0.77821 0.38934 0.0
C388 C 0.94406 0.79117 0.39236 0.0
C389 C 0.0348 0.81668 0.3833 0.0
C390 C 0.95669 0.84324 0.38918 0.0
C391 C 0.00815 0.88207 0.38368 0.0
H392 H 0.73763 0.93104 0.16201 0.0
H393 H 0.90586 0.01896 0.16194 0.0
H394 H 0.90822 0.93768 0.16035 0.0
H395 H 0.86212 0.84223 0.15927 0.0
H396 H 0.69357 0.75505 0.15986 0.0
H397 H 0.69172 0.83627 0.16224 0.0
C398 C 0.7749 0.93259 0.16206 0.0
C399 C 0.82154 0.98096 0.16239 0.0
C400 C 0.77582 0.88605 0.16168 0.0
C401 C 0.86947 0.98223 0.1615 0.0
C402 C 0.87078 0.93582 0.16087 0.0
C403 C 0.8249 0.84086 0.16028 0.0
C404 C 0.77797 0.79266 0.1595 0.0
C405 C 0.82414 0.88758 0.16111 0.0
C406 C 0.73017 0.79163 0.16057 0.0
C407 C 0.7291 0.838 0.16174 0.0
H408 H 0.2661 0.2297 0.39442 0.0
H409 H 0.15121 0.06632 0.38807 0.0
H410 H 0.08147 0.08788 0.38677 0.0
H411 H 0.05356 0.15371 0.38814 0.0
H412 H 0.16973 0.31676 0.39273 0.0
H413 H 0.2389 0.29485 0.39387 0.0
C414 C 0.22579 0.19869 0.39277 0.0
C415 C 0.21376 0.14643 0.39159 0.0
C416 C 0.18628 0.21141 0.39169 0.0
C417 C 0.16142 0.10683 0.38903 0.0
C418 C 0.12161 0.11916 0.38836 0.0
C419 C 0.09405 0.1843 0.38951 0.0
C420 C 0.10665 0.23681 0.39052 0.0
C421 C 0.13361 0.17135 0.38983 0.0
C422 C 0.15922 0.27619 0.39176 0.0
C423 C 0.19867 0.26365 0.39253 0.0
H424 H 0.16125 0.01887 0.1243 0.0
H425 H 0.24996 0.96352 0.16918 0.0
H426 H 0.17135 0.87721 0.17375 0.0
H427 H 0.07793 0.81903 0.165 0.0
H428 H 0.99292 0.87525 0.11685 0.0
H429 H 0.07019 0.96065 0.11406 0.0
C430 C 0.16351 0.98812 0.13532 0.0
C431 C 0.21102 0.99751 0.14674 0.0
C432 C 0.11897 0.93907 0.13733 0.0
C433 C 0.21359 0.95705 0.16037 0.0
C434 C 0.16877 0.90791 0.16295 0.0
C435 C 0.0761 0.84951 0.15361 0.0
C436 C 0.02896 0.84017 0.14135 0.0
C437 C 0.12126 0.89857 0.15143 0.0
C438 C 0.02788 0.88095 0.127 0.0
C439 C 0.0723 0.92996 0.12518 0.0
H440 H 0.84706 0.89593 0.38585 0.0
H441 H 0.68341 0.84694 0.38738 0.0
H442 H 0.70455 0.9358 0.3988 0.0
H443 H 0.76946 0.02669 0.40916 0.0
H444 H 0.93347 0.07674 0.40585 0.0
H445 H 0.91233 0.98772 0.39474 0.0
C446 C 0.81607 0.90476 0.38877 0.0
C447 C 0.76371 0.86494 0.38597 0.0
C448 C 0.8286 0.95584 0.39525 0.0
C449 C 0.72394 0.87703 0.38924 0.0
C450 C 0.73603 0.92768 0.39597 0.0
C451 C 0.80062 0.01805 0.40624 0.0
C452 C 0.85297 0.05805 0.40867 0.0
C453 C 0.78819 0.96724 0.39923 0.0
C454 C 0.8929 0.04652 0.40425 0.0
C455 C 0.88082 0.99571 0.39784 0.0
H456 H 0.13704 0.96211 0.64461 0.0
H457 H 0.30536 0.03872 0.64323 0.0
H458 H 0.3109 0.12345 0.64575 0.0
H459 H 0.2682 0.17515 0.64715 0.0
H460 H 0.10024 0.09935 0.65008 0.0
H461 H 0.09424 0.01428 0.64699 0.0
C462 C 0.175 0.9973 0.64507 0.0
C463 C 0.22077 0.9942 0.64382 0.0
C464 C 0.1779 0.04575 0.64626 0.0
C465 C 0.26958 0.0401 0.64434 0.0
C466 C 0.27278 0.08851 0.6456 0.0
C467 C 0.23023 0.14009 0.64746 0.0
C468 C 0.18476 0.14357 0.64911 0.0
C469 C 0.22721 0.09167 0.64639 0.0
C470 C 0.13582 0.09776 0.6486 0.0
C471 C 0.1324 0.04915 0.64712 0.0
H472 H 0.93836 0.74189 0.89533 0.0
H473 H 0.02329 0.90939 0.88686 0.0
H474 H 0.94123 0.90974 0.88467 0.0
H475 H 0.84679 0.86291 0.88442 0.0
H476 H 0.76006 0.69548 0.89413 0.0
H477 H 0.84224 0.69437 0.89529 0.0
C478 C 0.93887 0.77844 0.89286 0.0
C479 C 0.98686 0.82561 0.89114 0.0
C480 C 0.89158 0.77818 0.89129 0.0
C481 C 0.98698 0.87274 0.88856 0.0
C482 C 0.94011 0.87285 0.88698 0.0
C483 C 0.84544 0.82587 0.88659 0.0
C484 C 0.79721 0.77918 0.88908 0.0
C485 C 0.89238 0.82581 0.88811 0.0
C486 C 0.79659 0.73182 0.89194 0.0
C487 C 0.84353 0.7313 0.89285 0.0
H488 H 0.80575 0.06959 0.65523 0.0
H489 H 0.88089 0.97719 0.65814 0.0
H490 H 0.96488 0.05582 0.66597 0.0
H491 H 0.01653 0.15011 0.67119 0.0
H492 H 0.9418 0.24297 0.668 0.0
H493 H 0.85695 0.16377 0.66258 0.0
C494 C 0.84029 0.0664 0.65794 0.0
C495 C 0.8369 0.01742 0.65612 0.0
C496 C 0.88814 0.11154 0.6629 0.0
C497 C 0.88239 0.01434 0.65903 0.0
C498 C 0.93033 0.05921 0.66383 0.0
C499 C 0.98167 0.15319 0.66969 0.0
C500 C 0.98546 0.20242 0.66995 0.0
C501 C 0.93354 0.1079 0.66578 0.0
C502 C 0.93989 0.20555 0.66802 0.0
C503 C 0.89151 0.16036 0.66463 0.0
H504 H 0.27857 0.20659 0.91557 0.0
H505 H 0.1194 0.13467 0.88736 0.0
H506 H 0.12413 0.05915 0.87087 0.0
H507 H 0.17005 0.0096 0.86972 0.0
H508 H 0.32855 0.08048 0.89934 0.0
H509 H 0.32783 0.16074 0.90968 0.0
C510 C 0.24503 0.1745 0.90566 0.0
C511 C 0.19837 0.17585 0.9031 0.0
C512 C 0.24795 0.13107 0.89653 0.0
C513 C 0.15569 0.1346 0.88957 0.0
C514 C 0.15833 0.09131 0.8803 0.0
C515 C 0.20488 0.04294 0.87792 0.0
C516 C 0.2492 0.03876 0.88396 0.0
C517 C 0.20379 0.08854 0.88438 0.0
C518 C 0.294 0.08253 0.8944 0.0
C519 C 0.29343 0.12833 0.90057 0.0
H520 H 0.91264 0.70898 0.63251 0.0
H521 H 0.00969 0.87565 0.64192 0.0
H522 H 0.93244 0.88251 0.65104 0.0
H523 H 0.83759 0.84126 0.65565 0.0
H524 H 0.74124 0.67426 0.64711 0.0
H525 H 0.81891 0.66727 0.63984 0.0
C526 C 0.91727 0.74682 0.63697 0.0
C527 C 0.96716 0.79166 0.63657 0.0
C528 C 0.87298 0.75032 0.64287 0.0
C529 C 0.9719 0.84049 0.64167 0.0
C530 C 0.92775 0.8444 0.64723 0.0
C531 C 0.83352 0.80317 0.65267 0.0
C532 C 0.78365 0.75831 0.6519 0.0
C533 C 0.87816 0.79953 0.6479 0.0
C534 C 0.77915 0.70935 0.64793 0.0
C535 C 0.82348 0.70537 0.6435 0.0
H536 H 0.99667 0.18996 0.94975 0.0
H537 H 0.95917 0.2629 0.88321 0.0
H538 H 0.8749 0.18278 0.87666 0.0
H539 H 0.81946 0.08849 0.88534 0.0
H540 H 0.85769 0.01606 0.95173 0.0
H541 H 0.93361 0.10017 0.96382 0.0
C542 C 0.96951 0.18834 0.93412 0.0
C543 C 0.98392 0.23118 0.91647 0.0
C544 C 0.92156 0.14257 0.93066 0.0
C545 C 0.94857 0.22981 0.89674 0.0
C546 C 0.90068 0.18414 0.89301 0.0
C547 C 0.84377 0.09173 0.90293 0.0
C548 C 0.83389 0.04654 0.91744 0.0
C549 C 0.88776 0.13977 0.90918 0.0
C550 C 0.86478 0.05059 0.94041 0.0
C551 C 0.90843 0.09844 0.94703 0.0
H552 H 0.30266 0.17529 0.30972 0.0
H553 H 0.43768 0.15767 0.31633 0.0
H554 H 0.44859 0.16446 0.26565 0.0
H555 H 0.41396 0.16604 0.21921 0.0
H556 H 0.2784 0.18351 0.21272 0.0
H557 H 0.27373 0.18667 0.2633 0.0
C558 C 0.33533 0.17458 0.30001 0.0
C559 C 0.36994 0.16696 0.31661 0.0
C560 C 0.34076 0.17769 0.2708 0.0
C561 C 0.4113 0.1646 0.3039 0.0
C562 C 0.41717 0.16795 0.27493 0.0
C563 C 0.38383 0.17129 0.22883 0.0
C564 C 0.34634 0.17408 0.21203 0.0
C565 C 0.38129 0.17307 0.25809 0.0
C566 C 0.3078 0.18121 0.22499 0.0
C567 C 0.30494 0.18285 0.254 0.0
H568 H 0.72417 0.61118 0.31586 0.0
H569 H 0.88769 0.6628 0.32311 0.0
H570 H 0.8948 0.66026 0.27224 0.0
H571 H 0.85544 0.65201 0.22543 0.0
H572 H 0.69022 0.59597 0.2197 0.0
H573 H 0.68278 0.59093 0.27004 0.0
C574 C 0.7611 0.62078 0.30627 0.0
C575 C 0.80536 0.63726 0.32303 0.0
C576 C 0.76466 0.61888 0.27722 0.0
C577 C 0.85302 0.64954 0.31053 0.0
C578 C 0.85711 0.64852 0.28146 0.0
C579 C 0.81771 0.6379 0.23521 0.0
C580 C 0.77364 0.62511 0.21863 0.0
C581 C 0.8134 0.63456 0.26451 0.0
C582 C 0.72494 0.60639 0.23174 0.0
C583 C 0.72056 0.60362 0.26064 0.0
H584 H 0.79733 0.14937 0.24184 0.0
H585 H 0.89963 0.31607 0.23655 0.0
H586 H 0.90478 0.32184 0.28701 0.0
H587 H 0.88854 0.27867 0.33243 0.0
H588 H 0.78302 0.11332 0.33898 0.0
H589 H 0.77034 0.10775 0.28833 0.0
C590 C 0.81997 0.18702 0.25177 0.0
C591 C 0.84863 0.23209 0.23537 0.0
C592 C 0.82253 0.19025 0.28101 0.0
C593 C 0.87732 0.28069 0.24857 0.0
C594 C 0.88055 0.28408 0.27749 0.0
C595 C 0.86199 0.24165 0.32272 0.0
C596 C 0.83697 0.19642 0.33909 0.0
C597 C 0.8546 0.23901 0.29384 0.0
C598 C 0.80241 0.14861 0.32659 0.0
C599 C 0.7955 0.14544 0.29769 0.0
H600 H 0.13082 0.40196 0.74444 0.0
H601 H 0.1865 0.29321 0.73743 0.0
H602 H 0.19215 0.29021 0.78793 0.0
H603 H 0.17614 0.31429 0.83462 0.0
H604 H 0.12128 0.4239 0.84106 0.0
H605 H 0.12078 0.43063 0.79072 0.0
C606 C 0.14474 0.37804 0.75391 0.0
C607 C 0.15786 0.34769 0.737 0.0
C608 C 0.14777 0.37625 0.78311 0.0
C609 C 0.17597 0.31701 0.7498 0.0
C610 C 0.17909 0.31508 0.77878 0.0
C611 C 0.16452 0.33997 0.82501 0.0
C612 C 0.14841 0.36814 0.84182 0.0
C613 C 0.16427 0.34386 0.79573 0.0
C614 C 0.13366 0.4014 0.82885 0.0
C615 C 0.13328 0.40536 0.79992 0.0
H616 H 0.15632 0.82788 0.80677 0.0
H617 H 0.32446 0.90971 0.81131 0.0
H618 H 0.32985 0.89952 0.76139 0.0
H619 H 0.28752 0.87254 0.71584 0.0
H620 H 0.11954 0.79139 0.71074 0.0
H621 H 0.1136 0.79547 0.76125 0.0
C622 C 0.19413 0.84322 0.79687 0.0
C623 C 0.23989 0.86999 0.81289 0.0
C624 C 0.1971 0.83729 0.76793 0.0
C625 C 0.28852 0.88923 0.79962 0.0
C626 C 0.29172 0.8834 0.77098 0.0
C627 C 0.24953 0.85501 0.72576 0.0
C628 C 0.2041 0.83187 0.70935 0.0
C629 C 0.24635 0.85817 0.75485 0.0
C630 C 0.15525 0.80947 0.72273 0.0
C631 C 0.15178 0.81204 0.75168 0.0
H632 H 0.66562 0.84587 0.72575 0.0
H633 H 0.57998 0.67796 0.72082 0.0
H634 H 0.57429 0.67198 0.7715 0.0
H635 H 0.60023 0.71442 0.8174 0.0
H636 H 0.68635 0.88246 0.82186 0.0
H637 H 0.68484 0.88817 0.77139 0.0
C638 C 0.64515 0.80792 0.73571 0.0
C639 C 0.6237 0.76246 0.71942 0.0
C640 C 0.6424 0.80471 0.76491 0.0
C641 C 0.59703 0.71366 0.73278 0.0
C642 C 0.59391 0.71017 0.76182 0.0
C643 C 0.61808 0.75229 0.80736 0.0
C644 C 0.64386 0.79789 0.82352 0.0
C645 C 0.61744 0.75543 0.77813 0.0
C646 C 0.66658 0.84663 0.81006 0.0
C647 C 0.66583 0.85001 0.78111 0.0
H648 H 0.20965 0.9926 0.96528 0.0
H649 H 0.27967 0.90185 0.98967 0.0
H650 H 0.31212 0.95246 0.0324 0.0
H651 H 0.32524 0.02564 0.06166 0.0
H652 H 0.25652 0.11802 0.03786 0.0
H653 H 0.21994 0.06465 0.99608 0.0
C654 C 0.23055 0.98294 0.98044 0.0
C655 C 0.24109 0.94255 0.97463 0.0
C656 C 0.25074 0.0136 1.00472 0.0
C657 C 0.27007 0.9319 0.99394 0.0
C658 C 0.28923 0.96131 1.01822 0.0
C659 C 0.30269 0.03455 0.04724 0.0
C660 C 0.2945 0.07655 0.05281 0.0
C661 C 0.28086 0.003 1.02355 0.0
C662 C 0.2641 0.08647 0.03404 0.0
C663 C 0.24279 0.05564 1.0102 0.0
H664 H 0.7845 0.78316 0.46875 0.0
H665 H 0.77262 0.64184 0.50107 0.0
H666 H 0.74121 0.65576 0.54557 0.0
H667 H 0.71137 0.70466 0.57402 0.0
H668 H 0.72713 0.84825 0.54305 0.0
H669 H 0.76279 0.83692 0.49909 0.0
C670 C 0.77568 0.7557 0.48566 0.0
C671 C 0.7806 0.71119 0.48148 0.0
C672 C 0.75771 0.76406 0.5112 0.0
C673 C 0.76946 0.67639 0.5037 0.0
C674 C 0.75107 0.68416 0.52907 0.0
C675 C 0.72253 0.73347 0.55759 0.0
C676 C 0.7155 0.77669 0.56146 0.0
C677 C 0.74398 0.72719 0.53281 0.0
C678 C 0.73163 0.81448 0.54042 0.0
C679 C 0.75199 0.80792 0.51534 0.0
H680 H 0.045 0.23655 0.9987 0.0
H681 H 0.111 0.40003 1.01687 0.0
H682 H 0.05429 0.37871 0.05735 0.0
H683 H 0.98244 0.31525 0.08536 0.0
H684 H 0.91463 0.15086 0.06948 0.0
H685 H 0.97484 0.1708 0.02998 0.0
C686 C 0.04798 0.2673 1.01208 0.0
C687 C 0.08284 0.31996 1.00498 0.0
C688 C 0.01388 0.25466 0.03516 0.0
C689 C 0.08512 0.35937 1.02205 0.0
C690 C 0.05225 0.34719 0.04503 0.0
C691 C 0.98023 0.28343 0.07328 0.0
C692 C 0.94297 0.23151 0.08014 0.0
C693 C 0.01563 0.29518 0.05131 0.0
C694 C 0.94216 0.19116 0.06446 0.0
C695 C 0.97692 0.20264 0.042 0.0
H696 H 0.22122 0.98937 0.45944 0.0
H697 H 0.36426 0.11343 0.49373 0.0
H698 H 0.34885 0.06293 0.53667 0.0
H699 H 0.29681 0.98168 0.56351 0.0
H700 H 0.1512 0.85999 0.5304 0.0
H701 H 0.16576 0.91115 0.48773 0.0
C702 C 0.24881 0.00572 0.47644 0.0
C703 C 0.29405 0.05525 0.47328 0.0
C704 C 0.23958 0.97644 0.50104 0.0
C705 C 0.32904 0.0758 0.49562 0.0
C706 C 0.32043 0.04663 0.52008 0.0
C707 C 0.26843 0.96613 0.54684 0.0
C708 C 0.22347 0.91641 0.54984 0.0
C709 C 0.27634 0.99655 0.52281 0.0
C710 C 0.18633 0.89767 0.52845 0.0
C711 C 0.19463 0.92705 0.50413 0.0
H712 H 0.70246 0.70004 0.0703 0.0
H713 H 0.86478 0.7622 0.04996 0.0
H714 H 0.85398 0.80404 1.0082 0.0
H715 H 0.79567 0.81798 0.97592 0.0
H716 H 0.63391 0.75413 0.99814 0.0
H717 H 0.64753 0.71904 0.04114 0.0
C718 C 0.73568 0.72248 0.05674 0.0
C719 C 0.78415 0.7269 0.06297 0.0
C720 C 0.72933 0.74692 0.03331 0.0
C721 C 0.82686 0.75748 0.04546 0.0
C722 C 0.82068 0.78159 1.02166 0.0
C723 C 0.76402 0.79785 0.99069 0.0
C724 C 0.71393 0.78932 0.98413 0.0
C725 C 0.77187 0.77626 1.01524 0.0
C726 C 0.67282 0.76178 1.00297 0.0
C727 C 0.68047 0.74121 0.02739 0.0
H728 H 1.0025 0.29162 0.58959 0.0
H729 H 0.12595 0.26851 0.55878 0.0
H730 H 0.07926 0.23609 0.51464 0.0
H731 H 0.00451 0.21675 0.48442 0.0
H732 H 0.87832 0.23452 0.51628 0.0
H733 H 0.92437 0.26561 0.56064 0.0
C734 C 0.01935 0.2798 0.57312 0.0
C735 C 0.06829 0.28355 0.57722 0.0
C736 C 0.99145 0.25968 0.54816 0.0
C737 C 0.08879 0.2666 0.55602 0.0
C738 C 0.06197 0.24794 0.53084 0.0
C739 C 0.98673 0.22688 0.50117 0.0
C740 C 0.93794 0.22343 0.49693 0.0
C741 C 0.01339 0.24451 0.52664 0.0
C742 C 0.91547 0.23637 0.51897 0.0
C743 C 0.94208 0.25462 0.54427 0.0
H744 H 0.72855 0.23889 0.15871 0.0
H745 H 0.72213 0.11966 0.10503 0.0
H746 H 0.62795 0.08162 0.09993 0.0
H747 H 0.5471 0.07951 0.11266 0.0
H748 H 0.55205 0.19445 0.16938 0.0
H749 H 0.64683 0.23685 0.17131 0.0
C750 C 0.70652 0.20526 0.14545 0.0
C751 C 0.73206 0.18236 0.132 0.0
C752 C 0.65202 0.18235 0.14349 0.0
C753 C 0.70314 0.13806 0.11541 0.0
C754 C 0.64931 0.11612 0.11264 0.0
C755 C 0.56865 0.11344 0.1257 0.0
C756 C 0.54205 0.1335 0.14085 0.0
C757 C 0.62319 0.13727 0.12706 0.0
C758 C 0.57122 0.17829 0.15722 0.0
C759 C 0.62558 0.20259 0.15841 0.0
H760 H 0.68812 0.49551 0.40334 0.0
H761 H 0.60984 0.58366 0.41415 0.0
H762 H 0.5262 0.50226 0.41956 0.0
H763 H 0.47607 0.40578 0.42242 0.0
H764 H 0.55544 0.31919 0.40997 0.0
H765 H 0.6382 0.40044 0.40386 0.0
C766 C 0.65278 0.49706 0.40688 0.0
C767 C 0.65521 0.54558 0.40865 0.0
C768 C 0.60516 0.45038 0.40967 0.0
C769 C 0.60896 0.54681 0.41275 0.0
C770 C 0.56124 0.5003 0.41592 0.0
C771 C 0.51159 0.40489 0.41845 0.0
C772 C 0.5098 0.3566 0.41682 0.0
C773 C 0.55898 0.45186 0.41467 0.0
C774 C 0.55584 0.35582 0.41114 0.0
C775 C 0.60313 0.40224 0.40777 0.0
H776 H 0.90494 0.46489 0.1013 0.0
H777 H 0.8353 0.40374 0.18141 0.0
H778 H 0.78538 0.44849 0.17824 0.0
H779 H 0.76753 0.51113 0.15457 0.0
H780 H 0.84321 0.57871 0.07666 0.0
H781 H 0.88359 0.52418 0.07646 0.0
C782 C 0.8792 0.46179 0.11813 0.0
C783 C 0.87419 0.43153 0.14167 0.0
C784 C 0.85087 0.48787 0.11622 0.0
C785 C 0.83974 0.42682 0.16307 0.0
C786 C 0.8111 0.45225 0.16124 0.0
C787 C 0.7912 0.51216 0.13707 0.0
C788 C 0.80157 0.5475 0.11531 0.0
C789 C 0.81669 0.48322 0.13803 0.0
C790 C 0.8339 0.55054 0.09322 0.0
C791 C 0.85761 0.52013 0.09338 0.0
H792 H 0.51071 0.1838 0.39984 0.0
H793 H 0.41812 0.01645 0.40664 0.0
H794 H 0.49662 0.01269 0.41883 0.0
H795 H 0.59137 0.05824 0.42985 0.0
H796 H 0.68196 0.22559 0.42231 0.0
H797 H 0.60428 0.22816 0.40822 0.0
C798 C 0.50758 0.14632 0.4038 0.0
C799 C 0.45852 0.10045 0.40253 0.0
C800 C 0.55251 0.14463 0.41091 0.0
C801 C 0.45541 0.05228 0.40737 0.0
C802 C 0.50023 0.05022 0.41455 0.0
C803 C 0.59389 0.09518 0.42523 0.0
C804 C 0.64236 0.14177 0.42732 0.0
C805 C 0.54889 0.09629 0.41685 0.0
C806 C 0.64528 0.18929 0.42074 0.0
C807 C 0.60085 0.19077 0.41274 0.0
H808 H 0.39278 0.31389 0.11517 0.0
H809 H 0.50923 0.26727 0.11334 0.0
H810 H 0.57829 0.35884 0.11539 0.0
H811 H 0.60481 0.45125 0.12017 0.0
H812 H 0.48736 0.49624 0.12519 0.0
H813 H 0.41913 0.40562 0.11923 0.0
C814 C 0.43326 0.32359 0.11487 0.0
C815 C 0.44585 0.28376 0.11409 0.0
C816 C 0.47244 0.37589 0.11689 0.0
C817 C 0.49851 0.29719 0.11384 0.0
C818 C 0.53795 0.34948 0.11519 0.0
C819 C 0.56434 0.44134 0.12031 0.0
C820 C 0.55132 0.48068 0.12339 0.0
C821 C 0.52526 0.38903 0.11728 0.0
C822 C 0.49857 0.46696 0.12271 0.0
C823 C 0.45952 0.41511 0.11939 0.0
H824 H 0.94293 0.52873 0.429 0.0
H825 H 0.77616 0.45116 0.41839 0.0
H826 H 0.7722 0.36703 0.41541 0.0
H827 H 0.81562 0.3155 0.4172 0.0
H828 H 0.98281 0.39228 0.42618 0.0
H829 H 0.98727 0.477 0.42852 0.0
C830 C 0.90578 0.49334 0.42611 0.0
C831 C 0.85981 0.49607 0.4241 0.0
C832 C 0.90393 0.44514 0.42422 0.0
C833 C 0.81203 0.45007 0.41981 0.0
C834 C 0.80975 0.40199 0.41826 0.0
C835 C 0.85312 0.35075 0.41972 0.0
C836 C 0.89882 0.3476 0.42185 0.0
C837 C 0.85537 0.39906 0.42066 0.0
C838 C 0.94711 0.39369 0.42459 0.0
C839 C 0.94962 0.44206 0.42596 0.0
H840 H 0.22723 0.7211 0.65121 0.0
H841 H 0.14566 0.70012 0.57399 0.0
H842 H 0.10411 0.60541 0.57877 0.0
H843 H 0.08451 0.529 0.60726 0.0
H844 H 0.16139 0.54974 0.68611 0.0
H845 H 0.21087 0.64408 0.67866 0.0
C846 C 0.20189 0.69563 0.63498 0.0
C847 C 0.1903 0.71716 0.61196 0.0
C848 C 0.17604 0.6413 0.63867 0.0
C849 C 0.15588 0.68408 0.59154 0.0
C850 C 0.13154 0.63005 0.59451 0.0
C851 C 0.11163 0.5542 0.62294 0.0
C852 C 0.11868 0.5325 0.64742 0.0
C853 C 0.13993 0.60828 0.61847 0.0
C854 C 0.15513 0.56562 0.66718 0.0
C855 C 0.18355 0.61948 0.66288 0.0
H856 H 0.48392 0.93636 0.94025 0.0
H857 H 0.42369 0.87425 0.85896 0.0
H858 H 0.46936 0.82504 0.85972 0.0
H859 H 0.52989 0.80279 0.88257 0.0
H860 H 0.59575 0.87051 0.96196 0.0
H861 H 0.54371 0.91357 0.96327 0.0
C862 C 0.48134 0.91264 0.92255 0.0
C863 C 0.45058 0.90922 0.89953 0.0
C864 C 0.50791 0.88461 0.92308 0.0
C865 C 0.44688 0.87737 0.877 0.0
C866 C 0.47288 0.84912 0.87743 0.0
C867 C 0.53141 0.82571 0.90048 0.0
C868 C 0.56522 0.83258 0.92249 0.0
C869 C 0.50347 0.85239 0.90036 0.0
C870 C 0.56885 0.86393 0.94515 0.0
C871 C 0.5397 0.88903 0.9457 0.0
H872 H 0.43754 0.5993 0.62941 0.0
H873 H 0.47984 0.47979 0.62606 0.0
H874 H 0.38805 0.41271 0.62727 0.0
H875 H 0.29706 0.38807 0.63156 0.0
H876 H 0.25311 0.5061 0.63776 0.0
H877 H 0.34499 0.5742 0.63315 0.0
C878 C 0.42684 0.55864 0.62925 0.0
C879 C 0.46577 0.54467 0.62786 0.0
C880 C 0.37391 0.52019 0.63039 0.0
C881 C 0.45087 0.4917 0.62691 0.0
C882 C 0.39837 0.4533 0.62773 0.0
C883 C 0.30726 0.42866 0.63173 0.0
C884 C 0.26828 0.44203 0.63509 0.0
C885 C 0.35975 0.46716 0.62972 0.0
C886 C 0.28239 0.49482 0.63517 0.0
C887 C 0.33487 0.53367 0.63267 0.0
H888 H 0.1228 0.72395 0.9099 0.0
H889 H 0.28525 0.76782 0.9132 0.0
H890 H 0.26004 0.67568 0.91822 0.0
H891 H 0.19102 0.5826 0.92157 0.0
H892 H 0.02946 0.54161 0.91614 0.0
H893 H 0.05543 0.63314 0.91205 0.0
C894 C 0.153 0.71372 0.91181 0.0
C895 C 0.20592 0.75289 0.9113 0.0
C896 C 0.1383 0.66112 0.91423 0.0
C897 C 0.24424 0.7385 0.91366 0.0
C898 C 0.2298 0.68583 0.91644 0.0
C899 C 0.16154 0.59364 0.91918 0.0
C900 C 0.10819 0.55501 0.91935 0.0
C901 C 0.17684 0.64674 0.91662 0.0
C902 C 0.07061 0.5703 0.91656 0.0
C903 C 0.08544 0.6227 0.91409 0.0
H904 H 0.38677 0.81362 0.62124 0.0
H905 H 0.50731 0.97565 0.62524 0.0
H906 H 0.57389 0.95085 0.62232 0.0
H907 H 0.59792 0.88415 0.62044 0.0
H908 H 0.47923 0.72132 0.61982 0.0
H909 H 0.41141 0.74568 0.61935 0.0
C910 C 0.42753 0.84356 0.62183 0.0
C911 C 0.44189 0.89661 0.62358 0.0
C912 C 0.46579 0.82894 0.62052 0.0
C913 C 0.49505 0.93472 0.62365 0.0
C914 C 0.53318 0.92055 0.62206 0.0
C915 C 0.55725 0.85368 0.62002 0.0
C916 C 0.54366 0.80089 0.62023 0.0
C917 C 0.51894 0.86788 0.62062 0.0
C918 C 0.49073 0.76222 0.61956 0.0
C919 C 0.45204 0.77617 0.61949 0.0
H920 H 0.44695 0.62288 0.92458 0.0
H921 H 0.48724 0.50344 0.91188 0.0
H922 H 0.39654 0.43619 0.91852 0.0
H923 H 0.30592 0.41096 0.92697 0.0
H924 H 0.26309 0.52902 0.93755 0.0
H925 H 0.35476 0.59718 0.9328 0.0
C926 C 0.43582 0.5822 0.92297 0.0
C927 C 0.47413 0.56838 0.91782 0.0
C928 C 0.38322 0.54345 0.92663 0.0
C929 C 0.45891 0.5153 0.9162 0.0
C930 C 0.40694 0.47674 0.91991 0.0
C931 C 0.31651 0.45157 0.92854 0.0
C932 C 0.27765 0.4648 0.93279 0.0
C933 C 0.36886 0.49035 0.92518 0.0
C934 C 0.29224 0.51771 0.93446 0.0
C935 C 0.34461 0.55669 0.93159 0.0
loop_
_geom_bond_atom_site_label_1
_geom_bond_atom_site_label_2
_geom_bond_distance
_geom_bond_site_symmetry_2
_ccdc_geom_bond_type
Co0 N5 2.057 . S
Co0 O17 2.021 . S
Co0 O20 2.062 . S
Co0 O24 2.117 . S
Co0 O25 2.020 . S
C1 O21 1.259 . S
C1 O24 1.258 . S
Co2 N11 2.057 . S
Co2 O18 2.117 . S
Co2 O19 2.020 . S
Co2 O21 2.021 . S
Co2 O26 2.062 . S
C3 N5 1.316 . S
C3 N6 1.347 . S
C3 H8 0.931 . S
C4 N5 1.375 . S
C4 C7 1.350 . S
C4 H9 0.930 . S
N5 Co0 2.057 . S
N5 C3 1.316 . S
N5 C4 1.375 . S
N6 C3 1.347 . S
N6 C7 1.373 . S
C7 C4 1.350 . S
C7 N6 1.373 . S
C7 H28 0.931 . S
H8 C3 0.931 . S
H9 C4 0.930 . S
C10 O17 1.259 . S
C10 O18 1.258 . S
N11 Co2 2.057 . S
N11 C12 1.316 . S
N11 C13 1.375 . S
C12 N11 1.316 . S
C12 N14 1.347 . S
C12 H23 0.931 . S
C13 N11 1.375 . S
C13 C15 1.350 . S
C13 H22 0.930 . S
N14 C12 1.347 . S
N14 C15 1.373 . S
C15 C13 1.350 . S
C15 N14 1.373 . S
C15 H29 0.931 . S
C16 O19 1.256 . S
C16 O20 1.255 . S
O17 Co0 2.021 . S
O17 C10 1.259 . S
O18 Co2 2.117 . S
O18 C10 1.258 . S
O19 Co2 2.020 . S
O19 C16 1.256 . S
O20 Co0 2.062 . S
O20 C16 1.255 . S
O21 C1 1.259 . S
O21 Co2 2.021 . S
H22 C13 0.930 . S
H23 C12 0.931 . S
O24 Co0 2.117 . S
O24 C1 1.258 . S
O25 Co0 2.020 . S
O25 C27 1.256 . S
O26 Co2 2.062 . S
O26 C27 1.255 . S
C27 O25 1.256 . S
C27 O26 1.255 . S
H28 C7 0.931 . S
H29 C15 0.931 . S
Co30 N35 2.057 . S
Co30 O47 2.021 . S
Co30 O50 2.062 . S
Co30 O54 2.117 . S
Co30 O55 2.020 . S
C31 O51 1.259 . S
C31 O54 1.258 . S
Co32 N41 2.057 . S
Co32 O48 2.117 . S
Co32 O49 2.020 . S
Co32 O51 2.021 . S
Co32 O56 2.062 . S
C33 N35 1.316 . S
C33 N36 1.347 . S
C33 H38 0.931 . S
C34 N35 1.375 . S
C34 C37 1.350 . S
C34 H39 0.930 . S
N35 Co30 2.057 . S
N35 C33 1.316 . S
N35 C34 1.375 . S
N36 C33 1.347 . S
N36 C37 1.373 . S
C37 C34 1.350 . S
C37 N36 1.373 . S
C37 H58 0.931 . S
H38 C33 0.931 . S
H39 C34 0.930 . S
C40 O47 1.259 . S
C40 O48 1.258 . S
N41 Co32 2.057 . S
N41 C42 1.316 . S
N41 C43 1.375 . S
C42 N41 1.316 . S
C42 N44 1.347 . S
C42 H53 0.931 . S
C43 N41 1.375 . S
C43 C45 1.350 . S
C43 H52 0.930 . S
N44 C42 1.347 . S
N44 C45 1.373 . S
C45 C43 1.350 . S
C45 N44 1.373 . S
C45 H59 0.931 . S
C46 O49 1.256 . S
C46 O50 1.255 . S
O47 Co30 2.021 . S
O47 C40 1.259 . S
O48 Co32 2.117 . S
O48 C40 1.258 . S
O49 Co32 2.020 . S
O49 C46 1.256 . S
O50 Co30 2.062 . S
O50 C46 1.255 . S
O51 C31 1.259 . S
O51 Co32 2.021 . S
H52 C43 0.930 . S
H53 C42 0.931 . S
O54 Co30 2.117 . S
O54 C31 1.258 . S
O55 Co30 2.020 . S
O55 C57 1.256 . S
O56 Co32 2.062 . S
O56 C57 1.255 . S
C57 O55 1.256 . S
C57 O56 1.255 . S
H58 C37 0.931 . S
H59 C45 0.931 . S
Co60 N65 2.057 . S
Co60 O77 2.021 . S
Co60 O80 2.062 . S
Co60 O84 2.117 . S
Co60 O85 2.020 . S
C61 O81 1.259 . S
C61 O84 1.258 . S
Co62 N71 2.057 . S
Co62 O78 2.117 . S
Co62 O79 2.020 . S
Co62 O81 2.021 . S
Co62 O86 2.062 . S
C63 N65 1.316 . S
C63 N66 1.347 1_545 S
C63 H68 0.931 . S
C64 N65 1.375 . S
C64 C67 1.350 1_545 S
C64 H69 0.930 . S
N65 Co60 2.057 . S
N65 C63 1.316 . S
N65 C64 1.375 . S
N66 C63 1.347 1_565 S
N66 C67 1.373 . S
C67 C64 1.350 1_565 S
C67 N66 1.373 . S
C67 H88 0.931 . S
H68 C63 0.931 . S
H69 C64 0.930 . S
C70 O77 1.259 . S
C70 O78 1.258 . S
N71 Co62 2.057 . S
N71 C72 1.316 . S
N71 C73 1.375 . S
C72 N71 1.316 . S
C72 N74 1.347 . S
C72 H83 0.931 . S
C73 N71 1.375 . S
C73 C75 1.350 . S
C73 H82 0.930 . S
N74 C72 1.347 . S
N74 C75 1.373 . S
C75 C73 1.350 . S
C75 N74 1.373 . S
C75 H89 0.931 . S
C76 O79 1.256 . S
C76 O80 1.255 . S
O77 Co60 2.021 . S
O77 C70 1.259 . S
O78 Co62 2.117 . S
O78 C70 1.258 . S
O79 Co62 2.020 . S
O79 C76 1.256 . S
O80 Co60 2.062 . S
O80 C76 1.255 . S
O81 C61 1.259 . S
O81 Co62 2.021 . S
H82 C73 0.930 . S
H83 C72 0.931 . S
O84 Co60 2.117 . S
O84 C61 1.258 . S
O85 Co60 2.020 . S
O85 C87 1.256 . S
O86 Co62 2.062 . S
O86 C87 1.255 . S
C87 O85 1.256 . S
C87 O86 1.255 . S
H88 C67 0.931 . S
H89 C75 0.931 . S
Co90 N95 2.057 . S
Co90 O107 2.021 . S
Co90 O110 2.062 . S
Co90 O114 2.117 . S
Co90 O115 2.020 . S
C91 O111 1.259 . S
C91 O114 1.258 . S
Co92 N101 2.057 . S
Co92 O108 2.117 . S
Co92 O109 2.020 . S
Co92 O111 2.021 . S
Co92 O116 2.062 . S
C93 N95 1.316 1_565 S
C93 N96 1.347 . S
C93 H98 0.931 . S
C94 N95 1.375 1_565 S
C94 C97 1.350 . S
C94 H99 0.930 1_565 S
N95 Co90 2.057 . S
N95 C93 1.316 1_545 S
N95 C94 1.375 1_545 S
N96 C93 1.347 . S
N96 C97 1.373 . S
C97 C94 1.350 . S
C97 N96 1.373 . S
C97 H118 0.931 . S
H98 C93 0.931 . S
H99 C94 0.930 1_545 S
C100 O107 1.259 . S
C100 O108 1.258 . S
N101 Co92 2.057 . S
N101 C102 1.316 . S
N101 C103 1.375 . S
C102 N101 1.316 . S
C102 N104 1.347 . S
C102 H113 0.931 . S
C103 N101 1.375 . S
C103 C105 1.350 . S
C103 H112 0.930 . S
N104 C102 1.347 . S
N104 C105 1.373 . S
C105 C103 1.350 . S
C105 N104 1.373 . S
C105 H119 0.931 . S
C106 O109 1.256 . S
C106 O110 1.255 . S
O107 Co90 2.021 . S
O107 C100 1.259 . S
O108 Co92 2.117 . S
O108 C100 1.258 . S
O109 Co92 2.020 . S
O109 C106 1.256 . S
O110 Co90 2.062 . S
O110 C106 1.255 . S
O111 C91 1.259 . S
O111 Co92 2.021 . S
H112 C103 0.930 . S
H113 C102 0.931 . S
O114 Co90 2.117 . S
O114 C91 1.258 . S
O115 Co90 2.020 . S
O115 C117 1.256 . S
O116 Co92 2.062 . S
O116 C117 1.255 . S
C117 O115 1.256 . S
C117 O116 1.255 . S
H118 C97 0.931 . S
H119 C105 0.931 . S
Co120 N125 2.057 . S
Co120 O137 2.021 . S
Co120 O140 2.062 . S
Co120 O144 2.117 . S
Co120 O145 2.020 . S
C121 O141 1.259 . S
C121 O144 1.258 . S
Co122 N131 2.057 . S
Co122 O138 2.117 . S
Co122 O139 2.020 . S
Co122 O141 2.021 . S
Co122 O146 2.062 . S
C123 N125 1.316 . S
C123 N126 1.347 1_655 S
C123 H128 0.931 . S
C124 N125 1.375 . S
C124 C127 1.350 1_655 S
C124 H129 0.930 . S
N125 Co120 2.057 . S
N125 C123 1.316 . S
N125 C124 1.375 . S
N126 C123 1.347 1_455 S
N126 C127 1.373 . S
C127 C124 1.350 1_455 S
C127 N126 1.373 . S
C127 H148 0.931 . S
H128 C123 0.931 . S
H129 C124 0.930 . S
C130 O137 1.259 . S
C130 O138 1.258 . S
N131 Co122 2.057 . S
N131 C132 1.316 . S
N131 C133 1.375 . S
C132 N131 1.316 . S
C132 N134 1.347 . S
C132 H143 0.931 . S
C133 N131 1.375 . S
C133 C135 1.350 . S
C133 H142 0.930 . S
N134 C132 1.347 . S
N134 C135 1.373 . S
C135 C133 1.350 . S
C135 N134 1.373 . S
C135 H149 0.931 . S
C136 O139 1.256 . S
C136 O140 1.255 . S
O137 Co120 2.021 . S
O137 C130 1.259 . S
O138 Co122 2.117 . S
O138 C130 1.258 . S
O139 Co122 2.020 . S
O139 C136 1.256 . S
O140 Co120 2.062 . S
O140 C136 1.255 . S
O141 C121 1.259 . S
O141 Co122 2.021 . S
H142 C133 0.930 . S
H143 C132 0.931 . S
O144 Co120 2.117 . S
O144 C121 1.258 . S
O145 Co120 2.020 . S
O145 C147 1.256 . S
O146 Co122 2.062 . S
O146 C147 1.255 . S
C147 O145 1.256 . S
C147 O146 1.255 . S
H148 C127 0.931 . S
H149 C135 0.931 . S
Co150 N155 2.057 . S
Co150 O167 2.021 . S
Co150 O170 2.062 . S
Co150 O174 2.117 . S
Co150 O175 2.020 . S
C151 O171 1.259 . S
C151 O174 1.258 . S
Co152 N161 2.057 . S
Co152 O168 2.117 . S
Co152 O169 2.020 . S
Co152 O171 2.021 . S
Co152 O176 2.062 . S
C153 N155 1.316 1_455 S
C153 N156 1.347 . S
C153 H158 0.931 . S
C154 N155 1.375 1_455 S
C154 C157 1.350 . S
C154 H159 0.930 1_455 S
N155 Co150 2.057 . S
N155 C153 1.316 1_655 S
N155 C154 1.375 1_655 S
N156 C153 1.347 . S
N156 C157 1.373 . S
C157 C154 1.350 . S
C157 N156 1.373 . S
C157 H178 0.931 . S
H158 C153 0.931 . S
H159 C154 0.930 1_655 S
C160 O167 1.259 . S
C160 O168 1.258 . S
N161 Co152 2.057 . S
N161 C162 1.316 . S
N161 C163 1.375 . S
C162 N161 1.316 . S
C162 N164 1.347 . S
C162 H173 0.931 . S
C163 N161 1.375 . S
C163 C165 1.350 . S
C163 H172 0.930 . S
N164 C162 1.347 . S
N164 C165 1.373 . S
C165 C163 1.350 . S
C165 N164 1.373 . S
C165 H179 0.931 . S
C166 O169 1.256 . S
C166 O170 1.255 . S
O167 Co150 2.021 . S
O167 C160 1.259 . S
O168 Co152 2.117 . S
O168 C160 1.258 . S
O169 Co152 2.020 . S
O169 C166 1.256 . S
O170 Co150 2.062 . S
O170 C166 1.255 . S
O171 C151 1.259 . S
O171 Co152 2.021 . S
H172 C163 0.930 . S
H173 C162 0.931 . S
O174 Co150 2.117 . S
O174 C151 1.258 . S
O175 Co150 2.020 . S
O175 C177 1.256 . S
O176 Co152 2.062 . S
O176 C177 1.255 . S
C177 O175 1.256 . S
C177 O176 1.255 . S
H178 C157 0.931 . S
H179 C165 0.931 . S
Co180 N185 2.057 . S
Co180 O197 2.021 . S
Co180 O200 2.062 . S
Co180 O204 2.117 . S
Co180 O205 2.020 . S
C181 O201 1.259 . S
C181 O204 1.258 . S
Co182 N191 2.057 . S
Co182 O198 2.117 . S
Co182 O199 2.020 . S
Co182 O201 2.021 . S
Co182 O206 2.062 . S
C183 N185 1.316 . S
C183 N186 1.347 . S
C183 H188 0.931 . S
C184 N185 1.375 . S
C184 C187 1.350 . S
C184 H189 0.930 . S
N185 Co180 2.057 . S
N185 C183 1.316 . S
N185 C184 1.375 . S
N186 C183 1.347 . S
N186 C187 1.373 . S
C187 C184 1.350 . S
C187 N186 1.373 . S
C187 H208 0.931 . S
H188 C183 0.931 . S
H189 C184 0.930 . S
C190 O197 1.259 . S
C190 O198 1.258 . S
N191 Co182 2.057 . S
N191 C192 1.316 . S
N191 C193 1.375 . S
C192 N191 1.316 . S
C192 N194 1.347 . S
C192 H203 0.931 . S
C193 N191 1.375 . S
C193 C195 1.350 . S
C193 H202 0.930 . S
N194 C192 1.347 . S
N194 C195 1.373 . S
C195 C193 1.350 . S
C195 N194 1.373 . S
C195 H209 0.931 . S
C196 O199 1.256 . S
C196 O200 1.255 . S
O197 Co180 2.021 . S
O197 C190 1.259 . S
O198 Co182 2.117 . S
O198 C190 1.258 . S
O199 Co182 2.020 . S
O199 C196 1.256 . S
O200 Co180 2.062 . S
O200 C196 1.255 . S
O201 C181 1.259 . S
O201 Co182 2.021 . S
H202 C193 0.930 . S
H203 C192 0.931 . S
O204 Co180 2.117 . S
O204 C181 1.258 . S
O205 Co180 2.020 . S
O205 C207 1.256 . S
O206 Co182 2.062 . S
O206 C207 1.255 . S
C207 O205 1.256 . S
C207 O206 1.255 . S
H208 C187 0.931 . S
H209 C195 0.931 . S
Co210 N215 2.057 . S
Co210 O227 2.021 . S
Co210 O230 2.062 . S
Co210 O234 2.117 . S
Co210 O235 2.020 . S
C211 O231 1.259 . S
C211 O234 1.258 . S
Co212 N221 2.057 . S
Co212 O228 2.117 . S
Co212 O229 2.020 . S
Co212 O231 2.021 . S
Co212 O236 2.062 . S
C213 N215 1.316 . S
C213 N216 1.347 1_455 S
C213 H218 0.931 . S
C214 N215 1.375 . S
C214 C217 1.350 1_455 S
C214 H219 0.930 . S
N215 Co210 2.057 . S
N215 C213 1.316 . S
N215 C214 1.375 . S
N216 C213 1.347 1_655 S
N216 C217 1.373 . S
C217 C214 1.350 1_655 S
C217 N216 1.373 . S
C217 H238 0.931 . S
H218 C213 0.931 . S
H219 C214 0.930 . S
C220 O227 1.259 . S
C220 O228 1.258 . S
N221 Co212 2.057 . S
N221 C222 1.316 . S
N221 C223 1.375 . S
C222 N221 1.316 . S
C222 N224 1.347 . S
C222 H233 0.931 . S
C223 N221 1.375 . S
C223 C225 1.350 . S
C223 H232 0.930 . S
N224 C222 1.347 . S
N224 C225 1.373 . S
C225 C223 1.350 . S
C225 N224 1.373 . S
C225 H239 0.931 . S
C226 O229 1.256 . S
C226 O230 1.255 . S
O227 Co210 2.021 . S
O227 C220 1.259 . S
O228 Co212 2.117 . S
O228 C220 1.258 . S
O229 Co212 2.020 . S
O229 C226 1.256 . S
O230 Co210 2.062 . S
O230 C226 1.255 . S
O231 C211 1.259 . S
O231 Co212 2.021 . S
H232 C223 0.930 . S
H233 C222 0.931 . S
O234 Co210 2.117 . S
O234 C211 1.258 . S
O235 Co210 2.020 . S
O235 C237 1.256 . S
O236 Co212 2.062 . S
O236 C237 1.255 . S
C237 O235 1.256 . S
C237 O236 1.255 . S
H238 C217 0.931 . S
H239 C225 0.931 . S
Co240 N245 2.057 . S
Co240 O257 2.021 . S
Co240 O260 2.062 . S
Co240 O264 2.117 . S
Co240 O265 2.020 . S
C241 O261 1.259 . S
C241 O264 1.258 . S
Co242 N251 2.057 . S
Co242 O258 2.117 . S
Co242 O259 2.020 . S
Co242 O261 2.021 . S
Co242 O266 2.062 . S
C243 N245 1.316 . S
C243 N246 1.347 . S
C243 H248 0.931 . S
C244 N245 1.375 . S
C244 C247 1.350 . S
C244 H249 0.930 . S
N245 Co240 2.057 . S
N245 C243 1.316 . S
N245 C244 1.375 . S
N246 C243 1.347 . S
N246 C247 1.373 . S
C247 C244 1.350 . S
C247 N246 1.373 . S
C247 H268 0.931 . S
H248 C243 0.931 . S
H249 C244 0.930 . S
C250 O257 1.259 . S
C250 O258 1.258 . S
N251 Co242 2.057 . S
N251 C252 1.316 . S
N251 C253 1.375 . S
C252 N251 1.316 . S
C252 N254 1.347 1_565 S
C252 H263 0.931 . S
C253 N251 1.375 . S
C253 C255 1.350 1_565 S
C253 H262 0.930 . S
N254 C252 1.347 1_545 S
N254 C255 1.373 . S
C255 C253 1.350 1_545 S
C255 N254 1.373 . S
C255 H269 0.931 . S
C256 O259 1.256 . S
C256 O260 1.255 . S
O257 Co240 2.021 . S
O257 C250 1.259 . S
O258 Co242 2.117 . S
O258 C250 1.258 . S
O259 Co242 2.020 . S
O259 C256 1.256 . S
O260 Co240 2.062 . S
O260 C256 1.255 . S
O261 C241 1.259 . S
O261 Co242 2.021 . S
H262 C253 0.930 . S
H263 C252 0.931 . S
O264 Co240 2.117 . S
O264 C241 1.258 . S
O265 Co240 2.020 . S
O265 C267 1.256 . S
O266 Co242 2.062 . S
O266 C267 1.255 . S
C267 O265 1.256 . S
C267 O266 1.255 . S
H268 C247 0.931 . S
H269 C255 0.931 . S
Co270 N275 2.057 . S
Co270 O287 2.021 . S
Co270 O290 2.062 . S
Co270 O294 2.117 . S
Co270 O295 2.020 . S
C271 O291 1.259 . S
C271 O294 1.258 . S
Co272 N281 2.057 . S
Co272 O288 2.117 . S
Co272 O289 2.020 . S
Co272 O291 2.021 . S
Co272 O296 2.062 . S
C273 N275 1.316 . S
C273 N276 1.347 . S
C273 H278 0.931 . S
C274 N275 1.375 . S
C274 C277 1.350 . S
C274 H279 0.930 . S
N275 Co270 2.057 . S
N275 C273 1.316 . S
N275 C274 1.375 . S
N276 C273 1.347 . S
N276 C277 1.373 . S
C277 C274 1.350 . S
C277 N276 1.373 . S
C277 H298 0.931 . S
H278 C273 0.931 . S
H279 C274 0.930 . S
C280 O287 1.259 . S
C280 O288 1.258 . S
N281 Co272 2.057 . S
N281 C282 1.316 . S
N281 C283 1.375 . S
C282 N281 1.316 . S
C282 N284 1.347 . S
C282 H293 0.931 . S
C283 N281 1.375 . S
C283 C285 1.350 . S
C283 H292 0.930 . S
N284 C282 1.347 . S
N284 C285 1.373 . S
C285 C283 1.350 . S
C285 N284 1.373 . S
C285 H299 0.931 . S
C286 O289 1.256 . S
C286 O290 1.255 . S
O287 Co270 2.021 . S
O287 C280 1.259 . S
O288 Co272 2.117 . S
O288 C280 1.258 . S
O289 Co272 2.020 . S
O289 C286 1.256 . S
O290 Co270 2.062 . S
O290 C286 1.255 . S
O291 C271 1.259 . S
O291 Co272 2.021 . S
H292 C283 0.930 . S
H293 C282 0.931 . S
O294 Co270 2.117 . S
O294 C271 1.258 . S
O295 Co270 2.020 . S
O295 C297 1.256 . S
O296 Co272 2.062 . S
O296 C297 1.255 . S
C297 O295 1.256 . S
C297 O296 1.255 . S
H298 C277 0.931 . S
H299 C285 0.931 . S
Co300 N305 2.057 . S
Co300 O317 2.021 . S
Co300 O320 2.062 . S
Co300 O324 2.117 . S
Co300 O325 2.020 . S
C301 O321 1.259 . S
C301 O324 1.258 . S
Co302 N311 2.057 . S
Co302 O318 2.117 . S
Co302 O319 2.020 . S
Co302 O321 2.021 . S
Co302 O326 2.062 . S
C303 N305 1.316 . S
C303 N306 1.347 . S
C303 H308 0.931 . S
C304 N305 1.375 . S
C304 C307 1.350 . S
C304 H309 0.930 . S
N305 Co300 2.057 . S
N305 C303 1.316 . S
N305 C304 1.375 . S
N306 C303 1.347 . S
N306 C307 1.373 . S
C307 C304 1.350 . S
C307 N306 1.373 . S
C307 H328 0.931 . S
H308 C303 0.931 . S
H309 C304 0.930 . S
C310 O317 1.259 . S
C310 O318 1.258 . S
N311 Co302 2.057 . S
N311 C312 1.316 . S
N311 C313 1.375 . S
C312 N311 1.316 . S
C312 N314 1.347 1_455 S
C312 H323 0.931 . S
C313 N311 1.375 . S
C313 C315 1.350 1_455 S
C313 H322 0.930 . S
N314 C312 1.347 1_655 S
N314 C315 1.373 . S
C315 C313 1.350 1_655 S
C315 N314 1.373 . S
C315 H329 0.931 . S
C316 O319 1.256 . S
C316 O320 1.255 . S
O317 Co300 2.021 . S
O317 C310 1.259 . S
O318 Co302 2.117 . S
O318 C310 1.258 . S
O319 Co302 2.020 . S
O319 C316 1.256 . S
O320 Co300 2.062 . S
O320 C316 1.255 . S
O321 C301 1.259 . S
O321 Co302 2.021 . S
H322 C313 0.930 . S
H323 C312 0.931 . S
O324 Co300 2.117 . S
O324 C301 1.258 . S
O325 Co300 2.020 . S
O325 C327 1.256 . S
O326 Co302 2.062 . S
O326 C327 1.255 . S
C327 O325 1.256 . S
C327 O326 1.255 . S
H328 C307 0.931 . S
H329 C315 0.931 . S
Co330 N335 2.057 . S
Co330 O347 2.021 . S
Co330 O350 2.062 . S
Co330 O354 2.117 . S
Co330 O355 2.020 . S
C331 O351 1.259 . S
C331 O354 1.258 . S
Co332 N341 2.057 . S
Co332 O348 2.117 . S
Co332 O349 2.020 . S
Co332 O351 2.021 . S
Co332 O356 2.062 . S
C333 N335 1.316 . S
C333 N336 1.347 1_565 S
C333 H338 0.931 . S
C334 N335 1.375 . S
C334 C337 1.350 1_565 S
C334 H339 0.930 . S
N335 Co330 2.057 . S
N335 C333 1.316 . S
N335 C334 1.375 . S
N336 C333 1.347 1_545 S
N336 C337 1.373 . S
C337 C334 1.350 1_545 S
C337 N336 1.373 . S
C337 H358 0.931 . S
H338 C333 0.931 . S
H339 C334 0.930 . S
C340 O347 1.259 . S
C340 O348 1.258 . S
N341 Co332 2.057 . S
N341 C342 1.316 . S
N341 C343 1.375 . S
C342 N341 1.316 . S
C342 N344 1.347 . S
C342 H353 0.931 . S
C343 N341 1.375 . S
C343 C345 1.350 . S
C343 H352 0.930 . S
N344 C342 1.347 . S
N344 C345 1.373 . S
C345 C343 1.350 . S
C345 N344 1.373 . S
C345 H359 0.931 . S
C346 O349 1.256 . S
C346 O350 1.255 . S
O347 Co330 2.021 . S
O347 C340 1.259 . S
O348 Co332 2.117 . S
O348 C340 1.258 . S
O349 Co332 2.020 . S
O349 C346 1.256 . S
O350 Co330 2.062 . S
O350 C346 1.255 . S
O351 C331 1.259 . S
O351 Co332 2.021 . S
H352 C343 0.930 . S
H353 C342 0.931 . S
O354 Co330 2.117 . S
O354 C331 1.258 . S
O355 Co330 2.020 . S
O355 C357 1.256 . S
O356 Co332 2.062 . S
O356 C357 1.255 . S
C357 O355 1.256 . S
C357 O356 1.255 . S
H358 C337 0.931 . S
H359 C345 0.931 . S
H360 C366 0.930 . S
H361 C369 0.930 . S
H362 C370 0.930 1_655 S
H363 C371 0.930 . S
H364 C374 0.930 . S
H365 C375 0.930 . S
C366 H360 0.930 . S
C366 C367 1.355 1_455 S
C366 C368 1.415 . S
C367 C366 1.355 1_655 S
C367 C369 1.419 . S
C368 C366 1.415 . S
C368 C373 1.425 . S
C368 C375 1.409 . S
C369 H361 0.930 . S
C369 C367 1.419 . S
C369 C370 1.362 1_655 S
C370 H362 0.930 1_455 S
C370 C369 1.362 1_455 S
C370 C373 1.409 . S
C371 H363 0.930 . S
C371 C372 1.355 . S
C371 C373 1.415 . S
C372 C371 1.355 . S
C372 C374 1.419 . S
C373 C368 1.425 . S
C373 C370 1.409 . S
C373 C371 1.415 . S
C374 H364 0.930 . S
C374 C372 1.419 . S
C374 C375 1.362 . S
C375 H365 0.930 . S
C375 C368 1.409 . S
C375 C374 1.362 . S
H376 C382 0.930 . S
H377 C385 0.930 . S
H378 C386 0.930 . S
H379 C387 0.930 . S
H380 C390 0.930 . S
H381 C391 0.930 . S
C382 H376 0.930 . S
C382 C383 1.355 . S
C382 C384 1.415 . S
C383 C382 1.355 . S
C383 C385 1.419 . S
C384 C382 1.415 . S
C384 C389 1.425 . S
C384 C391 1.409 . S
C385 H377 0.930 . S
C385 C383 1.419 . S
C385 C386 1.362 . S
C386 H378 0.930 . S
C386 C385 1.362 . S
C386 C389 1.409 . S
C387 H379 0.930 . S
C387 C388 1.355 . S
C387 C389 1.415 1_655 S
C388 C387 1.355 . S
C388 C390 1.419 . S
C389 C384 1.425 . S
C389 C386 1.409 . S
C389 C387 1.415 1_455 S
C390 H380 0.930 . S
C390 C388 1.419 . S
C390 C391 1.362 1_655 S
C391 H381 0.930 . S
C391 C384 1.409 . S
C391 C390 1.362 1_455 S
H392 C398 0.930 . S
H393 C401 0.930 . S
H394 C402 0.930 . S
H395 C403 0.930 . S
H396 C406 0.930 . S
H397 C407 0.930 . S
C398 H392 0.930 . S
C398 C399 1.355 . S
C398 C400 1.415 . S
C399 C398 1.355 . S
C399 C401 1.419 . S
C400 C398 1.415 . S
C400 C405 1.425 . S
C400 C407 1.409 . S
C401 H393 0.930 . S
C401 C399 1.419 . S
C401 C402 1.362 . S
C402 H394 0.930 . S
C402 C401 1.362 . S
C402 C405 1.409 . S
C403 H395 0.930 . S
C403 C404 1.355 . S
C403 C405 1.415 . S
C404 C403 1.355 . S
C404 C406 1.419 . S
C405 C400 1.425 . S
C405 C402 1.409 . S
C405 C403 1.415 . S
C406 H396 0.930 . S
C406 C404 1.419 . S
C406 C407 1.362 . S
C407 H397 0.930 . S
C407 C400 1.409 . S
C407 C406 1.362 . S
H408 C414 0.930 . S
H409 C417 0.930 . S
H410 C418 0.930 . S
H411 C419 0.930 . S
H412 C422 0.930 . S
H413 C423 0.930 . S
C414 H408 0.930 . S
C414 C415 1.355 . S
C414 C416 1.415 . S
C415 C414 1.355 . S
C415 C417 1.419 . S
C416 C414 1.415 . S
C416 C421 1.425 . S
C416 C423 1.409 . S
C417 H409 0.930 . S
C417 C415 1.419 . S
C417 C418 1.362 . S
C418 H410 0.930 . S
C418 C417 1.362 . S
C418 C421 1.409 . S
C419 H411 0.930 . S
C419 C420 1.355 . S
C419 C421 1.415 . S
C420 C419 1.355 . S
C420 C422 1.419 . S
C421 C416 1.425 . S
C421 C418 1.409 . S
C421 C419 1.415 . S
C422 H412 0.930 . S
C422 C420 1.419 . S
C422 C423 1.362 . S
C423 H413 0.930 . S
C423 C416 1.409 . S
C423 C422 1.362 . S
H424 C430 0.930 . S
H425 C433 0.930 . S
H426 C434 0.930 . S
H427 C435 0.930 . S
H428 C438 0.930 . S
H429 C439 0.930 . S
C430 H424 0.930 . S
C430 C431 1.355 1_565 S
C430 C432 1.415 . S
C431 C430 1.355 1_545 S
C431 C433 1.419 . S
C432 C430 1.415 . S
C432 C437 1.425 . S
C432 C439 1.409 . S
C433 H425 0.930 . S
C433 C431 1.419 . S
C433 C434 1.362 1_545 S
C434 H426 0.930 . S
C434 C433 1.362 1_565 S
C434 C437 1.409 . S
C435 H427 0.930 . S
C435 C436 1.355 . S
C435 C437 1.415 . S
C436 C435 1.355 . S
C436 C438 1.419 . S
C437 C432 1.425 . S
C437 C434 1.409 . S
C437 C435 1.415 . S
C438 H428 0.930 . S
C438 C436 1.419 . S
C438 C439 1.362 . S
C439 H429 0.930 . S
C439 C432 1.409 . S
C439 C438 1.362 . S
H440 C446 0.930 . S
H441 C449 0.930 . S
H442 C450 0.930 . S
H443 C451 0.930 . S
H444 C454 0.930 . S
H445 C455 0.930 . S
C446 H440 0.930 . S
C446 C447 1.355 . S
C446 C448 1.415 . S
C447 C446 1.355 . S
C447 C449 1.419 . S
C448 C446 1.415 . S
C448 C453 1.425 . S
C448 C455 1.409 . S
C449 H441 0.930 . S
C449 C447 1.419 . S
C449 C450 1.362 . S
C450 H442 0.930 . S
C450 C449 1.362 . S
C450 C453 1.409 . S
C451 H443 0.930 . S
C451 C452 1.355 . S
C451 C453 1.415 1_545 S
C452 C451 1.355 . S
C452 C454 1.419 . S
C453 C448 1.425 . S
C453 C450 1.409 . S
C453 C451 1.415 1_565 S
C454 H444 0.930 . S
C454 C452 1.419 . S
C454 C455 1.362 1_545 S
C455 H445 0.930 . S
C455 C448 1.409 . S
C455 C454 1.362 1_565 S
H456 C462 0.930 . S
H457 C465 0.930 . S
H458 C466 0.930 . S
H459 C467 0.930 . S
H460 C470 0.930 . S
H461 C471 0.930 . S
C462 H456 0.930 . S
C462 C463 1.355 . S
C462 C464 1.415 1_565 S
C463 C462 1.355 . S
C463 C465 1.419 1_565 S
C464 C462 1.415 1_545 S
C464 C469 1.425 . S
C464 C471 1.409 . S
C465 H457 0.930 . S
C465 C463 1.419 1_545 S
C465 C466 1.362 . S
C466 H458 0.930 . S
C466 C465 1.362 . S
C466 C469 1.409 . S
C467 H459 0.930 . S
C467 C468 1.355 . S
C467 C469 1.415 . S
C468 C467 1.355 . S
C468 C470 1.419 . S
C469 C464 1.425 . S
C469 C466 1.409 . S
C469 C467 1.415 . S
C470 H460 0.930 . S
C470 C468 1.419 . S
C470 C471 1.362 . S
C471 H461 0.930 . S
C471 C464 1.409 . S
C471 C470 1.362 . S
H472 C478 0.930 . S
H473 C481 0.930 . S
H474 C482 0.930 . S
H475 C483 0.930 . S
H476 C486 0.930 . S
H477 C487 0.930 . S
C478 H472 0.930 . S
C478 C479 1.355 . S
C478 C480 1.415 . S
C479 C478 1.355 . S
C479 C481 1.419 . S
C480 C478 1.415 . S
C480 C485 1.425 . S
C480 C487 1.409 . S
C481 H473 0.930 . S
C481 C479 1.419 . S
C481 C482 1.362 . S
C482 H474 0.930 . S
C482 C481 1.362 . S
C482 C485 1.409 . S
C483 H475 0.930 . S
C483 C484 1.355 . S
C483 C485 1.415 . S
C484 C483 1.355 . S
C484 C486 1.419 . S
C485 C480 1.425 . S
C485 C482 1.409 . S
C485 C483 1.415 . S
C486 H476 0.930 . S
C486 C484 1.419 . S
C486 C487 1.362 . S
C487 H477 0.930 . S
C487 C480 1.409 . S
C487 C486 1.362 . S
H488 C494 0.930 . S
H489 C497 0.930 . S
H490 C498 0.930 . S
H491 C499 0.930 . S
H492 C502 0.930 . S
H493 C503 0.930 . S
C494 H488 0.930 . S
C494 C495 1.355 . S
C494 C496 1.415 . S
C495 C494 1.355 . S
C495 C497 1.419 . S
C496 C494 1.415 . S
C496 C501 1.425 . S
C496 C503 1.409 . S
C497 H489 0.930 . S
C497 C495 1.419 . S
C497 C498 1.362 . S
C498 H490 0.930 . S
C498 C497 1.362 . S
C498 C501 1.409 . S
C499 H491 0.930 . S
C499 C500 1.355 1_655 S
C499 C501 1.415 . S
C500 C499 1.355 1_455 S
C500 C502 1.419 . S
C501 C496 1.425 . S
C501 C498 1.409 . S
C501 C499 1.415 . S
C502 H492 0.930 . S
C502 C500 1.419 . S
C502 C503 1.362 1_455 S
C503 H493 0.930 . S
C503 C496 1.409 . S
C503 C502 1.362 1_655 S
H504 C510 0.930 . S
H505 C513 0.930 . S
H506 C514 0.930 . S
H507 C515 0.930 . S
H508 C518 0.930 . S
H509 C519 0.929 . S
C510 H504 0.930 . S
C510 C511 1.355 . S
C510 C512 1.415 . S
C511 C510 1.355 . S
C511 C513 1.419 . S
C512 C510 1.415 . S
C512 C517 1.425 . S
C512 C519 1.409 . S
C513 H505 0.930 . S
C513 C511 1.419 . S
C513 C514 1.362 . S
C514 H506 0.930 . S
C514 C513 1.362 . S
C514 C517 1.409 . S
C515 H507 0.930 . S
C515 C516 1.355 1_545 S
C515 C517 1.415 . S
C516 C515 1.355 1_565 S
C516 C518 1.419 . S
C517 C512 1.425 . S
C517 C514 1.409 . S
C517 C515 1.415 . S
C518 H508 0.930 . S
C518 C516 1.419 . S
C518 C519 1.362 1_565 S
C519 H509 0.929 . S
C519 C512 1.409 . S
C519 C518 1.362 1_545 S
H520 C526 0.930 . S
H521 C529 0.930 . S
H522 C530 0.930 . S
H523 C531 0.930 . S
H524 C534 0.930 . S
H525 C535 0.930 . S
C526 H520 0.930 . S
C526 C527 1.355 . S
C526 C528 1.415 . S
C527 C526 1.355 . S
C527 C529 1.419 . S
C528 C526 1.415 . S
C528 C533 1.425 . S
C528 C535 1.409 . S
C529 H521 0.930 . S
C529 C527 1.419 . S
C529 C530 1.362 . S
C530 H522 0.930 . S
C530 C529 1.362 . S
C530 C533 1.409 . S
C531 H523 0.930 . S
C531 C532 1.355 . S
C531 C533 1.415 . S
C532 C531 1.355 . S
C532 C534 1.419 . S
C533 C528 1.425 . S
C533 C530 1.409 . S
C533 C531 1.415 . S
C534 H524 0.930 . S
C534 C532 1.419 . S
C534 C535 1.362 . S
C535 H525 0.930 . S
C535 C528 1.409 . S
C535 C534 1.362 . S
H536 C542 0.930 . S
H537 C545 0.930 . S
H538 C546 0.930 . S
H539 C547 0.930 . S
H540 C550 0.930 . S
H541 C551 0.930 . S
C542 H536 0.930 . S
C542 C543 1.355 . S
C542 C544 1.415 1_455 S
C543 C542 1.355 . S
C543 C545 1.419 1_455 S
C544 C542 1.415 1_655 S
C544 C549 1.425 . S
C544 C551 1.409 . S
C545 H537 0.930 . S
C545 C543 1.419 1_655 S
C545 C546 1.362 . S
C546 H538 0.930 . S
C546 C545 1.362 . S
C546 C549 1.409 . S
C547 H539 0.930 . S
C547 C548 1.355 . S
C547 C549 1.415 . S
C548 C547 1.355 . S
C548 C550 1.419 . S
C549 C544 1.425 . S
C549 C546 1.409 . S
C549 C547 1.415 . S
C550 H540 0.930 . S
C550 C548 1.419 . S
C550 C551 1.362 . S
C551 H541 0.930 . S
C551 C544 1.409 . S
C551 C550 1.362 . S
H552 C558 0.930 . S
H553 C561 0.930 . S
H554 C562 0.930 . S
H555 C563 0.930 . S
H556 C566 0.930 . S
H557 C567 0.930 . S
C558 H552 0.930 . S
C558 C559 1.355 . S
C558 C560 1.415 . S
C559 C558 1.355 . S
C559 C561 1.419 . S
C560 C558 1.415 . S
C560 C565 1.425 . S
C560 C567 1.409 . S
C561 H553 0.930 . S
C561 C559 1.419 . S
C561 C562 1.362 . S
C562 H554 0.930 . S
C562 C561 1.362 . S
C562 C565 1.409 . S
C563 H555 0.930 . S
C563 C564 1.355 . S
C563 C565 1.415 . S
C564 C563 1.355 . S
C564 C566 1.419 . S
C565 C560 1.425 . S
C565 C562 1.409 . S
C565 C563 1.415 . S
C566 H556 0.930 . S
C566 C564 1.419 . S
C566 C567 1.362 . S
C567 H557 0.930 . S
C567 C560 1.409 . S
C567 C566 1.362 . S
H568 C574 0.930 . S
H569 C577 0.930 . S
H570 C578 0.930 . S
H571 C579 0.930 . S
H572 C582 0.930 . S
H573 C583 0.930 . S
C574 H568 0.930 . S
C574 C575 1.355 . S
C574 C576 1.415 . S
C575 C574 1.355 . S
C575 C577 1.419 . S
C576 C574 1.415 . S
C576 C581 1.425 . S
C576 C583 1.409 . S
C577 H569 0.930 . S
C577 C575 1.419 . S
C577 C578 1.362 . S
C578 H570 0.930 . S
C578 C577 1.362 . S
C578 C581 1.409 . S
C579 H571 0.930 . S
C579 C580 1.355 . S
C579 C581 1.415 . S
C580 C579 1.355 . S
C580 C582 1.419 . S
C581 C576 1.425 . S
C581 C578 1.409 . S
C581 C579 1.415 . S
C582 H572 0.930 . S
C582 C580 1.419 . S
C582 C583 1.362 . S
C583 H573 0.930 . S
C583 C576 1.409 . S
C583 C582 1.362 . S
H584 C590 0.930 . S
H585 C593 0.930 . S
H586 C594 0.930 . S
H587 C595 0.930 . S
H588 C598 0.930 . S
H589 C599 0.930 . S
C590 H584 0.930 . S
C590 C591 1.355 . S
C590 C592 1.415 . S
C591 C590 1.355 . S
C591 C593 1.419 . S
C592 C590 1.415 . S
C592 C597 1.425 . S
C592 C599 1.409 . S
C593 H585 0.930 . S
C593 C591 1.419 . S
C593 C594 1.362 . S
C594 H586 0.930 . S
C594 C593 1.362 . S
C594 C597 1.409 . S
C595 H587 0.930 . S
C595 C596 1.355 . S
C595 C597 1.415 . S
C596 C595 1.355 . S
C596 C598 1.419 . S
C597 C592 1.425 . S
C597 C594 1.409 . S
C597 C595 1.415 . S
C598 H588 0.930 . S
C598 C596 1.419 . S
C598 C599 1.362 . S
C599 H589 0.930 . S
C599 C592 1.409 . S
C599 C598 1.362 . S
H600 C606 0.930 . S
H601 C609 0.930 . S
H602 C610 0.930 . S
H603 C611 0.930 . S
H604 C614 0.930 . S
H605 C615 0.930 . S
C606 H600 0.930 . S
C606 C607 1.355 . S
C606 C608 1.415 . S
C607 C606 1.355 . S
C607 C609 1.419 . S
C608 C606 1.415 . S
C608 C613 1.425 . S
C608 C615 1.409 . S
C609 H601 0.930 . S
C609 C607 1.419 . S
C609 C610 1.362 . S
C610 H602 0.930 . S
C610 C609 1.362 . S
C610 C613 1.409 . S
C611 H603 0.930 . S
C611 C612 1.355 . S
C611 C613 1.415 . S
C612 C611 1.355 . S
C612 C614 1.419 . S
C613 C608 1.425 . S
C613 C610 1.409 . S
C613 C611 1.415 . S
C614 H604 0.930 . S
C614 C612 1.419 . S
C614 C615 1.362 . S
C615 H605 0.930 . S
C615 C608 1.409 . S
C615 C614 1.362 . S
H616 C622 0.930 . S
H617 C625 0.930 . S
H618 C626 0.930 . S
H619 C627 0.930 . S
H620 C630 0.930 . S
H621 C631 0.930 . S
C622 H616 0.930 . S
C622 C623 1.355 . S
C622 C624 1.415 . S
C623 C622 1.355 . S
C623 C625 1.419 . S
C624 C622 1.415 . S
C624 C629 1.425 . S
C624 C631 1.409 . S
C625 H617 0.930 . S
C625 C623 1.419 . S
C625 C626 1.362 . S
C626 H618 0.930 . S
C626 C625 1.362 . S
C626 C629 1.409 . S
C627 H619 0.930 . S
C627 C628 1.355 . S
C627 C629 1.415 . S
C628 C627 1.355 . S
C628 C630 1.419 . S
C629 C624 1.425 . S
C629 C626 1.409 . S
C629 C627 1.415 . S
C630 H620 0.930 . S
C630 C628 1.419 . S
C630 C631 1.362 . S
C631 H621 0.930 . S
C631 C624 1.409 . S
C631 C630 1.362 . S
H632 C638 0.930 . S
H633 C641 0.930 . S
H634 C642 0.930 . S
H635 C643 0.930 . S
H636 C646 0.930 . S
H637 C647 0.930 . S
C638 H632 0.930 . S
C638 C639 1.355 . S
C638 C640 1.415 . S
C639 C638 1.355 . S
C639 C641 1.419 . S
C640 C638 1.415 . S
C640 C645 1.425 . S
C640 C647 1.409 . S
C641 H633 0.930 . S
C641 C639 1.419 . S
C641 C642 1.362 . S
C642 H634 0.930 . S
C642 C641 1.362 . S
C642 C645 1.409 . S
C643 H635 0.930 . S
C643 C644 1.355 . S
C643 C645 1.415 . S
C644 C643 1.355 . S
C644 C646 1.419 . S
C645 C640 1.425 . S
C645 C642 1.409 . S
C645 C643 1.415 . S
C646 H636 0.930 . S
C646 C644 1.419 . S
C646 C647 1.362 . S
C647 H637 0.930 . S
C647 C640 1.409 . S
C647 C646 1.362 . S
H648 C654 0.930 . S
H649 C657 0.930 . S
H650 C658 0.930 . S
H651 C659 0.930 . S
H652 C662 0.930 . S
H653 C663 0.930 . S
C654 H648 0.930 . S
C654 C655 1.355 . S
C654 C656 1.415 1_565 S
C655 C654 1.355 . S
C655 C657 1.419 . S
C656 C654 1.415 1_545 S
C656 C661 1.425 1_546 S
C656 C663 1.409 . S
C657 H649 0.930 . S
C657 C655 1.419 . S
C657 C658 1.362 1_556 S
C658 H650 0.930 . S
C658 C657 1.362 1_554 S
C658 C661 1.409 . S
C659 H651 0.930 . S
C659 C660 1.355 . S
C659 C661 1.415 1_545 S
C660 C659 1.355 . S
C660 C662 1.419 . S
C661 C656 1.425 1_564 S
C661 C658 1.409 . S
C661 C659 1.415 1_565 S
C662 H652 0.930 . S
C662 C660 1.419 . S
C662 C663 1.362 1_554 S
C663 H653 0.930 . S
C663 C656 1.409 . S
C663 C662 1.362 1_556 S
H664 C670 0.930 . S
H665 C673 0.930 . S
H666 C674 0.930 . S
H667 C675 0.930 . S
H668 C678 0.930 . S
H669 C679 0.930 . S
C670 H664 0.930 . S
C670 C671 1.355 . S
C670 C672 1.415 . S
C671 C670 1.355 . S
C671 C673 1.419 . S
C672 C670 1.415 . S
C672 C677 1.425 . S
C672 C679 1.409 . S
C673 H665 0.930 . S
C673 C671 1.419 . S
C673 C674 1.362 . S
C674 H666 0.930 . S
C674 C673 1.362 . S
C674 C677 1.409 . S
C675 H667 0.930 . S
C675 C676 1.355 . S
C675 C677 1.415 . S
C676 C675 1.355 . S
C676 C678 1.419 . S
C677 C672 1.425 . S
C677 C674 1.409 . S
C677 C675 1.415 . S
C678 H668 0.930 . S
C678 C676 1.419 . S
C678 C679 1.362 . S
C679 H669 0.930 . S
C679 C672 1.409 . S
C679 C678 1.362 . S
H680 C686 0.930 . S
H681 C689 0.930 . S
H682 C690 0.930 . S
H683 C691 0.930 . S
H684 C694 0.930 . S
H685 C695 0.930 . S
C686 H680 0.930 . S
C686 C687 1.355 . S
C686 C688 1.415 1_556 S
C687 C686 1.355 . S
C687 C689 1.419 . S
C688 C686 1.415 1_554 S
C688 C693 1.425 1_454 S
C688 C695 1.409 . S
C689 H681 0.930 . S
C689 C687 1.419 . S
C689 C690 1.362 1_455 S
C690 H682 0.930 . S
C690 C689 1.362 1_655 S
C690 C693 1.409 . S
C691 H683 0.930 . S
C691 C692 1.355 . S
C691 C693 1.415 1_554 S
C692 C691 1.355 . S
C692 C694 1.419 . S
C693 C688 1.425 1_656 S
C693 C690 1.409 . S
C693 C691 1.415 1_556 S
C694 H684 0.930 . S
C694 C692 1.419 . S
C694 C695 1.362 1_655 S
C695 H685 0.930 . S
C695 C688 1.409 . S
C695 C694 1.362 1_455 S
H696 C702 0.930 . S
H697 C705 0.930 . S
H698 C706 0.930 . S
H699 C707 0.930 . S
H700 C710 0.930 . S
H701 C711 0.930 . S
C702 H696 0.930 . S
C702 C703 1.355 . S
C702 C704 1.415 . S
C703 C702 1.355 . S
C703 C705 1.419 . S
C704 C702 1.415 . S
C704 C709 1.425 1_545 S
C704 C711 1.409 1_545 S
C705 H697 0.930 . S
C705 C703 1.419 . S
C705 C706 1.362 . S
C706 H698 0.930 . S
C706 C705 1.362 . S
C706 C709 1.409 1_545 S
C707 H699 0.930 . S
C707 C708 1.355 . S
C707 C709 1.415 . S
C708 C707 1.355 . S
C708 C710 1.419 . S
C709 C704 1.425 1_565 S
C709 C706 1.409 1_565 S
C709 C707 1.415 . S
C710 H700 0.930 . S
C710 C708 1.419 . S
C710 C711 1.362 . S
C711 H701 0.930 . S
C711 C704 1.409 1_565 S
C711 C710 1.362 . S
H712 C718 0.930 . S
H713 C721 0.930 . S
H714 C722 0.930 . S
H715 C723 0.930 . S
H716 C726 0.930 . S
H717 C727 0.930 . S
C718 H712 0.930 . S
C718 C719 1.355 . S
C718 C720 1.430 . S
C719 C718 1.355 . S
C719 C721 1.419 . S
C720 C718 1.430 . S
C720 C725 1.424 1_554 S
C720 C727 1.395 1_554 S
C721 H713 0.930 . S
C721 C719 1.419 . S
C721 C722 1.362 . S
C722 H714 0.930 . S
C722 C721 1.362 . S
C722 C725 1.395 1_554 S
C723 H715 0.930 . S
C723 C724 1.355 . S
C723 C725 1.430 . S
C724 C723 1.355 . S
C724 C726 1.419 . S
C725 C720 1.424 1_556 S
C725 C722 1.395 1_556 S
C725 C723 1.430 . S
C726 H716 0.930 . S
C726 C724 1.419 . S
C726 C727 1.362 . S
C727 H717 0.930 . S
C727 C720 1.395 1_556 S
C727 C726 1.362 . S
H728 C734 0.930 . S
H729 C737 0.930 . S
H730 C738 0.930 . S
H731 C739 0.930 . S
H732 C742 0.930 . S
H733 C743 0.930 . S
C734 H728 0.930 . S
C734 C735 1.355 . S
C734 C736 1.415 . S
C735 C734 1.355 . S
C735 C737 1.419 . S
C736 C734 1.415 . S
C736 C741 1.425 1_455 S
C736 C743 1.409 . S
C737 H729 0.930 . S
C737 C735 1.419 . S
C737 C738 1.362 1_455 S
C738 H730 0.930 . S
C738 C737 1.362 1_655 S
C738 C741 1.409 . S
C739 H731 0.930 . S
C739 C740 1.355 . S
C739 C741 1.415 . S
C740 C739 1.355 . S
C740 C742 1.419 . S
C741 C736 1.425 1_655 S
C741 C738 1.409 . S
C741 C739 1.415 . S
C742 H732 0.930 . S
C742 C740 1.419 . S
C742 C743 1.362 1_655 S
C743 H733 0.930 . S
C743 C736 1.409 . S
C743 C742 1.362 1_455 S
H744 C750 0.930 . S
H745 C753 0.930 . S
H746 C754 0.930 . S
H747 C755 0.930 . S
H748 C758 0.930 . S
H749 C759 0.930 . S
C750 H744 0.930 . S
C750 C751 1.355 . S
C750 C752 1.415 . S
C751 C750 1.355 . S
C751 C753 1.419 . S
C752 C750 1.415 . S
C752 C757 1.425 . S
C752 C759 1.409 . S
C753 H745 0.930 . S
C753 C751 1.419 . S
C753 C754 1.362 . S
C754 H746 0.930 . S
C754 C753 1.362 . S
C754 C757 1.409 . S
C755 H747 0.930 . S
C755 C756 1.355 . S
C755 C757 1.415 . S
C756 C755 1.355 . S
C756 C758 1.419 . S
C757 C752 1.425 . S
C757 C754 1.409 . S
C757 C755 1.415 . S
C758 H748 0.930 . S
C758 C756 1.419 . S
C758 C759 1.362 . S
C759 H749 0.930 . S
C759 C752 1.409 . S
C759 C758 1.362 . S
H760 C766 0.930 . S
H761 C769 0.930 . S
H762 C770 0.930 . S
H763 C771 0.930 . S
H764 C774 0.930 . S
H765 C775 0.930 . S
C766 H760 0.930 . S
C766 C767 1.355 . S
C766 C768 1.415 . S
C767 C766 1.355 . S
C767 C769 1.419 . S
C768 C766 1.415 . S
C768 C773 1.425 . S
C768 C775 1.409 . S
C769 H761 0.930 . S
C769 C767 1.419 . S
C769 C770 1.362 . S
C770 H762 0.930 . S
C770 C769 1.362 . S
C770 C773 1.409 . S
C771 H763 0.930 . S
C771 C772 1.355 . S
C771 C773 1.415 . S
C772 C771 1.355 . S
C772 C774 1.419 . S
C773 C768 1.425 . S
C773 C770 1.409 . S
C773 C771 1.415 . S
C774 H764 0.930 . S
C774 C772 1.419 . S
C774 C775 1.362 . S
C775 H765 0.930 . S
C775 C768 1.409 . S
C775 C774 1.362 . S
H776 C782 0.930 . S
H777 C785 0.930 . S
H778 C786 0.930 . S
H779 C787 0.930 . S
H780 C790 0.930 . S
H781 C791 0.930 . S
C782 H776 0.930 . S
C782 C783 1.355 . S
C782 C784 1.415 . S
C783 C782 1.355 . S
C783 C785 1.419 . S
C784 C782 1.415 . S
C784 C789 1.425 . S
C784 C791 1.409 . S
C785 H777 0.930 . S
C785 C783 1.419 . S
C785 C786 1.362 . S
C786 H778 0.930 . S
C786 C785 1.362 . S
C786 C789 1.409 . S
C787 H779 0.930 . S
C787 C788 1.355 . S
C787 C789 1.415 . S
C788 C787 1.355 . S
C788 C790 1.419 . S
C789 C784 1.425 . S
C789 C786 1.409 . S
C789 C787 1.415 . S
C790 H780 0.930 . S
C790 C788 1.419 . S
C790 C791 1.362 . S
C791 H781 0.930 . S
C791 C784 1.409 . S
C791 C790 1.362 . S
H792 C798 0.930 . S
H793 C801 0.930 . S
H794 C802 0.930 . S
H795 C803 0.930 . S
H796 C806 0.930 . S
H797 C807 0.930 . S
C798 H792 0.930 . S
C798 C799 1.355 . S
C798 C800 1.415 . S
C799 C798 1.355 . S
C799 C801 1.419 . S
C800 C798 1.415 . S
C800 C805 1.425 . S
C800 C807 1.409 . S
C801 H793 0.930 . S
C801 C799 1.419 . S
C801 C802 1.362 . S
C802 H794 0.930 . S
C802 C801 1.362 . S
C802 C805 1.409 . S
C803 H795 0.930 . S
C803 C804 1.355 . S
C803 C805 1.415 . S
C804 C803 1.355 . S
C804 C806 1.419 . S
C805 C800 1.425 . S
C805 C802 1.409 . S
C805 C803 1.415 . S
C806 H796 0.930 . S
C806 C804 1.419 . S
C806 C807 1.362 . S
C807 H797 0.930 . S
C807 C800 1.409 . S
C807 C806 1.362 . S
H808 C814 0.930 . S
H809 C817 0.930 . S
H810 C818 0.930 . S
H811 C819 0.930 . S
H812 C822 0.930 . S
H813 C823 0.930 . S
C814 H808 0.930 . S
C814 C815 1.355 . S
C814 C816 1.415 . S
C815 C814 1.355 . S
C815 C817 1.419 . S
C816 C814 1.415 . S
C816 C821 1.425 . S
C816 C823 1.409 . S
C817 H809 0.930 . S
C817 C815 1.419 . S
C817 C818 1.362 . S
C818 H810 0.930 . S
C818 C817 1.362 . S
C818 C821 1.409 . S
C819 H811 0.930 . S
C819 C820 1.355 . S
C819 C821 1.415 . S
C820 C819 1.355 . S
C820 C822 1.419 . S
C821 C816 1.425 . S
C821 C818 1.409 . S
C821 C819 1.415 . S
C822 H812 0.930 . S
C822 C820 1.419 . S
C822 C823 1.362 . S
C823 H813 0.930 . S
C823 C816 1.409 . S
C823 C822 1.362 . S
H824 C830 0.930 . S
H825 C833 0.930 . S
H826 C834 0.930 . S
H827 C835 0.930 . S
H828 C838 0.930 . S
H829 C839 0.930 . S
C830 H824 0.930 . S
C830 C831 1.355 . S
C830 C832 1.415 . S
C831 C830 1.355 . S
C831 C833 1.419 . S
C832 C830 1.415 . S
C832 C837 1.425 . S
C832 C839 1.409 . S
C833 H825 0.930 . S
C833 C831 1.419 . S
C833 C834 1.362 . S
C834 H826 0.930 . S
C834 C833 1.362 . S
C834 C837 1.409 . S
C835 H827 0.930 . S
C835 C836 1.355 . S
C835 C837 1.415 . S
C836 C835 1.355 . S
C836 C838 1.419 . S
C837 C832 1.425 . S
C837 C834 1.409 . S
C837 C835 1.415 . S
C838 H828 0.930 . S
C838 C836 1.419 . S
C838 C839 1.362 . S
C839 H829 0.930 . S
C839 C832 1.409 . S
C839 C838 1.362 . S
H840 C846 0.930 . S
H841 C849 0.930 . S
H842 C850 0.930 . S
H843 C851 0.930 . S
H844 C854 0.930 . S
H845 C855 0.930 . S
C846 H840 0.930 . S
C846 C847 1.355 . S
C846 C848 1.415 . S
C847 C846 1.355 . S
C847 C849 1.419 . S
C848 C846 1.415 . S
C848 C853 1.425 . S
C848 C855 1.409 . S
C849 H841 0.930 . S
C849 C847 1.419 . S
C849 C850 1.362 . S
C850 H842 0.930 . S
C850 C849 1.362 . S
C850 C853 1.409 . S
C851 H843 0.930 . S
C851 C852 1.355 . S
C851 C853 1.415 . S
C852 C851 1.355 . S
C852 C854 1.419 . S
C853 C848 1.425 . S
C853 C850 1.409 . S
C853 C851 1.415 . S
C854 H844 0.930 . S
C854 C852 1.419 . S
C854 C855 1.362 . S
C855 H845 0.930 . S
C855 C848 1.409 . S
C855 C854 1.362 . S
H856 C862 0.930 . S
H857 C865 0.930 . S
H858 C866 0.930 . S
H859 C867 0.930 . S
H860 C870 0.930 . S
H861 C871 0.930 . S
C862 H856 0.930 . S
C862 C863 1.355 . S
C862 C864 1.415 . S
C863 C862 1.355 . S
C863 C865 1.419 . S
C864 C862 1.415 . S
C864 C869 1.425 . S
C864 C871 1.409 . S
C865 H857 0.930 . S
C865 C863 1.419 . S
C865 C866 1.362 . S
C866 H858 0.930 . S
C866 C865 1.362 . S
C866 C869 1.409 . S
C867 H859 0.930 . S
C867 C868 1.355 . S
C867 C869 1.415 . S
C868 C867 1.355 . S
C868 C870 1.419 . S
C869 C864 1.425 . S
C869 C866 1.409 . S
C869 C867 1.415 . S
C870 H860 0.930 . S
C870 C868 1.419 . S
C870 C871 1.362 . S
C871 H861 0.930 . S
C871 C864 1.409 . S
C871 C870 1.362 . S
H872 C878 0.930 . S
H873 C881 0.930 . S
H874 C882 0.930 . S
H875 C883 0.930 . S
H876 C886 0.930 . S
H877 C887 0.930 . S
C878 H872 0.930 . S
C878 C879 1.355 . S
C878 C880 1.415 . S
C879 C878 1.355 . S
C879 C881 1.419 . S
C880 C878 1.415 . S
C880 C885 1.425 . S
C880 C887 1.409 . S
C881 H873 0.930 . S
C881 C879 1.419 . S
C881 C882 1.362 . S
C882 H874 0.930 . S
C882 C881 1.362 . S
C882 C885 1.409 . S
C883 H875 0.930 . S
C883 C884 1.355 . S
C883 C885 1.415 . S
C884 C883 1.355 . S
C884 C886 1.419 . S
C885 C880 1.425 . S
C885 C882 1.409 . S
C885 C883 1.415 . S
C886 H876 0.930 . S
C886 C884 1.419 . S
C886 C887 1.362 . S
C887 H877 0.930 . S
C887 C880 1.409 . S
C887 C886 1.362 . S
H888 C894 0.930 . S
H889 C897 0.930 . S
H890 C898 0.930 . S
H891 C899 0.930 . S
H892 C902 0.930 . S
H893 C903 0.930 . S
C894 H888 0.930 . S
C894 C895 1.355 . S
C894 C896 1.415 . S
C895 C894 1.355 . S
C895 C897 1.419 . S
C896 C894 1.415 . S
C896 C901 1.425 . S
C896 C903 1.409 . S
C897 H889 0.930 . S
C897 C895 1.419 . S
C897 C898 1.362 . S
C898 H890 0.930 . S
C898 C897 1.362 . S
C898 C901 1.409 . S
C899 H891 0.930 . S
C899 C900 1.355 . S
C899 C901 1.415 . S
C900 C899 1.355 . S
C900 C902 1.419 . S
C901 C896 1.425 . S
C901 C898 1.409 . S
C901 C899 1.415 . S
C902 H892 0.930 . S
C902 C900 1.419 . S
C902 C903 1.362 . S
C903 H893 0.930 . S
C903 C896 1.409 . S
C903 C902 1.362 . S
H904 C910 0.930 . S
H905 C913 0.930 . S
H906 C914 0.930 . S
H907 C915 0.930 . S
H908 C918 0.930 . S
H909 C919 0.930 . S
C910 H904 0.930 . S
C910 C911 1.355 . S
C910 C912 1.415 . S
C911 C910 1.355 . S
C911 C913 1.419 . S
C912 C910 1.415 . S
C912 C917 1.425 . S
C912 C919 1.409 . S
C913 H905 0.930 . S
C913 C911 1.419 . S
C913 C914 1.362 . S
C914 H906 0.930 . S
C914 C913 1.362 . S
C914 C917 1.409 . S
C915 H907 0.930 . S
C915 C916 1.355 . S
C915 C917 1.415 . S
C916 C915 1.355 . S
C916 C918 1.419 . S
C917 C912 1.425 . S
C917 C914 1.409 . S
C917 C915 1.415 . S
C918 H908 0.930 . S
C918 C916 1.419 . S
C918 C919 1.362 . S
C919 H909 0.930 . S
C919 C912 1.409 . S
C919 C918 1.362 . S
H920 C926 0.930 . S
H921 C929 0.930 . S
H922 C930 0.930 . S
H923 C931 0.930 . S
H924 C934 0.930 . S
H925 C935 0.930 . S
C926 H920 0.930 . S
C926 C927 1.355 . S
C926 C928 1.415 . S
C927 C926 1.355 . S
C927 C929 1.419 . S
C928 C926 1.415 . S
C928 C933 1.425 . S
C928 C935 1.409 . S
C929 H921 0.930 . S
C929 C927 1.419 . S
C929 C930 1.362 . S
C930 H922 0.930 . S
C930 C929 1.362 . S
C930 C933 1.409 . S
C931 H923 0.930 . S
C931 C932 1.355 . S
C931 C933 1.415 . S
C932 C931 1.355 . S
C932 C934 1.419 . S
C933 C928 1.425 . S
C933 C930 1.409 . S
C933 C931 1.415 . S
C934 H924 0.930 . S
C934 C932 1.419 . S
C934 C935 1.362 . S
C935 H925 0.930 . S
C935 C928 1.409 . S
C935 C934 1.362 . S
C367 C76 0.848 . S
C372 N6 0.817 . S
C383 N96 1.030 . S
C388 C46 1.069 . S
C399 N66 0.887 . S
C404 C136 0.918 . S
C415 C106 1.046 . S
C420 N156 1.070 . S
C431 C16 0.875 . S
C436 N126 0.834 . S
C447 N36 1.081 . S
C452 C166 1.091 . S
C463 C327 0.915 . S
C468 N194 0.883 . S
C479 N216 0.817 . S
C484 C346 0.847 . S
C495 N254 0.874 . S
C500 C207 0.867 . S
C511 N276 0.827 . S
C516 C226 0.845 . S
C527 N314 0.936 . S
C532 C267 0.944 . S
C543 C286 0.943 . S
C548 N336 0.950 . S
C559 C91 1.673 . S
C564 C1 1.666 . S
C575 C31 1.674 . S
C580 C121 1.655 . S
C591 C61 1.671 . S
C596 C151 1.670 . S
C607 C190 1.670 . S
C612 C271 1.642 . S
C623 C211 1.642 . S
C628 C310 1.670 . S
C639 C250 1.639 . S
C644 C331 1.673 . S
C655 C220 2.013 . S
C660 C10 2.005 . S
C671 C40 1.878 . S
C676 C241 1.968 . S
C687 C280 1.975 . S
C692 C70 1.968 . S
C703 C100 1.916 . S
C708 C301 1.998 . S
C719 C130 1.990 . S
C724 C340 2.000 . S
C735 C181 1.973 . S
C740 C160 1.883 . S
C751 C87 1.307 . S
C756 N14 1.251 . S
C767 C57 1.220 . S
C772 N104 1.228 . S
C783 N74 1.298 . S
C788 C147 1.328 . S
C799 C117 1.220 . S
C804 N164 1.207 . S
C815 C27 1.337 . S
C820 N134 1.294 . S
C831 N44 1.204 . S
C836 C177 1.160 . S
C847 C316 1.348 . S
C852 N186 1.330 . S
C863 N224 1.282 . S
C868 C357 1.319 . S
C879 N246 1.330 . S
C884 C196 1.354 . S
C895 C237 1.343 . S
C900 N284 1.307 . S
C911 N306 1.335 . S
C916 C256 1.355 . S
C927 N344 1.265 . S
C932 C297 1.319 . S
