# Generated by pormake.
# Topology wjd, (6)-cn, num edge types: 1
# Building blocks:
#     Node 0, Type 0, BuildingBlock: MIDCAF_clean_sbu_0, # of connection points: 6
#     Node 1, Type 0, BuildingBlock: MIDCAF_clean_sbu_0, # of connection points: 6
#     Node 2, Type 0, BuildingBlock: MIDCAF_clean_sbu_0, # of connection points: 6
#     Node 3, Type 0, BuildingBlock: MIDCAF_clean_sbu_0, # of connection points: 6
#     Node 4, Type 0, BuildingBlock: MIDCAF_clean_sbu_0, # of connection points: 6
#     Node 5, Type 0, BuildingBlock: MIDCAF_clean_sbu_0, # of connection points: 6
#     Node 6, Type 0, BuildingBlock: MIDCAF_clean_sbu_0, # of connection points: 6
#     Node 7, Type 0, BuildingBlock: MIDCAF_clean_sbu_0, # of connection points: 6
#     Node 8, Type 0, BuildingBlock: MIDCAF_clean_sbu_0, # of connection points: 6
#     Node 9, Type 0, BuildingBlock: MIDCAF_clean_sbu_0, # of connection points: 6
#     Node 10, Type 0, BuildingBlock: MIDCAF_clean_sbu_0, # of connection points: 6
#     Node 11, Type 0, BuildingBlock: MIDCAF_clean_sbu_0, # of connection points: 6
#     Edge 12, Type (0, 0), BuildingBlock: AJUNOK_clean_linker_0, # of connection points: 2
#     Edge 13, Type (0, 0), BuildingBlock: AJUNOK_clean_linker_0, # of connection points: 2
#     Edge 14, Type (0, 0), BuildingBlock: AJUNOK_clean_linker_0, # of connection points: 2
#     Edge 15, Type (0, 0), BuildingBlock: AJUNOK_clean_linker_0, # of connection points: 2
#     Edge 16, Type (0, 0), BuildingBlock: AJUNOK_clean_linker_0, # of connection points: 2
#     Edge 17, Type (0, 0), BuildingBlock: AJUNOK_clean_linker_0, # of connection points: 2
#     Edge 18, Type (0, 0), BuildingBlock: AJUNOK_clean_linker_0, # of connection points: 2
#     Edge 19, Type (0, 0), BuildingBlock: AJUNOK_clean_linker_0, # of connection points: 2
#     Edge 20, Type (0, 0), BuildingBlock: AJUNOK_clean_linker_0, # of connection points: 2
#     Edge 21, Type (0, 0), BuildingBlock: AJUNOK_clean_linker_0, # of connection points: 2
#     Edge 22, Type (0, 0), BuildingBlock: AJUNOK_clean_linker_0, # of connection points: 2
#     Edge 23, Type (0, 0), BuildingBlock: AJUNOK_clean_linker_0, # of connection points: 2
#     Edge 24, Type (0, 0), BuildingBlock: AJUNOK_clean_linker_0, # of connection points: 2
#     Edge 25, Type (0, 0), BuildingBlock: AJUNOK_clean_linker_0, # of connection points: 2
#     Edge 26, Type (0, 0), BuildingBlock: AJUNOK_clean_linker_0, # of connection points: 2
#     Edge 27, Type (0, 0), BuildingBlock: AJUNOK_clean_linker_0, # of connection points: 2
#     Edge 28, Type (0, 0), BuildingBlock: AJUNOK_clean_linker_0, # of connection points: 2
#     Edge 29, Type (0, 0), BuildingBlock: AJUNOK_clean_linker_0, # of connection points: 2
#     Edge 30, Type (0, 0), BuildingBlock: AJUNOK_clean_linker_0, # of connection points: 2
#     Edge 31, Type (0, 0), BuildingBlock: AJUNOK_clean_linker_0, # of connection points: 2
#     Edge 32, Type (0, 0), BuildingBlock: AJUNOK_clean_linker_0, # of connection points: 2
#     Edge 33, Type (0, 0), BuildingBlock: AJUNOK_clean_linker_0, # of connection points: 2
#     Edge 34, Type (0, 0), BuildingBlock: AJUNOK_clean_linker_0, # of connection points: 2
#     Edge 35, Type (0, 0), BuildingBlock: AJUNOK_clean_linker_0, # of connection points: 2
#     Edge 36, Type (0, 0), BuildingBlock: AJUNOK_clean_linker_0, # of connection points: 2
#     Edge 37, Type (0, 0), BuildingBlock: AJUNOK_clean_linker_0, # of connection points: 2
#     Edge 38, Type (0, 0), BuildingBlock: AJUNOK_clean_linker_0, # of connection points: 2
#     Edge 39, Type (0, 0), BuildingBlock: AJUNOK_clean_linker_0, # of connection points: 2
#     Edge 40, Type (0, 0), BuildingBlock: AJUNOK_clean_linker_0, # of connection points: 2
#     Edge 41, Type (0, 0), BuildingBlock: AJUNOK_clean_linker_0, # of connection points: 2
#     Edge 42, Type (0, 0), BuildingBlock: AJUNOK_clean_linker_0, # of connection points: 2
#     Edge 43, Type (0, 0), BuildingBlock: AJUNOK_clean_linker_0, # of connection points: 2
#     Edge 44, Type (0, 0), BuildingBlock: AJUNOK_clean_linker_0, # of connection points: 2
#     Edge 45, Type (0, 0), BuildingBlock: AJUNOK_clean_linker_0, # of connection points: 2
#     Edge 46, Type (0, 0), BuildingBlock: AJUNOK_clean_linker_0, # of connection points: 2
#     Edge 47, Type (0, 0), BuildingBlock: AJUNOK_clean_linker_0, # of connection points: 2
# Relax obj value: 0.343
# Max RMSD: 0.250
# Mean RMSD: 0.250
data_MOF--net-wjd--node1-MIDCAF_clean_sbu_0--edge1-AJUNOK_clean_linker_0
_symmetry_space_group_name_H-M    P1
_symmetry_Int_Tables_number       1
_symmetry_cell_setting            triclinic
loop_
_symmetry_equiv_pos_as_xyz
'x, y, z'
_cell_length_a     21.425148
_cell_length_b     21.524057
_cell_length_c     44.48177
_cell_angle_alpha  90.459317
_cell_angle_beta   89.233125
_cell_angle_gamma 121.05876
loop_
_atom_site_label
_atom_site_type_symbol
_atom_site_fract_x
_atom_site_fract_y
_atom_site_fract_z
_atom_type_partial_charge
Zn0 Zn 0.18355 0.02643 0.18232 0.0
Zn1 Zn 0.41469 0.12911 0.09581 0.0
Zn2 Zn 0.3188 0.07507 0.12704 0.0
C3 C 0.40911 0.2334 0.12698 0.0
C4 C 0.44915 0.05858 0.1309 0.0
O5 O 0.23971 0.96997 0.10527 0.0
O6 O 0.20745 -0.00762 0.14703 0.0
C7 C 0.21973 0.15284 0.14549 0.0
O8 O 0.34276 0.18409 0.12233 0.0
O9 O 0.45864 0.2192 0.12199 0.0
O10 O 0.43116 0.04642 0.10369 0.0
O11 O 0.41428 0.07973 0.1477 0.0
O12 O 0.18028 0.11256 0.16704 0.0
O13 O 0.26776 0.14319 0.13182 0.0
O14 O 0.35857 0.06524 0.17213 0.0
O15 O 0.27234 0.05233 0.20564 0.0
C16 C 0.33529 0.06299 0.19941 0.0
O17 O 0.29072 0.01853 0.08286 0.0
O18 O 0.359 0.12163 0.05922 0.0
C19 C 0.1932 0.94741 0.12656 0.0
C20 C 0.30938 0.0556 0.05825 0.0
Zn21 Zn 0.6958 0.53888 0.42517 0.0
Zn22 Zn 0.83003 0.74042 0.33929 0.0
Zn23 Zn 0.7637 0.66425 0.3807 0.0
C24 C 0.7316 0.62022 0.31154 0.0
C25 C 0.94174 0.75356 0.36996 0.0
O26 O 0.73226 0.69941 0.42095 0.0
O27 O 0.639 0.59088 0.43001 0.0
C28 C 0.60635 0.52751 0.37598 0.0
O29 O 0.7047 0.61511 0.33807 0.0
O30 O 0.79728 0.66775 0.30638 0.0
O31 O 0.93517 0.79017 0.34958 0.0
O32 O 0.88406 0.70144 0.38268 0.0
O33 O 0.60314 0.52533 0.40466 0.0
O34 O 0.66706 0.57021 0.36257 0.0
O35 O 0.83871 0.63007 0.38851 0.0
O36 O 0.74895 0.51628 0.39276 0.0
C37 C 0.8129 0.56225 0.38415 0.0
O38 O 0.74853 0.75252 0.39415 0.0
O39 O 0.76969 0.78678 0.34685 0.0
C40 C 0.67857 0.65648 0.43795 0.0
C41 C 0.74375 0.78841 0.37241 0.0
Zn42 Zn 0.93057 0.20418 0.15904 0.0
Zn43 Zn 0.87822 0.31722 0.08559 0.0
Zn44 Zn 0.91436 0.26656 0.12274 0.0
C45 C 0.75229 0.20601 0.11195 0.0
C46 C 0.93562 0.41983 0.12715 0.0
O47 O 0.01769 0.27474 0.1108 0.0
O48 O 0.03843 0.27213 0.15865 0.0
C49 C 0.83989 0.0955 0.12423 0.0
O50 O 0.79947 0.1871 0.11588 0.0
O51 O 0.77255 0.26728 0.10066 0.0
O52 O 0.94484 0.41961 0.0991 0.0
O53 O 0.91558 0.36116 0.14179 0.0
O54 O 0.8929 0.10649 0.14012 0.0
O55 O 0.82982 0.14846 0.11906 0.0
O56 O 0.92418 0.32078 0.16673 0.0
O57 O 0.8733 0.21784 0.19147 0.0
C58 C 0.89495 0.28462 0.19102 0.0
O59 O -0.00752 0.29831 0.08464 0.0
O60 O 0.91464 0.28712 0.04998 0.0
C61 C 0.06187 0.28328 0.13186 0.0
C62 C 0.97593 0.29613 0.0568 0.0
Zn63 Zn 0.43174 0.16573 0.41165 0.0
Zn64 Zn 0.23325 0.0438 0.3581 0.0
Zn65 Zn 0.32864 0.09307 0.38667 0.0
C66 C 0.34402 0.07539 0.32019 0.0
C67 C 0.2319 0.15277 0.38539 0.0
O68 O 0.29786 0.12522 0.42937 0.0
O69 O 0.39464 0.14157 0.45315 0.0
C70 C 0.43136 0.04456 0.39056 0.0
O71 O 0.36814 0.12702 0.33976 0.0
O72 O 0.28348 0.01854 0.32544 0.0
O73 O 0.23359 0.1367 0.3581 0.0
O74 O 0.25517 0.12673 0.40536 0.0
O75 O 0.47191 0.11283 0.38967 0.0
O76 O 0.36315 0.01649 0.39592 0.0
O77 O 0.39249 0.18714 0.35614 0.0
O78 O 0.44127 0.25499 0.39616 0.0
C79 C 0.42444 0.24991 0.3689 0.0
O80 O 0.28068 0.97398 0.38737 0.0
O81 O 0.1801 0.97514 0.39202 0.0
C82 C 0.33232 0.13441 0.45411 0.0
C83 C 0.21277 0.94079 0.39455 0.0
Zn84 Zn 0.68099 0.57396 0.09661 0.0
Zn85 Zn 0.76878 0.75794 0.16854 0.0
Zn86 Zn 0.72324 0.66557 0.13064 0.0
C87 C 0.68202 0.63148 0.19884 0.0
C88 C 0.89127 0.76817 0.14168 0.0
O89 O 0.70007 0.70436 0.08916 0.0
O90 O 0.72846 0.63788 0.06128 0.0
C91 C 0.56679 0.52941 0.13063 0.0
O92 O 0.66053 0.61067 0.1718 0.0
O93 O 0.73573 0.69409 0.20369 0.0
O94 O 0.87523 0.808 0.15683 0.0
O95 O 0.84053 0.70573 0.13246 0.0
O96 O 0.57481 0.53778 0.10255 0.0
O97 O 0.62241 0.56902 0.14726 0.0
O98 O 0.80616 0.63522 0.12646 0.0
O99 O 0.72449 0.52137 0.1172 0.0
C100 C 0.78751 0.5681 0.12596 0.0
O101 O 0.71475 0.75654 0.1133 0.0
O102 O 0.71025 0.80153 0.15714 0.0
C103 C 0.71449 0.6881 0.06311 0.0
C104 C 0.70457 0.80108 0.12895 0.0
Zn105 Zn 0.81514 0.25473 0.41913 0.0
Zn106 Zn 0.89751 0.15455 0.33741 0.0
Zn107 Zn 0.86685 0.21392 0.37969 0.0
C108 C 0.90479 0.26978 0.30956 0.0
C109 C 0.77029 0.04459 0.35784 0.0
O110 O 0.93377 0.23753 0.42113 0.0
O111 O 0.85176 0.22909 0.45397 0.0
C112 C 0.88943 0.36703 0.37754 0.0
O113 O 0.88884 0.2791 0.3367 0.0
O114 O 0.91137 0.21629 0.30329 0.0
O115 O 0.81423 0.05442 0.33671 0.0
O116 O 0.78165 0.0982 0.37478 0.0
O117 O 0.87248 0.35764 0.40512 0.0
O118 O 0.87959 0.31312 0.36133 0.0
O119 O 0.75092 0.13294 0.38913 0.0
O120 O 0.70814 0.19255 0.41391 0.0
C121 C 0.6972 0.13524 0.40114 0.0
O122 O 0.96597 0.22153 0.39682 0.0
O123 O -0.01276 0.17276 0.35704 0.0
C124 C 0.91155 0.23302 0.44861 0.0
C125 C 0.00592 0.20253 0.38254 0.0
Zn126 Zn 0.17204 0.42268 0.59612 0.0
Zn127 Zn 0.97124 0.21205 0.69616 0.0
Zn128 Zn 0.07735 0.34844 0.6256 0.0
C129 C 0.06847 0.35574 0.69141 0.0
C130 C 0.10673 0.23403 0.67057 0.0
O131 O 0.03966 0.28769 0.58413 0.0
O132 O 0.12371 0.37846 0.55734 0.0
C133 C 0.10852 0.49259 0.63169 0.0
O134 O 0.11441 0.36262 0.67098 0.0
O135 O 0.00148 0.31794 0.68446 0.0
O136 O 0.06175 0.19891 0.69188 0.0
O137 O 0.09562 0.2761 0.65411 0.0
O138 O 0.16481 0.5027 0.61761 0.0
O139 O 0.05357 0.42899 0.63437 0.0
O140 O 0.17556 0.36918 0.64932 0.0
O141 O 0.24876 0.40489 0.61001 0.0
C142 C 0.23811 0.38909 0.63758 0.0
O143 O -0.015 0.24847 0.611 0.0
O144 O 0.95301 0.25217 0.65709 0.0
C145 C 0.06809 0.31534 0.55849 0.0
C146 C 0.93951 0.21706 0.63253 0.0
Zn147 Zn 0.2483 0.79839 0.91262 0.0
Zn148 Zn 0.14082 0.90267 0.83896 0.0
Zn149 Zn 0.19368 0.85154 0.87743 0.0
C150 C 0.23483 0.88353 0.8048 0.0
C151 C 0.02502 0.77363 0.86441 0.0
O152 O 0.2279 0.91932 0.91906 0.0
O153 O 0.25211 0.85236 0.94865 0.0
C154 C 0.33848 0.85127 0.86198 0.0
O155 O 0.24818 0.87001 0.83143 0.0
O156 O 0.1843 0.89619 0.80088 0.0
O157 O 0.03714 0.82676 0.84818 0.0
O158 O 0.07819 0.77109 0.87609 0.0
O159 O 0.3382 0.83046 0.88846 0.0
O160 O 0.28559 0.8576 0.85265 0.0
O161 O 0.10951 0.73441 0.88847 0.0
O162 O 0.17109 0.6953 0.91338 0.0
C163 C 0.11219 0.68267 0.90182 0.0
O164 O 0.20818 0.9538 0.89765 0.0
O165 O 0.18489 0.00035 0.8583 0.0
C166 C 0.2434 0.90541 0.94516 0.0
C167 C 0.20649 0.00674 0.88505 0.0
Zn168 Zn 0.54268 0.69067 0.60319 0.0
Zn169 Zn 0.73326 0.76719 0.66391 0.0
Zn170 Zn 0.64378 0.74478 0.63075 0.0
C171 C 0.62887 0.70164 0.70178 0.0
C172 C 0.75881 0.902 0.64252 0.0
O173 O 0.66887 0.71575 0.58569 0.0
O174 O 0.58282 0.72341 0.5626 0.0
C175 C 0.51106 0.58606 0.64032 0.0
O176 O 0.59968 0.68786 0.67552 0.0
O177 O 0.69578 0.74674 0.7046 0.0
O178 O 0.79071 0.87118 0.65278 0.0
O179 O 0.69106 0.86289 0.63566 0.0
O180 O 0.50565 0.58617 0.61216 0.0
O181 O 0.55457 0.64645 0.65361 0.0
O182 O 0.61466 0.82976 0.62691 0.0
O183 O 0.49972 0.74242 0.62453 0.0
C184 C 0.54638 0.80871 0.62858 0.0
O185 O 0.7275 0.72833 0.60657 0.0
O186 O 0.76255 0.70049 0.64773 0.0
C187 C 0.63911 0.71892 0.56119 0.0
C188 C 0.765 0.70486 0.61948 0.0
Zn189 Zn 0.03567 0.19912 0.85736 0.0
Zn190 Zn 0.13517 0.42959 0.88426 0.0
Zn191 Zn 0.06876 0.30398 0.88526 0.0
C192 C 0.23466 0.3881 0.88117 0.0
C193 C 0.00374 0.3989 0.88151 0.0
O194 O 0.9569 0.24237 0.90115 0.0
O195 O 0.93088 0.15803 0.86708 0.0
C196 C 0.12707 0.19912 0.90215 0.0
O197 O 0.18317 0.33945 0.8979 0.0
O198 O 0.22143 0.42888 0.86559 0.0
O199 O 0.05053 0.4212 0.86049 0.0
O200 O 0.00225 0.35151 0.89944 0.0
O201 O 0.08602 0.16073 0.88109 0.0
O202 O 0.13377 0.26137 0.9081 0.0
O203 O 0.09176 0.33707 0.83888 0.0
O204 O 0.07247 0.23811 0.81618 0.0
C205 C 0.09191 0.30423 0.81505 0.0
O206 O 0.13004 0.32255 0.9258 0.0
O207 O 0.12347 0.42021 0.93119 0.0
C208 C 0.91053 0.18335 0.88825 0.0
C209 C 0.12507 0.36781 0.94332 0.0
Zn210 Zn 0.24574 0.88766 0.5774 0.0
Zn211 Zn 0.14163 0.90876 0.6607 0.0
Zn212 Zn 0.2169 0.92554 0.62107 0.0
C213 C 0.25038 0.90198 0.68872 0.0
C214 C 0.05074 0.80905 0.62006 0.0
O215 O 0.26282 0.01826 0.59019 0.0
O216 O 0.20536 0.93846 0.55473 0.0
C217 C 0.36153 0.92326 0.61451 0.0
O218 O 0.26652 0.90011 0.6607 0.0
O219 O 0.1964 0.90791 0.69545 0.0
O220 O 0.05321 0.81646 0.64826 0.0
O221 O 0.10696 0.85154 0.6043 0.0
O222 O 0.35517 0.93433 0.58707 0.0
O223 O 0.30666 0.90566 0.6323 0.0
O224 O 0.22708 0.83522 0.63615 0.0
O225 O 0.18008 0.78662 0.59238 0.0
C226 C 0.18767 0.77852 0.61996 0.0
O227 O 0.24705 0.03794 0.62609 0.0
O228 O 0.14949 0.00392 0.65434 0.0
C229 C 0.23468 0.00311 0.56386 0.0
C230 C 0.20499 0.05337 0.64072 0.0
Zn231 Zn 0.53262 0.73954 0.916 0.0
Zn232 Zn 0.73386 0.80823 0.85992 0.0
Zn233 Zn 0.63277 0.74277 0.88799 0.0
C234 C 0.62775 0.71666 0.82172 0.0
C235 C 0.71417 0.90726 0.88867 0.0
O236 O 0.67303 0.80285 0.93062 0.0
O237 O 0.57115 0.74872 0.95708 0.0
C238 C 0.50632 0.60005 0.89991 0.0
O239 O 0.59606 0.7346 0.84172 0.0
O240 O 0.69342 0.73539 0.82562 0.0
O241 O 0.72447 0.89649 0.86155 0.0
O242 O 0.69154 0.85428 0.90733 0.0
O243 O 0.47591 0.63728 0.9002 0.0
O244 O 0.57554 0.63166 0.90125 0.0
O245 O 0.5727 0.77249 0.85667 0.0
O246 O 0.54284 0.82352 0.89259 0.0
C247 C 0.55067 0.81557 0.86488 0.0
O248 O 0.69188 0.68536 0.88437 0.0
O249 O 0.7871 0.7918 0.89288 0.0
C250 C 0.63971 0.78223 0.95625 0.0
C251 C 0.75826 0.72377 0.89257 0.0
C252 C 0.12732 0.23317 0.10431 0.0
C253 C 0.12905 0.28173 0.12614 0.0
C254 C 0.16545 0.19705 0.10878 0.0
C255 C 0.20642 0.20938 0.13494 0.0
H256 H 0.08867 0.21526 0.08609 0.0
H257 H 0.15602 0.15353 0.09357 0.0
S258 S 0.24753 0.34867 0.19305 0.0
N259 N 0.19027 0.35414 0.17026 0.0
N260 N 0.26046 0.28496 0.17885 0.0
C261 C 0.21814 0.26624 0.15403 0.0
C262 C 0.18034 0.30357 0.14932 0.0
C263 C 0.11024 0.8329 0.41678 0.0
C264 C 0.1646 0.86152 0.39413 0.0
C265 C 0.03621 0.78948 0.40934 0.0
C266 C 0.01544 0.77238 0.37919 0.0
H267 H 0.12356 0.85476 0.43938 0.0
H268 H -0.00461 0.77707 0.42666 0.0
S269 S 0.13856 0.80822 0.31396 0.0
N270 N 0.19389 0.84953 0.34239 0.0
N271 N 0.05509 0.76907 0.32814 0.0
C272 C 0.06985 0.78798 0.35755 0.0
C273 C 0.1449 0.83082 0.36532 0.0
C274 C 0.81055 0.98378 0.0966 0.0
C275 C 0.78687 0.02094 0.11509 0.0
C276 C 0.7736 0.90788 0.09658 0.0
C277 C 0.71291 0.86737 0.11559 0.0
H278 H 0.86197 0.01351 0.08452 0.0
H279 H 0.79898 0.8819 0.08502 0.0
S280 S 0.62109 0.93934 0.16312 0.0
N281 N 0.69284 0.01223 0.14884 0.0
N282 N 0.62267 0.86923 0.14862 0.0
C283 C 0.68284 0.90378 0.13064 0.0
C284 C 0.7205 0.98103 0.13066 0.0
C285 C 0.14026 0.16445 0.41636 0.0
C286 C 0.19231 0.19027 0.39286 0.0
C287 C 0.08246 0.17785 0.41621 0.0
C288 C 0.07749 0.2194 0.39318 0.0
H289 H 0.13882 0.1265 0.43262 0.0
H290 H 0.03764 0.14899 0.43198 0.0
S291 S 0.20848 0.31261 0.33089 0.0
N292 N 0.23947 0.26674 0.34835 0.0
N293 N 0.13626 0.29819 0.35044 0.0
C294 C 0.13568 0.25509 0.3728 0.0
C295 C 0.19175 0.23859 0.37189 0.0
C296 C 0.07369 0.86592 0.10219 0.0
C297 C 0.12104 0.88077 0.12633 0.0
C298 C -0.00222 0.82278 0.10653 0.0
C299 C 0.96809 0.79386 0.13502 0.0
H300 H 0.09468 0.8936 0.08092 0.0
H301 H 0.96224 0.81722 0.08828 0.0
S302 S 0.06984 0.80481 0.20331 0.0
N303 N 0.13355 0.85344 0.17801 0.0
N304 N -0.00874 0.77347 0.1861 0.0
C305 C 0.01509 0.80183 0.1582 0.0
C306 C 0.09177 0.84488 0.15378 0.0
C307 C 0.68508 0.84956 0.34961 0.0
C308 C 0.71336 0.83628 0.37562 0.0
C309 C 0.68905 0.91587 0.34563 0.0
C310 C 0.72046 0.96978 0.36776 0.0
H311 H 0.66914 0.81288 0.33059 0.0
H312 H 0.67807 0.92888 0.32357 0.0
S313 S 0.77094 0.94903 0.44452 0.0
N314 N 0.75139 0.87303 0.42712 0.0
N315 N 0.75573 -0.00327 0.42002 0.0
C316 C 0.73178 0.95022 0.3963 0.0
C317 C 0.72955 0.88335 0.40014 0.0
C318 C 0.22291 0.15092 0.67431 0.0
C319 C 0.2195 0.12745 0.64445 0.0
C320 C 0.19259 0.19267 0.68259 0.0
C321 C 0.16119 0.21498 0.661 0.0
H322 H 0.23911 0.12797 0.69202 0.0
H323 H 0.18749 0.20146 0.70627 0.0
S324 S 0.15982 0.18662 0.57855 0.0
N325 N 0.19561 0.14111 0.59253 0.0
N326 N 0.14512 0.22599 0.60754 0.0
C327 C 0.17045 0.20368 0.63037 0.0
C328 C 0.19841 0.15828 0.62213 0.0
C329 C 0.89252 0.69062 0.85599 0.0
C330 C 0.95065 0.72682 0.87607 0.0
C331 C 0.82209 0.67431 0.86418 0.0
C332 C 0.80929 0.69728 0.89207 0.0
H333 H 0.90306 0.68191 0.83292 0.0
H334 H 0.78083 0.6543 0.84695 0.0
S335 S 0.94171 0.78335 0.95393 0.0
N336 N -0.01155 0.77305 0.92658 0.0
N337 N 0.85821 0.74859 0.94109 0.0
C338 C 0.86505 0.72495 0.91351 0.0
C339 C 0.93565 0.73862 0.90562 0.0
C340 C 0.77191 0.02581 0.63725 0.0
C341 C 0.8031 0.98203 0.63788 0.0
C342 C 0.81624 0.10216 0.63519 0.0
C343 C 0.89276 0.13677 0.63277 0.0
H344 H 0.7134 0.00128 0.63928 0.0
H345 H 0.79059 0.13432 0.63562 0.0
S346 S 0.00082 0.04689 0.63171 0.0
N347 N 0.91574 0.97994 0.63523 0.0
N348 N -0.00335 0.12117 0.62984 0.0
C349 C 0.92383 0.09338 0.63226 0.0
C350 C 0.87963 0.01663 0.63518 0.0
C351 C 0.23636 0.19219 0.89462 0.0
C352 C 0.1768 0.17651 0.91354 0.0
C353 C 0.2547 0.13929 0.88849 0.0
C354 C 0.21613 0.07044 0.90213 0.0
H355 H 0.26048 0.24021 0.88059 0.0
H356 H 0.29294 0.14912 0.87034 0.0
S357 S 0.07385 0.01294 0.96111 0.0
N358 N 0.09186 0.09432 0.95103 0.0
N359 N 0.12964 -0.00289 0.94107 0.0
C360 C 0.16722 0.06022 0.92548 0.0
C361 C 0.14697 0.11311 0.93097 0.0
C362 C 0.93021 0.69582 0.62205 0.0
C363 C 0.97885 0.76002 0.60665 0.0
C364 C 0.85488 0.66603 0.62023 0.0
C365 C 0.82629 0.70254 0.60464 0.0
H366 H 0.95049 0.67335 0.63829 0.0
H367 H 0.82019 0.62174 0.63529 0.0
S368 S 0.93008 0.8568 0.55255 0.0
N369 N -0.00718 0.84533 0.56816 0.0
N370 N 0.8511 0.79315 0.56673 0.0
C371 C 0.87338 0.75798 0.58475 0.0
C372 C 0.95023 0.78649 0.5856 0.0
C373 C 0.78235 0.10383 0.87745 0.0
C374 C 0.83597 0.13462 0.89972 0.0
C375 C 0.73513 0.0286 0.87596 0.0
C376 C 0.73704 0.98246 0.89773 0.0
H377 H 0.7863 0.13576 0.858 0.0
H378 H 0.70364 0.00613 0.85572 0.0
S379 S 0.84278 0.04114 0.96801 0.0
N380 N 0.87159 0.11715 0.94904 0.0
N381 N 0.77933 0.97549 0.94724 0.0
C382 C 0.778 0.01448 0.92369 0.0
C383 C 0.82768 0.09127 0.92472 0.0
C384 C 0.36727 0.02206 0.27468 0.0
C385 C 0.37676 0.0841 0.28984 0.0
C386 C 0.37014 0.0198 0.24315 0.0
C387 C 0.38171 0.07922 0.22586 0.0
H388 H 0.3498 0.97243 0.28705 0.0
H389 H 0.35251 0.96807 0.23237 0.0
S390 S 0.42423 0.2587 0.25487 0.0
N391 N 0.41101 0.21009 0.2854 0.0
N392 N 0.41515 0.20536 0.22626 0.0
C393 C 0.40238 0.14473 0.24095 0.0
C394 C 0.39968 0.14721 0.27302 0.0
C395 C 0.71518 0.55538 0.26378 0.0
C396 C 0.68574 0.58046 0.28578 0.0
C397 C 0.69891 0.55515 0.23341 0.0
C398 C 0.65446 0.58186 0.22446 0.0
H399 H 0.75852 0.54579 0.26954 0.0
H400 H 0.73107 0.54632 0.2168 0.0
S401 S 0.5446 0.62794 0.27419 0.0
N402 N 0.59405 0.61165 0.29743 0.0
N403 N 0.56568 0.6137 0.23998 0.0
C404 C 0.61382 0.59269 0.24655 0.0
C405 C 0.62927 0.59168 0.27756 0.0
C406 C 0.83946 0.29641 0.23817 0.0
C407 C 0.90236 0.31998 0.22029 0.0
C408 C 0.84271 0.29472 0.26968 0.0
C409 C 0.90861 0.31462 0.28399 0.0
H410 H 0.78643 0.27064 0.2277 0.0
H411 H 0.79194 0.26722 0.28233 0.0
S412 S 0.09012 0.3931 0.2475 0.0
N413 N 0.03376 0.37571 0.21938 0.0
N414 N 0.03946 0.37015 0.2784 0.0
C415 C 0.97298 0.34819 0.26661 0.0
C416 C 0.9699 0.3512 0.23466 0.0
C417 C 0.038 0.35882 0.74518 0.0
C418 C 0.08676 0.35888 0.7236 0.0
C419 C 0.04464 0.34843 0.7757 0.0
C420 C 0.09995 0.33724 0.78557 0.0
H421 H -0.00793 0.36314 0.73824 0.0
H422 H 0.00305 0.34363 0.79129 0.0
S423 S 0.24976 0.34642 0.73984 0.0
N424 N 0.19899 0.3577 0.71545 0.0
N425 N 0.2098 0.33653 0.7729 0.0
C426 C 0.15257 0.34329 0.76493 0.0
C427 C 0.14659 0.35485 0.73385 0.0
C428 C 0.2404 0.81859 0.76 0.0
C429 C 0.27445 0.88156 0.77782 0.0
C430 C 0.24717 0.82305 0.7285 0.0
C431 C 0.28697 0.89076 0.71405 0.0
H432 H 0.20023 0.7673 0.77 0.0
H433 H 0.21115 0.77511 0.71551 0.0
S434 S 0.40405 0.06778 0.75121 0.0
N435 N 0.36334 0.01041 0.7793 0.0
N436 N 0.37552 0.0188 0.72012 0.0
C437 C 0.33187 0.95155 0.73188 0.0
C438 C 0.32513 0.94708 0.76391 0.0
C439 C 0.56229 0.71295 0.74407 0.0
C440 C 0.58643 0.67099 0.72936 0.0
C441 C 0.56701 0.72113 0.77539 0.0
C442 C 0.59466 0.68634 0.7925 0.0
H443 H 0.55083 0.74836 0.73116 0.0
H444 H 0.55829 0.76194 0.78556 0.0
S445 S 0.64183 0.55252 0.76519 0.0
N446 N 0.62186 0.58122 0.73448 0.0
N447 N 0.62935 0.59526 0.7935 0.0
C448 C 0.60666 0.63473 0.77848 0.0
C449 C 0.60212 0.62675 0.7467 0.0
C450 C 0.21778 0.90954 0.99921 0.0
C451 C 0.24837 0.94747 0.97221 0.0
C452 C 0.23375 0.94548 0.02689 0.0
C453 C 0.2813 0.02086 0.02861 0.0
H454 H 0.18382 0.85089 0.99909 0.0
H455 H 0.21166 0.91327 0.04709 0.0
S456 S 0.36856 0.14605 0.96373 0.0
N457 N 0.32333 0.06455 0.9484 0.0
N458 N 0.35233 0.13346 1.00024 0.0
C459 C 0.30771 0.06017 1.0014 0.0
C460 C 0.29151 0.02315 0.9732 0.0
C461 C 0.61444 0.62363 0.48765 0.0
C462 C 0.67198 0.67581 0.46954 0.0
C463 C 0.60802 0.63669 0.51801 0.0
C464 C 0.65819 0.70268 0.53157 0.0
H465 H 0.57351 0.5719 0.47837 0.0
H466 H 0.56179 0.5956 0.53079 0.0
S467 S 0.81956 0.85671 0.49525 0.0
N468 N 0.78363 0.79436 0.46863 0.0
N469 N 0.76588 0.82164 0.52504 0.0
C470 C 0.71596 0.75539 0.51415 0.0
C471 C 0.72425 0.74125 0.48331 0.0
C472 C 0.10423 0.40516 0.99402 0.0
C473 C 0.10515 0.35175 0.97577 0.0
C474 C 0.06736 0.38751 0.02181 0.0
C475 C 0.03048 0.31598 0.03257 0.0
H476 H 0.12797 0.46024 0.98591 0.0
H477 H 0.06363 0.42926 0.03404 0.0
S478 S 0.02249 0.15746 0.99604 0.0
N479 N 0.07077 0.22486 0.97235 0.0
N480 N 0.00157 0.19271 0.02469 0.0
C481 C 0.03509 0.2631 0.01589 0.0
C482 C 0.07274 0.28081 0.98752 0.0
C483 C 0.22468 0.06808 0.48789 0.0
C484 C 0.29707 0.12449 0.48386 0.0
C485 C 0.20011 0.03545 0.51614 0.0
C486 C 0.24737 0.05808 0.54099 0.0
H487 H 0.18985 0.04309 0.46864 0.0
H488 H 0.14673 0.98665 0.51759 0.0
S489 S 0.43291 0.22012 0.54381 0.0
N490 N 0.40882 0.21439 0.5083 0.0
N491 N 0.3626 0.15222 0.56136 0.0
C492 C 0.315 0.12246 0.53831 0.0
C493 C 0.34003 0.1558 0.50957 0.0
C494 C 0.69013 0.77599 0.03636 0.0
C495 C 0.70777 0.72132 0.03513 0.0
C496 C 0.67447 0.80125 0.01018 0.0
C497 C 0.67592 0.77257 0.98195 0.0
H498 H 0.68421 0.79656 0.05773 0.0
H499 H 0.65718 0.84037 0.0122 0.0
S500 S 0.70723 0.6212 0.96656 0.0
N501 N 0.72081 0.63636 1.00294 0.0
N502 N 0.68861 0.68202 0.95443 0.0
C503 C 0.6934 0.71819 0.9803 0.0
C504 C 0.70998 0.69293 0.00672 0.0
C505 C 0.95774 0.22871 0.52954 0.0
C506 C 0.03281 0.27932 0.52998 0.0
C507 C 0.91995 0.20871 0.50239 0.0
C508 C 0.95584 0.23843 0.47476 0.0
H509 H 0.92693 0.20861 0.55033 0.0
H510 H 0.86124 0.17331 0.50328 0.0
S511 S 0.15457 0.36111 0.4634 0.0
N512 N 0.14394 0.34886 0.50013 0.0
N513 N 0.07208 0.31277 0.44921 0.0
C514 C 0.03191 0.28297 0.47461 0.0
C515 C 0.07059 0.30313 0.50226 0.0
C516 C 0.63201 0.09028 0.11059 0.0
C517 C 0.6769 0.15941 0.12286 0.0
C518 C 0.5574 0.05038 0.11773 0.0
C519 C 0.52528 0.07903 0.13697 0.0
H520 H 0.65364 0.069 0.09399 0.0
H521 H 0.52335 0.00035 0.10558 0.0
S522 S 0.62571 0.2477 0.18187 0.0
N523 N 0.68877 0.24751 0.1602 0.0
N524 N 0.5483 0.17292 0.17357 0.0
C525 C 0.57201 0.14338 0.15258 0.0
C526 C 0.64789 0.18405 0.14519 0.0
C527 C 0.5611 0.42568 0.33985 0.0
C528 C 0.54586 0.46826 0.35932 0.0
C529 C 0.51112 0.35094 0.33696 0.0
C530 C 0.44568 0.3181 0.3536 0.0
H531 H 0.61554 0.44723 0.33067 0.0
H532 H 0.52915 0.31768 0.32599 0.0
S533 S 0.37289 0.41173 0.39946 0.0
N534 N 0.45407 0.47712 0.38811 0.0
N535 N 0.3622 0.33663 0.38433 0.0
C536 C 0.42488 0.36312 0.36804 0.0
C537 C 0.47499 0.43878 0.3706 0.0
C538 C 0.853 0.44801 0.15484 0.0
C539 C 0.91872 0.47393 0.1387 0.0
C540 C 0.81272 0.48226 0.15234 0.0
C541 C 0.83843 0.54492 0.13471 0.0
H542 H 0.8277 0.39598 0.16611 0.0
H543 H 0.75884 0.4567 0.16252 0.0
S544 S 0.01685 0.64543 0.09541 0.0
N545 N 0.0146 0.57366 0.10972 0.0
N546 N 0.93972 0.63944 0.10599 0.0
C547 C 0.90904 0.57755 0.1225 0.0
C548 C 0.94944 0.54192 0.12452 0.0
C549 C 0.50028 0.01035 0.42044 0.0
C550 C 0.46972 0.00475 0.39202 0.0
C551 C 0.57627 0.04835 0.42357 0.0
C552 C 0.62216 0.0737 0.39813 0.0
H553 H 0.46736 0.00093 0.44052 0.0
H554 H 0.59902 0.06393 0.44589 0.0
S555 S 0.5646 0.03599 0.31877 0.0
N556 N 0.48766 0.00171 0.33828 0.0
N557 N 0.63054 0.06843 0.34376 0.0
C558 C 0.59086 0.05046 0.3697 0.0
C559 C 0.51363 0.01391 0.36675 0.0
C560 C 0.40566 0.34618 0.12087 0.0
C561 C 0.42901 0.30631 0.13702 0.0
C562 C 0.44371 0.42204 0.12302 0.0
C563 C 0.50569 0.45923 0.14137 0.0
H564 H 0.36364 0.31977 0.10409 0.0
H565 H 0.43053 0.45184 0.10738 0.0
S566 S 0.56961 0.37559 0.19601 0.0
N567 N 0.50411 0.30651 0.17737 0.0
N568 N 0.57408 0.44864 0.18216 0.0
C569 C 0.51975 0.41847 0.16171 0.0
C570 C 0.48215 0.3417 0.15907 0.0
C571 C 0.82236 0.47771 0.34964 0.0
C572 C 0.85667 0.5353 0.37024 0.0
C573 C 0.84568 0.42822 0.34614 0.0
C574 C 0.90189 0.43436 0.36409 0.0
H575 H 0.77203 0.46578 0.33907 0.0
H576 H 0.81155 0.37885 0.33359 0.0
S577 S 0.02568 0.59053 0.41192 0.0
N578 N 0.96242 0.6078 0.40147 0.0
N579 N 0.00542 0.51339 0.39535 0.0
C580 C 0.94563 0.49963 0.37964 0.0
C581 C 0.92255 0.55057 0.38292 0.0
C582 C 0.18666 0.68461 0.65287 0.0
C583 C 0.15193 0.70424 0.63174 0.0
C584 C 0.16438 0.61142 0.65672 0.0
C585 C 0.10598 0.5568 0.64015 0.0
H586 H 0.23564 0.72574 0.66387 0.0
H587 H 0.19772 0.59814 0.67018 0.0
S588 S -0.01252 0.57969 0.58757 0.0
N589 N 0.04939 0.66282 0.59782 0.0
N590 N 0.00605 0.52566 0.60652 0.0
C591 C 0.0643 0.57516 0.62269 0.0
C592 C 0.088 0.64924 0.61799 0.0
C593 C 0.46753 0.92073 0.84932 0.0
C594 C 0.3982 0.86263 0.84202 0.0
C595 C 0.52687 0.91054 0.85018 0.0
C596 C 0.51734 0.84202 0.84389 0.0
H597 H 0.47322 0.96924 0.85957 0.0
H598 H 0.57578 0.95164 0.86119 0.0
S599 S 0.35365 0.68452 0.81139 0.0
N600 N 0.32884 0.74417 0.81875 0.0
N601 N 0.44032 0.72429 0.82074 0.0
C602 C 0.45316 0.79041 0.82957 0.0
C603 C 0.39288 0.80101 0.82859 0.0
C604 C 0.43018 0.45381 0.64554 0.0
C605 C 0.45275 0.5235 0.65674 0.0
C606 C 0.35618 0.39985 0.64542 0.0
C607 C 0.30341 0.41517 0.65594 0.0
H608 H 0.46805 0.44445 0.6328 0.0
H609 H 0.33963 0.35089 0.63253 0.0
S610 S 0.33799 0.58149 0.69599 0.0
N611 N 0.41968 0.59796 0.68606 0.0
N612 N 0.28018 0.49813 0.68444 0.0
C613 C 0.32689 0.47925 0.67253 0.0
C614 C 0.40236 0.53352 0.67323 0.0
C615 C 0.04405 0.55952 0.92487 0.0
C616 C 0.051 0.60603 0.90121 0.0
C617 C 0.0106 0.48427 0.92048 0.0
C618 C -0.01434 0.45364 0.8919 0.0
H619 H 0.07159 0.58216 0.94593 0.0
H620 H 0.0153 0.45251 0.9381 0.0
S621 S 0.96896 0.5483 0.8259 0.0
N622 N 0.01262 0.6133 0.85095 0.0
N623 N 0.95115 0.47228 0.84245 0.0
C624 C 0.97955 0.49754 0.8701 0.0
C625 C 0.01292 0.57409 0.87467 0.0
C626 C 0.411 0.86462 0.64723 0.0
C627 C 0.42246 0.91299 0.62374 0.0
C628 C 0.45741 0.83728 0.65097 0.0
C629 C 0.51821 0.85852 0.63195 0.0
H630 H 0.36236 0.84254 0.66116 0.0
H631 H 0.44224 0.79471 0.66738 0.0
S632 S 0.58186 -0.00399 0.57154 0.0
N633 N 0.50615 -0.01 0.58435 0.0
N634 N 0.59373 0.93911 0.5919 0.0
C635 C 0.53531 0.91322 0.61081 0.0
C636 C 0.48731 0.94032 0.60658 0.0
C637 C 0.41309 0.48076 0.91931 0.0
C638 C 0.45882 0.52166 0.89522 0.0
C639 C 0.34048 0.42569 0.91432 0.0
C640 C 0.31198 0.41124 0.88512 0.0
H641 H 0.42997 0.49833 0.94221 0.0
H642 H 0.30431 0.40241 0.93359 0.0
S643 S 0.41566 0.48911 0.8143 0.0
N644 N 0.47558 0.5325 0.84112 0.0
N645 N 0.33917 0.42996 0.83164 0.0
C646 C 0.36074 0.44301 0.86078 0.0
C647 C 0.43457 0.49818 0.86588 0.0
loop_
_geom_bond_atom_site_label_1
_geom_bond_atom_site_label_2
_geom_bond_distance
_geom_bond_site_symmetry_2
_ccdc_geom_bond_type
Zn0 O6 1.920 1_545 S
Zn0 O12 1.898 . S
Zn0 O15 1.905 . S
Zn1 O9 1.905 . S
Zn1 O10 1.898 . S
Zn1 O18 1.920 . S
Zn2 O5 2.080 1_545 S
Zn2 O8 2.114 . S
Zn2 O11 2.120 . S
Zn2 O13 2.120 . S
Zn2 O14 2.114 . S
Zn2 O17 2.080 . S
C3 O8 1.166 . S
C3 O9 1.182 . S
C4 O10 1.167 . S
C4 O11 1.299 . S
O5 Zn2 2.080 1_565 S
O5 C19 1.305 . S
O6 Zn0 1.920 1_565 S
O6 C19 1.234 . S
C7 O12 1.167 . S
C7 O13 1.299 . S
O8 Zn2 2.114 . S
O8 C3 1.166 . S
O9 Zn1 1.905 . S
O9 C3 1.182 . S
O10 Zn1 1.898 . S
O10 C4 1.167 . S
O11 Zn2 2.120 . S
O11 C4 1.299 . S
O12 Zn0 1.898 . S
O12 C7 1.167 . S
O13 Zn2 2.120 . S
O13 C7 1.299 . S
O14 Zn2 2.114 . S
O14 C16 1.166 . S
O15 Zn0 1.905 . S
O15 C16 1.182 . S
C16 O14 1.166 . S
C16 O15 1.182 . S
O17 Zn2 2.080 . S
O17 C20 1.305 . S
O18 Zn1 1.920 . S
O18 C20 1.234 . S
C19 O5 1.305 . S
C19 O6 1.234 . S
C20 O17 1.305 . S
C20 O18 1.234 . S
Zn21 O27 1.920 . S
Zn21 O33 1.898 . S
Zn21 O36 1.905 . S
Zn22 O30 1.905 . S
Zn22 O31 1.898 . S
Zn22 O39 1.920 . S
Zn23 O26 2.080 . S
Zn23 O29 2.114 . S
Zn23 O32 2.120 . S
Zn23 O34 2.120 . S
Zn23 O35 2.114 . S
Zn23 O38 2.080 . S
C24 O29 1.166 . S
C24 O30 1.182 . S
C25 O31 1.167 . S
C25 O32 1.299 . S
O26 Zn23 2.080 . S
O26 C40 1.305 . S
O27 Zn21 1.920 . S
O27 C40 1.234 . S
C28 O33 1.167 . S
C28 O34 1.299 . S
O29 Zn23 2.114 . S
O29 C24 1.166 . S
O30 Zn22 1.905 . S
O30 C24 1.182 . S
O31 Zn22 1.898 . S
O31 C25 1.167 . S
O32 Zn23 2.120 . S
O32 C25 1.299 . S
O33 Zn21 1.898 . S
O33 C28 1.167 . S
O34 Zn23 2.120 . S
O34 C28 1.299 . S
O35 Zn23 2.114 . S
O35 C37 1.166 . S
O36 Zn21 1.905 . S
O36 C37 1.182 . S
C37 O35 1.166 . S
C37 O36 1.182 . S
O38 Zn23 2.080 . S
O38 C41 1.305 . S
O39 Zn22 1.920 . S
O39 C41 1.234 . S
C40 O26 1.305 . S
C40 O27 1.234 . S
C41 O38 1.305 . S
C41 O39 1.234 . S
Zn42 O48 1.920 1_655 S
Zn42 O54 1.898 . S
Zn42 O57 1.905 . S
Zn43 O51 1.905 . S
Zn43 O52 1.898 . S
Zn43 O60 1.920 . S
Zn44 O47 2.080 1_655 S
Zn44 O50 2.114 . S
Zn44 O53 2.120 . S
Zn44 O55 2.120 . S
Zn44 O56 2.114 . S
Zn44 O59 2.080 . S
C45 O50 1.166 . S
C45 O51 1.182 . S
C46 O52 1.167 . S
C46 O53 1.299 . S
O47 Zn44 2.080 1_455 S
O47 C61 1.305 . S
O48 Zn42 1.920 1_455 S
O48 C61 1.234 . S
C49 O54 1.167 . S
C49 O55 1.299 . S
O50 Zn44 2.114 . S
O50 C45 1.166 . S
O51 Zn43 1.905 . S
O51 C45 1.182 . S
O52 Zn43 1.898 . S
O52 C46 1.167 . S
O53 Zn44 2.120 . S
O53 C46 1.299 . S
O54 Zn42 1.898 . S
O54 C49 1.167 . S
O55 Zn44 2.120 . S
O55 C49 1.299 . S
O56 Zn44 2.114 . S
O56 C58 1.166 . S
O57 Zn42 1.905 . S
O57 C58 1.182 . S
C58 O56 1.166 . S
C58 O57 1.182 . S
O59 Zn44 2.080 . S
O59 C62 1.305 . S
O60 Zn43 1.920 . S
O60 C62 1.234 . S
C61 O47 1.305 . S
C61 O48 1.234 . S
C62 O59 1.305 . S
C62 O60 1.234 . S
Zn63 O69 1.920 . S
Zn63 O75 1.898 . S
Zn63 O78 1.905 . S
Zn64 O72 1.905 . S
Zn64 O73 1.898 . S
Zn64 O81 1.920 1_545 S
Zn65 O68 2.080 . S
Zn65 O71 2.114 . S
Zn65 O74 2.120 . S
Zn65 O76 2.120 . S
Zn65 O77 2.114 . S
Zn65 O80 2.080 1_545 S
C66 O71 1.166 . S
C66 O72 1.182 . S
C67 O73 1.167 . S
C67 O74 1.299 . S
O68 Zn65 2.080 . S
O68 C82 1.305 . S
O69 Zn63 1.920 . S
O69 C82 1.234 . S
C70 O75 1.167 . S
C70 O76 1.299 . S
O71 Zn65 2.114 . S
O71 C66 1.166 . S
O72 Zn64 1.905 . S
O72 C66 1.182 . S
O73 Zn64 1.898 . S
O73 C67 1.167 . S
O74 Zn65 2.120 . S
O74 C67 1.299 . S
O75 Zn63 1.898 . S
O75 C70 1.167 . S
O76 Zn65 2.120 . S
O76 C70 1.299 . S
O77 Zn65 2.114 . S
O77 C79 1.166 . S
O78 Zn63 1.905 . S
O78 C79 1.182 . S
C79 O77 1.166 . S
C79 O78 1.182 . S
O80 Zn65 2.080 1_565 S
O80 C83 1.305 . S
O81 Zn64 1.920 1_565 S
O81 C83 1.234 . S
C82 O68 1.305 . S
C82 O69 1.234 . S
C83 O80 1.305 . S
C83 O81 1.234 . S
Zn84 O90 1.920 . S
Zn84 O96 1.898 . S
Zn84 O99 1.905 . S
Zn85 O93 1.905 . S
Zn85 O94 1.898 . S
Zn85 O102 1.920 . S
Zn86 O89 2.080 . S
Zn86 O92 2.114 . S
Zn86 O95 2.120 . S
Zn86 O97 2.120 . S
Zn86 O98 2.114 . S
Zn86 O101 2.080 . S
C87 O92 1.166 . S
C87 O93 1.182 . S
C88 O94 1.167 . S
C88 O95 1.299 . S
O89 Zn86 2.080 . S
O89 C103 1.305 . S
O90 Zn84 1.920 . S
O90 C103 1.234 . S
C91 O96 1.167 . S
C91 O97 1.299 . S
O92 Zn86 2.114 . S
O92 C87 1.166 . S
O93 Zn85 1.905 . S
O93 C87 1.182 . S
O94 Zn85 1.898 . S
O94 C88 1.167 . S
O95 Zn86 2.120 . S
O95 C88 1.299 . S
O96 Zn84 1.898 . S
O96 C91 1.167 . S
O97 Zn86 2.120 . S
O97 C91 1.299 . S
O98 Zn86 2.114 . S
O98 C100 1.166 . S
O99 Zn84 1.905 . S
O99 C100 1.182 . S
C100 O98 1.166 . S
C100 O99 1.182 . S
O101 Zn86 2.080 . S
O101 C104 1.305 . S
O102 Zn85 1.920 . S
O102 C104 1.234 . S
C103 O89 1.305 . S
C103 O90 1.234 . S
C104 O101 1.305 . S
C104 O102 1.234 . S
Zn105 O111 1.920 . S
Zn105 O117 1.898 . S
Zn105 O120 1.905 . S
Zn106 O114 1.905 . S
Zn106 O115 1.898 . S
Zn106 O123 1.920 1_655 S
Zn107 O110 2.080 . S
Zn107 O113 2.114 . S
Zn107 O116 2.120 . S
Zn107 O118 2.120 . S
Zn107 O119 2.114 . S
Zn107 O122 2.080 1_655 S
C108 O113 1.166 . S
C108 O114 1.182 . S
C109 O115 1.167 . S
C109 O116 1.299 . S
O110 Zn107 2.080 . S
O110 C124 1.305 . S
O111 Zn105 1.920 . S
O111 C124 1.234 . S
C112 O117 1.167 . S
C112 O118 1.299 . S
O113 Zn107 2.114 . S
O113 C108 1.166 . S
O114 Zn106 1.905 . S
O114 C108 1.182 . S
O115 Zn106 1.898 . S
O115 C109 1.167 . S
O116 Zn107 2.120 . S
O116 C109 1.299 . S
O117 Zn105 1.898 . S
O117 C112 1.167 . S
O118 Zn107 2.120 . S
O118 C112 1.299 . S
O119 Zn107 2.114 . S
O119 C121 1.166 . S
O120 Zn105 1.905 . S
O120 C121 1.182 . S
C121 O119 1.166 . S
C121 O120 1.182 . S
O122 Zn107 2.080 1_455 S
O122 C125 1.305 . S
O123 Zn106 1.920 1_455 S
O123 C125 1.234 . S
C124 O110 1.305 . S
C124 O111 1.234 . S
C125 O122 1.305 . S
C125 O123 1.234 . S
Zn126 O132 1.920 . S
Zn126 O138 1.898 . S
Zn126 O141 1.905 . S
Zn127 O135 1.905 . S
Zn127 O136 1.898 . S
Zn127 O144 1.920 1_455 S
Zn128 O131 2.080 . S
Zn128 O134 2.114 . S
Zn128 O137 2.120 . S
Zn128 O139 2.120 . S
Zn128 O140 2.114 . S
Zn128 O143 2.080 1_455 S
C129 O134 1.166 . S
C129 O135 1.182 . S
C130 O136 1.167 . S
C130 O137 1.299 . S
O131 Zn128 2.080 . S
O131 C145 1.305 . S
O132 Zn126 1.920 . S
O132 C145 1.234 . S
C133 O138 1.167 . S
C133 O139 1.299 . S
O134 Zn128 2.114 . S
O134 C129 1.166 . S
O135 Zn127 1.905 . S
O135 C129 1.182 . S
O136 Zn127 1.898 . S
O136 C130 1.167 . S
O137 Zn128 2.120 . S
O137 C130 1.299 . S
O138 Zn126 1.898 . S
O138 C133 1.167 . S
O139 Zn128 2.120 . S
O139 C133 1.299 . S
O140 Zn128 2.114 . S
O140 C142 1.166 . S
O141 Zn126 1.905 . S
O141 C142 1.182 . S
C142 O140 1.166 . S
C142 O141 1.182 . S
O143 Zn128 2.080 1_655 S
O143 C146 1.305 . S
O144 Zn127 1.920 1_655 S
O144 C146 1.234 . S
C145 O131 1.305 . S
C145 O132 1.234 . S
C146 O143 1.305 . S
C146 O144 1.234 . S
Zn147 O153 1.920 . S
Zn147 O159 1.898 . S
Zn147 O162 1.905 . S
Zn148 O156 1.905 . S
Zn148 O157 1.898 . S
Zn148 O165 1.920 1_565 S
Zn149 O152 2.080 . S
Zn149 O155 2.114 . S
Zn149 O158 2.120 . S
Zn149 O160 2.120 . S
Zn149 O161 2.114 . S
Zn149 O164 2.080 1_565 S
C150 O155 1.166 . S
C150 O156 1.182 . S
C151 O157 1.167 . S
C151 O158 1.299 . S
O152 Zn149 2.080 . S
O152 C166 1.305 . S
O153 Zn147 1.920 . S
O153 C166 1.234 . S
C154 O159 1.167 . S
C154 O160 1.299 . S
O155 Zn149 2.114 . S
O155 C150 1.166 . S
O156 Zn148 1.905 . S
O156 C150 1.182 . S
O157 Zn148 1.898 . S
O157 C151 1.167 . S
O158 Zn149 2.120 . S
O158 C151 1.299 . S
O159 Zn147 1.898 . S
O159 C154 1.167 . S
O160 Zn149 2.120 . S
O160 C154 1.299 . S
O161 Zn149 2.114 . S
O161 C163 1.166 . S
O162 Zn147 1.905 . S
O162 C163 1.182 . S
C163 O161 1.166 . S
C163 O162 1.182 . S
O164 Zn149 2.080 1_545 S
O164 C167 1.305 . S
O165 Zn148 1.920 1_545 S
O165 C167 1.234 . S
C166 O152 1.305 . S
C166 O153 1.234 . S
C167 O164 1.305 . S
C167 O165 1.234 . S
Zn168 O174 1.920 . S
Zn168 O180 1.898 . S
Zn168 O183 1.905 . S
Zn169 O177 1.905 . S
Zn169 O178 1.898 . S
Zn169 O186 1.920 . S
Zn170 O173 2.080 . S
Zn170 O176 2.114 . S
Zn170 O179 2.120 . S
Zn170 O181 2.120 . S
Zn170 O182 2.114 . S
Zn170 O185 2.080 . S
C171 O176 1.166 . S
C171 O177 1.182 . S
C172 O178 1.167 . S
C172 O179 1.299 . S
O173 Zn170 2.080 . S
O173 C187 1.305 . S
O174 Zn168 1.920 . S
O174 C187 1.234 . S
C175 O180 1.167 . S
C175 O181 1.299 . S
O176 Zn170 2.114 . S
O176 C171 1.166 . S
O177 Zn169 1.905 . S
O177 C171 1.182 . S
O178 Zn169 1.898 . S
O178 C172 1.167 . S
O179 Zn170 2.120 . S
O179 C172 1.299 . S
O180 Zn168 1.898 . S
O180 C175 1.167 . S
O181 Zn170 2.120 . S
O181 C175 1.299 . S
O182 Zn170 2.114 . S
O182 C184 1.166 . S
O183 Zn168 1.905 . S
O183 C184 1.182 . S
C184 O182 1.166 . S
C184 O183 1.182 . S
O185 Zn170 2.080 . S
O185 C188 1.305 . S
O186 Zn169 1.920 . S
O186 C188 1.234 . S
C187 O173 1.305 . S
C187 O174 1.234 . S
C188 O185 1.305 . S
C188 O186 1.234 . S
Zn189 O195 1.920 1_455 S
Zn189 O201 1.898 . S
Zn189 O204 1.905 . S
Zn190 O198 1.905 . S
Zn190 O199 1.898 . S
Zn190 O207 1.920 . S
Zn191 O194 2.080 1_455 S
Zn191 O197 2.114 . S
Zn191 O200 2.120 . S
Zn191 O202 2.120 . S
Zn191 O203 2.114 . S
Zn191 O206 2.080 . S
C192 O197 1.166 . S
C192 O198 1.182 . S
C193 O199 1.167 . S
C193 O200 1.299 . S
O194 Zn191 2.080 1_655 S
O194 C208 1.305 . S
O195 Zn189 1.920 1_655 S
O195 C208 1.234 . S
C196 O201 1.167 . S
C196 O202 1.299 . S
O197 Zn191 2.114 . S
O197 C192 1.166 . S
O198 Zn190 1.905 . S
O198 C192 1.182 . S
O199 Zn190 1.898 . S
O199 C193 1.167 . S
O200 Zn191 2.120 . S
O200 C193 1.299 . S
O201 Zn189 1.898 . S
O201 C196 1.167 . S
O202 Zn191 2.120 . S
O202 C196 1.299 . S
O203 Zn191 2.114 . S
O203 C205 1.166 . S
O204 Zn189 1.905 . S
O204 C205 1.182 . S
C205 O203 1.166 . S
C205 O204 1.182 . S
O206 Zn191 2.080 . S
O206 C209 1.305 . S
O207 Zn190 1.920 . S
O207 C209 1.234 . S
C208 O194 1.305 . S
C208 O195 1.234 . S
C209 O206 1.305 . S
C209 O207 1.234 . S
Zn210 O216 1.920 . S
Zn210 O222 1.898 . S
Zn210 O225 1.905 . S
Zn211 O219 1.905 . S
Zn211 O220 1.898 . S
Zn211 O228 1.920 1_565 S
Zn212 O215 2.080 . S
Zn212 O218 2.114 . S
Zn212 O221 2.120 . S
Zn212 O223 2.120 . S
Zn212 O224 2.114 . S
Zn212 O227 2.080 1_565 S
C213 O218 1.166 . S
C213 O219 1.182 . S
C214 O220 1.167 . S
C214 O221 1.299 . S
O215 Zn212 2.080 . S
O215 C229 1.305 . S
O216 Zn210 1.920 . S
O216 C229 1.234 . S
C217 O222 1.167 . S
C217 O223 1.299 . S
O218 Zn212 2.114 . S
O218 C213 1.166 . S
O219 Zn211 1.905 . S
O219 C213 1.182 . S
O220 Zn211 1.898 . S
O220 C214 1.167 . S
O221 Zn212 2.120 . S
O221 C214 1.299 . S
O222 Zn210 1.898 . S
O222 C217 1.167 . S
O223 Zn212 2.120 . S
O223 C217 1.299 . S
O224 Zn212 2.114 . S
O224 C226 1.166 . S
O225 Zn210 1.905 . S
O225 C226 1.182 . S
C226 O224 1.166 . S
C226 O225 1.182 . S
O227 Zn212 2.080 1_545 S
O227 C230 1.305 . S
O228 Zn211 1.920 1_545 S
O228 C230 1.234 . S
C229 O215 1.305 . S
C229 O216 1.234 . S
C230 O227 1.305 . S
C230 O228 1.234 . S
Zn231 O237 1.920 . S
Zn231 O243 1.898 . S
Zn231 O246 1.905 . S
Zn232 O240 1.905 . S
Zn232 O241 1.898 . S
Zn232 O249 1.920 . S
Zn233 O236 2.080 . S
Zn233 O239 2.114 . S
Zn233 O242 2.120 . S
Zn233 O244 2.120 . S
Zn233 O245 2.114 . S
Zn233 O248 2.080 . S
C234 O239 1.166 . S
C234 O240 1.182 . S
C235 O241 1.167 . S
C235 O242 1.299 . S
O236 Zn233 2.080 . S
O236 C250 1.305 . S
O237 Zn231 1.920 . S
O237 C250 1.234 . S
C238 O243 1.167 . S
C238 O244 1.299 . S
O239 Zn233 2.114 . S
O239 C234 1.166 . S
O240 Zn232 1.905 . S
O240 C234 1.182 . S
O241 Zn232 1.898 . S
O241 C235 1.167 . S
O242 Zn233 2.120 . S
O242 C235 1.299 . S
O243 Zn231 1.898 . S
O243 C238 1.167 . S
O244 Zn233 2.120 . S
O244 C238 1.299 . S
O245 Zn233 2.114 . S
O245 C247 1.166 . S
O246 Zn231 1.905 . S
O246 C247 1.182 . S
C247 O245 1.166 . S
C247 O246 1.182 . S
O248 Zn233 2.080 . S
O248 C251 1.305 . S
O249 Zn232 1.920 . S
O249 C251 1.234 . S
C250 O236 1.305 . S
C250 O237 1.234 . S
C251 O248 1.305 . S
C251 O249 1.234 . S
C252 C253 1.369 . S
C252 C254 1.419 . S
C252 H256 0.930 . S
C253 C252 1.369 . S
C253 C262 1.429 . S
C254 C252 1.419 . S
C254 C255 1.363 . S
C254 H257 0.929 . S
C255 C254 1.363 . S
C255 C261 1.428 . S
H256 C252 0.930 . S
H257 C254 0.929 . S
S258 N259 1.613 . S
S258 N260 1.610 . S
N259 S258 1.613 . S
N259 C262 1.350 . S
N260 S258 1.610 . S
N260 C261 1.351 . S
C261 C255 1.428 . S
C261 N260 1.351 . S
C261 C262 1.434 . S
C262 C253 1.429 . S
C262 N259 1.350 . S
C262 C261 1.434 . S
C263 C264 1.369 . S
C263 C265 1.419 . S
C263 H267 0.930 . S
C264 C263 1.369 . S
C264 C273 1.429 . S
C265 C263 1.419 . S
C265 C266 1.363 1_455 S
C265 H268 0.926 1_455 S
C266 C265 1.363 1_655 S
C266 C272 1.428 1_655 S
H267 C263 0.930 . S
H268 C265 0.926 1_655 S
S269 N270 1.613 . S
S269 N271 1.610 . S
N270 S269 1.613 . S
N270 C273 1.350 . S
N271 S269 1.610 . S
N271 C272 1.351 . S
C272 C266 1.428 1_455 S
C272 N271 1.351 . S
C272 C273 1.434 . S
C273 C264 1.429 . S
C273 N270 1.350 . S
C273 C272 1.434 . S
C274 C275 1.369 1_565 S
C274 C276 1.419 . S
C274 H278 0.930 1_565 S
C275 C274 1.369 1_545 S
C275 C284 1.429 1_545 S
C276 C274 1.419 . S
C276 C277 1.363 . S
C276 H279 0.929 . S
C277 C276 1.363 . S
C277 C283 1.428 . S
H278 C274 0.930 1_545 S
H279 C276 0.929 . S
S280 N281 1.613 . S
S280 N282 1.610 . S
N281 S280 1.613 . S
N281 C284 1.350 . S
N282 S280 1.610 . S
N282 C283 1.351 . S
C283 C277 1.428 . S
C283 N282 1.351 . S
C283 C284 1.434 . S
C284 C275 1.429 1_565 S
C284 N281 1.350 . S
C284 C283 1.434 . S
C285 C286 1.369 . S
C285 C287 1.419 . S
C285 H289 0.930 . S
C286 C285 1.369 . S
C286 C295 1.429 . S
C287 C285 1.419 . S
C287 C288 1.363 . S
C287 H290 0.929 . S
C288 C287 1.363 . S
C288 C294 1.428 . S
H289 C285 0.930 . S
H290 C287 0.929 . S
S291 N292 1.613 . S
S291 N293 1.610 . S
N292 S291 1.613 . S
N292 C295 1.350 . S
N293 S291 1.610 . S
N293 C294 1.351 . S
C294 C288 1.428 . S
C294 N293 1.351 . S
C294 C295 1.434 . S
C295 C286 1.429 . S
C295 N292 1.350 . S
C295 C294 1.434 . S
C296 C297 1.369 . S
C296 C298 1.419 . S
C296 H300 0.930 . S
C297 C296 1.369 . S
C297 C306 1.429 . S
C298 C296 1.419 . S
C298 C299 1.363 1_455 S
C298 H301 0.929 1_455 S
C299 C298 1.363 1_655 S
C299 C305 1.428 1_655 S
H300 C296 0.930 . S
H301 C298 0.929 1_655 S
S302 N303 1.613 . S
S302 N304 1.610 . S
N303 S302 1.613 . S
N303 C306 1.350 . S
N304 S302 1.610 . S
N304 C305 1.351 . S
C305 C299 1.428 1_455 S
C305 N304 1.351 . S
C305 C306 1.434 . S
C306 C297 1.429 . S
C306 N303 1.350 . S
C306 C305 1.434 . S
C307 C308 1.369 . S
C307 C309 1.419 . S
C307 H311 0.930 . S
C308 C307 1.369 . S
C308 C317 1.429 . S
C309 C307 1.419 . S
C309 C310 1.363 1_565 S
C309 H312 0.929 . S
C310 C309 1.363 1_545 S
C310 C316 1.428 1_545 S
H311 C307 0.930 . S
H312 C309 0.929 . S
S313 N314 1.613 . S
S313 N315 1.610 1_565 S
N314 S313 1.613 . S
N314 C317 1.350 . S
N315 S313 1.610 1_545 S
N315 C316 1.351 1_545 S
C316 C310 1.428 1_565 S
C316 N315 1.351 1_565 S
C316 C317 1.434 . S
C317 C308 1.429 . S
C317 N314 1.350 . S
C317 C316 1.434 . S
C318 C319 1.369 . S
C318 C320 1.419 . S
C318 H322 0.930 . S
C319 C318 1.369 . S
C319 C328 1.429 . S
C320 C318 1.419 . S
C320 C321 1.363 . S
C320 H323 0.929 . S
C321 C320 1.363 . S
C321 C327 1.428 . S
H322 C318 0.930 . S
H323 C320 0.929 . S
S324 N325 1.613 . S
S324 N326 1.610 . S
N325 S324 1.613 . S
N325 C328 1.350 . S
N326 S324 1.610 . S
N326 C327 1.351 . S
C327 C321 1.428 . S
C327 N326 1.351 . S
C327 C328 1.434 . S
C328 C319 1.429 . S
C328 N325 1.350 . S
C328 C327 1.434 . S
C329 C330 1.369 1_655 S
C329 C331 1.419 . S
C329 H333 0.930 . S
C330 C329 1.369 1_455 S
C330 C339 1.429 1_455 S
C331 C329 1.419 . S
C331 C332 1.363 . S
C331 H334 0.929 . S
C332 C331 1.363 . S
C332 C338 1.428 . S
H333 C329 0.930 . S
H334 C331 0.929 . S
S335 N336 1.613 1_655 S
S335 N337 1.610 . S
N336 S335 1.613 1_455 S
N336 C339 1.350 1_455 S
N337 S335 1.610 . S
N337 C338 1.351 . S
C338 C332 1.428 . S
C338 N337 1.351 . S
C338 C339 1.434 . S
C339 C330 1.429 1_655 S
C339 N336 1.350 1_655 S
C339 C338 1.434 . S
C340 C341 1.369 1_545 S
C340 C342 1.419 . S
C340 H344 0.930 . S
C341 C340 1.369 1_565 S
C341 C350 1.429 1_565 S
C342 C340 1.419 . S
C342 C343 1.363 . S
C342 H345 0.929 . S
C343 C342 1.363 . S
C343 C349 1.428 . S
H344 C340 0.930 . S
H345 C342 0.929 . S
S346 N347 1.613 1_545 S
S346 N348 1.610 . S
N347 S346 1.613 1_565 S
N347 C350 1.350 1_565 S
N348 S346 1.610 . S
N348 C349 1.351 . S
C349 C343 1.428 . S
C349 N348 1.351 . S
C349 C350 1.434 . S
C350 C341 1.429 1_545 S
C350 N347 1.350 1_545 S
C350 C349 1.434 . S
C351 C352 1.369 . S
C351 C353 1.419 . S
C351 H355 0.930 . S
C352 C351 1.369 . S
C352 C361 1.429 . S
C353 C351 1.419 . S
C353 C354 1.363 . S
C353 H356 0.929 . S
C354 C353 1.363 . S
C354 C360 1.428 . S
H355 C351 0.930 . S
H356 C353 0.929 . S
S357 N358 1.613 . S
S357 N359 1.610 . S
N358 S357 1.613 . S
N358 C361 1.350 . S
N359 S357 1.610 . S
N359 C360 1.351 . S
C360 C354 1.428 . S
C360 N359 1.351 . S
C360 C361 1.434 . S
C361 C352 1.429 . S
C361 N358 1.350 . S
C361 C360 1.434 . S
C362 C363 1.369 1_655 S
C362 C364 1.419 . S
C362 H366 0.930 . S
C363 C362 1.369 1_455 S
C363 C372 1.429 1_455 S
C364 C362 1.419 . S
C364 C365 1.363 . S
C364 H367 0.929 . S
C365 C364 1.363 . S
C365 C371 1.428 . S
H366 C362 0.930 . S
H367 C364 0.929 . S
S368 N369 1.613 1_655 S
S368 N370 1.610 . S
N369 S368 1.613 1_455 S
N369 C372 1.350 1_455 S
N370 S368 1.610 . S
N370 C371 1.351 . S
C371 C365 1.428 . S
C371 N370 1.351 . S
C371 C372 1.434 . S
C372 C363 1.429 1_655 S
C372 N369 1.350 1_655 S
C372 C371 1.434 . S
C373 C374 1.369 . S
C373 C375 1.419 . S
C373 H377 0.930 . S
C374 C373 1.369 . S
C374 C383 1.429 . S
C375 C373 1.419 . S
C375 C376 1.363 1_545 S
C375 H378 0.929 . S
C376 C375 1.363 1_565 S
C376 C382 1.428 1_565 S
H377 C373 0.930 . S
H378 C375 0.929 . S
S379 N380 1.613 . S
S379 N381 1.610 1_545 S
N380 S379 1.613 . S
N380 C383 1.350 . S
N381 S379 1.610 1_565 S
N381 C382 1.351 1_565 S
C382 C376 1.428 1_545 S
C382 N381 1.351 1_545 S
C382 C383 1.434 . S
C383 C374 1.429 . S
C383 N380 1.350 . S
C383 C382 1.434 . S
C384 C385 1.369 . S
C384 C386 1.419 . S
C384 H388 0.930 1_545 S
C385 C384 1.369 . S
C385 C394 1.429 . S
C386 C384 1.419 . S
C386 C387 1.363 . S
C386 H389 0.929 1_545 S
C387 C386 1.363 . S
C387 C393 1.428 . S
H388 C384 0.930 1_565 S
H389 C386 0.929 1_565 S
S390 N391 1.613 . S
S390 N392 1.610 . S
N391 S390 1.613 . S
N391 C394 1.350 . S
N392 S390 1.610 . S
N392 C393 1.351 . S
C393 C387 1.428 . S
C393 N392 1.351 . S
C393 C394 1.434 . S
C394 C385 1.429 . S
C394 N391 1.350 . S
C394 C393 1.434 . S
C395 C396 1.369 . S
C395 C397 1.419 . S
C395 H399 0.930 . S
C396 C395 1.369 . S
C396 C405 1.429 . S
C397 C395 1.419 . S
C397 C398 1.363 . S
C397 H400 0.929 . S
C398 C397 1.363 . S
C398 C404 1.428 . S
H399 C395 0.930 . S
H400 C397 0.929 . S
S401 N402 1.613 . S
S401 N403 1.610 . S
N402 S401 1.613 . S
N402 C405 1.350 . S
N403 S401 1.610 . S
N403 C404 1.351 . S
C404 C398 1.428 . S
C404 N403 1.351 . S
C404 C405 1.434 . S
C405 C396 1.429 . S
C405 N402 1.350 . S
C405 C404 1.434 . S
C406 C407 1.369 . S
C406 C408 1.419 . S
C406 H410 0.930 . S
C407 C406 1.369 . S
C407 C416 1.429 . S
C408 C406 1.419 . S
C408 C409 1.363 . S
C408 H411 0.929 . S
C409 C408 1.363 . S
C409 C415 1.428 . S
H410 C406 0.930 . S
H411 C408 0.929 . S
S412 N413 1.613 . S
S412 N414 1.610 . S
N413 S412 1.613 . S
N413 C416 1.350 1_455 S
N414 S412 1.610 . S
N414 C415 1.351 1_455 S
C415 C409 1.428 . S
C415 N414 1.351 1_655 S
C415 C416 1.434 . S
C416 C407 1.429 . S
C416 N413 1.350 1_655 S
C416 C415 1.434 . S
C417 C418 1.369 . S
C417 C419 1.419 . S
C417 H421 0.930 1_455 S
C418 C417 1.369 . S
C418 C427 1.429 . S
C419 C417 1.419 . S
C419 C420 1.363 . S
C419 H422 0.929 1_455 S
C420 C419 1.363 . S
C420 C426 1.428 . S
H421 C417 0.930 1_655 S
H422 C419 0.929 1_655 S
S423 N424 1.613 . S
S423 N425 1.610 . S
N424 S423 1.613 . S
N424 C427 1.350 . S
N425 S423 1.610 . S
N425 C426 1.351 . S
C426 C420 1.428 . S
C426 N425 1.351 . S
C426 C427 1.434 . S
C427 C418 1.429 . S
C427 N424 1.350 . S
C427 C426 1.434 . S
C428 C429 1.369 . S
C428 C430 1.419 . S
C428 H432 0.930 . S
C429 C428 1.369 . S
C429 C438 1.429 . S
C430 C428 1.419 . S
C430 C431 1.363 . S
C430 H433 0.929 . S
C431 C430 1.363 . S
C431 C437 1.428 . S
H432 C428 0.930 . S
H433 C430 0.929 . S
S434 N435 1.613 . S
S434 N436 1.610 . S
N435 S434 1.613 . S
N435 C438 1.350 1_545 S
N436 S434 1.610 . S
N436 C437 1.351 1_545 S
C437 C431 1.428 . S
C437 N436 1.351 1_565 S
C437 C438 1.434 . S
C438 C429 1.429 . S
C438 N435 1.350 1_565 S
C438 C437 1.434 . S
C439 C440 1.369 . S
C439 C441 1.419 . S
C439 H443 0.930 . S
C440 C439 1.369 . S
C440 C449 1.429 . S
C441 C439 1.419 . S
C441 C442 1.363 . S
C441 H444 0.929 . S
C442 C441 1.363 . S
C442 C448 1.428 . S
H443 C439 0.930 . S
H444 C441 0.929 . S
S445 N446 1.613 . S
S445 N447 1.610 . S
N446 S445 1.613 . S
N446 C449 1.350 . S
N447 S445 1.610 . S
N447 C448 1.351 . S
C448 C442 1.428 . S
C448 N447 1.351 . S
C448 C449 1.434 . S
C449 C440 1.429 . S
C449 N446 1.350 . S
C449 C448 1.434 . S
C450 C451 1.369 . S
C450 C452 1.419 1_556 S
C450 H454 0.930 . S
C451 C450 1.369 . S
C451 C460 1.429 1_565 S
C452 C450 1.419 1_554 S
C452 C453 1.363 1_565 S
C452 H455 0.929 . S
C453 C452 1.363 1_545 S
C453 C459 1.428 . S
H454 C450 0.930 . S
H455 C452 0.929 . S
S456 N457 1.613 . S
S456 N458 1.610 1_556 S
N457 S456 1.613 . S
N457 C460 1.350 . S
N458 S456 1.610 1_554 S
N458 C459 1.351 . S
C459 C453 1.428 . S
C459 N458 1.351 . S
C459 C460 1.434 1_554 S
C460 C451 1.429 1_545 S
C460 N457 1.350 . S
C460 C459 1.434 1_556 S
C461 C462 1.369 . S
C461 C463 1.419 . S
C461 H465 0.930 . S
C462 C461 1.369 . S
C462 C471 1.429 . S
C463 C461 1.419 . S
C463 C464 1.363 . S
C463 H466 0.929 . S
C464 C463 1.363 . S
C464 C470 1.428 . S
H465 C461 0.930 . S
H466 C463 0.929 . S
S467 N468 1.613 . S
S467 N469 1.610 . S
N468 S467 1.613 . S
N468 C471 1.350 . S
N469 S467 1.610 . S
N469 C470 1.351 . S
C470 C464 1.428 . S
C470 N469 1.351 . S
C470 C471 1.434 . S
C471 C462 1.429 . S
C471 N468 1.350 . S
C471 C470 1.434 . S
C472 C473 1.369 . S
C472 C474 1.415 1_456 S
C472 H476 0.930 . S
C473 C472 1.369 . S
C473 C482 1.429 1_455 S
C474 C472 1.415 1_654 S
C474 C475 1.362 . S
C474 H477 0.933 1_655 S
C475 C474 1.362 . S
C475 C481 1.428 . S
H476 C472 0.930 . S
H477 C474 0.933 1_455 S
S478 N479 1.613 . S
S478 N480 1.610 1_556 S
N479 S478 1.613 . S
N479 C482 1.350 . S
N480 S478 1.610 1_554 S
N480 C481 1.351 . S
C481 C475 1.428 . S
C481 N480 1.351 . S
C481 C482 1.434 1_554 S
C482 C473 1.429 1_655 S
C482 N479 1.350 . S
C482 C481 1.434 1_556 S
C483 C484 1.369 1_565 S
C483 C485 1.419 . S
C483 H487 0.930 . S
C484 C483 1.369 1_545 S
C484 C493 1.429 . S
C485 C483 1.419 . S
C485 C486 1.363 . S
C485 H488 0.929 . S
C486 C485 1.363 . S
C486 C492 1.428 1_565 S
H487 C483 0.930 . S
H488 C485 0.929 . S
S489 N490 1.613 . S
S489 N491 1.610 . S
N490 S489 1.613 . S
N490 C493 1.350 . S
N491 S489 1.610 . S
N491 C492 1.351 . S
C492 C486 1.428 1_545 S
C492 N491 1.351 . S
C492 C493 1.434 . S
C493 C484 1.429 . S
C493 N490 1.350 . S
C493 C492 1.434 . S
C494 C495 1.369 . S
C494 C496 1.419 1_554 S
C494 H498 0.930 . S
C495 C494 1.369 . S
C495 C504 1.429 . S
C496 C494 1.419 1_556 S
C496 C497 1.363 . S
C496 H499 0.929 . S
C497 C496 1.363 . S
C497 C503 1.428 . S
H498 C494 0.930 . S
H499 C496 0.929 . S
S500 N501 1.613 1_556 S
S500 N502 1.610 . S
N501 S500 1.613 1_554 S
N501 C504 1.350 . S
N502 S500 1.610 . S
N502 C503 1.351 . S
C503 C497 1.428 . S
C503 N502 1.351 . S
C503 C504 1.434 1_556 S
C504 C495 1.429 . S
C504 N501 1.350 . S
C504 C503 1.434 1_554 S
C505 C506 1.369 1_655 S
C505 C507 1.419 . S
C505 H509 0.930 . S
C506 C505 1.369 1_455 S
C506 C515 1.429 . S
C507 C505 1.419 . S
C507 C508 1.363 . S
C507 H510 0.929 . S
C508 C507 1.363 . S
C508 C514 1.428 1_655 S
H509 C505 0.930 . S
H510 C507 0.929 . S
S511 N512 1.613 . S
S511 N513 1.610 . S
N512 S511 1.613 . S
N512 C515 1.350 . S
N513 S511 1.610 . S
N513 C514 1.351 . S
C514 C508 1.428 1_455 S
C514 N513 1.351 . S
C514 C515 1.434 . S
C515 C506 1.429 . S
C515 N512 1.350 . S
C515 C514 1.434 . S
C516 C517 1.369 . S
C516 C518 1.419 . S
C516 H520 0.930 . S
C517 C516 1.369 . S
C517 C526 1.429 . S
C518 C516 1.419 . S
C518 C519 1.363 . S
C518 H521 0.929 1_545 S
C519 C518 1.363 . S
C519 C525 1.428 . S
H520 C516 0.930 . S
H521 C518 0.929 1_565 S
S522 N523 1.613 . S
S522 N524 1.610 . S
N523 S522 1.613 . S
N523 C526 1.350 . S
N524 S522 1.610 . S
N524 C525 1.351 . S
C525 C519 1.428 . S
C525 N524 1.351 . S
C525 C526 1.434 . S
C526 C517 1.429 . S
C526 N523 1.350 . S
C526 C525 1.434 . S
C527 C528 1.369 . S
C527 C529 1.419 . S
C527 H531 0.930 . S
C528 C527 1.369 . S
C528 C537 1.429 . S
C529 C527 1.419 . S
C529 C530 1.363 . S
C529 H532 0.929 . S
C530 C529 1.363 . S
C530 C536 1.428 . S
H531 C527 0.930 . S
H532 C529 0.929 . S
S533 N534 1.613 . S
S533 N535 1.610 . S
N534 S533 1.613 . S
N534 C537 1.350 . S
N535 S533 1.610 . S
N535 C536 1.351 . S
C536 C530 1.428 . S
C536 N535 1.351 . S
C536 C537 1.434 . S
C537 C528 1.429 . S
C537 N534 1.350 . S
C537 C536 1.434 . S
C538 C539 1.369 . S
C538 C540 1.419 . S
C538 H542 0.930 . S
C539 C538 1.369 . S
C539 C548 1.429 . S
C540 C538 1.419 . S
C540 C541 1.363 . S
C540 H543 0.929 . S
C541 C540 1.363 . S
C541 C547 1.428 . S
H542 C538 0.930 . S
H543 C540 0.929 . S
S544 N545 1.615 1_455 S
S544 N546 1.610 1_455 S
N545 S544 1.615 1_655 S
N545 C548 1.358 . S
N546 S544 1.610 1_655 S
N546 C547 1.351 . S
C547 C541 1.428 . S
C547 N546 1.351 . S
C547 C548 1.434 . S
C548 C539 1.429 . S
C548 N545 1.358 . S
C548 C547 1.434 . S
C549 C550 1.369 . S
C549 C551 1.419 . S
C549 H553 0.930 . S
C550 C549 1.369 . S
C550 C559 1.429 . S
C551 C549 1.419 . S
C551 C552 1.363 . S
C551 H554 0.929 . S
C552 C551 1.363 . S
C552 C558 1.428 . S
H553 C549 0.930 . S
H554 C551 0.929 . S
S555 N556 1.613 . S
S555 N557 1.610 . S
N556 S555 1.613 . S
N556 C559 1.350 . S
N557 S555 1.610 . S
N557 C558 1.351 . S
C558 C552 1.428 . S
C558 N557 1.351 . S
C558 C559 1.434 . S
C559 C550 1.429 . S
C559 N556 1.350 . S
C559 C558 1.434 . S
C560 C561 1.369 . S
C560 C562 1.419 . S
C560 H564 0.930 . S
C561 C560 1.369 . S
C561 C570 1.429 . S
C562 C560 1.419 . S
C562 C563 1.363 . S
C562 H565 0.929 . S
C563 C562 1.363 . S
C563 C569 1.428 . S
H564 C560 0.930 . S
H565 C562 0.929 . S
S566 N567 1.613 . S
S566 N568 1.610 . S
N567 S566 1.613 . S
N567 C570 1.350 . S
N568 S566 1.610 . S
N568 C569 1.351 . S
C569 C563 1.428 . S
C569 N568 1.351 . S
C569 C570 1.434 . S
C570 C561 1.429 . S
C570 N567 1.350 . S
C570 C569 1.434 . S
C571 C572 1.369 . S
C571 C573 1.419 . S
C571 H575 0.930 . S
C572 C571 1.369 . S
C572 C581 1.429 . S
C573 C571 1.419 . S
C573 C574 1.363 . S
C573 H576 0.929 . S
C574 C573 1.363 . S
C574 C580 1.428 . S
H575 C571 0.930 . S
H576 C573 0.929 . S
S577 N578 1.613 1_455 S
S577 N579 1.610 . S
N578 S577 1.613 1_655 S
N578 C581 1.350 . S
N579 S577 1.610 . S
N579 C580 1.351 1_455 S
C580 C574 1.428 . S
C580 N579 1.351 1_655 S
C580 C581 1.434 . S
C581 C572 1.429 . S
C581 N578 1.350 . S
C581 C580 1.434 . S
C582 C583 1.369 . S
C582 C584 1.419 . S
C582 H586 0.930 . S
C583 C582 1.369 . S
C583 C592 1.429 . S
C584 C582 1.419 . S
C584 C585 1.363 . S
C584 H587 0.929 . S
C585 C584 1.363 . S
C585 C591 1.428 . S
H586 C582 0.930 . S
H587 C584 0.929 . S
S588 N589 1.613 . S
S588 N590 1.610 . S
N589 S588 1.613 . S
N589 C592 1.350 . S
N590 S588 1.610 . S
N590 C591 1.351 . S
C591 C585 1.428 . S
C591 N590 1.351 . S
C591 C592 1.434 . S
C592 C583 1.429 . S
C592 N589 1.350 . S
C592 C591 1.434 . S
C593 C594 1.369 . S
C593 C595 1.419 . S
C593 H597 0.930 . S
C594 C593 1.369 . S
C594 C603 1.429 . S
C595 C593 1.419 . S
C595 C596 1.363 . S
C595 H598 0.929 . S
C596 C595 1.363 . S
C596 C602 1.428 . S
H597 C593 0.930 . S
H598 C595 0.929 . S
S599 N600 1.613 . S
S599 N601 1.610 . S
N600 S599 1.613 . S
N600 C603 1.350 . S
N601 S599 1.610 . S
N601 C602 1.351 . S
C602 C596 1.428 . S
C602 N601 1.351 . S
C602 C603 1.434 . S
C603 C594 1.429 . S
C603 N600 1.350 . S
C603 C602 1.434 . S
C604 C605 1.369 . S
C604 C606 1.419 . S
C604 H608 0.930 . S
C605 C604 1.369 . S
C605 C614 1.429 . S
C606 C604 1.419 . S
C606 C607 1.363 . S
C606 H609 0.929 . S
C607 C606 1.363 . S
C607 C613 1.428 . S
H608 C604 0.930 . S
H609 C606 0.929 . S
S610 N611 1.613 . S
S610 N612 1.610 . S
N611 S610 1.613 . S
N611 C614 1.350 . S
N612 S610 1.610 . S
N612 C613 1.351 . S
C613 C607 1.428 . S
C613 N612 1.351 . S
C613 C614 1.434 . S
C614 C605 1.429 . S
C614 N611 1.350 . S
C614 C613 1.434 . S
C615 C616 1.369 . S
C615 C617 1.419 . S
C615 H619 0.930 . S
C616 C615 1.369 . S
C616 C625 1.429 . S
C617 C615 1.419 . S
C617 C618 1.363 . S
C617 H620 0.929 . S
C618 C617 1.363 . S
C618 C624 1.428 . S
H619 C615 0.930 . S
H620 C617 0.929 . S
S621 N622 1.613 . S
S621 N623 1.610 . S
N622 S621 1.613 . S
N622 C625 1.350 . S
N623 S621 1.610 . S
N623 C624 1.351 . S
C624 C618 1.428 . S
C624 N623 1.351 . S
C624 C625 1.434 . S
C625 C616 1.429 . S
C625 N622 1.350 . S
C625 C624 1.434 . S
C626 C627 1.369 . S
C626 C628 1.419 . S
C626 H630 0.930 . S
C627 C626 1.369 . S
C627 C636 1.429 . S
C628 C626 1.419 . S
C628 C629 1.363 . S
C628 H631 0.929 . S
C629 C628 1.363 . S
C629 C635 1.428 . S
H630 C626 0.930 . S
H631 C628 0.929 . S
S632 N633 1.613 . S
S632 N634 1.610 1_545 S
N633 S632 1.613 . S
N633 C636 1.350 1_545 S
N634 S632 1.610 1_565 S
N634 C635 1.351 . S
C635 C629 1.428 . S
C635 N634 1.351 . S
C635 C636 1.434 . S
C636 C627 1.429 . S
C636 N633 1.350 1_565 S
C636 C635 1.434 . S
C637 C638 1.369 . S
C637 C639 1.419 . S
C637 H641 0.930 . S
C638 C637 1.369 . S
C638 C647 1.429 . S
C639 C637 1.419 . S
C639 C640 1.363 . S
C639 H642 0.929 . S
C640 C639 1.363 . S
C640 C646 1.428 . S
H641 C637 0.930 . S
H642 C639 0.929 . S
S643 N644 1.613 . S
S643 N645 1.610 . S
N644 S643 1.613 . S
N644 C647 1.350 . S
N645 S643 1.610 . S
N645 C646 1.351 . S
C646 C640 1.428 . S
C646 N645 1.351 . S
C646 C647 1.434 . S
C647 C638 1.429 . S
C647 N644 1.350 . S
C647 C646 1.434 . S
C253 C61 0.999 . S
C255 C7 1.182 . S
C264 C83 0.995 . S
C266 C25 1.178 . S
C275 C49 1.188 . S
C277 C104 1.010 . S
C286 C67 1.181 . S
C288 C125 1.000 . S
C297 C19 1.003 . S
C299 C88 1.183 . S
C308 C41 1.020 . S
C310 C109 1.189 . S
C319 C230 1.011 . S
C321 C130 1.183 . S
C330 C151 1.185 . S
C332 C251 1.011 . S
C341 C172 1.177 . S
C343 C146 0.998 . S
C352 C196 1.180 . S
C354 C167 1.006 . S
C363 C214 1.189 . S
C365 C188 1.017 . S
C374 C208 1.019 . S
C376 C235 1.188 . S
C385 C66 1.345 . S
C387 C16 1.346 . S
C396 C24 1.356 . S
C398 C87 1.355 . S
C407 C58 1.341 . S
C409 C108 1.343 . S
C418 C129 1.343 . S
C420 C205 1.345 . S
C429 C150 1.350 . S
C431 C213 1.350 . S
C440 C171 1.352 . S
C442 C234 1.351 . S
C451 C166 1.392 . S
C453 C20 1.387 . S
C462 C40 1.397 . S
C464 C187 1.395 . S
C473 C209 1.398 . S
C475 C62 1.393 . S
C484 C82 1.386 . S
C486 C229 1.392 . S
C495 C103 1.391 . S
C497 C250 1.396 . S
C506 C145 1.388 . S
C508 C124 1.395 . S
C517 C45 1.316 . S
C519 C4 0.995 . S
C528 C28 0.999 . S
C530 C79 1.326 . S
C539 C46 1.000 . S
C541 C100 1.326 . S
C550 C70 1.011 . S
C552 C121 1.326 . S
C561 C3 1.321 . S
C563 C91 1.006 . S
C572 C37 1.328 . S
C574 C112 1.007 . S
C583 C226 1.321 . S
C585 C133 0.990 . S
C594 C154 0.986 . S
C596 C247 1.319 . S
C605 C175 0.993 . S
C607 C142 1.318 . S
C616 C163 1.326 . S
C618 C193 1.009 . S
C627 C217 1.003 . S
C629 C184 1.327 . S
C638 C238 1.000 . S
C640 C192 1.319 . S
