# Generated by pormake.
# Topology lcy-e, (6)-cn, num edge types: 1
# Building blocks:
#     Node 0, Type 0, BuildingBlock: VOLQOD_clean_sbu_1, # of connection points: 6
#     Node 1, Type 0, BuildingBlock: VOLQOD_clean_sbu_1, # of connection points: 6
#     Node 2, Type 0, BuildingBlock: VOLQOD_clean_sbu_1, # of connection points: 6
#     Node 3, Type 0, BuildingBlock: VOLQOD_clean_sbu_1, # of connection points: 6
#     Node 4, Type 0, BuildingBlock: VOLQOD_clean_sbu_1, # of connection points: 6
#     Node 5, Type 0, BuildingBlock: VOLQOD_clean_sbu_1, # of connection points: 6
#     Node 6, Type 0, BuildingBlock: VOLQOD_clean_sbu_1, # of connection points: 6
#     Node 7, Type 0, BuildingBlock: VOLQOD_clean_sbu_1, # of connection points: 6
#     Node 8, Type 0, BuildingBlock: VOLQOD_clean_sbu_1, # of connection points: 6
#     Node 9, Type 0, BuildingBlock: VOLQOD_clean_sbu_1, # of connection points: 6
#     Node 10, Type 0, BuildingBlock: VOLQOD_clean_sbu_1, # of connection points: 6
#     Node 11, Type 0, BuildingBlock: VOLQOD_clean_sbu_1, # of connection points: 6
#     Edge 12, Type (0, 0), BuildingBlock: XUDNAN_clean_linker_2, # of connection points: 2
#     Edge 13, Type (0, 0), BuildingBlock: XUDNAN_clean_linker_2, # of connection points: 2
#     Edge 14, Type (0, 0), BuildingBlock: XUDNAN_clean_linker_2, # of connection points: 2
#     Edge 15, Type (0, 0), BuildingBlock: XUDNAN_clean_linker_2, # of connection points: 2
#     Edge 16, Type (0, 0), BuildingBlock: XUDNAN_clean_linker_2, # of connection points: 2
#     Edge 17, Type (0, 0), BuildingBlock: XUDNAN_clean_linker_2, # of connection points: 2
#     Edge 18, Type (0, 0), BuildingBlock: XUDNAN_clean_linker_2, # of connection points: 2
#     Edge 19, Type (0, 0), BuildingBlock: XUDNAN_clean_linker_2, # of connection points: 2
#     Edge 20, Type (0, 0), BuildingBlock: XUDNAN_clean_linker_2, # of connection points: 2
#     Edge 21, Type (0, 0), BuildingBlock: XUDNAN_clean_linker_2, # of connection points: 2
#     Edge 22, Type (0, 0), BuildingBlock: XUDNAN_clean_linker_2, # of connection points: 2
#     Edge 23, Type (0, 0), BuildingBlock: XUDNAN_clean_linker_2, # of connection points: 2
#     Edge 24, Type (0, 0), BuildingBlock: XUDNAN_clean_linker_2, # of connection points: 2
#     Edge 25, Type (0, 0), BuildingBlock: XUDNAN_clean_linker_2, # of connection points: 2
#     Edge 26, Type (0, 0), BuildingBlock: XUDNAN_clean_linker_2, # of connection points: 2
#     Edge 27, Type (0, 0), BuildingBlock: XUDNAN_clean_linker_2, # of connection points: 2
#     Edge 28, Type (0, 0), BuildingBlock: XUDNAN_clean_linker_2, # of connection points: 2
#     Edge 29, Type (0, 0), BuildingBlock: XUDNAN_clean_linker_2, # of connection points: 2
#     Edge 30, Type (0, 0), BuildingBlock: XUDNAN_clean_linker_2, # of connection points: 2
#     Edge 31, Type (0, 0), BuildingBlock: XUDNAN_clean_linker_2, # of connection points: 2
#     Edge 32, Type (0, 0), BuildingBlock: XUDNAN_clean_linker_2, # of connection points: 2
#     Edge 33, Type (0, 0), BuildingBlock: XUDNAN_clean_linker_2, # of connection points: 2
#     Edge 34, Type (0, 0), BuildingBlock: XUDNAN_clean_linker_2, # of connection points: 2
#     Edge 35, Type (0, 0), BuildingBlock: XUDNAN_clean_linker_2, # of connection points: 2
#     Edge 36, Type (0, 0), BuildingBlock: XUDNAN_clean_linker_2, # of connection points: 2
#     Edge 37, Type (0, 0), BuildingBlock: XUDNAN_clean_linker_2, # of connection points: 2
#     Edge 38, Type (0, 0), BuildingBlock: XUDNAN_clean_linker_2, # of connection points: 2
#     Edge 39, Type (0, 0), BuildingBlock: XUDNAN_clean_linker_2, # of connection points: 2
#     Edge 40, Type (0, 0), BuildingBlock: XUDNAN_clean_linker_2, # of connection points: 2
#     Edge 41, Type (0, 0), BuildingBlock: XUDNAN_clean_linker_2, # of connection points: 2
#     Edge 42, Type (0, 0), BuildingBlock: XUDNAN_clean_linker_2, # of connection points: 2
#     Edge 43, Type (0, 0), BuildingBlock: XUDNAN_clean_linker_2, # of connection points: 2
#     Edge 44, Type (0, 0), BuildingBlock: XUDNAN_clean_linker_2, # of connection points: 2
#     Edge 45, Type (0, 0), BuildingBlock: XUDNAN_clean_linker_2, # of connection points: 2
#     Edge 46, Type (0, 0), BuildingBlock: XUDNAN_clean_linker_2, # of connection points: 2
#     Edge 47, Type (0, 0), BuildingBlock: XUDNAN_clean_linker_2, # of connection points: 2
# Relax obj value: 0.403
# Max RMSD: 0.291
# Mean RMSD: 0.282
data_MOF--net-lcy-e--node1-VOLQOD_clean_sbu_1--edge1-XUDNAN_clean_linker_2
_symmetry_space_group_name_H-M    P1
_symmetry_Int_Tables_number       1
_symmetry_cell_setting            triclinic
loop_
_symmetry_equiv_pos_as_xyz
'x, y, z'
_cell_length_a     37.725222
_cell_length_b     37.712079
_cell_length_c     37.862886
_cell_angle_alpha  90.257292
_cell_angle_beta   90.788773
_cell_angle_gamma 90.359034
loop_
_atom_site_label
_atom_site_type_symbol
_atom_site_fract_x
_atom_site_fract_y
_atom_site_fract_z
_atom_type_partial_charge
O0 O 0.19673 0.16444 0.44255 0.0
Zn1 Zn 0.15827 0.18175 0.47368 0.0
O2 O 0.11983 0.2011 0.44517 0.0
Zn3 Zn 0.11065 0.24914 0.4601 0.0
Zn4 Zn 0.13119 0.19983 0.39586 0.0
Zn5 Zn 0.07785 0.17293 0.45125 0.0
O6 O 0.06714 0.25082 0.49025 0.0
O7 O 0.04723 0.1954 0.48711 0.0
O8 O 0.18004 0.21808 0.50692 0.0
O9 O 0.15021 0.26625 0.49148 0.0
O10 O 0.10947 0.28264 0.41898 0.0
O11 O 0.13613 0.24954 0.37842 0.0
O12 O 0.09198 0.17869 0.36627 0.0
O13 O 0.14248 0.13768 0.49876 0.0
O14 O 0.05061 0.16637 0.4057 0.0
O15 O 0.09125 0.12583 0.47122 0.0
C16 C 0.19871 0.15997 0.40937 0.0
C17 C 0.04575 0.22654 0.49995 0.0
C18 C 0.12376 0.27913 0.38887 0.0
C19 C 0.17482 0.25136 0.50915 0.0
C20 C 0.06089 0.16854 0.37392 0.0
C21 C 0.11657 0.11682 0.49186 0.0
O22 O 0.17499 0.17112 0.388 0.0
O23 O 0.03457 0.74518 0.631 0.0
Zn24 Zn 0.99194 0.77605 0.63788 0.0
O25 O 0.00796 0.82411 0.65104 0.0
Zn26 Zn 0.99401 0.83576 0.69842 0.0
Zn27 Zn 0.05899 0.82854 0.64797 0.0
Zn28 Zn 0.98633 0.85847 0.6206 0.0
O29 O 0.95093 0.86656 0.69828 0.0
O30 O 0.94599 0.88422 0.64277 0.0
O31 O 0.96511 0.75351 0.67867 0.0
O32 O 0.97906 0.79149 0.72192 0.0
O33 O 0.03351 0.85796 0.72765 0.0
O34 O 0.07943 0.84549 0.6939 0.0
O35 O 0.07347 0.8656 0.6127 0.0
O36 O 0.96398 0.7758 0.59111 0.0
O37 O 0.02206 0.89217 0.60186 0.0
O38 O 0.96516 0.83371 0.57993 0.0
C39 C 0.06791 0.75065 0.63221 0.0
C40 C 0.93473 0.88376 0.67422 0.0
C41 C 0.06677 0.85766 0.72241 0.0
C42 C 0.96601 0.76204 0.71138 0.0
C43 C 0.05555 0.89051 0.5987 0.0
C44 C 0.95686 0.80217 0.57133 0.0
O45 O 0.08097 0.78136 0.63809 0.0
O46 O 0.38996 0.86982 0.95287 0.0
Zn47 Zn 0.36373 0.8297 0.9761 0.0
O48 O 0.31386 0.83959 0.96903 0.0
Zn49 Zn 0.28716 0.82428 0.00909 0.0
Zn50 Zn 0.30439 0.88822 0.95903 0.0
Zn51 Zn 0.30087 0.81541 0.92692 0.0
O52 O 0.25834 0.77942 -0.00351 0.0
O53 O 0.27392 0.77281 0.94038 0.0
O54 O 0.37573 0.82397 0.02903 0.0
O55 O 0.32134 0.81337 0.0485 0.0
O56 O 0.26095 0.86605 0.03045 0.0
O57 O 0.28894 0.91061 0.00355 0.0
O58 O 0.2644 0.89411 0.92365 0.0
O59 O 0.37737 0.78571 0.94758 0.0
O60 O 0.26949 0.84324 0.89484 0.0
O61 O 0.34305 0.79834 0.90143 0.0
C62 C 0.38065 0.89872 0.938 0.0
C63 C 0.25798 0.76168 0.96756 0.0
C64 C 0.26905 0.89891 0.02788 0.0
C65 C 0.35462 0.81632 0.05409 0.0
C66 C 0.25554 0.87362 0.89823 0.0
C67 C 0.36883 0.78141 0.91506 0.0
O68 O 0.34871 0.90967 0.93874 0.0
O69 O 0.40158 0.05816 0.18804 0.0
Zn70 Zn 0.44003 0.08141 0.21817 0.0
O71 O 0.44748 0.13037 0.20419 0.0
Zn72 Zn 0.49587 0.1412 0.19478 0.0
Zn73 Zn 0.42234 0.13787 0.16091 0.0
Zn74 Zn 0.4331 0.16371 0.23924 0.0
O75 O 0.51987 0.16911 0.2338 0.0
O76 O 0.47425 0.18199 0.26764 0.0
O77 O 0.48597 0.05341 0.21413 0.0
O78 O 0.5211 0.09593 0.19368 0.0
O79 O 0.50239 0.16212 0.14674 0.0
O80 O 0.45651 0.13482 0.12102 0.0
O81 O 0.40254 0.18645 0.16068 0.0
O82 O 0.4189 0.08105 0.26681 0.0
O83 O 0.40994 0.2058 0.21596 0.0
O84 O 0.4029 0.13774 0.27323 0.0
C85 C 0.37976 0.07088 0.16552 0.0
C86 C 0.50731 0.18257 0.26181 0.0
C87 C 0.48662 0.15012 0.1192 0.0
C88 C 0.51578 0.06383 0.20222 0.0
C89 C 0.39987 0.21056 0.18407 0.0
C90 C 0.40251 0.10547 0.28323 0.0
O91 O 0.38332 0.10231 0.15391 0.0
O92 O 0.7309 0.26147 0.50827 0.0
Zn93 Zn 0.68531 0.27779 0.52889 0.0
O94 O 0.68282 0.32846 0.52968 0.0
Zn95 Zn 0.68767 0.34563 0.57695 0.0
Zn96 Zn 0.72121 0.34587 0.50101 0.0
Zn97 Zn 0.6369 0.34328 0.51252 0.0
O98 O 0.64758 0.37685 0.59042 0.0
O99 O 0.60519 0.35832 0.55331 0.0
O100 O 0.67866 0.25682 0.577 0.0
O101 O 0.68467 0.305 0.6105 0.0
O102 O 0.73438 0.36966 0.58456 0.0
O103 O 0.76163 0.36233 0.53322 0.0
O104 O 0.70315 0.38857 0.47325 0.0
O105 O 0.64933 0.25923 0.49444 0.0
O106 O 0.64487 0.386 0.48244 0.0
O107 O 0.61509 0.30515 0.48119 0.0
C108 C 0.74475 0.27315 0.48008 0.0
C109 C 0.615 0.37486 0.58136 0.0
C110 C 0.76162 0.37261 0.56534 0.0
C111 C 0.68005 0.27169 0.60726 0.0
C112 C 0.67189 0.4009 0.46897 0.0
C113 C 0.62401 0.27289 0.47676 0.0
O114 O 0.73969 0.30517 0.47019 0.0
O115 O 0.95394 0.23668 0.84015 0.0
Zn116 Zn 0.99275 0.26896 0.82327 0.0
O117 O 0.97735 0.31753 0.82638 0.0
Zn118 Zn 0.99461 0.34415 0.78773 0.0
Zn119 Zn 0.92726 0.31923 0.82333 0.0
Zn120 Zn 0.99455 0.33783 0.86951 0.0
O121 O 0.03881 0.37073 0.80146 0.0
O122 O 0.0374 0.37011 0.86021 0.0
O123 O 0.00262 0.2565 0.77238 0.0
O124 O 0.00597 0.31052 0.7494 0.0
O125 O 0.95601 0.37402 0.76599 0.0
O126 O 0.91344 0.33376 0.77391 0.0
O127 O 0.90954 0.35595 0.8569 0.0
O128 O 0.03486 0.26359 0.85643 0.0
O129 O 0.95506 0.36413 0.89428 0.0
O130 O 0.01296 0.29778 0.89889 0.0
C131 C 0.92108 0.24212 0.84491 0.0
C132 C 0.0522 0.37911 0.83143 0.0
C133 C 0.92627 0.3601 0.75718 0.0
C134 C 0.00709 0.277 0.7461 0.0
C135 C 0.92303 0.36987 0.8847 0.0
C136 C 0.03438 0.27399 0.88854 0.0
O137 O 0.90695 0.27216 0.83882 0.0
O138 O 0.89993 0.6585 0.03056 0.0
Zn139 Zn 0.86112 0.68284 0.0037 0.0
O140 O 0.81603 0.65758 0.01041 0.0
Zn141 Zn 0.79724 0.64011 0.96506 0.0
Zn142 Zn 0.82172 0.61934 0.04436 0.0
Zn143 Zn 0.78238 0.68981 0.02978 0.0
O144 O 0.7541 0.66872 0.94839 0.0
O145 O 0.74655 0.70416 0.99467 0.0
O146 O 0.87408 0.68399 0.95206 0.0
O147 O 0.83276 0.64926 0.92745 0.0
O148 O 0.79112 0.58642 0.96608 0.0
O149 O 0.8109 0.57354 0.02014 0.0
O150 O 0.79102 0.62498 0.08763 0.0
O151 O 0.8612 0.73202 0.02518 0.0
O152 O 0.75874 0.67158 0.07227 0.0
O153 O 0.80689 0.73323 0.04648 0.0
C154 C 0.90045 0.63337 0.05285 0.0
C155 C 0.73795 0.69397 0.96376 0.0
C156 C 0.79939 0.56382 0.98982 0.0
C157 C 0.86086 0.66787 0.92521 0.0
C158 C 0.76618 0.64679 0.09356 0.0
C159 C 0.8373 0.74728 0.043 0.0
O160 O 0.87247 0.61638 0.06093 0.0
O161 O 0.5516 0.61324 0.34753 0.0
Zn162 Zn 0.53193 0.64831 0.31262 0.0
O163 O 0.51835 0.69203 0.33553 0.0
Zn164 Zn 0.46727 0.69742 0.33408 0.0
Zn165 Zn 0.53674 0.69143 0.38346 0.0
Zn166 Zn 0.53827 0.73158 0.31067 0.0
O167 O 0.45202 0.74051 0.3054 0.0
O168 O 0.50194 0.75248 0.27725 0.0
O169 O 0.49104 0.62715 0.28581 0.0
O170 O 0.44526 0.65752 0.30602 0.0
O171 O 0.44751 0.69452 0.38336 0.0
O172 O 0.4957 0.686 0.41682 0.0
O173 O 0.56401 0.73661 0.39427 0.0
O174 O 0.57163 0.65715 0.27909 0.0
O175 O 0.55642 0.76822 0.34517 0.0
O176 O 0.58015 0.71542 0.28274 0.0
C177 C 0.56911 0.61903 0.376 0.0
C178 C 0.46852 0.75569 0.28031 0.0
C179 C 0.46208 0.68819 0.41331 0.0
C180 C 0.45788 0.63296 0.28688 0.0
C181 C 0.56746 0.7653 0.37696 0.0
C182 C 0.58907 0.68497 0.2714 0.0
O183 O 0.56908 0.64931 0.3911 0.0
O184 O 0.1788 0.47062 0.19003 0.0
Zn185 Zn 0.19198 0.5 0.14721 0.0
O186 O 0.19972 0.46927 0.10665 0.0
Zn187 Zn 0.24248 0.48083 0.082 0.0
Zn188 Zn 0.20155 0.42116 0.12048 0.0
Zn189 Zn 0.16099 0.47422 0.07459 0.0
O190 O 0.23253 0.50814 0.03737 0.0
O191 O 0.17376 0.51115 0.03943 0.0
O192 O 0.23703 0.5281 0.15892 0.0
O193 O 0.26996 0.51311 0.11308 0.0
O194 O 0.27523 0.43906 0.07689 0.0
O195 O 0.25079 0.40423 0.11741 0.0
O196 O 0.17352 0.38974 0.08833 0.0
O197 O 0.14967 0.53115 0.13643 0.0
O198 O 0.14971 0.42761 0.05011 0.0
O199 O 0.11978 0.49454 0.10028 0.0
C200 C 0.17639 0.43712 0.19384 0.0
C201 C 0.20313 0.52057 0.02626 0.0
C202 C 0.27599 0.41195 0.09683 0.0
C203 C 0.26608 0.52962 0.14206 0.0
C204 C 0.1559 0.39604 0.0603 0.0
C205 C 0.12108 0.52177 0.12039 0.0
O206 O 0.1842 0.41586 0.16902 0.0
O207 O 0.7332 0.97602 0.81185 0.0
Zn208 Zn 0.71753 0.99178 0.85866 0.0
O209 O 0.67285 0.01659 0.85184 0.0
Zn210 Zn 0.67913 0.06547 0.86537 0.0
Zn211 Zn 0.65565 0.0137 0.80206 0.0
Zn212 Zn 0.63905 0.9962 0.8839 0.0
O213 O 0.64809 0.08002 0.90445 0.0
O214 O 0.62387 0.02968 0.92247 0.0
O215 O 0.75708 0.02343 0.8791 0.0
O216 O 0.7281 0.07444 0.8821 0.0
O217 O 0.66998 0.09775 0.82514 0.0
O218 O 0.65431 0.06258 0.78038 0.0
O219 O 0.60509 0.99339 0.79935 0.0
O220 O 0.71075 0.9458 0.88525 0.0
O221 O 0.59594 0.9848 0.85669 0.0
O222 O 0.6551 0.94945 0.90292 0.0
C223 C 0.72077 0.97347 0.78057 0.0
C224 C 0.62859 0.06301 0.92558 0.0
C225 C 0.66059 0.09336 0.79308 0.0
C226 C 0.75607 0.05641 0.88657 0.0
C227 C 0.58535 0.98391 0.82476 0.0
C228 C 0.68392 0.93236 0.90045 0.0
O229 O 0.69023 0.98538 0.77215 0.0
O230 O 0.8532 0.95086 0.38486 0.0
Zn231 Zn 0.81603 0.97893 0.35867 0.0
O232 O 0.82406 0.97166 0.30931 0.0
Zn233 Zn 0.81272 0.01342 0.28302 0.0
Zn234 Zn 0.87153 0.95816 0.3001 0.0
Zn235 Zn 0.79592 0.93165 0.29643 0.0
O236 O 0.76852 0.00429 0.25248 0.0
O237 O 0.75521 0.94915 0.2686 0.0
O238 O 0.81441 0.0317 0.37078 0.0
O239 O 0.80339 0.05331 0.31717 0.0
O240 O 0.8563 0.03145 0.25775 0.0
O241 O 0.8981 0.00173 0.28726 0.0
O242 O 0.87345 0.92499 0.25862 0.0
O243 O 0.76955 0.95579 0.37178 0.0
O244 O 0.82085 0.89913 0.26335 0.0
O245 O 0.77543 0.90745 0.33873 0.0
C246 C 0.87971 0.93258 0.37493 0.0
C247 C 0.7479 0.97721 0.25162 0.0
C248 C 0.88865 0.02728 0.26731 0.0
C249 C 0.80717 0.05771 0.35043 0.0
C250 C 0.8508 0.90185 0.24852 0.0
C251 C 0.76097 0.92388 0.36419 0.0
O252 O 0.89028 0.93309 0.34307 0.0
O253 O 0.3288 0.54706 0.61291 0.0
Zn254 Zn 0.30189 0.51852 0.64847 0.0
O255 O 0.32738 0.51828 0.69356 0.0
Zn256 Zn 0.33246 0.46941 0.70977 0.0
Zn257 Zn 0.37356 0.54074 0.68846 0.0
Zn258 Zn 0.30078 0.54562 0.72744 0.0
O259 O 0.30125 0.46007 0.75258 0.0
O260 O 0.27645 0.5128 0.76104 0.0
O261 O 0.29196 0.46919 0.62975 0.0
O262 O 0.31329 0.43595 0.67316 0.0
O263 O 0.38455 0.45558 0.71346 0.0
O264 O 0.41064 0.50351 0.69086 0.0
O265 O 0.38417 0.57547 0.72802 0.0
O266 O 0.25574 0.54389 0.65247 0.0
O267 O 0.3324 0.57881 0.75525 0.0
O268 O 0.26255 0.57381 0.70284 0.0
C269 C 0.3573 0.56536 0.61396 0.0
C270 C 0.27929 0.48005 0.76852 0.0
C271 C 0.41197 0.47188 0.70233 0.0
C272 C 0.29818 0.43891 0.64314 0.0
C273 C 0.36484 0.58764 0.75245 0.0
C274 C 0.24566 0.56754 0.6741 0.0
O275 O 0.37716 0.56614 0.64148 0.0
H276 H 0.17583 0.32369 0.51365 0.0
H277 H 0.22661 0.22963 0.55598 0.0
H278 H 0.26548 0.26766 0.59344 0.0
H279 H 0.25438 0.37806 0.51023 0.0
H280 H 0.2316 0.41799 0.52269 0.0
H281 H 0.2081 0.38333 0.4991 0.0
H282 H 0.1614 0.38058 0.54865 0.0
H283 H 0.18464 0.41532 0.57231 0.0
H284 H 0.17581 0.37363 0.59367 0.0
H285 H 0.29735 0.31608 0.62747 0.0
H286 H 0.32 0.37104 0.65554 0.0
H287 H 0.24905 0.43305 0.58938 0.0
C288 C 0.19508 0.31094 0.53077 0.0
C289 C 0.19811 0.27363 0.53194 0.0
C290 C 0.2238 0.25815 0.55464 0.0
C291 C 0.24601 0.27953 0.57596 0.0
C292 C 0.24229 0.31623 0.57403 0.0
C293 C 0.2175 0.33178 0.55196 0.0
C294 C 0.21853 0.37179 0.55495 0.0
C295 C 0.22877 0.38878 0.51964 0.0
C296 C 0.18299 0.38616 0.56819 0.0
C297 C 0.24765 0.3764 0.58241 0.0
C298 C 0.26101 0.34406 0.5931 0.0
C299 C 0.28726 0.34155 0.61915 0.0
C300 C 0.2999 0.37292 0.63494 0.0
C301 C 0.28639 0.40634 0.62451 0.0
C302 C 0.26022 0.40797 0.5976 0.0
H303 H 0.7684 0.92206 0.79263 0.0
H304 H 0.72685 0.98997 0.71001 0.0
H305 H 0.77607 0.97166 0.67111 0.0
H306 H 0.85505 0.94389 0.7827 0.0
H307 H 0.87263 0.90049 0.79176 0.0
H308 H 0.83099 0.91342 0.81017 0.0
H309 H 0.79975 0.85883 0.78153 0.0
H310 H 0.84155 0.84507 0.76374 0.0
H311 H 0.80378 0.85102 0.73475 0.0
H312 H 0.83481 0.95126 0.64482 0.0
H313 H 0.89441 0.92765 0.632 0.0
H314 H 0.89661 0.87597 0.73424 0.0
C315 C 0.76903 0.93233 0.76595 0.0
C316 C 0.74397 0.95732 0.75415 0.0
C317 C 0.74565 0.97038 0.71925 0.0
C318 C 0.7736 0.96031 0.69717 0.0
C319 C 0.79909 0.93698 0.71048 0.0
C320 C 0.79655 0.92274 0.74393 0.0
C321 C 0.82841 0.90062 0.75356 0.0
C322 C 0.8479 0.91552 0.78648 0.0
C323 C 0.81773 0.86157 0.75868 0.0
C324 C 0.85005 0.90547 0.72077 0.0
C325 C 0.83272 0.92611 0.69595 0.0
C326 C 0.84838 0.93478 0.66396 0.0
C327 C 0.88232 0.92148 0.65703 0.0
C328 C 0.90029 0.90016 0.68223 0.0
C329 C 0.88381 0.89238 0.7145 0.0
H330 H 0.21642 0.72738 0.01656 0.0
H331 H 0.26562 0.71365 0.91433 0.0
H332 H 0.2488 0.65085 0.91404 0.0
H333 H 0.2438 0.65 0.0532 0.0
H334 H 0.20367 0.63966 0.07642 0.0
H335 H 0.21431 0.68496 0.06637 0.0
H336 H 0.1538 0.69175 0.03386 0.0
H337 H 0.14295 0.64631 0.04398 0.0
H338 H 0.14174 0.66127 -0.00116 0.0
H339 H 0.23914 0.58799 0.93037 0.0
H340 H 0.23005 0.53017 0.9601 0.0
H341 H 0.18117 0.5842 0.04785 0.0
C342 C 0.2227 0.71139 0.99369 0.0
C343 C 0.24243 0.72558 0.96563 0.0
C344 C 0.25043 0.70362 0.93624 0.0
C345 C 0.24093 0.66777 0.93569 0.0
C346 C 0.22261 0.65428 0.96425 0.0
C347 C 0.21275 0.67551 0.99234 0.0
C348 C 0.19527 0.65372 0.02077 0.0
C349 C 0.21549 0.6573 0.05626 0.0
C350 C 0.15611 0.66387 0.02457 0.0
C351 C 0.19887 0.6169 0.00514 0.0
C352 C 0.21461 0.61775 0.97243 0.0
C353 C 0.22547 0.58685 0.95529 0.0
C354 C 0.22036 0.55424 0.97223 0.0
C355 C 0.2039 0.55307 0.00542 0.0
C356 C 0.19242 0.5846 0.02167 0.0
H357 H 0.58268 0.08153 0.1835 0.0
H358 H 0.51873 0.99234 0.21795 0.0
H359 H 0.57295 0.95584 0.22215 0.0
H360 H 0.65331 0.03023 0.13648 0.0
H361 H 0.687 0.06055 0.1526 0.0
H362 H 0.6428 0.07628 0.14339 0.0
H363 H 0.63937 0.1012 0.20718 0.0
H364 H 0.68321 0.08544 0.21665 0.0
H365 H 0.64685 0.07187 0.24398 0.0
H366 H 0.63414 0.93281 0.2317 0.0
H367 H 0.69619 0.92612 0.25067 0.0
H368 H 0.7198 0.03235 0.2135 0.0
C369 C 0.57967 0.05399 0.19091 0.0
C370 C 0.54639 0.03972 0.20032 0.0
C371 C 0.54392 0.00376 0.21045 0.0
C372 C 0.57454 0.98282 0.21266 0.0
C373 C 0.60715 -0.00168 0.20448 0.0
C374 C 0.60979 0.03315 0.19376 0.0
C375 C 0.64793 0.04558 0.19211 0.0
C376 C 0.65837 0.05362 0.15386 0.0
C377 C 0.6547 0.07789 0.21644 0.0
C378 C 0.66647 0.01294 0.20567 0.0
C379 C 0.64262 0.98556 0.21144 0.0
C380 C 0.65308 0.95382 0.22674 0.0
C381 C 0.68848 0.9504 0.23756 0.0
C382 C 0.71288 0.97892 0.23378 0.0
C383 C 0.70189 0.01005 0.21651 0.0
H384 H 0.76133 0.20415 0.49499 0.0
H385 H 0.76756 0.28291 0.41197 0.0
H386 H 0.78871 0.23678 0.37082 0.0
H387 H 0.83905 0.15127 0.46818 0.0
H388 H 0.81768 0.11011 0.47968 0.0
H389 H 0.80746 0.15019 0.50346 0.0
H390 H 0.74079 0.14081 0.48871 0.0
H391 H 0.75075 0.10101 0.46455 0.0
H392 H 0.72667 0.13626 0.44322 0.0
H393 H 0.8023 0.18074 0.33717 0.0
H394 H 0.81037 0.12012 0.3142 0.0
H395 H 0.79556 0.07787 0.41948 0.0
C396 C 0.76791 0.21203 0.4684 0.0
C397 C 0.76286 0.24733 0.4568 0.0
C398 C 0.77147 0.25621 0.42162 0.0
C399 C 0.78341 0.23013 0.39802 0.0
C400 C 0.78692 0.19538 0.4101 0.0
C401 C 0.77984 0.18641 0.4446 0.0
C402 C 0.78358 0.14685 0.4505 0.0
C403 C 0.81375 0.13916 0.47703 0.0
C404 C 0.74835 0.13027 0.46244 0.0
C405 C 0.79299 0.1347 0.41365 0.0
C406 C 0.79496 0.16314 0.39079 0.0
C407 C 0.80128 0.15838 0.35494 0.0
C408 C 0.80562 0.12375 0.34213 0.0
C409 C 0.80366 0.09413 0.36503 0.0
C410 C 0.79761 0.0999 0.40136 0.0
H411 H 0.10827 0.3626 0.79081 0.0
H412 H 0.07568 0.43392 0.87412 0.0
H413 H 0.13479 0.46335 0.87298 0.0
H414 H 0.20123 0.35407 0.82221 0.0
H415 H 0.21789 0.35169 0.77787 0.0
H416 H 0.17418 0.33496 0.78734 0.0
H417 H 0.14711 0.37571 0.73919 0.0
H418 H 0.19064 0.3922 0.7293 0.0
H419 H 0.15607 0.42271 0.74096 0.0
H420 H 0.19453 0.4897 0.85628 0.0
H421 H 0.24959 0.50939 0.82721 0.0
H422 H 0.24479 0.41715 0.7587 0.0
C423 C 0.1137 0.3843 0.80896 0.0
C424 C 0.08747 0.39636 0.83231 0.0
C425 C 0.0955 0.42449 0.85597 0.0
C426 C 0.129 0.44117 0.85557 0.0
C427 C 0.15429 0.42875 0.83195 0.0
C428 C 0.14709 0.40059 0.80943 0.0
C429 C 0.17814 0.3929 0.78572 0.0
C430 C 0.19379 0.35623 0.79378 0.0
C431 C 0.16734 0.3961 0.74649 0.0
C432 C 0.20343 0.42225 0.79704 0.0
C433 C 0.18937 0.44254 0.82394 0.0
C434 C 0.20619 0.47345 0.83594 0.0
C435 C 0.2375 0.4844 0.81935 0.0
C436 C 0.25193 0.46428 0.79138 0.0
C437 C 0.23516 0.43228 0.78094 0.0
H438 H 0.73339 0.88191 0.88402 0.0
H439 H 0.63457 0.89686 0.93952 0.0
H440 H 0.6318 0.83272 0.95167 0.0
H441 H 0.71031 0.79596 0.84445 0.0
H442 H 0.75453 0.77878 0.84982 0.0
H443 H 0.74793 0.82565 0.84353 0.0
H444 H 0.78268 0.83959 0.9016 0.0
H445 H 0.79031 0.79297 0.90727 0.0
H446 H 0.76967 0.81811 0.94189 0.0
H447 H 0.64254 0.76845 0.96268 0.0
H448 H 0.66953 0.71063 0.97692 0.0
H449 H 0.75869 0.73594 0.91081 0.0
C450 C 0.71123 0.87177 0.89888 0.0
C451 C 0.68429 0.89455 0.91096 0.0
C452 C 0.65562 0.88004 0.93008 0.0
C453 C 0.6536 0.84355 0.93679 0.0
C454 C 0.68017 0.82177 0.92383 0.0
C455 C 0.70857 0.83536 0.90549 0.0
C456 C 0.73476 0.80658 0.89635 0.0
C457 C 0.737 0.80145 0.85614 0.0
C458 C 0.7715 0.81479 0.91278 0.0
C459 C 0.71733 0.77487 0.91361 0.0
C460 C 0.68554 0.7841 0.92884 0.0
C461 C 0.66683 0.76056 0.95005 0.0
C462 C 0.68206 0.72758 0.95765 0.0
C463 C 0.71537 0.71842 0.94376 0.0
C464 C 0.73228 0.74162 0.92011 0.0
H465 H 0.38551 0.6257 0.29078 0.0
H466 H 0.4762 0.59739 0.22723 0.0
H467 H 0.43609 0.57105 0.18237 0.0
H468 H 0.3348 0.54536 0.27142 0.0
H469 H 0.2928 0.56789 0.27058 0.0
H470 H 0.32867 0.58466 0.29788 0.0
H471 H 0.3234 0.6457 0.26715 0.0
H472 H 0.28787 0.62897 0.23937 0.0
H473 H 0.32673 0.64825 0.21978 0.0
H474 H 0.38734 0.55144 0.14322 0.0
H475 H 0.33245 0.53035 0.11489 0.0
H476 H 0.27214 0.56778 0.20466 0.0
C477 C 0.39689 0.61367 0.26755 0.0
C478 C 0.43395 0.61363 0.26241 0.0
C479 C 0.44792 0.59751 0.23181 0.0
C480 C 0.42537 0.58275 0.20604 0.0
C481 C 0.38901 0.58397 0.21153 0.0
C482 C 0.37477 0.59829 0.24175 0.0
C483 C 0.33467 0.59495 0.24136 0.0
C484 C 0.322 0.57183 0.27213 0.0
C485 C 0.31715 0.63166 0.24195 0.0
C486 C 0.32872 0.57657 0.20609 0.0
C487 C 0.3605 0.57111 0.18924 0.0
C488 C 0.36226 0.55521 0.15622 0.0
C489 C 0.33075 0.54345 0.14031 0.0
C490 C 0.29782 0.54713 0.15764 0.0
C491 C 0.29681 0.56453 0.19076 0.0
H492 H 0.49418 0.23222 0.31287 0.0
H493 H 0.57451 0.15985 0.27527 0.0
H494 H 0.6116 0.17343 0.32789 0.0
H495 H 0.55712 0.29837 0.34842 0.0
H496 H 0.52931 0.30925 0.38521 0.0
H497 H 0.50961 0.2943 0.34413 0.0
H498 H 0.47699 0.24423 0.37757 0.0
H499 H 0.49716 0.25857 0.41864 0.0
H500 H 0.50231 0.21342 0.40385 0.0
H501 H 0.63703 0.1903 0.3866 0.0
H502 H 0.65542 0.218 0.44285 0.0
H503 H 0.5608 0.28312 0.44083 0.0
C504 C 0.51982 0.21967 0.31552 0.0
C505 C 0.53154 0.19497 0.29013 0.0
C506 C 0.56523 0.17909 0.2943 0.0
C507 C 0.5863 0.18637 0.32423 0.0
C508 C 0.5735 0.21004 0.34928 0.0
C509 C 0.54153 0.2272 0.34485 0.0
C510 C 0.53452 0.25225 0.37535 0.0
C511 C 0.53254 0.29083 0.3625 0.0
C512 C 0.50074 0.24145 0.395 0.0
C513 C 0.56738 0.2461 0.39785 0.0
C514 C 0.58915 0.22119 0.38253 0.0
C515 C 0.62044 0.21013 0.3987 0.0
C516 C 0.63044 0.22582 0.43087 0.0
C517 C 0.6095 0.25275 0.44626 0.0
C518 C 0.57731 0.26264 0.42968 0.0
H519 H 0.04384 0.286 0.54138 0.0
H520 H 0.00247 0.17854 0.53265 0.0
H521 H 0.98472 0.18084 0.59492 0.0
H522 H 0.0839 0.27686 0.61973 0.0
H523 H 0.07406 0.31993 0.63779 0.0
H524 H 0.07612 0.31392 0.59076 0.0
H525 H 0.01231 0.33786 0.58277 0.0
H526 H 0.01028 0.34524 0.62977 0.0
H527 H 0.97678 0.31862 0.60777 0.0
H528 H 0.98296 0.19021 0.66062 0.0
H529 H 0.98728 0.21054 0.72281 0.0
H530 H 0.03022 0.31129 0.68772 0.0
C531 C 0.02963 0.2635 0.55202 0.0
C532 C 0.02483 0.23204 0.53217 0.0
C533 C 0.00649 0.203 0.54731 0.0
C534 C -0.00358 0.20395 0.58276 0.0
C535 C 0.00426 0.23434 0.6024 0.0
C536 C 0.01946 0.26401 0.58729 0.0
C537 C 0.02799 0.29215 0.6147 0.0
C538 C 0.06787 0.30121 0.61578 0.0
C539 C 0.00549 0.32544 0.60838 0.0
C540 C 0.01684 0.27299 0.64768 0.0
C541 C 0.003 0.23979 0.64016 0.0
C542 C 0.99302 0.21648 0.6668 0.0
C543 C -0.00393 0.22802 0.70202 0.0
C544 C 0.00903 0.26247 0.71003 0.0
C545 C 0.01996 0.28487 0.68242 0.0
H546 H 0.97453 0.76805 0.78252 0.0
H547 H 0.92327 0.70292 0.70167 0.0
H548 H 0.89462 0.66744 0.74845 0.0
H549 H 0.98899 0.6977 0.84768 0.0
H550 H 0.98002 0.72708 0.88411 0.0
H551 H -0.0008 0.74432 0.84434 0.0
H552 H 0.94801 0.78963 0.83883 0.0
H553 H 0.92862 0.77251 0.87842 0.0
H554 H 0.90278 0.77389 0.83805 0.0
H555 H 0.86722 0.64337 0.80436 0.0
H556 H 0.84387 0.63227 0.86388 0.0
H557 H 0.91396 0.71385 0.907 0.0
C558 C 0.95767 0.74604 0.77444 0.0
C559 C 0.95104 0.73829 0.7384 0.0
C560 C 0.92881 0.70923 0.72913 0.0
C561 C 0.91248 0.68896 0.7555 0.0
C562 C 0.91907 0.69797 0.79082 0.0
C563 C 0.94139 0.72569 0.80021 0.0
C564 C 0.94258 0.73166 0.8397 0.0
C565 C 0.97992 0.72477 0.85484 0.0
C566 C 0.92972 0.76913 0.84929 0.0
C567 C 0.91662 0.70356 0.85123 0.0
C568 C 0.90356 0.68414 0.82277 0.0
C569 C 0.87763 0.6581 0.82684 0.0
C570 C 0.86447 0.65209 0.86077 0.0
C571 C 0.87716 0.67216 0.89018 0.0
C572 C 0.90399 0.69778 0.88522 0.0
H573 H 0.48958 0.76979 0.21252 0.0
H574 H 0.40012 0.77959 0.28273 0.0
H575 H 0.36319 0.80091 0.23296 0.0
H576 H 0.46809 0.84694 0.155 0.0
H577 H 0.48204 0.82415 0.11567 0.0
H578 H 0.50283 0.81441 0.15764 0.0
H579 H 0.48733 0.74791 0.14905 0.0
H580 H 0.46618 0.75744 0.1073 0.0
H581 H 0.44183 0.73487 0.14121 0.0
H582 H 0.33453 0.81542 0.1753 0.0
H583 H 0.31551 0.82267 0.1135 0.0
H584 H 0.42295 0.8027 0.07908 0.0
C585 C 0.46251 0.77742 0.21769 0.0
C586 C 0.44788 0.77339 0.25175 0.0
C587 C 0.41203 0.78269 0.25704 0.0
C588 C 0.39084 0.79485 0.2289 0.0
C589 C 0.40582 0.79755 0.19554 0.0
C590 C 0.44087 0.7893 0.18977 0.0
C591 C 0.44956 0.79183 0.15075 0.0
C592 C 0.47727 0.82108 0.1444 0.0
C593 C 0.46195 0.75587 0.13624 0.0
C594 C 0.41365 0.8019 0.13536 0.0
C595 C 0.38899 0.8054 0.16184 0.0
C596 C 0.35366 0.81299 0.1544 0.0
C597 C 0.34309 0.81681 0.11905 0.0
C598 C 0.36765 0.81301 0.09121 0.0
C599 C 0.40358 0.80593 0.09966 0.0
H600 H 0.12947 0.27688 0.31779 0.0
H601 H 0.12369 0.35016 0.40613 0.0
H602 H 0.13263 0.40057 0.36522 0.0
H603 H 0.19741 0.31878 0.27345 0.0
H604 H 0.17957 0.3097 0.22992 0.0
H605 H 0.16949 0.28046 0.26581 0.0
H606 H 0.10217 0.28912 0.25401 0.0
H607 H 0.11206 0.31831 0.21789 0.0
H608 H 0.08421 0.3333 0.25319 0.0
H609 H 0.14766 0.44233 0.31398 0.0
H610 H 0.16548 0.47079 0.25788 0.0
H611 H 0.15969 0.36825 0.20542 0.0
C612 C 0.12974 0.30354 0.32859 0.0
C613 C 0.12611 0.30973 0.36503 0.0
C614 C 0.12631 0.34498 0.37813 0.0
C615 C 0.13139 0.37369 0.35515 0.0
C616 C 0.1356 0.3665 0.31927 0.0
C617 C 0.13438 0.33221 0.30617 0.0
C618 C 0.14084 0.33092 0.26704 0.0
C619 C 0.17379 0.30867 0.25859 0.0
C620 C 0.10785 0.31711 0.24685 0.0
C621 C 0.14712 0.36974 0.26017 0.0
C622 C 0.14374 0.39011 0.29033 0.0
C623 C 0.14997 0.42664 0.29013 0.0
C624 C 0.16011 0.44256 0.25824 0.0
C625 C 0.1641 0.42174 0.22732 0.0
C626 C 0.15702 0.38502 0.22852 0.0
H627 H 0.89273 0.82564 0.55306 0.0
H628 H 0.98621 0.77525 0.51211 0.0
H629 H 0.97218 0.79855 0.45268 0.0
H630 H 0.83592 0.8228 0.46626 0.0
H631 H 0.81872 0.86598 0.47687 0.0
H632 H 0.82892 0.83507 0.5117 0.0
H633 H 0.86896 0.88299 0.5412 0.0
H634 H 0.86069 0.91343 0.50582 0.0
H635 H 0.90558 0.90128 0.517 0.0
H636 H 0.95734 0.84036 0.40328 0.0
H637 H 0.93718 0.88926 0.36484 0.0
H638 H 0.8551 0.91457 0.44003 0.0
C639 C 0.90853 0.81726 0.53088 0.0
C640 C 0.9399 0.79798 0.53664 0.0
C641 C 0.96138 0.78895 0.50774 0.0
C642 C 0.95384 0.80257 0.47403 0.0
C643 C 0.92454 0.82469 0.46993 0.0
C644 C 0.90152 0.83105 0.49739 0.0
C645 C 0.87545 0.86006 0.4882 0.0
C646 C 0.83751 0.84507 0.48559 0.0
C647 C 0.87787 0.89124 0.51462 0.0
C648 C 0.88885 0.87065 0.45237 0.0
C649 C 0.9167 0.84964 0.4419 0.0
C650 C 0.93493 0.85635 0.41082 0.0
C651 C 0.9236 0.8845 0.3894 0.0
C652 C 0.89462 0.90591 0.39943 0.0
C653 C 0.87739 0.89887 0.43154 0.0
H654 H 0.35683 0.65842 0.7491 0.0
H655 H 0.40365 0.57519 0.81224 0.0
H656 H 0.42041 0.61934 0.8585 0.0
H657 H 0.42118 0.73111 0.77618 0.0
H658 H 0.38628 0.76353 0.77607 0.0
H659 H 0.38425 0.72657 0.74573 0.0
H660 H 0.32224 0.70935 0.76928 0.0
H661 H 0.32409 0.74614 0.79947 0.0
H662 H 0.31694 0.70193 0.81593 0.0
H663 H 0.42242 0.67098 0.90159 0.0
H664 H 0.40874 0.72433 0.93717 0.0
H665 H 0.36301 0.7737 0.84401 0.0
C666 C 0.37171 0.64989 0.77219 0.0
C667 C 0.37955 0.61389 0.77726 0.0
C668 C 0.39807 0.603 0.80798 0.0
C669 C 0.4077 0.62786 0.83421 0.0
C670 C 0.39895 0.66337 0.82886 0.0
C671 C 0.38171 0.67436 0.79832 0.0
C672 C 0.37177 0.71302 0.80034 0.0
C673 C 0.3921 0.73484 0.77295 0.0
C674 C 0.33139 0.71786 0.79603 0.0
C675 C 0.38436 0.72169 0.83746 0.0
C676 C 0.40053 0.69303 0.85343 0.0
C677 C 0.4106 0.69387 0.88908 0.0
C678 C 0.40282 0.7243 0.9091 0.0
C679 C 0.38486 0.75317 0.89337 0.0
C680 C 0.37701 0.75219 0.8568 0.0
H681 H 0.48136 0.09867 0.06911 0.0
H682 H 0.53838 0.19535 0.0967 0.0
H683 H 0.57882 0.18545 0.04679 0.0
H684 H 0.55569 0.04928 0.05311 0.0
H685 H 0.53713 0.02354 0.01705 0.0
H686 H 0.50857 0.04123 0.05035 0.0
H687 H 0.47114 0.07338 0.0025 0.0
H688 H 0.49915 0.05519 0.96886 0.0
H689 H 0.49279 0.10244 0.97175 0.0
H690 H 0.61589 0.16225 -0.00213 0.0
H691 H 0.64742 0.12751 0.95291 0.0
H692 H 0.56832 0.04383 0.96033 0.0
C693 C 0.50153 0.11845 0.06382 0.0
C694 C 0.50651 0.14811 0.08621 0.0
C695 C 0.53402 0.17271 0.07945 0.0
C696 C 0.55704 0.16728 0.05125 0.0
C697 C 0.55224 0.137 0.03046 0.0
C698 C 0.52511 0.11304 0.03633 0.0
C699 C 0.528 0.08072 0.01275 0.0
C700 C 0.53263 0.0467 0.03463 0.0
C701 C 0.49586 0.07778 0.98746 0.0
C702 C 0.5614 0.08993 0.99317 0.0
C703 C 0.57465 0.12272 0.00339 0.0
C704 C 0.60565 0.13667 0.98943 0.0
C705 C 0.62339 0.1167 0.96404 0.0
C706 C 0.61033 0.08296 0.95333 0.0
C707 C 0.57903 0.06941 0.96825 0.0
H708 H 0.67228 0.1993 0.61201 0.0
H709 H 0.6772 0.2957 0.67534 0.0
H710 H 0.66894 0.26048 0.72915 0.0
H711 H 0.60553 0.15407 0.66377 0.0
H712 H 0.62579 0.11119 0.659 0.0
H713 H 0.63072 0.14397 0.62491 0.0
H714 H 0.69909 0.13887 0.62996 0.0
H715 H 0.69437 0.10596 0.66389 0.0
H716 H 0.72061 0.14528 0.67234 0.0
H717 H 0.66229 0.21549 0.77599 0.0
H718 H 0.65956 0.16266 0.81379 0.0
H719 H 0.6586 0.0951 0.7205 0.0
C720 C 0.67145 0.21304 0.63716 0.0
C721 C 0.67534 0.25028 0.63941 0.0
C722 C 0.67431 0.2672 0.67289 0.0
C723 C 0.66948 0.24747 0.70364 0.0
C724 C 0.66567 0.21089 0.70047 0.0
C725 C 0.66668 0.19376 0.66818 0.0
C726 C 0.66315 0.15398 0.6724 0.0
C727 C 0.62928 0.13999 0.65392 0.0
C728 C 0.69628 0.13491 0.65885 0.0
C729 C 0.66046 0.1515 0.71216 0.0
C730 C 0.66174 0.18469 0.72774 0.0
C731 C 0.66104 0.18933 0.76417 0.0
C732 C 0.65953 0.15913 0.78538 0.0
C733 C 0.6588 0.12476 0.77008 0.0
C734 C 0.65872 0.12101 0.73294 0.0
H735 H 0.15986 0.38998 0.98904 0.0
H736 H 0.12682 0.33416 0.08283 0.0
H737 H 0.10556 0.28395 0.04582 0.0
H738 H 0.09097 0.37091 0.93598 0.0
H739 H 0.11574 0.36421 0.89614 0.0
H740 H 0.13373 0.3918 0.93059 0.0
H741 H 0.19017 0.35283 0.93141 0.0
H742 H 0.17126 0.32488 0.89718 0.0
H743 H 0.18622 0.3057 0.93825 0.0
H744 H 0.07478 0.24916 -0.00056 0.0
H745 H 0.03664 0.23414 0.94803 0.0
H746 H 0.09668 0.3061 0.88333 0.0
C747 C 0.14865 0.36682 0.00163 0.0
C748 C 0.14434 0.36583 0.03846 0.0
C749 C 0.13004 0.33523 0.05446 0.0
C750 C 0.11835 0.30651 0.03372 0.0
C751 C 0.12252 0.30834 -0.00277 0.0
C752 C 0.13796 0.3375 0.98138 0.0
C753 C 0.13608 0.33463 0.9416 0.0
C754 C 0.118 0.36733 0.92521 0.0
C755 C 0.17314 0.32917 0.92622 0.0
C756 C 0.11364 0.30139 0.93751 0.0
C757 C 0.10699 0.28593 0.96993 0.0
C758 C 0.08099 0.25976 0.97373 0.0
C759 C 0.05959 0.25108 0.94438 0.0
C760 C 0.06488 0.26812 0.91178 0.0
C761 C 0.0937 0.29149 0.9077 0.0
H762 H 0.80187 0.86485 0.20979 0.0
H763 H 0.91383 0.89213 0.21387 0.0
H764 H 0.92234 0.86027 0.15722 0.0
H765 H 0.81056 0.7782 0.17436 0.0
H766 H 0.77097 0.78148 0.14744 0.0
H767 H 0.77481 0.80649 0.18786 0.0
H768 H 0.76226 0.86431 0.15297 0.0
H769 H 0.75916 0.83946 0.11229 0.0
H770 H 0.79005 0.87596 0.11638 0.0
H771 H 0.91823 0.82234 0.10107 0.0
H772 H 0.9024 0.78005 0.05306 0.0
H773 H 0.79247 0.78321 0.08542 0.0
C774 C 0.82832 0.86398 0.19907 0.0
C775 C 0.85726 0.88071 0.21638 0.0
C776 C 0.8913 0.87929 0.20107 0.0
C777 C 0.89633 0.86148 0.16886 0.0
C778 C 0.86695 0.84579 0.1522 0.0
C779 C 0.83365 0.84695 0.16693 0.0
C780 C 0.80633 0.8278 0.14442 0.0
C781 C 0.78972 0.79665 0.16472 0.0
C782 C 0.77778 0.85342 0.1307 0.0
C783 C 0.8295 0.81499 0.11491 0.0
C784 C 0.86438 0.82558 0.1196 0.0
C785 C 0.8909 0.8143 0.09688 0.0
C786 C 0.88164 0.79047 0.06955 0.0
C787 C 0.84618 0.77837 0.06537 0.0
C788 C 0.81978 0.79209 0.08756 0.0
H789 H 0.42252 0.59264 0.59597 0.0
H790 H 0.31223 0.58781 0.56188 0.0
H791 H 0.32627 0.62463 0.51026 0.0
H792 H 0.44095 0.68338 0.56649 0.0
H793 H 0.48484 0.67279 0.55162 0.0
H794 H 0.46582 0.64864 0.58778 0.0
H795 H 0.47591 0.58937 0.55458 0.0
H796 H 0.49522 0.61331 0.51854 0.0
H797 H 0.45822 0.58378 0.51041 0.0
H798 H 0.35226 0.6597 0.46114 0.0
H799 H 0.38945 0.68578 0.41488 0.0
H800 H 0.48332 0.66677 0.47966 0.0
C801 C 0.40129 0.59968 0.57784 0.0
C802 C 0.36626 0.58744 0.58305 0.0
C803 C 0.3393 0.59675 0.5584 0.0
C804 C 0.34693 0.6179 0.52912 0.0
C805 C 0.3817 0.62947 0.52469 0.0
C806 C 0.40853 0.62046 0.54815 0.0
C807 C 0.4441 0.63411 0.53572 0.0
C808 C 0.45985 0.66135 0.56197 0.0
C809 C 0.46987 0.60331 0.52943 0.0
C810 C 0.4331 0.6516 0.50132 0.0
C811 C 0.3969 0.64913 0.4958 0.0
C812 C 0.38063 0.66201 0.46525 0.0
C813 C 0.40202 0.67688 0.43912 0.0
C814 C 0.43938 0.67843 0.44351 0.0
C815 C 0.45487 0.66635 0.47551 0.0
H816 H 0.26842 0.17511 0.41817 0.0
H817 H 0.19512 0.10045 0.36918 0.0
H818 H 0.24542 0.06722 0.34431 0.0
H819 H 0.31876 0.18479 0.34608 0.0
H820 H 0.3607 0.19014 0.36897 0.0
H821 H 0.32044 0.20134 0.39084 0.0
H822 H 0.3371 0.15837 0.4417 0.0
H823 H 0.37731 0.14659 0.41936 0.0
H824 H 0.34623 0.11254 0.43184 0.0
H825 H 0.30148 0.04758 0.31817 0.0
H826 H 0.35585 0.05053 0.28281 0.0
H827 H 0.3922 0.14109 0.34426 0.0
C828 C 0.26331 0.15113 0.40303 0.0
C829 C 0.22843 0.1398 0.3957 0.0
C830 C 0.22201 0.10918 0.37496 0.0
C831 C 0.25035 0.08994 0.36127 0.0
C832 C 0.28473 0.10203 0.3684 0.0
C833 C 0.29127 0.13231 0.38835 0.0
C834 C 0.32954 0.14402 0.38602 0.0
C835 C 0.3325 0.1823 0.37211 0.0
C836 C 0.34867 0.14013 0.42187 0.0
C837 C 0.34286 0.11717 0.35964 0.0
C838 C 0.31718 0.09201 0.3513 0.0
C839 C 0.32208 0.06663 0.32495 0.0
C840 C 0.35307 0.06836 0.30511 0.0
C841 C 0.37792 0.09595 0.31121 0.0
C842 C 0.37362 0.11947 0.33977 0.0
H843 H 0.06082 0.07046 0.49293 0.0
H844 H 0.1707 0.08271 0.52674 0.0
H845 H 0.16893 0.02288 0.55311 0.0
H846 H 0.03157 0.02845 0.56969 0.0
H847 H 0.00066 -0.00056 0.5469 0.0
H848 H 0.01185 0.04173 0.5282 0.0
H849 H 0.03097 0.01045 0.47041 0.0
H850 H 0.02001 0.96797 0.48908 0.0
H851 H 0.06383 0.97599 0.47239 0.0
H852 H 0.15407 0.9626 0.57793 0.0
H853 H 0.12598 0.90907 0.60307 0.0
H854 H 0.02595 0.93795 0.55333 0.0
C855 C 0.08469 0.06049 0.50552 0.0
C856 C 0.11593 0.08116 0.50768 0.0
C857 C 0.14643 0.0673 0.52483 0.0
C858 C 0.14576 0.03329 0.53966 0.0
C859 C 0.11444 0.01363 0.53706 0.0
C860 C 0.08443 0.02685 0.52056 0.0
C861 C 0.05339 0.00161 0.52331 0.0
C862 C 0.02257 0.01884 0.54322 0.0
C863 C 0.04136 0.98821 0.48661 0.0
C864 C 0.07038 0.97239 0.54461 0.0
C865 C 0.10573 0.97943 0.55184 0.0
C866 C 0.12647 0.95667 0.57224 0.0
C867 C 0.11034 0.92632 0.5863 0.0
C868 C 0.07381 0.91948 0.58019 0.0
C869 C 0.05393 0.9425 0.55849 0.0
H870 H 0.13666 0.84179 0.72844 0.0
H871 H 0.05295 0.90003 0.78002 0.0
H872 H 0.09513 0.91735 0.82792 0.0
H873 H 0.17183 0.80515 0.80478 0.0
H874 H 0.2172 0.80684 0.79056 0.0
H875 H 0.18186 0.80363 0.75838 0.0
H876 H 0.20512 0.86037 0.7277 0.0
H877 H 0.24058 0.86383 0.75993 0.0
H878 H 0.21103 0.90061 0.75305 0.0
H879 H 0.14615 0.92493 0.87199 0.0
H880 H 0.19896 0.91701 0.91076 0.0
H881 H 0.24695 0.85129 0.83045 0.0
C882 C 0.12728 0.85885 0.74937 0.0
C883 C 0.09166 0.86993 0.75035 0.0
C884 C 0.08023 0.8914 0.77872 0.0
C885 C 0.10403 0.90153 0.80588 0.0
C886 C 0.13897 0.88979 0.8042 0.0
C887 C 0.1504 0.8687 0.77671 0.0
C888 C 0.188 0.85636 0.78259 0.0
C889 C 0.1898 0.8156 0.78419 0.0
C890 C 0.21263 0.8712 0.75413 0.0
C891 C 0.19583 0.87308 0.81815 0.0
C892 C 0.16762 0.89294 0.82994 0.0
C893 C 0.16848 0.90969 0.86287 0.0
C894 C 0.19858 0.90519 0.88463 0.0
C895 C 0.22687 0.88353 0.87349 0.0
C896 C 0.22567 0.86803 0.83957 0.0
H897 H 0.37132 -0.00122 0.17098 0.0
H898 H 0.32114 0.09314 0.12899 0.0
H899 H 0.2745 0.05618 0.10125 0.0
H900 H 0.3636 0.94958 0.09757 0.0
H901 H 0.3549 0.90763 0.11853 0.0
H902 H 0.37858 0.94169 0.14227 0.0
H903 H 0.33229 0.93817 0.19221 0.0
H904 H 0.30822 0.9043 0.16791 0.0
H905 H 0.28593 0.94405 0.1818 0.0
H906 H 0.2429 0.0106 0.06709 0.0
H907 H 0.23147 0.95993 0.02703 0.0
H908 H 0.29838 0.89373 0.09232 0.0
C909 C 0.34983 0.01169 0.15694 0.0
C910 C 0.34986 0.04883 0.15218 0.0
C911 C 0.32176 0.06472 0.13293 0.0
C912 C 0.29486 0.04395 0.11741 0.0
C913 C 0.29613 0.0073 0.12163 0.0
C914 C 0.32281 0.99124 0.1411 0.0
C915 C 0.32134 0.95127 0.13689 0.0
C916 C 0.35666 0.93673 0.12295 0.0
C917 C 0.31133 0.9334 0.17179 0.0
C918 C 0.29158 0.94765 0.10977 0.0
C919 C 0.27662 0.98024 0.10218 0.0
C920 C 0.25323 0.98472 0.07369 0.0
C921 C 0.24664 0.95581 0.05115 0.0
C922 C 0.26304 0.92291 0.05759 0.0
C923 C 0.28413 0.91826 0.0882 0.0
H924 H 0.90456 0.31836 0.70303 0.0
H925 H 0.9083 0.42767 0.73845 0.0
H926 H 0.87395 0.4456 0.68509 0.0
H927 H 0.91112 0.33909 0.60597 0.0
H928 H 0.88227 0.30241 0.59457 0.0
H929 H 0.91105 0.29977 0.63288 0.0
H930 H 0.85659 0.286 0.67189 0.0
H931 H 0.82796 0.28863 0.63375 0.0
H932 H 0.81972 0.31621 0.67174 0.0
H933 H 0.82963 0.44878 0.6349 0.0
H934 H 0.7819 0.43747 0.59055 0.0
H935 H 0.81282 0.32745 0.58421 0.0
C936 C 0.89856 0.34614 0.69912 0.0
C937 C 0.90845 0.37172 0.72464 0.0
C938 C 0.90069 0.40785 0.71893 0.0
C939 C 0.88143 0.41819 0.68872 0.0
C940 C 0.87142 0.39215 0.66415 0.0
C941 C 0.88036 0.35694 0.66875 0.0
C942 C 0.86471 0.33369 0.63983 0.0
C943 C 0.89404 0.3178 0.61696 0.0
C944 C 0.84082 0.30445 0.65523 0.0
C945 C 0.84347 0.36087 0.61949 0.0
C946 C 0.84796 0.39457 0.63362 0.0
C947 C 0.82694 0.4229 0.62266 0.0
C948 C 0.80003 0.41636 0.59745 0.0
C949 C 0.79498 0.38199 0.58324 0.0
C950 C 0.81759 0.35428 0.59355 0.0
H951 H 0.87815 0.42134 0.86189 0.0
H952 H 0.91767 0.36962 0.95637 0.0
H953 H 0.87845 0.40687 0.99284 0.0
H954 H 0.88022 0.50637 0.89834 0.0
H955 H 0.84149 0.52192 0.87485 0.0
H956 H 0.86768 0.48703 0.85633 0.0
H957 H 0.81154 0.44709 0.85205 0.0
H958 H 0.78534 0.48181 0.87132 0.0
H959 H 0.78627 0.43847 0.89119 0.0
H960 H 0.83838 0.45165 0.01896 0.0
H961 H 0.81082 0.50837 0.03457 0.0
H962 H 0.80054 0.53437 0.92332 0.0
C963 C 0.87796 0.41755 0.89023 0.0
C964 C 0.90042 0.3925 0.9065 0.0
C965 C 0.90049 0.38874 0.94361 0.0
C966 C 0.87801 0.40941 0.96438 0.0
C967 C 0.85603 0.43392 0.94756 0.0
C968 C 0.85639 0.4386 0.91138 0.0
C969 C 0.8344 0.47028 0.90041 0.0
C970 C 0.85732 0.49804 0.88139 0.0
C971 C 0.80249 0.4587 0.87738 0.0
C972 C 0.82262 0.48347 0.9362 0.0
C973 C 0.83434 0.46131 0.96288 0.0
C974 C 0.82888 0.46909 -0.00167 0.0
C975 C 0.81307 0.50141 0.00691 0.0
C976 C 0.8037 0.526 0.98018 0.0
C977 C 0.80688 0.51599 0.94434 0.0
H978 H 0.70862 0.60985 0.11701 0.0
H979 H 0.78559 0.69096 0.14585 0.0
H980 H 0.75057 0.70655 0.19821 0.0
H981 H 0.63497 0.65738 0.13628 0.0
H982 H 0.60895 0.62182 0.15451 0.0
H983 H 0.6428 0.61216 0.12298 0.0
H984 H 0.67306 0.56912 0.167 0.0
H985 H 0.63881 0.57804 0.19851 0.0
H986 H 0.68473 0.58445 0.21083 0.0
H987 H 0.70283 0.72046 0.24014 0.0
H988 H 0.64804 0.727 0.27448 0.0
H989 H 0.60256 0.63527 0.22063 0.0
C990 C 0.71875 0.62964 0.13542 0.0
C991 C 0.75005 0.64866 0.12833 0.0
C992 C 0.76204 0.67559 0.15173 0.0
C993 C 0.74227 0.68471 0.18134 0.0
C994 C 0.71077 0.66638 0.18714 0.0
C995 C 0.69937 0.63888 0.16535 0.0
C996 C 0.66311 0.62555 0.176 0.0
C997 C 0.63587 0.62948 0.14563 0.0
C998 C 0.66506 0.587 0.18886 0.0
C999 C 0.65541 0.65077 0.20613 0.0
C1000 C 0.68328 0.67407 0.21211 0.0
C1001 C 0.68115 0.70184 0.23637 0.0
C1002 C 0.64985 0.70557 0.25545 0.0
C1003 C 0.62133 0.68148 0.2503 0.0
C1004 C 0.62427 0.65367 0.22545 0.0
H1005 H 0.61462 0.42049 0.4293 0.0
H1006 H 0.71609 0.45869 0.46951 0.0
H1007 H 0.70159 0.51914 0.44864 0.0
H1008 H 0.61256 0.47762 0.34974 0.0
H1009 H 0.56526 0.48333 0.35219 0.0
H1010 H 0.58524 0.44296 0.36783 0.0
H1011 H 0.55595 0.45238 0.42864 0.0
H1012 H 0.53641 0.49306 0.41346 0.0
H1013 H 0.56411 0.49309 0.45263 0.0
H1014 H 0.67193 0.57669 0.43093 0.0
H1015 H 0.63371 0.62526 0.40897 0.0
H1016 H 0.55387 0.54821 0.37631 0.0
C1017 C 0.63412 0.44144 0.43295 0.0
C1018 C 0.66648 0.43507 0.45092 0.0
C1019 C 0.69134 0.46304 0.4554 0.0
C1020 C 0.6832 0.49745 0.44389 0.0
C1021 C 0.65048 0.50309 0.42729 0.0
C1022 C 0.62675 0.47564 0.42099 0.0
C1023 C 0.59321 0.48865 0.40303 0.0
C1024 C 0.58883 0.47216 0.366 0.0
C1025 C 0.56051 0.48136 0.42581 0.0
C1026 C 0.6013 0.5279 0.40104 0.0
C1027 C 0.63429 0.53582 0.41548 0.0
C1028 C 0.64638 0.57071 0.41891 0.0
C1029 C 0.62442 0.5981 0.40667 0.0
C1030 C 0.59109 0.59033 0.39074 0.0
C1031 C 0.5795 0.55478 0.38792 0.0
H1032 H 0.2818 0.34434 0.07531 0.0
H1033 H 0.33807 0.42984 0.12853 0.0
H1034 H 0.38049 0.38681 0.15393 0.0
H1035 H 0.28237 0.28761 0.14102 0.0
H1036 H 0.28946 0.2472 0.1166 0.0
H1037 H 0.26912 0.28443 0.09516 0.0
H1038 H 0.31719 0.28482 0.04699 0.0
H1039 H 0.33702 0.24649 0.06733 0.0
H1040 H 0.36339 0.28569 0.05981 0.0
H1041 H 0.40617 0.33397 0.18464 0.0
H1042 H 0.4222 0.2752 0.20883 0.0
H1043 H 0.35074 0.22453 0.13314 0.0
C1044 C 0.30446 0.35401 0.09047 0.0
C1045 C 0.30758 0.39011 0.09941 0.0
C1046 C 0.33626 0.40222 0.12065 0.0
C1047 C 0.36015 0.37795 0.13543 0.0
C1048 C 0.35506 0.34203 0.12798 0.0
C1049 C 0.32868 0.33019 0.10494 0.0
C1050 C 0.32656 0.29016 0.10394 0.0
C1051 C 0.2897 0.2766 0.11484 0.0
C1052 C 0.33666 0.27595 0.06735 0.0
C1053 C 0.35444 0.28138 0.13143 0.0
C1054 C 0.3706 0.31155 0.14506 0.0
C1055 C 0.39453 0.31009 0.17341 0.0
C1056 C 0.40304 0.27676 0.18733 0.0
C1057 C 0.38776 0.24559 0.17262 0.0
C1058 C 0.36311 0.24804 0.14448 0.0
H1059 H 0.91486 0.17257 0.82439 0.0
H1060 H 0.8787 0.24908 0.90143 0.0
H1061 H 0.8424 0.20269 0.92958 0.0
H1062 H 0.832 0.13428 0.81031 0.0
H1063 H 0.8477 0.08973 0.80362 0.0
H1064 H 0.87612 0.12681 0.79426 0.0
H1065 H 0.92384 0.1011 0.83676 0.0
H1066 H 0.89504 0.06424 0.84673 0.0
H1067 H 0.91261 0.0918 0.88192 0.0
H1068 H 0.80559 0.15151 0.94521 0.0
H1069 H 0.76248 0.10233 0.94097 0.0
H1070 H 0.81923 0.05836 0.8525 0.0
C1071 C 0.89979 0.17914 0.84765 0.0
C1072 C 0.89965 0.21408 0.86114 0.0
C1073 C 0.87901 0.22232 0.89088 0.0
C1074 C 0.85874 0.19608 0.90727 0.0
C1075 C 0.85916 0.16181 0.89333 0.0
C1076 C 0.87863 0.15336 0.86381 0.0
C1077 C 0.86988 0.11617 0.85079 0.0
C1078 C 0.85555 0.11681 0.8125 0.0
C1079 C 0.90228 0.09189 0.85427 0.0
C1080 C 0.84134 0.10568 0.87668 0.0
C1081 C 0.8366 0.13201 0.90174 0.0
C1082 C 0.80948 0.13037 0.92625 0.0
C1083 C 0.78524 0.10226 0.92381 0.0
C1084 C 0.78815 0.07633 0.89695 0.0
C1085 C 0.81741 0.07711 0.87413 0.0
H1086 H 0.05202 0.50181 0.11215 0.0
H1087 H 0.12 0.59367 0.12907 0.0
H1088 H 0.06866 0.63302 0.11929 0.0
H1089 H 0.00335 0.53426 0.04341 0.0
H1090 H 0.9613 0.5155 0.05587 0.0
H1091 H 0.0018 0.49449 0.06962 0.0
H1092 H 0.98307 0.49861 0.1351 0.0
H1093 H 0.94214 0.51922 0.12152 0.0
H1094 H 0.97086 0.54094 0.15343 0.0
H1095 H 0.0131 0.66164 0.09687 0.0
H1096 H 0.95509 0.67786 0.07054 0.0
H1097 H 0.92238 0.56745 0.07213 0.0
C1098 C 0.05583 0.53019 0.11482 0.0
C1099 C 0.08979 0.54482 0.12142 0.0
C1100 C 0.09402 0.58202 0.12447 0.0
C1101 C 0.06507 0.60453 0.11884 0.0
C1102 C 0.0321 0.58927 0.11106 0.0
C1103 C 0.02716 0.55293 0.10991 0.0
C1104 C 0.98963 0.5432 0.0989 0.0
C1105 C 0.98902 0.52055 0.06494 0.0
C1106 C 0.97028 0.52439 0.12904 0.0
C1107 C 0.97467 0.5797 0.0924 0.0
C1108 C -0.00045 0.60594 0.09961 0.0
C1109 C 0.99307 0.64146 0.09206 0.0
C1110 C 0.96025 0.65037 0.07688 0.0
C1111 C 0.93433 0.62389 0.06981 0.0
C1112 C 0.94151 0.58824 0.07809 0.0
H1113 H 0.75297 0.85398 0.37925 0.0
H1114 H 0.70035 0.95546 0.38636 0.0
H1115 H 0.64471 0.9251 0.40266 0.0
H1116 H 0.68859 0.80912 0.33821 0.0
H1117 H 0.69358 0.76752 0.36094 0.0
H1118 H 0.73065 0.7973 0.35794 0.0
H1119 H 0.73768 0.7979 0.42613 0.0
H1120 H 0.70062 0.7677 0.42939 0.0
H1121 H 0.70037 0.80926 0.45309 0.0
H1122 H 0.59281 0.88362 0.40149 0.0
H1123 H 0.55036 0.83425 0.39031 0.0
H1124 H 0.63705 0.75977 0.39071 0.0
C1125 C 0.73003 0.86978 0.38564 0.0
C1126 C 0.73075 0.90691 0.38169 0.0
C1127 C 0.70032 0.92695 0.38973 0.0
C1128 C 0.66863 0.90992 0.39897 0.0
C1129 C 0.66828 0.873 0.4011 0.0
C1130 C 0.69852 0.85322 0.39567 0.0
C1131 C 0.69051 0.81388 0.39606 0.0
C1132 C 0.70146 0.79595 0.36122 0.0
C1133 C 0.70835 0.79614 0.42808 0.0
C1134 C 0.65066 0.8146 0.39985 0.0
C1135 C 0.63828 0.84893 0.40304 0.0
C1136 C 0.60214 0.85655 0.40067 0.0
C1137 C 0.57823 0.8285 0.39428 0.0
C1138 C 0.59063 0.79341 0.39106 0.0
C1139 C 0.62705 0.78631 0.39487 0.0
H1140 H 0.5423 0.36478 0.58135 0.0
H1141 H 0.6281 0.42048 0.63611 0.0
H1142 H 0.58563 0.44496 0.67825 0.0
H1143 H 0.47852 0.43322 0.58912 0.0
H1144 H 0.44164 0.40352 0.59593 0.0
H1145 H 0.47921 0.38888 0.57114 0.0
H1146 H 0.48641 0.33554 0.61354 0.0
H1147 H 0.44918 0.35048 0.63884 0.0
H1148 H 0.49147 0.34345 0.66034 0.0
H1149 H 0.53417 0.46749 0.71139 0.0
H1150 H 0.47584 0.48848 0.73167 0.0
H1151 H 0.42321 0.41618 0.65859 0.0
C1152 C 0.55213 0.3821 0.60221 0.0
C1153 C 0.5886 0.39063 0.60535 0.0
C1154 C 0.60035 0.41339 0.63312 0.0
C1155 C 0.57646 0.42734 0.65737 0.0
C1156 C 0.54084 0.41808 0.65385 0.0
C1157 C 0.52861 0.39609 0.62697 0.0
C1158 C 0.48867 0.39172 0.62836 0.0
C1159 C 0.47098 0.40515 0.59412 0.0
C1160 C 0.47834 0.35299 0.63571 0.0
C1161 C 0.48039 0.41545 0.65961 0.0
C1162 C 0.51098 0.43015 0.67408 0.0
C1163 C 0.51005 0.45554 0.70093 0.0
C1164 C 0.47693 0.46713 0.71247 0.0
C1165 C 0.44537 0.45291 0.69755 0.0
C1166 C 0.4471 0.42614 0.67148 0.0
H1167 H 0.23306 0.63593 0.69398 0.0
H1168 H 0.18975 0.54894 0.63124 0.0
H1169 H 0.14001 0.58694 0.61198 0.0
H1170 H 0.15024 0.67283 0.7221 0.0
H1171 H 0.16544 0.71806 0.71846 0.0
H1172 H 0.19661 0.68337 0.72819 0.0
H1173 H 0.23371 0.70213 0.67417 0.0
H1174 H 0.20239 0.73659 0.66404 0.0
H1175 H 0.21287 0.70379 0.63108 0.0
H1176 H 0.09419 0.63398 0.60112 0.0
H1177 H 0.05639 0.68734 0.59824 0.0
H1178 H 0.13244 0.7444 0.66448 0.0
C1179 C 0.21286 0.62478 0.67654 0.0
C1180 C 0.21494 0.58948 0.66433 0.0
C1181 C 0.18848 0.57596 0.64094 0.0
C1182 C 0.16021 0.59731 0.62985 0.0
C1183 C 0.15919 0.63219 0.642 0.0
C1184 C 0.18489 0.64589 0.66468 0.0
C1185 C 0.17823 0.68451 0.67303 0.0
C1186 C 0.17226 0.68999 0.7128 0.0
C1187 C 0.20861 0.70814 0.65978 0.0
C1188 C 0.14454 0.69027 0.6518 0.0
C1189 C 0.13384 0.65975 0.63425 0.0
C1190 C 0.10248 0.65817 0.6144 0.0
C1191 C 0.08124 0.68852 0.61288 0.0
C1192 C 0.09182 0.72001 0.63069 0.0
C1193 C 0.12412 0.72092 0.64993 0.0
H1194 H 0.44437 0.87359 0.9162 0.0
H1195 H 0.37455 0.9642 0.9065 0.0
H1196 H 0.41562 0.99122 0.8637 0.0
H1197 H 0.52431 0.92031 0.91484 0.0
H1198 H 0.54712 0.88659 0.89025 0.0
H1199 H 0.51041 0.87458 0.91746 0.0
H1200 H 0.4799 0.84493 0.86281 0.0
H1201 H 0.51618 0.85821 0.83522 0.0
H1202 H 0.4715 0.87083 0.82371 0.0
H1203 H 0.46762 0.01072 0.82679 0.0
H1204 H 0.52829 0.0237 0.80619 0.0
H1205 H 0.56124 0.91865 0.83711 0.0
C1206 C 0.43759 0.89917 0.9052 0.0
C1207 C 0.40632 0.91687 0.91492 0.0
C1208 C 0.39846 0.95018 0.89958 0.0
C1209 C 0.42141 0.96553 0.87493 0.0
C1210 C 0.4517 0.94691 0.86544 0.0
C1211 C 0.4598 0.91452 0.88034 0.0
C1212 C 0.49508 0.90089 0.86796 0.0
C1213 C 0.52073 0.89531 0.89948 0.0
C1214 C 0.49036 0.86669 0.84612 0.0
C1215 C 0.50652 0.93145 0.84499 0.0
C1216 C 0.48088 0.9575 0.84315 0.0
C1217 C 0.48749 0.99015 0.82718 0.0
C1218 C 0.52184 -0.00283 0.815 0.0
C1219 C 0.54885 0.97168 0.81914 0.0
C1220 C 0.54048 0.93785 0.83231 0.0
H1221 H 0.9604 0.02264 0.26844 0.0
H1222 H 0.87431 0.09749 0.25769 0.0
H1223 H 0.91546 0.14653 0.27183 0.0
H1224 H 0.99324 0.05274 0.34072 0.0
H1225 H 0.03994 0.04774 0.33272 0.0
H1226 H 0.00852 0.02035 0.30929 0.0
H1227 H 0.03273 0.04147 0.24929 0.0
H1228 H 0.06523 0.06839 0.27251 0.0
H1229 H 0.03605 0.08826 0.24023 0.0
H1230 H 0.95849 0.18251 0.30623 0.0
H1231 H 0.00341 0.20428 0.34961 0.0
H1232 H 0.06317 0.10775 0.3364 0.0
C1233 C 0.95076 0.0496 0.26709 0.0
C1234 C 0.91431 0.05633 0.26206 0.0
C1235 C 0.90225 0.09176 0.26104 0.0
C1236 C 0.92549 0.11984 0.26918 0.0
C1237 C 0.96075 0.11202 0.2773 0.0
C1238 C 0.9737 0.07782 0.27507 0.0
C1239 C 0.01085 0.07542 0.29051 0.0
C1240 C 0.01321 0.04744 0.32005 0.0
C1241 C 0.03781 0.06796 0.26139 0.0
C1242 C 0.01533 0.11261 0.30497 0.0
C1243 C 0.9865 0.13361 0.29642 0.0
C1244 C 0.98191 0.16696 0.31178 0.0
C1245 C 0.00723 0.17899 0.33657 0.0
C1246 C 0.03665 0.15774 0.34542 0.0
C1247 C 0.04123 0.12467 0.32893 0.0
loop_
_geom_bond_atom_site_label_1
_geom_bond_atom_site_label_2
_geom_bond_distance
_geom_bond_site_symmetry_2
_ccdc_geom_bond_type
O0 Zn1 1.953 . S
O0 C16 1.225 . S
Zn1 O0 1.953 . S
Zn1 O2 1.949 . S
Zn1 O8 1.919 . S
Zn1 O13 1.924 . S
O2 Zn1 1.949 . S
O2 Zn3 1.923 . S
O2 Zn4 1.950 . S
O2 Zn5 1.945 . S
Zn3 O2 1.923 . S
Zn3 O6 1.933 . S
Zn3 O9 1.941 . S
Zn3 O10 1.965 . S
Zn4 O2 1.950 . S
Zn4 O11 1.938 . S
Zn4 O12 1.906 . S
Zn4 O22 1.953 . S
Zn5 O2 1.945 . S
Zn5 O7 1.932 . S
Zn5 O14 1.977 . S
Zn5 O15 1.910 . S
O6 Zn3 1.933 . S
O6 C17 1.226 . S
O7 Zn5 1.932 . S
O7 C17 1.307 . S
O8 Zn1 1.919 . S
O8 C19 1.253 . S
O9 Zn3 1.941 . S
O9 C19 1.283 . S
O10 Zn3 1.965 . S
O10 C18 1.303 . S
O11 Zn4 1.938 . S
O11 C18 1.247 . S
O12 Zn4 1.906 . S
O12 C20 1.304 . S
O13 Zn1 1.924 . S
O13 C21 1.311 . S
O14 Zn5 1.977 . S
O14 C20 1.272 . S
O15 Zn5 1.910 . S
O15 C21 1.231 . S
C16 O0 1.225 . S
C16 O22 1.298 . S
C17 O6 1.226 . S
C17 O7 1.307 . S
C18 O10 1.303 . S
C18 O11 1.247 . S
C19 O8 1.253 . S
C19 O9 1.283 . S
C20 O12 1.304 . S
C20 O14 1.272 . S
C21 O13 1.311 . S
C21 O15 1.231 . S
O22 Zn4 1.953 . S
O22 C16 1.298 . S
O23 Zn24 1.953 . S
O23 C39 1.225 . S
Zn24 O23 1.953 . S
Zn24 O25 1.949 . S
Zn24 O31 1.919 . S
Zn24 O36 1.924 1_455 S
O25 Zn24 1.949 . S
O25 Zn26 1.923 . S
O25 Zn27 1.950 . S
O25 Zn28 1.945 . S
Zn26 O25 1.923 . S
Zn26 O29 1.933 . S
Zn26 O32 1.941 . S
Zn26 O33 1.965 . S
Zn27 O25 1.950 . S
Zn27 O34 1.938 . S
Zn27 O35 1.906 . S
Zn27 O45 1.953 . S
Zn28 O25 1.945 . S
Zn28 O30 1.932 1_455 S
Zn28 O37 1.977 . S
Zn28 O38 1.910 1_455 S
O29 Zn26 1.933 . S
O29 C40 1.226 1_455 S
O30 Zn28 1.932 1_655 S
O30 C40 1.307 . S
O31 Zn24 1.919 . S
O31 C42 1.253 1_455 S
O32 Zn26 1.941 . S
O32 C42 1.285 1_455 S
O33 Zn26 1.965 . S
O33 C41 1.303 . S
O34 Zn27 1.938 . S
O34 C41 1.247 . S
O35 Zn27 1.906 . S
O35 C43 1.304 . S
O36 Zn24 1.924 1_655 S
O36 C44 1.311 . S
O37 Zn28 1.977 . S
O37 C43 1.272 . S
O38 Zn28 1.910 1_655 S
O38 C44 1.231 . S
C39 O23 1.225 . S
C39 O45 1.298 . S
C40 O29 1.226 1_655 S
C40 O30 1.307 . S
C41 O33 1.303 . S
C41 O34 1.247 . S
C42 O31 1.253 1_655 S
C42 O32 1.285 1_655 S
C43 O35 1.304 . S
C43 O37 1.272 . S
C44 O36 1.311 . S
C44 O38 1.231 . S
O45 Zn27 1.953 . S
O45 C39 1.298 . S
O46 Zn47 1.953 . S
O46 C62 1.225 . S
Zn47 O46 1.953 . S
Zn47 O48 1.949 . S
Zn47 O54 1.919 . S
Zn47 O59 1.924 . S
O48 Zn47 1.949 . S
O48 Zn49 1.923 1_556 S
O48 Zn50 1.950 . S
O48 Zn51 1.945 . S
Zn49 O48 1.923 1_554 S
Zn49 O52 1.933 . S
Zn49 O55 1.941 . S
Zn49 O56 1.965 . S
Zn50 O48 1.950 . S
Zn50 O57 1.938 . S
Zn50 O58 1.906 . S
Zn50 O68 1.953 . S
Zn51 O48 1.945 . S
Zn51 O53 1.932 . S
Zn51 O60 1.977 . S
Zn51 O61 1.910 . S
O52 Zn49 1.933 . S
O52 C63 1.226 1_554 S
O53 Zn51 1.932 . S
O53 C63 1.307 . S
O54 Zn47 1.919 . S
O54 C65 1.253 1_556 S
O55 Zn49 1.941 . S
O55 C65 1.283 . S
O56 Zn49 1.965 . S
O56 C64 1.303 . S
O57 Zn50 1.938 . S
O57 C64 1.247 1_556 S
O58 Zn50 1.906 . S
O58 C66 1.304 . S
O59 Zn47 1.924 . S
O59 C67 1.311 . S
O60 Zn51 1.977 . S
O60 C66 1.272 . S
O61 Zn51 1.910 . S
O61 C67 1.231 . S
C62 O46 1.225 . S
C62 O68 1.298 . S
C63 O52 1.226 1_556 S
C63 O53 1.307 . S
C64 O56 1.303 . S
C64 O57 1.247 1_554 S
C65 O54 1.253 1_554 S
C65 O55 1.283 . S
C66 O58 1.304 . S
C66 O60 1.272 . S
C67 O59 1.311 . S
C67 O61 1.231 . S
O68 Zn50 1.953 . S
O68 C62 1.298 . S
O69 Zn70 1.953 . S
O69 C85 1.225 . S
Zn70 O69 1.953 . S
Zn70 O71 1.949 . S
Zn70 O77 1.919 . S
Zn70 O82 1.924 . S
O71 Zn70 1.949 . S
O71 Zn72 1.923 . S
O71 Zn73 1.950 . S
O71 Zn74 1.945 . S
Zn72 O71 1.923 . S
Zn72 O75 1.933 . S
Zn72 O78 1.941 . S
Zn72 O79 1.965 . S
Zn73 O71 1.950 . S
Zn73 O80 1.938 . S
Zn73 O81 1.906 . S
Zn73 O91 1.953 . S
Zn74 O71 1.945 . S
Zn74 O76 1.932 . S
Zn74 O83 1.977 . S
Zn74 O84 1.910 . S
O75 Zn72 1.933 . S
O75 C86 1.226 . S
O76 Zn74 1.932 . S
O76 C86 1.307 . S
O77 Zn70 1.919 . S
O77 C88 1.253 . S
O78 Zn72 1.941 . S
O78 C88 1.283 . S
O79 Zn72 1.965 . S
O79 C87 1.303 . S
O80 Zn73 1.938 . S
O80 C87 1.247 . S
O81 Zn73 1.906 . S
O81 C89 1.304 . S
O82 Zn70 1.924 . S
O82 C90 1.311 . S
O83 Zn74 1.977 . S
O83 C89 1.272 . S
O84 Zn74 1.910 . S
O84 C90 1.231 . S
C85 O69 1.225 . S
C85 O91 1.298 . S
C86 O75 1.226 . S
C86 O76 1.307 . S
C87 O79 1.303 . S
C87 O80 1.247 . S
C88 O77 1.253 . S
C88 O78 1.283 . S
C89 O81 1.304 . S
C89 O83 1.272 . S
C90 O82 1.311 . S
C90 O84 1.231 . S
O91 Zn73 1.953 . S
O91 C85 1.298 . S
O92 Zn93 1.953 . S
O92 C108 1.225 . S
Zn93 O92 1.953 . S
Zn93 O94 1.949 . S
Zn93 O100 1.919 . S
Zn93 O105 1.924 . S
O94 Zn93 1.949 . S
O94 Zn95 1.923 . S
O94 Zn96 1.950 . S
O94 Zn97 1.945 . S
Zn95 O94 1.923 . S
Zn95 O98 1.933 . S
Zn95 O101 1.941 . S
Zn95 O102 1.965 . S
Zn96 O94 1.950 . S
Zn96 O103 1.938 . S
Zn96 O104 1.906 . S
Zn96 O114 1.953 . S
Zn97 O94 1.945 . S
Zn97 O99 1.932 . S
Zn97 O106 1.977 . S
Zn97 O107 1.910 . S
O98 Zn95 1.933 . S
O98 C109 1.226 . S
O99 Zn97 1.932 . S
O99 C109 1.307 . S
O100 Zn93 1.919 . S
O100 C111 1.253 . S
O101 Zn95 1.941 . S
O101 C111 1.283 . S
O102 Zn95 1.965 . S
O102 C110 1.303 . S
O103 Zn96 1.938 . S
O103 C110 1.247 . S
O104 Zn96 1.906 . S
O104 C112 1.304 . S
O105 Zn93 1.924 . S
O105 C113 1.311 . S
O106 Zn97 1.977 . S
O106 C112 1.272 . S
O107 Zn97 1.910 . S
O107 C113 1.231 . S
C108 O92 1.225 . S
C108 O114 1.298 . S
C109 O98 1.226 . S
C109 O99 1.307 . S
C110 O102 1.303 . S
C110 O103 1.247 . S
C111 O100 1.253 . S
C111 O101 1.283 . S
C112 O104 1.304 . S
C112 O106 1.272 . S
C113 O105 1.311 . S
C113 O107 1.231 . S
O114 Zn96 1.953 . S
O114 C108 1.298 . S
O115 Zn116 1.953 . S
O115 C131 1.225 . S
Zn116 O115 1.953 . S
Zn116 O117 1.949 . S
Zn116 O123 1.919 . S
Zn116 O128 1.927 . S
O117 Zn116 1.949 . S
O117 Zn118 1.923 . S
O117 Zn119 1.950 . S
O117 Zn120 1.945 . S
Zn118 O117 1.923 . S
Zn118 O121 1.933 . S
Zn118 O124 1.941 . S
Zn118 O125 1.965 . S
Zn119 O117 1.950 . S
Zn119 O126 1.938 . S
Zn119 O127 1.906 . S
Zn119 O137 1.953 . S
Zn120 O117 1.945 . S
Zn120 O122 1.932 1_655 S
Zn120 O129 1.977 . S
Zn120 O130 1.910 1_655 S
O121 Zn118 1.933 . S
O121 C132 1.226 1_655 S
O122 Zn120 1.932 1_455 S
O122 C132 1.307 . S
O123 Zn116 1.919 . S
O123 C134 1.253 . S
O124 Zn118 1.941 . S
O124 C134 1.283 . S
O125 Zn118 1.965 . S
O125 C133 1.303 . S
O126 Zn119 1.938 . S
O126 C133 1.247 . S
O127 Zn119 1.906 . S
O127 C135 1.304 . S
O128 Zn116 1.927 . S
O128 C136 1.310 1_655 S
O129 Zn120 1.977 . S
O129 C135 1.272 . S
O130 Zn120 1.910 1_455 S
O130 C136 1.231 . S
C131 O115 1.225 . S
C131 O137 1.298 . S
C132 O121 1.226 1_455 S
C132 O122 1.307 . S
C133 O125 1.303 . S
C133 O126 1.247 . S
C134 O123 1.253 . S
C134 O124 1.283 . S
C135 O127 1.304 . S
C135 O129 1.272 . S
C136 O128 1.310 1_455 S
C136 O130 1.231 . S
O137 Zn119 1.953 . S
O137 C131 1.298 . S
O138 Zn139 1.953 . S
O138 C154 1.225 . S
Zn139 O138 1.953 . S
Zn139 O140 1.949 . S
Zn139 O146 1.919 . S
Zn139 O151 1.924 . S
O140 Zn139 1.949 . S
O140 Zn141 1.923 1_554 S
O140 Zn142 1.950 . S
O140 Zn143 1.945 . S
Zn141 O140 1.923 1_556 S
Zn141 O144 1.933 . S
Zn141 O147 1.941 . S
Zn141 O148 1.965 . S
Zn142 O140 1.950 . S
Zn142 O149 1.938 . S
Zn142 O150 1.906 . S
Zn142 O160 1.953 . S
Zn143 O140 1.945 . S
Zn143 O145 1.932 . S
Zn143 O152 1.977 . S
Zn143 O153 1.910 . S
O144 Zn141 1.933 . S
O144 C155 1.226 . S
O145 Zn143 1.932 . S
O145 C155 1.307 1_554 S
O146 Zn139 1.919 . S
O146 C157 1.253 1_554 S
O147 Zn141 1.941 . S
O147 C157 1.283 . S
O148 Zn141 1.965 . S
O148 C156 1.303 . S
O149 Zn142 1.938 . S
O149 C156 1.247 1_554 S
O150 Zn142 1.906 . S
O150 C158 1.304 . S
O151 Zn139 1.924 . S
O151 C159 1.311 . S
O152 Zn143 1.977 . S
O152 C158 1.272 . S
O153 Zn143 1.910 . S
O153 C159 1.231 . S
C154 O138 1.225 . S
C154 O160 1.298 . S
C155 O144 1.226 . S
C155 O145 1.307 1_556 S
C156 O148 1.303 . S
C156 O149 1.247 1_556 S
C157 O146 1.253 1_556 S
C157 O147 1.283 . S
C158 O150 1.304 . S
C158 O152 1.272 . S
C159 O151 1.311 . S
C159 O153 1.231 . S
O160 Zn142 1.953 . S
O160 C154 1.298 . S
O161 Zn162 1.953 . S
O161 C177 1.225 . S
Zn162 O161 1.953 . S
Zn162 O163 1.949 . S
Zn162 O169 1.919 . S
Zn162 O174 1.924 . S
O163 Zn162 1.949 . S
O163 Zn164 1.923 . S
O163 Zn165 1.950 . S
O163 Zn166 1.945 . S
Zn164 O163 1.923 . S
Zn164 O167 1.933 . S
Zn164 O170 1.941 . S
Zn164 O171 1.965 . S
Zn165 O163 1.950 . S
Zn165 O172 1.938 . S
Zn165 O173 1.906 . S
Zn165 O183 1.953 . S
Zn166 O163 1.945 . S
Zn166 O168 1.932 . S
Zn166 O175 1.977 . S
Zn166 O176 1.910 . S
O167 Zn164 1.933 . S
O167 C178 1.226 . S
O168 Zn166 1.932 . S
O168 C178 1.307 . S
O169 Zn162 1.919 . S
O169 C180 1.253 . S
O170 Zn164 1.941 . S
O170 C180 1.283 . S
O171 Zn164 1.965 . S
O171 C179 1.303 . S
O172 Zn165 1.938 . S
O172 C179 1.247 . S
O173 Zn165 1.906 . S
O173 C181 1.304 . S
O174 Zn162 1.924 . S
O174 C182 1.311 . S
O175 Zn166 1.977 . S
O175 C181 1.272 . S
O176 Zn166 1.910 . S
O176 C182 1.231 . S
C177 O161 1.225 . S
C177 O183 1.298 . S
C178 O167 1.226 . S
C178 O168 1.307 . S
C179 O171 1.303 . S
C179 O172 1.247 . S
C180 O169 1.253 . S
C180 O170 1.283 . S
C181 O173 1.304 . S
C181 O175 1.272 . S
C182 O174 1.311 . S
C182 O176 1.231 . S
O183 Zn165 1.953 . S
O183 C177 1.298 . S
O184 Zn185 1.953 . S
O184 C200 1.225 . S
Zn185 O184 1.953 . S
Zn185 O186 1.949 . S
Zn185 O192 1.919 . S
Zn185 O197 1.924 . S
O186 Zn185 1.949 . S
O186 Zn187 1.923 . S
O186 Zn188 1.950 . S
O186 Zn189 1.945 . S
Zn187 O186 1.923 . S
Zn187 O190 1.933 . S
Zn187 O193 1.941 . S
Zn187 O194 1.965 . S
Zn188 O186 1.950 . S
Zn188 O195 1.938 . S
Zn188 O196 1.906 . S
Zn188 O206 1.953 . S
Zn189 O186 1.945 . S
Zn189 O191 1.932 . S
Zn189 O198 1.977 . S
Zn189 O199 1.910 . S
O190 Zn187 1.933 . S
O190 C201 1.226 . S
O191 Zn189 1.932 . S
O191 C201 1.307 . S
O192 Zn185 1.919 . S
O192 C203 1.253 . S
O193 Zn187 1.941 . S
O193 C203 1.283 . S
O194 Zn187 1.965 . S
O194 C202 1.303 . S
O195 Zn188 1.938 . S
O195 C202 1.247 . S
O196 Zn188 1.906 . S
O196 C204 1.304 . S
O197 Zn185 1.924 . S
O197 C205 1.311 . S
O198 Zn189 1.977 . S
O198 C204 1.272 . S
O199 Zn189 1.910 . S
O199 C205 1.231 . S
C200 O184 1.225 . S
C200 O206 1.298 . S
C201 O190 1.226 . S
C201 O191 1.307 . S
C202 O194 1.303 . S
C202 O195 1.247 . S
C203 O192 1.253 . S
C203 O193 1.283 . S
C204 O196 1.304 . S
C204 O198 1.272 . S
C205 O197 1.311 . S
C205 O199 1.231 . S
O206 Zn188 1.953 . S
O206 C200 1.298 . S
O207 Zn208 1.953 . S
O207 C223 1.225 . S
Zn208 O207 1.953 . S
Zn208 O209 1.949 . S
Zn208 O215 1.919 . S
Zn208 O220 1.924 . S
O209 Zn208 1.949 . S
O209 Zn210 1.923 . S
O209 Zn211 1.950 . S
O209 Zn212 1.945 . S
Zn210 O209 1.923 . S
Zn210 O213 1.933 . S
Zn210 O216 1.941 . S
Zn210 O217 1.965 . S
Zn211 O209 1.950 . S
Zn211 O218 1.938 . S
Zn211 O219 1.906 1_545 S
Zn211 O229 1.953 1_545 S
Zn212 O209 1.945 . S
Zn212 O214 1.932 . S
Zn212 O221 1.977 1_545 S
Zn212 O222 1.910 1_545 S
O213 Zn210 1.933 . S
O213 C224 1.226 . S
O214 Zn212 1.932 . S
O214 C224 1.307 . S
O215 Zn208 1.919 . S
O215 C226 1.253 . S
O216 Zn210 1.941 . S
O216 C226 1.283 . S
O217 Zn210 1.965 . S
O217 C225 1.303 . S
O218 Zn211 1.938 . S
O218 C225 1.247 . S
O219 Zn211 1.906 1_565 S
O219 C227 1.304 . S
O220 Zn208 1.924 . S
O220 C228 1.311 1_545 S
O221 Zn212 1.977 1_565 S
O221 C227 1.272 . S
O222 Zn212 1.910 1_565 S
O222 C228 1.231 . S
C223 O207 1.225 . S
C223 O229 1.298 1_545 S
C224 O213 1.226 . S
C224 O214 1.307 . S
C225 O217 1.303 . S
C225 O218 1.247 . S
C226 O215 1.253 . S
C226 O216 1.283 . S
C227 O219 1.304 . S
C227 O221 1.272 . S
C228 O220 1.311 1_565 S
C228 O222 1.231 . S
O229 Zn211 1.953 1_565 S
O229 C223 1.298 1_565 S
O230 Zn231 1.953 . S
O230 C246 1.225 . S
Zn231 O230 1.953 . S
Zn231 O232 1.949 . S
Zn231 O238 1.919 . S
Zn231 O243 1.924 . S
O232 Zn231 1.949 . S
O232 Zn233 1.923 1_565 S
O232 Zn234 1.950 . S
O232 Zn235 1.945 . S
Zn233 O232 1.923 1_545 S
Zn233 O236 1.933 . S
Zn233 O239 1.941 . S
Zn233 O240 1.965 . S
Zn234 O232 1.950 . S
Zn234 O241 1.938 . S
Zn234 O242 1.906 . S
Zn234 O252 1.953 . S
Zn235 O232 1.945 . S
Zn235 O237 1.932 . S
Zn235 O244 1.977 . S
Zn235 O245 1.910 . S
O236 Zn233 1.933 . S
O236 C247 1.226 1_545 S
O237 Zn235 1.932 . S
O237 C247 1.307 . S
O238 Zn231 1.919 . S
O238 C249 1.253 1_565 S
O239 Zn233 1.941 . S
O239 C249 1.283 . S
O240 Zn233 1.965 . S
O240 C248 1.303 . S
O241 Zn234 1.938 . S
O241 C248 1.247 1_565 S
O242 Zn234 1.906 . S
O242 C250 1.304 . S
O243 Zn231 1.924 . S
O243 C251 1.311 . S
O244 Zn235 1.977 . S
O244 C250 1.272 . S
O245 Zn235 1.910 . S
O245 C251 1.231 . S
C246 O230 1.225 . S
C246 O252 1.298 . S
C247 O236 1.226 1_565 S
C247 O237 1.307 . S
C248 O240 1.303 . S
C248 O241 1.247 1_545 S
C249 O238 1.253 1_545 S
C249 O239 1.283 . S
C250 O242 1.304 . S
C250 O244 1.272 . S
C251 O243 1.311 . S
C251 O245 1.231 . S
O252 Zn234 1.953 . S
O252 C246 1.298 . S
O253 Zn254 1.953 . S
O253 C269 1.225 . S
Zn254 O253 1.953 . S
Zn254 O255 1.949 . S
Zn254 O261 1.919 . S
Zn254 O266 1.924 . S
O255 Zn254 1.949 . S
O255 Zn256 1.923 . S
O255 Zn257 1.950 . S
O255 Zn258 1.945 . S
Zn256 O255 1.923 . S
Zn256 O259 1.933 . S
Zn256 O262 1.941 . S
Zn256 O263 1.965 . S
Zn257 O255 1.950 . S
Zn257 O264 1.938 . S
Zn257 O265 1.906 . S
Zn257 O275 1.953 . S
Zn258 O255 1.945 . S
Zn258 O260 1.932 . S
Zn258 O267 1.977 . S
Zn258 O268 1.910 . S
O259 Zn256 1.933 . S
O259 C270 1.226 . S
O260 Zn258 1.932 . S
O260 C270 1.307 . S
O261 Zn254 1.919 . S
O261 C272 1.253 . S
O262 Zn256 1.941 . S
O262 C272 1.283 . S
O263 Zn256 1.965 . S
O263 C271 1.303 . S
O264 Zn257 1.938 . S
O264 C271 1.247 . S
O265 Zn257 1.906 . S
O265 C273 1.304 . S
O266 Zn254 1.924 . S
O266 C274 1.311 . S
O267 Zn258 1.977 . S
O267 C273 1.272 . S
O268 Zn258 1.910 . S
O268 C274 1.231 . S
C269 O253 1.225 . S
C269 O275 1.298 . S
C270 O259 1.226 . S
C270 O260 1.307 . S
C271 O263 1.303 . S
C271 O264 1.247 . S
C272 O261 1.253 . S
C272 O262 1.283 . S
C273 O265 1.304 . S
C273 O267 1.272 . S
C274 O266 1.311 . S
C274 O268 1.231 . S
O275 Zn257 1.953 . S
O275 C269 1.298 . S
H276 C288 0.930 . S
H277 C290 0.930 . S
H278 C291 0.930 . S
H279 C295 0.959 . S
H280 C295 0.959 . S
H281 C295 0.961 . S
H282 C296 0.960 . S
H283 C296 0.961 . S
H284 C296 0.959 . S
H285 C299 0.929 . S
H286 C300 0.931 . S
H287 C302 0.930 . S
C288 H276 0.930 . S
C288 C289 1.399 . S
C288 C293 1.399 . S
C289 C288 1.399 . S
C289 C290 1.376 . S
C290 H277 0.930 . S
C290 C289 1.376 . S
C290 C291 1.388 . S
C291 H278 0.930 . S
C291 C290 1.388 . S
C291 C292 1.390 . S
C292 C291 1.390 . S
C292 C293 1.394 . S
C292 C298 1.465 . S
C293 C288 1.399 . S
C293 C292 1.394 . S
C293 C294 1.516 . S
C294 C293 1.516 . S
C294 C295 1.502 . S
C294 C296 1.561 . S
C294 C297 1.526 . S
C295 H279 0.959 . S
C295 H280 0.959 . S
C295 H281 0.961 . S
C295 C294 1.502 . S
C296 H282 0.960 . S
C296 H283 0.961 . S
C296 H284 0.959 . S
C296 C294 1.561 . S
C297 C294 1.526 . S
C297 C298 1.396 . S
C297 C302 1.390 . S
C298 C292 1.465 . S
C298 C297 1.396 . S
C298 C299 1.399 . S
C299 H285 0.929 . S
C299 C298 1.399 . S
C299 C300 1.385 . S
C300 H286 0.931 . S
C300 C299 1.385 . S
C300 C301 1.389 . S
C301 C300 1.389 . S
C301 C302 1.387 . S
C302 H287 0.930 . S
C302 C297 1.390 . S
C302 C301 1.387 . S
H303 C315 0.930 . S
H304 C317 0.940 . S
H305 C318 0.930 . S
H306 C322 0.959 . S
H307 C322 0.959 . S
H308 C322 0.961 . S
H309 C323 0.960 . S
H310 C323 0.961 . S
H311 C323 0.959 . S
H312 C326 0.929 . S
H313 C327 0.931 . S
H314 C329 0.930 . S
C315 H303 0.930 . S
C315 C316 1.399 . S
C315 C320 1.399 . S
C316 C315 1.399 . S
C316 C317 1.376 . S
C317 H304 0.940 . S
C317 C316 1.376 . S
C317 C318 1.388 . S
C318 H305 0.930 . S
C318 C317 1.388 . S
C318 C319 1.390 . S
C319 C318 1.390 . S
C319 C320 1.394 . S
C319 C325 1.465 . S
C320 C315 1.399 . S
C320 C319 1.394 . S
C320 C321 1.516 . S
C321 C320 1.516 . S
C321 C322 1.502 . S
C321 C323 1.561 . S
C321 C324 1.526 . S
C322 H306 0.959 . S
C322 H307 0.959 . S
C322 H308 0.961 . S
C322 C321 1.502 . S
C323 H309 0.960 . S
C323 H310 0.961 . S
C323 H311 0.959 . S
C323 C321 1.561 . S
C324 C321 1.526 . S
C324 C325 1.396 . S
C324 C329 1.390 . S
C325 C319 1.465 . S
C325 C324 1.396 . S
C325 C326 1.399 . S
C326 H312 0.929 . S
C326 C325 1.399 . S
C326 C327 1.385 . S
C327 H313 0.931 . S
C327 C326 1.385 . S
C327 C328 1.389 . S
C328 C327 1.389 . S
C328 C329 1.387 . S
C329 H314 0.930 . S
C329 C324 1.390 . S
C329 C328 1.387 . S
H330 C342 0.930 . S
H331 C344 0.930 . S
H332 C345 0.930 . S
H333 C349 0.959 . S
H334 C349 0.959 . S
H335 C349 0.961 . S
H336 C350 0.960 . S
H337 C350 0.961 . S
H338 C350 0.959 . S
H339 C353 0.929 1_556 S
H340 C354 0.931 . S
H341 C356 0.930 . S
C342 H330 0.930 . S
C342 C343 1.399 . S
C342 C347 1.399 . S
C343 C342 1.399 . S
C343 C344 1.376 1_554 S
C344 H331 0.930 . S
C344 C343 1.376 1_556 S
C344 C345 1.388 . S
C345 H332 0.930 . S
C345 C344 1.388 . S
C345 C346 1.390 1_556 S
C346 C345 1.390 1_554 S
C346 C347 1.394 . S
C346 C352 1.465 . S
C347 C342 1.399 . S
C347 C346 1.394 . S
C347 C348 1.516 . S
C348 C347 1.516 . S
C348 C349 1.502 . S
C348 C350 1.561 . S
C348 C351 1.526 . S
C349 H333 0.959 . S
C349 H334 0.959 . S
C349 H335 0.961 . S
C349 C348 1.502 . S
C350 H336 0.960 . S
C350 H337 0.961 . S
C350 H338 0.959 . S
C350 C348 1.561 . S
C351 C348 1.526 . S
C351 C352 1.396 . S
C351 C356 1.390 . S
C352 C346 1.465 . S
C352 C351 1.396 . S
C352 C353 1.399 . S
C353 H339 0.929 1_554 S
C353 C352 1.399 . S
C353 C354 1.385 . S
C354 H340 0.931 . S
C354 C353 1.385 . S
C354 C355 1.389 . S
C355 C354 1.389 . S
C355 C356 1.387 . S
C356 H341 0.930 . S
C356 C351 1.390 . S
C356 C355 1.387 . S
H357 C369 0.930 . S
H358 C371 0.930 . S
H359 C372 0.930 . S
H360 C376 0.959 . S
H361 C376 0.959 . S
H362 C376 0.961 . S
H363 C377 0.960 . S
H364 C377 0.961 . S
H365 C377 0.959 . S
H366 C380 0.929 1_565 S
H367 C381 0.931 . S
H368 C383 0.930 . S
C369 H357 0.930 . S
C369 C370 1.399 . S
C369 C374 1.399 . S
C370 C369 1.399 . S
C370 C371 1.376 . S
C371 H358 0.930 . S
C371 C370 1.376 . S
C371 C372 1.388 . S
C372 H359 0.930 . S
C372 C371 1.388 . S
C372 C373 1.390 . S
C373 C372 1.390 . S
C373 C374 1.394 . S
C373 C379 1.465 . S
C374 C369 1.399 . S
C374 C373 1.394 . S
C374 C375 1.516 . S
C375 C374 1.516 . S
C375 C376 1.502 . S
C375 C377 1.561 . S
C375 C378 1.526 . S
C376 H360 0.959 . S
C376 H361 0.959 . S
C376 H362 0.961 . S
C376 C375 1.502 . S
C377 H363 0.960 . S
C377 H364 0.961 . S
C377 H365 0.959 . S
C377 C375 1.561 . S
C378 C375 1.526 . S
C378 C379 1.396 . S
C378 C383 1.390 . S
C379 C373 1.465 . S
C379 C378 1.396 . S
C379 C380 1.399 . S
C380 H366 0.929 1_545 S
C380 C379 1.399 . S
C380 C381 1.385 1_545 S
C381 H367 0.931 . S
C381 C380 1.385 1_565 S
C381 C382 1.389 1_565 S
C382 C381 1.389 1_545 S
C382 C383 1.387 . S
C383 H368 0.930 . S
C383 C378 1.390 . S
C383 C382 1.387 . S
H384 C396 0.930 . S
H385 C398 0.930 . S
H386 C399 0.930 . S
H387 C403 0.959 . S
H388 C403 0.959 . S
H389 C403 0.961 . S
H390 C404 0.960 . S
H391 C404 0.961 . S
H392 C404 0.959 . S
H393 C407 0.929 . S
H394 C408 0.931 . S
H395 C410 0.930 . S
C396 H384 0.930 . S
C396 C397 1.399 . S
C396 C401 1.399 . S
C397 C396 1.399 . S
C397 C398 1.376 . S
C398 H385 0.930 . S
C398 C397 1.376 . S
C398 C399 1.388 . S
C399 H386 0.930 . S
C399 C398 1.388 . S
C399 C400 1.390 . S
C400 C399 1.390 . S
C400 C401 1.394 . S
C400 C406 1.465 . S
C401 C396 1.399 . S
C401 C400 1.394 . S
C401 C402 1.516 . S
C402 C401 1.516 . S
C402 C403 1.502 . S
C402 C404 1.561 . S
C402 C405 1.526 . S
C403 H387 0.959 . S
C403 H388 0.959 . S
C403 H389 0.961 . S
C403 C402 1.502 . S
C404 H390 0.960 . S
C404 H391 0.961 . S
C404 H392 0.959 . S
C404 C402 1.561 . S
C405 C402 1.526 . S
C405 C406 1.396 . S
C405 C410 1.390 . S
C406 C400 1.465 . S
C406 C405 1.396 . S
C406 C407 1.399 . S
C407 H393 0.929 . S
C407 C406 1.399 . S
C407 C408 1.385 . S
C408 H394 0.931 . S
C408 C407 1.385 . S
C408 C409 1.389 . S
C409 C408 1.389 . S
C409 C410 1.387 . S
C410 H395 0.930 . S
C410 C405 1.390 . S
C410 C409 1.387 . S
H411 C423 0.930 . S
H412 C425 0.930 . S
H413 C426 0.930 . S
H414 C430 0.959 . S
H415 C430 0.959 . S
H416 C430 0.961 . S
H417 C431 0.960 . S
H418 C431 0.961 . S
H419 C431 0.959 . S
H420 C434 0.929 . S
H421 C435 0.931 . S
H422 C437 0.930 . S
C423 H411 0.930 . S
C423 C424 1.399 . S
C423 C428 1.399 . S
C424 C423 1.399 . S
C424 C425 1.376 . S
C425 H412 0.930 . S
C425 C424 1.376 . S
C425 C426 1.388 . S
C426 H413 0.930 . S
C426 C425 1.388 . S
C426 C427 1.390 . S
C427 C426 1.390 . S
C427 C428 1.394 . S
C427 C433 1.465 . S
C428 C423 1.399 . S
C428 C427 1.394 . S
C428 C429 1.516 . S
C429 C428 1.516 . S
C429 C430 1.502 . S
C429 C431 1.561 . S
C429 C432 1.526 . S
C430 H414 0.959 . S
C430 H415 0.959 . S
C430 H416 0.961 . S
C430 C429 1.502 . S
C431 H417 0.960 . S
C431 H418 0.961 . S
C431 H419 0.959 . S
C431 C429 1.561 . S
C432 C429 1.526 . S
C432 C433 1.396 . S
C432 C437 1.390 . S
C433 C427 1.465 . S
C433 C432 1.396 . S
C433 C434 1.399 . S
C434 H420 0.929 . S
C434 C433 1.399 . S
C434 C435 1.385 . S
C435 H421 0.931 . S
C435 C434 1.385 . S
C435 C436 1.389 . S
C436 C435 1.389 . S
C436 C437 1.387 . S
C437 H422 0.930 . S
C437 C432 1.390 . S
C437 C436 1.387 . S
H438 C450 0.930 . S
H439 C452 0.930 . S
H440 C453 0.930 1_554 S
H441 C457 0.959 . S
H442 C457 0.959 . S
H443 C457 0.961 . S
H444 C458 0.960 . S
H445 C458 0.961 . S
H446 C458 0.959 . S
H447 C461 0.929 . S
H448 C462 0.931 . S
H449 C464 0.930 . S
C450 H438 0.930 . S
C450 C451 1.399 . S
C450 C455 1.399 . S
C451 C450 1.399 . S
C451 C452 1.376 . S
C452 H439 0.930 . S
C452 C451 1.376 . S
C452 C453 1.388 . S
C453 H440 0.930 1_556 S
C453 C452 1.388 . S
C453 C454 1.390 . S
C454 C453 1.390 . S
C454 C455 1.394 . S
C454 C460 1.465 . S
C455 C450 1.399 . S
C455 C454 1.394 . S
C455 C456 1.516 . S
C456 C455 1.516 . S
C456 C457 1.502 . S
C456 C458 1.561 . S
C456 C459 1.526 . S
C457 H441 0.959 . S
C457 H442 0.959 . S
C457 H443 0.961 . S
C457 C456 1.502 . S
C458 H444 0.960 . S
C458 H445 0.961 . S
C458 H446 0.959 . S
C458 C456 1.561 . S
C459 C456 1.526 . S
C459 C460 1.396 . S
C459 C464 1.390 . S
C460 C454 1.465 . S
C460 C459 1.396 . S
C460 C461 1.399 1_556 S
C461 H447 0.929 . S
C461 C460 1.399 1_554 S
C461 C462 1.385 . S
C462 H448 0.931 . S
C462 C461 1.385 . S
C462 C463 1.389 1_554 S
C463 C462 1.389 1_556 S
C463 C464 1.387 . S
C464 H449 0.930 . S
C464 C459 1.390 . S
C464 C463 1.387 . S
H465 C477 0.930 . S
H466 C479 0.930 . S
H467 C480 0.930 . S
H468 C484 0.959 . S
H469 C484 0.959 . S
H470 C484 0.961 . S
H471 C485 0.960 . S
H472 C485 0.961 . S
H473 C485 0.959 . S
H474 C488 0.929 . S
H475 C489 0.931 . S
H476 C491 0.930 . S
C477 H465 0.930 . S
C477 C478 1.399 . S
C477 C482 1.399 . S
C478 C477 1.399 . S
C478 C479 1.376 . S
C479 H466 0.930 . S
C479 C478 1.376 . S
C479 C480 1.388 . S
C480 H467 0.930 . S
C480 C479 1.388 . S
C480 C481 1.390 . S
C481 C480 1.390 . S
C481 C482 1.394 . S
C481 C487 1.465 . S
C482 C477 1.399 . S
C482 C481 1.394 . S
C482 C483 1.516 . S
C483 C482 1.516 . S
C483 C484 1.502 . S
C483 C485 1.561 . S
C483 C486 1.526 . S
C484 H468 0.959 . S
C484 H469 0.959 . S
C484 H470 0.961 . S
C484 C483 1.502 . S
C485 H471 0.960 . S
C485 H472 0.961 . S
C485 H473 0.959 . S
C485 C483 1.561 . S
C486 C483 1.526 . S
C486 C487 1.396 . S
C486 C491 1.390 . S
C487 C481 1.465 . S
C487 C486 1.396 . S
C487 C488 1.399 . S
C488 H474 0.929 . S
C488 C487 1.399 . S
C488 C489 1.385 . S
C489 H475 0.931 . S
C489 C488 1.385 . S
C489 C490 1.389 . S
C490 C489 1.389 . S
C490 C491 1.387 . S
C491 H476 0.930 . S
C491 C486 1.390 . S
C491 C490 1.387 . S
H492 C504 0.930 . S
H493 C506 0.930 . S
H494 C507 0.930 . S
H495 C511 0.959 . S
H496 C511 0.959 . S
H497 C511 0.961 . S
H498 C512 0.960 . S
H499 C512 0.961 . S
H500 C512 0.959 . S
H501 C515 0.929 . S
H502 C516 0.931 . S
H503 C518 0.930 . S
C504 H492 0.930 . S
C504 C505 1.399 . S
C504 C509 1.399 . S
C505 C504 1.399 . S
C505 C506 1.376 . S
C506 H493 0.930 . S
C506 C505 1.376 . S
C506 C507 1.388 . S
C507 H494 0.930 . S
C507 C506 1.388 . S
C507 C508 1.390 . S
C508 C507 1.390 . S
C508 C509 1.394 . S
C508 C514 1.465 . S
C509 C504 1.399 . S
C509 C508 1.394 . S
C509 C510 1.516 . S
C510 C509 1.516 . S
C510 C511 1.502 . S
C510 C512 1.561 . S
C510 C513 1.526 . S
C511 H495 0.959 . S
C511 H496 0.959 . S
C511 H497 0.961 . S
C511 C510 1.502 . S
C512 H498 0.960 . S
C512 H499 0.961 . S
C512 H500 0.959 . S
C512 C510 1.561 . S
C513 C510 1.526 . S
C513 C514 1.396 . S
C513 C518 1.390 . S
C514 C508 1.465 . S
C514 C513 1.396 . S
C514 C515 1.399 . S
C515 H501 0.929 . S
C515 C514 1.399 . S
C515 C516 1.385 . S
C516 H502 0.931 . S
C516 C515 1.385 . S
C516 C517 1.389 . S
C517 C516 1.389 . S
C517 C518 1.387 . S
C518 H503 0.930 . S
C518 C513 1.390 . S
C518 C517 1.387 . S
H519 C531 0.930 . S
H520 C533 0.930 . S
H521 C534 0.930 . S
H522 C538 0.959 . S
H523 C538 0.959 . S
H524 C538 0.961 . S
H525 C539 0.960 . S
H526 C539 0.961 . S
H527 C539 0.959 1_655 S
H528 C542 0.929 1_655 S
H529 C543 0.919 1_655 S
H530 C545 0.930 . S
C531 H519 0.930 . S
C531 C532 1.399 . S
C531 C536 1.399 . S
C532 C531 1.399 . S
C532 C533 1.376 . S
C533 H520 0.930 . S
C533 C532 1.376 . S
C533 C534 1.388 . S
C534 H521 0.930 . S
C534 C533 1.388 . S
C534 C535 1.390 . S
C535 C534 1.390 . S
C535 C536 1.394 . S
C535 C541 1.465 . S
C536 C531 1.399 . S
C536 C535 1.394 . S
C536 C537 1.516 . S
C537 C536 1.516 . S
C537 C538 1.502 . S
C537 C539 1.561 . S
C537 C540 1.526 . S
C538 H522 0.959 . S
C538 H523 0.959 . S
C538 H524 0.961 . S
C538 C537 1.502 . S
C539 H525 0.960 . S
C539 H526 0.961 . S
C539 H527 0.959 1_455 S
C539 C537 1.561 . S
C540 C537 1.526 . S
C540 C541 1.396 . S
C540 C545 1.390 . S
C541 C535 1.465 . S
C541 C540 1.396 . S
C541 C542 1.399 . S
C542 H528 0.929 1_455 S
C542 C541 1.399 . S
C542 C543 1.388 . S
C543 H529 0.919 1_455 S
C543 C542 1.388 . S
C543 C544 1.399 . S
C544 C543 1.399 . S
C544 C545 1.387 . S
C545 H530 0.930 . S
C545 C540 1.390 . S
C545 C544 1.387 . S
H546 C558 0.930 . S
H547 C560 0.930 . S
H548 C561 0.930 . S
H549 C565 0.959 . S
H550 C565 0.959 . S
H551 C565 0.961 . S
H552 C566 0.960 . S
H553 C566 0.961 . S
H554 C566 0.959 . S
H555 C569 0.929 . S
H556 C570 0.931 . S
H557 C572 0.930 . S
C558 H546 0.930 . S
C558 C559 1.399 . S
C558 C563 1.399 . S
C559 C558 1.399 . S
C559 C560 1.376 . S
C560 H547 0.930 . S
C560 C559 1.376 . S
C560 C561 1.388 . S
C561 H548 0.930 . S
C561 C560 1.388 . S
C561 C562 1.390 . S
C562 C561 1.390 . S
C562 C563 1.394 . S
C562 C568 1.465 . S
C563 C558 1.399 . S
C563 C562 1.394 . S
C563 C564 1.516 . S
C564 C563 1.516 . S
C564 C565 1.502 1_655 S
C564 C566 1.561 . S
C564 C567 1.526 . S
C565 H549 0.959 . S
C565 H550 0.959 . S
C565 H551 0.961 . S
C565 C564 1.502 1_455 S
C566 H552 0.960 . S
C566 H553 0.961 . S
C566 H554 0.959 . S
C566 C564 1.561 . S
C567 C564 1.526 . S
C567 C568 1.396 . S
C567 C572 1.390 . S
C568 C562 1.465 . S
C568 C567 1.396 . S
C568 C569 1.399 . S
C569 H555 0.929 . S
C569 C568 1.399 . S
C569 C570 1.385 . S
C570 H556 0.931 . S
C570 C569 1.385 . S
C570 C571 1.389 . S
C571 C570 1.389 . S
C571 C572 1.387 . S
C572 H557 0.930 . S
C572 C567 1.390 . S
C572 C571 1.387 . S
H573 C585 0.930 . S
H574 C587 0.930 . S
H575 C588 0.930 . S
H576 C592 0.959 . S
H577 C592 0.959 . S
H578 C592 0.961 . S
H579 C593 0.960 . S
H580 C593 0.961 . S
H581 C593 0.959 . S
H582 C596 0.929 . S
H583 C597 0.931 . S
H584 C599 0.930 . S
C585 H573 0.930 . S
C585 C586 1.399 . S
C585 C590 1.399 . S
C586 C585 1.399 . S
C586 C587 1.376 . S
C587 H574 0.930 . S
C587 C586 1.376 . S
C587 C588 1.388 . S
C588 H575 0.930 . S
C588 C587 1.388 . S
C588 C589 1.390 . S
C589 C588 1.390 . S
C589 C590 1.394 . S
C589 C595 1.465 . S
C590 C585 1.399 . S
C590 C589 1.394 . S
C590 C591 1.516 . S
C591 C590 1.516 . S
C591 C592 1.502 . S
C591 C593 1.561 . S
C591 C594 1.526 . S
C592 H576 0.959 . S
C592 H577 0.959 . S
C592 H578 0.961 . S
C592 C591 1.502 . S
C593 H579 0.960 . S
C593 H580 0.961 . S
C593 H581 0.959 . S
C593 C591 1.561 . S
C594 C591 1.526 . S
C594 C595 1.396 . S
C594 C599 1.390 . S
C595 C589 1.465 . S
C595 C594 1.396 . S
C595 C596 1.399 . S
C596 H582 0.929 . S
C596 C595 1.399 . S
C596 C597 1.385 . S
C597 H583 0.931 . S
C597 C596 1.385 . S
C597 C598 1.389 . S
C598 C597 1.389 . S
C598 C599 1.387 . S
C599 H584 0.930 . S
C599 C594 1.390 . S
C599 C598 1.387 . S
H600 C612 0.930 . S
H601 C614 0.930 . S
H602 C615 0.930 . S
H603 C619 0.959 . S
H604 C619 0.959 . S
H605 C619 0.961 . S
H606 C620 0.960 . S
H607 C620 0.961 . S
H608 C620 0.959 . S
H609 C623 0.929 . S
H610 C624 0.931 . S
H611 C626 0.930 . S
C612 H600 0.930 . S
C612 C613 1.399 . S
C612 C617 1.399 . S
C613 C612 1.399 . S
C613 C614 1.376 . S
C614 H601 0.930 . S
C614 C613 1.376 . S
C614 C615 1.388 . S
C615 H602 0.930 . S
C615 C614 1.388 . S
C615 C616 1.390 . S
C616 C615 1.390 . S
C616 C617 1.394 . S
C616 C622 1.465 . S
C617 C612 1.399 . S
C617 C616 1.394 . S
C617 C618 1.516 . S
C618 C617 1.516 . S
C618 C619 1.502 . S
C618 C620 1.561 . S
C618 C621 1.526 . S
C619 H603 0.959 . S
C619 H604 0.959 . S
C619 H605 0.961 . S
C619 C618 1.502 . S
C620 H606 0.960 . S
C620 H607 0.961 . S
C620 H608 0.959 . S
C620 C618 1.561 . S
C621 C618 1.526 . S
C621 C622 1.396 . S
C621 C626 1.390 . S
C622 C616 1.465 . S
C622 C621 1.396 . S
C622 C623 1.399 . S
C623 H609 0.929 . S
C623 C622 1.399 . S
C623 C624 1.385 . S
C624 H610 0.931 . S
C624 C623 1.385 . S
C624 C625 1.389 . S
C625 C624 1.389 . S
C625 C626 1.387 . S
C626 H611 0.930 . S
C626 C621 1.390 . S
C626 C625 1.387 . S
H627 C639 0.930 . S
H628 C641 0.930 1_455 S
H629 C642 0.930 . S
H630 C646 0.959 . S
H631 C646 0.959 . S
H632 C646 0.961 . S
H633 C647 0.960 . S
H634 C647 0.961 . S
H635 C647 0.959 . S
H636 C650 0.929 . S
H637 C651 0.931 . S
H638 C653 0.930 . S
C639 H627 0.930 . S
C639 C640 1.399 . S
C639 C644 1.399 . S
C640 C639 1.399 . S
C640 C641 1.376 . S
C641 H628 0.930 1_655 S
C641 C640 1.376 . S
C641 C642 1.388 . S
C642 H629 0.930 . S
C642 C641 1.388 . S
C642 C643 1.390 . S
C643 C642 1.390 . S
C643 C644 1.394 . S
C643 C649 1.465 . S
C644 C639 1.399 . S
C644 C643 1.394 . S
C644 C645 1.516 . S
C645 C644 1.516 . S
C645 C646 1.502 . S
C645 C647 1.561 . S
C645 C648 1.526 . S
C646 H630 0.959 . S
C646 H631 0.959 . S
C646 H632 0.961 . S
C646 C645 1.502 . S
C647 H633 0.960 . S
C647 H634 0.961 . S
C647 H635 0.959 . S
C647 C645 1.561 . S
C648 C645 1.526 . S
C648 C649 1.396 . S
C648 C653 1.390 . S
C649 C643 1.465 . S
C649 C648 1.396 . S
C649 C650 1.399 . S
C650 H636 0.929 . S
C650 C649 1.399 . S
C650 C651 1.385 . S
C651 H637 0.931 . S
C651 C650 1.385 . S
C651 C652 1.389 . S
C652 C651 1.389 . S
C652 C653 1.387 . S
C653 H638 0.930 . S
C653 C648 1.390 . S
C653 C652 1.387 . S
H654 C666 0.930 . S
H655 C668 0.930 . S
H656 C669 0.930 . S
H657 C673 0.959 . S
H658 C673 0.959 . S
H659 C673 0.961 . S
H660 C674 0.960 . S
H661 C674 0.961 . S
H662 C674 0.959 . S
H663 C677 0.929 . S
H664 C678 0.931 . S
H665 C680 0.930 . S
C666 H654 0.930 . S
C666 C667 1.399 . S
C666 C671 1.399 . S
C667 C666 1.399 . S
C667 C668 1.376 . S
C668 H655 0.930 . S
C668 C667 1.376 . S
C668 C669 1.388 . S
C669 H656 0.930 . S
C669 C668 1.388 . S
C669 C670 1.390 . S
C670 C669 1.390 . S
C670 C671 1.394 . S
C670 C676 1.465 . S
C671 C666 1.399 . S
C671 C670 1.394 . S
C671 C672 1.516 . S
C672 C671 1.516 . S
C672 C673 1.502 . S
C672 C674 1.561 . S
C672 C675 1.526 . S
C673 H657 0.959 . S
C673 H658 0.959 . S
C673 H659 0.961 . S
C673 C672 1.502 . S
C674 H660 0.960 . S
C674 H661 0.961 . S
C674 H662 0.959 . S
C674 C672 1.561 . S
C675 C672 1.526 . S
C675 C676 1.396 . S
C675 C680 1.390 . S
C676 C670 1.465 . S
C676 C675 1.396 . S
C676 C677 1.399 . S
C677 H663 0.929 . S
C677 C676 1.399 . S
C677 C678 1.385 . S
C678 H664 0.931 . S
C678 C677 1.385 . S
C678 C679 1.389 . S
C679 C678 1.389 . S
C679 C680 1.387 . S
C680 H665 0.930 . S
C680 C675 1.390 . S
C680 C679 1.387 . S
H681 C693 0.930 . S
H682 C695 0.930 . S
H683 C696 0.930 . S
H684 C700 0.959 . S
H685 C700 0.959 . S
H686 C700 0.961 1_554 S
H687 C701 0.960 . S
H688 C701 0.978 . S
H689 C701 0.959 . S
H690 C704 0.929 . S
H691 C705 0.931 . S
H692 C707 0.930 . S
C693 H681 0.930 . S
C693 C694 1.399 . S
C693 C698 1.399 . S
C694 C693 1.399 . S
C694 C695 1.376 . S
C695 H682 0.930 . S
C695 C694 1.376 . S
C695 C696 1.388 . S
C696 H683 0.930 . S
C696 C695 1.388 . S
C696 C697 1.390 . S
C697 C696 1.390 . S
C697 C698 1.394 . S
C697 C703 1.465 . S
C698 C693 1.399 . S
C698 C697 1.394 . S
C698 C699 1.516 . S
C699 C698 1.516 . S
C699 C700 1.502 1_554 S
C699 C701 1.561 . S
C699 C702 1.526 1_554 S
C700 H684 0.959 . S
C700 H685 0.959 . S
C700 H686 0.961 1_556 S
C700 C699 1.502 1_556 S
C701 H687 0.960 . S
C701 H688 0.978 . S
C701 H689 0.959 . S
C701 C699 1.561 . S
C702 C699 1.526 1_556 S
C702 C703 1.396 1_556 S
C702 C707 1.390 . S
C703 C697 1.465 . S
C703 C702 1.396 1_554 S
C703 C704 1.399 . S
C704 H690 0.929 . S
C704 C703 1.399 . S
C704 C705 1.385 1_554 S
C705 H691 0.931 . S
C705 C704 1.385 1_556 S
C705 C706 1.389 . S
C706 C705 1.389 . S
C706 C707 1.387 . S
C707 H692 0.930 . S
C707 C702 1.390 . S
C707 C706 1.387 . S
H708 C720 0.930 . S
H709 C722 0.930 . S
H710 C723 0.930 . S
H711 C727 0.959 . S
H712 C727 0.959 . S
H713 C727 0.961 . S
H714 C728 0.960 . S
H715 C728 0.961 . S
H716 C728 0.959 . S
H717 C731 0.929 . S
H718 C732 0.931 . S
H719 C734 0.930 . S
C720 H708 0.930 . S
C720 C721 1.399 . S
C720 C725 1.399 . S
C721 C720 1.399 . S
C721 C722 1.376 . S
C722 H709 0.930 . S
C722 C721 1.376 . S
C722 C723 1.388 . S
C723 H710 0.930 . S
C723 C722 1.388 . S
C723 C724 1.390 . S
C724 C723 1.390 . S
C724 C725 1.394 . S
C724 C730 1.465 . S
C725 C720 1.399 . S
C725 C724 1.394 . S
C725 C726 1.516 . S
C726 C725 1.516 . S
C726 C727 1.502 . S
C726 C728 1.561 . S
C726 C729 1.526 . S
C727 H711 0.959 . S
C727 H712 0.959 . S
C727 H713 0.961 . S
C727 C726 1.502 . S
C728 H714 0.960 . S
C728 H715 0.961 . S
C728 H716 0.959 . S
C728 C726 1.561 . S
C729 C726 1.526 . S
C729 C730 1.396 . S
C729 C734 1.390 . S
C730 C724 1.465 . S
C730 C729 1.396 . S
C730 C731 1.399 . S
C731 H717 0.929 . S
C731 C730 1.399 . S
C731 C732 1.385 . S
C732 H718 0.931 . S
C732 C731 1.385 . S
C732 C733 1.389 . S
C733 C732 1.389 . S
C733 C734 1.387 . S
C734 H719 0.930 . S
C734 C729 1.390 . S
C734 C733 1.387 . S
H735 C747 0.930 1_556 S
H736 C749 0.930 . S
H737 C750 0.930 . S
H738 C754 0.959 . S
H739 C754 0.959 . S
H740 C754 0.961 . S
H741 C755 0.960 . S
H742 C755 0.961 . S
H743 C755 0.959 . S
H744 C758 0.929 . S
H745 C759 0.931 . S
H746 C761 0.930 . S
C747 H735 0.930 1_554 S
C747 C748 1.399 . S
C747 C752 1.399 1_554 S
C748 C747 1.399 . S
C748 C749 1.376 . S
C749 H736 0.930 . S
C749 C748 1.376 . S
C749 C750 1.388 . S
C750 H737 0.930 . S
C750 C749 1.388 . S
C750 C751 1.390 1_554 S
C751 C750 1.390 1_556 S
C751 C752 1.394 . S
C751 C757 1.465 . S
C752 C747 1.399 1_556 S
C752 C751 1.394 . S
C752 C753 1.516 . S
C753 C752 1.516 . S
C753 C754 1.502 . S
C753 C755 1.561 . S
C753 C756 1.526 . S
C754 H738 0.959 . S
C754 H739 0.959 . S
C754 H740 0.961 . S
C754 C753 1.502 . S
C755 H741 0.960 . S
C755 H742 0.961 . S
C755 H743 0.959 . S
C755 C753 1.561 . S
C756 C753 1.526 . S
C756 C757 1.396 . S
C756 C761 1.390 . S
C757 C751 1.465 . S
C757 C756 1.396 . S
C757 C758 1.399 . S
C758 H744 0.929 . S
C758 C757 1.399 . S
C758 C759 1.385 . S
C759 H745 0.931 . S
C759 C758 1.385 . S
C759 C760 1.389 . S
C760 C759 1.389 . S
C760 C761 1.387 . S
C761 H746 0.930 . S
C761 C756 1.390 . S
C761 C760 1.387 . S
H762 C774 0.930 . S
H763 C776 0.930 . S
H764 C777 0.930 . S
H765 C781 0.959 . S
H766 C781 0.959 . S
H767 C781 0.961 . S
H768 C782 0.960 . S
H769 C782 0.961 . S
H770 C782 0.959 . S
H771 C785 0.929 . S
H772 C786 0.931 . S
H773 C788 0.930 . S
C774 H762 0.930 . S
C774 C775 1.399 . S
C774 C779 1.399 . S
C775 C774 1.399 . S
C775 C776 1.376 . S
C776 H763 0.930 . S
C776 C775 1.376 . S
C776 C777 1.388 . S
C777 H764 0.930 . S
C777 C776 1.388 . S
C777 C778 1.390 . S
C778 C777 1.390 . S
C778 C779 1.394 . S
C778 C784 1.465 . S
C779 C774 1.399 . S
C779 C778 1.394 . S
C779 C780 1.516 . S
C780 C779 1.516 . S
C780 C781 1.502 . S
C780 C782 1.561 . S
C780 C783 1.526 . S
C781 H765 0.959 . S
C781 H766 0.959 . S
C781 H767 0.961 . S
C781 C780 1.502 . S
C782 H768 0.960 . S
C782 H769 0.961 . S
C782 H770 0.959 . S
C782 C780 1.561 . S
C783 C780 1.526 . S
C783 C784 1.396 . S
C783 C788 1.390 . S
C784 C778 1.465 . S
C784 C783 1.396 . S
C784 C785 1.399 . S
C785 H771 0.929 . S
C785 C784 1.399 . S
C785 C786 1.385 . S
C786 H772 0.931 . S
C786 C785 1.385 . S
C786 C787 1.389 . S
C787 C786 1.389 . S
C787 C788 1.387 . S
C788 H773 0.930 . S
C788 C783 1.390 . S
C788 C787 1.387 . S
H789 C801 0.930 . S
H790 C803 0.930 . S
H791 C804 0.930 . S
H792 C808 0.959 . S
H793 C808 0.959 . S
H794 C808 0.961 . S
H795 C809 0.960 . S
H796 C809 0.961 . S
H797 C809 0.959 . S
H798 C812 0.929 . S
H799 C813 0.931 . S
H800 C815 0.930 . S
C801 H789 0.930 . S
C801 C802 1.399 . S
C801 C806 1.399 . S
C802 C801 1.399 . S
C802 C803 1.376 . S
C803 H790 0.930 . S
C803 C802 1.376 . S
C803 C804 1.388 . S
C804 H791 0.930 . S
C804 C803 1.388 . S
C804 C805 1.390 . S
C805 C804 1.390 . S
C805 C806 1.394 . S
C805 C811 1.465 . S
C806 C801 1.399 . S
C806 C805 1.394 . S
C806 C807 1.516 . S
C807 C806 1.516 . S
C807 C808 1.502 . S
C807 C809 1.561 . S
C807 C810 1.526 . S
C808 H792 0.959 . S
C808 H793 0.959 . S
C808 H794 0.961 . S
C808 C807 1.502 . S
C809 H795 0.960 . S
C809 H796 0.961 . S
C809 H797 0.959 . S
C809 C807 1.561 . S
C810 C807 1.526 . S
C810 C811 1.396 . S
C810 C815 1.390 . S
C811 C805 1.465 . S
C811 C810 1.396 . S
C811 C812 1.399 . S
C812 H798 0.929 . S
C812 C811 1.399 . S
C812 C813 1.385 . S
C813 H799 0.931 . S
C813 C812 1.385 . S
C813 C814 1.389 . S
C814 C813 1.389 . S
C814 C815 1.387 . S
C815 H800 0.930 . S
C815 C810 1.390 . S
C815 C814 1.387 . S
H816 C828 0.930 . S
H817 C830 0.930 . S
H818 C831 0.930 . S
H819 C835 0.959 . S
H820 C835 0.959 . S
H821 C835 0.961 . S
H822 C836 0.960 . S
H823 C836 0.961 . S
H824 C836 0.959 . S
H825 C839 0.929 . S
H826 C840 0.931 . S
H827 C842 0.930 . S
C828 H816 0.930 . S
C828 C829 1.399 . S
C828 C833 1.399 . S
C829 C828 1.399 . S
C829 C830 1.376 . S
C830 H817 0.930 . S
C830 C829 1.376 . S
C830 C831 1.388 . S
C831 H818 0.930 . S
C831 C830 1.388 . S
C831 C832 1.390 . S
C832 C831 1.390 . S
C832 C833 1.394 . S
C832 C838 1.465 . S
C833 C828 1.399 . S
C833 C832 1.394 . S
C833 C834 1.516 . S
C834 C833 1.516 . S
C834 C835 1.502 . S
C834 C836 1.561 . S
C834 C837 1.526 . S
C835 H819 0.959 . S
C835 H820 0.959 . S
C835 H821 0.961 . S
C835 C834 1.502 . S
C836 H822 0.960 . S
C836 H823 0.961 . S
C836 H824 0.959 . S
C836 C834 1.561 . S
C837 C834 1.526 . S
C837 C838 1.396 . S
C837 C842 1.390 . S
C838 C832 1.465 . S
C838 C837 1.396 . S
C838 C839 1.399 . S
C839 H825 0.929 . S
C839 C838 1.399 . S
C839 C840 1.385 . S
C840 H826 0.931 . S
C840 C839 1.385 . S
C840 C841 1.389 . S
C841 C840 1.389 . S
C841 C842 1.387 . S
C842 H827 0.930 . S
C842 C837 1.390 . S
C842 C841 1.387 . S
H843 C855 0.930 . S
H844 C857 0.930 . S
H845 C858 0.930 . S
H846 C862 0.959 . S
H847 C862 0.959 . S
H848 C862 0.961 . S
H849 C863 0.960 . S
H850 C863 0.961 . S
H851 C863 0.959 . S
H852 C866 0.929 . S
H853 C867 0.931 . S
H854 C869 0.930 . S
C855 H843 0.930 . S
C855 C856 1.399 . S
C855 C860 1.399 . S
C856 C855 1.399 . S
C856 C857 1.376 . S
C857 H844 0.930 . S
C857 C856 1.376 . S
C857 C858 1.388 . S
C858 H845 0.930 . S
C858 C857 1.388 . S
C858 C859 1.390 . S
C859 C858 1.390 . S
C859 C860 1.394 . S
C859 C865 1.465 . S
C860 C855 1.399 . S
C860 C859 1.394 . S
C860 C861 1.516 . S
C861 C860 1.516 . S
C861 C862 1.502 . S
C861 C863 1.561 . S
C861 C864 1.526 . S
C862 H846 0.959 . S
C862 H847 0.959 . S
C862 H848 0.961 . S
C862 C861 1.502 . S
C863 H849 0.960 . S
C863 H850 0.961 . S
C863 H851 0.959 . S
C863 C861 1.561 . S
C864 C861 1.526 . S
C864 C865 1.396 . S
C864 C869 1.390 1_545 S
C865 C859 1.465 . S
C865 C864 1.396 . S
C865 C866 1.399 1_545 S
C866 H852 0.929 . S
C866 C865 1.399 1_565 S
C866 C867 1.385 . S
C867 H853 0.931 . S
C867 C866 1.385 . S
C867 C868 1.389 . S
C868 C867 1.389 . S
C868 C869 1.387 . S
C869 H854 0.930 . S
C869 C864 1.390 1_565 S
C869 C868 1.387 . S
H870 C882 0.930 . S
H871 C884 0.930 . S
H872 C885 0.930 . S
H873 C889 0.959 . S
H874 C889 0.959 . S
H875 C889 0.961 . S
H876 C890 0.960 . S
H877 C890 0.961 . S
H878 C890 0.959 . S
H879 C893 0.929 . S
H880 C894 0.931 . S
H881 C896 0.930 . S
C882 H870 0.930 . S
C882 C883 1.399 . S
C882 C887 1.399 . S
C883 C882 1.399 . S
C883 C884 1.376 . S
C884 H871 0.930 . S
C884 C883 1.376 . S
C884 C885 1.388 . S
C885 H872 0.930 . S
C885 C884 1.388 . S
C885 C886 1.390 . S
C886 C885 1.390 . S
C886 C887 1.394 . S
C886 C892 1.465 . S
C887 C882 1.399 . S
C887 C886 1.394 . S
C887 C888 1.516 . S
C888 C887 1.516 . S
C888 C889 1.502 . S
C888 C890 1.561 . S
C888 C891 1.526 . S
C889 H873 0.959 . S
C889 H874 0.959 . S
C889 H875 0.961 . S
C889 C888 1.502 . S
C890 H876 0.960 . S
C890 H877 0.961 . S
C890 H878 0.959 . S
C890 C888 1.561 . S
C891 C888 1.526 . S
C891 C892 1.396 . S
C891 C896 1.390 . S
C892 C886 1.465 . S
C892 C891 1.396 . S
C892 C893 1.399 . S
C893 H879 0.929 . S
C893 C892 1.399 . S
C893 C894 1.385 . S
C894 H880 0.931 . S
C894 C893 1.385 . S
C894 C895 1.389 . S
C895 C894 1.389 . S
C895 C896 1.387 . S
C896 H881 0.930 . S
C896 C891 1.390 . S
C896 C895 1.387 . S
H897 C909 0.930 . S
H898 C911 0.930 . S
H899 C912 0.930 . S
H900 C916 0.959 . S
H901 C916 0.959 . S
H902 C916 0.961 . S
H903 C917 0.960 . S
H904 C917 0.961 . S
H905 C917 0.959 . S
H906 C920 0.929 . S
H907 C921 0.931 . S
H908 C923 0.930 . S
C909 H897 0.930 . S
C909 C910 1.399 . S
C909 C914 1.399 1_545 S
C910 C909 1.399 . S
C910 C911 1.376 . S
C911 H898 0.930 . S
C911 C910 1.376 . S
C911 C912 1.388 . S
C912 H899 0.930 . S
C912 C911 1.388 . S
C912 C913 1.390 1_545 S
C913 C912 1.390 1_565 S
C913 C914 1.394 . S
C913 C919 1.465 . S
C914 C909 1.399 1_565 S
C914 C913 1.394 . S
C914 C915 1.516 . S
C915 C914 1.516 . S
C915 C916 1.502 . S
C915 C917 1.561 . S
C915 C918 1.526 . S
C916 H900 0.959 . S
C916 H901 0.959 . S
C916 H902 0.961 . S
C916 C915 1.502 . S
C917 H903 0.960 . S
C917 H904 0.961 . S
C917 H905 0.959 . S
C917 C915 1.561 . S
C918 C915 1.526 . S
C918 C919 1.396 . S
C918 C923 1.390 . S
C919 C913 1.465 . S
C919 C918 1.396 . S
C919 C920 1.399 . S
C920 H906 0.929 . S
C920 C919 1.399 . S
C920 C921 1.385 . S
C921 H907 0.931 . S
C921 C920 1.385 . S
C921 C922 1.389 . S
C922 C921 1.389 . S
C922 C923 1.387 . S
C923 H908 0.930 . S
C923 C918 1.390 . S
C923 C922 1.387 . S
H924 C936 0.930 . S
H925 C938 0.930 . S
H926 C939 0.930 . S
H927 C943 0.959 . S
H928 C943 0.959 . S
H929 C943 0.961 . S
H930 C944 0.960 . S
H931 C944 0.961 . S
H932 C944 0.959 . S
H933 C947 0.929 . S
H934 C948 0.931 . S
H935 C950 0.930 . S
C936 H924 0.930 . S
C936 C937 1.399 . S
C936 C941 1.399 . S
C937 C936 1.399 . S
C937 C938 1.376 . S
C938 H925 0.930 . S
C938 C937 1.376 . S
C938 C939 1.388 . S
C939 H926 0.930 . S
C939 C938 1.388 . S
C939 C940 1.390 . S
C940 C939 1.390 . S
C940 C941 1.394 . S
C940 C946 1.465 . S
C941 C936 1.399 . S
C941 C940 1.394 . S
C941 C942 1.516 . S
C942 C941 1.516 . S
C942 C943 1.502 . S
C942 C944 1.561 . S
C942 C945 1.526 . S
C943 H927 0.959 . S
C943 H928 0.959 . S
C943 H929 0.961 . S
C943 C942 1.502 . S
C944 H930 0.960 . S
C944 H931 0.961 . S
C944 H932 0.959 . S
C944 C942 1.561 . S
C945 C942 1.526 . S
C945 C946 1.396 . S
C945 C950 1.390 . S
C946 C940 1.465 . S
C946 C945 1.396 . S
C946 C947 1.399 . S
C947 H933 0.929 . S
C947 C946 1.399 . S
C947 C948 1.385 . S
C948 H934 0.931 . S
C948 C947 1.385 . S
C948 C949 1.389 . S
C949 C948 1.389 . S
C949 C950 1.387 . S
C950 H935 0.930 . S
C950 C945 1.390 . S
C950 C949 1.387 . S
H951 C963 0.930 . S
H952 C965 0.930 . S
H953 C966 0.930 . S
H954 C970 0.959 . S
H955 C970 0.959 . S
H956 C970 0.961 . S
H957 C971 0.960 . S
H958 C971 0.961 . S
H959 C971 0.959 . S
H960 C974 0.929 . S
H961 C975 0.931 1_554 S
H962 C977 0.930 . S
C963 H951 0.930 . S
C963 C964 1.399 . S
C963 C968 1.399 . S
C964 C963 1.399 . S
C964 C965 1.376 . S
C965 H952 0.930 . S
C965 C964 1.376 . S
C965 C966 1.388 . S
C966 H953 0.930 . S
C966 C965 1.388 . S
C966 C967 1.390 . S
C967 C966 1.390 . S
C967 C968 1.394 . S
C967 C973 1.465 . S
C968 C963 1.399 . S
C968 C967 1.394 . S
C968 C969 1.516 . S
C969 C968 1.516 . S
C969 C970 1.502 . S
C969 C971 1.561 . S
C969 C972 1.526 . S
C970 H954 0.959 . S
C970 H955 0.959 . S
C970 H956 0.961 . S
C970 C969 1.502 . S
C971 H957 0.960 . S
C971 H958 0.961 . S
C971 H959 0.959 . S
C971 C969 1.561 . S
C972 C969 1.526 . S
C972 C973 1.396 . S
C972 C977 1.390 . S
C973 C967 1.465 . S
C973 C972 1.396 . S
C973 C974 1.399 . S
C974 H960 0.929 . S
C974 C973 1.399 . S
C974 C975 1.385 . S
C975 H961 0.931 1_556 S
C975 C974 1.385 . S
C975 C976 1.389 . S
C976 C975 1.389 . S
C976 C977 1.387 . S
C977 H962 0.930 . S
C977 C972 1.390 . S
C977 C976 1.387 . S
H978 C990 0.930 . S
H979 C992 0.930 . S
H980 C993 0.930 . S
H981 C997 0.959 . S
H982 C997 0.959 . S
H983 C997 0.961 . S
H984 C998 0.960 . S
H985 C998 0.961 . S
H986 C998 0.959 . S
H987 C1001 0.929 . S
H988 C1002 0.931 . S
H989 C1004 0.930 . S
C990 H978 0.930 . S
C990 C991 1.399 . S
C990 C995 1.399 . S
C991 C990 1.399 . S
C991 C992 1.376 . S
C992 H979 0.930 . S
C992 C991 1.376 . S
C992 C993 1.388 . S
C993 H980 0.930 . S
C993 C992 1.388 . S
C993 C994 1.390 . S
C994 C993 1.390 . S
C994 C995 1.394 . S
C994 C1000 1.465 . S
C995 C990 1.399 . S
C995 C994 1.394 . S
C995 C996 1.516 . S
C996 C995 1.516 . S
C996 C997 1.502 . S
C996 C998 1.561 . S
C996 C999 1.526 . S
C997 H981 0.959 . S
C997 H982 0.959 . S
C997 H983 0.961 . S
C997 C996 1.502 . S
C998 H984 0.960 . S
C998 H985 0.961 . S
C998 H986 0.959 . S
C998 C996 1.561 . S
C999 C996 1.526 . S
C999 C1000 1.396 . S
C999 C1004 1.390 . S
C1000 C994 1.465 . S
C1000 C999 1.396 . S
C1000 C1001 1.399 . S
C1001 H987 0.929 . S
C1001 C1000 1.399 . S
C1001 C1002 1.385 . S
C1002 H988 0.931 . S
C1002 C1001 1.385 . S
C1002 C1003 1.389 . S
C1003 C1002 1.389 . S
C1003 C1004 1.387 . S
C1004 H989 0.930 . S
C1004 C999 1.390 . S
C1004 C1003 1.387 . S
H1005 C1017 0.930 . S
H1006 C1019 0.930 . S
H1007 C1020 0.930 . S
H1008 C1024 0.959 . S
H1009 C1024 0.959 . S
H1010 C1024 0.961 . S
H1011 C1025 0.960 . S
H1012 C1025 0.961 . S
H1013 C1025 0.959 . S
H1014 C1028 0.929 . S
H1015 C1029 0.931 . S
H1016 C1031 0.930 . S
C1017 H1005 0.930 . S
C1017 C1018 1.399 . S
C1017 C1022 1.399 . S
C1018 C1017 1.399 . S
C1018 C1019 1.376 . S
C1019 H1006 0.930 . S
C1019 C1018 1.376 . S
C1019 C1020 1.388 . S
C1020 H1007 0.930 . S
C1020 C1019 1.388 . S
C1020 C1021 1.390 . S
C1021 C1020 1.390 . S
C1021 C1022 1.394 . S
C1021 C1027 1.465 . S
C1022 C1017 1.399 . S
C1022 C1021 1.394 . S
C1022 C1023 1.516 . S
C1023 C1022 1.516 . S
C1023 C1024 1.502 . S
C1023 C1025 1.561 . S
C1023 C1026 1.526 . S
C1024 H1008 0.959 . S
C1024 H1009 0.959 . S
C1024 H1010 0.961 . S
C1024 C1023 1.502 . S
C1025 H1011 0.960 . S
C1025 H1012 0.961 . S
C1025 H1013 0.959 . S
C1025 C1023 1.561 . S
C1026 C1023 1.526 . S
C1026 C1027 1.396 . S
C1026 C1031 1.390 . S
C1027 C1021 1.465 . S
C1027 C1026 1.396 . S
C1027 C1028 1.399 . S
C1028 H1014 0.929 . S
C1028 C1027 1.399 . S
C1028 C1029 1.385 . S
C1029 H1015 0.931 . S
C1029 C1028 1.385 . S
C1029 C1030 1.389 . S
C1030 C1029 1.389 . S
C1030 C1031 1.387 . S
C1031 H1016 0.930 . S
C1031 C1026 1.390 . S
C1031 C1030 1.387 . S
H1032 C1044 0.930 . S
H1033 C1046 0.930 . S
H1034 C1047 0.930 . S
H1035 C1051 0.959 . S
H1036 C1051 0.959 . S
H1037 C1051 0.961 . S
H1038 C1052 0.960 . S
H1039 C1052 0.961 . S
H1040 C1052 0.959 . S
H1041 C1055 0.929 . S
H1042 C1056 0.931 . S
H1043 C1058 0.930 . S
C1044 H1032 0.930 . S
C1044 C1045 1.399 . S
C1044 C1049 1.399 . S
C1045 C1044 1.399 . S
C1045 C1046 1.376 . S
C1046 H1033 0.930 . S
C1046 C1045 1.376 . S
C1046 C1047 1.388 . S
C1047 H1034 0.930 . S
C1047 C1046 1.388 . S
C1047 C1048 1.390 . S
C1048 C1047 1.390 . S
C1048 C1049 1.394 . S
C1048 C1054 1.465 . S
C1049 C1044 1.399 . S
C1049 C1048 1.394 . S
C1049 C1050 1.516 . S
C1050 C1049 1.516 . S
C1050 C1051 1.502 . S
C1050 C1052 1.561 . S
C1050 C1053 1.526 . S
C1051 H1035 0.959 . S
C1051 H1036 0.959 . S
C1051 H1037 0.961 . S
C1051 C1050 1.502 . S
C1052 H1038 0.960 . S
C1052 H1039 0.961 . S
C1052 H1040 0.959 . S
C1052 C1050 1.561 . S
C1053 C1050 1.526 . S
C1053 C1054 1.396 . S
C1053 C1058 1.390 . S
C1054 C1048 1.465 . S
C1054 C1053 1.396 . S
C1054 C1055 1.399 . S
C1055 H1041 0.929 . S
C1055 C1054 1.399 . S
C1055 C1056 1.385 . S
C1056 H1042 0.931 . S
C1056 C1055 1.385 . S
C1056 C1057 1.389 . S
C1057 C1056 1.389 . S
C1057 C1058 1.387 . S
C1058 H1043 0.930 . S
C1058 C1053 1.390 . S
C1058 C1057 1.387 . S
H1059 C1071 0.930 . S
H1060 C1073 0.930 . S
H1061 C1074 0.930 . S
H1062 C1078 0.959 . S
H1063 C1078 0.959 . S
H1064 C1078 0.961 . S
H1065 C1079 0.960 . S
H1066 C1079 0.961 . S
H1067 C1079 0.959 . S
H1068 C1082 0.929 . S
H1069 C1083 0.931 . S
H1070 C1085 0.930 . S
C1071 H1059 0.930 . S
C1071 C1072 1.399 . S
C1071 C1076 1.399 . S
C1072 C1071 1.399 . S
C1072 C1073 1.376 . S
C1073 H1060 0.930 . S
C1073 C1072 1.376 . S
C1073 C1074 1.388 . S
C1074 H1061 0.930 . S
C1074 C1073 1.388 . S
C1074 C1075 1.390 . S
C1075 C1074 1.390 . S
C1075 C1076 1.394 . S
C1075 C1081 1.465 . S
C1076 C1071 1.399 . S
C1076 C1075 1.394 . S
C1076 C1077 1.516 . S
C1077 C1076 1.516 . S
C1077 C1078 1.502 . S
C1077 C1079 1.561 . S
C1077 C1080 1.526 . S
C1078 H1062 0.959 . S
C1078 H1063 0.959 . S
C1078 H1064 0.961 . S
C1078 C1077 1.502 . S
C1079 H1065 0.960 . S
C1079 H1066 0.961 . S
C1079 H1067 0.959 . S
C1079 C1077 1.561 . S
C1080 C1077 1.526 . S
C1080 C1081 1.396 . S
C1080 C1085 1.390 . S
C1081 C1075 1.465 . S
C1081 C1080 1.396 . S
C1081 C1082 1.399 . S
C1082 H1068 0.929 . S
C1082 C1081 1.399 . S
C1082 C1083 1.385 . S
C1083 H1069 0.931 . S
C1083 C1082 1.385 . S
C1083 C1084 1.389 . S
C1084 C1083 1.389 . S
C1084 C1085 1.387 . S
C1085 H1070 0.930 . S
C1085 C1080 1.390 . S
C1085 C1084 1.387 . S
H1086 C1098 0.930 . S
H1087 C1100 0.930 . S
H1088 C1101 0.930 . S
H1089 C1105 0.959 . S
H1090 C1105 0.959 . S
H1091 C1105 0.961 . S
H1092 C1106 0.960 . S
H1093 C1106 0.961 . S
H1094 C1106 0.959 . S
H1095 C1109 0.929 . S
H1096 C1110 0.931 . S
H1097 C1112 0.930 . S
C1098 H1086 0.930 . S
C1098 C1099 1.399 . S
C1098 C1103 1.399 . S
C1099 C1098 1.399 . S
C1099 C1100 1.376 . S
C1100 H1087 0.930 . S
C1100 C1099 1.376 . S
C1100 C1101 1.388 . S
C1101 H1088 0.930 . S
C1101 C1100 1.388 . S
C1101 C1102 1.390 . S
C1102 C1101 1.390 . S
C1102 C1103 1.394 . S
C1102 C1108 1.465 . S
C1103 C1098 1.399 . S
C1103 C1102 1.394 . S
C1103 C1104 1.516 1_455 S
C1104 C1103 1.516 1_655 S
C1104 C1105 1.502 . S
C1104 C1106 1.561 . S
C1104 C1107 1.526 . S
C1105 H1089 0.959 . S
C1105 H1090 0.959 . S
C1105 H1091 0.961 . S
C1105 C1104 1.502 . S
C1106 H1092 0.960 . S
C1106 H1093 0.961 . S
C1106 H1094 0.959 . S
C1106 C1104 1.561 . S
C1107 C1104 1.526 . S
C1107 C1108 1.396 1_655 S
C1107 C1112 1.390 . S
C1108 C1102 1.465 . S
C1108 C1107 1.396 1_455 S
C1108 C1109 1.399 . S
C1109 H1095 0.929 . S
C1109 C1108 1.399 . S
C1109 C1110 1.385 1_455 S
C1110 H1096 0.931 . S
C1110 C1109 1.385 1_655 S
C1110 C1111 1.389 . S
C1111 C1110 1.389 . S
C1111 C1112 1.387 . S
C1112 H1097 0.930 . S
C1112 C1107 1.390 . S
C1112 C1111 1.387 . S
H1113 C1125 0.930 . S
H1114 C1127 0.930 . S
H1115 C1128 0.930 . S
H1116 C1132 0.959 . S
H1117 C1132 0.959 . S
H1118 C1132 0.961 . S
H1119 C1133 0.960 . S
H1120 C1133 0.961 . S
H1121 C1133 0.959 . S
H1122 C1136 0.929 . S
H1123 C1137 0.931 . S
H1124 C1139 0.930 . S
C1125 H1113 0.930 . S
C1125 C1126 1.399 . S
C1125 C1130 1.399 . S
C1126 C1125 1.399 . S
C1126 C1127 1.376 . S
C1127 H1114 0.930 . S
C1127 C1126 1.376 . S
C1127 C1128 1.388 . S
C1128 H1115 0.930 . S
C1128 C1127 1.388 . S
C1128 C1129 1.390 . S
C1129 C1128 1.390 . S
C1129 C1130 1.394 . S
C1129 C1135 1.465 . S
C1130 C1125 1.399 . S
C1130 C1129 1.394 . S
C1130 C1131 1.516 . S
C1131 C1130 1.516 . S
C1131 C1132 1.502 . S
C1131 C1133 1.561 . S
C1131 C1134 1.526 . S
C1132 H1116 0.959 . S
C1132 H1117 0.959 . S
C1132 H1118 0.961 . S
C1132 C1131 1.502 . S
C1133 H1119 0.960 . S
C1133 H1120 0.961 . S
C1133 H1121 0.959 . S
C1133 C1131 1.561 . S
C1134 C1131 1.526 . S
C1134 C1135 1.396 . S
C1134 C1139 1.390 . S
C1135 C1129 1.465 . S
C1135 C1134 1.396 . S
C1135 C1136 1.399 . S
C1136 H1122 0.929 . S
C1136 C1135 1.399 . S
C1136 C1137 1.385 . S
C1137 H1123 0.931 . S
C1137 C1136 1.385 . S
C1137 C1138 1.389 . S
C1138 C1137 1.389 . S
C1138 C1139 1.387 . S
C1139 H1124 0.930 . S
C1139 C1134 1.390 . S
C1139 C1138 1.387 . S
H1140 C1152 0.930 . S
H1141 C1154 0.930 . S
H1142 C1155 0.930 . S
H1143 C1159 0.959 . S
H1144 C1159 0.959 . S
H1145 C1159 0.961 . S
H1146 C1160 0.960 . S
H1147 C1160 0.961 . S
H1148 C1160 0.959 . S
H1149 C1163 0.929 . S
H1150 C1164 0.931 . S
H1151 C1166 0.930 . S
C1152 H1140 0.930 . S
C1152 C1153 1.399 . S
C1152 C1157 1.399 . S
C1153 C1152 1.399 . S
C1153 C1154 1.376 . S
C1154 H1141 0.930 . S
C1154 C1153 1.376 . S
C1154 C1155 1.388 . S
C1155 H1142 0.930 . S
C1155 C1154 1.388 . S
C1155 C1156 1.390 . S
C1156 C1155 1.390 . S
C1156 C1157 1.394 . S
C1156 C1162 1.465 . S
C1157 C1152 1.399 . S
C1157 C1156 1.394 . S
C1157 C1158 1.516 . S
C1158 C1157 1.516 . S
C1158 C1159 1.502 . S
C1158 C1160 1.561 . S
C1158 C1161 1.526 . S
C1159 H1143 0.959 . S
C1159 H1144 0.959 . S
C1159 H1145 0.961 . S
C1159 C1158 1.502 . S
C1160 H1146 0.960 . S
C1160 H1147 0.961 . S
C1160 H1148 0.959 . S
C1160 C1158 1.561 . S
C1161 C1158 1.526 . S
C1161 C1162 1.396 . S
C1161 C1166 1.390 . S
C1162 C1156 1.465 . S
C1162 C1161 1.396 . S
C1162 C1163 1.399 . S
C1163 H1149 0.929 . S
C1163 C1162 1.399 . S
C1163 C1164 1.385 . S
C1164 H1150 0.931 . S
C1164 C1163 1.385 . S
C1164 C1165 1.389 . S
C1165 C1164 1.389 . S
C1165 C1166 1.387 . S
C1166 H1151 0.930 . S
C1166 C1161 1.390 . S
C1166 C1165 1.387 . S
H1167 C1179 0.930 . S
H1168 C1181 0.930 . S
H1169 C1182 0.930 . S
H1170 C1186 0.959 . S
H1171 C1186 0.959 . S
H1172 C1186 0.961 . S
H1173 C1187 0.960 . S
H1174 C1187 0.961 . S
H1175 C1187 0.959 . S
H1176 C1190 0.929 . S
H1177 C1191 0.931 . S
H1178 C1193 0.930 . S
C1179 H1167 0.930 . S
C1179 C1180 1.399 . S
C1179 C1184 1.399 . S
C1180 C1179 1.399 . S
C1180 C1181 1.376 . S
C1181 H1168 0.930 . S
C1181 C1180 1.376 . S
C1181 C1182 1.388 . S
C1182 H1169 0.930 . S
C1182 C1181 1.388 . S
C1182 C1183 1.390 . S
C1183 C1182 1.390 . S
C1183 C1184 1.394 . S
C1183 C1189 1.465 . S
C1184 C1179 1.399 . S
C1184 C1183 1.394 . S
C1184 C1185 1.516 . S
C1185 C1184 1.516 . S
C1185 C1186 1.502 . S
C1185 C1187 1.561 . S
C1185 C1188 1.526 . S
C1186 H1170 0.959 . S
C1186 H1171 0.959 . S
C1186 H1172 0.961 . S
C1186 C1185 1.502 . S
C1187 H1173 0.960 . S
C1187 H1174 0.961 . S
C1187 H1175 0.959 . S
C1187 C1185 1.561 . S
C1188 C1185 1.526 . S
C1188 C1189 1.396 . S
C1188 C1193 1.390 . S
C1189 C1183 1.465 . S
C1189 C1188 1.396 . S
C1189 C1190 1.399 . S
C1190 H1176 0.929 . S
C1190 C1189 1.399 . S
C1190 C1191 1.385 . S
C1191 H1177 0.931 . S
C1191 C1190 1.385 . S
C1191 C1192 1.389 . S
C1192 C1191 1.389 . S
C1192 C1193 1.387 . S
C1193 H1178 0.930 . S
C1193 C1188 1.390 . S
C1193 C1192 1.387 . S
H1194 C1206 0.930 . S
H1195 C1208 0.930 . S
H1196 C1209 0.930 . S
H1197 C1213 0.959 . S
H1198 C1213 0.959 . S
H1199 C1213 0.961 . S
H1200 C1214 0.960 . S
H1201 C1214 0.961 . S
H1202 C1214 0.959 . S
H1203 C1217 0.929 . S
H1204 C1218 0.931 1_545 S
H1205 C1220 0.930 . S
C1206 H1194 0.930 . S
C1206 C1207 1.399 . S
C1206 C1211 1.399 . S
C1207 C1206 1.399 . S
C1207 C1208 1.376 . S
C1208 H1195 0.930 . S
C1208 C1207 1.376 . S
C1208 C1209 1.388 . S
C1209 H1196 0.930 . S
C1209 C1208 1.388 . S
C1209 C1210 1.390 . S
C1210 C1209 1.390 . S
C1210 C1211 1.394 . S
C1210 C1216 1.465 . S
C1211 C1206 1.399 . S
C1211 C1210 1.394 . S
C1211 C1212 1.516 . S
C1212 C1211 1.516 . S
C1212 C1213 1.502 . S
C1212 C1214 1.561 . S
C1212 C1215 1.526 . S
C1213 H1197 0.959 . S
C1213 H1198 0.959 . S
C1213 H1199 0.961 . S
C1213 C1212 1.502 . S
C1214 H1200 0.960 . S
C1214 H1201 0.961 . S
C1214 H1202 0.959 . S
C1214 C1212 1.561 . S
C1215 C1212 1.526 . S
C1215 C1216 1.396 . S
C1215 C1220 1.390 . S
C1216 C1210 1.465 . S
C1216 C1215 1.396 . S
C1216 C1217 1.399 . S
C1217 H1203 0.929 . S
C1217 C1216 1.399 . S
C1217 C1218 1.385 . S
C1218 H1204 0.931 1_565 S
C1218 C1217 1.385 . S
C1218 C1219 1.389 . S
C1219 C1218 1.389 . S
C1219 C1220 1.387 . S
C1220 H1205 0.930 . S
C1220 C1215 1.390 . S
C1220 C1219 1.387 . S
H1221 C1233 0.930 . S
H1222 C1235 0.930 . S
H1223 C1236 0.930 . S
H1224 C1240 0.959 1_455 S
H1225 C1240 0.959 1_455 S
H1226 C1240 0.961 . S
H1227 C1241 0.960 . S
H1228 C1241 0.961 . S
H1229 C1241 0.959 . S
H1230 C1244 0.929 . S
H1231 C1245 0.931 . S
H1232 C1247 0.930 . S
C1233 H1221 0.930 . S
C1233 C1234 1.399 . S
C1233 C1238 1.399 . S
C1234 C1233 1.399 . S
C1234 C1235 1.376 . S
C1235 H1222 0.930 . S
C1235 C1234 1.376 . S
C1235 C1236 1.388 . S
C1236 H1223 0.930 . S
C1236 C1235 1.388 . S
C1236 C1237 1.390 . S
C1237 C1236 1.390 . S
C1237 C1238 1.394 . S
C1237 C1243 1.465 . S
C1238 C1233 1.399 . S
C1238 C1237 1.394 . S
C1238 C1239 1.516 . S
C1239 C1238 1.516 . S
C1239 C1240 1.502 . S
C1239 C1241 1.561 . S
C1239 C1242 1.526 . S
C1240 H1224 0.959 1_655 S
C1240 H1225 0.959 1_655 S
C1240 H1226 0.961 . S
C1240 C1239 1.502 . S
C1241 H1227 0.960 . S
C1241 H1228 0.961 . S
C1241 H1229 0.959 . S
C1241 C1239 1.561 . S
C1242 C1239 1.526 . S
C1242 C1243 1.396 . S
C1242 C1247 1.390 1_655 S
C1243 C1237 1.465 . S
C1243 C1242 1.396 . S
C1243 C1244 1.399 . S
C1244 H1230 0.929 . S
C1244 C1243 1.399 . S
C1244 C1245 1.385 1_655 S
C1245 H1231 0.931 . S
C1245 C1244 1.385 1_455 S
C1245 C1246 1.389 . S
C1246 C1245 1.389 . S
C1246 C1247 1.387 . S
C1247 H1232 0.930 . S
C1247 C1242 1.390 1_455 S
C1247 C1246 1.387 . S
C289 C19 1.316 . S
C301 C272 1.336 . S
C316 C223 1.632 1_565 S
C328 C40 1.624 . S
C343 C63 1.376 1_554 S
C355 C201 1.458 . S
C370 C88 1.453 . S
C382 C247 1.367 1_545 S
C397 C108 1.359 . S
C409 C249 1.401 . S
C424 C132 1.521 . S
C436 C270 1.464 . S
C451 C228 1.507 . S
C463 C155 1.414 . S
C478 C180 1.307 . S
C490 C203 1.330 . S
C505 C86 1.193 . S
C517 C113 1.309 . S
C532 C17 1.380 . S
C544 C134 1.328 1_455 S
C559 C42 1.476 . S
C571 C157 1.403 . S
C586 C178 1.365 . S
C598 C65 1.303 . S
C613 C18 1.082 . S
C625 C200 1.021 . S
C640 C44 1.033 . S
C652 C246 1.042 . S
C667 C273 0.971 . S
C679 C67 0.871 . S
C694 C87 1.008 . S
C706 C224 0.947 . S
C721 C111 1.011 . S
C733 C225 1.134 . S
C748 C204 1.058 . S
C760 C136 1.087 . S
C775 C250 1.085 . S
C787 C159 1.064 . S
C802 C269 1.050 . S
C814 C179 1.074 . S
C829 C16 1.266 . S
C841 C90 1.210 . S
C856 C21 1.038 . S
C868 C43 1.076 . S
C883 C41 0.887 . S
C895 C66 0.880 . S
C910 C85 1.009 . S
C922 C64 0.973 . S
C937 C133 0.969 . S
C949 C110 0.945 . S
C964 C135 0.929 . S
C976 C156 0.965 . S
C991 C158 1.100 . S
C1003 C182 1.124 . S
C1018 C112 1.076 . S
C1030 C177 1.082 . S
C1045 C202 1.036 . S
C1057 C89 0.998 . S
C1072 C131 1.142 . S
C1084 C226 1.127 . S
C1099 C205 1.122 . S
C1111 C154 1.198 . S
C1126 C251 1.072 . S
C1138 C181 1.039 . S
C1153 C109 1.090 . S
C1165 C271 1.111 . S
C1180 C274 0.970 . S
C1192 C39 1.025 . S
C1207 C62 0.992 . S
C1219 C227 0.989 . S
C1234 C248 0.851 . S
C1246 C20 0.826 . S
