# Generated by pormake.
# Topology wgb, (5)-cn, num edge types: 1
# Building blocks:
#     Node 0, Type 0, BuildingBlock: XOMCOT_clean_sbu_1, # of connection points: 5
#     Node 1, Type 0, BuildingBlock: XOMCOT_clean_sbu_1, # of connection points: 5
#     Node 2, Type 0, BuildingBlock: XOMCOT_clean_sbu_1, # of connection points: 5
#     Node 3, Type 0, BuildingBlock: XOMCOT_clean_sbu_1, # of connection points: 5
#     Node 4, Type 0, BuildingBlock: XOMCOT_clean_sbu_1, # of connection points: 5
#     Node 5, Type 0, BuildingBlock: XOMCOT_clean_sbu_1, # of connection points: 5
#     Node 6, Type 0, BuildingBlock: XOMCOT_clean_sbu_1, # of connection points: 5
#     Node 7, Type 0, BuildingBlock: XOMCOT_clean_sbu_1, # of connection points: 5
#     Node 8, Type 0, BuildingBlock: XOMCOT_clean_sbu_1, # of connection points: 5
#     Node 9, Type 0, BuildingBlock: XOMCOT_clean_sbu_1, # of connection points: 5
#     Node 10, Type 0, BuildingBlock: XOMCOT_clean_sbu_1, # of connection points: 5
#     Node 11, Type 0, BuildingBlock: XOMCOT_clean_sbu_1, # of connection points: 5
#     Node 12, Type 0, BuildingBlock: XOMCOT_clean_sbu_1, # of connection points: 5
#     Node 13, Type 0, BuildingBlock: XOMCOT_clean_sbu_1, # of connection points: 5
#     Node 14, Type 0, BuildingBlock: XOMCOT_clean_sbu_1, # of connection points: 5
#     Node 15, Type 0, BuildingBlock: XOMCOT_clean_sbu_1, # of connection points: 5
#     Edge 16, Type (0, 0), BuildingBlock: TEMPAE_clean_linker_10, # of connection points: 2
#     Edge 17, Type (0, 0), BuildingBlock: TEMPAE_clean_linker_10, # of connection points: 2
#     Edge 18, Type (0, 0), BuildingBlock: TEMPAE_clean_linker_10, # of connection points: 2
#     Edge 19, Type (0, 0), BuildingBlock: TEMPAE_clean_linker_10, # of connection points: 2
#     Edge 20, Type (0, 0), BuildingBlock: TEMPAE_clean_linker_10, # of connection points: 2
#     Edge 21, Type (0, 0), BuildingBlock: TEMPAE_clean_linker_10, # of connection points: 2
#     Edge 22, Type (0, 0), BuildingBlock: TEMPAE_clean_linker_10, # of connection points: 2
#     Edge 23, Type (0, 0), BuildingBlock: TEMPAE_clean_linker_10, # of connection points: 2
#     Edge 24, Type (0, 0), BuildingBlock: TEMPAE_clean_linker_10, # of connection points: 2
#     Edge 25, Type (0, 0), BuildingBlock: TEMPAE_clean_linker_10, # of connection points: 2
#     Edge 26, Type (0, 0), BuildingBlock: TEMPAE_clean_linker_10, # of connection points: 2
#     Edge 27, Type (0, 0), BuildingBlock: TEMPAE_clean_linker_10, # of connection points: 2
#     Edge 28, Type (0, 0), BuildingBlock: TEMPAE_clean_linker_10, # of connection points: 2
#     Edge 29, Type (0, 0), BuildingBlock: TEMPAE_clean_linker_10, # of connection points: 2
#     Edge 30, Type (0, 0), BuildingBlock: TEMPAE_clean_linker_10, # of connection points: 2
#     Edge 31, Type (0, 0), BuildingBlock: TEMPAE_clean_linker_10, # of connection points: 2
#     Edge 32, Type (0, 0), BuildingBlock: TEMPAE_clean_linker_10, # of connection points: 2
#     Edge 33, Type (0, 0), BuildingBlock: TEMPAE_clean_linker_10, # of connection points: 2
#     Edge 34, Type (0, 0), BuildingBlock: TEMPAE_clean_linker_10, # of connection points: 2
#     Edge 35, Type (0, 0), BuildingBlock: TEMPAE_clean_linker_10, # of connection points: 2
#     Edge 36, Type (0, 0), BuildingBlock: TEMPAE_clean_linker_10, # of connection points: 2
#     Edge 37, Type (0, 0), BuildingBlock: TEMPAE_clean_linker_10, # of connection points: 2
#     Edge 38, Type (0, 0), BuildingBlock: TEMPAE_clean_linker_10, # of connection points: 2
#     Edge 39, Type (0, 0), BuildingBlock: TEMPAE_clean_linker_10, # of connection points: 2
#     Edge 40, Type (0, 0), BuildingBlock: TEMPAE_clean_linker_10, # of connection points: 2
#     Edge 41, Type (0, 0), BuildingBlock: TEMPAE_clean_linker_10, # of connection points: 2
#     Edge 42, Type (0, 0), BuildingBlock: TEMPAE_clean_linker_10, # of connection points: 2
#     Edge 43, Type (0, 0), BuildingBlock: TEMPAE_clean_linker_10, # of connection points: 2
#     Edge 44, Type (0, 0), BuildingBlock: TEMPAE_clean_linker_10, # of connection points: 2
#     Edge 45, Type (0, 0), BuildingBlock: TEMPAE_clean_linker_10, # of connection points: 2
#     Edge 46, Type (0, 0), BuildingBlock: TEMPAE_clean_linker_10, # of connection points: 2
#     Edge 47, Type (0, 0), BuildingBlock: TEMPAE_clean_linker_10, # of connection points: 2
#     Edge 48, Type (0, 0), BuildingBlock: TEMPAE_clean_linker_10, # of connection points: 2
#     Edge 49, Type (0, 0), BuildingBlock: TEMPAE_clean_linker_10, # of connection points: 2
#     Edge 50, Type (0, 0), BuildingBlock: TEMPAE_clean_linker_10, # of connection points: 2
#     Edge 51, Type (0, 0), BuildingBlock: TEMPAE_clean_linker_10, # of connection points: 2
#     Edge 52, Type (0, 0), BuildingBlock: TEMPAE_clean_linker_10, # of connection points: 2
#     Edge 53, Type (0, 0), BuildingBlock: TEMPAE_clean_linker_10, # of connection points: 2
#     Edge 54, Type (0, 0), BuildingBlock: TEMPAE_clean_linker_10, # of connection points: 2
#     Edge 55, Type (0, 0), BuildingBlock: TEMPAE_clean_linker_10, # of connection points: 2
# Relax obj value: 0.106
# Max RMSD: 0.129
# Mean RMSD: 0.129
data_MOF--net-wgb--node1-XOMCOT_clean_sbu_1--edge1-TEMPAE_clean_linker_10
_symmetry_space_group_name_H-M    P1
_symmetry_Int_Tables_number       1
_symmetry_cell_setting            triclinic
loop_
_symmetry_equiv_pos_as_xyz
'x, y, z'
_cell_length_a     59.321742
_cell_length_b     59.348836
_cell_length_c     26.864734
_cell_angle_alpha  89.956432
_cell_angle_beta   89.986682
_cell_angle_gamma 89.983071
loop_
_atom_site_label
_atom_site_type_symbol
_atom_site_fract_x
_atom_site_fract_y
_atom_site_fract_z
_atom_type_partial_charge
C0 C 0.3577 0.07049 0.10356 0.0
C1 C 0.36042 0.04756 0.10645 0.0
N2 N 0.35937 0.04151 0.15467 0.0
N3 N 0.35452 0.07891 0.14969 0.0
C4 C 0.35586 0.06083 0.18021 0.0
H5 H 0.35861 0.08046 0.06995 0.0
Co6 Co 0.35194 0.10955 0.16457 0.0
C7 C 0.31074 0.11412 0.22464 0.0
O8 O 0.30583 0.13135 0.19582 0.0
N9 N 0.35044 0.14079 0.18013 0.0
C10 C 0.35026 0.17181 0.22716 0.0
C11 C 0.35042 0.14866 0.22741 0.0
C12 C 0.35123 0.15975 0.15189 0.0
N13 N 0.35085 0.17872 0.17957 0.0
O14 O 0.37582 0.10688 0.21168 0.0
H15 H 0.35058 0.13816 0.26033 0.0
H16 H 0.35214 0.16006 0.11189 0.0
O17 O 0.32901 0.10305 0.21682 0.0
C18 C 0.39491 0.10666 0.19001 0.0
O19 O 0.39545 0.10701 0.1411 0.0
N20 N 0.32983 0.11195 0.11446 0.0
C21 C 0.30277 0.11188 0.02974 0.0
C22 C 0.2963 0.09979 0.07216 0.0
C23 C 0.31028 0.09972 0.11395 0.0
C24 C 0.33699 0.1224 0.07214 0.0
C25 C 0.32341 0.12325 0.02989 0.0
H26 H 0.30585 0.08892 0.14478 0.0
H27 H 0.35396 0.12892 0.07005 0.0
H28 H 0.35468 0.06189 0.22036 0.0
H29 H 0.36385 0.03631 0.07565 0.0
H30 H 0.35017 0.18272 0.25943 0.0
H31 H 0.28084 0.09007 0.07258 0.0
H32 H 0.32952 0.13169 0.99676 0.0
C33 C 0.06242 0.64649 0.8928 0.0
C34 C 0.03971 0.64247 0.88934 0.0
N35 N 0.03304 0.64748 0.84275 0.0
N36 N 0.07015 0.65407 0.84865 0.0
C37 C 0.05181 0.65457 0.81873 0.0
H38 H 0.07287 0.64314 0.92493 0.0
Co39 Co 0.10075 0.65788 0.83537 0.0
C40 C 0.10537 0.69974 0.77824 0.0
O41 O 0.12188 0.7046 0.80906 0.0
N42 N 0.1321 0.66055 0.8215 0.0
C43 C 0.1634 0.66168 0.77562 0.0
C44 C 0.14032 0.66061 0.77457 0.0
C45 C 0.15085 0.66091 0.85043 0.0
N46 N 0.17013 0.66183 0.82349 0.0
O47 O 0.09932 0.63449 0.78689 0.0
H48 H 0.13008 0.65999 0.74129 0.0
H49 H 0.15067 0.65989 0.89038 0.0
O50 O 0.09427 0.68135 0.78427 0.0
C51 C 0.10134 0.61556 0.80882 0.0
O52 O 0.10287 0.61533 0.85763 0.0
N53 N 0.10187 0.67915 0.88702 0.0
C54 C 0.10062 0.70458 0.97424 0.0
C55 C 0.08913 0.71184 0.93148 0.0
C56 C 0.08952 0.69859 0.88855 0.0
C57 C 0.11177 0.67119 0.92922 0.0
C58 C 0.11196 0.68388 0.97273 0.0
H59 H 0.07914 0.70356 0.85742 0.0
H60 H 0.11873 0.65436 0.92976 0.0
H61 H 0.05244 0.65874 0.77952 0.0
H62 H 0.029 0.63577 0.91844 0.0
H63 H 0.17426 0.66253 0.74334 0.0
H64 H 0.07921 0.72716 0.93176 0.0
H65 H 0.12063 0.67729 0.0051 0.0
C66 C 0.64329 0.93169 0.1147 0.0
C67 C 0.63597 0.95363 0.11699 0.0
N68 N 0.64395 0.96286 0.15921 0.0
N69 N 0.65574 0.92701 0.15541 0.0
C70 C 0.65584 0.94635 0.18199 0.0
H71 H 0.63994 0.91987 0.08498 0.0
Co72 Co 0.6687 0.89878 0.16716 0.0
C73 C 0.70945 0.91774 0.22284 0.0
O74 O 0.72287 0.91639 0.18421 0.0
N75 N 0.681 0.86984 0.17901 0.0
C76 C 0.70385 0.84086 0.19381 0.0
C77 C 0.70195 0.86391 0.19373 0.0
C78 C 0.67052 0.84994 0.17051 0.0
N79 N 0.68409 0.832 0.17895 0.0
O80 O 0.6459 0.89303 0.2161 0.0
H81 H 0.71553 0.87529 0.20193 0.0
H82 H 0.65346 0.84867 0.15679 0.0
O83 O 0.68883 0.91133 0.21971 0.0
C84 C 0.62796 0.88691 0.19369 0.0
O85 O 0.62868 0.8845 0.14508 0.0
N86 N 0.68913 0.90394 0.11417 0.0
C87 C 0.71227 0.91047 0.02496 0.0
C88 C 0.71052 0.92797 0.05954 0.0
C89 C 0.69823 0.92458 0.10327 0.0
C90 C 0.69011 0.88709 0.07964 0.0
C91 C 0.70181 0.88989 0.03518 0.0
H92 H 0.69608 0.93861 0.12847 0.0
H93 H 0.68099 0.87158 0.08522 0.0
H94 H 0.6643 0.9483 0.21741 0.0
H95 H 0.62592 0.96227 0.08929 0.0
H96 H 0.71907 0.83145 0.2017 0.0
H97 H 0.71794 0.94431 0.05209 0.0
H98 H 0.70243 0.87615 0.00868 0.0
C99 C 0.93506 0.36069 0.88744 0.0
C100 C 0.95792 0.36414 0.88529 0.0
N101 N 0.96483 0.35999 0.83848 0.0
N102 N 0.92758 0.354 0.84242 0.0
C103 C 0.94609 0.354 0.81302 0.0
H104 H 0.92448 0.36314 0.91976 0.0
Co105 Co 0.89747 0.348 0.82881 0.0
C106 C 0.89631 0.3067 0.76837 0.0
O107 O 0.88006 0.29998 0.79817 0.0
N108 N 0.86635 0.34304 0.81487 0.0
C109 C 0.83472 0.34089 0.77027 0.0
C110 C 0.85781 0.34215 0.76826 0.0
C111 C 0.84782 0.343 0.84447 0.0
N112 N 0.82837 0.34151 0.81836 0.0
O113 O 0.89722 0.37213 0.78176 0.0
H114 H 0.86778 0.34284 0.73458 0.0
H115 H 0.84823 0.34521 0.88417 0.0
O116 O 0.90585 0.32582 0.77618 0.0
C117 C 0.88776 0.38931 0.80105 0.0
O118 O 0.88024 0.3879 0.84697 0.0
N119 N 0.89803 0.3259 0.87906 0.0
C120 C 0.90259 0.29994 0.9652 0.0
C121 C 0.91401 0.294 0.92141 0.0
C122 C 0.91192 0.3075 0.87905 0.0
C123 C 0.88784 0.33249 0.92207 0.0
C124 C 0.88932 0.31948 0.96506 0.0
H125 H 0.92244 0.30376 0.84733 0.0
H126 H 0.87972 0.34874 0.92404 0.0
H127 H 0.94584 0.34973 0.77386 0.0
H128 H 0.96857 0.36985 0.91547 0.0
H129 H 0.82357 0.33974 0.73853 0.0
H130 H 0.92531 0.27966 0.92054 0.0
H131 H 0.8806 0.32507 0.99825 0.0
C132 C 0.36108 0.44145 0.13399 0.0
C133 C 0.36612 0.46403 0.13231 0.0
N134 N 0.36167 0.47156 0.0861 0.0
N135 N 0.35311 0.43485 0.08928 0.0
C136 C 0.35399 0.45353 0.0605 0.0
H137 H 0.36263 0.43055 0.1661 0.0
Co138 Co 0.34301 0.40563 0.07619 0.0
C139 C 0.30181 0.42125 0.01658 0.0
O140 O 0.28764 0.41841 0.05347 0.0
N141 N 0.33363 0.37586 0.06327 0.0
C142 C 0.31336 0.34513 0.04842 0.0
C143 C 0.31336 0.36822 0.04799 0.0
C144 C 0.3457 0.35694 0.07251 0.0
N145 N 0.33369 0.3379 0.06408 0.0
O146 O 0.36703 0.40199 0.02895 0.0
H147 H 0.29891 0.37842 0.03948 0.0
H148 H 0.3627 0.35727 0.08697 0.0
O149 O 0.32282 0.41659 0.02182 0.0
C150 C 0.386 0.39958 0.05067 0.0
O151 O 0.38655 0.39927 0.09956 0.0
N152 N 0.32103 0.4088 0.12715 0.0
C153 C 0.29429 0.41278 0.21258 0.0
C154 C 0.29581 0.43056 0.17829 0.0
C155 C 0.30974 0.42846 0.13664 0.0
C156 C 0.32052 0.39184 0.16147 0.0
C157 C 0.30712 0.39335 0.20389 0.0
H158 H 0.31133 0.44268 0.1117 0.0
H159 H 0.33125 0.37728 0.15733 0.0
H160 H 0.34857 0.45407 0.02205 0.0
H161 H 0.37259 0.47415 0.16262 0.0
H162 H 0.29892 0.33459 0.04058 0.0
H163 H 0.28643 0.44603 0.18353 0.0
H164 H 0.30746 0.37963 0.23048 0.0
C165 C 0.42921 0.64257 0.86226 0.0
C166 C 0.45119 0.63525 0.86321 0.0
N167 N 0.46012 0.64088 0.90754 0.0
N168 N 0.42443 0.65311 0.90544 0.0
C169 C 0.4435 0.65151 0.93273 0.0
H170 H 0.41754 0.64088 0.83156 0.0
Co171 Co 0.39685 0.66691 0.91809 0.0
C172 C 0.41696 0.70695 0.97433 0.0
O173 O 0.41508 0.72084 0.93661 0.0
N174 N 0.3683 0.67997 0.93064 0.0
C175 C 0.3397 0.70339 0.94532 0.0
C176 C 0.36272 0.70088 0.94641 0.0
C177 C 0.34821 0.6701 0.92076 0.0
N178 N 0.3306 0.68402 0.92902 0.0
O179 O 0.39085 0.6443 0.96702 0.0
H180 H 0.37433 0.714 0.95641 0.0
H181 H 0.3465 0.6535 0.90473 0.0
O182 O 0.4103 0.68643 0.97066 0.0
C183 C 0.38257 0.62659 0.94745 0.0
O184 O 0.37897 0.62623 0.89921 0.0
N185 N 0.40246 0.68757 0.86562 0.0
C186 C 0.40966 0.71288 0.7791 0.0
C187 C 0.42712 0.7095 0.81351 0.0
C188 C 0.42335 0.69628 0.85569 0.0
C189 C 0.38568 0.6898 0.83123 0.0
C190 C 0.38881 0.70253 0.78821 0.0
H191 H 0.43725 0.69333 0.8809 0.0
H192 H 0.36992 0.681 0.83587 0.0
H193 H 0.44545 0.65863 0.96956 0.0
H194 H 0.45999 0.62657 0.83358 0.0
H195 H 0.33039 0.7185 0.9547 0.0
H196 H 0.44359 0.71695 0.80807 0.0
H197 H 0.37515 0.70364 0.7616 0.0
C198 C 0.62961 0.57089 0.12233 0.0
C199 C 0.62348 0.5486 0.1206 0.0
N200 N 0.63445 0.53879 0.08242 0.0
N201 N 0.64438 0.57521 0.08548 0.0
C202 C 0.64709 0.55532 0.06168 0.0
H203 H 0.62347 0.58335 0.14839 0.0
Co204 Co 0.65509 0.60409 0.07445 0.0
C205 C 0.69789 0.59924 0.01967 0.0
O206 O 0.70687 0.61322 0.05195 0.0
N207 N 0.66496 0.63413 0.06317 0.0
C208 C 0.67303 0.66547 0.02093 0.0
C209 C 0.66897 0.64276 0.01741 0.0
C210 C 0.66598 0.65229 0.0937 0.0
N211 N 0.67103 0.67148 0.06897 0.0
O212 O 0.6325 0.60812 0.02447 0.0
H213 H 0.66812 0.63328 0.9831 0.0
H214 H 0.66233 0.65187 0.13297 0.0
O215 O 0.67713 0.59338 0.02387 0.0
C216 C 0.61628 0.62027 0.04021 0.0
O217 O 0.61757 0.62895 0.08511 0.0
N218 N 0.6753 0.59982 0.12748 0.0
C219 C 0.69933 0.59299 0.2152 0.0
C220 C 0.70494 0.58102 0.17208 0.0
C221 C 0.6921 0.58402 0.12901 0.0
C222 C 0.66864 0.6102 0.17023 0.0
C223 C 0.68064 0.60736 0.21436 0.0
H224 H 0.6954 0.57325 0.0975 0.0
H225 H 0.65336 0.6201 0.17055 0.0
H226 H 0.65751 0.55313 0.02896 0.0
H227 H 0.61178 0.54026 0.14543 0.0
H228 H 0.67607 0.67687 0.99019 0.0
H229 H 0.71865 0.56895 0.17218 0.0
H230 H 0.6753 0.61625 0.24755 0.0
C231 C 0.56691 0.35779 0.85979 0.0
C232 C 0.54551 0.36669 0.86152 0.0
N233 N 0.53901 0.36754 0.90945 0.0
N234 N 0.57378 0.35271 0.90637 0.0
C235 C 0.55664 0.35953 0.93593 0.0
H236 H 0.57681 0.35499 0.82655 0.0
Co237 Co 0.60231 0.34105 0.92218 0.0
C238 C 0.5727 0.31177 0.993 0.0
O239 O 0.55285 0.31564 0.97319 0.0
N240 N 0.63112 0.32998 0.93731 0.0
C241 C 0.6593 0.30603 0.95024 0.0
C242 C 0.63631 0.30875 0.9512 0.0
C243 C 0.65125 0.3399 0.92837 0.0
N244 N 0.66869 0.32557 0.9354 0.0
O245 O 0.6066 0.36521 0.9686 0.0
H246 H 0.62417 0.29552 0.95789 0.0
H247 H 0.65297 0.35664 0.91284 0.0
O248 O 0.59038 0.3211 0.97495 0.0
C249 C 0.61189 0.38298 0.9445 0.0
O250 O 0.6138 0.38159 0.89584 0.0
N251 N 0.59901 0.31868 0.87279 0.0
C252 C 0.59494 0.29253 0.78638 0.0
C253 C 0.57784 0.29266 0.82271 0.0
C254 C 0.58034 0.30562 0.86587 0.0
C255 C 0.61568 0.3188 0.83788 0.0
C256 C 0.61441 0.3053 0.79574 0.0
H257 H 0.56652 0.30634 0.89158 0.0
H258 H 0.62991 0.33 0.84171 0.0
H259 H 0.55706 0.35867 0.97617 0.0
H260 H 0.53527 0.37155 0.82993 0.0
H261 H 0.66832 0.29051 0.95747 0.0
H262 H 0.56217 0.28368 0.81725 0.0
H263 H 0.62855 0.30546 0.77032 0.0
C264 C 0.85939 0.57243 0.60765 0.0
C265 C 0.86637 0.55039 0.6098 0.0
N266 N 0.86294 0.54283 0.65642 0.0
N267 N 0.85121 0.57861 0.65247 0.0
C268 C 0.8539 0.56029 0.68176 0.0
H269 H 0.85984 0.58325 0.57523 0.0
Co270 Co 0.83924 0.60703 0.66567 0.0
C271 C 0.79949 0.58913 0.7267 0.0
O272 O 0.78503 0.59099 0.69007 0.0
N273 N 0.82801 0.63604 0.67875 0.0
C274 C 0.80635 0.66577 0.69407 0.0
C275 C 0.80743 0.64269 0.69436 0.0
C276 C 0.83914 0.65547 0.66948 0.0
N277 N 0.82629 0.67389 0.67815 0.0
O278 O 0.86332 0.61241 0.7119 0.0
H279 H 0.79352 0.63178 0.70308 0.0
H280 H 0.85611 0.65597 0.65488 0.0
O281 O 0.82018 0.59495 0.72086 0.0
C282 C 0.88173 0.6166 0.68913 0.0
O283 O 0.88162 0.61708 0.64022 0.0
N284 N 0.81718 0.60233 0.6155 0.0
C285 C 0.78997 0.59675 0.53125 0.0
C286 C 0.79297 0.57905 0.56529 0.0
C287 C 0.80713 0.58198 0.60634 0.0
C288 C 0.81533 0.61923 0.58126 0.0
C289 C 0.80167 0.61692 0.53946 0.0
H290 H 0.80984 0.56789 0.63116 0.0
H291 H 0.82515 0.63443 0.58499 0.0
H292 H 0.84888 0.55959 0.72047 0.0
H293 H 0.87349 0.54066 0.57956 0.0
H294 H 0.79149 0.67569 0.70223 0.0
H295 H 0.78455 0.56303 0.56034 0.0
H296 H 0.80093 0.63066 0.51295 0.0
C297 C 0.57799 0.13719 0.38286 0.0
C298 C 0.55604 0.12979 0.38182 0.0
N299 N 0.54697 0.13576 0.33778 0.0
N300 N 0.58273 0.14779 0.33972 0.0
C301 C 0.56354 0.1466 0.31285 0.0
H302 H 0.58986 0.13493 0.41302 0.0
Co303 Co 0.61094 0.15937 0.32357 0.0
C304 C 0.59952 0.202 0.27273 0.0
O305 O 0.61238 0.21217 0.30558 0.0
N306 N 0.64016 0.16962 0.30647 0.0
C307 C 0.67011 0.18247 0.26508 0.0
C308 C 0.64705 0.18048 0.26485 0.0
C309 C 0.65966 0.16365 0.32905 0.0
N310 N 0.67805 0.172 0.30586 0.0
O311 O 0.61428 0.13613 0.27474 0.0
H312 H 0.63635 0.18569 0.23447 0.0
H313 H 0.66038 0.15282 0.36135 0.0
O314 O 0.59737 0.18045 0.2741 0.0
C315 C 0.62076 0.11829 0.29707 0.0
O316 O 0.62464 0.11934 0.34519 0.0
N317 N 0.60758 0.18085 0.37622 0.0
C318 C 0.60014 0.20581 0.46367 0.0
C319 C 0.58329 0.20389 0.42718 0.0
C320 C 0.5874 0.19156 0.38377 0.0
C321 C 0.62392 0.18235 0.41172 0.0
C322 C 0.62094 0.19536 0.45427 0.0
H323 H 0.57391 0.1899 0.35698 0.0
H324 H 0.63908 0.17271 0.40922 0.0
H325 H 0.5619 0.15307 0.27536 0.0
H326 H 0.54739 0.12083 0.41128 0.0
H327 H 0.68024 0.1903 0.23638 0.0
H328 H 0.5667 0.21108 0.4325 0.0
H329 H 0.63487 0.19655 0.48011 0.0
C330 C 0.13372 0.43307 0.61555 0.0
C331 C 0.12608 0.45488 0.61743 0.0
N332 N 0.13413 0.46448 0.65924 0.0
N333 N 0.14658 0.42891 0.6558 0.0
C334 C 0.14656 0.44834 0.68191 0.0
H335 H 0.12988 0.42082 0.58699 0.0
Co336 Co 0.15852 0.40072 0.66806 0.0
C337 C 0.20078 0.40813 0.72357 0.0
O338 O 0.21063 0.39452 0.69171 0.0
N339 N 0.16961 0.37135 0.68044 0.0
C340 C 0.17909 0.34028 0.72232 0.0
C341 C 0.17501 0.36301 0.72581 0.0
C342 C 0.16969 0.35303 0.65048 0.0
N343 N 0.17557 0.33405 0.67491 0.0
O344 O 0.13578 0.39584 0.71734 0.0
H345 H 0.1748 0.37259 0.76002 0.0
H346 H 0.16436 0.35309 0.61217 0.0
O347 O 0.17972 0.41278 0.71902 0.0
C348 C 0.11992 0.38374 0.6997 0.0
O349 O 0.12181 0.37609 0.65399 0.0
N350 N 0.17895 0.40566 0.6155 0.0
C351 C 0.20337 0.41316 0.52853 0.0
C352 C 0.2079 0.42576 0.57139 0.0
C353 C 0.19482 0.42238 0.614 0.0
C354 C 0.17327 0.39464 0.57284 0.0
C355 C 0.1855 0.3978 0.52914 0.0
H356 H 0.19718 0.43359 0.64517 0.0
H357 H 0.15842 0.38416 0.57195 0.0
H358 H 0.15482 0.45039 0.71754 0.0
H359 H 0.11537 0.46302 0.59021 0.0
H360 H 0.18288 0.32898 0.75284 0.0
H361 H 0.22088 0.43859 0.57134 0.0
H362 H 0.18092 0.38845 0.49604 0.0
C363 C 0.43992 0.87664 0.37194 0.0
C364 C 0.46233 0.8824 0.3711 0.0
N365 N 0.47259 0.8701 0.33559 0.0
N366 N 0.43599 0.86084 0.33706 0.0
C367 C 0.45623 0.85709 0.31547 0.0
H368 H 0.42716 0.88358 0.39627 0.0
Co369 Co 0.4074 0.84945 0.32652 0.0
C370 C 0.41297 0.80748 0.26924 0.0
O371 O 0.3995 0.79776 0.30159 0.0
N372 N 0.3777 0.83881 0.31582 0.0
C373 C 0.34623 0.83015 0.27472 0.0
C374 C 0.36875 0.83501 0.27027 0.0
C375 C 0.35993 0.83688 0.34716 0.0
N376 N 0.34069 0.83145 0.32314 0.0
O377 O 0.40215 0.87251 0.27807 0.0
H378 H 0.37784 0.83661 0.23556 0.0
H379 H 0.36061 0.84023 0.38654 0.0
O380 O 0.41833 0.82833 0.2743 0.0
C381 C 0.39029 0.88822 0.29715 0.0
O382 O 0.38338 0.88597 0.34338 0.0
N383 N 0.41267 0.82884 0.37828 0.0
C384 C 0.4198 0.80396 0.46463 0.0
C385 C 0.43166 0.79879 0.42106 0.0
C386 C 0.42852 0.81209 0.37867 0.0
C387 C 0.40256 0.83516 0.4216 0.0
C388 C 0.40555 0.82273 0.46506 0.0
H389 H 0.43911 0.80906 0.34671 0.0
H390 H 0.39256 0.85036 0.42273 0.0
H391 H 0.45885 0.84548 0.28497 0.0
H392 H 0.47047 0.89466 0.39488 0.0
H393 H 0.33456 0.82719 0.24444 0.0
H394 H 0.44363 0.78501 0.42024 0.0
H395 H 0.39674 0.82771 0.49864 0.0
C396 C 0.86778 0.93714 0.63653 0.0
C397 C 0.87257 0.95977 0.6356 0.0
N398 N 0.86872 0.96743 0.58922 0.0
N399 N 0.86056 0.93062 0.59117 0.0
C400 C 0.86158 0.9494 0.56282 0.0
H401 H 0.86958 0.92607 0.66824 0.0
Co402 Co 0.8525 0.90124 0.576 0.0
C403 C 0.81186 0.90419 0.51333 0.0
O404 O 0.8028 0.8886 0.54171 0.0
N405 N 0.84534 0.87091 0.56055 0.0
C406 C 0.84088 0.83975 0.5152 0.0
C407 C 0.84359 0.86272 0.51371 0.0
C408 C 0.8445 0.8523 0.5897 0.0
N409 N 0.84159 0.83325 0.56308 0.0
O410 O 0.87705 0.89955 0.53033 0.0
H411 H 0.84499 0.87276 0.48025 0.0
H412 H 0.84668 0.8523 0.62948 0.0
O413 O 0.83178 0.91154 0.52246 0.0
C414 C 0.89335 0.88877 0.55 0.0
O415 O 0.89095 0.88094 0.59547 0.0
N416 N 0.82993 0.90307 0.625 0.0
C417 C 0.80245 0.90737 0.70886 0.0
C418 C 0.79779 0.9196 0.66533 0.0
C419 C 0.81219 0.91779 0.6244 0.0
C420 C 0.8355 0.89233 0.66806 0.0
C421 C 0.82186 0.89389 0.71006 0.0
H422 H 0.80941 0.92884 0.59308 0.0
H423 H 0.8514 0.88355 0.67082 0.0
H424 H 0.85712 0.94989 0.52377 0.0
H425 H 0.87887 0.96974 0.66632 0.0
H426 H 0.83954 0.82859 0.48349 0.0
H427 H 0.7834 0.93077 0.66304 0.0
H428 H 0.82701 0.88529 0.74376 0.0
C429 C 0.93965 0.14348 0.36226 0.0
C430 C 0.96169 0.13653 0.36365 0.0
N431 N 0.97032 0.14205 0.40835 0.0
N432 N 0.93437 0.15353 0.40568 0.0
C433 C 0.9534 0.15243 0.43323 0.0
H434 H 0.92794 0.1407 0.33208 0.0
Co435 Co 0.90512 0.16213 0.42029 0.0
C436 C 0.90744 0.20482 0.47499 0.0
O437 O 0.89196 0.21184 0.44357 0.0
N438 N 0.87471 0.1696 0.43523 0.0
C439 C 0.8435 0.17394 0.4806 0.0
C440 C 0.86658 0.17209 0.48196 0.0
C441 C 0.856 0.16946 0.40637 0.0
N442 N 0.83686 0.17214 0.43291 0.0
O443 O 0.90361 0.13892 0.46945 0.0
H444 H 0.87675 0.17159 0.51536 0.0
H445 H 0.85603 0.16658 0.36689 0.0
O446 O 0.91537 0.18474 0.4706 0.0
C447 C 0.89298 0.1222 0.45116 0.0
O448 O 0.88533 0.12369 0.40536 0.0
N449 N 0.90676 0.18307 0.36769 0.0
C450 C 0.90915 0.20892 0.28131 0.0
C451 C 0.92284 0.21403 0.32228 0.0
C452 C 0.92179 0.20051 0.36484 0.0
C453 C 0.89527 0.1766 0.32622 0.0
C454 C 0.8956 0.18966 0.2832 0.0
H455 H 0.93334 0.20385 0.39499 0.0
H456 H 0.88656 0.16064 0.32574 0.0
H457 H 0.95447 0.15802 0.4715 0.0
H458 H 0.97055 0.12769 0.33435 0.0
H459 H 0.83243 0.1753 0.5125 0.0
H460 H 0.93426 0.22826 0.32138 0.0
H461 H 0.8859 0.18433 0.25113 0.0
C462 C 0.15804 0.06745 0.63762 0.0
C463 C 0.15495 0.04457 0.63585 0.0
N464 N 0.1561 0.03805 0.58798 0.0
N465 N 0.16157 0.07537 0.59114 0.0
C466 C 0.16004 0.05704 0.56151 0.0
H467 H 0.1571 0.07774 0.67071 0.0
Co468 Co 0.16464 0.10579 0.57484 0.0
C469 C 0.20615 0.10983 0.51624 0.0
O470 O 0.21085 0.12694 0.54551 0.0
N471 N 0.1667 0.13675 0.55768 0.0
C472 C 0.16742 0.1672 0.50881 0.0
C473 C 0.16616 0.1441 0.50996 0.0
C474 C 0.16759 0.15597 0.5848 0.0
N475 N 0.16827 0.17459 0.556 0.0
O476 O 0.14074 0.10312 0.52767 0.0
H477 H 0.16499 0.13326 0.47772 0.0
H478 H 0.16785 0.15673 0.6248 0.0
O479 O 0.18782 0.09872 0.52328 0.0
C480 C 0.1219 0.10411 0.55036 0.0
O481 O 0.12196 0.10498 0.59925 0.0
N482 N 0.18642 0.10834 0.6255 0.0
C483 C 0.21229 0.10889 0.71235 0.0
C484 C 0.21938 0.0966 0.67052 0.0
C485 C 0.20597 0.09617 0.62779 0.0
C486 C 0.17865 0.11906 0.66688 0.0
C487 C 0.19159 0.12024 0.70997 0.0
H488 H 0.21081 0.08518 0.59761 0.0
H489 H 0.16175 0.12584 0.66725 0.0
H490 H 0.16137 0.05768 0.52134 0.0
H491 H 0.15119 0.03367 0.66711 0.0
H492 H 0.1673 0.17775 0.47593 0.0
H493 H 0.23465 0.0866 0.67146 0.0
H494 H 0.1851 0.12958 0.74146 0.0
C495 C 0.078 0.85935 0.36492 0.0
C496 C 0.05551 0.8648 0.36586 0.0
N497 N 0.04785 0.86148 0.41243 0.0
N498 N 0.08439 0.85223 0.41047 0.0
C499 C 0.06571 0.85398 0.43892 0.0
H500 H 0.08908 0.8606 0.33306 0.0
Co501 Co 0.11348 0.84345 0.42647 0.0
C502 C 0.10946 0.80155 0.48372 0.0
O503 O 0.12515 0.79378 0.4537 0.0
N504 N 0.1436 0.83556 0.4433 0.0
C505 C 0.17384 0.8297 0.49106 0.0
C506 C 0.1509 0.83286 0.49068 0.0
C507 C 0.16274 0.83482 0.41586 0.0
N508 N 0.18124 0.83105 0.4439 0.0
O509 O 0.11521 0.86741 0.4736 0.0
H510 H 0.14027 0.83387 0.52332 0.0
H511 H 0.16356 0.83774 0.37638 0.0
O512 O 0.10227 0.82183 0.47792 0.0
C513 C 0.12564 0.88362 0.45264 0.0
O514 O 0.13253 0.88098 0.40649 0.0
N515 N 0.11175 0.82164 0.37566 0.0
C516 C 0.1077 0.79511 0.29061 0.0
C517 C 0.09377 0.79128 0.33185 0.0
C518 C 0.0957 0.8051 0.37367 0.0
C519 C 0.12396 0.82669 0.33418 0.0
C520 C 0.12277 0.81324 0.29184 0.0
H521 H 0.08377 0.80292 0.40365 0.0
H522 H 0.13362 0.84206 0.33271 0.0
H523 H 0.06518 0.84978 0.47812 0.0
H524 H 0.04563 0.87116 0.33501 0.0
H525 H 0.18437 0.82766 0.52365 0.0
H526 H 0.08129 0.77796 0.33151 0.0
H527 H 0.13279 0.8176 0.25951 0.0
C528 C 0.27463 0.1203 0.27024 0.0
C529 C 0.29477 0.10807 0.26525 0.0
C530 C 0.25986 0.11654 0.31009 0.0
C531 C 0.26516 0.09999 0.34617 0.0
C532 C 0.28485 0.08669 0.34009 0.0
C533 C 0.2995 0.09093 0.29974 0.0
C534 C 0.23917 0.13125 0.315 0.0
C535 C 0.29094 0.06866 0.37733 0.0
C536 C 0.24285 0.11601 0.47325 0.0
C537 C 0.2222 0.10445 0.47537 0.0
C538 C 0.25753 0.1136 0.43277 0.0
C539 C 0.25165 0.09909 0.39311 0.0
C540 C 0.23151 0.08625 0.39625 0.0
C541 C 0.21693 0.08914 0.43733 0.0
C542 C 0.2787 0.12775 0.43115 0.0
C543 C 0.22482 0.07032 0.35513 0.0
H544 H 0.27057 0.13341 0.2436 0.0
H545 H 0.3149 0.08124 0.29599 0.0
H546 H 0.22393 0.12075 0.32069 0.0
H547 H 0.24094 0.1423 0.34808 0.0
H548 H 0.23648 0.14207 0.28177 0.0
H549 H 0.30457 0.05748 0.36337 0.0
H550 H 0.29676 0.07666 0.41234 0.0
H551 H 0.27597 0.05824 0.38653 0.0
H552 H 0.24734 0.12765 0.50268 0.0
H553 H 0.20113 0.08 0.43878 0.0
H554 H 0.27729 0.14041 0.40088 0.0
H555 H 0.29358 0.11707 0.42288 0.0
H556 H 0.28177 0.13679 0.4667 0.0
H557 H 0.21908 0.08014 0.32235 0.0
H558 H 0.21095 0.05888 0.36672 0.0
H559 H 0.23947 0.06002 0.34317 0.0
C560 C 0.08988 0.79499 0.5661 0.0
C561 C 0.10148 0.78663 0.52453 0.0
C562 C 0.08565 0.78106 0.60768 0.0
C563 C 0.09336 0.75841 0.60762 0.0
C564 C 0.10356 0.74957 0.56424 0.0
C565 C 0.10737 0.76371 0.52335 0.0
C566 C 0.07423 0.79098 0.65278 0.0
C567 C 0.11222 0.72563 0.56231 0.0
C568 C 0.11675 0.73222 0.7253 0.0
C569 C 0.10081 0.71547 0.73636 0.0
C570 C 0.11393 0.74685 0.68486 0.0
C571 C 0.09447 0.74504 0.6547 0.0
C572 C 0.07777 0.7288 0.66674 0.0
C573 C 0.08124 0.714 0.7072 0.0
C574 C 0.13242 0.76357 0.67312 0.0
C575 C 0.05657 0.72666 0.63612 0.0
H576 H 0.08507 0.8126 0.56716 0.0
H577 H 0.11594 0.75691 0.49104 0.0
H578 H 0.0619 0.7789 0.66871 0.0
H579 H 0.08703 0.79449 0.68185 0.0
H580 H 0.0654 0.80698 0.64379 0.0
H581 H 0.11756 0.72066 0.52424 0.0
H582 H 0.12691 0.7239 0.58761 0.0
H583 H 0.09911 0.71368 0.57525 0.0
H584 H 0.13195 0.73356 0.74745 0.0
H585 H 0.06874 0.70126 0.71579 0.0
H586 H 0.12538 0.78083 0.67039 0.0
H587 H 0.14007 0.75945 0.63653 0.0
H588 H 0.14597 0.76358 0.70166 0.0
H589 H 0.04911 0.74351 0.62907 0.0
H590 H 0.04379 0.71584 0.65463 0.0
H591 H 0.0607 0.71915 0.59944 0.0
C592 C 0.77967 0.9261 0.47951 0.0
C593 C 0.79857 0.9125 0.47095 0.0
C594 C 0.76398 0.93035 0.4414 0.0
C595 C 0.76694 0.92012 0.39423 0.0
C596 C 0.78643 0.90684 0.38522 0.0
C597 C 0.80209 0.90332 0.4237 0.0
C598 C 0.74379 0.94503 0.45223 0.0
C599 C 0.79014 0.89537 0.33574 0.0
C600 C 0.71695 0.90642 0.31069 0.0
C601 C 0.72021 0.92168 0.27159 0.0
C602 C 0.73148 0.90634 0.3521 0.0
C603 C 0.7493 0.92225 0.35485 0.0
C604 C 0.75141 0.93885 0.31726 0.0
C605 C 0.73708 0.93812 0.27568 0.0
C606 C 0.72881 0.88814 0.39094 0.0
C607 C 0.76965 0.95654 0.31942 0.0
H608 H 0.77681 0.9328 0.51652 0.0
H609 H 0.81646 0.89235 0.41766 0.0
H610 H 0.74162 0.95782 0.42246 0.0
H611 H 0.72831 0.93455 0.45286 0.0
H612 H 0.74531 0.9538 0.48859 0.0
H613 H 0.80639 0.88608 0.33436 0.0
H614 H 0.77623 0.8833 0.32857 0.0
H615 H 0.78993 0.90796 0.30522 0.0
H616 H 0.70418 0.89345 0.30711 0.0
H617 H 0.73964 0.94987 0.24527 0.0
H618 H 0.72855 0.89558 0.42878 0.0
H619 H 0.74345 0.87652 0.38916 0.0
H620 H 0.71315 0.87818 0.38552 0.0
H621 H 0.77039 0.96425 0.357 0.0
H622 H 0.76697 0.97008 0.29146 0.0
H623 H 0.78626 0.9486 0.31217 0.0
C624 C 0.92367 0.29336 0.70242 0.0
C625 C 0.90257 0.292 0.72583 0.0
C626 C 0.92922 0.27882 0.66264 0.0
C627 C 0.91309 0.263 0.64528 0.0
C628 C 0.89185 0.26162 0.66909 0.0
C629 C 0.88697 0.27593 0.70911 0.0
C630 C 0.9522 0.2805 0.63889 0.0
C631 C 0.87388 0.24544 0.65136 0.0
C632 C 0.90873 0.24319 0.51197 0.0
C633 C 0.91389 0.22018 0.51626 0.0
C634 C 0.91019 0.25774 0.5529 0.0
C635 C 0.91716 0.2492 0.59959 0.0
C636 C 0.92431 0.22641 0.60322 0.0
C637 C 0.92254 0.2121 0.56144 0.0
C638 C 0.90229 0.2818 0.54699 0.0
C639 C 0.93228 0.21674 0.65206 0.0
H640 H 0.93589 0.30557 0.7155 0.0
H641 H 0.87056 0.27482 0.72672 0.0
H642 H 0.96019 0.26361 0.63719 0.0
H643 H 0.95053 0.28665 0.60008 0.0
H644 H 0.96353 0.29213 0.65949 0.0
H645 H 0.85845 0.24605 0.67475 0.0
H646 H 0.86912 0.24953 0.61244 0.0
H647 H 0.88045 0.22795 0.65161 0.0
H648 H 0.90242 0.24972 0.47694 0.0
H649 H 0.92668 0.19438 0.56502 0.0
H650 H 0.91439 0.29365 0.56436 0.0
H651 H 0.88587 0.28394 0.56625 0.0
H652 H 0.90008 0.28657 0.50729 0.0
H653 H 0.94368 0.22871 0.67133 0.0
H654 H 0.94121 0.20045 0.64688 0.0
H655 H 0.91755 0.21381 0.67671 0.0
C656 C 0.2924 0.40697 0.93238 0.0
C657 C 0.29185 0.42458 0.96692 0.0
C658 C 0.2778 0.4069 0.89114 0.0
C659 C 0.26277 0.4252 0.88367 0.0
C660 C 0.26343 0.44381 0.91664 0.0
C661 C 0.27761 0.44303 0.95852 0.0
C662 C 0.27735 0.38649 0.85761 0.0
C663 C 0.24837 0.46402 0.90909 0.0
C664 C 0.23546 0.42642 0.75565 0.0
C665 C 0.21439 0.41669 0.76536 0.0
C666 C 0.25085 0.43064 0.79426 0.0
C667 C 0.2454 0.42406 0.84347 0.0
C668 C 0.22376 0.4149 0.85363 0.0
C669 C 0.20836 0.41164 0.81444 0.0
C670 C 0.27331 0.44123 0.78202 0.0
C671 C 0.21741 0.4072 0.90533 0.0
H672 H 0.303 0.39245 0.93968 0.0
H673 H 0.27699 0.45649 0.98578 0.0
H674 H 0.26069 0.37809 0.86052 0.0
H675 H 0.27962 0.39161 0.81822 0.0
H676 H 0.29066 0.37407 0.86733 0.0
H677 H 0.25326 0.47833 0.93343 0.0
H678 H 0.24893 0.46967 0.86972 0.0
H679 H 0.23067 0.4594 0.91762 0.0
H680 H 0.24012 0.43018 0.71749 0.0
H681 H 0.19223 0.40371 0.82169 0.0
H682 H 0.28686 0.42844 0.78545 0.0
H683 H 0.27719 0.45497 0.80867 0.0
H684 H 0.27371 0.44818 0.74361 0.0
H685 H 0.22877 0.39332 0.91709 0.0
H686 H 0.19972 0.40114 0.90738 0.0
H687 H 0.21958 0.42115 0.93233 0.0
C688 C 0.43056 0.77307 0.23413 0.0
C689 C 0.42039 0.79407 0.22617 0.0
C690 C 0.43352 0.75774 0.19484 0.0
C691 C 0.4252 0.7632 0.14693 0.0
C692 C 0.41559 0.78478 0.13845 0.0
C693 C 0.4136 0.80011 0.17814 0.0
C694 C 0.44463 0.73534 0.20514 0.0
C695 C 0.40606 0.79113 0.08826 0.0
C696 C 0.44032 0.73141 0.02867 0.0
C697 C 0.4217 0.7171 0.02324 0.0
C698 C 0.44247 0.74547 0.07048 0.0
C699 C 0.42506 0.74591 0.10655 0.0
C700 C 0.40663 0.73081 0.10207 0.0
C701 C 0.40536 0.71632 0.06075 0.0
C702 C 0.46281 0.76061 0.07475 0.0
C703 C 0.38746 0.73103 0.13903 0.0
H704 H 0.43561 0.76839 0.27154 0.0
H705 H 0.40531 0.81618 0.17235 0.0
H706 H 0.43182 0.72175 0.20402 0.0
H707 H 0.45739 0.73152 0.17612 0.0
H708 H 0.45296 0.73497 0.24218 0.0
H709 H 0.3998 0.80877 0.08735 0.0
H710 H 0.41904 0.78909 0.05893 0.0
H711 H 0.39188 0.77969 0.07887 0.0
H712 H 0.45283 0.73215 -0.00072 0.0
H713 H 0.3907 0.70562 0.05588 0.0
H714 H 0.46984 0.75993 0.113 0.0
H715 H 0.45779 0.77831 0.06739 0.0
H716 H 0.47625 0.7559 0.0479 0.0
H717 H 0.39396 0.72873 0.17739 0.0
H718 H 0.37483 0.71766 0.13136 0.0
H719 H 0.37886 0.74764 0.13775 0.0
C720 C 0.70604 0.59622 0.92896 0.0
C721 C 0.71211 0.59143 0.97813 0.0
C722 C 0.72166 0.59349 0.88997 0.0
C723 C 0.74359 0.58514 0.90043 0.0
C724 C 0.74918 0.57889 0.94977 0.0
C725 C 0.73353 0.58257 0.98818 0.0
C726 C 0.71514 0.60084 0.83813 0.0
C727 C 0.77199 0.56914 0.96233 0.0
C728 C 0.77632 0.56674 0.78563 0.0
C729 C 0.7899 0.58561 0.77668 0.0
C730 C 0.76225 0.56566 0.82768 0.0
C731 C 0.76102 0.58437 0.86028 0.0
C732 C 0.77544 0.60311 0.85234 0.0
C733 C 0.78995 0.60336 0.81093 0.0
C734 C 0.74787 0.54501 0.83572 0.0
C735 C 0.77436 0.62363 0.88547 0.0
H736 H 0.68961 0.60347 0.92145 0.0
H737 H 0.73822 0.57902 0.02641 0.0
H738 H 0.72613 0.61497 0.82612 0.0
H739 H 0.7177 0.58685 0.8114 0.0
H740 H 0.69729 0.60643 0.83593 0.0
H741 H 0.77261 0.56244 0.00093 0.0
H742 H 0.77634 0.55538 0.93607 0.0
H743 H 0.78509 0.58236 0.95851 0.0
H744 H 0.77607 0.55317 0.75861 0.0
H745 H 0.80004 0.6182 0.80322 0.0
H746 H 0.73003 0.54902 0.82711 0.0
H747 H 0.74861 0.53956 0.87521 0.0
H748 H 0.75323 0.53075 0.8117 0.0
H749 H 0.75747 0.63156 0.88224 0.0
H750 H 0.78734 0.63636 0.8756 0.0
H751 H 0.77668 0.61874 0.92497 0.0
C752 C 0.58513 0.23845 0.24039 0.0
C753 C 0.59039 0.21577 0.23143 0.0
C754 C 0.58023 0.25329 0.20121 0.0
C755 C 0.58095 0.24539 0.15155 0.0
C756 C 0.58523 0.22223 0.14234 0.0
C757 C 0.58972 0.20761 0.18253 0.0
C758 C 0.57532 0.27769 0.21296 0.0
C759 C 0.58632 0.21318 0.08993 0.0
C760 C 0.55571 0.28325 0.05122 0.0
C761 C 0.57477 0.29494 0.03392 0.0
C762 C 0.55747 0.26684 0.08888 0.0
C763 C 0.57883 0.2618 0.10957 0.0
C764 C 0.59814 0.27344 0.09213 0.0
C765 C 0.59585 0.28999 0.055 0.0
C766 C 0.53642 0.25512 0.10698 0.0
C767 C 0.62126 0.26858 0.11305 0.0
H768 H 0.58551 0.24479 0.27823 0.0
H769 H 0.59401 0.19014 0.17545 0.0
H770 H 0.58935 0.2884 0.19931 0.0
H771 H 0.55976 0.28327 0.19364 0.0
H772 H 0.57325 0.28065 0.25354 0.0
H773 H 0.58782 0.19453 0.08912 0.0
H774 H 0.57108 0.2182 0.06872 0.0
H775 H 0.6011 0.22053 0.07051 0.0
H776 H 0.53931 0.28691 0.0354 0.0
H777 H 0.61064 0.29907 0.0426 0.0
H778 H 0.5338 0.25876 0.14707 0.0
H779 H 0.53832 0.2366 0.10325 0.0
H780 H 0.52116 0.26048 0.08615 0.0
H781 H 0.62177 0.27319 0.15305 0.0
H782 H 0.63474 0.27803 0.09332 0.0
H783 H 0.62499 0.2503 0.11043 0.0
C784 C 0.3275 0.29693 0.05432 0.0
C785 C 0.33971 0.31481 0.07547 0.0
C786 C 0.33093 0.27459 0.0696 0.0
C787 C 0.34741 0.26978 0.10615 0.0
C788 C 0.3608 0.28749 0.12548 0.0
C789 C 0.35668 0.3098 0.11023 0.0
C790 C 0.31618 0.25625 0.0482 0.0
C791 C 0.37889 0.28298 0.16373 0.0
C792 C 0.33739 0.21785 0.18596 0.0
C793 C 0.3507 0.20166 0.16199 0.0
C794 C 0.33639 0.24012 0.16847 0.0
C795 C 0.3494 0.24648 0.12652 0.0
C796 C 0.36334 0.23032 0.10291 0.0
C797 C 0.36362 0.20801 0.1206 0.0
C798 C 0.32094 0.25668 0.19412 0.0
C799 C 0.37784 0.23656 0.05882 0.0
H800 H 0.31481 0.3004 0.02643 0.0
H801 H 0.36625 0.32332 0.12702 0.0
H802 H 0.3267 0.24254 0.0325 0.0
H803 H 0.30572 0.24876 0.07823 0.0
H804 H 0.30478 0.26262 0.01855 0.0
H805 H 0.38956 0.29803 0.17065 0.0
H806 H 0.37096 0.27785 0.19939 0.0
H807 H 0.38986 0.26889 0.15148 0.0
H808 H 0.32723 0.21288 0.21765 0.0
H809 H 0.37414 0.19556 0.10246 0.0
H810 H 0.30806 0.26285 0.16744 0.0
H811 H 0.33067 0.27153 0.20698 0.0
H812 H 0.31217 0.24912 0.22665 0.0
H813 H 0.36701 0.24166 0.0271 0.0
H814 H 0.38878 0.2224 0.04665 0.0
H815 H 0.38865 0.2512 0.06821 0.0
C816 C 0.21128 0.65767 0.81028 0.0
C817 C 0.19309 0.663 0.84169 0.0
C818 C 0.23368 0.66008 0.8262 0.0
C819 C 0.23816 0.6676 0.87517 0.0
C820 C 0.22 0.67222 0.90777 0.0
C821 C 0.19772 0.67007 0.89056 0.0
C822 C 0.25258 0.65517 0.79008 0.0
C823 C 0.22409 0.67999 0.96051 0.0
C824 C 0.29774 0.65858 0.92416 0.0
C825 C 0.30727 0.67996 0.9172 0.0
C826 C 0.27509 0.65439 0.91182 0.0
C827 C 0.26184 0.67191 0.8911 0.0
C828 C 0.27142 0.69353 0.88404 0.0
C829 C 0.29394 0.69732 0.89754 0.0
C830 C 0.26538 0.63123 0.92076 0.0
C831 C 0.25803 0.71255 0.86116 0.0
H832 H 0.20811 0.65172 0.77289 0.0
H833 H 0.184 0.67447 0.91524 0.0
H834 H 0.26253 0.67072 0.78346 0.0
H835 H 0.26421 0.64244 0.80601 0.0
H836 H 0.24629 0.64888 0.75371 0.0
H837 H 0.20825 0.68097 0.98249 0.0
H838 H 0.2359 0.66835 0.97963 0.0
H839 H 0.23206 0.69689 0.96014 0.0
H840 H 0.308 0.6452 0.93974 0.0
H841 H 0.30135 0.71377 0.89141 0.0
H842 H 0.26008 0.62364 0.88491 0.0
H843 H 0.25013 0.63249 0.94452 0.0
H844 H 0.27764 0.61973 0.939 0.0
H845 H 0.25244 0.70775 0.82321 0.0
H846 H 0.26791 0.72841 0.85858 0.0
H847 H 0.24265 0.71584 0.88351 0.0
C848 C 0.66377 0.80214 0.13268 0.0
C849 C 0.67966 0.80849 0.16876 0.0
C850 C 0.66098 0.77944 0.1191 0.0
C851 C 0.6745 0.76267 0.14186 0.0
C852 C 0.68993 0.76885 0.17961 0.0
C853 C 0.69223 0.79162 0.19273 0.0
C854 C 0.64419 0.77352 0.07895 0.0
C855 C 0.70464 0.7515 0.20486 0.0
C856 C 0.65848 0.7008 0.12828 0.0
C857 C 0.67228 0.69407 0.08854 0.0
C858 C 0.65893 0.72309 0.14603 0.0
C859 C 0.67367 0.73894 0.12378 0.0
C860 C 0.68782 0.73214 0.08407 0.0
C861 C 0.68688 0.70984 0.06686 0.0
C862 C 0.64344 0.72975 0.1881 0.0
C863 C 0.70398 0.74843 0.05968 0.0
H864 H 0.65408 0.81495 0.11359 0.0
H865 H 0.70419 0.79625 0.22137 0.0
H866 H 0.65328 0.76749 0.04541 0.0
H867 H 0.63306 0.75963 0.0916 0.0
H868 H 0.63354 0.78814 0.06822 0.0
H869 H 0.7148 0.75884 0.23556 0.0
H870 H 0.69416 0.73765 0.22014 0.0
H871 H 0.7163 0.74393 0.17722 0.0
H872 H 0.64693 0.68879 0.1447 0.0
H873 H 0.69774 0.70465 0.03655 0.0
H874 H 0.63193 0.74336 0.17559 0.0
H875 H 0.6534 0.73651 0.21966 0.0
H876 H 0.63314 0.71537 0.2017 0.0
H877 H 0.69453 0.76285 0.04369 0.0
H878 H 0.71399 0.74041 0.02955 0.0
H879 H 0.71576 0.75534 0.08787 0.0
C880 C 0.7873 0.34728 0.80713 0.0
C881 C 0.80557 0.34127 0.83766 0.0
C882 C 0.765 0.34606 0.8245 0.0
C883 C 0.76076 0.33895 0.87391 0.0
C884 C 0.77909 0.33358 0.90552 0.0
C885 C 0.80122 0.33465 0.88696 0.0
C886 C 0.74593 0.35178 0.78944 0.0
C887 C 0.77529 0.32609 0.95859 0.0
C888 C 0.70225 0.35003 0.92745 0.0
C889 C 0.69191 0.32898 0.92133 0.0
C890 C 0.7248 0.35349 0.91304 0.0
C891 C 0.73712 0.33556 0.89124 0.0
C892 C 0.72669 0.31431 0.88487 0.0
C893 C 0.7043 0.31127 0.9002 0.0
C894 C 0.73544 0.37629 0.92107 0.0
C895 C 0.73905 0.29485 0.86103 0.0
H896 H 0.79033 0.35288 0.76939 0.0
H897 H 0.81505 0.32974 0.91088 0.0
H898 H 0.73534 0.33663 0.78321 0.0
H899 H 0.73495 0.36489 0.80611 0.0
H900 H 0.75207 0.35794 0.75281 0.0
H901 H 0.79132 0.32445 0.97965 0.0
H902 H 0.76422 0.33826 0.97823 0.0
H903 H 0.76659 0.30955 0.9589 0.0
H904 H 0.69273 0.3637 0.94398 0.0
H905 H 0.69627 0.29509 0.89446 0.0
H906 H 0.74062 0.3836 0.88483 0.0
H907 H 0.75089 0.37453 0.94403 0.0
H908 H 0.72381 0.38827 0.93979 0.0
H909 H 0.74432 0.29951 0.82275 0.0
H910 H 0.72856 0.27938 0.85902 0.0
H911 H 0.75457 0.29095 0.88238 0.0
C912 C 0.82669 0.79462 0.55884 0.0
C913 C 0.84077 0.8105 0.58158 0.0
C914 C 0.82555 0.7724 0.57647 0.0
C915 C 0.8391 0.76583 0.61738 0.0
C916 C 0.8536 0.78173 0.64009 0.0
C917 C 0.85413 0.80395 0.62213 0.0
C918 C 0.80962 0.75604 0.55169 0.0
C919 C 0.86859 0.77525 0.6832 0.0
C920 C 0.81894 0.71457 0.68905 0.0
C921 C 0.83136 0.69715 0.66671 0.0
C922 C 0.82173 0.73707 0.6743 0.0
C923 C 0.83763 0.74241 0.63685 0.0
C924 C 0.85108 0.72512 0.61595 0.0
C925 C 0.84769 0.70269 0.63089 0.0
C926 C 0.80702 0.75501 0.69743 0.0
C927 C 0.86845 0.73021 0.57643 0.0
H928 H 0.81623 0.79975 0.52777 0.0
H929 H 0.86529 0.81613 0.63923 0.0
H930 H 0.81912 0.74131 0.53736 0.0
H931 H 0.79726 0.74962 0.5793 0.0
H932 H 0.80024 0.76383 0.5203 0.0
H933 H 0.87931 0.78947 0.6959 0.0
H934 H 0.85817 0.76943 0.71499 0.0
H935 H 0.87967 0.76101 0.67234 0.0
H936 H 0.80668 0.71061 0.71757 0.0
H937 H 0.85731 0.68948 0.61305 0.0
H938 H 0.79598 0.76253 0.6685 0.0
H939 H 0.81757 0.76879 0.71274 0.0
H940 H 0.79622 0.74825 0.72775 0.0
H941 H 0.85988 0.73578 0.54184 0.0
H942 H 0.87906 0.71531 0.56759 0.0
H943 H 0.87958 0.74418 0.58862 0.0
C944 C 0.80879 0.15951 0.37088 0.0
C945 C 0.81401 0.17143 0.41452 0.0
C946 C 0.78669 0.15884 0.35236 0.0
C947 C 0.76933 0.17021 0.37826 0.0
C948 C 0.77438 0.18204 0.42261 0.0
C949 C 0.79667 0.18255 0.44013 0.0
C950 C 0.78195 0.14606 0.3049 0.0
C951 C 0.75629 0.19435 0.45132 0.0
C952 C 0.71665 0.18753 0.30786 0.0
C953 C 0.7012 0.17083 0.32226 0.0
C954 C 0.73892 0.18736 0.32535 0.0
C955 C 0.74594 0.17016 0.35836 0.0
C956 C 0.73058 0.1531 0.37268 0.0
C957 C 0.70842 0.1536 0.35434 0.0
C958 C 0.75484 0.20581 0.30906 0.0
C959 C 0.73749 0.13446 0.40781 0.0
H960 H 0.82191 0.15045 0.35135 0.0
H961 H 0.80058 0.19195 0.47356 0.0
H962 H 0.76911 0.13284 0.31182 0.0
H963 H 0.77493 0.15766 0.27644 0.0
H964 H 0.79731 0.13796 0.28944 0.0
H965 H 0.76288 0.20222 0.48587 0.0
H966 H 0.74876 0.20771 0.42768 0.0
H967 H 0.74254 0.18253 0.46148 0.0
H968 H 0.71121 0.20111 0.28378 0.0
H969 H 0.69679 0.14043 0.36514 0.0
H970 H 0.77007 0.19836 0.29161 0.0
H971 H 0.76054 0.21558 0.34192 0.0
H972 H 0.74693 0.2176 0.28209 0.0
H973 H 0.75209 0.12513 0.39229 0.0
H974 H 0.7236 0.12232 0.41489 0.0
H975 H 0.74293 0.14174 0.44388 0.0
C976 C 0.15881 0.30478 0.62148 0.0
C977 C 0.17523 0.31138 0.65602 0.0
C978 C 0.15769 0.28249 0.60438 0.0
C979 C 0.17355 0.2665 0.62183 0.0
C980 C 0.19039 0.27317 0.65614 0.0
C981 C 0.19091 0.29551 0.67313 0.0
C982 C 0.13928 0.27594 0.56838 0.0
C983 C 0.20778 0.25667 0.67506 0.0
C984 C 0.15844 0.20442 0.61591 0.0
C985 C 0.16956 0.19762 0.57243 0.0
C986 C 0.15951 0.22683 0.6323 0.0
C987 C 0.17227 0.24272 0.60485 0.0
C988 C 0.18366 0.2359 0.56106 0.0
C989 C 0.18203 0.21344 0.54518 0.0
C990 C 0.14685 0.23354 0.67877 0.0
C991 C 0.19767 0.25229 0.53119 0.0
H992 H 0.14644 0.31693 0.60887 0.0
H993 H 0.20369 0.30069 0.69956 0.0
H994 H 0.14675 0.26886 0.53392 0.0
H995 H 0.12857 0.2626 0.58511 0.0
H996 H 0.12837 0.29044 0.55813 0.0
H997 H 0.22019 0.26473 0.70039 0.0
H998 H 0.19935 0.24274 0.69537 0.0
H999 H 0.217 0.24906 0.6433 0.0
H1000 H 0.14856 0.19226 0.63663 0.0
H1001 H 0.19084 0.20812 0.51188 0.0
H1002 H 0.13464 0.24714 0.66995 0.0
H1003 H 0.15875 0.24032 0.70685 0.0
H1004 H 0.13753 0.21919 0.69556 0.0
H1005 H 0.18696 0.26641 0.51797 0.0
H1006 H 0.20574 0.24421 0.49843 0.0
H1007 H 0.21103 0.25965 0.55505 0.0
C1008 C 0.30254 0.81512 0.32289 0.0
C1009 C 0.31831 0.82997 0.34363 0.0
C1010 C 0.28027 0.81437 0.34042 0.0
C1011 C 0.27358 0.82902 0.37927 0.0
C1012 C 0.28953 0.84381 0.40092 0.0
C1013 C 0.31175 0.84402 0.38297 0.0
C1014 C 0.26382 0.79818 0.3168 0.0
C1015 C 0.28297 0.85984 0.44206 0.0
C1016 C 0.21149 0.844 0.38786 0.0
C1017 C 0.20432 0.83037 0.42744 0.0
C1018 C 0.23402 0.8438 0.37199 0.0
C1019 C 0.24969 0.82945 0.39601 0.0
C1020 C 0.24253 0.81556 0.43583 0.0
C1021 C 0.21993 0.81629 0.45126 0.0
C1022 C 0.24108 0.85906 0.32977 0.0
C1023 C 0.2587 0.79986 0.46196 0.0
H1024 H 0.30766 0.80409 0.29283 0.0
H1025 H 0.32381 0.85575 0.3986 0.0
H1026 H 0.25597 0.7874 0.34577 0.0
H1027 H 0.25005 0.80772 0.29843 0.0
H1028 H 0.27198 0.78716 0.28865 0.0
H1029 H 0.29755 0.86973 0.45603 0.0
H1030 H 0.26994 0.87174 0.42832 0.0
H1031 H 0.27548 0.8504 0.47365 0.0
H1032 H 0.19956 0.85518 0.36993 0.0
H1033 H 0.21435 0.80561 0.48157 0.0
H1034 H 0.24801 0.84889 0.29871 0.0
H1035 H 0.25465 0.87057 0.34242 0.0
H1036 H 0.22685 0.86935 0.31537 0.0
H1037 H 0.26615 0.78793 0.43475 0.0
H1038 H 0.2504 0.79003 0.49201 0.0
H1039 H 0.27279 0.80963 0.47838 0.0
C1040 C 0.28298 0.13137 0.96014 0.0
C1041 C 0.28899 0.11128 0.98406 0.0
C1042 C 0.27042 0.13103 0.91596 0.0
C1043 C 0.26419 0.11008 0.89487 0.0
C1044 C 0.27037 0.08974 0.9188 0.0
C1045 C 0.28254 0.0906 0.96347 0.0
C1046 C 0.26373 0.15307 0.89199 0.0
C1047 C 0.26436 0.06709 0.89691 0.0
C1048 C 0.21485 0.10828 0.80553 0.0
C1049 C 0.22571 0.10888 0.75909 0.0
C1050 C 0.22717 0.10884 0.84997 0.0
C1051 C 0.25098 0.10947 0.84803 0.0
C1052 C 0.26212 0.10962 0.80144 0.0
C1053 C 0.24934 0.10953 0.7575 0.0
C1054 C 0.2147 0.10887 0.89901 0.0
C1055 C 0.28753 0.10996 0.79804 0.0
H1056 H 0.28796 0.14734 0.97634 0.0
H1057 H 0.2875 0.07507 0.98177 0.0
H1058 H 0.27084 0.15412 0.85388 0.0
H1059 H 0.24511 0.15397 0.88844 0.0
H1060 H 0.26962 0.16789 0.91362 0.0
H1061 H 0.27078 0.05287 0.91977 0.0
H1062 H 0.24579 0.06548 0.89364 0.0
H1063 H 0.27145 0.06563 0.85882 0.0
H1064 H 0.19663 0.10719 0.8073 0.0
H1065 H 0.25789 0.11023 0.72188 0.0
H1066 H 0.2195 0.12394 0.92103 0.0
H1067 H 0.21947 0.09384 0.92118 0.0
H1068 H 0.19611 0.10888 0.89403 0.0
H1069 H 0.29417 0.12553 0.81549 0.0
H1070 H 0.2936 0.1092 0.75895 0.0
H1071 H 0.2947 0.09547 0.81884 0.0
C1072 C 0.12521 0.77289 0.22207 0.0
C1073 C 0.10576 0.78121 0.24522 0.0
C1074 C 0.12379 0.76033 0.17807 0.0
C1075 C 0.1024 0.75625 0.15654 0.0
C1076 C 0.08268 0.76457 0.17981 0.0
C1077 C 0.08459 0.77688 0.22415 0.0
C1078 C 0.14516 0.75145 0.15461 0.0
C1079 C 0.05964 0.76073 0.15755 0.0
C1080 C 0.10208 0.74152 0.01923 0.0
C1081 C 0.10004 0.71799 0.02081 0.0
C1082 C 0.10236 0.75427 0.06316 0.0
C1083 C 0.10076 0.74317 0.10968 0.0
C1084 C 0.09833 0.71948 0.11154 0.0
C1085 C 0.09784 0.7072 0.06707 0.0
C1086 C 0.10478 0.77955 0.05984 0.0
C1087 C 0.09665 0.70708 0.16052 0.0
H1088 H 0.14156 0.77613 0.23864 0.0
H1089 H 0.06957 0.78358 0.24174 0.0
H1090 H 0.14424 0.73284 0.1512 0.0
H1091 H 0.14705 0.75838 0.11648 0.0
H1092 H 0.16041 0.75588 0.1765 0.0
H1093 H 0.04598 0.7683 0.1804 0.0
H1094 H 0.05891 0.76811 0.11962 0.0
H1095 H 0.05637 0.74241 0.15378 0.0
H1096 H 0.10397 0.74994 0.98367 0.0
H1097 H 0.09574 0.68907 0.06857 0.0
H1098 H 0.12086 0.78483 0.07739 0.0
H1099 H 0.09093 0.78791 0.08056 0.0
H1100 H 0.10459 0.78568 0.02076 0.0
H1101 H 0.11212 0.71001 0.18279 0.0
H1102 H 0.09444 0.68864 0.15545 0.0
H1103 H 0.08222 0.71362 0.18248 0.0
C1104 C 0.71364 0.90884 0.93249 0.0
C1105 C 0.72444 0.91359 0.97762 0.0
C1106 C 0.72547 0.90976 0.88741 0.0
C1107 C 0.74871 0.91512 0.88783 0.0
C1108 C 0.75951 0.9206 0.93326 0.0
C1109 C 0.74714 0.91997 0.97773 0.0
C1110 C 0.71328 0.90426 0.83959 0.0
C1111 C 0.78436 0.92605 0.93519 0.0
C1112 C 0.78416 0.89051 0.7841 0.0
C1113 C 0.78796 0.90938 0.75375 0.0
C1114 C 0.77155 0.89223 0.82798 0.0
C1115 C 0.76206 0.91324 0.84136 0.0
C1116 C 0.76534 0.93227 0.81046 0.0
C1117 C 0.77843 0.93016 0.7672 0.0
C1118 C 0.76855 0.87158 0.86024 0.0
C1119 C 0.75514 0.95485 0.82327 0.0
H1120 H 0.69598 0.90412 0.93263 0.0
H1121 H 0.75542 0.92352 0.01284 0.0
H1122 H 0.71643 0.91755 0.81136 0.0
H1123 H 0.71979 0.88819 0.82421 0.0
H1124 H 0.6948 0.90259 0.84514 0.0
H1125 H 0.78986 0.93132 0.97296 0.0
H1126 H 0.79425 0.911 0.92404 0.0
H1127 H 0.78845 0.9397 0.90847 0.0
H1128 H 0.79108 0.8743 0.77356 0.0
H1129 H 0.78153 0.94493 0.74449 0.0
H1130 H 0.75038 0.86744 0.86365 0.0
H1131 H 0.77496 0.87497 0.89831 0.0
H1132 H 0.7775 0.85664 0.8451 0.0
H1133 H 0.73663 0.95317 0.82792 0.0
H1134 H 0.75854 0.96777 0.79428 0.0
H1135 H 0.76203 0.96092 0.85922 0.0
C1136 C 0.92978 0.22926 0.21358 0.0
C1137 C 0.90937 0.22301 0.23591 0.0
C1138 C 0.93 0.24172 0.16916 0.0
C1139 C 0.90931 0.24825 0.14716 0.0
C1140 C 0.88868 0.24226 0.17007 0.0
C1141 C 0.88897 0.2296 0.21406 0.0
C1142 C 0.9523 0.24763 0.14542 0.0
C1143 C 0.86629 0.24921 0.14809 0.0
C1144 C 0.90752 0.29754 0.05764 0.0
C1145 C 0.90541 0.28661 0.01156 0.0
C1146 C 0.90921 0.28525 0.10202 0.0
C1147 C 0.9091 0.26144 0.10023 0.0
C1148 C 0.90768 0.25026 0.05381 0.0
C1149 C 0.90576 0.26299 0.00999 0.0
C1150 C 0.91062 0.29775 0.15088 0.0
C1151 C 0.90768 0.22486 0.05052 0.0
H1152 H 0.94556 0.22394 0.23024 0.0
H1153 H 0.87319 0.22492 0.23165 0.0
H1154 H 0.95319 0.24031 0.10748 0.0
H1155 H 0.95383 0.26617 0.14141 0.0
H1156 H 0.96687 0.24135 0.1674 0.0
H1157 H 0.85179 0.24345 0.17098 0.0
H1158 H 0.86549 0.26783 0.14467 0.0
H1159 H 0.8645 0.24214 0.11009 0.0
H1160 H 0.90784 0.31579 0.05909 0.0
H1161 H 0.904 0.25444 0.97457 0.0
H1162 H 0.92587 0.29244 0.17172 0.0
H1163 H 0.89579 0.29353 0.17428 0.0
H1164 H 0.91118 0.31631 0.1457 0.0
H1165 H 0.92253 0.21787 0.07033 0.0
H1166 H 0.90795 0.2188 0.01141 0.0
H1167 H 0.89241 0.21806 0.06905 0.0
C1168 C 0.20603 0.42093 0.43753 0.0
C1169 C 0.21678 0.4163 0.4828 0.0
C1170 C 0.21838 0.42231 0.39316 0.0
C1171 C 0.24193 0.41848 0.39415 0.0
C1172 C 0.25292 0.4143 0.44005 0.0
C1173 C 0.2402 0.41349 0.48402 0.0
C1174 C 0.20616 0.42728 0.34508 0.0
C1175 C 0.27794 0.40974 0.44243 0.0
C1176 C 0.26881 0.39564 0.27666 0.0
C1177 C 0.28013 0.41464 0.25812 0.0
C1178 C 0.25641 0.39668 0.32096 0.0
C1179 C 0.25481 0.41737 0.34686 0.0
C1180 C 0.26565 0.43677 0.32783 0.0
C1181 C 0.27837 0.43514 0.28393 0.0
C1182 C 0.24523 0.37555 0.34037 0.0
C1183 C 0.26399 0.4592 0.3541 0.0
H1184 H 0.1879 0.4233 0.43688 0.0
H1185 H 0.24841 0.40978 0.51914 0.0
H1186 H 0.21451 0.44137 0.32512 0.0
H1187 H 0.20685 0.41232 0.3204 0.0
H1188 H 0.18819 0.43176 0.35132 0.0
H1189 H 0.28406 0.40783 0.48129 0.0
H1190 H 0.28187 0.39406 0.42168 0.0
H1191 H 0.28742 0.42363 0.42438 0.0
H1192 H 0.26965 0.37985 0.25653 0.0
H1193 H 0.2873 0.44985 0.27043 0.0
H1194 H 0.22675 0.37813 0.3431 0.0
H1195 H 0.25147 0.37173 0.37839 0.0
H1196 H 0.24846 0.36071 0.31621 0.0
H1197 H 0.24604 0.46382 0.35961 0.0
H1198 H 0.27246 0.47292 0.3331 0.0
H1199 H 0.2718 0.45798 0.39152 0.0
C1200 C 0.42792 0.79999 0.55521 0.0
C1201 C 0.42219 0.79 0.50974 0.0
C1202 C 0.4281 0.78732 0.59926 0.0
C1203 C 0.42187 0.76431 0.59773 0.0
C1204 C 0.41668 0.75402 0.55157 0.0
C1205 C 0.41714 0.76699 0.50793 0.0
C1206 C 0.43421 0.79874 0.64762 0.0
C1207 C 0.40957 0.72963 0.54861 0.0
C1208 C 0.43386 0.72601 0.70784 0.0
C1209 C 0.41318 0.72655 0.7333 0.0
C1210 C 0.4371 0.73852 0.66407 0.0
C1211 C 0.4191 0.75148 0.64475 0.0
C1212 C 0.39822 0.75212 0.67017 0.0
C1213 C 0.39561 0.73989 0.71439 0.0
C1214 C 0.45972 0.73777 0.63834 0.0
C1215 C 0.37853 0.76558 0.65041 0.0
H1216 H 0.43198 0.81779 0.5563 0.0
H1217 H 0.41254 0.75939 0.47266 0.0
H1218 H 0.41912 0.79977 0.6719 0.0
H1219 H 0.44711 0.78875 0.66783 0.0
H1220 H 0.4408 0.81606 0.64171 0.0
H1221 H 0.40738 0.72386 0.50958 0.0
H1222 H 0.4222 0.71869 0.56709 0.0
H1223 H 0.39336 0.72734 0.56863 0.0
H1224 H 0.44745 0.71552 0.72158 0.0
H1225 H 0.37974 0.74083 0.73424 0.0
H1226 H 0.46635 0.75512 0.63337 0.0
H1227 H 0.45785 0.73033 0.6007 0.0
H1228 H 0.47231 0.72773 0.65944 0.0
H1229 H 0.38307 0.78368 0.64827 0.0
H1230 H 0.36325 0.76384 0.67403 0.0
H1231 H 0.37433 0.75998 0.61212 0.0
C1232 C 0.73587 0.59433 0.26072 0.0
C1233 C 0.71262 0.59032 0.26125 0.0
C1234 C 0.7484 0.59387 0.30496 0.0
C1235 C 0.73743 0.58882 0.35045 0.0
C1236 C 0.7141 0.58379 0.35075 0.0
C1237 C 0.7019 0.58486 0.30612 0.0
C1238 C 0.77316 0.59973 0.3033 0.0
C1239 C 0.70194 0.57785 0.39836 0.0
C1240 C 0.77476 0.57365 0.4603 0.0
C1241 C 0.77551 0.59414 0.48638 0.0
C1242 C 0.76197 0.57146 0.41661 0.0
C1243 C 0.75004 0.59033 0.39805 0.0
C1244 C 0.75049 0.61094 0.42442 0.0
C1245 C 0.76297 0.6125 0.46853 0.0
C1246 C 0.76152 0.5491 0.38987 0.0
C1247 C 0.73813 0.63151 0.40555 0.0
H1248 H 0.74406 0.59869 0.22592 0.0
H1249 H 0.68393 0.58156 0.30625 0.0
H1250 H 0.77618 0.61541 0.32475 0.0
H1251 H 0.78328 0.5862 0.321 0.0
H1252 H 0.77934 0.60227 0.26466 0.0
H1253 H 0.68428 0.57244 0.39154 0.0
H1254 H 0.71096 0.56412 0.41812 0.0
H1255 H 0.70168 0.59266 0.42351 0.0
H1256 H 0.78458 0.55943 0.4733 0.0
H1257 H 0.76299 0.62825 0.48893 0.0
H1258 H 0.76956 0.55083 0.35279 0.0
H1259 H 0.74385 0.54369 0.38361 0.0
H1260 H 0.77046 0.53569 0.41093 0.0
H1261 H 0.74431 0.63599 0.36782 0.0
H1262 H 0.74037 0.64633 0.4303 0.0
H1263 H 0.71986 0.62788 0.40231 0.0
C1264 C 0.57882 0.26066 0.73477 0.0
C1265 C 0.59235 0.28006 0.73826 0.0
C1266 C 0.57682 0.24876 0.68978 0.0
C1267 C 0.58962 0.25563 0.648 0.0
C1268 C 0.60307 0.27523 0.65089 0.0
C1269 C 0.60365 0.28756 0.69525 0.0
C1270 C 0.56135 0.2286 0.68734 0.0
C1271 C 0.61758 0.28276 0.6077 0.0
C1272 C 0.6079 0.21138 0.55503 0.0
C1273 C 0.59604 0.21776 0.5119 0.0
C1274 C 0.60584 0.22348 0.59951 0.0
C1275 C 0.5904 0.24156 0.60232 0.0
C1276 C 0.5771 0.24714 0.56037 0.0
C1277 C 0.58051 0.23562 0.51532 0.0
C1278 C 0.62091 0.21742 0.64289 0.0
C1279 C 0.55961 0.2656 0.56266 0.0
H1280 H 0.57002 0.2544 0.76725 0.0
H1281 H 0.61328 0.30303 0.69598 0.0
H1282 H 0.55143 0.2288 0.6523 0.0
H1283 H 0.57145 0.21289 0.68765 0.0
H1284 H 0.5495 0.22807 0.71936 0.0
H1285 H 0.62784 0.29787 0.61679 0.0
H1286 H 0.62915 0.26894 0.5966 0.0
H1287 H 0.6069 0.28675 0.57504 0.0
H1288 H 0.61913 0.19702 0.55429 0.0
H1289 H 0.57124 0.241 0.48273 0.0
H1290 H 0.61059 0.21245 0.67548 0.0
H1291 H 0.63105 0.23231 0.65402 0.0
H1292 H 0.63262 0.20337 0.63399 0.0
H1293 H 0.54972 0.26442 0.59765 0.0
H1294 H 0.54782 0.26488 0.53058 0.0
H1295 H 0.56804 0.28227 0.56229 0.0
C1296 C 0.37525 0.01591 0.21805 0.0
C1297 C 0.36302 0.01917 0.17404 0.0
C1298 C 0.38007 0.9941 0.23549 0.0
C1299 C 0.3721 0.97513 0.20869 0.0
C1300 C 0.3595 0.97837 0.16454 0.0
C1301 C 0.35527 1.00034 0.14757 0.0
C1302 C 0.39377 0.99134 0.28245 0.0
C1303 C 0.35027 0.95864 0.13551 0.0
C1304 C 0.39935 0.91805 0.234 0.0
C1305 C 0.38475 0.90915 0.26997 0.0
C1306 C 0.39536 0.93947 0.2132 0.0
C1307 C 0.37611 0.95195 0.22811 0.0
C1308 C 0.36085 0.94251 0.26281 0.0
C1309 C 0.36548 0.92135 0.28362 0.0
C1310 C 0.41214 0.94909 0.1767 0.0
C1311 C 0.33987 0.95499 0.2789 0.0
H1312 H 0.38153 0.03043 0.23812 0.0
H1313 H 0.34566 1.00287 0.11374 0.0
H1314 H 0.3836 0.98259 0.31123 0.0
H1315 H 0.40878 0.98071 0.27493 0.0
H1316 H 0.39949 0.00776 0.29776 0.0
H1317 H 0.34098 0.96404 0.10164 0.0
H1318 H 0.36421 0.94729 0.12417 0.0
H1319 H 0.3387 0.94868 0.15938 0.0
H1320 H 0.41436 0.90872 0.22375 0.0
H1321 H 0.35406 0.91443 0.31119 0.0
H1322 H 0.41982 0.96456 0.1925 0.0
H1323 H 0.40351 0.95402 0.14172 0.0
H1324 H 0.42581 0.93697 0.16763 0.0
H1325 H 0.34465 0.97063 0.29885 0.0
H1326 H 0.32903 0.94469 0.30381 0.0
H1327 H 0.32985 0.96004 0.24587 0.0
C1328 C 0.90395 0.63124 0.76186 0.0
C1329 C 0.90323 0.62043 0.71557 0.0
C1330 C 0.92475 0.63652 0.78432 0.0
C1331 C 0.94516 0.63029 0.76042 0.0
C1332 C 0.94438 0.61878 0.71436 0.0
C1333 C 0.92347 0.61426 0.69228 0.0
C1334 C 0.92493 0.64916 0.83303 0.0
C1335 C 0.96564 0.61124 0.68826 0.0
C1336 C 1.00122 0.6588 0.78902 0.0
C1337 C 0.01098 0.64346 0.82223 0.0
C1338 C 0.97943 0.65517 0.76996 0.0
C1339 C 0.96742 0.63543 0.78353 0.0
C1340 C 0.97734 0.61983 0.81684 0.0
C1341 C 0.99888 0.62415 0.83611 0.0
C1342 C 0.96929 0.67237 0.73514 0.0
C1343 C 0.96546 0.59827 0.83114 0.0
H1344 H 0.88832 0.63621 0.77964 0.0
H1345 H 0.92295 0.60574 0.6566 0.0
H1346 H 0.93383 0.63916 0.86186 0.0
H1347 H 0.93431 0.66522 0.82858 0.0
H1348 H 0.90766 0.65301 0.84656 0.0
H1349 H 0.96207 0.60177 0.6535 0.0
H1350 H 0.97617 0.62608 0.6788 0.0
H1351 H 0.97575 0.60034 0.71334 0.0
H1352 H 0.01052 0.67381 0.77868 0.0
H1353 H 0.00656 0.61212 0.8613 0.0
H1354 H 0.95251 0.67774 0.74907 0.0
H1355 H 0.9667 0.66477 0.69787 0.0
H1356 H 0.98015 0.68751 0.73093 0.0
H1357 H 0.94872 0.60209 0.84748 0.0
H1358 H 0.97528 0.58814 0.85836 0.0
H1359 H 0.96253 0.58787 0.79745 0.0
C1360 C 0.61991 0.99656 0.16692 0.0
C1361 C 0.64054 0.9857 0.17568 0.0
C1362 C 0.6162 0.01878 0.18286 0.0
C1363 C 0.63369 0.03059 0.20742 0.0
C1364 C 0.65476 0.01988 0.21527 0.0
C1365 C 0.65785 0.99747 0.19976 0.0
C1366 C 0.59333 0.02935 0.17485 0.0
C1367 C 0.67394 0.03198 0.24074 0.0
C1368 C 0.62932 0.09446 0.22197 0.0
C1369 C 0.62266 0.09625 0.27183 0.0
C1370 C 0.63298 0.07317 0.2002 0.0
C1371 C 0.62934 0.05336 0.22875 0.0
C1372 C 0.62181 0.05522 0.27853 0.0
C1373 C 0.61881 0.07659 0.29953 0.0
C1374 C 0.64132 0.07184 0.14723 0.0
C1375 C 0.61718 0.0346 0.30997 0.0
H1376 H 0.60645 0.98741 0.14867 0.0
H1377 H 0.6739 0.98921 0.20587 0.0
H1378 H 0.58532 0.03283 0.21139 0.0
H1379 H 0.59508 0.04571 0.15526 0.0
H1380 H 0.58191 0.01834 0.15291 0.0
H1381 H 0.68977 0.02197 0.24036 0.0
H1382 H 0.67711 0.04841 0.2223 0.0
H1383 H 0.66936 0.03554 0.27999 0.0
H1384 H 0.63243 0.10966 0.20064 0.0
H1385 H 0.61341 0.07792 0.33799 0.0
H1386 H 0.62974 0.06139 0.12453 0.0
H1387 H 0.65808 0.06352 0.14642 0.0
H1388 H 0.64283 0.08873 0.12969 0.0
H1389 H 0.605 0.0234 0.29076 0.0
H1390 H 0.61027 0.03897 0.34718 0.0
H1391 H 0.63296 0.02487 0.3153 0.0
C1392 C 0.08709 0.35921 0.71807 0.0
C1393 C 0.09896 0.37917 0.72752 0.0
C1394 C 0.06569 0.35548 0.73863 0.0
C1395 C 0.05566 0.37237 0.76845 0.0
C1396 C 0.06783 0.39235 0.77925 0.0
C1397 C 0.08952 0.39541 0.75906 0.0
C1398 C 0.05358 0.3337 0.72724 0.0
C1399 C 0.05757 0.41088 0.8103 0.0
C1400 C 0.99152 0.37197 0.77321 0.0
C1401 C 0.98749 0.36245 0.82008 0.0
C1402 C 0.01364 0.37573 0.75638 0.0
C1403 C 0.03213 0.36934 0.78674 0.0
C1404 C 0.0281 0.35938 0.83378 0.0
C1405 C 0.00583 0.35627 0.85005 0.0
C1406 C 0.01724 0.38669 0.70627 0.0
C1407 C 0.04729 0.35181 0.86671 0.0
H1408 H 0.09444 0.34658 0.69383 0.0
H1409 H 0.09859 0.41096 0.76589 0.0
H1410 H 0.04782 0.32559 0.76223 0.0
H1411 H 0.03838 0.33722 0.70449 0.0
H1412 H 0.06441 0.3216 0.70664 0.0
H1413 H 0.06953 0.42497 0.81689 0.0
H1414 H 0.04241 0.41765 0.79122 0.0
H1415 H 0.05198 0.40414 0.84679 0.0
H1416 H 0.97735 0.37702 0.75036 0.0
H1417 H 1.00268 0.34873 0.88614 0.0
H1418 H 0.02646 0.37502 0.68127 0.0
H1419 H 0.02777 0.40202 0.71052 0.0
H1420 H 1.00111 0.39148 0.68813 0.0
H1421 H 0.05769 0.33913 0.84686 0.0
H1422 H 0.04128 0.34431 0.90222 0.0
H1423 H 0.05843 0.36628 0.87544 0.0
C1424 C 0.39425 0.59729 0.00895 0.0
C1425 C 0.378 0.60608 0.97655 0.0
C1426 C 0.39164 0.57565 0.02956 0.0
C1427 C 0.37203 0.56292 0.01845 0.0
C1428 C 0.35502 0.5724 0.988 0.0
C1429 C 0.35841 0.59371 0.96673 0.0
C1430 C 0.41036 0.56594 0.06098 0.0
C1431 C 0.33357 0.55975 0.97646 0.0
C1432 C 0.37342 0.49885 0.02205 0.0
C1433 C 0.36405 0.49437 0.06881 0.0
C1434 C 0.37665 0.52111 0.00573 0.0
C1435 C 0.36972 0.53928 0.03643 0.0
C1436 C 0.35993 0.53477 0.08345 0.0
C1437 C 0.35749 0.51237 0.09932 0.0
C1438 C 0.38756 0.52521 0.95577 0.0
C1439 C 0.3517 0.55359 0.1166 0.0
H1440 H 0.40956 0.60678 0.0158 0.0
H1441 H 0.34586 0.6006 0.94159 0.0
H1442 H 0.40365 0.55996 0.09719 0.0
H1443 H 0.41777 0.55113 0.04179 0.0
H1444 H 0.42398 0.57837 0.06815 0.0
H1445 H 0.3211 0.57039 0.95645 0.0
H1446 H 0.33747 0.54487 0.95302 0.0
H1447 H 0.32574 0.55345 0.01131 0.0
H1448 H 0.3787 0.48489 0.99882 0.0
H1449 H 0.35004 0.50882 0.13532 0.0
H1450 H 0.40242 0.53639 0.96018 0.0
H1451 H 0.37555 0.53391 0.93064 0.0
H1452 H 0.39308 0.50931 0.93766 0.0
H1453 H 0.36577 0.56522 0.12543 0.0
H1454 H 0.34444 0.54723 0.15205 0.0
H1455 H 0.33864 0.56357 0.09686 0.0
C1456 C 0.58405 0.64424 0.01485 0.0
C1457 C 0.59546 0.62365 0.01125 0.0
C1458 C 0.56256 0.64706 0.99407 0.0
C1459 C 0.55194 0.62859 0.97044 0.0
C1460 C 0.56369 0.6079 0.96541 0.0
C1461 C 0.58551 0.60576 0.98538 0.0
C1462 C 0.55093 0.6696 -0.00102 0.0
C1463 C 0.55276 0.5877 0.94133 0.0
C1464 C 0.48787 0.63068 0.97191 0.0
C1465 C 0.48305 0.63739 0.92312 0.0
C1466 C 0.5102 0.62701 0.98731 0.0
C1467 C 0.52814 0.63075 0.95339 0.0
C1468 C 0.52331 0.63764 0.90407 0.0
C1469 C 0.5008 0.64062 0.88939 0.0
C1470 C 0.51461 0.61924 0.03994 0.0
C1471 C 0.54193 0.64242 0.86723 0.0
H1472 H 0.59182 0.65809 0.03483 0.0
H1473 H 0.59425 0.58973 0.98329 0.0
H1474 H 0.54454 0.67528 0.96224 0.0
H1475 H 0.53619 0.66798 0.02415 0.0
H1476 H 0.56231 0.68278 0.01414 0.0
H1477 H 0.56458 0.57326 0.93781 0.0
H1478 H 0.53806 0.58228 0.96391 0.0
H1479 H 0.54636 0.59214 0.9038 0.0
H1480 H 0.47409 0.62797 0.99773 0.0
H1481 H 0.49703 0.64605 0.85179 0.0
H1482 H 0.52411 0.63239 0.06045 0.0
H1483 H 0.52517 0.6038 0.03966 0.0
H1484 H 0.49878 0.61563 0.06056 0.0
H1485 H 0.55264 0.65638 0.88123 0.0
H1486 H 0.53532 0.64715 0.82997 0.0
H1487 H 0.55294 0.62743 0.86312 0.0
C1488 C 0.611 0.50493 0.07047 0.0
C1489 C 0.63191 0.51579 0.06604 0.0
C1490 C 0.608 0.48267 0.05423 0.0
C1491 C 0.62644 0.4708 0.03352 0.0
C1492 C 0.64776 0.48148 0.02998 0.0
C1493 C 0.65019 0.50394 0.04587 0.0
C1494 C 0.58487 0.47214 0.05767 0.0
C1495 C 0.6679 0.46931 0.00863 0.0
C1496 C 0.62072 0.40699 0.01937 0.0
C1497 C 0.61517 0.40514 0.96883 0.0
C1498 C 0.62481 0.42824 0.04099 0.0
C1499 C 0.62286 0.448 0.01153 0.0
C1500 C 0.61689 0.44614 0.96073 0.0
C1501 C 0.61332 0.42478 0.94001 0.0
C1502 C 0.63142 0.42957 0.09514 0.0
C1503 C 0.61415 0.46673 0.92816 0.0
H1504 H 0.59675 0.51411 0.08545 0.0
H1505 H 0.66642 0.51219 0.04297 0.0
H1506 H 0.57841 0.46861 0.0197 0.0
H1507 H 0.58578 0.45582 0.07769 0.0
H1508 H 0.57259 0.48319 0.07712 0.0
H1509 H 0.68367 0.47927 0.01225 0.0
H1510 H 0.67024 0.45288 0.02766 0.0
H1511 H 0.66501 0.46574 0.96861 0.0
H1512 H 0.62231 0.39185 0.04168 0.0
H1513 H 0.60885 0.42352 0.90099 0.0
H1514 H 0.61886 0.4397 0.11599 0.0
H1515 H 0.64791 0.43823 0.0988 0.0
H1516 H 0.63268 0.41266 0.1127 0.0
H1517 H 0.60116 0.47807 0.94415 0.0
H1518 H 0.60915 0.46238 0.8895 0.0
H1519 H 0.63019 0.47632 0.92675 0.0
C1520 C 0.42688 0.40745 0.0432 0.0
C1521 C 0.40742 0.39766 0.02305 0.0
C1522 C 0.44809 0.40394 0.02158 0.0
C1523 C 0.45001 0.38976 0.97948 0.0
C1524 C 0.43029 0.38033 0.95802 0.0
C1525 C 0.40911 0.38465 0.97977 0.0
C1526 C 0.46854 0.41482 0.04489 0.0
C1527 C 0.4317 0.3648 0.91368 0.0
C1528 C 0.50487 0.39125 0.90582 0.0
C1529 C 0.51696 0.37351 0.92764 0.0
C1530 C 0.48301 0.39671 0.92206 0.0
C1531 C 0.47282 0.38376 0.96022 0.0
C1532 C 0.48489 0.36563 0.9819 0.0
C1533 C 0.50691 0.36091 0.96574 0.0
C1534 C 0.47096 0.41654 0.89896 0.0
C1535 C 0.47455 0.35116 0.02213 0.0
H1536 H 0.42554 0.41768 0.07651 0.0
H1537 H 0.39407 0.37693 0.96449 0.0
H1538 H 0.47948 0.40167 0.06159 0.0
H1539 H 0.47864 0.42367 0.01613 0.0
H1540 H 0.46392 0.42708 0.07442 0.0
H1541 H 0.41477 0.35997 0.89955 0.0
H1542 H 0.44128 0.37292 0.88309 0.0
H1543 H 0.44094 0.34926 0.92424 0.0
H1544 H 0.5127 0.40105 0.8765 0.0
H1545 H 0.5161 0.34696 0.98205 0.0
H1546 H 0.46711 0.42924 0.92803 0.0
H1547 H 0.45466 0.41104 0.88284 0.0
H1548 H 0.4811 0.42473 0.86926 0.0
H1549 H 0.47108 0.36153 0.0556 0.0
H1550 H 0.48567 0.33693 0.03308 0.0
H1551 H 0.45819 0.34423 0.00921 0.0
C1552 C 0.90096 0.41918 0.74203 0.0
C1553 C 0.88419 0.41035 0.77308 0.0
C1554 C 0.89845 0.44069 0.72059 0.0
C1555 C 0.87845 0.45317 0.72944 0.0
C1556 C 0.86109 0.44374 0.75894 0.0
C1557 C 0.86433 0.42259 0.78097 0.0
C1558 C 0.91751 0.4504 0.69017 0.0
C1559 C 0.83925 0.45616 0.76813 0.0
C1560 C 0.87677 0.51708 0.72154 0.0
C1561 C 0.86733 0.52043 0.67439 0.0
C1562 C 0.88135 0.49526 0.73911 0.0
C1563 C 0.87575 0.47638 0.70927 0.0
C1564 C 0.86618 0.47973 0.66158 0.0
C1565 C 0.86234 0.50175 0.64449 0.0
C1566 C 0.89197 0.4924 0.78979 0.0
C1567 C 0.85936 0.46008 0.62925 0.0
H1568 H 0.9164 0.40975 0.73642 0.0
H1569 H 0.85129 0.41563 0.80476 0.0
H1570 H 0.91135 0.45549 0.65285 0.0
H1571 H 0.92406 0.46578 0.70863 0.0
H1572 H 0.93162 0.43828 0.68546 0.0
H1573 H 0.82683 0.44576 0.78887 0.0
H1574 H 0.84258 0.4717 0.78985 0.0
H1575 H 0.8316 0.46139 0.73224 0.0
H1576 H 0.88086 0.53159 0.74428 0.0
H1577 H 0.85484 0.50441 0.60819 0.0
H1578 H 0.90713 0.48151 0.78705 0.0
H1579 H 0.87995 0.48391 0.81526 0.0
H1580 H 0.89694 0.50877 0.80656 0.0
H1581 H 0.87393 0.44871 0.62317 0.0
H1582 H 0.8528 0.46557 0.59246 0.0
H1583 H 0.8461 0.45011 0.64834 0.0
C1584 C 0.51326 0.14627 0.28936 0.0
C1585 C 0.52444 0.13107 0.32073 0.0
C1586 C 0.49139 0.14179 0.2721 0.0
C1587 C 0.48056 0.12147 0.28606 0.0
C1588 C 0.49167 0.10617 0.31817 0.0
C1589 C 0.51344 0.11121 0.33532 0.0
C1590 C 0.48001 0.15865 0.23828 0.0
C1591 C 0.48083 0.08418 0.33326 0.0
C1592 C 0.41718 0.11792 0.26523 0.0
C1593 C 0.41629 0.10797 0.21798 0.0
C1594 C 0.438 0.122 0.28858 0.0
C1595 C 0.45825 0.11564 0.26432 0.0
C1596 C 0.45728 0.10458 0.21774 0.0
C1597 C 0.43633 0.10104 0.19501 0.0
C1598 C 0.43839 0.13398 0.3381 0.0
C1599 C 0.47843 0.09716 0.19102 0.0
H1600 H 0.5216 0.16177 0.27864 0.0
H1601 H 0.52212 0.09931 0.35914 0.0
H1602 H 0.47718 0.151 0.20113 0.0
H1603 H 0.46325 0.1633 0.2535 0.0
H1604 H 0.49015 0.17423 0.23343 0.0
H1605 H 0.49122 0.07467 0.36053 0.0
H1606 H 0.46399 0.08732 0.34981 0.0
H1607 H 0.47826 0.07349 0.29988 0.0
H1608 H 0.4017 0.12345 0.28289 0.0
H1609 H 0.43568 0.09318 0.15862 0.0
H1610 H 0.44651 0.15071 0.33367 0.0
H1611 H 0.44857 0.12432 0.36539 0.0
H1612 H 0.4212 0.13648 0.35356 0.0
H1613 H 0.48853 0.11214 0.18038 0.0
H1614 H 0.47468 0.08733 0.15683 0.0
H1615 H 0.48903 0.08669 0.21599 0.0
C1616 C 0.10847 0.49703 0.66604 0.0
C1617 C 0.12927 0.48689 0.67685 0.0
C1618 C 0.10324 0.51867 0.68354 0.0
C1619 C 0.11926 0.53054 0.71234 0.0
C1620 C 0.14049 0.5206 0.72256 0.0
C1621 C 0.14519 0.49882 0.70492 0.0
C1622 C 0.0803 0.52852 0.6725 0.0
C1623 C 0.15808 0.53281 0.75289 0.0
C1624 C 0.1124 0.5937 0.73278 0.0
C1625 C 0.10374 0.59418 0.78129 0.0
C1626 C 0.11735 0.57306 0.70941 0.0
C1627 C 0.11319 0.55258 0.73503 0.0
C1628 C 0.10358 0.55307 0.78321 0.0
C1629 C 0.09912 0.57384 0.80582 0.0
C1630 C 0.1277 0.57317 0.6581 0.0
C1631 C 0.09851 0.53163 0.81148 0.0
H1632 H 0.09598 0.48778 0.64494 0.0
H1633 H 0.16138 0.49116 0.71278 0.0
H1634 H 0.07077 0.53068 0.70773 0.0
H1635 H 0.08206 0.54544 0.65538 0.0
H1636 H 0.07026 0.51769 0.64711 0.0
H1637 H 0.17425 0.5234 0.7547 0.0
H1638 H 0.16133 0.54972 0.73678 0.0
H1639 H 0.1518 0.53537 0.79138 0.0
H1640 H 0.11617 0.60941 0.71393 0.0
H1641 H 0.09227 0.57416 0.84324 0.0
H1642 H 0.11757 0.56262 0.63242 0.0
H1643 H 0.14485 0.56572 0.65973 0.0
H1644 H 0.12898 0.59044 0.64237 0.0
H1645 H 0.08759 0.52045 0.78886 0.0
H1646 H 0.09001 0.53493 0.84759 0.0
H1647 H 0.1144 0.52236 0.81887 0.0
C1648 C 0.58619 0.88508 0.19162 0.0
C1649 C 0.60614 0.88394 0.21958 0.0
C1650 C 0.56507 0.88226 0.21393 0.0
C1651 C 0.56374 0.8778 0.26555 0.0
C1652 C 0.5838 0.87646 0.29415 0.0
C1653 C 0.60484 0.87979 0.27085 0.0
C1654 C 0.54413 0.88429 0.18216 0.0
C1655 C 0.58301 0.87142 0.34917 0.0
C1656 C 0.5072 0.89232 0.32303 0.0
C1657 C 0.4959 0.87159 0.32089 0.0
C1658 C 0.52962 0.89439 0.3071 0.0
C1659 C 0.54117 0.87517 0.28909 0.0
C1660 C 0.53011 0.85401 0.28851 0.0
C1661 C 0.50752 0.85251 0.30401 0.0
C1662 C 0.54059 0.91736 0.30735 0.0
C1663 C 0.54193 0.83308 0.27012 0.0
H1664 H 0.58702 0.88851 0.15202 0.0
H1665 H 0.62022 0.87879 0.29252 0.0
H1666 H 0.53435 0.86838 0.18364 0.0
H1667 H 0.53312 0.89787 0.19679 0.0
H1668 H 0.54811 0.88807 0.14261 0.0
H1669 H 0.6001 0.87035 0.36588 0.0
H1670 H 0.57334 0.88473 0.36879 0.0
H1671 H 0.5741 0.85524 0.35566 0.0
H1672 H 0.49821 0.90716 0.33555 0.0
H1673 H 0.49893 0.83641 0.30302 0.0
H1674 H 0.54371 0.92289 0.26849 0.0
H1675 H 0.55716 0.91662 0.32638 0.0
H1676 H 0.52997 0.93023 0.32608 0.0
H1677 H 0.54502 0.83451 0.22951 0.0
H1678 H 0.5319 0.81759 0.27708 0.0
H1679 H 0.55858 0.83128 0.2885 0.0
C1680 C 0.90546 0.09207 0.51033 0.0
C1681 C 0.88887 0.10132 0.47939 0.0
C1682 C 0.90264 0.07046 0.53103 0.0
C1683 C 0.88256 0.05824 0.52139 0.0
C1684 C 0.86533 0.06813 0.49227 0.0
C1685 C 0.86883 0.08942 0.47112 0.0
C1686 C 0.92152 0.0603 0.56127 0.0
C1687 C 0.84344 0.05597 0.48216 0.0
C1688 C 0.88152 0.99423 0.52508 0.0
C1689 C 0.87211 0.99013 0.57201 0.0
C1690 C 0.88568 0.01633 0.50879 0.0
C1691 C 0.87978 0.03474 0.53978 0.0
C1692 C 0.87012 0.03065 0.5871 0.0
C1693 C 0.86662 0.00837 0.60283 0.0
C1694 C 0.89632 0.01999 0.45838 0.0
C1695 C 0.86305 0.04979 0.62065 0.0
H1696 H 0.92104 0.10122 0.51623 0.0
H1697 H 0.85594 0.09668 0.4474 0.0
H1698 H 0.91514 0.05459 0.59797 0.0
H1699 H 0.92825 0.04525 0.54178 0.0
H1700 H 0.93556 0.07238 0.56737 0.0
H1701 H 0.83107 0.06676 0.46222 0.0
H1702 H 0.84672 0.04078 0.45923 0.0
H1703 H 0.83575 0.05021 0.5176 0.0
H1704 H 0.88604 0.98009 0.50161 0.0
H1705 H 0.85917 0.00516 0.63897 0.0
H1706 H 0.91157 0.03069 0.46208 0.0
H1707 H 0.88438 0.02904 0.43367 0.0
H1708 H 0.90117 1.00389 0.44019 0.0
H1709 H 0.87759 0.06103 0.6281 0.0
H1710 H 0.85622 0.04374 0.65677 0.0
H1711 H 0.84994 0.06009 0.60188 0.0
C1712 C 0.09929 0.11759 0.47741 0.0
C1713 C 0.10029 0.10679 0.52375 0.0
C1714 C 0.07839 0.12326 0.456 0.0
C1715 C 0.05816 0.11763 0.48126 0.0
C1716 C 0.05918 0.10579 0.52693 0.0
C1717 C 0.08022 0.10069 0.54777 0.0
C1718 C 0.07795 0.13601 0.4074 0.0
C1719 C 0.03804 0.09905 0.55456 0.0
C1720 C 1.00403 0.15051 0.45887 0.0
C1721 C 0.99239 0.13615 0.4265 0.0
C1722 C 0.02575 0.14499 0.47591 0.0
C1723 C 0.03586 0.12445 0.46078 0.0
C1724 C 0.02413 0.10988 0.42821 0.0
C1725 C 1.00261 0.11595 0.41132 0.0
C1726 C 0.03782 0.16106 0.51032 0.0
C1727 C 0.03411 0.08764 0.41202 0.0
H1728 H 0.11479 0.12255 0.45906 0.0
H1729 H 0.08097 0.09223 0.58353 0.0
H1730 H 0.06735 0.12702 0.37984 0.0
H1731 H 0.07027 0.15286 0.41328 0.0
H1732 H 0.09508 0.13832 0.39148 0.0
H1733 H 0.04175 0.08877 0.58816 0.0
H1734 H 0.02868 0.11434 0.56627 0.0
H1735 H 0.02675 0.08925 0.52978 0.0
H1736 H 0.99625 0.1662 0.47024 0.0
H1737 H 0.99352 0.10463 0.38692 0.0
H1738 H 0.05457 0.16546 0.49471 0.0
H1739 H 0.04075 0.15284 0.54685 0.0
H1740 H 0.02813 0.17683 0.51653 0.0
H1741 H 0.05081 0.09038 0.39442 0.0
H1742 H 0.02311 0.07857 0.38524 0.0
H1743 H 0.03682 0.0767 0.44499 0.0
C1744 C 0.14967 0.91737 0.46397 0.0
C1745 C 0.1306 0.90502 0.4783 0.0
C1746 C 0.15403 0.93871 0.48389 0.0
C1747 C 0.13869 0.94818 0.51831 0.0
C1748 C 0.11958 0.93562 0.53374 0.0
C1749 C 0.11587 0.91398 0.51389 0.0
C1750 C 0.17487 0.95128 0.46733 0.0
C1751 C 0.10271 0.94532 0.56991 0.0
C1752 C 0.15976 0.99695 0.59695 0.0
C1753 C 0.15213 0.01562 0.56972 0.0
C1754 C 0.15531 0.9749 0.58099 0.0
C1755 C 0.14258 0.97144 0.53711 0.0
C1756 C 0.13465 0.99025 0.50966 0.0
C1757 C 0.13971 0.01214 0.52607 0.0
C1758 C 0.16452 0.95533 0.61063 0.0
C1759 C 0.1208 0.98723 0.46299 0.0
H1760 H 0.1612 0.91035 0.43675 0.0
H1761 H 0.10103 0.9045 0.52465 0.0
H1762 H 0.16995 0.96684 0.44717 0.0
H1763 H 0.18494 0.9565 0.50016 0.0
H1764 H 0.18574 0.941 0.44248 0.0
H1765 H 0.08907 0.93319 0.57912 0.0
H1766 H 0.11127 0.95038 0.60485 0.0
H1767 H 0.095 0.96071 0.55376 0.0
H1768 H 0.16949 0.99968 0.63053 0.0
H1769 H 0.13352 0.02656 0.50547 0.0
H1770 H 0.17618 0.9453 0.58712 0.0
H1771 H 0.15061 0.94398 0.62213 0.0
H1772 H 0.17374 0.96091 0.64444 0.0
H1773 H 0.13094 0.97846 0.43423 0.0
H1774 H 0.11491 1.00356 0.44744 0.0
H1775 H 0.10589 0.97653 0.47095 0.0
C1776 C 0.00681 0.86009 0.39971 0.0
C1777 C 0.0253 0.86558 0.42981 0.0
C1778 C 0.98467 0.86409 0.41583 0.0
C1779 C 0.981 0.8743 0.46273 0.0
C1780 C 0.99967 0.88027 0.49289 0.0
C1781 C 0.02162 0.87557 0.47628 0.0
C1782 C 0.96523 0.85693 0.38321 0.0
C1783 C 0.99646 0.89153 0.54276 0.0
C1784 C 0.92394 0.90071 0.49147 0.0
C1785 C 0.9146 0.88451 0.52326 0.0
C1786 C 0.94554 0.89758 0.47098 0.0
C1787 C 0.95765 0.87754 0.48164 0.0
C1788 C 0.94774 0.86073 0.5119 0.0
C1789 C 0.92647 0.86457 0.53286 0.0
C1790 C 0.95575 0.91605 0.43959 0.0
C1791 C 0.95979 0.83888 0.52308 0.0
H1792 H 0.00973 0.8522 0.36392 0.0
H1793 H 0.03596 0.88008 0.49916 0.0
H1794 H 0.95491 0.84414 0.40296 0.0
H1795 H 0.9541 0.87151 0.37534 0.0
H1796 H 0.97098 0.84966 0.34728 0.0
H1797 H 0.01273 0.89643 0.56012 0.0
H1798 H 0.98586 0.90683 0.53852 0.0
H1799 H 0.98748 0.87997 0.56847 0.0
H1800 H 0.91479 0.91621 0.48445 0.0
H1801 H 0.91913 0.85194 0.55717 0.0
H1802 H 0.96104 0.90928 0.40293 0.0
H1803 H 0.97109 0.92266 0.45816 0.0
H1804 H 0.94386 0.93024 0.43339 0.0
H1805 H 0.96519 0.83067 0.48795 0.0
H1806 H 0.94905 0.8269 0.54425 0.0
H1807 H 0.97521 0.8423 0.54517 0.0
loop_
_geom_bond_atom_site_label_1
_geom_bond_atom_site_label_2
_geom_bond_distance
_geom_bond_site_symmetry_2
_ccdc_geom_bond_type
C0 C1 1.351 . S
C0 N3 1.368 . S
C0 H5 0.931 . S
C1 C0 1.351 . S
C1 N2 1.373 . S
C1 H29 0.930 . S
N2 C1 1.373 . S
N2 C4 1.340 . S
N3 C0 1.368 . S
N3 C4 1.321 . S
N3 Co6 2.135 . S
C4 N2 1.340 . S
C4 N3 1.321 . S
C4 H28 0.930 . S
H5 C0 0.931 . S
Co6 N3 2.135 . S
Co6 N9 2.121 . S
Co6 O14 2.055 . S
Co6 O17 2.039 . S
Co6 N20 2.140 . S
C7 O8 1.227 . S
C7 O17 1.265 . S
O8 C7 1.227 . S
N9 Co6 2.121 . S
N9 C11 1.375 . S
N9 C12 1.313 . S
C10 C11 1.338 . S
C10 N13 1.377 . S
C10 H30 0.930 . S
C11 N9 1.375 . S
C11 C10 1.338 . S
C11 H15 0.931 . S
C12 N9 1.313 . S
C12 N13 1.344 . S
C12 H16 0.930 . S
N13 C10 1.377 . S
N13 C12 1.344 . S
O14 Co6 2.055 . S
O14 C18 1.253 . S
H15 C11 0.931 . S
H16 C12 0.930 . S
O17 Co6 2.039 . S
O17 C7 1.265 . S
C18 O14 1.253 . S
C18 O19 1.227 . S
O19 C18 1.227 . S
N20 Co6 2.140 . S
N20 C23 1.346 . S
N20 C24 1.345 . S
C21 C22 1.387 . S
C21 C25 1.391 . S
C22 C21 1.387 . S
C22 C23 1.369 . S
C22 H31 0.929 . S
C23 N20 1.346 . S
C23 C22 1.369 . S
C23 H26 0.928 . S
C24 N20 1.345 . S
C24 C25 1.371 . S
C24 H27 0.931 . S
C25 C21 1.391 . S
C25 C24 1.371 . S
C25 H32 0.930 . S
H26 C23 0.928 . S
H27 C24 0.931 . S
H28 C4 0.930 . S
H29 C1 0.930 . S
H30 C10 0.930 . S
H31 C22 0.929 . S
H32 C25 0.930 . S
C33 C34 1.351 . S
C33 N36 1.368 . S
C33 H38 0.931 . S
C34 C33 1.351 . S
C34 N35 1.373 . S
C34 H62 0.930 . S
N35 C34 1.373 . S
N35 C37 1.340 . S
N36 C33 1.368 . S
N36 C37 1.321 . S
N36 Co39 2.135 . S
C37 N35 1.340 . S
C37 N36 1.321 . S
C37 H61 0.930 . S
H38 C33 0.931 . S
Co39 N36 2.135 . S
Co39 N42 2.121 . S
Co39 O47 2.055 . S
Co39 O50 2.039 . S
Co39 N53 2.140 . S
C40 O41 1.227 . S
C40 O50 1.265 . S
O41 C40 1.227 . S
N42 Co39 2.121 . S
N42 C44 1.375 . S
N42 C45 1.313 . S
C43 C44 1.338 . S
C43 N46 1.377 . S
C43 H63 0.930 . S
C44 N42 1.375 . S
C44 C43 1.338 . S
C44 H48 0.931 . S
C45 N42 1.313 . S
C45 N46 1.344 . S
C45 H49 0.930 . S
N46 C43 1.377 . S
N46 C45 1.344 . S
O47 Co39 2.055 . S
O47 C51 1.253 . S
H48 C44 0.931 . S
H49 C45 0.930 . S
O50 Co39 2.039 . S
O50 C40 1.265 . S
C51 O47 1.253 . S
C51 O52 1.227 . S
O52 C51 1.227 . S
N53 Co39 2.140 . S
N53 C56 1.346 . S
N53 C57 1.345 . S
C54 C55 1.387 . S
C54 C58 1.391 . S
C55 C54 1.387 . S
C55 C56 1.369 . S
C55 H64 0.929 . S
C56 N53 1.346 . S
C56 C55 1.369 . S
C56 H59 0.928 . S
C57 N53 1.345 . S
C57 C58 1.371 . S
C57 H60 0.931 . S
C58 C54 1.391 . S
C58 C57 1.371 . S
C58 H65 0.930 . S
H59 C56 0.928 . S
H60 C57 0.931 . S
H61 C37 0.930 . S
H62 C34 0.930 . S
H63 C43 0.930 . S
H64 C55 0.929 . S
H65 C58 0.930 . S
C66 C67 1.351 . S
C66 N69 1.368 . S
C66 H71 0.931 . S
C67 C66 1.351 . S
C67 N68 1.373 . S
C67 H95 0.930 . S
N68 C67 1.373 . S
N68 C70 1.340 . S
N69 C66 1.368 . S
N69 C70 1.321 . S
N69 Co72 2.135 . S
C70 N68 1.340 . S
C70 N69 1.321 . S
C70 H94 0.930 . S
H71 C66 0.931 . S
Co72 N69 2.135 . S
Co72 N75 2.121 . S
Co72 O80 2.055 . S
Co72 O83 2.039 . S
Co72 N86 2.140 . S
C73 O74 1.227 . S
C73 O83 1.265 . S
O74 C73 1.227 . S
N75 Co72 2.121 . S
N75 C77 1.375 . S
N75 C78 1.313 . S
C76 C77 1.338 . S
C76 N79 1.377 . S
C76 H96 0.930 . S
C77 N75 1.375 . S
C77 C76 1.338 . S
C77 H81 0.931 . S
C78 N75 1.313 . S
C78 N79 1.344 . S
C78 H82 0.930 . S
N79 C76 1.377 . S
N79 C78 1.344 . S
O80 Co72 2.055 . S
O80 C84 1.253 . S
H81 C77 0.931 . S
H82 C78 0.930 . S
O83 Co72 2.039 . S
O83 C73 1.265 . S
C84 O80 1.253 . S
C84 O85 1.227 . S
O85 C84 1.227 . S
N86 Co72 2.140 . S
N86 C89 1.346 . S
N86 C90 1.345 . S
C87 C88 1.387 . S
C87 C91 1.391 . S
C88 C87 1.387 . S
C88 C89 1.369 . S
C88 H97 0.929 . S
C89 N86 1.346 . S
C89 C88 1.369 . S
C89 H92 0.928 . S
C90 N86 1.345 . S
C90 C91 1.371 . S
C90 H93 0.931 . S
C91 C87 1.391 . S
C91 C90 1.371 . S
C91 H98 0.930 . S
H92 C89 0.928 . S
H93 C90 0.931 . S
H94 C70 0.930 . S
H95 C67 0.930 . S
H96 C76 0.930 . S
H97 C88 0.929 . S
H98 C91 0.930 . S
C99 C100 1.351 . S
C99 N102 1.368 . S
C99 H104 0.931 . S
C100 C99 1.351 . S
C100 N101 1.373 . S
C100 H128 0.930 . S
N101 C100 1.373 . S
N101 C103 1.340 . S
N102 C99 1.368 . S
N102 C103 1.321 . S
N102 Co105 2.135 . S
C103 N101 1.340 . S
C103 N102 1.321 . S
C103 H127 0.930 . S
H104 C99 0.931 . S
Co105 N102 2.135 . S
Co105 N108 2.121 . S
Co105 O113 2.055 . S
Co105 O116 2.039 . S
Co105 N119 2.140 . S
C106 O107 1.227 . S
C106 O116 1.265 . S
O107 C106 1.227 . S
N108 Co105 2.121 . S
N108 C110 1.375 . S
N108 C111 1.313 . S
C109 C110 1.338 . S
C109 N112 1.377 . S
C109 H129 0.930 . S
C110 N108 1.375 . S
C110 C109 1.338 . S
C110 H114 0.931 . S
C111 N108 1.313 . S
C111 N112 1.344 . S
C111 H115 0.930 . S
N112 C109 1.377 . S
N112 C111 1.344 . S
O113 Co105 2.055 . S
O113 C117 1.253 . S
H114 C110 0.931 . S
H115 C111 0.930 . S
O116 Co105 2.039 . S
O116 C106 1.265 . S
C117 O113 1.253 . S
C117 O118 1.227 . S
O118 C117 1.227 . S
N119 Co105 2.140 . S
N119 C122 1.346 . S
N119 C123 1.345 . S
C120 C121 1.387 . S
C120 C124 1.391 . S
C121 C120 1.387 . S
C121 C122 1.369 . S
C121 H130 0.929 . S
C122 N119 1.346 . S
C122 C121 1.369 . S
C122 H125 0.928 . S
C123 N119 1.345 . S
C123 C124 1.371 . S
C123 H126 0.931 . S
C124 C120 1.391 . S
C124 C123 1.371 . S
C124 H131 0.930 . S
H125 C122 0.928 . S
H126 C123 0.931 . S
H127 C103 0.930 . S
H128 C100 0.930 . S
H129 C109 0.930 . S
H130 C121 0.929 . S
H131 C124 0.930 . S
C132 C133 1.351 . S
C132 N135 1.368 . S
C132 H137 0.931 . S
C133 C132 1.351 . S
C133 N134 1.373 . S
C133 H161 0.930 . S
N134 C133 1.373 . S
N134 C136 1.340 . S
N135 C132 1.368 . S
N135 C136 1.321 . S
N135 Co138 2.135 . S
C136 N134 1.340 . S
C136 N135 1.321 . S
C136 H160 0.930 . S
H137 C132 0.931 . S
Co138 N135 2.135 . S
Co138 N141 2.121 . S
Co138 O146 2.055 . S
Co138 O149 2.039 1_554 S
Co138 N152 2.140 . S
C139 O140 1.227 . S
C139 O149 1.265 1_554 S
O140 C139 1.227 . S
N141 Co138 2.121 . S
N141 C143 1.375 . S
N141 C144 1.313 . S
C142 C143 1.338 . S
C142 N145 1.377 . S
C142 H162 0.930 . S
C143 N141 1.375 . S
C143 C142 1.338 . S
C143 H147 0.931 . S
C144 N141 1.313 . S
C144 N145 1.344 . S
C144 H148 0.930 . S
N145 C142 1.377 . S
N145 C144 1.344 . S
O146 Co138 2.055 . S
O146 C150 1.253 . S
H147 C143 0.931 . S
H148 C144 0.930 . S
O149 Co138 2.039 1_556 S
O149 C139 1.265 1_556 S
C150 O146 1.253 . S
C150 O151 1.227 . S
O151 C150 1.227 . S
N152 Co138 2.140 . S
N152 C155 1.346 . S
N152 C156 1.345 . S
C153 C154 1.387 . S
C153 C157 1.391 . S
C154 C153 1.387 . S
C154 C155 1.369 . S
C154 H163 0.929 . S
C155 N152 1.346 . S
C155 C154 1.369 . S
C155 H158 0.928 . S
C156 N152 1.345 . S
C156 C157 1.371 . S
C156 H159 0.931 . S
C157 C153 1.391 . S
C157 C156 1.371 . S
C157 H164 0.930 . S
H158 C155 0.928 . S
H159 C156 0.931 . S
H160 C136 0.930 . S
H161 C133 0.930 . S
H162 C142 0.930 . S
H163 C154 0.929 . S
H164 C157 0.930 . S
C165 C166 1.351 . S
C165 N168 1.368 . S
C165 H170 0.931 . S
C166 C165 1.351 . S
C166 N167 1.373 . S
C166 H194 0.930 . S
N167 C166 1.373 . S
N167 C169 1.340 . S
N168 C165 1.368 . S
N168 C169 1.321 . S
N168 Co171 2.135 . S
C169 N167 1.340 . S
C169 N168 1.321 . S
C169 H193 0.930 . S
H170 C165 0.931 . S
Co171 N168 2.135 . S
Co171 N174 2.121 . S
Co171 O179 2.055 . S
Co171 O182 2.039 1_556 S
Co171 N185 2.140 . S
C172 O173 1.227 . S
C172 O182 1.265 1_556 S
O173 C172 1.227 . S
N174 Co171 2.121 . S
N174 C176 1.375 . S
N174 C177 1.313 . S
C175 C176 1.338 . S
C175 N178 1.377 . S
C175 H195 0.930 . S
C176 N174 1.375 . S
C176 C175 1.338 . S
C176 H180 0.931 . S
C177 N174 1.313 . S
C177 N178 1.344 . S
C177 H181 0.930 . S
N178 C175 1.377 . S
N178 C177 1.344 . S
O179 Co171 2.055 . S
O179 C183 1.253 . S
H180 C176 0.931 . S
H181 C177 0.930 . S
O182 Co171 2.039 1_554 S
O182 C172 1.265 1_554 S
C183 O179 1.253 . S
C183 O184 1.227 . S
O184 C183 1.227 . S
N185 Co171 2.140 . S
N185 C188 1.346 . S
N185 C189 1.345 . S
C186 C187 1.387 . S
C186 C190 1.391 . S
C187 C186 1.387 . S
C187 C188 1.369 . S
C187 H196 0.929 . S
C188 N185 1.346 . S
C188 C187 1.369 . S
C188 H191 0.928 . S
C189 N185 1.345 . S
C189 C190 1.371 . S
C189 H192 0.931 . S
C190 C186 1.391 . S
C190 C189 1.371 . S
C190 H197 0.930 . S
H191 C188 0.928 . S
H192 C189 0.931 . S
H193 C169 0.930 . S
H194 C166 0.930 . S
H195 C175 0.930 . S
H196 C187 0.929 . S
H197 C190 0.930 . S
C198 C199 1.351 . S
C198 N201 1.368 . S
C198 H203 0.931 . S
C199 C198 1.351 . S
C199 N200 1.373 . S
C199 H227 0.930 . S
N200 C199 1.373 . S
N200 C202 1.340 . S
N201 C198 1.368 . S
N201 C202 1.321 . S
N201 Co204 2.135 . S
C202 N200 1.340 . S
C202 N201 1.321 . S
C202 H226 0.930 . S
H203 C198 0.931 . S
Co204 N201 2.135 . S
Co204 N207 2.121 . S
Co204 O212 2.055 . S
Co204 O215 2.039 1_554 S
Co204 N218 2.140 . S
C205 O206 1.227 . S
C205 O215 1.265 1_554 S
O206 C205 1.227 . S
N207 Co204 2.121 . S
N207 C209 1.375 . S
N207 C210 1.313 . S
C208 C209 1.338 . S
C208 N211 1.377 . S
C208 H228 0.930 . S
C209 N207 1.375 . S
C209 C208 1.338 . S
C209 H213 0.931 . S
C210 N207 1.313 . S
C210 N211 1.344 . S
C210 H214 0.930 . S
N211 C208 1.377 . S
N211 C210 1.344 . S
O212 Co204 2.055 . S
O212 C216 1.253 . S
H213 C209 0.931 . S
H214 C210 0.930 . S
O215 Co204 2.039 1_556 S
O215 C205 1.265 1_556 S
C216 O212 1.253 . S
C216 O217 1.227 . S
O217 C216 1.227 . S
N218 Co204 2.140 . S
N218 C221 1.346 . S
N218 C222 1.345 . S
C219 C220 1.387 . S
C219 C223 1.391 . S
C220 C219 1.387 . S
C220 C221 1.369 . S
C220 H229 0.929 . S
C221 N218 1.346 . S
C221 C220 1.369 . S
C221 H224 0.928 . S
C222 N218 1.345 . S
C222 C223 1.371 . S
C222 H225 0.931 . S
C223 C219 1.391 . S
C223 C222 1.371 . S
C223 H230 0.930 . S
H224 C221 0.928 . S
H225 C222 0.931 . S
H226 C202 0.930 . S
H227 C199 0.930 . S
H228 C208 0.930 . S
H229 C220 0.929 . S
H230 C223 0.930 . S
C231 C232 1.351 . S
C231 N234 1.368 . S
C231 H236 0.931 . S
C232 C231 1.351 . S
C232 N233 1.373 . S
C232 H260 0.930 . S
N233 C232 1.373 . S
N233 C235 1.340 . S
N234 C231 1.368 . S
N234 C235 1.321 . S
N234 Co237 2.135 . S
C235 N233 1.340 . S
C235 N234 1.321 . S
C235 H259 0.930 . S
H236 C231 0.931 . S
Co237 N234 2.135 . S
Co237 N240 2.121 . S
Co237 O245 2.055 . S
Co237 O248 2.039 1_556 S
Co237 N251 2.140 . S
C238 O239 1.227 . S
C238 O248 1.265 1_556 S
O239 C238 1.227 . S
N240 Co237 2.121 . S
N240 C242 1.375 . S
N240 C243 1.313 . S
C241 C242 1.338 . S
C241 N244 1.377 . S
C241 H261 0.930 . S
C242 N240 1.375 . S
C242 C241 1.338 . S
C242 H246 0.931 . S
C243 N240 1.313 . S
C243 N244 1.344 . S
C243 H247 0.930 . S
N244 C241 1.377 . S
N244 C243 1.344 . S
O245 Co237 2.055 . S
O245 C249 1.253 . S
H246 C242 0.931 . S
H247 C243 0.930 . S
O248 Co237 2.039 1_554 S
O248 C238 1.265 1_554 S
C249 O245 1.253 . S
C249 O250 1.227 . S
O250 C249 1.227 . S
N251 Co237 2.140 . S
N251 C254 1.346 . S
N251 C255 1.345 . S
C252 C253 1.387 . S
C252 C256 1.391 . S
C253 C252 1.387 . S
C253 C254 1.369 . S
C253 H262 0.929 . S
C254 N251 1.346 . S
C254 C253 1.369 . S
C254 H257 0.928 . S
C255 N251 1.345 . S
C255 C256 1.371 . S
C255 H258 0.931 . S
C256 C252 1.391 . S
C256 C255 1.371 . S
C256 H263 0.930 . S
H257 C254 0.928 . S
H258 C255 0.931 . S
H259 C235 0.930 . S
H260 C232 0.930 . S
H261 C241 0.930 . S
H262 C253 0.929 . S
H263 C256 0.930 . S
C264 C265 1.351 . S
C264 N267 1.368 . S
C264 H269 0.931 . S
C265 C264 1.351 . S
C265 N266 1.373 . S
C265 H293 0.930 . S
N266 C265 1.373 . S
N266 C268 1.340 . S
N267 C264 1.368 . S
N267 C268 1.321 . S
N267 Co270 2.135 . S
C268 N266 1.340 . S
C268 N267 1.321 . S
C268 H292 0.930 . S
H269 C264 0.931 . S
Co270 N267 2.135 . S
Co270 N273 2.121 . S
Co270 O278 2.055 . S
Co270 O281 2.039 . S
Co270 N284 2.140 . S
C271 O272 1.227 . S
C271 O281 1.265 . S
O272 C271 1.227 . S
N273 Co270 2.121 . S
N273 C275 1.375 . S
N273 C276 1.313 . S
C274 C275 1.338 . S
C274 N277 1.377 . S
C274 H294 0.930 . S
C275 N273 1.375 . S
C275 C274 1.338 . S
C275 H279 0.931 . S
C276 N273 1.313 . S
C276 N277 1.344 . S
C276 H280 0.930 . S
N277 C274 1.377 . S
N277 C276 1.344 . S
O278 Co270 2.055 . S
O278 C282 1.253 . S
H279 C275 0.931 . S
H280 C276 0.930 . S
O281 Co270 2.039 . S
O281 C271 1.265 . S
C282 O278 1.253 . S
C282 O283 1.227 . S
O283 C282 1.227 . S
N284 Co270 2.140 . S
N284 C287 1.346 . S
N284 C288 1.345 . S
C285 C286 1.387 . S
C285 C289 1.391 . S
C286 C285 1.387 . S
C286 C287 1.369 . S
C286 H295 0.929 . S
C287 N284 1.346 . S
C287 C286 1.369 . S
C287 H290 0.928 . S
C288 N284 1.345 . S
C288 C289 1.371 . S
C288 H291 0.931 . S
C289 C285 1.391 . S
C289 C288 1.371 . S
C289 H296 0.930 . S
H290 C287 0.928 . S
H291 C288 0.931 . S
H292 C268 0.930 . S
H293 C265 0.930 . S
H294 C274 0.930 . S
H295 C286 0.929 . S
H296 C289 0.930 . S
C297 C298 1.351 . S
C297 N300 1.368 . S
C297 H302 0.931 . S
C298 C297 1.351 . S
C298 N299 1.373 . S
C298 H326 0.930 . S
N299 C298 1.373 . S
N299 C301 1.340 . S
N300 C297 1.368 . S
N300 C301 1.321 . S
N300 Co303 2.135 . S
C301 N299 1.340 . S
C301 N300 1.321 . S
C301 H325 0.930 . S
H302 C297 0.931 . S
Co303 N300 2.135 . S
Co303 N306 2.121 . S
Co303 O311 2.055 . S
Co303 O314 2.039 . S
Co303 N317 2.140 . S
C304 O305 1.227 . S
C304 O314 1.265 . S
O305 C304 1.227 . S
N306 Co303 2.121 . S
N306 C308 1.375 . S
N306 C309 1.313 . S
C307 C308 1.338 . S
C307 N310 1.377 . S
C307 H327 0.930 . S
C308 N306 1.375 . S
C308 C307 1.338 . S
C308 H312 0.931 . S
C309 N306 1.313 . S
C309 N310 1.344 . S
C309 H313 0.930 . S
N310 C307 1.377 . S
N310 C309 1.344 . S
O311 Co303 2.055 . S
O311 C315 1.253 . S
H312 C308 0.931 . S
H313 C309 0.930 . S
O314 Co303 2.039 . S
O314 C304 1.265 . S
C315 O311 1.253 . S
C315 O316 1.227 . S
O316 C315 1.227 . S
N317 Co303 2.140 . S
N317 C320 1.346 . S
N317 C321 1.345 . S
C318 C319 1.387 . S
C318 C322 1.391 . S
C319 C318 1.387 . S
C319 C320 1.369 . S
C319 H328 0.929 . S
C320 N317 1.346 . S
C320 C319 1.369 . S
C320 H323 0.928 . S
C321 N317 1.345 . S
C321 C322 1.371 . S
C321 H324 0.931 . S
C322 C318 1.391 . S
C322 C321 1.371 . S
C322 H329 0.930 . S
H323 C320 0.928 . S
H324 C321 0.931 . S
H325 C301 0.930 . S
H326 C298 0.930 . S
H327 C307 0.930 . S
H328 C319 0.929 . S
H329 C322 0.930 . S
C330 C331 1.351 . S
C330 N333 1.368 . S
C330 H335 0.931 . S
C331 C330 1.351 . S
C331 N332 1.373 . S
C331 H359 0.930 . S
N332 C331 1.373 . S
N332 C334 1.340 . S
N333 C330 1.368 . S
N333 C334 1.321 . S
N333 Co336 2.135 . S
C334 N332 1.340 . S
C334 N333 1.321 . S
C334 H358 0.930 . S
H335 C330 0.931 . S
Co336 N333 2.135 . S
Co336 N339 2.121 . S
Co336 O344 2.055 . S
Co336 O347 2.039 . S
Co336 N350 2.140 . S
C337 O338 1.227 . S
C337 O347 1.265 . S
O338 C337 1.227 . S
N339 Co336 2.121 . S
N339 C341 1.375 . S
N339 C342 1.313 . S
C340 C341 1.338 . S
C340 N343 1.377 . S
C340 H360 0.930 . S
C341 N339 1.375 . S
C341 C340 1.338 . S
C341 H345 0.931 . S
C342 N339 1.313 . S
C342 N343 1.344 . S
C342 H346 0.930 . S
N343 C340 1.377 . S
N343 C342 1.344 . S
O344 Co336 2.055 . S
O344 C348 1.253 . S
H345 C341 0.931 . S
H346 C342 0.930 . S
O347 Co336 2.039 . S
O347 C337 1.265 . S
C348 O344 1.253 . S
C348 O349 1.227 . S
O349 C348 1.227 . S
N350 Co336 2.140 . S
N350 C353 1.346 . S
N350 C354 1.345 . S
C351 C352 1.387 . S
C351 C355 1.391 . S
C352 C351 1.387 . S
C352 C353 1.369 . S
C352 H361 0.929 . S
C353 N350 1.346 . S
C353 C352 1.369 . S
C353 H356 0.928 . S
C354 N350 1.345 . S
C354 C355 1.371 . S
C354 H357 0.931 . S
C355 C351 1.391 . S
C355 C354 1.371 . S
C355 H362 0.930 . S
H356 C353 0.928 . S
H357 C354 0.931 . S
H358 C334 0.930 . S
H359 C331 0.930 . S
H360 C340 0.930 . S
H361 C352 0.929 . S
H362 C355 0.930 . S
C363 C364 1.351 . S
C363 N366 1.368 . S
C363 H368 0.931 . S
C364 C363 1.351 . S
C364 N365 1.373 . S
C364 H392 0.930 . S
N365 C364 1.373 . S
N365 C367 1.340 . S
N366 C363 1.368 . S
N366 C367 1.321 . S
N366 Co369 2.135 . S
C367 N365 1.340 . S
C367 N366 1.321 . S
C367 H391 0.930 . S
H368 C363 0.931 . S
Co369 N366 2.135 . S
Co369 N372 2.121 . S
Co369 O377 2.055 . S
Co369 O380 2.039 . S
Co369 N383 2.140 . S
C370 O371 1.227 . S
C370 O380 1.265 . S
O371 C370 1.227 . S
N372 Co369 2.121 . S
N372 C374 1.375 . S
N372 C375 1.313 . S
C373 C374 1.338 . S
C373 N376 1.377 . S
C373 H393 0.930 . S
C374 N372 1.375 . S
C374 C373 1.338 . S
C374 H378 0.931 . S
C375 N372 1.313 . S
C375 N376 1.344 . S
C375 H379 0.930 . S
N376 C373 1.377 . S
N376 C375 1.344 . S
O377 Co369 2.055 . S
O377 C381 1.253 . S
H378 C374 0.931 . S
H379 C375 0.930 . S
O380 Co369 2.039 . S
O380 C370 1.265 . S
C381 O377 1.253 . S
C381 O382 1.227 . S
O382 C381 1.227 . S
N383 Co369 2.140 . S
N383 C386 1.346 . S
N383 C387 1.345 . S
C384 C385 1.387 . S
C384 C388 1.391 . S
C385 C384 1.387 . S
C385 C386 1.369 . S
C385 H394 0.929 . S
C386 N383 1.346 . S
C386 C385 1.369 . S
C386 H389 0.928 . S
C387 N383 1.345 . S
C387 C388 1.371 . S
C387 H390 0.931 . S
C388 C384 1.391 . S
C388 C387 1.371 . S
C388 H395 0.930 . S
H389 C386 0.928 . S
H390 C387 0.931 . S
H391 C367 0.930 . S
H392 C364 0.930 . S
H393 C373 0.930 . S
H394 C385 0.929 . S
H395 C388 0.930 . S
C396 C397 1.351 . S
C396 N399 1.368 . S
C396 H401 0.931 . S
C397 C396 1.351 . S
C397 N398 1.373 . S
C397 H425 0.930 . S
N398 C397 1.373 . S
N398 C400 1.340 . S
N399 C396 1.368 . S
N399 C400 1.321 . S
N399 Co402 2.135 . S
C400 N398 1.340 . S
C400 N399 1.321 . S
C400 H424 0.930 . S
H401 C396 0.931 . S
Co402 N399 2.135 . S
Co402 N405 2.121 . S
Co402 O410 2.055 . S
Co402 O413 2.039 . S
Co402 N416 2.140 . S
C403 O404 1.227 . S
C403 O413 1.265 . S
O404 C403 1.227 . S
N405 Co402 2.121 . S
N405 C407 1.375 . S
N405 C408 1.313 . S
C406 C407 1.338 . S
C406 N409 1.377 . S
C406 H426 0.930 . S
C407 N405 1.375 . S
C407 C406 1.338 . S
C407 H411 0.931 . S
C408 N405 1.313 . S
C408 N409 1.344 . S
C408 H412 0.930 . S
N409 C406 1.377 . S
N409 C408 1.344 . S
O410 Co402 2.055 . S
O410 C414 1.253 . S
H411 C407 0.931 . S
H412 C408 0.930 . S
O413 Co402 2.039 . S
O413 C403 1.265 . S
C414 O410 1.253 . S
C414 O415 1.227 . S
O415 C414 1.227 . S
N416 Co402 2.140 . S
N416 C419 1.346 . S
N416 C420 1.345 . S
C417 C418 1.387 . S
C417 C421 1.391 . S
C418 C417 1.387 . S
C418 C419 1.369 . S
C418 H427 0.929 . S
C419 N416 1.346 . S
C419 C418 1.369 . S
C419 H422 0.928 . S
C420 N416 1.345 . S
C420 C421 1.371 . S
C420 H423 0.931 . S
C421 C417 1.391 . S
C421 C420 1.371 . S
C421 H428 0.930 . S
H422 C419 0.928 . S
H423 C420 0.931 . S
H424 C400 0.930 . S
H425 C397 0.930 . S
H426 C406 0.930 . S
H427 C418 0.929 . S
H428 C421 0.930 . S
C429 C430 1.351 . S
C429 N432 1.368 . S
C429 H434 0.931 . S
C430 C429 1.351 . S
C430 N431 1.373 . S
C430 H458 0.930 . S
N431 C430 1.373 . S
N431 C433 1.340 . S
N432 C429 1.368 . S
N432 C433 1.321 . S
N432 Co435 2.135 . S
C433 N431 1.340 . S
C433 N432 1.321 . S
C433 H457 0.930 . S
H434 C429 0.931 . S
Co435 N432 2.135 . S
Co435 N438 2.121 . S
Co435 O443 2.055 . S
Co435 O446 2.039 . S
Co435 N449 2.140 . S
C436 O437 1.227 . S
C436 O446 1.265 . S
O437 C436 1.227 . S
N438 Co435 2.121 . S
N438 C440 1.375 . S
N438 C441 1.313 . S
C439 C440 1.338 . S
C439 N442 1.377 . S
C439 H459 0.930 . S
C440 N438 1.375 . S
C440 C439 1.338 . S
C440 H444 0.931 . S
C441 N438 1.313 . S
C441 N442 1.344 . S
C441 H445 0.930 . S
N442 C439 1.377 . S
N442 C441 1.344 . S
O443 Co435 2.055 . S
O443 C447 1.253 . S
H444 C440 0.931 . S
H445 C441 0.930 . S
O446 Co435 2.039 . S
O446 C436 1.265 . S
C447 O443 1.253 . S
C447 O448 1.227 . S
O448 C447 1.227 . S
N449 Co435 2.140 . S
N449 C452 1.346 . S
N449 C453 1.345 . S
C450 C451 1.387 . S
C450 C454 1.391 . S
C451 C450 1.387 . S
C451 C452 1.369 . S
C451 H460 0.929 . S
C452 N449 1.346 . S
C452 C451 1.369 . S
C452 H455 0.928 . S
C453 N449 1.345 . S
C453 C454 1.371 . S
C453 H456 0.931 . S
C454 C450 1.391 . S
C454 C453 1.371 . S
C454 H461 0.930 . S
H455 C452 0.928 . S
H456 C453 0.931 . S
H457 C433 0.930 . S
H458 C430 0.930 . S
H459 C439 0.930 . S
H460 C451 0.929 . S
H461 C454 0.930 . S
C462 C463 1.351 . S
C462 N465 1.368 . S
C462 H467 0.931 . S
C463 C462 1.351 . S
C463 N464 1.373 . S
C463 H491 0.930 . S
N464 C463 1.373 . S
N464 C466 1.340 . S
N465 C462 1.368 . S
N465 C466 1.321 . S
N465 Co468 2.135 . S
C466 N464 1.340 . S
C466 N465 1.321 . S
C466 H490 0.930 . S
H467 C462 0.931 . S
Co468 N465 2.135 . S
Co468 N471 2.121 . S
Co468 O476 2.055 . S
Co468 O479 2.039 . S
Co468 N482 2.140 . S
C469 O470 1.227 . S
C469 O479 1.265 . S
O470 C469 1.227 . S
N471 Co468 2.121 . S
N471 C473 1.375 . S
N471 C474 1.313 . S
C472 C473 1.338 . S
C472 N475 1.377 . S
C472 H492 0.930 . S
C473 N471 1.375 . S
C473 C472 1.338 . S
C473 H477 0.931 . S
C474 N471 1.313 . S
C474 N475 1.344 . S
C474 H478 0.930 . S
N475 C472 1.377 . S
N475 C474 1.344 . S
O476 Co468 2.055 . S
O476 C480 1.253 . S
H477 C473 0.931 . S
H478 C474 0.930 . S
O479 Co468 2.039 . S
O479 C469 1.265 . S
C480 O476 1.253 . S
C480 O481 1.227 . S
O481 C480 1.227 . S
N482 Co468 2.140 . S
N482 C485 1.346 . S
N482 C486 1.345 . S
C483 C484 1.387 . S
C483 C487 1.391 . S
C484 C483 1.387 . S
C484 C485 1.369 . S
C484 H493 0.929 . S
C485 N482 1.346 . S
C485 C484 1.369 . S
C485 H488 0.928 . S
C486 N482 1.345 . S
C486 C487 1.371 . S
C486 H489 0.931 . S
C487 C483 1.391 . S
C487 C486 1.371 . S
C487 H494 0.930 . S
H488 C485 0.928 . S
H489 C486 0.931 . S
H490 C466 0.930 . S
H491 C463 0.930 . S
H492 C472 0.930 . S
H493 C484 0.929 . S
H494 C487 0.930 . S
C495 C496 1.351 . S
C495 N498 1.368 . S
C495 H500 0.931 . S
C496 C495 1.351 . S
C496 N497 1.373 . S
C496 H524 0.930 . S
N497 C496 1.373 . S
N497 C499 1.340 . S
N498 C495 1.368 . S
N498 C499 1.321 . S
N498 Co501 2.135 . S
C499 N497 1.340 . S
C499 N498 1.321 . S
C499 H523 0.930 . S
H500 C495 0.931 . S
Co501 N498 2.135 . S
Co501 N504 2.121 . S
Co501 O509 2.055 . S
Co501 O512 2.039 . S
Co501 N515 2.140 . S
C502 O503 1.227 . S
C502 O512 1.265 . S
O503 C502 1.227 . S
N504 Co501 2.121 . S
N504 C506 1.375 . S
N504 C507 1.313 . S
C505 C506 1.338 . S
C505 N508 1.377 . S
C505 H525 0.930 . S
C506 N504 1.375 . S
C506 C505 1.338 . S
C506 H510 0.931 . S
C507 N504 1.313 . S
C507 N508 1.344 . S
C507 H511 0.930 . S
N508 C505 1.377 . S
N508 C507 1.344 . S
O509 Co501 2.055 . S
O509 C513 1.253 . S
H510 C506 0.931 . S
H511 C507 0.930 . S
O512 Co501 2.039 . S
O512 C502 1.265 . S
C513 O509 1.253 . S
C513 O514 1.227 . S
O514 C513 1.227 . S
N515 Co501 2.140 . S
N515 C518 1.346 . S
N515 C519 1.345 . S
C516 C517 1.387 . S
C516 C520 1.391 . S
C517 C516 1.387 . S
C517 C518 1.369 . S
C517 H526 0.929 . S
C518 N515 1.346 . S
C518 C517 1.369 . S
C518 H521 0.928 . S
C519 N515 1.345 . S
C519 C520 1.371 . S
C519 H522 0.931 . S
C520 C516 1.391 . S
C520 C519 1.371 . S
C520 H527 0.930 . S
H521 C518 0.928 . S
H522 C519 0.931 . S
H523 C499 0.930 . S
H524 C496 0.930 . S
H525 C505 0.930 . S
H526 C517 0.929 . S
H527 C520 0.930 . S
C528 C529 1.391 . S
C528 C530 1.394 . S
C528 H544 0.931 . S
C529 C528 1.391 . S
C529 C533 1.376 . S
C530 C528 1.394 . S
C530 C531 1.369 . S
C530 C534 1.531 . S
C531 C530 1.369 . S
C531 C532 1.410 . S
C531 C539 1.503 . S
C532 C531 1.410 . S
C532 C533 1.392 . S
C532 C535 1.511 . S
C533 C529 1.376 . S
C533 C532 1.392 . S
C533 H545 0.929 . S
C534 C530 1.531 . S
C534 H546 0.960 . S
C534 H547 0.962 . S
C534 H548 0.960 . S
C535 C532 1.511 . S
C535 H549 0.961 . S
C535 H550 0.961 . S
C535 H551 0.961 . S
C536 C537 1.370 . S
C536 C538 1.363 . S
C536 H552 0.931 . S
C537 C536 1.370 . S
C537 C541 1.408 . S
C538 C536 1.363 . S
C538 C539 1.370 . S
C538 C542 1.524 . S
C539 C531 1.503 . S
C539 C538 1.370 . S
C539 C540 1.403 . S
C540 C539 1.403 . S
C540 C541 1.404 . S
C540 C543 1.539 . S
C541 C537 1.408 . S
C541 C540 1.404 . S
C541 H553 0.930 . S
C542 C538 1.524 . S
C542 H554 0.956 . S
C542 H555 0.961 . S
C542 H556 0.961 . S
C543 C540 1.539 . S
C543 H557 0.958 . S
C543 H558 0.961 . S
C543 H559 0.960 . S
H544 C528 0.931 . S
H545 C533 0.929 . S
H546 C534 0.960 . S
H547 C534 0.962 . S
H548 C534 0.960 . S
H549 C535 0.961 . S
H550 C535 0.961 . S
H551 C535 0.961 . S
H552 C536 0.931 . S
H553 C541 0.930 . S
H554 C542 0.956 . S
H555 C542 0.961 . S
H556 C542 0.961 . S
H557 C543 0.958 . S
H558 C543 0.961 . S
H559 C543 0.960 . S
C560 C561 1.391 . S
C560 C562 1.394 . S
C560 H576 0.931 . S
C561 C560 1.391 . S
C561 C565 1.376 . S
C562 C560 1.394 . S
C562 C563 1.369 . S
C562 C566 1.531 . S
C563 C562 1.369 . S
C563 C564 1.410 . S
C563 C571 1.503 . S
C564 C563 1.410 . S
C564 C565 1.392 . S
C564 C567 1.511 . S
C565 C561 1.376 . S
C565 C564 1.392 . S
C565 H577 0.929 . S
C566 C562 1.531 . S
C566 H578 0.960 . S
C566 H579 0.962 . S
C566 H580 0.960 . S
C567 C564 1.511 . S
C567 H581 0.961 . S
C567 H582 0.961 . S
C567 H583 0.961 . S
C568 C569 1.370 . S
C568 C570 1.363 . S
C568 H584 0.931 . S
C569 C568 1.370 . S
C569 C573 1.408 . S
C570 C568 1.363 . S
C570 C571 1.370 . S
C570 C574 1.524 . S
C571 C563 1.503 . S
C571 C570 1.370 . S
C571 C572 1.403 . S
C572 C571 1.403 . S
C572 C573 1.404 . S
C572 C575 1.539 . S
C573 C569 1.408 . S
C573 C572 1.404 . S
C573 H585 0.930 . S
C574 C570 1.524 . S
C574 H586 0.956 . S
C574 H587 0.961 . S
C574 H588 0.961 . S
C575 C572 1.539 . S
C575 H589 0.958 . S
C575 H590 0.961 . S
C575 H591 0.960 . S
H576 C560 0.931 . S
H577 C565 0.929 . S
H578 C566 0.960 . S
H579 C566 0.962 . S
H580 C566 0.960 . S
H581 C567 0.961 . S
H582 C567 0.961 . S
H583 C567 0.961 . S
H584 C568 0.931 . S
H585 C573 0.930 . S
H586 C574 0.956 . S
H587 C574 0.961 . S
H588 C574 0.961 . S
H589 C575 0.958 . S
H590 C575 0.961 . S
H591 C575 0.960 . S
C592 C593 1.391 . S
C592 C594 1.394 . S
C592 H608 0.931 . S
C593 C592 1.391 . S
C593 C597 1.376 . S
C594 C592 1.394 . S
C594 C595 1.369 . S
C594 C598 1.531 . S
C595 C594 1.369 . S
C595 C596 1.410 . S
C595 C603 1.503 . S
C596 C595 1.410 . S
C596 C597 1.392 . S
C596 C599 1.511 . S
C597 C593 1.376 . S
C597 C596 1.392 . S
C597 H609 0.929 . S
C598 C594 1.531 . S
C598 H610 0.960 . S
C598 H611 0.962 . S
C598 H612 0.960 . S
C599 C596 1.511 . S
C599 H613 0.961 . S
C599 H614 0.961 . S
C599 H615 0.961 . S
C600 C601 1.370 . S
C600 C602 1.363 . S
C600 H616 0.931 . S
C601 C600 1.370 . S
C601 C605 1.408 . S
C602 C600 1.363 . S
C602 C603 1.370 . S
C602 C606 1.524 . S
C603 C595 1.503 . S
C603 C602 1.370 . S
C603 C604 1.403 . S
C604 C603 1.403 . S
C604 C605 1.404 . S
C604 C607 1.539 . S
C605 C601 1.408 . S
C605 C604 1.404 . S
C605 H617 0.930 . S
C606 C602 1.524 . S
C606 H618 0.956 . S
C606 H619 0.961 . S
C606 H620 0.961 . S
C607 C604 1.539 . S
C607 H621 0.958 . S
C607 H622 0.961 . S
C607 H623 0.960 . S
H608 C592 0.931 . S
H609 C597 0.929 . S
H610 C598 0.960 . S
H611 C598 0.962 . S
H612 C598 0.960 . S
H613 C599 0.961 . S
H614 C599 0.961 . S
H615 C599 0.961 . S
H616 C600 0.931 . S
H617 C605 0.930 . S
H618 C606 0.956 . S
H619 C606 0.961 . S
H620 C606 0.961 . S
H621 C607 0.958 . S
H622 C607 0.961 . S
H623 C607 0.960 . S
C624 C625 1.391 . S
C624 C626 1.394 . S
C624 H640 0.931 . S
C625 C624 1.391 . S
C625 C629 1.376 . S
C626 C624 1.394 . S
C626 C627 1.369 . S
C626 C630 1.531 . S
C627 C626 1.369 . S
C627 C628 1.410 . S
C627 C635 1.503 . S
C628 C627 1.410 . S
C628 C629 1.392 . S
C628 C631 1.511 . S
C629 C625 1.376 . S
C629 C628 1.392 . S
C629 H641 0.929 . S
C630 C626 1.531 . S
C630 H642 0.960 . S
C630 H643 0.962 . S
C630 H644 0.960 . S
C631 C628 1.511 . S
C631 H645 0.961 . S
C631 H646 0.961 . S
C631 H647 0.961 . S
C632 C633 1.370 . S
C632 C634 1.363 . S
C632 H648 0.931 . S
C633 C632 1.370 . S
C633 C637 1.408 . S
C634 C632 1.363 . S
C634 C635 1.370 . S
C634 C638 1.524 . S
C635 C627 1.503 . S
C635 C634 1.370 . S
C635 C636 1.403 . S
C636 C635 1.403 . S
C636 C637 1.404 . S
C636 C639 1.539 . S
C637 C633 1.408 . S
C637 C636 1.404 . S
C637 H649 0.930 . S
C638 C634 1.524 . S
C638 H650 0.956 . S
C638 H651 0.961 . S
C638 H652 0.961 . S
C639 C636 1.539 . S
C639 H653 0.958 . S
C639 H654 0.961 . S
C639 H655 0.960 . S
H640 C624 0.931 . S
H641 C629 0.929 . S
H642 C630 0.960 . S
H643 C630 0.962 . S
H644 C630 0.960 . S
H645 C631 0.961 . S
H646 C631 0.961 . S
H647 C631 0.961 . S
H648 C632 0.931 . S
H649 C637 0.930 . S
H650 C638 0.956 . S
H651 C638 0.961 . S
H652 C638 0.961 . S
H653 C639 0.958 . S
H654 C639 0.961 . S
H655 C639 0.960 . S
C656 C657 1.391 . S
C656 C658 1.394 . S
C656 H672 0.931 . S
C657 C656 1.391 . S
C657 C661 1.376 . S
C658 C656 1.394 . S
C658 C659 1.369 . S
C658 C662 1.531 . S
C659 C658 1.369 . S
C659 C660 1.410 . S
C659 C667 1.503 . S
C660 C659 1.410 . S
C660 C661 1.392 . S
C660 C663 1.511 . S
C661 C657 1.376 . S
C661 C660 1.392 . S
C661 H673 0.929 1_556 S
C662 C658 1.531 . S
C662 H674 0.960 . S
C662 H675 0.962 . S
C662 H676 0.960 . S
C663 C660 1.511 . S
C663 H677 0.961 . S
C663 H678 0.961 . S
C663 H679 0.961 . S
C664 C665 1.370 . S
C664 C666 1.363 . S
C664 H680 0.931 . S
C665 C664 1.370 . S
C665 C669 1.408 . S
C666 C664 1.363 . S
C666 C667 1.370 . S
C666 C670 1.524 . S
C667 C659 1.503 . S
C667 C666 1.370 . S
C667 C668 1.403 . S
C668 C667 1.403 . S
C668 C669 1.404 . S
C668 C671 1.539 . S
C669 C665 1.408 . S
C669 C668 1.404 . S
C669 H681 0.930 . S
C670 C666 1.524 . S
C670 H682 0.956 . S
C670 H683 0.961 . S
C670 H684 0.961 . S
C671 C668 1.539 . S
C671 H685 0.958 . S
C671 H686 0.961 . S
C671 H687 0.960 . S
H672 C656 0.931 . S
H673 C661 0.929 1_554 S
H674 C662 0.960 . S
H675 C662 0.962 . S
H676 C662 0.960 . S
H677 C663 0.961 . S
H678 C663 0.961 . S
H679 C663 0.961 . S
H680 C664 0.931 . S
H681 C669 0.930 . S
H682 C670 0.956 . S
H683 C670 0.961 . S
H684 C670 0.961 . S
H685 C671 0.958 . S
H686 C671 0.961 . S
H687 C671 0.960 . S
C688 C689 1.391 . S
C688 C690 1.394 . S
C688 H704 0.931 . S
C689 C688 1.391 . S
C689 C693 1.376 . S
C690 C688 1.394 . S
C690 C691 1.369 . S
C690 C694 1.531 . S
C691 C690 1.369 . S
C691 C692 1.410 . S
C691 C699 1.503 . S
C692 C691 1.410 . S
C692 C693 1.392 . S
C692 C695 1.511 . S
C693 C689 1.376 . S
C693 C692 1.392 . S
C693 H705 0.929 . S
C694 C690 1.531 . S
C694 H706 0.960 . S
C694 H707 0.962 . S
C694 H708 0.960 . S
C695 C692 1.511 . S
C695 H709 0.961 . S
C695 H710 0.961 . S
C695 H711 0.961 . S
C696 C697 1.370 . S
C696 C698 1.363 . S
C696 H712 0.931 . S
C697 C696 1.370 . S
C697 C701 1.408 . S
C698 C696 1.363 . S
C698 C699 1.370 . S
C698 C702 1.524 . S
C699 C691 1.503 . S
C699 C698 1.370 . S
C699 C700 1.403 . S
C700 C699 1.403 . S
C700 C701 1.404 . S
C700 C703 1.539 . S
C701 C697 1.408 . S
C701 C700 1.404 . S
C701 H713 0.930 . S
C702 C698 1.524 . S
C702 H714 0.956 . S
C702 H715 0.961 . S
C702 H716 0.961 . S
C703 C700 1.539 . S
C703 H717 0.958 . S
C703 H718 0.961 . S
C703 H719 0.960 . S
H704 C688 0.931 . S
H705 C693 0.929 . S
H706 C694 0.960 . S
H707 C694 0.962 . S
H708 C694 0.960 . S
H709 C695 0.961 . S
H710 C695 0.961 . S
H711 C695 0.961 . S
H712 C696 0.931 . S
H713 C701 0.930 . S
H714 C702 0.956 . S
H715 C702 0.961 . S
H716 C702 0.961 . S
H717 C703 0.958 . S
H718 C703 0.961 . S
H719 C703 0.960 . S
C720 C721 1.391 . S
C720 C722 1.394 . S
C720 H736 0.931 . S
C721 C720 1.391 . S
C721 C725 1.376 . S
C722 C720 1.394 . S
C722 C723 1.369 . S
C722 C726 1.531 . S
C723 C722 1.369 . S
C723 C724 1.410 . S
C723 C731 1.503 . S
C724 C723 1.410 . S
C724 C725 1.392 . S
C724 C727 1.511 . S
C725 C721 1.376 . S
C725 C724 1.392 . S
C725 H737 0.929 1_556 S
C726 C722 1.531 . S
C726 H738 0.960 . S
C726 H739 0.962 . S
C726 H740 0.960 . S
C727 C724 1.511 . S
C727 H741 0.961 . S
C727 H742 0.961 . S
C727 H743 0.961 . S
C728 C729 1.370 . S
C728 C730 1.363 . S
C728 H744 0.931 . S
C729 C728 1.370 . S
C729 C733 1.408 . S
C730 C728 1.363 . S
C730 C731 1.370 . S
C730 C734 1.524 . S
C731 C723 1.503 . S
C731 C730 1.370 . S
C731 C732 1.403 . S
C732 C731 1.403 . S
C732 C733 1.404 . S
C732 C735 1.539 . S
C733 C729 1.408 . S
C733 C732 1.404 . S
C733 H745 0.930 . S
C734 C730 1.524 . S
C734 H746 0.956 . S
C734 H747 0.961 . S
C734 H748 0.961 . S
C735 C732 1.539 . S
C735 H749 0.958 . S
C735 H750 0.961 . S
C735 H751 0.960 . S
H736 C720 0.931 . S
H737 C725 0.929 1_554 S
H738 C726 0.960 . S
H739 C726 0.962 . S
H740 C726 0.960 . S
H741 C727 0.961 . S
H742 C727 0.961 . S
H743 C727 0.961 . S
H744 C728 0.931 . S
H745 C733 0.930 . S
H746 C734 0.956 . S
H747 C734 0.961 . S
H748 C734 0.961 . S
H749 C735 0.958 . S
H750 C735 0.961 . S
H751 C735 0.960 . S
C752 C753 1.391 . S
C752 C754 1.394 . S
C752 H768 0.931 . S
C753 C752 1.391 . S
C753 C757 1.376 . S
C754 C752 1.394 . S
C754 C755 1.369 . S
C754 C758 1.531 . S
C755 C754 1.369 . S
C755 C756 1.410 . S
C755 C763 1.503 . S
C756 C755 1.410 . S
C756 C757 1.392 . S
C756 C759 1.511 . S
C757 C753 1.376 . S
C757 C756 1.392 . S
C757 H769 0.929 . S
C758 C754 1.531 . S
C758 H770 0.960 . S
C758 H771 0.962 . S
C758 H772 0.960 . S
C759 C756 1.511 . S
C759 H773 0.961 . S
C759 H774 0.961 . S
C759 H775 0.961 . S
C760 C761 1.370 . S
C760 C762 1.363 . S
C760 H776 0.931 . S
C761 C760 1.370 . S
C761 C765 1.408 . S
C762 C760 1.363 . S
C762 C763 1.370 . S
C762 C766 1.524 . S
C763 C755 1.503 . S
C763 C762 1.370 . S
C763 C764 1.403 . S
C764 C763 1.403 . S
C764 C765 1.404 . S
C764 C767 1.539 . S
C765 C761 1.408 . S
C765 C764 1.404 . S
C765 H777 0.930 . S
C766 C762 1.524 . S
C766 H778 0.956 . S
C766 H779 0.961 . S
C766 H780 0.961 . S
C767 C764 1.539 . S
C767 H781 0.958 . S
C767 H782 0.961 . S
C767 H783 0.960 . S
H768 C752 0.931 . S
H769 C757 0.929 . S
H770 C758 0.960 . S
H771 C758 0.962 . S
H772 C758 0.960 . S
H773 C759 0.961 . S
H774 C759 0.961 . S
H775 C759 0.961 . S
H776 C760 0.931 . S
H777 C765 0.930 . S
H778 C766 0.956 . S
H779 C766 0.961 . S
H780 C766 0.961 . S
H781 C767 0.958 . S
H782 C767 0.961 . S
H783 C767 0.960 . S
C784 C785 1.391 . S
C784 C786 1.394 . S
C784 H800 0.931 . S
C785 C784 1.391 . S
C785 C789 1.376 . S
C786 C784 1.394 . S
C786 C787 1.369 . S
C786 C790 1.531 . S
C787 C786 1.369 . S
C787 C788 1.410 . S
C787 C795 1.503 . S
C788 C787 1.410 . S
C788 C789 1.392 . S
C788 C791 1.511 . S
C789 C785 1.376 . S
C789 C788 1.392 . S
C789 H801 0.929 . S
C790 C786 1.531 . S
C790 H802 0.960 . S
C790 H803 0.962 . S
C790 H804 0.960 . S
C791 C788 1.511 . S
C791 H805 0.961 . S
C791 H806 0.961 . S
C791 H807 0.961 . S
C792 C793 1.370 . S
C792 C794 1.363 . S
C792 H808 0.931 . S
C793 C792 1.370 . S
C793 C797 1.408 . S
C794 C792 1.363 . S
C794 C795 1.370 . S
C794 C798 1.524 . S
C795 C787 1.503 . S
C795 C794 1.370 . S
C795 C796 1.403 . S
C796 C795 1.403 . S
C796 C797 1.404 . S
C796 C799 1.539 . S
C797 C793 1.408 . S
C797 C796 1.404 . S
C797 H809 0.930 . S
C798 C794 1.524 . S
C798 H810 0.956 . S
C798 H811 0.961 . S
C798 H812 0.961 . S
C799 C796 1.539 . S
C799 H813 0.958 . S
C799 H814 0.961 . S
C799 H815 0.960 . S
H800 C784 0.931 . S
H801 C789 0.929 . S
H802 C790 0.960 . S
H803 C790 0.962 . S
H804 C790 0.960 . S
H805 C791 0.961 . S
H806 C791 0.961 . S
H807 C791 0.961 . S
H808 C792 0.931 . S
H809 C797 0.930 . S
H810 C798 0.956 . S
H811 C798 0.961 . S
H812 C798 0.961 . S
H813 C799 0.958 . S
H814 C799 0.961 . S
H815 C799 0.960 . S
C816 C817 1.391 . S
C816 C818 1.394 . S
C816 H832 0.931 . S
C817 C816 1.391 . S
C817 C821 1.376 . S
C818 C816 1.394 . S
C818 C819 1.369 . S
C818 C822 1.531 . S
C819 C818 1.369 . S
C819 C820 1.410 . S
C819 C827 1.503 . S
C820 C819 1.410 . S
C820 C821 1.392 . S
C820 C823 1.511 . S
C821 C817 1.376 . S
C821 C820 1.392 . S
C821 H833 0.929 . S
C822 C818 1.531 . S
C822 H834 0.960 . S
C822 H835 0.962 . S
C822 H836 0.960 . S
C823 C820 1.511 . S
C823 H837 0.961 . S
C823 H838 0.961 . S
C823 H839 0.961 . S
C824 C825 1.370 . S
C824 C826 1.363 . S
C824 H840 0.931 . S
C825 C824 1.370 . S
C825 C829 1.408 . S
C826 C824 1.363 . S
C826 C827 1.370 . S
C826 C830 1.524 . S
C827 C819 1.503 . S
C827 C826 1.370 . S
C827 C828 1.403 . S
C828 C827 1.403 . S
C828 C829 1.404 . S
C828 C831 1.539 . S
C829 C825 1.408 . S
C829 C828 1.404 . S
C829 H841 0.930 . S
C830 C826 1.524 . S
C830 H842 0.956 . S
C830 H843 0.961 . S
C830 H844 0.961 . S
C831 C828 1.539 . S
C831 H845 0.958 . S
C831 H846 0.961 . S
C831 H847 0.960 . S
H832 C816 0.931 . S
H833 C821 0.929 . S
H834 C822 0.960 . S
H835 C822 0.962 . S
H836 C822 0.960 . S
H837 C823 0.961 . S
H838 C823 0.961 . S
H839 C823 0.961 . S
H840 C824 0.931 . S
H841 C829 0.930 . S
H842 C830 0.956 . S
H843 C830 0.961 . S
H844 C830 0.961 . S
H845 C831 0.958 . S
H846 C831 0.961 . S
H847 C831 0.960 . S
C848 C849 1.391 . S
C848 C850 1.394 . S
C848 H864 0.931 . S
C849 C848 1.391 . S
C849 C853 1.376 . S
C850 C848 1.394 . S
C850 C851 1.369 . S
C850 C854 1.531 . S
C851 C850 1.369 . S
C851 C852 1.410 . S
C851 C859 1.503 . S
C852 C851 1.410 . S
C852 C853 1.392 . S
C852 C855 1.511 . S
C853 C849 1.376 . S
C853 C852 1.392 . S
C853 H865 0.929 . S
C854 C850 1.531 . S
C854 H866 0.960 . S
C854 H867 0.962 . S
C854 H868 0.960 . S
C855 C852 1.511 . S
C855 H869 0.961 . S
C855 H870 0.961 . S
C855 H871 0.961 . S
C856 C857 1.370 . S
C856 C858 1.363 . S
C856 H872 0.931 . S
C857 C856 1.370 . S
C857 C861 1.408 . S
C858 C856 1.363 . S
C858 C859 1.370 . S
C858 C862 1.524 . S
C859 C851 1.503 . S
C859 C858 1.370 . S
C859 C860 1.403 . S
C860 C859 1.403 . S
C860 C861 1.404 . S
C860 C863 1.539 . S
C861 C857 1.408 . S
C861 C860 1.404 . S
C861 H873 0.930 . S
C862 C858 1.524 . S
C862 H874 0.956 . S
C862 H875 0.961 . S
C862 H876 0.961 . S
C863 C860 1.539 . S
C863 H877 0.958 . S
C863 H878 0.961 1_554 S
C863 H879 0.960 . S
H864 C848 0.931 . S
H865 C853 0.929 . S
H866 C854 0.960 . S
H867 C854 0.962 . S
H868 C854 0.960 . S
H869 C855 0.961 . S
H870 C855 0.961 . S
H871 C855 0.961 . S
H872 C856 0.931 . S
H873 C861 0.930 . S
H874 C862 0.956 . S
H875 C862 0.961 . S
H876 C862 0.961 . S
H877 C863 0.958 . S
H878 C863 0.961 1_556 S
H879 C863 0.960 . S
C880 C881 1.391 . S
C880 C882 1.394 . S
C880 H896 0.931 . S
C881 C880 1.391 . S
C881 C885 1.376 . S
C882 C880 1.394 . S
C882 C883 1.369 . S
C882 C886 1.531 . S
C883 C882 1.369 . S
C883 C884 1.410 . S
C883 C891 1.503 . S
C884 C883 1.410 . S
C884 C885 1.392 . S
C884 C887 1.511 . S
C885 C881 1.376 . S
C885 C884 1.392 . S
C885 H897 0.929 . S
C886 C882 1.531 . S
C886 H898 0.960 . S
C886 H899 0.962 . S
C886 H900 0.960 . S
C887 C884 1.511 . S
C887 H901 0.961 . S
C887 H902 0.961 . S
C887 H903 0.961 . S
C888 C889 1.370 . S
C888 C890 1.363 . S
C888 H904 0.931 . S
C889 C888 1.370 . S
C889 C893 1.408 . S
C890 C888 1.363 . S
C890 C891 1.370 . S
C890 C894 1.524 . S
C891 C883 1.503 . S
C891 C890 1.370 . S
C891 C892 1.403 . S
C892 C891 1.403 . S
C892 C893 1.404 . S
C892 C895 1.539 . S
C893 C889 1.408 . S
C893 C892 1.404 . S
C893 H905 0.930 . S
C894 C890 1.524 . S
C894 H906 0.956 . S
C894 H907 0.961 . S
C894 H908 0.961 . S
C895 C892 1.539 . S
C895 H909 0.958 . S
C895 H910 0.961 . S
C895 H911 0.960 . S
H896 C880 0.931 . S
H897 C885 0.929 . S
H898 C886 0.960 . S
H899 C886 0.962 . S
H900 C886 0.960 . S
H901 C887 0.961 . S
H902 C887 0.961 . S
H903 C887 0.961 . S
H904 C888 0.931 . S
H905 C893 0.930 . S
H906 C894 0.956 . S
H907 C894 0.961 . S
H908 C894 0.961 . S
H909 C895 0.958 . S
H910 C895 0.961 . S
H911 C895 0.960 . S
C912 C913 1.391 . S
C912 C914 1.394 . S
C912 H928 0.931 . S
C913 C912 1.391 . S
C913 C917 1.376 . S
C914 C912 1.394 . S
C914 C915 1.369 . S
C914 C918 1.531 . S
C915 C914 1.369 . S
C915 C916 1.410 . S
C915 C923 1.503 . S
C916 C915 1.410 . S
C916 C917 1.392 . S
C916 C919 1.511 . S
C917 C913 1.376 . S
C917 C916 1.392 . S
C917 H929 0.929 . S
C918 C914 1.531 . S
C918 H930 0.960 . S
C918 H931 0.962 . S
C918 H932 0.960 . S
C919 C916 1.511 . S
C919 H933 0.961 . S
C919 H934 0.961 . S
C919 H935 0.961 . S
C920 C921 1.370 . S
C920 C922 1.363 . S
C920 H936 0.931 . S
C921 C920 1.370 . S
C921 C925 1.408 . S
C922 C920 1.363 . S
C922 C923 1.370 . S
C922 C926 1.524 . S
C923 C915 1.503 . S
C923 C922 1.370 . S
C923 C924 1.403 . S
C924 C923 1.403 . S
C924 C925 1.404 . S
C924 C927 1.539 . S
C925 C921 1.408 . S
C925 C924 1.404 . S
C925 H937 0.930 . S
C926 C922 1.524 . S
C926 H938 0.956 . S
C926 H939 0.961 . S
C926 H940 0.961 . S
C927 C924 1.539 . S
C927 H941 0.958 . S
C927 H942 0.961 . S
C927 H943 0.960 . S
H928 C912 0.931 . S
H929 C917 0.929 . S
H930 C918 0.960 . S
H931 C918 0.962 . S
H932 C918 0.960 . S
H933 C919 0.961 . S
H934 C919 0.961 . S
H935 C919 0.961 . S
H936 C920 0.931 . S
H937 C925 0.930 . S
H938 C926 0.956 . S
H939 C926 0.961 . S
H940 C926 0.961 . S
H941 C927 0.958 . S
H942 C927 0.961 . S
H943 C927 0.960 . S
C944 C945 1.391 . S
C944 C946 1.394 . S
C944 H960 0.931 . S
C945 C944 1.391 . S
C945 C949 1.376 . S
C946 C944 1.394 . S
C946 C947 1.369 . S
C946 C950 1.531 . S
C947 C946 1.369 . S
C947 C948 1.410 . S
C947 C955 1.503 . S
C948 C947 1.410 . S
C948 C949 1.392 . S
C948 C951 1.511 . S
C949 C945 1.376 . S
C949 C948 1.392 . S
C949 H961 0.929 . S
C950 C946 1.531 . S
C950 H962 0.960 . S
C950 H963 0.962 . S
C950 H964 0.960 . S
C951 C948 1.511 . S
C951 H965 0.961 . S
C951 H966 0.961 . S
C951 H967 0.961 . S
C952 C953 1.370 . S
C952 C954 1.363 . S
C952 H968 0.931 . S
C953 C952 1.370 . S
C953 C957 1.408 . S
C954 C952 1.363 . S
C954 C955 1.370 . S
C954 C958 1.524 . S
C955 C947 1.503 . S
C955 C954 1.370 . S
C955 C956 1.403 . S
C956 C955 1.403 . S
C956 C957 1.404 . S
C956 C959 1.539 . S
C957 C953 1.408 . S
C957 C956 1.404 . S
C957 H969 0.930 . S
C958 C954 1.524 . S
C958 H970 0.956 . S
C958 H971 0.961 . S
C958 H972 0.961 . S
C959 C956 1.539 . S
C959 H973 0.958 . S
C959 H974 0.961 . S
C959 H975 0.960 . S
H960 C944 0.931 . S
H961 C949 0.929 . S
H962 C950 0.960 . S
H963 C950 0.962 . S
H964 C950 0.960 . S
H965 C951 0.961 . S
H966 C951 0.961 . S
H967 C951 0.961 . S
H968 C952 0.931 . S
H969 C957 0.930 . S
H970 C958 0.956 . S
H971 C958 0.961 . S
H972 C958 0.961 . S
H973 C959 0.958 . S
H974 C959 0.961 . S
H975 C959 0.960 . S
C976 C977 1.391 . S
C976 C978 1.394 . S
C976 H992 0.931 . S
C977 C976 1.391 . S
C977 C981 1.376 . S
C978 C976 1.394 . S
C978 C979 1.369 . S
C978 C982 1.531 . S
C979 C978 1.369 . S
C979 C980 1.410 . S
C979 C987 1.503 . S
C980 C979 1.410 . S
C980 C981 1.392 . S
C980 C983 1.511 . S
C981 C977 1.376 . S
C981 C980 1.392 . S
C981 H993 0.929 . S
C982 C978 1.531 . S
C982 H994 0.960 . S
C982 H995 0.962 . S
C982 H996 0.960 . S
C983 C980 1.511 . S
C983 H997 0.961 . S
C983 H998 0.961 . S
C983 H999 0.961 . S
C984 C985 1.370 . S
C984 C986 1.363 . S
C984 H1000 0.931 . S
C985 C984 1.370 . S
C985 C989 1.408 . S
C986 C984 1.363 . S
C986 C987 1.370 . S
C986 C990 1.524 . S
C987 C979 1.503 . S
C987 C986 1.370 . S
C987 C988 1.403 . S
C988 C987 1.403 . S
C988 C989 1.404 . S
C988 C991 1.539 . S
C989 C985 1.408 . S
C989 C988 1.404 . S
C989 H1001 0.930 . S
C990 C986 1.524 . S
C990 H1002 0.956 . S
C990 H1003 0.961 . S
C990 H1004 0.961 . S
C991 C988 1.539 . S
C991 H1005 0.958 . S
C991 H1006 0.961 . S
C991 H1007 0.960 . S
H992 C976 0.931 . S
H993 C981 0.929 . S
H994 C982 0.960 . S
H995 C982 0.962 . S
H996 C982 0.960 . S
H997 C983 0.961 . S
H998 C983 0.961 . S
H999 C983 0.961 . S
H1000 C984 0.931 . S
H1001 C989 0.930 . S
H1002 C990 0.956 . S
H1003 C990 0.961 . S
H1004 C990 0.961 . S
H1005 C991 0.958 . S
H1006 C991 0.961 . S
H1007 C991 0.960 . S
C1008 C1009 1.391 . S
C1008 C1010 1.394 . S
C1008 H1024 0.931 . S
C1009 C1008 1.391 . S
C1009 C1013 1.376 . S
C1010 C1008 1.394 . S
C1010 C1011 1.369 . S
C1010 C1014 1.531 . S
C1011 C1010 1.369 . S
C1011 C1012 1.410 . S
C1011 C1019 1.503 . S
C1012 C1011 1.410 . S
C1012 C1013 1.392 . S
C1012 C1015 1.511 . S
C1013 C1009 1.376 . S
C1013 C1012 1.392 . S
C1013 H1025 0.929 . S
C1014 C1010 1.531 . S
C1014 H1026 0.960 . S
C1014 H1027 0.962 . S
C1014 H1028 0.960 . S
C1015 C1012 1.511 . S
C1015 H1029 0.961 . S
C1015 H1030 0.961 . S
C1015 H1031 0.961 . S
C1016 C1017 1.370 . S
C1016 C1018 1.363 . S
C1016 H1032 0.931 . S
C1017 C1016 1.370 . S
C1017 C1021 1.408 . S
C1018 C1016 1.363 . S
C1018 C1019 1.370 . S
C1018 C1022 1.524 . S
C1019 C1011 1.503 . S
C1019 C1018 1.370 . S
C1019 C1020 1.403 . S
C1020 C1019 1.403 . S
C1020 C1021 1.404 . S
C1020 C1023 1.539 . S
C1021 C1017 1.408 . S
C1021 C1020 1.404 . S
C1021 H1033 0.930 . S
C1022 C1018 1.524 . S
C1022 H1034 0.956 . S
C1022 H1035 0.961 . S
C1022 H1036 0.961 . S
C1023 C1020 1.539 . S
C1023 H1037 0.958 . S
C1023 H1038 0.961 . S
C1023 H1039 0.960 . S
H1024 C1008 0.931 . S
H1025 C1013 0.929 . S
H1026 C1014 0.960 . S
H1027 C1014 0.962 . S
H1028 C1014 0.960 . S
H1029 C1015 0.961 . S
H1030 C1015 0.961 . S
H1031 C1015 0.961 . S
H1032 C1016 0.931 . S
H1033 C1021 0.930 . S
H1034 C1022 0.956 . S
H1035 C1022 0.961 . S
H1036 C1022 0.961 . S
H1037 C1023 0.958 . S
H1038 C1023 0.961 . S
H1039 C1023 0.960 . S
C1040 C1041 1.391 . S
C1040 C1042 1.394 . S
C1040 H1056 0.931 . S
C1041 C1040 1.391 . S
C1041 C1045 1.376 . S
C1042 C1040 1.394 . S
C1042 C1043 1.369 . S
C1042 C1046 1.531 . S
C1043 C1042 1.369 . S
C1043 C1044 1.410 . S
C1043 C1051 1.503 . S
C1044 C1043 1.410 . S
C1044 C1045 1.392 . S
C1044 C1047 1.511 . S
C1045 C1041 1.376 . S
C1045 C1044 1.392 . S
C1045 H1057 0.929 . S
C1046 C1042 1.531 . S
C1046 H1058 0.960 . S
C1046 H1059 0.962 . S
C1046 H1060 0.960 . S
C1047 C1044 1.511 . S
C1047 H1061 0.961 . S
C1047 H1062 0.961 . S
C1047 H1063 0.961 . S
C1048 C1049 1.370 . S
C1048 C1050 1.363 . S
C1048 H1064 0.931 . S
C1049 C1048 1.370 . S
C1049 C1053 1.408 . S
C1050 C1048 1.363 . S
C1050 C1051 1.370 . S
C1050 C1054 1.524 . S
C1051 C1043 1.503 . S
C1051 C1050 1.370 . S
C1051 C1052 1.403 . S
C1052 C1051 1.403 . S
C1052 C1053 1.404 . S
C1052 C1055 1.539 . S
C1053 C1049 1.408 . S
C1053 C1052 1.404 . S
C1053 H1065 0.930 . S
C1054 C1050 1.524 . S
C1054 H1066 0.956 . S
C1054 H1067 0.961 . S
C1054 H1068 0.961 . S
C1055 C1052 1.539 . S
C1055 H1069 0.958 . S
C1055 H1070 0.961 . S
C1055 H1071 0.960 . S
H1056 C1040 0.931 . S
H1057 C1045 0.929 . S
H1058 C1046 0.960 . S
H1059 C1046 0.962 . S
H1060 C1046 0.960 . S
H1061 C1047 0.961 . S
H1062 C1047 0.961 . S
H1063 C1047 0.961 . S
H1064 C1048 0.931 . S
H1065 C1053 0.930 . S
H1066 C1054 0.956 . S
H1067 C1054 0.961 . S
H1068 C1054 0.961 . S
H1069 C1055 0.958 . S
H1070 C1055 0.961 . S
H1071 C1055 0.960 . S
C1072 C1073 1.391 . S
C1072 C1074 1.394 . S
C1072 H1088 0.931 . S
C1073 C1072 1.391 . S
C1073 C1077 1.376 . S
C1074 C1072 1.394 . S
C1074 C1075 1.369 . S
C1074 C1078 1.531 . S
C1075 C1074 1.369 . S
C1075 C1076 1.410 . S
C1075 C1083 1.503 . S
C1076 C1075 1.410 . S
C1076 C1077 1.392 . S
C1076 C1079 1.511 . S
C1077 C1073 1.376 . S
C1077 C1076 1.392 . S
C1077 H1089 0.929 . S
C1078 C1074 1.531 . S
C1078 H1090 0.960 . S
C1078 H1091 0.962 . S
C1078 H1092 0.960 . S
C1079 C1076 1.511 . S
C1079 H1093 0.961 . S
C1079 H1094 0.961 . S
C1079 H1095 0.961 . S
C1080 C1081 1.370 . S
C1080 C1082 1.363 . S
C1080 H1096 0.931 1_554 S
C1081 C1080 1.370 . S
C1081 C1085 1.408 . S
C1082 C1080 1.363 . S
C1082 C1083 1.370 . S
C1082 C1086 1.524 . S
C1083 C1075 1.503 . S
C1083 C1082 1.370 . S
C1083 C1084 1.403 . S
C1084 C1083 1.403 . S
C1084 C1085 1.404 . S
C1084 C1087 1.539 . S
C1085 C1081 1.408 . S
C1085 C1084 1.404 . S
C1085 H1097 0.930 . S
C1086 C1082 1.524 . S
C1086 H1098 0.956 . S
C1086 H1099 0.961 . S
C1086 H1100 0.961 . S
C1087 C1084 1.539 . S
C1087 H1101 0.958 . S
C1087 H1102 0.961 . S
C1087 H1103 0.960 . S
H1088 C1072 0.931 . S
H1089 C1077 0.929 . S
H1090 C1078 0.960 . S
H1091 C1078 0.962 . S
H1092 C1078 0.960 . S
H1093 C1079 0.961 . S
H1094 C1079 0.961 . S
H1095 C1079 0.961 . S
H1096 C1080 0.931 1_556 S
H1097 C1085 0.930 . S
H1098 C1086 0.956 . S
H1099 C1086 0.961 . S
H1100 C1086 0.961 . S
H1101 C1087 0.958 . S
H1102 C1087 0.961 . S
H1103 C1087 0.960 . S
C1104 C1105 1.391 . S
C1104 C1106 1.394 . S
C1104 H1120 0.931 . S
C1105 C1104 1.391 . S
C1105 C1109 1.376 . S
C1106 C1104 1.394 . S
C1106 C1107 1.369 . S
C1106 C1110 1.531 . S
C1107 C1106 1.369 . S
C1107 C1108 1.410 . S
C1107 C1115 1.503 . S
C1108 C1107 1.410 . S
C1108 C1109 1.392 . S
C1108 C1111 1.511 . S
C1109 C1105 1.376 . S
C1109 C1108 1.392 . S
C1109 H1121 0.929 1_556 S
C1110 C1106 1.531 . S
C1110 H1122 0.960 . S
C1110 H1123 0.962 . S
C1110 H1124 0.960 . S
C1111 C1108 1.511 . S
C1111 H1125 0.961 . S
C1111 H1126 0.961 . S
C1111 H1127 0.961 . S
C1112 C1113 1.370 . S
C1112 C1114 1.363 . S
C1112 H1128 0.931 . S
C1113 C1112 1.370 . S
C1113 C1117 1.408 . S
C1114 C1112 1.363 . S
C1114 C1115 1.370 . S
C1114 C1118 1.524 . S
C1115 C1107 1.503 . S
C1115 C1114 1.370 . S
C1115 C1116 1.403 . S
C1116 C1115 1.403 . S
C1116 C1117 1.404 . S
C1116 C1119 1.539 . S
C1117 C1113 1.408 . S
C1117 C1116 1.404 . S
C1117 H1129 0.930 . S
C1118 C1114 1.524 . S
C1118 H1130 0.956 . S
C1118 H1131 0.961 . S
C1118 H1132 0.961 . S
C1119 C1116 1.539 . S
C1119 H1133 0.958 . S
C1119 H1134 0.961 . S
C1119 H1135 0.960 . S
H1120 C1104 0.931 . S
H1121 C1109 0.929 1_554 S
H1122 C1110 0.960 . S
H1123 C1110 0.962 . S
H1124 C1110 0.960 . S
H1125 C1111 0.961 . S
H1126 C1111 0.961 . S
H1127 C1111 0.961 . S
H1128 C1112 0.931 . S
H1129 C1117 0.930 . S
H1130 C1118 0.956 . S
H1131 C1118 0.961 . S
H1132 C1118 0.961 . S
H1133 C1119 0.958 . S
H1134 C1119 0.961 . S
H1135 C1119 0.960 . S
C1136 C1137 1.391 . S
C1136 C1138 1.394 . S
C1136 H1152 0.931 . S
C1137 C1136 1.391 . S
C1137 C1141 1.376 . S
C1138 C1136 1.394 . S
C1138 C1139 1.369 . S
C1138 C1142 1.531 . S
C1139 C1138 1.369 . S
C1139 C1140 1.410 . S
C1139 C1147 1.503 . S
C1140 C1139 1.410 . S
C1140 C1141 1.392 . S
C1140 C1143 1.511 . S
C1141 C1137 1.376 . S
C1141 C1140 1.392 . S
C1141 H1153 0.929 . S
C1142 C1138 1.531 . S
C1142 H1154 0.960 . S
C1142 H1155 0.962 . S
C1142 H1156 0.960 . S
C1143 C1140 1.511 . S
C1143 H1157 0.961 . S
C1143 H1158 0.961 . S
C1143 H1159 0.961 . S
C1144 C1145 1.370 . S
C1144 C1146 1.363 . S
C1144 H1160 0.931 . S
C1145 C1144 1.370 . S
C1145 C1149 1.408 . S
C1146 C1144 1.363 . S
C1146 C1147 1.370 . S
C1146 C1150 1.524 . S
C1147 C1139 1.503 . S
C1147 C1146 1.370 . S
C1147 C1148 1.403 . S
C1148 C1147 1.403 . S
C1148 C1149 1.404 . S
C1148 C1151 1.539 . S
C1149 C1145 1.408 . S
C1149 C1148 1.404 . S
C1149 H1161 0.930 1_554 S
C1150 C1146 1.524 . S
C1150 H1162 0.956 . S
C1150 H1163 0.961 . S
C1150 H1164 0.961 . S
C1151 C1148 1.539 . S
C1151 H1165 0.958 . S
C1151 H1166 0.961 . S
C1151 H1167 0.960 . S
H1152 C1136 0.931 . S
H1153 C1141 0.929 . S
H1154 C1142 0.960 . S
H1155 C1142 0.962 . S
H1156 C1142 0.960 . S
H1157 C1143 0.961 . S
H1158 C1143 0.961 . S
H1159 C1143 0.961 . S
H1160 C1144 0.931 . S
H1161 C1149 0.930 1_556 S
H1162 C1150 0.956 . S
H1163 C1150 0.961 . S
H1164 C1150 0.961 . S
H1165 C1151 0.958 . S
H1166 C1151 0.961 . S
H1167 C1151 0.960 . S
C1168 C1169 1.391 . S
C1168 C1170 1.394 . S
C1168 H1184 0.931 . S
C1169 C1168 1.391 . S
C1169 C1173 1.376 . S
C1170 C1168 1.394 . S
C1170 C1171 1.369 . S
C1170 C1174 1.531 . S
C1171 C1170 1.369 . S
C1171 C1172 1.410 . S
C1171 C1179 1.503 . S
C1172 C1171 1.410 . S
C1172 C1173 1.392 . S
C1172 C1175 1.511 . S
C1173 C1169 1.376 . S
C1173 C1172 1.392 . S
C1173 H1185 0.929 . S
C1174 C1170 1.531 . S
C1174 H1186 0.960 . S
C1174 H1187 0.962 . S
C1174 H1188 0.960 . S
C1175 C1172 1.511 . S
C1175 H1189 0.961 . S
C1175 H1190 0.961 . S
C1175 H1191 0.961 . S
C1176 C1177 1.370 . S
C1176 C1178 1.363 . S
C1176 H1192 0.931 . S
C1177 C1176 1.370 . S
C1177 C1181 1.408 . S
C1178 C1176 1.363 . S
C1178 C1179 1.370 . S
C1178 C1182 1.524 . S
C1179 C1171 1.503 . S
C1179 C1178 1.370 . S
C1179 C1180 1.403 . S
C1180 C1179 1.403 . S
C1180 C1181 1.404 . S
C1180 C1183 1.539 . S
C1181 C1177 1.408 . S
C1181 C1180 1.404 . S
C1181 H1193 0.930 . S
C1182 C1178 1.524 . S
C1182 H1194 0.956 . S
C1182 H1195 0.961 . S
C1182 H1196 0.961 . S
C1183 C1180 1.539 . S
C1183 H1197 0.958 . S
C1183 H1198 0.961 . S
C1183 H1199 0.960 . S
H1184 C1168 0.931 . S
H1185 C1173 0.929 . S
H1186 C1174 0.960 . S
H1187 C1174 0.962 . S
H1188 C1174 0.960 . S
H1189 C1175 0.961 . S
H1190 C1175 0.961 . S
H1191 C1175 0.961 . S
H1192 C1176 0.931 . S
H1193 C1181 0.930 . S
H1194 C1182 0.956 . S
H1195 C1182 0.961 . S
H1196 C1182 0.961 . S
H1197 C1183 0.958 . S
H1198 C1183 0.961 . S
H1199 C1183 0.960 . S
C1200 C1201 1.391 . S
C1200 C1202 1.394 . S
C1200 H1216 0.931 . S
C1201 C1200 1.391 . S
C1201 C1205 1.376 . S
C1202 C1200 1.394 . S
C1202 C1203 1.369 . S
C1202 C1206 1.531 . S
C1203 C1202 1.369 . S
C1203 C1204 1.410 . S
C1203 C1211 1.503 . S
C1204 C1203 1.410 . S
C1204 C1205 1.392 . S
C1204 C1207 1.511 . S
C1205 C1201 1.376 . S
C1205 C1204 1.392 . S
C1205 H1217 0.929 . S
C1206 C1202 1.531 . S
C1206 H1218 0.960 . S
C1206 H1219 0.962 . S
C1206 H1220 0.960 . S
C1207 C1204 1.511 . S
C1207 H1221 0.961 . S
C1207 H1222 0.961 . S
C1207 H1223 0.961 . S
C1208 C1209 1.370 . S
C1208 C1210 1.363 . S
C1208 H1224 0.931 . S
C1209 C1208 1.370 . S
C1209 C1213 1.408 . S
C1210 C1208 1.363 . S
C1210 C1211 1.370 . S
C1210 C1214 1.524 . S
C1211 C1203 1.503 . S
C1211 C1210 1.370 . S
C1211 C1212 1.403 . S
C1212 C1211 1.403 . S
C1212 C1213 1.404 . S
C1212 C1215 1.539 . S
C1213 C1209 1.408 . S
C1213 C1212 1.404 . S
C1213 H1225 0.930 . S
C1214 C1210 1.524 . S
C1214 H1226 0.956 . S
C1214 H1227 0.961 . S
C1214 H1228 0.961 . S
C1215 C1212 1.539 . S
C1215 H1229 0.958 . S
C1215 H1230 0.961 . S
C1215 H1231 0.960 . S
H1216 C1200 0.931 . S
H1217 C1205 0.929 . S
H1218 C1206 0.960 . S
H1219 C1206 0.962 . S
H1220 C1206 0.960 . S
H1221 C1207 0.961 . S
H1222 C1207 0.961 . S
H1223 C1207 0.961 . S
H1224 C1208 0.931 . S
H1225 C1213 0.930 . S
H1226 C1214 0.956 . S
H1227 C1214 0.961 . S
H1228 C1214 0.961 . S
H1229 C1215 0.958 . S
H1230 C1215 0.961 . S
H1231 C1215 0.960 . S
C1232 C1233 1.391 . S
C1232 C1234 1.394 . S
C1232 H1248 0.931 . S
C1233 C1232 1.391 . S
C1233 C1237 1.376 . S
C1234 C1232 1.394 . S
C1234 C1235 1.369 . S
C1234 C1238 1.531 . S
C1235 C1234 1.369 . S
C1235 C1236 1.410 . S
C1235 C1243 1.503 . S
C1236 C1235 1.410 . S
C1236 C1237 1.392 . S
C1236 C1239 1.511 . S
C1237 C1233 1.376 . S
C1237 C1236 1.392 . S
C1237 H1249 0.929 . S
C1238 C1234 1.531 . S
C1238 H1250 0.960 . S
C1238 H1251 0.962 . S
C1238 H1252 0.960 . S
C1239 C1236 1.511 . S
C1239 H1253 0.961 . S
C1239 H1254 0.961 . S
C1239 H1255 0.961 . S
C1240 C1241 1.370 . S
C1240 C1242 1.363 . S
C1240 H1256 0.931 . S
C1241 C1240 1.370 . S
C1241 C1245 1.408 . S
C1242 C1240 1.363 . S
C1242 C1243 1.370 . S
C1242 C1246 1.524 . S
C1243 C1235 1.503 . S
C1243 C1242 1.370 . S
C1243 C1244 1.403 . S
C1244 C1243 1.403 . S
C1244 C1245 1.404 . S
C1244 C1247 1.539 . S
C1245 C1241 1.408 . S
C1245 C1244 1.404 . S
C1245 H1257 0.930 . S
C1246 C1242 1.524 . S
C1246 H1258 0.956 . S
C1246 H1259 0.961 . S
C1246 H1260 0.961 . S
C1247 C1244 1.539 . S
C1247 H1261 0.958 . S
C1247 H1262 0.961 . S
C1247 H1263 0.960 . S
H1248 C1232 0.931 . S
H1249 C1237 0.929 . S
H1250 C1238 0.960 . S
H1251 C1238 0.962 . S
H1252 C1238 0.960 . S
H1253 C1239 0.961 . S
H1254 C1239 0.961 . S
H1255 C1239 0.961 . S
H1256 C1240 0.931 . S
H1257 C1245 0.930 . S
H1258 C1246 0.956 . S
H1259 C1246 0.961 . S
H1260 C1246 0.961 . S
H1261 C1247 0.958 . S
H1262 C1247 0.961 . S
H1263 C1247 0.960 . S
C1264 C1265 1.391 . S
C1264 C1266 1.394 . S
C1264 H1280 0.931 . S
C1265 C1264 1.391 . S
C1265 C1269 1.376 . S
C1266 C1264 1.394 . S
C1266 C1267 1.369 . S
C1266 C1270 1.531 . S
C1267 C1266 1.369 . S
C1267 C1268 1.410 . S
C1267 C1275 1.503 . S
C1268 C1267 1.410 . S
C1268 C1269 1.392 . S
C1268 C1271 1.511 . S
C1269 C1265 1.376 . S
C1269 C1268 1.392 . S
C1269 H1281 0.929 . S
C1270 C1266 1.531 . S
C1270 H1282 0.960 . S
C1270 H1283 0.962 . S
C1270 H1284 0.960 . S
C1271 C1268 1.511 . S
C1271 H1285 0.961 . S
C1271 H1286 0.961 . S
C1271 H1287 0.961 . S
C1272 C1273 1.370 . S
C1272 C1274 1.363 . S
C1272 H1288 0.931 . S
C1273 C1272 1.370 . S
C1273 C1277 1.408 . S
C1274 C1272 1.363 . S
C1274 C1275 1.370 . S
C1274 C1278 1.524 . S
C1275 C1267 1.503 . S
C1275 C1274 1.370 . S
C1275 C1276 1.403 . S
C1276 C1275 1.403 . S
C1276 C1277 1.404 . S
C1276 C1279 1.539 . S
C1277 C1273 1.408 . S
C1277 C1276 1.404 . S
C1277 H1289 0.930 . S
C1278 C1274 1.524 . S
C1278 H1290 0.956 . S
C1278 H1291 0.961 . S
C1278 H1292 0.961 . S
C1279 C1276 1.539 . S
C1279 H1293 0.958 . S
C1279 H1294 0.961 . S
C1279 H1295 0.960 . S
H1280 C1264 0.931 . S
H1281 C1269 0.929 . S
H1282 C1270 0.960 . S
H1283 C1270 0.962 . S
H1284 C1270 0.960 . S
H1285 C1271 0.961 . S
H1286 C1271 0.961 . S
H1287 C1271 0.961 . S
H1288 C1272 0.931 . S
H1289 C1277 0.930 . S
H1290 C1278 0.956 . S
H1291 C1278 0.961 . S
H1292 C1278 0.961 . S
H1293 C1279 0.958 . S
H1294 C1279 0.961 . S
H1295 C1279 0.960 . S
C1296 C1297 1.395 . S
C1296 C1298 1.376 1_545 S
C1296 H1312 0.944 . S
C1297 C1296 1.395 . S
C1297 C1301 1.376 1_545 S
C1298 C1296 1.376 1_565 S
C1298 C1299 1.369 . S
C1298 C1302 1.531 . S
C1299 C1298 1.369 . S
C1299 C1300 1.410 . S
C1299 C1307 1.503 . S
C1300 C1299 1.410 . S
C1300 C1301 1.392 . S
C1300 C1303 1.511 . S
C1301 C1297 1.376 1_565 S
C1301 C1300 1.392 . S
C1301 H1313 0.929 . S
C1302 C1298 1.531 . S
C1302 H1314 0.960 . S
C1302 H1315 0.962 . S
C1302 H1316 0.960 . S
C1303 C1300 1.511 . S
C1303 H1317 0.961 . S
C1303 H1318 0.961 . S
C1303 H1319 0.961 . S
C1304 C1305 1.370 . S
C1304 C1306 1.363 . S
C1304 H1320 0.931 . S
C1305 C1304 1.370 . S
C1305 C1309 1.408 . S
C1306 C1304 1.363 . S
C1306 C1307 1.370 . S
C1306 C1310 1.524 . S
C1307 C1299 1.503 . S
C1307 C1306 1.370 . S
C1307 C1308 1.403 . S
C1308 C1307 1.403 . S
C1308 C1309 1.404 . S
C1308 C1311 1.539 . S
C1309 C1305 1.408 . S
C1309 C1308 1.404 . S
C1309 H1321 0.930 . S
C1310 C1306 1.524 . S
C1310 H1322 0.956 . S
C1310 H1323 0.961 . S
C1310 H1324 0.961 . S
C1311 C1308 1.539 . S
C1311 H1325 0.958 . S
C1311 H1326 0.961 . S
C1311 H1327 0.960 . S
H1312 C1296 0.944 . S
H1313 C1301 0.929 . S
H1314 C1302 0.960 . S
H1315 C1302 0.962 . S
H1316 C1302 0.960 . S
H1317 C1303 0.961 . S
H1318 C1303 0.961 . S
H1319 C1303 0.961 . S
H1320 C1304 0.931 . S
H1321 C1309 0.930 . S
H1322 C1310 0.956 . S
H1323 C1310 0.961 . S
H1324 C1310 0.961 . S
H1325 C1311 0.958 . S
H1326 C1311 0.961 . S
H1327 C1311 0.960 . S
C1328 C1329 1.391 . S
C1328 C1330 1.394 . S
C1328 H1344 0.931 . S
C1329 C1328 1.391 . S
C1329 C1333 1.376 . S
C1330 C1328 1.394 . S
C1330 C1331 1.369 . S
C1330 C1334 1.531 . S
C1331 C1330 1.369 . S
C1331 C1332 1.410 . S
C1331 C1339 1.503 . S
C1332 C1331 1.410 . S
C1332 C1333 1.392 . S
C1332 C1335 1.511 . S
C1333 C1329 1.376 . S
C1333 C1332 1.392 . S
C1333 H1345 0.929 . S
C1334 C1330 1.531 . S
C1334 H1346 0.960 . S
C1334 H1347 0.962 . S
C1334 H1348 0.960 . S
C1335 C1332 1.511 . S
C1335 H1349 0.961 . S
C1335 H1350 0.961 . S
C1335 H1351 0.961 . S
C1336 C1337 1.370 1_655 S
C1336 C1338 1.363 . S
C1336 H1352 0.931 . S
C1337 C1336 1.370 1_455 S
C1337 C1341 1.408 1_455 S
C1338 C1336 1.363 . S
C1338 C1339 1.370 . S
C1338 C1342 1.524 . S
C1339 C1331 1.503 . S
C1339 C1338 1.370 . S
C1339 C1340 1.403 . S
C1340 C1339 1.403 . S
C1340 C1341 1.404 . S
C1340 C1343 1.539 . S
C1341 C1337 1.408 1_655 S
C1341 C1340 1.404 . S
C1341 H1353 0.930 1_655 S
C1342 C1338 1.524 . S
C1342 H1354 0.956 . S
C1342 H1355 0.961 . S
C1342 H1356 0.961 . S
C1343 C1340 1.539 . S
C1343 H1357 0.958 . S
C1343 H1358 0.961 . S
C1343 H1359 0.960 . S
H1344 C1328 0.931 . S
H1345 C1333 0.929 . S
H1346 C1334 0.960 . S
H1347 C1334 0.962 . S
H1348 C1334 0.960 . S
H1349 C1335 0.961 . S
H1350 C1335 0.961 . S
H1351 C1335 0.961 . S
H1352 C1336 0.931 . S
H1353 C1341 0.930 1_455 S
H1354 C1342 0.956 . S
H1355 C1342 0.961 . S
H1356 C1342 0.961 . S
H1357 C1343 0.958 . S
H1358 C1343 0.961 . S
H1359 C1343 0.960 . S
C1360 C1361 1.391 1_545 S
C1360 C1362 1.395 . S
C1360 H1376 0.930 1_545 S
C1361 C1360 1.391 1_565 S
C1361 C1365 1.376 1_565 S
C1362 C1360 1.395 . S
C1362 C1363 1.369 . S
C1362 C1366 1.531 . S
C1363 C1362 1.369 . S
C1363 C1364 1.410 . S
C1363 C1371 1.503 . S
C1364 C1363 1.410 . S
C1364 C1365 1.392 . S
C1364 C1367 1.511 . S
C1365 C1361 1.376 1_545 S
C1365 C1364 1.392 . S
C1365 H1377 0.929 . S
C1366 C1362 1.531 . S
C1366 H1378 0.960 . S
C1366 H1379 0.962 . S
C1366 H1380 0.960 . S
C1367 C1364 1.511 . S
C1367 H1381 0.961 . S
C1367 H1382 0.961 . S
C1367 H1383 0.961 . S
C1368 C1369 1.370 . S
C1368 C1370 1.363 . S
C1368 H1384 0.931 . S
C1369 C1368 1.370 . S
C1369 C1373 1.408 . S
C1370 C1368 1.363 . S
C1370 C1371 1.370 . S
C1370 C1374 1.524 . S
C1371 C1363 1.503 . S
C1371 C1370 1.370 . S
C1371 C1372 1.403 . S
C1372 C1371 1.403 . S
C1372 C1373 1.404 . S
C1372 C1375 1.539 . S
C1373 C1369 1.408 . S
C1373 C1372 1.404 . S
C1373 H1385 0.930 . S
C1374 C1370 1.524 . S
C1374 H1386 0.956 . S
C1374 H1387 0.961 . S
C1374 H1388 0.961 . S
C1375 C1372 1.539 . S
C1375 H1389 0.958 . S
C1375 H1390 0.961 . S
C1375 H1391 0.960 . S
H1376 C1360 0.930 1_565 S
H1377 C1365 0.929 . S
H1378 C1366 0.960 . S
H1379 C1366 0.962 . S
H1380 C1366 0.960 . S
H1381 C1367 0.961 . S
H1382 C1367 0.961 . S
H1383 C1367 0.961 . S
H1384 C1368 0.931 . S
H1385 C1373 0.930 . S
H1386 C1374 0.956 . S
H1387 C1374 0.961 . S
H1388 C1374 0.961 . S
H1389 C1375 0.958 . S
H1390 C1375 0.961 . S
H1391 C1375 0.960 . S
C1392 C1393 1.391 . S
C1392 C1394 1.394 . S
C1392 H1408 0.931 . S
C1393 C1392 1.391 . S
C1393 C1397 1.376 . S
C1394 C1392 1.394 . S
C1394 C1395 1.369 . S
C1394 C1398 1.531 . S
C1395 C1394 1.369 . S
C1395 C1396 1.410 . S
C1395 C1403 1.503 . S
C1396 C1395 1.410 . S
C1396 C1397 1.392 . S
C1396 C1399 1.511 . S
C1397 C1393 1.376 . S
C1397 C1396 1.392 . S
C1397 H1409 0.929 . S
C1398 C1394 1.531 . S
C1398 H1410 0.960 . S
C1398 H1411 0.962 . S
C1398 H1412 0.960 . S
C1399 C1396 1.511 . S
C1399 H1413 0.961 . S
C1399 H1414 0.961 . S
C1399 H1415 0.961 . S
C1400 C1401 1.370 1_455 S
C1400 C1402 1.363 . S
C1400 H1416 0.931 1_455 S
C1401 C1400 1.370 1_655 S
C1401 C1405 1.408 1_655 S
C1402 C1400 1.363 . S
C1402 C1403 1.370 . S
C1402 C1406 1.524 . S
C1403 C1395 1.503 . S
C1403 C1402 1.370 . S
C1403 C1404 1.403 . S
C1404 C1403 1.403 . S
C1404 C1405 1.404 . S
C1404 C1407 1.539 . S
C1405 C1401 1.408 1_455 S
C1405 C1404 1.404 . S
C1405 H1417 0.930 . S
C1406 C1402 1.524 . S
C1406 H1418 0.956 . S
C1406 H1419 0.961 . S
C1406 H1420 0.961 . S
C1407 C1404 1.539 . S
C1407 H1421 0.958 . S
C1407 H1422 0.961 . S
C1407 H1423 0.960 . S
H1408 C1392 0.931 . S
H1409 C1397 0.929 . S
H1410 C1398 0.960 . S
H1411 C1398 0.962 . S
H1412 C1398 0.960 . S
H1413 C1399 0.961 . S
H1414 C1399 0.961 . S
H1415 C1399 0.961 . S
H1416 C1400 0.931 1_655 S
H1417 C1405 0.930 . S
H1418 C1406 0.956 . S
H1419 C1406 0.961 . S
H1420 C1406 0.961 . S
H1421 C1407 0.958 . S
H1422 C1407 0.961 . S
H1423 C1407 0.960 . S
C1424 C1425 1.391 . S
C1424 C1426 1.394 1_556 S
C1424 H1440 0.931 . S
C1425 C1424 1.391 . S
C1425 C1429 1.376 . S
C1426 C1424 1.394 1_554 S
C1426 C1427 1.369 1_554 S
C1426 C1430 1.531 . S
C1427 C1426 1.369 1_556 S
C1427 C1428 1.410 . S
C1427 C1435 1.503 1_556 S
C1428 C1427 1.410 . S
C1428 C1429 1.392 . S
C1428 C1431 1.511 . S
C1429 C1425 1.376 . S
C1429 C1428 1.392 . S
C1429 H1441 0.929 . S
C1430 C1426 1.531 . S
C1430 H1442 0.960 . S
C1430 H1443 0.962 . S
C1430 H1444 0.960 . S
C1431 C1428 1.511 . S
C1431 H1445 0.961 . S
C1431 H1446 0.961 . S
C1431 H1447 0.961 . S
C1432 C1433 1.370 1_556 S
C1432 C1434 1.363 . S
C1432 H1448 0.931 . S
C1433 C1432 1.370 1_554 S
C1433 C1437 1.408 . S
C1434 C1432 1.363 . S
C1434 C1435 1.370 1_556 S
C1434 C1438 1.524 . S
C1435 C1427 1.503 1_554 S
C1435 C1434 1.370 1_554 S
C1435 C1436 1.403 . S
C1436 C1435 1.403 . S
C1436 C1437 1.404 . S
C1436 C1439 1.539 . S
C1437 C1433 1.408 . S
C1437 C1436 1.404 . S
C1437 H1449 0.930 . S
C1438 C1434 1.524 . S
C1438 H1450 0.956 . S
C1438 H1451 0.961 . S
C1438 H1452 0.961 . S
C1439 C1436 1.539 . S
C1439 H1453 0.958 . S
C1439 H1454 0.961 . S
C1439 H1455 0.960 . S
H1440 C1424 0.931 . S
H1441 C1429 0.929 . S
H1442 C1430 0.960 . S
H1443 C1430 0.962 . S
H1444 C1430 0.960 . S
H1445 C1431 0.961 . S
H1446 C1431 0.961 . S
H1447 C1431 0.961 . S
H1448 C1432 0.931 . S
H1449 C1437 0.930 . S
H1450 C1438 0.956 . S
H1451 C1438 0.961 . S
H1452 C1438 0.961 . S
H1453 C1439 0.958 . S
H1454 C1439 0.961 . S
H1455 C1439 0.960 . S
C1456 C1457 1.391 . S
C1456 C1458 1.394 . S
C1456 H1472 0.931 . S
C1457 C1456 1.391 . S
C1457 C1461 1.376 . S
C1458 C1456 1.394 . S
C1458 C1459 1.369 . S
C1458 C1462 1.531 . S
C1459 C1458 1.369 . S
C1459 C1460 1.410 1_554 S
C1459 C1467 1.503 1_554 S
C1460 C1459 1.410 1_556 S
C1460 C1461 1.392 1_556 S
C1460 C1463 1.511 . S
C1461 C1457 1.376 . S
C1461 C1460 1.392 1_554 S
C1461 H1473 0.929 . S
C1462 C1458 1.531 . S
C1462 H1474 0.960 . S
C1462 H1475 0.962 . S
C1462 H1476 0.960 . S
C1463 C1460 1.511 . S
C1463 H1477 0.961 . S
C1463 H1478 0.961 . S
C1463 H1479 0.961 . S
C1464 C1465 1.370 1_554 S
C1464 C1466 1.363 . S
C1464 H1480 0.931 . S
C1465 C1464 1.370 1_556 S
C1465 C1469 1.408 . S
C1466 C1464 1.363 . S
C1466 C1467 1.370 1_554 S
C1466 C1470 1.524 . S
C1467 C1459 1.503 1_556 S
C1467 C1466 1.370 1_556 S
C1467 C1468 1.403 . S
C1468 C1467 1.403 . S
C1468 C1469 1.404 . S
C1468 C1471 1.539 . S
C1469 C1465 1.408 . S
C1469 C1468 1.404 . S
C1469 H1481 0.930 . S
C1470 C1466 1.524 . S
C1470 H1482 0.956 . S
C1470 H1483 0.961 . S
C1470 H1484 0.961 . S
C1471 C1468 1.539 . S
C1471 H1485 0.958 . S
C1471 H1486 0.961 . S
C1471 H1487 0.960 . S
H1472 C1456 0.931 . S
H1473 C1461 0.929 . S
H1474 C1462 0.960 . S
H1475 C1462 0.962 . S
H1476 C1462 0.960 . S
H1477 C1463 0.961 . S
H1478 C1463 0.961 . S
H1479 C1463 0.961 . S
H1480 C1464 0.931 . S
H1481 C1469 0.930 . S
H1482 C1470 0.956 . S
H1483 C1470 0.961 . S
H1484 C1470 0.961 . S
H1485 C1471 0.958 . S
H1486 C1471 0.961 . S
H1487 C1471 0.960 . S
C1488 C1489 1.391 . S
C1488 C1490 1.394 1_554 S
C1488 H1504 0.931 . S
C1489 C1488 1.391 . S
C1489 C1493 1.376 . S
C1490 C1488 1.394 1_556 S
C1490 C1491 1.369 . S
C1490 C1494 1.531 . S
C1491 C1490 1.369 . S
C1491 C1492 1.410 . S
C1491 C1499 1.503 . S
C1492 C1491 1.410 . S
C1492 C1493 1.392 1_556 S
C1492 C1495 1.511 . S
C1493 C1489 1.376 . S
C1493 C1492 1.392 1_554 S
C1493 H1505 0.929 . S
C1494 C1490 1.531 . S
C1494 H1506 0.960 . S
C1494 H1507 0.962 1_556 S
C1494 H1508 0.960 . S
C1495 C1492 1.511 . S
C1495 H1509 0.961 1_556 S
C1495 H1510 0.961 . S
C1495 H1511 0.961 . S
C1496 C1497 1.370 . S
C1496 C1498 1.363 1_556 S
C1496 H1512 0.931 1_556 S
C1497 C1496 1.370 . S
C1497 C1501 1.408 . S
C1498 C1496 1.363 1_554 S
C1498 C1499 1.370 1_554 S
C1498 C1502 1.524 . S
C1499 C1491 1.503 . S
C1499 C1498 1.370 1_556 S
C1499 C1500 1.403 . S
C1500 C1499 1.403 . S
C1500 C1501 1.404 . S
C1500 C1503 1.539 . S
C1501 C1497 1.408 . S
C1501 C1500 1.404 . S
C1501 H1513 0.930 . S
C1502 C1498 1.524 . S
C1502 H1514 0.956 . S
C1502 H1515 0.961 . S
C1502 H1516 0.961 . S
C1503 C1500 1.539 . S
C1503 H1517 0.958 . S
C1503 H1518 0.961 . S
C1503 H1519 0.960 . S
H1504 C1488 0.931 . S
H1505 C1493 0.929 . S
H1506 C1494 0.960 . S
H1507 C1494 0.962 1_554 S
H1508 C1494 0.960 . S
H1509 C1495 0.961 1_554 S
H1510 C1495 0.961 . S
H1511 C1495 0.961 . S
H1512 C1496 0.931 1_554 S
H1513 C1501 0.930 . S
H1514 C1502 0.956 . S
H1515 C1502 0.961 . S
H1516 C1502 0.961 . S
H1517 C1503 0.958 . S
H1518 C1503 0.961 . S
H1519 C1503 0.960 . S
C1520 C1521 1.391 . S
C1520 C1522 1.394 . S
C1520 H1536 0.931 . S
C1521 C1520 1.391 . S
C1521 C1525 1.376 . S
C1522 C1520 1.394 . S
C1522 C1523 1.369 . S
C1522 C1526 1.531 . S
C1523 C1522 1.369 . S
C1523 C1524 1.410 1_554 S
C1523 C1531 1.503 . S
C1524 C1523 1.410 1_556 S
C1524 C1525 1.392 1_556 S
C1524 C1527 1.511 . S
C1525 C1521 1.376 . S
C1525 C1524 1.392 1_554 S
C1525 H1537 0.929 1_554 S
C1526 C1522 1.531 . S
C1526 H1538 0.960 . S
C1526 H1539 0.962 . S
C1526 H1540 0.960 . S
C1527 C1524 1.511 . S
C1527 H1541 0.961 . S
C1527 H1542 0.961 . S
C1527 H1543 0.961 . S
C1528 C1529 1.370 . S
C1528 C1530 1.363 1_556 S
C1528 H1544 0.934 . S
C1529 C1528 1.370 . S
C1529 C1533 1.408 . S
C1530 C1528 1.363 1_554 S
C1530 C1531 1.370 . S
C1530 C1534 1.524 . S
C1531 C1523 1.503 . S
C1531 C1530 1.370 . S
C1531 C1532 1.403 1_554 S
C1532 C1531 1.403 1_556 S
C1532 C1533 1.404 . S
C1532 C1535 1.539 . S
C1533 C1529 1.408 . S
C1533 C1532 1.404 . S
C1533 H1545 0.930 . S
C1534 C1530 1.524 . S
C1534 H1546 0.956 . S
C1534 H1547 0.961 . S
C1534 H1548 0.961 . S
C1535 C1532 1.539 . S
C1535 H1549 0.958 . S
C1535 H1550 0.961 . S
C1535 H1551 0.960 . S
H1536 C1520 0.931 . S
H1537 C1525 0.929 1_556 S
H1538 C1526 0.960 . S
H1539 C1526 0.962 . S
H1540 C1526 0.960 . S
H1541 C1527 0.961 . S
H1542 C1527 0.961 . S
H1543 C1527 0.961 . S
H1544 C1528 0.934 . S
H1545 C1533 0.930 . S
H1546 C1534 0.956 . S
H1547 C1534 0.961 . S
H1548 C1534 0.961 . S
H1549 C1535 0.958 . S
H1550 C1535 0.961 . S
H1551 C1535 0.960 . S
C1552 C1553 1.391 . S
C1552 C1554 1.394 . S
C1552 H1568 0.931 . S
C1553 C1552 1.391 . S
C1553 C1557 1.376 . S
C1554 C1552 1.394 . S
C1554 C1555 1.369 . S
C1554 C1558 1.531 . S
C1555 C1554 1.369 . S
C1555 C1556 1.410 . S
C1555 C1563 1.503 . S
C1556 C1555 1.410 . S
C1556 C1557 1.392 . S
C1556 C1559 1.511 . S
C1557 C1553 1.376 . S
C1557 C1556 1.392 . S
C1557 H1569 0.929 . S
C1558 C1554 1.531 . S
C1558 H1570 0.960 . S
C1558 H1571 0.962 . S
C1558 H1572 0.960 . S
C1559 C1556 1.511 . S
C1559 H1573 0.961 . S
C1559 H1574 0.961 . S
C1559 H1575 0.961 . S
C1560 C1561 1.370 . S
C1560 C1562 1.363 . S
C1560 H1576 0.931 . S
C1561 C1560 1.370 . S
C1561 C1565 1.408 . S
C1562 C1560 1.363 . S
C1562 C1563 1.370 . S
C1562 C1566 1.524 . S
C1563 C1555 1.503 . S
C1563 C1562 1.370 . S
C1563 C1564 1.403 . S
C1564 C1563 1.403 . S
C1564 C1565 1.404 . S
C1564 C1567 1.539 . S
C1565 C1561 1.408 . S
C1565 C1564 1.404 . S
C1565 H1577 0.930 . S
C1566 C1562 1.524 . S
C1566 H1578 0.956 . S
C1566 H1579 0.961 . S
C1566 H1580 0.961 . S
C1567 C1564 1.539 . S
C1567 H1581 0.958 . S
C1567 H1582 0.961 . S
C1567 H1583 0.960 . S
H1568 C1552 0.931 . S
H1569 C1557 0.929 . S
H1570 C1558 0.960 . S
H1571 C1558 0.962 . S
H1572 C1558 0.960 . S
H1573 C1559 0.961 . S
H1574 C1559 0.961 . S
H1575 C1559 0.961 . S
H1576 C1560 0.931 . S
H1577 C1565 0.930 . S
H1578 C1566 0.956 . S
H1579 C1566 0.961 . S
H1580 C1566 0.961 . S
H1581 C1567 0.958 . S
H1582 C1567 0.961 . S
H1583 C1567 0.960 . S
C1584 C1585 1.391 . S
C1584 C1586 1.394 . S
C1584 H1600 0.931 . S
C1585 C1584 1.391 . S
C1585 C1589 1.376 . S
C1586 C1584 1.394 . S
C1586 C1587 1.369 . S
C1586 C1590 1.531 . S
C1587 C1586 1.369 . S
C1587 C1588 1.410 . S
C1587 C1595 1.503 . S
C1588 C1587 1.410 . S
C1588 C1589 1.392 . S
C1588 C1591 1.511 . S
C1589 C1585 1.376 . S
C1589 C1588 1.392 . S
C1589 H1601 0.929 . S
C1590 C1586 1.531 . S
C1590 H1602 0.960 . S
C1590 H1603 0.962 . S
C1590 H1604 0.960 . S
C1591 C1588 1.511 . S
C1591 H1605 0.961 . S
C1591 H1606 0.961 . S
C1591 H1607 0.961 . S
C1592 C1593 1.370 . S
C1592 C1594 1.363 . S
C1592 H1608 0.931 . S
C1593 C1592 1.370 . S
C1593 C1597 1.408 . S
C1594 C1592 1.363 . S
C1594 C1595 1.370 . S
C1594 C1598 1.524 . S
C1595 C1587 1.503 . S
C1595 C1594 1.370 . S
C1595 C1596 1.403 . S
C1596 C1595 1.403 . S
C1596 C1597 1.404 . S
C1596 C1599 1.539 . S
C1597 C1593 1.408 . S
C1597 C1596 1.404 . S
C1597 H1609 0.930 . S
C1598 C1594 1.524 . S
C1598 H1610 0.956 . S
C1598 H1611 0.961 . S
C1598 H1612 0.961 . S
C1599 C1596 1.539 . S
C1599 H1613 0.958 . S
C1599 H1614 0.961 . S
C1599 H1615 0.960 . S
H1600 C1584 0.931 . S
H1601 C1589 0.929 . S
H1602 C1590 0.960 . S
H1603 C1590 0.962 . S
H1604 C1590 0.960 . S
H1605 C1591 0.961 . S
H1606 C1591 0.961 . S
H1607 C1591 0.961 . S
H1608 C1592 0.931 . S
H1609 C1597 0.930 . S
H1610 C1598 0.956 . S
H1611 C1598 0.961 . S
H1612 C1598 0.961 . S
H1613 C1599 0.958 . S
H1614 C1599 0.961 . S
H1615 C1599 0.960 . S
C1616 C1617 1.391 . S
C1616 C1618 1.394 . S
C1616 H1632 0.931 . S
C1617 C1616 1.391 . S
C1617 C1621 1.376 . S
C1618 C1616 1.394 . S
C1618 C1619 1.369 . S
C1618 C1622 1.531 . S
C1619 C1618 1.369 . S
C1619 C1620 1.410 . S
C1619 C1627 1.503 . S
C1620 C1619 1.410 . S
C1620 C1621 1.392 . S
C1620 C1623 1.511 . S
C1621 C1617 1.376 . S
C1621 C1620 1.392 . S
C1621 H1633 0.929 . S
C1622 C1618 1.531 . S
C1622 H1634 0.960 . S
C1622 H1635 0.962 . S
C1622 H1636 0.960 . S
C1623 C1620 1.511 . S
C1623 H1637 0.961 . S
C1623 H1638 0.961 . S
C1623 H1639 0.961 . S
C1624 C1625 1.370 . S
C1624 C1626 1.363 . S
C1624 H1640 0.931 . S
C1625 C1624 1.370 . S
C1625 C1629 1.408 . S
C1626 C1624 1.363 . S
C1626 C1627 1.370 . S
C1626 C1630 1.524 . S
C1627 C1619 1.503 . S
C1627 C1626 1.370 . S
C1627 C1628 1.403 . S
C1628 C1627 1.403 . S
C1628 C1629 1.404 . S
C1628 C1631 1.539 . S
C1629 C1625 1.408 . S
C1629 C1628 1.404 . S
C1629 H1641 0.930 . S
C1630 C1626 1.524 . S
C1630 H1642 0.956 . S
C1630 H1643 0.961 . S
C1630 H1644 0.961 . S
C1631 C1628 1.539 . S
C1631 H1645 0.958 . S
C1631 H1646 0.961 . S
C1631 H1647 0.960 . S
H1632 C1616 0.931 . S
H1633 C1621 0.929 . S
H1634 C1622 0.960 . S
H1635 C1622 0.962 . S
H1636 C1622 0.960 . S
H1637 C1623 0.961 . S
H1638 C1623 0.961 . S
H1639 C1623 0.961 . S
H1640 C1624 0.931 . S
H1641 C1629 0.930 . S
H1642 C1630 0.956 . S
H1643 C1630 0.961 . S
H1644 C1630 0.961 . S
H1645 C1631 0.958 . S
H1646 C1631 0.961 . S
H1647 C1631 0.960 . S
C1648 C1649 1.391 . S
C1648 C1650 1.394 . S
C1648 H1664 0.931 . S
C1649 C1648 1.391 . S
C1649 C1653 1.376 . S
C1650 C1648 1.394 . S
C1650 C1651 1.369 . S
C1650 C1654 1.531 . S
C1651 C1650 1.369 . S
C1651 C1652 1.410 . S
C1651 C1659 1.503 . S
C1652 C1651 1.410 . S
C1652 C1653 1.392 . S
C1652 C1655 1.511 . S
C1653 C1649 1.376 . S
C1653 C1652 1.392 . S
C1653 H1665 0.929 . S
C1654 C1650 1.531 . S
C1654 H1666 0.960 . S
C1654 H1667 0.962 . S
C1654 H1668 0.960 . S
C1655 C1652 1.511 . S
C1655 H1669 0.961 . S
C1655 H1670 0.961 . S
C1655 H1671 0.961 . S
C1656 C1657 1.370 . S
C1656 C1658 1.363 . S
C1656 H1672 0.931 . S
C1657 C1656 1.370 . S
C1657 C1661 1.408 . S
C1658 C1656 1.363 . S
C1658 C1659 1.370 . S
C1658 C1662 1.524 . S
C1659 C1651 1.503 . S
C1659 C1658 1.370 . S
C1659 C1660 1.403 . S
C1660 C1659 1.403 . S
C1660 C1661 1.404 . S
C1660 C1663 1.539 . S
C1661 C1657 1.408 . S
C1661 C1660 1.404 . S
C1661 H1673 0.930 . S
C1662 C1658 1.524 . S
C1662 H1674 0.956 . S
C1662 H1675 0.961 . S
C1662 H1676 0.961 . S
C1663 C1660 1.539 . S
C1663 H1677 0.958 . S
C1663 H1678 0.961 . S
C1663 H1679 0.960 . S
H1664 C1648 0.931 . S
H1665 C1653 0.929 . S
H1666 C1654 0.960 . S
H1667 C1654 0.962 . S
H1668 C1654 0.960 . S
H1669 C1655 0.961 . S
H1670 C1655 0.961 . S
H1671 C1655 0.961 . S
H1672 C1656 0.931 . S
H1673 C1661 0.930 . S
H1674 C1662 0.956 . S
H1675 C1662 0.961 . S
H1676 C1662 0.961 . S
H1677 C1663 0.958 . S
H1678 C1663 0.961 . S
H1679 C1663 0.960 . S
C1680 C1681 1.391 . S
C1680 C1682 1.394 . S
C1680 H1696 0.931 . S
C1681 C1680 1.391 . S
C1681 C1685 1.376 . S
C1682 C1680 1.394 . S
C1682 C1683 1.369 . S
C1682 C1686 1.531 . S
C1683 C1682 1.369 . S
C1683 C1684 1.410 . S
C1683 C1691 1.503 . S
C1684 C1683 1.410 . S
C1684 C1685 1.392 . S
C1684 C1687 1.511 . S
C1685 C1681 1.376 . S
C1685 C1684 1.392 . S
C1685 H1697 0.929 . S
C1686 C1682 1.531 . S
C1686 H1698 0.960 . S
C1686 H1699 0.962 . S
C1686 H1700 0.960 . S
C1687 C1684 1.511 . S
C1687 H1701 0.961 . S
C1687 H1702 0.961 . S
C1687 H1703 0.961 . S
C1688 C1689 1.370 . S
C1688 C1690 1.363 1_565 S
C1688 H1704 0.931 . S
C1689 C1688 1.370 . S
C1689 C1693 1.408 1_565 S
C1690 C1688 1.363 1_545 S
C1690 C1691 1.370 . S
C1690 C1694 1.524 . S
C1691 C1683 1.503 . S
C1691 C1690 1.370 . S
C1691 C1692 1.403 . S
C1692 C1691 1.403 . S
C1692 C1693 1.404 . S
C1692 C1695 1.539 . S
C1693 C1689 1.408 1_545 S
C1693 C1692 1.404 . S
C1693 H1705 0.930 . S
C1694 C1690 1.524 . S
C1694 H1706 0.956 . S
C1694 H1707 0.961 . S
C1694 H1708 0.961 . S
C1695 C1692 1.539 . S
C1695 H1709 0.958 . S
C1695 H1710 0.961 . S
C1695 H1711 0.960 . S
H1696 C1680 0.931 . S
H1697 C1685 0.929 . S
H1698 C1686 0.960 . S
H1699 C1686 0.962 . S
H1700 C1686 0.960 . S
H1701 C1687 0.961 . S
H1702 C1687 0.961 . S
H1703 C1687 0.961 . S
H1704 C1688 0.931 . S
H1705 C1693 0.930 . S
H1706 C1694 0.956 . S
H1707 C1694 0.961 . S
H1708 C1694 0.961 . S
H1709 C1695 0.958 . S
H1710 C1695 0.961 . S
H1711 C1695 0.960 . S
C1712 C1713 1.391 . S
C1712 C1714 1.394 . S
C1712 H1728 0.931 . S
C1713 C1712 1.391 . S
C1713 C1717 1.376 . S
C1714 C1712 1.394 . S
C1714 C1715 1.369 . S
C1714 C1718 1.531 . S
C1715 C1714 1.369 . S
C1715 C1716 1.410 . S
C1715 C1723 1.503 . S
C1716 C1715 1.410 . S
C1716 C1717 1.392 . S
C1716 C1719 1.511 . S
C1717 C1713 1.376 . S
C1717 C1716 1.392 . S
C1717 H1729 0.929 . S
C1718 C1714 1.531 . S
C1718 H1730 0.960 . S
C1718 H1731 0.962 . S
C1718 H1732 0.960 . S
C1719 C1716 1.511 . S
C1719 H1733 0.961 . S
C1719 H1734 0.961 . S
C1719 H1735 0.961 . S
C1720 C1721 1.370 1_455 S
C1720 C1722 1.363 . S
C1720 H1736 0.931 1_455 S
C1721 C1720 1.370 1_655 S
C1721 C1725 1.408 1_655 S
C1722 C1720 1.363 . S
C1722 C1723 1.370 . S
C1722 C1726 1.524 . S
C1723 C1715 1.503 . S
C1723 C1722 1.370 . S
C1723 C1724 1.403 . S
C1724 C1723 1.403 . S
C1724 C1725 1.404 . S
C1724 C1727 1.539 . S
C1725 C1721 1.408 1_455 S
C1725 C1724 1.404 . S
C1725 H1737 0.930 1_455 S
C1726 C1722 1.524 . S
C1726 H1738 0.956 . S
C1726 H1739 0.961 . S
C1726 H1740 0.961 . S
C1727 C1724 1.539 . S
C1727 H1741 0.958 . S
C1727 H1742 0.961 . S
C1727 H1743 0.960 . S
H1728 C1712 0.931 . S
H1729 C1717 0.929 . S
H1730 C1718 0.960 . S
H1731 C1718 0.962 . S
H1732 C1718 0.960 . S
H1733 C1719 0.961 . S
H1734 C1719 0.961 . S
H1735 C1719 0.961 . S
H1736 C1720 0.931 1_655 S
H1737 C1725 0.930 1_655 S
H1738 C1726 0.956 . S
H1739 C1726 0.961 . S
H1740 C1726 0.961 . S
H1741 C1727 0.958 . S
H1742 C1727 0.961 . S
H1743 C1727 0.960 . S
C1744 C1745 1.391 . S
C1744 C1746 1.394 . S
C1744 H1760 0.931 . S
C1745 C1744 1.391 . S
C1745 C1749 1.376 . S
C1746 C1744 1.394 . S
C1746 C1747 1.369 . S
C1746 C1750 1.531 . S
C1747 C1746 1.369 . S
C1747 C1748 1.410 . S
C1747 C1755 1.503 . S
C1748 C1747 1.410 . S
C1748 C1749 1.392 . S
C1748 C1751 1.511 . S
C1749 C1745 1.376 . S
C1749 C1748 1.392 . S
C1749 H1761 0.929 . S
C1750 C1746 1.531 . S
C1750 H1762 0.960 . S
C1750 H1763 0.962 . S
C1750 H1764 0.960 . S
C1751 C1748 1.511 . S
C1751 H1765 0.961 . S
C1751 H1766 0.961 . S
C1751 H1767 0.961 . S
C1752 C1753 1.370 1_565 S
C1752 C1754 1.363 . S
C1752 H1768 0.931 . S
C1753 C1752 1.370 1_545 S
C1753 C1757 1.408 . S
C1754 C1752 1.363 . S
C1754 C1755 1.370 . S
C1754 C1758 1.524 . S
C1755 C1747 1.503 . S
C1755 C1754 1.370 . S
C1755 C1756 1.403 . S
C1756 C1755 1.403 . S
C1756 C1757 1.404 1_565 S
C1756 C1759 1.539 . S
C1757 C1753 1.408 . S
C1757 C1756 1.404 1_545 S
C1757 H1769 0.930 . S
C1758 C1754 1.524 . S
C1758 H1770 0.956 . S
C1758 H1771 0.961 . S
C1758 H1772 0.961 . S
C1759 C1756 1.539 . S
C1759 H1773 0.958 . S
C1759 H1774 0.961 . S
C1759 H1775 0.960 . S
H1760 C1744 0.931 . S
H1761 C1749 0.929 . S
H1762 C1750 0.960 . S
H1763 C1750 0.962 . S
H1764 C1750 0.960 . S
H1765 C1751 0.961 . S
H1766 C1751 0.961 . S
H1767 C1751 0.961 . S
H1768 C1752 0.931 . S
H1769 C1757 0.930 . S
H1770 C1758 0.956 . S
H1771 C1758 0.961 . S
H1772 C1758 0.961 . S
H1773 C1759 0.958 . S
H1774 C1759 0.961 . S
H1775 C1759 0.960 . S
C1776 C1777 1.391 1_655 S
C1776 C1778 1.394 . S
C1776 H1792 0.931 . S
C1777 C1776 1.391 1_455 S
C1777 C1781 1.376 . S
C1778 C1776 1.394 . S
C1778 C1779 1.369 . S
C1778 C1782 1.531 . S
C1779 C1778 1.369 . S
C1779 C1780 1.410 . S
C1779 C1787 1.503 . S
C1780 C1779 1.410 . S
C1780 C1781 1.392 1_655 S
C1780 C1783 1.511 . S
C1781 C1777 1.376 . S
C1781 C1780 1.392 1_455 S
C1781 H1793 0.929 . S
C1782 C1778 1.531 . S
C1782 H1794 0.960 . S
C1782 H1795 0.962 . S
C1782 H1796 0.960 . S
C1783 C1780 1.511 . S
C1783 H1797 0.961 . S
C1783 H1798 0.961 . S
C1783 H1799 0.961 . S
C1784 C1785 1.370 . S
C1784 C1786 1.363 . S
C1784 H1800 0.931 . S
C1785 C1784 1.370 . S
C1785 C1789 1.408 . S
C1786 C1784 1.363 . S
C1786 C1787 1.370 . S
C1786 C1790 1.524 . S
C1787 C1779 1.503 . S
C1787 C1786 1.370 . S
C1787 C1788 1.403 . S
C1788 C1787 1.403 . S
C1788 C1789 1.404 . S
C1788 C1791 1.539 . S
C1789 C1785 1.408 . S
C1789 C1788 1.404 . S
C1789 H1801 0.930 . S
C1790 C1786 1.524 . S
C1790 H1802 0.956 . S
C1790 H1803 0.961 . S
C1790 H1804 0.961 . S
C1791 C1788 1.539 . S
C1791 H1805 0.958 . S
C1791 H1806 0.961 . S
C1791 H1807 0.960 . S
H1792 C1776 0.931 . S
H1793 C1781 0.929 . S
H1794 C1782 0.960 . S
H1795 C1782 0.962 . S
H1796 C1782 0.960 . S
H1797 C1783 0.961 . S
H1798 C1783 0.961 . S
H1799 C1783 0.961 . S
H1800 C1784 0.931 . S
H1801 C1789 0.930 . S
H1802 C1790 0.956 . S
H1803 C1790 0.961 . S
H1804 C1790 0.961 . S
H1805 C1791 0.958 . S
H1806 C1791 0.961 . S
H1807 C1791 0.960 . S
C529 C7 0.912 . S
C537 C469 0.916 . S
C561 C502 0.916 . S
C569 C40 0.916 . S
C593 C403 0.913 . S
C601 C73 0.916 . S
C625 C106 0.925 . S
C633 C436 0.924 . S
C657 C139 0.926 1_556 S
C665 C337 0.924 . S
C689 C370 0.925 . S
C697 C172 0.923 1_554 S
C721 C205 0.921 1_556 S
C729 C271 0.923 . S
C753 C304 0.921 . S
C761 C238 0.924 1_554 S
C785 N145 1.421 . S
C793 N13 1.419 . S
C817 N46 1.390 . S
C825 N178 1.404 . S
C849 N79 1.405 . S
C857 N211 1.410 . S
C881 N112 1.393 . S
C889 N244 1.405 . S
C913 N409 1.425 . S
C921 N277 1.420 . S
C945 N442 1.426 . S
C953 N310 1.418 . S
C977 N343 1.409 . S
C985 N475 1.412 . S
C1009 N376 1.391 . S
C1017 N508 1.407 . S
C1041 C21 1.519 1_556 S
C1049 C483 1.498 . S
C1073 C516 1.481 . S
C1081 C54 1.510 1_554 S
C1105 C87 1.516 1_556 S
C1113 C417 1.504 . S
C1137 C450 1.510 . S
C1145 C120 1.494 1_554 S
C1169 C351 1.505 . S
C1177 C153 1.509 . S
C1201 C384 1.504 . S
C1209 C186 1.495 . S
C1233 C219 1.490 . S
C1241 C285 1.497 . S
C1265 C252 1.519 . S
C1273 C318 1.498 . S
C1297 N2 1.525 . S
C1305 C381 1.570 . S
C1329 C282 1.569 . S
C1337 N35 1.478 . S
C1361 N68 1.465 . S
C1369 C315 1.581 . S
C1393 C348 1.562 . S
C1401 N101 1.485 . S
C1425 C183 1.556 . S
C1433 N134 1.504 . S
C1457 C216 1.556 . S
C1465 N167 1.499 . S
C1489 N200 1.483 . S
C1497 C249 1.579 . S
C1521 C150 1.559 . S
C1529 N233 1.505 . S
C1553 C117 1.559 . S
C1561 N266 1.494 . S
C1585 N299 1.456 . S
C1593 C18 1.581 . S
C1617 N332 1.449 . S
C1625 C51 1.581 . S
C1649 C84 1.575 . S
C1657 N365 1.502 . S
C1681 C447 1.556 . S
C1689 N398 1.501 . S
C1713 C480 1.564 . S
C1721 N431 1.482 . S
C1745 C513 1.584 . S
C1753 N464 1.484 . S
C1777 N497 1.514 . S
C1785 C414 1.576 . S
