# Generated by pormake.
# Topology pyr-e, (6)-cn, num edge types: 1
# Building blocks:
#     Node 0, Type 0, BuildingBlock: OJICUG_clean_sbu_0, # of connection points: 6
#     Node 1, Type 0, BuildingBlock: OJICUG_clean_sbu_0, # of connection points: 6
#     Node 2, Type 0, BuildingBlock: OJICUG_clean_sbu_0, # of connection points: 6
#     Node 3, Type 0, BuildingBlock: OJICUG_clean_sbu_0, # of connection points: 6
#     Node 4, Type 0, BuildingBlock: OJICUG_clean_sbu_0, # of connection points: 6
#     Node 5, Type 0, BuildingBlock: OJICUG_clean_sbu_0, # of connection points: 6
#     Node 6, Type 0, BuildingBlock: OJICUG_clean_sbu_0, # of connection points: 6
#     Node 7, Type 0, BuildingBlock: OJICUG_clean_sbu_0, # of connection points: 6
#     Node 8, Type 0, BuildingBlock: OJICUG_clean_sbu_0, # of connection points: 6
#     Node 9, Type 0, BuildingBlock: OJICUG_clean_sbu_0, # of connection points: 6
#     Node 10, Type 0, BuildingBlock: OJICUG_clean_sbu_0, # of connection points: 6
#     Node 11, Type 0, BuildingBlock: OJICUG_clean_sbu_0, # of connection points: 6
#     Node 12, Type 0, BuildingBlock: OJICUG_clean_sbu_0, # of connection points: 6
#     Node 13, Type 0, BuildingBlock: OJICUG_clean_sbu_0, # of connection points: 6
#     Node 14, Type 0, BuildingBlock: OJICUG_clean_sbu_0, # of connection points: 6
#     Node 15, Type 0, BuildingBlock: OJICUG_clean_sbu_0, # of connection points: 6
#     Node 16, Type 0, BuildingBlock: OJICUG_clean_sbu_0, # of connection points: 6
#     Node 17, Type 0, BuildingBlock: OJICUG_clean_sbu_0, # of connection points: 6
#     Node 18, Type 0, BuildingBlock: OJICUG_clean_sbu_0, # of connection points: 6
#     Node 19, Type 0, BuildingBlock: OJICUG_clean_sbu_0, # of connection points: 6
#     Node 20, Type 0, BuildingBlock: OJICUG_clean_sbu_0, # of connection points: 6
#     Node 21, Type 0, BuildingBlock: OJICUG_clean_sbu_0, # of connection points: 6
#     Node 22, Type 0, BuildingBlock: OJICUG_clean_sbu_0, # of connection points: 6
#     Node 23, Type 0, BuildingBlock: OJICUG_clean_sbu_0, # of connection points: 6
#     Edge 24, Type (0, 0), None
#     Edge 25, Type (0, 0), None
#     Edge 26, Type (0, 0), None
#     Edge 27, Type (0, 0), None
#     Edge 28, Type (0, 0), None
#     Edge 29, Type (0, 0), None
#     Edge 30, Type (0, 0), None
#     Edge 31, Type (0, 0), None
#     Edge 32, Type (0, 0), None
#     Edge 33, Type (0, 0), None
#     Edge 34, Type (0, 0), None
#     Edge 35, Type (0, 0), None
#     Edge 36, Type (0, 0), None
#     Edge 37, Type (0, 0), None
#     Edge 38, Type (0, 0), None
#     Edge 39, Type (0, 0), None
#     Edge 40, Type (0, 0), None
#     Edge 41, Type (0, 0), None
#     Edge 42, Type (0, 0), None
#     Edge 43, Type (0, 0), None
#     Edge 44, Type (0, 0), None
#     Edge 45, Type (0, 0), None
#     Edge 46, Type (0, 0), None
#     Edge 47, Type (0, 0), None
#     Edge 48, Type (0, 0), None
#     Edge 49, Type (0, 0), None
#     Edge 50, Type (0, 0), None
#     Edge 51, Type (0, 0), None
#     Edge 52, Type (0, 0), None
#     Edge 53, Type (0, 0), None
#     Edge 54, Type (0, 0), None
#     Edge 55, Type (0, 0), None
#     Edge 56, Type (0, 0), None
#     Edge 57, Type (0, 0), None
#     Edge 58, Type (0, 0), None
#     Edge 59, Type (0, 0), None
#     Edge 60, Type (0, 0), None
#     Edge 61, Type (0, 0), None
#     Edge 62, Type (0, 0), None
#     Edge 63, Type (0, 0), None
#     Edge 64, Type (0, 0), None
#     Edge 65, Type (0, 0), None
#     Edge 66, Type (0, 0), None
#     Edge 67, Type (0, 0), None
#     Edge 68, Type (0, 0), None
#     Edge 69, Type (0, 0), None
#     Edge 70, Type (0, 0), None
#     Edge 71, Type (0, 0), None
#     Edge 72, Type (0, 0), None
#     Edge 73, Type (0, 0), None
#     Edge 74, Type (0, 0), None
#     Edge 75, Type (0, 0), None
#     Edge 76, Type (0, 0), None
#     Edge 77, Type (0, 0), None
#     Edge 78, Type (0, 0), None
#     Edge 79, Type (0, 0), None
#     Edge 80, Type (0, 0), None
#     Edge 81, Type (0, 0), None
#     Edge 82, Type (0, 0), None
#     Edge 83, Type (0, 0), None
#     Edge 84, Type (0, 0), None
#     Edge 85, Type (0, 0), None
#     Edge 86, Type (0, 0), None
#     Edge 87, Type (0, 0), None
#     Edge 88, Type (0, 0), None
#     Edge 89, Type (0, 0), None
#     Edge 90, Type (0, 0), None
#     Edge 91, Type (0, 0), None
#     Edge 92, Type (0, 0), None
#     Edge 93, Type (0, 0), None
#     Edge 94, Type (0, 0), None
#     Edge 95, Type (0, 0), None
# Relax obj value: 0.593
# Max RMSD: 0.261
# Mean RMSD: 0.261
data_MOF--net-pyr-e--node1-OJICUG_clean_sbu_0--edge1-none
_symmetry_space_group_name_H-M    P1
_symmetry_Int_Tables_number       1
_symmetry_cell_setting            triclinic
loop_
_symmetry_equiv_pos_as_xyz
'x, y, z'
_cell_length_a     22.368689
_cell_length_b     22.365201
_cell_length_c     22.36947
_cell_angle_alpha  89.99904
_cell_angle_beta   89.999813
_cell_angle_gamma 89.999752
loop_
_atom_site_label
_atom_site_type_symbol
_atom_site_fract_x
_atom_site_fract_y
_atom_site_fract_z
_atom_type_partial_charge
Sc0 Sc 0.96998 0.18844 0.9474 0.0
Sc1 Sc 0.06379 0.22886 0.07078 0.0
Sc2 Sc 0.96496 0.31873 0.02317 0.0
O3 O 0.00665 0.2464 0.00623 0.0
C4 C -0.0092 0.31045 0.88458 0.0
C5 C 0.08753 0.12304 0.97399 0.0
C6 C 0.1086 0.34075 0.01493 0.0
C7 C 0.96276 0.1372 0.08231 0.0
C8 C 0.85685 0.26312 0.97856 0.0
C9 C -0.0029 0.31327 0.15151 0.0
O10 O -0.00111 0.25357 0.88047 0.0
O11 O 0.09224 0.15186 0.02268 0.0
O12 O 0.05444 0.3598 0.02295 0.0
O13 O 0.95085 0.12907 0.02601 0.0
O14 O 0.88376 0.27073 0.02669 0.0
O15 O 0.04947 0.30216 0.13449 0.0
O16 O 0.88265 0.23298 0.9386 0.0
O17 O -0.01319 0.18431 0.10292 0.0
O18 O 0.95579 0.30136 0.11613 0.0
O19 O 0.04998 0.13669 0.93423 0.0
O20 O 0.96482 0.33553 0.92883 0.0
O21 O 0.1254 0.28727 0.02703 0.0
Sc22 Sc 0.49123 0.77292 0.4474 0.0
Sc23 Sc 0.39742 0.7325 0.57077 0.0
Sc24 Sc 0.49625 0.64264 0.52318 0.0
O25 O 0.45456 0.71496 0.50623 0.0
C26 C 0.47043 0.65092 0.38459 0.0
C27 C 0.37368 0.83832 0.47398 0.0
C28 C 0.35262 0.62061 0.51493 0.0
C29 C 0.49844 0.82416 0.58231 0.0
C30 C 0.60437 0.69825 0.47857 0.0
C31 C 0.4641 0.6481 0.65151 0.0
O32 O 0.46234 0.70779 0.38048 0.0
O33 O 0.36897 0.8095 0.52267 0.0
O34 O 0.40678 0.60156 0.52296 0.0
O35 O 0.51036 0.8323 0.52601 0.0
O36 O 0.57746 0.69064 0.52671 0.0
O37 O 0.41173 0.65921 0.63449 0.0
O38 O 0.57857 0.72839 0.43861 0.0
O39 O 0.4744 0.77706 0.60292 0.0
O40 O 0.50541 0.66001 0.61614 0.0
O41 O 0.41124 0.82468 0.43423 0.0
O42 O 0.4964 0.62583 0.42884 0.0
O43 O 0.33581 0.67409 0.52703 0.0
Sc44 Sc 0.46496 0.14263 0.93799 0.0
Sc45 Sc 0.56378 0.2325 0.89038 0.0
Sc46 Sc 0.46998 0.27291 0.01377 0.0
O47 O 0.50665 0.21496 0.95494 0.0
C48 C 0.35685 0.19824 -0.01739 0.0
C49 C 0.49709 0.14809 0.80965 0.0
C50 C 0.46276 0.32416 0.87887 0.0
C51 C 0.6086 0.12061 0.94622 0.0
C52 C 0.4908 0.15091 0.07658 0.0
C53 C 0.58752 0.33832 -0.01282 0.0
O54 O 0.38375 0.19063 0.93447 0.0
O55 O 0.54946 0.15921 0.82667 0.0
O56 O 0.45085 0.33229 0.93517 0.0
O57 O 0.55444 0.10156 0.9382 0.0
O58 O 0.49888 0.20778 0.08069 0.0
O59 O 0.59223 0.3095 0.93849 0.0
O60 O 0.46483 0.12582 0.03233 0.0
O61 O 0.62539 0.1741 0.93412 0.0
O62 O 0.54998 0.32466 0.02694 0.0
O63 O 0.45579 0.16 0.84503 0.0
O64 O 0.38264 0.22838 0.02257 0.0
O65 O 0.48679 0.27705 0.85825 0.0
Sc66 Sc -0.00374 0.81871 0.43798 0.0
Sc67 Sc 0.89742 0.72886 0.3904 0.0
Sc68 Sc -0.00877 0.68843 0.51377 0.0
O69 O 0.95456 0.74639 0.45494 0.0
C70 C 0.10437 0.7631 0.48259 0.0
C71 C 0.9641 0.81326 0.30966 0.0
C72 C -0.00157 0.63719 0.37886 0.0
C73 C 0.85262 0.84075 0.44624 0.0
C74 C 0.97043 0.81044 0.57658 0.0
C75 C 0.87368 0.62304 0.48719 0.0
O76 O 0.07746 0.77072 0.43446 0.0
O77 O 0.91173 0.80215 0.32668 0.0
O78 O 0.01035 0.62906 0.43516 0.0
O79 O 0.90678 0.8598 0.43821 0.0
O80 O 0.96235 0.75357 0.58069 0.0
O81 O 0.86897 0.65186 0.43851 0.0
O82 O -0.0036 0.83552 0.53233 0.0
O83 O 0.83582 0.78727 0.43415 0.0
O84 O 0.91124 0.63668 0.52694 0.0
O85 O 0.00541 0.80134 0.34502 0.0
O86 O 0.07858 0.73297 0.52256 0.0
O87 O 0.97439 0.68429 0.35824 0.0
Sc88 Sc 0.94748 0.96998 0.18841 0.0
Sc89 Sc 0.07077 0.06393 0.22882 0.0
Sc90 Sc 0.02325 0.96505 0.31868 0.0
O91 O 0.00628 0.00671 0.24635 0.0
C92 C 0.88466 -0.00919 0.31038 0.0
C93 C 0.97402 0.08751 0.12294 0.0
C94 C 0.0149 0.10873 0.34068 0.0
C95 C 0.08241 0.96286 0.1372 0.0
C96 C 0.97871 0.85687 0.26309 0.0
C97 C 0.15155 -0.00271 0.31322 0.0
O98 O 0.88055 -0.00111 0.25351 0.0
O99 O 0.02266 0.09233 0.15182 0.0
O100 O 0.02295 0.05455 0.35973 0.0
O101 O 0.02612 0.95087 0.12908 0.0
O102 O 0.02684 0.88378 0.27079 0.0
O103 O 0.1345 0.04967 0.30212 0.0
O104 O 0.93874 0.88265 0.23296 0.0
O105 O 0.10301 -0.01301 0.18426 0.0
O106 O 0.11621 0.95596 0.30128 0.0
O107 O 0.93428 0.04993 0.13659 0.0
O108 O 0.9289 0.96483 0.33546 0.0
O109 O 0.02697 0.12552 0.28721 0.0
Sc110 Sc 0.51371 -0.00861 0.6884 0.0
Sc111 Sc 0.39042 0.89744 0.72882 0.0
Sc112 Sc 0.43793 -0.00368 0.81867 0.0
O113 O 0.45491 0.95466 0.74634 0.0
C114 C 0.57653 0.97057 0.81038 0.0
C115 C 0.48718 0.87386 0.62294 0.0
C116 C 0.44629 0.85264 0.84067 0.0
C117 C 0.37879 -0.0015 0.63719 0.0
C118 C 0.48248 0.10449 0.76308 0.0
C119 C 0.30964 0.96407 0.81322 0.0
O120 O 0.58064 0.96249 0.75351 0.0
O121 O 0.43854 0.86904 0.65182 0.0
O122 O 0.43824 0.90682 0.85972 0.0
O123 O 0.43508 0.01049 0.62907 0.0
O124 O 0.43435 0.07759 0.77078 0.0
O125 O 0.32669 0.9117 0.80211 0.0
O126 O 0.52245 0.07872 0.73295 0.0
O127 O 0.35818 0.97438 0.68425 0.0
O128 O 0.34497 0.0054 0.80126 0.0
O129 O 0.52692 0.91143 0.63659 0.0
O130 O 0.53228 -0.00346 0.83546 0.0
O131 O 0.43422 0.83585 0.78721 0.0
Sc132 Sc 0.52326 0.49631 0.6425 0.0
Sc133 Sc 0.57078 0.39743 0.73236 0.0
Sc134 Sc 0.44749 0.49138 0.77277 0.0
O135 O 0.50629 0.45465 0.71483 0.0
C136 C 0.47872 0.60449 0.69808 0.0
C137 C 0.65156 0.46407 0.64796 0.0
C138 C 0.58241 0.49851 0.82398 0.0
C139 C 0.5149 0.35263 0.62051 0.0
C140 C 0.38467 0.47055 0.65079 0.0
C141 C 0.47402 0.37386 0.83823 0.0
O142 O 0.52684 0.57758 0.69038 0.0
O143 O 0.6345 0.4117 0.65906 0.0
O144 O 0.52612 0.5105 0.8321 0.0
O145 O 0.52296 0.40681 0.60145 0.0
O146 O 0.38055 0.46248 0.70766 0.0
O147 O 0.52266 0.36903 0.80936 0.0
O148 O 0.42891 0.49653 0.62571 0.0
O149 O 0.52698 0.33584 0.67397 0.0
O150 O 0.43428 0.41143 0.82458 0.0
O151 O 0.61622 0.5054 0.6599 0.0
O152 O 0.43874 0.57871 0.72821 0.0
O153 O 0.60301 0.47438 0.77691 0.0
Sc154 Sc 0.93793 0.46504 0.1425 0.0
Sc155 Sc 0.89041 0.56391 0.23236 0.0
Sc156 Sc 0.01371 0.46997 0.27277 0.0
O157 O 0.9549 0.5067 0.21483 0.0
C158 C -0.01752 0.35687 0.19809 0.0
C159 C 0.80963 0.49728 0.14796 0.0
C160 C 0.87879 0.46284 0.32399 0.0
C161 C 0.94628 0.60872 0.12051 0.0
C162 C 0.07652 0.4908 0.15079 0.0
C163 C -0.01283 0.58749 0.33823 0.0
O164 O 0.93435 0.38377 0.19039 0.0
O165 O 0.82669 0.54965 0.15907 0.0
O166 O 0.93508 0.45086 0.3321 0.0
O167 O 0.93823 0.55455 0.10145 0.0
O168 O 0.08064 0.49887 0.20766 0.0
O169 O 0.93853 0.59231 0.30937 0.0
O170 O 0.03228 0.46483 0.12571 0.0
O171 O 0.93421 0.62551 0.17397 0.0
O172 O 0.02692 0.54993 0.32457 0.0
O173 O 0.84497 0.45595 0.15991 0.0
O174 O 0.02245 0.38264 0.22822 0.0
O175 O 0.85819 0.48696 0.27692 0.0
Sc176 Sc 0.18846 0.94749 0.96999 0.0
Sc177 Sc 0.2289 0.07083 0.06385 0.0
Sc178 Sc 0.31875 0.02324 0.96498 0.0
O179 O 0.24641 0.00633 0.00665 0.0
C180 C 0.31041 0.88464 -0.00918 0.0
C181 C 0.12304 0.97407 0.0875 0.0
C182 C 0.34077 0.01492 0.10862 0.0
C183 C 0.13728 0.08246 0.96275 0.0
C184 C 0.26311 0.97868 0.85686 0.0
C185 C 0.31333 0.15158 -0.0028 0.0
O186 O 0.25356 0.88055 -0.00109 0.0
O187 O 0.15193 0.02271 0.09228 0.0
O188 O 0.35982 0.02296 0.05445 0.0
O189 O 0.12913 0.02614 0.95087 0.0
O190 O 0.27083 0.02682 0.88375 0.0
O191 O 0.30217 0.13458 0.04957 0.0
O192 O 0.23299 0.93871 0.88266 0.0
O193 O 0.18428 0.10311 -0.01303 0.0
O194 O 0.30145 0.11623 0.95587 0.0
O195 O 0.13666 0.93431 0.04994 0.0
O196 O 0.3355 0.92887 0.96478 0.0
O197 O 0.28731 0.02702 0.12541 0.0
Sc198 Sc 0.68845 0.51386 -0.00881 0.0
Sc199 Sc 0.7289 0.39052 0.89732 0.0
Sc200 Sc 0.81874 0.43811 -0.0038 0.0
O201 O 0.74641 0.45503 0.95453 0.0
C202 C 0.8104 0.57671 0.97037 0.0
C203 C 0.62304 0.4873 0.87368 0.0
C204 C 0.84077 0.44643 0.85256 0.0
C205 C 0.63727 0.3789 -0.00158 0.0
C206 C 0.7631 0.48267 0.10432 0.0
C207 C 0.81332 0.30977 0.96397 0.0
O208 O 0.75356 0.5808 0.96228 0.0
O209 O 0.65193 0.43865 0.86889 0.0
O210 O 0.85982 0.4384 0.90673 0.0
O211 O 0.62913 0.43521 0.01031 0.0
O212 O 0.77082 0.43453 0.07743 0.0
O213 O 0.80217 0.32677 0.9116 0.0
O214 O 0.73298 0.52264 0.07852 0.0
O215 O 0.68428 0.35825 0.9742 0.0
O216 O 0.80144 0.34512 0.00531 0.0
O217 O 0.63665 0.52705 0.91124 0.0
O218 O 0.83549 0.53248 -0.0036 0.0
O219 O 0.78731 0.43434 0.83577 0.0
Sc220 Sc 0.64246 0.52325 0.4962 0.0
Sc221 Sc 0.73232 0.57085 0.39734 0.0
Sc222 Sc 0.77275 0.44749 0.4912 0.0
O223 O 0.7148 0.50634 0.45454 0.0
C224 C 0.6981 0.47868 0.60432 0.0
C225 C 0.64789 0.6516 0.46398 0.0
C226 C 0.82394 0.58245 0.49844 0.0
C227 C 0.62046 0.51494 0.35256 0.0
C228 C 0.6508 0.38465 0.47037 0.0
C229 C 0.83817 0.47407 0.37369 0.0
O230 O 0.69038 0.52682 0.57744 0.0
O231 O 0.65905 0.6346 0.41161 0.0
O232 O 0.83208 0.52614 0.51032 0.0
O233 O 0.6014 0.52298 0.40673 0.0
O234 O 0.70765 0.38055 0.46229 0.0
O235 O 0.8093 0.52272 0.36891 0.0
O236 O 0.6257 0.42889 0.49639 0.0
O237 O 0.67391 0.52704 0.33577 0.0
O238 O 0.82454 0.43431 0.41125 0.0
O239 O 0.65977 0.61624 0.50532 0.0
O240 O 0.72822 0.43871 0.57853 0.0
O241 O 0.77693 0.60311 0.47423 0.0
Sc242 Sc 0.14246 0.9381 0.46498 0.0
Sc243 Sc 0.23232 0.8905 0.56383 0.0
Sc244 Sc 0.27275 0.01387 0.46998 0.0
O245 O 0.2148 0.95502 0.50664 0.0
C246 C 0.19809 -0.01732 0.35686 0.0
C247 C 0.14789 0.80976 0.49719 0.0
C248 C 0.32394 0.87891 0.46273 0.0
C249 C 0.12046 0.94641 0.60862 0.0
C250 C 0.15079 0.07671 0.49081 0.0
C251 C 0.33816 -0.01272 0.58748 0.0
O252 O 0.19037 0.93454 0.38374 0.0
O253 O 0.15905 0.82675 0.54955 0.0
O254 O 0.33208 0.93522 0.45086 0.0
O255 O 0.1014 0.93837 0.55445 0.0
O256 O 0.20764 0.0808 0.49889 0.0
O257 O 0.3093 0.93863 0.59226 0.0
O258 O 0.1257 0.03247 0.46479 0.0
O259 O 0.17391 0.93431 0.62541 0.0
O260 O 0.32453 0.02705 0.54993 0.0
O261 O 0.15976 0.84512 0.45585 0.0
O262 O 0.22821 0.02265 0.38265 0.0
O263 O 0.27692 0.85825 0.48693 0.0
Sc264 Sc -0.00878 0.77289 0.01373 0.0
Sc265 Sc 0.89744 0.73257 0.89032 0.0
Sc266 Sc -0.00379 0.64264 0.93788 0.0
O267 O 0.95455 0.71497 0.95488 0.0
C268 C 0.10434 0.6982 -0.01744 0.0
C269 C -0.00149 0.82417 0.87884 0.0
C270 C 0.96412 0.64822 0.80956 0.0
C271 C 0.8737 0.83831 -0.01283 0.0
C272 C 0.97047 0.65084 0.0765 0.0
C273 C 0.85255 0.62068 0.94613 0.0
O274 O 0.07857 0.72839 0.02249 0.0
O275 O 0.97447 0.77708 0.85821 0.0
O276 O 0.0054 0.66016 0.84494 0.0
O277 O 0.9112 0.82457 0.02693 0.0
O278 O -0.00367 0.62575 0.03219 0.0
O279 O 0.83577 0.67418 0.93405 0.0
O280 O 0.96238 0.70771 0.08062 0.0
O281 O 0.86902 0.8096 0.93841 0.0
O282 O 0.90669 0.60161 0.93808 0.0
O283 O 0.01033 0.83231 0.93516 0.0
O284 O 0.07747 0.69053 0.93442 0.0
O285 O 0.91174 0.65925 0.82662 0.0
Sc286 Sc 0.46998 0.18847 0.51373 0.0
Sc287 Sc 0.56377 0.22879 0.39032 0.0
Sc288 Sc 0.465 0.31871 0.43787 0.0
O289 O 0.50666 0.24639 0.45488 0.0
C290 C 0.35686 0.26315 0.48255 0.0
C291 C 0.46271 0.13718 0.37884 0.0
C292 C 0.4971 0.31313 0.30955 0.0
C293 C 0.58751 0.12304 0.48718 0.0
C294 C 0.49072 0.31051 0.57649 0.0
C295 C 0.60866 0.34067 0.44613 0.0
O296 O 0.38263 0.23296 0.52248 0.0
O297 O 0.48675 0.18427 0.35821 0.0
O298 O 0.45581 0.30119 0.34493 0.0
O299 O 0.55 0.13679 0.52694 0.0
O300 O 0.46486 0.33561 0.53219 0.0
O301 O 0.62543 0.28717 0.43406 0.0
O302 O 0.49881 0.25364 0.58062 0.0
O303 O 0.59219 0.15175 0.43842 0.0
O304 O 0.55451 0.35974 0.43807 0.0
O305 O 0.45088 0.12904 0.43515 0.0
O306 O 0.38374 0.27082 0.43441 0.0
O307 O 0.54948 0.3021 0.32662 0.0
Sc308 Sc 0.49621 0.81872 0.02331 0.0
Sc309 Sc 0.39745 0.72879 0.07087 0.0
Sc310 Sc 0.49123 0.68848 0.94745 0.0
O311 O 0.45455 0.74639 0.00631 0.0
C312 C 0.47048 0.81052 0.88469 0.0
C313 C 0.35255 0.84067 0.01507 0.0
C314 C 0.3737 0.62305 0.97402 0.0
C315 C 0.46412 0.81314 0.15163 0.0
C316 C 0.60435 0.76316 0.97862 0.0
C317 C 0.49852 0.63718 0.08234 0.0
O318 O 0.49633 0.83562 0.929 0.0
O319 O 0.33578 0.78717 0.02715 0.0
O320 O 0.4112 0.6368 0.93425 0.0
O321 O 0.50541 0.8012 0.11625 0.0
O322 O 0.57858 0.73297 0.93869 0.0
O323 O 0.47448 0.68428 0.10297 0.0
O324 O 0.57747 0.77083 0.02677 0.0
O325 O 0.41175 0.8021 0.13457 0.0
O326 O 0.51033 0.62905 0.02602 0.0
O327 O 0.40669 0.85975 0.02312 0.0
O328 O 0.46239 0.75365 0.88056 0.0
O329 O 0.36903 0.65175 0.02278 0.0
Sc330 Sc 0.96499 0.14265 0.52332 0.0
Sc331 Sc 0.06377 0.23257 0.57086 0.0
Sc332 Sc 0.96998 0.2729 0.44746 0.0
O333 O 0.00666 0.21498 0.5063 0.0
C334 C -0.00929 0.15085 0.38469 0.0
C335 C 0.10865 0.12069 0.51505 0.0
C336 C 0.08751 0.33832 0.474 0.0
C337 C -0.0029 0.14823 0.65163 0.0
C338 C 0.85686 0.19821 0.47864 0.0
C339 C 0.96271 0.32419 0.58234 0.0
O340 O 0.96486 0.12576 0.429 0.0
O341 O 0.12543 0.17418 0.52712 0.0
O342 O 0.05 0.32457 0.43424 0.0
O343 O 0.95581 0.16017 0.61625 0.0
O344 O 0.88263 0.22841 0.4387 0.0
O345 O -0.01324 0.27709 0.60298 0.0
O346 O 0.88374 0.19055 0.52678 0.0
O347 O 0.04948 0.15926 0.63456 0.0
O348 O 0.95089 0.33232 0.52603 0.0
O349 O 0.05451 0.10162 0.52311 0.0
O350 O -0.0012 0.20772 0.38056 0.0
O351 O 0.0922 0.30961 0.52276 0.0
Sc352 Sc 0.93783 -0.00373 0.6425 0.0
Sc353 Sc 0.89036 0.89744 0.73242 0.0
Sc354 Sc 0.01368 -0.00863 0.77274 0.0
O355 O 0.95486 0.95464 0.71484 0.0
C356 C 0.07645 0.97061 0.65072 0.0
C357 C 0.9462 0.85256 0.62058 0.0
C358 C -0.01283 0.87387 0.83823 0.0
C359 C 0.80955 0.96407 0.64808 0.0
C360 C -0.01756 0.10447 0.69804 0.0
C361 C 0.87877 -0.00144 0.82399 0.0
O362 O 0.03215 -0.00352 0.62563 0.0
O363 O 0.93414 0.8358 0.67405 0.0
O364 O 0.02692 0.91139 0.82448 0.0
O365 O 0.8449 0.00538 0.66006 0.0
O366 O 0.02239 0.07872 0.72823 0.0
O367 O 0.85816 0.97443 0.77694 0.0
O368 O 0.93431 0.07759 0.69029 0.0
O369 O 0.82665 0.9117 0.6591 0.0
O370 O 0.93508 0.01046 0.83212 0.0
O371 O 0.93812 0.90673 0.6015 0.0
O372 O 0.08058 0.96253 0.70759 0.0
O373 O 0.93846 0.86908 0.80946 0.0
Sc374 Sc 0.5234 0.96508 0.14251 0.0
Sc375 Sc 0.57087 0.06391 0.23243 0.0
Sc376 Sc 0.44755 0.96998 0.27274 0.0
O377 O 0.50637 0.00671 0.21484 0.0
C378 C 0.38478 -0.00927 0.15072 0.0
C379 C 0.51503 0.10878 0.12058 0.0
C380 C 0.47405 0.08748 0.33823 0.0
C381 C 0.65168 -0.00272 0.14809 0.0
C382 C 0.47879 0.85688 0.19805 0.0
C383 C 0.58245 0.9628 0.32401 0.0
O384 O 0.42908 0.96487 0.12563 0.0
O385 O 0.52708 0.12555 0.17406 0.0
O386 O 0.4343 0.04996 0.32448 0.0
O387 O 0.61634 0.95597 0.16007 0.0
O388 O 0.43885 0.88263 0.22824 0.0
O389 O 0.60307 -0.01308 0.27695 0.0
O390 O 0.52693 0.88376 0.1903 0.0
O391 O 0.63458 0.04966 0.15911 0.0
O392 O 0.52614 0.9509 0.33213 0.0
O393 O 0.52312 0.05462 0.10151 0.0
O394 O 0.38065 -0.00119 0.20759 0.0
O395 O 0.52276 0.09228 0.30946 0.0
Sc396 Sc 0.51367 0.46998 0.18844 0.0
Sc397 Sc 0.39035 0.56391 0.22875 0.0
Sc398 Sc 0.43782 0.46509 0.31867 0.0
O399 O 0.45486 0.50672 0.24634 0.0
C400 C 0.48244 0.35688 0.26314 0.0
C401 C 0.37877 0.46279 0.13718 0.0
C402 C 0.30954 0.49729 0.31309 0.0
C403 C 0.48717 0.58748 0.12295 0.0
C404 C 0.57645 0.49074 0.31046 0.0
C405 C 0.44619 0.6088 0.34059 0.0
O406 O 0.52238 0.38264 0.23295 0.0
O407 O 0.35816 0.48692 0.18423 0.0
O408 O 0.34489 0.45598 0.30111 0.0
O409 O 0.52692 0.54996 0.1367 0.0
O410 O 0.53214 0.46488 0.33555 0.0
O411 O 0.43414 0.62556 0.28711 0.0
O412 O 0.58058 0.49882 0.25359 0.0
O413 O 0.43846 0.59228 0.15171 0.0
O414 O 0.43811 0.55463 0.35967 0.0
O415 O 0.43508 0.4509 0.12906 0.0
O416 O 0.4343 0.38376 0.27089 0.0
O417 O 0.32664 0.54966 0.30207 0.0
Sc418 Sc 0.94755 0.49138 0.68844 0.0
Sc419 Sc 0.07088 0.39746 0.72874 0.0
Sc420 Sc 0.02341 0.49628 0.81867 0.0
O421 O 0.00637 0.45465 0.74634 0.0
C422 C 0.97878 0.60448 0.76314 0.0
C423 C 0.08245 0.49858 0.63717 0.0
C424 C 0.15169 0.46409 0.81308 0.0
C425 C 0.97406 0.37388 0.62295 0.0
C426 C 0.88478 0.47063 0.81046 0.0
C427 C 0.01504 0.35257 0.84059 0.0
O428 O 0.93884 0.57873 0.73294 0.0
O429 O 0.10307 0.47446 0.68423 0.0
O430 O 0.11634 0.5054 0.80111 0.0
O431 O 0.9343 0.4114 0.63671 0.0
O432 O 0.92909 0.49648 0.83555 0.0
O433 O 0.0271 0.33581 0.78711 0.0
O434 O 0.88065 0.46255 0.75359 0.0
O435 O 0.02277 0.3691 0.65171 0.0
O436 O 0.02313 0.40674 0.85967 0.0
O437 O 0.02614 0.51047 0.62905 0.0
O438 O 0.02692 0.5776 0.77088 0.0
O439 O 0.13459 0.41171 0.80206 0.0
Sc440 Sc 0.64246 0.93799 -0.00385 0.0
Sc441 Sc 0.73237 0.89045 0.89734 0.0
Sc442 Sc 0.77272 0.01382 -0.00882 0.0
O443 O 0.71481 0.95496 0.95452 0.0
C444 C 0.65073 0.07663 0.97042 0.0
C445 C 0.62052 0.94632 0.85249 0.0
C446 C 0.83816 -0.01273 0.87369 0.0
C447 C 0.64801 0.80967 0.96398 0.0
C448 C 0.69806 -0.01737 0.1043 0.0
C449 C 0.82395 0.87887 -0.00152 0.0
O450 O 0.62563 0.03233 -0.00366 0.0
O451 O 0.67399 0.93424 0.83573 0.0
O452 O 0.82445 0.02704 0.9112 0.0
O453 O 0.65992 0.84503 0.0053 0.0
O454 O 0.72823 0.02257 0.07852 0.0
O455 O 0.77695 0.85821 0.97427 0.0
O456 O 0.69028 0.93448 0.07744 0.0
O457 O 0.65908 0.82671 0.91161 0.0
O458 O 0.8321 0.93521 0.01028 0.0
O459 O 0.60144 0.93825 0.90665 0.0
O460 O 0.70758 0.08073 0.96233 0.0
O461 O 0.80939 0.93856 0.86894 0.0
Sc462 Sc 0.14247 0.52338 0.96502 0.0
Sc463 Sc 0.23238 0.57092 0.06384 0.0
Sc464 Sc 0.27273 0.44755 0.96999 0.0
O465 O 0.21481 0.5064 0.00665 0.0
C466 C 0.15074 0.38474 -0.00926 0.0
C467 C 0.12052 0.51504 0.10868 0.0
C468 C 0.33816 0.47409 0.08748 0.0
C469 C 0.14802 0.6517 -0.0028 0.0
C470 C 0.19806 0.47875 0.85687 0.0
C471 C 0.32396 0.58249 0.9627 0.0
O472 O 0.12563 0.42904 0.96483 0.0
O473 O 0.17399 0.52712 0.12545 0.0
O474 O 0.32445 0.43432 0.04997 0.0
O475 O 0.15993 0.61634 0.95588 0.0
O476 O 0.22824 0.4388 0.88265 0.0
O477 O 0.27696 0.60316 -0.01309 0.0
O478 O 0.19029 0.5269 0.88373 0.0
O479 O 0.15909 0.63465 0.04957 0.0
O480 O 0.3321 0.52616 0.9509 0.0
O481 O 0.10145 0.52312 0.05452 0.0
O482 O 0.20758 0.38063 -0.00117 0.0
O483 O 0.30939 0.5228 0.09224 0.0
Sc484 Sc 0.18849 0.51382 0.46998 0.0
Sc485 Sc 0.22883 0.39044 0.56382 0.0
Sc486 Sc 0.31875 0.43798 0.46502 0.0
O487 O 0.2464 0.45496 0.50665 0.0
C488 C 0.26316 0.48263 0.35687 0.0
C489 C 0.13726 0.37888 0.46268 0.0
C490 C 0.31319 0.30966 0.49719 0.0
C491 C 0.12305 0.48727 0.58747 0.0
C492 C 0.31048 0.57662 0.49074 0.0
C493 C 0.34068 0.4463 0.60868 0.0
O494 O 0.23298 0.52257 0.38264 0.0
O495 O 0.18426 0.35821 0.48688 0.0
O496 O 0.30129 0.34502 0.45587 0.0
O497 O 0.13677 0.52704 0.54996 0.0
O498 O 0.33559 0.53232 0.46483 0.0
O499 O 0.28721 0.43423 0.62544 0.0
O500 O 0.25364 0.58073 0.49883 0.0
O501 O 0.15181 0.43855 0.59222 0.0
O502 O 0.35976 0.43823 0.55453 0.0
O503 O 0.12911 0.43521 0.45089 0.0
O504 O 0.27093 0.43447 0.38373 0.0
O505 O 0.30212 0.3267 0.54956 0.0
Sc506 Sc 0.68849 0.94754 0.4912 0.0
Sc507 Sc 0.72882 0.07093 0.39736 0.0
Sc508 Sc 0.81875 0.02339 0.49616 0.0
O509 O 0.7464 0.00641 0.45453 0.0
C510 C 0.76317 0.97873 0.60431 0.0
C511 C 0.63726 0.08248 0.49851 0.0
C512 C 0.81319 0.15171 0.464 0.0
C513 C 0.62305 0.9741 0.37371 0.0
C514 C 0.81049 0.88475 0.47043 0.0
C515 C 0.84067 0.01507 0.35249 0.0
O516 O 0.73298 0.93879 0.57854 0.0
O517 O 0.68426 0.10316 0.4743 0.0
O518 O 0.80129 0.11634 0.50531 0.0
O519 O 0.63678 0.93432 0.41121 0.0
O520 O 0.83559 0.92905 0.49633 0.0
O521 O 0.7872 0.02715 0.33573 0.0
O522 O 0.75364 0.88064 0.46235 0.0
O523 O 0.65181 0.02283 0.36897 0.0
O524 O 0.85976 0.02314 0.40665 0.0
O525 O 0.62911 0.02615 0.51029 0.0
O526 O 0.77093 0.02689 0.57745 0.0
O527 O 0.80212 0.13467 0.41162 0.0
loop_
_geom_bond_atom_site_label_1
_geom_bond_atom_site_label_2
_geom_bond_distance
_geom_bond_site_symmetry_2
_ccdc_geom_bond_type
Sc0 O3 2.025 1_656 S
Sc0 O10 2.107 . S
Sc0 O13 2.105 1_556 S
Sc0 O16 2.105 . S
Sc0 O19 2.105 1_655 S
Sc1 O3 2.025 . S
Sc1 O11 2.105 . S
Sc1 O15 2.105 . S
Sc1 O17 2.105 . S
Sc1 O21 2.105 . S
Sc2 O3 2.025 1_655 S
Sc2 O12 2.105 1_655 S
Sc2 O14 2.105 . S
Sc2 O18 2.105 . S
Sc2 O20 2.105 1_654 S
O3 Sc0 2.025 1_454 S
O3 Sc1 2.025 . S
O3 Sc2 2.025 1_455 S
C4 O10 1.266 1_455 S
C4 O20 1.268 . S
C5 O11 1.268 . S
C5 O19 1.268 1_554 S
C6 O12 1.268 . S
C6 O21 1.268 . S
C7 O13 1.268 . S
C7 O17 1.268 1_655 S
C8 O14 1.268 . S
C8 O16 1.268 1_554 S
C9 O15 1.268 1_655 S
C9 O18 1.268 . S
O10 Sc0 2.107 . S
O10 C4 1.266 1_655 S
O11 Sc1 2.105 . S
O11 C5 1.268 . S
O12 Sc2 2.105 1_455 S
O12 C6 1.268 . S
O13 Sc0 2.105 1_554 S
O13 C7 1.268 . S
O14 Sc2 2.105 . S
O14 C8 1.268 . S
O15 Sc1 2.105 . S
O15 C9 1.268 1_455 S
O16 Sc0 2.105 . S
O16 C8 1.268 1_556 S
O17 Sc1 2.105 . S
O17 C7 1.268 1_455 S
O18 Sc2 2.105 . S
O18 C9 1.268 . S
O19 Sc0 2.105 1_455 S
O19 C5 1.268 1_556 S
O20 Sc2 2.105 1_456 S
O20 C4 1.268 . S
O21 Sc1 2.105 . S
O21 C6 1.268 . S
Sc22 O25 2.025 . S
Sc22 O32 2.105 . S
Sc22 O35 2.105 . S
Sc22 O38 2.105 . S
Sc22 O41 2.105 . S
Sc23 O25 2.025 . S
Sc23 O33 2.105 . S
Sc23 O37 2.105 . S
Sc23 O39 2.105 . S
Sc23 O43 2.105 . S
Sc24 O25 2.025 . S
Sc24 O34 2.105 . S
Sc24 O36 2.105 . S
Sc24 O40 2.105 . S
Sc24 O42 2.105 . S
O25 Sc22 2.025 . S
O25 Sc23 2.025 . S
O25 Sc24 2.025 . S
C26 O32 1.268 . S
C26 O42 1.268 . S
C27 O33 1.268 . S
C27 O41 1.268 . S
C28 O34 1.268 . S
C28 O43 1.268 . S
C29 O35 1.268 . S
C29 O39 1.268 . S
C30 O36 1.268 . S
C30 O38 1.268 . S
C31 O37 1.268 . S
C31 O40 1.268 . S
O32 Sc22 2.105 . S
O32 C26 1.268 . S
O33 Sc23 2.105 . S
O33 C27 1.268 . S
O34 Sc24 2.105 . S
O34 C28 1.268 . S
O35 Sc22 2.105 . S
O35 C29 1.268 . S
O36 Sc24 2.105 . S
O36 C30 1.268 . S
O37 Sc23 2.105 . S
O37 C31 1.268 . S
O38 Sc22 2.105 . S
O38 C30 1.268 . S
O39 Sc23 2.105 . S
O39 C29 1.268 . S
O40 Sc24 2.105 . S
O40 C31 1.268 . S
O41 Sc22 2.105 . S
O41 C27 1.268 . S
O42 Sc24 2.105 . S
O42 C26 1.268 . S
O43 Sc23 2.105 . S
O43 C28 1.268 . S
Sc44 O47 2.025 . S
Sc44 O54 2.105 . S
Sc44 O57 2.105 . S
Sc44 O60 2.105 1_556 S
Sc44 O63 2.105 . S
Sc45 O47 2.025 . S
Sc45 O55 2.105 . S
Sc45 O59 2.105 . S
Sc45 O61 2.105 . S
Sc45 O65 2.105 . S
Sc46 O47 2.025 1_554 S
Sc46 O56 2.105 1_554 S
Sc46 O58 2.105 . S
Sc46 O62 2.105 . S
Sc46 O64 2.105 . S
O47 Sc44 2.025 . S
O47 Sc45 2.025 . S
O47 Sc46 2.025 1_556 S
C48 O54 1.268 . S
C48 O64 1.268 1_556 S
C49 O55 1.268 . S
C49 O63 1.268 . S
C50 O56 1.268 . S
C50 O65 1.268 . S
C51 O57 1.268 . S
C51 O61 1.268 . S
C52 O58 1.268 . S
C52 O60 1.268 . S
C53 O59 1.268 . S
C53 O62 1.268 1_556 S
O54 Sc44 2.105 . S
O54 C48 1.268 . S
O55 Sc45 2.105 . S
O55 C49 1.268 . S
O56 Sc46 2.105 1_556 S
O56 C50 1.268 . S
O57 Sc44 2.105 . S
O57 C51 1.268 . S
O58 Sc46 2.105 . S
O58 C52 1.268 . S
O59 Sc45 2.105 . S
O59 C53 1.268 . S
O60 Sc44 2.105 1_554 S
O60 C52 1.268 . S
O61 Sc45 2.105 . S
O61 C51 1.268 . S
O62 Sc46 2.105 . S
O62 C53 1.268 1_554 S
O63 Sc44 2.105 . S
O63 C49 1.268 . S
O64 Sc46 2.105 . S
O64 C48 1.268 1_554 S
O65 Sc45 2.105 . S
O65 C50 1.268 . S
Sc66 O69 2.025 1_455 S
Sc66 O76 2.105 . S
Sc66 O79 2.105 1_455 S
Sc66 O82 2.105 1_455 S
Sc66 O85 2.105 . S
Sc67 O69 2.025 . S
Sc67 O77 2.105 . S
Sc67 O81 2.105 . S
Sc67 O83 2.105 . S
Sc67 O87 2.105 . S
Sc68 O69 2.025 1_455 S
Sc68 O78 2.105 . S
Sc68 O80 2.107 . S
Sc68 O84 2.105 1_455 S
Sc68 O86 2.105 . S
O69 Sc66 2.025 1_655 S
O69 Sc67 2.025 . S
O69 Sc68 2.025 1_655 S
C70 O76 1.268 . S
C70 O86 1.268 . S
C71 O77 1.268 1_455 S
C71 O85 1.268 . S
C72 O78 1.268 . S
C72 O87 1.268 1_455 S
C73 O79 1.268 . S
C73 O83 1.268 . S
C74 O80 1.266 1_655 S
C74 O82 1.268 . S
C75 O81 1.268 . S
C75 O84 1.268 . S
O76 Sc66 2.105 . S
O76 C70 1.268 . S
O77 Sc67 2.105 . S
O77 C71 1.268 1_655 S
O78 Sc68 2.105 . S
O78 C72 1.268 . S
O79 Sc66 2.105 1_655 S
O79 C73 1.268 . S
O80 Sc68 2.107 . S
O80 C74 1.266 1_455 S
O81 Sc67 2.105 . S
O81 C75 1.268 . S
O82 Sc66 2.105 1_655 S
O82 C74 1.268 . S
O83 Sc67 2.105 . S
O83 C73 1.268 . S
O84 Sc68 2.105 1_655 S
O84 C75 1.268 . S
O85 Sc66 2.105 . S
O85 C71 1.268 . S
O86 Sc68 2.105 . S
O86 C70 1.268 . S
O87 Sc67 2.105 . S
O87 C72 1.268 1_655 S
Sc88 O91 2.025 1_665 S
Sc88 O98 2.107 . S
Sc88 O101 2.105 1_655 S
Sc88 O104 2.105 . S
Sc88 O107 2.105 1_565 S
Sc89 O91 2.025 . S
Sc89 O99 2.105 . S
Sc89 O103 2.105 . S
Sc89 O105 2.105 . S
Sc89 O109 2.105 . S
Sc90 O91 2.025 1_565 S
Sc90 O100 2.105 1_565 S
Sc90 O102 2.105 . S
Sc90 O106 2.105 . S
Sc90 O108 2.105 1_465 S
O91 Sc88 2.025 1_445 S
O91 Sc89 2.025 . S
O91 Sc90 2.025 1_545 S
C92 O98 1.266 1_545 S
C92 O108 1.268 . S
C93 O99 1.268 . S
C93 O107 1.268 1_455 S
C94 O100 1.268 . S
C94 O109 1.268 . S
C95 O101 1.268 . S
C95 O105 1.268 1_565 S
C96 O102 1.268 . S
C96 O104 1.268 1_455 S
C97 O103 1.268 1_565 S
C97 O106 1.268 . S
O98 Sc88 2.107 . S
O98 C92 1.266 1_565 S
O99 Sc89 2.105 . S
O99 C93 1.268 . S
O100 Sc90 2.105 1_545 S
O100 C94 1.268 . S
O101 Sc88 2.105 1_455 S
O101 C95 1.268 . S
O102 Sc90 2.105 . S
O102 C96 1.268 . S
O103 Sc89 2.105 . S
O103 C97 1.268 1_545 S
O104 Sc88 2.105 . S
O104 C96 1.268 1_655 S
O105 Sc89 2.105 . S
O105 C95 1.268 1_545 S
O106 Sc90 2.105 . S
O106 C97 1.268 . S
O107 Sc88 2.105 1_545 S
O107 C93 1.268 1_655 S
O108 Sc90 2.105 1_645 S
O108 C92 1.268 . S
O109 Sc89 2.105 . S
O109 C94 1.268 . S
Sc110 O113 2.025 1_545 S
Sc110 O120 2.107 . S
Sc110 O123 2.105 . S
Sc110 O126 2.105 . S
Sc110 O129 2.105 1_545 S
Sc111 O113 2.025 . S
Sc111 O121 2.105 . S
Sc111 O125 2.105 . S
Sc111 O127 2.105 . S
Sc111 O131 2.105 . S
Sc112 O113 2.025 1_545 S
Sc112 O122 2.105 1_545 S
Sc112 O124 2.105 . S
Sc112 O128 2.105 . S
Sc112 O130 2.105 1_545 S
O113 Sc110 2.025 1_565 S
O113 Sc111 2.025 . S
O113 Sc112 2.025 1_565 S
C114 O120 1.266 1_565 S
C114 O130 1.268 . S
C115 O121 1.268 . S
C115 O129 1.268 . S
C116 O122 1.268 . S
C116 O131 1.268 . S
C117 O123 1.268 . S
C117 O127 1.268 1_545 S
C118 O124 1.268 . S
C118 O126 1.268 . S
C119 O125 1.268 1_545 S
C119 O128 1.268 . S
O120 Sc110 2.107 . S
O120 C114 1.266 1_545 S
O121 Sc111 2.105 . S
O121 C115 1.268 . S
O122 Sc112 2.105 1_565 S
O122 C116 1.268 . S
O123 Sc110 2.105 . S
O123 C117 1.268 . S
O124 Sc112 2.105 . S
O124 C118 1.268 . S
O125 Sc111 2.105 . S
O125 C119 1.268 1_565 S
O126 Sc110 2.105 . S
O126 C118 1.268 . S
O127 Sc111 2.105 . S
O127 C117 1.268 1_565 S
O128 Sc112 2.105 . S
O128 C119 1.268 . S
O129 Sc110 2.105 1_565 S
O129 C115 1.268 . S
O130 Sc112 2.105 1_565 S
O130 C114 1.268 . S
O131 Sc111 2.105 . S
O131 C116 1.268 . S
Sc132 O135 2.025 . S
Sc132 O142 2.105 . S
Sc132 O145 2.105 . S
Sc132 O148 2.105 . S
Sc132 O151 2.105 . S
Sc133 O135 2.025 . S
Sc133 O143 2.105 . S
Sc133 O147 2.105 . S
Sc133 O149 2.105 . S
Sc133 O153 2.105 . S
Sc134 O135 2.025 . S
Sc134 O144 2.105 . S
Sc134 O146 2.105 . S
Sc134 O150 2.105 . S
Sc134 O152 2.105 . S
O135 Sc132 2.025 . S
O135 Sc133 2.025 . S
O135 Sc134 2.025 . S
C136 O142 1.268 . S
C136 O152 1.268 . S
C137 O143 1.268 . S
C137 O151 1.268 . S
C138 O144 1.268 . S
C138 O153 1.268 . S
C139 O145 1.268 . S
C139 O149 1.268 . S
C140 O146 1.268 . S
C140 O148 1.268 . S
C141 O147 1.268 . S
C141 O150 1.268 . S
O142 Sc132 2.105 . S
O142 C136 1.268 . S
O143 Sc133 2.105 . S
O143 C137 1.268 . S
O144 Sc134 2.105 . S
O144 C138 1.268 . S
O145 Sc132 2.105 . S
O145 C139 1.268 . S
O146 Sc134 2.105 . S
O146 C140 1.268 . S
O147 Sc133 2.105 . S
O147 C141 1.268 . S
O148 Sc132 2.105 . S
O148 C140 1.268 . S
O149 Sc133 2.105 . S
O149 C139 1.268 . S
O150 Sc134 2.105 . S
O150 C141 1.268 . S
O151 Sc132 2.105 . S
O151 C137 1.268 . S
O152 Sc134 2.105 . S
O152 C136 1.268 . S
O153 Sc133 2.105 . S
O153 C138 1.268 . S
Sc154 O157 2.025 . S
Sc154 O164 2.105 . S
Sc154 O167 2.105 . S
Sc154 O170 2.105 1_655 S
Sc154 O173 2.105 . S
Sc155 O157 2.025 . S
Sc155 O165 2.105 . S
Sc155 O169 2.105 . S
Sc155 O171 2.105 . S
Sc155 O175 2.105 . S
Sc156 O157 2.025 1_455 S
Sc156 O166 2.105 1_455 S
Sc156 O168 2.105 . S
Sc156 O172 2.105 . S
Sc156 O174 2.105 . S
O157 Sc154 2.025 . S
O157 Sc155 2.025 . S
O157 Sc156 2.025 1_655 S
C158 O164 1.268 . S
C158 O174 1.268 1_655 S
C159 O165 1.268 . S
C159 O173 1.268 . S
C160 O166 1.268 . S
C160 O175 1.268 . S
C161 O167 1.268 . S
C161 O171 1.268 . S
C162 O168 1.268 . S
C162 O170 1.268 . S
C163 O169 1.268 . S
C163 O172 1.268 1_655 S
O164 Sc154 2.105 . S
O164 C158 1.268 . S
O165 Sc155 2.105 . S
O165 C159 1.268 . S
O166 Sc156 2.105 1_655 S
O166 C160 1.268 . S
O167 Sc154 2.105 . S
O167 C161 1.268 . S
O168 Sc156 2.105 . S
O168 C162 1.268 . S
O169 Sc155 2.105 . S
O169 C163 1.268 . S
O170 Sc154 2.105 1_455 S
O170 C162 1.268 . S
O171 Sc155 2.105 . S
O171 C161 1.268 . S
O172 Sc156 2.105 . S
O172 C163 1.268 1_455 S
O173 Sc154 2.105 . S
O173 C159 1.268 . S
O174 Sc156 2.105 . S
O174 C158 1.268 1_455 S
O175 Sc155 2.105 . S
O175 C160 1.268 . S
Sc176 O179 2.025 1_566 S
Sc176 O186 2.107 . S
Sc176 O189 2.105 1_565 S
Sc176 O192 2.105 . S
Sc176 O195 2.105 1_556 S
Sc177 O179 2.025 . S
Sc177 O187 2.105 . S
Sc177 O191 2.105 . S
Sc177 O193 2.105 . S
Sc177 O197 2.105 . S
Sc178 O179 2.025 1_556 S
Sc178 O188 2.105 1_556 S
Sc178 O190 2.105 . S
Sc178 O194 2.105 . S
Sc178 O196 2.105 1_546 S
O179 Sc176 2.025 1_544 S
O179 Sc177 2.025 . S
O179 Sc178 2.025 1_554 S
C180 O186 1.266 1_554 S
C180 O196 1.268 . S
C181 O187 1.268 . S
C181 O195 1.268 1_545 S
C182 O188 1.268 . S
C182 O197 1.268 . S
C183 O189 1.268 . S
C183 O193 1.268 1_556 S
C184 O190 1.268 . S
C184 O192 1.268 1_545 S
C185 O191 1.268 1_556 S
C185 O194 1.268 . S
O186 Sc176 2.107 . S
O186 C180 1.266 1_556 S
O187 Sc177 2.105 . S
O187 C181 1.268 . S
O188 Sc178 2.105 1_554 S
O188 C182 1.268 . S
O189 Sc176 2.105 1_545 S
O189 C183 1.268 . S
O190 Sc178 2.105 . S
O190 C184 1.268 . S
O191 Sc177 2.105 . S
O191 C185 1.268 1_554 S
O192 Sc176 2.105 . S
O192 C184 1.268 1_565 S
O193 Sc177 2.105 . S
O193 C183 1.268 1_554 S
O194 Sc178 2.105 . S
O194 C185 1.268 . S
O195 Sc176 2.105 1_554 S
O195 C181 1.268 1_565 S
O196 Sc178 2.105 1_564 S
O196 C180 1.268 . S
O197 Sc177 2.105 . S
O197 C182 1.268 . S
Sc198 O201 2.025 1_554 S
Sc198 O208 2.107 . S
Sc198 O211 2.105 . S
Sc198 O214 2.105 . S
Sc198 O217 2.105 1_554 S
Sc199 O201 2.025 . S
Sc199 O209 2.105 . S
Sc199 O213 2.105 . S
Sc199 O215 2.105 . S
Sc199 O219 2.105 . S
Sc200 O201 2.025 1_554 S
Sc200 O210 2.105 1_554 S
Sc200 O212 2.105 . S
Sc200 O216 2.105 . S
Sc200 O218 2.105 1_554 S
O201 Sc198 2.025 1_556 S
O201 Sc199 2.025 . S
O201 Sc200 2.025 1_556 S
C202 O208 1.266 1_556 S
C202 O218 1.268 . S
C203 O209 1.268 . S
C203 O217 1.268 . S
C204 O210 1.268 . S
C204 O219 1.268 . S
C205 O211 1.268 . S
C205 O215 1.268 1_554 S
C206 O212 1.268 . S
C206 O214 1.268 . S
C207 O213 1.268 1_554 S
C207 O216 1.268 . S
O208 Sc198 2.107 . S
O208 C202 1.266 1_554 S
O209 Sc199 2.105 . S
O209 C203 1.268 . S
O210 Sc200 2.105 1_556 S
O210 C204 1.268 . S
O211 Sc198 2.105 . S
O211 C205 1.268 . S
O212 Sc200 2.105 . S
O212 C206 1.268 . S
O213 Sc199 2.105 . S
O213 C207 1.268 1_556 S
O214 Sc198 2.105 . S
O214 C206 1.268 . S
O215 Sc199 2.105 . S
O215 C205 1.268 1_556 S
O216 Sc200 2.105 . S
O216 C207 1.268 . S
O217 Sc198 2.105 1_556 S
O217 C203 1.268 . S
O218 Sc200 2.105 1_556 S
O218 C202 1.268 . S
O219 Sc199 2.105 . S
O219 C204 1.268 . S
Sc220 O223 2.025 . S
Sc220 O230 2.105 . S
Sc220 O233 2.105 . S
Sc220 O236 2.105 . S
Sc220 O239 2.105 . S
Sc221 O223 2.025 . S
Sc221 O231 2.105 . S
Sc221 O235 2.105 . S
Sc221 O237 2.105 . S
Sc221 O241 2.105 . S
Sc222 O223 2.025 . S
Sc222 O232 2.105 . S
Sc222 O234 2.105 . S
Sc222 O238 2.105 . S
Sc222 O240 2.105 . S
O223 Sc220 2.025 . S
O223 Sc221 2.025 . S
O223 Sc222 2.025 . S
C224 O230 1.268 . S
C224 O240 1.268 . S
C225 O231 1.268 . S
C225 O239 1.268 . S
C226 O232 1.268 . S
C226 O241 1.268 . S
C227 O233 1.268 . S
C227 O237 1.268 . S
C228 O234 1.268 . S
C228 O236 1.268 . S
C229 O235 1.268 . S
C229 O238 1.268 . S
O230 Sc220 2.105 . S
O230 C224 1.268 . S
O231 Sc221 2.105 . S
O231 C225 1.268 . S
O232 Sc222 2.105 . S
O232 C226 1.268 . S
O233 Sc220 2.105 . S
O233 C227 1.268 . S
O234 Sc222 2.105 . S
O234 C228 1.268 . S
O235 Sc221 2.105 . S
O235 C229 1.268 . S
O236 Sc220 2.105 . S
O236 C228 1.268 . S
O237 Sc221 2.105 . S
O237 C227 1.268 . S
O238 Sc222 2.105 . S
O238 C229 1.268 . S
O239 Sc220 2.105 . S
O239 C225 1.268 . S
O240 Sc222 2.105 . S
O240 C224 1.268 . S
O241 Sc221 2.105 . S
O241 C226 1.268 . S
Sc242 O245 2.025 . S
Sc242 O252 2.105 . S
Sc242 O255 2.105 . S
Sc242 O258 2.105 1_565 S
Sc242 O261 2.105 . S
Sc243 O245 2.025 . S
Sc243 O253 2.105 . S
Sc243 O257 2.105 . S
Sc243 O259 2.105 . S
Sc243 O263 2.105 . S
Sc244 O245 2.025 1_545 S
Sc244 O254 2.105 1_545 S
Sc244 O256 2.105 . S
Sc244 O260 2.105 . S
Sc244 O262 2.105 . S
O245 Sc242 2.025 . S
O245 Sc243 2.025 . S
O245 Sc244 2.025 1_565 S
C246 O252 1.268 . S
C246 O262 1.268 1_565 S
C247 O253 1.268 . S
C247 O261 1.268 . S
C248 O254 1.268 . S
C248 O263 1.268 . S
C249 O255 1.268 . S
C249 O259 1.268 . S
C250 O256 1.268 . S
C250 O258 1.268 . S
C251 O257 1.268 . S
C251 O260 1.268 1_565 S
O252 Sc242 2.105 . S
O252 C246 1.268 . S
O253 Sc243 2.105 . S
O253 C247 1.268 . S
O254 Sc244 2.105 1_565 S
O254 C248 1.268 . S
O255 Sc242 2.105 . S
O255 C249 1.268 . S
O256 Sc244 2.105 . S
O256 C250 1.268 . S
O257 Sc243 2.105 . S
O257 C251 1.268 . S
O258 Sc242 2.105 1_545 S
O258 C250 1.268 . S
O259 Sc243 2.105 . S
O259 C249 1.268 . S
O260 Sc244 2.105 . S
O260 C251 1.268 1_545 S
O261 Sc242 2.105 . S
O261 C247 1.268 . S
O262 Sc244 2.105 . S
O262 C246 1.268 1_545 S
O263 Sc243 2.105 . S
O263 C248 1.268 . S
Sc264 O267 2.025 1_454 S
Sc264 O274 2.105 . S
Sc264 O277 2.105 1_455 S
Sc264 O280 2.107 . S
Sc264 O283 2.105 1_554 S
Sc265 O267 2.025 . S
Sc265 O275 2.105 . S
Sc265 O279 2.105 . S
Sc265 O281 2.105 . S
Sc265 O285 2.105 . S
Sc266 O267 2.025 1_455 S
Sc266 O276 2.105 . S
Sc266 O278 2.105 1_456 S
Sc266 O282 2.105 1_455 S
Sc266 O284 2.105 . S
O267 Sc264 2.025 1_656 S
O267 Sc265 2.025 . S
O267 Sc266 2.025 1_655 S
C268 O274 1.268 1_556 S
C268 O284 1.268 . S
C269 O275 1.268 1_455 S
C269 O283 1.268 . S
C270 O276 1.268 . S
C270 O285 1.268 1_455 S
C271 O277 1.268 1_556 S
C271 O281 1.268 . S
C272 O278 1.268 . S
C272 O280 1.266 1_655 S
C273 O279 1.268 . S
C273 O282 1.268 . S
O274 Sc264 2.105 . S
O274 C268 1.268 1_554 S
O275 Sc265 2.105 . S
O275 C269 1.268 1_655 S
O276 Sc266 2.105 . S
O276 C270 1.268 . S
O277 Sc264 2.105 1_655 S
O277 C271 1.268 1_554 S
O278 Sc266 2.105 1_654 S
O278 C272 1.268 . S
O279 Sc265 2.105 . S
O279 C273 1.268 . S
O280 Sc264 2.107 . S
O280 C272 1.266 1_455 S
O281 Sc265 2.105 . S
O281 C271 1.268 . S
O282 Sc266 2.105 1_655 S
O282 C273 1.268 . S
O283 Sc264 2.105 1_556 S
O283 C269 1.268 . S
O284 Sc266 2.105 . S
O284 C268 1.268 . S
O285 Sc265 2.105 . S
O285 C270 1.268 1_655 S
Sc286 O289 2.025 . S
Sc286 O296 2.105 . S
Sc286 O299 2.105 . S
Sc286 O302 2.105 . S
Sc286 O305 2.105 . S
Sc287 O289 2.025 . S
Sc287 O297 2.105 . S
Sc287 O301 2.105 . S
Sc287 O303 2.105 . S
Sc287 O307 2.105 . S
Sc288 O289 2.025 . S
Sc288 O298 2.105 . S
Sc288 O300 2.105 . S
Sc288 O304 2.105 . S
Sc288 O306 2.105 . S
O289 Sc286 2.025 . S
O289 Sc287 2.025 . S
O289 Sc288 2.025 . S
C290 O296 1.268 . S
C290 O306 1.268 . S
C291 O297 1.268 . S
C291 O305 1.268 . S
C292 O298 1.268 . S
C292 O307 1.268 . S
C293 O299 1.268 . S
C293 O303 1.268 . S
C294 O300 1.268 . S
C294 O302 1.268 . S
C295 O301 1.268 . S
C295 O304 1.268 . S
O296 Sc286 2.105 . S
O296 C290 1.268 . S
O297 Sc287 2.105 . S
O297 C291 1.268 . S
O298 Sc288 2.105 . S
O298 C292 1.268 . S
O299 Sc286 2.105 . S
O299 C293 1.268 . S
O300 Sc288 2.105 . S
O300 C294 1.268 . S
O301 Sc287 2.105 . S
O301 C295 1.268 . S
O302 Sc286 2.105 . S
O302 C294 1.268 . S
O303 Sc287 2.105 . S
O303 C293 1.268 . S
O304 Sc288 2.105 . S
O304 C295 1.268 . S
O305 Sc286 2.105 . S
O305 C291 1.268 . S
O306 Sc288 2.105 . S
O306 C290 1.268 . S
O307 Sc287 2.105 . S
O307 C292 1.268 . S
Sc308 O311 2.025 . S
Sc308 O318 2.105 1_554 S
Sc308 O321 2.105 . S
Sc308 O324 2.105 . S
Sc308 O327 2.105 . S
Sc309 O311 2.025 . S
Sc309 O319 2.105 . S
Sc309 O323 2.105 . S
Sc309 O325 2.105 . S
Sc309 O329 2.105 . S
Sc310 O311 2.025 1_556 S
Sc310 O320 2.105 . S
Sc310 O322 2.105 . S
Sc310 O326 2.105 1_556 S
Sc310 O328 2.105 . S
O311 Sc308 2.025 . S
O311 Sc309 2.025 . S
O311 Sc310 2.025 1_554 S
C312 O318 1.268 . S
C312 O328 1.268 . S
C313 O319 1.268 . S
C313 O327 1.268 . S
C314 O320 1.268 1_554 S
C314 O329 1.268 . S
C315 O321 1.268 . S
C315 O325 1.268 . S
C316 O322 1.268 1_554 S
C316 O324 1.268 . S
C317 O323 1.268 . S
C317 O326 1.268 . S
O318 Sc308 2.105 1_556 S
O318 C312 1.268 . S
O319 Sc309 2.105 . S
O319 C313 1.268 . S
O320 Sc310 2.105 . S
O320 C314 1.268 1_556 S
O321 Sc308 2.105 . S
O321 C315 1.268 . S
O322 Sc310 2.105 . S
O322 C316 1.268 1_556 S
O323 Sc309 2.105 . S
O323 C317 1.268 . S
O324 Sc308 2.105 . S
O324 C316 1.268 . S
O325 Sc309 2.105 . S
O325 C315 1.268 . S
O326 Sc310 2.105 1_554 S
O326 C317 1.268 . S
O327 Sc308 2.105 . S
O327 C313 1.268 . S
O328 Sc310 2.105 . S
O328 C312 1.268 . S
O329 Sc309 2.105 . S
O329 C314 1.268 . S
Sc330 O333 2.025 1_655 S
Sc330 O340 2.105 1_655 S
Sc330 O343 2.105 . S
Sc330 O346 2.105 . S
Sc330 O349 2.105 1_655 S
Sc331 O333 2.025 . S
Sc331 O341 2.105 . S
Sc331 O345 2.105 . S
Sc331 O347 2.105 . S
Sc331 O351 2.105 . S
Sc332 O333 2.025 1_655 S
Sc332 O342 2.105 1_655 S
Sc332 O344 2.105 . S
Sc332 O348 2.105 . S
Sc332 O350 2.107 . S
O333 Sc330 2.025 1_455 S
O333 Sc331 2.025 . S
O333 Sc332 2.025 1_455 S
C334 O340 1.268 . S
C334 O350 1.266 1_455 S
C335 O341 1.268 . S
C335 O349 1.268 . S
C336 O342 1.268 . S
C336 O351 1.268 . S
C337 O343 1.268 . S
C337 O347 1.268 1_655 S
C338 O344 1.268 . S
C338 O346 1.268 . S
C339 O345 1.268 1_655 S
C339 O348 1.268 . S
O340 Sc330 2.105 1_455 S
O340 C334 1.268 . S
O341 Sc331 2.105 . S
O341 C335 1.268 . S
O342 Sc332 2.105 1_455 S
O342 C336 1.268 . S
O343 Sc330 2.105 . S
O343 C337 1.268 . S
O344 Sc332 2.105 . S
O344 C338 1.268 . S
O345 Sc331 2.105 . S
O345 C339 1.268 1_455 S
O346 Sc330 2.105 . S
O346 C338 1.268 . S
O347 Sc331 2.105 . S
O347 C337 1.268 1_455 S
O348 Sc332 2.105 . S
O348 C339 1.268 . S
O349 Sc330 2.105 1_455 S
O349 C335 1.268 . S
O350 Sc332 2.107 . S
O350 C334 1.266 1_655 S
O351 Sc331 2.105 . S
O351 C336 1.268 . S
Sc352 O355 2.025 1_545 S
Sc352 O362 2.105 1_645 S
Sc352 O365 2.105 . S
Sc352 O368 2.105 . S
Sc352 O371 2.105 1_545 S
Sc353 O355 2.025 . S
Sc353 O363 2.105 . S
Sc353 O367 2.105 . S
Sc353 O369 2.105 . S
Sc353 O373 2.105 . S
Sc354 O355 2.025 1_445 S
Sc354 O364 2.105 1_545 S
Sc354 O366 2.105 . S
Sc354 O370 2.105 1_455 S
Sc354 O372 2.107 . S
O355 Sc352 2.025 1_565 S
O355 Sc353 2.025 . S
O355 Sc354 2.025 1_665 S
C356 O362 1.268 . S
C356 O372 1.266 1_565 S
C357 O363 1.268 . S
C357 O371 1.268 . S
C358 O364 1.268 1_655 S
C358 O373 1.268 . S
C359 O365 1.268 . S
C359 O369 1.268 1_545 S
C360 O366 1.268 1_655 S
C360 O368 1.268 . S
C361 O367 1.268 1_545 S
C361 O370 1.268 . S
O362 Sc352 2.105 1_465 S
O362 C356 1.268 . S
O363 Sc353 2.105 . S
O363 C357 1.268 . S
O364 Sc354 2.105 1_565 S
O364 C358 1.268 1_455 S
O365 Sc352 2.105 . S
O365 C359 1.268 . S
O366 Sc354 2.105 . S
O366 C360 1.268 1_455 S
O367 Sc353 2.105 . S
O367 C361 1.268 1_565 S
O368 Sc352 2.105 . S
O368 C360 1.268 . S
O369 Sc353 2.105 . S
O369 C359 1.268 1_565 S
O370 Sc354 2.105 1_655 S
O370 C361 1.268 . S
O371 Sc352 2.105 1_565 S
O371 C357 1.268 . S
O372 Sc354 2.107 . S
O372 C356 1.266 1_545 S
O373 Sc353 2.105 . S
O373 C358 1.268 . S
Sc374 O377 2.025 1_565 S
Sc374 O384 2.105 1_565 S
Sc374 O387 2.105 . S
Sc374 O390 2.105 . S
Sc374 O393 2.105 1_565 S
Sc375 O377 2.025 . S
Sc375 O385 2.105 . S
Sc375 O389 2.105 . S
Sc375 O391 2.105 . S
Sc375 O395 2.105 . S
Sc376 O377 2.025 1_565 S
Sc376 O386 2.105 1_565 S
Sc376 O388 2.105 . S
Sc376 O392 2.105 . S
Sc376 O394 2.107 . S
O377 Sc374 2.025 1_545 S
O377 Sc375 2.025 . S
O377 Sc376 2.025 1_545 S
C378 O384 1.268 . S
C378 O394 1.266 1_545 S
C379 O385 1.268 . S
C379 O393 1.268 . S
C380 O386 1.268 . S
C380 O395 1.268 . S
C381 O387 1.268 . S
C381 O391 1.268 1_565 S
C382 O388 1.268 . S
C382 O390 1.268 . S
C383 O389 1.268 1_565 S
C383 O392 1.268 . S
O384 Sc374 2.105 1_545 S
O384 C378 1.268 . S
O385 Sc375 2.105 . S
O385 C379 1.268 . S
O386 Sc376 2.105 1_545 S
O386 C380 1.268 . S
O387 Sc374 2.105 . S
O387 C381 1.268 . S
O388 Sc376 2.105 . S
O388 C382 1.268 . S
O389 Sc375 2.105 . S
O389 C383 1.268 1_545 S
O390 Sc374 2.105 . S
O390 C382 1.268 . S
O391 Sc375 2.105 . S
O391 C381 1.268 1_545 S
O392 Sc376 2.105 . S
O392 C383 1.268 . S
O393 Sc374 2.105 1_545 S
O393 C379 1.268 . S
O394 Sc376 2.107 . S
O394 C378 1.266 1_565 S
O395 Sc375 2.105 . S
O395 C380 1.268 . S
Sc396 O399 2.025 . S
Sc396 O406 2.105 . S
Sc396 O409 2.105 . S
Sc396 O412 2.105 . S
Sc396 O415 2.105 . S
Sc397 O399 2.025 . S
Sc397 O407 2.105 . S
Sc397 O411 2.105 . S
Sc397 O413 2.105 . S
Sc397 O417 2.105 . S
Sc398 O399 2.025 . S
Sc398 O408 2.105 . S
Sc398 O410 2.105 . S
Sc398 O414 2.105 . S
Sc398 O416 2.105 . S
O399 Sc396 2.025 . S
O399 Sc397 2.025 . S
O399 Sc398 2.025 . S
C400 O406 1.268 . S
C400 O416 1.268 . S
C401 O407 1.268 . S
C401 O415 1.268 . S
C402 O408 1.268 . S
C402 O417 1.268 . S
C403 O409 1.268 . S
C403 O413 1.268 . S
C404 O410 1.268 . S
C404 O412 1.268 . S
C405 O411 1.268 . S
C405 O414 1.268 . S
O406 Sc396 2.105 . S
O406 C400 1.268 . S
O407 Sc397 2.105 . S
O407 C401 1.268 . S
O408 Sc398 2.105 . S
O408 C402 1.268 . S
O409 Sc396 2.105 . S
O409 C403 1.268 . S
O410 Sc398 2.105 . S
O410 C404 1.268 . S
O411 Sc397 2.105 . S
O411 C405 1.268 . S
O412 Sc396 2.105 . S
O412 C404 1.268 . S
O413 Sc397 2.105 . S
O413 C403 1.268 . S
O414 Sc398 2.105 . S
O414 C405 1.268 . S
O415 Sc396 2.105 . S
O415 C401 1.268 . S
O416 Sc398 2.105 . S
O416 C400 1.268 . S
O417 Sc397 2.105 . S
O417 C402 1.268 . S
Sc418 O421 2.025 1_655 S
Sc418 O428 2.105 . S
Sc418 O431 2.105 . S
Sc418 O434 2.105 . S
Sc418 O437 2.105 1_655 S
Sc419 O421 2.025 . S
Sc419 O429 2.105 . S
Sc419 O433 2.105 . S
Sc419 O435 2.105 . S
Sc419 O439 2.105 . S
Sc420 O421 2.025 . S
Sc420 O430 2.105 . S
Sc420 O432 2.105 1_455 S
Sc420 O436 2.105 . S
Sc420 O438 2.105 . S
O421 Sc418 2.025 1_455 S
O421 Sc419 2.025 . S
O421 Sc420 2.025 . S
C422 O428 1.268 1_455 S
C422 O438 1.268 . S
C423 O429 1.268 . S
C423 O437 1.268 . S
C424 O430 1.268 . S
C424 O439 1.268 . S
C425 O431 1.268 1_455 S
C425 O435 1.268 . S
C426 O432 1.268 . S
C426 O434 1.268 . S
C427 O433 1.268 . S
C427 O436 1.268 . S
O428 Sc418 2.105 . S
O428 C422 1.268 1_655 S
O429 Sc419 2.105 . S
O429 C423 1.268 . S
O430 Sc420 2.105 . S
O430 C424 1.268 . S
O431 Sc418 2.105 . S
O431 C425 1.268 1_655 S
O432 Sc420 2.105 1_655 S
O432 C426 1.268 . S
O433 Sc419 2.105 . S
O433 C427 1.268 . S
O434 Sc418 2.105 . S
O434 C426 1.268 . S
O435 Sc419 2.105 . S
O435 C425 1.268 . S
O436 Sc420 2.105 . S
O436 C427 1.268 . S
O437 Sc418 2.105 1_455 S
O437 C423 1.268 . S
O438 Sc420 2.105 . S
O438 C422 1.268 . S
O439 Sc419 2.105 . S
O439 C424 1.268 . S
Sc440 O443 2.025 1_554 S
Sc440 O450 2.105 1_564 S
Sc440 O453 2.105 . S
Sc440 O456 2.105 . S
Sc440 O459 2.105 1_554 S
Sc441 O443 2.025 . S
Sc441 O451 2.105 . S
Sc441 O455 2.105 . S
Sc441 O457 2.105 . S
Sc441 O461 2.105 . S
Sc442 O443 2.025 1_544 S
Sc442 O452 2.105 1_554 S
Sc442 O454 2.105 . S
Sc442 O458 2.105 1_545 S
Sc442 O460 2.107 . S
O443 Sc440 2.025 1_556 S
O443 Sc441 2.025 . S
O443 Sc442 2.025 1_566 S
C444 O450 1.268 . S
C444 O460 1.266 1_556 S
C445 O451 1.268 . S
C445 O459 1.268 . S
C446 O452 1.268 1_565 S
C446 O461 1.268 . S
C447 O453 1.268 . S
C447 O457 1.268 1_554 S
C448 O454 1.268 1_565 S
C448 O456 1.268 . S
C449 O455 1.268 1_554 S
C449 O458 1.268 . S
O450 Sc440 2.105 1_546 S
O450 C444 1.268 . S
O451 Sc441 2.105 . S
O451 C445 1.268 . S
O452 Sc442 2.105 1_556 S
O452 C446 1.268 1_545 S
O453 Sc440 2.105 . S
O453 C447 1.268 . S
O454 Sc442 2.105 . S
O454 C448 1.268 1_545 S
O455 Sc441 2.105 . S
O455 C449 1.268 1_556 S
O456 Sc440 2.105 . S
O456 C448 1.268 . S
O457 Sc441 2.105 . S
O457 C447 1.268 1_556 S
O458 Sc442 2.105 1_565 S
O458 C449 1.268 . S
O459 Sc440 2.105 1_556 S
O459 C445 1.268 . S
O460 Sc442 2.107 . S
O460 C444 1.266 1_554 S
O461 Sc441 2.105 . S
O461 C446 1.268 . S
Sc462 O465 2.025 1_556 S
Sc462 O472 2.105 1_556 S
Sc462 O475 2.105 . S
Sc462 O478 2.105 . S
Sc462 O481 2.105 1_556 S
Sc463 O465 2.025 . S
Sc463 O473 2.105 . S
Sc463 O477 2.105 . S
Sc463 O479 2.105 . S
Sc463 O483 2.105 . S
Sc464 O465 2.025 1_556 S
Sc464 O474 2.105 1_556 S
Sc464 O476 2.105 . S
Sc464 O480 2.105 . S
Sc464 O482 2.107 . S
O465 Sc462 2.025 1_554 S
O465 Sc463 2.025 . S
O465 Sc464 2.025 1_554 S
C466 O472 1.268 . S
C466 O482 1.266 1_554 S
C467 O473 1.268 . S
C467 O481 1.268 . S
C468 O474 1.268 . S
C468 O483 1.268 . S
C469 O475 1.268 . S
C469 O479 1.268 1_556 S
C470 O476 1.268 . S
C470 O478 1.268 . S
C471 O477 1.268 1_556 S
C471 O480 1.268 . S
O472 Sc462 2.105 1_554 S
O472 C466 1.268 . S
O473 Sc463 2.105 . S
O473 C467 1.268 . S
O474 Sc464 2.105 1_554 S
O474 C468 1.268 . S
O475 Sc462 2.105 . S
O475 C469 1.268 . S
O476 Sc464 2.105 . S
O476 C470 1.268 . S
O477 Sc463 2.105 . S
O477 C471 1.268 1_554 S
O478 Sc462 2.105 . S
O478 C470 1.268 . S
O479 Sc463 2.105 . S
O479 C469 1.268 1_554 S
O480 Sc464 2.105 . S
O480 C471 1.268 . S
O481 Sc462 2.105 1_554 S
O481 C467 1.268 . S
O482 Sc464 2.107 . S
O482 C466 1.266 1_556 S
O483 Sc463 2.105 . S
O483 C468 1.268 . S
Sc484 O487 2.025 . S
Sc484 O494 2.105 . S
Sc484 O497 2.105 . S
Sc484 O500 2.105 . S
Sc484 O503 2.105 . S
Sc485 O487 2.025 . S
Sc485 O495 2.105 . S
Sc485 O499 2.105 . S
Sc485 O501 2.105 . S
Sc485 O505 2.105 . S
Sc486 O487 2.025 . S
Sc486 O496 2.105 . S
Sc486 O498 2.105 . S
Sc486 O502 2.105 . S
Sc486 O504 2.105 . S
O487 Sc484 2.025 . S
O487 Sc485 2.025 . S
O487 Sc486 2.025 . S
C488 O494 1.268 . S
C488 O504 1.268 . S
C489 O495 1.268 . S
C489 O503 1.268 . S
C490 O496 1.268 . S
C490 O505 1.268 . S
C491 O497 1.268 . S
C491 O501 1.268 . S
C492 O498 1.268 . S
C492 O500 1.268 . S
C493 O499 1.268 . S
C493 O502 1.268 . S
O494 Sc484 2.105 . S
O494 C488 1.268 . S
O495 Sc485 2.105 . S
O495 C489 1.268 . S
O496 Sc486 2.105 . S
O496 C490 1.268 . S
O497 Sc484 2.105 . S
O497 C491 1.268 . S
O498 Sc486 2.105 . S
O498 C492 1.268 . S
O499 Sc485 2.105 . S
O499 C493 1.268 . S
O500 Sc484 2.105 . S
O500 C492 1.268 . S
O501 Sc485 2.105 . S
O501 C491 1.268 . S
O502 Sc486 2.105 . S
O502 C493 1.268 . S
O503 Sc484 2.105 . S
O503 C489 1.268 . S
O504 Sc486 2.105 . S
O504 C488 1.268 . S
O505 Sc485 2.105 . S
O505 C490 1.268 . S
Sc506 O509 2.025 1_565 S
Sc506 O516 2.105 . S
Sc506 O519 2.105 . S
Sc506 O522 2.105 . S
Sc506 O525 2.105 1_565 S
Sc507 O509 2.025 . S
Sc507 O517 2.105 . S
Sc507 O521 2.105 . S
Sc507 O523 2.105 . S
Sc507 O527 2.105 . S
Sc508 O509 2.025 . S
Sc508 O518 2.105 . S
Sc508 O520 2.105 1_545 S
Sc508 O524 2.105 . S
Sc508 O526 2.105 . S
O509 Sc506 2.025 1_545 S
O509 Sc507 2.025 . S
O509 Sc508 2.025 . S
C510 O516 1.268 1_545 S
C510 O526 1.268 . S
C511 O517 1.268 . S
C511 O525 1.268 . S
C512 O518 1.268 . S
C512 O527 1.268 . S
C513 O519 1.268 1_545 S
C513 O523 1.268 . S
C514 O520 1.268 . S
C514 O522 1.268 . S
C515 O521 1.268 . S
C515 O524 1.268 . S
O516 Sc506 2.105 . S
O516 C510 1.268 1_565 S
O517 Sc507 2.105 . S
O517 C511 1.268 . S
O518 Sc508 2.105 . S
O518 C512 1.268 . S
O519 Sc506 2.105 . S
O519 C513 1.268 1_565 S
O520 Sc508 2.105 1_565 S
O520 C514 1.268 . S
O521 Sc507 2.105 . S
O521 C515 1.268 . S
O522 Sc506 2.105 . S
O522 C514 1.268 . S
O523 Sc507 2.105 . S
O523 C513 1.268 . S
O524 Sc508 2.105 . S
O524 C515 1.268 . S
O525 Sc506 2.105 1_545 S
O525 C511 1.268 . S
O526 Sc508 2.105 . S
O526 C510 1.268 . S
O527 Sc507 2.105 . S
O527 C512 1.268 . S
C7 C93 1.038 1_655 S
C29 C115 1.038 . S
C141 C50 1.038 . S
C72 C163 1.038 1_455 S
C95 C181 1.038 1_565 S
C117 C251 1.038 1_545 S
C138 C203 1.038 . S
C160 C229 1.038 . S
C183 C5 1.038 1_556 S
C53 C205 1.038 1_556 S
C75 C226 1.038 . S
C248 C27 1.038 . S
C358 C269 1.038 1_655 S
C291 C380 1.038 . S
C317 C403 1.038 . S
C425 C339 1.038 1_455 S
C361 C446 1.038 1_545 S
C383 C513 1.038 1_565 S
C468 C401 1.038 . S
C491 C423 1.038 . S
C449 C271 1.038 1_554 S
C314 C471 1.038 1_554 S
C489 C336 1.038 . S
C293 C511 1.038 . S
C207 C8 1.176 . S
C30 C225 1.176 . S
C185 C48 1.176 . S
C70 C247 1.176 . S
C96 C71 1.176 . S
C118 C49 1.176 . S
C31 C136 1.176 . S
C9 C158 1.176 . S
C119 C184 1.176 . S
C206 C159 1.176 . S
C137 C224 1.176 . S
C97 C246 1.176 . S
C469 C268 1.176 . S
C290 C490 1.176 . S
C316 C447 1.176 . S
C338 C512 1.176 . S
C337 C360 1.176 . S
C315 C382 1.176 . S
C400 C292 1.176 . S
C422 C270 1.176 . S
C381 C448 1.176 . S
C470 C424 1.176 . S
C402 C488 1.176 . S
C510 C359 1.176 . S
C4 C427 1.661 . S
C26 C405 1.661 . S
C379 C52 1.661 . S
C357 C74 1.661 . S
C515 C92 1.661 . S
C114 C445 1.661 . S
C140 C493 1.661 . S
C162 C467 1.661 . S
C313 C180 1.661 . S
C273 C202 1.661 . S
C295 C228 1.661 . S
C335 C250 1.661 . S
C161 C272 1.661 . S
C139 C294 1.661 . S
C116 C312 1.661 . S
C94 C334 1.661 . S
C356 C249 1.661 . S
C378 C182 1.661 . S
C404 C227 1.661 . S
C426 C204 1.661 . S
C444 C51 1.661 . S
C6 C466 1.661 . S
C28 C492 1.661 . S
C73 C514 1.661 . S
