# Generated by pormake.
# Topology zff, (5)-cn, num edge types: 1
# Building blocks:
#     Node 0, Type 0, BuildingBlock: XOMCOT_clean_sbu_1, # of connection points: 5
#     Node 1, Type 0, BuildingBlock: XOMCOT_clean_sbu_1, # of connection points: 5
#     Node 2, Type 0, BuildingBlock: XOMCOT_clean_sbu_1, # of connection points: 5
#     Node 3, Type 0, BuildingBlock: XOMCOT_clean_sbu_1, # of connection points: 5
#     Node 4, Type 0, BuildingBlock: XOMCOT_clean_sbu_1, # of connection points: 5
#     Node 5, Type 0, BuildingBlock: XOMCOT_clean_sbu_1, # of connection points: 5
#     Node 6, Type 0, BuildingBlock: XOMCOT_clean_sbu_1, # of connection points: 5
#     Node 7, Type 0, BuildingBlock: XOMCOT_clean_sbu_1, # of connection points: 5
#     Node 8, Type 0, BuildingBlock: XOMCOT_clean_sbu_1, # of connection points: 5
#     Node 9, Type 0, BuildingBlock: XOMCOT_clean_sbu_1, # of connection points: 5
#     Node 10, Type 0, BuildingBlock: XOMCOT_clean_sbu_1, # of connection points: 5
#     Node 11, Type 0, BuildingBlock: XOMCOT_clean_sbu_1, # of connection points: 5
#     Node 12, Type 0, BuildingBlock: XOMCOT_clean_sbu_1, # of connection points: 5
#     Node 13, Type 0, BuildingBlock: XOMCOT_clean_sbu_1, # of connection points: 5
#     Node 14, Type 0, BuildingBlock: XOMCOT_clean_sbu_1, # of connection points: 5
#     Node 15, Type 0, BuildingBlock: XOMCOT_clean_sbu_1, # of connection points: 5
#     Edge 16, Type (0, 0), BuildingBlock: AJUNOK_clean_linker_0, # of connection points: 2
#     Edge 17, Type (0, 0), BuildingBlock: AJUNOK_clean_linker_0, # of connection points: 2
#     Edge 18, Type (0, 0), BuildingBlock: AJUNOK_clean_linker_0, # of connection points: 2
#     Edge 19, Type (0, 0), BuildingBlock: AJUNOK_clean_linker_0, # of connection points: 2
#     Edge 20, Type (0, 0), BuildingBlock: AJUNOK_clean_linker_0, # of connection points: 2
#     Edge 21, Type (0, 0), BuildingBlock: AJUNOK_clean_linker_0, # of connection points: 2
#     Edge 22, Type (0, 0), BuildingBlock: AJUNOK_clean_linker_0, # of connection points: 2
#     Edge 23, Type (0, 0), BuildingBlock: AJUNOK_clean_linker_0, # of connection points: 2
#     Edge 24, Type (0, 0), BuildingBlock: AJUNOK_clean_linker_0, # of connection points: 2
#     Edge 25, Type (0, 0), BuildingBlock: AJUNOK_clean_linker_0, # of connection points: 2
#     Edge 26, Type (0, 0), BuildingBlock: AJUNOK_clean_linker_0, # of connection points: 2
#     Edge 27, Type (0, 0), BuildingBlock: AJUNOK_clean_linker_0, # of connection points: 2
#     Edge 28, Type (0, 0), BuildingBlock: AJUNOK_clean_linker_0, # of connection points: 2
#     Edge 29, Type (0, 0), BuildingBlock: AJUNOK_clean_linker_0, # of connection points: 2
#     Edge 30, Type (0, 0), BuildingBlock: AJUNOK_clean_linker_0, # of connection points: 2
#     Edge 31, Type (0, 0), BuildingBlock: AJUNOK_clean_linker_0, # of connection points: 2
#     Edge 32, Type (0, 0), BuildingBlock: AJUNOK_clean_linker_0, # of connection points: 2
#     Edge 33, Type (0, 0), BuildingBlock: AJUNOK_clean_linker_0, # of connection points: 2
#     Edge 34, Type (0, 0), BuildingBlock: AJUNOK_clean_linker_0, # of connection points: 2
#     Edge 35, Type (0, 0), BuildingBlock: AJUNOK_clean_linker_0, # of connection points: 2
#     Edge 36, Type (0, 0), BuildingBlock: AJUNOK_clean_linker_0, # of connection points: 2
#     Edge 37, Type (0, 0), BuildingBlock: AJUNOK_clean_linker_0, # of connection points: 2
#     Edge 38, Type (0, 0), BuildingBlock: AJUNOK_clean_linker_0, # of connection points: 2
#     Edge 39, Type (0, 0), BuildingBlock: AJUNOK_clean_linker_0, # of connection points: 2
#     Edge 40, Type (0, 0), BuildingBlock: AJUNOK_clean_linker_0, # of connection points: 2
#     Edge 41, Type (0, 0), BuildingBlock: AJUNOK_clean_linker_0, # of connection points: 2
#     Edge 42, Type (0, 0), BuildingBlock: AJUNOK_clean_linker_0, # of connection points: 2
#     Edge 43, Type (0, 0), BuildingBlock: AJUNOK_clean_linker_0, # of connection points: 2
#     Edge 44, Type (0, 0), BuildingBlock: AJUNOK_clean_linker_0, # of connection points: 2
#     Edge 45, Type (0, 0), BuildingBlock: AJUNOK_clean_linker_0, # of connection points: 2
#     Edge 46, Type (0, 0), BuildingBlock: AJUNOK_clean_linker_0, # of connection points: 2
#     Edge 47, Type (0, 0), BuildingBlock: AJUNOK_clean_linker_0, # of connection points: 2
#     Edge 48, Type (0, 0), BuildingBlock: AJUNOK_clean_linker_0, # of connection points: 2
#     Edge 49, Type (0, 0), BuildingBlock: AJUNOK_clean_linker_0, # of connection points: 2
#     Edge 50, Type (0, 0), BuildingBlock: AJUNOK_clean_linker_0, # of connection points: 2
#     Edge 51, Type (0, 0), BuildingBlock: AJUNOK_clean_linker_0, # of connection points: 2
#     Edge 52, Type (0, 0), BuildingBlock: AJUNOK_clean_linker_0, # of connection points: 2
#     Edge 53, Type (0, 0), BuildingBlock: AJUNOK_clean_linker_0, # of connection points: 2
#     Edge 54, Type (0, 0), BuildingBlock: AJUNOK_clean_linker_0, # of connection points: 2
#     Edge 55, Type (0, 0), BuildingBlock: AJUNOK_clean_linker_0, # of connection points: 2
# Relax obj value: 0.149
# Max RMSD: 0.189
# Mean RMSD: 0.189
data_MOF--net-zff--node1-XOMCOT_clean_sbu_1--edge1-AJUNOK_clean_linker_0
_symmetry_space_group_name_H-M    P1
_symmetry_Int_Tables_number       1
_symmetry_cell_setting            triclinic
loop_
_symmetry_equiv_pos_as_xyz
'x, y, z'
_cell_length_a     29.005393
_cell_length_b     28.905939
_cell_length_c     48.759243
_cell_angle_alpha  89.85316
_cell_angle_beta   90.35895
_cell_angle_gamma 89.776865
loop_
_atom_site_label
_atom_site_type_symbol
_atom_site_fract_x
_atom_site_fract_y
_atom_site_fract_z
_atom_type_partial_charge
C0 C 0.90875 0.27856 0.46672 0.0
C1 C 0.91351 0.27537 0.49472 0.0
N2 N 0.95864 0.27782 0.50114 0.0
N3 N 0.95069 0.28271 0.45519 0.0
C4 C 0.98054 0.28226 0.47675 0.0
H5 H 0.87642 0.28007 0.45562 0.0
Co6 Co 0.95989 0.29725 0.41789 0.0
C7 C 0.03565 0.23845 0.39827 0.0
O8 O 0.0126 0.23461 0.37515 0.0
N9 N 0.96927 0.31524 0.37993 0.0
C10 C 0.96508 0.32682 0.33451 0.0
C11 C 0.94637 0.30375 0.35662 0.0
C12 C 0.00166 0.3458 0.371 0.0
N13 N -0.0004 0.35368 0.34363 0.0
O14 O -0.01032 0.35171 0.42878 0.0
H15 H 0.91807 0.2798 0.35525 0.0
H16 H 0.02689 0.36194 0.38426 0.0
O17 O 0.01865 0.26238 0.41791 0.0
C18 C 0.95977 0.38374 0.43112 0.0
O19 O 0.91613 0.37343 0.42716 0.0
N20 N 0.92531 0.24452 0.40839 0.0
C21 C 0.85949 0.17438 0.40658 0.0
C22 C 0.90522 0.16446 0.41391 0.0
C23 C 0.93739 0.20023 0.41542 0.0
C24 C 0.88083 0.25456 0.40116 0.0
C25 C 0.84736 0.21996 0.39998 0.0
H26 H 0.97087 0.19246 0.42402 0.0
H27 H 0.8708 0.29018 0.3976 0.0
H28 H 0.0172 0.28805 0.47471 0.0
H29 H 0.88569 0.2728 0.50933 0.0
H30 H 0.95354 0.32472 0.31339 0.0
H31 H 0.91542 0.1297 0.41976 0.0
H32 H 0.81219 0.22886 0.39445 0.0
C33 C 0.69229 0.90154 0.47478 0.0
C34 C 0.69746 0.90572 0.50268 0.0
N35 N 0.69374 0.95072 0.50937 0.0
N36 N 0.68568 0.94372 0.46347 0.0
C37 C 0.68658 0.97314 0.48516 0.0
H38 H 0.69121 0.86932 0.46361 0.0
Co39 Co 0.66776 0.95246 0.42641 0.0
C40 C 0.72763 0.02331 0.40338 0.0
O41 O 0.72945 -0.00333 0.3816 0.0
N42 N 0.64595 0.96142 0.38922 0.0
C43 C 0.61413 0.95185 0.34779 0.0
C44 C 0.63693 0.93039 0.36924 0.0
C45 C 0.6273 0.00149 0.37922 0.0
N46 N 0.60766 -0.00321 0.35398 0.0
O47 O 0.6147 0.98386 0.43817 0.0
H48 H 0.6439 0.89384 0.37028 0.0
H49 H 0.62789 0.03346 0.39065 0.0
O50 O 0.70327 0.01073 0.42399 0.0
C51 C 0.58339 0.95393 0.44219 0.0
O52 O 0.59399 0.90997 0.43917 0.0
N53 N 0.7196 0.91658 0.41573 0.0
C54 C 0.79182 0.85338 0.40868 0.0
C55 C 0.80045 0.89804 0.4184 0.0
C56 C 0.76383 0.92863 0.42251 0.0
C57 C 0.71051 0.87234 0.40764 0.0
C58 C 0.74615 0.84031 0.40363 0.0
H59 H 0.77113 0.96098 0.43258 0.0
H60 H 0.67528 0.8607 0.40615 0.0
H61 H 0.67922 0.00977 0.48339 0.0
H62 H 0.70231 0.87753 0.51709 0.0
H63 H 0.60127 0.93485 0.32954 0.0
H64 H 0.8351 0.9086 0.42388 0.0
H65 H 0.73801 0.80546 0.39715 0.0
C66 C 0.06499 0.67705 0.4687 0.0
C67 C 0.05978 0.68213 0.49649 0.0
N68 N 0.01445 0.68297 0.50227 0.0
N69 N 0.02323 0.67536 0.45644 0.0
C70 C -0.00707 0.67882 0.4775 0.0
H71 H 0.09747 0.67272 0.45828 0.0
Co72 Co 0.01531 0.66147 0.41868 0.0
C73 C 0.9463 0.72577 0.39692 0.0
O74 O 0.97238 0.72866 0.37506 0.0
N75 N 0.00721 0.64414 0.38055 0.0
C76 C 0.01669 0.62543 0.33644 0.0
C77 C 0.03639 0.64627 0.35904 0.0
C78 C 0.96991 0.62144 0.37007 0.0
N79 N 0.97485 0.60932 0.34333 0.0
O80 O 0.98208 0.60828 0.42848 0.0
H81 H 0.07036 0.66112 0.35932 0.0
H82 H 0.93945 0.61411 0.38196 0.0
O83 O 0.95865 0.69931 0.41682 0.0
C84 C 0.01206 0.57644 0.43177 0.0
O85 O 0.05575 0.58721 0.42894 0.0
N86 N 0.0535 0.71247 0.41024 0.0
C87 C 0.12485 0.77769 0.41169 0.0
C88 C 0.07925 0.79061 0.41753 0.0
C89 C 0.04429 0.75734 0.41733 0.0
C90 C 0.09765 0.69943 0.40458 0.0
C91 C 0.13365 0.73134 0.405 0.0
H92 H 0.01086 0.76729 0.42492 0.0
H93 H 0.10566 0.66316 0.40188 0.0
H94 H 0.95594 0.6773 0.47469 0.0
H95 H 0.08744 0.68283 0.51149 0.0
H96 H 0.03272 0.62123 0.31661 0.0
H97 H 0.07093 0.82575 0.42342 0.0
H98 H 0.16849 0.71901 0.4018 0.0
C99 C 0.29192 0.06211 0.47863 0.0
C100 C 0.28814 0.061 0.50677 0.0
N101 N 0.28793 0.0165 0.51506 0.0
N102 N 0.29414 0.01852 0.46894 0.0
C103 C 0.29173 -0.00859 0.49166 0.0
H104 H 0.29395 0.09287 0.46603 0.0
Co105 Co 0.30451 0.0029 0.43179 0.0
C106 C 0.27732 0.90622 0.42791 0.0
O107 O 0.3189 0.89646 0.41906 0.0
N108 N 0.3158 0.98637 0.39409 0.0
C109 C 0.30331 0.9589 0.35195 0.0
C110 C 0.28315 0.97758 0.37494 0.0
C111 C 0.35578 0.97289 0.38181 0.0
N112 N 0.34912 0.95529 0.35625 0.0
O113 O 0.35956 0.9727 0.44246 0.0
H114 H 0.24649 0.9817 0.37807 0.0
H115 H 0.38905 0.9745 0.39178 0.0
O116 O 0.26772 0.94724 0.43564 0.0
C117 C 0.39038 0.00372 0.44506 0.0
O118 O 0.37837 0.04704 0.4408 0.0
N119 N 0.25235 0.0374 0.42175 0.0
C120 C 0.18369 0.1039 0.41329 0.0
C121 C 0.17423 0.063 0.42776 0.0
C122 C 0.20916 0.03007 0.43185 0.0
C123 C 0.26206 0.0767 0.40748 0.0
C124 C 0.22821 0.11033 0.40292 0.0
H125 H 0.20204 -0.00011 0.44422 0.0
H126 H 0.29691 0.08278 0.4006 0.0
H127 H 0.29461 0.95409 0.49109 0.0
H128 H 0.28599 0.09074 0.52015 0.0
H129 H 0.28509 0.94628 0.33404 0.0
H130 H 0.14032 0.05688 0.43619 0.0
H131 H 0.23725 0.14184 0.39219 0.0
C132 C 0.90437 0.68191 0.65089 0.0
C133 C 0.90438 0.68423 0.62268 0.0
N134 N 0.94835 0.68239 0.61398 0.0
N135 N 0.94816 0.67908 0.66024 0.0
C136 C 0.97426 0.67964 0.63722 0.0
H137 H 0.8742 0.68143 0.66381 0.0
Co138 Co 0.96505 0.66968 0.69746 0.0
C139 C 0.06214 0.69801 0.69677 0.0
O140 O 0.07558 0.65551 0.70221 0.0
N141 N 0.98324 0.6593 0.73516 0.0
C142 C 0.006 0.67289 0.77826 0.0
C143 C -0.01272 0.69202 0.75478 0.0
C144 C 0.00064 0.62044 0.74749 0.0
N145 N 0.01448 0.62772 0.77379 0.0
O146 O -0.00515 0.61447 0.68723 0.0
H147 H 0.9793 0.72828 0.75192 0.0
H148 H 0.00457 0.58757 0.73723 0.0
O149 O 0.01953 0.7069 0.69304 0.0
C150 C 0.96333 0.58395 0.68578 0.0
O151 O 0.92085 0.5965 0.69142 0.0
N152 N 0.93066 0.72218 0.7069 0.0
C153 C 0.86462 0.79159 0.71363 0.0
C154 C 0.90545 0.80038 0.6993 0.0
C155 C 0.93807 0.76512 0.69604 0.0
C156 C 0.89146 0.71312 0.72116 0.0
C157 C 0.85803 0.74741 0.72489 0.0
H158 H 0.96796 0.77175 0.68355 0.0
H159 H 0.88527 0.67845 0.72864 0.0
H160 H 0.01145 0.67636 0.63744 0.0
H161 H 0.87422 0.6871 0.60959 0.0
H162 H 0.01514 0.69156 0.79671 0.0
H163 H 0.9117 0.834 0.69022 0.0
H164 H 0.82655 0.73888 0.73557 0.0
C165 C 0.29563 0.90505 0.66285 0.0
C166 C 0.29056 0.90751 0.63487 0.0
N167 N 0.28628 0.95228 0.62749 0.0
N168 N 0.2945 0.94799 0.67355 0.0
C169 C 0.28932 0.97625 0.65141 0.0
H170 H 0.30156 0.87381 0.6746 0.0
Co171 Co 0.30568 0.95907 0.71132 0.0
C172 C 0.242 0.0313 0.72875 0.0
O173 O 0.23508 0.00588 0.75066 0.0
N174 N 0.32008 0.97038 0.74989 0.0
C175 C 0.32707 0.96742 0.79563 0.0
C176 C 0.30703 0.9476 0.77286 0.0
C177 C 0.34826 0.00431 0.75984 0.0
N178 N 0.35367 0.0029 0.78754 0.0
O179 O 0.36004 -0.00982 0.7018 0.0
H180 H 0.28324 0.91913 0.77369 0.0
H181 H 0.36505 0.02959 0.74697 0.0
O182 O 0.26915 0.01669 0.70998 0.0
C183 C 0.39117 0.95905 0.70055 0.0
O184 O 0.37939 0.91604 0.70564 0.0
N185 N 0.25364 0.92264 0.71926 0.0
C186 C 0.18972 0.85073 0.71457 0.0
C187 C 0.17831 0.8958 0.70608 0.0
C188 C 0.21091 0.93119 0.7083 0.0
C189 C 0.26482 0.87922 0.72813 0.0
C190 C 0.23304 0.84318 0.72674 0.0
H191 H 0.20308 0.96404 0.69874 0.0
H192 H 0.29976 0.87175 0.73471 0.0
H193 H 0.28882 0.01362 0.65273 0.0
H194 H 0.29231 0.8785 0.62092 0.0
H195 H 0.32121 0.95704 0.81664 0.0
H196 H 0.14563 0.90303 0.69605 0.0
H197 H 0.24319 0.8092 0.73401 0.0
C198 C 0.0727 0.29135 0.64923 0.0
C199 C 0.07217 0.28642 0.62113 0.0
N200 N 0.02794 0.28475 0.61246 0.0
N201 N 0.02905 0.29296 0.65848 0.0
C202 C 0.00255 0.28914 0.6356 0.0
H203 H 0.10302 0.29483 0.66208 0.0
Co204 Co 0.01126 0.30326 0.69516 0.0
C205 C 0.91415 0.27512 0.69224 0.0
O206 O 0.90057 0.31775 0.69691 0.0
N207 N -0.00812 0.31421 0.73211 0.0
C208 C 0.95625 0.30231 0.77178 0.0
C209 C 0.9766 0.28154 0.74954 0.0
C210 C 0.98103 0.35476 0.74474 0.0
N211 N 0.95839 0.34879 0.76894 0.0
O212 O 0.98131 0.35807 0.68396 0.0
H213 H 0.97736 0.24478 0.74549 0.0
H214 H -0.0113 0.38784 0.73572 0.0
O215 O 0.95692 0.26594 0.68995 0.0
C216 C 0.01104 0.39 0.68122 0.0
O217 O 0.05475 0.37958 0.68516 0.0
N218 N 0.04511 0.25113 0.70588 0.0
C219 C 0.11105 0.1822 0.71468 0.0
C220 C 0.07137 0.17323 0.69902 0.0
C221 C 0.03874 0.20826 0.69478 0.0
C222 C 0.08304 0.2603 0.7215 0.0
C223 C 0.11643 0.22624 0.72627 0.0
H224 H 0.00979 0.20158 0.68134 0.0
H225 H 0.08842 0.29492 0.72922 0.0
H226 H 0.96526 0.29021 0.63589 0.0
H227 H 0.10219 0.28615 0.60807 0.0
H228 H 0.93878 0.28394 0.78799 0.0
H229 H 0.06607 0.13967 0.6897 0.0
H230 H 0.14702 0.23483 0.73801 0.0
C231 C 0.67753 0.06756 0.65522 0.0
C232 C 0.68297 0.06488 0.62733 0.0
N233 N 0.68979 0.02028 0.62044 0.0
N234 N 0.68083 0.02494 0.66635 0.0
C235 C 0.68784 -0.00339 0.64457 0.0
H236 H 0.66971 0.09863 0.6666 0.0
Co237 Co 0.66958 0.01445 0.70404 0.0
C238 C 0.73345 0.94315 0.72336 0.0
O239 O 0.73898 0.96871 0.74535 0.0
N240 N 0.6549 0.00394 0.74236 0.0
C241 C 0.64029 0.01035 0.78721 0.0
C242 C 0.66015 0.0311 0.76474 0.0
C243 C 0.63174 0.96651 0.7523 0.0
N244 N 0.62228 0.96959 0.77947 0.0
O245 O 0.61612 0.98174 0.69462 0.0
H246 H 0.67692 0.06423 0.76529 0.0
H247 H 0.62072 0.93798 0.73958 0.0
O248 O 0.7071 0.9574 0.70385 0.0
C249 C 0.58307 0.01067 0.69278 0.0
O250 O 0.5924 0.05485 0.69574 0.0
N251 N 0.72092 0.05181 0.71211 0.0
C252 C 0.78504 0.12354 0.70807 0.0
C253 C 0.79693 0.0782 0.70059 0.0
C254 C 0.76423 0.04291 0.70245 0.0
C255 C 0.70913 0.09559 0.71975 0.0
C256 C 0.74098 0.13157 0.71874 0.0
H257 H 0.77269 0.00975 0.69367 0.0
H258 H 0.67369 0.10348 0.72474 0.0
H259 H 0.69033 0.95935 0.64629 0.0
H260 H 0.67955 0.0935 0.61311 0.0
H261 H 0.63916 0.02437 0.80777 0.0
H262 H 0.83018 0.07061 0.69165 0.0
H263 H 0.73034 0.16582 0.72509 0.0
C264 C 0.40554 0.80177 0.97294 0.0
C265 C 0.40658 0.79839 1.00111 0.0
N266 N 0.45091 0.79595 1.0095 0.0
N267 N 0.44899 0.80146 0.9633 0.0
C268 C 0.47594 0.7983 0.98609 0.0
H269 H 0.375 0.80545 0.96028 0.0
Co270 Co 0.46502 0.8093 0.926 0.0
C271 C 0.56134 0.77755 0.92669 0.0
O272 O 0.57625 0.81978 0.9224 0.0
N273 N 0.48284 0.81801 0.88813 0.0
C274 C 0.50267 0.80364 0.84473 0.0
C275 C 0.48153 0.78634 0.8678 0.0
C276 C 0.50571 0.85428 0.87657 0.0
N277 N 0.51875 0.84631 0.85027 0.0
O278 O 0.49607 0.86412 0.9358 0.0
H279 H 0.46753 0.7519 0.86964 0.0
H280 H 0.51478 0.88537 0.88758 0.0
O281 O 0.51857 0.77029 0.93046 0.0
C282 C 0.46436 0.89484 0.93602 0.0
O283 O 0.42236 0.88226 0.92915 0.0
N284 N 0.42879 0.75767 0.91728 0.0
C285 C 0.35676 0.6938 0.91588 0.0
C286 C 0.3983 0.68336 0.92954 0.0
C287 C 0.43388 0.71588 0.93012 0.0
C288 C 0.38962 0.76755 0.90281 0.0
C289 C 0.35348 0.73579 0.90145 0.0
H290 H 0.46376 0.70892 0.94284 0.0
H291 H 0.38539 0.80134 0.89351 0.0
H292 H 0.51324 0.79841 0.98555 0.0
H293 H 0.37687 0.79966 1.0144 0.0
H294 H 0.50581 0.78572 0.8254 0.0
H295 H 0.40223 0.65157 0.94114 0.0
H296 H 0.32257 0.74485 0.89006 0.0
C297 C 0.1812 0.40981 0.97089 0.0
C298 C 0.18309 0.41039 0.99912 0.0
N299 N 0.18221 0.45472 1.00755 0.0
N300 N 0.17953 0.45359 0.96129 0.0
C301 C 0.18042 0.48027 0.98417 0.0
H302 H 0.18014 0.37926 0.95815 0.0
Co303 Co 0.1709 0.46998 0.92391 0.0
C304 C 0.20104 0.56692 0.9237 0.0
O305 O 0.15955 0.58035 0.91614 0.0
N306 N 0.16117 0.48751 0.88618 0.0
C307 C 0.17439 0.51496 0.84411 0.0
C308 C 0.19413 0.49595 0.8674 0.0
C309 C 0.12153 0.50166 0.87347 0.0
N310 N 0.12858 0.51919 0.84794 0.0
O311 O 0.11641 0.50127 0.93357 0.0
H312 H 0.23068 0.49103 0.87091 0.0
H313 H 0.0881 0.50028 0.883 0.0
O314 O 0.20895 0.52427 0.92853 0.0
C315 C 0.08498 0.47082 0.9357 0.0
O316 O 0.09632 0.42721 0.93201 0.0
N317 N 0.22256 0.43433 0.91491 0.0
C318 C 0.28756 0.36309 0.91339 0.0
C319 C 0.29811 0.40546 0.92589 0.0
C320 C 0.26498 0.44066 0.92659 0.0
C321 C 0.21251 0.39436 0.90143 0.0
C322 C 0.24456 0.35818 0.90044 0.0
H323 H 0.27222 0.47123 0.93852 0.0
H324 H 0.17824 0.3893 0.89311 0.0
H325 H 0.17805 0.51765 0.98373 0.0
H326 H 0.18495 0.38038 1.0124 0.0
H327 H 0.19285 0.52719 0.8263 0.0
H328 H 0.33051 0.41025 0.93666 0.0
H329 H 0.23514 0.32598 0.89061 0.0
C330 C 0.56679 0.1913 0.97944 0.0
C331 C 0.56493 0.19656 1.00745 0.0
N332 N 0.52045 0.19534 1.01521 0.0
N333 N 0.52368 0.18696 0.96928 0.0
C334 C 0.49613 0.18908 0.99164 0.0
H335 H 0.5978 0.18945 0.96729 0.0
Co336 Co 0.50945 0.17494 0.93208 0.0
C337 C 0.41233 0.20636 0.92887 0.0
O338 O 0.39726 0.16408 0.92502 0.0
N339 N 0.49375 0.16157 0.89418 0.0
C340 C 0.479 0.16759 0.84924 0.0
C341 C 0.4984 0.18883 0.87183 0.0
C342 C 0.47038 0.12419 0.88429 0.0
N343 N 0.46105 0.12664 0.85696 0.0
O344 O 0.47827 0.12106 0.94315 0.0
H345 H 0.51345 0.22297 0.87181 0.0
H346 H 0.4579 0.09684 0.89724 0.0
O347 O 0.45493 0.21345 0.93369 0.0
C348 C 0.50826 0.08907 0.9462 0.0
O349 O 0.55199 0.09986 0.9435 0.0
N350 N 0.54505 0.22647 0.92212 0.0
C351 C 0.60926 0.29698 0.91458 0.0
C352 C 0.56786 0.30549 0.92837 0.0
C353 C 0.53649 0.26966 0.93226 0.0
C354 C 0.58552 0.21728 0.90906 0.0
C355 C 0.61811 0.25219 0.90494 0.0
H356 H 0.50652 0.27622 0.9447 0.0
H357 H 0.59298 0.18238 0.90243 0.0
H358 H 0.45904 0.1853 0.9907 0.0
H359 H 0.59431 0.19905 1.02115 0.0
H360 H 0.47775 0.18191 0.82873 0.0
H361 H 0.56046 0.33928 0.93688 0.0
H362 H 0.64995 0.24424 0.89443 0.0
C363 C 0.79478 0.56936 0.96468 0.0
C364 C 0.7893 0.56633 0.99258 0.0
N365 N 0.78574 0.52139 0.99961 0.0
N366 N 0.79465 0.52661 0.9537 0.0
C367 C 0.78963 0.4979 0.97559 0.0
H368 H 0.80027 0.60088 0.95319 0.0
Co369 Co 0.80664 0.51612 0.91602 0.0
C370 C 0.74139 0.44545 0.89807 0.0
O371 O 0.73623 0.47028 0.8757 0.0
N372 N 0.82188 0.50554 0.87754 0.0
C373 C 0.82819 0.50876 0.83182 0.0
C374 C 0.80714 0.52743 0.8545 0.0
C375 C 0.85233 0.47349 0.86772 0.0
N376 N 0.85738 0.47506 0.84002 0.0
O377 O 0.86101 0.48488 0.92619 0.0
H378 H 0.78118 0.55415 0.85353 0.0
H379 H 0.87081 0.44926 0.88069 0.0
O380 O 0.76992 0.45854 0.91667 0.0
C381 C 0.89131 0.5165 0.92842 0.0
O382 O 0.87874 0.55946 0.92346 0.0
N383 N 0.75457 0.55288 0.90753 0.0
C384 C 0.68877 0.62384 0.90968 0.0
C385 C 0.67826 0.5791 0.91887 0.0
C386 C 0.71175 0.54427 0.91795 0.0
C387 C 0.76536 0.59628 0.89866 0.0
C388 C 0.73279 0.63197 0.89902 0.0
H389 H 0.70435 0.51186 0.928 0.0
H390 H 0.80038 0.60393 0.8927 0.0
H391 H 0.78986 0.46056 0.97402 0.0
H392 H 0.79026 0.5951 1.00672 0.0
H393 H 0.82079 0.51836 0.8108 0.0
H394 H 0.64554 0.57176 0.9285 0.0
H395 H 0.74264 0.66614 0.89208 0.0
C396 C 0.40632 0.18899 0.16135 0.0
C397 C 0.40965 0.19261 0.13335 0.0
N398 N 0.45453 0.19437 0.12669 0.0
N399 N 0.44887 0.1886 0.1727 0.0
C400 C 0.47775 0.19181 0.15094 0.0
H401 H 0.37467 0.18459 0.17261 0.0
Co402 Co 0.4587 0.17527 0.21032 0.0
C403 C 0.53525 0.2332 0.2296 0.0
O404 O 0.51252 0.23799 0.25264 0.0
N405 N 0.46818 0.15844 0.24843 0.0
C406 C 0.4585 0.14117 0.29271 0.0
C407 C 0.43967 0.16293 0.27009 0.0
C408 C 0.50425 0.13331 0.25883 0.0
N409 N 0.49946 0.12257 0.28582 0.0
O410 O 0.48783 0.11989 0.20043 0.0
H411 H 0.40635 0.17945 0.2698 0.0
H412 H 0.53337 0.12248 0.24663 0.0
O413 O 0.51775 0.20885 0.21022 0.0
C414 C 0.45632 0.08956 0.19837 0.0
O415 O 0.41347 0.10244 0.20263 0.0
N416 N 0.42467 0.229 0.21892 0.0
C417 C 0.35955 0.30044 0.21964 0.0
C418 C 0.40563 0.30946 0.21313 0.0
C419 C 0.43744 0.27306 0.21214 0.0
C420 C 0.37977 0.2198 0.22502 0.0
C421 C 0.34673 0.25503 0.22579 0.0
H422 H 0.47121 0.28026 0.20412 0.0
H423 H 0.36893 0.18435 0.2278 0.0
H424 H 0.51488 0.18942 0.15267 0.0
H425 H 0.3812 0.19266 0.11887 0.0
H426 H 0.44176 0.13741 0.31234 0.0
H427 H 0.41644 0.34405 0.20755 0.0
H428 H 0.31132 0.24668 0.23063 0.0
C429 C 0.79042 0.40836 0.14769 0.0
C430 C 0.78684 0.41004 0.11952 0.0
N431 N 0.78598 0.4547 0.11156 0.0
N432 N 0.79183 0.45177 0.15773 0.0
C433 C 0.78915 0.47933 0.13519 0.0
H434 H 0.79303 0.37737 0.16009 0.0
Co435 Co 0.80265 0.46694 0.19506 0.0
C436 C 0.76906 0.56289 0.19788 0.0
O437 O 0.81076 0.57748 0.20383 0.0
N438 N 0.81464 0.48334 0.23276 0.0
C439 C 0.80376 0.50528 0.27618 0.0
C440 C 0.78298 0.48827 0.25279 0.0
C441 C 0.85448 0.49839 0.2447 0.0
N442 N 0.84884 0.5118 0.27113 0.0
O443 O 0.8555 0.49988 0.18434 0.0
H444 H 0.7465 0.48187 0.25029 0.0
H445 H 0.88699 0.50085 0.23411 0.0
O446 O 0.76246 0.52039 0.19223 0.0
C447 C 0.88734 0.47015 0.18039 0.0
O448 O 0.87751 0.42615 0.18368 0.0
N449 N 0.75244 0.42997 0.20508 0.0
C450 C 0.68523 0.36316 0.21391 0.0
C451 C 0.67609 0.40124 0.1969 0.0
C452 C 0.71023 0.43439 0.19273 0.0
C453 C 0.76187 0.39308 0.22171 0.0
C454 C 0.72833 0.35959 0.22683 0.0
H455 H 0.70354 0.46229 0.17844 0.0
H456 H 0.79601 0.38899 0.23046 0.0
H457 H 0.79161 0.51664 0.13604 0.0
H458 H 0.78542 0.38057 0.1059 0.0
H459 H 0.78643 0.5145 0.295 0.0
H460 H 0.6431 0.40488 0.18656 0.0
H461 H 0.73651 0.33035 0.23995 0.0
C462 C 0.56463 0.80043 0.15734 0.0
C463 C 0.56191 0.79795 0.12919 0.0
N464 N 0.51711 0.79735 0.12171 0.0
N465 N 0.52177 0.80131 0.16787 0.0
C466 C 0.49345 0.79955 0.14562 0.0
H467 H 0.59597 0.80234 0.16941 0.0
Co468 Co 0.50838 0.80903 0.20552 0.0
C469 C 0.41147 0.77975 0.20621 0.0
O470 O 0.39748 0.82208 0.21136 0.0
N471 N 0.49365 0.81787 0.24372 0.0
C472 C 0.47498 0.80361 0.28735 0.0
C473 C 0.49282 0.78517 0.26357 0.0
C474 C 0.47546 0.85593 0.25623 0.0
N475 N 0.46395 0.84829 0.2828 0.0
O476 O 0.47662 0.86373 0.19668 0.0
H477 H 0.50231 0.74931 0.26072 0.0
H478 H 0.4691 0.88849 0.24593 0.0
O479 O 0.45403 0.77138 0.20218 0.0
C480 C 0.50593 0.89606 0.19406 0.0
O481 O 0.5499 0.88586 0.19699 0.0
N482 N 0.54439 0.75656 0.21337 0.0
C483 C 0.61421 0.68976 0.2133 0.0
C484 C 0.57147 0.68106 0.20071 0.0
C485 C 0.537 0.71494 0.20091 0.0
C486 C 0.58498 0.76507 0.2266 0.0
C487 C 0.6203 0.73201 0.22696 0.0
H488 H 0.50602 0.70904 0.18904 0.0
H489 H 0.591 0.7988 0.23547 0.0
H490 H 0.45628 0.80171 0.14694 0.0
H491 H 0.5908 0.7969 0.11526 0.0
H492 H 0.46805 0.78463 0.30602 0.0
H493 H 0.56568 0.64959 0.18921 0.0
H494 H 0.65274 0.74015 0.23692 0.0
C495 C 0.18168 0.57202 0.15333 0.0
C496 C 0.18647 0.56704 0.12547 0.0
N497 N 0.18466 0.52168 0.11928 0.0
N498 N 0.17755 0.53003 0.16515 0.0
C499 C 0.17934 0.49992 0.14383 0.0
H500 H 0.17944 0.60453 0.16415 0.0
Co501 Co 0.16278 0.52106 0.20263 0.0
C502 C 0.22743 0.45221 0.22394 0.0
O503 O 0.23129 0.47925 0.2454 0.0
N504 N 0.14469 0.51146 0.24076 0.0
C505 C 0.13438 0.51496 0.28618 0.0
C506 C 0.15593 0.5346 0.26395 0.0
C507 C 0.1158 0.4777 0.25002 0.0
N508 N 0.10838 0.47932 0.27751 0.0
O509 O 0.10993 0.48885 0.1915 0.0
H510 H 0.17987 0.56286 0.26544 0.0
H511 H 0.10024 0.45213 0.23678 0.0
O512 O 0.20029 0.46388 0.20419 0.0
C513 C 0.07897 0.51965 0.18782 0.0
O514 O 0.08991 0.5632 0.19191 0.0
N515 N 0.21351 0.55856 0.21206 0.0
C516 C 0.27974 0.62864 0.21358 0.0
C517 C 0.29102 0.58425 0.2041 0.0
C518 C 0.25735 0.54987 0.2032 0.0
C519 C 0.20169 0.60189 0.22056 0.0
C520 C 0.23442 0.63707 0.22214 0.0
H521 H 0.26579 0.51758 0.19333 0.0
H522 H 0.16604 0.60973 0.22508 0.0
H523 H 0.17577 0.46291 0.14631 0.0
H524 H 0.18888 0.59497 0.11073 0.0
H525 H 0.13932 0.52539 0.30726 0.0
H526 H 0.32482 0.57682 0.19585 0.0
H527 H 0.2239 0.67103 0.22911 0.0
C528 C 0.95268 0.51437 0.43091 0.0
C529 C -0.0013 0.52757 0.4351 0.0
C530 C 0.94025 0.4677 0.43066 0.0
C531 C 0.97339 0.4325 0.43453 0.0
H532 H 0.92624 0.54009 0.42681 0.0
H533 H 0.90454 0.45929 0.42648 0.0
S534 S 0.0978 0.44898 0.44933 0.0
N535 N 0.07703 0.50185 0.44555 0.0
N536 N 0.05352 0.4141 0.44483 0.0
C537 C 0.01917 0.44526 0.43999 0.0
C538 C 0.03185 0.49281 0.44034 0.0
C539 C 0.50036 0.93332 0.4454 0.0
C540 C 0.53487 0.96743 0.44652 0.0
C541 C 0.45363 0.94514 0.4462 0.0
C542 C 0.43961 -0.00847 0.44824 0.0
H543 H 0.50927 0.89716 0.44288 0.0
H544 H 0.42842 0.91778 0.44415 0.0
S545 S 0.51646 0.09355 0.45524 0.0
N546 N 0.55195 0.04915 0.45215 0.0
N547 N 0.46407 0.07158 0.45396 0.0
C548 C 0.47379 0.02583 0.45092 0.0
C549 C 0.52144 0.01374 0.44997 0.0
C550 C 0.03169 0.47331 0.67814 0.0
C551 C -0.00268 0.43901 0.67842 0.0
C552 C 0.02036 0.52026 0.67944 0.0
C553 C 0.97422 0.53473 0.681 0.0
H554 H 0.06787 0.46393 0.67788 0.0
H555 H 0.04811 0.54522 0.68018 0.0
S556 S 0.87093 0.45893 0.67915 0.0
N557 N 0.9151 0.42288 0.67806 0.0
N558 N 0.89355 0.51118 0.68024 0.0
C559 C 0.93933 0.50093 0.67971 0.0
C560 C 0.95094 0.45305 0.67846 0.0
C561 C 0.49935 0.02938 0.69046 0.0
C562 C 0.53455 -0.00431 0.69137 0.0
C563 C 0.45297 0.01713 0.6926 0.0
C564 C 0.43996 0.9707 0.69569 0.0
H565 H 0.5076 0.0658 0.68886 0.0
H566 H 0.42729 0.04445 0.69257 0.0
S567 S 0.51863 0.86874 0.69683 0.0
N568 N 0.55313 0.91366 0.69378 0.0
N569 N 0.46592 0.89036 0.69765 0.0
C570 C 0.47468 0.93638 0.69537 0.0
C571 C 0.52199 0.94893 0.69322 0.0
C572 C 0.51976 0.95875 0.94548 0.0
C573 C 0.47413 0.94401 0.9418 0.0
C574 C 0.53007 0.00571 0.94835 0.0
C575 C 0.49517 0.03976 0.94757 0.0
H576 H 0.54796 0.93406 0.94532 0.0
H577 H 0.566 0.01534 0.95025 0.0
S578 S 0.36949 0.01889 0.94124 0.0
N579 N 0.39312 0.96695 0.93981 0.0
N580 N 0.4128 0.05516 0.94504 0.0
C581 C 0.44916 0.02534 0.94535 0.0
C582 C 0.43858 0.97748 0.94246 0.0
C583 C 0.95538 0.45946 0.93327 0.0
C584 C 0.94027 0.5056 0.93377 0.0
C585 C 0.00225 0.44863 0.93519 0.0
C586 C 0.03581 0.48352 0.93758 0.0
H587 H 0.93106 0.43149 0.93044 0.0
H588 H 0.01216 0.41255 0.9338 0.0
S589 S 0.01376 0.60952 0.94344 0.0
N590 N 0.96219 0.5864 0.9396 0.0
N591 N 0.05044 0.56577 0.9429 0.0
C592 C 0.02105 0.52966 0.93958 0.0
C593 C 0.97323 0.54076 0.93773 0.0
C594 C 0.52565 0.97952 0.19131 0.0
C595 C 0.49164 0.94491 0.19174 0.0
C596 C 0.51383 0.02632 0.1925 0.0
C597 C 0.46754 0.04033 0.19409 0.0
H598 H 0.56192 0.97054 0.19089 0.0
H599 H 0.54134 0.05156 0.19298 0.0
S600 S 0.36506 0.96343 0.19307 0.0
N601 N 0.4096 0.92785 0.19185 0.0
N602 N 0.38712 0.01594 0.19391 0.0
C603 C 0.43299 0.00617 0.19316 0.0
C604 C 0.4451 0.95842 0.19201 0.0
C605 C 0.94924 0.52898 0.18488 0.0
C606 C 0.93585 0.48409 0.1775 0.0
C607 C -0.00418 0.54049 0.18713 0.0
C608 C 0.03063 0.50753 0.18212 0.0
H609 H 0.92373 0.5548 0.1903 0.0
H610 H 0.00441 0.57503 0.19399 0.0
S611 S 0.01363 0.38758 0.15755 0.0
N612 N 0.96096 0.40816 0.16173 0.0
N613 N 0.04871 0.42999 0.16622 0.0
C614 C 0.01778 0.46346 0.17297 0.0
C615 C 0.97029 0.45173 0.17055 0.0
C616 C 0.04538 0.37189 0.30204 0.0
C617 C 0.02704 0.38547 0.32748 0.0
C618 C 0.07164 0.40254 0.2859 0.0
C619 C 0.08019 0.4485 0.29424 0.0
H620 H 0.03994 0.33697 0.29477 0.0
H621 H 0.08587 0.38977 0.2669 0.0
S622 S 0.03448 0.50257 0.35789 0.0
N623 N 0.01653 0.44853 0.35948 0.0
N624 N 0.06382 0.50669 0.32907 0.0
C625 C 0.06054 0.46281 0.31938 0.0
C626 C 0.03455 0.43124 0.33597 0.0
C627 C 0.55439 0.05659 0.29178 0.0
C628 C 0.52908 0.09353 0.30309 0.0
C629 C 0.58041 0.02601 0.30843 0.0
C630 C 0.58259 0.03073 0.33727 0.0
H631 H 0.55316 0.05038 0.26991 0.0
H632 H 0.59886 -0.00183 0.2985 0.0
S633 S 0.52435 0.1232 0.37722 0.0
N634 N 0.51024 0.13463 0.34506 0.0
N635 N 0.55698 0.07637 0.3762 0.0
C636 C 0.55812 0.06814 0.34881 0.0
C637 C 0.53192 0.09953 0.33181 0.0
C638 C 0.91204 0.56827 0.2793 0.0
C639 C 0.88201 0.53405 0.28926 0.0
C640 C 0.94192 0.59263 0.29703 0.0
C641 C 0.94336 0.5838 0.32556 0.0
H642 H 0.91156 0.57717 0.25771 0.0
H643 H 0.96354 0.61926 0.28834 0.0
S644 S 0.87633 0.49281 0.36131 0.0
N645 N 0.8585 0.48979 0.32912 0.0
N646 N 0.91483 0.53471 0.36223 0.0
C647 C 0.91458 0.54847 0.33558 0.0
C648 C 0.88398 0.52387 0.31753 0.0
C649 C 0.40291 0.90731 0.29141 0.0
C650 C 0.43885 0.87874 0.30128 0.0
C651 C 0.37493 0.93315 0.30939 0.0
C652 C 0.38176 0.93218 0.33812 0.0
H653 H 0.39518 0.90837 0.26967 0.0
H654 H 0.34714 0.95363 0.30069 0.0
S655 S 0.47418 0.86616 0.37429 0.0
N656 N 0.48194 0.85379 0.34159 0.0
N657 N 0.42936 0.90149 0.37525 0.0
C658 C 0.4189 0.90519 0.34815 0.0
C659 C 0.44726 0.8787 0.32981 0.0
C660 C 0.1024 0.54124 0.80081 0.0
C661 C 0.09612 0.54265 0.82953 0.0
C662 C 0.07434 0.56723 0.7826 0.0
C663 C 0.03903 0.59641 0.79228 0.0
H664 H 0.1298 0.5203 0.7923 0.0
H665 H 0.08159 0.56593 0.76086 0.0
S666 S 0.0055 0.61063 0.86515 0.0
N667 N 0.04975 0.57458 0.8664 0.0
N668 N -0.00278 0.62259 0.83235 0.0
C669 C 0.03122 0.5969 0.82079 0.0
C670 C 0.05955 0.57026 0.83933 0.0
C671 C 0.41313 0.11003 0.81526 0.0
C672 C 0.43469 0.09457 0.83977 0.0
C673 C 0.38745 0.08005 0.79826 0.0
C674 C 0.38148 0.03305 0.80494 0.0
H675 H 0.41531 0.14595 0.8092 0.0
H676 H 0.37126 0.09415 0.77999 0.0
S677 S 0.43196 0.97342 0.86583 0.0
N678 N 0.44944 0.02742 0.86888 0.0
N679 N 0.40091 0.97193 0.8374 0.0
C680 C 0.40305 0.01682 0.82919 0.0
C681 C 0.42957 0.04723 0.84643 0.0
C682 C 0.89679 0.39991 0.83074 0.0
C683 C 0.88581 0.44542 0.82264 0.0
C684 C 0.92157 0.36969 0.81356 0.0
C685 C 0.93643 0.38285 0.78703 0.0
H686 H 0.88522 0.38691 0.85034 0.0
H687 H 0.92864 0.33535 0.82135 0.0
S688 S 0.92148 0.50091 0.75718 0.0
N689 N 0.89654 0.50411 0.78743 0.0
N690 N 0.94027 0.44718 0.75463 0.0
C691 C 0.92709 0.42913 0.77907 0.0
C692 C 0.90245 0.46021 0.79688 0.0
C693 C 0.54316 0.92495 0.83515 0.0
C694 C 0.54543 0.87647 0.83231 0.0
C695 C 0.56781 0.95487 0.81775 0.0
C696 C 0.59635 0.93788 0.79669 0.0
H697 H 0.52189 0.94008 0.85086 0.0
H698 H 0.56412 -0.0082 0.82071 0.0
S699 S 0.61997 0.81405 0.78258 0.0
N700 N 0.58258 0.81306 0.80797 0.0
N701 N 0.62837 0.86922 0.77547 0.0
C702 C 0.59998 0.88957 0.79395 0.0
C703 C 0.57485 0.85898 0.81169 0.0
C704 C 0.08742 0.19025 0.42857 0.0
C705 C 0.07666 0.20834 0.40246 0.0
C706 C 0.12209 0.15651 0.43196 0.0
C707 C 0.14762 0.14014 0.40944 0.0
H708 H 0.06784 0.20093 0.44633 0.0
H709 H 0.12889 0.143 0.45234 0.0
S710 S 0.13439 0.17811 0.33709 0.0
N711 N 0.0957 0.20872 0.35394 0.0
N712 N 0.16039 0.14545 0.36035 0.0
C713 C 0.13805 0.15897 0.38343 0.0
C714 C 0.10271 0.193 0.37994 0.0
C715 C 0.83061 0.09948 0.38846 0.0
C716 C 0.82466 0.13709 0.40618 0.0
C717 C 0.79867 0.06337 0.38769 0.0
C718 C 0.75984 0.06296 0.40497 0.0
H719 H 0.8601 0.09811 0.37494 0.0
H720 H 0.80501 0.03516 0.37361 0.0
S721 S 0.72966 0.15306 0.45585 0.0
N722 N 0.7777 0.17201 0.44171 0.0
N723 N 0.71786 0.10336 0.44072 0.0
C724 C 0.75379 0.1002 0.42309 0.0
C725 C 0.7861 0.1375 0.42354 0.0
C726 C 0.86884 0.74695 0.41625 0.0
C727 C 0.90673 0.75807 0.39962 0.0
C728 C 0.83111 0.7774 0.41863 0.0
C729 C 0.83049 0.82033 0.4049 0.0
H730 H 0.86817 0.7144 0.4273 0.0
H731 H 0.80264 0.76772 0.4317 0.0
S732 S 0.92132 0.86645 0.35941 0.0
N733 N 0.94118 0.81552 0.36944 0.0
N734 N 0.87066 0.87239 0.37423 0.0
C735 C 0.86815 0.83189 0.38838 0.0
C736 C 0.90615 0.80086 0.38566 0.0
C737 C 0.16506 0.84103 0.43786 0.0
C738 C 0.16362 0.81113 0.41504 0.0
C739 C 0.20208 0.87147 0.44206 0.0
C740 C 0.23953 0.87255 0.42392 0.0
H741 H 0.13771 0.84049 0.45287 0.0
H742 H 0.20164 0.89396 0.45981 0.0
S743 S 0.25076 0.80496 0.35968 0.0
N744 N 0.20153 0.78755 0.37294 0.0
N745 N 0.27166 0.84339 0.38138 0.0
C746 C 0.23838 0.84334 0.40089 0.0
C747 C 0.20036 0.81297 0.39634 0.0
C748 C 0.11025 0.81635 0.71433 0.0
C749 C 0.15771 0.81144 0.70921 0.0
C750 C 0.0795 0.77987 0.70953 0.0
C751 C 0.09501 0.73685 0.6996 0.0
H752 H 0.0968 0.8484 0.72258 0.0
H753 H 0.04346 0.78508 0.71438 0.0
S754 S 0.21484 0.70738 0.68012 0.0
N755 N 0.21795 0.76117 0.69127 0.0
N756 N 0.1603 0.69222 0.68329 0.0
C757 C 0.1421 0.73165 0.69389 0.0
C758 C 0.17338 0.769 0.69841 0.0
C759 C 0.19728 0.08631 0.69876 0.0
C760 C 0.21326 0.07327 0.72495 0.0
C761 C 0.16448 0.12188 0.69555 0.0
C762 C 0.14708 0.146 0.71838 0.0
H763 H 0.20874 0.06774 0.68076 0.0
H764 H 0.15236 0.13034 0.67508 0.0
S765 S 0.1802 0.12699 0.79111 0.0
N766 N 0.21106 0.08883 0.77394 0.0
N767 N 0.14955 0.15533 0.76785 0.0
C768 C 0.16408 0.13433 0.74452 0.0
C769 C 0.19711 0.09805 0.74781 0.0
C770 C 0.86455 0.15752 0.7097 0.0
C771 C 0.81747 0.16253 0.70315 0.0
C772 C 0.89573 0.1937 0.70534 0.0
C773 C 0.88101 0.23654 0.69453 0.0
H774 H 0.87733 0.12563 0.71871 0.0
H775 H 0.93144 0.1884 0.71122 0.0
S776 S 0.76267 0.26609 0.67122 0.0
N777 N 0.75862 0.21258 0.68287 0.0
N778 N 0.81703 0.28109 0.67583 0.0
C779 C 0.83436 0.24183 0.68739 0.0
C780 C 0.80266 0.20475 0.69141 0.0
C781 C 0.81338 0.85284 0.69284 0.0
C782 C 0.82859 0.82806 0.71617 0.0
C783 C 0.78059 0.88858 0.69495 0.0
C784 C 0.76241 0.90118 0.72053 0.0
H785 H 0.8272 0.84473 0.67282 0.0
H786 H 0.77083 0.9076 0.67662 0.0
S787 S 0.78892 0.84566 0.78756 0.0
N788 N 0.82149 0.81763 0.76542 0.0
N789 N 0.76001 0.8845 0.76941 0.0
C790 C 0.7763 0.87579 0.74385 0.0
C791 C 0.80932 0.8393 0.74167 0.0
C792 C 0.64012 0.74193 0.92902 0.0
C793 C 0.59292 0.73766 0.92294 0.0
C794 C 0.67082 0.70507 0.92458 0.0
C795 C 0.6556 0.66272 0.91353 0.0
H796 H 0.65341 0.77386 0.93749 0.0
H797 H 0.70671 0.70966 0.93018 0.0
S798 S 0.5361 0.63557 0.8915 0.0
N799 N 0.53285 0.68863 0.90377 0.0
N800 N 0.59059 0.61986 0.89505 0.0
C801 C 0.6086 0.65836 0.90688 0.0
C802 C 0.57729 0.69569 0.91164 0.0
C803 C 0.32237 0.61407 0.9152 0.0
C804 C 0.31639 0.66215 0.91806 0.0
C805 C 0.28507 0.58358 0.91761 0.0
C806 C 0.24015 0.59988 0.92286 0.0
H807 H 0.35609 0.59986 0.9107 0.0
H808 H 0.29143 0.54698 0.91469 0.0
S809 S 0.20645 0.72213 0.93445 0.0
N810 N 0.26235 0.72426 0.92841 0.0
N811 N 0.19219 0.66703 0.93213 0.0
C812 C 0.23372 0.64775 0.92613 0.0
C813 C 0.27178 0.67882 0.92394 0.0
C814 C 0.33358 0.24256 0.92993 0.0
C815 C 0.38096 0.24645 0.92449 0.0
C816 C 0.30348 0.28019 0.92584 0.0
C817 C 0.31962 0.32303 0.91602 0.0
H818 H 0.31975 0.21043 0.9378 0.0
H819 H 0.26744 0.27599 0.93094 0.0
S820 S 0.43938 0.34941 0.8952 0.0
N821 N 0.44163 0.2954 0.90621 0.0
N822 N 0.38526 0.36601 0.89898 0.0
C823 C 0.36661 0.32696 0.90976 0.0
C824 C 0.39719 0.28871 0.91384 0.0
C825 C 0.72091 0.36644 0.91599 0.0
C826 C 0.70766 0.40819 0.9033 0.0
C827 C 0.68913 0.33013 0.91926 0.0
C828 C 0.64294 0.33491 0.91048 0.0
H829 H 0.75617 0.36145 0.92286 0.0
H830 H 0.70059 0.29832 0.92895 0.0
S831 S 0.59055 0.43822 0.87739 0.0
N832 N 0.64484 0.45267 0.88278 0.0
N833 N 0.58556 0.38489 0.88913 0.0
C834 C 0.62924 0.37682 0.89829 0.0
C835 C 0.66149 0.41334 0.89465 0.0
C836 C 0.59455 0.28836 0.24734 0.0
C837 C 0.57683 0.26225 0.22525 0.0
C838 C 0.63052 0.31997 0.24368 0.0
C839 C 0.64993 0.32699 0.21776 0.0
H840 H 0.57995 0.2852 0.26764 0.0
H841 H 0.64231 0.34006 0.26108 0.0
S842 S 0.62089 0.2641 0.15395 0.0
N843 N 0.58497 0.24303 0.17693 0.0
N844 N 0.65226 0.30306 0.17017 0.0
C845 C 0.63416 0.30006 0.19574 0.0
C846 C 0.59777 0.26746 0.19945 0.0
C847 C 0.69718 0.67297 0.20236 0.0
C848 C 0.65339 0.65671 0.21013 0.0
C849 C 0.73426 0.64243 0.1982 0.0
C850 C 0.72893 0.59438 0.20136 0.0
H851 H 0.70272 0.70959 0.19905 0.0
H852 H 0.76724 0.65658 0.19223 0.0
S853 S 0.62253 0.53442 0.22387 0.0
N854 N 0.60776 0.58959 0.22251 0.0
N855 N 0.67703 0.53228 0.21442 0.0
C856 C 0.68549 0.57772 0.20947 0.0
C857 C 0.64786 0.60882 0.2139 0.0
C858 C 0.30069 0.71065 0.20204 0.0
C859 C 0.31389 0.66693 0.21238 0.0
C860 C 0.33241 0.74702 0.20009 0.0
C861 C 0.37867 0.74084 0.208 0.0
H862 H 0.26569 0.71671 0.195 0.0
H863 H 0.32076 0.78001 0.19198 0.0
S864 S 0.43009 0.63466 0.23857 0.0
N865 N 0.37588 0.62075 0.23235 0.0
N866 N 0.43563 0.68864 0.22805 0.0
C867 C 0.39229 0.69756 0.21863 0.0
C868 C 0.3599 0.66072 0.22095 0.0
C869 C 0.30087 0.41336 0.23753 0.0
C870 C 0.26007 0.41282 0.22164 0.0
C871 C 0.33286 0.37711 0.23648 0.0
C872 C 0.32511 0.33843 0.21983 0.0
H873 H 0.30858 0.44229 0.25085 0.0
H874 H 0.36368 0.3791 0.2491 0.0
S875 S 0.22469 0.32 0.17369 0.0
N876 N 0.21434 0.37058 0.18818 0.0
N877 N 0.27441 0.30176 0.18654 0.0
C878 C 0.28469 0.33724 0.2037 0.0
C879 C 0.25226 0.37465 0.20447 0.0
C880 C 0.9537 0.3039 0.54943 0.0
C881 C 0.97767 0.28018 0.52866 0.0
C882 C 0.97019 0.30511 0.57659 0.0
C883 C 0.01138 0.2825 0.58431 0.0
H884 H 0.92198 0.3221 0.54458 0.0
H885 H 0.95075 0.32449 0.59158 0.0
S886 S 0.08543 0.21258 0.53806 0.0
N887 N 0.04373 0.23208 0.51786 0.0
N888 N 0.07455 0.23351 0.56885 0.0
C889 C 0.03553 0.25825 0.56373 0.0
C890 C 0.01878 0.25734 0.53598 0.0
C891 C 0.67289 0.95972 0.58574 0.0
C892 C 0.69308 0.00232 0.5927 0.0
C893 C 0.67296 0.94342 0.55855 0.0
C894 C 0.6931 0.96902 0.53705 0.0
H895 H 0.65592 0.93928 0.6013 0.0
H896 H 0.6564 0.91072 0.55424 0.0
S897 S 0.75462 0.08039 0.54459 0.0
N898 N 0.73692 0.06814 0.5759 0.0
N899 N 0.7362 0.03772 0.52498 0.0
C900 C 0.71407 0.01122 0.54376 0.0
C901 C 0.71435 0.02774 0.57148 0.0
C902 C 0.00335 0.70749 0.57818 0.0
C903 C 0.96389 0.68255 0.58574 0.0
C904 C 0.01856 0.70856 0.55082 0.0
C905 C -0.00472 0.68442 0.52974 0.0
H906 H 0.02235 0.72675 0.59352 0.0
H907 H 0.04903 0.7285 0.54613 0.0
S908 S 0.89201 0.61082 0.53916 0.0
N909 N 0.90285 0.63143 0.57008 0.0
N910 N 0.93171 0.63299 0.51894 0.0
C911 C 0.95585 0.65912 0.53708 0.0
C912 C 0.94019 0.65824 0.56496 0.0
C913 C 0.30757 0.0101 0.5919 0.0
C914 C 0.28389 0.9697 0.59953 0.0
C915 C 0.30872 0.02509 0.56437 0.0
C916 C 0.28636 0.00028 0.54325 0.0
H917 H 0.32644 0.02959 0.60719 0.0
H918 H 0.32812 0.05592 0.55949 0.0
S919 S 0.21479 0.89553 0.55274 0.0
N920 N 0.23404 0.90751 0.58385 0.0
N921 N 0.23676 0.9354 0.53239 0.0
C922 C 0.26153 0.9606 0.55072 0.0
C923 C 0.26011 0.94547 0.57873 0.0
C924 C 0.50785 0.81881 1.04523 0.0
C925 C 0.46754 0.79491 1.03767 0.0
C926 C 0.52345 0.81973 0.07263 0.0
C927 C 0.49948 0.79682 0.09376 0.0
H928 H 0.52705 0.83773 1.02993 0.0
H929 H 0.55431 0.83914 0.07736 0.0
S930 S 0.39451 0.72552 0.0846 0.0
N931 N 0.40566 0.74514 1.05351 0.0
N932 N 0.43485 0.74721 0.1048 0.0
C933 C 0.45953 0.77223 0.08645 0.0
C934 C 0.44367 0.77115 1.05852 0.0
C935 C 0.21031 0.52481 0.07077 0.0
C936 C 0.18502 0.50269 0.09169 0.0
C937 C 0.20887 0.50938 1.0434 0.0
C938 C 0.18239 0.47086 1.03571 0.0
H939 H 0.23157 0.55441 0.0756 0.0
H940 H 0.22914 0.52735 1.02818 0.0
S941 S 0.10683 0.40268 0.08175 0.0
N942 N 0.1305 0.44159 0.10212 0.0
N943 N 0.12836 0.41227 1.05099 0.0
C944 C 0.15673 0.44848 1.0563 0.0
C945 C 0.15796 0.46437 0.08416 0.0
C946 C 0.45184 0.16665 0.07861 0.0
C947 C 0.47247 0.19437 0.09903 0.0
C948 C 0.4671 0.16759 1.05126 0.0
C949 C 0.50358 0.19639 1.04314 0.0
H950 H 0.42385 0.14371 0.08392 0.0
H951 H 0.45076 0.14499 1.03647 0.0
S952 S 0.56541 0.27972 0.08787 0.0
N953 N 0.52891 0.25381 0.10871 0.0
N954 N 0.55746 0.25599 1.05744 0.0
C955 C 0.52383 0.22499 0.06325 0.0
C956 C 0.50838 0.22384 0.09112 0.0
C957 C 0.80722 0.46298 1.03509 0.0
C958 C 0.7831 0.50339 1.02741 0.0
C959 C 0.80798 0.44737 1.06251 0.0
C960 C 0.78477 0.47153 0.08348 0.0
H961 H 0.82671 0.44397 1.01994 0.0
H962 H 0.82774 0.41658 0.06744 0.0
S963 S 0.71189 0.576 0.07372 0.0
N964 N 0.73199 0.56487 1.04281 0.0
N965 N 0.73401 0.53583 0.09409 0.0
C966 C 0.75953 0.51122 0.07595 0.0
C967 C 0.75851 0.52698 1.04804 0.0
loop_
_geom_bond_atom_site_label_1
_geom_bond_atom_site_label_2
_geom_bond_distance
_geom_bond_site_symmetry_2
_ccdc_geom_bond_type
C0 C1 1.351 . S
C0 N3 1.368 1_655 S
C0 H5 0.931 . S
C1 C0 1.351 . S
C1 N2 1.373 1_655 S
C1 H29 0.930 . S
N2 C1 1.373 1_455 S
N2 C4 1.340 . S
N3 C0 1.368 1_455 S
N3 C4 1.321 . S
N3 Co6 2.135 . S
C4 N2 1.340 . S
C4 N3 1.321 . S
C4 H28 0.930 . S
H5 C0 0.931 . S
Co6 N3 2.135 . S
Co6 N9 2.121 . S
Co6 O14 2.055 . S
Co6 O17 2.039 . S
Co6 N20 2.140 1_455 S
C7 O8 1.227 . S
C7 O17 1.265 . S
O8 C7 1.227 . S
N9 Co6 2.121 . S
N9 C11 1.375 . S
N9 C12 1.313 . S
C10 C11 1.338 . S
C10 N13 1.377 . S
C10 H30 0.930 . S
C11 N9 1.375 . S
C11 C10 1.338 . S
C11 H15 0.931 . S
C12 N9 1.313 . S
C12 N13 1.344 . S
C12 H16 0.930 . S
N13 C10 1.377 . S
N13 C12 1.344 . S
O14 Co6 2.055 . S
O14 C18 1.253 . S
H15 C11 0.931 . S
H16 C12 0.930 . S
O17 Co6 2.039 . S
O17 C7 1.265 . S
C18 O14 1.253 . S
C18 O19 1.227 1_455 S
O19 C18 1.227 1_655 S
N20 Co6 2.140 1_655 S
N20 C23 1.346 . S
N20 C24 1.345 . S
C21 C22 1.387 . S
C21 C25 1.391 . S
C22 C21 1.387 . S
C22 C23 1.369 . S
C22 H31 0.929 . S
C23 N20 1.346 . S
C23 C22 1.369 . S
C23 H26 0.928 . S
C24 N20 1.345 . S
C24 C25 1.371 . S
C24 H27 0.931 . S
C25 C21 1.391 . S
C25 C24 1.371 . S
C25 H32 0.930 . S
H26 C23 0.928 . S
H27 C24 0.931 . S
H28 C4 0.930 . S
H29 C1 0.930 . S
H30 C10 0.930 . S
H31 C22 0.929 . S
H32 C25 0.930 . S
C33 C34 1.351 . S
C33 N36 1.368 1_565 S
C33 H38 0.931 . S
C34 C33 1.351 . S
C34 N35 1.373 1_565 S
C34 H62 0.930 . S
N35 C34 1.373 1_545 S
N35 C37 1.340 . S
N36 C33 1.368 1_545 S
N36 C37 1.321 . S
N36 Co39 2.135 . S
C37 N35 1.340 . S
C37 N36 1.321 . S
C37 H61 0.930 . S
H38 C33 0.931 . S
Co39 N36 2.135 . S
Co39 N42 2.121 . S
Co39 O47 2.055 . S
Co39 O50 2.039 . S
Co39 N53 2.140 1_545 S
C40 O41 1.227 . S
C40 O50 1.265 . S
O41 C40 1.227 . S
N42 Co39 2.121 . S
N42 C44 1.375 . S
N42 C45 1.313 . S
C43 C44 1.338 . S
C43 N46 1.377 . S
C43 H63 0.930 . S
C44 N42 1.375 . S
C44 C43 1.338 . S
C44 H48 0.931 . S
C45 N42 1.313 . S
C45 N46 1.344 . S
C45 H49 0.930 . S
N46 C43 1.377 . S
N46 C45 1.344 . S
O47 Co39 2.055 . S
O47 C51 1.253 . S
H48 C44 0.931 . S
H49 C45 0.930 . S
O50 Co39 2.039 . S
O50 C40 1.265 . S
C51 O47 1.253 . S
C51 O52 1.227 1_545 S
O52 C51 1.227 1_565 S
N53 Co39 2.140 1_565 S
N53 C56 1.346 . S
N53 C57 1.345 . S
C54 C55 1.387 . S
C54 C58 1.391 . S
C55 C54 1.387 . S
C55 C56 1.369 . S
C55 H64 0.929 . S
C56 N53 1.346 . S
C56 C55 1.369 . S
C56 H59 0.928 . S
C57 N53 1.345 . S
C57 C58 1.371 . S
C57 H60 0.931 . S
C58 C54 1.391 . S
C58 C57 1.371 . S
C58 H65 0.930 . S
H59 C56 0.928 . S
H60 C57 0.931 . S
H61 C37 0.930 . S
H62 C34 0.930 . S
H63 C43 0.930 . S
H64 C55 0.929 . S
H65 C58 0.930 . S
C66 C67 1.351 . S
C66 N69 1.368 1_455 S
C66 H71 0.931 . S
C67 C66 1.351 . S
C67 N68 1.373 1_455 S
C67 H95 0.930 . S
N68 C67 1.373 1_655 S
N68 C70 1.340 . S
N69 C66 1.368 1_655 S
N69 C70 1.321 . S
N69 Co72 2.135 . S
C70 N68 1.340 . S
C70 N69 1.321 . S
C70 H94 0.930 . S
H71 C66 0.931 . S
Co72 N69 2.135 . S
Co72 N75 2.121 . S
Co72 O80 2.055 . S
Co72 O83 2.039 . S
Co72 N86 2.140 1_655 S
C73 O74 1.227 . S
C73 O83 1.265 . S
O74 C73 1.227 . S
N75 Co72 2.121 . S
N75 C77 1.375 . S
N75 C78 1.313 . S
C76 C77 1.338 . S
C76 N79 1.377 . S
C76 H96 0.930 . S
C77 N75 1.375 . S
C77 C76 1.338 . S
C77 H81 0.931 . S
C78 N75 1.313 . S
C78 N79 1.344 . S
C78 H82 0.930 . S
N79 C76 1.377 . S
N79 C78 1.344 . S
O80 Co72 2.055 . S
O80 C84 1.253 . S
H81 C77 0.931 . S
H82 C78 0.930 . S
O83 Co72 2.039 . S
O83 C73 1.265 . S
C84 O80 1.253 . S
C84 O85 1.227 1_655 S
O85 C84 1.227 1_455 S
N86 Co72 2.140 1_455 S
N86 C89 1.346 . S
N86 C90 1.345 . S
C87 C88 1.387 . S
C87 C91 1.391 . S
C88 C87 1.387 . S
C88 C89 1.369 . S
C88 H97 0.929 . S
C89 N86 1.346 . S
C89 C88 1.369 . S
C89 H92 0.928 . S
C90 N86 1.345 . S
C90 C91 1.371 . S
C90 H93 0.931 . S
C91 C87 1.391 . S
C91 C90 1.371 . S
C91 H98 0.930 . S
H92 C89 0.928 . S
H93 C90 0.931 . S
H94 C70 0.930 . S
H95 C67 0.930 . S
H96 C76 0.930 . S
H97 C88 0.929 . S
H98 C91 0.930 . S
C99 C100 1.351 . S
C99 N102 1.368 1_545 S
C99 H104 0.931 . S
C100 C99 1.351 . S
C100 N101 1.373 1_545 S
C100 H128 0.930 . S
N101 C100 1.373 1_565 S
N101 C103 1.340 . S
N102 C99 1.368 1_565 S
N102 C103 1.321 . S
N102 Co105 2.135 . S
C103 N101 1.340 . S
C103 N102 1.321 . S
C103 H127 0.930 . S
H104 C99 0.931 . S
Co105 N102 2.135 . S
Co105 N108 2.121 . S
Co105 O113 2.055 . S
Co105 O116 2.039 . S
Co105 N119 2.140 1_565 S
C106 O107 1.227 . S
C106 O116 1.265 . S
O107 C106 1.227 . S
N108 Co105 2.121 . S
N108 C110 1.375 . S
N108 C111 1.313 . S
C109 C110 1.338 . S
C109 N112 1.377 . S
C109 H129 0.930 . S
C110 N108 1.375 . S
C110 C109 1.338 . S
C110 H114 0.931 . S
C111 N108 1.313 . S
C111 N112 1.344 . S
C111 H115 0.930 . S
N112 C109 1.377 . S
N112 C111 1.344 . S
O113 Co105 2.055 . S
O113 C117 1.253 . S
H114 C110 0.931 . S
H115 C111 0.930 . S
O116 Co105 2.039 . S
O116 C106 1.265 . S
C117 O113 1.253 . S
C117 O118 1.227 1_565 S
O118 C117 1.227 1_545 S
N119 Co105 2.140 1_545 S
N119 C122 1.346 . S
N119 C123 1.345 . S
C120 C121 1.387 . S
C120 C124 1.391 . S
C121 C120 1.387 . S
C121 C122 1.369 . S
C121 H130 0.929 . S
C122 N119 1.346 . S
C122 C121 1.369 . S
C122 H125 0.928 . S
C123 N119 1.345 . S
C123 C124 1.371 . S
C123 H126 0.931 . S
C124 C120 1.391 . S
C124 C123 1.371 . S
C124 H131 0.930 . S
H125 C122 0.928 . S
H126 C123 0.931 . S
H127 C103 0.930 . S
H128 C100 0.930 . S
H129 C109 0.930 . S
H130 C121 0.929 . S
H131 C124 0.930 . S
C132 C133 1.351 . S
C132 N135 1.368 1_655 S
C132 H137 0.931 . S
C133 C132 1.351 . S
C133 N134 1.373 1_655 S
C133 H161 0.930 . S
N134 C133 1.373 1_455 S
N134 C136 1.340 . S
N135 C132 1.368 1_455 S
N135 C136 1.321 . S
N135 Co138 2.135 . S
C136 N134 1.340 . S
C136 N135 1.321 . S
C136 H160 0.930 . S
H137 C132 0.931 . S
Co138 N135 2.135 . S
Co138 N141 2.121 . S
Co138 O146 2.055 . S
Co138 O149 2.039 . S
Co138 N152 2.140 1_455 S
C139 O140 1.227 . S
C139 O149 1.265 . S
O140 C139 1.227 . S
N141 Co138 2.121 . S
N141 C143 1.375 . S
N141 C144 1.313 . S
C142 C143 1.338 . S
C142 N145 1.377 . S
C142 H162 0.930 . S
C143 N141 1.375 . S
C143 C142 1.338 . S
C143 H147 0.931 . S
C144 N141 1.313 . S
C144 N145 1.344 . S
C144 H148 0.930 . S
N145 C142 1.377 . S
N145 C144 1.344 . S
O146 Co138 2.055 . S
O146 C150 1.253 . S
H147 C143 0.931 . S
H148 C144 0.930 . S
O149 Co138 2.039 . S
O149 C139 1.265 . S
C150 O146 1.253 . S
C150 O151 1.227 1_455 S
O151 C150 1.227 1_655 S
N152 Co138 2.140 1_655 S
N152 C155 1.346 . S
N152 C156 1.345 . S
C153 C154 1.387 . S
C153 C157 1.391 . S
C154 C153 1.387 . S
C154 C155 1.369 . S
C154 H163 0.929 . S
C155 N152 1.346 . S
C155 C154 1.369 . S
C155 H158 0.928 . S
C156 N152 1.345 . S
C156 C157 1.371 . S
C156 H159 0.931 . S
C157 C153 1.391 . S
C157 C156 1.371 . S
C157 H164 0.930 . S
H158 C155 0.928 . S
H159 C156 0.931 . S
H160 C136 0.930 . S
H161 C133 0.930 . S
H162 C142 0.930 . S
H163 C154 0.929 . S
H164 C157 0.930 . S
C165 C166 1.351 . S
C165 N168 1.368 1_565 S
C165 H170 0.931 . S
C166 C165 1.351 . S
C166 N167 1.373 1_565 S
C166 H194 0.930 . S
N167 C166 1.373 1_545 S
N167 C169 1.340 . S
N168 C165 1.368 1_545 S
N168 C169 1.321 . S
N168 Co171 2.135 . S
C169 N167 1.340 . S
C169 N168 1.321 . S
C169 H193 0.930 . S
H170 C165 0.931 . S
Co171 N168 2.135 . S
Co171 N174 2.121 . S
Co171 O179 2.055 . S
Co171 O182 2.039 . S
Co171 N185 2.140 1_545 S
C172 O173 1.227 . S
C172 O182 1.265 . S
O173 C172 1.227 . S
N174 Co171 2.121 . S
N174 C176 1.375 . S
N174 C177 1.313 . S
C175 C176 1.338 . S
C175 N178 1.377 . S
C175 H195 0.930 . S
C176 N174 1.375 . S
C176 C175 1.338 . S
C176 H180 0.931 . S
C177 N174 1.313 . S
C177 N178 1.344 . S
C177 H181 0.930 . S
N178 C175 1.377 . S
N178 C177 1.344 . S
O179 Co171 2.055 . S
O179 C183 1.253 . S
H180 C176 0.931 . S
H181 C177 0.930 . S
O182 Co171 2.039 . S
O182 C172 1.265 . S
C183 O179 1.253 . S
C183 O184 1.227 1_545 S
O184 C183 1.227 1_565 S
N185 Co171 2.140 1_565 S
N185 C188 1.346 . S
N185 C189 1.345 . S
C186 C187 1.387 . S
C186 C190 1.391 . S
C187 C186 1.387 . S
C187 C188 1.369 . S
C187 H196 0.929 . S
C188 N185 1.346 . S
C188 C187 1.369 . S
C188 H191 0.928 . S
C189 N185 1.345 . S
C189 C190 1.371 . S
C189 H192 0.931 . S
C190 C186 1.391 . S
C190 C189 1.371 . S
C190 H197 0.930 . S
H191 C188 0.928 . S
H192 C189 0.931 . S
H193 C169 0.930 . S
H194 C166 0.930 . S
H195 C175 0.930 . S
H196 C187 0.929 . S
H197 C190 0.930 . S
C198 C199 1.351 . S
C198 N201 1.368 1_455 S
C198 H203 0.931 . S
C199 C198 1.351 . S
C199 N200 1.373 1_455 S
C199 H227 0.930 . S
N200 C199 1.373 1_655 S
N200 C202 1.340 . S
N201 C198 1.368 1_655 S
N201 C202 1.321 . S
N201 Co204 2.135 . S
C202 N200 1.340 . S
C202 N201 1.321 . S
C202 H226 0.930 . S
H203 C198 0.931 . S
Co204 N201 2.135 . S
Co204 N207 2.121 . S
Co204 O212 2.055 . S
Co204 O215 2.039 . S
Co204 N218 2.140 1_655 S
C205 O206 1.227 . S
C205 O215 1.265 . S
O206 C205 1.227 . S
N207 Co204 2.121 . S
N207 C209 1.375 . S
N207 C210 1.313 . S
C208 C209 1.338 . S
C208 N211 1.377 . S
C208 H228 0.930 . S
C209 N207 1.375 . S
C209 C208 1.338 . S
C209 H213 0.931 . S
C210 N207 1.313 . S
C210 N211 1.344 . S
C210 H214 0.930 . S
N211 C208 1.377 . S
N211 C210 1.344 . S
O212 Co204 2.055 . S
O212 C216 1.253 . S
H213 C209 0.931 . S
H214 C210 0.930 . S
O215 Co204 2.039 . S
O215 C205 1.265 . S
C216 O212 1.253 . S
C216 O217 1.227 1_655 S
O217 C216 1.227 1_455 S
N218 Co204 2.140 1_455 S
N218 C221 1.346 . S
N218 C222 1.345 . S
C219 C220 1.387 . S
C219 C223 1.391 . S
C220 C219 1.387 . S
C220 C221 1.369 . S
C220 H229 0.929 . S
C221 N218 1.346 . S
C221 C220 1.369 . S
C221 H224 0.928 . S
C222 N218 1.345 . S
C222 C223 1.371 . S
C222 H225 0.931 . S
C223 C219 1.391 . S
C223 C222 1.371 . S
C223 H230 0.930 . S
H224 C221 0.928 . S
H225 C222 0.931 . S
H226 C202 0.930 . S
H227 C199 0.930 . S
H228 C208 0.930 . S
H229 C220 0.929 . S
H230 C223 0.930 . S
C231 C232 1.351 . S
C231 N234 1.368 1_545 S
C231 H236 0.931 . S
C232 C231 1.351 . S
C232 N233 1.373 1_545 S
C232 H260 0.930 . S
N233 C232 1.373 1_565 S
N233 C235 1.340 . S
N234 C231 1.368 1_565 S
N234 C235 1.321 . S
N234 Co237 2.135 . S
C235 N233 1.340 . S
C235 N234 1.321 . S
C235 H259 0.930 . S
H236 C231 0.931 . S
Co237 N234 2.135 . S
Co237 N240 2.121 . S
Co237 O245 2.055 . S
Co237 O248 2.039 . S
Co237 N251 2.140 1_565 S
C238 O239 1.227 . S
C238 O248 1.265 . S
O239 C238 1.227 . S
N240 Co237 2.121 . S
N240 C242 1.375 . S
N240 C243 1.313 . S
C241 C242 1.338 . S
C241 N244 1.377 . S
C241 H261 0.930 . S
C242 N240 1.375 . S
C242 C241 1.338 . S
C242 H246 0.931 . S
C243 N240 1.313 . S
C243 N244 1.344 . S
C243 H247 0.930 . S
N244 C241 1.377 . S
N244 C243 1.344 . S
O245 Co237 2.055 . S
O245 C249 1.253 . S
H246 C242 0.931 . S
H247 C243 0.930 . S
O248 Co237 2.039 . S
O248 C238 1.265 . S
C249 O245 1.253 . S
C249 O250 1.227 1_565 S
O250 C249 1.227 1_545 S
N251 Co237 2.140 1_545 S
N251 C254 1.346 . S
N251 C255 1.345 . S
C252 C253 1.387 . S
C252 C256 1.391 . S
C253 C252 1.387 . S
C253 C254 1.369 . S
C253 H262 0.929 . S
C254 N251 1.346 . S
C254 C253 1.369 . S
C254 H257 0.928 . S
C255 N251 1.345 . S
C255 C256 1.371 . S
C255 H258 0.931 . S
C256 C252 1.391 . S
C256 C255 1.371 . S
C256 H263 0.930 . S
H257 C254 0.928 . S
H258 C255 0.931 . S
H259 C235 0.930 . S
H260 C232 0.930 . S
H261 C241 0.930 . S
H262 C253 0.929 . S
H263 C256 0.930 . S
C264 C265 1.351 . S
C264 N267 1.368 . S
C264 H269 0.931 . S
C265 C264 1.351 . S
C265 N266 1.373 . S
C265 H293 0.930 . S
N266 C265 1.373 . S
N266 C268 1.340 . S
N267 C264 1.368 . S
N267 C268 1.321 . S
N267 Co270 2.135 . S
C268 N266 1.340 . S
C268 N267 1.321 . S
C268 H292 0.930 . S
H269 C264 0.931 . S
Co270 N267 2.135 . S
Co270 N273 2.121 . S
Co270 O278 2.055 . S
Co270 O281 2.039 . S
Co270 N284 2.140 . S
C271 O272 1.227 . S
C271 O281 1.265 . S
O272 C271 1.227 . S
N273 Co270 2.121 . S
N273 C275 1.375 . S
N273 C276 1.313 . S
C274 C275 1.338 . S
C274 N277 1.377 . S
C274 H294 0.930 . S
C275 N273 1.375 . S
C275 C274 1.338 . S
C275 H279 0.931 . S
C276 N273 1.313 . S
C276 N277 1.344 . S
C276 H280 0.930 . S
N277 C274 1.377 . S
N277 C276 1.344 . S
O278 Co270 2.055 . S
O278 C282 1.253 . S
H279 C275 0.931 . S
H280 C276 0.930 . S
O281 Co270 2.039 . S
O281 C271 1.265 . S
C282 O278 1.253 . S
C282 O283 1.227 . S
O283 C282 1.227 . S
N284 Co270 2.140 . S
N284 C287 1.346 . S
N284 C288 1.345 . S
C285 C286 1.387 . S
C285 C289 1.391 . S
C286 C285 1.387 . S
C286 C287 1.369 . S
C286 H295 0.929 . S
C287 N284 1.346 . S
C287 C286 1.369 . S
C287 H290 0.928 . S
C288 N284 1.345 . S
C288 C289 1.371 . S
C288 H291 0.931 . S
C289 C285 1.391 . S
C289 C288 1.371 . S
C289 H296 0.930 . S
H290 C287 0.928 . S
H291 C288 0.931 . S
H292 C268 0.930 . S
H293 C265 0.930 . S
H294 C274 0.930 . S
H295 C286 0.929 . S
H296 C289 0.930 . S
C297 C298 1.351 . S
C297 N300 1.368 . S
C297 H302 0.931 . S
C298 C297 1.351 . S
C298 N299 1.373 . S
C298 H326 0.930 . S
N299 C298 1.373 . S
N299 C301 1.340 . S
N300 C297 1.368 . S
N300 C301 1.321 . S
N300 Co303 2.135 . S
C301 N299 1.340 . S
C301 N300 1.321 . S
C301 H325 0.930 . S
H302 C297 0.931 . S
Co303 N300 2.135 . S
Co303 N306 2.121 . S
Co303 O311 2.055 . S
Co303 O314 2.039 . S
Co303 N317 2.140 . S
C304 O305 1.227 . S
C304 O314 1.265 . S
O305 C304 1.227 . S
N306 Co303 2.121 . S
N306 C308 1.375 . S
N306 C309 1.313 . S
C307 C308 1.338 . S
C307 N310 1.377 . S
C307 H327 0.930 . S
C308 N306 1.375 . S
C308 C307 1.338 . S
C308 H312 0.931 . S
C309 N306 1.313 . S
C309 N310 1.344 . S
C309 H313 0.930 . S
N310 C307 1.377 . S
N310 C309 1.344 . S
O311 Co303 2.055 . S
O311 C315 1.253 . S
H312 C308 0.931 . S
H313 C309 0.930 . S
O314 Co303 2.039 . S
O314 C304 1.265 . S
C315 O311 1.253 . S
C315 O316 1.227 . S
O316 C315 1.227 . S
N317 Co303 2.140 . S
N317 C320 1.346 . S
N317 C321 1.345 . S
C318 C319 1.387 . S
C318 C322 1.391 . S
C319 C318 1.387 . S
C319 C320 1.369 . S
C319 H328 0.929 . S
C320 N317 1.346 . S
C320 C319 1.369 . S
C320 H323 0.928 . S
C321 N317 1.345 . S
C321 C322 1.371 . S
C321 H324 0.931 . S
C322 C318 1.391 . S
C322 C321 1.371 . S
C322 H329 0.930 . S
H323 C320 0.928 . S
H324 C321 0.931 . S
H325 C301 0.930 . S
H326 C298 0.930 . S
H327 C307 0.930 . S
H328 C319 0.929 . S
H329 C322 0.930 . S
C330 C331 1.351 . S
C330 N333 1.368 . S
C330 H335 0.931 . S
C331 C330 1.351 . S
C331 N332 1.373 . S
C331 H359 0.930 . S
N332 C331 1.373 . S
N332 C334 1.340 . S
N333 C330 1.368 . S
N333 C334 1.321 . S
N333 Co336 2.135 . S
C334 N332 1.340 . S
C334 N333 1.321 . S
C334 H358 0.930 . S
H335 C330 0.931 . S
Co336 N333 2.135 . S
Co336 N339 2.121 . S
Co336 O344 2.055 . S
Co336 O347 2.039 . S
Co336 N350 2.140 . S
C337 O338 1.227 . S
C337 O347 1.265 . S
O338 C337 1.227 . S
N339 Co336 2.121 . S
N339 C341 1.375 . S
N339 C342 1.313 . S
C340 C341 1.338 . S
C340 N343 1.377 . S
C340 H360 0.930 . S
C341 N339 1.375 . S
C341 C340 1.338 . S
C341 H345 0.931 . S
C342 N339 1.313 . S
C342 N343 1.344 . S
C342 H346 0.930 . S
N343 C340 1.377 . S
N343 C342 1.344 . S
O344 Co336 2.055 . S
O344 C348 1.253 . S
H345 C341 0.931 . S
H346 C342 0.930 . S
O347 Co336 2.039 . S
O347 C337 1.265 . S
C348 O344 1.253 . S
C348 O349 1.227 . S
O349 C348 1.227 . S
N350 Co336 2.140 . S
N350 C353 1.346 . S
N350 C354 1.345 . S
C351 C352 1.387 . S
C351 C355 1.391 . S
C352 C351 1.387 . S
C352 C353 1.369 . S
C352 H361 0.929 . S
C353 N350 1.346 . S
C353 C352 1.369 . S
C353 H356 0.928 . S
C354 N350 1.345 . S
C354 C355 1.371 . S
C354 H357 0.931 . S
C355 C351 1.391 . S
C355 C354 1.371 . S
C355 H362 0.930 . S
H356 C353 0.928 . S
H357 C354 0.931 . S
H358 C334 0.930 . S
H359 C331 0.930 . S
H360 C340 0.930 . S
H361 C352 0.929 . S
H362 C355 0.930 . S
C363 C364 1.351 . S
C363 N366 1.368 . S
C363 H368 0.931 . S
C364 C363 1.351 . S
C364 N365 1.373 . S
C364 H392 0.930 . S
N365 C364 1.373 . S
N365 C367 1.340 . S
N366 C363 1.368 . S
N366 C367 1.321 . S
N366 Co369 2.135 . S
C367 N365 1.340 . S
C367 N366 1.321 . S
C367 H391 0.930 . S
H368 C363 0.931 . S
Co369 N366 2.135 . S
Co369 N372 2.121 . S
Co369 O377 2.055 . S
Co369 O380 2.039 . S
Co369 N383 2.140 . S
C370 O371 1.227 . S
C370 O380 1.265 . S
O371 C370 1.227 . S
N372 Co369 2.121 . S
N372 C374 1.375 . S
N372 C375 1.313 . S
C373 C374 1.338 . S
C373 N376 1.377 . S
C373 H393 0.930 . S
C374 N372 1.375 . S
C374 C373 1.338 . S
C374 H378 0.931 . S
C375 N372 1.313 . S
C375 N376 1.344 . S
C375 H379 0.930 . S
N376 C373 1.377 . S
N376 C375 1.344 . S
O377 Co369 2.055 . S
O377 C381 1.253 . S
H378 C374 0.931 . S
H379 C375 0.930 . S
O380 Co369 2.039 . S
O380 C370 1.265 . S
C381 O377 1.253 . S
C381 O382 1.227 . S
O382 C381 1.227 . S
N383 Co369 2.140 . S
N383 C386 1.346 . S
N383 C387 1.345 . S
C384 C385 1.387 . S
C384 C388 1.391 . S
C385 C384 1.387 . S
C385 C386 1.369 . S
C385 H394 0.929 . S
C386 N383 1.346 . S
C386 C385 1.369 . S
C386 H389 0.928 . S
C387 N383 1.345 . S
C387 C388 1.371 . S
C387 H390 0.931 . S
C388 C384 1.391 . S
C388 C387 1.371 . S
C388 H395 0.930 . S
H389 C386 0.928 . S
H390 C387 0.931 . S
H391 C367 0.930 . S
H392 C364 0.930 . S
H393 C373 0.930 . S
H394 C385 0.929 . S
H395 C388 0.930 . S
C396 C397 1.351 . S
C396 N399 1.368 . S
C396 H401 0.931 . S
C397 C396 1.351 . S
C397 N398 1.373 . S
C397 H425 0.930 . S
N398 C397 1.373 . S
N398 C400 1.340 . S
N399 C396 1.368 . S
N399 C400 1.321 . S
N399 Co402 2.135 . S
C400 N398 1.340 . S
C400 N399 1.321 . S
C400 H424 0.930 . S
H401 C396 0.931 . S
Co402 N399 2.135 . S
Co402 N405 2.121 . S
Co402 O410 2.055 . S
Co402 O413 2.039 . S
Co402 N416 2.140 . S
C403 O404 1.227 . S
C403 O413 1.265 . S
O404 C403 1.227 . S
N405 Co402 2.121 . S
N405 C407 1.375 . S
N405 C408 1.313 . S
C406 C407 1.338 . S
C406 N409 1.377 . S
C406 H426 0.930 . S
C407 N405 1.375 . S
C407 C406 1.338 . S
C407 H411 0.931 . S
C408 N405 1.313 . S
C408 N409 1.344 . S
C408 H412 0.930 . S
N409 C406 1.377 . S
N409 C408 1.344 . S
O410 Co402 2.055 . S
O410 C414 1.253 . S
H411 C407 0.931 . S
H412 C408 0.930 . S
O413 Co402 2.039 . S
O413 C403 1.265 . S
C414 O410 1.253 . S
C414 O415 1.227 . S
O415 C414 1.227 . S
N416 Co402 2.140 . S
N416 C419 1.346 . S
N416 C420 1.345 . S
C417 C418 1.387 . S
C417 C421 1.391 . S
C418 C417 1.387 . S
C418 C419 1.369 . S
C418 H427 0.929 . S
C419 N416 1.346 . S
C419 C418 1.369 . S
C419 H422 0.928 . S
C420 N416 1.345 . S
C420 C421 1.371 . S
C420 H423 0.931 . S
C421 C417 1.391 . S
C421 C420 1.371 . S
C421 H428 0.930 . S
H422 C419 0.928 . S
H423 C420 0.931 . S
H424 C400 0.930 . S
H425 C397 0.930 . S
H426 C406 0.930 . S
H427 C418 0.929 . S
H428 C421 0.930 . S
C429 C430 1.351 . S
C429 N432 1.368 . S
C429 H434 0.931 . S
C430 C429 1.351 . S
C430 N431 1.373 . S
C430 H458 0.930 . S
N431 C430 1.373 . S
N431 C433 1.340 . S
N432 C429 1.368 . S
N432 C433 1.321 . S
N432 Co435 2.135 . S
C433 N431 1.340 . S
C433 N432 1.321 . S
C433 H457 0.930 . S
H434 C429 0.931 . S
Co435 N432 2.135 . S
Co435 N438 2.121 . S
Co435 O443 2.055 . S
Co435 O446 2.039 . S
Co435 N449 2.140 . S
C436 O437 1.227 . S
C436 O446 1.265 . S
O437 C436 1.227 . S
N438 Co435 2.121 . S
N438 C440 1.375 . S
N438 C441 1.313 . S
C439 C440 1.338 . S
C439 N442 1.377 . S
C439 H459 0.930 . S
C440 N438 1.375 . S
C440 C439 1.338 . S
C440 H444 0.931 . S
C441 N438 1.313 . S
C441 N442 1.344 . S
C441 H445 0.930 . S
N442 C439 1.377 . S
N442 C441 1.344 . S
O443 Co435 2.055 . S
O443 C447 1.253 . S
H444 C440 0.931 . S
H445 C441 0.930 . S
O446 Co435 2.039 . S
O446 C436 1.265 . S
C447 O443 1.253 . S
C447 O448 1.227 . S
O448 C447 1.227 . S
N449 Co435 2.140 . S
N449 C452 1.346 . S
N449 C453 1.345 . S
C450 C451 1.387 . S
C450 C454 1.391 . S
C451 C450 1.387 . S
C451 C452 1.369 . S
C451 H460 0.929 . S
C452 N449 1.346 . S
C452 C451 1.369 . S
C452 H455 0.928 . S
C453 N449 1.345 . S
C453 C454 1.371 . S
C453 H456 0.931 . S
C454 C450 1.391 . S
C454 C453 1.371 . S
C454 H461 0.930 . S
H455 C452 0.928 . S
H456 C453 0.931 . S
H457 C433 0.930 . S
H458 C430 0.930 . S
H459 C439 0.930 . S
H460 C451 0.929 . S
H461 C454 0.930 . S
C462 C463 1.351 . S
C462 N465 1.368 . S
C462 H467 0.931 . S
C463 C462 1.351 . S
C463 N464 1.373 . S
C463 H491 0.930 . S
N464 C463 1.373 . S
N464 C466 1.340 . S
N465 C462 1.368 . S
N465 C466 1.321 . S
N465 Co468 2.135 . S
C466 N464 1.340 . S
C466 N465 1.321 . S
C466 H490 0.930 . S
H467 C462 0.931 . S
Co468 N465 2.135 . S
Co468 N471 2.121 . S
Co468 O476 2.055 . S
Co468 O479 2.039 . S
Co468 N482 2.140 . S
C469 O470 1.227 . S
C469 O479 1.265 . S
O470 C469 1.227 . S
N471 Co468 2.121 . S
N471 C473 1.375 . S
N471 C474 1.313 . S
C472 C473 1.338 . S
C472 N475 1.377 . S
C472 H492 0.930 . S
C473 N471 1.375 . S
C473 C472 1.338 . S
C473 H477 0.931 . S
C474 N471 1.313 . S
C474 N475 1.344 . S
C474 H478 0.930 . S
N475 C472 1.377 . S
N475 C474 1.344 . S
O476 Co468 2.055 . S
O476 C480 1.253 . S
H477 C473 0.931 . S
H478 C474 0.930 . S
O479 Co468 2.039 . S
O479 C469 1.265 . S
C480 O476 1.253 . S
C480 O481 1.227 . S
O481 C480 1.227 . S
N482 Co468 2.140 . S
N482 C485 1.346 . S
N482 C486 1.345 . S
C483 C484 1.387 . S
C483 C487 1.391 . S
C484 C483 1.387 . S
C484 C485 1.369 . S
C484 H493 0.929 . S
C485 N482 1.346 . S
C485 C484 1.369 . S
C485 H488 0.928 . S
C486 N482 1.345 . S
C486 C487 1.371 . S
C486 H489 0.931 . S
C487 C483 1.391 . S
C487 C486 1.371 . S
C487 H494 0.930 . S
H488 C485 0.928 . S
H489 C486 0.931 . S
H490 C466 0.930 . S
H491 C463 0.930 . S
H492 C472 0.930 . S
H493 C484 0.929 . S
H494 C487 0.930 . S
C495 C496 1.351 . S
C495 N498 1.368 . S
C495 H500 0.931 . S
C496 C495 1.351 . S
C496 N497 1.373 . S
C496 H524 0.930 . S
N497 C496 1.373 . S
N497 C499 1.340 . S
N498 C495 1.368 . S
N498 C499 1.321 . S
N498 Co501 2.135 . S
C499 N497 1.340 . S
C499 N498 1.321 . S
C499 H523 0.930 . S
H500 C495 0.931 . S
Co501 N498 2.135 . S
Co501 N504 2.121 . S
Co501 O509 2.055 . S
Co501 O512 2.039 . S
Co501 N515 2.140 . S
C502 O503 1.227 . S
C502 O512 1.265 . S
O503 C502 1.227 . S
N504 Co501 2.121 . S
N504 C506 1.375 . S
N504 C507 1.313 . S
C505 C506 1.338 . S
C505 N508 1.377 . S
C505 H525 0.930 . S
C506 N504 1.375 . S
C506 C505 1.338 . S
C506 H510 0.931 . S
C507 N504 1.313 . S
C507 N508 1.344 . S
C507 H511 0.930 . S
N508 C505 1.377 . S
N508 C507 1.344 . S
O509 Co501 2.055 . S
O509 C513 1.253 . S
H510 C506 0.931 . S
H511 C507 0.930 . S
O512 Co501 2.039 . S
O512 C502 1.265 . S
C513 O509 1.253 . S
C513 O514 1.227 . S
O514 C513 1.227 . S
N515 Co501 2.140 . S
N515 C518 1.346 . S
N515 C519 1.345 . S
C516 C517 1.387 . S
C516 C520 1.391 . S
C517 C516 1.387 . S
C517 C518 1.369 . S
C517 H526 0.929 . S
C518 N515 1.346 . S
C518 C517 1.369 . S
C518 H521 0.928 . S
C519 N515 1.345 . S
C519 C520 1.371 . S
C519 H522 0.931 . S
C520 C516 1.391 . S
C520 C519 1.371 . S
C520 H527 0.930 . S
H521 C518 0.928 . S
H522 C519 0.931 . S
H523 C499 0.930 . S
H524 C496 0.930 . S
H525 C505 0.930 . S
H526 C517 0.929 . S
H527 C520 0.930 . S
C528 C529 1.369 . S
C528 C530 1.419 . S
C528 H532 0.930 . S
C529 C528 1.369 . S
C529 C538 1.429 1_655 S
C530 C528 1.419 . S
C530 C531 1.363 1_655 S
C530 H533 0.929 . S
C531 C530 1.363 1_455 S
C531 C537 1.428 . S
H532 C528 0.930 . S
H533 C530 0.929 . S
S534 N535 1.613 . S
S534 N536 1.610 . S
N535 S534 1.613 . S
N535 C538 1.350 . S
N536 S534 1.610 . S
N536 C537 1.351 . S
C537 C531 1.428 . S
C537 N536 1.351 . S
C537 C538 1.434 . S
C538 C529 1.429 1_455 S
C538 N535 1.350 . S
C538 C537 1.434 . S
C539 C540 1.369 . S
C539 C541 1.419 . S
C539 H543 0.930 . S
C540 C539 1.369 . S
C540 C549 1.429 1_545 S
C541 C539 1.419 . S
C541 C542 1.363 1_545 S
C541 H544 0.929 . S
C542 C541 1.363 1_565 S
C542 C548 1.428 . S
H543 C539 0.930 . S
H544 C541 0.929 . S
S545 N546 1.613 . S
S545 N547 1.610 . S
N546 S545 1.613 . S
N546 C549 1.350 . S
N547 S545 1.610 . S
N547 C548 1.351 . S
C548 C542 1.428 . S
C548 N547 1.351 . S
C548 C549 1.434 . S
C549 C540 1.429 1_565 S
C549 N546 1.350 . S
C549 C548 1.434 . S
C550 C551 1.369 1_455 S
C550 C552 1.419 . S
C550 H554 0.930 . S
C551 C550 1.369 1_655 S
C551 C560 1.429 . S
C552 C550 1.419 . S
C552 C553 1.363 . S
C552 H555 0.929 . S
C553 C552 1.363 . S
C553 C559 1.428 1_455 S
H554 C550 0.930 . S
H555 C552 0.929 . S
S556 N557 1.613 . S
S556 N558 1.610 . S
N557 S556 1.613 . S
N557 C560 1.350 . S
N558 S556 1.610 . S
N558 C559 1.351 . S
C559 C553 1.428 1_655 S
C559 N558 1.351 . S
C559 C560 1.434 . S
C560 C551 1.429 . S
C560 N557 1.350 . S
C560 C559 1.434 . S
C561 C562 1.369 1_545 S
C561 C563 1.419 . S
C561 H565 0.930 . S
C562 C561 1.369 1_565 S
C562 C571 1.429 . S
C563 C561 1.419 . S
C563 C564 1.363 . S
C563 H566 0.929 . S
C564 C563 1.363 . S
C564 C570 1.428 1_545 S
H565 C561 0.930 . S
H566 C563 0.929 . S
S567 N568 1.613 . S
S567 N569 1.610 . S
N568 S567 1.613 . S
N568 C571 1.350 . S
N569 S567 1.610 . S
N569 C570 1.351 . S
C570 C564 1.428 1_565 S
C570 N569 1.351 . S
C570 C571 1.434 . S
C571 C562 1.429 . S
C571 N568 1.350 . S
C571 C570 1.434 . S
C572 C573 1.369 . S
C572 C574 1.419 1_565 S
C572 H576 0.930 . S
C573 C572 1.369 . S
C573 C582 1.429 . S
C574 C572 1.419 1_545 S
C574 C575 1.363 . S
C574 H577 0.929 . S
C575 C574 1.363 . S
C575 C581 1.428 . S
H576 C572 0.930 . S
H577 C574 0.929 . S
S578 N579 1.613 . S
S578 N580 1.610 1_565 S
N579 S578 1.613 . S
N579 C582 1.350 . S
N580 S578 1.610 1_545 S
N580 C581 1.351 . S
C581 C575 1.428 . S
C581 N580 1.351 . S
C581 C582 1.434 1_545 S
C582 C573 1.429 . S
C582 N579 1.350 . S
C582 C581 1.434 1_565 S
C583 C584 1.369 . S
C583 C585 1.419 1_655 S
C583 H587 0.930 . S
C584 C583 1.369 . S
C584 C593 1.429 . S
C585 C583 1.419 1_455 S
C585 C586 1.363 . S
C585 H588 0.929 . S
C586 C585 1.363 . S
C586 C592 1.428 . S
H587 C583 0.930 . S
H588 C585 0.929 . S
S589 N590 1.613 . S
S589 N591 1.610 1_655 S
N590 S589 1.613 . S
N590 C593 1.350 . S
N591 S589 1.610 1_455 S
N591 C592 1.351 . S
C592 C586 1.428 . S
C592 N591 1.351 . S
C592 C593 1.434 1_455 S
C593 C584 1.429 . S
C593 N590 1.350 . S
C593 C592 1.434 1_655 S
C594 C595 1.369 . S
C594 C596 1.419 1_565 S
C594 H598 0.930 . S
C595 C594 1.369 . S
C595 C604 1.429 . S
C596 C594 1.419 1_545 S
C596 C597 1.363 . S
C596 H599 0.929 . S
C597 C596 1.363 . S
C597 C603 1.428 . S
H598 C594 0.930 . S
H599 C596 0.929 . S
S600 N601 1.613 1_545 S
S600 N602 1.610 . S
N601 S600 1.613 1_565 S
N601 C604 1.350 . S
N602 S600 1.610 . S
N602 C603 1.351 . S
C603 C597 1.428 . S
C603 N602 1.351 . S
C603 C604 1.434 1_545 S
C604 C595 1.429 . S
C604 N601 1.350 . S
C604 C603 1.434 1_565 S
C605 C606 1.369 . S
C605 C607 1.419 1_655 S
C605 H609 0.930 . S
C606 C605 1.369 . S
C606 C615 1.429 . S
C607 C605 1.419 1_455 S
C607 C608 1.363 . S
C607 H610 0.929 . S
C608 C607 1.363 . S
C608 C614 1.428 . S
H609 C605 0.930 . S
H610 C607 0.929 . S
S611 N612 1.613 . S
S611 N613 1.610 1_655 S
N612 S611 1.613 . S
N612 C615 1.350 . S
N613 S611 1.610 1_455 S
N613 C614 1.351 . S
C614 C608 1.428 . S
C614 N613 1.351 . S
C614 C615 1.434 1_455 S
C615 C606 1.429 . S
C615 N612 1.350 . S
C615 C614 1.434 1_655 S
C616 C617 1.369 . S
C616 C618 1.419 . S
C616 H620 0.930 . S
C617 C616 1.369 . S
C617 C626 1.429 . S
C618 C616 1.419 . S
C618 C619 1.363 . S
C618 H621 0.929 . S
C619 C618 1.363 . S
C619 C625 1.428 . S
H620 C616 0.930 . S
H621 C618 0.929 . S
S622 N623 1.613 . S
S622 N624 1.610 . S
N623 S622 1.613 . S
N623 C626 1.350 . S
N624 S622 1.610 . S
N624 C625 1.351 . S
C625 C619 1.428 . S
C625 N624 1.351 . S
C625 C626 1.434 . S
C626 C617 1.429 . S
C626 N623 1.350 . S
C626 C625 1.434 . S
C627 C628 1.369 . S
C627 C629 1.419 . S
C627 H631 0.930 . S
C628 C627 1.369 . S
C628 C637 1.429 . S
C629 C627 1.419 . S
C629 C630 1.363 . S
C629 H632 0.929 . S
C630 C629 1.363 . S
C630 C636 1.428 . S
H631 C627 0.930 . S
H632 C629 0.929 . S
S633 N634 1.613 . S
S633 N635 1.610 . S
N634 S633 1.613 . S
N634 C637 1.350 . S
N635 S633 1.610 . S
N635 C636 1.351 . S
C636 C630 1.428 . S
C636 N635 1.351 . S
C636 C637 1.434 . S
C637 C628 1.429 . S
C637 N634 1.350 . S
C637 C636 1.434 . S
C638 C639 1.369 . S
C638 C640 1.419 . S
C638 H642 0.930 . S
C639 C638 1.369 . S
C639 C648 1.429 . S
C640 C638 1.419 . S
C640 C641 1.363 . S
C640 H643 0.929 . S
C641 C640 1.363 . S
C641 C647 1.428 . S
H642 C638 0.930 . S
H643 C640 0.929 . S
S644 N645 1.613 . S
S644 N646 1.610 . S
N645 S644 1.613 . S
N645 C648 1.350 . S
N646 S644 1.610 . S
N646 C647 1.351 . S
C647 C641 1.428 . S
C647 N646 1.351 . S
C647 C648 1.434 . S
C648 C639 1.429 . S
C648 N645 1.350 . S
C648 C647 1.434 . S
C649 C650 1.369 . S
C649 C651 1.419 . S
C649 H653 0.930 . S
C650 C649 1.369 . S
C650 C659 1.429 . S
C651 C649 1.419 . S
C651 C652 1.363 . S
C651 H654 0.929 . S
C652 C651 1.363 . S
C652 C658 1.428 . S
H653 C649 0.930 . S
H654 C651 0.929 . S
S655 N656 1.613 . S
S655 N657 1.610 . S
N656 S655 1.613 . S
N656 C659 1.350 . S
N657 S655 1.610 . S
N657 C658 1.351 . S
C658 C652 1.428 . S
C658 N657 1.351 . S
C658 C659 1.434 . S
C659 C650 1.429 . S
C659 N656 1.350 . S
C659 C658 1.434 . S
C660 C661 1.369 . S
C660 C662 1.419 . S
C660 H664 0.930 . S
C661 C660 1.369 . S
C661 C670 1.429 . S
C662 C660 1.419 . S
C662 C663 1.363 . S
C662 H665 0.929 . S
C663 C662 1.363 . S
C663 C669 1.428 . S
H664 C660 0.930 . S
H665 C662 0.929 . S
S666 N667 1.613 . S
S666 N668 1.610 . S
N667 S666 1.613 . S
N667 C670 1.350 . S
N668 S666 1.610 . S
N668 C669 1.351 . S
C669 C663 1.428 . S
C669 N668 1.351 . S
C669 C670 1.434 . S
C670 C661 1.429 . S
C670 N667 1.350 . S
C670 C669 1.434 . S
C671 C672 1.369 . S
C671 C673 1.419 . S
C671 H675 0.930 . S
C672 C671 1.369 . S
C672 C681 1.429 . S
C673 C671 1.419 . S
C673 C674 1.363 . S
C673 H676 0.929 . S
C674 C673 1.363 . S
C674 C680 1.428 . S
H675 C671 0.930 . S
H676 C673 0.929 . S
S677 N678 1.613 . S
S677 N679 1.610 . S
N678 S677 1.613 . S
N678 C681 1.350 . S
N679 S677 1.610 . S
N679 C680 1.351 . S
C680 C674 1.428 . S
C680 N679 1.351 . S
C680 C681 1.434 . S
C681 C672 1.429 . S
C681 N678 1.350 . S
C681 C680 1.434 . S
C682 C683 1.369 . S
C682 C684 1.419 . S
C682 H686 0.930 . S
C683 C682 1.369 . S
C683 C692 1.429 . S
C684 C682 1.419 . S
C684 C685 1.363 . S
C684 H687 0.929 . S
C685 C684 1.363 . S
C685 C691 1.428 . S
H686 C682 0.930 . S
H687 C684 0.929 . S
S688 N689 1.613 . S
S688 N690 1.610 . S
N689 S688 1.613 . S
N689 C692 1.350 . S
N690 S688 1.610 . S
N690 C691 1.351 . S
C691 C685 1.428 . S
C691 N690 1.351 . S
C691 C692 1.434 . S
C692 C683 1.429 . S
C692 N689 1.350 . S
C692 C691 1.434 . S
C693 C694 1.369 . S
C693 C695 1.419 . S
C693 H697 0.930 . S
C694 C693 1.369 . S
C694 C703 1.429 . S
C695 C693 1.419 . S
C695 C696 1.363 . S
C695 H698 0.929 . S
C696 C695 1.363 . S
C696 C702 1.428 . S
H697 C693 0.930 . S
H698 C695 0.929 . S
S699 N700 1.613 . S
S699 N701 1.610 . S
N700 S699 1.613 . S
N700 C703 1.350 . S
N701 S699 1.610 . S
N701 C702 1.351 . S
C702 C696 1.428 . S
C702 N701 1.351 . S
C702 C703 1.434 . S
C703 C694 1.429 . S
C703 N700 1.350 . S
C703 C702 1.434 . S
C704 C705 1.369 . S
C704 C706 1.419 . S
C704 H708 0.930 . S
C705 C704 1.369 . S
C705 C714 1.429 . S
C706 C704 1.419 . S
C706 C707 1.363 . S
C706 H709 0.929 . S
C707 C706 1.363 . S
C707 C713 1.428 . S
H708 C704 0.930 . S
H709 C706 0.929 . S
S710 N711 1.613 . S
S710 N712 1.610 . S
N711 S710 1.613 . S
N711 C714 1.350 . S
N712 S710 1.610 . S
N712 C713 1.351 . S
C713 C707 1.428 . S
C713 N712 1.351 . S
C713 C714 1.434 . S
C714 C705 1.429 . S
C714 N711 1.350 . S
C714 C713 1.434 . S
C715 C716 1.369 . S
C715 C717 1.419 . S
C715 H719 0.930 . S
C716 C715 1.369 . S
C716 C725 1.429 . S
C717 C715 1.419 . S
C717 C718 1.363 . S
C717 H720 0.929 . S
C718 C717 1.363 . S
C718 C724 1.428 . S
H719 C715 0.930 . S
H720 C717 0.929 . S
S721 N722 1.613 . S
S721 N723 1.610 . S
N722 S721 1.613 . S
N722 C725 1.350 . S
N723 S721 1.610 . S
N723 C724 1.351 . S
C724 C718 1.428 . S
C724 N723 1.351 . S
C724 C725 1.434 . S
C725 C716 1.429 . S
C725 N722 1.350 . S
C725 C724 1.434 . S
C726 C727 1.369 . S
C726 C728 1.419 . S
C726 H730 0.930 . S
C727 C726 1.369 . S
C727 C736 1.429 . S
C728 C726 1.419 . S
C728 C729 1.363 . S
C728 H731 0.929 . S
C729 C728 1.363 . S
C729 C735 1.428 . S
H730 C726 0.930 . S
H731 C728 0.929 . S
S732 N733 1.613 . S
S732 N734 1.610 . S
N733 S732 1.613 . S
N733 C736 1.350 . S
N734 S732 1.610 . S
N734 C735 1.351 . S
C735 C729 1.428 . S
C735 N734 1.351 . S
C735 C736 1.434 . S
C736 C727 1.429 . S
C736 N733 1.350 . S
C736 C735 1.434 . S
C737 C738 1.369 . S
C737 C739 1.419 . S
C737 H741 0.930 . S
C738 C737 1.369 . S
C738 C747 1.429 . S
C739 C737 1.419 . S
C739 C740 1.363 . S
C739 H742 0.929 . S
C740 C739 1.363 . S
C740 C746 1.428 . S
H741 C737 0.930 . S
H742 C739 0.929 . S
S743 N744 1.613 . S
S743 N745 1.610 . S
N744 S743 1.613 . S
N744 C747 1.350 . S
N745 S743 1.610 . S
N745 C746 1.351 . S
C746 C740 1.428 . S
C746 N745 1.351 . S
C746 C747 1.434 . S
C747 C738 1.429 . S
C747 N744 1.350 . S
C747 C746 1.434 . S
C748 C749 1.369 . S
C748 C750 1.419 . S
C748 H752 0.930 . S
C749 C748 1.369 . S
C749 C758 1.429 . S
C750 C748 1.419 . S
C750 C751 1.363 . S
C750 H753 0.929 . S
C751 C750 1.363 . S
C751 C757 1.428 . S
H752 C748 0.930 . S
H753 C750 0.929 . S
S754 N755 1.613 . S
S754 N756 1.610 . S
N755 S754 1.613 . S
N755 C758 1.350 . S
N756 S754 1.610 . S
N756 C757 1.351 . S
C757 C751 1.428 . S
C757 N756 1.351 . S
C757 C758 1.434 . S
C758 C749 1.429 . S
C758 N755 1.350 . S
C758 C757 1.434 . S
C759 C760 1.369 . S
C759 C761 1.419 . S
C759 H763 0.930 . S
C760 C759 1.369 . S
C760 C769 1.429 . S
C761 C759 1.419 . S
C761 C762 1.363 . S
C761 H764 0.929 . S
C762 C761 1.363 . S
C762 C768 1.428 . S
H763 C759 0.930 . S
H764 C761 0.929 . S
S765 N766 1.613 . S
S765 N767 1.610 . S
N766 S765 1.613 . S
N766 C769 1.350 . S
N767 S765 1.610 . S
N767 C768 1.351 . S
C768 C762 1.428 . S
C768 N767 1.351 . S
C768 C769 1.434 . S
C769 C760 1.429 . S
C769 N766 1.350 . S
C769 C768 1.434 . S
C770 C771 1.369 . S
C770 C772 1.419 . S
C770 H774 0.930 . S
C771 C770 1.369 . S
C771 C780 1.429 . S
C772 C770 1.419 . S
C772 C773 1.363 . S
C772 H775 0.929 . S
C773 C772 1.363 . S
C773 C779 1.428 . S
H774 C770 0.930 . S
H775 C772 0.929 . S
S776 N777 1.613 . S
S776 N778 1.610 . S
N777 S776 1.613 . S
N777 C780 1.350 . S
N778 S776 1.610 . S
N778 C779 1.351 . S
C779 C773 1.428 . S
C779 N778 1.351 . S
C779 C780 1.434 . S
C780 C771 1.429 . S
C780 N777 1.350 . S
C780 C779 1.434 . S
C781 C782 1.369 . S
C781 C783 1.419 . S
C781 H785 0.930 . S
C782 C781 1.369 . S
C782 C791 1.429 . S
C783 C781 1.419 . S
C783 C784 1.363 . S
C783 H786 0.929 . S
C784 C783 1.363 . S
C784 C790 1.428 . S
H785 C781 0.930 . S
H786 C783 0.929 . S
S787 N788 1.613 . S
S787 N789 1.610 . S
N788 S787 1.613 . S
N788 C791 1.350 . S
N789 S787 1.610 . S
N789 C790 1.351 . S
C790 C784 1.428 . S
C790 N789 1.351 . S
C790 C791 1.434 . S
C791 C782 1.429 . S
C791 N788 1.350 . S
C791 C790 1.434 . S
C792 C793 1.369 . S
C792 C794 1.419 . S
C792 H796 0.930 . S
C793 C792 1.369 . S
C793 C802 1.429 . S
C794 C792 1.419 . S
C794 C795 1.363 . S
C794 H797 0.929 . S
C795 C794 1.363 . S
C795 C801 1.428 . S
H796 C792 0.930 . S
H797 C794 0.929 . S
S798 N799 1.613 . S
S798 N800 1.610 . S
N799 S798 1.613 . S
N799 C802 1.350 . S
N800 S798 1.610 . S
N800 C801 1.351 . S
C801 C795 1.428 . S
C801 N800 1.351 . S
C801 C802 1.434 . S
C802 C793 1.429 . S
C802 N799 1.350 . S
C802 C801 1.434 . S
C803 C804 1.369 . S
C803 C805 1.419 . S
C803 H807 0.930 . S
C804 C803 1.369 . S
C804 C813 1.429 . S
C805 C803 1.419 . S
C805 C806 1.363 . S
C805 H808 0.929 . S
C806 C805 1.363 . S
C806 C812 1.428 . S
H807 C803 0.930 . S
H808 C805 0.929 . S
S809 N810 1.613 . S
S809 N811 1.610 . S
N810 S809 1.613 . S
N810 C813 1.350 . S
N811 S809 1.610 . S
N811 C812 1.351 . S
C812 C806 1.428 . S
C812 N811 1.351 . S
C812 C813 1.434 . S
C813 C804 1.429 . S
C813 N810 1.350 . S
C813 C812 1.434 . S
C814 C815 1.369 . S
C814 C816 1.419 . S
C814 H818 0.930 . S
C815 C814 1.369 . S
C815 C824 1.429 . S
C816 C814 1.419 . S
C816 C817 1.363 . S
C816 H819 0.929 . S
C817 C816 1.363 . S
C817 C823 1.428 . S
H818 C814 0.930 . S
H819 C816 0.929 . S
S820 N821 1.613 . S
S820 N822 1.610 . S
N821 S820 1.613 . S
N821 C824 1.350 . S
N822 S820 1.610 . S
N822 C823 1.351 . S
C823 C817 1.428 . S
C823 N822 1.351 . S
C823 C824 1.434 . S
C824 C815 1.429 . S
C824 N821 1.350 . S
C824 C823 1.434 . S
C825 C826 1.369 . S
C825 C827 1.419 . S
C825 H829 0.930 . S
C826 C825 1.369 . S
C826 C835 1.429 . S
C827 C825 1.419 . S
C827 C828 1.363 . S
C827 H830 0.929 . S
C828 C827 1.363 . S
C828 C834 1.428 . S
H829 C825 0.930 . S
H830 C827 0.929 . S
S831 N832 1.613 . S
S831 N833 1.610 . S
N832 S831 1.613 . S
N832 C835 1.350 . S
N833 S831 1.610 . S
N833 C834 1.351 . S
C834 C828 1.428 . S
C834 N833 1.351 . S
C834 C835 1.434 . S
C835 C826 1.429 . S
C835 N832 1.350 . S
C835 C834 1.434 . S
C836 C837 1.369 . S
C836 C838 1.419 . S
C836 H840 0.930 . S
C837 C836 1.369 . S
C837 C846 1.429 . S
C838 C836 1.419 . S
C838 C839 1.363 . S
C838 H841 0.929 . S
C839 C838 1.363 . S
C839 C845 1.428 . S
H840 C836 0.930 . S
H841 C838 0.929 . S
S842 N843 1.613 . S
S842 N844 1.610 . S
N843 S842 1.613 . S
N843 C846 1.350 . S
N844 S842 1.610 . S
N844 C845 1.351 . S
C845 C839 1.428 . S
C845 N844 1.351 . S
C845 C846 1.434 . S
C846 C837 1.429 . S
C846 N843 1.350 . S
C846 C845 1.434 . S
C847 C848 1.369 . S
C847 C849 1.419 . S
C847 H851 0.930 . S
C848 C847 1.369 . S
C848 C857 1.429 . S
C849 C847 1.419 . S
C849 C850 1.363 . S
C849 H852 0.929 . S
C850 C849 1.363 . S
C850 C856 1.428 . S
H851 C847 0.930 . S
H852 C849 0.929 . S
S853 N854 1.613 . S
S853 N855 1.610 . S
N854 S853 1.613 . S
N854 C857 1.350 . S
N855 S853 1.610 . S
N855 C856 1.351 . S
C856 C850 1.428 . S
C856 N855 1.351 . S
C856 C857 1.434 . S
C857 C848 1.429 . S
C857 N854 1.350 . S
C857 C856 1.434 . S
C858 C859 1.369 . S
C858 C860 1.419 . S
C858 H862 0.930 . S
C859 C858 1.369 . S
C859 C868 1.429 . S
C860 C858 1.419 . S
C860 C861 1.363 . S
C860 H863 0.929 . S
C861 C860 1.363 . S
C861 C867 1.428 . S
H862 C858 0.930 . S
H863 C860 0.929 . S
S864 N865 1.613 . S
S864 N866 1.610 . S
N865 S864 1.613 . S
N865 C868 1.350 . S
N866 S864 1.610 . S
N866 C867 1.351 . S
C867 C861 1.428 . S
C867 N866 1.351 . S
C867 C868 1.434 . S
C868 C859 1.429 . S
C868 N865 1.350 . S
C868 C867 1.434 . S
C869 C870 1.369 . S
C869 C871 1.419 . S
C869 H873 0.930 . S
C870 C869 1.369 . S
C870 C879 1.429 . S
C871 C869 1.419 . S
C871 C872 1.363 . S
C871 H874 0.929 . S
C872 C871 1.363 . S
C872 C878 1.428 . S
H873 C869 0.930 . S
H874 C871 0.929 . S
S875 N876 1.613 . S
S875 N877 1.610 . S
N876 S875 1.613 . S
N876 C879 1.350 . S
N877 S875 1.610 . S
N877 C878 1.351 . S
C878 C872 1.428 . S
C878 N877 1.351 . S
C878 C879 1.434 . S
C879 C870 1.429 . S
C879 N876 1.350 . S
C879 C878 1.434 . S
C880 C881 1.369 1_655 S
C880 C882 1.419 . S
C880 H884 0.930 . S
C881 C880 1.369 1_455 S
C881 C890 1.429 . S
C882 C880 1.419 . S
C882 C883 1.363 . S
C882 H885 0.929 . S
C883 C882 1.363 . S
C883 C889 1.428 1_655 S
H884 C880 0.930 . S
H885 C882 0.929 . S
S886 N887 1.613 . S
S886 N888 1.610 . S
N887 S886 1.613 . S
N887 C890 1.350 . S
N888 S886 1.610 . S
N888 C889 1.351 . S
C889 C883 1.428 1_455 S
C889 N888 1.351 . S
C889 C890 1.434 . S
C890 C881 1.429 . S
C890 N887 1.350 . S
C890 C889 1.434 . S
C891 C892 1.369 . S
C891 C893 1.419 . S
C891 H895 0.930 . S
C892 C891 1.369 . S
C892 C901 1.429 1_565 S
C893 C891 1.419 . S
C893 C894 1.363 1_565 S
C893 H896 0.929 . S
C894 C893 1.363 1_545 S
C894 C900 1.428 . S
H895 C891 0.930 . S
H896 C893 0.929 . S
S897 N898 1.613 . S
S897 N899 1.610 . S
N898 S897 1.613 . S
N898 C901 1.350 . S
N899 S897 1.610 . S
N899 C900 1.351 . S
C900 C894 1.428 . S
C900 N899 1.351 . S
C900 C901 1.434 . S
C901 C892 1.429 1_545 S
C901 N898 1.350 . S
C901 C900 1.434 . S
C902 C903 1.369 . S
C902 C904 1.419 . S
C902 H906 0.930 . S
C903 C902 1.369 . S
C903 C912 1.429 1_455 S
C904 C902 1.419 . S
C904 C905 1.363 1_455 S
C904 H907 0.929 . S
C905 C904 1.363 1_655 S
C905 C911 1.428 . S
H906 C902 0.930 . S
H907 C904 0.929 . S
S908 N909 1.613 . S
S908 N910 1.610 . S
N909 S908 1.613 . S
N909 C912 1.350 . S
N910 S908 1.610 . S
N910 C911 1.351 . S
C911 C905 1.428 . S
C911 N910 1.351 . S
C911 C912 1.434 . S
C912 C903 1.429 1_655 S
C912 N909 1.350 . S
C912 C911 1.434 . S
C913 C914 1.369 . S
C913 C915 1.419 . S
C913 H917 0.930 . S
C914 C913 1.369 . S
C914 C923 1.429 1_545 S
C915 C913 1.419 . S
C915 C916 1.363 1_545 S
C915 H918 0.929 . S
C916 C915 1.363 1_565 S
C916 C922 1.428 . S
H917 C913 0.930 . S
H918 C915 0.929 . S
S919 N920 1.613 . S
S919 N921 1.610 . S
N920 S919 1.613 . S
N920 C923 1.350 . S
N921 S919 1.610 . S
N921 C922 1.351 . S
C922 C916 1.428 . S
C922 N921 1.351 . S
C922 C923 1.434 . S
C923 C914 1.429 1_565 S
C923 N920 1.350 . S
C923 C922 1.434 . S
C924 C925 1.369 . S
C924 C926 1.419 1_556 S
C924 H928 0.930 . S
C925 C924 1.369 . S
C925 C934 1.429 . S
C926 C924 1.419 1_554 S
C926 C927 1.363 . S
C926 H929 0.929 . S
C927 C926 1.363 . S
C927 C933 1.428 . S
H928 C924 0.930 . S
H929 C926 0.929 . S
S930 N931 1.613 . S
S930 N932 1.610 1_556 S
N931 S930 1.613 . S
N931 C934 1.350 . S
N932 S930 1.610 1_554 S
N932 C933 1.351 . S
C933 C927 1.428 . S
C933 N932 1.351 . S
C933 C934 1.434 1_554 S
C934 C925 1.429 . S
C934 N931 1.350 . S
C934 C933 1.434 1_556 S
C935 C936 1.369 . S
C935 C937 1.419 1_554 S
C935 H939 0.930 . S
C936 C935 1.369 . S
C936 C945 1.429 . S
C937 C935 1.419 1_556 S
C937 C938 1.363 . S
C937 H940 0.929 . S
C938 C937 1.363 . S
C938 C944 1.428 . S
H939 C935 0.930 . S
H940 C937 0.929 . S
S941 N942 1.613 1_556 S
S941 N943 1.610 . S
N942 S941 1.613 1_554 S
N942 C945 1.350 . S
N943 S941 1.610 . S
N943 C944 1.351 . S
C944 C938 1.428 . S
C944 N943 1.351 . S
C944 C945 1.434 1_556 S
C945 C936 1.429 . S
C945 N942 1.350 . S
C945 C944 1.434 1_554 S
C946 C947 1.369 . S
C946 C948 1.419 1_554 S
C946 H950 0.930 . S
C947 C946 1.369 . S
C947 C956 1.429 . S
C948 C946 1.419 1_556 S
C948 C949 1.363 . S
C948 H951 0.929 . S
C949 C948 1.363 . S
C949 C955 1.428 . S
H950 C946 0.930 . S
H951 C948 0.929 . S
S952 N953 1.613 1_556 S
S952 N954 1.610 . S
N953 S952 1.613 1_554 S
N953 C956 1.350 . S
N954 S952 1.610 . S
N954 C955 1.351 . S
C955 C949 1.428 . S
C955 N954 1.351 . S
C955 C956 1.434 1_556 S
C956 C947 1.429 . S
C956 N953 1.350 . S
C956 C955 1.434 1_554 S
C957 C958 1.369 . S
C957 C959 1.419 1_556 S
C957 H961 0.930 . S
C958 C957 1.369 . S
C958 C967 1.429 . S
C959 C957 1.419 1_554 S
C959 C960 1.363 . S
C959 H962 0.929 . S
C960 C959 1.363 . S
C960 C966 1.428 . S
H961 C957 0.930 . S
H962 C959 0.929 . S
S963 N964 1.613 . S
S963 N965 1.610 1_556 S
N964 S963 1.613 . S
N964 C967 1.350 . S
N965 S963 1.610 1_554 S
N965 C966 1.351 . S
C966 C960 1.428 . S
C966 N965 1.351 . S
C966 C967 1.434 1_554 S
C967 C958 1.429 . S
C967 N964 1.350 . S
C967 C966 1.434 1_556 S
C529 C84 0.705 . S
C531 C18 0.711 . S
C540 C51 0.709 . S
C542 C117 0.708 . S
C551 C216 0.713 . S
C553 C150 0.706 . S
C562 C249 0.710 . S
C564 C183 0.707 . S
C573 C282 0.707 . S
C575 C348 0.709 . S
C584 C381 0.705 . S
C586 C315 0.711 . S
C595 C480 0.713 . S
C597 C414 0.706 . S
C606 C447 0.706 . S
C608 C513 0.711 . S
C617 N13 1.743 . S
C619 N508 1.741 . S
C628 N409 1.740 . S
C630 N46 1.736 . S
C639 N442 1.738 . S
C641 N79 1.736 . S
C650 N475 1.742 . S
C652 N112 1.737 . S
C661 N310 1.735 . S
C663 N145 1.740 . S
C672 N343 1.736 . S
C674 N178 1.742 . S
C683 N376 1.737 . S
C685 N211 1.736 . S
C694 N277 1.735 . S
C696 N244 1.739 . S
C705 C7 1.469 . S
C707 C120 1.463 . S
C716 C21 1.464 . S
C718 C40 1.473 . S
C727 C73 1.471 . S
C729 C54 1.458 . S
C738 C87 1.464 . S
C740 C106 1.470 . S
C749 C186 1.463 . S
C751 C139 1.474 . S
C760 C172 1.468 . S
C762 C219 1.463 . S
C771 C252 1.461 . S
C773 C205 1.474 . S
C782 C153 1.465 . S
C784 C238 1.471 . S
C793 C271 1.470 . S
C795 C384 1.459 . S
C804 C285 1.459 . S
C806 C304 1.474 . S
C815 C337 1.468 . S
C817 C318 1.461 . S
C826 C370 1.471 . S
C828 C351 1.458 . S
C837 C403 1.474 . S
C839 C450 1.459 . S
C848 C483 1.461 . S
C850 C436 1.469 . S
C859 C516 1.464 . S
C861 C469 1.469 . S
C870 C502 1.470 . S
C872 C417 1.464 . S
C881 N2 1.549 . S
C883 N200 1.546 . S
C892 N233 1.539 . S
C894 N35 1.542 . S
C903 N134 1.539 . S
C905 N68 1.541 . S
C914 N167 1.544 . S
C916 N101 1.547 . S
C925 N266 1.546 . S
C927 N464 1.547 . S
C936 N497 1.545 . S
C938 N299 1.542 . S
C947 N398 1.549 . S
C949 N332 1.547 . S
C958 N365 1.543 . S
C960 N431 1.546 . S
