# Generated by pormake.
# Topology umb, (4)-cn, num edge types: 1
# Building blocks:
#     Node 0, Type 0, BuildingBlock: QUQFOY_clean_sbu_1, # of connection points: 4
#     Node 1, Type 0, BuildingBlock: QUQFOY_clean_sbu_1, # of connection points: 4
#     Node 2, Type 0, BuildingBlock: QUQFOY_clean_sbu_1, # of connection points: 4
#     Node 3, Type 0, BuildingBlock: QUQFOY_clean_sbu_1, # of connection points: 4
#     Node 4, Type 0, BuildingBlock: QUQFOY_clean_sbu_1, # of connection points: 4
#     Node 5, Type 0, BuildingBlock: QUQFOY_clean_sbu_1, # of connection points: 4
#     Node 6, Type 0, BuildingBlock: QUQFOY_clean_sbu_1, # of connection points: 4
#     Node 7, Type 0, BuildingBlock: QUQFOY_clean_sbu_1, # of connection points: 4
#     Node 8, Type 0, BuildingBlock: QUQFOY_clean_sbu_1, # of connection points: 4
#     Node 9, Type 0, BuildingBlock: QUQFOY_clean_sbu_1, # of connection points: 4
#     Node 10, Type 0, BuildingBlock: QUQFOY_clean_sbu_1, # of connection points: 4
#     Node 11, Type 0, BuildingBlock: QUQFOY_clean_sbu_1, # of connection points: 4
#     Edge 12, Type (0, 0), BuildingBlock: MIFKUJ_clean_linker_0, # of connection points: 2
#     Edge 13, Type (0, 0), BuildingBlock: MIFKUJ_clean_linker_0, # of connection points: 2
#     Edge 14, Type (0, 0), BuildingBlock: MIFKUJ_clean_linker_0, # of connection points: 2
#     Edge 15, Type (0, 0), BuildingBlock: MIFKUJ_clean_linker_0, # of connection points: 2
#     Edge 16, Type (0, 0), BuildingBlock: MIFKUJ_clean_linker_0, # of connection points: 2
#     Edge 17, Type (0, 0), BuildingBlock: MIFKUJ_clean_linker_0, # of connection points: 2
#     Edge 18, Type (0, 0), BuildingBlock: MIFKUJ_clean_linker_0, # of connection points: 2
#     Edge 19, Type (0, 0), BuildingBlock: MIFKUJ_clean_linker_0, # of connection points: 2
#     Edge 20, Type (0, 0), BuildingBlock: MIFKUJ_clean_linker_0, # of connection points: 2
#     Edge 21, Type (0, 0), BuildingBlock: MIFKUJ_clean_linker_0, # of connection points: 2
#     Edge 22, Type (0, 0), BuildingBlock: MIFKUJ_clean_linker_0, # of connection points: 2
#     Edge 23, Type (0, 0), BuildingBlock: MIFKUJ_clean_linker_0, # of connection points: 2
#     Edge 24, Type (0, 0), BuildingBlock: MIFKUJ_clean_linker_0, # of connection points: 2
#     Edge 25, Type (0, 0), BuildingBlock: MIFKUJ_clean_linker_0, # of connection points: 2
#     Edge 26, Type (0, 0), BuildingBlock: MIFKUJ_clean_linker_0, # of connection points: 2
#     Edge 27, Type (0, 0), BuildingBlock: MIFKUJ_clean_linker_0, # of connection points: 2
#     Edge 28, Type (0, 0), BuildingBlock: MIFKUJ_clean_linker_0, # of connection points: 2
#     Edge 29, Type (0, 0), BuildingBlock: MIFKUJ_clean_linker_0, # of connection points: 2
#     Edge 30, Type (0, 0), BuildingBlock: MIFKUJ_clean_linker_0, # of connection points: 2
#     Edge 31, Type (0, 0), BuildingBlock: MIFKUJ_clean_linker_0, # of connection points: 2
#     Edge 32, Type (0, 0), BuildingBlock: MIFKUJ_clean_linker_0, # of connection points: 2
#     Edge 33, Type (0, 0), BuildingBlock: MIFKUJ_clean_linker_0, # of connection points: 2
#     Edge 34, Type (0, 0), BuildingBlock: MIFKUJ_clean_linker_0, # of connection points: 2
#     Edge 35, Type (0, 0), BuildingBlock: MIFKUJ_clean_linker_0, # of connection points: 2
# Relax obj value: 0.096
# Max RMSD: 0.158
# Mean RMSD: 0.158
data_MOF--net-umb--node1-QUQFOY_clean_sbu_1--edge1-MIFKUJ_clean_linker_0
_symmetry_space_group_name_H-M    P1
_symmetry_Int_Tables_number       1
_symmetry_cell_setting            triclinic
loop_
_symmetry_equiv_pos_as_xyz
'x, y, z'
_cell_length_a     65.694522
_cell_length_b     65.757195
_cell_length_c     50.918643
_cell_angle_alpha  90.012223
_cell_angle_beta   89.971265
_cell_angle_gamma 119.97678
loop_
_atom_site_label
_atom_site_type_symbol
_atom_site_fract_x
_atom_site_fract_y
_atom_site_fract_z
_atom_type_partial_charge
O0 O 0.55266 0.15841 0.3753 0.0
Cd1 Cd 0.55699 0.15127 0.33701 0.0
Cd2 Cd 0.56081 0.19559 0.33058 0.0
O3 O 0.55629 0.19354 0.3712 0.0
O4 O 0.55451 0.12009 0.34123 0.0
O5 O 0.53095 0.12563 0.31516 0.0
C6 C 0.53762 0.11167 0.32453 0.0
C7 C 0.54295 0.20984 0.30175 0.0
C8 C 0.55386 0.1766 0.38558 0.0
C9 C 0.603 0.19066 0.31795 0.0
O10 O 0.59395 0.20378 0.31885 0.0
O11 O 0.591 0.16914 0.32396 0.0
O12 O 0.55906 0.22346 0.31801 0.0
O13 O 0.53572 0.18763 0.30302 0.0
O14 O 0.39892 0.57074 0.6992 0.0
Cd15 Cd 0.40185 0.56655 0.65945 0.0
Cd16 Cd 0.35889 0.56103 0.66238 0.0
O17 O 0.36044 0.55476 0.70232 0.0
O18 O 0.43312 0.56884 0.65761 0.0
O19 O 0.40053 0.53717 0.64515 0.0
C20 C 0.42303 0.5479 0.64828 0.0
C21 C 0.32901 0.5384 0.63261 0.0
C22 C 0.38056 0.56364 0.71317 0.0
C23 C 0.39774 0.60606 0.64065 0.0
O24 O 0.37798 0.59605 0.65229 0.0
O25 O 0.40888 0.59515 0.63721 0.0
O26 O 0.3259 0.55006 0.65107 0.0
O27 O 0.34856 0.5381 0.63236 0.0
O28 O 0.82763 0.40761 0.02978 0.0
Cd29 Cd 0.82929 0.40843 0.98933 0.0
Cd30 Cd 0.79203 0.36623 0.9966 0.0
O31 O 0.80199 0.37017 0.03598 0.0
O32 O 0.85852 0.43869 0.98302 0.0
O33 O 0.85444 0.40461 0.97089 0.0
C34 C 0.86738 0.42714 0.97238 0.0
C35 C 0.78632 0.33712 0.96665 0.0
C36 C 0.81616 0.39042 0.04527 0.0
C37 C 0.78368 0.40334 0.97451 0.0
O38 O 0.77465 0.38366 0.9862 0.0
O39 O 0.80569 0.41524 0.97089 0.0
O40 O 0.77162 0.33287 0.98561 0.0
O41 O 0.80547 0.35731 0.96632 0.0
O42 O 0.4223 0.82453 0.36723 0.0
Cd43 Cd 0.4228 0.82761 0.32688 0.0
Cd44 Cd 0.4299 0.79119 0.33245 0.0
O45 O 0.43719 0.8012 0.37179 0.0
O46 O 0.41938 0.85576 0.32229 0.0
O47 O 0.45063 0.85454 0.30858 0.0
C48 C 0.43958 0.86605 0.31104 0.0
C49 C 0.45243 0.78475 0.30169 0.0
C50 C 0.42958 0.81386 0.38194 0.0
C51 C 0.38312 0.78157 0.31254 0.0
O52 O 0.39461 0.7732 0.32375 0.0
O53 O 0.39262 0.80345 0.30849 0.0
O54 O 0.44223 0.77033 0.32091 0.0
O55 O 0.4516 0.804 0.3014 0.0
O56 O 0.60759 0.43704 0.71054 0.0
Cd57 Cd 0.59648 0.43342 0.67212 0.0
Cd58 Cd 0.63611 0.4274 0.66685 0.0
O59 O 0.63847 0.4322 0.70745 0.0
O60 O 0.56687 0.43393 0.67796 0.0
O61 O 0.59495 0.45958 0.65232 0.0
C62 C 0.57425 0.45142 0.66223 0.0
C63 C 0.6669 0.44692 0.63676 0.0
C64 C 0.62408 0.43526 0.72135 0.0
C65 C 0.58897 0.38668 0.65293 0.0
O66 O 0.61087 0.39436 0.65534 0.0
O67 O 0.58044 0.39982 0.65777 0.0
O68 O 0.66648 0.43161 0.65294 0.0
O69 O 0.65051 0.45229 0.6388 0.0
O70 O 0.1631 0.60062 0.03957 0.0
Cd71 Cd 0.15477 0.58964 1.00116 0.0
Cd72 Cd 0.20019 0.63047 0.99445 0.0
O73 O 0.19905 0.63102 0.03544 0.0
O74 O 0.12432 0.5604 1.00665 0.0
O75 O 0.12757 0.58933 0.98185 0.0
C76 C 0.1146 0.56851 0.99126 0.0
C77 C 0.21496 0.66385 0.9675 0.0
C78 C 0.18189 0.61681 0.0498 0.0
C79 C 0.19333 0.58353 0.97721 0.0
O80 O 0.20688 0.60554 0.97915 0.0
O81 O 0.17218 0.57409 0.98483 0.0
O82 O 0.22849 0.66003 0.9825 0.0
O83 O 0.19259 0.6496 0.96925 0.0
O84 O 0.83125 0.42758 0.33732 0.0
Cd85 Cd 0.83347 0.42537 0.37754 0.0
Cd86 Cd 0.79675 0.43275 0.37356 0.0
O87 O 0.80694 0.44145 0.33449 0.0
O88 O 0.86101 0.42073 0.38061 0.0
O89 O 0.86067 0.45141 0.39762 0.0
C90 C 0.87169 0.44006 0.39352 0.0
C91 C 0.79058 0.45448 0.40558 0.0
C92 C 0.82032 0.43512 0.32347 0.0
C93 C 0.78669 0.38535 0.3909 0.0
O94 O 0.77829 0.39729 0.3809 0.0
O95 O 0.80866 0.39449 0.39422 0.0
O96 O 0.77639 0.4454 0.38595 0.0
O97 O 0.8095 0.45298 0.40572 0.0
O98 O 0.40475 0.8277 0.67428 0.0
Cd99 Cd 0.40809 0.83296 0.71438 0.0
Cd100 Cd 0.36419 0.79552 0.71067 0.0
O101 O 0.36652 0.80369 0.67076 0.0
O102 O 0.43963 0.86145 0.71699 0.0
O103 O 0.40743 0.86064 0.73097 0.0
C104 C 0.42992 0.87215 0.72773 0.0
C105 C 0.33308 0.7867 0.73937 0.0
C106 C 0.3866 0.81612 0.66009 0.0
C107 C 0.40261 0.78815 0.73224 0.0
O108 O 0.38254 0.77901 0.7214 0.0
O109 O 0.41491 0.81023 0.73471 0.0
O110 O 0.33123 0.77241 0.72091 0.0
O111 O 0.35194 0.80709 0.74001 0.0
O112 O 0.55534 0.39264 0.99906 0.0
Cd113 Cd 0.55813 0.40405 0.03727 0.0
Cd114 Cd 0.56167 0.36326 0.04468 0.0
O115 O 0.55833 0.36083 1.00395 0.0
O116 O 0.55733 0.43341 0.03099 0.0
O117 O 0.53161 0.40526 0.05653 0.0
C118 C 0.53961 0.42587 0.04648 0.0
C119 C 0.54283 0.33148 0.07376 0.0
C120 C 0.55661 0.37555 0.98919 0.0
C121 C 0.60334 0.41004 0.05891 0.0
O122 O 0.5945 0.38795 0.05727 0.0
O123 O 0.59139 0.41959 0.05262 0.0
O124 O 0.55904 0.33346 0.05794 0.0
O125 O 0.53601 0.34677 0.0718 0.0
O126 O 0.16307 0.55689 0.33395 0.0
Cd127 Cd 0.15726 0.55708 0.37377 0.0
Cd128 Cd 0.19916 0.5571 0.37427 0.0
O129 O 0.19493 0.55363 0.33367 0.0
O130 O 0.12684 0.55667 0.37388 0.0
O131 O 0.13119 0.52881 0.39251 0.0
C132 C 0.11786 0.53746 0.38705 0.0
C133 C 0.20755 0.53455 0.40294 0.0
C134 C 0.17907 0.55551 0.32135 0.0
C135 C 0.19931 0.59989 0.39465 0.0
O136 O 0.2114 0.59062 0.38766 0.0
O137 O 0.17715 0.58869 0.39225 0.0
O138 O 0.22291 0.54859 0.38619 0.0
O139 O 0.18664 0.53181 0.40186 0.0
O140 O 0.60118 0.16491 0.66507 0.0
Cd141 Cd 0.58926 0.15835 0.70312 0.0
Cd142 Cd 0.62792 0.20328 0.71028 0.0
O143 O 0.63025 0.20145 0.66943 0.0
O144 O 0.56146 0.12645 0.69968 0.0
O145 O 0.59112 0.134 0.72592 0.0
C146 C 0.57071 0.11911 0.71672 0.0
C147 C 0.65981 0.21641 0.73926 0.0
C148 C 0.61719 0.18385 0.65495 0.0
C149 C 0.58032 0.19644 0.72249 0.0
O150 O 0.60237 0.21036 0.72295 0.0
O151 O 0.57184 0.1754 0.71485 0.0
O152 O 0.65805 0.23051 0.72303 0.0
O153 O 0.64414 0.19439 0.73795 0.0
O154 O 0.42254 0.59628 1.00416 0.0
Cd155 Cd 0.42303 0.59448 0.04458 0.0
Cd156 Cd 0.42895 0.63688 0.03816 0.0
O157 O 0.43709 0.63434 0.99918 0.0
O158 O 0.42107 0.56366 0.05005 0.0
O159 O 0.45151 0.59708 0.06305 0.0
C160 C 0.44139 0.57454 0.06098 0.0
C161 C 0.45082 0.66553 0.0694 0.0
C162 C 0.42974 0.61406 0.98923 0.0
C163 C 0.3822 0.59924 0.05695 0.0
O164 O 0.39343 0.61896 0.04542 0.0
O165 O 0.39241 0.58775 0.06247 0.0
O166 O 0.44115 0.66999 0.04982 0.0
O167 O 0.44967 0.6453 0.07 0.0
H168 H 0.54426 0.1423 0.42159 0.0
H169 H 0.55568 0.14726 0.46758 0.0
H170 H 0.58114 0.22158 0.46174 0.0
H171 H 0.57008 0.2168 0.41517 0.0
H172 H 0.61332 0.21351 0.48464 0.0
H173 H 0.53181 0.18573 0.49804 0.0
H174 H 0.48914 0.15974 0.49215 0.0
H175 H 0.49434 0.10147 0.5221 0.0
H176 H 0.53709 0.12703 0.52784 0.0
H177 H 0.63241 0.22399 0.62574 0.0
H178 H 0.62303 0.22619 0.57962 0.0
H179 H 0.59227 0.15113 0.5726 0.0
H180 H 0.60111 0.14879 0.61864 0.0
H181 H 0.56216 0.16392 0.5571 0.0
H182 H 0.64437 0.19161 0.54065 0.0
H183 H 0.68706 0.21783 0.54609 0.0
H184 H 0.68036 0.27681 0.5221 0.0
H185 H 0.63757 0.25099 0.51685 0.0
C186 C 0.55181 0.15967 0.43013 0.0
C187 C 0.55618 0.17915 0.4146 0.0
C188 C 0.55833 0.16247 0.45655 0.0
C189 C 0.5692 0.18478 0.46827 0.0
C190 C 0.57276 0.20418 0.45316 0.0
C191 C 0.56618 0.20138 0.4266 0.0
C192 C 0.57803 0.18772 0.49576 0.0
C193 C 0.60204 0.20302 0.50064 0.0
C194 C 0.56346 0.17373 0.51656 0.0
C195 C 0.5377 0.15829 0.51321 0.0
C196 C 0.52388 0.16734 0.5032 0.0
C197 C 0.49968 0.15269 0.49992 0.0
C198 C 0.48904 0.12896 0.50671 0.0
C199 C 0.5026 0.11985 0.51685 0.0
C200 C 0.52682 0.13442 0.52016 0.0
C201 C 0.62433 0.20806 0.61413 0.0
C202 C 0.61742 0.1862 0.62592 0.0
C203 C 0.61888 0.20933 0.58774 0.0
C204 C 0.60674 0.18879 0.57259 0.0
C205 C 0.6014 0.1672 0.58389 0.0
C206 C 0.60662 0.1659 0.61022 0.0
C207 C 0.5976 0.18922 0.54589 0.0
C208 C 0.57344 0.17458 0.5412 0.0
C209 C 0.61204 0.20389 0.52537 0.0
C210 C 0.63773 0.21941 0.52867 0.0
C211 C 0.65197 0.21021 0.53679 0.0
C212 C 0.67619 0.22499 0.53978 0.0
C213 C 0.68641 0.24898 0.53453 0.0
C214 C 0.67242 0.25824 0.52622 0.0
C215 C 0.64819 0.24353 0.52321 0.0
H216 H 0.70516 0.26039 0.53685 0.0
H217 H 0.4703 0.11765 0.50415 0.0
H218 H 0.35534 0.5354 0.75481 0.0
H219 H 0.36335 0.5446 0.80178 0.0
H220 H 0.41973 0.61399 0.78195 0.0
H221 H 0.41282 0.60415 0.7355 0.0
H222 H 0.43499 0.60026 0.81758 0.0
H223 H 0.36238 0.59993 0.80885 0.0
H224 H 0.32069 0.5844 0.7975 0.0
H225 H 0.30054 0.52736 0.85157 0.0
H226 H 0.34214 0.54238 0.863 0.0
H227 H 0.44593 0.6469 0.94923 0.0
H228 H 0.43743 0.63945 0.90203 0.0
H229 H 0.39708 0.56508 0.91713 0.0
H230 H 0.40577 0.57218 0.96378 0.0
H231 H 0.37373 0.58263 0.88477 0.0
H232 H 0.44885 0.58541 0.89193 0.0
H233 H 0.49085 0.60421 0.90355 0.0
H234 H 0.50615 0.66171 0.85185 0.0
H235 H 0.46417 0.64339 0.8402 0.0
C236 C 0.36935 0.55259 0.76065 0.0
C237 C 0.38358 0.56899 0.7416 0.0
C238 C 0.37386 0.55796 0.78749 0.0
C239 C 0.3921 0.58016 0.7957 0.0
C240 C 0.40575 0.59668 0.77642 0.0
C241 C 0.40174 0.59107 0.7498 0.0
C242 C 0.39783 0.58609 0.82414 0.0
C243 C 0.4215 0.59671 0.83207 0.0
C244 C 0.38042 0.58129 0.84346 0.0
C245 C 0.3554 0.57214 0.83655 0.0
C246 C 0.34907 0.58397 0.81816 0.0
C247 C 0.32546 0.57527 0.81174 0.0
C248 C 0.30798 0.55486 0.82375 0.0
C249 C 0.31409 0.54314 0.84225 0.0
C250 C 0.33768 0.55174 0.84871 0.0
C251 C 0.4355 0.62897 0.94243 0.0
C252 C 0.42668 0.61018 0.96036 0.0
C253 C 0.43059 0.62474 0.91549 0.0
C254 C 0.41654 0.60169 0.9061 0.0
C255 C 0.40787 0.58299 0.92392 0.0
C256 C 0.41304 0.58713 0.95064 0.0
C257 C 0.41068 0.59681 0.87776 0.0
C258 C 0.38705 0.58631 0.87001 0.0
C259 C 0.42813 0.60223 0.85849 0.0
C260 C 0.45335 0.61316 0.86542 0.0
C261 C 0.46114 0.60216 0.88322 0.0
C262 C 0.48495 0.61271 0.88977 0.0
C263 C 0.50115 0.63418 0.87851 0.0
C264 C 0.49358 0.64511 0.8606 0.0
C265 C 0.46979 0.63464 0.854 0.0
H266 H 0.51957 0.64231 0.8836 0.0
H267 H 0.28971 0.54816 0.81876 0.0
H268 H 0.84164 0.41585 0.29515 0.0
H269 H 0.84111 0.41031 0.24802 0.0
H270 H 0.8016 0.44601 0.23784 0.0
H271 H 0.80128 0.45091 0.28566 0.0
H272 H 0.78392 0.40926 0.20733 0.0
H273 H 0.86149 0.47236 0.22148 0.0
H274 H 0.9005 0.4939 0.24236 0.0
H275 H 0.91537 0.43995 0.21881 0.0
H276 H 0.87631 0.41792 0.19807 0.0
H277 H 0.84485 0.43181 0.07014 0.0
H278 H 0.84551 0.44115 0.11643 0.0
H279 H 0.79259 0.36943 0.13243 0.0
H280 H 0.7914 0.35997 0.08564 0.0
H281 H 0.85681 0.42802 0.15893 0.0
H282 H 0.75781 0.36809 0.18273 0.0
H283 H 0.71946 0.35171 0.16042 0.0
H284 H 0.74881 0.40866 0.10521 0.0
H285 H 0.78732 0.42542 0.1272 0.0
C286 C 0.83301 0.42283 0.28301 0.0
C287 C 0.82164 0.43405 0.29434 0.0
C288 C 0.8328 0.41966 0.25589 0.0
C289 C 0.82166 0.42805 0.23915 0.0
C290 C 0.81039 0.43942 0.25029 0.0
C291 C 0.81034 0.44237 0.27763 0.0
C292 C 0.82146 0.42431 0.21019 0.0
C293 C 0.79988 0.41344 0.19676 0.0
C294 C 0.8423 0.43016 0.19608 0.0
C295 C 0.86589 0.44341 0.20839 0.0
C296 C 0.87302 0.46502 0.22089 0.0
C297 C 0.89515 0.47732 0.23268 0.0
C298 C 0.91039 0.46827 0.23196 0.0
C299 C 0.90354 0.44693 0.21937 0.0
C300 C 0.88142 0.43454 0.20756 0.0
C301 C 0.8334 0.41786 0.08344 0.0
C302 C 0.81804 0.39506 0.07404 0.0
C303 C 0.83384 0.42331 0.11001 0.0
C304 C 0.81894 0.40613 0.128 0.0
C305 C 0.804 0.38314 0.11889 0.0
C306 C 0.80348 0.37766 0.09215 0.0
C307 C 0.81923 0.41249 0.1562 0.0
C308 C 0.84084 0.42386 0.16949 0.0
C309 C 0.79855 0.40781 0.1699 0.0
C310 C 0.77549 0.39786 0.15649 0.0
C311 C 0.75607 0.37712 0.16584 0.0
C312 C 0.73432 0.36776 0.15322 0.0
C313 C 0.73175 0.37908 0.13132 0.0
C314 C 0.7509 0.39982 0.12203 0.0
C315 C 0.7727 0.40923 0.13454 0.0
H316 H 0.71489 0.37183 0.1216 0.0
H317 H 0.92751 0.47782 0.24111 0.0
H318 H 0.45132 0.80359 0.4222 0.0
H319 H 0.44412 0.8036 0.46953 0.0
H320 H 0.39163 0.82319 0.45361 0.0
H321 H 0.40006 0.82495 0.40704 0.0
H322 H 0.41259 0.84574 0.49242 0.0
H323 H 0.3804 0.7644 0.47171 0.0
H324 H 0.37976 0.72883 0.45521 0.0
H325 H 0.43263 0.73838 0.51129 0.0
H326 H 0.43384 0.77421 0.5279 0.0
H327 H 0.35477 0.80738 0.62013 0.0
H328 H 0.36145 0.80634 0.57258 0.0
H329 H 0.43202 0.82103 0.58797 0.0
H330 H 0.42588 0.8229 0.63495 0.0
H331 H 0.40091 0.78031 0.55062 0.0
H332 H 0.43197 0.86365 0.56901 0.0
H333 H 0.42839 0.89691 0.58579 0.0
H334 H 0.37097 0.87934 0.533 0.0
H335 H 0.37401 0.84574 0.5162 0.0
C336 C 0.43843 0.80809 0.42892 0.0
C337 C 0.42634 0.81433 0.41081 0.0
C338 C 0.43409 0.80785 0.456 0.0
C339 C 0.41697 0.81301 0.46542 0.0
C340 C 0.40501 0.81925 0.44718 0.0
C341 C 0.40982 0.82018 0.42038 0.0
C342 C 0.41157 0.8124 0.49412 0.0
C343 C 0.40972 0.83116 0.50487 0.0
C344 C 0.40798 0.79362 0.51088 0.0
C345 C 0.40743 0.77218 0.50081 0.0
C346 C 0.39205 0.75904 0.48037 0.0
C347 C 0.39156 0.73881 0.47103 0.0
C348 C 0.4062 0.7314 0.48214 0.0
C349 C 0.42134 0.74418 0.50266 0.0
C350 C 0.42193 0.76445 0.51205 0.0
C351 C 0.3717 0.81047 0.6133 0.0
C352 C 0.38985 0.81545 0.63129 0.0
C353 C 0.37548 0.80983 0.58621 0.0
C354 C 0.39723 0.81356 0.57684 0.0
C355 C 0.41512 0.81807 0.5948 0.0
C356 C 0.41159 0.81929 0.62165 0.0
C357 C 0.40178 0.81338 0.54829 0.0
C358 C 0.40361 0.79462 0.53779 0.0
C359 C 0.40475 0.83179 0.5316 0.0
C360 C 0.40302 0.85203 0.54161 0.0
C361 C 0.41843 0.86674 0.56119 0.0
C362 C 0.41653 0.88568 0.57065 0.0
C363 C 0.39941 0.89019 0.56053 0.0
C364 C 0.38419 0.8758 0.54086 0.0
C365 C 0.386 0.85681 0.53136 0.0
H366 H 0.39797 0.90487 0.56787 0.0
H367 H 0.40578 0.71572 0.47489 0.0
H368 H 0.54473 0.39744 0.95186 0.0
H369 H 0.55728 0.40446 0.90612 0.0
H370 H 0.58979 0.36188 0.9153 0.0
H371 H 0.57723 0.35476 0.96142 0.0
H372 H 0.61974 0.40451 0.89262 0.0
H373 H 0.54177 0.34226 0.8775 0.0
H374 H 0.49862 0.32012 0.88181 0.0
H375 H 0.49444 0.37793 0.84859 0.0
H376 H 0.53761 0.40057 0.84441 0.0
H377 H 0.64261 0.41384 0.75173 0.0
H378 H 0.63289 0.40166 0.79771 0.0
H379 H 0.59385 0.43827 0.80235 0.0
H380 H 0.60318 0.45017 0.75658 0.0
H381 H 0.56741 0.39367 0.81732 0.0
H382 H 0.64588 0.45687 0.83566 0.0
H383 H 0.68907 0.47893 0.83189 0.0
H384 H 0.69231 0.41876 0.85895 0.0
H385 H 0.64908 0.39622 0.86252 0.0
C386 C 0.55405 0.38907 0.94405 0.0
C387 C 0.55986 0.37543 0.96033 0.0
C388 C 0.56127 0.39313 0.91783 0.0
C389 C 0.57447 0.38368 0.90719 0.0
C390 C 0.57961 0.36934 0.92308 0.0
C391 C 0.57217 0.36506 0.94935 0.0
C392 C 0.58384 0.38998 0.87995 0.0
C393 C 0.60828 0.40172 0.87601 0.0
C394 C 0.56896 0.38673 0.85836 0.0
C395 C 0.54296 0.37318 0.86082 0.0
C396 C 0.53167 0.35033 0.8713 0.0
C397 C 0.5072 0.33767 0.87369 0.0
C398 C 0.4938 0.34762 0.86552 0.0
C399 C 0.50485 0.37024 0.85491 0.0
C400 C 0.52931 0.38298 0.8525 0.0
C401 C 0.63257 0.41989 0.76279 0.0
C402 C 0.62357 0.43289 0.7504 0.0
C403 C 0.62693 0.41282 0.78908 0.0
C404 C 0.61243 0.41885 0.80349 0.0
C405 C 0.60484 0.43317 0.79161 0.0
C406 C 0.61033 0.4401 0.76543 0.0
C407 C 0.60337 0.40881 0.83004 0.0
C408 C 0.57891 0.39627 0.83382 0.0
C409 C 0.61826 0.41128 0.85138 0.0
C410 C 0.64422 0.42476 0.84902 0.0
C411 C 0.65578 0.44826 0.84053 0.0
C412 C 0.68027 0.46087 0.8385 0.0
C413 C 0.69342 0.45023 0.84508 0.0
C414 C 0.6821 0.42697 0.85379 0.0
C415 C 0.6576 0.41427 0.85583 0.0
H416 H 0.71239 0.46003 0.84352 0.0
H417 H 0.47486 0.33779 0.86738 0.0
H418 H 0.21657 0.5671 0.28834 0.0
H419 H 0.22001 0.5785 0.24196 0.0
H420 H 0.14866 0.56502 0.24312 0.0
H421 H 0.14495 0.55318 0.28897 0.0
H422 H 0.15627 0.5486 0.19953 0.0
H423 H 0.19806 0.62678 0.24281 0.0
H424 H 0.22869 0.657 0.27127 0.0
H425 H 0.28154 0.6482 0.23189 0.0
H426 H 0.25136 0.6187 0.2024 0.0
H427 H 0.14791 0.60407 0.08704 0.0
H428 H 0.15012 0.59518 0.13315 0.0
H429 H 0.22346 0.61685 0.12338 0.0
H430 H 0.22162 0.62729 0.07759 0.0
H431 H 0.21791 0.62764 0.17021 0.0
H432 H 0.17649 0.55626 0.12051 0.0
H433 H 0.14599 0.52827 0.09014 0.0
H434 H 0.09205 0.52188 0.14275 0.0
H435 H 0.12215 0.55015 0.17312 0.0
C436 C 0.20148 0.56614 0.27856 0.0
C437 C 0.18045 0.55912 0.29242 0.0
C438 C 0.20359 0.57303 0.25213 0.0
C439 C 0.18474 0.57308 0.23908 0.0
C440 C 0.16351 0.56526 0.25268 0.0
C441 C 0.16139 0.55841 0.27896 0.0
C442 C 0.18669 0.58098 0.21125 0.0
C443 C 0.16965 0.56595 0.19318 0.0
C444 C 0.20453 0.6033 0.20258 0.0
C445 C 0.2225 0.62043 0.22068 0.0
C446 C 0.21621 0.63124 0.24034 0.0
C447 C 0.23347 0.64828 0.25657 0.0
C448 C 0.25696 0.65425 0.25368 0.0
C449 C 0.26332 0.64347 0.23422 0.0
C450 C 0.24619 0.62676 0.21758 0.0
C451 C 0.16466 0.60751 0.09493 0.0
C452 C 0.18457 0.61631 0.07867 0.0
C453 C 0.16585 0.60209 0.12122 0.0
C454 C 0.18673 0.60441 0.13164 0.0
C455 C 0.20704 0.61461 0.11585 0.0
C456 C 0.20602 0.6207 0.08967 0.0
C457 C 0.18707 0.59547 0.15856 0.0
C458 C 0.2046 0.6102 0.1764 0.0
C459 C 0.1697 0.57275 0.16701 0.0
C460 C 0.15158 0.55548 0.14894 0.0
C461 C 0.15812 0.54899 0.12547 0.0
C462 C 0.14092 0.53308 0.10829 0.0
C463 C 0.11714 0.52335 0.1145 0.0
C464 C 0.11048 0.52945 0.13795 0.0
C465 C 0.1276 0.54541 0.15515 0.0
H466 H 0.10386 0.51104 0.10117 0.0
H467 H 0.27025 0.66734 0.26641 0.0
H468 H 0.80007 0.35231 0.39572 0.0
H469 H 0.77504 0.31014 0.38852 0.0
H470 H 0.71404 0.31857 0.38594 0.0
H471 H 0.73886 0.36069 0.39293 0.0
H472 H 0.70474 0.2751 0.40723 0.0
H473 H 0.74353 0.32693 0.33127 0.0
H474 H 0.77908 0.35561 0.30733 0.0
H475 H 0.80489 0.30713 0.3077 0.0
H476 H 0.7696 0.27829 0.33197 0.0
H477 H 0.63341 0.23236 0.29484 0.0
H478 H 0.67416 0.25729 0.30825 0.0
H479 H 0.67134 0.19979 0.35201 0.0
H480 H 0.63067 0.17457 0.33828 0.0
H481 H 0.71914 0.26036 0.31524 0.0
H482 H 0.68391 0.22253 0.41571 0.0
H483 H 0.64639 0.19693 0.4385 0.0
H484 H 0.61076 0.22059 0.38693 0.0
H485 H 0.64815 0.24667 0.36428 0.0
C486 C 0.78123 0.34508 0.39457 0.0
C487 C 0.77141 0.35983 0.39431 0.0
C488 C 0.767 0.32098 0.39046 0.0
C489 C 0.74283 0.31142 0.38633 0.0
C490 C 0.73271 0.3257 0.38907 0.0
C491 C 0.74691 0.34978 0.39291 0.0
C492 C 0.72865 0.28798 0.37449 0.0
C493 C 0.70822 0.27148 0.38745 0.0
C494 C 0.73315 0.28347 0.34856 0.0
C495 C 0.75413 0.30062 0.33365 0.0
C496 C 0.75687 0.32247 0.32636 0.0
C497 C 0.77695 0.33874 0.31273 0.0
C498 C 0.79426 0.33322 0.30606 0.0
C499 C 0.79149 0.31139 0.31293 0.0
C500 C 0.77147 0.29509 0.32663 0.0
C501 C 0.64184 0.22468 0.30616 0.0
C502 C 0.62874 0.2018 0.31615 0.0
C503 C 0.66517 0.2389 0.31373 0.0
C504 C 0.67543 0.23045 0.33162 0.0
C505 C 0.66357 0.20659 0.33834 0.0
C506 C 0.6403 0.19222 0.33044 0.0
C507 C 0.69507 0.24766 0.34785 0.0
C508 C 0.71637 0.26318 0.33562 0.0
C509 C 0.69121 0.25147 0.37434 0.0
C510 C 0.6687 0.23619 0.38805 0.0
C511 C 0.66805 0.22226 0.4093 0.0
C512 C 0.64684 0.20772 0.42221 0.0
C513 C 0.62619 0.20704 0.41408 0.0
C514 C 0.62674 0.22106 0.39315 0.0
C515 C 0.64794 0.23573 0.38028 0.0
H516 H 0.6098 0.19568 0.42404 0.0
H517 H 0.8098 0.34584 0.29552 0.0
H518 H 0.38086 0.74081 0.73941 0.0
H519 H 0.39785 0.71634 0.72842 0.0
H520 H 0.46614 0.77816 0.72029 0.0
H521 H 0.44939 0.80277 0.73188 0.0
H522 H 0.44585 0.75341 0.6733 0.0
H523 H 0.46375 0.73797 0.75861 0.0
H524 H 0.45724 0.72736 0.80551 0.0
H525 H 0.4001 0.65905 0.78575 0.0
H526 H 0.40589 0.66936 0.73878 0.0
H527 H 0.44493 0.63545 0.64349 0.0
H528 H 0.46366 0.67621 0.65805 0.0
H529 H 0.39833 0.67577 0.64767 0.0
H530 H 0.37914 0.63464 0.63413 0.0
H531 H 0.43681 0.67822 0.70548 0.0
H532 H 0.41908 0.7369 0.63428 0.0
H533 H 0.42205 0.7458 0.58694 0.0
H534 H 0.47457 0.72562 0.5784 0.0
H535 H 0.47225 0.71697 0.62576 0.0
C536 C 0.39969 0.74911 0.73657 0.0
C537 C 0.4137 0.77366 0.73591 0.0
C538 C 0.40942 0.73512 0.73039 0.0
C539 C 0.43319 0.74554 0.72327 0.0
C540 C 0.44777 0.76987 0.72577 0.0
C541 C 0.43813 0.78387 0.73243 0.0
C542 C 0.44073 0.7318 0.70729 0.0
C543 C 0.44444 0.73719 0.68038 0.0
C544 C 0.439 0.71081 0.71672 0.0
C545 C 0.4353 0.7045 0.74506 0.0
C546 C 0.44967 0.72075 0.76424 0.0
C547 C 0.44611 0.71477 0.79087 0.0
C548 C 0.42827 0.69255 0.7986 0.0
C549 C 0.41393 0.67626 0.77973 0.0
C550 C 0.41738 0.68215 0.75308 0.0
C551 C 0.43479 0.64432 0.64306 0.0
C552 C 0.41044 0.6318 0.6382 0.0
C553 C 0.44557 0.66762 0.65144 0.0
C554 C 0.43229 0.67877 0.65406 0.0
C555 C 0.40883 0.66736 0.64559 0.0
C556 C 0.39788 0.64388 0.63789 0.0
C557 C 0.44039 0.69922 0.67148 0.0
C558 C 0.43931 0.69493 0.6986 0.0
C559 C 0.44386 0.7209 0.66219 0.0
C560 C 0.44542 0.72619 0.63364 0.0
C561 C 0.43139 0.73449 0.62237 0.0
C562 C 0.43293 0.73947 0.5955 0.0
C563 C 0.44846 0.73625 0.57967 0.0
C564 C 0.4625 0.72805 0.59068 0.0
C565 C 0.46104 0.72306 0.61753 0.0
H566 H 0.44964 0.74012 0.55889 0.0
H567 H 0.42556 0.68796 0.81922 0.0
H568 H 0.63105 0.45564 0.04362 0.0
H569 H 0.67181 0.47227 0.02968 0.0
H570 H 0.67447 0.41427 0.06566 0.0
H571 H 0.63375 0.39745 0.0795 0.0
H572 H 0.71861 0.45331 0.06078 0.0
H573 H 0.64825 0.40465 1.00895 0.0
H574 H 0.61094 0.39538 0.98759 0.0
H575 H 0.64664 0.45871 0.9421 0.0
H576 H 0.68413 0.46864 0.9638 0.0
H577 H 0.7363 0.38182 0.96789 0.0
H578 H 0.71217 0.39943 0.97799 0.0
H579 H 0.77451 0.46753 0.98438 0.0
H580 H 0.79877 0.45013 0.97377 0.0
H581 H 0.70476 0.43718 0.96519 0.0
H582 H 0.76982 0.48422 0.04851 0.0
H583 H 0.80257 0.4834 0.07138 0.0
H584 H 0.77152 0.40975 0.05502 0.0
H585 H 0.73838 0.41007 0.03263 0.0
C586 C 0.64066 0.44704 0.04981 0.0
C587 C 0.62901 0.42475 0.06174 0.0
C588 C 0.66399 0.45662 0.04178 0.0
C589 C 0.67578 0.44407 0.04592 0.0
C590 C 0.66552 0.42408 0.06202 0.0
C591 C 0.64217 0.41439 0.06984 0.0
C592 C 0.69521 0.44757 0.02847 0.0
C593 C 0.71601 0.45064 0.03975 0.0
C594 C 0.69139 0.4433 1.0011 0.0
C595 C 0.66886 0.43761 0.98835 0.0
C596 C 0.64808 0.41674 0.99464 0.0
C597 C 0.62691 0.41134 0.98244 0.0
C598 C 0.62638 0.42648 0.96354 0.0
C599 C 0.64705 0.44706 0.95684 0.0
C600 C 0.66825 0.45262 0.96915 0.0
C601 C 0.74477 0.40069 0.97024 0.0
C602 C 0.76935 0.41453 0.97066 0.0
C603 C 0.73099 0.41076 0.97589 0.0
C604 C 0.7417 0.43465 0.98243 0.0
C605 C 0.76604 0.44903 0.97952 0.0
C606 C 0.77983 0.43903 0.97342 0.0
C607 C 0.72802 0.44279 0.99754 0.0
C608 C 0.70816 0.44155 0.98588 0.0
C609 C 0.73223 0.44774 0.02472 0.0
C610 C 0.75189 0.4473 0.03851 0.0
C611 C 0.77 0.46788 0.04984 0.0
C612 C 0.78859 0.46747 0.06276 0.0
C613 C 0.78919 0.44656 0.06453 0.0
C614 C 0.77112 0.42596 0.0535 0.0
C615 C 0.75242 0.42624 0.04074 0.0
H616 H 0.80359 0.44628 0.07452 0.0
H617 H 0.61 0.42223 0.95402 0.0
H618 H 0.35054 0.79568 0.311 0.0
H619 H 0.3091 0.7713 0.32254 0.0
H620 H 0.31633 0.70964 0.32018 0.0
H621 H 0.35782 0.73389 0.30908 0.0
H622 H 0.27032 0.70087 0.30661 0.0
H623 H 0.33244 0.74012 0.37414 0.0
H624 H 0.36432 0.77537 0.39555 0.0
H625 H 0.31768 0.80269 0.40685 0.0
H626 H 0.28565 0.76773 0.38516 0.0
H627 H 0.24493 0.62812 0.40919 0.0
H628 H 0.26795 0.66972 0.39871 0.0
H629 H 0.20453 0.6709 0.38022 0.0
H630 H 0.18125 0.62923 0.39078 0.0
H631 H 0.26952 0.71719 0.40181 0.0
H632 H 0.20809 0.6769 0.32481 0.0
H633 H 0.17756 0.63814 0.30838 0.0
H634 H 0.22422 0.61086 0.31968 0.0
H635 H 0.25498 0.64951 0.33619 0.0
C636 C 0.34308 0.77682 0.31179 0.0
C637 C 0.35748 0.76667 0.30976 0.0
C638 C 0.31939 0.76295 0.31841 0.0
C639 C 0.30989 0.73883 0.32264 0.0
C640 C 0.32344 0.72829 0.31705 0.0
C641 C 0.34717 0.74216 0.31082 0.0
C642 C 0.28818 0.72539 0.33804 0.0
C643 C 0.26969 0.70491 0.32716 0.0
C644 C 0.28749 0.73051 0.36498 0.0
C645 C 0.3068 0.75153 0.37775 0.0
C646 C 0.32908 0.75376 0.38098 0.0
C647 C 0.34715 0.77366 0.3932 0.0
C648 C 0.34303 0.79128 0.4025 0.0
C649 C 0.32085 0.78906 0.39958 0.0
C650 C 0.30275 0.76923 0.38732 0.0
C651 C 0.23578 0.63747 0.40421 0.0
C652 C 0.21143 0.62531 0.39984 0.0
C653 C 0.24894 0.66132 0.39844 0.0
C654 C 0.23787 0.67308 0.3881 0.0
C655 C 0.2133 0.66196 0.38802 0.0
C656 C 0.20005 0.63809 0.394 0.0
C657 C 0.25174 0.69291 0.37031 0.0
C658 C 0.26915 0.71419 0.38081 0.0
C659 C 0.25144 0.68865 0.34304 0.0
C660 C 0.23376 0.66599 0.33148 0.0
C661 C 0.21185 0.66265 0.32352 0.0
C662 C 0.19449 0.64071 0.31437 0.0
C663 C 0.19895 0.62206 0.31303 0.0
C664 C 0.22081 0.62533 0.32073 0.0
C665 C 0.23822 0.64725 0.32991 0.0
H666 H 0.18548 0.60513 0.30594 0.0
H667 H 0.35695 0.80662 0.41207 0.0
H668 H 0.54354 0.36164 0.66967 0.0
H669 H 0.52466 0.32084 0.68402 0.0
H670 H 0.57898 0.31305 0.64593 0.0
H671 H 0.59849 0.35405 0.63233 0.0
H672 H 0.51176 0.27158 0.67057 0.0
H673 H 0.61036 0.31107 0.69435 0.0
H674 H 0.64507 0.35048 0.70011 0.0
H675 H 0.60063 0.37712 0.72604 0.0
H676 H 0.56576 0.3378 0.72091 0.0
H677 H 0.54677 0.19075 0.68843 0.0
H678 H 0.53125 0.21694 0.68309 0.0
H679 H 0.56185 0.24981 0.75746 0.0
H680 H 0.57986 0.2251 0.76103 0.0
H681 H 0.57732 0.281 0.7273 0.0
H682 H 0.49869 0.22523 0.73814 0.0
H683 H 0.46139 0.18766 0.73606 0.0
H684 H 0.45966 0.19411 0.65231 0.0
H685 H 0.49713 0.23153 0.65376 0.0
C686 C 0.55086 0.35094 0.66318 0.0
C687 C 0.57296 0.36118 0.65073 0.0
C688 C 0.53991 0.32754 0.67132 0.0
C689 C 0.55086 0.3143 0.66665 0.0
C690 C 0.57051 0.32324 0.64998 0.0
C691 C 0.58171 0.34671 0.64231 0.0
C692 C 0.54664 0.29502 0.68464 0.0
C693 C 0.52585 0.27334 0.68316 0.0
C694 C 0.56437 0.29813 0.70255 0.0
C695 C 0.58546 0.32153 0.70707 0.0
C696 C 0.60804 0.32529 0.70153 0.0
C697 C 0.62773 0.34762 0.70464 0.0
C698 C 0.62505 0.36631 0.71337 0.0
C699 C 0.60269 0.36266 0.71924 0.0
C700 C 0.58297 0.34035 0.71623 0.0
C701 C 0.54945 0.20301 0.7041 0.0
C702 C 0.56473 0.20627 0.72492 0.0
C703 C 0.54027 0.21792 0.70122 0.0
C704 C 0.54538 0.2357 0.71976 0.0
C705 C 0.55798 0.23661 0.74255 0.0
C706 C 0.56818 0.22245 0.74474 0.0
C707 C 0.54284 0.25619 0.71214 0.0
C708 C 0.56253 0.27866 0.71559 0.0
C709 C 0.52347 0.25383 0.69725 0.0
C710 C 0.50082 0.23128 0.69609 0.0
C711 C 0.49045 0.2186 0.71924 0.0
C712 C 0.46924 0.19732 0.71818 0.0
C713 C 0.45816 0.18851 0.69408 0.0
C714 C 0.46824 0.20099 0.67098 0.0
C715 C 0.48945 0.22228 0.67192 0.0
H716 H 0.44175 0.17202 0.69329 0.0
H717 H 0.6403 0.3836 0.71561 0.0
H718 H 0.17512 0.53706 0.98905 0.0
H719 H 0.19916 0.51945 0.99931 0.0
H720 H 0.25932 0.57873 0.9643 0.0
H721 H 0.23549 0.59644 0.95398 0.0
H722 H 0.26523 0.53967 0.96799 0.0
H723 H 0.24445 0.58841 0.02227 0.0
H724 H 0.21488 0.59635 0.04205 0.0
H725 H 0.18438 0.53041 0.0829 0.0
H726 H 0.2134 0.52183 0.06261 0.0
H727 H 0.35467 0.61889 0.04981 0.0
H728 H 0.31323 0.59788 0.03776 0.0
H729 H 0.30965 0.53181 0.05383 0.0
H730 H 0.35129 0.55265 0.0658 0.0
H731 H 0.26821 0.55687 0.06336 0.0
H732 H 0.30044 0.51469 1.00739 0.0
H733 H 0.33487 0.51687 0.98505 0.0
H734 H 0.34889 0.58095 0.9472 0.0
H735 H 0.31463 0.57919 0.96955 0.0
C736 C 0.19313 0.54575 0.98219 0.0
C737 C 0.20378 0.56864 0.97182 0.0
C738 C 0.20684 0.53557 0.98802 0.0
C739 C 0.23114 0.54823 0.98342 0.0
C740 C 0.24063 0.56883 0.96835 0.0
C741 C 0.22701 0.57907 0.96264 0.0
C742 C 0.24731 0.54479 1.00053 0.0
C743 C 0.26539 0.54242 0.98902 0.0
C744 C 0.24787 0.54905 0.02792 0.0
C745 C 0.2308 0.55434 0.04069 0.0
C746 C 0.23133 0.57558 0.03537 0.0
C747 C 0.21466 0.58018 0.04663 0.0
C748 C 0.19767 0.56388 0.06367 0.0
C749 C 0.19742 0.54298 0.06957 0.0
C750 C 0.21393 0.53819 0.05813 0.0
C751 C 0.34494 0.59995 0.05164 0.0
C752 C 0.35635 0.58743 0.05824 0.0
C753 C 0.32128 0.58797 0.04474 0.0
C754 C 0.30872 0.56337 0.04442 0.0
C755 C 0.31928 0.55082 0.05368 0.0
C756 C 0.34302 0.56281 0.06067 0.0
C757 C 0.28593 0.55155 0.03085 0.0
C758 C 0.26695 0.55186 0.04285 0.0
C759 C 0.28483 0.54595 1.00389 0.0
C760 C 0.30512 0.54685 0.99017 0.0
C761 C 0.31094 0.52926 0.99436 0.0
C762 C 0.3304 0.53042 0.98171 0.0
C763 C 0.34406 0.54905 0.96473 0.0
C764 C 0.33829 0.56654 0.96035 0.0
C765 C 0.31885 0.56546 0.97298 0.0
H766 H 0.35908 0.54989 0.95493 0.0
H767 H 0.18474 0.56748 0.07229 0.0
H768 H 0.49578 0.08463 0.29875 0.0
H769 H 0.47786 0.0428 0.28742 0.0
H770 H 0.53771 0.04144 0.32017 0.0
H771 H 0.55549 0.0828 0.33168 0.0
H772 H 0.52235 0.01715 0.27212 0.0
H773 H 0.4912 0.02334 0.35667 0.0
H774 H 0.47059 0.03689 0.38615 0.0
H775 H 0.40909 0.00295 0.33749 0.0
H776 H 0.42948 0.98947 0.30752 0.0
H777 H 0.48591 0.89999 0.30973 0.0
H778 H 0.50168 0.9421 0.30306 0.0
H779 H 0.43187 0.92933 0.28584 0.0
H780 H 0.41603 0.88751 0.29396 0.0
H781 H 0.44967 0.96138 0.31963 0.0
H782 H 0.47848 0.94983 0.23832 0.0
H783 H 0.4989 0.93622 0.20865 0.0
H784 H 0.56391 0.97973 0.24897 0.0
H785 H 0.54383 0.99337 0.27913 0.0
C786 C 0.50513 0.0754 0.30333 0.0
C787 C 0.5269 0.08689 0.31632 0.0
C788 C 0.49493 0.05158 0.29684 0.0
C789 C 0.50651 0.0391 0.30301 0.0
C790 C 0.52857 0.05079 0.31515 0.0
C791 C 0.53859 0.07439 0.3219 0.0
C792 C 0.4952 0.0135 0.29863 0.0
C793 C 0.50644 0.00485 0.28243 0.0
C794 C 0.47421 -0.00239 0.31166 0.0
C795 C 0.46195 0.00567 0.32969 0.0
C796 C 0.47335 0.01895 0.35214 0.0
C797 C 0.4617 0.02658 0.36896 0.0
C798 C 0.43857 0.02086 0.36365 0.0
C799 C 0.42702 0.00742 0.34154 0.0
C800 C 0.43862 -0.00022 0.32464 0.0
C801 C 0.47408 0.90619 0.30398 0.0
C802 C 0.44979 0.89063 0.30251 0.0
C803 C 0.48308 0.93025 0.30003 0.0
C804 C 0.46799 0.93898 0.29376 0.0
C805 C 0.44387 0.92311 0.29079 0.0
C806 C 0.43484 0.89922 0.29537 0.0
C807 C 0.47684 0.96467 0.29313 0.0
C808 C 0.46524 0.97345 0.30863 0.0
C809 C 0.49741 0.98061 0.27926 0.0
C810 C 0.50959 0.9725 0.26111 0.0
C811 C 0.4971 0.95638 0.24098 0.0
C812 C 0.50862 0.94868 0.22406 0.0
C813 C 0.53268 0.95707 0.22696 0.0
C814 C 0.54527 0.97323 0.24676 0.0
C815 C 0.53383 0.98098 0.26375 0.0
H816 H 0.54156 0.95108 0.21383 0.0
H817 H 0.42957 0.02677 0.37669 0.0
H818 H 0.46972 0.56958 0.63787 0.0
H819 H 0.49428 0.55154 0.63377 0.0
H820 H 0.43303 0.48293 0.64248 0.0
H821 H 0.40815 0.50092 0.64619 0.0
H822 H 0.4707 0.49437 0.67886 0.0
H823 H 0.45824 0.49524 0.58603 0.0
H824 H 0.45756 0.5133 0.54386 0.0
H825 H 0.53167 0.5616 0.55005 0.0
H826 H 0.53274 0.54405 0.59247 0.0
H827 H 0.52698 0.42918 0.66676 0.0
H828 H 0.501 0.4449 0.65881 0.0
H829 H 0.56039 0.51127 0.63577 0.0
H830 H 0.58664 0.49515 0.64283 0.0
H831 H 0.52331 0.50089 0.60537 0.0
H832 H 0.53682 0.50338 0.69758 0.0
H833 H 0.53926 0.48822 0.74105 0.0
H834 H 0.46556 0.43762 0.73807 0.0
H835 H 0.46274 0.45226 0.69439 0.0
C836 C 0.46141 0.55061 0.63847 0.0
C837 C 0.43706 0.53661 0.64249 0.0
C838 C 0.47545 0.54036 0.63599 0.0
C839 C 0.46543 0.51595 0.63777 0.0
C840 C 0.44101 0.50182 0.64096 0.0
C841 C 0.42686 0.51208 0.643 0.0
C842 C 0.48082 0.50557 0.63892 0.0
C843 C 0.48187 0.49534 0.66263 0.0
C844 C 0.4961 0.50791 0.61811 0.0
C845 C 0.49552 0.51845 0.59256 0.0
C846 C 0.47436 0.50985 0.57852 0.0
C847 C 0.47391 0.51996 0.55454 0.0
C848 C 0.49455 0.53862 0.54431 0.0
C849 C 0.51569 0.54716 0.55801 0.0
C850 C 0.51623 0.53711 0.58201 0.0
C851 C 0.53456 0.44712 0.6599 0.0
C852 C 0.55888 0.46109 0.65577 0.0
C853 C 0.51967 0.45609 0.65541 0.0
C854 C 0.5288 0.47943 0.64733 0.0
C855 C 0.553 0.49323 0.64218 0.0
C856 C 0.56797 0.48408 0.64628 0.0
C857 C 0.513 0.4894 0.64526 0.0
C858 C 0.51201 0.49973 0.62153 0.0
C859 C 0.49803 0.4876 0.66626 0.0
C860 C 0.49962 0.47878 0.69259 0.0
C861 C 0.52117 0.4889 0.70611 0.0
C862 C 0.52261 0.48042 0.7308 0.0
C863 C 0.50259 0.46193 0.74229 0.0
C864 C 0.48106 0.45192 0.72913 0.0
C865 C 0.47953 0.46032 0.70441 0.0
H866 H 0.50374 0.45539 0.76141 0.0
H867 H 0.49417 0.54643 0.52574 0.0
H868 H 0.89726 0.40964 0.96896 0.0
H869 H 0.94017 0.43263 0.96468 0.0
H870 H 0.93627 0.49562 0.95365 0.0
H871 H 0.89356 0.4729 0.95826 0.0
H872 H 0.97226 0.49316 0.92252 0.0
H873 H 0.94312 0.48501 1.01185 0.0
H874 H 0.91996 0.46219 0.05013 0.0
H875 H 0.95884 0.42566 0.05256 0.0
H876 H 0.98197 0.44802 0.01397 0.0
H877 H 0.08523 0.58194 0.96845 0.0
H878 H 0.04323 0.55679 0.95884 0.0
H879 H 0.04612 0.49663 0.98799 0.0
H880 H 0.08749 0.52161 0.99841 0.0
H881 H 0.01029 0.49662 1.00788 0.0
H882 H 0.04183 0.50639 0.92087 0.0
H883 H 0.06482 0.52839 0.88213 0.0
H884 H 0.0223 0.56076 0.87437 0.0
H885 H -0.00076 0.53918 0.9133 0.0
C886 C 0.90552 0.42826 0.96487 0.0
C887 C 0.89221 0.43958 0.96425 0.0
C888 C 0.92998 0.44135 0.96247 0.0
C889 C 0.94128 0.4658 0.95909 0.0
C890 C 0.92782 0.47677 0.95622 0.0
C891 C 0.90347 0.46379 0.95901 0.0
C892 C 0.96698 0.48037 0.96226 0.0
C893 C 0.98068 0.49405 0.94115 0.0
C894 C 0.97781 0.48125 0.98653 0.0
C895 C 0.96406 0.46796 1.00985 0.0
C896 C 0.94658 0.47196 0.0204 0.0
C897 C 0.93348 0.45914 0.04217 0.0
C898 C 0.93788 0.44244 0.05372 0.0
C899 C 0.95542 0.43857 0.04356 0.0
C900 C 0.96853 0.45131 0.02174 0.0
C901 C 0.07684 0.56334 0.97269 0.0
C902 C 0.08956 0.55377 0.98435 0.0
C903 C 0.05292 0.54896 0.96704 0.0
C904 C 0.04155 0.52476 0.97251 0.0
C905 C 0.05444 0.51523 0.9837 0.0
C906 C 0.07812 0.52957 0.98966 0.0
C907 C 0.01598 0.50937 0.96798 0.0
C908 C 0.00214 0.49563 0.98903 0.0
C909 C 0.00516 0.50837 0.94358 0.0
C910 C 0.01896 0.52134 0.92015 0.0
C911 C 0.0375 0.51834 0.91103 0.0
C912 C 0.05053 0.53071 0.88901 0.0
C913 C 0.04507 0.54601 0.87584 0.0
C914 C 0.02653 0.54893 0.88461 0.0
C915 C 0.01346 0.53662 0.90664 0.0
H916 H 0.05517 0.55557 0.85879 0.0
H917 H 0.92773 0.43253 0.07058 0.0
H918 H 0.09071 0.55764 0.39066 0.0
H919 H 0.04891 0.53873 0.40079 0.0
H920 H 0.04671 0.47262 0.41169 0.0
H921 H 0.08895 0.49162 0.40179 0.0
H922 H 0.01311 0.47157 0.37596 0.0
H923 H 0.03957 0.49743 0.46362 0.0
H924 H 0.0634 0.52599 0.49783 0.0
H925 H 0.03302 0.56858 0.47801 0.0
H926 H 0.00924 0.54044 0.44341 0.0
H927 H 0.89311 0.41464 0.40261 0.0
H928 H 0.93483 0.42939 0.41024 0.0
H929 H 0.94757 0.50045 0.40999 0.0
H930 H 0.90546 0.48562 0.40328 0.0
H931 H 0.97599 0.49618 0.4444 0.0
H932 H 0.95472 0.47574 0.35419 0.0
H933 H 0.93205 0.45013 0.31728 0.0
H934 H 0.95411 0.40093 0.33866 0.0
H935 H 0.97668 0.42613 0.37594 0.0
C936 C 0.08143 0.53912 0.39549 0.0
C937 C 0.09303 0.52604 0.39529 0.0
C938 C 0.05758 0.5284 0.40146 0.0
C939 C 0.04482 0.50436 0.40717 0.0
C940 C 0.05638 0.49126 0.40748 0.0
C941 C 0.08043 0.5021 0.40185 0.0
C942 C 0.01904 0.49278 0.41041 0.0
C943 C 0.00492 0.47647 0.39132 0.0
C944 C 0.00856 0.49997 0.42985 0.0
C945 C 0.02272 0.51687 0.45078 0.0
C946 C 0.03809 0.51297 0.46641 0.0
C947 C 0.05157 0.52907 0.48591 0.0
C948 C 0.04975 0.54911 0.49006 0.0
C949 C 0.03441 0.55306 0.47477 0.0
C950 C 0.0209 0.53701 0.45523 0.0
C951 C 0.90474 0.4334 0.40462 0.0
C952 C 0.89617 0.44905 0.40199 0.0
C953 C 0.92858 0.4418 0.40892 0.0
C954 C 0.94439 0.46603 0.41 0.0
C955 C 0.93567 0.48167 0.40907 0.0
C956 C 0.91166 0.47321 0.4052 0.0
C957 C 0.97006 0.47498 0.40989 0.0
C958 C 0.98414 0.49091 0.42938 0.0
C959 C 0.98065 0.46784 0.39047 0.0
C960 C 0.96716 0.45268 0.36802 0.0
C961 C 0.95459 0.45937 0.35114 0.0
C962 C 0.94178 0.44495 0.33014 0.0
C963 C 0.94158 0.42388 0.32568 0.0
C964 C 0.95425 0.41723 0.34217 0.0
C965 C 0.96706 0.43158 0.36323 0.0
H966 H 0.93165 0.41273 0.30941 0.0
H967 H 0.06021 0.56156 0.50516 0.0
H968 H 0.52381 0.0894 0.71384 0.0
H969 H 0.5021 0.04777 0.72486 0.0
H970 H 0.56647 0.05089 0.74925 0.0
H971 H 0.58847 0.09304 0.7386 0.0
H972 H 0.53841 0.01511 0.71105 0.0
H973 H 0.52982 0.04265 0.79503 0.0
H974 H 0.52071 0.06629 0.82529 0.0
H975 H 0.44968 0.03236 0.79694 0.0
H976 H 0.45845 0.00875 0.76622 0.0
H977 H 0.47625 0.89521 0.73989 0.0
H978 H 0.50175 0.93728 0.74666 0.0
H979 H 0.44223 0.94765 0.73757 0.0
H980 H 0.41637 0.90521 0.7319 0.0
H981 H 0.47122 0.97714 0.77298 0.0
H982 H 0.47943 0.95485 0.68562 0.0
H983 H 0.4868 0.93239 0.65186 0.0
H984 H 0.55633 0.95773 0.68226 0.0
H985 H 0.54926 0.9801 0.71645 0.0
C986 C 0.53336 0.08132 0.7218 0.0
C987 C 0.55784 0.09439 0.72525 0.0
C988 C 0.5209 0.05758 0.72824 0.0
C989 C 0.53268 0.04637 0.73802 0.0
C990 C 0.5571 0.05937 0.74187 0.0
C991 C 0.5696 0.08335 0.73582 0.0
C992 C 0.51946 0.02069 0.74203 0.0
C993 C 0.52411 0.00673 0.72506 0.0
C994 C 0.50026 0.00996 0.7596 0.0
C995 C 0.49485 0.02402 0.77819 0.0
C996 C 0.5123 0.04034 0.7951 0.0
C997 C 0.50719 0.05372 0.81237 0.0
C998 C 0.48464 0.05085 0.81301 0.0
C999 C 0.46714 0.03456 0.79642 0.0
C1000 C 0.47217 0.02115 0.77911 0.0
C1001 C 0.46854 0.90642 0.73971 0.0
C1002 C 0.44441 0.89706 0.73504 0.0
C1003 C 0.48314 0.93047 0.7435 0.0
C1004 C 0.47402 0.94569 0.74193 0.0
C1005 C 0.44968 0.93623 0.73872 0.0
C1006 C 0.43493 0.91202 0.73544 0.0
C1007 C 0.49006 0.97148 0.74184 0.0
C1008 C 0.48584 0.98544 0.75936 0.0
C1009 C 0.50939 0.98232 0.72433 0.0
C1010 C 0.51372 0.96892 0.70378 0.0
C1011 C 0.49623 0.95548 0.68523 0.0
C1012 C 0.50036 0.94279 0.666 0.0
C1013 C 0.52199 0.94357 0.66497 0.0
C1014 C 0.53957 0.9571 0.68312 0.0
C1015 C 0.53551 0.9698 0.70242 0.0
H1016 H 0.52516 0.93374 0.65006 0.0
H1017 H 0.48071 0.06123 0.82639 0.0
H1018 H 0.42045 0.52914 0.07679 0.0
H1019 H 0.43892 0.50499 0.08183 0.0
H1020 H 0.50678 0.56551 0.06644 0.0
H1021 H 0.48843 0.58999 0.06202 0.0
H1022 H 0.48998 0.52458 0.03085 0.0
H1023 H 0.50123 0.54497 0.12248 0.0
H1024 H 0.4887 0.54915 0.16683 0.0
H1025 H 0.4405 0.47491 0.17002 0.0
H1026 H 0.45249 0.47032 0.1255 0.0
H1027 H 0.55924 0.47237 0.03655 0.0
H1028 H 0.54292 0.49773 0.045 0.0
H1029 H 0.48076 0.43931 0.07827 0.0
H1030 H 0.49747 0.41368 0.07048 0.0
H1031 H 0.49396 0.47884 0.10621 0.0
H1032 H 0.47976 0.45719 0.01616 0.0
H1033 H 0.48898 0.45095 0.97097 0.0
H1034 H 0.53806 0.52469 0.96329 0.0
H1035 H 0.52938 0.53133 1.00861 0.0
C1036 C 0.43939 0.53742 0.07519 0.0
C1037 C 0.45306 0.56136 0.0689 0.0
C1038 C 0.44989 0.52363 0.07815 0.0
C1039 C 0.47414 0.53352 0.07448 0.0
C1040 C 0.48802 0.55767 0.06946 0.0
C1041 C 0.47756 0.57161 0.06704 0.0
C1042 C 0.48433 0.51803 0.07236 0.0
C1043 C 0.49132 0.51491 0.0474 0.0
C1044 C 0.48485 0.50463 0.09376 0.0
C1045 C 0.4776 0.50734 0.12053 0.0
C1046 C 0.48779 0.52956 0.13252 0.0
C1047 C 0.48082 0.532 0.15772 0.0
C1048 C 0.46377 0.51232 0.1712 0.0
C1049 C 0.45369 0.49015 0.15954 0.0
C1050 C 0.46058 0.48762 0.13433 0.0
C1051 C 0.54209 0.46483 0.0457 0.0
C1052 C 0.52948 0.44094 0.05255 0.0
C1053 C 0.53278 0.47938 0.05049 0.0
C1054 C 0.51043 0.47032 0.06177 0.0
C1055 C 0.49801 0.44661 0.06941 0.0
C1056 C 0.5075 0.432 0.06487 0.0
C1057 C 0.50007 0.48568 0.06472 0.0
C1058 C 0.4928 0.48861 0.08969 0.0
C1059 C 0.49878 0.49862 0.04318 0.0
C1060 C 0.50408 0.49472 0.01589 0.0
C1061 C 0.49266 0.47205 1.00492 0.0
C1062 C 0.49777 0.46845 0.97926 0.0
C1063 C 0.51414 0.48741 0.96429 0.0
C1064 C 0.52541 0.51002 0.97493 0.0
C1065 C 0.52038 0.51372 1.00059 0.0
H1066 H 0.51807 0.48458 0.94442 0.0
H1067 H 0.4584 0.51424 0.19072 0.0
H1068 H 0.56321 0.25561 0.28687 0.0
H1069 H 0.55391 0.27182 0.24893 0.0
H1070 H 0.4951 0.20343 0.23086 0.0
H1071 H 0.50526 0.18678 0.26833 0.0
H1072 H 0.51577 0.22051 0.18857 0.0
H1073 H 0.489 0.25215 0.254 0.0
H1074 H 0.48933 0.27208 0.29515 0.0
H1075 H 0.54915 0.33573 0.26802 0.0
H1076 H 0.54941 0.31612 0.22685 0.0
H1077 H 0.50762 0.32108 0.10968 0.0
H1078 H 0.4974 0.29518 0.14799 0.0
H1079 H 0.55002 0.27749 0.12549 0.0
H1080 H 0.55947 0.30232 0.08691 0.0
H1081 H 0.52077 0.29829 0.18857 0.0
H1082 H 0.54043 0.22658 0.14751 0.0
H1083 H 0.53414 0.20409 0.10664 0.0
H1084 H 0.47741 0.2156 0.08558 0.0
H1085 H 0.48312 0.23787 0.1265 0.0
C1086 C 0.54804 0.24402 0.27512 0.0
C1087 C 0.53495 0.21987 0.28071 0.0
C1088 C 0.54261 0.25339 0.2534 0.0
C1089 C 0.5235 0.23903 0.23706 0.0
C1090 C 0.50992 0.21497 0.24308 0.0
C1091 C 0.51566 0.20546 0.2646 0.0
C1092 C 0.51908 0.24894 0.21269 0.0
C1093 C 0.51664 0.23741 0.18866 0.0
C1094 C 0.51933 0.27064 0.21262 0.0
C1095 C 0.51928 0.2826 0.23736 0.0
C1096 C 0.50232 0.27036 0.25687 0.0
C1097 C 0.50239 0.28161 0.28019 0.0
C1098 C 0.51927 0.30515 0.28421 0.0
C1099 C 0.53609 0.3175 0.26488 0.0
C1100 C 0.5361 0.30633 0.24152 0.0
C1101 C 0.5166 0.31122 0.11261 0.0
C1102 C 0.5343 0.31373 0.09513 0.0
C1103 C 0.51084 0.2965 0.13462 0.0
C1104 C 0.52273 0.28408 0.13967 0.0
C1105 C 0.54006 0.28627 0.12186 0.0
C1106 C 0.54559 0.30067 0.09977 0.0
C1107 C 0.51858 0.27035 0.16444 0.0
C1108 C 0.51944 0.28118 0.18853 0.0
C1109 C 0.51598 0.24761 0.16462 0.0
C1110 C 0.51232 0.23404 0.14004 0.0
C1111 C 0.52652 0.2242 0.13425 0.0
C1112 C 0.52308 0.21151 0.11104 0.0
C1113 C 0.50542 0.20846 0.0935 0.0
C1114 C 0.49113 0.21804 0.09915 0.0
C1115 C 0.49449 0.23073 0.12233 0.0
H1116 H 0.5028 0.19864 0.07554 0.0
H1117 H 0.51929 0.31382 0.30229 0.0
H1118 H 0.18417 0.5155 0.44896 0.0
H1119 H 0.20012 0.50744 0.48852 0.0
H1120 H 0.26348 0.52376 0.44653 0.0
H1121 H 0.24779 0.53209 0.40695 0.0
H1122 H 0.24825 0.48549 0.48402 0.0
H1123 H 0.26418 0.56582 0.4782 0.0
H1124 H 0.25258 0.59593 0.47284 0.0
H1125 H 0.20838 0.56961 0.54099 0.0
H1126 H 0.21944 0.53908 0.54649 0.0
H1127 H 0.33611 0.52601 0.5836 0.0
H1128 H 0.3107 0.51699 0.54526 0.0
H1129 H 0.2577 0.51894 0.59358 0.0
H1130 H 0.2835 0.52893 0.63174 0.0
H1131 H 0.2641 0.54439 0.55363 0.0
H1132 H 0.25098 0.46669 0.56317 0.0
H1133 H 0.2613 0.43567 0.5686 0.0
H1134 H 0.29821 0.45498 0.49504 0.0
H1135 H 0.28839 0.48634 0.48932 0.0
C1136 C 0.20123 0.51675 0.4479 0.0
C1137 C 0.21479 0.52464 0.42484 0.0
C1138 C 0.21035 0.5122 0.47058 0.0
C1139 C 0.23309 0.51524 0.47054 0.0
C1140 C 0.2459 0.52129 0.447 0.0
C1141 C 0.23691 0.52611 0.4244 0.0
C1142 C 0.24462 0.51498 0.49558 0.0
C1143 C 0.25185 0.49838 0.49927 0.0
C1144 C 0.24884 0.5315 0.51566 0.0
C1145 C 0.24242 0.55002 0.51257 0.0
C1146 C 0.25184 0.56634 0.49191 0.0
C1147 C 0.24539 0.58349 0.48886 0.0
C1148 C 0.2297 0.58464 0.50652 0.0
C1149 C 0.22049 0.56867 0.5273 0.0
C1150 C 0.22685 0.55145 0.5304 0.0
C1151 C 0.31881 0.52396 0.58619 0.0
C1152 C 0.31187 0.52826 0.61073 0.0
C1153 C 0.3042 0.51871 0.5642 0.0
C1154 C 0.2821 0.51714 0.56637 0.0
C1155 C 0.27466 0.52015 0.59123 0.0
C1156 C 0.2894 0.52576 0.61312 0.0
C1157 C 0.26785 0.51477 0.54247 0.0
C1158 C 0.26024 0.5311 0.53879 0.0
C1159 C 0.26314 0.49785 0.52258 0.0
C1160 C 0.2691 0.47901 0.52593 0.0
C1161 C 0.26145 0.46445 0.54824 0.0
C1162 C 0.26718 0.44678 0.55135 0.0
C1163 C 0.28044 0.44339 0.53221 0.0
C1164 C 0.28795 0.45763 0.50987 0.0
C1165 C 0.28228 0.47534 0.50667 0.0
H1166 H 0.28486 0.4297 0.53466 0.0
H1167 H 0.22472 0.59793 0.50413 0.0
H1168 H 0.80555 0.34652 0.91748 0.0
H1169 H 0.78861 0.32299 0.87784 0.0
H1170 H 0.73458 0.26756 0.9244 0.0
H1171 H 0.75114 0.29118 0.96416 0.0
H1172 H 0.75365 0.25277 0.87843 0.0
H1173 H 0.71945 0.30093 0.90208 0.0
H1174 H 0.72209 0.33845 0.91443 0.0
H1175 H 0.75829 0.36958 0.84237 0.0
H1176 H 0.75622 0.33232 0.82982 0.0
H1177 H 0.6606 0.19497 0.78511 0.0
H1178 H 0.68677 0.21305 0.82265 0.0
H1179 H 0.72615 0.27718 0.77851 0.0
H1180 H 0.6995 0.25947 0.74137 0.0
H1181 H 0.71678 0.28768 0.82317 0.0
H1182 H 0.7486 0.23967 0.79673 0.0
H1183 H 0.74827 0.20332 0.78401 0.0
H1184 H 0.71932 0.1729 0.85912 0.0
H1185 H 0.71918 0.20897 0.87217 0.0
C1186 C 0.79048 0.32905 0.91944 0.0
C1187 C 0.77959 0.3208 0.94399 0.0
C1188 C 0.78079 0.31564 0.89673 0.0
C1189 C 0.76025 0.29361 0.89817 0.0
C1190 C 0.75047 0.28449 0.92287 0.0
C1191 C 0.75993 0.29805 0.94557 0.0
C1192 C 0.74732 0.28164 0.87384 0.0
C1193 C 0.7454 0.26021 0.86637 0.0
C1194 C 0.73703 0.29168 0.85787 0.0
C1195 C 0.73792 0.31394 0.86517 0.0
C1196 C 0.72815 0.31584 0.88898 0.0
C1197 C 0.72951 0.33704 0.896 0.0
C1198 C 0.74041 0.35641 0.87923 0.0
C1199 C 0.74989 0.35458 0.85536 0.0
C1200 C 0.74862 0.33342 0.84828 0.0
C1201 C 0.67513 0.21277 0.78323 0.0
C1202 C 0.67792 0.2258 0.76026 0.0
C1203 C 0.69017 0.2231 0.80473 0.0
C1204 C 0.70862 0.24654 0.80354 0.0
C1205 C 0.71203 0.25915 0.7801 0.0
C1206 C 0.69682 0.24895 0.75878 0.0
C1207 C 0.72305 0.25859 0.82727 0.0
C1208 C 0.72515 0.28013 0.83486 0.0
C1209 C 0.73367 0.2487 0.8431 0.0
C1210 C 0.73367 0.22695 0.83533 0.0
C1211 C 0.74198 0.22516 0.81046 0.0
C1212 C 0.74191 0.20462 0.8032 0.0
C1213 C 0.73372 0.18579 0.82072 0.0
C1214 C 0.72563 0.18749 0.84556 0.0
C1215 C 0.72565 0.20799 0.8529 0.0
H1216 H 0.73369 0.16991 0.81507 0.0
H1217 H 0.74146 0.37281 0.8847 0.0
H1218 H 0.45898 0.65623 0.11947 0.0
H1219 H 0.46666 0.68089 0.15834 0.0
H1220 H 0.47185 0.73685 0.1094 0.0
H1221 H 0.46321 0.7119 0.07065 0.0
H1222 H 0.49869 0.72099 0.17805 0.0
H1223 H 0.44776 0.76538 0.13906 0.0
H1224 H 0.4162 0.75765 0.10749 0.0
H1225 H 0.38805 0.68341 0.11648 0.0
H1226 H 0.41926 0.69071 0.14834 0.0
H1227 H 0.46808 0.80733 0.25447 0.0
H1228 H 0.47627 0.79193 0.21455 0.0
H1229 H 0.46526 0.73054 0.25709 0.0
H1230 H 0.45722 0.74586 0.29705 0.0
H1231 H 0.44447 0.7522 0.1906 0.0
H1232 H 0.49508 0.70651 0.227 0.0
H1233 H 0.52481 0.71232 0.26026 0.0
H1234 H 0.55106 0.78664 0.2593 0.0
H1235 H 0.52172 0.78132 0.22579 0.0
C1236 C 0.46218 0.67394 0.11692 0.0
C1237 C 0.46021 0.68199 0.09198 0.0
C1238 C 0.46657 0.68806 0.13921 0.0
C1239 C 0.46926 0.71059 0.137 0.0
C1240 C 0.46919 0.71932 0.1118 0.0
C1241 C 0.46441 0.70508 0.08959 0.0
C1242 C 0.47037 0.72414 0.16106 0.0
C1243 C 0.48673 0.72768 0.18086 0.0
C1244 C 0.45501 0.73323 0.16473 0.0
C1245 C 0.43601 0.72862 0.14582 0.0
C1246 C 0.43479 0.74742 0.13434 0.0
C1247 C 0.41697 0.74311 0.1164 0.0
C1248 C 0.40018 0.72005 0.10991 0.0
C1249 C 0.40112 0.70126 0.12144 0.0
C1250 C 0.41888 0.70547 0.13942 0.0
C1251 C 0.46799 0.79084 0.25552 0.0
C1252 C 0.4619 0.77781 0.279 0.0
C1253 C 0.47257 0.78199 0.23261 0.0
C1254 C 0.47141 0.76005 0.23272 0.0
C1255 C 0.46657 0.74762 0.25648 0.0
C1256 C 0.4619 0.75641 0.27936 0.0
C1257 C 0.47278 0.74909 0.20762 0.0
C1258 C 0.45671 0.74585 0.18766 0.0
C1259 C 0.48815 0.74002 0.20407 0.0
C1260 C 0.50604 0.74347 0.22403 0.0
C1261 C 0.50726 0.7241 0.2338 0.0
C1262 C 0.52403 0.72731 0.25272 0.0
C1263 C 0.53977 0.74983 0.26194 0.0
C1264 C 0.53881 0.7692 0.25221 0.0
C1265 C 0.52208 0.76609 0.23329 0.0
H1266 H 0.55273 0.75227 0.27659 0.0
H1267 H 0.38642 0.71675 0.09599 0.0
H1268 H 0.66621 0.47037 0.59256 0.0
H1269 H 0.69118 0.4795 0.55359 0.0
H1270 H 0.7315 0.45292 0.59226 0.0
H1271 H 0.70655 0.44359 0.63121 0.0
H1272 H 0.75943 0.49388 0.56126 0.0
H1273 H 0.68916 0.41745 0.55383 0.0
H1274 H 0.64631 0.39047 0.55395 0.0
H1275 H 0.63839 0.42922 0.49078 0.0
H1276 H 0.6812 0.45664 0.49055 0.0
H1277 H 0.80672 0.45931 0.45595 0.0
H1278 H 0.78945 0.4657 0.49532 0.0
H1279 H 0.74126 0.47598 0.4472 0.0
H1280 H 0.75778 0.46844 0.40784 0.0
H1281 H 0.71759 0.44711 0.48263 0.0
H1282 H 0.78784 0.52145 0.48613 0.0
H1283 H 0.83048 0.54939 0.48586 0.0
H1284 H 0.83882 0.5171 0.55518 0.0
H1285 H 0.79626 0.48875 0.55568 0.0
C1286 C 0.68069 0.46691 0.593 0.0
C1287 C 0.68427 0.45609 0.61496 0.0
C1288 C 0.69491 0.47208 0.57066 0.0
C1289 C 0.71308 0.46668 0.56991 0.0
C1290 C 0.71761 0.45724 0.59239 0.0
C1291 C 0.70326 0.45185 0.61463 0.0
C1292 C 0.72591 0.46878 0.54503 0.0
C1293 C 0.75038 0.48362 0.54404 0.0
C1294 C 0.71402 0.45582 0.52239 0.0
C1295 C 0.68832 0.43923 0.52238 0.0
C1296 C 0.67826 0.42032 0.54011 0.0
C1297 C 0.65398 0.40493 0.54017 0.0
C1298 C 0.63962 0.40817 0.52243 0.0
C1299 C 0.64952 0.42676 0.50454 0.0
C1300 C 0.67379 0.44222 0.50443 0.0
C1301 C 0.79284 0.46352 0.45371 0.0
C1302 C 0.78361 0.46333 0.42874 0.0
C1303 C 0.78297 0.46725 0.47631 0.0
C1304 C 0.76403 0.47148 0.47444 0.0
C1305 C 0.75573 0.47264 0.44933 0.0
C1306 C 0.7653 0.46846 0.42677 0.0
C1307 C 0.75139 0.47233 0.49852 0.0
C1308 C 0.72683 0.45782 0.49952 0.0
C1309 C 0.76325 0.48582 0.52101 0.0
C1310 C 0.78886 0.50285 0.52081 0.0
C1311 C 0.79879 0.52019 0.50121 0.0
C1312 C 0.82294 0.53612 0.50103 0.0
C1313 C 0.83736 0.53499 0.52046 0.0
C1314 C 0.82763 0.51795 0.54014 0.0
C1315 C 0.80349 0.50196 0.54039 0.0
H1316 H 0.85605 0.54734 0.52029 0.0
H1317 H 0.62083 0.39624 0.52251 0.0
H1318 H 0.25988 0.68627 0.94945 0.0
H1319 H 0.27586 0.71257 0.91214 0.0
H1320 H 0.20958 0.71041 0.90174 0.0
H1321 H 0.19297 0.68263 0.93841 0.0
H1322 H 0.22299 0.70742 0.85722 0.0
H1323 H 0.26309 0.7619 0.92446 0.0
H1324 H 0.2861 0.77832 0.96497 0.0
H1325 H 0.34456 0.77605 0.93042 0.0
H1326 H 0.3218 0.7593 0.88982 0.0
H1327 H 0.3288 0.81284 0.77894 0.0
H1328 H 0.30375 0.79805 0.818 0.0
H1329 H 0.27457 0.72724 0.78888 0.0
H1330 H 0.2984 0.74197 0.7495 0.0
H1331 H 0.30469 0.77435 0.85517 0.0
H1332 H 0.22347 0.68917 0.81345 0.0
H1333 H 0.19814 0.67721 0.77419 0.0
H1334 H 0.21756 0.749 0.75978 0.0
H1335 H 0.24275 0.76138 0.79915 0.0
C1336 C 0.24875 0.69166 0.93955 0.0
C1337 C 0.22515 0.68241 0.94704 0.0
C1338 C 0.25801 0.70693 0.91819 0.0
C1339 C 0.24419 0.71405 0.90419 0.0
C1340 C 0.22072 0.70531 0.91212 0.0
C1341 C 0.21125 0.68952 0.9332 0.0
C1342 C 0.25391 0.72914 0.88026 0.0
C1343 C 0.24078 0.7222 0.85688 0.0
C1344 C 0.27681 0.7491 0.87973 0.0
C1345 C 0.29066 0.75923 0.9041 0.0
C1346 C 0.2808 0.76477 0.92554 0.0
C1347 C 0.29381 0.77415 0.94852 0.0
C1348 C 0.31677 0.7782 0.95028 0.0
C1349 C 0.32678 0.77291 0.92903 0.0
C1350 C 0.31384 0.76351 0.906 0.0
C1351 C 0.31654 0.79418 0.78058 0.0
C1352 C 0.31556 0.77862 0.76101 0.0
C1353 C 0.3023 0.7857 0.80303 0.0
C1354 C 0.28698 0.76145 0.80654 0.0
C1355 C 0.28561 0.74604 0.78657 0.0
C1356 C 0.29944 0.75453 0.76398 0.0
C1357 C 0.27417 0.75192 0.83191 0.0
C1358 C 0.28673 0.75988 0.85557 0.0
C1359 C 0.2504 0.73359 0.83287 0.0
C1360 C 0.23514 0.72621 0.80921 0.0
C1361 C 0.22224 0.7024 0.80201 0.0
C1362 C 0.20793 0.69555 0.7797 0.0
C1363 C 0.20628 0.71234 0.76447 0.0
C1364 C 0.21891 0.73602 0.77155 0.0
C1365 C 0.23324 0.74297 0.79384 0.0
H1366 H 0.1952 0.707 0.7472 0.0
H1367 H 0.32681 0.78546 0.96809 0.0
loop_
_geom_bond_atom_site_label_1
_geom_bond_atom_site_label_2
_geom_bond_distance
_geom_bond_site_symmetry_2
_ccdc_geom_bond_type
O0 Cd1 2.223 . S
O0 C8 1.315 . S
Cd1 O0 2.223 . S
Cd1 O4 2.297 . S
Cd1 O5 2.439 . S
Cd1 O11 2.240 . S
Cd2 O3 2.240 . S
Cd2 O10 2.223 . S
Cd2 O12 2.297 . S
Cd2 O13 2.439 . S
O3 Cd2 2.240 . S
O3 C8 1.279 . S
O4 Cd1 2.297 . S
O4 C6 1.247 . S
O5 Cd1 2.439 . S
O5 C6 1.208 . S
C6 O4 1.247 . S
C6 O5 1.208 . S
C7 O12 1.247 . S
C7 O13 1.208 . S
C8 O0 1.315 . S
C8 O3 1.279 . S
C9 O10 1.315 . S
C9 O11 1.279 . S
O10 Cd2 2.223 . S
O10 C9 1.315 . S
O11 Cd1 2.240 . S
O11 C9 1.279 . S
O12 Cd2 2.297 . S
O12 C7 1.247 . S
O13 Cd2 2.439 . S
O13 C7 1.208 . S
O14 Cd15 2.223 . S
O14 C22 1.315 . S
Cd15 O14 2.223 . S
Cd15 O18 2.297 . S
Cd15 O19 2.439 . S
Cd15 O25 2.240 . S
Cd16 O17 2.240 . S
Cd16 O24 2.223 . S
Cd16 O26 2.297 . S
Cd16 O27 2.439 . S
O17 Cd16 2.240 . S
O17 C22 1.279 . S
O18 Cd15 2.297 . S
O18 C20 1.247 . S
O19 Cd15 2.439 . S
O19 C20 1.208 . S
C20 O18 1.247 . S
C20 O19 1.208 . S
C21 O26 1.247 . S
C21 O27 1.208 . S
C22 O14 1.315 . S
C22 O17 1.279 . S
C23 O24 1.315 . S
C23 O25 1.279 . S
O24 Cd16 2.223 . S
O24 C23 1.315 . S
O25 Cd15 2.240 . S
O25 C23 1.279 . S
O26 Cd16 2.297 . S
O26 C21 1.247 . S
O27 Cd16 2.439 . S
O27 C21 1.208 . S
O28 Cd29 2.212 1_554 S
O28 C36 1.315 . S
Cd29 O28 2.212 1_556 S
Cd29 O32 2.296 1_556 S
Cd29 O33 2.443 . S
Cd29 O39 2.244 . S
Cd30 O31 2.245 . S
Cd30 O38 2.225 . S
Cd30 O40 2.291 1_554 S
Cd30 O41 2.431 1_554 S
O31 Cd30 2.245 . S
O31 C36 1.279 . S
O32 Cd29 2.296 1_554 S
O32 C34 1.247 1_554 S
O33 Cd29 2.443 . S
O33 C34 1.208 . S
C34 O32 1.247 1_556 S
C34 O33 1.208 . S
C35 O40 1.247 . S
C35 O41 1.208 . S
C36 O28 1.315 . S
C36 O31 1.279 . S
C37 O38 1.308 1_556 S
C37 O39 1.289 . S
O38 Cd30 2.225 . S
O38 C37 1.308 1_554 S
O39 Cd29 2.244 . S
O39 C37 1.289 . S
O40 Cd30 2.291 1_556 S
O40 C35 1.247 . S
O41 Cd30 2.431 1_556 S
O41 C35 1.208 . S
O42 Cd43 2.223 . S
O42 C50 1.315 . S
Cd43 O42 2.223 . S
Cd43 O46 2.297 . S
Cd43 O47 2.439 . S
Cd43 O53 2.240 . S
Cd44 O45 2.240 . S
Cd44 O52 2.223 . S
Cd44 O54 2.297 . S
Cd44 O55 2.439 . S
O45 Cd44 2.240 . S
O45 C50 1.279 . S
O46 Cd43 2.297 . S
O46 C48 1.247 . S
O47 Cd43 2.439 . S
O47 C48 1.208 . S
C48 O46 1.247 . S
C48 O47 1.208 . S
C49 O54 1.247 . S
C49 O55 1.208 . S
C50 O42 1.315 . S
C50 O45 1.279 . S
C51 O52 1.315 . S
C51 O53 1.279 . S
O52 Cd44 2.223 . S
O52 C51 1.315 . S
O53 Cd43 2.240 . S
O53 C51 1.279 . S
O54 Cd44 2.297 . S
O54 C49 1.247 . S
O55 Cd44 2.439 . S
O55 C49 1.208 . S
O56 Cd57 2.223 . S
O56 C64 1.315 . S
Cd57 O56 2.223 . S
Cd57 O60 2.297 . S
Cd57 O61 2.439 . S
Cd57 O67 2.240 . S
Cd58 O59 2.240 . S
Cd58 O66 2.223 . S
Cd58 O68 2.297 . S
Cd58 O69 2.439 . S
O59 Cd58 2.240 . S
O59 C64 1.279 . S
O60 Cd57 2.297 . S
O60 C62 1.247 . S
O61 Cd57 2.439 . S
O61 C62 1.208 . S
C62 O60 1.247 . S
C62 O61 1.208 . S
C63 O68 1.247 . S
C63 O69 1.208 . S
C64 O56 1.315 . S
C64 O59 1.279 . S
C65 O66 1.315 . S
C65 O67 1.279 . S
O66 Cd58 2.223 . S
O66 C65 1.315 . S
O67 Cd57 2.240 . S
O67 C65 1.279 . S
O68 Cd58 2.297 . S
O68 C63 1.247 . S
O69 Cd58 2.439 . S
O69 C63 1.208 . S
O70 Cd71 2.212 1_554 S
O70 C78 1.315 . S
Cd71 O70 2.212 1_556 S
Cd71 O74 2.296 1_556 S
Cd71 O75 2.443 . S
Cd71 O81 2.244 . S
Cd72 O73 2.245 . S
Cd72 O80 2.225 . S
Cd72 O82 2.291 1_554 S
Cd72 O83 2.431 1_554 S
O73 Cd72 2.245 . S
O73 C78 1.279 . S
O74 Cd71 2.296 1_554 S
O74 C76 1.247 1_554 S
O75 Cd71 2.443 . S
O75 C76 1.208 . S
C76 O74 1.247 1_556 S
C76 O75 1.208 . S
C77 O82 1.247 . S
C77 O83 1.208 . S
C78 O70 1.315 . S
C78 O73 1.279 . S
C79 O80 1.308 1_556 S
C79 O81 1.289 . S
O80 Cd72 2.225 . S
O80 C79 1.308 1_554 S
O81 Cd71 2.244 . S
O81 C79 1.289 . S
O82 Cd72 2.291 1_556 S
O82 C77 1.247 . S
O83 Cd72 2.431 1_556 S
O83 C77 1.208 . S
O84 Cd85 2.223 . S
O84 C92 1.315 . S
Cd85 O84 2.223 . S
Cd85 O88 2.297 . S
Cd85 O89 2.439 . S
Cd85 O95 2.240 . S
Cd86 O87 2.240 . S
Cd86 O94 2.223 . S
Cd86 O96 2.297 . S
Cd86 O97 2.439 . S
O87 Cd86 2.240 . S
O87 C92 1.279 . S
O88 Cd85 2.297 . S
O88 C90 1.247 . S
O89 Cd85 2.439 . S
O89 C90 1.208 . S
C90 O88 1.247 . S
C90 O89 1.208 . S
C91 O96 1.247 . S
C91 O97 1.208 . S
C92 O84 1.315 . S
C92 O87 1.279 . S
C93 O94 1.315 . S
C93 O95 1.279 . S
O94 Cd86 2.223 . S
O94 C93 1.315 . S
O95 Cd85 2.240 . S
O95 C93 1.279 . S
O96 Cd86 2.297 . S
O96 C91 1.247 . S
O97 Cd86 2.439 . S
O97 C91 1.208 . S
O98 Cd99 2.223 . S
O98 C106 1.315 . S
Cd99 O98 2.223 . S
Cd99 O102 2.297 . S
Cd99 O103 2.439 . S
Cd99 O109 2.240 . S
Cd100 O101 2.240 . S
Cd100 O108 2.223 . S
Cd100 O110 2.297 . S
Cd100 O111 2.439 . S
O101 Cd100 2.240 . S
O101 C106 1.279 . S
O102 Cd99 2.297 . S
O102 C104 1.247 . S
O103 Cd99 2.439 . S
O103 C104 1.208 . S
C104 O102 1.247 . S
C104 O103 1.208 . S
C105 O110 1.247 . S
C105 O111 1.208 . S
C106 O98 1.315 . S
C106 O101 1.279 . S
C107 O108 1.315 . S
C107 O109 1.279 . S
O108 Cd100 2.223 . S
O108 C107 1.315 . S
O109 Cd99 2.240 . S
O109 C107 1.279 . S
O110 Cd100 2.297 . S
O110 C105 1.247 . S
O111 Cd100 2.439 . S
O111 C105 1.208 . S
O112 Cd113 2.223 1_556 S
O112 C120 1.315 . S
Cd113 O112 2.223 1_554 S
Cd113 O116 2.297 . S
Cd113 O117 2.439 . S
Cd113 O123 2.240 . S
Cd114 O115 2.240 1_554 S
Cd114 O122 2.223 . S
Cd114 O124 2.297 . S
Cd114 O125 2.439 . S
O115 Cd114 2.240 1_556 S
O115 C120 1.279 . S
O116 Cd113 2.297 . S
O116 C118 1.247 . S
O117 Cd113 2.439 . S
O117 C118 1.208 . S
C118 O116 1.247 . S
C118 O117 1.208 . S
C119 O124 1.247 . S
C119 O125 1.208 . S
C120 O112 1.315 . S
C120 O115 1.279 . S
C121 O122 1.315 . S
C121 O123 1.279 . S
O122 Cd114 2.223 . S
O122 C121 1.315 . S
O123 Cd113 2.240 . S
O123 C121 1.279 . S
O124 Cd114 2.297 . S
O124 C119 1.247 . S
O125 Cd114 2.439 . S
O125 C119 1.208 . S
O126 Cd127 2.223 . S
O126 C134 1.315 . S
Cd127 O126 2.223 . S
Cd127 O130 2.297 . S
Cd127 O131 2.439 . S
Cd127 O137 2.240 . S
Cd128 O129 2.240 . S
Cd128 O136 2.223 . S
Cd128 O138 2.297 . S
Cd128 O139 2.439 . S
O129 Cd128 2.240 . S
O129 C134 1.279 . S
O130 Cd127 2.297 . S
O130 C132 1.247 . S
O131 Cd127 2.439 . S
O131 C132 1.208 . S
C132 O130 1.247 . S
C132 O131 1.208 . S
C133 O138 1.247 . S
C133 O139 1.208 . S
C134 O126 1.315 . S
C134 O129 1.279 . S
C135 O136 1.315 . S
C135 O137 1.279 . S
O136 Cd128 2.223 . S
O136 C135 1.315 . S
O137 Cd127 2.240 . S
O137 C135 1.279 . S
O138 Cd128 2.297 . S
O138 C133 1.247 . S
O139 Cd128 2.439 . S
O139 C133 1.208 . S
O140 Cd141 2.223 . S
O140 C148 1.315 . S
Cd141 O140 2.223 . S
Cd141 O144 2.297 . S
Cd141 O145 2.439 . S
Cd141 O151 2.240 . S
Cd142 O143 2.240 . S
Cd142 O150 2.223 . S
Cd142 O152 2.297 . S
Cd142 O153 2.439 . S
O143 Cd142 2.240 . S
O143 C148 1.279 . S
O144 Cd141 2.297 . S
O144 C146 1.247 . S
O145 Cd141 2.439 . S
O145 C146 1.208 . S
C146 O144 1.247 . S
C146 O145 1.208 . S
C147 O152 1.247 . S
C147 O153 1.208 . S
C148 O140 1.315 . S
C148 O143 1.279 . S
C149 O150 1.315 . S
C149 O151 1.279 . S
O150 Cd142 2.223 . S
O150 C149 1.315 . S
O151 Cd141 2.240 . S
O151 C149 1.279 . S
O152 Cd142 2.297 . S
O152 C147 1.247 . S
O153 Cd142 2.439 . S
O153 C147 1.208 . S
O154 Cd155 2.223 1_556 S
O154 C162 1.315 . S
Cd155 O154 2.223 1_554 S
Cd155 O158 2.297 . S
Cd155 O159 2.439 . S
Cd155 O165 2.240 . S
Cd156 O157 2.240 1_554 S
Cd156 O164 2.223 . S
Cd156 O166 2.297 . S
Cd156 O167 2.439 . S
O157 Cd156 2.240 1_556 S
O157 C162 1.279 . S
O158 Cd155 2.297 . S
O158 C160 1.247 . S
O159 Cd155 2.439 . S
O159 C160 1.208 . S
C160 O158 1.247 . S
C160 O159 1.208 . S
C161 O166 1.247 . S
C161 O167 1.208 . S
C162 O154 1.315 . S
C162 O157 1.279 . S
C163 O164 1.315 . S
C163 O165 1.279 . S
O164 Cd156 2.223 . S
O164 C163 1.315 . S
O165 Cd155 2.240 . S
O165 C163 1.279 . S
O166 Cd156 2.297 . S
O166 C161 1.247 . S
O167 Cd156 2.439 . S
O167 C161 1.208 . S
H168 C186 0.951 . S
H169 C188 0.951 . S
H170 C190 0.950 . S
H171 C191 0.950 . S
H172 C193 0.950 . S
H173 C196 0.950 . S
H174 C197 0.950 . S
H175 C199 0.950 . S
H176 C200 0.950 . S
H177 C201 0.951 . S
H178 C203 0.951 . S
H179 C205 0.950 . S
H180 C206 0.950 . S
H181 C208 0.950 . S
H182 C211 0.950 . S
H183 C212 0.950 . S
H184 C214 0.950 . S
H185 C215 0.950 . S
C186 H168 0.951 . S
C186 C187 1.366 . S
C186 C188 1.388 . S
C187 C186 1.366 . S
C187 C191 1.385 . S
C188 H169 0.951 . S
C188 C186 1.388 . S
C188 C189 1.366 . S
C189 C188 1.366 . S
C189 C190 1.414 . S
C189 C192 1.499 . S
C190 H170 0.950 . S
C190 C189 1.414 . S
C190 C191 1.374 . S
C191 H171 0.950 . S
C191 C187 1.385 . S
C191 C190 1.374 . S
C192 C189 1.499 . S
C192 C193 1.373 . S
C192 C194 1.389 . S
C193 H172 0.950 . S
C193 C192 1.373 . S
C193 C209 1.377 . S
C194 C192 1.389 . S
C194 C195 1.524 . S
C194 C208 1.377 . S
C195 C194 1.524 . S
C195 C196 1.397 . S
C195 C200 1.363 . S
C196 H173 0.950 . S
C196 C195 1.397 . S
C196 C197 1.334 . S
C197 H174 0.950 . S
C197 C196 1.334 . S
C197 C198 1.287 . S
C198 C197 1.287 . S
C198 C199 1.524 . S
C198 H217 0.913 . S
C199 H175 0.950 . S
C199 C198 1.524 . S
C199 C200 1.415 . S
C200 H176 0.950 . S
C200 C195 1.363 . S
C200 C199 1.415 . S
C201 H177 0.951 . S
C201 C202 1.366 . S
C201 C203 1.388 . S
C202 C201 1.366 . S
C202 C206 1.385 . S
C203 H178 0.951 . S
C203 C201 1.388 . S
C203 C204 1.366 . S
C204 C203 1.366 . S
C204 C205 1.414 . S
C204 C207 1.499 . S
C205 H179 0.950 . S
C205 C204 1.414 . S
C205 C206 1.374 . S
C206 H180 0.950 . S
C206 C202 1.385 . S
C206 C205 1.374 . S
C207 C204 1.499 . S
C207 C208 1.373 . S
C207 C209 1.389 . S
C208 H181 0.950 . S
C208 C194 1.377 . S
C208 C207 1.373 . S
C209 C193 1.377 . S
C209 C207 1.389 . S
C209 C210 1.524 . S
C210 C209 1.524 . S
C210 C211 1.397 . S
C210 C215 1.363 . S
C211 H182 0.950 . S
C211 C210 1.397 . S
C211 C212 1.334 . S
C212 H183 0.950 . S
C212 C211 1.334 . S
C212 C213 1.287 . S
C213 C212 1.287 . S
C213 C214 1.524 . S
C213 H216 0.999 . S
C214 H184 0.950 . S
C214 C213 1.524 . S
C214 C215 1.415 . S
C215 H185 0.950 . S
C215 C210 1.363 . S
C215 C214 1.415 . S
H216 C213 0.999 . S
H217 C198 0.913 . S
H218 C236 0.951 . S
H219 C238 0.951 . S
H220 C240 0.950 . S
H221 C241 0.950 . S
H222 C243 0.950 . S
H223 C246 0.950 . S
H224 C247 0.950 . S
H225 C249 0.950 . S
H226 C250 0.950 . S
H227 C251 0.951 . S
H228 C253 0.951 . S
H229 C255 0.950 . S
H230 C256 0.950 . S
H231 C258 0.950 . S
H232 C261 0.950 . S
H233 C262 0.950 . S
H234 C264 0.950 . S
H235 C265 0.950 . S
C236 H218 0.951 . S
C236 C237 1.366 . S
C236 C238 1.388 . S
C237 C236 1.366 . S
C237 C241 1.385 . S
C238 H219 0.951 . S
C238 C236 1.388 . S
C238 C239 1.366 . S
C239 C238 1.366 . S
C239 C240 1.414 . S
C239 C242 1.499 . S
C240 H220 0.950 . S
C240 C239 1.414 . S
C240 C241 1.374 . S
C241 H221 0.950 . S
C241 C237 1.385 . S
C241 C240 1.374 . S
C242 C239 1.499 . S
C242 C243 1.373 . S
C242 C244 1.389 . S
C243 H222 0.950 . S
C243 C242 1.373 . S
C243 C259 1.377 . S
C244 C242 1.389 . S
C244 C245 1.524 . S
C244 C258 1.377 . S
C245 C244 1.524 . S
C245 C246 1.397 . S
C245 C250 1.363 . S
C246 H223 0.950 . S
C246 C245 1.397 . S
C246 C247 1.334 . S
C247 H224 0.950 . S
C247 C246 1.334 . S
C247 C248 1.287 . S
C248 C247 1.287 . S
C248 C249 1.524 . S
C248 H267 0.913 . S
C249 H225 0.950 . S
C249 C248 1.524 . S
C249 C250 1.415 . S
C250 H226 0.950 . S
C250 C245 1.363 . S
C250 C249 1.415 . S
C251 H227 0.951 . S
C251 C252 1.366 . S
C251 C253 1.388 . S
C252 C251 1.366 . S
C252 C256 1.385 . S
C253 H228 0.951 . S
C253 C251 1.388 . S
C253 C254 1.366 . S
C254 C253 1.366 . S
C254 C255 1.414 . S
C254 C257 1.499 . S
C255 H229 0.950 . S
C255 C254 1.414 . S
C255 C256 1.374 . S
C256 H230 0.950 . S
C256 C252 1.385 . S
C256 C255 1.374 . S
C257 C254 1.499 . S
C257 C258 1.373 . S
C257 C259 1.389 . S
C258 H231 0.950 . S
C258 C244 1.377 . S
C258 C257 1.373 . S
C259 C243 1.377 . S
C259 C257 1.389 . S
C259 C260 1.524 . S
C260 C259 1.524 . S
C260 C261 1.397 . S
C260 C265 1.363 . S
C261 H232 0.950 . S
C261 C260 1.397 . S
C261 C262 1.334 . S
C262 H233 0.950 . S
C262 C261 1.334 . S
C262 C263 1.287 . S
C263 C262 1.287 . S
C263 C264 1.524 . S
C263 H266 0.999 . S
C264 H234 0.950 . S
C264 C263 1.524 . S
C264 C265 1.415 . S
C265 H235 0.950 . S
C265 C260 1.363 . S
C265 C264 1.415 . S
H266 C263 0.999 . S
H267 C248 0.913 . S
H268 C286 0.951 . S
H269 C288 0.951 . S
H270 C290 0.950 . S
H271 C291 0.950 . S
H272 C293 0.950 . S
H273 C296 0.950 . S
H274 C297 0.950 . S
H275 C299 0.950 . S
H276 C300 0.950 . S
H277 C301 0.951 . S
H278 C303 0.951 . S
H279 C305 0.950 . S
H280 C306 0.950 . S
H281 C308 0.950 . S
H282 C311 0.950 . S
H283 C312 0.950 . S
H284 C314 0.950 . S
H285 C315 0.950 . S
C286 H268 0.951 . S
C286 C287 1.366 . S
C286 C288 1.388 . S
C287 C286 1.366 . S
C287 C291 1.385 . S
C288 H269 0.951 . S
C288 C286 1.388 . S
C288 C289 1.366 . S
C289 C288 1.366 . S
C289 C290 1.414 . S
C289 C292 1.499 . S
C290 H270 0.950 . S
C290 C289 1.414 . S
C290 C291 1.374 . S
C291 H271 0.950 . S
C291 C287 1.385 . S
C291 C290 1.374 . S
C292 C289 1.499 . S
C292 C293 1.373 . S
C292 C294 1.389 . S
C293 H272 0.950 . S
C293 C292 1.373 . S
C293 C309 1.377 . S
C294 C292 1.389 . S
C294 C295 1.524 . S
C294 C308 1.377 . S
C295 C294 1.524 . S
C295 C296 1.397 . S
C295 C300 1.363 . S
C296 H273 0.950 . S
C296 C295 1.397 . S
C296 C297 1.334 . S
C297 H274 0.950 . S
C297 C296 1.334 . S
C297 C298 1.287 . S
C298 C297 1.287 . S
C298 C299 1.524 . S
C298 H317 0.913 . S
C299 H275 0.950 . S
C299 C298 1.524 . S
C299 C300 1.415 . S
C300 H276 0.950 . S
C300 C295 1.363 . S
C300 C299 1.415 . S
C301 H277 0.951 . S
C301 C302 1.366 . S
C301 C303 1.388 . S
C302 C301 1.366 . S
C302 C306 1.385 . S
C303 H278 0.951 . S
C303 C301 1.388 . S
C303 C304 1.366 . S
C304 C303 1.366 . S
C304 C305 1.414 . S
C304 C307 1.499 . S
C305 H279 0.950 . S
C305 C304 1.414 . S
C305 C306 1.374 . S
C306 H280 0.950 . S
C306 C302 1.385 . S
C306 C305 1.374 . S
C307 C304 1.499 . S
C307 C308 1.373 . S
C307 C309 1.389 . S
C308 H281 0.950 . S
C308 C294 1.377 . S
C308 C307 1.373 . S
C309 C293 1.377 . S
C309 C307 1.389 . S
C309 C310 1.524 . S
C310 C309 1.524 . S
C310 C311 1.397 . S
C310 C315 1.363 . S
C311 H282 0.950 . S
C311 C310 1.397 . S
C311 C312 1.334 . S
C312 H283 0.950 . S
C312 C311 1.334 . S
C312 C313 1.287 . S
C313 C312 1.287 . S
C313 C314 1.524 . S
C313 H316 0.999 . S
C314 H284 0.950 . S
C314 C313 1.524 . S
C314 C315 1.415 . S
C315 H285 0.950 . S
C315 C310 1.363 . S
C315 C314 1.415 . S
H316 C313 0.999 . S
H317 C298 0.913 . S
H318 C336 0.951 . S
H319 C338 0.951 . S
H320 C340 0.950 . S
H321 C341 0.950 . S
H322 C343 0.950 . S
H323 C346 0.950 . S
H324 C347 0.950 . S
H325 C349 0.950 . S
H326 C350 0.950 . S
H327 C351 0.951 . S
H328 C353 0.951 . S
H329 C355 0.950 . S
H330 C356 0.950 . S
H331 C358 0.950 . S
H332 C361 0.950 . S
H333 C362 0.950 . S
H334 C364 0.950 . S
H335 C365 0.950 . S
C336 H318 0.951 . S
C336 C337 1.366 . S
C336 C338 1.388 . S
C337 C336 1.366 . S
C337 C341 1.385 . S
C338 H319 0.951 . S
C338 C336 1.388 . S
C338 C339 1.366 . S
C339 C338 1.366 . S
C339 C340 1.414 . S
C339 C342 1.499 . S
C340 H320 0.950 . S
C340 C339 1.414 . S
C340 C341 1.374 . S
C341 H321 0.950 . S
C341 C337 1.385 . S
C341 C340 1.374 . S
C342 C339 1.499 . S
C342 C343 1.373 . S
C342 C344 1.389 . S
C343 H322 0.950 . S
C343 C342 1.373 . S
C343 C359 1.377 . S
C344 C342 1.389 . S
C344 C345 1.524 . S
C344 C358 1.377 . S
C345 C344 1.524 . S
C345 C346 1.397 . S
C345 C350 1.363 . S
C346 H323 0.950 . S
C346 C345 1.397 . S
C346 C347 1.334 . S
C347 H324 0.950 . S
C347 C346 1.334 . S
C347 C348 1.287 . S
C348 C347 1.287 . S
C348 C349 1.524 . S
C348 H367 0.913 . S
C349 H325 0.950 . S
C349 C348 1.524 . S
C349 C350 1.415 . S
C350 H326 0.950 . S
C350 C345 1.363 . S
C350 C349 1.415 . S
C351 H327 0.951 . S
C351 C352 1.366 . S
C351 C353 1.388 . S
C352 C351 1.366 . S
C352 C356 1.385 . S
C353 H328 0.951 . S
C353 C351 1.388 . S
C353 C354 1.366 . S
C354 C353 1.366 . S
C354 C355 1.414 . S
C354 C357 1.499 . S
C355 H329 0.950 . S
C355 C354 1.414 . S
C355 C356 1.374 . S
C356 H330 0.950 . S
C356 C352 1.385 . S
C356 C355 1.374 . S
C357 C354 1.499 . S
C357 C358 1.373 . S
C357 C359 1.389 . S
C358 H331 0.950 . S
C358 C344 1.377 . S
C358 C357 1.373 . S
C359 C343 1.377 . S
C359 C357 1.389 . S
C359 C360 1.524 . S
C360 C359 1.524 . S
C360 C361 1.397 . S
C360 C365 1.363 . S
C361 H332 0.950 . S
C361 C360 1.397 . S
C361 C362 1.334 . S
C362 H333 0.950 . S
C362 C361 1.334 . S
C362 C363 1.287 . S
C363 C362 1.287 . S
C363 C364 1.524 . S
C363 H366 0.999 . S
C364 H334 0.950 . S
C364 C363 1.524 . S
C364 C365 1.415 . S
C365 H335 0.950 . S
C365 C360 1.363 . S
C365 C364 1.415 . S
H366 C363 0.999 . S
H367 C348 0.913 . S
H368 C386 0.951 . S
H369 C388 0.951 . S
H370 C390 0.950 . S
H371 C391 0.950 . S
H372 C393 0.950 . S
H373 C396 0.950 . S
H374 C397 0.950 . S
H375 C399 0.950 . S
H376 C400 0.950 . S
H377 C401 0.951 . S
H378 C403 0.951 . S
H379 C405 0.950 . S
H380 C406 0.950 . S
H381 C408 0.950 . S
H382 C411 0.950 . S
H383 C412 0.950 . S
H384 C414 0.950 . S
H385 C415 0.950 . S
C386 H368 0.951 . S
C386 C387 1.366 . S
C386 C388 1.388 . S
C387 C386 1.366 . S
C387 C391 1.385 . S
C388 H369 0.951 . S
C388 C386 1.388 . S
C388 C389 1.366 . S
C389 C388 1.366 . S
C389 C390 1.414 . S
C389 C392 1.499 . S
C390 H370 0.950 . S
C390 C389 1.414 . S
C390 C391 1.374 . S
C391 H371 0.950 . S
C391 C387 1.385 . S
C391 C390 1.374 . S
C392 C389 1.499 . S
C392 C393 1.373 . S
C392 C394 1.389 . S
C393 H372 0.950 . S
C393 C392 1.373 . S
C393 C409 1.377 . S
C394 C392 1.389 . S
C394 C395 1.524 . S
C394 C408 1.377 . S
C395 C394 1.524 . S
C395 C396 1.397 . S
C395 C400 1.363 . S
C396 H373 0.950 . S
C396 C395 1.397 . S
C396 C397 1.334 . S
C397 H374 0.950 . S
C397 C396 1.334 . S
C397 C398 1.287 . S
C398 C397 1.287 . S
C398 C399 1.524 . S
C398 H417 0.913 . S
C399 H375 0.950 . S
C399 C398 1.524 . S
C399 C400 1.415 . S
C400 H376 0.950 . S
C400 C395 1.363 . S
C400 C399 1.415 . S
C401 H377 0.951 . S
C401 C402 1.366 . S
C401 C403 1.388 . S
C402 C401 1.366 . S
C402 C406 1.385 . S
C403 H378 0.951 . S
C403 C401 1.388 . S
C403 C404 1.366 . S
C404 C403 1.366 . S
C404 C405 1.414 . S
C404 C407 1.499 . S
C405 H379 0.950 . S
C405 C404 1.414 . S
C405 C406 1.374 . S
C406 H380 0.950 . S
C406 C402 1.385 . S
C406 C405 1.374 . S
C407 C404 1.499 . S
C407 C408 1.373 . S
C407 C409 1.389 . S
C408 H381 0.950 . S
C408 C394 1.377 . S
C408 C407 1.373 . S
C409 C393 1.377 . S
C409 C407 1.389 . S
C409 C410 1.524 . S
C410 C409 1.524 . S
C410 C411 1.397 . S
C410 C415 1.363 . S
C411 H382 0.950 . S
C411 C410 1.397 . S
C411 C412 1.334 . S
C412 H383 0.950 . S
C412 C411 1.334 . S
C412 C413 1.287 . S
C413 C412 1.287 . S
C413 C414 1.524 . S
C413 H416 0.999 . S
C414 H384 0.950 . S
C414 C413 1.524 . S
C414 C415 1.415 . S
C415 H385 0.950 . S
C415 C410 1.363 . S
C415 C414 1.415 . S
H416 C413 0.999 . S
H417 C398 0.913 . S
H418 C436 0.951 . S
H419 C438 0.951 . S
H420 C440 0.950 . S
H421 C441 0.950 . S
H422 C443 0.950 . S
H423 C446 0.950 . S
H424 C447 0.950 . S
H425 C449 0.950 . S
H426 C450 0.950 . S
H427 C451 0.951 . S
H428 C453 0.951 . S
H429 C455 0.950 . S
H430 C456 0.950 . S
H431 C458 0.950 . S
H432 C461 0.950 . S
H433 C462 0.950 . S
H434 C464 0.950 . S
H435 C465 0.950 . S
C436 H418 0.951 . S
C436 C437 1.366 . S
C436 C438 1.388 . S
C437 C436 1.366 . S
C437 C441 1.385 . S
C438 H419 0.951 . S
C438 C436 1.388 . S
C438 C439 1.366 . S
C439 C438 1.366 . S
C439 C440 1.414 . S
C439 C442 1.499 . S
C440 H420 0.950 . S
C440 C439 1.414 . S
C440 C441 1.374 . S
C441 H421 0.950 . S
C441 C437 1.385 . S
C441 C440 1.374 . S
C442 C439 1.499 . S
C442 C443 1.373 . S
C442 C444 1.389 . S
C443 H422 0.950 . S
C443 C442 1.373 . S
C443 C459 1.377 . S
C444 C442 1.389 . S
C444 C445 1.524 . S
C444 C458 1.377 . S
C445 C444 1.524 . S
C445 C446 1.397 . S
C445 C450 1.363 . S
C446 H423 0.950 . S
C446 C445 1.397 . S
C446 C447 1.334 . S
C447 H424 0.950 . S
C447 C446 1.334 . S
C447 C448 1.287 . S
C448 C447 1.287 . S
C448 C449 1.524 . S
C448 H467 0.913 . S
C449 H425 0.950 . S
C449 C448 1.524 . S
C449 C450 1.415 . S
C450 H426 0.950 . S
C450 C445 1.363 . S
C450 C449 1.415 . S
C451 H427 0.951 . S
C451 C452 1.366 . S
C451 C453 1.388 . S
C452 C451 1.366 . S
C452 C456 1.385 . S
C453 H428 0.951 . S
C453 C451 1.388 . S
C453 C454 1.366 . S
C454 C453 1.366 . S
C454 C455 1.414 . S
C454 C457 1.499 . S
C455 H429 0.950 . S
C455 C454 1.414 . S
C455 C456 1.374 . S
C456 H430 0.950 . S
C456 C452 1.385 . S
C456 C455 1.374 . S
C457 C454 1.499 . S
C457 C458 1.373 . S
C457 C459 1.389 . S
C458 H431 0.950 . S
C458 C444 1.377 . S
C458 C457 1.373 . S
C459 C443 1.377 . S
C459 C457 1.389 . S
C459 C460 1.524 . S
C460 C459 1.524 . S
C460 C461 1.397 . S
C460 C465 1.363 . S
C461 H432 0.950 . S
C461 C460 1.397 . S
C461 C462 1.334 . S
C462 H433 0.950 . S
C462 C461 1.334 . S
C462 C463 1.287 . S
C463 C462 1.287 . S
C463 C464 1.524 . S
C463 H466 0.999 . S
C464 H434 0.950 . S
C464 C463 1.524 . S
C464 C465 1.415 . S
C465 H435 0.950 . S
C465 C460 1.363 . S
C465 C464 1.415 . S
H466 C463 0.999 . S
H467 C448 0.913 . S
H468 C486 0.951 . S
H469 C488 0.951 . S
H470 C490 0.950 . S
H471 C491 0.950 . S
H472 C493 0.950 . S
H473 C496 0.950 . S
H474 C497 0.950 . S
H475 C499 0.950 . S
H476 C500 0.950 . S
H477 C501 0.951 . S
H478 C503 0.951 . S
H479 C505 0.950 . S
H480 C506 0.950 . S
H481 C508 0.950 . S
H482 C511 0.950 . S
H483 C512 0.950 . S
H484 C514 0.950 . S
H485 C515 0.950 . S
C486 H468 0.951 . S
C486 C487 1.366 . S
C486 C488 1.388 . S
C487 C486 1.366 . S
C487 C491 1.385 . S
C488 H469 0.951 . S
C488 C486 1.388 . S
C488 C489 1.366 . S
C489 C488 1.366 . S
C489 C490 1.414 . S
C489 C492 1.499 . S
C490 H470 0.950 . S
C490 C489 1.414 . S
C490 C491 1.374 . S
C491 H471 0.950 . S
C491 C487 1.385 . S
C491 C490 1.374 . S
C492 C489 1.499 . S
C492 C493 1.373 . S
C492 C494 1.389 . S
C493 H472 0.950 . S
C493 C492 1.373 . S
C493 C509 1.377 . S
C494 C492 1.389 . S
C494 C495 1.524 . S
C494 C508 1.377 . S
C495 C494 1.524 . S
C495 C496 1.397 . S
C495 C500 1.363 . S
C496 H473 0.950 . S
C496 C495 1.397 . S
C496 C497 1.334 . S
C497 H474 0.950 . S
C497 C496 1.334 . S
C497 C498 1.287 . S
C498 C497 1.287 . S
C498 C499 1.524 . S
C498 H517 0.913 . S
C499 H475 0.950 . S
C499 C498 1.524 . S
C499 C500 1.415 . S
C500 H476 0.950 . S
C500 C495 1.363 . S
C500 C499 1.415 . S
C501 H477 0.951 . S
C501 C502 1.366 . S
C501 C503 1.388 . S
C502 C501 1.366 . S
C502 C506 1.385 . S
C503 H478 0.951 . S
C503 C501 1.388 . S
C503 C504 1.366 . S
C504 C503 1.366 . S
C504 C505 1.414 . S
C504 C507 1.499 . S
C505 H479 0.950 . S
C505 C504 1.414 . S
C505 C506 1.374 . S
C506 H480 0.950 . S
C506 C502 1.385 . S
C506 C505 1.374 . S
C507 C504 1.499 . S
C507 C508 1.373 . S
C507 C509 1.389 . S
C508 H481 0.950 . S
C508 C494 1.377 . S
C508 C507 1.373 . S
C509 C493 1.377 . S
C509 C507 1.389 . S
C509 C510 1.524 . S
C510 C509 1.524 . S
C510 C511 1.397 . S
C510 C515 1.363 . S
C511 H482 0.950 . S
C511 C510 1.397 . S
C511 C512 1.334 . S
C512 H483 0.950 . S
C512 C511 1.334 . S
C512 C513 1.287 . S
C513 C512 1.287 . S
C513 C514 1.524 . S
C513 H516 0.999 . S
C514 H484 0.950 . S
C514 C513 1.524 . S
C514 C515 1.415 . S
C515 H485 0.950 . S
C515 C510 1.363 . S
C515 C514 1.415 . S
H516 C513 0.999 . S
H517 C498 0.913 . S
H518 C536 0.951 . S
H519 C538 0.951 . S
H520 C540 0.950 . S
H521 C541 0.950 . S
H522 C543 0.950 . S
H523 C546 0.950 . S
H524 C547 0.950 . S
H525 C549 0.950 . S
H526 C550 0.950 . S
H527 C551 0.951 . S
H528 C553 0.951 . S
H529 C555 0.950 . S
H530 C556 0.950 . S
H531 C558 0.950 . S
H532 C561 0.950 . S
H533 C562 0.950 . S
H534 C564 0.950 . S
H535 C565 0.950 . S
C536 H518 0.951 . S
C536 C537 1.366 . S
C536 C538 1.388 . S
C537 C536 1.366 . S
C537 C541 1.385 . S
C538 H519 0.951 . S
C538 C536 1.388 . S
C538 C539 1.366 . S
C539 C538 1.366 . S
C539 C540 1.414 . S
C539 C542 1.499 . S
C540 H520 0.950 . S
C540 C539 1.414 . S
C540 C541 1.374 . S
C541 H521 0.950 . S
C541 C537 1.385 . S
C541 C540 1.374 . S
C542 C539 1.499 . S
C542 C543 1.373 . S
C542 C544 1.389 . S
C543 H522 0.950 . S
C543 C542 1.373 . S
C543 C559 1.377 . S
C544 C542 1.389 . S
C544 C545 1.524 . S
C544 C558 1.377 . S
C545 C544 1.524 . S
C545 C546 1.397 . S
C545 C550 1.363 . S
C546 H523 0.950 . S
C546 C545 1.397 . S
C546 C547 1.334 . S
C547 H524 0.950 . S
C547 C546 1.334 . S
C547 C548 1.287 . S
C548 C547 1.287 . S
C548 C549 1.524 . S
C548 H567 0.913 . S
C549 H525 0.950 . S
C549 C548 1.524 . S
C549 C550 1.415 . S
C550 H526 0.950 . S
C550 C545 1.363 . S
C550 C549 1.415 . S
C551 H527 0.951 . S
C551 C552 1.366 . S
C551 C553 1.388 . S
C552 C551 1.366 . S
C552 C556 1.385 . S
C553 H528 0.951 . S
C553 C551 1.388 . S
C553 C554 1.366 . S
C554 C553 1.366 . S
C554 C555 1.414 . S
C554 C557 1.499 . S
C555 H529 0.950 . S
C555 C554 1.414 . S
C555 C556 1.374 . S
C556 H530 0.950 . S
C556 C552 1.385 . S
C556 C555 1.374 . S
C557 C554 1.499 . S
C557 C558 1.373 . S
C557 C559 1.389 . S
C558 H531 0.950 . S
C558 C544 1.377 . S
C558 C557 1.373 . S
C559 C543 1.377 . S
C559 C557 1.389 . S
C559 C560 1.524 . S
C560 C559 1.524 . S
C560 C561 1.397 . S
C560 C565 1.363 . S
C561 H532 0.950 . S
C561 C560 1.397 . S
C561 C562 1.334 . S
C562 H533 0.950 . S
C562 C561 1.334 . S
C562 C563 1.287 . S
C563 C562 1.287 . S
C563 C564 1.524 . S
C563 H566 0.999 . S
C564 H534 0.950 . S
C564 C563 1.524 . S
C564 C565 1.415 . S
C565 H535 0.950 . S
C565 C560 1.363 . S
C565 C564 1.415 . S
H566 C563 0.999 . S
H567 C548 0.913 . S
H568 C586 0.951 . S
H569 C588 0.951 . S
H570 C590 0.950 . S
H571 C591 0.950 . S
H572 C593 0.950 . S
H573 C596 0.950 . S
H574 C597 0.950 . S
H575 C599 0.950 . S
H576 C600 0.950 . S
H577 C601 0.951 . S
H578 C603 0.951 . S
H579 C605 0.950 . S
H580 C606 0.950 . S
H581 C608 0.950 . S
H582 C611 0.950 . S
H583 C612 0.950 . S
H584 C614 0.950 . S
H585 C615 0.950 . S
C586 H568 0.951 . S
C586 C587 1.366 1_556 S
C586 C588 1.388 . S
C587 C586 1.366 1_554 S
C587 C591 1.385 . S
C588 H569 0.951 . S
C588 C586 1.388 . S
C588 C589 1.366 1_556 S
C589 C588 1.366 1_554 S
C589 C590 1.414 . S
C589 C592 1.499 . S
C590 H570 0.950 . S
C590 C589 1.414 . S
C590 C591 1.374 . S
C591 H571 0.950 . S
C591 C587 1.385 . S
C591 C590 1.374 . S
C592 C589 1.499 . S
C592 C593 1.373 . S
C592 C594 1.389 1_554 S
C593 H572 0.950 . S
C593 C592 1.373 . S
C593 C609 1.377 . S
C594 C592 1.389 1_556 S
C594 C595 1.524 . S
C594 C608 1.377 . S
C595 C594 1.524 . S
C595 C596 1.397 . S
C595 C600 1.363 . S
C596 H573 0.950 . S
C596 C595 1.397 . S
C596 C597 1.334 . S
C597 H574 0.950 . S
C597 C596 1.334 . S
C597 C598 1.287 . S
C598 C597 1.287 . S
C598 C599 1.524 . S
C598 H617 0.913 . S
C599 H575 0.950 . S
C599 C598 1.524 . S
C599 C600 1.415 . S
C600 H576 0.950 . S
C600 C595 1.363 . S
C600 C599 1.415 . S
C601 H577 0.951 . S
C601 C602 1.385 . S
C601 C603 1.388 . S
C602 C601 1.385 . S
C602 C606 1.368 1_554 S
C603 H578 0.951 . S
C603 C601 1.388 . S
C603 C604 1.366 . S
C604 C603 1.366 . S
C604 C605 1.414 1_554 S
C604 C607 1.499 . S
C605 H579 0.950 . S
C605 C604 1.414 1_556 S
C605 C606 1.374 . S
C606 H580 0.950 . S
C606 C602 1.368 1_556 S
C606 C605 1.374 . S
C607 C604 1.499 . S
C607 C608 1.373 1_554 S
C607 C609 1.389 . S
C608 H581 0.950 . S
C608 C594 1.377 . S
C608 C607 1.373 1_556 S
C609 C593 1.377 . S
C609 C607 1.389 . S
C609 C610 1.524 . S
C610 C609 1.524 . S
C610 C611 1.397 . S
C610 C615 1.363 . S
C611 H582 0.950 . S
C611 C610 1.397 . S
C611 C612 1.334 . S
C612 H583 0.950 . S
C612 C611 1.334 . S
C612 C613 1.287 . S
C613 C612 1.287 . S
C613 C614 1.524 . S
C613 H616 0.999 . S
C614 H584 0.950 . S
C614 C613 1.524 . S
C614 C615 1.415 . S
C615 H585 0.950 . S
C615 C610 1.363 . S
C615 C614 1.415 . S
H616 C613 0.999 . S
H617 C598 0.913 . S
H618 C636 0.951 . S
H619 C638 0.951 . S
H620 C640 0.950 . S
H621 C641 0.950 . S
H622 C643 0.950 . S
H623 C646 0.950 . S
H624 C647 0.950 . S
H625 C649 0.950 . S
H626 C650 0.950 . S
H627 C651 0.951 . S
H628 C653 0.951 . S
H629 C655 0.950 . S
H630 C656 0.950 . S
H631 C658 0.950 . S
H632 C661 0.950 . S
H633 C662 0.950 . S
H634 C664 0.950 . S
H635 C665 0.950 . S
C636 H618 0.951 . S
C636 C637 1.366 . S
C636 C638 1.388 . S
C637 C636 1.366 . S
C637 C641 1.385 . S
C638 H619 0.951 . S
C638 C636 1.388 . S
C638 C639 1.366 . S
C639 C638 1.366 . S
C639 C640 1.414 . S
C639 C642 1.499 . S
C640 H620 0.950 . S
C640 C639 1.414 . S
C640 C641 1.374 . S
C641 H621 0.950 . S
C641 C637 1.385 . S
C641 C640 1.374 . S
C642 C639 1.499 . S
C642 C643 1.373 . S
C642 C644 1.389 . S
C643 H622 0.950 . S
C643 C642 1.373 . S
C643 C659 1.377 . S
C644 C642 1.389 . S
C644 C645 1.524 . S
C644 C658 1.377 . S
C645 C644 1.524 . S
C645 C646 1.397 . S
C645 C650 1.363 . S
C646 H623 0.950 . S
C646 C645 1.397 . S
C646 C647 1.334 . S
C647 H624 0.950 . S
C647 C646 1.334 . S
C647 C648 1.287 . S
C648 C647 1.287 . S
C648 C649 1.524 . S
C648 H667 0.913 . S
C649 H625 0.950 . S
C649 C648 1.524 . S
C649 C650 1.415 . S
C650 H626 0.950 . S
C650 C645 1.363 . S
C650 C649 1.415 . S
C651 H627 0.951 . S
C651 C652 1.366 . S
C651 C653 1.388 . S
C652 C651 1.366 . S
C652 C656 1.385 . S
C653 H628 0.951 . S
C653 C651 1.388 . S
C653 C654 1.366 . S
C654 C653 1.366 . S
C654 C655 1.414 . S
C654 C657 1.499 . S
C655 H629 0.950 . S
C655 C654 1.414 . S
C655 C656 1.374 . S
C656 H630 0.950 . S
C656 C652 1.385 . S
C656 C655 1.374 . S
C657 C654 1.499 . S
C657 C658 1.373 . S
C657 C659 1.389 . S
C658 H631 0.950 . S
C658 C644 1.377 . S
C658 C657 1.373 . S
C659 C643 1.377 . S
C659 C657 1.389 . S
C659 C660 1.524 . S
C660 C659 1.524 . S
C660 C661 1.397 . S
C660 C665 1.363 . S
C661 H632 0.950 . S
C661 C660 1.397 . S
C661 C662 1.334 . S
C662 H633 0.950 . S
C662 C661 1.334 . S
C662 C663 1.287 . S
C663 C662 1.287 . S
C663 C664 1.524 . S
C663 H666 0.999 . S
C664 H634 0.950 . S
C664 C663 1.524 . S
C664 C665 1.415 . S
C665 H635 0.950 . S
C665 C660 1.363 . S
C665 C664 1.415 . S
H666 C663 0.999 . S
H667 C648 0.913 . S
H668 C686 0.951 . S
H669 C688 0.951 . S
H670 C690 0.950 . S
H671 C691 0.950 . S
H672 C693 0.950 . S
H673 C696 0.950 . S
H674 C697 0.950 . S
H675 C699 0.950 . S
H676 C700 0.950 . S
H677 C701 0.951 . S
H678 C703 0.951 . S
H679 C705 0.950 . S
H680 C706 0.950 . S
H681 C708 0.950 . S
H682 C711 0.950 . S
H683 C712 0.950 . S
H684 C714 0.950 . S
H685 C715 0.950 . S
C686 H668 0.951 . S
C686 C687 1.366 . S
C686 C688 1.388 . S
C687 C686 1.366 . S
C687 C691 1.385 . S
C688 H669 0.951 . S
C688 C686 1.388 . S
C688 C689 1.366 . S
C689 C688 1.366 . S
C689 C690 1.414 . S
C689 C692 1.499 . S
C690 H670 0.950 . S
C690 C689 1.414 . S
C690 C691 1.374 . S
C691 H671 0.950 . S
C691 C687 1.385 . S
C691 C690 1.374 . S
C692 C689 1.499 . S
C692 C693 1.373 . S
C692 C694 1.389 . S
C693 H672 0.950 . S
C693 C692 1.373 . S
C693 C709 1.377 . S
C694 C692 1.389 . S
C694 C695 1.524 . S
C694 C708 1.377 . S
C695 C694 1.524 . S
C695 C696 1.397 . S
C695 C700 1.363 . S
C696 H673 0.950 . S
C696 C695 1.397 . S
C696 C697 1.334 . S
C697 H674 0.950 . S
C697 C696 1.334 . S
C697 C698 1.287 . S
C698 C697 1.287 . S
C698 C699 1.524 . S
C698 H717 0.913 . S
C699 H675 0.950 . S
C699 C698 1.524 . S
C699 C700 1.415 . S
C700 H676 0.950 . S
C700 C695 1.363 . S
C700 C699 1.415 . S
C701 H677 0.951 . S
C701 C702 1.366 . S
C701 C703 1.388 . S
C702 C701 1.366 . S
C702 C706 1.385 . S
C703 H678 0.951 . S
C703 C701 1.388 . S
C703 C704 1.366 . S
C704 C703 1.366 . S
C704 C705 1.414 . S
C704 C707 1.499 . S
C705 H679 0.950 . S
C705 C704 1.414 . S
C705 C706 1.374 . S
C706 H680 0.950 . S
C706 C702 1.385 . S
C706 C705 1.374 . S
C707 C704 1.499 . S
C707 C708 1.373 . S
C707 C709 1.389 . S
C708 H681 0.950 . S
C708 C694 1.377 . S
C708 C707 1.373 . S
C709 C693 1.377 . S
C709 C707 1.389 . S
C709 C710 1.524 . S
C710 C709 1.524 . S
C710 C711 1.397 . S
C710 C715 1.363 . S
C711 H682 0.950 . S
C711 C710 1.397 . S
C711 C712 1.334 . S
C712 H683 0.950 . S
C712 C711 1.334 . S
C712 C713 1.287 . S
C713 C712 1.287 . S
C713 C714 1.524 . S
C713 H716 0.999 . S
C714 H684 0.950 . S
C714 C713 1.524 . S
C714 C715 1.415 . S
C715 H685 0.950 . S
C715 C710 1.363 . S
C715 C714 1.415 . S
H716 C713 0.999 . S
H717 C698 0.913 . S
H718 C736 0.951 . S
H719 C738 0.951 . S
H720 C740 0.950 . S
H721 C741 0.950 . S
H722 C743 0.950 . S
H723 C746 0.950 . S
H724 C747 0.950 . S
H725 C749 0.950 . S
H726 C750 0.950 . S
H727 C751 0.951 . S
H728 C753 0.951 . S
H729 C755 0.950 . S
H730 C756 0.950 . S
H731 C758 0.950 . S
H732 C761 0.950 . S
H733 C762 0.950 . S
H734 C764 0.950 . S
H735 C765 0.950 . S
C736 H718 0.951 . S
C736 C737 1.387 . S
C736 C738 1.388 . S
C737 C736 1.387 . S
C737 C741 1.366 1_554 S
C738 H719 0.951 . S
C738 C736 1.388 . S
C738 C739 1.366 . S
C739 C738 1.366 . S
C739 C740 1.414 1_554 S
C739 C742 1.499 . S
C740 H720 0.950 . S
C740 C739 1.414 1_556 S
C740 C741 1.374 . S
C741 H721 0.950 . S
C741 C737 1.366 1_556 S
C741 C740 1.374 . S
C742 C739 1.499 . S
C742 C743 1.373 1_554 S
C742 C744 1.389 . S
C743 H722 0.950 . S
C743 C742 1.373 1_556 S
C743 C759 1.377 . S
C744 C742 1.389 . S
C744 C745 1.524 . S
C744 C758 1.377 . S
C745 C744 1.524 . S
C745 C746 1.397 . S
C745 C750 1.363 . S
C746 H723 0.950 . S
C746 C745 1.397 . S
C746 C747 1.334 . S
C747 H724 0.950 . S
C747 C746 1.334 . S
C747 C748 1.287 . S
C748 C747 1.287 . S
C748 C749 1.524 . S
C748 H767 0.913 . S
C749 H725 0.950 . S
C749 C748 1.524 . S
C749 C750 1.415 . S
C750 H726 0.950 . S
C750 C745 1.363 . S
C750 C749 1.415 . S
C751 H727 0.951 . S
C751 C752 1.366 1_556 S
C751 C753 1.388 . S
C752 C751 1.366 1_554 S
C752 C756 1.385 . S
C753 H728 0.951 . S
C753 C751 1.388 . S
C753 C754 1.366 1_556 S
C754 C753 1.366 1_554 S
C754 C755 1.414 . S
C754 C757 1.499 . S
C755 H729 0.950 . S
C755 C754 1.414 . S
C755 C756 1.374 . S
C756 H730 0.950 . S
C756 C752 1.385 . S
C756 C755 1.374 . S
C757 C754 1.499 . S
C757 C758 1.373 . S
C757 C759 1.389 1_554 S
C758 H731 0.950 . S
C758 C744 1.377 . S
C758 C757 1.373 . S
C759 C743 1.377 . S
C759 C757 1.389 1_556 S
C759 C760 1.524 . S
C760 C759 1.524 . S
C760 C761 1.397 . S
C760 C765 1.363 . S
C761 H732 0.950 . S
C761 C760 1.397 . S
C761 C762 1.334 . S
C762 H733 0.950 . S
C762 C761 1.334 . S
C762 C763 1.287 . S
C763 C762 1.287 . S
C763 C764 1.524 . S
C763 H766 0.999 . S
C764 H734 0.950 . S
C764 C763 1.524 . S
C764 C765 1.415 . S
C765 H735 0.950 . S
C765 C760 1.363 . S
C765 C764 1.415 . S
H766 C763 0.999 . S
H767 C748 0.913 . S
H768 C786 0.951 . S
H769 C788 0.951 . S
H770 C790 0.950 . S
H771 C791 0.950 . S
H772 C793 0.950 . S
H773 C796 0.950 . S
H774 C797 0.950 . S
H775 C799 0.950 1_565 S
H776 C800 0.950 . S
H777 C801 0.951 . S
H778 C803 0.951 . S
H779 C805 0.950 . S
H780 C806 0.950 . S
H781 C808 0.950 . S
H782 C811 0.950 . S
H783 C812 0.950 . S
H784 C814 0.950 1_545 S
H785 C815 0.950 . S
C786 H768 0.951 . S
C786 C787 1.366 . S
C786 C788 1.388 . S
C787 C786 1.366 . S
C787 C791 1.385 . S
C788 H769 0.951 . S
C788 C786 1.388 . S
C788 C789 1.366 . S
C789 C788 1.366 . S
C789 C790 1.414 . S
C789 C792 1.499 . S
C790 H770 0.950 . S
C790 C789 1.414 . S
C790 C791 1.374 . S
C791 H771 0.950 . S
C791 C787 1.385 . S
C791 C790 1.374 . S
C792 C789 1.499 . S
C792 C793 1.373 . S
C792 C794 1.389 . S
C793 H772 0.950 . S
C793 C792 1.373 . S
C793 C809 1.377 1_545 S
C794 C792 1.389 . S
C794 C795 1.524 . S
C794 C808 1.377 1_545 S
C795 C794 1.524 . S
C795 C796 1.397 . S
C795 C800 1.363 1_545 S
C796 H773 0.950 . S
C796 C795 1.397 . S
C796 C797 1.334 . S
C797 H774 0.950 . S
C797 C796 1.334 . S
C797 C798 1.287 . S
C798 C797 1.287 . S
C798 C799 1.524 . S
C798 H817 0.913 . S
C799 H775 0.950 1_545 S
C799 C798 1.524 . S
C799 C800 1.415 1_545 S
C800 H776 0.950 . S
C800 C795 1.363 1_565 S
C800 C799 1.415 1_565 S
C801 H777 0.951 . S
C801 C802 1.366 . S
C801 C803 1.388 . S
C802 C801 1.366 . S
C802 C806 1.385 . S
C803 H778 0.951 . S
C803 C801 1.388 . S
C803 C804 1.366 . S
C804 C803 1.366 . S
C804 C805 1.414 . S
C804 C807 1.499 . S
C805 H779 0.950 . S
C805 C804 1.414 . S
C805 C806 1.374 . S
C806 H780 0.950 . S
C806 C802 1.385 . S
C806 C805 1.374 . S
C807 C804 1.499 . S
C807 C808 1.373 . S
C807 C809 1.389 . S
C808 H781 0.950 . S
C808 C794 1.377 1_565 S
C808 C807 1.373 . S
C809 C793 1.377 1_565 S
C809 C807 1.389 . S
C809 C810 1.524 . S
C810 C809 1.524 . S
C810 C811 1.397 . S
C810 C815 1.363 1_565 S
C811 H782 0.950 . S
C811 C810 1.397 . S
C811 C812 1.334 . S
C812 H783 0.950 . S
C812 C811 1.334 . S
C812 C813 1.287 . S
C813 C812 1.287 . S
C813 C814 1.524 . S
C813 H816 0.999 . S
C814 H784 0.950 1_565 S
C814 C813 1.524 . S
C814 C815 1.415 1_565 S
C815 H785 0.950 . S
C815 C810 1.363 1_545 S
C815 C814 1.415 1_545 S
H816 C813 0.999 . S
H817 C798 0.913 . S
H818 C836 0.951 . S
H819 C838 0.951 . S
H820 C840 0.950 . S
H821 C841 0.950 . S
H822 C843 0.950 . S
H823 C846 0.950 . S
H824 C847 0.950 . S
H825 C849 0.950 . S
H826 C850 0.950 . S
H827 C851 0.951 . S
H828 C853 0.951 . S
H829 C855 0.950 . S
H830 C856 0.950 . S
H831 C858 0.950 . S
H832 C861 0.950 . S
H833 C862 0.950 . S
H834 C864 0.950 . S
H835 C865 0.950 . S
C836 H818 0.951 . S
C836 C837 1.366 . S
C836 C838 1.388 . S
C837 C836 1.366 . S
C837 C841 1.385 . S
C838 H819 0.951 . S
C838 C836 1.388 . S
C838 C839 1.366 . S
C839 C838 1.366 . S
C839 C840 1.414 . S
C839 C842 1.499 . S
C840 H820 0.950 . S
C840 C839 1.414 . S
C840 C841 1.374 . S
C841 H821 0.950 . S
C841 C837 1.385 . S
C841 C840 1.374 . S
C842 C839 1.499 . S
C842 C843 1.373 . S
C842 C844 1.389 . S
C843 H822 0.950 . S
C843 C842 1.373 . S
C843 C859 1.377 . S
C844 C842 1.389 . S
C844 C845 1.524 . S
C844 C858 1.377 . S
C845 C844 1.524 . S
C845 C846 1.397 . S
C845 C850 1.363 . S
C846 H823 0.950 . S
C846 C845 1.397 . S
C846 C847 1.334 . S
C847 H824 0.950 . S
C847 C846 1.334 . S
C847 C848 1.287 . S
C848 C847 1.287 . S
C848 C849 1.524 . S
C848 H867 0.913 . S
C849 H825 0.950 . S
C849 C848 1.524 . S
C849 C850 1.415 . S
C850 H826 0.950 . S
C850 C845 1.363 . S
C850 C849 1.415 . S
C851 H827 0.951 . S
C851 C852 1.366 . S
C851 C853 1.388 . S
C852 C851 1.366 . S
C852 C856 1.385 . S
C853 H828 0.951 . S
C853 C851 1.388 . S
C853 C854 1.366 . S
C854 C853 1.366 . S
C854 C855 1.414 . S
C854 C857 1.499 . S
C855 H829 0.950 . S
C855 C854 1.414 . S
C855 C856 1.374 . S
C856 H830 0.950 . S
C856 C852 1.385 . S
C856 C855 1.374 . S
C857 C854 1.499 . S
C857 C858 1.373 . S
C857 C859 1.389 . S
C858 H831 0.950 . S
C858 C844 1.377 . S
C858 C857 1.373 . S
C859 C843 1.377 . S
C859 C857 1.389 . S
C859 C860 1.524 . S
C860 C859 1.524 . S
C860 C861 1.397 . S
C860 C865 1.363 . S
C861 H832 0.950 . S
C861 C860 1.397 . S
C861 C862 1.334 . S
C862 H833 0.950 . S
C862 C861 1.334 . S
C862 C863 1.287 . S
C863 C862 1.287 . S
C863 C864 1.524 . S
C863 H866 0.999 . S
C864 H834 0.950 . S
C864 C863 1.524 . S
C864 C865 1.415 . S
C865 H835 0.950 . S
C865 C860 1.363 . S
C865 C864 1.415 . S
H866 C863 0.999 . S
H867 C848 0.913 . S
H868 C886 0.951 . S
H869 C888 0.951 . S
H870 C890 0.950 . S
H871 C891 0.950 . S
H872 C893 0.950 . S
H873 C896 0.950 . S
H874 C897 0.950 . S
H875 C899 0.950 . S
H876 C900 0.912 1_455 S
H877 C901 0.951 . S
H878 C903 0.951 . S
H879 C905 0.950 . S
H880 C906 0.950 . S
H881 C908 0.950 . S
H882 C911 0.950 . S
H883 C912 0.950 . S
H884 C914 0.950 . S
H885 C915 0.912 1_655 S
C886 H868 0.951 . S
C886 C887 1.366 1_554 S
C886 C888 1.388 . S
C887 C886 1.366 1_556 S
C887 C891 1.385 . S
C888 H869 0.951 . S
C888 C886 1.388 . S
C888 C889 1.366 1_554 S
C889 C888 1.366 1_556 S
C889 C890 1.414 . S
C889 C892 1.499 . S
C890 H870 0.950 . S
C890 C889 1.414 . S
C890 C891 1.374 . S
C891 H871 0.950 . S
C891 C887 1.385 . S
C891 C890 1.374 . S
C892 C889 1.499 . S
C892 C893 1.373 . S
C892 C894 1.389 1_556 S
C893 H872 0.950 . S
C893 C892 1.373 . S
C893 C909 1.377 1_655 S
C894 C892 1.389 1_554 S
C894 C895 1.524 . S
C894 C908 1.377 1_655 S
C895 C894 1.524 . S
C895 C896 1.397 . S
C895 C900 1.363 . S
C896 H873 0.950 . S
C896 C895 1.397 . S
C896 C897 1.334 . S
C897 H874 0.950 . S
C897 C896 1.334 . S
C897 C898 1.287 . S
C898 C897 1.287 . S
C898 C899 1.524 . S
C898 H917 0.913 . S
C899 H875 0.950 . S
C899 C898 1.524 . S
C899 C900 1.415 . S
C900 H876 0.912 1_655 S
C900 C895 1.363 . S
C900 C899 1.415 . S
C901 H877 0.951 . S
C901 C902 1.366 . S
C901 C903 1.388 . S
C902 C901 1.366 . S
C902 C906 1.385 1_556 S
C903 H878 0.951 . S
C903 C901 1.388 . S
C903 C904 1.366 . S
C904 C903 1.366 . S
C904 C905 1.414 1_556 S
C904 C907 1.499 . S
C905 H879 0.950 . S
C905 C904 1.414 1_554 S
C905 C906 1.374 . S
C906 H880 0.950 . S
C906 C902 1.385 1_554 S
C906 C905 1.374 . S
C907 C904 1.499 . S
C907 C908 1.373 1_556 S
C907 C909 1.389 . S
C908 H881 0.950 . S
C908 C894 1.377 1_455 S
C908 C907 1.373 1_554 S
C909 C893 1.377 1_455 S
C909 C907 1.389 . S
C909 C910 1.524 . S
C910 C909 1.524 . S
C910 C911 1.397 . S
C910 C915 1.363 . S
C911 H882 0.950 . S
C911 C910 1.397 . S
C911 C912 1.334 . S
C912 H883 0.950 . S
C912 C911 1.334 . S
C912 C913 1.287 . S
C913 C912 1.287 . S
C913 C914 1.524 . S
C913 H916 0.999 . S
C914 H884 0.950 . S
C914 C913 1.524 . S
C914 C915 1.415 . S
C915 H885 0.912 1_455 S
C915 C910 1.363 . S
C915 C914 1.415 . S
H916 C913 0.999 . S
H917 C898 0.913 . S
H918 C936 0.951 . S
H919 C938 0.951 . S
H920 C940 0.950 . S
H921 C941 0.950 . S
H922 C943 0.950 . S
H923 C946 0.950 . S
H924 C947 0.950 . S
H925 C949 0.950 . S
H926 C950 0.950 . S
H927 C951 0.951 . S
H928 C953 0.951 . S
H929 C955 0.950 . S
H930 C956 0.950 . S
H931 C958 0.950 . S
H932 C961 0.950 . S
H933 C962 0.950 . S
H934 C964 0.950 . S
H935 C965 0.950 . S
C936 H918 0.951 . S
C936 C937 1.366 . S
C936 C938 1.388 . S
C937 C936 1.366 . S
C937 C941 1.385 . S
C938 H919 0.951 . S
C938 C936 1.388 . S
C938 C939 1.366 . S
C939 C938 1.366 . S
C939 C940 1.414 . S
C939 C942 1.499 . S
C940 H920 0.950 . S
C940 C939 1.414 . S
C940 C941 1.374 . S
C941 H921 0.950 . S
C941 C937 1.385 . S
C941 C940 1.374 . S
C942 C939 1.499 . S
C942 C943 1.373 . S
C942 C944 1.389 . S
C943 H922 0.950 . S
C943 C942 1.373 . S
C943 C959 1.377 1_455 S
C944 C942 1.389 . S
C944 C945 1.524 . S
C944 C958 1.377 1_455 S
C945 C944 1.524 . S
C945 C946 1.397 . S
C945 C950 1.363 . S
C946 H923 0.950 . S
C946 C945 1.397 . S
C946 C947 1.334 . S
C947 H924 0.950 . S
C947 C946 1.334 . S
C947 C948 1.287 . S
C948 C947 1.287 . S
C948 C949 1.524 . S
C948 H967 0.913 . S
C949 H925 0.950 . S
C949 C948 1.524 . S
C949 C950 1.415 . S
C950 H926 0.950 . S
C950 C945 1.363 . S
C950 C949 1.415 . S
C951 H927 0.951 . S
C951 C952 1.366 . S
C951 C953 1.388 . S
C952 C951 1.366 . S
C952 C956 1.385 . S
C953 H928 0.951 . S
C953 C951 1.388 . S
C953 C954 1.366 . S
C954 C953 1.366 . S
C954 C955 1.414 . S
C954 C957 1.499 . S
C955 H929 0.950 . S
C955 C954 1.414 . S
C955 C956 1.374 . S
C956 H930 0.950 . S
C956 C952 1.385 . S
C956 C955 1.374 . S
C957 C954 1.499 . S
C957 C958 1.373 . S
C957 C959 1.389 . S
C958 H931 0.950 . S
C958 C944 1.377 1_655 S
C958 C957 1.373 . S
C959 C943 1.377 1_655 S
C959 C957 1.389 . S
C959 C960 1.524 . S
C960 C959 1.524 . S
C960 C961 1.397 . S
C960 C965 1.363 . S
C961 H932 0.950 . S
C961 C960 1.397 . S
C961 C962 1.334 . S
C962 H933 0.950 . S
C962 C961 1.334 . S
C962 C963 1.287 . S
C963 C962 1.287 . S
C963 C964 1.524 . S
C963 H966 0.999 . S
C964 H934 0.950 . S
C964 C963 1.524 . S
C964 C965 1.415 . S
C965 H935 0.950 . S
C965 C960 1.363 . S
C965 C964 1.415 . S
H966 C963 0.999 . S
H967 C948 0.913 . S
H968 C986 0.951 . S
H969 C988 0.951 . S
H970 C990 0.950 . S
H971 C991 0.950 . S
H972 C993 0.950 . S
H973 C996 0.950 . S
H974 C997 0.950 . S
H975 C999 0.950 . S
H976 C1000 0.950 . S
H977 C1001 0.951 . S
H978 C1003 0.951 . S
H979 C1005 0.950 . S
H980 C1006 0.950 . S
H981 C1008 0.950 . S
H982 C1011 0.950 . S
H983 C1012 0.950 . S
H984 C1014 0.950 . S
H985 C1015 0.950 . S
C986 H968 0.951 . S
C986 C987 1.366 . S
C986 C988 1.388 . S
C987 C986 1.366 . S
C987 C991 1.385 . S
C988 H969 0.951 . S
C988 C986 1.388 . S
C988 C989 1.366 . S
C989 C988 1.366 . S
C989 C990 1.414 . S
C989 C992 1.499 . S
C990 H970 0.950 . S
C990 C989 1.414 . S
C990 C991 1.374 . S
C991 H971 0.950 . S
C991 C987 1.385 . S
C991 C990 1.374 . S
C992 C989 1.499 . S
C992 C993 1.373 . S
C992 C994 1.389 . S
C993 H972 0.950 . S
C993 C992 1.373 . S
C993 C1009 1.377 1_545 S
C994 C992 1.389 . S
C994 C995 1.524 . S
C994 C1008 1.377 1_545 S
C995 C994 1.524 . S
C995 C996 1.397 . S
C995 C1000 1.363 . S
C996 H973 0.950 . S
C996 C995 1.397 . S
C996 C997 1.334 . S
C997 H974 0.950 . S
C997 C996 1.334 . S
C997 C998 1.287 . S
C998 C997 1.287 . S
C998 C999 1.524 . S
C998 H1017 0.913 . S
C999 H975 0.950 . S
C999 C998 1.524 . S
C999 C1000 1.415 . S
C1000 H976 0.950 . S
C1000 C995 1.363 . S
C1000 C999 1.415 . S
C1001 H977 0.951 . S
C1001 C1002 1.366 . S
C1001 C1003 1.388 . S
C1002 C1001 1.366 . S
C1002 C1006 1.385 . S
C1003 H978 0.951 . S
C1003 C1001 1.388 . S
C1003 C1004 1.366 . S
C1004 C1003 1.366 . S
C1004 C1005 1.414 . S
C1004 C1007 1.499 . S
C1005 H979 0.950 . S
C1005 C1004 1.414 . S
C1005 C1006 1.374 . S
C1006 H980 0.950 . S
C1006 C1002 1.385 . S
C1006 C1005 1.374 . S
C1007 C1004 1.499 . S
C1007 C1008 1.373 . S
C1007 C1009 1.389 . S
C1008 H981 0.950 . S
C1008 C994 1.377 1_565 S
C1008 C1007 1.373 . S
C1009 C993 1.377 1_565 S
C1009 C1007 1.389 . S
C1009 C1010 1.524 . S
C1010 C1009 1.524 . S
C1010 C1011 1.397 . S
C1010 C1015 1.363 . S
C1011 H982 0.950 . S
C1011 C1010 1.397 . S
C1011 C1012 1.334 . S
C1012 H983 0.950 . S
C1012 C1011 1.334 . S
C1012 C1013 1.287 . S
C1013 C1012 1.287 . S
C1013 C1014 1.524 . S
C1013 H1016 0.999 . S
C1014 H984 0.950 . S
C1014 C1013 1.524 . S
C1014 C1015 1.415 . S
C1015 H985 0.950 . S
C1015 C1010 1.363 . S
C1015 C1014 1.415 . S
H1016 C1013 0.999 . S
H1017 C998 0.913 . S
H1018 C1036 0.951 . S
H1019 C1038 0.951 . S
H1020 C1040 0.950 1_556 S
H1021 C1041 0.950 1_556 S
H1022 C1043 0.950 1_556 S
H1023 C1046 0.950 . S
H1024 C1047 0.950 . S
H1025 C1049 0.950 . S
H1026 C1050 0.950 . S
H1027 C1051 0.951 1_556 S
H1028 C1053 0.951 1_556 S
H1029 C1055 0.950 . S
H1030 C1056 0.950 . S
H1031 C1058 0.950 . S
H1032 C1061 0.950 . S
H1033 C1062 0.950 . S
H1034 C1064 0.950 . S
H1035 C1065 0.950 . S
C1036 H1018 0.951 . S
C1036 C1037 1.366 . S
C1036 C1038 1.388 . S
C1037 C1036 1.366 . S
C1037 C1041 1.385 . S
C1038 H1019 0.951 . S
C1038 C1036 1.388 . S
C1038 C1039 1.366 . S
C1039 C1038 1.366 . S
C1039 C1040 1.414 . S
C1039 C1042 1.499 . S
C1040 H1020 0.950 1_554 S
C1040 C1039 1.414 . S
C1040 C1041 1.374 . S
C1041 H1021 0.950 1_554 S
C1041 C1037 1.385 . S
C1041 C1040 1.374 . S
C1042 C1039 1.499 . S
C1042 C1043 1.373 . S
C1042 C1044 1.389 . S
C1043 H1022 0.950 1_554 S
C1043 C1042 1.373 . S
C1043 C1059 1.377 . S
C1044 C1042 1.389 . S
C1044 C1045 1.524 . S
C1044 C1058 1.377 . S
C1045 C1044 1.524 . S
C1045 C1046 1.397 . S
C1045 C1050 1.363 . S
C1046 H1023 0.950 . S
C1046 C1045 1.397 . S
C1046 C1047 1.334 . S
C1047 H1024 0.950 . S
C1047 C1046 1.334 . S
C1047 C1048 1.287 . S
C1048 C1047 1.287 . S
C1048 C1049 1.524 . S
C1048 H1067 0.913 . S
C1049 H1025 0.950 . S
C1049 C1048 1.524 . S
C1049 C1050 1.415 . S
C1050 H1026 0.950 . S
C1050 C1045 1.363 . S
C1050 C1049 1.415 . S
C1051 H1027 0.951 1_554 S
C1051 C1052 1.366 . S
C1051 C1053 1.388 . S
C1052 C1051 1.366 . S
C1052 C1056 1.385 . S
C1053 H1028 0.951 1_554 S
C1053 C1051 1.388 . S
C1053 C1054 1.366 . S
C1054 C1053 1.366 . S
C1054 C1055 1.414 . S
C1054 C1057 1.499 . S
C1055 H1029 0.950 . S
C1055 C1054 1.414 . S
C1055 C1056 1.374 . S
C1056 H1030 0.950 . S
C1056 C1052 1.385 . S
C1056 C1055 1.374 . S
C1057 C1054 1.499 . S
C1057 C1058 1.373 . S
C1057 C1059 1.389 . S
C1058 H1031 0.950 . S
C1058 C1044 1.377 . S
C1058 C1057 1.373 . S
C1059 C1043 1.377 . S
C1059 C1057 1.389 . S
C1059 C1060 1.524 1_554 S
C1060 C1059 1.524 1_556 S
C1060 C1061 1.397 . S
C1060 C1065 1.363 . S
C1061 H1032 0.950 . S
C1061 C1060 1.397 . S
C1061 C1062 1.334 . S
C1062 H1033 0.950 . S
C1062 C1061 1.334 . S
C1062 C1063 1.287 . S
C1063 C1062 1.287 . S
C1063 C1064 1.524 . S
C1063 H1066 0.999 . S
C1064 H1034 0.950 . S
C1064 C1063 1.524 . S
C1064 C1065 1.415 . S
C1065 H1035 0.950 . S
C1065 C1060 1.363 . S
C1065 C1064 1.415 . S
H1066 C1063 0.999 . S
H1067 C1048 0.913 . S
H1068 C1086 0.951 . S
H1069 C1088 0.951 . S
H1070 C1090 0.950 . S
H1071 C1091 0.950 . S
H1072 C1093 0.950 . S
H1073 C1096 0.950 . S
H1074 C1097 0.950 . S
H1075 C1099 0.950 . S
H1076 C1100 0.950 . S
H1077 C1101 0.951 . S
H1078 C1103 0.951 . S
H1079 C1105 0.950 . S
H1080 C1106 0.950 . S
H1081 C1108 0.950 . S
H1082 C1111 0.950 . S
H1083 C1112 0.950 . S
H1084 C1114 0.950 . S
H1085 C1115 0.950 . S
C1086 H1068 0.951 . S
C1086 C1087 1.366 . S
C1086 C1088 1.388 . S
C1087 C1086 1.366 . S
C1087 C1091 1.385 . S
C1088 H1069 0.951 . S
C1088 C1086 1.388 . S
C1088 C1089 1.366 . S
C1089 C1088 1.366 . S
C1089 C1090 1.414 . S
C1089 C1092 1.499 . S
C1090 H1070 0.950 . S
C1090 C1089 1.414 . S
C1090 C1091 1.374 . S
C1091 H1071 0.950 . S
C1091 C1087 1.385 . S
C1091 C1090 1.374 . S
C1092 C1089 1.499 . S
C1092 C1093 1.373 . S
C1092 C1094 1.389 . S
C1093 H1072 0.950 . S
C1093 C1092 1.373 . S
C1093 C1109 1.377 . S
C1094 C1092 1.389 . S
C1094 C1095 1.524 . S
C1094 C1108 1.377 . S
C1095 C1094 1.524 . S
C1095 C1096 1.397 . S
C1095 C1100 1.363 . S
C1096 H1073 0.950 . S
C1096 C1095 1.397 . S
C1096 C1097 1.334 . S
C1097 H1074 0.950 . S
C1097 C1096 1.334 . S
C1097 C1098 1.287 . S
C1098 C1097 1.287 . S
C1098 C1099 1.524 . S
C1098 H1117 0.913 . S
C1099 H1075 0.950 . S
C1099 C1098 1.524 . S
C1099 C1100 1.415 . S
C1100 H1076 0.950 . S
C1100 C1095 1.363 . S
C1100 C1099 1.415 . S
C1101 H1077 0.951 . S
C1101 C1102 1.366 . S
C1101 C1103 1.388 . S
C1102 C1101 1.366 . S
C1102 C1106 1.385 . S
C1103 H1078 0.951 . S
C1103 C1101 1.388 . S
C1103 C1104 1.366 . S
C1104 C1103 1.366 . S
C1104 C1105 1.414 . S
C1104 C1107 1.499 . S
C1105 H1079 0.950 . S
C1105 C1104 1.414 . S
C1105 C1106 1.374 . S
C1106 H1080 0.950 . S
C1106 C1102 1.385 . S
C1106 C1105 1.374 . S
C1107 C1104 1.499 . S
C1107 C1108 1.373 . S
C1107 C1109 1.389 . S
C1108 H1081 0.950 . S
C1108 C1094 1.377 . S
C1108 C1107 1.373 . S
C1109 C1093 1.377 . S
C1109 C1107 1.389 . S
C1109 C1110 1.524 . S
C1110 C1109 1.524 . S
C1110 C1111 1.397 . S
C1110 C1115 1.363 . S
C1111 H1082 0.950 . S
C1111 C1110 1.397 . S
C1111 C1112 1.334 . S
C1112 H1083 0.950 . S
C1112 C1111 1.334 . S
C1112 C1113 1.287 . S
C1113 C1112 1.287 . S
C1113 C1114 1.524 . S
C1113 H1116 0.999 . S
C1114 H1084 0.950 . S
C1114 C1113 1.524 . S
C1114 C1115 1.415 . S
C1115 H1085 0.950 . S
C1115 C1110 1.363 . S
C1115 C1114 1.415 . S
H1116 C1113 0.999 . S
H1117 C1098 0.913 . S
H1118 C1136 0.951 . S
H1119 C1138 0.951 . S
H1120 C1140 0.950 . S
H1121 C1141 0.950 . S
H1122 C1143 0.950 . S
H1123 C1146 0.950 . S
H1124 C1147 0.950 . S
H1125 C1149 0.950 . S
H1126 C1150 0.950 . S
H1127 C1151 0.951 . S
H1128 C1153 0.951 . S
H1129 C1155 0.950 . S
H1130 C1156 0.950 . S
H1131 C1158 0.950 . S
H1132 C1161 0.950 . S
H1133 C1162 0.950 . S
H1134 C1164 0.950 . S
H1135 C1165 0.950 . S
C1136 H1118 0.951 . S
C1136 C1137 1.366 . S
C1136 C1138 1.388 . S
C1137 C1136 1.366 . S
C1137 C1141 1.385 . S
C1138 H1119 0.951 . S
C1138 C1136 1.388 . S
C1138 C1139 1.366 . S
C1139 C1138 1.366 . S
C1139 C1140 1.414 . S
C1139 C1142 1.499 . S
C1140 H1120 0.950 . S
C1140 C1139 1.414 . S
C1140 C1141 1.374 . S
C1141 H1121 0.950 . S
C1141 C1137 1.385 . S
C1141 C1140 1.374 . S
C1142 C1139 1.499 . S
C1142 C1143 1.373 . S
C1142 C1144 1.389 . S
C1143 H1122 0.950 . S
C1143 C1142 1.373 . S
C1143 C1159 1.377 . S
C1144 C1142 1.389 . S
C1144 C1145 1.524 . S
C1144 C1158 1.377 . S
C1145 C1144 1.524 . S
C1145 C1146 1.397 . S
C1145 C1150 1.363 . S
C1146 H1123 0.950 . S
C1146 C1145 1.397 . S
C1146 C1147 1.334 . S
C1147 H1124 0.950 . S
C1147 C1146 1.334 . S
C1147 C1148 1.287 . S
C1148 C1147 1.287 . S
C1148 C1149 1.524 . S
C1148 H1167 0.913 . S
C1149 H1125 0.950 . S
C1149 C1148 1.524 . S
C1149 C1150 1.415 . S
C1150 H1126 0.950 . S
C1150 C1145 1.363 . S
C1150 C1149 1.415 . S
C1151 H1127 0.951 . S
C1151 C1152 1.366 . S
C1151 C1153 1.388 . S
C1152 C1151 1.366 . S
C1152 C1156 1.385 . S
C1153 H1128 0.951 . S
C1153 C1151 1.388 . S
C1153 C1154 1.366 . S
C1154 C1153 1.366 . S
C1154 C1155 1.414 . S
C1154 C1157 1.499 . S
C1155 H1129 0.950 . S
C1155 C1154 1.414 . S
C1155 C1156 1.374 . S
C1156 H1130 0.950 . S
C1156 C1152 1.385 . S
C1156 C1155 1.374 . S
C1157 C1154 1.499 . S
C1157 C1158 1.373 . S
C1157 C1159 1.389 . S
C1158 H1131 0.950 . S
C1158 C1144 1.377 . S
C1158 C1157 1.373 . S
C1159 C1143 1.377 . S
C1159 C1157 1.389 . S
C1159 C1160 1.524 . S
C1160 C1159 1.524 . S
C1160 C1161 1.397 . S
C1160 C1165 1.363 . S
C1161 H1132 0.950 . S
C1161 C1160 1.397 . S
C1161 C1162 1.334 . S
C1162 H1133 0.950 . S
C1162 C1161 1.334 . S
C1162 C1163 1.287 . S
C1163 C1162 1.287 . S
C1163 C1164 1.524 . S
C1163 H1166 0.999 . S
C1164 H1134 0.950 . S
C1164 C1163 1.524 . S
C1164 C1165 1.415 . S
C1165 H1135 0.950 . S
C1165 C1160 1.363 . S
C1165 C1164 1.415 . S
H1166 C1163 0.999 . S
H1167 C1148 0.913 . S
H1168 C1186 0.951 . S
H1169 C1188 0.951 . S
H1170 C1190 0.950 . S
H1171 C1191 0.950 . S
H1172 C1193 0.950 . S
H1173 C1196 0.950 . S
H1174 C1197 0.950 . S
H1175 C1199 0.950 . S
H1176 C1200 0.950 . S
H1177 C1201 0.951 . S
H1178 C1203 0.951 . S
H1179 C1205 0.950 . S
H1180 C1206 0.950 . S
H1181 C1208 0.950 . S
H1182 C1211 0.950 . S
H1183 C1212 0.950 . S
H1184 C1214 0.950 . S
H1185 C1215 0.950 . S
C1186 H1168 0.951 . S
C1186 C1187 1.366 . S
C1186 C1188 1.388 . S
C1187 C1186 1.366 . S
C1187 C1191 1.385 . S
C1188 H1169 0.951 . S
C1188 C1186 1.388 . S
C1188 C1189 1.366 . S
C1189 C1188 1.366 . S
C1189 C1190 1.414 . S
C1189 C1192 1.499 . S
C1190 H1170 0.950 . S
C1190 C1189 1.414 . S
C1190 C1191 1.374 . S
C1191 H1171 0.950 . S
C1191 C1187 1.385 . S
C1191 C1190 1.374 . S
C1192 C1189 1.499 . S
C1192 C1193 1.373 . S
C1192 C1194 1.389 . S
C1193 H1172 0.950 . S
C1193 C1192 1.373 . S
C1193 C1209 1.377 . S
C1194 C1192 1.389 . S
C1194 C1195 1.524 . S
C1194 C1208 1.377 . S
C1195 C1194 1.524 . S
C1195 C1196 1.397 . S
C1195 C1200 1.363 . S
C1196 H1173 0.950 . S
C1196 C1195 1.397 . S
C1196 C1197 1.334 . S
C1197 H1174 0.950 . S
C1197 C1196 1.334 . S
C1197 C1198 1.287 . S
C1198 C1197 1.287 . S
C1198 C1199 1.524 . S
C1198 H1217 0.913 . S
C1199 H1175 0.950 . S
C1199 C1198 1.524 . S
C1199 C1200 1.415 . S
C1200 H1176 0.950 . S
C1200 C1195 1.363 . S
C1200 C1199 1.415 . S
C1201 H1177 0.951 . S
C1201 C1202 1.366 . S
C1201 C1203 1.388 . S
C1202 C1201 1.366 . S
C1202 C1206 1.385 . S
C1203 H1178 0.951 . S
C1203 C1201 1.388 . S
C1203 C1204 1.366 . S
C1204 C1203 1.366 . S
C1204 C1205 1.414 . S
C1204 C1207 1.499 . S
C1205 H1179 0.950 . S
C1205 C1204 1.414 . S
C1205 C1206 1.374 . S
C1206 H1180 0.950 . S
C1206 C1202 1.385 . S
C1206 C1205 1.374 . S
C1207 C1204 1.499 . S
C1207 C1208 1.373 . S
C1207 C1209 1.389 . S
C1208 H1181 0.950 . S
C1208 C1194 1.377 . S
C1208 C1207 1.373 . S
C1209 C1193 1.377 . S
C1209 C1207 1.389 . S
C1209 C1210 1.524 . S
C1210 C1209 1.524 . S
C1210 C1211 1.397 . S
C1210 C1215 1.363 . S
C1211 H1182 0.950 . S
C1211 C1210 1.397 . S
C1211 C1212 1.334 . S
C1212 H1183 0.950 . S
C1212 C1211 1.334 . S
C1212 C1213 1.287 . S
C1213 C1212 1.287 . S
C1213 C1214 1.524 . S
C1213 H1216 0.999 . S
C1214 H1184 0.950 . S
C1214 C1213 1.524 . S
C1214 C1215 1.415 . S
C1215 H1185 0.950 . S
C1215 C1210 1.363 . S
C1215 C1214 1.415 . S
H1216 C1213 0.999 . S
H1217 C1198 0.913 . S
H1218 C1236 0.951 . S
H1219 C1238 0.951 . S
H1220 C1240 0.950 . S
H1221 C1241 0.950 . S
H1222 C1243 0.950 . S
H1223 C1246 0.950 . S
H1224 C1247 0.950 . S
H1225 C1249 0.950 . S
H1226 C1250 0.950 . S
H1227 C1251 0.951 . S
H1228 C1253 0.951 . S
H1229 C1255 0.950 . S
H1230 C1256 0.950 . S
H1231 C1258 0.950 . S
H1232 C1261 0.950 . S
H1233 C1262 0.950 . S
H1234 C1264 0.950 . S
H1235 C1265 0.950 . S
C1236 H1218 0.951 . S
C1236 C1237 1.366 . S
C1236 C1238 1.388 . S
C1237 C1236 1.366 . S
C1237 C1241 1.385 . S
C1238 H1219 0.951 . S
C1238 C1236 1.388 . S
C1238 C1239 1.366 . S
C1239 C1238 1.366 . S
C1239 C1240 1.414 . S
C1239 C1242 1.499 . S
C1240 H1220 0.950 . S
C1240 C1239 1.414 . S
C1240 C1241 1.374 . S
C1241 H1221 0.950 . S
C1241 C1237 1.385 . S
C1241 C1240 1.374 . S
C1242 C1239 1.499 . S
C1242 C1243 1.373 . S
C1242 C1244 1.389 . S
C1243 H1222 0.950 . S
C1243 C1242 1.373 . S
C1243 C1259 1.377 . S
C1244 C1242 1.389 . S
C1244 C1245 1.524 . S
C1244 C1258 1.377 . S
C1245 C1244 1.524 . S
C1245 C1246 1.397 . S
C1245 C1250 1.363 . S
C1246 H1223 0.950 . S
C1246 C1245 1.397 . S
C1246 C1247 1.334 . S
C1247 H1224 0.950 . S
C1247 C1246 1.334 . S
C1247 C1248 1.287 . S
C1248 C1247 1.287 . S
C1248 C1249 1.524 . S
C1248 H1267 0.913 . S
C1249 H1225 0.950 . S
C1249 C1248 1.524 . S
C1249 C1250 1.415 . S
C1250 H1226 0.950 . S
C1250 C1245 1.363 . S
C1250 C1249 1.415 . S
C1251 H1227 0.951 . S
C1251 C1252 1.366 . S
C1251 C1253 1.388 . S
C1252 C1251 1.366 . S
C1252 C1256 1.385 . S
C1253 H1228 0.951 . S
C1253 C1251 1.388 . S
C1253 C1254 1.366 . S
C1254 C1253 1.366 . S
C1254 C1255 1.414 . S
C1254 C1257 1.499 . S
C1255 H1229 0.950 . S
C1255 C1254 1.414 . S
C1255 C1256 1.374 . S
C1256 H1230 0.950 . S
C1256 C1252 1.385 . S
C1256 C1255 1.374 . S
C1257 C1254 1.499 . S
C1257 C1258 1.373 . S
C1257 C1259 1.389 . S
C1258 H1231 0.950 . S
C1258 C1244 1.377 . S
C1258 C1257 1.373 . S
C1259 C1243 1.377 . S
C1259 C1257 1.389 . S
C1259 C1260 1.524 . S
C1260 C1259 1.524 . S
C1260 C1261 1.397 . S
C1260 C1265 1.363 . S
C1261 H1232 0.950 . S
C1261 C1260 1.397 . S
C1261 C1262 1.334 . S
C1262 H1233 0.950 . S
C1262 C1261 1.334 . S
C1262 C1263 1.287 . S
C1263 C1262 1.287 . S
C1263 C1264 1.524 . S
C1263 H1266 0.999 . S
C1264 H1234 0.950 . S
C1264 C1263 1.524 . S
C1264 C1265 1.415 . S
C1265 H1235 0.950 . S
C1265 C1260 1.363 . S
C1265 C1264 1.415 . S
H1266 C1263 0.999 . S
H1267 C1248 0.913 . S
H1268 C1286 0.951 . S
H1269 C1288 0.951 . S
H1270 C1290 0.950 . S
H1271 C1291 0.950 . S
H1272 C1293 0.950 . S
H1273 C1296 0.950 . S
H1274 C1297 0.950 . S
H1275 C1299 0.950 . S
H1276 C1300 0.950 . S
H1277 C1301 0.951 . S
H1278 C1303 0.951 . S
H1279 C1305 0.950 . S
H1280 C1306 0.950 . S
H1281 C1308 0.950 . S
H1282 C1311 0.950 . S
H1283 C1312 0.950 . S
H1284 C1314 0.950 . S
H1285 C1315 0.950 . S
C1286 H1268 0.951 . S
C1286 C1287 1.366 . S
C1286 C1288 1.388 . S
C1287 C1286 1.366 . S
C1287 C1291 1.385 . S
C1288 H1269 0.951 . S
C1288 C1286 1.388 . S
C1288 C1289 1.366 . S
C1289 C1288 1.366 . S
C1289 C1290 1.414 . S
C1289 C1292 1.499 . S
C1290 H1270 0.950 . S
C1290 C1289 1.414 . S
C1290 C1291 1.374 . S
C1291 H1271 0.950 . S
C1291 C1287 1.385 . S
C1291 C1290 1.374 . S
C1292 C1289 1.499 . S
C1292 C1293 1.373 . S
C1292 C1294 1.389 . S
C1293 H1272 0.950 . S
C1293 C1292 1.373 . S
C1293 C1309 1.377 . S
C1294 C1292 1.389 . S
C1294 C1295 1.524 . S
C1294 C1308 1.377 . S
C1295 C1294 1.524 . S
C1295 C1296 1.397 . S
C1295 C1300 1.363 . S
C1296 H1273 0.950 . S
C1296 C1295 1.397 . S
C1296 C1297 1.334 . S
C1297 H1274 0.950 . S
C1297 C1296 1.334 . S
C1297 C1298 1.287 . S
C1298 C1297 1.287 . S
C1298 C1299 1.524 . S
C1298 H1317 0.913 . S
C1299 H1275 0.950 . S
C1299 C1298 1.524 . S
C1299 C1300 1.415 . S
C1300 H1276 0.950 . S
C1300 C1295 1.363 . S
C1300 C1299 1.415 . S
C1301 H1277 0.951 . S
C1301 C1302 1.366 . S
C1301 C1303 1.388 . S
C1302 C1301 1.366 . S
C1302 C1306 1.385 . S
C1303 H1278 0.951 . S
C1303 C1301 1.388 . S
C1303 C1304 1.366 . S
C1304 C1303 1.366 . S
C1304 C1305 1.414 . S
C1304 C1307 1.499 . S
C1305 H1279 0.950 . S
C1305 C1304 1.414 . S
C1305 C1306 1.374 . S
C1306 H1280 0.950 . S
C1306 C1302 1.385 . S
C1306 C1305 1.374 . S
C1307 C1304 1.499 . S
C1307 C1308 1.373 . S
C1307 C1309 1.389 . S
C1308 H1281 0.950 . S
C1308 C1294 1.377 . S
C1308 C1307 1.373 . S
C1309 C1293 1.377 . S
C1309 C1307 1.389 . S
C1309 C1310 1.524 . S
C1310 C1309 1.524 . S
C1310 C1311 1.397 . S
C1310 C1315 1.363 . S
C1311 H1282 0.950 . S
C1311 C1310 1.397 . S
C1311 C1312 1.334 . S
C1312 H1283 0.950 . S
C1312 C1311 1.334 . S
C1312 C1313 1.287 . S
C1313 C1312 1.287 . S
C1313 C1314 1.524 . S
C1313 H1316 0.999 . S
C1314 H1284 0.950 . S
C1314 C1313 1.524 . S
C1314 C1315 1.415 . S
C1315 H1285 0.950 . S
C1315 C1310 1.363 . S
C1315 C1314 1.415 . S
H1316 C1313 0.999 . S
H1317 C1298 0.913 . S
H1318 C1336 0.951 . S
H1319 C1338 0.951 . S
H1320 C1340 0.950 . S
H1321 C1341 0.950 . S
H1322 C1343 0.950 . S
H1323 C1346 0.950 . S
H1324 C1347 0.950 . S
H1325 C1349 0.950 . S
H1326 C1350 0.950 . S
H1327 C1351 0.951 . S
H1328 C1353 0.951 . S
H1329 C1355 0.950 . S
H1330 C1356 0.950 . S
H1331 C1358 0.950 . S
H1332 C1361 0.950 . S
H1333 C1362 0.950 . S
H1334 C1364 0.950 . S
H1335 C1365 0.950 . S
C1336 H1318 0.951 . S
C1336 C1337 1.366 . S
C1336 C1338 1.388 . S
C1337 C1336 1.366 . S
C1337 C1341 1.385 . S
C1338 H1319 0.951 . S
C1338 C1336 1.388 . S
C1338 C1339 1.366 . S
C1339 C1338 1.366 . S
C1339 C1340 1.414 . S
C1339 C1342 1.499 . S
C1340 H1320 0.950 . S
C1340 C1339 1.414 . S
C1340 C1341 1.374 . S
C1341 H1321 0.950 . S
C1341 C1337 1.385 . S
C1341 C1340 1.374 . S
C1342 C1339 1.499 . S
C1342 C1343 1.373 . S
C1342 C1344 1.389 . S
C1343 H1322 0.950 . S
C1343 C1342 1.373 . S
C1343 C1359 1.377 . S
C1344 C1342 1.389 . S
C1344 C1345 1.524 . S
C1344 C1358 1.377 . S
C1345 C1344 1.524 . S
C1345 C1346 1.397 . S
C1345 C1350 1.363 . S
C1346 H1323 0.950 . S
C1346 C1345 1.397 . S
C1346 C1347 1.334 . S
C1347 H1324 0.950 . S
C1347 C1346 1.334 . S
C1347 C1348 1.287 . S
C1348 C1347 1.287 . S
C1348 C1349 1.524 . S
C1348 H1367 0.913 . S
C1349 H1325 0.950 . S
C1349 C1348 1.524 . S
C1349 C1350 1.415 . S
C1350 H1326 0.950 . S
C1350 C1345 1.363 . S
C1350 C1349 1.415 . S
C1351 H1327 0.951 . S
C1351 C1352 1.366 . S
C1351 C1353 1.388 . S
C1352 C1351 1.366 . S
C1352 C1356 1.385 . S
C1353 H1328 0.951 . S
C1353 C1351 1.388 . S
C1353 C1354 1.366 . S
C1354 C1353 1.366 . S
C1354 C1355 1.414 . S
C1354 C1357 1.499 . S
C1355 H1329 0.950 . S
C1355 C1354 1.414 . S
C1355 C1356 1.374 . S
C1356 H1330 0.950 . S
C1356 C1352 1.385 . S
C1356 C1355 1.374 . S
C1357 C1354 1.499 . S
C1357 C1358 1.373 . S
C1357 C1359 1.389 . S
C1358 H1331 0.950 . S
C1358 C1344 1.377 . S
C1358 C1357 1.373 . S
C1359 C1343 1.377 . S
C1359 C1357 1.389 . S
C1359 C1360 1.524 . S
C1360 C1359 1.524 . S
C1360 C1361 1.397 . S
C1360 C1365 1.363 . S
C1361 H1332 0.950 . S
C1361 C1360 1.397 . S
C1361 C1362 1.334 . S
C1362 H1333 0.950 . S
C1362 C1361 1.334 . S
C1362 C1363 1.287 . S
C1363 C1362 1.287 . S
C1363 C1364 1.524 . S
C1363 H1366 0.999 . S
C1364 H1334 0.950 . S
C1364 C1363 1.524 . S
C1364 C1365 1.415 . S
C1365 H1335 0.950 . S
C1365 C1360 1.363 . S
C1365 C1364 1.415 . S
H1366 C1363 0.999 . S
H1367 C1348 0.913 . S
C187 C8 1.588 . S
C202 C148 1.587 . S
C237 C22 1.587 . S
C252 C162 1.587 . S
C287 C92 1.588 . S
C302 C36 1.588 . S
C337 C50 1.588 . S
C352 C106 1.588 . S
C387 C120 1.587 . S
C402 C64 1.587 . S
C437 C134 1.589 . S
C452 C78 1.589 . S
C487 C93 0.643 . S
C502 C9 0.645 . S
C537 C107 0.645 . S
C552 C23 0.644 . S
C587 C121 0.645 . S
C602 C37 0.641 1_554 S
C637 C51 0.643 . S
C652 C135 0.645 . S
C687 C65 0.645 . S
C702 C149 0.643 . S
C737 C79 0.642 1_554 S
C752 C163 0.644 . S
C787 C6 1.382 . S
C802 C48 1.382 . S
C837 C20 1.382 . S
C852 C62 1.383 . S
C887 C34 1.383 . S
C902 C76 1.383 . S
C937 C132 1.382 . S
C952 C90 1.383 . S
C987 C146 1.383 . S
C1002 C104 1.384 . S
C1037 C160 1.382 . S
C1052 C118 1.382 . S
C1087 C7 1.282 . S
C1102 C119 1.282 . S
C1137 C133 1.282 . S
C1152 C21 1.281 . S
C1187 C35 1.283 . S
C1202 C147 1.282 . S
C1237 C161 1.282 . S
C1252 C49 1.282 . S
C1287 C63 1.282 . S
C1302 C91 1.281 . S
C1337 C77 1.283 . S
C1352 C105 1.282 . S
