# Generated by pormake.
# Topology ukm, (4)-cn, num edge types: 1
# Building blocks:
#     Node 0, Type 0, BuildingBlock: QUQFOY_clean_sbu_3, # of connection points: 4
#     Node 1, Type 0, BuildingBlock: QUQFOY_clean_sbu_3, # of connection points: 4
#     Node 2, Type 0, BuildingBlock: QUQFOY_clean_sbu_3, # of connection points: 4
#     Node 3, Type 0, BuildingBlock: QUQFOY_clean_sbu_3, # of connection points: 4
#     Node 4, Type 0, BuildingBlock: QUQFOY_clean_sbu_3, # of connection points: 4
#     Node 5, Type 0, BuildingBlock: QUQFOY_clean_sbu_3, # of connection points: 4
#     Node 6, Type 0, BuildingBlock: QUQFOY_clean_sbu_3, # of connection points: 4
#     Node 7, Type 0, BuildingBlock: QUQFOY_clean_sbu_3, # of connection points: 4
#     Node 8, Type 0, BuildingBlock: QUQFOY_clean_sbu_3, # of connection points: 4
#     Node 9, Type 0, BuildingBlock: QUQFOY_clean_sbu_3, # of connection points: 4
#     Node 10, Type 0, BuildingBlock: QUQFOY_clean_sbu_3, # of connection points: 4
#     Node 11, Type 0, BuildingBlock: QUQFOY_clean_sbu_3, # of connection points: 4
#     Node 12, Type 0, BuildingBlock: QUQFOY_clean_sbu_3, # of connection points: 4
#     Node 13, Type 0, BuildingBlock: QUQFOY_clean_sbu_3, # of connection points: 4
#     Node 14, Type 0, BuildingBlock: QUQFOY_clean_sbu_3, # of connection points: 4
#     Node 15, Type 0, BuildingBlock: QUQFOY_clean_sbu_3, # of connection points: 4
#     Node 16, Type 0, BuildingBlock: QUQFOY_clean_sbu_3, # of connection points: 4
#     Node 17, Type 0, BuildingBlock: QUQFOY_clean_sbu_3, # of connection points: 4
#     Node 18, Type 0, BuildingBlock: QUQFOY_clean_sbu_3, # of connection points: 4
#     Node 19, Type 0, BuildingBlock: QUQFOY_clean_sbu_3, # of connection points: 4
#     Node 20, Type 0, BuildingBlock: QUQFOY_clean_sbu_3, # of connection points: 4
#     Node 21, Type 0, BuildingBlock: QUQFOY_clean_sbu_3, # of connection points: 4
#     Node 22, Type 0, BuildingBlock: QUQFOY_clean_sbu_3, # of connection points: 4
#     Node 23, Type 0, BuildingBlock: QUQFOY_clean_sbu_3, # of connection points: 4
#     Node 24, Type 0, BuildingBlock: QUQFOY_clean_sbu_3, # of connection points: 4
#     Node 25, Type 0, BuildingBlock: QUQFOY_clean_sbu_3, # of connection points: 4
#     Node 26, Type 0, BuildingBlock: QUQFOY_clean_sbu_3, # of connection points: 4
#     Node 27, Type 0, BuildingBlock: QUQFOY_clean_sbu_3, # of connection points: 4
#     Node 28, Type 0, BuildingBlock: QUQFOY_clean_sbu_3, # of connection points: 4
#     Node 29, Type 0, BuildingBlock: QUQFOY_clean_sbu_3, # of connection points: 4
#     Node 30, Type 0, BuildingBlock: QUQFOY_clean_sbu_3, # of connection points: 4
#     Node 31, Type 0, BuildingBlock: QUQFOY_clean_sbu_3, # of connection points: 4
#     Edge 32, Type (0, 0), BuildingBlock: AJUNOK_clean_linker_0, # of connection points: 2
#     Edge 33, Type (0, 0), BuildingBlock: AJUNOK_clean_linker_0, # of connection points: 2
#     Edge 34, Type (0, 0), BuildingBlock: AJUNOK_clean_linker_0, # of connection points: 2
#     Edge 35, Type (0, 0), BuildingBlock: AJUNOK_clean_linker_0, # of connection points: 2
#     Edge 36, Type (0, 0), BuildingBlock: AJUNOK_clean_linker_0, # of connection points: 2
#     Edge 37, Type (0, 0), BuildingBlock: AJUNOK_clean_linker_0, # of connection points: 2
#     Edge 38, Type (0, 0), BuildingBlock: AJUNOK_clean_linker_0, # of connection points: 2
#     Edge 39, Type (0, 0), BuildingBlock: AJUNOK_clean_linker_0, # of connection points: 2
#     Edge 40, Type (0, 0), BuildingBlock: AJUNOK_clean_linker_0, # of connection points: 2
#     Edge 41, Type (0, 0), BuildingBlock: AJUNOK_clean_linker_0, # of connection points: 2
#     Edge 42, Type (0, 0), BuildingBlock: AJUNOK_clean_linker_0, # of connection points: 2
#     Edge 43, Type (0, 0), BuildingBlock: AJUNOK_clean_linker_0, # of connection points: 2
#     Edge 44, Type (0, 0), BuildingBlock: AJUNOK_clean_linker_0, # of connection points: 2
#     Edge 45, Type (0, 0), BuildingBlock: AJUNOK_clean_linker_0, # of connection points: 2
#     Edge 46, Type (0, 0), BuildingBlock: AJUNOK_clean_linker_0, # of connection points: 2
#     Edge 47, Type (0, 0), BuildingBlock: AJUNOK_clean_linker_0, # of connection points: 2
#     Edge 48, Type (0, 0), BuildingBlock: AJUNOK_clean_linker_0, # of connection points: 2
#     Edge 49, Type (0, 0), BuildingBlock: AJUNOK_clean_linker_0, # of connection points: 2
#     Edge 50, Type (0, 0), BuildingBlock: AJUNOK_clean_linker_0, # of connection points: 2
#     Edge 51, Type (0, 0), BuildingBlock: AJUNOK_clean_linker_0, # of connection points: 2
#     Edge 52, Type (0, 0), BuildingBlock: AJUNOK_clean_linker_0, # of connection points: 2
#     Edge 53, Type (0, 0), BuildingBlock: AJUNOK_clean_linker_0, # of connection points: 2
#     Edge 54, Type (0, 0), BuildingBlock: AJUNOK_clean_linker_0, # of connection points: 2
#     Edge 55, Type (0, 0), BuildingBlock: AJUNOK_clean_linker_0, # of connection points: 2
#     Edge 56, Type (0, 0), BuildingBlock: AJUNOK_clean_linker_0, # of connection points: 2
#     Edge 57, Type (0, 0), BuildingBlock: AJUNOK_clean_linker_0, # of connection points: 2
#     Edge 58, Type (0, 0), BuildingBlock: AJUNOK_clean_linker_0, # of connection points: 2
#     Edge 59, Type (0, 0), BuildingBlock: AJUNOK_clean_linker_0, # of connection points: 2
#     Edge 60, Type (0, 0), BuildingBlock: AJUNOK_clean_linker_0, # of connection points: 2
#     Edge 61, Type (0, 0), BuildingBlock: AJUNOK_clean_linker_0, # of connection points: 2
#     Edge 62, Type (0, 0), BuildingBlock: AJUNOK_clean_linker_0, # of connection points: 2
#     Edge 63, Type (0, 0), BuildingBlock: AJUNOK_clean_linker_0, # of connection points: 2
#     Edge 64, Type (0, 0), BuildingBlock: AJUNOK_clean_linker_0, # of connection points: 2
#     Edge 65, Type (0, 0), BuildingBlock: AJUNOK_clean_linker_0, # of connection points: 2
#     Edge 66, Type (0, 0), BuildingBlock: AJUNOK_clean_linker_0, # of connection points: 2
#     Edge 67, Type (0, 0), BuildingBlock: AJUNOK_clean_linker_0, # of connection points: 2
#     Edge 68, Type (0, 0), BuildingBlock: AJUNOK_clean_linker_0, # of connection points: 2
#     Edge 69, Type (0, 0), BuildingBlock: AJUNOK_clean_linker_0, # of connection points: 2
#     Edge 70, Type (0, 0), BuildingBlock: AJUNOK_clean_linker_0, # of connection points: 2
#     Edge 71, Type (0, 0), BuildingBlock: AJUNOK_clean_linker_0, # of connection points: 2
#     Edge 72, Type (0, 0), BuildingBlock: AJUNOK_clean_linker_0, # of connection points: 2
#     Edge 73, Type (0, 0), BuildingBlock: AJUNOK_clean_linker_0, # of connection points: 2
#     Edge 74, Type (0, 0), BuildingBlock: AJUNOK_clean_linker_0, # of connection points: 2
#     Edge 75, Type (0, 0), BuildingBlock: AJUNOK_clean_linker_0, # of connection points: 2
#     Edge 76, Type (0, 0), BuildingBlock: AJUNOK_clean_linker_0, # of connection points: 2
#     Edge 77, Type (0, 0), BuildingBlock: AJUNOK_clean_linker_0, # of connection points: 2
#     Edge 78, Type (0, 0), BuildingBlock: AJUNOK_clean_linker_0, # of connection points: 2
#     Edge 79, Type (0, 0), BuildingBlock: AJUNOK_clean_linker_0, # of connection points: 2
#     Edge 80, Type (0, 0), BuildingBlock: AJUNOK_clean_linker_0, # of connection points: 2
#     Edge 81, Type (0, 0), BuildingBlock: AJUNOK_clean_linker_0, # of connection points: 2
#     Edge 82, Type (0, 0), BuildingBlock: AJUNOK_clean_linker_0, # of connection points: 2
#     Edge 83, Type (0, 0), BuildingBlock: AJUNOK_clean_linker_0, # of connection points: 2
#     Edge 84, Type (0, 0), BuildingBlock: AJUNOK_clean_linker_0, # of connection points: 2
#     Edge 85, Type (0, 0), BuildingBlock: AJUNOK_clean_linker_0, # of connection points: 2
#     Edge 86, Type (0, 0), BuildingBlock: AJUNOK_clean_linker_0, # of connection points: 2
#     Edge 87, Type (0, 0), BuildingBlock: AJUNOK_clean_linker_0, # of connection points: 2
#     Edge 88, Type (0, 0), BuildingBlock: AJUNOK_clean_linker_0, # of connection points: 2
#     Edge 89, Type (0, 0), BuildingBlock: AJUNOK_clean_linker_0, # of connection points: 2
#     Edge 90, Type (0, 0), BuildingBlock: AJUNOK_clean_linker_0, # of connection points: 2
#     Edge 91, Type (0, 0), BuildingBlock: AJUNOK_clean_linker_0, # of connection points: 2
#     Edge 92, Type (0, 0), BuildingBlock: AJUNOK_clean_linker_0, # of connection points: 2
#     Edge 93, Type (0, 0), BuildingBlock: AJUNOK_clean_linker_0, # of connection points: 2
#     Edge 94, Type (0, 0), BuildingBlock: AJUNOK_clean_linker_0, # of connection points: 2
#     Edge 95, Type (0, 0), BuildingBlock: AJUNOK_clean_linker_0, # of connection points: 2
# Relax obj value: 0.277
# Max RMSD: 0.198
# Mean RMSD: 0.198
data_MOF--net-ukm--node1-QUQFOY_clean_sbu_3--edge1-AJUNOK_clean_linker_0
_symmetry_space_group_name_H-M    P1
_symmetry_Int_Tables_number       1
_symmetry_cell_setting            triclinic
loop_
_symmetry_equiv_pos_as_xyz
'x, y, z'
_cell_length_a     19.310473
_cell_length_b     77.672115
_cell_length_c     31.891992
_cell_angle_alpha  90.06603
_cell_angle_beta   90.040494
_cell_angle_gamma 90.081828
loop_
_atom_site_label
_atom_site_type_symbol
_atom_site_fract_x
_atom_site_fract_y
_atom_site_fract_z
_atom_type_partial_charge
C0 C 0.02675 0.26647 0.24681 0.0
O1 O 0.96929 0.27435 0.24591 0.0
Cd2 Cd 0.96541 0.30484 0.25689 0.0
O3 O 0.08179 0.2745 0.25663 0.0
Cd4 Cd 0.11669 0.30359 0.27698 0.0
C5 C 0.07896 0.31641 0.1804 0.0
O6 O 0.02165 0.31334 0.32149 0.0
O7 O 0.08094 0.33291 0.28913 0.0
O8 O 0.19485 0.29418 0.33285 0.0
C9 C 0.03789 0.32907 0.31762 0.0
O10 O 0.01606 0.31664 0.19238 0.0
C11 C 0.24891 0.30069 0.3166 0.0
O12 O 0.12617 0.31112 0.20482 0.0
O13 O 0.24113 0.30861 0.28216 0.0
C14 C 0.29159 0.93579 0.25193 0.0
O15 O 0.34236 0.92707 0.23835 0.0
Cd16 Cd 0.32724 0.89628 0.23111 0.0
O17 O 0.23611 0.92822 0.26244 0.0
Cd18 Cd 0.1841 0.89993 0.26817 0.0
C19 C 0.19109 0.894 0.16408 0.0
O20 O 0.28282 0.8839 0.296 0.0
O21 O 0.19626 0.86894 0.27266 0.0
O22 O 0.12853 0.90946 0.33308 0.0
C23 C 0.2531 0.86937 0.29258 0.0
O24 O 0.25588 0.89153 0.16818 0.0
C25 C 0.06724 0.90811 0.31902 0.0
O26 O 0.15462 0.8981 0.19558 0.0
O27 O 0.06054 0.90214 0.28217 0.0
C28 C 0.98038 0.95134 0.93329 0.0
O29 O 0.93259 0.94139 0.94659 0.0
Cd30 Cd 0.91264 0.9104 0.94643 0.0
O31 O 0.03454 0.94543 0.91543 0.0
Cd32 Cd 0.08396 0.91718 0.90046 0.0
C33 C 0.05384 0.90104 0.00371 0.0
O34 O 0.98015 0.90265 0.88947 0.0
O35 O 0.05603 0.89511 0.84493 0.0
O36 O 0.18423 0.92634 0.85853 0.0
C37 C 0.99726 0.89227 0.8612 0.0
O38 O 0.98787 0.9011 0.00243 0.0
C39 C 0.22805 0.9188 0.88219 0.0
O40 O 0.08992 0.90616 0.97266 0.0
O41 O 0.20419 0.91051 0.91337 0.0
C42 C 0.22331 0.25771 0.94415 0.0
O43 O 0.27076 0.26907 0.94253 0.0
Cd44 Cd 0.25525 0.29935 0.92724 0.0
O45 O 0.16037 0.26162 0.93699 0.0
Cd46 Cd 0.0901 0.2868 0.92038 0.0
C47 C 0.14669 0.30936 0.00697 0.0
O48 O 0.17082 0.30044 0.87232 0.0
O49 O 0.07378 0.31336 0.88239 0.0
O50 O 0.99841 0.27145 0.88299 0.0
C51 C 0.13308 0.31348 0.86557 0.0
O52 O 0.20667 0.31157 -0.00869 0.0
C53 C 0.95108 0.27624 0.90822 0.0
O54 O 0.101 0.30058 0.98774 0.0
O55 O 0.96994 0.28512 0.93968 0.0
C56 C 0.93987 0.69277 0.72717 0.0
O57 O 0.98893 0.68341 0.74057 0.0
Cd58 Cd 0.97721 0.65376 0.75661 0.0
O59 O 0.88142 0.6861 0.71815 0.0
Cd60 Cd 0.83072 0.65687 0.71928 0.0
C61 C 0.8414 0.65805 0.8238 0.0
O62 O 0.9294 0.63995 0.69588 0.0
O63 O 0.84863 0.62605 0.72784 0.0
O64 O 0.76378 0.65934 0.65359 0.0
C65 C 0.90224 0.62559 0.70497 0.0
O66 O 0.90536 0.65448 0.81981 0.0
C67 C 0.70597 0.6563 0.6712 0.0
O68 O 0.8033 0.66013 0.79186 0.0
O69 O 0.70706 0.65396 0.71051 0.0
C70 C 0.80014 0.01964 0.76961 0.0
O71 O 0.74413 0.0281 0.76694 0.0
Cd72 Cd 0.73332 0.05686 0.74188 0.0
O73 O 0.85702 0.02622 0.75709 0.0
Cd74 Cd 0.89309 0.05448 0.7269 0.0
C75 C 0.83713 0.07656 0.81247 0.0
O76 O 0.79802 0.05868 0.67741 0.0
O77 O 0.8571 0.08136 0.69383 0.0
O78 O 0.98337 0.04476 0.6771 0.0
C79 C 0.81201 0.07433 0.67049 0.0
O80 O 0.77486 0.07455 0.80037 0.0
C81 C 0.03368 0.05116 0.69758 0.0
O82 O 0.88695 0.06985 0.79225 0.0
O83 O 0.01868 0.05891 0.7314 0.0
C84 C 0.99894 0.02044 0.00097 0.0
O85 O 0.05245 0.02932 -0.00803 0.0
Cd86 Cd 0.08792 0.05774 0.01358 0.0
O87 O 0.95306 0.02606 0.02631 0.0
Cd88 Cd 0.92632 0.05227 0.06672 0.0
C89 C 0.94029 0.07655 0.97473 0.0
O90 O 0.04475 0.05809 0.0819 0.0
O91 O 0.97473 0.07302 0.11823 0.0
O92 O 0.85221 0.03823 0.11941 0.0
C93 C 0.03643 0.07081 0.10591 0.0
O94 O 0.00552 0.07425 0.97286 0.0
C95 C 0.79898 0.04708 0.10972 0.0
O96 O 0.90418 0.06983 0.00396 0.0
O97 O 0.8057 0.058 0.08035 0.0
C98 C 0.59881 0.69894 0.07151 0.0
O99 O 0.54959 0.68903 0.06116 0.0
Cd100 Cd 0.59727 0.65987 0.06181 0.0
O101 O 0.63499 0.69414 0.10246 0.0
Cd102 Cd 0.74348 0.68098 0.08727 0.0
C103 C 0.7158 0.67011 0.98606 0.0
O104 O 0.68985 0.65428 0.11194 0.0
O105 O 0.78844 0.65266 0.07986 0.0
O106 O 0.82259 0.68911 0.14394 0.0
C107 C 0.73895 0.64501 0.09799 0.0
O108 O 0.6649 0.66057 -0.00324 0.0
C109 C 0.86501 0.69689 0.11998 0.0
O110 O 0.74464 0.68033 0.01196 0.0
O111 O 0.84738 0.69839 0.08183 0.0
C112 C 0.9697 0.76616 0.75535 0.0
O113 O 0.92659 0.77725 0.74161 0.0
Cd114 Cd 0.91862 0.80859 0.74783 0.0
O115 O 0.02204 0.7706 0.77732 0.0
Cd116 Cd 0.07689 0.79695 0.80173 0.0
C117 C 0.07135 0.81655 0.70113 0.0
O118 O 0.97714 0.81342 0.8105 0.0
O119 O 0.04617 0.81639 0.86196 0.0
O120 O 0.16491 0.78369 0.84651 0.0
C121 C 0.99184 0.82149 0.84346 0.0
O122 O 0.00575 0.81803 0.69898 0.0
C123 C 0.21488 0.79156 0.82866 0.0
O124 O 0.10026 0.80967 0.73289 0.0
O125 O 0.19977 0.80192 0.79922 0.0
C126 C 0.38879 0.43171 0.8164 0.0
O127 O 0.43426 0.42096 0.80503 0.0
Cd128 Cd 0.36725 0.39453 0.79287 0.0
O129 O 0.34823 0.42662 0.84496 0.0
Cd130 Cd 0.23395 0.4187 0.82355 0.0
C131 C 0.26218 0.41351 0.71966 0.0
O132 O 0.27034 0.38947 0.84085 0.0
O133 O 0.17169 0.39273 0.80962 0.0
O134 O 0.16413 0.42711 0.88379 0.0
C135 C 0.21539 0.3827 0.82626 0.0
O136 O 0.30707 0.40189 0.72749 0.0
C137 C 0.12264 0.4364 0.8627 0.0
O138 O 0.23586 0.42251 0.74885 0.0
O139 O 0.13711 0.43859 0.82427 0.0
C140 C 0.06125 0.45121 0.45357 0.0
O141 O 0.00681 0.4433 0.46464 0.0
Cd142 Cd 0.00831 0.41398 0.4831 0.0
O143 O 0.11817 0.4432 0.44869 0.0
Cd144 Cd 0.15376 0.41243 0.44958 0.0
C145 C 0.14378 0.41379 0.5528 0.0
O146 O 0.04814 0.40009 0.4204 0.0
O147 O 0.11392 0.38249 0.45375 0.0
O148 O 0.22867 0.41981 0.38999 0.0
C149 C 0.06394 0.38468 0.42857 0.0
O150 O 0.07853 0.41282 0.54753 0.0
C151 C 0.27672 0.4096 0.40081 0.0
O152 O 0.18426 0.41429 0.52164 0.0
O153 O 0.26733 0.4008 0.43373 0.0
C154 C 0.24688 0.75334 0.48925 0.0
O155 O 0.3053 0.76072 0.49244 0.0
Cd156 Cd 0.31819 0.79094 0.47736 0.0
O157 O 0.19512 0.76171 0.47561 0.0
Cd158 Cd 0.17235 0.79111 0.45138 0.0
C159 C 0.205 0.8087 0.54484 0.0
O160 O 0.27314 0.7992 0.40881 0.0
O161 O 0.21234 0.81979 0.43593 0.0
O162 O 0.09745 0.78332 0.39221 0.0
C163 C 0.25733 0.81506 0.40946 0.0
O164 O 0.26917 0.80679 0.53716 0.0
C165 C 0.04277 0.78954 0.40826 0.0
O166 O 0.15953 0.80294 0.51976 0.0
O167 O 0.04858 0.7963 0.44431 0.0
C168 C 0.03963 0.19596 0.18603 0.0
O169 O 0.08525 0.18579 0.20087 0.0
Cd170 Cd 0.11187 0.1554 0.19553 0.0
O171 O 0.9914 0.19058 0.16184 0.0
Cd172 Cd 0.95285 0.16236 0.13545 0.0
C173 C 0.95916 0.14239 0.23619 0.0
O174 O 0.06186 0.14933 0.1313 0.0
O175 O 0.99936 0.1423 0.07951 0.0
O176 O 0.86455 0.17146 0.08407 0.0
C177 C 0.05408 0.13951 0.10041 0.0
O178 O 0.02479 0.14299 0.2403 0.0
C179 C 0.81585 0.16318 0.10211 0.0
O180 O 0.92939 0.1485 0.20374 0.0
O181 O 0.83149 0.15476 0.13494 0.0
C182 C 0.75902 0.51846 0.22684 0.0
O183 O 0.70423 0.52752 0.22759 0.0
Cd184 Cd 0.70323 0.55797 0.20878 0.0
O185 O 0.81542 0.52465 0.21305 0.0
Cd186 Cd 0.86487 0.55071 0.18461 0.0
C187 C 0.82991 0.57203 0.27538 0.0
O188 O 0.76635 0.56187 0.14467 0.0
O189 O 0.85796 0.57786 0.1513 0.0
O190 O 0.93776 0.53608 0.13348 0.0
C191 C 0.79754 0.5759 0.13669 0.0
O192 O 0.76586 0.57216 0.2658 0.0
C193 C 0.9941 0.54121 0.15001 0.0
O194 O 0.87378 0.56445 0.25209 0.0
O195 O 0.98937 0.55023 0.1831 0.0
C196 C 0.02511 0.52289 0.48423 0.0
O197 O 0.07269 0.53396 0.48977 0.0
Cd198 Cd 0.04319 0.56244 0.51448 0.0
O199 O 0.96315 0.52612 0.495 0.0
Cd200 Cd 0.89286 0.54865 0.52583 0.0
C201 C 0.92303 0.57417 0.44244 0.0
O202 O 0.97446 0.55997 0.57814 0.0
O203 O 0.88189 0.57475 0.56378 0.0
O204 O 0.82047 0.53007 0.56972 0.0
C205 C 0.93419 0.57235 0.58697 0.0
O206 O 0.98511 0.57635 0.45483 0.0
C207 C 0.76476 0.53344 0.55014 0.0
O208 O 0.88212 0.56433 0.46223 0.0
O209 O 0.76946 0.54343 0.51886 0.0
C210 C 0.73069 0.18077 0.46841 0.0
O211 O 0.67615 0.17225 0.46045 0.0
Cd212 Cd 0.68607 0.14121 0.46201 0.0
O213 O 0.78533 0.17295 0.47935 0.0
Cd214 Cd 0.83238 0.1447 0.49312 0.0
C215 C 0.81437 0.13425 0.39153 0.0
O216 O 0.73437 0.13154 0.52911 0.0
O217 O 0.81426 0.11446 0.506 0.0
O218 O 0.89483 0.1549 0.55546 0.0
C219 C 0.76264 0.11678 0.52995 0.0
O220 O 0.7493 0.13346 0.39752 0.0
C221 C 0.95465 0.1533 0.53949 0.0
O222 O 0.85475 0.1385 0.42118 0.0
O223 O 0.95772 0.14707 0.50274 0.0
C224 C 0.39968 0.27556 0.80381 0.0
O225 O 0.36797 0.28869 0.79007 0.0
Cd226 Cd 0.42139 0.31717 0.78746 0.0
O227 O 0.461 0.27707 0.81766 0.0
Cd228 Cd 0.54976 0.29911 0.81973 0.0
C229 C 0.54002 0.30623 0.71618 0.0
O230 O 0.49951 0.32693 0.84302 0.0
O231 O 0.59385 0.3271 0.80652 0.0
O232 O 0.62087 0.2897 0.87984 0.0
C233 C 0.55027 0.33545 0.82804 0.0
O234 O 0.48809 0.31596 0.72255 0.0
C235 C 0.66896 0.28393 0.85641 0.0
O236 O 0.56593 0.29742 0.74572 0.0
O237 O 0.66013 0.28526 0.81721 0.0
C238 C 0.78073 0.94766 0.81654 0.0
O239 O 0.83315 0.93798 0.81227 0.0
Cd240 Cd 0.82533 0.90723 0.80269 0.0
O241 O 0.72031 0.94115 0.81876 0.0
Cd242 Cd 0.66421 0.91278 0.8169 0.0
C243 C 0.7177 0.90682 0.71815 0.0
O244 O 0.74783 0.89354 0.85126 0.0
O245 O 0.67557 0.88226 0.80719 0.0
O246 O 0.57113 0.91638 0.86942 0.0
C247 C 0.72305 0.88011 0.83408 0.0
O248 O 0.77826 0.90347 0.73177 0.0
C249 C 0.52247 0.91629 0.84246 0.0
O250 O 0.67017 0.91192 0.74262 0.0
O251 O 0.54024 0.91459 0.80442 0.0
C252 C 0.58954 0.96283 0.485 0.0
O253 O 0.53685 0.95313 0.4827 0.0
Cd254 Cd 0.54008 0.92329 0.46556 0.0
O255 O 0.64863 0.95726 0.47366 0.0
Cd256 Cd 0.68858 0.92858 0.44947 0.0
C257 C 0.65207 0.91285 0.54295 0.0
O258 O 0.60174 0.91611 0.40256 0.0
O259 O 0.6572 0.89855 0.44305 0.0
O260 O 0.76901 0.93509 0.3923 0.0
C261 C 0.62033 0.90082 0.41066 0.0
O262 O 0.59108 0.91073 0.52866 0.0
C263 C 0.8213 0.92863 0.41066 0.0
O264 O 0.69777 0.92042 0.52113 0.0
O265 O 0.8124 0.92336 0.44787 0.0
C266 C 0.7321 0.25557 0.45997 0.0
O267 O 0.7848 0.26387 0.47249 0.0
Cd268 Cd 0.79033 0.29431 0.48059 0.0
O269 O 0.67701 0.2635 0.44979 0.0
Cd270 Cd 0.64107 0.29393 0.44785 0.0
C271 C 0.66077 0.29957 0.55104 0.0
O272 O 0.74459 0.30741 0.41845 0.0
O273 O 0.67311 0.32421 0.45048 0.0
O274 O 0.57111 0.29223 0.3836 0.0
C275 C 0.72516 0.32261 0.4266 0.0
O276 O 0.72548 0.3009 0.5443 0.0
C277 C 0.51418 0.29543 0.40193 0.0
O278 O 0.61935 0.29592 0.52144 0.0
O279 O 0.51659 0.29768 0.44128 0.0
C280 C 0.42808 0.71097 0.20091 0.0
O281 O 0.47422 0.6995 0.1956 0.0
Cd282 Cd 0.45513 0.67005 0.1738 0.0
O283 O 0.36469 0.70763 0.1935 0.0
Cd284 Cd 0.29226 0.68323 0.17198 0.0
C285 C 0.35065 0.65885 0.25451 0.0
O286 O 0.36934 0.67024 0.11956 0.0
O287 O 0.27411 0.65684 0.13394 0.0
O288 O 0.2029 0.70039 0.13629 0.0
C289 C 0.33039 0.65729 0.11364 0.0
O290 O 0.40877 0.65654 0.2366 0.0
C291 C 0.15477 0.69583 0.16121 0.0
O292 O 0.3044 0.66832 0.23798 0.0
O293 O 0.17181 0.68594 0.19115 0.0
C294 C 0.30171 0.01067 0.25032 0.0
O295 O 0.24786 0.01955 0.25733 0.0
Cd296 Cd 0.24492 0.05037 0.25404 0.0
O297 O 0.35842 0.01804 0.24099 0.0
Cd298 Cd 0.39898 0.0478 0.23299 0.0
C299 C 0.35737 0.06162 0.33022 0.0
O300 O 0.30398 0.05994 0.19158 0.0
O301 O 0.37394 0.07786 0.22167 0.0
O302 O 0.47645 0.04271 0.17339 0.0
C303 C 0.32608 0.07525 0.19518 0.0
O304 O 0.29423 0.06189 0.31889 0.0
C305 C 0.53224 0.04483 0.19382 0.0
O306 O 0.40404 0.05594 0.30577 0.0
O307 O 0.52626 0.04826 0.23256 0.0
C308 C 0.56762 0.03075 0.56151 0.0
O309 O 0.6105 0.04212 0.54877 0.0
Cd310 Cd 0.61343 0.07352 0.55127 0.0
O311 O 0.5128 0.03495 0.58143 0.0
Cd312 Cd 0.45018 0.06126 0.60088 0.0
C313 C 0.46407 0.07537 0.49533 0.0
O314 O 0.54517 0.08 0.60878 0.0
O315 O 0.46666 0.08521 0.65329 0.0
O316 O 0.36892 0.04856 0.65133 0.0
C317 C 0.52213 0.09018 0.63599 0.0
O318 O 0.52896 0.07836 0.49711 0.0
C319 C 0.31511 0.05425 0.63272 0.0
O320 O 0.43099 0.0696 0.52702 0.0
O321 O 0.32452 0.06273 0.59906 0.0
C322 C 0.22643 0.67992 0.52281 0.0
O323 O 0.16994 0.67168 0.51964 0.0
Cd324 Cd 0.17525 0.64109 0.50709 0.0
O325 O 0.28322 0.67174 0.52484 0.0
Cd326 Cd 0.328 0.64233 0.52764 0.0
C327 C 0.29214 0.64101 0.42624 0.0
O328 O 0.23648 0.62468 0.55952 0.0
O329 O 0.30909 0.61185 0.51826 0.0
O330 O 0.39226 0.64891 0.59113 0.0
C331 C 0.26033 0.61068 0.54472 0.0
O332 O 0.22961 0.63893 0.43795 0.0
C333 C 0.45189 0.64624 0.57575 0.0
O334 O 0.33987 0.64352 0.45299 0.0
O335 O 0.45402 0.64128 0.53777 0.0
C336 C 0.51362 0.77836 0.26207 0.0
O337 O 0.47238 0.79099 0.25877 0.0
Cd338 Cd 0.50791 0.82038 0.26077 0.0
O339 O 0.57732 0.78092 0.27052 0.0
Cd340 Cd 0.65245 0.80618 0.28378 0.0
C341 C 0.62894 0.81718 0.18369 0.0
O342 O 0.57719 0.82583 0.32185 0.0
O343 O 0.66159 0.83733 0.28723 0.0
O344 O 0.72118 0.79503 0.34258 0.0
C345 C 0.61374 0.839 0.3141 0.0
O346 O 0.57052 0.82339 0.19432 0.0
C347 C 0.77847 0.79579 0.32304 0.0
O348 O 0.6666 0.8094 0.21017 0.0
O349 O 0.77627 0.80095 0.28535 0.0
C350 C 0.76652 0.44635 0.27228 0.0
O351 O 0.82456 0.43875 0.27275 0.0
Cd352 Cd 0.83052 0.40811 0.27362 0.0
O353 O 0.71088 0.43769 0.2754 0.0
Cd354 Cd 0.68148 0.40719 0.28705 0.0
C355 C 0.72776 0.39783 0.19052 0.0
O356 O 0.77196 0.39692 0.33477 0.0
O357 O 0.72453 0.37807 0.29404 0.0
O358 O 0.59271 0.4175 0.33538 0.0
C359 C 0.761 0.38124 0.32615 0.0
O360 O 0.78951 0.398 0.20457 0.0
C361 C 0.54612 0.40723 0.32256 0.0
O362 O 0.67753 0.40209 0.21386 0.0
O363 O 0.56242 0.39687 0.29347 0.0
C364 C 0.58165 0.45834 0.96822 0.0
O365 O 0.53255 0.44739 0.96996 0.0
Cd366 Cd 0.53249 0.41723 0.94892 0.0
O367 O 0.64086 0.45408 0.95416 0.0
Cd368 Cd 0.69978 0.42803 0.92978 0.0
C369 C 0.65554 0.40465 0.01803 0.0
O370 O 0.60475 0.41637 0.88866 0.0
O371 O 0.70077 0.40239 0.88534 0.0
O372 O 0.78934 0.44359 0.89009 0.0
C373 C 0.6372 0.40323 0.87584 0.0
O374 O 0.59264 0.40326 0.00653 0.0
C375 C 0.83834 0.43817 0.91339 0.0
O376 O 0.69863 0.41327 -0.00358 0.0
O377 O 0.82187 0.4282 0.94326 0.0
C378 C 0.7103 0.74743 0.95384 0.0
O379 O 0.77033 0.75406 0.95554 0.0
Cd380 Cd 0.7937 0.78377 0.93624 0.0
O381 O 0.65944 0.75622 0.94077 0.0
Cd382 Cd 0.63625 0.78556 0.91986 0.0
C383 C 0.69296 0.80014 0.01293 0.0
O384 O 0.73352 0.7971 0.87812 0.0
O385 O 0.6711 0.81451 0.91593 0.0
O386 O 0.55024 0.78192 0.86375 0.0
C387 C 0.71813 0.81245 0.88875 0.0
O388 O 0.75431 0.79895 -0.00141 0.0
C389 C 0.49907 0.78611 0.88665 0.0
O390 O 0.64142 0.79464 -0.00809 0.0
O391 O 0.51208 0.79 0.92448 0.0
C392 C 0.38779 0.20751 0.73727 0.0
O393 O 0.4451 0.19999 0.7448 0.0
Cd394 Cd 0.49902 0.17371 0.72073 0.0
O395 O 0.34319 0.20098 0.7122 0.0
Cd396 Cd 0.33308 0.17281 0.67462 0.0
C397 C 0.37214 0.14881 0.76425 0.0
O398 O 0.45246 0.17077 0.65364 0.0
O399 O 0.38646 0.15258 0.62382 0.0
O400 O 0.25043 0.1814 0.62013 0.0
C401 C 0.44784 0.15733 0.63151 0.0
O402 O 0.43538 0.15342 0.76271 0.0
C403 C 0.20393 0.17083 0.63213 0.0
O404 O 0.32795 0.15455 0.738 0.0
O405 O 0.21683 0.16198 0.66467 0.0
C406 C 0.29013 0.48358 0.70132 0.0
O407 O 0.23122 0.49066 0.70441 0.0
Cd408 Cd 0.21123 0.52016 0.68303 0.0
O409 O 0.34038 0.49172 0.68513 0.0
Cd410 Cd 0.36122 0.52064 0.65906 0.0
C411 C 0.32315 0.53753 0.75239 0.0
O412 O 0.26089 0.53104 0.61832 0.0
O413 O 0.32389 0.54963 0.6521 0.0
O414 O 0.44017 0.51518 0.60001 0.0
C415 C 0.27717 0.54669 0.62513 0.0
O416 O 0.25975 0.53644 0.74165 0.0
C417 C 0.49339 0.52056 0.61953 0.0
O418 O 0.37042 0.53117 0.72946 0.0
O419 O 0.48451 0.52577 0.65682 0.0
C420 C 0.51793 0.52898 0.01408 0.0
O421 O 0.55884 0.54143 0.00695 0.0
Cd422 Cd 0.51234 0.57007 -0.00397 0.0
O423 O 0.45406 0.53193 0.01985 0.0
Cd424 Cd 0.37501 0.55621 0.02136 0.0
C425 C 0.40042 0.55986 0.91849 0.0
O426 O 0.43578 0.58171 0.04956 0.0
O427 O 0.34548 0.58565 0.01032 0.0
O428 O 0.31291 0.54721 0.08428 0.0
C429 C 0.38927 0.59188 0.0358 0.0
O430 O 0.45633 0.56775 0.92742 0.0
C431 C 0.25633 0.54438 0.06506 0.0
O432 O 0.36292 0.55353 0.94728 0.0
O433 O 0.25593 0.54692 0.02578 0.0
C434 C 0.27609 0.18777 0.00037 0.0
O435 O 0.22326 0.17834 0.00629 0.0
Cd436 Cd 0.22512 0.14821 0.01985 0.0
O437 O 0.33679 0.18157 0.00405 0.0
Cd438 Cd 0.38777 0.15322 0.02113 0.0
C439 C 0.31547 0.13661 0.93298 0.0
O440 O 0.3076 0.14338 0.0748 0.0
O441 O 0.36739 0.12373 0.04308 0.0
O442 O 0.48014 0.16316 0.0684 0.0
C443 C 0.3268 0.12784 0.07267 0.0
O444 O 0.25719 0.13612 0.95157 0.0
C445 C 0.53001 0.15892 0.04462 0.0
O446 O 0.36869 0.1428 0.95111 0.0
O447 O 0.514 0.15214 0.00968 0.0
C448 C 0.0483 0.35319 0.41808 0.0
C449 C 0.03509 0.37012 0.40459 0.0
C450 C 0.0401 0.33925 0.39072 0.0
C451 C 0.01976 0.34196 0.34904 0.0
H452 H 0.07006 0.35082 0.44886 0.0
H453 H 0.05669 0.32661 0.40093 0.0
S454 S 0.96387 0.38301 0.30119 0.0
N455 N 0.98746 0.38826 0.34933 0.0
N456 N 0.97579 0.36202 0.29735 0.0
C457 C 0.99905 0.35844 0.33661 0.0
C458 C 0.0056 0.37258 0.36468 0.0
C459 C 0.29743 0.85737 0.35941 0.0
C460 C 0.27418 0.85455 0.31821 0.0
C461 C 0.29859 0.8439 0.38849 0.0
C462 C 0.27887 0.82716 0.37678 0.0
H463 H 0.3085 0.8703 0.37035 0.0
H464 H 0.31022 0.84682 0.42098 0.0
S465 S 0.22653 0.81256 0.27085 0.0
N466 N 0.23947 0.83349 0.26576 0.0
N467 N 0.24438 0.808 0.32027 0.0
C468 C 0.2631 0.82381 0.33464 0.0
C469 C 0.26003 0.8376 0.30529 0.0
C470 C 0.95289 0.86735 0.82064 0.0
C471 C 0.96733 0.87498 0.85949 0.0
C472 C 0.94952 0.84941 0.81684 0.0
C473 C 0.96379 0.83874 0.85149 0.0
H474 H 0.95011 0.87518 0.7926 0.0
H475 H 0.94447 0.84397 0.78568 0.0
S476 S 0.9916 0.85271 0.96116 0.0
N477 N 0.98384 0.87079 0.93437 0.0
N478 N 0.98129 0.83702 0.92671 0.0
C479 C 0.97006 0.84628 0.89121 0.0
C480 C 0.97118 0.8645 0.89531 0.0
C481 C 0.13197 0.3584 0.82256 0.0
C482 C 0.19975 0.36419 0.83061 0.0
C483 C 0.11234 0.3415 0.83129 0.0
C484 C 0.15989 0.32965 0.8478 0.0
H485 H 0.0926 0.36717 0.81128 0.0
H486 H 0.05861 0.33789 0.82675 0.0
S487 S 0.3459 0.33764 0.86914 0.0
N488 N 0.31629 0.35632 0.85228 0.0
N489 N 0.27945 0.32427 0.86778 0.0
C490 C 0.22916 0.33482 0.85291 0.0
C491 C 0.24904 0.3522 0.84464 0.0
C492 C 0.9859 0.5971 0.62406 0.0
C493 C 0.94219 0.58271 0.62471 0.0
C494 C 0.977 0.6104 0.65318 0.0
C495 C 0.92374 0.60967 0.68337 0.0
H496 H 0.02304 0.59874 0.59891 0.0
H497 H 0.00846 0.62188 0.64983 0.0
S498 S 0.80504 0.57282 0.70195 0.0
N499 N 0.85113 0.56711 0.66063 0.0
N500 N 0.83455 0.59194 0.71603 0.0
C501 C 0.88497 0.59438 0.6869 0.0
C502 C 0.894 0.58094 0.65716 0.0
C503 C 0.78368 0.077 0.59508 0.0
C504 C 0.78023 0.08381 0.63577 0.0
C505 C 0.77069 0.08745 0.56023 0.0
C506 C 0.75226 0.10485 0.56524 0.0
H507 H 0.80232 0.06401 0.59 0.0
H508 H 0.77995 0.08223 0.52921 0.0
S509 S 0.7206 0.12736 0.66604 0.0
N510 N 0.74688 0.10793 0.67973 0.0
N511 N 0.71955 0.12748 0.61425 0.0
C512 C 0.74025 0.11111 0.60598 0.0
C513 C 0.75532 0.1006 0.64137 0.0
C514 C 0.0812 0.11286 0.06134 0.0
C515 C 0.0882 0.12253 0.09831 0.0
C516 C 0.07756 0.0949 0.063 0.0
C517 C 0.07953 0.08624 0.10164 0.0
H518 H 0.06935 0.1192 0.03195 0.0
H519 H 0.06287 0.08811 0.03486 0.0
S520 S 0.12397 0.10513 0.2045 0.0
N521 N 0.11918 0.12177 0.17243 0.0
N522 N 0.10793 0.08797 0.17543 0.0
C523 C 0.09936 0.09546 0.13731 0.0
C524 C 0.10518 0.11373 0.13557 0.0
C525 C 0.71803 0.60053 0.14401 0.0
C526 C 0.76299 0.59085 0.1187 0.0
C527 C 0.70598 0.61799 0.13547 0.0
C528 C 0.7389 0.6261 0.10149 0.0
H529 H 0.69738 0.59505 0.17267 0.0
H530 H 0.67537 0.6254 0.15735 0.0
S531 S 0.85067 0.60517 0.02176 0.0
N532 N 0.83295 0.58976 0.05575 0.0
N533 N 0.80924 0.6224 0.03873 0.0
C534 C 0.77826 0.61601 0.0737 0.0
C535 C 0.79062 0.59836 0.08257 0.0
C536 C 0.55087 0.37936 0.88087 0.0
C537 C 0.60236 0.38807 0.85798 0.0
C538 C 0.53037 0.36257 0.86964 0.0
C539 C 0.56076 0.35414 0.83516 0.0
H540 H 0.53005 0.38502 0.90924 0.0
H541 H 0.49393 0.35582 0.88953 0.0
S542 S 0.68797 0.37312 0.76087 0.0
N543 N 0.67651 0.38816 0.79681 0.0
N544 N 0.63701 0.35701 0.77462 0.0
C545 C 0.60765 0.36349 0.81003 0.0
C546 C 0.62884 0.38036 0.82178 0.0
C547 C 0.73591 0.83187 0.82892 0.0
C548 C 0.75036 0.82781 0.87077 0.0
C549 C 0.73369 0.84908 0.81599 0.0
C550 C 0.7466 0.86259 0.84452 0.0
H551 H 0.7181 0.82197 0.80749 0.0
H552 H 0.71615 0.85185 0.78444 0.0
S553 S 0.80264 0.85803 0.95496 0.0
N554 N 0.78957 0.8381 0.93865 0.0
N555 N 0.78699 0.8705 0.91413 0.0
C556 C 0.77083 0.85847 0.88472 0.0
C557 C 0.77234 0.84098 0.89793 0.0
C558 C 0.58305 0.85529 0.3783 0.0
C559 C 0.60252 0.85541 0.33589 0.0
C560 C 0.58454 0.87044 0.40199 0.0
C561 C 0.60325 0.88619 0.3836 0.0
H562 H 0.57115 0.84328 0.39396 0.0
H563 H 0.57391 0.86972 0.43531 0.0
S564 S 0.64939 0.89366 0.27246 0.0
N565 N 0.63512 0.87273 0.27551 0.0
N566 N 0.6354 0.90138 0.32 0.0
C567 C 0.61729 0.88672 0.34053 0.0
C568 C 0.61763 0.87124 0.31662 0.0
C569 C 0.74199 0.35425 0.42163 0.0
C570 C 0.75526 0.33771 0.40552 0.0
C571 C 0.75293 0.36892 0.39712 0.0
C572 C 0.77604 0.36735 0.35563 0.0
H573 H 0.71844 0.35581 0.45222 0.0
H574 H 0.73642 0.3813 0.4092 0.0
S575 S 0.83255 0.3275 0.302 0.0
N576 N 0.80517 0.32098 0.3484 0.0
N577 N 0.82242 0.34861 0.30167 0.0
C578 C 0.79661 0.35116 0.34081 0.0
C579 C 0.78714 0.33626 0.36606 0.0
C580 C 0.31505 0.61755 0.04702 0.0
C581 C 0.38005 0.6096 0.05183 0.0
C582 C 0.30083 0.63345 0.06556 0.0
C583 C 0.35149 0.64224 0.08874 0.0
H584 H 0.27347 0.61114 0.03034 0.0
H585 H 0.24919 0.63867 0.06269 0.0
S586 S 0.53149 0.62778 0.10811 0.0
N587 N 0.49679 0.61216 0.07984 0.0
N588 N 0.47036 0.64245 0.11381 0.0
C589 C 0.41791 0.63498 0.09198 0.0
C590 C 0.43209 0.61853 0.07379 0.0
C591 C 0.31871 0.11924 0.14694 0.0
C592 C 0.30729 0.11527 0.10462 0.0
C593 C 0.31886 0.10623 0.17714 0.0
C594 C 0.30613 0.08899 0.16591 0.0
H595 H 0.33342 0.13217 0.15621 0.0
H596 H 0.33331 0.10953 0.209 0.0
S597 S 0.25601 0.07305 0.06048 0.0
N598 N 0.27142 0.09379 0.05372 0.0
N599 N 0.26907 0.06926 0.11084 0.0
C600 C 0.28607 0.0853 0.12448 0.0
C601 C 0.28755 0.0985 0.0936 0.0
C602 C 0.52977 0.11806 0.67304 0.0
C603 C 0.53952 0.10864 0.63597 0.0
C604 C 0.51186 0.13551 0.67153 0.0
C605 C 0.50092 0.1438 0.63296 0.0
H606 H 0.52816 0.1115 0.70301 0.0
H607 H 0.4973 0.14176 0.7004 0.0
S608 S 0.53898 0.12607 0.5278 0.0
N609 N 0.55398 0.10993 0.56024 0.0
N610 N 0.51542 0.14248 0.55755 0.0
C611 C 0.52051 0.13524 0.59618 0.0
C612 C 0.54131 0.11764 0.59771 0.0
C613 C 0.22781 0.59232 0.60524 0.0
C614 C 0.24149 0.59376 0.56217 0.0
C615 C 0.23146 0.57632 0.62517 0.0
C616 C 0.24704 0.56129 0.60245 0.0
H617 H 0.22117 0.60374 0.62436 0.0
H618 H 0.22783 0.5759 0.65907 0.0
S619 S 0.27029 0.55779 0.48766 0.0
N620 N 0.25932 0.57859 0.49628 0.0
N621 N 0.26437 0.54838 0.53396 0.0
C622 C 0.25166 0.56226 0.55872 0.0
C623 C 0.24942 0.5786 0.53846 0.0
C624 C 0.38525 0.29368 0.40046 0.0
C625 C 0.4478 0.29653 0.37897 0.0
C626 C 0.32135 0.29485 0.37988 0.0
C627 C 0.31743 0.29924 0.33717 0.0
H628 H 0.38558 0.29039 0.43346 0.0
H629 H 0.27464 0.29251 0.39779 0.0
S630 S 0.46626 0.30831 0.26684 0.0
N631 N 0.50206 0.30398 0.31266 0.0
N632 N 0.38189 0.30651 0.27403 0.0
C633 C 0.37963 0.30222 0.31531 0.0
C634 C 0.44483 0.30076 0.33617 0.0
C635 C 0.94432 0.91784 0.32229 0.0
C636 C 0.00646 0.91399 0.34334 0.0
C637 C 0.88576 0.92349 0.34418 0.0
C638 C 0.88671 0.92523 0.38807 0.0
H639 H 0.94071 0.91647 0.28855 0.0
H640 H 0.83867 0.92589 0.32666 0.0
S641 S 0.03721 0.91745 0.45791 0.0
N642 N 0.06627 0.91299 0.41045 0.0
N643 N 0.95562 0.92326 0.45174 0.0
C644 C 0.94885 0.92175 0.40947 0.0
C645 C 0.00887 0.91623 0.38708 0.0
C646 C 0.3983 0.92096 0.82281 0.0
C647 C 0.44823 0.91781 0.85415 0.0
C648 C 0.32743 0.92175 0.8323 0.0
C649 C 0.30348 0.91914 0.8734 0.0
H650 H 0.41395 0.92274 0.79049 0.0
H651 H 0.29106 0.92398 0.80701 0.0
S652 S 0.4127 0.91142 0.9674 0.0
N653 N 0.46857 0.91286 0.92841 0.0
N654 N 0.33547 0.91409 0.94615 0.0
C655 C 0.35281 0.91631 0.90521 0.0
C656 C 0.42509 0.91573 0.89564 0.0
C657 C 0.75772 0.28319 0.91324 0.0
C658 C 0.73603 0.27792 0.8732 0.0
C659 C 0.82681 0.28127 0.92575 0.0
C660 C 0.87654 0.27399 0.8987 0.0
H661 H 0.72248 0.28993 0.93393 0.0
H662 H 0.84205 0.28656 0.95583 0.0
S663 S 0.84196 0.25466 0.79429 0.0
N664 N 0.76659 0.26253 0.80933 0.0
N665 N 0.89643 0.25893 0.83285 0.0
C666 C 0.85375 0.26704 0.86038 0.0
C667 C 0.78345 0.26904 0.8476 0.0
C668 C 0.64233 0.65142 0.60374 0.0
C669 C 0.64065 0.65468 0.64712 0.0
C670 C 0.58113 0.64861 0.58096 0.0
C671 C 0.51586 0.64913 0.60062 0.0
H672 H 0.69135 0.65068 0.58735 0.0
H673 H 0.58514 0.64602 0.54768 0.0
S674 S 0.48316 0.65804 0.71337 0.0
N675 N 0.56819 0.65882 0.70867 0.0
N676 N 0.45344 0.65369 0.666 0.0
C677 C 0.51348 0.65271 0.64388 0.0
C678 C 0.57576 0.65545 0.66708 0.0
C679 C 0.11902 0.05042 0.63849 0.0
C680 C 0.10594 0.05044 0.68188 0.0
C681 C 0.18693 0.05137 0.62288 0.0
C682 C 0.24442 0.05187 0.65004 0.0
H683 H 0.07639 0.0503 0.61639 0.0
H684 H 0.19442 0.05184 0.58923 0.0
S685 S 0.23831 0.05116 0.76629 0.0
N686 N 0.15622 0.05051 0.75179 0.0
N687 N 0.28375 0.05169 0.72245 0.0
C688 C 0.23216 0.05123 0.69347 0.0
C689 C 0.16297 0.05069 0.70938 0.0
C690 C 0.60573 0.0483 0.13009 0.0
C691 C 0.60062 0.04419 0.1729 0.0
C692 C 0.67012 0.04897 0.10994 0.0
C693 C 0.73177 0.04513 0.13151 0.0
H694 H 0.55982 0.05154 0.11224 0.0
H695 H 0.6716 0.0526 0.07716 0.0
S696 S 0.74628 0.03267 0.24339 0.0
N697 N 0.66252 0.03573 0.23602 0.0
N698 N 0.7835 0.03649 0.19771 0.0
C699 C 0.72728 0.04043 0.17397 0.0
C700 C 0.66173 0.04012 0.19479 0.0
C701 C 0.95985 0.69497 0.17295 0.0
C702 C 0.93653 0.70101 0.13387 0.0
C703 C 0.03056 0.69448 0.18262 0.0
C704 C 0.08085 0.70007 0.15369 0.0
H705 H 0.92376 0.68948 0.19525 0.0
H706 H 0.04592 0.68877 0.21217 0.0
S707 S 0.04601 0.72028 0.05042 0.0
N708 N 0.96867 0.71514 0.06859 0.0
N709 N 0.10164 0.71422 0.08684 0.0
C710 C 0.0579 0.70771 0.11621 0.0
C711 C 0.98571 0.70819 0.10629 0.0
C712 C 0.37145 0.78402 0.898 0.0
C713 C 0.42738 0.78661 0.87041 0.0
C714 C 0.30276 0.78508 0.88396 0.0
C715 C 0.28756 0.7892 0.84207 0.0
H716 H 0.3808 0.78115 0.93075 0.0
H717 H 0.26133 0.78315 0.90638 0.0
S718 S 0.41524 0.79682 0.75709 0.0
N719 N 0.463 0.79294 0.79899 0.0
N720 N 0.33396 0.79543 0.7728 0.0
C721 C 0.343 0.79165 0.81405 0.0
C722 C 0.41291 0.79021 0.82816 0.0
C723 C 0.93193 0.44693 0.86363 0.0
C724 C 0.91205 0.44175 0.90407 0.0
C725 C 1.0017 0.44676 0.85153 0.0
C726 C 0.054 0.4414 0.87947 0.0
H727 H 0.89316 0.45 0.84025 0.0
H728 H 0.01392 0.44966 0.81915 0.0
S729 S 0.03018 0.43061 -0.00816 0.0
N730 N 0.95105 0.43409 0.97421 0.0
N731 N 0.08203 0.43374 0.95143 0.0
C732 C 0.03538 0.438 0.92125 0.0
C733 C 0.96438 0.43815 0.93354 0.0
C734 C 0.44407 0.4233 0.3496 0.0
C735 C 0.476 0.40748 0.3405 0.0
C736 C 0.37777 0.42388 0.36738 0.0
C737 C 0.34253 0.40866 0.37787 0.0
H738 H 0.47043 0.4353 0.34279 0.0
H739 H 0.35503 0.4363 0.37436 0.0
S740 S 0.40343 0.36402 0.36005 0.0
N741 N 0.46672 0.37627 0.34198 0.0
N742 N 0.3434 0.37738 0.37743 0.0
C743 C 0.37373 0.39277 0.36881 0.0
C744 C 0.44023 0.39218 0.34952 0.0
C745 C 0.84988 0.79318 0.38801 0.0
C746 C 0.84531 0.79225 0.34406 0.0
C747 C 0.91388 0.79196 0.40849 0.0
C748 C 0.97562 0.78946 0.38588 0.0
H749 H 0.80403 0.79552 0.40672 0.0
H750 H 0.915 0.79321 0.44232 0.0
S751 S 0.99122 0.78486 0.27044 0.0
N752 N 0.90766 0.78782 0.27864 0.0
N753 N 0.02779 0.78524 0.31724 0.0
C754 C 0.9715 0.78778 0.34205 0.0
C755 C 0.9064 0.78926 0.32112 0.0
C756 C 0.68854 0.16134 0.11481 0.0
C757 C 0.74363 0.16318 0.08629 0.0
C758 C 0.61964 0.1605 0.10104 0.0
C759 C 0.60314 0.16098 0.05809 0.0
H760 H 0.69872 0.16055 0.14818 0.0
H761 H 0.57912 0.15897 0.12423 0.0
S762 S 0.7282 0.16584 0.97057 0.0
N763 N 0.777 0.16589 0.01314 0.0
N764 N 0.64757 0.1637 0.98706 0.0
C765 C 0.65767 0.1629 0.02918 0.0
C766 C 0.72786 0.16418 0.04332 0.0
C767 C 0.18661 0.54409 0.13065 0.0
C768 C 0.19194 0.54017 0.08777 0.0
C769 C 0.12275 0.54336 0.15122 0.0
C770 C 0.06203 0.53852 0.12975 0.0
H771 H 0.23119 0.54873 0.14796 0.0
H772 H 0.12058 0.54737 0.18373 0.0
S773 S 0.05088 0.52405 0.01899 0.0
N774 N 0.13315 0.52916 0.02577 0.0
N775 N 0.01299 0.52763 0.06455 0.0
C776 C 0.06775 0.53315 0.08777 0.0
C777 C 0.13278 0.53405 0.06671 0.0
C778 C 0.68781 0.52428 0.60862 0.0
C779 C 0.69661 0.52761 0.56565 0.0
C780 C 0.62188 0.52145 0.62548 0.0
C781 C 0.56251 0.52149 0.59988 0.0
H782 H 0.73168 0.52472 0.62979 0.0
H783 H 0.61726 0.51962 0.65904 0.0
S784 S 0.55849 0.52781 0.48467 0.0
N785 N 0.64114 0.52963 0.49731 0.0
N786 N 0.51719 0.52389 0.52899 0.0
C787 C 0.57096 0.52379 0.5565 0.0
C788 C 0.63806 0.52698 0.53939 0.0
C789 C 0.01989 0.15735 0.60645 0.0
C790 C 0.01768 0.15859 0.5625 0.0
C791 C 0.07999 0.16171 0.62881 0.0
C792 C 0.13934 0.16794 0.60815 0.0
H793 H 0.97552 0.15254 0.62361 0.0
H794 H 0.08011 0.16007 0.66254 0.0
S795 S 0.15838 0.17459 0.49356 0.0
N796 N 0.079 0.167 0.49918 0.0
N797 N 0.19125 0.17567 0.54132 0.0
C798 C 0.13693 0.1698 0.56434 0.0
C799 C 0.0763 0.16498 0.54148 0.0
C800 C 0.97844 0.22399 0.19591 0.0
C801 C 0.03897 0.21409 0.20039 0.0
C802 C 0.97443 0.24073 0.21195 0.0
C803 C 0.03095 0.24832 0.23286 0.0
H804 H 0.93319 0.21871 0.18042 0.0
H805 H 0.92674 0.24782 0.20742 0.0
S806 S 0.20198 0.22797 0.25249 0.0
N807 N 0.15719 0.21319 0.22697 0.0
N808 N 0.14962 0.24462 0.25718 0.0
C809 C 0.09199 0.23859 0.23747 0.0
C810 C 0.09602 0.22152 0.22121 0.0
C811 C 0.35179 0.96372 0.23705 0.0
C812 C 0.29483 0.95485 0.25402 0.0
C813 C 0.35382 -0.01826 0.23641 0.0
C814 C 0.29887 -0.00837 0.2526 0.0
H815 H 0.39479 0.95672 0.22348 0.0
H816 H 0.39848 -0.01206 0.22245 0.0
S817 S 0.13969 0.97473 0.30337 0.0
N818 N 0.18344 0.95742 0.28954 0.0
N819 N 0.18734 -0.00879 0.28807 0.0
C820 C 0.24226 -0.01705 0.27055 0.0
C821 C 0.24025 0.9646 0.27136 0.0
C822 C 0.04448 -0.00379 0.95764 0.0
C823 C 0.98969 0.00339 0.98082 0.0
C824 C 0.03913 0.9798 0.94 0.0
C825 C 0.97883 0.96981 0.94489 0.0
H826 H 0.09295 0.00309 0.95397 0.0
H827 H 0.08406 0.97468 0.92397 0.0
S828 S 0.81616 -0.01626 -0.00311 0.0
N829 N 0.86997 5e-05 0.00352 0.0
N830 N 0.85997 0.96912 0.97035 0.0
C831 C 0.92188 0.97725 0.96564 0.0
C832 C 0.92736 -0.00598 0.9837 0.0
C833 C 0.19888 0.2129 0.98783 0.0
C834 C 0.26594 0.20586 0.98697 0.0
C835 C 0.18597 0.22954 0.97345 0.0
C836 C 0.23956 0.23997 0.95771 0.0
H837 H 0.15551 0.20549 -0.00036 0.0
H838 H 0.13334 0.23431 0.97519 0.0
S839 S 0.42428 0.2276 0.94709 0.0
N840 N 0.38678 0.21054 0.96806 0.0
N841 N 0.36225 0.242 0.94116 0.0
C842 C 0.30703 0.23318 0.95657 0.0
C843 C 0.32028 0.21611 0.97118 0.0
C844 C 0.00983 0.71872 0.74466 0.0
C845 C 0.94835 0.71172 0.72816 0.0
C846 C 0.01607 0.7363 0.75278 0.0
C847 C 0.96133 0.74773 0.74448 0.0
H848 H 0.05306 0.71052 0.75288 0.0
H849 H 0.06421 0.74086 0.76627 0.0
S850 S 0.79183 0.73631 0.6968 0.0
N851 N 0.83331 0.71781 0.70059 0.0
N852 N 0.84526 0.751 0.71569 0.0
C853 C 0.90071 0.7411 0.72593 0.0
C854 C 0.89421 0.72308 0.71776 0.0
C855 C 0.72835 0.97648 0.80382 0.0
C856 C 0.78793 0.96658 0.81168 0.0
C857 C 0.73317 -0.00633 0.79137 0.0
C858 C 0.79778 0.0018 0.78628 0.0
H859 H 0.67725 0.97075 0.80539 0.0
H860 H 0.68554 0.00043 0.78434 0.0
S861 S 0.96927 -0.01744 0.81023 0.0
N862 N 0.91348 0.96681 0.81866 0.0
N863 N 0.92259 -0.00074 0.79523 0.0
C864 C 0.85778 -0.00756 0.79671 0.0
C865 C 0.85284 0.97483 0.80949 0.0
C866 C 0.72444 0.7293 0.01727 0.0
C867 C 0.6942 0.73164 0.97759 0.0
C868 C 0.69415 0.71833 0.04693 0.0
C869 C 0.63306 0.7091 0.03785 0.0
H870 H 0.7684 0.73705 0.02682 0.0
H871 H 0.71725 0.71769 0.07786 0.0
S872 S 0.54188 0.7084 0.93507 0.0
N873 N 0.60578 0.72227 0.92855 0.0
N874 N 0.54917 0.70137 0.9837 0.0
C875 C 0.60592 0.71024 -0.00316 0.0
C876 C 0.63663 0.72151 0.96683 0.0
C877 C 0.27557 0.46568 0.76522 0.0
C878 C 0.30598 0.4679 0.72557 0.0
C879 C 0.30264 0.45389 0.79406 0.0
C880 C 0.36034 0.44357 0.78413 0.0
H881 H 0.23342 0.47391 0.7752 0.0
H882 H 0.27905 0.45319 0.82482 0.0
S883 S 0.45264 0.44296 0.68182 0.0
N884 N 0.39263 0.45789 0.6762 0.0
N885 N 0.44304 0.43542 0.72983 0.0
C886 C 0.38872 0.44501 0.74351 0.0
C887 C 0.3614 0.45716 0.71434 0.0
C888 C 0.11284 0.47994 0.46887 0.0
C889 C 0.05902 0.47008 0.45124 0.0
C890 C 0.10378 0.49756 0.47685 0.0
C891 C 0.0407 0.50569 0.46734 0.0
H892 H 0.16003 0.47379 0.47947 0.0
H893 H 0.14434 0.50451 0.49318 0.0
S894 S 0.89099 0.48628 0.4115 0.0
N895 N 0.94585 0.47021 0.41795 0.0
N896 N 0.92885 0.5033 0.43252 0.0
C897 C 0.98955 0.4963 0.44575 0.0
C898 C 0.99872 0.47846 0.43779 0.0
C899 C 0.29283 0.7075 0.51915 0.0
C900 C 0.22833 0.69898 0.51929 0.0
C901 C 0.29804 0.72508 0.51024 0.0
C902 C 0.23902 0.73496 0.50106 0.0
H903 H 0.34033 0.70047 0.52474 0.0
H904 H 0.34914 0.73085 0.50957 0.0
S905 S 0.05688 0.71938 0.50201 0.0
N906 N 0.10342 0.70213 0.51278 0.0
N907 N 0.11307 0.73522 0.49616 0.0
C908 C 0.17375 0.72682 0.503 0.0
C909 C 0.16844 0.70885 0.51215 0.0
C910 C 0.70197 0.47274 0.25004 0.0
C911 C 0.7633 0.46515 0.26529 0.0
C912 C 0.69987 0.4902 0.23895 0.0
C913 C 0.7591 0.50061 0.24259 0.0
H914 H 0.65587 0.46503 0.24523 0.0
H915 H 0.65244 0.4954 0.226 0.0
S916 S 0.92892 0.48772 0.28733 0.0
N917 N 0.88208 0.46994 0.28803 0.0
N918 N 0.87825 0.50265 0.26711 0.0
C919 C 0.81951 0.49342 0.25997 0.0
C920 C 0.8216 0.47571 0.27134 0.0
C921 C 0.67082 0.20908 0.45797 0.0
C922 C 0.73227 0.19978 0.46468 0.0
C923 C 0.67142 0.22709 0.45545 0.0
C924 C 0.73349 0.2365 0.45956 0.0
H925 H 0.62166 0.20244 0.45524 0.0
H926 H 0.62254 0.23368 0.45111 0.0
S927 S 0.90957 0.21825 0.4742 0.0
N928 N 0.85773 0.20137 0.47306 0.0
N929 N 0.8586 0.23509 0.46831 0.0
C930 C 0.79558 0.22734 0.46513 0.0
C931 C 0.79503 0.20903 0.46771 0.0
C932 C 0.40687 0.24399 0.8148 0.0
C933 C 0.37506 0.25789 0.79416 0.0
C934 C 0.40687 0.22749 0.79726 0.0
C935 C 0.3743 0.22413 0.75861 0.0
H936 H 0.43691 0.24614 0.84306 0.0
H937 H 0.43579 0.21748 0.81311 0.0
S938 S 0.27124 0.25518 0.6963 0.0
N939 N 0.30092 0.26661 0.73617 0.0
N940 N 0.3001 0.2354 0.70355 0.0
C941 C 0.33539 0.23739 0.7401 0.0
C942 C 0.33575 0.25432 0.7579 0.0
C943 C 0.63327 0.00815 0.52177 0.0
C944 C 0.57549 0.01273 0.54637 0.0
C945 C 0.63724 -0.00791 0.5018 0.0
C946 C 0.58334 0.97998 0.50524 0.0
H947 H 0.67536 0.01718 0.51705 0.0
H948 H 0.6826 -0.01075 0.48307 0.0
S949 S 0.42285 -0.01505 0.56847 0.0
N950 N 0.46481 0.00327 0.57494 0.0
N951 N 0.47203 0.97326 0.53725 0.0
C952 C 0.52605 -0.01582 0.53063 0.0
C953 C 0.52231 0.00046 0.55131 0.0
C954 C 0.53838 0.74787 0.24197 0.0
C955 C 0.48957 0.76084 0.25055 0.0
C956 C 0.51801 0.73186 0.2259 0.0
C957 C 0.44791 0.72811 0.21782 0.0
H958 H 0.59319 0.75021 0.24654 0.0
H959 H 0.55788 0.72244 0.21937 0.0
S960 S 0.29882 0.75724 0.23793 0.0
N961 N 0.36743 0.76854 0.25197 0.0
N962 N 0.32902 0.73851 0.22178 0.0
C963 C 0.39823 0.74081 0.22741 0.0
C964 C 0.41905 0.75713 0.2438 0.0
C965 C 0.5059 0.48063 0.00129 0.0
C966 C 0.56995 0.47622 0.98333 0.0
C967 C 0.4916 0.49752 0.01376 0.0
C968 C 0.54053 0.51083 0.00866 0.0
H969 H 0.46555 0.47105 0.00501 0.0
H970 H 0.44047 0.50022 0.02605 0.0
S971 S 0.71929 0.50582 0.96766 0.0
N972 N 0.68537 0.48634 0.96448 0.0
N973 N 0.65806 0.51813 0.98768 0.0
C974 C 0.60626 0.50647 -0.0071 0.0
C975 C 0.62099 0.48919 0.98022 0.0
C976 C 0.0441 0.31765 0.10539 0.0
C977 C 0.09614 0.31943 0.13589 0.0
C978 C 0.06099 0.31568 0.06308 0.0
C979 C 0.13045 0.31555 0.04967 0.0
H980 H 0.99023 0.31645 0.11441 0.0
H981 H 0.01929 0.31326 0.04109 0.0
S982 S 0.28484 0.32376 0.11613 0.0
N983 N 0.21904 0.32396 0.14914 0.0
N984 N 0.25083 0.32024 0.06939 0.0
C985 C 0.18246 0.31924 0.07922 0.0
C986 C 0.16525 0.32118 0.12243 0.0
C987 C 0.05161 0.89685 0.08108 0.0
C988 C 0.08919 0.89657 0.04339 0.0
C989 C 0.08496 0.89525 0.11973 0.0
C990 C 0.15731 0.89323 0.12238 0.0
H991 H 0.99625 0.89909 0.08101 0.0
H992 H 0.05362 0.89619 0.1478 0.0
S993 S 0.27803 0.88876 0.03254 0.0
N994 N 0.20164 0.89202 0.01071 0.0
N995 N 0.26451 0.88901 0.08363 0.0
C996 C 0.19503 0.89172 0.08484 0.0
C997 C 0.16095 0.89341 0.04531 0.0
C998 C 0.73939 0.65853 0.87167 0.0
C999 C 0.81107 0.6608 0.86568 0.0
C1000 C 0.70855 0.66176 0.91059 0.0
C1001 C 0.7481 0.66772 0.9446 0.0
H1002 H 0.70683 0.6541 0.84614 0.0
H1003 H 0.65336 0.65965 0.91401 0.0
S1004 S 0.93781 0.67594 0.94507 0.0
N1005 N 0.92072 0.6694 0.8969 0.0
N1006 N 0.86292 0.67568 0.96995 0.0
C1007 C 0.81982 0.67018 0.93893 0.0
C1008 C 0.85131 0.66663 0.89952 0.0
C1009 C 0.80965 0.07885 0.8882 0.0
C1010 C 0.85208 0.08361 0.85436 0.0
C1011 C 0.83576 0.07883 0.92919 0.0
C1012 C 0.90495 0.08358 0.93729 0.0
H1013 H 0.75914 0.0732 0.88263 0.0
H1014 H 0.80403 0.07323 0.95364 0.0
S1015 S 0.02722 0.10296 0.86096 0.0
N1016 N 0.95916 0.09738 0.83261 0.0
N1017 N 0.00805 0.09769 0.90976 0.0
C1018 C 0.9432 0.09118 0.90462 0.0
C1019 C 0.91679 0.09106 0.86296 0.0
C1020 C 0.1814 0.81314 0.66093 0.0
C1021 C 0.1136 0.81983 0.66327 0.0
C1022 C 0.21482 0.81119 0.62227 0.0
C1023 C 0.18137 0.81588 0.58496 0.0
H1024 H 0.20667 0.80799 0.68854 0.0
H1025 H 0.26408 0.80454 0.62136 0.0
S1026 S 0.01366 0.83867 0.57513 0.0
N1027 N 0.02149 0.83471 0.62577 0.0
N1028 N 0.08424 0.83082 0.55312 0.0
C1029 C 0.11796 0.82464 0.58738 0.0
C1030 C 0.08407 0.82672 0.62663 0.0
C1031 C 0.26936 0.4079 0.64269 0.0
C1032 C 0.23383 0.41519 0.6768 0.0
C1033 C 0.24002 0.40769 0.60258 0.0
C1034 C 0.17359 0.41448 0.59527 0.0
H1035 H 0.31985 0.40211 0.64706 0.0
H1036 H 0.26898 0.40179 0.57728 0.0
S1037 S 0.06074 0.43611 0.67305 0.0
N1038 N 0.12988 0.4303 0.69995 0.0
N1039 N 0.07473 0.42957 0.62454 0.0
C1040 C 0.13813 0.42218 0.62873 0.0
C1041 C 0.16835 0.42266 0.66948 0.0
C1042 C 0.95063 0.1301 0.30812 0.0
C1043 C 0.91691 0.13643 0.2722 0.0
C1044 C 0.9152 0.12805 0.34591 0.0
C1045 C 0.84451 0.13211 0.34932 0.0
H1046 H 0.00585 0.12765 0.3079 0.0
H1047 H 0.94449 0.12416 0.3733 0.0
S1048 S 0.72888 0.14588 0.26277 0.0
N1049 N 0.80609 0.14428 0.24091 0.0
N1050 N 0.73957 0.14038 0.31235 0.0
C1051 C 0.80837 0.13672 0.31277 0.0
C1052 C 0.8446 0.1389 0.27408 0.0
C1053 C 0.94809 0.57969 0.36745 0.0
C1054 C 0.90089 0.5802 0.40084 0.0
C1055 C 0.92455 0.57879 0.32602 0.0
C1056 C 0.85315 0.57846 0.31677 0.0
H1057 H 0.00303 0.57819 0.37336 0.0
H1058 H 0.96256 0.57694 0.30145 0.0
S1059 S 0.71017 0.58461 0.39307 0.0
N1060 N 0.78105 0.58407 0.42201 0.0
N1061 N 0.73644 0.58252 0.34408 0.0
C1062 C 0.80612 0.58147 0.34963 0.0
C1063 C 0.83017 0.5823 0.39179 0.0
C1064 C 0.56202 0.30628 0.5985 0.0
C1065 C 0.63253 0.30211 0.59352 0.0
C1066 C 0.53264 0.30801 0.63833 0.0
C1067 C 0.57249 0.30534 0.67452 0.0
H1068 H 0.52905 0.30817 0.57139 0.0
H1069 H 0.47802 0.31103 0.64075 0.0
S1070 S 0.76014 0.29502 0.67877 0.0
N1071 N 0.74202 0.29603 0.62824 0.0
N1072 N 0.68669 0.29913 0.70321 0.0
C1073 C 0.64336 0.3015 0.67008 0.0
C1074 C 0.67345 0.29995 0.62954 0.0
C1075 C 0.73778 0.9097 0.60086 0.0
C1076 C 0.66891 0.90815 0.58662 0.0
C1077 C 0.75403 0.90829 0.64341 0.0
C1078 C 0.7019 0.90542 0.67318 0.0
H1079 H 0.7793 0.91272 0.57924 0.0
H1080 H 0.80715 0.91037 0.6532 0.0
S1081 S 0.51556 0.89746 0.6518 0.0
N1082 N 0.54964 0.90139 0.60534 0.0
N1083 N 0.58035 0.89878 0.68542 0.0
C1084 C 0.63373 0.90256 0.65918 0.0
C1085 C 0.61719 0.90388 0.61583 0.0
C1086 C 0.25435 0.64632 0.35281 0.0
C1087 C 0.30801 0.64252 0.38111 0.0
C1088 C 0.26868 0.65078 0.31132 0.0
C1089 C 0.33715 0.65145 0.29636 0.0
H1090 H 0.20097 0.64674 0.3632 0.0
H1091 H 0.22569 0.65429 0.29123 0.0
S1092 S 0.49555 0.64009 0.3562 0.0
N1093 N 0.43176 0.63783 0.39019 0.0
N1094 N 0.45873 0.64616 0.3119 0.0
C1095 C 0.39099 0.64645 0.32344 0.0
C1096 C 0.3764 0.64202 0.36591 0.0
C1097 C 0.4713 0.07787 0.41769 0.0
C1098 C 0.43009 0.07553 0.45363 0.0
C1099 C 0.44602 0.074 0.3778 0.0
C1100 C 0.37816 0.06791 0.37204 0.0
H1101 H 0.52504 0.08175 0.42033 0.0
H1102 H 0.48088 0.07526 0.35136 0.0
S1103 S 0.24491 0.06246 0.45466 0.0
N1104 N 0.31483 0.06882 0.48021 0.0
N1105 N 0.26712 0.06175 0.40469 0.0
C1106 C 0.3342 0.06699 0.40705 0.0
C1107 C 0.3602 0.07077 0.44799 0.0
C1108 C 0.61285 0.81187 0.06694 0.0
C1109 C 0.68069 0.80739 0.05506 0.0
C1110 C 0.59735 0.81646 0.10822 0.0
C1111 C 0.64904 0.81658 0.13919 0.0
H1112 H 0.57067 0.8112 0.04456 0.0
H1113 H 0.54372 0.81885 0.11634 0.0
S1114 S 0.8367 0.8087 0.1231 0.0
N1115 N 0.80151 0.80549 0.07655 0.0
N1116 N 0.77214 0.81406 0.15438 0.0
C1117 C 0.71797 0.81347 0.12714 0.0
C1118 C 0.7339 0.80889 0.08498 0.0
C1119 C 0.74561 0.40154 0.07361 0.0
C1120 C 0.67739 0.39835 0.05978 0.0
C1121 C 0.7637 0.39981 0.11585 0.0
C1122 C 0.71414 0.39487 0.14566 0.0
H1123 H 0.78439 0.40653 0.05229 0.0
H1124 H 0.81522 0.40368 0.12556 0.0
S1125 S 0.53402 0.38066 0.12431 0.0
N1126 N 0.5641 0.38675 0.0782 0.0
N1127 N 0.5983 0.3836 0.15771 0.0
C1128 C 0.64823 0.38973 0.13163 0.0
C1129 C 0.6298 0.39141 0.08859 0.0
C1130 C 0.39998 0.13224 0.82854 0.0
C1131 C 0.34921 0.13926 0.8019 0.0
C1132 C 0.38595 0.12921 0.8708 0.0
C1133 C 0.32051 0.1329 0.88773 0.0
H1134 H 0.45284 0.13067 0.81782 0.0
H1135 H 0.42845 0.12553 0.89109 0.0
S1136 S 0.16398 0.14587 0.82825 0.0
N1137 N 0.22666 0.14572 0.79305 0.0
N1138 N 0.20013 0.13983 0.87279 0.0
C1139 C 0.26636 0.13709 0.86006 0.0
C1140 C 0.28079 0.14031 0.81688 0.0
C1141 C 0.31193 0.55168 0.86538 0.0
C1142 C 0.38034 0.55675 0.8745 0.0
C1143 C 0.29307 0.54622 0.82523 0.0
C1144 C 0.34213 0.54545 0.79282 0.0
H1145 H 0.27289 0.55144 0.88976 0.0
H1146 H 0.2404 0.54188 0.82013 0.0
S1147 S 0.52612 0.55921 0.799 0.0
N1148 N 0.49582 0.5621 0.84687 0.0
N1149 N 0.46041 0.55177 0.77122 0.0
C1150 C 0.40981 0.55137 0.80083 0.0
C1151 C 0.42889 0.55708 0.84172 0.0
loop_
_geom_bond_atom_site_label_1
_geom_bond_atom_site_label_2
_geom_bond_distance
_geom_bond_site_symmetry_2
_ccdc_geom_bond_type
C0 O1 1.306 1_455 S
C0 O3 1.160 . S
O1 C0 1.306 1_655 S
O1 Cd2 2.228 . S
Cd2 O1 2.228 . S
Cd2 O6 2.273 1_655 S
Cd2 O10 2.277 1_655 S
O3 C0 1.160 . S
O3 Cd4 2.203 . S
Cd4 O3 2.203 . S
Cd4 O6 2.411 . S
Cd4 O7 2.333 . S
Cd4 O8 2.352 . S
Cd4 O12 2.277 . S
Cd4 O13 2.356 . S
C5 O10 1.209 . S
C5 O12 1.226 . S
O6 Cd2 2.273 1_455 S
O6 Cd4 2.411 . S
O6 C9 1.320 . S
O7 Cd4 2.333 . S
O7 C9 1.214 . S
O8 Cd4 2.352 . S
O8 C11 1.258 . S
C9 O6 1.320 . S
C9 O7 1.214 . S
O10 Cd2 2.277 1_455 S
O10 C5 1.209 . S
C11 O8 1.258 . S
C11 O13 1.282 . S
O12 Cd4 2.277 . S
O12 C5 1.226 . S
O13 Cd4 2.356 . S
O13 C11 1.282 . S
C14 O15 1.306 . S
C14 O17 1.160 . S
O15 C14 1.306 . S
O15 Cd16 2.228 . S
Cd16 O15 2.228 . S
Cd16 O20 2.273 . S
Cd16 O24 2.277 . S
O17 C14 1.160 . S
O17 Cd18 2.203 . S
Cd18 O17 2.203 . S
Cd18 O20 2.411 . S
Cd18 O21 2.333 . S
Cd18 O22 2.352 . S
Cd18 O26 2.277 . S
Cd18 O27 2.356 1_455 S
C19 O24 1.209 . S
C19 O26 1.226 . S
O20 Cd16 2.273 . S
O20 Cd18 2.411 . S
O20 C23 1.320 . S
O21 Cd18 2.333 . S
O21 C23 1.214 . S
O22 Cd18 2.352 . S
O22 C25 1.258 . S
C23 O20 1.320 . S
C23 O21 1.214 . S
O24 Cd16 2.277 . S
O24 C19 1.209 . S
C25 O22 1.258 . S
C25 O27 1.282 1_455 S
O26 Cd18 2.277 . S
O26 C19 1.226 . S
O27 Cd18 2.356 1_655 S
O27 C25 1.282 1_655 S
C28 O29 1.306 1_455 S
C28 O31 1.160 . S
O29 C28 1.306 1_655 S
O29 Cd30 2.228 . S
Cd30 O29 2.228 . S
Cd30 O34 2.273 1_655 S
Cd30 O38 2.277 1_656 S
O31 C28 1.160 . S
O31 Cd32 2.203 . S
Cd32 O31 2.203 . S
Cd32 O34 2.411 . S
Cd32 O35 2.333 . S
Cd32 O36 2.352 . S
Cd32 O40 2.277 1_556 S
Cd32 O41 2.356 . S
C33 O38 1.209 . S
C33 O40 1.226 . S
O34 Cd30 2.273 1_455 S
O34 Cd32 2.411 . S
O34 C37 1.320 . S
O35 Cd32 2.333 . S
O35 C37 1.214 . S
O36 Cd32 2.352 . S
O36 C39 1.258 . S
C37 O34 1.320 . S
C37 O35 1.214 . S
O38 Cd30 2.277 1_454 S
O38 C33 1.209 . S
C39 O36 1.258 . S
C39 O41 1.282 . S
O40 Cd32 2.277 1_554 S
O40 C33 1.226 . S
O41 Cd32 2.356 . S
O41 C39 1.282 . S
C42 O43 1.306 . S
C42 O45 1.160 . S
O43 C42 1.306 . S
O43 Cd44 2.228 . S
Cd44 O43 2.228 . S
Cd44 O48 2.273 . S
Cd44 O52 2.277 1_556 S
O45 C42 1.160 . S
O45 Cd46 2.203 . S
Cd46 O45 2.203 . S
Cd46 O48 2.411 . S
Cd46 O49 2.333 . S
Cd46 O50 2.352 . S
Cd46 O54 2.277 1_556 S
Cd46 O55 2.356 1_455 S
C47 O52 1.209 . S
C47 O54 1.226 . S
O48 Cd44 2.273 . S
O48 Cd46 2.411 . S
O48 C51 1.320 . S
O49 Cd46 2.333 . S
O49 C51 1.214 . S
O50 Cd46 2.352 . S
O50 C53 1.258 . S
C51 O48 1.320 . S
C51 O49 1.214 . S
O52 Cd44 2.277 1_554 S
O52 C47 1.209 . S
C53 O50 1.258 . S
C53 O55 1.282 1_455 S
O54 Cd46 2.277 1_554 S
O54 C47 1.226 . S
O55 Cd46 2.356 1_655 S
O55 C53 1.282 1_655 S
C56 O57 1.306 1_655 S
C56 O59 1.160 . S
O57 C56 1.306 1_455 S
O57 Cd58 2.228 . S
Cd58 O57 2.228 . S
Cd58 O62 2.273 1_455 S
Cd58 O66 2.277 1_455 S
O59 C56 1.160 . S
O59 Cd60 2.203 . S
Cd60 O59 2.203 . S
Cd60 O62 2.411 . S
Cd60 O63 2.333 . S
Cd60 O64 2.352 . S
Cd60 O68 2.277 . S
Cd60 O69 2.356 . S
C61 O66 1.209 . S
C61 O68 1.226 . S
O62 Cd58 2.273 1_655 S
O62 Cd60 2.411 . S
O62 C65 1.320 . S
O63 Cd60 2.333 . S
O63 C65 1.214 . S
O64 Cd60 2.352 . S
O64 C67 1.258 . S
C65 O62 1.320 . S
C65 O63 1.214 . S
O66 Cd58 2.277 1_655 S
O66 C61 1.209 . S
C67 O64 1.258 . S
C67 O69 1.282 . S
O68 Cd60 2.277 . S
O68 C61 1.226 . S
O69 Cd60 2.356 . S
O69 C67 1.282 . S
C70 O71 1.306 . S
C70 O73 1.160 . S
O71 C70 1.306 . S
O71 Cd72 2.228 . S
Cd72 O71 2.228 . S
Cd72 O76 2.273 . S
Cd72 O80 2.277 . S
O73 C70 1.160 . S
O73 Cd74 2.203 . S
Cd74 O73 2.203 . S
Cd74 O76 2.411 . S
Cd74 O77 2.333 . S
Cd74 O78 2.352 . S
Cd74 O82 2.277 . S
Cd74 O83 2.356 1_655 S
C75 O80 1.209 . S
C75 O82 1.226 . S
O76 Cd72 2.273 . S
O76 Cd74 2.411 . S
O76 C79 1.320 . S
O77 Cd74 2.333 . S
O77 C79 1.214 . S
O78 Cd74 2.352 . S
O78 C81 1.258 . S
C79 O76 1.320 . S
C79 O77 1.214 . S
O80 Cd72 2.277 . S
O80 C75 1.209 . S
C81 O78 1.258 . S
C81 O83 1.282 1_655 S
O82 Cd74 2.277 . S
O82 C75 1.226 . S
O83 Cd74 2.356 1_455 S
O83 C81 1.282 1_455 S
C84 O85 1.306 1_655 S
C84 O87 1.160 . S
O85 C84 1.306 1_455 S
O85 Cd86 2.228 . S
Cd86 O85 2.228 . S
Cd86 O90 2.273 1_455 S
Cd86 O94 2.277 1_454 S
O87 C84 1.160 . S
O87 Cd88 2.203 . S
Cd88 O87 2.203 . S
Cd88 O90 2.411 . S
Cd88 O91 2.333 . S
Cd88 O92 2.352 . S
Cd88 O96 2.277 1_554 S
Cd88 O97 2.356 . S
C89 O94 1.209 . S
C89 O96 1.226 . S
O90 Cd86 2.273 1_655 S
O90 Cd88 2.411 . S
O90 C93 1.320 . S
O91 Cd88 2.333 . S
O91 C93 1.214 . S
O92 Cd88 2.352 . S
O92 C95 1.258 . S
C93 O90 1.320 . S
C93 O91 1.214 . S
O94 Cd86 2.277 1_656 S
O94 C89 1.209 . S
C95 O92 1.258 . S
C95 O97 1.282 . S
O96 Cd88 2.277 1_556 S
O96 C89 1.226 . S
O97 Cd88 2.356 . S
O97 C95 1.282 . S
C98 O99 1.306 . S
C98 O101 1.160 . S
O99 C98 1.306 . S
O99 Cd100 2.228 . S
Cd100 O99 2.228 . S
Cd100 O104 2.273 . S
Cd100 O108 2.277 1_554 S
O101 C98 1.160 . S
O101 Cd102 2.203 . S
Cd102 O101 2.203 . S
Cd102 O104 2.411 . S
Cd102 O105 2.333 . S
Cd102 O106 2.352 . S
Cd102 O110 2.277 1_554 S
Cd102 O111 2.356 1_655 S
C103 O108 1.209 . S
C103 O110 1.226 . S
O104 Cd100 2.273 . S
O104 Cd102 2.411 . S
O104 C107 1.320 . S
O105 Cd102 2.333 . S
O105 C107 1.214 . S
O106 Cd102 2.352 . S
O106 C109 1.258 . S
C107 O104 1.320 . S
C107 O105 1.214 . S
O108 Cd100 2.277 1_556 S
O108 C103 1.209 . S
C109 O106 1.258 . S
C109 O111 1.282 1_655 S
O110 Cd102 2.277 1_556 S
O110 C103 1.226 . S
O111 Cd102 2.356 1_455 S
O111 C109 1.282 1_455 S
C112 O113 1.306 1_455 S
C112 O115 1.160 . S
O113 C112 1.306 1_655 S
O113 Cd114 2.228 . S
Cd114 O113 2.228 . S
Cd114 O118 2.273 1_655 S
Cd114 O122 2.277 1_655 S
O115 C112 1.160 . S
O115 Cd116 2.203 . S
Cd116 O115 2.203 . S
Cd116 O118 2.411 . S
Cd116 O119 2.333 . S
Cd116 O120 2.352 . S
Cd116 O124 2.277 . S
Cd116 O125 2.356 . S
C117 O122 1.209 . S
C117 O124 1.226 . S
O118 Cd114 2.273 1_455 S
O118 Cd116 2.411 . S
O118 C121 1.320 . S
O119 Cd116 2.333 . S
O119 C121 1.214 . S
O120 Cd116 2.352 . S
O120 C123 1.258 . S
C121 O118 1.320 . S
C121 O119 1.214 . S
O122 Cd114 2.277 1_455 S
O122 C117 1.209 . S
C123 O120 1.258 . S
C123 O125 1.282 . S
O124 Cd116 2.277 . S
O124 C117 1.226 . S
O125 Cd116 2.356 . S
O125 C123 1.282 . S
C126 O127 1.306 . S
C126 O129 1.160 . S
O127 C126 1.306 . S
O127 Cd128 2.228 . S
Cd128 O127 2.228 . S
Cd128 O132 2.273 . S
Cd128 O136 2.277 . S
O129 C126 1.160 . S
O129 Cd130 2.203 . S
Cd130 O129 2.203 . S
Cd130 O132 2.411 . S
Cd130 O133 2.333 . S
Cd130 O134 2.352 . S
Cd130 O138 2.277 . S
Cd130 O139 2.356 1_455 S
C131 O136 1.209 . S
C131 O138 1.226 . S
O132 Cd128 2.273 . S
O132 Cd130 2.411 . S
O132 C135 1.320 . S
O133 Cd130 2.333 . S
O133 C135 1.214 . S
O134 Cd130 2.352 . S
O134 C137 1.258 . S
C135 O132 1.320 . S
C135 O133 1.214 . S
O136 Cd128 2.277 . S
O136 C131 1.209 . S
C137 O134 1.258 . S
C137 O139 1.282 1_455 S
O138 Cd130 2.277 . S
O138 C131 1.226 . S
O139 Cd130 2.356 1_655 S
O139 C137 1.282 1_655 S
C140 O141 1.306 1_455 S
C140 O143 1.160 . S
O141 C140 1.306 1_655 S
O141 Cd142 2.228 . S
Cd142 O141 2.228 . S
Cd142 O146 2.273 1_655 S
Cd142 O150 2.277 1_655 S
O143 C140 1.160 . S
O143 Cd144 2.203 . S
Cd144 O143 2.203 . S
Cd144 O146 2.411 . S
Cd144 O147 2.333 . S
Cd144 O148 2.352 . S
Cd144 O152 2.277 . S
Cd144 O153 2.356 . S
C145 O150 1.209 . S
C145 O152 1.226 . S
O146 Cd142 2.273 1_455 S
O146 Cd144 2.411 . S
O146 C149 1.320 . S
O147 Cd144 2.333 . S
O147 C149 1.214 . S
O148 Cd144 2.352 . S
O148 C151 1.258 . S
C149 O146 1.320 . S
C149 O147 1.214 . S
O150 Cd142 2.277 1_455 S
O150 C145 1.209 . S
C151 O148 1.258 . S
C151 O153 1.282 . S
O152 Cd144 2.277 . S
O152 C145 1.226 . S
O153 Cd144 2.356 . S
O153 C151 1.282 . S
C154 O155 1.306 . S
C154 O157 1.160 . S
O155 C154 1.306 . S
O155 Cd156 2.228 . S
Cd156 O155 2.228 . S
Cd156 O160 2.273 . S
Cd156 O164 2.277 . S
O157 C154 1.160 . S
O157 Cd158 2.203 . S
Cd158 O157 2.203 . S
Cd158 O160 2.411 . S
Cd158 O161 2.333 . S
Cd158 O162 2.352 . S
Cd158 O166 2.277 . S
Cd158 O167 2.356 1_455 S
C159 O164 1.209 . S
C159 O166 1.226 . S
O160 Cd156 2.273 . S
O160 Cd158 2.411 . S
O160 C163 1.320 . S
O161 Cd158 2.333 . S
O161 C163 1.214 . S
O162 Cd158 2.352 . S
O162 C165 1.258 . S
C163 O160 1.320 . S
C163 O161 1.214 . S
O164 Cd156 2.277 . S
O164 C159 1.209 . S
C165 O162 1.258 . S
C165 O167 1.282 1_455 S
O166 Cd158 2.277 . S
O166 C159 1.226 . S
O167 Cd158 2.356 1_655 S
O167 C165 1.282 1_655 S
C168 O169 1.306 1_655 S
C168 O171 1.160 . S
O169 C168 1.306 1_455 S
O169 Cd170 2.228 . S
Cd170 O169 2.228 . S
Cd170 O174 2.273 1_455 S
Cd170 O178 2.277 1_455 S
O171 C168 1.160 . S
O171 Cd172 2.203 . S
Cd172 O171 2.203 . S
Cd172 O174 2.411 . S
Cd172 O175 2.333 . S
Cd172 O176 2.352 . S
Cd172 O180 2.277 . S
Cd172 O181 2.356 . S
C173 O178 1.209 . S
C173 O180 1.226 . S
O174 Cd170 2.273 1_655 S
O174 Cd172 2.411 . S
O174 C177 1.320 . S
O175 Cd172 2.333 . S
O175 C177 1.214 . S
O176 Cd172 2.352 . S
O176 C179 1.258 . S
C177 O174 1.320 . S
C177 O175 1.214 . S
O178 Cd170 2.277 1_655 S
O178 C173 1.209 . S
C179 O176 1.258 . S
C179 O181 1.282 . S
O180 Cd172 2.277 . S
O180 C173 1.226 . S
O181 Cd172 2.356 . S
O181 C179 1.282 . S
C182 O183 1.306 . S
C182 O185 1.160 . S
O183 C182 1.306 . S
O183 Cd184 2.228 . S
Cd184 O183 2.228 . S
Cd184 O188 2.273 . S
Cd184 O192 2.277 . S
O185 C182 1.160 . S
O185 Cd186 2.203 . S
Cd186 O185 2.203 . S
Cd186 O188 2.411 . S
Cd186 O189 2.333 . S
Cd186 O190 2.352 . S
Cd186 O194 2.277 . S
Cd186 O195 2.356 1_655 S
C187 O192 1.209 . S
C187 O194 1.226 . S
O188 Cd184 2.273 . S
O188 Cd186 2.411 . S
O188 C191 1.320 . S
O189 Cd186 2.333 . S
O189 C191 1.214 . S
O190 Cd186 2.352 . S
O190 C193 1.258 . S
C191 O188 1.320 . S
C191 O189 1.214 . S
O192 Cd184 2.277 . S
O192 C187 1.209 . S
C193 O190 1.258 . S
C193 O195 1.282 1_655 S
O194 Cd186 2.277 . S
O194 C187 1.226 . S
O195 Cd186 2.356 1_455 S
O195 C193 1.282 1_455 S
C196 O197 1.306 1_655 S
C196 O199 1.160 . S
O197 C196 1.306 1_455 S
O197 Cd198 2.228 . S
Cd198 O197 2.228 . S
Cd198 O202 2.273 1_455 S
Cd198 O206 2.277 1_455 S
O199 C196 1.160 . S
O199 Cd200 2.203 . S
Cd200 O199 2.203 . S
Cd200 O202 2.411 . S
Cd200 O203 2.333 . S
Cd200 O204 2.352 . S
Cd200 O208 2.277 . S
Cd200 O209 2.356 . S
C201 O206 1.209 . S
C201 O208 1.226 . S
O202 Cd198 2.273 1_655 S
O202 Cd200 2.411 . S
O202 C205 1.320 . S
O203 Cd200 2.333 . S
O203 C205 1.214 . S
O204 Cd200 2.352 . S
O204 C207 1.258 . S
C205 O202 1.320 . S
C205 O203 1.214 . S
O206 Cd198 2.277 1_655 S
O206 C201 1.209 . S
C207 O204 1.258 . S
C207 O209 1.282 . S
O208 Cd200 2.277 . S
O208 C201 1.226 . S
O209 Cd200 2.356 . S
O209 C207 1.282 . S
C210 O211 1.306 . S
C210 O213 1.160 . S
O211 C210 1.306 . S
O211 Cd212 2.228 . S
Cd212 O211 2.228 . S
Cd212 O216 2.273 . S
Cd212 O220 2.277 . S
O213 C210 1.160 . S
O213 Cd214 2.203 . S
Cd214 O213 2.203 . S
Cd214 O216 2.411 . S
Cd214 O217 2.333 . S
Cd214 O218 2.352 . S
Cd214 O222 2.277 . S
Cd214 O223 2.356 1_655 S
C215 O220 1.209 . S
C215 O222 1.226 . S
O216 Cd212 2.273 . S
O216 Cd214 2.411 . S
O216 C219 1.320 . S
O217 Cd214 2.333 . S
O217 C219 1.214 . S
O218 Cd214 2.352 . S
O218 C221 1.258 . S
C219 O216 1.320 . S
C219 O217 1.214 . S
O220 Cd212 2.277 . S
O220 C215 1.209 . S
C221 O218 1.258 . S
C221 O223 1.282 1_655 S
O222 Cd214 2.277 . S
O222 C215 1.226 . S
O223 Cd214 2.356 1_455 S
O223 C221 1.282 1_455 S
C224 O225 1.306 . S
C224 O227 1.160 . S
O225 C224 1.306 . S
O225 Cd226 2.228 . S
Cd226 O225 2.228 . S
Cd226 O230 2.273 . S
Cd226 O234 2.277 . S
O227 C224 1.160 . S
O227 Cd228 2.203 . S
Cd228 O227 2.203 . S
Cd228 O230 2.411 . S
Cd228 O231 2.333 . S
Cd228 O232 2.352 . S
Cd228 O236 2.277 . S
Cd228 O237 2.356 . S
C229 O234 1.209 . S
C229 O236 1.226 . S
O230 Cd226 2.273 . S
O230 Cd228 2.411 . S
O230 C233 1.320 . S
O231 Cd228 2.333 . S
O231 C233 1.214 . S
O232 Cd228 2.352 . S
O232 C235 1.258 . S
C233 O230 1.320 . S
C233 O231 1.214 . S
O234 Cd226 2.277 . S
O234 C229 1.209 . S
C235 O232 1.258 . S
C235 O237 1.282 . S
O236 Cd228 2.277 . S
O236 C229 1.226 . S
O237 Cd228 2.356 . S
O237 C235 1.282 . S
C238 O239 1.306 . S
C238 O241 1.160 . S
O239 C238 1.306 . S
O239 Cd240 2.228 . S
Cd240 O239 2.228 . S
Cd240 O244 2.273 . S
Cd240 O248 2.277 . S
O241 C238 1.160 . S
O241 Cd242 2.203 . S
Cd242 O241 2.203 . S
Cd242 O244 2.411 . S
Cd242 O245 2.333 . S
Cd242 O246 2.352 . S
Cd242 O250 2.277 . S
Cd242 O251 2.356 . S
C243 O248 1.209 . S
C243 O250 1.226 . S
O244 Cd240 2.273 . S
O244 Cd242 2.411 . S
O244 C247 1.320 . S
O245 Cd242 2.333 . S
O245 C247 1.214 . S
O246 Cd242 2.352 . S
O246 C249 1.258 . S
C247 O244 1.320 . S
C247 O245 1.214 . S
O248 Cd240 2.277 . S
O248 C243 1.209 . S
C249 O246 1.258 . S
C249 O251 1.282 . S
O250 Cd242 2.277 . S
O250 C243 1.226 . S
O251 Cd242 2.356 . S
O251 C249 1.282 . S
C252 O253 1.306 . S
C252 O255 1.160 . S
O253 C252 1.306 . S
O253 Cd254 2.228 . S
Cd254 O253 2.228 . S
Cd254 O258 2.273 . S
Cd254 O262 2.277 . S
O255 C252 1.160 . S
O255 Cd256 2.203 . S
Cd256 O255 2.203 . S
Cd256 O258 2.411 . S
Cd256 O259 2.333 . S
Cd256 O260 2.352 . S
Cd256 O264 2.277 . S
Cd256 O265 2.356 . S
C257 O262 1.209 . S
C257 O264 1.226 . S
O258 Cd254 2.273 . S
O258 Cd256 2.411 . S
O258 C261 1.320 . S
O259 Cd256 2.333 . S
O259 C261 1.214 . S
O260 Cd256 2.352 . S
O260 C263 1.258 . S
C261 O258 1.320 . S
C261 O259 1.214 . S
O262 Cd254 2.277 . S
O262 C257 1.209 . S
C263 O260 1.258 . S
C263 O265 1.282 . S
O264 Cd256 2.277 . S
O264 C257 1.226 . S
O265 Cd256 2.356 . S
O265 C263 1.282 . S
C266 O267 1.306 . S
C266 O269 1.160 . S
O267 C266 1.306 . S
O267 Cd268 2.228 . S
Cd268 O267 2.228 . S
Cd268 O272 2.273 . S
Cd268 O276 2.277 . S
O269 C266 1.160 . S
O269 Cd270 2.203 . S
Cd270 O269 2.203 . S
Cd270 O272 2.411 . S
Cd270 O273 2.333 . S
Cd270 O274 2.352 . S
Cd270 O278 2.277 . S
Cd270 O279 2.356 . S
C271 O276 1.209 . S
C271 O278 1.226 . S
O272 Cd268 2.273 . S
O272 Cd270 2.411 . S
O272 C275 1.320 . S
O273 Cd270 2.333 . S
O273 C275 1.214 . S
O274 Cd270 2.352 . S
O274 C277 1.258 . S
C275 O272 1.320 . S
C275 O273 1.214 . S
O276 Cd268 2.277 . S
O276 C271 1.209 . S
C277 O274 1.258 . S
C277 O279 1.282 . S
O278 Cd270 2.277 . S
O278 C271 1.226 . S
O279 Cd270 2.356 . S
O279 C277 1.282 . S
C280 O281 1.306 . S
C280 O283 1.160 . S
O281 C280 1.306 . S
O281 Cd282 2.228 . S
Cd282 O281 2.228 . S
Cd282 O286 2.273 . S
Cd282 O290 2.277 . S
O283 C280 1.160 . S
O283 Cd284 2.203 . S
Cd284 O283 2.203 . S
Cd284 O286 2.411 . S
Cd284 O287 2.333 . S
Cd284 O288 2.352 . S
Cd284 O292 2.277 . S
Cd284 O293 2.356 . S
C285 O290 1.209 . S
C285 O292 1.226 . S
O286 Cd282 2.273 . S
O286 Cd284 2.411 . S
O286 C289 1.320 . S
O287 Cd284 2.333 . S
O287 C289 1.214 . S
O288 Cd284 2.352 . S
O288 C291 1.258 . S
C289 O286 1.320 . S
C289 O287 1.214 . S
O290 Cd282 2.277 . S
O290 C285 1.209 . S
C291 O288 1.258 . S
C291 O293 1.282 . S
O292 Cd284 2.277 . S
O292 C285 1.226 . S
O293 Cd284 2.356 . S
O293 C291 1.282 . S
C294 O295 1.306 . S
C294 O297 1.160 . S
O295 C294 1.306 . S
O295 Cd296 2.228 . S
Cd296 O295 2.228 . S
Cd296 O300 2.273 . S
Cd296 O304 2.277 . S
O297 C294 1.160 . S
O297 Cd298 2.203 . S
Cd298 O297 2.203 . S
Cd298 O300 2.411 . S
Cd298 O301 2.333 . S
Cd298 O302 2.352 . S
Cd298 O306 2.277 . S
Cd298 O307 2.356 . S
C299 O304 1.209 . S
C299 O306 1.226 . S
O300 Cd296 2.273 . S
O300 Cd298 2.411 . S
O300 C303 1.320 . S
O301 Cd298 2.333 . S
O301 C303 1.214 . S
O302 Cd298 2.352 . S
O302 C305 1.258 . S
C303 O300 1.320 . S
C303 O301 1.214 . S
O304 Cd296 2.277 . S
O304 C299 1.209 . S
C305 O302 1.258 . S
C305 O307 1.282 . S
O306 Cd298 2.277 . S
O306 C299 1.226 . S
O307 Cd298 2.356 . S
O307 C305 1.282 . S
C308 O309 1.306 . S
C308 O311 1.160 . S
O309 C308 1.306 . S
O309 Cd310 2.228 . S
Cd310 O309 2.228 . S
Cd310 O314 2.273 . S
Cd310 O318 2.277 . S
O311 C308 1.160 . S
O311 Cd312 2.203 . S
Cd312 O311 2.203 . S
Cd312 O314 2.411 . S
Cd312 O315 2.333 . S
Cd312 O316 2.352 . S
Cd312 O320 2.277 . S
Cd312 O321 2.356 . S
C313 O318 1.209 . S
C313 O320 1.226 . S
O314 Cd310 2.273 . S
O314 Cd312 2.411 . S
O314 C317 1.320 . S
O315 Cd312 2.333 . S
O315 C317 1.214 . S
O316 Cd312 2.352 . S
O316 C319 1.258 . S
C317 O314 1.320 . S
C317 O315 1.214 . S
O318 Cd310 2.277 . S
O318 C313 1.209 . S
C319 O316 1.258 . S
C319 O321 1.282 . S
O320 Cd312 2.277 . S
O320 C313 1.226 . S
O321 Cd312 2.356 . S
O321 C319 1.282 . S
C322 O323 1.306 . S
C322 O325 1.160 . S
O323 C322 1.306 . S
O323 Cd324 2.228 . S
Cd324 O323 2.228 . S
Cd324 O328 2.273 . S
Cd324 O332 2.277 . S
O325 C322 1.160 . S
O325 Cd326 2.203 . S
Cd326 O325 2.203 . S
Cd326 O328 2.411 . S
Cd326 O329 2.333 . S
Cd326 O330 2.352 . S
Cd326 O334 2.277 . S
Cd326 O335 2.356 . S
C327 O332 1.209 . S
C327 O334 1.226 . S
O328 Cd324 2.273 . S
O328 Cd326 2.411 . S
O328 C331 1.320 . S
O329 Cd326 2.333 . S
O329 C331 1.214 . S
O330 Cd326 2.352 . S
O330 C333 1.258 . S
C331 O328 1.320 . S
C331 O329 1.214 . S
O332 Cd324 2.277 . S
O332 C327 1.209 . S
C333 O330 1.258 . S
C333 O335 1.282 . S
O334 Cd326 2.277 . S
O334 C327 1.226 . S
O335 Cd326 2.356 . S
O335 C333 1.282 . S
C336 O337 1.306 . S
C336 O339 1.160 . S
O337 C336 1.306 . S
O337 Cd338 2.228 . S
Cd338 O337 2.228 . S
Cd338 O342 2.273 . S
Cd338 O346 2.277 . S
O339 C336 1.160 . S
O339 Cd340 2.203 . S
Cd340 O339 2.203 . S
Cd340 O342 2.411 . S
Cd340 O343 2.333 . S
Cd340 O344 2.352 . S
Cd340 O348 2.277 . S
Cd340 O349 2.356 . S
C341 O346 1.209 . S
C341 O348 1.226 . S
O342 Cd338 2.273 . S
O342 Cd340 2.411 . S
O342 C345 1.320 . S
O343 Cd340 2.333 . S
O343 C345 1.214 . S
O344 Cd340 2.352 . S
O344 C347 1.258 . S
C345 O342 1.320 . S
C345 O343 1.214 . S
O346 Cd338 2.277 . S
O346 C341 1.209 . S
C347 O344 1.258 . S
C347 O349 1.282 . S
O348 Cd340 2.277 . S
O348 C341 1.226 . S
O349 Cd340 2.356 . S
O349 C347 1.282 . S
C350 O351 1.306 . S
C350 O353 1.160 . S
O351 C350 1.306 . S
O351 Cd352 2.228 . S
Cd352 O351 2.228 . S
Cd352 O356 2.273 . S
Cd352 O360 2.277 . S
O353 C350 1.160 . S
O353 Cd354 2.203 . S
Cd354 O353 2.203 . S
Cd354 O356 2.411 . S
Cd354 O357 2.333 . S
Cd354 O358 2.352 . S
Cd354 O362 2.277 . S
Cd354 O363 2.356 . S
C355 O360 1.209 . S
C355 O362 1.226 . S
O356 Cd352 2.273 . S
O356 Cd354 2.411 . S
O356 C359 1.320 . S
O357 Cd354 2.333 . S
O357 C359 1.214 . S
O358 Cd354 2.352 . S
O358 C361 1.258 . S
C359 O356 1.320 . S
C359 O357 1.214 . S
O360 Cd352 2.277 . S
O360 C355 1.209 . S
C361 O358 1.258 . S
C361 O363 1.282 . S
O362 Cd354 2.277 . S
O362 C355 1.226 . S
O363 Cd354 2.356 . S
O363 C361 1.282 . S
C364 O365 1.306 . S
C364 O367 1.160 . S
O365 C364 1.306 . S
O365 Cd366 2.228 . S
Cd366 O365 2.228 . S
Cd366 O370 2.273 . S
Cd366 O374 2.277 1_556 S
O367 C364 1.160 . S
O367 Cd368 2.203 . S
Cd368 O367 2.203 . S
Cd368 O370 2.411 . S
Cd368 O371 2.333 . S
Cd368 O372 2.352 . S
Cd368 O376 2.277 1_556 S
Cd368 O377 2.356 . S
C369 O374 1.209 . S
C369 O376 1.226 . S
O370 Cd366 2.273 . S
O370 Cd368 2.411 . S
O370 C373 1.320 . S
O371 Cd368 2.333 . S
O371 C373 1.214 . S
O372 Cd368 2.352 . S
O372 C375 1.258 . S
C373 O370 1.320 . S
C373 O371 1.214 . S
O374 Cd366 2.277 1_554 S
O374 C369 1.209 . S
C375 O372 1.258 . S
C375 O377 1.282 . S
O376 Cd368 2.277 1_554 S
O376 C369 1.226 . S
O377 Cd368 2.356 . S
O377 C375 1.282 . S
C378 O379 1.306 . S
C378 O381 1.160 . S
O379 C378 1.306 . S
O379 Cd380 2.228 . S
Cd380 O379 2.228 . S
Cd380 O384 2.273 . S
Cd380 O388 2.277 1_556 S
O381 C378 1.160 . S
O381 Cd382 2.203 . S
Cd382 O381 2.203 . S
Cd382 O384 2.411 . S
Cd382 O385 2.333 . S
Cd382 O386 2.352 . S
Cd382 O390 2.277 1_556 S
Cd382 O391 2.356 . S
C383 O388 1.209 . S
C383 O390 1.226 . S
O384 Cd380 2.273 . S
O384 Cd382 2.411 . S
O384 C387 1.320 . S
O385 Cd382 2.333 . S
O385 C387 1.214 . S
O386 Cd382 2.352 . S
O386 C389 1.258 . S
C387 O384 1.320 . S
C387 O385 1.214 . S
O388 Cd380 2.277 1_554 S
O388 C383 1.209 . S
C389 O386 1.258 . S
C389 O391 1.282 . S
O390 Cd382 2.277 1_554 S
O390 C383 1.226 . S
O391 Cd382 2.356 . S
O391 C389 1.282 . S
C392 O393 1.306 . S
C392 O395 1.160 . S
O393 C392 1.306 . S
O393 Cd394 2.228 . S
Cd394 O393 2.228 . S
Cd394 O398 2.273 . S
Cd394 O402 2.277 . S
O395 C392 1.160 . S
O395 Cd396 2.203 . S
Cd396 O395 2.203 . S
Cd396 O398 2.411 . S
Cd396 O399 2.333 . S
Cd396 O400 2.352 . S
Cd396 O404 2.277 . S
Cd396 O405 2.356 . S
C397 O402 1.209 . S
C397 O404 1.226 . S
O398 Cd394 2.273 . S
O398 Cd396 2.411 . S
O398 C401 1.320 . S
O399 Cd396 2.333 . S
O399 C401 1.214 . S
O400 Cd396 2.352 . S
O400 C403 1.258 . S
C401 O398 1.320 . S
C401 O399 1.214 . S
O402 Cd394 2.277 . S
O402 C397 1.209 . S
C403 O400 1.258 . S
C403 O405 1.282 . S
O404 Cd396 2.277 . S
O404 C397 1.226 . S
O405 Cd396 2.356 . S
O405 C403 1.282 . S
C406 O407 1.306 . S
C406 O409 1.160 . S
O407 C406 1.306 . S
O407 Cd408 2.228 . S
Cd408 O407 2.228 . S
Cd408 O412 2.273 . S
Cd408 O416 2.277 . S
O409 C406 1.160 . S
O409 Cd410 2.203 . S
Cd410 O409 2.203 . S
Cd410 O412 2.411 . S
Cd410 O413 2.333 . S
Cd410 O414 2.352 . S
Cd410 O418 2.277 . S
Cd410 O419 2.356 . S
C411 O416 1.209 . S
C411 O418 1.226 . S
O412 Cd408 2.273 . S
O412 Cd410 2.411 . S
O412 C415 1.320 . S
O413 Cd410 2.333 . S
O413 C415 1.214 . S
O414 Cd410 2.352 . S
O414 C417 1.258 . S
C415 O412 1.320 . S
C415 O413 1.214 . S
O416 Cd408 2.277 . S
O416 C411 1.209 . S
C417 O414 1.258 . S
C417 O419 1.282 . S
O418 Cd410 2.277 . S
O418 C411 1.226 . S
O419 Cd410 2.356 . S
O419 C417 1.282 . S
C420 O421 1.306 . S
C420 O423 1.160 . S
O421 C420 1.306 . S
O421 Cd422 2.228 . S
Cd422 O421 2.228 . S
Cd422 O426 2.273 . S
Cd422 O430 2.277 1_554 S
O423 C420 1.160 . S
O423 Cd424 2.203 . S
Cd424 O423 2.203 . S
Cd424 O426 2.411 . S
Cd424 O427 2.333 . S
Cd424 O428 2.352 . S
Cd424 O432 2.277 1_554 S
Cd424 O433 2.356 . S
C425 O430 1.209 . S
C425 O432 1.226 . S
O426 Cd422 2.273 . S
O426 Cd424 2.411 . S
O426 C429 1.320 . S
O427 Cd424 2.333 . S
O427 C429 1.214 . S
O428 Cd424 2.352 . S
O428 C431 1.258 . S
C429 O426 1.320 . S
C429 O427 1.214 . S
O430 Cd422 2.277 1_556 S
O430 C425 1.209 . S
C431 O428 1.258 . S
C431 O433 1.282 . S
O432 Cd424 2.277 1_556 S
O432 C425 1.226 . S
O433 Cd424 2.356 . S
O433 C431 1.282 . S
C434 O435 1.306 . S
C434 O437 1.160 . S
O435 C434 1.306 . S
O435 Cd436 2.228 . S
Cd436 O435 2.228 . S
Cd436 O440 2.273 . S
Cd436 O444 2.277 1_554 S
O437 C434 1.160 . S
O437 Cd438 2.203 . S
Cd438 O437 2.203 . S
Cd438 O440 2.411 . S
Cd438 O441 2.333 . S
Cd438 O442 2.352 . S
Cd438 O446 2.277 1_554 S
Cd438 O447 2.356 . S
C439 O444 1.209 . S
C439 O446 1.226 . S
O440 Cd436 2.273 . S
O440 Cd438 2.411 . S
O440 C443 1.320 . S
O441 Cd438 2.333 . S
O441 C443 1.214 . S
O442 Cd438 2.352 . S
O442 C445 1.258 . S
C443 O440 1.320 . S
C443 O441 1.214 . S
O444 Cd436 2.277 1_556 S
O444 C439 1.209 . S
C445 O442 1.258 . S
C445 O447 1.282 . S
O446 Cd438 2.277 1_556 S
O446 C439 1.226 . S
O447 Cd438 2.356 . S
O447 C445 1.282 . S
C448 C449 1.369 . S
C448 C450 1.419 . S
C448 H452 0.930 1_455 S
C449 C448 1.369 . S
C449 C458 1.429 . S
C450 C448 1.419 . S
C450 C451 1.363 . S
C450 H453 0.929 1_455 S
C451 C450 1.363 . S
C451 C457 1.428 . S
H452 C448 0.930 1_655 S
H453 C450 0.929 1_655 S
S454 N455 1.613 . S
S454 N456 1.610 . S
N455 S454 1.613 . S
N455 C458 1.350 . S
N456 S454 1.610 . S
N456 C457 1.351 . S
C457 C451 1.428 . S
C457 N456 1.351 . S
C457 C458 1.434 . S
C458 C449 1.429 . S
C458 N455 1.350 . S
C458 C457 1.434 . S
C459 C460 1.369 . S
C459 C461 1.419 . S
C459 H463 0.930 . S
C460 C459 1.369 . S
C460 C469 1.429 . S
C461 C459 1.419 . S
C461 C462 1.363 . S
C461 H464 0.929 . S
C462 C461 1.363 . S
C462 C468 1.428 . S
H463 C459 0.930 . S
H464 C461 0.929 . S
S465 N466 1.613 . S
S465 N467 1.610 . S
N466 S465 1.613 . S
N466 C469 1.350 . S
N467 S465 1.610 . S
N467 C468 1.351 . S
C468 C462 1.428 . S
C468 N467 1.351 . S
C468 C469 1.434 . S
C469 C460 1.429 . S
C469 N466 1.350 . S
C469 C468 1.434 . S
C470 C471 1.369 . S
C470 C472 1.419 . S
C470 H474 0.930 . S
C471 C470 1.369 . S
C471 C480 1.429 . S
C472 C470 1.419 . S
C472 C473 1.363 . S
C472 H475 0.929 . S
C473 C472 1.363 . S
C473 C479 1.428 . S
H474 C470 0.930 . S
H475 C472 0.929 . S
S476 N477 1.613 . S
S476 N478 1.610 . S
N477 S476 1.613 . S
N477 C480 1.350 . S
N478 S476 1.610 . S
N478 C479 1.351 . S
C479 C473 1.428 . S
C479 N478 1.351 . S
C479 C480 1.434 . S
C480 C471 1.429 . S
C480 N477 1.350 . S
C480 C479 1.434 . S
C481 C482 1.369 . S
C481 C483 1.419 . S
C481 H485 0.930 . S
C482 C481 1.369 . S
C482 C491 1.429 . S
C483 C481 1.419 . S
C483 C484 1.363 . S
C483 H486 0.929 . S
C484 C483 1.363 . S
C484 C490 1.428 . S
H485 C481 0.930 . S
H486 C483 0.929 . S
S487 N488 1.613 . S
S487 N489 1.610 . S
N488 S487 1.613 . S
N488 C491 1.350 . S
N489 S487 1.610 . S
N489 C490 1.351 . S
C490 C484 1.428 . S
C490 N489 1.351 . S
C490 C491 1.434 . S
C491 C482 1.429 . S
C491 N488 1.350 . S
C491 C490 1.434 . S
C492 C493 1.369 . S
C492 C494 1.419 . S
C492 H496 0.930 1_655 S
C493 C492 1.369 . S
C493 C502 1.429 . S
C494 C492 1.419 . S
C494 C495 1.363 . S
C494 H497 0.929 1_655 S
C495 C494 1.363 . S
C495 C501 1.428 . S
H496 C492 0.930 1_455 S
H497 C494 0.929 1_455 S
S498 N499 1.613 . S
S498 N500 1.610 . S
N499 S498 1.613 . S
N499 C502 1.350 . S
N500 S498 1.610 . S
N500 C501 1.351 . S
C501 C495 1.428 . S
C501 N500 1.351 . S
C501 C502 1.434 . S
C502 C493 1.429 . S
C502 N499 1.350 . S
C502 C501 1.434 . S
C503 C504 1.369 . S
C503 C505 1.419 . S
C503 H507 0.930 . S
C504 C503 1.369 . S
C504 C513 1.429 . S
C505 C503 1.419 . S
C505 C506 1.363 . S
C505 H508 0.929 . S
C506 C505 1.363 . S
C506 C512 1.428 . S
H507 C503 0.930 . S
H508 C505 0.929 . S
S509 N510 1.613 . S
S509 N511 1.610 . S
N510 S509 1.613 . S
N510 C513 1.350 . S
N511 S509 1.610 . S
N511 C512 1.351 . S
C512 C506 1.428 . S
C512 N511 1.351 . S
C512 C513 1.434 . S
C513 C504 1.429 . S
C513 N510 1.350 . S
C513 C512 1.434 . S
C514 C515 1.369 . S
C514 C516 1.419 . S
C514 H518 0.930 . S
C515 C514 1.369 . S
C515 C524 1.429 . S
C516 C514 1.419 . S
C516 C517 1.363 . S
C516 H519 0.929 . S
C517 C516 1.363 . S
C517 C523 1.428 . S
H518 C514 0.930 . S
H519 C516 0.929 . S
S520 N521 1.613 . S
S520 N522 1.610 . S
N521 S520 1.613 . S
N521 C524 1.350 1_455 S
N522 S520 1.610 . S
N522 C523 1.351 1_455 S
C523 C517 1.428 . S
C523 N522 1.351 1_655 S
C523 C524 1.434 . S
C524 C515 1.429 . S
C524 N521 1.350 1_655 S
C524 C523 1.434 . S
C525 C526 1.369 . S
C525 C527 1.419 . S
C525 H529 0.930 . S
C526 C525 1.369 . S
C526 C535 1.429 . S
C527 C525 1.419 . S
C527 C528 1.363 . S
C527 H530 0.929 . S
C528 C527 1.363 . S
C528 C534 1.428 . S
H529 C525 0.930 . S
H530 C527 0.929 . S
S531 N532 1.613 . S
S531 N533 1.610 . S
N532 S531 1.613 . S
N532 C535 1.350 . S
N533 S531 1.610 . S
N533 C534 1.351 . S
C534 C528 1.428 . S
C534 N533 1.351 . S
C534 C535 1.434 . S
C535 C526 1.429 . S
C535 N532 1.350 . S
C535 C534 1.434 . S
C536 C537 1.369 . S
C536 C538 1.419 . S
C536 H540 0.930 . S
C537 C536 1.369 . S
C537 C546 1.429 . S
C538 C536 1.419 . S
C538 C539 1.363 . S
C538 H541 0.929 . S
C539 C538 1.363 . S
C539 C545 1.428 . S
H540 C536 0.930 . S
H541 C538 0.929 . S
S542 N543 1.613 . S
S542 N544 1.610 . S
N543 S542 1.613 . S
N543 C546 1.350 . S
N544 S542 1.610 . S
N544 C545 1.351 . S
C545 C539 1.428 . S
C545 N544 1.351 . S
C545 C546 1.434 . S
C546 C537 1.429 . S
C546 N543 1.350 . S
C546 C545 1.434 . S
C547 C548 1.369 . S
C547 C549 1.419 . S
C547 H551 0.930 . S
C548 C547 1.369 . S
C548 C557 1.429 . S
C549 C547 1.419 . S
C549 C550 1.363 . S
C549 H552 0.929 . S
C550 C549 1.363 . S
C550 C556 1.428 . S
H551 C547 0.930 . S
H552 C549 0.929 . S
S553 N554 1.613 . S
S553 N555 1.610 . S
N554 S553 1.613 . S
N554 C557 1.350 . S
N555 S553 1.610 . S
N555 C556 1.351 . S
C556 C550 1.428 . S
C556 N555 1.351 . S
C556 C557 1.434 . S
C557 C548 1.429 . S
C557 N554 1.350 . S
C557 C556 1.434 . S
C558 C559 1.369 . S
C558 C560 1.419 . S
C558 H562 0.930 . S
C559 C558 1.369 . S
C559 C568 1.429 . S
C560 C558 1.419 . S
C560 C561 1.363 . S
C560 H563 0.929 . S
C561 C560 1.363 . S
C561 C567 1.428 . S
H562 C558 0.930 . S
H563 C560 0.929 . S
S564 N565 1.613 . S
S564 N566 1.610 . S
N565 S564 1.613 . S
N565 C568 1.350 . S
N566 S564 1.610 . S
N566 C567 1.351 . S
C567 C561 1.428 . S
C567 N566 1.351 . S
C567 C568 1.434 . S
C568 C559 1.429 . S
C568 N565 1.350 . S
C568 C567 1.434 . S
C569 C570 1.369 . S
C569 C571 1.419 . S
C569 H573 0.930 . S
C570 C569 1.369 . S
C570 C579 1.429 . S
C571 C569 1.419 . S
C571 C572 1.363 . S
C571 H574 0.929 . S
C572 C571 1.363 . S
C572 C578 1.428 . S
H573 C569 0.930 . S
H574 C571 0.929 . S
S575 N576 1.613 . S
S575 N577 1.610 . S
N576 S575 1.613 . S
N576 C579 1.350 . S
N577 S575 1.610 . S
N577 C578 1.351 . S
C578 C572 1.428 . S
C578 N577 1.351 . S
C578 C579 1.434 . S
C579 C570 1.429 . S
C579 N576 1.350 . S
C579 C578 1.434 . S
C580 C581 1.369 . S
C580 C582 1.419 . S
C580 H584 0.930 . S
C581 C580 1.369 . S
C581 C590 1.429 . S
C582 C580 1.419 . S
C582 C583 1.363 . S
C582 H585 0.929 . S
C583 C582 1.363 . S
C583 C589 1.428 . S
H584 C580 0.930 . S
H585 C582 0.929 . S
S586 N587 1.613 . S
S586 N588 1.610 . S
N587 S586 1.613 . S
N587 C590 1.350 . S
N588 S586 1.610 . S
N588 C589 1.351 . S
C589 C583 1.428 . S
C589 N588 1.351 . S
C589 C590 1.434 . S
C590 C581 1.429 . S
C590 N587 1.350 . S
C590 C589 1.434 . S
C591 C592 1.369 . S
C591 C593 1.419 . S
C591 H595 0.930 . S
C592 C591 1.369 . S
C592 C601 1.429 . S
C593 C591 1.419 . S
C593 C594 1.363 . S
C593 H596 0.929 . S
C594 C593 1.363 . S
C594 C600 1.428 . S
H595 C591 0.930 . S
H596 C593 0.929 . S
S597 N598 1.613 . S
S597 N599 1.610 . S
N598 S597 1.613 . S
N598 C601 1.350 . S
N599 S597 1.610 . S
N599 C600 1.351 . S
C600 C594 1.428 . S
C600 N599 1.351 . S
C600 C601 1.434 . S
C601 C592 1.429 . S
C601 N598 1.350 . S
C601 C600 1.434 . S
C602 C603 1.369 . S
C602 C604 1.419 . S
C602 H606 0.930 . S
C603 C602 1.369 . S
C603 C612 1.429 . S
C604 C602 1.419 . S
C604 C605 1.363 . S
C604 H607 0.929 . S
C605 C604 1.363 . S
C605 C611 1.428 . S
H606 C602 0.930 . S
H607 C604 0.929 . S
S608 N609 1.613 . S
S608 N610 1.610 . S
N609 S608 1.613 . S
N609 C612 1.350 . S
N610 S608 1.610 . S
N610 C611 1.351 . S
C611 C605 1.428 . S
C611 N610 1.351 . S
C611 C612 1.434 . S
C612 C603 1.429 . S
C612 N609 1.350 . S
C612 C611 1.434 . S
C613 C614 1.369 . S
C613 C615 1.419 . S
C613 H617 0.930 . S
C614 C613 1.369 . S
C614 C623 1.429 . S
C615 C613 1.419 . S
C615 C616 1.363 . S
C615 H618 0.929 . S
C616 C615 1.363 . S
C616 C622 1.428 . S
H617 C613 0.930 . S
H618 C615 0.929 . S
S619 N620 1.613 . S
S619 N621 1.610 . S
N620 S619 1.613 . S
N620 C623 1.350 . S
N621 S619 1.610 . S
N621 C622 1.351 . S
C622 C616 1.428 . S
C622 N621 1.351 . S
C622 C623 1.434 . S
C623 C614 1.429 . S
C623 N620 1.350 . S
C623 C622 1.434 . S
C624 C625 1.369 . S
C624 C626 1.419 . S
C624 H628 0.930 . S
C625 C624 1.369 . S
C625 C634 1.429 . S
C626 C624 1.419 . S
C626 C627 1.363 . S
C626 H629 0.929 . S
C627 C626 1.363 . S
C627 C633 1.428 . S
H628 C624 0.930 . S
H629 C626 0.929 . S
S630 N631 1.613 . S
S630 N632 1.610 . S
N631 S630 1.613 . S
N631 C634 1.350 . S
N632 S630 1.610 . S
N632 C633 1.351 . S
C633 C627 1.428 . S
C633 N632 1.351 . S
C633 C634 1.434 . S
C634 C625 1.429 . S
C634 N631 1.350 . S
C634 C633 1.434 . S
C635 C636 1.369 . S
C635 C637 1.419 . S
C635 H639 0.930 . S
C636 C635 1.369 . S
C636 C645 1.429 . S
C637 C635 1.419 . S
C637 C638 1.363 . S
C637 H640 0.929 . S
C638 C637 1.363 . S
C638 C644 1.428 . S
H639 C635 0.930 . S
H640 C637 0.929 . S
S641 N642 1.613 . S
S641 N643 1.610 . S
N642 S641 1.613 . S
N642 C645 1.350 . S
N643 S641 1.610 . S
N643 C644 1.351 . S
C644 C638 1.428 . S
C644 N643 1.351 . S
C644 C645 1.434 . S
C645 C636 1.429 . S
C645 N642 1.350 . S
C645 C644 1.434 . S
C646 C647 1.369 . S
C646 C648 1.419 . S
C646 H650 0.930 . S
C647 C646 1.369 . S
C647 C656 1.429 . S
C648 C646 1.419 . S
C648 C649 1.363 . S
C648 H651 0.929 . S
C649 C648 1.363 . S
C649 C655 1.428 . S
H650 C646 0.930 . S
H651 C648 0.929 . S
S652 N653 1.613 . S
S652 N654 1.610 . S
N653 S652 1.613 . S
N653 C656 1.350 . S
N654 S652 1.610 . S
N654 C655 1.351 . S
C655 C649 1.428 . S
C655 N654 1.351 . S
C655 C656 1.434 . S
C656 C647 1.429 . S
C656 N653 1.350 . S
C656 C655 1.434 . S
C657 C658 1.369 . S
C657 C659 1.419 . S
C657 H661 0.930 . S
C658 C657 1.369 . S
C658 C667 1.429 . S
C659 C657 1.419 . S
C659 C660 1.363 . S
C659 H662 0.929 . S
C660 C659 1.363 . S
C660 C666 1.428 . S
H661 C657 0.930 . S
H662 C659 0.929 . S
S663 N664 1.613 . S
S663 N665 1.610 . S
N664 S663 1.613 . S
N664 C667 1.350 . S
N665 S663 1.610 . S
N665 C666 1.351 . S
C666 C660 1.428 . S
C666 N665 1.351 . S
C666 C667 1.434 . S
C667 C658 1.429 . S
C667 N664 1.350 . S
C667 C666 1.434 . S
C668 C669 1.369 . S
C668 C670 1.419 . S
C668 H672 0.930 . S
C669 C668 1.369 . S
C669 C678 1.429 . S
C670 C668 1.419 . S
C670 C671 1.363 . S
C670 H673 0.929 . S
C671 C670 1.363 . S
C671 C677 1.428 . S
H672 C668 0.930 . S
H673 C670 0.929 . S
S674 N675 1.613 . S
S674 N676 1.610 . S
N675 S674 1.613 . S
N675 C678 1.350 . S
N676 S674 1.610 . S
N676 C677 1.351 . S
C677 C671 1.428 . S
C677 N676 1.351 . S
C677 C678 1.434 . S
C678 C669 1.429 . S
C678 N675 1.350 . S
C678 C677 1.434 . S
C679 C680 1.369 . S
C679 C681 1.419 . S
C679 H683 0.930 . S
C680 C679 1.369 . S
C680 C689 1.429 . S
C681 C679 1.419 . S
C681 C682 1.363 . S
C681 H684 0.929 . S
C682 C681 1.363 . S
C682 C688 1.428 . S
H683 C679 0.930 . S
H684 C681 0.929 . S
S685 N686 1.613 . S
S685 N687 1.610 . S
N686 S685 1.613 . S
N686 C689 1.350 . S
N687 S685 1.610 . S
N687 C688 1.351 . S
C688 C682 1.428 . S
C688 N687 1.351 . S
C688 C689 1.434 . S
C689 C680 1.429 . S
C689 N686 1.350 . S
C689 C688 1.434 . S
C690 C691 1.369 . S
C690 C692 1.419 . S
C690 H694 0.930 . S
C691 C690 1.369 . S
C691 C700 1.429 . S
C692 C690 1.419 . S
C692 C693 1.363 . S
C692 H695 0.929 . S
C693 C692 1.363 . S
C693 C699 1.428 . S
H694 C690 0.930 . S
H695 C692 0.929 . S
S696 N697 1.613 . S
S696 N698 1.610 . S
N697 S696 1.613 . S
N697 C700 1.350 . S
N698 S696 1.610 . S
N698 C699 1.351 . S
C699 C693 1.428 . S
C699 N698 1.351 . S
C699 C700 1.434 . S
C700 C691 1.429 . S
C700 N697 1.350 . S
C700 C699 1.434 . S
C701 C702 1.369 . S
C701 C703 1.419 . S
C701 H705 0.930 . S
C702 C701 1.369 . S
C702 C711 1.429 . S
C703 C701 1.419 . S
C703 C704 1.363 . S
C703 H706 0.929 . S
C704 C703 1.363 . S
C704 C710 1.428 . S
H705 C701 0.930 . S
H706 C703 0.929 . S
S707 N708 1.613 . S
S707 N709 1.610 . S
N708 S707 1.613 . S
N708 C711 1.350 . S
N709 S707 1.610 . S
N709 C710 1.351 . S
C710 C704 1.428 . S
C710 N709 1.351 . S
C710 C711 1.434 . S
C711 C702 1.429 . S
C711 N708 1.350 . S
C711 C710 1.434 . S
C712 C713 1.369 . S
C712 C714 1.419 . S
C712 H716 0.930 . S
C713 C712 1.369 . S
C713 C722 1.429 . S
C714 C712 1.419 . S
C714 C715 1.363 . S
C714 H717 0.929 . S
C715 C714 1.363 . S
C715 C721 1.428 . S
H716 C712 0.930 . S
H717 C714 0.929 . S
S718 N719 1.613 . S
S718 N720 1.610 . S
N719 S718 1.613 . S
N719 C722 1.350 . S
N720 S718 1.610 . S
N720 C721 1.351 . S
C721 C715 1.428 . S
C721 N720 1.351 . S
C721 C722 1.434 . S
C722 C713 1.429 . S
C722 N719 1.350 . S
C722 C721 1.434 . S
C723 C724 1.369 . S
C723 C725 1.419 . S
C723 H727 0.930 . S
C724 C723 1.369 . S
C724 C733 1.429 . S
C725 C723 1.419 . S
C725 C726 1.363 . S
C725 H728 0.929 . S
C726 C725 1.363 . S
C726 C732 1.428 . S
H727 C723 0.930 . S
H728 C725 0.929 . S
S729 N730 1.613 . S
S729 N731 1.610 . S
N730 S729 1.613 . S
N730 C733 1.350 . S
N731 S729 1.610 . S
N731 C732 1.351 . S
C732 C726 1.428 . S
C732 N731 1.351 . S
C732 C733 1.434 . S
C733 C724 1.429 . S
C733 N730 1.350 . S
C733 C732 1.434 . S
C734 C735 1.369 . S
C734 C736 1.419 . S
C734 H738 0.930 . S
C735 C734 1.369 . S
C735 C744 1.429 . S
C736 C734 1.419 . S
C736 C737 1.363 . S
C736 H739 0.929 . S
C737 C736 1.363 . S
C737 C743 1.428 . S
H738 C734 0.930 . S
H739 C736 0.929 . S
S740 N741 1.613 . S
S740 N742 1.610 . S
N741 S740 1.613 . S
N741 C744 1.350 . S
N742 S740 1.610 . S
N742 C743 1.351 . S
C743 C737 1.428 . S
C743 N742 1.351 . S
C743 C744 1.434 . S
C744 C735 1.429 . S
C744 N741 1.350 . S
C744 C743 1.434 . S
C745 C746 1.369 . S
C745 C747 1.419 . S
C745 H749 0.930 . S
C746 C745 1.369 . S
C746 C755 1.429 . S
C747 C745 1.419 . S
C747 C748 1.363 . S
C747 H750 0.929 . S
C748 C747 1.363 . S
C748 C754 1.428 . S
H749 C745 0.930 . S
H750 C747 0.929 . S
S751 N752 1.613 . S
S751 N753 1.610 . S
N752 S751 1.613 . S
N752 C755 1.350 . S
N753 S751 1.610 . S
N753 C754 1.351 . S
C754 C748 1.428 . S
C754 N753 1.351 . S
C754 C755 1.434 . S
C755 C746 1.429 . S
C755 N752 1.350 . S
C755 C754 1.434 . S
C756 C757 1.369 . S
C756 C758 1.419 . S
C756 H760 0.930 . S
C757 C756 1.369 . S
C757 C766 1.429 . S
C758 C756 1.419 . S
C758 C759 1.363 . S
C758 H761 0.929 . S
C759 C758 1.363 . S
C759 C765 1.428 . S
H760 C756 0.930 . S
H761 C758 0.929 . S
S762 N763 1.613 . S
S762 N764 1.610 . S
N763 S762 1.613 . S
N763 C766 1.350 . S
N764 S762 1.610 . S
N764 C765 1.351 . S
C765 C759 1.428 . S
C765 N764 1.351 . S
C765 C766 1.434 . S
C766 C757 1.429 . S
C766 N763 1.350 . S
C766 C765 1.434 . S
C767 C768 1.369 . S
C767 C769 1.419 . S
C767 H771 0.930 . S
C768 C767 1.369 . S
C768 C777 1.429 . S
C769 C767 1.419 . S
C769 C770 1.363 . S
C769 H772 0.929 . S
C770 C769 1.363 . S
C770 C776 1.428 . S
H771 C767 0.930 . S
H772 C769 0.929 . S
S773 N774 1.613 . S
S773 N775 1.610 . S
N774 S773 1.613 . S
N774 C777 1.350 . S
N775 S773 1.610 . S
N775 C776 1.351 . S
C776 C770 1.428 . S
C776 N775 1.351 . S
C776 C777 1.434 . S
C777 C768 1.429 . S
C777 N774 1.350 . S
C777 C776 1.434 . S
C778 C779 1.369 . S
C778 C780 1.419 . S
C778 H782 0.930 . S
C779 C778 1.369 . S
C779 C788 1.429 . S
C780 C778 1.419 . S
C780 C781 1.363 . S
C780 H783 0.929 . S
C781 C780 1.363 . S
C781 C787 1.428 . S
H782 C778 0.930 . S
H783 C780 0.929 . S
S784 N785 1.613 . S
S784 N786 1.610 . S
N785 S784 1.613 . S
N785 C788 1.350 . S
N786 S784 1.610 . S
N786 C787 1.351 . S
C787 C781 1.428 . S
C787 N786 1.351 . S
C787 C788 1.434 . S
C788 C779 1.429 . S
C788 N785 1.350 . S
C788 C787 1.434 . S
C789 C790 1.369 . S
C789 C791 1.419 . S
C789 H793 0.930 . S
C790 C789 1.369 . S
C790 C799 1.429 . S
C791 C789 1.419 . S
C791 C792 1.363 . S
C791 H794 0.929 . S
C792 C791 1.363 . S
C792 C798 1.428 . S
H793 C789 0.930 . S
H794 C791 0.929 . S
S795 N796 1.613 . S
S795 N797 1.610 . S
N796 S795 1.613 . S
N796 C799 1.350 . S
N797 S795 1.610 . S
N797 C798 1.351 . S
C798 C792 1.428 . S
C798 N797 1.351 . S
C798 C799 1.434 . S
C799 C790 1.429 . S
C799 N796 1.350 . S
C799 C798 1.434 . S
C800 C801 1.369 . S
C800 C802 1.419 . S
C800 H804 0.930 . S
C801 C800 1.369 . S
C801 C810 1.429 1_655 S
C802 C800 1.419 . S
C802 C803 1.363 1_655 S
C802 H805 0.929 . S
C803 C802 1.363 1_455 S
C803 C809 1.428 . S
H804 C800 0.930 . S
H805 C802 0.929 . S
S806 N807 1.613 . S
S806 N808 1.610 . S
N807 S806 1.613 . S
N807 C810 1.350 . S
N808 S806 1.610 . S
N808 C809 1.351 . S
C809 C803 1.428 . S
C809 N808 1.351 . S
C809 C810 1.434 . S
C810 C801 1.429 1_455 S
C810 N807 1.350 . S
C810 C809 1.434 . S
C811 C812 1.369 . S
C811 C813 1.435 . S
C811 H815 0.930 . S
C812 C811 1.369 . S
C812 C821 1.429 1_565 S
C813 C811 1.435 . S
C813 C814 1.345 1_565 S
C813 H816 0.931 . S
C814 C813 1.345 1_545 S
C814 C820 1.428 . S
H815 C811 0.930 . S
H816 C813 0.931 . S
S817 N818 1.613 . S
S817 N819 1.610 . S
N818 S817 1.613 . S
N818 C821 1.350 . S
N819 S817 1.610 . S
N819 C820 1.351 . S
C820 C814 1.428 . S
C820 N819 1.351 . S
C820 C821 1.434 . S
C821 C812 1.429 1_545 S
C821 N818 1.350 . S
C821 C820 1.434 . S
C822 C823 1.369 1_455 S
C822 C824 1.419 1_544 S
C822 H826 0.930 . S
C823 C822 1.369 1_655 S
C823 C832 1.429 . S
C824 C822 1.419 1_566 S
C824 C825 1.363 . S
C824 H827 0.929 . S
C825 C824 1.363 . S
C825 C831 1.428 1_455 S
H826 C822 0.930 . S
H827 C824 0.929 . S
S828 N829 1.613 1_566 S
S828 N830 1.610 . S
N829 S828 1.613 1_544 S
N829 C832 1.350 . S
N830 S828 1.610 . S
N830 C831 1.351 . S
C831 C825 1.428 1_655 S
C831 N830 1.351 . S
C831 C832 1.434 1_566 S
C832 C823 1.429 . S
C832 N829 1.350 . S
C832 C831 1.434 1_544 S
C833 C834 1.369 1_556 S
C833 C835 1.419 . S
C833 H837 0.930 . S
C834 C833 1.369 1_554 S
C834 C843 1.429 . S
C835 C833 1.419 . S
C835 C836 1.363 . S
C835 H838 0.929 . S
C836 C835 1.363 . S
C836 C842 1.428 1_556 S
H837 C833 0.930 . S
H838 C835 0.929 . S
S839 N840 1.613 . S
S839 N841 1.610 . S
N840 S839 1.613 . S
N840 C843 1.350 . S
N841 S839 1.610 . S
N841 C842 1.351 . S
C842 C836 1.428 1_554 S
C842 N841 1.351 . S
C842 C843 1.434 . S
C843 C834 1.429 . S
C843 N840 1.350 . S
C843 C842 1.434 . S
C844 C845 1.369 1_455 S
C844 C846 1.419 . S
C844 H848 0.930 . S
C845 C844 1.369 1_655 S
C845 C854 1.429 . S
C846 C844 1.419 . S
C846 C847 1.363 . S
C846 H849 0.929 . S
C847 C846 1.363 . S
C847 C853 1.428 1_455 S
H848 C844 0.930 . S
H849 C846 0.929 . S
S850 N851 1.613 . S
S850 N852 1.610 . S
N851 S850 1.613 . S
N851 C854 1.350 . S
N852 S850 1.610 . S
N852 C853 1.351 . S
C853 C847 1.428 1_655 S
C853 N852 1.351 . S
C853 C854 1.434 . S
C854 C845 1.429 . S
C854 N851 1.350 . S
C854 C853 1.434 . S
C855 C856 1.369 . S
C855 C857 1.419 1_565 S
C855 H859 0.930 . S
C856 C855 1.369 . S
C856 C865 1.429 . S
C857 C855 1.419 1_545 S
C857 C858 1.363 . S
C857 H860 0.929 . S
C858 C857 1.363 . S
C858 C864 1.428 . S
H859 C855 0.930 . S
H860 C857 0.929 . S
S861 N862 1.613 1_545 S
S861 N863 1.610 . S
N862 S861 1.613 1_565 S
N862 C865 1.350 . S
N863 S861 1.610 . S
N863 C864 1.351 . S
C864 C858 1.428 . S
C864 N863 1.351 . S
C864 C865 1.434 1_545 S
C865 C856 1.429 . S
C865 N862 1.350 . S
C865 C864 1.434 1_565 S
C866 C867 1.369 1_554 S
C866 C868 1.419 . S
C866 H870 0.930 . S
C867 C866 1.369 1_556 S
C867 C876 1.429 . S
C868 C866 1.419 . S
C868 C869 1.363 . S
C868 H871 0.929 . S
C869 C868 1.363 . S
C869 C875 1.428 1_554 S
H870 C866 0.930 . S
H871 C868 0.929 . S
S872 N873 1.613 . S
S872 N874 1.610 . S
N873 S872 1.613 . S
N873 C876 1.350 . S
N874 S872 1.610 . S
N874 C875 1.351 . S
C875 C869 1.428 1_556 S
C875 N874 1.351 . S
C875 C876 1.434 . S
C876 C867 1.429 . S
C876 N873 1.350 . S
C876 C875 1.434 . S
C877 C878 1.369 . S
C877 C879 1.419 . S
C877 H881 0.930 . S
C878 C877 1.369 . S
C878 C887 1.429 . S
C879 C877 1.419 . S
C879 C880 1.363 . S
C879 H882 0.929 . S
C880 C879 1.363 . S
C880 C886 1.428 . S
H881 C877 0.930 . S
H882 C879 0.929 . S
S883 N884 1.613 . S
S883 N885 1.610 . S
N884 S883 1.613 . S
N884 C887 1.350 . S
N885 S883 1.610 . S
N885 C886 1.351 . S
C886 C880 1.428 . S
C886 N885 1.351 . S
C886 C887 1.434 . S
C887 C878 1.429 . S
C887 N884 1.350 . S
C887 C886 1.434 . S
C888 C889 1.369 . S
C888 C890 1.419 . S
C888 H892 0.930 . S
C889 C888 1.369 . S
C889 C898 1.429 1_455 S
C890 C888 1.419 . S
C890 C891 1.363 1_455 S
C890 H893 0.929 . S
C891 C890 1.363 1_655 S
C891 C897 1.428 . S
H892 C888 0.930 . S
H893 C890 0.929 . S
S894 N895 1.613 . S
S894 N896 1.610 . S
N895 S894 1.613 . S
N895 C898 1.350 . S
N896 S894 1.610 . S
N896 C897 1.351 . S
C897 C891 1.428 . S
C897 N896 1.351 . S
C897 C898 1.434 . S
C898 C889 1.429 1_655 S
C898 N895 1.350 . S
C898 C897 1.434 . S
C899 C900 1.369 . S
C899 C901 1.419 . S
C899 H903 0.930 . S
C900 C899 1.369 . S
C900 C909 1.429 . S
C901 C899 1.419 . S
C901 C902 1.363 . S
C901 H904 0.929 . S
C902 C901 1.363 . S
C902 C908 1.428 . S
H903 C899 0.930 . S
H904 C901 0.929 . S
S905 N906 1.613 . S
S905 N907 1.610 . S
N906 S905 1.613 . S
N906 C909 1.350 . S
N907 S905 1.610 . S
N907 C908 1.351 . S
C908 C902 1.428 . S
C908 N907 1.351 . S
C908 C909 1.434 . S
C909 C900 1.429 . S
C909 N906 1.350 . S
C909 C908 1.434 . S
C910 C911 1.369 . S
C910 C912 1.419 . S
C910 H914 0.930 . S
C911 C910 1.369 . S
C911 C920 1.429 . S
C912 C910 1.419 . S
C912 C913 1.363 . S
C912 H915 0.929 . S
C913 C912 1.363 . S
C913 C919 1.428 . S
H914 C910 0.930 . S
H915 C912 0.929 . S
S916 N917 1.613 . S
S916 N918 1.610 . S
N917 S916 1.613 . S
N917 C920 1.350 . S
N918 S916 1.610 . S
N918 C919 1.351 . S
C919 C913 1.428 . S
C919 N918 1.351 . S
C919 C920 1.434 . S
C920 C911 1.429 . S
C920 N917 1.350 . S
C920 C919 1.434 . S
C921 C922 1.369 . S
C921 C923 1.419 . S
C921 H925 0.930 . S
C922 C921 1.369 . S
C922 C931 1.429 . S
C923 C921 1.419 . S
C923 C924 1.363 . S
C923 H926 0.929 . S
C924 C923 1.363 . S
C924 C930 1.428 . S
H925 C921 0.930 . S
H926 C923 0.929 . S
S927 N928 1.613 . S
S927 N929 1.610 . S
N928 S927 1.613 . S
N928 C931 1.350 . S
N929 S927 1.610 . S
N929 C930 1.351 . S
C930 C924 1.428 . S
C930 N929 1.351 . S
C930 C931 1.434 . S
C931 C922 1.429 . S
C931 N928 1.350 . S
C931 C930 1.434 . S
C932 C933 1.369 . S
C932 C934 1.419 . S
C932 H936 0.930 . S
C933 C932 1.369 . S
C933 C942 1.429 . S
C934 C932 1.419 . S
C934 C935 1.363 . S
C934 H937 0.929 . S
C935 C934 1.363 . S
C935 C941 1.428 . S
H936 C932 0.930 . S
H937 C934 0.929 . S
S938 N939 1.613 . S
S938 N940 1.610 . S
N939 S938 1.613 . S
N939 C942 1.350 . S
N940 S938 1.610 . S
N940 C941 1.351 . S
C941 C935 1.428 . S
C941 N940 1.351 . S
C941 C942 1.434 . S
C942 C933 1.429 . S
C942 N939 1.350 . S
C942 C941 1.434 . S
C943 C944 1.369 . S
C943 C945 1.460 . S
C943 H947 0.930 . S
C944 C943 1.369 . S
C944 C953 1.429 1_545 S
C945 C943 1.460 . S
C945 C946 1.317 1_545 S
C945 H948 0.936 . S
C946 C945 1.317 1_565 S
C946 C952 1.428 . S
H947 C943 0.930 . S
H948 C945 0.936 . S
S949 N950 1.613 . S
S949 N951 1.610 . S
N950 S949 1.613 . S
N950 C953 1.350 . S
N951 S949 1.610 . S
N951 C952 1.351 . S
C952 C946 1.428 . S
C952 N951 1.351 . S
C952 C953 1.434 . S
C953 C944 1.429 1_565 S
C953 N950 1.350 . S
C953 C952 1.434 . S
C954 C955 1.369 . S
C954 C956 1.419 . S
C954 H958 0.930 . S
C955 C954 1.369 . S
C955 C964 1.429 . S
C956 C954 1.419 . S
C956 C957 1.363 . S
C956 H959 0.929 . S
C957 C956 1.363 . S
C957 C963 1.428 . S
H958 C954 0.930 . S
H959 C956 0.929 . S
S960 N961 1.613 . S
S960 N962 1.610 . S
N961 S960 1.613 . S
N961 C964 1.350 . S
N962 S960 1.610 . S
N962 C963 1.351 . S
C963 C957 1.428 . S
C963 N962 1.351 . S
C963 C964 1.434 . S
C964 C955 1.429 . S
C964 N961 1.350 . S
C964 C963 1.434 . S
C965 C966 1.369 . S
C965 C967 1.419 . S
C965 H969 0.930 . S
C966 C965 1.369 . S
C966 C975 1.429 1_556 S
C967 C965 1.419 . S
C967 C968 1.363 1_556 S
C967 H970 0.929 . S
C968 C967 1.363 1_554 S
C968 C974 1.428 . S
H969 C965 0.930 . S
H970 C967 0.929 . S
S971 N972 1.613 . S
S971 N973 1.610 . S
N972 S971 1.613 . S
N972 C975 1.350 . S
N973 S971 1.610 . S
N973 C974 1.351 . S
C974 C968 1.428 . S
C974 N973 1.351 . S
C974 C975 1.434 . S
C975 C966 1.429 1_554 S
C975 N972 1.350 . S
C975 C974 1.434 . S
C976 C977 1.369 . S
C976 C978 1.419 . S
C976 H980 0.930 . S
C977 C976 1.369 . S
C977 C986 1.429 . S
C978 C976 1.419 . S
C978 C979 1.363 . S
C978 H981 0.929 . S
C979 C978 1.363 . S
C979 C985 1.428 . S
H980 C976 0.930 . S
H981 C978 0.929 . S
S982 N983 1.613 . S
S982 N984 1.610 . S
N983 S982 1.613 . S
N983 C986 1.350 . S
N984 S982 1.610 . S
N984 C985 1.351 . S
C985 C979 1.428 . S
C985 N984 1.351 . S
C985 C986 1.434 . S
C986 C977 1.429 . S
C986 N983 1.350 . S
C986 C985 1.434 . S
C987 C988 1.369 . S
C987 C989 1.419 . S
C987 H991 0.930 . S
C988 C987 1.369 . S
C988 C997 1.429 . S
C989 C987 1.419 . S
C989 C990 1.363 . S
C989 H992 0.929 . S
C990 C989 1.363 . S
C990 C996 1.428 . S
H991 C987 0.930 . S
H992 C989 0.929 . S
S993 N994 1.613 . S
S993 N995 1.610 . S
N994 S993 1.613 . S
N994 C997 1.350 . S
N995 S993 1.610 . S
N995 C996 1.351 . S
C996 C990 1.428 . S
C996 N995 1.351 . S
C996 C997 1.434 . S
C997 C988 1.429 . S
C997 N994 1.350 . S
C997 C996 1.434 . S
C998 C999 1.369 . S
C998 C1000 1.419 . S
C998 H1002 0.930 . S
C999 C998 1.369 . S
C999 C1008 1.429 . S
C1000 C998 1.419 . S
C1000 C1001 1.363 . S
C1000 H1003 0.929 . S
C1001 C1000 1.363 . S
C1001 C1007 1.428 . S
H1002 C998 0.930 . S
H1003 C1000 0.929 . S
S1004 N1005 1.613 . S
S1004 N1006 1.610 1_455 S
N1005 S1004 1.613 . S
N1005 C1008 1.350 1_455 S
N1006 S1004 1.610 1_655 S
N1006 C1007 1.351 . S
C1007 C1001 1.428 . S
C1007 N1006 1.351 . S
C1007 C1008 1.434 . S
C1008 C999 1.429 . S
C1008 N1005 1.350 1_655 S
C1008 C1007 1.434 . S
C1009 C1010 1.369 . S
C1009 C1011 1.419 . S
C1009 H1013 0.930 . S
C1010 C1009 1.369 . S
C1010 C1019 1.429 . S
C1011 C1009 1.419 . S
C1011 C1012 1.363 . S
C1011 H1014 0.929 . S
C1012 C1011 1.363 . S
C1012 C1018 1.428 . S
H1013 C1009 0.930 . S
H1014 C1011 0.929 . S
S1015 N1016 1.613 1_455 S
S1015 N1017 1.610 1_455 S
N1016 S1015 1.613 1_655 S
N1016 C1019 1.350 . S
N1017 S1015 1.610 1_655 S
N1017 C1018 1.351 . S
C1018 C1012 1.428 . S
C1018 N1017 1.351 . S
C1018 C1019 1.434 . S
C1019 C1010 1.429 . S
C1019 N1016 1.350 . S
C1019 C1018 1.434 . S
C1020 C1021 1.369 . S
C1020 C1022 1.419 . S
C1020 H1024 0.930 . S
C1021 C1020 1.369 . S
C1021 C1030 1.429 . S
C1022 C1020 1.419 . S
C1022 C1023 1.363 . S
C1022 H1025 0.929 . S
C1023 C1022 1.363 . S
C1023 C1029 1.428 . S
H1024 C1020 0.930 . S
H1025 C1022 0.929 . S
S1026 N1027 1.613 . S
S1026 N1028 1.610 . S
N1027 S1026 1.613 . S
N1027 C1030 1.350 . S
N1028 S1026 1.610 . S
N1028 C1029 1.351 . S
C1029 C1023 1.428 . S
C1029 N1028 1.351 . S
C1029 C1030 1.434 . S
C1030 C1021 1.429 . S
C1030 N1027 1.350 . S
C1030 C1029 1.434 . S
C1031 C1032 1.369 . S
C1031 C1033 1.419 . S
C1031 H1035 0.930 . S
C1032 C1031 1.369 . S
C1032 C1041 1.429 . S
C1033 C1031 1.419 . S
C1033 C1034 1.363 . S
C1033 H1036 0.929 . S
C1034 C1033 1.363 . S
C1034 C1040 1.428 . S
H1035 C1031 0.930 . S
H1036 C1033 0.929 . S
S1037 N1038 1.613 . S
S1037 N1039 1.610 . S
N1038 S1037 1.613 . S
N1038 C1041 1.350 . S
N1039 S1037 1.610 . S
N1039 C1040 1.351 . S
C1040 C1034 1.428 . S
C1040 N1039 1.351 . S
C1040 C1041 1.434 . S
C1041 C1032 1.429 . S
C1041 N1038 1.350 . S
C1041 C1040 1.434 . S
C1042 C1043 1.369 . S
C1042 C1044 1.419 . S
C1042 H1046 0.930 . S
C1043 C1042 1.369 . S
C1043 C1052 1.429 . S
C1044 C1042 1.419 . S
C1044 C1045 1.363 . S
C1044 H1047 0.929 . S
C1045 C1044 1.363 . S
C1045 C1051 1.428 . S
H1046 C1042 0.930 . S
H1047 C1044 0.929 . S
S1048 N1049 1.613 . S
S1048 N1050 1.610 . S
N1049 S1048 1.613 . S
N1049 C1052 1.350 . S
N1050 S1048 1.610 . S
N1050 C1051 1.351 . S
C1051 C1045 1.428 . S
C1051 N1050 1.351 . S
C1051 C1052 1.434 . S
C1052 C1043 1.429 . S
C1052 N1049 1.350 . S
C1052 C1051 1.434 . S
C1053 C1054 1.369 . S
C1053 C1055 1.419 . S
C1053 H1057 0.930 . S
C1054 C1053 1.369 . S
C1054 C1063 1.429 . S
C1055 C1053 1.419 . S
C1055 C1056 1.363 . S
C1055 H1058 0.929 . S
C1056 C1055 1.363 . S
C1056 C1062 1.428 . S
H1057 C1053 0.930 . S
H1058 C1055 0.929 . S
S1059 N1060 1.613 . S
S1059 N1061 1.610 . S
N1060 S1059 1.613 . S
N1060 C1063 1.350 . S
N1061 S1059 1.610 . S
N1061 C1062 1.351 . S
C1062 C1056 1.428 . S
C1062 N1061 1.351 . S
C1062 C1063 1.434 . S
C1063 C1054 1.429 . S
C1063 N1060 1.350 . S
C1063 C1062 1.434 . S
C1064 C1065 1.369 . S
C1064 C1066 1.419 . S
C1064 H1068 0.930 . S
C1065 C1064 1.369 . S
C1065 C1074 1.429 . S
C1066 C1064 1.419 . S
C1066 C1067 1.363 . S
C1066 H1069 0.929 . S
C1067 C1066 1.363 . S
C1067 C1073 1.428 . S
H1068 C1064 0.930 . S
H1069 C1066 0.929 . S
S1070 N1071 1.613 . S
S1070 N1072 1.610 . S
N1071 S1070 1.613 . S
N1071 C1074 1.350 . S
N1072 S1070 1.610 . S
N1072 C1073 1.351 . S
C1073 C1067 1.428 . S
C1073 N1072 1.351 . S
C1073 C1074 1.434 . S
C1074 C1065 1.429 . S
C1074 N1071 1.350 . S
C1074 C1073 1.434 . S
C1075 C1076 1.369 . S
C1075 C1077 1.419 . S
C1075 H1079 0.930 . S
C1076 C1075 1.369 . S
C1076 C1085 1.429 . S
C1077 C1075 1.419 . S
C1077 C1078 1.363 . S
C1077 H1080 0.929 . S
C1078 C1077 1.363 . S
C1078 C1084 1.428 . S
H1079 C1075 0.930 . S
H1080 C1077 0.929 . S
S1081 N1082 1.613 . S
S1081 N1083 1.610 . S
N1082 S1081 1.613 . S
N1082 C1085 1.350 . S
N1083 S1081 1.610 . S
N1083 C1084 1.351 . S
C1084 C1078 1.428 . S
C1084 N1083 1.351 . S
C1084 C1085 1.434 . S
C1085 C1076 1.429 . S
C1085 N1082 1.350 . S
C1085 C1084 1.434 . S
C1086 C1087 1.369 . S
C1086 C1088 1.419 . S
C1086 H1090 0.930 . S
C1087 C1086 1.369 . S
C1087 C1096 1.429 . S
C1088 C1086 1.419 . S
C1088 C1089 1.363 . S
C1088 H1091 0.929 . S
C1089 C1088 1.363 . S
C1089 C1095 1.428 . S
H1090 C1086 0.930 . S
H1091 C1088 0.929 . S
S1092 N1093 1.613 . S
S1092 N1094 1.610 . S
N1093 S1092 1.613 . S
N1093 C1096 1.350 . S
N1094 S1092 1.610 . S
N1094 C1095 1.351 . S
C1095 C1089 1.428 . S
C1095 N1094 1.351 . S
C1095 C1096 1.434 . S
C1096 C1087 1.429 . S
C1096 N1093 1.350 . S
C1096 C1095 1.434 . S
C1097 C1098 1.369 . S
C1097 C1099 1.419 . S
C1097 H1101 0.930 . S
C1098 C1097 1.369 . S
C1098 C1107 1.429 . S
C1099 C1097 1.419 . S
C1099 C1100 1.363 . S
C1099 H1102 0.929 . S
C1100 C1099 1.363 . S
C1100 C1106 1.428 . S
H1101 C1097 0.930 . S
H1102 C1099 0.929 . S
S1103 N1104 1.613 . S
S1103 N1105 1.610 . S
N1104 S1103 1.613 . S
N1104 C1107 1.350 . S
N1105 S1103 1.610 . S
N1105 C1106 1.351 . S
C1106 C1100 1.428 . S
C1106 N1105 1.351 . S
C1106 C1107 1.434 . S
C1107 C1098 1.429 . S
C1107 N1104 1.350 . S
C1107 C1106 1.434 . S
C1108 C1109 1.369 . S
C1108 C1110 1.419 . S
C1108 H1112 0.930 . S
C1109 C1108 1.369 . S
C1109 C1118 1.429 . S
C1110 C1108 1.419 . S
C1110 C1111 1.363 . S
C1110 H1113 0.929 . S
C1111 C1110 1.363 . S
C1111 C1117 1.428 . S
H1112 C1108 0.930 . S
H1113 C1110 0.929 . S
S1114 N1115 1.613 . S
S1114 N1116 1.610 . S
N1115 S1114 1.613 . S
N1115 C1118 1.350 . S
N1116 S1114 1.610 . S
N1116 C1117 1.351 . S
C1117 C1111 1.428 . S
C1117 N1116 1.351 . S
C1117 C1118 1.434 . S
C1118 C1109 1.429 . S
C1118 N1115 1.350 . S
C1118 C1117 1.434 . S
C1119 C1120 1.369 . S
C1119 C1121 1.419 . S
C1119 H1123 0.930 . S
C1120 C1119 1.369 . S
C1120 C1129 1.429 . S
C1121 C1119 1.419 . S
C1121 C1122 1.363 . S
C1121 H1124 0.929 . S
C1122 C1121 1.363 . S
C1122 C1128 1.428 . S
H1123 C1119 0.930 . S
H1124 C1121 0.929 . S
S1125 N1126 1.613 . S
S1125 N1127 1.610 . S
N1126 S1125 1.613 . S
N1126 C1129 1.350 . S
N1127 S1125 1.610 . S
N1127 C1128 1.351 . S
C1128 C1122 1.428 . S
C1128 N1127 1.351 . S
C1128 C1129 1.434 . S
C1129 C1120 1.429 . S
C1129 N1126 1.350 . S
C1129 C1128 1.434 . S
C1130 C1131 1.369 . S
C1130 C1132 1.419 . S
C1130 H1134 0.930 . S
C1131 C1130 1.369 . S
C1131 C1140 1.429 . S
C1132 C1130 1.419 . S
C1132 C1133 1.363 . S
C1132 H1135 0.929 . S
C1133 C1132 1.363 . S
C1133 C1139 1.428 . S
H1134 C1130 0.930 . S
H1135 C1132 0.929 . S
S1136 N1137 1.613 . S
S1136 N1138 1.610 . S
N1137 S1136 1.613 . S
N1137 C1140 1.350 . S
N1138 S1136 1.610 . S
N1138 C1139 1.351 . S
C1139 C1133 1.428 . S
C1139 N1138 1.351 . S
C1139 C1140 1.434 . S
C1140 C1131 1.429 . S
C1140 N1137 1.350 . S
C1140 C1139 1.434 . S
C1141 C1142 1.369 . S
C1141 C1143 1.419 . S
C1141 H1145 0.930 . S
C1142 C1141 1.369 . S
C1142 C1151 1.429 . S
C1143 C1141 1.419 . S
C1143 C1144 1.363 . S
C1143 H1146 0.929 . S
C1144 C1143 1.363 . S
C1144 C1150 1.428 . S
H1145 C1141 0.930 . S
H1146 C1143 0.929 . S
S1147 N1148 1.613 . S
S1147 N1149 1.610 . S
N1148 S1147 1.613 . S
N1148 C1151 1.350 . S
N1149 S1147 1.610 . S
N1149 C1150 1.351 . S
C1150 C1144 1.428 . S
C1150 N1149 1.351 . S
C1150 C1151 1.434 . S
C1151 C1142 1.429 . S
C1151 N1148 1.350 . S
C1151 C1150 1.434 . S
C449 C149 1.355 . S
C451 C9 1.359 . S
C460 C23 1.358 . S
C462 C163 1.356 . S
C471 C37 1.356 . S
C473 C121 1.355 . S
C482 C135 1.363 . S
C484 C51 1.359 . S
C493 C205 1.354 . S
C495 C65 1.357 . S
C504 C79 1.363 . S
C506 C219 1.359 . S
C515 C177 1.363 . S
C517 C93 1.360 . S
C526 C191 1.354 . S
C528 C107 1.355 . S
C537 C373 1.356 . S
C539 C233 1.359 . S
C548 C387 1.363 . S
C550 C247 1.360 . S
C559 C345 1.357 . S
C561 C261 1.355 . S
C570 C275 1.360 . S
C572 C359 1.362 . S
C581 C429 1.357 . S
C583 C289 1.361 . S
C592 C443 1.357 . S
C594 C303 1.355 . S
C603 C317 1.362 . S
C605 C401 1.358 . S
C614 C331 1.357 . S
C616 C415 1.355 . S
C625 C277 1.378 . S
C627 C11 1.377 . S
C636 C25 1.377 1_655 S
C638 C263 1.378 . S
C647 C249 1.380 . S
C649 C39 1.377 . S
C658 C235 1.376 . S
C660 C53 1.383 1_655 S
C669 C67 1.377 . S
C671 C333 1.379 . S
C680 C81 1.376 1_455 S
C682 C319 1.383 . S
C691 C305 1.375 . S
C693 C95 1.382 . S
C702 C109 1.376 1_455 S
C704 C291 1.383 . S
C713 C389 1.377 . S
C715 C123 1.378 . S
C724 C375 1.377 . S
C726 C137 1.383 1_655 S
C735 C361 1.376 . S
C737 C151 1.379 . S
C746 C347 1.376 . S
C748 C165 1.383 1_655 S
C757 C179 1.380 . S
C759 C445 1.383 . S
C768 C431 1.380 . S
C770 C193 1.383 1_455 S
C779 C207 1.378 . S
C781 C417 1.383 . S
C790 C221 1.378 1_455 S
C792 C403 1.383 . S
C801 C168 1.459 . S
C803 C0 1.463 . S
C812 C14 1.467 . S
C814 C294 1.457 . S
C823 C84 1.463 . S
C825 C28 1.461 . S
C834 C434 1.467 . S
C836 C42 1.457 . S
C845 C56 1.463 . S
C847 C112 1.461 . S
C856 C238 1.467 . S
C858 C70 1.457 . S
C867 C378 1.466 . S
C869 C98 1.458 . S
C878 C406 1.459 . S
C880 C126 1.464 . S
C889 C140 1.466 . S
C891 C196 1.458 . S
C900 C322 1.457 . S
C902 C154 1.464 . S
C911 C350 1.467 . S
C913 C182 1.457 . S
C922 C210 1.456 . S
C924 C266 1.465 . S
C933 C224 1.456 . S
C935 C392 1.466 . S
C944 C308 1.466 . S
C946 C252 1.458 . S
C955 C336 1.463 . S
C957 C280 1.461 . S
C966 C364 1.456 . S
C968 C420 1.466 . S
C977 C5 1.248 . S
C979 C47 1.248 . S
C988 C33 1.242 . S
C990 C19 1.249 . S
C999 C61 1.251 . S
C1001 C103 1.244 . S
C1010 C75 1.242 . S
C1012 C89 1.250 . S
C1021 C117 1.245 . S
C1023 C159 1.244 . S
C1032 C131 1.242 . S
C1034 C145 1.246 . S
C1043 C173 1.243 . S
C1045 C215 1.245 . S
C1054 C201 1.244 . S
C1056 C187 1.249 . S
C1065 C271 1.251 . S
C1067 C229 1.244 . S
C1076 C257 1.241 . S
C1078 C243 1.247 . S
C1087 C327 1.246 . S
C1089 C285 1.249 . S
C1098 C313 1.243 . S
C1100 C299 1.246 . S
C1109 C383 1.246 . S
C1111 C341 1.243 . S
C1120 C369 1.244 . S
C1122 C355 1.244 . S
C1131 C397 1.241 . S
C1133 C439 1.248 . S
C1142 C425 1.251 . S
C1144 C411 1.243 . S
