# Generated by pormake.
# Topology uoq, (4)-cn, num edge types: 1
# Building blocks:
#     Node 0, Type 0, BuildingBlock: CEKHIL_clean_sbu_0, # of connection points: 4
#     Node 1, Type 0, BuildingBlock: CEKHIL_clean_sbu_0, # of connection points: 4
#     Node 2, Type 0, BuildingBlock: CEKHIL_clean_sbu_0, # of connection points: 4
#     Node 3, Type 0, BuildingBlock: CEKHIL_clean_sbu_0, # of connection points: 4
#     Node 4, Type 0, BuildingBlock: CEKHIL_clean_sbu_0, # of connection points: 4
#     Node 5, Type 0, BuildingBlock: CEKHIL_clean_sbu_0, # of connection points: 4
#     Node 6, Type 0, BuildingBlock: CEKHIL_clean_sbu_0, # of connection points: 4
#     Node 7, Type 0, BuildingBlock: CEKHIL_clean_sbu_0, # of connection points: 4
#     Node 8, Type 0, BuildingBlock: CEKHIL_clean_sbu_0, # of connection points: 4
#     Node 9, Type 0, BuildingBlock: CEKHIL_clean_sbu_0, # of connection points: 4
#     Node 10, Type 0, BuildingBlock: CEKHIL_clean_sbu_0, # of connection points: 4
#     Node 11, Type 0, BuildingBlock: CEKHIL_clean_sbu_0, # of connection points: 4
#     Edge 12, Type (0, 0), BuildingBlock: EZIPEK_clean_linker_0, # of connection points: 2
#     Edge 13, Type (0, 0), BuildingBlock: EZIPEK_clean_linker_0, # of connection points: 2
#     Edge 14, Type (0, 0), BuildingBlock: EZIPEK_clean_linker_0, # of connection points: 2
#     Edge 15, Type (0, 0), BuildingBlock: EZIPEK_clean_linker_0, # of connection points: 2
#     Edge 16, Type (0, 0), BuildingBlock: EZIPEK_clean_linker_0, # of connection points: 2
#     Edge 17, Type (0, 0), BuildingBlock: EZIPEK_clean_linker_0, # of connection points: 2
#     Edge 18, Type (0, 0), BuildingBlock: EZIPEK_clean_linker_0, # of connection points: 2
#     Edge 19, Type (0, 0), BuildingBlock: EZIPEK_clean_linker_0, # of connection points: 2
#     Edge 20, Type (0, 0), BuildingBlock: EZIPEK_clean_linker_0, # of connection points: 2
#     Edge 21, Type (0, 0), BuildingBlock: EZIPEK_clean_linker_0, # of connection points: 2
#     Edge 22, Type (0, 0), BuildingBlock: EZIPEK_clean_linker_0, # of connection points: 2
#     Edge 23, Type (0, 0), BuildingBlock: EZIPEK_clean_linker_0, # of connection points: 2
#     Edge 24, Type (0, 0), BuildingBlock: EZIPEK_clean_linker_0, # of connection points: 2
#     Edge 25, Type (0, 0), BuildingBlock: EZIPEK_clean_linker_0, # of connection points: 2
#     Edge 26, Type (0, 0), BuildingBlock: EZIPEK_clean_linker_0, # of connection points: 2
#     Edge 27, Type (0, 0), BuildingBlock: EZIPEK_clean_linker_0, # of connection points: 2
#     Edge 28, Type (0, 0), BuildingBlock: EZIPEK_clean_linker_0, # of connection points: 2
#     Edge 29, Type (0, 0), BuildingBlock: EZIPEK_clean_linker_0, # of connection points: 2
#     Edge 30, Type (0, 0), BuildingBlock: EZIPEK_clean_linker_0, # of connection points: 2
#     Edge 31, Type (0, 0), BuildingBlock: EZIPEK_clean_linker_0, # of connection points: 2
#     Edge 32, Type (0, 0), BuildingBlock: EZIPEK_clean_linker_0, # of connection points: 2
#     Edge 33, Type (0, 0), BuildingBlock: EZIPEK_clean_linker_0, # of connection points: 2
#     Edge 34, Type (0, 0), BuildingBlock: EZIPEK_clean_linker_0, # of connection points: 2
#     Edge 35, Type (0, 0), BuildingBlock: EZIPEK_clean_linker_0, # of connection points: 2
# Relax obj value: 0.168
# Max RMSD: 0.159
# Mean RMSD: 0.159
data_MOF--net-uoq--node1-CEKHIL_clean_sbu_0--edge1-EZIPEK_clean_linker_0
_symmetry_space_group_name_H-M    P1
_symmetry_Int_Tables_number       1
_symmetry_cell_setting            triclinic
loop_
_symmetry_equiv_pos_as_xyz
'x, y, z'
_cell_length_a     42.960339
_cell_length_b     42.974033
_cell_length_c     15.209562
_cell_angle_alpha  90.170511
_cell_angle_beta   89.971843
_cell_angle_gamma 119.95272
loop_
_atom_site_label
_atom_site_type_symbol
_atom_site_fract_x
_atom_site_fract_y
_atom_site_fract_z
_atom_type_partial_charge
Co0 Co 0.31703 0.44763 0.27308 0.0
O1 O 0.2692 0.41346 0.22707 0.0
O2 O 0.30452 0.46725 0.17252 0.0
C3 C 0.33596 0.40729 0.29356 0.0
O4 O 0.36719 0.49103 0.29663 0.0
Co5 Co 0.3481 0.44268 0.45756 0.0
O6 O 0.39239 0.48611 0.42201 0.0
C7 C 0.29003 0.46062 0.44036 0.0
C8 C 0.2737 0.43777 0.16961 0.0
C9 C 0.39328 0.50285 0.35247 0.0
O10 O 0.2947 0.4667 0.35724 0.0
O11 O 0.30612 0.44823 0.4869 0.0
O12 O 0.33808 0.42084 0.21559 0.0
O13 O 0.32194 0.41734 0.35319 0.0
Co14 Co 0.87205 0.30814 0.62306 0.0
O15 O 0.85276 0.26125 0.56674 0.0
O16 O 0.83999 0.30264 0.52596 0.0
C17 C 0.93017 0.32176 0.63761 0.0
O18 O 0.88638 0.3592 0.66199 0.0
Co19 Co 0.90721 0.32331 0.81207 0.0
O20 O 0.9047 0.36789 0.80314 0.0
C21 C 0.82817 0.28749 0.7907 0.0
C22 C 0.83452 0.27024 0.51488 0.0
C23 C 0.89611 0.3781 0.73334 0.0
O24 O 0.83018 0.28936 0.70639 0.0
O25 O 0.85537 0.29636 0.84035 0.0
O26 O 0.91874 0.32655 0.56227 0.0
O27 O 0.90582 0.30538 0.69561 0.0
Co28 Co 0.56667 0.87553 0.94505 0.0
O29 O 0.60135 0.86284 0.8979 0.0
O30 O 0.54664 0.84255 0.846 0.0
C31 C 0.60571 0.93526 0.96284 0.0
O32 O 0.52265 0.88092 0.97046 0.0
Co33 Co 0.57238 0.91232 0.12895 0.0
O34 O 0.5277 0.91138 0.09554 0.0
C35 C 0.55628 0.83695 0.11327 0.0
C36 C 0.57663 0.84218 0.84192 0.0
C37 C 0.51059 0.89483 1.02672 0.0
O38 O 0.54941 0.83489 1.03046 0.0
O39 O 0.56868 0.86567 0.15914 0.0
O40 O 0.59156 0.92287 0.88567 0.0
O41 O 0.59711 0.91177 1.0232 0.0
Co42 Co 0.69529 0.56009 0.28552 0.0
O43 O 0.74337 0.59466 0.24257 0.0
O44 O 0.70762 0.54211 0.18118 0.0
C45 C 0.67662 0.60029 0.31261 0.0
O46 O 0.6449 0.51676 0.30518 0.0
Co47 Co 0.66456 0.56227 0.47261 0.0
O48 O 0.61994 0.51981 0.43302 0.0
C49 C 0.72111 0.54261 0.44929 0.0
C50 C 0.73858 0.57145 0.18136 0.0
C51 C 0.61881 0.50423 0.36093 0.0
O52 O 0.71687 0.53882 0.36539 0.0
O53 O 0.70556 0.55469 0.4991 0.0
O54 O 0.67482 0.58814 0.23292 0.0
O55 O 0.69053 0.58924 0.37013 0.0
Co56 Co 0.13107 0.69052 0.61318 0.0
O57 O 0.14795 0.73949 0.57029 0.0
O58 O 0.164 0.70247 0.51488 0.0
C59 C 0.07204 0.67393 0.62815 0.0
O60 O 0.12214 0.63941 0.63373 0.0
Co61 Co 0.09037 0.6568 0.79086 0.0
O62 O 0.08835 0.61214 0.75281 0.0
C63 C 0.16826 0.71164 0.78608 0.0
C64 C 0.1675 0.73425 0.51312 0.0
C65 C 0.10598 0.61224 0.68564 0.0
O66 O 0.171 0.71029 0.70192 0.0
O67 O 0.13894 0.69436 0.82914 0.0
O68 O 0.08446 0.67197 0.55123 0.0
O69 O 0.09511 0.68625 0.69031 0.0
Co70 Co 0.43898 0.12808 0.92713 0.0
O71 O 0.40504 0.14202 0.88126 0.0
O72 O 0.45915 0.16059 0.82781 0.0
C73 C 0.39855 0.0687 0.94549 0.0
O74 O 0.48236 0.12135 0.95057 0.0
Co75 Co 0.43351 0.09125 0.11 0.0
O76 O 0.47734 0.09078 0.07488 0.0
C77 C 0.45183 0.1674 0.09589 0.0
C78 C 0.42971 0.16201 0.82463 0.0
C79 C 0.49421 0.10694 1.0057 0.0
O80 O 0.45774 0.16908 1.01261 0.0
O81 O 0.43931 0.13873 0.14161 0.0
O82 O 0.41254 0.08058 0.86807 0.0
O83 O 0.40831 0.09247 1.00591 0.0
Co84 Co 0.57904 0.70212 0.48271 0.0
O85 O 0.61008 0.74726 0.54396 0.0
O86 O 0.55318 0.71064 0.57659 0.0
C87 C 0.61753 0.68061 0.47342 0.0
O88 O 0.53854 0.65364 0.43753 0.0
Co89 Co 0.59895 0.68483 0.29566 0.0
O90 O 0.5498 0.64314 0.29926 0.0
C91 C 0.57368 0.73652 0.31581 0.0
C92 C 0.58243 0.74091 0.59182 0.0
C93 C 0.52941 0.63466 0.36623 0.0
O94 O 0.56476 0.72817 0.39669 0.0
O95 O 0.59083 0.72525 0.26941 0.0
O96 O 0.60018 0.67705 0.54653 0.0
O97 O 0.61421 0.70007 0.41487 0.0
Co98 Co 0.87657 0.5675 0.82107 0.0
O99 O 0.86182 0.60045 0.86955 0.0
O100 O 0.84547 0.5468 0.92278 0.0
C101 C 0.93555 0.60871 0.79884 0.0
O102 O 0.88459 0.52519 0.79469 0.0
Co103 Co 0.91182 0.57421 0.63485 0.0
O104 O 0.91569 0.53218 0.66993 0.0
C105 C 0.83429 0.55034 0.65474 0.0
C106 C 0.84309 0.57571 0.92717 0.0
C107 C 0.89986 0.51458 0.73862 0.0
O108 O 0.83439 0.54707 0.73884 0.0
O109 O 0.86224 0.56325 0.60607 0.0
O110 O 0.92462 0.59489 0.87679 0.0
O111 O 0.91096 0.59875 0.74054 0.0
Co112 Co 0.30655 0.87357 0.14378 0.0
O113 O 0.26059 0.85748 0.20317 0.0
O114 O 0.30176 0.84512 0.24771 0.0
C115 C 0.32303 0.93177 0.11762 0.0
O116 O 0.35632 0.88405 0.10212 0.0
Co117 Co 0.32011 0.9019 0.94784 0.0
O118 O 0.3643 0.89906 0.95866 0.0
C119 C 0.27369 0.82523 0.9876 0.0
C120 C 0.26962 0.84033 0.2586 0.0
C121 C 0.37467 0.89175 1.03008 0.0
O122 O 0.28309 0.82911 0.06886 0.0
O123 O 0.2824 0.85101 0.93377 0.0
O124 O 0.32814 0.92228 0.19522 0.0
O125 O 0.30466 0.90581 0.06433 0.0
Co126 Co 0.4312 0.30376 0.46638 0.0
O127 O 0.39951 0.258 0.52423 0.0
O128 O 0.45578 0.2947 0.56243 0.0
C129 C 0.39269 0.32515 0.4538 0.0
O130 O 0.47218 0.35266 0.42576 0.0
Co131 Co 0.41421 0.32264 0.27794 0.0
O132 O 0.46299 0.36464 0.28716 0.0
C133 C 0.43853 0.27035 0.29966 0.0
C134 C 0.42643 0.26428 0.57484 0.0
C135 C 0.48229 0.37245 0.3561 0.0
O136 O 0.44687 0.27856 0.38095 0.0
O137 O 0.42185 0.28181 0.2524 0.0
O138 O 0.40883 0.32814 0.52859 0.0
O139 O 0.39705 0.30621 0.39533 0.0
Co140 Co 0.1297 0.43152 0.80834 0.0
O141 O 0.14616 0.40212 0.86855 0.0
O142 O 0.16308 0.45811 0.90383 0.0
C143 C 0.07038 0.39029 0.79707 0.0
O144 O 0.11906 0.47048 0.76458 0.0
Co145 Co 0.0933 0.41108 0.62041 0.0
O146 O 0.09924 0.45963 0.62468 0.0
C147 C 0.17087 0.44019 0.64175 0.0
C148 C 0.16593 0.42981 0.91804 0.0
C149 C 0.10935 0.47946 0.69296 0.0
O150 O 0.17062 0.44834 0.72304 0.0
O151 O 0.14286 0.42221 0.59459 0.0
O152 O 0.08306 0.40766 0.87083 0.0
O153 O 0.09391 0.39548 0.73872 0.0
Co154 Co 0.69649 0.13292 0.14319 0.0
O155 O 0.74165 0.15071 0.20708 0.0
O156 O 0.6998 0.16417 0.24057 0.0
C157 C 0.68073 0.07443 0.12713 0.0
O158 O 0.6472 0.12035 0.09487 0.0
Co159 Co 0.68752 0.10094 0.95153 0.0
O160 O 0.64207 0.1023 0.95359 0.0
C161 C 0.73003 0.17832 0.98198 0.0
C162 C 0.73151 0.16867 0.25684 0.0
C163 C 0.63019 0.1108 1.02088 0.0
O164 O 0.71884 0.17521 0.06167 0.0
O165 O 0.72493 0.15186 0.93344 0.0
O166 O 0.67498 0.08565 0.20183 0.0
O167 O 0.6999 0.09921 0.07221 0.0
C168 C 0.38746 0.40249 0.35282 0.0
C169 C 0.35177 0.38488 0.32047 0.0
C170 C 0.34119 0.32868 0.389 0.0
C171 C 0.37632 0.34698 0.42593 0.0
N172 N 0.43062 0.40283 0.45636 0.0
N173 N 0.29304 0.33235 0.31479 0.0
C174 C 0.39869 0.38447 0.41245 0.0
C175 C 0.3282 0.3482 0.34044 0.0
N176 N 0.41072 0.43642 0.32451 0.0
N177 N 0.32039 0.29234 0.39963 0.0
H178 H 0.28335 0.3452 0.27425 0.0
H179 H 0.27317 0.30722 0.33635 0.0
H180 H 0.3277 0.27772 0.44103 0.0
H181 H 0.29661 0.27648 0.36534 0.0
H182 H 0.43753 0.45148 0.34307 0.0
H183 H 0.40341 0.44832 0.27544 0.0
H184 H 0.44675 0.43065 0.45541 0.0
H185 H 0.43975 0.39068 0.50039 0.0
C186 C 0.98591 0.37729 0.68754 0.0
C187 C 0.96841 0.34013 0.66635 0.0
C188 C 0.01596 0.33491 0.7434 0.0
C189 C 0.03194 0.37141 0.77009 0.0
N190 N 0.02908 0.42577 0.78098 0.0
N191 N 0.96462 0.28254 0.67987 0.0
C192 C 0.01579 0.39207 0.74658 0.0
C193 C 0.98292 0.31869 0.696 0.0
N194 N 0.97408 0.39844 0.65042 0.0
N195 N 0.03292 0.31595 0.76215 0.0
H196 H 0.9419 0.27025 0.63967 0.0
H197 H 0.97096 0.26449 0.70888 0.0
H198 H 0.05557 0.32606 0.80253 0.0
H199 H 0.02554 0.29091 0.73517 0.0
H200 H 0.98605 0.426 0.65984 0.0
H201 H 0.95364 0.38887 0.60373 0.0
H202 H 0.01791 0.44202 0.77047 0.0
H203 H 0.05 0.43676 0.8264 0.0
C204 C 0.60701 0.99036 1.01895 0.0
C205 C 0.62639 0.97378 0.98871 0.0
C206 C 0.68107 0.02153 0.05899 0.0
C207 C 0.6609 0.03658 0.09501 0.0
N208 N 0.60308 0.03155 0.12161 0.0
N209 N 0.68091 0.97104 0.98603 0.0
C210 C 0.62329 0.01969 0.07923 0.0
C211 C 0.66325 0.9888 1.01024 0.0
N212 N 0.57303 0.97812 0.98824 0.0
N213 N 0.71747 0.03881 0.07102 0.0
H214 H 0.66927 0.94839 0.94541 0.0
H215 H 0.70635 0.97772 1.00882 0.0
H216 H 0.731 0.06097 0.11265 0.0
H217 H 0.73446 0.03212 1.03751 0.0
H218 H 0.55669 0.98864 1.00531 0.0
H219 H 0.56243 0.95896 0.93849 0.0
H220 H 0.57518 0.0185 0.11883 0.0
H221 H 0.6137 0.05273 0.16628 0.0
C222 C 0.684 0.65856 0.36685 0.0
C223 C 0.66066 0.62223 0.34273 0.0
C224 C 0.61222 0.62172 0.43035 0.0
C225 C 0.63438 0.65903 0.44713 0.0
N226 N 0.69086 0.71378 0.42878 0.0
N227 N 0.60155 0.57078 0.33936 0.0
C228 C 0.67021 0.67761 0.41474 0.0
C229 C 0.62442 0.60431 0.37116 0.0
N230 N 0.71962 0.67458 0.34548 0.0
N231 N 0.57954 0.60298 0.47058 0.0
H232 H 0.60957 0.55936 0.29046 0.0
H233 H 0.57441 0.55568 0.35474 0.0
H234 H 0.56971 0.61471 0.51413 0.0
H235 H 0.56339 0.57519 0.46725 0.0
H236 H 0.73909 0.69937 0.37016 0.0
H237 H 0.73005 0.6622 0.30552 0.0
H238 H 0.71532 0.72998 0.39765 0.0
H239 H 0.68278 0.72797 0.46978 0.0
C240 C 0.98768 0.66357 0.73409 0.0
C241 C 0.97353 0.62832 0.7684 0.0
C242 C 0.01635 0.62032 0.67876 0.0
C243 C 0.03353 0.6567 0.6531 0.0
N244 N 0.03764 0.71452 0.66229 0.0
N245 N 0.98131 0.57739 0.79105 0.0
C246 C 0.01968 0.6788 0.68242 0.0
C247 C 0.99005 0.60801 0.74609 0.0
N248 N 0.97025 0.68226 0.7502 0.0
N249 N 0.02488 0.59741 0.63759 0.0
H250 H 0.96438 0.56986 0.84532 0.0
H251 H 0.9942 0.56254 0.78169 0.0
H252 H 0.04242 0.60587 0.58434 0.0
H253 H 0.01153 0.56983 0.64914 0.0
H254 H 0.97665 0.70627 0.71901 0.0
H255 H 0.94823 0.67278 0.79248 0.0
H256 H 0.03154 0.73304 0.68995 0.0
H257 H 0.05977 0.72579 0.62015 0.0
C258 C 0.32258 0.98342 0.04278 0.0
C259 C 0.34271 0.96897 0.08194 0.0
C260 C 0.39654 0.01383 1.00403 0.0
C261 C 0.37744 0.03033 0.97184 0.0
N262 N 0.32308 0.03329 0.96638 0.0
N263 N 0.40056 0.97471 0.11225 0.0
C264 C 0.34057 0.01567 0.99262 0.0
C265 C 0.3803 0.98563 0.06678 0.0
N266 N 0.28612 0.96612 0.0533 0.0
N267 N 0.43018 0.02498 0.97263 0.0
H268 H 0.3899 0.95428 0.1587 0.0
H269 H 0.4285 0.988 0.11003 0.0
H270 H 0.44055 0.04312 0.92094 0.0
H271 H 0.44627 0.01438 0.99118 0.0
H272 H 0.26931 0.97246 1.01791 0.0
H273 H 0.27241 0.94425 0.09534 0.0
H274 H 0.2976 0.02685 0.98829 0.0
H275 H 0.33494 0.0556 0.92502 0.0
C276 C 0.18334 0.4209 0.07197 0.0
C277 C 0.1928 0.43016 0.98242 0.0
C278 C 0.25298 0.43844 1.01365 0.0
C279 C 0.24491 0.43301 0.10496 0.0
N280 N 0.20358 0.42413 0.22271 0.0
N281 N 0.23832 0.45206 0.86988 0.0
C282 C 0.21026 0.42528 0.13453 0.0
C283 C 0.22812 0.44013 0.95391 0.0
N284 N 0.14843 0.40747 0.09721 0.0
N285 N 0.28387 0.44044 0.98314 0.0
H286 H 0.22081 0.45274 0.82361 0.0
H287 H 0.26475 0.46385 0.8479 0.0
H288 H 0.30221 0.43836 1.02411 0.0
H289 H 0.28967 0.44056 0.91663 0.0
H290 H 0.13875 0.39638 0.15888 0.0
H291 H 0.12839 0.40479 0.05389 0.0
H292 H 0.18044 0.42261 0.24872 0.0
H293 H 0.22248 0.42786 0.27061 0.0
C294 C 0.8026 0.25607 0.36595 0.0
C295 C 0.80736 0.2441 0.44951 0.0
C296 C 0.76317 0.18192 0.40489 0.0
C297 C 0.75598 0.19458 0.32568 0.0
N298 N 0.76223 0.2454 0.24389 0.0
N299 N 0.78294 0.19593 0.55618 0.0
C300 C 0.77348 0.23218 0.31058 0.0
C301 C 0.78518 0.20703 0.47114 0.0
N302 N 0.82702 0.2895 0.33631 0.0
N303 N 0.74862 0.14586 0.41785 0.0
H304 H 0.7957 0.21352 0.60836 0.0
H305 H 0.76478 0.16993 0.57666 0.0
H306 H 0.73093 0.12666 0.37329 0.0
H307 H 0.75614 0.13526 0.46981 0.0
H308 H 0.8265 0.29811 0.2726 0.0
H309 H 0.85023 0.30695 0.37093 0.0
H310 H 0.7718 0.27277 0.23542 0.0
H311 H 0.74105 0.229 0.20209 0.0
C312 C 0.58119 0.78656 0.80969 0.0
C313 C 0.58137 0.81787 0.7785 0.0
C314 C 0.58651 0.80074 0.62599 0.0
C315 C 0.58341 0.768 0.65663 0.0
N316 N 0.57538 0.72836 0.77682 0.0
N317 N 0.58176 0.85385 0.65713 0.0
C318 C 0.58013 0.7606 0.74836 0.0
C319 C 0.58345 0.82469 0.68662 0.0
N320 N 0.58225 0.78173 0.89826 0.0
N321 N 0.59251 0.80907 0.5386 0.0
H322 H 0.58177 0.87306 0.69924 0.0
H323 H 0.5785 0.85827 0.59142 0.0
H324 H 0.59281 0.79161 0.49138 0.0
H325 H 0.59932 0.83408 0.51288 0.0
H326 H 0.58616 0.76185 0.92603 0.0
H327 H 0.58152 0.79913 0.94501 0.0
H328 H 0.56843 0.71905 0.8409 0.0
H329 H 0.57654 0.70972 0.73487 0.0
C330 C 0.79771 0.57417 0.14621 0.0
C331 C 0.76761 0.57684 0.1174 0.0
C332 C 0.78782 0.58056 0.96362 0.0
C333 C 0.81855 0.57903 0.99264 0.0
N334 N 0.85632 0.58139 0.11227 0.0
N335 N 0.73771 0.58948 1.00102 0.0
C336 C 0.82448 0.57788 0.08426 0.0
C337 C 0.76384 0.58213 1.02669 0.0
N338 N 0.79998 0.56656 0.2324 0.0
N339 N 0.78044 0.57862 0.87568 0.0
H340 H 0.71976 0.59069 0.04524 0.0
H341 H 0.73574 0.59746 0.93769 0.0
H342 H 0.79719 0.57767 0.82745 0.0
H343 H 0.75644 0.57528 0.85043 0.0
H344 H 0.81862 0.55986 0.25592 0.0
H345 H 0.78157 0.56449 0.27997 0.0
H346 H 0.86415 0.58456 0.17795 0.0
H347 H 0.87649 0.58439 0.06902 0.0
C348 C 0.18827 0.79047 0.41568 0.0
C349 C 0.19412 0.76314 0.45154 0.0
C350 C 0.24581 0.7834 0.35165 0.0
C351 C 0.24364 0.81415 0.32605 0.0
N352 N 0.21665 0.85082 0.35681 0.0
N353 N 0.23812 0.7442 0.47276 0.0
C354 C 0.216 0.81888 0.36483 0.0
C355 C 0.2258 0.76281 0.42544 0.0
N356 N 0.15593 0.78884 0.42591 0.0
N357 N 0.2651 0.77207 0.30331 0.0
H358 H 0.22698 0.732 0.53268 0.0
H359 H 0.26247 0.74542 0.45865 0.0
H360 H 0.27655 0.78305 0.24272 0.0
H361 H 0.26508 0.74831 0.31734 0.0
H362 H 0.14964 0.8065 0.39431 0.0
H363 H 0.13401 0.76756 0.45663 0.0
H364 H 0.19869 0.85634 0.38999 0.0
H365 H 0.23764 0.87322 0.32671 0.0
C366 C 0.41901 0.21407 0.79036 0.0
C367 C 0.42543 0.18631 0.76037 0.0
C368 C 0.43314 0.21019 0.60939 0.0
C369 C 0.42485 0.23672 0.63848 0.0
N370 N 0.40388 0.26009 0.75371 0.0
N371 N 0.43123 0.15368 0.63845 0.0
C372 C 0.41587 0.23739 0.72813 0.0
C373 C 0.43046 0.18325 0.66899 0.0
N374 N 0.4179 0.21955 0.87863 0.0
N375 N 0.44453 0.21121 0.52498 0.0
H376 H 0.42852 0.13308 0.67951 0.0
H377 H 0.431 0.14776 0.57196 0.0
H378 H 0.44571 0.22957 0.47868 0.0
H379 H 0.45527 0.19564 0.50249 0.0
H380 H 0.41739 0.24167 0.90507 0.0
H381 H 0.42045 0.20358 0.92627 0.0
H382 H 0.39308 0.25927 0.81553 0.0
H383 H 0.40207 0.27794 0.71051 0.0
C384 C 0.22983 0.48323 0.57344 0.0
C385 C 0.2045 0.44787 0.60024 0.0
C386 C 0.2306 0.42269 0.50185 0.0
C387 C 0.25823 0.45787 0.48169 0.0
N388 N 0.28732 0.52183 0.50345 0.0
N389 N 0.18597 0.38495 0.60782 0.0
C390 C 0.25884 0.48837 0.51885 0.0
C391 C 0.20659 0.41789 0.56999 0.0
N392 N 0.22542 0.51144 0.59745 0.0
N393 N 0.22729 0.39391 0.4552 0.0
H394 H 0.16865 0.38083 0.66028 0.0
H395 H 0.18885 0.36279 0.59354 0.0
H396 H 0.24436 0.3966 0.40331 0.0
H397 H 0.20557 0.36798 0.46205 0.0
H398 H 0.24089 0.53725 0.57235 0.0
H399 H 0.20481 0.50848 0.63901 0.0
H400 H 0.29119 0.54481 0.53625 0.0
H401 H 0.30809 0.52621 0.46055 0.0
C402 C 0.79456 0.2754 0.92873 0.0
C403 C 0.79301 0.27169 0.83634 0.0
C404 C 0.73648 0.21601 0.85217 0.0
C405 C 0.74721 0.21361 0.93934 0.0
N406 N 0.789 0.24225 0.06005 0.0
N407 N 0.75521 0.24463 0.70951 0.0
C408 C 0.77617 0.24406 0.97932 0.0
C409 C 0.76125 0.24421 0.79739 0.0
N410 N 0.81622 0.30807 0.96639 0.0
N411 N 0.70285 0.19165 0.82316 0.0
H412 H 0.76997 0.26751 0.67132 0.0
H413 H 0.73521 0.2227 0.67543 0.0
H414 H 0.68382 0.17185 0.86421 0.0
H415 H 0.69273 0.19326 0.76219 0.0
H416 H 0.81714 0.31227 1.03418 0.0
H417 H 0.83018 0.33113 0.92799 0.0
H418 H 0.81223 0.26357 0.0869 0.0
H419 H 0.77884 0.21862 0.09613 0.0
C420 C 0.52756 0.7781 0.19113 0.0
C421 C 0.55851 0.80781 0.15552 0.0
C422 C 0.59753 0.79474 0.24416 0.0
C423 C 0.56703 0.76299 0.27332 0.0
N424 N 0.50326 0.7212 0.26731 0.0
N425 N 0.62256 0.83989 0.1311 0.0
C426 C 0.53194 0.75369 0.24521 0.0
C427 C 0.59342 0.81463 0.17662 0.0
N428 N 0.49437 0.77378 0.1748 0.0
N429 N 0.63029 0.80615 0.28251 0.0
H430 H 0.62033 0.85464 0.07951 0.0
H431 H 0.6483 0.84358 0.13845 0.0
H432 H 0.63394 0.79245 0.33443 0.0
H433 H 0.65285 0.83094 0.26917 0.0
H434 H 0.47113 0.75487 0.20672 0.0
H435 H 0.49047 0.79054 0.13224 0.0
H436 H 0.47764 0.71139 0.24109 0.0
H437 H 0.50563 0.70304 0.30807 0.0
C438 C 0.78139 0.5757 0.51053 0.0
C439 C 0.75144 0.54187 0.48989 0.0
C440 C 0.77429 0.51195 0.5846 0.0
C441 C 0.80222 0.54624 0.61125 0.0
N442 N 0.82791 0.61054 0.6162 0.0
N443 N 0.71676 0.47791 0.5103 0.0
C444 C 0.80434 0.57808 0.57926 0.0
C445 C 0.7471 0.50986 0.52757 0.0
N446 N 0.78784 0.60551 0.46389 0.0
N447 N 0.77435 0.48177 0.6122 0.0
H448 H 0.69746 0.47568 0.46513 0.0
H449 H 0.71008 0.45412 0.54294 0.0
H450 H 0.79305 0.48269 0.6574 0.0
H451 H 0.75694 0.45617 0.58772 0.0
H452 H 0.81122 0.6303 0.47064 0.0
H453 H 0.77145 0.60457 0.41214 0.0
H454 H 0.82824 0.63432 0.60104 0.0
H455 H 0.84468 0.61309 0.66872 0.0
C456 C 0.18953 0.76527 0.87778 0.0
C457 C 0.19746 0.74052 0.83596 0.0
C458 C 0.25559 0.7677 0.90991 0.0
C459 C 0.24596 0.79035 0.95591 0.0
N460 N 0.20071 0.80411 1.00288 0.0
N461 N 0.2352 0.71412 0.82003 0.0
C462 C 0.21164 0.78654 0.94677 0.0
C463 C 0.22972 0.7404 0.85427 0.0
N464 N 0.16176 0.76956 0.84872 0.0
N465 N 0.28964 0.77318 0.91749 0.0
H466 H 0.21697 0.69443 0.77724 0.0
H467 H 0.25669 0.71069 0.83788 0.0
H468 H 0.30837 0.79205 0.96109 0.0
H469 H 0.2996 0.76016 0.8785 0.0
H470 H 0.157 0.78964 0.87204 0.0
H471 H 0.14588 0.75569 0.7946 0.0
H472 H 0.17462 0.7999 1.00349 0.0
H473 H 0.21675 0.82 0.0547 0.0
C474 C 0.41614 0.19057 0.16403 0.0
C475 C 0.4506 0.19699 0.13939 0.0
C476 C 0.47895 0.25178 0.2276 0.0
C477 C 0.44438 0.24309 0.25841 0.0
N478 N 0.38126 0.20044 0.27339 0.0
N479 N 0.51503 0.23084 0.15262 0.0
C480 C 0.41333 0.21118 0.23211 0.0
C481 C 0.48223 0.22685 0.17246 0.0
N482 N 0.38617 0.16509 0.12108 0.0
N483 N 0.50814 0.28417 0.24847 0.0
H484 H 0.51806 0.21374 0.10902 0.0
H485 H 0.53886 0.24987 0.18239 0.0
H486 H 0.50656 0.3025 0.2907 0.0
H487 H 0.5334 0.29364 0.22043 0.0
H488 H 0.36065 0.16164 0.13109 0.0
H489 H 0.38739 0.14989 0.06892 0.0
H490 H 0.35838 0.17561 0.26217 0.0
H491 H 0.37861 0.21481 0.32552 0.0
C492 C 0.42887 0.56783 0.39416 0.0
C493 C 0.42508 0.53893 0.34127 0.0
C494 C 0.48933 0.57106 0.31189 0.0
C495 C 0.4933 0.60153 0.3595 0.0
N496 N 0.46331 0.63164 0.42207 0.0
N497 N 0.44896 0.51914 0.2251 0.0
C498 C 0.46207 0.6008 0.39407 0.0
C499 C 0.45443 0.54256 0.29192 0.0
N500 N 0.40081 0.56377 0.44483 0.0
N501 N 0.51854 0.56807 0.28975 0.0
H502 H 0.42319 0.50003 0.20479 0.0
H503 H 0.46939 0.52204 0.18298 0.0
H504 H 0.54462 0.58674 0.30839 0.0
H505 H 0.51635 0.54481 0.26215 0.0
H506 H 0.40342 0.58236 0.49264 0.0
H507 H 0.37543 0.54082 0.4423 0.0
H508 H 0.44048 0.63276 0.44002 0.0
H509 H 0.48617 0.65689 0.41781 0.0
C510 C 0.87069 0.45024 0.69048 0.0
C511 C 0.89509 0.47815 0.74681 0.0
C512 C 0.92217 0.44219 0.78767 0.0
C513 C 0.89596 0.41277 0.73685 0.0
N514 N 0.83753 0.38617 0.66623 0.0
N515 N 0.93404 0.49459 0.87261 0.0
C516 C 0.86796 0.41595 0.6953 0.0
C517 C 0.91767 0.47223 0.80302 0.0
N518 N 0.84982 0.45623 0.63303 0.0
N519 N 0.9522 0.44253 0.81836 0.0
H520 H 0.92819 0.51456 0.89009 0.0
H521 H 0.94898 0.48993 0.91935 0.0
H522 H 0.95809 0.42229 0.80517 0.0
H523 H 0.9733 0.46499 0.84846 0.0
H524 H 0.83457 0.43799 0.58387 0.0
H525 H 0.84949 0.48033 0.63102 0.0
H526 H 0.81528 0.38711 0.64232 0.0
H527 H 0.83236 0.36006 0.67655 0.0
C528 C 0.44605 0.86512 0.07291 0.0
C529 C 0.47391 0.88924 1.01642 0.0
C530 C 0.43841 0.91687 0.97605 0.0
C531 C 0.4091 0.89115 1.02757 0.0
N532 N 0.38215 0.83342 0.10086 0.0
N533 N 0.49059 0.92824 0.89107 0.0
C534 C 0.41201 0.86311 0.06953 0.0
C535 C 0.46818 0.91197 0.96042 0.0
N536 N 0.45194 0.84392 0.12939 0.0
N537 N 0.4389 0.94691 0.94512 0.0
H538 H 0.51057 0.92238 0.87369 0.0
H539 H 0.48608 0.9433 0.84444 0.0
H540 H 0.41883 0.95302 0.95866 0.0
H541 H 0.4613 0.96779 0.91455 0.0
H542 H 0.43399 0.82897 0.17907 0.0
H543 H 0.47571 0.8429 0.1296 0.0
H544 H 0.38266 0.81099 0.12482 0.0
H545 H 0.35619 0.8291 0.09319 0.0
C546 C 0.58202 0.43879 0.3966 0.0
C547 C 0.58679 0.46853 0.3461 0.0
C548 C 0.52321 0.43679 0.30852 0.0
C549 C 0.51842 0.40564 0.35377 0.0
N550 N 0.54734 0.37449 0.41564 0.0
N551 N 0.56512 0.49005 0.22891 0.0
C552 C 0.54897 0.40582 0.39087 0.0
C553 C 0.55843 0.46565 0.29374 0.0
N554 N 0.60901 0.44196 0.45005 0.0
N555 N 0.49441 0.43998 0.28358 0.0
H556 H 0.59121 0.50953 0.21208 0.0
H557 H 0.54552 0.48772 0.18471 0.0
H558 H 0.46798 0.42089 0.29801 0.0
H559 H 0.49704 0.46364 0.25781 0.0
H560 H 0.60546 0.42252 0.49604 0.0
H561 H 0.63435 0.46498 0.4518 0.0
H562 H 0.56982 0.37312 0.43561 0.0
H563 H 0.52476 0.3493 0.40624 0.0
C564 C 0.088 0.55207 0.62172 0.0
C565 C 0.1116 0.58116 0.67513 0.0
C566 C 0.13886 0.54618 0.72665 0.0
C567 C 0.11019 0.51466 0.68768 0.0
N568 N 0.05292 0.48782 0.61024 0.0
N569 N 0.15867 0.60586 0.78414 0.0
C570 C 0.08353 0.51764 0.6381 0.0
C571 C 0.13676 0.57818 0.72953 0.0
N572 N 0.07036 0.55742 0.55415 0.0
N573 N 0.1691 0.54651 0.7559 0.0
H574 H 0.15939 0.63049 0.78432 0.0
H575 H 0.17449 0.60349 0.83264 0.0
H576 H 0.17337 0.52484 0.74883 0.0
H577 H 0.19188 0.56978 0.77739 0.0
H578 H 0.05466 0.53745 0.50878 0.0
H579 H 0.07572 0.58306 0.53676 0.0
H580 H 0.03154 0.48909 0.58156 0.0
H581 H 0.04679 0.46175 0.62455 0.0
C582 C 0.59321 0.14077 0.0466 0.0
C583 C 0.596 0.11154 1.01126 0.0
C584 C 0.53649 0.08841 0.9443 0.0
C585 C 0.53093 0.11261 0.99549 0.0
N586 N 0.55345 0.16128 0.10041 0.0
N587 N 0.56659 0.05393 0.93593 0.0
C588 C 0.55914 0.13863 0.04835 0.0
C589 C 0.56668 0.08439 0.96216 0.0
N590 N 0.62322 0.17151 0.07335 0.0
N591 N 0.51351 0.06998 0.87722 0.0
H592 H 0.58708 0.04862 0.95108 0.0
H593 H 0.54424 0.03213 0.90745 0.0
H594 H 0.49337 0.07532 0.85793 0.0
H595 H 0.51767 0.05362 0.83374 0.0
H596 H 0.62275 0.19457 0.09252 0.0
H597 H 0.64916 0.17573 0.06594 0.0
H598 H 0.5718 0.17789 0.14782 0.0
H599 H 0.52946 0.16187 0.09969 0.0
loop_
_geom_bond_atom_site_label_1
_geom_bond_atom_site_label_2
_geom_bond_distance
_geom_bond_site_symmetry_2
_ccdc_geom_bond_type
Co0 O1 2.216 . S
Co0 O2 2.091 . S
Co0 O4 2.004 . S
Co0 O10 2.021 . S
Co0 O12 2.137 . S
Co0 O13 2.244 . S
O1 Co0 2.216 . S
O1 C8 1.247 . S
O2 Co0 2.091 . S
O2 C8 1.261 . S
C3 O12 1.247 . S
C3 O13 1.272 . S
O4 Co0 2.004 . S
O4 C9 1.259 . S
Co5 O6 2.061 . S
Co5 O11 2.052 . S
Co5 O13 2.135 . S
O6 Co5 2.061 . S
O6 C9 1.235 . S
C7 O10 1.238 . S
C7 O11 1.241 . S
C8 O1 1.247 . S
C8 O2 1.261 . S
C9 O4 1.259 . S
C9 O6 1.235 . S
O10 Co0 2.021 . S
O10 C7 1.238 . S
O11 Co5 2.052 . S
O11 C7 1.241 . S
O12 Co0 2.137 . S
O12 C3 1.247 . S
O13 Co0 2.244 . S
O13 C3 1.272 . S
O13 Co5 2.135 . S
Co14 O15 2.216 . S
Co14 O16 2.091 . S
Co14 O18 2.004 . S
Co14 O24 2.021 . S
Co14 O26 2.137 . S
Co14 O27 2.244 . S
O15 Co14 2.216 . S
O15 C22 1.247 . S
O16 Co14 2.091 . S
O16 C22 1.261 . S
C17 O26 1.247 . S
C17 O27 1.272 . S
O18 Co14 2.004 . S
O18 C23 1.259 . S
Co19 O20 2.061 . S
Co19 O25 2.052 . S
Co19 O27 2.135 . S
O20 Co19 2.061 . S
O20 C23 1.235 . S
C21 O24 1.238 . S
C21 O25 1.241 . S
C22 O15 1.247 . S
C22 O16 1.261 . S
C23 O18 1.259 . S
C23 O20 1.235 . S
O24 Co14 2.021 . S
O24 C21 1.238 . S
O25 Co19 2.052 . S
O25 C21 1.241 . S
O26 Co14 2.137 . S
O26 C17 1.247 . S
O27 Co14 2.244 . S
O27 C17 1.272 . S
O27 Co19 2.135 . S
Co28 O29 2.216 . S
Co28 O30 2.091 . S
Co28 O32 2.004 . S
Co28 O38 2.021 . S
Co28 O40 2.137 . S
Co28 O41 2.244 . S
O29 Co28 2.216 . S
O29 C36 1.247 . S
O30 Co28 2.091 . S
O30 C36 1.261 . S
C31 O40 1.247 . S
C31 O41 1.272 . S
O32 Co28 2.004 . S
O32 C37 1.259 1_556 S
Co33 O34 2.061 . S
Co33 O39 2.052 . S
Co33 O41 2.135 1_554 S
O34 Co33 2.061 . S
O34 C37 1.235 . S
C35 O38 1.238 1_554 S
C35 O39 1.241 . S
C36 O29 1.247 . S
C36 O30 1.261 . S
C37 O32 1.259 1_554 S
C37 O34 1.235 . S
O38 Co28 2.021 . S
O38 C35 1.238 1_556 S
O39 Co33 2.052 . S
O39 C35 1.241 . S
O40 Co28 2.137 . S
O40 C31 1.247 . S
O41 Co28 2.244 . S
O41 C31 1.272 . S
O41 Co33 2.135 1_556 S
Co42 O43 2.216 . S
Co42 O44 2.091 . S
Co42 O46 2.004 . S
Co42 O52 2.021 . S
Co42 O54 2.137 . S
Co42 O55 2.244 . S
O43 Co42 2.216 . S
O43 C50 1.247 . S
O44 Co42 2.091 . S
O44 C50 1.261 . S
C45 O54 1.247 . S
C45 O55 1.272 . S
O46 Co42 2.004 . S
O46 C51 1.259 . S
Co47 O48 2.061 . S
Co47 O53 2.052 . S
Co47 O55 2.135 . S
O48 Co47 2.061 . S
O48 C51 1.235 . S
C49 O52 1.238 . S
C49 O53 1.241 . S
C50 O43 1.247 . S
C50 O44 1.261 . S
C51 O46 1.259 . S
C51 O48 1.235 . S
O52 Co42 2.021 . S
O52 C49 1.238 . S
O53 Co47 2.052 . S
O53 C49 1.241 . S
O54 Co42 2.137 . S
O54 C45 1.247 . S
O55 Co42 2.244 . S
O55 C45 1.272 . S
O55 Co47 2.135 . S
Co56 O57 2.216 . S
Co56 O58 2.091 . S
Co56 O60 2.004 . S
Co56 O66 2.021 . S
Co56 O68 2.137 . S
Co56 O69 2.244 . S
O57 Co56 2.216 . S
O57 C64 1.247 . S
O58 Co56 2.091 . S
O58 C64 1.261 . S
C59 O68 1.247 . S
C59 O69 1.272 . S
O60 Co56 2.004 . S
O60 C65 1.259 . S
Co61 O62 2.061 . S
Co61 O67 2.052 . S
Co61 O69 2.135 . S
O62 Co61 2.061 . S
O62 C65 1.235 . S
C63 O66 1.238 . S
C63 O67 1.241 . S
C64 O57 1.247 . S
C64 O58 1.261 . S
C65 O60 1.259 . S
C65 O62 1.235 . S
O66 Co56 2.021 . S
O66 C63 1.238 . S
O67 Co61 2.052 . S
O67 C63 1.241 . S
O68 Co56 2.137 . S
O68 C59 1.247 . S
O69 Co56 2.244 . S
O69 C59 1.272 . S
O69 Co61 2.135 . S
Co70 O71 2.216 . S
Co70 O72 2.091 . S
Co70 O74 2.004 . S
Co70 O80 2.021 . S
Co70 O82 2.137 . S
Co70 O83 2.244 . S
O71 Co70 2.216 . S
O71 C78 1.247 . S
O72 Co70 2.091 . S
O72 C78 1.261 . S
C73 O82 1.247 . S
C73 O83 1.272 . S
O74 Co70 2.004 . S
O74 C79 1.259 1_556 S
Co75 O76 2.061 . S
Co75 O81 2.052 . S
Co75 O83 2.135 1_554 S
O76 Co75 2.061 . S
O76 C79 1.235 . S
C77 O80 1.238 1_554 S
C77 O81 1.241 . S
C78 O71 1.247 . S
C78 O72 1.261 . S
C79 O74 1.259 1_554 S
C79 O76 1.235 . S
O80 Co70 2.021 . S
O80 C77 1.238 1_556 S
O81 Co75 2.052 . S
O81 C77 1.241 . S
O82 Co70 2.137 . S
O82 C73 1.247 . S
O83 Co70 2.244 . S
O83 C73 1.272 . S
O83 Co75 2.135 1_556 S
Co84 O85 2.216 . S
Co84 O86 2.091 . S
Co84 O88 2.004 . S
Co84 O94 2.021 . S
Co84 O96 2.137 . S
Co84 O97 2.244 . S
O85 Co84 2.216 . S
O85 C92 1.247 . S
O86 Co84 2.091 . S
O86 C92 1.261 . S
C87 O96 1.247 . S
C87 O97 1.272 . S
O88 Co84 2.004 . S
O88 C93 1.259 . S
Co89 O90 2.061 . S
Co89 O95 2.052 . S
Co89 O97 2.135 . S
O90 Co89 2.061 . S
O90 C93 1.235 . S
C91 O94 1.238 . S
C91 O95 1.241 . S
C92 O85 1.247 . S
C92 O86 1.261 . S
C93 O88 1.259 . S
C93 O90 1.235 . S
O94 Co84 2.021 . S
O94 C91 1.238 . S
O95 Co89 2.052 . S
O95 C91 1.241 . S
O96 Co84 2.137 . S
O96 C87 1.247 . S
O97 Co84 2.244 . S
O97 C87 1.272 . S
O97 Co89 2.135 . S
Co98 O99 2.216 . S
Co98 O100 2.091 . S
Co98 O102 2.004 . S
Co98 O108 2.021 . S
Co98 O110 2.137 . S
Co98 O111 2.244 . S
O99 Co98 2.216 . S
O99 C106 1.247 . S
O100 Co98 2.091 . S
O100 C106 1.261 . S
C101 O110 1.247 . S
C101 O111 1.272 . S
O102 Co98 2.004 . S
O102 C107 1.259 . S
Co103 O104 2.061 . S
Co103 O109 2.052 . S
Co103 O111 2.135 . S
O104 Co103 2.061 . S
O104 C107 1.235 . S
C105 O108 1.238 . S
C105 O109 1.241 . S
C106 O99 1.247 . S
C106 O100 1.261 . S
C107 O102 1.259 . S
C107 O104 1.235 . S
O108 Co98 2.021 . S
O108 C105 1.238 . S
O109 Co103 2.052 . S
O109 C105 1.241 . S
O110 Co98 2.137 . S
O110 C101 1.247 . S
O111 Co98 2.244 . S
O111 C101 1.272 . S
O111 Co103 2.135 . S
Co112 O113 2.216 . S
Co112 O114 2.091 . S
Co112 O116 2.004 . S
Co112 O122 2.021 . S
Co112 O124 2.137 . S
Co112 O125 2.244 . S
O113 Co112 2.216 . S
O113 C120 1.247 . S
O114 Co112 2.091 . S
O114 C120 1.261 . S
C115 O124 1.247 . S
C115 O125 1.272 . S
O116 Co112 2.004 . S
O116 C121 1.259 1_554 S
Co117 O118 2.061 . S
Co117 O123 2.052 . S
Co117 O125 2.135 1_556 S
O118 Co117 2.061 . S
O118 C121 1.235 . S
C119 O122 1.238 1_556 S
C119 O123 1.241 . S
C120 O113 1.247 . S
C120 O114 1.261 . S
C121 O116 1.259 1_556 S
C121 O118 1.235 . S
O122 Co112 2.021 . S
O122 C119 1.238 1_554 S
O123 Co117 2.052 . S
O123 C119 1.241 . S
O124 Co112 2.137 . S
O124 C115 1.247 . S
O125 Co112 2.244 . S
O125 C115 1.272 . S
O125 Co117 2.135 1_554 S
Co126 O127 2.216 . S
Co126 O128 2.091 . S
Co126 O130 2.004 . S
Co126 O136 2.021 . S
Co126 O138 2.137 . S
Co126 O139 2.244 . S
O127 Co126 2.216 . S
O127 C134 1.247 . S
O128 Co126 2.091 . S
O128 C134 1.261 . S
C129 O138 1.247 . S
C129 O139 1.272 . S
O130 Co126 2.004 . S
O130 C135 1.259 . S
Co131 O132 2.061 . S
Co131 O137 2.052 . S
Co131 O139 2.135 . S
O132 Co131 2.061 . S
O132 C135 1.235 . S
C133 O136 1.238 . S
C133 O137 1.241 . S
C134 O127 1.247 . S
C134 O128 1.261 . S
C135 O130 1.259 . S
C135 O132 1.235 . S
O136 Co126 2.021 . S
O136 C133 1.238 . S
O137 Co131 2.052 . S
O137 C133 1.241 . S
O138 Co126 2.137 . S
O138 C129 1.247 . S
O139 Co126 2.244 . S
O139 C129 1.272 . S
O139 Co131 2.135 . S
Co140 O141 2.216 . S
Co140 O142 2.091 . S
Co140 O144 2.004 . S
Co140 O150 2.021 . S
Co140 O152 2.137 . S
Co140 O153 2.244 . S
O141 Co140 2.216 . S
O141 C148 1.247 . S
O142 Co140 2.091 . S
O142 C148 1.261 . S
C143 O152 1.247 . S
C143 O153 1.272 . S
O144 Co140 2.004 . S
O144 C149 1.259 . S
Co145 O146 2.061 . S
Co145 O151 2.052 . S
Co145 O153 2.135 . S
O146 Co145 2.061 . S
O146 C149 1.235 . S
C147 O150 1.238 . S
C147 O151 1.241 . S
C148 O141 1.247 . S
C148 O142 1.261 . S
C149 O144 1.259 . S
C149 O146 1.235 . S
O150 Co140 2.021 . S
O150 C147 1.238 . S
O151 Co145 2.052 . S
O151 C147 1.241 . S
O152 Co140 2.137 . S
O152 C143 1.247 . S
O153 Co140 2.244 . S
O153 C143 1.272 . S
O153 Co145 2.135 . S
Co154 O155 2.216 . S
Co154 O156 2.091 . S
Co154 O158 2.004 . S
Co154 O164 2.021 . S
Co154 O166 2.137 . S
Co154 O167 2.244 . S
O155 Co154 2.216 . S
O155 C162 1.247 . S
O156 Co154 2.091 . S
O156 C162 1.261 . S
C157 O166 1.247 . S
C157 O167 1.272 . S
O158 Co154 2.004 . S
O158 C163 1.259 1_554 S
Co159 O160 2.061 . S
Co159 O165 2.052 . S
Co159 O167 2.135 1_556 S
O160 Co159 2.061 . S
O160 C163 1.235 . S
C161 O164 1.238 1_556 S
C161 O165 1.241 . S
C162 O155 1.247 . S
C162 O156 1.261 . S
C163 O158 1.259 1_556 S
C163 O160 1.235 . S
O164 Co154 2.021 . S
O164 C161 1.238 1_554 S
O165 Co159 2.052 . S
O165 C161 1.241 . S
O166 Co154 2.137 . S
O166 C157 1.247 . S
O167 Co154 2.244 . S
O167 C157 1.272 . S
O167 Co159 2.135 1_554 S
C168 C169 1.363 . S
C168 C174 1.379 . S
C168 N176 1.356 . S
C169 C168 1.363 . S
C169 C175 1.363 . S
C170 C171 1.363 . S
C170 C175 1.379 . S
C170 N177 1.356 . S
C171 C170 1.363 . S
C171 C174 1.363 . S
N172 C174 1.356 . S
N172 H184 0.984 . S
N172 H185 0.985 . S
N173 C175 1.356 . S
N173 H178 0.984 . S
N173 H179 0.985 . S
C174 C168 1.379 . S
C174 C171 1.363 . S
C174 N172 1.356 . S
C175 C169 1.363 . S
C175 C170 1.379 . S
C175 N173 1.356 . S
N176 C168 1.356 . S
N176 H182 0.984 . S
N176 H183 0.984 . S
N177 C170 1.356 . S
N177 H180 0.984 . S
N177 H181 0.985 . S
H178 N173 0.984 . S
H179 N173 0.985 . S
H180 N177 0.984 . S
H181 N177 0.985 . S
H182 N176 0.984 . S
H183 N176 0.984 . S
H184 N172 0.984 . S
H185 N172 0.985 . S
C186 C187 1.363 . S
C186 C192 1.379 1_655 S
C186 N194 1.356 . S
C187 C186 1.363 . S
C187 C193 1.363 . S
C188 C189 1.363 . S
C188 C193 1.379 1_455 S
C188 N195 1.356 . S
C189 C188 1.363 . S
C189 C192 1.363 . S
N190 C192 1.356 . S
N190 H202 0.984 . S
N190 H203 0.985 . S
N191 C193 1.356 . S
N191 H196 0.984 . S
N191 H197 0.985 . S
C192 C186 1.379 1_455 S
C192 C189 1.363 . S
C192 N190 1.356 . S
C193 C187 1.363 . S
C193 C188 1.379 1_655 S
C193 N191 1.356 . S
N194 C186 1.356 . S
N194 H200 0.984 . S
N194 H201 0.984 . S
N195 C188 1.356 . S
N195 H198 0.984 . S
N195 H199 0.985 . S
H196 N191 0.984 . S
H197 N191 0.985 . S
H198 N195 0.984 . S
H199 N195 0.985 . S
H200 N194 0.984 . S
H201 N194 0.984 . S
H202 N190 0.984 . S
H203 N190 0.985 . S
C204 C205 1.363 1_554 S
C204 C210 1.379 1_565 S
C204 N212 1.356 . S
C205 C204 1.363 1_556 S
C205 C211 1.363 . S
C206 C207 1.363 1_556 S
C206 C211 1.379 1_545 S
C206 N213 1.356 . S
C207 C206 1.363 1_554 S
C207 C210 1.363 . S
N208 C210 1.356 . S
N208 H220 0.984 1_545 S
N208 H221 0.985 . S
N209 C211 1.356 . S
N209 H214 0.984 . S
N209 H215 0.985 1_565 S
C210 C204 1.379 1_545 S
C210 C207 1.363 . S
C210 N208 1.356 . S
C211 C205 1.363 . S
C211 C206 1.379 1_565 S
C211 N209 1.356 . S
N212 C204 1.356 . S
N212 H218 0.984 . S
N212 H219 0.984 . S
N213 C206 1.356 . S
N213 H216 0.984 . S
N213 H217 0.985 . S
H214 N209 0.984 . S
H215 N209 0.985 1_545 S
H216 N213 0.984 . S
H217 N213 0.985 . S
H218 N212 0.984 . S
H219 N212 0.984 . S
H220 N208 0.984 1_565 S
H221 N208 0.985 . S
C222 C223 1.363 . S
C222 C228 1.379 . S
C222 N230 1.356 . S
C223 C222 1.363 . S
C223 C229 1.363 . S
C224 C225 1.363 . S
C224 C229 1.379 . S
C224 N231 1.356 . S
C225 C224 1.363 . S
C225 C228 1.363 . S
N226 C228 1.356 . S
N226 H238 0.984 . S
N226 H239 0.985 . S
N227 C229 1.356 . S
N227 H232 0.984 . S
N227 H233 0.985 . S
C228 C222 1.379 . S
C228 C225 1.363 . S
C228 N226 1.356 . S
C229 C223 1.363 . S
C229 C224 1.379 . S
C229 N227 1.356 . S
N230 C222 1.356 . S
N230 H236 0.984 . S
N230 H237 0.984 . S
N231 C224 1.356 . S
N231 H234 0.984 . S
N231 H235 0.985 . S
H232 N227 0.984 . S
H233 N227 0.985 . S
H234 N231 0.984 . S
H235 N231 0.985 . S
H236 N230 0.984 . S
H237 N230 0.984 . S
H238 N226 0.984 . S
H239 N226 0.985 . S
C240 C241 1.363 . S
C240 C246 1.379 1_655 S
C240 N248 1.356 . S
C241 C240 1.363 . S
C241 C247 1.363 . S
C242 C243 1.363 . S
C242 C247 1.379 1_455 S
C242 N249 1.356 . S
C243 C242 1.363 . S
C243 C246 1.363 . S
N244 C246 1.356 . S
N244 H256 0.984 . S
N244 H257 0.985 . S
N245 C247 1.356 . S
N245 H250 0.984 . S
N245 H251 0.985 . S
C246 C240 1.379 1_455 S
C246 C243 1.363 . S
C246 N244 1.356 . S
C247 C241 1.363 . S
C247 C242 1.379 1_655 S
C247 N245 1.356 . S
N248 C240 1.356 . S
N248 H254 0.984 . S
N248 H255 0.984 . S
N249 C242 1.356 . S
N249 H252 0.984 . S
N249 H253 0.985 . S
H250 N245 0.984 . S
H251 N245 0.985 . S
H252 N249 0.984 . S
H253 N249 0.985 . S
H254 N248 0.984 . S
H255 N248 0.984 . S
H256 N244 0.984 . S
H257 N244 0.985 . S
C258 C259 1.363 . S
C258 C264 1.379 1_564 S
C258 N266 1.356 . S
C259 C258 1.363 . S
C259 C265 1.363 . S
C260 C261 1.363 . S
C260 C265 1.379 1_546 S
C260 N267 1.356 . S
C261 C260 1.363 . S
C261 C264 1.363 . S
N262 C264 1.356 . S
N262 H274 0.984 . S
N262 H275 0.985 . S
N263 C265 1.356 . S
N263 H268 0.984 . S
N263 H269 0.985 . S
C264 C258 1.379 1_546 S
C264 C261 1.363 . S
C264 N262 1.356 . S
C265 C259 1.363 . S
C265 C260 1.379 1_564 S
C265 N263 1.356 . S
N266 C258 1.356 . S
N266 H272 0.984 . S
N266 H273 0.984 . S
N267 C260 1.356 . S
N267 H270 0.984 . S
N267 H271 0.985 . S
H268 N263 0.984 . S
H269 N263 0.985 . S
H270 N267 0.984 . S
H271 N267 0.985 . S
H272 N266 0.984 . S
H273 N266 0.984 . S
H274 N262 0.984 . S
H275 N262 0.985 . S
C276 C277 1.363 . S
C276 C282 1.379 1_556 S
C276 N284 1.356 . S
C277 C276 1.363 . S
C277 C283 1.363 . S
C278 C279 1.363 . S
C278 C283 1.379 1_554 S
C278 N285 1.356 . S
C279 C278 1.363 . S
C279 C282 1.363 . S
N280 C282 1.356 . S
N280 H292 0.984 . S
N280 H293 0.985 . S
N281 C283 1.356 . S
N281 H286 0.984 . S
N281 H287 0.985 . S
C282 C276 1.379 1_554 S
C282 C279 1.363 . S
C282 N280 1.356 . S
C283 C277 1.363 . S
C283 C278 1.379 1_556 S
C283 N281 1.356 . S
N284 C276 1.356 . S
N284 H290 0.984 1_556 S
N284 H291 0.984 . S
N285 C278 1.356 . S
N285 H288 0.984 . S
N285 H289 0.985 1_554 S
H286 N281 0.984 . S
H287 N281 0.985 . S
H288 N285 0.984 . S
H289 N285 0.985 1_556 S
H290 N284 0.984 1_554 S
H291 N284 0.984 . S
H292 N280 0.984 . S
H293 N280 0.985 . S
C294 C295 1.363 . S
C294 C300 1.379 . S
C294 N302 1.356 . S
C295 C294 1.363 . S
C295 C301 1.363 . S
C296 C297 1.363 . S
C296 C301 1.379 . S
C296 N303 1.356 . S
C297 C296 1.363 . S
C297 C300 1.363 . S
N298 C300 1.356 . S
N298 H310 0.984 . S
N298 H311 0.985 . S
N299 C301 1.356 . S
N299 H304 0.984 . S
N299 H305 0.985 . S
C300 C294 1.379 . S
C300 C297 1.363 . S
C300 N298 1.356 . S
C301 C295 1.363 . S
C301 C296 1.379 . S
C301 N299 1.356 . S
N302 C294 1.356 . S
N302 H308 0.984 . S
N302 H309 0.984 . S
N303 C296 1.356 . S
N303 H306 0.984 . S
N303 H307 0.985 . S
H304 N299 0.984 . S
H305 N299 0.985 . S
H306 N303 0.984 . S
H307 N303 0.985 . S
H308 N302 0.984 . S
H309 N302 0.984 . S
H310 N298 0.984 . S
H311 N298 0.985 . S
C312 C313 1.363 . S
C312 C318 1.379 . S
C312 N320 1.356 . S
C313 C312 1.363 . S
C313 C319 1.363 . S
C314 C315 1.363 . S
C314 C319 1.379 . S
C314 N321 1.356 . S
C315 C314 1.363 . S
C315 C318 1.363 . S
N316 C318 1.356 . S
N316 H328 0.984 . S
N316 H329 0.985 . S
N317 C319 1.356 . S
N317 H322 0.984 . S
N317 H323 0.985 . S
C318 C312 1.379 . S
C318 C315 1.363 . S
C318 N316 1.356 . S
C319 C313 1.363 . S
C319 C314 1.379 . S
C319 N317 1.356 . S
N320 C312 1.356 . S
N320 H326 0.984 . S
N320 H327 0.984 . S
N321 C314 1.356 . S
N321 H324 0.984 . S
N321 H325 0.985 . S
H322 N317 0.984 . S
H323 N317 0.985 . S
H324 N321 0.984 . S
H325 N321 0.985 . S
H326 N320 0.984 . S
H327 N320 0.984 . S
H328 N316 0.984 . S
H329 N316 0.985 . S
C330 C331 1.363 . S
C330 C336 1.379 1_554 S
C330 N338 1.356 . S
C331 C330 1.363 . S
C331 C337 1.363 . S
C332 C333 1.363 . S
C332 C337 1.379 1_556 S
C332 N339 1.356 . S
C333 C332 1.363 . S
C333 C336 1.363 . S
N334 C336 1.356 . S
N334 H346 0.984 1_556 S
N334 H347 0.985 . S
N335 C337 1.356 . S
N335 H340 0.984 . S
N335 H341 0.985 1_554 S
C336 C330 1.379 1_556 S
C336 C333 1.363 . S
C336 N334 1.356 . S
C337 C331 1.363 . S
C337 C332 1.379 1_554 S
C337 N335 1.356 . S
N338 C330 1.356 . S
N338 H344 0.984 . S
N338 H345 0.984 . S
N339 C332 1.356 . S
N339 H342 0.984 . S
N339 H343 0.985 . S
H340 N335 0.984 . S
H341 N335 0.985 1_556 S
H342 N339 0.984 . S
H343 N339 0.985 . S
H344 N338 0.984 . S
H345 N338 0.984 . S
H346 N334 0.984 1_554 S
H347 N334 0.985 . S
C348 C349 1.363 . S
C348 C354 1.379 . S
C348 N356 1.356 . S
C349 C348 1.363 . S
C349 C355 1.363 . S
C350 C351 1.363 . S
C350 C355 1.379 . S
C350 N357 1.356 . S
C351 C350 1.363 . S
C351 C354 1.363 . S
N352 C354 1.356 . S
N352 H364 0.984 . S
N352 H365 0.985 . S
N353 C355 1.356 . S
N353 H358 0.984 . S
N353 H359 0.985 . S
C354 C348 1.379 . S
C354 C351 1.363 . S
C354 N352 1.356 . S
C355 C349 1.363 . S
C355 C350 1.379 . S
C355 N353 1.356 . S
N356 C348 1.356 . S
N356 H362 0.984 . S
N356 H363 0.984 . S
N357 C350 1.356 . S
N357 H360 0.984 . S
N357 H361 0.985 . S
H358 N353 0.984 . S
H359 N353 0.985 . S
H360 N357 0.984 . S
H361 N357 0.985 . S
H362 N356 0.984 . S
H363 N356 0.984 . S
H364 N352 0.984 . S
H365 N352 0.985 . S
C366 C367 1.363 . S
C366 C372 1.379 . S
C366 N374 1.356 . S
C367 C366 1.363 . S
C367 C373 1.363 . S
C368 C369 1.363 . S
C368 C373 1.379 . S
C368 N375 1.356 . S
C369 C368 1.363 . S
C369 C372 1.363 . S
N370 C372 1.356 . S
N370 H382 0.984 . S
N370 H383 0.985 . S
N371 C373 1.356 . S
N371 H376 0.984 . S
N371 H377 0.985 . S
C372 C366 1.379 . S
C372 C369 1.363 . S
C372 N370 1.356 . S
C373 C367 1.363 . S
C373 C368 1.379 . S
C373 N371 1.356 . S
N374 C366 1.356 . S
N374 H380 0.984 . S
N374 H381 0.984 . S
N375 C368 1.356 . S
N375 H378 0.984 . S
N375 H379 0.985 . S
H376 N371 0.984 . S
H377 N371 0.985 . S
H378 N375 0.984 . S
H379 N375 0.985 . S
H380 N374 0.984 . S
H381 N374 0.984 . S
H382 N370 0.984 . S
H383 N370 0.985 . S
C384 C385 1.363 . S
C384 C390 1.379 . S
C384 N392 1.356 . S
C385 C384 1.363 . S
C385 C391 1.363 . S
C386 C387 1.363 . S
C386 C391 1.379 . S
C386 N393 1.356 . S
C387 C386 1.363 . S
C387 C390 1.363 . S
N388 C390 1.356 . S
N388 H400 0.984 . S
N388 H401 0.985 . S
N389 C391 1.356 . S
N389 H394 0.984 . S
N389 H395 0.985 . S
C390 C384 1.379 . S
C390 C387 1.363 . S
C390 N388 1.356 . S
C391 C385 1.363 . S
C391 C386 1.379 . S
C391 N389 1.356 . S
N392 C384 1.356 . S
N392 H398 0.984 . S
N392 H399 0.984 . S
N393 C386 1.356 . S
N393 H396 0.984 . S
N393 H397 0.985 . S
H394 N389 0.984 . S
H395 N389 0.985 . S
H396 N393 0.984 . S
H397 N393 0.985 . S
H398 N392 0.984 . S
H399 N392 0.984 . S
H400 N388 0.984 . S
H401 N388 0.985 . S
C402 C403 1.363 . S
C402 C408 1.379 . S
C402 N410 1.356 . S
C403 C402 1.363 . S
C403 C409 1.363 . S
C404 C405 1.363 . S
C404 C409 1.379 . S
C404 N411 1.356 . S
C405 C404 1.363 . S
C405 C408 1.363 . S
N406 C408 1.356 . S
N406 H418 0.984 1_556 S
N406 H419 0.985 1_556 S
N407 C409 1.356 . S
N407 H412 0.984 . S
N407 H413 0.985 . S
C408 C402 1.379 . S
C408 C405 1.363 . S
C408 N406 1.356 . S
C409 C403 1.363 . S
C409 C404 1.379 . S
C409 N407 1.356 . S
N410 C402 1.356 . S
N410 H416 0.984 . S
N410 H417 0.984 . S
N411 C404 1.356 . S
N411 H414 0.984 . S
N411 H415 0.985 . S
H412 N407 0.984 . S
H413 N407 0.985 . S
H414 N411 0.984 . S
H415 N411 0.985 . S
H416 N410 0.984 . S
H417 N410 0.984 . S
H418 N406 0.984 1_554 S
H419 N406 0.985 1_554 S
C420 C421 1.363 . S
C420 C426 1.379 . S
C420 N428 1.356 . S
C421 C420 1.363 . S
C421 C427 1.363 . S
C422 C423 1.363 . S
C422 C427 1.379 . S
C422 N429 1.356 . S
C423 C422 1.363 . S
C423 C426 1.363 . S
N424 C426 1.356 . S
N424 H436 0.984 . S
N424 H437 0.985 . S
N425 C427 1.356 . S
N425 H430 0.978 1_554 S
N425 H431 0.985 . S
C426 C420 1.379 . S
C426 C423 1.363 . S
C426 N424 1.356 . S
C427 C421 1.363 . S
C427 C422 1.379 . S
C427 N425 1.356 . S
N428 C420 1.356 . S
N428 H434 0.984 . S
N428 H435 0.984 . S
N429 C422 1.356 . S
N429 H432 0.984 . S
N429 H433 0.985 . S
H430 N425 0.978 1_556 S
H431 N425 0.985 . S
H432 N429 0.984 . S
H433 N429 0.985 . S
H434 N428 0.984 . S
H435 N428 0.984 . S
H436 N424 0.984 . S
H437 N424 0.985 . S
C438 C439 1.363 . S
C438 C444 1.379 . S
C438 N446 1.356 . S
C439 C438 1.363 . S
C439 C445 1.363 . S
C440 C441 1.363 . S
C440 C445 1.379 . S
C440 N447 1.356 . S
C441 C440 1.363 . S
C441 C444 1.363 . S
N442 C444 1.356 . S
N442 H454 0.984 . S
N442 H455 0.985 . S
N443 C445 1.356 . S
N443 H448 0.984 . S
N443 H449 0.985 . S
C444 C438 1.379 . S
C444 C441 1.363 . S
C444 N442 1.356 . S
C445 C439 1.363 . S
C445 C440 1.379 . S
C445 N443 1.356 . S
N446 C438 1.356 . S
N446 H452 0.984 . S
N446 H453 0.984 . S
N447 C440 1.356 . S
N447 H450 0.984 . S
N447 H451 0.985 . S
H448 N443 0.984 . S
H449 N443 0.985 . S
H450 N447 0.984 . S
H451 N447 0.985 . S
H452 N446 0.984 . S
H453 N446 0.984 . S
H454 N442 0.984 . S
H455 N442 0.985 . S
C456 C457 1.363 . S
C456 C462 1.379 . S
C456 N464 1.356 . S
C457 C456 1.363 . S
C457 C463 1.363 . S
C458 C459 1.363 . S
C458 C463 1.379 . S
C458 N465 1.356 . S
C459 C458 1.363 . S
C459 C462 1.363 . S
N460 C462 1.356 . S
N460 H472 0.984 1_556 S
N460 H473 0.985 1_556 S
N461 C463 1.356 . S
N461 H466 0.984 . S
N461 H467 0.985 . S
C462 C456 1.379 . S
C462 C459 1.363 . S
C462 N460 1.356 . S
C463 C457 1.363 . S
C463 C458 1.379 . S
C463 N461 1.356 . S
N464 C456 1.356 . S
N464 H470 0.984 . S
N464 H471 0.984 . S
N465 C458 1.356 . S
N465 H468 0.984 . S
N465 H469 0.985 . S
H466 N461 0.984 . S
H467 N461 0.985 . S
H468 N465 0.984 . S
H469 N465 0.985 . S
H470 N464 0.984 . S
H471 N464 0.984 . S
H472 N460 0.984 1_554 S
H473 N460 0.985 1_554 S
C474 C475 1.363 . S
C474 C480 1.379 . S
C474 N482 1.356 . S
C475 C474 1.363 . S
C475 C481 1.363 . S
C476 C477 1.363 . S
C476 C481 1.379 . S
C476 N483 1.356 . S
C477 C476 1.363 . S
C477 C480 1.363 . S
N478 C480 1.356 . S
N478 H490 0.984 . S
N478 H491 0.985 . S
N479 C481 1.356 . S
N479 H484 0.984 . S
N479 H485 0.985 . S
C480 C474 1.379 . S
C480 C477 1.363 . S
C480 N478 1.356 . S
C481 C475 1.363 . S
C481 C476 1.379 . S
C481 N479 1.356 . S
N482 C474 1.356 . S
N482 H488 0.984 . S
N482 H489 0.984 . S
N483 C476 1.356 . S
N483 H486 0.984 . S
N483 H487 0.985 . S
H484 N479 0.984 . S
H485 N479 0.985 . S
H486 N483 0.984 . S
H487 N483 0.985 . S
H488 N482 0.984 . S
H489 N482 0.984 . S
H490 N478 0.984 . S
H491 N478 0.985 . S
C492 C493 1.363 . S
C492 C498 1.379 . S
C492 N500 1.356 . S
C493 C492 1.363 . S
C493 C499 1.363 . S
C494 C495 1.363 . S
C494 C499 1.379 . S
C494 N501 1.356 . S
C495 C494 1.363 . S
C495 C498 1.363 . S
N496 C498 1.356 . S
N496 H508 0.984 . S
N496 H509 0.985 . S
N497 C499 1.356 . S
N497 H502 0.984 . S
N497 H503 0.985 . S
C498 C492 1.379 . S
C498 C495 1.363 . S
C498 N496 1.356 . S
C499 C493 1.363 . S
C499 C494 1.379 . S
C499 N497 1.356 . S
N500 C492 1.356 . S
N500 H506 0.984 . S
N500 H507 0.984 . S
N501 C494 1.356 . S
N501 H504 0.984 . S
N501 H505 0.985 . S
H502 N497 0.984 . S
H503 N497 0.985 . S
H504 N501 0.984 . S
H505 N501 0.985 . S
H506 N500 0.984 . S
H507 N500 0.984 . S
H508 N496 0.984 . S
H509 N496 0.985 . S
C510 C511 1.363 . S
C510 C516 1.379 . S
C510 N518 1.356 . S
C511 C510 1.363 . S
C511 C517 1.363 . S
C512 C513 1.363 . S
C512 C517 1.379 . S
C512 N519 1.356 . S
C513 C512 1.363 . S
C513 C516 1.363 . S
N514 C516 1.356 . S
N514 H526 0.984 . S
N514 H527 0.985 . S
N515 C517 1.356 . S
N515 H520 0.984 . S
N515 H521 0.985 . S
C516 C510 1.379 . S
C516 C513 1.363 . S
C516 N514 1.356 . S
C517 C511 1.363 . S
C517 C512 1.379 . S
C517 N515 1.356 . S
N518 C510 1.356 . S
N518 H524 0.984 . S
N518 H525 0.984 . S
N519 C512 1.356 . S
N519 H522 0.984 . S
N519 H523 0.985 . S
H520 N515 0.984 . S
H521 N515 0.985 . S
H522 N519 0.984 . S
H523 N519 0.985 . S
H524 N518 0.984 . S
H525 N518 0.984 . S
H526 N514 0.984 . S
H527 N514 0.985 . S
C528 C529 1.363 1_556 S
C528 C534 1.379 . S
C528 N536 1.356 . S
C529 C528 1.363 1_554 S
C529 C535 1.363 . S
C530 C531 1.363 1_554 S
C530 C535 1.379 . S
C530 N537 1.356 . S
C531 C530 1.363 1_556 S
C531 C534 1.363 . S
N532 C534 1.356 . S
N532 H544 0.984 . S
N532 H545 0.985 . S
N533 C535 1.356 . S
N533 H538 0.984 . S
N533 H539 0.985 . S
C534 C528 1.379 . S
C534 C531 1.363 . S
C534 N532 1.356 . S
C535 C529 1.363 . S
C535 C530 1.379 . S
C535 N533 1.356 . S
N536 C528 1.356 . S
N536 H542 0.984 . S
N536 H543 0.984 . S
N537 C530 1.356 . S
N537 H540 0.984 . S
N537 H541 0.985 . S
H538 N533 0.984 . S
H539 N533 0.985 . S
H540 N537 0.984 . S
H541 N537 0.985 . S
H542 N536 0.984 . S
H543 N536 0.984 . S
H544 N532 0.984 . S
H545 N532 0.985 . S
C546 C547 1.363 . S
C546 C552 1.379 . S
C546 N554 1.356 . S
C547 C546 1.363 . S
C547 C553 1.363 . S
C548 C549 1.363 . S
C548 C553 1.379 . S
C548 N555 1.356 . S
C549 C548 1.363 . S
C549 C552 1.363 . S
N550 C552 1.356 . S
N550 H562 0.984 . S
N550 H563 0.985 . S
N551 C553 1.356 . S
N551 H556 0.984 . S
N551 H557 0.985 . S
C552 C546 1.379 . S
C552 C549 1.363 . S
C552 N550 1.356 . S
C553 C547 1.363 . S
C553 C548 1.379 . S
C553 N551 1.356 . S
N554 C546 1.356 . S
N554 H560 0.984 . S
N554 H561 0.984 . S
N555 C548 1.356 . S
N555 H558 0.984 . S
N555 H559 0.985 . S
H556 N551 0.984 . S
H557 N551 0.985 . S
H558 N555 0.984 . S
H559 N555 0.985 . S
H560 N554 0.984 . S
H561 N554 0.984 . S
H562 N550 0.984 . S
H563 N550 0.985 . S
C564 C565 1.363 . S
C564 C570 1.379 . S
C564 N572 1.356 . S
C565 C564 1.363 . S
C565 C571 1.363 . S
C566 C567 1.363 . S
C566 C571 1.379 . S
C566 N573 1.356 . S
C567 C566 1.363 . S
C567 C570 1.363 . S
N568 C570 1.356 . S
N568 H580 0.984 . S
N568 H581 0.985 . S
N569 C571 1.356 . S
N569 H574 0.984 . S
N569 H575 0.985 . S
C570 C564 1.379 . S
C570 C567 1.363 . S
C570 N568 1.356 . S
C571 C565 1.363 . S
C571 C566 1.379 . S
C571 N569 1.356 . S
N572 C564 1.356 . S
N572 H578 0.984 . S
N572 H579 0.984 . S
N573 C566 1.356 . S
N573 H576 0.984 . S
N573 H577 0.985 . S
H574 N569 0.984 . S
H575 N569 0.985 . S
H576 N573 0.984 . S
H577 N573 0.985 . S
H578 N572 0.984 . S
H579 N572 0.984 . S
H580 N568 0.984 . S
H581 N568 0.985 . S
C582 C583 1.363 1_554 S
C582 C588 1.379 . S
C582 N590 1.356 . S
C583 C582 1.363 1_556 S
C583 C589 1.363 . S
C584 C585 1.363 1_556 S
C584 C589 1.379 . S
C584 N591 1.356 . S
C585 C584 1.363 1_554 S
C585 C588 1.363 . S
N586 C588 1.356 . S
N586 H598 0.984 . S
N586 H599 0.985 . S
N587 C589 1.356 . S
N587 H592 0.984 . S
N587 H593 0.985 . S
C588 C582 1.379 . S
C588 C585 1.363 . S
C588 N586 1.356 . S
C589 C583 1.363 . S
C589 C584 1.379 . S
C589 N587 1.356 . S
N590 C582 1.356 . S
N590 H596 0.984 . S
N590 H597 0.984 . S
N591 C584 1.356 . S
N591 H594 0.984 . S
N591 H595 0.985 . S
H592 N587 0.984 . S
H593 N587 0.985 . S
H594 N591 0.984 . S
H595 N591 0.985 . S
H596 N590 0.984 . S
H597 N590 0.984 . S
H598 N586 0.984 . S
H599 N586 0.985 . S
C169 C3 1.475 . S
C171 C129 1.475 . S
C187 C17 1.475 . S
C189 C143 1.475 . S
C205 C31 1.475 . S
C207 C157 1.475 . S
C223 C45 1.475 . S
C225 C87 1.475 . S
C241 C101 1.475 . S
C243 C59 1.475 . S
C259 C115 1.476 . S
C261 C73 1.476 . S
C277 C148 1.733 . S
C279 C8 1.733 . S
C295 C22 1.733 . S
C297 C162 1.733 . S
C313 C36 1.733 . S
C315 C92 1.733 . S
C331 C50 1.733 . S
C333 C106 1.733 . S
C349 C64 1.733 . S
C351 C120 1.733 . S
C367 C78 1.733 . S
C369 C134 1.733 . S
C385 C147 1.100 . S
C387 C7 1.100 . S
C403 C21 1.101 . S
C405 C161 1.101 . S
C421 C35 1.100 . S
C423 C91 1.100 . S
C439 C49 1.101 . S
C441 C105 1.101 . S
C457 C63 1.101 . S
C459 C119 1.101 . S
C475 C77 1.100 . S
C477 C133 1.100 . S
C493 C9 1.646 . S
C495 C93 1.646 . S
C511 C107 1.646 . S
C513 C23 1.646 . S
C529 C37 1.646 . S
C531 C121 1.646 . S
C547 C51 1.646 . S
C549 C135 1.646 . S
C565 C65 1.646 . S
C567 C149 1.646 . S
C583 C163 1.646 . S
C585 C79 1.646 . S
