# Generated by pormake.
# Topology vcl, (7)-cn, num edge types: 1
# Building blocks:
#     Node 0, Type 0, BuildingBlock: NUHQUE_clean_sbu_2, # of connection points: 7
#     Node 1, Type 0, BuildingBlock: NUHQUE_clean_sbu_2, # of connection points: 7
#     Node 2, Type 0, BuildingBlock: NUHQUE_clean_sbu_2, # of connection points: 7
#     Node 3, Type 0, BuildingBlock: NUHQUE_clean_sbu_2, # of connection points: 7
#     Node 4, Type 0, BuildingBlock: NUHQUE_clean_sbu_2, # of connection points: 7
#     Node 5, Type 0, BuildingBlock: NUHQUE_clean_sbu_2, # of connection points: 7
#     Node 6, Type 0, BuildingBlock: NUHQUE_clean_sbu_2, # of connection points: 7
#     Node 7, Type 0, BuildingBlock: NUHQUE_clean_sbu_2, # of connection points: 7
#     Node 8, Type 0, BuildingBlock: NUHQUE_clean_sbu_2, # of connection points: 7
#     Node 9, Type 0, BuildingBlock: NUHQUE_clean_sbu_2, # of connection points: 7
#     Node 10, Type 0, BuildingBlock: NUHQUE_clean_sbu_2, # of connection points: 7
#     Node 11, Type 0, BuildingBlock: NUHQUE_clean_sbu_2, # of connection points: 7
#     Node 12, Type 0, BuildingBlock: NUHQUE_clean_sbu_2, # of connection points: 7
#     Node 13, Type 0, BuildingBlock: NUHQUE_clean_sbu_2, # of connection points: 7
#     Node 14, Type 0, BuildingBlock: NUHQUE_clean_sbu_2, # of connection points: 7
#     Node 15, Type 0, BuildingBlock: NUHQUE_clean_sbu_2, # of connection points: 7
#     Edge 16, Type (0, 0), BuildingBlock: TEMPAE_clean_linker_10, # of connection points: 2
#     Edge 17, Type (0, 0), BuildingBlock: TEMPAE_clean_linker_10, # of connection points: 2
#     Edge 18, Type (0, 0), BuildingBlock: TEMPAE_clean_linker_10, # of connection points: 2
#     Edge 19, Type (0, 0), BuildingBlock: TEMPAE_clean_linker_10, # of connection points: 2
#     Edge 20, Type (0, 0), BuildingBlock: TEMPAE_clean_linker_10, # of connection points: 2
#     Edge 21, Type (0, 0), BuildingBlock: TEMPAE_clean_linker_10, # of connection points: 2
#     Edge 22, Type (0, 0), BuildingBlock: TEMPAE_clean_linker_10, # of connection points: 2
#     Edge 23, Type (0, 0), BuildingBlock: TEMPAE_clean_linker_10, # of connection points: 2
#     Edge 24, Type (0, 0), BuildingBlock: TEMPAE_clean_linker_10, # of connection points: 2
#     Edge 25, Type (0, 0), BuildingBlock: TEMPAE_clean_linker_10, # of connection points: 2
#     Edge 26, Type (0, 0), BuildingBlock: TEMPAE_clean_linker_10, # of connection points: 2
#     Edge 27, Type (0, 0), BuildingBlock: TEMPAE_clean_linker_10, # of connection points: 2
#     Edge 28, Type (0, 0), BuildingBlock: TEMPAE_clean_linker_10, # of connection points: 2
#     Edge 29, Type (0, 0), BuildingBlock: TEMPAE_clean_linker_10, # of connection points: 2
#     Edge 30, Type (0, 0), BuildingBlock: TEMPAE_clean_linker_10, # of connection points: 2
#     Edge 31, Type (0, 0), BuildingBlock: TEMPAE_clean_linker_10, # of connection points: 2
#     Edge 32, Type (0, 0), BuildingBlock: TEMPAE_clean_linker_10, # of connection points: 2
#     Edge 33, Type (0, 0), BuildingBlock: TEMPAE_clean_linker_10, # of connection points: 2
#     Edge 34, Type (0, 0), BuildingBlock: TEMPAE_clean_linker_10, # of connection points: 2
#     Edge 35, Type (0, 0), BuildingBlock: TEMPAE_clean_linker_10, # of connection points: 2
#     Edge 36, Type (0, 0), BuildingBlock: TEMPAE_clean_linker_10, # of connection points: 2
#     Edge 37, Type (0, 0), BuildingBlock: TEMPAE_clean_linker_10, # of connection points: 2
#     Edge 38, Type (0, 0), BuildingBlock: TEMPAE_clean_linker_10, # of connection points: 2
#     Edge 39, Type (0, 0), BuildingBlock: TEMPAE_clean_linker_10, # of connection points: 2
#     Edge 40, Type (0, 0), BuildingBlock: TEMPAE_clean_linker_10, # of connection points: 2
#     Edge 41, Type (0, 0), BuildingBlock: TEMPAE_clean_linker_10, # of connection points: 2
#     Edge 42, Type (0, 0), BuildingBlock: TEMPAE_clean_linker_10, # of connection points: 2
#     Edge 43, Type (0, 0), BuildingBlock: TEMPAE_clean_linker_10, # of connection points: 2
#     Edge 44, Type (0, 0), BuildingBlock: TEMPAE_clean_linker_10, # of connection points: 2
#     Edge 45, Type (0, 0), BuildingBlock: TEMPAE_clean_linker_10, # of connection points: 2
#     Edge 46, Type (0, 0), BuildingBlock: TEMPAE_clean_linker_10, # of connection points: 2
#     Edge 47, Type (0, 0), BuildingBlock: TEMPAE_clean_linker_10, # of connection points: 2
#     Edge 48, Type (0, 0), BuildingBlock: TEMPAE_clean_linker_10, # of connection points: 2
#     Edge 49, Type (0, 0), BuildingBlock: TEMPAE_clean_linker_10, # of connection points: 2
#     Edge 50, Type (0, 0), BuildingBlock: TEMPAE_clean_linker_10, # of connection points: 2
#     Edge 51, Type (0, 0), BuildingBlock: TEMPAE_clean_linker_10, # of connection points: 2
#     Edge 52, Type (0, 0), BuildingBlock: TEMPAE_clean_linker_10, # of connection points: 2
#     Edge 53, Type (0, 0), BuildingBlock: TEMPAE_clean_linker_10, # of connection points: 2
#     Edge 54, Type (0, 0), BuildingBlock: TEMPAE_clean_linker_10, # of connection points: 2
#     Edge 55, Type (0, 0), BuildingBlock: TEMPAE_clean_linker_10, # of connection points: 2
#     Edge 56, Type (0, 0), BuildingBlock: TEMPAE_clean_linker_10, # of connection points: 2
#     Edge 57, Type (0, 0), BuildingBlock: TEMPAE_clean_linker_10, # of connection points: 2
#     Edge 58, Type (0, 0), BuildingBlock: TEMPAE_clean_linker_10, # of connection points: 2
#     Edge 59, Type (0, 0), BuildingBlock: TEMPAE_clean_linker_10, # of connection points: 2
#     Edge 60, Type (0, 0), BuildingBlock: TEMPAE_clean_linker_10, # of connection points: 2
#     Edge 61, Type (0, 0), BuildingBlock: TEMPAE_clean_linker_10, # of connection points: 2
#     Edge 62, Type (0, 0), BuildingBlock: TEMPAE_clean_linker_10, # of connection points: 2
#     Edge 63, Type (0, 0), BuildingBlock: TEMPAE_clean_linker_10, # of connection points: 2
#     Edge 64, Type (0, 0), BuildingBlock: TEMPAE_clean_linker_10, # of connection points: 2
#     Edge 65, Type (0, 0), BuildingBlock: TEMPAE_clean_linker_10, # of connection points: 2
#     Edge 66, Type (0, 0), BuildingBlock: TEMPAE_clean_linker_10, # of connection points: 2
#     Edge 67, Type (0, 0), BuildingBlock: TEMPAE_clean_linker_10, # of connection points: 2
#     Edge 68, Type (0, 0), BuildingBlock: TEMPAE_clean_linker_10, # of connection points: 2
#     Edge 69, Type (0, 0), BuildingBlock: TEMPAE_clean_linker_10, # of connection points: 2
#     Edge 70, Type (0, 0), BuildingBlock: TEMPAE_clean_linker_10, # of connection points: 2
#     Edge 71, Type (0, 0), BuildingBlock: TEMPAE_clean_linker_10, # of connection points: 2
# Relax obj value: 0.220
# Max RMSD: 0.254
# Mean RMSD: 0.254
data_MOF--net-vcl--node1-NUHQUE_clean_sbu_2--edge1-TEMPAE_clean_linker_10
_symmetry_space_group_name_H-M    P1
_symmetry_Int_Tables_number       1
_symmetry_cell_setting            triclinic
loop_
_symmetry_equiv_pos_as_xyz
'x, y, z'
_cell_length_a     61.464502
_cell_length_b     49.610027
_cell_length_c     33.017334
_cell_angle_alpha  90.156151
_cell_angle_beta   89.9792
_cell_angle_gamma 90.03111
loop_
_atom_site_label
_atom_site_type_symbol
_atom_site_fract_x
_atom_site_fract_y
_atom_site_fract_z
_atom_type_partial_charge
O0 O 0.33496 1.01421 0.08799 0.0
Tb1 Tb 0.32819 0.05683 0.07504 0.0
Eu2 Eu 0.2788 0.11093 1.00729 0.0
C3 C 0.33796 1.00745 0.12631 0.0
O4 O 0.3348 0.02605 0.15408 0.0
C5 C 0.27875 0.07322 0.08138 0.0
O6 O 0.26479 0.15366 1.00357 0.0
C7 C 0.26941 0.08025 0.94509 0.0
C8 C 0.27466 0.17403 0.02191 0.0
O9 O 0.29231 0.16887 0.04297 0.0
C10 C 0.32991 0.09821 1.00645 0.0
C11 C 0.25144 0.07732 0.91555 0.0
C12 C 0.25344 0.06083 0.88067 0.0
C13 C 0.23524 0.05622 0.8553 0.0
C14 C 0.21539 0.06861 0.86514 0.0
C15 C 0.21335 0.08525 0.89927 0.0
C16 C 0.23142 0.08954 0.92426 0.0
O17 O 0.29444 0.06398 0.05793 0.0
O18 O 0.26659 0.09261 0.0661 0.0
O19 O 0.35643 0.07138 0.10736 0.0
O20 O 0.32505 0.08393 0.12752 0.0
C21 C 0.34595 0.08557 0.13406 0.0
O22 O 0.31368 0.10719 0.02868 0.0
O23 O 0.34036 0.07662 0.01984 0.0
O24 O 0.26406 0.0747 0.98267 0.0
O25 O 0.28174 0.10188 0.94238 0.0
H26 H 0.26882 0.05112 0.87396 0.0
H27 H 0.20136 0.06546 0.84579 0.0
H28 H 0.22995 0.10249 0.95064 0.0
O29 O 0.65512 1.01668 0.05708 0.0
Tb30 Tb 0.66804 0.97586 0.045 0.0
Eu31 Eu 0.70896 0.9294 1.0106 0.0
C32 C 0.65752 0.0263 0.09436 0.0
O33 O 0.66785 1.01111 0.1206 0.0
C34 C 0.71459 0.97326 0.0814 0.0
O35 O 0.72709 0.88904 1.01278 0.0
C36 C 0.7202 0.95793 0.94696 0.0
C37 C 0.71733 0.86771 0.02859 0.0
O38 O 0.69803 0.87109 0.04496 0.0
C39 C 0.65946 0.92921 0.98557 0.0
C40 C 0.7404 0.96837 0.9282 0.0
C41 C 0.74002 0.98292 0.89134 0.0
C42 C 0.75967 0.99008 0.87153 0.0
C43 C 0.77944 0.98171 0.88905 0.0
C44 C 0.77995 0.96702 0.92543 0.0
C45 C 0.76037 0.96119 0.9453 0.0
O46 O 0.70138 0.988 0.05903 0.0
O47 O 0.71871 0.94794 0.07123 0.0
O48 O 0.64223 0.96722 0.08785 0.0
O49 O 0.66936 0.9408 0.08531 0.0
C50 C 0.65078 0.94554 0.10288 0.0
O51 O 0.67389 0.91647 1.00775 0.0
O52 O 0.65809 0.9559 0.98787 0.0
O53 O 0.71431 0.96862 0.98168 0.0
O54 O 0.71826 0.9316 0.94702 0.0
H55 H 0.72452 0.98828 0.878 0.0
H56 H 0.79451 0.98501 0.87277 0.0
H57 H 0.76057 0.94965 0.97316 0.0
O58 O 0.90176 0.26561 0.34389 0.0
Tb59 Tb 0.90903 0.30824 0.33191 0.0
Eu60 Eu 0.96039 0.35949 0.25634 0.0
C61 C 0.90195 0.25729 0.38192 0.0
O62 O 0.90821 0.27442 0.41001 0.0
C63 C 0.9587 0.32327 0.33661 0.0
O64 O 0.96634 0.40515 0.25188 0.0
C65 C 0.9774 0.33019 0.19861 0.0
C66 C 0.985 0.41676 0.26172 0.0
O67 O 0.00096 0.40144 0.27469 0.0
C68 C 0.90656 0.34605 0.26071 0.0
C69 C 0.99473 0.32955 0.16737 0.0
C70 C 0.99278 0.3132 0.13228 0.0
C71 C 0.01072 0.30966 0.10591 0.0
C72 C 0.03031 0.32294 0.11495 0.0
C73 C 0.03234 0.33931 0.14937 0.0
C74 C 0.01447 0.34275 0.17513 0.0
O75 O 0.94372 0.31044 0.31526 0.0
O76 O 0.96973 0.34324 0.31913 0.0
O77 O 0.88386 0.31875 0.3752 0.0
O78 O 0.91463 0.3377 0.38073 0.0
C79 C 0.89511 0.33606 0.39594 0.0
O80 O 0.927 0.34427 0.27138 0.0
O81 O 0.89371 0.32943 0.28059 0.0
O82 O 0.98423 0.33037 0.23639 0.0
O83 O 0.96034 0.3458 0.19286 0.0
H84 H 0.97771 0.30252 0.12641 0.0
H85 H 0.04421 0.3204 0.09505 0.0
H86 H 0.01604 0.35548 0.20174 0.0
O87 O 0.0852 0.7776 0.33838 0.0
Tb88 Tb 0.07801 0.73497 0.32532 0.0
Eu89 Eu 0.02853 0.67926 0.2599 0.0
C90 C 0.08843 0.78434 0.37674 0.0
O91 O 0.08517 0.76578 0.40438 0.0
C92 C 0.02862 0.7187 0.33242 0.0
O93 O 0.01425 0.63641 0.26243 0.0
C94 C 0.01884 0.70846 0.19642 0.0
C95 C 0.0169 0.61859 0.23289 0.0
O96 O 0.02671 0.62641 0.19958 0.0
C97 C 0.07975 0.69232 0.25773 0.0
C98 C 0.00058 0.71244 0.16778 0.0
C99 C 0.00285 0.72869 0.13277 0.0
C100 C 0.98452 0.73466 0.10843 0.0
C101 C 0.96427 0.72377 0.11927 0.0
C102 C 0.96194 0.70744 0.15352 0.0
C103 C 0.98011 0.70187 0.17764 0.0
O104 O 0.04426 0.72753 0.30857 0.0
O105 O 0.0164 0.69905 0.31784 0.0
O106 O 0.10619 0.72029 0.35747 0.0
O107 O 0.07472 0.70843 0.37818 0.0
C108 C 0.09561 0.7066 0.38452 0.0
O109 O 0.06365 0.68336 0.28032 0.0
O110 O 0.08992 0.71443 0.27032 0.0
O111 O 0.0146 0.71546 0.23397 0.0
O112 O 0.02988 0.68576 0.19411 0.0
H113 H 0.01856 0.73725 0.12527 0.0
H114 H 0.95012 0.72789 0.10065 0.0
H115 H 0.97835 0.68922 0.20419 0.0
O116 O 0.33558 0.5146 0.5891 0.0
Tb117 Tb 0.32879 0.55722 0.5762 0.0
Eu118 Eu 0.27933 0.61129 0.50833 0.0
C119 C 0.3386 0.50782 0.62741 0.0
O120 O 0.33548 0.52642 0.6552 0.0
C121 C 0.27935 0.57356 0.5824 0.0
O122 O 0.26522 0.65397 0.50438 0.0
C123 C 0.27 0.58057 0.44617 0.0
C124 C 0.275 0.67443 0.52264 0.0
O125 O 0.29264 0.66944 0.5438 0.0
C126 C 0.33041 0.59855 0.50756 0.0
C127 C 0.25214 0.5778 0.4164 0.0
C128 C 0.25418 0.56124 0.3816 0.0
C129 C 0.23606 0.55679 0.35597 0.0
C130 C 0.21625 0.56941 0.3655 0.0
C131 C 0.21416 0.58605 0.39961 0.0
C132 C 0.23216 0.59021 0.42481 0.0
O133 O 0.29506 0.56435 0.55897 0.0
O134 O 0.26717 0.59294 0.56714 0.0
O135 O 0.35703 0.57187 0.60843 0.0
O136 O 0.32564 0.5843 0.62871 0.0
C137 C 0.34654 0.58601 0.63517 0.0
O138 O 0.31418 0.6075 0.52981 0.0
O139 O 0.34092 0.577 0.52098 0.0
O140 O 0.26446 0.57516 0.48369 0.0
O141 O 0.2825 0.60206 0.44352 0.0
H142 H 0.26952 0.55136 0.37517 0.0
H143 H 0.20228 0.56638 0.34597 0.0
H144 H 0.23067 0.60318 0.45118 0.0
O145 O 0.65765 0.51801 0.55401 0.0
Tb146 Tb 0.6698 0.47677 0.54197 0.0
Eu147 Eu 0.71133 0.42845 0.50566 0.0
C148 C 0.65993 0.52752 0.5914 0.0
O149 O 0.66993 0.5121 0.61778 0.0
C150 C 0.71671 0.47248 0.57668 0.0
O151 O 0.72828 0.3872 0.50782 0.0
C152 C 0.7221 0.45661 0.44128 0.0
C153 C 0.71773 0.36599 0.49316 0.0
O154 O 0.69844 0.37011 0.4772 0.0
C155 C 0.66155 0.42992 0.48287 0.0
C156 C 0.7418 0.46607 0.41953 0.0
C157 C 0.74019 0.48239 0.38444 0.0
C158 C 0.75909 0.48982 0.36249 0.0
C159 C 0.77932 0.48013 0.37592 0.0
C160 C 0.78101 0.46339 0.40995 0.0
C161 C 0.76228 0.45694 0.43211 0.0
O162 O 0.7037 0.48737 0.55412 0.0
O163 O 0.72116 0.44729 0.56609 0.0
O164 O 0.64353 0.46915 0.58428 0.0
O165 O 0.67036 0.44224 0.58343 0.0
C166 C 0.65167 0.44755 0.60025 0.0
O167 O 0.67577 0.41751 0.50591 0.0
O168 O 0.6598 0.45657 0.48511 0.0
O169 O 0.71815 0.46736 0.47688 0.0
O170 O 0.71883 0.43047 0.44115 0.0
H171 H 0.72435 0.48908 0.37419 0.0
H172 H 0.79388 0.48462 0.35867 0.0
H173 H 0.76343 0.44349 0.45786 0.0
O174 O 0.9061 0.76779 0.84179 0.0
Tb175 Tb 0.9164 0.80873 0.82486 0.0
Eu176 Eu 0.96825 0.86057 0.75998 0.0
C177 C 0.9014 0.76297 0.88019 0.0
O178 O 0.90409 0.78263 0.90646 0.0
C179 C 0.96583 0.82414 0.8353 0.0
O180 O 0.98224 0.90337 0.75605 0.0
C181 C 0.97865 0.82914 0.69917 0.0
C182 C 0.97153 0.92399 0.77197 0.0
O183 O 0.95306 0.91903 0.79057 0.0
C184 C 0.91782 0.84688 0.75221 0.0
C185 C -0.00335 0.82564 0.66984 0.0
C186 C 0.9943 0.80938 0.63478 0.0
C187 C 0.01235 0.80448 0.60916 0.0
C188 C 0.03242 0.81636 0.61895 0.0
C189 C 0.0348 0.83279 0.65325 0.0
C190 C 0.01687 0.83734 0.6785 0.0
O191 O 0.95056 0.81524 0.81074 0.0
O192 O 0.97874 0.84293 0.82045 0.0
O193 O 0.88842 0.83371 0.83559 0.0
O194 O 0.91515 0.83656 0.87689 0.0
C195 C 0.89591 0.84592 0.86747 0.0
O196 O 0.93251 0.85771 0.77629 0.0
O197 O 0.90803 0.82456 0.76476 0.0
O198 O 0.98377 0.82434 0.73708 0.0
O199 O 0.96627 0.85062 0.69526 0.0
H200 H 0.97873 0.80015 0.62807 0.0
H201 H 0.04634 0.81308 0.59936 0.0
H202 H 0.01858 0.85021 0.70492 0.0
O203 O 0.08671 0.27907 0.83841 0.0
Tb204 Tb 0.07961 0.23649 0.82519 0.0
Eu205 Eu 0.03018 0.18217 0.7586 0.0
C206 C 0.08935 0.28591 0.87686 0.0
O207 O 0.08556 0.26747 0.90447 0.0
C208 C 0.03024 0.22051 0.83227 0.0
O209 O 0.01615 0.13938 0.75459 0.0
C210 C 0.02073 0.21298 0.69679 0.0
C211 C 0.0257 0.11916 0.77372 0.0
O212 O 0.04296 0.12452 0.79579 0.0
C213 C 0.08144 0.19427 0.75736 0.0
C214 C 0.00265 0.21603 0.66756 0.0
C215 C 0.00425 0.23331 0.6336 0.0
C216 C 0.98587 0.23803 0.60877 0.0
C217 C 0.96624 0.22493 0.61818 0.0
C218 C 0.96458 0.20761 0.65148 0.0
C219 C 0.98284 0.20321 0.67591 0.0
O220 O 0.04576 0.22972 0.80844 0.0
O221 O 0.01819 0.20075 0.81753 0.0
O222 O 0.10739 0.22205 0.85883 0.0
O223 O 0.07575 0.20958 0.87747 0.0
C224 C 0.09652 0.208 0.88503 0.0
O225 O 0.06515 0.18559 0.77969 0.0
O226 O 0.09187 0.21605 0.7704 0.0
O227 O 0.01553 0.2185 0.73448 0.0
O228 O 0.03294 0.19126 0.69373 0.0
H229 H 0.01945 0.24354 0.62727 0.0
H230 H 0.95207 0.22815 0.59924 0.0
H231 H 0.98166 0.18975 0.70166 0.0
O232 O 0.83767 1.01186 0.59115 0.0
Tb233 Tb 0.83017 0.0545 0.58042 0.0
Eu234 Eu 0.77929 0.1092 0.51567 0.0
C235 C 0.841 1.0044 0.62905 0.0
O236 O 0.83784 0.02238 0.65774 0.0
C237 C 0.7805 0.06932 0.58907 0.0
O238 O 0.76601 0.15249 0.51676 0.0
C239 C 0.77067 0.08066 0.45072 0.0
C240 C 0.769 0.16964 0.4866 0.0
O241 O 0.77868 0.16092 0.45359 0.0
C242 C 0.83059 0.09739 0.51475 0.0
C243 C 0.75477 0.08008 0.41693 0.0
C244 C 0.75772 0.06339 0.38231 0.0
C245 C 0.74102 0.06105 0.35285 0.0
C246 C 0.72183 0.07594 0.3584 0.0
C247 C 0.71887 0.09257 0.39232 0.0
C248 C 0.7354 0.09467 0.42125 0.0
O249 O 0.79592 0.05989 0.5651 0.0
O250 O 0.76817 0.08876 0.57413 0.0
O251 O 0.8583 0.06808 0.61397 0.0
O252 O 0.82698 0.08143 0.63308 0.0
C253 C 0.84783 0.08252 0.64035 0.0
O254 O 0.81392 0.10418 0.53757 0.0
O255 O 0.84182 0.07599 0.52634 0.0
O256 O 0.7624 0.07589 0.48676 0.0
O257 O 0.78498 0.10043 0.45128 0.0
H258 H 0.7725 0.05168 0.37905 0.0
H259 H 0.70889 0.07435 0.3362 0.0
H260 H 0.7331 0.1075 0.44756 0.0
O261 O 0.1581 0.02831 0.58792 0.0
Tb262 Tb 0.1654 0.98573 0.57489 0.0
Eu263 Eu 0.21433 0.93151 0.50661 0.0
C264 C 0.15548 0.03527 0.62634 0.0
O265 O 0.15931 1.01694 0.65406 0.0
C266 C 0.21491 0.96997 0.58007 0.0
O267 O 0.2287 0.88894 0.50309 0.0
C268 C 0.22329 0.96183 0.44404 0.0
C269 C 0.21902 0.86859 0.52165 0.0
O270 O 0.20137 0.87368 0.54281 0.0
C271 C 0.16301 0.94339 0.50712 0.0
C272 C 0.24135 0.96483 0.41474 0.0
C273 C 0.23948 0.98148 0.38015 0.0
C274 C 0.25777 0.98615 0.35505 0.0
C275 C 0.27756 0.97364 0.3648 0.0
C276 C 0.27947 0.95688 0.39867 0.0
C277 C 0.26133 0.95255 0.42345 0.0
O278 O 0.19909 0.97906 0.55687 0.0
O279 O 0.22692 0.95036 0.56482 0.0
O280 O 0.13822 0.97074 0.60977 0.0
O281 O 0.17026 0.95926 0.62737 0.0
C282 C 0.14961 0.95717 0.63577 0.0
O283 O 0.17954 0.93477 0.52882 0.0
O284 O 0.15264 0.96508 0.52063 0.0
O285 O 0.2284 0.96794 0.48156 0.0
O286 O 0.21134 0.93985 0.44157 0.0
H287 H 0.22414 0.99127 0.37349 0.0
H288 H 0.29165 0.97682 0.34561 0.0
H289 H 0.26272 0.93952 0.44966 0.0
O290 O 0.406 0.26289 0.83582 0.0
Tb291 Tb 0.41301 0.30546 0.82302 0.0
Eu292 Eu 0.46179 0.36023 0.75329 0.0
C293 C 0.40351 0.25602 0.87423 0.0
O294 O 0.40728 0.27447 0.90196 0.0
C295 C 0.46239 0.32175 0.82751 0.0
O296 O 0.47447 0.4035 0.74777 0.0
C297 C 0.47037 0.32961 0.69073 0.0
C298 C 0.46501 0.42348 0.76772 0.0
O299 O 0.4485 0.41771 0.79149 0.0
C300 C 0.41064 0.34733 0.75577 0.0
C301 C 0.48586 0.32831 0.65636 0.0
C302 C 0.48139 0.31255 0.62151 0.0
C303 C 0.49706 0.31027 0.59038 0.0
C304 C 0.51709 0.32339 0.59472 0.0
C305 C 0.52177 0.33883 0.62923 0.0
C306 C 0.50603 0.34143 0.65971 0.0
O307 O 0.44672 0.31186 0.8046 0.0
O308 O 0.47408 0.34156 0.81194 0.0
O309 O 0.3857 0.31973 0.85826 0.0
O310 O 0.41755 0.33247 0.87523 0.0
C311 C 0.39689 0.33393 0.88393 0.0
O312 O 0.42753 0.35519 0.77721 0.0
O313 O 0.39992 0.32599 0.76925 0.0
O314 O 0.47911 0.32648 0.72676 0.0
O315 O 0.45547 0.34867 0.69013 0.0
H316 H 0.46601 0.30203 0.61879 0.0
H317 H 0.52931 0.32108 0.57123 0.0
H318 H 0.50952 0.35357 0.68629 0.0
O319 O 0.58875 0.76857 0.80167 0.0
Tb320 Tb 0.57507 0.72757 0.79336 0.0
Eu321 Eu 0.52964 0.67901 0.74874 0.0
C322 C 0.57782 0.78789 0.82066 0.0
O323 O 0.55698 0.78426 0.82738 0.0
C324 C 0.52774 0.71986 0.82365 0.0
O325 O 0.51188 0.63842 0.74723 0.0
C326 C 0.52022 0.71011 0.68706 0.0
C327 C 0.52132 0.61733 0.76429 0.0
O328 O 0.54001 0.62119 0.78274 0.0
C329 C 0.58015 0.68096 0.73161 0.0
C330 C 0.50085 0.71686 0.66247 0.0
C331 C 0.50241 0.73339 0.62767 0.0
C332 C 0.48363 0.73965 0.60474 0.0
C333 C 0.46358 0.72874 0.61696 0.0
C334 C 0.46195 0.71182 0.65079 0.0
C335 C 0.4806 0.70627 0.67369 0.0
O336 O 0.54032 0.73505 0.80066 0.0
O337 O 0.52039 0.69648 0.81002 0.0
O338 O 0.59818 0.72327 0.84276 0.0
O339 O 0.57484 0.69253 0.83377 0.0
C340 C 0.5912 0.70024 0.85589 0.0
O341 O 0.56542 0.67033 0.7556 0.0
O342 O 0.58612 0.70637 0.73793 0.0
O343 O 0.51972 0.71812 0.72496 0.0
O344 O 0.52772 0.68545 0.68334 0.0
H345 H 0.51809 0.74141 0.6187 0.0
H346 H 0.44912 0.73271 0.59917 0.0
H347 H 0.47955 0.69286 0.69952 0.0
O348 O 0.83778 0.5178 0.09406 0.0
Tb349 Tb 0.82962 0.55992 0.08044 0.0
Eu350 Eu 0.77943 0.6114 1.00948 0.0
C351 C 0.84102 0.51161 0.13253 0.0
O352 O 0.8373 0.53036 0.15983 0.0
C353 C 0.7796 0.57294 0.08389 0.0
O354 O 0.76564 0.65427 1.0055 0.0
C355 C 0.77216 0.58137 0.94542 0.0
C356 C 0.77481 0.67417 0.02614 0.0
O357 O 0.79152 0.66843 0.04936 0.0
C358 C 0.83109 0.60149 1.01262 0.0
C359 C 0.75615 0.57996 0.91182 0.0
C360 C 0.75929 0.56311 0.87744 0.0
C361 C 0.74256 0.56019 0.84816 0.0
C362 C 0.72315 0.57467 0.85361 0.0
C363 C 0.71999 0.59142 0.88731 0.0
C364 C 0.73654 0.59408 0.9161 0.0
O365 O 0.79586 0.56421 0.06136 0.0
O366 O 0.7672 0.59186 0.0678 0.0
O367 O 0.85614 0.57582 0.11615 0.0
O368 O 0.82376 0.58698 0.13218 0.0
C369 C 0.84428 0.58952 0.14137 0.0
O370 O 0.81381 0.60857 0.03362 0.0
O371 O 0.84238 0.58078 0.02664 0.0
O372 O 0.76409 0.57656 0.98157 0.0
O373 O 0.78585 0.60181 0.94558 0.0
H374 H 0.77425 0.55178 0.8742 0.0
H375 H 0.7102 0.57268 0.83149 0.0
H376 H 0.73409 0.60704 0.94222 0.0
O377 O 0.15993 0.52932 0.08768 0.0
Tb378 Tb 0.16702 0.48666 0.0753 0.0
Eu379 Eu 0.21549 0.4317 1.0076 0.0
C380 C 0.15783 0.53669 0.12603 0.0
O381 O 0.16219 0.51874 0.15406 0.0
C382 C 0.21635 0.47024 0.08095 0.0
O383 O 0.22956 0.38898 1.00379 0.0
C384 C 0.22457 0.46212 0.94522 0.0
C385 C 0.2198 0.36869 0.02237 0.0
O386 O 0.20226 0.37392 0.04377 0.0
C387 C 0.16433 0.44418 1.00795 0.0
C388 C 0.24256 0.46507 0.91578 0.0
C389 C 0.24062 0.48172 0.88121 0.0
C390 C 0.25886 0.48641 0.85601 0.0
C391 C 0.27868 0.47393 0.86564 0.0
C392 C 0.28066 0.45716 0.8995 0.0
C393 C 0.26255 0.4528 0.92436 0.0
O394 O 0.20071 0.47964 0.05759 0.0
O395 O 0.22814 0.45037 0.0659 0.0
O396 O 0.13962 0.47272 0.11053 0.0
O397 O 0.17142 0.46014 0.12787 0.0
C398 C 0.15075 0.45884 0.13651 0.0
O399 O 0.18076 0.43544 0.02981 0.0
O400 O 0.1541 0.46601 0.02123 0.0
O401 O 0.22982 0.46801 0.98274 0.0
O402 O 0.21245 0.44028 0.94264 0.0
H403 H 0.22527 0.49151 0.87466 0.0
H404 H 0.29274 0.47712 0.84638 0.0
H405 H 0.26399 0.43977 0.95056 0.0
O406 O 0.4057 0.76306 0.33565 0.0
Tb407 Tb 0.41259 0.80562 0.32263 0.0
Eu408 Eu 0.46139 0.85995 0.25252 0.0
C409 C 0.40325 0.75628 0.37409 0.0
O410 O 0.40697 0.77482 0.40172 0.0
C411 C 0.46202 0.82182 0.32709 0.0
O412 O 0.47417 0.90318 0.24692 0.0
C413 C 0.46973 0.8291 0.19005 0.0
C414 C 0.46471 0.92315 0.26689 0.0
O415 O 0.44818 0.91736 0.2906 0.0
C416 C 0.41023 0.84727 0.25507 0.0
C417 C 0.48526 0.82732 0.15577 0.0
C418 C 0.48051 0.81183 0.12075 0.0
C419 C 0.49623 0.80902 0.08977 0.0
C420 C 0.51654 0.8214 0.09437 0.0
C421 C 0.52147 0.83655 0.12902 0.0
C422 C 0.50573 0.83964 0.15939 0.0
O423 O 0.4463 0.81193 0.30427 0.0
O424 O 0.47376 0.84149 0.31129 0.0
O425 O 0.38517 0.81975 0.3577 0.0
O426 O 0.41693 0.83285 0.37466 0.0
C427 C 0.39625 0.83414 0.38329 0.0
O428 O 0.42711 0.85522 0.27646 0.0
O429 O 0.39953 0.82595 0.26869 0.0
O430 O 0.47833 0.82583 0.22617 0.0
O431 O 0.45512 0.84851 0.18927 0.0
H432 H 0.46489 0.80188 0.11782 0.0
H433 H 0.52877 0.81877 0.07097 0.0
H434 H 0.50947 0.85157 0.18608 0.0
O435 O 0.58879 0.26882 0.30247 0.0
Tb436 Tb 0.57497 0.22785 0.29538 0.0
Eu437 Eu 0.52889 0.17894 0.24973 0.0
C438 C 0.57816 0.28815 0.32195 0.0
O439 O 0.55746 0.28445 0.32995 0.0
C440 C 0.52754 0.21981 0.32458 0.0
O441 O 0.51133 0.13823 0.24762 0.0
C442 C 0.5197 0.21029 0.18825 0.0
C443 C 0.52073 0.11716 0.26481 0.0
O444 O 0.53927 0.12109 0.28374 0.0
C445 C 0.57946 0.18126 0.23375 0.0
C446 C 0.50053 0.21643 0.16279 0.0
C447 C 0.5022 0.23298 0.12804 0.0
C448 C 0.48352 0.23896 0.10466 0.0
C449 C 0.46348 0.22778 0.11637 0.0
C450 C 0.46176 0.21087 0.15018 0.0
C451 C 0.4803 0.20554 0.17349 0.0
O452 O 0.5401 0.23486 0.30131 0.0
O453 O 0.51978 0.19663 0.31094 0.0
O454 O 0.59744 0.22415 0.34595 0.0
O455 O 0.57461 0.19297 0.33607 0.0
C456 C 0.59054 0.20106 0.35896 0.0
O457 O 0.5647 0.17109 0.25809 0.0
O458 O 0.58615 0.20633 0.24041 0.0
O459 O 0.51827 0.21781 0.22629 0.0
O460 O 0.52804 0.18604 0.18437 0.0
H461 H 0.51785 0.24129 0.11953 0.0
H462 H 0.44911 0.23161 0.09827 0.0
H463 H 0.47917 0.19218 0.19937 0.0
C464 C 0.41153 0.88965 0.21375 0.0
C465 C 0.40033 0.86614 0.22502 0.0
C466 C 0.40109 0.9106 0.19264 0.0
C467 C 0.37883 0.90808 0.18204 0.0
C468 C 0.36785 0.88361 0.1908 0.0
C469 C 0.37869 0.86298 0.21219 0.0
C470 C 0.41358 0.9362 0.18419 0.0
C471 C 0.3442 0.87986 0.17993 0.0
C472 C 0.34716 0.97414 0.18052 0.0
C473 C 0.34642 0.9805 0.13907 0.0
C474 C 0.35702 0.95037 0.19454 0.0
C475 C 0.36655 0.93217 0.16656 0.0
C476 C 0.36522 0.93792 0.12451 0.0
C477 C 0.35516 0.96199 0.11125 0.0
C478 C 0.35784 0.9452 0.23961 0.0
C479 C 0.375 0.91903 0.09363 0.0
H480 H 0.42826 0.89232 0.22315 0.0
H481 H 0.36981 0.84499 0.22069 0.0
H482 H 0.41125 0.94255 0.1523 0.0
H483 H 0.4073 0.95264 0.20383 0.0
H484 H 0.43128 0.93389 0.19004 0.0
H485 H 0.33893 0.85854 0.18313 0.0
H486 H 0.334 0.89251 0.20016 0.0
H487 H 0.3411 0.88647 0.14838 0.0
H488 H 0.34039 0.98811 0.20243 0.0
H489 H 0.35474 0.96666 0.07921 0.0
H490 H 0.37501 0.94521 0.25001 0.0
H491 H 0.35095 0.92507 0.24658 0.0
H492 H 0.34874 0.96061 0.25726 0.0
H493 H 0.39295 0.91866 0.0972 0.0
H494 H 0.37111 0.92512 0.0621 0.0
H495 H 0.36904 0.89819 0.0986 0.0
C496 C 0.58247 0.13604 0.20007 0.0
C497 C 0.59116 0.16203 0.20599 0.0
C498 C 0.59365 0.11606 0.17803 0.0
C499 C 0.61413 0.12195 0.16048 0.0
C500 C 0.62262 0.1485 0.16462 0.0
C501 C 0.61111 0.16818 0.1874 0.0
C502 C 0.58385 0.08818 0.1751 0.0
C503 C 0.64423 0.15589 0.14608 0.0
C504 C 0.65136 0.06068 0.14918 0.0
C505 C 0.64784 0.05244 0.10885 0.0
C506 C 0.64124 0.0837 0.16561 0.0
C507 C 0.62723 0.09951 0.14127 0.0
C508 C 0.62429 0.09207 0.09999 0.0
C509 C 0.63452 0.06861 0.08433 0.0
C510 C 0.64484 0.09037 0.20979 0.0
C511 C 0.60982 0.10846 0.07264 0.0
H512 H 0.56696 0.13092 0.21365 0.0
H513 H 0.61803 0.1881 0.1915 0.0
H514 H 0.5828 0.08172 0.14298 0.0
H515 H 0.59446 0.07354 0.19099 0.0
H516 H 0.56732 0.08715 0.18867 0.0
H517 H 0.64741 0.17792 0.14762 0.0
H518 H 0.65749 0.14528 0.16231 0.0
H519 H 0.64486 0.14932 0.11395 0.0
H520 H 0.66171 0.04866 0.16861 0.0
H521 H 0.6317 0.06267 0.05316 0.0
H522 H 0.62933 0.08797 0.22666 0.0
H523 H 0.65003 0.11165 0.21328 0.0
H524 H 0.6573 0.07721 0.22398 0.0
H525 H 0.59263 0.10624 0.08234 0.0
H526 H 0.61115 0.10208 0.04046 0.0
H527 H 0.61401 0.13017 0.07499 0.0
C528 C 0.89676 0.22154 0.4345 0.0
C529 C 0.89341 0.23035 0.39456 0.0
C530 C 0.88698 0.19791 0.4493 0.0
C531 C 0.87322 0.18248 0.42375 0.0
C532 C 0.87037 0.19066 0.38291 0.0
C533 C 0.88055 0.21442 0.36875 0.0
C534 C 0.89063 0.19013 0.493 0.0
C535 C 0.85592 0.17484 0.35459 0.0
C536 C 0.85935 0.11239 0.46483 0.0
C537 C 0.83966 0.11726 0.4852 0.0
C538 C 0.86989 0.13297 0.44272 0.0
C539 C 0.86068 0.15918 0.44115 0.0
C540 C 0.84033 0.16381 0.46011 0.0
C541 C 0.83007 0.14285 0.48156 0.0
C542 C 0.89148 0.12702 0.4229 0.0
C543 C 0.82983 0.19134 0.45944 0.0
H544 H 0.90667 0.23355 0.45482 0.0
H545 H 0.87776 0.22103 0.33793 0.0
H546 H 0.87511 0.19182 0.51 0.0
H547 H 0.89604 0.16885 0.49502 0.0
H548 H 0.90296 0.2031 0.50808 0.0
H549 H 0.8572 0.18201 0.32283 0.0
H550 H 0.86015 0.15311 0.35554 0.0
H551 H 0.83874 0.17677 0.3645 0.0
H552 H 0.86699 0.0928 0.46746 0.0
H553 H 0.81499 0.14702 0.49732 0.0
H554 H 0.90465 0.13743 0.43981 0.0
H555 H 0.89173 0.13481 0.39143 0.0
H556 H 0.89511 0.10509 0.42226 0.0
H557 H 0.84123 0.20675 0.47146 0.0
H558 H 0.81466 0.19214 0.47766 0.0
H559 H 0.82592 0.19698 0.42778 0.0
C560 C 0.16352 0.9008 0.46576 0.0
C561 C 0.15267 0.92454 0.47729 0.0
C562 C 0.15279 0.88005 0.44447 0.0
C563 C 0.13055 0.88298 0.43392 0.0
C564 C 0.1199 0.90765 0.44305 0.0
C565 C 0.13104 0.92807 0.46462 0.0
C566 C 0.16494 0.85426 0.43563 0.0
C567 C 0.09629 0.91185 0.43229 0.0
C568 C 0.10619 0.82963 0.36226 0.0
C569 C 0.09723 0.81117 0.3898 0.0
C570 C 0.11654 0.8535 0.37589 0.0
C571 C 0.11796 0.85913 0.41803 0.0
C572 C 0.10822 0.841 0.44572 0.0
C573 C 0.09808 0.81743 0.43135 0.0
C574 C 0.12654 0.87231 0.34527 0.0
C575 C 0.10911 0.846 0.49087 0.0
H576 H 0.18026 0.89784 0.475 0.0
H577 H 0.1224 0.94623 0.47329 0.0
H578 H 0.15824 0.83777 0.45457 0.0
H579 H 0.16277 0.84829 0.40348 0.0
H580 H 0.18263 0.85609 0.44204 0.0
H581 H 0.09127 0.93322 0.43593 0.0
H582 H 0.09313 0.90546 0.4006 0.0
H583 H 0.08595 0.89924 0.45224 0.0
H584 H 0.1057 0.82506 0.33016 0.0
H585 H 0.09119 0.8035 0.45309 0.0
H586 H 0.14449 0.87233 0.34878 0.0
H587 H 0.12086 0.89324 0.3506 0.0
H588 H 0.12253 0.86641 0.31366 0.0
H589 H 0.12627 0.8456 0.50127 0.0
H590 H 0.09978 0.83074 0.50828 0.0
H591 H 0.10251 0.86625 0.49813 0.0
C592 C 0.34778 0.47445 0.68155 0.0
C593 C 0.34704 0.48085 0.64011 0.0
C594 C 0.3576 0.45064 0.69551 0.0
C595 C 0.36711 0.43245 0.66749 0.0
C596 C 0.36578 0.43824 0.62546 0.0
C597 C 0.35576 0.46235 0.61225 0.0
C598 C 0.35842 0.44543 0.74057 0.0
C599 C 0.37554 0.41937 0.59453 0.0
C600 C 0.41201 0.38978 0.7146 0.0
C601 C 0.40078 0.36627 0.72577 0.0
C602 C 0.40161 0.41077 0.69353 0.0
C603 C 0.37935 0.40832 0.68291 0.0
C604 C 0.36833 0.38385 0.69158 0.0
C605 C 0.37914 0.36317 0.71291 0.0
C606 C 0.41414 0.43635 0.68517 0.0
C607 C 0.34467 0.38017 0.6807 0.0
H608 H 0.34104 0.48842 0.7035 0.0
H609 H 0.35534 0.46705 0.58022 0.0
H610 H 0.35151 0.4253 0.74748 0.0
H611 H 0.37559 0.44541 0.75098 0.0
H612 H 0.34932 0.46082 0.75826 0.0
H613 H 0.37167 0.42551 0.56301 0.0
H614 H 0.39349 0.41895 0.59812 0.0
H615 H 0.36954 0.39854 0.59944 0.0
H616 H 0.42875 0.39239 0.72403 0.0
H617 H 0.37023 0.34518 0.72134 0.0
H618 H 0.40791 0.45276 0.70492 0.0
H619 H 0.4118 0.44278 0.65332 0.0
H620 H 0.43184 0.43398 0.69095 0.0
H621 H 0.33449 0.39283 0.70095 0.0
H622 H 0.33937 0.35887 0.68384 0.0
H623 H 0.3416 0.38683 0.64916 0.0
C624 C 0.58415 0.63575 0.69819 0.0
C625 C 0.59232 0.66201 0.70403 0.0
C626 C 0.59566 0.6161 0.67606 0.0
C627 C 0.61599 0.62257 0.65835 0.0
C628 C 0.624 0.64936 0.66253 0.0
C629 C 0.61215 0.66872 0.68537 0.0
C630 C 0.58635 0.58797 0.67312 0.0
C631 C 0.64543 0.65736 0.64387 0.0
C632 C 0.65393 0.56199 0.64622 0.0
C633 C 0.65029 0.5537 0.60594 0.0
C634 C 0.64368 0.58488 0.66287 0.0
C635 C 0.62938 0.6005 0.63881 0.0
C636 C 0.62637 0.59306 0.59753 0.0
C637 C 0.63674 0.56975 0.58165 0.0
C638 C 0.6474 0.59154 0.70701 0.0
C639 C 0.61159 0.60923 0.57046 0.0
H640 H 0.56876 0.63017 0.71182 0.0
H641 H 0.61868 0.68884 0.68941 0.0
H642 H 0.58527 0.58157 0.64097 0.0
H643 H 0.5973 0.57357 0.68874 0.0
H644 H 0.56991 0.58644 0.68693 0.0
H645 H 0.64825 0.67946 0.64555 0.0
H646 H 0.6589 0.64702 0.65988 0.0
H647 H 0.64607 0.65092 0.61168 0.0
H648 H 0.66445 0.55008 0.66549 0.0
H649 H 0.63381 0.56378 0.55054 0.0
H650 H 0.63205 0.58865 0.72415 0.0
H651 H 0.65221 0.61297 0.71054 0.0
H652 H 0.66019 0.57871 0.72086 0.0
H653 H 0.59446 0.60652 0.58022 0.0
H654 H 0.61297 0.60303 0.5382 0.0
H655 H 0.61543 0.63103 0.57302 0.0
C656 C 0.86271 0.61909 0.97154 0.0
C657 C 0.84076 0.62098 0.98312 0.0
C658 C 0.87311 0.6402 0.9504 0.0
C659 C 0.86134 0.66387 0.9404 0.0
C660 C 0.83885 0.66515 0.94991 0.0
C661 C 0.8289 0.64378 0.971 0.0
C662 C 0.89706 0.63783 0.94098 0.0
C663 C 0.82552 0.68981 0.94 0.0
C664 C 0.89097 0.7315 0.93632 0.0
C665 C 0.89251 0.73654 0.89452 0.0
C666 C 0.8814 0.70777 0.95135 0.0
C667 C 0.87288 0.68834 0.9241 0.0
C668 C 0.87479 0.69295 0.88181 0.0
C669 C 0.88464 0.71691 0.86752 0.0
C670 C 0.88001 0.7038 0.99665 0.0
C671 C 0.86599 0.67283 0.85166 0.0
H672 H 0.87213 0.6017 0.98079 0.0
H673 H 0.81195 0.64551 0.97953 0.0
H674 H 0.90034 0.64376 0.90919 0.0
H675 H 0.90635 0.65177 0.96083 0.0
H676 H 0.90323 0.61705 0.94582 0.0
H677 H 0.80787 0.6866 0.9455 0.0
H678 H 0.83103 0.70699 0.959 0.0
H679 H 0.82789 0.69562 0.90788 0.0
H680 H 0.89709 0.74633 0.95762 0.0
H681 H 0.88569 0.72054 0.83523 0.0
H682 H 0.8876 0.68436 1.00523 0.0
H683 H 0.8627 0.70295 1.00613 0.0
H684 H 0.88817 0.72025 1.01378 0.0
H685 H 0.87292 0.65257 0.85757 0.0
H686 H 0.86969 0.67857 0.8199 0.0
H687 H 0.84808 0.67117 0.85515 0.0
C688 C 0.09874 0.319 0.93158 0.0
C689 C 0.09817 0.31266 0.89005 0.0
C690 C 0.10894 0.34249 0.94607 0.0
C691 C 0.11901 0.36044 0.91852 0.0
C692 C 0.11784 0.35476 0.87638 0.0
C693 C 0.10744 0.33097 0.86263 0.0
C694 C 0.10959 0.34758 0.99122 0.0
C695 C 0.12815 0.37341 0.84591 0.0
C696 C 0.13244 0.42925 0.96504 0.0
C697 C 0.15398 0.42544 0.97805 0.0
C698 C 0.12122 0.40894 0.94338 0.0
C699 C 0.13171 0.38413 0.93455 0.0
C700 C 0.15387 0.38091 0.94544 0.0
C701 C 0.16469 0.40155 0.96679 0.0
C702 C 0.09771 0.41345 0.93219 0.0
C703 C 0.16583 0.35492 0.93693 0.0
H704 H 0.09159 0.30519 0.95321 0.0
H705 H 0.10715 0.32633 0.83054 0.0
H706 H 0.12668 0.34707 1.00199 0.0
H707 H 0.10304 0.36789 0.99827 0.0
H708 H 0.10008 0.33241 1.0085 0.0
H709 H 0.12426 0.36753 0.81424 0.0
H710 H 0.12261 0.39442 0.85109 0.0
H711 H 0.14608 0.3732 0.84973 0.0
H712 H 0.12393 0.44754 0.9735 0.0
H713 H 0.18136 0.39838 0.97629 0.0
H714 H 0.08715 0.40107 0.95208 0.0
H715 H 0.09464 0.40699 0.9005 0.0
H716 H 0.09288 0.43491 0.93557 0.0
H717 H 0.15886 0.33856 0.95578 0.0
H718 H 0.18349 0.35651 0.94369 0.0
H719 H 0.16379 0.34894 0.90476 0.0
C720 C 0.85876 0.95974 0.61139 0.0
C721 C 0.84991 0.97742 0.64031 0.0
C722 C 0.86936 0.93573 0.62326 0.0
C723 C 0.87116 0.92922 0.66499 0.0
C724 C 0.86144 0.94649 0.69404 0.0
C725 C 0.85102 0.97022 0.6814 0.0
C726 C 0.8793 0.9178 0.59128 0.0
C727 C 0.86276 0.94049 0.73884 0.0
C728 C 0.88587 0.86035 0.70867 0.0
C729 C 0.90739 0.86469 0.72144 0.0
C730 C 0.87426 0.88046 0.68758 0.0
C731 C 0.88435 0.90556 0.6791 0.0
C732 C 0.90657 0.90917 0.68924 0.0
C733 C 0.91778 0.88873 0.71003 0.0
C734 C 0.85071 0.87555 0.67706 0.0
C735 C 0.91812 0.93546 0.68099 0.0
H736 H 0.85803 0.96506 0.57961 0.0
H737 H 0.84416 0.98354 0.70411 0.0
H738 H 0.89729 0.91846 0.59378 0.0
H739 H 0.87423 0.89657 0.59595 0.0
H740 H 0.87463 0.92405 0.56019 0.0
H741 H 0.85323 0.95501 0.75738 0.0
H742 H 0.85667 0.91986 0.74505 0.0
H743 H 0.87998 0.94128 0.74885 0.0
H744 H 0.87761 0.84193 0.71729 0.0
H745 H 0.93444 0.89228 0.71939 0.0
H746 H 0.84709 0.8827 0.64597 0.0
H747 H 0.84019 0.88708 0.69823 0.0
H748 H 0.84632 0.85388 0.67926 0.0
H749 H 0.91543 0.94188 0.64924 0.0
H750 H 0.93592 0.93406 0.68654 0.0
H751 H 0.91138 0.95142 0.70098 0.0
C752 C 0.13733 0.08027 0.61196 0.0
C753 C 0.14671 0.06208 0.6394 0.0
C754 C 0.12702 0.10413 0.62566 0.0
C755 C 0.12606 0.11002 0.66776 0.0
C756 C 0.13622 0.09217 0.69531 0.0
C757 C 0.14633 0.06861 0.68088 0.0
C758 C 0.11659 0.12265 0.59518 0.0
C759 C 0.13581 0.09746 0.74042 0.0
C760 C 0.11304 0.17908 0.71385 0.0
C761 C 0.09157 0.17539 0.72737 0.0
C762 C 0.12409 0.15865 0.69216 0.0
C763 C 0.11349 0.13382 0.68379 0.0
C764 C 0.09139 0.13071 0.69518 0.0
C765 C 0.08074 0.15147 0.71656 0.0
C766 C 0.14755 0.16304 0.68045 0.0
C767 C 0.07931 0.10473 0.68716 0.0
H768 H 0.13746 0.07549 0.57992 0.0
H769 H 0.15357 0.0549 0.70252 0.0
H770 H 0.09868 0.12251 0.59936 0.0
H771 H 0.1222 0.14368 0.60002 0.0
H772 H 0.1203 0.11661 0.5635 0.0
H773 H 0.14541 0.0824 0.75768 0.0
H774 H 0.14237 0.11782 0.74713 0.0
H775 H 0.11877 0.09697 0.75151 0.0
H776 H 0.12165 0.19739 0.72196 0.0
H777 H 0.06412 0.14838 0.72647 0.0
H778 H 0.15043 0.15645 0.64877 0.0
H779 H 0.15818 0.15071 0.70024 0.0
H780 H 0.15246 0.1845 0.68354 0.0
H781 H 0.08117 0.09859 0.65502 0.0
H782 H 0.06169 0.1064 0.69423 0.0
H783 H 0.08633 0.08843 0.70606 0.0
C784 C 0.39453 0.22282 0.92869 0.0
C785 C 0.39486 0.22922 0.88724 0.0
C786 C 0.38447 0.19927 0.94308 0.0
C787 C 0.37432 0.18133 0.91548 0.0
C788 C 0.37528 0.18706 0.87339 0.0
C789 C 0.38554 0.21092 0.85974 0.0
C790 C 0.38404 0.19413 0.98818 0.0
C791 C 0.36487 0.16841 0.84289 0.0
C792 C 0.3613 0.1127 0.96212 0.0
C793 C 0.33988 0.11659 0.97579 0.0
C794 C 0.37231 0.13288 0.94004 0.0
C795 C 0.36173 0.15764 0.93148 0.0
C796 C 0.33965 0.16088 0.94289 0.0
C797 C 0.32903 0.14036 0.96464 0.0
C798 C 0.39574 0.12837 0.92823 0.0
C799 C 0.3276 0.18681 0.93467 0.0
H800 H 0.40174 0.23663 0.95035 0.0
H801 H 0.38565 0.21562 0.82771 0.0
H802 H 0.367 0.19471 0.99927 0.0
H803 H 0.39055 0.17378 0.99488 0.0
H804 H 0.39368 0.20922 1.00545 0.0
H805 H 0.36868 0.17428 0.81122 0.0
H806 H 0.37039 0.14739 0.84785 0.0
H807 H 0.34695 0.16866 0.8469 0.0
H808 H 0.3699 0.09448 0.97047 0.0
H809 H 0.31245 0.14357 0.97466 0.0
H810 H 0.40644 0.14071 0.94802 0.0
H811 H 0.39863 0.13485 0.89655 0.0
H812 H 0.40058 0.1069 0.93128 0.0
H813 H 0.33456 0.2032 0.9536 0.0
H814 H 0.30995 0.18515 0.94158 0.0
H815 H 0.32955 0.1928 0.90253 0.0
C816 C 0.61154 0.81596 0.83601 0.0
C817 C 0.58897 0.81193 0.83934 0.0
C818 C 0.62214 0.83708 0.85721 0.0
C819 C 0.61005 0.85467 0.88277 0.0
C820 C 0.5872 0.85112 0.8853 0.0
C821 C 0.57703 0.83004 0.86364 0.0
C822 C 0.64649 0.83997 0.85339 0.0
C823 C 0.57353 0.86892 0.91236 0.0
C824 C 0.64007 0.88561 0.97324 0.0
C825 C 0.64448 0.91209 0.96047 0.0
C826 C 0.62865 0.86715 0.9487 0.0
C827 C 0.62143 0.87498 0.90972 0.0
C828 C 0.62521 0.90197 0.89699 0.0
C829 C 0.63657 0.92024 0.92254 0.0
C830 C 0.62476 0.83897 0.96435 0.0
C831 C 0.61777 0.91132 0.85585 0.0
H832 H 0.62103 0.80221 0.81759 0.0
H833 H 0.55962 0.82727 0.86686 0.0
H834 H 0.65081 0.8611 0.84591 0.0
H835 H 0.65428 0.83513 0.88279 0.0
H836 H 0.65335 0.82643 0.82977 0.0
H837 H 0.55584 0.86504 0.90869 0.0
H838 H 0.57794 0.86539 0.9445 0.0
H839 H 0.57677 0.89047 0.90582 0.0
H840 H 0.64589 0.87904 1.0026 0.0
H841 H 0.64002 0.9405 0.91215 0.0
H842 H 0.6332 0.82415 0.94464 0.0
H843 H 0.60714 0.83415 0.96345 0.0
H844 H 0.63065 0.83633 0.99591 0.0
H845 H 0.6262 0.89952 0.83196 0.0
H846 H 0.62108 0.93308 0.85091 0.0
H847 H 0.60007 0.90766 0.85224 0.0
C848 C 0.85616 0.46489 0.11847 0.0
C849 C 0.85 0.48511 0.14601 0.0
C850 C 0.86571 0.44058 0.13202 0.0
C851 C 0.8693 0.43644 0.17404 0.0
C852 C 0.86289 0.45671 0.20184 0.0
C853 C 0.85332 0.48057 0.18758 0.0
C854 C 0.87212 0.4194 0.10141 0.0
C855 C 0.86633 0.45335 0.24688 0.0
C856 C 0.87546 0.36759 0.22378 0.0
C857 C 0.89785 0.36672 0.23225 0.0
C858 C 0.86617 0.38933 0.2026 0.0
C859 C 0.8795 0.41097 0.18962 0.0
C860 C 0.90229 0.40947 0.1961 0.0
C861 C 0.91117 0.38737 0.21723 0.0
C862 C 0.84185 0.38985 0.19628 0.0
C863 C 0.91721 0.43201 0.18308 0.0
H864 H 0.85373 0.46813 0.08635 0.0
H865 H 0.84863 0.4959 0.20933 0.0
H866 H 0.88988 0.41561 0.1032 0.0
H867 H 0.86379 0.40011 0.10838 0.0
H868 H 0.86798 0.4254 0.06995 0.0
H869 H 0.8606 0.47109 0.26451 0.0
H870 H 0.85752 0.43525 0.2578 0.0
H871 H 0.88386 0.45025 0.25332 0.0
H872 H 0.86498 0.35175 0.23514 0.0
H873 H 0.92843 0.38692 0.22354 0.0
H874 H 0.83792 0.39539 0.16458 0.0
H875 H 0.83449 0.40538 0.21629 0.0
H876 H 0.83416 0.37012 0.2032 0.0
H877 H 0.91313 0.43892 0.15207 0.0
H878 H 0.93458 0.42583 0.18372 0.0
H879 H 0.91509 0.44945 0.20383 0.0
C880 C 0.11073 0.6791 0.21123 0.0
C881 C 0.09024 0.67346 0.22811 0.0
C882 C 0.12239 0.65929 0.18935 0.0
C883 C 0.11347 0.63311 0.18428 0.0
C884 C 0.0923 0.62782 0.19939 0.0
C885 C 0.08098 0.64799 0.22081 0.0
C886 C 0.14482 0.66595 0.1737 0.0
C887 C 0.08206 0.60028 0.19487 0.0
C888 C 0.13724 0.57998 0.11188 0.0
C889 C 0.14877 0.56339 0.13875 0.0
C890 C 0.12629 0.60333 0.12581 0.0
C891 C 0.12698 0.61038 0.16752 0.0
C892 C 0.13946 0.59434 0.19428 0.0
C893 C 0.15004 0.57114 0.17967 0.0
C894 C 0.11329 0.61985 0.09618 0.0
C895 C 0.1409 0.60096 0.23891 0.0
H896 H 0.11813 0.69862 0.21661 0.0
H897 H 0.06521 0.64328 0.23361 0.0
H898 H 0.15718 0.65533 0.19222 0.0
H899 H 0.14673 0.6589 0.14198 0.0
H900 H 0.14825 0.68792 0.175 0.0
H901 H 0.06545 0.59936 0.20801 0.0
H902 H 0.08115 0.59466 0.16238 0.0
H903 H 0.09228 0.58494 0.21017 0.0
H904 H 0.13605 0.57418 0.08029 0.0
H905 H 0.1589 0.55861 0.20082 0.0
H906 H 0.11732 0.64155 0.09941 0.0
H907 H 0.09568 0.61758 0.10281 0.0
H908 H 0.11624 0.61359 0.06432 0.0
H909 H 0.14604 0.62221 0.24327 0.0
H910 H 0.15253 0.5877 0.25514 0.0
H911 H 0.12462 0.59871 0.25307 0.0
C912 C 0.32931 0.64052 0.46543 0.0
C913 C 0.34025 0.61684 0.47667 0.0
C914 C 0.33982 0.66101 0.44345 0.0
C915 C 0.36189 0.65783 0.43191 0.0
C916 C 0.37256 0.63315 0.44056 0.0
C917 C 0.36165 0.61299 0.46286 0.0
C918 C 0.32768 0.68686 0.43512 0.0
C919 C 0.39598 0.62871 0.42866 0.0
C920 C 0.38544 0.71107 0.35987 0.0
C921 C 0.39472 0.72947 0.38725 0.0
C922 C 0.37528 0.68718 0.37365 0.0
C923 C 0.37439 0.68154 0.41577 0.0
C924 C 0.38449 0.69958 0.44326 0.0
C925 C 0.39444 0.72316 0.42874 0.0
C926 C 0.3649 0.66842 0.34327 0.0
C927 C 0.38413 0.69452 0.48838 0.0
H928 H 0.31274 0.6437 0.47557 0.0
H929 H 0.37032 0.59484 0.47129 0.0
H930 H 0.33459 0.70332 0.45397 0.0
H931 H 0.32959 0.6928 0.40295 0.0
H932 H 0.31004 0.68511 0.44206 0.0
H933 H 0.40088 0.60726 0.43178 0.0
H934 H 0.3988 0.63514 0.39693 0.0
H935 H 0.40667 0.64113 0.44833 0.0
H936 H 0.3855 0.7157 0.32781 0.0
H937 H 0.40162 0.73706 0.45031 0.0
H938 H 0.34698 0.6686 0.34733 0.0
H939 H 0.37048 0.64744 0.34832 0.0
H940 H 0.36867 0.67424 0.31157 0.0
H941 H 0.3671 0.69505 0.49954 0.0
H942 H 0.39374 0.70969 0.50556 0.0
H943 H 0.39071 0.67422 0.49514 0.0
C944 C 0.6428 0.38586 0.47065 0.0
C945 C 0.64668 0.41251 0.458 0.0
C946 C 0.63123 0.36733 0.44653 0.0
C947 C 0.62325 0.37526 0.40812 0.0
C948 C 0.62658 0.40235 0.39544 0.0
C949 C 0.63813 0.42069 0.42058 0.0
C950 C 0.62789 0.33901 0.46206 0.0
C951 C 0.6184 0.41177 0.35483 0.0
C952 C 0.61207 0.31634 0.33496 0.0
C953 C 0.5896 0.31224 0.33983 0.0
C954 C 0.62304 0.33748 0.35544 0.0
C955 C 0.61141 0.355 0.38184 0.0
C956 C 0.58863 0.35138 0.38593 0.0
C957 C 0.57809 0.33028 0.36493 0.0
C958 C 0.64729 0.34046 0.34998 0.0
C959 C 0.57547 0.36906 0.41402 0.0
H960 H 0.64911 0.37924 0.49963 0.0
H961 H 0.64116 0.44107 0.41028 0.0
H962 H 0.61031 0.33395 0.46224 0.0
H963 H 0.63609 0.32441 0.44163 0.0
H964 H 0.6344 0.33628 0.49317 0.0
H965 H 0.62168 0.43351 0.3497 0.0
H966 H 0.62633 0.39994 0.33038 0.0
H967 H 0.60063 0.40819 0.35241 0.0
H968 H 0.62123 0.30262 0.3159 0.0
H969 H 0.56076 0.32745 0.36933 0.0
H970 H 0.65568 0.33545 0.37874 0.0
H971 H 0.65143 0.36164 0.34251 0.0
H972 H 0.65369 0.32708 0.32571 0.0
H973 H 0.58057 0.3655 0.44581 0.0
H974 H 0.55773 0.36509 0.41161 0.0
H975 H 0.5785 0.39064 0.40734 0.0
C976 C 0.2186 0.32 0.04384 0.0
C977 C 0.22802 0.34021 0.01968 0.0
C978 C 0.22587 0.29306 0.04238 0.0
C979 C 0.24294 0.28563 1.01572 0.0
C980 C 0.25238 0.30582 0.99079 0.0
C981 C 0.24491 0.3328 0.9932 0.0
C982 C 0.21547 0.27258 0.07007 0.0
C983 C 0.27047 0.29895 0.96165 0.0
C984 C 0.27596 0.22279 0.04336 0.0
C985 C 0.26644 0.2025 0.01934 0.0
C986 C 0.26868 0.24973 0.04203 0.0
C987 C 0.2515 0.25707 1.01564 0.0
C988 C 0.24196 0.23678 0.99086 0.0
C989 C 0.24943 0.20982 0.99314 0.0
C990 C 0.27919 0.2703 0.06957 0.0
C991 C 0.22375 0.24356 0.962 0.0
H992 H 0.20556 0.32528 0.06449 0.0
H993 H 0.25228 0.34807 0.97419 0.0
H994 H 0.20877 0.25559 0.05207 0.0
H995 H 0.22791 0.26409 0.09076 0.0
H996 H 0.20215 0.28138 0.08861 0.0
H997 H 0.27555 0.31657 0.94321 0.0
H998 H 0.28481 0.29144 0.97858 0.0
H999 H 0.26517 0.28254 0.94098 0.0
H1000 H 0.28908 0.21759 0.0638 0.0
H1001 H 0.24198 0.19449 0.97425 0.0
H1002 H 0.26683 0.27886 0.09046 0.0
H1003 H 0.28582 0.28723 0.05147 0.0
H1004 H 0.29259 0.26157 0.0879 0.0
H1005 H 0.20947 0.25113 0.97916 0.0
H1006 H 0.21858 0.22587 0.94365 0.0
H1007 H 0.22896 0.25989 0.94125 0.0
C1008 C 0.77541 0.72242 0.05025 0.0
C1009 C 0.7668 0.70277 0.02392 0.0
C1010 C 0.76821 0.74941 0.04951 0.0
C1011 C 0.75205 0.75746 0.02142 0.0
C1012 C 0.74353 0.73786 0.99421 0.0
C1013 C 0.75089 0.71082 0.99591 0.0
C1014 C 0.77762 0.76922 0.07957 0.0
C1015 C 0.72645 0.74542 0.96347 0.0
C1016 C 0.7172 0.81886 0.04902 0.0
C1017 C 0.72696 0.83987 0.02696 0.0
C1018 C 0.72511 0.79221 0.04725 0.0
C1019 C 0.74323 0.7859 0.02242 0.0
C1020 C 0.75321 0.80699 0.99997 0.0
C1021 C 0.74506 0.83366 1.00266 0.0
C1022 C 0.71407 0.77077 0.07234 0.0
C1023 C 0.77244 0.80132 0.97286 0.0
H1024 H 0.78771 0.71666 0.07209 0.0
H1025 H 0.74418 0.69601 0.97522 0.0
H1026 H 0.7846 0.78682 0.06347 0.0
H1027 H 0.76453 0.77691 0.09966 0.0
H1028 H 0.79052 0.76009 0.09868 0.0
H1029 H 0.72228 0.72837 0.94301 0.0
H1030 H 0.71143 0.75208 0.97921 0.0
H1031 H 0.73223 0.7626 0.9449 0.0
H1032 H 0.70324 0.82322 0.06801 0.0
H1033 H 0.75269 0.84956 0.98525 0.0
H1034 H 0.72595 0.76171 0.09364 0.0
H1035 H 0.70804 0.75434 0.05244 0.0
H1036 H 0.70016 0.77884 0.09009 0.0
H1037 H 0.78605 0.79293 0.99092 0.0
H1038 H 0.77827 0.81969 0.95703 0.0
H1039 H 0.76796 0.78592 0.94989 0.0
C1040 C 0.97181 0.46384 0.24366 0.0
C1041 C 0.98829 0.44677 0.25826 0.0
C1042 C 0.9751 0.49199 0.2399 0.0
C1043 C 0.99534 0.50369 0.25118 0.0
C1044 C 0.01192 0.48655 0.26628 0.0
C1045 C 0.00823 0.45853 0.26953 0.0
C1046 C 0.95695 0.50921 0.22338 0.0
C1047 C 0.03376 0.4978 0.27872 0.0
C1048 C 0.01401 0.57104 0.20576 0.0
C1049 C 0.01014 0.58954 0.23735 0.0
C1050 C 0.00887 0.54341 0.20957 0.0
C1051 C -0.00043 0.53356 0.24597 0.0
C1052 C 0.99528 0.55217 0.27779 0.0
C1053 C 0.00059 0.5798 0.27314 0.0
C1054 C 0.0138 0.52461 0.17472 0.0
C1055 C 0.98545 0.54278 0.31717 0.0
H1056 H 0.95632 0.45518 0.23491 0.0
H1057 H 0.02116 0.44578 0.2809 0.0
H1058 H 0.95277 0.52533 0.2454 0.0
H1059 H 0.96236 0.51925 0.19513 0.0
H1060 H 0.94205 0.4973 0.21671 0.0
H1061 H 0.04475 0.48204 0.29099 0.0
H1062 H 0.0418 0.50733 0.2523 0.0
H1063 H 0.03156 0.51369 0.30208 0.0
H1064 H 0.02139 0.57806 0.1779 0.0
H1065 H -0.0025 0.59371 0.29784 0.0
H1066 H -0.0011 0.51343 0.16583 0.0
H1067 H 0.02606 0.50949 0.1842 0.0
H1068 H 0.02013 0.53547 0.1478 0.0
H1069 H 0.96996 0.53197 0.31131 0.0
H1070 H 0.98221 0.55975 0.33836 0.0
H1071 H -0.00338 0.52834 0.33212 0.0
C1072 C 0.276 0.72324 0.54393 0.0
C1073 C 0.26666 0.70284 0.51988 0.0
C1074 C 0.26859 0.75012 0.54242 0.0
C1075 C 0.25146 0.75728 0.5158 0.0
C1076 C 0.2421 0.73689 0.49097 0.0
C1077 C 0.2497 0.70998 0.49345 0.0
C1078 C 0.27889 0.77082 0.57001 0.0
C1079 C 0.22396 0.74347 0.46187 0.0
C1080 C 0.21807 0.81994 0.54334 0.0
C1081 C 0.22744 0.84019 0.5192 0.0
C1082 C 0.22552 0.79307 0.54209 0.0
C1083 C 0.24273 0.78576 0.51568 0.0
C1084 C 0.25214 0.80601 0.49078 0.0
C1085 C 0.24449 0.83291 0.49297 0.0
C1086 C 0.21515 0.77254 0.56974 0.0
C1087 C 0.27038 0.79926 0.4619 0.0
H1088 H 0.28908 0.71817 0.56455 0.0
H1089 H 0.2424 0.69456 0.47452 0.0
H1090 H 0.28548 0.78778 0.55194 0.0
H1091 H 0.26642 0.7793 0.59073 0.0
H1092 H 0.29228 0.76222 0.58852 0.0
H1093 H 0.21897 0.72573 0.44348 0.0
H1094 H 0.20958 0.75092 0.47884 0.0
H1095 H 0.22915 0.75984 0.44116 0.0
H1096 H 0.20492 0.82513 0.56379 0.0
H1097 H 0.25182 0.84821 0.47399 0.0
H1098 H 0.22758 0.76419 0.59059 0.0
H1099 H 0.2086 0.75548 0.55172 0.0
H1100 H 0.20173 0.78125 0.58812 0.0
H1101 H 0.2847 0.79189 0.47904 0.0
H1102 H 0.27544 0.8169 0.44349 0.0
H1103 H 0.26525 0.78278 0.4412 0.0
C1104 C 0.75218 0.20913 0.52464 0.0
C1105 C 0.76238 0.19878 0.48979 0.0
C1106 C 0.74604 0.23659 0.52743 0.0
C1107 C 0.7501 0.2544 0.49464 0.0
C1108 C 0.76067 0.24411 0.45968 0.0
C1109 C 0.76664 0.21666 0.45771 0.0
C1110 C 0.73486 0.24648 0.56534 0.0
C1111 C 0.76534 0.26204 0.42383 0.0
C1112 C 0.71352 0.31619 0.4805 0.0
C1113 C 0.72652 0.33768 0.49449 0.0
C1114 C 0.7209 0.2893 0.48087 0.0
C1115 C 0.74198 0.2832 0.49555 0.0
C1116 C 0.75525 0.30471 0.50988 0.0
C1117 C 0.74739 0.3316 0.50925 0.0
C1118 C 0.70607 0.26736 0.46509 0.0
C1119 C 0.77786 0.29933 0.52567 0.0
H1120 H 0.74888 0.19573 0.54976 0.0
H1121 H 0.77462 0.20917 0.43066 0.0
H1122 H 0.74366 0.26417 0.57788 0.0
H1123 H 0.71811 0.25319 0.55797 0.0
H1124 H 0.73392 0.23067 0.58904 0.0
H1125 H 0.77465 0.25144 0.39975 0.0
H1126 H 0.74981 0.26934 0.4107 0.0
H1127 H 0.77471 0.28002 0.43363 0.0
H1128 H 0.69734 0.32034 0.46905 0.0
H1129 H 0.75764 0.34786 0.52013 0.0
H1130 H 0.70338 0.25195 0.48886 0.0
H1131 H 0.71382 0.25705 0.43894 0.0
H1132 H 0.69001 0.27526 0.45531 0.0
H1133 H 0.77711 0.28479 0.55111 0.0
H1134 H 0.78607 0.318 0.53631 0.0
H1135 H 0.78793 0.28999 0.50153 0.0
C1136 C -0.00251 0.95974 0.74504 0.0
C1137 C 0.97974 0.95251 0.76959 0.0
C1138 C 0.00488 0.98676 0.74289 0.0
C1139 C 0.99452 1.00721 0.7662 0.0
C1140 C 0.97661 0.99995 0.79095 0.0
C1141 C 0.96941 0.97296 0.79211 0.0
C1142 C 0.02386 0.99344 0.71573 0.0
C1143 C 0.96521 1.02068 0.81695 0.0
C1144 C 0.02636 0.07068 0.79631 0.0
C1145 C 0.01756 0.09062 0.77089 0.0
C1146 C 0.01922 0.04367 0.7947 0.0
C1147 C 0.00296 0.03587 0.76656 0.0
C1148 C 0.99416 0.05579 0.74038 0.0
C1149 C 0.00144 0.08286 0.74301 0.0
C1150 C 0.02887 0.02351 0.82379 0.0
C1151 C 0.97697 0.04853 0.70963 0.0
H1152 H 0.00556 0.94429 0.7273 0.0
H1153 H 0.95571 0.96784 0.81128 0.0
H1154 H 0.01918 1.00953 0.69414 0.0
H1155 H 0.03758 1.00131 0.7341 0.0
H1156 H 0.02963 0.97564 0.6983 0.0
H1157 H 0.95135 1.01198 0.83411 0.0
H1158 H 0.97691 0.02956 0.83884 0.0
H1159 H 0.95904 0.03737 0.79785 0.0
H1160 H 0.03879 0.07622 0.81807 0.0
H1161 H 0.99457 0.09791 0.72302 0.0
H1162 H 0.03619 1.00646 0.80682 0.0
H1163 H 0.01587 1.01507 0.84333 0.0
H1164 H 0.04157 0.0326 0.8435 0.0
H1165 H 0.9829 0.03196 0.68988 0.0
H1166 H 0.97239 0.06594 0.69034 0.0
H1167 H 0.96217 0.0411 0.72527 0.0
C1168 C 0.49389 0.5829 0.73826 0.0
C1169 C 0.51189 0.58939 0.76263 0.0
C1170 C 0.48572 0.55619 0.73622 0.0
C1171 C 0.49561 0.53541 0.75939 0.0
C1172 C 0.51369 0.54199 0.78413 0.0
C1173 C 0.5216 0.56864 0.78527 0.0
C1174 C 0.46652 0.55021 0.70922 0.0
C1175 C 0.52465 0.52086 0.80989 0.0
C1176 C 0.46371 0.47218 0.78954 0.0
C1177 C 0.47255 0.45218 0.76412 0.0
C1178 C 0.47066 0.49925 0.78762 0.0
C1179 C 0.48678 0.50698 0.75921 0.0
C1180 C 0.49546 0.48704 0.73278 0.0
C1181 C 0.48835 0.45995 0.73567 0.0
C1182 C 0.46111 0.51947 0.81687 0.0
C1183 C 0.5125 0.49426 0.70174 0.0
H1184 H 0.48628 0.59861 0.72047 0.0
H1185 H 0.53548 0.57321 0.80432 0.0
H1186 H 0.47071 0.53388 0.68757 0.0
H1187 H 0.45264 0.54296 0.72772 0.0
H1188 H 0.46119 0.56819 0.69187 0.0
H1189 H 0.53856 0.52913 0.82744 0.0
H1190 H 0.51273 0.5121 0.83142 0.0
H1191 H 0.53067 0.50416 0.7905 0.0
H1192 H 0.45149 0.46662 0.81166 0.0
H1193 H 0.49522 0.44485 0.71563 0.0
H1194 H 0.45423 0.53684 0.80012 0.0
H1195 H 0.4741 0.52743 0.83694 0.0
H1196 H 0.44811 0.51059 0.83605 0.0
H1197 H 0.50673 0.51126 0.68281 0.0
H1198 H 0.51659 0.47699 0.68164 0.0
H1199 H 0.52756 0.50103 0.71723 0.0
C1200 C 0.48815 0.95968 0.23516 0.0
C1201 C 0.47226 0.95186 0.2634 0.0
C1202 C 0.49525 0.98677 0.23241 0.0
C1203 C 0.48647 1.00669 0.25878 0.0
C1204 C 0.47026 0.99891 0.28697 0.0
C1205 C 0.46333 0.97183 0.28877 0.0
C1206 C 0.51239 0.99404 0.20159 0.0
C1207 C 0.46059 1.0191 0.31616 0.0
C1208 C 0.52108 0.06841 0.28549 0.0
C1209 C 0.51141 0.08918 0.26283 0.0
C1210 C 0.51324 0.04173 0.28413 0.0
C1211 C 0.49527 0.03513 0.25912 0.0
C1212 C 0.48543 0.05593 0.23591 0.0
C1213 C 0.49352 0.08266 0.23817 0.0
C1214 C 0.52414 1.02059 0.30994 0.0
C1215 C 0.46633 0.04994 0.20864 0.0
H1216 H 0.4951 0.9446 0.21517 0.0
H1217 H 0.45103 0.96625 0.31073 0.0
H1218 H 0.50667 1.01106 0.18263 0.0
H1219 H 0.52739 1.00082 0.21728 0.0
H1220 H 0.51657 0.9768 0.18152 0.0
H1221 H 0.44753 1.01019 0.33517 0.0
H1222 H 0.4735 0.02707 0.33639 0.0
H1223 H 0.45375 0.03647 0.29935 0.0
H1224 H 0.53488 0.07299 0.30476 0.0
H1225 H 0.48594 0.09838 0.22035 0.0
H1226 H 0.53024 1.00392 0.29058 0.0
H1227 H 0.51217 1.0118 0.33134 0.0
H1228 H 0.538 0.02886 0.32765 0.0
H1229 H 0.47065 0.03366 0.18695 0.0
H1230 H 0.46102 0.06793 0.19131 0.0
H1231 H 0.45241 0.04259 0.22692 0.0
C1232 C 0.24143 0.99951 0.28783 0.0
C1233 C 0.25704 1.00362 0.31821 0.0
C1234 C 0.24333 1.01229 0.24981 0.0
C1235 C 0.26126 0.02958 0.24199 0.0
C1236 C 0.27635 0.03492 0.27339 0.0
C1237 C 0.27399 0.02204 0.311 0.0
C1238 C 0.2268 1.00614 0.21731 0.0
C1239 C 0.29567 0.0532 0.26667 0.0
C1240 C 0.28285 0.03721 0.13411 0.0
C1241 C 0.2748 0.06255 0.12289 0.0
C1242 C 0.27819 0.02606 0.17234 0.0
C1243 C 0.26524 0.04067 0.20038 0.0
C1244 C 0.25697 0.06625 0.18914 0.0
C1245 C 0.26175 0.0768 0.15054 0.0
C1246 C 0.28721 0.99865 0.1828 0.0
C1247 C 0.24312 0.08251 0.21797 0.0
H1248 H 0.22839 0.98519 0.293 0.0
H1249 H 0.28599 0.02558 0.33447 0.0
H1250 H 0.22076 0.02507 0.20349 0.0
H1251 H 0.23459 0.99416 0.19287 0.0
H1252 H 0.2127 0.99459 0.22923 0.0
H1253 H 0.30498 0.05689 0.29498 0.0
H1254 H 0.30676 0.04396 0.24402 0.0
H1255 H 0.29028 0.07286 0.25431 0.0
H1256 H 0.29247 0.02578 0.11261 0.0
H1257 H 0.25528 0.09629 0.14203 0.0
H1258 H 0.27408 0.98528 0.19409 0.0
H1259 H 0.29936 1.00072 0.20745 0.0
H1260 H 0.29511 0.98871 0.15646 0.0
H1261 H 0.22874 0.07056 0.22745 0.0
H1262 H 0.23741 0.10168 0.20431 0.0
H1263 H 0.25255 0.08729 0.24573 0.0
C1264 C 0.73551 0.96966 0.14747 0.0
C1265 C 0.72368 0.98526 0.11965 0.0
C1266 C 0.74174 0.98017 0.18563 0.0
C1267 C 0.73576 1.00682 0.19676 0.0
C1268 C 0.72452 0.02292 0.16818 0.0
C1269 C 0.71893 1.01213 0.13006 0.0
C1270 C 0.75399 0.96234 0.2147 0.0
C1271 C 0.7174 0.05125 0.17854 0.0
C1272 C 0.72476 0.0261 0.30688 0.0
C1273 C 0.7424 0.04305 0.3163 0.0
C1274 C 0.72296 1.01331 0.26893 0.0
C1275 C 0.73931 1.01719 0.23924 0.0
C1276 C 0.7579 0.03286 0.24946 0.0
C1277 C 0.75922 0.04563 0.28781 0.0
C1278 C 0.70281 0.99694 0.25982 0.0
C1279 C 0.77586 0.03732 0.21909 0.0
H1280 H 0.73941 0.94894 0.13995 0.0
H1281 H 0.71011 0.02465 0.10884 0.0
H1282 H 0.76817 0.97327 0.22752 0.0
H1283 H 0.74322 0.95683 0.24036 0.0
H1284 H 0.7598 0.94351 0.19999 0.0
H1285 H 0.7098 0.06168 0.15237 0.0
H1286 H 0.7054 0.05067 0.20366 0.0
H1287 H 0.7315 0.06333 0.18911 0.0
H1288 H 0.71174 0.02381 0.32878 0.0
H1289 H 0.77281 0.05881 0.2946 0.0
H1290 H 0.70734 0.97679 0.24791 0.0
H1291 H 0.6931 1.00719 0.23606 0.0
H1292 H 0.69236 0.99421 0.28697 0.0
H1293 H 0.78075 1.01794 0.20494 0.0
H1294 H 0.7904 0.04683 0.2331 0.0
H1295 H 0.76991 0.05064 0.19454 0.0
C1296 C 0.95786 0.2878 0.39054 0.0
C1297 C 0.96447 0.31355 0.37801 0.0
C1298 C 0.96366 0.27754 0.4287 0.0
C1299 C 0.97645 0.29334 0.45545 0.0
C1300 C 0.98344 0.31927 0.44285 0.0
C1301 C 0.97743 0.32902 0.40428 0.0
C1302 C 0.95594 0.24974 0.44054 0.0
C1303 C -0.00285 0.33675 0.47024 0.0
C1304 C 0.96907 0.2743 0.56619 0.0
C1305 C 0.98631 0.25621 0.57264 0.0
C1306 C 0.96635 0.28759 0.52899 0.0
C1307 C 0.98137 0.28302 0.49718 0.0
C1308 C -0.00028 0.2663 0.50443 0.0
C1309 C 0.00196 0.25307 0.54205 0.0
C1310 C 0.94656 0.30515 0.52291 0.0
C1311 C 0.01626 0.26105 0.4716 0.0
H1312 H 0.94833 0.27537 0.37017 0.0
H1313 H 0.98282 0.34883 0.39479 0.0
H1314 H 0.96999 0.23697 0.44921 0.0
H1315 H 0.94511 0.2512 0.46735 0.0
H1316 H 0.94697 0.23948 0.4157 0.0
H1317 H 0.00208 0.35589 0.45545 0.0
H1318 H 0.98795 0.34163 0.49822 0.0
H1319 H 0.01201 0.32569 0.47957 0.0
H1320 H 0.95704 0.27715 0.58986 0.0
H1321 H 0.01527 0.23908 0.54663 0.0
H1322 H 0.93534 0.29529 0.5011 0.0
H1323 H 0.95131 0.32487 0.50985 0.0
H1324 H 0.9376 0.30879 0.55164 0.0
H1325 H 0.00893 0.24804 0.44787 0.0
H1326 H 0.03101 0.25084 0.48348 0.0
H1327 H 0.02119 0.28019 0.45691 0.0
C1328 C 0.02783 0.76926 0.56263 0.0
C1329 C 0.01103 0.78756 0.57159 0.0
C1330 C 0.02947 0.7568 0.52448 0.0
C1331 C 0.01375 0.76236 0.49431 0.0
C1332 C 0.99599 0.77954 0.50388 0.0
C1333 C 0.99485 0.79196 0.54238 0.0
C1334 C 0.04866 0.73866 0.51586 0.0
C1335 C 0.97878 0.78587 0.47278 0.0
C1336 C 0.03323 0.75501 0.38492 0.0
C1337 C 0.0251 0.72958 0.37404 0.0
C1338 C 0.02917 0.76615 0.42349 0.0
C1339 C 0.01681 0.75145 0.45223 0.0
C1340 C 0.0084 0.72585 0.44127 0.0
C1341 C 0.01254 0.71531 0.40233 0.0
C1342 C 0.03825 0.79364 0.43362 0.0
C1343 C 0.99512 0.7095 0.4708 0.0
H1344 H 0.04025 0.76541 0.58519 0.0
H1345 H 0.98191 0.80617 0.54886 0.0
H1346 H 0.04303 0.71899 0.50371 0.0
H1347 H 0.05916 0.74801 0.49242 0.0
H1348 H 0.05868 0.73495 0.54329 0.0
H1349 H 0.96494 0.79728 0.48601 0.0
H1350 H 0.98602 0.79804 0.44807 0.0
H1351 H 0.97247 0.76701 0.45896 0.0
H1352 H 0.04247 0.76646 0.36295 0.0
H1353 H 0.00602 0.69574 0.39411 0.0
H1354 H 0.02521 0.80697 0.4454 0.0
H1355 H 0.04584 0.80353 0.40698 0.0
H1356 H 0.05066 0.79172 0.45783 0.0
H1357 H 0.00515 0.70447 0.49766 0.0
H1358 H 0.98899 0.69045 0.45718 0.0
H1359 H 0.98104 0.72147 0.4817 0.0
C1360 C 0.26241 0.57713 0.6516 0.0
C1361 C 0.27542 0.56288 0.6239 0.0
C1362 C 0.25768 0.56657 0.69021 0.0
C1363 C 0.26596 0.54099 0.70139 0.0
C1364 C 0.27886 0.52638 0.67329 0.0
C1365 C 0.28348 0.53753 0.63506 0.0
C1366 C 0.24388 0.58284 0.71912 0.0
C1367 C 0.28787 0.49895 0.68369 0.0
C1368 C 0.27497 0.52232 0.81189 0.0
C1369 C 0.25804 0.50389 0.8192 0.0
C1370 C 0.27722 0.53524 0.7743 0.0
C1371 C 0.26207 0.52991 0.74302 0.0
C1372 C 0.24416 0.51261 0.75096 0.0
C1373 C 0.24235 0.49979 0.78897 0.0
C1374 C 0.29652 0.55353 0.76744 0.0
C1375 C 0.22755 0.50648 0.71859 0.0
H1376 H 0.25594 0.59663 0.64313 0.0
H1377 H 0.29307 0.52611 0.61351 0.0
H1378 H 0.22952 0.57088 0.72871 0.0
H1379 H 0.25336 0.58763 0.74681 0.0
H1380 H 0.23813 0.602 0.70548 0.0
H1381 H 0.30005 0.501 0.70831 0.0
H1382 H 0.27475 0.48559 0.695 0.0
H1383 H 0.29575 0.48902 0.65731 0.0
H1384 H 0.28703 0.52586 0.83527 0.0
H1385 H 0.22934 0.48547 0.79422 0.0
H1386 H 0.29111 0.57319 0.75512 0.0
H1387 H 0.30757 0.5443 0.74471 0.0
H1388 H 0.30589 0.55723 0.79568 0.0
H1389 H 0.2215 0.52541 0.7048 0.0
H1390 H 0.21347 0.49495 0.73062 0.0
H1391 H 0.23527 0.49448 0.69409 0.0
C1392 C 0.72664 0.52487 0.80241 0.0
C1393 C 0.74414 0.54206 0.81178 0.0
C1394 C 0.72492 0.51206 0.76447 0.0
C1395 C 0.74124 0.5161 0.73479 0.0
C1396 C 0.75975 0.53192 0.74501 0.0
C1397 C 0.76096 0.54477 0.78332 0.0
C1398 C 0.70484 0.49556 0.75533 0.0
C1399 C 0.77771 0.53649 0.71469 0.0
C1400 C 0.73752 0.46871 0.64286 0.0
C1401 C 0.72569 0.48436 0.61508 0.0
C1402 C 0.74374 0.47917 0.68106 0.0
C1403 C 0.73772 0.50579 0.69229 0.0
C1404 C 0.72646 0.52192 0.66378 0.0
C1405 C 0.72092 0.5112 0.62559 0.0
C1406 C 0.75604 0.46133 0.71003 0.0
C1407 C 0.71928 0.55021 0.67427 0.0
H1408 H 0.71363 0.52246 0.8243 0.0
H1409 H 0.77446 0.55811 0.79007 0.0
H1410 H 0.69509 0.50577 0.7316 0.0
H1411 H 0.70945 0.47545 0.74337 0.0
H1412 H 0.69441 0.49273 0.78248 0.0
H1413 H 0.79224 0.54599 0.72878 0.0
H1414 H 0.78262 0.51715 0.70043 0.0
H1415 H 0.77175 0.54987 0.69022 0.0
H1416 H 0.74145 0.44802 0.63525 0.0
H1417 H 0.71214 0.52377 0.60438 0.0
H1418 H 0.74529 0.4557 0.73566 0.0
H1419 H 0.77019 0.47229 0.72291 0.0
H1420 H 0.76191 0.44257 0.69521 0.0
H1421 H 0.70739 0.54956 0.69955 0.0
H1422 H 0.71155 0.56061 0.64822 0.0
H1423 H 0.73339 0.56235 0.68465 0.0
C1424 C 0.96975 0.77204 0.06545 0.0
C1425 C 0.98558 0.75199 0.07143 0.0
C1426 C 0.96746 0.78521 0.02804 0.0
C1427 C 0.98142 0.7784 0.99546 0.0
C1428 C -0.00178 0.75923 1.00191 0.0
C1429 C 0.00013 0.74628 0.03982 0.0
C1430 C 0.94941 0.80555 0.02288 0.0
C1431 C 0.01348 0.75136 0.96809 0.0
C1432 C 0.9589 0.78909 0.8887 0.0
C1433 C 0.96893 0.81326 0.87701 0.0
C1434 C 0.96306 0.77739 0.92678 0.0
C1435 C 0.97751 0.79023 0.95424 0.0
C1436 C 0.9876 0.81473 0.94268 0.0
C1437 C 0.98327 0.82586 0.90425 0.0
C1438 C 0.95193 0.75124 0.93763 0.0
C1439 C 0.00304 0.82918 0.97089 0.0
H1440 H 0.95854 0.77674 0.08983 0.0
H1441 H 0.01225 0.73067 0.04401 0.0
H1442 H 0.95594 0.82461 1.01024 0.0
H1443 H 0.93724 0.79768 1.00103 0.0
H1444 H 0.941 0.81011 0.05188 0.0
H1445 H 0.02675 0.73792 0.9787 0.0
H1446 H 0.00423 0.74075 0.94399 0.0
H1447 H 0.0208 0.76958 0.95424 0.0
H1448 H 0.94816 0.77892 0.86764 0.0
H1449 H 0.99125 0.84444 0.89546 0.0
H1450 H 0.93987 0.75498 0.96201 0.0
H1451 H 0.9639 0.73647 0.94937 0.0
H1452 H 0.9434 0.74208 0.91134 0.0
H1453 H 0.99453 0.83452 0.99944 0.0
H1454 H 0.00976 0.84788 0.95731 0.0
H1455 H 0.01675 0.81569 0.97899 0.0
C1456 C 0.02725 0.27422 0.06113 0.0
C1457 C 0.00999 0.29208 0.06901 0.0
C1458 C 0.02937 0.26109 0.02356 0.0
C1459 C 0.01376 0.26562 0.9928 0.0
C1460 C 0.9956 0.28243 1.00129 0.0
C1461 C 0.99392 0.29544 0.0393 0.0
C1462 C 0.04895 0.24335 1.01615 0.0
C1463 C 0.97853 0.28776 0.9695 0.0
C1464 C 0.03415 0.25732 0.88413 0.0
C1465 C 0.02643 0.23161 0.87369 0.0
C1466 C 0.02972 0.2688 0.92233 0.0
C1467 C 0.01737 0.25418 0.95117 0.0
C1468 C 0.00943 0.22825 0.94071 0.0
C1469 C 0.01394 0.21736 0.9021 0.0
C1470 C 0.03835 0.2966 0.9319 0.0
C1471 C -0.00375 0.21192 0.97042 0.0
H1472 H 0.03963 0.27126 0.08408 0.0
H1473 H 0.98064 0.30931 0.04497 0.0
H1474 H 0.04378 0.2234 1.00435 0.0
H1475 H 0.05954 0.25269 0.99285 0.0
H1476 H 0.05872 0.24024 0.04405 0.0
H1477 H 0.96441 0.29906 0.9819 0.0
H1478 H 0.98577 0.29966 0.94449 0.0
H1479 H 0.97263 0.26851 0.95629 0.0
H1480 H 0.04334 0.26874 0.86205 0.0
H1481 H 0.00773 0.19758 0.89422 0.0
H1482 H 0.05041 0.29532 0.95679 0.0
H1483 H 0.02497 0.30986 0.94252 0.0
H1484 H 0.04622 0.3062 0.9053 0.0
H1485 H 0.00614 0.20766 0.99776 0.0
H1486 H 0.99065 0.19247 0.9573 0.0
H1487 H 0.98182 0.22359 0.98046 0.0
C1488 C 0.74538 0.99827 0.80023 0.0
C1489 C 0.76023 1.00445 0.8313 0.0
C1490 C 0.74756 1.00945 0.76105 0.0
C1491 C 0.76511 0.02716 0.75229 0.0
C1492 C 0.77972 0.0341 0.78381 0.0
C1493 C 0.77699 0.02295 0.82271 0.0
C1494 C 0.73147 1.00161 0.7286 0.0
C1495 C 0.79868 0.05278 0.77618 0.0
C1496 C 0.78585 0.03407 0.64317 0.0
C1497 C 0.77702 0.05888 0.63113 0.0
C1498 C 0.78184 0.02337 0.68207 0.0
C1499 C 0.7687 0.03781 0.71005 0.0
C1500 C 0.75961 0.0628 0.69794 0.0
C1501 C 0.76381 0.07295 0.65877 0.0
C1502 C 0.79181 0.99662 0.69334 0.0
C1503 C 0.74541 0.07887 0.72642 0.0
H1504 H 0.73249 0.98389 0.80604 0.0
H1505 H 0.78836 0.02845 0.84642 0.0
H1506 H 0.72452 1.0199 0.71432 0.0
H1507 H 0.73989 0.99003 0.70445 0.0
H1508 H 0.71794 0.98913 0.74068 0.0
H1509 H 0.80824 0.05687 0.80408 0.0
H1510 H 0.80966 0.04376 0.75316 0.0
H1511 H 0.7928 0.07224 0.76385 0.0
H1512 H 0.79561 0.02271 0.62183 0.0
H1513 H 0.75672 0.09202 0.64981 0.0
H1514 H 0.77932 0.98297 0.70624 0.0
H1515 H 0.80437 0.99983 0.717 0.0
H1516 H 0.79948 0.98641 0.66699 0.0
H1517 H 0.73143 0.06643 0.73649 0.0
H1518 H 0.73909 0.09756 0.71221 0.0
H1519 H 0.75479 0.08449 0.75388 0.0
C1520 C 0.25183 0.04324 0.78798 0.0
C1521 C 0.23611 0.03895 0.81809 0.0
C1522 C 0.25007 0.03066 0.74967 0.0
C1523 C 0.23216 1.01343 0.74126 0.0
C1524 C 0.21695 1.00794 0.77237 0.0
C1525 C 0.21918 1.0206 0.81028 0.0
C1526 C 0.26675 0.03694 0.71752 0.0
C1527 C 0.19764 0.98972 0.76503 0.0
C1528 C 0.21093 1.00609 0.63303 0.0
C1529 C 0.21896 0.98072 0.6216 0.0
C1530 C 0.21553 1.01717 0.67142 0.0
C1531 C 0.22837 1.00249 0.69941 0.0
C1532 C 0.23664 0.97692 0.68792 0.0
C1533 C 0.23193 0.96643 0.64917 0.0
C1534 C 0.20653 0.04459 0.68214 0.0
C1535 C 0.25038 0.96057 0.71667 0.0
H1536 H 0.26485 0.05751 0.7936 0.0
H1537 H 0.20708 1.01691 0.83354 0.0
H1538 H 0.27283 1.01807 0.70342 0.0
H1539 H 0.25908 0.04905 0.69319 0.0
H1540 H 0.2808 0.04841 0.72985 0.0
H1541 H 0.18817 0.98596 0.79311 0.0
H1542 H 0.18668 0.99905 0.74232 0.0
H1543 H 0.20307 0.97009 0.75247 0.0
H1544 H 0.20135 1.01754 0.61161 0.0
H1545 H 0.23837 0.94691 0.64052 0.0
H1546 H 0.19852 0.05448 0.65596 0.0
H1547 H 0.2197 0.05797 0.69331 0.0
H1548 H 0.19447 0.04255 0.70697 0.0
H1549 H 0.26468 0.97253 0.72665 0.0
H1550 H 0.25623 0.94149 0.70274 0.0
H1551 H 0.24081 0.95561 0.74416 0.0
C1552 C 0.46745 0.27413 0.05887 0.0
C1553 C 0.48424 0.25563 0.06685 0.0
C1554 C 0.46513 0.28627 0.02068 0.0
C1555 C 0.48017 0.28023 0.98946 0.0
C1556 C 0.49797 0.26291 0.998 0.0
C1557 C 0.49977 0.25077 0.03652 0.0
C1558 C 0.44591 0.30454 1.01319 0.0
C1559 C 0.51451 0.25611 0.9658 0.0
C1560 C 0.45869 0.28623 0.88123 0.0
C1561 C 0.46667 0.31147 0.86919 0.0
C1562 C 0.46337 0.27564 0.91981 0.0
C1563 C 0.47629 0.29066 0.94739 0.0
C1564 C 0.48458 0.31606 0.93526 0.0
C1565 C 0.47975 0.3261 0.89636 0.0
C1566 C 0.45432 0.24838 0.9312 0.0
C1567 C 0.4985 0.33271 0.96348 0.0
H1568 H 0.45555 0.2784 0.08226 0.0
H1569 H 0.5127 0.23642 0.04217 0.0
H1570 H 0.45142 0.32401 1.00033 0.0
H1571 H 0.43487 0.29506 0.99067 0.0
H1572 H 0.43649 0.30864 0.04126 0.0
H1573 H 0.52857 0.24475 0.97823 0.0
H1574 H 0.50672 0.24369 0.94185 0.0
H1575 H 0.52061 0.27476 0.95119 0.0
H1576 H 0.44904 0.2745 0.86015 0.0
H1577 H 0.48618 0.34551 0.88727 0.0
H1578 H 0.44222 0.25082 0.95588 0.0
H1579 H 0.46745 0.23516 0.94282 0.0
H1580 H 0.44637 0.23809 0.90523 0.0
H1581 H 0.48905 0.33811 0.99096 0.0
H1582 H 0.50439 0.35155 0.94906 0.0
H1583 H 0.51276 0.32079 0.97357 0.0
C1584 C 0.49814 0.7655 0.05171 0.0
C1585 C 0.49268 0.79292 0.05231 0.0
C1586 C 0.50138 0.75167 1.01481 0.0
C1587 C 0.4992 0.76565 0.97757 0.0
C1588 C 0.49235 0.79295 0.97816 0.0
C1589 C 0.48934 0.80627 1.01548 0.0
C1590 C 0.50875 0.72268 1.01583 0.0
C1591 C 0.48972 0.80869 0.93943 0.0
C1592 C 0.5349 0.74455 0.88831 0.0
C1593 C 0.52027 0.73051 0.86347 0.0
C1594 C 0.52828 0.75581 0.92547 0.0
C1595 C 0.50643 0.75283 0.93855 0.0
C1596 C 0.49167 0.73806 0.91398 0.0
C1597 C 0.4988 0.72691 0.87686 0.0
C1598 C 0.54473 0.77109 0.9506 0.0
C1599 C 0.46825 0.73448 0.92655 0.0
H1600 H 0.50131 0.75534 0.08013 0.0
H1601 H 0.48567 0.82765 1.01589 0.0
H1602 H 0.49931 0.71036 0.99394 0.0
H1603 H 0.52611 0.72152 1.00676 0.0
H1604 H 0.50702 0.71372 0.04647 0.0
H1605 H 0.48172 0.82848 0.94464 0.0
H1606 H 0.50595 0.81235 0.92576 0.0
H1607 H 0.47999 0.79704 0.91714 0.0
H1608 H 0.55171 0.74642 0.87889 0.0
H1609 H 0.48745 0.71592 0.85788 0.0
H1610 H 0.54599 0.76198 0.98116 0.0
H1611 H 0.53935 0.79227 0.95468 0.0
H1612 H 0.56115 0.77121 0.93649 0.0
H1613 H 0.4674 0.72496 0.95688 0.0
H1614 H 0.45894 0.72188 0.90473 0.0
H1615 H 0.46026 0.75447 0.92901 0.0
C1616 C 0.76157 0.57601 0.15253 0.0
C1617 C 0.77555 0.56243 0.12568 0.0
C1618 C 0.75704 0.56571 0.19149 0.0
C1619 C 0.76653 0.54105 0.20406 0.0
C1620 C 0.78041 0.52708 0.17682 0.0
C1621 C 0.78477 0.53795 0.1382 0.0
C1622 C 0.74213 0.5813 0.21929 0.0
C1623 C 0.79086 0.50069 0.18856 0.0
C1624 C 0.77464 0.52539 0.31634 0.0
C1625 C 0.75846 0.50596 0.32397 0.0
C1626 C 0.77702 0.53742 0.278 0.0
C1627 C 0.7627 0.53029 0.24612 0.0
C1628 C 0.74557 0.51181 0.25413 0.0
C1629 C 0.74367 0.49986 0.29284 0.0
C1630 C 0.79551 0.55694 0.27118 0.0
C1631 C 0.72985 0.50366 0.22122 0.0
H1632 H 0.7542 0.59482 0.14315 0.0
H1633 H 0.79516 0.52697 0.11744 0.0
H1634 H 0.72831 0.56838 0.22882 0.0
H1635 H 0.75104 0.58727 0.24712 0.0
H1636 H 0.73556 0.59974 0.20474 0.0
H1637 H 0.79877 0.49055 0.1624 0.0
H1638 H 0.80335 0.50442 0.21219 0.0
H1639 H 0.77862 0.48675 0.2016 0.0
H1640 H 0.786 0.53061 0.34022 0.0
H1641 H 0.73124 0.48477 0.29809 0.0
H1642 H 0.7893 0.57601 0.25808 0.0
H1643 H 0.80718 0.54824 0.24908 0.0
H1644 H 0.80442 0.56169 0.29959 0.0
H1645 H 0.72285 0.52179 0.20657 0.0
H1646 H 0.71636 0.49098 0.23295 0.0
H1647 H 0.73864 0.49214 0.19746 0.0
C1648 C 0.25315 0.54306 0.28938 0.0
C1649 C 0.23698 0.53942 0.31886 0.0
C1650 C 0.25162 0.53034 0.25115 0.0
C1651 C 0.23345 0.51366 0.24214 0.0
C1652 C 0.21776 0.50879 0.27266 0.0
C1653 C 0.2198 0.52152 0.31054 0.0
C1654 C 0.26885 0.53586 0.2197 0.0
C1655 C 0.19813 0.49123 0.26463 0.0
C1656 C 0.21305 0.50677 0.13335 0.0
C1657 C 0.22044 0.48103 0.12242 0.0
C1658 C 0.21767 0.51785 0.17173 0.0
C1659 C 0.22986 0.50276 0.20022 0.0
C1660 C 0.23755 0.47682 0.1892 0.0
C1661 C 0.23284 0.46635 0.15044 0.0
C1662 C 0.20941 0.54571 0.18192 0.0
C1663 C 0.25062 0.46006 0.21848 0.0
H1664 H 0.2664 0.55693 0.2954 0.0
H1665 H 0.20739 0.51826 0.33334 0.0
H1666 H 0.2745 0.51674 0.20573 0.0
H1667 H 0.26186 0.54839 0.19516 0.0
H1668 H 0.2831 0.54662 0.23267 0.0
H1669 H 0.18823 0.48791 0.29233 0.0
H1670 H 0.18768 0.50085 0.2414 0.0
H1671 H 0.20326 0.47136 0.25247 0.0
H1672 H 0.20394 0.51852 0.11157 0.0
H1673 H 0.2388 0.44653 0.14215 0.0
H1674 H 0.22309 0.5588 0.19163 0.0
H1675 H 0.19785 0.54454 0.20766 0.0
H1676 H 0.20112 0.55542 0.15589 0.0
H1677 H 0.26505 0.47155 0.229 0.0
H1678 H 0.2562 0.44079 0.20479 0.0
H1679 H 0.24065 0.45543 0.24559 0.0
C1680 C 0.47946 0.82628 0.39587 0.0
C1681 C 0.46632 0.81163 0.36884 0.0
C1682 C 0.48435 0.81632 0.4348 0.0
C1683 C 0.47605 0.79095 0.44711 0.0
C1684 C 0.46306 0.7759 0.41966 0.0
C1685 C 0.45833 0.78643 0.38105 0.0
C1686 C 0.49835 0.83299 0.46285 0.0
C1687 C 0.454 0.74869 0.43123 0.0
C1688 C 0.49967 0.75119 0.53628 0.0
C1689 C 0.48424 0.75619 0.56675 0.0
C1690 C 0.49779 0.76324 0.49769 0.0
C1691 C 0.48 0.78059 0.48921 0.0
C1692 C 0.46506 0.78675 0.52054 0.0
C1693 C 0.46748 0.77472 0.55881 0.0
C1694 C 0.51425 0.75633 0.46539 0.0
C1695 C 0.44584 0.80504 0.51311 0.0
H1696 H 0.4859 0.84566 0.38665 0.0
H1697 H 0.44864 0.77467 0.36007 0.0
H1698 H 0.48897 0.83845 0.49038 0.0
H1699 H 0.51262 0.82106 0.47288 0.0
H1700 H 0.50423 0.8518 0.44831 0.0
H1701 H 0.446 0.73836 0.40534 0.0
H1702 H 0.46713 0.73547 0.44284 0.0
H1703 H 0.44194 0.75121 0.45596 0.0
H1704 H 0.51259 0.73682 0.54188 0.0
H1705 H 0.45566 0.77912 0.58229 0.0
H1706 H 0.52034 0.77493 0.45065 0.0
H1707 H 0.50638 0.74388 0.44157 0.0
H1708 H 0.52831 0.74495 0.47776 0.0
H1709 H 0.45136 0.82449 0.50017 0.0
H1710 H 0.43648 0.8092 0.54123 0.0
H1711 H 0.43476 0.79555 0.49069 0.0
C1712 C 0.49064 0.30721 0.51599 0.0
C1713 C 0.49373 0.294 0.55302 0.0
C1714 C 0.49359 0.29364 0.47888 0.0
C1715 C 0.50014 0.26623 0.4787 0.0
C1716 C 0.50211 0.25243 0.51612 0.0
C1717 C 0.49892 0.2665 0.55282 0.0
C1718 C 0.49118 0.3092 0.43993 0.0
C1719 C 0.50916 0.22332 0.51754 0.0
C1720 C 0.49896 0.22728 0.37826 0.0
C1721 C 0.52043 0.23048 0.36459 0.0
C1722 C 0.49211 0.23854 0.41546 0.0
C1723 C 0.50714 0.25304 0.43982 0.0
C1724 C 0.52899 0.25556 0.42652 0.0
C1725 C 0.53533 0.24417 0.38929 0.0
C1726 C 0.46868 0.23543 0.4283 0.0
C1727 C 0.54571 0.27055 0.45143 0.0
H1728 H 0.48714 0.32863 0.51612 0.0
H1729 H 0.50188 0.25645 0.58141 0.0
H1730 H 0.50744 0.31235 0.42613 0.0
H1731 H 0.48123 0.29765 0.41786 0.0
H1732 H 0.48351 0.32922 0.44487 0.0
H1733 H 0.50736 0.21459 0.54831 0.0
H1734 H 0.49956 0.21103 0.49585 0.0
H1735 H 0.5265 0.22181 0.50842 0.0
H1736 H 0.4874 0.21654 0.35939 0.0
H1737 H 0.55213 0.2457 0.37965 0.0
H1738 H 0.46091 0.25557 0.43049 0.0
H1739 H 0.46781 0.22615 0.45879 0.0
H1740 H 0.45919 0.22284 0.40676 0.0
H1741 H 0.54067 0.29188 0.45524 0.0
H1742 H 0.56211 0.27017 0.43728 0.0
H1743 H 0.54683 0.26159 0.48211 0.0
C1744 C 0.10026 0.16218 0.91376 0.0
C1745 C 0.10726 0.18899 0.91223 0.0
C1746 C 0.11503 0.14166 0.92376 0.0
C1747 C 0.13695 0.14855 0.9321 0.0
C1748 C 0.14282 0.17592 0.93733 0.0
C1749 C 0.12782 0.19591 0.92703 0.0
C1750 C 0.10798 0.11267 0.91981 0.0
C1751 C 0.16584 0.18419 0.94747 0.0
C1752 C 0.18393 0.10008 0.94713 0.0
C1753 C 0.1925 0.09904 0.90775 0.0
C1754 C 0.16486 0.11467 0.95547 0.0
C1755 C 0.15449 0.12882 0.92375 0.0
C1756 C 0.16259 0.12678 0.88363 0.0
C1757 C 0.18148 0.11193 0.8762 0.0
C1758 C 0.15652 0.11576 0.99842 0.0
C1759 C 0.15199 0.14141 0.84867 0.0
H1760 H 0.08422 0.15693 0.90253 0.0
H1761 H 0.13299 0.21682 0.92635 0.0
H1762 H 0.11225 0.10512 0.88915 0.0
H1763 H 0.1164 0.0998 0.94233 0.0
H1764 H 0.09011 0.11056 0.92382 0.0
H1765 H 0.1668 0.20564 0.95709 0.0
H1766 H 0.17255 0.1714 0.97193 0.0
H1767 H 0.17628 0.18149 0.92031 0.0
H1768 H 0.19224 0.08972 0.97149 0.0
H1769 H 0.18815 0.11131 0.8458 0.0
H1770 H 0.13855 0.11778 0.99944 0.0
H1771 H 0.16369 0.13347 1.01406 0.0
H1772 H 0.16131 0.09746 1.01555 0.0
H1773 H 0.13455 0.13587 0.84651 0.0
H1774 H 0.15986 0.13674 0.81917 0.0
H1775 H 0.1529 0.16351 0.85375 0.0
C1776 C 0.80036 0.9264 0.94837 0.0
C1777 C 0.80051 0.95388 0.93841 0.0
C1778 C 0.81968 0.9115 0.94911 0.0
C1779 C 0.83953 0.92439 0.93929 0.0
C1780 C 0.84015 0.95277 0.9354 0.0
C1781 C 0.82053 0.96725 0.9347 0.0
C1782 C 0.81831 0.88132 0.95445 0.0
C1783 C 0.86117 0.9674 0.92696 0.0
C1784 C 0.88699 0.87572 0.92702 0.0
C1785 C 0.88438 0.86865 0.88624 0.0
C1786 C 0.87341 0.89536 0.9448 0.0
C1787 C 0.85709 0.90785 0.92096 0.0
C1788 C 0.85568 0.902 0.87903 0.0
C1789 C 0.8693 0.88248 0.86236 0.0
C1790 C 0.87585 0.90152 0.9893 0.0
C1791 C 0.83888 0.91512 0.85197 0.0
H1792 H 0.78502 0.91582 0.95156 0.0
H1793 H 0.8208 0.98867 0.92832 0.0
H1794 H 0.81942 0.87139 0.92435 0.0
H1795 H 0.83201 0.8739 0.97319 0.0
H1796 H 0.80276 0.87513 0.96887 0.0
H1797 H 0.86005 0.98901 0.93561 0.0
H1798 H 0.87492 0.958 0.94349 0.0
H1799 H 0.86482 0.96626 0.89408 0.0
H1800 H 0.89886 0.86515 0.94533 0.0
H1801 H 0.86769 0.87747 0.8305 0.0
H1802 H 0.86514 0.88787 1.00688 0.0
H1803 H 0.87115 0.9226 0.99644 0.0
H1804 H 0.89284 0.89811 0.99953 0.0
H1805 H 0.82227 0.90971 0.86237 0.0
H1806 H 0.84053 0.90884 0.81979 0.0
H1807 H 0.84037 0.93737 0.85348 0.0
C1808 C 0.06203 0.35288 0.19734 0.0
C1809 C 0.0532 0.35298 0.15815 0.0
C1810 C 0.08135 0.36684 0.20604 0.0
C1811 C 0.09173 0.38154 0.17489 0.0
C1812 C 0.08329 0.38077 0.13491 0.0
C1813 C 0.06414 0.3665 0.1271 0.0
C1814 C 0.09001 0.36657 0.24879 0.0
C1815 C 0.09391 0.39602 0.10053 0.0
C1816 C 0.12013 0.44738 0.18056 0.0
C1817 C 0.14026 0.43999 0.16427 0.0
C1818 C 0.10479 0.42776 0.19075 0.0
C1819 C 0.10986 0.40032 0.18382 0.0
C1820 C 0.13148 0.39278 0.17421 0.0
C1821 C 0.14663 0.41293 0.1644 0.0
C1822 C 0.08215 0.43665 0.20246 0.0
C1823 C 0.13772 0.36363 0.16854 0.0
H1824 H 0.05377 0.34199 0.22127 0.0
H1825 H 0.05729 0.3667 0.09685 0.0
H1826 H 0.108 0.36837 0.24951 0.0
H1827 H 0.08307 0.38387 0.26579 0.0
H1828 H 0.08518 0.34783 0.2648 0.0
H1829 H 0.08567 0.39244 0.07105 0.0
H1830 H 0.09356 0.41798 0.10702 0.0
H1831 H 0.11119 0.38995 0.09743 0.0
H1832 H 0.11547 0.46848 0.18095 0.0
H1833 H 0.16234 0.40731 0.15202 0.0
H1834 H 0.07538 0.42347 0.22642 0.0
H1835 H 0.07131 0.43513 0.17565 0.0
H1836 H 0.08191 0.45784 0.21342 0.0
H1837 H 0.15557 0.36075 0.17162 0.0
H1838 H 0.13287 0.35693 0.13773 0.0
H1839 H 0.12923 0.35061 0.1908 0.0
C1840 C 0.92915 0.68196 0.13204 0.0
C1841 C 0.94062 0.69516 0.16282 0.0
C1842 C 0.90978 0.66833 0.1403 0.0
C1843 C 0.90155 0.66805 0.18047 0.0
C1844 C 0.91236 0.68274 0.21126 0.0
C1845 C 0.93201 0.69588 0.20216 0.0
C1846 C 0.89883 0.65299 0.10625 0.0
C1847 C 0.90387 0.68382 0.2541 0.0
C1848 C 0.84716 0.6357 0.16939 0.0
C1849 C 0.85392 0.60878 0.16972 0.0
C1850 C 0.8619 0.65624 0.17977 0.0
C1851 C 0.88354 0.64923 0.19003 0.0
C1852 C 0.88887 0.62196 0.19758 0.0
C1853 C 0.87389 0.60194 0.18711 0.0
C1854 C 0.8553 0.68523 0.17403 0.0
C1855 C 0.91151 0.61362 0.21005 0.0
H1856 H 0.93586 0.68134 0.10166 0.0
H1857 H 0.94072 0.70651 0.22587 0.0
H1858 H 0.89873 0.63111 0.11314 0.0
H1859 H 0.88168 0.65957 0.10306 0.0
H1860 H 0.9071 0.65596 0.07667 0.0
H1861 H 0.908 0.7034 0.26861 0.0
H1862 H 0.88598 0.68091 0.25545 0.0
H1863 H 0.91171 0.66769 0.27214 0.0
H1864 H 0.83155 0.64089 0.15629 0.0
H1865 H 0.87882 0.58095 0.18794 0.0
H1866 H 0.86004 0.69189 0.1432 0.0
H1867 H 0.86363 0.6985 0.19627 0.0
H1868 H 0.83742 0.68774 0.17715 0.0
H1869 H 0.92267 0.61561 0.18378 0.0
H1870 H 0.912 0.59237 0.22059 0.0
H1871 H 0.91768 0.62683 0.2346 0.0
C1872 C 0.18466 0.60086 0.44734 0.0
C1873 C 0.19329 0.59985 0.408 0.0
C1874 C 0.16548 0.61523 0.45555 0.0
C1875 C 0.15501 0.62917 0.42374 0.0
C1876 C 0.16321 0.62724 0.38367 0.0
C1877 C 0.18225 0.61263 0.37638 0.0
C1878 C 0.15707 0.6163 0.49846 0.0
C1879 C 0.15252 0.64166 0.34862 0.0
C1880 C 0.10017 0.661 0.41352 0.0
C1881 C 0.10667 0.68799 0.41188 0.0
C1882 C 0.11533 0.64092 0.42356 0.0
C1883 C 0.13712 0.64845 0.43189 0.0
C1884 C 0.14248 0.67598 0.43696 0.0
C1885 C 0.12712 0.69552 0.42656 0.0
C1886 C 0.10882 0.61173 0.41966 0.0
C1887 C 0.16534 0.68492 0.44705 0.0
H1888 H 0.193 0.59059 0.47176 0.0
H1889 H 0.18895 0.61206 0.34601 0.0
H1890 H 0.16378 0.63438 0.51385 0.0
H1891 H 0.13906 0.61768 0.49936 0.0
H1892 H 0.16226 0.5983 0.51591 0.0
H1893 H 0.16051 0.63712 0.31919 0.0
H1894 H 0.13515 0.63579 0.34635 0.0
H1895 H 0.15315 0.66377 0.35368 0.0
H1896 H 0.08424 0.65528 0.40231 0.0
H1897 H 0.13191 0.71657 0.42573 0.0
H1898 H 0.11743 0.59913 0.44228 0.0
H1899 H 0.11332 0.60427 0.38906 0.0
H1900 H 0.09099 0.60911 0.42352 0.0
H1901 H 0.17234 0.6723 0.47143 0.0
H1902 H 0.16589 0.70638 0.45675 0.0
H1903 H 0.1758 0.6826 0.41984 0.0
C1904 C 0.89228 0.38252 0.424 0.0
C1905 C 0.88468 0.35593 0.42267 0.0
C1906 C 0.87809 0.40363 0.43443 0.0
C1907 C 0.85603 0.39767 0.44303 0.0
C1908 C 0.84952 0.37053 0.44833 0.0
C1909 C 0.86403 0.3499 0.43809 0.0
C1910 C 0.88591 0.43233 0.43099 0.0
C1911 C 0.82634 0.3632 0.45873 0.0
C1912 C 0.81 0.44783 0.45831 0.0
C1913 C 0.80185 0.44962 0.41874 0.0
C1914 C 0.82871 0.43251 0.4667 0.0
C1915 C 0.83897 0.41813 0.43489 0.0
C1916 C 0.83121 0.42082 0.39465 0.0
C1917 C 0.81285 0.4366 0.38715 0.0
C1918 C 0.83676 0.43098 0.50977 0.0
C1919 C 0.84152 0.40581 0.35959 0.0
H1920 H 0.90841 0.38717 0.41268 0.0
H1921 H 0.85837 0.32919 0.43791 0.0
H1922 H 0.88168 0.44028 0.40061 0.0
H1923 H 0.87795 0.44536 0.454 0.0
H1924 H 0.90385 0.43367 0.43468 0.0
H1925 H 0.82477 0.3417 0.46765 0.0
H1926 H 0.8202 0.37599 0.48381 0.0
H1927 H 0.81581 0.36674 0.43196 0.0
H1928 H 0.8016 0.4581 0.48276 0.0
H1929 H 0.80643 0.43767 0.3566 0.0
H1930 H 0.85453 0.42715 0.51122 0.0
H1931 H 0.82829 0.4143 0.52558 0.0
H1932 H 0.8331 0.44991 0.52648 0.0
H1933 H 0.85906 0.41087 0.3574 0.0
H1934 H 0.83374 0.41064 0.33012 0.0
H1935 H 0.84022 0.38376 0.36459 0.0
C1936 C 0.06449 0.84752 0.7006 0.0
C1937 C 0.05578 0.84641 0.66135 0.0
C1938 C 0.08349 0.86232 0.70869 0.0
C1939 C 0.09364 0.8766 0.67684 0.0
C1940 C 0.08547 0.87437 0.63679 0.0
C1941 C 0.06665 0.85932 0.62962 0.0
C1942 C 0.09193 0.86355 0.75155 0.0
C1943 C 0.09584 0.88912 0.60167 0.0
C1944 C 0.11898 0.94442 0.67905 0.0
C1945 C 0.13953 0.93804 0.66367 0.0
C1946 C 0.10448 0.92402 0.6901 0.0
C1947 C 0.11085 0.89682 0.685 0.0
C1948 C 0.13284 0.89058 0.67623 0.0
C1949 C 0.14711 0.9115 0.66548 0.0
C1950 C 0.08139 0.93162 0.70077 0.0
C1951 C 0.14045 0.8618 0.67255 0.0
H1952 H 0.05629 0.83714 0.7251 0.0
H1953 H 0.05988 0.85866 0.59932 0.0
H1954 H 0.10983 0.86638 0.75245 0.0
H1955 H 0.08427 0.8808 0.76752 0.0
H1956 H 0.0877 0.84492 0.76844 0.0
H1957 H 0.08797 0.88423 0.57226 0.0
H1958 H 0.09468 0.91121 0.60663 0.0
H1959 H 0.11334 0.88391 0.5994 0.0
H1960 H 0.11338 0.96515 0.67821 0.0
H1961 H 0.16315 0.90669 0.65387 0.0
H1962 H 0.07512 0.91877 0.72559 0.0
H1963 H 0.07079 0.92844 0.67395 0.0
H1964 H 0.08008 0.95309 0.71014 0.0
H1965 H 0.13234 0.84879 0.69532 0.0
H1966 H 0.15836 0.86028 0.67636 0.0
H1967 H 0.13623 0.85396 0.64202 0.0
C1968 C 0.87998 0.09517 0.67986 0.0
C1969 C 0.85908 0.10184 0.66656 0.0
C1970 C 0.89512 0.11532 0.68891 0.0
C1971 C 0.88904 0.14264 0.68416 0.0
C1972 C 0.86696 0.14932 0.67709 0.0
C1973 C 0.85206 0.12864 0.66825 0.0
C1974 C 0.91836 0.10725 0.69743 0.0
C1975 C 0.85971 0.17825 0.6735 0.0
C1976 C 0.93562 0.19177 0.69943 0.0
C1977 C 0.94391 0.19338 0.65989 0.0
C1978 C 0.91679 0.17674 0.70777 0.0
C1979 C 0.90636 0.16269 0.67589 0.0
C1980 C 0.91417 0.16527 0.63565 0.0
C1981 C 0.93282 0.18061 0.62821 0.0
C1982 C 0.90873 0.17506 0.75086 0.0
C1983 C 0.9035 0.15073 0.60056 0.0
H1984 H 0.8852 0.07429 0.67898 0.0
H1985 H 0.8358 0.13372 0.65809 0.0
H1986 H 0.92826 0.11008 0.66963 0.0
H1987 H 0.92549 0.12007 0.72156 0.0
H1988 H 0.91962 0.0858 0.70675 0.0
H1989 H 0.8419 0.18023 0.67835 0.0
H1990 H 0.86838 0.19127 0.69562 0.0
H1991 H 0.86355 0.18573 0.64267 0.0
H1992 H 0.94399 0.20205 0.72391 0.0
H1993 H 0.93926 0.1817 0.59767 0.0
H1994 H 0.91545 0.1567 0.76528 0.0
H1995 H 0.89072 0.17373 0.75211 0.0
H1996 H 0.9141 0.19276 0.76896 0.0
H1997 H 0.90466 0.12861 0.60508 0.0
H1998 H 0.91114 0.15576 0.57103 0.0
H1999 H 0.88598 0.15598 0.59895 0.0
C2000 C 0.68705 0.10706 0.43454 0.0
C2001 C 0.69824 0.10748 0.3975 0.0
C2002 C 0.6671 0.12053 0.43904 0.0
C2003 C 0.65845 0.13491 0.40583 0.0
C2004 C 0.66977 0.13539 0.36842 0.0
C2005 C 0.68952 0.12167 0.36477 0.0
C2006 C 0.65541 0.11947 0.47922 0.0
C2007 C 0.66111 0.15052 0.33213 0.0
C2008 C 0.60124 0.15561 0.38293 0.0
C2009 C 0.60358 0.18363 0.38532 0.0
C2010 C 0.61829 0.13865 0.3949 0.0
C2011 C 0.63786 0.15025 0.40942 0.0
C2012 C 0.63883 0.17823 0.41764 0.0
C2013 C 0.62156 0.19467 0.40542 0.0
C2014 C 0.61643 0.1088 0.38676 0.0
C2015 C 0.65923 0.19135 0.43384 0.0
H2016 H 0.69372 0.09583 0.45976 0.0
H2017 H 0.6983 0.12222 0.33629 0.0
H2018 H 0.65616 0.13955 0.49401 0.0
H2019 H 0.63798 0.11449 0.4748 0.0
H2020 H 0.66272 0.10443 0.50002 0.0
H2021 H 0.67193 0.14872 0.3053 0.0
H2022 H 0.6448 0.14271 0.32375 0.0
H2023 H 0.65927 0.17221 0.33967 0.0
H2024 H 0.58716 0.14704 0.36786 0.0
H2025 H 0.62314 0.21638 0.40796 0.0
H2026 H 0.59915 0.1023 0.38484 0.0
H2027 H 0.62471 0.09695 0.41067 0.0
H2028 H 0.62442 0.10403 0.35745 0.0
H2029 H 0.66679 0.17886 0.45779 0.0
H2030 H 0.65589 0.21175 0.44633 0.0
H2031 H 0.67121 0.19342 0.40888 0.0
C2032 C 0.3089 0.94208 0.44637 0.0
C2033 C 0.30028 0.943 0.40704 0.0
C2034 C 0.328 0.92755 0.45456 0.0
C2035 C 0.33832 0.91328 0.42277 0.0
C2036 C 0.33013 0.91514 0.38272 0.0
C2037 C 0.31124 0.92998 0.37542 0.0
C2038 C 0.33645 0.92669 0.49743 0.0
C2039 C 0.34065 0.90034 0.34769 0.0
C2040 C 0.3926 0.88009 0.41202 0.0
C2041 C 0.38567 0.85324 0.41075 0.0
C2042 C 0.37782 0.9006 0.42223 0.0
C2043 C 0.35595 0.89367 0.43097 0.0
C2044 C 0.35019 0.86631 0.43645 0.0
C2045 C 0.36521 0.84633 0.42603 0.0
C2046 C 0.38478 0.92961 0.4181 0.0
C2047 C 0.32724 0.858 0.44698 0.0
H2048 H 0.30062 0.95253 0.47078 0.0
H2049 H 0.30453 0.93052 0.34507 0.0
H2050 H 0.32925 0.90913 0.51327 0.0
H2051 H 0.35442 0.92458 0.49829 0.0
H2052 H 0.33176 0.94514 0.51447 0.0
H2053 H 0.33264 0.90477 0.31828 0.0
H2054 H 0.35806 0.90599 0.34523 0.0
H2055 H 0.33986 0.87828 0.35292 0.0
H2056 H 0.40856 0.88535 0.40045 0.0
H2057 H 0.36009 0.82539 0.42557 0.0
H2058 H 0.37642 0.94254 0.44075 0.0
H2059 H 0.38034 0.937 0.38751 0.0
H2060 H 0.40266 0.9318 0.42179 0.0
H2061 H 0.3206 0.87086 0.47155 0.0
H2062 H 0.32637 0.83659 0.45664 0.0
H2063 H 0.31667 0.86055 0.42 0.0
C2064 C 0.55192 0.36614 0.6001 0.0
C2065 C 0.54321 0.35218 0.63313 0.0
C2066 C 0.57213 0.37894 0.60287 0.0
C2067 C 0.58392 0.37781 0.6397 0.0
C2068 C 0.57546 0.36327 0.67296 0.0
C2069 C 0.55508 0.35069 0.66935 0.0
C2070 C 0.58058 0.39425 0.56656 0.0
C2071 C 0.58778 0.36131 0.71237 0.0
C2072 C 0.64111 0.40089 0.61885 0.0
C2073 C 0.63841 0.4287 0.62386 0.0
C2074 C 0.6241 0.38313 0.62852 0.0
C2075 C 0.60424 0.39372 0.64348 0.0
C2076 C 0.60273 0.42139 0.65363 0.0
C2077 C 0.61991 0.4386 0.64358 0.0
C2078 C 0.6265 0.35368 0.61799 0.0
C2079 C 0.58196 0.4335 0.66999 0.0
H2080 H 0.54269 0.36748 0.57219 0.0
H2081 H 0.54849 0.33952 0.69472 0.0
H2082 H 0.58234 0.41592 0.5743 0.0
H2083 H 0.5969 0.38665 0.55785 0.0
H2084 H 0.56966 0.39246 0.53989 0.0
H2085 H 0.58005 0.34698 0.73379 0.0
H2086 H 0.60478 0.35479 0.70671 0.0
H2087 H 0.58854 0.38143 0.72703 0.0
H2088 H 0.65549 0.39326 0.60362 0.0
H2089 H 0.61802 0.46017 0.6478 0.0
H2090 H 0.6193 0.34993 0.58766 0.0
H2091 H 0.61781 0.34076 0.64011 0.0
H2092 H 0.64388 0.34758 0.61693 0.0
H2093 H 0.56995 0.43524 0.64504 0.0
H2094 H 0.58469 0.45391 0.68296 0.0
H2095 H 0.57471 0.42046 0.69365 0.0
C2096 C 0.37869 0.59841 0.67503 0.0
C2097 C 0.35769 0.60498 0.66216 0.0
C2098 C 0.39346 0.6186 0.68586 0.0
C2099 C 0.38694 0.64589 0.68317 0.0
C2100 C 0.36474 0.65222 0.67663 0.0
C2101 C 0.3502 0.63149 0.66601 0.0
C2102 C 0.4168 0.61083 0.69397 0.0
C2103 C 0.357 0.68103 0.67545 0.0
C2104 C 0.43337 0.69525 0.69929 0.0
C2105 C 0.44119 0.69781 0.65955 0.0
C2106 C 0.41466 0.67991 0.70759 0.0
C2107 C 0.40392 0.66649 0.67542 0.0
C2108 C 0.41124 0.67008 0.63506 0.0
C2109 C 0.42975 0.68565 0.62771 0.0
C2110 C 0.40714 0.6772 0.75088 0.0
C2111 C 0.40029 0.65622 0.59962 0.0
H2112 H 0.38426 0.57771 0.67263 0.0
H2113 H 0.33384 0.63648 0.65632 0.0
H2114 H 0.4267 0.61472 0.66647 0.0
H2115 H 0.42369 0.62307 0.71901 0.0
H2116 H 0.41838 0.58916 0.70184 0.0
H2117 H 0.33917 0.68237 0.6806 0.0
H2118 H 0.36552 0.69345 0.69853 0.0
H2119 H 0.36062 0.68971 0.64524 0.0
H2120 H 0.44205 0.70493 0.72395 0.0
H2121 H 0.43586 0.68727 0.59701 0.0
H2122 H 0.415 0.65932 0.76468 0.0
H2123 H 0.38925 0.67448 0.75284 0.0
H2124 H 0.41185 0.69514 0.7691 0.0
H2125 H 0.40175 0.63403 0.60283 0.0
H2126 H 0.40752 0.66209 0.57008 0.0
H2127 H 0.38271 0.66121 0.59898 0.0
C2128 C 0.60199 0.65453 0.8787 0.0
C2129 C 0.60446 0.68252 0.88145 0.0
C2130 C 0.61907 0.63739 0.89001 0.0
C2131 C 0.6388 0.64876 0.90417 0.0
C2132 C 0.63998 0.67671 0.91255 0.0
C2133 C 0.62268 0.69333 0.90106 0.0
C2134 C 0.61698 0.60759 0.88165 0.0
C2135 C 0.66059 0.68964 0.92818 0.0
C2136 C 0.68802 0.60565 0.92934 0.0
C2137 C 0.69919 0.60601 0.89228 0.0
C2138 C 0.66802 0.61901 0.93376 0.0
C2139 C 0.65927 0.6332 0.90044 0.0
C2140 C 0.67053 0.63353 0.86296 0.0
C2141 C 0.69034 0.61992 0.85939 0.0
C2142 C 0.65633 0.61804 0.97394 0.0
C2143 C 0.66179 0.64848 0.82658 0.0
H2144 H 0.58774 0.64615 0.86394 0.0
H2145 H 0.62438 0.71502 0.90381 0.0
H2146 H 0.62461 0.60289 0.852 0.0
H2147 H 0.62546 0.59557 0.90511 0.0
H2148 H 0.59965 0.60123 0.88033 0.0
H2149 H 0.65747 0.71005 0.94085 0.0
H2150 H 0.66831 0.67707 0.95185 0.0
H2151 H 0.67237 0.69166 0.90286 0.0
H2152 H 0.69477 0.5946 0.95467 0.0
H2153 H 0.69909 0.62041 0.83088 0.0
H2154 H 0.63922 0.61152 0.96959 0.0
H2155 H 0.65589 0.63849 0.98759 0.0
H2156 H 0.66433 0.60415 0.99565 0.0
H2157 H 0.64544 0.64067 0.81845 0.0
H2158 H 0.67253 0.64651 0.79966 0.0
H2159 H 0.66001 0.67021 0.83389 0.0
C2160 C 0.36596 0.34634 0.9268 0.0
C2161 C 0.38645 0.35308 0.9115 0.0
C2162 C 0.35107 0.36645 0.93725 0.0
C2163 C 0.35699 0.39377 0.93178 0.0
C2164 C 0.37889 0.4005 0.92306 0.0
C2165 C 0.39355 0.37986 0.91283 0.0
C2166 C 0.32807 0.35834 0.94778 0.0
C2167 C 0.38603 0.42944 0.91896 0.0
C2168 C 0.31242 0.43031 0.87619 0.0
C2169 C 0.30149 0.44333 0.90783 0.0
C2170 C 0.33129 0.41541 0.88349 0.0
C2171 C 0.33947 0.41351 0.92355 0.0
C2172 C 0.32919 0.42783 0.95533 0.0
C2173 C 0.31012 0.44241 0.94714 0.0
C2174 C 0.34177 0.40057 0.84846 0.0
C2175 C 0.33763 0.42694 0.9982 0.0
H2176 H 0.36072 0.32545 0.9263 0.0
H2177 H 0.40954 0.38498 0.90125 0.0
H2178 H 0.32151 0.37124 0.97236 0.0
H2179 H 0.31751 0.36099 0.9208 0.0
H2180 H 0.32708 0.33693 0.95741 0.0
H2181 H 0.40391 0.43148 0.92271 0.0
H2182 H 0.38166 0.43687 0.88835 0.0
H2183 H 0.37772 0.44244 0.94158 0.0
H2184 H 0.30571 0.43086 0.84584 0.0
H2185 H 0.30186 0.45288 0.97156 0.0
H2186 H 0.3409 0.37851 0.85368 0.0
H2187 H 0.3592 0.40613 0.84603 0.0
H2188 H 0.33379 0.40506 0.81905 0.0
H2189 H 0.33033 0.40947 1.01409 0.0
H2190 H 0.33304 0.44545 1.0152 0.0
H2191 H 0.35559 0.42469 0.99908 0.0
C2192 C 0.55507 0.84693 0.16913 0.0
C2193 C 0.54314 0.84923 0.13309 0.0
C2194 C 0.5756 0.85912 0.17304 0.0
C2195 C 0.58407 0.87419 0.14033 0.0
C2196 C 0.57226 0.87601 0.10358 0.0
C2197 C 0.55195 0.86349 0.10046 0.0
C2198 C 0.58798 0.85628 0.21225 0.0
C2199 C 0.58073 0.89189 0.06785 0.0
C2200 C 0.6195 0.9353 0.14668 0.0
C2201 C 0.63797 0.92607 0.12614 0.0
C2202 C 0.60256 0.91763 0.15627 0.0
C2203 C 0.60429 0.8902 0.14484 0.0
C2204 C 0.62419 0.8802 0.12917 0.0
C2205 C 0.64095 0.89841 0.11995 0.0
C2206 C 0.58173 0.92912 0.1734 0.0
C2207 C 0.62684 0.85099 0.1174 0.0
H2208 H 0.5484 0.8355 0.19416 0.0
H2209 H 0.54268 0.86538 0.07268 0.0
H2210 H 0.60511 0.85045 0.20618 0.0
H2211 H 0.58833 0.87594 0.22833 0.0
H2212 H 0.58052 0.84107 0.23261 0.0
H2213 H 0.56977 0.89062 0.04117 0.0
H2214 H 0.58258 0.91341 0.07642 0.0
H2215 H 0.59701 0.88435 0.05876 0.0
H2216 H 0.61741 0.95675 0.15183 0.0
H2217 H 0.65532 0.8913 0.10413 0.0
H2218 H 0.57472 0.91556 0.19662 0.0
H2219 H 0.5696 0.93112 0.14869 0.0
H2220 H 0.5843 0.94934 0.18715 0.0
H2221 H 0.6182 0.83754 0.13885 0.0
H2222 H 0.64428 0.84514 0.11624 0.0
H2223 H 0.61978 0.84773 0.08684 0.0
C2224 C 0.43302 0.19442 0.19842 0.0
C2225 C 0.44099 0.19683 0.15875 0.0
C2226 C 0.41427 0.17916 0.20658 0.0
C2227 C 0.40362 0.16568 0.17437 0.0
C2228 C 0.4111 0.1691 0.13407 0.0
C2229 C 0.42966 0.1846 0.12685 0.0
C2230 C 0.40658 0.17659 0.24979 0.0
C2231 C 0.40024 0.15518 0.09859 0.0
C2232 C 0.37804 0.09779 0.17416 0.0
C2233 C 0.35711 0.1045 0.16106 0.0
C2234 C 0.39289 0.1179 0.18498 0.0
C2235 C 0.38651 0.14523 0.18204 0.0
C2236 C 0.36436 0.15172 0.17524 0.0
C2237 C 0.34975 0.13108 0.16466 0.0
C2238 C 0.41617 0.10998 0.19334 0.0
C2239 C 0.35679 0.1806 0.17374 0.0
H2240 H 0.44161 0.20417 0.22312 0.0
H2241 H 0.43589 0.18613 0.09622 0.0
H2242 H 0.38866 0.17411 0.25154 0.0
H2243 H 0.41422 0.1586 0.2637 0.0
H2244 H 0.41138 0.19447 0.26805 0.0
H2245 H 0.4076 0.16092 0.0691 0.0
H2246 H 0.40161 0.133 0.10198 0.0
H2247 H 0.38268 0.16026 0.09768 0.0
H2248 H 0.38351 0.07705 0.17193 0.0
H2249 H 0.33344 0.13617 0.15478 0.0
H2250 H 0.42307 0.12226 0.21831 0.0
H2251 H 0.42615 0.11366 0.16587 0.0
H2252 H 0.41761 0.08832 0.20142 0.0
H2253 H 0.3653 0.19302 0.19682 0.0
H2254 H 0.33895 0.1821 0.17866 0.0
H2255 H 0.36056 0.18913 0.1435 0.0
loop_
_geom_bond_atom_site_label_1
_geom_bond_atom_site_label_2
_geom_bond_distance
_geom_bond_site_symmetry_2
_ccdc_geom_bond_type
O0 Tb1 2.292 . S
O0 C3 1.255 . S
Tb1 O0 2.292 . S
Tb1 O17 2.326 . S
Tb1 O19 2.500 . S
Tb1 O20 2.473 . S
Tb1 O23 2.324 1_554 S
Eu2 O6 2.292 . S
Eu2 C7 2.852 1_554 S
Eu2 O18 2.324 . S
Eu2 O22 2.326 1_554 S
Eu2 O24 2.500 1_554 S
Eu2 O25 2.473 . S
C3 O0 1.255 . S
C3 O4 1.248 1_545 S
O4 C3 1.248 1_565 S
C5 O17 1.242 . S
C5 O18 1.258 . S
O6 Eu2 2.292 . S
O6 C8 1.255 . S
C7 Eu2 2.852 1_556 S
C7 C11 1.503 . S
C7 O24 1.273 . S
C7 O25 1.257 1_556 S
C8 O6 1.255 . S
C8 O9 1.247 . S
O9 C8 1.247 . S
C10 O22 1.242 . S
C10 O23 1.258 . S
C11 C7 1.503 . S
C11 C12 1.379 . S
C11 C16 1.392 . S
C12 C11 1.379 . S
C12 C13 1.404 . S
C12 H26 0.929 . S
C13 C12 1.404 . S
C13 C14 1.389 . S
C14 C13 1.389 . S
C14 C15 1.399 . S
C14 H27 0.931 . S
C15 C14 1.399 . S
C15 C16 1.390 . S
C16 C11 1.392 . S
C16 C15 1.390 . S
C16 H28 0.929 . S
O17 Tb1 2.326 . S
O17 C5 1.242 . S
O18 Eu2 2.324 . S
O18 C5 1.258 . S
O19 Tb1 2.500 . S
O19 C21 1.273 . S
O20 Tb1 2.473 . S
O20 C21 1.257 . S
C21 O19 1.273 . S
C21 O20 1.257 . S
O22 Eu2 2.326 1_556 S
O22 C10 1.242 . S
O23 Tb1 2.324 1_556 S
O23 C10 1.258 . S
O24 Eu2 2.500 1_556 S
O24 C7 1.273 . S
O25 Eu2 2.473 . S
O25 C7 1.257 1_554 S
H26 C12 0.929 . S
H27 C14 0.931 . S
H28 C16 0.929 . S
O29 Tb30 2.292 . S
O29 C32 1.255 . S
Tb30 O29 2.292 . S
Tb30 O46 2.326 . S
Tb30 O48 2.500 . S
Tb30 O49 2.473 . S
Tb30 O52 2.324 1_554 S
Eu31 O35 2.292 . S
Eu31 C36 2.852 1_554 S
Eu31 O47 2.324 . S
Eu31 O51 2.326 1_554 S
Eu31 O53 2.500 1_554 S
Eu31 O54 2.473 . S
C32 O29 1.255 . S
C32 O33 1.248 1_565 S
O33 C32 1.248 1_545 S
C34 O46 1.242 . S
C34 O47 1.258 . S
O35 Eu31 2.292 . S
O35 C37 1.255 . S
C36 Eu31 2.852 1_556 S
C36 C40 1.503 . S
C36 O53 1.273 . S
C36 O54 1.257 1_556 S
C37 O35 1.255 . S
C37 O38 1.247 . S
O38 C37 1.247 . S
C39 O51 1.242 . S
C39 O52 1.258 . S
C40 C36 1.503 . S
C40 C41 1.379 . S
C40 C45 1.392 . S
C41 C40 1.379 . S
C41 C42 1.404 . S
C41 H55 0.929 . S
C42 C41 1.404 . S
C42 C43 1.389 . S
C43 C42 1.389 . S
C43 C44 1.399 . S
C43 H56 0.931 . S
C44 C43 1.399 . S
C44 C45 1.390 . S
C45 C40 1.392 . S
C45 C44 1.390 . S
C45 H57 0.929 . S
O46 Tb30 2.326 . S
O46 C34 1.242 . S
O47 Eu31 2.324 . S
O47 C34 1.258 . S
O48 Tb30 2.500 . S
O48 C50 1.273 . S
O49 Tb30 2.473 . S
O49 C50 1.257 . S
C50 O48 1.273 . S
C50 O49 1.257 . S
O51 Eu31 2.326 1_556 S
O51 C39 1.242 . S
O52 Tb30 2.324 1_556 S
O52 C39 1.258 . S
O53 Eu31 2.500 1_556 S
O53 C36 1.273 . S
O54 Eu31 2.473 . S
O54 C36 1.257 1_554 S
H55 C41 0.929 . S
H56 C43 0.931 . S
H57 C45 0.929 . S
O58 Tb59 2.292 . S
O58 C61 1.255 . S
Tb59 O58 2.292 . S
Tb59 O75 2.326 . S
Tb59 O77 2.500 . S
Tb59 O78 2.473 . S
Tb59 O81 2.324 . S
Eu60 O64 2.292 . S
Eu60 C65 2.852 . S
Eu60 O76 2.324 . S
Eu60 O80 2.326 . S
Eu60 O82 2.484 1_655 S
Eu60 O83 2.473 . S
C61 O58 1.255 . S
C61 O62 1.247 . S
O62 C61 1.247 . S
C63 O75 1.242 . S
C63 O76 1.258 . S
O64 Eu60 2.292 . S
O64 C66 1.255 . S
C65 Eu60 2.852 . S
C65 C69 1.503 1_655 S
C65 O82 1.268 1_655 S
C65 O83 1.257 . S
C66 O64 1.255 . S
C66 O67 1.247 . S
O67 C66 1.247 . S
C68 O80 1.242 . S
C68 O81 1.258 . S
C69 C65 1.503 1_455 S
C69 C70 1.379 1_455 S
C69 C74 1.392 . S
C70 C69 1.379 1_655 S
C70 C71 1.404 1_655 S
C70 H84 0.929 . S
C71 C70 1.404 1_455 S
C71 C72 1.389 . S
C72 C71 1.389 . S
C72 C73 1.399 . S
C72 H85 0.931 . S
C73 C72 1.399 . S
C73 C74 1.390 . S
C74 C69 1.392 . S
C74 C73 1.390 . S
C74 H86 0.929 . S
O75 Tb59 2.326 . S
O75 C63 1.242 . S
O76 Eu60 2.324 . S
O76 C63 1.258 . S
O77 Tb59 2.500 . S
O77 C79 1.273 . S
O78 Tb59 2.473 . S
O78 C79 1.257 . S
C79 O77 1.273 . S
C79 O78 1.257 . S
O80 Eu60 2.326 . S
O80 C68 1.242 . S
O81 Tb59 2.324 . S
O81 C68 1.258 . S
O82 Eu60 2.484 1_455 S
O82 C65 1.268 1_455 S
O83 Eu60 2.473 . S
O83 C65 1.257 . S
H84 C70 0.929 . S
H85 C72 0.931 . S
H86 C74 0.929 . S
O87 Tb88 2.292 . S
O87 C90 1.255 . S
Tb88 O87 2.292 . S
Tb88 O104 2.326 . S
Tb88 O106 2.500 . S
Tb88 O107 2.473 . S
Tb88 O110 2.324 . S
Eu89 O93 2.292 . S
Eu89 C94 2.852 . S
Eu89 O105 2.324 . S
Eu89 O109 2.326 . S
Eu89 O111 2.484 1_455 S
Eu89 O112 2.473 . S
C90 O87 1.255 . S
C90 O91 1.247 . S
O91 C90 1.247 . S
C92 O104 1.242 . S
C92 O105 1.258 . S
O93 Eu89 2.292 . S
O93 C95 1.255 . S
C94 Eu89 2.852 . S
C94 C98 1.503 1_455 S
C94 O111 1.268 1_455 S
C94 O112 1.257 . S
C95 O93 1.255 . S
C95 O96 1.247 . S
O96 C95 1.247 . S
C97 O109 1.242 . S
C97 O110 1.258 . S
C98 C94 1.503 1_655 S
C98 C99 1.379 1_655 S
C98 C103 1.392 . S
C99 C98 1.379 1_455 S
C99 C100 1.404 1_455 S
C99 H113 0.929 . S
C100 C99 1.404 1_655 S
C100 C101 1.389 . S
C101 C100 1.389 . S
C101 C102 1.399 . S
C101 H114 0.931 . S
C102 C101 1.399 . S
C102 C103 1.390 . S
C103 C98 1.392 . S
C103 C102 1.390 . S
C103 H115 0.929 . S
O104 Tb88 2.326 . S
O104 C92 1.242 . S
O105 Eu89 2.324 . S
O105 C92 1.258 . S
O106 Tb88 2.500 . S
O106 C108 1.273 . S
O107 Tb88 2.473 . S
O107 C108 1.257 . S
C108 O106 1.273 . S
C108 O107 1.257 . S
O109 Eu89 2.326 . S
O109 C97 1.242 . S
O110 Tb88 2.324 . S
O110 C97 1.258 . S
O111 Eu89 2.484 1_655 S
O111 C94 1.268 1_655 S
O112 Eu89 2.473 . S
O112 C94 1.257 . S
H113 C99 0.929 . S
H114 C101 0.931 . S
H115 C103 0.929 . S
O116 Tb117 2.292 . S
O116 C119 1.255 . S
Tb117 O116 2.292 . S
Tb117 O133 2.326 . S
Tb117 O135 2.500 . S
Tb117 O136 2.473 . S
Tb117 O139 2.324 . S
Eu118 O122 2.292 . S
Eu118 C123 2.852 . S
Eu118 O134 2.324 . S
Eu118 O138 2.326 . S
Eu118 O140 2.500 . S
Eu118 O141 2.473 . S
C119 O116 1.255 . S
C119 O120 1.247 . S
O120 C119 1.247 . S
C121 O133 1.242 . S
C121 O134 1.258 . S
O122 Eu118 2.292 . S
O122 C124 1.255 . S
C123 Eu118 2.852 . S
C123 C127 1.503 . S
C123 O140 1.273 . S
C123 O141 1.257 . S
C124 O122 1.255 . S
C124 O125 1.247 . S
O125 C124 1.247 . S
C126 O138 1.242 . S
C126 O139 1.258 . S
C127 C123 1.503 . S
C127 C128 1.379 . S
C127 C132 1.392 . S
C128 C127 1.379 . S
C128 C129 1.404 . S
C128 H142 0.929 . S
C129 C128 1.404 . S
C129 C130 1.389 . S
C130 C129 1.389 . S
C130 C131 1.399 . S
C130 H143 0.931 . S
C131 C130 1.399 . S
C131 C132 1.390 . S
C132 C127 1.392 . S
C132 C131 1.390 . S
C132 H144 0.929 . S
O133 Tb117 2.326 . S
O133 C121 1.242 . S
O134 Eu118 2.324 . S
O134 C121 1.258 . S
O135 Tb117 2.500 . S
O135 C137 1.273 . S
O136 Tb117 2.473 . S
O136 C137 1.257 . S
C137 O135 1.273 . S
C137 O136 1.257 . S
O138 Eu118 2.326 . S
O138 C126 1.242 . S
O139 Tb117 2.324 . S
O139 C126 1.258 . S
O140 Eu118 2.500 . S
O140 C123 1.273 . S
O141 Eu118 2.473 . S
O141 C123 1.257 . S
H142 C128 0.929 . S
H143 C130 0.931 . S
H144 C132 0.929 . S
O145 Tb146 2.292 . S
O145 C148 1.255 . S
Tb146 O145 2.292 . S
Tb146 O162 2.326 . S
Tb146 O164 2.500 . S
Tb146 O165 2.473 . S
Tb146 O168 2.324 . S
Eu147 O151 2.292 . S
Eu147 C152 2.852 . S
Eu147 O163 2.324 . S
Eu147 O167 2.326 . S
Eu147 O169 2.500 . S
Eu147 O170 2.473 . S
C148 O145 1.255 . S
C148 O149 1.247 . S
O149 C148 1.247 . S
C150 O162 1.242 . S
C150 O163 1.258 . S
O151 Eu147 2.292 . S
O151 C153 1.255 . S
C152 Eu147 2.852 . S
C152 C156 1.503 . S
C152 O169 1.273 . S
C152 O170 1.257 . S
C153 O151 1.255 . S
C153 O154 1.247 . S
O154 C153 1.247 . S
C155 O167 1.242 . S
C155 O168 1.258 . S
C156 C152 1.503 . S
C156 C157 1.379 . S
C156 C161 1.392 . S
C157 C156 1.379 . S
C157 C158 1.404 . S
C157 H171 0.929 . S
C158 C157 1.404 . S
C158 C159 1.389 . S
C159 C158 1.389 . S
C159 C160 1.399 . S
C159 H172 0.931 . S
C160 C159 1.399 . S
C160 C161 1.390 . S
C161 C156 1.392 . S
C161 C160 1.390 . S
C161 H173 0.929 . S
O162 Tb146 2.326 . S
O162 C150 1.242 . S
O163 Eu147 2.324 . S
O163 C150 1.258 . S
O164 Tb146 2.500 . S
O164 C166 1.273 . S
O165 Tb146 2.473 . S
O165 C166 1.257 . S
C166 O164 1.273 . S
C166 O165 1.257 . S
O167 Eu147 2.326 . S
O167 C155 1.242 . S
O168 Tb146 2.324 . S
O168 C155 1.258 . S
O169 Eu147 2.500 . S
O169 C152 1.273 . S
O170 Eu147 2.473 . S
O170 C152 1.257 . S
H171 C157 0.929 . S
H172 C159 0.931 . S
H173 C161 0.929 . S
O174 Tb175 2.292 . S
O174 C177 1.255 . S
Tb175 O174 2.292 . S
Tb175 O191 2.326 . S
Tb175 O193 2.500 . S
Tb175 O194 2.473 . S
Tb175 O197 2.324 . S
Eu176 O180 2.292 . S
Eu176 C181 2.852 . S
Eu176 O192 2.324 . S
Eu176 O196 2.326 . S
Eu176 O198 2.484 1_655 S
Eu176 O199 2.473 . S
C177 O174 1.255 . S
C177 O178 1.247 . S
O178 C177 1.247 . S
C179 O191 1.242 . S
C179 O192 1.258 . S
O180 Eu176 2.292 . S
O180 C182 1.255 . S
C181 Eu176 2.852 . S
C181 C185 1.503 1_655 S
C181 O198 1.268 1_655 S
C181 O199 1.257 . S
C182 O180 1.255 . S
C182 O183 1.247 . S
O183 C182 1.247 . S
C184 O196 1.242 . S
C184 O197 1.258 . S
C185 C181 1.503 1_455 S
C185 C186 1.379 1_455 S
C185 C190 1.392 . S
C186 C185 1.379 1_655 S
C186 C187 1.404 1_655 S
C186 H200 0.929 . S
C187 C186 1.404 1_455 S
C187 C188 1.389 . S
C188 C187 1.389 . S
C188 C189 1.399 . S
C188 H201 0.931 . S
C189 C188 1.399 . S
C189 C190 1.390 . S
C190 C185 1.392 . S
C190 C189 1.390 . S
C190 H202 0.929 . S
O191 Tb175 2.326 . S
O191 C179 1.242 . S
O192 Eu176 2.324 . S
O192 C179 1.258 . S
O193 Tb175 2.500 . S
O193 C195 1.273 . S
O194 Tb175 2.473 . S
O194 C195 1.257 . S
C195 O193 1.273 . S
C195 O194 1.257 . S
O196 Eu176 2.326 . S
O196 C184 1.242 . S
O197 Tb175 2.324 . S
O197 C184 1.258 . S
O198 Eu176 2.484 1_455 S
O198 C181 1.268 1_455 S
O199 Eu176 2.473 . S
O199 C181 1.257 . S
H200 C186 0.929 . S
H201 C188 0.931 . S
H202 C190 0.929 . S
O203 Tb204 2.292 . S
O203 C206 1.255 . S
Tb204 O203 2.292 . S
Tb204 O220 2.326 . S
Tb204 O222 2.500 . S
Tb204 O223 2.473 . S
Tb204 O226 2.324 . S
Eu205 O209 2.292 . S
Eu205 C210 2.852 . S
Eu205 O221 2.324 . S
Eu205 O225 2.326 . S
Eu205 O227 2.484 1_455 S
Eu205 O228 2.473 . S
C206 O203 1.255 . S
C206 O207 1.247 . S
O207 C206 1.247 . S
C208 O220 1.242 . S
C208 O221 1.258 . S
O209 Eu205 2.292 . S
O209 C211 1.255 . S
C210 Eu205 2.852 . S
C210 C214 1.503 1_455 S
C210 O227 1.268 1_455 S
C210 O228 1.257 . S
C211 O209 1.255 . S
C211 O212 1.247 . S
O212 C211 1.247 . S
C213 O225 1.242 . S
C213 O226 1.258 . S
C214 C210 1.503 1_655 S
C214 C215 1.379 1_655 S
C214 C219 1.392 . S
C215 C214 1.379 1_455 S
C215 C216 1.404 1_455 S
C215 H229 0.929 . S
C216 C215 1.404 1_655 S
C216 C217 1.389 . S
C217 C216 1.389 . S
C217 C218 1.399 . S
C217 H230 0.931 . S
C218 C217 1.399 . S
C218 C219 1.390 . S
C219 C214 1.392 . S
C219 C218 1.390 . S
C219 H231 0.929 . S
O220 Tb204 2.326 . S
O220 C208 1.242 . S
O221 Eu205 2.324 . S
O221 C208 1.258 . S
O222 Tb204 2.500 . S
O222 C224 1.273 . S
O223 Tb204 2.473 . S
O223 C224 1.257 . S
C224 O222 1.273 . S
C224 O223 1.257 . S
O225 Eu205 2.326 . S
O225 C213 1.242 . S
O226 Tb204 2.324 . S
O226 C213 1.258 . S
O227 Eu205 2.484 1_655 S
O227 C210 1.268 1_655 S
O228 Eu205 2.473 . S
O228 C210 1.257 . S
H229 C215 0.929 . S
H230 C217 0.931 . S
H231 C219 0.929 . S
O232 Tb233 2.292 . S
O232 C235 1.255 . S
Tb233 O232 2.292 . S
Tb233 O249 2.326 . S
Tb233 O251 2.500 . S
Tb233 O252 2.473 . S
Tb233 O255 2.324 . S
Eu234 O238 2.292 . S
Eu234 C239 2.852 . S
Eu234 O250 2.324 . S
Eu234 O254 2.326 . S
Eu234 O256 2.500 . S
Eu234 O257 2.473 . S
C235 O232 1.255 . S
C235 O236 1.248 1_545 S
O236 C235 1.248 1_565 S
C237 O249 1.242 . S
C237 O250 1.258 . S
O238 Eu234 2.292 . S
O238 C240 1.255 . S
C239 Eu234 2.852 . S
C239 C243 1.503 . S
C239 O256 1.273 . S
C239 O257 1.257 . S
C240 O238 1.255 . S
C240 O241 1.247 . S
O241 C240 1.247 . S
C242 O254 1.242 . S
C242 O255 1.258 . S
C243 C239 1.503 . S
C243 C244 1.379 . S
C243 C248 1.392 . S
C244 C243 1.379 . S
C244 C245 1.404 . S
C244 H258 0.929 . S
C245 C244 1.404 . S
C245 C246 1.389 . S
C246 C245 1.389 . S
C246 C247 1.399 . S
C246 H259 0.931 . S
C247 C246 1.399 . S
C247 C248 1.390 . S
C248 C243 1.392 . S
C248 C247 1.390 . S
C248 H260 0.929 . S
O249 Tb233 2.326 . S
O249 C237 1.242 . S
O250 Eu234 2.324 . S
O250 C237 1.258 . S
O251 Tb233 2.500 . S
O251 C253 1.273 . S
O252 Tb233 2.473 . S
O252 C253 1.257 . S
C253 O251 1.273 . S
C253 O252 1.257 . S
O254 Eu234 2.326 . S
O254 C242 1.242 . S
O255 Tb233 2.324 . S
O255 C242 1.258 . S
O256 Eu234 2.500 . S
O256 C239 1.273 . S
O257 Eu234 2.473 . S
O257 C239 1.257 . S
H258 C244 0.929 . S
H259 C246 0.931 . S
H260 C248 0.929 . S
O261 Tb262 2.292 . S
O261 C264 1.255 . S
Tb262 O261 2.292 . S
Tb262 O278 2.326 . S
Tb262 O280 2.500 . S
Tb262 O281 2.473 . S
Tb262 O284 2.324 . S
Eu263 O267 2.292 . S
Eu263 C268 2.852 . S
Eu263 O279 2.324 . S
Eu263 O283 2.326 . S
Eu263 O285 2.500 . S
Eu263 O286 2.473 . S
C264 O261 1.255 . S
C264 O265 1.248 1_565 S
O265 C264 1.248 1_545 S
C266 O278 1.242 . S
C266 O279 1.258 . S
O267 Eu263 2.292 . S
O267 C269 1.255 . S
C268 Eu263 2.852 . S
C268 C272 1.503 . S
C268 O285 1.273 . S
C268 O286 1.257 . S
C269 O267 1.255 . S
C269 O270 1.247 . S
O270 C269 1.247 . S
C271 O283 1.242 . S
C271 O284 1.258 . S
C272 C268 1.503 . S
C272 C273 1.379 . S
C272 C277 1.392 . S
C273 C272 1.379 . S
C273 C274 1.404 . S
C273 H287 0.929 . S
C274 C273 1.404 . S
C274 C275 1.389 . S
C275 C274 1.389 . S
C275 C276 1.399 . S
C275 H288 0.931 . S
C276 C275 1.399 . S
C276 C277 1.390 . S
C277 C272 1.392 . S
C277 C276 1.390 . S
C277 H289 0.929 . S
O278 Tb262 2.326 . S
O278 C266 1.242 . S
O279 Eu263 2.324 . S
O279 C266 1.258 . S
O280 Tb262 2.500 . S
O280 C282 1.273 . S
O281 Tb262 2.473 . S
O281 C282 1.257 . S
C282 O280 1.273 . S
C282 O281 1.257 . S
O283 Eu263 2.326 . S
O283 C271 1.242 . S
O284 Tb262 2.324 . S
O284 C271 1.258 . S
O285 Eu263 2.500 . S
O285 C268 1.273 . S
O286 Eu263 2.473 . S
O286 C268 1.257 . S
H287 C273 0.929 . S
H288 C275 0.931 . S
H289 C277 0.929 . S
O290 Tb291 2.292 . S
O290 C293 1.255 . S
Tb291 O290 2.292 . S
Tb291 O307 2.326 . S
Tb291 O309 2.500 . S
Tb291 O310 2.473 . S
Tb291 O313 2.324 . S
Eu292 O296 2.292 . S
Eu292 C297 2.852 . S
Eu292 O308 2.324 . S
Eu292 O312 2.326 . S
Eu292 O314 2.500 . S
Eu292 O315 2.473 . S
C293 O290 1.255 . S
C293 O294 1.247 . S
O294 C293 1.247 . S
C295 O307 1.242 . S
C295 O308 1.258 . S
O296 Eu292 2.292 . S
O296 C298 1.255 . S
C297 Eu292 2.852 . S
C297 C301 1.503 . S
C297 O314 1.273 . S
C297 O315 1.257 . S
C298 O296 1.255 . S
C298 O299 1.247 . S
O299 C298 1.247 . S
C300 O312 1.242 . S
C300 O313 1.258 . S
C301 C297 1.503 . S
C301 C302 1.379 . S
C301 C306 1.392 . S
C302 C301 1.379 . S
C302 C303 1.404 . S
C302 H316 0.929 . S
C303 C302 1.404 . S
C303 C304 1.389 . S
C304 C303 1.389 . S
C304 C305 1.399 . S
C304 H317 0.931 . S
C305 C304 1.399 . S
C305 C306 1.390 . S
C306 C301 1.392 . S
C306 C305 1.390 . S
C306 H318 0.929 . S
O307 Tb291 2.326 . S
O307 C295 1.242 . S
O308 Eu292 2.324 . S
O308 C295 1.258 . S
O309 Tb291 2.500 . S
O309 C311 1.273 . S
O310 Tb291 2.473 . S
O310 C311 1.257 . S
C311 O309 1.273 . S
C311 O310 1.257 . S
O312 Eu292 2.326 . S
O312 C300 1.242 . S
O313 Tb291 2.324 . S
O313 C300 1.258 . S
O314 Eu292 2.500 . S
O314 C297 1.273 . S
O315 Eu292 2.473 . S
O315 C297 1.257 . S
H316 C302 0.929 . S
H317 C304 0.931 . S
H318 C306 0.929 . S
O319 Tb320 2.292 . S
O319 C322 1.255 . S
Tb320 O319 2.292 . S
Tb320 O336 2.326 . S
Tb320 O338 2.500 . S
Tb320 O339 2.473 . S
Tb320 O342 2.324 . S
Eu321 O325 2.292 . S
Eu321 C326 2.852 . S
Eu321 O337 2.324 . S
Eu321 O341 2.326 . S
Eu321 O343 2.500 . S
Eu321 O344 2.473 . S
C322 O319 1.255 . S
C322 O323 1.247 . S
O323 C322 1.247 . S
C324 O336 1.242 . S
C324 O337 1.258 . S
O325 Eu321 2.292 . S
O325 C327 1.255 . S
C326 Eu321 2.852 . S
C326 C330 1.503 . S
C326 O343 1.273 . S
C326 O344 1.257 . S
C327 O325 1.255 . S
C327 O328 1.247 . S
O328 C327 1.247 . S
C329 O341 1.242 . S
C329 O342 1.258 . S
C330 C326 1.503 . S
C330 C331 1.379 . S
C330 C335 1.392 . S
C331 C330 1.379 . S
C331 C332 1.404 . S
C331 H345 0.929 . S
C332 C331 1.404 . S
C332 C333 1.389 . S
C333 C332 1.389 . S
C333 C334 1.399 . S
C333 H346 0.931 . S
C334 C333 1.399 . S
C334 C335 1.390 . S
C335 C330 1.392 . S
C335 C334 1.390 . S
C335 H347 0.929 . S
O336 Tb320 2.326 . S
O336 C324 1.242 . S
O337 Eu321 2.324 . S
O337 C324 1.258 . S
O338 Tb320 2.500 . S
O338 C340 1.273 . S
O339 Tb320 2.473 . S
O339 C340 1.257 . S
C340 O338 1.273 . S
C340 O339 1.257 . S
O341 Eu321 2.326 . S
O341 C329 1.242 . S
O342 Tb320 2.324 . S
O342 C329 1.258 . S
O343 Eu321 2.500 . S
O343 C326 1.273 . S
O344 Eu321 2.473 . S
O344 C326 1.257 . S
H345 C331 0.929 . S
H346 C333 0.931 . S
H347 C335 0.929 . S
O348 Tb349 2.292 . S
O348 C351 1.255 . S
Tb349 O348 2.292 . S
Tb349 O365 2.326 . S
Tb349 O367 2.500 . S
Tb349 O368 2.473 . S
Tb349 O371 2.324 1_554 S
Eu350 O354 2.292 . S
Eu350 C355 2.852 1_554 S
Eu350 O366 2.324 . S
Eu350 O370 2.326 1_554 S
Eu350 O372 2.500 1_554 S
Eu350 O373 2.473 . S
C351 O348 1.255 . S
C351 O352 1.247 . S
O352 C351 1.247 . S
C353 O365 1.242 . S
C353 O366 1.258 . S
O354 Eu350 2.292 . S
O354 C356 1.255 . S
C355 Eu350 2.852 1_556 S
C355 C359 1.503 . S
C355 O372 1.273 . S
C355 O373 1.257 1_556 S
C356 O354 1.255 . S
C356 O357 1.247 . S
O357 C356 1.247 . S
C358 O370 1.242 . S
C358 O371 1.258 . S
C359 C355 1.503 . S
C359 C360 1.379 . S
C359 C364 1.392 . S
C360 C359 1.379 . S
C360 C361 1.404 . S
C360 H374 0.929 . S
C361 C360 1.404 . S
C361 C362 1.389 . S
C362 C361 1.389 . S
C362 C363 1.399 . S
C362 H375 0.931 . S
C363 C362 1.399 . S
C363 C364 1.390 . S
C364 C359 1.392 . S
C364 C363 1.390 . S
C364 H376 0.929 . S
O365 Tb349 2.326 . S
O365 C353 1.242 . S
O366 Eu350 2.324 . S
O366 C353 1.258 . S
O367 Tb349 2.500 . S
O367 C369 1.273 . S
O368 Tb349 2.473 . S
O368 C369 1.257 . S
C369 O367 1.273 . S
C369 O368 1.257 . S
O370 Eu350 2.326 1_556 S
O370 C358 1.242 . S
O371 Tb349 2.324 1_556 S
O371 C358 1.258 . S
O372 Eu350 2.500 1_556 S
O372 C355 1.273 . S
O373 Eu350 2.473 . S
O373 C355 1.257 1_554 S
H374 C360 0.929 . S
H375 C362 0.931 . S
H376 C364 0.929 . S
O377 Tb378 2.292 . S
O377 C380 1.255 . S
Tb378 O377 2.292 . S
Tb378 O394 2.326 . S
Tb378 O396 2.500 . S
Tb378 O397 2.473 . S
Tb378 O400 2.324 1_554 S
Eu379 O383 2.292 . S
Eu379 C384 2.852 1_554 S
Eu379 O395 2.324 . S
Eu379 O399 2.326 1_554 S
Eu379 O401 2.500 1_554 S
Eu379 O402 2.473 . S
C380 O377 1.255 . S
C380 O381 1.247 . S
O381 C380 1.247 . S
C382 O394 1.242 . S
C382 O395 1.258 . S
O383 Eu379 2.292 . S
O383 C385 1.255 . S
C384 Eu379 2.852 1_556 S
C384 C388 1.503 . S
C384 O401 1.273 . S
C384 O402 1.257 1_556 S
C385 O383 1.255 . S
C385 O386 1.247 . S
O386 C385 1.247 . S
C387 O399 1.242 . S
C387 O400 1.258 . S
C388 C384 1.503 . S
C388 C389 1.379 . S
C388 C393 1.392 . S
C389 C388 1.379 . S
C389 C390 1.404 . S
C389 H403 0.929 . S
C390 C389 1.404 . S
C390 C391 1.389 . S
C391 C390 1.389 . S
C391 C392 1.399 . S
C391 H404 0.931 . S
C392 C391 1.399 . S
C392 C393 1.390 . S
C393 C388 1.392 . S
C393 C392 1.390 . S
C393 H405 0.929 . S
O394 Tb378 2.326 . S
O394 C382 1.242 . S
O395 Eu379 2.324 . S
O395 C382 1.258 . S
O396 Tb378 2.500 . S
O396 C398 1.273 . S
O397 Tb378 2.473 . S
O397 C398 1.257 . S
C398 O396 1.273 . S
C398 O397 1.257 . S
O399 Eu379 2.326 1_556 S
O399 C387 1.242 . S
O400 Tb378 2.324 1_556 S
O400 C387 1.258 . S
O401 Eu379 2.500 1_556 S
O401 C384 1.273 . S
O402 Eu379 2.473 . S
O402 C384 1.257 1_554 S
H403 C389 0.929 . S
H404 C391 0.931 . S
H405 C393 0.929 . S
O406 Tb407 2.292 . S
O406 C409 1.255 . S
Tb407 O406 2.292 . S
Tb407 O423 2.326 . S
Tb407 O425 2.500 . S
Tb407 O426 2.473 . S
Tb407 O429 2.324 . S
Eu408 O412 2.292 . S
Eu408 C413 2.852 . S
Eu408 O424 2.324 . S
Eu408 O428 2.326 . S
Eu408 O430 2.500 . S
Eu408 O431 2.473 . S
C409 O406 1.255 . S
C409 O410 1.247 . S
O410 C409 1.247 . S
C411 O423 1.242 . S
C411 O424 1.258 . S
O412 Eu408 2.292 . S
O412 C414 1.255 . S
C413 Eu408 2.852 . S
C413 C417 1.503 . S
C413 O430 1.273 . S
C413 O431 1.257 . S
C414 O412 1.255 . S
C414 O415 1.247 . S
O415 C414 1.247 . S
C416 O428 1.242 . S
C416 O429 1.258 . S
C417 C413 1.503 . S
C417 C418 1.379 . S
C417 C422 1.392 . S
C418 C417 1.379 . S
C418 C419 1.404 . S
C418 H432 0.929 . S
C419 C418 1.404 . S
C419 C420 1.389 . S
C420 C419 1.389 . S
C420 C421 1.399 . S
C420 H433 0.931 . S
C421 C420 1.399 . S
C421 C422 1.390 . S
C422 C417 1.392 . S
C422 C421 1.390 . S
C422 H434 0.929 . S
O423 Tb407 2.326 . S
O423 C411 1.242 . S
O424 Eu408 2.324 . S
O424 C411 1.258 . S
O425 Tb407 2.500 . S
O425 C427 1.273 . S
O426 Tb407 2.473 . S
O426 C427 1.257 . S
C427 O425 1.273 . S
C427 O426 1.257 . S
O428 Eu408 2.326 . S
O428 C416 1.242 . S
O429 Tb407 2.324 . S
O429 C416 1.258 . S
O430 Eu408 2.500 . S
O430 C413 1.273 . S
O431 Eu408 2.473 . S
O431 C413 1.257 . S
H432 C418 0.929 . S
H433 C420 0.931 . S
H434 C422 0.929 . S
O435 Tb436 2.292 . S
O435 C438 1.255 . S
Tb436 O435 2.292 . S
Tb436 O452 2.326 . S
Tb436 O454 2.500 . S
Tb436 O455 2.473 . S
Tb436 O458 2.324 . S
Eu437 O441 2.292 . S
Eu437 C442 2.852 . S
Eu437 O453 2.324 . S
Eu437 O457 2.326 . S
Eu437 O459 2.500 . S
Eu437 O460 2.473 . S
C438 O435 1.255 . S
C438 O439 1.247 . S
O439 C438 1.247 . S
C440 O452 1.242 . S
C440 O453 1.258 . S
O441 Eu437 2.292 . S
O441 C443 1.255 . S
C442 Eu437 2.852 . S
C442 C446 1.503 . S
C442 O459 1.273 . S
C442 O460 1.257 . S
C443 O441 1.255 . S
C443 O444 1.247 . S
O444 C443 1.247 . S
C445 O457 1.242 . S
C445 O458 1.258 . S
C446 C442 1.503 . S
C446 C447 1.379 . S
C446 C451 1.392 . S
C447 C446 1.379 . S
C447 C448 1.404 . S
C447 H461 0.929 . S
C448 C447 1.404 . S
C448 C449 1.389 . S
C449 C448 1.389 . S
C449 C450 1.399 . S
C449 H462 0.931 . S
C450 C449 1.399 . S
C450 C451 1.390 . S
C451 C446 1.392 . S
C451 C450 1.390 . S
C451 H463 0.929 . S
O452 Tb436 2.326 . S
O452 C440 1.242 . S
O453 Eu437 2.324 . S
O453 C440 1.258 . S
O454 Tb436 2.500 . S
O454 C456 1.273 . S
O455 Tb436 2.473 . S
O455 C456 1.257 . S
C456 O454 1.273 . S
C456 O455 1.257 . S
O457 Eu437 2.326 . S
O457 C445 1.242 . S
O458 Tb436 2.324 . S
O458 C445 1.258 . S
O459 Eu437 2.500 . S
O459 C442 1.273 . S
O460 Eu437 2.473 . S
O460 C442 1.257 . S
H461 C447 0.929 . S
H462 C449 0.931 . S
H463 C451 0.929 . S
C464 C465 1.391 . S
C464 C466 1.394 . S
C464 H480 0.931 . S
C465 C464 1.391 . S
C465 C469 1.376 . S
C466 C464 1.394 . S
C466 C467 1.369 . S
C466 C470 1.531 . S
C467 C466 1.369 . S
C467 C468 1.410 . S
C467 C475 1.503 . S
C468 C467 1.410 . S
C468 C469 1.392 . S
C468 C471 1.511 . S
C469 C465 1.376 . S
C469 C468 1.392 . S
C469 H481 0.929 . S
C470 C466 1.531 . S
C470 H482 0.960 . S
C470 H483 0.962 . S
C470 H484 0.960 . S
C471 C468 1.511 . S
C471 H485 0.961 . S
C471 H486 0.961 . S
C471 H487 0.961 . S
C472 C473 1.370 . S
C472 C474 1.363 . S
C472 H488 0.931 . S
C473 C472 1.370 . S
C473 C477 1.408 . S
C474 C472 1.363 . S
C474 C475 1.370 . S
C474 C478 1.524 . S
C475 C467 1.503 . S
C475 C474 1.370 . S
C475 C476 1.403 . S
C476 C475 1.403 . S
C476 C477 1.404 . S
C476 C479 1.539 . S
C477 C473 1.408 . S
C477 C476 1.404 . S
C477 H489 0.950 . S
C478 C474 1.524 . S
C478 H490 0.956 . S
C478 H491 0.961 . S
C478 H492 0.961 . S
C479 C476 1.539 . S
C479 H493 0.958 . S
C479 H494 0.961 . S
C479 H495 0.960 . S
H480 C464 0.931 . S
H481 C469 0.929 . S
H482 C470 0.960 . S
H483 C470 0.962 . S
H484 C470 0.960 . S
H485 C471 0.961 . S
H486 C471 0.961 . S
H487 C471 0.961 . S
H488 C472 0.931 . S
H489 C477 0.950 . S
H490 C478 0.956 . S
H491 C478 0.961 . S
H492 C478 0.961 . S
H493 C479 0.958 . S
H494 C479 0.961 . S
H495 C479 0.960 . S
C496 C497 1.391 . S
C496 C498 1.394 . S
C496 H512 0.931 . S
C497 C496 1.391 . S
C497 C501 1.376 . S
C498 C496 1.394 . S
C498 C499 1.369 . S
C498 C502 1.531 . S
C499 C498 1.369 . S
C499 C500 1.410 . S
C499 C507 1.503 . S
C500 C499 1.410 . S
C500 C501 1.392 . S
C500 C503 1.511 . S
C501 C497 1.376 . S
C501 C500 1.392 . S
C501 H513 0.929 . S
C502 C498 1.531 . S
C502 H514 0.960 . S
C502 H515 0.962 . S
C502 H516 0.960 . S
C503 C500 1.511 . S
C503 H517 0.961 . S
C503 H518 0.961 . S
C503 H519 0.961 . S
C504 C505 1.370 . S
C504 C506 1.363 . S
C504 H520 0.931 . S
C505 C504 1.370 . S
C505 C509 1.408 . S
C506 C504 1.363 . S
C506 C507 1.370 . S
C506 C510 1.524 . S
C507 C499 1.503 . S
C507 C506 1.370 . S
C507 C508 1.403 . S
C508 C507 1.403 . S
C508 C509 1.404 . S
C508 C511 1.539 . S
C509 C505 1.408 . S
C509 C508 1.404 . S
C509 H521 0.930 . S
C510 C506 1.524 . S
C510 H522 0.956 . S
C510 H523 0.961 . S
C510 H524 0.961 . S
C511 C508 1.539 . S
C511 H525 0.958 . S
C511 H526 0.961 . S
C511 H527 0.960 . S
H512 C496 0.931 . S
H513 C501 0.929 . S
H514 C502 0.960 . S
H515 C502 0.962 . S
H516 C502 0.960 . S
H517 C503 0.961 . S
H518 C503 0.961 . S
H519 C503 0.961 . S
H520 C504 0.931 . S
H521 C509 0.930 . S
H522 C510 0.956 . S
H523 C510 0.961 . S
H524 C510 0.961 . S
H525 C511 0.958 . S
H526 C511 0.961 . S
H527 C511 0.960 . S
C528 C529 1.391 . S
C528 C530 1.394 . S
C528 H544 0.931 . S
C529 C528 1.391 . S
C529 C533 1.376 . S
C530 C528 1.394 . S
C530 C531 1.369 . S
C530 C534 1.531 . S
C531 C530 1.369 . S
C531 C532 1.410 . S
C531 C539 1.503 . S
C532 C531 1.410 . S
C532 C533 1.392 . S
C532 C535 1.511 . S
C533 C529 1.376 . S
C533 C532 1.392 . S
C533 H545 0.929 . S
C534 C530 1.531 . S
C534 H546 0.960 . S
C534 H547 0.962 . S
C534 H548 0.960 . S
C535 C532 1.511 . S
C535 H549 0.961 . S
C535 H550 0.961 . S
C535 H551 0.961 . S
C536 C537 1.370 . S
C536 C538 1.363 . S
C536 H552 0.931 . S
C537 C536 1.370 . S
C537 C541 1.408 . S
C538 C536 1.363 . S
C538 C539 1.370 . S
C538 C542 1.524 . S
C539 C531 1.503 . S
C539 C538 1.370 . S
C539 C540 1.403 . S
C540 C539 1.403 . S
C540 C541 1.404 . S
C540 C543 1.539 . S
C541 C537 1.408 . S
C541 C540 1.404 . S
C541 H553 0.930 . S
C542 C538 1.524 . S
C542 H554 0.956 . S
C542 H555 0.961 . S
C542 H556 0.961 . S
C543 C540 1.539 . S
C543 H557 0.958 . S
C543 H558 0.961 . S
C543 H559 0.960 . S
H544 C528 0.931 . S
H545 C533 0.929 . S
H546 C534 0.960 . S
H547 C534 0.962 . S
H548 C534 0.960 . S
H549 C535 0.961 . S
H550 C535 0.961 . S
H551 C535 0.961 . S
H552 C536 0.931 . S
H553 C541 0.930 . S
H554 C542 0.956 . S
H555 C542 0.961 . S
H556 C542 0.961 . S
H557 C543 0.958 . S
H558 C543 0.961 . S
H559 C543 0.960 . S
C560 C561 1.391 . S
C560 C562 1.394 . S
C560 H576 0.931 . S
C561 C560 1.391 . S
C561 C565 1.376 . S
C562 C560 1.394 . S
C562 C563 1.369 . S
C562 C566 1.531 . S
C563 C562 1.369 . S
C563 C564 1.410 . S
C563 C571 1.503 . S
C564 C563 1.410 . S
C564 C565 1.392 . S
C564 C567 1.511 . S
C565 C561 1.376 . S
C565 C564 1.392 . S
C565 H577 0.929 . S
C566 C562 1.531 . S
C566 H578 0.960 . S
C566 H579 0.962 . S
C566 H580 0.960 . S
C567 C564 1.511 . S
C567 H581 0.961 . S
C567 H582 0.961 . S
C567 H583 0.961 . S
C568 C569 1.370 . S
C568 C570 1.363 . S
C568 H584 0.931 . S
C569 C568 1.370 . S
C569 C573 1.408 . S
C570 C568 1.363 . S
C570 C571 1.370 . S
C570 C574 1.524 . S
C571 C563 1.503 . S
C571 C570 1.370 . S
C571 C572 1.403 . S
C572 C571 1.403 . S
C572 C573 1.404 . S
C572 C575 1.539 . S
C573 C569 1.408 . S
C573 C572 1.404 . S
C573 H585 0.930 . S
C574 C570 1.524 . S
C574 H586 0.956 . S
C574 H587 0.961 . S
C574 H588 0.961 . S
C575 C572 1.539 . S
C575 H589 0.958 . S
C575 H590 0.961 . S
C575 H591 0.960 . S
H576 C560 0.931 . S
H577 C565 0.929 . S
H578 C566 0.960 . S
H579 C566 0.962 . S
H580 C566 0.960 . S
H581 C567 0.961 . S
H582 C567 0.961 . S
H583 C567 0.961 . S
H584 C568 0.931 . S
H585 C573 0.930 . S
H586 C574 0.956 . S
H587 C574 0.961 . S
H588 C574 0.961 . S
H589 C575 0.958 . S
H590 C575 0.961 . S
H591 C575 0.960 . S
C592 C593 1.391 . S
C592 C594 1.394 . S
C592 H608 0.931 . S
C593 C592 1.391 . S
C593 C597 1.376 . S
C594 C592 1.394 . S
C594 C595 1.369 . S
C594 C598 1.531 . S
C595 C594 1.369 . S
C595 C596 1.410 . S
C595 C603 1.503 . S
C596 C595 1.410 . S
C596 C597 1.392 . S
C596 C599 1.511 . S
C597 C593 1.376 . S
C597 C596 1.392 . S
C597 H609 0.929 . S
C598 C594 1.531 . S
C598 H610 0.960 . S
C598 H611 0.962 . S
C598 H612 0.960 . S
C599 C596 1.511 . S
C599 H613 0.961 . S
C599 H614 0.961 . S
C599 H615 0.961 . S
C600 C601 1.370 . S
C600 C602 1.363 . S
C600 H616 0.931 . S
C601 C600 1.370 . S
C601 C605 1.408 . S
C602 C600 1.363 . S
C602 C603 1.370 . S
C602 C606 1.524 . S
C603 C595 1.503 . S
C603 C602 1.370 . S
C603 C604 1.403 . S
C604 C603 1.403 . S
C604 C605 1.404 . S
C604 C607 1.539 . S
C605 C601 1.408 . S
C605 C604 1.404 . S
C605 H617 0.930 . S
C606 C602 1.524 . S
C606 H618 0.956 . S
C606 H619 0.961 . S
C606 H620 0.961 . S
C607 C604 1.539 . S
C607 H621 0.958 . S
C607 H622 0.961 . S
C607 H623 0.960 . S
H608 C592 0.931 . S
H609 C597 0.929 . S
H610 C598 0.960 . S
H611 C598 0.962 . S
H612 C598 0.960 . S
H613 C599 0.961 . S
H614 C599 0.961 . S
H615 C599 0.961 . S
H616 C600 0.931 . S
H617 C605 0.930 . S
H618 C606 0.956 . S
H619 C606 0.961 . S
H620 C606 0.961 . S
H621 C607 0.958 . S
H622 C607 0.961 . S
H623 C607 0.960 . S
C624 C625 1.391 . S
C624 C626 1.394 . S
C624 H640 0.931 . S
C625 C624 1.391 . S
C625 C629 1.376 . S
C626 C624 1.394 . S
C626 C627 1.369 . S
C626 C630 1.531 . S
C627 C626 1.369 . S
C627 C628 1.410 . S
C627 C635 1.503 . S
C628 C627 1.410 . S
C628 C629 1.392 . S
C628 C631 1.511 . S
C629 C625 1.376 . S
C629 C628 1.392 . S
C629 H641 0.929 . S
C630 C626 1.531 . S
C630 H642 0.960 . S
C630 H643 0.962 . S
C630 H644 0.960 . S
C631 C628 1.511 . S
C631 H645 0.961 . S
C631 H646 0.961 . S
C631 H647 0.961 . S
C632 C633 1.370 . S
C632 C634 1.363 . S
C632 H648 0.931 . S
C633 C632 1.370 . S
C633 C637 1.408 . S
C634 C632 1.363 . S
C634 C635 1.370 . S
C634 C638 1.524 . S
C635 C627 1.503 . S
C635 C634 1.370 . S
C635 C636 1.403 . S
C636 C635 1.403 . S
C636 C637 1.404 . S
C636 C639 1.539 . S
C637 C633 1.408 . S
C637 C636 1.404 . S
C637 H649 0.930 . S
C638 C634 1.524 . S
C638 H650 0.956 . S
C638 H651 0.961 . S
C638 H652 0.961 . S
C639 C636 1.539 . S
C639 H653 0.958 . S
C639 H654 0.961 . S
C639 H655 0.960 . S
H640 C624 0.931 . S
H641 C629 0.929 . S
H642 C630 0.960 . S
H643 C630 0.962 . S
H644 C630 0.960 . S
H645 C631 0.961 . S
H646 C631 0.961 . S
H647 C631 0.961 . S
H648 C632 0.931 . S
H649 C637 0.930 . S
H650 C638 0.956 . S
H651 C638 0.961 . S
H652 C638 0.961 . S
H653 C639 0.958 . S
H654 C639 0.961 . S
H655 C639 0.960 . S
C656 C657 1.391 . S
C656 C658 1.394 . S
C656 H672 0.931 . S
C657 C656 1.391 . S
C657 C661 1.376 . S
C658 C656 1.394 . S
C658 C659 1.369 . S
C658 C662 1.531 . S
C659 C658 1.369 . S
C659 C660 1.410 . S
C659 C667 1.503 . S
C660 C659 1.410 . S
C660 C661 1.392 . S
C660 C663 1.511 . S
C661 C657 1.376 . S
C661 C660 1.392 . S
C661 H673 0.929 . S
C662 C658 1.531 . S
C662 H674 0.960 . S
C662 H675 0.962 . S
C662 H676 0.960 . S
C663 C660 1.511 . S
C663 H677 0.961 . S
C663 H678 0.961 . S
C663 H679 0.961 . S
C664 C665 1.370 . S
C664 C666 1.363 . S
C664 H680 0.931 . S
C665 C664 1.370 . S
C665 C669 1.408 . S
C666 C664 1.363 . S
C666 C667 1.370 . S
C666 C670 1.524 . S
C667 C659 1.503 . S
C667 C666 1.370 . S
C667 C668 1.403 . S
C668 C667 1.403 . S
C668 C669 1.404 . S
C668 C671 1.539 . S
C669 C665 1.408 . S
C669 C668 1.404 . S
C669 H681 0.930 . S
C670 C666 1.524 . S
C670 H682 0.956 . S
C670 H683 0.961 . S
C670 H684 0.961 . S
C671 C668 1.539 . S
C671 H685 0.958 . S
C671 H686 0.961 . S
C671 H687 0.960 . S
H672 C656 0.931 . S
H673 C661 0.929 . S
H674 C662 0.960 . S
H675 C662 0.962 . S
H676 C662 0.960 . S
H677 C663 0.961 . S
H678 C663 0.961 . S
H679 C663 0.961 . S
H680 C664 0.931 . S
H681 C669 0.930 . S
H682 C670 0.956 . S
H683 C670 0.961 . S
H684 C670 0.961 . S
H685 C671 0.958 . S
H686 C671 0.961 . S
H687 C671 0.960 . S
C688 C689 1.391 . S
C688 C690 1.394 . S
C688 H704 0.931 . S
C689 C688 1.391 . S
C689 C693 1.376 . S
C690 C688 1.394 . S
C690 C691 1.369 . S
C690 C694 1.531 . S
C691 C690 1.369 . S
C691 C692 1.410 . S
C691 C699 1.503 . S
C692 C691 1.410 . S
C692 C693 1.392 . S
C692 C695 1.511 . S
C693 C689 1.376 . S
C693 C692 1.392 . S
C693 H705 0.929 . S
C694 C690 1.531 . S
C694 H706 0.960 . S
C694 H707 0.962 . S
C694 H708 0.960 . S
C695 C692 1.511 . S
C695 H709 0.961 . S
C695 H710 0.961 . S
C695 H711 0.961 . S
C696 C697 1.370 . S
C696 C698 1.363 . S
C696 H712 0.931 . S
C697 C696 1.370 . S
C697 C701 1.408 . S
C698 C696 1.363 . S
C698 C699 1.370 . S
C698 C702 1.524 . S
C699 C691 1.503 . S
C699 C698 1.370 . S
C699 C700 1.403 . S
C700 C699 1.403 . S
C700 C701 1.404 . S
C700 C703 1.539 . S
C701 C697 1.408 . S
C701 C700 1.404 . S
C701 H713 0.930 . S
C702 C698 1.524 . S
C702 H714 0.956 . S
C702 H715 0.961 . S
C702 H716 0.961 . S
C703 C700 1.539 . S
C703 H717 0.958 . S
C703 H718 0.961 . S
C703 H719 0.960 . S
H704 C688 0.931 . S
H705 C693 0.929 . S
H706 C694 0.960 . S
H707 C694 0.962 . S
H708 C694 0.960 . S
H709 C695 0.961 . S
H710 C695 0.961 . S
H711 C695 0.961 . S
H712 C696 0.931 . S
H713 C701 0.930 . S
H714 C702 0.956 . S
H715 C702 0.961 . S
H716 C702 0.961 . S
H717 C703 0.958 . S
H718 C703 0.961 . S
H719 C703 0.960 . S
C720 C721 1.391 . S
C720 C722 1.394 . S
C720 H736 0.931 . S
C721 C720 1.391 . S
C721 C725 1.376 . S
C722 C720 1.394 . S
C722 C723 1.369 . S
C722 C726 1.531 . S
C723 C722 1.369 . S
C723 C724 1.410 . S
C723 C731 1.503 . S
C724 C723 1.410 . S
C724 C725 1.392 . S
C724 C727 1.511 . S
C725 C721 1.376 . S
C725 C724 1.392 . S
C725 H737 0.926 1_565 S
C726 C722 1.531 . S
C726 H738 0.960 . S
C726 H739 0.962 . S
C726 H740 0.960 . S
C727 C724 1.511 . S
C727 H741 0.961 . S
C727 H742 0.961 . S
C727 H743 0.961 . S
C728 C729 1.370 . S
C728 C730 1.363 . S
C728 H744 0.931 . S
C729 C728 1.370 . S
C729 C733 1.408 . S
C730 C728 1.363 . S
C730 C731 1.370 . S
C730 C734 1.524 . S
C731 C723 1.503 . S
C731 C730 1.370 . S
C731 C732 1.403 . S
C732 C731 1.403 . S
C732 C733 1.404 . S
C732 C735 1.539 . S
C733 C729 1.408 . S
C733 C732 1.404 . S
C733 H745 0.930 . S
C734 C730 1.524 . S
C734 H746 0.956 . S
C734 H747 0.961 . S
C734 H748 0.961 . S
C735 C732 1.539 . S
C735 H749 0.958 . S
C735 H750 0.961 . S
C735 H751 0.960 . S
H736 C720 0.931 . S
H737 C725 0.926 1_545 S
H738 C726 0.960 . S
H739 C726 0.962 . S
H740 C726 0.960 . S
H741 C727 0.961 . S
H742 C727 0.961 . S
H743 C727 0.961 . S
H744 C728 0.931 . S
H745 C733 0.930 . S
H746 C734 0.956 . S
H747 C734 0.961 . S
H748 C734 0.961 . S
H749 C735 0.958 . S
H750 C735 0.961 . S
H751 C735 0.960 . S
C752 C753 1.391 . S
C752 C754 1.394 . S
C752 H768 0.931 . S
C753 C752 1.391 . S
C753 C757 1.376 . S
C754 C752 1.394 . S
C754 C755 1.369 . S
C754 C758 1.531 . S
C755 C754 1.369 . S
C755 C756 1.410 . S
C755 C763 1.503 . S
C756 C755 1.410 . S
C756 C757 1.392 . S
C756 C759 1.511 . S
C757 C753 1.376 . S
C757 C756 1.392 . S
C757 H769 0.929 . S
C758 C754 1.531 . S
C758 H770 0.960 . S
C758 H771 0.962 . S
C758 H772 0.960 . S
C759 C756 1.511 . S
C759 H773 0.961 . S
C759 H774 0.961 . S
C759 H775 0.961 . S
C760 C761 1.370 . S
C760 C762 1.363 . S
C760 H776 0.931 . S
C761 C760 1.370 . S
C761 C765 1.408 . S
C762 C760 1.363 . S
C762 C763 1.370 . S
C762 C766 1.524 . S
C763 C755 1.503 . S
C763 C762 1.370 . S
C763 C764 1.403 . S
C764 C763 1.403 . S
C764 C765 1.404 . S
C764 C767 1.539 . S
C765 C761 1.408 . S
C765 C764 1.404 . S
C765 H777 0.930 . S
C766 C762 1.524 . S
C766 H778 0.956 . S
C766 H779 0.961 . S
C766 H780 0.961 . S
C767 C764 1.539 . S
C767 H781 0.958 . S
C767 H782 0.961 . S
C767 H783 0.960 . S
H768 C752 0.931 . S
H769 C757 0.929 . S
H770 C758 0.960 . S
H771 C758 0.962 . S
H772 C758 0.960 . S
H773 C759 0.961 . S
H774 C759 0.961 . S
H775 C759 0.961 . S
H776 C760 0.931 . S
H777 C765 0.930 . S
H778 C766 0.956 . S
H779 C766 0.961 . S
H780 C766 0.961 . S
H781 C767 0.958 . S
H782 C767 0.961 . S
H783 C767 0.960 . S
C784 C785 1.391 . S
C784 C786 1.394 . S
C784 H800 0.931 . S
C785 C784 1.391 . S
C785 C789 1.376 . S
C786 C784 1.394 . S
C786 C787 1.369 . S
C786 C790 1.531 . S
C787 C786 1.369 . S
C787 C788 1.410 . S
C787 C795 1.503 . S
C788 C787 1.410 . S
C788 C789 1.392 . S
C788 C791 1.511 . S
C789 C785 1.376 . S
C789 C788 1.392 . S
C789 H801 0.929 . S
C790 C786 1.531 . S
C790 H802 0.960 . S
C790 H803 0.962 . S
C790 H804 0.960 . S
C791 C788 1.511 . S
C791 H805 0.961 . S
C791 H806 0.961 . S
C791 H807 0.961 . S
C792 C793 1.370 . S
C792 C794 1.363 . S
C792 H808 0.931 . S
C793 C792 1.370 . S
C793 C797 1.408 . S
C794 C792 1.363 . S
C794 C795 1.370 . S
C794 C798 1.524 . S
C795 C787 1.503 . S
C795 C794 1.370 . S
C795 C796 1.403 . S
C796 C795 1.403 . S
C796 C797 1.404 . S
C796 C799 1.539 . S
C797 C793 1.408 . S
C797 C796 1.404 . S
C797 H809 0.930 . S
C798 C794 1.524 . S
C798 H810 0.956 . S
C798 H811 0.961 . S
C798 H812 0.961 . S
C799 C796 1.539 . S
C799 H813 0.958 . S
C799 H814 0.961 . S
C799 H815 0.960 . S
H800 C784 0.931 . S
H801 C789 0.929 . S
H802 C790 0.960 . S
H803 C790 0.962 . S
H804 C790 0.960 . S
H805 C791 0.961 . S
H806 C791 0.961 . S
H807 C791 0.961 . S
H808 C792 0.931 . S
H809 C797 0.930 . S
H810 C798 0.956 . S
H811 C798 0.961 . S
H812 C798 0.961 . S
H813 C799 0.958 . S
H814 C799 0.961 . S
H815 C799 0.960 . S
C816 C817 1.391 . S
C816 C818 1.394 . S
C816 H832 0.931 . S
C817 C816 1.391 . S
C817 C821 1.376 . S
C818 C816 1.394 . S
C818 C819 1.369 . S
C818 C822 1.531 . S
C819 C818 1.369 . S
C819 C820 1.410 . S
C819 C827 1.503 . S
C820 C819 1.410 . S
C820 C821 1.392 . S
C820 C823 1.511 . S
C821 C817 1.376 . S
C821 C820 1.392 . S
C821 H833 0.929 . S
C822 C818 1.531 . S
C822 H834 0.960 . S
C822 H835 0.962 . S
C822 H836 0.960 . S
C823 C820 1.511 . S
C823 H837 0.961 . S
C823 H838 0.961 . S
C823 H839 0.961 . S
C824 C825 1.370 . S
C824 C826 1.363 . S
C824 H840 0.931 . S
C825 C824 1.370 . S
C825 C829 1.408 . S
C826 C824 1.363 . S
C826 C827 1.370 . S
C826 C830 1.524 . S
C827 C819 1.503 . S
C827 C826 1.370 . S
C827 C828 1.403 . S
C828 C827 1.403 . S
C828 C829 1.404 . S
C828 C831 1.539 . S
C829 C825 1.408 . S
C829 C828 1.404 . S
C829 H841 0.930 . S
C830 C826 1.524 . S
C830 H842 0.956 . S
C830 H843 0.961 . S
C830 H844 0.961 . S
C831 C828 1.539 . S
C831 H845 0.958 . S
C831 H846 0.961 . S
C831 H847 0.960 . S
H832 C816 0.931 . S
H833 C821 0.929 . S
H834 C822 0.960 . S
H835 C822 0.962 . S
H836 C822 0.960 . S
H837 C823 0.961 . S
H838 C823 0.961 . S
H839 C823 0.961 . S
H840 C824 0.931 . S
H841 C829 0.930 . S
H842 C830 0.956 . S
H843 C830 0.961 . S
H844 C830 0.961 . S
H845 C831 0.958 . S
H846 C831 0.961 . S
H847 C831 0.960 . S
C848 C849 1.391 . S
C848 C850 1.394 . S
C848 H864 0.931 . S
C849 C848 1.391 . S
C849 C853 1.376 . S
C850 C848 1.394 . S
C850 C851 1.369 . S
C850 C854 1.531 . S
C851 C850 1.369 . S
C851 C852 1.410 . S
C851 C859 1.503 . S
C852 C851 1.410 . S
C852 C853 1.392 . S
C852 C855 1.511 . S
C853 C849 1.376 . S
C853 C852 1.392 . S
C853 H865 0.929 . S
C854 C850 1.531 . S
C854 H866 0.960 . S
C854 H867 0.962 . S
C854 H868 0.960 . S
C855 C852 1.511 . S
C855 H869 0.961 . S
C855 H870 0.961 . S
C855 H871 0.961 . S
C856 C857 1.370 . S
C856 C858 1.363 . S
C856 H872 0.931 . S
C857 C856 1.370 . S
C857 C861 1.408 . S
C858 C856 1.363 . S
C858 C859 1.370 . S
C858 C862 1.524 . S
C859 C851 1.503 . S
C859 C858 1.370 . S
C859 C860 1.403 . S
C860 C859 1.403 . S
C860 C861 1.404 . S
C860 C863 1.539 . S
C861 C857 1.408 . S
C861 C860 1.404 . S
C861 H873 0.930 . S
C862 C858 1.524 . S
C862 H874 0.956 . S
C862 H875 0.961 . S
C862 H876 0.961 . S
C863 C860 1.539 . S
C863 H877 0.958 . S
C863 H878 0.961 . S
C863 H879 0.960 . S
H864 C848 0.931 . S
H865 C853 0.929 . S
H866 C854 0.960 . S
H867 C854 0.962 . S
H868 C854 0.960 . S
H869 C855 0.961 . S
H870 C855 0.961 . S
H871 C855 0.961 . S
H872 C856 0.931 . S
H873 C861 0.930 . S
H874 C862 0.956 . S
H875 C862 0.961 . S
H876 C862 0.961 . S
H877 C863 0.958 . S
H878 C863 0.961 . S
H879 C863 0.960 . S
C880 C881 1.391 . S
C880 C882 1.394 . S
C880 H896 0.931 . S
C881 C880 1.391 . S
C881 C885 1.376 . S
C882 C880 1.394 . S
C882 C883 1.369 . S
C882 C886 1.531 . S
C883 C882 1.369 . S
C883 C884 1.410 . S
C883 C891 1.503 . S
C884 C883 1.410 . S
C884 C885 1.392 . S
C884 C887 1.511 . S
C885 C881 1.376 . S
C885 C884 1.392 . S
C885 H897 0.929 . S
C886 C882 1.531 . S
C886 H898 0.960 . S
C886 H899 0.962 . S
C886 H900 0.960 . S
C887 C884 1.511 . S
C887 H901 0.961 . S
C887 H902 0.961 . S
C887 H903 0.961 . S
C888 C889 1.370 . S
C888 C890 1.363 . S
C888 H904 0.931 . S
C889 C888 1.370 . S
C889 C893 1.408 . S
C890 C888 1.363 . S
C890 C891 1.370 . S
C890 C894 1.524 . S
C891 C883 1.503 . S
C891 C890 1.370 . S
C891 C892 1.403 . S
C892 C891 1.403 . S
C892 C893 1.404 . S
C892 C895 1.539 . S
C893 C889 1.408 . S
C893 C892 1.404 . S
C893 H905 0.930 . S
C894 C890 1.524 . S
C894 H906 0.956 . S
C894 H907 0.961 . S
C894 H908 0.961 . S
C895 C892 1.539 . S
C895 H909 0.958 . S
C895 H910 0.961 . S
C895 H911 0.960 . S
H896 C880 0.931 . S
H897 C885 0.929 . S
H898 C886 0.960 . S
H899 C886 0.962 . S
H900 C886 0.960 . S
H901 C887 0.961 . S
H902 C887 0.961 . S
H903 C887 0.961 . S
H904 C888 0.931 . S
H905 C893 0.930 . S
H906 C894 0.956 . S
H907 C894 0.961 . S
H908 C894 0.961 . S
H909 C895 0.958 . S
H910 C895 0.961 . S
H911 C895 0.960 . S
C912 C913 1.391 . S
C912 C914 1.394 . S
C912 H928 0.931 . S
C913 C912 1.391 . S
C913 C917 1.376 . S
C914 C912 1.394 . S
C914 C915 1.369 . S
C914 C918 1.531 . S
C915 C914 1.369 . S
C915 C916 1.410 . S
C915 C923 1.503 . S
C916 C915 1.410 . S
C916 C917 1.392 . S
C916 C919 1.511 . S
C917 C913 1.376 . S
C917 C916 1.392 . S
C917 H929 0.929 . S
C918 C914 1.531 . S
C918 H930 0.960 . S
C918 H931 0.962 . S
C918 H932 0.960 . S
C919 C916 1.511 . S
C919 H933 0.961 . S
C919 H934 0.961 . S
C919 H935 0.961 . S
C920 C921 1.370 . S
C920 C922 1.363 . S
C920 H936 0.931 . S
C921 C920 1.370 . S
C921 C925 1.408 . S
C922 C920 1.363 . S
C922 C923 1.370 . S
C922 C926 1.524 . S
C923 C915 1.503 . S
C923 C922 1.370 . S
C923 C924 1.403 . S
C924 C923 1.403 . S
C924 C925 1.404 . S
C924 C927 1.539 . S
C925 C921 1.408 . S
C925 C924 1.404 . S
C925 H937 0.930 . S
C926 C922 1.524 . S
C926 H938 0.956 . S
C926 H939 0.961 . S
C926 H940 0.961 . S
C927 C924 1.539 . S
C927 H941 0.958 . S
C927 H942 0.961 . S
C927 H943 0.960 . S
H928 C912 0.931 . S
H929 C917 0.929 . S
H930 C918 0.960 . S
H931 C918 0.962 . S
H932 C918 0.960 . S
H933 C919 0.961 . S
H934 C919 0.961 . S
H935 C919 0.961 . S
H936 C920 0.931 . S
H937 C925 0.930 . S
H938 C926 0.956 . S
H939 C926 0.961 . S
H940 C926 0.961 . S
H941 C927 0.958 . S
H942 C927 0.961 . S
H943 C927 0.960 . S
C944 C945 1.391 . S
C944 C946 1.394 . S
C944 H960 0.931 . S
C945 C944 1.391 . S
C945 C949 1.376 . S
C946 C944 1.394 . S
C946 C947 1.369 . S
C946 C950 1.531 . S
C947 C946 1.369 . S
C947 C948 1.410 . S
C947 C955 1.503 . S
C948 C947 1.410 . S
C948 C949 1.392 . S
C948 C951 1.511 . S
C949 C945 1.376 . S
C949 C948 1.392 . S
C949 H961 0.929 . S
C950 C946 1.531 . S
C950 H962 0.960 . S
C950 H963 0.962 . S
C950 H964 0.960 . S
C951 C948 1.511 . S
C951 H965 0.961 . S
C951 H966 0.961 . S
C951 H967 0.961 . S
C952 C953 1.370 . S
C952 C954 1.363 . S
C952 H968 0.931 . S
C953 C952 1.370 . S
C953 C957 1.408 . S
C954 C952 1.363 . S
C954 C955 1.370 . S
C954 C958 1.524 . S
C955 C947 1.503 . S
C955 C954 1.370 . S
C955 C956 1.403 . S
C956 C955 1.403 . S
C956 C957 1.404 . S
C956 C959 1.539 . S
C957 C953 1.408 . S
C957 C956 1.404 . S
C957 H969 0.930 . S
C958 C954 1.524 . S
C958 H970 0.956 . S
C958 H971 0.961 . S
C958 H972 0.961 . S
C959 C956 1.539 . S
C959 H973 0.958 . S
C959 H974 0.961 . S
C959 H975 0.960 . S
H960 C944 0.931 . S
H961 C949 0.929 . S
H962 C950 0.960 . S
H963 C950 0.962 . S
H964 C950 0.960 . S
H965 C951 0.961 . S
H966 C951 0.961 . S
H967 C951 0.961 . S
H968 C952 0.931 . S
H969 C957 0.930 . S
H970 C958 0.956 . S
H971 C958 0.961 . S
H972 C958 0.961 . S
H973 C959 0.958 . S
H974 C959 0.961 . S
H975 C959 0.960 . S
C976 C977 1.391 . S
C976 C978 1.394 . S
C976 H992 0.931 . S
C977 C976 1.391 . S
C977 C981 1.376 1_554 S
C978 C976 1.394 . S
C978 C979 1.369 . S
C978 C982 1.531 . S
C979 C978 1.369 . S
C979 C980 1.410 1_554 S
C979 C987 1.503 . S
C980 C979 1.410 1_556 S
C980 C981 1.392 . S
C980 C983 1.511 . S
C981 C977 1.376 1_556 S
C981 C980 1.392 . S
C981 H993 0.929 . S
C982 C978 1.531 . S
C982 H994 0.960 . S
C982 H995 0.962 . S
C982 H996 0.960 . S
C983 C980 1.511 . S
C983 H997 0.961 . S
C983 H998 0.961 . S
C983 H999 0.961 . S
C984 C985 1.370 . S
C984 C986 1.363 . S
C984 H1000 0.931 . S
C985 C984 1.370 . S
C985 C989 1.408 . S
C986 C984 1.363 . S
C986 C987 1.370 . S
C986 C990 1.524 . S
C987 C979 1.503 . S
C987 C986 1.370 . S
C987 C988 1.403 . S
C988 C987 1.403 . S
C988 C989 1.404 . S
C988 C991 1.539 . S
C989 C985 1.408 . S
C989 C988 1.404 . S
C989 H1001 0.930 . S
C990 C986 1.524 . S
C990 H1002 0.956 . S
C990 H1003 0.961 1_554 S
C990 H1004 0.961 . S
C991 C988 1.539 . S
C991 H1005 0.958 . S
C991 H1006 0.961 . S
C991 H1007 0.960 . S
H992 C976 0.931 . S
H993 C981 0.929 . S
H994 C982 0.960 . S
H995 C982 0.962 . S
H996 C982 0.960 . S
H997 C983 0.961 . S
H998 C983 0.961 . S
H999 C983 0.961 . S
H1000 C984 0.931 . S
H1001 C989 0.930 . S
H1002 C990 0.956 . S
H1003 C990 0.961 1_556 S
H1004 C990 0.961 . S
H1005 C991 0.958 . S
H1006 C991 0.961 . S
H1007 C991 0.960 . S
C1008 C1009 1.391 . S
C1008 C1010 1.394 . S
C1008 H1024 0.931 . S
C1009 C1008 1.391 . S
C1009 C1013 1.376 1_554 S
C1010 C1008 1.394 . S
C1010 C1011 1.369 . S
C1010 C1014 1.531 . S
C1011 C1010 1.369 . S
C1011 C1012 1.410 1_554 S
C1011 C1019 1.503 . S
C1012 C1011 1.410 1_556 S
C1012 C1013 1.392 . S
C1012 C1015 1.511 . S
C1013 C1009 1.376 1_556 S
C1013 C1012 1.392 . S
C1013 H1025 0.929 . S
C1014 C1010 1.531 . S
C1014 H1026 0.960 . S
C1014 H1027 0.962 . S
C1014 H1028 0.960 . S
C1015 C1012 1.511 . S
C1015 H1029 0.961 . S
C1015 H1030 0.961 . S
C1015 H1031 0.961 . S
C1016 C1017 1.370 . S
C1016 C1018 1.363 . S
C1016 H1032 0.931 . S
C1017 C1016 1.370 . S
C1017 C1021 1.408 . S
C1018 C1016 1.363 . S
C1018 C1019 1.370 . S
C1018 C1022 1.524 . S
C1019 C1011 1.503 . S
C1019 C1018 1.370 . S
C1019 C1020 1.403 . S
C1020 C1019 1.403 . S
C1020 C1021 1.404 . S
C1020 C1023 1.539 1_554 S
C1021 C1017 1.408 . S
C1021 C1020 1.404 . S
C1021 H1033 0.930 . S
C1022 C1018 1.524 . S
C1022 H1034 0.956 . S
C1022 H1035 0.961 . S
C1022 H1036 0.961 . S
C1023 C1020 1.539 1_556 S
C1023 H1037 0.958 1_556 S
C1023 H1038 0.961 . S
C1023 H1039 0.960 . S
H1024 C1008 0.931 . S
H1025 C1013 0.929 . S
H1026 C1014 0.960 . S
H1027 C1014 0.962 . S
H1028 C1014 0.960 . S
H1029 C1015 0.961 . S
H1030 C1015 0.961 . S
H1031 C1015 0.961 . S
H1032 C1016 0.931 . S
H1033 C1021 0.930 . S
H1034 C1022 0.956 . S
H1035 C1022 0.961 . S
H1036 C1022 0.961 . S
H1037 C1023 0.958 1_554 S
H1038 C1023 0.961 . S
H1039 C1023 0.960 . S
C1040 C1041 1.391 . S
C1040 C1042 1.394 . S
C1040 H1056 0.931 . S
C1041 C1040 1.391 . S
C1041 C1045 1.376 . S
C1042 C1040 1.394 . S
C1042 C1043 1.369 . S
C1042 C1046 1.531 . S
C1043 C1042 1.369 . S
C1043 C1044 1.410 . S
C1043 C1051 1.503 1_655 S
C1044 C1043 1.410 . S
C1044 C1045 1.392 . S
C1044 C1047 1.511 1_655 S
C1045 C1041 1.376 . S
C1045 C1044 1.392 . S
C1045 H1057 0.929 . S
C1046 C1042 1.531 . S
C1046 H1058 0.960 . S
C1046 H1059 0.962 . S
C1046 H1060 0.960 . S
C1047 C1044 1.511 1_455 S
C1047 H1061 0.961 . S
C1047 H1062 0.961 . S
C1047 H1063 0.961 . S
C1048 C1049 1.370 . S
C1048 C1050 1.363 . S
C1048 H1064 0.931 . S
C1049 C1048 1.370 . S
C1049 C1053 1.408 . S
C1050 C1048 1.363 . S
C1050 C1051 1.370 . S
C1050 C1054 1.524 . S
C1051 C1043 1.503 1_455 S
C1051 C1050 1.370 . S
C1051 C1052 1.403 1_455 S
C1052 C1051 1.403 1_655 S
C1052 C1053 1.404 1_655 S
C1052 C1055 1.539 . S
C1053 C1049 1.408 . S
C1053 C1052 1.404 1_455 S
C1053 H1065 0.930 1_455 S
C1054 C1050 1.524 . S
C1054 H1066 0.956 . S
C1054 H1067 0.961 . S
C1054 H1068 0.961 . S
C1055 C1052 1.539 . S
C1055 H1069 0.958 . S
C1055 H1070 0.961 . S
C1055 H1071 0.960 . S
H1056 C1040 0.931 . S
H1057 C1045 0.929 . S
H1058 C1046 0.960 . S
H1059 C1046 0.962 . S
H1060 C1046 0.960 . S
H1061 C1047 0.961 . S
H1062 C1047 0.961 . S
H1063 C1047 0.961 . S
H1064 C1048 0.931 . S
H1065 C1053 0.930 1_655 S
H1066 C1054 0.956 . S
H1067 C1054 0.961 . S
H1068 C1054 0.961 . S
H1069 C1055 0.958 . S
H1070 C1055 0.961 . S
H1071 C1055 0.960 . S
C1072 C1073 1.391 . S
C1072 C1074 1.394 . S
C1072 H1088 0.931 . S
C1073 C1072 1.391 . S
C1073 C1077 1.376 . S
C1074 C1072 1.394 . S
C1074 C1075 1.369 . S
C1074 C1078 1.531 . S
C1075 C1074 1.369 . S
C1075 C1076 1.410 . S
C1075 C1083 1.503 . S
C1076 C1075 1.410 . S
C1076 C1077 1.392 . S
C1076 C1079 1.511 . S
C1077 C1073 1.376 . S
C1077 C1076 1.392 . S
C1077 H1089 0.929 . S
C1078 C1074 1.531 . S
C1078 H1090 0.960 . S
C1078 H1091 0.962 . S
C1078 H1092 0.960 . S
C1079 C1076 1.511 . S
C1079 H1093 0.961 . S
C1079 H1094 0.961 . S
C1079 H1095 0.961 . S
C1080 C1081 1.370 . S
C1080 C1082 1.363 . S
C1080 H1096 0.931 . S
C1081 C1080 1.370 . S
C1081 C1085 1.408 . S
C1082 C1080 1.363 . S
C1082 C1083 1.370 . S
C1082 C1086 1.524 . S
C1083 C1075 1.503 . S
C1083 C1082 1.370 . S
C1083 C1084 1.403 . S
C1084 C1083 1.403 . S
C1084 C1085 1.404 . S
C1084 C1087 1.539 . S
C1085 C1081 1.408 . S
C1085 C1084 1.404 . S
C1085 H1097 0.930 . S
C1086 C1082 1.524 . S
C1086 H1098 0.956 . S
C1086 H1099 0.961 . S
C1086 H1100 0.961 . S
C1087 C1084 1.539 . S
C1087 H1101 0.958 . S
C1087 H1102 0.961 . S
C1087 H1103 0.960 . S
H1088 C1072 0.931 . S
H1089 C1077 0.929 . S
H1090 C1078 0.960 . S
H1091 C1078 0.962 . S
H1092 C1078 0.960 . S
H1093 C1079 0.961 . S
H1094 C1079 0.961 . S
H1095 C1079 0.961 . S
H1096 C1080 0.931 . S
H1097 C1085 0.930 . S
H1098 C1086 0.956 . S
H1099 C1086 0.961 . S
H1100 C1086 0.961 . S
H1101 C1087 0.958 . S
H1102 C1087 0.961 . S
H1103 C1087 0.960 . S
C1104 C1105 1.391 . S
C1104 C1106 1.394 . S
C1104 H1120 0.931 . S
C1105 C1104 1.391 . S
C1105 C1109 1.376 . S
C1106 C1104 1.394 . S
C1106 C1107 1.369 . S
C1106 C1110 1.531 . S
C1107 C1106 1.369 . S
C1107 C1108 1.410 . S
C1107 C1115 1.503 . S
C1108 C1107 1.410 . S
C1108 C1109 1.392 . S
C1108 C1111 1.511 . S
C1109 C1105 1.376 . S
C1109 C1108 1.392 . S
C1109 H1121 0.929 . S
C1110 C1106 1.531 . S
C1110 H1122 0.960 . S
C1110 H1123 0.962 . S
C1110 H1124 0.960 . S
C1111 C1108 1.511 . S
C1111 H1125 0.961 . S
C1111 H1126 0.961 . S
C1111 H1127 0.961 . S
C1112 C1113 1.370 . S
C1112 C1114 1.363 . S
C1112 H1128 0.931 . S
C1113 C1112 1.370 . S
C1113 C1117 1.408 . S
C1114 C1112 1.363 . S
C1114 C1115 1.370 . S
C1114 C1118 1.524 . S
C1115 C1107 1.503 . S
C1115 C1114 1.370 . S
C1115 C1116 1.403 . S
C1116 C1115 1.403 . S
C1116 C1117 1.404 . S
C1116 C1119 1.539 . S
C1117 C1113 1.408 . S
C1117 C1116 1.404 . S
C1117 H1129 0.930 . S
C1118 C1114 1.524 . S
C1118 H1130 0.956 . S
C1118 H1131 0.961 . S
C1118 H1132 0.961 . S
C1119 C1116 1.539 . S
C1119 H1133 0.958 . S
C1119 H1134 0.961 . S
C1119 H1135 0.960 . S
H1120 C1104 0.931 . S
H1121 C1109 0.929 . S
H1122 C1110 0.960 . S
H1123 C1110 0.962 . S
H1124 C1110 0.960 . S
H1125 C1111 0.961 . S
H1126 C1111 0.961 . S
H1127 C1111 0.961 . S
H1128 C1112 0.931 . S
H1129 C1117 0.930 . S
H1130 C1118 0.956 . S
H1131 C1118 0.961 . S
H1132 C1118 0.961 . S
H1133 C1119 0.958 . S
H1134 C1119 0.961 . S
H1135 C1119 0.960 . S
C1136 C1137 1.391 . S
C1136 C1138 1.394 1_655 S
C1136 H1152 0.931 1_655 S
C1137 C1136 1.391 . S
C1137 C1141 1.376 . S
C1138 C1136 1.394 1_455 S
C1138 C1139 1.369 1_455 S
C1138 C1142 1.531 . S
C1139 C1138 1.369 1_655 S
C1139 C1140 1.410 . S
C1139 C1147 1.503 1_665 S
C1140 C1139 1.410 . S
C1140 C1141 1.392 . S
C1140 C1143 1.511 1_565 S
C1141 C1137 1.376 . S
C1141 C1140 1.392 . S
C1141 H1153 0.929 . S
C1142 C1138 1.531 . S
C1142 H1154 0.960 . S
C1142 H1155 0.962 . S
C1142 H1156 0.960 . S
C1143 C1140 1.511 1_545 S
C1143 H1157 0.961 . S
C1143 H1158 0.961 . S
C1143 H1159 0.961 . S
C1144 C1145 1.370 . S
C1144 C1146 1.363 . S
C1144 H1160 0.931 . S
C1145 C1144 1.370 . S
C1145 C1149 1.408 . S
C1146 C1144 1.363 . S
C1146 C1147 1.370 . S
C1146 C1150 1.524 . S
C1147 C1139 1.503 1_445 S
C1147 C1146 1.370 . S
C1147 C1148 1.403 . S
C1148 C1147 1.403 . S
C1148 C1149 1.404 . S
C1148 C1151 1.539 1_455 S
C1149 C1145 1.408 . S
C1149 C1148 1.404 . S
C1149 H1161 0.930 . S
C1150 C1146 1.524 . S
C1150 H1162 0.956 1_545 S
C1150 H1163 0.960 1_455 S
C1150 H1164 0.961 . S
C1151 C1148 1.539 1_655 S
C1151 H1165 0.958 1_655 S
C1151 H1166 0.961 . S
C1151 H1167 0.960 . S
H1152 C1136 0.931 1_455 S
H1153 C1141 0.929 . S
H1154 C1142 0.960 . S
H1155 C1142 0.962 . S
H1156 C1142 0.960 . S
H1157 C1143 0.961 . S
H1158 C1143 0.961 . S
H1159 C1143 0.961 . S
H1160 C1144 0.931 . S
H1161 C1149 0.930 . S
H1162 C1150 0.956 1_565 S
H1163 C1150 0.960 1_655 S
H1164 C1150 0.961 . S
H1165 C1151 0.958 1_455 S
H1166 C1151 0.961 . S
H1167 C1151 0.960 . S
C1168 C1169 1.391 . S
C1168 C1170 1.394 . S
C1168 H1184 0.931 . S
C1169 C1168 1.391 . S
C1169 C1173 1.376 . S
C1170 C1168 1.394 . S
C1170 C1171 1.369 . S
C1170 C1174 1.531 . S
C1171 C1170 1.369 . S
C1171 C1172 1.410 . S
C1171 C1179 1.503 . S
C1172 C1171 1.410 . S
C1172 C1173 1.392 . S
C1172 C1175 1.511 . S
C1173 C1169 1.376 . S
C1173 C1172 1.392 . S
C1173 H1185 0.929 . S
C1174 C1170 1.531 . S
C1174 H1186 0.960 . S
C1174 H1187 0.962 . S
C1174 H1188 0.960 . S
C1175 C1172 1.511 . S
C1175 H1189 0.961 . S
C1175 H1190 0.961 . S
C1175 H1191 0.961 . S
C1176 C1177 1.370 . S
C1176 C1178 1.363 . S
C1176 H1192 0.931 . S
C1177 C1176 1.370 . S
C1177 C1181 1.408 . S
C1178 C1176 1.363 . S
C1178 C1179 1.370 . S
C1178 C1182 1.524 . S
C1179 C1171 1.503 . S
C1179 C1178 1.370 . S
C1179 C1180 1.403 . S
C1180 C1179 1.403 . S
C1180 C1181 1.404 . S
C1180 C1183 1.539 . S
C1181 C1177 1.408 . S
C1181 C1180 1.404 . S
C1181 H1193 0.930 . S
C1182 C1178 1.524 . S
C1182 H1194 0.956 . S
C1182 H1195 0.961 . S
C1182 H1196 0.961 . S
C1183 C1180 1.539 . S
C1183 H1197 0.958 . S
C1183 H1198 0.961 . S
C1183 H1199 0.960 . S
H1184 C1168 0.931 . S
H1185 C1173 0.929 . S
H1186 C1174 0.960 . S
H1187 C1174 0.962 . S
H1188 C1174 0.960 . S
H1189 C1175 0.961 . S
H1190 C1175 0.961 . S
H1191 C1175 0.961 . S
H1192 C1176 0.931 . S
H1193 C1181 0.930 . S
H1194 C1182 0.956 . S
H1195 C1182 0.961 . S
H1196 C1182 0.961 . S
H1197 C1183 0.958 . S
H1198 C1183 0.961 . S
H1199 C1183 0.960 . S
C1200 C1201 1.391 . S
C1200 C1202 1.394 . S
C1200 H1216 0.931 . S
C1201 C1200 1.391 . S
C1201 C1205 1.376 . S
C1202 C1200 1.394 . S
C1202 C1203 1.369 . S
C1202 C1206 1.531 . S
C1203 C1202 1.369 . S
C1203 C1204 1.410 . S
C1203 C1211 1.503 1_565 S
C1204 C1203 1.410 . S
C1204 C1205 1.392 . S
C1204 C1207 1.511 1_565 S
C1205 C1201 1.376 . S
C1205 C1204 1.392 . S
C1205 H1217 0.929 . S
C1206 C1202 1.531 . S
C1206 H1218 0.960 . S
C1206 H1219 0.962 . S
C1206 H1220 0.960 . S
C1207 C1204 1.511 1_545 S
C1207 H1221 0.961 1_545 S
C1207 H1222 0.961 . S
C1207 H1223 0.961 . S
C1208 C1209 1.370 . S
C1208 C1210 1.363 . S
C1208 H1224 0.931 . S
C1209 C1208 1.370 . S
C1209 C1213 1.408 . S
C1210 C1208 1.363 . S
C1210 C1211 1.370 . S
C1210 C1214 1.530 . S
C1211 C1203 1.503 1_545 S
C1211 C1210 1.370 . S
C1211 C1212 1.403 . S
C1212 C1211 1.403 . S
C1212 C1213 1.404 . S
C1212 C1215 1.539 . S
C1213 C1209 1.408 . S
C1213 C1212 1.404 . S
C1213 H1225 0.930 . S
C1214 C1210 1.530 . S
C1214 H1226 0.950 1_545 S
C1214 H1227 0.958 1_545 S
C1214 H1228 0.964 . S
C1215 C1212 1.539 . S
C1215 H1229 0.958 . S
C1215 H1230 0.961 . S
C1215 H1231 0.960 . S
H1216 C1200 0.931 . S
H1217 C1205 0.929 . S
H1218 C1206 0.960 . S
H1219 C1206 0.962 . S
H1220 C1206 0.960 . S
H1221 C1207 0.961 1_565 S
H1222 C1207 0.961 . S
H1223 C1207 0.961 . S
H1224 C1208 0.931 . S
H1225 C1213 0.930 . S
H1226 C1214 0.950 1_565 S
H1227 C1214 0.958 1_565 S
H1228 C1214 0.964 . S
H1229 C1215 0.958 . S
H1230 C1215 0.961 . S
H1231 C1215 0.960 . S
C1232 C1233 1.391 1_545 S
C1232 C1234 1.394 . S
C1232 H1248 0.931 . S
C1233 C1232 1.391 1_565 S
C1233 C1237 1.376 . S
C1234 C1232 1.394 . S
C1234 C1235 1.369 . S
C1234 C1238 1.531 . S
C1235 C1234 1.369 . S
C1235 C1236 1.425 . S
C1235 C1243 1.503 . S
C1236 C1235 1.425 . S
C1236 C1237 1.380 1_545 S
C1236 C1239 1.508 1_545 S
C1237 C1233 1.376 . S
C1237 C1236 1.380 1_565 S
C1237 H1249 0.929 . S
C1238 C1234 1.531 . S
C1238 H1250 0.960 . S
C1238 H1251 0.962 . S
C1238 H1252 0.960 . S
C1239 C1236 1.508 1_565 S
C1239 H1253 0.961 . S
C1239 H1254 0.961 . S
C1239 H1255 0.961 1_565 S
C1240 C1241 1.370 . S
C1240 C1242 1.363 . S
C1240 H1256 0.931 . S
C1241 C1240 1.370 . S
C1241 C1245 1.408 . S
C1242 C1240 1.363 . S
C1242 C1243 1.370 . S
C1242 C1246 1.524 1_545 S
C1243 C1235 1.503 . S
C1243 C1242 1.370 . S
C1243 C1244 1.403 . S
C1244 C1243 1.403 . S
C1244 C1245 1.404 . S
C1244 C1247 1.539 . S
C1245 C1241 1.408 . S
C1245 C1244 1.404 . S
C1245 H1257 0.930 . S
C1246 C1242 1.524 1_565 S
C1246 H1258 0.956 . S
C1246 H1259 0.961 . S
C1246 H1260 0.961 . S
C1247 C1244 1.539 . S
C1247 H1261 0.958 . S
C1247 H1262 0.961 . S
C1247 H1263 0.960 . S
H1248 C1232 0.931 . S
H1249 C1237 0.929 . S
H1250 C1238 0.960 . S
H1251 C1238 0.962 . S
H1252 C1238 0.960 . S
H1253 C1239 0.961 . S
H1254 C1239 0.961 . S
H1255 C1239 0.961 1_545 S
H1256 C1240 0.931 . S
H1257 C1245 0.930 . S
H1258 C1246 0.956 . S
H1259 C1246 0.961 . S
H1260 C1246 0.961 . S
H1261 C1247 0.958 . S
H1262 C1247 0.961 . S
H1263 C1247 0.960 . S
C1264 C1265 1.391 . S
C1264 C1266 1.394 . S
C1264 H1280 0.931 . S
C1265 C1264 1.391 . S
C1265 C1269 1.376 . S
C1266 C1264 1.394 . S
C1266 C1267 1.369 . S
C1266 C1270 1.531 . S
C1267 C1266 1.369 . S
C1267 C1268 1.410 . S
C1267 C1275 1.503 . S
C1268 C1267 1.410 . S
C1268 C1269 1.392 . S
C1268 C1271 1.511 . S
C1269 C1265 1.376 . S
C1269 C1268 1.392 . S
C1269 H1281 0.929 . S
C1270 C1266 1.531 . S
C1270 H1282 0.960 . S
C1270 H1283 0.962 . S
C1270 H1284 0.960 . S
C1271 C1268 1.511 . S
C1271 H1285 0.961 1_565 S
C1271 H1286 0.961 1_565 S
C1271 H1287 0.961 . S
C1272 C1273 1.370 . S
C1272 C1274 1.363 . S
C1272 H1288 0.931 . S
C1273 C1272 1.370 . S
C1273 C1277 1.408 1_545 S
C1274 C1272 1.363 . S
C1274 C1275 1.370 1_545 S
C1274 C1278 1.524 . S
C1275 C1267 1.503 . S
C1275 C1274 1.370 1_565 S
C1275 C1276 1.403 . S
C1276 C1275 1.403 . S
C1276 C1277 1.404 . S
C1276 C1279 1.539 . S
C1277 C1273 1.408 1_565 S
C1277 C1276 1.404 . S
C1277 H1289 0.930 . S
C1278 C1274 1.524 . S
C1278 H1290 0.956 . S
C1278 H1291 0.961 . S
C1278 H1292 0.961 . S
C1279 C1276 1.539 . S
C1279 H1293 0.958 . S
C1279 H1294 0.961 . S
C1279 H1295 0.960 . S
H1280 C1264 0.931 . S
H1281 C1269 0.929 . S
H1282 C1270 0.960 . S
H1283 C1270 0.962 . S
H1284 C1270 0.960 . S
H1285 C1271 0.961 1_545 S
H1286 C1271 0.961 1_545 S
H1287 C1271 0.961 . S
H1288 C1272 0.931 . S
H1289 C1277 0.930 . S
H1290 C1278 0.956 . S
H1291 C1278 0.961 . S
H1292 C1278 0.961 . S
H1293 C1279 0.958 . S
H1294 C1279 0.961 . S
H1295 C1279 0.960 . S
C1296 C1297 1.391 . S
C1296 C1298 1.394 . S
C1296 H1312 0.931 . S
C1297 C1296 1.391 . S
C1297 C1301 1.376 . S
C1298 C1296 1.394 . S
C1298 C1299 1.369 . S
C1298 C1302 1.531 . S
C1299 C1298 1.369 . S
C1299 C1300 1.410 . S
C1299 C1307 1.503 . S
C1300 C1299 1.410 . S
C1300 C1301 1.392 . S
C1300 C1303 1.511 . S
C1301 C1297 1.376 . S
C1301 C1300 1.392 . S
C1301 H1313 0.929 . S
C1302 C1298 1.531 . S
C1302 H1314 0.960 . S
C1302 H1315 0.962 . S
C1302 H1316 0.960 . S
C1303 C1300 1.511 . S
C1303 H1317 0.961 . S
C1303 H1318 0.961 . S
C1303 H1319 0.961 1_655 S
C1304 C1305 1.370 . S
C1304 C1306 1.363 . S
C1304 H1320 0.931 . S
C1305 C1304 1.370 . S
C1305 C1309 1.408 1_655 S
C1306 C1304 1.363 . S
C1306 C1307 1.370 . S
C1306 C1310 1.524 . S
C1307 C1299 1.503 . S
C1307 C1306 1.370 . S
C1307 C1308 1.403 1_655 S
C1308 C1307 1.403 1_455 S
C1308 C1309 1.404 . S
C1308 C1311 1.539 . S
C1309 C1305 1.408 1_455 S
C1309 C1308 1.404 . S
C1309 H1321 0.930 . S
C1310 C1306 1.524 . S
C1310 H1322 0.956 . S
C1310 H1323 0.961 . S
C1310 H1324 0.961 . S
C1311 C1308 1.539 . S
C1311 H1325 0.958 . S
C1311 H1326 0.961 . S
C1311 H1327 0.960 . S
H1312 C1296 0.931 . S
H1313 C1301 0.929 . S
H1314 C1302 0.960 . S
H1315 C1302 0.962 . S
H1316 C1302 0.960 . S
H1317 C1303 0.961 . S
H1318 C1303 0.961 . S
H1319 C1303 0.961 1_455 S
H1320 C1304 0.931 . S
H1321 C1309 0.930 . S
H1322 C1310 0.956 . S
H1323 C1310 0.961 . S
H1324 C1310 0.961 . S
H1325 C1311 0.958 . S
H1326 C1311 0.961 . S
H1327 C1311 0.960 . S
C1328 C1329 1.391 . S
C1328 C1330 1.394 . S
C1328 H1344 0.931 1_455 S
C1329 C1328 1.391 . S
C1329 C1333 1.376 . S
C1330 C1328 1.394 . S
C1330 C1331 1.369 . S
C1330 C1334 1.531 . S
C1331 C1330 1.369 . S
C1331 C1332 1.410 . S
C1331 C1339 1.503 . S
C1332 C1331 1.410 . S
C1332 C1333 1.392 . S
C1332 C1335 1.511 . S
C1333 C1329 1.376 . S
C1333 C1332 1.392 . S
C1333 H1345 0.929 . S
C1334 C1330 1.531 . S
C1334 H1346 0.960 . S
C1334 H1347 0.962 . S
C1334 H1348 0.960 1_455 S
C1335 C1332 1.511 . S
C1335 H1349 0.961 . S
C1335 H1350 0.961 . S
C1335 H1351 0.961 . S
C1336 C1337 1.370 . S
C1336 C1338 1.363 . S
C1336 H1352 0.931 . S
C1337 C1336 1.370 . S
C1337 C1341 1.408 . S
C1338 C1336 1.363 . S
C1338 C1339 1.370 . S
C1338 C1342 1.524 . S
C1339 C1331 1.503 . S
C1339 C1338 1.370 . S
C1339 C1340 1.403 . S
C1340 C1339 1.403 . S
C1340 C1341 1.404 . S
C1340 C1343 1.539 1_455 S
C1341 C1337 1.408 . S
C1341 C1340 1.404 . S
C1341 H1353 0.930 . S
C1342 C1338 1.524 . S
C1342 H1354 0.956 . S
C1342 H1355 0.961 . S
C1342 H1356 0.961 . S
C1343 C1340 1.539 1_655 S
C1343 H1357 0.958 . S
C1343 H1358 0.961 . S
C1343 H1359 0.960 . S
H1344 C1328 0.931 1_655 S
H1345 C1333 0.929 . S
H1346 C1334 0.960 . S
H1347 C1334 0.962 . S
H1348 C1334 0.960 1_655 S
H1349 C1335 0.961 . S
H1350 C1335 0.961 . S
H1351 C1335 0.961 . S
H1352 C1336 0.931 . S
H1353 C1341 0.930 . S
H1354 C1342 0.956 . S
H1355 C1342 0.961 . S
H1356 C1342 0.961 . S
H1357 C1343 0.958 . S
H1358 C1343 0.961 . S
H1359 C1343 0.960 . S
C1360 C1361 1.391 . S
C1360 C1362 1.394 . S
C1360 H1376 0.931 . S
C1361 C1360 1.391 . S
C1361 C1365 1.376 . S
C1362 C1360 1.394 . S
C1362 C1363 1.369 . S
C1362 C1366 1.531 . S
C1363 C1362 1.369 . S
C1363 C1364 1.410 . S
C1363 C1371 1.503 . S
C1364 C1363 1.410 . S
C1364 C1365 1.392 . S
C1364 C1367 1.511 . S
C1365 C1361 1.376 . S
C1365 C1364 1.392 . S
C1365 H1377 0.929 . S
C1366 C1362 1.531 . S
C1366 H1378 0.960 . S
C1366 H1379 0.962 . S
C1366 H1380 0.960 . S
C1367 C1364 1.511 . S
C1367 H1381 0.961 . S
C1367 H1382 0.961 . S
C1367 H1383 0.961 . S
C1368 C1369 1.370 . S
C1368 C1370 1.363 . S
C1368 H1384 0.931 . S
C1369 C1368 1.370 . S
C1369 C1373 1.408 . S
C1370 C1368 1.363 . S
C1370 C1371 1.370 . S
C1370 C1374 1.524 . S
C1371 C1363 1.503 . S
C1371 C1370 1.370 . S
C1371 C1372 1.403 . S
C1372 C1371 1.403 . S
C1372 C1373 1.404 . S
C1372 C1375 1.539 . S
C1373 C1369 1.408 . S
C1373 C1372 1.404 . S
C1373 H1385 0.930 . S
C1374 C1370 1.524 . S
C1374 H1386 0.956 . S
C1374 H1387 0.961 . S
C1374 H1388 0.961 . S
C1375 C1372 1.539 . S
C1375 H1389 0.958 . S
C1375 H1390 0.961 . S
C1375 H1391 0.960 . S
H1376 C1360 0.931 . S
H1377 C1365 0.929 . S
H1378 C1366 0.960 . S
H1379 C1366 0.962 . S
H1380 C1366 0.960 . S
H1381 C1367 0.961 . S
H1382 C1367 0.961 . S
H1383 C1367 0.961 . S
H1384 C1368 0.931 . S
H1385 C1373 0.930 . S
H1386 C1374 0.956 . S
H1387 C1374 0.961 . S
H1388 C1374 0.961 . S
H1389 C1375 0.958 . S
H1390 C1375 0.961 . S
H1391 C1375 0.960 . S
C1392 C1393 1.391 . S
C1392 C1394 1.394 . S
C1392 H1408 0.931 . S
C1393 C1392 1.391 . S
C1393 C1397 1.376 . S
C1394 C1392 1.394 . S
C1394 C1395 1.369 . S
C1394 C1398 1.531 . S
C1395 C1394 1.369 . S
C1395 C1396 1.410 . S
C1395 C1403 1.503 . S
C1396 C1395 1.410 . S
C1396 C1397 1.392 . S
C1396 C1399 1.511 . S
C1397 C1393 1.376 . S
C1397 C1396 1.392 . S
C1397 H1409 0.929 . S
C1398 C1394 1.531 . S
C1398 H1410 0.960 . S
C1398 H1411 0.962 . S
C1398 H1412 0.960 . S
C1399 C1396 1.511 . S
C1399 H1413 0.961 . S
C1399 H1414 0.961 . S
C1399 H1415 0.961 . S
C1400 C1401 1.370 . S
C1400 C1402 1.363 . S
C1400 H1416 0.931 . S
C1401 C1400 1.370 . S
C1401 C1405 1.408 . S
C1402 C1400 1.363 . S
C1402 C1403 1.370 . S
C1402 C1406 1.524 . S
C1403 C1395 1.503 . S
C1403 C1402 1.370 . S
C1403 C1404 1.403 . S
C1404 C1403 1.403 . S
C1404 C1405 1.404 . S
C1404 C1407 1.539 . S
C1405 C1401 1.408 . S
C1405 C1404 1.404 . S
C1405 H1417 0.930 . S
C1406 C1402 1.524 . S
C1406 H1418 0.956 . S
C1406 H1419 0.961 . S
C1406 H1420 0.961 . S
C1407 C1404 1.539 . S
C1407 H1421 0.958 . S
C1407 H1422 0.961 . S
C1407 H1423 0.960 . S
H1408 C1392 0.931 . S
H1409 C1397 0.929 . S
H1410 C1398 0.960 . S
H1411 C1398 0.962 . S
H1412 C1398 0.960 . S
H1413 C1399 0.961 . S
H1414 C1399 0.961 . S
H1415 C1399 0.961 . S
H1416 C1400 0.931 . S
H1417 C1405 0.930 . S
H1418 C1406 0.956 . S
H1419 C1406 0.961 . S
H1420 C1406 0.961 . S
H1421 C1407 0.958 . S
H1422 C1407 0.961 . S
H1423 C1407 0.960 . S
C1424 C1425 1.391 . S
C1424 C1426 1.394 . S
C1424 H1440 0.931 . S
C1425 C1424 1.391 . S
C1425 C1429 1.376 1_655 S
C1426 C1424 1.394 . S
C1426 C1427 1.369 . S
C1426 C1430 1.531 . S
C1427 C1426 1.369 . S
C1427 C1428 1.410 1_655 S
C1427 C1435 1.503 1_554 S
C1428 C1427 1.410 1_455 S
C1428 C1429 1.392 . S
C1428 C1431 1.511 1_554 S
C1429 C1425 1.376 1_455 S
C1429 C1428 1.392 . S
C1429 H1441 0.929 . S
C1430 C1426 1.531 . S
C1430 H1442 0.960 . S
C1430 H1443 0.962 . S
C1430 H1444 0.960 . S
C1431 C1428 1.511 1_556 S
C1431 H1445 0.961 . S
C1431 H1446 0.961 . S
C1431 H1447 0.961 . S
C1432 C1433 1.370 . S
C1432 C1434 1.363 . S
C1432 H1448 0.931 . S
C1433 C1432 1.370 . S
C1433 C1437 1.408 . S
C1434 C1432 1.363 . S
C1434 C1435 1.370 . S
C1434 C1438 1.524 . S
C1435 C1427 1.503 1_556 S
C1435 C1434 1.370 . S
C1435 C1436 1.403 . S
C1436 C1435 1.403 . S
C1436 C1437 1.404 . S
C1436 C1439 1.554 . S
C1437 C1433 1.408 . S
C1437 C1436 1.404 . S
C1437 H1449 0.930 . S
C1438 C1434 1.524 . S
C1438 H1450 0.956 . S
C1438 H1451 0.961 . S
C1438 H1452 0.961 . S
C1439 C1436 1.554 . S
C1439 H1453 0.946 1_556 S
C1439 H1454 0.973 . S
C1439 H1455 0.975 1_556 S
H1440 C1424 0.931 . S
H1441 C1429 0.929 . S
H1442 C1430 0.960 . S
H1443 C1430 0.962 . S
H1444 C1430 0.960 . S
H1445 C1431 0.961 . S
H1446 C1431 0.961 . S
H1447 C1431 0.961 . S
H1448 C1432 0.931 . S
H1449 C1437 0.930 . S
H1450 C1438 0.956 . S
H1451 C1438 0.961 . S
H1452 C1438 0.961 . S
H1453 C1439 0.946 1_554 S
H1454 C1439 0.973 . S
H1455 C1439 0.975 1_554 S
C1456 C1457 1.391 . S
C1456 C1458 1.394 . S
C1456 H1472 0.931 . S
C1457 C1456 1.391 . S
C1457 C1461 1.376 1_455 S
C1458 C1456 1.394 . S
C1458 C1459 1.369 . S
C1458 C1462 1.531 . S
C1459 C1458 1.369 . S
C1459 C1460 1.410 1_455 S
C1459 C1467 1.503 1_554 S
C1460 C1459 1.410 1_655 S
C1460 C1461 1.392 . S
C1460 C1463 1.511 . S
C1461 C1457 1.376 1_655 S
C1461 C1460 1.392 . S
C1461 H1473 0.929 . S
C1462 C1458 1.531 . S
C1462 H1474 0.960 . S
C1462 H1475 0.962 . S
C1462 H1476 0.960 . S
C1463 C1460 1.511 . S
C1463 H1477 0.961 . S
C1463 H1478 0.961 1_554 S
C1463 H1479 0.961 . S
C1464 C1465 1.370 . S
C1464 C1466 1.363 . S
C1464 H1480 0.931 . S
C1465 C1464 1.370 . S
C1465 C1469 1.408 . S
C1466 C1464 1.363 . S
C1466 C1467 1.370 . S
C1466 C1470 1.524 . S
C1467 C1459 1.503 1_556 S
C1467 C1466 1.370 . S
C1467 C1468 1.403 . S
C1468 C1467 1.403 . S
C1468 C1469 1.404 . S
C1468 C1471 1.539 1_556 S
C1469 C1465 1.408 . S
C1469 C1468 1.404 . S
C1469 H1481 0.930 . S
C1470 C1466 1.524 . S
C1470 H1482 0.956 . S
C1470 H1483 0.961 . S
C1470 H1484 0.961 . S
C1471 C1468 1.539 1_554 S
C1471 H1485 0.958 . S
C1471 H1486 0.961 1_554 S
C1471 H1487 0.960 . S
H1472 C1456 0.931 . S
H1473 C1461 0.929 . S
H1474 C1462 0.960 . S
H1475 C1462 0.962 . S
H1476 C1462 0.960 . S
H1477 C1463 0.961 . S
H1478 C1463 0.961 1_556 S
H1479 C1463 0.961 . S
H1480 C1464 0.931 . S
H1481 C1469 0.930 . S
H1482 C1470 0.956 . S
H1483 C1470 0.961 . S
H1484 C1470 0.961 . S
H1485 C1471 0.958 . S
H1486 C1471 0.961 1_556 S
H1487 C1471 0.960 . S
C1488 C1489 1.391 1_545 S
C1488 C1490 1.394 . S
C1488 H1504 0.931 . S
C1489 C1488 1.391 1_565 S
C1489 C1493 1.376 . S
C1490 C1488 1.394 . S
C1490 C1491 1.369 . S
C1490 C1494 1.531 . S
C1491 C1490 1.369 . S
C1491 C1492 1.410 1_545 S
C1491 C1499 1.503 . S
C1492 C1491 1.410 1_565 S
C1492 C1493 1.392 . S
C1492 C1495 1.511 . S
C1493 C1489 1.376 . S
C1493 C1492 1.392 . S
C1493 H1505 0.929 . S
C1494 C1490 1.531 . S
C1494 H1506 0.960 . S
C1494 H1507 0.962 . S
C1494 H1508 0.960 . S
C1495 C1492 1.511 . S
C1495 H1509 0.961 . S
C1495 H1510 0.961 . S
C1495 H1511 0.961 . S
C1496 C1497 1.370 . S
C1496 C1498 1.363 . S
C1496 H1512 0.931 . S
C1497 C1496 1.370 . S
C1497 C1501 1.408 . S
C1498 C1496 1.363 . S
C1498 C1499 1.370 . S
C1498 C1502 1.524 1_545 S
C1499 C1491 1.503 . S
C1499 C1498 1.370 . S
C1499 C1500 1.403 . S
C1500 C1499 1.403 . S
C1500 C1501 1.404 . S
C1500 C1503 1.539 . S
C1501 C1497 1.408 . S
C1501 C1500 1.404 . S
C1501 H1513 0.930 . S
C1502 C1498 1.524 1_565 S
C1502 H1514 0.956 1_565 S
C1502 H1515 0.961 . S
C1502 H1516 0.961 . S
C1503 C1500 1.539 . S
C1503 H1517 0.958 . S
C1503 H1518 0.961 . S
C1503 H1519 0.960 . S
H1504 C1488 0.931 . S
H1505 C1493 0.929 . S
H1506 C1494 0.960 . S
H1507 C1494 0.962 . S
H1508 C1494 0.960 . S
H1509 C1495 0.961 . S
H1510 C1495 0.961 . S
H1511 C1495 0.961 . S
H1512 C1496 0.931 . S
H1513 C1501 0.930 . S
H1514 C1502 0.956 1_545 S
H1515 C1502 0.961 . S
H1516 C1502 0.961 . S
H1517 C1503 0.958 . S
H1518 C1503 0.961 . S
H1519 C1503 0.960 . S
C1520 C1521 1.391 . S
C1520 C1522 1.394 . S
C1520 H1536 0.931 . S
C1521 C1520 1.391 . S
C1521 C1525 1.376 1_545 S
C1522 C1520 1.394 . S
C1522 C1523 1.369 1_545 S
C1522 C1526 1.531 . S
C1523 C1522 1.369 1_565 S
C1523 C1524 1.410 . S
C1523 C1531 1.503 . S
C1524 C1523 1.410 . S
C1524 C1525 1.392 . S
C1524 C1527 1.511 . S
C1525 C1521 1.376 1_565 S
C1525 C1524 1.392 . S
C1525 H1537 0.929 . S
C1526 C1522 1.531 . S
C1526 H1538 0.960 . S
C1526 H1539 0.962 . S
C1526 H1540 0.960 . S
C1527 C1524 1.511 . S
C1527 H1541 0.961 . S
C1527 H1542 0.961 . S
C1527 H1543 0.961 . S
C1528 C1529 1.370 . S
C1528 C1530 1.363 . S
C1528 H1544 0.931 . S
C1529 C1528 1.370 . S
C1529 C1533 1.408 . S
C1530 C1528 1.363 . S
C1530 C1531 1.370 . S
C1530 C1534 1.524 . S
C1531 C1523 1.503 . S
C1531 C1530 1.370 . S
C1531 C1532 1.403 . S
C1532 C1531 1.403 . S
C1532 C1533 1.404 . S
C1532 C1535 1.539 . S
C1533 C1529 1.408 . S
C1533 C1532 1.404 . S
C1533 H1545 0.930 . S
C1534 C1530 1.524 . S
C1534 H1546 0.956 . S
C1534 H1547 0.961 . S
C1534 H1548 0.961 . S
C1535 C1532 1.539 . S
C1535 H1549 0.958 1_565 S
C1535 H1550 0.961 . S
C1535 H1551 0.960 . S
H1536 C1520 0.931 . S
H1537 C1525 0.929 . S
H1538 C1526 0.960 . S
H1539 C1526 0.962 . S
H1540 C1526 0.960 . S
H1541 C1527 0.961 . S
H1542 C1527 0.961 . S
H1543 C1527 0.961 . S
H1544 C1528 0.931 . S
H1545 C1533 0.930 . S
H1546 C1534 0.956 . S
H1547 C1534 0.961 . S
H1548 C1534 0.961 . S
H1549 C1535 0.958 1_545 S
H1550 C1535 0.961 . S
H1551 C1535 0.960 . S
C1552 C1553 1.391 . S
C1552 C1554 1.394 . S
C1552 H1568 0.931 . S
C1553 C1552 1.391 . S
C1553 C1557 1.376 . S
C1554 C1552 1.394 . S
C1554 C1555 1.369 . S
C1554 C1558 1.531 . S
C1555 C1554 1.369 . S
C1555 C1556 1.410 . S
C1555 C1563 1.503 1_554 S
C1556 C1555 1.410 . S
C1556 C1557 1.392 . S
C1556 C1559 1.511 1_554 S
C1557 C1553 1.376 . S
C1557 C1556 1.392 . S
C1557 H1569 0.929 . S
C1558 C1554 1.531 . S
C1558 H1570 0.960 . S
C1558 H1571 0.962 . S
C1558 H1572 0.960 . S
C1559 C1556 1.511 1_556 S
C1559 H1573 0.961 . S
C1559 H1574 0.961 . S
C1559 H1575 0.961 . S
C1560 C1561 1.370 . S
C1560 C1562 1.363 . S
C1560 H1576 0.931 . S
C1561 C1560 1.370 . S
C1561 C1565 1.408 . S
C1562 C1560 1.363 . S
C1562 C1563 1.370 . S
C1562 C1566 1.524 . S
C1563 C1555 1.503 1_556 S
C1563 C1562 1.370 . S
C1563 C1564 1.403 . S
C1564 C1563 1.403 . S
C1564 C1565 1.404 . S
C1564 C1567 1.539 . S
C1565 C1561 1.408 . S
C1565 C1564 1.404 . S
C1565 H1577 0.930 . S
C1566 C1562 1.524 . S
C1566 H1578 0.956 . S
C1566 H1579 0.961 . S
C1566 H1580 0.961 . S
C1567 C1564 1.539 . S
C1567 H1581 0.958 1_556 S
C1567 H1582 0.961 . S
C1567 H1583 0.960 1_556 S
H1568 C1552 0.931 . S
H1569 C1557 0.929 . S
H1570 C1558 0.960 . S
H1571 C1558 0.962 . S
H1572 C1558 0.960 . S
H1573 C1559 0.961 . S
H1574 C1559 0.961 . S
H1575 C1559 0.961 . S
H1576 C1560 0.931 . S
H1577 C1565 0.930 . S
H1578 C1566 0.956 . S
H1579 C1566 0.961 . S
H1580 C1566 0.961 . S
H1581 C1567 0.958 1_554 S
H1582 C1567 0.961 . S
H1583 C1567 0.960 1_554 S
C1584 C1585 1.391 . S
C1584 C1586 1.394 . S
C1584 H1600 0.931 . S
C1585 C1584 1.391 . S
C1585 C1589 1.376 . S
C1586 C1584 1.394 . S
C1586 C1587 1.369 . S
C1586 C1590 1.531 . S
C1587 C1586 1.369 . S
C1587 C1588 1.410 . S
C1587 C1595 1.503 1_554 S
C1588 C1587 1.410 . S
C1588 C1589 1.392 . S
C1588 C1591 1.511 1_554 S
C1589 C1585 1.376 . S
C1589 C1588 1.392 . S
C1589 H1601 0.929 . S
C1590 C1586 1.531 . S
C1590 H1602 0.960 . S
C1590 H1603 0.962 . S
C1590 H1604 0.960 . S
C1591 C1588 1.511 1_556 S
C1591 H1605 0.961 . S
C1591 H1606 0.961 . S
C1591 H1607 0.961 . S
C1592 C1593 1.370 . S
C1592 C1594 1.363 . S
C1592 H1608 0.931 . S
C1593 C1592 1.370 . S
C1593 C1597 1.408 . S
C1594 C1592 1.363 . S
C1594 C1595 1.370 . S
C1594 C1598 1.524 . S
C1595 C1587 1.503 1_556 S
C1595 C1594 1.370 . S
C1595 C1596 1.403 . S
C1596 C1595 1.403 . S
C1596 C1597 1.404 . S
C1596 C1599 1.539 . S
C1597 C1593 1.408 . S
C1597 C1596 1.404 . S
C1597 H1609 0.930 . S
C1598 C1594 1.524 . S
C1598 H1610 0.956 . S
C1598 H1611 0.961 . S
C1598 H1612 0.961 . S
C1599 C1596 1.539 . S
C1599 H1613 0.958 1_556 S
C1599 H1614 0.961 . S
C1599 H1615 0.960 1_556 S
H1600 C1584 0.931 . S
H1601 C1589 0.929 . S
H1602 C1590 0.960 . S
H1603 C1590 0.962 . S
H1604 C1590 0.960 . S
H1605 C1591 0.961 . S
H1606 C1591 0.961 . S
H1607 C1591 0.961 . S
H1608 C1592 0.931 . S
H1609 C1597 0.930 . S
H1610 C1598 0.956 . S
H1611 C1598 0.961 . S
H1612 C1598 0.961 . S
H1613 C1599 0.958 1_554 S
H1614 C1599 0.961 . S
H1615 C1599 0.960 1_554 S
C1616 C1617 1.391 . S
C1616 C1618 1.394 . S
C1616 H1632 0.931 . S
C1617 C1616 1.391 . S
C1617 C1621 1.376 . S
C1618 C1616 1.394 . S
C1618 C1619 1.369 . S
C1618 C1622 1.531 . S
C1619 C1618 1.369 . S
C1619 C1620 1.410 . S
C1619 C1627 1.503 . S
C1620 C1619 1.410 . S
C1620 C1621 1.392 . S
C1620 C1623 1.511 . S
C1621 C1617 1.376 . S
C1621 C1620 1.392 . S
C1621 H1633 0.929 . S
C1622 C1618 1.531 . S
C1622 H1634 0.960 . S
C1622 H1635 0.962 . S
C1622 H1636 0.960 . S
C1623 C1620 1.511 . S
C1623 H1637 0.961 . S
C1623 H1638 0.961 . S
C1623 H1639 0.961 . S
C1624 C1625 1.370 . S
C1624 C1626 1.363 . S
C1624 H1640 0.931 . S
C1625 C1624 1.370 . S
C1625 C1629 1.408 . S
C1626 C1624 1.363 . S
C1626 C1627 1.370 . S
C1626 C1630 1.524 . S
C1627 C1619 1.503 . S
C1627 C1626 1.370 . S
C1627 C1628 1.403 . S
C1628 C1627 1.403 . S
C1628 C1629 1.404 . S
C1628 C1631 1.539 . S
C1629 C1625 1.408 . S
C1629 C1628 1.404 . S
C1629 H1641 0.930 . S
C1630 C1626 1.524 . S
C1630 H1642 0.956 . S
C1630 H1643 0.961 . S
C1630 H1644 0.961 . S
C1631 C1628 1.539 . S
C1631 H1645 0.958 . S
C1631 H1646 0.961 . S
C1631 H1647 0.960 . S
H1632 C1616 0.931 . S
H1633 C1621 0.929 . S
H1634 C1622 0.960 . S
H1635 C1622 0.962 . S
H1636 C1622 0.960 . S
H1637 C1623 0.961 . S
H1638 C1623 0.961 . S
H1639 C1623 0.961 . S
H1640 C1624 0.931 . S
H1641 C1629 0.930 . S
H1642 C1630 0.956 . S
H1643 C1630 0.961 . S
H1644 C1630 0.961 . S
H1645 C1631 0.958 . S
H1646 C1631 0.961 . S
H1647 C1631 0.960 . S
C1648 C1649 1.391 . S
C1648 C1650 1.394 . S
C1648 H1664 0.931 . S
C1649 C1648 1.391 . S
C1649 C1653 1.376 . S
C1650 C1648 1.394 . S
C1650 C1651 1.369 . S
C1650 C1654 1.531 . S
C1651 C1650 1.369 . S
C1651 C1652 1.410 . S
C1651 C1659 1.503 . S
C1652 C1651 1.410 . S
C1652 C1653 1.392 . S
C1652 C1655 1.511 . S
C1653 C1649 1.376 . S
C1653 C1652 1.392 . S
C1653 H1665 0.929 . S
C1654 C1650 1.531 . S
C1654 H1666 0.960 . S
C1654 H1667 0.962 . S
C1654 H1668 0.960 . S
C1655 C1652 1.511 . S
C1655 H1669 0.961 . S
C1655 H1670 0.961 . S
C1655 H1671 0.961 . S
C1656 C1657 1.370 . S
C1656 C1658 1.363 . S
C1656 H1672 0.931 . S
C1657 C1656 1.370 . S
C1657 C1661 1.408 . S
C1658 C1656 1.363 . S
C1658 C1659 1.370 . S
C1658 C1662 1.524 . S
C1659 C1651 1.503 . S
C1659 C1658 1.370 . S
C1659 C1660 1.403 . S
C1660 C1659 1.403 . S
C1660 C1661 1.404 . S
C1660 C1663 1.539 . S
C1661 C1657 1.408 . S
C1661 C1660 1.404 . S
C1661 H1673 0.930 . S
C1662 C1658 1.524 . S
C1662 H1674 0.956 . S
C1662 H1675 0.961 . S
C1662 H1676 0.961 . S
C1663 C1660 1.539 . S
C1663 H1677 0.958 . S
C1663 H1678 0.961 . S
C1663 H1679 0.960 . S
H1664 C1648 0.931 . S
H1665 C1653 0.929 . S
H1666 C1654 0.960 . S
H1667 C1654 0.962 . S
H1668 C1654 0.960 . S
H1669 C1655 0.961 . S
H1670 C1655 0.961 . S
H1671 C1655 0.961 . S
H1672 C1656 0.931 . S
H1673 C1661 0.930 . S
H1674 C1662 0.956 . S
H1675 C1662 0.961 . S
H1676 C1662 0.961 . S
H1677 C1663 0.958 . S
H1678 C1663 0.961 . S
H1679 C1663 0.960 . S
C1680 C1681 1.391 . S
C1680 C1682 1.394 . S
C1680 H1696 0.931 . S
C1681 C1680 1.391 . S
C1681 C1685 1.376 . S
C1682 C1680 1.394 . S
C1682 C1683 1.369 . S
C1682 C1686 1.531 . S
C1683 C1682 1.369 . S
C1683 C1684 1.410 . S
C1683 C1691 1.503 . S
C1684 C1683 1.410 . S
C1684 C1685 1.392 . S
C1684 C1687 1.511 . S
C1685 C1681 1.376 . S
C1685 C1684 1.392 . S
C1685 H1697 0.929 . S
C1686 C1682 1.531 . S
C1686 H1698 0.960 . S
C1686 H1699 0.962 . S
C1686 H1700 0.960 . S
C1687 C1684 1.511 . S
C1687 H1701 0.961 . S
C1687 H1702 0.961 . S
C1687 H1703 0.961 . S
C1688 C1689 1.370 . S
C1688 C1690 1.363 . S
C1688 H1704 0.931 . S
C1689 C1688 1.370 . S
C1689 C1693 1.408 . S
C1690 C1688 1.363 . S
C1690 C1691 1.370 . S
C1690 C1694 1.524 . S
C1691 C1683 1.503 . S
C1691 C1690 1.370 . S
C1691 C1692 1.403 . S
C1692 C1691 1.403 . S
C1692 C1693 1.404 . S
C1692 C1695 1.539 . S
C1693 C1689 1.408 . S
C1693 C1692 1.404 . S
C1693 H1705 0.930 . S
C1694 C1690 1.524 . S
C1694 H1706 0.956 . S
C1694 H1707 0.961 . S
C1694 H1708 0.961 . S
C1695 C1692 1.539 . S
C1695 H1709 0.958 . S
C1695 H1710 0.961 . S
C1695 H1711 0.960 . S
H1696 C1680 0.931 . S
H1697 C1685 0.929 . S
H1698 C1686 0.960 . S
H1699 C1686 0.962 . S
H1700 C1686 0.960 . S
H1701 C1687 0.961 . S
H1702 C1687 0.961 . S
H1703 C1687 0.961 . S
H1704 C1688 0.931 . S
H1705 C1693 0.930 . S
H1706 C1694 0.956 . S
H1707 C1694 0.961 . S
H1708 C1694 0.961 . S
H1709 C1695 0.958 . S
H1710 C1695 0.961 . S
H1711 C1695 0.960 . S
C1712 C1713 1.391 . S
C1712 C1714 1.394 . S
C1712 H1728 0.931 . S
C1713 C1712 1.391 . S
C1713 C1717 1.376 . S
C1714 C1712 1.394 . S
C1714 C1715 1.369 . S
C1714 C1718 1.531 . S
C1715 C1714 1.369 . S
C1715 C1716 1.410 . S
C1715 C1723 1.503 . S
C1716 C1715 1.410 . S
C1716 C1717 1.392 . S
C1716 C1719 1.511 . S
C1717 C1713 1.376 . S
C1717 C1716 1.392 . S
C1717 H1729 0.929 . S
C1718 C1714 1.531 . S
C1718 H1730 0.960 . S
C1718 H1731 0.962 . S
C1718 H1732 0.960 . S
C1719 C1716 1.511 . S
C1719 H1733 0.961 . S
C1719 H1734 0.961 . S
C1719 H1735 0.961 . S
C1720 C1721 1.370 . S
C1720 C1722 1.363 . S
C1720 H1736 0.931 . S
C1721 C1720 1.370 . S
C1721 C1725 1.408 . S
C1722 C1720 1.363 . S
C1722 C1723 1.370 . S
C1722 C1726 1.524 . S
C1723 C1715 1.503 . S
C1723 C1722 1.370 . S
C1723 C1724 1.403 . S
C1724 C1723 1.403 . S
C1724 C1725 1.404 . S
C1724 C1727 1.539 . S
C1725 C1721 1.408 . S
C1725 C1724 1.404 . S
C1725 H1737 0.930 . S
C1726 C1722 1.524 . S
C1726 H1738 0.956 . S
C1726 H1739 0.961 . S
C1726 H1740 0.961 . S
C1727 C1724 1.539 . S
C1727 H1741 0.958 . S
C1727 H1742 0.961 . S
C1727 H1743 0.960 . S
H1728 C1712 0.931 . S
H1729 C1717 0.929 . S
H1730 C1718 0.960 . S
H1731 C1718 0.962 . S
H1732 C1718 0.960 . S
H1733 C1719 0.961 . S
H1734 C1719 0.961 . S
H1735 C1719 0.961 . S
H1736 C1720 0.931 . S
H1737 C1725 0.930 . S
H1738 C1726 0.956 . S
H1739 C1726 0.961 . S
H1740 C1726 0.961 . S
H1741 C1727 0.958 . S
H1742 C1727 0.961 . S
H1743 C1727 0.960 . S
C1744 C1745 1.391 . S
C1744 C1746 1.394 . S
C1744 H1760 0.931 . S
C1745 C1744 1.391 . S
C1745 C1749 1.376 . S
C1746 C1744 1.394 . S
C1746 C1747 1.369 . S
C1746 C1750 1.531 . S
C1747 C1746 1.369 . S
C1747 C1748 1.410 . S
C1747 C1755 1.503 . S
C1748 C1747 1.410 . S
C1748 C1749 1.392 . S
C1748 C1751 1.511 . S
C1749 C1745 1.376 . S
C1749 C1748 1.392 . S
C1749 H1761 0.929 . S
C1750 C1746 1.531 . S
C1750 H1762 0.960 . S
C1750 H1763 0.962 . S
C1750 H1764 0.960 . S
C1751 C1748 1.511 . S
C1751 H1765 0.961 . S
C1751 H1766 0.961 . S
C1751 H1767 0.961 . S
C1752 C1753 1.370 . S
C1752 C1754 1.363 . S
C1752 H1768 0.931 . S
C1753 C1752 1.370 . S
C1753 C1757 1.408 . S
C1754 C1752 1.363 . S
C1754 C1755 1.370 . S
C1754 C1758 1.524 . S
C1755 C1747 1.503 . S
C1755 C1754 1.370 . S
C1755 C1756 1.403 . S
C1756 C1755 1.403 . S
C1756 C1757 1.404 . S
C1756 C1759 1.539 . S
C1757 C1753 1.408 . S
C1757 C1756 1.404 . S
C1757 H1769 0.930 . S
C1758 C1754 1.524 . S
C1758 H1770 0.956 . S
C1758 H1771 0.961 . S
C1758 H1772 0.961 . S
C1759 C1756 1.539 . S
C1759 H1773 0.958 . S
C1759 H1774 0.961 . S
C1759 H1775 0.960 . S
H1760 C1744 0.931 . S
H1761 C1749 0.929 . S
H1762 C1750 0.960 . S
H1763 C1750 0.962 . S
H1764 C1750 0.960 . S
H1765 C1751 0.961 . S
H1766 C1751 0.961 . S
H1767 C1751 0.961 . S
H1768 C1752 0.931 . S
H1769 C1757 0.930 . S
H1770 C1758 0.956 . S
H1771 C1758 0.961 . S
H1772 C1758 0.961 . S
H1773 C1759 0.958 . S
H1774 C1759 0.961 . S
H1775 C1759 0.960 . S
C1776 C1777 1.391 . S
C1776 C1778 1.394 . S
C1776 H1792 0.931 . S
C1777 C1776 1.391 . S
C1777 C1781 1.376 . S
C1778 C1776 1.394 . S
C1778 C1779 1.369 . S
C1778 C1782 1.531 . S
C1779 C1778 1.369 . S
C1779 C1780 1.410 . S
C1779 C1787 1.503 . S
C1780 C1779 1.410 . S
C1780 C1781 1.392 . S
C1780 C1783 1.511 . S
C1781 C1777 1.376 . S
C1781 C1780 1.392 . S
C1781 H1793 0.929 . S
C1782 C1778 1.531 . S
C1782 H1794 0.960 . S
C1782 H1795 0.962 . S
C1782 H1796 0.960 . S
C1783 C1780 1.511 . S
C1783 H1797 0.961 . S
C1783 H1798 0.961 . S
C1783 H1799 0.961 . S
C1784 C1785 1.370 . S
C1784 C1786 1.363 . S
C1784 H1800 0.931 . S
C1785 C1784 1.370 . S
C1785 C1789 1.408 . S
C1786 C1784 1.363 . S
C1786 C1787 1.370 . S
C1786 C1790 1.524 . S
C1787 C1779 1.503 . S
C1787 C1786 1.370 . S
C1787 C1788 1.403 . S
C1788 C1787 1.403 . S
C1788 C1789 1.404 . S
C1788 C1791 1.539 . S
C1789 C1785 1.408 . S
C1789 C1788 1.404 . S
C1789 H1801 0.930 . S
C1790 C1786 1.524 . S
C1790 H1802 0.956 . S
C1790 H1803 0.961 . S
C1790 H1804 0.961 . S
C1791 C1788 1.539 . S
C1791 H1805 0.958 . S
C1791 H1806 0.961 . S
C1791 H1807 0.960 . S
H1792 C1776 0.931 . S
H1793 C1781 0.929 . S
H1794 C1782 0.960 . S
H1795 C1782 0.962 . S
H1796 C1782 0.960 . S
H1797 C1783 0.961 . S
H1798 C1783 0.961 . S
H1799 C1783 0.961 . S
H1800 C1784 0.931 . S
H1801 C1789 0.930 . S
H1802 C1790 0.956 . S
H1803 C1790 0.961 . S
H1804 C1790 0.961 . S
H1805 C1791 0.958 . S
H1806 C1791 0.961 . S
H1807 C1791 0.960 . S
C1808 C1809 1.391 . S
C1808 C1810 1.394 . S
C1808 H1824 0.931 . S
C1809 C1808 1.391 . S
C1809 C1813 1.376 . S
C1810 C1808 1.394 . S
C1810 C1811 1.369 . S
C1810 C1814 1.531 . S
C1811 C1810 1.369 . S
C1811 C1812 1.410 . S
C1811 C1819 1.503 . S
C1812 C1811 1.410 . S
C1812 C1813 1.392 . S
C1812 C1815 1.511 . S
C1813 C1809 1.376 . S
C1813 C1812 1.392 . S
C1813 H1825 0.929 . S
C1814 C1810 1.531 . S
C1814 H1826 0.960 . S
C1814 H1827 0.962 . S
C1814 H1828 0.960 . S
C1815 C1812 1.511 . S
C1815 H1829 0.961 . S
C1815 H1830 0.961 . S
C1815 H1831 0.961 . S
C1816 C1817 1.370 . S
C1816 C1818 1.363 . S
C1816 H1832 0.931 . S
C1817 C1816 1.370 . S
C1817 C1821 1.408 . S
C1818 C1816 1.363 . S
C1818 C1819 1.370 . S
C1818 C1822 1.524 . S
C1819 C1811 1.503 . S
C1819 C1818 1.370 . S
C1819 C1820 1.403 . S
C1820 C1819 1.403 . S
C1820 C1821 1.404 . S
C1820 C1823 1.539 . S
C1821 C1817 1.408 . S
C1821 C1820 1.404 . S
C1821 H1833 0.930 . S
C1822 C1818 1.524 . S
C1822 H1834 0.956 . S
C1822 H1835 0.961 . S
C1822 H1836 0.961 . S
C1823 C1820 1.539 . S
C1823 H1837 0.958 . S
C1823 H1838 0.961 . S
C1823 H1839 0.960 . S
H1824 C1808 0.931 . S
H1825 C1813 0.929 . S
H1826 C1814 0.960 . S
H1827 C1814 0.962 . S
H1828 C1814 0.960 . S
H1829 C1815 0.961 . S
H1830 C1815 0.961 . S
H1831 C1815 0.961 . S
H1832 C1816 0.931 . S
H1833 C1821 0.930 . S
H1834 C1822 0.956 . S
H1835 C1822 0.961 . S
H1836 C1822 0.961 . S
H1837 C1823 0.958 . S
H1838 C1823 0.961 . S
H1839 C1823 0.960 . S
C1840 C1841 1.391 . S
C1840 C1842 1.394 . S
C1840 H1856 0.931 . S
C1841 C1840 1.391 . S
C1841 C1845 1.376 . S
C1842 C1840 1.394 . S
C1842 C1843 1.369 . S
C1842 C1846 1.531 . S
C1843 C1842 1.369 . S
C1843 C1844 1.410 . S
C1843 C1851 1.503 . S
C1844 C1843 1.410 . S
C1844 C1845 1.392 . S
C1844 C1847 1.511 . S
C1845 C1841 1.376 . S
C1845 C1844 1.392 . S
C1845 H1857 0.929 . S
C1846 C1842 1.531 . S
C1846 H1858 0.960 . S
C1846 H1859 0.962 . S
C1846 H1860 0.960 . S
C1847 C1844 1.511 . S
C1847 H1861 0.961 . S
C1847 H1862 0.961 . S
C1847 H1863 0.961 . S
C1848 C1849 1.370 . S
C1848 C1850 1.363 . S
C1848 H1864 0.931 . S
C1849 C1848 1.370 . S
C1849 C1853 1.408 . S
C1850 C1848 1.363 . S
C1850 C1851 1.370 . S
C1850 C1854 1.524 . S
C1851 C1843 1.503 . S
C1851 C1850 1.370 . S
C1851 C1852 1.403 . S
C1852 C1851 1.403 . S
C1852 C1853 1.404 . S
C1852 C1855 1.539 . S
C1853 C1849 1.408 . S
C1853 C1852 1.404 . S
C1853 H1865 0.930 . S
C1854 C1850 1.524 . S
C1854 H1866 0.956 . S
C1854 H1867 0.961 . S
C1854 H1868 0.961 . S
C1855 C1852 1.539 . S
C1855 H1869 0.958 . S
C1855 H1870 0.961 . S
C1855 H1871 0.960 . S
H1856 C1840 0.931 . S
H1857 C1845 0.929 . S
H1858 C1846 0.960 . S
H1859 C1846 0.962 . S
H1860 C1846 0.960 . S
H1861 C1847 0.961 . S
H1862 C1847 0.961 . S
H1863 C1847 0.961 . S
H1864 C1848 0.931 . S
H1865 C1853 0.930 . S
H1866 C1854 0.956 . S
H1867 C1854 0.961 . S
H1868 C1854 0.961 . S
H1869 C1855 0.958 . S
H1870 C1855 0.961 . S
H1871 C1855 0.960 . S
C1872 C1873 1.391 . S
C1872 C1874 1.394 . S
C1872 H1888 0.931 . S
C1873 C1872 1.391 . S
C1873 C1877 1.376 . S
C1874 C1872 1.394 . S
C1874 C1875 1.369 . S
C1874 C1878 1.531 . S
C1875 C1874 1.369 . S
C1875 C1876 1.410 . S
C1875 C1883 1.503 . S
C1876 C1875 1.410 . S
C1876 C1877 1.392 . S
C1876 C1879 1.511 . S
C1877 C1873 1.376 . S
C1877 C1876 1.392 . S
C1877 H1889 0.929 . S
C1878 C1874 1.531 . S
C1878 H1890 0.960 . S
C1878 H1891 0.962 . S
C1878 H1892 0.960 . S
C1879 C1876 1.511 . S
C1879 H1893 0.961 . S
C1879 H1894 0.961 . S
C1879 H1895 0.961 . S
C1880 C1881 1.370 . S
C1880 C1882 1.363 . S
C1880 H1896 0.931 . S
C1881 C1880 1.370 . S
C1881 C1885 1.408 . S
C1882 C1880 1.363 . S
C1882 C1883 1.370 . S
C1882 C1886 1.524 . S
C1883 C1875 1.503 . S
C1883 C1882 1.370 . S
C1883 C1884 1.403 . S
C1884 C1883 1.403 . S
C1884 C1885 1.404 . S
C1884 C1887 1.539 . S
C1885 C1881 1.408 . S
C1885 C1884 1.404 . S
C1885 H1897 0.930 . S
C1886 C1882 1.524 . S
C1886 H1898 0.956 . S
C1886 H1899 0.961 . S
C1886 H1900 0.961 . S
C1887 C1884 1.539 . S
C1887 H1901 0.958 . S
C1887 H1902 0.961 . S
C1887 H1903 0.960 . S
H1888 C1872 0.931 . S
H1889 C1877 0.929 . S
H1890 C1878 0.960 . S
H1891 C1878 0.962 . S
H1892 C1878 0.960 . S
H1893 C1879 0.961 . S
H1894 C1879 0.961 . S
H1895 C1879 0.961 . S
H1896 C1880 0.931 . S
H1897 C1885 0.930 . S
H1898 C1886 0.956 . S
H1899 C1886 0.961 . S
H1900 C1886 0.961 . S
H1901 C1887 0.958 . S
H1902 C1887 0.961 . S
H1903 C1887 0.960 . S
C1904 C1905 1.391 . S
C1904 C1906 1.394 . S
C1904 H1920 0.931 . S
C1905 C1904 1.391 . S
C1905 C1909 1.376 . S
C1906 C1904 1.394 . S
C1906 C1907 1.369 . S
C1906 C1910 1.531 . S
C1907 C1906 1.369 . S
C1907 C1908 1.410 . S
C1907 C1915 1.503 . S
C1908 C1907 1.410 . S
C1908 C1909 1.392 . S
C1908 C1911 1.511 . S
C1909 C1905 1.376 . S
C1909 C1908 1.392 . S
C1909 H1921 0.929 . S
C1910 C1906 1.531 . S
C1910 H1922 0.960 . S
C1910 H1923 0.962 . S
C1910 H1924 0.960 . S
C1911 C1908 1.511 . S
C1911 H1925 0.961 . S
C1911 H1926 0.961 . S
C1911 H1927 0.961 . S
C1912 C1913 1.370 . S
C1912 C1914 1.363 . S
C1912 H1928 0.931 . S
C1913 C1912 1.370 . S
C1913 C1917 1.408 . S
C1914 C1912 1.363 . S
C1914 C1915 1.370 . S
C1914 C1918 1.524 . S
C1915 C1907 1.503 . S
C1915 C1914 1.370 . S
C1915 C1916 1.403 . S
C1916 C1915 1.403 . S
C1916 C1917 1.404 . S
C1916 C1919 1.539 . S
C1917 C1913 1.408 . S
C1917 C1916 1.404 . S
C1917 H1929 0.930 . S
C1918 C1914 1.524 . S
C1918 H1930 0.956 . S
C1918 H1931 0.961 . S
C1918 H1932 0.961 . S
C1919 C1916 1.539 . S
C1919 H1933 0.958 . S
C1919 H1934 0.961 . S
C1919 H1935 0.960 . S
H1920 C1904 0.931 . S
H1921 C1909 0.929 . S
H1922 C1910 0.960 . S
H1923 C1910 0.962 . S
H1924 C1910 0.960 . S
H1925 C1911 0.961 . S
H1926 C1911 0.961 . S
H1927 C1911 0.961 . S
H1928 C1912 0.931 . S
H1929 C1917 0.930 . S
H1930 C1918 0.956 . S
H1931 C1918 0.961 . S
H1932 C1918 0.961 . S
H1933 C1919 0.958 . S
H1934 C1919 0.961 . S
H1935 C1919 0.960 . S
C1936 C1937 1.391 . S
C1936 C1938 1.394 . S
C1936 H1952 0.931 . S
C1937 C1936 1.391 . S
C1937 C1941 1.376 . S
C1938 C1936 1.394 . S
C1938 C1939 1.369 . S
C1938 C1942 1.531 . S
C1939 C1938 1.369 . S
C1939 C1940 1.410 . S
C1939 C1947 1.503 . S
C1940 C1939 1.410 . S
C1940 C1941 1.392 . S
C1940 C1943 1.511 . S
C1941 C1937 1.376 . S
C1941 C1940 1.392 . S
C1941 H1953 0.929 . S
C1942 C1938 1.531 . S
C1942 H1954 0.960 . S
C1942 H1955 0.962 . S
C1942 H1956 0.960 . S
C1943 C1940 1.511 . S
C1943 H1957 0.961 . S
C1943 H1958 0.961 . S
C1943 H1959 0.961 . S
C1944 C1945 1.370 . S
C1944 C1946 1.363 . S
C1944 H1960 0.931 . S
C1945 C1944 1.370 . S
C1945 C1949 1.408 . S
C1946 C1944 1.363 . S
C1946 C1947 1.370 . S
C1946 C1950 1.524 . S
C1947 C1939 1.503 . S
C1947 C1946 1.370 . S
C1947 C1948 1.403 . S
C1948 C1947 1.403 . S
C1948 C1949 1.404 . S
C1948 C1951 1.539 . S
C1949 C1945 1.408 . S
C1949 C1948 1.404 . S
C1949 H1961 0.930 . S
C1950 C1946 1.524 . S
C1950 H1962 0.956 . S
C1950 H1963 0.961 . S
C1950 H1964 0.961 . S
C1951 C1948 1.539 . S
C1951 H1965 0.958 . S
C1951 H1966 0.961 . S
C1951 H1967 0.960 . S
H1952 C1936 0.931 . S
H1953 C1941 0.929 . S
H1954 C1942 0.960 . S
H1955 C1942 0.962 . S
H1956 C1942 0.960 . S
H1957 C1943 0.961 . S
H1958 C1943 0.961 . S
H1959 C1943 0.961 . S
H1960 C1944 0.931 . S
H1961 C1949 0.930 . S
H1962 C1950 0.956 . S
H1963 C1950 0.961 . S
H1964 C1950 0.961 . S
H1965 C1951 0.958 . S
H1966 C1951 0.961 . S
H1967 C1951 0.960 . S
C1968 C1969 1.391 . S
C1968 C1970 1.394 . S
C1968 H1984 0.931 . S
C1969 C1968 1.391 . S
C1969 C1973 1.376 . S
C1970 C1968 1.394 . S
C1970 C1971 1.369 . S
C1970 C1974 1.531 . S
C1971 C1970 1.369 . S
C1971 C1972 1.410 . S
C1971 C1979 1.503 . S
C1972 C1971 1.410 . S
C1972 C1973 1.392 . S
C1972 C1975 1.511 . S
C1973 C1969 1.376 . S
C1973 C1972 1.392 . S
C1973 H1985 0.929 . S
C1974 C1970 1.531 . S
C1974 H1986 0.960 . S
C1974 H1987 0.962 . S
C1974 H1988 0.960 . S
C1975 C1972 1.511 . S
C1975 H1989 0.961 . S
C1975 H1990 0.961 . S
C1975 H1991 0.961 . S
C1976 C1977 1.370 . S
C1976 C1978 1.363 . S
C1976 H1992 0.931 . S
C1977 C1976 1.370 . S
C1977 C1981 1.408 . S
C1978 C1976 1.363 . S
C1978 C1979 1.370 . S
C1978 C1982 1.524 . S
C1979 C1971 1.503 . S
C1979 C1978 1.370 . S
C1979 C1980 1.403 . S
C1980 C1979 1.403 . S
C1980 C1981 1.404 . S
C1980 C1983 1.539 . S
C1981 C1977 1.408 . S
C1981 C1980 1.404 . S
C1981 H1993 0.930 . S
C1982 C1978 1.524 . S
C1982 H1994 0.956 . S
C1982 H1995 0.961 . S
C1982 H1996 0.961 . S
C1983 C1980 1.539 . S
C1983 H1997 0.958 . S
C1983 H1998 0.961 . S
C1983 H1999 0.960 . S
H1984 C1968 0.931 . S
H1985 C1973 0.929 . S
H1986 C1974 0.960 . S
H1987 C1974 0.962 . S
H1988 C1974 0.960 . S
H1989 C1975 0.961 . S
H1990 C1975 0.961 . S
H1991 C1975 0.961 . S
H1992 C1976 0.931 . S
H1993 C1981 0.930 . S
H1994 C1982 0.956 . S
H1995 C1982 0.961 . S
H1996 C1982 0.961 . S
H1997 C1983 0.958 . S
H1998 C1983 0.961 . S
H1999 C1983 0.960 . S
C2000 C2001 1.391 . S
C2000 C2002 1.394 . S
C2000 H2016 0.931 . S
C2001 C2000 1.391 . S
C2001 C2005 1.376 . S
C2002 C2000 1.394 . S
C2002 C2003 1.369 . S
C2002 C2006 1.531 . S
C2003 C2002 1.369 . S
C2003 C2004 1.410 . S
C2003 C2011 1.503 . S
C2004 C2003 1.410 . S
C2004 C2005 1.392 . S
C2004 C2007 1.511 . S
C2005 C2001 1.376 . S
C2005 C2004 1.392 . S
C2005 H2017 0.929 . S
C2006 C2002 1.531 . S
C2006 H2018 0.960 . S
C2006 H2019 0.962 . S
C2006 H2020 0.960 . S
C2007 C2004 1.511 . S
C2007 H2021 0.961 . S
C2007 H2022 0.961 . S
C2007 H2023 0.961 . S
C2008 C2009 1.370 . S
C2008 C2010 1.363 . S
C2008 H2024 0.931 . S
C2009 C2008 1.370 . S
C2009 C2013 1.408 . S
C2010 C2008 1.363 . S
C2010 C2011 1.370 . S
C2010 C2014 1.524 . S
C2011 C2003 1.503 . S
C2011 C2010 1.370 . S
C2011 C2012 1.403 . S
C2012 C2011 1.403 . S
C2012 C2013 1.404 . S
C2012 C2015 1.539 . S
C2013 C2009 1.408 . S
C2013 C2012 1.404 . S
C2013 H2025 0.930 . S
C2014 C2010 1.524 . S
C2014 H2026 0.956 . S
C2014 H2027 0.961 . S
C2014 H2028 0.961 . S
C2015 C2012 1.539 . S
C2015 H2029 0.958 . S
C2015 H2030 0.961 . S
C2015 H2031 0.960 . S
H2016 C2000 0.931 . S
H2017 C2005 0.929 . S
H2018 C2006 0.960 . S
H2019 C2006 0.962 . S
H2020 C2006 0.960 . S
H2021 C2007 0.961 . S
H2022 C2007 0.961 . S
H2023 C2007 0.961 . S
H2024 C2008 0.931 . S
H2025 C2013 0.930 . S
H2026 C2014 0.956 . S
H2027 C2014 0.961 . S
H2028 C2014 0.961 . S
H2029 C2015 0.958 . S
H2030 C2015 0.961 . S
H2031 C2015 0.960 . S
C2032 C2033 1.391 . S
C2032 C2034 1.394 . S
C2032 H2048 0.931 . S
C2033 C2032 1.391 . S
C2033 C2037 1.376 . S
C2034 C2032 1.394 . S
C2034 C2035 1.369 . S
C2034 C2038 1.531 . S
C2035 C2034 1.369 . S
C2035 C2036 1.410 . S
C2035 C2043 1.503 . S
C2036 C2035 1.410 . S
C2036 C2037 1.392 . S
C2036 C2039 1.511 . S
C2037 C2033 1.376 . S
C2037 C2036 1.392 . S
C2037 H2049 0.929 . S
C2038 C2034 1.531 . S
C2038 H2050 0.960 . S
C2038 H2051 0.962 . S
C2038 H2052 0.960 . S
C2039 C2036 1.511 . S
C2039 H2053 0.961 . S
C2039 H2054 0.961 . S
C2039 H2055 0.961 . S
C2040 C2041 1.370 . S
C2040 C2042 1.363 . S
C2040 H2056 0.931 . S
C2041 C2040 1.370 . S
C2041 C2045 1.408 . S
C2042 C2040 1.363 . S
C2042 C2043 1.370 . S
C2042 C2046 1.524 . S
C2043 C2035 1.503 . S
C2043 C2042 1.370 . S
C2043 C2044 1.403 . S
C2044 C2043 1.403 . S
C2044 C2045 1.404 . S
C2044 C2047 1.539 . S
C2045 C2041 1.408 . S
C2045 C2044 1.404 . S
C2045 H2057 0.930 . S
C2046 C2042 1.524 . S
C2046 H2058 0.956 . S
C2046 H2059 0.961 . S
C2046 H2060 0.961 . S
C2047 C2044 1.539 . S
C2047 H2061 0.958 . S
C2047 H2062 0.961 . S
C2047 H2063 0.960 . S
H2048 C2032 0.931 . S
H2049 C2037 0.929 . S
H2050 C2038 0.960 . S
H2051 C2038 0.962 . S
H2052 C2038 0.960 . S
H2053 C2039 0.961 . S
H2054 C2039 0.961 . S
H2055 C2039 0.961 . S
H2056 C2040 0.931 . S
H2057 C2045 0.930 . S
H2058 C2046 0.956 . S
H2059 C2046 0.961 . S
H2060 C2046 0.961 . S
H2061 C2047 0.958 . S
H2062 C2047 0.961 . S
H2063 C2047 0.960 . S
C2064 C2065 1.391 . S
C2064 C2066 1.394 . S
C2064 H2080 0.931 . S
C2065 C2064 1.391 . S
C2065 C2069 1.376 . S
C2066 C2064 1.394 . S
C2066 C2067 1.369 . S
C2066 C2070 1.531 . S
C2067 C2066 1.369 . S
C2067 C2068 1.410 . S
C2067 C2075 1.503 . S
C2068 C2067 1.410 . S
C2068 C2069 1.392 . S
C2068 C2071 1.511 . S
C2069 C2065 1.376 . S
C2069 C2068 1.392 . S
C2069 H2081 0.929 . S
C2070 C2066 1.531 . S
C2070 H2082 0.960 . S
C2070 H2083 0.962 . S
C2070 H2084 0.960 . S
C2071 C2068 1.511 . S
C2071 H2085 0.961 . S
C2071 H2086 0.961 . S
C2071 H2087 0.961 . S
C2072 C2073 1.370 . S
C2072 C2074 1.363 . S
C2072 H2088 0.931 . S
C2073 C2072 1.370 . S
C2073 C2077 1.408 . S
C2074 C2072 1.363 . S
C2074 C2075 1.370 . S
C2074 C2078 1.524 . S
C2075 C2067 1.503 . S
C2075 C2074 1.370 . S
C2075 C2076 1.403 . S
C2076 C2075 1.403 . S
C2076 C2077 1.404 . S
C2076 C2079 1.539 . S
C2077 C2073 1.408 . S
C2077 C2076 1.404 . S
C2077 H2089 0.930 . S
C2078 C2074 1.524 . S
C2078 H2090 0.956 . S
C2078 H2091 0.961 . S
C2078 H2092 0.961 . S
C2079 C2076 1.539 . S
C2079 H2093 0.958 . S
C2079 H2094 0.961 . S
C2079 H2095 0.960 . S
H2080 C2064 0.931 . S
H2081 C2069 0.929 . S
H2082 C2070 0.960 . S
H2083 C2070 0.962 . S
H2084 C2070 0.960 . S
H2085 C2071 0.961 . S
H2086 C2071 0.961 . S
H2087 C2071 0.961 . S
H2088 C2072 0.931 . S
H2089 C2077 0.930 . S
H2090 C2078 0.956 . S
H2091 C2078 0.961 . S
H2092 C2078 0.961 . S
H2093 C2079 0.958 . S
H2094 C2079 0.961 . S
H2095 C2079 0.960 . S
C2096 C2097 1.391 . S
C2096 C2098 1.394 . S
C2096 H2112 0.931 . S
C2097 C2096 1.391 . S
C2097 C2101 1.376 . S
C2098 C2096 1.394 . S
C2098 C2099 1.369 . S
C2098 C2102 1.531 . S
C2099 C2098 1.369 . S
C2099 C2100 1.410 . S
C2099 C2107 1.503 . S
C2100 C2099 1.410 . S
C2100 C2101 1.392 . S
C2100 C2103 1.511 . S
C2101 C2097 1.376 . S
C2101 C2100 1.392 . S
C2101 H2113 0.929 . S
C2102 C2098 1.531 . S
C2102 H2114 0.960 . S
C2102 H2115 0.962 . S
C2102 H2116 0.960 . S
C2103 C2100 1.511 . S
C2103 H2117 0.961 . S
C2103 H2118 0.961 . S
C2103 H2119 0.961 . S
C2104 C2105 1.370 . S
C2104 C2106 1.363 . S
C2104 H2120 0.931 . S
C2105 C2104 1.370 . S
C2105 C2109 1.408 . S
C2106 C2104 1.363 . S
C2106 C2107 1.370 . S
C2106 C2110 1.524 . S
C2107 C2099 1.503 . S
C2107 C2106 1.370 . S
C2107 C2108 1.403 . S
C2108 C2107 1.403 . S
C2108 C2109 1.404 . S
C2108 C2111 1.539 . S
C2109 C2105 1.408 . S
C2109 C2108 1.404 . S
C2109 H2121 0.930 . S
C2110 C2106 1.524 . S
C2110 H2122 0.956 . S
C2110 H2123 0.961 . S
C2110 H2124 0.961 . S
C2111 C2108 1.539 . S
C2111 H2125 0.958 . S
C2111 H2126 0.961 . S
C2111 H2127 0.960 . S
H2112 C2096 0.931 . S
H2113 C2101 0.929 . S
H2114 C2102 0.960 . S
H2115 C2102 0.962 . S
H2116 C2102 0.960 . S
H2117 C2103 0.961 . S
H2118 C2103 0.961 . S
H2119 C2103 0.961 . S
H2120 C2104 0.931 . S
H2121 C2109 0.930 . S
H2122 C2110 0.956 . S
H2123 C2110 0.961 . S
H2124 C2110 0.961 . S
H2125 C2111 0.958 . S
H2126 C2111 0.961 . S
H2127 C2111 0.960 . S
C2128 C2129 1.391 . S
C2128 C2130 1.394 . S
C2128 H2144 0.931 . S
C2129 C2128 1.391 . S
C2129 C2133 1.376 . S
C2130 C2128 1.394 . S
C2130 C2131 1.369 . S
C2130 C2134 1.531 . S
C2131 C2130 1.369 . S
C2131 C2132 1.410 . S
C2131 C2139 1.503 . S
C2132 C2131 1.410 . S
C2132 C2133 1.392 . S
C2132 C2135 1.511 . S
C2133 C2129 1.376 . S
C2133 C2132 1.392 . S
C2133 H2145 0.929 . S
C2134 C2130 1.531 . S
C2134 H2146 0.960 . S
C2134 H2147 0.962 . S
C2134 H2148 0.960 . S
C2135 C2132 1.511 . S
C2135 H2149 0.961 . S
C2135 H2150 0.961 . S
C2135 H2151 0.961 . S
C2136 C2137 1.370 . S
C2136 C2138 1.363 . S
C2136 H2152 0.931 . S
C2137 C2136 1.370 . S
C2137 C2141 1.408 . S
C2138 C2136 1.363 . S
C2138 C2139 1.370 . S
C2138 C2142 1.524 . S
C2139 C2131 1.503 . S
C2139 C2138 1.370 . S
C2139 C2140 1.403 . S
C2140 C2139 1.403 . S
C2140 C2141 1.404 . S
C2140 C2143 1.539 . S
C2141 C2137 1.408 . S
C2141 C2140 1.404 . S
C2141 H2153 0.930 . S
C2142 C2138 1.524 . S
C2142 H2154 0.956 . S
C2142 H2155 0.961 . S
C2142 H2156 0.961 . S
C2143 C2140 1.539 . S
C2143 H2157 0.958 . S
C2143 H2158 0.961 . S
C2143 H2159 0.960 . S
H2144 C2128 0.931 . S
H2145 C2133 0.929 . S
H2146 C2134 0.960 . S
H2147 C2134 0.962 . S
H2148 C2134 0.960 . S
H2149 C2135 0.961 . S
H2150 C2135 0.961 . S
H2151 C2135 0.961 . S
H2152 C2136 0.931 . S
H2153 C2141 0.930 . S
H2154 C2142 0.956 . S
H2155 C2142 0.961 . S
H2156 C2142 0.961 . S
H2157 C2143 0.958 . S
H2158 C2143 0.961 . S
H2159 C2143 0.960 . S
C2160 C2161 1.391 . S
C2160 C2162 1.394 . S
C2160 H2176 0.931 . S
C2161 C2160 1.391 . S
C2161 C2165 1.376 . S
C2162 C2160 1.394 . S
C2162 C2163 1.369 . S
C2162 C2166 1.531 . S
C2163 C2162 1.369 . S
C2163 C2164 1.410 . S
C2163 C2171 1.503 . S
C2164 C2163 1.410 . S
C2164 C2165 1.392 . S
C2164 C2167 1.511 . S
C2165 C2161 1.376 . S
C2165 C2164 1.392 . S
C2165 H2177 0.929 . S
C2166 C2162 1.531 . S
C2166 H2178 0.960 . S
C2166 H2179 0.962 . S
C2166 H2180 0.960 . S
C2167 C2164 1.511 . S
C2167 H2181 0.961 . S
C2167 H2182 0.961 . S
C2167 H2183 0.961 . S
C2168 C2169 1.370 . S
C2168 C2170 1.363 . S
C2168 H2184 0.931 . S
C2169 C2168 1.370 . S
C2169 C2173 1.408 . S
C2170 C2168 1.363 . S
C2170 C2171 1.370 . S
C2170 C2174 1.524 . S
C2171 C2163 1.503 . S
C2171 C2170 1.370 . S
C2171 C2172 1.403 . S
C2172 C2171 1.403 . S
C2172 C2173 1.404 . S
C2172 C2175 1.539 . S
C2173 C2169 1.408 . S
C2173 C2172 1.404 . S
C2173 H2185 0.930 . S
C2174 C2170 1.524 . S
C2174 H2186 0.956 . S
C2174 H2187 0.961 . S
C2174 H2188 0.961 . S
C2175 C2172 1.539 . S
C2175 H2189 0.958 . S
C2175 H2190 0.961 . S
C2175 H2191 0.960 . S
H2176 C2160 0.931 . S
H2177 C2165 0.929 . S
H2178 C2166 0.960 . S
H2179 C2166 0.962 . S
H2180 C2166 0.960 . S
H2181 C2167 0.961 . S
H2182 C2167 0.961 . S
H2183 C2167 0.961 . S
H2184 C2168 0.931 . S
H2185 C2173 0.930 . S
H2186 C2174 0.956 . S
H2187 C2174 0.961 . S
H2188 C2174 0.961 . S
H2189 C2175 0.958 . S
H2190 C2175 0.961 . S
H2191 C2175 0.960 . S
C2192 C2193 1.391 . S
C2192 C2194 1.394 . S
C2192 H2208 0.931 . S
C2193 C2192 1.391 . S
C2193 C2197 1.376 . S
C2194 C2192 1.394 . S
C2194 C2195 1.369 . S
C2194 C2198 1.531 . S
C2195 C2194 1.369 . S
C2195 C2196 1.410 . S
C2195 C2203 1.503 . S
C2196 C2195 1.410 . S
C2196 C2197 1.392 . S
C2196 C2199 1.511 . S
C2197 C2193 1.376 . S
C2197 C2196 1.392 . S
C2197 H2209 0.929 . S
C2198 C2194 1.531 . S
C2198 H2210 0.960 . S
C2198 H2211 0.962 . S
C2198 H2212 0.960 . S
C2199 C2196 1.511 . S
C2199 H2213 0.961 . S
C2199 H2214 0.961 . S
C2199 H2215 0.961 . S
C2200 C2201 1.370 . S
C2200 C2202 1.363 . S
C2200 H2216 0.931 . S
C2201 C2200 1.370 . S
C2201 C2205 1.408 . S
C2202 C2200 1.363 . S
C2202 C2203 1.370 . S
C2202 C2206 1.524 . S
C2203 C2195 1.503 . S
C2203 C2202 1.370 . S
C2203 C2204 1.403 . S
C2204 C2203 1.403 . S
C2204 C2205 1.404 . S
C2204 C2207 1.539 . S
C2205 C2201 1.408 . S
C2205 C2204 1.404 . S
C2205 H2217 0.930 . S
C2206 C2202 1.524 . S
C2206 H2218 0.956 . S
C2206 H2219 0.961 . S
C2206 H2220 0.961 . S
C2207 C2204 1.539 . S
C2207 H2221 0.958 . S
C2207 H2222 0.961 . S
C2207 H2223 0.960 . S
H2208 C2192 0.931 . S
H2209 C2197 0.929 . S
H2210 C2198 0.960 . S
H2211 C2198 0.962 . S
H2212 C2198 0.960 . S
H2213 C2199 0.961 . S
H2214 C2199 0.961 . S
H2215 C2199 0.961 . S
H2216 C2200 0.931 . S
H2217 C2205 0.930 . S
H2218 C2206 0.956 . S
H2219 C2206 0.961 . S
H2220 C2206 0.961 . S
H2221 C2207 0.958 . S
H2222 C2207 0.961 . S
H2223 C2207 0.960 . S
C2224 C2225 1.391 . S
C2224 C2226 1.394 . S
C2224 H2240 0.931 . S
C2225 C2224 1.391 . S
C2225 C2229 1.376 . S
C2226 C2224 1.394 . S
C2226 C2227 1.369 . S
C2226 C2230 1.531 . S
C2227 C2226 1.369 . S
C2227 C2228 1.410 . S
C2227 C2235 1.503 . S
C2228 C2227 1.410 . S
C2228 C2229 1.392 . S
C2228 C2231 1.511 . S
C2229 C2225 1.376 . S
C2229 C2228 1.392 . S
C2229 H2241 0.929 . S
C2230 C2226 1.531 . S
C2230 H2242 0.960 . S
C2230 H2243 0.962 . S
C2230 H2244 0.960 . S
C2231 C2228 1.511 . S
C2231 H2245 0.961 . S
C2231 H2246 0.961 . S
C2231 H2247 0.961 . S
C2232 C2233 1.370 . S
C2232 C2234 1.363 . S
C2232 H2248 0.931 . S
C2233 C2232 1.370 . S
C2233 C2237 1.408 . S
C2234 C2232 1.363 . S
C2234 C2235 1.370 . S
C2234 C2238 1.524 . S
C2235 C2227 1.503 . S
C2235 C2234 1.370 . S
C2235 C2236 1.403 . S
C2236 C2235 1.403 . S
C2236 C2237 1.404 . S
C2236 C2239 1.539 . S
C2237 C2233 1.408 . S
C2237 C2236 1.404 . S
C2237 H2249 0.930 . S
C2238 C2234 1.524 . S
C2238 H2250 0.956 . S
C2238 H2251 0.961 . S
C2238 H2252 0.961 . S
C2239 C2236 1.539 . S
C2239 H2253 0.958 . S
C2239 H2254 0.961 . S
C2239 H2255 0.960 . S
H2240 C2224 0.931 . S
H2241 C2229 0.929 . S
H2242 C2230 0.960 . S
H2243 C2230 0.962 . S
H2244 C2230 0.960 . S
H2245 C2231 0.961 . S
H2246 C2231 0.961 . S
H2247 C2231 0.961 . S
H2248 C2232 0.931 . S
H2249 C2237 0.930 . S
H2250 C2238 0.956 . S
H2251 C2238 0.961 . S
H2252 C2238 0.961 . S
H2253 C2239 0.958 . S
H2254 C2239 0.961 . S
H2255 C2239 0.960 . S
C465 C416 2.267 . S
C473 C3 2.314 1_565 S
C497 C445 2.244 . S
C505 C32 2.322 1_545 S
C529 C61 2.305 . S
C537 C242 2.254 . S
C561 C271 2.235 . S
C569 C90 2.318 . S
C593 C119 2.325 . S
C601 C300 2.253 . S
C625 C329 2.264 . S
C633 C148 2.321 . S
C657 C358 2.261 . S
C665 C177 2.322 . S
C689 C206 2.307 . S
C697 C387 2.265 . S
C721 C235 2.311 1_565 S
C729 C184 2.263 . S
C753 C264 2.306 1_545 S
C761 C213 2.250 . S
C785 C293 2.305 . S
C793 C10 2.256 . S
C817 C322 2.322 . S
C825 C39 2.257 . S
C849 C351 2.313 . S
C857 C68 2.261 . S
C881 C97 2.232 . S
C889 C380 2.322 . S
C913 C126 2.227 . S
C921 C409 2.322 . S
C945 C155 2.243 . S
C953 C438 2.324 . S
C977 C385 0.766 . S
C985 C8 0.780 . S
C1009 C356 0.782 . S
C1017 C37 0.787 . S
C1041 C66 0.744 . S
C1049 C95 0.764 . S
C1073 C124 0.796 . S
C1081 C269 0.791 . S
C1105 C240 0.731 . S
C1113 C153 0.763 . S
C1137 C182 0.819 . S
C1145 C211 0.795 . S
C1169 C327 0.819 . S
C1177 C298 0.793 . S
C1201 C414 0.811 . S
C1209 C443 0.792 . S
C1233 C274 2.326 . S
C1241 C5 2.556 . S
C1265 C34 2.542 . S
C1273 C245 2.319 . S
C1297 C63 2.556 . S
C1305 C216 2.311 . S
C1329 C187 2.313 . S
C1337 C92 2.561 . S
C1361 C121 2.570 . S
C1369 C390 2.297 . S
C1393 C361 2.284 . S
C1401 C150 2.567 . S
C1425 C100 2.337 . S
C1433 C179 2.556 . S
C1457 C71 2.334 . S
C1465 C208 2.556 . S
C1489 C42 2.310 . S
C1497 C237 2.564 . S
C1521 C13 2.304 . S
C1529 C266 2.564 . S
C1553 C448 2.337 . S
C1561 C295 2.556 . S
C1585 C419 2.337 . S
C1593 C324 2.556 . S
C1617 C353 2.568 . S
C1625 C158 2.293 . S
C1649 C129 2.318 . S
C1657 C382 2.557 . S
C1681 C411 2.565 . S
C1689 C332 2.298 . S
C1713 C303 2.269 . S
C1721 C440 2.568 . S
C1745 C224 0.888 . S
C1753 C15 1.062 . S
C1777 C44 1.086 . S
C1785 C195 0.946 . S
C1809 C73 1.090 . S
C1817 C398 0.938 . S
C1841 C102 1.061 . S
C1849 C369 0.965 . S
C1873 C131 1.069 . S
C1881 C108 0.952 . S
C1905 C79 0.935 . S
C1913 C160 1.049 . S
C1937 C189 1.034 . S
C1945 C282 0.966 . S
C1969 C253 0.890 . S
C1977 C218 1.058 . S
C2001 C247 0.965 . S
C2009 C456 1.006 . S
C2033 C276 0.964 . S
C2041 C427 1.007 . S
C2065 C305 1.002 . S
C2073 C166 0.996 . S
C2097 C137 0.902 . S
C2105 C334 1.053 . S
C2129 C340 0.970 . S
C2137 C363 1.033 . S
C2161 C311 1.031 . S
C2169 C392 1.012 . S
C2193 C421 1.096 . S
C2201 C50 0.941 . S
C2225 C450 1.046 . S
C2233 C21 0.958 . S
