# Generated by pormake.
# Topology crb, (4)-cn, num edge types: 1
# Building blocks:
#     Node 0, Type 0, BuildingBlock: UXUYUI_clean_sbu_0, # of connection points: 4
#     Node 1, Type 0, BuildingBlock: UXUYUI_clean_sbu_0, # of connection points: 4
#     Node 2, Type 0, BuildingBlock: UXUYUI_clean_sbu_0, # of connection points: 4
#     Node 3, Type 0, BuildingBlock: UXUYUI_clean_sbu_0, # of connection points: 4
#     Node 4, Type 0, BuildingBlock: UXUYUI_clean_sbu_0, # of connection points: 4
#     Node 5, Type 0, BuildingBlock: UXUYUI_clean_sbu_0, # of connection points: 4
#     Node 6, Type 0, BuildingBlock: UXUYUI_clean_sbu_0, # of connection points: 4
#     Node 7, Type 0, BuildingBlock: UXUYUI_clean_sbu_0, # of connection points: 4
#     Edge 8, Type (0, 0), BuildingBlock: EZIPEK_clean_linker_0, # of connection points: 2
#     Edge 9, Type (0, 0), BuildingBlock: EZIPEK_clean_linker_0, # of connection points: 2
#     Edge 10, Type (0, 0), BuildingBlock: EZIPEK_clean_linker_0, # of connection points: 2
#     Edge 11, Type (0, 0), BuildingBlock: EZIPEK_clean_linker_0, # of connection points: 2
#     Edge 12, Type (0, 0), BuildingBlock: EZIPEK_clean_linker_0, # of connection points: 2
#     Edge 13, Type (0, 0), BuildingBlock: EZIPEK_clean_linker_0, # of connection points: 2
#     Edge 14, Type (0, 0), BuildingBlock: EZIPEK_clean_linker_0, # of connection points: 2
#     Edge 15, Type (0, 0), BuildingBlock: EZIPEK_clean_linker_0, # of connection points: 2
#     Edge 16, Type (0, 0), BuildingBlock: EZIPEK_clean_linker_0, # of connection points: 2
#     Edge 17, Type (0, 0), BuildingBlock: EZIPEK_clean_linker_0, # of connection points: 2
#     Edge 18, Type (0, 0), BuildingBlock: EZIPEK_clean_linker_0, # of connection points: 2
#     Edge 19, Type (0, 0), BuildingBlock: EZIPEK_clean_linker_0, # of connection points: 2
#     Edge 20, Type (0, 0), BuildingBlock: EZIPEK_clean_linker_0, # of connection points: 2
#     Edge 21, Type (0, 0), BuildingBlock: EZIPEK_clean_linker_0, # of connection points: 2
#     Edge 22, Type (0, 0), BuildingBlock: EZIPEK_clean_linker_0, # of connection points: 2
#     Edge 23, Type (0, 0), BuildingBlock: EZIPEK_clean_linker_0, # of connection points: 2
# Relax obj value: 0.060
# Max RMSD: 0.078
# Mean RMSD: 0.078
data_MOF--net-crb--node1-UXUYUI_clean_sbu_0--edge1-EZIPEK_clean_linker_0
_symmetry_space_group_name_H-M    P1
_symmetry_Int_Tables_number       1
_symmetry_cell_setting            triclinic
loop_
_symmetry_equiv_pos_as_xyz
'x, y, z'
_cell_length_a     50.592764
_cell_length_b     50.59747
_cell_length_c     30.064057
_cell_angle_alpha  89.987199
_cell_angle_beta   89.97105
_cell_angle_gamma 90.088501
loop_
_atom_site_label
_atom_site_type_symbol
_atom_site_fract_x
_atom_site_fract_y
_atom_site_fract_z
_atom_type_partial_charge
Li0 Li 0.31779 0.31665 0.05139 0.0
Li1 Li 0.35767 0.32248 1.01048 0.0
Li2 Li 0.32495 0.35741 0.01224 0.0
Li3 Li 0.31732 0.31606 0.96703 0.0
C4 C 0.34637 0.34197 0.10746 0.0
N5 N 0.34599 0.33743 0.19908 0.0
C6 C 0.3651 0.32618 0.12892 0.0
C7 C 0.32755 0.35556 0.13264 0.0
C8 C 0.36458 0.32415 0.17526 0.0
C9 C 0.32764 0.35295 0.1789 0.0
C10 C 0.35064 0.26982 1.00362 0.0
C11 C 0.36735 0.23412 0.95852 0.0
N12 N 0.3841 0.22725 0.99193 0.0
C13 C 0.36797 0.26234 0.03757 0.0
C14 C 0.35029 0.25558 0.96377 0.0
C15 C 0.38476 0.2408 0.03098 0.0
C16 C 0.27655 0.30854 0.11445 0.0
N17 N 0.30141 0.30097 0.10278 0.0
C18 C 0.30384 0.27214 0.16574 0.0
C19 C 0.31498 0.28291 0.12728 0.0
C20 C 0.27839 0.27985 0.17871 0.0
C21 C 0.26458 0.29815 0.15257 0.0
H22 H 0.26606 0.32273 0.0943 0.0
H23 H 0.33461 0.27712 0.11741 0.0
C24 C 0.41011 0.33382 0.03478 0.0
N25 N 0.39544 0.31758 1.00844 0.0
C26 C 0.43766 0.3326 0.03394 0.0
C27 C 0.43472 0.29812 0.97851 0.0
C28 C 0.40721 0.30026 0.97998 0.0
C29 C 0.45015 0.31451 1.00567 0.0
H30 H 0.40038 0.34807 0.05595 0.0
H31 H 0.39533 0.28843 0.95778 0.0
C32 C 0.27324 0.35251 1.00258 0.0
N33 N 0.23483 0.39022 0.98735 0.0
C34 C 0.2614 0.35458 0.96072 0.0
C35 C 0.26537 0.36948 0.0368 0.0
C36 C 0.24204 0.37379 0.95368 0.0
C37 C 0.246 0.38848 0.02839 0.0
C38 C 0.3668 0.35173 0.93901 0.0
C39 C 0.38011 0.37429 0.95384 0.0
C40 C 0.37739 0.33682 0.90418 0.0
C41 C 0.40386 0.38157 0.93352 0.0
C42 C 0.40119 0.34476 0.88472 0.0
N43 N 0.41381 0.36679 0.89965 0.0
C44 C 0.33039 0.40941 0.04563 0.0
C45 C 0.30903 0.4067 0.97557 0.0
C46 C 0.32873 0.43695 0.04494 0.0
N47 N 0.3205 0.39492 1.01136 0.0
C48 C 0.30668 0.4342 0.97374 0.0
C49 C 0.31682 0.44957 1.00862 0.0
H50 H 0.34007 0.39963 0.07308 0.0
H51 H 0.30196 0.39475 0.94823 0.0
C52 C 0.28449 0.28111 0.91884 0.0
N53 N 0.30165 0.3017 0.91486 0.0
C54 C 0.27284 0.27007 0.881 0.0
C55 C 0.2966 0.30175 0.83581 0.0
C56 C 0.30767 0.31227 0.87451 0.0
C57 C 0.27902 0.28037 0.83894 0.0
H58 H 0.27999 0.27323 0.95144 0.0
H59 H 0.32104 0.32891 0.87242 0.0
O60 O 0.3461 0.34366 0.06201 0.0
O61 O 0.33389 0.29075 1.00942 0.0
O62 O 0.2925 0.33406 1.00994 0.0
O63 O 0.3438 0.344 0.95909 0.0
H64 H 0.37966 0.3153 0.11002 0.0
H65 H 0.31282 0.36773 0.11662 0.0
H66 H 0.37885 0.31188 0.19227 0.0
H67 H 0.31305 0.3632 0.19876 0.0
H68 H 0.36732 0.22297 0.92782 0.0
H69 H 0.36893 0.2734 0.06824 0.0
H70 H 0.33708 0.26108 0.93708 0.0
H71 H 0.39842 0.23495 0.05683 0.0
H72 H 0.31496 0.25802 0.18528 0.0
H73 H 0.24484 0.30438 0.16173 0.0
H74 H 0.44913 0.3457 0.05491 0.0
H75 H 0.4439 0.28425 0.95587 0.0
H76 H 0.26718 0.34162 0.93385 0.0
H77 H 0.27437 0.36825 0.06933 0.0
H78 H 0.23279 0.37568 0.9214 0.0
H79 H 0.23989 0.40188 0.05446 0.0
H80 H 0.37232 0.3859 0.98104 0.0
H81 H 0.36754 0.31907 0.89275 0.0
H82 H 0.41443 0.39893 0.94475 0.0
H83 H 0.4097 0.33334 0.85791 0.0
H84 H 0.33692 0.44833 0.07217 0.0
H85 H 0.29754 0.44343 0.94513 0.0
H86 H 0.25928 0.25361 0.8844 0.0
H87 H 0.30163 0.31018 0.80377 0.0
Li88 Li 0.69155 0.36082 1.009 0.0
Li89 Li 0.69772 0.32064 0.05394 0.0
Li90 Li 0.6985 0.3198 0.97026 0.0
Li91 Li 0.65654 0.32539 1.00963 0.0
C92 C 0.74327 0.35554 0.01719 0.0
N93 N 0.78277 0.39277 0.02799 0.0
C94 C 0.75573 0.35848 0.05838 0.0
C95 C 0.75113 0.37132 0.98135 0.0
C96 C 0.77562 0.37745 0.06319 0.0
C97 C 0.77105 0.39011 0.98754 0.0
C98 C 0.65848 0.35101 0.10043 0.0
C99 C 0.63029 0.33524 0.15955 0.0
N100 N 0.63571 0.35744 0.18336 0.0
C101 C 0.66345 0.37385 0.12525 0.0
C102 C 0.6415 0.33169 0.11752 0.0
C103 C 0.65189 0.37666 0.16719 0.0
C104 C 0.68681 0.41236 0.97384 0.0
N105 N 0.69662 0.39819 1.00854 0.0
C106 C 0.71133 0.43772 0.04444 0.0
C107 C 0.70882 0.41024 0.04341 0.0
C108 C 0.70111 0.45272 1.00928 0.0
C109 C 0.68894 0.43987 0.97346 0.0
H110 H 0.67687 0.40235 0.94687 0.0
H111 H 0.71623 0.39855 0.07075 0.0
C112 C 0.72399 0.28199 0.10496 0.0
N113 N 0.71299 0.30648 0.107 0.0
C114 C 0.73526 0.27066 0.14286 0.0
C115 C 0.72405 0.31011 0.1841 0.0
C116 C 0.71315 0.32073 0.14538 0.0
C117 C 0.73518 0.28478 0.18299 0.0
H118 H 0.72389 0.27123 0.07388 0.0
H119 H 0.7051 0.34044 0.14594 0.0
C120 C 0.66844 0.34576 0.91361 0.0
N121 N 0.6653 0.34293 0.82197 0.0
C122 C 0.64735 0.33257 0.8934 0.0
C123 C 0.68777 0.3578 0.8872 0.0
C124 C 0.64614 0.3313 0.84702 0.0
C125 C 0.68589 0.35606 0.84094 0.0
C126 C 0.66865 0.27154 0.02377 0.0
C127 C 0.66333 0.25235 0.99153 0.0
C128 C 0.66179 0.26668 0.06807 0.0
C129 C 0.65061 0.22895 1.00395 0.0
C130 C 0.64913 0.24303 0.0792 0.0
N131 N 0.6438 0.22483 0.04716 0.0
C132 C 0.74033 0.30906 0.90993 0.0
C133 C 0.69953 0.28859 0.89178 0.0
C134 C 0.75205 0.29874 0.8716 0.0
N135 N 0.71447 0.30401 0.91907 0.0
C136 C 0.71048 0.27776 0.85325 0.0
C137 C 0.73697 0.28297 0.84288 0.0
H138 H 0.7518 0.32127 0.93221 0.0
H139 H 0.67897 0.28511 0.89953 0.0
C140 C 0.60398 0.33921 0.02708 0.0
N141 N 0.61913 0.31995 1.00852 0.0
C142 C 0.57648 0.33714 0.02675 0.0
C143 C 0.5805 0.29592 0.98665 0.0
C144 C 0.60799 0.29861 0.98828 0.0
C145 C 0.56454 0.31534 1.00623 0.0
H146 H 0.61327 0.35634 0.04185 0.0
H147 H 0.62037 0.28401 0.97248 0.0
O148 O 0.72349 0.33732 0.01201 0.0
O149 O 0.66972 0.34797 0.05927 0.0
O150 O 0.67025 0.34674 0.959 0.0
O151 O 0.6812 0.29454 0.0121 0.0
H152 H 0.75005 0.34635 0.0864 0.0
H153 H 0.74177 0.36927 0.94923 0.0
H154 H 0.78535 0.38002 0.09494 0.0
H155 H 0.77715 0.40261 0.96019 0.0
H156 H 0.61715 0.3204 0.17313 0.0
H157 H 0.67621 0.38921 0.11244 0.0
H158 H 0.63661 0.31437 0.09827 0.0
H159 H 0.65574 0.39415 0.18685 0.0
H160 H 0.72071 0.44722 0.07262 0.0
H161 H 0.68072 0.45105 0.94605 0.0
H162 H 0.74384 0.25109 0.14101 0.0
H163 H 0.72392 0.32154 0.21456 0.0
H164 H 0.63217 0.32324 0.91327 0.0
H165 H 0.70417 0.36817 0.90227 0.0
H166 H 0.63001 0.32101 0.83094 0.0
H167 H 0.70083 0.36509 0.82012 0.0
H168 H 0.66881 0.2555 0.95721 0.0
H169 H 0.66643 0.28082 0.09378 0.0
H170 H 0.6462 0.21405 0.97923 0.0
H171 H 0.64366 0.2391 0.11336 0.0
H172 H 0.77258 0.30304 0.86433 0.0
H173 H 0.69838 0.26572 0.8315 0.0
H174 H 0.5646 0.35258 0.04166 0.0
H175 H 0.57174 0.27903 0.9701 0.0
Li176 Li 0.65793 0.69101 0.01313 0.0
Li177 Li 0.70066 0.69791 0.05581 0.0
Li178 Li 0.69926 0.69876 0.97048 0.0
Li179 Li 0.69218 0.65919 0.01222 0.0
C180 C 0.6726 0.74703 0.02575 0.0
N181 N 0.65475 0.7966 0.04984 0.0
C182 C 0.66711 0.75271 0.07031 0.0
C183 C 0.66924 0.76664 0.9935 0.0
C184 C 0.65805 0.77786 0.0818 0.0
C185 C 0.66011 0.79154 1.00632 0.0
C186 C 0.66693 0.64849 0.08615 0.0
C187 C 0.67941 0.61414 0.13765 0.0
N188 N 0.6569 0.60072 0.12745 0.0
C189 C 0.64394 0.63435 0.07617 0.0
C190 C 0.68483 0.63833 0.11714 0.0
C191 C 0.63923 0.61022 0.09737 0.0
C192 C 0.60549 0.67762 0.99177 0.0
N193 N 0.62024 0.69584 0.01405 0.0
C194 C 0.58103 0.71807 0.03817 0.0
C195 C 0.60856 0.71577 0.03723 0.0
C196 C 0.56556 0.69962 0.01514 0.0
C197 C 0.57797 0.67925 0.99163 0.0
H198 H 0.6151 0.66153 0.97458 0.0
H199 H 0.62046 0.72966 0.05554 0.0
C200 C 0.73583 0.73175 0.10213 0.0
N201 N 0.71639 0.71339 0.10713 0.0
C202 C 0.74715 0.74374 0.13949 0.0
C203 C 0.71847 0.71741 0.18628 0.0
C204 C 0.70744 0.70627 0.14808 0.0
C205 C 0.73851 0.73643 0.18214 0.0
H206 H 0.74236 0.73721 0.06911 0.0
H207 H 0.6915 0.69215 0.15109 0.0
C208 C 0.65747 0.67874 0.92328 0.0
N209 N 0.62926 0.69356 0.84862 0.0
C210 C 0.65183 0.66024 0.89007 0.0
C211 C 0.64876 0.70479 0.91843 0.0
C212 C 0.63755 0.66812 0.85259 0.0
C213 C 0.63452 0.71189 0.8805 0.0
C214 C 0.74524 0.66507 1.00336 0.0
C215 C 0.74693 0.65199 0.96253 0.0
C216 C 0.7647 0.66105 0.03562 0.0
C217 C 0.76799 0.63476 0.95484 0.0
C218 C 0.78548 0.6437 0.0266 0.0
N219 N 0.78666 0.63101 0.98676 0.0
C220 C 0.72536 0.73924 0.92184 0.0
C221 C 0.71482 0.70086 0.88014 0.0
C222 C 0.73676 0.75103 0.88435 0.0
N223 N 0.71462 0.71464 0.919 0.0
C224 C 0.72573 0.71198 0.84181 0.0
C225 C 0.73689 0.73733 0.84376 0.0
H226 H 0.72514 0.74964 0.95327 0.0
H227 H 0.70658 0.68117 0.87888 0.0
C228 C 0.68085 0.60744 0.98505 0.0
N229 N 0.69758 0.62165 1.01118 0.0
C230 C 0.68234 0.57991 0.98406 0.0
C231 C 0.71838 0.58202 0.03675 0.0
C232 C 0.71615 0.60954 0.03681 0.0
C233 C 0.70121 0.56703 1.01028 0.0
H234 H 0.66594 0.61749 0.96571 0.0
H235 H 0.72876 0.62114 0.05823 0.0
O236 O 0.6821 0.72272 0.01392 0.0
O237 O 0.67193 0.67208 0.06552 0.0
O238 O 0.67163 0.67122 0.95999 0.0
O239 O 0.72466 0.68178 0.01175 0.0
H240 H 0.66938 0.73774 0.09568 0.0
H241 H 0.67368 0.7627 0.95891 0.0
H242 H 0.65358 0.78247 0.11613 0.0
H243 H 0.65736 0.80688 0.98169 0.0
H244 H 0.69316 0.60596 0.16149 0.0
H245 H 0.62993 0.64185 0.05218 0.0
H246 H 0.70297 0.64874 0.12469 0.0
H247 H 0.62156 0.59903 0.08986 0.0
H248 H 0.57188 0.73389 0.05691 0.0
H249 H 0.56645 0.66458 0.97391 0.0
H250 H 0.76249 0.75849 0.13526 0.0
H251 H 0.71125 0.71152 0.21873 0.0
H252 H 0.65853 0.64002 0.89311 0.0
H253 H 0.6528 0.71936 0.94369 0.0
H254 H 0.63308 0.654 0.82663 0.0
H255 H 0.62765 0.73198 0.87641 0.0
H256 H 0.73193 0.65483 0.93735 0.0
H257 H 0.76363 0.67111 0.06736 0.0
H258 H 0.76947 0.62434 0.92353 0.0
H259 H 0.80063 0.64029 0.0513 0.0
H260 H 0.74535 0.77059 0.88688 0.0
H261 H 0.72567 0.70088 0.811 0.0
H262 H 0.66867 0.56875 0.96364 0.0
H263 H 0.73293 0.5725 0.05773 0.0
Li264 Li 0.32642 0.65628 0.0127 0.0
Li265 Li 0.31907 0.69802 0.05325 0.0
Li266 Li 0.31929 0.697 0.97173 0.0
Li267 Li 0.35931 0.69059 0.01207 0.0
C268 C 0.27396 0.66848 0.03727 0.0
N269 N 0.23342 0.6474 0.08771 0.0
C270 C 0.27965 0.65343 0.07508 0.0
C271 C 0.24767 0.6728 0.02512 0.0
C272 C 0.25888 0.64295 0.10013 0.0
C273 C 0.22745 0.66196 0.05104 0.0
C274 C 0.36648 0.67399 0.09379 0.0
C275 C 0.39251 0.70236 0.14119 0.0
N276 N 0.40906 0.68185 0.14987 0.0
C277 C 0.38372 0.65318 0.10326 0.0
C278 C 0.3709 0.69879 0.11291 0.0
C279 C 0.40514 0.65756 0.13165 0.0
C280 C 0.34317 0.60387 0.02076 0.0
N281 N 0.32151 0.61878 0.01179 0.0
C282 C 0.29562 0.5799 0.99892 0.0
C283 C 0.29802 0.60742 1.00057 0.0
C284 C 0.31759 0.56412 1.00892 0.0
C285 C 0.34161 0.57633 0.01989 0.0
H286 H 0.36179 0.61341 0.02793 0.0
H287 H 0.28124 0.61967 0.99235 0.0
C288 C 0.28991 0.73633 0.10193 0.0
N289 N 0.30332 0.71313 0.10513 0.0
C290 C 0.27845 0.74764 0.13977 0.0
C291 C 0.29483 0.71098 0.18333 0.0
C292 C 0.30583 0.70032 0.1447 0.0
C293 C 0.281 0.73491 0.18102 0.0
H294 H 0.28817 0.74604 0.07 0.0
H295 H 0.31646 0.68182 0.14629 0.0
C296 C 0.34047 0.65452 0.92478 0.0
N297 N 0.32803 0.62384 0.85168 0.0
C298 C 0.36052 0.64461 0.89756 0.0
C299 C 0.31407 0.64881 0.91485 0.0
C300 C 0.35384 0.62915 0.86074 0.0
C301 C 0.30819 0.63328 0.87774 0.0
C302 C 0.34771 0.74287 0.98724 0.0
C303 C 0.36361 0.73712 0.95047 0.0
C304 C 0.3427 0.76918 0.99846 0.0
C305 C 0.37422 0.75784 0.92546 0.0
C306 C 0.35369 0.78936 0.97263 0.0
N307 N 0.36908 0.78332 0.93696 0.0
C308 C 0.27953 0.72297 0.92147 0.0
C309 C 0.31806 0.71206 0.88047 0.0
C310 C 0.26793 0.73401 0.88354 0.0
N311 N 0.30412 0.71223 0.91923 0.0
C312 C 0.30719 0.72274 0.84179 0.0
C313 C 0.28184 0.73384 0.84316 0.0
H314 H 0.26894 0.72293 0.95274 0.0
H315 H 0.33762 0.70355 0.87948 0.0
C316 C 0.41149 0.67471 0.99838 0.0
N317 N 0.3967 0.69554 0.0123 0.0
C318 C 0.43902 0.67621 0.99903 0.0
C319 C 0.43564 0.72065 0.02819 0.0
C320 C 0.40813 0.71827 0.02712 0.0
C321 C 0.45127 0.69938 0.01411 0.0
H322 H 0.40181 0.65682 0.98726 0.0
H323 H 0.3959 0.73439 0.0386 0.0
O324 O 0.2939 0.67924 0.01236 0.0
O325 O 0.34592 0.67045 0.06476 0.0
O326 O 0.34688 0.66953 0.9611 0.0
O327 O 0.33696 0.72299 0.01227 0.0
H328 H 0.29986 0.64979 0.08496 0.0
H329 H 0.24296 0.68443 0.99596 0.0
H330 H 0.26299 0.63127 0.12946 0.0
H331 H 0.207 0.66515 0.04203 0.0
H332 H 0.39623 0.7215 0.15598 0.0
H333 H 0.38071 0.63386 0.08883 0.0
H334 H 0.3581 0.71529 0.10529 0.0
H335 H 0.4187 0.64165 0.13913 0.0
H336 H 0.2769 0.571 0.98981 0.0
H337 H 0.359 0.56465 0.02721 0.0
H338 H 0.26781 0.76613 0.137 0.0
H339 H 0.29707 0.70068 0.2147 0.0
H340 H 0.38106 0.64884 0.90483 0.0
H341 H 0.29824 0.65628 0.93544 0.0
H342 H 0.36916 0.62135 0.83938 0.0
H343 H 0.28786 0.62872 0.86967 0.0
H344 H 0.36778 0.71688 0.94134 0.0
H345 H 0.33042 0.77395 0.02686 0.0
H346 H 0.38656 0.75367 0.89692 0.0
H347 H 0.34997 0.80982 0.98093 0.0
H348 H 0.24833 0.74251 0.88557 0.0
H349 H 0.3184 0.72238 0.81109 0.0
H350 H 0.45067 0.65946 0.98816 0.0
H351 H 0.44466 0.7387 0.04023 0.0
Li352 Li 0.82014 0.81966 0.55549 0.0
Li353 Li 0.86054 0.82639 0.51131 0.0
Li354 Li 0.82546 0.8614 0.51291 0.0
Li355 Li 0.81967 0.82009 0.47104 0.0
C356 C 0.84891 0.85888 0.60365 0.0
N357 N 0.85154 0.88197 0.68684 0.0
C358 C 0.87168 0.85619 0.62958 0.0
C359 C 0.82764 0.87362 0.61981 0.0
C360 C 0.87258 0.86791 0.67163 0.0
C361 C 0.82931 0.88507 0.66199 0.0
C362 C 0.85509 0.77475 0.51607 0.0
C363 C 0.88815 0.74658 0.48315 0.0
N364 N 0.89281 0.7356 0.52369 0.0
C365 C 0.86003 0.76304 0.55733 0.0
C366 C 0.86906 0.76632 0.47858 0.0
C367 C 0.87923 0.74331 0.56052 0.0
C368 C 0.78082 0.79342 0.60588 0.0
N369 N 0.80547 0.80414 0.60805 0.0
C370 C 0.80866 0.79326 0.68529 0.0
C371 C 0.81959 0.80388 0.64655 0.0
C372 C 0.78318 0.78237 0.68407 0.0
C373 C 0.76923 0.78231 0.64376 0.0
H374 H 0.77014 0.79362 0.57472 0.0
H375 H 0.83942 0.81174 0.64723 0.0
C376 C 0.91228 0.82965 0.47587 0.0
N377 N 0.8979 0.82109 0.51131 0.0
C378 C 0.93977 0.82734 0.47592 0.0
C379 C 0.93721 0.80735 0.54888 0.0
C380 C 0.90975 0.81006 0.54743 0.0
C381 C 0.95243 0.81627 0.5129 0.0
H382 H 0.90248 0.83877 0.44794 0.0
H383 H 0.89789 0.80376 0.57542 0.0
C384 C 0.7706 0.84844 0.52006 0.0
N385 N 0.72163 0.87146 0.53262 0.0
C386 C 0.75416 0.85347 0.48368 0.0
C387 C 0.76185 0.85463 0.56293 0.0
C388 C 0.72956 0.86527 0.49067 0.0
C389 C 0.73711 0.86638 0.56857 0.0
C390 C 0.8479 0.85203 0.41702 0.0
C391 C 0.83827 0.87536 0.39815 0.0
C392 C 0.85861 0.83247 0.38959 0.0
C393 C 0.83917 0.87856 0.35201 0.0
C394 C 0.85909 0.83639 0.3436 0.0
N395 N 0.84943 0.85916 0.32592 0.0
C396 C 0.83848 0.91386 0.5338 0.0
C397 C 0.79892 0.90989 0.49202 0.0
C398 C 0.83609 0.94132 0.53446 0.0
N399 N 0.81988 0.89874 0.51326 0.0
C400 C 0.7959 0.93735 0.49147 0.0
C401 C 0.81464 0.95324 0.513 0.0
H402 H 0.85537 0.9046 0.54929 0.0
H403 H 0.78492 0.89759 0.47458 0.0
C404 C 0.80371 0.7783 0.41417 0.0
N405 N 0.80381 0.80502 0.41903 0.0
C406 C 0.79295 0.76676 0.37598 0.0
C407 C 0.78271 0.81046 0.34842 0.0
C408 C 0.79327 0.82111 0.38741 0.0
C409 C 0.78249 0.78298 0.34247 0.0
H410 H 0.81206 0.76594 0.43991 0.0
H411 H 0.79328 0.84226 0.39222 0.0
O412 O 0.84769 0.84738 0.56249 0.0
O413 O 0.83675 0.79446 0.51247 0.0
O414 O 0.79467 0.83667 0.51378 0.0
O415 O 0.8469 0.84843 0.4621 0.0
H416 H 0.88845 0.84509 0.61746 0.0
H417 H 0.81022 0.87655 0.59974 0.0
H418 H 0.89002 0.86586 0.69214 0.0
H419 H 0.81297 0.89652 0.67487 0.0
H420 H 0.89925 0.74 0.45448 0.0
H421 H 0.84934 0.76928 0.58665 0.0
H422 H 0.86531 0.77501 0.44635 0.0
H423 H 0.88339 0.73419 0.59229 0.0
H424 H 0.82 0.79336 0.71584 0.0
H425 H 0.74957 0.77389 0.64176 0.0
H426 H 0.95109 0.83454 0.44782 0.0
H427 H 0.94653 0.79884 0.57796 0.0
H428 H 0.76039 0.8485 0.45035 0.0
H429 H 0.77384 0.85014 0.59167 0.0
H430 H 0.71676 0.86947 0.46275 0.0
H431 H 0.73017 0.87134 0.60156 0.0
H432 H 0.83011 0.89079 0.41886 0.0
H433 H 0.86624 0.81436 0.40363 0.0
H434 H 0.83167 0.89646 0.33695 0.0
H435 H 0.86711 0.82132 0.32197 0.0
H436 H 0.85103 0.95319 0.55084 0.0
H437 H 0.77933 0.94611 0.47411 0.0
H438 H 0.79296 0.74546 0.37239 0.0
H439 H 0.77473 0.82349 0.32321 0.0
Li440 Li 0.19178 0.8572 0.51246 0.0
Li441 Li 0.1985 0.81517 0.55465 0.0
Li442 Li 0.19878 0.81622 0.47081 0.0
Li443 Li 0.15914 0.82322 0.51214 0.0
C444 C 0.24456 0.84329 0.53761 0.0
N445 N 0.28631 0.86172 0.58811 0.0
C446 C 0.23979 0.85749 0.57668 0.0
C447 C 0.27056 0.83846 0.52423 0.0
C448 C 0.26116 0.86663 0.60176 0.0
C449 C 0.2914 0.84796 0.5502 0.0
C450 C 0.15054 0.84242 0.59186 0.0
C451 C 0.12274 0.8188 0.64366 0.0
N452 N 0.10593 0.83974 0.64481 0.0
C453 C 0.13304 0.86374 0.59372 0.0
C454 C 0.14538 0.81977 0.61708 0.0
C455 C 0.11058 0.86198 0.62062 0.0
C456 C 0.1742 0.9093 0.51023 0.0
N457 N 0.19677 0.89475 0.51099 0.0
C458 C 0.22308 0.93405 0.50753 0.0
C459 C 0.22097 0.9065 0.50875 0.0
C460 C 0.20006 0.94941 0.50787 0.0
C461 C 0.17539 0.93685 0.50885 0.0
H462 H 0.15525 0.89943 0.51017 0.0
H463 H 0.23866 0.89463 0.50743 0.0
C464 C 0.22721 0.77655 0.60343 0.0
N465 N 0.21391 0.79981 0.60658 0.0
C466 C 0.23864 0.76523 0.64127 0.0
C467 C 0.22242 0.802 0.68475 0.0
C468 C 0.21145 0.81266 0.64613 0.0
C469 C 0.23619 0.77803 0.68247 0.0
H470 H 0.22892 0.76683 0.57151 0.0
H471 H 0.20091 0.83122 0.64768 0.0
C472 C 0.17893 0.85844 0.42403 0.0
N473 N 0.19356 0.88797 0.35063 0.0
C474 C 0.15984 0.86702 0.39374 0.0
C475 C 0.2055 0.86489 0.41692 0.0
C476 C 0.16762 0.88192 0.35685 0.0
C477 C 0.21248 0.87983 0.37965 0.0
C478 C 0.16601 0.76975 0.50235 0.0
C479 C 0.15273 0.76843 0.46167 0.0
C480 C 0.16305 0.74938 0.53334 0.0
C481 C 0.1365 0.74671 0.45275 0.0
C482 C 0.14666 0.72797 0.52313 0.0
N483 N 0.13382 0.72711 0.48341 0.0
C484 C 0.23872 0.79058 0.42017 0.0
C485 C 0.19956 0.80052 0.38023 0.0
C486 C 0.25014 0.77959 0.38204 0.0
N487 N 0.2139 0.80082 0.41853 0.0
C488 C 0.21026 0.78989 0.34134 0.0
C489 C 0.23583 0.77929 0.34208 0.0
H490 H 0.24962 0.79098 0.4511 0.0
H491 H 0.17981 0.80863 0.37979 0.0
C492 C 0.10728 0.83663 0.48926 0.0
N493 N 0.12152 0.81816 0.51166 0.0
C494 C 0.07971 0.83552 0.48904 0.0
C495 C 0.08186 0.79634 0.53495 0.0
C496 C 0.10941 0.79821 0.53429 0.0
C497 C 0.06682 0.81524 0.51223 0.0
H498 H 0.11736 0.85256 0.47228 0.0
H499 H 0.12103 0.78411 0.55278 0.0
O500 O 0.22398 0.83362 0.51298 0.0
O501 O 0.17236 0.84349 0.56497 0.0
O502 O 0.17142 0.84397 0.46043 0.0
O503 O 0.1817 0.79097 0.51203 0.0
H504 H 0.21981 0.86155 0.58744 0.0
H505 H 0.27458 0.82745 0.49412 0.0
H506 H 0.25775 0.87764 0.63205 0.0
H507 H 0.31163 0.84437 0.54024 0.0
H508 H 0.11843 0.80132 0.66308 0.0
H509 H 0.13667 0.88143 0.57456 0.0
H510 H 0.1584 0.80286 0.61543 0.0
H511 H 0.09681 0.87829 0.62221 0.0
H512 H 0.24239 0.94329 0.50612 0.0
H513 H 0.15729 0.94826 0.50854 0.0
H514 H 0.24922 0.74671 0.63853 0.0
H515 H 0.22026 0.81234 0.71608 0.0
H516 H 0.13919 0.86218 0.39865 0.0
H517 H 0.22064 0.85847 0.43979 0.0
H518 H 0.15303 0.88868 0.33315 0.0
H519 H 0.23296 0.88496 0.37379 0.0
H520 H 0.1546 0.78421 0.43761 0.0
H521 H 0.17318 0.7502 0.56503 0.0
H522 H 0.12595 0.74549 0.42152 0.0
H523 H 0.14409 0.71208 0.54683 0.0
H524 H 0.26993 0.77148 0.3836 0.0
H525 H 0.19873 0.78989 0.31099 0.0
H526 H 0.06853 0.8505 0.47152 0.0
H527 H 0.07237 0.78063 0.55352 0.0
Li528 Li 0.19676 0.19668 0.55134 0.0
Li529 Li 0.15564 0.18938 0.50957 0.0
Li530 Li 0.19087 0.15589 0.50783 0.0
Li531 Li 0.19612 0.19731 0.46695 0.0
C532 C 0.16554 0.15957 0.60107 0.0
N533 N 0.15629 0.14137 0.68637 0.0
C534 C 0.14393 0.16894 0.62535 0.0
C535 C 0.18214 0.14056 0.61989 0.0
C536 C 0.13968 0.15962 0.66852 0.0
C537 C 0.17722 0.1317 0.66312 0.0
C538 C 0.16262 0.2428 0.50548 0.0
C539 C 0.13149 0.26812 0.46237 0.0
N540 N 0.12919 0.28555 0.49659 0.0
C541 C 0.16004 0.26097 0.54019 0.0
C542 C 0.14835 0.2464 0.46618 0.0
C543 C 0.14301 0.28247 0.53505 0.0
C544 C 0.23751 0.21954 0.60356 0.0
N545 N 0.21148 0.21269 0.60339 0.0
C546 C 0.20631 0.22854 0.67785 0.0
C547 C 0.19575 0.21741 0.63922 0.0
C548 C 0.2332 0.23524 0.67917 0.0
C549 C 0.24886 0.23086 0.64141 0.0
H550 H 0.24946 0.21617 0.5743 0.0
H551 H 0.17496 0.2127 0.63776 0.0
C552 C 0.10337 0.17819 0.48517 0.0
N553 N 0.11824 0.19421 0.51148 0.0
C554 C 0.07585 0.18003 0.48567 0.0
C555 C 0.07935 0.21492 0.54031 0.0
C556 C 0.10684 0.21224 0.53903 0.0
C557 C 0.06362 0.19855 0.51353 0.0
H558 H 0.11291 0.16373 0.46423 0.0
H559 H 0.11903 0.22431 0.56044 0.0
C560 C 0.2448 0.16746 0.51971 0.0
N561 N 0.29075 0.14144 0.54294 0.0
C562 C 0.2649 0.16394 0.48834 0.0
C563 C 0.24823 0.15805 0.56301 0.0
C564 C 0.28794 0.15063 0.50069 0.0
C565 C 0.27155 0.14488 0.57408 0.0
C566 C 0.17556 0.15525 0.41931 0.0
C567 C 0.20207 0.1507 0.40876 0.0
C568 C 0.15577 0.14545 0.39135 0.0
C569 C 0.20837 0.13635 0.37054 0.0
C570 C 0.16287 0.13116 0.35342 0.0
N571 N 0.1888 0.12694 0.34389 0.0
C572 C 0.1757 0.10374 0.52301 0.0
C573 C 0.2183 0.10681 0.49046 0.0
C574 C 0.17717 0.0762 0.52325 0.0
N575 N 0.19616 0.11845 0.50711 0.0
C576 C 0.22058 0.07928 0.48997 0.0
C577 C 0.1998 0.06378 0.50654 0.0
H578 H 0.15816 0.11348 0.53538 0.0
H579 H 0.23406 0.11876 0.477 0.0
C580 C 0.23626 0.22186 0.41587 0.0
N581 N 0.2106 0.21381 0.4154 0.0
C582 C 0.2476 0.23304 0.37785 0.0
C583 C 0.20575 0.2279 0.33993 0.0
C584 C 0.19526 0.21667 0.37856 0.0
C585 C 0.23224 0.23606 0.33935 0.0
H586 H 0.24794 0.21938 0.44569 0.0
H587 H 0.17497 0.20995 0.37904 0.0
O588 O 0.16983 0.16837 0.55861 0.0
O589 O 0.17888 0.22145 0.5102 0.0
O590 O 0.22205 0.18034 0.50811 0.0
O591 O 0.1689 0.16933 0.45659 0.0
H592 H 0.1307 0.18343 0.61117 0.0
H593 H 0.19848 0.13245 0.6012 0.0
H594 H 0.12316 0.16688 0.6878 0.0
H595 H 0.18996 0.11705 0.67811 0.0
H596 H 0.12018 0.27108 0.43226 0.0
H597 H 0.17096 0.2584 0.57085 0.0
H598 H 0.14997 0.23234 0.43922 0.0
H599 H 0.14073 0.29667 0.56167 0.0
H600 H 0.19368 0.23196 0.70636 0.0
H601 H 0.26964 0.23605 0.64137 0.0
H602 H 0.06418 0.16704 0.46479 0.0
H603 H 0.07042 0.22931 0.56234 0.0
H604 H 0.26268 0.17122 0.45471 0.0
H605 H 0.23318 0.16115 0.58794 0.0
H606 H 0.30358 0.14762 0.47669 0.0
H607 H 0.27443 0.13747 0.60749 0.0
H608 H 0.21765 0.15823 0.42971 0.0
H609 H 0.13514 0.14886 0.39875 0.0
H610 H 0.22883 0.13271 0.36206 0.0
H611 H 0.14775 0.12345 0.33153 0.0
H612 H 0.16078 0.06468 0.53605 0.0
H613 H 0.23823 0.07014 0.47661 0.0
H614 H 0.26812 0.23916 0.37833 0.0
H615 H 0.19345 0.22996 0.31066 0.0
Li616 Li 0.81475 0.20026 0.55202 0.0
Li617 Li 0.81991 0.15987 0.51228 0.0
Li618 Li 0.85716 0.19134 0.5112 0.0
Li619 Li 0.81487 0.19947 0.47046 0.0
C620 C 0.84528 0.17282 0.60708 0.0
N621 N 0.85151 0.17601 0.69818 0.0
C622 C 0.82694 0.16078 0.63537 0.0
C623 C 0.86697 0.1862 0.62505 0.0
C624 C 0.83037 0.16272 0.68136 0.0
C625 C 0.86974 0.18763 0.67122 0.0
C626 C 0.76744 0.16763 0.50918 0.0
C627 C 0.73106 0.14878 0.46811 0.0
N628 N 0.72419 0.13433 0.50449 0.0
C629 C 0.75991 0.15272 0.54625 0.0
C630 C 0.75285 0.16576 0.46982 0.0
C631 C 0.73804 0.13594 0.54317 0.0
C632 C 0.77482 0.21349 0.61431 0.0
N633 N 0.80072 0.21704 0.60372 0.0
C634 C 0.80739 0.24352 0.66865 0.0
C635 C 0.81692 0.23208 0.62951 0.0
C636 C 0.78089 0.23971 0.68063 0.0
C637 C 0.76441 0.22474 0.65292 0.0
H638 H 0.76224 0.20186 0.59288 0.0
H639 H 0.83732 0.23494 0.61989 0.0
C640 C 0.83091 0.10828 0.54006 0.0
N641 N 0.81422 0.12226 0.51353 0.0
C642 C 0.82995 0.08071 0.54064 0.0
C643 C 0.7943 0.08227 0.48722 0.0
C644 C 0.79617 0.10981 0.48723 0.0
C645 C 0.81156 0.06752 0.51381 0.0
H646 H 0.84544 0.11853 0.56 0.0
H647 H 0.78367 0.12109 0.46531 0.0
C648 C 0.83045 0.24738 0.49141 0.0
N649 N 0.8192 0.29374 0.44684 0.0
C650 C 0.84584 0.25511 0.45502 0.0
C651 C 0.80944 0.26326 0.50532 0.0
C652 C 0.83978 0.2786 0.43285 0.0
C653 C 0.80407 0.28665 0.48233 0.0
C654 C 0.84063 0.15049 0.4326 0.0
C655 C 0.86103 0.13191 0.43343 0.0
C656 C 0.81905 0.1466 0.40431 0.0
C657 C 0.85947 0.10968 0.40599 0.0
C658 C 0.81822 0.12413 0.37735 0.0
N659 N 0.83827 0.10628 0.37877 0.0
C660 C 0.90913 0.17271 0.51527 0.0
C661 C 0.90601 0.21941 0.51064 0.0
C662 C 0.93668 0.17413 0.51599 0.0
N663 N 0.89448 0.19512 0.5121 0.0
C664 C 0.93355 0.22177 0.51169 0.0
C665 C 0.94911 0.19888 0.51406 0.0
H666 H 0.89937 0.15374 0.5175 0.0
H667 H 0.89384 0.23692 0.5089 0.0
C668 C 0.77736 0.22898 0.4214 0.0
N669 N 0.80075 0.21587 0.41858 0.0
C670 C 0.76651 0.24089 0.3837 0.0
C671 C 0.80412 0.22574 0.34105 0.0
C672 C 0.81435 0.2143 0.37964 0.0
C673 C 0.77989 0.23909 0.34295 0.0
H674 H 0.76712 0.23005 0.45294 0.0
H675 H 0.83305 0.20401 0.37855 0.0
O676 O 0.84188 0.1717 0.56201 0.0
O677 O 0.78868 0.18432 0.5116 0.0
O678 O 0.8354 0.22395 0.51242 0.0
O679 O 0.84161 0.17219 0.4597 0.0
H680 H 0.81016 0.15019 0.62194 0.0
H681 H 0.88134 0.19564 0.60361 0.0
H682 H 0.81622 0.15369 0.70367 0.0
H683 H 0.88633 0.19807 0.68563 0.0
H684 H 0.71966 0.14705 0.43782 0.0
H685 H 0.77095 0.15396 0.57696 0.0
H686 H 0.75838 0.17709 0.44078 0.0
H687 H 0.73209 0.12418 0.57151 0.0
H688 H 0.8205 0.25512 0.6894 0.0
H689 H 0.74382 0.22162 0.66135 0.0
H690 H 0.84363 0.06975 0.5613 0.0
H691 H 0.78009 0.07254 0.46581 0.0
H692 H 0.86197 0.24285 0.44355 0.0
H693 H 0.79725 0.25743 0.53325 0.0
H694 H 0.85135 0.28472 0.40438 0.0
H695 H 0.7878 0.29909 0.49256 0.0
H696 H 0.87784 0.13453 0.45514 0.0
H697 H 0.80287 0.16053 0.40371 0.0
H698 H 0.87507 0.09509 0.40644 0.0
H699 H 0.80156 0.12081 0.35552 0.0
H700 H 0.94819 0.15614 0.51823 0.0
H701 H 0.94264 0.24115 0.51052 0.0
H702 H 0.74781 0.25117 0.38612 0.0
H703 H 0.81491 0.22414 0.31004 0.0
C704 C 0.29916 0.49283 0.03692 0.0
C705 C 0.31568 0.47892 1.00681 0.0
C706 C 0.32963 0.52089 0.97335 0.0
C707 C 0.31582 0.53479 1.00709 0.0
N708 N 0.29043 0.53407 0.07508 0.0
N709 N 0.34991 0.4797 0.95082 0.0
C710 C 0.30128 0.5208 0.03995 0.0
C711 C 0.33176 0.49294 0.97607 0.0
N712 N 0.28098 0.47935 0.06183 0.0
N713 N 0.34015 0.53434 0.93807 0.0
H714 H 0.35236 0.45925 0.95213 0.0
H715 H 0.36414 0.48919 0.93149 0.0
H716 H 0.3387 0.55481 0.93467 0.0
H717 H 0.34805 0.52503 0.91019 0.0
H718 H 0.26656 0.48863 0.08095 0.0
H719 H 0.27872 0.45887 0.06018 0.0
H720 H 0.28215 0.52463 0.10255 0.0
H721 H 0.29166 0.55454 0.07869 0.0
C722 C 0.49334 0.29886 0.03719 0.0
C723 C 0.47947 0.31323 1.00402 0.0
C724 C 0.52139 0.3282 0.97134 0.0
C725 C 0.53526 0.31349 1.00409 0.0
N726 N 0.53536 0.28232 0.06469 0.0
N727 N 0.47943 0.33895 0.93652 0.0
C728 C 0.52147 0.29802 0.03596 0.0
C729 C 0.49328 0.32709 0.97011 0.0
N730 N 0.47952 0.28655 0.07043 0.0
N731 N 0.53518 0.34372 0.94211 0.0
H732 H 0.45884 0.33957 0.9356 0.0
H733 H 0.48807 0.34689 0.90811 0.0
H734 H 0.55577 0.34391 0.94037 0.0
H735 H 0.52649 0.35742 0.9209 0.0
H736 H 0.48818 0.27833 0.09856 0.0
H737 H 0.45892 0.28561 0.07113 0.0
H738 H 0.52673 0.26839 0.08561 0.0
H739 H 0.55595 0.28201 0.06591 0.0
C740 C 0.68217 0.49581 0.03505 0.0
C741 C 0.70192 0.482 1.01093 0.0
C742 C 0.72093 0.52396 0.98534 0.0
C743 C 0.70208 0.53774 1.01146 0.0
N744 N 0.66763 0.53736 0.06688 0.0
N745 N 0.7424 0.4822 0.9687 0.0
C746 C 0.68352 0.52381 0.03802 0.0
C747 C 0.72201 0.49589 0.98769 0.0
N748 N 0.66165 0.48219 0.05392 0.0
N749 N 0.73722 0.5377 0.9573 0.0
H750 H 0.74356 0.46162 0.96926 0.0
H751 H 0.75914 0.49118 0.95535 0.0
H752 H 0.73731 0.55829 0.95536 0.0
H753 H 0.74935 0.52877 0.93373 0.0
H754 H 0.64503 0.49125 0.06745 0.0
H755 H 0.66022 0.46163 0.05326 0.0
H756 H 0.65578 0.52827 0.09072 0.0
H757 H 0.66782 0.55791 0.06948 0.0
C758 C 0.49454 0.71269 0.9798 0.0
C759 C 0.48053 0.70105 0.01573 0.0
C760 C 0.52225 0.68846 0.05133 0.0
C761 C 0.53628 0.7011 0.01638 0.0
N762 N 0.53648 0.72873 0.95109 0.0
N763 N 0.48031 0.68171 0.08898 0.0
C764 C 0.5226 0.7143 0.98172 0.0
C765 C 0.4942 0.69008 0.05254 0.0
N766 N 0.48103 0.72139 0.94323 0.0
N767 N 0.53576 0.67421 0.08259 0.0
H768 H 0.45973 0.68224 0.09071 0.0
H769 H 0.48911 0.67613 0.11882 0.0
H770 H 0.55634 0.67318 0.08353 0.0
H771 H 0.52666 0.66197 0.10585 0.0
H772 H 0.49013 0.72728 0.91379 0.0
H773 H 0.46045 0.72111 0.94112 0.0
H774 H 0.52769 0.74113 0.9278 0.0
H775 H 0.55708 0.72988 0.951 0.0
C776 C 0.82674 0.99682 0.47887 0.0
C777 C 0.81253 0.98247 0.5117 0.0
C778 C 0.79755 0.02387 0.54592 0.0
C779 C 0.81116 0.0382 0.51235 0.0
N780 N 0.83607 0.0391 0.44396 0.0
N781 N 0.78185 0.98138 0.57299 0.0
C782 C 0.82495 0.02487 0.47788 0.0
C783 C 0.79714 0.99575 0.54421 0.0
N784 N 0.84249 0.98355 0.44936 0.0
N785 N 0.78553 0.03723 0.57991 0.0
H786 H 0.78176 0.96077 0.57362 0.0
H787 H 0.768 0.98963 0.59443 0.0
H788 H 0.78438 0.0578 0.5811 0.0
H789 H 0.77788 0.02819 0.60821 0.0
H790 H 0.85586 0.99272 0.42803 0.0
H791 H 0.84333 0.96298 0.44765 0.0
H792 H 0.84377 0.03071 0.41516 0.0
H793 H 0.83627 0.05969 0.44318 0.0
C794 C 0.02334 0.79644 0.48683 0.0
C795 C 0.03751 0.81447 0.51403 0.0
C796 C 0.99593 0.83413 0.53961 0.0
C797 C 0.98173 0.81506 0.51451 0.0
N798 N 0.98135 0.77534 0.47031 0.0
N799 N 0.03774 0.84711 0.57246 0.0
C800 C 0.99529 0.79538 0.48988 0.0
C801 C 0.02391 0.83233 0.54229 0.0
N802 N 0.03665 0.78098 0.45702 0.0
N803 N 0.98274 0.85451 0.55956 0.0
H804 H 0.05828 0.84641 0.57523 0.0
H805 H 0.02881 0.85834 0.59727 0.0
H806 H 0.96222 0.85641 0.55873 0.0
H807 H 0.99219 0.87068 0.57396 0.0
H808 H 0.02734 0.76961 0.43279 0.0
H809 H 0.05721 0.78099 0.45425 0.0
H810 H 0.99017 0.75887 0.45586 0.0
H811 H 0.96078 0.77406 0.47168 0.0
C812 C 0.20773 0.02085 0.54604 0.0
C813 C 0.20151 0.03449 0.50617 0.0
C814 C 0.19806 0.99234 0.46622 0.0
C815 C 0.20163 0.97871 0.50702 0.0
N816 N 0.20701 0.97943 0.58669 0.0
N817 N 0.18783 0.03375 0.42936 0.0
C818 C 0.2058 0.99281 0.54721 0.0
C819 C 0.19598 0.02038 0.46643 0.0
N820 N 0.21607 0.03473 0.58247 0.0
N821 N 0.19717 0.97846 0.42722 0.0
H822 H 0.18646 0.0543 0.42802 0.0
H823 H 0.18059 0.0245 0.40093 0.0
H824 H 0.19829 0.95789 0.42591 0.0
H825 H 0.19746 0.98731 0.39596 0.0
H826 H 0.22361 0.02589 0.61103 0.0
H827 H 0.21749 0.05531 0.58291 0.0
H828 H 0.20693 0.98866 0.61762 0.0
H829 H 0.20621 0.95886 0.58879 0.0
C830 C 0.99248 0.20812 0.4759 0.0
C831 C 0.97845 0.20063 0.51485 0.0
C832 C 0.02028 0.19109 0.55273 0.0
C833 C 0.03431 0.20038 0.51491 0.0
N834 N 0.03402 0.22288 0.4442 0.0
N835 N 0.97885 0.19044 0.59321 0.0
C836 C 0.02046 0.21048 0.47758 0.0
C837 C 0.99233 0.19377 0.55419 0.0
N838 N 0.97921 0.21187 0.43681 0.0
N839 N 0.0335 0.1787 0.58645 0.0
H840 H 0.95838 0.19249 0.59564 0.0
H841 H 0.98813 0.1881 0.62388 0.0
H842 H 0.05395 0.17617 0.58658 0.0
H843 H 0.024 0.16893 0.61244 0.0
H844 H 0.98865 0.21445 0.40633 0.0
H845 H 0.95873 0.21015 0.43404 0.0
H846 H 0.0248 0.23305 0.4184 0.0
H847 H 0.05452 0.22514 0.44448 0.0
C848 C 0.25023 0.2747 0.2961 0.0
C849 C 0.24401 0.24736 0.29817 0.0
C850 C 0.25773 0.24203 0.22041 0.0
C851 C 0.26629 0.26875 0.21976 0.0
N852 N 0.27494 0.30941 0.25908 0.0
N853 N 0.24607 0.20393 0.26521 0.0
C854 C 0.26372 0.28481 0.25821 0.0
C855 C 0.24893 0.2307 0.26109 0.0
N856 N 0.24247 0.29116 0.32969 0.0
N857 N 0.25724 0.22771 0.18186 0.0
H858 H 0.23983 0.19483 0.29455 0.0
H859 H 0.25209 0.19056 0.24091 0.0
H860 H 0.26346 0.23535 0.15136 0.0
H861 H 0.24854 0.20911 0.17929 0.0
H862 H 0.24389 0.31167 0.32788 0.0
H863 H 0.23246 0.28452 0.35791 0.0
H864 H 0.27624 0.32088 0.28774 0.0
H865 H 0.28504 0.31749 0.23203 0.0
C866 C 0.77069 0.28322 0.24143 0.0
C867 C 0.74669 0.27303 0.22394 0.0
C868 C 0.74581 0.23911 0.28217 0.0
C869 C 0.76837 0.25089 0.30208 0.0
N870 N 0.79967 0.28685 0.30534 0.0
N871 N 0.70878 0.24441 0.23189 0.0
C872 C 0.7801 0.27373 0.28301 0.0
C873 C 0.73349 0.25183 0.2455 0.0
N874 N 0.78495 0.30132 0.2176 0.0
N875 N 0.73668 0.2153 0.29732 0.0
H876 H 0.69901 0.25334 0.20531 0.0
H877 H 0.69702 0.23106 0.24934 0.0
H878 H 0.74525 0.20526 0.32396 0.0
H879 H 0.72213 0.20438 0.28109 0.0
H880 H 0.80394 0.30734 0.22635 0.0
H881 H 0.77879 0.30862 0.18686 0.0
H882 H 0.80703 0.30516 0.29543 0.0
H883 H 0.80698 0.28059 0.33602 0.0
C884 C 0.78814 0.75783 0.2708 0.0
C885 C 0.77132 0.77124 0.30112 0.0
C886 C 0.734 0.76503 0.25017 0.0
C887 C 0.75006 0.7489 0.22259 0.0
N888 N 0.79128 0.7259 0.21107 0.0
N889 N 0.72715 0.78327 0.32369 0.0
C890 C 0.77686 0.74417 0.23409 0.0
C891 C 0.74391 0.77365 0.29194 0.0
N892 N 0.81495 0.7589 0.27614 0.0
N893 N 0.7096 0.77287 0.23585 0.0
H894 H 0.73352 0.7893 0.35508 0.0
H895 H 0.70665 0.78289 0.32047 0.0
H896 H 0.70185 0.76746 0.20501 0.0
H897 H 0.69818 0.78681 0.25257 0.0
H898 H 0.82822 0.75181 0.25249 0.0
H899 H 0.82403 0.76912 0.3021 0.0
H900 H 0.80999 0.71966 0.22099 0.0
H901 H 0.78365 0.71513 0.18443 0.0
C902 C 0.23775 0.7436 0.2839 0.0
C903 C 0.24753 0.7679 0.30089 0.0
C904 C 0.28062 0.7695 0.24124 0.0
C905 C 0.26922 0.74655 0.22195 0.0
N906 N 0.23405 0.71432 0.22037 0.0
N907 N 0.27507 0.80647 0.29163 0.0
C908 C 0.24694 0.73431 0.24202 0.0
C909 C 0.26809 0.78157 0.2784 0.0
N910 N 0.22031 0.72897 0.30847 0.0
N911 N 0.30393 0.77925 0.22502 0.0
H912 H 0.2663 0.81603 0.31859 0.0
H913 H 0.28786 0.81855 0.27361 0.0
H914 H 0.31378 0.77093 0.19796 0.0
H915 H 0.31468 0.79414 0.24071 0.0
H916 H 0.21467 0.7098 0.3001 0.0
H917 H 0.21323 0.73503 0.33942 0.0
H918 H 0.21607 0.70653 0.23103 0.0
H919 H 0.24008 0.70708 0.18951 0.0
C920 C 0.27052 0.77861 0.74293 0.0
C921 C 0.24805 0.76646 0.72335 0.0
C922 C 0.24914 0.73166 0.7802 0.0
C923 C 0.26996 0.74523 0.80215 0.0
N924 N 0.29763 0.78389 0.80882 0.0
N925 N 0.21311 0.73404 0.72725 0.0
C926 C 0.27988 0.76937 0.78473 0.0
C927 C 0.23655 0.74368 0.74306 0.0
N928 N 0.28342 0.79844 0.72089 0.0
N929 N 0.24198 0.7069 0.79392 0.0
H930 H 0.20324 0.74231 0.70018 0.0
H931 H 0.20229 0.7193 0.74325 0.0
H932 H 0.25075 0.6974 0.82093 0.0
H933 H 0.22898 0.69485 0.77628 0.0
H934 H 0.30152 0.80615 0.73115 0.0
H935 H 0.27726 0.80565 0.69008 0.0
H936 H 0.30342 0.80297 0.80016 0.0
H937 H 0.30487 0.77783 0.83966 0.0
C938 C 0.2755 0.24348 0.78319 0.0
C939 C 0.26717 0.26875 0.79812 0.0
C940 C 0.23851 0.27307 0.73274 0.0
C941 C 0.24493 0.24682 0.72014 0.0
N942 N 0.26589 0.20526 0.73738 0.0
N943 N 0.23742 0.30576 0.79163 0.0
C944 C 0.26243 0.2315 0.7465 0.0
C945 C 0.24772 0.28306 0.77414 0.0
N946 N 0.2965 0.23131 0.80313 0.0
N947 N 0.22433 0.28877 0.70446 0.0
H948 H 0.24356 0.31363 0.82199 0.0
H949 H 0.2212 0.31552 0.77808 0.0
H950 H 0.21736 0.28221 0.67373 0.0
H951 H 0.22148 0.30891 0.70963 0.0
H952 H 0.30531 0.21426 0.79066 0.0
H953 H 0.30668 0.23949 0.82999 0.0
H954 H 0.27611 0.19243 0.75826 0.0
H955 H 0.25657 0.19571 0.71093 0.0
C956 C 0.74691 0.28675 0.76133 0.0
C957 C 0.74882 0.27216 0.80153 0.0
C958 C 0.77109 0.23597 0.76222 0.0
C959 C 0.77035 0.25114 0.72251 0.0
N960 N 0.76091 0.29198 0.68453 0.0
N961 N 0.76527 0.23466 0.84239 0.0
C962 C 0.75922 0.27686 0.72215 0.0
C963 C 0.76167 0.24725 0.80258 0.0
N964 N 0.73277 0.30978 0.76049 0.0
N965 N 0.78024 0.21055 0.76099 0.0
H966 H 0.75791 0.24193 0.8724 0.0
H967 H 0.77699 0.21795 0.84641 0.0
H968 H 0.78817 0.20195 0.73241 0.0
H969 H 0.77856 0.19732 0.78734 0.0
H970 H 0.72796 0.31987 0.73145 0.0
H971 H 0.72426 0.31809 0.78882 0.0
H972 H 0.75588 0.3119 0.68329 0.0
H973 H 0.7691 0.2851 0.65487 0.0
C974 C 0.77247 0.73829 0.78535 0.0
C975 C 0.74896 0.74926 0.80331 0.0
C976 C 0.74944 0.78357 0.74565 0.0
C977 C 0.77125 0.77088 0.72501 0.0
N978 N 0.8005 0.73334 0.72057 0.0
N979 N 0.71232 0.77945 0.79614 0.0
C980 C 0.78194 0.74743 0.74358 0.0
C981 C 0.73666 0.77113 0.78225 0.0
N982 N 0.78623 0.71973 0.80889 0.0
N983 N 0.74149 0.80793 0.73129 0.0
H984 H 0.70219 0.77071 0.82256 0.0
H985 H 0.70115 0.79341 0.77902 0.0
H986 H 0.75051 0.81784 0.7049 0.0
H987 H 0.72757 0.81936 0.74806 0.0
H988 H 0.80491 0.71308 0.79965 0.0
H989 H 0.78014 0.71279 0.83992 0.0
H990 H 0.80694 0.71466 0.73026 0.0
H991 H 0.80768 0.73916 0.68955 0.0
loop_
_geom_bond_atom_site_label_1
_geom_bond_atom_site_label_2
_geom_bond_distance
_geom_bond_site_symmetry_2
_ccdc_geom_bond_type
Li0 N17 1.990 . S
Li0 O60 1.956 . S
Li0 O61 1.981 . S
Li0 O62 1.954 1_554 S
Li1 N25 1.991 . S
Li1 O60 1.959 1_556 S
Li1 O61 1.956 1_556 S
Li1 O63 1.972 . S
Li2 N47 1.991 . S
Li2 O60 1.976 . S
Li2 O62 1.956 1_554 S
Li2 O63 1.955 1_554 S
Li3 N53 1.990 . S
Li3 O61 1.950 1_556 S
Li3 O62 1.977 . S
Li3 O63 1.956 . S
C4 C6 1.348 . S
C4 C7 1.356 . S
C4 O60 1.325 . S
N5 C8 1.314 . S
N5 C9 1.279 . S
C6 C4 1.348 . S
C6 C8 1.353 . S
C6 H64 0.929 . S
C7 C4 1.356 . S
C7 C9 1.358 . S
C7 H65 0.930 . S
C8 N5 1.314 . S
C8 C6 1.353 . S
C8 H66 0.930 . S
C9 N5 1.279 . S
C9 C7 1.358 . S
C9 H67 0.930 . S
C10 C13 1.345 . S
C10 C14 1.358 1_554 S
C10 O61 1.325 . S
C11 N12 1.279 . S
C11 C14 1.358 . S
C11 H68 0.930 . S
N12 C11 1.279 . S
N12 C15 1.314 1_556 S
C13 C10 1.345 . S
C13 C15 1.353 . S
C13 H69 0.929 . S
C14 C10 1.358 1_556 S
C14 C11 1.358 . S
C14 H70 0.930 . S
C15 N12 1.314 1_554 S
C15 C13 1.353 . S
C15 H71 0.930 . S
C16 N17 1.314 . S
C16 C21 1.353 . S
C16 H22 0.930 . S
N17 Li0 1.990 . S
N17 C16 1.314 . S
N17 C19 1.279 . S
C18 C19 1.358 . S
C18 C20 1.356 . S
C18 H72 0.930 . S
C19 N17 1.279 . S
C19 C18 1.358 . S
C19 H23 0.930 . S
C20 C18 1.356 . S
C20 C21 1.348 . S
C21 C16 1.353 . S
C21 C20 1.348 . S
C21 H73 0.929 . S
H22 C16 0.930 . S
H23 C19 0.930 . S
C24 N25 1.314 . S
C24 C26 1.353 . S
C24 H30 0.930 . S
N25 Li1 1.991 . S
N25 C24 1.314 . S
N25 C28 1.279 1_556 S
C26 C24 1.353 . S
C26 C29 1.346 1_556 S
C26 H74 0.929 . S
C27 C28 1.358 . S
C27 C29 1.357 . S
C27 H75 0.930 . S
C28 N25 1.279 1_554 S
C28 C27 1.358 . S
C28 H31 0.930 . S
C29 C26 1.346 1_554 S
C29 C27 1.357 . S
H30 C24 0.930 . S
H31 C28 0.930 . S
C32 C34 1.345 1_554 S
C32 C35 1.358 . S
C32 O62 1.325 1_554 S
N33 C36 1.314 1_554 S
N33 C37 1.279 . S
C34 C32 1.345 1_556 S
C34 C36 1.353 . S
C34 H76 0.929 . S
C35 C32 1.358 . S
C35 C37 1.358 . S
C35 H77 0.930 . S
C36 N33 1.314 1_556 S
C36 C34 1.353 . S
C36 H78 0.930 . S
C37 N33 1.279 . S
C37 C35 1.358 . S
C37 H79 0.930 . S
C38 C39 1.348 . S
C38 C40 1.356 . S
C38 O63 1.325 . S
C39 C38 1.348 . S
C39 C41 1.353 . S
C39 H80 0.929 . S
C40 C38 1.356 . S
C40 C42 1.358 . S
C40 H81 0.930 . S
C41 C39 1.353 . S
C41 N43 1.314 . S
C41 H82 0.930 . S
C42 C40 1.358 . S
C42 N43 1.279 . S
C42 H83 0.930 . S
N43 C41 1.314 . S
N43 C42 1.279 . S
C44 C46 1.353 . S
C44 N47 1.314 . S
C44 H50 0.930 . S
C45 N47 1.279 1_556 S
C45 C48 1.358 . S
C45 H51 0.930 . S
C46 C44 1.353 . S
C46 C49 1.348 1_554 S
C46 H84 0.929 . S
N47 Li2 1.991 . S
N47 C44 1.314 . S
N47 C45 1.279 1_554 S
C48 C45 1.358 . S
C48 C49 1.356 . S
C48 H85 0.930 . S
C49 C46 1.348 1_556 S
C49 C48 1.356 . S
H50 C44 0.930 . S
H51 C45 0.930 . S
C52 N53 1.314 . S
C52 C54 1.353 . S
C52 H58 0.930 . S
N53 Li3 1.990 . S
N53 C52 1.314 . S
N53 C56 1.279 . S
C54 C52 1.353 . S
C54 C57 1.348 . S
C54 H86 0.929 . S
C55 C56 1.358 . S
C55 C57 1.356 . S
C55 H87 0.930 . S
C56 N53 1.279 . S
C56 C55 1.358 . S
C56 H59 0.930 . S
C57 C54 1.348 . S
C57 C55 1.356 . S
H58 C52 0.930 . S
H59 C56 0.930 . S
O60 Li0 1.956 . S
O60 Li1 1.959 1_554 S
O60 Li2 1.976 . S
O60 C4 1.325 . S
O61 Li0 1.981 . S
O61 Li1 1.956 1_554 S
O61 Li3 1.950 1_554 S
O61 C10 1.325 . S
O62 Li0 1.954 1_556 S
O62 Li2 1.956 1_556 S
O62 Li3 1.977 . S
O62 C32 1.325 1_556 S
O63 Li1 1.972 . S
O63 Li2 1.955 1_556 S
O63 Li3 1.956 . S
O63 C38 1.325 . S
H64 C6 0.929 . S
H65 C7 0.930 . S
H66 C8 0.930 . S
H67 C9 0.930 . S
H68 C11 0.930 . S
H69 C13 0.929 . S
H70 C14 0.930 . S
H71 C15 0.930 . S
H72 C18 0.930 . S
H73 C21 0.929 . S
H74 C26 0.929 . S
H75 C27 0.930 . S
H76 C34 0.929 . S
H77 C35 0.930 . S
H78 C36 0.930 . S
H79 C37 0.930 . S
H80 C39 0.929 . S
H81 C40 0.930 . S
H82 C41 0.930 . S
H83 C42 0.930 . S
H84 C46 0.929 . S
H85 C48 0.930 . S
H86 C54 0.929 . S
H87 C55 0.930 . S
Li88 N105 1.991 . S
Li88 O148 1.956 1_556 S
Li88 O149 1.959 1_556 S
Li88 O150 1.972 . S
Li89 N113 1.990 . S
Li89 O148 1.981 . S
Li89 O149 1.956 . S
Li89 O151 1.954 1_554 S
Li90 N135 1.990 . S
Li90 O148 1.950 1_556 S
Li90 O150 1.956 . S
Li90 O151 1.977 . S
Li91 N141 1.991 . S
Li91 O149 1.976 . S
Li91 O150 1.955 1_554 S
Li91 O151 1.956 1_554 S
C92 C94 1.345 . S
C92 C95 1.358 1_554 S
C92 O148 1.325 . S
N93 C96 1.314 1_556 S
N93 C97 1.279 . S
C94 C92 1.345 . S
C94 C96 1.353 . S
C94 H152 0.929 . S
C95 C92 1.358 1_556 S
C95 C97 1.358 . S
C95 H153 0.930 . S
C96 N93 1.314 1_554 S
C96 C94 1.353 . S
C96 H154 0.930 . S
C97 N93 1.279 . S
C97 C95 1.358 . S
C97 H155 0.930 . S
C98 C101 1.348 . S
C98 C102 1.356 . S
C98 O149 1.325 . S
C99 N100 1.279 . S
C99 C102 1.358 . S
C99 H156 0.930 . S
N100 C99 1.279 . S
N100 C103 1.314 . S
C101 C98 1.348 . S
C101 C103 1.353 . S
C101 H157 0.929 . S
C102 C98 1.356 . S
C102 C99 1.358 . S
C102 H158 0.930 . S
C103 N100 1.314 . S
C103 C101 1.353 . S
C103 H159 0.930 . S
C104 N105 1.314 . S
C104 C109 1.353 . S
C104 H110 0.930 . S
N105 Li88 1.991 . S
N105 C104 1.314 . S
N105 C107 1.279 1_556 S
C106 C107 1.358 . S
C106 C108 1.357 . S
C106 H160 0.930 . S
C107 N105 1.279 1_554 S
C107 C106 1.358 . S
C107 H111 0.930 . S
C108 C106 1.357 . S
C108 C109 1.346 1_554 S
C109 C104 1.353 . S
C109 C108 1.346 1_556 S
C109 H161 0.929 . S
H110 C104 0.930 . S
H111 C107 0.930 . S
C112 N113 1.314 . S
C112 C114 1.353 . S
C112 H118 0.930 . S
N113 Li89 1.990 . S
N113 C112 1.314 . S
N113 C116 1.279 . S
C114 C112 1.353 . S
C114 C117 1.348 . S
C114 H162 0.929 . S
C115 C116 1.358 . S
C115 C117 1.356 . S
C115 H163 0.930 . S
C116 N113 1.279 . S
C116 C115 1.358 . S
C116 H119 0.930 . S
C117 C114 1.348 . S
C117 C115 1.356 . S
H118 C112 0.930 . S
H119 C116 0.930 . S
C120 C122 1.348 . S
C120 C123 1.356 . S
C120 O150 1.325 . S
N121 C124 1.314 . S
N121 C125 1.279 . S
C122 C120 1.348 . S
C122 C124 1.353 . S
C122 H164 0.929 . S
C123 C120 1.356 . S
C123 C125 1.358 . S
C123 H165 0.930 . S
C124 N121 1.314 . S
C124 C122 1.353 . S
C124 H166 0.930 . S
C125 N121 1.279 . S
C125 C123 1.358 . S
C125 H167 0.930 . S
C126 C127 1.345 1_554 S
C126 C128 1.358 . S
C126 O151 1.325 1_554 S
C127 C126 1.345 1_556 S
C127 C129 1.353 . S
C127 H168 0.929 . S
C128 C126 1.358 . S
C128 C130 1.358 . S
C128 H169 0.930 . S
C129 C127 1.353 . S
C129 N131 1.314 1_556 S
C129 H170 0.930 . S
C130 C128 1.358 . S
C130 N131 1.279 . S
C130 H171 0.930 . S
N131 C129 1.314 1_554 S
N131 C130 1.279 . S
C132 C134 1.353 . S
C132 N135 1.314 . S
C132 H138 0.930 . S
C133 N135 1.279 . S
C133 C136 1.358 . S
C133 H139 0.930 . S
C134 C132 1.353 . S
C134 C137 1.348 . S
C134 H172 0.929 . S
N135 Li90 1.990 . S
N135 C132 1.314 . S
N135 C133 1.279 . S
C136 C133 1.358 . S
C136 C137 1.356 . S
C136 H173 0.930 . S
C137 C134 1.348 . S
C137 C136 1.356 . S
H138 C132 0.930 . S
H139 C133 0.930 . S
C140 N141 1.314 . S
C140 C142 1.353 . S
C140 H146 0.930 . S
N141 Li91 1.991 . S
N141 C140 1.314 . S
N141 C144 1.279 1_554 S
C142 C140 1.353 . S
C142 C145 1.348 1_554 S
C142 H174 0.929 . S
C143 C144 1.358 . S
C143 C145 1.356 . S
C143 H175 0.930 . S
C144 N141 1.279 1_556 S
C144 C143 1.358 . S
C144 H147 0.930 . S
C145 C142 1.348 1_556 S
C145 C143 1.356 . S
H146 C140 0.930 . S
H147 C144 0.930 . S
O148 Li88 1.956 1_554 S
O148 Li89 1.981 . S
O148 Li90 1.950 1_554 S
O148 C92 1.325 . S
O149 Li88 1.959 1_554 S
O149 Li89 1.956 . S
O149 Li91 1.976 . S
O149 C98 1.325 . S
O150 Li88 1.972 . S
O150 Li90 1.956 . S
O150 Li91 1.955 1_556 S
O150 C120 1.325 . S
O151 Li89 1.954 1_556 S
O151 Li90 1.977 . S
O151 Li91 1.956 1_556 S
O151 C126 1.325 1_556 S
H152 C94 0.929 . S
H153 C95 0.930 . S
H154 C96 0.930 . S
H155 C97 0.930 . S
H156 C99 0.930 . S
H157 C101 0.929 . S
H158 C102 0.930 . S
H159 C103 0.930 . S
H160 C106 0.930 . S
H161 C109 0.929 . S
H162 C114 0.929 . S
H163 C115 0.930 . S
H164 C122 0.929 . S
H165 C123 0.930 . S
H166 C124 0.930 . S
H167 C125 0.930 . S
H168 C127 0.929 . S
H169 C128 0.930 . S
H170 C129 0.930 . S
H171 C130 0.930 . S
H172 C134 0.929 . S
H173 C136 0.930 . S
H174 C142 0.929 . S
H175 C143 0.930 . S
Li176 N193 1.991 . S
Li176 O236 1.956 1_556 S
Li176 O237 1.959 1_556 S
Li176 O238 1.972 . S
Li177 N201 1.990 . S
Li177 O236 1.981 . S
Li177 O237 1.956 . S
Li177 O239 1.954 1_554 S
Li178 N223 1.990 . S
Li178 O236 1.950 1_556 S
Li178 O238 1.956 . S
Li178 O239 1.977 . S
Li179 N229 1.991 . S
Li179 O237 1.976 . S
Li179 O238 1.955 1_554 S
Li179 O239 1.956 1_554 S
C180 C182 1.345 . S
C180 C183 1.358 1_554 S
C180 O236 1.325 . S
N181 C184 1.314 1_556 S
N181 C185 1.279 . S
C182 C180 1.345 . S
C182 C184 1.353 . S
C182 H240 0.929 . S
C183 C180 1.358 1_556 S
C183 C185 1.358 . S
C183 H241 0.930 . S
C184 N181 1.314 1_554 S
C184 C182 1.353 . S
C184 H242 0.930 . S
C185 N181 1.279 . S
C185 C183 1.358 . S
C185 H243 0.930 . S
C186 C189 1.348 . S
C186 C190 1.356 . S
C186 O237 1.325 . S
C187 N188 1.279 . S
C187 C190 1.358 . S
C187 H244 0.930 . S
N188 C187 1.279 . S
N188 C191 1.314 . S
C189 C186 1.348 . S
C189 C191 1.353 . S
C189 H245 0.929 . S
C190 C186 1.356 . S
C190 C187 1.358 . S
C190 H246 0.930 . S
C191 N188 1.314 . S
C191 C189 1.353 . S
C191 H247 0.930 . S
C192 N193 1.314 . S
C192 C197 1.353 . S
C192 H198 0.930 . S
N193 Li176 1.991 . S
N193 C192 1.314 . S
N193 C195 1.279 1_556 S
C194 C195 1.358 . S
C194 C196 1.357 . S
C194 H248 0.930 . S
C195 N193 1.279 1_554 S
C195 C194 1.358 . S
C195 H199 0.930 . S
C196 C194 1.357 . S
C196 C197 1.346 1_554 S
C197 C192 1.353 . S
C197 C196 1.346 1_556 S
C197 H249 0.929 . S
H198 C192 0.930 . S
H199 C195 0.930 . S
C200 N201 1.314 . S
C200 C202 1.353 . S
C200 H206 0.930 . S
N201 Li177 1.990 . S
N201 C200 1.314 . S
N201 C204 1.279 . S
C202 C200 1.353 . S
C202 C205 1.348 . S
C202 H250 0.929 . S
C203 C204 1.358 . S
C203 C205 1.356 . S
C203 H251 0.930 . S
C204 N201 1.279 . S
C204 C203 1.358 . S
C204 H207 0.930 . S
C205 C202 1.348 . S
C205 C203 1.356 . S
H206 C200 0.930 . S
H207 C204 0.930 . S
C208 C210 1.348 . S
C208 C211 1.356 . S
C208 O238 1.325 . S
N209 C212 1.314 . S
N209 C213 1.279 . S
C210 C208 1.348 . S
C210 C212 1.353 . S
C210 H252 0.929 . S
C211 C208 1.356 . S
C211 C213 1.358 . S
C211 H253 0.930 . S
C212 N209 1.314 . S
C212 C210 1.353 . S
C212 H254 0.930 . S
C213 N209 1.279 . S
C213 C211 1.358 . S
C213 H255 0.930 . S
C214 C215 1.345 1_554 S
C214 C216 1.358 . S
C214 O239 1.325 1_554 S
C215 C214 1.345 1_556 S
C215 C217 1.353 . S
C215 H256 0.929 . S
C216 C214 1.358 . S
C216 C218 1.358 . S
C216 H257 0.930 . S
C217 C215 1.353 . S
C217 N219 1.314 1_556 S
C217 H258 0.930 . S
C218 C216 1.358 . S
C218 N219 1.279 . S
C218 H259 0.930 . S
N219 C217 1.314 1_554 S
N219 C218 1.279 . S
C220 C222 1.353 . S
C220 N223 1.314 . S
C220 H226 0.930 . S
C221 N223 1.279 . S
C221 C224 1.358 . S
C221 H227 0.930 . S
C222 C220 1.353 . S
C222 C225 1.348 . S
C222 H260 0.929 . S
N223 Li178 1.990 . S
N223 C220 1.314 . S
N223 C221 1.279 . S
C224 C221 1.358 . S
C224 C225 1.356 . S
C224 H261 0.930 . S
C225 C222 1.348 . S
C225 C224 1.356 . S
H226 C220 0.930 . S
H227 C221 0.930 . S
C228 N229 1.314 . S
C228 C230 1.353 . S
C228 H234 0.930 . S
N229 Li179 1.991 . S
N229 C228 1.314 . S
N229 C232 1.279 1_554 S
C230 C228 1.353 . S
C230 C233 1.348 1_554 S
C230 H262 0.929 . S
C231 C232 1.358 . S
C231 C233 1.356 . S
C231 H263 0.930 . S
C232 N229 1.279 1_556 S
C232 C231 1.358 . S
C232 H235 0.930 . S
C233 C230 1.348 1_556 S
C233 C231 1.356 . S
H234 C228 0.930 . S
H235 C232 0.930 . S
O236 Li176 1.956 1_554 S
O236 Li177 1.981 . S
O236 Li178 1.950 1_554 S
O236 C180 1.325 . S
O237 Li176 1.959 1_554 S
O237 Li177 1.956 . S
O237 Li179 1.976 . S
O237 C186 1.325 . S
O238 Li176 1.972 . S
O238 Li178 1.956 . S
O238 Li179 1.955 1_556 S
O238 C208 1.325 . S
O239 Li177 1.954 1_556 S
O239 Li178 1.977 . S
O239 Li179 1.956 1_556 S
O239 C214 1.325 1_556 S
H240 C182 0.929 . S
H241 C183 0.930 . S
H242 C184 0.930 . S
H243 C185 0.930 . S
H244 C187 0.930 . S
H245 C189 0.929 . S
H246 C190 0.930 . S
H247 C191 0.930 . S
H248 C194 0.930 . S
H249 C197 0.929 . S
H250 C202 0.929 . S
H251 C203 0.930 . S
H252 C210 0.929 . S
H253 C211 0.930 . S
H254 C212 0.930 . S
H255 C213 0.930 . S
H256 C215 0.929 . S
H257 C216 0.930 . S
H258 C217 0.930 . S
H259 C218 0.930 . S
H260 C222 0.929 . S
H261 C224 0.930 . S
H262 C230 0.929 . S
H263 C231 0.930 . S
Li264 N281 1.991 . S
Li264 O324 1.956 1_556 S
Li264 O325 1.959 1_556 S
Li264 O326 1.972 . S
Li265 N289 1.990 . S
Li265 O324 1.981 . S
Li265 O325 1.956 . S
Li265 O327 1.954 1_554 S
Li266 N311 1.990 . S
Li266 O324 1.950 1_556 S
Li266 O326 1.956 . S
Li266 O327 1.977 . S
Li267 N317 1.991 . S
Li267 O325 1.976 . S
Li267 O326 1.955 1_554 S
Li267 O327 1.956 1_554 S
C268 C270 1.345 . S
C268 C271 1.358 1_554 S
C268 O324 1.325 . S
N269 C272 1.314 1_556 S
N269 C273 1.279 . S
C270 C268 1.345 . S
C270 C272 1.353 . S
C270 H328 0.929 . S
C271 C268 1.358 1_556 S
C271 C273 1.358 . S
C271 H329 0.930 . S
C272 N269 1.314 1_554 S
C272 C270 1.353 . S
C272 H330 0.930 . S
C273 N269 1.279 . S
C273 C271 1.358 . S
C273 H331 0.930 . S
C274 C277 1.348 . S
C274 C278 1.356 . S
C274 O325 1.325 . S
C275 N276 1.279 . S
C275 C278 1.358 . S
C275 H332 0.930 . S
N276 C275 1.279 . S
N276 C279 1.314 . S
C277 C274 1.348 . S
C277 C279 1.353 . S
C277 H333 0.929 . S
C278 C274 1.356 . S
C278 C275 1.358 . S
C278 H334 0.930 . S
C279 N276 1.314 . S
C279 C277 1.353 . S
C279 H335 0.930 . S
C280 N281 1.314 . S
C280 C285 1.353 . S
C280 H286 0.930 . S
N281 Li264 1.991 . S
N281 C280 1.314 . S
N281 C283 1.279 1_556 S
C282 C283 1.358 . S
C282 C284 1.357 . S
C282 H336 0.930 . S
C283 N281 1.279 1_554 S
C283 C282 1.358 . S
C283 H287 0.930 . S
C284 C282 1.357 . S
C284 C285 1.346 1_554 S
C285 C280 1.353 . S
C285 C284 1.346 1_556 S
C285 H337 0.929 . S
H286 C280 0.930 . S
H287 C283 0.930 . S
C288 N289 1.314 . S
C288 C290 1.353 . S
C288 H294 0.930 . S
N289 Li265 1.990 . S
N289 C288 1.314 . S
N289 C292 1.279 . S
C290 C288 1.353 . S
C290 C293 1.348 . S
C290 H338 0.929 . S
C291 C292 1.358 . S
C291 C293 1.356 . S
C291 H339 0.930 . S
C292 N289 1.279 . S
C292 C291 1.358 . S
C292 H295 0.930 . S
C293 C290 1.348 . S
C293 C291 1.356 . S
H294 C288 0.930 . S
H295 C292 0.930 . S
C296 C298 1.348 . S
C296 C299 1.356 . S
C296 O326 1.325 . S
N297 C300 1.314 . S
N297 C301 1.279 . S
C298 C296 1.348 . S
C298 C300 1.353 . S
C298 H340 0.929 . S
C299 C296 1.356 . S
C299 C301 1.358 . S
C299 H341 0.930 . S
C300 N297 1.314 . S
C300 C298 1.353 . S
C300 H342 0.930 . S
C301 N297 1.279 . S
C301 C299 1.358 . S
C301 H343 0.930 . S
C302 C303 1.345 1_554 S
C302 C304 1.358 . S
C302 O327 1.325 1_554 S
C303 C302 1.345 1_556 S
C303 C305 1.353 . S
C303 H344 0.929 . S
C304 C302 1.358 . S
C304 C306 1.358 . S
C304 H345 0.930 . S
C305 C303 1.353 . S
C305 N307 1.314 1_556 S
C305 H346 0.930 . S
C306 C304 1.358 . S
C306 N307 1.279 . S
C306 H347 0.930 . S
N307 C305 1.314 1_554 S
N307 C306 1.279 . S
C308 C310 1.353 . S
C308 N311 1.314 . S
C308 H314 0.930 . S
C309 N311 1.279 . S
C309 C312 1.358 . S
C309 H315 0.930 . S
C310 C308 1.353 . S
C310 C313 1.348 . S
C310 H348 0.929 . S
N311 Li266 1.990 . S
N311 C308 1.314 . S
N311 C309 1.279 . S
C312 C309 1.358 . S
C312 C313 1.356 . S
C312 H349 0.930 . S
C313 C310 1.348 . S
C313 C312 1.356 . S
H314 C308 0.930 . S
H315 C309 0.930 . S
C316 N317 1.314 . S
C316 C318 1.353 . S
C316 H322 0.930 . S
N317 Li267 1.991 . S
N317 C316 1.314 . S
N317 C320 1.279 1_554 S
C318 C316 1.353 . S
C318 C321 1.348 1_554 S
C318 H350 0.929 . S
C319 C320 1.358 . S
C319 C321 1.356 . S
C319 H351 0.930 . S
C320 N317 1.279 1_556 S
C320 C319 1.358 . S
C320 H323 0.930 . S
C321 C318 1.348 1_556 S
C321 C319 1.356 . S
H322 C316 0.930 . S
H323 C320 0.930 . S
O324 Li264 1.956 1_554 S
O324 Li265 1.981 . S
O324 Li266 1.950 1_554 S
O324 C268 1.325 . S
O325 Li264 1.959 1_554 S
O325 Li265 1.956 . S
O325 Li267 1.976 . S
O325 C274 1.325 . S
O326 Li264 1.972 . S
O326 Li266 1.956 . S
O326 Li267 1.955 1_556 S
O326 C296 1.325 . S
O327 Li265 1.954 1_556 S
O327 Li266 1.977 . S
O327 Li267 1.956 1_556 S
O327 C302 1.325 1_556 S
H328 C270 0.929 . S
H329 C271 0.930 . S
H330 C272 0.930 . S
H331 C273 0.930 . S
H332 C275 0.930 . S
H333 C277 0.929 . S
H334 C278 0.930 . S
H335 C279 0.930 . S
H336 C282 0.930 . S
H337 C285 0.929 . S
H338 C290 0.929 . S
H339 C291 0.930 . S
H340 C298 0.929 . S
H341 C299 0.930 . S
H342 C300 0.930 . S
H343 C301 0.930 . S
H344 C303 0.929 . S
H345 C304 0.930 . S
H346 C305 0.930 . S
H347 C306 0.930 . S
H348 C310 0.929 . S
H349 C312 0.930 . S
H350 C318 0.929 . S
H351 C319 0.930 . S
Li352 N369 1.990 . S
Li352 O412 1.956 . S
Li352 O413 1.970 . S
Li352 O414 1.961 . S
Li353 N377 1.990 . S
Li353 O412 1.970 . S
Li353 O413 1.956 . S
Li353 O415 1.961 . S
Li354 N399 1.990 . S
Li354 O412 1.961 . S
Li354 O414 1.956 . S
Li354 O415 1.970 . S
Li355 N405 1.990 . S
Li355 O413 1.961 . S
Li355 O414 1.970 . S
Li355 O415 1.956 . S
C356 C358 1.348 . S
C356 C359 1.356 . S
C356 O412 1.325 . S
N357 C360 1.314 . S
N357 C361 1.279 . S
C358 C356 1.348 . S
C358 C360 1.353 . S
C358 H416 0.929 . S
C359 C356 1.356 . S
C359 C361 1.358 . S
C359 H417 0.930 . S
C360 N357 1.314 . S
C360 C358 1.353 . S
C360 H418 0.930 . S
C361 N357 1.279 . S
C361 C359 1.358 . S
C361 H419 0.930 . S
C362 C365 1.348 . S
C362 C366 1.356 . S
C362 O413 1.325 . S
C363 N364 1.279 . S
C363 C366 1.358 . S
C363 H420 0.930 . S
N364 C363 1.279 . S
N364 C367 1.314 . S
C365 C362 1.348 . S
C365 C367 1.353 . S
C365 H421 0.929 . S
C366 C362 1.356 . S
C366 C363 1.358 . S
C366 H422 0.930 . S
C367 N364 1.314 . S
C367 C365 1.353 . S
C367 H423 0.930 . S
C368 N369 1.314 . S
C368 C373 1.353 . S
C368 H374 0.930 . S
N369 Li352 1.990 . S
N369 C368 1.314 . S
N369 C371 1.279 . S
C370 C371 1.358 . S
C370 C372 1.356 . S
C370 H424 0.930 . S
C371 N369 1.279 . S
C371 C370 1.358 . S
C371 H375 0.930 . S
C372 C370 1.356 . S
C372 C373 1.348 . S
C373 C368 1.353 . S
C373 C372 1.348 . S
C373 H425 0.929 . S
H374 C368 0.930 . S
H375 C371 0.930 . S
C376 N377 1.314 . S
C376 C378 1.353 . S
C376 H382 0.930 . S
N377 Li353 1.990 . S
N377 C376 1.314 . S
N377 C380 1.279 . S
C378 C376 1.353 . S
C378 C381 1.348 . S
C378 H426 0.929 . S
C379 C380 1.358 . S
C379 C381 1.356 . S
C379 H427 0.930 . S
C380 N377 1.279 . S
C380 C379 1.358 . S
C380 H383 0.930 . S
C381 C378 1.348 . S
C381 C379 1.356 . S
H382 C376 0.930 . S
H383 C380 0.930 . S
C384 C386 1.348 . S
C384 C387 1.356 . S
C384 O414 1.325 . S
N385 C388 1.314 . S
N385 C389 1.279 . S
C386 C384 1.348 . S
C386 C388 1.353 . S
C386 H428 0.929 . S
C387 C384 1.356 . S
C387 C389 1.358 . S
C387 H429 0.930 . S
C388 N385 1.314 . S
C388 C386 1.353 . S
C388 H430 0.930 . S
C389 N385 1.279 . S
C389 C387 1.358 . S
C389 H431 0.930 . S
C390 C391 1.348 . S
C390 C392 1.356 . S
C390 O415 1.325 . S
C391 C390 1.348 . S
C391 C393 1.353 . S
C391 H432 0.929 . S
C392 C390 1.356 . S
C392 C394 1.358 . S
C392 H433 0.930 . S
C393 C391 1.353 . S
C393 N395 1.314 . S
C393 H434 0.930 . S
C394 C392 1.358 . S
C394 N395 1.279 . S
C394 H435 0.930 . S
N395 C393 1.314 . S
N395 C394 1.279 . S
C396 C398 1.353 . S
C396 N399 1.314 . S
C396 H402 0.930 . S
C397 N399 1.279 . S
C397 C400 1.358 . S
C397 H403 0.930 . S
C398 C396 1.353 . S
C398 C401 1.348 . S
C398 H436 0.929 . S
N399 Li354 1.990 . S
N399 C396 1.314 . S
N399 C397 1.279 . S
C400 C397 1.358 . S
C400 C401 1.356 . S
C400 H437 0.930 . S
C401 C398 1.348 . S
C401 C400 1.356 . S
H402 C396 0.930 . S
H403 C397 0.930 . S
C404 N405 1.314 . S
C404 C406 1.353 . S
C404 H410 0.930 . S
N405 Li355 1.990 . S
N405 C404 1.314 . S
N405 C408 1.279 . S
C406 C404 1.353 . S
C406 C409 1.348 . S
C406 H438 0.929 . S
C407 C408 1.358 . S
C407 C409 1.356 . S
C407 H439 0.930 . S
C408 N405 1.279 . S
C408 C407 1.358 . S
C408 H411 0.930 . S
C409 C406 1.348 . S
C409 C407 1.356 . S
H410 C404 0.930 . S
H411 C408 0.930 . S
O412 Li352 1.956 . S
O412 Li353 1.970 . S
O412 Li354 1.961 . S
O412 C356 1.325 . S
O413 Li352 1.970 . S
O413 Li353 1.956 . S
O413 Li355 1.961 . S
O413 C362 1.325 . S
O414 Li352 1.961 . S
O414 Li354 1.956 . S
O414 Li355 1.970 . S
O414 C384 1.325 . S
O415 Li353 1.961 . S
O415 Li354 1.970 . S
O415 Li355 1.956 . S
O415 C390 1.325 . S
H416 C358 0.929 . S
H417 C359 0.930 . S
H418 C360 0.930 . S
H419 C361 0.930 . S
H420 C363 0.930 . S
H421 C365 0.929 . S
H422 C366 0.930 . S
H423 C367 0.930 . S
H424 C370 0.930 . S
H425 C373 0.929 . S
H426 C378 0.929 . S
H427 C379 0.930 . S
H428 C386 0.929 . S
H429 C387 0.930 . S
H430 C388 0.930 . S
H431 C389 0.930 . S
H432 C391 0.929 . S
H433 C392 0.930 . S
H434 C393 0.930 . S
H435 C394 0.930 . S
H436 C398 0.929 . S
H437 C400 0.930 . S
H438 C406 0.929 . S
H439 C407 0.930 . S
Li440 N457 1.990 . S
Li440 O500 1.956 . S
Li440 O501 1.970 . S
Li440 O502 1.961 . S
Li441 N465 1.990 . S
Li441 O500 1.970 . S
Li441 O501 1.956 . S
Li441 O503 1.961 . S
Li442 N487 1.990 . S
Li442 O500 1.961 . S
Li442 O502 1.956 . S
Li442 O503 1.970 . S
Li443 N493 1.990 . S
Li443 O501 1.961 . S
Li443 O502 1.970 . S
Li443 O503 1.956 . S
C444 C446 1.348 . S
C444 C447 1.356 . S
C444 O500 1.325 . S
N445 C448 1.314 . S
N445 C449 1.279 . S
C446 C444 1.348 . S
C446 C448 1.353 . S
C446 H504 0.929 . S
C447 C444 1.356 . S
C447 C449 1.358 . S
C447 H505 0.930 . S
C448 N445 1.314 . S
C448 C446 1.353 . S
C448 H506 0.930 . S
C449 N445 1.279 . S
C449 C447 1.358 . S
C449 H507 0.930 . S
C450 C453 1.348 . S
C450 C454 1.356 . S
C450 O501 1.325 . S
C451 N452 1.279 . S
C451 C454 1.358 . S
C451 H508 0.930 . S
N452 C451 1.279 . S
N452 C455 1.314 . S
C453 C450 1.348 . S
C453 C455 1.353 . S
C453 H509 0.929 . S
C454 C450 1.356 . S
C454 C451 1.358 . S
C454 H510 0.930 . S
C455 N452 1.314 . S
C455 C453 1.353 . S
C455 H511 0.930 . S
C456 N457 1.314 . S
C456 C461 1.353 . S
C456 H462 0.930 . S
N457 Li440 1.990 . S
N457 C456 1.314 . S
N457 C459 1.279 . S
C458 C459 1.358 . S
C458 C460 1.356 . S
C458 H512 0.930 . S
C459 N457 1.279 . S
C459 C458 1.358 . S
C459 H463 0.930 . S
C460 C458 1.356 . S
C460 C461 1.348 . S
C461 C456 1.353 . S
C461 C460 1.348 . S
C461 H513 0.929 . S
H462 C456 0.930 . S
H463 C459 0.930 . S
C464 N465 1.314 . S
C464 C466 1.353 . S
C464 H470 0.930 . S
N465 Li441 1.990 . S
N465 C464 1.314 . S
N465 C468 1.279 . S
C466 C464 1.353 . S
C466 C469 1.348 . S
C466 H514 0.929 . S
C467 C468 1.358 . S
C467 C469 1.356 . S
C467 H515 0.930 . S
C468 N465 1.279 . S
C468 C467 1.358 . S
C468 H471 0.930 . S
C469 C466 1.348 . S
C469 C467 1.356 . S
H470 C464 0.930 . S
H471 C468 0.930 . S
C472 C474 1.348 . S
C472 C475 1.356 . S
C472 O502 1.325 . S
N473 C476 1.314 . S
N473 C477 1.279 . S
C474 C472 1.348 . S
C474 C476 1.353 . S
C474 H516 0.929 . S
C475 C472 1.356 . S
C475 C477 1.358 . S
C475 H517 0.930 . S
C476 N473 1.314 . S
C476 C474 1.353 . S
C476 H518 0.930 . S
C477 N473 1.279 . S
C477 C475 1.358 . S
C477 H519 0.930 . S
C478 C479 1.348 . S
C478 C480 1.356 . S
C478 O503 1.325 . S
C479 C478 1.348 . S
C479 C481 1.353 . S
C479 H520 0.929 . S
C480 C478 1.356 . S
C480 C482 1.358 . S
C480 H521 0.930 . S
C481 C479 1.353 . S
C481 N483 1.314 . S
C481 H522 0.930 . S
C482 C480 1.358 . S
C482 N483 1.279 . S
C482 H523 0.930 . S
N483 C481 1.314 . S
N483 C482 1.279 . S
C484 C486 1.353 . S
C484 N487 1.314 . S
C484 H490 0.930 . S
C485 N487 1.279 . S
C485 C488 1.358 . S
C485 H491 0.930 . S
C486 C484 1.353 . S
C486 C489 1.348 . S
C486 H524 0.929 . S
N487 Li442 1.990 . S
N487 C484 1.314 . S
N487 C485 1.279 . S
C488 C485 1.358 . S
C488 C489 1.356 . S
C488 H525 0.930 . S
C489 C486 1.348 . S
C489 C488 1.356 . S
H490 C484 0.930 . S
H491 C485 0.930 . S
C492 N493 1.314 . S
C492 C494 1.353 . S
C492 H498 0.930 . S
N493 Li443 1.990 . S
N493 C492 1.314 . S
N493 C496 1.279 . S
C494 C492 1.353 . S
C494 C497 1.348 . S
C494 H526 0.929 . S
C495 C496 1.358 . S
C495 C497 1.356 . S
C495 H527 0.930 . S
C496 N493 1.279 . S
C496 C495 1.358 . S
C496 H499 0.930 . S
C497 C494 1.348 . S
C497 C495 1.356 . S
H498 C492 0.930 . S
H499 C496 0.930 . S
O500 Li440 1.956 . S
O500 Li441 1.970 . S
O500 Li442 1.961 . S
O500 C444 1.325 . S
O501 Li440 1.970 . S
O501 Li441 1.956 . S
O501 Li443 1.961 . S
O501 C450 1.325 . S
O502 Li440 1.961 . S
O502 Li442 1.956 . S
O502 Li443 1.970 . S
O502 C472 1.325 . S
O503 Li441 1.961 . S
O503 Li442 1.970 . S
O503 Li443 1.956 . S
O503 C478 1.325 . S
H504 C446 0.929 . S
H505 C447 0.930 . S
H506 C448 0.930 . S
H507 C449 0.930 . S
H508 C451 0.930 . S
H509 C453 0.929 . S
H510 C454 0.930 . S
H511 C455 0.930 . S
H512 C458 0.930 . S
H513 C461 0.929 . S
H514 C466 0.929 . S
H515 C467 0.930 . S
H516 C474 0.929 . S
H517 C475 0.930 . S
H518 C476 0.930 . S
H519 C477 0.930 . S
H520 C479 0.929 . S
H521 C480 0.930 . S
H522 C481 0.930 . S
H523 C482 0.930 . S
H524 C486 0.929 . S
H525 C488 0.930 . S
H526 C494 0.929 . S
H527 C495 0.930 . S
Li528 N545 1.990 . S
Li528 O588 1.956 . S
Li528 O589 1.970 . S
Li528 O590 1.961 . S
Li529 N553 1.990 . S
Li529 O588 1.970 . S
Li529 O589 1.956 . S
Li529 O591 1.961 . S
Li530 N575 1.990 . S
Li530 O588 1.961 . S
Li530 O590 1.956 . S
Li530 O591 1.970 . S
Li531 N581 1.990 . S
Li531 O589 1.961 . S
Li531 O590 1.970 . S
Li531 O591 1.956 . S
C532 C534 1.348 . S
C532 C535 1.356 . S
C532 O588 1.325 . S
N533 C536 1.314 . S
N533 C537 1.279 . S
C534 C532 1.348 . S
C534 C536 1.353 . S
C534 H592 0.929 . S
C535 C532 1.356 . S
C535 C537 1.358 . S
C535 H593 0.930 . S
C536 N533 1.314 . S
C536 C534 1.353 . S
C536 H594 0.930 . S
C537 N533 1.279 . S
C537 C535 1.358 . S
C537 H595 0.930 . S
C538 C541 1.348 . S
C538 C542 1.356 . S
C538 O589 1.325 . S
C539 N540 1.279 . S
C539 C542 1.358 . S
C539 H596 0.930 . S
N540 C539 1.279 . S
N540 C543 1.314 . S
C541 C538 1.348 . S
C541 C543 1.353 . S
C541 H597 0.929 . S
C542 C538 1.356 . S
C542 C539 1.358 . S
C542 H598 0.930 . S
C543 N540 1.314 . S
C543 C541 1.353 . S
C543 H599 0.930 . S
C544 N545 1.314 . S
C544 C549 1.353 . S
C544 H550 0.930 . S
N545 Li528 1.990 . S
N545 C544 1.314 . S
N545 C547 1.279 . S
C546 C547 1.358 . S
C546 C548 1.356 . S
C546 H600 0.930 . S
C547 N545 1.279 . S
C547 C546 1.358 . S
C547 H551 0.930 . S
C548 C546 1.356 . S
C548 C549 1.348 . S
C549 C544 1.353 . S
C549 C548 1.348 . S
C549 H601 0.929 . S
H550 C544 0.930 . S
H551 C547 0.930 . S
C552 N553 1.314 . S
C552 C554 1.353 . S
C552 H558 0.930 . S
N553 Li529 1.990 . S
N553 C552 1.314 . S
N553 C556 1.279 . S
C554 C552 1.353 . S
C554 C557 1.348 . S
C554 H602 0.929 . S
C555 C556 1.358 . S
C555 C557 1.356 . S
C555 H603 0.930 . S
C556 N553 1.279 . S
C556 C555 1.358 . S
C556 H559 0.930 . S
C557 C554 1.348 . S
C557 C555 1.356 . S
H558 C552 0.930 . S
H559 C556 0.930 . S
C560 C562 1.348 . S
C560 C563 1.356 . S
C560 O590 1.325 . S
N561 C564 1.314 . S
N561 C565 1.279 . S
C562 C560 1.348 . S
C562 C564 1.353 . S
C562 H604 0.929 . S
C563 C560 1.356 . S
C563 C565 1.358 . S
C563 H605 0.930 . S
C564 N561 1.314 . S
C564 C562 1.353 . S
C564 H606 0.930 . S
C565 N561 1.279 . S
C565 C563 1.358 . S
C565 H607 0.930 . S
C566 C567 1.348 . S
C566 C568 1.356 . S
C566 O591 1.325 . S
C567 C566 1.348 . S
C567 C569 1.353 . S
C567 H608 0.929 . S
C568 C566 1.356 . S
C568 C570 1.358 . S
C568 H609 0.930 . S
C569 C567 1.353 . S
C569 N571 1.314 . S
C569 H610 0.930 . S
C570 C568 1.358 . S
C570 N571 1.279 . S
C570 H611 0.930 . S
N571 C569 1.314 . S
N571 C570 1.279 . S
C572 C574 1.353 . S
C572 N575 1.314 . S
C572 H578 0.930 . S
C573 N575 1.279 . S
C573 C576 1.358 . S
C573 H579 0.930 . S
C574 C572 1.353 . S
C574 C577 1.348 . S
C574 H612 0.929 . S
N575 Li530 1.990 . S
N575 C572 1.314 . S
N575 C573 1.279 . S
C576 C573 1.358 . S
C576 C577 1.356 . S
C576 H613 0.930 . S
C577 C574 1.348 . S
C577 C576 1.356 . S
H578 C572 0.930 . S
H579 C573 0.930 . S
C580 N581 1.314 . S
C580 C582 1.353 . S
C580 H586 0.930 . S
N581 Li531 1.990 . S
N581 C580 1.314 . S
N581 C584 1.279 . S
C582 C580 1.353 . S
C582 C585 1.348 . S
C582 H614 0.929 . S
C583 C584 1.358 . S
C583 C585 1.356 . S
C583 H615 0.930 . S
C584 N581 1.279 . S
C584 C583 1.358 . S
C584 H587 0.930 . S
C585 C582 1.348 . S
C585 C583 1.356 . S
H586 C580 0.930 . S
H587 C584 0.930 . S
O588 Li528 1.956 . S
O588 Li529 1.970 . S
O588 Li530 1.961 . S
O588 C532 1.325 . S
O589 Li528 1.970 . S
O589 Li529 1.956 . S
O589 Li531 1.961 . S
O589 C538 1.325 . S
O590 Li528 1.961 . S
O590 Li530 1.956 . S
O590 Li531 1.970 . S
O590 C560 1.325 . S
O591 Li529 1.961 . S
O591 Li530 1.970 . S
O591 Li531 1.956 . S
O591 C566 1.325 . S
H592 C534 0.929 . S
H593 C535 0.930 . S
H594 C536 0.930 . S
H595 C537 0.930 . S
H596 C539 0.930 . S
H597 C541 0.929 . S
H598 C542 0.930 . S
H599 C543 0.930 . S
H600 C546 0.930 . S
H601 C549 0.929 . S
H602 C554 0.929 . S
H603 C555 0.930 . S
H604 C562 0.929 . S
H605 C563 0.930 . S
H606 C564 0.930 . S
H607 C565 0.930 . S
H608 C567 0.929 . S
H609 C568 0.930 . S
H610 C569 0.930 . S
H611 C570 0.930 . S
H612 C574 0.929 . S
H613 C576 0.930 . S
H614 C582 0.929 . S
H615 C583 0.930 . S
Li616 N633 1.990 . S
Li616 O676 1.956 . S
Li616 O677 1.970 . S
Li616 O678 1.961 . S
Li617 N641 1.990 . S
Li617 O676 1.970 . S
Li617 O677 1.956 . S
Li617 O679 1.961 . S
Li618 N663 1.990 . S
Li618 O676 1.961 . S
Li618 O678 1.956 . S
Li618 O679 1.970 . S
Li619 N669 1.990 . S
Li619 O677 1.961 . S
Li619 O678 1.970 . S
Li619 O679 1.956 . S
C620 C622 1.348 . S
C620 C623 1.356 . S
C620 O676 1.325 . S
N621 C624 1.314 . S
N621 C625 1.279 . S
C622 C620 1.348 . S
C622 C624 1.353 . S
C622 H680 0.929 . S
C623 C620 1.356 . S
C623 C625 1.358 . S
C623 H681 0.930 . S
C624 N621 1.314 . S
C624 C622 1.353 . S
C624 H682 0.930 . S
C625 N621 1.279 . S
C625 C623 1.358 . S
C625 H683 0.930 . S
C626 C629 1.348 . S
C626 C630 1.356 . S
C626 O677 1.325 . S
C627 N628 1.279 . S
C627 C630 1.358 . S
C627 H684 0.930 . S
N628 C627 1.279 . S
N628 C631 1.314 . S
C629 C626 1.348 . S
C629 C631 1.353 . S
C629 H685 0.929 . S
C630 C626 1.356 . S
C630 C627 1.358 . S
C630 H686 0.930 . S
C631 N628 1.314 . S
C631 C629 1.353 . S
C631 H687 0.930 . S
C632 N633 1.314 . S
C632 C637 1.353 . S
C632 H638 0.930 . S
N633 Li616 1.990 . S
N633 C632 1.314 . S
N633 C635 1.279 . S
C634 C635 1.358 . S
C634 C636 1.356 . S
C634 H688 0.930 . S
C635 N633 1.279 . S
C635 C634 1.358 . S
C635 H639 0.930 . S
C636 C634 1.356 . S
C636 C637 1.348 . S
C637 C632 1.353 . S
C637 C636 1.348 . S
C637 H689 0.929 . S
H638 C632 0.930 . S
H639 C635 0.930 . S
C640 N641 1.314 . S
C640 C642 1.353 . S
C640 H646 0.930 . S
N641 Li617 1.990 . S
N641 C640 1.314 . S
N641 C644 1.279 . S
C642 C640 1.353 . S
C642 C645 1.348 . S
C642 H690 0.929 . S
C643 C644 1.358 . S
C643 C645 1.356 . S
C643 H691 0.930 . S
C644 N641 1.279 . S
C644 C643 1.358 . S
C644 H647 0.930 . S
C645 C642 1.348 . S
C645 C643 1.356 . S
H646 C640 0.930 . S
H647 C644 0.930 . S
C648 C650 1.348 . S
C648 C651 1.356 . S
C648 O678 1.325 . S
N649 C652 1.314 . S
N649 C653 1.279 . S
C650 C648 1.348 . S
C650 C652 1.353 . S
C650 H692 0.929 . S
C651 C648 1.356 . S
C651 C653 1.358 . S
C651 H693 0.930 . S
C652 N649 1.314 . S
C652 C650 1.353 . S
C652 H694 0.930 . S
C653 N649 1.279 . S
C653 C651 1.358 . S
C653 H695 0.930 . S
C654 C655 1.348 . S
C654 C656 1.356 . S
C654 O679 1.325 . S
C655 C654 1.348 . S
C655 C657 1.353 . S
C655 H696 0.929 . S
C656 C654 1.356 . S
C656 C658 1.358 . S
C656 H697 0.930 . S
C657 C655 1.353 . S
C657 N659 1.314 . S
C657 H698 0.930 . S
C658 C656 1.358 . S
C658 N659 1.279 . S
C658 H699 0.930 . S
N659 C657 1.314 . S
N659 C658 1.279 . S
C660 C662 1.353 . S
C660 N663 1.314 . S
C660 H666 0.930 . S
C661 N663 1.279 . S
C661 C664 1.358 . S
C661 H667 0.930 . S
C662 C660 1.353 . S
C662 C665 1.348 . S
C662 H700 0.929 . S
N663 Li618 1.990 . S
N663 C660 1.314 . S
N663 C661 1.279 . S
C664 C661 1.358 . S
C664 C665 1.356 . S
C664 H701 0.930 . S
C665 C662 1.348 . S
C665 C664 1.356 . S
H666 C660 0.930 . S
H667 C661 0.930 . S
C668 N669 1.314 . S
C668 C670 1.353 . S
C668 H674 0.930 . S
N669 Li619 1.990 . S
N669 C668 1.314 . S
N669 C672 1.279 . S
C670 C668 1.353 . S
C670 C673 1.348 . S
C670 H702 0.929 . S
C671 C672 1.358 . S
C671 C673 1.356 . S
C671 H703 0.930 . S
C672 N669 1.279 . S
C672 C671 1.358 . S
C672 H675 0.930 . S
C673 C670 1.348 . S
C673 C671 1.356 . S
H674 C668 0.930 . S
H675 C672 0.930 . S
O676 Li616 1.956 . S
O676 Li617 1.970 . S
O676 Li618 1.961 . S
O676 C620 1.325 . S
O677 Li616 1.970 . S
O677 Li617 1.956 . S
O677 Li619 1.961 . S
O677 C626 1.325 . S
O678 Li616 1.961 . S
O678 Li618 1.956 . S
O678 Li619 1.970 . S
O678 C648 1.325 . S
O679 Li617 1.961 . S
O679 Li618 1.970 . S
O679 Li619 1.956 . S
O679 C654 1.325 . S
H680 C622 0.929 . S
H681 C623 0.930 . S
H682 C624 0.930 . S
H683 C625 0.930 . S
H684 C627 0.930 . S
H685 C629 0.929 . S
H686 C630 0.930 . S
H687 C631 0.930 . S
H688 C634 0.930 . S
H689 C637 0.929 . S
H690 C642 0.929 . S
H691 C643 0.930 . S
H692 C650 0.929 . S
H693 C651 0.930 . S
H694 C652 0.930 . S
H695 C653 0.930 . S
H696 C655 0.929 . S
H697 C656 0.930 . S
H698 C657 0.930 . S
H699 C658 0.930 . S
H700 C662 0.929 . S
H701 C664 0.930 . S
H702 C670 0.929 . S
H703 C671 0.930 . S
C704 C705 1.356 1_554 S
C704 C710 1.379 . S
C704 N712 1.356 . S
C705 C704 1.356 1_556 S
C705 C711 1.370 . S
C706 C707 1.352 1_556 S
C706 C711 1.379 . S
C706 N713 1.356 . S
C707 C706 1.352 1_554 S
C707 C710 1.374 . S
N708 C710 1.356 . S
N708 H720 0.984 . S
N708 H721 0.985 . S
N709 C711 1.356 . S
N709 H714 0.984 . S
N709 H715 0.985 . S
C710 C704 1.379 . S
C710 C707 1.374 . S
C710 N708 1.356 . S
C711 C705 1.370 . S
C711 C706 1.379 . S
C711 N709 1.356 . S
N712 C704 1.356 . S
N712 H718 0.984 . S
N712 H719 0.984 . S
N713 C706 1.356 . S
N713 H716 0.984 . S
N713 H717 0.985 . S
H714 N709 0.984 . S
H715 N709 0.985 . S
H716 N713 0.984 . S
H717 N713 0.985 . S
H718 N712 0.984 . S
H719 N712 0.984 . S
H720 N708 0.984 . S
H721 N708 0.985 . S
C722 C723 1.371 . S
C722 C728 1.379 . S
C722 N730 1.356 . S
C723 C722 1.371 . S
C723 C729 1.355 1_554 S
C724 C725 1.368 . S
C724 C729 1.379 . S
C724 N731 1.356 . S
C725 C724 1.368 . S
C725 C728 1.358 1_556 S
N726 C728 1.356 . S
N726 H738 0.984 . S
N726 H739 0.985 . S
N727 C729 1.356 . S
N727 H732 0.984 . S
N727 H733 0.985 . S
C728 C722 1.379 . S
C728 C725 1.358 1_554 S
C728 N726 1.356 . S
C729 C723 1.355 1_556 S
C729 C724 1.379 . S
C729 N727 1.356 . S
N730 C722 1.356 . S
N730 H736 0.984 . S
N730 H737 0.984 . S
N731 C724 1.356 . S
N731 H734 0.984 . S
N731 H735 0.985 . S
H732 N727 0.984 . S
H733 N727 0.985 . S
H734 N731 0.984 . S
H735 N731 0.985 . S
H736 N730 0.984 . S
H737 N730 0.984 . S
H738 N726 0.984 . S
H739 N726 0.985 . S
C740 C741 1.374 . S
C740 C746 1.379 . S
C740 N748 1.356 . S
C741 C740 1.374 . S
C741 C747 1.352 1_554 S
C742 C743 1.369 . S
C742 C747 1.379 . S
C742 N749 1.356 . S
C743 C742 1.369 . S
C743 C746 1.356 1_556 S
N744 C746 1.356 . S
N744 H756 0.984 . S
N744 H757 0.985 . S
N745 C747 1.356 . S
N745 H750 0.984 . S
N745 H751 0.985 . S
C746 C740 1.379 . S
C746 C743 1.356 1_554 S
C746 N744 1.356 . S
C747 C741 1.352 1_556 S
C747 C742 1.379 . S
C747 N745 1.356 . S
N748 C740 1.356 . S
N748 H754 0.984 . S
N748 H755 0.984 . S
N749 C742 1.356 . S
N749 H752 0.984 . S
N749 H753 0.985 . S
H750 N745 0.984 . S
H751 N745 0.985 . S
H752 N749 0.984 . S
H753 N749 0.985 . S
H754 N748 0.984 . S
H755 N748 0.984 . S
H756 N744 0.984 . S
H757 N744 0.985 . S
C758 C759 1.368 . S
C758 C764 1.379 . S
C758 N766 1.356 . S
C759 C758 1.368 . S
C759 C765 1.358 1_556 S
C760 C761 1.371 . S
C760 C765 1.379 . S
C760 N767 1.356 . S
C761 C760 1.371 . S
C761 C764 1.355 1_554 S
N762 C764 1.356 . S
N762 H774 0.984 . S
N762 H775 0.985 . S
N763 C765 1.356 . S
N763 H768 0.984 . S
N763 H769 0.985 . S
C764 C758 1.379 . S
C764 C761 1.355 1_556 S
C764 N762 1.356 . S
C765 C759 1.358 1_554 S
C765 C760 1.379 . S
C765 N763 1.356 . S
N766 C758 1.356 . S
N766 H772 0.984 . S
N766 H773 0.984 . S
N767 C760 1.356 . S
N767 H770 0.984 . S
N767 H771 0.985 . S
H768 N763 0.984 . S
H769 N763 0.985 . S
H770 N767 0.984 . S
H771 N767 0.985 . S
H772 N766 0.984 . S
H773 N766 0.984 . S
H774 N762 0.984 . S
H775 N762 0.985 . S
C776 C777 1.363 . S
C776 C782 1.379 1_565 S
C776 N784 1.356 . S
C777 C776 1.363 . S
C777 C783 1.363 . S
C778 C779 1.363 . S
C778 C783 1.379 1_545 S
C778 N785 1.356 . S
C779 C778 1.363 . S
C779 C782 1.363 . S
N780 C782 1.356 . S
N780 H792 0.984 . S
N780 H793 0.985 . S
N781 C783 1.356 . S
N781 H786 0.984 . S
N781 H787 0.985 . S
C782 C776 1.379 1_545 S
C782 C779 1.363 . S
C782 N780 1.356 . S
C783 C777 1.363 . S
C783 C778 1.379 1_565 S
C783 N781 1.356 . S
N784 C776 1.356 . S
N784 H790 0.984 . S
N784 H791 0.984 . S
N785 C778 1.356 . S
N785 H788 0.984 . S
N785 H789 0.985 . S
H786 N781 0.984 . S
H787 N781 0.985 . S
H788 N785 0.984 . S
H789 N785 0.985 . S
H790 N784 0.984 . S
H791 N784 0.984 . S
H792 N780 0.984 . S
H793 N780 0.985 . S
C794 C795 1.363 . S
C794 C800 1.379 1_455 S
C794 N802 1.356 . S
C795 C794 1.363 . S
C795 C801 1.363 . S
C796 C797 1.363 . S
C796 C801 1.379 1_655 S
C796 N803 1.356 . S
C797 C796 1.363 . S
C797 C800 1.363 . S
N798 C800 1.356 . S
N798 H810 0.984 . S
N798 H811 0.985 . S
N799 C801 1.356 . S
N799 H804 0.984 . S
N799 H805 0.985 . S
C800 C794 1.379 1_655 S
C800 C797 1.363 . S
C800 N798 1.356 . S
C801 C795 1.363 . S
C801 C796 1.379 1_455 S
C801 N799 1.356 . S
N802 C794 1.356 . S
N802 H808 0.984 . S
N802 H809 0.984 . S
N803 C796 1.356 . S
N803 H806 0.984 . S
N803 H807 0.985 . S
H804 N799 0.984 . S
H805 N799 0.985 . S
H806 N803 0.984 . S
H807 N803 0.985 . S
H808 N802 0.984 . S
H809 N802 0.984 . S
H810 N798 0.984 . S
H811 N798 0.985 . S
C812 C813 1.363 . S
C812 C818 1.379 1_545 S
C812 N820 1.356 . S
C813 C812 1.363 . S
C813 C819 1.363 . S
C814 C815 1.363 . S
C814 C819 1.379 1_565 S
C814 N821 1.356 . S
C815 C814 1.363 . S
C815 C818 1.363 . S
N816 C818 1.356 . S
N816 H828 0.984 . S
N816 H829 0.985 . S
N817 C819 1.356 . S
N817 H822 0.984 . S
N817 H823 0.985 . S
C818 C812 1.379 1_565 S
C818 C815 1.363 . S
C818 N816 1.356 . S
C819 C813 1.363 . S
C819 C814 1.379 1_545 S
C819 N817 1.356 . S
N820 C812 1.356 . S
N820 H826 0.984 . S
N820 H827 0.984 . S
N821 C814 1.356 . S
N821 H824 0.984 . S
N821 H825 0.985 . S
H822 N817 0.984 . S
H823 N817 0.985 . S
H824 N821 0.984 . S
H825 N821 0.985 . S
H826 N820 0.984 . S
H827 N820 0.984 . S
H828 N816 0.984 . S
H829 N816 0.985 . S
C830 C831 1.363 . S
C830 C836 1.379 1_655 S
C830 N838 1.356 . S
C831 C830 1.363 . S
C831 C837 1.363 . S
C832 C833 1.363 . S
C832 C837 1.379 1_455 S
C832 N839 1.356 . S
C833 C832 1.363 . S
C833 C836 1.363 . S
N834 C836 1.356 . S
N834 H846 0.984 . S
N834 H847 0.985 . S
N835 C837 1.356 . S
N835 H840 0.984 . S
N835 H841 0.985 . S
C836 C830 1.379 1_455 S
C836 C833 1.363 . S
C836 N834 1.356 . S
C837 C831 1.363 . S
C837 C832 1.379 1_655 S
C837 N835 1.356 . S
N838 C830 1.356 . S
N838 H844 0.984 . S
N838 H845 0.984 . S
N839 C832 1.356 . S
N839 H842 0.984 . S
N839 H843 0.985 . S
H840 N835 0.984 . S
H841 N835 0.985 . S
H842 N839 0.984 . S
H843 N839 0.985 . S
H844 N838 0.984 . S
H845 N838 0.984 . S
H846 N834 0.984 . S
H847 N834 0.985 . S
C848 C849 1.363 . S
C848 C854 1.379 . S
C848 N856 1.356 . S
C849 C848 1.363 . S
C849 C855 1.363 . S
C850 C851 1.363 . S
C850 C855 1.379 . S
C850 N857 1.356 . S
C851 C850 1.363 . S
C851 C854 1.363 . S
N852 C854 1.356 . S
N852 H864 0.984 . S
N852 H865 0.985 . S
N853 C855 1.356 . S
N853 H858 0.984 . S
N853 H859 0.985 . S
C854 C848 1.379 . S
C854 C851 1.363 . S
C854 N852 1.356 . S
C855 C849 1.363 . S
C855 C850 1.379 . S
C855 N853 1.356 . S
N856 C848 1.356 . S
N856 H862 0.984 . S
N856 H863 0.984 . S
N857 C850 1.356 . S
N857 H860 0.984 . S
N857 H861 0.985 . S
H858 N853 0.984 . S
H859 N853 0.985 . S
H860 N857 0.984 . S
H861 N857 0.985 . S
H862 N856 0.984 . S
H863 N856 0.984 . S
H864 N852 0.984 . S
H865 N852 0.985 . S
C866 C867 1.363 . S
C866 C872 1.379 . S
C866 N874 1.356 . S
C867 C866 1.363 . S
C867 C873 1.363 . S
C868 C869 1.363 . S
C868 C873 1.379 . S
C868 N875 1.356 . S
C869 C868 1.363 . S
C869 C872 1.363 . S
N870 C872 1.356 . S
N870 H882 0.984 . S
N870 H883 0.985 . S
N871 C873 1.356 . S
N871 H876 0.984 . S
N871 H877 0.985 . S
C872 C866 1.379 . S
C872 C869 1.363 . S
C872 N870 1.356 . S
C873 C867 1.363 . S
C873 C868 1.379 . S
C873 N871 1.356 . S
N874 C866 1.356 . S
N874 H880 0.984 . S
N874 H881 0.984 . S
N875 C868 1.356 . S
N875 H878 0.984 . S
N875 H879 0.985 . S
H876 N871 0.984 . S
H877 N871 0.985 . S
H878 N875 0.984 . S
H879 N875 0.985 . S
H880 N874 0.984 . S
H881 N874 0.984 . S
H882 N870 0.984 . S
H883 N870 0.985 . S
C884 C885 1.363 . S
C884 C890 1.379 . S
C884 N892 1.356 . S
C885 C884 1.363 . S
C885 C891 1.363 . S
C886 C887 1.363 . S
C886 C891 1.379 . S
C886 N893 1.356 . S
C887 C886 1.363 . S
C887 C890 1.363 . S
N888 C890 1.356 . S
N888 H900 0.984 . S
N888 H901 0.985 . S
N889 C891 1.356 . S
N889 H894 0.984 . S
N889 H895 0.985 . S
C890 C884 1.379 . S
C890 C887 1.363 . S
C890 N888 1.356 . S
C891 C885 1.363 . S
C891 C886 1.379 . S
C891 N889 1.356 . S
N892 C884 1.356 . S
N892 H898 0.984 . S
N892 H899 0.984 . S
N893 C886 1.356 . S
N893 H896 0.984 . S
N893 H897 0.985 . S
H894 N889 0.984 . S
H895 N889 0.985 . S
H896 N893 0.984 . S
H897 N893 0.985 . S
H898 N892 0.984 . S
H899 N892 0.984 . S
H900 N888 0.984 . S
H901 N888 0.985 . S
C902 C903 1.363 . S
C902 C908 1.379 . S
C902 N910 1.356 . S
C903 C902 1.363 . S
C903 C909 1.363 . S
C904 C905 1.363 . S
C904 C909 1.379 . S
C904 N911 1.356 . S
C905 C904 1.363 . S
C905 C908 1.363 . S
N906 C908 1.356 . S
N906 H918 0.984 . S
N906 H919 0.985 . S
N907 C909 1.356 . S
N907 H912 0.984 . S
N907 H913 0.985 . S
C908 C902 1.379 . S
C908 C905 1.363 . S
C908 N906 1.356 . S
C909 C903 1.363 . S
C909 C904 1.379 . S
C909 N907 1.356 . S
N910 C902 1.356 . S
N910 H916 0.984 . S
N910 H917 0.984 . S
N911 C904 1.356 . S
N911 H914 0.984 . S
N911 H915 0.985 . S
H912 N907 0.984 . S
H913 N907 0.985 . S
H914 N911 0.984 . S
H915 N911 0.985 . S
H916 N910 0.984 . S
H917 N910 0.984 . S
H918 N906 0.984 . S
H919 N906 0.985 . S
C920 C921 1.363 . S
C920 C926 1.379 . S
C920 N928 1.356 . S
C921 C920 1.363 . S
C921 C927 1.363 . S
C922 C923 1.363 . S
C922 C927 1.379 . S
C922 N929 1.356 . S
C923 C922 1.363 . S
C923 C926 1.363 . S
N924 C926 1.356 . S
N924 H936 0.984 . S
N924 H937 0.985 . S
N925 C927 1.356 . S
N925 H930 0.984 . S
N925 H931 0.985 . S
C926 C920 1.379 . S
C926 C923 1.363 . S
C926 N924 1.356 . S
C927 C921 1.363 . S
C927 C922 1.379 . S
C927 N925 1.356 . S
N928 C920 1.356 . S
N928 H934 0.984 . S
N928 H935 0.984 . S
N929 C922 1.356 . S
N929 H932 0.984 . S
N929 H933 0.985 . S
H930 N925 0.984 . S
H931 N925 0.985 . S
H932 N929 0.984 . S
H933 N929 0.985 . S
H934 N928 0.984 . S
H935 N928 0.984 . S
H936 N924 0.984 . S
H937 N924 0.985 . S
C938 C939 1.363 . S
C938 C944 1.379 . S
C938 N946 1.356 . S
C939 C938 1.363 . S
C939 C945 1.363 . S
C940 C941 1.363 . S
C940 C945 1.379 . S
C940 N947 1.356 . S
C941 C940 1.363 . S
C941 C944 1.363 . S
N942 C944 1.356 . S
N942 H954 0.984 . S
N942 H955 0.985 . S
N943 C945 1.356 . S
N943 H948 0.984 . S
N943 H949 0.985 . S
C944 C938 1.379 . S
C944 C941 1.363 . S
C944 N942 1.356 . S
C945 C939 1.363 . S
C945 C940 1.379 . S
C945 N943 1.356 . S
N946 C938 1.356 . S
N946 H952 0.984 . S
N946 H953 0.984 . S
N947 C940 1.356 . S
N947 H950 0.984 . S
N947 H951 0.985 . S
H948 N943 0.984 . S
H949 N943 0.985 . S
H950 N947 0.984 . S
H951 N947 0.985 . S
H952 N946 0.984 . S
H953 N946 0.984 . S
H954 N942 0.984 . S
H955 N942 0.985 . S
C956 C957 1.363 . S
C956 C962 1.379 . S
C956 N964 1.356 . S
C957 C956 1.363 . S
C957 C963 1.363 . S
C958 C959 1.363 . S
C958 C963 1.379 . S
C958 N965 1.356 . S
C959 C958 1.363 . S
C959 C962 1.363 . S
N960 C962 1.356 . S
N960 H972 0.984 . S
N960 H973 0.985 . S
N961 C963 1.356 . S
N961 H966 0.984 . S
N961 H967 0.985 . S
C962 C956 1.379 . S
C962 C959 1.363 . S
C962 N960 1.356 . S
C963 C957 1.363 . S
C963 C958 1.379 . S
C963 N961 1.356 . S
N964 C956 1.356 . S
N964 H970 0.984 . S
N964 H971 0.984 . S
N965 C958 1.356 . S
N965 H968 0.984 . S
N965 H969 0.985 . S
H966 N961 0.984 . S
H967 N961 0.985 . S
H968 N965 0.984 . S
H969 N965 0.985 . S
H970 N964 0.984 . S
H971 N964 0.984 . S
H972 N960 0.984 . S
H973 N960 0.985 . S
C974 C975 1.363 . S
C974 C980 1.379 . S
C974 N982 1.356 . S
C975 C974 1.363 . S
C975 C981 1.363 . S
C976 C977 1.363 . S
C976 C981 1.379 . S
C976 N983 1.356 . S
C977 C976 1.363 . S
C977 C980 1.363 . S
N978 C980 1.356 . S
N978 H990 0.984 . S
N978 H991 0.985 . S
N979 C981 1.356 . S
N979 H984 0.984 . S
N979 H985 0.985 . S
C980 C974 1.379 . S
C980 C977 1.363 . S
C980 N978 1.356 . S
C981 C975 1.363 . S
C981 C976 1.379 . S
C981 N979 1.356 . S
N982 C974 1.356 . S
N982 H988 0.984 . S
N982 H989 0.984 . S
N983 C976 1.356 . S
N983 H986 0.984 . S
N983 H987 0.985 . S
H984 N979 0.984 . S
H985 N979 0.985 . S
H986 N983 0.984 . S
H987 N983 0.985 . S
H988 N982 0.984 . S
H989 N982 0.984 . S
H990 N978 0.984 . S
H991 N978 0.985 . S
C705 C49 1.517 . S
C707 C284 1.517 . S
C723 C29 1.517 . S
C725 C145 1.517 . S
C741 C108 1.517 . S
C743 C233 1.517 . S
C759 C321 1.517 . S
C761 C196 1.517 . S
C777 C401 1.517 . S
C779 C645 1.517 . S
C795 C497 1.517 . S
C797 C381 1.517 . S
C813 C577 1.517 . S
C815 C460 1.517 . S
C831 C665 1.517 . S
C833 C557 1.517 . S
C849 C585 1.382 . S
C851 C20 1.379 . S
C867 C117 1.382 . S
C869 C673 1.379 . S
C885 C409 1.382 . S
C887 C205 1.379 . S
C903 C489 1.382 . S
C905 C293 1.379 . S
C921 C469 1.382 . S
C923 C313 1.384 . S
C939 C57 1.382 . S
C941 C548 1.384 . S
C957 C137 1.382 . S
C959 C636 1.384 . S
C975 C225 1.382 . S
C977 C372 1.384 . S
