# Generated by pormake.
# Topology uog, (4)-cn, num edge types: 1
# Building blocks:
#     Node 0, Type 0, BuildingBlock: CEKHIL_clean_sbu_0, # of connection points: 4
#     Node 1, Type 0, BuildingBlock: CEKHIL_clean_sbu_0, # of connection points: 4
#     Node 2, Type 0, BuildingBlock: CEKHIL_clean_sbu_0, # of connection points: 4
#     Node 3, Type 0, BuildingBlock: CEKHIL_clean_sbu_0, # of connection points: 4
#     Node 4, Type 0, BuildingBlock: CEKHIL_clean_sbu_0, # of connection points: 4
#     Node 5, Type 0, BuildingBlock: CEKHIL_clean_sbu_0, # of connection points: 4
#     Edge 6, Type (0, 0), BuildingBlock: MIFKUJ_clean_linker_0, # of connection points: 2
#     Edge 7, Type (0, 0), BuildingBlock: MIFKUJ_clean_linker_0, # of connection points: 2
#     Edge 8, Type (0, 0), BuildingBlock: MIFKUJ_clean_linker_0, # of connection points: 2
#     Edge 9, Type (0, 0), BuildingBlock: MIFKUJ_clean_linker_0, # of connection points: 2
#     Edge 10, Type (0, 0), BuildingBlock: MIFKUJ_clean_linker_0, # of connection points: 2
#     Edge 11, Type (0, 0), BuildingBlock: MIFKUJ_clean_linker_0, # of connection points: 2
#     Edge 12, Type (0, 0), BuildingBlock: MIFKUJ_clean_linker_0, # of connection points: 2
#     Edge 13, Type (0, 0), BuildingBlock: MIFKUJ_clean_linker_0, # of connection points: 2
#     Edge 14, Type (0, 0), BuildingBlock: MIFKUJ_clean_linker_0, # of connection points: 2
#     Edge 15, Type (0, 0), BuildingBlock: MIFKUJ_clean_linker_0, # of connection points: 2
#     Edge 16, Type (0, 0), BuildingBlock: MIFKUJ_clean_linker_0, # of connection points: 2
#     Edge 17, Type (0, 0), BuildingBlock: MIFKUJ_clean_linker_0, # of connection points: 2
# Relax obj value: 0.072
# Max RMSD: 0.170
# Mean RMSD: 0.170
data_MOF--net-uog--node1-CEKHIL_clean_sbu_0--edge1-MIFKUJ_clean_linker_0
_symmetry_space_group_name_H-M    P1
_symmetry_Int_Tables_number       1
_symmetry_cell_setting            triclinic
loop_
_symmetry_equiv_pos_as_xyz
'x, y, z'
_cell_length_a     36.835078
_cell_length_b     36.834749
_cell_length_c     55.497977
_cell_angle_alpha  89.918205
_cell_angle_beta   90.136257
_cell_angle_gamma 119.9616
loop_
_atom_site_label
_atom_site_type_symbol
_atom_site_fract_x
_atom_site_fract_y
_atom_site_fract_z
_atom_type_partial_charge
Co0 Co 0.59309 0.28582 0.15811 0.0
O1 O 0.60338 0.23988 0.15992 0.0
O2 O 0.54664 0.23586 0.14367 0.0
C3 C 0.61084 0.30678 0.1964 0.0
O4 O 0.57264 0.32811 0.1543 0.0
Co5 Co 0.67033 0.37485 0.16396 0.0
O6 O 0.62752 0.39218 0.16272 0.0
C7 C 0.65599 0.33209 0.11759 0.0
C8 C 0.56772 0.21723 0.14928 0.0
C9 C 0.58914 0.36806 0.15727 0.0
O10 O 0.62155 0.30214 0.12598 0.0
O11 O 0.68186 0.36344 0.13028 0.0
O12 O 0.57359 0.27644 0.1911 0.0
O13 O 0.63746 0.32023 0.17883 0.0
Co14 Co 0.30947 0.58918 0.49172 0.0
O15 O 0.36337 0.59357 0.4931 0.0
O16 O 0.30557 0.53699 0.48077 0.0
C17 C 0.31325 0.61629 0.52841 0.0
O18 O 0.24806 0.57426 0.48932 0.0
Co19 Co 0.30727 0.67192 0.49194 0.0
O20 O 0.24595 0.63402 0.49403 0.0
C21 C 0.32821 0.64488 0.44718 0.0
C22 C 0.34564 0.55547 0.48528 0.0
C23 C 0.22788 0.59441 0.49128 0.0
O24 O 0.31984 0.61045 0.45763 0.0
O25 O 0.32879 0.67558 0.45828 0.0
O26 O 0.30176 0.577 0.52591 0.0
O27 O 0.32677 0.63906 0.50919 0.0
Co28 Co 0.71147 0.31063 0.82585 0.0
O29 O 0.75959 0.36555 0.82599 0.0
O30 O 0.75982 0.30919 0.81254 0.0
C31 C 0.69155 0.31283 0.86361 0.0
O32 O 0.66588 0.24852 0.82394 0.0
Co33 Co 0.62536 0.30522 0.83007 0.0
O34 O 0.6062 0.24544 0.83627 0.0
C35 C 0.66812 0.32707 0.78352 0.0
C36 C 0.78031 0.34955 0.81633 0.0
C37 C 0.62698 0.22765 0.83037 0.0
O38 O 0.6967 0.32133 0.79289 0.0
O39 O 0.63722 0.32426 0.79555 0.0
O40 O 0.71985 0.3025 0.85937 0.0
O41 O 0.67968 0.32615 0.84529 0.0
Co42 Co 0.41615 0.72029 0.1551 0.0
O43 O 0.40711 0.76625 0.14859 0.0
O44 O 0.46566 0.76593 0.14 0.0
C45 C 0.39287 0.70942 0.19326 0.0
O46 O 0.43487 0.67693 0.15986 0.0
Co47 Co 0.33638 0.63398 0.16421 0.0
O48 O 0.37865 0.61835 0.17392 0.0
C49 C 0.35778 0.66582 0.11488 0.0
C50 C 0.4446 0.78575 0.13981 0.0
C51 C 0.41746 0.63936 0.16851 0.0
O52 O 0.39263 0.69586 0.12275 0.0
O53 O 0.32859 0.63951 0.12864 0.0
O54 O 0.43086 0.73828 0.18822 0.0
O55 O 0.36875 0.69158 0.17487 0.0
Co56 Co 0.69899 0.41321 0.49305 0.0
O57 O 0.64558 0.41016 0.4913 0.0
O58 O 0.70594 0.46621 0.48147 0.0
C59 C 0.68998 0.38489 0.52968 0.0
O60 O 0.76006 0.42686 0.49361 0.0
Co61 Co 0.70049 0.32987 0.49536 0.0
O62 O 0.76008 0.36776 0.50407 0.0
C63 C 0.68564 0.35845 0.44902 0.0
C64 C 0.6654 0.44843 0.48367 0.0
C65 C 0.77926 0.40705 0.49985 0.0
O66 O 0.69274 0.39267 0.45912 0.0
O67 O 0.68368 0.32744 0.46061 0.0
O68 O 0.70248 0.42445 0.52731 0.0
O69 O 0.67883 0.36277 0.51017 0.0
Co70 Co 0.28507 0.69433 0.82366 0.0
O71 O 0.23857 0.63848 0.82473 0.0
O72 O 0.23552 0.69219 0.80922 0.0
C73 C 0.30492 0.69574 0.86218 0.0
O74 O 0.32879 0.75683 0.82039 0.0
Co75 Co 0.37223 0.70233 0.82933 0.0
O76 O 0.3917 0.76296 0.8286 0.0
C77 C 0.32979 0.67621 0.78278 0.0
C78 C 0.21654 0.65219 0.81407 0.0
C79 C 0.36894 0.77891 0.82329 0.0
O80 O 0.30107 0.68246 0.79137 0.0
O81 O 0.36035 0.6796 0.79549 0.0
O82 O 0.27553 0.70397 0.85668 0.0
O83 O 0.31814 0.68237 0.84455 0.0
H84 H 0.60371 0.17255 0.16431 0.0
H85 H 0.58225 0.09992 0.15596 0.0
H86 H 0.47766 0.08715 0.11412 0.0
H87 H 0.49881 0.16068 0.12286 0.0
H88 H 0.45553 0.02061 0.14433 0.0
H89 H 0.56414 0.09473 0.08617 0.0
H90 H 0.63422 0.14924 0.0727 0.0
H91 H 0.69138 0.09816 0.11879 0.0
H92 H 0.62168 0.0437 0.13281 0.0
H93 H 0.40516 0.81706 0.1131 0.0
H94 H 0.42693 0.89088 0.10699 0.0
H95 H 0.54325 0.92669 0.14402 0.0
H96 H 0.52229 0.85251 0.14891 0.0
H97 H 0.55674 0.98225 0.11089 0.0
H98 H 0.45338 0.91662 0.17338 0.0
H99 H 0.38545 0.8638 0.19043 0.0
H100 H 0.32092 0.90038 0.14003 0.0
H101 H 0.3885 0.95307 0.12248 0.0
C102 C 0.57615 0.15453 0.15325 0.0
C103 C 0.55309 0.17255 0.1441 0.0
C104 C 0.56406 0.11292 0.14838 0.0
C105 C 0.52891 0.08828 0.13396 0.0
C106 C 0.50518 0.10578 0.12511 0.0
C107 C 0.51723 0.1477 0.1301 0.0
C108 C 0.5168 0.04399 0.12896 0.0
C109 C 0.47727 0.01219 0.13648 0.0
C110 C 0.54568 0.03301 0.11941 0.0
C111 C 0.58764 0.06522 0.11061 0.0
C112 C 0.59165 0.09522 0.09351 0.0
C113 C 0.63132 0.12612 0.08578 0.0
C114 C 0.66723 0.12719 0.0949 0.0
C115 C 0.66354 0.09728 0.11173 0.0
C116 C 0.62396 0.06635 0.11954 0.0
C117 C 0.43591 0.84078 0.11929 0.0
C118 C 0.46208 0.82932 0.13154 0.0
C119 C 0.44816 0.88295 0.11601 0.0
C120 C 0.48613 0.91446 0.12576 0.0
C121 C 0.51365 0.90301 0.13649 0.0
C122 C 0.5018 0.86067 0.13922 0.0
C123 C 0.4956 0.95879 0.12652 0.0
C124 C 0.53468 0.9906 0.11831 0.0
C125 C 0.46656 0.96988 0.13581 0.0
C126 C 0.42594 0.93844 0.14645 0.0
C127 C 0.42468 0.9132 0.16584 0.0
C128 C 0.38625 0.88332 0.1756 0.0
C129 C 0.34889 0.87866 0.16627 0.0
C130 C 0.34989 0.90397 0.14721 0.0
C131 C 0.38823 0.93386 0.13736 0.0
H132 H 0.31917 0.8555 0.17385 0.0
H133 H 0.69791 0.15116 0.08891 0.0
H134 H 0.357 0.51853 0.44529 0.0
H135 H 0.41288 0.50105 0.43987 0.0
H136 H 0.44791 0.5308 0.51461 0.0
H137 H 0.39365 0.54968 0.51961 0.0
H138 H 0.51367 0.57105 0.48807 0.0
H139 H 0.39912 0.4279 0.49071 0.0
H140 H 0.33197 0.36781 0.47749 0.0
H141 H 0.38243 0.37542 0.40679 0.0
H142 H 0.44975 0.43592 0.41953 0.0
H143 H 0.64008 0.48381 0.51693 0.0
H144 H 0.58692 0.50446 0.51186 0.0
H145 H 0.58113 0.47865 0.43566 0.0
H146 H 0.63431 0.45738 0.44094 0.0
H147 H 0.50382 0.4411 0.45562 0.0
H148 H 0.62215 0.57982 0.45597 0.0
H149 H 0.68907 0.63809 0.4709 0.0
H150 H 0.63074 0.63736 0.53793 0.0
H151 H 0.5636 0.57871 0.52354 0.0
C152 C 0.37594 0.52002 0.46063 0.0
C153 C 0.37103 0.53504 0.4829 0.0
C154 C 0.40795 0.51025 0.45754 0.0
C155 C 0.43487 0.5148 0.47683 0.0
C156 C 0.42797 0.52743 0.4994 0.0
C157 C 0.39671 0.53781 0.50232 0.0
C158 C 0.47218 0.50965 0.47354 0.0
C159 C 0.51135 0.54243 0.48115 0.0
C160 C 0.46969 0.47308 0.46363 0.0
C161 C 0.42927 0.43674 0.45599 0.0
C162 C 0.39577 0.41698 0.47229 0.0
C163 C 0.35771 0.3828 0.4649 0.0
C164 C 0.35289 0.3679 0.44129 0.0
C165 C 0.38617 0.38706 0.42506 0.0
C166 C 0.42429 0.42127 0.43235 0.0
C167 C 0.6285 0.48405 0.49899 0.0
C168 C 0.64192 0.47027 0.47921 0.0
C169 C 0.598 0.49564 0.49609 0.0
C170 C 0.58027 0.49356 0.47332 0.0
C171 C 0.59454 0.48077 0.45335 0.0
C172 C 0.62521 0.46917 0.45629 0.0
C173 C 0.54482 0.50187 0.47103 0.0
C174 C 0.50614 0.46989 0.46224 0.0
C175 C 0.54759 0.53905 0.48008 0.0
C176 C 0.58786 0.5747 0.48869 0.0
C177 C 0.62364 0.59193 0.47394 0.0
C178 C 0.66161 0.62505 0.48231 0.0
C179 C 0.66417 0.64138 0.50536 0.0
C180 C 0.62872 0.62469 0.52007 0.0
C181 C 0.59067 0.59155 0.5118 0.0
H182 H 0.6936 0.66701 0.5118 0.0
H183 H 0.3234 0.34143 0.43561 0.0
H184 H 0.81854 0.43284 0.80822 0.0
H185 H 0.89273 0.48168 0.80211 0.0
H186 H 0.91802 0.37933 0.80444 0.0
H187 H 0.84278 0.32962 0.81056 0.0
H188 H 0.9687 0.44538 0.83526 0.0
H189 H 0.92817 0.42875 0.75235 0.0
H190 H 0.88513 0.42596 0.71755 0.0
H191 H 0.91938 0.55437 0.72931 0.0
H192 H 0.96213 0.55777 0.76444 0.0
H193 H 0.18102 0.56834 0.80961 0.0
H194 H 0.10731 0.51667 0.80479 0.0
H195 H 0.07699 0.61547 0.80065 0.0
H196 H 0.15187 0.66813 0.80514 0.0
H197 H 0.02908 0.54972 0.76912 0.0
H198 H 0.06465 0.56601 0.8528 0.0
H199 H 0.10607 0.57021 0.88873 0.0
H200 H 0.07904 0.44396 0.87679 0.0
H201 H 0.03795 0.43922 0.84055 0.0
C202 C 0.83972 0.42049 0.80716 0.0
C203 C 0.82487 0.37736 0.80999 0.0
C204 C 0.88217 0.44853 0.80351 0.0
C205 C 0.91093 0.43421 0.80265 0.0
C206 C 0.89624 0.39099 0.80494 0.0
C207 C 0.85336 0.36263 0.80834 0.0
C208 C 0.95645 0.46513 0.80117 0.0
C209 C 0.9821 0.46758 0.82053 0.0
C210 C 0.97351 0.4952 0.78243 0.0
C211 C 0.94813 0.49341 0.76116 0.0
C212 C 0.92629 0.45631 0.74764 0.0
C213 C 0.90197 0.45463 0.72783 0.0
C214 C 0.89945 0.48994 0.72125 0.0
C215 C 0.92134 0.52704 0.73444 0.0
C216 C 0.94566 0.52887 0.75428 0.0
C217 C 0.15884 0.5793 0.80747 0.0
C218 C 0.17218 0.62235 0.80812 0.0
C219 C 0.11663 0.54961 0.80473 0.0
C220 C 0.0865 0.56209 0.80291 0.0
C221 C 0.09976 0.60516 0.8022 0.0
C222 C 0.14244 0.63518 0.80476 0.0
C223 C 0.04128 0.52975 0.80315 0.0
C224 C 0.01571 0.52722 0.7837 0.0
C225 C 0.02405 0.49978 0.82195 0.0
C226 C 0.04856 0.50241 0.84382 0.0
C227 C 0.06781 0.53925 0.85772 0.0
C228 C 0.09119 0.54171 0.87816 0.0
C229 C 0.09528 0.50741 0.885 0.0
C230 C 0.0759 0.47053 0.87145 0.0
C231 C 0.05253 0.46792 0.85096 0.0
H232 H 0.11339 0.50937 0.90083 0.0
H233 H 0.8806 0.48857 0.70591 0.0
H234 H 0.17214 0.51664 0.50927 0.0
H235 H 0.09552 0.4842 0.51073 0.0
H236 H 0.10336 0.58871 0.47094 0.0
H237 H 0.17948 0.62182 0.47054 0.0
H238 H 0.05377 0.57391 0.50579 0.0
H239 H 0.06598 0.48607 0.44623 0.0
H240 H 0.0889 0.43865 0.42973 0.0
H241 H 0.02353 0.35005 0.48622 0.0
H242 H 1.00064 0.39719 0.50324 0.0
H243 H 0.83504 0.4817 0.47842 0.0
H244 H 0.91144 0.51363 0.47665 0.0
H245 H 0.90457 0.4149 0.52177 0.0
H246 H 0.82854 0.38251 0.5232 0.0
H247 H 0.95311 0.42647 0.48415 0.0
H248 H 0.94067 0.51643 0.54297 0.0
H249 H 0.91688 0.56425 0.55767 0.0
H250 H 0.98232 0.64969 0.49986 0.0
H251 H 0.00607 0.60212 0.48464 0.0
C252 C 0.15729 0.53226 0.5006 0.0
C253 C 0.18165 0.57174 0.48988 0.0
C254 C 0.11353 0.51373 0.50138 0.0
C255 C 0.09342 0.53387 0.49083 0.0
C256 C 0.11792 0.57263 0.4794 0.0
C257 C 0.16147 0.59147 0.47909 0.0
C258 C 0.04719 0.51589 0.4925 0.0
C259 C 0.03183 0.54179 0.50072 0.0
C260 C 0.01831 0.47377 0.48638 0.0
C261 C 0.03195 0.44535 0.47614 0.0
C262 C 0.05675 0.45661 0.45523 0.0
C263 C 0.06969 0.42976 0.44577 0.0
C264 C 0.05777 0.39142 0.45696 0.0
C265 C 0.03279 0.37979 0.4776 0.0
C266 C 0.01979 0.40654 0.48715 0.0
C267 C 0.84989 0.46716 0.48823 0.0
C268 C 0.82567 0.42949 0.50087 0.0
C269 C 0.89357 0.48542 0.48721 0.0
C270 C 0.91382 0.46669 0.49913 0.0
C271 C 0.8897 0.42977 0.51229 0.0
C272 C 0.84619 0.41137 0.51315 0.0
C273 C 0.95993 0.48453 0.49735 0.0
C274 C 0.97518 0.45859 0.48916 0.0
C275 C 0.98871 0.52673 0.50323 0.0
C276 C 0.97484 0.55554 0.51256 0.0
C277 C 0.94977 0.5453 0.53331 0.0
C278 C 0.93633 0.57238 0.54175 0.0
C279 C 0.948 0.60994 0.52967 0.0
C280 C 0.97327 0.62057 0.50918 0.0
C281 C 0.98676 0.59359 0.50066 0.0
H282 H 0.93754 0.63085 0.53622 0.0
H283 H 0.06783 0.37068 0.4496 0.0
H284 H 0.34438 0.83604 0.83559 0.0
H285 H 0.38822 0.91289 0.83453 0.0
H286 H 0.48794 0.90145 0.80138 0.0
H287 H 0.44511 0.82549 0.80314 0.0
H288 H 0.51897 0.95303 0.83655 0.0
H289 H 0.42884 0.93767 0.77036 0.0
H290 H 0.3617 0.91438 0.74937 0.0
H291 H 0.33141 0.98463 0.79897 0.0
H292 H 0.39817 0.00791 0.82047 0.0
H293 H 0.64983 0.17351 0.80989 0.0
H294 H 0.60638 0.0969 0.8064 0.0
H295 H 0.50757 0.10033 0.84602 0.0
H296 H 0.55012 0.17589 0.84958 0.0
H297 H 0.47746 0.05343 0.80568 0.0
H298 H 0.56829 0.06641 0.8723 0.0
H299 H 0.63658 0.09003 0.892 0.0
H300 H 0.66677 0.02417 0.83919 0.0
H301 H 0.59884 1.0006 0.81899 0.0
C302 C 0.37537 0.85011 0.82773 0.0
C303 C 0.39146 0.82486 0.81964 0.0
C304 C 0.40046 0.89399 0.8271 0.0
C305 C 0.4416 0.91313 0.81791 0.0
C306 C 0.45664 0.88765 0.80881 0.0
C307 C 0.432 0.84416 0.80976 0.0
C308 C 0.47016 0.9594 0.81892 0.0
C309 C 0.51001 0.97489 0.82944 0.0
C310 C 0.45852 0.98818 0.81002 0.0
C311 C 0.41832 0.97418 0.79717 0.0
C312 C 0.40771 0.94787 0.77692 0.0
C313 C 0.36975 0.93473 0.7649 0.0
C314 C 0.34225 0.94792 0.77287 0.0
C315 C 0.35271 0.97438 0.79284 0.0
C316 C 0.39062 0.98759 0.80494 0.0
C317 C 0.61906 0.15784 0.81808 0.0
C318 C 0.60351 0.18104 0.82988 0.0
C319 C 0.59421 0.11409 0.81603 0.0
C320 C 0.55357 0.0929 0.82585 0.0
C321 C 0.53857 0.11595 0.83808 0.0
C322 C 0.56318 0.15932 0.84015 0.0
C323 C 0.52598 0.04679 0.82333 0.0
C324 C 0.48636 0.03141 0.8126 0.0
C325 C 0.53795 0.01808 0.83181 0.0
C326 C 0.5787 0.03213 0.84399 0.0
C327 C 0.58964 0.05725 0.86478 0.0
C328 C 0.62825 0.07057 0.87605 0.0
C329 C 0.65605 0.05871 0.86681 0.0
C330 C 0.64524 0.0334 0.84631 0.0
C331 C 0.60668 0.02002 0.83495 0.0
H332 H 0.68592 0.06905 0.87557 0.0
H333 H 0.31289 0.93773 0.76354 0.0
H334 H 0.40018 0.57271 0.19712 0.0
H335 H 0.42987 0.52684 0.19467 0.0
H336 H 0.51777 0.60773 0.14102 0.0
H337 H 0.48746 0.65381 0.1431 0.0
H338 H 0.47802 0.52713 0.12655 0.0
H339 H 0.55078 0.60046 0.19739 0.0
H340 H 0.55936 0.63066 0.23803 0.0
H341 H 0.47945 0.50799 0.26729 0.0
H342 H 0.46988 0.47708 0.22675 0.0
H343 H 0.60953 0.43657 0.1305 0.0
H344 H 0.57675 0.4801 0.13118 0.0
H345 H 0.48087 0.39153 0.17879 0.0
H346 H 0.51357 0.34724 0.1778 0.0
H347 H 0.52372 0.47492 0.19609 0.0
H348 H 0.45307 0.40209 0.1243 0.0
H349 H 0.44689 0.37341 0.08343 0.0
H350 H 0.52632 0.49741 0.05576 0.0
H351 H 0.53351 0.52682 0.09654 0.0
C352 C 0.42635 0.58127 0.18508 0.0
C353 C 0.44137 0.61689 0.17023 0.0
C354 C 0.44341 0.555 0.18377 0.0
C355 C 0.4761 0.56379 0.16769 0.0
C356 C 0.49248 0.60031 0.15354 0.0
C357 C 0.47544 0.62684 0.15491 0.0
C358 C 0.49094 0.5332 0.16467 0.0
C359 C 0.4887 0.51624 0.14169 0.0
C360 C 0.50366 0.51803 0.18454 0.0
C361 C 0.50929 0.53649 0.20897 0.0
C362 C 0.53473 0.57995 0.21245 0.0
C363 C 0.53984 0.59719 0.23548 0.0
C364 C 0.51988 0.57128 0.25522 0.0
C365 C 0.49485 0.52804 0.25198 0.0
C366 C 0.48961 0.51063 0.22898 0.0
C367 C 0.58076 0.42581 0.14056 0.0
C368 C 0.56385 0.38853 0.154 0.0
C369 C 0.56209 0.45069 0.14094 0.0
C370 C 0.5264 0.43907 0.15503 0.0
C371 C 0.50838 0.40094 0.16775 0.0
C372 C 0.52676 0.37553 0.16703 0.0
C373 C 0.51069 0.46887 0.15803 0.0
C374 C 0.5129 0.48575 0.18099 0.0
C375 C 0.49831 0.48421 0.13811 0.0
C376 C 0.49414 0.46663 0.11355 0.0
C377 C 0.46955 0.42323 0.10955 0.0
C378 C 0.46579 0.40684 0.08638 0.0
C379 C 0.48628 0.43356 0.06702 0.0
C380 C 0.5105 0.47674 0.07078 0.0
C381 C 0.5144 0.49329 0.09392 0.0
H382 H 0.48331 0.42081 0.0491 0.0
H383 H 0.52389 0.58469 0.27304 0.0
H384 H 0.68382 0.25995 0.89942 0.0
H385 H 0.67312 0.26701 0.94224 0.0
H386 H 0.66107 0.37527 0.9267 0.0
H387 H 0.67016 0.36732 0.88351 0.0
H388 H 0.7334 0.35554 0.96547 0.0
H389 H 0.59714 0.35356 0.94982 0.0
H390 H 0.52821 0.32126 0.9296 0.0
H391 H 0.49886 0.20068 0.95727 0.0
H392 H 0.56798 0.23233 0.97732 0.0
H393 H 0.70903 0.39779 0.08875 0.0
H394 H 0.71326 0.39786 0.04475 0.0
H395 H 0.62418 0.26525 0.04359 0.0
H396 H 0.61922 0.265 0.08736 0.0
H397 H 0.60202 0.30445 0.01209 0.0
H398 H 0.72823 0.30327 0.03241 0.0
H399 H 0.79683 0.32788 0.05191 0.0
H400 H 0.84653 0.44582 0.01513 0.0
H401 H 0.778 0.42207 -0.00437 0.0
C402 C 0.67775 0.28456 0.90509 0.0
C403 C 0.67777 0.31312 0.88834 0.0
C404 C 0.67168 0.28855 0.92947 0.0
C405 C 0.6661 0.32146 0.93748 0.0
C406 C 0.66454 0.34921 0.92072 0.0
C407 C 0.66975 0.34467 0.89615 0.0
C408 C 0.66646 0.32874 0.96357 0.0
C409 C 0.70488 0.3454 0.97574 0.0
C410 C 0.6291 0.31415 0.97675 0.0
C411 C 0.5878 0.29514 0.9647 0.0
C412 C 0.57616 0.32009 0.9513 0.0
C413 C 0.53704 0.30194 0.93996 0.0
C414 C 0.50923 0.25891 0.94207 0.0
C415 C 0.52047 0.23397 0.95559 0.0
C416 C 0.55959 0.25199 0.96693 0.0
C417 C 0.69091 0.36852 0.07914 0.0
C418 C 0.66365 0.33144 0.09152 0.0
C419 C 0.69326 0.36864 0.05401 0.0
C420 C 0.66886 0.33158 0.04092 0.0
C421 C 0.64291 0.29427 0.05333 0.0
C422 C 0.64031 0.29417 0.07836 0.0
C423 C 0.66921 0.33163 0.01426 0.0
C424 C 0.63085 0.31582 0.00196 0.0
C425 C 0.70674 0.34664 0.00097 0.0
C426 C 0.74785 0.3611 0.01281 0.0
C427 C 0.75367 0.33461 0.02866 0.0
C428 C 0.79256 0.34836 0.03968 0.0
C429 C 0.82598 0.38844 0.03483 0.0
C430 C 0.82059 0.41482 0.01891 0.0
C431 C 0.78174 0.40122 0.00787 0.0
H432 H 0.85607 0.39903 0.04336 0.0
H433 H 0.47894 0.24491 0.93329 0.0
H434 H 0.32966 0.63523 0.21159 0.0
H435 H 0.31409 0.61701 0.25445 0.0
H436 H 0.41018 0.74207 0.2741 0.0
H437 H 0.42671 0.75955 0.23181 0.0
H438 H 0.41973 0.68903 0.29944 0.0
H439 H 0.30134 0.70552 0.2778 0.0
H440 H 0.23783 0.6902 0.25484 0.0
H441 H 0.17793 0.56189 0.278 0.0
H442 H 0.24133 0.57635 0.30087 0.0
H443 H 0.36882 0.71556 0.41941 0.0
H444 H 0.37596 0.71923 0.37542 0.0
H445 H 0.30708 0.58435 0.37134 0.0
H446 H 0.3006 0.58023 0.41526 0.0
H447 H 0.28053 0.63181 0.3382 0.0
H448 H 0.39887 0.61876 0.36247 0.0
H449 H 0.46216 0.63673 0.38637 0.0
H450 H 0.52209 0.76225 0.35852 0.0
H451 H 0.45885 0.74519 0.33474 0.0
C452 C 0.34702 0.65877 0.22515 0.0
C453 C 0.37953 0.69865 0.21849 0.0
C454 C 0.33811 0.64843 0.24958 0.0
C455 C 0.36103 0.6782 0.26753 0.0
C456 C 0.39239 0.71842 0.26066 0.0
C457 C 0.40172 0.72843 0.23645 0.0
C458 C 0.35417 0.66777 0.29358 0.0
C459 C 0.38927 0.67681 0.30786 0.0
C460 C 0.31428 0.65061 0.30457 0.0
C461 C 0.27624 0.6419 0.29079 0.0
C462 C 0.27475 0.67396 0.27782 0.0
C463 C 0.23875 0.66545 0.26486 0.0
C464 C 0.20392 0.62506 0.2649 0.0
C465 C 0.20497 0.59313 0.27795 0.0
C466 C 0.24091 0.60147 0.29092 0.0
C467 C 0.35541 0.6867 0.40916 0.0
C468 C 0.33437 0.64764 0.42079 0.0
C469 C 0.35945 0.68885 0.38409 0.0
C470 C 0.34191 0.65203 0.37028 0.0
C471 C 0.32068 0.61303 0.38177 0.0
C472 C 0.31734 0.61082 0.40684 0.0
C473 C 0.34626 0.65451 0.34381 0.0
C474 C 0.31079 0.64371 0.32957 0.0
C475 C 0.38582 0.67047 0.33282 0.0
C476 C 0.42397 0.6808 0.34701 0.0
C477 C 0.42539 0.6503 0.36162 0.0
C478 C 0.46129 0.6603 0.37511 0.0
C479 C 0.49609 0.70064 0.37401 0.0
C480 C 0.49509 0.73103 0.35937 0.0
C481 C 0.45924 0.7212 0.34587 0.0
H482 H 0.52387 0.70832 0.38445 0.0
H483 H 0.17607 0.61854 0.25486 0.0
H484 H 0.6048 0.31528 0.75269 0.0
H485 H 0.60841 0.32082 0.70861 0.0
H486 H 0.74023 0.36097 0.71125 0.0
H487 H 0.73705 0.35578 0.75506 0.0
H488 H 0.72304 0.40731 0.67984 0.0
H489 H 0.67252 0.26233 0.69765 0.0
H490 H 0.62531 0.19363 0.71607 0.0
H491 H 0.52113 0.18646 0.67704 0.0
H492 H 0.56765 0.25547 0.65864 0.0
H493 H 0.75368 0.39211 0.55729 0.0
H494 H 0.7501 0.37489 0.60024 0.0
H495 H 0.61605 0.32401 0.5988 0.0
H496 H 0.61959 0.33933 0.55557 0.0
H497 H 0.63519 0.28157 0.62985 0.0
H498 H 0.68563 0.42837 0.61355 0.0
H499 H 0.73327 0.49691 0.59502 0.0
H500 H 0.83795 0.50067 0.63162 0.0
H501 H 0.79096 0.43187 0.65012 0.0
C502 C 0.63463 0.32585 0.74388 0.0
C503 C 0.67056 0.33486 0.75731 0.0
C504 C 0.63657 0.32865 0.71874 0.0
C505 C 0.67446 0.3407 0.70675 0.0
C506 C 0.71067 0.35139 0.72019 0.0
C507 C 0.70872 0.34832 0.74521 0.0
C508 C 0.67655 0.34174 0.68016 0.0
C509 C 0.70418 0.37974 0.66891 0.0
C510 C 0.65151 0.30582 0.66598 0.0
C511 C 0.62349 0.26428 0.67697 0.0
C512 C 0.63948 0.24629 0.69316 0.0
C513 C 0.61286 0.20725 0.70356 0.0
C514 C 0.57023 0.18575 0.69778 0.0
C515 C 0.55415 0.20319 0.68153 0.0
C516 C 0.58063 0.24225 0.6711 0.0
C517 C 0.72342 0.37598 0.5661 0.0
C518 C 0.68686 0.36675 0.55347 0.0
C519 C 0.72138 0.36649 0.59058 0.0
C520 C 0.68293 0.34921 0.60283 0.0
C521 C 0.64603 0.33748 0.58973 0.0
C522 C 0.64801 0.34616 0.56512 0.0
C523 C 0.68158 0.34724 0.62949 0.0
C524 C 0.65409 0.30913 0.64078 0.0
C525 C 0.70673 0.38311 0.64377 0.0
C526 C 0.73485 0.42484 0.63304 0.0
C527 C 0.71883 0.44375 0.61756 0.0
C528 C 0.74572 0.48263 0.60706 0.0
C529 C 0.78863 0.50308 0.61209 0.0
C530 C 0.80472 0.48476 0.62771 0.0
C531 C 0.77798 0.44585 0.63822 0.0
H532 H 0.8094 0.53315 0.60393 0.0
H533 H 0.54967 0.15553 0.70586 0.0
H534 H 0.36937 0.68626 0.88022 0.0
H535 H 0.38483 0.68189 0.92288 0.0
H536 H 0.28072 0.69788 0.94354 0.0
H537 H 0.26661 0.7042 0.9015 0.0
H538 H 0.34084 0.74025 0.9725 0.0
H539 H 0.27679 0.59868 0.94085 0.0
H540 H 0.27148 0.54355 0.91344 0.0
H541 H 0.39183 0.56564 0.9373 0.0
H542 H 0.39804 0.62124 0.96466 0.0
H543 H 0.28733 0.64578 0.08856 0.0
H544 H 0.28281 0.64926 0.04444 0.0
H545 H 0.4117 0.67987 0.03814 0.0
H546 H 0.41681 0.67779 0.08204 0.0
H547 H 0.34642 0.61607 0.00243 0.0
H548 H 0.40806 0.7568 0.03502 0.0
H549 H 0.41009 0.80898 0.06361 0.0
H550 H 0.28992 0.78523 0.03827 0.0
H551 H 0.28691 0.73234 0.00978 0.0
C552 C 0.35016 0.68922 0.89396 0.0
C553 C 0.31672 0.69539 0.88756 0.0
C554 C 0.3588 0.68647 0.91829 0.0
C555 C 0.33349 0.68888 0.93647 0.0
C556 C 0.30078 0.696 0.92994 0.0
C557 C 0.29266 0.69948 0.90582 0.0
C558 C 0.33988 0.6832 0.96233 0.0
C559 C 0.34178 0.7129 0.97894 0.0
C560 C 0.34192 0.64797 0.97089 0.0
C561 C 0.33807 0.61439 0.95458 0.0
C562 C 0.30222 0.59193 0.94013 0.0
C563 C 0.29904 0.56059 0.92462 0.0
C564 C 0.33136 0.55119 0.92357 0.0
C565 C 0.36687 0.57301 0.93809 0.0
C566 C 0.37022 0.60442 0.95361 0.0
C567 C 0.31436 0.6525 0.07768 0.0
C568 C 0.35246 0.66182 0.08856 0.0
C569 C 0.3118 0.65452 0.0526 0.0
C570 C 0.347 0.66488 0.03822 0.0
C571 C 0.38427 0.67171 0.049 0.0
C572 C 0.38714 0.67073 0.07402 0.0
C573 C 0.34616 0.67244 0.01219 0.0
C574 C 0.34562 0.64336 -0.00426 0.0
C575 C 0.34496 0.70796 0.00373 0.0
C576 C 0.34705 0.74031 0.02048 0.0
C577 C 0.3819 0.76244 0.0357 0.0
C578 C 0.38327 0.79218 0.05186 0.0
C579 C 0.35009 0.80032 0.05282 0.0
C580 C 0.31557 0.77884 0.03754 0.0
C581 C 0.31403 0.749 0.02137 0.0
H582 H 0.35119 0.82333 0.06535 0.0
H583 H 0.32884 0.52692 0.91155 0.0
H584 H 0.72256 0.42329 0.41768 0.0
H585 H 0.71707 0.42106 0.3739 0.0
H586 H 0.63401 0.28713 0.3768 0.0
H587 H 0.64122 0.28899 0.42078 0.0
H588 H 0.6852 0.30467 0.34131 0.0
H589 H 0.59905 0.36018 0.36899 0.0
H590 H 0.58427 0.4089 0.39166 0.0
H591 H 0.67693 0.51227 0.35034 0.0
H592 H 0.69276 0.46424 0.32769 0.0
H593 H 0.56401 0.27152 0.23623 0.0
H594 H 0.58503 0.28933 0.27817 0.0
H595 H 0.70463 0.39144 0.25562 0.0
H596 H 0.68416 0.37316 0.21315 0.0
H597 H 0.64307 0.39692 0.29914 0.0
H598 H 0.72695 0.3358 0.27121 0.0
H599 H 0.73514 0.28264 0.24871 0.0
H600 H 0.63783 0.18502 0.29105 0.0
H601 H 0.62863 0.23764 0.31353 0.0
C602 C 0.70306 0.39334 0.40899 0.0
C603 C 0.68189 0.35631 0.42258 0.0
C604 C 0.69987 0.39215 0.38397 0.0
C605 C 0.67439 0.3541 0.3721 0.0
C606 C 0.65375 0.3169 0.38562 0.0
C607 C 0.65774 0.31795 0.41069 0.0
C608 C 0.66907 0.35312 0.34561 0.0
C609 C 0.67592 0.32485 0.33218 0.0
C610 C 0.65754 0.37988 0.33356 0.0
C611 C 0.64739 0.40867 0.34681 0.0
C612 C 0.61643 0.39333 0.36482 0.0
C613 C 0.60786 0.42082 0.37767 0.0
C614 C 0.62972 0.46366 0.37249 0.0
C615 C 0.66007 0.47908 0.35437 0.0
C616 C 0.66884 0.45174 0.34151 0.0
C617 C 0.59467 0.29806 0.24009 0.0
C618 C 0.62264 0.3208 0.22145 0.0
C619 C 0.60653 0.30815 0.26405 0.0
C620 C 0.6463 0.34145 0.26978 0.0
C621 C 0.67378 0.36557 0.25134 0.0
C622 C 0.66212 0.35506 0.22721 0.0
C623 C 0.65927 0.34867 0.29521 0.0
C624 C 0.65334 0.37764 0.3084 0.0
C625 C 0.671 0.32221 0.30713 0.0
C626 C 0.67682 0.2906 0.29386 0.0
C627 C 0.70703 0.30297 0.27555 0.0
C628 C 0.71191 0.27295 0.26284 0.0
C629 C 0.68694 0.23046 0.2684 0.0
C630 C 0.65712 0.21793 0.28674 0.0
C631 C 0.65208 0.24784 0.29948 0.0
H632 H 0.69076 0.20726 0.25854 0.0
H633 H 0.62309 0.48489 0.38249 0.0
H634 H 0.26659 0.66106 0.75149 0.0
H635 H 0.26605 0.65409 0.70798 0.0
H636 H 0.38796 0.66455 0.71069 0.0
H637 H 0.38934 0.67263 0.75459 0.0
H638 H 0.38368 0.71471 0.67612 0.0
H639 H 0.30003 0.5703 0.69964 0.0
H640 H 0.2427 0.5105 0.72105 0.0
H641 H 0.15219 0.53119 0.68396 0.0
H642 H 0.209 0.59147 0.66254 0.0
H643 H 0.3816 0.64443 0.55646 0.0
H644 H 0.38624 0.65988 0.5996 0.0
H645 H 0.26097 0.64163 0.59784 0.0
H646 H 0.25612 0.62498 0.55466 0.0
H647 H 0.26751 0.59656 0.63208 0.0
H648 H 0.34949 0.73985 0.60817 0.0
H649 H 0.40589 0.80075 0.58699 0.0
H650 H 0.49834 0.78381 0.62464 0.0
H651 H 0.44248 0.72243 0.64582 0.0
C652 C 0.2933 0.66157 0.74298 0.0
C653 C 0.32812 0.66749 0.75662 0.0
C654 C 0.29277 0.65739 0.71803 0.0
C655 C 0.32678 0.65846 0.70611 0.0
C656 C 0.36136 0.66362 0.7196 0.0
C657 C 0.362 0.66794 0.74468 0.0
C658 C 0.32648 0.65554 0.67948 0.0
C659 C 0.35868 0.68857 0.66645 0.0
C660 C 0.29306 0.62212 0.66692 0.0
C661 C 0.25881 0.58562 0.67963 0.0
C662 C 0.26791 0.56227 0.69616 0.0
C663 C 0.23551 0.52826 0.70828 0.0
C664 C 0.19384 0.51711 0.70391 0.0
C665 C 0.18448 0.53988 0.68734 0.0
C666 C 0.21677 0.57393 0.67519 0.0
C667 C 0.35567 0.64505 0.56524 0.0
C668 C 0.3188 0.63431 0.55248 0.0
C669 C 0.35829 0.65387 0.58983 0.0
C670 C 0.32408 0.65229 0.60195 0.0
C671 C 0.28777 0.64316 0.58884 0.0
C672 C 0.28508 0.63402 0.56424 0.0
C673 C 0.3247 0.65582 0.6286 0.0
C674 C 0.29255 0.62281 0.64168 0.0
C675 C 0.35805 0.68937 0.64116 0.0
C676 C 0.39175 0.72628 0.62843 0.0
C677 C 0.38184 0.74889 0.6118 0.0
C678 C 0.41371 0.78354 0.59982 0.0
C679 C 0.45567 0.79608 0.60443 0.0
C680 C 0.46583 0.77404 0.62107 0.0
C681 C 0.43407 0.73934 0.63309 0.0
H682 H 0.4803 0.82292 0.59514 0.0
H683 H 0.1688 0.49078 0.71332 0.0
loop_
_geom_bond_atom_site_label_1
_geom_bond_atom_site_label_2
_geom_bond_distance
_geom_bond_site_symmetry_2
_ccdc_geom_bond_type
Co0 O1 2.216 . S
Co0 O2 2.091 . S
Co0 O4 2.004 . S
Co0 O10 2.021 . S
Co0 O12 2.137 . S
Co0 O13 2.244 . S
O1 Co0 2.216 . S
O1 C8 1.247 . S
O2 Co0 2.091 . S
O2 C8 1.261 . S
C3 O12 1.247 . S
C3 O13 1.272 . S
O4 Co0 2.004 . S
O4 C9 1.259 . S
Co5 O6 2.061 . S
Co5 O11 2.052 . S
Co5 O13 2.135 . S
O6 Co5 2.061 . S
O6 C9 1.235 . S
C7 O10 1.238 . S
C7 O11 1.241 . S
C8 O1 1.247 . S
C8 O2 1.261 . S
C9 O4 1.259 . S
C9 O6 1.235 . S
O10 Co0 2.021 . S
O10 C7 1.238 . S
O11 Co5 2.052 . S
O11 C7 1.241 . S
O12 Co0 2.137 . S
O12 C3 1.247 . S
O13 Co0 2.244 . S
O13 C3 1.272 . S
O13 Co5 2.135 . S
Co14 O15 2.216 . S
Co14 O16 2.091 . S
Co14 O18 2.004 . S
Co14 O24 2.021 . S
Co14 O26 2.137 . S
Co14 O27 2.244 . S
O15 Co14 2.216 . S
O15 C22 1.247 . S
O16 Co14 2.091 . S
O16 C22 1.261 . S
C17 O26 1.247 . S
C17 O27 1.272 . S
O18 Co14 2.004 . S
O18 C23 1.259 . S
Co19 O20 2.061 . S
Co19 O25 2.052 . S
Co19 O27 2.135 . S
O20 Co19 2.061 . S
O20 C23 1.235 . S
C21 O24 1.238 . S
C21 O25 1.241 . S
C22 O15 1.247 . S
C22 O16 1.261 . S
C23 O18 1.259 . S
C23 O20 1.235 . S
O24 Co14 2.021 . S
O24 C21 1.238 . S
O25 Co19 2.052 . S
O25 C21 1.241 . S
O26 Co14 2.137 . S
O26 C17 1.247 . S
O27 Co14 2.244 . S
O27 C17 1.272 . S
O27 Co19 2.135 . S
Co28 O29 2.216 . S
Co28 O30 2.091 . S
Co28 O32 2.004 . S
Co28 O38 2.021 . S
Co28 O40 2.137 . S
Co28 O41 2.244 . S
O29 Co28 2.216 . S
O29 C36 1.247 . S
O30 Co28 2.091 . S
O30 C36 1.261 . S
C31 O40 1.247 . S
C31 O41 1.272 . S
O32 Co28 2.004 . S
O32 C37 1.259 . S
Co33 O34 2.061 . S
Co33 O39 2.052 . S
Co33 O41 2.135 . S
O34 Co33 2.061 . S
O34 C37 1.235 . S
C35 O38 1.238 . S
C35 O39 1.241 . S
C36 O29 1.247 . S
C36 O30 1.261 . S
C37 O32 1.259 . S
C37 O34 1.235 . S
O38 Co28 2.021 . S
O38 C35 1.238 . S
O39 Co33 2.052 . S
O39 C35 1.241 . S
O40 Co28 2.137 . S
O40 C31 1.247 . S
O41 Co28 2.244 . S
O41 C31 1.272 . S
O41 Co33 2.135 . S
Co42 O43 2.216 . S
Co42 O44 2.091 . S
Co42 O46 2.004 . S
Co42 O52 2.021 . S
Co42 O54 2.137 . S
Co42 O55 2.244 . S
O43 Co42 2.216 . S
O43 C50 1.247 . S
O44 Co42 2.091 . S
O44 C50 1.261 . S
C45 O54 1.247 . S
C45 O55 1.272 . S
O46 Co42 2.004 . S
O46 C51 1.259 . S
Co47 O48 2.061 . S
Co47 O53 2.052 . S
Co47 O55 2.135 . S
O48 Co47 2.061 . S
O48 C51 1.235 . S
C49 O52 1.238 . S
C49 O53 1.241 . S
C50 O43 1.247 . S
C50 O44 1.261 . S
C51 O46 1.259 . S
C51 O48 1.235 . S
O52 Co42 2.021 . S
O52 C49 1.238 . S
O53 Co47 2.052 . S
O53 C49 1.241 . S
O54 Co42 2.137 . S
O54 C45 1.247 . S
O55 Co42 2.244 . S
O55 C45 1.272 . S
O55 Co47 2.135 . S
Co56 O57 2.216 . S
Co56 O58 2.091 . S
Co56 O60 2.004 . S
Co56 O66 2.021 . S
Co56 O68 2.137 . S
Co56 O69 2.244 . S
O57 Co56 2.216 . S
O57 C64 1.247 . S
O58 Co56 2.091 . S
O58 C64 1.261 . S
C59 O68 1.247 . S
C59 O69 1.272 . S
O60 Co56 2.004 . S
O60 C65 1.259 . S
Co61 O62 2.061 . S
Co61 O67 2.052 . S
Co61 O69 2.135 . S
O62 Co61 2.061 . S
O62 C65 1.235 . S
C63 O66 1.238 . S
C63 O67 1.241 . S
C64 O57 1.247 . S
C64 O58 1.261 . S
C65 O60 1.259 . S
C65 O62 1.235 . S
O66 Co56 2.021 . S
O66 C63 1.238 . S
O67 Co61 2.052 . S
O67 C63 1.241 . S
O68 Co56 2.137 . S
O68 C59 1.247 . S
O69 Co56 2.244 . S
O69 C59 1.272 . S
O69 Co61 2.135 . S
Co70 O71 2.216 . S
Co70 O72 2.091 . S
Co70 O74 2.004 . S
Co70 O80 2.021 . S
Co70 O82 2.137 . S
Co70 O83 2.244 . S
O71 Co70 2.216 . S
O71 C78 1.247 . S
O72 Co70 2.091 . S
O72 C78 1.261 . S
C73 O82 1.247 . S
C73 O83 1.272 . S
O74 Co70 2.004 . S
O74 C79 1.259 . S
Co75 O76 2.061 . S
Co75 O81 2.052 . S
Co75 O83 2.135 . S
O76 Co75 2.061 . S
O76 C79 1.235 . S
C77 O80 1.238 . S
C77 O81 1.241 . S
C78 O71 1.247 . S
C78 O72 1.261 . S
C79 O74 1.259 . S
C79 O76 1.235 . S
O80 Co70 2.021 . S
O80 C77 1.238 . S
O81 Co75 2.052 . S
O81 C77 1.241 . S
O82 Co70 2.137 . S
O82 C73 1.247 . S
O83 Co70 2.244 . S
O83 C73 1.272 . S
O83 Co75 2.135 . S
H84 C102 0.951 . S
H85 C104 0.951 . S
H86 C106 0.950 . S
H87 C107 0.950 . S
H88 C109 0.950 . S
H89 C112 0.950 . S
H90 C113 0.950 . S
H91 C115 0.950 . S
H92 C116 0.950 . S
H93 C117 0.951 . S
H94 C119 0.951 . S
H95 C121 0.950 . S
H96 C122 0.950 . S
H97 C124 0.950 . S
H98 C127 0.950 . S
H99 C128 0.950 . S
H100 C130 0.950 . S
H101 C131 0.950 . S
C102 H84 0.951 . S
C102 C103 1.366 . S
C102 C104 1.388 . S
C103 C102 1.366 . S
C103 C107 1.385 . S
C104 H85 0.951 . S
C104 C102 1.388 . S
C104 C105 1.366 . S
C105 C104 1.366 . S
C105 C106 1.414 . S
C105 C108 1.499 . S
C106 H86 0.950 . S
C106 C105 1.414 . S
C106 C107 1.374 . S
C107 H87 0.950 . S
C107 C103 1.385 . S
C107 C106 1.374 . S
C108 C105 1.499 . S
C108 C109 1.373 . S
C108 C110 1.389 . S
C109 H88 0.950 . S
C109 C108 1.373 . S
C109 C125 1.377 1_545 S
C110 C108 1.389 . S
C110 C111 1.524 . S
C110 C124 1.377 1_545 S
C111 C110 1.524 . S
C111 C112 1.397 . S
C111 C116 1.363 . S
C112 H89 0.950 . S
C112 C111 1.397 . S
C112 C113 1.334 . S
C113 H90 0.950 . S
C113 C112 1.334 . S
C113 C114 1.287 . S
C114 C113 1.287 . S
C114 C115 1.524 . S
C114 H133 0.913 . S
C115 H91 0.950 . S
C115 C114 1.524 . S
C115 C116 1.415 . S
C116 H92 0.950 . S
C116 C111 1.363 . S
C116 C115 1.415 . S
C117 H93 0.951 . S
C117 C118 1.366 . S
C117 C119 1.388 . S
C118 C117 1.366 . S
C118 C122 1.385 . S
C119 H94 0.951 . S
C119 C117 1.388 . S
C119 C120 1.366 . S
C120 C119 1.366 . S
C120 C121 1.414 . S
C120 C123 1.499 . S
C121 H95 0.950 . S
C121 C120 1.414 . S
C121 C122 1.374 . S
C122 H96 0.950 . S
C122 C118 1.385 . S
C122 C121 1.374 . S
C123 C120 1.499 . S
C123 C124 1.373 . S
C123 C125 1.389 . S
C124 H97 0.950 . S
C124 C110 1.377 1_565 S
C124 C123 1.373 . S
C125 C109 1.377 1_565 S
C125 C123 1.389 . S
C125 C126 1.524 . S
C126 C125 1.524 . S
C126 C127 1.397 . S
C126 C131 1.363 . S
C127 H98 0.950 . S
C127 C126 1.397 . S
C127 C128 1.334 . S
C128 H99 0.950 . S
C128 C127 1.334 . S
C128 C129 1.287 . S
C129 C128 1.287 . S
C129 C130 1.524 . S
C129 H132 0.999 . S
C130 H100 0.950 . S
C130 C129 1.524 . S
C130 C131 1.415 . S
C131 H101 0.950 . S
C131 C126 1.363 . S
C131 C130 1.415 . S
H132 C129 0.999 . S
H133 C114 0.913 . S
H134 C152 0.951 . S
H135 C154 0.951 . S
H136 C156 0.950 . S
H137 C157 0.950 . S
H138 C159 0.950 . S
H139 C162 0.950 . S
H140 C163 0.950 . S
H141 C165 0.950 . S
H142 C166 0.950 . S
H143 C167 0.951 . S
H144 C169 0.951 . S
H145 C171 0.950 . S
H146 C172 0.950 . S
H147 C174 0.950 . S
H148 C177 0.950 . S
H149 C178 0.950 . S
H150 C180 0.950 . S
H151 C181 0.950 . S
C152 H134 0.951 . S
C152 C153 1.366 . S
C152 C154 1.388 . S
C153 C152 1.366 . S
C153 C157 1.385 . S
C154 H135 0.951 . S
C154 C152 1.388 . S
C154 C155 1.366 . S
C155 C154 1.366 . S
C155 C156 1.414 . S
C155 C158 1.499 . S
C156 H136 0.950 . S
C156 C155 1.414 . S
C156 C157 1.374 . S
C157 H137 0.950 . S
C157 C153 1.385 . S
C157 C156 1.374 . S
C158 C155 1.499 . S
C158 C159 1.373 . S
C158 C160 1.389 . S
C159 H138 0.950 . S
C159 C158 1.373 . S
C159 C175 1.377 . S
C160 C158 1.389 . S
C160 C161 1.524 . S
C160 C174 1.377 . S
C161 C160 1.524 . S
C161 C162 1.397 . S
C161 C166 1.363 . S
C162 H139 0.950 . S
C162 C161 1.397 . S
C162 C163 1.334 . S
C163 H140 0.950 . S
C163 C162 1.334 . S
C163 C164 1.287 . S
C164 C163 1.287 . S
C164 C165 1.524 . S
C164 H183 0.913 . S
C165 H141 0.950 . S
C165 C164 1.524 . S
C165 C166 1.415 . S
C166 H142 0.950 . S
C166 C161 1.363 . S
C166 C165 1.415 . S
C167 H143 0.951 . S
C167 C168 1.366 . S
C167 C169 1.388 . S
C168 C167 1.366 . S
C168 C172 1.385 . S
C169 H144 0.951 . S
C169 C167 1.388 . S
C169 C170 1.366 . S
C170 C169 1.366 . S
C170 C171 1.414 . S
C170 C173 1.499 . S
C171 H145 0.950 . S
C171 C170 1.414 . S
C171 C172 1.374 . S
C172 H146 0.950 . S
C172 C168 1.385 . S
C172 C171 1.374 . S
C173 C170 1.499 . S
C173 C174 1.373 . S
C173 C175 1.389 . S
C174 H147 0.950 . S
C174 C160 1.377 . S
C174 C173 1.373 . S
C175 C159 1.377 . S
C175 C173 1.389 . S
C175 C176 1.524 . S
C176 C175 1.524 . S
C176 C177 1.397 . S
C176 C181 1.363 . S
C177 H148 0.950 . S
C177 C176 1.397 . S
C177 C178 1.334 . S
C178 H149 0.950 . S
C178 C177 1.334 . S
C178 C179 1.287 . S
C179 C178 1.287 . S
C179 C180 1.524 . S
C179 H182 0.999 . S
C180 H150 0.950 . S
C180 C179 1.524 . S
C180 C181 1.415 . S
C181 H151 0.950 . S
C181 C176 1.363 . S
C181 C180 1.415 . S
H182 C179 0.999 . S
H183 C164 0.913 . S
H184 C202 0.951 . S
H185 C204 0.951 . S
H186 C206 0.950 . S
H187 C207 0.950 . S
H188 C209 0.950 . S
H189 C212 0.950 . S
H190 C213 0.950 . S
H191 C215 0.950 . S
H192 C216 0.950 . S
H193 C217 0.951 . S
H194 C219 0.951 . S
H195 C221 0.950 . S
H196 C222 0.950 . S
H197 C224 0.950 . S
H198 C227 0.950 . S
H199 C228 0.950 . S
H200 C230 0.950 . S
H201 C231 0.950 . S
C202 H184 0.951 . S
C202 C203 1.366 . S
C202 C204 1.388 . S
C203 C202 1.366 . S
C203 C207 1.385 . S
C204 H185 0.951 . S
C204 C202 1.388 . S
C204 C205 1.366 . S
C205 C204 1.366 . S
C205 C206 1.414 . S
C205 C208 1.499 . S
C206 H186 0.950 . S
C206 C205 1.414 . S
C206 C207 1.374 . S
C207 H187 0.950 . S
C207 C203 1.385 . S
C207 C206 1.374 . S
C208 C205 1.499 . S
C208 C209 1.373 . S
C208 C210 1.389 . S
C209 H188 0.950 . S
C209 C208 1.373 . S
C209 C225 1.377 1_655 S
C210 C208 1.389 . S
C210 C211 1.524 . S
C210 C224 1.377 1_655 S
C211 C210 1.524 . S
C211 C212 1.397 . S
C211 C216 1.363 . S
C212 H189 0.950 . S
C212 C211 1.397 . S
C212 C213 1.334 . S
C213 H190 0.950 . S
C213 C212 1.334 . S
C213 C214 1.287 . S
C214 C213 1.287 . S
C214 C215 1.524 . S
C214 H233 0.913 . S
C215 H191 0.950 . S
C215 C214 1.524 . S
C215 C216 1.415 . S
C216 H192 0.950 . S
C216 C211 1.363 . S
C216 C215 1.415 . S
C217 H193 0.951 . S
C217 C218 1.366 . S
C217 C219 1.388 . S
C218 C217 1.366 . S
C218 C222 1.385 . S
C219 H194 0.951 . S
C219 C217 1.388 . S
C219 C220 1.366 . S
C220 C219 1.366 . S
C220 C221 1.414 . S
C220 C223 1.499 . S
C221 H195 0.950 . S
C221 C220 1.414 . S
C221 C222 1.374 . S
C222 H196 0.950 . S
C222 C218 1.385 . S
C222 C221 1.374 . S
C223 C220 1.499 . S
C223 C224 1.373 . S
C223 C225 1.389 . S
C224 H197 0.950 . S
C224 C210 1.377 1_455 S
C224 C223 1.373 . S
C225 C209 1.377 1_455 S
C225 C223 1.389 . S
C225 C226 1.524 . S
C226 C225 1.524 . S
C226 C227 1.397 . S
C226 C231 1.363 . S
C227 H198 0.950 . S
C227 C226 1.397 . S
C227 C228 1.334 . S
C228 H199 0.950 . S
C228 C227 1.334 . S
C228 C229 1.287 . S
C229 C228 1.287 . S
C229 C230 1.524 . S
C229 H232 0.999 . S
C230 H200 0.950 . S
C230 C229 1.524 . S
C230 C231 1.415 . S
C231 H201 0.950 . S
C231 C226 1.363 . S
C231 C230 1.415 . S
H232 C229 0.999 . S
H233 C214 0.913 . S
H234 C252 0.951 . S
H235 C254 0.951 . S
H236 C256 0.950 . S
H237 C257 0.950 . S
H238 C259 0.950 . S
H239 C262 0.950 . S
H240 C263 0.950 . S
H241 C265 0.950 . S
H242 C266 0.950 1_655 S
H243 C267 0.951 . S
H244 C269 0.951 . S
H245 C271 0.950 . S
H246 C272 0.950 . S
H247 C274 0.950 . S
H248 C277 0.950 . S
H249 C278 0.950 . S
H250 C280 0.950 . S
H251 C281 0.950 1_455 S
C252 H234 0.951 . S
C252 C253 1.366 . S
C252 C254 1.388 . S
C253 C252 1.366 . S
C253 C257 1.385 . S
C254 H235 0.951 . S
C254 C252 1.388 . S
C254 C255 1.366 . S
C255 C254 1.366 . S
C255 C256 1.414 . S
C255 C258 1.499 . S
C256 H236 0.950 . S
C256 C255 1.414 . S
C256 C257 1.374 . S
C257 H237 0.950 . S
C257 C253 1.385 . S
C257 C256 1.374 . S
C258 C255 1.499 . S
C258 C259 1.373 . S
C258 C260 1.389 . S
C259 H238 0.950 . S
C259 C258 1.373 . S
C259 C275 1.377 1_455 S
C260 C258 1.389 . S
C260 C261 1.524 . S
C260 C274 1.377 1_455 S
C261 C260 1.524 . S
C261 C262 1.397 . S
C261 C266 1.363 . S
C262 H239 0.950 . S
C262 C261 1.397 . S
C262 C263 1.334 . S
C263 H240 0.950 . S
C263 C262 1.334 . S
C263 C264 1.287 . S
C264 C263 1.287 . S
C264 C265 1.524 . S
C264 H283 0.913 . S
C265 H241 0.950 . S
C265 C264 1.524 . S
C265 C266 1.415 . S
C266 H242 0.950 1_455 S
C266 C261 1.363 . S
C266 C265 1.415 . S
C267 H243 0.951 . S
C267 C268 1.366 . S
C267 C269 1.388 . S
C268 C267 1.366 . S
C268 C272 1.385 . S
C269 H244 0.951 . S
C269 C267 1.388 . S
C269 C270 1.366 . S
C270 C269 1.366 . S
C270 C271 1.414 . S
C270 C273 1.499 . S
C271 H245 0.950 . S
C271 C270 1.414 . S
C271 C272 1.374 . S
C272 H246 0.950 . S
C272 C268 1.385 . S
C272 C271 1.374 . S
C273 C270 1.499 . S
C273 C274 1.373 . S
C273 C275 1.389 . S
C274 H247 0.950 . S
C274 C260 1.377 1_655 S
C274 C273 1.373 . S
C275 C259 1.377 1_655 S
C275 C273 1.389 . S
C275 C276 1.524 . S
C276 C275 1.524 . S
C276 C277 1.397 . S
C276 C281 1.363 . S
C277 H248 0.950 . S
C277 C276 1.397 . S
C277 C278 1.334 . S
C278 H249 0.950 . S
C278 C277 1.334 . S
C278 C279 1.287 . S
C279 C278 1.287 . S
C279 C280 1.524 . S
C279 H282 0.999 . S
C280 H250 0.950 . S
C280 C279 1.524 . S
C280 C281 1.415 . S
C281 H251 0.950 1_655 S
C281 C276 1.363 . S
C281 C280 1.415 . S
H282 C279 0.999 . S
H283 C264 0.913 . S
H284 C302 0.951 . S
H285 C304 0.951 . S
H286 C306 0.950 . S
H287 C307 0.950 . S
H288 C309 0.950 . S
H289 C312 0.950 . S
H290 C313 0.950 . S
H291 C315 0.950 . S
H292 C316 0.950 1_545 S
H293 C317 0.951 . S
H294 C319 0.951 . S
H295 C321 0.950 . S
H296 C322 0.950 . S
H297 C324 0.950 . S
H298 C327 0.950 . S
H299 C328 0.950 . S
H300 C330 0.950 . S
H301 C331 0.950 1_565 S
C302 H284 0.951 . S
C302 C303 1.366 . S
C302 C304 1.388 . S
C303 C302 1.366 . S
C303 C307 1.385 . S
C304 H285 0.951 . S
C304 C302 1.388 . S
C304 C305 1.366 . S
C305 C304 1.366 . S
C305 C306 1.414 . S
C305 C308 1.499 . S
C306 H286 0.950 . S
C306 C305 1.414 . S
C306 C307 1.374 . S
C307 H287 0.950 . S
C307 C303 1.385 . S
C307 C306 1.374 . S
C308 C305 1.499 . S
C308 C309 1.373 . S
C308 C310 1.389 . S
C309 H288 0.950 . S
C309 C308 1.373 . S
C309 C325 1.377 1_565 S
C310 C308 1.389 . S
C310 C311 1.524 . S
C310 C324 1.377 1_565 S
C311 C310 1.524 . S
C311 C312 1.397 . S
C311 C316 1.363 . S
C312 H289 0.950 . S
C312 C311 1.397 . S
C312 C313 1.334 . S
C313 H290 0.950 . S
C313 C312 1.334 . S
C313 C314 1.287 . S
C314 C313 1.287 . S
C314 C315 1.524 . S
C314 H333 0.913 . S
C315 H291 0.950 . S
C315 C314 1.524 . S
C315 C316 1.415 . S
C316 H292 0.950 1_565 S
C316 C311 1.363 . S
C316 C315 1.415 . S
C317 H293 0.951 . S
C317 C318 1.366 . S
C317 C319 1.388 . S
C318 C317 1.366 . S
C318 C322 1.385 . S
C319 H294 0.951 . S
C319 C317 1.388 . S
C319 C320 1.366 . S
C320 C319 1.366 . S
C320 C321 1.414 . S
C320 C323 1.499 . S
C321 H295 0.950 . S
C321 C320 1.414 . S
C321 C322 1.374 . S
C322 H296 0.950 . S
C322 C318 1.385 . S
C322 C321 1.374 . S
C323 C320 1.499 . S
C323 C324 1.373 . S
C323 C325 1.389 . S
C324 H297 0.950 . S
C324 C310 1.377 1_545 S
C324 C323 1.373 . S
C325 C309 1.377 1_545 S
C325 C323 1.389 . S
C325 C326 1.524 . S
C326 C325 1.524 . S
C326 C327 1.397 . S
C326 C331 1.363 . S
C327 H298 0.950 . S
C327 C326 1.397 . S
C327 C328 1.334 . S
C328 H299 0.950 . S
C328 C327 1.334 . S
C328 C329 1.287 . S
C329 C328 1.287 . S
C329 C330 1.524 . S
C329 H332 0.999 . S
C330 H300 0.950 . S
C330 C329 1.524 . S
C330 C331 1.415 . S
C331 H301 0.950 1_545 S
C331 C326 1.363 . S
C331 C330 1.415 . S
H332 C329 0.999 . S
H333 C314 0.913 . S
H334 C352 0.951 . S
H335 C354 0.951 . S
H336 C356 0.950 . S
H337 C357 0.950 . S
H338 C359 0.950 . S
H339 C362 0.950 . S
H340 C363 0.950 . S
H341 C365 0.950 . S
H342 C366 0.950 . S
H343 C367 0.951 . S
H344 C369 0.951 . S
H345 C371 0.950 . S
H346 C372 0.950 . S
H347 C374 0.950 . S
H348 C377 0.950 . S
H349 C378 0.950 . S
H350 C380 0.950 . S
H351 C381 0.950 . S
C352 H334 0.951 . S
C352 C353 1.366 . S
C352 C354 1.388 . S
C353 C352 1.366 . S
C353 C357 1.385 . S
C354 H335 0.951 . S
C354 C352 1.388 . S
C354 C355 1.366 . S
C355 C354 1.366 . S
C355 C356 1.414 . S
C355 C358 1.499 . S
C356 H336 0.950 . S
C356 C355 1.414 . S
C356 C357 1.374 . S
C357 H337 0.950 . S
C357 C353 1.385 . S
C357 C356 1.374 . S
C358 C355 1.499 . S
C358 C359 1.373 . S
C358 C360 1.389 . S
C359 H338 0.950 . S
C359 C358 1.373 . S
C359 C375 1.377 . S
C360 C358 1.389 . S
C360 C361 1.524 . S
C360 C374 1.377 . S
C361 C360 1.524 . S
C361 C362 1.397 . S
C361 C366 1.363 . S
C362 H339 0.950 . S
C362 C361 1.397 . S
C362 C363 1.334 . S
C363 H340 0.950 . S
C363 C362 1.334 . S
C363 C364 1.287 . S
C364 C363 1.287 . S
C364 C365 1.524 . S
C364 H383 0.913 . S
C365 H341 0.950 . S
C365 C364 1.524 . S
C365 C366 1.415 . S
C366 H342 0.950 . S
C366 C361 1.363 . S
C366 C365 1.415 . S
C367 H343 0.951 . S
C367 C368 1.366 . S
C367 C369 1.388 . S
C368 C367 1.366 . S
C368 C372 1.385 . S
C369 H344 0.951 . S
C369 C367 1.388 . S
C369 C370 1.366 . S
C370 C369 1.366 . S
C370 C371 1.414 . S
C370 C373 1.499 . S
C371 H345 0.950 . S
C371 C370 1.414 . S
C371 C372 1.374 . S
C372 H346 0.950 . S
C372 C368 1.385 . S
C372 C371 1.374 . S
C373 C370 1.499 . S
C373 C374 1.373 . S
C373 C375 1.389 . S
C374 H347 0.950 . S
C374 C360 1.377 . S
C374 C373 1.373 . S
C375 C359 1.377 . S
C375 C373 1.389 . S
C375 C376 1.524 . S
C376 C375 1.524 . S
C376 C377 1.397 . S
C376 C381 1.363 . S
C377 H348 0.950 . S
C377 C376 1.397 . S
C377 C378 1.334 . S
C378 H349 0.950 . S
C378 C377 1.334 . S
C378 C379 1.287 . S
C379 C378 1.287 . S
C379 C380 1.524 . S
C379 H382 0.999 . S
C380 H350 0.950 . S
C380 C379 1.524 . S
C380 C381 1.415 . S
C381 H351 0.950 . S
C381 C376 1.363 . S
C381 C380 1.415 . S
H382 C379 0.999 . S
H383 C364 0.913 . S
H384 C402 0.951 . S
H385 C404 0.951 . S
H386 C406 0.950 . S
H387 C407 0.950 . S
H388 C409 0.950 . S
H389 C412 0.950 . S
H390 C413 0.950 . S
H391 C415 0.950 . S
H392 C416 0.950 . S
H393 C417 0.951 . S
H394 C419 0.951 . S
H395 C421 0.950 . S
H396 C422 0.950 . S
H397 C424 0.950 . S
H398 C427 0.950 . S
H399 C428 0.950 . S
H400 C430 0.950 . S
H401 C431 0.950 . S
C402 H384 0.951 . S
C402 C403 1.366 . S
C402 C404 1.388 . S
C403 C402 1.366 . S
C403 C407 1.385 . S
C404 H385 0.951 . S
C404 C402 1.388 . S
C404 C405 1.366 . S
C405 C404 1.366 . S
C405 C406 1.414 . S
C405 C408 1.499 . S
C406 H386 0.950 . S
C406 C405 1.414 . S
C406 C407 1.374 . S
C407 H387 0.950 . S
C407 C403 1.385 . S
C407 C406 1.374 . S
C408 C405 1.499 . S
C408 C409 1.373 . S
C408 C410 1.389 . S
C409 H388 0.950 . S
C409 C408 1.373 . S
C409 C425 1.377 1_556 S
C410 C408 1.389 . S
C410 C411 1.524 . S
C410 C424 1.377 1_556 S
C411 C410 1.524 . S
C411 C412 1.397 . S
C411 C416 1.363 . S
C412 H389 0.950 . S
C412 C411 1.397 . S
C412 C413 1.334 . S
C413 H390 0.950 . S
C413 C412 1.334 . S
C413 C414 1.287 . S
C414 C413 1.287 . S
C414 C415 1.524 . S
C414 H433 0.913 . S
C415 H391 0.950 . S
C415 C414 1.524 . S
C415 C416 1.415 . S
C416 H392 0.950 . S
C416 C411 1.363 . S
C416 C415 1.415 . S
C417 H393 0.951 . S
C417 C418 1.366 . S
C417 C419 1.388 . S
C418 C417 1.366 . S
C418 C422 1.385 . S
C419 H394 0.951 . S
C419 C417 1.388 . S
C419 C420 1.366 . S
C420 C419 1.366 . S
C420 C421 1.414 . S
C420 C423 1.499 . S
C421 H395 0.950 . S
C421 C420 1.414 . S
C421 C422 1.374 . S
C422 H396 0.950 . S
C422 C418 1.385 . S
C422 C421 1.374 . S
C423 C420 1.499 . S
C423 C424 1.373 . S
C423 C425 1.389 . S
C424 H397 0.950 . S
C424 C410 1.377 1_554 S
C424 C423 1.373 . S
C425 C409 1.377 1_554 S
C425 C423 1.389 . S
C425 C426 1.524 . S
C426 C425 1.524 . S
C426 C427 1.397 . S
C426 C431 1.363 . S
C427 H398 0.950 . S
C427 C426 1.397 . S
C427 C428 1.334 . S
C428 H399 0.950 . S
C428 C427 1.334 . S
C428 C429 1.287 . S
C429 C428 1.287 . S
C429 C430 1.524 . S
C429 H432 0.999 . S
C430 H400 0.950 . S
C430 C429 1.524 . S
C430 C431 1.415 . S
C431 H401 0.950 . S
C431 C426 1.363 . S
C431 C430 1.415 . S
H432 C429 0.999 . S
H433 C414 0.913 . S
H434 C452 0.951 . S
H435 C454 0.951 . S
H436 C456 0.950 . S
H437 C457 0.950 . S
H438 C459 0.950 . S
H439 C462 0.950 . S
H440 C463 0.950 . S
H441 C465 0.950 . S
H442 C466 0.950 . S
H443 C467 0.951 . S
H444 C469 0.951 . S
H445 C471 0.950 . S
H446 C472 0.950 . S
H447 C474 0.950 . S
H448 C477 0.950 . S
H449 C478 0.950 . S
H450 C480 0.950 . S
H451 C481 0.950 . S
C452 H434 0.951 . S
C452 C453 1.366 . S
C452 C454 1.388 . S
C453 C452 1.366 . S
C453 C457 1.385 . S
C454 H435 0.951 . S
C454 C452 1.388 . S
C454 C455 1.366 . S
C455 C454 1.366 . S
C455 C456 1.414 . S
C455 C458 1.499 . S
C456 H436 0.950 . S
C456 C455 1.414 . S
C456 C457 1.374 . S
C457 H437 0.950 . S
C457 C453 1.385 . S
C457 C456 1.374 . S
C458 C455 1.499 . S
C458 C459 1.373 . S
C458 C460 1.389 . S
C459 H438 0.950 . S
C459 C458 1.373 . S
C459 C475 1.377 . S
C460 C458 1.389 . S
C460 C461 1.524 . S
C460 C474 1.377 . S
C461 C460 1.524 . S
C461 C462 1.397 . S
C461 C466 1.363 . S
C462 H439 0.950 . S
C462 C461 1.397 . S
C462 C463 1.334 . S
C463 H440 0.950 . S
C463 C462 1.334 . S
C463 C464 1.287 . S
C464 C463 1.287 . S
C464 C465 1.524 . S
C464 H483 0.913 . S
C465 H441 0.950 . S
C465 C464 1.524 . S
C465 C466 1.415 . S
C466 H442 0.950 . S
C466 C461 1.363 . S
C466 C465 1.415 . S
C467 H443 0.951 . S
C467 C468 1.366 . S
C467 C469 1.388 . S
C468 C467 1.366 . S
C468 C472 1.385 . S
C469 H444 0.951 . S
C469 C467 1.388 . S
C469 C470 1.366 . S
C470 C469 1.366 . S
C470 C471 1.414 . S
C470 C473 1.499 . S
C471 H445 0.950 . S
C471 C470 1.414 . S
C471 C472 1.374 . S
C472 H446 0.950 . S
C472 C468 1.385 . S
C472 C471 1.374 . S
C473 C470 1.499 . S
C473 C474 1.373 . S
C473 C475 1.389 . S
C474 H447 0.950 . S
C474 C460 1.377 . S
C474 C473 1.373 . S
C475 C459 1.377 . S
C475 C473 1.389 . S
C475 C476 1.524 . S
C476 C475 1.524 . S
C476 C477 1.397 . S
C476 C481 1.363 . S
C477 H448 0.950 . S
C477 C476 1.397 . S
C477 C478 1.334 . S
C478 H449 0.950 . S
C478 C477 1.334 . S
C478 C479 1.287 . S
C479 C478 1.287 . S
C479 C480 1.524 . S
C479 H482 0.999 . S
C480 H450 0.950 . S
C480 C479 1.524 . S
C480 C481 1.415 . S
C481 H451 0.950 . S
C481 C476 1.363 . S
C481 C480 1.415 . S
H482 C479 0.999 . S
H483 C464 0.913 . S
H484 C502 0.951 . S
H485 C504 0.951 . S
H486 C506 0.950 . S
H487 C507 0.950 . S
H488 C509 0.950 . S
H489 C512 0.950 . S
H490 C513 0.950 . S
H491 C515 0.950 . S
H492 C516 0.950 . S
H493 C517 0.951 . S
H494 C519 0.951 . S
H495 C521 0.950 . S
H496 C522 0.950 . S
H497 C524 0.950 . S
H498 C527 0.950 . S
H499 C528 0.950 . S
H500 C530 0.950 . S
H501 C531 0.950 . S
C502 H484 0.951 . S
C502 C503 1.366 . S
C502 C504 1.388 . S
C503 C502 1.366 . S
C503 C507 1.385 . S
C504 H485 0.951 . S
C504 C502 1.388 . S
C504 C505 1.366 . S
C505 C504 1.366 . S
C505 C506 1.414 . S
C505 C508 1.499 . S
C506 H486 0.950 . S
C506 C505 1.414 . S
C506 C507 1.374 . S
C507 H487 0.950 . S
C507 C503 1.385 . S
C507 C506 1.374 . S
C508 C505 1.499 . S
C508 C509 1.373 . S
C508 C510 1.389 . S
C509 H488 0.950 . S
C509 C508 1.373 . S
C509 C525 1.377 . S
C510 C508 1.389 . S
C510 C511 1.524 . S
C510 C524 1.377 . S
C511 C510 1.524 . S
C511 C512 1.397 . S
C511 C516 1.363 . S
C512 H489 0.950 . S
C512 C511 1.397 . S
C512 C513 1.334 . S
C513 H490 0.950 . S
C513 C512 1.334 . S
C513 C514 1.287 . S
C514 C513 1.287 . S
C514 C515 1.524 . S
C514 H533 0.913 . S
C515 H491 0.950 . S
C515 C514 1.524 . S
C515 C516 1.415 . S
C516 H492 0.950 . S
C516 C511 1.363 . S
C516 C515 1.415 . S
C517 H493 0.951 . S
C517 C518 1.366 . S
C517 C519 1.388 . S
C518 C517 1.366 . S
C518 C522 1.385 . S
C519 H494 0.951 . S
C519 C517 1.388 . S
C519 C520 1.366 . S
C520 C519 1.366 . S
C520 C521 1.414 . S
C520 C523 1.499 . S
C521 H495 0.950 . S
C521 C520 1.414 . S
C521 C522 1.374 . S
C522 H496 0.950 . S
C522 C518 1.385 . S
C522 C521 1.374 . S
C523 C520 1.499 . S
C523 C524 1.373 . S
C523 C525 1.389 . S
C524 H497 0.950 . S
C524 C510 1.377 . S
C524 C523 1.373 . S
C525 C509 1.377 . S
C525 C523 1.389 . S
C525 C526 1.524 . S
C526 C525 1.524 . S
C526 C527 1.397 . S
C526 C531 1.363 . S
C527 H498 0.950 . S
C527 C526 1.397 . S
C527 C528 1.334 . S
C528 H499 0.950 . S
C528 C527 1.334 . S
C528 C529 1.287 . S
C529 C528 1.287 . S
C529 C530 1.524 . S
C529 H532 0.999 . S
C530 H500 0.950 . S
C530 C529 1.524 . S
C530 C531 1.415 . S
C531 H501 0.950 . S
C531 C526 1.363 . S
C531 C530 1.415 . S
H532 C529 0.999 . S
H533 C514 0.913 . S
H534 C552 0.951 . S
H535 C554 0.951 . S
H536 C556 0.950 . S
H537 C557 0.950 . S
H538 C559 0.950 . S
H539 C562 0.950 . S
H540 C563 0.950 . S
H541 C565 0.950 . S
H542 C566 0.950 . S
H543 C567 0.951 . S
H544 C569 0.951 . S
H545 C571 0.950 . S
H546 C572 0.950 . S
H547 C574 0.950 . S
H548 C577 0.950 . S
H549 C578 0.950 . S
H550 C580 0.950 . S
H551 C581 0.950 . S
C552 H534 0.951 . S
C552 C553 1.366 . S
C552 C554 1.388 . S
C553 C552 1.366 . S
C553 C557 1.385 . S
C554 H535 0.951 . S
C554 C552 1.388 . S
C554 C555 1.366 . S
C555 C554 1.366 . S
C555 C556 1.414 . S
C555 C558 1.499 . S
C556 H536 0.950 . S
C556 C555 1.414 . S
C556 C557 1.374 . S
C557 H537 0.950 . S
C557 C553 1.385 . S
C557 C556 1.374 . S
C558 C555 1.499 . S
C558 C559 1.373 . S
C558 C560 1.389 . S
C559 H538 0.950 . S
C559 C558 1.373 . S
C559 C575 1.377 1_556 S
C560 C558 1.389 . S
C560 C561 1.524 . S
C560 C574 1.377 1_556 S
C561 C560 1.524 . S
C561 C562 1.397 . S
C561 C566 1.363 . S
C562 H539 0.950 . S
C562 C561 1.397 . S
C562 C563 1.334 . S
C563 H540 0.950 . S
C563 C562 1.334 . S
C563 C564 1.287 . S
C564 C563 1.287 . S
C564 C565 1.524 . S
C564 H583 0.913 . S
C565 H541 0.950 . S
C565 C564 1.524 . S
C565 C566 1.415 . S
C566 H542 0.950 . S
C566 C561 1.363 . S
C566 C565 1.415 . S
C567 H543 0.951 . S
C567 C568 1.366 . S
C567 C569 1.388 . S
C568 C567 1.366 . S
C568 C572 1.385 . S
C569 H544 0.951 . S
C569 C567 1.388 . S
C569 C570 1.366 . S
C570 C569 1.366 . S
C570 C571 1.414 . S
C570 C573 1.499 . S
C571 H545 0.950 . S
C571 C570 1.414 . S
C571 C572 1.374 . S
C572 H546 0.950 . S
C572 C568 1.385 . S
C572 C571 1.374 . S
C573 C570 1.499 . S
C573 C574 1.373 . S
C573 C575 1.389 . S
C574 H547 0.950 . S
C574 C560 1.377 1_554 S
C574 C573 1.373 . S
C575 C559 1.377 1_554 S
C575 C573 1.389 . S
C575 C576 1.524 . S
C576 C575 1.524 . S
C576 C577 1.397 . S
C576 C581 1.363 . S
C577 H548 0.950 . S
C577 C576 1.397 . S
C577 C578 1.334 . S
C578 H549 0.950 . S
C578 C577 1.334 . S
C578 C579 1.287 . S
C579 C578 1.287 . S
C579 C580 1.524 . S
C579 H582 0.999 . S
C580 H550 0.950 . S
C580 C579 1.524 . S
C580 C581 1.415 . S
C581 H551 0.950 . S
C581 C576 1.363 . S
C581 C580 1.415 . S
H582 C579 0.999 . S
H583 C564 0.913 . S
H584 C602 0.951 . S
H585 C604 0.951 . S
H586 C606 0.950 . S
H587 C607 0.950 . S
H588 C609 0.950 . S
H589 C612 0.950 . S
H590 C613 0.950 . S
H591 C615 0.950 . S
H592 C616 0.950 . S
H593 C617 0.951 . S
H594 C619 0.951 . S
H595 C621 0.950 . S
H596 C622 0.950 . S
H597 C624 0.950 . S
H598 C627 0.950 . S
H599 C628 0.950 . S
H600 C630 0.950 . S
H601 C631 0.950 . S
C602 H584 0.951 . S
C602 C603 1.366 . S
C602 C604 1.388 . S
C603 C602 1.366 . S
C603 C607 1.385 . S
C604 H585 0.951 . S
C604 C602 1.388 . S
C604 C605 1.366 . S
C605 C604 1.366 . S
C605 C606 1.414 . S
C605 C608 1.499 . S
C606 H586 0.950 . S
C606 C605 1.414 . S
C606 C607 1.374 . S
C607 H587 0.950 . S
C607 C603 1.385 . S
C607 C606 1.374 . S
C608 C605 1.499 . S
C608 C609 1.373 . S
C608 C610 1.389 . S
C609 H588 0.950 . S
C609 C608 1.373 . S
C609 C625 1.377 . S
C610 C608 1.389 . S
C610 C611 1.524 . S
C610 C624 1.377 . S
C611 C610 1.524 . S
C611 C612 1.397 . S
C611 C616 1.363 . S
C612 H589 0.950 . S
C612 C611 1.397 . S
C612 C613 1.334 . S
C613 H590 0.950 . S
C613 C612 1.334 . S
C613 C614 1.287 . S
C614 C613 1.287 . S
C614 C615 1.524 . S
C614 H633 0.913 . S
C615 H591 0.950 . S
C615 C614 1.524 . S
C615 C616 1.415 . S
C616 H592 0.950 . S
C616 C611 1.363 . S
C616 C615 1.415 . S
C617 H593 0.951 . S
C617 C618 1.366 . S
C617 C619 1.388 . S
C618 C617 1.366 . S
C618 C622 1.385 . S
C619 H594 0.951 . S
C619 C617 1.388 . S
C619 C620 1.366 . S
C620 C619 1.366 . S
C620 C621 1.414 . S
C620 C623 1.499 . S
C621 H595 0.950 . S
C621 C620 1.414 . S
C621 C622 1.374 . S
C622 H596 0.950 . S
C622 C618 1.385 . S
C622 C621 1.374 . S
C623 C620 1.499 . S
C623 C624 1.373 . S
C623 C625 1.389 . S
C624 H597 0.950 . S
C624 C610 1.377 . S
C624 C623 1.373 . S
C625 C609 1.377 . S
C625 C623 1.389 . S
C625 C626 1.524 . S
C626 C625 1.524 . S
C626 C627 1.397 . S
C626 C631 1.363 . S
C627 H598 0.950 . S
C627 C626 1.397 . S
C627 C628 1.334 . S
C628 H599 0.950 . S
C628 C627 1.334 . S
C628 C629 1.287 . S
C629 C628 1.287 . S
C629 C630 1.524 . S
C629 H632 0.999 . S
C630 H600 0.950 . S
C630 C629 1.524 . S
C630 C631 1.415 . S
C631 H601 0.950 . S
C631 C626 1.363 . S
C631 C630 1.415 . S
H632 C629 0.999 . S
H633 C614 0.913 . S
H634 C652 0.951 . S
H635 C654 0.951 . S
H636 C656 0.950 . S
H637 C657 0.950 . S
H638 C659 0.950 . S
H639 C662 0.950 . S
H640 C663 0.950 . S
H641 C665 0.950 . S
H642 C666 0.950 . S
H643 C667 0.951 . S
H644 C669 0.951 . S
H645 C671 0.950 . S
H646 C672 0.950 . S
H647 C674 0.950 . S
H648 C677 0.950 . S
H649 C678 0.950 . S
H650 C680 0.950 . S
H651 C681 0.950 . S
C652 H634 0.951 . S
C652 C653 1.366 . S
C652 C654 1.388 . S
C653 C652 1.366 . S
C653 C657 1.385 . S
C654 H635 0.951 . S
C654 C652 1.388 . S
C654 C655 1.366 . S
C655 C654 1.366 . S
C655 C656 1.414 . S
C655 C658 1.499 . S
C656 H636 0.950 . S
C656 C655 1.414 . S
C656 C657 1.374 . S
C657 H637 0.950 . S
C657 C653 1.385 . S
C657 C656 1.374 . S
C658 C655 1.499 . S
C658 C659 1.373 . S
C658 C660 1.389 . S
C659 H638 0.950 . S
C659 C658 1.373 . S
C659 C675 1.377 . S
C660 C658 1.389 . S
C660 C661 1.524 . S
C660 C674 1.377 . S
C661 C660 1.524 . S
C661 C662 1.397 . S
C661 C666 1.363 . S
C662 H639 0.950 . S
C662 C661 1.397 . S
C662 C663 1.334 . S
C663 H640 0.950 . S
C663 C662 1.334 . S
C663 C664 1.287 . S
C664 C663 1.287 . S
C664 C665 1.524 . S
C664 H683 0.913 . S
C665 H641 0.950 . S
C665 C664 1.524 . S
C665 C666 1.415 . S
C666 H642 0.950 . S
C666 C661 1.363 . S
C666 C665 1.415 . S
C667 H643 0.951 . S
C667 C668 1.366 . S
C667 C669 1.388 . S
C668 C667 1.366 . S
C668 C672 1.385 . S
C669 H644 0.951 . S
C669 C667 1.388 . S
C669 C670 1.366 . S
C670 C669 1.366 . S
C670 C671 1.414 . S
C670 C673 1.499 . S
C671 H645 0.950 . S
C671 C670 1.414 . S
C671 C672 1.374 . S
C672 H646 0.950 . S
C672 C668 1.385 . S
C672 C671 1.374 . S
C673 C670 1.499 . S
C673 C674 1.373 . S
C673 C675 1.389 . S
C674 H647 0.950 . S
C674 C660 1.377 . S
C674 C673 1.373 . S
C675 C659 1.377 . S
C675 C673 1.389 . S
C675 C676 1.524 . S
C676 C675 1.524 . S
C676 C677 1.397 . S
C676 C681 1.363 . S
C677 H648 0.950 . S
C677 C676 1.397 . S
C677 C678 1.334 . S
C678 H649 0.950 . S
C678 C677 1.334 . S
C678 C679 1.287 . S
C679 C678 1.287 . S
C679 C680 1.524 . S
C679 H682 0.999 . S
C680 H650 0.950 . S
C680 C679 1.524 . S
C680 C681 1.415 . S
C681 H651 0.950 . S
C681 C676 1.363 . S
C681 C680 1.415 . S
H682 C679 0.999 . S
H683 C664 0.913 . S
C103 C8 1.388 . S
C118 C50 1.388 . S
C153 C22 1.387 . S
C168 C64 1.387 . S
C203 C36 1.387 . S
C218 C78 1.387 . S
C253 C23 1.466 . S
C268 C65 1.466 . S
C303 C79 1.466 . S
C318 C37 1.467 . S
C353 C51 1.467 . S
C368 C9 1.467 . S
C403 C31 1.103 . S
C418 C7 1.122 . S
C453 C45 1.104 . S
C468 C21 1.122 . S
C503 C35 1.123 . S
C518 C59 1.105 . S
C553 C73 1.104 . S
C568 C49 1.122 . S
C603 C63 1.122 . S
C618 C3 1.104 . S
C653 C77 1.122 . S
C668 C17 1.103 . S
