# Generated by pormake.
# Topology fny, (5)-cn, num edge types: 1
# Building blocks:
#     Node 0, Type 0, BuildingBlock: XOMCOT_clean_sbu_1, # of connection points: 5
#     Node 1, Type 0, BuildingBlock: XOMCOT_clean_sbu_1, # of connection points: 5
#     Node 2, Type 0, BuildingBlock: XOMCOT_clean_sbu_1, # of connection points: 5
#     Node 3, Type 0, BuildingBlock: XOMCOT_clean_sbu_1, # of connection points: 5
#     Node 4, Type 0, BuildingBlock: XOMCOT_clean_sbu_1, # of connection points: 5
#     Node 5, Type 0, BuildingBlock: XOMCOT_clean_sbu_1, # of connection points: 5
#     Node 6, Type 0, BuildingBlock: XOMCOT_clean_sbu_1, # of connection points: 5
#     Node 7, Type 0, BuildingBlock: XOMCOT_clean_sbu_1, # of connection points: 5
#     Node 8, Type 0, BuildingBlock: XOMCOT_clean_sbu_1, # of connection points: 5
#     Node 9, Type 0, BuildingBlock: XOMCOT_clean_sbu_1, # of connection points: 5
#     Node 10, Type 0, BuildingBlock: XOMCOT_clean_sbu_1, # of connection points: 5
#     Node 11, Type 0, BuildingBlock: XOMCOT_clean_sbu_1, # of connection points: 5
#     Edge 12, Type (0, 0), BuildingBlock: AJUNOK_clean_linker_0, # of connection points: 2
#     Edge 13, Type (0, 0), BuildingBlock: AJUNOK_clean_linker_0, # of connection points: 2
#     Edge 14, Type (0, 0), BuildingBlock: AJUNOK_clean_linker_0, # of connection points: 2
#     Edge 15, Type (0, 0), BuildingBlock: AJUNOK_clean_linker_0, # of connection points: 2
#     Edge 16, Type (0, 0), BuildingBlock: AJUNOK_clean_linker_0, # of connection points: 2
#     Edge 17, Type (0, 0), BuildingBlock: AJUNOK_clean_linker_0, # of connection points: 2
#     Edge 18, Type (0, 0), BuildingBlock: AJUNOK_clean_linker_0, # of connection points: 2
#     Edge 19, Type (0, 0), BuildingBlock: AJUNOK_clean_linker_0, # of connection points: 2
#     Edge 20, Type (0, 0), BuildingBlock: AJUNOK_clean_linker_0, # of connection points: 2
#     Edge 21, Type (0, 0), BuildingBlock: AJUNOK_clean_linker_0, # of connection points: 2
#     Edge 22, Type (0, 0), BuildingBlock: AJUNOK_clean_linker_0, # of connection points: 2
#     Edge 23, Type (0, 0), BuildingBlock: AJUNOK_clean_linker_0, # of connection points: 2
#     Edge 24, Type (0, 0), BuildingBlock: AJUNOK_clean_linker_0, # of connection points: 2
#     Edge 25, Type (0, 0), BuildingBlock: AJUNOK_clean_linker_0, # of connection points: 2
#     Edge 26, Type (0, 0), BuildingBlock: AJUNOK_clean_linker_0, # of connection points: 2
#     Edge 27, Type (0, 0), BuildingBlock: AJUNOK_clean_linker_0, # of connection points: 2
#     Edge 28, Type (0, 0), BuildingBlock: AJUNOK_clean_linker_0, # of connection points: 2
#     Edge 29, Type (0, 0), BuildingBlock: AJUNOK_clean_linker_0, # of connection points: 2
#     Edge 30, Type (0, 0), BuildingBlock: AJUNOK_clean_linker_0, # of connection points: 2
#     Edge 31, Type (0, 0), BuildingBlock: AJUNOK_clean_linker_0, # of connection points: 2
#     Edge 32, Type (0, 0), BuildingBlock: AJUNOK_clean_linker_0, # of connection points: 2
#     Edge 33, Type (0, 0), BuildingBlock: AJUNOK_clean_linker_0, # of connection points: 2
#     Edge 34, Type (0, 0), BuildingBlock: AJUNOK_clean_linker_0, # of connection points: 2
#     Edge 35, Type (0, 0), BuildingBlock: AJUNOK_clean_linker_0, # of connection points: 2
#     Edge 36, Type (0, 0), BuildingBlock: AJUNOK_clean_linker_0, # of connection points: 2
#     Edge 37, Type (0, 0), BuildingBlock: AJUNOK_clean_linker_0, # of connection points: 2
#     Edge 38, Type (0, 0), BuildingBlock: AJUNOK_clean_linker_0, # of connection points: 2
#     Edge 39, Type (0, 0), BuildingBlock: AJUNOK_clean_linker_0, # of connection points: 2
#     Edge 40, Type (0, 0), BuildingBlock: AJUNOK_clean_linker_0, # of connection points: 2
#     Edge 41, Type (0, 0), BuildingBlock: AJUNOK_clean_linker_0, # of connection points: 2
# Relax obj value: 0.297
# Max RMSD: 0.208
# Mean RMSD: 0.208
data_MOF--net-fny--node1-XOMCOT_clean_sbu_1--edge1-AJUNOK_clean_linker_0
_symmetry_space_group_name_H-M    P1
_symmetry_Int_Tables_number       1
_symmetry_cell_setting            triclinic
loop_
_symmetry_equiv_pos_as_xyz
'x, y, z'
_cell_length_a     46.642068
_cell_length_b     46.769957
_cell_length_c     17.984892
_cell_angle_alpha  90.501515
_cell_angle_beta   89.57955
_cell_angle_gamma 119.88355
loop_
_atom_site_label
_atom_site_type_symbol
_atom_site_fract_x
_atom_site_fract_y
_atom_site_fract_z
_atom_type_partial_charge
C0 C 0.33659 0.48384 0.27394 0.0
C1 C 0.30934 0.47037 0.22842 0.0
N2 N 0.31433 0.49284 0.17653 0.0
N3 N 0.3592 0.51394 0.24851 0.0
C4 C 0.34395 0.51928 0.19146 0.0
H5 H 0.33958 0.4724 0.323 0.0
Co6 Co 0.40006 0.54057 0.29289 0.0
C7 C 0.41635 0.57466 0.14059 0.0
O8 O 0.40655 0.5459 0.10858 0.0
N9 N 0.43923 0.56516 0.33984 0.0
C10 C 0.48597 0.60152 0.3924 0.0
C11 C 0.46177 0.59741 0.34292 0.0
C12 C 0.45044 0.55024 0.38487 0.0
N13 N 0.47853 0.57167 0.41959 0.0
O14 O 0.37833 0.56071 0.35734 0.0
H15 H 0.45971 0.61667 0.31486 0.0
H16 H 0.43649 0.52411 0.39653 0.0
O17 O 0.41458 0.57618 0.21223 0.0
C18 C 0.3716 0.55113 0.42582 0.0
O19 O 0.38088 0.5305 0.4494 0.0
N20 N 0.42046 0.51845 0.24053 0.0
C21 C 0.45916 0.48774 0.21677 0.0
C22 C 0.47096 0.52076 0.19678 0.0
C23 C 0.45132 0.53558 0.20881 0.0
C24 C 0.40844 0.48602 0.25812 0.0
C25 C 0.427 0.47025 0.2459 0.0
H26 H 0.46243 0.56175 0.19917 0.0
H27 H 0.38581 0.47276 0.28898 0.0
H28 H 0.35389 0.54198 0.1609 0.0
H29 H 0.28763 0.44616 0.23305 0.0
H30 H 0.50528 0.62505 0.41321 0.0
H31 H 0.49581 0.53554 0.17511 0.0
H32 H 0.41708 0.44513 0.26483 0.0
C33 C 0.84242 0.30172 0.7671 0.0
C34 C 0.83384 0.28018 0.708 0.0
N35 N 0.83378 0.29627 0.64627 0.0
N36 N 0.84751 0.33097 0.74227 0.0
C37 C 0.84228 0.32703 0.66859 0.0
H38 H 0.84564 0.29677 0.82413 0.0
Co39 Co 0.86359 0.36848 0.79792 0.0
C40 C 0.86211 0.42161 0.70577 0.0
O41 O 0.89061 0.44221 0.73634 0.0
N42 N 0.88054 0.40642 0.85492 0.0
C43 C 0.90928 0.44827 0.93106 0.0
C44 C 0.91137 0.42818 0.87814 0.0
C45 C 0.86101 0.41545 0.89031 0.0
N46 N 0.87703 0.43828 0.94294 0.0
O47 O 0.82024 0.34843 0.85545 0.0
H48 H 0.93379 0.42837 0.86224 0.0
H49 H 0.83457 0.40236 0.88411 0.0
O50 O 0.84831 0.39058 0.72148 0.0
C51 C 0.82218 0.33993 0.92268 0.0
O52 O 0.8509 0.34405 0.9439 0.0
N53 N 0.9056 0.38351 0.75411 0.0
C54 C 0.97369 0.40769 0.7384 0.0
C55 C 0.95626 0.41553 0.68608 0.0
C56 C 0.92191 0.40283 0.69446 0.0
C57 C 0.92136 0.37259 0.7995 0.0
C58 C 0.95525 0.38464 0.79347 0.0
H59 H 0.90902 0.40935 0.65453 0.0
H60 H 0.90787 0.35647 0.84522 0.0
H61 H 0.84486 0.34635 0.63179 0.0
H62 H 0.82874 0.25495 0.71012 0.0
H63 H 0.92953 0.46542 0.96589 0.0
H64 H 0.96904 0.43178 0.64003 0.0
H65 H 0.96711 0.37742 0.8349 0.0
C66 C 0.55825 0.83006 0.288 0.0
C67 C 0.5746 0.82288 0.23315 0.0
N68 N 0.57361 0.83751 0.16979 0.0
N69 N 0.54649 0.84853 0.2583 0.0
C70 C 0.55759 0.85382 0.18779 0.0
H71 H 0.55165 0.81885 0.34235 0.0
Co72 Co 0.51134 0.85384 0.28802 0.0
C73 C 0.47164 0.84624 0.14682 0.0
O74 O 0.46659 0.86973 0.17247 0.0
N75 N 0.4758 0.85862 0.31444 0.0
C76 C 0.43973 0.87481 0.33973 0.0
C77 C 0.47275 0.88482 0.33383 0.0
C78 C 0.44465 0.83345 0.30801 0.0
N79 N 0.42173 0.84196 0.32532 0.0
O80 O 0.48974 0.80891 0.33738 0.0
H81 H 0.49293 0.90952 0.34354 0.0
H82 H 0.43884 0.80865 0.29344 0.0
O83 O 0.48913 0.8371 0.18515 0.0
C84 C 0.49195 0.81225 0.40914 0.0
O85 O 0.50529 0.84244 0.43564 0.0
N86 N 0.5354 0.89847 0.25881 0.0
C87 C 0.57409 0.96726 0.26111 0.0
C88 C 0.55733 0.95051 0.19609 0.0
C89 C 0.53852 0.91582 0.1955 0.0
C90 C 0.55273 0.91452 0.32091 0.0
C91 C 0.57196 0.94871 0.3235 0.0
H92 H 0.52691 0.90339 0.1444 0.0
H93 H 0.55065 0.90046 0.37008 0.0
H94 H 0.54908 0.8645 0.14643 0.0
H95 H 0.58209 0.80443 0.23675 0.0
H96 H 0.43006 0.89019 0.36008 0.0
H97 H 0.559 0.9641 0.14624 0.0
H98 H 0.5844 0.9606 0.37479 0.0
C99 C 0.76403 0.58301 0.81362 0.0
C100 C 0.7864 0.59876 0.75707 0.0
N101 N 0.77425 0.58091 0.69426 0.0
N102 N 0.73818 0.55524 0.78658 0.0
C103 C 0.74514 0.55456 0.71397 0.0
H104 H 0.76622 0.59141 0.8706 0.0
Co105 Co 0.70049 0.52727 0.83928 0.0
C106 C 0.65587 0.4695 0.73578 0.0
O107 O 0.63016 0.46499 0.77518 0.0
N108 N 0.66307 0.4998 0.89332 0.0
C109 C 0.62955 0.48256 0.99041 0.0
C110 C 0.64356 0.50655 0.93697 0.0
C111 C 0.65871 0.47091 0.91774 0.0
N112 N 0.64071 0.46113 0.98029 0.0
O113 O 0.72623 0.51083 0.8975 0.0
H114 H 0.64325 0.52947 0.93758 0.0
H115 H 0.6737 0.46067 0.89812 0.0
O116 O 0.68515 0.49257 0.75508 0.0
C117 C 0.73129 0.52277 0.96449 0.0
O118 O 0.72071 0.54339 0.98066 0.0
N119 N 0.67916 0.54785 0.79724 0.0
C120 C 0.65077 0.58706 0.77282 0.0
C121 C 0.64498 0.5613 0.72321 0.0
C122 C 0.65989 0.54205 0.73589 0.0
C123 C 0.68625 0.57378 0.84317 0.0
C124 C 0.672 0.59329 0.83286 0.0
H125 H 0.65564 0.52275 0.6969 0.0
H126 H 0.70203 0.57832 0.89074 0.0
H127 H 0.72945 0.53486 0.67641 0.0
H128 H 0.80967 0.62162 0.76167 0.0
H129 H 0.61688 0.48399 0.03978 0.0
H130 H 0.62894 0.55599 0.67566 0.0
H131 H 0.67661 0.61228 0.87361 0.0
C132 C 0.23149 0.72935 0.3067 0.0
C133 C 0.24678 0.7577 0.2646 0.0
N134 N 0.25187 0.74905 0.19657 0.0
N135 N 0.22649 0.7032 0.26437 0.0
C136 C 0.23935 0.71627 0.19783 0.0
H137 H 0.22478 0.72789 0.36481 0.0
Co138 Co 0.209 0.66007 0.2976 0.0
C139 C 0.21931 0.64143 0.1366 0.0
O140 O 0.19667 0.64769 0.11147 0.0
N141 N 0.1916 0.61777 0.33239 0.0
C142 C 0.17083 0.56392 0.34105 0.0
C143 C 0.19552 0.59241 0.30984 0.0
C144 C 0.16503 0.60438 0.37728 0.0
N145 N 0.15136 0.5714 0.38359 0.0
O146 O 0.24966 0.67584 0.36009 0.0
H147 H 0.21428 0.59415 0.27152 0.0
H148 H 0.15587 0.61908 0.4037 0.0
O149 O 0.22774 0.64696 0.20613 0.0
C150 C 0.24453 0.67898 0.42982 0.0
O151 O 0.21384 0.66733 0.45186 0.0
N152 N 0.16719 0.64664 0.25144 0.0
C153 C 0.09805 0.61778 0.25724 0.0
C154 C 0.11281 0.60103 0.22394 0.0
C155 C 0.14743 0.61599 0.22086 0.0
C156 C 0.1529 0.66388 0.27934 0.0
C157 C 0.1186 0.65011 0.28209 0.0
H158 H 0.15799 0.60122 0.20205 0.0
H159 H 0.1676 0.68691 0.30815 0.0
H160 H 0.24063 0.7027 0.15083 0.0
H161 H 0.25447 0.7826 0.28288 0.0
H162 H 0.16833 0.53978 0.33467 0.0
H163 H 0.09775 0.57591 0.20426 0.0
H164 H 0.10829 0.66369 0.30952 0.0
C165 C 0.50164 0.21744 0.80859 0.0
C166 C 0.48451 0.22703 0.76308 0.0
N167 N 0.49279 0.22475 0.69241 0.0
N168 N 0.52106 0.2099 0.7666 0.0
C169 C 0.51511 0.21448 0.69598 0.0
H170 H 0.49999 0.21599 0.86855 0.0
Co171 Co 0.54671 0.19404 0.80467 0.0
C172 C 0.60316 0.20908 0.69111 0.0
O173 O 0.60955 0.18809 0.72455 0.0
N174 N 0.57085 0.17703 0.84756 0.0
C175 C 0.60537 0.17087 0.92014 0.0
C176 C 0.602 0.19217 0.87365 0.0
C177 C 0.55594 0.14705 0.87945 0.0
N178 N 0.57594 0.14271 0.92539 0.0
O179 O 0.56998 0.23511 0.86727 0.0
H180 H 0.61992 0.21793 0.86536 0.0
H181 H 0.52949 0.13092 0.87997 0.0
O182 O 0.57955 0.21361 0.71595 0.0
C183 C 0.56086 0.23081 0.93622 0.0
O184 O 0.54146 0.20043 0.95871 0.0
N185 N 0.52013 0.15303 0.75481 0.0
C186 C 0.48119 0.08422 0.74181 0.0
C187 C 0.511 0.10169 0.70187 0.0
C188 C 0.53006 0.1362 0.70864 0.0
C189 C 0.48972 0.13675 0.78792 0.0
C190 C 0.4701 0.1025 0.7828 0.0
H191 H 0.55362 0.14854 0.68112 0.0
H192 H 0.48231 0.14982 0.82624 0.0
H193 H 0.52752 0.2112 0.64832 0.0
H194 H 0.46774 0.23555 0.78035 0.0
H195 H 0.62614 0.17777 0.95693 0.0
H196 H 0.52028 0.08866 0.66848 0.0
H197 H 0.44778 0.09038 0.81605 0.0
C198 C 0.55941 0.76629 0.76569 0.0
C199 C 0.57338 0.79206 0.81583 0.0
N200 N 0.55387 0.78335 0.87655 0.0
N201 N 0.53187 0.74105 0.7957 0.0
C202 C 0.52806 0.75339 0.86043 0.0
H203 H 0.56914 0.76597 0.71116 0.0
Co204 Co 0.50632 0.69837 0.75645 0.0
C205 C 0.4868 0.68015 0.92164 0.0
O206 O 0.51857 0.69698 0.93682 0.0
N207 N 0.4817 0.65671 0.71603 0.0
C208 C 0.45294 0.60223 0.72115 0.0
C209 C 0.45369 0.63092 0.74202 0.0
C210 C 0.49608 0.64324 0.67488 0.0
N211 N 0.48014 0.61011 0.68004 0.0
O212 O 0.4792 0.71404 0.70281 0.0
H213 H 0.43605 0.63281 0.77736 0.0
H214 H 0.51912 0.65801 0.64577 0.0
O215 O 0.47755 0.68085 0.85383 0.0
C216 C 0.48942 0.71999 0.63436 0.0
O217 O 0.51142 0.71179 0.61351 0.0
N218 N 0.53631 0.68513 0.79274 0.0
C219 C 0.57741 0.65728 0.7921 0.0
C220 C 0.54764 0.64264 0.8322 0.0
C221 C 0.52713 0.65646 0.83049 0.0
C222 C 0.56568 0.69996 0.75513 0.0
C223 C 0.58654 0.68662 0.75423 0.0
H224 H 0.50253 0.642 0.85294 0.0
H225 H 0.57132 0.71986 0.71768 0.0
H226 H 0.50696 0.74051 0.89629 0.0
H227 H 0.59609 0.81515 0.80796 0.0
H228 H 0.43426 0.57759 0.73671 0.0
H229 H 0.53924 0.61953 0.86091 0.0
H230 H 0.60829 0.69782 0.71898 0.0
C231 C 0.87545 0.58 0.35561 0.0
C232 C 0.86836 0.60028 0.39858 0.0
N233 N 0.83664 0.58273 0.42134 0.0
N234 N 0.84848 0.54964 0.35334 0.0
C235 C 0.82506 0.55249 0.39136 0.0
H236 H 0.8994 0.58635 0.33282 0.0
Co237 Co 0.84297 0.50937 0.32125 0.0
C238 C 0.83328 0.49722 0.49059 0.0
O239 O 0.84776 0.52883 0.50656 0.0
N240 N 0.83649 0.46889 0.29404 0.0
C241 C 0.83672 0.42168 0.29197 0.0
C242 C 0.84457 0.4494 0.33297 0.0
C243 C 0.82352 0.45255 0.23089 0.0
N244 N 0.82442 0.4243 0.22649 0.0
O245 O 0.79884 0.49783 0.27895 0.0
H246 H 0.85762 0.45605 0.38534 0.0
H247 H 0.81828 0.46352 0.18415 0.0
O248 O 0.82763 0.4882 0.42216 0.0
C249 C 0.80611 0.51149 0.21383 0.0
O250 O 0.83756 0.52995 0.19726 0.0
N251 N 0.88798 0.52332 0.34058 0.0
C252 C 0.95659 0.5519 0.32384 0.0
C253 C 0.94198 0.54461 0.39503 0.0
C254 C 0.90735 0.53033 0.4024 0.0
C255 C 0.90204 0.52892 0.27158 0.0
C256 C 0.93599 0.54307 0.26196 0.0
H257 H 0.89676 0.52589 0.45728 0.0
H258 H 0.88669 0.52296 0.22286 0.0
H259 H 0.80123 0.53149 0.40504 0.0
H260 H 0.88587 0.62506 0.41679 0.0
H261 H 0.84417 0.4037 0.30441 0.0
H262 H 0.95723 0.55094 0.44427 0.0
H263 H 0.94615 0.5477 0.20612 0.0
C264 C 0.29672 0.80663 0.79435 0.0
C265 C 0.27824 0.80041 0.85852 0.0
N266 N 0.29895 0.80925 0.91671 0.0
N267 N 0.32875 0.8188 0.81268 0.0
C268 C 0.32933 0.82118 0.8873 0.0
H269 H 0.28701 0.80065 0.73854 0.0
Co270 Co 0.36418 0.82634 0.75247 0.0
C271 C 0.41238 0.81536 0.84907 0.0
O272 O 0.42875 0.81411 0.79074 0.0
N273 N 0.40033 0.83447 0.69075 0.0
C274 C 0.43695 0.86064 0.60145 0.0
C275 C 0.42634 0.86382 0.67056 0.0
C276 C 0.39905 0.81356 0.63722 0.0
N277 N 0.41776 0.82929 0.57854 0.0
O278 O 0.33831 0.77945 0.71416 0.0
H279 H 0.43426 0.88721 0.69762 0.0
H280 H 0.38123 0.78767 0.63451 0.0
O281 O 0.38602 0.81728 0.83945 0.0
C282 C 0.3242 0.77934 0.65211 0.0
O283 O 0.32786 0.80766 0.62986 0.0
N284 N 0.38452 0.87143 0.77732 0.0
C285 C 0.41336 0.94025 0.77554 0.0
C286 C 0.42232 0.92454 0.82979 0.0
C287 C 0.40743 0.88988 0.83007 0.0
C288 C 0.37468 0.88619 0.72653 0.0
C289 C 0.38902 0.92036 0.7239 0.0
H290 H 0.41521 0.87824 0.87057 0.0
H291 H 0.35668 0.87122 0.68493 0.0
H292 H 0.35134 0.82945 0.9204 0.0
H293 H 0.25152 0.78765 0.86232 0.0
H294 H 0.45267 0.881 0.56538 0.0
H295 H 0.44097 0.93893 0.87088 0.0
H296 H 0.38188 0.93108 0.67967 0.0
C297 C 0.51106 0.31105 0.31986 0.0
C298 C 0.48657 0.2894 0.36715 0.0
N299 N 0.50071 0.29128 0.43312 0.0
N300 N 0.54024 0.32571 0.35646 0.0
C301 C 0.53303 0.313 0.42502 0.0
H302 H 0.50785 0.31517 0.26233 0.0
Co303 Co 0.58271 0.3538 0.32414 0.0
C304 C 0.61144 0.40921 0.43965 0.0
O305 O 0.62027 0.43035 0.38473 0.0
N306 N 0.62639 0.37965 0.2929 0.0
C307 C 0.68082 0.41253 0.28168 0.0
C308 C 0.65509 0.39616 0.33108 0.0
C309 C 0.63618 0.38292 0.22188 0.0
N310 N 0.66851 0.40405 0.2126 0.0
O311 O 0.57233 0.32735 0.2264 0.0
H312 H 0.65738 0.39744 0.39086 0.0
H313 H 0.61949 0.37332 0.17553 0.0
O314 O 0.59513 0.37805 0.42444 0.0
C315 C 0.55942 0.32306 0.16111 0.0
O316 O 0.54406 0.33907 0.1431 0.0
N317 N 0.5681 0.38466 0.28886 0.0
C318 C 0.53879 0.42321 0.25092 0.0
C319 C 0.5336 0.40849 0.32051 0.0
C320 C 0.54833 0.38967 0.33827 0.0
C321 C 0.57482 0.40051 0.22164 0.0
C322 C 0.56009 0.41945 0.2013 0.0
H323 H 0.54313 0.37862 0.39271 0.0
H324 H 0.59063 0.39807 0.18155 0.0
H325 H 0.55145 0.31826 0.46733 0.0
H326 H 0.46082 0.27294 0.3538 0.0
H327 H 0.7058 0.43145 0.29517 0.0
H328 H 0.51759 0.41096 0.36088 0.0
H329 H 0.56506 0.43071 0.14688 0.0
C330 C 0.26211 0.49786 0.7732 0.0
C331 C 0.27152 0.48519 0.83098 0.0
N332 N 0.26004 0.49119 0.89477 0.0
N333 N 0.24538 0.51212 0.80124 0.0
C334 C 0.24402 0.50709 0.87487 0.0
H335 H 0.26824 0.49788 0.7151 0.0
Co336 Co 0.22955 0.53566 0.75265 0.0
C337 C 0.25997 0.59317 0.87422 0.0
O338 O 0.28708 0.61344 0.83806 0.0
N339 N 0.2126 0.55814 0.70392 0.0
C340 C 0.18578 0.58506 0.68185 0.0
C341 C 0.21172 0.58585 0.71989 0.0
C342 C 0.18763 0.54133 0.65632 0.0
N343 N 0.17003 0.55641 0.64326 0.0
O344 O 0.27387 0.56177 0.70012 0.0
H345 H 0.2273 0.60434 0.75992 0.0
H346 H 0.18145 0.5172 0.63578 0.0
O347 O 0.23958 0.56547 0.84355 0.0
C348 C 0.27334 0.55391 0.63047 0.0
O349 O 0.24446 0.53367 0.60103 0.0
N350 N 0.18642 0.5076 0.79104 0.0
C351 C 0.11728 0.47206 0.78254 0.0
C352 C 0.13359 0.5015 0.82395 0.0
C353 C 0.1682 0.51906 0.82717 0.0
C354 C 0.17093 0.47722 0.758 0.0
C355 C 0.13638 0.4591 0.75282 0.0
H356 H 0.18003 0.54347 0.85134 0.0
H357 H 0.18546 0.46874 0.7278 0.0
H358 H 0.2324 0.51588 0.9138 0.0
H359 H 0.28734 0.47444 0.82681 0.0
H360 H 0.1794 0.60431 0.68304 0.0
H361 H 0.11986 0.51194 0.85005 0.0
H362 H 0.12496 0.4364 0.72082 0.0
C363 C 0.75961 0.23481 0.25112 0.0
C364 C 0.78757 0.24586 0.29409 0.0
N365 N 0.7818 0.25669 0.35857 0.0
N366 N 0.73603 0.23731 0.29026 0.0
C367 C 0.75129 0.25254 0.35372 0.0
H368 H 0.75651 0.225 0.19525 0.0
Co369 Co 0.6931 0.2239 0.25837 0.0
C370 C 0.67911 0.22796 0.4238 0.0
O371 O 0.69138 0.20866 0.43776 0.0
N372 N 0.65106 0.21087 0.22516 0.0
C373 C 0.59658 0.18896 0.23173 0.0
C374 C 0.62654 0.21464 0.25532 0.0
C375 C 0.63577 0.1842 0.18136 0.0
N376 N 0.60263 0.1692 0.18724 0.0
O377 O 0.71186 0.26711 0.20671 0.0
H378 H 0.62986 0.23307 0.29633 0.0
H379 H 0.64918 0.17492 0.14954 0.0
O380 O 0.68058 0.23837 0.35663 0.0
C381 C 0.71555 0.26385 0.13626 0.0
O382 O 0.70097 0.23385 0.10847 0.0
N383 N 0.67667 0.17973 0.29449 0.0
C384 C 0.64565 0.11049 0.29736 0.0
C385 C 0.63186 0.12713 0.33532 0.0
C386 C 0.64762 0.16169 0.33298 0.0
C387 C 0.69029 0.16356 0.25814 0.0
C388 C 0.67559 0.12929 0.25972 0.0
H389 H 0.63479 0.17346 0.35673 0.0
H390 H 0.71082 0.17665 0.22097 0.0
H391 H 0.74075 0.26062 0.39676 0.0
H392 H 0.80968 0.24482 0.28049 0.0
H393 H 0.57235 0.1847 0.24772 0.0
H394 H 0.60833 0.11349 0.36376 0.0
H395 H 0.68636 0.1175 0.22679 0.0
C396 C 0.4614 0.63234 0.10626 0.0
C397 C 0.43041 0.60463 0.09139 0.0
C398 C 0.47804 0.65737 0.05267 0.0
C399 C 0.46453 0.65634 0.9814 0.0
H400 H 0.47388 0.63375 0.15788 0.0
H401 H 0.50258 0.6771 0.06657 0.0
S402 S 0.38062 0.59201 0.92125 0.0
N403 N 0.38491 0.57948 1.00389 0.0
N404 N 0.41516 0.62707 0.90578 0.0
C405 C 0.43216 0.63011 0.96892 0.0
C406 C 0.41551 0.6042 1.02292 0.0
C407 C 0.85598 0.46959 0.66872 0.0
C408 C 0.84754 0.43655 0.65531 0.0
C409 C 0.84891 0.48776 0.6177 0.0
C410 C 0.83311 0.47415 0.54944 0.0
H411 H 0.86948 0.48222 0.71848 0.0
H412 H 0.85761 0.51343 0.63084 0.0
S413 S 0.80001 0.38654 0.4926 0.0
N414 N 0.81862 0.38951 0.57252 0.0
N415 N 0.80444 0.42333 0.47696 0.0
C416 C 0.82185 0.44015 0.53789 0.0
C417 C 0.82924 0.42149 0.59052 0.0
C418 C 0.42278 0.82195 0.06178 0.0
C419 C 0.45639 0.83182 0.07291 0.0
C420 C 0.40871 0.81596 0.99015 0.0
C421 C 0.42725 0.81909 0.92558 0.0
H422 H 0.40747 0.82033 0.10898 0.0
H423 H 0.38336 0.81007 0.98533 0.0
S424 S 0.51757 0.8485 0.92297 0.0
N425 N 0.50863 0.84747 1.01229 0.0
N426 N 0.48227 0.83489 0.87839 0.0
C427 C 0.46102 0.82875 0.93602 0.0
C428 C 0.47548 0.83537 1.00921 0.0
C429 C 0.65179 0.45462 0.5254 0.0
C430 C 0.62437 0.4224 0.51659 0.0
C431 C 0.66373 0.46887 0.5962 0.0
C432 C 0.64859 0.45178 0.66201 0.0
H433 H 0.66398 0.46941 0.47692 0.0
H434 H 0.68378 0.49412 0.59915 0.0
S435 S 0.57747 0.3661 0.67138 0.0
N436 N 0.58387 0.37328 0.5813 0.0
N437 N 0.60555 0.40004 0.71353 0.0
C438 C 0.62189 0.41916 0.65414 0.0
C439 C 0.61005 0.40449 0.582 0.0
C440 C 0.2594 0.64971 1.03221 0.0
C441 C 0.23422 0.62819 0.08106 0.0
C442 C 0.26824 0.63807 0.96779 0.0
C443 C 0.25172 0.60426 0.94738 0.0
H444 H 0.27143 0.67601 0.04213 0.0
H445 H 0.28736 0.65608 0.93197 0.0
S446 S 0.18404 0.53742 0.05757 0.0
N447 N 0.19322 0.57128 0.1051 0.0
N448 N 0.20934 0.54937 0.98529 0.0
C449 C 0.22688 0.58243 0.99699 0.0
C450 C 0.21822 0.59436 0.06299 0.0
C451 C 0.62713 0.22265 0.48468 0.0
C452 C 0.6615 0.23413 0.48707 0.0
C453 C 0.60829 0.21801 0.55074 0.0
C454 C 0.62309 0.22471 0.62181 0.0
H455 H 0.61418 0.21441 0.43226 0.0
H456 H 0.58165 0.20643 0.54644 0.0
S457 S 0.71263 0.25866 0.65791 0.0
N458 N 0.70959 0.25474 0.56654 0.0
N459 N 0.67481 0.24627 0.68882 0.0
C460 C 0.65772 0.23849 0.6239 0.0
C461 C 0.67669 0.24311 0.55729 0.0
C462 C 0.67512 0.4538 0.16088 0.0
C463 C 0.6774 0.42525 0.15025 0.0
C464 C 0.66122 0.46418 0.10676 0.0
C465 C 0.65037 0.44717 0.03877 0.0
H466 H 0.68013 0.46566 0.21498 0.0
H467 H 0.6591 0.48578 0.11848 0.0
S468 S 0.65676 0.37451 0.97923 0.0
N469 N 0.67234 0.38297 0.06401 0.0
N470 N 0.64635 0.40267 0.96059 0.0
C471 C 0.65571 0.42062 1.02461 0.0
C472 C 0.67017 0.4103 0.07979 0.0
C473 C 0.13044 0.5234 0.46368 0.0
C474 C 0.12913 0.55149 0.44205 0.0
C475 C 0.13879 0.52115 0.53688 0.0
C476 C 0.14409 0.54613 0.58886 0.0
H477 H 0.13201 0.5072 0.42256 0.0
H478 H 0.14538 0.50256 0.54856 0.0
S479 S 0.10885 0.6013 0.57013 0.0
N480 N 0.10816 0.58723 0.48514 0.0
N481 N 0.12463 0.58412 0.62383 0.0
C482 C 0.12957 0.56541 0.57288 0.0
C483 C 0.12069 0.56707 0.49838 0.0
C484 C 0.5524 0.142 0.11341 0.0
C485 C 0.57971 0.14138 0.14358 0.0
C486 C 0.54432 0.13337 0.03895 0.0
C487 C 0.56451 0.12556 0.99433 0.0
H488 H 0.54152 0.15483 0.14171 0.0
H489 H 0.52734 0.13983 1.01371 0.0
S490 S 0.62153 0.09866 0.0631 0.0
N491 N 0.61259 0.1141 0.13686 0.0
N492 N 0.60028 0.10179 0.99359 0.0
C493 C 0.58392 0.11492 1.03013 0.0
C494 C 0.59083 0.12198 0.1068 0.0
C495 C 0.461 0.55787 0.61423 0.0
C496 C 0.48742 0.58821 0.63793 0.0
C497 C 0.461 0.54675 0.54216 0.0
C498 C 0.48702 0.56653 0.49292 0.0
H499 H 0.43809 0.54569 0.64534 0.0
H500 H 0.43795 0.52649 0.52207 0.0
S501 S 0.57014 0.63227 0.54933 0.0
N502 N 0.54675 0.62549 0.62389 0.0
N503 N 0.54569 0.60617 0.48506 0.0
C504 C 0.51706 0.59002 0.52432 0.0
C505 C 0.51744 0.60066 0.59857 0.0
C506 C 0.8649 0.42246 0.14609 0.0
C507 C 0.83223 0.41541 0.15681 0.0
C508 C 0.87978 0.43161 0.07695 0.0
C509 C 0.86251 0.43378 1.01538 0.0
H510 H 0.88016 0.42403 0.19276 0.0
H511 H 0.90508 0.43689 0.07237 0.0
S512 S 0.77381 0.41072 1.01334 0.0
N513 N 0.7811 0.40525 0.10019 0.0
N514 N 0.80928 0.42407 0.96879 0.0
C515 C 0.82879 0.42403 1.02448 0.0
C516 C 0.81346 0.41372 0.095 0.0
C517 C 0.38895 0.7915 0.39112 0.0
C518 C 0.39 0.81937 0.35821 0.0
C519 C 0.3999 0.79505 0.46498 0.0
C520 C 0.40251 0.82159 0.50731 0.0
H521 H 0.39015 0.77304 0.35662 0.0
H522 H 0.40761 0.77853 0.48738 0.0
S523 S 0.36397 0.87163 0.45748 0.0
N524 N 0.3643 0.85288 0.37927 0.0
N525 N 0.38068 0.85935 0.52154 0.0
C526 C 0.38677 0.83851 0.48021 0.0
C527 C 0.37723 0.83447 0.40456 0.0
C528 C 0.27788 0.51498 1.01945 0.0
C529 C 0.26943 0.48877 0.96916 0.0
C530 C 0.29066 0.51513 0.08936 0.0
C531 C 0.29513 0.48898 0.11172 0.0
H532 H 0.2762 0.53635 1.00333 0.0
H533 H 0.29836 0.53642 0.12526 0.0
S534 S 0.27438 0.4134 1.00332 0.0
N535 N 0.26425 0.43504 0.94822 0.0
N536 N 0.28868 0.43544 0.08035 0.0
C537 C 0.28525 0.46185 0.0637 0.0
C538 C 0.27242 0.46179 0.99205 0.0
C539 C 0.84023 0.30385 0.51063 0.0
C540 C 0.8245 0.2834 0.57224 0.0
C541 C 0.82785 0.29388 0.43857 0.0
C542 C 0.79955 0.26323 0.42656 0.0
H543 H 0.86135 0.32824 0.51871 0.0
H544 H 0.83904 0.31091 0.39289 0.0
S545 S 0.75051 0.19988 0.56697 0.0
N546 N 0.77999 0.23051 0.61515 0.0
N547 N 0.75742 0.21167 0.4793 0.0
C548 C 0.78493 0.2418 0.48659 0.0
C549 C 0.79727 0.25189 0.55973 0.0
C550 C 0.53824 0.80342 0.06897 0.0
C551 C 0.57014 0.82331 0.09738 0.0
C552 C 0.53337 0.79181 0.99613 0.0
C553 C 0.56023 0.79897 0.94874 0.0
H554 H 0.5168 0.79748 0.10325 0.0
H555 H 0.50817 0.7774 0.97681 0.0
S556 S 0.64907 0.84853 0.99997 0.0
N557 N 0.62905 0.84938 0.07539 0.0
N558 N 0.62038 0.82612 0.93808 0.0
C559 C 0.59252 0.81843 0.97735 0.0
C560 C 0.59735 0.83076 0.05194 0.0
C561 C 0.82484 0.60029 0.61867 0.0
C562 C 0.79035 0.58682 0.62286 0.0
C563 C 0.84044 0.60151 0.55096 0.0
C564 C 0.82206 0.58928 0.48515 0.0
H565 H 0.83964 0.60804 0.66872 0.0
H566 H 0.86665 0.60984 0.55114 0.0
S567 S 0.73219 0.55707 0.46365 0.0
N568 N 0.73906 0.56547 0.55331 0.0
N569 N 0.76845 0.56706 0.42639 0.0
C570 C 0.78802 0.57806 0.48758 0.0
C571 C 0.77213 0.57697 0.55633 0.0
C572 C 0.2573 0.78977 0.10358 0.0
C573 C 0.26843 0.76948 0.13407 0.0
C574 C 0.26793 0.80357 1.03266 0.0
C575 C 0.28993 0.79737 0.99117 0.0
H576 H 0.23897 0.79338 0.13286 0.0
H577 H 0.25835 0.81836 1.00921 0.0
S578 S 0.3263 0.74624 0.0481 0.0
N579 N 0.30386 0.74554 0.12012 0.0
N580 N 0.32167 0.76906 0.98513 0.0
C581 C 0.30165 0.77773 1.02226 0.0
C582 C 0.29154 0.7645 0.09442 0.0
C583 C 0.48802 0.26863 0.63096 0.0
C584 C 0.48513 0.23728 0.62795 0.0
C585 C 0.48934 0.28515 0.56566 0.0
C586 C 0.48713 0.2705 0.49605 0.0
H587 H 0.49239 0.28163 0.68346 0.0
H588 H 0.49499 0.31057 0.56908 0.0
S589 S 0.47391 0.1869 0.45928 0.0
N590 N 0.47585 0.19056 0.55084 0.0
N591 N 0.47815 0.22186 0.42757 0.0
C592 C 0.48083 0.23797 0.49262 0.0
C593 C 0.47994 0.22127 0.55894 0.0
C594 C 0.74003 0.51802 0.10196 0.0
C595 C 0.7471 0.51392 1.0269 0.0
C596 C 0.75651 0.51374 0.16312 0.0
C597 C 0.78203 0.50645 0.15243 0.0
H598 H 0.72198 0.52556 0.11395 0.0
H599 H 0.75075 0.51847 0.21875 0.0
S600 S 0.81311 0.49661 0.96788 0.0
N601 N 0.78235 0.50293 0.94665 0.0
N602 N 0.81465 0.49683 0.05964 0.0
C603 C 0.78944 0.50231 0.07764 0.0
C604 C 0.77182 0.50559 1.0156 0.0
C605 C 0.29448 0.73358 0.46489 0.0
C606 C 0.27104 0.7011 0.48442 0.0
C607 C 0.31241 0.75781 0.5197 0.0
C608 C 0.30885 0.75091 0.59696 0.0
H609 H 0.29705 0.74112 0.4073 0.0
H610 H 0.32809 0.78278 0.50111 0.0
S611 S 0.25239 0.66924 0.67799 0.0
N612 N 0.24614 0.66304 0.58749 0.0
N613 N 0.28107 0.70827 0.68893 0.0
C614 C 0.28711 0.71809 0.61698 0.0
C615 C 0.26802 0.69344 0.56131 0.0
C616 C 0.56654 0.27435 0.12226 0.0
C617 C 0.56388 0.30202 0.1025 0.0
C618 C 0.56759 0.2528 0.06781 0.0
C619 C 0.56697 0.25816 0.99054 0.0
H620 H 0.56638 0.26842 0.18039 0.0
H621 H 0.56791 0.23102 0.0867 0.0
S622 S 0.56388 0.32901 0.9082 0.0
N623 N 0.56318 0.33482 0.99881 0.0
N624 N 0.5658 0.29486 0.89781 0.0
C625 C 0.56627 0.28676 0.96993 0.0
C626 C 0.56453 0.30841 1.02535 0.0
C627 C 0.32523 0.56432 0.45401 0.0
C628 C 0.35115 0.55959 0.47905 0.0
C629 C 0.30189 0.56514 0.50418 0.0
C630 C 0.30346 0.56208 0.58241 0.0
H631 H 0.32159 0.56524 0.39487 0.0
H632 H 0.28133 0.56665 0.48091 0.0
S633 S 0.36766 0.55173 0.67822 0.0
N634 N 0.37775 0.55375 0.5894 0.0
N635 N 0.33458 0.55592 0.68169 0.0
C636 C 0.33038 0.55946 0.60841 0.0
C637 C 0.35386 0.55803 0.55749 0.0
C638 C 0.73491 0.29022 1.00967 0.0
C639 C 0.74107 0.29059 0.08693 0.0
C640 C 0.76056 0.30791 0.95714 0.0
C641 C 0.79396 0.32615 0.9789 0.0
H642 H 0.71005 0.27463 0.98898 0.0
H643 H 0.75435 0.3055 0.89866 0.0
S644 S 0.8236 0.33655 0.17475 0.0
N645 N 0.78317 0.31258 0.1821 0.0
N646 N 0.83119 0.34487 0.08532 0.0
C647 C 0.8002 0.32797 0.05657 0.0
C648 C 0.77396 0.31053 0.10989 0.0
C649 C 0.48483 0.75607 0.4457 0.0
C650 C 0.48366 0.78473 0.4648 0.0
C651 C 0.48399 0.73407 0.50087 0.0
C652 C 0.48144 0.73911 0.57819 0.0
H653 H 0.48848 0.75158 0.38817 0.0
H654 H 0.48695 0.71354 0.48274 0.0
S655 S 0.47479 0.80877 0.65838 0.0
N656 N 0.47746 0.81545 0.56793 0.0
N657 N 0.47579 0.77428 0.66944 0.0
C658 C 0.47813 0.76646 0.59761 0.0
C659 C 0.47931 0.78909 0.54173 0.0
C660 C 0.51276 0.48904 0.2484 0.0
C661 C 0.48111 0.4725 0.21545 0.0
C662 C 0.53201 0.47359 0.25672 0.0
C663 C 0.52074 0.44115 0.23121 0.0
H664 H 0.52214 0.51361 0.27117 0.0
H665 H 0.55545 0.48675 0.28543 0.0
S666 S 0.44102 0.38769 0.1364 0.0
N667 N 0.44042 0.42214 0.15377 0.0
N668 N 0.47658 0.39353 0.16903 0.0
C669 C 0.48982 0.42481 0.19577 0.0
C670 C 0.47007 0.44034 0.18795 0.0
C671 C 0.06065 0.42158 0.77209 0.0
C672 C 0.08099 0.45599 0.76655 0.0
C673 C 1.02642 0.40611 0.75918 0.0
C674 C 1.0108 0.42429 0.74022 0.0
H675 H 0.07111 0.40646 0.78829 0.0
H676 H 1.01195 0.3796 0.76546 0.0
S677 S 0.05353 0.51487 0.71084 0.0
N678 N 0.08346 0.50751 0.73354 0.0
N679 N 1.01915 0.47877 0.71271 0.0
C680 C 1.03111 0.45863 0.73159 0.0
C681 C 0.06607 0.47436 0.74418 0.0
C682 C 0.59438 0.05683 0.26638 0.0
C683 C 0.62758 0.07383 0.29004 0.0
C684 C 0.57762 1.02254 0.254 0.0
C685 C 0.59325 1.0039 0.26604 0.0
H686 H 0.58136 0.07019 0.25637 0.0
H687 H 0.552 1.01042 0.23665 0.0
S688 S 0.67962 0.03626 0.32895 0.0
N689 N 0.67527 0.06917 0.32534 0.0
N690 N 0.64375 1.00488 0.30277 0.0
C691 C 0.62635 1.02054 0.28982 0.0
C692 C 0.64349 0.05541 0.30165 0.0
C693 C 0.58078 0.60607 0.76844 0.0
C694 C 0.59697 0.64024 0.78315 0.0
C695 C 0.59852 0.58927 0.76061 0.0
C696 C 0.63315 0.60603 0.76698 0.0
H697 H 0.55411 0.59208 0.76331 0.0
H698 H 0.58492 0.56278 0.75254 0.0
S699 S 0.68765 0.69585 0.79889 0.0
N700 N 0.64985 0.69038 0.80072 0.0
N701 N 0.68323 0.65908 0.78262 0.0
C702 C 0.64976 0.64042 0.77809 0.0
C703 C 0.6317 0.65744 0.78698 0.0
C704 C 0.04626 0.57121 0.31329 0.0
C705 C 0.06182 0.60095 0.27296 0.0
C706 C 1.01249 0.55603 0.33269 0.0
C707 C 0.99306 0.5699 0.31179 0.0
H708 H 0.06041 0.55982 0.33075 0.0
H709 H 1.00135 0.53293 0.36263 0.0
S710 S 1.02188 0.64751 0.20678 0.0
N711 N 0.05512 0.64372 0.21384 0.0
N712 N 0.99194 0.61525 0.2497 0.0
C713 C 1.00842 0.5997 0.27205 0.0
C714 C 0.04268 0.61521 0.25286 0.0
C715 C 0.4648 0.99643 0.77237 0.0
C716 C 0.43007 0.97708 0.76959 0.0
C717 C 0.48109 0.03078 0.76131 0.0
C718 C 0.46338 0.04733 0.74713 0.0
H719 H 0.47961 0.98488 0.78197 0.0
H720 H 0.50781 0.04456 0.76524 0.0
S721 S 0.37202 1.00822 0.73491 0.0
N722 N 0.37849 0.9774 0.75352 0.0
N723 N 0.40902 0.04138 0.72992 0.0
C724 C 0.42865 0.02824 0.74413 0.0
C725 C 0.41207 0.99337 0.75597 0.0
loop_
_geom_bond_atom_site_label_1
_geom_bond_atom_site_label_2
_geom_bond_distance
_geom_bond_site_symmetry_2
_ccdc_geom_bond_type
C0 C1 1.351 . S
C0 N3 1.368 . S
C0 H5 0.931 . S
C1 C0 1.351 . S
C1 N2 1.373 . S
C1 H29 0.930 . S
N2 C1 1.373 . S
N2 C4 1.340 . S
N3 C0 1.368 . S
N3 C4 1.321 . S
N3 Co6 2.135 . S
C4 N2 1.340 . S
C4 N3 1.321 . S
C4 H28 0.930 . S
H5 C0 0.931 . S
Co6 N3 2.135 . S
Co6 N9 2.121 . S
Co6 O14 2.055 . S
Co6 O17 2.039 . S
Co6 N20 2.140 . S
C7 O8 1.227 . S
C7 O17 1.265 . S
O8 C7 1.227 . S
N9 Co6 2.121 . S
N9 C11 1.375 . S
N9 C12 1.313 . S
C10 C11 1.338 . S
C10 N13 1.377 . S
C10 H30 0.930 . S
C11 N9 1.375 . S
C11 C10 1.338 . S
C11 H15 0.931 . S
C12 N9 1.313 . S
C12 N13 1.344 . S
C12 H16 0.930 . S
N13 C10 1.377 . S
N13 C12 1.344 . S
O14 Co6 2.055 . S
O14 C18 1.253 . S
H15 C11 0.931 . S
H16 C12 0.930 . S
O17 Co6 2.039 . S
O17 C7 1.265 . S
C18 O14 1.253 . S
C18 O19 1.227 . S
O19 C18 1.227 . S
N20 Co6 2.140 . S
N20 C23 1.346 . S
N20 C24 1.345 . S
C21 C22 1.387 . S
C21 C25 1.391 . S
C22 C21 1.387 . S
C22 C23 1.369 . S
C22 H31 0.929 . S
C23 N20 1.346 . S
C23 C22 1.369 . S
C23 H26 0.928 . S
C24 N20 1.345 . S
C24 C25 1.371 . S
C24 H27 0.931 . S
C25 C21 1.391 . S
C25 C24 1.371 . S
C25 H32 0.930 . S
H26 C23 0.928 . S
H27 C24 0.931 . S
H28 C4 0.930 . S
H29 C1 0.930 . S
H30 C10 0.930 . S
H31 C22 0.929 . S
H32 C25 0.930 . S
C33 C34 1.351 . S
C33 N36 1.368 . S
C33 H38 0.931 . S
C34 C33 1.351 . S
C34 N35 1.373 . S
C34 H62 0.930 . S
N35 C34 1.373 . S
N35 C37 1.340 . S
N36 C33 1.368 . S
N36 C37 1.321 . S
N36 Co39 2.135 . S
C37 N35 1.340 . S
C37 N36 1.321 . S
C37 H61 0.930 . S
H38 C33 0.931 . S
Co39 N36 2.135 . S
Co39 N42 2.121 . S
Co39 O47 2.055 . S
Co39 O50 2.039 . S
Co39 N53 2.140 . S
C40 O41 1.227 . S
C40 O50 1.265 . S
O41 C40 1.227 . S
N42 Co39 2.121 . S
N42 C44 1.375 . S
N42 C45 1.313 . S
C43 C44 1.338 . S
C43 N46 1.377 . S
C43 H63 0.930 . S
C44 N42 1.375 . S
C44 C43 1.338 . S
C44 H48 0.931 . S
C45 N42 1.313 . S
C45 N46 1.344 . S
C45 H49 0.930 . S
N46 C43 1.377 . S
N46 C45 1.344 . S
O47 Co39 2.055 . S
O47 C51 1.253 . S
H48 C44 0.931 . S
H49 C45 0.930 . S
O50 Co39 2.039 . S
O50 C40 1.265 . S
C51 O47 1.253 . S
C51 O52 1.227 . S
O52 C51 1.227 . S
N53 Co39 2.140 . S
N53 C56 1.346 . S
N53 C57 1.345 . S
C54 C55 1.387 . S
C54 C58 1.391 . S
C55 C54 1.387 . S
C55 C56 1.369 . S
C55 H64 0.929 . S
C56 N53 1.346 . S
C56 C55 1.369 . S
C56 H59 0.928 . S
C57 N53 1.345 . S
C57 C58 1.371 . S
C57 H60 0.931 . S
C58 C54 1.391 . S
C58 C57 1.371 . S
C58 H65 0.930 . S
H59 C56 0.928 . S
H60 C57 0.931 . S
H61 C37 0.930 . S
H62 C34 0.930 . S
H63 C43 0.930 . S
H64 C55 0.929 . S
H65 C58 0.930 . S
C66 C67 1.351 . S
C66 N69 1.368 . S
C66 H71 0.931 . S
C67 C66 1.351 . S
C67 N68 1.373 . S
C67 H95 0.930 . S
N68 C67 1.373 . S
N68 C70 1.340 . S
N69 C66 1.368 . S
N69 C70 1.321 . S
N69 Co72 2.135 . S
C70 N68 1.340 . S
C70 N69 1.321 . S
C70 H94 0.930 . S
H71 C66 0.931 . S
Co72 N69 2.135 . S
Co72 N75 2.121 . S
Co72 O80 2.055 . S
Co72 O83 2.039 . S
Co72 N86 2.140 . S
C73 O74 1.227 . S
C73 O83 1.265 . S
O74 C73 1.227 . S
N75 Co72 2.121 . S
N75 C77 1.375 . S
N75 C78 1.313 . S
C76 C77 1.338 . S
C76 N79 1.377 . S
C76 H96 0.930 . S
C77 N75 1.375 . S
C77 C76 1.338 . S
C77 H81 0.931 . S
C78 N75 1.313 . S
C78 N79 1.344 . S
C78 H82 0.930 . S
N79 C76 1.377 . S
N79 C78 1.344 . S
O80 Co72 2.055 . S
O80 C84 1.253 . S
H81 C77 0.931 . S
H82 C78 0.930 . S
O83 Co72 2.039 . S
O83 C73 1.265 . S
C84 O80 1.253 . S
C84 O85 1.227 . S
O85 C84 1.227 . S
N86 Co72 2.140 . S
N86 C89 1.346 . S
N86 C90 1.345 . S
C87 C88 1.387 . S
C87 C91 1.391 . S
C88 C87 1.387 . S
C88 C89 1.369 . S
C88 H97 0.929 . S
C89 N86 1.346 . S
C89 C88 1.369 . S
C89 H92 0.928 . S
C90 N86 1.345 . S
C90 C91 1.371 . S
C90 H93 0.931 . S
C91 C87 1.391 . S
C91 C90 1.371 . S
C91 H98 0.930 . S
H92 C89 0.928 . S
H93 C90 0.931 . S
H94 C70 0.930 . S
H95 C67 0.930 . S
H96 C76 0.930 . S
H97 C88 0.929 . S
H98 C91 0.930 . S
C99 C100 1.351 . S
C99 N102 1.368 . S
C99 H104 0.931 . S
C100 C99 1.351 . S
C100 N101 1.373 . S
C100 H128 0.930 . S
N101 C100 1.373 . S
N101 C103 1.340 . S
N102 C99 1.368 . S
N102 C103 1.321 . S
N102 Co105 2.135 . S
C103 N101 1.340 . S
C103 N102 1.321 . S
C103 H127 0.930 . S
H104 C99 0.931 . S
Co105 N102 2.135 . S
Co105 N108 2.121 . S
Co105 O113 2.055 . S
Co105 O116 2.039 . S
Co105 N119 2.140 . S
C106 O107 1.227 . S
C106 O116 1.265 . S
O107 C106 1.227 . S
N108 Co105 2.121 . S
N108 C110 1.375 . S
N108 C111 1.313 . S
C109 C110 1.338 . S
C109 N112 1.377 . S
C109 H129 0.930 . S
C110 N108 1.375 . S
C110 C109 1.338 . S
C110 H114 0.931 . S
C111 N108 1.313 . S
C111 N112 1.344 . S
C111 H115 0.930 . S
N112 C109 1.377 . S
N112 C111 1.344 . S
O113 Co105 2.055 . S
O113 C117 1.253 . S
H114 C110 0.931 . S
H115 C111 0.930 . S
O116 Co105 2.039 . S
O116 C106 1.265 . S
C117 O113 1.253 . S
C117 O118 1.227 . S
O118 C117 1.227 . S
N119 Co105 2.140 . S
N119 C122 1.346 . S
N119 C123 1.345 . S
C120 C121 1.387 . S
C120 C124 1.391 . S
C121 C120 1.387 . S
C121 C122 1.369 . S
C121 H130 0.929 . S
C122 N119 1.346 . S
C122 C121 1.369 . S
C122 H125 0.928 . S
C123 N119 1.345 . S
C123 C124 1.371 . S
C123 H126 0.931 . S
C124 C120 1.391 . S
C124 C123 1.371 . S
C124 H131 0.930 . S
H125 C122 0.928 . S
H126 C123 0.931 . S
H127 C103 0.930 . S
H128 C100 0.930 . S
H129 C109 0.930 . S
H130 C121 0.929 . S
H131 C124 0.930 . S
C132 C133 1.351 . S
C132 N135 1.368 . S
C132 H137 0.931 . S
C133 C132 1.351 . S
C133 N134 1.373 . S
C133 H161 0.930 . S
N134 C133 1.373 . S
N134 C136 1.340 . S
N135 C132 1.368 . S
N135 C136 1.321 . S
N135 Co138 2.135 . S
C136 N134 1.340 . S
C136 N135 1.321 . S
C136 H160 0.930 . S
H137 C132 0.931 . S
Co138 N135 2.135 . S
Co138 N141 2.121 . S
Co138 O146 2.055 . S
Co138 O149 2.039 . S
Co138 N152 2.140 . S
C139 O140 1.227 . S
C139 O149 1.265 . S
O140 C139 1.227 . S
N141 Co138 2.121 . S
N141 C143 1.375 . S
N141 C144 1.313 . S
C142 C143 1.338 . S
C142 N145 1.377 . S
C142 H162 0.930 . S
C143 N141 1.375 . S
C143 C142 1.338 . S
C143 H147 0.931 . S
C144 N141 1.313 . S
C144 N145 1.344 . S
C144 H148 0.930 . S
N145 C142 1.377 . S
N145 C144 1.344 . S
O146 Co138 2.055 . S
O146 C150 1.253 . S
H147 C143 0.931 . S
H148 C144 0.930 . S
O149 Co138 2.039 . S
O149 C139 1.265 . S
C150 O146 1.253 . S
C150 O151 1.227 . S
O151 C150 1.227 . S
N152 Co138 2.140 . S
N152 C155 1.346 . S
N152 C156 1.345 . S
C153 C154 1.387 . S
C153 C157 1.391 . S
C154 C153 1.387 . S
C154 C155 1.369 . S
C154 H163 0.929 . S
C155 N152 1.346 . S
C155 C154 1.369 . S
C155 H158 0.928 . S
C156 N152 1.345 . S
C156 C157 1.371 . S
C156 H159 0.931 . S
C157 C153 1.391 . S
C157 C156 1.371 . S
C157 H164 0.930 . S
H158 C155 0.928 . S
H159 C156 0.931 . S
H160 C136 0.930 . S
H161 C133 0.930 . S
H162 C142 0.930 . S
H163 C154 0.929 . S
H164 C157 0.930 . S
C165 C166 1.351 . S
C165 N168 1.368 . S
C165 H170 0.931 . S
C166 C165 1.351 . S
C166 N167 1.373 . S
C166 H194 0.930 . S
N167 C166 1.373 . S
N167 C169 1.340 . S
N168 C165 1.368 . S
N168 C169 1.321 . S
N168 Co171 2.135 . S
C169 N167 1.340 . S
C169 N168 1.321 . S
C169 H193 0.930 . S
H170 C165 0.931 . S
Co171 N168 2.135 . S
Co171 N174 2.121 . S
Co171 O179 2.055 . S
Co171 O182 2.039 . S
Co171 N185 2.140 . S
C172 O173 1.227 . S
C172 O182 1.265 . S
O173 C172 1.227 . S
N174 Co171 2.121 . S
N174 C176 1.375 . S
N174 C177 1.313 . S
C175 C176 1.338 . S
C175 N178 1.377 . S
C175 H195 0.930 . S
C176 N174 1.375 . S
C176 C175 1.338 . S
C176 H180 0.931 . S
C177 N174 1.313 . S
C177 N178 1.344 . S
C177 H181 0.930 . S
N178 C175 1.377 . S
N178 C177 1.344 . S
O179 Co171 2.055 . S
O179 C183 1.253 . S
H180 C176 0.931 . S
H181 C177 0.930 . S
O182 Co171 2.039 . S
O182 C172 1.265 . S
C183 O179 1.253 . S
C183 O184 1.227 . S
O184 C183 1.227 . S
N185 Co171 2.140 . S
N185 C188 1.346 . S
N185 C189 1.345 . S
C186 C187 1.387 . S
C186 C190 1.391 . S
C187 C186 1.387 . S
C187 C188 1.369 . S
C187 H196 0.929 . S
C188 N185 1.346 . S
C188 C187 1.369 . S
C188 H191 0.928 . S
C189 N185 1.345 . S
C189 C190 1.371 . S
C189 H192 0.931 . S
C190 C186 1.391 . S
C190 C189 1.371 . S
C190 H197 0.930 . S
H191 C188 0.928 . S
H192 C189 0.931 . S
H193 C169 0.930 . S
H194 C166 0.930 . S
H195 C175 0.930 . S
H196 C187 0.929 . S
H197 C190 0.930 . S
C198 C199 1.351 . S
C198 N201 1.368 . S
C198 H203 0.931 . S
C199 C198 1.351 . S
C199 N200 1.373 . S
C199 H227 0.930 . S
N200 C199 1.373 . S
N200 C202 1.340 . S
N201 C198 1.368 . S
N201 C202 1.321 . S
N201 Co204 2.135 . S
C202 N200 1.340 . S
C202 N201 1.321 . S
C202 H226 0.930 . S
H203 C198 0.931 . S
Co204 N201 2.135 . S
Co204 N207 2.121 . S
Co204 O212 2.055 . S
Co204 O215 2.039 . S
Co204 N218 2.140 . S
C205 O206 1.227 . S
C205 O215 1.265 . S
O206 C205 1.227 . S
N207 Co204 2.121 . S
N207 C209 1.375 . S
N207 C210 1.313 . S
C208 C209 1.338 . S
C208 N211 1.377 . S
C208 H228 0.930 . S
C209 N207 1.375 . S
C209 C208 1.338 . S
C209 H213 0.931 . S
C210 N207 1.313 . S
C210 N211 1.344 . S
C210 H214 0.930 . S
N211 C208 1.377 . S
N211 C210 1.344 . S
O212 Co204 2.055 . S
O212 C216 1.253 . S
H213 C209 0.931 . S
H214 C210 0.930 . S
O215 Co204 2.039 . S
O215 C205 1.265 . S
C216 O212 1.253 . S
C216 O217 1.227 . S
O217 C216 1.227 . S
N218 Co204 2.140 . S
N218 C221 1.346 . S
N218 C222 1.345 . S
C219 C220 1.387 . S
C219 C223 1.391 . S
C220 C219 1.387 . S
C220 C221 1.369 . S
C220 H229 0.929 . S
C221 N218 1.346 . S
C221 C220 1.369 . S
C221 H224 0.928 . S
C222 N218 1.345 . S
C222 C223 1.371 . S
C222 H225 0.931 . S
C223 C219 1.391 . S
C223 C222 1.371 . S
C223 H230 0.930 . S
H224 C221 0.928 . S
H225 C222 0.931 . S
H226 C202 0.930 . S
H227 C199 0.930 . S
H228 C208 0.930 . S
H229 C220 0.929 . S
H230 C223 0.930 . S
C231 C232 1.351 . S
C231 N234 1.368 . S
C231 H236 0.931 . S
C232 C231 1.351 . S
C232 N233 1.373 . S
C232 H260 0.930 . S
N233 C232 1.373 . S
N233 C235 1.340 . S
N234 C231 1.368 . S
N234 C235 1.321 . S
N234 Co237 2.135 . S
C235 N233 1.340 . S
C235 N234 1.321 . S
C235 H259 0.930 . S
H236 C231 0.931 . S
Co237 N234 2.135 . S
Co237 N240 2.121 . S
Co237 O245 2.055 . S
Co237 O248 2.039 . S
Co237 N251 2.140 . S
C238 O239 1.227 . S
C238 O248 1.265 . S
O239 C238 1.227 . S
N240 Co237 2.121 . S
N240 C242 1.375 . S
N240 C243 1.313 . S
C241 C242 1.338 . S
C241 N244 1.377 . S
C241 H261 0.930 . S
C242 N240 1.375 . S
C242 C241 1.338 . S
C242 H246 0.931 . S
C243 N240 1.313 . S
C243 N244 1.344 . S
C243 H247 0.930 . S
N244 C241 1.377 . S
N244 C243 1.344 . S
O245 Co237 2.055 . S
O245 C249 1.253 . S
H246 C242 0.931 . S
H247 C243 0.930 . S
O248 Co237 2.039 . S
O248 C238 1.265 . S
C249 O245 1.253 . S
C249 O250 1.227 . S
O250 C249 1.227 . S
N251 Co237 2.140 . S
N251 C254 1.346 . S
N251 C255 1.345 . S
C252 C253 1.387 . S
C252 C256 1.391 . S
C253 C252 1.387 . S
C253 C254 1.369 . S
C253 H262 0.929 . S
C254 N251 1.346 . S
C254 C253 1.369 . S
C254 H257 0.928 . S
C255 N251 1.345 . S
C255 C256 1.371 . S
C255 H258 0.931 . S
C256 C252 1.391 . S
C256 C255 1.371 . S
C256 H263 0.930 . S
H257 C254 0.928 . S
H258 C255 0.931 . S
H259 C235 0.930 . S
H260 C232 0.930 . S
H261 C241 0.930 . S
H262 C253 0.929 . S
H263 C256 0.930 . S
C264 C265 1.351 . S
C264 N267 1.368 . S
C264 H269 0.931 . S
C265 C264 1.351 . S
C265 N266 1.373 . S
C265 H293 0.930 . S
N266 C265 1.373 . S
N266 C268 1.340 . S
N267 C264 1.368 . S
N267 C268 1.321 . S
N267 Co270 2.135 . S
C268 N266 1.340 . S
C268 N267 1.321 . S
C268 H292 0.930 . S
H269 C264 0.931 . S
Co270 N267 2.135 . S
Co270 N273 2.121 . S
Co270 O278 2.055 . S
Co270 O281 2.039 . S
Co270 N284 2.140 . S
C271 O272 1.227 . S
C271 O281 1.265 . S
O272 C271 1.227 . S
N273 Co270 2.121 . S
N273 C275 1.375 . S
N273 C276 1.313 . S
C274 C275 1.338 . S
C274 N277 1.377 . S
C274 H294 0.930 . S
C275 N273 1.375 . S
C275 C274 1.338 . S
C275 H279 0.931 . S
C276 N273 1.313 . S
C276 N277 1.344 . S
C276 H280 0.930 . S
N277 C274 1.377 . S
N277 C276 1.344 . S
O278 Co270 2.055 . S
O278 C282 1.253 . S
H279 C275 0.931 . S
H280 C276 0.930 . S
O281 Co270 2.039 . S
O281 C271 1.265 . S
C282 O278 1.253 . S
C282 O283 1.227 . S
O283 C282 1.227 . S
N284 Co270 2.140 . S
N284 C287 1.346 . S
N284 C288 1.345 . S
C285 C286 1.387 . S
C285 C289 1.391 . S
C286 C285 1.387 . S
C286 C287 1.369 . S
C286 H295 0.929 . S
C287 N284 1.346 . S
C287 C286 1.369 . S
C287 H290 0.928 . S
C288 N284 1.345 . S
C288 C289 1.371 . S
C288 H291 0.931 . S
C289 C285 1.391 . S
C289 C288 1.371 . S
C289 H296 0.930 . S
H290 C287 0.928 . S
H291 C288 0.931 . S
H292 C268 0.930 . S
H293 C265 0.930 . S
H294 C274 0.930 . S
H295 C286 0.929 . S
H296 C289 0.930 . S
C297 C298 1.351 . S
C297 N300 1.368 . S
C297 H302 0.931 . S
C298 C297 1.351 . S
C298 N299 1.373 . S
C298 H326 0.930 . S
N299 C298 1.373 . S
N299 C301 1.340 . S
N300 C297 1.368 . S
N300 C301 1.321 . S
N300 Co303 2.135 . S
C301 N299 1.340 . S
C301 N300 1.321 . S
C301 H325 0.930 . S
H302 C297 0.931 . S
Co303 N300 2.135 . S
Co303 N306 2.121 . S
Co303 O311 2.055 . S
Co303 O314 2.039 . S
Co303 N317 2.140 . S
C304 O305 1.227 . S
C304 O314 1.265 . S
O305 C304 1.227 . S
N306 Co303 2.121 . S
N306 C308 1.375 . S
N306 C309 1.313 . S
C307 C308 1.338 . S
C307 N310 1.377 . S
C307 H327 0.930 . S
C308 N306 1.375 . S
C308 C307 1.338 . S
C308 H312 0.931 . S
C309 N306 1.313 . S
C309 N310 1.344 . S
C309 H313 0.930 . S
N310 C307 1.377 . S
N310 C309 1.344 . S
O311 Co303 2.055 . S
O311 C315 1.253 . S
H312 C308 0.931 . S
H313 C309 0.930 . S
O314 Co303 2.039 . S
O314 C304 1.265 . S
C315 O311 1.253 . S
C315 O316 1.227 . S
O316 C315 1.227 . S
N317 Co303 2.140 . S
N317 C320 1.346 . S
N317 C321 1.345 . S
C318 C319 1.387 . S
C318 C322 1.391 . S
C319 C318 1.387 . S
C319 C320 1.369 . S
C319 H328 0.929 . S
C320 N317 1.346 . S
C320 C319 1.369 . S
C320 H323 0.928 . S
C321 N317 1.345 . S
C321 C322 1.371 . S
C321 H324 0.931 . S
C322 C318 1.391 . S
C322 C321 1.371 . S
C322 H329 0.930 . S
H323 C320 0.928 . S
H324 C321 0.931 . S
H325 C301 0.930 . S
H326 C298 0.930 . S
H327 C307 0.930 . S
H328 C319 0.929 . S
H329 C322 0.930 . S
C330 C331 1.351 . S
C330 N333 1.368 . S
C330 H335 0.931 . S
C331 C330 1.351 . S
C331 N332 1.373 . S
C331 H359 0.930 . S
N332 C331 1.373 . S
N332 C334 1.340 . S
N333 C330 1.368 . S
N333 C334 1.321 . S
N333 Co336 2.135 . S
C334 N332 1.340 . S
C334 N333 1.321 . S
C334 H358 0.930 . S
H335 C330 0.931 . S
Co336 N333 2.135 . S
Co336 N339 2.121 . S
Co336 O344 2.055 . S
Co336 O347 2.039 . S
Co336 N350 2.140 . S
C337 O338 1.227 . S
C337 O347 1.265 . S
O338 C337 1.227 . S
N339 Co336 2.121 . S
N339 C341 1.375 . S
N339 C342 1.313 . S
C340 C341 1.338 . S
C340 N343 1.377 . S
C340 H360 0.930 . S
C341 N339 1.375 . S
C341 C340 1.338 . S
C341 H345 0.931 . S
C342 N339 1.313 . S
C342 N343 1.344 . S
C342 H346 0.930 . S
N343 C340 1.377 . S
N343 C342 1.344 . S
O344 Co336 2.055 . S
O344 C348 1.253 . S
H345 C341 0.931 . S
H346 C342 0.930 . S
O347 Co336 2.039 . S
O347 C337 1.265 . S
C348 O344 1.253 . S
C348 O349 1.227 . S
O349 C348 1.227 . S
N350 Co336 2.140 . S
N350 C353 1.346 . S
N350 C354 1.345 . S
C351 C352 1.387 . S
C351 C355 1.391 . S
C352 C351 1.387 . S
C352 C353 1.369 . S
C352 H361 0.929 . S
C353 N350 1.346 . S
C353 C352 1.369 . S
C353 H356 0.928 . S
C354 N350 1.345 . S
C354 C355 1.371 . S
C354 H357 0.931 . S
C355 C351 1.391 . S
C355 C354 1.371 . S
C355 H362 0.930 . S
H356 C353 0.928 . S
H357 C354 0.931 . S
H358 C334 0.930 . S
H359 C331 0.930 . S
H360 C340 0.930 . S
H361 C352 0.929 . S
H362 C355 0.930 . S
C363 C364 1.351 . S
C363 N366 1.368 . S
C363 H368 0.931 . S
C364 C363 1.351 . S
C364 N365 1.373 . S
C364 H392 0.930 . S
N365 C364 1.373 . S
N365 C367 1.340 . S
N366 C363 1.368 . S
N366 C367 1.321 . S
N366 Co369 2.135 . S
C367 N365 1.340 . S
C367 N366 1.321 . S
C367 H391 0.930 . S
H368 C363 0.931 . S
Co369 N366 2.135 . S
Co369 N372 2.121 . S
Co369 O377 2.055 . S
Co369 O380 2.039 . S
Co369 N383 2.140 . S
C370 O371 1.227 . S
C370 O380 1.265 . S
O371 C370 1.227 . S
N372 Co369 2.121 . S
N372 C374 1.375 . S
N372 C375 1.313 . S
C373 C374 1.338 . S
C373 N376 1.377 . S
C373 H393 0.930 . S
C374 N372 1.375 . S
C374 C373 1.338 . S
C374 H378 0.931 . S
C375 N372 1.313 . S
C375 N376 1.344 . S
C375 H379 0.930 . S
N376 C373 1.377 . S
N376 C375 1.344 . S
O377 Co369 2.055 . S
O377 C381 1.253 . S
H378 C374 0.931 . S
H379 C375 0.930 . S
O380 Co369 2.039 . S
O380 C370 1.265 . S
C381 O377 1.253 . S
C381 O382 1.227 . S
O382 C381 1.227 . S
N383 Co369 2.140 . S
N383 C386 1.346 . S
N383 C387 1.345 . S
C384 C385 1.387 . S
C384 C388 1.391 . S
C385 C384 1.387 . S
C385 C386 1.369 . S
C385 H394 0.929 . S
C386 N383 1.346 . S
C386 C385 1.369 . S
C386 H389 0.928 . S
C387 N383 1.345 . S
C387 C388 1.371 . S
C387 H390 0.931 . S
C388 C384 1.391 . S
C388 C387 1.371 . S
C388 H395 0.930 . S
H389 C386 0.928 . S
H390 C387 0.931 . S
H391 C367 0.930 . S
H392 C364 0.930 . S
H393 C373 0.930 . S
H394 C385 0.929 . S
H395 C388 0.930 . S
C396 C397 1.369 . S
C396 C398 1.419 1_554 S
C396 H400 0.930 . S
C397 C396 1.369 . S
C397 C406 1.429 . S
C398 C396 1.419 1_556 S
C398 C399 1.363 . S
C398 H401 0.929 . S
C399 C398 1.363 . S
C399 C405 1.428 . S
H400 C396 0.930 . S
H401 C398 0.929 . S
S402 N403 1.613 1_556 S
S402 N404 1.610 . S
N403 S402 1.613 1_554 S
N403 C406 1.350 . S
N404 S402 1.610 . S
N404 C405 1.351 . S
C405 C399 1.428 . S
C405 N404 1.351 . S
C405 C406 1.434 1_556 S
C406 C397 1.429 . S
C406 N403 1.350 . S
C406 C405 1.434 1_554 S
C407 C408 1.369 . S
C407 C409 1.419 . S
C407 H411 0.930 . S
C408 C407 1.369 . S
C408 C417 1.429 . S
C409 C407 1.419 . S
C409 C410 1.363 . S
C409 H412 0.929 . S
C410 C409 1.363 . S
C410 C416 1.428 . S
H411 C407 0.930 . S
H412 C409 0.929 . S
S413 N414 1.613 . S
S413 N415 1.610 . S
N414 S413 1.613 . S
N414 C417 1.350 . S
N415 S413 1.610 . S
N415 C416 1.351 . S
C416 C410 1.428 . S
C416 N415 1.351 . S
C416 C417 1.434 . S
C417 C408 1.429 . S
C417 N414 1.350 . S
C417 C416 1.434 . S
C418 C419 1.369 . S
C418 C420 1.419 . S
C418 H422 0.930 . S
C419 C418 1.369 . S
C419 C428 1.429 1_554 S
C420 C418 1.419 . S
C420 C421 1.363 1_554 S
C420 H423 0.929 . S
C421 C420 1.363 1_556 S
C421 C427 1.428 . S
H422 C418 0.930 . S
H423 C420 0.929 . S
S424 N425 1.613 . S
S424 N426 1.610 . S
N425 S424 1.613 . S
N425 C428 1.350 . S
N426 S424 1.610 . S
N426 C427 1.351 . S
C427 C421 1.428 . S
C427 N426 1.351 . S
C427 C428 1.434 . S
C428 C419 1.429 1_556 S
C428 N425 1.350 . S
C428 C427 1.434 . S
C429 C430 1.369 . S
C429 C431 1.419 . S
C429 H433 0.930 . S
C430 C429 1.369 . S
C430 C439 1.429 . S
C431 C429 1.419 . S
C431 C432 1.363 . S
C431 H434 0.929 . S
C432 C431 1.363 . S
C432 C438 1.428 . S
H433 C429 0.930 . S
H434 C431 0.929 . S
S435 N436 1.613 . S
S435 N437 1.610 . S
N436 S435 1.613 . S
N436 C439 1.350 . S
N437 S435 1.610 . S
N437 C438 1.351 . S
C438 C432 1.428 . S
C438 N437 1.351 . S
C438 C439 1.434 . S
C439 C430 1.429 . S
C439 N436 1.350 . S
C439 C438 1.434 . S
C440 C441 1.369 . S
C440 C442 1.419 1_554 S
C440 H444 0.930 . S
C441 C440 1.369 . S
C441 C450 1.429 . S
C442 C440 1.419 1_556 S
C442 C443 1.363 . S
C442 H445 0.929 . S
C443 C442 1.363 . S
C443 C449 1.428 . S
H444 C440 0.930 . S
H445 C442 0.929 . S
S446 N447 1.613 . S
S446 N448 1.610 1_554 S
N447 S446 1.613 . S
N447 C450 1.350 . S
N448 S446 1.610 1_556 S
N448 C449 1.351 . S
C449 C443 1.428 . S
C449 N448 1.351 . S
C449 C450 1.434 1_556 S
C450 C441 1.429 . S
C450 N447 1.350 . S
C450 C449 1.434 1_554 S
C451 C452 1.369 . S
C451 C453 1.419 . S
C451 H455 0.930 . S
C452 C451 1.369 . S
C452 C461 1.429 . S
C453 C451 1.419 . S
C453 C454 1.363 . S
C453 H456 0.929 . S
C454 C453 1.363 . S
C454 C460 1.428 . S
H455 C451 0.930 . S
H456 C453 0.929 . S
S457 N458 1.613 . S
S457 N459 1.610 . S
N458 S457 1.613 . S
N458 C461 1.350 . S
N459 S457 1.610 . S
N459 C460 1.351 . S
C460 C454 1.428 . S
C460 N459 1.351 . S
C460 C461 1.434 . S
C461 C452 1.429 . S
C461 N458 1.350 . S
C461 C460 1.434 . S
C462 C463 1.369 . S
C462 C464 1.419 1_554 S
C462 H466 0.930 . S
C463 C462 1.369 . S
C463 C472 1.429 . S
C464 C462 1.419 1_556 S
C464 C465 1.363 . S
C464 H467 0.929 . S
C465 C464 1.363 . S
C465 C471 1.428 . S
H466 C462 0.930 . S
H467 C464 0.929 . S
S468 N469 1.613 . S
S468 N470 1.610 1_554 S
N469 S468 1.613 . S
N469 C472 1.350 . S
N470 S468 1.610 1_556 S
N470 C471 1.351 . S
C471 C465 1.428 . S
C471 N470 1.351 . S
C471 C472 1.434 1_556 S
C472 C463 1.429 . S
C472 N469 1.350 . S
C472 C471 1.434 1_554 S
C473 C474 1.369 . S
C473 C475 1.419 . S
C473 H477 0.930 . S
C474 C473 1.369 . S
C474 C483 1.429 . S
C475 C473 1.419 . S
C475 C476 1.363 . S
C475 H478 0.929 . S
C476 C475 1.363 . S
C476 C482 1.428 . S
H477 C473 0.930 . S
H478 C475 0.929 . S
S479 N480 1.613 . S
S479 N481 1.610 . S
N480 S479 1.613 . S
N480 C483 1.350 . S
N481 S479 1.610 . S
N481 C482 1.351 . S
C482 C476 1.428 . S
C482 N481 1.351 . S
C482 C483 1.434 . S
C483 C474 1.429 . S
C483 N480 1.350 . S
C483 C482 1.434 . S
C484 C485 1.369 . S
C484 C486 1.419 . S
C484 H488 0.930 . S
C485 C484 1.369 . S
C485 C494 1.429 1_554 S
C486 C484 1.419 . S
C486 C487 1.363 1_554 S
C486 H489 0.929 . S
C487 C486 1.363 1_556 S
C487 C493 1.428 . S
H488 C484 0.930 . S
H489 C486 0.929 . S
S490 N491 1.613 . S
S490 N492 1.610 . S
N491 S490 1.613 . S
N491 C494 1.350 . S
N492 S490 1.610 . S
N492 C493 1.351 . S
C493 C487 1.428 . S
C493 N492 1.351 . S
C493 C494 1.434 . S
C494 C485 1.429 1_556 S
C494 N491 1.350 . S
C494 C493 1.434 . S
C495 C496 1.369 . S
C495 C497 1.419 . S
C495 H499 0.930 . S
C496 C495 1.369 . S
C496 C505 1.429 . S
C497 C495 1.419 . S
C497 C498 1.363 . S
C497 H500 0.929 . S
C498 C497 1.363 . S
C498 C504 1.428 . S
H499 C495 0.930 . S
H500 C497 0.929 . S
S501 N502 1.613 . S
S501 N503 1.610 . S
N502 S501 1.613 . S
N502 C505 1.350 . S
N503 S501 1.610 . S
N503 C504 1.351 . S
C504 C498 1.428 . S
C504 N503 1.351 . S
C504 C505 1.434 . S
C505 C496 1.429 . S
C505 N502 1.350 . S
C505 C504 1.434 . S
C506 C507 1.369 . S
C506 C508 1.419 1_554 S
C506 H510 0.930 . S
C507 C506 1.369 . S
C507 C516 1.429 . S
C508 C506 1.419 1_556 S
C508 C509 1.363 . S
C508 H511 0.929 . S
C509 C508 1.363 . S
C509 C515 1.428 . S
H510 C506 0.930 . S
H511 C508 0.929 . S
S512 N513 1.613 1_556 S
S512 N514 1.610 . S
N513 S512 1.613 1_554 S
N513 C516 1.350 . S
N514 S512 1.610 . S
N514 C515 1.351 . S
C515 C509 1.428 . S
C515 N514 1.351 . S
C515 C516 1.434 1_556 S
C516 C507 1.429 . S
C516 N513 1.350 . S
C516 C515 1.434 1_554 S
C517 C518 1.369 . S
C517 C519 1.419 . S
C517 H521 0.930 . S
C518 C517 1.369 . S
C518 C527 1.429 . S
C519 C517 1.419 . S
C519 C520 1.363 . S
C519 H522 0.929 . S
C520 C519 1.363 . S
C520 C526 1.428 . S
H521 C517 0.930 . S
H522 C519 0.929 . S
S523 N524 1.613 . S
S523 N525 1.610 . S
N524 S523 1.613 . S
N524 C527 1.350 . S
N525 S523 1.610 . S
N525 C526 1.351 . S
C526 C520 1.428 . S
C526 N525 1.351 . S
C526 C527 1.434 . S
C527 C518 1.429 . S
C527 N524 1.350 . S
C527 C526 1.434 . S
C528 C529 1.369 . S
C528 C530 1.419 1_556 S
C528 H532 0.930 . S
C529 C528 1.369 . S
C529 C538 1.429 . S
C530 C528 1.419 1_554 S
C530 C531 1.363 . S
C530 H533 0.929 . S
C531 C530 1.363 . S
C531 C537 1.428 . S
H532 C528 0.930 . S
H533 C530 0.929 . S
S534 N535 1.613 . S
S534 N536 1.610 1_556 S
N535 S534 1.613 . S
N535 C538 1.350 . S
N536 S534 1.610 1_554 S
N536 C537 1.351 . S
C537 C531 1.428 . S
C537 N536 1.351 . S
C537 C538 1.434 1_554 S
C538 C529 1.429 . S
C538 N535 1.350 . S
C538 C537 1.434 1_556 S
C539 C540 1.369 . S
C539 C541 1.419 . S
C539 H543 0.930 . S
C540 C539 1.369 . S
C540 C549 1.429 . S
C541 C539 1.419 . S
C541 C542 1.363 . S
C541 H544 0.929 . S
C542 C541 1.363 . S
C542 C548 1.428 . S
H543 C539 0.930 . S
H544 C541 0.929 . S
S545 N546 1.613 . S
S545 N547 1.610 . S
N546 S545 1.613 . S
N546 C549 1.350 . S
N547 S545 1.610 . S
N547 C548 1.351 . S
C548 C542 1.428 . S
C548 N547 1.351 . S
C548 C549 1.434 . S
C549 C540 1.429 . S
C549 N546 1.350 . S
C549 C548 1.434 . S
C550 C551 1.369 . S
C550 C552 1.419 1_554 S
C550 H554 0.930 . S
C551 C550 1.369 . S
C551 C560 1.429 . S
C552 C550 1.419 1_556 S
C552 C553 1.363 . S
C552 H555 0.929 . S
C553 C552 1.363 . S
C553 C559 1.428 . S
H554 C550 0.930 . S
H555 C552 0.929 . S
S556 N557 1.613 . S
S556 N558 1.610 1_554 S
N557 S556 1.613 . S
N557 C560 1.350 . S
N558 S556 1.610 1_556 S
N558 C559 1.351 . S
C559 C553 1.428 . S
C559 N558 1.351 . S
C559 C560 1.434 1_556 S
C560 C551 1.429 . S
C560 N557 1.350 . S
C560 C559 1.434 1_554 S
C561 C562 1.369 . S
C561 C563 1.419 . S
C561 H565 0.930 . S
C562 C561 1.369 . S
C562 C571 1.429 . S
C563 C561 1.419 . S
C563 C564 1.363 . S
C563 H566 0.929 . S
C564 C563 1.363 . S
C564 C570 1.428 . S
H565 C561 0.930 . S
H566 C563 0.929 . S
S567 N568 1.613 . S
S567 N569 1.610 . S
N568 S567 1.613 . S
N568 C571 1.350 . S
N569 S567 1.610 . S
N569 C570 1.351 . S
C570 C564 1.428 . S
C570 N569 1.351 . S
C570 C571 1.434 . S
C571 C562 1.429 . S
C571 N568 1.350 . S
C571 C570 1.434 . S
C572 C573 1.369 . S
C572 C574 1.419 1_554 S
C572 H576 0.930 . S
C573 C572 1.369 . S
C573 C582 1.429 . S
C574 C572 1.419 1_556 S
C574 C575 1.363 . S
C574 H577 0.929 . S
C575 C574 1.363 . S
C575 C581 1.428 . S
H576 C572 0.930 . S
H577 C574 0.929 . S
S578 N579 1.613 . S
S578 N580 1.610 1_554 S
N579 S578 1.613 . S
N579 C582 1.350 . S
N580 S578 1.610 1_556 S
N580 C581 1.351 . S
C581 C575 1.428 . S
C581 N580 1.351 . S
C581 C582 1.434 1_556 S
C582 C573 1.429 . S
C582 N579 1.350 . S
C582 C581 1.434 1_554 S
C583 C584 1.369 . S
C583 C585 1.419 . S
C583 H587 0.930 . S
C584 C583 1.369 . S
C584 C593 1.429 . S
C585 C583 1.419 . S
C585 C586 1.363 . S
C585 H588 0.929 . S
C586 C585 1.363 . S
C586 C592 1.428 . S
H587 C583 0.930 . S
H588 C585 0.929 . S
S589 N590 1.613 . S
S589 N591 1.610 . S
N590 S589 1.613 . S
N590 C593 1.350 . S
N591 S589 1.610 . S
N591 C592 1.351 . S
C592 C586 1.428 . S
C592 N591 1.351 . S
C592 C593 1.434 . S
C593 C584 1.429 . S
C593 N590 1.350 . S
C593 C592 1.434 . S
C594 C595 1.369 . S
C594 C596 1.419 1_556 S
C594 H598 0.930 . S
C595 C594 1.369 . S
C595 C604 1.429 . S
C596 C594 1.419 1_554 S
C596 C597 1.363 . S
C596 H599 0.929 . S
C597 C596 1.363 . S
C597 C603 1.428 . S
H598 C594 0.930 . S
H599 C596 0.929 . S
S600 N601 1.613 . S
S600 N602 1.610 1_556 S
N601 S600 1.613 . S
N601 C604 1.350 . S
N602 S600 1.610 1_554 S
N602 C603 1.351 . S
C603 C597 1.428 . S
C603 N602 1.351 . S
C603 C604 1.434 1_554 S
C604 C595 1.429 . S
C604 N601 1.350 . S
C604 C603 1.434 1_556 S
C605 C606 1.369 . S
C605 C607 1.419 . S
C605 H609 0.930 . S
C606 C605 1.369 . S
C606 C615 1.429 . S
C607 C605 1.419 . S
C607 C608 1.363 . S
C607 H610 0.929 . S
C608 C607 1.363 . S
C608 C614 1.428 . S
H609 C605 0.930 . S
H610 C607 0.929 . S
S611 N612 1.613 . S
S611 N613 1.610 . S
N612 S611 1.613 . S
N612 C615 1.350 . S
N613 S611 1.610 . S
N613 C614 1.351 . S
C614 C608 1.428 . S
C614 N613 1.351 . S
C614 C615 1.434 . S
C615 C606 1.429 . S
C615 N612 1.350 . S
C615 C614 1.434 . S
C616 C617 1.369 . S
C616 C618 1.419 1_554 S
C616 H620 0.930 . S
C617 C616 1.369 . S
C617 C626 1.429 . S
C618 C616 1.419 1_556 S
C618 C619 1.363 . S
C618 H621 0.929 . S
C619 C618 1.363 . S
C619 C625 1.428 . S
H620 C616 0.930 . S
H621 C618 0.929 . S
S622 N623 1.613 1_556 S
S622 N624 1.610 . S
N623 S622 1.613 1_554 S
N623 C626 1.350 . S
N624 S622 1.610 . S
N624 C625 1.351 . S
C625 C619 1.428 . S
C625 N624 1.351 . S
C625 C626 1.434 1_556 S
C626 C617 1.429 . S
C626 N623 1.350 . S
C626 C625 1.434 1_554 S
C627 C628 1.369 . S
C627 C629 1.419 . S
C627 H631 0.930 . S
C628 C627 1.369 . S
C628 C637 1.429 . S
C629 C627 1.419 . S
C629 C630 1.363 . S
C629 H632 0.929 . S
C630 C629 1.363 . S
C630 C636 1.428 . S
H631 C627 0.930 . S
H632 C629 0.929 . S
S633 N634 1.613 . S
S633 N635 1.610 . S
N634 S633 1.613 . S
N634 C637 1.350 . S
N635 S633 1.610 . S
N635 C636 1.351 . S
C636 C630 1.428 . S
C636 N635 1.351 . S
C636 C637 1.434 . S
C637 C628 1.429 . S
C637 N634 1.350 . S
C637 C636 1.434 . S
C638 C639 1.369 . S
C638 C640 1.419 1_554 S
C638 H642 0.930 . S
C639 C638 1.369 . S
C639 C648 1.429 . S
C640 C638 1.419 1_556 S
C640 C641 1.363 . S
C640 H643 0.929 . S
C641 C640 1.363 . S
C641 C647 1.428 . S
H642 C638 0.930 . S
H643 C640 0.929 . S
S644 N645 1.613 . S
S644 N646 1.610 1_554 S
N645 S644 1.613 . S
N645 C648 1.350 . S
N646 S644 1.610 1_556 S
N646 C647 1.351 . S
C647 C641 1.428 . S
C647 N646 1.351 . S
C647 C648 1.434 1_556 S
C648 C639 1.429 . S
C648 N645 1.350 . S
C648 C647 1.434 1_554 S
C649 C650 1.369 . S
C649 C651 1.419 . S
C649 H653 0.930 . S
C650 C649 1.369 . S
C650 C659 1.429 . S
C651 C649 1.419 . S
C651 C652 1.363 . S
C651 H654 0.929 . S
C652 C651 1.363 . S
C652 C658 1.428 . S
H653 C649 0.930 . S
H654 C651 0.929 . S
S655 N656 1.613 . S
S655 N657 1.610 . S
N656 S655 1.613 . S
N656 C659 1.350 . S
N657 S655 1.610 . S
N657 C658 1.351 . S
C658 C652 1.428 . S
C658 N657 1.351 . S
C658 C659 1.434 . S
C659 C650 1.429 . S
C659 N656 1.350 . S
C659 C658 1.434 . S
C660 C661 1.369 . S
C660 C662 1.419 . S
C660 H664 0.930 . S
C661 C660 1.369 . S
C661 C670 1.429 . S
C662 C660 1.419 . S
C662 C663 1.363 . S
C662 H665 0.929 . S
C663 C662 1.363 . S
C663 C669 1.428 . S
H664 C660 0.930 . S
H665 C662 0.929 . S
S666 N667 1.613 . S
S666 N668 1.610 . S
N667 S666 1.613 . S
N667 C670 1.350 . S
N668 S666 1.610 . S
N668 C669 1.351 . S
C669 C663 1.428 . S
C669 N668 1.351 . S
C669 C670 1.434 . S
C670 C661 1.429 . S
C670 N667 1.350 . S
C670 C669 1.434 . S
C671 C672 1.369 . S
C671 C673 1.419 1_455 S
C671 H675 0.930 . S
C672 C671 1.369 . S
C672 C681 1.429 . S
C673 C671 1.419 1_655 S
C673 C674 1.363 . S
C673 H676 0.929 . S
C674 C673 1.363 . S
C674 C680 1.428 . S
H675 C671 0.930 . S
H676 C673 0.929 . S
S677 N678 1.613 1_655 S
S677 N679 1.610 . S
N678 S677 1.613 1_455 S
N678 C681 1.350 . S
N679 S677 1.610 . S
N679 C680 1.351 . S
C680 C674 1.428 . S
C680 N679 1.351 . S
C680 C681 1.434 1_655 S
C681 C672 1.429 . S
C681 N678 1.350 . S
C681 C680 1.434 1_455 S
C682 C683 1.369 . S
C682 C684 1.419 1_545 S
C682 H686 0.930 . S
C683 C682 1.369 . S
C683 C692 1.429 . S
C684 C682 1.419 1_565 S
C684 C685 1.363 . S
C684 H687 0.929 . S
C685 C684 1.363 . S
C685 C691 1.428 . S
H686 C682 0.930 . S
H687 C684 0.929 . S
S688 N689 1.613 . S
S688 N690 1.610 1_545 S
N689 S688 1.613 . S
N689 C692 1.350 . S
N690 S688 1.610 1_565 S
N690 C691 1.351 . S
C691 C685 1.428 . S
C691 N690 1.351 . S
C691 C692 1.434 1_565 S
C692 C683 1.429 . S
C692 N689 1.350 . S
C692 C691 1.434 1_545 S
C693 C694 1.369 . S
C693 C695 1.419 . S
C693 H697 0.930 . S
C694 C693 1.369 . S
C694 C703 1.429 . S
C695 C693 1.419 . S
C695 C696 1.363 . S
C695 H698 0.929 . S
C696 C695 1.363 . S
C696 C702 1.428 . S
H697 C693 0.930 . S
H698 C695 0.929 . S
S699 N700 1.613 . S
S699 N701 1.610 . S
N700 S699 1.613 . S
N700 C703 1.350 . S
N701 S699 1.610 . S
N701 C702 1.351 . S
C702 C696 1.428 . S
C702 N701 1.351 . S
C702 C703 1.434 . S
C703 C694 1.429 . S
C703 N700 1.350 . S
C703 C702 1.434 . S
C704 C705 1.369 . S
C704 C706 1.419 1_455 S
C704 H708 0.930 . S
C705 C704 1.369 . S
C705 C714 1.429 . S
C706 C704 1.419 1_655 S
C706 C707 1.363 . S
C706 H709 0.929 . S
C707 C706 1.363 . S
C707 C713 1.428 . S
H708 C704 0.930 . S
H709 C706 0.929 . S
S710 N711 1.613 . S
S710 N712 1.610 1_455 S
N711 S710 1.613 . S
N711 C714 1.350 . S
N712 S710 1.610 1_655 S
N712 C713 1.351 . S
C713 C707 1.428 . S
C713 N712 1.351 . S
C713 C714 1.434 1_655 S
C714 C705 1.429 . S
C714 N711 1.350 . S
C714 C713 1.434 1_455 S
C715 C716 1.369 . S
C715 C717 1.419 1_565 S
C715 H719 0.930 . S
C716 C715 1.369 . S
C716 C725 1.429 . S
C717 C715 1.419 1_545 S
C717 C718 1.363 . S
C717 H720 0.929 . S
C718 C717 1.363 . S
C718 C724 1.428 . S
H719 C715 0.930 . S
H720 C717 0.929 . S
S721 N722 1.613 . S
S721 N723 1.610 1_565 S
N722 S721 1.613 . S
N722 C725 1.350 . S
N723 S721 1.610 1_545 S
N723 C724 1.351 . S
C724 C718 1.428 . S
C724 N723 1.351 . S
C724 C725 1.434 1_545 S
C725 C716 1.429 . S
C725 N722 1.350 . S
C725 C724 1.434 1_565 S
C397 C7 2.321 . S
C399 C205 2.323 . S
C408 C40 2.319 . S
C410 C238 2.320 . S
C419 C73 2.319 . S
C421 C271 2.321 . S
C430 C304 2.320 . S
C432 C106 2.322 . S
C441 C139 2.320 . S
C443 C337 2.319 . S
C452 C370 2.319 . S
C454 C172 2.321 . S
C463 N310 0.951 . S
C465 N112 0.960 . S
C474 N145 0.965 . S
C476 N343 0.950 . S
C485 N376 0.964 . S
C487 N178 0.950 . S
C496 N211 0.965 . S
C498 N13 0.950 . S
C507 N244 0.954 . S
C509 N46 0.958 . S
C518 N79 0.961 . S
C520 N277 0.954 . S
C529 N332 0.906 . S
C531 N2 0.901 . S
C540 N35 0.893 . S
C542 N365 0.908 . S
C551 N68 0.904 . S
C553 N200 0.902 . S
C562 N101 0.897 . S
C564 N233 0.896 . S
C573 N134 0.892 . S
C575 N266 0.901 . S
C584 N167 0.890 . S
C586 N299 0.903 . S
C595 C117 1.873 . S
C597 C249 1.870 . S
C606 C150 1.870 . S
C608 C282 1.873 . S
C617 C315 1.873 . S
C619 C183 1.871 . S
C628 C18 1.869 . S
C630 C348 1.874 . S
C639 C381 1.873 . S
C641 C51 1.871 . S
C650 C84 1.870 . S
C652 C216 1.873 . S
C661 C21 1.358 . S
C663 C318 1.360 . S
C672 C351 1.359 . S
C674 C54 1.357 . S
C683 C384 1.360 . S
C685 C87 1.361 . S
C694 C219 1.360 . S
C696 C120 1.361 . S
C705 C153 1.357 . S
C707 C252 1.359 . S
C716 C285 1.360 . S
C718 C186 1.361 . S
