# Generated by pormake.
# Topology crs, (6)-cn, num edge types: 1
# Building blocks:
#     Node 0, Type 0, BuildingBlock: BETDIP_clean_sbu_0, # of connection points: 6
#     Node 1, Type 0, BuildingBlock: BETDIP_clean_sbu_0, # of connection points: 6
#     Node 2, Type 0, BuildingBlock: BETDIP_clean_sbu_0, # of connection points: 6
#     Node 3, Type 0, BuildingBlock: BETDIP_clean_sbu_0, # of connection points: 6
#     Node 4, Type 0, BuildingBlock: BETDIP_clean_sbu_0, # of connection points: 6
#     Node 5, Type 0, BuildingBlock: BETDIP_clean_sbu_0, # of connection points: 6
#     Node 6, Type 0, BuildingBlock: BETDIP_clean_sbu_0, # of connection points: 6
#     Node 7, Type 0, BuildingBlock: BETDIP_clean_sbu_0, # of connection points: 6
#     Node 8, Type 0, BuildingBlock: BETDIP_clean_sbu_0, # of connection points: 6
#     Node 9, Type 0, BuildingBlock: BETDIP_clean_sbu_0, # of connection points: 6
#     Node 10, Type 0, BuildingBlock: BETDIP_clean_sbu_0, # of connection points: 6
#     Node 11, Type 0, BuildingBlock: BETDIP_clean_sbu_0, # of connection points: 6
#     Node 12, Type 0, BuildingBlock: BETDIP_clean_sbu_0, # of connection points: 6
#     Node 13, Type 0, BuildingBlock: BETDIP_clean_sbu_0, # of connection points: 6
#     Node 14, Type 0, BuildingBlock: BETDIP_clean_sbu_0, # of connection points: 6
#     Node 15, Type 0, BuildingBlock: BETDIP_clean_sbu_0, # of connection points: 6
#     Edge 16, Type (0, 0), BuildingBlock: TEMPAE_clean_linker_10, # of connection points: 2
#     Edge 17, Type (0, 0), BuildingBlock: TEMPAE_clean_linker_10, # of connection points: 2
#     Edge 18, Type (0, 0), BuildingBlock: TEMPAE_clean_linker_10, # of connection points: 2
#     Edge 19, Type (0, 0), BuildingBlock: TEMPAE_clean_linker_10, # of connection points: 2
#     Edge 20, Type (0, 0), BuildingBlock: TEMPAE_clean_linker_10, # of connection points: 2
#     Edge 21, Type (0, 0), BuildingBlock: TEMPAE_clean_linker_10, # of connection points: 2
#     Edge 22, Type (0, 0), BuildingBlock: TEMPAE_clean_linker_10, # of connection points: 2
#     Edge 23, Type (0, 0), BuildingBlock: TEMPAE_clean_linker_10, # of connection points: 2
#     Edge 24, Type (0, 0), BuildingBlock: TEMPAE_clean_linker_10, # of connection points: 2
#     Edge 25, Type (0, 0), BuildingBlock: TEMPAE_clean_linker_10, # of connection points: 2
#     Edge 26, Type (0, 0), BuildingBlock: TEMPAE_clean_linker_10, # of connection points: 2
#     Edge 27, Type (0, 0), BuildingBlock: TEMPAE_clean_linker_10, # of connection points: 2
#     Edge 28, Type (0, 0), BuildingBlock: TEMPAE_clean_linker_10, # of connection points: 2
#     Edge 29, Type (0, 0), BuildingBlock: TEMPAE_clean_linker_10, # of connection points: 2
#     Edge 30, Type (0, 0), BuildingBlock: TEMPAE_clean_linker_10, # of connection points: 2
#     Edge 31, Type (0, 0), BuildingBlock: TEMPAE_clean_linker_10, # of connection points: 2
#     Edge 32, Type (0, 0), BuildingBlock: TEMPAE_clean_linker_10, # of connection points: 2
#     Edge 33, Type (0, 0), BuildingBlock: TEMPAE_clean_linker_10, # of connection points: 2
#     Edge 34, Type (0, 0), BuildingBlock: TEMPAE_clean_linker_10, # of connection points: 2
#     Edge 35, Type (0, 0), BuildingBlock: TEMPAE_clean_linker_10, # of connection points: 2
#     Edge 36, Type (0, 0), BuildingBlock: TEMPAE_clean_linker_10, # of connection points: 2
#     Edge 37, Type (0, 0), BuildingBlock: TEMPAE_clean_linker_10, # of connection points: 2
#     Edge 38, Type (0, 0), BuildingBlock: TEMPAE_clean_linker_10, # of connection points: 2
#     Edge 39, Type (0, 0), BuildingBlock: TEMPAE_clean_linker_10, # of connection points: 2
#     Edge 40, Type (0, 0), BuildingBlock: TEMPAE_clean_linker_10, # of connection points: 2
#     Edge 41, Type (0, 0), BuildingBlock: TEMPAE_clean_linker_10, # of connection points: 2
#     Edge 42, Type (0, 0), BuildingBlock: TEMPAE_clean_linker_10, # of connection points: 2
#     Edge 43, Type (0, 0), BuildingBlock: TEMPAE_clean_linker_10, # of connection points: 2
#     Edge 44, Type (0, 0), BuildingBlock: TEMPAE_clean_linker_10, # of connection points: 2
#     Edge 45, Type (0, 0), BuildingBlock: TEMPAE_clean_linker_10, # of connection points: 2
#     Edge 46, Type (0, 0), BuildingBlock: TEMPAE_clean_linker_10, # of connection points: 2
#     Edge 47, Type (0, 0), BuildingBlock: TEMPAE_clean_linker_10, # of connection points: 2
#     Edge 48, Type (0, 0), BuildingBlock: TEMPAE_clean_linker_10, # of connection points: 2
#     Edge 49, Type (0, 0), BuildingBlock: TEMPAE_clean_linker_10, # of connection points: 2
#     Edge 50, Type (0, 0), BuildingBlock: TEMPAE_clean_linker_10, # of connection points: 2
#     Edge 51, Type (0, 0), BuildingBlock: TEMPAE_clean_linker_10, # of connection points: 2
#     Edge 52, Type (0, 0), BuildingBlock: TEMPAE_clean_linker_10, # of connection points: 2
#     Edge 53, Type (0, 0), BuildingBlock: TEMPAE_clean_linker_10, # of connection points: 2
#     Edge 54, Type (0, 0), BuildingBlock: TEMPAE_clean_linker_10, # of connection points: 2
#     Edge 55, Type (0, 0), BuildingBlock: TEMPAE_clean_linker_10, # of connection points: 2
#     Edge 56, Type (0, 0), BuildingBlock: TEMPAE_clean_linker_10, # of connection points: 2
#     Edge 57, Type (0, 0), BuildingBlock: TEMPAE_clean_linker_10, # of connection points: 2
#     Edge 58, Type (0, 0), BuildingBlock: TEMPAE_clean_linker_10, # of connection points: 2
#     Edge 59, Type (0, 0), BuildingBlock: TEMPAE_clean_linker_10, # of connection points: 2
#     Edge 60, Type (0, 0), BuildingBlock: TEMPAE_clean_linker_10, # of connection points: 2
#     Edge 61, Type (0, 0), BuildingBlock: TEMPAE_clean_linker_10, # of connection points: 2
#     Edge 62, Type (0, 0), BuildingBlock: TEMPAE_clean_linker_10, # of connection points: 2
#     Edge 63, Type (0, 0), BuildingBlock: TEMPAE_clean_linker_10, # of connection points: 2
# Relax obj value: 0.407
# Max RMSD: 0.320
# Mean RMSD: 0.319
data_MOF--net-crs--node1-BETDIP_clean_sbu_0--edge1-TEMPAE_clean_linker_10
_symmetry_space_group_name_H-M    P1
_symmetry_Int_Tables_number       1
_symmetry_cell_setting            triclinic
loop_
_symmetry_equiv_pos_as_xyz
'x, y, z'
_cell_length_a     39.269941
_cell_length_b     66.961537
_cell_length_c     44.759465
_cell_angle_alpha  89.970636
_cell_angle_beta   90.00322
_cell_angle_gamma 61.649699
loop_
_atom_site_label
_atom_site_type_symbol
_atom_site_fract_x
_atom_site_fract_y
_atom_site_fract_z
_atom_type_partial_charge
Tb0 Tb 0.94913 0.01537 0.02003 0.0
Tb1 Tb 0.02624 1.00711 0.99464 0.0
C2 C 0.88795 0.01295 0.02669 0.0
C3 C 0.88333 0.99247 0.02341 0.0
C4 C 0.8511 0.99333 0.00875 0.0
C5 C 0.84894 0.97332 1.00347 0.0
C6 C 0.87925 0.95214 0.0125 0.0
C7 C 0.91166 0.95149 0.02673 0.0
C8 C 0.91348 0.97137 0.03238 0.0
C9 C 0.0044 1.0058 0.0596 0.0
C10 C 0.00917 0.967 0.99098 0.0
C11 C 0.08775 0.00913 0.98734 0.0
C12 C 0.09498 0.0284 0.99342 0.0
C13 C 0.13025 0.02496 0.00564 0.0
C14 C 0.13597 0.04359 0.01245 0.0
C15 C 0.10621 0.06584 0.00751 0.0
C16 C 0.0709 0.06913 0.99556 0.0
C17 C 0.06541 0.05065 0.98848 0.0
C18 C 0.97164 0.01594 0.95497 0.0
C19 C 0.96608 0.05512 0.02465 0.0
O20 O 0.89631 0.02017 1.00203 0.0
O21 O 0.90965 0.01266 0.04907 0.0
O22 O 0.00835 0.99707 0.03396 0.0
O23 O 0.96793 0.019 0.06458 0.0
O24 O 0.97381 0.98173 0.99961 0.0
O25 O 0.03795 0.97205 0.99132 0.0
O26 O 0.0812 0.99986 0.01086 0.0
O27 O 0.06318 0.01233 0.96575 0.0
O28 O 0.96708 0.02516 0.98039 0.0
O29 O 0.00819 1.0028 0.95035 0.0
O30 O 0.00187 0.0402 0.01707 0.0
O31 O 0.93711 0.05038 0.02255 0.0
H32 H 0.82784 0.00941 1.00118 0.0
H33 H 0.82345 0.97447 0.99259 0.0
H34 H 0.93614 0.93552 0.03313 0.0
H35 H 0.93915 0.97008 0.04315 0.0
H36 H 0.15321 1.00794 0.01 0.0
H37 H 0.16341 0.04066 0.02178 0.0
H38 H 0.04766 0.08605 0.99113 0.0
H39 H 0.03783 0.05386 0.97914 0.0
Tb40 Tb 0.02007 0.26503 0.27182 0.0
Tb41 Tb 0.97032 0.25798 0.23147 0.0
C42 C 0.05023 0.27777 0.31234 0.0
C43 C 0.03925 0.29642 0.33398 0.0
C44 C 0.01409 0.31904 0.32606 0.0
C45 C 0.00862 0.33672 0.34541 0.0
C46 C 0.02792 0.33206 0.37307 0.0
C47 C 0.05136 0.30935 0.38158 0.0
C48 C 0.05709 0.2917 0.36211 0.0
C49 C 0.05207 0.22212 0.25236 0.0
C50 C 0.95447 0.25646 0.29766 0.0
C51 C 0.93769 0.24638 0.19134 0.0
C52 C 0.94319 0.22658 0.1735 0.0
C53 C 0.96466 0.2043 0.18424 0.0
C54 C 0.96656 0.18602 0.16774 0.0
C55 C 0.94707 0.1897 0.1402 0.0
C56 C 0.92636 0.21203 0.12932 0.0
C57 C 0.92445 0.23025 0.14583 0.0
C58 C 0.93957 0.30097 0.25107 0.0
C59 C 0.03827 0.2651 0.20547 0.0
O60 O 0.04901 0.2831 0.2842 0.0
O61 O 0.03695 0.26348 0.31689 0.0
O62 O 0.01698 0.23451 0.25902 0.0
O63 O 0.07038 0.23326 0.25859 0.0
O64 O 0.97122 0.26943 0.29999 0.0
O65 O 0.95753 0.24559 0.27247 0.0
O66 O 0.93211 0.24558 0.2199 0.0
O67 O 0.96054 0.25505 0.18574 0.0
O68 O 0.97411 0.28826 0.24367 0.0
O69 O 0.92055 0.29022 0.24529 0.0
O70 O 0.01867 0.25372 0.20245 0.0
O71 O 0.03747 0.27496 0.23105 0.0
H72 H -0.00031 0.32312 0.30455 0.0
H73 H 0.98993 0.35407 0.33848 0.0
H74 H 0.06672 0.30527 0.40268 0.0
H75 H 0.07664 0.27437 0.3686 0.0
H76 H 0.97936 0.20109 0.20554 0.0
H77 H 0.98321 0.16901 0.17657 0.0
H78 H 0.91068 0.21552 0.10841 0.0
H79 H 0.90756 0.24733 0.13725 0.0
Tb80 Tb 0.79276 0.25303 0.51778 0.0
Tb81 Tb 0.71493 0.26276 0.49249 0.0
C82 C 0.85545 0.25362 0.52526 0.0
C83 C 0.86677 0.271 0.51671 0.0
C84 C 0.86559 0.27777 0.48676 0.0
C85 C 0.8688 0.2972 0.47985 0.0
C86 C 0.87257 0.31036 0.50269 0.0
C87 C 0.87616 0.30278 0.53237 0.0
C88 C 0.87354 0.28323 0.53928 0.0
C89 C 0.73887 0.26054 0.55762 0.0
C90 C 0.73412 0.30199 0.49034 0.0
C91 C 0.65156 0.26277 0.48633 0.0
C92 C 0.64336 0.24348 0.48847 0.0
C93 C 0.61497 0.24426 0.5082 0.0
C94 C 0.61011 0.22504 0.51254 0.0
C95 C 0.63366 0.2047 0.49722 0.0
C96 C 0.66184 0.20417 0.47739 0.0
C97 C 0.66666 0.22325 0.47309 0.0
C98 C 0.76873 0.25495 0.45241 0.0
C99 C 0.77492 0.21289 0.51776 0.0
O100 O 0.84986 0.24229 0.5036 0.0
O101 O 0.82833 0.26023 0.54563 0.0
O102 O 0.73401 0.27074 0.53292 0.0
O103 O 0.77542 0.24694 0.56158 0.0
O104 O 0.7699 0.28649 0.49683 0.0
O105 O 0.70471 0.29759 0.49215 0.0
O106 O 0.66218 0.26829 0.51133 0.0
O107 O 0.67306 0.26243 0.46376 0.0
O108 O 0.77362 0.24503 0.47733 0.0
O109 O 0.7321 0.26834 0.4483 0.0
O110 O 0.73982 0.22752 0.50829 0.0
O111 O 0.80312 0.2183 0.52039 0.0
H112 H 0.86025 0.26879 0.46879 0.0
H113 H 0.8662 0.30266 0.45686 0.0
H114 H 0.87982 0.3124 0.55038 0.0
H115 H 0.87473 0.27834 0.5625 0.0
H116 H 0.59707 0.25959 0.52065 0.0
H117 H 0.58786 0.22615 0.52778 0.0
H118 H 0.68104 0.18879 0.46559 0.0
H119 H 0.68947 0.22187 0.45826 0.0
Tb120 Tb 0.72035 1.00375 0.7756 0.0
Tb121 Tb 0.76683 0.01468 0.73414 0.0
C122 C 0.69271 0.98772 0.81386 0.0
C123 C 0.70411 0.96961 0.83645 0.0
C124 C 0.73302 0.94731 0.83068 0.0
C125 C 0.73865 0.9297 0.85027 0.0
C126 C 0.71564 0.93409 0.87604 0.0
C127 C 0.68822 0.95661 0.88252 0.0
C128 C 0.68245 0.97417 0.86284 0.0
C129 C 0.68588 0.04736 0.75883 0.0
C130 C 0.78755 0.01161 0.80113 0.0
C131 C 0.79333 0.03136 0.69579 0.0
C132 C 0.78099 0.05039 0.67426 0.0
C133 C 0.76749 0.07284 0.68414 0.0
C134 C 0.76239 0.09 0.66396 0.0
C135 C 0.77064 0.08516 0.6334 0.0
C136 C 0.7821 0.06295 0.62336 0.0
C137 C 0.78739 0.04575 0.64358 0.0
C138 C 0.80162 0.97101 0.75081 0.0
C139 C 0.69877 1.00723 0.70894 0.0
O140 O 0.69919 0.98127 0.78598 0.0
O141 O 0.70001 1.00447 0.81945 0.0
O142 O 0.72128 0.03496 0.76429 0.0
O143 O 0.66826 0.0358 0.76514 0.0
O144 O 0.76921 0.99948 0.80373 0.0
O145 O 0.78556 0.02246 0.77606 0.0
O146 O 0.78958 0.03647 0.72416 0.0
O147 O 0.78481 0.01512 0.68982 0.0
O148 O 0.76614 0.98336 0.74538 0.0
O149 O 0.81901 0.98269 0.74437 0.0
O150 O 0.7176 0.01909 0.70621 0.0
O151 O 0.70079 0.99634 0.73393 0.0
H152 H 0.75027 0.94334 0.81053 0.0
H153 H 0.76041 0.91257 0.8449 0.0
H154 H 0.66987 0.96053 0.90205 0.0
H155 H 0.65986 0.99122 0.86763 0.0
H156 H 0.76247 0.07703 0.70764 0.0
H157 H 0.75387 0.10682 0.67262 0.0
H158 H 0.788 0.05869 0.59992 0.0
H159 H 0.79794 0.02861 0.63533 0.0
Tb160 Tb 0.51391 0.76701 0.27306 0.0
Tb161 Tb 0.46785 0.75614 0.2311 0.0
C162 C 0.53911 0.78415 0.3116 0.0
C163 C 0.52553 0.80213 0.33467 0.0
C164 C 0.51093 0.82504 0.32657 0.0
C165 C 0.50458 0.84145 0.34822 0.0
C166 C 0.51256 0.83541 0.37852 0.0
C167 C 0.52505 0.81271 0.38678 0.0
C168 C 0.53168 0.79623 0.36506 0.0
C169 C 0.54844 0.72338 0.25743 0.0
C170 C 0.44576 0.75942 0.29769 0.0
C171 C 0.43899 0.74113 0.19252 0.0
C172 C 0.44915 0.72328 0.16987 0.0
C173 C 0.48023 0.70141 0.17403 0.0
C174 C 0.48484 0.68368 0.15511 0.0
C175 C 0.45873 0.68765 0.13152 0.0
C176 C 0.42911 0.70985 0.12635 0.0
C177 C 0.42427 0.72748 0.14548 0.0
C178 C 0.43374 0.79969 0.24775 0.0
C179 C 0.53837 0.76158 0.20666 0.0
O180 O 0.53225 0.79073 0.28374 0.0
O181 O 0.53467 0.76627 0.31668 0.0
O182 O 0.51273 0.73585 0.26194 0.0
O183 O 0.56604 0.73487 0.26421 0.0
O184 O 0.46472 0.77116 0.30069 0.0
O185 O 0.44774 0.74867 0.27257 0.0
O186 O 0.44535 0.73441 0.22031 0.0
O187 O 0.44772 0.75735 0.18708 0.0
O188 O 0.46913 0.78724 0.24225 0.0
O189 O 0.41606 0.78817 0.24165 0.0
O190 O 0.51793 0.75069 0.20357 0.0
O191 O 0.5368 0.77242 0.23162 0.0
H192 H 0.50605 0.83023 0.30336 0.0
H193 H 0.49541 0.85867 0.34087 0.0
H194 H 0.53082 0.80752 0.40996 0.0
H195 H 0.54308 0.7787 0.37195 0.0
H196 H 0.50001 0.69784 0.19251 0.0
H197 H 0.50826 0.66678 0.15933 0.0
H198 H 0.40847 0.71336 0.10843 0.0
H199 H 0.40002 0.74423 0.14198 0.0
Tb200 Tb 0.28347 0.75764 0.51566 0.0
Tb201 Tb 0.20493 0.76656 0.49195 0.0
C202 C 0.34807 0.7565 0.52114 0.0
C203 C 0.36338 0.77113 0.50916 0.0
C204 C 0.34916 0.78279 0.48215 0.0
C205 C 0.35685 0.80038 0.47407 0.0
C206 C 0.37959 0.80627 0.49244 0.0
C207 C 0.39641 0.79342 0.51827 0.0
C208 C 0.38808 0.77605 0.52671 0.0
C209 C 0.23061 0.76562 0.55669 0.0
C210 C 0.22245 0.8062 0.48787 0.0
C211 C 0.1426 0.76533 0.48564 0.0
C212 C 0.13476 0.74591 0.48975 0.0
C213 C 0.11729 0.74371 0.51609 0.0
C214 C 0.1147 0.72388 0.52167 0.0
C215 C 0.12991 0.70582 0.50118 0.0
C216 C 0.14578 0.70849 0.47431 0.0
C217 C 0.14808 0.72827 0.46861 0.0
C218 C 0.25832 0.75825 0.45112 0.0
C219 C 0.2642 0.71804 0.52039 0.0
O220 O 0.34121 0.7442 0.50169 0.0
O221 O 0.3197 0.76651 0.54026 0.0
O222 O 0.22502 0.77516 0.53145 0.0
O223 O 0.26741 0.75264 0.56054 0.0
O224 O 0.2589 0.79094 0.49337 0.0
O225 O 0.19361 0.80145 0.49122 0.0
O226 O 0.15119 0.77298 0.50984 0.0
O227 O 0.16529 0.76373 0.46331 0.0
O228 O 0.26346 0.7488 0.47638 0.0
O229 O 0.22166 0.77162 0.44726 0.0
O230 O 0.229 0.73266 0.51135 0.0
O231 O 0.29304 0.72303 0.52046 0.0
H232 H 0.33037 0.77914 0.4681 0.0
H233 H 0.34366 0.81011 0.45416 0.0
H234 H 0.41373 0.79784 0.53296 0.0
H235 H 0.3992 0.76731 0.54772 0.0
H236 H 0.10673 0.75702 0.53278 0.0
H237 H 0.1021 0.72232 0.54246 0.0
H238 H 0.1568 0.69513 0.45769 0.0
H239 H 0.1614 0.72938 0.44793 0.0
Tb240 Tb 0.22355 0.50444 0.7725 0.0
Tb241 Tb 0.27068 0.5138 0.7311 0.0
C242 C 0.19502 0.48982 0.81196 0.0
C243 C 0.20652 0.47168 0.83447 0.0
C244 C 0.23539 0.44941 0.82854 0.0
C245 C 0.24129 0.43178 0.84815 0.0
C246 C 0.2186 0.43613 0.8741 0.0
C247 C 0.1913 0.45864 0.88077 0.0
C248 C 0.18525 0.47622 0.86106 0.0
C249 C 0.18959 0.54787 0.75485 0.0
C250 C 0.2911 0.51196 0.79762 0.0
C251 C 0.30035 0.52796 0.69192 0.0
C252 C 0.29034 0.54678 0.67079 0.0
C253 C 0.2619 0.56899 0.67753 0.0
C254 C 0.25728 0.58711 0.65934 0.0
C255 C 0.2809 0.5833 0.63405 0.0
C256 C 0.30799 0.5609 0.62663 0.0
C257 C 0.3127 0.54284 0.6449 0.0
C258 C 0.30454 0.47036 0.74894 0.0
C259 C 0.20229 0.50685 0.70598 0.0
O260 O 0.19971 0.48347 0.78404 0.0
O261 O 0.20437 0.50583 0.81687 0.0
O262 O 0.22501 0.53551 0.76054 0.0
O263 O 0.17197 0.53632 0.7611 0.0
O264 O 0.27281 0.49984 0.80038 0.0
O265 O 0.28864 0.5228 0.77249 0.0
O266 O 0.29795 0.53307 0.72022 0.0
O267 O 0.28752 0.51358 0.68627 0.0
O268 O 0.26923 0.48274 0.74302 0.0
O269 O 0.32218 0.48186 0.74262 0.0
O270 O 0.22131 0.51858 0.70302 0.0
O271 O 0.20421 0.49627 0.73122 0.0
H272 H 0.25236 0.44549 0.80825 0.0
H273 H 0.26293 0.41464 0.84264 0.0
H274 H 0.17322 0.46251 0.90045 0.0
H275 H 0.16276 0.49327 0.86597 0.0
H276 H 0.2442 0.57241 0.69735 0.0
H277 H 0.23576 0.60415 0.66537 0.0
H278 H 0.3268 0.55742 0.60746 0.0
H279 H 0.33495 0.52584 0.63944 0.0
Tb280 Tb 0.9555 0.51472 0.51642 0.0
Tb281 Tb 0.03397 0.50278 0.49054 0.0
C282 C 0.8917 0.51564 0.5247 0.0
C283 C 0.87946 0.4984 0.51751 0.0
C284 C 0.87546 0.49305 0.48774 0.0
C285 C 0.87121 0.4739 0.4813 0.0
C286 C 0.87159 0.45957 0.50432 0.0
C287 C 0.87295 0.4658 0.5341 0.0
C288 C 0.87658 0.48509 0.54061 0.0
C289 C 0.00993 0.50668 0.55604 0.0
C290 C 0.01217 0.46468 0.49051 0.0
C291 C 0.09714 0.50267 0.48269 0.0
C292 C 0.1047 0.52217 0.48573 0.0
C293 C 0.13639 0.52033 0.50233 0.0
C294 C 0.14117 0.53953 0.5074 0.0
C295 C 0.11415 0.56088 0.49607 0.0
C296 C 0.08229 0.56257 0.4798 0.0
C297 C 0.07775 0.5435 0.47454 0.0
C298 C 0.97932 0.51116 0.45093 0.0
C299 C 0.97712 0.5531 0.51599 0.0
O300 O 0.89829 0.52588 0.50217 0.0
O301 O 0.91854 0.50949 0.54526 0.0
O302 O 0.01421 0.49617 0.53165 0.0
O303 O 0.97361 0.5209 0.55982 0.0
O304 O 0.97683 0.48084 0.49696 0.0
O305 O 0.04243 0.46835 0.49145 0.0
O306 O 0.08844 0.49584 0.50753 0.0
O307 O 0.07417 0.50393 0.46072 0.0
O308 O 0.97532 0.52147 0.47543 0.0
O309 O 0.01561 0.49692 0.44698 0.0
O310 O 0.01192 0.53728 0.50782 0.0
O311 O 0.94718 0.54915 0.51709 0.0
H312 H 0.87743 0.50296 0.46935 0.0
H313 H 0.8697 0.46961 0.45829 0.0
H314 H 0.87229 0.45539 0.55238 0.0
H315 H 0.87913 0.48893 0.56376 0.0
H316 H 0.15711 0.50414 0.51166 0.0
H317 H 0.1661 0.53761 0.51997 0.0
H318 H 0.06024 0.5788 0.47154 0.0
H319 H 0.05241 0.54565 0.46234 0.0
Tb320 Tb 0.28592 0.25325 0.01396 0.0
Tb321 Tb 0.20734 0.26511 0.98867 0.0
C322 C 0.34954 0.25266 0.02142 0.0
C323 C 0.35697 0.27222 0.01958 0.0
C324 C 0.38927 0.27066 0.0042 0.0
C325 C 0.39364 0.29006 0.9998 0.0
C326 C 0.36549 0.31134 0.01048 0.0
C327 C 0.33312 0.31271 0.02566 0.0
C328 C 0.3291 0.29341 0.03037 0.0
C329 C 0.23147 0.26224 0.05404 0.0
C330 C 0.22905 0.3035 0.9884 0.0
C331 C 0.14348 0.26625 0.98002 0.0
C332 C 0.13074 0.24922 0.98674 0.0
C333 C 0.12717 0.24331 0.0163 0.0
C334 C 0.12096 0.22476 0.02206 0.0
C335 C 0.11872 0.21152 0.99849 0.0
C336 C 0.12109 0.218 0.96896 0.0
C337 C 0.12654 0.23675 0.96319 0.0
C338 C 0.26154 0.25676 0.94878 0.0
C339 C 0.26422 0.21529 0.01482 0.0
O340 O 0.33964 0.247 0.9962 0.0
O341 O 0.32743 0.25308 0.04356 0.0
O342 O 0.22731 0.27228 0.0293 0.0
O343 O 0.26771 0.24788 0.05788 0.0
O344 O 0.2639 0.28771 0.99654 0.0
O345 O 0.19911 0.29953 0.98757 0.0
O346 O 0.1501 0.27627 1.00276 0.0
O347 O 0.1705 0.26002 0.95963 0.0
O348 O 0.26581 0.24635 0.97325 0.0
O349 O 0.2253 0.27114 0.94515 0.0
O350 O 0.22861 0.23148 0.00913 0.0
O351 O 0.29442 0.2189 0.01271 0.0
H352 H 0.41074 0.25454 0.99521 0.0
H353 H 0.41903 0.28836 0.98814 0.0
H354 H 0.31016 0.32883 0.03332 0.0
H355 H 0.30336 0.2953 0.04169 0.0
H356 H 0.13033 0.25253 0.03503 0.0
H357 H 0.11856 0.22059 0.04501 0.0
H358 H 0.12033 0.2081 0.95011 0.0
H359 H 0.12934 0.24085 0.9402 0.0
Tb360 Tb 0.21944 1.00587 0.27353 0.0
Tb361 Tb 0.26462 0.01607 0.23107 0.0
C362 C 0.18139 0.98933 0.29936 0.0
C363 C 0.18399 0.97254 0.32154 0.0
C364 C 0.21535 0.96208 0.3413 0.0
C365 C 0.217 0.94558 0.36143 0.0
C366 C 0.18752 0.93925 0.36177 0.0
C367 C 0.15617 0.94998 0.34203 0.0
C368 C 0.15444 0.96647 0.32216 0.0
C369 C 0.19456 0.05016 0.26626 0.0
C370 C 0.28764 0.0097 0.30082 0.0
C371 C 0.30063 0.03389 0.20517 0.0
C372 C 0.2968 0.05046 0.18214 0.0
C373 C 0.26259 0.06265 0.16569 0.0
C374 C 0.2596 0.0793 0.14521 0.0
C375 C 0.29061 0.08407 0.14125 0.0
C376 C 0.32487 0.0715 0.15754 0.0
C377 C 0.32791 0.05486 0.17773 0.0
C378 C 0.2894 0.97176 0.23767 0.0
C379 C 0.19788 0.01054 0.20387 0.0
O380 O 0.20085 0.98128 0.27468 0.0
O381 O 0.18333 1.00718 0.30896 0.0
O382 O 0.2064 0.03529 0.24606 0.0
O383 O 0.19421 0.04052 0.29115 0.0
O384 O 0.26644 0.99937 0.30426 0.0
O385 O 0.28791 0.0191 0.27482 0.0
O386 O 0.27982 0.04209 0.22925 0.0
O387 O 0.30152 0.01505 0.19636 0.0
O388 O 0.27763 0.98646 0.25814 0.0
O389 O 0.29006 0.9816 0.21299 0.0
O390 O 0.21831 0.02132 0.20003 0.0
O391 O 0.19784 1.00143 0.23006 0.0
H392 H 0.23857 0.96648 0.34092 0.0
H393 H 0.24168 0.93742 0.37623 0.0
H394 H 0.1329 0.94562 0.34198 0.0
H395 H 0.13006 0.97439 0.30701 0.0
H396 H 0.23817 0.05956 0.16903 0.0
H397 H 0.23275 0.08885 0.1331 0.0
H398 H 0.34935 0.07461 0.15473 0.0
H399 H 0.35448 0.04562 0.1903 0.0
Tb400 Tb 0.52015 0.26423 0.77415 0.0
Tb401 Tb 0.47725 0.2535 0.73038 0.0
C402 C 0.55257 0.28278 0.80312 0.0
C403 C 0.54341 0.30029 0.82627 0.0
C404 C 0.51391 0.32272 0.82217 0.0
C405 C 0.50891 0.33958 0.84277 0.0
C406 C 0.53318 0.33433 0.8679 0.0
C407 C 0.56159 0.31174 0.87258 0.0
C408 C 0.56674 0.29491 0.85188 0.0
C409 C 0.54627 0.21976 0.76741 0.0
C410 C 0.45253 0.25861 0.79929 0.0
C411 C 0.44391 0.23536 0.70164 0.0
C412 C 0.45204 0.21753 0.67915 0.0
C413 C 0.48103 0.19502 0.68362 0.0
C414 C 0.48476 0.17791 0.66389 0.0
C415 C 0.45965 0.18298 0.63931 0.0
C416 C 0.43174 0.20564 0.63425 0.0
C417 C 0.42791 0.22272 0.65405 0.0
C418 C 0.45086 0.29803 0.73753 0.0
C419 C 0.54569 0.25861 0.70548 0.0
O420 O 0.53648 0.28968 0.77693 0.0
O421 O 0.55326 0.26386 0.81135 0.0
O422 O 0.53485 0.23444 0.74691 0.0
O423 O 0.54597 0.22968 0.79221 0.0
O424 O 0.47236 0.26969 0.80341 0.0
O425 O 0.4535 0.2492 0.7731 0.0
O426 O 0.45936 0.22871 0.72806 0.0
O427 O 0.44483 0.25369 0.69277 0.0
O428 O 0.46234 0.2832 0.75781 0.0
O429 O 0.45138 0.28818 0.71262 0.0
O430 O 0.52553 0.24773 0.70127 0.0
O431 O 0.54453 0.26814 0.7316 0.0
H432 H 0.49536 0.32741 0.80268 0.0
H433 H 0.48645 0.35681 0.83881 0.0
H434 H 0.58088 0.30724 0.89161 0.0
H435 H 0.5898 0.27778 0.85542 0.0
H436 H 0.50011 0.19048 0.70278 0.0
H437 H 0.5069 0.16065 0.66812 0.0
H438 H 0.41179 0.21005 0.61566 0.0
H439 H 0.40518 0.23991 0.65029 0.0
Tb440 Tb 0.01723 0.76483 0.77475 0.0
Tb441 Tb 0.97474 0.75398 0.7307 0.0
C442 C 0.04891 0.78357 0.80429 0.0
C443 C 0.03916 0.80129 0.82729 0.0
C444 C 0.01002 0.82374 0.82259 0.0
C445 C 0.00464 0.84078 0.84302 0.0
C446 C 0.02818 0.83573 0.86857 0.0
C447 C 0.05613 0.81312 0.87387 0.0
C448 C 0.06165 0.7961 0.85336 0.0
C449 C 0.04434 0.72027 0.76739 0.0
C450 C 0.95016 0.7585 0.79947 0.0
C451 C 0.9411 0.7359 0.70213 0.0
C452 C 0.94825 0.71781 0.68048 0.0
C453 C 0.97723 0.71094 0.65855 0.0
C454 C 0.98269 0.69358 0.63843 0.0
C455 C 0.95951 0.68277 0.64028 0.0
C456 C 0.93067 0.6898 0.66235 0.0
C457 C 0.92513 0.70713 0.68218 0.0
C458 C 0.94759 0.79857 0.7383 0.0
C459 C 0.04251 0.75982 0.70613 0.0
O460 O 0.03361 0.79026 0.77782 0.0
O461 O 0.04932 0.76473 0.81251 0.0
O462 O 0.0325 0.73512 0.74712 0.0
O463 O 0.04391 0.73009 0.79231 0.0
O464 O 0.96935 0.76993 0.80367 0.0
O465 O 0.9516 0.749 0.77329 0.0
O466 O 0.95648 0.72925 0.72853 0.0
O467 O 0.9435 0.75367 0.69273 0.0
O468 O 0.95937 0.78362 0.75843 0.0
O469 O 0.94808 0.78881 0.71332 0.0
O470 O 0.02297 0.74857 0.70184 0.0
O471 O 0.04105 0.76937 0.73229 0.0
H472 H 0.99213 0.8283 0.80274 0.0
H473 H 0.98251 0.85801 0.83854 0.0
H474 H 0.07488 0.80875 0.89323 0.0
H475 H 0.08442 0.77896 0.85738 0.0
H476 H -0.00442 0.71891 0.65703 0.0
H477 H 0.00531 0.68839 0.62178 0.0
H478 H 0.91203 0.68204 0.6641 0.0
H479 H 0.90261 0.71222 0.69895 0.0
Tb480 Tb 0.71672 0.50777 0.27532 0.0
Tb481 Tb 0.7642 0.51642 0.23255 0.0
C482 C 0.68823 0.49382 0.31576 0.0
C483 C 0.6961 0.47342 0.3334 0.0
C484 C 0.72895 0.46233 0.35174 0.0
C485 C 0.73375 0.44399 0.3697 0.0
C486 C 0.70589 0.4364 0.36951 0.0
C487 C 0.67336 0.44744 0.35089 0.0
C488 C 0.66852 0.46574 0.33313 0.0
C489 C 0.68436 0.55108 0.25727 0.0
C490 C 0.78705 0.51382 0.29881 0.0
C491 C 0.79008 0.5316 0.19185 0.0
C492 C 0.77608 0.54952 0.16858 0.0
C493 C 0.75756 0.57267 0.17627 0.0
C494 C 0.75041 0.58925 0.15459 0.0
C495 C 0.76152 0.58312 0.12467 0.0
C496 C 0.77785 0.56005 0.11675 0.0
C497 C 0.78522 0.54345 0.13849 0.0
C498 C 0.7967 0.4733 0.25113 0.0
C499 C 0.69644 0.5084 0.20925 0.0
O500 O 0.68171 0.49317 0.28731 0.0
O501 O 0.70908 0.5039 0.32103 0.0
O502 O 0.71958 0.53812 0.26244 0.0
O503 O 0.66584 0.54065 0.26614 0.0
O504 O 0.76665 0.50297 0.30253 0.0
O505 O 0.7861 0.52376 0.27319 0.0
O506 O 0.78561 0.53831 0.21963 0.0
O507 O 0.7834 0.5144 0.18806 0.0
O508 O 0.76147 0.48592 0.24521 0.0
O509 O 0.81528 0.48423 0.2443 0.0
O510 O 0.71396 0.52092 0.20602 0.0
O511 O 0.70024 0.4973 0.2344 0.0
H512 H 0.75069 0.46792 0.35245 0.0
H513 H 0.75931 0.43569 0.3836 0.0
H514 H 0.65112 0.44224 0.35052 0.0
H515 H 0.64275 0.47417 0.31945 0.0
H516 H 0.75007 0.578 0.19925 0.0
H517 H 0.73809 0.60677 0.16168 0.0
H518 H 0.78607 0.55473 0.09385 0.0
H519 H 0.79949 0.52575 0.13194 0.0
Tb520 Tb 0.78721 0.75031 0.01642 0.0
Tb521 Tb 0.70832 0.76293 0.99106 0.0
C522 C 0.85155 0.74846 0.02565 0.0
C523 C 0.86416 0.76581 0.02064 0.0
C524 C 0.87398 0.77002 0.99191 0.0
C525 C 0.87881 0.78913 0.98668 0.0
C526 C 0.87319 0.80449 0.00985 0.0
C527 C 0.86602 0.79946 0.03885 0.0
C528 C 0.86195 0.78021 0.04425 0.0
C529 C 0.73324 0.75752 0.05605 0.0
C530 C 0.73107 0.8009 0.99239 0.0
C531 C 0.64364 0.7648 0.9847 0.0
C532 C 0.63492 0.7457 0.98596 0.0
C533 C 0.60771 0.74584 0.00642 0.0
C534 C 0.60376 0.72631 0.01075 0.0
C535 C 0.62715 0.70628 0.99476 0.0
C536 C 0.65382 0.70648 0.97396 0.0
C537 C 0.65763 0.72587 0.96961 0.0
C538 C 0.76168 0.75564 0.95091 0.0
C539 C 0.76612 0.71158 0.01256 0.0
O540 O 0.84412 0.73975 1.00187 0.0
O541 O 0.82515 0.75352 0.04635 0.0
O542 O 0.72887 0.76868 0.03226 0.0
O543 O 0.7694 0.74285 0.05921 0.0
O544 O 0.76639 0.78465 0.99865 0.0
O545 O 0.70085 0.79717 0.9929 0.0
O546 O 0.65513 0.7694 0.00997 0.0
O547 O 0.66494 0.76477 0.96215 0.0
O548 O 0.76658 0.74468 0.97502 0.0
O549 O 0.72519 0.76976 0.94756 0.0
O550 O 0.73112 0.7272 0.00427 0.0
O551 O 0.79534 0.71603 0.01563 0.0
H552 H 0.87624 0.75917 0.97324 0.0
H553 H 0.88476 0.79264 0.96426 0.0
H554 H 0.86244 0.81081 0.05724 0.0
H555 H 0.85507 0.77726 0.06672 0.0
H556 H 0.59033 0.76083 0.01965 0.0
H557 H 0.58258 0.72689 0.0267 0.0
H558 H 0.6729 0.6914 0.96158 0.0
H559 H 0.67957 0.72494 0.95417 0.0
Tb560 Tb 0.45552 0.01264 0.51784 0.0
Tb561 Tb 0.53313 1.00274 0.49148 0.0
C562 C 0.39174 0.01322 0.52411 0.0
C563 C 0.37986 0.99666 0.51352 0.0
C564 C 0.39539 0.98456 0.48696 0.0
C565 C 0.39141 0.96545 0.48018 0.0
C566 C 0.37179 0.95805 0.49981 0.0
C567 C 0.35383 0.9712 0.52529 0.0
C568 C 0.35805 0.99028 0.53216 0.0
C569 C 0.50913 1.00631 0.5573 0.0
C570 C 0.51574 0.96268 0.49363 0.0
C571 C 0.59522 1.00375 0.48254 0.0
C572 C 0.60459 0.02251 0.4875 0.0
C573 C 0.62309 0.02369 0.51389 0.0
C574 C 0.62756 0.04284 0.51997 0.0
C575 C 0.6132 0.06123 0.49998 0.0
C576 C 0.59607 0.05966 0.47319 0.0
C577 C 0.59203 0.04052 0.46692 0.0
C578 C 0.47911 1.00884 0.45236 0.0
C579 C 0.47459 0.05218 0.51825 0.0
O580 O 0.39825 0.02486 0.50341 0.0
O581 O 0.41891 1.00537 0.54451 0.0
O582 O 0.51432 0.99577 0.53285 0.0
O583 O 0.47237 0.01938 0.56148 0.0
O584 O 0.47996 0.97783 0.50082 0.0
O585 O 0.54433 0.96782 0.49208 0.0
O586 O 0.58895 0.99469 0.50647 0.0
O587 O 0.56987 1.00713 0.46149 0.0
O588 O 0.47433 0.01962 0.47654 0.0
O589 O 0.51571 0.99538 0.4484 0.0
O590 O 0.50968 0.03714 0.50944 0.0
O591 O 0.44569 0.04731 0.51957 0.0
H592 H 0.41257 0.98901 0.47225 0.0
H593 H 0.40575 0.95579 0.46049 0.0
H594 H 0.33779 0.96625 0.54056 0.0
H595 H 0.34594 0.99935 0.55279 0.0
H596 H 0.63313 0.01009 0.53018 0.0
H597 H 0.64102 0.04365 0.54072 0.0
H598 H 0.58547 0.07339 0.45709 0.0
H599 H 0.578 0.04019 0.44624 0.0
Tb600 Tb 0.45377 0.51508 0.01682 0.0
Tb601 Tb 0.53274 0.50361 0.99263 0.0
C602 C 0.38977 0.51605 0.02405 0.0
C603 C 0.37886 0.49798 0.01885 0.0
C604 C 0.36807 0.49422 0.99024 0.0
C605 C 0.36463 0.47471 0.98448 0.0
C606 C 0.37254 0.45854 0.00705 0.0
C607 C 0.38084 0.46301 0.03599 0.0
C608 C 0.3836 0.48261 0.04191 0.0
C609 C 0.50688 0.50724 0.05752 0.0
C610 C 0.51195 0.46493 0.99224 0.0
C611 C 0.5966 0.50294 0.9857 0.0
C612 C 0.60676 0.52146 0.98958 0.0
C613 C 0.62544 0.52292 0.0157 0.0
C614 C 0.63031 0.54204 0.02103 0.0
C615 C 0.61627 0.56005 1.00047 0.0
C616 C 0.59919 0.55811 0.97385 0.0
C617 C 0.59465 0.53904 0.96839 0.0
C618 C 0.47955 0.51146 0.95191 0.0
C619 C 0.4746 0.55376 0.01738 0.0
O620 O 0.39808 0.52442 1.00037 0.0
O621 O 0.41459 0.51209 0.0457 0.0
O622 O 0.512 0.49673 0.03306 0.0
O623 O 0.47047 0.52146 0.06067 0.0
O624 O 0.47629 0.48077 0.99852 0.0
O625 O 0.54166 0.46912 0.9932 0.0
O626 O 0.58745 0.49571 0.01004 0.0
O627 O 0.57302 0.50539 0.96364 0.0
O628 O 0.47454 0.52196 0.97637 0.0
O629 O 0.516 0.49729 0.94872 0.0
O630 O 0.51005 0.53806 0.01036 0.0
O631 O 0.44492 0.54955 0.01698 0.0
H632 H 0.36391 0.50582 0.97202 0.0
H633 H 0.35779 0.47165 0.9621 0.0
H634 H 0.38617 0.45101 0.05394 0.0
H635 H 0.39129 0.48514 0.0643 0.0
H636 H 0.63513 0.50964 0.03241 0.0
H637 H 0.64367 0.54316 0.04168 0.0
H638 H 0.58877 0.57158 0.95736 0.0
H639 H 0.58045 0.53849 0.9479 0.0
C640 C 0.92383 0.09469 0.04402 0.0
C641 C 0.9606 0.07599 0.04021 0.0
C642 C 0.91903 0.11378 0.06048 0.0
C643 C 0.95168 0.11398 0.07374 0.0
C644 C 0.98869 0.09495 0.07039 0.0
C645 C 0.99273 0.07636 0.05347 0.0
C646 C 0.879 0.1336 0.0641 0.0
C647 C 0.02401 0.09376 0.0855 0.0
C648 C 0.95159 0.16942 0.09192 0.0
C649 C 0.94748 0.17048 0.12312 0.0
C650 C 0.95171 0.1515 0.07552 0.0
C651 C 0.94766 0.13417 0.09063 0.0
C652 C 0.94286 0.13531 0.12205 0.0
C653 C 0.94298 0.15338 0.13791 0.0
C654 C 0.95703 0.15083 0.04205 0.0
C655 C 0.93826 0.11725 0.13904 0.0
H656 H 0.89886 0.09438 0.03419 0.0
H657 H 0.02118 0.06176 0.05147 0.0
H658 H 0.8716 0.13663 0.08818 0.0
H659 H 0.87817 0.14923 0.05501 0.0
H660 H 0.85658 0.13077 0.0526 0.0
H661 H 0.0513 0.07983 0.07644 0.0
H662 H 0.02484 0.11 0.08322 0.0
H663 H 0.02284 0.09071 0.10972 0.0
H664 H 0.95547 0.18241 0.08031 0.0
H665 H 0.93916 0.15425 0.16195 0.0
H666 H 0.93218 0.15047 0.03077 0.0
H667 H 0.98342 0.13507 0.03562 0.0
H668 H 0.95956 0.16567 0.03361 0.0
H669 H 0.91713 0.1132 0.12774 0.0
H670 H 0.9286 0.12245 0.1624 0.0
H671 H 0.96638 0.10145 0.13966 0.0
C672 C 0.78932 0.27242 0.41203 0.0
C673 C 0.79923 0.25482 0.4328 0.0
C674 C 0.81676 0.27258 0.39211 0.0
C675 C 0.85521 0.25457 0.39271 0.0
C676 C 0.86574 0.2371 0.41432 0.0
C677 C 0.83755 0.2374 0.43411 0.0
C678 C 0.80423 0.29172 0.36981 0.0
C679 C 0.90659 0.2179 0.41614 0.0
C680 C 0.90951 0.24323 0.31893 0.0
C681 C 0.93108 0.25479 0.32273 0.0
C682 C 0.88563 0.2425 0.34184 0.0
C683 C 0.88339 0.25344 0.36942 0.0
C684 C 0.90608 0.26451 0.37374 0.0
C685 C 0.92941 0.26519 0.35031 0.0
C686 C 0.86185 0.23059 0.33616 0.0
C687 C 0.90472 0.27639 0.40268 0.0
H688 H 0.75981 0.28611 0.41119 0.0
H689 H 0.84529 0.22378 0.45012 0.0
H690 H 0.82345 0.29959 0.37114 0.0
H691 H 0.80664 0.28496 0.34683 0.0
H692 H 0.77393 0.30512 0.37349 0.0
H693 H 0.91077 0.20648 0.4354 0.0
H694 H 0.91384 0.20774 0.39529 0.0
H695 H 0.92727 0.22474 0.41819 0.0
H696 H 0.91059 0.2351 0.29775 0.0
H697 H 0.94604 0.27411 0.35355 0.0
H698 H 0.83061 0.24307 0.33702 0.0
H699 H 0.86739 0.21778 0.35384 0.0
H700 H 0.86823 0.22198 0.31409 0.0
H701 H 0.87726 0.29256 0.40372 0.0
H702 H 0.92907 0.28035 0.40466 0.0
H703 H 0.90544 0.26591 0.42212 0.0
C704 C 0.74207 0.12559 0.6153 0.0
C705 C 0.77031 0.10275 0.61268 0.0
C706 C 0.7438 0.14255 0.59783 0.0
C707 C 0.77431 0.13653 0.57701 0.0
C708 C 0.80197 0.11344 0.5734 0.0
C709 C 0.7998 0.09688 0.59136 0.0
C710 C 0.71333 0.16696 0.60203 0.0
C711 C 0.8344 0.10628 0.55097 0.0
C712 C 0.75918 0.18084 0.51789 0.0
C713 C 0.78019 0.19104 0.52984 0.0
C714 C 0.75833 0.16243 0.53231 0.0
C715 C 0.77803 0.15448 0.55981 0.0
C716 C 0.80019 0.16432 0.57151 0.0
C717 C 0.80137 0.1823 0.55619 0.0
C718 C 0.73508 0.1521 0.51873 0.0
C719 C 0.82099 0.15666 0.60105 0.0
H720 H 0.71876 0.13027 0.63126 0.0
H721 H 0.82205 0.07937 0.58933 0.0
H722 H 0.72724 0.17771 0.60654 0.0
H723 H 0.69617 0.17337 0.58122 0.0
H724 H 0.69323 0.16905 0.62067 0.0
H725 H 0.85211 0.08754 0.54951 0.0
H726 H 0.82246 0.11299 0.52851 0.0
H727 H 0.85359 0.11353 0.55727 0.0
H728 H 0.74276 0.18757 0.49753 0.0
H729 H 0.81696 0.19044 0.56584 0.0
H730 H 0.70761 0.15802 0.53123 0.0
H731 H 0.7509 0.13332 0.5203 0.0
H732 H 0.72811 0.15692 0.49491 0.0
H733 H 0.79953 0.16035 0.61918 0.0
H734 H 0.83848 0.16524 0.60636 0.0
H735 H 0.84035 0.13805 0.60089 0.0
C736 C 0.90243 0.03216 0.93769 0.0
C737 C 0.94128 0.01555 0.93572 0.0
C738 C 0.87443 0.03173 0.91836 0.0
C739 C 0.88579 0.01451 0.89631 0.0
C740 C 0.92493 0.99749 0.89475 0.0
C741 C 0.95203 0.99817 0.91452 0.0
C742 C 0.8329 0.04998 0.92102 0.0
C743 C 0.93849 0.97877 0.87173 0.0
C744 C 0.81435 1.0017 0.85347 0.0
C745 C 0.81108 0.01303 0.82632 0.0
C746 C 0.83744 1.00266 0.87697 0.0
C747 C 0.85784 0.01517 0.87319 0.0
C748 C 0.85401 0.02697 0.84608 0.0
C749 C 0.8307 0.02579 0.8231 0.0
C750 C 0.84069 0.98989 0.90557 0.0
C751 C 0.87566 0.04023 0.84089 0.0
H752 H 0.89408 0.04567 0.95396 0.0
H753 H 0.98196 0.98508 0.91313 0.0
H754 H 0.82455 0.06087 0.90079 0.0
H755 H 0.81345 0.04224 0.9224 0.0
H756 H 0.82809 0.06088 0.94096 0.0
H757 H 0.97039 0.96786 0.87209 0.0
H758 H 0.92465 0.96795 0.87594 0.0
H759 H 0.92987 0.98604 0.84899 0.0
H760 H 0.7992 0.99187 0.85629 0.0
H761 H 0.82837 0.03469 0.80234 0.0
H762 H 0.83531 1.00114 0.92517 0.0
H763 H 0.87047 0.9756 0.90786 0.0
H764 H 0.82005 0.98292 0.90623 0.0
H765 H 0.86934 0.05276 0.85906 0.0
H766 H 0.86811 0.04938 0.81918 0.0
H767 H 0.90728 0.02852 0.84123 0.0
C768 C 0.07415 0.98978 0.07486 0.0
C769 C 0.03546 1.00648 0.07766 0.0
C770 C 0.10331 0.99055 0.09239 0.0
C771 C 0.09336 1.00825 0.11352 0.0
C772 C 0.05435 0.02539 0.1159 0.0
C773 C 0.02597 0.02425 0.09803 0.0
C774 C 0.14457 0.97209 0.08891 0.0
C775 C 0.04224 0.04449 0.13818 0.0
C776 C 0.15236 0.99723 0.18462 0.0
C777 C 0.17296 0.00927 0.17964 0.0
C778 C 0.12732 0.99632 0.16298 0.0
C779 C 0.1226 1.00766 0.13538 0.0
C780 C 0.14396 0.01941 0.12976 0.0
C781 C 0.16888 0.02012 0.15199 0.0
C782 C 0.1051 0.98365 0.17004 0.0
C783 C 0.13977 0.03166 0.10056 0.0
H784 H 0.08152 0.97593 0.05929 0.0
H785 H -0.00389 0.03733 0.10016 0.0
H786 H 0.16416 0.97963 0.086 0.0
H787 H 0.15383 0.96155 0.10945 0.0
H788 H 0.14818 0.96089 0.06955 0.0
H789 H 0.01179 0.0578 0.13485 0.0
H790 H 0.04517 0.03763 0.16116 0.0
H791 H 0.06131 0.05245 0.13656 0.0
H792 H 0.15536 0.98864 0.20575 0.0
H793 H 0.1847 0.02941 0.14785 0.0
H794 H 0.11036 0.97077 0.15255 0.0
H795 H 0.0736 0.99564 0.17017 0.0
H796 H 0.11318 0.97497 0.19206 0.0
H797 H 0.14437 0.02007 0.08148 0.0
H798 H 0.16047 0.03853 0.09866 0.0
H799 H 0.10995 0.04593 0.09854 0.0
C800 C 0.9827 0.44345 0.46526 0.0
C801 C 0.01579 0.44348 0.47719 0.0
C802 C 0.98517 0.42479 0.44939 0.0
C803 C 0.02152 0.40524 0.44611 0.0
C804 C 0.05493 0.40479 0.45889 0.0
C805 C 0.05176 0.42404 0.47401 0.0
C806 C 0.94876 0.42632 0.43579 0.0
C807 C 0.09414 0.38417 0.45592 0.0
C808 C 0.01989 0.35102 0.42294 0.0
C809 C 0.0259 0.3508 0.39202 0.0
C810 C 0.01893 0.36846 0.44097 0.0
C811 C 0.02465 0.38588 0.4278 0.0
C812 C 0.03084 0.38566 0.39661 0.0
C813 C 0.03131 0.36816 0.37911 0.0
C814 C 0.01104 0.36853 0.47398 0.0
C815 C 0.03589 0.40428 0.38158 0.0
H816 H 0.95476 0.45844 0.46719 0.0
H817 H 0.07742 0.42396 0.48308 0.0
H818 H 0.95429 0.41795 0.41364 0.0
H819 H 0.93725 0.41771 0.45072 0.0
H820 H 0.92616 0.4442 0.43287 0.0
H821 H 0.11686 0.38596 0.4686 0.0
H822 H 0.09288 0.36887 0.46405 0.0
H823 H 0.10266 0.38129 0.43203 0.0
H824 H 0.01537 0.33771 0.43294 0.0
H825 H 0.03638 0.36793 0.35528 0.0
H826 H 0.98286 0.38344 0.47941 0.0
H827 H 0.03362 0.37012 0.48709 0.0
H828 H 0.01006 0.35293 0.48117 0.0
H829 H 0.00928 0.42073 0.38461 0.0
H830 H 0.04176 0.40123 0.35728 0.0
H831 H 0.06008 0.40587 0.3921 0.0
C832 C 0.71803 0.24277 0.59752 0.0
C833 C 0.70825 0.26047 0.57692 0.0
C834 C 0.69018 0.24221 0.61665 0.0
C835 C 0.65138 0.25973 0.61515 0.0
C836 C 0.64113 0.27741 0.59391 0.0
C837 C 0.66981 0.27771 0.57527 0.0
C838 C 0.70261 0.22317 0.63912 0.0
C839 C 0.60001 0.29623 0.59127 0.0
C840 C 0.57551 0.24847 0.65403 0.0
C841 C 0.57155 0.25936 0.68163 0.0
C842 C 0.60069 0.24886 0.63183 0.0
C843 C 0.62246 0.26036 0.63737 0.0
C844 C 0.61813 0.27161 0.665 0.0
C845 C 0.59278 0.271 0.68667 0.0
C846 C 0.60449 0.23665 0.60265 0.0
C847 C 0.64092 0.28394 0.67198 0.0
H848 H 0.7477 0.22932 0.59884 0.0
H849 H 0.66225 0.29155 0.55963 0.0
H850 H 0.69928 0.23014 0.66206 0.0
H851 H 0.6839 0.21498 0.63745 0.0
H852 H 0.73321 0.21001 0.636 0.0
H853 H 0.59617 0.30774 0.5722 0.0
H854 H 0.58 0.28899 0.58835 0.0
H855 H 0.59151 0.30638 0.61214 0.0
H856 H 0.55922 0.23947 0.64984 0.0
H857 H 0.58993 0.27957 0.70779 0.0
H858 H 0.63429 0.22237 0.60038 0.0
H859 H 0.59958 0.2483 0.58358 0.0
H860 H 0.58377 0.22979 0.60096 0.0
H861 H 0.67235 0.27179 0.67164 0.0
H862 H 0.63347 0.29237 0.69416 0.0
H863 H 0.63552 0.29697 0.65467 0.0
C864 C 0.71768 0.91665 0.92622 0.0
C865 C 0.7182 0.91514 0.89494 0.0
C866 C 0.71849 0.89917 0.94413 0.0
C867 C 0.7194 0.87986 0.93043 0.0
C868 C 0.71999 0.87825 0.89887 0.0
C869 C 0.71945 0.89587 0.88154 0.0
C870 C 0.71828 0.90138 0.97769 0.0
C871 C 0.72145 0.85783 0.8834 0.0
C872 C 0.76069 0.82399 0.97241 0.0
C873 C 0.72721 0.82249 0.98001 0.0
C874 C 0.7584 0.84272 0.95672 0.0
C875 C 0.72176 0.86074 0.94897 0.0
C876 C 0.68778 0.85984 0.95758 0.0
C877 C 0.6909 0.84064 0.97282 0.0
C878 C 0.79527 0.84287 0.9474 0.0
C879 C 0.64819 0.87879 0.94971 0.0
H880 H 0.71694 0.93144 0.9367 0.0
H881 H 0.71927 0.89475 0.85738 0.0
H882 H 0.69101 0.9027 0.9868 0.0
H883 H 0.74248 0.88602 0.98762 0.0
H884 H 0.72075 0.91652 0.98488 0.0
H885 H 0.72176 0.85916 0.85867 0.0
H886 H 0.74773 0.84226 0.89046 0.0
H887 H 0.69608 0.85575 0.89 0.0
H888 H 0.789 0.81008 0.97761 0.0
H889 H 0.66491 0.83964 0.97848 0.0
H890 H 0.7962 0.85786 0.95705 0.0
H891 H 0.79618 0.84424 0.92275 0.0
H892 H 0.82148 0.82731 0.95449 0.0
H893 H 0.64514 0.89527 0.95755 0.0
H894 H 0.62462 0.87624 0.95965 0.0
H895 H 0.64457 0.87991 0.92508 0.0
C896 C 0.16211 0.28081 0.07135 0.0
C897 C 0.20018 0.26317 0.07352 0.0
C898 C 0.13295 0.28165 0.09052 0.0
C899 C 0.14225 0.26457 0.11253 0.0
C900 C 0.18057 0.2465 0.11429 0.0
C901 C 0.20896 0.24606 0.09486 0.0
C902 C 0.09241 0.30107 0.08767 0.0
C903 C 0.19193 0.2279 0.1373 0.0
C904 C 0.08476 0.27739 0.1849 0.0
C905 C 0.06282 0.26607 0.18074 0.0
C906 C 0.10973 0.27759 0.16255 0.0
C907 C 0.11293 0.26625 0.13517 0.0
C908 C 0.09007 0.25532 0.13047 0.0
C909 C 0.06536 0.25531 0.1533 0.0
C910 C 0.1336 0.28939 0.16865 0.0
C911 C 0.09245 0.24315 0.10161 0.0
H912 H 0.15527 0.29416 0.05506 0.0
H913 H 0.2383 0.23225 0.0965 0.0
H914 H 0.07138 0.29449 0.08557 0.0
H915 H 0.08475 0.31166 0.10814 0.0
H916 H 0.08919 0.312 0.06806 0.0
H917 H 0.22235 0.21437 0.13459 0.0
H918 H 0.18853 0.23519 0.16005 0.0
H919 H 0.17263 0.22009 0.13578 0.0
H920 H 0.08301 0.28585 0.20592 0.0
H921 H 0.04846 0.24659 0.14976 0.0
H922 H 0.1291 0.30184 0.15071 0.0
H923 H 0.16479 0.27677 0.16871 0.0
H924 H 0.12635 0.2984 0.19045 0.0
H925 H 0.08699 0.25477 0.08242 0.0
H926 H 0.07141 0.23647 0.10072 0.0
H927 H 0.12202 0.22876 0.09891 0.0
C928 C 0.70185 0.40053 0.37716 0.0
C929 C 0.71022 0.41718 0.38872 0.0
C930 C 0.7046 0.38261 0.39503 0.0
C931 C 0.71568 0.38135 0.42536 0.0
C932 C 0.72444 0.398 0.43719 0.0
C933 C 0.72177 0.41568 0.41869 0.0
C934 C 0.69689 0.36458 0.38118 0.0
C935 C 0.73735 0.39693 0.46919 0.0
C936 C 0.6931 0.3428 0.47495 0.0
C937 C 0.72907 0.32317 0.47595 0.0
C938 C 0.68861 0.36222 0.45945 0.0
C939 C 0.72055 0.36169 0.44394 0.0
C940 C 0.75687 0.34189 0.44494 0.0
C941 C 0.76076 0.32308 0.46126 0.0
C942 C 0.64964 0.38322 0.45931 0.0
C943 C 0.79184 0.34022 0.42865 0.0
H944 H 0.69371 0.40131 0.35387 0.0
H945 H 0.72815 0.42852 0.42781 0.0
H946 H 0.72351 0.34792 0.38229 0.0
H947 H 0.67407 0.36297 0.39389 0.0
H948 H 0.68768 0.3683 0.35746 0.0
H949 H 0.76784 0.38343 0.47133 0.0
H950 H 0.73558 0.41323 0.47659 0.0
H951 H 0.71956 0.39259 0.48444 0.0
H952 H 0.66854 0.34296 0.48623 0.0
H953 H 0.78858 0.30789 0.46145 0.0
H954 H 0.63803 0.3869 0.43621 0.0
H955 H 0.65269 0.39806 0.46699 0.0
H956 H 0.62836 0.3814 0.47387 0.0
H957 H 0.78395 0.34992 0.40742 0.0
H958 H 0.81273 0.32232 0.42339 0.0
H959 H 0.80666 0.34717 0.44311 0.0
C960 C 0.57833 0.98992 0.57421 0.0
C961 C 0.5395 1.00646 0.57677 0.0
C962 C 0.60674 0.9901 0.59327 0.0
C963 C 0.59581 1.00691 0.61582 0.0
C964 C 0.55662 0.02378 0.61818 0.0
C965 C 0.52908 0.02344 0.5985 0.0
C966 C 0.64825 0.97197 0.58978 0.0
C967 C 0.54354 0.04198 0.64188 0.0
C968 C 0.65417 0.99387 0.68764 0.0
C969 C 0.67398 1.00652 0.68423 0.0
C970 C 0.62952 0.99344 0.66524 0.0
C971 C 0.62444 1.00591 0.63856 0.0
C972 C 0.64486 0.01839 0.63464 0.0
C973 C 0.6694 0.01856 0.65752 0.0
C974 C 0.60797 0.98013 0.67055 0.0
C975 C 0.64047 0.03172 0.6064 0.0
H976 H 0.5864 0.9766 0.55772 0.0
H977 H 0.49913 0.03643 0.60039 0.0
H978 H 0.66757 0.9798 0.58845 0.0
H979 H 0.65719 0.96069 0.60963 0.0
H980 H 0.6526 0.96146 0.5695 0.0
H981 H 0.5116 0.05269 0.64224 0.0
H982 H 0.55308 0.03424 0.6643 0.0
H983 H 0.55694 0.05306 0.63778 0.0
H984 H 0.65748 0.98444 0.70808 0.0
H985 H 0.68467 0.02831 0.65457 0.0
H986 H 0.61371 0.96788 0.65211 0.0
H987 H 0.57636 0.99185 0.67084 0.0
H988 H 0.6162 0.97064 0.692 0.0
H989 H 0.64799 0.02029 0.58678 0.0
H990 H 0.65914 0.04003 0.60635 0.0
H991 H 0.60992 0.04496 0.60361 0.0
C992 C 0.05051 0.92786 0.96978 0.0
C993 C 0.014 0.94568 0.9771 0.0
C994 C 0.05405 0.90872 0.95411 0.0
C995 C 0.02029 0.90757 0.94533 0.0
C996 C 0.98346 0.92531 0.95323 0.0
C997 C 0.98082 0.94403 0.96898 0.0
C998 C 0.09382 0.89004 0.94612 0.0
C999 C 0.94667 0.92496 0.94411 0.0
C1000 C 0.0237 0.87389 0.87617 0.0
C1001 C 0.02542 0.85418 0.88851 0.0
C1002 C 0.02257 0.89119 0.89446 0.0
C1003 C 0.0231 0.88879 0.92591 0.0
C1004 C 0.02455 0.869 0.93856 0.0
C1005 C 0.02584 0.85188 0.91969 0.0
C1006 C 0.02037 0.91218 0.88008 0.0
C1007 C 0.02431 0.86604 0.97198 0.0
H1008 H 0.07624 0.92902 0.97583 0.0
H1009 H 0.95233 0.95785 0.97389 0.0
H1010 H 0.09715 0.87339 0.9535 0.0
H1011 H 0.09752 0.88927 0.9215 0.0
H1012 H 0.11716 0.89265 0.95639 0.0
H1013 H 0.92028 0.94044 0.95137 0.0
H1014 H 0.94559 0.92357 0.91946 0.0
H1015 H 0.94604 0.90992 0.9539 0.0
H1016 H 0.02386 0.87563 0.8521 0.0
H1017 H 0.02678 0.83676 0.92931 0.0
H1018 H 0.04498 0.9147 0.8876 0.0
H1019 H 0.9934 0.92731 0.88716 0.0
H1020 H 0.02076 0.91129 0.85529 0.0
H1021 H 0.04756 0.86855 0.98254 0.0
H1022 H 0.02831 0.84901 0.97827 0.0
H1023 H -0.00363 0.87906 0.98134 0.0
C1024 C 0.14419 0.08678 1.0018 0.0
C1025 C 0.11185 0.08582 0.01334 0.0
C1026 C 0.1465 0.10705 1.00275 0.0
C1027 C 0.11609 0.12656 0.01605 0.0
C1028 C 0.08493 0.12513 0.02981 0.0
C1029 C 0.08281 0.1049 0.02773 0.0
C1030 C 0.18012 0.10799 0.98773 0.0
C1031 C 0.05261 0.14528 0.0452 0.0
C1032 C 0.13388 0.17677 0.02939 0.0
C1033 C 0.11561 0.19052 0.00446 0.0
C1034 C 0.13303 0.15628 0.03412 0.0
C1035 C 0.11487 0.14893 0.01282 0.0
C1036 C 0.09563 0.16286 0.98805 0.0
C1037 C 0.09565 0.18363 0.98447 0.0
C1038 C 0.1518 0.14238 0.0617 0.0
C1039 C 0.07541 0.15568 0.96506 0.0
H1040 H 0.1665 0.07212 0.9904 0.0
H1041 H 0.05771 0.10423 0.03646 0.0
H1042 H 0.16985 0.11822 0.96698 0.0
H1043 H 0.1922 0.11642 1.00239 0.0
H1044 H 0.20361 0.09084 0.9818 0.0
H1045 H 0.03755 0.13988 0.06174 0.0
H1046 H 0.06342 0.15577 0.05688 0.0
H1047 H 0.03119 0.15615 0.02826 0.0
H1048 H 0.1496 0.18169 0.04494 0.0
H1049 H 0.08021 0.19437 0.96574 0.0
H1050 H 0.17839 0.12675 0.05534 0.0
H1051 H 0.13217 0.13696 0.07265 0.0
H1052 H 0.15945 0.1519 0.07826 0.0
H1053 H 0.09617 0.13908 0.95528 0.0
H1054 H 0.06259 0.16824 0.94668 0.0
H1055 H 0.052 0.15346 0.97586 0.0
C1056 C 0.66777 0.58732 0.23005 0.0
C1057 C 0.66631 0.57618 0.25614 0.0
C1058 C 0.64811 0.61125 0.22815 0.0
C1059 C 0.62741 0.62435 0.25329 0.0
C1060 C 0.62665 0.61301 0.27986 0.0
C1061 C 0.64554 0.58912 0.28077 0.0
C1062 C 0.64918 0.62246 0.19917 0.0
C1063 C 0.60608 0.62611 0.30749 0.0
C1064 C 0.60836 0.68569 0.26047 0.0
C1065 C 0.56844 0.69814 0.25497 0.0
C1066 C 0.62787 0.6618 0.25972 0.0
C1067 C 0.60734 0.64987 0.25231 0.0
C1068 C 0.56721 0.66241 0.24572 0.0
C1069 C 0.54812 0.68634 0.24775 0.0
C1070 C 0.67027 0.6493 0.26782 0.0
C1071 C 0.54438 0.65055 0.23666 0.0
H1072 H 0.68345 0.57728 0.21086 0.0
H1073 H 0.64435 0.58049 0.30094 0.0
H1074 H 0.61939 0.63485 0.19219 0.0
H1075 H 0.66554 0.63199 0.20229 0.0
H1076 H 0.66306 0.60996 0.18089 0.0
H1077 H 0.60927 0.61479 0.32665 0.0
H1078 H 0.6177 0.63768 0.3141 0.0
H1079 H 0.57481 0.63678 0.30277 0.0
H1080 H 0.62434 0.69464 0.26618 0.0
H1081 H 0.51726 0.69582 0.24373 0.0
H1082 H 0.68723 0.63801 0.24925 0.0
H1083 H 0.6745 0.63839 0.28763 0.0
H1084 H 0.68215 0.66103 0.27294 0.0
H1085 H 0.55862 0.63913 0.21744 0.0
H1086 H 0.51413 0.6627 0.23034 0.0
H1087 H 0.5437 0.63985 0.25533 0.0
C1088 C 0.34569 0.84814 0.48722 0.0
C1089 C 0.38057 0.8278 0.48723 0.0
C1090 C 0.34536 0.86913 0.48632 0.0
C1091 C 0.38079 0.86978 0.48413 0.0
C1092 C 0.41607 0.84923 0.48214 0.0
C1093 C 0.41561 0.82839 0.48437 0.0
C1094 C 0.30691 0.89047 0.4885 0.0
C1095 C 0.45429 0.84929 0.47878 0.0
C1096 C 0.37087 0.9279 0.46667 0.0
C1097 C 0.37339 0.93561 0.49534 0.0
C1098 C 0.37489 0.90609 0.46238 0.0
C1099 C 0.38092 0.89184 0.48739 0.0
C1100 C 0.38353 0.89953 0.51632 0.0
C1101 C 0.37992 0.92122 0.51991 0.0
C1102 C 0.37218 0.89841 0.43121 0.0
C1103 C 0.38908 0.88507 0.54367 0.0
H1104 H 0.31858 0.84764 0.48942 0.0
H1105 H 0.44255 0.81259 0.48416 0.0
H1106 H 0.30904 0.9043 0.50054 0.0
H1107 H 0.2961 0.89656 0.46561 0.0
H1108 H 0.28519 0.88717 0.50026 0.0
H1109 H 0.47818 0.83222 0.47305 0.0
H1110 H 0.45235 0.86147 0.46117 0.0
H1111 H 0.46168 0.85488 0.50001 0.0
H1112 H 0.36562 0.93895 0.44758 0.0
H1113 H 0.38291 0.92675 0.54204 0.0
H1114 H 0.34553 0.89668 0.4292 0.0
H1115 H 0.39718 0.8815 0.42668 0.0
H1116 H 0.37142 0.91051 0.4139 0.0
H1117 H 0.3642 0.88163 0.546 0.0
H1118 H 0.39156 0.89331 0.5645 0.0
H1119 H 0.41555 0.86847 0.54126 0.0
C1120 C 0.07236 0.68542 0.73424 0.0
C1121 C 0.06568 0.69514 0.76286 0.0
C1122 C 0.09342 0.66162 0.73026 0.0
C1123 C 0.10799 0.64709 0.7555 0.0
C1124 C 0.10103 0.65692 0.7844 0.0
C1125 C 0.08016 0.68068 0.78768 0.0
C1126 C 0.10009 0.65202 0.69904 0.0
C1127 C 0.11541 0.6423 0.81203 0.0
C1128 C 0.12867 0.5852 0.75269 0.0
C1129 C 0.1693 0.57319 0.75247 0.0
C1130 C 0.10848 0.60912 0.75272 0.0
C1131 C 0.12922 0.62161 0.75214 0.0
C1132 C 0.17029 0.60956 0.75068 0.0
C1133 C 0.1898 0.58555 0.75111 0.0
C1134 C 0.06485 0.62102 0.75444 0.0
C1135 C 0.19372 0.62202 0.74946 0.0
H1136 H 0.06129 0.69642 0.71491 0.0
H1137 H 0.07509 0.68798 0.8099 0.0
H1138 H 0.13158 0.64164 0.69485 0.0
H1139 H 0.08699 0.64063 0.6966 0.0
H1140 H 0.08758 0.6655 0.68173 0.0
H1141 H 0.10792 0.65251 0.83288 0.0
H1142 H 0.10273 0.63063 0.81317 0.0
H1143 H 0.1473 0.63168 0.81099 0.0
H1144 H 0.11248 0.57586 0.75359 0.0
H1145 H 0.22116 0.57646 0.75089 0.0
H1146 H 0.05228 0.63363 0.73615 0.0
H1147 H 0.05534 0.63043 0.77585 0.0
H1148 H 0.05286 0.609 0.753 0.0
H1149 H 0.18255 0.6351 0.73164 0.0
H1150 H 0.22488 0.6104 0.74525 0.0
H1151 H 0.19091 0.63091 0.77096 0.0
C1152 C 0.89277 0.33525 0.47381 0.0
C1153 C 0.87003 0.33273 0.49614 0.0
C1154 C 0.89258 0.35614 0.46964 0.0
C1155 C 0.86888 0.37483 0.48808 0.0
C1156 C 0.84393 0.37269 0.50916 0.0
C1157 C 0.84493 0.35167 0.51299 0.0
C1158 C 0.91879 0.35801 0.44642 0.0
C1159 C 0.81742 0.39235 0.52869 0.0
C1160 C 0.89931 0.41795 0.51286 0.0
C1161 C 0.87303 0.43748 0.49753 0.0
C1162 C 0.89976 0.39712 0.50851 0.0
C1163 C 0.87326 0.39572 0.48828 0.0
C1164 C 0.8483 0.41503 0.47126 0.0
C1165 C 0.84844 0.43575 0.47613 0.0
C1166 C 0.92734 0.37688 0.52677 0.0
C1167 C 0.81984 0.41434 0.44918 0.0
H1168 H 0.91178 0.32068 0.46045 0.0
H1169 H 0.82644 0.34992 0.52961 0.0
H1170 H 0.90201 0.37285 0.43172 0.0
H1171 H 0.94134 0.36086 0.45755 0.0
H1172 H 0.93325 0.34252 0.43238 0.0
H1173 H 0.79782 0.38836 0.54238 0.0
H1174 H 0.83493 0.39692 0.54393 0.0
H1175 H 0.79955 0.40745 0.51474 0.0
H1176 H 0.91928 0.41903 0.52868 0.0
H1177 H 0.82831 0.45076 0.46399 0.0
H1178 H 0.94328 0.36188 0.51219 0.0
H1179 H 0.91071 0.37251 0.54317 0.0
H1180 H 0.94871 0.38017 0.53914 0.0
H1181 H 0.83115 0.39747 0.43839 0.0
H1182 H 0.81232 0.42746 0.43155 0.0
H1183 H 0.79283 0.41789 0.46113 0.0
C1184 C 0.32542 0.93237 0.21713 0.0
C1185 C 0.31049 0.94666 0.24202 0.0
C1186 C 0.34635 0.90863 0.22025 0.0
C1187 C 0.3528 0.89867 0.24906 0.0
C1188 C 0.33776 0.91302 0.27438 0.0
C1189 C 0.3167 0.93682 0.27056 0.0
C1190 C 0.36131 0.89416 0.19255 0.0
C1191 C 0.34389 0.90323 0.30549 0.0
C1192 C 0.37305 0.83696 0.25017 0.0
C1193 C 0.41365 0.82491 0.25078 0.0
C1194 C 0.35297 0.86084 0.2507 0.0
C1195 C 0.37383 0.87323 0.25217 0.0
C1196 C 0.41486 0.86112 0.2541 0.0
C1197 C 0.43427 0.83714 0.25324 0.0
C1198 C 0.30937 0.87283 0.24852 0.0
C1199 C 0.43832 0.87353 0.25622 0.0
H1200 H 0.32071 0.93979 0.19499 0.0
H1201 H 0.30529 0.94772 0.28993 0.0
H1202 H 0.39316 0.88346 0.19402 0.0
H1203 H 0.34854 0.88256 0.19082 0.0
H1204 H 0.35438 0.90448 0.17182 0.0
H1205 H 0.331 0.91661 0.32289 0.0
H1206 H 0.33083 0.89179 0.30742 0.0
H1207 H 0.3753 0.89288 0.31002 0.0
H1208 H 0.3568 0.82768 0.24849 0.0
H1209 H 0.46561 0.82799 0.25397 0.0
H1210 H 0.30027 0.88234 0.22714 0.0
H1211 H 0.29654 0.88536 0.26685 0.0
H1212 H 0.29726 0.86085 0.24953 0.0
H1213 H 0.43489 0.88329 0.23537 0.0
H1214 H 0.4696 0.86179 0.25973 0.0
H1215 H 0.4276 0.88589 0.27489 0.0
C1216 C 0.36548 0.43312 0.7517 0.0
C1217 C 0.32484 0.44506 0.75162 0.0
C1218 C 0.3858 0.40921 0.75197 0.0
C1219 C 0.36518 0.39666 0.75252 0.0
C1220 C 0.32409 0.40865 0.75374 0.0
C1221 C 0.30444 0.43265 0.75304 0.0
C1222 C 0.42945 0.39738 0.75053 0.0
C1223 C 0.3008 0.3961 0.75494 0.0
C1224 C 0.41495 0.33756 0.71714 0.0
C1225 C 0.42931 0.32315 0.74201 0.0
C1226 C 0.39383 0.36131 0.72036 0.0
C1227 C 0.38657 0.37118 0.74925 0.0
C1228 C 0.40105 0.3567 0.77454 0.0
C1229 C 0.42225 0.3329 0.77062 0.0
C1230 C 0.37955 0.37589 0.69269 0.0
C1231 C 0.39424 0.36634 0.80574 0.0
H1232 H 0.3816 0.44251 0.7508 0.0
H1233 H 0.27308 0.44169 0.75311 0.0
H1234 H 0.4419 0.38479 0.76885 0.0
H1235 H 0.43923 0.38796 0.72915 0.0
H1236 H 0.44132 0.40946 0.75211 0.0
H1237 H 0.26956 0.40769 0.75892 0.0
H1238 H 0.30391 0.38705 0.73353 0.0
H1239 H 0.31184 0.38314 0.77293 0.0
H1240 H 0.42029 0.33024 0.69494 0.0
H1241 H 0.43317 0.32192 0.78998 0.0
H1242 H 0.39215 0.3876 0.6916 0.0
H1243 H 0.34764 0.38647 0.69362 0.0
H1244 H 0.38722 0.36565 0.67186 0.0
H1245 H 0.40792 0.37741 0.80835 0.0
H1246 H 0.40616 0.35287 0.8231 0.0
H1247 H 0.36276 0.37704 0.80971 0.0
C1248 C 0.16192 0.7815 0.57469 0.0
C1249 C 0.2008 0.76486 0.57622 0.0
C1250 C 0.13407 0.78065 0.59374 0.0
C1251 C 0.14557 0.76295 0.6151 0.0
C1252 C 0.18477 0.74595 0.61632 0.0
C1253 C 0.21179 0.74709 0.59685 0.0
C1254 C 0.09249 0.7989 0.59142 0.0
C1255 C 0.19835 0.72665 0.63846 0.0
C1256 C 0.08828 0.77315 0.68713 0.0
C1257 C 0.06789 0.76099 0.68226 0.0
C1258 C 0.11295 0.77425 0.66524 0.0
C1259 C 0.11748 0.76294 0.63763 0.0
C1260 C 0.09677 0.75078 0.63241 0.0
C1261 C 0.07211 0.75001 0.65473 0.0
C1262 C 0.13486 0.78714 0.67195 0.0
C1263 C 0.10045 0.73868 0.60321 0.0
H1264 H 0.15341 0.79534 0.55891 0.0
H1265 H 0.24176 0.734 0.59788 0.0
H1266 H 0.07333 0.7911 0.58837 0.0
H1267 H 0.08365 0.80884 0.61245 0.0
H1268 H 0.08781 0.8107 0.57253 0.0
H1269 H 0.23016 0.71549 0.63757 0.0
H1270 H 0.19038 0.73337 0.66151 0.0
H1271 H 0.18385 0.71623 0.63382 0.0
H1272 H 0.08524 0.78176 0.70824 0.0
H1273 H 0.05634 0.74068 0.65064 0.0
H1274 H 0.12873 0.80024 0.65458 0.0
H1275 H 0.16644 0.77536 0.67148 0.0
H1276 H 0.12729 0.79558 0.69414 0.0
H1277 H 0.08713 0.75144 0.58518 0.0
H1278 H 0.08589 0.72795 0.60382 0.0
H1279 H 0.13132 0.72785 0.59728 0.0
C1280 C 0.18236 0.90394 0.37077 0.0
C1281 C 0.18968 0.92109 0.38196 0.0
C1282 C 0.1847 0.88642 0.38929 0.0
C1283 C 0.19442 0.88611 0.4198 0.0
C1284 C 0.20109 0.90363 0.43136 0.0
C1285 C 0.1988 0.92089 0.41227 0.0
C1286 C 0.17852 0.8677 0.37589 0.0
C1287 C 0.21073 0.90408 0.46388 0.0
C1288 C 0.17806 0.84632 0.47172 0.0
C1289 C 0.21519 0.82757 0.47279 0.0
C1290 C 0.1709 0.86578 0.45509 0.0
C1291 C 0.20143 0.86624 0.43874 0.0
C1292 C 0.23889 0.84733 0.43973 0.0
C1293 C 0.24535 0.82844 0.45703 0.0
C1294 C 0.13058 0.88564 0.45447 0.0
C1295 C 0.27237 0.84687 0.4225 0.0
H1296 H 0.17574 0.90389 0.34726 0.0
H1297 H 0.20388 0.93432 0.42108 0.0
H1298 H 0.2061 0.85154 0.37648 0.0
H1299 H 0.15707 0.86515 0.3892 0.0
H1300 H 0.16835 0.8713 0.35237 0.0
H1301 H 0.23468 0.88737 0.47068 0.0
H1302 H 0.21902 0.91746 0.46877 0.0
H1303 H 0.18525 0.90725 0.47776 0.0
H1304 H 0.15457 0.84572 0.48368 0.0
H1305 H 0.27391 0.81393 0.45717 0.0
H1306 H 0.11908 0.88842 0.43133 0.0
H1307 H 0.13125 0.90133 0.46148 0.0
H1308 H 0.11038 0.88299 0.4693 0.0
H1309 H 0.26323 0.85508 0.40032 0.0
H1310 H 0.2957 0.82926 0.41885 0.0
H1311 H 0.28449 0.85623 0.43529 0.0
C1312 C 0.96835 0.66621 0.58863 0.0
C1313 C 0.96498 0.66414 0.61955 0.0
C1314 C 0.97028 0.64936 0.56886 0.0
C1315 C 0.96924 0.62994 0.58036 0.0
C1316 C 0.96713 0.62748 0.61162 0.0
C1317 C 0.96489 0.64461 0.63077 0.0
C1318 C 0.97287 0.65248 0.53569 0.0
C1319 C 0.9671 0.60674 0.62488 0.0
C1320 C 0.93844 0.59312 0.53505 0.0
C1321 C 0.97425 0.57434 0.52862 0.0
C1322 C 0.9364 0.61199 0.55046 0.0
C1323 C 0.97094 0.61186 0.56007 0.0
C1324 C 0.00714 0.59324 0.55283 0.0
C1325 C 0.00833 0.57487 0.53705 0.0
C1326 C 0.89725 0.63165 0.55758 0.0
C1327 C 0.04467 0.59213 0.5631 0.0
H1328 H 0.96834 0.6813 0.57985 0.0
H1329 H 0.96301 0.64274 0.65469 0.0
H1330 H 0.00054 0.63879 0.52691 0.0
H1331 H 0.94912 0.65119 0.52391 0.0
H1332 H 0.9712 0.6691 0.53023 0.0
H1333 H 0.96773 0.60676 0.6497 0.0
H1334 H 0.94086 0.60587 0.61753 0.0
H1335 H 0.99254 0.59117 0.61675 0.0
H1336 H 0.91203 0.59285 0.52868 0.0
H1337 H 0.03626 0.56034 0.53271 0.0
H1338 H 0.89633 0.64791 0.55116 0.0
H1339 H 0.89204 0.63226 0.58201 0.0
H1340 H 0.87345 0.63029 0.54594 0.0
H1341 H 0.04759 0.60653 0.55354 0.0
H1342 H 0.07031 0.57603 0.55647 0.0
H1343 H 0.0448 0.59363 0.58778 0.0
C1344 C 0.32702 0.74116 0.43288 0.0
C1345 C 0.28859 0.75843 0.43159 0.0
C1346 C 0.35518 0.74121 0.41341 0.0
C1347 C 0.34448 0.75887 0.39207 0.0
C1348 C 0.3059 0.77671 0.39145 0.0
C1349 C 0.27847 0.7762 0.41108 0.0
C1350 C 0.39613 0.72211 0.41516 0.0
C1351 C 0.29314 0.79598 0.36932 0.0
C1352 C 0.41934 0.76912 0.34999 0.0
C1353 C 0.42119 0.7586 0.32247 0.0
C1354 C 0.39545 0.76878 0.37322 0.0
C1355 C 0.37254 0.75786 0.36879 0.0
C1356 C 0.37478 0.74693 0.34122 0.0
C1357 C 0.39907 0.74738 0.3185 0.0
C1358 C 0.39391 0.7807 0.40216 0.0
C1359 C 0.35081 0.73514 0.33544 0.0
H1360 H 0.33486 0.72736 0.44862 0.0
H1361 H 0.24885 0.78976 0.41022 0.0
H1362 H 0.40334 0.71193 0.39433 0.0
H1363 H 0.41671 0.72903 0.41709 0.0
H1364 H 0.4005 0.71069 0.43446 0.0
H1365 H 0.26326 0.80964 0.37376 0.0
H1366 H 0.31301 0.80344 0.36992 0.0
H1367 H 0.2942 0.78942 0.34639 0.0
H1368 H 0.43635 0.7778 0.35336 0.0
H1369 H 0.40026 0.73914 0.2974 0.0
H1370 H 0.39576 0.7699 0.42154 0.0
H1371 H 0.36587 0.79649 0.4036 0.0
H1372 H 0.41756 0.7853 0.40388 0.0
H1373 H 0.35645 0.72221 0.35296 0.0
H1374 H 0.35694 0.7267 0.31327 0.0
H1375 H 0.31959 0.74765 0.33651 0.0
C1376 C 0.29907 0.11815 0.13092 0.0
C1377 C 0.28725 0.10252 0.12102 0.0
C1378 C 0.29671 0.13558 0.11223 0.0
C1379 C 0.28251 0.13734 0.08275 0.0
C1380 C 0.2708 0.12151 0.0725 0.0
C1381 C 0.273 0.10438 0.09186 0.0
C1382 C 0.3088 0.15236 0.12423 0.0
C1383 C 0.25573 0.12281 0.04115 0.0
C1384 C 0.23794 0.19561 0.04692 0.0
C1385 C 0.26857 0.19443 0.02952 0.0
C1386 C 0.24221 0.17717 0.06426 0.0
C1387 C 0.2775 0.15666 0.06342 0.0
C1388 C 0.30818 0.15507 0.04513 0.0
C1389 C 0.30357 0.17414 0.02873 0.0
C1390 C 0.20957 0.18005 0.08464 0.0
C1391 C 0.34614 0.13342 0.04352 0.0
H1392 H 0.30965 0.11694 0.15358 0.0
H1393 H 0.26411 0.09224 0.08406 0.0
H1394 H 0.33139 0.1527 0.1097 0.0
H1395 H 0.28374 0.16969 0.12408 0.0
H1396 H 0.32022 0.14824 0.14739 0.0
H1397 H 0.24947 0.10863 0.03616 0.0
H1398 H 0.22887 0.13912 0.03798 0.0
H1399 H 0.2772 0.12242 0.02473 0.0
H1400 H 0.21102 0.21139 0.04818 0.0
H1401 H 0.32734 0.17324 0.01543 0.0
H1402 H 0.21817 0.18013 0.10822 0.0
H1403 H 0.20354 0.1656 0.08213 0.0
H1404 H 0.18262 0.1961 0.08027 0.0
H1405 H 0.36051 0.12972 0.06567 0.0
H1406 H 0.3661 0.13443 0.02673 0.0
H1407 H 0.34101 0.11895 0.03776 0.0
C1408 C 0.78204 0.77296 0.91028 0.0
C1409 C 0.79213 0.75541 0.93116 0.0
C1410 C 0.80939 0.77318 0.89034 0.0
C1411 C 0.8481 0.75553 0.89141 0.0
C1412 C 0.85875 0.73803 0.91299 0.0
C1413 C 0.83052 0.73809 0.93251 0.0
C1414 C 0.79666 0.79226 0.86789 0.0
C1415 C 0.89979 0.71906 0.9151 0.0
C1416 C 0.90452 0.74514 0.81885 0.0
C1417 C 0.92536 0.75705 0.8236 0.0
C1418 C 0.88021 0.74398 0.84104 0.0
C1419 C 0.87657 0.75495 0.86881 0.0
C1420 C 0.89803 0.76667 0.87396 0.0
C1421 C 0.92219 0.76756 0.85134 0.0
C1422 C 0.85751 0.73154 0.83442 0.0
C1423 C 0.89528 0.77838 0.90332 0.0
H1424 H 0.75247 0.78657 0.90935 0.0
H1425 H 0.83832 0.7244 0.94842 0.0
H1426 H 0.81171 0.80239 0.87243 0.0
H1427 H 0.80462 0.78532 0.84494 0.0
H1428 H 0.76495 0.80375 0.86858 0.0
H1429 H 0.90392 0.70752 0.9342 0.0
H1430 H 0.90765 0.70898 0.89417 0.0
H1431 H 0.92007 0.72614 0.91762 0.0
H1432 H 0.9068 0.73687 0.79758 0.0
H1433 H 0.93835 0.77667 0.85536 0.0
H1434 H 0.82607 0.74368 0.83475 0.0
H1435 H 0.86298 0.71862 0.85191 0.0
H1436 H 0.86493 0.72299 0.81231 0.0
H1437 H 0.86475 0.79086 0.90814 0.0
H1438 H 0.91295 0.78732 0.9036 0.0
H1439 H 0.90534 0.76566 0.92159 0.0
C1440 C 0.2775 0.62156 0.63112 0.0
C1441 C 0.27905 0.60264 0.61646 0.0
C1442 C 0.27729 0.6396 0.61498 0.0
C1443 C 0.27845 0.63877 0.58337 0.0
C1444 C 0.27998 0.61973 0.56842 0.0
C1445 C 0.28038 0.60186 0.58513 0.0
C1446 C 0.27519 0.65971 0.63177 0.0
C1447 C 0.28093 0.61835 0.53476 0.0
C1448 C 0.23585 0.69491 0.54214 0.0
C1449 C 0.26898 0.69674 0.53436 0.0
C1450 C 0.23866 0.67618 0.55805 0.0
C1451 C 0.27554 0.65848 0.56595 0.0
C1452 C 0.3092 0.65988 0.55768 0.0
C1453 C 0.30552 0.67911 0.54217 0.0
C1454 C 0.20205 0.6756 0.56707 0.0
C1455 C 0.349 0.64129 0.56579 0.0
H1456 H 0.27705 0.62212 0.65533 0.0
H1457 H 0.28131 0.58735 0.57367 0.0
H1458 H 0.29859 0.66338 0.62433 0.0
H1459 H 0.24727 0.67493 0.62682 0.0
H1460 H 0.27751 0.65697 0.65633 0.0
H1461 H 0.28062 0.60279 0.52648 0.0
H1462 H 0.25573 0.63342 0.52524 0.0
H1463 H 0.30737 0.61848 0.52628 0.0
H1464 H 0.20733 0.70851 0.53666 0.0
H1465 H 0.33119 0.68043 0.53642 0.0
H1466 H 0.1756 0.69074 0.55921 0.0
H1467 H 0.20052 0.67479 0.59175 0.0
H1468 H 0.20216 0.66016 0.558 0.0
H1469 H 0.35191 0.63967 0.59045 0.0
H1470 H 0.37232 0.64454 0.55688 0.0
H1471 H 0.3532 0.62478 0.55701 0.0
C1472 C 0.33567 0.0208 0.3212 0.0
C1473 C 0.31319 0.00982 0.32536 0.0
C1474 C 0.36078 0.02076 0.34356 0.0
C1475 C 0.36359 0.00954 0.371 0.0
C1476 C 0.34063 0.99866 0.37562 0.0
C1477 C 0.31574 0.9989 0.35273 0.0
C1478 C 0.38495 0.0324 0.33753 0.0
C1479 C 0.34286 0.98644 0.40452 0.0
C1480 C 0.45822 0.99091 0.41278 0.0
C1481 C 0.4485 1.00875 0.43309 0.0
C1482 C 0.43055 0.99054 0.39325 0.0
C1483 C 0.392 1.00843 0.39407 0.0
C1484 C 0.38171 0.02612 0.41527 0.0
C1485 C 0.4102 0.02619 0.43436 0.0
C1486 C 0.44297 0.97139 0.37101 0.0
C1487 C 0.34083 0.04529 0.41724 0.0
H1488 H 0.33397 0.02934 0.30025 0.0
H1489 H 0.29854 0.99036 0.35623 0.0
H1490 H 0.37948 0.04538 0.35492 0.0
H1491 H 0.41614 0.01983 0.33861 0.0
H1492 H 0.37882 0.04077 0.31529 0.0
H1493 H 0.32066 0.98066 0.40576 0.0
H1494 H 0.37185 0.97139 0.40668 0.0
H1495 H 0.33912 0.99764 0.42388 0.0
H1496 H 0.48775 0.97725 0.41188 0.0
H1497 H 0.40267 0.04011 0.44982 0.0
H1498 H 0.44 0.97819 0.34799 0.0
H1499 H 0.42401 0.96336 0.37268 0.0
H1500 H 0.47345 0.95813 0.37439 0.0
H1501 H 0.33355 0.05561 0.39652 0.0
H1502 H 0.33668 0.05656 0.43664 0.0
H1503 H 0.32015 0.03843 0.41911 0.0
C1504 C 0.9021 0.82767 0.98833 0.0
C1505 C 0.87205 0.82652 1.00378 0.0
C1506 C 0.90244 0.84845 0.98509 0.0
C1507 C 0.87175 0.86842 0.9973 0.0
C1508 C 0.84012 0.86748 0.0111 0.0
C1509 C 0.84077 0.84652 0.0143 0.0
C1510 C 0.9368 0.84879 0.97042 0.0
C1511 C 0.80658 0.88845 0.02396 0.0
C1512 C 0.89225 0.91367 0.02975 0.0
C1513 C 0.87734 0.93069 0.00784 0.0
C1514 C 0.89187 0.89307 0.0259 0.0
C1515 C 0.87517 0.8895 0.99981 0.0
C1516 C 0.85981 0.90655 0.97756 0.0
C1517 C 0.8613 0.92695 0.98175 0.0
C1518 C 0.90862 0.87529 0.05018 0.0
C1519 C 0.84139 0.90337 0.94962 0.0
H1520 H 0.92614 0.81219 0.98 0.0
H1521 H 0.81696 0.84569 0.02546 0.0
H1522 H 0.92723 0.86315 0.95449 0.0
H1523 H 0.95467 0.85127 0.98774 0.0
H1524 H 0.9553 0.83273 0.95835 0.0
H1525 H 0.78317 0.88506 0.0323 0.0
H1526 H 0.81678 0.895 0.04279 0.0
H1527 H 0.79437 0.90202 0.00681 0.0
H1528 H 0.90382 0.91654 0.05032 0.0
H1529 H 0.8502 0.93985 0.9645 0.0
H1530 H 0.9303 0.85885 0.0406 0.0
H1531 H 0.88535 0.87258 0.06032 0.0
H1532 H 0.92273 0.88017 0.06818 0.0
H1533 H 0.8619 0.88756 0.938 0.0
H1534 H 0.8323 0.91785 0.93387 0.0
H1535 H 0.81561 0.90152 0.95563 0.0
C1536 C 0.63443 0.16955 0.47741 0.0
C1537 C 0.62935 0.18397 0.50166 0.0
C1538 C 0.63259 0.14935 0.48109 0.0
C1539 C 0.62431 0.1436 0.50961 0.0
C1540 C 0.61853 0.15815 0.53421 0.0
C1541 C 0.62143 0.17811 0.53 0.0
C1542 C 0.63889 0.13431 0.45423 0.0
C1543 C 0.60908 0.15271 0.56483 0.0
C1544 C 0.58228 0.10344 0.50261 0.0
C1545 C 0.61511 0.08233 0.50686 0.0
C1546 C 0.58425 0.12369 0.50559 0.0
C1547 C 0.62003 0.1228 0.5128 0.0
C1548 C 0.65281 0.10159 0.51882 0.0
C1549 C 0.64989 0.08155 0.51592 0.0
C1550 C 0.54835 0.14598 0.49986 0.0
C1551 C 0.69157 0.09995 0.52624 0.0
H1552 H 0.63962 0.17413 0.4553 0.0
H1553 H 0.61806 0.18893 0.54899 0.0
H1554 H 0.66178 0.11677 0.45907 0.0
H1555 H 0.61192 0.1335 0.44916 0.0
H1556 H 0.64741 0.14053 0.43404 0.0
H1557 H 0.6061 0.16558 0.58175 0.0
H1558 H 0.58162 0.15178 0.56395 0.0
H1559 H 0.63203 0.13586 0.57228 0.0
H1560 H 0.55509 0.10407 0.49641 0.0
H1561 H 0.67529 0.06524 0.51924 0.0
H1562 H 0.55413 0.15607 0.48288 0.0
H1563 H 0.53963 0.15608 0.52077 0.0
H1564 H 0.52377 0.14358 0.49189 0.0
H1565 H 0.70349 0.10402 0.50604 0.0
H1566 H 0.71273 0.08272 0.53408 0.0
H1567 H 0.68846 0.11246 0.5437 0.0
C1568 C 0.80337 0.43521 0.23727 0.0
C1569 C 0.8159 0.44816 0.25406 0.0
C1570 C 0.82404 0.41127 0.23757 0.0
C1571 C 0.8572 0.3999 0.25608 0.0
C1572 C 0.86887 0.41302 0.27407 0.0
C1573 C 0.84865 0.43693 0.27231 0.0
C1574 C 0.81112 0.39814 0.2173 0.0
C1575 C 0.90282 0.40181 0.29516 0.0
C1576 C 0.88856 0.3374 0.27272 0.0
C1577 C 0.9208 0.3261 0.25402 0.0
C1578 C 0.8686 0.3613 0.27452 0.0
C1579 C 0.87999 0.37437 0.25613 0.0
C1580 C 0.91271 0.36293 0.23723 0.0
C1581 C 0.93315 0.33898 0.23687 0.0
C1582 C 0.83515 0.37256 0.296 0.0
C1583 C 0.92532 0.376 0.21655 0.0
H1584 H 0.77832 0.44383 0.22288 0.0
H1585 H 0.85832 0.44691 0.28541 0.0
H1586 H 0.83504 0.38734 0.20196 0.0
H1587 H 0.80397 0.38669 0.23066 0.0
H1588 H 0.7854 0.40945 0.20374 0.0
H1589 H 0.90617 0.41433 0.30945 0.0
H1590 H 0.89923 0.38954 0.30977 0.0
H1591 H 0.92989 0.39212 0.28228 0.0
H1592 H 0.87905 0.32748 0.28611 0.0
H1593 H 0.95784 0.33032 0.22216 0.0
H1594 H 0.80778 0.38219 0.28341 0.0
H1595 H 0.83903 0.38489 0.31025 0.0
H1596 H 0.83215 0.36009 0.31065 0.0
H1597 H 0.90116 0.38675 0.20134 0.0
H1598 H 0.95083 0.36466 0.20286 0.0
H1599 H 0.93265 0.3875 0.22961 0.0
C1600 C 0.10906 0.59743 0.47761 0.0
C1601 C 0.11877 0.58147 0.50072 0.0
C1602 C 0.11117 0.61753 0.48162 0.0
C1603 C 0.12401 0.62173 0.50929 0.0
C1604 C 0.13445 0.60562 0.53266 0.0
C1605 C 0.13166 0.58565 0.52812 0.0
C1606 C 0.10006 0.63418 0.456 0.0
C1607 C 0.14842 0.60952 0.56241 0.0
C1608 C 0.16267 0.66343 0.50065 0.0
C1609 C 0.12994 0.68404 0.50756 0.0
C1610 C 0.16195 0.64277 0.50299 0.0
C1611 C 0.12777 0.64267 0.51278 0.0
C1612 C 0.09551 0.66324 0.52179 0.0
C1613 C 0.09696 0.68373 0.51904 0.0
C1614 C 0.19713 0.62117 0.49355 0.0
C1615 C 0.05851 0.66382 0.53232 0.0
H1616 H 0.10001 0.59414 0.45613 0.0
H1617 H 0.13886 0.57354 0.5462 0.0
H1618 H 0.07708 0.6511 0.46318 0.0
H1619 H 0.12541 0.63617 0.44907 0.0
H1620 H 0.08943 0.6287 0.43627 0.0
H1621 H 0.1548 0.59551 0.57846 0.0
H1622 H 0.17501 0.61115 0.55923 0.0
H1623 H 0.12625 0.62566 0.57234 0.0
H1624 H 0.18869 0.66351 0.49274 0.0
H1625 H 0.07161 0.69959 0.52449 0.0
H1626 H 0.18937 0.61262 0.47562 0.0
H1627 H 0.20809 0.60929 0.51275 0.0
H1628 H 0.22079 0.6243 0.48518 0.0
H1629 H 0.04343 0.66126 0.51291 0.0
H1630 H 0.03863 0.68025 0.54301 0.0
H1631 H 0.0647 0.64991 0.54843 0.0
C1632 C 0.687 0.0846 0.75295 0.0
C1633 C 0.66598 0.07261 0.75563 0.0
C1634 C 0.66807 0.10858 0.75194 0.0
C1635 C 0.62707 0.12098 0.75385 0.0
C1636 C 0.60577 0.10885 0.75553 0.0
C1637 C 0.6254 0.08493 0.75628 0.0
C1638 C 0.69202 0.12068 0.74962 0.0
C1639 C 0.56217 0.12115 0.75765 0.0
C1640 C 0.58075 0.18036 0.78832 0.0
C1641 C 0.56655 0.19461 0.76329 0.0
C1642 C 0.6006 0.15656 0.78544 0.0
C1643 C 0.60664 0.14647 0.75674 0.0
C1644 C 0.59224 0.16079 0.73129 0.0
C1645 C 0.57241 0.18465 0.73486 0.0
C1646 C 0.61498 0.14218 0.81327 0.0
C1647 C 0.5977 0.15091 0.70028 0.0
H1648 H 0.71832 0.07524 0.75217 0.0
H1649 H 0.60884 0.07584 0.75814 0.0
H1650 H 0.68237 0.13236 0.73017 0.0
H1651 H 0.68779 0.13114 0.76988 0.0
H1652 H 0.72338 0.10871 0.74716 0.0
H1653 H 0.54966 0.10937 0.75669 0.0
H1654 H 0.55324 0.13071 0.77898 0.0
H1655 H 0.54961 0.13368 0.73926 0.0
H1656 H 0.57632 0.18785 0.81039 0.0
H1657 H 0.56158 0.19551 0.71539 0.0
H1658 H 0.64676 0.13116 0.81194 0.0
H1659 H 0.60161 0.13088 0.81507 0.0
H1660 H 0.60827 0.15257 0.83391 0.0
H1661 H 0.62897 0.14 0.69572 0.0
H1662 H 0.58539 0.16425 0.68277 0.0
H1663 H 0.58361 0.13999 0.69859 0.0
C1664 C 0.79049 0.59513 0.08287 0.0
C1665 C 0.75966 0.60042 0.10273 0.0
C1666 C 0.79193 0.61187 0.06482 0.0
C1667 C 0.76209 0.63457 0.06688 0.0
C1668 C 0.72988 0.63987 0.08568 0.0
C1669 C 0.72898 0.62273 0.10328 0.0
C1670 C 0.82642 0.60542 0.04467 0.0
C1671 C 0.69737 0.66388 0.08849 0.0
C1672 C 0.78792 0.68159 0.05139 0.0
C1673 C 0.77017 0.6898 0.0237 0.0
C1674 C 0.7856 0.66358 0.06559 0.0
C1675 C 0.76609 0.65304 0.05128 0.0
C1676 C 0.74978 0.66053 0.02259 0.0
C1677 C 0.75136 0.67915 0.00936 0.0
C1678 C 0.80258 0.65649 0.09648 0.0
C1679 C 0.73002 0.64915 0.00628 0.0
H1680 H 0.8146 0.57808 0.08241 0.0
H1681 H 0.70466 0.62694 0.11807 0.0
H1682 H 0.81687 0.61259 0.02198 0.0
H1683 H 0.8446 0.61263 0.05365 0.0
H1684 H 0.84459 0.58674 0.04278 0.0
H1685 H 0.67225 0.66472 0.10094 0.0
H1686 H 0.70803 0.67432 0.10047 0.0
H1687 H 0.68741 0.67161 0.06614 0.0
H1688 H 0.80166 0.69015 0.06282 0.0
H1689 H 0.73757 0.68556 0.98796 0.0
H1690 H 0.82358 0.63812 0.09682 0.0
H1691 H 0.77924 0.65929 0.11259 0.0
H1692 H 0.81746 0.6661 0.10426 0.0
H1693 H 0.74969 0.63062 0.00467 0.0
H1694 H 0.72092 0.65599 0.98339 0.0
H1695 H 0.70423 0.65138 0.01901 0.0
C1696 C 0.95678 0.49398 0.41154 0.0
C1697 C 0.94807 0.51176 0.43175 0.0
C1698 C 0.92874 0.49428 0.39184 0.0
C1699 C 0.89083 0.51284 0.39228 0.0
C1700 C 0.88147 0.53051 0.41338 0.0
C1701 C 0.91029 0.52981 0.43282 0.0
C1702 C 0.94005 0.47491 0.37007 0.0
C1703 C 0.84124 0.55038 0.41495 0.0
C1704 C 0.83553 0.52478 0.31887 0.0
C1705 C 0.81227 0.51432 0.32331 0.0
C1706 C 0.86039 0.52489 0.34138 0.0
C1707 C 0.86207 0.51438 0.36922 0.0
C1708 C 0.83807 0.50421 0.37408 0.0
C1709 C 0.8136 0.50422 0.35108 0.0
C1710 C 0.8857 0.53574 0.33505 0.0
C1711 C 0.83892 0.49279 0.40329 0.0
H1712 H 0.98583 0.47979 0.41092 0.0
H1713 H 0.90348 0.54359 0.44838 0.0
H1714 H 0.92265 0.46615 0.37436 0.0
H1715 H 0.93393 0.48148 0.34684 0.0
H1716 H 0.97118 0.46227 0.37175 0.0
H1717 H 0.83783 0.56184 0.43397 0.0
H1718 H 0.83468 0.5603 0.39391 0.0
H1719 H 0.81959 0.54427 0.41723 0.0
H1720 H 0.83477 0.53268 0.29756 0.0
H1721 H 0.79573 0.49613 0.35483 0.0
H1722 H 0.9166 0.52267 0.33606 0.0
H1723 H 0.88113 0.54865 0.35232 0.0
H1724 H 0.87987 0.544 0.31275 0.0
H1725 H 0.867 0.47711 0.40546 0.0
H1726 H 0.81533 0.48814 0.40496 0.0
H1727 H 0.83643 0.50403 0.4223 0.0
C1728 C 0.17343 0.51743 0.6542 0.0
C1729 C 0.17742 0.506 0.68137 0.0
C1730 C 0.14879 0.51713 0.63145 0.0
C1731 C 0.12752 0.5052 0.63603 0.0
C1732 C 0.13201 0.49333 0.66318 0.0
C1733 C 0.15687 0.49382 0.68537 0.0
C1734 C 0.14491 0.52994 0.60278 0.0
C1735 C 0.10943 0.48073 0.66928 0.0
C1736 C 0.03158 0.5237 0.59629 0.0
C1737 C 0.04098 0.50634 0.57525 0.0
C1738 C 0.05961 0.5238 0.61566 0.0
C1739 C 0.0984 0.50632 0.61361 0.0
C1740 C 0.10835 0.48908 0.59178 0.0
C1741 C 0.07938 0.4891 0.57314 0.0
C1742 C 0.04743 0.54247 0.63863 0.0
C1743 C 0.14945 0.47037 0.58851 0.0
H1744 H 0.18922 0.52684 0.65079 0.0
H1745 H 0.15967 0.48487 0.70616 0.0
H1746 H 0.14902 0.51885 0.5832 0.0
H1747 H 0.11534 0.54452 0.60114 0.0
H1748 H 0.1661 0.53648 0.60141 0.0
H1749 H 0.11727 0.47163 0.69103 0.0
H1750 H 0.07799 0.49287 0.66945 0.0
H1751 H 0.11457 0.46823 0.65129 0.0
H1752 H 0.002 0.53723 0.59789 0.0
H1753 H 0.08668 0.47549 0.5572 0.0
H1754 H 0.06027 0.55359 0.63296 0.0
H1755 H 0.05809 0.53526 0.66114 0.0
H1756 H 0.0155 0.55305 0.63976 0.0
H1757 H 0.16944 0.47769 0.58634 0.0
H1758 H 0.15314 0.45947 0.56877 0.0
H1759 H 0.15809 0.45957 0.60882 0.0
C1760 C 0.56566 0.75118 0.15448 0.0
C1761 C 0.56461 0.76114 0.18233 0.0
C1762 C 0.59094 0.7506 0.13169 0.0
C1763 C 0.61598 0.76002 0.13698 0.0
C1764 C 0.61484 0.77018 0.16495 0.0
C1765 C 0.58917 0.7707 0.18714 0.0
C1766 C 0.59115 0.73971 0.1021 0.0
C1767 C 0.6413 0.78019 0.17171 0.0
C1768 C 0.71049 0.7397 0.09452 0.0
C1769 C 0.70212 0.75799 0.07524 0.0
C1770 C 0.6823 0.73975 0.11383 0.0
C1771 C 0.64464 0.75857 0.11395 0.0
C1772 C 0.63567 0.77679 0.09384 0.0
C1773 C 0.66466 0.77638 0.07491 0.0
C1774 C 0.69333 0.71998 0.13488 0.0
C1775 C 0.59572 0.79698 0.09287 0.0
H1776 H 0.54678 0.7438 0.15045 0.0
H1777 H 0.58876 0.77841 0.2085 0.0
H1778 H 0.58683 0.75167 0.08353 0.0
H1779 H 0.61967 0.72454 0.09854 0.0
H1780 H 0.56833 0.73441 0.10082 0.0
H1781 H 0.63648 0.78775 0.19442 0.0
H1782 H 0.67193 0.76683 0.16995 0.0
H1783 H 0.63682 0.79353 0.15511 0.0
H1784 H 0.73938 0.72534 0.09474 0.0
H1785 H 0.65818 0.79061 0.06021 0.0
H1786 H 0.67235 0.71335 0.13315 0.0
H1787 H 0.69242 0.72575 0.15824 0.0
H1788 H 0.7228 0.70588 0.13031 0.0
H1789 H 0.57357 0.79125 0.09052 0.0
H1790 H 0.59236 0.80866 0.07413 0.0
H1791 H 0.58981 0.80655 0.11414 0.0
C1792 C 0.66835 0.51797 0.1574 0.0
C1793 C 0.67169 0.50713 0.18494 0.0
C1794 C 0.64392 0.51744 0.13474 0.0
C1795 C 0.6222 0.50585 0.13973 0.0
C1796 C 0.62595 0.49459 0.1673 0.0
C1797 C 0.65067 0.4953 0.18946 0.0
C1798 C 0.64112 0.5294 0.10553 0.0
C1799 C 0.60292 0.48233 0.17376 0.0
C1800 C 0.52744 0.52435 0.09832 0.0
C1801 C 0.53731 0.50685 0.07745 0.0
C1802 C 0.55495 0.52444 0.11822 0.0
C1803 C 0.59358 0.50668 0.1171 0.0
C1804 C 0.60399 0.48921 0.09554 0.0
C1805 C 0.57559 0.48938 0.07614 0.0
C1806 C 0.54247 0.54344 0.14072 0.0
C1807 C 0.64495 0.47017 0.09333 0.0
H1808 H 0.68463 0.52704 0.15358 0.0
H1809 H 0.65298 0.48686 0.21061 0.0
H1810 H 0.64978 0.51702 0.08691 0.0
H1811 H 0.61078 0.54247 0.10131 0.0
H1812 H 0.65981 0.53769 0.1051 0.0
H1813 H 0.6102 0.47369 0.19583 0.0
H1814 H 0.57154 0.49459 0.17341 0.0
H1815 H 0.60823 0.46949 0.1562 0.0
H1816 H 0.49793 0.53804 0.09926 0.0
H1817 H 0.58321 0.47571 0.06024 0.0
H1818 H 0.55824 0.55322 0.13664 0.0
H1819 H 0.54976 0.5364 0.16368 0.0
H1820 H 0.51091 0.55529 0.13968 0.0
H1821 H 0.66536 0.47717 0.09092 0.0
H1822 H 0.64894 0.45877 0.07411 0.0
H1823 H 0.65278 0.45996 0.11415 0.0
C1824 C 0.3436 0.4352 0.98629 0.0
C1825 C 0.37434 0.43641 1.0005 0.0
C1826 C 0.34362 0.41431 0.98323 0.0
C1827 C 0.37534 0.39431 0.99439 0.0
C1828 C 0.40764 0.39533 0.00675 0.0
C1829 C 0.40665 0.4164 0.00979 0.0
C1830 C 0.30846 0.41394 0.97021 0.0
C1831 C 0.4423 0.37433 0.01835 0.0
C1832 C 0.35657 0.34884 0.02852 0.0
C1833 C 0.36922 0.33225 0.00606 0.0
C1834 C 0.35743 0.3693 0.02448 0.0
C1835 C 0.37238 0.37312 0.9976 0.0
C1836 C 0.38593 0.35637 0.97495 0.0
C1837 C 0.384 0.33614 0.97938 0.0
C1838 C 0.34266 0.38674 0.04923 0.0
C1839 C 0.40239 0.35985 0.94613 0.0
H1840 H 0.31872 0.4507 0.97896 0.0
H1841 H 0.43092 0.41731 0.02 0.0
H1842 H 0.31695 0.39933 0.95487 0.0
H1843 H 0.29133 0.41196 0.98858 0.0
H1844 H 0.2896 0.42983 0.95792 0.0
H1845 H 0.4657 0.3779 0.02619 0.0
H1846 H 0.43354 0.36705 0.03726 0.0
H1847 H 0.45401 0.36122 1.00059 0.0
H1848 H 0.34609 0.34582 0.04953 0.0
H1849 H 0.39339 0.32357 0.96172 0.0
H1850 H 0.32014 0.40327 0.04046 0.0
H1851 H 0.36663 0.3894 0.05798 0.0
H1852 H 0.33013 0.38159 0.06809 0.0
H1853 H 0.38053 0.37536 0.93468 0.0
H1854 H 0.41155 0.34521 0.93068 0.0
H1855 H 0.42773 0.36246 0.95092 0.0
C1856 C 0.11249 0.1847 0.24931 0.0
C1857 C 0.07189 0.19686 0.24987 0.0
C1858 C 0.13236 0.16081 0.24953 0.0
C1859 C 0.11127 0.14853 0.24987 0.0
C1860 C 0.07019 0.16073 0.24909 0.0
C1861 C 0.05102 0.18471 0.24941 0.0
C1862 C 0.17603 0.14871 0.25061 0.0
C1863 C 0.04642 0.14846 0.24881 0.0
C1864 C 0.16689 0.0847 0.23272 0.0
C1865 C 0.17387 0.07521 0.26149 0.0
C1866 C 0.14609 0.10845 0.22846 0.0
C1867 C 0.13222 0.12313 0.25356 0.0
C1868 C 0.13959 0.11353 0.28262 0.0
C1869 C 0.1601 0.08981 0.28619 0.0
C1870 C 0.13884 0.11784 0.19709 0.0
C1871 C 0.12604 0.12836 0.31009 0.0
H1872 H 0.12894 0.19391 0.24953 0.0
H1873 H 0.01969 0.19394 0.24993 0.0
H1874 H 0.18596 0.13946 0.27211 0.0
H1875 H 0.18799 0.13595 0.23247 0.0
H1876 H 0.18824 0.16059 0.24846 0.0
H1877 H 0.01525 0.16016 0.24472 0.0
H1878 H 0.05715 0.13513 0.23131 0.0
H1879 H 0.04936 0.13989 0.27061 0.0
H1880 H 0.17738 0.07355 0.21351 0.0
H1881 H 0.16546 0.08265 0.3085 0.0
H1882 H 0.1518 0.12925 0.19407 0.0
H1883 H 0.10726 0.12814 0.19319 0.0
H1884 H 0.15108 0.10424 0.17994 0.0
H1885 H 0.13886 0.13998 0.31052 0.0
H1886 H 0.13402 0.11831 0.3311 0.0
H1887 H 0.09414 0.13904 0.30948 0.0
C1888 C 0.26008 0.3257 0.96846 0.0
C1889 C 0.22602 0.32484 0.97596 0.0
C1890 C 0.25893 0.34441 0.95362 0.0
C1891 C 0.22276 0.36298 0.94619 0.0
C1892 C 0.18816 0.36262 0.95439 0.0
C1893 C 0.19018 0.34346 0.96906 0.0
C1894 C 0.29654 0.34394 0.94506 0.0
C1895 C 0.14905 0.38215 0.9468 0.0
C1896 C 0.22095 0.41841 0.92414 0.0
C1897 C 0.22108 0.41714 0.89285 0.0
C1898 C 0.22123 0.40099 0.94188 0.0
C1899 C 0.22141 0.38196 0.92796 0.0
C1900 C 0.22179 0.38055 0.89638 0.0
C1901 C 0.22166 0.39813 0.87924 0.0
C1902 C 0.22161 0.40288 0.97546 0.0
C1903 C 0.22255 0.36038 0.88068 0.0
H1904 H 0.28804 0.31127 0.97304 0.0
H1905 H 0.16378 0.34291 0.97461 0.0
H1906 H 0.29722 0.34677 0.9207 0.0
H1907 H 0.29903 0.35782 0.95666 0.0
H1908 H 0.32215 0.32755 0.95083 0.0
H1909 H 0.12496 0.37998 0.95647 0.0
H1910 H 0.14692 0.39831 0.95511 0.0
H1911 H 0.14544 0.38366 0.92217 0.0
H1912 H 0.22084 0.43299 0.93476 0.0
H1913 H 0.2212 0.39719 0.85508 0.0
H1914 H 0.24921 0.38922 0.98444 0.0
H1915 H 0.19783 0.40057 0.98541 0.0
H1916 H 0.2185 0.4195 0.98282 0.0
H1917 H 0.24879 0.34467 0.88741 0.0
H1918 H 0.2225 0.36194 0.85596 0.0
H1919 H 0.19711 0.35843 0.88742 0.0
C1920 C 0.33061 0.23885 0.93092 0.0
C1921 C 0.29248 0.2565 0.92963 0.0
C1922 C 0.35935 0.23882 0.91202 0.0
C1923 C 0.34942 0.25661 0.89101 0.0
C1924 C 0.31098 0.27457 0.88997 0.0
C1925 C 0.28315 0.27435 0.90938 0.0
C1926 C 0.40012 0.21954 0.9141 0.0
C1927 C 0.29896 0.29391 0.86802 0.0
C1928 C 0.42481 0.26774 0.85136 0.0
C1929 C 0.42752 0.25745 0.82348 0.0
C1930 C 0.40046 0.26702 0.87399 0.0
C1931 C 0.37821 0.25581 0.86858 0.0
C1932 C 0.38137 0.24508 0.84069 0.0
C1933 C 0.40596 0.24599 0.81859 0.0
C1934 C 0.39796 0.27862 0.90347 0.0
C1935 C 0.35777 0.23324 0.83379 0.0
H1936 H 0.33783 0.22495 0.94639 0.0
H1937 H 0.25378 0.28819 0.90849 0.0
H1938 H 0.40772 0.20953 0.89312 0.0
H1939 H 0.42085 0.22629 0.91674 0.0
H1940 H 0.40384 0.208 0.93311 0.0
H1941 H 0.26726 0.30547 0.86836 0.0
H1942 H 0.31399 0.3039 0.87341 0.0
H1943 H 0.30742 0.28727 0.84498 0.0
H1944 H 0.44144 0.27655 0.85546 0.0
H1945 H 0.40786 0.2379 0.79723 0.0
H1946 H 0.4025 0.26681 0.92228 0.0
H1947 H 0.36865 0.29328 0.90618 0.0
H1948 H 0.41956 0.28484 0.90518 0.0
H1949 H 0.36282 0.22022 0.85104 0.0
H1950 H 0.36476 0.22489 0.81154 0.0
H1951 H 0.3265 0.24571 0.83429 0.0
C1952 C 0.41078 0.52941 0.93324 0.0
C1953 C 0.44913 0.51205 0.93175 0.0
C1954 C 0.38248 0.52979 0.91351 0.0
C1955 C 0.39305 0.51266 0.89142 0.0
C1956 C 0.43175 0.495 0.89012 0.0
C1957 C 0.45914 0.49484 0.91038 0.0
C1958 C 0.34145 0.54873 0.91593 0.0
C1959 C 0.44446 0.47635 0.86708 0.0
C1960 C 0.31875 0.50174 0.84958 0.0
C1961 C 0.31559 0.51294 0.82238 0.0
C1962 C 0.34297 0.50202 0.87263 0.0
C1963 C 0.36456 0.51378 0.86842 0.0
C1964 C 0.36094 0.52543 0.84121 0.0
C1965 C 0.33652 0.52492 0.81863 0.0
C1966 C 0.34565 0.48961 0.9014 0.0
C1967 C 0.38385 0.53788 0.83555 0.0
H1968 H 0.40302 0.54287 0.94949 0.0
H1969 H 0.48869 0.48122 0.9093 0.0
H1970 H 0.33365 0.55929 0.89542 0.0
H1971 H 0.32113 0.54162 0.91775 0.0
H1972 H 0.3373 0.5598 0.93555 0.0
H1973 H 0.42988 0.46593 0.87136 0.0
H1974 H 0.43598 0.48367 0.84435 0.0
H1975 H 0.47624 0.46504 0.86738 0.0
H1976 H 0.30256 0.49255 0.85283 0.0
H1977 H 0.33434 0.53367 0.79776 0.0
H1978 H 0.3359 0.50183 0.92024 0.0
H1979 H 0.37613 0.47688 0.90593 0.0
H1980 H 0.32772 0.48084 0.90099 0.0
H1981 H 0.37841 0.55042 0.85355 0.0
H1982 H 0.37659 0.54689 0.81374 0.0
H1983 H 0.41525 0.52566 0.83581 0.0
C1984 C 0.63052 0.67024 0.97579 0.0
C1985 C 0.6247 0.68501 0.99977 0.0
C1986 C 0.63117 0.64939 0.98008 0.0
C1987 C 0.62421 0.64341 0.00889 0.0
C1988 C 0.61756 0.65832 0.03321 0.0
C1989 C 0.61831 0.67887 0.02843 0.0
C1990 C 0.63838 0.63397 0.9535 0.0
C1991 C 0.60954 0.65262 0.06416 0.0
C1992 C 0.58447 0.60223 1.00235 0.0
C1993 C 0.61769 0.58136 0.00684 0.0
C1994 C 0.58558 0.62271 0.00526 0.0
C1995 C 0.62098 0.62232 0.01244 0.0
C1996 C 0.65424 0.60137 0.01857 0.0
C1997 C 0.65211 0.58106 0.01589 0.0
C1998 C 0.54912 0.64474 0.99961 0.0
C1999 C 0.69265 0.60028 0.02583 0.0
H2000 H 0.63444 0.67498 0.95342 0.0
H2001 H 0.61442 0.68993 0.04723 0.0
H2002 H 0.6617 0.61661 0.95864 0.0
H2003 H 0.61181 0.63271 0.94839 0.0
H2004 H 0.64673 0.64019 0.93322 0.0
H2005 H 0.60308 0.66655 0.08035 0.0
H2006 H 0.58465 0.64908 0.06357 0.0
H2007 H 0.63495 0.63706 0.07239 0.0
H2008 H 0.55754 0.6025 0.99618 0.0
H2009 H 0.67782 0.56492 0.01938 0.0
H2010 H 0.55438 0.65535 0.98316 0.0
H2011 H 0.53963 0.65451 0.02076 0.0
H2012 H 0.52523 0.64191 0.99102 0.0
H2013 H 0.70452 0.60408 0.00539 0.0
H2014 H 0.71407 0.58328 0.03422 0.0
H2015 H 0.68911 0.61319 0.04279 0.0
C2016 C 0.91142 0.83821 0.7182 0.0
C2017 C 0.92612 0.8237 0.74295 0.0
C2018 C 0.89047 0.86196 0.72157 0.0
C2019 C 0.88376 0.87175 0.75049 0.0
C2020 C 0.89859 0.85717 0.77567 0.0
C2021 C 0.91956 0.83336 0.77161 0.0
C2022 C 0.87576 0.87662 0.69401 0.0
C2023 C 0.8924 0.86671 0.80691 0.0
C2024 C 0.86271 0.93373 0.75291 0.0
C2025 C 0.82207 0.94568 0.75332 0.0
C2026 C 0.88303 0.90981 0.75304 0.0
C2027 C 0.86243 0.89724 0.75391 0.0
C2028 C 0.82137 0.90924 0.7556 0.0
C2029 C 0.80172 0.93325 0.75506 0.0
C2030 C 0.92665 0.89798 0.75113 0.0
C2031 C 0.79809 0.8967 0.75715 0.0
H2032 H 0.91636 0.83096 0.69596 0.0
H2033 H 0.93074 0.82232 0.79088 0.0
H2034 H 0.84388 0.88723 0.69526 0.0
H2035 H 0.88841 0.88831 0.69272 0.0
H2036 H 0.88303 0.86645 0.67313 0.0
H2037 H 0.90481 0.85318 0.82417 0.0
H2038 H 0.90597 0.87786 0.80924 0.0
H2039 H 0.861 0.8773 0.81127 0.0
H2040 H 0.8788 0.94313 0.75175 0.0
H2041 H 0.77036 0.94228 0.7555 0.0
H2042 H 0.93604 0.88863 0.72968 0.0
H2043 H 0.93942 0.88533 0.76936 0.0
H2044 H 0.93855 0.91005 0.75253 0.0
H2045 H 0.80087 0.88767 0.73577 0.0
H2046 H 0.76692 0.90828 0.7614 0.0
H2047 H 0.80941 0.88372 0.77511 0.0
C2048 C 0.45866 0.16699 0.58878 0.0
C2049 C 0.4611 0.16458 0.61996 0.0
C2050 C 0.45917 0.14984 0.57043 0.0
C2051 C 0.46171 0.12995 0.58359 0.0
C2052 C 0.46394 0.12749 0.61506 0.0
C2053 C 0.4637 0.1448 0.63284 0.0
C2054 C 0.45699 0.153 0.53697 0.0
C2055 C 0.46683 0.1065 0.62994 0.0
C2056 C 0.43379 0.09101 0.5401 0.0
C2057 C 0.47016 0.07355 0.53161 0.0
C2058 C 0.43041 0.10988 0.55626 0.0
C2059 C 0.46422 0.1111 0.56449 0.0
C2060 C 0.50091 0.09375 0.55552 0.0
C2061 C 0.50342 0.07538 0.53891 0.0
C2062 C 0.39079 0.12812 0.56544 0.0
C2063 C 0.53769 0.09412 0.56456 0.0
H2064 H 0.4568 0.18221 0.57871 0.0
H2065 H 0.46495 0.14301 0.65695 0.0
H2066 H 0.48019 0.13781 0.5259 0.0
H2067 H 0.42893 0.15493 0.52875 0.0
H2068 H 0.45957 0.16817 0.5301 0.0
H2069 H 0.46876 0.1071 0.65465 0.0
H2070 H 0.44122 0.10444 0.62409 0.0
H2071 H 0.49273 0.09127 0.62163 0.0
H2072 H 0.40802 0.0897 0.53468 0.0
H2073 H 0.5318 0.06193 0.53281 0.0
H2074 H 0.3865 0.14501 0.55818 0.0
H2075 H 0.38832 0.12854 0.59016 0.0
H2076 H 0.36727 0.12535 0.55587 0.0
H2077 H 0.5639 0.0796 0.55519 0.0
H2078 H 0.54039 0.09345 0.58925 0.0
H2079 H 0.53675 0.11019 0.55713 0.0
C2080 C 0.53128 0.3498 0.91929 0.0
C2081 C 0.53045 0.35256 0.88819 0.0
C2082 C 0.52961 0.36681 0.93855 0.0
C2083 C 0.52765 0.38685 0.92637 0.0
C2084 C 0.52695 0.38965 0.89498 0.0
C2085 C 0.52824 0.37251 0.87629 0.0
C2086 C 0.52994 0.36335 0.97189 0.0
C2087 C 0.5245 0.41087 0.88114 0.0
C2088 C 0.48394 0.44142 0.97106 0.0
C2089 C 0.51685 0.44334 0.97925 0.0
C2090 C 0.48721 0.42288 0.95439 0.0
C2091 C 0.52428 0.40549 0.94629 0.0
C2092 C 0.5577 0.40671 0.95567 0.0
C2093 C 0.5536 0.42572 0.97189 0.0
C2094 C 0.45092 0.42236 0.94429 0.0
C2095 C 0.59771 0.3884 0.94748 0.0
H2096 H 0.5328 0.33444 0.92856 0.0
H2097 H 0.52814 0.37456 0.85226 0.0
H2098 H 0.5571 0.36186 0.98147 0.0
H2099 H 0.50559 0.37824 0.98252 0.0
H2100 H 0.52779 0.34787 0.97779 0.0
H2101 H 0.52428 0.41041 0.85633 0.0
H2102 H 0.49782 0.42593 0.88879 0.0
H2103 H 0.54941 0.41315 0.88851 0.0
H2104 H 0.45532 0.45492 0.97645 0.0
H2105 H 0.57913 0.42704 0.97806 0.0
H2106 H 0.45084 0.40682 0.95281 0.0
H2107 H 0.45008 0.42178 0.91955 0.0
H2108 H 0.42426 0.43742 0.95194 0.0
H2109 H 0.60141 0.37151 0.95403 0.0
H2110 H 0.62077 0.39099 0.95832 0.0
H2111 H 0.60157 0.38819 0.9229 0.0
C2112 C 0.54045 0.84614 0.42237 0.0
C2113 C 0.51125 0.85237 0.4007 0.0
C2114 C 0.54258 0.86247 0.44084 0.0
C2115 C 0.51529 0.88563 0.43723 0.0
C2116 C 0.48485 0.89191 0.41627 0.0
C2117 C 0.48291 0.87519 0.39858 0.0
C2118 C 0.57505 0.85503 0.46327 0.0
C2119 C 0.45484 0.91638 0.41199 0.0
C2120 C 0.50005 0.93074 0.49489 0.0
C2121 C 0.52142 0.94057 0.48254 0.0
C2122 C 0.49944 0.91202 0.48124 0.0
C2123 C 0.51961 0.90348 0.45409 0.0
C2124 C 0.54208 0.91299 0.44199 0.0
C2125 C 0.54314 0.93123 0.45662 0.0
C2126 C 0.47662 0.9017 0.49549 0.0
C2127 C 0.56311 0.9048 0.41264 0.0
H2128 H 0.56275 0.82862 0.42408 0.0
H2129 H 0.45965 0.88011 0.38251 0.0
H2130 H 0.59558 0.86112 0.45614 0.0
H2131 H 0.56357 0.86259 0.48547 0.0
H2132 H 0.59125 0.83627 0.46565 0.0
H2133 H 0.43445 0.91865 0.39348 0.0
H2134 H 0.43802 0.92274 0.43284 0.0
H2135 H 0.46903 0.92696 0.4074 0.0
H2136 H 0.48305 0.93805 0.51488 0.0
H2137 H 0.55892 0.93916 0.44667 0.0
H2138 H 0.4963 0.88372 0.50132 0.0
H2139 H 0.45507 0.90171 0.4795 0.0
H2140 H 0.46144 0.91084 0.51608 0.0
H2141 H 0.58101 0.91309 0.4071 0.0
H2142 H 0.54174 0.90846 0.39443 0.0
H2143 H 0.58208 0.88616 0.41322 0.0
C2144 C 0.43365 0.5928 0.0385 0.0
C2145 C 0.47012 0.57522 0.03043 0.0
C2146 C 0.43012 0.61187 0.05427 0.0
C2147 C 0.46385 0.61321 0.06236 0.0
C2148 C 0.50065 0.59566 0.05398 0.0
C2149 C 0.50333 0.57705 0.03786 0.0
C2150 C 0.39043 0.6302 0.06312 0.0
C2151 C 0.53731 0.59622 0.06286 0.0
C2152 C 0.45756 0.67001 0.08241 0.0
C2153 C 0.46063 0.66851 0.11362 0.0
C2154 C 0.45812 0.65223 0.06543 0.0
C2155 C 0.46112 0.63271 0.08008 0.0
C2156 C 0.46376 0.63124 0.11163 0.0
C2157 C 0.46377 0.6491 0.128 0.0
C2158 C 0.45528 0.65442 0.03185 0.0
C2159 C 0.46668 0.61079 0.12809 0.0
H2160 H 0.40792 0.59147 0.03307 0.0
H2161 H 0.53178 0.56351 0.03209 0.0
H2162 H 0.38828 0.63154 0.08783 0.0
H2163 H 0.38564 0.64686 0.05446 0.0
H2164 H 0.36703 0.62687 0.05461 0.0
H2165 H 0.56363 0.58152 0.05392 0.0
H2166 H 0.53637 0.61217 0.05488 0.0
H2167 H 0.53981 0.59601 0.08754 0.0
H2168 H 0.4551 0.68501 0.07126 0.0
H2169 H 0.46547 0.64808 0.15218 0.0
H2170 H 0.4263 0.65728 0.02459 0.0
H2171 H 0.47704 0.63855 0.02107 0.0
H2172 H 0.45944 0.66879 0.0237 0.0
H2173 H 0.44216 0.60778 0.12183 0.0
H2174 H 0.46667 0.61276 0.15273 0.0
H2175 H 0.49367 0.59546 0.1216 0.0
loop_
_geom_bond_atom_site_label_1
_geom_bond_atom_site_label_2
_geom_bond_distance
_geom_bond_site_symmetry_2
_ccdc_geom_bond_type
Tb0 C2 2.809 . S
Tb0 O20 2.484 . S
Tb0 O21 2.440 . S
Tb0 O22 2.658 1_655 S
Tb0 O23 2.409 1_655 S
Tb0 O24 2.378 1_655 S
Tb0 O28 2.325 1_564 S
Tb0 O31 2.341 1_565 S
Tb1 C11 2.809 . S
Tb1 O22 2.325 1_546 S
Tb1 O25 2.341 1_545 S
Tb1 O26 2.484 . S
Tb1 O27 2.440 . S
Tb1 O28 2.658 1_455 S
Tb1 O29 2.409 1_455 S
Tb1 O30 2.378 1_455 S
C2 Tb0 2.809 . S
C2 C3 1.514 . S
C2 O20 1.248 . S
C2 O21 1.266 . S
C3 C2 1.514 . S
C3 C4 1.359 . S
C3 C8 1.348 . S
C4 C3 1.359 . S
C4 C5 1.380 . S
C4 H32 0.929 1_554 S
C5 C4 1.380 . S
C5 C6 1.347 . S
C5 H33 0.931 1_554 S
C6 C5 1.347 . S
C6 C7 1.369 . S
C7 C6 1.369 . S
C7 C8 1.408 . S
C7 H34 0.930 . S
C8 C3 1.348 . S
C8 C7 1.408 . S
C8 H35 0.930 . S
C9 O22 1.281 . S
C9 O23 1.254 . S
C10 O24 1.236 1_556 S
C10 O25 1.266 . S
C11 Tb1 2.809 . S
C11 C12 1.514 . S
C11 O26 1.248 . S
C11 O27 1.266 . S
C12 C11 1.514 . S
C12 C13 1.359 . S
C12 C17 1.348 . S
C13 C12 1.359 . S
C13 C14 1.380 . S
C13 H36 0.929 1_556 S
C14 C13 1.380 . S
C14 C15 1.347 . S
C14 H37 0.931 1_556 S
C15 C14 1.347 . S
C15 C16 1.369 . S
C16 C15 1.369 . S
C16 C17 1.408 . S
C16 H38 0.930 . S
C17 C12 1.348 . S
C17 C16 1.408 . S
C17 H39 0.930 . S
C18 O28 1.281 . S
C18 O29 1.254 . S
C19 O30 1.236 1_554 S
C19 O31 1.266 . S
O20 Tb0 2.484 . S
O20 C2 1.248 . S
O21 Tb0 2.440 . S
O21 C2 1.266 . S
O22 Tb0 2.658 1_455 S
O22 Tb1 2.325 1_564 S
O22 C9 1.281 . S
O23 Tb0 2.409 1_455 S
O23 C9 1.254 . S
O24 Tb0 2.378 1_455 S
O24 C10 1.236 1_554 S
O25 Tb1 2.341 1_565 S
O25 C10 1.266 . S
O26 Tb1 2.484 . S
O26 C11 1.248 . S
O27 Tb1 2.440 . S
O27 C11 1.266 . S
O28 Tb0 2.325 1_546 S
O28 Tb1 2.658 1_655 S
O28 C18 1.281 . S
O29 Tb1 2.409 1_655 S
O29 C18 1.254 . S
O30 Tb1 2.378 1_655 S
O30 C19 1.236 1_556 S
O31 Tb0 2.341 1_545 S
O31 C19 1.266 . S
H32 C4 0.929 1_556 S
H33 C5 0.931 1_556 S
H34 C7 0.930 . S
H35 C8 0.930 . S
H36 C13 0.929 1_554 S
H37 C14 0.931 1_554 S
H38 C16 0.930 . S
H39 C17 0.930 . S
Tb40 C42 2.809 . S
Tb40 O60 2.485 . S
Tb40 O61 2.440 . S
Tb40 O62 2.658 . S
Tb40 O63 2.409 . S
Tb40 O64 2.378 1_455 S
Tb40 O68 2.325 1_455 S
Tb40 O71 2.341 . S
Tb41 C51 2.809 . S
Tb41 O62 2.325 1_655 S
Tb41 O65 2.341 . S
Tb41 O66 2.484 1_655 S
Tb41 O67 2.440 . S
Tb41 O68 2.658 . S
Tb41 O69 2.409 . S
Tb41 O70 2.378 1_655 S
C42 Tb40 2.809 . S
C42 C43 1.514 . S
C42 O60 1.252 . S
C42 O61 1.266 . S
C43 C42 1.514 . S
C43 C44 1.359 1_455 S
C43 C48 1.348 . S
C44 C43 1.359 1_655 S
C44 C45 1.380 . S
C44 H72 0.929 . S
C45 C44 1.380 . S
C45 C46 1.347 1_655 S
C45 H73 0.931 . S
C46 C45 1.347 1_455 S
C46 C47 1.369 . S
C47 C46 1.369 . S
C47 C48 1.408 . S
C47 H74 0.930 . S
C48 C43 1.348 . S
C48 C47 1.408 . S
C48 H75 0.930 . S
C49 O62 1.281 . S
C49 O63 1.254 . S
C50 O64 1.236 . S
C50 O65 1.266 . S
C51 Tb41 2.809 . S
C51 C52 1.514 . S
C51 O66 1.248 1_655 S
C51 O67 1.266 . S
C52 C51 1.514 . S
C52 C53 1.359 1_655 S
C52 C57 1.348 . S
C53 C52 1.359 1_455 S
C53 C54 1.380 . S
C53 H76 0.929 . S
C54 C53 1.380 . S
C54 C55 1.347 1_455 S
C54 H77 0.931 . S
C55 C54 1.347 1_655 S
C55 C56 1.369 . S
C56 C55 1.369 . S
C56 C57 1.408 . S
C56 H78 0.930 . S
C57 C52 1.348 . S
C57 C56 1.408 . S
C57 H79 0.930 . S
C58 O68 1.281 . S
C58 O69 1.254 . S
C59 O70 1.236 . S
C59 O71 1.266 . S
O60 Tb40 2.485 . S
O60 C42 1.252 . S
O61 Tb40 2.440 . S
O61 C42 1.266 . S
O62 Tb40 2.658 . S
O62 Tb41 2.325 1_455 S
O62 C49 1.281 . S
O63 Tb40 2.409 . S
O63 C49 1.254 . S
O64 Tb40 2.378 1_655 S
O64 C50 1.236 . S
O65 Tb41 2.341 . S
O65 C50 1.266 . S
O66 Tb41 2.484 1_455 S
O66 C51 1.248 1_455 S
O67 Tb41 2.440 . S
O67 C51 1.266 . S
O68 Tb40 2.325 1_655 S
O68 Tb41 2.658 . S
O68 C58 1.281 . S
O69 Tb41 2.409 . S
O69 C58 1.254 . S
O70 Tb41 2.378 1_455 S
O70 C59 1.236 . S
O71 Tb40 2.341 . S
O71 C59 1.266 . S
H72 C44 0.929 . S
H73 C45 0.931 . S
H74 C47 0.930 . S
H75 C48 0.930 . S
H76 C53 0.929 . S
H77 C54 0.931 . S
H78 C56 0.930 . S
H79 C57 0.930 . S
Tb80 C82 2.809 . S
Tb80 O100 2.484 . S
Tb80 O101 2.440 . S
Tb80 O102 2.658 . S
Tb80 O103 2.409 . S
Tb80 O104 2.378 . S
Tb80 O108 2.325 . S
Tb80 O111 2.341 . S
Tb81 C91 2.809 . S
Tb81 O102 2.325 . S
Tb81 O105 2.341 . S
Tb81 O106 2.484 . S
Tb81 O107 2.440 . S
Tb81 O108 2.658 . S
Tb81 O109 2.409 . S
Tb81 O110 2.378 . S
C82 Tb80 2.809 . S
C82 C83 1.514 . S
C82 O100 1.248 . S
C82 O101 1.266 . S
C83 C82 1.514 . S
C83 C84 1.359 . S
C83 C88 1.348 . S
C84 C83 1.359 . S
C84 C85 1.380 . S
C84 H112 0.929 . S
C85 C84 1.380 . S
C85 C86 1.347 . S
C85 H113 0.931 . S
C86 C85 1.347 . S
C86 C87 1.369 . S
C87 C86 1.369 . S
C87 C88 1.408 . S
C87 H114 0.930 . S
C88 C83 1.348 . S
C88 C87 1.408 . S
C88 H115 0.930 . S
C89 O102 1.281 . S
C89 O103 1.254 . S
C90 O104 1.236 . S
C90 O105 1.266 . S
C91 Tb81 2.809 . S
C91 C92 1.514 . S
C91 O106 1.248 . S
C91 O107 1.266 . S
C92 C91 1.514 . S
C92 C93 1.359 . S
C92 C97 1.348 . S
C93 C92 1.359 . S
C93 C94 1.380 . S
C93 H116 0.929 . S
C94 C93 1.380 . S
C94 C95 1.347 . S
C94 H117 0.931 . S
C95 C94 1.347 . S
C95 C96 1.369 . S
C96 C95 1.369 . S
C96 C97 1.408 . S
C96 H118 0.930 . S
C97 C92 1.348 . S
C97 C96 1.408 . S
C97 H119 0.930 . S
C98 O108 1.281 . S
C98 O109 1.254 . S
C99 O110 1.236 . S
C99 O111 1.266 . S
O100 Tb80 2.484 . S
O100 C82 1.248 . S
O101 Tb80 2.440 . S
O101 C82 1.266 . S
O102 Tb80 2.658 . S
O102 Tb81 2.325 . S
O102 C89 1.281 . S
O103 Tb80 2.409 . S
O103 C89 1.254 . S
O104 Tb80 2.378 . S
O104 C90 1.236 . S
O105 Tb81 2.341 . S
O105 C90 1.266 . S
O106 Tb81 2.484 . S
O106 C91 1.248 . S
O107 Tb81 2.440 . S
O107 C91 1.266 . S
O108 Tb80 2.325 . S
O108 Tb81 2.658 . S
O108 C98 1.281 . S
O109 Tb81 2.409 . S
O109 C98 1.254 . S
O110 Tb81 2.378 . S
O110 C99 1.236 . S
O111 Tb80 2.341 . S
O111 C99 1.266 . S
H112 C84 0.929 . S
H113 C85 0.931 . S
H114 C87 0.930 . S
H115 C88 0.930 . S
H116 C93 0.929 . S
H117 C94 0.931 . S
H118 C96 0.930 . S
H119 C97 0.930 . S
Tb120 C122 2.809 . S
Tb120 O140 2.484 . S
Tb120 O141 2.440 . S
Tb120 O142 2.658 1_565 S
Tb120 O143 2.409 1_565 S
Tb120 O144 2.398 . S
Tb120 O148 2.325 . S
Tb120 O151 2.341 . S
Tb121 C131 2.809 . S
Tb121 O142 2.325 . S
Tb121 O145 2.341 . S
Tb121 O146 2.484 . S
Tb121 O147 2.440 . S
Tb121 O148 2.658 1_545 S
Tb121 O149 2.409 1_545 S
Tb121 O150 2.378 . S
C122 Tb120 2.809 . S
C122 C123 1.514 . S
C122 O140 1.248 . S
C122 O141 1.266 . S
C123 C122 1.514 . S
C123 C124 1.359 . S
C123 C128 1.348 . S
C124 C123 1.359 . S
C124 C125 1.380 . S
C124 H152 0.929 . S
C125 C124 1.380 . S
C125 C126 1.347 . S
C125 H153 0.931 . S
C126 C125 1.347 . S
C126 C127 1.369 . S
C127 C126 1.369 . S
C127 C128 1.408 . S
C127 H154 0.930 . S
C128 C123 1.348 . S
C128 C127 1.408 . S
C128 H155 0.930 . S
C129 O142 1.281 . S
C129 O143 1.254 . S
C130 O144 1.222 . S
C130 O145 1.266 1_565 S
C131 Tb121 2.809 . S
C131 C132 1.514 . S
C131 O146 1.248 . S
C131 O147 1.266 . S
C132 C131 1.514 . S
C132 C133 1.359 . S
C132 C137 1.348 . S
C133 C132 1.359 . S
C133 C134 1.380 . S
C133 H156 0.929 . S
C134 C133 1.380 . S
C134 C135 1.347 . S
C134 H157 0.931 . S
C135 C134 1.347 . S
C135 C136 1.369 . S
C136 C135 1.369 . S
C136 C137 1.408 . S
C136 H158 0.930 . S
C137 C132 1.348 . S
C137 C136 1.408 . S
C137 H159 0.930 . S
C138 O148 1.281 . S
C138 O149 1.254 . S
C139 O150 1.236 . S
C139 O151 1.266 1_545 S
O140 Tb120 2.484 . S
O140 C122 1.248 . S
O141 Tb120 2.440 . S
O141 C122 1.266 . S
O142 Tb120 2.658 1_545 S
O142 Tb121 2.325 . S
O142 C129 1.281 . S
O143 Tb120 2.409 1_545 S
O143 C129 1.254 . S
O144 Tb120 2.398 . S
O144 C130 1.222 . S
O145 Tb121 2.341 . S
O145 C130 1.266 1_545 S
O146 Tb121 2.484 . S
O146 C131 1.248 . S
O147 Tb121 2.440 . S
O147 C131 1.266 . S
O148 Tb120 2.325 . S
O148 Tb121 2.658 1_565 S
O148 C138 1.281 . S
O149 Tb121 2.409 1_565 S
O149 C138 1.254 . S
O150 Tb121 2.378 . S
O150 C139 1.236 . S
O151 Tb120 2.341 . S
O151 C139 1.266 1_565 S
H152 C124 0.929 . S
H153 C125 0.931 . S
H154 C127 0.930 . S
H155 C128 0.930 . S
H156 C133 0.929 . S
H157 C134 0.931 . S
H158 C136 0.930 . S
H159 C137 0.930 . S
Tb160 C162 2.809 . S
Tb160 O180 2.484 . S
Tb160 O181 2.440 . S
Tb160 O182 2.658 . S
Tb160 O183 2.409 . S
Tb160 O184 2.378 . S
Tb160 O188 2.325 . S
Tb160 O191 2.341 . S
Tb161 C171 2.809 . S
Tb161 O182 2.325 . S
Tb161 O185 2.341 . S
Tb161 O186 2.484 . S
Tb161 O187 2.440 . S
Tb161 O188 2.658 . S
Tb161 O189 2.409 . S
Tb161 O190 2.378 . S
C162 Tb160 2.809 . S
C162 C163 1.514 . S
C162 O180 1.248 . S
C162 O181 1.266 . S
C163 C162 1.514 . S
C163 C164 1.359 . S
C163 C168 1.348 . S
C164 C163 1.359 . S
C164 C165 1.380 . S
C164 H192 0.929 . S
C165 C164 1.380 . S
C165 C166 1.347 . S
C165 H193 0.931 . S
C166 C165 1.347 . S
C166 C167 1.369 . S
C167 C166 1.369 . S
C167 C168 1.408 . S
C167 H194 0.930 . S
C168 C163 1.348 . S
C168 C167 1.408 . S
C168 H195 0.930 . S
C169 O182 1.281 . S
C169 O183 1.254 . S
C170 O184 1.236 . S
C170 O185 1.266 . S
C171 Tb161 2.809 . S
C171 C172 1.514 . S
C171 O186 1.248 . S
C171 O187 1.266 . S
C172 C171 1.514 . S
C172 C173 1.359 . S
C172 C177 1.348 . S
C173 C172 1.359 . S
C173 C174 1.380 . S
C173 H196 0.929 . S
C174 C173 1.380 . S
C174 C175 1.347 . S
C174 H197 0.931 . S
C175 C174 1.347 . S
C175 C176 1.369 . S
C176 C175 1.369 . S
C176 C177 1.408 . S
C176 H198 0.930 . S
C177 C172 1.348 . S
C177 C176 1.408 . S
C177 H199 0.930 . S
C178 O188 1.281 . S
C178 O189 1.254 . S
C179 O190 1.236 . S
C179 O191 1.266 . S
O180 Tb160 2.484 . S
O180 C162 1.248 . S
O181 Tb160 2.440 . S
O181 C162 1.266 . S
O182 Tb160 2.658 . S
O182 Tb161 2.325 . S
O182 C169 1.281 . S
O183 Tb160 2.409 . S
O183 C169 1.254 . S
O184 Tb160 2.378 . S
O184 C170 1.236 . S
O185 Tb161 2.341 . S
O185 C170 1.266 . S
O186 Tb161 2.484 . S
O186 C171 1.248 . S
O187 Tb161 2.440 . S
O187 C171 1.266 . S
O188 Tb160 2.325 . S
O188 Tb161 2.658 . S
O188 C178 1.281 . S
O189 Tb161 2.409 . S
O189 C178 1.254 . S
O190 Tb161 2.378 . S
O190 C179 1.236 . S
O191 Tb160 2.341 . S
O191 C179 1.266 . S
H192 C164 0.929 . S
H193 C165 0.931 . S
H194 C167 0.930 . S
H195 C168 0.930 . S
H196 C173 0.929 . S
H197 C174 0.931 . S
H198 C176 0.930 . S
H199 C177 0.930 . S
Tb200 C202 2.809 . S
Tb200 O220 2.484 . S
Tb200 O221 2.440 . S
Tb200 O222 2.658 . S
Tb200 O223 2.409 . S
Tb200 O224 2.378 . S
Tb200 O228 2.325 . S
Tb200 O231 2.341 . S
Tb201 C211 2.809 . S
Tb201 O222 2.325 . S
Tb201 O225 2.341 . S
Tb201 O226 2.484 . S
Tb201 O227 2.440 . S
Tb201 O228 2.658 . S
Tb201 O229 2.409 . S
Tb201 O230 2.378 . S
C202 Tb200 2.809 . S
C202 C203 1.514 . S
C202 O220 1.248 . S
C202 O221 1.266 . S
C203 C202 1.514 . S
C203 C204 1.359 . S
C203 C208 1.348 . S
C204 C203 1.359 . S
C204 C205 1.380 . S
C204 H232 0.929 . S
C205 C204 1.380 . S
C205 C206 1.347 . S
C205 H233 0.931 . S
C206 C205 1.347 . S
C206 C207 1.369 . S
C207 C206 1.369 . S
C207 C208 1.408 . S
C207 H234 0.930 . S
C208 C203 1.348 . S
C208 C207 1.408 . S
C208 H235 0.930 . S
C209 O222 1.281 . S
C209 O223 1.254 . S
C210 O224 1.236 . S
C210 O225 1.266 . S
C211 Tb201 2.809 . S
C211 C212 1.514 . S
C211 O226 1.248 . S
C211 O227 1.266 . S
C212 C211 1.514 . S
C212 C213 1.359 . S
C212 C217 1.348 . S
C213 C212 1.359 . S
C213 C214 1.380 . S
C213 H236 0.929 . S
C214 C213 1.380 . S
C214 C215 1.347 . S
C214 H237 0.931 . S
C215 C214 1.347 . S
C215 C216 1.369 . S
C216 C215 1.369 . S
C216 C217 1.408 . S
C216 H238 0.930 . S
C217 C212 1.348 . S
C217 C216 1.408 . S
C217 H239 0.930 . S
C218 O228 1.281 . S
C218 O229 1.254 . S
C219 O230 1.236 . S
C219 O231 1.266 . S
O220 Tb200 2.484 . S
O220 C202 1.248 . S
O221 Tb200 2.440 . S
O221 C202 1.266 . S
O222 Tb200 2.658 . S
O222 Tb201 2.325 . S
O222 C209 1.281 . S
O223 Tb200 2.409 . S
O223 C209 1.254 . S
O224 Tb200 2.378 . S
O224 C210 1.236 . S
O225 Tb201 2.341 . S
O225 C210 1.266 . S
O226 Tb201 2.484 . S
O226 C211 1.248 . S
O227 Tb201 2.440 . S
O227 C211 1.266 . S
O228 Tb200 2.325 . S
O228 Tb201 2.658 . S
O228 C218 1.281 . S
O229 Tb201 2.409 . S
O229 C218 1.254 . S
O230 Tb201 2.378 . S
O230 C219 1.236 . S
O231 Tb200 2.341 . S
O231 C219 1.266 . S
H232 C204 0.929 . S
H233 C205 0.931 . S
H234 C207 0.930 . S
H235 C208 0.930 . S
H236 C213 0.929 . S
H237 C214 0.931 . S
H238 C216 0.930 . S
H239 C217 0.930 . S
Tb240 C242 2.809 . S
Tb240 O260 2.484 . S
Tb240 O261 2.440 . S
Tb240 O262 2.658 . S
Tb240 O263 2.409 . S
Tb240 O264 2.378 . S
Tb240 O268 2.325 . S
Tb240 O271 2.341 . S
Tb241 C251 2.809 . S
Tb241 O262 2.325 . S
Tb241 O265 2.341 . S
Tb241 O266 2.484 . S
Tb241 O267 2.440 . S
Tb241 O268 2.658 . S
Tb241 O269 2.409 . S
Tb241 O270 2.378 . S
C242 Tb240 2.809 . S
C242 C243 1.514 . S
C242 O260 1.248 . S
C242 O261 1.266 . S
C243 C242 1.514 . S
C243 C244 1.359 . S
C243 C248 1.348 . S
C244 C243 1.359 . S
C244 C245 1.380 . S
C244 H272 0.929 . S
C245 C244 1.380 . S
C245 C246 1.347 . S
C245 H273 0.931 . S
C246 C245 1.347 . S
C246 C247 1.369 . S
C247 C246 1.369 . S
C247 C248 1.408 . S
C247 H274 0.930 . S
C248 C243 1.348 . S
C248 C247 1.408 . S
C248 H275 0.930 . S
C249 O262 1.281 . S
C249 O263 1.254 . S
C250 O264 1.236 . S
C250 O265 1.266 . S
C251 Tb241 2.809 . S
C251 C252 1.514 . S
C251 O266 1.248 . S
C251 O267 1.266 . S
C252 C251 1.514 . S
C252 C253 1.359 . S
C252 C257 1.348 . S
C253 C252 1.359 . S
C253 C254 1.380 . S
C253 H276 0.929 . S
C254 C253 1.380 . S
C254 C255 1.347 . S
C254 H277 0.931 . S
C255 C254 1.347 . S
C255 C256 1.369 . S
C256 C255 1.369 . S
C256 C257 1.408 . S
C256 H278 0.930 . S
C257 C252 1.348 . S
C257 C256 1.408 . S
C257 H279 0.930 . S
C258 O268 1.281 . S
C258 O269 1.254 . S
C259 O270 1.236 . S
C259 O271 1.266 . S
O260 Tb240 2.484 . S
O260 C242 1.248 . S
O261 Tb240 2.440 . S
O261 C242 1.266 . S
O262 Tb240 2.658 . S
O262 Tb241 2.325 . S
O262 C249 1.281 . S
O263 Tb240 2.409 . S
O263 C249 1.254 . S
O264 Tb240 2.378 . S
O264 C250 1.236 . S
O265 Tb241 2.341 . S
O265 C250 1.266 . S
O266 Tb241 2.484 . S
O266 C251 1.248 . S
O267 Tb241 2.440 . S
O267 C251 1.266 . S
O268 Tb240 2.325 . S
O268 Tb241 2.658 . S
O268 C258 1.281 . S
O269 Tb241 2.409 . S
O269 C258 1.254 . S
O270 Tb241 2.378 . S
O270 C259 1.236 . S
O271 Tb240 2.341 . S
O271 C259 1.266 . S
H272 C244 0.929 . S
H273 C245 0.931 . S
H274 C247 0.930 . S
H275 C248 0.930 . S
H276 C253 0.929 . S
H277 C254 0.931 . S
H278 C256 0.930 . S
H279 C257 0.930 . S
Tb280 C282 2.809 . S
Tb280 O300 2.484 . S
Tb280 O301 2.440 . S
Tb280 O302 2.658 1_655 S
Tb280 O303 2.409 1_655 S
Tb280 O304 2.378 1_655 S
Tb280 O308 2.325 . S
Tb280 O311 2.341 . S
Tb281 C291 2.809 . S
Tb281 O302 2.325 . S
Tb281 O305 2.341 . S
Tb281 O306 2.484 . S
Tb281 O307 2.440 . S
Tb281 O308 2.658 1_455 S
Tb281 O309 2.409 1_455 S
Tb281 O310 2.378 1_455 S
C282 Tb280 2.809 . S
C282 C283 1.514 . S
C282 O300 1.248 . S
C282 O301 1.266 . S
C283 C282 1.514 . S
C283 C284 1.359 . S
C283 C288 1.348 . S
C284 C283 1.359 . S
C284 C285 1.380 . S
C284 H312 0.929 . S
C285 C284 1.380 . S
C285 C286 1.347 . S
C285 H313 0.931 . S
C286 C285 1.347 . S
C286 C287 1.369 . S
C287 C286 1.369 . S
C287 C288 1.408 . S
C287 H314 0.930 . S
C288 C283 1.348 . S
C288 C287 1.408 . S
C288 H315 0.930 . S
C289 O302 1.281 . S
C289 O303 1.254 . S
C290 O304 1.236 . S
C290 O305 1.266 . S
C291 Tb281 2.809 . S
C291 C292 1.514 . S
C291 O306 1.248 . S
C291 O307 1.266 . S
C292 C291 1.514 . S
C292 C293 1.359 . S
C292 C297 1.348 . S
C293 C292 1.359 . S
C293 C294 1.380 . S
C293 H316 0.929 . S
C294 C293 1.380 . S
C294 C295 1.347 . S
C294 H317 0.931 . S
C295 C294 1.347 . S
C295 C296 1.369 . S
C296 C295 1.369 . S
C296 C297 1.408 . S
C296 H318 0.930 . S
C297 C292 1.348 . S
C297 C296 1.408 . S
C297 H319 0.930 . S
C298 O308 1.281 . S
C298 O309 1.254 . S
C299 O310 1.236 . S
C299 O311 1.266 . S
O300 Tb280 2.484 . S
O300 C282 1.248 . S
O301 Tb280 2.440 . S
O301 C282 1.266 . S
O302 Tb280 2.658 1_455 S
O302 Tb281 2.325 . S
O302 C289 1.281 . S
O303 Tb280 2.409 1_455 S
O303 C289 1.254 . S
O304 Tb280 2.378 1_455 S
O304 C290 1.236 . S
O305 Tb281 2.341 . S
O305 C290 1.266 . S
O306 Tb281 2.484 . S
O306 C291 1.248 . S
O307 Tb281 2.440 . S
O307 C291 1.266 . S
O308 Tb280 2.325 . S
O308 Tb281 2.658 1_655 S
O308 C298 1.281 . S
O309 Tb281 2.409 1_655 S
O309 C298 1.254 . S
O310 Tb281 2.378 1_655 S
O310 C299 1.236 . S
O311 Tb280 2.341 . S
O311 C299 1.266 . S
H312 C284 0.929 . S
H313 C285 0.931 . S
H314 C287 0.930 . S
H315 C288 0.930 . S
H316 C293 0.929 . S
H317 C294 0.931 . S
H318 C296 0.930 . S
H319 C297 0.930 . S
Tb320 C322 2.809 . S
Tb320 O340 2.484 . S
Tb320 O341 2.440 . S
Tb320 O342 2.658 . S
Tb320 O343 2.409 . S
Tb320 O344 2.378 . S
Tb320 O348 2.325 1_554 S
Tb320 O351 2.341 . S
Tb321 C331 2.809 . S
Tb321 O342 2.325 1_556 S
Tb321 O345 2.341 . S
Tb321 O346 2.484 . S
Tb321 O347 2.440 . S
Tb321 O348 2.658 . S
Tb321 O349 2.409 . S
Tb321 O350 2.378 . S
C322 Tb320 2.809 . S
C322 C323 1.514 . S
C322 O340 1.248 . S
C322 O341 1.266 . S
C323 C322 1.514 . S
C323 C324 1.359 . S
C323 C328 1.348 . S
C324 C323 1.359 . S
C324 C325 1.380 . S
C324 H352 0.929 1_554 S
C325 C324 1.380 . S
C325 C326 1.347 . S
C325 H353 0.931 1_554 S
C326 C325 1.347 . S
C326 C327 1.369 . S
C327 C326 1.369 . S
C327 C328 1.408 . S
C327 H354 0.930 . S
C328 C323 1.348 . S
C328 C327 1.408 . S
C328 H355 0.930 . S
C329 O342 1.281 . S
C329 O343 1.254 . S
C330 O344 1.236 1_556 S
C330 O345 1.266 . S
C331 Tb321 2.809 . S
C331 C332 1.514 . S
C331 O346 1.248 . S
C331 O347 1.266 . S
C332 C331 1.514 . S
C332 C333 1.359 . S
C332 C337 1.348 . S
C333 C332 1.359 . S
C333 C334 1.380 . S
C333 H356 0.929 1_556 S
C334 C333 1.380 . S
C334 C335 1.347 . S
C334 H357 0.931 1_556 S
C335 C334 1.347 . S
C335 C336 1.369 . S
C336 C335 1.369 . S
C336 C337 1.408 . S
C336 H358 0.930 . S
C337 C332 1.348 . S
C337 C336 1.408 . S
C337 H359 0.930 . S
C338 O348 1.281 . S
C338 O349 1.254 . S
C339 O350 1.236 1_554 S
C339 O351 1.266 . S
O340 Tb320 2.484 . S
O340 C322 1.248 . S
O341 Tb320 2.440 . S
O341 C322 1.266 . S
O342 Tb320 2.658 . S
O342 Tb321 2.325 1_554 S
O342 C329 1.281 . S
O343 Tb320 2.409 . S
O343 C329 1.254 . S
O344 Tb320 2.378 . S
O344 C330 1.236 1_554 S
O345 Tb321 2.341 . S
O345 C330 1.266 . S
O346 Tb321 2.484 . S
O346 C331 1.248 . S
O347 Tb321 2.440 . S
O347 C331 1.266 . S
O348 Tb320 2.325 1_556 S
O348 Tb321 2.658 . S
O348 C338 1.281 . S
O349 Tb321 2.409 . S
O349 C338 1.254 . S
O350 Tb321 2.378 . S
O350 C339 1.236 1_556 S
O351 Tb320 2.341 . S
O351 C339 1.266 . S
H352 C324 0.929 1_556 S
H353 C325 0.931 1_556 S
H354 C327 0.930 . S
H355 C328 0.930 . S
H356 C333 0.929 1_554 S
H357 C334 0.931 1_554 S
H358 C336 0.930 . S
H359 C337 0.930 . S
Tb360 C362 2.809 . S
Tb360 O380 2.484 . S
Tb360 O381 2.440 . S
Tb360 O382 2.658 1_565 S
Tb360 O383 2.409 1_565 S
Tb360 O384 2.397 . S
Tb360 O388 2.325 . S
Tb360 O391 2.341 . S
Tb361 C371 2.809 . S
Tb361 O382 2.325 . S
Tb361 O385 2.341 . S
Tb361 O386 2.484 . S
Tb361 O387 2.440 . S
Tb361 O388 2.658 1_545 S
Tb361 O389 2.409 1_545 S
Tb361 O390 2.378 . S
C362 Tb360 2.809 . S
C362 C363 1.514 . S
C362 O380 1.248 . S
C362 O381 1.266 . S
C363 C362 1.514 . S
C363 C364 1.359 . S
C363 C368 1.348 . S
C364 C363 1.359 . S
C364 C365 1.380 . S
C364 H392 0.929 . S
C365 C364 1.380 . S
C365 C366 1.347 . S
C365 H393 0.931 . S
C366 C365 1.347 . S
C366 C367 1.369 . S
C367 C366 1.369 . S
C367 C368 1.408 . S
C367 H394 0.930 . S
C368 C363 1.348 . S
C368 C367 1.408 . S
C368 H395 0.930 . S
C369 O382 1.281 . S
C369 O383 1.254 . S
C370 O384 1.222 . S
C370 O385 1.266 1_565 S
C371 Tb361 2.809 . S
C371 C372 1.514 . S
C371 O386 1.248 . S
C371 O387 1.266 . S
C372 C371 1.514 . S
C372 C373 1.359 . S
C372 C377 1.348 . S
C373 C372 1.359 . S
C373 C374 1.380 . S
C373 H396 0.929 . S
C374 C373 1.380 . S
C374 C375 1.347 . S
C374 H397 0.931 . S
C375 C374 1.347 . S
C375 C376 1.369 . S
C376 C375 1.369 . S
C376 C377 1.408 . S
C376 H398 0.930 . S
C377 C372 1.348 . S
C377 C376 1.408 . S
C377 H399 0.930 . S
C378 O388 1.281 . S
C378 O389 1.254 . S
C379 O390 1.236 . S
C379 O391 1.266 1_545 S
O380 Tb360 2.484 . S
O380 C362 1.248 . S
O381 Tb360 2.440 . S
O381 C362 1.266 . S
O382 Tb360 2.658 1_545 S
O382 Tb361 2.325 . S
O382 C369 1.281 . S
O383 Tb360 2.409 1_545 S
O383 C369 1.254 . S
O384 Tb360 2.397 . S
O384 C370 1.222 . S
O385 Tb361 2.341 . S
O385 C370 1.266 1_545 S
O386 Tb361 2.484 . S
O386 C371 1.248 . S
O387 Tb361 2.440 . S
O387 C371 1.266 . S
O388 Tb360 2.325 . S
O388 Tb361 2.658 1_565 S
O388 C378 1.281 . S
O389 Tb361 2.409 1_565 S
O389 C378 1.254 . S
O390 Tb361 2.378 . S
O390 C379 1.236 . S
O391 Tb360 2.341 . S
O391 C379 1.266 1_565 S
H392 C364 0.929 . S
H393 C365 0.931 . S
H394 C367 0.930 . S
H395 C368 0.930 . S
H396 C373 0.929 . S
H397 C374 0.931 . S
H398 C376 0.930 . S
H399 C377 0.930 . S
Tb400 C402 2.809 . S
Tb400 O420 2.484 . S
Tb400 O421 2.440 . S
Tb400 O422 2.658 . S
Tb400 O423 2.409 . S
Tb400 O424 2.378 . S
Tb400 O428 2.325 . S
Tb400 O431 2.341 . S
Tb401 C411 2.809 . S
Tb401 O422 2.325 . S
Tb401 O425 2.341 . S
Tb401 O426 2.484 . S
Tb401 O427 2.440 . S
Tb401 O428 2.658 . S
Tb401 O429 2.409 . S
Tb401 O430 2.378 . S
C402 Tb400 2.809 . S
C402 C403 1.514 . S
C402 O420 1.248 . S
C402 O421 1.266 . S
C403 C402 1.514 . S
C403 C404 1.359 . S
C403 C408 1.348 . S
C404 C403 1.359 . S
C404 C405 1.380 . S
C404 H432 0.929 . S
C405 C404 1.380 . S
C405 C406 1.347 . S
C405 H433 0.931 . S
C406 C405 1.347 . S
C406 C407 1.369 . S
C407 C406 1.369 . S
C407 C408 1.408 . S
C407 H434 0.930 . S
C408 C403 1.348 . S
C408 C407 1.408 . S
C408 H435 0.930 . S
C409 O422 1.281 . S
C409 O423 1.254 . S
C410 O424 1.236 . S
C410 O425 1.266 . S
C411 Tb401 2.809 . S
C411 C412 1.514 . S
C411 O426 1.248 . S
C411 O427 1.266 . S
C412 C411 1.514 . S
C412 C413 1.359 . S
C412 C417 1.348 . S
C413 C412 1.359 . S
C413 C414 1.380 . S
C413 H436 0.929 . S
C414 C413 1.380 . S
C414 C415 1.347 . S
C414 H437 0.931 . S
C415 C414 1.347 . S
C415 C416 1.369 . S
C416 C415 1.369 . S
C416 C417 1.408 . S
C416 H438 0.930 . S
C417 C412 1.348 . S
C417 C416 1.408 . S
C417 H439 0.930 . S
C418 O428 1.281 . S
C418 O429 1.254 . S
C419 O430 1.236 . S
C419 O431 1.266 . S
O420 Tb400 2.484 . S
O420 C402 1.248 . S
O421 Tb400 2.440 . S
O421 C402 1.266 . S
O422 Tb400 2.658 . S
O422 Tb401 2.325 . S
O422 C409 1.281 . S
O423 Tb400 2.409 . S
O423 C409 1.254 . S
O424 Tb400 2.378 . S
O424 C410 1.236 . S
O425 Tb401 2.341 . S
O425 C410 1.266 . S
O426 Tb401 2.484 . S
O426 C411 1.248 . S
O427 Tb401 2.440 . S
O427 C411 1.266 . S
O428 Tb400 2.325 . S
O428 Tb401 2.658 . S
O428 C418 1.281 . S
O429 Tb401 2.409 . S
O429 C418 1.254 . S
O430 Tb401 2.378 . S
O430 C419 1.236 . S
O431 Tb400 2.341 . S
O431 C419 1.266 . S
H432 C404 0.929 . S
H433 C405 0.931 . S
H434 C407 0.930 . S
H435 C408 0.930 . S
H436 C413 0.929 . S
H437 C414 0.931 . S
H438 C416 0.930 . S
H439 C417 0.930 . S
Tb440 C442 2.809 . S
Tb440 O460 2.485 . S
Tb440 O461 2.440 . S
Tb440 O462 2.658 . S
Tb440 O463 2.409 . S
Tb440 O464 2.378 1_455 S
Tb440 O468 2.325 1_455 S
Tb440 O471 2.341 . S
Tb441 C451 2.809 . S
Tb441 O462 2.325 1_655 S
Tb441 O465 2.341 . S
Tb441 O466 2.484 1_655 S
Tb441 O467 2.440 . S
Tb441 O468 2.658 . S
Tb441 O469 2.409 . S
Tb441 O470 2.378 1_655 S
C442 Tb440 2.809 . S
C442 C443 1.514 . S
C442 O460 1.252 . S
C442 O461 1.266 . S
C443 C442 1.514 . S
C443 C444 1.359 1_455 S
C443 C448 1.348 . S
C444 C443 1.359 1_655 S
C444 C445 1.380 . S
C444 H472 0.929 . S
C445 C444 1.380 . S
C445 C446 1.347 1_655 S
C445 H473 0.931 . S
C446 C445 1.347 1_455 S
C446 C447 1.369 . S
C447 C446 1.369 . S
C447 C448 1.408 . S
C447 H474 0.930 . S
C448 C443 1.348 . S
C448 C447 1.408 . S
C448 H475 0.930 . S
C449 O462 1.281 . S
C449 O463 1.254 . S
C450 O464 1.236 . S
C450 O465 1.266 . S
C451 Tb441 2.809 . S
C451 C452 1.514 . S
C451 O466 1.248 1_655 S
C451 O467 1.266 . S
C452 C451 1.514 . S
C452 C453 1.359 1_655 S
C452 C457 1.348 . S
C453 C452 1.359 1_455 S
C453 C454 1.380 . S
C453 H476 0.929 . S
C454 C453 1.380 . S
C454 C455 1.347 1_455 S
C454 H477 0.931 . S
C455 C454 1.347 1_655 S
C455 C456 1.369 . S
C456 C455 1.369 . S
C456 C457 1.408 . S
C456 H478 0.930 . S
C457 C452 1.348 . S
C457 C456 1.408 . S
C457 H479 0.930 . S
C458 O468 1.281 . S
C458 O469 1.254 . S
C459 O470 1.236 . S
C459 O471 1.266 . S
O460 Tb440 2.485 . S
O460 C442 1.252 . S
O461 Tb440 2.440 . S
O461 C442 1.266 . S
O462 Tb440 2.658 . S
O462 Tb441 2.325 1_455 S
O462 C449 1.281 . S
O463 Tb440 2.409 . S
O463 C449 1.254 . S
O464 Tb440 2.378 1_655 S
O464 C450 1.236 . S
O465 Tb441 2.341 . S
O465 C450 1.266 . S
O466 Tb441 2.484 1_455 S
O466 C451 1.248 1_455 S
O467 Tb441 2.440 . S
O467 C451 1.266 . S
O468 Tb440 2.325 1_655 S
O468 Tb441 2.658 . S
O468 C458 1.281 . S
O469 Tb441 2.409 . S
O469 C458 1.254 . S
O470 Tb441 2.378 1_455 S
O470 C459 1.236 . S
O471 Tb440 2.341 . S
O471 C459 1.266 . S
H472 C444 0.929 . S
H473 C445 0.931 . S
H474 C447 0.930 . S
H475 C448 0.930 . S
H476 C453 0.929 . S
H477 C454 0.931 . S
H478 C456 0.930 . S
H479 C457 0.930 . S
Tb480 C482 2.809 . S
Tb480 O500 2.484 . S
Tb480 O501 2.440 . S
Tb480 O502 2.658 . S
Tb480 O503 2.409 . S
Tb480 O504 2.378 . S
Tb480 O508 2.325 . S
Tb480 O511 2.341 . S
Tb481 C491 2.809 . S
Tb481 O502 2.325 . S
Tb481 O505 2.341 . S
Tb481 O506 2.484 . S
Tb481 O507 2.440 . S
Tb481 O508 2.658 . S
Tb481 O509 2.409 . S
Tb481 O510 2.378 . S
C482 Tb480 2.809 . S
C482 C483 1.514 . S
C482 O500 1.248 . S
C482 O501 1.266 . S
C483 C482 1.514 . S
C483 C484 1.359 . S
C483 C488 1.348 . S
C484 C483 1.359 . S
C484 C485 1.380 . S
C484 H512 0.929 . S
C485 C484 1.380 . S
C485 C486 1.347 . S
C485 H513 0.931 . S
C486 C485 1.347 . S
C486 C487 1.369 . S
C487 C486 1.369 . S
C487 C488 1.408 . S
C487 H514 0.930 . S
C488 C483 1.348 . S
C488 C487 1.408 . S
C488 H515 0.930 . S
C489 O502 1.281 . S
C489 O503 1.254 . S
C490 O504 1.236 . S
C490 O505 1.266 . S
C491 Tb481 2.809 . S
C491 C492 1.514 . S
C491 O506 1.248 . S
C491 O507 1.266 . S
C492 C491 1.514 . S
C492 C493 1.359 . S
C492 C497 1.348 . S
C493 C492 1.359 . S
C493 C494 1.380 . S
C493 H516 0.929 . S
C494 C493 1.380 . S
C494 C495 1.347 . S
C494 H517 0.931 . S
C495 C494 1.347 . S
C495 C496 1.369 . S
C496 C495 1.369 . S
C496 C497 1.408 . S
C496 H518 0.930 . S
C497 C492 1.348 . S
C497 C496 1.408 . S
C497 H519 0.930 . S
C498 O508 1.281 . S
C498 O509 1.254 . S
C499 O510 1.236 . S
C499 O511 1.266 . S
O500 Tb480 2.484 . S
O500 C482 1.248 . S
O501 Tb480 2.440 . S
O501 C482 1.266 . S
O502 Tb480 2.658 . S
O502 Tb481 2.325 . S
O502 C489 1.281 . S
O503 Tb480 2.409 . S
O503 C489 1.254 . S
O504 Tb480 2.378 . S
O504 C490 1.236 . S
O505 Tb481 2.341 . S
O505 C490 1.266 . S
O506 Tb481 2.484 . S
O506 C491 1.248 . S
O507 Tb481 2.440 . S
O507 C491 1.266 . S
O508 Tb480 2.325 . S
O508 Tb481 2.658 . S
O508 C498 1.281 . S
O509 Tb481 2.409 . S
O509 C498 1.254 . S
O510 Tb481 2.378 . S
O510 C499 1.236 . S
O511 Tb480 2.341 . S
O511 C499 1.266 . S
H512 C484 0.929 . S
H513 C485 0.931 . S
H514 C487 0.930 . S
H515 C488 0.930 . S
H516 C493 0.929 . S
H517 C494 0.931 . S
H518 C496 0.930 . S
H519 C497 0.930 . S
Tb520 C522 2.809 . S
Tb520 O540 2.484 . S
Tb520 O541 2.440 . S
Tb520 O542 2.658 . S
Tb520 O543 2.409 . S
Tb520 O544 2.378 . S
Tb520 O548 2.325 1_554 S
Tb520 O551 2.341 . S
Tb521 C531 2.809 . S
Tb521 O542 2.325 1_556 S
Tb521 O545 2.341 . S
Tb521 O546 2.484 . S
Tb521 O547 2.440 . S
Tb521 O548 2.658 . S
Tb521 O549 2.409 . S
Tb521 O550 2.378 . S
C522 Tb520 2.809 . S
C522 C523 1.514 . S
C522 O540 1.248 . S
C522 O541 1.266 . S
C523 C522 1.514 . S
C523 C524 1.359 . S
C523 C528 1.348 . S
C524 C523 1.359 . S
C524 C525 1.380 . S
C524 H552 0.929 1_554 S
C525 C524 1.380 . S
C525 C526 1.347 . S
C525 H553 0.931 1_554 S
C526 C525 1.347 . S
C526 C527 1.369 . S
C527 C526 1.369 . S
C527 C528 1.408 . S
C527 H554 0.930 . S
C528 C523 1.348 . S
C528 C527 1.408 . S
C528 H555 0.930 . S
C529 O542 1.281 . S
C529 O543 1.254 . S
C530 O544 1.236 1_556 S
C530 O545 1.266 . S
C531 Tb521 2.809 . S
C531 C532 1.514 . S
C531 O546 1.248 . S
C531 O547 1.266 . S
C532 C531 1.514 . S
C532 C533 1.359 . S
C532 C537 1.348 . S
C533 C532 1.359 . S
C533 C534 1.380 . S
C533 H556 0.929 1_556 S
C534 C533 1.380 . S
C534 C535 1.347 . S
C534 H557 0.931 1_556 S
C535 C534 1.347 . S
C535 C536 1.369 . S
C536 C535 1.369 . S
C536 C537 1.408 . S
C536 H558 0.930 . S
C537 C532 1.348 . S
C537 C536 1.408 . S
C537 H559 0.930 . S
C538 O548 1.281 . S
C538 O549 1.254 . S
C539 O550 1.236 1_554 S
C539 O551 1.266 . S
O540 Tb520 2.484 . S
O540 C522 1.248 . S
O541 Tb520 2.440 . S
O541 C522 1.266 . S
O542 Tb520 2.658 . S
O542 Tb521 2.325 1_554 S
O542 C529 1.281 . S
O543 Tb520 2.409 . S
O543 C529 1.254 . S
O544 Tb520 2.378 . S
O544 C530 1.236 1_554 S
O545 Tb521 2.341 . S
O545 C530 1.266 . S
O546 Tb521 2.484 . S
O546 C531 1.248 . S
O547 Tb521 2.440 . S
O547 C531 1.266 . S
O548 Tb520 2.325 1_556 S
O548 Tb521 2.658 . S
O548 C538 1.281 . S
O549 Tb521 2.409 . S
O549 C538 1.254 . S
O550 Tb521 2.378 . S
O550 C539 1.236 1_556 S
O551 Tb520 2.341 . S
O551 C539 1.266 . S
H552 C524 0.929 1_556 S
H553 C525 0.931 1_556 S
H554 C527 0.930 . S
H555 C528 0.930 . S
H556 C533 0.929 1_554 S
H557 C534 0.931 1_554 S
H558 C536 0.930 . S
H559 C537 0.930 . S
Tb560 C562 2.809 . S
Tb560 O580 2.484 . S
Tb560 O581 2.440 . S
Tb560 O582 2.658 . S
Tb560 O583 2.409 . S
Tb560 O584 2.378 . S
Tb560 O588 2.325 1_565 S
Tb560 O591 2.341 1_565 S
Tb561 C571 2.809 . S
Tb561 O582 2.325 1_545 S
Tb561 O585 2.341 1_545 S
Tb561 O586 2.484 . S
Tb561 O587 2.440 . S
Tb561 O588 2.658 . S
Tb561 O589 2.409 . S
Tb561 O590 2.378 . S
C562 Tb560 2.809 . S
C562 C563 1.514 . S
C562 O580 1.248 . S
C562 O581 1.266 . S
C563 C562 1.514 . S
C563 C564 1.359 . S
C563 C568 1.348 . S
C564 C563 1.359 . S
C564 C565 1.380 . S
C564 H592 0.929 . S
C565 C564 1.380 . S
C565 C566 1.347 . S
C565 H593 0.931 . S
C566 C565 1.347 . S
C566 C567 1.369 . S
C567 C566 1.369 . S
C567 C568 1.408 . S
C567 H594 0.930 . S
C568 C563 1.348 . S
C568 C567 1.408 . S
C568 H595 0.930 . S
C569 O582 1.281 . S
C569 O583 1.254 . S
C570 O584 1.236 . S
C570 O585 1.266 . S
C571 Tb561 2.809 . S
C571 C572 1.514 . S
C571 O586 1.248 . S
C571 O587 1.266 . S
C572 C571 1.514 . S
C572 C573 1.359 . S
C572 C577 1.348 . S
C573 C572 1.359 . S
C573 C574 1.380 . S
C573 H596 0.929 . S
C574 C573 1.380 . S
C574 C575 1.347 . S
C574 H597 0.931 . S
C575 C574 1.347 . S
C575 C576 1.369 . S
C576 C575 1.369 . S
C576 C577 1.408 . S
C576 H598 0.930 . S
C577 C572 1.348 . S
C577 C576 1.408 . S
C577 H599 0.930 . S
C578 O588 1.281 . S
C578 O589 1.254 . S
C579 O590 1.236 . S
C579 O591 1.266 . S
O580 Tb560 2.484 . S
O580 C562 1.248 . S
O581 Tb560 2.440 . S
O581 C562 1.266 . S
O582 Tb560 2.658 . S
O582 Tb561 2.325 1_565 S
O582 C569 1.281 . S
O583 Tb560 2.409 . S
O583 C569 1.254 . S
O584 Tb560 2.378 . S
O584 C570 1.236 . S
O585 Tb561 2.341 1_565 S
O585 C570 1.266 . S
O586 Tb561 2.484 . S
O586 C571 1.248 . S
O587 Tb561 2.440 . S
O587 C571 1.266 . S
O588 Tb560 2.325 1_545 S
O588 Tb561 2.658 . S
O588 C578 1.281 . S
O589 Tb561 2.409 . S
O589 C578 1.254 . S
O590 Tb561 2.378 . S
O590 C579 1.236 . S
O591 Tb560 2.341 1_545 S
O591 C579 1.266 . S
H592 C564 0.929 . S
H593 C565 0.931 . S
H594 C567 0.930 . S
H595 C568 0.930 . S
H596 C573 0.929 . S
H597 C574 0.931 . S
H598 C576 0.930 . S
H599 C577 0.930 . S
Tb600 C602 2.809 . S
Tb600 O620 2.484 . S
Tb600 O621 2.440 . S
Tb600 O622 2.658 . S
Tb600 O623 2.409 . S
Tb600 O624 2.378 . S
Tb600 O628 2.325 1_554 S
Tb600 O631 2.341 . S
Tb601 C611 2.809 . S
Tb601 O622 2.325 1_556 S
Tb601 O625 2.341 . S
Tb601 O626 2.484 . S
Tb601 O627 2.440 . S
Tb601 O628 2.658 . S
Tb601 O629 2.409 . S
Tb601 O630 2.378 . S
C602 Tb600 2.809 . S
C602 C603 1.514 . S
C602 O620 1.248 . S
C602 O621 1.266 . S
C603 C602 1.514 . S
C603 C604 1.359 . S
C603 C608 1.348 . S
C604 C603 1.359 . S
C604 C605 1.380 . S
C604 H632 0.929 1_554 S
C605 C604 1.380 . S
C605 C606 1.347 . S
C605 H633 0.931 1_554 S
C606 C605 1.347 . S
C606 C607 1.369 . S
C607 C606 1.369 . S
C607 C608 1.408 . S
C607 H634 0.930 . S
C608 C603 1.348 . S
C608 C607 1.408 . S
C608 H635 0.930 . S
C609 O622 1.281 . S
C609 O623 1.254 . S
C610 O624 1.236 1_556 S
C610 O625 1.266 . S
C611 Tb601 2.809 . S
C611 C612 1.514 . S
C611 O626 1.248 . S
C611 O627 1.266 . S
C612 C611 1.514 . S
C612 C613 1.359 . S
C612 C617 1.348 . S
C613 C612 1.359 . S
C613 C614 1.380 . S
C613 H636 0.929 1_556 S
C614 C613 1.380 . S
C614 C615 1.347 . S
C614 H637 0.931 1_556 S
C615 C614 1.347 . S
C615 C616 1.369 . S
C616 C615 1.369 . S
C616 C617 1.408 . S
C616 H638 0.930 . S
C617 C612 1.348 . S
C617 C616 1.408 . S
C617 H639 0.930 . S
C618 O628 1.281 . S
C618 O629 1.254 . S
C619 O630 1.236 1_554 S
C619 O631 1.266 . S
O620 Tb600 2.484 . S
O620 C602 1.248 . S
O621 Tb600 2.440 . S
O621 C602 1.266 . S
O622 Tb600 2.658 . S
O622 Tb601 2.325 1_554 S
O622 C609 1.281 . S
O623 Tb600 2.409 . S
O623 C609 1.254 . S
O624 Tb600 2.378 . S
O624 C610 1.236 1_554 S
O625 Tb601 2.341 . S
O625 C610 1.266 . S
O626 Tb601 2.484 . S
O626 C611 1.248 . S
O627 Tb601 2.440 . S
O627 C611 1.266 . S
O628 Tb600 2.325 1_556 S
O628 Tb601 2.658 . S
O628 C618 1.281 . S
O629 Tb601 2.409 . S
O629 C618 1.254 . S
O630 Tb601 2.378 . S
O630 C619 1.236 1_556 S
O631 Tb600 2.341 . S
O631 C619 1.266 . S
H632 C604 0.929 1_556 S
H633 C605 0.931 1_556 S
H634 C607 0.930 . S
H635 C608 0.930 . S
H636 C613 0.929 1_554 S
H637 C614 0.931 1_554 S
H638 C616 0.930 . S
H639 C617 0.930 . S
C640 C641 1.391 . S
C640 C642 1.394 . S
C640 H656 0.931 . S
C641 C640 1.391 . S
C641 C645 1.376 1_655 S
C642 C640 1.394 . S
C642 C643 1.369 . S
C642 C646 1.531 . S
C643 C642 1.369 . S
C643 C644 1.410 1_655 S
C643 C651 1.503 . S
C644 C643 1.410 1_455 S
C644 C645 1.392 . S
C644 C647 1.511 . S
C645 C641 1.376 1_455 S
C645 C644 1.392 . S
C645 H657 0.929 . S
C646 C642 1.531 . S
C646 H658 0.960 . S
C646 H659 0.962 . S
C646 H660 0.960 . S
C647 C644 1.511 . S
C647 H661 0.961 . S
C647 H662 0.961 . S
C647 H663 0.961 . S
C648 C649 1.370 . S
C648 C650 1.363 . S
C648 H664 0.931 . S
C649 C648 1.370 . S
C649 C653 1.407 1_655 S
C650 C648 1.363 . S
C650 C651 1.370 . S
C650 C654 1.524 . S
C651 C643 1.503 . S
C651 C650 1.370 . S
C651 C652 1.415 . S
C652 C651 1.415 . S
C652 C653 1.390 1_655 S
C652 C655 1.535 1_655 S
C653 C649 1.407 1_455 S
C653 C652 1.390 1_455 S
C653 H665 0.935 . S
C654 C650 1.524 . S
C654 H666 0.956 . S
C654 H667 0.961 . S
C654 H668 0.961 . S
C655 C652 1.535 1_455 S
C655 H669 0.958 . S
C655 H670 0.961 . S
C655 H671 0.960 . S
H656 C640 0.931 . S
H657 C645 0.929 . S
H658 C646 0.960 . S
H659 C646 0.962 . S
H660 C646 0.960 . S
H661 C647 0.961 . S
H662 C647 0.961 . S
H663 C647 0.961 . S
H664 C648 0.931 . S
H665 C653 0.935 . S
H666 C654 0.956 . S
H667 C654 0.961 . S
H668 C654 0.961 . S
H669 C655 0.958 . S
H670 C655 0.961 . S
H671 C655 0.960 . S
C672 C673 1.391 . S
C672 C674 1.394 . S
C672 H688 0.931 . S
C673 C672 1.391 . S
C673 C677 1.376 . S
C674 C672 1.394 . S
C674 C675 1.369 . S
C674 C678 1.531 . S
C675 C674 1.369 . S
C675 C676 1.410 . S
C675 C683 1.503 . S
C676 C675 1.410 . S
C676 C677 1.392 . S
C676 C679 1.511 . S
C677 C673 1.376 . S
C677 C676 1.392 . S
C677 H689 0.929 . S
C678 C674 1.531 . S
C678 H690 0.960 . S
C678 H691 0.962 . S
C678 H692 0.960 . S
C679 C676 1.511 . S
C679 H693 0.961 . S
C679 H694 0.961 . S
C679 H695 0.961 . S
C680 C681 1.370 . S
C680 C682 1.363 . S
C680 H696 0.931 . S
C681 C680 1.370 . S
C681 C685 1.408 . S
C682 C680 1.363 . S
C682 C683 1.370 . S
C682 C686 1.524 . S
C683 C675 1.503 . S
C683 C682 1.370 . S
C683 C684 1.403 . S
C684 C683 1.403 . S
C684 C685 1.404 . S
C684 C687 1.539 . S
C685 C681 1.408 . S
C685 C684 1.404 . S
C685 H697 0.930 . S
C686 C682 1.524 . S
C686 H698 0.956 . S
C686 H699 0.961 . S
C686 H700 0.961 . S
C687 C684 1.539 . S
C687 H701 0.958 . S
C687 H702 0.961 . S
C687 H703 0.960 . S
H688 C672 0.931 . S
H689 C677 0.929 . S
H690 C678 0.960 . S
H691 C678 0.962 . S
H692 C678 0.960 . S
H693 C679 0.961 . S
H694 C679 0.961 . S
H695 C679 0.961 . S
H696 C680 0.931 . S
H697 C685 0.930 . S
H698 C686 0.956 . S
H699 C686 0.961 . S
H700 C686 0.961 . S
H701 C687 0.958 . S
H702 C687 0.961 . S
H703 C687 0.960 . S
C704 C705 1.391 . S
C704 C706 1.394 . S
C704 H720 0.931 . S
C705 C704 1.391 . S
C705 C709 1.376 . S
C706 C704 1.394 . S
C706 C707 1.369 . S
C706 C710 1.531 . S
C707 C706 1.369 . S
C707 C708 1.410 . S
C707 C715 1.503 . S
C708 C707 1.410 . S
C708 C709 1.392 . S
C708 C711 1.511 . S
C709 C705 1.376 . S
C709 C708 1.392 . S
C709 H721 0.929 . S
C710 C706 1.531 . S
C710 H722 0.960 . S
C710 H723 0.962 . S
C710 H724 0.960 . S
C711 C708 1.511 . S
C711 H725 0.961 . S
C711 H726 0.961 . S
C711 H727 0.961 . S
C712 C713 1.370 . S
C712 C714 1.363 . S
C712 H728 0.931 . S
C713 C712 1.370 . S
C713 C717 1.408 . S
C714 C712 1.363 . S
C714 C715 1.370 . S
C714 C718 1.524 . S
C715 C707 1.503 . S
C715 C714 1.370 . S
C715 C716 1.403 . S
C716 C715 1.403 . S
C716 C717 1.404 . S
C716 C719 1.539 . S
C717 C713 1.408 . S
C717 C716 1.404 . S
C717 H729 0.930 . S
C718 C714 1.524 . S
C718 H730 0.956 . S
C718 H731 0.961 . S
C718 H732 0.961 . S
C719 C716 1.539 . S
C719 H733 0.958 . S
C719 H734 0.961 . S
C719 H735 0.960 . S
H720 C704 0.931 . S
H721 C709 0.929 . S
H722 C710 0.960 . S
H723 C710 0.962 . S
H724 C710 0.960 . S
H725 C711 0.961 . S
H726 C711 0.961 . S
H727 C711 0.961 . S
H728 C712 0.931 . S
H729 C717 0.930 . S
H730 C718 0.956 . S
H731 C718 0.961 . S
H732 C718 0.961 . S
H733 C719 0.958 . S
H734 C719 0.961 . S
H735 C719 0.960 . S
C736 C737 1.391 . S
C736 C738 1.394 . S
C736 H752 0.931 . S
C737 C736 1.391 . S
C737 C741 1.376 . S
C738 C736 1.394 . S
C738 C739 1.369 . S
C738 C742 1.531 . S
C739 C738 1.369 . S
C739 C740 1.410 1_545 S
C739 C747 1.503 . S
C740 C739 1.410 1_565 S
C740 C741 1.392 1_565 S
C740 C743 1.511 . S
C741 C737 1.376 . S
C741 C740 1.392 1_545 S
C741 H753 0.929 1_545 S
C742 C738 1.531 . S
C742 H754 0.960 . S
C742 H755 0.962 . S
C742 H756 0.960 . S
C743 C740 1.511 . S
C743 H757 0.961 . S
C743 H758 0.961 . S
C743 H759 0.961 . S
C744 C745 1.370 1_545 S
C744 C746 1.363 . S
C744 H760 0.931 . S
C745 C744 1.370 1_565 S
C745 C749 1.408 . S
C746 C744 1.363 . S
C746 C747 1.370 . S
C746 C750 1.524 . S
C747 C739 1.503 . S
C747 C746 1.370 . S
C747 C748 1.403 1_545 S
C748 C747 1.403 1_565 S
C748 C749 1.404 . S
C748 C751 1.539 . S
C749 C745 1.408 . S
C749 C748 1.404 . S
C749 H761 0.930 . S
C750 C746 1.524 . S
C750 H762 0.956 . S
C750 H763 0.961 . S
C750 H764 0.961 . S
C751 C748 1.539 . S
C751 H765 0.958 . S
C751 H766 0.961 . S
C751 H767 0.960 . S
H752 C736 0.931 . S
H753 C741 0.929 1_565 S
H754 C742 0.960 . S
H755 C742 0.962 . S
H756 C742 0.960 . S
H757 C743 0.961 . S
H758 C743 0.961 . S
H759 C743 0.961 . S
H760 C744 0.931 . S
H761 C749 0.930 . S
H762 C750 0.956 . S
H763 C750 0.961 . S
H764 C750 0.961 . S
H765 C751 0.958 . S
H766 C751 0.961 . S
H767 C751 0.960 . S
C768 C769 1.391 . S
C768 C770 1.394 . S
C768 H784 0.931 . S
C769 C768 1.391 . S
C769 C773 1.376 . S
C770 C768 1.394 . S
C770 C771 1.369 . S
C770 C774 1.531 . S
C771 C770 1.369 . S
C771 C772 1.410 . S
C771 C779 1.503 . S
C772 C771 1.410 . S
C772 C773 1.392 . S
C772 C775 1.511 1_565 S
C773 C769 1.376 . S
C773 C772 1.392 . S
C773 H785 0.950 . S
C774 C770 1.531 . S
C774 H786 0.960 . S
C774 H787 0.962 . S
C774 H788 0.960 . S
C775 C772 1.511 1_545 S
C775 H789 0.961 . S
C775 H790 0.961 . S
C775 H791 0.950 1_545 S
C776 C777 1.370 . S
C776 C778 1.363 . S
C776 H792 0.931 . S
C777 C776 1.370 . S
C777 C781 1.408 1_545 S
C778 C776 1.363 . S
C778 C779 1.370 1_545 S
C778 C782 1.524 . S
C779 C771 1.503 . S
C779 C778 1.370 1_565 S
C779 C780 1.403 . S
C780 C779 1.403 . S
C780 C781 1.404 . S
C780 C783 1.539 . S
C781 C777 1.408 1_565 S
C781 C780 1.404 . S
C781 H793 0.930 . S
C782 C778 1.524 . S
C782 H794 0.956 . S
C782 H795 0.961 . S
C782 H796 0.961 . S
C783 C780 1.539 . S
C783 H797 0.958 . S
C783 H798 0.961 . S
C783 H799 0.960 . S
H784 C768 0.931 . S
H785 C773 0.950 . S
H786 C774 0.960 . S
H787 C774 0.962 . S
H788 C774 0.960 . S
H789 C775 0.961 . S
H790 C775 0.961 . S
H791 C775 0.950 1_565 S
H792 C776 0.931 . S
H793 C781 0.930 . S
H794 C782 0.956 . S
H795 C782 0.961 . S
H796 C782 0.961 . S
H797 C783 0.958 . S
H798 C783 0.961 . S
H799 C783 0.960 . S
C800 C801 1.391 1_655 S
C800 C802 1.394 . S
C800 H816 0.931 . S
C801 C800 1.391 1_455 S
C801 C805 1.376 . S
C802 C800 1.394 . S
C802 C803 1.369 1_655 S
C802 C806 1.531 . S
C803 C802 1.369 1_455 S
C803 C804 1.410 . S
C803 C811 1.503 . S
C804 C803 1.410 . S
C804 C805 1.392 . S
C804 C807 1.511 . S
C805 C801 1.376 . S
C805 C804 1.392 . S
C805 H817 0.929 . S
C806 C802 1.531 . S
C806 H818 0.960 . S
C806 H819 0.962 . S
C806 H820 0.960 . S
C807 C804 1.511 . S
C807 H821 0.961 . S
C807 H822 0.961 . S
C807 H823 0.961 . S
C808 C809 1.370 . S
C808 C810 1.363 . S
C808 H824 0.931 . S
C809 C808 1.370 . S
C809 C813 1.408 . S
C810 C808 1.363 . S
C810 C811 1.370 . S
C810 C814 1.524 . S
C811 C803 1.503 . S
C811 C810 1.370 . S
C811 C812 1.403 . S
C812 C811 1.403 . S
C812 C813 1.404 . S
C812 C815 1.539 . S
C813 C809 1.408 . S
C813 C812 1.404 . S
C813 H825 0.930 . S
C814 C810 1.524 . S
C814 H826 0.956 1_455 S
C814 H827 0.961 . S
C814 H828 0.961 . S
C815 C812 1.539 . S
C815 H829 0.958 . S
C815 H830 0.961 . S
C815 H831 0.960 . S
H816 C800 0.931 . S
H817 C805 0.929 . S
H818 C806 0.960 . S
H819 C806 0.962 . S
H820 C806 0.960 . S
H821 C807 0.961 . S
H822 C807 0.961 . S
H823 C807 0.961 . S
H824 C808 0.931 . S
H825 C813 0.930 . S
H826 C814 0.956 1_655 S
H827 C814 0.961 . S
H828 C814 0.961 . S
H829 C815 0.958 . S
H830 C815 0.961 . S
H831 C815 0.960 . S
C832 C833 1.391 . S
C832 C834 1.394 . S
C832 H848 0.931 . S
C833 C832 1.391 . S
C833 C837 1.376 . S
C834 C832 1.394 . S
C834 C835 1.369 . S
C834 C838 1.531 . S
C835 C834 1.369 . S
C835 C836 1.410 . S
C835 C843 1.503 . S
C836 C835 1.410 . S
C836 C837 1.392 . S
C836 C839 1.511 . S
C837 C833 1.376 . S
C837 C836 1.392 . S
C837 H849 0.929 . S
C838 C834 1.531 . S
C838 H850 0.960 . S
C838 H851 0.962 . S
C838 H852 0.960 . S
C839 C836 1.511 . S
C839 H853 0.961 . S
C839 H854 0.961 . S
C839 H855 0.961 . S
C840 C841 1.370 . S
C840 C842 1.363 . S
C840 H856 0.931 . S
C841 C840 1.370 . S
C841 C845 1.408 . S
C842 C840 1.363 . S
C842 C843 1.370 . S
C842 C846 1.524 . S
C843 C835 1.503 . S
C843 C842 1.370 . S
C843 C844 1.403 . S
C844 C843 1.403 . S
C844 C845 1.404 . S
C844 C847 1.539 . S
C845 C841 1.408 . S
C845 C844 1.404 . S
C845 H857 0.930 . S
C846 C842 1.524 . S
C846 H858 0.956 . S
C846 H859 0.961 . S
C846 H860 0.961 . S
C847 C844 1.539 . S
C847 H861 0.958 . S
C847 H862 0.961 . S
C847 H863 0.960 . S
H848 C832 0.931 . S
H849 C837 0.929 . S
H850 C838 0.960 . S
H851 C838 0.962 . S
H852 C838 0.960 . S
H853 C839 0.961 . S
H854 C839 0.961 . S
H855 C839 0.961 . S
H856 C840 0.931 . S
H857 C845 0.930 . S
H858 C846 0.956 . S
H859 C846 0.961 . S
H860 C846 0.961 . S
H861 C847 0.958 . S
H862 C847 0.961 . S
H863 C847 0.960 . S
C864 C865 1.391 . S
C864 C866 1.394 . S
C864 H880 0.931 . S
C865 C864 1.391 . S
C865 C869 1.376 . S
C866 C864 1.394 . S
C866 C867 1.369 . S
C866 C870 1.531 . S
C867 C866 1.369 . S
C867 C868 1.410 . S
C867 C875 1.503 . S
C868 C867 1.410 . S
C868 C869 1.392 . S
C868 C871 1.511 . S
C869 C865 1.376 . S
C869 C868 1.392 . S
C869 H881 0.929 . S
C870 C866 1.531 . S
C870 H882 0.960 . S
C870 H883 0.962 . S
C870 H884 0.960 . S
C871 C868 1.511 . S
C871 H885 0.961 . S
C871 H886 0.961 . S
C871 H887 0.961 . S
C872 C873 1.370 . S
C872 C874 1.363 . S
C872 H888 0.961 . S
C873 C872 1.370 . S
C873 C877 1.408 . S
C874 C872 1.363 . S
C874 C875 1.370 . S
C874 C878 1.524 . S
C875 C867 1.503 . S
C875 C874 1.370 . S
C875 C876 1.403 . S
C876 C875 1.403 . S
C876 C877 1.404 . S
C876 C879 1.539 . S
C877 C873 1.408 . S
C877 C876 1.404 . S
C877 H889 0.930 . S
C878 C874 1.524 . S
C878 H890 0.968 . S
C878 H891 0.961 . S
C878 H892 0.961 1_556 S
C879 C876 1.539 . S
C879 H893 0.958 . S
C879 H894 0.961 . S
C879 H895 0.960 . S
H880 C864 0.931 . S
H881 C869 0.929 . S
H882 C870 0.960 . S
H883 C870 0.962 . S
H884 C870 0.960 . S
H885 C871 0.961 . S
H886 C871 0.961 . S
H887 C871 0.961 . S
H888 C872 0.961 . S
H889 C877 0.930 . S
H890 C878 0.968 . S
H891 C878 0.961 . S
H892 C878 0.961 1_554 S
H893 C879 0.958 . S
H894 C879 0.961 . S
H895 C879 0.960 . S
C896 C897 1.391 . S
C896 C898 1.394 . S
C896 H912 0.931 . S
C897 C896 1.391 . S
C897 C901 1.376 . S
C898 C896 1.394 . S
C898 C899 1.369 . S
C898 C902 1.531 . S
C899 C898 1.369 . S
C899 C900 1.410 . S
C899 C907 1.503 . S
C900 C899 1.410 . S
C900 C901 1.392 . S
C900 C903 1.511 . S
C901 C897 1.376 . S
C901 C900 1.392 . S
C901 H913 0.929 . S
C902 C898 1.531 . S
C902 H914 0.960 . S
C902 H915 0.962 . S
C902 H916 0.960 . S
C903 C900 1.511 . S
C903 H917 0.961 . S
C903 H918 0.961 . S
C903 H919 0.961 . S
C904 C905 1.370 . S
C904 C906 1.363 . S
C904 H920 0.931 . S
C905 C904 1.370 . S
C905 C909 1.408 . S
C906 C904 1.363 . S
C906 C907 1.370 . S
C906 C910 1.524 . S
C907 C899 1.503 . S
C907 C906 1.370 . S
C907 C908 1.403 . S
C908 C907 1.403 . S
C908 C909 1.404 . S
C908 C911 1.539 . S
C909 C905 1.408 . S
C909 C908 1.404 . S
C909 H921 0.930 . S
C910 C906 1.524 . S
C910 H922 0.956 . S
C910 H923 0.961 . S
C910 H924 0.961 . S
C911 C908 1.539 . S
C911 H925 0.958 . S
C911 H926 0.961 . S
C911 H927 0.960 . S
H912 C896 0.931 . S
H913 C901 0.929 . S
H914 C902 0.960 . S
H915 C902 0.962 . S
H916 C902 0.960 . S
H917 C903 0.961 . S
H918 C903 0.961 . S
H919 C903 0.961 . S
H920 C904 0.931 . S
H921 C909 0.930 . S
H922 C910 0.956 . S
H923 C910 0.961 . S
H924 C910 0.961 . S
H925 C911 0.958 . S
H926 C911 0.961 . S
H927 C911 0.960 . S
C928 C929 1.391 . S
C928 C930 1.394 . S
C928 H944 0.931 . S
C929 C928 1.391 . S
C929 C933 1.376 . S
C930 C928 1.394 . S
C930 C931 1.369 . S
C930 C934 1.531 . S
C931 C930 1.369 . S
C931 C932 1.410 . S
C931 C939 1.503 . S
C932 C931 1.410 . S
C932 C933 1.392 . S
C932 C935 1.511 . S
C933 C929 1.376 . S
C933 C932 1.392 . S
C933 H945 0.929 . S
C934 C930 1.531 . S
C934 H946 0.960 . S
C934 H947 0.962 . S
C934 H948 0.960 . S
C935 C932 1.511 . S
C935 H949 0.961 . S
C935 H950 0.961 . S
C935 H951 0.961 . S
C936 C937 1.370 . S
C936 C938 1.363 . S
C936 H952 0.931 . S
C937 C936 1.370 . S
C937 C941 1.408 . S
C938 C936 1.363 . S
C938 C939 1.370 . S
C938 C942 1.524 . S
C939 C931 1.503 . S
C939 C938 1.370 . S
C939 C940 1.403 . S
C940 C939 1.403 . S
C940 C941 1.404 . S
C940 C943 1.539 . S
C941 C937 1.408 . S
C941 C940 1.404 . S
C941 H953 0.930 . S
C942 C938 1.524 . S
C942 H954 0.956 . S
C942 H955 0.961 . S
C942 H956 0.961 . S
C943 C940 1.539 . S
C943 H957 0.958 . S
C943 H958 0.961 . S
C943 H959 0.960 . S
H944 C928 0.931 . S
H945 C933 0.929 . S
H946 C934 0.960 . S
H947 C934 0.962 . S
H948 C934 0.960 . S
H949 C935 0.961 . S
H950 C935 0.961 . S
H951 C935 0.961 . S
H952 C936 0.931 . S
H953 C941 0.930 . S
H954 C942 0.956 . S
H955 C942 0.961 . S
H956 C942 0.961 . S
H957 C943 0.958 . S
H958 C943 0.961 . S
H959 C943 0.960 . S
C960 C961 1.391 . S
C960 C962 1.394 . S
C960 H976 0.931 . S
C961 C960 1.391 . S
C961 C965 1.376 . S
C962 C960 1.394 . S
C962 C963 1.369 . S
C962 C966 1.531 . S
C963 C962 1.369 . S
C963 C964 1.410 . S
C963 C971 1.509 . S
C964 C963 1.410 . S
C964 C965 1.392 . S
C964 C967 1.511 . S
C965 C961 1.376 . S
C965 C964 1.392 . S
C965 H977 0.929 . S
C966 C962 1.531 . S
C966 H978 0.960 1_565 S
C966 H979 0.962 . S
C966 H980 0.960 1_565 S
C967 C964 1.511 . S
C967 H981 0.961 . S
C967 H982 0.961 . S
C967 H983 0.961 1_565 S
C968 C969 1.370 1_565 S
C968 C970 1.363 . S
C968 H984 0.931 . S
C969 C968 1.370 1_545 S
C969 C973 1.408 . S
C970 C968 1.363 . S
C970 C971 1.377 . S
C970 C974 1.524 . S
C971 C963 1.509 . S
C971 C970 1.377 . S
C971 C972 1.390 1_565 S
C972 C971 1.390 1_545 S
C972 C973 1.404 . S
C972 C975 1.539 . S
C973 C969 1.408 . S
C973 C972 1.404 . S
C973 H985 0.930 . S
C974 C970 1.524 . S
C974 H986 0.956 . S
C974 H987 0.961 . S
C974 H988 0.961 . S
C975 C972 1.539 . S
C975 H989 0.958 . S
C975 H990 0.961 . S
C975 H991 0.960 . S
H976 C960 0.931 . S
H977 C965 0.929 . S
H978 C966 0.960 1_545 S
H979 C966 0.962 . S
H980 C966 0.960 1_545 S
H981 C967 0.961 . S
H982 C967 0.961 . S
H983 C967 0.961 1_545 S
H984 C968 0.931 . S
H985 C973 0.930 . S
H986 C974 0.956 . S
H987 C974 0.961 . S
H988 C974 0.961 . S
H989 C975 0.958 . S
H990 C975 0.961 . S
H991 C975 0.960 . S
C992 C993 1.391 . S
C992 C994 1.394 . S
C992 H1008 0.931 . S
C993 C992 1.391 . S
C993 C997 1.376 1_455 S
C994 C992 1.394 . S
C994 C995 1.369 . S
C994 C998 1.531 . S
C995 C994 1.369 . S
C995 C996 1.410 1_455 S
C995 C1003 1.503 . S
C996 C995 1.410 1_655 S
C996 C997 1.392 . S
C996 C999 1.511 . S
C997 C993 1.376 1_655 S
C997 C996 1.392 . S
C997 H1009 0.929 . S
C998 C994 1.531 . S
C998 H1010 0.960 . S
C998 H1011 0.962 . S
C998 H1012 0.960 . S
C999 C996 1.511 . S
C999 H1013 0.961 . S
C999 H1014 0.961 . S
C999 H1015 0.961 . S
C1000 C1001 1.370 . S
C1000 C1002 1.363 . S
C1000 H1016 0.931 . S
C1001 C1000 1.370 . S
C1001 C1005 1.408 . S
C1002 C1000 1.363 . S
C1002 C1003 1.370 . S
C1002 C1006 1.524 . S
C1003 C995 1.503 . S
C1003 C1002 1.370 . S
C1003 C1004 1.403 . S
C1004 C1003 1.403 . S
C1004 C1005 1.404 . S
C1004 C1007 1.539 1_556 S
C1005 C1001 1.408 . S
C1005 C1004 1.404 . S
C1005 H1017 0.930 . S
C1006 C1002 1.524 . S
C1006 H1018 0.956 . S
C1006 H1019 0.961 . S
C1006 H1020 0.961 . S
C1007 C1004 1.539 1_554 S
C1007 H1021 0.958 . S
C1007 H1022 0.961 . S
C1007 H1023 0.960 . S
H1008 C992 0.931 . S
H1009 C997 0.929 . S
H1010 C998 0.960 . S
H1011 C998 0.962 . S
H1012 C998 0.960 . S
H1013 C999 0.961 . S
H1014 C999 0.961 . S
H1015 C999 0.961 . S
H1016 C1000 0.931 . S
H1017 C1005 0.930 . S
H1018 C1006 0.956 . S
H1019 C1006 0.961 . S
H1020 C1006 0.961 . S
H1021 C1007 0.958 . S
H1022 C1007 0.961 . S
H1023 C1007 0.960 . S
C1024 C1025 1.391 . S
C1024 C1026 1.394 . S
C1024 H1040 0.931 . S
C1025 C1024 1.391 . S
C1025 C1029 1.376 . S
C1026 C1024 1.394 . S
C1026 C1027 1.369 . S
C1026 C1030 1.531 . S
C1027 C1026 1.369 . S
C1027 C1028 1.410 . S
C1027 C1035 1.503 . S
C1028 C1027 1.410 . S
C1028 C1029 1.392 . S
C1028 C1031 1.513 1_556 S
C1029 C1025 1.376 . S
C1029 C1028 1.392 . S
C1029 H1041 0.929 . S
C1030 C1026 1.531 . S
C1030 H1042 0.960 . S
C1030 H1043 0.962 . S
C1030 H1044 0.960 . S
C1031 C1028 1.513 1_554 S
C1031 H1045 0.957 . S
C1031 H1046 0.960 . S
C1031 H1047 0.963 1_554 S
C1032 C1033 1.370 . S
C1032 C1034 1.363 . S
C1032 H1048 0.931 1_556 S
C1033 C1032 1.370 . S
C1033 C1037 1.408 . S
C1034 C1032 1.363 . S
C1034 C1035 1.370 . S
C1034 C1038 1.524 1_556 S
C1035 C1027 1.503 . S
C1035 C1034 1.370 . S
C1035 C1036 1.403 . S
C1036 C1035 1.403 . S
C1036 C1037 1.404 . S
C1036 C1039 1.539 . S
C1037 C1033 1.408 . S
C1037 C1036 1.404 . S
C1037 H1049 0.930 . S
C1038 C1034 1.524 1_554 S
C1038 H1050 0.956 1_554 S
C1038 H1051 0.961 . S
C1038 H1052 0.961 . S
C1039 C1036 1.539 . S
C1039 H1053 0.958 . S
C1039 H1054 0.961 . S
C1039 H1055 0.960 . S
H1040 C1024 0.931 . S
H1041 C1029 0.929 . S
H1042 C1030 0.960 . S
H1043 C1030 0.962 . S
H1044 C1030 0.960 . S
H1045 C1031 0.957 . S
H1046 C1031 0.960 . S
H1047 C1031 0.963 1_556 S
H1048 C1032 0.931 1_554 S
H1049 C1037 0.930 . S
H1050 C1038 0.956 1_556 S
H1051 C1038 0.961 . S
H1052 C1038 0.961 . S
H1053 C1039 0.958 . S
H1054 C1039 0.961 . S
H1055 C1039 0.960 . S
C1056 C1057 1.391 . S
C1056 C1058 1.394 . S
C1056 H1072 0.931 . S
C1057 C1056 1.391 . S
C1057 C1061 1.376 . S
C1058 C1056 1.394 . S
C1058 C1059 1.369 . S
C1058 C1062 1.531 . S
C1059 C1058 1.369 . S
C1059 C1060 1.410 . S
C1059 C1067 1.503 . S
C1060 C1059 1.410 . S
C1060 C1061 1.392 . S
C1060 C1063 1.511 . S
C1061 C1057 1.376 . S
C1061 C1060 1.392 . S
C1061 H1073 0.929 . S
C1062 C1058 1.531 . S
C1062 H1074 0.960 . S
C1062 H1075 0.962 . S
C1062 H1076 0.960 . S
C1063 C1060 1.511 . S
C1063 H1077 0.961 . S
C1063 H1078 0.961 . S
C1063 H1079 0.961 . S
C1064 C1065 1.370 . S
C1064 C1066 1.363 . S
C1064 H1080 0.931 . S
C1065 C1064 1.370 . S
C1065 C1069 1.408 . S
C1066 C1064 1.363 . S
C1066 C1067 1.370 . S
C1066 C1070 1.524 . S
C1067 C1059 1.503 . S
C1067 C1066 1.370 . S
C1067 C1068 1.403 . S
C1068 C1067 1.403 . S
C1068 C1069 1.404 . S
C1068 C1071 1.539 . S
C1069 C1065 1.408 . S
C1069 C1068 1.404 . S
C1069 H1081 0.930 . S
C1070 C1066 1.524 . S
C1070 H1082 0.956 . S
C1070 H1083 0.961 . S
C1070 H1084 0.961 . S
C1071 C1068 1.539 . S
C1071 H1085 0.958 . S
C1071 H1086 0.961 . S
C1071 H1087 0.960 . S
H1072 C1056 0.931 . S
H1073 C1061 0.929 . S
H1074 C1062 0.960 . S
H1075 C1062 0.962 . S
H1076 C1062 0.960 . S
H1077 C1063 0.961 . S
H1078 C1063 0.961 . S
H1079 C1063 0.961 . S
H1080 C1064 0.931 . S
H1081 C1069 0.930 . S
H1082 C1070 0.956 . S
H1083 C1070 0.961 . S
H1084 C1070 0.961 . S
H1085 C1071 0.958 . S
H1086 C1071 0.961 . S
H1087 C1071 0.960 . S
C1088 C1089 1.391 . S
C1088 C1090 1.394 . S
C1088 H1104 0.931 . S
C1089 C1088 1.391 . S
C1089 C1093 1.376 . S
C1090 C1088 1.394 . S
C1090 C1091 1.369 . S
C1090 C1094 1.531 . S
C1091 C1090 1.369 . S
C1091 C1092 1.410 . S
C1091 C1099 1.503 . S
C1092 C1091 1.410 . S
C1092 C1093 1.392 . S
C1092 C1095 1.511 . S
C1093 C1089 1.376 . S
C1093 C1092 1.392 . S
C1093 H1105 0.929 . S
C1094 C1090 1.531 . S
C1094 H1106 0.960 . S
C1094 H1107 0.962 . S
C1094 H1108 0.960 . S
C1095 C1092 1.511 . S
C1095 H1109 0.961 . S
C1095 H1110 0.961 . S
C1095 H1111 0.961 . S
C1096 C1097 1.370 . S
C1096 C1098 1.363 . S
C1096 H1112 0.931 . S
C1097 C1096 1.370 . S
C1097 C1101 1.408 . S
C1098 C1096 1.363 . S
C1098 C1099 1.370 . S
C1098 C1102 1.524 . S
C1099 C1091 1.503 . S
C1099 C1098 1.370 . S
C1099 C1100 1.403 . S
C1100 C1099 1.403 . S
C1100 C1101 1.404 . S
C1100 C1103 1.539 . S
C1101 C1097 1.408 . S
C1101 C1100 1.404 . S
C1101 H1113 0.930 . S
C1102 C1098 1.524 . S
C1102 H1114 0.956 . S
C1102 H1115 0.961 . S
C1102 H1116 0.961 . S
C1103 C1100 1.539 . S
C1103 H1117 0.958 . S
C1103 H1118 0.961 . S
C1103 H1119 0.960 . S
H1104 C1088 0.931 . S
H1105 C1093 0.929 . S
H1106 C1094 0.960 . S
H1107 C1094 0.962 . S
H1108 C1094 0.960 . S
H1109 C1095 0.961 . S
H1110 C1095 0.961 . S
H1111 C1095 0.961 . S
H1112 C1096 0.931 . S
H1113 C1101 0.930 . S
H1114 C1102 0.956 . S
H1115 C1102 0.961 . S
H1116 C1102 0.961 . S
H1117 C1103 0.958 . S
H1118 C1103 0.961 . S
H1119 C1103 0.960 . S
C1120 C1121 1.391 . S
C1120 C1122 1.394 . S
C1120 H1136 0.931 . S
C1121 C1120 1.391 . S
C1121 C1125 1.376 . S
C1122 C1120 1.394 . S
C1122 C1123 1.369 . S
C1122 C1126 1.531 . S
C1123 C1122 1.369 . S
C1123 C1124 1.410 . S
C1123 C1131 1.503 . S
C1124 C1123 1.410 . S
C1124 C1125 1.392 . S
C1124 C1127 1.511 . S
C1125 C1121 1.376 . S
C1125 C1124 1.392 . S
C1125 H1137 0.929 . S
C1126 C1122 1.531 . S
C1126 H1138 0.960 . S
C1126 H1139 0.962 . S
C1126 H1140 0.960 . S
C1127 C1124 1.511 . S
C1127 H1141 0.961 . S
C1127 H1142 0.961 . S
C1127 H1143 0.961 . S
C1128 C1129 1.370 . S
C1128 C1130 1.363 . S
C1128 H1144 0.931 . S
C1129 C1128 1.370 . S
C1129 C1133 1.408 . S
C1130 C1128 1.363 . S
C1130 C1131 1.370 . S
C1130 C1134 1.524 . S
C1131 C1123 1.503 . S
C1131 C1130 1.370 . S
C1131 C1132 1.403 . S
C1132 C1131 1.403 . S
C1132 C1133 1.404 . S
C1132 C1135 1.539 . S
C1133 C1129 1.408 . S
C1133 C1132 1.404 . S
C1133 H1145 0.930 . S
C1134 C1130 1.524 . S
C1134 H1146 0.956 . S
C1134 H1147 0.961 . S
C1134 H1148 0.961 . S
C1135 C1132 1.539 . S
C1135 H1149 0.958 . S
C1135 H1150 0.961 . S
C1135 H1151 0.960 . S
H1136 C1120 0.931 . S
H1137 C1125 0.929 . S
H1138 C1126 0.960 . S
H1139 C1126 0.962 . S
H1140 C1126 0.960 . S
H1141 C1127 0.961 . S
H1142 C1127 0.961 . S
H1143 C1127 0.961 . S
H1144 C1128 0.931 . S
H1145 C1133 0.930 . S
H1146 C1134 0.956 . S
H1147 C1134 0.961 . S
H1148 C1134 0.961 . S
H1149 C1135 0.958 . S
H1150 C1135 0.961 . S
H1151 C1135 0.960 . S
C1152 C1153 1.391 . S
C1152 C1154 1.394 . S
C1152 H1168 0.931 . S
C1153 C1152 1.391 . S
C1153 C1157 1.376 . S
C1154 C1152 1.394 . S
C1154 C1155 1.369 . S
C1154 C1158 1.531 . S
C1155 C1154 1.369 . S
C1155 C1156 1.410 . S
C1155 C1163 1.503 . S
C1156 C1155 1.410 . S
C1156 C1157 1.392 . S
C1156 C1159 1.511 . S
C1157 C1153 1.376 . S
C1157 C1156 1.392 . S
C1157 H1169 0.929 . S
C1158 C1154 1.531 . S
C1158 H1170 0.960 . S
C1158 H1171 0.962 . S
C1158 H1172 0.960 . S
C1159 C1156 1.511 . S
C1159 H1173 0.961 . S
C1159 H1174 0.961 . S
C1159 H1175 0.961 . S
C1160 C1161 1.370 . S
C1160 C1162 1.363 . S
C1160 H1176 0.931 . S
C1161 C1160 1.370 . S
C1161 C1165 1.408 . S
C1162 C1160 1.363 . S
C1162 C1163 1.370 . S
C1162 C1166 1.524 . S
C1163 C1155 1.503 . S
C1163 C1162 1.370 . S
C1163 C1164 1.403 . S
C1164 C1163 1.403 . S
C1164 C1165 1.404 . S
C1164 C1167 1.539 . S
C1165 C1161 1.408 . S
C1165 C1164 1.404 . S
C1165 H1177 0.930 . S
C1166 C1162 1.524 . S
C1166 H1178 0.956 . S
C1166 H1179 0.961 . S
C1166 H1180 0.961 . S
C1167 C1164 1.539 . S
C1167 H1181 0.958 . S
C1167 H1182 0.961 . S
C1167 H1183 0.960 . S
H1168 C1152 0.931 . S
H1169 C1157 0.929 . S
H1170 C1158 0.960 . S
H1171 C1158 0.962 . S
H1172 C1158 0.960 . S
H1173 C1159 0.961 . S
H1174 C1159 0.961 . S
H1175 C1159 0.961 . S
H1176 C1160 0.931 . S
H1177 C1165 0.930 . S
H1178 C1166 0.956 . S
H1179 C1166 0.961 . S
H1180 C1166 0.961 . S
H1181 C1167 0.958 . S
H1182 C1167 0.961 . S
H1183 C1167 0.960 . S
C1184 C1185 1.391 . S
C1184 C1186 1.394 . S
C1184 H1200 0.931 . S
C1185 C1184 1.391 . S
C1185 C1189 1.376 . S
C1186 C1184 1.394 . S
C1186 C1187 1.369 . S
C1186 C1190 1.531 . S
C1187 C1186 1.369 . S
C1187 C1188 1.410 . S
C1187 C1195 1.503 . S
C1188 C1187 1.410 . S
C1188 C1189 1.392 . S
C1188 C1191 1.511 . S
C1189 C1185 1.376 . S
C1189 C1188 1.392 . S
C1189 H1201 0.929 . S
C1190 C1186 1.531 . S
C1190 H1202 0.960 . S
C1190 H1203 0.962 . S
C1190 H1204 0.960 . S
C1191 C1188 1.511 . S
C1191 H1205 0.961 . S
C1191 H1206 0.961 . S
C1191 H1207 0.961 . S
C1192 C1193 1.370 . S
C1192 C1194 1.363 . S
C1192 H1208 0.931 . S
C1193 C1192 1.370 . S
C1193 C1197 1.408 . S
C1194 C1192 1.363 . S
C1194 C1195 1.370 . S
C1194 C1198 1.524 . S
C1195 C1187 1.503 . S
C1195 C1194 1.370 . S
C1195 C1196 1.403 . S
C1196 C1195 1.403 . S
C1196 C1197 1.404 . S
C1196 C1199 1.539 . S
C1197 C1193 1.408 . S
C1197 C1196 1.404 . S
C1197 H1209 0.930 . S
C1198 C1194 1.524 . S
C1198 H1210 0.956 . S
C1198 H1211 0.961 . S
C1198 H1212 0.961 . S
C1199 C1196 1.539 . S
C1199 H1213 0.958 . S
C1199 H1214 0.961 . S
C1199 H1215 0.960 . S
H1200 C1184 0.931 . S
H1201 C1189 0.929 . S
H1202 C1190 0.960 . S
H1203 C1190 0.962 . S
H1204 C1190 0.960 . S
H1205 C1191 0.961 . S
H1206 C1191 0.961 . S
H1207 C1191 0.961 . S
H1208 C1192 0.931 . S
H1209 C1197 0.930 . S
H1210 C1198 0.956 . S
H1211 C1198 0.961 . S
H1212 C1198 0.961 . S
H1213 C1199 0.958 . S
H1214 C1199 0.961 . S
H1215 C1199 0.960 . S
C1216 C1217 1.391 . S
C1216 C1218 1.394 . S
C1216 H1232 0.931 . S
C1217 C1216 1.391 . S
C1217 C1221 1.376 . S
C1218 C1216 1.394 . S
C1218 C1219 1.369 . S
C1218 C1222 1.531 . S
C1219 C1218 1.369 . S
C1219 C1220 1.410 . S
C1219 C1227 1.503 . S
C1220 C1219 1.410 . S
C1220 C1221 1.392 . S
C1220 C1223 1.511 . S
C1221 C1217 1.376 . S
C1221 C1220 1.392 . S
C1221 H1233 0.929 . S
C1222 C1218 1.531 . S
C1222 H1234 0.960 . S
C1222 H1235 0.962 . S
C1222 H1236 0.960 . S
C1223 C1220 1.511 . S
C1223 H1237 0.961 . S
C1223 H1238 0.961 . S
C1223 H1239 0.961 . S
C1224 C1225 1.370 . S
C1224 C1226 1.363 . S
C1224 H1240 0.931 . S
C1225 C1224 1.370 . S
C1225 C1229 1.408 . S
C1226 C1224 1.363 . S
C1226 C1227 1.370 . S
C1226 C1230 1.524 . S
C1227 C1219 1.503 . S
C1227 C1226 1.370 . S
C1227 C1228 1.403 . S
C1228 C1227 1.403 . S
C1228 C1229 1.404 . S
C1228 C1231 1.539 . S
C1229 C1225 1.408 . S
C1229 C1228 1.404 . S
C1229 H1241 0.930 . S
C1230 C1226 1.524 . S
C1230 H1242 0.956 . S
C1230 H1243 0.961 . S
C1230 H1244 0.961 . S
C1231 C1228 1.539 . S
C1231 H1245 0.958 . S
C1231 H1246 0.961 . S
C1231 H1247 0.960 . S
H1232 C1216 0.931 . S
H1233 C1221 0.929 . S
H1234 C1222 0.960 . S
H1235 C1222 0.962 . S
H1236 C1222 0.960 . S
H1237 C1223 0.961 . S
H1238 C1223 0.961 . S
H1239 C1223 0.961 . S
H1240 C1224 0.931 . S
H1241 C1229 0.930 . S
H1242 C1230 0.956 . S
H1243 C1230 0.961 . S
H1244 C1230 0.961 . S
H1245 C1231 0.958 . S
H1246 C1231 0.961 . S
H1247 C1231 0.960 . S
C1248 C1249 1.391 . S
C1248 C1250 1.394 . S
C1248 H1264 0.931 . S
C1249 C1248 1.391 . S
C1249 C1253 1.376 . S
C1250 C1248 1.394 . S
C1250 C1251 1.369 . S
C1250 C1254 1.531 . S
C1251 C1250 1.369 . S
C1251 C1252 1.410 . S
C1251 C1259 1.503 . S
C1252 C1251 1.410 . S
C1252 C1253 1.392 . S
C1252 C1255 1.511 . S
C1253 C1249 1.376 . S
C1253 C1252 1.392 . S
C1253 H1265 0.929 . S
C1254 C1250 1.531 . S
C1254 H1266 0.960 . S
C1254 H1267 0.962 . S
C1254 H1268 0.960 . S
C1255 C1252 1.511 . S
C1255 H1269 0.961 . S
C1255 H1270 0.961 . S
C1255 H1271 0.961 . S
C1256 C1257 1.370 . S
C1256 C1258 1.363 . S
C1256 H1272 0.931 . S
C1257 C1256 1.370 . S
C1257 C1261 1.408 . S
C1258 C1256 1.363 . S
C1258 C1259 1.370 . S
C1258 C1262 1.524 . S
C1259 C1251 1.503 . S
C1259 C1258 1.370 . S
C1259 C1260 1.403 . S
C1260 C1259 1.403 . S
C1260 C1261 1.404 . S
C1260 C1263 1.539 . S
C1261 C1257 1.408 . S
C1261 C1260 1.404 . S
C1261 H1273 0.930 . S
C1262 C1258 1.524 . S
C1262 H1274 0.956 . S
C1262 H1275 0.961 . S
C1262 H1276 0.961 . S
C1263 C1260 1.539 . S
C1263 H1277 0.958 . S
C1263 H1278 0.961 . S
C1263 H1279 0.960 . S
H1264 C1248 0.931 . S
H1265 C1253 0.929 . S
H1266 C1254 0.960 . S
H1267 C1254 0.962 . S
H1268 C1254 0.960 . S
H1269 C1255 0.961 . S
H1270 C1255 0.961 . S
H1271 C1255 0.961 . S
H1272 C1256 0.931 . S
H1273 C1261 0.930 . S
H1274 C1262 0.956 . S
H1275 C1262 0.961 . S
H1276 C1262 0.961 . S
H1277 C1263 0.958 . S
H1278 C1263 0.961 . S
H1279 C1263 0.960 . S
C1280 C1281 1.391 . S
C1280 C1282 1.394 . S
C1280 H1296 0.931 . S
C1281 C1280 1.391 . S
C1281 C1285 1.376 . S
C1282 C1280 1.394 . S
C1282 C1283 1.369 . S
C1282 C1286 1.531 . S
C1283 C1282 1.369 . S
C1283 C1284 1.410 . S
C1283 C1291 1.503 . S
C1284 C1283 1.410 . S
C1284 C1285 1.392 . S
C1284 C1287 1.511 . S
C1285 C1281 1.376 . S
C1285 C1284 1.392 . S
C1285 H1297 0.929 . S
C1286 C1282 1.531 . S
C1286 H1298 0.960 . S
C1286 H1299 0.962 . S
C1286 H1300 0.960 . S
C1287 C1284 1.511 . S
C1287 H1301 0.961 . S
C1287 H1302 0.961 . S
C1287 H1303 0.961 . S
C1288 C1289 1.370 . S
C1288 C1290 1.363 . S
C1288 H1304 0.931 . S
C1289 C1288 1.370 . S
C1289 C1293 1.408 . S
C1290 C1288 1.363 . S
C1290 C1291 1.370 . S
C1290 C1294 1.524 . S
C1291 C1283 1.503 . S
C1291 C1290 1.370 . S
C1291 C1292 1.403 . S
C1292 C1291 1.403 . S
C1292 C1293 1.404 . S
C1292 C1295 1.539 . S
C1293 C1289 1.408 . S
C1293 C1292 1.404 . S
C1293 H1305 0.930 . S
C1294 C1290 1.524 . S
C1294 H1306 0.956 . S
C1294 H1307 0.961 . S
C1294 H1308 0.961 . S
C1295 C1292 1.539 . S
C1295 H1309 0.958 . S
C1295 H1310 0.961 . S
C1295 H1311 0.960 . S
H1296 C1280 0.931 . S
H1297 C1285 0.929 . S
H1298 C1286 0.960 . S
H1299 C1286 0.962 . S
H1300 C1286 0.960 . S
H1301 C1287 0.961 . S
H1302 C1287 0.961 . S
H1303 C1287 0.961 . S
H1304 C1288 0.931 . S
H1305 C1293 0.930 . S
H1306 C1294 0.956 . S
H1307 C1294 0.961 . S
H1308 C1294 0.961 . S
H1309 C1295 0.958 . S
H1310 C1295 0.961 . S
H1311 C1295 0.960 . S
C1312 C1313 1.391 1_455 S
C1312 C1314 1.394 . S
C1312 H1328 0.931 . S
C1313 C1312 1.391 1_655 S
C1313 C1317 1.376 . S
C1314 C1312 1.394 . S
C1314 C1315 1.369 1_455 S
C1314 C1318 1.531 . S
C1315 C1314 1.369 1_655 S
C1315 C1316 1.410 . S
C1315 C1323 1.503 . S
C1316 C1315 1.410 . S
C1316 C1317 1.392 . S
C1316 C1319 1.511 . S
C1317 C1313 1.376 . S
C1317 C1316 1.392 . S
C1317 H1329 0.929 . S
C1318 C1314 1.531 . S
C1318 H1330 0.960 . S
C1318 H1331 0.962 . S
C1318 H1332 0.960 . S
C1319 C1316 1.511 . S
C1319 H1333 0.961 . S
C1319 H1334 0.961 . S
C1319 H1335 0.961 . S
C1320 C1321 1.370 . S
C1320 C1322 1.363 . S
C1320 H1336 0.931 . S
C1321 C1320 1.370 . S
C1321 C1325 1.406 1_655 S
C1322 C1320 1.363 . S
C1322 C1323 1.370 . S
C1322 C1326 1.524 . S
C1323 C1315 1.503 . S
C1323 C1322 1.370 . S
C1323 C1324 1.403 1_655 S
C1324 C1323 1.403 1_455 S
C1324 C1325 1.405 . S
C1324 C1327 1.539 . S
C1325 C1321 1.406 1_455 S
C1325 C1324 1.405 . S
C1325 H1337 0.930 . S
C1326 C1322 1.524 . S
C1326 H1338 0.956 . S
C1326 H1339 0.961 . S
C1326 H1340 0.961 . S
C1327 C1324 1.539 . S
C1327 H1341 0.958 . S
C1327 H1342 0.961 . S
C1327 H1343 0.960 . S
H1328 C1312 0.931 . S
H1329 C1317 0.929 . S
H1330 C1318 0.960 . S
H1331 C1318 0.962 . S
H1332 C1318 0.960 . S
H1333 C1319 0.961 . S
H1334 C1319 0.961 . S
H1335 C1319 0.961 . S
H1336 C1320 0.931 . S
H1337 C1325 0.930 . S
H1338 C1326 0.956 . S
H1339 C1326 0.961 . S
H1340 C1326 0.961 . S
H1341 C1327 0.958 . S
H1342 C1327 0.961 . S
H1343 C1327 0.960 . S
C1344 C1345 1.391 . S
C1344 C1346 1.394 . S
C1344 H1360 0.931 . S
C1345 C1344 1.391 . S
C1345 C1349 1.376 . S
C1346 C1344 1.394 . S
C1346 C1347 1.369 . S
C1346 C1350 1.531 . S
C1347 C1346 1.369 . S
C1347 C1348 1.410 . S
C1347 C1355 1.503 . S
C1348 C1347 1.410 . S
C1348 C1349 1.392 . S
C1348 C1351 1.511 . S
C1349 C1345 1.376 . S
C1349 C1348 1.392 . S
C1349 H1361 0.929 . S
C1350 C1346 1.531 . S
C1350 H1362 0.960 . S
C1350 H1363 0.962 . S
C1350 H1364 0.960 . S
C1351 C1348 1.511 . S
C1351 H1365 0.961 . S
C1351 H1366 0.961 . S
C1351 H1367 0.961 . S
C1352 C1353 1.370 . S
C1352 C1354 1.363 . S
C1352 H1368 0.931 . S
C1353 C1352 1.370 . S
C1353 C1357 1.408 . S
C1354 C1352 1.363 . S
C1354 C1355 1.370 . S
C1354 C1358 1.524 . S
C1355 C1347 1.503 . S
C1355 C1354 1.370 . S
C1355 C1356 1.403 . S
C1356 C1355 1.403 . S
C1356 C1357 1.404 . S
C1356 C1359 1.539 . S
C1357 C1353 1.408 . S
C1357 C1356 1.404 . S
C1357 H1369 0.930 . S
C1358 C1354 1.524 . S
C1358 H1370 0.956 . S
C1358 H1371 0.961 . S
C1358 H1372 0.961 . S
C1359 C1356 1.539 . S
C1359 H1373 0.958 . S
C1359 H1374 0.961 . S
C1359 H1375 0.960 . S
H1360 C1344 0.931 . S
H1361 C1349 0.929 . S
H1362 C1350 0.960 . S
H1363 C1350 0.962 . S
H1364 C1350 0.960 . S
H1365 C1351 0.961 . S
H1366 C1351 0.961 . S
H1367 C1351 0.961 . S
H1368 C1352 0.931 . S
H1369 C1357 0.930 . S
H1370 C1358 0.956 . S
H1371 C1358 0.961 . S
H1372 C1358 0.961 . S
H1373 C1359 0.958 . S
H1374 C1359 0.961 . S
H1375 C1359 0.960 . S
C1376 C1377 1.391 . S
C1376 C1378 1.394 . S
C1376 H1392 0.931 . S
C1377 C1376 1.391 . S
C1377 C1381 1.376 . S
C1378 C1376 1.394 . S
C1378 C1379 1.369 . S
C1378 C1382 1.531 . S
C1379 C1378 1.369 . S
C1379 C1380 1.410 . S
C1379 C1387 1.503 . S
C1380 C1379 1.410 . S
C1380 C1381 1.392 . S
C1380 C1383 1.511 . S
C1381 C1377 1.376 . S
C1381 C1380 1.392 . S
C1381 H1393 0.929 . S
C1382 C1378 1.531 . S
C1382 H1394 0.960 . S
C1382 H1395 0.962 . S
C1382 H1396 0.960 . S
C1383 C1380 1.511 . S
C1383 H1397 0.949 1_554 S
C1383 H1398 0.961 . S
C1383 H1399 0.961 1_554 S
C1384 C1385 1.370 . S
C1384 C1386 1.363 . S
C1384 H1400 0.931 . S
C1385 C1384 1.370 . S
C1385 C1389 1.408 . S
C1386 C1384 1.363 . S
C1386 C1387 1.370 . S
C1386 C1390 1.524 . S
C1387 C1379 1.503 . S
C1387 C1386 1.370 . S
C1387 C1388 1.403 . S
C1388 C1387 1.403 . S
C1388 C1389 1.404 . S
C1388 C1391 1.539 . S
C1389 C1385 1.408 . S
C1389 C1388 1.404 . S
C1389 H1401 0.930 . S
C1390 C1386 1.524 . S
C1390 H1402 0.956 . S
C1390 H1403 0.961 . S
C1390 H1404 0.961 . S
C1391 C1388 1.539 . S
C1391 H1405 0.958 . S
C1391 H1406 0.961 . S
C1391 H1407 0.960 . S
H1392 C1376 0.931 . S
H1393 C1381 0.929 . S
H1394 C1382 0.960 . S
H1395 C1382 0.962 . S
H1396 C1382 0.960 . S
H1397 C1383 0.949 1_556 S
H1398 C1383 0.961 . S
H1399 C1383 0.961 1_556 S
H1400 C1384 0.931 . S
H1401 C1389 0.930 . S
H1402 C1390 0.956 . S
H1403 C1390 0.961 . S
H1404 C1390 0.961 . S
H1405 C1391 0.958 . S
H1406 C1391 0.961 . S
H1407 C1391 0.960 . S
C1408 C1409 1.391 . S
C1408 C1410 1.394 . S
C1408 H1424 0.931 . S
C1409 C1408 1.391 . S
C1409 C1413 1.376 . S
C1410 C1408 1.394 . S
C1410 C1411 1.369 . S
C1410 C1414 1.531 . S
C1411 C1410 1.369 . S
C1411 C1412 1.410 . S
C1411 C1419 1.503 . S
C1412 C1411 1.410 . S
C1412 C1413 1.392 . S
C1412 C1415 1.511 . S
C1413 C1409 1.376 . S
C1413 C1412 1.392 . S
C1413 H1425 0.929 . S
C1414 C1410 1.531 . S
C1414 H1426 0.960 . S
C1414 H1427 0.962 . S
C1414 H1428 0.960 . S
C1415 C1412 1.511 . S
C1415 H1429 0.961 . S
C1415 H1430 0.961 . S
C1415 H1431 0.961 . S
C1416 C1417 1.370 . S
C1416 C1418 1.363 . S
C1416 H1432 0.931 . S
C1417 C1416 1.370 . S
C1417 C1421 1.408 . S
C1418 C1416 1.363 . S
C1418 C1419 1.370 . S
C1418 C1422 1.524 . S
C1419 C1411 1.503 . S
C1419 C1418 1.370 . S
C1419 C1420 1.403 . S
C1420 C1419 1.403 . S
C1420 C1421 1.404 . S
C1420 C1423 1.539 . S
C1421 C1417 1.408 . S
C1421 C1420 1.404 . S
C1421 H1433 0.930 . S
C1422 C1418 1.524 . S
C1422 H1434 0.956 . S
C1422 H1435 0.961 . S
C1422 H1436 0.961 . S
C1423 C1420 1.539 . S
C1423 H1437 0.958 . S
C1423 H1438 0.961 . S
C1423 H1439 0.960 . S
H1424 C1408 0.931 . S
H1425 C1413 0.929 . S
H1426 C1414 0.960 . S
H1427 C1414 0.962 . S
H1428 C1414 0.960 . S
H1429 C1415 0.961 . S
H1430 C1415 0.961 . S
H1431 C1415 0.961 . S
H1432 C1416 0.931 . S
H1433 C1421 0.930 . S
H1434 C1422 0.956 . S
H1435 C1422 0.961 . S
H1436 C1422 0.961 . S
H1437 C1423 0.958 . S
H1438 C1423 0.961 . S
H1439 C1423 0.960 . S
C1440 C1441 1.391 . S
C1440 C1442 1.394 . S
C1440 H1456 0.931 . S
C1441 C1440 1.391 . S
C1441 C1445 1.376 . S
C1442 C1440 1.394 . S
C1442 C1443 1.369 . S
C1442 C1446 1.531 . S
C1443 C1442 1.369 . S
C1443 C1444 1.410 . S
C1443 C1451 1.503 . S
C1444 C1443 1.410 . S
C1444 C1445 1.392 . S
C1444 C1447 1.511 . S
C1445 C1441 1.376 . S
C1445 C1444 1.392 . S
C1445 H1457 0.929 . S
C1446 C1442 1.531 . S
C1446 H1458 0.960 . S
C1446 H1459 0.962 . S
C1446 H1460 0.960 . S
C1447 C1444 1.511 . S
C1447 H1461 0.961 . S
C1447 H1462 0.961 . S
C1447 H1463 0.961 . S
C1448 C1449 1.370 . S
C1448 C1450 1.363 . S
C1448 H1464 0.931 . S
C1449 C1448 1.370 . S
C1449 C1453 1.408 . S
C1450 C1448 1.363 . S
C1450 C1451 1.370 . S
C1450 C1454 1.524 . S
C1451 C1443 1.503 . S
C1451 C1450 1.370 . S
C1451 C1452 1.403 . S
C1452 C1451 1.403 . S
C1452 C1453 1.404 . S
C1452 C1455 1.539 . S
C1453 C1449 1.408 . S
C1453 C1452 1.404 . S
C1453 H1465 0.930 . S
C1454 C1450 1.524 . S
C1454 H1466 0.956 . S
C1454 H1467 0.961 . S
C1454 H1468 0.961 . S
C1455 C1452 1.539 . S
C1455 H1469 0.958 . S
C1455 H1470 0.961 . S
C1455 H1471 0.960 . S
H1456 C1440 0.931 . S
H1457 C1445 0.929 . S
H1458 C1446 0.960 . S
H1459 C1446 0.962 . S
H1460 C1446 0.960 . S
H1461 C1447 0.961 . S
H1462 C1447 0.961 . S
H1463 C1447 0.961 . S
H1464 C1448 0.931 . S
H1465 C1453 0.930 . S
H1466 C1454 0.956 . S
H1467 C1454 0.961 . S
H1468 C1454 0.961 . S
H1469 C1455 0.958 . S
H1470 C1455 0.961 . S
H1471 C1455 0.960 . S
C1472 C1473 1.391 1_545 S
C1472 C1474 1.394 . S
C1472 H1488 0.931 . S
C1473 C1472 1.391 1_565 S
C1473 C1477 1.376 . S
C1474 C1472 1.394 . S
C1474 C1475 1.369 . S
C1474 C1478 1.531 . S
C1475 C1474 1.369 . S
C1475 C1476 1.410 . S
C1475 C1483 1.503 . S
C1476 C1475 1.410 . S
C1476 C1477 1.392 1_545 S
C1476 C1479 1.523 . S
C1477 C1473 1.376 . S
C1477 C1476 1.392 1_565 S
C1477 H1489 0.929 . S
C1478 C1474 1.531 . S
C1478 H1490 0.960 . S
C1478 H1491 0.962 . S
C1478 H1492 0.960 . S
C1479 C1476 1.523 . S
C1479 H1493 0.906 1_545 S
C1479 H1494 0.972 1_545 S
C1479 H1495 0.996 . S
C1480 C1481 1.338 1_565 S
C1480 C1482 1.381 . S
C1480 H1496 0.947 . S
C1481 C1480 1.338 1_545 S
C1481 C1485 1.408 . S
C1482 C1480 1.381 . S
C1482 C1483 1.370 1_565 S
C1482 C1486 1.524 . S
C1483 C1475 1.503 . S
C1483 C1482 1.370 1_545 S
C1483 C1484 1.403 . S
C1484 C1483 1.403 . S
C1484 C1485 1.404 . S
C1484 C1487 1.539 . S
C1485 C1481 1.408 . S
C1485 C1484 1.404 . S
C1485 H1497 0.930 . S
C1486 C1482 1.524 . S
C1486 H1498 0.956 . S
C1486 H1499 0.961 . S
C1486 H1500 0.961 . S
C1487 C1484 1.539 . S
C1487 H1501 0.958 . S
C1487 H1502 0.961 . S
C1487 H1503 0.960 . S
H1488 C1472 0.931 . S
H1489 C1477 0.929 . S
H1490 C1478 0.960 . S
H1491 C1478 0.962 . S
H1492 C1478 0.960 . S
H1493 C1479 0.906 1_565 S
H1494 C1479 0.972 1_565 S
H1495 C1479 0.996 . S
H1496 C1480 0.947 . S
H1497 C1485 0.930 . S
H1498 C1486 0.956 . S
H1499 C1486 0.961 . S
H1500 C1486 0.961 . S
H1501 C1487 0.958 . S
H1502 C1487 0.961 . S
H1503 C1487 0.960 . S
C1504 C1505 1.391 . S
C1504 C1506 1.394 . S
C1504 H1520 0.931 . S
C1505 C1504 1.391 . S
C1505 C1509 1.376 . S
C1506 C1504 1.394 . S
C1506 C1507 1.369 . S
C1506 C1510 1.531 . S
C1507 C1506 1.369 . S
C1507 C1508 1.410 . S
C1507 C1515 1.503 . S
C1508 C1507 1.410 . S
C1508 C1509 1.392 . S
C1508 C1511 1.511 . S
C1509 C1505 1.376 . S
C1509 C1508 1.392 . S
C1509 H1521 0.929 . S
C1510 C1506 1.531 . S
C1510 H1522 0.960 1_554 S
C1510 H1523 0.962 . S
C1510 H1524 0.960 1_554 S
C1511 C1508 1.511 . S
C1511 H1525 0.961 . S
C1511 H1526 0.961 . S
C1511 H1527 0.961 . S
C1512 C1513 1.370 . S
C1512 C1514 1.363 . S
C1512 H1528 0.931 . S
C1513 C1512 1.370 . S
C1513 C1517 1.408 . S
C1514 C1512 1.363 . S
C1514 C1515 1.370 . S
C1514 C1518 1.524 . S
C1515 C1507 1.503 . S
C1515 C1514 1.370 . S
C1515 C1516 1.400 1_554 S
C1516 C1515 1.400 1_556 S
C1516 C1517 1.404 1_556 S
C1516 C1519 1.542 . S
C1517 C1513 1.408 . S
C1517 C1516 1.404 1_554 S
C1517 H1529 0.930 1_554 S
C1518 C1514 1.524 . S
C1518 H1530 0.956 . S
C1518 H1531 0.961 . S
C1518 H1532 0.961 . S
C1519 C1516 1.542 . S
C1519 H1533 0.958 . S
C1519 H1534 0.961 . S
C1519 H1535 0.960 . S
H1520 C1504 0.931 . S
H1521 C1509 0.929 . S
H1522 C1510 0.960 1_556 S
H1523 C1510 0.962 . S
H1524 C1510 0.960 1_556 S
H1525 C1511 0.961 . S
H1526 C1511 0.961 . S
H1527 C1511 0.961 . S
H1528 C1512 0.931 . S
H1529 C1517 0.930 1_556 S
H1530 C1518 0.956 . S
H1531 C1518 0.961 . S
H1532 C1518 0.961 . S
H1533 C1519 0.958 . S
H1534 C1519 0.961 . S
H1535 C1519 0.960 . S
C1536 C1537 1.391 . S
C1536 C1538 1.394 . S
C1536 H1552 0.931 . S
C1537 C1536 1.391 . S
C1537 C1541 1.376 . S
C1538 C1536 1.394 . S
C1538 C1539 1.369 . S
C1538 C1542 1.531 . S
C1539 C1538 1.369 . S
C1539 C1540 1.410 . S
C1539 C1547 1.503 . S
C1540 C1539 1.410 . S
C1540 C1541 1.392 . S
C1540 C1543 1.511 . S
C1541 C1537 1.376 . S
C1541 C1540 1.392 . S
C1541 H1553 0.929 . S
C1542 C1538 1.531 . S
C1542 H1554 0.960 . S
C1542 H1555 0.962 . S
C1542 H1556 0.960 . S
C1543 C1540 1.511 . S
C1543 H1557 0.961 . S
C1543 H1558 0.961 . S
C1543 H1559 0.961 . S
C1544 C1545 1.370 . S
C1544 C1546 1.363 . S
C1544 H1560 0.931 . S
C1545 C1544 1.370 . S
C1545 C1549 1.408 . S
C1546 C1544 1.363 . S
C1546 C1547 1.370 . S
C1546 C1550 1.524 . S
C1547 C1539 1.503 . S
C1547 C1546 1.370 . S
C1547 C1548 1.403 . S
C1548 C1547 1.403 . S
C1548 C1549 1.404 . S
C1548 C1551 1.539 . S
C1549 C1545 1.408 . S
C1549 C1548 1.404 . S
C1549 H1561 0.930 . S
C1550 C1546 1.524 . S
C1550 H1562 0.956 . S
C1550 H1563 0.961 . S
C1550 H1564 0.961 . S
C1551 C1548 1.539 . S
C1551 H1565 0.958 . S
C1551 H1566 0.961 . S
C1551 H1567 0.960 . S
H1552 C1536 0.931 . S
H1553 C1541 0.929 . S
H1554 C1542 0.960 . S
H1555 C1542 0.962 . S
H1556 C1542 0.960 . S
H1557 C1543 0.961 . S
H1558 C1543 0.961 . S
H1559 C1543 0.961 . S
H1560 C1544 0.931 . S
H1561 C1549 0.930 . S
H1562 C1550 0.956 . S
H1563 C1550 0.961 . S
H1564 C1550 0.961 . S
H1565 C1551 0.958 . S
H1566 C1551 0.961 . S
H1567 C1551 0.960 . S
C1568 C1569 1.391 . S
C1568 C1570 1.394 . S
C1568 H1584 0.931 . S
C1569 C1568 1.391 . S
C1569 C1573 1.376 . S
C1570 C1568 1.394 . S
C1570 C1571 1.369 . S
C1570 C1574 1.531 . S
C1571 C1570 1.369 . S
C1571 C1572 1.410 . S
C1571 C1579 1.503 . S
C1572 C1571 1.410 . S
C1572 C1573 1.392 . S
C1572 C1575 1.511 . S
C1573 C1569 1.376 . S
C1573 C1572 1.392 . S
C1573 H1585 0.929 . S
C1574 C1570 1.531 . S
C1574 H1586 0.960 . S
C1574 H1587 0.962 . S
C1574 H1588 0.960 . S
C1575 C1572 1.511 . S
C1575 H1589 0.961 . S
C1575 H1590 0.961 . S
C1575 H1591 0.961 . S
C1576 C1577 1.370 . S
C1576 C1578 1.363 . S
C1576 H1592 0.931 . S
C1577 C1576 1.370 . S
C1577 C1581 1.408 . S
C1578 C1576 1.363 . S
C1578 C1579 1.370 . S
C1578 C1582 1.524 . S
C1579 C1571 1.503 . S
C1579 C1578 1.370 . S
C1579 C1580 1.403 . S
C1580 C1579 1.403 . S
C1580 C1581 1.404 . S
C1580 C1583 1.539 . S
C1581 C1577 1.408 . S
C1581 C1580 1.404 . S
C1581 H1593 0.930 . S
C1582 C1578 1.524 . S
C1582 H1594 0.956 . S
C1582 H1595 0.961 . S
C1582 H1596 0.961 . S
C1583 C1580 1.539 . S
C1583 H1597 0.958 . S
C1583 H1598 0.961 . S
C1583 H1599 0.960 . S
H1584 C1568 0.931 . S
H1585 C1573 0.929 . S
H1586 C1574 0.960 . S
H1587 C1574 0.962 . S
H1588 C1574 0.960 . S
H1589 C1575 0.961 . S
H1590 C1575 0.961 . S
H1591 C1575 0.961 . S
H1592 C1576 0.931 . S
H1593 C1581 0.930 . S
H1594 C1582 0.956 . S
H1595 C1582 0.961 . S
H1596 C1582 0.961 . S
H1597 C1583 0.958 . S
H1598 C1583 0.961 . S
H1599 C1583 0.960 . S
C1600 C1601 1.391 . S
C1600 C1602 1.394 . S
C1600 H1616 0.931 . S
C1601 C1600 1.391 . S
C1601 C1605 1.376 . S
C1602 C1600 1.394 . S
C1602 C1603 1.369 . S
C1602 C1606 1.531 . S
C1603 C1602 1.369 . S
C1603 C1604 1.410 . S
C1603 C1611 1.503 . S
C1604 C1603 1.410 . S
C1604 C1605 1.392 . S
C1604 C1607 1.511 . S
C1605 C1601 1.376 . S
C1605 C1604 1.392 . S
C1605 H1617 0.929 . S
C1606 C1602 1.531 . S
C1606 H1618 0.960 . S
C1606 H1619 0.962 . S
C1606 H1620 0.960 . S
C1607 C1604 1.511 . S
C1607 H1621 0.961 . S
C1607 H1622 0.961 . S
C1607 H1623 0.961 . S
C1608 C1609 1.370 . S
C1608 C1610 1.363 . S
C1608 H1624 0.931 . S
C1609 C1608 1.370 . S
C1609 C1613 1.408 . S
C1610 C1608 1.363 . S
C1610 C1611 1.370 . S
C1610 C1614 1.524 . S
C1611 C1603 1.503 . S
C1611 C1610 1.370 . S
C1611 C1612 1.403 . S
C1612 C1611 1.403 . S
C1612 C1613 1.404 . S
C1612 C1615 1.539 . S
C1613 C1609 1.408 . S
C1613 C1612 1.404 . S
C1613 H1625 0.930 . S
C1614 C1610 1.524 . S
C1614 H1626 0.956 . S
C1614 H1627 0.961 . S
C1614 H1628 0.961 . S
C1615 C1612 1.539 . S
C1615 H1629 0.958 . S
C1615 H1630 0.961 . S
C1615 H1631 0.960 . S
H1616 C1600 0.931 . S
H1617 C1605 0.929 . S
H1618 C1606 0.960 . S
H1619 C1606 0.962 . S
H1620 C1606 0.960 . S
H1621 C1607 0.961 . S
H1622 C1607 0.961 . S
H1623 C1607 0.961 . S
H1624 C1608 0.931 . S
H1625 C1613 0.930 . S
H1626 C1614 0.956 . S
H1627 C1614 0.961 . S
H1628 C1614 0.961 . S
H1629 C1615 0.958 . S
H1630 C1615 0.961 . S
H1631 C1615 0.960 . S
C1632 C1633 1.391 . S
C1632 C1634 1.394 . S
C1632 H1648 0.931 . S
C1633 C1632 1.391 . S
C1633 C1637 1.376 . S
C1634 C1632 1.394 . S
C1634 C1635 1.369 . S
C1634 C1638 1.531 . S
C1635 C1634 1.369 . S
C1635 C1636 1.410 . S
C1635 C1643 1.503 . S
C1636 C1635 1.410 . S
C1636 C1637 1.392 . S
C1636 C1639 1.511 . S
C1637 C1633 1.376 . S
C1637 C1636 1.392 . S
C1637 H1649 0.929 . S
C1638 C1634 1.531 . S
C1638 H1650 0.960 . S
C1638 H1651 0.962 . S
C1638 H1652 0.960 . S
C1639 C1636 1.511 . S
C1639 H1653 0.961 . S
C1639 H1654 0.961 . S
C1639 H1655 0.961 . S
C1640 C1641 1.370 . S
C1640 C1642 1.363 . S
C1640 H1656 0.931 . S
C1641 C1640 1.370 . S
C1641 C1645 1.408 . S
C1642 C1640 1.363 . S
C1642 C1643 1.370 . S
C1642 C1646 1.524 . S
C1643 C1635 1.503 . S
C1643 C1642 1.370 . S
C1643 C1644 1.403 . S
C1644 C1643 1.403 . S
C1644 C1645 1.404 . S
C1644 C1647 1.539 . S
C1645 C1641 1.408 . S
C1645 C1644 1.404 . S
C1645 H1657 0.930 . S
C1646 C1642 1.524 . S
C1646 H1658 0.956 . S
C1646 H1659 0.961 . S
C1646 H1660 0.961 . S
C1647 C1644 1.539 . S
C1647 H1661 0.958 . S
C1647 H1662 0.961 . S
C1647 H1663 0.960 . S
H1648 C1632 0.931 . S
H1649 C1637 0.929 . S
H1650 C1638 0.960 . S
H1651 C1638 0.962 . S
H1652 C1638 0.960 . S
H1653 C1639 0.961 . S
H1654 C1639 0.961 . S
H1655 C1639 0.961 . S
H1656 C1640 0.931 . S
H1657 C1645 0.930 . S
H1658 C1646 0.956 . S
H1659 C1646 0.961 . S
H1660 C1646 0.961 . S
H1661 C1647 0.958 . S
H1662 C1647 0.961 . S
H1663 C1647 0.960 . S
C1664 C1665 1.391 . S
C1664 C1666 1.394 . S
C1664 H1680 0.931 . S
C1665 C1664 1.391 . S
C1665 C1669 1.376 . S
C1666 C1664 1.394 . S
C1666 C1667 1.369 . S
C1666 C1670 1.531 . S
C1667 C1666 1.369 . S
C1667 C1668 1.410 . S
C1667 C1675 1.503 . S
C1668 C1667 1.410 . S
C1668 C1669 1.392 . S
C1668 C1671 1.511 . S
C1669 C1665 1.376 . S
C1669 C1668 1.392 . S
C1669 H1681 0.929 . S
C1670 C1666 1.531 . S
C1670 H1682 0.960 . S
C1670 H1683 0.962 . S
C1670 H1684 0.960 . S
C1671 C1668 1.511 . S
C1671 H1685 0.961 . S
C1671 H1686 0.961 . S
C1671 H1687 0.961 . S
C1672 C1673 1.370 . S
C1672 C1674 1.363 . S
C1672 H1688 0.931 . S
C1673 C1672 1.370 . S
C1673 C1677 1.408 . S
C1674 C1672 1.363 . S
C1674 C1675 1.370 . S
C1674 C1678 1.524 . S
C1675 C1667 1.503 . S
C1675 C1674 1.370 . S
C1675 C1676 1.403 . S
C1676 C1675 1.403 . S
C1676 C1677 1.404 . S
C1676 C1679 1.539 1_554 S
C1677 C1673 1.408 . S
C1677 C1676 1.404 . S
C1677 H1689 0.930 1_554 S
C1678 C1674 1.524 . S
C1678 H1690 0.956 . S
C1678 H1691 0.961 . S
C1678 H1692 0.961 . S
C1679 C1676 1.539 1_556 S
C1679 H1693 0.958 . S
C1679 H1694 0.961 . S
C1679 H1695 0.960 1_556 S
H1680 C1664 0.931 . S
H1681 C1669 0.929 . S
H1682 C1670 0.960 . S
H1683 C1670 0.962 . S
H1684 C1670 0.960 . S
H1685 C1671 0.961 . S
H1686 C1671 0.961 . S
H1687 C1671 0.961 . S
H1688 C1672 0.931 . S
H1689 C1677 0.930 1_556 S
H1690 C1678 0.956 . S
H1691 C1678 0.961 . S
H1692 C1678 0.961 . S
H1693 C1679 0.958 . S
H1694 C1679 0.961 . S
H1695 C1679 0.960 1_554 S
C1696 C1697 1.391 . S
C1696 C1698 1.394 . S
C1696 H1712 0.931 . S
C1697 C1696 1.391 . S
C1697 C1701 1.376 . S
C1698 C1696 1.394 . S
C1698 C1699 1.369 . S
C1698 C1702 1.531 . S
C1699 C1698 1.369 . S
C1699 C1700 1.410 . S
C1699 C1707 1.503 . S
C1700 C1699 1.410 . S
C1700 C1701 1.392 . S
C1700 C1703 1.511 . S
C1701 C1697 1.376 . S
C1701 C1700 1.392 . S
C1701 H1713 0.929 . S
C1702 C1698 1.531 . S
C1702 H1714 0.960 . S
C1702 H1715 0.962 . S
C1702 H1716 0.960 . S
C1703 C1700 1.511 . S
C1703 H1717 0.961 . S
C1703 H1718 0.961 . S
C1703 H1719 0.961 . S
C1704 C1705 1.370 . S
C1704 C1706 1.363 . S
C1704 H1720 0.931 . S
C1705 C1704 1.370 . S
C1705 C1709 1.408 . S
C1706 C1704 1.363 . S
C1706 C1707 1.370 . S
C1706 C1710 1.524 . S
C1707 C1699 1.503 . S
C1707 C1706 1.370 . S
C1707 C1708 1.403 . S
C1708 C1707 1.403 . S
C1708 C1709 1.404 . S
C1708 C1711 1.539 . S
C1709 C1705 1.408 . S
C1709 C1708 1.404 . S
C1709 H1721 0.930 . S
C1710 C1706 1.524 . S
C1710 H1722 0.956 . S
C1710 H1723 0.961 . S
C1710 H1724 0.961 . S
C1711 C1708 1.539 . S
C1711 H1725 0.958 . S
C1711 H1726 0.961 . S
C1711 H1727 0.960 . S
H1712 C1696 0.931 . S
H1713 C1701 0.929 . S
H1714 C1702 0.960 . S
H1715 C1702 0.962 . S
H1716 C1702 0.960 . S
H1717 C1703 0.961 . S
H1718 C1703 0.961 . S
H1719 C1703 0.961 . S
H1720 C1704 0.931 . S
H1721 C1709 0.930 . S
H1722 C1710 0.956 . S
H1723 C1710 0.961 . S
H1724 C1710 0.961 . S
H1725 C1711 0.958 . S
H1726 C1711 0.961 . S
H1727 C1711 0.960 . S
C1728 C1729 1.391 . S
C1728 C1730 1.394 . S
C1728 H1744 0.931 . S
C1729 C1728 1.391 . S
C1729 C1733 1.376 . S
C1730 C1728 1.394 . S
C1730 C1731 1.369 . S
C1730 C1734 1.531 . S
C1731 C1730 1.369 . S
C1731 C1732 1.410 . S
C1731 C1739 1.503 . S
C1732 C1731 1.410 . S
C1732 C1733 1.392 . S
C1732 C1735 1.511 . S
C1733 C1729 1.376 . S
C1733 C1732 1.392 . S
C1733 H1745 0.929 . S
C1734 C1730 1.531 . S
C1734 H1746 0.960 . S
C1734 H1747 0.962 . S
C1734 H1748 0.960 . S
C1735 C1732 1.511 . S
C1735 H1749 0.961 . S
C1735 H1750 0.961 . S
C1735 H1751 0.961 . S
C1736 C1737 1.370 . S
C1736 C1738 1.363 . S
C1736 H1752 0.931 . S
C1737 C1736 1.370 . S
C1737 C1741 1.408 . S
C1738 C1736 1.363 . S
C1738 C1739 1.370 . S
C1738 C1742 1.524 . S
C1739 C1731 1.503 . S
C1739 C1738 1.370 . S
C1739 C1740 1.403 . S
C1740 C1739 1.403 . S
C1740 C1741 1.404 . S
C1740 C1743 1.539 . S
C1741 C1737 1.408 . S
C1741 C1740 1.404 . S
C1741 H1753 0.930 . S
C1742 C1738 1.524 . S
C1742 H1754 0.956 . S
C1742 H1755 0.961 . S
C1742 H1756 0.961 . S
C1743 C1740 1.539 . S
C1743 H1757 0.958 . S
C1743 H1758 0.961 . S
C1743 H1759 0.960 . S
H1744 C1728 0.931 . S
H1745 C1733 0.929 . S
H1746 C1734 0.960 . S
H1747 C1734 0.962 . S
H1748 C1734 0.960 . S
H1749 C1735 0.961 . S
H1750 C1735 0.961 . S
H1751 C1735 0.961 . S
H1752 C1736 0.931 . S
H1753 C1741 0.930 . S
H1754 C1742 0.956 . S
H1755 C1742 0.961 . S
H1756 C1742 0.961 . S
H1757 C1743 0.958 . S
H1758 C1743 0.961 . S
H1759 C1743 0.960 . S
C1760 C1761 1.391 . S
C1760 C1762 1.394 . S
C1760 H1776 0.931 . S
C1761 C1760 1.391 . S
C1761 C1765 1.376 . S
C1762 C1760 1.394 . S
C1762 C1763 1.369 . S
C1762 C1766 1.531 . S
C1763 C1762 1.369 . S
C1763 C1764 1.410 . S
C1763 C1771 1.503 . S
C1764 C1763 1.410 . S
C1764 C1765 1.392 . S
C1764 C1767 1.511 . S
C1765 C1761 1.376 . S
C1765 C1764 1.392 . S
C1765 H1777 0.929 . S
C1766 C1762 1.531 . S
C1766 H1778 0.960 . S
C1766 H1779 0.962 . S
C1766 H1780 0.960 . S
C1767 C1764 1.511 . S
C1767 H1781 0.961 . S
C1767 H1782 0.961 . S
C1767 H1783 0.961 . S
C1768 C1769 1.370 . S
C1768 C1770 1.363 . S
C1768 H1784 0.931 . S
C1769 C1768 1.370 . S
C1769 C1773 1.408 . S
C1770 C1768 1.363 . S
C1770 C1771 1.370 . S
C1770 C1774 1.524 . S
C1771 C1763 1.503 . S
C1771 C1770 1.370 . S
C1771 C1772 1.403 . S
C1772 C1771 1.403 . S
C1772 C1773 1.404 . S
C1772 C1775 1.539 . S
C1773 C1769 1.408 . S
C1773 C1772 1.404 . S
C1773 H1785 0.930 . S
C1774 C1770 1.524 . S
C1774 H1786 0.956 . S
C1774 H1787 0.961 . S
C1774 H1788 0.961 . S
C1775 C1772 1.539 . S
C1775 H1789 0.958 . S
C1775 H1790 0.961 . S
C1775 H1791 0.960 . S
H1776 C1760 0.931 . S
H1777 C1765 0.929 . S
H1778 C1766 0.960 . S
H1779 C1766 0.962 . S
H1780 C1766 0.960 . S
H1781 C1767 0.961 . S
H1782 C1767 0.961 . S
H1783 C1767 0.961 . S
H1784 C1768 0.931 . S
H1785 C1773 0.930 . S
H1786 C1774 0.956 . S
H1787 C1774 0.961 . S
H1788 C1774 0.961 . S
H1789 C1775 0.958 . S
H1790 C1775 0.961 . S
H1791 C1775 0.960 . S
C1792 C1793 1.391 . S
C1792 C1794 1.394 . S
C1792 H1808 0.931 . S
C1793 C1792 1.391 . S
C1793 C1797 1.376 . S
C1794 C1792 1.394 . S
C1794 C1795 1.369 . S
C1794 C1798 1.531 . S
C1795 C1794 1.369 . S
C1795 C1796 1.410 . S
C1795 C1803 1.503 . S
C1796 C1795 1.410 . S
C1796 C1797 1.392 . S
C1796 C1799 1.511 . S
C1797 C1793 1.376 . S
C1797 C1796 1.392 . S
C1797 H1809 0.929 . S
C1798 C1794 1.531 . S
C1798 H1810 0.960 . S
C1798 H1811 0.962 . S
C1798 H1812 0.960 . S
C1799 C1796 1.511 . S
C1799 H1813 0.961 . S
C1799 H1814 0.961 . S
C1799 H1815 0.961 . S
C1800 C1801 1.370 . S
C1800 C1802 1.363 . S
C1800 H1816 0.931 . S
C1801 C1800 1.370 . S
C1801 C1805 1.408 . S
C1802 C1800 1.363 . S
C1802 C1803 1.370 . S
C1802 C1806 1.524 . S
C1803 C1795 1.503 . S
C1803 C1802 1.370 . S
C1803 C1804 1.403 . S
C1804 C1803 1.403 . S
C1804 C1805 1.404 . S
C1804 C1807 1.539 . S
C1805 C1801 1.408 . S
C1805 C1804 1.404 . S
C1805 H1817 0.930 . S
C1806 C1802 1.524 . S
C1806 H1818 0.956 . S
C1806 H1819 0.961 . S
C1806 H1820 0.961 . S
C1807 C1804 1.539 . S
C1807 H1821 0.958 . S
C1807 H1822 0.961 . S
C1807 H1823 0.960 . S
H1808 C1792 0.931 . S
H1809 C1797 0.929 . S
H1810 C1798 0.960 . S
H1811 C1798 0.962 . S
H1812 C1798 0.960 . S
H1813 C1799 0.961 . S
H1814 C1799 0.961 . S
H1815 C1799 0.961 . S
H1816 C1800 0.931 . S
H1817 C1805 0.930 . S
H1818 C1806 0.956 . S
H1819 C1806 0.961 . S
H1820 C1806 0.961 . S
H1821 C1807 0.958 . S
H1822 C1807 0.961 . S
H1823 C1807 0.960 . S
C1824 C1825 1.391 . S
C1824 C1826 1.394 . S
C1824 H1840 0.931 . S
C1825 C1824 1.391 . S
C1825 C1829 1.376 . S
C1826 C1824 1.394 . S
C1826 C1827 1.369 . S
C1826 C1830 1.531 . S
C1827 C1826 1.369 . S
C1827 C1828 1.410 . S
C1827 C1835 1.503 . S
C1828 C1827 1.410 . S
C1828 C1829 1.392 . S
C1828 C1831 1.511 . S
C1829 C1825 1.376 . S
C1829 C1828 1.392 . S
C1829 H1841 0.929 . S
C1830 C1826 1.531 . S
C1830 H1842 0.960 1_554 S
C1830 H1843 0.962 . S
C1830 H1844 0.960 1_554 S
C1831 C1828 1.511 . S
C1831 H1845 0.961 . S
C1831 H1846 0.961 . S
C1831 H1847 0.961 . S
C1832 C1833 1.370 . S
C1832 C1834 1.363 . S
C1832 H1848 0.931 . S
C1833 C1832 1.370 . S
C1833 C1837 1.408 . S
C1834 C1832 1.363 . S
C1834 C1835 1.370 . S
C1834 C1838 1.524 . S
C1835 C1827 1.503 . S
C1835 C1834 1.370 . S
C1835 C1836 1.411 . S
C1836 C1835 1.411 . S
C1836 C1837 1.404 . S
C1836 C1839 1.530 1_554 S
C1837 C1833 1.408 . S
C1837 C1836 1.404 . S
C1837 H1849 0.930 1_554 S
C1838 C1834 1.524 . S
C1838 H1850 0.956 . S
C1838 H1851 0.961 . S
C1838 H1852 0.961 . S
C1839 C1836 1.530 1_556 S
C1839 H1853 0.958 . S
C1839 H1854 0.961 . S
C1839 H1855 0.960 . S
H1840 C1824 0.931 . S
H1841 C1829 0.929 . S
H1842 C1830 0.960 1_556 S
H1843 C1830 0.962 . S
H1844 C1830 0.960 1_556 S
H1845 C1831 0.961 . S
H1846 C1831 0.961 . S
H1847 C1831 0.961 . S
H1848 C1832 0.931 . S
H1849 C1837 0.930 1_556 S
H1850 C1838 0.956 . S
H1851 C1838 0.961 . S
H1852 C1838 0.961 . S
H1853 C1839 0.958 . S
H1854 C1839 0.961 . S
H1855 C1839 0.960 . S
C1856 C1857 1.391 . S
C1856 C1858 1.394 . S
C1856 H1872 0.931 . S
C1857 C1856 1.391 . S
C1857 C1861 1.376 . S
C1858 C1856 1.394 . S
C1858 C1859 1.369 . S
C1858 C1862 1.531 . S
C1859 C1858 1.369 . S
C1859 C1860 1.410 . S
C1859 C1867 1.503 . S
C1860 C1859 1.410 . S
C1860 C1861 1.392 . S
C1860 C1863 1.511 . S
C1861 C1857 1.376 . S
C1861 C1860 1.392 . S
C1861 H1873 0.929 . S
C1862 C1858 1.531 . S
C1862 H1874 0.960 . S
C1862 H1875 0.962 . S
C1862 H1876 0.960 . S
C1863 C1860 1.511 . S
C1863 H1877 0.961 . S
C1863 H1878 0.961 . S
C1863 H1879 0.961 . S
C1864 C1865 1.370 . S
C1864 C1866 1.363 . S
C1864 H1880 0.931 . S
C1865 C1864 1.370 . S
C1865 C1869 1.408 . S
C1866 C1864 1.363 . S
C1866 C1867 1.370 . S
C1866 C1870 1.524 . S
C1867 C1859 1.503 . S
C1867 C1866 1.370 . S
C1867 C1868 1.403 . S
C1868 C1867 1.403 . S
C1868 C1869 1.404 . S
C1868 C1871 1.539 . S
C1869 C1865 1.408 . S
C1869 C1868 1.404 . S
C1869 H1881 0.930 . S
C1870 C1866 1.524 . S
C1870 H1882 0.956 . S
C1870 H1883 0.961 . S
C1870 H1884 0.961 . S
C1871 C1868 1.539 . S
C1871 H1885 0.958 . S
C1871 H1886 0.961 . S
C1871 H1887 0.960 . S
H1872 C1856 0.931 . S
H1873 C1861 0.929 . S
H1874 C1862 0.960 . S
H1875 C1862 0.962 . S
H1876 C1862 0.960 . S
H1877 C1863 0.961 . S
H1878 C1863 0.961 . S
H1879 C1863 0.961 . S
H1880 C1864 0.931 . S
H1881 C1869 0.930 . S
H1882 C1870 0.956 . S
H1883 C1870 0.961 . S
H1884 C1870 0.961 . S
H1885 C1871 0.958 . S
H1886 C1871 0.961 . S
H1887 C1871 0.960 . S
C1888 C1889 1.391 . S
C1888 C1890 1.394 . S
C1888 H1904 0.931 . S
C1889 C1888 1.391 . S
C1889 C1893 1.376 . S
C1890 C1888 1.394 . S
C1890 C1891 1.369 . S
C1890 C1894 1.531 . S
C1891 C1890 1.369 . S
C1891 C1892 1.410 . S
C1891 C1899 1.503 . S
C1892 C1891 1.410 . S
C1892 C1893 1.392 . S
C1892 C1895 1.511 . S
C1893 C1889 1.376 . S
C1893 C1892 1.392 . S
C1893 H1905 0.929 . S
C1894 C1890 1.531 . S
C1894 H1906 0.960 . S
C1894 H1907 0.962 . S
C1894 H1908 0.960 . S
C1895 C1892 1.511 . S
C1895 H1909 0.961 . S
C1895 H1910 0.961 . S
C1895 H1911 0.961 . S
C1896 C1897 1.370 . S
C1896 C1898 1.363 . S
C1896 H1912 0.931 . S
C1897 C1896 1.370 . S
C1897 C1901 1.408 . S
C1898 C1896 1.363 . S
C1898 C1899 1.370 . S
C1898 C1902 1.524 . S
C1899 C1891 1.503 . S
C1899 C1898 1.370 . S
C1899 C1900 1.403 . S
C1900 C1899 1.403 . S
C1900 C1901 1.404 . S
C1900 C1903 1.539 . S
C1901 C1897 1.408 . S
C1901 C1900 1.404 . S
C1901 H1913 0.930 . S
C1902 C1898 1.524 . S
C1902 H1914 0.956 . S
C1902 H1915 0.961 . S
C1902 H1916 0.961 1_556 S
C1903 C1900 1.539 . S
C1903 H1917 0.958 . S
C1903 H1918 0.961 . S
C1903 H1919 0.960 . S
H1904 C1888 0.931 . S
H1905 C1893 0.929 . S
H1906 C1894 0.960 . S
H1907 C1894 0.962 . S
H1908 C1894 0.960 . S
H1909 C1895 0.961 . S
H1910 C1895 0.961 . S
H1911 C1895 0.961 . S
H1912 C1896 0.931 . S
H1913 C1901 0.930 . S
H1914 C1902 0.956 . S
H1915 C1902 0.961 . S
H1916 C1902 0.961 1_554 S
H1917 C1903 0.958 . S
H1918 C1903 0.961 . S
H1919 C1903 0.960 . S
C1920 C1921 1.391 . S
C1920 C1922 1.394 . S
C1920 H1936 0.931 . S
C1921 C1920 1.391 . S
C1921 C1925 1.376 . S
C1922 C1920 1.394 . S
C1922 C1923 1.369 . S
C1922 C1926 1.531 . S
C1923 C1922 1.369 . S
C1923 C1924 1.410 . S
C1923 C1931 1.503 . S
C1924 C1923 1.410 . S
C1924 C1925 1.392 . S
C1924 C1927 1.511 . S
C1925 C1921 1.376 . S
C1925 C1924 1.392 . S
C1925 H1937 0.929 . S
C1926 C1922 1.531 . S
C1926 H1938 0.960 . S
C1926 H1939 0.962 . S
C1926 H1940 0.960 . S
C1927 C1924 1.511 . S
C1927 H1941 0.961 . S
C1927 H1942 0.961 . S
C1927 H1943 0.961 . S
C1928 C1929 1.370 . S
C1928 C1930 1.363 . S
C1928 H1944 0.931 . S
C1929 C1928 1.370 . S
C1929 C1933 1.408 . S
C1930 C1928 1.363 . S
C1930 C1931 1.370 . S
C1930 C1934 1.524 . S
C1931 C1923 1.503 . S
C1931 C1930 1.370 . S
C1931 C1932 1.403 . S
C1932 C1931 1.403 . S
C1932 C1933 1.404 . S
C1932 C1935 1.539 . S
C1933 C1929 1.408 . S
C1933 C1932 1.404 . S
C1933 H1945 0.930 . S
C1934 C1930 1.524 . S
C1934 H1946 0.956 . S
C1934 H1947 0.961 . S
C1934 H1948 0.961 . S
C1935 C1932 1.539 . S
C1935 H1949 0.958 . S
C1935 H1950 0.961 . S
C1935 H1951 0.960 . S
H1936 C1920 0.931 . S
H1937 C1925 0.929 . S
H1938 C1926 0.960 . S
H1939 C1926 0.962 . S
H1940 C1926 0.960 . S
H1941 C1927 0.961 . S
H1942 C1927 0.961 . S
H1943 C1927 0.961 . S
H1944 C1928 0.931 . S
H1945 C1933 0.930 . S
H1946 C1934 0.956 . S
H1947 C1934 0.961 . S
H1948 C1934 0.961 . S
H1949 C1935 0.958 . S
H1950 C1935 0.961 . S
H1951 C1935 0.960 . S
C1952 C1953 1.391 . S
C1952 C1954 1.394 . S
C1952 H1968 0.931 . S
C1953 C1952 1.391 . S
C1953 C1957 1.376 . S
C1954 C1952 1.394 . S
C1954 C1955 1.369 . S
C1954 C1958 1.531 . S
C1955 C1954 1.369 . S
C1955 C1956 1.410 . S
C1955 C1963 1.503 . S
C1956 C1955 1.410 . S
C1956 C1957 1.392 . S
C1956 C1959 1.511 . S
C1957 C1953 1.376 . S
C1957 C1956 1.392 . S
C1957 H1969 0.929 . S
C1958 C1954 1.531 . S
C1958 H1970 0.960 . S
C1958 H1971 0.962 . S
C1958 H1972 0.960 . S
C1959 C1956 1.511 . S
C1959 H1973 0.961 . S
C1959 H1974 0.961 . S
C1959 H1975 0.961 . S
C1960 C1961 1.370 . S
C1960 C1962 1.363 . S
C1960 H1976 0.931 . S
C1961 C1960 1.370 . S
C1961 C1965 1.408 . S
C1962 C1960 1.363 . S
C1962 C1963 1.370 . S
C1962 C1966 1.524 . S
C1963 C1955 1.503 . S
C1963 C1962 1.370 . S
C1963 C1964 1.403 . S
C1964 C1963 1.403 . S
C1964 C1965 1.404 . S
C1964 C1967 1.539 . S
C1965 C1961 1.408 . S
C1965 C1964 1.404 . S
C1965 H1977 0.930 . S
C1966 C1962 1.524 . S
C1966 H1978 0.956 . S
C1966 H1979 0.961 . S
C1966 H1980 0.961 . S
C1967 C1964 1.539 . S
C1967 H1981 0.958 . S
C1967 H1982 0.961 . S
C1967 H1983 0.960 . S
H1968 C1952 0.931 . S
H1969 C1957 0.929 . S
H1970 C1958 0.960 . S
H1971 C1958 0.962 . S
H1972 C1958 0.960 . S
H1973 C1959 0.961 . S
H1974 C1959 0.961 . S
H1975 C1959 0.961 . S
H1976 C1960 0.931 . S
H1977 C1965 0.930 . S
H1978 C1966 0.956 . S
H1979 C1966 0.961 . S
H1980 C1966 0.961 . S
H1981 C1967 0.958 . S
H1982 C1967 0.961 . S
H1983 C1967 0.960 . S
C1984 C1985 1.391 . S
C1984 C1986 1.394 . S
C1984 H2000 0.931 . S
C1985 C1984 1.391 . S
C1985 C1989 1.376 . S
C1986 C1984 1.394 . S
C1986 C1987 1.369 . S
C1986 C1990 1.531 . S
C1987 C1986 1.369 . S
C1987 C1988 1.410 . S
C1987 C1995 1.503 . S
C1988 C1987 1.410 . S
C1988 C1989 1.392 . S
C1988 C1991 1.511 1_556 S
C1989 C1985 1.376 . S
C1989 C1988 1.392 . S
C1989 H2001 0.929 . S
C1990 C1986 1.531 . S
C1990 H2002 0.960 . S
C1990 H2003 0.962 . S
C1990 H2004 0.960 . S
C1991 C1988 1.511 1_554 S
C1991 H2005 0.961 . S
C1991 H2006 0.961 . S
C1991 H2007 0.961 1_554 S
C1992 C1993 1.370 . S
C1992 C1994 1.363 . S
C1992 H2008 0.931 1_556 S
C1993 C1992 1.370 . S
C1993 C1997 1.408 . S
C1994 C1992 1.363 . S
C1994 C1995 1.370 . S
C1994 C1998 1.524 1_556 S
C1995 C1987 1.503 . S
C1995 C1994 1.370 . S
C1995 C1996 1.403 . S
C1996 C1995 1.403 . S
C1996 C1997 1.404 . S
C1996 C1999 1.539 . S
C1997 C1993 1.408 . S
C1997 C1996 1.404 . S
C1997 H2009 0.930 . S
C1998 C1994 1.524 1_554 S
C1998 H2010 0.956 1_554 S
C1998 H2011 0.961 . S
C1998 H2012 0.961 . S
C1999 C1996 1.539 . S
C1999 H2013 0.958 . S
C1999 H2014 0.961 . S
C1999 H2015 0.960 . S
H2000 C1984 0.931 . S
H2001 C1989 0.929 . S
H2002 C1990 0.960 . S
H2003 C1990 0.962 . S
H2004 C1990 0.960 . S
H2005 C1991 0.961 . S
H2006 C1991 0.961 . S
H2007 C1991 0.961 1_556 S
H2008 C1992 0.931 1_554 S
H2009 C1997 0.930 . S
H2010 C1998 0.956 1_556 S
H2011 C1998 0.961 . S
H2012 C1998 0.961 . S
H2013 C1999 0.958 . S
H2014 C1999 0.961 . S
H2015 C1999 0.960 . S
C2016 C2017 1.391 . S
C2016 C2018 1.394 . S
C2016 H2032 0.931 . S
C2017 C2016 1.391 . S
C2017 C2021 1.376 . S
C2018 C2016 1.394 . S
C2018 C2019 1.369 . S
C2018 C2022 1.531 . S
C2019 C2018 1.369 . S
C2019 C2020 1.410 . S
C2019 C2027 1.503 . S
C2020 C2019 1.410 . S
C2020 C2021 1.392 . S
C2020 C2023 1.511 . S
C2021 C2017 1.376 . S
C2021 C2020 1.392 . S
C2021 H2033 0.929 . S
C2022 C2018 1.531 . S
C2022 H2034 0.960 . S
C2022 H2035 0.962 . S
C2022 H2036 0.960 . S
C2023 C2020 1.511 . S
C2023 H2037 0.961 . S
C2023 H2038 0.961 . S
C2023 H2039 0.961 . S
C2024 C2025 1.370 . S
C2024 C2026 1.363 . S
C2024 H2040 0.931 . S
C2025 C2024 1.370 . S
C2025 C2029 1.408 . S
C2026 C2024 1.363 . S
C2026 C2027 1.370 . S
C2026 C2030 1.524 . S
C2027 C2019 1.503 . S
C2027 C2026 1.370 . S
C2027 C2028 1.403 . S
C2028 C2027 1.403 . S
C2028 C2029 1.404 . S
C2028 C2031 1.539 . S
C2029 C2025 1.408 . S
C2029 C2028 1.404 . S
C2029 H2041 0.930 . S
C2030 C2026 1.524 . S
C2030 H2042 0.956 . S
C2030 H2043 0.961 . S
C2030 H2044 0.961 . S
C2031 C2028 1.539 . S
C2031 H2045 0.958 . S
C2031 H2046 0.961 . S
C2031 H2047 0.960 . S
H2032 C2016 0.931 . S
H2033 C2021 0.929 . S
H2034 C2022 0.960 . S
H2035 C2022 0.962 . S
H2036 C2022 0.960 . S
H2037 C2023 0.961 . S
H2038 C2023 0.961 . S
H2039 C2023 0.961 . S
H2040 C2024 0.931 . S
H2041 C2029 0.930 . S
H2042 C2030 0.956 . S
H2043 C2030 0.961 . S
H2044 C2030 0.961 . S
H2045 C2031 0.958 . S
H2046 C2031 0.961 . S
H2047 C2031 0.960 . S
C2048 C2049 1.391 . S
C2048 C2050 1.394 . S
C2048 H2064 0.931 . S
C2049 C2048 1.391 . S
C2049 C2053 1.376 . S
C2050 C2048 1.394 . S
C2050 C2051 1.369 . S
C2050 C2054 1.531 . S
C2051 C2050 1.369 . S
C2051 C2052 1.410 . S
C2051 C2059 1.503 . S
C2052 C2051 1.410 . S
C2052 C2053 1.392 . S
C2052 C2055 1.511 . S
C2053 C2049 1.376 . S
C2053 C2052 1.392 . S
C2053 H2065 0.929 . S
C2054 C2050 1.531 . S
C2054 H2066 0.960 . S
C2054 H2067 0.962 . S
C2054 H2068 0.960 . S
C2055 C2052 1.511 . S
C2055 H2069 0.961 . S
C2055 H2070 0.961 . S
C2055 H2071 0.961 . S
C2056 C2057 1.370 . S
C2056 C2058 1.363 . S
C2056 H2072 0.931 . S
C2057 C2056 1.370 . S
C2057 C2061 1.408 . S
C2058 C2056 1.363 . S
C2058 C2059 1.370 . S
C2058 C2062 1.524 . S
C2059 C2051 1.503 . S
C2059 C2058 1.370 . S
C2059 C2060 1.403 . S
C2060 C2059 1.403 . S
C2060 C2061 1.404 . S
C2060 C2063 1.539 . S
C2061 C2057 1.408 . S
C2061 C2060 1.404 . S
C2061 H2073 0.930 . S
C2062 C2058 1.524 . S
C2062 H2074 0.956 . S
C2062 H2075 0.961 . S
C2062 H2076 0.961 . S
C2063 C2060 1.539 . S
C2063 H2077 0.958 . S
C2063 H2078 0.961 . S
C2063 H2079 0.960 . S
H2064 C2048 0.931 . S
H2065 C2053 0.929 . S
H2066 C2054 0.960 . S
H2067 C2054 0.962 . S
H2068 C2054 0.960 . S
H2069 C2055 0.961 . S
H2070 C2055 0.961 . S
H2071 C2055 0.961 . S
H2072 C2056 0.931 . S
H2073 C2061 0.930 . S
H2074 C2062 0.956 . S
H2075 C2062 0.961 . S
H2076 C2062 0.961 . S
H2077 C2063 0.958 . S
H2078 C2063 0.961 . S
H2079 C2063 0.960 . S
C2080 C2081 1.391 . S
C2080 C2082 1.394 . S
C2080 H2096 0.931 . S
C2081 C2080 1.391 . S
C2081 C2085 1.376 . S
C2082 C2080 1.394 . S
C2082 C2083 1.369 . S
C2082 C2086 1.531 . S
C2083 C2082 1.369 . S
C2083 C2084 1.410 . S
C2083 C2091 1.503 . S
C2084 C2083 1.410 . S
C2084 C2085 1.392 . S
C2084 C2087 1.511 . S
C2085 C2081 1.376 . S
C2085 C2084 1.392 . S
C2085 H2097 0.929 . S
C2086 C2082 1.531 . S
C2086 H2098 0.960 1_556 S
C2086 H2099 0.962 . S
C2086 H2100 0.960 1_556 S
C2087 C2084 1.511 . S
C2087 H2101 0.961 . S
C2087 H2102 0.961 . S
C2087 H2103 0.961 . S
C2088 C2089 1.370 . S
C2088 C2090 1.363 . S
C2088 H2104 0.931 . S
C2089 C2088 1.370 . S
C2089 C2093 1.408 . S
C2090 C2088 1.363 . S
C2090 C2091 1.370 . S
C2090 C2094 1.524 . S
C2091 C2083 1.503 . S
C2091 C2090 1.370 . S
C2091 C2092 1.403 . S
C2092 C2091 1.403 . S
C2092 C2093 1.404 . S
C2092 C2095 1.539 . S
C2093 C2089 1.408 . S
C2093 C2092 1.404 . S
C2093 H2105 0.930 . S
C2094 C2090 1.524 . S
C2094 H2106 0.956 . S
C2094 H2107 0.961 . S
C2094 H2108 0.961 . S
C2095 C2092 1.539 . S
C2095 H2109 0.958 . S
C2095 H2110 0.961 . S
C2095 H2111 0.960 . S
H2096 C2080 0.931 . S
H2097 C2085 0.929 . S
H2098 C2086 0.960 1_554 S
H2099 C2086 0.962 . S
H2100 C2086 0.960 1_554 S
H2101 C2087 0.961 . S
H2102 C2087 0.961 . S
H2103 C2087 0.961 . S
H2104 C2088 0.931 . S
H2105 C2093 0.930 . S
H2106 C2094 0.956 . S
H2107 C2094 0.961 . S
H2108 C2094 0.961 . S
H2109 C2095 0.958 . S
H2110 C2095 0.961 . S
H2111 C2095 0.960 . S
C2112 C2113 1.391 . S
C2112 C2114 1.394 . S
C2112 H2128 0.931 . S
C2113 C2112 1.391 . S
C2113 C2117 1.376 . S
C2114 C2112 1.394 . S
C2114 C2115 1.369 . S
C2114 C2118 1.531 . S
C2115 C2114 1.369 . S
C2115 C2116 1.410 . S
C2115 C2123 1.503 . S
C2116 C2115 1.410 . S
C2116 C2117 1.392 . S
C2116 C2119 1.511 . S
C2117 C2113 1.376 . S
C2117 C2116 1.392 . S
C2117 H2129 0.929 . S
C2118 C2114 1.531 . S
C2118 H2130 0.960 . S
C2118 H2131 0.962 . S
C2118 H2132 0.960 . S
C2119 C2116 1.511 . S
C2119 H2133 0.961 . S
C2119 H2134 0.961 . S
C2119 H2135 0.961 . S
C2120 C2121 1.370 . S
C2120 C2122 1.363 . S
C2120 H2136 0.931 . S
C2121 C2120 1.370 . S
C2121 C2125 1.408 . S
C2122 C2120 1.363 . S
C2122 C2123 1.370 . S
C2122 C2126 1.524 . S
C2123 C2115 1.503 . S
C2123 C2122 1.370 . S
C2123 C2124 1.403 . S
C2124 C2123 1.403 . S
C2124 C2125 1.404 . S
C2124 C2127 1.539 . S
C2125 C2121 1.408 . S
C2125 C2124 1.404 . S
C2125 H2137 0.930 . S
C2126 C2122 1.524 . S
C2126 H2138 0.956 . S
C2126 H2139 0.961 . S
C2126 H2140 0.961 . S
C2127 C2124 1.539 . S
C2127 H2141 0.958 . S
C2127 H2142 0.961 . S
C2127 H2143 0.960 . S
H2128 C2112 0.931 . S
H2129 C2117 0.929 . S
H2130 C2118 0.960 . S
H2131 C2118 0.962 . S
H2132 C2118 0.960 . S
H2133 C2119 0.961 . S
H2134 C2119 0.961 . S
H2135 C2119 0.961 . S
H2136 C2120 0.931 . S
H2137 C2125 0.930 . S
H2138 C2126 0.956 . S
H2139 C2126 0.961 . S
H2140 C2126 0.961 . S
H2141 C2127 0.958 . S
H2142 C2127 0.961 . S
H2143 C2127 0.960 . S
C2144 C2145 1.391 . S
C2144 C2146 1.394 . S
C2144 H2160 0.931 . S
C2145 C2144 1.391 . S
C2145 C2149 1.376 . S
C2146 C2144 1.394 . S
C2146 C2147 1.369 . S
C2146 C2150 1.531 . S
C2147 C2146 1.369 . S
C2147 C2148 1.410 . S
C2147 C2155 1.503 . S
C2148 C2147 1.410 . S
C2148 C2149 1.392 . S
C2148 C2151 1.511 . S
C2149 C2145 1.376 . S
C2149 C2148 1.392 . S
C2149 H2161 0.929 . S
C2150 C2146 1.531 . S
C2150 H2162 0.960 . S
C2150 H2163 0.962 . S
C2150 H2164 0.960 . S
C2151 C2148 1.511 . S
C2151 H2165 0.961 . S
C2151 H2166 0.961 . S
C2151 H2167 0.961 . S
C2152 C2153 1.370 . S
C2152 C2154 1.363 . S
C2152 H2168 0.931 . S
C2153 C2152 1.370 . S
C2153 C2157 1.408 . S
C2154 C2152 1.363 . S
C2154 C2155 1.370 . S
C2154 C2158 1.524 . S
C2155 C2147 1.503 . S
C2155 C2154 1.370 . S
C2155 C2156 1.403 . S
C2156 C2155 1.403 . S
C2156 C2157 1.404 . S
C2156 C2159 1.539 . S
C2157 C2153 1.408 . S
C2157 C2156 1.404 . S
C2157 H2169 0.930 . S
C2158 C2154 1.524 . S
C2158 H2170 0.956 . S
C2158 H2171 0.961 . S
C2158 H2172 0.963 1_554 S
C2159 C2156 1.539 . S
C2159 H2173 0.958 . S
C2159 H2174 0.961 . S
C2159 H2175 0.960 . S
H2160 C2144 0.931 . S
H2161 C2149 0.929 . S
H2162 C2150 0.960 . S
H2163 C2150 0.962 . S
H2164 C2150 0.960 . S
H2165 C2151 0.961 . S
H2166 C2151 0.961 . S
H2167 C2151 0.961 . S
H2168 C2152 0.931 . S
H2169 C2157 0.930 . S
H2170 C2158 0.956 . S
H2171 C2158 0.961 . S
H2172 C2158 0.963 1_556 S
H2173 C2159 0.958 . S
H2174 C2159 0.961 . S
H2175 C2159 0.960 . S
C641 C19 1.793 . S
C649 C55 1.675 . S
C673 C98 1.559 . S
C681 C50 1.617 . S
C705 C135 1.646 . S
C713 C99 1.797 . S
C737 C18 1.544 . S
C745 C130 1.613 . S
C769 C9 1.612 . S
C777 C379 1.599 . S
C801 C290 1.801 . S
C809 C46 1.670 . S
C833 C89 1.610 . S
C841 C419 1.597 . S
C865 C126 1.647 . S
C873 C530 1.796 . S
C897 C329 1.566 . S
C905 C59 1.617 . S
C929 C486 1.652 . S
C937 C90 1.791 . S
C961 C569 1.552 . S
C969 C139 1.615 . S
C993 C10 1.768 . S
C1001 C446 1.699 . S
C1025 C15 0.398 . S
C1033 C335 0.371 . S
C1057 C489 1.768 . S
C1065 C169 1.789 . S
C1089 C206 0.405 . S
C1097 C566 0.367 . S
C1121 C449 1.768 . S
C1129 C249 1.789 . S
C1153 C86 0.367 . S
C1161 C286 0.360 . S
C1185 C378 1.768 . S
C1193 C178 1.786 . S
C1217 C258 1.778 . S
C1225 C418 1.781 . S
C1249 C209 1.566 . S
C1257 C459 1.616 . S
C1281 C366 1.647 . S
C1289 C210 1.792 . S
C1313 C455 1.658 . S
C1321 C299 1.792 . S
C1345 C218 1.580 . S
C1353 C170 1.594 . S
C1377 C375 1.697 . S
C1385 C339 1.789 . S
C1409 C538 1.596 . S
C1417 C450 1.609 . S
C1441 C255 1.651 . S
C1449 C219 1.797 . S
C1473 C370 1.576 . S
C1481 C578 1.595 . S
C1505 C526 0.364 . S
C1513 C6 0.356 . S
C1537 C95 0.386 . S
C1545 C575 0.367 . S
C1569 C498 1.775 . S
C1577 C58 1.788 . S
C1601 C295 0.385 . S
C1609 C215 0.367 . S
C1633 C129 1.771 . S
C1641 C409 1.786 . S
C1665 C495 1.715 . S
C1673 C539 1.783 . S
C1697 C298 1.550 . S
C1705 C490 1.616 . S
C1729 C259 1.628 . S
C1737 C289 1.583 . S
C1761 C179 1.625 . S
C1769 C529 1.588 . S
C1793 C499 1.587 . S
C1801 C609 1.596 . S
C1825 C606 0.363 . S
C1833 C326 0.356 . S
C1857 C49 1.788 . S
C1865 C369 1.782 . S
C1889 C330 1.798 . S
C1897 C246 1.669 . S
C1921 C338 1.587 . S
C1929 C410 1.592 . S
C1953 C618 1.554 . S
C1961 C250 1.603 . S
C1985 C535 0.398 . S
C1993 C615 0.372 . S
C2017 C458 1.770 . S
C2025 C138 1.789 . S
C2049 C415 1.705 . S
C2057 C579 1.783 . S
C2081 C406 1.694 . S
C2089 C610 1.791 . S
C2113 C166 1.650 . S
C2121 C570 1.792 . S
C2145 C619 1.796 . S
C2153 C175 1.672 . S
