# Generated by pormake.
# Topology smm, (6)-cn, num edge types: 1
# Building blocks:
#     Node 0, Type 0, BuildingBlock: CUWYAW_clean_sbu_0, # of connection points: 6
#     Node 1, Type 0, BuildingBlock: CUWYAW_clean_sbu_0, # of connection points: 6
#     Node 2, Type 0, BuildingBlock: CUWYAW_clean_sbu_0, # of connection points: 6
#     Node 3, Type 0, BuildingBlock: CUWYAW_clean_sbu_0, # of connection points: 6
#     Node 4, Type 0, BuildingBlock: CUWYAW_clean_sbu_0, # of connection points: 6
#     Node 5, Type 0, BuildingBlock: CUWYAW_clean_sbu_0, # of connection points: 6
#     Node 6, Type 0, BuildingBlock: CUWYAW_clean_sbu_0, # of connection points: 6
#     Node 7, Type 0, BuildingBlock: CUWYAW_clean_sbu_0, # of connection points: 6
#     Node 8, Type 0, BuildingBlock: CUWYAW_clean_sbu_0, # of connection points: 6
#     Edge 9, Type (0, 0), BuildingBlock: ZUJKAS_clean_linker_0, # of connection points: 2
#     Edge 10, Type (0, 0), BuildingBlock: ZUJKAS_clean_linker_0, # of connection points: 2
#     Edge 11, Type (0, 0), BuildingBlock: ZUJKAS_clean_linker_0, # of connection points: 2
#     Edge 12, Type (0, 0), BuildingBlock: ZUJKAS_clean_linker_0, # of connection points: 2
#     Edge 13, Type (0, 0), BuildingBlock: ZUJKAS_clean_linker_0, # of connection points: 2
#     Edge 14, Type (0, 0), BuildingBlock: ZUJKAS_clean_linker_0, # of connection points: 2
#     Edge 15, Type (0, 0), BuildingBlock: ZUJKAS_clean_linker_0, # of connection points: 2
#     Edge 16, Type (0, 0), BuildingBlock: ZUJKAS_clean_linker_0, # of connection points: 2
#     Edge 17, Type (0, 0), BuildingBlock: ZUJKAS_clean_linker_0, # of connection points: 2
#     Edge 18, Type (0, 0), BuildingBlock: ZUJKAS_clean_linker_0, # of connection points: 2
#     Edge 19, Type (0, 0), BuildingBlock: ZUJKAS_clean_linker_0, # of connection points: 2
#     Edge 20, Type (0, 0), BuildingBlock: ZUJKAS_clean_linker_0, # of connection points: 2
#     Edge 21, Type (0, 0), BuildingBlock: ZUJKAS_clean_linker_0, # of connection points: 2
#     Edge 22, Type (0, 0), BuildingBlock: ZUJKAS_clean_linker_0, # of connection points: 2
#     Edge 23, Type (0, 0), BuildingBlock: ZUJKAS_clean_linker_0, # of connection points: 2
#     Edge 24, Type (0, 0), BuildingBlock: ZUJKAS_clean_linker_0, # of connection points: 2
#     Edge 25, Type (0, 0), BuildingBlock: ZUJKAS_clean_linker_0, # of connection points: 2
#     Edge 26, Type (0, 0), BuildingBlock: ZUJKAS_clean_linker_0, # of connection points: 2
#     Edge 27, Type (0, 0), BuildingBlock: ZUJKAS_clean_linker_0, # of connection points: 2
#     Edge 28, Type (0, 0), BuildingBlock: ZUJKAS_clean_linker_0, # of connection points: 2
#     Edge 29, Type (0, 0), BuildingBlock: ZUJKAS_clean_linker_0, # of connection points: 2
#     Edge 30, Type (0, 0), BuildingBlock: ZUJKAS_clean_linker_0, # of connection points: 2
#     Edge 31, Type (0, 0), BuildingBlock: ZUJKAS_clean_linker_0, # of connection points: 2
#     Edge 32, Type (0, 0), BuildingBlock: ZUJKAS_clean_linker_0, # of connection points: 2
#     Edge 33, Type (0, 0), BuildingBlock: ZUJKAS_clean_linker_0, # of connection points: 2
#     Edge 34, Type (0, 0), BuildingBlock: ZUJKAS_clean_linker_0, # of connection points: 2
#     Edge 35, Type (0, 0), BuildingBlock: ZUJKAS_clean_linker_0, # of connection points: 2
# Relax obj value: 0.033
# Max RMSD: 0.108
# Mean RMSD: 0.108
data_MOF--net-smm--node1-CUWYAW_clean_sbu_0--edge1-ZUJKAS_clean_linker_0
_symmetry_space_group_name_H-M    P1
_symmetry_Int_Tables_number       1
_symmetry_cell_setting            triclinic
loop_
_symmetry_equiv_pos_as_xyz
'x, y, z'
_cell_length_a     85.960666
_cell_length_b     85.759926
_cell_length_c     18.69792
_cell_angle_alpha  90.014198
_cell_angle_beta   89.973334
_cell_angle_gamma 119.9905
loop_
_atom_site_label
_atom_site_type_symbol
_atom_site_fract_x
_atom_site_fract_y
_atom_site_fract_z
_atom_type_partial_charge
C0 C 0.0787 0.19045 0.90193 0.0
Eu1 Eu 0.05517 0.19756 0.95852 0.0
C2 C 0.08563 0.17795 0.91357 0.0
C3 C 0.0896 0.17439 0.98252 0.0
C4 C 0.0971 0.16331 -0.00807 0.0
C5 C 0.10064 0.15543 0.9327 0.0
C6 C 0.09627 0.15871 0.86392 0.0
C7 C 0.08889 0.1699 0.85452 0.0
C8 C 0.05094 0.19985 0.10111 0.0
C9 C 1.01675 0.16027 0.98336 0.0
C10 C 0.99897 0.20608 0.0695 0.0
Eu11 Eu 1.02169 0.19949 0.00214 0.0
C12 C 0.99387 0.22003 0.08239 0.0
C13 C 0.98529 0.2247 0.02949 0.0
C14 C 0.97876 0.23636 0.04539 0.0
C15 C 0.98061 0.2436 0.11451 0.0
C16 C 0.98963 0.23928 0.16674 0.0
C17 C 0.9961 0.22759 0.15092 0.0
C18 C 1.02506 0.19586 0.86015 0.0
C19 C 0.05906 0.23665 0.96181 0.0
O20 O 0.0622 0.18347 0.87846 0.0
O21 O 0.08262 0.20283 0.95062 0.0
O22 O 0.06646 0.20703 0.07003 0.0
O23 O 0.03871 0.19078 0.05702 0.0
O24 O 0.03273 0.1683 0.95216 0.0
O25 O 1.01046 0.16961 0.01656 0.0
O26 O 1.01401 0.20864 0.09783 0.0
O27 O 0.99593 0.19861 0.00611 0.0
O28 O 1.00964 0.18914 0.8924 0.0
O29 O 0.03761 0.2054 0.90255 0.0
O30 O 0.04369 0.22918 -0.00219 0.0
O31 O 0.065 0.22666 0.93158 0.0
H32 H 0.08709 0.18031 0.02914 0.0
H33 H 0.10008 0.16086 0.04567 0.0
H34 H 0.09896 0.153 0.81712 0.0
H35 H 0.08596 0.17247 0.80087 0.0
H36 H 0.98326 0.21908 0.97618 0.0
H37 H 0.97209 0.23957 0.0036 0.0
H38 H 0.99111 0.24441 0.22074 0.0
H39 H 1.00243 0.22405 0.19307 0.0
C40 C 0.87621 0.90943 0.90103 0.0
Eu41 Eu 0.86933 0.8788 0.95752 0.0
C42 C 0.88858 0.9289 0.91247 0.0
C43 C 0.89185 0.93656 0.9812 0.0
C44 C 0.90279 0.95518 -0.00969 0.0
C45 C 0.91082 0.96652 0.93101 0.0
C46 C 0.90782 0.95874 0.86249 0.0
C47 C 0.89678 0.94014 0.85337 0.0
C48 C 0.86717 0.87224 0.09996 0.0
C49 C 0.90661 0.8776 0.98123 0.0
C50 C 0.86144 0.8141 0.06809 0.0
Eu51 Eu 0.86744 0.84326 0.00072 0.0
C52 C 0.8478 0.7953 0.08534 0.0
C53 C 0.83694 0.78297 0.03257 0.0
C54 C 0.82547 0.7648 0.05004 0.0
C55 C 0.82468 0.75861 0.1205 0.0
C56 C 0.83516 0.77117 0.17339 0.0
C57 C 0.84658 0.78927 0.15594 0.0
C58 C 0.87102 0.8504 0.8589 0.0
C59 C 0.83034 0.84357 0.96169 0.0
O60 O 0.88325 0.89995 0.87739 0.0
O61 O 0.8639 0.90093 0.94985 0.0
O62 O 0.85995 0.88061 0.06921 0.0
O63 O 0.87617 0.86905 0.05561 0.0
O64 O 0.89858 0.88573 0.9514 0.0
O65 O 0.89733 0.86179 0.01322 0.0
O66 O 0.85971 0.82695 0.09805 0.0
O67 O 0.86738 0.81784 0.00224 0.0
O68 O 0.87783 0.84173 0.89082 0.0
O69 O 0.86148 0.85336 0.90153 0.0
O70 O 0.83781 0.83572 -0.00186 0.0
O71 O 0.84032 0.85942 0.93071 0.0
H72 H 0.88581 0.92819 0.02788 0.0
H73 H 0.90502 0.96069 0.04388 0.0
H74 H 0.91365 0.96709 0.81561 0.0
H75 H 0.89442 0.93455 0.79988 0.0
H76 H 0.83761 0.78725 0.97762 0.0
H77 H 0.81768 0.75551 0.00785 0.0
H78 H 0.83466 0.767 0.22839 0.0
H79 H 0.85481 0.79852 0.19756 0.0
C80 C 0.15709 0.98749 0.8998 0.0
Eu81 Eu 0.18743 1.01131 0.95782 0.0
C82 C 0.13764 0.98046 0.90813 0.0
C83 C 0.13038 0.9824 0.97258 0.0
C84 C 0.11173 0.97459 0.98071 0.0
C85 C 0.09999 0.9647 0.92451 0.0
C86 C 0.10745 0.96321 0.85953 0.0
C87 C 0.12605 0.97099 0.85155 0.0
C88 C 0.19405 1.01553 0.10031 0.0
C89 C 0.18831 0.04959 0.98432 0.0
C90 C 0.2522 0.06808 0.06732 0.0
Eu91 Eu 0.22279 0.04503 0.0013 0.0
C92 C 0.27152 0.07388 0.07666 0.0
C93 C 0.28443 0.08502 0.02603 0.0
C94 C 0.30278 0.09213 0.03938 0.0
C95 C 0.30872 0.08833 0.10372 0.0
C96 C 0.29578 0.07682 0.1535 0.0
C97 C 0.27742 0.06975 0.14025 0.0
C98 C 0.21581 0.04151 0.85928 0.0
C99 C 0.2227 1.00763 0.96177 0.0
O100 O 0.16677 1.00395 0.87574 0.0
O101 O 0.16502 0.98387 0.95157 0.0
O102 O 0.18571 0.99998 0.06917 0.0
O103 O 0.19715 0.0278 0.05639 0.0
O104 O 0.18043 0.03366 0.95244 0.0
O105 O 0.20391 0.05587 0.01751 0.0
O106 O 0.24031 0.05257 0.09484 0.0
O107 O 0.24706 0.07134 0.0059 0.0
O108 O 0.22449 0.05698 0.8913 0.0
O109 O 0.21282 0.02899 0.90192 0.0
O110 O 0.23059 0.02311 -0.0028 0.0
O111 O 0.20675 1.00153 0.93177 0.0
H112 H 0.13911 0.98968 0.01698 0.0
H113 H 0.10651 0.97592 0.03166 0.0
H114 H 0.0989 0.95602 0.81463 0.0
H115 H 0.1314 0.96941 0.8013 0.0
H116 H 0.28041 0.08862 0.97668 0.0
H117 H 0.31235 0.10075 -0.00058 0.0
H118 H 0.29984 0.07377 0.20399 0.0
H119 H 0.26786 0.06145 0.18085 0.0
C120 C 0.74497 0.52331 0.23032 0.0
Eu121 Eu 0.72102 0.52975 0.2875 0.0
C122 C 0.75232 0.51116 0.23994 0.0
C123 C 0.74226 0.49417 0.27208 0.0
C124 C 0.74984 0.48314 0.2821 0.0
C125 C 0.76764 0.48899 0.26068 0.0
C126 C 0.77757 0.50601 0.22832 0.0
C127 C 0.76998 0.51695 0.21808 0.0
C128 C 0.71668 0.53214 0.4299 0.0
C129 C 0.68261 0.49246 0.31267 0.0
C130 C 0.66466 0.53823 0.39775 0.0
Eu131 Eu 0.68749 0.53175 0.3306 0.0
C132 C 0.65942 0.55207 0.4106 0.0
C133 C 0.65129 0.55707 0.35696 0.0
C134 C 0.6446 0.5686 0.37262 0.0
C135 C 0.64587 0.57541 0.44222 0.0
C136 C 0.65445 0.57078 0.49526 0.0
C137 C 0.66107 0.5592 0.47966 0.0
C138 C 0.69101 0.52816 0.18875 0.0
C139 C 0.72491 0.5689 0.2912 0.0
O140 O 0.72845 0.51622 0.20691 0.0
O141 O 0.7486 0.53514 0.28104 0.0
O142 O 0.73223 0.53928 0.39908 0.0
O143 O 0.70448 0.52306 0.38571 0.0
O144 O 0.69869 0.5004 0.28212 0.0
O145 O 0.67627 0.50188 0.34485 0.0
O146 O 0.67973 0.54089 0.42616 0.0
O147 O 0.66168 0.53076 0.33435 0.0
O148 O 0.67556 0.52149 0.22064 0.0
O149 O 0.70352 0.53765 0.23138 0.0
O150 O 0.70948 0.56145 0.32674 0.0
O151 O 0.73085 0.55889 0.2611 0.0
H152 H 0.72864 0.48949 0.28988 0.0
H153 H 0.74187 0.47019 0.30777 0.0
H154 H 0.7912 0.51084 0.2102 0.0
H155 H 0.77795 0.53002 0.19321 0.0
H156 H 0.64972 0.55178 0.3032 0.0
H157 H 0.63829 0.57208 0.33025 0.0
H158 H 0.65548 0.57557 0.5496 0.0
H159 H 0.66706 0.5554 0.52232 0.0
C160 C 0.53884 0.24173 0.22993 0.0
Eu161 Eu 0.53749 0.21263 0.27864 0.0
C162 C 0.55047 0.26133 0.23987 0.0
C163 C 0.54351 0.27279 0.22772 0.0
C164 C 0.55432 0.29142 0.23696 0.0
C165 C 0.57236 0.29898 0.25843 0.0
C166 C 0.57928 0.2874 0.27076 0.0
C167 C 0.56842 0.26875 0.26183 0.0
C168 C 0.5409 0.20719 0.41895 0.0
C169 C 0.57354 0.21109 0.30513 0.0
C170 C 0.52772 0.14485 0.36435 0.0
Eu171 Eu 0.53441 0.17611 0.31516 0.0
C172 C 0.51361 0.12724 0.39325 0.0
C173 C 0.50256 0.11316 0.34645 0.0
C174 C 0.49128 0.09575 0.3723 0.0
C175 C 0.49075 0.09191 0.44564 0.0
C176 C 0.5012 0.10613 0.49295 0.0
C177 C 0.51259 0.12358 0.46698 0.0
C178 C 0.54332 0.18719 0.17788 0.0
C179 C 0.49776 0.17683 0.27816 0.0
O180 O 0.54604 0.23337 0.19685 0.0
O181 O 0.52906 0.23274 0.2851 0.0
O182 O 0.54987 0.22266 0.38767 0.0
O183 O 0.52995 0.19555 0.37622 0.0
O184 O 0.56606 0.2185 0.26636 0.0
O185 O 0.56366 0.19582 0.34036 0.0
O186 O 0.53384 0.15927 0.40458 0.0
O187 O 0.52658 0.14816 0.29683 0.0
O188 O 0.5498 0.17871 0.21317 0.0
O189 O 0.53202 0.18875 0.21533 0.0
O190 O 0.50493 0.16738 0.30299 0.0
O191 O 0.50764 0.19413 0.26213 0.0
H192 H 0.52969 0.26733 0.21083 0.0
H193 H 0.5486 0.29992 0.2262 0.0
H194 H 0.59303 0.29273 0.28819 0.0
H195 H 0.57404 0.26013 0.27213 0.0
H196 H 0.50304 0.11538 0.28928 0.0
H197 H 0.48322 0.08518 0.33452 0.0
H198 H 0.5012 0.1036 0.5497 0.0
H199 H 0.52109 0.13405 0.50439 0.0
C200 C 0.82384 0.32071 0.23972 0.0
Eu201 Eu 0.85432 0.34469 0.29592 0.0
C202 C 0.8044 0.31359 0.2507 0.0
C203 C 0.79684 0.3102 0.31959 0.0
C204 C 0.77825 0.30248 0.32854 0.0
C205 C 0.76684 0.29812 0.26886 0.0
C206 C 0.77452 0.30192 0.20007 0.0
C207 C 0.7931 0.30952 0.19116 0.0
C208 C 0.86124 0.34912 0.43811 0.0
C209 C 0.85474 0.38274 0.32195 0.0
C210 C 0.9186 0.40234 0.40516 0.0
Eu211 Eu 0.88962 0.37871 0.33842 0.0
C212 C 0.9379 0.40895 0.41628 0.0
C213 C 0.94535 0.3977 0.40984 0.0
C214 C 0.96368 0.40445 0.42379 0.0
C215 C 0.97486 0.42256 0.4442 0.0
C216 C 0.96723 0.43371 0.45003 0.0
C217 C 0.949 0.42697 0.43618 0.0
C218 C 0.88232 0.37506 0.19669 0.0
C219 C 0.88994 0.34156 0.29783 0.0
O220 O 0.83326 0.33719 0.21545 0.0
O221 O 0.83231 0.31706 0.28926 0.0
O222 O 0.85296 0.33352 0.40732 0.0
O223 O 0.86412 0.36131 0.39406 0.0
O224 O 0.84686 0.36668 0.29123 0.0
O225 O 0.87054 0.38936 0.35387 0.0
O226 O 0.90711 0.38656 0.43178 0.0
O227 O 0.91371 0.40529 0.34268 0.0
O228 O 0.89106 0.39057 0.22841 0.0
O229 O 0.87952 0.3626 0.23932 0.0
O230 O 0.8978 0.35704 0.33342 0.0
O231 O 0.87391 0.33536 0.26839 0.0
H232 H 0.80527 0.31335 0.36654 0.0
H233 H 0.77281 0.29998 0.38226 0.0
H234 H 0.76613 0.29859 0.15294 0.0
H235 H 0.79862 0.31199 0.13755 0.0
H236 H 0.93701 0.38374 0.39445 0.0
H237 H 0.96911 0.39553 0.41809 0.0
H238 H 0.97528 0.4476 0.46677 0.0
H239 H 0.94349 0.43584 0.44193 0.0
C240 C 0.41314 0.85806 0.57357 0.0
Eu241 Eu 0.3895 0.86491 0.63091 0.0
C242 C 0.42024 0.84568 0.58463 0.0
C243 C 0.42467 0.84238 0.6532 0.0
C244 C 0.43234 0.83144 0.66195 0.0
C245 C 0.43562 0.82344 0.60244 0.0
C246 C 0.43079 0.82645 0.53408 0.0
C247 C 0.42323 0.8375 0.52532 0.0
C248 C 0.38526 0.86684 0.77375 0.0
C249 C 0.35107 0.82757 0.65461 0.0
C250 C 0.33289 0.87263 0.74296 0.0
Eu251 Eu 0.35607 0.86678 0.67535 0.0
C252 C 0.32765 0.88623 0.76001 0.0
C253 C 0.32598 0.89692 0.70699 0.0
C254 C 0.31924 0.90835 0.72432 0.0
C255 C 0.314 0.90927 0.79491 0.0
C256 C 0.31626 0.89895 0.84802 0.0
C257 C 0.32298 0.88757 0.8307 0.0
C258 C 0.35948 0.86345 0.53307 0.0
C259 C 0.39344 0.90398 0.63743 0.0
O260 O 0.39661 0.85099 0.55036 0.0
O261 O 0.41702 0.8704 0.62243 0.0
O262 O 0.40077 0.87415 0.74261 0.0
O263 O 0.37303 0.85788 0.7295 0.0
O264 O 0.36709 0.83564 0.62368 0.0
O265 O 0.34477 0.83686 0.68805 0.0
O266 O 0.34752 0.87453 0.7727 0.0
O267 O 0.33066 0.86661 0.67723 0.0
O268 O 0.34407 0.85651 0.56546 0.0
O269 O 0.37202 0.87296 0.57558 0.0
O270 O 0.37825 0.89643 0.67465 0.0
O271 O 0.3991 0.89403 0.60485 0.0
H272 H 0.42237 0.8484 0.70004 0.0
H273 H 0.43566 0.82919 0.71541 0.0
H274 H 0.43327 0.82064 0.48705 0.0
H275 H 0.41996 0.83987 0.47195 0.0
H276 H 0.32947 0.89615 0.65196 0.0
H277 H 0.31758 0.91601 0.68198 0.0
H278 H 0.3127 0.89955 0.90311 0.0
H279 H 0.32417 0.87947 0.8725 0.0
C280 C 0.20915 0.57663 0.56591 0.0
Eu281 Eu 0.2022 0.54586 0.62122 0.0
C282 C 0.22148 0.59618 0.57802 0.0
C283 C 0.21949 0.60504 0.63768 0.0
C284 C 0.23055 0.62364 0.64631 0.0
C285 C 0.24391 0.6339 0.59558 0.0
C286 C 0.24602 0.62497 0.53638 0.0
C287 C 0.2349 0.60636 0.52764 0.0
C288 C 0.19998 0.5392 0.76361 0.0
C289 C 0.2395 0.54472 0.64483 0.0
C290 C 0.19451 0.48126 0.73178 0.0
Eu291 Eu 0.20039 0.51034 0.66417 0.0
C292 C 0.18091 0.46248 0.74952 0.0
C293 C 0.17014 0.45 0.69702 0.0
C294 C 0.15867 0.43188 0.71513 0.0
C295 C 0.1578 0.4259 0.78599 0.0
C296 C 0.16821 0.4386 0.83855 0.0
C297 C 0.17963 0.45665 0.82045 0.0
C298 C 0.2041 0.51759 0.52246 0.0
C299 C 0.16325 0.51051 0.62438 0.0
O300 O 0.21621 0.56718 0.54194 0.0
O301 O 0.19663 0.56791 0.61377 0.0
O302 O 0.19273 0.54753 0.73291 0.0
O303 O 0.20903 0.53609 0.71924 0.0
O304 O 0.23145 0.55279 0.61466 0.0
O305 O 0.23024 0.52895 0.67713 0.0
O306 O 0.19278 0.49413 0.76166 0.0
O307 O 0.20036 0.48493 0.6658 0.0
O308 O 0.21092 0.50893 0.55445 0.0
O309 O 0.19449 0.52048 0.56495 0.0
O310 O 0.17072 0.50264 0.66074 0.0
O311 O 0.17322 0.52643 0.59395 0.0
H312 H 0.2092 0.59768 0.67739 0.0
H313 H 0.22832 0.63004 0.692 0.0
H314 H 0.2563 0.63235 0.4967 0.0
H315 H 0.23671 0.59993 0.48098 0.0
H316 H 0.17086 0.45413 0.64181 0.0
H317 H 0.15093 0.42246 0.6732 0.0
H318 H 0.16765 0.43458 0.89382 0.0
H319 H 0.1878 0.46602 0.86187 0.0
C320 C 0.49001 0.65448 0.56857 0.0
Eu321 Eu 0.5207 0.67789 0.62515 0.0
C322 C 0.47057 0.6476 0.57914 0.0
C323 C 0.46253 0.64236 0.64699 0.0
C324 C 0.44393 0.63482 0.65488 0.0
C325 C 0.43297 0.63247 0.59526 0.0
C326 C 0.44114 0.63812 0.52773 0.0
C327 C 0.45972 0.64555 0.5198 0.0
C328 C 0.52739 0.68205 0.76758 0.0
C329 C 0.52226 0.71654 0.6511 0.0
C330 C 0.58589 0.73411 0.73405 0.0
Eu331 Eu 0.55632 0.71127 0.66832 0.0
C332 C 0.60497 0.73926 0.74645 0.0
C333 C 0.61872 0.75278 0.70476 0.0
C334 C 0.63681 0.75929 0.72168 0.0
C335 C 0.64164 0.75256 0.78112 0.0
C336 C 0.62787 0.73873 0.82179 0.0
C337 C 0.60978 0.73221 0.80482 0.0
C338 C 0.54915 0.70789 0.52647 0.0
C339 C 0.55557 0.6736 0.62833 0.0
O340 O 0.4997 0.67098 0.54484 0.0
O341 O 0.49829 0.65048 0.61773 0.0
O342 O 0.51888 0.66651 0.73648 0.0
O343 O 0.53064 0.69436 0.72365 0.0
O344 O 0.51414 0.70053 0.61978 0.0
O345 O 0.53791 0.72272 0.68375 0.0
O346 O 0.57335 0.71919 0.76322 0.0
O347 O 0.5814 0.73698 0.67054 0.0
O348 O 0.55793 0.72333 0.55862 0.0
O349 O 0.54609 0.6953 0.56887 0.0
O350 O 0.56357 0.68893 0.66476 0.0
O351 O 0.53975 0.66788 0.59772 0.0
H352 H 0.47057 0.64389 0.69388 0.0
H353 H 0.43812 0.63085 0.70777 0.0
H354 H 0.4331 0.63636 0.48059 0.0
H355 H 0.46559 0.64943 0.46695 0.0
H356 H 0.61553 0.75875 0.66019 0.0
H357 H 0.64699 0.7701 0.6897 0.0
H358 H 0.63107 0.73306 0.86739 0.0
H359 H 0.59957 0.72194 0.83864 0.0
H360 H 0.04879 0.26132 -0.00286 0.0
H361 H 0.06416 0.29343 0.96729 0.0
H362 H 0.10689 0.28883 0.86726 0.0
H363 H 0.09153 0.25676 0.89559 0.0
H364 H 0.09735 0.32134 0.00347 0.0
H365 H 0.09292 0.31196 0.7096 0.0
H366 H 0.08026 0.29366 0.771 0.0
H367 H 0.10348 0.301 0.75295 0.0
C368 C 0.06147 0.26713 0.96891 0.0
C369 C 0.06883 0.25638 0.94829 0.0
C370 C 0.07024 0.28551 0.95181 0.0
C371 C 0.0865 0.29349 0.91361 0.0
C372 C 0.09413 0.2829 0.895 0.0
H373 H 0.16652 0.40615 0.87535 0.0
H374 H 0.14837 0.37439 0.90708 0.0
C375 C 0.08537 0.26455 0.91178 0.0
C376 C 0.09561 0.31291 0.89389 0.0
H377 H 0.11258 0.34177 0.7519 0.0
C378 C 0.10057 0.32579 0.94842 0.0
C379 C 0.09956 0.31876 0.82192 0.0
C380 C 0.09362 0.30562 0.76042 0.0
C381 C 0.10985 0.34434 0.93321 0.0
C382 C 0.1146 0.3502 0.8616 0.0
C383 C 0.10914 0.33731 0.80685 0.0
C384 C 0.12552 0.36961 0.84252 0.0
C385 C 0.11433 0.35748 -0.00599 0.0
C386 C 0.11897 0.37746 0.79395 0.0
C387 C 0.12938 0.3957 0.77546 0.0
C388 C 0.14659 0.40645 0.80501 0.0
C389 C 0.15318 0.39843 0.85284 0.0
C390 C 0.14279 0.38023 0.87114 0.0
H391 H 0.10534 0.35108 0.04065 0.0
H392 H 0.12833 0.3623 0.01175 0.0
H393 H 0.11327 0.36933 0.97712 0.0
H394 H 0.10572 0.36951 0.77079 0.0
H395 H 0.12384 0.40142 0.73878 0.0
H396 H 0.80504 0.81004 0.01049 0.0
H397 H 0.77279 0.79362 0.98437 0.0
H398 H 0.77877 0.83816 0.85677 0.0
H399 H 0.81083 0.85476 0.88342 0.0
H400 H 0.74952 0.82506 0.9449 0.0
H401 H 0.74963 0.76912 0.79593 0.0
H402 H 0.75862 0.77239 0.88486 0.0
H403 H 0.77003 0.78959 0.81847 0.0
C404 C 0.7995 0.81637 0.97703 0.0
C405 C 0.81061 0.83372 0.94888 0.0
C406 C 0.78106 0.8069 0.96169 0.0
C407 C 0.77337 0.81451 0.91753 0.0
C408 C 0.78437 0.83195 0.89066 0.0
H409 H 0.67109 0.76327 0.69417 0.0
H410 H 0.70275 0.77801 0.7292 0.0
C411 C 0.80276 0.84143 0.90601 0.0
C412 C 0.75388 0.8045 0.89949 0.0
H413 H 0.72125 0.76653 0.81727 0.0
C414 C 0.74333 0.81224 0.91715 0.0
C415 C 0.74584 0.78788 0.8623 0.0
C416 C 0.75661 0.77929 0.8386 0.0
C417 C 0.72502 0.80384 0.89905 0.0
C418 C 0.71689 0.78703 0.86333 0.0
C419 C 0.72744 0.77932 0.84525 0.0
C420 C 0.69757 0.7775 0.84266 0.0
C421 C 0.71466 0.81328 0.9167 0.0
C422 C 0.68407 0.77198 0.89479 0.0
C423 C 0.66595 0.76365 0.87492 0.0
C424 C 0.6609 0.76054 0.80237 0.0
C425 C 0.67446 0.76568 0.7504 0.0
C426 C 0.69258 0.77401 0.77037 0.0
H427 H 0.72374 0.82785 0.92717 0.0
H428 H 0.7054 0.8118 0.87249 0.0
H429 H 0.70652 0.80718 0.96554 0.0
H430 H 0.68755 0.77424 0.95097 0.0
H431 H 0.65594 0.76005 0.91644 0.0
H432 H 0.25757 1.01808 -0.00221 0.0
H433 H 0.27434 1.0027 0.96931 0.0
H434 H 0.22722 0.95964 0.8693 0.0
H435 H 0.21047 0.97501 0.89625 0.0
H436 H 0.26903 0.96957 0.00703 0.0
H437 H 0.2645 0.9734 0.71268 0.0
H438 H 0.25876 0.98616 0.77309 0.0
H439 H 0.24295 0.96283 0.75566 0.0
C440 C 0.25074 1.00532 0.96981 0.0
C441 C 0.23268 0.99787 0.94883 0.0
C442 C 0.26037 0.99655 0.95351 0.0
C443 C 0.25217 0.9802 0.91577 0.0
C444 C 0.234 0.97248 0.89672 0.0
H445 H 0.28537 0.90043 0.88338 0.0
H446 H 0.27154 0.91846 0.91346 0.0
C447 C 0.22439 0.98125 0.91271 0.0
C448 C 0.2625 0.97106 0.89704 0.0
H449 H 0.27471 0.95394 0.75658 0.0
C450 C 0.27037 0.96626 0.95223 0.0
C451 C 0.26453 0.967 0.82539 0.0
C452 C 0.2574 0.97277 0.76322 0.0
C453 C 0.27971 0.95703 0.93798 0.0
C454 C 0.28097 0.95217 0.86669 0.0
C455 C 0.27358 0.95747 0.81129 0.0
C456 C 0.2896 0.94132 0.84861 0.0
C457 C 0.28831 0.95272 -0.00055 0.0
C458 C 0.30407 0.94792 0.80046 0.0
C459 C 0.31203 0.93759 0.78292 0.0
C460 C 0.30563 0.9204 0.81303 0.0
C461 C 0.29095 0.91377 0.86047 0.0
C462 C 0.28301 0.92407 0.87781 0.0
H463 H 0.29076 0.96178 0.04576 0.0
H464 H 0.27918 0.9387 0.01743 0.0
H465 H 0.30126 0.95387 0.98316 0.0
H466 H 0.30932 0.96115 0.77688 0.0
H467 H 0.32335 0.94317 0.74653 0.0
H468 H 0.47814 0.19102 0.22091 0.0
H469 H 0.44602 0.17541 0.19391 0.0
H470 H 0.44057 0.12593 0.27562 0.0
H471 H 0.47266 0.14142 0.30348 0.0
H472 H 0.42709 0.14584 0.10233 0.0
H473 H 0.40024 0.1293 0.3791 0.0
H474 H 0.42332 0.14581 0.36005 0.0
H475 H 0.41608 0.12221 0.35661 0.0
C476 C 0.47013 0.17685 0.23383 0.0
C477 C 0.47806 0.16752 0.26469 0.0
C478 C 0.45174 0.16794 0.21815 0.0
C479 C 0.44082 0.14954 0.23346 0.0
C480 C 0.44864 0.14019 0.26453 0.0
H481 H 0.32676 0.07311 0.16776 0.0
H482 H 0.35876 0.08761 0.19733 0.0
C483 C 0.46705 0.14908 0.28013 0.0
C484 C 0.42141 0.14006 0.21439 0.0
H485 H 0.37911 0.11662 0.28492 0.0
C486 C 0.41659 0.1395 0.14227 0.0
C487 C 0.40771 0.13169 0.26646 0.0
C488 C 0.41202 0.13236 0.345 0.0
C489 C 0.3985 0.13065 0.12069 0.0
C490 C 0.38478 0.12244 0.17283 0.0
C491 C 0.3896 0.1229 0.24493 0.0
C492 C 0.36537 0.11358 0.15385 0.0
C493 C 0.39428 0.12987 0.042 0.0
C494 C 0.35834 0.12337 0.12024 0.0
C495 C 0.34006 0.11512 0.10325 0.0
C496 C 0.32831 0.09691 0.12011 0.0
C497 C 0.33537 0.08717 0.15438 0.0
C498 C 0.35368 0.09543 0.17115 0.0
H499 H 0.40585 0.13201 0.00838 0.0
H500 H 0.38244 0.11673 0.02749 0.0
H501 H 0.39121 0.14067 0.02904 0.0
H502 H 0.36696 0.13751 0.10804 0.0
H503 H 0.33506 0.12316 0.07834 0.0
H504 H 0.92404 0.35066 0.34158 0.0
H505 H 0.94083 0.33532 0.31184 0.0
H506 H 0.89534 0.29524 0.19342 0.0
H507 H 0.87855 0.31042 0.22218 0.0
H508 H 0.93232 0.29908 0.33855 0.0
H509 H 0.93671 0.31361 0.04788 0.0
H510 H 0.93074 0.32535 0.11266 0.0
H511 H 0.9143 0.30317 0.08316 0.0
C512 C 0.91758 0.33856 0.30934 0.0
C513 C 0.89996 0.33188 0.28389 0.0
C514 C 0.92721 0.32981 0.29239 0.0
C515 C 0.91946 0.31432 0.24928 0.0
C516 C 0.90174 0.30738 0.22546 0.0
H517 H 0.94782 0.23869 0.074 0.0
H518 H 0.934 0.25654 0.108 0.0
C519 C 0.89211 0.31606 0.2424 0.0
C520 C 0.92976 0.30527 0.22921 0.0
H521 H 0.94508 0.29231 0.08516 0.0
C522 C 0.93528 0.29773 0.28324 0.0
C523 C 0.93358 0.30351 0.15698 0.0
C524 C 0.92868 0.31197 0.09679 0.0
C525 C 0.94396 0.28794 0.26683 0.0
C526 C 0.94756 0.28596 0.19444 0.0
C527 C 0.94229 0.29377 0.14057 0.0
C528 C 0.9563 0.27542 0.17318 0.0
C529 C 0.94861 0.27927 0.32699 0.0
C530 C 0.97361 0.28026 0.19735 0.0
C531 C 0.98159 0.27009 0.17782 0.0
C532 C 0.9725 0.25494 0.13307 0.0
C533 C 0.95532 0.25038 0.10779 0.0
C534 C 0.94734 0.26052 0.12753 0.0
H535 H 0.94096 0.27816 0.37648 0.0
H536 H 0.94587 0.26561 0.31165 0.0
H537 H 0.96313 0.28761 0.33941 0.0
H538 H 0.981 0.29197 0.23112 0.0
H539 H 0.99495 0.27416 0.19735 0.0
H540 H 0.83353 0.73868 0.20828 0.0
H541 H 0.81557 0.70675 0.23792 0.0
H542 H 0.77272 0.70218 0.10369 0.0
H543 H 0.79064 0.73423 0.07376 0.0
H544 H 0.78255 0.68779 0.30307 0.0
H545 H 0.78018 0.66173 0.02909 0.0
H546 H 0.7953 0.68486 0.05346 0.0
H547 H 0.77205 0.67732 0.03564 0.0
C548 C 0.82023 0.73096 0.18542 0.0
C549 C 0.81355 0.73909 0.13858 0.0
C550 C 0.80999 0.71265 0.20223 0.0
C551 C 0.79287 0.70197 0.17243 0.0
C552 C 0.78604 0.71004 0.12622 0.0
H553 H 0.71486 0.59375 0.32667 0.0
H554 H 0.73076 0.62599 0.29938 0.0
C555 C 0.79631 0.72838 0.10918 0.0
C556 C 0.78222 0.68246 0.1904 0.0
H557 H 0.7628 0.64029 0.11753 0.0
C558 C 0.7782 0.67739 0.26249 0.0
C559 C 0.77673 0.66888 0.13757 0.0
C560 C 0.7814 0.6734 0.05966 0.0
C561 C 0.76885 0.65918 0.28317 0.0
C562 C 0.76306 0.64561 0.2302 0.0
C563 C 0.7671 0.65068 0.15811 0.0
C564 C 0.75341 0.62607 0.24837 0.0
C565 C 0.76572 0.65467 0.36175 0.0
C566 C 0.76065 0.61526 0.22783 0.0
C567 C 0.75153 0.59681 0.24282 0.0
C568 C 0.7349 0.58868 0.27862 0.0
C569 C 0.7277 0.59955 0.29956 0.0
C570 C 0.73682 0.61803 0.28424 0.0
H571 H 0.77489 0.6663 0.39573 0.0
H572 H 0.75172 0.65093 0.37554 0.0
H573 H 0.7676 0.6431 0.37497 0.0
H574 H 0.77341 0.62112 0.20003 0.0
H575 H 0.75751 0.5889 0.2258 0.0
H576 H 0.13832 0.47594 0.66419 0.0
H577 H 0.10627 0.45921 0.63385 0.0
H578 H 0.11155 0.50577 0.52376 0.0
H579 H 0.14347 0.52249 0.55293 0.0
H580 H 0.07838 0.46633 0.66419 0.0
H581 H 0.08886 0.46644 0.37168 0.0
H582 H 0.10666 0.47216 0.43552 0.0
H583 H 0.10033 0.4885 0.4108 0.0
C584 C 0.13266 0.48265 0.63371 0.0
C585 C 0.14356 0.50055 0.61059 0.0
C586 C 0.11433 0.47305 0.61635 0.0
C587 C 0.10657 0.4811 0.57523 0.0
C588 C 0.11731 0.49912 0.55401 0.0
H589 H 1.0032 0.45567 0.40879 0.0
H590 H 0.03472 0.46856 0.44229 0.0
C591 C 0.13558 0.5087 0.57122 0.0
C592 C 0.08726 0.47083 0.55468 0.0
H593 H 0.05913 0.45753 0.41022 0.0
C594 C 0.07415 0.46423 0.6087 0.0
C595 C 0.08174 0.46805 0.4822 0.0
C596 C 0.09512 0.474 0.42166 0.0
C597 C 0.0557 0.45557 0.59224 0.0
C598 C 0.0502 0.45315 0.51972 0.0
C599 C 0.06332 0.45942 0.46577 0.0
C600 C 0.03097 0.44489 0.49859 0.0
C601 C 0.0423 0.44971 0.65268 0.0
C602 C 1.01834 0.42712 0.51782 0.0
C603 C 1.0002 0.41972 0.49911 0.0
C604 C 0.99432 0.42991 0.46052 0.0
C605 C 1.00714 0.44752 0.43966 0.0
C606 C 1.02522 0.45489 0.45838 0.0
H607 H 0.04877 0.45627 0.70402 0.0
H608 H 0.03153 0.45287 0.64057 0.0
H609 H 0.03597 0.43494 0.65992 0.0
H610 H 1.0225 0.41899 0.54755 0.0
H611 H 0.99073 0.40616 0.51636 0.0
H612 H 0.5441 0.64278 0.55021 0.0
H613 H 0.56054 0.62714 0.52244 0.0
H614 H 0.6056 0.66608 0.64618 0.0
H615 H 0.58918 0.68181 0.67492 0.0
H616 H 0.59359 0.64141 0.45066 0.0
H617 H 0.59767 0.61768 0.72284 0.0
H618 H 0.58225 0.62549 0.70085 0.0
H619 H 0.6056 0.64138 0.71533 0.0
C620 C 0.55744 0.64798 0.57221 0.0
C621 C 0.56527 0.66357 0.61502 0.0
C622 C 0.56684 0.63901 0.55608 0.0
C623 C 0.58424 0.64531 0.58272 0.0
C624 C 0.59208 0.66078 0.62599 0.0
H625 H 0.65944 0.6054 0.5282 0.0
H626 H 0.64522 0.62305 0.56076 0.0
C627 C 0.58268 0.6698 0.64214 0.0
C628 C 0.59432 0.63602 0.56267 0.0
H629 H 0.61332 0.61243 0.63063 0.0
C630 C 0.5979 0.63506 0.49001 0.0
C631 C 0.60003 0.62784 0.61406 0.0
C632 C 0.5961 0.62797 0.69262 0.0
C633 C 0.60708 0.62621 0.46732 0.0
C634 C 0.6125 0.61772 0.51855 0.0
C635 C 0.60915 0.61891 0.59135 0.0
C636 C 0.62129 0.6072 0.49757 0.0
C637 C 0.61111 0.6263 0.38872 0.0
C638 C 0.61253 0.5923 0.45173 0.0
C639 C 0.62062 0.5822 0.43298 0.0
C640 C 0.63761 0.58665 0.46024 0.0
C641 C 0.64631 0.60152 0.50657 0.0
C642 C 0.63822 0.61166 0.5251 0.0
H643 H 0.61099 0.63762 0.3603 0.0
H644 H 0.62439 0.62734 0.38033 0.0
H645 H 0.60067 0.61356 0.3641 0.0
H646 H 0.59926 0.58828 0.43128 0.0
H647 H 0.61335 0.57062 0.39848 0.0
H648 H 0.46903 0.07901 0.56449 0.0
H649 H 0.45216 0.04769 0.60686 0.0
H650 H 0.47186 0.03081 0.42813 0.0
H651 H 0.48875 0.06191 0.38578 0.0
H652 H 0.42522 1.01526 0.52078 0.0
H653 H 0.48455 1.01147 0.61496 0.0
H654 H 0.4849 0.03258 0.60394 0.0
H655 H 0.48636 0.0208 0.52716 0.0
C656 C 0.46981 0.06862 0.53443 0.0
C657 C 0.4802 0.07296 0.47162 0.0
C658 C 0.46011 0.05075 0.55852 0.0
C659 C 0.46088 0.03697 0.5209 0.0
C660 C 0.47118 0.04126 0.45824 0.0
H661 H 0.42173 0.92336 0.54726 0.0
H662 H 0.43729 0.95566 0.52395 0.0
C663 C 0.48072 0.05903 0.43381 0.0
C664 C 0.45087 1.01803 0.54632 0.0
H665 H 0.45689 0.98401 0.60902 0.0
C666 C 0.43208 1.00843 0.54086 0.0
C667 C 0.45989 1.00918 0.57207 0.0
C668 C 0.48003 1.01901 0.58055 0.0
C669 C 0.42209 0.98998 0.55791 0.0
C670 C 0.43113 0.98102 0.58292 0.0
C671 C 0.44993 0.99082 0.58989 0.0
C672 C 0.42154 0.96134 0.59874 0.0
C673 C 0.40205 0.98012 0.54589 0.0
C674 C 0.40761 0.95369 0.64945 0.0
C675 C 0.39853 0.93509 0.66258 0.0
C676 C 0.40337 0.9238 0.62599 0.0
C677 C 0.41761 0.93159 0.57655 0.0
C678 C 0.42655 0.95011 0.56309 0.0
H679 H 0.39794 0.98764 0.50935 0.0
H680 H 0.39735 0.96654 0.52307 0.0
H681 H 0.39514 0.9785 0.59781 0.0
H682 H 0.40377 0.96209 0.67907 0.0
H683 H 0.38773 0.92959 0.70139 0.0
H684 H 0.15716 0.04194 0.91554 0.0
H685 H 0.14263 0.06017 0.91093 0.0
H686 H 0.18385 0.09984 0.04738 0.0
H687 H 0.19872 0.08186 0.05118 0.0
H688 H 0.12861 0.07135 0.01713 0.0
H689 H 0.18431 0.13057 0.88191 0.0
H690 H 0.18357 0.10922 0.88841 0.0
H691 H 0.19081 0.12436 0.96347 0.0
C692 C 0.1632 0.05456 0.94454 0.0
C693 C 0.17921 0.06047 0.98337 0.0
C694 C 0.15484 0.06497 0.94187 0.0
C695 C 0.16229 0.08155 0.97775 0.0
C696 C 0.17807 0.08732 0.0178 0.0
H697 H 0.12884 0.16189 0.02005 0.0
H698 H 0.14333 0.14368 0.03395 0.0
C699 C 0.1865 0.07695 0.02029 0.0
C700 C 0.15339 0.09261 0.9737 0.0
H701 H 0.15991 0.13375 0.92264 0.0
C702 C 0.13545 0.08497 -0.00371 0.0
C703 C 0.1623 0.11041 0.94646 0.0
C704 C 0.18125 0.1191 0.91803 0.0
C705 C 0.12626 0.09468 -0.00694 0.0
C706 C 0.13517 0.11244 0.96579 0.0
C707 C 0.15313 0.12015 0.94371 0.0
C708 C 0.126 0.12316 0.95867 0.0
C709 C 0.10717 0.08595 0.01979 0.0
C710 C 0.11151 0.11774 0.91139 0.0
C711 C 0.1032 0.12812 0.90328 0.0
C712 C 0.1092 0.14414 0.9424 0.0
C713 C 0.12371 0.1495 -0.01014 0.0
C714 C 0.13208 0.13918 -0.00244 0.0
H715 H 0.10371 0.07409 0.05418 0.0
H716 H 0.10489 0.09571 0.05063 0.0
H717 H 0.09788 0.08133 0.97339 0.0
H718 H 0.10674 0.10556 0.88009 0.0
H719 H 0.092 0.12354 0.86661 0.0
H720 H 0.9428 0.98975 0.86604 0.0
H721 H 0.96066 0.02249 0.87937 0.0
H722 H 0.92176 0.02111 0.02879 0.0
H723 H 0.90394 0.98838 0.01625 0.0
H724 H 0.95172 0.04793 0.84917 0.0
H725 H 0.96788 0.05109 0.13776 0.0
H726 H 0.95857 0.03044 0.08712 0.0
H727 H 0.94424 0.03863 0.11932 0.0
C728 C 0.93806 0.99642 0.90182 0.0
C729 C 0.92197 0.98641 0.94035 0.0
C730 C 0.94831 1.01514 0.90957 0.0
C731 C 0.94274 0.02429 0.95601 0.0
C732 C 0.92663 1.01435 -0.00584 0.0
H733 H 0.98402 0.13831 0.04658 0.0
H734 H 0.96589 0.10541 0.03994 0.0
C735 C 0.91642 0.99562 0.9868 0.0
C736 C 0.95345 0.04427 0.96222 0.0
H737 H 0.97531 0.07881 0.08138 0.0
C738 C 0.95694 0.05466 0.89992 0.0
C739 C 0.96024 0.0531 0.02851 0.0
C740 C 0.95771 0.04275 0.0969 0.0
C741 C 0.96683 0.07357 0.90214 0.0
C742 C 0.97362 0.08237 0.96832 0.0
C743 C 0.97005 0.07203 0.03073 0.0
C744 C 0.98476 0.1023 0.97345 0.0
C745 C 0.96969 0.084 0.83372 0.0
C746 C 1.00152 0.11146 0.93928 0.0
C747 C 1.01193 0.13023 0.94307 0.0
C748 C 1.00582 0.14028 0.9813 0.0
C749 C 0.98913 0.13103 0.01646 0.0
C750 C 0.97874 0.11222 0.01281 0.0
H751 H 0.96003 0.07561 0.79147 0.0
H752 H 0.96834 0.09605 0.84303 0.0
H753 H 0.98346 0.08862 0.81354 0.0
H754 H 1.00658 0.10406 0.90966 0.0
H755 H 1.02473 0.13684 0.91556 0.0
H756 H 0.93018 0.91062 0.92461 0.0
H757 H 0.96287 0.92524 0.91829 0.0
H758 H 0.96119 0.87996 0.02579 0.0
H759 H 0.9284 0.86526 0.03328 0.0
H760 H 0.98799 0.91312 0.07843 0.0
H761 H 0.99096 0.91104 0.78242 0.0
H762 H 0.97888 0.92163 0.8153 0.0
H763 H 0.97036 0.89808 0.83184 0.0
C764 C 0.9367 0.90372 0.94699 0.0
C765 C 0.92657 0.88667 0.9791 0.0
C766 C 0.95544 0.91209 0.94296 0.0
C767 C 0.96449 0.90358 0.97043 0.0
C768 C 0.95449 0.88674 0.00386 0.0
H769 H 0.07444 0.93143 0.87593 0.0
H770 H 0.04185 0.91674 0.88937 0.0
C771 C 0.93572 0.87834 0.008 0.0
C772 C 0.98438 0.91226 0.96429 0.0
H773 H 1.01872 0.92828 0.84298 0.0
C774 C 0.99471 0.9164 0.02697 0.0
C775 C 0.99316 0.91634 0.8971 0.0
C776 C 0.98279 0.91141 0.82777 0.0
C777 C 1.01357 0.92478 0.02428 0.0
C778 C 1.02236 0.92936 0.95713 0.0
C779 C 1.012 0.92495 0.89447 0.0
C780 C 0.04227 0.93837 0.95039 0.0
C781 C 1.02389 0.92837 0.09332 0.0
C782 C 0.05341 0.95553 0.97967 0.0
C783 C 0.07211 0.96406 0.97168 0.0
C784 C 0.08008 0.95565 0.93378 0.0
C785 C 0.06882 0.93846 0.90448 0.0
C786 C 0.05016 0.92997 0.91248 0.0
H787 H 1.01512 0.92008 0.13797 0.0
H788 H 0.03512 0.92557 0.08744 0.0
H789 H 0.02966 0.94275 0.10801 0.0
H790 H 0.04763 0.96247 0.00784 0.0
H791 H 0.08029 0.97739 -0.00596 0.0
H792 H 0.80171 0.4994 0.30698 0.0
H793 H 0.81579 0.48083 0.32025 0.0
H794 H 0.76648 0.43397 0.255 0.0
H795 H 0.75237 0.45252 0.24012 0.0
H796 H 0.80517 0.44965 0.40743 0.0
H797 H 0.80469 0.43478 0.11788 0.0
H798 H 0.80134 0.45271 0.15043 0.0
H799 H 0.78336 0.42977 0.1547 0.0
C800 C 0.79388 0.48516 0.29491 0.0
C801 C 0.77594 0.47749 0.27184 0.0
C802 C 0.80192 0.47455 0.303 0.0
C803 C 0.79228 0.45607 0.28768 0.0
C804 C 0.77426 0.44827 0.26608 0.0
H805 H 0.82063 0.37198 0.27553 0.0
H806 H 0.80545 0.38959 0.27124 0.0
C807 C 0.76617 0.45886 0.25826 0.0
C808 C 0.80113 0.44502 0.29411 0.0
H809 H 0.81447 0.41999 0.19709 0.0
C810 C 0.80724 0.44317 0.36149 0.0
C811 C 0.80381 0.43658 0.23411 0.0
C812 C 0.79811 0.43863 0.16 0.0
C813 C 0.81567 0.43286 0.37071 0.0
C814 C 0.81847 0.4245 0.31057 0.0
C815 C 0.81233 0.42636 0.24321 0.0
C816 C 0.82766 0.41372 0.31605 0.0
C817 C 0.82111 0.43067 0.44509 0.0
C818 C 0.8453 0.4214 0.34237 0.0
C819 C 0.85402 0.4113 0.34536 0.0
C820 C 0.84537 0.39336 0.32122 0.0
C821 C 0.82774 0.38574 0.29464 0.0
C822 C 0.81901 0.39581 0.29207 0.0
H823 H 0.81352 0.43336 0.4867 0.0
H824 H 0.81893 0.41689 0.45328 0.0
H825 H 0.8356 0.44043 0.45289 0.0
H826 H 0.85245 0.43532 0.35953 0.0
H827 H 0.86764 0.41767 0.36553 0.0
H828 H 0.64859 0.47105 0.36561 0.0
H829 H 0.6303 0.43819 0.36069 0.0
H830 H 0.67309 0.43568 0.25086 0.0
H831 H 0.69155 0.46846 0.25609 0.0
H832 H 0.61887 0.41621 0.23918 0.0
H833 H 0.66062 0.39919 0.41273 0.0
H834 H 0.66331 0.42145 0.40988 0.0
H835 H 0.67267 0.41417 0.34033 0.0
C836 C 0.65419 0.46353 0.34086 0.0
C837 C 0.67161 0.47246 0.31149 0.0
C838 C 0.64369 0.44473 0.33802 0.0
C839 C 0.6504 0.43443 0.30631 0.0
C840 C 0.66775 0.44329 0.27691 0.0
H841 H 0.6075 0.32056 0.2177 0.0
H842 H 0.62611 0.35327 0.23003 0.0
C843 C 0.67826 0.46209 0.2796 0.0
C844 C 0.63899 0.41449 0.30156 0.0
H845 H 0.63687 0.375 0.34938 0.0
C846 C 0.62274 0.40719 0.26364 0.0
C847 C 0.64409 0.40272 0.33321 0.0
C848 C 0.66104 0.40973 0.37689 0.0
C849 C 0.61165 0.38848 0.25525 0.0
C850 C 0.61673 0.37669 0.28696 0.0
C851 C 0.63297 0.38401 0.32503 0.0
C852 C 0.60544 0.35675 0.28092 0.0
C853 C 0.59482 0.38156 0.21077 0.0
C854 C 0.5877 0.34772 0.3066 0.0
C855 C 0.57703 0.32902 0.29959 0.0
C856 C 0.5839 0.31887 0.26741 0.0
C857 C 0.6018 0.32791 0.24322 0.0
C858 C 0.61245 0.34664 0.24998 0.0
H859 H 0.59544 0.39212 0.17451 0.0
H860 H 0.59254 0.36979 0.17807 0.0
H861 H 0.58311 0.37726 0.24676 0.0
H862 H 0.58212 0.35514 0.33243 0.0
H863 H 0.56342 0.32248 0.32011 0.0
H864 H 0.59452 0.20072 0.3793 0.0
H865 H 0.6274 0.21563 0.38127 0.0
H866 H 0.6305 0.25634 0.23719 0.0
H867 H 0.59783 0.24181 0.23582 0.0
H868 H 0.65095 0.22233 0.27054 0.0
H869 H 0.66487 0.28679 0.39352 0.0
H870 H 0.64277 0.26707 0.39357 0.0
H871 H 0.65093 0.28121 0.31556 0.0
C872 C 0.6022 0.21292 0.34841 0.0
C873 C 0.59347 0.22008 0.30765 0.0
C874 C 0.621 0.22142 0.34956 0.0
C875 C 0.63147 0.2373 0.31038 0.0
C876 C 0.62278 0.24437 0.26929 0.0
H877 H 0.7433 0.3055 0.19807 0.0
H878 H 0.71057 0.29033 0.21084 0.0
C879 C 0.60403 0.23593 0.26821 0.0
C880 C 0.65143 0.24615 0.31006 0.0
H881 H 0.68981 0.28637 0.33899 0.0
C882 C 0.65945 0.23627 0.28626 0.0
C883 C 0.66255 0.26436 0.33057 0.0
C884 C 0.65486 0.27543 0.36042 0.0
C885 C 0.67821 0.24426 0.28024 0.0
C886 C 0.68928 0.26256 0.29927 0.0
C887 C 0.6813 0.27237 0.32406 0.0
C888 C 0.70917 0.27184 0.29265 0.0
C889 C 0.68605 0.23321 0.25154 0.0
C890 C 0.71927 0.26665 0.33511 0.0
C891 C 0.73798 0.2753 0.32798 0.0
C892 C 0.74698 0.28931 0.27811 0.0
C893 C 0.7368 0.29461 0.2363 0.0
C894 C 0.7181 0.28603 0.24381 0.0
H895 H 0.6757 0.2206 0.22563 0.0
H896 H 0.69684 0.24109 0.21212 0.0
H897 H 0.69206 0.22951 0.29627 0.0
H898 H 0.71268 0.25589 0.37379 0.0
H899 H 0.74537 0.27079 0.36063 0.0
H900 H 0.53342 0.74935 0.71482 0.0
H901 H 0.51851 0.76734 0.71227 0.0
H902 H 0.47622 0.72694 0.58173 0.0
H903 H 0.49078 0.70876 0.58497 0.0
H904 H 0.5104 0.78199 0.59796 0.0
H905 H 0.44773 0.73393 0.73831 0.0
H906 H 0.46741 0.73151 0.73762 0.0
H907 H 0.45241 0.72419 0.66219 0.0
C908 C 0.52088 0.74422 0.68595 0.0
C909 C 0.51327 0.72752 0.65049 0.0
C910 C 0.51238 0.75454 0.6845 0.0
C911 C 0.49606 0.74837 0.64789 0.0
C912 C 0.48855 0.7318 0.61187 0.0
H913 H 0.42686 0.7914 0.53729 0.0
H914 H 0.44188 0.77364 0.54973 0.0
C915 C 0.49699 0.72146 0.61343 0.0
C916 C 0.48719 0.75948 0.64517 0.0
H917 H 0.44764 0.75856 0.67935 0.0
C918 C 0.49674 0.77692 0.61636 0.0
C919 C 0.46934 0.75288 0.66917 0.0
C920 C 0.45867 0.73467 0.70421 0.0
C921 C 0.48878 0.78773 0.60917 0.0
C922 C 0.47086 0.78101 0.6321 0.0
C923 C 0.46135 0.76365 0.66149 0.0
C924 C 0.4617 0.79175 0.62548 0.0
C925 C 0.49945 0.80609 0.57537 0.0
C926 C 0.4677 0.80771 0.66468 0.0
C927 C 0.45913 0.81788 0.65776 0.0
C928 C 0.44439 0.81231 0.61136 0.0
C929 C 0.4383 0.79619 0.57278 0.0
C930 C 0.4468 0.78598 0.58011 0.0
H931 H 0.51152 0.80772 0.5469 0.0
H932 H 0.49104 0.80853 0.53697 0.0
H933 H 0.50398 0.81654 0.61768 0.0
H934 H 0.47902 0.8123 0.7007 0.0
H935 H 0.46426 0.83028 0.68784 0.0
H936 H 0.25827 0.6534 0.71879 0.0
H937 H 0.27586 0.68612 0.73216 0.0
H938 H 0.27363 0.6924 0.50429 0.0
H939 H 0.25542 0.65977 0.49068 0.0
H940 H 0.30855 0.71059 0.67747 0.0
H941 H 0.25652 0.72557 0.58028 0.0
H942 H 0.25155 0.70308 0.60279 0.0
H943 H 0.26147 0.71277 0.51775 0.0
C944 C 0.26131 0.66172 0.67153 0.0
C945 C 0.25527 0.65386 0.60367 0.0
C946 C 0.27149 0.68045 0.67925 0.0
C947 C 0.27582 0.69177 0.61942 0.0
C948 C 0.27015 0.68399 0.55148 0.0
H949 H 0.3592 0.80405 0.58814 0.0
H950 H 0.34103 0.77128 0.58254 0.0
C951 C 0.25992 0.66527 0.54369 0.0
C952 C 0.28651 0.71169 0.62799 0.0
H953 H 0.28602 0.75063 0.59441 0.0
C954 C 0.30359 0.71934 0.65958 0.0
C955 C 0.27994 0.72312 0.60575 0.0
C956 C 0.2613 0.71573 0.57541 0.0
C957 C 0.31443 0.73808 0.668 0.0
C958 C 0.30816 0.74954 0.64296 0.0
C959 C 0.29092 0.74188 0.61291 0.0
C960 C 0.31931 0.76952 0.64711 0.0
C961 C 0.33238 0.74539 0.70462 0.0
C962 C 0.31299 0.77957 0.68378 0.0
C963 C 0.32331 0.79839 0.68665 0.0
C964 C 0.34015 0.80758 0.65256 0.0
C965 C 0.34637 0.79746 0.61551 0.0
C966 C 0.33603 0.77867 0.61258 0.0
H967 H 0.3329 0.73501 0.73844 0.0
H968 H 0.34307 0.74976 0.66352 0.0
H969 H 0.33537 0.75718 0.73863 0.0
H970 H 0.30008 0.77282 0.71049 0.0
H971 H 0.31805 0.80571 0.71549 0.0
H972 H 0.41052 0.60282 0.67522 0.0
H973 H 0.37778 0.588 0.6849 0.0
H974 H 0.37764 0.62766 0.54358 0.0
H975 H 0.41036 0.64245 0.53318 0.0
H976 H 0.35572 0.60004 0.73343 0.0
H977 H 0.34146 0.58134 0.44731 0.0
H978 H 0.36339 0.58935 0.48607 0.0
H979 H 0.35617 0.60501 0.46106 0.0
C980 C 0.40353 0.60846 0.64651 0.0
C981 C 0.41308 0.62378 0.60304 0.0
C982 C 0.3848 0.59992 0.65188 0.0
C983 C 0.37516 0.60648 0.61388 0.0
C984 C 0.38469 0.62203 0.57184 0.0
H985 H 0.26292 0.57646 0.57886 0.0
H986 H 0.29567 0.59125 0.57422 0.0
C987 C 0.40342 0.63051 0.56608 0.0
C988 C 0.3552 0.59717 0.61891 0.0
H989 H 0.31678 0.57716 0.51877 0.0
C990 C 0.34721 0.59495 0.68653 0.0
C991 C 0.34405 0.59046 0.55774 0.0
C992 C 0.35167 0.59148 0.48403 0.0
C993 C 0.32845 0.58659 0.69444 0.0
C994 C 0.31735 0.58008 0.63319 0.0
C995 C 0.32531 0.58222 0.56565 0.0
C996 C 0.29743 0.57112 0.63779 0.0
C997 C 0.32068 0.58517 0.76811 0.0
C998 C 0.28746 0.55478 0.67465 0.0
C999 C 0.26868 0.54623 0.67737 0.0
C1000 C 0.25946 0.55384 0.64309 0.0
C1001 C 0.26952 0.57021 0.60611 0.0
C1002 C 0.28828 0.5787 0.60327 0.0
H1003 H 0.33099 0.59446 0.80668 0.0
H1004 H 0.30954 0.5882 0.7666 0.0
H1005 H 0.31519 0.57122 0.7882 0.0
H1006 H 0.29421 0.54851 0.70062 0.0
H1007 H 0.2614 0.53362 0.70606 0.0
H1008 H 0.05647 0.21155 0.78577 0.0
H1009 H 0.06036 0.21177 0.656 0.0
H1010 H 1.003 0.1788 0.62966 0.0
H1011 H 0.999 0.17871 0.75953 0.0
H1012 H 0.04993 0.18281 0.56099 0.0
H1013 H 1.01623 0.2221 0.49826 0.0
H1014 H 1.02336 0.22057 0.58751 0.0
H1015 H 1.0031 0.20225 0.55114 0.0
C1016 C 0.04469 0.20436 0.75227 0.0
C1017 C 1.02741 0.19526 0.78241 0.0
C1018 C 0.04694 0.20448 0.67828 0.0
C1019 C 0.03195 0.19557 0.63331 0.0
C1020 C 1.01471 0.18607 0.66345 0.0
H1021 H 1.01923 0.18244 0.17336 0.0
H1022 H 1.01471 0.1813 0.30302 0.0
C1023 C 1.01245 0.18595 0.73751 0.0
C1024 C 0.03442 0.19619 0.55486 0.0
H1025 H 1.0246 0.21048 0.39984 0.0
C1026 C 0.04444 0.18889 0.52569 0.0
C1027 C 1.02724 0.20416 0.50916 0.0
C1028 C 1.01701 0.21287 0.53794 0.0
C1029 C 0.04727 0.18913 0.45171 0.0
C1030 C 0.04012 0.19712 0.40606 0.0
C1031 C 0.03005 0.20436 0.43516 0.0
C1032 C 0.04293 0.1981 0.32781 0.0
C1033 C 0.05761 0.18054 0.42283 0.0
C1034 C 0.06026 0.20819 0.29901 0.0
C1035 C 0.06287 0.20891 0.22505 0.0
C1036 C 0.04817 0.1996 0.17891 0.0
C1037 C 0.0308 0.18975 0.2078 0.0
C1038 C 1.0282 0.18907 0.28171 0.0
H1039 H 0.05847 0.17134 0.46245 0.0
H1040 H 0.05129 0.17284 0.37321 0.0
H1041 H 0.07149 0.19123 0.40959 0.0
H1042 H 0.07176 0.21551 0.33377 0.0
H1043 H 0.07639 0.21668 0.20405 0.0
H1044 H 0.85523 0.86618 0.78552 0.0
H1045 H 0.85496 0.87005 0.65595 0.0
H1046 H 0.88768 0.84539 0.62758 0.0
H1047 H 0.88813 0.8416 0.75751 0.0
H1048 H 0.8988 0.87757 0.54661 0.0
H1049 H 0.82607 0.82846 0.51405 0.0
H1050 H 0.83125 0.84562 0.58 0.0
H1051 H 0.83842 0.82943 0.5936 0.0
C1052 C 0.86238 0.8616 0.75165 0.0
C1053 C 0.87157 0.85344 0.78125 0.0
C1054 C 0.86214 0.86374 0.67775 0.0
C1055 C 0.87102 0.8577 0.63234 0.0
C1056 C 0.88063 0.85 0.66189 0.0
H1057 H 0.88506 0.85839 0.17175 0.0
H1058 H 0.88607 0.85471 0.30116 0.0
C1059 C 0.88087 0.84784 0.7359 0.0
C1060 C 0.87029 0.85945 0.55396 0.0
H1061 H 0.84142 0.84585 0.41229 0.0
C1062 C 0.88629 0.87059 0.51705 0.0
C1063 C 0.85392 0.85031 0.51588 0.0
C1064 C 0.83644 0.83765 0.55265 0.0
C1065 C 0.88631 0.87314 0.44293 0.0
C1066 C 0.86993 0.86402 0.40483 0.0
C1067 C 0.85394 0.85283 0.44177 0.0
C1068 C 0.86907 0.86591 0.32652 0.0
C1069 C 0.90378 0.88591 0.40635 0.0
C1070 C 0.85872 0.8729 0.29792 0.0
C1071 C 0.85796 0.87482 0.22401 0.0
C1072 C 0.86749 0.86972 0.1777 0.0
C1073 C 0.87761 0.86246 0.20635 0.0
C1074 C 0.87832 0.86049 0.28019 0.0
H1075 H 0.91403 0.89524 0.44502 0.0
H1076 H 0.90918 0.87803 0.37975 0.0
H1077 H 0.90174 0.89399 0.3649 0.0
H1078 H 0.85139 0.87704 0.33287 0.0
H1079 H 0.85002 0.88041 0.20319 0.0
H1080 H 0.20019 1.00997 0.78527 0.0
H1081 H 0.1966 1.00599 0.65549 0.0
H1082 H 0.22098 0.06345 0.62844 0.0
H1083 H 0.22479 0.06755 0.75829 0.0
H1084 H 0.17813 1.01645 0.56009 0.0
H1085 H 0.25104 0.05008 0.49766 0.0
H1086 H 0.24234 0.04293 0.58689 0.0
H1087 H 0.24438 0.06326 0.55046 0.0
C1088 C 0.20478 0.02175 0.75161 0.0
C1089 C 0.21292 0.03908 0.78154 0.0
C1090 C 0.20271 1.01945 0.67762 0.0
C1091 C 0.20881 0.03445 0.63246 0.0
C1092 C 0.21653 0.05174 0.66239 0.0
H1093 H 0.20868 0.0473 0.17266 0.0
H1094 H 0.21209 0.05177 0.30233 0.0
C1095 C 0.2186 0.05406 0.73644 0.0
C1096 C 0.20699 0.03192 0.55404 0.0
H1097 H 0.23113 0.04173 0.39913 0.0
C1098 C 0.1897 0.02192 0.52483 0.0
C1099 C 0.22214 0.03909 0.50841 0.0
C1100 C 0.24104 0.04931 0.53728 0.0
C1101 C 0.18714 1.0191 0.45084 0.0
C1102 C 0.20228 0.02624 0.40525 0.0
C1103 C 0.21956 0.03629 0.43441 0.0
C1104 C 0.20047 0.02346 0.32698 0.0
C1105 C 0.16824 1.0088 0.42191 0.0
C1106 C 0.19311 1.00609 0.29809 0.0
C1107 C 0.19119 1.0035 0.22413 0.0
C1108 C 0.19666 1.01827 0.17808 0.0
C1109 C 0.20433 0.03568 0.20704 0.0
C1110 C 0.20628 0.03826 0.28096 0.0
H1111 H 0.15821 1.00799 0.46147 0.0
H1112 H 0.16693 1.01515 0.37225 0.0
H1113 H 0.16498 0.99487 0.40874 0.0
H1114 H 0.18886 0.99454 0.33277 0.0
H1115 H 0.18533 0.98996 0.20306 0.0
H1116 H 0.68492 0.51467 0.50168 0.0
H1117 H 0.68023 0.51385 0.63107 0.0
H1118 H 0.7372 0.54846 0.66259 0.0
H1119 H 0.74199 0.54929 0.533 0.0
H1120 H 0.72097 0.51715 0.75075 0.0
H1121 H 0.68375 0.55464 0.75949 0.0
H1122 H 0.67499 0.53609 0.69784 0.0
H1123 H 0.69688 0.55526 0.68301 0.0
C1124 C 0.69642 0.52223 0.53618 0.0
C1125 C 0.71381 0.53211 0.50753 0.0
C1126 C 0.69371 0.52179 0.60996 0.0
C1127 C 0.70835 0.53127 0.65614 0.0
C1128 C 0.72574 0.54113 0.62764 0.0
H1129 H 0.72251 0.54386 0.115 0.0
H1130 H 0.72658 0.5439 0.98549 0.0
C1131 C 0.72845 0.54161 0.5538 0.0
C1132 C 0.70558 0.53039 0.7344 0.0
H1133 H 0.68527 0.54099 0.86744 0.0
C1134 C 0.71323 0.52241 0.77642 0.0
C1135 C 0.6954 0.5372 0.76738 0.0
C1136 C 0.68739 0.54642 0.72484 0.0
C1137 C 0.71077 0.52085 0.85079 0.0
C1138 C 0.70067 0.52775 0.88388 0.0
C1139 C 0.69297 0.53567 0.84177 0.0
C1140 C 0.69823 0.52724 0.96233 0.0
C1141 C 0.71871 0.51152 0.89311 0.0
C1142 C 0.68093 0.51809 -0.00796 0.0
C1143 C 0.67856 0.51814 0.06598 0.0
C1144 C 0.69347 0.52746 0.11114 0.0
C1145 C 0.71079 0.53652 0.08135 0.0
C1146 C 0.71314 0.53647 0.00749 0.0
H1147 H 0.72173 0.50283 0.85853 0.0
H1148 H 0.73147 0.5218 0.91801 0.0
H1149 H 0.70947 0.50314 0.93644 0.0
H1150 H 0.66926 0.51095 0.95795 0.0
H1151 H 0.66508 0.51106 0.08769 0.0
H1152 H 0.56213 0.23201 0.51719 0.0
H1153 H 0.56372 0.22754 0.6453 0.0
H1154 H 0.52484 0.17108 0.62133 0.0
H1155 H 0.52248 0.17574 0.49349 0.0
H1156 H 0.51656 0.18451 0.73052 0.0
H1157 H 0.58865 0.20602 0.75145 0.0
H1158 H 0.58553 0.22329 0.71187 0.0
H1159 H 0.57736 0.20207 0.66647 0.0
C1160 C 0.55401 0.21862 0.53922 0.0
C1161 C 0.5423 0.20417 0.49551 0.0
C1162 C 0.55507 0.21604 0.6123 0.0
C1163 C 0.54475 0.19889 0.64268 0.0
C1164 C 0.53308 0.1844 0.59889 0.0
H1165 H 0.55955 0.17568 0.08349 0.0
H1166 H 0.55985 0.17795 0.95293 0.0
C1167 C 0.5318 0.18705 0.52589 0.0
C1168 C 0.54526 0.19636 0.72084 0.0
H1169 H 0.57373 0.20508 0.86156 0.0
C1170 C 0.52905 0.18882 0.75906 0.0
C1171 C 0.56151 0.2017 0.75797 0.0
C1172 C 0.5792 0.20853 0.71964 0.0
C1173 C 0.52868 0.18696 0.83358 0.0
C1174 C 0.54506 0.19343 0.87117 0.0
C1175 C 0.56122 0.20045 0.83281 0.0
C1176 C 0.54567 0.19288 0.95024 0.0
C1177 C 0.5107 0.17783 0.87093 0.0
C1178 C 0.53808 0.20099 -0.00795 0.0
C1179 C 0.53764 0.19945 0.06641 0.0
C1180 C 0.54518 0.19016 0.10018 0.0
C1181 C 0.5536 0.18287 0.05863 0.0
C1182 C 0.55377 0.18415 0.98415 0.0
H1183 H 0.49974 0.16877 0.83406 0.0
H1184 H 0.51073 0.16983 0.91752 0.0
H1185 H 0.50758 0.18821 0.89021 0.0
H1186 H 0.53227 0.20829 0.96713 0.0
H1187 H 0.53118 0.2053 0.09737 0.0
H1188 H 0.87548 0.38095 0.50978 0.0
H1189 H 0.87915 0.38564 0.6392 0.0
H1190 H 0.85683 0.32856 0.6709 0.0
H1191 H 0.85304 0.32375 0.54128 0.0
H1192 H 0.84162 0.34475 0.75849 0.0
H1193 H 0.91622 0.3822 0.7685 0.0
H1194 H 0.90652 0.39096 0.7065 0.0
H1195 H 0.90382 0.36903 0.69189 0.0
C1196 C 0.87149 0.36942 0.54433 0.0
C1197 C 0.86403 0.35199 0.51574 0.0
C1198 C 0.87366 0.37213 0.61812 0.0
C1199 C 0.86845 0.35746 0.66435 0.0
C1200 C 0.86099 0.34004 0.6359 0.0
H1201 H 0.8666 0.34344 0.1233 0.0
H1202 H 0.86258 0.33929 -0.00617 0.0
C1203 C 0.85886 0.33732 0.56205 0.0
C1204 C 0.87023 0.36024 0.7426 0.0
H1205 H 0.90092 0.3807 0.87604 0.0
C1206 C 0.85457 0.35254 0.78436 0.0
C1207 C 0.88716 0.37049 0.77583 0.0
C1208 C 0.90442 0.37854 0.7336 0.0
C1209 C 0.85537 0.35502 0.8587 0.0
C1210 C 0.87231 0.3652 0.89201 0.0
C1211 C 0.88796 0.37294 0.85018 0.0
C1212 C 0.87414 0.36767 0.97043 0.0
C1213 C 0.83809 0.34702 0.90077 0.0
C1214 C 0.8822 0.38503 -3e-05 0.0
C1215 C 0.88461 0.38744 0.07388 0.0
C1216 C 0.8791 0.37253 0.11915 0.0
C1217 C 0.87093 0.35516 0.08954 0.0
C1218 C 0.86853 0.35276 0.01571 0.0
H1219 H 0.82641 0.3439 0.86596 0.0
H1220 H 0.83563 0.33428 0.926 0.0
H1221 H 0.83886 0.3563 0.94384 0.0
H1222 H 0.88669 0.3967 0.96577 0.0
H1223 H 0.89096 0.40097 0.09546 0.0
H1224 H 0.39086 0.87944 0.4584 0.0
H1225 H 0.39473 0.87953 0.32863 0.0
H1226 H 0.33743 0.84595 0.30278 0.0
H1227 H 0.33345 0.846 0.43261 0.0
H1228 H 0.3847 0.85055 0.23452 0.0
H1229 H 0.34997 0.88872 0.16971 0.0
H1230 H 0.35716 0.88748 0.25918 0.0
H1231 H 0.33705 0.86891 0.22302 0.0
C1232 C 0.3791 0.87209 0.425 0.0
C1233 C 0.36184 0.86285 0.45528 0.0
C1234 C 0.38133 0.87214 0.351 0.0
C1235 C 0.36634 0.86301 0.30614 0.0
C1236 C 0.34913 0.8534 0.33643 0.0
H1237 H 0.35361 0.84897 0.84622 0.0
H1238 H 0.34909 0.84789 0.97588 0.0
C1239 C 0.34688 0.85335 0.4105 0.0
C1240 C 0.3688 0.8635 0.22766 0.0
H1241 H 0.35853 0.8771 0.07187 0.0
C1242 C 0.37903 0.8564 0.1989 0.0
C1243 C 0.36137 0.87115 0.1815 0.0
C1244 C 0.3509 0.87965 0.20975 0.0
C1245 C 0.38184 0.85651 0.12493 0.0
C1246 C 0.37445 0.86419 0.07884 0.0
C1247 C 0.36416 0.87123 0.10752 0.0
C1248 C 0.37726 0.86506 0.00056 0.0
C1249 C 0.39242 0.84814 0.09656 0.0
C1250 C 0.39456 0.87532 0.97166 0.0
C1251 C 0.39717 0.87602 0.89769 0.0
C1252 C 0.38249 0.86652 0.8516 0.0
C1253 C 0.36515 0.85645 0.88059 0.0
C1254 C 0.36255 0.8558 0.95452 0.0
H1255 H 0.39345 0.83911 0.13654 0.0
H1256 H 0.38618 0.84031 0.04712 0.0
H1257 H 0.40623 0.85895 0.08318 0.0
H1258 H 0.40604 0.88283 0.00634 0.0
H1259 H 0.41065 0.88395 0.87662 0.0
H1260 H 0.18274 0.54721 0.86693 0.0
H1261 H 0.18415 0.54384 -0.00341 0.0
H1262 H 0.21907 0.52181 0.96461 0.0
H1263 H 0.21802 0.52549 0.83525 0.0
H1264 H 0.17436 0.51271 0.076 0.0
H1265 H 0.24692 0.56236 0.10834 0.0
H1266 H 0.23458 0.56103 0.02826 0.0
H1267 H 0.24213 0.54516 0.04313 0.0
C1268 C 0.19073 0.54168 0.88769 0.0
C1269 C 0.20032 0.53666 0.84132 0.0
C1270 C 0.19152 0.53976 0.96158 0.0
C1271 C 0.20195 0.53286 -0.0099 0.0
C1272 C 0.21126 0.52752 0.94371 0.0
H1273 H 0.22127 0.50881 0.42119 0.0
H1274 H 0.22077 0.51252 0.29123 0.0
C1275 C 0.21052 0.52949 0.86989 0.0
C1276 C 0.20285 0.53099 0.06839 0.0
H1277 H 0.23177 0.54468 0.21001 0.0
C1278 C 0.18689 0.51975 0.10542 0.0
C1279 C 0.21924 0.54018 0.10639 0.0
C1280 C 0.23668 0.55299 0.06972 0.0
C1281 C 0.18691 0.51726 0.17952 0.0
C1282 C 0.20329 0.52646 0.2175 0.0
C1283 C 0.21926 0.53765 0.18051 0.0
C1284 C 0.20406 0.52477 0.29588 0.0
C1285 C 0.16946 0.50455 0.2164 0.0
C1286 C 0.19516 0.5308 0.34122 0.0
C1287 C 0.19542 0.52871 0.41513 0.0
C1288 C 0.20465 0.5206 0.4448 0.0
C1289 C 0.21398 0.51501 0.39952 0.0
C1290 C 0.21371 0.51713 0.3255 0.0
H1291 H 0.15909 0.49532 0.17788 0.0
H1292 H 0.17151 0.49638 0.25737 0.0
H1293 H 0.16423 0.51248 0.24375 0.0
H1294 H 0.18794 0.53706 0.31936 0.0
H1295 H 0.18826 0.53328 0.44895 0.0
H1296 H 0.53322 0.67639 0.45229 0.0
H1297 H 0.52958 0.67247 0.32253 0.0
H1298 H 0.55438 0.72998 0.29586 0.0
H1299 H 0.55826 0.73401 0.42572 0.0
H1300 H 0.51132 0.68312 0.2272 0.0
H1301 H 0.58422 0.71636 0.16507 0.0
H1302 H 0.57548 0.70927 0.25428 0.0
H1303 H 0.57767 0.72965 0.21777 0.0
C1304 C 0.53789 0.68819 0.41872 0.0
C1305 C 0.54618 0.70552 0.44875 0.0
C1306 C 0.53579 0.68593 0.34474 0.0
C1307 C 0.542 0.70095 0.29969 0.0
C1308 C 0.54985 0.71825 0.32972 0.0
H1309 H 0.542 0.71382 0.83993 0.0
H1310 H 0.54537 0.71829 0.96959 0.0
C1311 C 0.55196 0.72052 0.40378 0.0
C1312 C 0.54018 0.69846 0.22127 0.0
H1313 H 0.56435 0.70811 0.06648 0.0
C1314 C 0.52289 0.68853 0.19199 0.0
C1315 C 0.55534 0.70554 0.17571 0.0
C1316 C 0.57425 0.71567 0.20464 0.0
C1317 C 0.52034 0.6857 0.11801 0.0
C1318 C 0.5355 0.69276 0.0725 0.0
C1319 C 0.55278 0.70274 0.10171 0.0
C1320 C 0.53369 0.68997 -0.00575 0.0
C1321 C 0.50145 0.67547 0.08898 0.0
C1322 C 0.52631 0.6726 0.96539 0.0
C1323 C 0.52442 0.67001 0.89142 0.0
C1324 C 0.52995 0.68478 0.84536 0.0
C1325 C 0.53763 0.7022 0.87432 0.0
C1326 C 0.53955 0.70477 0.94823 0.0
H1327 H 0.49143 0.67469 0.12851 0.0
H1328 H 0.50019 0.68186 0.03935 0.0
H1329 H 0.49814 0.66153 0.07573 0.0
H1330 H 0.52202 0.66105 9e-05 0.0
H1331 H 0.51855 0.65647 0.87036 0.0
loop_
_geom_bond_atom_site_label_1
_geom_bond_atom_site_label_2
_geom_bond_distance
_geom_bond_site_symmetry_2
_ccdc_geom_bond_type
C0 Eu1 2.835 1_556 S
C0 C2 1.500 . S
C0 O20 1.257 . S
C0 O21 1.260 1_556 S
Eu1 C0 2.835 1_554 S
Eu1 O20 2.473 1_554 S
Eu1 O21 2.480 . S
Eu1 O22 2.430 . S
Eu1 O23 2.670 . S
Eu1 O24 2.394 . S
Eu1 O29 2.355 1_554 S
Eu1 O31 2.374 1_554 S
C2 C0 1.500 . S
C2 C3 1.377 1_556 S
C2 C7 1.377 . S
C3 C2 1.377 1_554 S
C3 C4 1.395 . S
C3 H32 0.931 . S
C4 C3 1.395 . S
C4 C5 1.383 1_554 S
C4 H33 0.931 . S
C5 C4 1.383 1_556 S
C5 C6 1.394 . S
C6 C5 1.394 . S
C6 C7 1.378 . S
C6 H34 0.931 . S
C7 C2 1.377 . S
C7 C6 1.378 . S
C7 H35 0.931 . S
C8 O22 1.259 . S
C8 O23 1.270 . S
C9 O24 1.251 1_655 S
C9 O25 1.251 . S
C10 Eu11 2.835 . S
C10 C12 1.500 . S
C10 O26 1.257 . S
C10 O27 1.260 1_554 S
Eu11 C10 2.835 . S
Eu11 O23 2.355 1_655 S
Eu11 O25 2.374 . S
Eu11 O26 2.472 . S
Eu11 O27 2.480 1_554 S
Eu11 O28 2.430 1_554 S
Eu11 O29 2.670 1_654 S
Eu11 O30 2.394 1_654 S
C12 C10 1.500 . S
C12 C13 1.377 1_554 S
C12 C17 1.377 . S
C13 C12 1.377 1_556 S
C13 C14 1.395 . S
C13 H36 0.931 . S
C14 C13 1.395 . S
C14 C15 1.383 1_556 S
C14 H37 0.931 . S
C15 C14 1.383 1_554 S
C15 C16 1.394 . S
C16 C15 1.394 . S
C16 C17 1.378 . S
C16 H38 0.931 . S
C17 C12 1.377 . S
C17 C16 1.378 . S
C17 H39 0.931 . S
C18 O28 1.259 1_455 S
C18 O29 1.270 . S
C19 O30 1.251 . S
C19 O31 1.251 . S
O20 C0 1.257 . S
O20 Eu1 2.473 1_556 S
O21 C0 1.260 1_554 S
O21 Eu1 2.480 . S
O22 Eu1 2.430 . S
O22 C8 1.259 . S
O23 Eu1 2.670 . S
O23 C8 1.270 . S
O23 Eu11 2.355 1_455 S
O24 Eu1 2.394 . S
O24 C9 1.251 1_455 S
O25 C9 1.251 . S
O25 Eu11 2.374 . S
O26 C10 1.257 . S
O26 Eu11 2.472 . S
O27 C10 1.260 1_556 S
O27 Eu11 2.480 1_556 S
O28 Eu11 2.430 1_556 S
O28 C18 1.259 1_655 S
O29 Eu1 2.355 1_556 S
O29 Eu11 2.670 1_456 S
O29 C18 1.270 . S
O30 Eu11 2.394 1_456 S
O30 C19 1.251 . S
O31 Eu1 2.374 1_556 S
O31 C19 1.251 . S
H32 C3 0.931 . S
H33 C4 0.931 . S
H34 C6 0.931 . S
H35 C7 0.931 . S
H36 C13 0.931 . S
H37 C14 0.931 . S
H38 C16 0.931 . S
H39 C17 0.931 . S
C40 Eu41 2.835 1_556 S
C40 C42 1.500 . S
C40 O60 1.257 . S
C40 O61 1.260 1_556 S
Eu41 C40 2.835 1_554 S
Eu41 O60 2.473 1_554 S
Eu41 O61 2.480 . S
Eu41 O62 2.430 . S
Eu41 O63 2.670 . S
Eu41 O64 2.394 . S
Eu41 O69 2.355 1_554 S
Eu41 O71 2.374 1_554 S
C42 C40 1.500 . S
C42 C43 1.377 1_556 S
C42 C47 1.377 . S
C43 C42 1.377 1_554 S
C43 C44 1.395 . S
C43 H72 0.931 . S
C44 C43 1.395 . S
C44 C45 1.383 1_554 S
C44 H73 0.931 . S
C45 C44 1.383 1_556 S
C45 C46 1.394 . S
C46 C45 1.394 . S
C46 C47 1.378 . S
C46 H74 0.931 . S
C47 C42 1.377 . S
C47 C46 1.378 . S
C47 H75 0.931 . S
C48 O62 1.259 . S
C48 O63 1.270 . S
C49 O64 1.251 . S
C49 O65 1.251 . S
C50 Eu51 2.835 1_554 S
C50 C52 1.500 . S
C50 O66 1.257 . S
C50 O67 1.260 1_554 S
Eu51 C50 2.835 1_556 S
Eu51 O63 2.356 1_556 S
Eu51 O65 2.374 1_556 S
Eu51 O66 2.474 1_556 S
Eu51 O67 2.479 . S
Eu51 O68 2.428 . S
Eu51 O69 2.669 . S
Eu51 O70 2.394 . S
C52 C50 1.500 . S
C52 C53 1.377 1_554 S
C52 C57 1.377 . S
C53 C52 1.377 1_556 S
C53 C54 1.395 . S
C53 H76 0.931 . S
C54 C53 1.395 . S
C54 C55 1.383 1_556 S
C54 H77 0.931 . S
C55 C54 1.383 1_554 S
C55 C56 1.394 . S
C56 C55 1.394 . S
C56 C57 1.378 . S
C56 H78 0.931 . S
C57 C52 1.377 . S
C57 C56 1.378 . S
C57 H79 0.931 . S
C58 O68 1.259 . S
C58 O69 1.270 . S
C59 O70 1.251 . S
C59 O71 1.251 . S
O60 C40 1.257 . S
O60 Eu41 2.473 1_556 S
O61 C40 1.260 1_554 S
O61 Eu41 2.480 . S
O62 Eu41 2.430 . S
O62 C48 1.259 . S
O63 Eu41 2.670 . S
O63 C48 1.270 . S
O63 Eu51 2.356 1_554 S
O64 Eu41 2.394 . S
O64 C49 1.251 . S
O65 C49 1.251 . S
O65 Eu51 2.374 1_554 S
O66 C50 1.257 . S
O66 Eu51 2.474 1_554 S
O67 C50 1.260 1_556 S
O67 Eu51 2.479 . S
O68 Eu51 2.428 . S
O68 C58 1.259 . S
O69 Eu41 2.355 1_556 S
O69 Eu51 2.669 . S
O69 C58 1.270 . S
O70 Eu51 2.394 . S
O70 C59 1.251 . S
O71 Eu41 2.374 1_556 S
O71 C59 1.251 . S
H72 C43 0.931 . S
H73 C44 0.931 . S
H74 C46 0.931 . S
H75 C47 0.931 . S
H76 C53 0.931 . S
H77 C54 0.931 . S
H78 C56 0.931 . S
H79 C57 0.931 . S
C80 Eu81 2.835 1_556 S
C80 C82 1.500 . S
C80 O100 1.257 . S
C80 O101 1.260 1_556 S
Eu81 C80 2.835 1_554 S
Eu81 O100 2.473 1_554 S
Eu81 O101 2.480 . S
Eu81 O102 2.430 . S
Eu81 O103 2.670 1_565 S
Eu81 O104 2.394 1_565 S
Eu81 O109 2.355 1_564 S
Eu81 O111 2.374 1_554 S
C82 C80 1.500 . S
C82 C83 1.377 1_556 S
C82 C87 1.377 . S
C83 C82 1.377 1_554 S
C83 C84 1.395 . S
C83 H112 0.931 . S
C84 C83 1.395 . S
C84 C85 1.383 1_554 S
C84 H113 0.931 . S
C85 C84 1.383 1_556 S
C85 C86 1.394 . S
C86 C85 1.394 . S
C86 C87 1.378 . S
C86 H114 0.931 . S
C87 C82 1.377 . S
C87 C86 1.378 . S
C87 H115 0.931 . S
C88 O102 1.259 1_545 S
C88 O103 1.270 . S
C89 O104 1.251 . S
C89 O105 1.251 . S
C90 Eu91 2.835 1_554 S
C90 C92 1.500 . S
C90 O106 1.257 . S
C90 O107 1.260 1_554 S
Eu91 C90 2.835 1_556 S
Eu91 O103 2.355 1_556 S
Eu91 O105 2.374 1_556 S
Eu91 O106 2.473 1_556 S
Eu91 O107 2.480 . S
Eu91 O108 2.430 . S
Eu91 O109 2.670 . S
Eu91 O110 2.394 . S
C92 C90 1.500 . S
C92 C93 1.377 1_554 S
C92 C97 1.377 . S
C93 C92 1.377 1_556 S
C93 C94 1.395 . S
C93 H116 0.931 . S
C94 C93 1.395 . S
C94 C95 1.383 1_556 S
C94 H117 0.931 . S
C95 C94 1.383 1_554 S
C95 C96 1.394 . S
C96 C95 1.394 . S
C96 C97 1.378 . S
C96 H118 0.931 . S
C97 C92 1.377 . S
C97 C96 1.378 . S
C97 H119 0.931 . S
C98 O108 1.259 . S
C98 O109 1.270 . S
C99 O110 1.251 1_565 S
C99 O111 1.251 . S
O100 C80 1.257 . S
O100 Eu81 2.473 1_556 S
O101 C80 1.260 1_554 S
O101 Eu81 2.480 . S
O102 Eu81 2.430 . S
O102 C88 1.259 1_565 S
O103 Eu81 2.670 1_545 S
O103 C88 1.270 . S
O103 Eu91 2.355 1_554 S
O104 Eu81 2.394 1_545 S
O104 C89 1.251 . S
O105 C89 1.251 . S
O105 Eu91 2.374 1_554 S
O106 C90 1.257 . S
O106 Eu91 2.473 1_554 S
O107 C90 1.260 1_556 S
O107 Eu91 2.480 . S
O108 Eu91 2.430 . S
O108 C98 1.259 . S
O109 Eu81 2.355 1_546 S
O109 Eu91 2.670 . S
O109 C98 1.270 . S
O110 Eu91 2.394 . S
O110 C99 1.251 1_545 S
O111 Eu81 2.374 1_556 S
O111 C99 1.251 . S
H112 C83 0.931 . S
H113 C84 0.931 . S
H114 C86 0.931 . S
H115 C87 0.931 . S
H116 C93 0.931 . S
H117 C94 0.931 . S
H118 C96 0.931 . S
H119 C97 0.931 . S
C120 Eu121 2.835 . S
C120 C122 1.500 . S
C120 O140 1.257 . S
C120 O141 1.260 . S
Eu121 C120 2.835 . S
Eu121 O140 2.473 . S
Eu121 O141 2.480 . S
Eu121 O142 2.430 . S
Eu121 O143 2.670 . S
Eu121 O144 2.394 . S
Eu121 O149 2.355 . S
Eu121 O151 2.374 . S
C122 C120 1.500 . S
C122 C123 1.377 . S
C122 C127 1.377 . S
C123 C122 1.377 . S
C123 C124 1.395 . S
C123 H152 0.931 . S
C124 C123 1.395 . S
C124 C125 1.383 . S
C124 H153 0.931 . S
C125 C124 1.383 . S
C125 C126 1.394 . S
C126 C125 1.394 . S
C126 C127 1.378 . S
C126 H154 0.931 . S
C127 C122 1.377 . S
C127 C126 1.378 . S
C127 H155 0.931 . S
C128 O142 1.259 . S
C128 O143 1.270 . S
C129 O144 1.251 . S
C129 O145 1.251 . S
C130 Eu131 2.835 . S
C130 C132 1.500 . S
C130 O146 1.257 . S
C130 O147 1.260 . S
Eu131 C130 2.835 . S
Eu131 O143 2.355 . S
Eu131 O145 2.374 . S
Eu131 O146 2.473 . S
Eu131 O147 2.480 . S
Eu131 O148 2.430 . S
Eu131 O149 2.670 . S
Eu131 O150 2.394 . S
C132 C130 1.500 . S
C132 C133 1.377 . S
C132 C137 1.377 . S
C133 C132 1.377 . S
C133 C134 1.395 . S
C133 H156 0.931 . S
C134 C133 1.395 . S
C134 C135 1.383 . S
C134 H157 0.931 . S
C135 C134 1.383 . S
C135 C136 1.394 . S
C136 C135 1.394 . S
C136 C137 1.378 . S
C136 H158 0.931 . S
C137 C132 1.377 . S
C137 C136 1.378 . S
C137 H159 0.931 . S
C138 O148 1.259 . S
C138 O149 1.270 . S
C139 O150 1.251 . S
C139 O151 1.251 . S
O140 C120 1.257 . S
O140 Eu121 2.473 . S
O141 C120 1.260 . S
O141 Eu121 2.480 . S
O142 Eu121 2.430 . S
O142 C128 1.259 . S
O143 Eu121 2.670 . S
O143 C128 1.270 . S
O143 Eu131 2.355 . S
O144 Eu121 2.394 . S
O144 C129 1.251 . S
O145 C129 1.251 . S
O145 Eu131 2.374 . S
O146 C130 1.257 . S
O146 Eu131 2.473 . S
O147 C130 1.260 . S
O147 Eu131 2.480 . S
O148 Eu131 2.430 . S
O148 C138 1.259 . S
O149 Eu121 2.355 . S
O149 Eu131 2.670 . S
O149 C138 1.270 . S
O150 Eu131 2.394 . S
O150 C139 1.251 . S
O151 Eu121 2.374 . S
O151 C139 1.251 . S
H152 C123 0.931 . S
H153 C124 0.931 . S
H154 C126 0.931 . S
H155 C127 0.931 . S
H156 C133 0.931 . S
H157 C134 0.931 . S
H158 C136 0.931 . S
H159 C137 0.931 . S
C160 Eu161 2.835 . S
C160 C162 1.500 . S
C160 O180 1.257 . S
C160 O181 1.260 . S
Eu161 C160 2.835 . S
Eu161 O180 2.473 . S
Eu161 O181 2.480 . S
Eu161 O182 2.430 . S
Eu161 O183 2.670 . S
Eu161 O184 2.394 . S
Eu161 O189 2.355 . S
Eu161 O191 2.374 . S
C162 C160 1.500 . S
C162 C163 1.377 . S
C162 C167 1.377 . S
C163 C162 1.377 . S
C163 C164 1.395 . S
C163 H192 0.931 . S
C164 C163 1.395 . S
C164 C165 1.383 . S
C164 H193 0.931 . S
C165 C164 1.383 . S
C165 C166 1.394 . S
C166 C165 1.394 . S
C166 C167 1.378 . S
C166 H194 0.931 . S
C167 C162 1.377 . S
C167 C166 1.378 . S
C167 H195 0.931 . S
C168 O182 1.259 . S
C168 O183 1.270 . S
C169 O184 1.251 . S
C169 O185 1.251 . S
C170 Eu171 2.835 . S
C170 C172 1.500 . S
C170 O186 1.257 . S
C170 O187 1.260 . S
Eu171 C170 2.835 . S
Eu171 O183 2.355 . S
Eu171 O185 2.374 . S
Eu171 O186 2.473 . S
Eu171 O187 2.480 . S
Eu171 O188 2.430 . S
Eu171 O189 2.670 . S
Eu171 O190 2.394 . S
C172 C170 1.500 . S
C172 C173 1.377 . S
C172 C177 1.377 . S
C173 C172 1.377 . S
C173 C174 1.395 . S
C173 H196 0.931 . S
C174 C173 1.395 . S
C174 C175 1.383 . S
C174 H197 0.931 . S
C175 C174 1.383 . S
C175 C176 1.394 . S
C176 C175 1.394 . S
C176 C177 1.378 . S
C176 H198 0.931 . S
C177 C172 1.377 . S
C177 C176 1.378 . S
C177 H199 0.931 . S
C178 O188 1.259 . S
C178 O189 1.270 . S
C179 O190 1.251 . S
C179 O191 1.251 . S
O180 C160 1.257 . S
O180 Eu161 2.473 . S
O181 C160 1.260 . S
O181 Eu161 2.480 . S
O182 Eu161 2.430 . S
O182 C168 1.259 . S
O183 Eu161 2.670 . S
O183 C168 1.270 . S
O183 Eu171 2.355 . S
O184 Eu161 2.394 . S
O184 C169 1.251 . S
O185 C169 1.251 . S
O185 Eu171 2.374 . S
O186 C170 1.257 . S
O186 Eu171 2.473 . S
O187 C170 1.260 . S
O187 Eu171 2.480 . S
O188 Eu171 2.430 . S
O188 C178 1.259 . S
O189 Eu161 2.355 . S
O189 Eu171 2.670 . S
O189 C178 1.270 . S
O190 Eu171 2.394 . S
O190 C179 1.251 . S
O191 Eu161 2.374 . S
O191 C179 1.251 . S
H192 C163 0.931 . S
H193 C164 0.931 . S
H194 C166 0.931 . S
H195 C167 0.931 . S
H196 C173 0.931 . S
H197 C174 0.931 . S
H198 C176 0.931 . S
H199 C177 0.931 . S
C200 Eu201 2.835 . S
C200 C202 1.500 . S
C200 O220 1.257 . S
C200 O221 1.260 . S
Eu201 C200 2.835 . S
Eu201 O220 2.473 . S
Eu201 O221 2.480 . S
Eu201 O222 2.430 . S
Eu201 O223 2.670 . S
Eu201 O224 2.394 . S
Eu201 O229 2.355 . S
Eu201 O231 2.374 . S
C202 C200 1.500 . S
C202 C203 1.377 . S
C202 C207 1.377 . S
C203 C202 1.377 . S
C203 C204 1.395 . S
C203 H232 0.931 . S
C204 C203 1.395 . S
C204 C205 1.383 . S
C204 H233 0.931 . S
C205 C204 1.383 . S
C205 C206 1.394 . S
C206 C205 1.394 . S
C206 C207 1.378 . S
C206 H234 0.931 . S
C207 C202 1.377 . S
C207 C206 1.378 . S
C207 H235 0.931 . S
C208 O222 1.259 . S
C208 O223 1.270 . S
C209 O224 1.251 . S
C209 O225 1.251 . S
C210 Eu211 2.835 . S
C210 C212 1.500 . S
C210 O226 1.257 . S
C210 O227 1.260 . S
Eu211 C210 2.835 . S
Eu211 O223 2.355 . S
Eu211 O225 2.374 . S
Eu211 O226 2.473 . S
Eu211 O227 2.480 . S
Eu211 O228 2.430 . S
Eu211 O229 2.670 . S
Eu211 O230 2.394 . S
C212 C210 1.500 . S
C212 C213 1.377 . S
C212 C217 1.377 . S
C213 C212 1.377 . S
C213 C214 1.395 . S
C213 H236 0.931 . S
C214 C213 1.395 . S
C214 C215 1.383 . S
C214 H237 0.931 . S
C215 C214 1.383 . S
C215 C216 1.394 . S
C216 C215 1.394 . S
C216 C217 1.378 . S
C216 H238 0.931 . S
C217 C212 1.377 . S
C217 C216 1.378 . S
C217 H239 0.931 . S
C218 O228 1.259 . S
C218 O229 1.270 . S
C219 O230 1.251 . S
C219 O231 1.251 . S
O220 C200 1.257 . S
O220 Eu201 2.473 . S
O221 C200 1.260 . S
O221 Eu201 2.480 . S
O222 Eu201 2.430 . S
O222 C208 1.259 . S
O223 Eu201 2.670 . S
O223 C208 1.270 . S
O223 Eu211 2.355 . S
O224 Eu201 2.394 . S
O224 C209 1.251 . S
O225 C209 1.251 . S
O225 Eu211 2.374 . S
O226 C210 1.257 . S
O226 Eu211 2.473 . S
O227 C210 1.260 . S
O227 Eu211 2.480 . S
O228 Eu211 2.430 . S
O228 C218 1.259 . S
O229 Eu201 2.355 . S
O229 Eu211 2.670 . S
O229 C218 1.270 . S
O230 Eu211 2.394 . S
O230 C219 1.251 . S
O231 Eu201 2.374 . S
O231 C219 1.251 . S
H232 C203 0.931 . S
H233 C204 0.931 . S
H234 C206 0.931 . S
H235 C207 0.931 . S
H236 C213 0.931 . S
H237 C214 0.931 . S
H238 C216 0.931 . S
H239 C217 0.931 . S
C240 Eu241 2.835 . S
C240 C242 1.500 . S
C240 O260 1.257 . S
C240 O261 1.260 . S
Eu241 C240 2.835 . S
Eu241 O260 2.473 . S
Eu241 O261 2.480 . S
Eu241 O262 2.430 . S
Eu241 O263 2.670 . S
Eu241 O264 2.394 . S
Eu241 O269 2.355 . S
Eu241 O271 2.374 . S
C242 C240 1.500 . S
C242 C243 1.377 . S
C242 C247 1.377 . S
C243 C242 1.377 . S
C243 C244 1.395 . S
C243 H272 0.931 . S
C244 C243 1.395 . S
C244 C245 1.383 . S
C244 H273 0.931 . S
C245 C244 1.383 . S
C245 C246 1.394 . S
C246 C245 1.394 . S
C246 C247 1.378 . S
C246 H274 0.931 . S
C247 C242 1.377 . S
C247 C246 1.378 . S
C247 H275 0.931 . S
C248 O262 1.259 . S
C248 O263 1.270 . S
C249 O264 1.251 . S
C249 O265 1.251 . S
C250 Eu251 2.835 . S
C250 C252 1.500 . S
C250 O266 1.257 . S
C250 O267 1.260 . S
Eu251 C250 2.835 . S
Eu251 O263 2.355 . S
Eu251 O265 2.374 . S
Eu251 O266 2.473 . S
Eu251 O267 2.480 . S
Eu251 O268 2.430 . S
Eu251 O269 2.670 . S
Eu251 O270 2.394 . S
C252 C250 1.500 . S
C252 C253 1.377 . S
C252 C257 1.377 . S
C253 C252 1.377 . S
C253 C254 1.395 . S
C253 H276 0.931 . S
C254 C253 1.395 . S
C254 C255 1.383 . S
C254 H277 0.931 . S
C255 C254 1.383 . S
C255 C256 1.394 . S
C256 C255 1.394 . S
C256 C257 1.378 . S
C256 H278 0.931 . S
C257 C252 1.377 . S
C257 C256 1.378 . S
C257 H279 0.931 . S
C258 O268 1.259 . S
C258 O269 1.270 . S
C259 O270 1.251 . S
C259 O271 1.251 . S
O260 C240 1.257 . S
O260 Eu241 2.473 . S
O261 C240 1.260 . S
O261 Eu241 2.480 . S
O262 Eu241 2.430 . S
O262 C248 1.259 . S
O263 Eu241 2.670 . S
O263 C248 1.270 . S
O263 Eu251 2.355 . S
O264 Eu241 2.394 . S
O264 C249 1.251 . S
O265 C249 1.251 . S
O265 Eu251 2.374 . S
O266 C250 1.257 . S
O266 Eu251 2.473 . S
O267 C250 1.260 . S
O267 Eu251 2.480 . S
O268 Eu251 2.430 . S
O268 C258 1.259 . S
O269 Eu241 2.355 . S
O269 Eu251 2.670 . S
O269 C258 1.270 . S
O270 Eu251 2.394 . S
O270 C259 1.251 . S
O271 Eu241 2.374 . S
O271 C259 1.251 . S
H272 C243 0.931 . S
H273 C244 0.931 . S
H274 C246 0.931 . S
H275 C247 0.931 . S
H276 C253 0.931 . S
H277 C254 0.931 . S
H278 C256 0.931 . S
H279 C257 0.931 . S
C280 Eu281 2.835 . S
C280 C282 1.500 . S
C280 O300 1.257 . S
C280 O301 1.260 . S
Eu281 C280 2.835 . S
Eu281 O300 2.473 . S
Eu281 O301 2.480 . S
Eu281 O302 2.430 . S
Eu281 O303 2.670 . S
Eu281 O304 2.394 . S
Eu281 O309 2.355 . S
Eu281 O311 2.374 . S
C282 C280 1.500 . S
C282 C283 1.377 . S
C282 C287 1.377 . S
C283 C282 1.377 . S
C283 C284 1.395 . S
C283 H312 0.931 . S
C284 C283 1.395 . S
C284 C285 1.383 . S
C284 H313 0.931 . S
C285 C284 1.383 . S
C285 C286 1.394 . S
C286 C285 1.394 . S
C286 C287 1.378 . S
C286 H314 0.931 . S
C287 C282 1.377 . S
C287 C286 1.378 . S
C287 H315 0.931 . S
C288 O302 1.259 . S
C288 O303 1.270 . S
C289 O304 1.251 . S
C289 O305 1.251 . S
C290 Eu291 2.835 . S
C290 C292 1.500 . S
C290 O306 1.257 . S
C290 O307 1.260 . S
Eu291 C290 2.835 . S
Eu291 O303 2.355 . S
Eu291 O305 2.374 . S
Eu291 O306 2.473 . S
Eu291 O307 2.480 . S
Eu291 O308 2.430 . S
Eu291 O309 2.670 . S
Eu291 O310 2.394 . S
C292 C290 1.500 . S
C292 C293 1.377 . S
C292 C297 1.377 . S
C293 C292 1.377 . S
C293 C294 1.395 . S
C293 H316 0.931 . S
C294 C293 1.395 . S
C294 C295 1.383 . S
C294 H317 0.931 . S
C295 C294 1.383 . S
C295 C296 1.394 . S
C296 C295 1.394 . S
C296 C297 1.378 . S
C296 H318 0.931 . S
C297 C292 1.377 . S
C297 C296 1.378 . S
C297 H319 0.931 . S
C298 O308 1.259 . S
C298 O309 1.270 . S
C299 O310 1.251 . S
C299 O311 1.251 . S
O300 C280 1.257 . S
O300 Eu281 2.473 . S
O301 C280 1.260 . S
O301 Eu281 2.480 . S
O302 Eu281 2.430 . S
O302 C288 1.259 . S
O303 Eu281 2.670 . S
O303 C288 1.270 . S
O303 Eu291 2.355 . S
O304 Eu281 2.394 . S
O304 C289 1.251 . S
O305 C289 1.251 . S
O305 Eu291 2.374 . S
O306 C290 1.257 . S
O306 Eu291 2.473 . S
O307 C290 1.260 . S
O307 Eu291 2.480 . S
O308 Eu291 2.430 . S
O308 C298 1.259 . S
O309 Eu281 2.355 . S
O309 Eu291 2.670 . S
O309 C298 1.270 . S
O310 Eu291 2.394 . S
O310 C299 1.251 . S
O311 Eu281 2.374 . S
O311 C299 1.251 . S
H312 C283 0.931 . S
H313 C284 0.931 . S
H314 C286 0.931 . S
H315 C287 0.931 . S
H316 C293 0.931 . S
H317 C294 0.931 . S
H318 C296 0.931 . S
H319 C297 0.931 . S
C320 Eu321 2.835 . S
C320 C322 1.500 . S
C320 O340 1.257 . S
C320 O341 1.260 . S
Eu321 C320 2.835 . S
Eu321 O340 2.473 . S
Eu321 O341 2.480 . S
Eu321 O342 2.430 . S
Eu321 O343 2.670 . S
Eu321 O344 2.394 . S
Eu321 O349 2.355 . S
Eu321 O351 2.374 . S
C322 C320 1.500 . S
C322 C323 1.377 . S
C322 C327 1.377 . S
C323 C322 1.377 . S
C323 C324 1.395 . S
C323 H352 0.931 . S
C324 C323 1.395 . S
C324 C325 1.383 . S
C324 H353 0.931 . S
C325 C324 1.383 . S
C325 C326 1.394 . S
C326 C325 1.394 . S
C326 C327 1.378 . S
C326 H354 0.931 . S
C327 C322 1.377 . S
C327 C326 1.378 . S
C327 H355 0.931 . S
C328 O342 1.259 . S
C328 O343 1.270 . S
C329 O344 1.251 . S
C329 O345 1.251 . S
C330 Eu331 2.835 . S
C330 C332 1.500 . S
C330 O346 1.257 . S
C330 O347 1.260 . S
Eu331 C330 2.835 . S
Eu331 O343 2.355 . S
Eu331 O345 2.374 . S
Eu331 O346 2.473 . S
Eu331 O347 2.480 . S
Eu331 O348 2.430 . S
Eu331 O349 2.670 . S
Eu331 O350 2.394 . S
C332 C330 1.500 . S
C332 C333 1.377 . S
C332 C337 1.377 . S
C333 C332 1.377 . S
C333 C334 1.395 . S
C333 H356 0.931 . S
C334 C333 1.395 . S
C334 C335 1.383 . S
C334 H357 0.931 . S
C335 C334 1.383 . S
C335 C336 1.394 . S
C336 C335 1.394 . S
C336 C337 1.378 . S
C336 H358 0.931 . S
C337 C332 1.377 . S
C337 C336 1.378 . S
C337 H359 0.931 . S
C338 O348 1.259 . S
C338 O349 1.270 . S
C339 O350 1.251 . S
C339 O351 1.251 . S
O340 C320 1.257 . S
O340 Eu321 2.473 . S
O341 C320 1.260 . S
O341 Eu321 2.480 . S
O342 Eu321 2.430 . S
O342 C328 1.259 . S
O343 Eu321 2.670 . S
O343 C328 1.270 . S
O343 Eu331 2.355 . S
O344 Eu321 2.394 . S
O344 C329 1.251 . S
O345 C329 1.251 . S
O345 Eu331 2.374 . S
O346 C330 1.257 . S
O346 Eu331 2.473 . S
O347 C330 1.260 . S
O347 Eu331 2.480 . S
O348 Eu331 2.430 . S
O348 C338 1.259 . S
O349 Eu321 2.355 . S
O349 Eu331 2.670 . S
O349 C338 1.270 . S
O350 Eu331 2.394 . S
O350 C339 1.251 . S
O351 Eu321 2.374 . S
O351 C339 1.251 . S
H352 C323 0.931 . S
H353 C324 0.931 . S
H354 C326 0.931 . S
H355 C327 0.931 . S
H356 C333 0.931 . S
H357 C334 0.931 . S
H358 C336 0.931 . S
H359 C337 0.931 . S
H360 C368 0.929 . S
H361 C370 0.930 . S
H362 C372 0.930 . S
H363 C375 0.929 1_554 S
H364 C378 0.930 . S
H365 C380 0.960 . S
H366 C380 0.960 . S
H367 C380 0.960 . S
C368 H360 0.929 . S
C368 C369 1.377 . S
C368 C370 1.384 . S
C369 C368 1.377 . S
C369 C375 1.390 . S
C370 H361 0.930 . S
C370 C368 1.384 . S
C370 C371 1.372 . S
C371 C370 1.372 . S
C371 C372 1.400 . S
C371 C376 1.490 . S
C372 H362 0.930 . S
C372 C371 1.400 . S
C372 C375 1.386 . S
H373 C389 0.930 . S
H374 C390 0.931 . S
C375 H363 0.929 1_556 S
C375 C369 1.390 . S
C375 C372 1.386 . S
C376 C371 1.490 . S
C376 C378 1.395 . S
C376 C379 1.403 . S
H377 C383 0.930 . S
C378 H364 0.930 . S
C378 C376 1.395 . S
C378 C381 1.403 . S
C379 C376 1.403 . S
C379 C380 1.524 . S
C379 C383 1.400 . S
C380 H365 0.960 . S
C380 H366 0.960 . S
C380 H367 0.960 . S
C380 C379 1.524 . S
C381 C378 1.403 . S
C381 C382 1.392 . S
C381 C385 1.495 . S
C382 C381 1.392 . S
C382 C383 1.385 . S
C382 C384 1.478 . S
C383 H377 0.930 . S
C383 C379 1.400 . S
C383 C382 1.385 . S
C384 C382 1.478 . S
C384 C386 1.381 . S
C384 C390 1.383 . S
C385 C381 1.495 . S
C385 H391 0.959 . S
C385 H392 0.961 . S
C385 H393 0.960 . S
C386 C384 1.381 . S
C386 C387 1.394 . S
C386 H394 0.930 . S
C387 C386 1.394 . S
C387 C388 1.383 . S
C387 H395 0.929 . S
C388 C387 1.383 . S
C388 C389 1.377 . S
C389 H373 0.930 . S
C389 C388 1.377 . S
C389 C390 1.379 . S
C390 H374 0.931 . S
C390 C384 1.383 . S
C390 C389 1.379 . S
H391 C385 0.959 . S
H392 C385 0.961 . S
H393 C385 0.960 . S
H394 C386 0.930 . S
H395 C387 0.929 . S
H396 C404 0.929 . S
H397 C406 0.930 1_554 S
H398 C408 0.930 . S
H399 C411 0.929 . S
H400 C414 0.930 . S
H401 C416 0.960 . S
H402 C416 0.960 . S
H403 C416 0.960 . S
C404 H396 0.929 . S
C404 C405 1.377 1_554 S
C404 C406 1.384 1_554 S
C405 C404 1.377 1_556 S
C405 C411 1.390 . S
C406 H397 0.930 1_556 S
C406 C404 1.384 1_556 S
C406 C407 1.372 . S
C407 C406 1.372 . S
C407 C408 1.400 . S
C407 C412 1.490 . S
C408 H398 0.930 . S
C408 C407 1.400 . S
C408 C411 1.386 . S
H409 C425 0.930 . S
H410 C426 0.931 . S
C411 H399 0.929 . S
C411 C405 1.390 . S
C411 C408 1.386 . S
C412 C407 1.490 . S
C412 C414 1.395 . S
C412 C415 1.403 . S
H413 C419 0.930 . S
C414 H400 0.930 . S
C414 C412 1.395 . S
C414 C417 1.403 . S
C415 C412 1.403 . S
C415 C416 1.524 . S
C415 C419 1.400 . S
C416 H401 0.960 . S
C416 H402 0.960 . S
C416 H403 0.960 . S
C416 C415 1.524 . S
C417 C414 1.403 . S
C417 C418 1.392 . S
C417 C421 1.495 . S
C418 C417 1.392 . S
C418 C419 1.385 . S
C418 C420 1.478 . S
C419 H413 0.930 . S
C419 C415 1.400 . S
C419 C418 1.385 . S
C420 C418 1.478 . S
C420 C422 1.381 . S
C420 C426 1.383 . S
C421 C417 1.495 . S
C421 H427 0.959 . S
C421 H428 0.961 . S
C421 H429 0.960 . S
C422 C420 1.381 . S
C422 C423 1.394 . S
C422 H430 0.930 . S
C423 C422 1.394 . S
C423 C424 1.383 . S
C423 H431 0.929 . S
C424 C423 1.383 . S
C424 C425 1.377 . S
C425 H409 0.930 . S
C425 C424 1.377 . S
C425 C426 1.379 . S
C426 H410 0.931 . S
C426 C420 1.383 . S
C426 C425 1.379 . S
H427 C421 0.959 . S
H428 C421 0.961 . S
H429 C421 0.960 . S
H430 C422 0.930 . S
H431 C423 0.929 . S
H432 C440 0.929 1_545 S
H433 C442 0.930 . S
H434 C444 0.930 . S
H435 C447 0.929 1_554 S
H436 C450 0.930 . S
H437 C452 0.960 . S
H438 C452 0.960 . S
H439 C452 0.960 . S
C440 H432 0.929 1_565 S
C440 C441 1.377 . S
C440 C442 1.384 . S
C441 C440 1.377 . S
C441 C447 1.390 . S
C442 H433 0.930 . S
C442 C440 1.384 . S
C442 C443 1.372 . S
C443 C442 1.372 . S
C443 C444 1.400 . S
C443 C448 1.490 . S
C444 H434 0.930 . S
C444 C443 1.400 . S
C444 C447 1.386 . S
H445 C461 0.930 . S
H446 C462 0.931 . S
C447 H435 0.929 1_556 S
C447 C441 1.390 . S
C447 C444 1.386 . S
C448 C443 1.490 . S
C448 C450 1.395 . S
C448 C451 1.403 . S
H449 C455 0.930 . S
C450 H436 0.930 . S
C450 C448 1.395 . S
C450 C453 1.403 . S
C451 C448 1.403 . S
C451 C452 1.524 . S
C451 C455 1.400 . S
C452 H437 0.960 . S
C452 H438 0.960 . S
C452 H439 0.960 . S
C452 C451 1.524 . S
C453 C450 1.403 . S
C453 C454 1.392 . S
C453 C457 1.495 . S
C454 C453 1.392 . S
C454 C455 1.385 . S
C454 C456 1.478 . S
C455 H449 0.930 . S
C455 C451 1.400 . S
C455 C454 1.385 . S
C456 C454 1.478 . S
C456 C458 1.381 . S
C456 C462 1.383 . S
C457 C453 1.495 . S
C457 H463 0.959 . S
C457 H464 0.961 . S
C457 H465 0.960 . S
C458 C456 1.381 . S
C458 C459 1.394 . S
C458 H466 0.930 . S
C459 C458 1.394 . S
C459 C460 1.383 . S
C459 H467 0.929 . S
C460 C459 1.383 . S
C460 C461 1.377 . S
C461 H445 0.930 . S
C461 C460 1.377 . S
C461 C462 1.379 . S
C462 H446 0.931 . S
C462 C456 1.383 . S
C462 C461 1.379 . S
H463 C457 0.959 . S
H464 C457 0.961 . S
H465 C457 0.960 . S
H466 C458 0.930 . S
H467 C459 0.929 . S
H468 C476 0.929 . S
H469 C478 0.930 . S
H470 C480 0.930 . S
H471 C483 0.929 . S
H472 C486 0.930 . S
H473 C488 0.960 . S
H474 C488 0.960 . S
H475 C488 0.960 . S
C476 H468 0.929 . S
C476 C477 1.377 . S
C476 C478 1.384 . S
C477 C476 1.377 . S
C477 C483 1.390 . S
C478 H469 0.930 . S
C478 C476 1.384 . S
C478 C479 1.372 . S
C479 C478 1.372 . S
C479 C480 1.400 . S
C479 C484 1.490 . S
C480 H470 0.930 . S
C480 C479 1.400 . S
C480 C483 1.386 . S
H481 C497 0.930 . S
H482 C498 0.931 . S
C483 H471 0.929 . S
C483 C477 1.390 . S
C483 C480 1.386 . S
C484 C479 1.490 . S
C484 C486 1.395 . S
C484 C487 1.403 . S
H485 C491 0.930 . S
C486 H472 0.930 . S
C486 C484 1.395 . S
C486 C489 1.403 . S
C487 C484 1.403 . S
C487 C488 1.524 . S
C487 C491 1.400 . S
C488 H473 0.960 . S
C488 H474 0.960 . S
C488 H475 0.960 . S
C488 C487 1.524 . S
C489 C486 1.403 . S
C489 C490 1.392 . S
C489 C493 1.495 . S
C490 C489 1.392 . S
C490 C491 1.385 . S
C490 C492 1.478 . S
C491 H485 0.930 . S
C491 C487 1.400 . S
C491 C490 1.385 . S
C492 C490 1.478 . S
C492 C494 1.381 . S
C492 C498 1.383 . S
C493 C489 1.495 . S
C493 H499 0.959 . S
C493 H500 0.961 . S
C493 H501 0.960 . S
C494 C492 1.381 . S
C494 C495 1.394 . S
C494 H502 0.930 . S
C495 C494 1.394 . S
C495 C496 1.383 . S
C495 H503 0.929 . S
C496 C495 1.383 . S
C496 C497 1.377 . S
C497 H481 0.930 . S
C497 C496 1.377 . S
C497 C498 1.379 . S
C498 H482 0.931 . S
C498 C492 1.383 . S
C498 C497 1.379 . S
H499 C493 0.959 . S
H500 C493 0.961 . S
H501 C493 0.960 . S
H502 C494 0.930 . S
H503 C495 0.929 . S
H504 C512 0.929 . S
H505 C514 0.930 . S
H506 C516 0.930 . S
H507 C519 0.929 . S
H508 C522 0.930 . S
H509 C524 0.960 . S
H510 C524 0.960 . S
H511 C524 0.960 . S
C512 H504 0.929 . S
C512 C513 1.377 . S
C512 C514 1.384 . S
C513 C512 1.377 . S
C513 C519 1.390 . S
C514 H505 0.930 . S
C514 C512 1.384 . S
C514 C515 1.372 . S
C515 C514 1.372 . S
C515 C516 1.400 . S
C515 C520 1.490 . S
C516 H506 0.930 . S
C516 C515 1.400 . S
C516 C519 1.386 . S
H517 C533 0.930 . S
H518 C534 0.931 . S
C519 H507 0.929 . S
C519 C513 1.390 . S
C519 C516 1.386 . S
C520 C515 1.490 . S
C520 C522 1.395 . S
C520 C523 1.403 . S
H521 C527 0.930 . S
C522 H508 0.930 . S
C522 C520 1.395 . S
C522 C525 1.403 . S
C523 C520 1.403 . S
C523 C524 1.524 . S
C523 C527 1.400 . S
C524 H509 0.960 . S
C524 H510 0.960 . S
C524 H511 0.960 . S
C524 C523 1.524 . S
C525 C522 1.403 . S
C525 C526 1.392 . S
C525 C529 1.495 . S
C526 C525 1.392 . S
C526 C527 1.385 . S
C526 C528 1.478 . S
C527 H521 0.930 . S
C527 C523 1.400 . S
C527 C526 1.385 . S
C528 C526 1.478 . S
C528 C530 1.381 . S
C528 C534 1.383 . S
C529 C525 1.495 . S
C529 H535 0.959 . S
C529 H536 0.961 . S
C529 H537 0.960 . S
C530 C528 1.381 . S
C530 C531 1.394 . S
C530 H538 0.930 . S
C531 C530 1.394 . S
C531 C532 1.383 . S
C531 H539 0.929 . S
C532 C531 1.383 . S
C532 C533 1.377 . S
C533 H517 0.930 . S
C533 C532 1.377 . S
C533 C534 1.379 . S
C534 H518 0.931 . S
C534 C528 1.383 . S
C534 C533 1.379 . S
H535 C529 0.959 . S
H536 C529 0.961 . S
H537 C529 0.960 . S
H538 C530 0.930 . S
H539 C531 0.929 . S
H540 C548 0.929 . S
H541 C550 0.930 . S
H542 C552 0.930 . S
H543 C555 0.918 1_556 S
H544 C558 0.930 . S
H545 C560 0.960 . S
H546 C560 0.960 . S
H547 C560 0.960 . S
C548 H540 0.929 . S
C548 C549 1.377 . S
C548 C550 1.384 . S
C549 C548 1.377 . S
C549 C555 1.390 . S
C550 H541 0.930 . S
C550 C548 1.384 . S
C550 C551 1.372 . S
C551 C550 1.372 . S
C551 C552 1.400 . S
C551 C556 1.490 . S
C552 H542 0.930 . S
C552 C551 1.400 . S
C552 C555 1.386 . S
H553 C569 0.930 . S
H554 C570 0.931 . S
C555 H543 0.918 1_554 S
C555 C549 1.390 . S
C555 C552 1.386 . S
C556 C551 1.490 . S
C556 C558 1.395 . S
C556 C559 1.403 . S
H557 C563 0.930 . S
C558 H544 0.930 . S
C558 C556 1.395 . S
C558 C561 1.403 . S
C559 C556 1.403 . S
C559 C560 1.524 . S
C559 C563 1.400 . S
C560 H545 0.960 . S
C560 H546 0.960 . S
C560 H547 0.960 . S
C560 C559 1.524 . S
C561 C558 1.403 . S
C561 C562 1.392 . S
C561 C565 1.495 . S
C562 C561 1.392 . S
C562 C563 1.385 . S
C562 C564 1.478 . S
C563 H557 0.930 . S
C563 C559 1.400 . S
C563 C562 1.385 . S
C564 C562 1.478 . S
C564 C566 1.381 . S
C564 C570 1.383 . S
C565 C561 1.495 . S
C565 H571 0.959 . S
C565 H572 0.961 . S
C565 H573 0.960 . S
C566 C564 1.381 . S
C566 C567 1.394 . S
C566 H574 0.930 . S
C567 C566 1.394 . S
C567 C568 1.383 . S
C567 H575 0.929 . S
C568 C567 1.383 . S
C568 C569 1.377 . S
C569 H553 0.930 . S
C569 C568 1.377 . S
C569 C570 1.379 . S
C570 H554 0.931 . S
C570 C564 1.383 . S
C570 C569 1.379 . S
H571 C565 0.959 . S
H572 C565 0.961 . S
H573 C565 0.960 . S
H574 C566 0.930 . S
H575 C567 0.929 . S
H576 C584 0.929 . S
H577 C586 0.930 . S
H578 C588 0.930 . S
H579 C591 0.929 . S
H580 C594 0.930 . S
H581 C596 0.960 . S
H582 C596 0.960 . S
H583 C596 0.960 . S
C584 H576 0.929 . S
C584 C585 1.377 . S
C584 C586 1.384 . S
C585 C584 1.377 . S
C585 C591 1.390 . S
C586 H577 0.930 . S
C586 C584 1.384 . S
C586 C587 1.372 . S
C587 C586 1.372 . S
C587 C588 1.400 . S
C587 C592 1.490 . S
C588 H578 0.930 . S
C588 C587 1.400 . S
C588 C591 1.386 . S
H589 C605 0.930 . S
H590 C606 0.938 1_455 S
C591 H579 0.929 . S
C591 C585 1.390 . S
C591 C588 1.386 . S
C592 C587 1.490 . S
C592 C594 1.395 . S
C592 C595 1.403 . S
H593 C599 0.930 . S
C594 H580 0.930 . S
C594 C592 1.395 . S
C594 C597 1.403 . S
C595 C592 1.403 . S
C595 C596 1.524 . S
C595 C599 1.400 . S
C596 H581 0.960 . S
C596 H582 0.960 . S
C596 H583 0.960 . S
C596 C595 1.524 . S
C597 C594 1.403 . S
C597 C598 1.392 . S
C597 C601 1.495 . S
C598 C597 1.392 . S
C598 C599 1.385 . S
C598 C600 1.478 . S
C599 H593 0.930 . S
C599 C595 1.400 . S
C599 C598 1.385 . S
C600 C598 1.478 . S
C600 C602 1.381 . S
C600 C606 1.323 1_455 S
C601 C597 1.495 . S
C601 H607 0.959 . S
C601 H608 0.961 . S
C601 H609 0.960 . S
C602 C600 1.381 . S
C602 C603 1.394 1_455 S
C602 H610 0.930 . S
C603 C602 1.394 1_655 S
C603 C604 1.383 . S
C603 H611 0.929 . S
C604 C603 1.383 . S
C604 C605 1.377 . S
C605 H589 0.930 . S
C605 C604 1.377 . S
C605 C606 1.435 . S
C606 H590 0.938 1_655 S
C606 C600 1.323 1_655 S
C606 C605 1.435 . S
H607 C601 0.959 . S
H608 C601 0.961 . S
H609 C601 0.960 . S
H610 C602 0.930 . S
H611 C603 0.929 . S
H612 C620 0.929 . S
H613 C622 0.930 . S
H614 C624 0.930 . S
H615 C627 0.929 . S
H616 C630 0.930 . S
H617 C632 0.960 . S
H618 C632 0.960 . S
H619 C632 0.960 . S
C620 H612 0.929 . S
C620 C621 1.377 . S
C620 C622 1.384 . S
C621 C620 1.377 . S
C621 C627 1.390 . S
C622 H613 0.930 . S
C622 C620 1.384 . S
C622 C623 1.372 . S
C623 C622 1.372 . S
C623 C624 1.400 . S
C623 C628 1.490 . S
C624 H614 0.930 . S
C624 C623 1.400 . S
C624 C627 1.386 . S
H625 C641 0.930 . S
H626 C642 0.931 . S
C627 H615 0.929 . S
C627 C621 1.390 . S
C627 C624 1.386 . S
C628 C623 1.490 . S
C628 C630 1.395 . S
C628 C631 1.403 . S
H629 C635 0.930 . S
C630 H616 0.930 . S
C630 C628 1.395 . S
C630 C633 1.403 . S
C631 C628 1.403 . S
C631 C632 1.524 . S
C631 C635 1.400 . S
C632 H617 0.960 . S
C632 H618 0.960 . S
C632 H619 0.960 . S
C632 C631 1.524 . S
C633 C630 1.403 . S
C633 C634 1.392 . S
C633 C637 1.495 . S
C634 C633 1.392 . S
C634 C635 1.385 . S
C634 C636 1.478 . S
C635 H629 0.930 . S
C635 C631 1.400 . S
C635 C634 1.385 . S
C636 C634 1.478 . S
C636 C638 1.381 . S
C636 C642 1.383 . S
C637 C633 1.495 . S
C637 H643 0.959 . S
C637 H644 0.961 . S
C637 H645 0.960 . S
C638 C636 1.381 . S
C638 C639 1.394 . S
C638 H646 0.930 . S
C639 C638 1.394 . S
C639 C640 1.383 . S
C639 H647 0.929 . S
C640 C639 1.383 . S
C640 C641 1.377 . S
C641 H625 0.930 . S
C641 C640 1.377 . S
C641 C642 1.379 . S
C642 H626 0.931 . S
C642 C636 1.383 . S
C642 C641 1.379 . S
H643 C637 0.959 . S
H644 C637 0.961 . S
H645 C637 0.960 . S
H646 C638 0.930 . S
H647 C639 0.929 . S
H648 C656 0.929 . S
H649 C658 0.930 . S
H650 C660 0.930 . S
H651 C663 0.929 . S
H652 C666 0.930 . S
H653 C668 0.960 . S
H654 C668 0.960 . S
H655 C668 0.960 . S
C656 H648 0.929 . S
C656 C657 1.377 . S
C656 C658 1.384 . S
C657 C656 1.377 . S
C657 C663 1.390 . S
C658 H649 0.930 . S
C658 C656 1.384 . S
C658 C659 1.372 . S
C659 C658 1.372 . S
C659 C660 1.400 . S
C659 C664 1.490 1_545 S
C660 H650 0.930 . S
C660 C659 1.400 . S
C660 C663 1.386 . S
H661 C677 0.930 . S
H662 C678 0.931 . S
C663 H651 0.929 . S
C663 C657 1.390 . S
C663 C660 1.386 . S
C664 C659 1.490 1_565 S
C664 C666 1.395 . S
C664 C667 1.403 . S
H665 C671 0.930 . S
C666 H652 0.930 . S
C666 C664 1.395 . S
C666 C669 1.403 . S
C667 C664 1.403 . S
C667 C668 1.524 . S
C667 C671 1.400 . S
C668 H653 0.960 . S
C668 H654 0.960 . S
C668 H655 0.960 . S
C668 C667 1.524 . S
C669 C666 1.403 . S
C669 C670 1.392 . S
C669 C673 1.495 . S
C670 C669 1.392 . S
C670 C671 1.385 . S
C670 C672 1.478 . S
C671 H665 0.930 . S
C671 C667 1.400 . S
C671 C670 1.385 . S
C672 C670 1.478 . S
C672 C674 1.381 . S
C672 C678 1.383 . S
C673 C669 1.495 . S
C673 H679 0.959 . S
C673 H680 0.961 . S
C673 H681 0.960 . S
C674 C672 1.381 . S
C674 C675 1.394 . S
C674 H682 0.930 . S
C675 C674 1.394 . S
C675 C676 1.383 . S
C675 H683 0.929 . S
C676 C675 1.383 . S
C676 C677 1.377 . S
C677 H661 0.930 . S
C677 C676 1.377 . S
C677 C678 1.379 . S
C678 H662 0.931 . S
C678 C672 1.383 . S
C678 C677 1.379 . S
H679 C673 0.959 . S
H680 C673 0.961 . S
H681 C673 0.960 . S
H682 C674 0.930 . S
H683 C675 0.929 . S
H684 C692 0.929 . S
H685 C694 0.930 . S
H686 C696 0.930 . S
H687 C699 0.929 . S
H688 C702 0.930 . S
H689 C704 0.960 . S
H690 C704 0.960 . S
H691 C704 0.960 . S
C692 H684 0.929 . S
C692 C693 1.377 1_556 S
C692 C694 1.384 . S
C693 C692 1.377 1_554 S
C693 C699 1.390 . S
C694 H685 0.930 . S
C694 C692 1.384 . S
C694 C695 1.372 . S
C695 C694 1.372 . S
C695 C696 1.400 1_556 S
C695 C700 1.490 . S
C696 H686 0.930 . S
C696 C695 1.400 1_554 S
C696 C699 1.386 . S
H697 C713 0.930 . S
H698 C714 0.931 . S
C699 H687 0.929 . S
C699 C693 1.390 . S
C699 C696 1.386 . S
C700 C695 1.490 . S
C700 C702 1.395 1_556 S
C700 C703 1.403 . S
H701 C707 0.930 . S
C702 H688 0.930 . S
C702 C700 1.395 1_554 S
C702 C705 1.403 1_554 S
C703 C700 1.403 . S
C703 C704 1.524 . S
C703 C707 1.400 . S
C704 H689 0.960 . S
C704 H690 0.960 . S
C704 H691 0.960 . S
C704 C703 1.524 . S
C705 C702 1.403 1_556 S
C705 C706 1.396 . S
C705 C709 1.492 1_556 S
C706 C705 1.396 . S
C706 C707 1.385 . S
C706 C708 1.478 . S
C707 H701 0.930 . S
C707 C703 1.400 . S
C707 C706 1.385 . S
C708 C706 1.478 . S
C708 C710 1.381 . S
C708 C714 1.383 1_556 S
C709 C705 1.492 1_554 S
C709 H715 0.959 . S
C709 H716 0.961 . S
C709 H717 0.960 1_554 S
C710 C708 1.381 . S
C710 C711 1.394 . S
C710 H718 0.930 . S
C711 C710 1.394 . S
C711 C712 1.383 . S
C711 H719 0.929 . S
C712 C711 1.383 . S
C712 C713 1.377 1_556 S
C713 H697 0.930 . S
C713 C712 1.377 1_554 S
C713 C714 1.379 . S
C714 H698 0.931 . S
C714 C708 1.383 1_554 S
C714 C713 1.379 . S
H715 C709 0.959 . S
H716 C709 0.961 . S
H717 C709 0.960 1_556 S
H718 C710 0.930 . S
H719 C711 0.929 . S
H720 C728 0.929 . S
H721 C730 0.930 . S
H722 C732 0.946 . S
H723 C735 0.930 . S
H724 C738 0.930 . S
H725 C740 0.960 . S
H726 C740 0.960 . S
H727 C740 0.960 . S
C728 H720 0.929 . S
C728 C729 1.377 . S
C728 C730 1.384 1_565 S
C729 C728 1.377 . S
C729 C735 1.389 1_556 S
C730 H721 0.930 . S
C730 C728 1.384 1_545 S
C730 C731 1.372 . S
C731 C730 1.372 . S
C731 C732 1.403 1_556 S
C731 C736 1.490 . S
C732 H722 0.946 . S
C732 C731 1.403 1_554 S
C732 C735 1.367 1_545 S
H733 C749 0.930 . S
H734 C750 0.931 . S
C735 H723 0.930 . S
C735 C729 1.389 1_554 S
C735 C732 1.367 1_565 S
C736 C731 1.490 . S
C736 C738 1.395 . S
C736 C739 1.403 1_556 S
H737 C743 0.930 . S
C738 H724 0.930 . S
C738 C736 1.395 . S
C738 C741 1.403 . S
C739 C736 1.403 1_554 S
C739 C740 1.524 . S
C739 C743 1.400 . S
C740 H725 0.960 . S
C740 H726 0.960 . S
C740 H727 0.960 . S
C740 C739 1.524 . S
C741 C738 1.403 . S
C741 C742 1.392 . S
C741 C745 1.495 . S
C742 C741 1.392 . S
C742 C743 1.385 1_556 S
C742 C744 1.478 . S
C743 H737 0.930 . S
C743 C739 1.400 . S
C743 C742 1.385 1_554 S
C744 C742 1.478 . S
C744 C746 1.381 . S
C744 C750 1.383 1_556 S
C745 C741 1.495 . S
C745 H751 0.959 . S
C745 H752 0.961 . S
C745 H753 0.960 . S
C746 C744 1.381 . S
C746 C747 1.394 . S
C746 H754 0.930 . S
C747 C746 1.394 . S
C747 C748 1.383 1_556 S
C747 H755 0.914 1_655 S
C748 C747 1.383 1_554 S
C748 C749 1.377 . S
C749 H733 0.930 . S
C749 C748 1.377 . S
C749 C750 1.379 . S
C750 H734 0.931 . S
C750 C744 1.383 1_554 S
C750 C749 1.379 . S
H751 C745 0.959 . S
H752 C745 0.961 . S
H753 C745 0.960 . S
H754 C746 0.930 . S
H755 C747 0.914 1_455 S
H756 C764 0.929 . S
H757 C766 0.930 . S
H758 C768 0.930 . S
H759 C771 0.929 . S
H760 C774 0.930 . S
H761 C776 0.960 . S
H762 C776 0.960 . S
H763 C776 0.960 . S
C764 H756 0.929 . S
C764 C765 1.377 . S
C764 C766 1.384 . S
C765 C764 1.377 . S
C765 C771 1.390 1_554 S
C766 H757 0.930 . S
C766 C764 1.384 . S
C766 C767 1.372 . S
C767 C766 1.372 . S
C767 C768 1.400 1_554 S
C767 C772 1.490 1_554 S
C768 H758 0.930 . S
C768 C767 1.400 1_556 S
C768 C771 1.386 . S
H769 C785 0.930 . S
H770 C786 0.931 . S
C771 H759 0.929 . S
C771 C765 1.390 1_556 S
C771 C768 1.386 . S
C772 C767 1.490 1_556 S
C772 C774 1.395 1_556 S
C772 C775 1.403 . S
H773 C779 0.930 . S
C774 H760 0.930 . S
C774 C772 1.395 1_554 S
C774 C777 1.403 . S
C775 C772 1.403 . S
C775 C776 1.524 . S
C775 C779 1.400 . S
C776 H761 0.960 . S
C776 H762 0.960 . S
C776 H763 0.960 . S
C776 C775 1.524 . S
C777 C774 1.403 . S
C777 C778 1.392 1_554 S
C777 C781 1.495 . S
C778 C777 1.392 1_556 S
C778 C779 1.385 . S
C778 C780 1.478 1_655 S
C779 H773 0.930 . S
C779 C775 1.400 . S
C779 C778 1.385 . S
C780 C778 1.478 1_455 S
C780 C782 1.381 1_556 S
C780 C786 1.383 . S
C781 C777 1.495 . S
C781 H787 0.959 . S
C781 H788 0.961 . S
C781 H789 0.960 . S
C782 C780 1.381 1_554 S
C782 C783 1.394 . S
C782 H790 0.930 . S
C783 C782 1.394 . S
C783 C784 1.383 1_554 S
C783 H791 0.929 . S
C784 C783 1.383 1_556 S
C784 C785 1.377 . S
C785 H769 0.930 . S
C785 C784 1.377 . S
C785 C786 1.379 . S
C786 H770 0.931 . S
C786 C780 1.383 . S
C786 C785 1.379 . S
H787 C781 0.959 . S
H788 C781 0.961 . S
H789 C781 0.960 . S
H790 C782 0.930 . S
H791 C783 0.929 . S
H792 C800 0.929 . S
H793 C802 0.930 . S
H794 C804 0.930 . S
H795 C807 0.929 . S
H796 C810 0.930 . S
H797 C812 0.960 . S
H798 C812 0.960 . S
H799 C812 0.960 . S
C800 H792 0.929 . S
C800 C801 1.377 . S
C800 C802 1.384 . S
C801 C800 1.377 . S
C801 C807 1.390 . S
C802 H793 0.930 . S
C802 C800 1.384 . S
C802 C803 1.372 . S
C803 C802 1.372 . S
C803 C804 1.400 . S
C803 C808 1.490 . S
C804 H794 0.930 . S
C804 C803 1.400 . S
C804 C807 1.386 . S
H805 C821 0.930 . S
H806 C822 0.931 . S
C807 H795 0.929 . S
C807 C801 1.390 . S
C807 C804 1.386 . S
C808 C803 1.490 . S
C808 C810 1.395 . S
C808 C811 1.403 . S
H809 C815 0.930 . S
C810 H796 0.930 . S
C810 C808 1.395 . S
C810 C813 1.403 . S
C811 C808 1.403 . S
C811 C812 1.524 . S
C811 C815 1.400 . S
C812 H797 0.960 . S
C812 H798 0.960 . S
C812 H799 0.960 . S
C812 C811 1.524 . S
C813 C810 1.403 . S
C813 C814 1.392 . S
C813 C817 1.495 . S
C814 C813 1.392 . S
C814 C815 1.385 . S
C814 C816 1.478 . S
C815 H809 0.930 . S
C815 C811 1.400 . S
C815 C814 1.385 . S
C816 C814 1.478 . S
C816 C818 1.381 . S
C816 C822 1.383 . S
C817 C813 1.495 . S
C817 H823 0.959 . S
C817 H824 0.961 . S
C817 H825 0.960 . S
C818 C816 1.381 . S
C818 C819 1.394 . S
C818 H826 0.930 . S
C819 C818 1.394 . S
C819 C820 1.383 . S
C819 H827 0.929 . S
C820 C819 1.383 . S
C820 C821 1.377 . S
C821 H805 0.930 . S
C821 C820 1.377 . S
C821 C822 1.379 . S
C822 H806 0.931 . S
C822 C816 1.383 . S
C822 C821 1.379 . S
H823 C817 0.959 . S
H824 C817 0.961 . S
H825 C817 0.960 . S
H826 C818 0.930 . S
H827 C819 0.929 . S
H828 C836 0.929 . S
H829 C838 0.930 . S
H830 C840 0.930 . S
H831 C843 0.929 . S
H832 C846 0.930 . S
H833 C848 0.960 . S
H834 C848 0.960 . S
H835 C848 0.960 . S
C836 H828 0.929 . S
C836 C837 1.377 . S
C836 C838 1.384 . S
C837 C836 1.377 . S
C837 C843 1.390 . S
C838 H829 0.930 . S
C838 C836 1.384 . S
C838 C839 1.372 . S
C839 C838 1.372 . S
C839 C840 1.400 . S
C839 C844 1.490 . S
C840 H830 0.930 . S
C840 C839 1.400 . S
C840 C843 1.386 . S
H841 C857 0.930 . S
H842 C858 0.931 . S
C843 H831 0.929 . S
C843 C837 1.390 . S
C843 C840 1.386 . S
C844 C839 1.490 . S
C844 C846 1.395 . S
C844 C847 1.403 . S
H845 C851 0.930 . S
C846 H832 0.930 . S
C846 C844 1.395 . S
C846 C849 1.403 . S
C847 C844 1.403 . S
C847 C848 1.524 . S
C847 C851 1.400 . S
C848 H833 0.960 . S
C848 H834 0.960 . S
C848 H835 0.960 . S
C848 C847 1.524 . S
C849 C846 1.403 . S
C849 C850 1.392 . S
C849 C853 1.495 . S
C850 C849 1.392 . S
C850 C851 1.385 . S
C850 C852 1.478 . S
C851 H845 0.930 . S
C851 C847 1.400 . S
C851 C850 1.385 . S
C852 C850 1.478 . S
C852 C854 1.381 . S
C852 C858 1.383 . S
C853 C849 1.495 . S
C853 H859 0.959 . S
C853 H860 0.961 . S
C853 H861 0.960 . S
C854 C852 1.381 . S
C854 C855 1.394 . S
C854 H862 0.930 . S
C855 C854 1.394 . S
C855 C856 1.383 . S
C855 H863 0.929 . S
C856 C855 1.383 . S
C856 C857 1.377 . S
C857 H841 0.930 . S
C857 C856 1.377 . S
C857 C858 1.379 . S
C858 H842 0.931 . S
C858 C852 1.383 . S
C858 C857 1.379 . S
H859 C853 0.959 . S
H860 C853 0.961 . S
H861 C853 0.960 . S
H862 C854 0.930 . S
H863 C855 0.929 . S
H864 C872 0.929 . S
H865 C874 0.930 . S
H866 C876 0.930 . S
H867 C879 0.929 . S
H868 C882 0.930 . S
H869 C884 0.960 . S
H870 C884 0.960 . S
H871 C884 0.960 . S
C872 H864 0.929 . S
C872 C873 1.377 . S
C872 C874 1.384 . S
C873 C872 1.377 . S
C873 C879 1.390 . S
C874 H865 0.930 . S
C874 C872 1.384 . S
C874 C875 1.372 . S
C875 C874 1.372 . S
C875 C876 1.400 . S
C875 C880 1.490 . S
C876 H866 0.930 . S
C876 C875 1.400 . S
C876 C879 1.386 . S
H877 C893 0.930 . S
H878 C894 0.931 . S
C879 H867 0.929 . S
C879 C873 1.390 . S
C879 C876 1.386 . S
C880 C875 1.490 . S
C880 C882 1.395 . S
C880 C883 1.403 . S
H881 C887 0.930 . S
C882 H868 0.930 . S
C882 C880 1.395 . S
C882 C885 1.403 . S
C883 C880 1.403 . S
C883 C884 1.524 . S
C883 C887 1.400 . S
C884 H869 0.960 . S
C884 H870 0.960 . S
C884 H871 0.960 . S
C884 C883 1.524 . S
C885 C882 1.403 . S
C885 C886 1.392 . S
C885 C889 1.495 . S
C886 C885 1.392 . S
C886 C887 1.385 . S
C886 C888 1.478 . S
C887 H881 0.930 . S
C887 C883 1.400 . S
C887 C886 1.385 . S
C888 C886 1.478 . S
C888 C890 1.381 . S
C888 C894 1.383 . S
C889 C885 1.495 . S
C889 H895 0.959 . S
C889 H896 0.961 . S
C889 H897 0.960 . S
C890 C888 1.381 . S
C890 C891 1.394 . S
C890 H898 0.930 . S
C891 C890 1.394 . S
C891 C892 1.383 . S
C891 H899 0.929 . S
C892 C891 1.383 . S
C892 C893 1.377 . S
C893 H877 0.930 . S
C893 C892 1.377 . S
C893 C894 1.379 . S
C894 H878 0.931 . S
C894 C888 1.383 . S
C894 C893 1.379 . S
H895 C889 0.959 . S
H896 C889 0.961 . S
H897 C889 0.960 . S
H898 C890 0.930 . S
H899 C891 0.929 . S
H900 C908 0.929 . S
H901 C910 0.930 . S
H902 C912 0.930 . S
H903 C915 0.929 . S
H904 C918 0.930 . S
H905 C920 0.960 . S
H906 C920 0.960 . S
H907 C920 0.960 . S
C908 H900 0.929 . S
C908 C909 1.377 . S
C908 C910 1.384 . S
C909 C908 1.377 . S
C909 C915 1.390 . S
C910 H901 0.930 . S
C910 C908 1.384 . S
C910 C911 1.372 . S
C911 C910 1.372 . S
C911 C912 1.400 . S
C911 C916 1.490 . S
C912 H902 0.930 . S
C912 C911 1.400 . S
C912 C915 1.386 . S
H913 C929 0.930 . S
H914 C930 0.931 . S
C915 H903 0.929 . S
C915 C909 1.390 . S
C915 C912 1.386 . S
C916 C911 1.490 . S
C916 C918 1.395 . S
C916 C919 1.403 . S
H917 C923 0.930 . S
C918 H904 0.930 . S
C918 C916 1.395 . S
C918 C921 1.403 . S
C919 C916 1.403 . S
C919 C920 1.524 . S
C919 C923 1.400 . S
C920 H905 0.960 . S
C920 H906 0.960 . S
C920 H907 0.960 . S
C920 C919 1.524 . S
C921 C918 1.403 . S
C921 C922 1.392 . S
C921 C925 1.495 . S
C922 C921 1.392 . S
C922 C923 1.385 . S
C922 C924 1.478 . S
C923 H917 0.930 . S
C923 C919 1.400 . S
C923 C922 1.385 . S
C924 C922 1.478 . S
C924 C926 1.381 . S
C924 C930 1.383 . S
C925 C921 1.495 . S
C925 H931 0.959 . S
C925 H932 0.961 . S
C925 H933 0.960 . S
C926 C924 1.381 . S
C926 C927 1.394 . S
C926 H934 0.930 . S
C927 C926 1.394 . S
C927 C928 1.383 . S
C927 H935 0.929 . S
C928 C927 1.383 . S
C928 C929 1.377 . S
C929 H913 0.930 . S
C929 C928 1.377 . S
C929 C930 1.379 . S
C930 H914 0.931 . S
C930 C924 1.383 . S
C930 C929 1.379 . S
H931 C925 0.959 . S
H932 C925 0.961 . S
H933 C925 0.960 . S
H934 C926 0.930 . S
H935 C927 0.929 . S
H936 C944 0.929 . S
H937 C946 0.930 . S
H938 C948 0.930 . S
H939 C951 0.929 . S
H940 C954 0.930 . S
H941 C956 0.960 . S
H942 C956 0.960 . S
H943 C956 0.960 . S
C944 H936 0.929 . S
C944 C945 1.377 . S
C944 C946 1.384 . S
C945 C944 1.377 . S
C945 C951 1.390 . S
C946 H937 0.930 . S
C946 C944 1.384 . S
C946 C947 1.372 . S
C947 C946 1.372 . S
C947 C948 1.400 . S
C947 C952 1.490 . S
C948 H938 0.930 . S
C948 C947 1.400 . S
C948 C951 1.386 . S
H949 C965 0.930 . S
H950 C966 0.931 . S
C951 H939 0.929 . S
C951 C945 1.390 . S
C951 C948 1.386 . S
C952 C947 1.490 . S
C952 C954 1.395 . S
C952 C955 1.403 . S
H953 C959 0.930 . S
C954 H940 0.930 . S
C954 C952 1.395 . S
C954 C957 1.403 . S
C955 C952 1.403 . S
C955 C956 1.524 . S
C955 C959 1.400 . S
C956 H941 0.960 . S
C956 H942 0.960 . S
C956 H943 0.960 . S
C956 C955 1.524 . S
C957 C954 1.403 . S
C957 C958 1.392 . S
C957 C961 1.495 . S
C958 C957 1.392 . S
C958 C959 1.385 . S
C958 C960 1.478 . S
C959 H953 0.930 . S
C959 C955 1.400 . S
C959 C958 1.385 . S
C960 C958 1.478 . S
C960 C962 1.381 . S
C960 C966 1.383 . S
C961 C957 1.495 . S
C961 H967 0.959 . S
C961 H968 0.961 . S
C961 H969 0.960 . S
C962 C960 1.381 . S
C962 C963 1.394 . S
C962 H970 0.930 . S
C963 C962 1.394 . S
C963 C964 1.383 . S
C963 H971 0.929 . S
C964 C963 1.383 . S
C964 C965 1.377 . S
C965 H949 0.930 . S
C965 C964 1.377 . S
C965 C966 1.379 . S
C966 H950 0.931 . S
C966 C960 1.383 . S
C966 C965 1.379 . S
H967 C961 0.959 . S
H968 C961 0.961 . S
H969 C961 0.960 . S
H970 C962 0.930 . S
H971 C963 0.929 . S
H972 C980 0.929 . S
H973 C982 0.930 . S
H974 C984 0.930 . S
H975 C987 0.929 . S
H976 C990 0.930 . S
H977 C992 0.960 . S
H978 C992 0.960 . S
H979 C992 0.960 . S
C980 H972 0.929 . S
C980 C981 1.377 . S
C980 C982 1.384 . S
C981 C980 1.377 . S
C981 C987 1.390 . S
C982 H973 0.930 . S
C982 C980 1.384 . S
C982 C983 1.372 . S
C983 C982 1.372 . S
C983 C984 1.400 . S
C983 C988 1.490 . S
C984 H974 0.930 . S
C984 C983 1.400 . S
C984 C987 1.386 . S
H985 C1001 0.930 . S
H986 C1002 0.931 . S
C987 H975 0.929 . S
C987 C981 1.390 . S
C987 C984 1.386 . S
C988 C983 1.490 . S
C988 C990 1.395 . S
C988 C991 1.403 . S
H989 C995 0.930 . S
C990 H976 0.930 . S
C990 C988 1.395 . S
C990 C993 1.403 . S
C991 C988 1.403 . S
C991 C992 1.524 . S
C991 C995 1.400 . S
C992 H977 0.960 . S
C992 H978 0.960 . S
C992 H979 0.960 . S
C992 C991 1.524 . S
C993 C990 1.403 . S
C993 C994 1.392 . S
C993 C997 1.495 . S
C994 C993 1.392 . S
C994 C995 1.385 . S
C994 C996 1.478 . S
C995 H989 0.930 . S
C995 C991 1.400 . S
C995 C994 1.385 . S
C996 C994 1.478 . S
C996 C998 1.381 . S
C996 C1002 1.383 . S
C997 C993 1.495 . S
C997 H1003 0.959 . S
C997 H1004 0.961 . S
C997 H1005 0.960 . S
C998 C996 1.381 . S
C998 C999 1.394 . S
C998 H1006 0.930 . S
C999 C998 1.394 . S
C999 C1000 1.383 . S
C999 H1007 0.929 . S
C1000 C999 1.383 . S
C1000 C1001 1.377 . S
C1001 H985 0.930 . S
C1001 C1000 1.377 . S
C1001 C1002 1.379 . S
C1002 H986 0.931 . S
C1002 C996 1.383 . S
C1002 C1001 1.379 . S
H1003 C997 0.959 . S
H1004 C997 0.961 . S
H1005 C997 0.960 . S
H1006 C998 0.930 . S
H1007 C999 0.929 . S
H1008 C1016 0.929 . S
H1009 C1018 0.930 . S
H1010 C1020 0.930 . S
H1011 C1023 0.929 . S
H1012 C1026 0.930 . S
H1013 C1028 0.960 . S
H1014 C1028 0.960 . S
H1015 C1028 0.960 . S
C1016 H1008 0.929 . S
C1016 C1017 1.377 . S
C1016 C1018 1.384 . S
C1017 C1016 1.377 . S
C1017 C1023 1.390 1_455 S
C1018 H1009 0.930 . S
C1018 C1016 1.384 . S
C1018 C1019 1.372 . S
C1019 C1018 1.372 . S
C1019 C1020 1.400 1_455 S
C1019 C1024 1.490 . S
C1020 H1010 0.930 . S
C1020 C1019 1.400 1_655 S
C1020 C1023 1.386 . S
H1021 C1037 0.930 1_655 S
H1022 C1038 0.931 1_655 S
C1023 H1011 0.929 . S
C1023 C1017 1.390 1_655 S
C1023 C1020 1.386 . S
C1024 C1019 1.490 . S
C1024 C1026 1.395 . S
C1024 C1027 1.403 1_455 S
H1025 C1031 0.930 . S
C1026 H1012 0.930 . S
C1026 C1024 1.395 . S
C1026 C1029 1.403 . S
C1027 C1024 1.403 1_655 S
C1027 C1028 1.524 . S
C1027 C1031 1.400 . S
C1028 H1013 0.960 . S
C1028 H1014 0.960 . S
C1028 H1015 0.960 . S
C1028 C1027 1.524 . S
C1029 C1026 1.403 . S
C1029 C1030 1.392 . S
C1029 C1033 1.495 . S
C1030 C1029 1.392 . S
C1030 C1031 1.385 1_455 S
C1030 C1032 1.478 . S
C1031 H1025 0.930 . S
C1031 C1027 1.400 . S
C1031 C1030 1.385 1_655 S
C1032 C1030 1.478 . S
C1032 C1034 1.381 . S
C1032 C1038 1.383 . S
C1033 C1029 1.495 . S
C1033 H1039 0.959 . S
C1033 H1040 0.961 . S
C1033 H1041 0.960 . S
C1034 C1032 1.381 . S
C1034 C1035 1.394 . S
C1034 H1042 0.930 . S
C1035 C1034 1.394 . S
C1035 C1036 1.383 . S
C1035 H1043 0.929 . S
C1036 C1035 1.383 . S
C1036 C1037 1.377 . S
C1037 H1021 0.930 1_455 S
C1037 C1036 1.377 . S
C1037 C1038 1.379 . S
C1038 H1022 0.931 1_455 S
C1038 C1032 1.383 . S
C1038 C1037 1.379 . S
H1039 C1033 0.959 . S
H1040 C1033 0.961 . S
H1041 C1033 0.960 . S
H1042 C1034 0.930 . S
H1043 C1035 0.929 . S
H1044 C1052 0.929 . S
H1045 C1054 0.930 . S
H1046 C1056 0.930 . S
H1047 C1059 0.929 . S
H1048 C1062 0.930 . S
H1049 C1064 0.960 . S
H1050 C1064 0.960 . S
H1051 C1064 0.960 . S
C1052 H1044 0.929 . S
C1052 C1053 1.377 . S
C1052 C1054 1.384 . S
C1053 C1052 1.377 . S
C1053 C1059 1.390 . S
C1054 H1045 0.930 . S
C1054 C1052 1.384 . S
C1054 C1055 1.372 . S
C1055 C1054 1.372 . S
C1055 C1056 1.400 . S
C1055 C1060 1.490 . S
C1056 H1046 0.930 . S
C1056 C1055 1.400 . S
C1056 C1059 1.386 . S
H1057 C1073 0.930 . S
H1058 C1074 0.931 . S
C1059 H1047 0.929 . S
C1059 C1053 1.390 . S
C1059 C1056 1.386 . S
C1060 C1055 1.490 . S
C1060 C1062 1.395 . S
C1060 C1063 1.403 . S
H1061 C1067 0.930 . S
C1062 H1048 0.930 . S
C1062 C1060 1.395 . S
C1062 C1065 1.403 . S
C1063 C1060 1.403 . S
C1063 C1064 1.524 . S
C1063 C1067 1.400 . S
C1064 H1049 0.960 . S
C1064 H1050 0.960 . S
C1064 H1051 0.960 . S
C1064 C1063 1.524 . S
C1065 C1062 1.403 . S
C1065 C1066 1.392 . S
C1065 C1069 1.495 . S
C1066 C1065 1.392 . S
C1066 C1067 1.385 . S
C1066 C1068 1.478 . S
C1067 H1061 0.930 . S
C1067 C1063 1.400 . S
C1067 C1066 1.385 . S
C1068 C1066 1.478 . S
C1068 C1070 1.381 . S
C1068 C1074 1.383 . S
C1069 C1065 1.495 . S
C1069 H1075 0.959 . S
C1069 H1076 0.961 . S
C1069 H1077 0.960 . S
C1070 C1068 1.381 . S
C1070 C1071 1.394 . S
C1070 H1078 0.930 . S
C1071 C1070 1.394 . S
C1071 C1072 1.383 . S
C1071 H1079 0.929 . S
C1072 C1071 1.383 . S
C1072 C1073 1.377 . S
C1073 H1057 0.930 . S
C1073 C1072 1.377 . S
C1073 C1074 1.379 . S
C1074 H1058 0.931 . S
C1074 C1068 1.383 . S
C1074 C1073 1.379 . S
H1075 C1069 0.959 . S
H1076 C1069 0.961 . S
H1077 C1069 0.960 . S
H1078 C1070 0.930 . S
H1079 C1071 0.929 . S
H1080 C1088 0.874 1_565 S
H1081 C1090 0.910 1_565 S
H1082 C1092 0.930 . S
H1083 C1095 0.929 . S
H1084 C1098 0.930 . S
H1085 C1100 0.960 . S
H1086 C1100 0.960 . S
H1087 C1100 0.960 . S
C1088 H1080 0.874 1_545 S
C1088 C1089 1.436 . S
C1088 C1090 1.383 . S
C1089 C1088 1.436 . S
C1089 C1095 1.390 . S
C1090 H1081 0.910 1_545 S
C1090 C1088 1.383 . S
C1090 C1091 1.391 . S
C1091 C1090 1.391 . S
C1091 C1092 1.400 . S
C1091 C1096 1.490 . S
C1092 H1082 0.930 . S
C1092 C1091 1.400 . S
C1092 C1095 1.386 . S
H1093 C1109 0.930 . S
H1094 C1110 0.931 . S
C1095 H1083 0.929 . S
C1095 C1089 1.390 . S
C1095 C1092 1.386 . S
C1096 C1091 1.490 . S
C1096 C1098 1.395 1_545 S
C1096 C1099 1.403 . S
H1097 C1103 0.930 . S
C1098 H1084 0.930 . S
C1098 C1096 1.395 1_565 S
C1098 C1101 1.403 . S
C1099 C1096 1.403 . S
C1099 C1100 1.524 . S
C1099 C1103 1.400 . S
C1100 H1085 0.960 . S
C1100 H1086 0.960 . S
C1100 H1087 0.960 . S
C1100 C1099 1.524 . S
C1101 C1098 1.403 . S
C1101 C1102 1.392 1_565 S
C1101 C1105 1.495 . S
C1102 C1101 1.392 1_545 S
C1102 C1103 1.385 . S
C1102 C1104 1.478 . S
C1103 H1097 0.930 . S
C1103 C1099 1.400 . S
C1103 C1102 1.385 . S
C1104 C1102 1.478 . S
C1104 C1106 1.381 1_545 S
C1104 C1110 1.383 . S
C1105 C1101 1.495 . S
C1105 H1111 0.959 . S
C1105 H1112 0.961 . S
C1105 H1113 0.960 . S
C1106 C1104 1.381 1_565 S
C1106 C1107 1.394 . S
C1106 H1114 0.930 . S
C1107 C1106 1.394 . S
C1107 C1108 1.383 1_565 S
C1107 H1115 0.929 . S
C1108 C1107 1.383 1_545 S
C1108 C1109 1.377 . S
C1109 H1093 0.930 . S
C1109 C1108 1.377 . S
C1109 C1110 1.379 . S
C1110 H1094 0.931 . S
C1110 C1104 1.383 . S
C1110 C1109 1.379 . S
H1111 C1105 0.959 . S
H1112 C1105 0.961 . S
H1113 C1105 0.960 . S
H1114 C1106 0.930 . S
H1115 C1107 0.929 . S
H1116 C1124 0.929 . S
H1117 C1126 0.930 . S
H1118 C1128 0.930 . S
H1119 C1131 0.929 . S
H1120 C1134 0.930 . S
H1121 C1136 0.960 . S
H1122 C1136 0.960 . S
H1123 C1136 0.960 . S
C1124 H1116 0.929 . S
C1124 C1125 1.377 . S
C1124 C1126 1.384 . S
C1125 C1124 1.377 . S
C1125 C1131 1.390 . S
C1126 H1117 0.930 . S
C1126 C1124 1.384 . S
C1126 C1127 1.372 . S
C1127 C1126 1.372 . S
C1127 C1128 1.400 . S
C1127 C1132 1.490 . S
C1128 H1118 0.930 . S
C1128 C1127 1.400 . S
C1128 C1131 1.386 . S
H1129 C1145 0.930 . S
H1130 C1146 0.931 . S
C1131 H1119 0.929 . S
C1131 C1125 1.390 . S
C1131 C1128 1.386 . S
C1132 C1127 1.490 . S
C1132 C1134 1.395 . S
C1132 C1135 1.403 . S
H1133 C1139 0.930 . S
C1134 H1120 0.930 . S
C1134 C1132 1.395 . S
C1134 C1137 1.403 . S
C1135 C1132 1.403 . S
C1135 C1136 1.524 . S
C1135 C1139 1.400 . S
C1136 H1121 0.960 . S
C1136 H1122 0.960 . S
C1136 H1123 0.960 . S
C1136 C1135 1.524 . S
C1137 C1134 1.403 . S
C1137 C1138 1.392 . S
C1137 C1141 1.495 . S
C1138 C1137 1.392 . S
C1138 C1139 1.385 . S
C1138 C1140 1.478 . S
C1139 H1133 0.930 . S
C1139 C1135 1.400 . S
C1139 C1138 1.385 . S
C1140 C1138 1.478 . S
C1140 C1142 1.381 1_556 S
C1140 C1146 1.383 1_556 S
C1141 C1137 1.495 . S
C1141 H1147 0.959 . S
C1141 H1148 0.961 . S
C1141 H1149 0.960 . S
C1142 C1140 1.381 1_554 S
C1142 C1143 1.394 . S
C1142 H1150 0.930 . S
C1143 C1142 1.394 . S
C1143 C1144 1.383 . S
C1143 H1151 0.929 . S
C1144 C1143 1.383 . S
C1144 C1145 1.377 . S
C1145 H1129 0.930 . S
C1145 C1144 1.377 . S
C1145 C1146 1.379 . S
C1146 H1130 0.931 . S
C1146 C1140 1.383 1_554 S
C1146 C1145 1.379 . S
H1147 C1141 0.959 . S
H1148 C1141 0.961 . S
H1149 C1141 0.960 . S
H1150 C1142 0.930 . S
H1151 C1143 0.929 . S
H1152 C1160 0.929 . S
H1153 C1162 0.930 . S
H1154 C1164 0.930 . S
H1155 C1167 0.929 . S
H1156 C1170 0.930 . S
H1157 C1172 0.960 . S
H1158 C1172 0.960 . S
H1159 C1172 0.960 . S
C1160 H1152 0.929 . S
C1160 C1161 1.377 . S
C1160 C1162 1.384 . S
C1161 C1160 1.377 . S
C1161 C1167 1.390 . S
C1162 H1153 0.930 . S
C1162 C1160 1.384 . S
C1162 C1163 1.372 . S
C1163 C1162 1.372 . S
C1163 C1164 1.400 . S
C1163 C1168 1.490 . S
C1164 H1154 0.930 . S
C1164 C1163 1.400 . S
C1164 C1167 1.386 . S
H1165 C1181 0.930 . S
H1166 C1182 0.931 . S
C1167 H1155 0.929 . S
C1167 C1161 1.390 . S
C1167 C1164 1.386 . S
C1168 C1163 1.490 . S
C1168 C1170 1.395 . S
C1168 C1171 1.403 . S
H1169 C1175 0.930 . S
C1170 H1156 0.930 . S
C1170 C1168 1.395 . S
C1170 C1173 1.403 . S
C1171 C1168 1.403 . S
C1171 C1172 1.524 . S
C1171 C1175 1.400 . S
C1172 H1157 0.960 . S
C1172 H1158 0.960 . S
C1172 H1159 0.960 . S
C1172 C1171 1.524 . S
C1173 C1170 1.403 . S
C1173 C1174 1.392 . S
C1173 C1177 1.495 . S
C1174 C1173 1.392 . S
C1174 C1175 1.385 . S
C1174 C1176 1.478 . S
C1175 H1169 0.930 . S
C1175 C1171 1.400 . S
C1175 C1174 1.385 . S
C1176 C1174 1.478 . S
C1176 C1178 1.381 1_556 S
C1176 C1182 1.383 1_556 S
C1177 C1173 1.495 . S
C1177 H1183 0.959 . S
C1177 H1184 0.961 . S
C1177 H1185 0.960 . S
C1178 C1176 1.381 1_554 S
C1178 C1179 1.394 . S
C1178 H1186 0.930 . S
C1179 C1178 1.394 . S
C1179 C1180 1.383 . S
C1179 H1187 0.929 . S
C1180 C1179 1.383 . S
C1180 C1181 1.377 . S
C1181 H1165 0.930 . S
C1181 C1180 1.377 . S
C1181 C1182 1.379 . S
C1182 H1166 0.931 . S
C1182 C1176 1.383 1_554 S
C1182 C1181 1.379 . S
H1183 C1177 0.959 . S
H1184 C1177 0.961 . S
H1185 C1177 0.960 . S
H1186 C1178 0.930 . S
H1187 C1179 0.929 . S
H1188 C1196 0.929 . S
H1189 C1198 0.930 . S
H1190 C1200 0.930 . S
H1191 C1203 0.929 . S
H1192 C1206 0.930 . S
H1193 C1208 0.960 . S
H1194 C1208 0.960 . S
H1195 C1208 0.960 . S
C1196 H1188 0.929 . S
C1196 C1197 1.377 . S
C1196 C1198 1.384 . S
C1197 C1196 1.377 . S
C1197 C1203 1.390 . S
C1198 H1189 0.930 . S
C1198 C1196 1.384 . S
C1198 C1199 1.372 . S
C1199 C1198 1.372 . S
C1199 C1200 1.400 . S
C1199 C1204 1.490 . S
C1200 H1190 0.930 . S
C1200 C1199 1.400 . S
C1200 C1203 1.386 . S
H1201 C1217 0.930 . S
H1202 C1218 0.931 . S
C1203 H1191 0.929 . S
C1203 C1197 1.390 . S
C1203 C1200 1.386 . S
C1204 C1199 1.490 . S
C1204 C1206 1.395 . S
C1204 C1207 1.403 . S
H1205 C1211 0.930 . S
C1206 H1192 0.930 . S
C1206 C1204 1.395 . S
C1206 C1209 1.403 . S
C1207 C1204 1.403 . S
C1207 C1208 1.524 . S
C1207 C1211 1.400 . S
C1208 H1193 0.960 . S
C1208 H1194 0.960 . S
C1208 H1195 0.960 . S
C1208 C1207 1.524 . S
C1209 C1206 1.403 . S
C1209 C1210 1.392 . S
C1209 C1213 1.495 . S
C1210 C1209 1.392 . S
C1210 C1211 1.385 . S
C1210 C1212 1.478 . S
C1211 H1205 0.930 . S
C1211 C1207 1.400 . S
C1211 C1210 1.385 . S
C1212 C1210 1.478 . S
C1212 C1214 1.381 1_556 S
C1212 C1218 1.383 1_556 S
C1213 C1209 1.495 . S
C1213 H1219 0.959 . S
C1213 H1220 0.961 . S
C1213 H1221 0.960 . S
C1214 C1212 1.381 1_554 S
C1214 C1215 1.394 . S
C1214 H1222 0.930 . S
C1215 C1214 1.394 . S
C1215 C1216 1.383 . S
C1215 H1223 0.929 . S
C1216 C1215 1.383 . S
C1216 C1217 1.377 . S
C1217 H1201 0.930 . S
C1217 C1216 1.377 . S
C1217 C1218 1.379 . S
C1218 H1202 0.931 . S
C1218 C1212 1.383 1_554 S
C1218 C1217 1.379 . S
H1219 C1213 0.959 . S
H1220 C1213 0.961 . S
H1221 C1213 0.960 . S
H1222 C1214 0.930 . S
H1223 C1215 0.929 . S
H1224 C1232 0.929 . S
H1225 C1234 0.930 . S
H1226 C1236 0.930 . S
H1227 C1239 0.929 . S
H1228 C1242 0.930 . S
H1229 C1244 0.960 . S
H1230 C1244 0.960 . S
H1231 C1244 0.960 . S
C1232 H1224 0.929 . S
C1232 C1233 1.377 . S
C1232 C1234 1.384 . S
C1233 C1232 1.377 . S
C1233 C1239 1.390 . S
C1234 H1225 0.930 . S
C1234 C1232 1.384 . S
C1234 C1235 1.372 . S
C1235 C1234 1.372 . S
C1235 C1236 1.400 . S
C1235 C1240 1.490 . S
C1236 H1226 0.930 . S
C1236 C1235 1.400 . S
C1236 C1239 1.386 . S
H1237 C1253 0.930 . S
H1238 C1254 0.931 1_554 S
C1239 H1227 0.929 . S
C1239 C1233 1.390 . S
C1239 C1236 1.386 . S
C1240 C1235 1.490 . S
C1240 C1242 1.395 . S
C1240 C1243 1.403 . S
H1241 C1247 0.930 . S
C1242 H1228 0.930 . S
C1242 C1240 1.395 . S
C1242 C1245 1.403 . S
C1243 C1240 1.403 . S
C1243 C1244 1.524 . S
C1243 C1247 1.400 . S
C1244 H1229 0.960 . S
C1244 H1230 0.960 . S
C1244 H1231 0.960 . S
C1244 C1243 1.524 . S
C1245 C1242 1.403 . S
C1245 C1246 1.392 . S
C1245 C1249 1.495 . S
C1246 C1245 1.392 . S
C1246 C1247 1.385 . S
C1246 C1248 1.478 . S
C1247 H1241 0.930 . S
C1247 C1243 1.400 . S
C1247 C1246 1.385 . S
C1248 C1246 1.478 . S
C1248 C1250 1.381 1_554 S
C1248 C1254 1.383 1_554 S
C1249 C1245 1.495 . S
C1249 H1255 0.959 . S
C1249 H1256 0.961 . S
C1249 H1257 0.960 . S
C1250 C1248 1.381 1_556 S
C1250 C1251 1.394 . S
C1250 H1258 0.923 1_556 S
C1251 C1250 1.394 . S
C1251 C1252 1.383 . S
C1251 H1259 0.929 . S
C1252 C1251 1.383 . S
C1252 C1253 1.377 . S
C1253 H1237 0.930 . S
C1253 C1252 1.377 . S
C1253 C1254 1.379 . S
C1254 H1238 0.931 1_556 S
C1254 C1248 1.383 1_556 S
C1254 C1253 1.379 . S
H1255 C1249 0.959 . S
H1256 C1249 0.961 . S
H1257 C1249 0.960 . S
H1258 C1250 0.923 1_554 S
H1259 C1251 0.929 . S
H1260 C1268 0.929 . S
H1261 C1270 0.933 . S
H1262 C1272 0.930 1_554 S
H1263 C1275 0.929 . S
H1264 C1278 0.930 . S
H1265 C1280 0.960 . S
H1266 C1280 0.960 . S
H1267 C1280 0.960 . S
C1268 H1260 0.929 . S
C1268 C1269 1.377 . S
C1268 C1270 1.384 . S
C1269 C1268 1.377 . S
C1269 C1275 1.390 . S
C1270 H1261 0.933 . S
C1270 C1268 1.384 . S
C1270 C1271 1.372 1_556 S
C1271 C1270 1.372 1_554 S
C1271 C1272 1.400 1_554 S
C1271 C1276 1.490 . S
C1272 H1262 0.930 1_556 S
C1272 C1271 1.400 1_556 S
C1272 C1275 1.386 . S
H1273 C1289 0.930 . S
H1274 C1290 0.931 . S
C1275 H1263 0.929 . S
C1275 C1269 1.390 . S
C1275 C1272 1.386 . S
C1276 C1271 1.490 . S
C1276 C1278 1.395 . S
C1276 C1279 1.403 . S
H1277 C1283 0.930 . S
C1278 H1264 0.930 . S
C1278 C1276 1.395 . S
C1278 C1281 1.403 . S
C1279 C1276 1.403 . S
C1279 C1280 1.524 . S
C1279 C1283 1.400 . S
C1280 H1265 0.960 . S
C1280 H1266 0.960 . S
C1280 H1267 0.960 . S
C1280 C1279 1.524 . S
C1281 C1278 1.403 . S
C1281 C1282 1.392 . S
C1281 C1285 1.495 . S
C1282 C1281 1.392 . S
C1282 C1283 1.385 . S
C1282 C1284 1.478 . S
C1283 H1277 0.930 . S
C1283 C1279 1.400 . S
C1283 C1282 1.385 . S
C1284 C1282 1.478 . S
C1284 C1286 1.381 . S
C1284 C1290 1.383 . S
C1285 C1281 1.495 . S
C1285 H1291 0.959 . S
C1285 H1292 0.961 . S
C1285 H1293 0.960 . S
C1286 C1284 1.381 . S
C1286 C1287 1.394 . S
C1286 H1294 0.930 . S
C1287 C1286 1.394 . S
C1287 C1288 1.383 . S
C1287 H1295 0.929 . S
C1288 C1287 1.383 . S
C1288 C1289 1.377 . S
C1289 H1273 0.930 . S
C1289 C1288 1.377 . S
C1289 C1290 1.379 . S
C1290 H1274 0.931 . S
C1290 C1284 1.383 . S
C1290 C1289 1.379 . S
H1291 C1285 0.959 . S
H1292 C1285 0.961 . S
H1293 C1285 0.960 . S
H1294 C1286 0.930 . S
H1295 C1287 0.929 . S
H1296 C1304 0.929 . S
H1297 C1306 0.930 . S
H1298 C1308 0.930 . S
H1299 C1311 0.929 . S
H1300 C1314 0.930 . S
H1301 C1316 0.960 . S
H1302 C1316 0.960 . S
H1303 C1316 0.960 . S
C1304 H1296 0.929 . S
C1304 C1305 1.377 . S
C1304 C1306 1.384 . S
C1305 C1304 1.377 . S
C1305 C1311 1.390 . S
C1306 H1297 0.930 . S
C1306 C1304 1.384 . S
C1306 C1307 1.372 . S
C1307 C1306 1.372 . S
C1307 C1308 1.400 . S
C1307 C1312 1.490 . S
C1308 H1298 0.930 . S
C1308 C1307 1.400 . S
C1308 C1311 1.386 . S
H1309 C1325 0.930 . S
H1310 C1326 0.931 1_554 S
C1311 H1299 0.929 . S
C1311 C1305 1.390 . S
C1311 C1308 1.386 . S
C1312 C1307 1.490 . S
C1312 C1314 1.395 . S
C1312 C1315 1.403 . S
H1313 C1319 0.930 . S
C1314 H1300 0.930 . S
C1314 C1312 1.395 . S
C1314 C1317 1.403 . S
C1315 C1312 1.403 . S
C1315 C1316 1.524 . S
C1315 C1319 1.400 . S
C1316 H1301 0.960 . S
C1316 H1302 0.960 . S
C1316 H1303 0.960 . S
C1316 C1315 1.524 . S
C1317 C1314 1.403 . S
C1317 C1318 1.392 . S
C1317 C1321 1.495 . S
C1318 C1317 1.392 . S
C1318 C1319 1.385 . S
C1318 C1320 1.478 . S
C1319 H1313 0.930 . S
C1319 C1315 1.400 . S
C1319 C1318 1.385 . S
C1320 C1318 1.478 . S
C1320 C1322 1.381 1_554 S
C1320 C1326 1.383 1_554 S
C1321 C1317 1.495 . S
C1321 H1327 0.959 . S
C1321 H1328 0.961 . S
C1321 H1329 0.960 . S
C1322 C1320 1.381 1_556 S
C1322 C1323 1.394 . S
C1322 H1330 0.927 1_556 S
C1323 C1322 1.394 . S
C1323 C1324 1.383 . S
C1323 H1331 0.929 . S
C1324 C1323 1.383 . S
C1324 C1325 1.377 . S
C1325 H1309 0.930 . S
C1325 C1324 1.377 . S
C1325 C1326 1.379 . S
C1326 H1310 0.931 1_556 S
C1326 C1320 1.383 1_556 S
C1326 C1325 1.379 . S
H1327 C1321 0.959 . S
H1328 C1321 0.961 . S
H1329 C1321 0.960 . S
H1330 C1322 0.927 1_554 S
H1331 C1323 0.929 . S
C369 C19 1.814 . S
C388 C295 1.868 . S
C405 C59 1.823 . S
C424 C335 1.868 . S
C441 C99 1.813 . S
C460 C255 1.867 . S
C477 C179 1.822 . S
C496 C95 1.876 . S
C513 C219 1.820 . S
C532 C15 1.863 . S
C549 C55 1.874 . S
C568 C139 1.834 . S
C585 C299 1.814 . S
C604 C215 1.870 . S
C621 C339 1.818 . S
C640 C135 1.878 . S
C657 C175 1.873 . S
C676 C259 1.815 . S
C693 C89 1.708 . S
C712 C5 1.691 . S
C729 C45 1.696 . S
C748 C9 1.706 . S
C765 C49 1.709 . S
C784 C85 1.681 . S
C801 C125 1.698 . S
C820 C209 1.699 . S
C837 C129 1.708 . S
C856 C165 1.682 . S
C873 C169 1.707 . S
C892 C205 1.697 . S
C909 C329 1.706 . S
C928 C245 1.701 . S
C945 C285 1.695 . S
C964 C249 1.705 . S
C981 C325 1.695 . S
C1000 C289 1.703 . S
C1017 C18 0.983 . S
C1036 C8 0.948 . S
C1053 C58 0.994 . S
C1072 C48 1.005 . S
C1089 C98 0.981 . S
C1108 C88 0.949 . S
C1125 C128 0.989 . S
C1144 C138 1.021 . S
C1161 C168 0.980 . S
C1180 C178 0.991 . S
C1197 C208 0.994 . S
C1216 C218 1.012 . S
C1233 C258 0.979 . S
C1252 C248 0.956 . S
C1269 C288 0.983 . S
C1288 C298 1.006 . S
C1305 C338 0.984 . S
C1324 C328 0.948 . S
