# Generated by pormake.
# Topology fst, (5)-cn, num edge types: 1
# Building blocks:
#     Node 0, Type 0, BuildingBlock: BEQFEK_clean_sbu_0, # of connection points: 5
#     Node 1, Type 0, BuildingBlock: BEQFEK_clean_sbu_0, # of connection points: 5
#     Node 2, Type 0, BuildingBlock: BEQFEK_clean_sbu_0, # of connection points: 5
#     Node 3, Type 0, BuildingBlock: BEQFEK_clean_sbu_0, # of connection points: 5
#     Node 4, Type 0, BuildingBlock: BEQFEK_clean_sbu_0, # of connection points: 5
#     Node 5, Type 0, BuildingBlock: BEQFEK_clean_sbu_0, # of connection points: 5
#     Node 6, Type 0, BuildingBlock: BEQFEK_clean_sbu_0, # of connection points: 5
#     Node 7, Type 0, BuildingBlock: BEQFEK_clean_sbu_0, # of connection points: 5
#     Node 8, Type 0, BuildingBlock: BEQFEK_clean_sbu_0, # of connection points: 5
#     Node 9, Type 0, BuildingBlock: BEQFEK_clean_sbu_0, # of connection points: 5
#     Node 10, Type 0, BuildingBlock: BEQFEK_clean_sbu_0, # of connection points: 5
#     Node 11, Type 0, BuildingBlock: BEQFEK_clean_sbu_0, # of connection points: 5
#     Edge 12, Type (0, 0), BuildingBlock: OJICUG_clean_linker_0, # of connection points: 2
#     Edge 13, Type (0, 0), BuildingBlock: OJICUG_clean_linker_0, # of connection points: 2
#     Edge 14, Type (0, 0), BuildingBlock: OJICUG_clean_linker_0, # of connection points: 2
#     Edge 15, Type (0, 0), BuildingBlock: OJICUG_clean_linker_0, # of connection points: 2
#     Edge 16, Type (0, 0), BuildingBlock: OJICUG_clean_linker_0, # of connection points: 2
#     Edge 17, Type (0, 0), BuildingBlock: OJICUG_clean_linker_0, # of connection points: 2
#     Edge 18, Type (0, 0), BuildingBlock: OJICUG_clean_linker_0, # of connection points: 2
#     Edge 19, Type (0, 0), BuildingBlock: OJICUG_clean_linker_0, # of connection points: 2
#     Edge 20, Type (0, 0), BuildingBlock: OJICUG_clean_linker_0, # of connection points: 2
#     Edge 21, Type (0, 0), BuildingBlock: OJICUG_clean_linker_0, # of connection points: 2
#     Edge 22, Type (0, 0), BuildingBlock: OJICUG_clean_linker_0, # of connection points: 2
#     Edge 23, Type (0, 0), BuildingBlock: OJICUG_clean_linker_0, # of connection points: 2
#     Edge 24, Type (0, 0), BuildingBlock: OJICUG_clean_linker_0, # of connection points: 2
#     Edge 25, Type (0, 0), BuildingBlock: OJICUG_clean_linker_0, # of connection points: 2
#     Edge 26, Type (0, 0), BuildingBlock: OJICUG_clean_linker_0, # of connection points: 2
#     Edge 27, Type (0, 0), BuildingBlock: OJICUG_clean_linker_0, # of connection points: 2
#     Edge 28, Type (0, 0), BuildingBlock: OJICUG_clean_linker_0, # of connection points: 2
#     Edge 29, Type (0, 0), BuildingBlock: OJICUG_clean_linker_0, # of connection points: 2
#     Edge 30, Type (0, 0), BuildingBlock: OJICUG_clean_linker_0, # of connection points: 2
#     Edge 31, Type (0, 0), BuildingBlock: OJICUG_clean_linker_0, # of connection points: 2
#     Edge 32, Type (0, 0), BuildingBlock: OJICUG_clean_linker_0, # of connection points: 2
#     Edge 33, Type (0, 0), BuildingBlock: OJICUG_clean_linker_0, # of connection points: 2
#     Edge 34, Type (0, 0), BuildingBlock: OJICUG_clean_linker_0, # of connection points: 2
#     Edge 35, Type (0, 0), BuildingBlock: OJICUG_clean_linker_0, # of connection points: 2
#     Edge 36, Type (0, 0), BuildingBlock: OJICUG_clean_linker_0, # of connection points: 2
#     Edge 37, Type (0, 0), BuildingBlock: OJICUG_clean_linker_0, # of connection points: 2
#     Edge 38, Type (0, 0), BuildingBlock: OJICUG_clean_linker_0, # of connection points: 2
#     Edge 39, Type (0, 0), BuildingBlock: OJICUG_clean_linker_0, # of connection points: 2
#     Edge 40, Type (0, 0), BuildingBlock: OJICUG_clean_linker_0, # of connection points: 2
#     Edge 41, Type (0, 0), BuildingBlock: OJICUG_clean_linker_0, # of connection points: 2
# Relax obj value: 0.025
# Max RMSD: 0.073
# Mean RMSD: 0.073
data_MOF--net-fst--node1-BEQFEK_clean_sbu_0--edge1-OJICUG_clean_linker_0
_symmetry_space_group_name_H-M    P1
_symmetry_Int_Tables_number       1
_symmetry_cell_setting            triclinic
loop_
_symmetry_equiv_pos_as_xyz
'x, y, z'
_cell_length_a     55.817819
_cell_length_b     55.822526
_cell_length_c     15.602253
_cell_angle_alpha  89.990458
_cell_angle_beta   90.006738
_cell_angle_gamma 119.9975
loop_
_atom_site_label
_atom_site_type_symbol
_atom_site_fract_x
_atom_site_fract_y
_atom_site_fract_z
_atom_type_partial_charge
Co0 Co 0.11116 0.45962 0.25431 0.0
Co1 Co 0.11154 0.45844 0.05393 0.0
C2 C 0.06041 0.42105 0.1522 0.0
O3 O 0.07302 0.43115 0.22266 0.0
O4 O 0.07277 0.42925 0.08019 0.0
C5 C 0.10312 0.43955 0.43039 0.0
O6 O 0.08647 0.41474 0.39958 0.0
C7 C 0.10631 0.44811 0.86489 0.0
C8 C 0.14665 0.48319 0.82449 0.0
C9 C 0.12265 0.46088 0.79323 0.0
N10 N 0.12042 0.46214 0.93503 0.0
N11 N 0.14437 0.48311 0.91007 0.0
C12 C 0.077 0.42489 0.86668 0.0
H13 H 0.06556 0.42812 0.91917 0.0
H14 H 0.07678 0.40519 0.87873 0.0
H15 H 0.06634 0.4233 0.80516 0.0
C16 C 0.15824 0.44983 0.22976 0.0
N17 N 0.13748 0.45313 0.19923 0.0
N18 N 0.13729 0.45188 0.11499 0.0
C19 C 0.15773 0.44727 0.08941 0.0
C20 C 0.17177 0.44608 0.16103 0.0
C21 C 0.16601 0.45219 0.32243 0.0
H22 H 0.16663 0.47076 0.35047 0.0
H23 H 0.14997 0.43378 0.35714 0.0
H24 H 0.18638 0.45358 0.33147 0.0
O25 O 0.11687 0.49649 0.22513 0.0
O26 O 0.11594 0.49501 0.08349 0.0
H27 H 0.17713 0.46378 0.96886 0.0
H28 H 0.17434 0.43119 0.99535 0.0
C29 C 0.16352 0.4433 -0.00155 0.0
H30 H 0.14397 0.43237 0.96158 0.0
H31 H 0.1591 0.49761 0.95179 0.0
O32 O 0.11524 0.45996 0.37958 0.0
C33 C 0.11796 0.50767 0.15318 0.0
Co34 Co 0.65316 0.11079 0.26751 0.0
Co35 Co 0.65194 0.11089 0.06651 0.0
C36 C 0.63888 0.05975 0.16347 0.0
O37 O 0.6425 0.07247 0.23433 0.0
O38 O 0.64227 0.07208 0.09176 0.0
C39 C 0.65645 0.09652 0.44459 0.0
O40 O 0.64751 0.07135 0.41572 0.0
C41 C 0.66012 0.10647 0.88024 0.0
C42 C 0.6523 0.13909 0.83111 0.0
C43 C 0.65878 0.11928 0.80525 0.0
N44 N 0.65466 0.1183 0.94681 0.0
N45 N 0.64994 0.13769 0.91682 0.0
C46 C 0.6677 0.08443 0.88977 0.0
H47 H 0.67759 0.08627 0.95301 0.0
H48 H 0.68191 0.08584 0.83772 0.0
H49 H 0.64863 0.06387 0.88659 0.0
C50 C 0.7097 0.15733 0.2353 0.0
N51 N 0.68521 0.13668 0.20742 0.0
N52 N 0.68495 0.13676 0.12313 0.0
C53 C 0.70933 0.15757 0.09451 0.0
C54 C 0.72583 0.17138 0.16478 0.0
C55 C 0.71739 0.16324 0.32794 0.0
H56 H 0.70433 0.17063 0.35863 0.0
H57 H 0.71323 0.14389 0.36067 0.0
H58 H 0.73953 0.17896 0.33639 0.0
O59 O 0.62152 0.11681 0.24439 0.0
O60 O 0.62074 0.11567 0.10258 0.0
H61 H 0.70095 0.17217 0.97828 0.0
H62 H 0.73682 0.18274 0.99192 0.0
C63 C 0.71544 0.16554 0.00209 0.0
H64 H 0.71212 0.14734 0.96412 0.0
H65 H 0.64507 0.14999 0.95511 0.0
O66 O 0.66018 0.11561 0.39254 0.0
C67 C 0.61081 0.11787 0.17345 0.0
Co68 Co 0.54393 0.65411 0.27992 0.0
Co69 Co 0.5427 0.65266 0.07915 0.0
C70 C 0.58087 0.63989 0.17545 0.0
O71 O 0.5718 0.64364 0.24621 0.0
O72 O 0.57181 0.64306 0.10372 0.0
C73 C 0.55794 0.65259 0.45714 0.0
O74 O 0.56842 0.63764 0.4287 0.0
C75 C 0.55413 0.65859 0.89223 0.0
C76 C 0.51547 0.65585 0.84509 0.0
C77 C 0.54044 0.65886 0.81802 0.0
N78 N 0.53783 0.65552 0.95969 0.0
N79 N 0.51478 0.65385 0.93092 0.0
C80 C 0.58264 0.66268 0.90004 0.0
H81 H 0.59227 0.67344 0.96099 0.0
H82 H 0.59577 0.67484 0.84522 0.0
H83 H 0.58131 0.64217 0.90098 0.0
C84 C 0.55255 0.71018 0.24671 0.0
N85 N 0.54956 0.68592 0.21953 0.0
N86 N 0.54994 0.68571 0.13527 0.0
C87 C 0.55352 0.71001 0.10605 0.0
C88 C 0.55511 0.72625 0.17556 0.0
C89 C 0.55045 0.71654 0.33866 0.0
H90 H 0.53202 0.69881 0.36815 0.0
H91 H 0.56898 0.71934 0.37369 0.0
H92 H 0.54884 0.73545 0.34571 0.0
O93 O 0.50632 0.62235 0.25825 0.0
O94 O 0.5067 0.62154 0.11636 0.0
H95 H 0.53453 0.70767 0.98513 0.0
H96 H 0.56531 0.74041 0.00514 0.0
C97 C 0.55558 0.71768 0.01334 0.0
H98 H 0.56801 0.71035 0.97851 0.0
H99 H 0.49852 0.6513 0.97015 0.0
O100 O 0.54698 0.66167 0.40448 0.0
C101 C 0.49456 0.61163 0.18733 0.0
Co102 Co 0.8898 0.54054 0.25968 0.0
Co103 Co 0.88871 0.54148 0.05946 0.0
C104 C 0.94024 0.57884 0.15675 0.0
O105 O 0.92788 0.56888 0.22762 0.0
O106 O 0.9276 0.57055 0.08518 0.0
C107 C 0.89914 0.56019 0.4362 0.0
O108 O 0.9168 0.58475 0.40573 0.0
C109 C 0.89431 0.55182 0.87067 0.0
C110 C 0.8543 0.5165 0.82913 0.0
C111 C 0.87833 0.53893 0.79851 0.0
N112 N 0.87998 0.53776 0.94044 0.0
N113 N 0.85624 0.51662 0.91482 0.0
C114 C 0.92367 0.57496 0.87336 0.0
H115 H 0.93502 0.57118 0.92489 0.0
H116 H 0.92398 0.59458 0.88765 0.0
H117 H 0.9344 0.57703 0.81166 0.0
C118 C 0.84315 0.55102 0.23705 0.0
N119 N 0.86347 0.54728 0.20535 0.0
N120 N 0.86322 0.54838 0.12115 0.0
C121 C 0.8429 0.55335 0.09658 0.0
C122 C 0.82931 0.55491 0.16927 0.0
C123 C 0.83752 0.55125 0.33075 0.0
H124 H 0.83228 0.53099 0.35926 0.0
H125 H 0.8565 0.5674 0.36272 0.0
H126 H 0.82052 0.55564 0.34293 0.0
O127 O 0.88391 0.50357 0.23043 0.0
O128 O 0.88418 0.5049 0.08885 0.0
H129 H 0.82246 0.53319 0.98071 0.0
H130 H 0.82329 0.56523 -0.00185 0.0
C131 C 0.83537 0.55456 0.00516 0.0
H132 H 0.85432 0.56545 0.96555 0.0
H133 H 0.84149 0.50195 0.95612 0.0
O134 O 0.88593 0.54007 0.38508 0.0
C135 C 0.88246 0.4923 0.15841 0.0
Co136 Co 0.34693 0.88953 0.26563 0.0
Co137 Co 0.34788 0.89021 0.06488 0.0
C138 C 0.36088 0.94092 0.16248 0.0
O139 O 0.35736 0.92788 0.23268 0.0
O140 O 0.35749 0.92891 0.09022 0.0
C141 C 0.34817 0.905 0.44278 0.0
O142 O 0.36261 0.93047 0.41417 0.0
C143 C 0.34172 0.89564 0.87796 0.0
C144 C 0.34399 0.85941 0.83129 0.0
C145 C 0.34123 0.88151 0.80392 0.0
N146 N 0.34469 0.88239 0.94556 0.0
N147 N 0.34607 0.86083 0.91707 0.0
C148 C 0.33798 0.92027 0.88553 0.0
H149 H 0.3274 0.9194 0.94666 0.0
H150 H 0.32578 0.92128 0.83089 0.0
H151 H 0.35859 0.93932 0.88593 0.0
C152 C 0.29073 0.8423 0.23323 0.0
N153 N 0.31497 0.86352 0.20578 0.0
N154 N 0.31496 0.8643 0.12155 0.0
C155 C 0.2905 0.84377 0.09263 0.0
C156 C 0.27441 0.82903 0.1623 0.0
C157 C 0.28457 0.83367 0.32513 0.0
H158 H 0.3024 0.83302 0.35399 0.0
H159 H 0.28174 0.84929 0.36076 0.0
H160 H 0.26572 0.8131 0.33215 0.0
O161 O 0.37856 0.88365 0.24216 0.0
O162 O 0.37923 0.88542 0.10034 0.0
H163 H 0.2921 0.82726 0.97068 0.0
H164 H 0.2597 0.8258 0.99259 0.0
C165 C 0.28248 0.8385 0.0001 0.0
H166 H 0.28998 0.85839 0.96589 0.0
H167 H 0.34849 0.84708 0.95647 0.0
O168 O 0.3396 0.88495 0.39034 0.0
C169 C 0.38923 0.88292 0.17076 0.0
Co170 Co 0.45695 0.34714 0.28345 0.0
Co171 Co 0.4591 0.34861 0.08245 0.0
C172 C 0.42059 0.3615 0.17784 0.0
O173 O 0.4293 0.35776 0.24931 0.0
O174 O 0.42994 0.35827 0.10675 0.0
C175 C 0.43949 0.34405 0.46079 0.0
O176 O 0.42358 0.35342 0.43231 0.0
C177 C 0.44652 0.34042 0.89631 0.0
C178 C 0.48707 0.34874 0.84664 0.0
C179 C 0.46066 0.34198 0.82111 0.0
N180 N 0.46392 0.34603 0.96269 0.0
N181 N 0.4881 0.35105 0.93238 0.0
C182 C 0.41682 0.3325 0.90617 0.0
H183 H 0.40889 0.32249 0.96934 0.0
H184 H 0.40409 0.3183 0.85404 0.0
H185 H 0.41508 0.35144 0.9034 0.0
C186 C 0.44723 0.29068 0.25113 0.0
N187 N 0.45107 0.31517 0.22324 0.0
N188 N 0.45178 0.31555 0.13897 0.0
C189 C 0.4485 0.29129 0.11039 0.0
C190 C 0.44558 0.27471 0.18066 0.0
C191 C 0.44511 0.28286 0.34375 0.0
H192 H 0.42985 0.28703 0.37591 0.0
H193 H 0.4386 0.26069 0.35205 0.0
H194 H 0.46546 0.29582 0.3751 0.0
O195 O 0.49468 0.37889 0.26168 0.0
O196 O 0.49497 0.37965 0.11982 0.0
H197 H 0.44727 0.26422 0.00802 0.0
H198 H 0.436 0.28842 0.9794 0.0
C199 C 0.45096 0.28543 0.01815 0.0
H200 H 0.47208 0.30027 0.99521 0.0
H201 H 0.50536 0.3561 0.97046 0.0
O202 O 0.45454 0.33998 0.40842 0.0
C203 C 0.50678 0.38957 0.19113 0.0
Co204 Co 0.54201 0.88963 0.0683 0.0
Co205 Co 0.54097 0.88962 0.26933 0.0
C206 C 0.57904 0.94067 0.1721 0.0
O207 O 0.56977 0.92793 0.10134 0.0
O208 O 0.57019 0.92838 0.24391 0.0
C209 C 0.55995 0.90369 0.89135 0.0
O210 O 0.57676 0.92869 0.9204 0.0
C211 C 0.55367 0.89391 0.45559 0.0
C212 C 0.51313 0.86145 0.50469 0.0
C213 C 0.53948 0.88113 0.53058 0.0
N214 N 0.53633 0.88219 0.38903 0.0
N215 N 0.51218 0.8629 0.41901 0.0
C216 C 0.58334 0.91581 0.44603 0.0
H217 H 0.59129 0.91398 0.38261 0.0
H218 H 0.5961 0.91421 0.49783 0.0
H219 H 0.58499 0.93644 0.44962 0.0
C220 C 0.552 0.84306 0.10026 0.0
N221 N 0.54819 0.86372 0.12823 0.0
N222 N 0.54797 0.86368 0.21252 0.0
C223 C 0.55159 0.8429 0.24106 0.0
C224 C 0.5542 0.82906 0.17074 0.0
C225 C 0.55369 0.83712 0.00759 0.0
H226 H 0.5689 0.85645 0.97482 0.0
H227 H 0.56005 0.82136 -0.00097 0.0
H228 H 0.53324 0.8298 0.97703 0.0
O229 O 0.5044 0.88369 0.09183 0.0
O230 O 0.505 0.88494 0.23363 0.0
H231 H 0.55402 0.81776 0.34356 0.0
H232 H 0.56494 0.85323 0.37116 0.0
C233 C 0.54991 0.83501 0.33351 0.0
H234 H 0.52888 0.8285 0.35781 0.0
H235 H 0.49497 0.85069 0.38072 0.0
O236 O 0.54412 0.88479 0.94321 0.0
C237 C 0.49276 0.88271 0.16296 0.0
Co238 Co 0.65179 0.54101 0.08328 0.0
Co239 Co 0.65339 0.54232 0.28364 0.0
C240 C 0.63966 0.57966 0.18513 0.0
O241 O 0.64214 0.5695 0.11476 0.0
O242 O 0.64384 0.57151 0.25722 0.0
C243 C 0.66374 0.56106 0.90724 0.0
O244 O 0.67176 0.58583 0.93809 0.0
C245 C 0.65843 0.55261 0.4727 0.0
C246 C 0.66387 0.51763 0.51303 0.0
C247 C 0.66205 0.53986 0.54435 0.0
N248 N 0.65858 0.53863 0.40254 0.0
N249 N 0.66167 0.51772 0.42746 0.0
C250 C 0.6522 0.57574 0.47097 0.0
H251 H 0.63762 0.57253 0.41822 0.0
H252 H 0.67166 0.59551 0.45938 0.0
H253 H 0.64298 0.57718 0.53236 0.0
C254 C 0.70868 0.55085 0.10789 0.0
N255 N 0.68462 0.54754 0.13838 0.0
N256 N 0.6857 0.54885 0.22262 0.0
C257 C 0.71076 0.55351 0.24822 0.0
C258 C 0.72598 0.55467 0.17663 0.0
C259 C 0.71408 0.54845 0.01525 0.0
H260 H 0.69617 0.52983 0.98731 0.0
H261 H 0.71638 0.56681 0.98041 0.0
H262 H 0.73311 0.54713 0.00626 0.0
O263 O 0.62064 0.50414 0.11258 0.0
O264 O 0.62122 0.50574 0.2542 0.0
H265 H 0.71377 0.53712 0.36887 0.0
H266 H 0.74349 0.56975 0.34218 0.0
C267 C 0.72056 0.55757 0.33916 0.0
H268 H 0.7119 0.56847 0.37597 0.0
H269 H 0.66196 0.50326 0.38571 0.0
O270 O 0.65554 0.54065 0.95802 0.0
C271 C 0.61056 0.49302 0.18459 0.0
Co272 Co 0.11002 0.65347 0.05522 0.0
Co273 Co 0.11073 0.65194 0.25621 0.0
C274 C 0.0593 0.63903 0.16086 0.0
O275 O 0.07175 0.64282 0.08937 0.0
O276 O 0.07189 0.64223 0.23193 0.0
C277 C 0.09552 0.65619 0.87782 0.0
O278 O 0.07017 0.64636 0.90623 0.0
C279 C 0.10625 0.65999 0.44237 0.0
C280 C 0.13867 0.65194 0.492 0.0
C281 C 0.11889 0.65851 0.51755 0.0
N282 N 0.11813 0.65451 0.37597 0.0
N283 N 0.1374 0.64965 0.40625 0.0
C284 C 0.08431 0.66771 0.43257 0.0
H285 H 0.08638 0.67779 0.36953 0.0
H286 H 0.08563 0.6818 0.48487 0.0
H287 H 0.06371 0.64868 0.43505 0.0
C288 C 0.15668 0.70996 0.08764 0.0
N289 N 0.13608 0.68544 0.11549 0.0
N290 N 0.13641 0.68503 0.19976 0.0
C291 C 0.15735 0.70932 0.22839 0.0
C292 C 0.17097 0.72593 0.15814 0.0
C293 C 0.16235 0.71782 0.99505 0.0
H294 H 0.1429 0.7136 0.96293 0.0
H295 H 0.17797 0.74 0.9868 0.0
H296 H 0.16978 0.7049 0.96361 0.0
O297 O 0.11605 0.62175 0.07687 0.0
O298 O 0.11562 0.62095 0.21873 0.0
H299 H 0.18309 0.73645 0.33081 0.0
H300 H 0.14767 0.71205 0.35942 0.0
C301 C 0.16566 0.71519 0.32063 0.0
H302 H 0.17208 0.70044 0.34348 0.0
H303 H 0.1497 0.64473 0.36815 0.0
O304 O 0.11476 0.66067 0.93028 0.0
C305 C 0.11751 0.61106 0.14735 0.0
Co306 Co 0.45818 0.11124 0.07304 0.0
Co307 Co 0.4586 0.11058 0.27367 0.0
C308 C 0.42069 0.05991 0.17614 0.0
O309 O 0.43017 0.07294 0.10591 0.0
O310 O 0.42943 0.0719 0.24837 0.0
C311 C 0.44573 0.0956 0.89593 0.0
O312 O 0.43699 0.07044 0.92464 0.0
C313 C 0.44752 0.10476 0.4609 0.0
C314 C 0.48536 0.14185 0.50695 0.0
C315 C 0.46103 0.11916 0.53469 0.0
N316 N 0.4633 0.11842 0.39299 0.0
N317 N 0.48587 0.14049 0.42111 0.0
C318 C 0.41965 0.07936 0.454 0.0
H319 H 0.40928 0.07999 0.39407 0.0
H320 H 0.40652 0.07745 0.50993 0.0
H321 H 0.42222 0.0609 0.45147 0.0
C322 C 0.44929 0.15851 0.10547 0.0
N323 N 0.45235 0.1373 0.1329 0.0
N324 N 0.45157 0.13652 0.21713 0.0
C325 C 0.4476 0.15702 0.24606 0.0
C326 C 0.44622 0.17176 0.17641 0.0
C327 C 0.4517 0.16711 0.01356 0.0
H328 H 0.47009 0.16765 0.98446 0.0
H329 H 0.43317 0.15155 0.97814 0.0
H330 H 0.45353 0.18773 0.00658 0.0
O331 O 0.49565 0.11702 0.09616 0.0
O332 O 0.49472 0.11532 0.23799 0.0
H333 H 0.46557 0.17395 0.36782 0.0
H334 H 0.43416 0.17449 0.34585 0.0
C335 C 0.44472 0.16223 0.33855 0.0
H336 H 0.43272 0.14232 0.37301 0.0
H337 H 0.50168 0.15464 0.38142 0.0
O338 O 0.45529 0.11568 0.94846 0.0
C339 C 0.50712 0.11777 0.16742 0.0
Co340 Co 0.34966 0.46003 0.0784 0.0
Co341 Co 0.34769 0.45924 0.27863 0.0
C342 C 0.36179 0.42177 0.18156 0.0
O343 O 0.35936 0.43167 0.1106 0.0
O344 O 0.35749 0.43014 0.25305 0.0
C345 C 0.33927 0.44036 0.90184 0.0
O346 O 0.33226 0.41577 0.93226 0.0
C347 C 0.34289 0.44886 0.4674 0.0
C348 C 0.33842 0.48431 0.50902 0.0
C349 C 0.33986 0.46178 0.53959 0.0
N350 N 0.34271 0.46299 0.39766 0.0
N351 N 0.34024 0.4842 0.42333 0.0
C352 C 0.34894 0.42562 0.46465 0.0
H353 H 0.36415 0.4294 0.41339 0.0
H354 H 0.3296 0.40607 0.44987 0.0
H355 H 0.35744 0.42337 0.52645 0.0
C356 C 0.29256 0.44963 0.10104 0.0
N357 N 0.31662 0.45336 0.13274 0.0
N358 N 0.3153 0.45235 0.21695 0.0
C359 C 0.29003 0.44745 0.24152 0.0
C360 C 0.27488 0.44585 0.16881 0.0
C361 C 0.28666 0.44931 0.00733 0.0
H362 H 0.30167 0.46953 0.97862 0.0
H363 H 0.28946 0.43312 0.97554 0.0
H364 H 0.26526 0.44492 0.99514 0.0
O365 O 0.38077 0.49699 0.10751 0.0
O366 O 0.37976 0.49581 0.24911 0.0
H367 H 0.28996 0.46779 0.35722 0.0
H368 H 0.25862 0.43587 0.34001 0.0
C369 C 0.28136 0.44639 0.33294 0.0
H370 H 0.28932 0.43542 0.37265 0.0
H371 H 0.34026 0.49892 0.38207 0.0
O372 O 0.34625 0.46048 0.953 0.0
C373 C 0.39062 0.50833 0.17944 0.0
Co374 Co 0.89023 0.34674 0.05668 0.0
Co375 Co 0.89037 0.34799 0.25741 0.0
C376 C 0.94137 0.36092 0.16125 0.0
O377 O 0.92857 0.35722 0.09045 0.0
O378 O 0.92911 0.35768 0.23294 0.0
C379 C 0.90587 0.34911 0.87944 0.0
O380 O 0.93119 0.36486 0.90789 0.0
C381 C 0.89603 0.34242 0.44444 0.0
C382 C 0.85959 0.34427 0.49121 0.0
C383 C 0.88192 0.34191 0.51852 0.0
N384 N 0.88256 0.34502 0.37681 0.0
N385 N 0.86087 0.34616 0.40536 0.0
C386 C 0.92091 0.33908 0.43698 0.0
H387 H 0.91996 0.32814 0.37658 0.0
H388 H 0.92236 0.32739 0.49239 0.0
H389 H 0.93976 0.35983 0.4351 0.0
C390 C 0.84284 0.2906 0.08934 0.0
N391 N 0.86406 0.31485 0.11675 0.0
N392 N 0.86463 0.31496 0.20101 0.0
C393 C 0.84396 0.2906 0.23 0.0
C394 C 0.82935 0.27442 0.16033 0.0
C395 C 0.83439 0.28432 -0.00266 0.0
H396 H 0.83372 0.30208 0.96801 0.0
H397 H 0.85013 0.28154 0.96227 0.0
H398 H 0.81387 0.26542 0.99016 0.0
O399 O 0.88432 0.37844 0.07854 0.0
O400 O 0.88544 0.37911 0.22043 0.0
H401 H 0.82703 0.29244 0.35091 0.0
H402 H 0.82566 0.26001 0.33047 0.0
C403 C 0.83838 0.28277 0.32261 0.0
H404 H 0.85816 0.29035 0.35759 0.0
H405 H 0.84693 0.34829 0.36596 0.0
O406 O 0.88582 0.33926 0.93214 0.0
C407 C 0.88321 0.38907 0.14957 0.0
C408 C 0.11909 0.57224 0.07067 0.0
C409 C 0.12002 0.58584 0.14747 0.0
H410 H 0.11782 0.53695 0.01204 0.0
C411 C 0.12199 0.57434 0.22557 0.0
H412 H 0.11764 0.58056 0.00941 0.0
C413 C 0.12206 0.54938 0.22713 0.0
C414 C 0.12018 0.53526 0.15065 0.0
H415 H 0.12292 0.58431 0.28602 0.0
H416 H 0.12303 0.5409 0.28864 0.0
C417 C 0.11918 0.54721 0.07224 0.0
C418 C 0.57236 0.12028 0.24915 0.0
C419 C 0.5855 0.12023 0.17244 0.0
H420 H 0.53746 0.1197 0.30781 0.0
C421 C 0.57345 0.12106 0.09402 0.0
H422 H 0.58109 0.11973 0.31063 0.0
C423 C 0.5484 0.12101 0.0923 0.0
C424 C 0.53478 0.12012 0.16894 0.0
H425 H 0.58306 0.12119 0.03359 0.0
H426 H 0.53943 0.12106 0.03076 0.0
C427 C 0.5473 0.12023 0.24743 0.0
C428 C 0.42873 0.54979 0.1058 0.0
C429 C 0.41601 0.53591 0.18217 0.0
H430 H 0.46323 0.58451 0.04755 0.0
C431 C 0.42854 0.54804 0.26085 0.0
H432 H 0.41962 0.54115 0.04407 0.0
C433 C 0.45368 0.57302 0.26292 0.0
C434 C 0.46684 0.5864 0.18635 0.0
H435 H 0.41926 0.53796 0.32097 0.0
H436 H 0.46309 0.58148 0.32447 0.0
C437 C 0.45381 0.57471 0.10786 0.0
C438 C 0.88092 0.42772 0.07434 0.0
C439 C 0.88067 0.41427 0.15078 0.0
H440 H 0.88156 0.46282 0.01661 0.0
C441 C 0.87927 0.42587 0.22938 0.0
H442 H 0.88192 0.41933 0.01271 0.0
C443 C 0.87908 0.45077 0.23167 0.0
C444 C 0.88028 0.46473 0.15544 0.0
H445 H 0.87886 0.41601 0.28959 0.0
H446 H 0.87857 0.45934 0.29348 0.0
C447 C 0.88072 0.45268 0.07664 0.0
C448 C 0.42678 0.88036 0.09014 0.0
C449 C 0.41451 0.88053 0.16884 0.0
H450 H 0.46095 0.8808 0.02633 0.0
C451 C 0.42737 0.87969 0.24525 0.0
H452 H 0.41738 0.88086 0.02992 0.0
C453 C 0.45236 0.87961 0.24309 0.0
C454 C 0.46511 0.88039 0.16445 0.0
H455 H 0.41847 0.87969 0.30694 0.0
H456 H 0.46195 0.87952 0.30336 0.0
C457 C 0.45179 0.8803 0.08797 0.0
C458 C 0.57293 0.45126 0.11092 0.0
C459 C 0.5852 0.46542 0.18731 0.0
H460 H 0.53884 0.41627 0.05227 0.0
C461 C 0.5723 0.45351 0.2658 0.0
H462 H 0.58234 0.45971 0.04935 0.0
C463 C 0.5472 0.42847 0.26755 0.0
C464 C 0.53449 0.41481 0.19085 0.0
H465 H 0.58124 0.46382 0.32593 0.0
H466 H 0.53747 0.42018 0.32887 0.0
C467 C 0.54791 0.42628 0.11266 0.0
C468 C 0.22448 0.42393 0.20568 0.0
C469 C 0.24803 0.44508 0.16499 0.0
H470 H 0.18165 0.40794 0.23744 0.0
C471 C 0.24612 0.46611 0.12182 0.0
H472 H 0.22534 0.40719 0.23787 0.0
C473 C 0.22115 0.46615 0.11984 0.0
C474 C 0.19781 0.44539 0.16216 0.0
H475 H 0.26407 0.48274 0.09052 0.0
H476 H 0.22017 0.48268 0.08661 0.0
C477 C 0.19957 0.42426 0.2051 0.0
C478 C 0.80024 0.22491 0.11601 0.0
C479 C 0.80314 0.24777 0.16227 0.0
H480 H 0.77337 0.18235 0.08204 0.0
C481 C 0.78073 0.24523 0.21026 0.0
H482 H 0.81738 0.22644 0.07906 0.0
C483 C 0.75568 0.2203 0.21135 0.0
C484 C 0.75268 0.19744 0.16487 0.0
H485 H 0.78246 0.2627 0.24577 0.0
H486 H 0.7385 0.21899 0.24754 0.0
C487 C 0.77519 0.19985 0.11764 0.0
C488 C 0.53547 0.75525 0.12564 0.0
C489 C 0.55546 0.75285 0.17342 0.0
H490 H 0.51928 0.78134 0.08847 0.0
C491 C 0.57544 0.77579 0.21932 0.0
H492 H 0.5197 0.73771 0.09041 0.0
C493 C 0.57534 0.8008 0.2176 0.0
C494 C 0.55511 0.80307 0.17063 0.0
H495 H 0.59115 0.77437 0.25609 0.0
H496 H 0.59103 0.81836 0.25296 0.0
C497 C 0.53524 0.78013 0.12446 0.0
C498 C 0.75526 0.53456 0.21776 0.0
C499 C 0.75271 0.55536 0.17559 0.0
H500 H 0.78155 0.51793 0.24707 0.0
C501 C 0.77564 0.57655 0.13294 0.0
H502 H 0.73772 0.51799 0.25079 0.0
C503 C 0.80087 0.57688 0.1325 0.0
C504 C 0.80325 0.55569 0.17302 0.0
H505 H 0.77406 0.59289 0.10073 0.0
H506 H 0.81851 0.59366 0.10055 0.0
C507 C 0.78026 0.5346 0.21591 0.0
C508 C 0.21977 0.75567 0.11027 0.0
C509 C 0.19712 0.75269 0.15789 0.0
H510 H 0.26212 0.78231 0.07493 0.0
C511 C 0.19982 0.77514 0.20616 0.0
H512 H 0.21823 0.73853 0.07329 0.0
C513 C 0.22499 0.8001 0.2077 0.0
C514 C 0.24764 0.80295 0.16033 0.0
H515 H 0.18249 0.77334 0.24268 0.0
H516 H 0.22674 0.81718 0.24548 0.0
C517 C 0.2448 0.78062 0.11129 0.0
C518 C 0.42563 0.2006 0.13098 0.0
C519 C 0.44544 0.19779 0.17842 0.0
H520 H 0.4098 0.22728 0.09599 0.0
C521 C 0.46488 0.22013 0.2276 0.0
H522 H 0.41035 0.18351 0.09312 0.0
C523 C 0.46473 0.24505 0.22863 0.0
C524 C 0.44503 0.24798 0.18094 0.0
H525 H 0.48051 0.21848 0.26401 0.0
H526 H 0.48029 0.2622 0.26569 0.0
C527 C 0.42534 0.22552 0.13257 0.0
C528 C 0.09663 0.42225 0.58234 0.0
C529 C 0.10756 0.44433 0.52366 0.0
H530 H 0.09332 0.40998 0.71406 0.0
C531 C 0.12297 0.47151 0.55474 0.0
H532 H 0.08486 0.40106 0.56023 0.0
C533 C 0.12735 0.47658 0.64224 0.0
C534 C 0.11645 0.45464 0.70113 0.0
H535 H 0.13167 0.48904 0.51149 0.0
H536 H 0.13928 0.49783 0.66382 0.0
C537 C 0.10119 0.42737 0.67046 0.0
C538 C 0.67124 0.1296 0.5673 0.0
C539 C 0.66004 0.10232 0.5376 0.0
H540 H 0.67999 0.1562 0.67546 0.0
C541 C 0.6508 0.08069 0.59762 0.0
H542 H 0.67877 0.14678 0.52287 0.0
C543 C 0.65149 0.08613 0.68544 0.0
C544 C 0.66167 0.11333 0.71468 0.0
H545 H 0.64199 0.05943 0.57671 0.0
H546 H 0.64271 0.06888 0.72958 0.0
C547 C 0.67198 0.13501 0.65478 0.0
C548 C 0.56596 0.64451 0.61002 0.0
C549 C 0.55656 0.6568 0.55017 0.0
H550 H 0.568 0.6352 0.74198 0.0
C551 C 0.5442 0.67182 0.58008 0.0
H552 H 0.57553 0.63276 0.589 0.0
C553 C 0.54014 0.67339 0.66761 0.0
C554 C 0.54857 0.66024 0.72726 0.0
H555 H 0.53687 0.68169 0.5358 0.0
H556 H 0.52978 0.6844 0.68857 0.0
C557 C 0.56193 0.64615 0.69784 0.0
C558 C 0.9052 0.5775 0.58792 0.0
C559 C 0.89454 0.55541 0.52936 0.0
H560 H 0.90782 0.58981 0.71935 0.0
C561 C 0.87909 0.52822 0.56039 0.0
H562 H 0.91697 0.59869 0.56576 0.0
C563 C 0.87435 0.52318 0.6478 0.0
C564 C 0.88492 0.54514 0.70658 0.0
H565 H 0.87062 0.51069 0.51716 0.0
H566 H 0.8624 0.50193 0.66939 0.0
C567 C 0.90024 0.57241 0.6759 0.0
C568 C 0.32694 0.86657 0.65347 0.0
C569 C 0.33997 0.88819 0.71302 0.0
H570 H 0.31896 0.8549 0.52168 0.0
C571 C 0.35413 0.91561 0.68338 0.0
H572 H 0.31588 0.84522 0.67458 0.0
C573 C 0.35595 0.92121 0.59549 0.0
C574 C 0.34381 0.89947 0.53579 0.0
H575 H 0.36501 0.93268 0.72742 0.0
H576 H 0.36774 0.94251 0.57433 0.0
C577 C 0.32874 0.87213 0.56586 0.0
C578 C 0.45812 0.32942 0.5831 0.0
C579 C 0.44188 0.3405 0.55378 0.0
H580 H 0.47631 0.32089 0.69084 0.0
C581 C 0.42953 0.34968 0.61412 0.0
H582 H 0.46775 0.32194 0.53844 0.0
C583 C 0.43448 0.34906 0.70184 0.0
C584 C 0.45167 0.33904 0.73067 0.0
H585 H 0.41696 0.3584 0.59353 0.0
H586 H 0.42602 0.35779 0.74623 0.0
C587 C 0.46301 0.32878 0.67048 0.0
C588 C 0.53666 0.86531 0.68107 0.0
C589 C 0.54832 0.88699 0.62119 0.0
H590 H 0.53145 0.85351 0.81298 0.0
C591 C 0.56563 0.91412 0.65052 0.0
H592 H 0.52327 0.84417 0.66036 0.0
C593 C 0.5704 0.91951 0.73836 0.0
C594 C 0.5577 0.8979 0.79833 0.0
H595 H 0.57433 0.93138 0.60643 0.0
H596 H 0.58307 0.94073 0.75933 0.0
C597 C 0.54132 0.87067 0.76857 0.0
C598 C 0.67444 0.5784 0.75532 0.0
C599 C 0.66343 0.55631 0.81397 0.0
H600 H 0.68333 0.59072 0.62363 0.0
C601 C 0.65181 0.52915 0.78283 0.0
H602 H 0.68374 0.59958 0.77748 0.0
C603 C 0.65116 0.52411 0.69531 0.0
C604 C 0.66206 0.54606 0.63646 0.0
H605 H 0.64309 0.51161 0.82605 0.0
H606 H 0.64197 0.50288 0.6737 0.0
C607 C 0.67392 0.57332 0.66719 0.0
C608 C 0.08551 0.65106 0.63677 0.0
C609 C 0.11277 0.66137 0.60797 0.0
H610 H 0.05861 0.64145 0.74505 0.0
C611 C 0.13437 0.67183 0.66817 0.0
H612 H 0.06833 0.64218 0.59235 0.0
C613 C 0.12881 0.67114 0.75554 0.0
C614 C 0.10147 0.65979 0.78484 0.0
H615 H 0.1556 0.67994 0.64782 0.0
H616 H 0.14594 0.67879 0.80021 0.0
C617 C 0.07991 0.65037 0.72448 0.0
C618 C 0.46077 0.1337 0.68502 0.0
C619 C 0.45342 0.11224 0.62563 0.0
H620 H 0.46372 0.14526 0.81673 0.0
C621 C 0.44174 0.08493 0.65538 0.0
H622 H 0.46984 0.15496 0.66374 0.0
C623 C 0.4383 0.07932 0.7433 0.0
C624 C 0.44661 0.10095 0.80288 0.0
H625 H 0.43655 0.06805 0.61133 0.0
H626 H 0.43003 0.05816 0.76458 0.0
C627 C 0.45727 0.12812 0.77266 0.0
C628 C 0.32791 0.4231 0.75008 0.0
C629 C 0.33948 0.44518 0.80869 0.0
H630 H 0.31815 0.41086 0.61862 0.0
C631 C 0.35138 0.47238 0.77772 0.0
H632 H 0.31836 0.4019 0.77219 0.0
C633 C 0.35173 0.47747 0.69032 0.0
C634 C 0.3402 0.45553 0.63149 0.0
H635 H 0.36056 0.4899 0.82099 0.0
H636 H 0.36116 0.49873 0.66879 0.0
C637 C 0.32807 0.42823 0.66212 0.0
C638 C 0.92195 0.35762 0.72656 0.0
C639 C 0.90032 0.34479 0.78641 0.0
H640 H 0.93316 0.36706 0.59453 0.0
C641 C 0.87301 0.32905 0.75651 0.0
H642 H 0.94322 0.36993 0.74757 0.0
C643 C 0.86733 0.32724 0.66897 0.0
C644 C 0.88881 0.34088 0.60932 0.0
H645 H 0.85587 0.31876 0.80079 0.0
H646 H 0.84599 0.31566 0.64799 0.0
C647 C 0.91624 0.35573 0.63873 0.0
C648 C 0.01476 0.39238 0.07837 0.0
C649 C 0.03015 0.40157 0.15456 0.0
H650 H 0.97469 0.37204 0.02065 0.0
C651 C 0.01598 0.39412 0.23341 0.0
H652 H 0.02495 0.39749 0.01658 0.0
C653 C 0.98708 0.37953 0.23583 0.0
C654 C 0.97168 0.37203 0.15946 0.0
H655 H 0.02715 0.40059 0.29351 0.0
H656 H 0.97688 0.37525 0.29757 0.0
C657 C 0.98586 0.37777 0.08079 0.0
C658 C 0.60617 0.98518 0.09131 0.0
C659 C 0.59833 0.97097 0.17006 0.0
H660 H 0.62531 0.02431 0.02722 0.0
C661 C 0.60699 0.98631 0.2464 0.0
H662 H 0.60008 0.97405 0.03114 0.0
C663 C 0.62154 0.01521 0.24405 0.0
C664 C 0.62773 0.02943 0.16534 0.0
H665 H 0.60154 0.97608 0.30816 0.0
H666 H 0.62687 0.02634 0.30424 0.0
C667 C 0.62069 0.01407 0.08897 0.0
C668 C 0.62218 0.60655 0.10364 0.0
C669 C 0.62892 0.59917 0.18257 0.0
H670 H 0.60195 0.6254 0.03928 0.0
C671 C 0.6228 0.60846 0.25866 0.0
H672 H 0.62682 0.6 0.0436 0.0
C673 C 0.60855 0.62312 0.25608 0.0
C674 C 0.60007 0.62878 0.17735 0.0
H675 H 0.62792 0.60342 0.32051 0.0
H676 H 0.60317 0.62893 0.31615 0.0
C677 C 0.6079 0.62117 0.10106 0.0
C678 C 0.01391 0.6203 0.23753 0.0
C679 C 0.02897 0.62787 0.16052 0.0
H680 H 0.9741 0.59917 0.29683 0.0
C681 C 0.01445 0.62217 0.0825 0.0
H682 H 0.02439 0.62457 0.2988 0.0
C683 C 0.98555 0.60754 0.08128 0.0
C684 C 0.9705 0.59829 0.15804 0.0
H685 H 0.02535 0.62793 0.02191 0.0
H686 H 0.9751 0.60249 0.01992 0.0
C687 C 0.98501 0.60569 0.2363 0.0
C688 C 0.37806 0.98507 0.24504 0.0
C689 C 0.37194 0.97121 0.16571 0.0
H690 H 0.39806 0.02391 0.31079 0.0
C691 C 0.37899 0.98691 0.09001 0.0
H692 H 0.37269 0.97367 0.30473 0.0
C693 C 0.39349 0.0158 0.09357 0.0
C694 C 0.40133 0.02965 0.17291 0.0
H695 H 0.37439 0.97695 0.02783 0.0
H696 H 0.39956 0.0272 0.03387 0.0
C697 C 0.39263 0.01396 0.24861 0.0
C698 C 0.37847 0.39316 0.25729 0.0
C699 C 0.37257 0.40229 0.18045 0.0
H700 H 0.39795 0.37286 0.3168 0.0
C701 C 0.37956 0.39475 0.10223 0.0
H702 H 0.37316 0.39832 0.31862 0.0
C703 C 0.39383 0.38012 0.1011 0.0
C704 C 0.40143 0.37267 0.17816 0.0
H705 H 0.37509 0.40117 0.04165 0.0
H706 H 0.39996 0.37575 0.03984 0.0
C707 C 0.39273 0.37852 0.25616 0.0
loop_
_geom_bond_atom_site_label_1
_geom_bond_atom_site_label_2
_geom_bond_distance
_geom_bond_site_symmetry_2
_ccdc_geom_bond_type
Co0 O3 1.970 . S
Co0 N17 1.989 . S
Co0 O25 1.967 . S
Co0 O32 1.920 . S
Co1 O4 1.966 . S
Co1 N10 2.022 1_554 S
Co1 N18 1.993 . S
Co1 O26 1.941 . S
C2 O3 1.258 . S
C2 O4 1.263 . S
O3 Co0 1.970 . S
O3 C2 1.258 . S
O4 Co1 1.966 . S
O4 C2 1.263 . S
C5 O6 1.235 . S
C5 O32 1.289 . S
O6 C5 1.235 . S
C7 C9 1.400 . S
C7 N10 1.351 . S
C7 C12 1.501 . S
C8 C9 1.387 . S
C8 N11 1.341 . S
C9 C7 1.400 . S
C9 C8 1.387 . S
N10 Co1 2.022 1_556 S
N10 C7 1.351 . S
N10 N11 1.365 . S
N11 C8 1.341 . S
N11 N10 1.365 . S
N11 H31 0.862 . S
C12 C7 1.501 . S
C12 H13 0.961 . S
C12 H14 0.961 . S
C12 H15 0.960 . S
H13 C12 0.961 . S
H14 C12 0.961 . S
H15 C12 0.960 . S
C16 N17 1.342 . S
C16 C20 1.401 . S
C16 C21 1.499 . S
N17 Co0 1.989 . S
N17 C16 1.342 . S
N17 N18 1.388 . S
N18 Co1 1.993 . S
N18 N17 1.388 . S
N18 C19 1.346 . S
C19 N18 1.346 . S
C19 C20 1.396 . S
C19 C29 1.510 1_554 S
C20 C16 1.401 . S
C20 C19 1.396 . S
C21 C16 1.499 . S
C21 H22 0.959 . S
C21 H23 0.960 . S
C21 H24 0.961 . S
H22 C21 0.959 . S
H23 C21 0.960 . S
H24 C21 0.961 . S
O25 Co0 1.967 . S
O25 C33 1.258 . S
O26 Co1 1.941 . S
O26 C33 1.266 . S
H27 C29 0.959 . S
H28 C29 0.961 . S
C29 C19 1.510 1_556 S
C29 H27 0.959 . S
C29 H28 0.961 . S
C29 H30 0.960 . S
H30 C29 0.960 . S
H31 N11 0.862 . S
O32 Co0 1.920 . S
O32 C5 1.289 . S
C33 O25 1.258 . S
C33 O26 1.266 . S
Co34 O37 1.970 . S
Co34 N51 1.989 . S
Co34 O59 1.967 . S
Co34 O66 1.920 . S
Co35 O38 1.966 . S
Co35 N44 2.022 1_554 S
Co35 N52 1.993 . S
Co35 O60 1.941 . S
C36 O37 1.258 . S
C36 O38 1.263 . S
O37 Co34 1.970 . S
O37 C36 1.258 . S
O38 Co35 1.966 . S
O38 C36 1.263 . S
C39 O40 1.235 . S
C39 O66 1.289 . S
O40 C39 1.235 . S
C41 C43 1.400 . S
C41 N44 1.351 . S
C41 C46 1.501 . S
C42 C43 1.387 . S
C42 N45 1.341 . S
C43 C41 1.400 . S
C43 C42 1.387 . S
N44 Co35 2.022 1_556 S
N44 C41 1.351 . S
N44 N45 1.365 . S
N45 C42 1.341 . S
N45 N44 1.365 . S
N45 H65 0.862 . S
C46 C41 1.501 . S
C46 H47 0.961 . S
C46 H48 0.961 . S
C46 H49 0.960 . S
H47 C46 0.961 . S
H48 C46 0.961 . S
H49 C46 0.960 . S
C50 N51 1.342 . S
C50 C54 1.401 . S
C50 C55 1.499 . S
N51 Co34 1.989 . S
N51 C50 1.342 . S
N51 N52 1.388 . S
N52 Co35 1.993 . S
N52 N51 1.388 . S
N52 C53 1.346 . S
C53 N52 1.346 . S
C53 C54 1.396 . S
C53 C63 1.510 1_554 S
C54 C50 1.401 . S
C54 C53 1.396 . S
C55 C50 1.499 . S
C55 H56 0.959 . S
C55 H57 0.960 . S
C55 H58 0.961 . S
H56 C55 0.959 . S
H57 C55 0.960 . S
H58 C55 0.961 . S
O59 Co34 1.967 . S
O59 C67 1.258 . S
O60 Co35 1.941 . S
O60 C67 1.266 . S
H61 C63 0.959 . S
H62 C63 0.961 . S
C63 C53 1.510 1_556 S
C63 H61 0.959 . S
C63 H62 0.961 . S
C63 H64 0.960 . S
H64 C63 0.960 . S
H65 N45 0.862 . S
O66 Co34 1.920 . S
O66 C39 1.289 . S
C67 O59 1.258 . S
C67 O60 1.266 . S
Co68 O71 1.970 . S
Co68 N85 1.989 . S
Co68 O93 1.967 . S
Co68 O100 1.920 . S
Co69 O72 1.966 . S
Co69 N78 2.022 1_554 S
Co69 N86 1.993 . S
Co69 O94 1.941 . S
C70 O71 1.258 . S
C70 O72 1.263 . S
O71 Co68 1.970 . S
O71 C70 1.258 . S
O72 Co69 1.966 . S
O72 C70 1.263 . S
C73 O74 1.235 . S
C73 O100 1.289 . S
O74 C73 1.235 . S
C75 C77 1.400 . S
C75 N78 1.351 . S
C75 C80 1.501 . S
C76 C77 1.387 . S
C76 N79 1.341 . S
C77 C75 1.400 . S
C77 C76 1.387 . S
N78 Co69 2.022 1_556 S
N78 C75 1.351 . S
N78 N79 1.365 . S
N79 C76 1.341 . S
N79 N78 1.365 . S
N79 H99 0.862 . S
C80 C75 1.501 . S
C80 H81 0.961 . S
C80 H82 0.961 . S
C80 H83 0.960 . S
H81 C80 0.961 . S
H82 C80 0.961 . S
H83 C80 0.960 . S
C84 N85 1.342 . S
C84 C88 1.401 . S
C84 C89 1.499 . S
N85 Co68 1.989 . S
N85 C84 1.342 . S
N85 N86 1.388 . S
N86 Co69 1.993 . S
N86 N85 1.388 . S
N86 C87 1.346 . S
C87 N86 1.346 . S
C87 C88 1.396 . S
C87 C97 1.510 1_554 S
C88 C84 1.401 . S
C88 C87 1.396 . S
C89 C84 1.499 . S
C89 H90 0.959 . S
C89 H91 0.960 . S
C89 H92 0.961 . S
H90 C89 0.959 . S
H91 C89 0.960 . S
H92 C89 0.961 . S
O93 Co68 1.967 . S
O93 C101 1.258 . S
O94 Co69 1.941 . S
O94 C101 1.266 . S
H95 C97 0.959 . S
H96 C97 0.961 . S
C97 C87 1.510 1_556 S
C97 H95 0.959 . S
C97 H96 0.961 . S
C97 H98 0.960 . S
H98 C97 0.960 . S
H99 N79 0.862 . S
O100 Co68 1.920 . S
O100 C73 1.289 . S
C101 O93 1.258 . S
C101 O94 1.266 . S
Co102 O105 1.970 . S
Co102 N119 1.989 . S
Co102 O127 1.967 . S
Co102 O134 1.920 . S
Co103 O106 1.966 . S
Co103 N112 2.022 1_554 S
Co103 N120 1.993 . S
Co103 O128 1.941 . S
C104 O105 1.258 . S
C104 O106 1.263 . S
O105 Co102 1.970 . S
O105 C104 1.258 . S
O106 Co103 1.966 . S
O106 C104 1.263 . S
C107 O108 1.235 . S
C107 O134 1.289 . S
O108 C107 1.235 . S
C109 C111 1.400 . S
C109 N112 1.351 . S
C109 C114 1.501 . S
C110 C111 1.387 . S
C110 N113 1.341 . S
C111 C109 1.400 . S
C111 C110 1.387 . S
N112 Co103 2.022 1_556 S
N112 C109 1.351 . S
N112 N113 1.365 . S
N113 C110 1.341 . S
N113 N112 1.365 . S
N113 H133 0.862 . S
C114 C109 1.501 . S
C114 H115 0.961 . S
C114 H116 0.961 . S
C114 H117 0.960 . S
H115 C114 0.961 . S
H116 C114 0.961 . S
H117 C114 0.960 . S
C118 N119 1.342 . S
C118 C122 1.401 . S
C118 C123 1.499 . S
N119 Co102 1.989 . S
N119 C118 1.342 . S
N119 N120 1.388 . S
N120 Co103 1.993 . S
N120 N119 1.388 . S
N120 C121 1.346 . S
C121 N120 1.346 . S
C121 C122 1.396 . S
C121 C131 1.510 1_554 S
C122 C118 1.401 . S
C122 C121 1.396 . S
C123 C118 1.499 . S
C123 H124 0.959 . S
C123 H125 0.960 . S
C123 H126 0.961 . S
H124 C123 0.959 . S
H125 C123 0.960 . S
H126 C123 0.961 . S
O127 Co102 1.967 . S
O127 C135 1.258 . S
O128 Co103 1.941 . S
O128 C135 1.266 . S
H129 C131 0.959 . S
H130 C131 0.961 . S
C131 C121 1.510 1_556 S
C131 H129 0.959 . S
C131 H130 0.961 . S
C131 H132 0.960 . S
H132 C131 0.960 . S
H133 N113 0.862 . S
O134 Co102 1.920 . S
O134 C107 1.289 . S
C135 O127 1.258 . S
C135 O128 1.266 . S
Co136 O139 1.970 . S
Co136 N153 1.989 . S
Co136 O161 1.967 . S
Co136 O168 1.920 . S
Co137 O140 1.966 . S
Co137 N146 2.022 1_554 S
Co137 N154 1.993 . S
Co137 O162 1.941 . S
C138 O139 1.258 . S
C138 O140 1.263 . S
O139 Co136 1.970 . S
O139 C138 1.258 . S
O140 Co137 1.966 . S
O140 C138 1.263 . S
C141 O142 1.235 . S
C141 O168 1.289 . S
O142 C141 1.235 . S
C143 C145 1.400 . S
C143 N146 1.351 . S
C143 C148 1.501 . S
C144 C145 1.387 . S
C144 N147 1.341 . S
C145 C143 1.400 . S
C145 C144 1.387 . S
N146 Co137 2.022 1_556 S
N146 C143 1.351 . S
N146 N147 1.365 . S
N147 C144 1.341 . S
N147 N146 1.365 . S
N147 H167 0.862 . S
C148 C143 1.501 . S
C148 H149 0.961 . S
C148 H150 0.961 . S
C148 H151 0.960 . S
H149 C148 0.961 . S
H150 C148 0.961 . S
H151 C148 0.960 . S
C152 N153 1.342 . S
C152 C156 1.401 . S
C152 C157 1.499 . S
N153 Co136 1.989 . S
N153 C152 1.342 . S
N153 N154 1.388 . S
N154 Co137 1.993 . S
N154 N153 1.388 . S
N154 C155 1.346 . S
C155 N154 1.346 . S
C155 C156 1.396 . S
C155 C165 1.510 1_554 S
C156 C152 1.401 . S
C156 C155 1.396 . S
C157 C152 1.499 . S
C157 H158 0.959 . S
C157 H159 0.960 . S
C157 H160 0.961 . S
H158 C157 0.959 . S
H159 C157 0.960 . S
H160 C157 0.961 . S
O161 Co136 1.967 . S
O161 C169 1.258 . S
O162 Co137 1.941 . S
O162 C169 1.266 . S
H163 C165 0.959 . S
H164 C165 0.961 . S
C165 C155 1.510 1_556 S
C165 H163 0.959 . S
C165 H164 0.961 . S
C165 H166 0.960 . S
H166 C165 0.960 . S
H167 N147 0.862 . S
O168 Co136 1.920 . S
O168 C141 1.289 . S
C169 O161 1.258 . S
C169 O162 1.266 . S
Co170 O173 1.970 . S
Co170 N187 1.989 . S
Co170 O195 1.967 . S
Co170 O202 1.920 . S
Co171 O174 1.966 . S
Co171 N180 2.022 1_554 S
Co171 N188 1.993 . S
Co171 O196 1.941 . S
C172 O173 1.258 . S
C172 O174 1.263 . S
O173 Co170 1.970 . S
O173 C172 1.258 . S
O174 Co171 1.966 . S
O174 C172 1.263 . S
C175 O176 1.235 . S
C175 O202 1.289 . S
O176 C175 1.235 . S
C177 C179 1.400 . S
C177 N180 1.351 . S
C177 C182 1.501 . S
C178 C179 1.387 . S
C178 N181 1.341 . S
C179 C177 1.400 . S
C179 C178 1.387 . S
N180 Co171 2.022 1_556 S
N180 C177 1.351 . S
N180 N181 1.365 . S
N181 C178 1.341 . S
N181 N180 1.365 . S
N181 H201 0.862 . S
C182 C177 1.501 . S
C182 H183 0.961 . S
C182 H184 0.961 . S
C182 H185 0.960 . S
H183 C182 0.961 . S
H184 C182 0.961 . S
H185 C182 0.960 . S
C186 N187 1.342 . S
C186 C190 1.401 . S
C186 C191 1.499 . S
N187 Co170 1.989 . S
N187 C186 1.342 . S
N187 N188 1.388 . S
N188 Co171 1.993 . S
N188 N187 1.388 . S
N188 C189 1.346 . S
C189 N188 1.346 . S
C189 C190 1.396 . S
C189 C199 1.510 1_554 S
C190 C186 1.401 . S
C190 C189 1.396 . S
C191 C186 1.499 . S
C191 H192 0.959 . S
C191 H193 0.960 . S
C191 H194 0.961 . S
H192 C191 0.959 . S
H193 C191 0.960 . S
H194 C191 0.961 . S
O195 Co170 1.967 . S
O195 C203 1.258 . S
O196 Co171 1.941 . S
O196 C203 1.266 . S
H197 C199 0.959 . S
H198 C199 0.961 . S
C199 C189 1.510 1_556 S
C199 H197 0.959 . S
C199 H198 0.961 . S
C199 H200 0.960 . S
H200 C199 0.960 . S
H201 N181 0.862 . S
O202 Co170 1.920 . S
O202 C175 1.289 . S
C203 O195 1.258 . S
C203 O196 1.266 . S
Co204 O207 1.970 . S
Co204 N221 1.989 . S
Co204 O229 1.967 . S
Co204 O236 1.920 1_554 S
Co205 O208 1.966 . S
Co205 N214 2.022 . S
Co205 N222 1.993 . S
Co205 O230 1.941 . S
C206 O207 1.258 . S
C206 O208 1.263 . S
O207 Co204 1.970 . S
O207 C206 1.258 . S
O208 Co205 1.966 . S
O208 C206 1.263 . S
C209 O210 1.235 . S
C209 O236 1.289 . S
O210 C209 1.235 . S
C211 C213 1.400 . S
C211 N214 1.351 . S
C211 C216 1.501 . S
C212 C213 1.387 . S
C212 N215 1.341 . S
C213 C211 1.400 . S
C213 C212 1.387 . S
N214 Co205 2.022 . S
N214 C211 1.351 . S
N214 N215 1.365 . S
N215 C212 1.341 . S
N215 N214 1.365 . S
N215 H235 0.862 . S
C216 C211 1.501 . S
C216 H217 0.961 . S
C216 H218 0.961 . S
C216 H219 0.960 . S
H217 C216 0.961 . S
H218 C216 0.961 . S
H219 C216 0.960 . S
C220 N221 1.342 . S
C220 C224 1.401 . S
C220 C225 1.499 . S
N221 Co204 1.989 . S
N221 C220 1.342 . S
N221 N222 1.388 . S
N222 Co205 1.993 . S
N222 N221 1.388 . S
N222 C223 1.346 . S
C223 N222 1.346 . S
C223 C224 1.396 . S
C223 C233 1.510 . S
C224 C220 1.401 . S
C224 C223 1.396 . S
C225 C220 1.499 . S
C225 H226 0.959 1_554 S
C225 H227 0.960 . S
C225 H228 0.961 . S
H226 C225 0.959 1_556 S
H227 C225 0.960 . S
H228 C225 0.961 . S
O229 Co204 1.967 . S
O229 C237 1.258 . S
O230 Co205 1.941 . S
O230 C237 1.266 . S
H231 C233 0.959 . S
H232 C233 0.961 . S
C233 C223 1.510 . S
C233 H231 0.959 . S
C233 H232 0.961 . S
C233 H234 0.960 . S
H234 C233 0.960 . S
H235 N215 0.862 . S
O236 Co204 1.920 1_556 S
O236 C209 1.289 . S
C237 O229 1.258 . S
C237 O230 1.266 . S
Co238 O241 1.970 . S
Co238 N255 1.989 . S
Co238 O263 1.967 . S
Co238 O270 1.920 1_554 S
Co239 O242 1.966 . S
Co239 N248 2.022 . S
Co239 N256 1.993 . S
Co239 O264 1.941 . S
C240 O241 1.258 . S
C240 O242 1.263 . S
O241 Co238 1.970 . S
O241 C240 1.258 . S
O242 Co239 1.966 . S
O242 C240 1.263 . S
C243 O244 1.235 . S
C243 O270 1.289 . S
O244 C243 1.235 . S
C245 C247 1.400 . S
C245 N248 1.351 . S
C245 C250 1.501 . S
C246 C247 1.387 . S
C246 N249 1.341 . S
C247 C245 1.400 . S
C247 C246 1.387 . S
N248 Co239 2.022 . S
N248 C245 1.351 . S
N248 N249 1.365 . S
N249 C246 1.341 . S
N249 N248 1.365 . S
N249 H269 0.862 . S
C250 C245 1.501 . S
C250 H251 0.961 . S
C250 H252 0.961 . S
C250 H253 0.960 . S
H251 C250 0.961 . S
H252 C250 0.961 . S
H253 C250 0.960 . S
C254 N255 1.342 . S
C254 C258 1.401 . S
C254 C259 1.499 . S
N255 Co238 1.989 . S
N255 C254 1.342 . S
N255 N256 1.388 . S
N256 Co239 1.993 . S
N256 N255 1.388 . S
N256 C257 1.346 . S
C257 N256 1.346 . S
C257 C258 1.396 . S
C257 C267 1.510 . S
C258 C254 1.401 . S
C258 C257 1.396 . S
C259 C254 1.499 . S
C259 H260 0.959 1_554 S
C259 H261 0.960 . S
C259 H262 0.961 . S
H260 C259 0.959 1_556 S
H261 C259 0.960 . S
H262 C259 0.961 . S
O263 Co238 1.967 . S
O263 C271 1.258 . S
O264 Co239 1.941 . S
O264 C271 1.266 . S
H265 C267 0.959 . S
H266 C267 0.961 . S
C267 C257 1.510 . S
C267 H265 0.959 . S
C267 H266 0.961 . S
C267 H268 0.960 . S
H268 C267 0.960 . S
H269 N249 0.862 . S
O270 Co238 1.920 1_556 S
O270 C243 1.289 . S
C271 O263 1.258 . S
C271 O264 1.266 . S
Co272 O275 1.970 . S
Co272 N289 1.989 . S
Co272 O297 1.967 . S
Co272 O304 1.920 1_554 S
Co273 O276 1.966 . S
Co273 N282 2.022 . S
Co273 N290 1.993 . S
Co273 O298 1.941 . S
C274 O275 1.258 . S
C274 O276 1.263 . S
O275 Co272 1.970 . S
O275 C274 1.258 . S
O276 Co273 1.966 . S
O276 C274 1.263 . S
C277 O278 1.235 . S
C277 O304 1.289 . S
O278 C277 1.235 . S
C279 C281 1.400 . S
C279 N282 1.351 . S
C279 C284 1.501 . S
C280 C281 1.387 . S
C280 N283 1.341 . S
C281 C279 1.400 . S
C281 C280 1.387 . S
N282 Co273 2.022 . S
N282 C279 1.351 . S
N282 N283 1.365 . S
N283 C280 1.341 . S
N283 N282 1.365 . S
N283 H303 0.862 . S
C284 C279 1.501 . S
C284 H285 0.961 . S
C284 H286 0.961 . S
C284 H287 0.960 . S
H285 C284 0.961 . S
H286 C284 0.961 . S
H287 C284 0.960 . S
C288 N289 1.342 . S
C288 C292 1.401 . S
C288 C293 1.499 . S
N289 Co272 1.989 . S
N289 C288 1.342 . S
N289 N290 1.388 . S
N290 Co273 1.993 . S
N290 N289 1.388 . S
N290 C291 1.346 . S
C291 N290 1.346 . S
C291 C292 1.396 . S
C291 C301 1.510 . S
C292 C288 1.401 . S
C292 C291 1.396 . S
C293 C288 1.499 . S
C293 H294 0.959 1_554 S
C293 H295 0.960 . S
C293 H296 0.961 . S
H294 C293 0.959 1_556 S
H295 C293 0.960 . S
H296 C293 0.961 . S
O297 Co272 1.967 . S
O297 C305 1.258 . S
O298 Co273 1.941 . S
O298 C305 1.266 . S
H299 C301 0.959 . S
H300 C301 0.961 . S
C301 C291 1.510 . S
C301 H299 0.959 . S
C301 H300 0.961 . S
C301 H302 0.960 . S
H302 C301 0.960 . S
H303 N283 0.862 . S
O304 Co272 1.920 1_556 S
O304 C277 1.289 . S
C305 O297 1.258 . S
C305 O298 1.266 . S
Co306 O309 1.970 . S
Co306 N323 1.989 . S
Co306 O331 1.967 . S
Co306 O338 1.920 1_554 S
Co307 O310 1.966 . S
Co307 N316 2.022 . S
Co307 N324 1.993 . S
Co307 O332 1.941 . S
C308 O309 1.258 . S
C308 O310 1.263 . S
O309 Co306 1.970 . S
O309 C308 1.258 . S
O310 Co307 1.966 . S
O310 C308 1.263 . S
C311 O312 1.235 . S
C311 O338 1.289 . S
O312 C311 1.235 . S
C313 C315 1.400 . S
C313 N316 1.351 . S
C313 C318 1.501 . S
C314 C315 1.387 . S
C314 N317 1.341 . S
C315 C313 1.400 . S
C315 C314 1.387 . S
N316 Co307 2.022 . S
N316 C313 1.351 . S
N316 N317 1.365 . S
N317 C314 1.341 . S
N317 N316 1.365 . S
N317 H337 0.862 . S
C318 C313 1.501 . S
C318 H319 0.961 . S
C318 H320 0.961 . S
C318 H321 0.960 . S
H319 C318 0.961 . S
H320 C318 0.961 . S
H321 C318 0.960 . S
C322 N323 1.342 . S
C322 C326 1.401 . S
C322 C327 1.499 . S
N323 Co306 1.989 . S
N323 C322 1.342 . S
N323 N324 1.388 . S
N324 Co307 1.993 . S
N324 N323 1.388 . S
N324 C325 1.346 . S
C325 N324 1.346 . S
C325 C326 1.396 . S
C325 C335 1.510 . S
C326 C322 1.401 . S
C326 C325 1.396 . S
C327 C322 1.499 . S
C327 H328 0.959 1_554 S
C327 H329 0.960 . S
C327 H330 0.961 . S
H328 C327 0.959 1_556 S
H329 C327 0.960 . S
H330 C327 0.961 . S
O331 Co306 1.967 . S
O331 C339 1.258 . S
O332 Co307 1.941 . S
O332 C339 1.266 . S
H333 C335 0.959 . S
H334 C335 0.961 . S
C335 C325 1.510 . S
C335 H333 0.959 . S
C335 H334 0.961 . S
C335 H336 0.960 . S
H336 C335 0.960 . S
H337 N317 0.862 . S
O338 Co306 1.920 1_556 S
O338 C311 1.289 . S
C339 O331 1.258 . S
C339 O332 1.266 . S
Co340 O343 1.970 . S
Co340 N357 1.989 . S
Co340 O365 1.967 . S
Co340 O372 1.920 1_554 S
Co341 O344 1.966 . S
Co341 N350 2.022 . S
Co341 N358 1.993 . S
Co341 O366 1.941 . S
C342 O343 1.258 . S
C342 O344 1.263 . S
O343 Co340 1.970 . S
O343 C342 1.258 . S
O344 Co341 1.966 . S
O344 C342 1.263 . S
C345 O346 1.235 . S
C345 O372 1.289 . S
O346 C345 1.235 . S
C347 C349 1.400 . S
C347 N350 1.351 . S
C347 C352 1.501 . S
C348 C349 1.387 . S
C348 N351 1.341 . S
C349 C347 1.400 . S
C349 C348 1.387 . S
N350 Co341 2.022 . S
N350 C347 1.351 . S
N350 N351 1.365 . S
N351 C348 1.341 . S
N351 N350 1.365 . S
N351 H371 0.862 . S
C352 C347 1.501 . S
C352 H353 0.961 . S
C352 H354 0.961 . S
C352 H355 0.960 . S
H353 C352 0.961 . S
H354 C352 0.961 . S
H355 C352 0.960 . S
C356 N357 1.342 . S
C356 C360 1.401 . S
C356 C361 1.499 . S
N357 Co340 1.989 . S
N357 C356 1.342 . S
N357 N358 1.388 . S
N358 Co341 1.993 . S
N358 N357 1.388 . S
N358 C359 1.346 . S
C359 N358 1.346 . S
C359 C360 1.396 . S
C359 C369 1.510 . S
C360 C356 1.401 . S
C360 C359 1.396 . S
C361 C356 1.499 . S
C361 H362 0.959 1_554 S
C361 H363 0.960 . S
C361 H364 0.961 . S
H362 C361 0.959 1_556 S
H363 C361 0.960 . S
H364 C361 0.961 . S
O365 Co340 1.967 . S
O365 C373 1.258 . S
O366 Co341 1.941 . S
O366 C373 1.266 . S
H367 C369 0.959 . S
H368 C369 0.961 . S
C369 C359 1.510 . S
C369 H367 0.959 . S
C369 H368 0.961 . S
C369 H370 0.960 . S
H370 C369 0.960 . S
H371 N351 0.862 . S
O372 Co340 1.920 1_556 S
O372 C345 1.289 . S
C373 O365 1.258 . S
C373 O366 1.266 . S
Co374 O377 1.970 . S
Co374 N391 1.989 . S
Co374 O399 1.967 . S
Co374 O406 1.920 1_554 S
Co375 O378 1.966 . S
Co375 N384 2.022 . S
Co375 N392 1.993 . S
Co375 O400 1.941 . S
C376 O377 1.258 . S
C376 O378 1.263 . S
O377 Co374 1.970 . S
O377 C376 1.258 . S
O378 Co375 1.966 . S
O378 C376 1.263 . S
C379 O380 1.235 . S
C379 O406 1.289 . S
O380 C379 1.235 . S
C381 C383 1.400 . S
C381 N384 1.351 . S
C381 C386 1.501 . S
C382 C383 1.387 . S
C382 N385 1.341 . S
C383 C381 1.400 . S
C383 C382 1.387 . S
N384 Co375 2.022 . S
N384 C381 1.351 . S
N384 N385 1.365 . S
N385 C382 1.341 . S
N385 N384 1.365 . S
N385 H405 0.862 . S
C386 C381 1.501 . S
C386 H387 0.961 . S
C386 H388 0.961 . S
C386 H389 0.960 . S
H387 C386 0.961 . S
H388 C386 0.961 . S
H389 C386 0.960 . S
C390 N391 1.342 . S
C390 C394 1.401 . S
C390 C395 1.499 . S
N391 Co374 1.989 . S
N391 C390 1.342 . S
N391 N392 1.388 . S
N392 Co375 1.993 . S
N392 N391 1.388 . S
N392 C393 1.346 . S
C393 N392 1.346 . S
C393 C394 1.396 . S
C393 C403 1.510 . S
C394 C390 1.401 . S
C394 C393 1.396 . S
C395 C390 1.499 . S
C395 H396 0.959 1_554 S
C395 H397 0.960 . S
C395 H398 0.961 . S
H396 C395 0.959 1_556 S
H397 C395 0.960 . S
H398 C395 0.961 . S
O399 Co374 1.967 . S
O399 C407 1.258 . S
O400 Co375 1.941 . S
O400 C407 1.266 . S
H401 C403 0.959 . S
H402 C403 0.961 . S
C403 C393 1.510 . S
C403 H401 0.959 . S
C403 H402 0.961 . S
C403 H404 0.960 . S
H404 C403 0.960 . S
H405 N385 0.862 . S
O406 Co374 1.920 1_556 S
O406 C379 1.289 . S
C407 O399 1.258 . S
C407 O400 1.266 . S
C408 C409 1.387 . S
C408 H412 0.950 . S
C408 C417 1.390 . S
C409 C408 1.387 . S
C409 C411 1.387 . S
H410 C417 0.950 . S
C411 C409 1.387 . S
C411 C413 1.390 . S
C411 H415 0.950 . S
H412 C408 0.950 . S
C413 C411 1.390 . S
C413 C414 1.387 . S
C413 H416 0.950 . S
C414 C413 1.387 . S
C414 C417 1.387 . S
H415 C411 0.950 . S
H416 C413 0.950 . S
C417 C408 1.390 . S
C417 H410 0.950 . S
C417 C414 1.387 . S
C418 C419 1.387 . S
C418 H422 0.950 . S
C418 C427 1.390 . S
C419 C418 1.387 . S
C419 C421 1.387 . S
H420 C427 0.950 . S
C421 C419 1.387 . S
C421 C423 1.390 . S
C421 H425 0.950 . S
H422 C418 0.950 . S
C423 C421 1.390 . S
C423 C424 1.387 . S
C423 H426 0.950 . S
C424 C423 1.387 . S
C424 C427 1.387 . S
H425 C421 0.950 . S
H426 C423 0.950 . S
C427 C418 1.390 . S
C427 H420 0.950 . S
C427 C424 1.387 . S
C428 C429 1.387 . S
C428 H432 0.950 . S
C428 C437 1.390 . S
C429 C428 1.387 . S
C429 C431 1.387 . S
H430 C437 0.950 . S
C431 C429 1.387 . S
C431 C433 1.390 . S
C431 H435 0.950 . S
H432 C428 0.950 . S
C433 C431 1.390 . S
C433 C434 1.387 . S
C433 H436 0.950 . S
C434 C433 1.387 . S
C434 C437 1.387 . S
H435 C431 0.950 . S
H436 C433 0.950 . S
C437 C428 1.390 . S
C437 H430 0.950 . S
C437 C434 1.387 . S
C438 C439 1.387 . S
C438 H442 0.950 . S
C438 C447 1.390 . S
C439 C438 1.387 . S
C439 C441 1.387 . S
H440 C447 0.950 . S
C441 C439 1.387 . S
C441 C443 1.390 . S
C441 H445 0.950 . S
H442 C438 0.950 . S
C443 C441 1.390 . S
C443 C444 1.387 . S
C443 H446 0.950 . S
C444 C443 1.387 . S
C444 C447 1.387 . S
H445 C441 0.950 . S
H446 C443 0.950 . S
C447 C438 1.390 . S
C447 H440 0.950 . S
C447 C444 1.387 . S
C448 C449 1.387 . S
C448 H452 0.950 . S
C448 C457 1.390 . S
C449 C448 1.387 . S
C449 C451 1.387 . S
H450 C457 0.950 . S
C451 C449 1.387 . S
C451 C453 1.390 . S
C451 H455 0.950 . S
H452 C448 0.950 . S
C453 C451 1.390 . S
C453 C454 1.387 . S
C453 H456 0.950 . S
C454 C453 1.387 . S
C454 C457 1.387 . S
H455 C451 0.950 . S
H456 C453 0.950 . S
C457 C448 1.390 . S
C457 H450 0.950 . S
C457 C454 1.387 . S
C458 C459 1.387 . S
C458 H462 0.950 . S
C458 C467 1.390 . S
C459 C458 1.387 . S
C459 C461 1.387 . S
H460 C467 0.950 . S
C461 C459 1.387 . S
C461 C463 1.390 . S
C461 H465 0.950 . S
H462 C458 0.950 . S
C463 C461 1.390 . S
C463 C464 1.387 . S
C463 H466 0.950 . S
C464 C463 1.387 . S
C464 C467 1.387 . S
H465 C461 0.950 . S
H466 C463 0.950 . S
C467 C458 1.390 . S
C467 H460 0.950 . S
C467 C464 1.387 . S
C468 C469 1.387 . S
C468 H472 0.950 . S
C468 C477 1.390 . S
C469 C468 1.387 . S
C469 C471 1.387 . S
H470 C477 0.950 . S
C471 C469 1.387 . S
C471 C473 1.390 . S
C471 H475 0.950 . S
H472 C468 0.950 . S
C473 C471 1.390 . S
C473 C474 1.387 . S
C473 H476 0.950 . S
C474 C473 1.387 . S
C474 C477 1.387 . S
H475 C471 0.950 . S
H476 C473 0.950 . S
C477 C468 1.390 . S
C477 H470 0.950 . S
C477 C474 1.387 . S
C478 C479 1.387 . S
C478 H482 0.950 . S
C478 C487 1.390 . S
C479 C478 1.387 . S
C479 C481 1.387 . S
H480 C487 0.950 . S
C481 C479 1.387 . S
C481 C483 1.390 . S
C481 H485 0.950 . S
H482 C478 0.950 . S
C483 C481 1.390 . S
C483 C484 1.387 . S
C483 H486 0.950 . S
C484 C483 1.387 . S
C484 C487 1.387 . S
H485 C481 0.950 . S
H486 C483 0.950 . S
C487 C478 1.390 . S
C487 H480 0.950 . S
C487 C484 1.387 . S
C488 C489 1.387 . S
C488 H492 0.950 . S
C488 C497 1.390 . S
C489 C488 1.387 . S
C489 C491 1.387 . S
H490 C497 0.950 . S
C491 C489 1.387 . S
C491 C493 1.390 . S
C491 H495 0.950 . S
H492 C488 0.950 . S
C493 C491 1.390 . S
C493 C494 1.387 . S
C493 H496 0.950 . S
C494 C493 1.387 . S
C494 C497 1.387 . S
H495 C491 0.950 . S
H496 C493 0.950 . S
C497 C488 1.390 . S
C497 H490 0.950 . S
C497 C494 1.387 . S
C498 C499 1.387 . S
C498 H502 0.950 . S
C498 C507 1.390 . S
C499 C498 1.387 . S
C499 C501 1.387 . S
H500 C507 0.950 . S
C501 C499 1.387 . S
C501 C503 1.390 . S
C501 H505 0.950 . S
H502 C498 0.950 . S
C503 C501 1.390 . S
C503 C504 1.387 . S
C503 H506 0.950 . S
C504 C503 1.387 . S
C504 C507 1.387 . S
H505 C501 0.950 . S
H506 C503 0.950 . S
C507 C498 1.390 . S
C507 H500 0.950 . S
C507 C504 1.387 . S
C508 C509 1.387 . S
C508 H512 0.950 . S
C508 C517 1.390 . S
C509 C508 1.387 . S
C509 C511 1.387 . S
H510 C517 0.950 . S
C511 C509 1.387 . S
C511 C513 1.390 . S
C511 H515 0.950 . S
H512 C508 0.950 . S
C513 C511 1.390 . S
C513 C514 1.387 . S
C513 H516 0.950 . S
C514 C513 1.387 . S
C514 C517 1.387 . S
H515 C511 0.950 . S
H516 C513 0.950 . S
C517 C508 1.390 . S
C517 H510 0.950 . S
C517 C514 1.387 . S
C518 C519 1.387 . S
C518 H522 0.950 . S
C518 C527 1.390 . S
C519 C518 1.387 . S
C519 C521 1.387 . S
H520 C527 0.950 . S
C521 C519 1.387 . S
C521 C523 1.390 . S
C521 H525 0.950 . S
H522 C518 0.950 . S
C523 C521 1.390 . S
C523 C524 1.387 . S
C523 H526 0.950 . S
C524 C523 1.387 . S
C524 C527 1.387 . S
H525 C521 0.950 . S
H526 C523 0.950 . S
C527 C518 1.390 . S
C527 H520 0.950 . S
C527 C524 1.387 . S
C528 C529 1.387 . S
C528 H532 0.950 . S
C528 C537 1.390 . S
C529 C528 1.387 . S
C529 C531 1.387 . S
H530 C537 0.950 . S
C531 C529 1.387 . S
C531 C533 1.390 . S
C531 H535 0.950 . S
H532 C528 0.950 . S
C533 C531 1.390 . S
C533 C534 1.387 . S
C533 H536 0.950 . S
C534 C533 1.387 . S
C534 C537 1.387 . S
H535 C531 0.950 . S
H536 C533 0.950 . S
C537 C528 1.390 . S
C537 H530 0.950 . S
C537 C534 1.387 . S
C538 C539 1.387 . S
C538 H542 0.950 . S
C538 C547 1.390 . S
C539 C538 1.387 . S
C539 C541 1.387 . S
H540 C547 0.950 . S
C541 C539 1.387 . S
C541 C543 1.390 . S
C541 H545 0.950 . S
H542 C538 0.950 . S
C543 C541 1.390 . S
C543 C544 1.387 . S
C543 H546 0.950 . S
C544 C543 1.387 . S
C544 C547 1.387 . S
H545 C541 0.950 . S
H546 C543 0.950 . S
C547 C538 1.390 . S
C547 H540 0.950 . S
C547 C544 1.387 . S
C548 C549 1.387 . S
C548 H552 0.950 . S
C548 C557 1.390 . S
C549 C548 1.387 . S
C549 C551 1.387 . S
H550 C557 0.950 . S
C551 C549 1.387 . S
C551 C553 1.390 . S
C551 H555 0.950 . S
H552 C548 0.950 . S
C553 C551 1.390 . S
C553 C554 1.387 . S
C553 H556 0.950 . S
C554 C553 1.387 . S
C554 C557 1.387 . S
H555 C551 0.950 . S
H556 C553 0.950 . S
C557 C548 1.390 . S
C557 H550 0.950 . S
C557 C554 1.387 . S
C558 C559 1.387 . S
C558 H562 0.950 . S
C558 C567 1.390 . S
C559 C558 1.387 . S
C559 C561 1.387 . S
H560 C567 0.950 . S
C561 C559 1.387 . S
C561 C563 1.390 . S
C561 H565 0.950 . S
H562 C558 0.950 . S
C563 C561 1.390 . S
C563 C564 1.387 . S
C563 H566 0.950 . S
C564 C563 1.387 . S
C564 C567 1.387 . S
H565 C561 0.950 . S
H566 C563 0.950 . S
C567 C558 1.390 . S
C567 H560 0.950 . S
C567 C564 1.387 . S
C568 C569 1.387 . S
C568 H572 0.950 . S
C568 C577 1.390 . S
C569 C568 1.387 . S
C569 C571 1.387 . S
H570 C577 0.950 . S
C571 C569 1.387 . S
C571 C573 1.390 . S
C571 H575 0.950 . S
H572 C568 0.950 . S
C573 C571 1.390 . S
C573 C574 1.387 . S
C573 H576 0.950 . S
C574 C573 1.387 . S
C574 C577 1.387 . S
H575 C571 0.950 . S
H576 C573 0.950 . S
C577 C568 1.390 . S
C577 H570 0.950 . S
C577 C574 1.387 . S
C578 C579 1.387 . S
C578 H582 0.950 . S
C578 C587 1.390 . S
C579 C578 1.387 . S
C579 C581 1.387 . S
H580 C587 0.950 . S
C581 C579 1.387 . S
C581 C583 1.390 . S
C581 H585 0.950 . S
H582 C578 0.950 . S
C583 C581 1.390 . S
C583 C584 1.387 . S
C583 H586 0.950 . S
C584 C583 1.387 . S
C584 C587 1.387 . S
H585 C581 0.950 . S
H586 C583 0.950 . S
C587 C578 1.390 . S
C587 H580 0.950 . S
C587 C584 1.387 . S
C588 C589 1.387 . S
C588 H592 0.950 . S
C588 C597 1.390 . S
C589 C588 1.387 . S
C589 C591 1.387 . S
H590 C597 0.950 . S
C591 C589 1.387 . S
C591 C593 1.390 . S
C591 H595 0.950 . S
H592 C588 0.950 . S
C593 C591 1.390 . S
C593 C594 1.387 . S
C593 H596 0.950 . S
C594 C593 1.387 . S
C594 C597 1.387 . S
H595 C591 0.950 . S
H596 C593 0.950 . S
C597 C588 1.390 . S
C597 H590 0.950 . S
C597 C594 1.387 . S
C598 C599 1.387 . S
C598 H602 0.950 . S
C598 C607 1.390 . S
C599 C598 1.387 . S
C599 C601 1.387 . S
H600 C607 0.950 . S
C601 C599 1.387 . S
C601 C603 1.390 . S
C601 H605 0.950 . S
H602 C598 0.950 . S
C603 C601 1.390 . S
C603 C604 1.387 . S
C603 H606 0.950 . S
C604 C603 1.387 . S
C604 C607 1.387 . S
H605 C601 0.950 . S
H606 C603 0.950 . S
C607 C598 1.390 . S
C607 H600 0.950 . S
C607 C604 1.387 . S
C608 C609 1.387 . S
C608 H612 0.950 . S
C608 C617 1.390 . S
C609 C608 1.387 . S
C609 C611 1.387 . S
H610 C617 0.950 . S
C611 C609 1.387 . S
C611 C613 1.390 . S
C611 H615 0.950 . S
H612 C608 0.950 . S
C613 C611 1.390 . S
C613 C614 1.387 . S
C613 H616 0.950 . S
C614 C613 1.387 . S
C614 C617 1.387 . S
H615 C611 0.950 . S
H616 C613 0.950 . S
C617 C608 1.390 . S
C617 H610 0.950 . S
C617 C614 1.387 . S
C618 C619 1.387 . S
C618 H622 0.950 . S
C618 C627 1.390 . S
C619 C618 1.387 . S
C619 C621 1.387 . S
H620 C627 0.950 . S
C621 C619 1.387 . S
C621 C623 1.390 . S
C621 H625 0.950 . S
H622 C618 0.950 . S
C623 C621 1.390 . S
C623 C624 1.387 . S
C623 H626 0.950 . S
C624 C623 1.387 . S
C624 C627 1.387 . S
H625 C621 0.950 . S
H626 C623 0.950 . S
C627 C618 1.390 . S
C627 H620 0.950 . S
C627 C624 1.387 . S
C628 C629 1.387 . S
C628 H632 0.950 . S
C628 C637 1.390 . S
C629 C628 1.387 . S
C629 C631 1.387 . S
H630 C637 0.950 . S
C631 C629 1.387 . S
C631 C633 1.390 . S
C631 H635 0.950 . S
H632 C628 0.950 . S
C633 C631 1.390 . S
C633 C634 1.387 . S
C633 H636 0.950 . S
C634 C633 1.387 . S
C634 C637 1.387 . S
H635 C631 0.950 . S
H636 C633 0.950 . S
C637 C628 1.390 . S
C637 H630 0.950 . S
C637 C634 1.387 . S
C638 C639 1.387 . S
C638 H642 0.950 . S
C638 C647 1.390 . S
C639 C638 1.387 . S
C639 C641 1.387 . S
H640 C647 0.950 . S
C641 C639 1.387 . S
C641 C643 1.390 . S
C641 H645 0.950 . S
H642 C638 0.950 . S
C643 C641 1.390 . S
C643 C644 1.387 . S
C643 H646 0.950 . S
C644 C643 1.387 . S
C644 C647 1.387 . S
H645 C641 0.950 . S
H646 C643 0.950 . S
C647 C638 1.390 . S
C647 H640 0.950 . S
C647 C644 1.387 . S
C648 C649 1.387 . S
C648 H652 0.950 . S
C648 C657 1.390 1_455 S
C649 C648 1.387 . S
C649 C651 1.387 . S
H650 C657 0.950 . S
C651 C649 1.387 . S
C651 C653 1.390 1_455 S
C651 H655 0.950 . S
H652 C648 0.950 . S
C653 C651 1.390 1_655 S
C653 C654 1.387 . S
C653 H656 0.950 . S
C654 C653 1.387 . S
C654 C657 1.387 . S
H655 C651 0.950 . S
H656 C653 0.950 . S
C657 C648 1.390 1_655 S
C657 H650 0.950 . S
C657 C654 1.387 . S
C658 C659 1.387 . S
C658 H662 0.950 . S
C658 C667 1.390 1_565 S
C659 C658 1.387 . S
C659 C661 1.387 . S
H660 C667 0.950 . S
C661 C659 1.387 . S
C661 C663 1.390 1_565 S
C661 H665 0.950 . S
H662 C658 0.950 . S
C663 C661 1.390 1_545 S
C663 C664 1.387 . S
C663 H666 0.950 . S
C664 C663 1.387 . S
C664 C667 1.387 . S
H665 C661 0.950 . S
H666 C663 0.950 . S
C667 C658 1.390 1_545 S
C667 H660 0.950 . S
C667 C664 1.387 . S
C668 C669 1.387 . S
C668 H672 0.950 . S
C668 C677 1.390 . S
C669 C668 1.387 . S
C669 C671 1.387 . S
H670 C677 0.950 . S
C671 C669 1.387 . S
C671 C673 1.390 . S
C671 H675 0.950 . S
H672 C668 0.950 . S
C673 C671 1.390 . S
C673 C674 1.387 . S
C673 H676 0.950 . S
C674 C673 1.387 . S
C674 C677 1.387 . S
H675 C671 0.950 . S
H676 C673 0.950 . S
C677 C668 1.390 . S
C677 H670 0.950 . S
C677 C674 1.387 . S
C678 C679 1.387 . S
C678 H682 0.950 . S
C678 C687 1.390 1_455 S
C679 C678 1.387 . S
C679 C681 1.387 . S
H680 C687 0.950 . S
C681 C679 1.387 . S
C681 C683 1.390 1_455 S
C681 H685 0.950 . S
H682 C678 0.950 . S
C683 C681 1.390 1_655 S
C683 C684 1.387 . S
C683 H686 0.950 . S
C684 C683 1.387 . S
C684 C687 1.387 . S
H685 C681 0.950 . S
H686 C683 0.950 . S
C687 C678 1.390 1_655 S
C687 H680 0.950 . S
C687 C684 1.387 . S
C688 C689 1.387 . S
C688 H692 0.950 . S
C688 C697 1.390 1_565 S
C689 C688 1.387 . S
C689 C691 1.387 . S
H690 C697 0.950 . S
C691 C689 1.387 . S
C691 C693 1.390 1_565 S
C691 H695 0.950 . S
H692 C688 0.950 . S
C693 C691 1.390 1_545 S
C693 C694 1.387 . S
C693 H696 0.950 . S
C694 C693 1.387 . S
C694 C697 1.387 . S
H695 C691 0.950 . S
H696 C693 0.950 . S
C697 C688 1.390 1_545 S
C697 H690 0.950 . S
C697 C694 1.387 . S
C698 C699 1.387 . S
C698 H702 0.950 . S
C698 C707 1.390 . S
C699 C698 1.387 . S
C699 C701 1.387 . S
H700 C707 0.950 . S
C701 C699 1.387 . S
C701 C703 1.390 . S
C701 H705 0.950 . S
H702 C698 0.950 . S
C703 C701 1.390 . S
C703 C704 1.387 . S
C703 H706 0.950 . S
C704 C703 1.387 . S
C704 C707 1.387 . S
H705 C701 0.950 . S
H706 C703 0.950 . S
C707 C698 1.390 . S
C707 H700 0.950 . S
C707 C704 1.387 . S
C409 C305 1.497 . S
C414 C33 1.498 . S
C419 C67 1.497 . S
C424 C339 1.497 . S
C429 C373 1.497 . S
C434 C101 1.498 . S
C439 C407 1.497 . S
C444 C135 1.498 . S
C449 C169 1.497 . S
C454 C237 1.497 . S
C459 C271 1.497 . S
C464 C203 1.498 . S
C469 C360 1.485 . S
C474 C20 1.485 . S
C479 C394 1.485 . S
C484 C54 1.485 . S
C489 C88 1.485 . S
C494 C224 1.486 . S
C499 C258 1.486 . S
C504 C122 1.486 . S
C509 C292 1.486 . S
C514 C156 1.485 . S
C519 C326 1.485 . S
C524 C190 1.485 . S
C529 C5 1.508 . S
C534 C9 1.403 . S
C539 C39 1.507 . S
C544 C43 1.402 . S
C549 C73 1.508 . S
C554 C77 1.405 . S
C559 C107 1.508 . S
C564 C111 1.405 . S
C569 C145 1.402 . S
C574 C141 1.507 . S
C579 C175 1.507 . S
C584 C179 1.402 . S
C589 C213 1.402 . S
C594 C209 1.507 . S
C599 C243 1.508 . S
C604 C247 1.404 . S
C609 C281 1.406 . S
C614 C277 1.509 . S
C619 C315 1.402 . S
C624 C311 1.507 . S
C629 C345 1.508 . S
C634 C349 1.404 . S
C639 C379 1.509 . S
C644 C383 1.406 . S
C649 C2 1.482 . S
C654 C376 1.483 . S
C659 C206 1.482 . S
C664 C36 1.482 . S
C669 C240 1.482 . S
C674 C70 1.482 . S
C679 C274 1.482 . S
C684 C104 1.483 . S
C689 C138 1.482 . S
C694 C308 1.482 . S
C699 C342 1.482 . S
C704 C172 1.483 . S
