# Generated by pormake.
# Topology vch, (7)-cn, num edge types: 1
# Building blocks:
#     Node 0, Type 0, BuildingBlock: HICVOG_clean_sbu_0, # of connection points: 7
#     Node 1, Type 0, BuildingBlock: HICVOG_clean_sbu_0, # of connection points: 7
#     Node 2, Type 0, BuildingBlock: HICVOG_clean_sbu_0, # of connection points: 7
#     Node 3, Type 0, BuildingBlock: HICVOG_clean_sbu_0, # of connection points: 7
#     Node 4, Type 0, BuildingBlock: HICVOG_clean_sbu_0, # of connection points: 7
#     Node 5, Type 0, BuildingBlock: HICVOG_clean_sbu_0, # of connection points: 7
#     Node 6, Type 0, BuildingBlock: HICVOG_clean_sbu_0, # of connection points: 7
#     Node 7, Type 0, BuildingBlock: HICVOG_clean_sbu_0, # of connection points: 7
#     Node 8, Type 0, BuildingBlock: HICVOG_clean_sbu_0, # of connection points: 7
#     Node 9, Type 0, BuildingBlock: HICVOG_clean_sbu_0, # of connection points: 7
#     Node 10, Type 0, BuildingBlock: HICVOG_clean_sbu_0, # of connection points: 7
#     Node 11, Type 0, BuildingBlock: HICVOG_clean_sbu_0, # of connection points: 7
#     Node 12, Type 0, BuildingBlock: HICVOG_clean_sbu_0, # of connection points: 7
#     Node 13, Type 0, BuildingBlock: HICVOG_clean_sbu_0, # of connection points: 7
#     Node 14, Type 0, BuildingBlock: HICVOG_clean_sbu_0, # of connection points: 7
#     Node 15, Type 0, BuildingBlock: HICVOG_clean_sbu_0, # of connection points: 7
#     Edge 16, Type (0, 0), BuildingBlock: OJICUG_clean_linker_0, # of connection points: 2
#     Edge 17, Type (0, 0), BuildingBlock: OJICUG_clean_linker_0, # of connection points: 2
#     Edge 18, Type (0, 0), BuildingBlock: OJICUG_clean_linker_0, # of connection points: 2
#     Edge 19, Type (0, 0), BuildingBlock: OJICUG_clean_linker_0, # of connection points: 2
#     Edge 20, Type (0, 0), BuildingBlock: OJICUG_clean_linker_0, # of connection points: 2
#     Edge 21, Type (0, 0), BuildingBlock: OJICUG_clean_linker_0, # of connection points: 2
#     Edge 22, Type (0, 0), BuildingBlock: OJICUG_clean_linker_0, # of connection points: 2
#     Edge 23, Type (0, 0), BuildingBlock: OJICUG_clean_linker_0, # of connection points: 2
#     Edge 24, Type (0, 0), BuildingBlock: OJICUG_clean_linker_0, # of connection points: 2
#     Edge 25, Type (0, 0), BuildingBlock: OJICUG_clean_linker_0, # of connection points: 2
#     Edge 26, Type (0, 0), BuildingBlock: OJICUG_clean_linker_0, # of connection points: 2
#     Edge 27, Type (0, 0), BuildingBlock: OJICUG_clean_linker_0, # of connection points: 2
#     Edge 28, Type (0, 0), BuildingBlock: OJICUG_clean_linker_0, # of connection points: 2
#     Edge 29, Type (0, 0), BuildingBlock: OJICUG_clean_linker_0, # of connection points: 2
#     Edge 30, Type (0, 0), BuildingBlock: OJICUG_clean_linker_0, # of connection points: 2
#     Edge 31, Type (0, 0), BuildingBlock: OJICUG_clean_linker_0, # of connection points: 2
#     Edge 32, Type (0, 0), BuildingBlock: OJICUG_clean_linker_0, # of connection points: 2
#     Edge 33, Type (0, 0), BuildingBlock: OJICUG_clean_linker_0, # of connection points: 2
#     Edge 34, Type (0, 0), BuildingBlock: OJICUG_clean_linker_0, # of connection points: 2
#     Edge 35, Type (0, 0), BuildingBlock: OJICUG_clean_linker_0, # of connection points: 2
#     Edge 36, Type (0, 0), BuildingBlock: OJICUG_clean_linker_0, # of connection points: 2
#     Edge 37, Type (0, 0), BuildingBlock: OJICUG_clean_linker_0, # of connection points: 2
#     Edge 38, Type (0, 0), BuildingBlock: OJICUG_clean_linker_0, # of connection points: 2
#     Edge 39, Type (0, 0), BuildingBlock: OJICUG_clean_linker_0, # of connection points: 2
#     Edge 40, Type (0, 0), BuildingBlock: OJICUG_clean_linker_0, # of connection points: 2
#     Edge 41, Type (0, 0), BuildingBlock: OJICUG_clean_linker_0, # of connection points: 2
#     Edge 42, Type (0, 0), BuildingBlock: OJICUG_clean_linker_0, # of connection points: 2
#     Edge 43, Type (0, 0), BuildingBlock: OJICUG_clean_linker_0, # of connection points: 2
#     Edge 44, Type (0, 0), BuildingBlock: OJICUG_clean_linker_0, # of connection points: 2
#     Edge 45, Type (0, 0), BuildingBlock: OJICUG_clean_linker_0, # of connection points: 2
#     Edge 46, Type (0, 0), BuildingBlock: OJICUG_clean_linker_0, # of connection points: 2
#     Edge 47, Type (0, 0), BuildingBlock: OJICUG_clean_linker_0, # of connection points: 2
#     Edge 48, Type (0, 0), BuildingBlock: OJICUG_clean_linker_0, # of connection points: 2
#     Edge 49, Type (0, 0), BuildingBlock: OJICUG_clean_linker_0, # of connection points: 2
#     Edge 50, Type (0, 0), BuildingBlock: OJICUG_clean_linker_0, # of connection points: 2
#     Edge 51, Type (0, 0), BuildingBlock: OJICUG_clean_linker_0, # of connection points: 2
#     Edge 52, Type (0, 0), BuildingBlock: OJICUG_clean_linker_0, # of connection points: 2
#     Edge 53, Type (0, 0), BuildingBlock: OJICUG_clean_linker_0, # of connection points: 2
#     Edge 54, Type (0, 0), BuildingBlock: OJICUG_clean_linker_0, # of connection points: 2
#     Edge 55, Type (0, 0), BuildingBlock: OJICUG_clean_linker_0, # of connection points: 2
#     Edge 56, Type (0, 0), BuildingBlock: OJICUG_clean_linker_0, # of connection points: 2
#     Edge 57, Type (0, 0), BuildingBlock: OJICUG_clean_linker_0, # of connection points: 2
#     Edge 58, Type (0, 0), BuildingBlock: OJICUG_clean_linker_0, # of connection points: 2
#     Edge 59, Type (0, 0), BuildingBlock: OJICUG_clean_linker_0, # of connection points: 2
#     Edge 60, Type (0, 0), BuildingBlock: OJICUG_clean_linker_0, # of connection points: 2
#     Edge 61, Type (0, 0), BuildingBlock: OJICUG_clean_linker_0, # of connection points: 2
#     Edge 62, Type (0, 0), BuildingBlock: OJICUG_clean_linker_0, # of connection points: 2
#     Edge 63, Type (0, 0), BuildingBlock: OJICUG_clean_linker_0, # of connection points: 2
#     Edge 64, Type (0, 0), BuildingBlock: OJICUG_clean_linker_0, # of connection points: 2
#     Edge 65, Type (0, 0), BuildingBlock: OJICUG_clean_linker_0, # of connection points: 2
#     Edge 66, Type (0, 0), BuildingBlock: OJICUG_clean_linker_0, # of connection points: 2
#     Edge 67, Type (0, 0), BuildingBlock: OJICUG_clean_linker_0, # of connection points: 2
#     Edge 68, Type (0, 0), BuildingBlock: OJICUG_clean_linker_0, # of connection points: 2
#     Edge 69, Type (0, 0), BuildingBlock: OJICUG_clean_linker_0, # of connection points: 2
#     Edge 70, Type (0, 0), BuildingBlock: OJICUG_clean_linker_0, # of connection points: 2
#     Edge 71, Type (0, 0), BuildingBlock: OJICUG_clean_linker_0, # of connection points: 2
# Relax obj value: 0.118
# Max RMSD: 0.207
# Mean RMSD: 0.207
data_MOF--net-vch--node1-HICVOG_clean_sbu_0--edge1-OJICUG_clean_linker_0
_symmetry_space_group_name_H-M    P1
_symmetry_Int_Tables_number       1
_symmetry_cell_setting            triclinic
loop_
_symmetry_equiv_pos_as_xyz
'x, y, z'
_cell_length_a     14.195326
_cell_length_b     62.542316
_cell_length_c     36.791303
_cell_angle_alpha  89.08542
_cell_angle_beta   89.983287
_cell_angle_gamma 89.935213
loop_
_atom_site_label
_atom_site_type_symbol
_atom_site_fract_x
_atom_site_fract_y
_atom_site_fract_z
_atom_type_partial_charge
Zn0 Zn 0.94789 0.15516 0.13303 0.0
C1 C 0.12409 0.12757 0.06461 0.0
N2 N 0.05197 0.12723 0.04115 0.0
C3 C 0.97954 0.13336 0.06189 0.0
N4 N 0.00571 0.13756 0.09629 0.0
N5 N 0.09636 0.13305 0.09815 0.0
C6 C 0.35144 0.13805 0.14726 0.0
O7 O 0.31013 0.15322 0.1657 0.0
O8 O 0.80459 0.15801 0.1279 0.0
Zn9 Zn 0.1579 0.121 0.14085 0.0
N10 N 0.01897 0.1822 0.13252 0.0
C11 C 0.17632 0.19502 0.1376 0.0
C12 C 0.11223 0.17832 0.13774 0.0
C13 C 0.98654 0.20269 0.12819 0.0
N14 N 0.14466 0.21527 0.13331 0.0
C15 C 0.05169 0.21995 0.12886 0.0
O16 O 0.11342 0.13153 0.19046 0.0
C17 C 0.03314 0.13663 0.20347 0.0
O18 O 0.96548 0.14302 0.18337 0.0
H19 H 0.13688 0.16222 0.14217 0.0
H20 H 0.91173 0.20537 0.12513 0.0
C21 C 0.17699 0.07431 0.13817 0.0
C22 C 0.13905 0.05342 0.13836 0.0
C23 C 0.98542 0.06819 0.14382 0.0
C24 C 0.02332 0.08868 0.144 0.0
N25 N 0.11798 0.09138 0.14112 0.0
N26 N 0.04386 0.05114 0.14104 0.0
H27 H 0.25174 0.07712 0.1352 0.0
C28 C 0.75671 0.14079 0.12647 0.0
O29 O 0.80177 0.12244 0.12571 0.0
O30 O 0.30172 0.12272 0.13531 0.0
H31 H 0.97762 0.10243 0.14625 0.0
H32 H 0.25076 0.192 0.14125 0.0
H33 H 0.91013 0.06583 0.14593 0.0
Zn34 Zn 0.34223 0.90824 0.14088 0.0
C35 C 0.51764 0.88864 0.06411 0.0
N36 N 0.44399 0.89165 0.042 0.0
C37 C 0.37401 0.89471 0.06567 0.0
N38 N 0.40285 0.89401 0.10047 0.0
N39 N 0.4939 0.88988 0.09944 0.0
C40 C 0.74282 0.88756 0.13724 0.0
O41 O 0.69754 0.90485 0.1471 0.0
O42 O 0.19787 0.9066 0.13685 0.0
Zn43 Zn 0.55267 0.87339 0.13751 0.0
N44 N 0.38336 0.93772 0.1361 0.0
C45 C 0.51702 0.96051 0.13146 0.0
C46 C 0.47834 0.94014 0.1342 0.0
C47 C 0.32486 0.95501 0.13584 0.0
N48 N 0.45916 0.97776 0.13127 0.0
C49 C 0.36376 0.97578 0.13342 0.0
O50 O 0.53396 0.88611 0.18653 0.0
C51 C 0.4677 0.89381 0.2056 0.0
O52 O 0.38876 0.89956 0.19182 0.0
H53 H 0.52378 0.92629 0.13525 0.0
H54 H 0.2498 0.95251 0.13847 0.0
C55 C 0.5169 0.82625 0.1327 0.0
C56 C 0.45348 0.80875 0.13359 0.0
C57 C 0.32807 0.83259 0.14627 0.0
C58 C 0.39074 0.84962 0.14604 0.0
N59 N 0.4835 0.84634 0.13893 0.0
N60 N 0.36078 0.81266 0.14015 0.0
H61 H 0.59087 0.82406 0.12675 0.0
C62 C 0.14984 0.89066 0.14834 0.0
O63 O 0.19336 0.87475 0.16486 0.0
O64 O 0.69542 0.87076 0.13046 0.0
H65 H 0.36559 0.86553 0.15117 0.0
H66 H 0.59255 0.96263 0.12987 0.0
H67 H 0.25394 0.8351 0.15147 0.0
Zn68 Zn 0.65709 0.91384 0.42256 0.0
C69 C 0.48006 0.90001 0.50248 0.0
N70 N 0.55289 0.90473 0.52392 0.0
C71 C 0.62373 0.90616 0.49999 0.0
N72 N 0.59513 0.90262 0.46572 0.0
N73 N 0.50446 0.89823 0.46734 0.0
C74 C 0.25658 0.89371 0.4305 0.0
O75 O 0.30173 0.91098 0.41958 0.0
O76 O 0.80112 0.91213 0.42759 0.0
Zn77 Zn 0.44682 0.87993 0.43195 0.0
N78 N 0.6169 0.94345 0.42088 0.0
C79 C 0.48449 0.96661 0.41544 0.0
C80 C 0.52273 0.94614 0.41605 0.0
C81 C 0.67504 0.96053 0.42518 0.0
N82 N 0.5421 0.98368 0.41952 0.0
C83 C 0.63677 0.98141 0.42426 0.0
O84 O 0.46386 0.89092 0.38109 0.0
C85 C 0.53172 0.8969 0.36077 0.0
O86 O 0.61177 0.90234 0.37359 0.0
H87 H 0.47762 0.93237 0.41302 0.0
H88 H 0.74924 0.95773 0.42986 0.0
C89 C 0.48193 0.83264 0.43823 0.0
C90 C 0.54505 0.81503 0.43886 0.0
C91 C 0.67329 0.839 0.43178 0.0
C92 C 0.61101 0.85611 0.42999 0.0
N93 N 0.51696 0.85286 0.43403 0.0
N94 N 0.63899 0.81897 0.43601 0.0
H95 H 0.40673 0.83038 0.44097 0.0
C96 C 0.84975 0.89603 0.41792 0.0
O97 O 0.80713 0.87987 0.40269 0.0
O98 O 0.30431 0.87709 0.43908 0.0
H99 H 0.63755 0.87201 0.42526 0.0
H100 H 0.40956 0.96896 0.41176 0.0
H101 H 0.74837 0.84153 0.42927 0.0
Zn102 Zn 0.0512 0.16034 0.42583 0.0
C103 C 0.86937 0.14521 0.49811 0.0
N104 N 0.93963 0.14937 0.52127 0.0
C105 C 0.01526 0.14888 0.49953 0.0
N106 N 0.99178 0.14502 0.46484 0.0
N107 N 0.90005 0.14191 0.46397 0.0
C108 C 0.65128 0.14605 0.4326 0.0
O109 O 0.69809 0.16353 0.44007 0.0
O110 O 0.19297 0.16342 0.43467 0.0
Zn111 Zn 0.84089 0.12652 0.42428 0.0
N112 N 0.98135 0.18722 0.42152 0.0
C113 C 0.83002 0.20141 0.40675 0.0
C114 C 0.89147 0.18419 0.40996 0.0
C115 C 0.01252 0.20713 0.43012 0.0
N116 N 0.86069 0.22119 0.41515 0.0
C117 C 0.95025 0.22477 0.4267 0.0
O118 O 0.89066 0.13329 0.37284 0.0
C119 C 0.97003 0.13847 0.35883 0.0
O120 O 0.03624 0.1464 0.37757 0.0
H121 H 0.86705 0.16837 0.40379 0.0
H122 H 0.08379 0.20904 0.43992 0.0
C123 C 0.82113 0.07976 0.43121 0.0
C124 C 0.85956 0.05896 0.43467 0.0
C125 C 0.01258 0.07407 0.43893 0.0
C126 C 0.97452 0.09443 0.43483 0.0
N127 N 0.87984 0.09698 0.43152 0.0
N128 N 0.95457 0.05689 0.43857 0.0
H129 H 0.74652 0.08231 0.42711 0.0
C130 C 0.24254 0.14732 0.42561 0.0
O131 O 0.19955 0.13065 0.41207 0.0
O132 O 0.6968 0.12905 0.42532 0.0
H133 H 0.02035 0.10817 0.43351 0.0
H134 H 0.75835 0.1991 0.39765 0.0
H135 H 0.08785 0.07187 0.44172 0.0
Zn136 Zn 0.83623 0.91277 0.92209 0.0
C137 C 0.01373 0.89888 1.00211 0.0
N138 N 0.9415 0.90413 1.0235 0.0
C139 C 0.87073 0.90575 0.99961 0.0
N140 N 0.89879 0.90186 0.96539 0.0
N141 N 0.98912 0.89704 0.96699 0.0
C142 C 0.23655 0.89219 0.93022 0.0
O143 O 0.19111 0.90944 0.9193 0.0
O144 O 0.69195 0.91112 0.92734 0.0
Zn145 Zn 0.04616 0.87842 0.93169 0.0
N146 N 0.87706 0.94231 0.91966 0.0
C147 C 0.01024 0.96497 0.91186 0.0
C148 C 0.97096 0.94463 0.91367 0.0
C149 C 0.82032 0.95962 0.92434 0.0
N150 N 0.95407 0.98226 0.91634 0.0
C151 C 0.8599 0.98034 0.92273 0.0
O152 O 0.02903 0.88932 0.88078 0.0
C153 C 0.96107 0.89528 0.86048 0.0
O154 O 0.88113 0.90085 0.87331 0.0
H155 H 0.01502 0.93069 0.91043 0.0
H156 H 0.74576 0.95719 0.92877 0.0
C157 C 0.00783 0.83095 0.93679 0.0
C158 C 0.94267 0.81367 0.93735 0.0
C159 C 0.81687 0.83867 0.93279 0.0
C160 C 0.88089 0.85535 0.93095 0.0
N161 N 0.97475 0.85146 0.93393 0.0
N162 N 0.84914 0.81841 0.93578 0.0
H163 H 0.08301 0.82835 0.93767 0.0
C164 C 0.64354 0.89507 0.91739 0.0
O165 O 0.68645 0.87907 0.90169 0.0
O166 O 0.18903 0.87553 0.93871 0.0
H167 H 0.85575 0.8714 0.92675 0.0
H168 H 0.08487 0.96702 0.90701 0.0
H169 H 0.74196 0.84169 0.93119 0.0
Zn170 Zn 0.64936 0.12534 0.92478 0.0
C171 C 0.47431 0.14932 0.99862 0.0
N172 N 0.5499 0.15034 1.02029 0.0
C173 C 0.62021 0.1456 0.99746 0.0
N174 N 0.58955 0.14144 0.96361 0.0
N175 N 0.49779 0.1446 0.96424 0.0
C176 C 0.24734 0.14668 0.92485 0.0
O177 O 0.29035 0.12972 0.91225 0.0
O178 O 0.7933 0.12844 0.92522 0.0
Zn179 Zn 0.43882 0.15935 0.92453 0.0
N180 N 0.61386 0.09578 0.93416 0.0
C181 C 0.48537 0.07222 0.94554 0.0
C182 C 0.52012 0.09273 0.9395 0.0
C183 C 0.6746 0.07891 0.93348 0.0
N184 N 0.54541 0.05539 0.94476 0.0
C185 C 0.63935 0.05793 0.93851 0.0
O186 O 0.45314 0.14445 0.87709 0.0
C187 C 0.51859 0.1358 0.85883 0.0
O188 O 0.59772 0.13063 0.87309 0.0
H189 H 0.47246 0.10617 0.93846 0.0
H190 H 0.74869 0.08192 0.92897 0.0
C191 C 0.4815 0.20609 0.92698 0.0
C192 C 0.54466 0.22345 0.92161 0.0
C193 C 0.66045 0.19911 0.90059 0.0
C194 C 0.59829 0.18227 0.90581 0.0
N195 N 0.51001 0.18592 0.91859 0.0
N196 N 0.63224 0.21914 0.90849 0.0
H197 H 0.41163 0.2083 0.93791 0.0
C198 C 0.83843 0.14558 0.93182 0.0
O199 O 0.79129 0.16309 0.93886 0.0
O200 O 0.29699 0.16289 0.93316 0.0
H201 H 0.62099 0.16625 0.90021 0.0
H202 H 0.41094 0.06964 0.95014 0.0
H203 H 0.73079 0.19633 0.89037 0.0
Zn204 Zn 0.33168 0.11841 0.64064 0.0
C205 C 0.51004 0.13147 0.56162 0.0
N206 N 0.43758 0.1257 0.54064 0.0
C207 C 0.36554 0.12558 0.56418 0.0
N208 N 0.39351 0.13044 0.59798 0.0
N209 N 0.48405 0.13502 0.59628 0.0
C210 C 0.73276 0.13813 0.62638 0.0
O211 O 0.68812 0.11978 0.62486 0.0
O212 O 0.18793 0.12014 0.63495 0.0
Zn213 Zn 0.54131 0.15224 0.63363 0.0
N214 N 0.37205 0.08884 0.64086 0.0
C215 C 0.50477 0.06563 0.64353 0.0
C216 C 0.46673 0.08612 0.64377 0.0
C217 C 0.31318 0.07179 0.63782 0.0
N218 N 0.44645 0.04859 0.64065 0.0
C219 C 0.35127 0.0509 0.63793 0.0
O220 O 0.52441 0.13952 0.68358 0.0
C221 C 0.4561 0.1334 0.70357 0.0
O222 O 0.37538 0.12884 0.69043 0.0
H223 H 0.51233 0.09985 0.64606 0.0
H224 H 0.23842 0.07461 0.63481 0.0
C225 C 0.50158 0.19974 0.63071 0.0
C226 C 0.43598 0.21694 0.63157 0.0
C227 C 0.31155 0.19182 0.63837 0.0
C228 C 0.37605 0.17518 0.63844 0.0
N229 N 0.46942 0.17919 0.63396 0.0
N230 N 0.34292 0.21213 0.63507 0.0
H231 H 0.57646 0.20244 0.62826 0.0
C232 C 0.13782 0.13524 0.64755 0.0
O233 O 0.17866 0.15011 0.66677 0.0
O234 O 0.68449 0.15529 0.62854 0.0
H235 H 0.35156 0.15905 0.64218 0.0
H236 H 0.58007 0.06325 0.64566 0.0
H237 H 0.237 0.18871 0.64134 0.0
Zn238 Zn 0.15032 0.90592 0.64056 0.0
C239 C 0.97559 0.8863 0.56375 0.0
N240 N 0.04946 0.88925 0.54169 0.0
C241 C 0.11943 0.89221 0.56539 0.0
N242 N 0.09036 0.89159 0.60017 0.0
N243 N -0.00068 0.88753 0.59909 0.0
C244 C 0.74988 0.88548 0.63695 0.0
O245 O 0.79487 0.90277 0.64689 0.0
O246 O 0.29467 0.90444 0.63661 0.0
Zn247 Zn 0.94015 0.87131 0.63736 0.0
N248 N 0.10833 0.93532 0.63569 0.0
C249 C 0.97416 0.95803 0.63127 0.0
C250 C 0.01328 0.93769 0.63404 0.0
C251 C 0.16649 0.95263 0.6352 0.0
N252 N 0.03169 0.97531 0.63088 0.0
C253 C 0.12716 0.97337 0.6328 0.0
O254 O 0.95827 0.88426 0.68625 0.0
C255 C 0.02477 0.89183 0.70531 0.0
O256 O 0.10402 0.89731 0.69153 0.0
H257 H 0.96817 0.92381 0.63534 0.0
H258 H 0.24163 0.95017 0.63769 0.0
C259 C 0.97613 0.82414 0.63312 0.0
C260 C 0.03958 0.80662 0.63435 0.0
C261 C 0.1646 0.83044 0.6473 0.0
C262 C 0.10191 0.8475 0.64668 0.0
N263 N 0.00932 0.84423 0.63931 0.0
N264 N 0.13209 0.81051 0.64122 0.0
H265 H 0.90231 0.82197 0.62693 0.0
C266 C 0.3429 0.88851 0.64811 0.0
O267 O 0.29954 0.87259 0.66459 0.0
O268 O 0.79751 0.86869 0.63018 0.0
H269 H 0.12693 0.86342 0.65169 0.0
H270 H 0.89857 0.96011 0.62987 0.0
H271 H 0.23858 0.83293 0.65275 0.0
Zn272 Zn 0.45039 0.65429 0.13321 0.0
C273 C 0.62738 0.62634 0.06549 0.0
N274 N 0.55558 0.62592 0.04188 0.0
C275 C 0.48291 0.63222 0.06235 0.0
N276 N 0.50856 0.63659 0.09672 0.0
N277 N 0.59908 0.63203 0.09887 0.0
C278 C 0.85413 0.63758 0.14857 0.0
O279 O 0.81337 0.6528 0.16706 0.0
O280 O 0.30717 0.65733 0.12774 0.0
Zn281 Zn 0.65996 0.62095 0.14244 0.0
N282 N 0.52249 0.68117 0.13286 0.0
C283 C 0.68037 0.69383 0.13667 0.0
C284 C 0.61601 0.6772 0.13718 0.0
C285 C 0.49011 0.7017 0.12943 0.0
N286 N 0.64875 0.71412 0.13321 0.0
C287 C 0.55557 0.71888 0.12993 0.0
O288 O 0.61609 0.63265 0.19143 0.0
C289 C 0.53454 0.63698 0.20409 0.0
O290 O 0.46588 0.64221 0.18358 0.0
H291 H 0.64082 0.66111 0.14118 0.0
H292 H 0.41516 0.70444 0.12722 0.0
C293 C 0.67657 0.57428 0.14294 0.0
C294 C 0.63753 0.55353 0.14377 0.0
C295 C 0.48442 0.56872 0.1472 0.0
C296 C 0.52334 0.58911 0.14671 0.0
N297 N 0.61829 0.59154 0.14448 0.0
N298 N 0.54215 0.55148 0.1457 0.0
H299 H 0.75167 0.57681 0.14048 0.0
C300 C 0.25898 0.64014 0.12646 0.0
O301 O 0.30374 0.62175 0.12584 0.0
O302 O 0.80389 0.62229 0.13676 0.0
H303 H 0.47817 0.603 0.1478 0.0
H304 H 0.755 0.69074 0.13948 0.0
H305 H 0.4089 0.56658 0.14875 0.0
Zn306 Zn 0.83492 0.40815 0.14252 0.0
C307 C 0.01104 0.3992 0.06265 0.0
N308 N 0.93837 0.40624 0.04257 0.0
C309 C 0.86662 0.40476 0.06609 0.0
N310 N 0.89473 0.39765 0.09904 0.0
N311 N 0.98544 0.39337 0.09669 0.0
C312 C 0.23596 0.38959 0.12637 0.0
O313 O 0.19097 0.40795 0.12679 0.0
O314 O 0.69095 0.40708 0.13729 0.0
Zn315 Zn 0.04492 0.37487 0.13271 0.0
N316 N 0.87737 0.4375 0.14409 0.0
C317 C 0.01211 0.45997 0.1468 0.0
C318 C 0.97245 0.43969 0.14593 0.0
C319 C 0.81964 0.45489 0.14315 0.0
N320 N 0.95498 0.47734 0.14586 0.0
C321 C 0.85947 0.47557 0.14398 0.0
O322 O 0.02893 0.38575 0.18338 0.0
C323 C 0.9612 0.39118 0.20394 0.0
O324 O 0.87966 0.39586 0.19141 0.0
H325 H 0.0171 0.42569 0.14674 0.0
H326 H 0.74429 0.45247 0.14237 0.0
C327 C 0.01048 0.32758 0.12675 0.0
C328 C 0.94763 0.30993 0.12647 0.0
C329 C 0.81953 0.33369 0.1353 0.0
C330 C 0.88153 0.35082 0.1365 0.0
N331 N 0.97543 0.34769 0.13164 0.0
N332 N 0.85388 0.31377 0.13046 0.0
H333 H 0.08545 0.32545 0.12298 0.0
C334 C 0.64116 0.39114 0.14752 0.0
O335 O 0.68255 0.37488 0.16394 0.0
O336 O 0.18804 0.37234 0.12686 0.0
H337 H 0.85476 0.36662 0.14127 0.0
H338 H 0.08771 0.46193 0.14827 0.0
H339 H 0.7446 0.33614 0.1386 0.0
Zn340 Zn 0.15666 0.4127 0.42014 0.0
C341 C 0.97865 0.39981 0.50069 0.0
N342 N 0.05142 0.40466 0.52209 0.0
C343 C 0.12251 0.40599 0.49822 0.0
N344 N 0.09392 0.40233 0.46395 0.0
N345 N 0.00332 0.39782 0.4656 0.0
C346 C 0.75624 0.39235 0.42893 0.0
O347 O 0.80136 0.4096 0.41791 0.0
O348 O 0.30069 0.41079 0.42543 0.0
Zn349 Zn 0.94669 0.37887 0.43081 0.0
N350 N 0.11797 0.4424 0.41708 0.0
C351 C 0.9866 0.46572 0.40998 0.0
C352 C 0.02414 0.44519 0.4115 0.0
C353 C 0.17646 0.45943 0.42131 0.0
N354 N 0.04452 0.48273 0.41406 0.0
C355 C 0.13886 0.48036 0.41959 0.0
O356 O 0.96301 0.38926 0.37969 0.0
C357 C 0.03062 0.39488 0.35899 0.0
O358 O 0.11081 0.40054 0.37144 0.0
H359 H 0.97871 0.43147 0.40859 0.0
H360 H 0.25035 0.45658 0.42662 0.0
C361 C 0.98608 0.33159 0.437 0.0
C362 C 0.05141 0.31433 0.43766 0.0
C363 C 0.17681 0.33927 0.43185 0.0
C364 C 0.11254 0.35593 0.42983 0.0
N365 N 0.01886 0.35206 0.43345 0.0
N366 N 0.14484 0.31904 0.43554 0.0
H367 H 0.91095 0.329 0.43825 0.0
C368 C 0.34955 0.39484 0.41527 0.0
O369 O 0.3073 0.37892 0.39918 0.0
O370 O 0.80408 0.37579 0.43783 0.0
H371 H 0.13733 0.37194 0.425 0.0
H372 H 0.91194 0.46816 0.40569 0.0
H373 H 0.25164 0.34226 0.42982 0.0
Zn374 Zn 0.55132 0.6608 0.42731 0.0
C375 C 0.37321 0.63869 0.49914 0.0
N376 N 0.44304 0.64174 0.52285 0.0
C377 C 0.51651 0.64518 0.50081 0.0
N378 N 0.49266 0.64422 0.46544 0.0
N379 N 0.40188 0.63978 0.46433 0.0
C380 C 0.14895 0.643 0.41561 0.0
O381 O 0.19234 0.65858 0.39821 0.0
O382 O 0.69437 0.66348 0.43421 0.0
Zn383 Zn 0.34168 0.62542 0.42388 0.0
N384 N 0.48057 0.68776 0.42552 0.0
C385 C 0.32387 0.70046 0.41683 0.0
C386 C 0.38856 0.68384 0.41804 0.0
C387 C 0.51122 0.70813 0.43136 0.0
N388 N 0.35375 0.72062 0.42259 0.0
C389 C 0.44546 0.72527 0.4297 0.0
O390 O 0.38929 0.63383 0.37291 0.0
C391 C 0.46787 0.63987 0.3592 0.0
O392 O 0.53304 0.64796 0.37832 0.0
H393 H 0.3656 0.66774 0.41316 0.0
H394 H 0.58513 0.7108 0.43661 0.0
C395 C 0.32378 0.57863 0.42799 0.0
C396 C 0.36235 0.55781 0.43065 0.0
C397 C 0.51525 0.57295 0.43546 0.0
C398 C 0.47694 0.59336 0.43239 0.0
N399 N 0.38226 0.59587 0.42903 0.0
N400 N 0.45742 0.55575 0.43439 0.0
H401 H 0.24913 0.58122 0.42408 0.0
C402 C 0.74185 0.6467 0.42713 0.0
O403 O 0.69657 0.62947 0.41706 0.0
O404 O 0.19708 0.62721 0.42776 0.0
H405 H 0.5225 0.60716 0.43215 0.0
H406 H 0.25035 0.69749 0.41121 0.0
H407 H 0.59053 0.57076 0.43823 0.0
Zn408 Zn 0.55209 0.378 0.92571 0.0
C409 C 0.37002 0.3906 0.9976 0.0
N410 N 0.43984 0.38531 1.02053 0.0
C411 C 0.51565 0.38692 0.99907 0.0
N412 N 0.49293 0.39255 0.96477 0.0
N413 N 0.40114 0.39564 0.96392 0.0
C414 C 0.15168 0.39246 0.93234 0.0
O415 O 0.19857 0.37467 0.93843 0.0
O416 O 0.6939 0.37477 0.9344 0.0
Zn417 Zn 0.34154 0.41196 0.92449 0.0
N418 N 0.48235 0.35119 0.92129 0.0
C419 C 0.33062 0.33792 0.90585 0.0
C420 C 0.39243 0.35483 0.91012 0.0
C421 C 0.51312 0.3309 0.92873 0.0
N422 N 0.36091 0.3178 0.91292 0.0
C423 C 0.4503 0.3135 0.92427 0.0
O424 O 0.38956 0.40547 0.87288 0.0
C425 C 0.46874 0.40048 0.85869 0.0
O426 O 0.53631 0.39276 0.87745 0.0
H427 H 0.36831 0.37088 0.90496 0.0
H428 H 0.58448 0.32855 0.93821 0.0
C429 C 0.32355 0.45863 0.93355 0.0
C430 C 0.36294 0.47929 0.93672 0.0
C431 C 0.51606 0.46392 0.93596 0.0
C432 C 0.47697 0.44369 0.93244 0.0
N433 N 0.38185 0.44134 0.93145 0.0
N434 N 0.45847 0.48115 0.93783 0.0
H435 H 0.24823 0.45631 0.9317 0.0
C436 C 0.7428 0.3913 0.92637 0.0
O437 O 0.69908 0.40844 0.91394 0.0
O438 O 0.19718 0.40972 0.92606 0.0
H439 H 0.52224 0.4299 0.92992 0.0
H440 H 0.25902 0.3407 0.89688 0.0
H441 H 0.59169 0.46595 0.93676 0.0
Zn442 Zn 0.94177 0.65934 0.9262 0.0
C443 C 0.12344 0.64465 0.99845 0.0
N444 N 0.0533 0.64919 1.02147 0.0
C445 C 0.97762 0.64838 0.99982 0.0
N446 N 0.00094 0.64399 0.9653 0.0
N447 N 0.09267 0.64082 0.96452 0.0
C448 C 0.34169 0.64489 0.93289 0.0
O449 O 0.2945 0.66243 0.93972 0.0
O450 O 0.79983 0.66244 0.93486 0.0
Zn451 Zn 0.15247 0.62489 0.92558 0.0
N452 N 0.01139 0.68626 0.92156 0.0
C453 C 0.1624 0.70025 0.90597 0.0
C454 C 0.10091 0.6831 0.90966 0.0
C455 C 0.98056 0.70626 0.92998 0.0
N456 N 0.13212 0.7201 0.9142 0.0
C457 C 0.04289 0.72386 0.92605 0.0
O458 O 0.10144 0.63101 0.8741 0.0
C459 C 0.02273 0.63655 0.85987 0.0
O460 O 0.95737 0.64515 0.87825 0.0
H461 H 0.12494 0.66722 0.90352 0.0
H462 H 0.90954 0.70828 0.94 0.0
C463 C 0.17591 0.57827 0.93558 0.0
C464 C 0.13923 0.55732 0.93991 0.0
C465 C 0.98459 0.57195 0.9418 0.0
C466 C 0.02101 0.59239 0.93668 0.0
N467 N 0.1156 0.59525 0.93404 0.0
N468 N 0.04415 0.55502 0.94314 0.0
H469 H 0.25069 0.58121 0.93346 0.0
C470 C 0.75062 0.64621 0.92633 0.0
O471 O 0.79403 0.62939 0.91343 0.0
O472 O 0.29655 0.62775 0.92629 0.0
H473 H 0.9741 0.60594 0.93434 0.0
H474 H 0.23381 0.69783 0.8966 0.0
H475 H 0.90939 0.56951 0.94417 0.0
Zn476 Zn 0.83489 0.61822 0.64189 0.0
C477 C 0.01276 0.63328 0.56268 0.0
N478 N 0.94027 0.6287 0.54099 0.0
C479 C 0.86934 0.62686 0.56478 0.0
N480 N 0.89746 0.62999 0.59922 0.0
N481 N 0.98807 0.63451 0.59791 0.0
C482 C 0.23522 0.63878 0.63535 0.0
O483 O 0.19022 0.62135 0.64556 0.0
O484 O 0.69077 0.62003 0.63662 0.0
Zn485 Zn 0.04465 0.65226 0.6344 0.0
N486 N 0.87555 0.58871 0.6424 0.0
C487 C 0.00891 0.56577 0.64698 0.0
C488 C 0.97004 0.58618 0.64648 0.0
C489 C 0.8177 0.57155 0.63852 0.0
N490 N 0.95163 0.54863 0.64327 0.0
C491 C 0.85678 0.55077 0.63891 0.0
O492 O 0.02801 0.64019 0.68471 0.0
C493 C 0.95996 0.6339 0.70468 0.0
O494 O 0.87977 0.62885 0.69153 0.0
H495 H 0.01484 0.60001 0.64933 0.0
H496 H 0.7427 0.57415 0.63576 0.0
C497 C 0.00421 0.69962 0.63032 0.0
C498 C 0.93849 0.71678 0.6306 0.0
C499 C 0.814 0.6917 0.63714 0.0
C500 C 0.87864 0.67507 0.63789 0.0
N501 N 0.97211 0.67908 0.63374 0.0
N502 N 0.84533 0.71199 0.63367 0.0
H503 H 0.07917 0.70238 0.62832 0.0
C504 C 0.64196 0.63566 0.64812 0.0
O505 O 0.68427 0.65104 0.66562 0.0
O506 O 0.18732 0.65551 0.62752 0.0
H507 H 0.85428 0.65896 0.64196 0.0
H508 H 0.08402 0.56354 0.65028 0.0
H509 H 0.73937 0.68861 0.63975 0.0
Zn510 Zn 0.64967 0.40639 0.63744 0.0
C511 C 0.47356 0.38515 0.56269 0.0
N512 N 0.5475 0.38739 0.5404 0.0
C513 C 0.61805 0.39055 0.56378 0.0
N514 N 0.58931 0.39076 0.59859 0.0
N515 N 0.498 0.38694 0.59792 0.0
C516 C 0.24868 0.38599 0.63698 0.0
O517 O 0.29339 0.40338 0.64662 0.0
O518 O 0.79377 0.40468 0.63388 0.0
Zn519 Zn 0.43881 0.37185 0.63761 0.0
N520 N 0.60964 0.43573 0.62997 0.0
C521 C 0.47878 0.45912 0.62198 0.0
C522 C 0.51519 0.4386 0.62655 0.0
C523 C 0.6696 0.4527 0.62996 0.0
N524 N 0.53814 0.47607 0.62218 0.0
C525 C 0.6329 0.47363 0.62644 0.0
O526 O 0.4579 0.38626 0.68558 0.0
C527 C 0.52445 0.39468 0.70359 0.0
O528 O 0.60318 0.39979 0.68901 0.0
H529 H 0.46848 0.42502 0.62788 0.0
H530 H 0.74432 0.44978 0.63279 0.0
C531 C 0.47368 0.32452 0.63475 0.0
C532 C 0.53653 0.30691 0.63726 0.0
C533 C 0.6601 0.33061 0.65267 0.0
C534 C 0.59807 0.34777 0.65054 0.0
N535 N 0.50648 0.34459 0.64148 0.0
N536 N 0.62801 0.3107 0.64604 0.0
H537 H 0.40079 0.32243 0.62705 0.0
C538 C 0.8415 0.38873 0.64555 0.0
O539 O 0.79755 0.37278 0.66168 0.0
O540 O 0.29646 0.36917 0.63064 0.0
H541 H 0.62282 0.36371 0.6556 0.0
H542 H 0.40374 0.46159 0.61893 0.0
H543 H 0.73327 0.33299 0.65962 0.0
C544 C 0.60039 0.12254 0.11967 0.0
C545 C 0.65207 0.14095 0.12844 0.0
H546 H 0.4654 0.10719 0.11838 0.0
C547 C 0.6032 0.15879 0.14154 0.0
H548 H 0.63572 0.10857 0.10919 0.0
C549 C 0.5056 0.15789 0.14729 0.0
C550 C 0.45435 0.13922 0.13965 0.0
H551 H 0.64075 0.17322 0.14852 0.0
H552 H 0.47049 0.17179 0.15813 0.0
C553 C 0.50267 0.12173 0.12498 0.0
C554 C 0.99409 0.90818 0.13438 0.0
C555 C 0.04627 0.88963 0.14256 0.0
H556 H 0.85727 0.92201 0.1264 0.0
C557 C -0.00184 0.87 0.14595 0.0
H558 H 0.02892 0.9235 0.13126 0.0
C559 C 0.89986 0.86907 0.14244 0.0
C560 C 0.84738 0.88781 0.13618 0.0
H561 H 0.0364 0.85534 0.15172 0.0
H562 H 0.86472 0.85382 0.14608 0.0
C563 C 0.89572 0.90731 0.13161 0.0
C564 C 0.00463 0.91404 0.42987 0.0
C565 C 0.95317 0.89523 0.42414 0.0
H566 H 0.14079 0.92825 0.43627 0.0
C567 C 0.0019 0.87561 0.42352 0.0
H568 H 0.96929 0.92939 0.43079 0.0
C569 C 0.1002 0.8749 0.42734 0.0
C570 C 0.15198 0.89384 0.43116 0.0
H571 H 0.96415 0.86077 0.41968 0.0
H572 H 0.13587 0.85961 0.42589 0.0
C573 C 0.10294 0.91337 0.43297 0.0
C574 C 0.49596 0.1648 0.44168 0.0
C575 C 0.5465 0.1462 0.43275 0.0
H576 H 0.36046 0.17981 0.44667 0.0
C577 C 0.49581 0.12783 0.42334 0.0
H578 H 0.5327 0.17919 0.44942 0.0
C579 C 0.39739 0.12822 0.42175 0.0
C580 C 0.34679 0.14697 0.42962 0.0
H581 H 0.53217 0.11317 0.41664 0.0
H582 H 0.36104 0.1138 0.41388 0.0
C583 C 0.39716 0.16517 0.44019 0.0
C584 C 0.38972 0.91197 0.93323 0.0
C585 C 0.34122 0.89242 0.9309 0.0
H586 H 0.5229 0.92815 0.93142 0.0
C587 C 0.39362 0.87358 0.9265 0.0
H588 H 0.35141 0.92677 0.93698 0.0
C589 C 0.49191 0.87444 0.9226 0.0
C590 C 0.5401 0.89411 0.92374 0.0
H591 H 0.35842 0.85828 0.92462 0.0
H592 H 0.53009 0.85969 0.91828 0.0
C593 C 0.48804 0.91279 0.93009 0.0
C594 C 0.09248 0.16482 0.93854 0.0
C595 C 0.14302 0.14646 0.92873 0.0
H596 H 0.95676 0.17899 0.94719 0.0
C597 C 0.09252 0.12763 0.92154 0.0
H598 H 0.12909 0.17954 0.94448 0.0
C599 C 0.99411 0.12728 0.92311 0.0
C600 C 0.94324 0.14577 0.93182 0.0
H601 H 0.12895 0.11309 0.91426 0.0
H602 H 0.95791 0.11253 0.91698 0.0
C603 C 0.99365 0.16449 0.94002 0.0
C604 C 0.88577 0.15597 0.64242 0.0
C605 C 0.83737 0.13833 0.62844 0.0
H606 H 0.01805 0.16874 0.6598 0.0
C607 C 0.88949 0.1201 0.61887 0.0
H608 H 0.84786 0.17026 0.65003 0.0
C609 C 0.98716 0.11925 0.62427 0.0
C610 C 0.035 0.13651 0.63983 0.0
H611 H 0.85453 0.10629 0.60769 0.0
H612 H 0.02478 0.10485 0.61704 0.0
C613 C 0.98332 0.15502 0.64826 0.0
C614 C 0.49487 0.8679 0.64586 0.0
C615 C 0.44648 0.8875 0.64235 0.0
H616 H 0.62852 0.85174 0.64606 0.0
C617 C 0.49837 0.90605 0.63401 0.0
H618 H 0.45685 0.85324 0.65176 0.0
C619 C 0.59674 0.90519 0.6312 0.0
C620 C 0.64534 0.88571 0.63589 0.0
H621 H 0.46331 0.92136 0.63077 0.0
H622 H 0.63499 0.91989 0.62586 0.0
C623 C 0.59316 0.86698 0.64231 0.0
C624 C 0.00472 0.6212 0.12573 0.0
C625 C 0.95688 0.6387 0.14061 0.0
H626 H 0.13729 0.608 0.10945 0.0
C627 C 0.00848 0.65735 0.14807 0.0
H628 H 0.96717 0.60669 0.11925 0.0
C629 C 0.10594 0.65823 0.14195 0.0
C630 C 0.15436 0.64037 0.12867 0.0
H631 H 0.97375 0.67126 0.15905 0.0
H632 H 0.14378 0.67264 0.14883 0.0
C633 C 0.10232 0.62198 0.12006 0.0
C634 C 0.38931 0.37084 0.13981 0.0
C635 C 0.34058 0.38932 0.12839 0.0
H636 H 0.52184 0.35698 0.15519 0.0
C637 C 0.39238 0.40813 0.12143 0.0
H638 H 0.35169 0.35609 0.14537 0.0
C639 C 0.49006 0.40864 0.12689 0.0
C640 C 0.53823 0.39042 0.13988 0.0
H641 H 0.35718 0.42261 0.11228 0.0
H642 H 0.52744 0.42347 0.1217 0.0
C643 C 0.48686 0.37142 0.14568 0.0
C644 C 0.60255 0.41199 0.43148 0.0
C645 C 0.65159 0.39247 0.4294 0.0
H646 H 0.46899 0.42804 0.42927 0.0
C647 C 0.59982 0.37356 0.42502 0.0
H648 H 0.64038 0.42682 0.4352 0.0
C649 C 0.50158 0.37433 0.4209 0.0
C650 C 0.45287 0.39395 0.4218 0.0
H651 H 0.6355 0.35829 0.42333 0.0
H652 H 0.46384 0.35954 0.4166 0.0
C653 C 0.50429 0.4127 0.42812 0.0
C654 C 0.99296 0.62579 0.43024 0.0
C655 C 0.04538 0.64421 0.42151 0.0
H656 H 0.85595 0.61221 0.4387 0.0
C657 C -0.00251 0.66387 0.41771 0.0
H658 H 0.02759 0.61045 0.43369 0.0
C659 C 0.8992 0.66496 0.42135 0.0
C660 C 0.84647 0.64635 0.42815 0.0
H661 H 0.03591 0.67843 0.4115 0.0
H662 H 0.86424 0.68023 0.41738 0.0
C663 C 0.8946 0.62682 0.43311 0.0
C664 C -0.00322 0.37343 0.94111 0.0
C665 C 0.0469 0.39234 0.93286 0.0
H666 H 0.86165 0.3582 0.94577 0.0
C667 C 0.99576 0.41099 0.92441 0.0
H668 H 0.03386 0.3588 0.94811 0.0
C669 C 0.89728 0.41062 0.92305 0.0
C670 C 0.84711 0.39159 0.93019 0.0
H671 H 0.03179 0.42587 0.91825 0.0
H672 H 0.86054 0.42527 0.9159 0.0
C673 C 0.89798 0.37307 0.93984 0.0
C674 C 0.49667 0.6638 0.94145 0.0
C675 C 0.4465 0.64508 0.93307 0.0
H676 H 0.6319 0.67892 0.94614 0.0
C677 C 0.49759 0.62663 0.92432 0.0
H678 H 0.45962 0.67827 0.94868 0.0
C679 C 0.59604 0.62703 0.92285 0.0
C680 C 0.64629 0.64588 0.93019 0.0
H681 H 0.46155 0.61188 0.91806 0.0
H682 H 0.6327 0.61253 0.9155 0.0
C683 C 0.59549 0.66419 0.94008 0.0
C684 C 0.49018 0.65638 0.64433 0.0
C685 C 0.53862 0.63679 0.64172 0.0
H686 H 0.35644 0.67253 0.64349 0.0
C687 C 0.4869 0.6183 0.6339 0.0
H688 H 0.52814 0.67099 0.64982 0.0
C689 C 0.38861 0.61917 0.63079 0.0
C690 C 0.33984 0.63862 0.63459 0.0
H691 H 0.52201 0.603 0.63141 0.0
H692 H 0.35051 0.60449 0.62592 0.0
C693 C 0.39191 0.65733 0.64044 0.0
C694 C 0.09216 0.36739 0.64157 0.0
C695 C 0.14427 0.38617 0.63546 0.0
H696 H 0.9557 0.35354 0.65007 0.0
C697 C 0.09561 0.40561 0.6304 0.0
H698 H 0.12761 0.35219 0.64556 0.0
C699 C -0.00284 0.40638 0.63252 0.0
C700 C 0.94525 0.38779 0.64051 0.0
H701 H 0.13384 0.42033 0.62527 0.0
H702 H 0.96199 0.42166 0.62902 0.0
C703 C 0.99374 0.36822 0.64441 0.0
C704 C 0.27206 0.14836 0.06398 0.0
C705 C 0.21934 0.13113 0.05094 0.0
H706 H 0.39436 0.168 0.05681 0.0
C707 C 0.24866 0.12066 1.01955 0.0
H708 H 0.24846 0.15731 0.0872 0.0
C709 C 0.32994 0.12726 1.00152 0.0
C710 C 0.38198 0.14465 1.01426 0.0
H711 H 0.2076 0.10767 1.00856 0.0
H712 H 0.35296 0.11845 0.9781 0.0
C713 C 0.3536 0.15491 0.046 0.0
C714 C 0.26103 0.9122 1.02487 0.0
C715 C 0.27839 0.89756 0.05327 0.0
H716 H 0.16082 0.92389 0.98596 0.0
C717 C 0.21011 0.88254 0.06348 0.0
H718 H 0.31453 0.92355 1.01623 0.0
C719 C 0.124 0.88232 0.04551 0.0
C720 C 0.10759 0.8967 1.01662 0.0
H721 H 0.22466 0.87056 0.08434 0.0
H722 H 0.07038 0.87098 0.05403 0.0
C723 C 0.17517 0.91196 1.0069 0.0
C724 C 0.7495 0.91417 0.54346 0.0
C725 C 0.71967 0.90319 0.51269 0.0
H726 H 0.85571 0.91711 0.58415 0.0
C727 C 0.77145 0.88564 0.50039 0.0
H728 H 0.7088 0.92742 0.55385 0.0
C729 C 0.85281 0.87923 0.51854 0.0
C730 C 0.88159 0.88999 0.54967 0.0
H731 H 0.74711 0.87635 0.47772 0.0
H732 H 0.89359 0.86598 0.50819 0.0
C733 C 0.83088 0.90777 0.56159 0.0
C734 C 0.73294 0.15841 0.53204 0.0
C735 C 0.77391 0.14227 0.5112 0.0
H736 H 0.61414 0.1677 0.56422 0.0
C737 C 0.72881 0.1226 0.50754 0.0
H738 H 0.76818 0.17362 0.53535 0.0
C739 C 0.64277 0.1191 0.5247 0.0
C740 C 0.60264 0.1351 0.54609 0.0
H741 H 0.76101 0.10986 0.49226 0.0
H742 H 0.60796 0.10381 0.52164 0.0
C743 C 0.64656 0.15496 0.54899 0.0
C744 C 0.72117 0.88609 1.00077 0.0
C745 C 0.77462 0.9035 1.01243 0.0
H746 H 0.5973 0.8672 1.00933 0.0
C747 C 0.74611 0.91501 0.04286 0.0
H748 H 0.7445 0.87641 0.97841 0.0
C749 C 0.66427 0.90926 0.06127 0.0
C750 C 0.61189 0.89162 0.04997 0.0
H751 H 0.78817 0.92814 0.05276 0.0
H752 H 0.64041 0.91898 0.08355 0.0
C753 C 0.6394 0.88034 1.01919 0.0
C754 C 0.76165 0.12335 1.008 0.0
C755 C 0.71568 0.143 1.01078 0.0
H756 H 0.88304 0.10496 1.02305 0.0
C757 C 0.7557 0.1595 1.03105 0.0
H758 H 0.7302 0.11035 0.9932 0.0
C759 C 0.84199 0.15642 0.04827 0.0
C760 C 0.88676 0.13659 0.04625 0.0
H761 H 0.71982 0.1747 0.03368 0.0
H762 H 0.87372 0.16944 0.063 0.0
C763 C 0.84756 0.12023 1.02545 0.0
C764 C 0.13625 0.15349 0.54708 0.0
C765 C 0.10762 0.14383 0.51485 0.0
H766 H 0.2415 0.15503 0.58831 0.0
C767 C 0.15932 0.1266 0.50121 0.0
H768 H 0.09572 0.16643 0.55857 0.0
C769 C 0.24061 0.11959 0.51886 0.0
C770 C 0.2702 0.12947 0.55076 0.0
H771 H 0.136 0.11822 0.47738 0.0
H772 H 0.28145 0.10675 0.50719 0.0
C773 C 0.21774 0.14652 0.56467 0.0
C774 C 0.31673 0.912 0.50795 0.0
C775 C 0.38664 0.89716 0.51719 0.0
H776 H 0.17511 0.92221 0.51727 0.0
C777 C 0.37189 0.88213 0.54524 0.0
H778 H 0.3295 0.92436 0.48758 0.0
C779 C 0.28524 0.88128 0.56283 0.0
C780 C 0.21465 0.89587 0.55306 0.0
H781 H 0.42709 0.87106 0.55333 0.0
H782 H 0.27222 0.86884 0.58305 0.0
C783 C 0.23029 0.91117 0.52553 0.0
C784 C 0.77511 0.64722 0.06497 0.0
C785 C 0.72279 0.62993 0.05194 0.0
H786 H 0.89702 0.66699 0.05788 0.0
C787 C 0.7526 0.61944 1.02061 0.0
H788 H 0.75121 0.65618 0.08812 0.0
C789 C 0.8339 0.62612 1.00263 0.0
C790 C 0.88539 0.6436 1.01539 0.0
H791 H 0.71188 0.60641 1.00961 0.0
H792 H 0.85744 0.61731 0.97925 0.0
C793 C 0.85662 0.65384 0.04707 0.0
C794 C 0.63624 0.37883 0.04561 0.0
C795 C 0.60794 0.39071 1.01495 0.0
H796 H 0.7419 0.37416 0.08622 0.0
C797 C 0.66014 0.40863 1.00366 0.0
H798 H 0.5952 0.36528 0.05525 0.0
C799 C 0.74179 0.41419 1.0221 0.0
C800 C 0.77115 0.40208 0.05239 0.0
H801 H 0.63687 0.41862 0.98109 0.0
H802 H 0.78313 0.42764 1.01226 0.0
C803 C 0.71816 0.38431 0.06395 0.0
C804 C 0.24795 0.41351 0.54228 0.0
C805 C 0.21843 0.40282 0.51114 0.0
H806 H 0.35334 0.41603 0.58332 0.0
C807 C 0.27029 0.38533 0.49865 0.0
H808 H 0.20736 0.42672 0.55285 0.0
C809 C 0.35106 0.37866 0.51697 0.0
C810 C 0.37959 0.38912 0.54845 0.0
H811 H 0.24648 0.37628 0.47567 0.0
H812 H 0.39168 0.36544 0.50643 0.0
C813 C 0.32889 0.40687 0.56054 0.0
C814 C 0.12232 0.65026 0.51949 0.0
C815 C 0.10664 0.6357 0.54817 0.0
H816 H 0.22224 0.66247 0.48078 0.0
C817 C 0.17509 0.62055 0.55763 0.0
H818 H 0.06808 0.66152 0.51113 0.0
C819 C 0.2611 0.62065 0.53969 0.0
C820 C 0.2777 0.6355 0.51153 0.0
H821 H 0.16133 0.60844 0.57831 0.0
H822 H 0.31526 0.6094 0.54814 0.0
C823 C 0.20845 0.65036 0.5015 0.0
C824 C 0.14914 0.37709 0.04734 0.0
C825 C 0.10359 0.39687 0.04667 0.0
H826 H 0.27191 0.35973 1.03142 0.0
C827 C 0.14164 0.41416 1.02683 0.0
H828 H 0.11823 0.36342 0.06131 0.0
C829 C 0.22744 0.41197 1.00906 0.0
C830 C 0.27422 0.39234 1.01058 0.0
H831 H 0.10541 0.42942 1.02548 0.0
H832 H 0.25825 0.42563 0.99505 0.0
C833 C 0.23521 0.37492 1.02977 0.0
C834 C 0.25978 0.65856 1.03141 0.0
C835 C 0.21902 0.64201 1.0115 0.0
H836 H 0.3785 0.66847 0.06297 0.0
C837 C 0.26451 0.6223 1.00877 0.0
H838 H 0.22424 0.67381 0.03397 0.0
C839 C 0.35069 0.61915 1.02599 0.0
C840 C 0.39052 0.63555 0.04652 0.0
H841 H 0.23245 0.60928 0.99422 0.0
H842 H 0.38574 0.60383 1.02372 0.0
C843 C 0.34629 0.65545 0.04841 0.0
C844 C 0.74509 0.61846 0.52098 0.0
C845 C 0.77329 0.6294 0.55204 0.0
H846 H 0.63984 0.6152 0.48003 0.0
C847 C 0.71957 0.64657 0.56458 0.0
H848 H 0.78724 0.60548 0.51047 0.0
C849 C 0.638 0.6527 0.54629 0.0
C850 C 0.61086 0.642 0.51485 0.0
H851 H 0.74256 0.6558 0.58755 0.0
H852 H 0.59565 0.66564 0.5568 0.0
C853 C 0.66345 0.62455 0.50277 0.0
C854 C 0.72742 0.4098 0.52354 0.0
C855 C 0.71292 0.39442 0.55106 0.0
H856 H 0.82581 0.4235 0.48578 0.0
C857 C 0.78481 0.38018 0.5609 0.0
H858 H 0.67135 0.4206 0.51527 0.0
C859 C 0.87161 0.38148 0.54345 0.0
C860 C 0.88535 0.3966 0.51545 0.0
H861 H 0.77284 0.36772 0.58117 0.0
H862 H 0.92774 0.37066 0.5516 0.0
C863 C 0.81404 0.41107 0.50612 0.0
C864 C 0.15895 1.01478 0.12286 0.0
C865 C 0.19835 0.03384 0.13594 0.0
H866 H 0.17925 0.98174 0.11104 0.0
C867 C 0.29226 0.03351 0.14802 0.0
H868 H 0.08699 1.01443 0.1131 0.0
C869 C 0.34507 1.01465 0.14706 0.0
C870 C 0.30544 0.99556 0.13428 0.0
H871 H 0.32479 0.0476 0.15914 0.0
H872 H 0.41688 1.01499 0.15698 0.0
C873 C 0.21177 0.9959 0.12194 0.0
C874 C 0.7062 0.03887 0.44277 0.0
C875 C 0.80159 0.03921 0.43257 0.0
H876 H 0.58042 0.02036 0.44861 0.0
C877 C 0.84323 0.02014 0.42054 0.0
H878 H 0.67199 0.05303 0.45299 0.0
C879 C 0.79084 1.00131 0.41822 0.0
C880 C 0.69527 1.00098 0.42817 0.0
H881 H 0.9164 0.01979 0.4122 0.0
H882 H 0.82514 0.98725 0.40771 0.0
C883 C 0.65376 0.02001 0.4405 0.0
C884 C 0.72097 1.00031 0.94855 0.0
C885 C 0.80321 1.00013 0.9273 0.0
H886 H 0.60645 0.0187 0.96921 0.0
C887 C 0.83359 0.01943 0.91094 0.0
H888 H 0.69652 0.98597 0.96242 0.0
C889 C 0.78221 0.03831 0.91505 0.0
C890 C 0.6993 0.03846 0.93595 0.0
H891 H 0.89652 0.01989 0.89429 0.0
H892 H 0.80647 0.05256 0.90088 0.0
C893 C 0.66968 0.01921 0.95273 0.0
C894 C 0.14556 1.0122 0.6466 0.0
C895 C 0.18518 0.99314 0.63357 0.0
H896 H 0.16585 0.0451 0.65897 0.0
C897 C 0.27867 0.99351 0.62102 0.0
H898 H 0.07388 1.01252 0.65668 0.0
C899 C 0.33141 1.01236 0.62202 0.0
C900 C 0.29206 0.03137 0.63539 0.0
H901 H 0.31113 0.97937 0.60993 0.0
H902 H 0.40326 1.01203 0.61213 0.0
C903 C 0.19829 0.03103 0.64764 0.0
C904 C 0.83933 0.51434 0.1579 0.0
C905 C 0.80177 0.49544 0.14353 0.0
H906 H 0.81771 0.5473 0.16984 0.0
C907 C 0.71097 0.49609 0.12829 0.0
H908 H 0.90886 0.51447 0.17001 0.0
C909 C 0.65874 0.51505 0.12807 0.0
C910 C 0.69615 0.53388 0.14268 0.0
H911 H 0.68025 0.48213 0.11601 0.0
H912 H 0.58895 0.51497 0.11616 0.0
C913 C 0.78723 0.53331 0.15756 0.0
C914 C 0.15607 0.51894 0.43581 0.0
C915 C 0.1976 0.49988 0.42363 0.0
H916 H 0.17432 0.55191 0.44842 0.0
C917 C 0.29338 0.50014 0.414 0.0
H918 H 0.08258 0.51932 0.44371 0.0
C919 C 0.34595 0.51895 0.41642 0.0
C920 C 0.30427 0.53806 0.4283 0.0
H921 H 0.32768 0.48602 0.40367 0.0
H922 H 0.41929 0.51856 0.40832 0.0
C923 C 0.20867 0.53776 0.43825 0.0
C924 C 0.34243 0.5185 0.92421 0.0
C925 C 0.30497 0.49911 0.93774 0.0
H926 H 0.32099 0.55173 0.91332 0.0
C927 C 0.21416 0.49923 0.95287 0.0
H928 H 0.41207 0.51899 0.91218 0.0
C929 C 0.16202 0.51822 0.9541 0.0
C930 C 0.19897 0.53763 0.94021 0.0
H931 H 0.18363 0.48477 0.96433 0.0
H932 H 0.09235 0.51761 0.96607 0.0
C933 C 0.29012 0.53745 0.9252 0.0
C934 C 0.83059 0.51178 0.65096 0.0
C935 C 0.79878 0.53115 0.63533 0.0
H936 H 0.80386 0.47869 0.66127 0.0
C937 C 0.71373 0.53123 0.61579 0.0
H938 H 0.89558 0.51114 0.66637 0.0
C939 C 0.66136 0.51244 0.61245 0.0
C940 C 0.69277 0.49308 0.62837 0.0
H941 H 0.68796 0.54566 0.60257 0.0
H942 H 0.59608 0.5131 0.59723 0.0
C943 C 0.77818 0.49302 0.6477 0.0
C944 C 0.08865 0.25866 0.13852 0.0
C945 C 0.02469 0.24303 0.12636 0.0
H946 H 0.11574 0.29168 0.14825 0.0
C947 C 0.93808 0.24994 0.1119 0.0
H948 H 0.15617 0.25413 0.14997 0.0
C949 C 0.91529 0.27174 0.11071 0.0
C950 C 0.97848 0.28725 0.12371 0.0
H951 H 0.88764 0.23867 0.10137 0.0
H952 H 0.84725 0.27644 0.09989 0.0
C953 C 0.06596 0.28041 0.13724 0.0
C954 C 0.57217 0.77908 0.1406 0.0
C955 C 0.48313 0.78615 0.12916 0.0
H956 H 0.66346 0.75262 0.15032 0.0
C957 C 0.41797 0.77093 0.11665 0.0
H958 H 0.62352 0.79014 0.15117 0.0
C959 C 0.44053 0.74913 0.1163 0.0
C960 C 0.52882 0.74197 0.12874 0.0
H961 H 0.34868 0.77586 0.10743 0.0
H962 H 0.38854 0.73808 0.10624 0.0
C963 C 0.5946 0.75735 0.14037 0.0
C964 C 0.40801 0.76422 0.42137 0.0
C965 C 0.47069 0.74824 0.43418 0.0
H966 H 0.38114 0.79754 0.4127 0.0
C967 C 0.55433 0.7547 0.45119 0.0
H968 H 0.34274 0.76004 0.40804 0.0
C969 C 0.57588 0.77645 0.45406 0.0
C970 C 0.51429 0.79232 0.44029 0.0
H971 H 0.60346 0.74313 0.46236 0.0
H972 H 0.64187 0.78084 0.46669 0.0
C973 C 0.42942 0.78591 0.42436 0.0
C974 C 0.09383 0.27574 0.43017 0.0
C975 C 0.02458 0.29123 0.43817 0.0
H976 H 0.12582 0.24303 0.42003 0.0
C977 C 0.93239 0.28415 0.4454 0.0
H978 H 0.16592 0.28029 0.42438 0.0
C979 C 0.90971 0.26244 0.44308 0.0
C980 C 0.97849 0.24719 0.43375 0.0
H981 H 0.87707 0.2952 0.45254 0.0
H982 H 0.83751 0.25762 0.44805 0.0
C983 C 0.07118 0.2541 0.42795 0.0
C984 C 0.89988 0.77505 0.93013 0.0
C985 C 0.96958 0.79052 0.93749 0.0
H986 H 0.86708 0.74232 0.92055 0.0
C987 C 0.06216 0.78338 0.94387 0.0
H988 H 0.82747 0.77964 0.925 0.0
C989 C 0.08456 0.76162 0.94149 0.0
C990 C 0.01519 0.74638 0.93295 0.0
H991 H 0.11798 0.7944 0.95042 0.0
H992 H 0.157 0.75677 0.94588 0.0
C993 C 0.92226 0.75337 0.92786 0.0
C994 C 0.59209 0.26188 0.92731 0.0
C995 C 0.52014 0.2463 0.92807 0.0
H996 H 0.62831 0.29496 0.92505 0.0
C997 C 0.42656 0.25323 0.93189 0.0
H998 H 0.66541 0.25732 0.92487 0.0
C999 C 0.40552 0.27504 0.93287 0.0
C1000 C 0.47698 0.29062 0.92964 0.0
H1001 H 0.36847 0.24209 0.9325 0.0
H1002 H 0.33214 0.27966 0.93478 0.0
C1003 C 0.57091 0.2837 0.92786 0.0
C1004 C 0.55229 0.24728 0.62004 0.0
C1005 C 0.46234 0.2401 0.63049 0.0
H1006 H 0.64516 0.27398 0.61337 0.0
C1007 C 0.3947 0.25554 0.64052 0.0
H1008 H 0.60605 0.23626 0.61126 0.0
C1009 C 0.41689 0.27728 0.64126 0.0
C1010 C 0.50755 0.28432 0.63201 0.0
H1011 H 0.3244 0.25087 0.64883 0.0
H1012 H 0.36389 0.28837 0.6506 0.0
C1013 C 0.57457 0.26908 0.62095 0.0
C1014 C 0.89879 0.75525 0.64088 0.0
C1015 C 0.96494 0.73987 0.62942 0.0
H1016 H 0.86939 0.78806 0.65155 0.0
C1017 C 0.05335 0.74702 0.61715 0.0
H1018 H 0.82982 0.75053 0.65067 0.0
C1019 C 0.07568 0.76882 0.61753 0.0
C1020 C 0.01017 0.78403 0.62988 0.0
H1021 H 0.10562 0.73596 0.60722 0.0
H1022 H 0.14507 0.77374 0.60846 0.0
C1023 C 0.92101 0.77698 0.64111 0.0
C1024 C 0.90951 0.13553 0.29499 0.0
C1025 C 0.98572 0.13634 0.31922 0.0
H1026 H 0.86479 0.13517 0.23946 0.0
C1027 C 0.07798 0.1362 0.30511 0.0
H1028 H 0.8377 0.13565 0.30495 0.0
C1029 C 0.09367 0.13571 0.2676 0.0
C1030 C 0.01744 0.1357 0.24331 0.0
H1031 H 0.13835 0.13667 0.32309 0.0
H1032 H 0.16549 0.13592 0.25764 0.0
C1033 C 0.92518 0.13538 0.25745 0.0
C1034 C 0.5761 0.89557 0.25921 0.0
C1035 C 0.48372 0.89565 0.24521 0.0
H1036 H 0.66393 0.89618 0.30657 0.0
C1037 C 0.40772 0.89695 0.26947 0.0
H1038 H 0.63634 0.89475 0.2412 0.0
C1039 C 0.42366 0.89752 0.30694 0.0
C1040 C 0.51601 0.89714 0.32097 0.0
H1041 H 0.33585 0.89704 0.25958 0.0
H1042 H 0.3634 0.8982 0.32496 0.0
C1043 C 0.59209 0.89648 0.29666 0.0
C1044 C 0.91642 0.89382 0.75895 0.0
C1045 C 0.00877 0.89376 0.74491 0.0
H1046 H 0.82869 0.89462 0.80635 0.0
C1047 C 0.08484 0.895 0.76913 0.0
H1048 H 0.85613 0.89305 0.74096 0.0
C1049 C 0.06897 0.89565 0.8066 0.0
C1050 C 0.97666 0.89541 0.82067 0.0
H1051 H 0.1567 0.89499 0.75921 0.0
H1052 H 0.12929 0.8963 0.82458 0.0
C1053 C 0.90052 0.89481 0.7964 0.0
C1054 C 0.57911 0.13184 0.79517 0.0
C1055 C 0.50288 0.13316 0.81933 0.0
H1056 H 0.62406 0.13105 0.73969 0.0
C1057 C 0.41068 0.13332 0.80517 0.0
H1058 H 0.65088 0.13173 0.80517 0.0
C1059 C 0.39513 0.13273 0.76766 0.0
C1060 C 0.47147 0.13231 0.74342 0.0
H1061 H 0.35028 0.13419 0.8231 0.0
H1062 H 0.32339 0.13326 0.75764 0.0
C1063 C 0.56361 0.13158 0.75763 0.0
C1064 C 0.5938 0.63785 0.26834 0.0
C1065 C 0.51823 0.63658 0.24389 0.0
H1066 H 0.63703 0.64003 0.32385 0.0
C1067 C 0.42581 0.63553 0.25779 0.0
H1068 H 0.66571 0.63868 0.25855 0.0
C1069 C 0.40927 0.63606 0.29524 0.0
C1070 C 0.48468 0.638 0.31962 0.0
H1071 H 0.36593 0.63437 0.23968 0.0
H1072 H 0.33731 0.63546 0.30501 0.0
C1073 C 0.57718 0.63872 0.30575 0.0
C1074 C 0.90387 0.39312 0.26833 0.0
C1075 C 0.979 0.39231 0.2436 0.0
H1076 H 0.86134 0.3945 0.32396 0.0
C1077 C 0.0719 0.3928 0.25709 0.0
H1078 H 0.8316 0.39281 0.25891 0.0
C1079 C 0.08916 0.39403 0.29447 0.0
C1080 C 0.01392 0.39447 0.31921 0.0
H1081 H 0.13154 0.39237 0.23874 0.0
H1082 H 0.16135 0.39429 0.30399 0.0
C1083 C 0.92111 0.39405 0.30567 0.0
C1084 C 0.4182 0.39813 0.75774 0.0
C1085 C 0.5098 0.39807 0.74299 0.0
H1086 H 0.33307 0.39942 0.80584 0.0
C1087 C 0.58688 0.40065 0.7664 0.0
H1088 H 0.35716 0.3964 0.74037 0.0
C1089 C 0.57297 0.40223 0.80388 0.0
C1090 C 0.4816 0.4016 0.81876 0.0
H1091 H 0.65822 0.40075 0.75594 0.0
H1092 H 0.63411 0.40351 0.82133 0.0
C1093 C 0.40421 0.40005 0.79521 0.0
C1094 C 0.89903 0.63353 0.76875 0.0
C1095 C 0.97532 0.633 0.74451 0.0
H1096 H 0.85434 0.63514 0.82419 0.0
C1097 C 0.0675 0.63233 0.75868 0.0
H1098 H 0.82729 0.63403 0.75874 0.0
C1099 C 0.08311 0.63268 0.7962 0.0
C1100 C 0.00693 0.63407 0.82036 0.0
H1101 H 0.12791 0.63171 0.74072 0.0
H1102 H 0.1549 0.63255 0.80618 0.0
C1103 C 0.91469 0.63423 0.80624 0.0
loop_
_geom_bond_atom_site_label_1
_geom_bond_atom_site_label_2
_geom_bond_distance
_geom_bond_site_symmetry_2
_ccdc_geom_bond_type
Zn0 N4 2.020 1_655 S
Zn0 O8 2.019 . S
Zn0 N10 2.120 . S
Zn0 O18 1.978 . S
C1 N2 1.334 . S
C1 N5 1.336 . S
N2 C1 1.334 . S
N2 C3 1.334 . S
C3 N2 1.334 . S
C3 N4 1.336 . S
N4 Zn0 2.020 1_455 S
N4 C3 1.336 . S
N4 N5 1.354 . S
N5 C1 1.336 . S
N5 N4 1.354 . S
N5 Zn9 2.020 . S
C6 O7 1.244 . S
C6 O30 1.257 . S
O7 C6 1.244 . S
O8 Zn0 2.019 . S
O8 C28 1.257 . S
Zn9 N5 2.020 . S
Zn9 O16 1.975 . S
Zn9 N25 2.119 . S
Zn9 O30 2.019 . S
N10 Zn0 2.120 . S
N10 C12 1.330 1_655 S
N10 C13 1.331 . S
C11 C12 1.391 . S
C11 N14 1.329 . S
C11 H32 0.930 . S
C12 N10 1.330 1_455 S
C12 C11 1.391 . S
C12 H19 0.930 . S
C13 N10 1.331 . S
C13 C15 1.392 . S
C13 H20 0.930 . S
N14 C11 1.329 . S
N14 C15 1.331 1_455 S
C15 C13 1.392 . S
C15 N14 1.331 1_655 S
O16 Zn9 1.975 . S
O16 C17 1.252 . S
C17 O16 1.252 . S
C17 O18 1.244 1_455 S
O18 Zn0 1.978 . S
O18 C17 1.244 1_655 S
H19 C12 0.930 . S
H20 C13 0.930 . S
C21 C22 1.392 . S
C21 N25 1.328 . S
C21 H27 0.930 . S
C22 C21 1.392 . S
C22 N26 1.331 . S
C23 C24 1.391 . S
C23 N26 1.329 . S
C23 H33 0.930 1_455 S
C24 C23 1.391 . S
C24 N25 1.334 . S
C24 H31 0.930 . S
N25 Zn9 2.119 . S
N25 C21 1.328 . S
N25 C24 1.334 . S
N26 C22 1.331 . S
N26 C23 1.329 . S
H27 C21 0.930 . S
C28 O8 1.257 . S
C28 O29 1.244 . S
O29 C28 1.244 . S
O30 C6 1.257 . S
O30 Zn9 2.019 . S
H31 C24 0.930 . S
H32 C11 0.930 . S
H33 C23 0.930 1_655 S
Zn34 N38 2.020 . S
Zn34 O42 2.019 . S
Zn34 N44 2.119 . S
Zn34 O52 1.975 . S
C35 N36 1.334 . S
C35 N39 1.336 . S
N36 C35 1.334 . S
N36 C37 1.334 . S
C37 N36 1.334 . S
C37 N38 1.336 . S
N38 Zn34 2.020 . S
N38 C37 1.336 . S
N38 N39 1.354 . S
N39 C35 1.336 . S
N39 N38 1.354 . S
N39 Zn43 2.020 . S
C40 O41 1.244 . S
C40 O64 1.257 . S
O41 C40 1.244 . S
O42 Zn34 2.019 . S
O42 C62 1.257 . S
Zn43 N39 2.020 . S
Zn43 O50 1.975 . S
Zn43 N59 2.119 . S
Zn43 O64 2.019 . S
N44 Zn34 2.119 . S
N44 C46 1.334 . S
N44 C47 1.328 . S
C45 C46 1.391 . S
C45 N48 1.329 . S
C45 H66 0.930 . S
C46 N44 1.334 . S
C46 C45 1.391 . S
C46 H53 0.930 . S
C47 N44 1.328 . S
C47 C49 1.392 . S
C47 H54 0.930 . S
N48 C45 1.329 . S
N48 C49 1.331 . S
C49 C47 1.392 . S
C49 N48 1.331 . S
O50 Zn43 1.975 . S
O50 C51 1.252 . S
C51 O50 1.252 . S
C51 O52 1.252 . S
O52 Zn34 1.975 . S
O52 C51 1.252 . S
H53 C46 0.930 . S
H54 C47 0.930 . S
C55 C56 1.392 . S
C55 N59 1.328 . S
C55 H61 0.930 . S
C56 C55 1.392 . S
C56 N60 1.331 . S
C57 C58 1.391 . S
C57 N60 1.329 . S
C57 H67 0.930 . S
C58 C57 1.391 . S
C58 N59 1.334 . S
C58 H65 0.930 . S
N59 Zn43 2.119 . S
N59 C55 1.328 . S
N59 C58 1.334 . S
N60 C56 1.331 . S
N60 C57 1.329 . S
H61 C55 0.930 . S
C62 O42 1.257 . S
C62 O63 1.244 . S
O63 C62 1.244 . S
O64 C40 1.257 . S
O64 Zn43 2.019 . S
H65 C58 0.930 . S
H66 C45 0.930 . S
H67 C57 0.930 . S
Zn68 N72 2.020 . S
Zn68 O76 2.019 . S
Zn68 N78 2.119 . S
Zn68 O86 1.975 . S
C69 N70 1.334 . S
C69 N73 1.336 . S
N70 C69 1.334 . S
N70 C71 1.334 . S
C71 N70 1.334 . S
C71 N72 1.336 . S
N72 Zn68 2.020 . S
N72 C71 1.336 . S
N72 N73 1.354 . S
N73 C69 1.336 . S
N73 N72 1.354 . S
N73 Zn77 2.020 . S
C74 O75 1.244 . S
C74 O98 1.257 . S
O75 C74 1.244 . S
O76 Zn68 2.019 . S
O76 C96 1.257 . S
Zn77 N73 2.020 . S
Zn77 O84 1.975 . S
Zn77 N93 2.119 . S
Zn77 O98 2.019 . S
N78 Zn68 2.119 . S
N78 C80 1.334 . S
N78 C81 1.328 . S
C79 C80 1.391 . S
C79 N82 1.329 . S
C79 H100 0.930 . S
C80 N78 1.334 . S
C80 C79 1.391 . S
C80 H87 0.930 . S
C81 N78 1.328 . S
C81 C83 1.392 . S
C81 H88 0.930 . S
N82 C79 1.329 . S
N82 C83 1.331 . S
C83 C81 1.392 . S
C83 N82 1.331 . S
O84 Zn77 1.975 . S
O84 C85 1.252 . S
C85 O84 1.252 . S
C85 O86 1.252 . S
O86 Zn68 1.975 . S
O86 C85 1.252 . S
H87 C80 0.930 . S
H88 C81 0.930 . S
C89 C90 1.392 . S
C89 N93 1.328 . S
C89 H95 0.930 . S
C90 C89 1.392 . S
C90 N94 1.331 . S
C91 C92 1.391 . S
C91 N94 1.329 . S
C91 H101 0.930 . S
C92 C91 1.391 . S
C92 N93 1.334 . S
C92 H99 0.930 . S
N93 Zn77 2.119 . S
N93 C89 1.328 . S
N93 C92 1.334 . S
N94 C90 1.331 . S
N94 C91 1.329 . S
H95 C89 0.930 . S
C96 O76 1.257 . S
C96 O97 1.244 . S
O97 C96 1.244 . S
O98 C74 1.257 . S
O98 Zn77 2.019 . S
H99 C92 0.930 . S
H100 C79 0.930 . S
H101 C91 0.930 . S
Zn102 N106 2.020 1_455 S
Zn102 O110 2.019 . S
Zn102 N112 2.120 . S
Zn102 O120 1.978 . S
C103 N104 1.334 . S
C103 N107 1.336 . S
N104 C103 1.334 . S
N104 C105 1.334 . S
C105 N104 1.334 . S
C105 N106 1.336 . S
N106 Zn102 2.020 1_655 S
N106 C105 1.336 . S
N106 N107 1.354 . S
N107 C103 1.336 . S
N107 N106 1.354 . S
N107 Zn111 2.020 . S
C108 O109 1.244 . S
C108 O132 1.257 . S
O109 C108 1.244 . S
O110 Zn102 2.019 . S
O110 C130 1.257 . S
Zn111 N107 2.020 . S
Zn111 O118 1.975 . S
Zn111 N127 2.119 . S
Zn111 O132 2.019 . S
N112 Zn102 2.120 . S
N112 C114 1.330 1_455 S
N112 C115 1.331 . S
C113 C114 1.391 . S
C113 N116 1.329 . S
C113 H134 0.930 . S
C114 N112 1.330 1_655 S
C114 C113 1.391 . S
C114 H121 0.930 . S
C115 N112 1.331 . S
C115 C117 1.392 . S
C115 H122 0.930 . S
N116 C113 1.329 . S
N116 C117 1.331 1_655 S
C117 C115 1.392 . S
C117 N116 1.331 1_455 S
O118 Zn111 1.975 . S
O118 C119 1.252 . S
C119 O118 1.252 . S
C119 O120 1.244 1_655 S
O120 Zn102 1.978 . S
O120 C119 1.244 1_455 S
H121 C114 0.930 . S
H122 C115 0.930 . S
C123 C124 1.392 . S
C123 N127 1.328 . S
C123 H129 0.930 . S
C124 C123 1.392 . S
C124 N128 1.331 . S
C125 C126 1.391 . S
C125 N128 1.329 . S
C125 H135 0.930 1_655 S
C126 C125 1.391 . S
C126 N127 1.334 . S
C126 H133 0.930 . S
N127 Zn111 2.119 . S
N127 C123 1.328 . S
N127 C126 1.334 . S
N128 C124 1.331 . S
N128 C125 1.329 . S
H129 C123 0.930 . S
C130 O110 1.257 . S
C130 O131 1.244 . S
O131 C130 1.244 . S
O132 C108 1.257 . S
O132 Zn111 2.019 . S
H133 C126 0.930 . S
H134 C113 0.930 . S
H135 C125 0.930 1_455 S
Zn136 N140 2.020 . S
Zn136 O144 2.019 . S
Zn136 N146 2.119 . S
Zn136 O154 1.975 . S
C137 N138 1.334 . S
C137 N141 1.336 . S
N138 C137 1.334 . S
N138 C139 1.334 . S
C139 N138 1.334 . S
C139 N140 1.336 . S
N140 Zn136 2.020 . S
N140 C139 1.336 . S
N140 N141 1.354 . S
N141 C137 1.336 . S
N141 N140 1.354 . S
N141 Zn145 2.020 1_655 S
C142 O143 1.244 . S
C142 O166 1.257 . S
O143 C142 1.244 . S
O144 Zn136 2.019 . S
O144 C164 1.257 . S
Zn145 N141 2.020 1_455 S
Zn145 O152 1.978 . S
Zn145 N161 2.120 . S
Zn145 O166 2.019 . S
N146 Zn136 2.119 . S
N146 C148 1.334 . S
N146 C149 1.328 . S
C147 C148 1.391 . S
C147 N150 1.329 . S
C147 H168 0.930 1_655 S
C148 N146 1.334 . S
C148 C147 1.391 . S
C148 H155 0.930 . S
C149 N146 1.328 . S
C149 C151 1.392 . S
C149 H156 0.930 . S
N150 C147 1.329 . S
N150 C151 1.331 . S
C151 C149 1.392 . S
C151 N150 1.331 . S
O152 Zn145 1.978 . S
O152 C153 1.244 1_455 S
C153 O152 1.244 1_655 S
C153 O154 1.252 . S
O154 Zn136 1.975 . S
O154 C153 1.252 . S
H155 C148 0.930 . S
H156 C149 0.930 . S
C157 C158 1.392 . S
C157 N161 1.331 . S
C157 H163 0.930 . S
C158 C157 1.392 . S
C158 N162 1.331 1_455 S
C159 C160 1.391 . S
C159 N162 1.329 . S
C159 H169 0.930 . S
C160 C159 1.391 . S
C160 N161 1.330 1_655 S
C160 H167 0.930 . S
N161 Zn145 2.120 . S
N161 C157 1.331 . S
N161 C160 1.330 1_455 S
N162 C158 1.331 1_655 S
N162 C159 1.329 . S
H163 C157 0.930 . S
C164 O144 1.257 . S
C164 O165 1.244 . S
O165 C164 1.244 . S
O166 C142 1.257 . S
O166 Zn145 2.019 . S
H167 C160 0.930 . S
H168 C147 0.930 1_455 S
H169 C159 0.930 . S
Zn170 N174 2.020 . S
Zn170 O178 2.019 . S
Zn170 N180 2.119 . S
Zn170 O188 1.975 . S
C171 N172 1.334 . S
C171 N175 1.336 . S
N172 C171 1.334 . S
N172 C173 1.334 . S
C173 N172 1.334 . S
C173 N174 1.336 . S
N174 Zn170 2.020 . S
N174 C173 1.336 . S
N174 N175 1.354 . S
N175 C171 1.336 . S
N175 N174 1.354 . S
N175 Zn179 2.020 . S
C176 O177 1.244 . S
C176 O200 1.257 . S
O177 C176 1.244 . S
O178 Zn170 2.019 . S
O178 C198 1.257 . S
Zn179 N175 2.020 . S
Zn179 O186 1.975 . S
Zn179 N195 2.119 . S
Zn179 O200 2.019 . S
N180 Zn170 2.119 . S
N180 C182 1.334 . S
N180 C183 1.328 . S
C181 C182 1.391 . S
C181 N184 1.329 . S
C181 H202 0.930 . S
C182 N180 1.334 . S
C182 C181 1.391 . S
C182 H189 0.930 . S
C183 N180 1.328 . S
C183 C185 1.392 . S
C183 H190 0.930 . S
N184 C181 1.329 . S
N184 C185 1.331 . S
C185 C183 1.392 . S
C185 N184 1.331 . S
O186 Zn179 1.975 . S
O186 C187 1.252 . S
C187 O186 1.252 . S
C187 O188 1.252 . S
O188 Zn170 1.975 . S
O188 C187 1.252 . S
H189 C182 0.930 . S
H190 C183 0.930 . S
C191 C192 1.392 . S
C191 N195 1.328 . S
C191 H197 0.930 . S
C192 C191 1.392 . S
C192 N196 1.331 . S
C193 C194 1.391 . S
C193 N196 1.329 . S
C193 H203 0.930 . S
C194 C193 1.391 . S
C194 N195 1.334 . S
C194 H201 0.930 . S
N195 Zn179 2.119 . S
N195 C191 1.328 . S
N195 C194 1.334 . S
N196 C192 1.331 . S
N196 C193 1.329 . S
H197 C191 0.930 . S
C198 O178 1.257 . S
C198 O199 1.244 . S
O199 C198 1.244 . S
O200 C176 1.257 . S
O200 Zn179 2.019 . S
H201 C194 0.930 . S
H202 C181 0.930 . S
H203 C193 0.930 . S
Zn204 N208 2.020 . S
Zn204 O212 2.019 . S
Zn204 N214 2.119 . S
Zn204 O222 1.975 . S
C205 N206 1.334 . S
C205 N209 1.336 . S
N206 C205 1.334 . S
N206 C207 1.334 . S
C207 N206 1.334 . S
C207 N208 1.336 . S
N208 Zn204 2.020 . S
N208 C207 1.336 . S
N208 N209 1.354 . S
N209 C205 1.336 . S
N209 N208 1.354 . S
N209 Zn213 2.020 . S
C210 O211 1.244 . S
C210 O234 1.257 . S
O211 C210 1.244 . S
O212 Zn204 2.019 . S
O212 C232 1.257 . S
Zn213 N209 2.020 . S
Zn213 O220 1.975 . S
Zn213 N229 2.119 . S
Zn213 O234 2.019 . S
N214 Zn204 2.119 . S
N214 C216 1.334 . S
N214 C217 1.328 . S
C215 C216 1.391 . S
C215 N218 1.329 . S
C215 H236 0.930 . S
C216 N214 1.334 . S
C216 C215 1.391 . S
C216 H223 0.930 . S
C217 N214 1.328 . S
C217 C219 1.392 . S
C217 H224 0.930 . S
N218 C215 1.329 . S
N218 C219 1.331 . S
C219 C217 1.392 . S
C219 N218 1.331 . S
O220 Zn213 1.975 . S
O220 C221 1.252 . S
C221 O220 1.252 . S
C221 O222 1.252 . S
O222 Zn204 1.975 . S
O222 C221 1.252 . S
H223 C216 0.930 . S
H224 C217 0.930 . S
C225 C226 1.392 . S
C225 N229 1.328 . S
C225 H231 0.930 . S
C226 C225 1.392 . S
C226 N230 1.331 . S
C227 C228 1.391 . S
C227 N230 1.329 . S
C227 H237 0.930 . S
C228 C227 1.391 . S
C228 N229 1.334 . S
C228 H235 0.930 . S
N229 Zn213 2.119 . S
N229 C225 1.328 . S
N229 C228 1.334 . S
N230 C226 1.331 . S
N230 C227 1.329 . S
H231 C225 0.930 . S
C232 O212 1.257 . S
C232 O233 1.244 . S
O233 C232 1.244 . S
O234 C210 1.257 . S
O234 Zn213 2.019 . S
H235 C228 0.930 . S
H236 C215 0.930 . S
H237 C227 0.930 . S
Zn238 N242 2.020 . S
Zn238 O246 2.019 . S
Zn238 N248 2.119 . S
Zn238 O256 1.975 . S
C239 N240 1.334 . S
C239 N243 1.336 . S
N240 C239 1.334 . S
N240 C241 1.334 . S
C241 N240 1.334 . S
C241 N242 1.336 . S
N242 Zn238 2.020 . S
N242 C241 1.336 . S
N242 N243 1.354 . S
N243 C239 1.336 . S
N243 N242 1.354 . S
N243 Zn247 2.020 1_455 S
C244 O245 1.244 . S
C244 O268 1.257 . S
O245 C244 1.244 . S
O246 Zn238 2.019 . S
O246 C266 1.257 . S
Zn247 N243 2.020 1_655 S
Zn247 O254 1.978 . S
Zn247 N263 2.120 . S
Zn247 O268 2.019 . S
N248 Zn238 2.119 . S
N248 C250 1.334 . S
N248 C251 1.328 . S
C249 C250 1.391 . S
C249 N252 1.329 . S
C249 H270 0.930 1_455 S
C250 N248 1.334 . S
C250 C249 1.391 . S
C250 H257 0.930 . S
C251 N248 1.328 . S
C251 C253 1.392 . S
C251 H258 0.930 . S
N252 C249 1.329 . S
N252 C253 1.331 . S
C253 C251 1.392 . S
C253 N252 1.331 . S
O254 Zn247 1.978 . S
O254 C255 1.244 1_655 S
C255 O254 1.244 1_455 S
C255 O256 1.252 . S
O256 Zn238 1.975 . S
O256 C255 1.252 . S
H257 C250 0.930 . S
H258 C251 0.930 . S
C259 C260 1.392 . S
C259 N263 1.331 . S
C259 H265 0.930 . S
C260 C259 1.392 . S
C260 N264 1.331 1_655 S
C261 C262 1.391 . S
C261 N264 1.329 . S
C261 H271 0.930 . S
C262 C261 1.391 . S
C262 N263 1.330 1_455 S
C262 H269 0.930 . S
N263 Zn247 2.120 . S
N263 C259 1.331 . S
N263 C262 1.330 1_655 S
N264 C260 1.331 1_455 S
N264 C261 1.329 . S
H265 C259 0.930 . S
C266 O246 1.257 . S
C266 O267 1.244 . S
O267 C266 1.244 . S
O268 C244 1.257 . S
O268 Zn247 2.019 . S
H269 C262 0.930 . S
H270 C249 0.930 1_655 S
H271 C261 0.930 . S
Zn272 N276 2.020 . S
Zn272 O280 2.019 . S
Zn272 N282 2.119 . S
Zn272 O290 1.975 . S
C273 N274 1.334 . S
C273 N277 1.336 . S
N274 C273 1.334 . S
N274 C275 1.334 . S
C275 N274 1.334 . S
C275 N276 1.336 . S
N276 Zn272 2.020 . S
N276 C275 1.336 . S
N276 N277 1.354 . S
N277 C273 1.336 . S
N277 N276 1.354 . S
N277 Zn281 2.020 . S
C278 O279 1.244 . S
C278 O302 1.257 . S
O279 C278 1.244 . S
O280 Zn272 2.019 . S
O280 C300 1.257 . S
Zn281 N277 2.020 . S
Zn281 O288 1.975 . S
Zn281 N297 2.119 . S
Zn281 O302 2.019 . S
N282 Zn272 2.119 . S
N282 C284 1.334 . S
N282 C285 1.328 . S
C283 C284 1.391 . S
C283 N286 1.329 . S
C283 H304 0.930 . S
C284 N282 1.334 . S
C284 C283 1.391 . S
C284 H291 0.930 . S
C285 N282 1.328 . S
C285 C287 1.392 . S
C285 H292 0.930 . S
N286 C283 1.329 . S
N286 C287 1.331 . S
C287 C285 1.392 . S
C287 N286 1.331 . S
O288 Zn281 1.975 . S
O288 C289 1.252 . S
C289 O288 1.252 . S
C289 O290 1.252 . S
O290 Zn272 1.975 . S
O290 C289 1.252 . S
H291 C284 0.930 . S
H292 C285 0.930 . S
C293 C294 1.392 . S
C293 N297 1.328 . S
C293 H299 0.930 . S
C294 C293 1.392 . S
C294 N298 1.331 . S
C295 C296 1.391 . S
C295 N298 1.329 . S
C295 H305 0.930 . S
C296 C295 1.391 . S
C296 N297 1.334 . S
C296 H303 0.930 . S
N297 Zn281 2.119 . S
N297 C293 1.328 . S
N297 C296 1.334 . S
N298 C294 1.331 . S
N298 C295 1.329 . S
H299 C293 0.930 . S
C300 O280 1.257 . S
C300 O301 1.244 . S
O301 C300 1.244 . S
O302 C278 1.257 . S
O302 Zn281 2.019 . S
H303 C296 0.930 . S
H304 C283 0.930 . S
H305 C295 0.930 . S
Zn306 N310 2.020 . S
Zn306 O314 2.019 . S
Zn306 N316 2.119 . S
Zn306 O324 1.975 . S
C307 N308 1.334 . S
C307 N311 1.336 . S
N308 C307 1.334 . S
N308 C309 1.334 . S
C309 N308 1.334 . S
C309 N310 1.336 . S
N310 Zn306 2.020 . S
N310 C309 1.336 . S
N310 N311 1.354 . S
N311 C307 1.336 . S
N311 N310 1.354 . S
N311 Zn315 2.020 1_655 S
C312 O313 1.244 . S
C312 O336 1.257 . S
O313 C312 1.244 . S
O314 Zn306 2.019 . S
O314 C334 1.257 . S
Zn315 N311 2.020 1_455 S
Zn315 O322 1.978 . S
Zn315 N331 2.120 . S
Zn315 O336 2.019 . S
N316 Zn306 2.119 . S
N316 C318 1.334 . S
N316 C319 1.328 . S
C317 C318 1.391 . S
C317 N320 1.329 . S
C317 H338 0.930 1_655 S
C318 N316 1.334 . S
C318 C317 1.391 . S
C318 H325 0.930 . S
C319 N316 1.328 . S
C319 C321 1.392 . S
C319 H326 0.930 . S
N320 C317 1.329 . S
N320 C321 1.331 . S
C321 C319 1.392 . S
C321 N320 1.331 . S
O322 Zn315 1.978 . S
O322 C323 1.244 1_455 S
C323 O322 1.244 1_655 S
C323 O324 1.252 . S
O324 Zn306 1.975 . S
O324 C323 1.252 . S
H325 C318 0.930 . S
H326 C319 0.930 . S
C327 C328 1.392 . S
C327 N331 1.331 . S
C327 H333 0.930 . S
C328 C327 1.392 . S
C328 N332 1.331 1_455 S
C329 C330 1.391 . S
C329 N332 1.329 . S
C329 H339 0.930 . S
C330 C329 1.391 . S
C330 N331 1.330 1_655 S
C330 H337 0.930 . S
N331 Zn315 2.120 . S
N331 C327 1.331 . S
N331 C330 1.330 1_455 S
N332 C328 1.331 1_655 S
N332 C329 1.329 . S
H333 C327 0.930 . S
C334 O314 1.257 . S
C334 O335 1.244 . S
O335 C334 1.244 . S
O336 C312 1.257 . S
O336 Zn315 2.019 . S
H337 C330 0.930 . S
H338 C317 0.930 1_455 S
H339 C329 0.930 . S
Zn340 N344 2.020 . S
Zn340 O348 2.019 . S
Zn340 N350 2.119 . S
Zn340 O358 1.975 . S
C341 N342 1.334 . S
C341 N345 1.336 . S
N342 C341 1.334 . S
N342 C343 1.334 . S
C343 N342 1.334 . S
C343 N344 1.336 . S
N344 Zn340 2.020 . S
N344 C343 1.336 . S
N344 N345 1.354 . S
N345 C341 1.336 . S
N345 N344 1.354 . S
N345 Zn349 2.020 1_455 S
C346 O347 1.244 . S
C346 O370 1.257 . S
O347 C346 1.244 . S
O348 Zn340 2.019 . S
O348 C368 1.257 . S
Zn349 N345 2.020 1_655 S
Zn349 O356 1.978 . S
Zn349 N365 2.120 . S
Zn349 O370 2.019 . S
N350 Zn340 2.119 . S
N350 C352 1.334 . S
N350 C353 1.328 . S
C351 C352 1.391 . S
C351 N354 1.329 . S
C351 H372 0.930 1_455 S
C352 N350 1.334 . S
C352 C351 1.391 . S
C352 H359 0.930 . S
C353 N350 1.328 . S
C353 C355 1.392 . S
C353 H360 0.930 . S
N354 C351 1.329 . S
N354 C355 1.331 . S
C355 C353 1.392 . S
C355 N354 1.331 . S
O356 Zn349 1.978 . S
O356 C357 1.244 1_655 S
C357 O356 1.244 1_455 S
C357 O358 1.252 . S
O358 Zn340 1.975 . S
O358 C357 1.252 . S
H359 C352 0.930 . S
H360 C353 0.930 . S
C361 C362 1.392 . S
C361 N365 1.331 . S
C361 H367 0.930 . S
C362 C361 1.392 . S
C362 N366 1.331 1_655 S
C363 C364 1.391 . S
C363 N366 1.329 . S
C363 H373 0.930 . S
C364 C363 1.391 . S
C364 N365 1.330 1_455 S
C364 H371 0.930 . S
N365 Zn349 2.120 . S
N365 C361 1.331 . S
N365 C364 1.330 1_655 S
N366 C362 1.331 1_455 S
N366 C363 1.329 . S
H367 C361 0.930 . S
C368 O348 1.257 . S
C368 O369 1.244 . S
O369 C368 1.244 . S
O370 C346 1.257 . S
O370 Zn349 2.019 . S
H371 C364 0.930 . S
H372 C351 0.930 1_655 S
H373 C363 0.930 . S
Zn374 N378 2.020 . S
Zn374 O382 2.019 . S
Zn374 N384 2.119 . S
Zn374 O392 1.975 . S
C375 N376 1.334 . S
C375 N379 1.336 . S
N376 C375 1.334 . S
N376 C377 1.334 . S
C377 N376 1.334 . S
C377 N378 1.336 . S
N378 Zn374 2.020 . S
N378 C377 1.336 . S
N378 N379 1.354 . S
N379 C375 1.336 . S
N379 N378 1.354 . S
N379 Zn383 2.020 . S
C380 O381 1.244 . S
C380 O404 1.257 . S
O381 C380 1.244 . S
O382 Zn374 2.019 . S
O382 C402 1.257 . S
Zn383 N379 2.020 . S
Zn383 O390 1.975 . S
Zn383 N399 2.119 . S
Zn383 O404 2.019 . S
N384 Zn374 2.119 . S
N384 C386 1.334 . S
N384 C387 1.328 . S
C385 C386 1.391 . S
C385 N388 1.329 . S
C385 H406 0.930 . S
C386 N384 1.334 . S
C386 C385 1.391 . S
C386 H393 0.930 . S
C387 N384 1.328 . S
C387 C389 1.392 . S
C387 H394 0.930 . S
N388 C385 1.329 . S
N388 C389 1.331 . S
C389 C387 1.392 . S
C389 N388 1.331 . S
O390 Zn383 1.975 . S
O390 C391 1.252 . S
C391 O390 1.252 . S
C391 O392 1.252 . S
O392 Zn374 1.975 . S
O392 C391 1.252 . S
H393 C386 0.930 . S
H394 C387 0.930 . S
C395 C396 1.392 . S
C395 N399 1.328 . S
C395 H401 0.930 . S
C396 C395 1.392 . S
C396 N400 1.331 . S
C397 C398 1.391 . S
C397 N400 1.329 . S
C397 H407 0.930 . S
C398 C397 1.391 . S
C398 N399 1.334 . S
C398 H405 0.930 . S
N399 Zn383 2.119 . S
N399 C395 1.328 . S
N399 C398 1.334 . S
N400 C396 1.331 . S
N400 C397 1.329 . S
H401 C395 0.930 . S
C402 O382 1.257 . S
C402 O403 1.244 . S
O403 C402 1.244 . S
O404 C380 1.257 . S
O404 Zn383 2.019 . S
H405 C398 0.930 . S
H406 C385 0.930 . S
H407 C397 0.930 . S
Zn408 N412 2.020 . S
Zn408 O416 2.019 . S
Zn408 N418 2.119 . S
Zn408 O426 1.975 . S
C409 N410 1.334 . S
C409 N413 1.336 . S
N410 C409 1.334 . S
N410 C411 1.334 . S
C411 N410 1.334 . S
C411 N412 1.336 . S
N412 Zn408 2.020 . S
N412 C411 1.336 . S
N412 N413 1.354 . S
N413 C409 1.336 . S
N413 N412 1.354 . S
N413 Zn417 2.020 . S
C414 O415 1.244 . S
C414 O438 1.257 . S
O415 C414 1.244 . S
O416 Zn408 2.019 . S
O416 C436 1.257 . S
Zn417 N413 2.020 . S
Zn417 O424 1.975 . S
Zn417 N433 2.119 . S
Zn417 O438 2.019 . S
N418 Zn408 2.119 . S
N418 C420 1.334 . S
N418 C421 1.328 . S
C419 C420 1.391 . S
C419 N422 1.329 . S
C419 H440 0.930 . S
C420 N418 1.334 . S
C420 C419 1.391 . S
C420 H427 0.930 . S
C421 N418 1.328 . S
C421 C423 1.392 . S
C421 H428 0.930 . S
N422 C419 1.329 . S
N422 C423 1.331 . S
C423 C421 1.392 . S
C423 N422 1.331 . S
O424 Zn417 1.975 . S
O424 C425 1.252 . S
C425 O424 1.252 . S
C425 O426 1.252 . S
O426 Zn408 1.975 . S
O426 C425 1.252 . S
H427 C420 0.930 . S
H428 C421 0.930 . S
C429 C430 1.392 . S
C429 N433 1.328 . S
C429 H435 0.930 . S
C430 C429 1.392 . S
C430 N434 1.331 . S
C431 C432 1.391 . S
C431 N434 1.329 . S
C431 H441 0.930 . S
C432 C431 1.391 . S
C432 N433 1.334 . S
C432 H439 0.930 . S
N433 Zn417 2.119 . S
N433 C429 1.328 . S
N433 C432 1.334 . S
N434 C430 1.331 . S
N434 C431 1.329 . S
H435 C429 0.930 . S
C436 O416 1.257 . S
C436 O437 1.244 . S
O437 C436 1.244 . S
O438 C414 1.257 . S
O438 Zn417 2.019 . S
H439 C432 0.930 . S
H440 C419 0.930 . S
H441 C431 0.930 . S
Zn442 N446 2.020 1_655 S
Zn442 O450 2.019 . S
Zn442 N452 2.120 . S
Zn442 O460 1.978 . S
C443 N444 1.334 . S
C443 N447 1.336 . S
N444 C443 1.334 . S
N444 C445 1.334 . S
C445 N444 1.334 . S
C445 N446 1.336 . S
N446 Zn442 2.020 1_455 S
N446 C445 1.336 . S
N446 N447 1.354 . S
N447 C443 1.336 . S
N447 N446 1.354 . S
N447 Zn451 2.020 . S
C448 O449 1.244 . S
C448 O472 1.257 . S
O449 C448 1.244 . S
O450 Zn442 2.019 . S
O450 C470 1.257 . S
Zn451 N447 2.020 . S
Zn451 O458 1.975 . S
Zn451 N467 2.119 . S
Zn451 O472 2.019 . S
N452 Zn442 2.120 . S
N452 C454 1.330 1_655 S
N452 C455 1.331 . S
C453 C454 1.391 . S
C453 N456 1.329 . S
C453 H474 0.930 . S
C454 N452 1.330 1_455 S
C454 C453 1.391 . S
C454 H461 0.930 . S
C455 N452 1.331 . S
C455 C457 1.392 . S
C455 H462 0.930 . S
N456 C453 1.329 . S
N456 C457 1.331 1_455 S
C457 C455 1.392 . S
C457 N456 1.331 1_655 S
O458 Zn451 1.975 . S
O458 C459 1.252 . S
C459 O458 1.252 . S
C459 O460 1.244 1_455 S
O460 Zn442 1.978 . S
O460 C459 1.244 1_655 S
H461 C454 0.930 . S
H462 C455 0.930 . S
C463 C464 1.392 . S
C463 N467 1.328 . S
C463 H469 0.930 . S
C464 C463 1.392 . S
C464 N468 1.331 . S
C465 C466 1.391 . S
C465 N468 1.329 . S
C465 H475 0.930 1_455 S
C466 C465 1.391 . S
C466 N467 1.334 . S
C466 H473 0.930 . S
N467 Zn451 2.119 . S
N467 C463 1.328 . S
N467 C466 1.334 . S
N468 C464 1.331 . S
N468 C465 1.329 . S
H469 C463 0.930 . S
C470 O450 1.257 . S
C470 O471 1.244 . S
O471 C470 1.244 . S
O472 C448 1.257 . S
O472 Zn451 2.019 . S
H473 C466 0.930 . S
H474 C453 0.930 . S
H475 C465 0.930 1_655 S
Zn476 N480 2.020 . S
Zn476 O484 2.019 . S
Zn476 N486 2.119 . S
Zn476 O494 1.975 . S
C477 N478 1.334 . S
C477 N481 1.336 . S
N478 C477 1.334 . S
N478 C479 1.334 . S
C479 N478 1.334 . S
C479 N480 1.336 . S
N480 Zn476 2.020 . S
N480 C479 1.336 . S
N480 N481 1.354 . S
N481 C477 1.336 . S
N481 N480 1.354 . S
N481 Zn485 2.020 1_655 S
C482 O483 1.244 . S
C482 O506 1.257 . S
O483 C482 1.244 . S
O484 Zn476 2.019 . S
O484 C504 1.257 . S
Zn485 N481 2.020 1_455 S
Zn485 O492 1.978 . S
Zn485 N501 2.120 . S
Zn485 O506 2.019 . S
N486 Zn476 2.119 . S
N486 C488 1.334 . S
N486 C489 1.328 . S
C487 C488 1.391 . S
C487 N490 1.329 . S
C487 H508 0.930 1_655 S
C488 N486 1.334 . S
C488 C487 1.391 . S
C488 H495 0.930 . S
C489 N486 1.328 . S
C489 C491 1.392 . S
C489 H496 0.930 . S
N490 C487 1.329 . S
N490 C491 1.331 . S
C491 C489 1.392 . S
C491 N490 1.331 . S
O492 Zn485 1.978 . S
O492 C493 1.244 1_455 S
C493 O492 1.244 1_655 S
C493 O494 1.252 . S
O494 Zn476 1.975 . S
O494 C493 1.252 . S
H495 C488 0.930 . S
H496 C489 0.930 . S
C497 C498 1.392 . S
C497 N501 1.331 . S
C497 H503 0.930 . S
C498 C497 1.392 . S
C498 N502 1.331 1_455 S
C499 C500 1.391 . S
C499 N502 1.329 . S
C499 H509 0.930 . S
C500 C499 1.391 . S
C500 N501 1.330 1_655 S
C500 H507 0.930 . S
N501 Zn485 2.120 . S
N501 C497 1.331 . S
N501 C500 1.330 1_455 S
N502 C498 1.331 1_655 S
N502 C499 1.329 . S
H503 C497 0.930 . S
C504 O484 1.257 . S
C504 O505 1.244 . S
O505 C504 1.244 . S
O506 C482 1.257 . S
O506 Zn485 2.019 . S
H507 C500 0.930 . S
H508 C487 0.930 1_455 S
H509 C499 0.930 . S
Zn510 N514 2.020 . S
Zn510 O518 2.019 . S
Zn510 N520 2.119 . S
Zn510 O528 1.975 . S
C511 N512 1.334 . S
C511 N515 1.336 . S
N512 C511 1.334 . S
N512 C513 1.334 . S
C513 N512 1.334 . S
C513 N514 1.336 . S
N514 Zn510 2.020 . S
N514 C513 1.336 . S
N514 N515 1.354 . S
N515 C511 1.336 . S
N515 N514 1.354 . S
N515 Zn519 2.020 . S
C516 O517 1.244 . S
C516 O540 1.257 . S
O517 C516 1.244 . S
O518 Zn510 2.019 . S
O518 C538 1.257 . S
Zn519 N515 2.020 . S
Zn519 O526 1.975 . S
Zn519 N535 2.119 . S
Zn519 O540 2.019 . S
N520 Zn510 2.119 . S
N520 C522 1.334 . S
N520 C523 1.328 . S
C521 C522 1.391 . S
C521 N524 1.329 . S
C521 H542 0.930 . S
C522 N520 1.334 . S
C522 C521 1.391 . S
C522 H529 0.930 . S
C523 N520 1.328 . S
C523 C525 1.392 . S
C523 H530 0.930 . S
N524 C521 1.329 . S
N524 C525 1.331 . S
C525 C523 1.392 . S
C525 N524 1.331 . S
O526 Zn519 1.975 . S
O526 C527 1.252 . S
C527 O526 1.252 . S
C527 O528 1.252 . S
O528 Zn510 1.975 . S
O528 C527 1.252 . S
H529 C522 0.930 . S
H530 C523 0.930 . S
C531 C532 1.392 . S
C531 N535 1.328 . S
C531 H537 0.930 . S
C532 C531 1.392 . S
C532 N536 1.331 . S
C533 C534 1.391 . S
C533 N536 1.329 . S
C533 H543 0.930 . S
C534 C533 1.391 . S
C534 N535 1.334 . S
C534 H541 0.930 . S
N535 Zn519 2.119 . S
N535 C531 1.328 . S
N535 C534 1.334 . S
N536 C532 1.331 . S
N536 C533 1.329 . S
H537 C531 0.930 . S
C538 O518 1.257 . S
C538 O539 1.244 . S
O539 C538 1.244 . S
O540 C516 1.257 . S
O540 Zn519 2.019 . S
H541 C534 0.930 . S
H542 C521 0.930 . S
H543 C533 0.930 . S
C544 C545 1.387 . S
C544 H548 0.950 . S
C544 C553 1.390 . S
C545 C544 1.387 . S
C545 C547 1.387 . S
H546 C553 0.950 . S
C547 C545 1.387 . S
C547 C549 1.390 . S
C547 H551 0.950 . S
H548 C544 0.950 . S
C549 C547 1.390 . S
C549 C550 1.387 . S
C549 H552 0.950 . S
C550 C549 1.387 . S
C550 C553 1.387 . S
H551 C547 0.950 . S
H552 C549 0.950 . S
C553 C544 1.390 . S
C553 H546 0.950 . S
C553 C550 1.387 . S
C554 C555 1.387 1_655 S
C554 H558 0.956 . S
C554 C563 1.390 . S
C555 C554 1.387 1_455 S
C555 C557 1.387 1_455 S
H556 C563 0.950 . S
C557 C555 1.387 1_655 S
C557 C559 1.390 . S
C557 H561 0.950 1_655 S
H558 C554 0.956 . S
C559 C557 1.390 . S
C559 C560 1.387 . S
C559 H562 0.950 . S
C560 C559 1.387 . S
C560 C563 1.387 . S
H561 C557 0.950 1_455 S
H562 C559 0.950 . S
C563 C554 1.390 . S
C563 H556 0.950 . S
C563 C560 1.387 . S
C564 C565 1.387 1_455 S
C564 H568 0.950 1_455 S
C564 C573 1.390 . S
C565 C564 1.387 1_655 S
C565 C567 1.387 1_655 S
H566 C573 0.950 . S
C567 C565 1.387 1_455 S
C567 C569 1.390 . S
C567 H571 0.950 . S
H568 C564 0.950 1_655 S
C569 C567 1.390 . S
C569 C570 1.387 . S
C569 H572 0.950 . S
C570 C569 1.387 . S
C570 C573 1.387 . S
H571 C567 0.950 . S
H572 C569 0.950 . S
C573 C564 1.390 . S
C573 H566 0.950 . S
C573 C570 1.387 . S
C574 C575 1.387 . S
C574 H578 0.950 . S
C574 C583 1.390 . S
C575 C574 1.387 . S
C575 C577 1.387 . S
H576 C583 0.950 . S
C577 C575 1.387 . S
C577 C579 1.390 . S
C577 H581 0.950 . S
H578 C574 0.950 . S
C579 C577 1.390 . S
C579 C580 1.387 . S
C579 H582 0.950 . S
C580 C579 1.387 . S
C580 C583 1.387 . S
H581 C577 0.950 . S
H582 C579 0.950 . S
C583 C574 1.390 . S
C583 H576 0.950 . S
C583 C580 1.387 . S
C584 C585 1.387 . S
C584 H588 0.950 . S
C584 C593 1.390 . S
C585 C584 1.387 . S
C585 C587 1.387 . S
H586 C593 0.950 . S
C587 C585 1.387 . S
C587 C589 1.390 . S
C587 H591 0.950 . S
H588 C584 0.950 . S
C589 C587 1.390 . S
C589 C590 1.387 . S
C589 H592 0.950 . S
C590 C589 1.387 . S
C590 C593 1.387 . S
H591 C587 0.950 . S
H592 C589 0.950 . S
C593 C584 1.390 . S
C593 H586 0.950 . S
C593 C590 1.387 . S
C594 C595 1.387 . S
C594 H598 0.950 . S
C594 C603 1.390 . S
C595 C594 1.387 . S
C595 C597 1.387 . S
H596 C603 0.950 1_655 S
C597 C595 1.387 . S
C597 C599 1.390 . S
C597 H601 0.950 . S
H598 C594 0.950 . S
C599 C597 1.390 . S
C599 C600 1.387 1_455 S
C599 H602 0.950 . S
C600 C599 1.387 1_655 S
C600 C603 1.387 1_655 S
H601 C597 0.950 . S
H602 C599 0.950 . S
C603 C594 1.390 . S
C603 H596 0.950 1_455 S
C603 C600 1.387 1_455 S
C604 C605 1.387 . S
C604 H608 0.950 . S
C604 C613 1.390 . S
C605 C604 1.387 . S
C605 C607 1.387 . S
H606 C613 0.950 1_455 S
C607 C605 1.387 . S
C607 C609 1.390 . S
C607 H611 0.950 . S
H608 C604 0.950 . S
C609 C607 1.390 . S
C609 C610 1.387 1_655 S
C609 H612 0.950 . S
C610 C609 1.387 1_455 S
C610 C613 1.387 1_455 S
H611 C607 0.950 . S
H612 C609 0.950 . S
C613 C604 1.390 . S
C613 H606 0.950 1_655 S
C613 C610 1.387 1_655 S
C614 C615 1.387 . S
C614 H618 0.950 . S
C614 C623 1.390 . S
C615 C614 1.387 . S
C615 C617 1.387 . S
H616 C623 0.950 . S
C617 C615 1.387 . S
C617 C619 1.390 . S
C617 H621 0.950 . S
H618 C614 0.950 . S
C619 C617 1.390 . S
C619 C620 1.387 . S
C619 H622 0.950 . S
C620 C619 1.387 . S
C620 C623 1.387 . S
H621 C617 0.950 . S
H622 C619 0.950 . S
C623 C614 1.390 . S
C623 H616 0.950 . S
C623 C620 1.387 . S
C624 C625 1.387 1_455 S
C624 H628 0.950 . S
C624 C633 1.390 . S
C625 C624 1.387 1_655 S
C625 C627 1.387 1_655 S
H626 C633 0.950 . S
C627 C625 1.387 1_455 S
C627 C629 1.390 . S
C627 H631 0.950 1_455 S
H628 C624 0.950 . S
C629 C627 1.390 . S
C629 C630 1.387 . S
C629 H632 0.950 . S
C630 C629 1.387 . S
C630 C633 1.387 . S
H631 C627 0.950 1_655 S
H632 C629 0.950 . S
C633 C624 1.390 . S
C633 H626 0.950 . S
C633 C630 1.387 . S
C634 C635 1.387 . S
C634 H638 0.950 . S
C634 C643 1.390 . S
C635 C634 1.387 . S
C635 C637 1.387 . S
H636 C643 0.950 . S
C637 C635 1.387 . S
C637 C639 1.390 . S
C637 H641 0.950 . S
H638 C634 0.950 . S
C639 C637 1.390 . S
C639 C640 1.387 . S
C639 H642 0.950 . S
C640 C639 1.387 . S
C640 C643 1.387 . S
H641 C637 0.950 . S
H642 C639 0.950 . S
C643 C634 1.390 . S
C643 H636 0.950 . S
C643 C640 1.387 . S
C644 C645 1.387 . S
C644 H648 0.950 . S
C644 C653 1.390 . S
C645 C644 1.387 . S
C645 C647 1.387 . S
H646 C653 0.950 . S
C647 C645 1.387 . S
C647 C649 1.390 . S
C647 H651 0.950 . S
H648 C644 0.950 . S
C649 C647 1.390 . S
C649 C650 1.387 . S
C649 H652 0.950 . S
C650 C649 1.387 . S
C650 C653 1.387 . S
H651 C647 0.950 . S
H652 C649 0.950 . S
C653 C644 1.390 . S
C653 H646 0.950 . S
C653 C650 1.387 . S
C654 C655 1.387 1_655 S
C654 H658 0.950 1_655 S
C654 C663 1.390 . S
C655 C654 1.387 1_455 S
C655 C657 1.387 1_455 S
H656 C663 0.950 . S
C657 C655 1.387 1_655 S
C657 C659 1.390 . S
C657 H661 0.950 . S
H658 C654 0.950 1_455 S
C659 C657 1.390 . S
C659 C660 1.387 . S
C659 H662 0.950 . S
C660 C659 1.387 . S
C660 C663 1.387 . S
H661 C657 0.950 . S
H662 C659 0.950 . S
C663 C654 1.390 . S
C663 H656 0.950 . S
C663 C660 1.387 . S
C664 C665 1.387 1_655 S
C664 H668 0.950 . S
C664 C673 1.390 . S
C665 C664 1.387 1_455 S
C665 C667 1.387 1_455 S
H666 C673 0.950 . S
C667 C665 1.387 1_655 S
C667 C669 1.390 . S
C667 H671 0.950 1_655 S
H668 C664 0.950 . S
C669 C667 1.390 . S
C669 C670 1.387 . S
C669 H672 0.950 . S
C670 C669 1.387 . S
C670 C673 1.387 . S
H671 C667 0.950 1_455 S
H672 C669 0.950 . S
C673 C664 1.390 . S
C673 H666 0.950 . S
C673 C670 1.387 . S
C674 C675 1.387 . S
C674 H678 0.950 . S
C674 C683 1.390 . S
C675 C674 1.387 . S
C675 C677 1.387 . S
H676 C683 0.950 . S
C677 C675 1.387 . S
C677 C679 1.390 . S
C677 H681 0.950 . S
H678 C674 0.950 . S
C679 C677 1.390 . S
C679 C680 1.387 . S
C679 H682 0.950 . S
C680 C679 1.387 . S
C680 C683 1.387 . S
H681 C677 0.950 . S
H682 C679 0.950 . S
C683 C674 1.390 . S
C683 H676 0.950 . S
C683 C680 1.387 . S
C684 C685 1.387 . S
C684 H688 0.950 . S
C684 C693 1.390 . S
C685 C684 1.387 . S
C685 C687 1.387 . S
H686 C693 0.950 . S
C687 C685 1.387 . S
C687 C689 1.390 . S
C687 H691 0.950 . S
H688 C684 0.950 . S
C689 C687 1.390 . S
C689 C690 1.387 . S
C689 H692 0.950 . S
C690 C689 1.387 . S
C690 C693 1.387 . S
H691 C687 0.950 . S
H692 C689 0.950 . S
C693 C684 1.390 . S
C693 H686 0.950 . S
C693 C690 1.387 . S
C694 C695 1.387 . S
C694 H698 0.950 . S
C694 C703 1.390 . S
C695 C694 1.387 . S
C695 C697 1.387 . S
H696 C703 0.950 1_655 S
C697 C695 1.387 . S
C697 C699 1.390 . S
C697 H701 0.950 . S
H698 C694 0.950 . S
C699 C697 1.390 . S
C699 C700 1.387 1_455 S
C699 H702 0.950 . S
C700 C699 1.387 1_655 S
C700 C703 1.387 1_655 S
H701 C697 0.950 . S
H702 C699 0.950 . S
C703 C694 1.390 . S
C703 H696 0.950 1_455 S
C703 C700 1.387 1_455 S
C704 C705 1.387 . S
C704 H708 0.950 . S
C704 C713 1.390 1_554 S
C705 C704 1.387 . S
C705 C707 1.387 . S
H706 C713 0.950 . S
C707 C705 1.387 . S
C707 C709 1.390 1_554 S
C707 H711 0.950 . S
H708 C704 0.950 . S
C709 C707 1.390 1_556 S
C709 C710 1.387 . S
C709 H712 0.950 . S
C710 C709 1.387 . S
C710 C713 1.387 . S
H711 C707 0.950 . S
H712 C709 0.950 . S
C713 C704 1.390 1_556 S
C713 H706 0.950 . S
C713 C710 1.387 . S
C714 C715 1.387 . S
C714 H718 0.950 . S
C714 C723 1.390 1_554 S
C715 C714 1.387 . S
C715 C717 1.387 . S
H716 C723 0.950 . S
C717 C715 1.387 . S
C717 C719 1.390 1_554 S
C717 H721 0.950 . S
H718 C714 0.950 . S
C719 C717 1.390 1_556 S
C719 C720 1.387 . S
C719 H722 0.950 . S
C720 C719 1.387 . S
C720 C723 1.387 . S
H721 C717 0.950 . S
H722 C719 0.950 . S
C723 C714 1.390 1_556 S
C723 H716 0.950 . S
C723 C720 1.387 . S
C724 C725 1.387 . S
C724 H728 0.950 . S
C724 C733 1.390 . S
C725 C724 1.387 . S
C725 C727 1.387 . S
H726 C733 0.950 . S
C727 C725 1.387 . S
C727 C729 1.390 . S
C727 H731 0.950 . S
H728 C724 0.950 . S
C729 C727 1.390 . S
C729 C730 1.387 . S
C729 H732 0.950 . S
C730 C729 1.387 . S
C730 C733 1.387 . S
H731 C727 0.950 . S
H732 C729 0.950 . S
C733 C724 1.390 . S
C733 H726 0.950 . S
C733 C730 1.387 . S
C734 C735 1.387 . S
C734 H738 0.950 . S
C734 C743 1.390 . S
C735 C734 1.387 . S
C735 C737 1.387 . S
H736 C743 0.950 . S
C737 C735 1.387 . S
C737 C739 1.390 . S
C737 H741 0.950 . S
H738 C734 0.950 . S
C739 C737 1.390 . S
C739 C740 1.387 . S
C739 H742 0.950 . S
C740 C739 1.387 . S
C740 C743 1.387 . S
H741 C737 0.950 . S
H742 C739 0.950 . S
C743 C734 1.390 . S
C743 H736 0.950 . S
C743 C740 1.387 . S
C744 C745 1.387 . S
C744 H748 0.950 . S
C744 C753 1.390 . S
C745 C744 1.387 . S
C745 C747 1.387 1_556 S
H746 C753 0.950 . S
C747 C745 1.387 1_554 S
C747 C749 1.390 . S
C747 H751 0.950 . S
H748 C744 0.950 . S
C749 C747 1.390 . S
C749 C750 1.387 . S
C749 H752 0.950 . S
C750 C749 1.387 . S
C750 C753 1.387 1_554 S
H751 C747 0.950 . S
H752 C749 0.950 . S
C753 C744 1.390 . S
C753 H746 0.950 . S
C753 C750 1.387 1_556 S
C754 C755 1.387 . S
C754 H758 0.950 . S
C754 C763 1.390 1_556 S
C755 C754 1.387 . S
C755 C757 1.387 . S
H756 C763 0.950 . S
C757 C755 1.387 . S
C757 C759 1.390 1_556 S
C757 H761 0.950 . S
H758 C754 0.950 . S
C759 C757 1.390 1_554 S
C759 C760 1.387 . S
C759 H762 0.950 . S
C760 C759 1.387 . S
C760 C763 1.387 . S
H761 C757 0.950 . S
H762 C759 0.950 . S
C763 C754 1.390 1_554 S
C763 H756 0.950 . S
C763 C760 1.387 . S
C764 C765 1.387 . S
C764 H768 0.950 . S
C764 C773 1.390 . S
C765 C764 1.387 . S
C765 C767 1.387 . S
H766 C773 0.950 . S
C767 C765 1.387 . S
C767 C769 1.390 . S
C767 H771 0.950 . S
H768 C764 0.950 . S
C769 C767 1.390 . S
C769 C770 1.387 . S
C769 H772 0.950 . S
C770 C769 1.387 . S
C770 C773 1.387 . S
H771 C767 0.950 . S
H772 C769 0.950 . S
C773 C764 1.390 . S
C773 H766 0.950 . S
C773 C770 1.387 . S
C774 C775 1.387 . S
C774 H778 0.950 . S
C774 C783 1.390 . S
C775 C774 1.387 . S
C775 C777 1.387 . S
H776 C783 0.950 . S
C777 C775 1.387 . S
C777 C779 1.390 . S
C777 H781 0.950 . S
H778 C774 0.950 . S
C779 C777 1.390 . S
C779 C780 1.387 . S
C779 H782 0.950 . S
C780 C779 1.387 . S
C780 C783 1.387 . S
H781 C777 0.950 . S
H782 C779 0.950 . S
C783 C774 1.390 . S
C783 H776 0.950 . S
C783 C780 1.387 . S
C784 C785 1.387 . S
C784 H788 0.950 . S
C784 C793 1.390 . S
C785 C784 1.387 . S
C785 C787 1.387 1_554 S
H786 C793 0.950 . S
C787 C785 1.387 1_556 S
C787 C789 1.390 . S
C787 H791 0.950 . S
H788 C784 0.950 . S
C789 C787 1.390 . S
C789 C790 1.387 . S
C789 H792 0.950 . S
C790 C789 1.387 . S
C790 C793 1.387 1_556 S
H791 C787 0.950 . S
H792 C789 0.950 . S
C793 C784 1.390 . S
C793 H786 0.950 . S
C793 C790 1.387 1_554 S
C794 C795 1.388 . S
C794 H798 0.950 . S
C794 C803 1.390 1_556 S
C795 C794 1.388 . S
C795 C797 1.387 . S
H796 C803 0.950 . S
C797 C795 1.387 . S
C797 C799 1.390 1_556 S
C797 H801 0.950 . S
H798 C794 0.950 . S
C799 C797 1.390 1_554 S
C799 C800 1.387 . S
C799 H802 0.950 . S
C800 C799 1.387 . S
C800 C803 1.387 . S
H801 C797 0.950 . S
H802 C799 0.950 . S
C803 C794 1.390 1_554 S
C803 H796 0.950 . S
C803 C800 1.387 . S
C804 C805 1.387 . S
C804 H808 0.950 . S
C804 C813 1.390 . S
C805 C804 1.387 . S
C805 C807 1.387 . S
H806 C813 0.950 . S
C807 C805 1.387 . S
C807 C809 1.390 . S
C807 H811 0.950 . S
H808 C804 0.950 . S
C809 C807 1.390 . S
C809 C810 1.387 . S
C809 H812 0.950 . S
C810 C809 1.387 . S
C810 C813 1.387 . S
H811 C807 0.950 . S
H812 C809 0.950 . S
C813 C804 1.390 . S
C813 H806 0.950 . S
C813 C810 1.387 . S
C814 C815 1.387 . S
C814 H818 0.950 . S
C814 C823 1.390 . S
C815 C814 1.387 . S
C815 C817 1.387 . S
H816 C823 0.950 . S
C817 C815 1.387 . S
C817 C819 1.390 . S
C817 H821 0.950 . S
H818 C814 0.950 . S
C819 C817 1.390 . S
C819 C820 1.387 . S
C819 H822 0.950 . S
C820 C819 1.387 . S
C820 C823 1.387 . S
H821 C817 0.950 . S
H822 C819 0.950 . S
C823 C814 1.390 . S
C823 H816 0.950 . S
C823 C820 1.387 . S
C824 C825 1.387 . S
C824 H828 0.950 . S
C824 C833 1.390 . S
C825 C824 1.387 . S
C825 C827 1.387 1_554 S
H826 C833 0.950 . S
C827 C825 1.387 1_556 S
C827 C829 1.390 . S
C827 H831 0.950 . S
H828 C824 0.950 . S
C829 C827 1.390 . S
C829 C830 1.387 . S
C829 H832 0.950 . S
C830 C829 1.387 . S
C830 C833 1.387 1_556 S
H831 C827 0.950 . S
H832 C829 0.950 . S
C833 C824 1.390 . S
C833 H826 0.950 . S
C833 C830 1.387 1_554 S
C834 C835 1.387 1_554 S
C834 H838 0.950 . S
C834 C843 1.390 . S
C835 C834 1.387 1_556 S
C835 C837 1.387 . S
H836 C843 0.950 . S
C837 C835 1.387 . S
C837 C839 1.390 . S
C837 H841 0.950 . S
H838 C834 0.950 . S
C839 C837 1.390 . S
C839 C840 1.387 1_556 S
C839 H842 0.950 . S
C840 C839 1.387 1_554 S
C840 C843 1.387 . S
H841 C837 0.950 . S
H842 C839 0.950 . S
C843 C834 1.390 . S
C843 H836 0.950 . S
C843 C840 1.387 . S
C844 C845 1.387 . S
C844 H848 0.950 . S
C844 C853 1.390 . S
C845 C844 1.387 . S
C845 C847 1.387 . S
H846 C853 0.950 . S
C847 C845 1.387 . S
C847 C849 1.390 . S
C847 H851 0.950 . S
H848 C844 0.950 . S
C849 C847 1.390 . S
C849 C850 1.387 . S
C849 H852 0.950 . S
C850 C849 1.387 . S
C850 C853 1.387 . S
H851 C847 0.950 . S
H852 C849 0.950 . S
C853 C844 1.390 . S
C853 H846 0.950 . S
C853 C850 1.387 . S
C854 C855 1.387 . S
C854 H858 0.950 . S
C854 C863 1.390 . S
C855 C854 1.387 . S
C855 C857 1.387 . S
H856 C863 0.950 . S
C857 C855 1.387 . S
C857 C859 1.390 . S
C857 H861 0.950 . S
H858 C854 0.950 . S
C859 C857 1.390 . S
C859 C860 1.387 . S
C859 H862 0.950 . S
C860 C859 1.387 . S
C860 C863 1.387 . S
H861 C857 0.950 . S
H862 C859 0.950 . S
C863 C854 1.390 . S
C863 H856 0.950 . S
C863 C860 1.387 . S
C864 C865 1.387 . S
C864 H868 0.950 . S
C864 C873 1.390 1_545 S
C865 C864 1.387 . S
C865 C867 1.387 . S
H866 C873 0.950 . S
C867 C865 1.387 . S
C867 C869 1.390 1_545 S
C867 H871 0.950 . S
H868 C864 0.950 . S
C869 C867 1.390 1_565 S
C869 C870 1.387 . S
C869 H872 0.950 . S
C870 C869 1.387 . S
C870 C873 1.387 . S
H871 C867 0.950 . S
H872 C869 0.950 . S
C873 C864 1.390 1_565 S
C873 H866 0.950 . S
C873 C870 1.387 . S
C874 C875 1.387 . S
C874 H878 0.950 . S
C874 C883 1.390 1_545 S
C875 C874 1.387 . S
C875 C877 1.387 . S
H876 C883 0.950 . S
C877 C875 1.387 . S
C877 C879 1.390 1_545 S
C877 H881 0.950 . S
H878 C874 0.950 . S
C879 C877 1.390 1_565 S
C879 C880 1.387 . S
C879 H882 0.950 . S
C880 C879 1.387 . S
C880 C883 1.387 . S
H881 C877 0.950 . S
H882 C879 0.950 . S
C883 C874 1.390 1_565 S
C883 H876 0.950 . S
C883 C880 1.387 . S
C884 C885 1.387 . S
C884 H888 0.950 . S
C884 C893 1.390 1_565 S
C885 C884 1.387 . S
C885 C887 1.387 . S
H886 C893 0.950 . S
C887 C885 1.387 . S
C887 C889 1.390 1_565 S
C887 H891 0.950 . S
H888 C884 0.950 . S
C889 C887 1.390 1_545 S
C889 C890 1.387 . S
C889 H892 0.950 . S
C890 C889 1.387 . S
C890 C893 1.387 . S
H891 C887 0.950 . S
H892 C889 0.950 . S
C893 C884 1.390 1_545 S
C893 H886 0.950 . S
C893 C890 1.387 . S
C894 C895 1.387 . S
C894 H898 0.950 . S
C894 C903 1.390 1_565 S
C895 C894 1.387 . S
C895 C897 1.387 . S
H896 C903 0.950 . S
C897 C895 1.387 . S
C897 C899 1.390 1_565 S
C897 H901 0.950 . S
H898 C894 0.950 . S
C899 C897 1.390 1_545 S
C899 C900 1.387 . S
C899 H902 0.950 . S
C900 C899 1.387 . S
C900 C903 1.387 . S
H901 C897 0.950 . S
H902 C899 0.950 . S
C903 C894 1.390 1_545 S
C903 H896 0.950 . S
C903 C900 1.387 . S
C904 C905 1.387 . S
C904 H908 0.950 . S
C904 C913 1.390 . S
C905 C904 1.387 . S
C905 C907 1.387 . S
H906 C913 0.950 . S
C907 C905 1.387 . S
C907 C909 1.390 . S
C907 H911 0.950 . S
H908 C904 0.950 . S
C909 C907 1.390 . S
C909 C910 1.387 . S
C909 H912 0.950 . S
C910 C909 1.387 . S
C910 C913 1.387 . S
H911 C907 0.950 . S
H912 C909 0.950 . S
C913 C904 1.390 . S
C913 H906 0.950 . S
C913 C910 1.387 . S
C914 C915 1.387 . S
C914 H918 0.950 . S
C914 C923 1.390 . S
C915 C914 1.387 . S
C915 C917 1.387 . S
H916 C923 0.950 . S
C917 C915 1.387 . S
C917 C919 1.390 . S
C917 H921 0.950 . S
H918 C914 0.950 . S
C919 C917 1.390 . S
C919 C920 1.387 . S
C919 H922 0.950 . S
C920 C919 1.387 . S
C920 C923 1.387 . S
H921 C917 0.950 . S
H922 C919 0.950 . S
C923 C914 1.390 . S
C923 H916 0.950 . S
C923 C920 1.387 . S
C924 C925 1.387 . S
C924 H928 0.950 . S
C924 C933 1.390 . S
C925 C924 1.387 . S
C925 C927 1.387 . S
H926 C933 0.950 . S
C927 C925 1.387 . S
C927 C929 1.390 . S
C927 H931 0.950 . S
H928 C924 0.950 . S
C929 C927 1.390 . S
C929 C930 1.387 . S
C929 H932 0.950 . S
C930 C929 1.387 . S
C930 C933 1.387 . S
H931 C927 0.950 . S
H932 C929 0.950 . S
C933 C924 1.390 . S
C933 H926 0.950 . S
C933 C930 1.387 . S
C934 C935 1.387 . S
C934 H938 0.950 . S
C934 C943 1.390 . S
C935 C934 1.387 . S
C935 C937 1.387 . S
H936 C943 0.950 . S
C937 C935 1.387 . S
C937 C939 1.390 . S
C937 H941 0.950 . S
H938 C934 0.950 . S
C939 C937 1.390 . S
C939 C940 1.387 . S
C939 H942 0.950 . S
C940 C939 1.387 . S
C940 C943 1.387 . S
H941 C937 0.950 . S
H942 C939 0.950 . S
C943 C934 1.390 . S
C943 H936 0.950 . S
C943 C940 1.387 . S
C944 C945 1.387 . S
C944 H948 0.950 . S
C944 C953 1.390 1_655 S
C945 C944 1.387 . S
C945 C947 1.387 . S
H946 C953 0.950 . S
C947 C945 1.387 . S
C947 C949 1.390 1_655 S
C947 H951 0.950 . S
H948 C944 0.950 . S
C949 C947 1.390 1_455 S
C949 C950 1.387 . S
C949 H952 0.950 . S
C950 C949 1.387 . S
C950 C953 1.387 . S
H951 C947 0.950 . S
H952 C949 0.950 . S
C953 C944 1.390 1_455 S
C953 H946 0.950 . S
C953 C950 1.387 . S
C954 C955 1.387 . S
C954 H958 0.950 . S
C954 C963 1.390 . S
C955 C954 1.387 . S
C955 C957 1.387 . S
H956 C963 0.950 . S
C957 C955 1.387 . S
C957 C959 1.390 . S
C957 H961 0.950 . S
H958 C954 0.950 . S
C959 C957 1.390 . S
C959 C960 1.387 . S
C959 H962 0.950 . S
C960 C959 1.387 . S
C960 C963 1.387 . S
H961 C957 0.950 . S
H962 C959 0.950 . S
C963 C954 1.390 . S
C963 H956 0.950 . S
C963 C960 1.387 . S
C964 C965 1.387 . S
C964 H968 0.950 . S
C964 C973 1.390 . S
C965 C964 1.387 . S
C965 C967 1.387 . S
H966 C973 0.950 . S
C967 C965 1.387 . S
C967 C969 1.390 . S
C967 H971 0.950 . S
H968 C964 0.950 . S
C969 C967 1.390 . S
C969 C970 1.387 . S
C969 H972 0.950 . S
C970 C969 1.387 . S
C970 C973 1.387 . S
H971 C967 0.950 . S
H972 C969 0.950 . S
C973 C964 1.390 . S
C973 H966 0.950 . S
C973 C970 1.387 . S
C974 C975 1.387 . S
C974 H978 0.950 . S
C974 C983 1.390 1_655 S
C975 C974 1.387 . S
C975 C977 1.387 . S
H976 C983 0.950 . S
C977 C975 1.387 . S
C977 C979 1.390 1_655 S
C977 H981 0.950 . S
H978 C974 0.950 . S
C979 C977 1.390 1_455 S
C979 C980 1.387 . S
C979 H982 0.950 . S
C980 C979 1.387 . S
C980 C983 1.387 . S
H981 C977 0.950 . S
H982 C979 0.950 . S
C983 C974 1.390 1_455 S
C983 H976 0.950 . S
C983 C980 1.387 . S
C984 C985 1.387 . S
C984 H988 0.950 . S
C984 C993 1.390 1_455 S
C985 C984 1.387 . S
C985 C987 1.387 . S
H986 C993 0.950 . S
C987 C985 1.387 . S
C987 C989 1.390 1_455 S
C987 H991 0.950 . S
H988 C984 0.950 . S
C989 C987 1.390 1_655 S
C989 C990 1.387 . S
C989 H992 0.950 . S
C990 C989 1.387 . S
C990 C993 1.387 . S
H991 C987 0.950 . S
H992 C989 0.950 . S
C993 C984 1.390 1_655 S
C993 H986 0.950 . S
C993 C990 1.387 . S
C994 C995 1.387 . S
C994 H998 0.950 . S
C994 C1003 1.390 . S
C995 C994 1.387 . S
C995 C997 1.387 . S
H996 C1003 0.950 . S
C997 C995 1.387 . S
C997 C999 1.390 . S
C997 H1001 0.950 . S
H998 C994 0.950 . S
C999 C997 1.390 . S
C999 C1000 1.387 . S
C999 H1002 0.950 . S
C1000 C999 1.387 . S
C1000 C1003 1.387 . S
H1001 C997 0.950 . S
H1002 C999 0.950 . S
C1003 C994 1.390 . S
C1003 H996 0.950 . S
C1003 C1000 1.387 . S
C1004 C1005 1.387 . S
C1004 H1008 0.950 . S
C1004 C1013 1.390 . S
C1005 C1004 1.387 . S
C1005 C1007 1.387 . S
H1006 C1013 0.950 . S
C1007 C1005 1.387 . S
C1007 C1009 1.390 . S
C1007 H1011 0.950 . S
H1008 C1004 0.950 . S
C1009 C1007 1.390 . S
C1009 C1010 1.387 . S
C1009 H1012 0.950 . S
C1010 C1009 1.387 . S
C1010 C1013 1.387 . S
H1011 C1007 0.950 . S
H1012 C1009 0.950 . S
C1013 C1004 1.390 . S
C1013 H1006 0.950 . S
C1013 C1010 1.387 . S
C1014 C1015 1.387 . S
C1014 H1018 0.950 . S
C1014 C1023 1.390 1_455 S
C1015 C1014 1.387 . S
C1015 C1017 1.387 . S
H1016 C1023 0.950 . S
C1017 C1015 1.387 . S
C1017 C1019 1.390 1_455 S
C1017 H1021 0.950 . S
H1018 C1014 0.950 . S
C1019 C1017 1.390 1_655 S
C1019 C1020 1.387 . S
C1019 H1022 0.950 . S
C1020 C1019 1.387 . S
C1020 C1023 1.387 . S
H1021 C1017 0.950 . S
H1022 C1019 0.950 . S
C1023 C1014 1.390 1_655 S
C1023 H1016 0.950 . S
C1023 C1020 1.387 . S
C1024 C1025 1.387 . S
C1024 H1028 0.950 . S
C1024 C1033 1.390 1_655 S
C1025 C1024 1.387 . S
C1025 C1027 1.387 . S
H1026 C1033 0.950 . S
C1027 C1025 1.387 . S
C1027 C1029 1.390 1_655 S
C1027 H1031 0.950 . S
H1028 C1024 0.950 . S
C1029 C1027 1.390 1_455 S
C1029 C1030 1.387 . S
C1029 H1032 0.950 . S
C1030 C1029 1.387 . S
C1030 C1033 1.387 . S
H1031 C1027 0.950 . S
H1032 C1029 0.950 . S
C1033 C1024 1.390 1_455 S
C1033 H1026 0.950 . S
C1033 C1030 1.387 . S
C1034 C1035 1.387 . S
C1034 H1038 0.950 . S
C1034 C1043 1.390 . S
C1035 C1034 1.387 . S
C1035 C1037 1.387 . S
H1036 C1043 0.950 . S
C1037 C1035 1.387 . S
C1037 C1039 1.390 . S
C1037 H1041 0.950 . S
H1038 C1034 0.950 . S
C1039 C1037 1.390 . S
C1039 C1040 1.387 . S
C1039 H1042 0.950 . S
C1040 C1039 1.387 . S
C1040 C1043 1.387 . S
H1041 C1037 0.950 . S
H1042 C1039 0.950 . S
C1043 C1034 1.390 . S
C1043 H1036 0.950 . S
C1043 C1040 1.387 . S
C1044 C1045 1.387 . S
C1044 H1048 0.950 . S
C1044 C1053 1.390 1_455 S
C1045 C1044 1.387 . S
C1045 C1047 1.387 . S
H1046 C1053 0.950 . S
C1047 C1045 1.387 . S
C1047 C1049 1.390 1_455 S
C1047 H1051 0.950 . S
H1048 C1044 0.950 . S
C1049 C1047 1.390 1_655 S
C1049 C1050 1.387 . S
C1049 H1052 0.950 . S
C1050 C1049 1.387 . S
C1050 C1053 1.387 . S
H1051 C1047 0.950 . S
H1052 C1049 0.950 . S
C1053 C1044 1.390 1_655 S
C1053 H1046 0.950 . S
C1053 C1050 1.387 . S
C1054 C1055 1.387 . S
C1054 H1058 0.950 . S
C1054 C1063 1.390 . S
C1055 C1054 1.387 . S
C1055 C1057 1.387 . S
H1056 C1063 0.950 . S
C1057 C1055 1.387 . S
C1057 C1059 1.390 . S
C1057 H1061 0.950 . S
H1058 C1054 0.950 . S
C1059 C1057 1.390 . S
C1059 C1060 1.387 . S
C1059 H1062 0.950 . S
C1060 C1059 1.387 . S
C1060 C1063 1.387 . S
H1061 C1057 0.950 . S
H1062 C1059 0.950 . S
C1063 C1054 1.390 . S
C1063 H1056 0.950 . S
C1063 C1060 1.387 . S
C1064 C1065 1.387 . S
C1064 H1068 0.950 . S
C1064 C1073 1.390 . S
C1065 C1064 1.387 . S
C1065 C1067 1.387 . S
H1066 C1073 0.950 . S
C1067 C1065 1.387 . S
C1067 C1069 1.390 . S
C1067 H1071 0.950 . S
H1068 C1064 0.950 . S
C1069 C1067 1.390 . S
C1069 C1070 1.387 . S
C1069 H1072 0.950 . S
C1070 C1069 1.387 . S
C1070 C1073 1.387 . S
H1071 C1067 0.950 . S
H1072 C1069 0.950 . S
C1073 C1064 1.390 . S
C1073 H1066 0.950 . S
C1073 C1070 1.387 . S
C1074 C1075 1.387 . S
C1074 H1078 0.950 . S
C1074 C1083 1.390 1_655 S
C1075 C1074 1.387 . S
C1075 C1077 1.387 . S
H1076 C1083 0.950 . S
C1077 C1075 1.387 . S
C1077 C1079 1.390 1_655 S
C1077 H1081 0.950 . S
H1078 C1074 0.950 . S
C1079 C1077 1.390 1_455 S
C1079 C1080 1.387 . S
C1079 H1082 0.950 . S
C1080 C1079 1.387 . S
C1080 C1083 1.387 . S
H1081 C1077 0.950 . S
H1082 C1079 0.950 . S
C1083 C1074 1.390 1_455 S
C1083 H1076 0.950 . S
C1083 C1080 1.387 . S
C1084 C1085 1.387 . S
C1084 H1088 0.950 . S
C1084 C1093 1.390 . S
C1085 C1084 1.387 . S
C1085 C1087 1.387 . S
H1086 C1093 0.950 . S
C1087 C1085 1.387 . S
C1087 C1089 1.390 . S
C1087 H1091 0.950 . S
H1088 C1084 0.950 . S
C1089 C1087 1.390 . S
C1089 C1090 1.387 . S
C1089 H1092 0.950 . S
C1090 C1089 1.387 . S
C1090 C1093 1.387 . S
H1091 C1087 0.950 . S
H1092 C1089 0.950 . S
C1093 C1084 1.390 . S
C1093 H1086 0.950 . S
C1093 C1090 1.387 . S
C1094 C1095 1.387 . S
C1094 H1098 0.950 . S
C1094 C1103 1.390 1_655 S
C1095 C1094 1.387 . S
C1095 C1097 1.387 . S
H1096 C1103 0.950 . S
C1097 C1095 1.387 . S
C1097 C1099 1.390 1_655 S
C1097 H1101 0.950 . S
H1098 C1094 0.950 . S
C1099 C1097 1.390 1_455 S
C1099 C1100 1.387 . S
C1099 H1102 0.950 . S
C1100 C1099 1.387 . S
C1100 C1103 1.387 . S
H1101 C1097 0.950 . S
H1102 C1099 0.950 . S
C1103 C1094 1.390 1_455 S
C1103 H1096 0.950 . S
C1103 C1100 1.387 . S
C545 C28 1.447 . S
C550 C6 1.438 . S
C555 C62 1.438 . S
C560 C40 1.447 . S
C565 C96 1.438 . S
C570 C74 1.447 . S
C575 C108 1.437 . S
C580 C130 1.447 . S
C585 C142 1.447 . S
C590 C164 1.437 . S
C595 C176 1.447 . S
C600 C198 1.438 . S
C605 C210 1.447 . S
C610 C232 1.438 . S
C615 C266 1.438 . S
C620 C244 1.447 . S
C625 C278 1.438 . S
C630 C300 1.447 . S
C635 C312 1.447 . S
C640 C334 1.437 . S
C645 C346 1.447 . S
C650 C368 1.438 . S
C655 C380 1.438 . S
C660 C402 1.447 . S
C665 C414 1.438 . S
C670 C436 1.447 . S
C675 C448 1.438 . S
C680 C470 1.447 . S
C685 C504 1.438 . S
C690 C482 1.447 . S
C695 C516 1.447 . S
C700 C538 1.438 . S
C705 C1 1.887 . S
C710 C171 1.898 . S
C715 C37 1.889 . S
C720 C137 1.900 1_455 S
C725 C71 1.889 . S
C730 C239 1.900 1_655 S
C735 C103 1.887 . S
C740 C205 1.899 . S
C745 C139 1.889 . S
C750 C35 1.900 . S
C755 C173 1.888 . S
C760 C3 1.899 1_655 S
C765 C105 1.900 1_455 S
C770 C207 1.889 . S
C775 C69 1.898 . S
C780 C241 1.887 . S
C785 C273 1.886 . S
C790 C445 1.897 1_655 S
C795 C411 1.898 . S
C800 C309 1.886 . S
C805 C343 1.889 . S
C810 C511 1.900 . S
C815 C477 1.898 1_455 S
C820 C375 1.886 . S
C825 C307 1.898 1_455 S
C830 C409 1.887 . S
C835 C443 1.887 . S
C840 C275 1.898 . S
C845 C479 1.887 . S
C850 C377 1.898 . S
C855 C513 1.886 . S
C860 C341 1.898 1_655 S
C865 C22 1.510 . S
C870 C49 1.510 . S
C875 C124 1.510 . S
C880 C83 1.510 . S
C885 C151 1.514 . S
C890 C185 1.514 . S
C895 C253 1.510 . S
C900 C219 1.510 . S
C905 C321 1.514 . S
C910 C294 1.514 . S
C915 C355 1.510 . S
C920 C396 1.510 . S
C925 C430 1.510 . S
C930 C464 1.510 . S
C935 C491 1.510 . S
C940 C525 1.510 . S
C945 C15 1.810 . S
C950 C328 1.810 . S
C955 C56 1.810 . S
C960 C287 1.810 . S
C965 C389 1.810 . S
C970 C90 1.810 . S
C975 C362 1.810 . S
C980 C117 1.810 . S
C985 C158 1.806 . S
C990 C457 1.806 . S
C995 C192 1.806 . S
C1000 C423 1.806 . S
C1005 C226 1.810 . S
C1010 C532 1.810 . S
C1015 C498 1.805 . S
C1020 C260 1.805 . S
C1025 C119 1.657 . S
C1030 C17 1.657 . S
C1035 C51 1.657 . S
C1040 C85 1.657 . S
C1045 C255 1.655 . S
C1050 C153 1.655 . S
C1055 C187 1.655 . S
C1060 C221 1.655 . S
C1065 C289 1.655 . S
C1070 C391 1.655 . S
C1075 C323 1.657 . S
C1080 C357 1.657 . S
C1085 C527 1.655 . S
C1090 C425 1.655 . S
C1095 C493 1.657 . S
C1100 C459 1.657 . S
