# Generated by pormake.
# Topology vcu, (8)-cn, num edge types: 1
# Building blocks:
#     Node 0, Type 0, BuildingBlock: TAGTUT_clean_sbu_3, # of connection points: 8
#     Node 1, Type 0, BuildingBlock: TAGTUT_clean_sbu_3, # of connection points: 8
#     Node 2, Type 0, BuildingBlock: TAGTUT_clean_sbu_3, # of connection points: 8
#     Node 3, Type 0, BuildingBlock: TAGTUT_clean_sbu_3, # of connection points: 8
#     Node 4, Type 0, BuildingBlock: TAGTUT_clean_sbu_3, # of connection points: 8
#     Node 5, Type 0, BuildingBlock: TAGTUT_clean_sbu_3, # of connection points: 8
#     Node 6, Type 0, BuildingBlock: TAGTUT_clean_sbu_3, # of connection points: 8
#     Node 7, Type 0, BuildingBlock: TAGTUT_clean_sbu_3, # of connection points: 8
#     Edge 8, Type (0, 0), BuildingBlock: EZIPEK_clean_linker_0, # of connection points: 2
#     Edge 9, Type (0, 0), BuildingBlock: EZIPEK_clean_linker_0, # of connection points: 2
#     Edge 10, Type (0, 0), BuildingBlock: EZIPEK_clean_linker_0, # of connection points: 2
#     Edge 11, Type (0, 0), BuildingBlock: EZIPEK_clean_linker_0, # of connection points: 2
#     Edge 12, Type (0, 0), BuildingBlock: EZIPEK_clean_linker_0, # of connection points: 2
#     Edge 13, Type (0, 0), BuildingBlock: EZIPEK_clean_linker_0, # of connection points: 2
#     Edge 14, Type (0, 0), BuildingBlock: EZIPEK_clean_linker_0, # of connection points: 2
#     Edge 15, Type (0, 0), BuildingBlock: EZIPEK_clean_linker_0, # of connection points: 2
#     Edge 16, Type (0, 0), BuildingBlock: EZIPEK_clean_linker_0, # of connection points: 2
#     Edge 17, Type (0, 0), BuildingBlock: EZIPEK_clean_linker_0, # of connection points: 2
#     Edge 18, Type (0, 0), BuildingBlock: EZIPEK_clean_linker_0, # of connection points: 2
#     Edge 19, Type (0, 0), BuildingBlock: EZIPEK_clean_linker_0, # of connection points: 2
#     Edge 20, Type (0, 0), BuildingBlock: EZIPEK_clean_linker_0, # of connection points: 2
#     Edge 21, Type (0, 0), BuildingBlock: EZIPEK_clean_linker_0, # of connection points: 2
#     Edge 22, Type (0, 0), BuildingBlock: EZIPEK_clean_linker_0, # of connection points: 2
#     Edge 23, Type (0, 0), BuildingBlock: EZIPEK_clean_linker_0, # of connection points: 2
#     Edge 24, Type (0, 0), BuildingBlock: EZIPEK_clean_linker_0, # of connection points: 2
#     Edge 25, Type (0, 0), BuildingBlock: EZIPEK_clean_linker_0, # of connection points: 2
#     Edge 26, Type (0, 0), BuildingBlock: EZIPEK_clean_linker_0, # of connection points: 2
#     Edge 27, Type (0, 0), BuildingBlock: EZIPEK_clean_linker_0, # of connection points: 2
#     Edge 28, Type (0, 0), BuildingBlock: EZIPEK_clean_linker_0, # of connection points: 2
#     Edge 29, Type (0, 0), BuildingBlock: EZIPEK_clean_linker_0, # of connection points: 2
#     Edge 30, Type (0, 0), BuildingBlock: EZIPEK_clean_linker_0, # of connection points: 2
#     Edge 31, Type (0, 0), BuildingBlock: EZIPEK_clean_linker_0, # of connection points: 2
#     Edge 32, Type (0, 0), BuildingBlock: EZIPEK_clean_linker_0, # of connection points: 2
#     Edge 33, Type (0, 0), BuildingBlock: EZIPEK_clean_linker_0, # of connection points: 2
#     Edge 34, Type (0, 0), BuildingBlock: EZIPEK_clean_linker_0, # of connection points: 2
#     Edge 35, Type (0, 0), BuildingBlock: EZIPEK_clean_linker_0, # of connection points: 2
#     Edge 36, Type (0, 0), BuildingBlock: EZIPEK_clean_linker_0, # of connection points: 2
#     Edge 37, Type (0, 0), BuildingBlock: EZIPEK_clean_linker_0, # of connection points: 2
#     Edge 38, Type (0, 0), BuildingBlock: EZIPEK_clean_linker_0, # of connection points: 2
#     Edge 39, Type (0, 0), BuildingBlock: EZIPEK_clean_linker_0, # of connection points: 2
# Relax obj value: 0.226
# Max RMSD: 0.292
# Mean RMSD: 0.290
data_MOF--net-vcu--node1-TAGTUT_clean_sbu_3--edge1-EZIPEK_clean_linker_0
_symmetry_space_group_name_H-M    P1
_symmetry_Int_Tables_number       1
_symmetry_cell_setting            triclinic
loop_
_symmetry_equiv_pos_as_xyz
'x, y, z'
_cell_length_a     14.630456
_cell_length_b     25.120097
_cell_length_c     37.867755
_cell_angle_alpha  90.314531
_cell_angle_beta   89.835552
_cell_angle_gamma 90.074258
loop_
_atom_site_label
_atom_site_type_symbol
_atom_site_fract_x
_atom_site_fract_y
_atom_site_fract_z
_atom_type_partial_charge
C0 C 0.45291 0.38855 0.31048 0.0
C1 C 0.69821 0.33196 0.38409 0.0
C2 C 0.5115 0.22172 0.43659 0.0
Mg3 Mg 0.24307 0.4048 0.32044 0.0
Mg4 Mg 0.18195 0.45115 0.39553 0.0
O5 O 0.22581 0.39156 0.37249 0.0
Mg6 Mg 0.3529 0.37188 0.38625 0.0
O7 O 0.48106 0.34858 0.39397 0.0
Mg8 Mg 0.49612 0.28749 0.35987 0.0
Mg9 Mg 0.53839 0.34195 0.43685 0.0
C10 C 0.22638 0.3708 0.45592 0.0
O11 O 0.38761 0.44769 0.41913 0.0
O12 O 0.08938 0.40766 0.31768 0.0
O13 O 0.46932 0.40688 0.462 0.0
O14 O 0.24845 0.49923 0.32363 0.0
O15 O 0.05064 0.44347 0.37021 0.0
O16 O 0.26738 0.51648 0.38005 0.0
O17 O 0.33861 0.29205 0.3596 0.0
O18 O 0.23931 0.30893 0.31709 0.0
C19 C 0.28873 0.27604 0.33453 0.0
C20 C 0.02962 0.42181 0.34053 0.0
O21 O 0.28596 0.34465 0.43762 0.0
O22 O 0.64979 0.30111 0.36454 0.0
O23 O 0.19404 0.41618 0.44695 0.0
O24 O 0.50006 0.22447 0.40336 0.0
O25 O 0.66968 0.35241 0.41317 0.0
O26 O 0.52234 0.2633 0.45546 0.0
O27 O 0.39495 0.40382 0.33311 0.0
O28 O 0.49929 0.34649 0.31496 0.0
C29 C 0.26955 0.53211 0.34828 0.0
C30 C 0.42545 0.44697 0.4499 0.0
C31 C 0.0992 0.00945 0.92675 0.0
C32 C 0.28751 0.9315 0.82868 0.0
C33 C 0.46861 0.0734 0.84404 0.0
Mg34 Mg 0.0161 0.11687 0.93462 0.0
Mg35 Mg 0.99444 0.20107 0.87215 0.0
O36 O 0.07737 0.16258 0.89879 0.0
Mg37 Mg 0.15682 0.10845 0.87472 0.0
O38 O 0.22982 0.04988 0.85456 0.0
Mg39 Mg 0.29943 0.02206 0.89546 0.0
Mg40 Mg 0.28555 0.0507 0.81008 0.0
C41 C 0.17818 0.22396 0.83236 0.0
O42 O 0.06723 0.09776 0.82689 0.0
O43 O 0.9617 0.19398 0.95883 0.0
O44 O 0.17396 0.08911 0.78365 0.0
O45 O 0.87838 0.10731 0.90321 0.0
O46 O 0.94211 0.25033 0.91348 0.0
O47 O 0.88718 0.15293 0.85309 0.0
O48 O 0.2608 0.10855 0.92017 0.0
O49 O 0.15594 0.12669 0.96191 0.0
C50 C 0.23965 0.12255 0.95174 0.0
C51 C 0.93667 0.23892 0.94628 0.0
O52 O 0.22078 0.18253 0.84439 0.0
O53 O 0.30469 0.94296 0.86134 0.0
O54 O 0.09281 0.23221 0.83731 0.0
O55 O 0.43196 0.0541 0.87169 0.0
O56 O 0.28079 0.96679 0.80471 0.0
O57 O 0.42368 0.08 0.81559 0.0
O58 O 0.07797 0.04772 0.90677 0.0
O59 O 0.17584 0.98691 0.92331 0.0
C60 C 0.84566 0.12079 0.87321 0.0
C61 C 0.09087 0.09311 0.79437 0.0
C62 C 0.76576 0.18927 0.64234 0.0
C63 C 0.50977 0.0482 0.64633 0.0
C64 C 0.73911 0.92975 0.63871 0.0
Mg65 Mg 0.97102 0.18033 0.61964 0.0
Mg66 Mg 0.03941 0.1149 0.54954 0.0
O67 O 0.95982 0.11758 0.58653 0.0
Mg68 Mg 0.83399 0.08946 0.5937 0.0
O69 O 0.70882 0.06646 0.60884 0.0
Mg70 Mg 0.72822 0.06103 0.66137 0.0
Mg71 Mg 0.64757 0.00908 0.58853 0.0
C72 C 0.92714 0.01008 0.53441 0.0
O73 O 0.76262 0.1106 0.54149 0.0
O74 O 0.12637 0.16879 0.62174 0.0
O75 O 0.66534 0.04017 0.53559 0.0
O76 O 0.98521 0.23803 0.57338 0.0
O77 O 0.15665 0.10507 0.58124 0.0
O78 O 0.04256 0.19172 0.52774 0.0
O79 O 0.87641 0.06351 0.64838 0.0
O80 O 0.96655 0.12766 0.66716 0.0
C81 C 0.92413 0.08445 0.6723 0.0
C82 C 0.17836 0.13301 0.60823 0.0
O83 O 0.87741 0.01157 0.56277 0.0
O84 O 0.57461 0.05747 0.668 0.0
O85 O 0.97966 0.04801 0.52449 0.0
O86 O 0.74487 0.96878 0.66041 0.0
O87 O 0.52244 0.02861 0.61538 0.0
O88 O 0.70792 0.93631 0.60757 0.0
O89 O 0.81368 0.17239 0.61688 0.0
O90 O 0.72195 0.15675 0.66224 0.0
C91 C 0.02001 0.2354 0.5425 0.0
C92 C 0.70047 0.08411 0.52466 0.0
C93 C 0.73244 0.39396 0.02307 0.0
C94 C 0.4411 0.27477 0.03378 0.0
C95 C 0.33964 0.39832 0.10111 0.0
Mg96 Mg 0.79633 0.50034 0.06996 0.0
Mg97 Mg 0.78679 0.49267 0.15719 0.0
O98 O 0.72643 0.48455 0.11383 0.0
Mg99 Mg 0.65178 0.42265 0.0992 0.0
O100 O 0.57167 0.3641 0.07943 0.0
Mg101 Mg 0.51028 0.40193 0.04017 0.0
Mg102 Mg 0.49656 0.31995 0.10568 0.0
C103 C 0.59225 0.44905 0.18038 0.0
O104 O 0.72221 0.35654 0.13278 0.0
O105 O 0.80414 0.58341 0.095 0.0
O106 O 0.60598 0.29723 0.13894 0.0
O107 O 0.92986 0.47138 0.09584 0.0
O108 O 0.79979 0.57696 0.15401 0.0
O109 O 0.91971 0.45714 0.15381 0.0
O110 O 0.57135 0.47642 0.06325 0.0
O111 O 0.6726 0.53238 0.04158 0.0
C112 C 0.5936 0.51196 0.04119 0.0
C113 C 0.79793 0.60468 0.1258 0.0
O114 O 0.56526 0.44018 0.14854 0.0
O115 O 0.45732 0.32077 0.0206 0.0
O116 O 0.67461 0.46228 0.18837 0.0
O117 O 0.37427 0.41401 0.07182 0.0
O118 O 0.45312 0.2644 0.06638 0.0
O119 O 0.37986 0.36506 0.12094 0.0
O120 O 0.75238 0.41255 0.05355 0.0
O121 O 0.6492 0.3881 0.01301 0.0
C122 C 0.96493 0.45672 0.12502 0.0
C123 C 0.68789 0.3129 0.14501 0.0
C124 C 0.76258 0.62415 0.53078 0.0
C125 C 0.47741 0.75101 0.5544 0.0
C126 C 0.38888 0.62969 0.62425 0.0
Mg127 Mg 0.83616 0.51997 0.58115 0.0
Mg128 Mg 0.82973 0.52823 0.66899 0.0
O129 O 0.77428 0.54343 0.62566 0.0
Mg130 Mg 0.7016 0.60719 0.61112 0.0
O131 O 0.62193 0.66703 0.59365 0.0
Mg132 Mg 0.54868 0.62627 0.55875 0.0
Mg133 Mg 0.54854 0.70722 0.62485 0.0
C134 C 0.64674 0.58405 0.69362 0.0
O135 O 0.78121 0.67723 0.63926 0.0
O136 O 0.8518 0.43463 0.60661 0.0
O137 O 0.66371 0.73051 0.65669 0.0
O138 O 0.97587 0.5506 0.60485 0.0
O139 O 0.8266 0.44303 0.66502 0.0
O140 O 0.9668 0.55902 0.66378 0.0
O141 O 0.61042 0.55148 0.57983 0.0
O142 O 0.70172 0.48924 0.55821 0.0
C143 C 0.62534 0.51332 0.55839 0.0
C144 C 0.83767 0.41438 0.63736 0.0
O145 O 0.62444 0.59876 0.66245 0.0
O146 O 0.49401 0.70499 0.54137 0.0
O147 O 0.72323 0.56242 0.70176 0.0
O148 O 0.41931 0.61567 0.59391 0.0
O149 O 0.49236 0.76282 0.58682 0.0
O150 O 0.43436 0.66077 0.64439 0.0
O151 O 0.78963 0.60664 0.56086 0.0
O152 O 0.67923 0.63797 0.52677 0.0
C153 C 0.01143 0.56274 0.63484 0.0
C154 C 0.74958 0.71977 0.65458 0.0
C155 C 0.72257 0.90586 0.02643 0.0
C156 C 0.00677 0.77504 0.04487 0.0
C157 C 0.11427 0.90068 0.10865 0.0
Mg158 Mg 0.66393 0.01255 0.07902 0.0
Mg159 Mg 0.67371 0.99029 0.16554 0.0
O160 O 0.73276 0.98923 0.12138 0.0
Mg161 Mg 0.80072 0.92696 0.10391 0.0
O162 O 0.87617 0.86629 0.08425 0.0
Mg163 Mg 0.94611 0.90456 0.04705 0.0
Mg164 Mg 0.94842 0.82635 0.11555 0.0
C165 C 0.85874 0.93597 0.18629 0.0
O166 O 0.71796 0.8627 0.13239 0.0
O167 O 0.65596 0.0939 0.11094 0.0
O168 O 0.84115 0.82355 0.15506 0.0
O169 O 0.52696 0.98163 0.10238 0.0
O170 O 0.67957 0.0743 0.16839 0.0
O171 O 0.53579 0.96041 0.15939 0.0
O172 O 0.88932 0.98105 0.07028 0.0
O173 O 0.79372 0.04298 0.05246 0.0
C174 C 0.87062 0.01986 0.05011 0.0
C175 C 0.67213 0.10781 0.14331 0.0
O176 O 0.88502 0.93218 0.154 0.0
O177 O -0.0009 0.82123 0.03058 0.0
O178 O 0.77851 0.95085 0.19584 0.0
O179 O 0.08065 0.91566 0.07919 0.0
O180 O 0.98468 0.76654 0.07715 0.0
O181 O 0.07147 0.86897 0.12899 0.0
O182 O 0.70425 0.92591 0.05678 0.0
O183 O 0.80582 0.89419 0.01802 0.0
C184 C 0.49079 0.96372 0.13068 0.0
C185 C 0.75637 0.8225 0.14691 0.0
C186 C 0.25864 0.84355 0.44718 0.0
C187 C 0.9851 0.70895 0.42329 0.0
C188 C 0.88267 0.83145 0.35632 0.0
Mg189 Mg 0.33032 0.94477 0.39741 0.0
Mg190 Mg 0.32798 0.93471 0.31005 0.0
O191 O 0.26701 0.92424 0.35308 0.0
Mg192 Mg 0.19572 0.86026 0.36733 0.0
O193 O 0.11804 0.79985 0.38475 0.0
Mg194 Mg 0.0426 0.83836 0.42093 0.0
Mg195 Mg 0.04995 0.75811 0.35285 0.0
C196 C 0.13986 0.8873 0.2855 0.0
O197 O 0.27767 0.79248 0.33859 0.0
O198 O 0.34758 0.02992 0.37202 0.0
O199 O 0.16496 0.73832 0.31884 0.0
O200 O 0.4702 0.91421 0.37374 0.0
O201 O 0.33277 0.02031 0.31311 0.0
O202 O 0.46201 0.90065 0.31538 0.0
O203 O 0.10222 0.91399 0.39996 0.0
O204 O 0.19511 0.97448 0.42256 0.0
C205 C 0.11821 0.95054 0.42241 0.0
C206 C 0.34052 0.04949 0.34074 0.0
O207 O 0.11585 0.87303 0.31671 0.0
O208 O 0.99277 0.75513 0.43777 0.0
O209 O 0.22134 0.90166 0.27705 0.0
O210 O 0.91373 0.8463 0.38626 0.0
O211 O 0.00641 0.6999 0.391 0.0
O212 O 0.92794 0.80033 0.33603 0.0
O213 O 0.28776 0.85697 0.41649 0.0
O214 O 0.17362 0.83403 0.45313 0.0
C215 C 0.50617 0.89929 0.34436 0.0
C216 C 0.25006 0.74906 0.32343 0.0
C217 C 0.35035 0.52338 0.9235 0.0
C218 C 0.15762 0.4377 0.83284 0.0
C219 C 0.97533 0.58219 0.84349 0.0
Mg220 Mg 0.43089 0.63782 0.93246 0.0
Mg221 Mg 0.44188 0.71971 0.86815 0.0
O222 O 0.36236 0.68048 0.89649 0.0
Mg223 Mg 0.28581 0.62244 0.87359 0.0
O224 O 0.21547 0.56111 0.85436 0.0
Mg225 Mg 0.14605 0.53501 0.89594 0.0
Mg226 Mg 0.16158 0.5557 0.80956 0.0
C227 C 0.25289 0.73106 0.82759 0.0
O228 O 0.37504 0.61419 0.82476 0.0
O229 O 0.49097 0.71887 0.95384 0.0
O230 O 0.2739 0.59319 0.78138 0.0
O231 O 0.56521 0.62696 0.89962 0.0
O232 O 0.48974 0.77449 0.9075 0.0
O233 O 0.556 0.67321 0.84978 0.0
O234 O 0.18543 0.62216 0.92045 0.0
O235 O 0.29109 0.64671 0.96078 0.0
C236 C 0.20735 0.63814 0.95174 0.0
C237 C 0.50746 0.76461 0.93986 0.0
O238 O 0.21388 0.68998 0.84153 0.0
O239 O 0.13786 0.4529 0.86463 0.0
O240 O 0.33628 0.74408 0.83355 0.0
O241 O 0.01142 0.56628 0.87224 0.0
O242 O 0.16896 0.47064 0.80759 0.0
O243 O 0.02121 0.58458 0.81472 0.0
O244 O 0.36857 0.56544 0.90644 0.0
O245 O 0.27302 0.50142 0.92051 0.0
C246 C 0.59802 0.64075 0.86966 0.0
C247 C 0.35423 0.60607 0.79223 0.0
C248 C 0.92492 0.34445 0.33723 0.0
C249 C 0.93601 0.4007 0.3375 0.0
C250 C 0.78038 0.41047 0.35971 0.0
C251 C 0.77984 0.35518 0.36781 0.0
N252 N 0.85374 0.26949 0.36626 0.0
N253 N 0.87278 0.48799 0.34637 0.0
C254 C 0.85234 0.32194 0.35684 0.0
C255 C 0.86254 0.43397 0.34756 0.0
N256 N 0.98249 0.31253 0.31816 0.0
N257 N 0.70211 0.43998 0.3625 0.0
H258 H 0.93031 0.50583 0.33508 0.0
H259 H 0.82645 0.51461 0.35766 0.0
H260 H 0.6393 0.42394 0.37006 0.0
H261 H 0.69727 0.47924 0.35401 0.0
H262 H 0.97312 0.27156 0.31566 0.0
H263 H 0.0311 0.32729 0.30066 0.0
H264 H 0.91034 0.24501 0.36228 0.0
H265 H 0.8017 0.25176 0.381 0.0
C266 C 0.58727 0.13186 0.87044 0.0
C267 C 0.56526 0.08997 0.84674 0.0
C268 C 0.72829 0.07072 0.83794 0.0
C269 C 0.74947 0.1086 0.8646 0.0
N270 N 0.70152 0.17589 0.90646 0.0
N271 N 0.61181 0.01677 0.80939 0.0
C272 C 0.67951 0.13937 0.88092 0.0
C273 C 0.63499 0.05901 0.83048 0.0
N274 N 0.51969 0.16539 0.88202 0.0
N275 N 0.79741 0.04637 0.81963 0.0
H276 H 0.54438 0.00778 0.80274 0.0
H277 H 0.65857 0.98884 0.80002 0.0
H278 H 0.86627 0.05208 0.82569 0.0
H279 H 0.78715 0.02318 0.79712 0.0
H280 H 0.53119 0.19981 0.89675 0.0
H281 H 0.45156 0.16117 0.87443 0.0
H282 H 0.65383 0.19457 0.92275 0.0
H283 H 0.76864 0.18612 0.91263 0.0
C284 C 0.25785 0.06281 0.64185 0.0
C285 C 0.25762 0.11556 0.62851 0.0
C286 C 0.41328 0.12837 0.64887 0.0
C287 C 0.4204 0.07241 0.65317 0.0
N288 N 0.35006 0.98645 0.65786 0.0
N289 N 0.33348 0.19957 0.61924 0.0
C290 C 0.34214 0.03974 0.65161 0.0
C291 C 0.33416 0.14921 0.63271 0.0
N292 N 0.1777 0.03519 0.64504 0.0
N293 N 0.48249 0.16126 0.65946 0.0
H294 H 0.2761 0.2161 0.60733 0.0
H295 H 0.39153 0.22349 0.6176 0.0
H296 H 0.53992 0.14759 0.67272 0.0
H297 H 0.47792 0.20262 0.65904 0.0
H298 H 0.17296 0.99797 0.65684 0.0
H299 H 0.11442 0.05168 0.63872 0.0
H300 H 0.29814 0.959 0.65304 0.0
H301 H 0.41093 0.96972 0.66691 0.0
C302 C 0.08757 0.38789 0.12411 0.0
C303 C 0.0627 0.4422 0.12502 0.0
C304 C 0.22329 0.46779 0.11712 0.0
C305 C 0.24515 0.41377 0.1104 0.0
N306 N 0.19503 0.32271 0.10204 0.0
N307 N 0.10469 0.53493 0.12114 0.0
C308 C 0.17665 0.37372 0.11269 0.0
C309 C 0.13005 0.48257 0.12123 0.0
N310 N 0.02626 0.34994 0.13435 0.0
N311 N 0.29173 0.50444 0.12088 0.0
H312 H 0.0378 0.54734 0.12609 0.0
H313 H 0.1489 0.56581 0.11444 0.0
H314 H 0.36074 0.49441 0.11878 0.0
H315 H 0.28073 0.54356 0.12905 0.0
H316 H 0.04319 0.30992 0.1372 0.0
H317 H 0.96118 0.35952 0.14368 0.0
H318 H 0.14485 0.29347 0.09962 0.0
H319 H 0.25847 0.3107 0.09225 0.0
C320 C 0.22282 0.65203 0.63566 0.0
C321 C 0.29398 0.61345 0.63395 0.0
C322 C 0.17978 0.54167 0.6343 0.0
C323 C 0.10875 0.58012 0.63616 0.0
N324 N 0.06237 0.67077 0.64681 0.0
N325 N 0.34139 0.52288 0.64206 0.0
C326 C 0.13032 0.63497 0.63961 0.0
C327 C 0.27267 0.55857 0.63638 0.0
N328 N 0.24278 0.70485 0.63165 0.0
N329 N 0.15858 0.48903 0.62995 0.0
H330 H 0.4095 0.53464 0.64476 0.0
H331 H 0.33026 0.48278 0.64742 0.0
H332 H 0.09152 0.47484 0.62982 0.0
H333 H 0.2071 0.45989 0.62426 0.0
H334 H 0.19332 0.73402 0.6279 0.0
H335 H 0.30918 0.71953 0.62963 0.0
H336 H 0.07444 0.71044 0.65343 0.0
H337 H 0.9938 0.65986 0.64898 0.0
C338 C 0.32346 0.98649 0.12839 0.0
C339 C 0.39322 0.94719 0.12959 0.0
C340 C 0.27987 0.87745 0.11743 0.0
C341 C 0.20944 0.91644 0.11771 0.0
N342 N 0.16085 0.00595 0.13054 0.0
N343 N 0.43625 0.85477 0.13235 0.0
C344 C 0.23031 0.97044 0.12524 0.0
C345 C 0.37073 0.89245 0.12656 0.0
N346 N 0.34647 0.03923 0.12968 0.0
N347 N 0.26108 0.82665 0.10643 0.0
H348 H 0.50412 0.86426 0.13796 0.0
H349 H 0.42206 0.81425 0.13429 0.0
H350 H 0.19587 0.81402 0.09912 0.0
H351 H 0.31126 0.79814 0.1016 0.0
H352 H 0.3005 0.06983 0.12459 0.0
H353 H 0.41318 0.05247 0.13394 0.0
H354 H 0.17077 0.04473 0.1396 0.0
H355 H 0.09208 0.99524 0.12869 0.0
C356 C 0.71591 0.80928 0.3481 0.0
C357 C 0.78773 0.84749 0.34714 0.0
C358 C 0.6748 0.91964 0.34385 0.0
C359 C 0.60315 0.88137 0.34381 0.0
N360 N 0.55505 0.78988 0.33873 0.0
N361 N 0.83716 0.9372 0.33622 0.0
C362 C 0.62371 0.82618 0.34347 0.0
C363 C 0.7675 0.90221 0.34263 0.0
N364 N 0.73513 0.75727 0.35553 0.0
N365 N 0.65423 0.97267 0.34576 0.0
H366 H 0.90535 0.92522 0.33454 0.0
H367 H 0.8271 0.97685 0.32942 0.0
H368 H 0.58737 0.98704 0.34525 0.0
H369 H 0.70288 0.00226 0.35009 0.0
H370 H 0.68525 0.72887 0.361 0.0
H371 H 0.80143 0.743 0.35877 0.0
H372 H 0.56645 0.74944 0.33444 0.0
H373 H 0.48657 0.80074 0.3363 0.0
C374 C 0.80724 0.57308 0.82792 0.0
C375 C 0.87886 0.60111 0.8453 0.0
C376 C 0.76603 0.65293 0.87897 0.0
C377 C 0.69413 0.62654 0.86082 0.0
N378 N 0.6448 0.5672 0.8145 0.0
N379 N 0.92625 0.6764 0.88014 0.0
C380 C 0.71437 0.58861 0.83395 0.0
C381 C 0.85796 0.64358 0.86867 0.0
N382 N 0.82768 0.53005 0.80713 0.0
N383 N 0.74699 0.68606 0.90681 0.0
H384 H 0.99471 0.67041 0.87353 0.0
H385 H 0.91376 0.71258 0.89274 0.0
H386 H 0.68085 0.69554 0.91489 0.0
H387 H 0.79695 0.70099 0.92372 0.0
H388 H 0.7787 0.50432 0.79677 0.0
H389 H 0.89457 0.51803 0.8019 0.0
H390 H 0.65498 0.54369 0.79212 0.0
H391 H 0.57622 0.57566 0.81959 0.0
C392 C 0.53228 0.47998 0.23842 0.0
C393 C 0.52807 0.44257 0.21017 0.0
C394 C 0.43072 0.38633 0.24617 0.0
C395 C 0.45828 0.4151 0.27625 0.0
N396 N 0.53099 0.49211 0.30196 0.0
N397 N 0.4748 0.35665 0.18876 0.0
C398 C 0.50642 0.46349 0.27272 0.0
C399 C 0.47571 0.39535 0.21403 0.0
N400 N 0.56105 0.53078 0.23225 0.0
N401 N 0.3617 0.35022 0.24842 0.0
H402 H 0.50632 0.36081 0.16457 0.0
H403 H 0.44781 0.31874 0.19292 0.0
H404 H 0.32569 0.34546 0.27175 0.0
H405 H 0.33357 0.33094 0.22654 0.0
H406 H 0.55941 0.56079 0.25134 0.0
H407 H 0.57684 0.54387 0.20687 0.0
H408 H 0.57515 0.52465 0.30104 0.0
H409 H 0.51006 0.48171 0.32737 0.0
C410 C 0.94842 0.11461 0.76145 0.0
C411 C 0.0207 0.07937 0.76874 0.0
C412 C 0.98141 0.02456 0.71773 0.0
C413 C 0.9186 0.06426 0.70843 0.0
N414 N 0.80229 0.12077 0.73276 0.0
N415 N 0.07908 0.98951 0.76363 0.0
C416 C 0.8882 0.10059 0.73425 0.0
C417 C 0.02804 0.03007 0.7502 0.0
N418 N 0.94047 0.16238 0.77841 0.0
N419 N 0.00022 0.98434 0.69452 0.0
H420 H 0.11013 0.99223 0.78835 0.0
H421 H 0.08271 0.95182 0.75212 0.0
H422 H 0.9634 0.97976 0.6711 0.0
H423 H 0.0526 0.95688 0.6981 0.0
H424 H 0.89191 0.1907 0.7713 0.0
H425 H 0.98685 0.17509 0.79748 0.0
H426 H 0.77554 0.14582 0.75227 0.0
H427 H 0.75548 0.10598 0.71459 0.0
C428 C 0.56321 0.63807 0.73776 0.0
C429 C 0.57708 0.58853 0.72088 0.0
C430 C 0.45086 0.54937 0.75361 0.0
C431 C 0.42953 0.60077 0.76701 0.0
N432 N 0.4555 0.69542 0.76755 0.0
N433 N 0.52893 0.4984 0.70841 0.0
C434 C 0.48326 0.64559 0.75807 0.0
C435 C 0.51946 0.54445 0.72753 0.0
N436 N 0.62714 0.67744 0.73478 0.0
N437 N 0.40865 0.5051 0.76689 0.0
H438 H 0.58058 0.49262 0.68972 0.0
H439 H 0.48152 0.46745 0.70922 0.0
H440 H 0.35906 0.50662 0.78671 0.0
H441 H 0.42887 0.46643 0.76064 0.0
H442 H 0.62478 0.71278 0.74927 0.0
H443 H 0.68722 0.67231 0.72031 0.0
H444 H 0.4873 0.73019 0.75902 0.0
H445 H 0.39439 0.70173 0.78086 0.0
C446 C 0.92228 0.87654 0.23251 0.0
C447 C 0.92598 0.92508 0.2137 0.0
C448 C 0.0608 0.95186 0.2466 0.0
C449 C 0.06695 0.8994 0.26033 0.0
N450 N 0.01047 0.8092 0.2623 0.0
N451 N 0.0027 0.00778 0.20018 0.0
C452 C -0.00061 0.86091 0.25229 0.0
C453 C -0.00308 0.96225 0.2197 0.0
N454 N 0.84502 0.846 0.2321 0.0
N455 N 0.11094 0.99262 0.26089 0.0
H456 H 0.95367 0.01876 0.18165 0.0
H457 H 0.05947 0.03287 0.20084 0.0
H458 H 0.15337 0.98813 0.28273 0.0
H459 H 0.10205 0.03232 0.25385 0.0
H460 H 0.8364 0.81264 0.24802 0.0
H461 H 0.78609 0.85715 0.21865 0.0
H462 H 0.96704 0.77861 0.25418 0.0
H463 H 0.06798 0.79616 0.2759 0.0
C464 C 0.5625 0.13838 0.51299 0.0
C465 C 0.64289 0.11317 0.49962 0.0
C466 C 0.60042 0.13701 0.43948 0.0
C467 C 0.5306 0.17005 0.45361 0.0
N468 N 0.42229 0.18637 0.49968 0.0
N469 N 0.74069 0.0886 0.45104 0.0
C470 C 0.50393 0.16502 0.4892 0.0
C471 C 0.66199 0.11181 0.463 0.0
N472 N 0.54534 0.1394 0.54858 0.0
N473 N 0.60554 0.12834 0.4039 0.0
H474 H 0.78765 0.07087 0.46797 0.0
H475 H 0.76307 0.09059 0.42496 0.0
H476 H 0.55547 0.14169 0.38659 0.0
H477 H 0.65144 0.10201 0.39213 0.0
H478 H 0.49287 0.16109 0.56036 0.0
H479 H 0.58692 0.12088 0.56712 0.0
H480 H 0.39389 0.18185 0.5247 0.0
H481 H 0.37897 0.2051 0.48172 0.0
C482 C 0.87103 0.3715 0.98664 0.0
C483 C 0.79706 0.35532 0.00808 0.0
C484 C 0.81953 0.26249 -0.0084 0.0
C485 C 0.89432 0.27805 0.97008 0.0
N486 N 0.00706 0.34435 0.95453 0.0
N487 N 0.72621 0.28505 0.04181 0.0
C488 C 0.9251 0.3318 0.96982 0.0
C489 C 0.77952 0.30063 0.01406 0.0
N490 N 0.88848 0.42441 0.98202 0.0
N491 N 0.78267 0.21247 -0.01065 0.0
H492 H 0.70153 0.31192 0.06047 0.0
H493 H 0.71747 0.24539 0.04906 0.0
H494 H 0.80749 0.18247 0.97291 0.0
H495 H 0.72119 0.2021 0.00148 0.0
H496 H 0.93477 0.43894 0.96348 0.0
H497 H 0.85341 0.45396 -0.00404 0.0
H498 H 0.03671 0.38199 0.95606 0.0
H499 H 0.04982 0.31573 0.94319 0.0
C500 C 0.13693 0.30711 0.53935 0.0
C501 C 0.05515 0.28381 0.52591 0.0
C502 C 0.08545 0.3195 0.46761 0.0
C503 C 0.16892 0.34124 0.48058 0.0
N504 N 0.2652 0.36669 0.52918 0.0
N505 N 0.9382 0.28036 0.48188 0.0
C506 C 0.19158 0.33885 0.51672 0.0
C507 C 0.02485 0.29463 0.49149 0.0
N508 N 0.16553 0.29595 0.57284 0.0
N509 N 0.06611 0.32058 0.43226 0.0
H510 H 0.89315 0.26222 0.49959 0.0
H511 H 0.90824 0.29094 0.45802 0.0
H512 H 0.10858 0.33833 0.41358 0.0
H513 H 0.01126 0.30047 0.42087 0.0
H514 H 0.22995 0.30588 0.58244 0.0
H515 H 0.12618 0.27498 0.591 0.0
H516 H 0.27938 0.3718 0.55591 0.0
H517 H 0.30935 0.38769 0.51265 0.0
C518 C 0.31813 0.25038 -0.00826 0.0
C519 C 0.39552 0.23467 0.01143 0.0
C520 C 0.37453 0.1425 -0.00891 0.0
C521 C 0.30246 0.16006 0.96928 0.0
N522 N 0.2314 0.23372 0.93918 0.0
N523 N 0.50938 0.1679 0.02442 0.0
C524 C 0.28264 0.21502 0.96646 0.0
C525 C 0.42755 0.18119 0.00961 0.0
N526 N 0.27475 0.29762 -0.00159 0.0
N527 N 0.39113 0.08932 -0.00551 0.0
H528 H 0.55111 0.19564 0.03717 0.0
H529 H 0.53962 0.13066 0.02125 0.0
H530 H 0.35506 0.06061 0.98015 0.0
H531 H 0.43664 0.07381 0.01285 0.0
H532 H 0.21314 0.30791 0.98647 0.0
H533 H 0.29335 0.32343 0.01882 0.0
H534 H 0.22034 0.27418 0.93491 0.0
H535 H 0.21176 0.20944 0.91822 0.0
C536 C 0.39572 0.85364 0.48844 0.0
C537 C 0.32266 0.82308 0.47396 0.0
C538 C 0.33728 0.75878 0.521 0.0
C539 C 0.41754 0.78417 0.53276 0.0
N540 N 0.52996 0.85345 0.52642 0.0
N541 N 0.25308 0.73611 0.46922 0.0
C542 C 0.44883 0.83135 0.51631 0.0
C543 C 0.30164 0.7727 0.48819 0.0
N544 N 0.41377 0.90341 0.47606 0.0
N545 N 0.29688 0.71972 0.54061 0.0
H546 H 0.22972 0.74303 0.44364 0.0
H547 H 0.24886 0.69656 0.47722 0.0
H548 H 0.3219 0.7083 0.56519 0.0
H549 H 0.23409 0.70283 0.53384 0.0
H550 H 0.45997 0.92941 0.48798 0.0
H551 H 0.37862 0.91972 0.45491 0.0
H552 H 0.56138 0.8846 0.51297 0.0
H553 H 0.56787 0.83856 0.54747 0.0
C554 C 0.10476 0.69204 0.0355 0.0
C555 C 0.04194 0.73055 0.02252 0.0
C556 C 0.07952 0.70426 0.96212 0.0
C557 C 0.13707 0.66311 0.97488 0.0
N558 N 0.18035 0.60814 0.02385 0.0
N559 N 0.94416 0.7561 0.9742 0.0
C560 C 0.14067 0.6535 0.01169 0.0
C561 C 0.02036 0.73054 0.98607 0.0
N562 N 0.13683 0.69427 0.06934 0.0
N563 N 0.08683 0.72251 0.92835 0.0
H564 H 0.89556 0.77246 -0.00868 0.0
H565 H 0.92448 0.75545 0.94779 0.0
H566 H 0.13353 0.70803 0.90992 0.0
H567 H 0.05284 0.75664 0.92005 0.0
H568 H 0.18929 0.66981 0.0783 0.0
H569 H 0.11951 0.72374 0.0875 0.0
H570 H 0.17841 0.5969 0.0503 0.0
H571 H 0.20572 0.57931 0.00663 0.0
C572 C 0.85444 0.64907 0.43673 0.0
C573 C 0.94296 0.6666 0.44479 0.0
C574 C 0.92177 0.64631 0.50709 0.0
C575 C 0.82756 0.63372 0.50059 0.0
N576 N 0.70407 0.62729 0.45663 0.0
N577 N 0.07293 0.65659 0.48153 0.0
C578 C 0.79426 0.63508 0.46462 0.0
C579 C 0.98033 0.65649 0.47808 0.0
N580 N 0.82885 0.64359 0.40218 0.0
N581 N 0.95397 0.65568 0.54046 0.0
H582 H 0.11476 0.66173 0.45944 0.0
H583 H 0.10656 0.64456 0.50435 0.0
H584 H 0.9136 0.65798 0.56295 0.0
H585 H 0.02 0.66926 0.5455 0.0
H586 H 0.76917 0.62448 0.39413 0.0
H587 H 0.87229 0.65201 0.38113 0.0
H588 H 0.67452 0.64054 0.43328 0.0
H589 H 0.65612 0.60927 0.4727 0.0
C590 C 0.5178 0.82119 -0.00501 0.0
C591 C 0.5525 0.80713 0.96122 0.0
C592 C 0.66759 0.87739 0.96718 0.0
C593 C 0.64837 0.88226 0.00372 0.0
N594 N 0.54811 0.85739 0.05275 0.0
N595 N 0.67085 0.81856 0.91686 0.0
C596 C 0.57072 0.85449 0.01778 0.0
C597 C 0.62959 0.83473 0.94753 0.0
N598 N 0.43253 0.80449 0.00489 0.0
N599 N 0.72244 0.91397 0.95114 0.0
H600 H 0.64894 0.78618 0.90187 0.0
H601 H 0.73308 0.83408 0.90821 0.0
H602 H 0.74825 0.94674 0.96484 0.0
H603 H 0.73247 0.9151 0.92389 0.0
H604 H 0.39937 0.81825 0.02756 0.0
H605 H 0.39074 0.78146 0.98856 0.0
H606 H 0.50361 0.8304 0.06461 0.0
H607 H 0.57405 0.88497 0.07053 0.0
C608 C 0.23749 0.12916 0.34607 0.0
C609 C 0.32424 0.10762 0.33663 0.0
C610 C 0.37074 0.19473 0.31359 0.0
C611 C 0.28961 0.21774 0.32752 0.0
N612 N 0.14723 0.20811 0.35883 0.0
N613 N 0.4757 0.11975 0.31306 0.0
C614 C 0.22279 0.18514 0.34388 0.0
C615 C 0.39129 0.1403 0.32052 0.0
N616 N 0.16829 0.0959 0.35628 0.0
N617 N 0.42757 0.22525 0.29342 0.0
H618 H 0.49262 0.08009 0.3178 0.0
H619 H 0.531 0.14259 0.30471 0.0
H620 H 0.41224 0.26465 0.28743 0.0
H621 H 0.48449 0.21061 0.28003 0.0
H622 H 0.10099 0.10833 0.35976 0.0
H623 H 0.17623 0.0548 0.3586 0.0
H624 H 0.10189 0.18786 0.37522 0.0
H625 H 0.13228 0.2485 0.35625 0.0
C626 C 0.27381 0.30264 0.84427 0.0
C627 C 0.22572 0.27199 0.81903 0.0
C628 C 0.14888 0.35177 0.79733 0.0
C629 C 0.18557 0.38129 0.82619 0.0
N630 N 0.31186 0.39052 0.86688 0.0
N631 N 0.1548 0.26992 0.76244 0.0
C632 C 0.25743 0.35853 0.84654 0.0
C633 C 0.17865 0.29841 0.79174 0.0
N634 N 0.33062 0.27755 0.86728 0.0
N635 N 0.08131 0.37304 0.77697 0.0
H636 H 0.17358 0.22996 0.7597 0.0
H637 H 0.12434 0.28666 0.74029 0.0
H638 H 0.05459 0.41097 0.78128 0.0
H639 H 0.0467 0.35163 0.75754 0.0
H640 H 0.35892 0.29573 0.88948 0.0
H641 H 0.34794 0.23756 0.86405 0.0
H642 H 0.36926 0.377 0.88028 0.0
H643 H 0.30525 0.43183 0.86745 0.0
C644 C 0.73264 0.33669 0.62613 0.0
C645 C 0.81604 0.35659 0.64041 0.0
C646 C 0.84439 0.26945 0.66738 0.0
C647 C 0.76877 0.24773 0.6488 0.0
N648 N 0.64269 0.25946 0.60899 0.0
N649 N 0.95445 0.34155 0.67307 0.0
C650 C 0.71295 0.28119 0.62798 0.0
C651 C 0.87244 0.32293 0.66091 0.0
N652 N 0.67046 0.37113 0.61201 0.0
N653 N 0.88871 0.23874 0.69146 0.0
H654 H 0.977 0.38037 0.66864 0.0
H655 H 0.00324 0.31766 0.68511 0.0
H656 H 0.86726 0.20021 0.69701 0.0
H657 H 0.93973 0.25277 0.70822 0.0
H658 H 0.60468 0.3599 0.60462 0.0
H659 H 0.68138 0.41207 0.61049 0.0
H660 H 0.60685 0.28003 0.58967 0.0
H661 H 0.62312 0.21966 0.61146 0.0
C662 C 0.776 0.18529 0.131 0.0
C663 C 0.7031 0.16292 0.15114 0.0
C664 C 0.70284 0.24355 0.1876 0.0
C665 C 0.74558 0.27067 0.15962 0.0
N666 N 0.84697 0.26672 0.10999 0.0
N667 N 0.60131 0.17044 0.20158 0.0
C668 C 0.79334 0.24081 0.13388 0.0
C669 C 0.66947 0.19126 0.18115 0.0
N670 N 0.82956 0.15352 0.11011 0.0
N671 N 0.68292 0.2711 0.21771 0.0
H672 H 0.57083 0.13371 0.19638 0.0
H673 H 0.5697 0.19156 0.22195 0.0
H674 H 0.70263 0.31092 0.22056 0.0
H675 H 0.65446 0.25359 0.24008 0.0
H676 H 0.88739 0.16716 0.09685 0.0
H677 H 0.82208 0.11227 0.10905 0.0
H678 H 0.87563 0.24865 0.08777 0.0
H679 H 0.85896 0.30752 0.112 0.0
C680 C 0.78157 0.79994 0.68919 0.0
C681 C 0.80875 0.76714 0.6608 0.0
C682 C 0.8314 0.84708 0.62499 0.0
C683 C 0.7747 0.87608 0.64903 0.0
N684 N 0.69607 0.8784 0.70567 0.0
N685 N 0.88959 0.76057 0.60598 0.0
C686 C 0.7521 0.85277 0.68221 0.0
C687 C 0.84569 0.79149 0.63038 0.0
N688 N 0.77752 0.77851 0.72208 0.0
N689 N 0.8722 0.87289 0.59749 0.0
H690 H 0.90765 0.72139 0.61149 0.0
H691 H 0.9082 0.77318 0.58084 0.0
H692 H 0.86707 0.91391 0.59414 0.0
H693 H 0.91705 0.85488 0.57977 0.0
H694 H 0.76283 0.80067 0.74473 0.0
H695 H 0.79899 0.73944 0.72642 0.0
H696 H 0.67137 0.86054 0.72856 0.0
H697 H 0.66698 0.91546 0.70099 0.0
C698 C 0.78641 0.69806 0.10085 0.0
C699 C 0.76912 0.66145 0.12866 0.0
C700 C 0.70284 0.73331 0.16432 0.0
C701 C 0.72332 0.7693 0.13717 0.0
N702 N 0.74069 0.78157 0.07455 0.0
N703 N 0.66206 0.64268 0.17651 0.0
C704 C 0.74876 0.74982 0.10343 0.0
C705 C 0.71261 0.67828 0.15756 0.0
N706 N 0.84211 0.68506 0.0731 0.0
N707 N 0.67486 0.75168 0.19653 0.0
H708 H 0.65358 0.60323 0.16858 0.0
H709 H 0.61688 0.65429 0.19646 0.0
H710 H 0.66168 0.79198 0.20114 0.0
H711 H 0.66851 0.72705 0.21849 0.0
H712 H 0.85258 0.70967 0.05147 0.0
H713 H 0.88688 0.65289 0.0734 0.0
H714 H 0.75236 0.76838 0.0488 0.0
H715 H 0.71126 0.81916 0.07623 0.0
C716 C 0.29385 0.62939 0.3679 0.0
C717 C 0.29192 0.58991 0.34037 0.0
C718 C 0.3056 0.66306 0.29745 0.0
C719 C 0.30832 0.70059 0.32539 0.0
N720 N 0.35811 0.71431 0.38522 0.0
N721 N 0.33876 0.5726 0.27953 0.0
C722 C 0.32376 0.6815 0.35974 0.0
C723 C 0.31159 0.60754 0.30518 0.0
N724 N 0.2579 0.62053 0.40069 0.0
N725 N 0.2943 0.68049 0.26374 0.0
H726 H 0.35435 0.53302 0.28468 0.0
H727 H 0.35842 0.58482 0.25436 0.0
H728 H 0.29364 0.72107 0.25781 0.0
H729 H 0.28191 0.65484 0.24254 0.0
H730 H 0.25712 0.64987 0.42022 0.0
H731 H 0.21428 0.58919 0.40673 0.0
H732 H 0.37374 0.70067 0.41048 0.0
H733 H 0.38155 0.75255 0.37954 0.0
C734 C 0.25098 0.79795 0.78241 0.0
C735 C 0.20047 0.77225 0.80897 0.0
C736 C 0.17325 0.85769 0.83752 0.0
C737 C 0.252 0.87783 0.81947 0.0
N738 N 0.35869 0.86901 0.77064 0.0
N739 N 0.07247 0.78106 0.84699 0.0
C740 C 0.28723 0.84928 0.78982 0.0
C741 C 0.14661 0.80384 0.83139 0.0
N742 N 0.27171 0.77033 0.75244 0.0
N743 N 0.12455 0.88991 0.85984 0.0
H744 H 0.05491 0.7417 0.8411 0.0
H745 H 0.02684 0.80094 0.86349 0.0
H746 H 0.1369 0.93066 0.86211 0.0
H747 H 0.0701 0.87704 0.87531 0.0
H748 H 0.30555 0.78701 0.73092 0.0
H749 H 0.24776 0.73145 0.74881 0.0
H750 H 0.39129 0.84752 0.75068 0.0
H751 H 0.38982 0.9054 0.77634 0.0
C752 C 0.59795 0.5121 0.49228 0.0
C753 C 0.56301 0.50761 0.52753 0.0
C754 C 0.40769 0.49924 0.50336 0.0
C755 C 0.44552 0.49606 0.46932 0.0
N756 N 0.56241 0.52396 0.42996 0.0
N757 N 0.43349 0.49502 0.56651 0.0
C758 C 0.53575 0.51245 0.46363 0.0
C759 C 0.46688 0.50224 0.53314 0.0
N760 N 0.68982 0.51361 0.48557 0.0
N761 N 0.31496 0.4973 0.50651 0.0
H762 H 0.47531 0.49333 0.58871 0.0
H763 H 0.36537 0.48657 0.57208 0.0
H764 H 0.27372 0.49463 0.48408 0.0
H765 H 0.2796 0.50235 0.53018 0.0
H766 H 0.71735 0.50779 0.46044 0.0
H767 H 0.73982 0.52034 0.50445 0.0
H768 H 0.62676 0.53859 0.42328 0.0
H769 H 0.51574 0.52261 0.40912 0.0
C770 C 0.02571 0.02352 0.02286 0.0
C771 C 0.92998 0.02741 0.01836 0.0
C772 C 0.94711 0.00713 0.95532 0.0
C773 C 0.04304 0.00312 0.95945 0.0
N774 N 0.17315 0.99818 -0.00072 0.0
N775 N 0.80668 0.04511 0.97739 0.0
C776 C 0.08258 0.00869 -0.0062 0.0
C777 C 0.89223 0.02564 0.9838 0.0
N778 N 0.06235 0.0379 0.05472 0.0
N779 N 0.90859 0.99252 0.92385 0.0
H780 H 0.76778 0.06548 -0.00399 0.0
H781 H 0.7791 0.04833 0.95218 0.0
H782 H 0.94697 0.97643 0.9031 0.0
H783 H 0.83851 0.99166 0.9193 0.0
H784 H 0.13198 0.04251 0.05932 0.0
H785 H 0.02199 0.05124 0.07575 0.0
H786 H 0.2026 0.99576 0.0242 0.0
H787 H 0.2188 0.98625 0.97984 0.0
C788 C 0.03053 0.94146 0.51787 0.0
C789 C 0.94171 0.96124 0.51375 0.0
C790 C 0.96059 0.9604 0.44953 0.0
C791 C 0.0568 0.95342 0.45411 0.0
N792 N 0.18344 0.93793 0.49468 0.0
N793 N 0.80986 0.96499 0.47768 0.0
C794 C 0.09179 0.94287 0.48876 0.0
C795 C 0.90257 0.96149 0.47994 0.0
N796 N 0.05823 0.92729 0.55086 0.0
N797 N 0.92603 0.97013 0.41669 0.0
H798 H 0.76973 0.96647 0.50055 0.0
H799 H 0.7733 0.96266 0.4542 0.0
H800 H 0.96682 0.97263 0.39414 0.0
H801 H 0.85783 0.97907 0.41185 0.0
H802 H 0.11914 0.90743 0.55604 0.0
H803 H 0.01548 0.93229 0.57272 0.0
H804 H 0.21244 0.93625 0.51971 0.0
H805 H 0.23278 0.93914 0.47512 0.0
C806 C 0.56943 0.50792 0.97488 0.0
C807 C 0.53488 0.51767 0.00971 0.0
C808 C 0.37966 0.50763 0.98786 0.0
C809 C 0.41238 0.50801 0.95248 0.0
N810 N 0.53948 0.50725 0.91192 0.0
N811 N 0.40509 0.53453 0.04774 0.0
C812 C 0.50779 0.50792 0.94594 0.0
C813 C 0.43959 0.52052 0.01544 0.0
N814 N 0.65918 0.49518 0.96931 0.0
N815 N 0.29251 0.49428 -0.00315 0.0
H816 H 0.44631 0.54717 0.06863 0.0
H817 H 0.33492 0.53714 0.05254 0.0
H818 H 0.24327 0.47974 0.9795 0.0
H819 H 0.24327 0.47974 0.9795 0.0
H820 H 0.68426 0.48111 0.94526 0.0
H821 H 0.7082 0.49385 -0.01101 0.0
H822 H 0.60727 0.51494 0.90514 0.0
H823 H 0.49671 0.50103 0.89026 0.0
loop_
_geom_bond_atom_site_label_1
_geom_bond_atom_site_label_2
_geom_bond_distance
_geom_bond_site_symmetry_2
_ccdc_geom_bond_type
C0 O27 1.312 . S
C0 O28 1.208 . S
C1 O22 1.331 . S
C1 O25 1.244 . S
C2 O24 1.264 . S
C2 O26 1.273 . S
Mg3 O5 1.936 . S
Mg3 O12 2.081 . S
Mg3 O14 2.023 . S
Mg3 O18 2.031 . S
Mg3 O27 2.291 . S
Mg4 O5 1.963 . S
Mg4 O15 1.942 . S
Mg4 O16 1.955 . S
Mg4 O23 1.986 . S
O5 Mg3 1.936 . S
O5 Mg4 1.963 . S
O5 Mg6 1.915 . S
Mg6 O5 1.915 . S
Mg6 O7 1.915 . S
Mg6 O11 2.013 . S
Mg6 O17 2.114 . S
Mg6 O21 2.013 . S
Mg6 O27 2.114 . S
O7 Mg6 1.915 . S
O7 Mg8 1.936 . S
O7 Mg9 1.963 . S
Mg8 O7 1.936 . S
Mg8 O17 2.291 . S
Mg8 O22 2.081 . S
Mg8 O24 2.023 . S
Mg8 O28 2.031 . S
Mg9 O7 1.963 . S
Mg9 O13 1.986 . S
Mg9 O25 1.942 . S
Mg9 O26 1.955 . S
C10 O21 1.191 . S
C10 O23 1.307 . S
O11 Mg6 2.013 . S
O11 C30 1.191 . S
O12 Mg3 2.081 . S
O12 C20 1.331 . S
O13 Mg9 1.986 . S
O13 C30 1.307 . S
O14 Mg3 2.023 . S
O14 C29 1.264 . S
O15 Mg4 1.942 . S
O15 C20 1.244 . S
O16 Mg4 1.955 . S
O16 C29 1.273 . S
O17 Mg6 2.114 . S
O17 Mg8 2.291 . S
O17 C19 1.312 . S
O18 Mg3 2.031 . S
O18 C19 1.208 . S
C19 O17 1.312 . S
C19 O18 1.208 . S
C20 O12 1.331 . S
C20 O15 1.244 . S
O21 Mg6 2.013 . S
O21 C10 1.191 . S
O22 C1 1.331 . S
O22 Mg8 2.081 . S
O23 Mg4 1.986 . S
O23 C10 1.307 . S
O24 C2 1.264 . S
O24 Mg8 2.023 . S
O25 C1 1.244 . S
O25 Mg9 1.942 . S
O26 C2 1.273 . S
O26 Mg9 1.955 . S
O27 C0 1.312 . S
O27 Mg3 2.291 . S
O27 Mg6 2.114 . S
O28 C0 1.208 . S
O28 Mg8 2.031 . S
C29 O14 1.264 . S
C29 O16 1.273 . S
C30 O11 1.191 . S
C30 O13 1.307 . S
C31 O58 1.312 . S
C31 O59 1.208 . S
C32 O53 1.331 . S
C32 O56 1.244 1_565 S
C33 O55 1.264 . S
C33 O57 1.273 . S
Mg34 O36 1.936 1_655 S
Mg34 O43 2.081 . S
Mg34 O45 2.023 . S
Mg34 O49 2.031 1_655 S
Mg34 O58 2.291 1_655 S
Mg35 O36 1.963 1_655 S
Mg35 O46 1.942 . S
Mg35 O47 1.955 . S
Mg35 O54 1.986 1_655 S
O36 Mg34 1.936 1_455 S
O36 Mg35 1.963 1_455 S
O36 Mg37 1.915 . S
Mg37 O36 1.915 . S
Mg37 O38 1.915 . S
Mg37 O42 2.013 . S
Mg37 O48 2.114 . S
Mg37 O52 2.013 . S
Mg37 O58 2.114 . S
O38 Mg37 1.915 . S
O38 Mg39 1.936 . S
O38 Mg40 1.963 . S
Mg39 O38 1.936 . S
Mg39 O48 2.291 . S
Mg39 O53 2.081 1_545 S
Mg39 O55 2.023 . S
Mg39 O59 2.031 . S
Mg40 O38 1.963 . S
Mg40 O44 1.986 . S
Mg40 O56 1.942 . S
Mg40 O57 1.955 . S
C41 O52 1.191 . S
C41 O54 1.307 . S
O42 Mg37 2.013 . S
O42 C61 1.191 . S
O43 Mg34 2.081 . S
O43 C51 1.331 . S
O44 Mg40 1.986 . S
O44 C61 1.307 . S
O45 Mg34 2.023 . S
O45 C60 1.264 . S
O46 Mg35 1.942 . S
O46 C51 1.244 . S
O47 Mg35 1.955 . S
O47 C60 1.273 . S
O48 Mg37 2.114 . S
O48 Mg39 2.291 . S
O48 C50 1.312 . S
O49 Mg34 2.031 1_455 S
O49 C50 1.208 . S
C50 O48 1.312 . S
C50 O49 1.208 . S
C51 O43 1.331 . S
C51 O46 1.244 . S
O52 Mg37 2.013 . S
O52 C41 1.191 . S
O53 C32 1.331 . S
O53 Mg39 2.081 1_565 S
O54 Mg35 1.986 1_455 S
O54 C41 1.307 . S
O55 C33 1.264 . S
O55 Mg39 2.023 . S
O56 C32 1.244 1_545 S
O56 Mg40 1.942 . S
O57 C33 1.273 . S
O57 Mg40 1.955 . S
O58 C31 1.312 . S
O58 Mg34 2.291 1_455 S
O58 Mg37 2.114 . S
O59 C31 1.208 . S
O59 Mg39 2.031 . S
C60 O45 1.264 . S
C60 O47 1.273 . S
C61 O42 1.191 . S
C61 O44 1.307 . S
C62 O89 1.312 . S
C62 O90 1.208 . S
C63 O84 1.331 . S
C63 O87 1.244 . S
C64 O86 1.264 1_565 S
C64 O88 1.273 1_565 S
Mg65 O67 1.936 . S
Mg65 O74 2.081 . S
Mg65 O76 2.023 . S
Mg65 O80 2.031 . S
Mg65 O89 2.291 1_455 S
Mg66 O67 1.963 . S
Mg66 O77 1.942 . S
Mg66 O78 1.955 . S
Mg66 O85 1.986 . S
O67 Mg65 1.936 . S
O67 Mg66 1.963 . S
O67 Mg68 1.915 1_455 S
Mg68 O67 1.915 1_655 S
Mg68 O69 1.915 . S
Mg68 O73 2.013 . S
Mg68 O79 2.114 . S
Mg68 O83 2.013 . S
Mg68 O89 2.114 . S
O69 Mg68 1.915 . S
O69 Mg70 1.936 . S
O69 Mg71 1.963 . S
Mg70 O69 1.936 . S
Mg70 O79 2.291 . S
Mg70 O84 2.081 . S
Mg70 O86 2.023 . S
Mg70 O90 2.031 . S
Mg71 O69 1.963 . S
Mg71 O75 1.986 . S
Mg71 O87 1.942 . S
Mg71 O88 1.955 . S
C72 O83 1.191 . S
C72 O85 1.307 1_655 S
O73 Mg68 2.013 . S
O73 C92 1.191 . S
O74 Mg65 2.081 . S
O74 C82 1.331 . S
O75 Mg71 1.986 . S
O75 C92 1.307 . S
O76 Mg65 2.023 . S
O76 C91 1.264 . S
O77 Mg66 1.942 . S
O77 C82 1.244 . S
O78 Mg66 1.955 . S
O78 C91 1.273 . S
O79 Mg68 2.114 . S
O79 Mg70 2.291 . S
O79 C81 1.312 . S
O80 Mg65 2.031 . S
O80 C81 1.208 1_455 S
C81 O79 1.312 . S
C81 O80 1.208 1_655 S
C82 O74 1.331 . S
C82 O77 1.244 . S
O83 Mg68 2.013 . S
O83 C72 1.191 . S
O84 C63 1.331 . S
O84 Mg70 2.081 . S
O85 Mg66 1.986 . S
O85 C72 1.307 1_455 S
O86 C64 1.264 1_545 S
O86 Mg70 2.023 . S
O87 C63 1.244 . S
O87 Mg71 1.942 . S
O88 C64 1.273 1_545 S
O88 Mg71 1.955 . S
O89 C62 1.312 . S
O89 Mg65 2.291 1_655 S
O89 Mg68 2.114 . S
O90 C62 1.208 . S
O90 Mg70 2.031 . S
C91 O76 1.264 . S
C91 O78 1.273 . S
C92 O73 1.191 . S
C92 O75 1.307 . S
C93 O120 1.312 . S
C93 O121 1.208 . S
C94 O115 1.331 . S
C94 O118 1.244 . S
C95 O117 1.264 . S
C95 O119 1.273 . S
Mg96 O98 1.936 . S
Mg96 O105 2.081 . S
Mg96 O107 2.023 . S
Mg96 O111 2.031 . S
Mg96 O120 2.291 . S
Mg97 O98 1.963 . S
Mg97 O108 1.942 . S
Mg97 O109 1.955 . S
Mg97 O116 1.986 . S
O98 Mg96 1.936 . S
O98 Mg97 1.963 . S
O98 Mg99 1.915 . S
Mg99 O98 1.915 . S
Mg99 O100 1.915 . S
Mg99 O104 2.013 . S
Mg99 O110 2.114 . S
Mg99 O114 2.013 . S
Mg99 O120 2.114 . S
O100 Mg99 1.915 . S
O100 Mg101 1.936 . S
O100 Mg102 1.963 . S
Mg101 O100 1.936 . S
Mg101 O110 2.291 . S
Mg101 O115 2.081 . S
Mg101 O117 2.023 . S
Mg101 O121 2.031 . S
Mg102 O100 1.963 . S
Mg102 O106 1.986 . S
Mg102 O118 1.942 . S
Mg102 O119 1.955 . S
C103 O114 1.191 . S
C103 O116 1.307 . S
O104 Mg99 2.013 . S
O104 C123 1.191 . S
O105 Mg96 2.081 . S
O105 C113 1.331 . S
O106 Mg102 1.986 . S
O106 C123 1.307 . S
O107 Mg96 2.023 . S
O107 C122 1.264 . S
O108 Mg97 1.942 . S
O108 C113 1.244 . S
O109 Mg97 1.955 . S
O109 C122 1.273 . S
O110 Mg99 2.114 . S
O110 Mg101 2.291 . S
O110 C112 1.312 . S
O111 Mg96 2.031 . S
O111 C112 1.208 . S
C112 O110 1.312 . S
C112 O111 1.208 . S
C113 O105 1.331 . S
C113 O108 1.244 . S
O114 Mg99 2.013 . S
O114 C103 1.191 . S
O115 C94 1.331 . S
O115 Mg101 2.081 . S
O116 Mg97 1.986 . S
O116 C103 1.307 . S
O117 C95 1.264 . S
O117 Mg101 2.023 . S
O118 C94 1.244 . S
O118 Mg102 1.942 . S
O119 C95 1.273 . S
O119 Mg102 1.955 . S
O120 C93 1.312 . S
O120 Mg96 2.291 . S
O120 Mg99 2.114 . S
O121 C93 1.208 . S
O121 Mg101 2.031 . S
C122 O107 1.264 . S
C122 O109 1.273 . S
C123 O104 1.191 . S
C123 O106 1.307 . S
C124 O151 1.312 . S
C124 O152 1.208 . S
C125 O146 1.331 . S
C125 O149 1.244 . S
C126 O148 1.264 . S
C126 O150 1.273 . S
Mg127 O129 1.936 . S
Mg127 O136 2.081 . S
Mg127 O138 2.023 . S
Mg127 O142 2.031 . S
Mg127 O151 2.291 . S
Mg128 O129 1.963 . S
Mg128 O139 1.942 . S
Mg128 O140 1.955 . S
Mg128 O147 1.986 . S
O129 Mg127 1.936 . S
O129 Mg128 1.963 . S
O129 Mg130 1.915 . S
Mg130 O129 1.915 . S
Mg130 O131 1.915 . S
Mg130 O135 2.013 . S
Mg130 O141 2.114 . S
Mg130 O145 2.013 . S
Mg130 O151 2.114 . S
O131 Mg130 1.915 . S
O131 Mg132 1.936 . S
O131 Mg133 1.963 . S
Mg132 O131 1.936 . S
Mg132 O141 2.291 . S
Mg132 O146 2.081 . S
Mg132 O148 2.023 . S
Mg132 O152 2.031 . S
Mg133 O131 1.963 . S
Mg133 O137 1.986 . S
Mg133 O149 1.942 . S
Mg133 O150 1.955 . S
C134 O145 1.191 . S
C134 O147 1.307 . S
O135 Mg130 2.013 . S
O135 C154 1.191 . S
O136 Mg127 2.081 . S
O136 C144 1.331 . S
O137 Mg133 1.986 . S
O137 C154 1.307 . S
O138 Mg127 2.023 . S
O138 C153 1.264 . S
O139 Mg128 1.942 . S
O139 C144 1.244 . S
O140 Mg128 1.955 . S
O140 C153 1.273 . S
O141 Mg130 2.114 . S
O141 Mg132 2.291 . S
O141 C143 1.312 . S
O142 Mg127 2.031 . S
O142 C143 1.208 . S
C143 O141 1.312 . S
C143 O142 1.208 . S
C144 O136 1.331 . S
C144 O139 1.244 . S
O145 Mg130 2.013 . S
O145 C134 1.191 . S
O146 C125 1.331 . S
O146 Mg132 2.081 . S
O147 Mg128 1.986 . S
O147 C134 1.307 . S
O148 C126 1.264 . S
O148 Mg132 2.023 . S
O149 C125 1.244 . S
O149 Mg133 1.942 . S
O150 C126 1.273 . S
O150 Mg133 1.955 . S
O151 C124 1.312 . S
O151 Mg127 2.291 . S
O151 Mg130 2.114 . S
O152 C124 1.208 . S
O152 Mg132 2.031 . S
C153 O138 1.264 . S
C153 O140 1.273 . S
C154 O135 1.191 . S
C154 O137 1.307 . S
C155 O182 1.312 . S
C155 O183 1.208 . S
C156 O177 1.331 . S
C156 O180 1.244 . S
C157 O179 1.264 . S
C157 O181 1.273 . S
Mg158 O160 1.936 . S
Mg158 O167 2.081 1_565 S
Mg158 O169 2.023 . S
Mg158 O173 2.031 . S
Mg158 O182 2.291 . S
Mg159 O160 1.963 . S
Mg159 O170 1.942 . S
Mg159 O171 1.955 . S
Mg159 O178 1.986 . S
O160 Mg158 1.936 . S
O160 Mg159 1.963 . S
O160 Mg161 1.915 . S
Mg161 O160 1.915 . S
Mg161 O162 1.915 . S
Mg161 O166 2.013 . S
Mg161 O172 2.114 . S
Mg161 O176 2.013 . S
Mg161 O182 2.114 . S
O162 Mg161 1.915 . S
O162 Mg163 1.936 1_655 S
O162 Mg164 1.963 1_655 S
Mg163 O162 1.936 1_455 S
Mg163 O172 2.291 1_455 S
Mg163 O177 2.081 . S
Mg163 O179 2.023 . S
Mg163 O183 2.031 1_455 S
Mg164 O162 1.963 1_455 S
Mg164 O168 1.986 1_455 S
Mg164 O180 1.942 . S
Mg164 O181 1.955 . S
C165 O176 1.191 . S
C165 O178 1.307 . S
O166 Mg161 2.013 . S
O166 C185 1.191 . S
O167 Mg158 2.081 1_545 S
O167 C175 1.331 . S
O168 Mg164 1.986 1_655 S
O168 C185 1.307 . S
O169 Mg158 2.023 . S
O169 C184 1.264 . S
O170 Mg159 1.942 . S
O170 C175 1.244 1_565 S
O171 Mg159 1.955 . S
O171 C184 1.273 . S
O172 Mg161 2.114 . S
O172 Mg163 2.291 1_655 S
O172 C174 1.312 . S
O173 Mg158 2.031 . S
O173 C174 1.208 . S
C174 O172 1.312 . S
C174 O173 1.208 . S
C175 O167 1.331 . S
C175 O170 1.244 1_545 S
O176 Mg161 2.013 . S
O176 C165 1.191 . S
O177 C156 1.331 . S
O177 Mg163 2.081 . S
O178 Mg159 1.986 . S
O178 C165 1.307 . S
O179 C157 1.264 . S
O179 Mg163 2.023 . S
O180 C156 1.244 . S
O180 Mg164 1.942 . S
O181 C157 1.273 . S
O181 Mg164 1.955 . S
O182 C155 1.312 . S
O182 Mg158 2.291 . S
O182 Mg161 2.114 . S
O183 C155 1.208 . S
O183 Mg163 2.031 1_655 S
C184 O169 1.264 . S
C184 O171 1.273 . S
C185 O166 1.191 . S
C185 O168 1.307 . S
C186 O213 1.312 . S
C186 O214 1.208 . S
C187 O208 1.331 . S
C187 O211 1.244 . S
C188 O210 1.264 . S
C188 O212 1.273 . S
Mg189 O191 1.936 . S
Mg189 O198 2.081 1_565 S
Mg189 O200 2.023 . S
Mg189 O204 2.031 . S
Mg189 O213 2.291 . S
Mg190 O191 1.963 . S
Mg190 O201 1.942 . S
Mg190 O202 1.955 . S
Mg190 O209 1.986 . S
O191 Mg189 1.936 . S
O191 Mg190 1.963 . S
O191 Mg192 1.915 . S
Mg192 O191 1.915 . S
Mg192 O193 1.915 . S
Mg192 O197 2.013 . S
Mg192 O203 2.114 . S
Mg192 O207 2.013 . S
Mg192 O213 2.114 . S
O193 Mg192 1.915 . S
O193 Mg194 1.936 1_455 S
O193 Mg195 1.963 1_455 S
Mg194 O193 1.936 1_655 S
Mg194 O203 2.291 1_655 S
Mg194 O208 2.081 . S
Mg194 O210 2.023 . S
Mg194 O214 2.031 1_655 S
Mg195 O193 1.963 1_655 S
Mg195 O199 1.986 1_655 S
Mg195 O211 1.942 . S
Mg195 O212 1.955 . S
C196 O207 1.191 . S
C196 O209 1.307 . S
O197 Mg192 2.013 . S
O197 C216 1.191 . S
O198 Mg189 2.081 1_545 S
O198 C206 1.331 . S
O199 Mg195 1.986 1_455 S
O199 C216 1.307 . S
O200 Mg189 2.023 . S
O200 C215 1.264 . S
O201 Mg190 1.942 . S
O201 C206 1.244 1_565 S
O202 Mg190 1.955 . S
O202 C215 1.273 . S
O203 Mg192 2.114 . S
O203 Mg194 2.291 1_455 S
O203 C205 1.312 . S
O204 Mg189 2.031 . S
O204 C205 1.208 . S
C205 O203 1.312 . S
C205 O204 1.208 . S
C206 O198 1.331 . S
C206 O201 1.244 1_545 S
O207 Mg192 2.013 . S
O207 C196 1.191 . S
O208 C187 1.331 . S
O208 Mg194 2.081 . S
O209 Mg190 1.986 . S
O209 C196 1.307 . S
O210 C188 1.264 . S
O210 Mg194 2.023 . S
O211 C187 1.244 . S
O211 Mg195 1.942 . S
O212 C188 1.273 . S
O212 Mg195 1.955 . S
O213 C186 1.312 . S
O213 Mg189 2.291 . S
O213 Mg192 2.114 . S
O214 C186 1.208 . S
O214 Mg194 2.031 1_455 S
C215 O200 1.264 . S
C215 O202 1.273 . S
C216 O197 1.191 . S
C216 O199 1.307 . S
C217 O244 1.312 . S
C217 O245 1.208 . S
C218 O239 1.331 . S
C218 O242 1.244 . S
C219 O241 1.264 . S
C219 O243 1.273 . S
Mg220 O222 1.936 . S
Mg220 O229 2.081 . S
Mg220 O231 2.023 . S
Mg220 O235 2.031 . S
Mg220 O244 2.291 . S
Mg221 O222 1.963 . S
Mg221 O232 1.942 . S
Mg221 O233 1.955 . S
Mg221 O240 1.986 . S
O222 Mg220 1.936 . S
O222 Mg221 1.963 . S
O222 Mg223 1.915 . S
Mg223 O222 1.915 . S
Mg223 O224 1.915 . S
Mg223 O228 2.013 . S
Mg223 O234 2.114 . S
Mg223 O238 2.013 . S
Mg223 O244 2.114 . S
O224 Mg223 1.915 . S
O224 Mg225 1.936 . S
O224 Mg226 1.963 . S
Mg225 O224 1.936 . S
Mg225 O234 2.291 . S
Mg225 O239 2.081 . S
Mg225 O241 2.023 . S
Mg225 O245 2.031 . S
Mg226 O224 1.963 . S
Mg226 O230 1.986 . S
Mg226 O242 1.942 . S
Mg226 O243 1.955 . S
C227 O238 1.191 . S
C227 O240 1.307 . S
O228 Mg223 2.013 . S
O228 C247 1.191 . S
O229 Mg220 2.081 . S
O229 C237 1.331 . S
O230 Mg226 1.986 . S
O230 C247 1.307 . S
O231 Mg220 2.023 . S
O231 C246 1.264 . S
O232 Mg221 1.942 . S
O232 C237 1.244 . S
O233 Mg221 1.955 . S
O233 C246 1.273 . S
O234 Mg223 2.114 . S
O234 Mg225 2.291 . S
O234 C236 1.312 . S
O235 Mg220 2.031 . S
O235 C236 1.208 . S
C236 O234 1.312 . S
C236 O235 1.208 . S
C237 O229 1.331 . S
C237 O232 1.244 . S
O238 Mg223 2.013 . S
O238 C227 1.191 . S
O239 C218 1.331 . S
O239 Mg225 2.081 . S
O240 Mg221 1.986 . S
O240 C227 1.307 . S
O241 C219 1.264 . S
O241 Mg225 2.023 . S
O242 C218 1.244 . S
O242 Mg226 1.942 . S
O243 C219 1.273 . S
O243 Mg226 1.955 . S
O244 C217 1.312 . S
O244 Mg220 2.291 . S
O244 Mg223 2.114 . S
O245 C217 1.208 . S
O245 Mg225 2.031 . S
C246 O231 1.264 . S
C246 O233 1.273 . S
C247 O228 1.191 . S
C247 O230 1.307 . S
C248 C249 1.363 . S
C248 C254 1.379 . S
C248 N256 1.356 . S
C249 C248 1.363 . S
C249 C255 1.363 . S
C250 C251 1.363 . S
C250 C255 1.379 . S
C250 N257 1.356 . S
C251 C250 1.363 . S
C251 C254 1.363 . S
N252 C254 1.356 . S
N252 H264 0.984 . S
N252 H265 0.985 . S
N253 C255 1.356 1_455 S
N253 H258 0.984 . S
N253 H259 0.985 . S
C254 C248 1.379 . S
C254 C251 1.363 . S
C254 N252 1.356 . S
C255 C249 1.363 . S
C255 C250 1.379 . S
C255 N253 1.356 1_655 S
N256 C248 1.356 . S
N256 H262 0.984 . S
N256 H263 0.984 1_655 S
N257 C250 1.356 . S
N257 H260 0.984 . S
N257 H261 0.985 . S
H258 N253 0.984 . S
H259 N253 0.985 . S
H260 N257 0.984 . S
H261 N257 0.985 . S
H262 N256 0.984 . S
H263 N256 0.984 1_455 S
H264 N252 0.984 . S
H265 N252 0.985 . S
C266 C267 1.363 . S
C266 C272 1.379 . S
C266 N274 1.356 . S
C267 C266 1.363 . S
C267 C273 1.363 . S
C268 C269 1.363 . S
C268 C273 1.379 . S
C268 N275 1.356 . S
C269 C268 1.363 . S
C269 C272 1.363 . S
N270 C272 1.356 . S
N270 H282 0.984 . S
N270 H283 0.985 . S
N271 C273 1.356 . S
N271 H276 0.984 . S
N271 H277 0.985 . S
C272 C266 1.379 . S
C272 C269 1.363 . S
C272 N270 1.356 . S
C273 C267 1.363 . S
C273 C268 1.379 . S
C273 N271 1.356 . S
N274 C266 1.356 . S
N274 H280 0.984 . S
N274 H281 0.984 . S
N275 C268 1.356 . S
N275 H278 0.984 . S
N275 H279 0.985 . S
H276 N271 0.984 . S
H277 N271 0.985 . S
H278 N275 0.984 . S
H279 N275 0.985 . S
H280 N274 0.984 . S
H281 N274 0.984 . S
H282 N270 0.984 . S
H283 N270 0.985 . S
C284 C285 1.363 . S
C284 C290 1.379 . S
C284 N292 1.356 . S
C285 C284 1.363 . S
C285 C291 1.363 . S
C286 C287 1.363 . S
C286 C291 1.379 . S
C286 N293 1.356 . S
C287 C286 1.363 . S
C287 C290 1.363 . S
N288 C290 1.356 . S
N288 H300 0.984 . S
N288 H301 0.985 . S
N289 C291 1.356 . S
N289 H294 0.984 . S
N289 H295 0.985 . S
C290 C284 1.379 . S
C290 C287 1.363 . S
C290 N288 1.356 . S
C291 C285 1.363 . S
C291 C286 1.379 . S
C291 N289 1.356 . S
N292 C284 1.356 . S
N292 H298 0.984 . S
N292 H299 0.984 . S
N293 C286 1.356 . S
N293 H296 0.984 . S
N293 H297 0.985 . S
H294 N289 0.984 . S
H295 N289 0.985 . S
H296 N293 0.984 . S
H297 N293 0.985 . S
H298 N292 0.984 . S
H299 N292 0.984 . S
H300 N288 0.984 . S
H301 N288 0.985 . S
C302 C303 1.363 . S
C302 C308 1.379 . S
C302 N310 1.356 1_455 S
C303 C302 1.363 . S
C303 C309 1.363 . S
C304 C305 1.363 . S
C304 C309 1.379 . S
C304 N311 1.356 . S
C305 C304 1.363 . S
C305 C308 1.363 . S
N306 C308 1.356 . S
N306 H318 0.984 . S
N306 H319 0.985 . S
N307 C309 1.356 1_655 S
N307 H312 0.984 . S
N307 H313 0.985 . S
C308 C302 1.379 . S
C308 C305 1.363 . S
C308 N306 1.356 . S
C309 C303 1.363 . S
C309 C304 1.379 . S
C309 N307 1.356 1_455 S
N310 C302 1.356 1_655 S
N310 H316 0.984 1_655 S
N310 H317 0.984 . S
N311 C304 1.356 . S
N311 H314 0.984 . S
N311 H315 0.985 . S
H312 N307 0.984 . S
H313 N307 0.985 . S
H314 N311 0.984 . S
H315 N311 0.985 . S
H316 N310 0.984 1_455 S
H317 N310 0.984 . S
H318 N306 0.984 . S
H319 N306 0.985 . S
C320 C321 1.363 . S
C320 C326 1.379 . S
C320 N328 1.356 . S
C321 C320 1.363 . S
C321 C327 1.363 . S
C322 C323 1.363 . S
C322 C327 1.379 . S
C322 N329 1.356 1_455 S
C323 C322 1.363 . S
C323 C326 1.363 . S
N324 C326 1.356 1_655 S
N324 H336 0.984 1_655 S
N324 H337 0.985 . S
N325 C327 1.356 . S
N325 H330 0.984 . S
N325 H331 0.985 . S
C326 C320 1.379 . S
C326 C323 1.363 . S
C326 N324 1.356 1_455 S
C327 C321 1.363 . S
C327 C322 1.379 . S
C327 N325 1.356 . S
N328 C320 1.356 . S
N328 H334 0.984 . S
N328 H335 0.984 . S
N329 C322 1.356 1_655 S
N329 H332 0.984 . S
N329 H333 0.985 . S
H330 N325 0.984 . S
H331 N325 0.985 . S
H332 N329 0.984 . S
H333 N329 0.985 . S
H334 N328 0.984 . S
H335 N328 0.984 . S
H336 N324 0.984 1_455 S
H337 N324 0.985 . S
C338 C339 1.363 . S
C338 C344 1.379 . S
C338 N346 1.356 . S
C339 C338 1.363 . S
C339 C345 1.363 . S
C340 C341 1.363 . S
C340 C345 1.379 . S
C340 N347 1.356 . S
C341 C340 1.363 . S
C341 C344 1.363 . S
N342 C344 1.356 . S
N342 H354 0.984 . S
N342 H355 0.985 . S
N343 C345 1.356 . S
N343 H348 0.984 . S
N343 H349 0.985 . S
C344 C338 1.379 . S
C344 C341 1.363 . S
C344 N342 1.356 . S
C345 C339 1.363 . S
C345 C340 1.379 . S
C345 N343 1.356 . S
N346 C338 1.356 . S
N346 H352 0.984 . S
N346 H353 0.984 . S
N347 C340 1.356 . S
N347 H350 0.984 . S
N347 H351 0.985 . S
H348 N343 0.984 . S
H349 N343 0.985 . S
H350 N347 0.984 . S
H351 N347 0.985 . S
H352 N346 0.984 . S
H353 N346 0.984 . S
H354 N342 0.984 . S
H355 N342 0.985 . S
C356 C357 1.363 . S
C356 C362 1.379 . S
C356 N364 1.356 . S
C357 C356 1.363 . S
C357 C363 1.363 . S
C358 C359 1.363 . S
C358 C363 1.379 . S
C358 N365 1.356 . S
C359 C358 1.363 . S
C359 C362 1.363 . S
N360 C362 1.356 . S
N360 H372 0.984 . S
N360 H373 0.985 . S
N361 C363 1.356 . S
N361 H366 0.984 . S
N361 H367 0.985 . S
C362 C356 1.379 . S
C362 C359 1.363 . S
C362 N360 1.356 . S
C363 C357 1.363 . S
C363 C358 1.379 . S
C363 N361 1.356 . S
N364 C356 1.356 . S
N364 H370 0.984 . S
N364 H371 0.984 . S
N365 C358 1.356 . S
N365 H368 0.984 . S
N365 H369 0.985 . S
H366 N361 0.984 . S
H367 N361 0.985 . S
H368 N365 0.984 . S
H369 N365 0.985 . S
H370 N364 0.984 . S
H371 N364 0.984 . S
H372 N360 0.984 . S
H373 N360 0.985 . S
C374 C375 1.363 . S
C374 C380 1.379 . S
C374 N382 1.356 1_655 S
C375 C374 1.363 . S
C375 C381 1.363 . S
C376 C377 1.363 . S
C376 C381 1.379 . S
C376 N383 1.356 . S
C377 C376 1.363 . S
C377 C380 1.363 . S
N378 C380 1.356 . S
N378 H390 0.984 . S
N378 H391 0.985 . S
N379 C381 1.356 1_455 S
N379 H384 0.984 . S
N379 H385 0.985 . S
C380 C374 1.379 . S
C380 C377 1.363 . S
C380 N378 1.356 . S
C381 C375 1.363 . S
C381 C376 1.379 . S
C381 N379 1.356 1_655 S
N382 C374 1.356 1_455 S
N382 H388 0.984 1_455 S
N382 H389 0.984 . S
N383 C376 1.356 . S
N383 H386 0.984 . S
N383 H387 0.985 . S
H384 N379 0.984 . S
H385 N379 0.985 . S
H386 N383 0.984 . S
H387 N383 0.985 . S
H388 N382 0.984 1_655 S
H389 N382 0.984 . S
H390 N378 0.984 . S
H391 N378 0.985 . S
C392 C393 1.363 . S
C392 C398 1.379 . S
C392 N400 1.356 . S
C393 C392 1.363 . S
C393 C399 1.363 . S
C394 C395 1.363 . S
C394 C399 1.379 . S
C394 N401 1.356 . S
C395 C394 1.363 . S
C395 C398 1.363 . S
N396 C398 1.356 . S
N396 H408 0.984 . S
N396 H409 0.985 . S
N397 C399 1.356 . S
N397 H402 0.984 . S
N397 H403 0.985 . S
C398 C392 1.379 . S
C398 C395 1.363 . S
C398 N396 1.356 . S
C399 C393 1.363 . S
C399 C394 1.379 . S
C399 N397 1.356 . S
N400 C392 1.356 . S
N400 H406 0.984 . S
N400 H407 0.984 . S
N401 C394 1.356 . S
N401 H404 0.984 . S
N401 H405 0.985 . S
H402 N397 0.984 . S
H403 N397 0.985 . S
H404 N401 0.984 . S
H405 N401 0.985 . S
H406 N400 0.984 . S
H407 N400 0.984 . S
H408 N396 0.984 . S
H409 N396 0.985 . S
C410 C411 1.363 1_655 S
C410 C416 1.379 . S
C410 N418 1.356 . S
C411 C410 1.363 1_455 S
C411 C417 1.363 . S
C412 C413 1.363 1_455 S
C412 C417 1.379 . S
C412 N419 1.356 . S
C413 C412 1.363 1_655 S
C413 C416 1.363 . S
N414 C416 1.356 . S
N414 H426 0.984 . S
N414 H427 0.985 . S
N415 C417 1.356 . S
N415 H420 0.984 . S
N415 H421 0.985 1_545 S
C416 C410 1.379 . S
C416 C413 1.363 . S
C416 N414 1.356 . S
C417 C411 1.363 . S
C417 C412 1.379 . S
C417 N415 1.356 . S
N418 C410 1.356 . S
N418 H424 0.984 . S
N418 H425 0.984 . S
N419 C412 1.356 . S
N419 H422 0.984 . S
N419 H423 0.985 1_545 S
H420 N415 0.984 . S
H421 N415 0.985 1_565 S
H422 N419 0.984 . S
H423 N419 0.985 1_565 S
H424 N418 0.984 . S
H425 N418 0.984 . S
H426 N414 0.984 . S
H427 N414 0.985 . S
C428 C429 1.363 . S
C428 C434 1.379 . S
C428 N436 1.356 . S
C429 C428 1.363 . S
C429 C435 1.363 . S
C430 C431 1.363 . S
C430 C435 1.379 . S
C430 N437 1.356 . S
C431 C430 1.363 . S
C431 C434 1.363 . S
N432 C434 1.356 . S
N432 H444 0.984 . S
N432 H445 0.985 . S
N433 C435 1.356 . S
N433 H438 0.984 . S
N433 H439 0.985 . S
C434 C428 1.379 . S
C434 C431 1.363 . S
C434 N432 1.356 . S
C435 C429 1.363 . S
C435 C430 1.379 . S
C435 N433 1.356 . S
N436 C428 1.356 . S
N436 H442 0.984 . S
N436 H443 0.984 . S
N437 C430 1.356 . S
N437 H440 0.984 . S
N437 H441 0.985 . S
H438 N433 0.984 . S
H439 N433 0.985 . S
H440 N437 0.984 . S
H441 N437 0.985 . S
H442 N436 0.984 . S
H443 N436 0.984 . S
H444 N432 0.984 . S
H445 N432 0.985 . S
C446 C447 1.363 . S
C446 C452 1.379 . S
C446 N454 1.356 . S
C447 C446 1.363 . S
C447 C453 1.363 1_655 S
C448 C449 1.363 . S
C448 C453 1.379 . S
C448 N455 1.356 . S
C449 C448 1.363 . S
C449 C452 1.363 1_455 S
N450 C452 1.356 . S
N450 H462 0.984 . S
N450 H463 0.985 . S
N451 C453 1.356 . S
N451 H456 0.984 . S
N451 H457 0.985 1_565 S
C452 C446 1.379 . S
C452 C449 1.363 1_655 S
C452 N450 1.356 . S
C453 C447 1.363 1_455 S
C453 C448 1.379 . S
C453 N451 1.356 . S
N454 C446 1.356 . S
N454 H460 0.984 . S
N454 H461 0.984 . S
N455 C448 1.356 . S
N455 H458 0.984 . S
N455 H459 0.985 1_565 S
H456 N451 0.984 . S
H457 N451 0.985 1_545 S
H458 N455 0.984 . S
H459 N455 0.985 1_545 S
H460 N454 0.984 . S
H461 N454 0.984 . S
H462 N450 0.984 . S
H463 N450 0.985 . S
C464 C465 1.363 . S
C464 C470 1.379 . S
C464 N472 1.356 . S
C465 C464 1.363 . S
C465 C471 1.363 . S
C466 C467 1.363 . S
C466 C471 1.379 . S
C466 N473 1.356 . S
C467 C466 1.363 . S
C467 C470 1.363 . S
N468 C470 1.356 . S
N468 H480 0.984 . S
N468 H481 0.985 . S
N469 C471 1.356 . S
N469 H474 0.984 . S
N469 H475 0.985 . S
C470 C464 1.379 . S
C470 C467 1.363 . S
C470 N468 1.356 . S
C471 C465 1.363 . S
C471 C466 1.379 . S
C471 N469 1.356 . S
N472 C464 1.356 . S
N472 H478 0.984 . S
N472 H479 0.984 . S
N473 C466 1.356 . S
N473 H476 0.984 . S
N473 H477 0.985 . S
H474 N469 0.984 . S
H475 N469 0.985 . S
H476 N473 0.984 . S
H477 N473 0.985 . S
H478 N472 0.984 . S
H479 N472 0.984 . S
H480 N468 0.984 . S
H481 N468 0.985 . S
C482 C483 1.363 . S
C482 C488 1.379 1_554 S
C482 N490 1.356 . S
C483 C482 1.363 . S
C483 C489 1.363 1_554 S
C484 C485 1.363 . S
C484 C489 1.379 . S
C484 N491 1.356 . S
C485 C484 1.363 . S
C485 C488 1.363 . S
N486 C488 1.356 . S
N486 H498 0.984 1_656 S
N486 H499 0.985 1_655 S
N487 C489 1.356 . S
N487 H492 0.984 1_556 S
N487 H493 0.985 . S
C488 C482 1.379 1_556 S
C488 C485 1.363 . S
C488 N486 1.356 . S
C489 C483 1.363 1_556 S
C489 C484 1.379 . S
C489 N487 1.356 . S
N490 C482 1.356 . S
N490 H496 0.984 . S
N490 H497 0.984 . S
N491 C484 1.356 . S
N491 H494 0.984 . S
N491 H495 0.985 . S
H492 N487 0.984 1_554 S
H493 N487 0.985 . S
H494 N491 0.984 . S
H495 N491 0.985 . S
H496 N490 0.984 . S
H497 N490 0.984 . S
H498 N486 0.984 1_454 S
H499 N486 0.985 1_455 S
C500 C501 1.363 . S
C500 C506 1.379 . S
C500 N508 1.356 . S
C501 C500 1.363 . S
C501 C507 1.363 . S
C502 C503 1.363 . S
C502 C507 1.379 . S
C502 N509 1.356 . S
C503 C502 1.363 . S
C503 C506 1.363 . S
N504 C506 1.356 . S
N504 H516 0.984 . S
N504 H517 0.985 . S
N505 C507 1.356 1_655 S
N505 H510 0.984 . S
N505 H511 0.985 . S
C506 C500 1.379 . S
C506 C503 1.363 . S
C506 N504 1.356 . S
C507 C501 1.363 . S
C507 C502 1.379 . S
C507 N505 1.356 1_455 S
N508 C500 1.356 . S
N508 H514 0.984 . S
N508 H515 0.984 . S
N509 C502 1.356 . S
N509 H512 0.984 . S
N509 H513 0.985 . S
H510 N505 0.984 . S
H511 N505 0.985 . S
H512 N509 0.984 . S
H513 N509 0.985 . S
H514 N508 0.984 . S
H515 N508 0.984 . S
H516 N504 0.984 . S
H517 N504 0.985 . S
C518 C519 1.363 . S
C518 C524 1.379 . S
C518 N526 1.356 . S
C519 C518 1.363 . S
C519 C525 1.363 . S
C520 C521 1.363 . S
C520 C525 1.379 1_556 S
C520 N527 1.356 . S
C521 C520 1.363 . S
C521 C524 1.363 1_556 S
N522 C524 1.356 1_556 S
N522 H534 0.975 1_556 S
N522 H535 0.985 . S
N523 C525 1.356 . S
N523 H528 0.984 . S
N523 H529 0.985 . S
C524 C518 1.379 . S
C524 C521 1.363 1_554 S
C524 N522 1.356 1_554 S
C525 C519 1.363 . S
C525 C520 1.379 1_554 S
C525 N523 1.356 . S
N526 C518 1.356 . S
N526 H532 0.984 . S
N526 H533 0.984 . S
N527 C520 1.356 . S
N527 H530 0.984 . S
N527 H531 0.985 . S
H528 N523 0.984 . S
H529 N523 0.985 . S
H530 N527 0.984 . S
H531 N527 0.985 . S
H532 N526 0.984 . S
H533 N526 0.984 . S
H534 N522 0.975 1_554 S
H535 N522 0.985 . S
C536 C537 1.363 . S
C536 C542 1.379 . S
C536 N544 1.356 . S
C537 C536 1.363 . S
C537 C543 1.363 . S
C538 C539 1.363 . S
C538 C543 1.379 . S
C538 N545 1.356 . S
C539 C538 1.363 . S
C539 C542 1.363 . S
N540 C542 1.356 . S
N540 H552 0.984 . S
N540 H553 0.985 . S
N541 C543 1.356 . S
N541 H546 0.984 . S
N541 H547 0.985 . S
C542 C536 1.379 . S
C542 C539 1.363 . S
C542 N540 1.356 . S
C543 C537 1.363 . S
C543 C538 1.379 . S
C543 N541 1.356 . S
N544 C536 1.356 . S
N544 H550 0.984 . S
N544 H551 0.984 . S
N545 C538 1.356 . S
N545 H548 0.984 . S
N545 H549 0.985 . S
H546 N541 0.984 . S
H547 N541 0.985 . S
H548 N545 0.984 . S
H549 N545 0.985 . S
H550 N544 0.984 . S
H551 N544 0.984 . S
H552 N540 0.984 . S
H553 N540 0.985 . S
C554 C555 1.363 . S
C554 C560 1.379 . S
C554 N562 1.356 . S
C555 C554 1.363 . S
C555 C561 1.341 1_554 S
C556 C557 1.363 . S
C556 C561 1.394 . S
C556 N563 1.356 . S
C557 C556 1.363 . S
C557 C560 1.363 1_556 S
N558 C560 1.356 . S
N558 H570 0.984 . S
N558 H571 0.987 . S
N559 C561 1.357 . S
N559 H564 0.984 1_556 S
N559 H565 0.985 . S
C560 C554 1.379 . S
C560 C557 1.363 1_554 S
C560 N558 1.356 . S
C561 C555 1.341 1_556 S
C561 C556 1.394 . S
C561 N559 1.357 . S
N562 C554 1.356 . S
N562 H568 0.984 . S
N562 H569 0.984 . S
N563 C556 1.356 . S
N563 H566 0.984 . S
N563 H567 0.985 . S
H564 N559 0.984 1_554 S
H565 N559 0.985 . S
H566 N563 0.984 . S
H567 N563 0.985 . S
H568 N562 0.984 . S
H569 N562 0.984 . S
H570 N558 0.984 . S
H571 N558 0.987 . S
C572 C573 1.363 . S
C572 C578 1.379 . S
C572 N580 1.356 . S
C573 C572 1.363 . S
C573 C579 1.363 . S
C574 C575 1.363 . S
C574 C579 1.379 . S
C574 N581 1.356 . S
C575 C574 1.363 . S
C575 C578 1.363 . S
N576 C578 1.356 . S
N576 H588 0.984 . S
N576 H589 0.985 . S
N577 C579 1.356 . S
N577 H582 0.984 1_655 S
N577 H583 0.985 1_655 S
C578 C572 1.379 . S
C578 C575 1.363 . S
C578 N576 1.356 . S
C579 C573 1.363 . S
C579 C574 1.379 . S
C579 N577 1.356 . S
N580 C572 1.356 . S
N580 H586 0.984 . S
N580 H587 0.984 . S
N581 C574 1.356 . S
N581 H584 0.984 . S
N581 H585 0.985 . S
H582 N577 0.984 1_455 S
H583 N577 0.985 1_455 S
H584 N581 0.984 . S
H585 N581 0.985 . S
H586 N580 0.984 . S
H587 N580 0.984 . S
H588 N576 0.984 . S
H589 N576 0.985 . S
C590 C591 1.363 1_554 S
C590 C596 1.379 . S
C590 N598 1.356 . S
C591 C590 1.363 1_556 S
C591 C597 1.363 . S
C592 C593 1.363 1_556 S
C592 C597 1.379 . S
C592 N599 1.356 . S
C593 C592 1.363 1_554 S
C593 C596 1.363 . S
N594 C596 1.356 . S
N594 H606 0.984 . S
N594 H607 0.985 . S
N595 C597 1.356 . S
N595 H600 0.984 . S
N595 H601 0.985 . S
C596 C590 1.379 . S
C596 C593 1.363 . S
C596 N594 1.356 . S
C597 C591 1.363 . S
C597 C592 1.379 . S
C597 N595 1.356 . S
N598 C590 1.356 . S
N598 H604 0.984 . S
N598 H605 0.984 1_554 S
N599 C592 1.356 . S
N599 H602 0.984 . S
N599 H603 0.985 . S
H600 N595 0.984 . S
H601 N595 0.985 . S
H602 N599 0.984 . S
H603 N599 0.985 . S
H604 N598 0.984 . S
H605 N598 0.984 1_556 S
H606 N594 0.984 . S
H607 N594 0.985 . S
C608 C609 1.363 . S
C608 C614 1.379 . S
C608 N616 1.356 . S
C609 C608 1.363 . S
C609 C615 1.363 . S
C610 C611 1.363 . S
C610 C615 1.379 . S
C610 N617 1.356 . S
C611 C610 1.363 . S
C611 C614 1.363 . S
N612 C614 1.356 . S
N612 H624 0.984 . S
N612 H625 0.985 . S
N613 C615 1.356 . S
N613 H618 0.984 . S
N613 H619 0.985 . S
C614 C608 1.379 . S
C614 C611 1.363 . S
C614 N612 1.356 . S
C615 C609 1.363 . S
C615 C610 1.379 . S
C615 N613 1.356 . S
N616 C608 1.356 . S
N616 H622 0.984 . S
N616 H623 0.984 . S
N617 C610 1.356 . S
N617 H620 0.984 . S
N617 H621 0.985 . S
H618 N613 0.984 . S
H619 N613 0.985 . S
H620 N617 0.984 . S
H621 N617 0.985 . S
H622 N616 0.984 . S
H623 N616 0.984 . S
H624 N612 0.984 . S
H625 N612 0.985 . S
C626 C627 1.363 . S
C626 C632 1.379 . S
C626 N634 1.356 . S
C627 C626 1.363 . S
C627 C633 1.363 . S
C628 C629 1.363 . S
C628 C633 1.379 . S
C628 N635 1.356 . S
C629 C628 1.363 . S
C629 C632 1.363 . S
N630 C632 1.356 . S
N630 H642 0.984 . S
N630 H643 0.985 . S
N631 C633 1.356 . S
N631 H636 0.984 . S
N631 H637 0.985 . S
C632 C626 1.379 . S
C632 C629 1.363 . S
C632 N630 1.356 . S
C633 C627 1.363 . S
C633 C628 1.379 . S
C633 N631 1.356 . S
N634 C626 1.356 . S
N634 H640 0.984 . S
N634 H641 0.984 . S
N635 C628 1.356 . S
N635 H638 0.984 . S
N635 H639 0.985 . S
H636 N631 0.984 . S
H637 N631 0.985 . S
H638 N635 0.984 . S
H639 N635 0.985 . S
H640 N634 0.984 . S
H641 N634 0.984 . S
H642 N630 0.984 . S
H643 N630 0.985 . S
C644 C645 1.363 . S
C644 C650 1.379 . S
C644 N652 1.356 . S
C645 C644 1.363 . S
C645 C651 1.363 . S
C646 C647 1.363 . S
C646 C651 1.379 . S
C646 N653 1.356 . S
C647 C646 1.363 . S
C647 C650 1.363 . S
N648 C650 1.356 . S
N648 H660 0.984 . S
N648 H661 0.985 . S
N649 C651 1.356 . S
N649 H654 0.984 . S
N649 H655 0.985 . S
C650 C644 1.379 . S
C650 C647 1.363 . S
C650 N648 1.356 . S
C651 C645 1.363 . S
C651 C646 1.379 . S
C651 N649 1.356 . S
N652 C644 1.356 . S
N652 H658 0.984 . S
N652 H659 0.984 . S
N653 C646 1.356 . S
N653 H656 0.984 . S
N653 H657 0.985 . S
H654 N649 0.984 . S
H655 N649 0.985 . S
H656 N653 0.984 . S
H657 N653 0.985 . S
H658 N652 0.984 . S
H659 N652 0.984 . S
H660 N648 0.984 . S
H661 N648 0.985 . S
C662 C663 1.363 . S
C662 C668 1.379 . S
C662 N670 1.356 . S
C663 C662 1.363 . S
C663 C669 1.363 . S
C664 C665 1.363 . S
C664 C669 1.379 . S
C664 N671 1.356 . S
C665 C664 1.363 . S
C665 C668 1.363 . S
N666 C668 1.356 . S
N666 H678 0.984 . S
N666 H679 0.985 . S
N667 C669 1.356 . S
N667 H672 0.984 . S
N667 H673 0.985 . S
C668 C662 1.379 . S
C668 C665 1.363 . S
C668 N666 1.356 . S
C669 C663 1.363 . S
C669 C664 1.379 . S
C669 N667 1.356 . S
N670 C662 1.356 . S
N670 H676 0.984 . S
N670 H677 0.984 . S
N671 C664 1.356 . S
N671 H674 0.984 . S
N671 H675 0.985 . S
H672 N667 0.984 . S
H673 N667 0.985 . S
H674 N671 0.984 . S
H675 N671 0.985 . S
H676 N670 0.984 . S
H677 N670 0.984 . S
H678 N666 0.984 . S
H679 N666 0.985 . S
C680 C681 1.363 . S
C680 C686 1.379 . S
C680 N688 1.356 . S
C681 C680 1.363 . S
C681 C687 1.363 . S
C682 C683 1.363 . S
C682 C687 1.379 . S
C682 N689 1.356 . S
C683 C682 1.363 . S
C683 C686 1.363 . S
N684 C686 1.356 . S
N684 H696 0.984 . S
N684 H697 0.985 . S
N685 C687 1.356 . S
N685 H690 0.984 . S
N685 H691 0.985 . S
C686 C680 1.379 . S
C686 C683 1.363 . S
C686 N684 1.356 . S
C687 C681 1.363 . S
C687 C682 1.379 . S
C687 N685 1.356 . S
N688 C680 1.356 . S
N688 H694 0.984 . S
N688 H695 0.984 . S
N689 C682 1.356 . S
N689 H692 0.984 . S
N689 H693 0.985 . S
H690 N685 0.984 . S
H691 N685 0.985 . S
H692 N689 0.984 . S
H693 N689 0.985 . S
H694 N688 0.984 . S
H695 N688 0.984 . S
H696 N684 0.984 . S
H697 N684 0.985 . S
C698 C699 1.363 . S
C698 C704 1.379 . S
C698 N706 1.356 . S
C699 C698 1.363 . S
C699 C705 1.363 . S
C700 C701 1.363 . S
C700 C705 1.379 . S
C700 N707 1.356 . S
C701 C700 1.363 . S
C701 C704 1.363 . S
N702 C704 1.356 . S
N702 H714 0.984 . S
N702 H715 0.985 . S
N703 C705 1.356 . S
N703 H708 0.984 . S
N703 H709 0.985 . S
C704 C698 1.379 . S
C704 C701 1.363 . S
C704 N702 1.356 . S
C705 C699 1.363 . S
C705 C700 1.379 . S
C705 N703 1.356 . S
N706 C698 1.356 . S
N706 H712 0.984 . S
N706 H713 0.984 . S
N707 C700 1.356 . S
N707 H710 0.984 . S
N707 H711 0.985 . S
H708 N703 0.984 . S
H709 N703 0.985 . S
H710 N707 0.984 . S
H711 N707 0.985 . S
H712 N706 0.984 . S
H713 N706 0.984 . S
H714 N702 0.984 . S
H715 N702 0.985 . S
C716 C717 1.363 . S
C716 C722 1.379 . S
C716 N724 1.356 . S
C717 C716 1.363 . S
C717 C723 1.363 . S
C718 C719 1.363 . S
C718 C723 1.379 . S
C718 N725 1.356 . S
C719 C718 1.363 . S
C719 C722 1.363 . S
N720 C722 1.356 . S
N720 H732 0.984 . S
N720 H733 0.985 . S
N721 C723 1.356 . S
N721 H726 0.984 . S
N721 H727 0.985 . S
C722 C716 1.379 . S
C722 C719 1.363 . S
C722 N720 1.356 . S
C723 C717 1.363 . S
C723 C718 1.379 . S
C723 N721 1.356 . S
N724 C716 1.356 . S
N724 H730 0.984 . S
N724 H731 0.984 . S
N725 C718 1.356 . S
N725 H728 0.984 . S
N725 H729 0.985 . S
H726 N721 0.984 . S
H727 N721 0.985 . S
H728 N725 0.984 . S
H729 N725 0.985 . S
H730 N724 0.984 . S
H731 N724 0.984 . S
H732 N720 0.984 . S
H733 N720 0.985 . S
C734 C735 1.363 . S
C734 C740 1.379 . S
C734 N742 1.356 . S
C735 C734 1.363 . S
C735 C741 1.363 . S
C736 C737 1.363 . S
C736 C741 1.379 . S
C736 N743 1.356 . S
C737 C736 1.363 . S
C737 C740 1.363 . S
N738 C740 1.356 . S
N738 H750 0.984 . S
N738 H751 0.985 . S
N739 C741 1.356 . S
N739 H744 0.984 . S
N739 H745 0.985 . S
C740 C734 1.379 . S
C740 C737 1.363 . S
C740 N738 1.356 . S
C741 C735 1.363 . S
C741 C736 1.379 . S
C741 N739 1.356 . S
N742 C734 1.356 . S
N742 H748 0.984 . S
N742 H749 0.984 . S
N743 C736 1.356 . S
N743 H746 0.984 . S
N743 H747 0.985 . S
H744 N739 0.984 . S
H745 N739 0.985 . S
H746 N743 0.984 . S
H747 N743 0.985 . S
H748 N742 0.984 . S
H749 N742 0.984 . S
H750 N738 0.984 . S
H751 N738 0.985 . S
C752 C753 1.363 . S
C752 C758 1.379 . S
C752 N760 1.356 . S
C753 C752 1.363 . S
C753 C759 1.363 . S
C754 C755 1.363 . S
C754 C759 1.379 . S
C754 N761 1.356 . S
C755 C754 1.363 . S
C755 C758 1.363 . S
N756 C758 1.356 . S
N756 H768 0.984 . S
N756 H769 0.985 . S
N757 C759 1.356 . S
N757 H762 0.984 . S
N757 H763 0.985 . S
C758 C752 1.379 . S
C758 C755 1.363 . S
C758 N756 1.356 . S
C759 C753 1.363 . S
C759 C754 1.379 . S
C759 N757 1.356 . S
N760 C752 1.356 . S
N760 H766 0.984 . S
N760 H767 0.984 . S
N761 C754 1.356 . S
N761 H764 0.984 . S
N761 H765 0.985 . S
H762 N757 0.984 . S
H763 N757 0.985 . S
H764 N761 0.984 . S
H765 N761 0.985 . S
H766 N760 0.984 . S
H767 N760 0.984 . S
H768 N756 0.984 . S
H769 N756 0.985 . S
C770 C771 1.363 1_455 S
C770 C776 1.379 1_554 S
C770 N778 1.356 . S
C771 C770 1.363 1_655 S
C771 C777 1.363 1_565 S
C772 C773 1.363 1_655 S
C772 C777 1.379 1_556 S
C772 N779 1.356 . S
C773 C772 1.363 1_455 S
C773 C776 1.363 1_545 S
N774 C776 1.356 . S
N774 H786 0.984 . S
N774 H787 0.985 . S
N775 C777 1.356 . S
N775 H780 0.984 . S
N775 H781 0.985 . S
C776 C770 1.379 1_556 S
C776 C773 1.363 1_565 S
C776 N774 1.356 . S
C777 C771 1.363 1_545 S
C777 C772 1.379 1_554 S
C777 N775 1.356 . S
N778 C770 1.356 . S
N778 H784 0.984 . S
N778 H785 0.984 . S
N779 C772 1.356 . S
N779 H782 0.984 . S
N779 H783 0.985 . S
H780 N775 0.984 . S
H781 N775 0.985 . S
H782 N779 0.984 . S
H783 N779 0.985 . S
H784 N778 0.984 . S
H785 N778 0.984 . S
H786 N774 0.984 . S
H787 N774 0.985 . S
C788 C789 1.363 1_465 S
C788 C794 1.379 . S
C788 N796 1.356 . S
C789 C788 1.363 1_645 S
C789 C795 1.363 . S
C790 C791 1.363 1_645 S
C790 C795 1.379 . S
C790 N797 1.356 . S
C791 C790 1.363 1_465 S
C791 C794 1.363 . S
N792 C794 1.356 . S
N792 H804 0.984 . S
N792 H805 0.985 . S
N793 C795 1.356 . S
N793 H798 0.984 . S
N793 H799 0.985 . S
C794 C788 1.379 . S
C794 C791 1.363 . S
C794 N792 1.356 . S
C795 C789 1.363 . S
C795 C790 1.379 . S
C795 N793 1.356 . S
N796 C788 1.356 . S
N796 H802 0.984 . S
N796 H803 0.984 . S
N797 C790 1.356 . S
N797 H800 0.984 . S
N797 H801 0.985 . S
H798 N793 0.984 . S
H799 N793 0.985 . S
H800 N797 0.984 . S
H801 N797 0.985 . S
H802 N796 0.984 . S
H803 N796 0.984 . S
H804 N792 0.984 . S
H805 N792 0.985 . S
C806 C807 1.363 . S
C806 C812 1.379 1_554 S
C806 N814 1.356 . S
C807 C806 1.363 . S
C807 C813 1.363 . S
C808 C809 1.363 . S
C808 C813 1.379 1_556 S
C808 N815 1.356 . S
C809 C808 1.363 . S
C809 C812 1.363 . S
N810 C812 1.356 . S
N810 H822 0.984 . S
N810 H823 0.985 . S
N811 C813 1.356 . S
N811 H816 0.984 . S
N811 H817 0.985 . S
C812 C806 1.379 1_556 S
C812 C809 1.363 . S
C812 N810 1.356 . S
C813 C807 1.363 . S
C813 C808 1.379 1_554 S
C813 N811 1.356 . S
N814 C806 1.356 . S
N814 H820 0.984 . S
N814 H821 0.984 . S
N815 C808 1.356 . S
N815 H818 0.984 . S
N815 H819 0.985 . S
H816 N811 0.984 . S
H817 N811 0.985 . S
H818 N815 0.984 . S
H819 N815 0.985 . S
H820 N814 0.984 . S
H821 N814 0.984 . S
H822 N810 0.984 . S
H823 N810 0.985 . S
C249 C20 1.071 1_655 S
C251 C1 1.086 . S
C267 C33 1.597 . S
C269 C60 1.605 . S
C285 C82 1.086 . S
C287 C63 1.071 . S
C303 C122 1.597 1_455 S
C305 C95 1.605 . S
C321 C126 1.604 . S
C323 C153 1.596 1_455 S
C339 C184 1.597 . S
C341 C157 1.606 . S
C357 C188 1.604 . S
C359 C215 1.596 . S
C375 C219 1.597 1_655 S
C377 C246 1.606 . S
C393 C103 1.467 . S
C395 C0 1.481 . S
C411 C61 1.467 . S
C413 C81 1.481 . S
C429 C134 1.367 . S
C431 C247 1.363 . S
C447 C165 1.363 . S
C449 C196 1.367 . S
C465 C92 1.323 . S
C467 C2 1.235 . S
C483 C93 1.324 . S
C485 C51 1.158 . S
C501 C91 1.235 . S
C503 C10 1.323 . S
C519 C94 1.158 . S
C521 C50 1.324 . S
C537 C186 1.290 . S
C539 C125 1.119 . S
C555 C156 1.141 . S
C557 C236 1.307 . S
C573 C187 1.119 . S
C575 C124 1.290 . S
C591 C237 1.141 . S
C593 C155 1.307 . S
C609 C206 1.878 . S
C611 C19 1.907 . S
C627 C41 1.714 . S
C629 C218 1.794 . S
C645 C144 1.878 . S
C647 C62 1.907 . S
C663 C175 1.794 . S
C665 C123 1.714 . S
C681 C154 1.925 . S
C683 C64 1.996 . S
C699 C113 1.797 . S
C701 C185 1.720 . S
C717 C29 1.996 . S
C719 C216 1.925 . S
C735 C227 1.720 . S
C737 C32 1.797 . S
C753 C143 1.377 . S
C755 C30 1.354 . S
C771 C174 1.419 . S
C773 C31 1.419 . S
C789 C72 1.354 . S
C791 C205 1.377 . S
C807 C112 1.419 . S
C809 C217 1.419 . S
