# Generated by pormake.
# Topology acs-i, (5)-cn, num edge types: 1
# Building blocks:
#     Node 0, Type 0, BuildingBlock: BEQFEK_clean_sbu_0, # of connection points: 5
#     Node 1, Type 0, BuildingBlock: BEQFEK_clean_sbu_0, # of connection points: 5
#     Node 2, Type 0, BuildingBlock: BEQFEK_clean_sbu_0, # of connection points: 5
#     Node 3, Type 0, BuildingBlock: BEQFEK_clean_sbu_0, # of connection points: 5
#     Node 4, Type 0, BuildingBlock: BEQFEK_clean_sbu_0, # of connection points: 5
#     Node 5, Type 0, BuildingBlock: BEQFEK_clean_sbu_0, # of connection points: 5
#     Node 6, Type 0, BuildingBlock: BEQFEK_clean_sbu_0, # of connection points: 5
#     Node 7, Type 0, BuildingBlock: BEQFEK_clean_sbu_0, # of connection points: 5
#     Node 8, Type 0, BuildingBlock: BEQFEK_clean_sbu_0, # of connection points: 5
#     Node 9, Type 0, BuildingBlock: BEQFEK_clean_sbu_0, # of connection points: 5
#     Node 10, Type 0, BuildingBlock: BEQFEK_clean_sbu_0, # of connection points: 5
#     Node 11, Type 0, BuildingBlock: BEQFEK_clean_sbu_0, # of connection points: 5
#     Edge 12, Type (0, 0), BuildingBlock: EZIPEK_clean_linker_0, # of connection points: 2
#     Edge 13, Type (0, 0), BuildingBlock: EZIPEK_clean_linker_0, # of connection points: 2
#     Edge 14, Type (0, 0), BuildingBlock: EZIPEK_clean_linker_0, # of connection points: 2
#     Edge 15, Type (0, 0), BuildingBlock: EZIPEK_clean_linker_0, # of connection points: 2
#     Edge 16, Type (0, 0), BuildingBlock: EZIPEK_clean_linker_0, # of connection points: 2
#     Edge 17, Type (0, 0), BuildingBlock: EZIPEK_clean_linker_0, # of connection points: 2
#     Edge 18, Type (0, 0), BuildingBlock: EZIPEK_clean_linker_0, # of connection points: 2
#     Edge 19, Type (0, 0), BuildingBlock: EZIPEK_clean_linker_0, # of connection points: 2
#     Edge 20, Type (0, 0), BuildingBlock: EZIPEK_clean_linker_0, # of connection points: 2
#     Edge 21, Type (0, 0), BuildingBlock: EZIPEK_clean_linker_0, # of connection points: 2
#     Edge 22, Type (0, 0), BuildingBlock: EZIPEK_clean_linker_0, # of connection points: 2
#     Edge 23, Type (0, 0), BuildingBlock: EZIPEK_clean_linker_0, # of connection points: 2
#     Edge 24, Type (0, 0), BuildingBlock: EZIPEK_clean_linker_0, # of connection points: 2
#     Edge 25, Type (0, 0), BuildingBlock: EZIPEK_clean_linker_0, # of connection points: 2
#     Edge 26, Type (0, 0), BuildingBlock: EZIPEK_clean_linker_0, # of connection points: 2
#     Edge 27, Type (0, 0), BuildingBlock: EZIPEK_clean_linker_0, # of connection points: 2
#     Edge 28, Type (0, 0), BuildingBlock: EZIPEK_clean_linker_0, # of connection points: 2
#     Edge 29, Type (0, 0), BuildingBlock: EZIPEK_clean_linker_0, # of connection points: 2
#     Edge 30, Type (0, 0), BuildingBlock: EZIPEK_clean_linker_0, # of connection points: 2
#     Edge 31, Type (0, 0), BuildingBlock: EZIPEK_clean_linker_0, # of connection points: 2
#     Edge 32, Type (0, 0), BuildingBlock: EZIPEK_clean_linker_0, # of connection points: 2
#     Edge 33, Type (0, 0), BuildingBlock: EZIPEK_clean_linker_0, # of connection points: 2
#     Edge 34, Type (0, 0), BuildingBlock: EZIPEK_clean_linker_0, # of connection points: 2
#     Edge 35, Type (0, 0), BuildingBlock: EZIPEK_clean_linker_0, # of connection points: 2
#     Edge 36, Type (0, 0), BuildingBlock: EZIPEK_clean_linker_0, # of connection points: 2
#     Edge 37, Type (0, 0), BuildingBlock: EZIPEK_clean_linker_0, # of connection points: 2
#     Edge 38, Type (0, 0), BuildingBlock: EZIPEK_clean_linker_0, # of connection points: 2
#     Edge 39, Type (0, 0), BuildingBlock: EZIPEK_clean_linker_0, # of connection points: 2
#     Edge 40, Type (0, 0), BuildingBlock: EZIPEK_clean_linker_0, # of connection points: 2
#     Edge 41, Type (0, 0), BuildingBlock: EZIPEK_clean_linker_0, # of connection points: 2
# Relax obj value: 1.321
# Max RMSD: 0.210
# Mean RMSD: 0.198
data_MOF--net-acs-i--node1-BEQFEK_clean_sbu_0--edge1-EZIPEK_clean_linker_0
_symmetry_space_group_name_H-M    P1
_symmetry_Int_Tables_number       1
_symmetry_cell_setting            triclinic
loop_
_symmetry_equiv_pos_as_xyz
'x, y, z'
_cell_length_a     29.160196
_cell_length_b     33.986345
_cell_length_c     24.54617
_cell_angle_alpha  90.299236
_cell_angle_beta   89.044714
_cell_angle_gamma 115.31742
loop_
_atom_site_label
_atom_site_type_symbol
_atom_site_fract_x
_atom_site_fract_y
_atom_site_fract_z
_atom_type_partial_charge
Co0 Co 0.31328 0.46143 0.99255 0.0
Co1 Co 0.20749 0.46514 0.99412 0.0
C2 C 0.30186 0.53899 0.9501 0.0
O3 O 0.32915 0.519 0.95878 0.0
O4 O 0.25539 0.52241 0.96429 0.0
C5 C 0.40549 0.49541 0.03078 0.0
O6 O 0.38233 0.51873 0.0487 0.0
C7 C 0.15623 0.51077 0.0477 0.0
C8 C 0.07511 0.46638 0.0437 0.0
C9 C 0.10878 0.50553 0.06567 0.0
N10 N 0.15106 0.47596 0.01738 0.0
N11 N 0.10228 0.44956 0.01479 0.0
C12 C 0.20609 0.54775 0.06052 0.0
H13 H 0.23477 0.53523 0.06861 0.0
H14 H 0.20285 0.56683 0.09596 0.0
H15 H 0.21931 0.56978 0.0247 0.0
C16 C 0.28453 0.44202 0.1116 0.0
N17 N 0.27636 0.45081 0.05988 0.0
N18 N 0.22976 0.44717 0.05727 0.0
C19 C 0.20629 0.4337 0.10594 0.0
C20 C 0.24071 0.4318 0.14243 0.0
C21 C 0.33202 0.44087 0.1316 0.0
H22 H 0.34627 0.42479 0.1008 0.0
H23 H 0.36109 0.4745 0.13856 0.0
H24 H 0.32498 0.42273 0.17068 0.0
O25 O 0.27275 0.41922 0.93732 0.0
O26 O 0.19784 0.42294 0.93326 0.0
H27 H 0.13002 0.39693 0.07987 0.0
H28 H 0.1384 0.39543 0.1527 0.0
C29 C 0.15031 0.41621 0.11566 0.0
H30 H 0.13928 0.44307 0.12117 0.0
H31 H 0.08777 0.41952 -0.00496 0.0
O32 O 0.38077 0.46172 0.00273 0.0
C33 C 0.22928 0.40823 0.91609 0.0
Co34 Co 0.99242 0.37165 0.80711 0.0
Co35 Co 0.96435 0.30605 0.70936 0.0
C36 C 0.97538 0.39757 0.69627 0.0
O37 O 0.98383 0.40622 0.74653 0.0
O38 O 0.96721 0.36028 0.67723 0.0
C39 C 0.97502 0.42904 0.87648 0.0
O40 O 0.9433 0.42489 0.8371 0.0
C41 C 0.90417 0.25668 0.61987 0.0
C42 C 0.93803 0.21203 0.59653 0.0
C43 C 0.89977 0.22422 0.58385 0.0
N44 N 0.9425 0.26348 0.65334 0.0
N45 N 0.9633 0.23712 0.63882 0.0
C46 C 0.87079 0.27978 0.62351 0.0
H47 H 0.87544 0.29625 0.66336 0.0
H48 H 0.83045 0.2566 0.61826 0.0
H49 H 0.88133 0.30393 0.58998 0.0
C50 C 0.8953 0.30438 0.85028 0.0
N51 N 0.93413 0.31697 0.81394 0.0
N52 N 0.92056 0.28989 0.77233 0.0
C53 C 0.87221 0.25992 0.78105 0.0
C54 C 0.85416 0.26939 0.82957 0.0
C55 C 0.89485 0.3276 0.9019 0.0
H56 H 0.93242 0.33932 0.92081 0.0
H57 H 0.88562 0.35531 0.89321 0.0
H58 H 0.86558 0.30546 0.93079 0.0
O59 O 0.05583 0.36645 0.79013 0.0
O60 O 0.03434 0.3175 0.72449 0.0
H61 H 0.8658 0.21551 0.71558 0.0
H62 H 0.81434 0.19592 0.76442 0.0
C63 C 0.84126 0.22511 0.74198 0.0
H64 H 0.8181 0.23677 0.71724 0.0
H65 H 0.99448 0.23606 0.6579 0.0
O66 O 0.00199 0.40803 0.87338 0.0
C67 C 0.06765 0.34413 0.75564 0.0
Co68 Co 0.42031 0.88424 0.03132 0.0
Co69 Co 0.40698 0.82729 0.92846 0.0
C70 C 0.31786 0.83057 -0.00499 0.0
O71 O 0.34686 0.85548 0.03077 0.0
O72 O 0.33604 0.8188 0.95358 0.0
C73 C 0.42067 0.94236 0.11617 0.0
O74 O 0.38464 0.94724 0.08978 0.0
C75 C 0.37629 0.73771 0.90135 0.0
C76 C 0.39683 0.73626 0.81478 0.0
C77 C 0.37635 0.71006 0.86017 0.0
N78 N 0.39577 0.77859 0.8821 0.0
N79 N 0.40769 0.77764 0.82998 0.0
C80 C 0.36006 0.72516 0.95932 0.0
H81 H 0.36157 0.75333 0.9834 0.0
H82 H 0.38518 0.71222 0.97801 0.0
H83 H 0.32102 0.6986 0.96056 0.0
C84 C 0.47858 0.83846 0.0689 0.0
N85 N 0.44877 0.845 0.03226 0.0
N86 N 0.44909 0.8247 0.9867 0.0
C87 C 0.48159 0.80621 0.99234 0.0
C88 C 0.50041 0.81374 0.04473 0.0
C89 C 0.48769 0.85716 0.12512 0.0
H90 H 0.51352 0.89236 0.12262 0.0
H91 H 0.4513 0.85365 0.14389 0.0
H92 H 0.50523 0.84087 0.15113 0.0
O93 O 0.4472 0.92207 0.96962 0.0
O94 O 0.44229 0.8857 0.89238 0.0
H95 H 0.47768 0.74845 0.95551 0.0
H96 H 0.48788 0.79203 0.90755 0.0
C97 C 0.49725 0.78393 0.94827 0.0
H98 H 0.53865 0.79339 0.95012 0.0
H99 H 0.42434 0.80518 0.8052 0.0
O100 O 0.44171 0.91991 0.0955 0.0
C101 C 0.45559 0.92127 0.91888 0.0
Co102 Co 0.72353 0.52517 0.48426 0.0
Co103 Co 0.83882 0.54511 0.48913 0.0
C104 C 0.76043 0.46518 0.43179 0.0
O105 O 0.72396 0.4734 0.448 0.0
O106 O 0.80571 0.49106 0.44339 0.0
C107 C 0.62344 0.47475 0.50702 0.0
O108 O 0.64628 0.44964 0.5171 0.0
C109 C 0.90028 0.51114 0.54201 0.0
C110 C 0.9794 0.55514 0.52006 0.0
C111 C 0.95008 0.51791 0.54969 0.0
N112 N 0.9001 0.543 0.51013 0.0
N113 N 0.94748 0.56927 0.49686 0.0
C114 C 0.85319 0.47595 0.56702 0.0
H115 H 0.81911 0.48106 0.55846 0.0
H116 H 0.8578 0.47429 0.61162 0.0
H117 H 0.84596 0.4437 0.55017 0.0
C118 C 0.73556 0.53463 0.60368 0.0
N119 N 0.75342 0.53478 0.55272 0.0
N120 N 0.80275 0.54718 0.55425 0.0
C121 C 0.81781 0.55654 0.60635 0.0
C122 C 0.77556 0.54771 0.63903 0.0
C123 C 0.68143 0.52267 0.61901 0.0
H124 H 0.66621 0.53987 0.59177 0.0
H125 H 0.65901 0.48707 0.61454 0.0
H126 H 0.67768 0.5317 0.66183 0.0
O127 O 0.76398 0.57635 0.43817 0.0
O128 O 0.84723 0.59426 0.44171 0.0
H129 H 0.89835 0.59148 0.59158 0.0
H130 H 0.87694 0.59778 0.65918 0.0
C131 C 0.87146 0.57454 0.62526 0.0
H132 H 0.87967 0.54788 0.64135 0.0
H133 H 0.95799 0.59663 0.47205 0.0
O134 O 0.65036 0.51342 0.49076 0.0
C135 C 0.81003 0.6008 0.42449 0.0
Co136 Co 0.98544 0.62659 0.29313 0.0
Co137 Co 0.02716 0.69566 0.19784 0.0
C138 C 0.04222 0.61576 0.19362 0.0
O139 O 0.01742 0.6023 0.23783 0.0
O140 O 0.05015 0.65243 0.17415 0.0
C141 C 0.98429 0.5545 0.35232 0.0
O142 O 0.97625 0.53561 0.30441 0.0
C143 C 0.10777 0.75117 0.12643 0.0
C144 C 0.07342 0.78369 0.07444 0.0
C145 C 0.11749 0.77831 0.08185 0.0
N146 N 0.06033 0.74074 0.14503 0.0
N147 N 0.03996 0.76053 0.11394 0.0
C148 C 0.14261 0.73339 0.14881 0.0
H149 H 0.13125 0.72115 0.19096 0.0
H150 H 0.18232 0.75886 0.14811 0.0
H151 H 0.14112 0.70605 0.12285 0.0
C152 C 0.04598 0.70326 0.35771 0.0
N153 N 0.02645 0.68539 0.30969 0.0
N154 N 0.04794 0.7141 0.27056 0.0
C155 C 0.084 0.7503 0.29297 0.0
C156 C 0.08525 0.74368 0.34863 0.0
C157 C 0.02814 0.6824 0.41223 0.0
H158 H 0.98911 0.65627 0.40983 0.0
H159 H 0.05433 0.66945 0.42776 0.0
H160 H 0.02849 0.70728 0.44194 0.0
O161 O 0.92182 0.62297 0.26531 0.0
O162 O 0.95067 0.66643 0.19232 0.0
H163 H 0.10357 0.79471 0.22524 0.0
H164 H 0.13548 0.81807 0.28804 0.0
C165 C 0.12129 0.78864 0.26184 0.0
H166 H 0.15432 0.78245 0.24938 0.0
H167 H 0.00258 0.75667 0.11805 0.0
O168 O 0.97968 0.58993 0.35833 0.0
C169 C 0.91415 0.63887 0.22134 0.0
Co170 Co 0.60987 0.12926 0.53785 0.0
Co171 Co 0.62025 0.17448 0.4289 0.0
C172 C 0.70702 0.18357 0.50643 0.0
O173 O 0.67845 0.17278 0.5487 0.0
O174 O 0.68859 0.1815 0.45903 0.0
C175 C 0.60173 0.10194 0.64618 0.0
O176 O 0.65082 0.12297 0.65364 0.0
C177 C 0.66331 0.26331 0.39653 0.0
C178 C 0.65855 0.26479 0.30713 0.0
C179 C 0.67587 0.2913 0.3526 0.0
N180 N 0.63919 0.22213 0.37876 0.0
N181 N 0.6364 0.22306 0.32507 0.0
C182 C 0.67381 0.27607 0.45524 0.0
H183 H 0.66333 0.24729 0.4819 0.0
H184 H 0.65225 0.29474 0.46814 0.0
H185 H 0.71451 0.29784 0.46067 0.0
C186 C 0.52182 0.15284 0.54866 0.0
N187 N 0.56526 0.15561 0.52519 0.0
N188 N 0.57602 0.18146 0.48249 0.0
C189 C 0.5412 0.19775 0.47934 0.0
C190 C 0.50655 0.18066 0.52184 0.0
C191 C 0.4875 0.11654 0.58476 0.0
H192 H 0.50434 0.09408 0.59499 0.0
H193 H 0.47681 0.12985 0.62149 0.0
H194 H 0.45152 0.09752 0.56329 0.0
O195 O 0.61995 0.10446 0.4705 0.0
O196 O 0.57617 0.11133 0.40507 0.0
H197 H 0.54378 0.21157 0.39389 0.0
H198 H 0.49883 0.22451 0.43302 0.0
C199 C 0.5369 0.2245 0.4332 0.0
H200 H 0.56577 0.25854 0.43748 0.0
H201 H 0.62028 0.19541 0.30065 0.0
O202 O 0.58574 0.08791 0.59898 0.0
C203 C 0.58163 0.08704 0.4414 0.0
Co204 Co 0.64669 0.64809 0.21172 0.0
Co205 Co 0.65514 0.70855 0.30911 0.0
C206 C 0.58283 0.61853 0.31786 0.0
O207 O 0.60114 0.61089 0.27366 0.0
O208 O 0.59686 0.65717 0.3345 0.0
C209 C 0.57305 0.6014 0.14169 0.0
O210 O 0.55199 0.62031 0.17366 0.0
C211 C 0.62407 0.75695 0.38506 0.0
C212 C 0.69515 0.80714 0.41788 0.0
C213 C 0.64278 0.79202 0.41988 0.0
N214 N 0.66318 0.75164 0.36237 0.0
N215 N 0.70575 0.78143 0.38248 0.0
C216 C 0.56945 0.72973 0.37213 0.0
H217 H 0.56571 0.71547 0.33084 0.0
H218 H 0.54726 0.74931 0.37486 0.0
H219 H 0.55324 0.7028 0.40221 0.0
C220 C 0.63888 0.72041 0.15185 0.0
N221 N 0.64441 0.70214 0.19833 0.0
N222 N 0.64314 0.72629 0.23975 0.0
C223 C 0.63302 0.75897 0.22083 0.0
C224 C 0.62874 0.75555 0.16467 0.0
C225 C 0.65383 0.71115 0.09634 0.0
H226 H 0.65061 0.67764 0.09318 0.0
H227 H 0.63156 0.71787 0.06444 0.0
H228 H 0.69424 0.73366 0.08876 0.0
O229 O 0.71605 0.6602 0.22918 0.0
O230 O 0.71329 0.69122 0.30862 0.0
H231 H 0.65349 0.80372 0.28789 0.0
H232 H 0.62871 0.82043 0.23002 0.0
C233 C 0.62517 0.79215 0.25512 0.0
H234 H 0.58652 0.77749 0.27348 0.0
H235 H 0.7419 0.78461 0.37152 0.0
O236 O 0.61951 0.60964 0.14789 0.0
C237 C 0.73361 0.67329 0.27625 0.0
Co238 Co 0.7962 0.49942 0.01865 0.0
Co239 Co 0.68431 0.48726 0.02073 0.0
C240 C 0.71602 0.41933 0.06579 0.0
O241 O 0.76281 0.44198 0.05498 0.0
O242 O 0.68305 0.43296 0.0535 0.0
C243 C 0.89276 0.49703 0.0291 0.0
O244 O 0.87063 0.47232 0.07142 0.0
C245 C 0.58977 0.44034 0.96903 0.0
C246 C 0.54279 0.47391 0.99415 0.0
C247 C 0.54313 0.44077 0.96116 0.0
N248 N 0.61608 0.4722 0.00395 0.0
N249 N 0.58777 0.49201 0.01945 0.0
C250 C 0.61055 0.41181 0.9412 0.0
H251 H 0.65242 0.42625 0.94265 0.0
H252 H 0.59808 0.40575 0.89826 0.0
H253 H 0.59638 0.38007 0.96264 0.0
C254 C 0.78592 0.5103 0.90208 0.0
N255 N 0.76669 0.50206 0.95306 0.0
N256 N 0.72231 0.50332 0.95458 0.0
C257 C 0.71271 0.51416 0.90464 0.0
C258 C 0.75251 0.51845 0.87012 0.0
C259 C 0.83611 0.512 0.88466 0.0
H260 H 0.86641 0.5435 0.89782 0.0
H261 H 0.84203 0.48522 0.90423 0.0
H262 H 0.83886 0.50959 0.83972 0.0
O263 O 0.79227 0.54346 0.06739 0.0
O264 O 0.71229 0.53508 0.07478 0.0
H265 H 0.65228 0.53205 0.92607 0.0
H266 H 0.67729 0.54637 0.85737 0.0
C267 C 0.66732 0.52142 0.88996 0.0
H268 H 0.63749 0.49074 0.87397 0.0
H269 H 0.59984 0.51869 0.04565 0.0
O270 O 0.86743 0.51268 0.00264 0.0
C271 C 0.75897 0.55467 0.08725 0.0
Co272 Co 0.42041 0.8739 0.43472 0.0
Co273 Co 0.40016 0.84367 0.55479 0.0
C274 C 0.48264 0.83701 0.47947 0.0
O275 O 0.4675 0.8475 0.43614 0.0
O276 O 0.46127 0.83655 0.52527 0.0
C277 C 0.45703 0.92616 0.33864 0.0
O278 O 0.50232 0.94338 0.36018 0.0
C279 C 0.35883 0.75799 0.59587 0.0
C280 C 0.36195 0.76142 0.68544 0.0
C281 C 0.34889 0.73257 0.64192 0.0
N282 N 0.3765 0.8 0.61049 0.0
N283 N 0.37827 0.80205 0.66432 0.0
C284 C 0.35191 0.742 0.53808 0.0
H285 H 0.37418 0.76836 0.50915 0.0
H286 H 0.31116 0.72894 0.52797 0.0
H287 H 0.36336 0.71507 0.53256 0.0
C288 C 0.31245 0.82484 0.42588 0.0
N289 N 0.35532 0.83756 0.45405 0.0
N290 N 0.34468 0.82858 0.50588 0.0
C291 C 0.2937 0.80973 0.51254 0.0
C292 C 0.27201 0.80706 0.46194 0.0
C293 C 0.3105 0.83205 0.36597 0.0
H294 H 0.3208 0.86701 0.35849 0.0
H295 H 0.33844 0.82333 0.34413 0.0
H296 H 0.27219 0.81275 0.34941 0.0
O297 O 0.44214 0.92193 0.48338 0.0
O298 O 0.42721 0.90767 0.57214 0.0
H299 H 0.29048 0.81401 0.59983 0.0
H300 H 0.23011 0.79837 0.56614 0.0
C301 C 0.26633 0.795 0.56593 0.0
H302 H 0.25712 0.7601 0.57213 0.0
H303 H 0.39191 0.83098 0.68651 0.0
O304 O 0.41991 0.89742 0.36422 0.0
C305 C 0.44367 0.93456 0.53218 0.0
Co306 Co 0.35775 0.33291 0.68549 0.0
Co307 Co 0.31041 0.25848 0.77319 0.0
C308 C 0.403 0.3367 0.79705 0.0
O309 O 0.40256 0.35188 0.75001 0.0
O310 O 0.37 0.29949 0.8115 0.0
C311 C 0.44634 0.38007 0.62635 0.0
O312 O 0.46175 0.35964 0.66171 0.0
C313 C 0.30646 0.19725 0.85469 0.0
C314 C 0.23054 0.17741 0.8922 0.0
C315 C 0.27699 0.17639 0.89948 0.0
N316 N 0.27941 0.21066 0.82228 0.0
N317 N 0.2335 0.19784 0.84427 0.0
C318 C 0.36204 0.2099 0.84759 0.0
H319 H 0.37612 0.22583 0.80765 0.0
H320 H 0.36942 0.18057 0.85098 0.0
H321 H 0.38299 0.23251 0.88058 0.0
C322 C 0.35205 0.25965 0.61832 0.0
N323 N 0.33989 0.27429 0.6648 0.0
N324 N 0.32816 0.24412 0.70273 0.0
C325 C 0.33649 0.21075 0.68192 0.0
C326 C 0.35374 0.22041 0.62826 0.0
C327 C 0.35617 0.27959 0.56309 0.0
H328 H 0.36571 0.3146 0.56517 0.0
H329 H 0.38347 0.27341 0.53642 0.0
H330 H 0.31861 0.26346 0.54355 0.0
O331 O 0.29778 0.34084 0.70721 0.0
O332 O 0.26621 0.28939 0.77023 0.0
H333 H 0.30668 0.16457 0.74748 0.0
H334 H 0.32625 0.14446 0.68706 0.0
C335 C 0.33525 0.17307 0.71403 0.0
H336 H 0.37327 0.18168 0.7313 0.0
H337 H 0.20588 0.20668 0.82946 0.0
O338 O 0.40007 0.374 0.6274 0.0
C339 C 0.2651 0.32146 0.74448 0.0
Co340 Co 0.18694 0.48491 0.52146 0.0
Co341 Co 0.29138 0.47826 0.52754 0.0
C342 C 0.27691 0.5583 0.56528 0.0
O343 O 0.23211 0.54405 0.54707 0.0
O344 O 0.30219 0.53573 0.56084 0.0
C345 C 0.12185 0.51578 0.48029 0.0
O346 O 0.16709 0.54398 0.46369 0.0
C347 C 0.39004 0.51106 0.47399 0.0
C348 C 0.42432 0.46829 0.50182 0.0
C349 C 0.43205 0.50266 0.46712 0.0
N350 N 0.35818 0.48282 0.5106 0.0
N351 N 0.37908 0.4574 0.52746 0.0
C352 C 0.3794 0.54416 0.44345 0.0
H353 H 0.34164 0.54246 0.45488 0.0
H354 H 0.381 0.53882 0.39896 0.0
H355 H 0.40949 0.57711 0.45203 0.0
C356 C 0.19434 0.45896 0.40592 0.0
N357 N 0.21188 0.46901 0.4572 0.0
N358 N 0.25377 0.46355 0.4612 0.0
C359 C 0.26274 0.44831 0.41313 0.0
C360 C 0.22637 0.44608 0.37651 0.0
C361 C 0.14736 0.4605 0.38483 0.0
H362 H 0.11606 0.44562 0.41496 0.0
H363 H 0.15444 0.49483 0.37781 0.0
H364 H 0.13595 0.44274 0.34565 0.0
O365 O 0.1821 0.44447 0.58143 0.0
O366 O 0.2535 0.43509 0.58494 0.0
H367 H 0.31518 0.42321 0.43944 0.0
H368 H 0.2913 0.4073 0.37171 0.0
C369 C 0.30398 0.43428 0.40172 0.0
H370 H 0.33681 0.46183 0.38323 0.0
H371 H 0.36203 0.43199 0.55535 0.0
O372 O 0.11909 0.48406 0.50927 0.0
C373 C 0.20882 0.42712 0.60239 0.0
Co374 Co 0.50458 0.17516 0.88954 0.0
Co375 Co 0.53559 0.16964 0.00888 0.0
C376 C 0.43767 0.17531 0.97822 0.0
O377 O 0.44953 0.18099 0.92802 0.0
O378 O 0.46629 0.1696 0.01285 0.0
C379 C 0.47033 0.13913 0.78957 0.0
O380 O 0.43792 0.10833 0.82097 0.0
C381 C 0.58183 0.23354 0.08899 0.0
C382 C 0.62154 0.20718 0.14287 0.0
C383 C 0.61789 0.24541 0.1293 0.0
N384 N 0.56612 0.19109 0.07781 0.0
N385 N 0.58872 0.17494 0.11141 0.0
C386 C 0.57045 0.26421 0.05397 0.0
H387 H 0.53999 0.24635 0.02481 0.0
H388 H 0.60524 0.2858 0.03103 0.0
H389 H 0.55859 0.28516 0.07993 0.0
C390 C 0.61013 0.23403 0.87595 0.0
N391 N 0.56901 0.21489 0.90881 0.0
N392 N 0.58332 0.208 0.95685 0.0
C393 C 0.634 0.22133 0.95555 0.0
C394 C 0.6526 0.23813 0.90431 0.0
C395 C 0.60775 0.23831 0.8156 0.0
H396 H 0.6001 0.20654 0.79643 0.0
H397 H 0.57688 0.24774 0.80545 0.0
H398 H 0.64428 0.26296 0.79887 0.0
O399 O 0.50207 0.11762 0.90381 0.0
O400 O 0.52503 0.10957 0.98763 0.0
H401 H 0.70152 0.21684 0.98522 0.0
H402 H 0.66392 0.22875 0.03484 0.0
C403 C 0.6621 0.20958 -0.00191 0.0
H404 H 0.64121 0.17459 0.00874 0.0
H405 H 0.5857 0.14325 0.10925 0.0
O406 O 0.49664 0.17569 0.81135 0.0
C407 C 0.51012 0.09478 0.93986 0.0
C408 C 0.1968 0.32058 0.80884 0.0
C409 C 0.2359 0.3438 0.77025 0.0
C410 C 0.25545 0.41165 0.8189 0.0
C411 C 0.22258 0.38742 0.86205 0.0
N412 N 0.15233 0.3224 0.89332 0.0
N413 N 0.28182 0.41273 0.72469 0.0
C414 C 0.18936 0.34298 0.85505 0.0
C415 C 0.25845 0.38991 0.77061 0.0
N416 N 0.16849 0.277 0.80155 0.0
N417 N 0.28468 0.45533 0.82483 0.0
H418 H 0.27876 0.39772 0.68693 0.0
H419 H 0.29731 0.44649 0.72167 0.0
H420 H 0.2806 0.47306 0.85783 0.0
H421 H 0.31435 0.47372 0.79838 0.0
H422 H 0.14165 0.25661 0.82931 0.0
H423 H 0.17166 0.26137 0.76589 0.0
H424 H 0.12556 0.29023 0.89063 0.0
H425 H 0.1469 0.33865 0.92725 0.0
C426 C 0.15469 0.40356 0.74493 0.0
C427 C 0.12171 0.35907 0.73815 0.0
C428 C 0.16723 0.35687 0.6542 0.0
C429 C 0.18937 0.40296 0.65373 0.0
N430 N 0.2121 0.47088 0.70127 0.0
N431 N 0.11047 0.29024 0.70128 0.0
C432 C 0.18614 0.42654 0.70043 0.0
C433 C 0.13339 0.33457 0.69785 0.0
N434 N 0.15601 0.42321 0.7939 0.0
N435 N 0.17637 0.33505 0.61161 0.0
H436 H 0.08699 0.27448 0.73448 0.0
H437 H 0.11683 0.26941 0.67421 0.0
H438 H 0.20175 0.35116 0.57999 0.0
H439 H 0.15943 0.3014 0.60732 0.0
H440 H 0.18087 0.45522 0.8026 0.0
H441 H 0.13661 0.40537 0.82813 0.0
H442 H 0.20683 0.49052 0.73107 0.0
H443 H 0.23835 0.48821 0.67086 0.0
C444 C 0.54002 0.03608 0.92462 0.0
C445 C 0.50041 0.04989 0.9239 0.0
C446 C 0.44543 0.98163 0.87923 0.0
C447 C 0.47951 0.9643 0.89315 0.0
N448 N 0.56192 0.97457 0.92136 0.0
N449 N 0.41326 0.03416 0.90317 0.0
C450 C 0.52843 0.99199 0.91183 0.0
C451 C 0.45274 0.02259 0.90075 0.0
N452 N 0.58833 0.06494 0.9369 0.0
N453 N 0.40435 0.95723 0.84868 0.0
H454 H 0.41576 0.06258 0.92189 0.0
H455 H 0.37659 0.01367 0.8913 0.0
H456 H 0.39879 0.92657 0.83422 0.0
H457 H 0.37944 0.96902 0.83356 0.0
H458 H 0.61953 0.05774 0.9332 0.0
H459 H 0.59789 0.09726 0.94722 0.0
H460 H 0.59615 0.99092 0.94131 0.0
H461 H 0.55377 0.94253 0.9104 0.0
C462 C 0.82789 0.67052 0.37573 0.0
C463 C 0.81613 0.62584 0.37425 0.0
C464 C 0.76167 0.61428 0.29679 0.0
C465 C 0.77077 0.65911 0.29917 0.0
N466 N 0.8251 0.73195 0.32822 0.0
N467 N 0.79102 0.56025 0.3232 0.0
C468 C 0.80878 0.6881 0.3341 0.0
C469 C 0.79123 0.60028 0.32946 0.0
N470 N 0.85434 0.69506 0.41845 0.0
N471 N 0.72133 0.58389 0.26963 0.0
H472 H 0.81325 0.55011 0.34719 0.0
H473 H 0.77198 0.5386 0.2926 0.0
H474 H 0.69564 0.59027 0.24686 0.0
H475 H 0.70978 0.55053 0.27398 0.0
H476 H 0.8596 0.72698 0.42519 0.0
H477 H 0.86952 0.68231 0.4481 0.0
H478 H 0.85479 0.75478 0.35039 0.0
H479 H 0.81177 0.74518 0.29733 0.0
C480 C 0.8331 0.57321 0.20084 0.0
C481 C 0.86227 0.61928 0.19897 0.0
C482 C 0.80115 0.62496 0.13602 0.0
C483 C 0.7739 0.57935 0.13814 0.0
N484 N 0.74951 0.51406 0.18969 0.0
N485 N 0.86394 0.68951 0.17921 0.0
C486 C 0.78407 0.55564 0.17893 0.0
C487 C 0.84278 0.64556 0.17154 0.0
N488 N 0.85341 0.54573 0.21734 0.0
N489 N 0.78893 0.6478 0.09801 0.0
H490 H 0.89336 0.70497 0.20647 0.0
H491 H 0.84892 0.70963 0.16285 0.0
H492 H 0.75749 0.6325 0.0731 0.0
H493 H 0.81065 0.68081 0.09034 0.0
H494 H 0.83374 0.51197 0.2153 0.0
H495 H 0.89157 0.5557 0.22594 0.0
H496 H 0.75472 0.49399 0.21851 0.0
H497 H 0.71344 0.50194 0.17284 0.0
C498 C 0.52612 0.99259 0.5373 0.0
C499 C 0.4741 0.98158 0.53811 0.0
C500 C 0.48957 0.04322 0.4764 0.0
C501 C 0.54 0.04755 0.46651 0.0
N502 N 0.60055 0.01703 0.47939 0.0
N503 N 0.40505 0.99733 0.51314 0.0
C504 C 0.55651 0.0194 0.49476 0.0
C505 C 0.45583 0.00818 0.5101 0.0
N506 N 0.54518 0.97396 0.57429 0.0
N507 N 0.47359 0.07197 0.45464 0.0
H508 H 0.3811 0.97276 0.53942 0.0
H509 H 0.3866 0.01081 0.48872 0.0
H510 H 0.49518 0.09718 0.42844 0.0
H511 H 0.43874 0.07183 0.46446 0.0
H512 H 0.58389 0.98263 0.57781 0.0
H513 H 0.52201 0.95317 0.60466 0.0
H514 H 0.61238 0.99494 0.49637 0.0
H515 H 0.62215 0.03369 0.44555 0.0
C516 C 0.06867 0.55729 0.07357 0.0
C517 C 0.09519 0.53597 0.09871 0.0
C518 C 0.09214 0.57113 0.18573 0.0
C519 C 0.05977 0.58743 0.16194 0.0
N520 N 0.00974 0.58956 0.08571 0.0
N521 N 0.1301 0.52041 0.18008 0.0
C522 C 0.04613 0.57888 0.10647 0.0
C523 C 0.10639 0.54227 0.15523 0.0
N524 N 0.06653 0.55826 0.01805 0.0
N525 N 0.11145 0.58497 0.23634 0.0
H526 H 0.1329 0.51883 0.22218 0.0
H527 H 0.14519 0.50221 0.15865 0.0
H528 H 0.1029 0.60687 0.25941 0.0
H529 H 0.13955 0.57798 0.2535 0.0
H530 H 0.05359 0.57818 -0.00256 0.0
H531 H 0.0826 0.54282 0.9924 0.0
H532 H 0.99586 0.58121 0.04665 0.0
H533 H 0.98964 0.60284 0.10903 0.0
C534 C 0.76725 0.15516 0.54003 0.0
C535 C 0.75959 0.1882 0.5118 0.0
C536 C 0.85143 0.23123 0.50598 0.0
C537 C 0.85712 0.204 0.54612 0.0
N538 N 0.82119 0.13839 0.60019 0.0
N539 N 0.79472 0.25676 0.46347 0.0
C540 C 0.81552 0.16481 0.56172 0.0
C541 C 0.80187 0.22556 0.49211 0.0
N542 N 0.72853 0.11444 0.54543 0.0
N543 N 0.89376 0.26345 0.48316 0.0
H544 H 0.75911 0.25322 0.45153 0.0
H545 H 0.82376 0.28707 0.45384 0.0
H546 H 0.93018 0.26777 0.49369 0.0
H547 H 0.89288 0.28287 0.4509 0.0
H548 H 0.73325 0.08807 0.56133 0.0
H549 H 0.69298 0.10581 0.52856 0.0
H550 H 0.7907 0.11292 0.61901 0.0
H551 H 0.85635 0.14304 0.61511 0.0
C552 C 0.39445 0.65137 0.89938 0.0
C553 C 0.36249 0.66304 0.86737 0.0
C554 C 0.29587 0.58892 0.87711 0.0
C555 C 0.32363 0.58116 0.91985 0.0
N556 N 0.39727 0.61025 0.97764 0.0
N557 N 0.28195 0.64319 0.82481 0.0
C558 C 0.37281 0.61352 0.93217 0.0
C559 C 0.313 0.63174 0.85545 0.0
N560 N 0.44538 0.67694 0.89899 0.0
N561 N 0.2545 0.55542 0.85572 0.0
H562 H 0.29444 0.67366 0.80624 0.0
H563 H 0.24344 0.62325 0.82012 0.0
H564 H 0.24206 0.5232 0.86822 0.0
H565 H 0.23593 0.55885 0.82143 0.0
H566 H 0.47108 0.6683 0.91886 0.0
H567 H 0.46185 0.70429 0.87381 0.0
H568 H 0.43135 0.63506 0.99036 0.0
H569 H 0.38057 0.58551 0.00624 0.0
C570 C 0.00186 0.50542 0.62498 0.0
C571 C 0.96682 0.48945 0.5816 0.0
C572 C 0.93494 0.41694 0.61907 0.0
C573 C 0.97298 0.43067 0.65875 0.0
N574 N 0.05214 0.48759 0.68968 0.0
N575 N 0.91832 0.42689 0.52627 0.0
C576 C 0.00963 0.47489 0.65892 0.0
C577 C 0.94008 0.4441 0.57459 0.0
N578 N 0.02589 0.54891 0.63566 0.0
N579 N 0.89108 0.38033 0.62658 0.0
H580 H 0.92112 0.4465 0.49279 0.0
H581 H 0.90073 0.39335 0.51951 0.0
H582 H 0.88226 0.36382 0.66373 0.0
H583 H 0.86116 0.37095 0.5993 0.0
H584 H 0.04761 0.56126 0.67029 0.0
H585 H 0.02112 0.5724 0.61249 0.0
H586 H 0.08178 0.51872 0.68722 0.0
H587 H 0.06023 0.46591 0.7131 0.0
C588 C 0.22634 0.77302 0.00182 0.0
C589 C 0.26224 0.81745 0.00216 0.0
C590 C 0.19875 0.8378 0.04514 0.0
C591 C 0.16358 0.79341 0.0461 0.0
N592 N 0.13773 0.72151 0.00905 0.0
N593 N 0.27627 0.89268 0.00551 0.0
C594 C 0.17539 0.76197 0.01876 0.0
C595 C 0.24622 0.85003 0.01771 0.0
N596 N 0.24115 0.74103 0.98896 0.0
N597 N 0.18816 0.86798 0.07283 0.0
H598 H 0.31035 0.90241 0.98356 0.0
H599 H 0.26486 0.91754 0.01173 0.0
H600 H 0.15353 0.86044 0.0927 0.0
H601 H 0.21494 0.89985 0.07908 0.0
H602 H 0.2181 0.70804 -0.00492 0.0
H603 H 0.27751 0.74732 0.97541 0.0
H604 H 0.1429 0.69834 0.985 0.0
H605 H 0.1 0.71279 0.02058 0.0
C606 C 0.77408 0.39782 0.40338 0.0
C607 C 0.74851 0.42523 0.39758 0.0
C608 C 0.68089 0.36722 0.34685 0.0
C609 C 0.70491 0.33946 0.35556 0.0
N610 N 0.78258 0.33339 0.37169 0.0
N611 N 0.69117 0.44163 0.34205 0.0
C612 C 0.7545 0.35673 0.3767 0.0
C613 C 0.70623 0.41171 0.36218 0.0
N614 N 0.8148 0.40898 0.43664 0.0
N615 N 0.63301 0.35092 0.32652 0.0
H616 H 0.71084 0.47487 0.34977 0.0
H617 H 0.66335 0.43419 0.31262 0.0
H618 H 0.61368 0.31876 0.31372 0.0
H619 H 0.61148 0.36871 0.32546 0.0
H620 H 0.82932 0.38711 0.44805 0.0
H621 H 0.83301 0.43897 0.45536 0.0
H622 H 0.82083 0.34584 0.38155 0.0
H623 H 0.76879 0.30319 0.35228 0.0
C624 C 0.57284 0.86171 0.44957 0.0
C625 C 0.52947 0.83 0.47659 0.0
C626 C 0.57426 0.78385 0.48653 0.0
C627 C 0.61162 0.81064 0.44872 0.0
N628 N 0.64584 0.87491 0.39176 0.0
N629 N 0.48831 0.75975 0.52065 0.0
C630 C 0.61143 0.85004 0.43029 0.0
C631 C 0.53033 0.79109 0.4962 0.0
N632 N 0.57736 0.90315 0.44306 0.0
N633 N 0.58065 0.75109 0.51239 0.0
H634 H 0.45561 0.76382 0.52928 0.0
H635 H 0.48465 0.72852 0.52887 0.0
H636 H 0.61278 0.7454 0.50582 0.0
H637 H 0.55693 0.73262 0.54386 0.0
H638 H 0.61018 0.92859 0.4279 0.0
H639 H 0.55048 0.91316 0.45847 0.0
H640 H 0.64313 0.90086 0.37196 0.0
H641 H 0.67524 0.86803 0.37682 0.0
C642 C 0.48596 0.43471 0.88205 0.0
C643 C 0.50436 0.41448 0.92114 0.0
C644 C 0.464 0.34591 0.87203 0.0
C645 C 0.43965 0.36432 0.83787 0.0
N646 N 0.41654 0.42399 0.82264 0.0
N647 N 0.49581 0.34721 0.9623 0.0
C648 C 0.4473 0.40811 0.84632 0.0
C649 C 0.48863 0.36888 0.91903 0.0
N650 N 0.50656 0.47897 0.8768 0.0
N651 N 0.46587 0.30765 0.85843 0.0
H652 H 0.51054 0.36266 -0.00094 0.0
H653 H 0.48234 0.31345 0.96323 0.0
H654 H 0.4521 0.29194 0.82159 0.0
H655 H 0.48648 0.29471 0.88052 0.0
H656 H 0.49677 0.49441 0.84549 0.0
H657 H 0.53729 0.50003 0.89928 0.0
H658 H 0.41838 0.4546 0.83197 0.0
H659 H 0.38544 0.40506 0.79906 0.0
C660 C 0.35032 0.63061 0.59016 0.0
C661 C 0.29824 0.60065 0.5956 0.0
C662 C 0.28191 0.65548 0.64781 0.0
C663 C 0.33353 0.6849 0.64152 0.0
N664 N 0.4193 0.69506 0.62595 0.0
N665 N 0.22072 0.58001 0.6491 0.0
C666 C 0.36857 0.67011 0.62004 0.0
C667 C 0.26584 0.6116 0.63058 0.0
N668 N 0.38152 0.62374 0.55306 0.0
N669 N 0.24792 0.66974 0.66833 0.0
H670 H 0.20924 0.54704 0.64093 0.0
H671 H 0.1978 0.58591 0.67795 0.0
H672 H 0.25902 0.70119 0.68343 0.0
H673 H 0.20879 0.65102 0.6677 0.0
H674 H 0.41833 0.64674 0.54432 0.0
H675 H 0.36914 0.59758 0.52641 0.0
H676 H 0.4467 0.68424 0.61517 0.0
H677 H 0.43318 0.72456 0.647 0.0
C678 C 0.37597 0.20544 0.00091 0.0
C679 C 0.38573 0.16858 0.99322 0.0
C680 C 0.3024 0.12815 0.9538 0.0
C681 C 0.29793 0.16776 0.95011 0.0
N682 N 0.31797 0.23883 0.98626 0.0
N683 N 0.35271 0.09116 0.98473 0.0
C684 C 0.32999 0.20436 0.98081 0.0
C685 C 0.34624 0.12829 0.97824 0.0
N686 N 0.41235 0.24185 0.02375 0.0
N687 N 0.26698 0.09189 0.92964 0.0
H688 H 0.38521 0.09179 0.00278 0.0
H689 H 0.32506 0.06009 0.97631 0.0
H690 H 0.23432 0.09187 0.91275 0.0
H691 H 0.26996 0.06257 0.92585 0.0
H692 H 0.4097 0.27126 0.02813 0.0
H693 H 0.44565 0.24192 0.03892 0.0
H694 H 0.33918 0.26686 0.00817 0.0
H695 H 0.28427 0.23777 0.97096 0.0
C696 C 0.50482 0.54679 0.33536 0.0
C697 C 0.54871 0.58262 0.35463 0.0
C698 C 0.51898 0.56213 0.44895 0.0
C699 C 0.47589 0.5261 0.42977 0.0
N700 N 0.43636 0.47624 0.35675 0.0
N701 N 0.60569 0.61306 0.42982 0.0
C702 C 0.47171 0.51579 0.37353 0.0
C703 C 0.55835 0.58672 0.41154 0.0
N704 N 0.49285 0.54346 0.28149 0.0
N705 N 0.52165 0.57399 0.50247 0.0
H706 H 0.63645 0.62942 0.40349 0.0
H707 H 0.61571 0.6144 0.47058 0.0
H708 H 0.49413 0.55614 0.53149 0.0
H709 H 0.54959 0.60304 0.51716 0.0
H710 H 0.45845 0.52066 0.26655 0.0
H711 H 0.51525 0.56558 0.2522 0.0
H712 H 0.43409 0.46534 0.3167 0.0
H713 H 0.41315 0.45251 0.38428 0.0
C714 C 0.70126 0.30581 0.10555 0.0
C715 C 0.65607 0.29118 0.13708 0.0
C716 C 0.66379 0.36578 0.13867 0.0
C717 C 0.69926 0.37655 0.09422 0.0
N718 N 0.7479 0.35298 0.03161 0.0
N719 N 0.59738 0.30802 0.1905 0.0
C720 C 0.7179 0.34591 0.07723 0.0
C721 C 0.63898 0.32179 0.15672 0.0
N722 N 0.7278 0.2812 0.10205 0.0
N723 N 0.65448 0.39749 0.16411 0.0
H724 H 0.58067 0.27635 0.20609 0.0
H725 H 0.57875 0.32719 0.20122 0.0
H726 H 0.67285 0.43008 0.15281 0.0
H727 H 0.63257 0.39219 0.19961 0.0
H728 H 0.76298 0.2919 0.08224 0.0
H729 H 0.71717 0.25251 0.12429 0.0
H730 H 0.75782 0.32927 0.0152 0.0
H731 H 0.75819 0.3802 0.00662 0.0
C732 C 0.25303 0.48005 0.28444 0.0
C733 C 0.22913 0.44183 0.3165 0.0
C734 C 0.21674 0.39657 0.23491 0.0
C735 C 0.23712 0.43483 0.20255 0.0
N736 N 0.26704 0.51284 0.1949 0.0
N737 N 0.18292 0.36397 0.32317 0.0
C738 C 0.2531 0.47654 0.22686 0.0
C739 C 0.20944 0.40007 0.29198 0.0
N740 N 0.27726 0.51972 0.30908 0.0
N741 N 0.20534 0.35709 0.21113 0.0
H742 H 0.17773 0.36554 0.36515 0.0
H743 H 0.16314 0.33291 0.30722 0.0
H744 H 0.20942 0.35355 0.16931 0.0
H745 H 0.19518 0.32833 0.23294 0.0
H746 H 0.30073 0.54795 0.28819 0.0
H747 H 0.27744 0.52407 0.35117 0.0
H748 H 0.27247 0.54316 0.21008 0.0
H749 H 0.26945 0.51231 0.15253 0.0
C750 C 0.71575 0.20944 0.87521 0.0
C751 C 0.70244 0.24495 0.88002 0.0
C752 C 0.78331 0.29251 0.83726 0.0
C753 C 0.80037 0.2593 0.84294 0.0
N754 N 0.78429 0.18715 0.87325 0.0
N755 N 0.72582 0.32182 0.87078 0.0
C756 C 0.76693 0.21788 0.86336 0.0
C757 C 0.73682 0.28697 0.86235 0.0
N758 N 0.67936 0.16772 0.88061 0.0
N759 N 0.81063 0.32866 0.80646 0.0
H760 H 0.69183 0.31898 0.88865 0.0
H761 H 0.75214 0.35388 0.86401 0.0
H762 H 0.84365 0.333 0.78507 0.0
H763 H 0.79754 0.35195 0.7973 0.0
H764 H 0.68634 0.14056 0.87301 0.0
H765 H 0.6411 0.16037 0.88698 0.0
H766 H 0.7626 0.15797 0.8934 0.0
H767 H 0.82169 0.19236 0.86514 0.0
C768 C 0.58707 0.82582 0.07604 0.0
C769 C 0.53478 0.79771 0.07051 0.0
C770 C 0.54397 0.74307 0.12793 0.0
C771 C 0.59687 0.77021 0.13145 0.0
N772 N 0.67053 0.83413 0.10332 0.0
N773 N 0.46507 0.72685 0.08205 0.0
C774 C 0.619 0.81068 0.10376 0.0
C775 C 0.51384 0.75539 0.09339 0.0
N776 N 0.60583 0.86723 0.05568 0.0
N777 N 0.52188 0.70654 0.15969 0.0
H778 H 0.44079 0.73526 0.0592 0.0
H779 H 0.44987 0.69381 0.09152 0.0
H780 H 0.54199 0.69616 0.18618 0.0
H781 H 0.48281 0.68839 0.16361 0.0
H782 H 0.64205 0.89107 0.0636 0.0
H783 H 0.58407 0.87859 0.03288 0.0
H784 H 0.68973 0.86177 0.07949 0.0
H785 H 0.69465 0.82419 0.12422 0.0
C786 C 0.75546 0.4983 0.71916 0.0
C787 C 0.7715 0.54113 0.69848 0.0
C788 C 0.77695 0.56971 0.79088 0.0
C789 C 0.75694 0.52646 0.81101 0.0
N790 N 0.7192 0.44901 0.79521 0.0
N791 N 0.79181 0.61696 0.71236 0.0
C792 C 0.74384 0.49054 0.77538 0.0
C793 C 0.78072 0.57676 0.73369 0.0
N794 N 0.75272 0.46528 0.68529 0.0
N795 N 0.79342 0.6039 0.82645 0.0
H796 H 0.7961 0.62335 0.67058 0.0
H797 H 0.79351 0.64325 0.73556 0.0
H798 H 0.78997 0.5998 0.86865 0.0
H799 H 0.81346 0.63622 0.81444 0.0
H800 H 0.74692 0.43457 0.69911 0.0
H801 H 0.76054 0.46944 0.64358 0.0
H802 H 0.70366 0.42162 0.77044 0.0
H803 H 0.71035 0.44199 0.83643 0.0
C804 C 0.18903 0.81068 0.44735 0.0
C805 C 0.21835 0.78647 0.44617 0.0
C806 C 0.16327 0.73744 0.3784 0.0
C807 C 0.13181 0.75986 0.38139 0.0
N808 N 0.10935 0.81298 0.42498 0.0
N809 N 0.22562 0.72047 0.42364 0.0
C810 C 0.14284 0.79491 0.41814 0.0
C811 C 0.20241 0.74745 0.41635 0.0
N812 N 0.20652 0.84953 0.47421 0.0
N813 N 0.15772 0.70822 0.33764 0.0
H814 H 0.2546 0.72727 0.4516 0.0
H815 H 0.21268 0.68961 0.4063 0.0
H816 H 0.12977 0.69941 0.30828 0.0
H817 H 0.18372 0.69518 0.33025 0.0
H818 H 0.18993 0.87115 0.47141 0.0
H819 H 0.23938 0.86109 0.49733 0.0
H820 H 0.11292 0.83581 0.45503 0.0
H821 H 0.07604 0.80291 0.40277 0.0
C822 C 0.48188 0.22801 0.58116 0.0
C823 C 0.46736 0.19429 0.54215 0.0
C824 C 0.37762 0.1782 0.5576 0.0
C825 C 0.39202 0.20863 0.60098 0.0
N826 N 0.45771 0.25953 0.65845 0.0
N827 N 0.40321 0.13872 0.48972 0.0
C828 C 0.44413 0.23275 0.61396 0.0
C829 C 0.41561 0.16981 0.52925 0.0
N830 N 0.53191 0.25637 0.58583 0.0
N831 N 0.32784 0.15825 0.54296 0.0
H832 H 0.4307 0.13573 0.46457 0.0
H833 H 0.36642 0.11589 0.48206 0.0
H834 H 0.29917 0.16277 0.56421 0.0
H835 H 0.31492 0.1387 0.50869 0.0
H836 H 0.54444 0.28495 0.6085 0.0
H837 H 0.5609 0.25365 0.56305 0.0
H838 H 0.49439 0.2738 0.67351 0.0
H839 H 0.43203 0.26522 0.68345 0.0
C840 C 0.52124 0.52474 0.11201 0.0
C841 C 0.54143 0.5701 0.10074 0.0
C842 C 0.4889 0.55507 0.02013 0.0
C843 C 0.46035 0.51255 0.03939 0.0
N844 N 0.45304 0.45286 0.09568 0.0
N845 N 0.53967 0.62893 0.04701 0.0
C846 C 0.47827 0.49585 0.08248 0.0
C847 C 0.52495 0.58547 0.05475 0.0
N848 N 0.54214 0.50979 0.15168 0.0
N849 N 0.47852 0.5667 0.97034 0.0
H850 H 0.56236 0.65211 0.07442 0.0
H851 H 0.52488 0.64153 0.01696 0.0
H852 H 0.45094 0.54419 0.94539 0.0
H853 H 0.50029 0.59676 0.95217 0.0
H854 H 0.53135 0.47696 0.15964 0.0
H855 H 0.57291 0.5304 0.17459 0.0
H856 H 0.45987 0.43882 0.13033 0.0
H857 H 0.42487 0.43115 0.0707 0.0
C858 C 0.95409 0.46333 0.0179 0.0
C859 C 0.93826 0.49543 0.00204 0.0
C860 C 0.97671 0.49837 0.91185 0.0
C861 C 0.9772 0.45762 0.92323 0.0
N862 N 0.97783 0.40655 0.99176 0.0
N863 N 0.95622 0.5571 0.94365 0.0
C864 C 0.97016 0.442 0.97768 0.0
C865 C 0.95697 0.51766 0.95194 0.0
N866 N 0.9555 0.45327 0.0712 0.0
N867 N 0.99396 0.51748 0.86218 0.0
H868 H 0.94468 0.57261 0.97407 0.0
H869 H 0.96945 0.5758 0.90856 0.0
H870 H 0.01186 0.50514 0.83424 0.0
H871 H 0.99179 0.54554 0.84866 0.0
H872 H 0.94936 0.47079 0.10332 0.0
H873 H 0.94936 0.47079 0.10332 0.0
H874 H 0.96948 0.39305 0.03084 0.0
H875 H 0.99519 0.39244 0.96603 0.0
C876 C 0.39883 0.90219 0.20133 0.0
C877 C 0.42073 0.94327 0.17569 0.0
C878 C 0.4639 0.97612 0.25991 0.0
C879 C 0.44907 0.93356 0.28137 0.0
N880 N 0.4153 0.85609 0.2641 0.0
N881 N 0.47643 0.01968 0.17798 0.0
C882 C 0.41996 0.89648 0.2498 0.0
C883 C 0.45386 0.9806 0.20428 0.0
N884 N 0.3593 0.86821 0.178 0.0
N885 N 0.48586 0.01178 0.29259 0.0
H886 H 0.46767 0.02375 0.13794 0.0
H887 H 0.50516 0.04713 0.19499 0.0
H888 H 0.49303 0.00961 0.33367 0.0
H889 H 0.49321 0.04316 0.27999 0.0
H890 H 0.33991 0.83825 0.19743 0.0
H891 H 0.34274 0.87173 0.14208 0.0
H892 H 0.39766 0.82876 0.23953 0.0
H893 H 0.43437 0.85089 0.29691 0.0
C894 C 0.50139 0.38628 0.54452 0.0
C895 C 0.48246 0.4068 0.58358 0.0
C896 C 0.54725 0.47837 0.55451 0.0
C897 C 0.56797 0.45693 0.51875 0.0
N898 N 0.55185 0.39478 0.46228 0.0
N899 N 0.47906 0.47224 0.61746 0.0
C900 C 0.53994 0.4123 0.50752 0.0
C901 C 0.50236 0.45294 0.58541 0.0
N902 N 0.48538 0.34218 0.54508 0.0
N903 N 0.57155 0.5224 0.56087 0.0
H904 H 0.44718 0.45452 0.64167 0.0
H905 H 0.48874 0.50547 0.61714 0.0
H906 H 0.60013 0.54235 0.53432 0.0
H907 H 0.56341 0.5393 0.59216 0.0
H908 H 0.502 0.32621 0.52118 0.0
H909 H 0.4587 0.32188 0.57302 0.0
H910 H 0.53038 0.36292 0.44949 0.0
H911 H 0.5802 0.41393 0.43467 0.0
C912 C -0.00106 0.49851 0.40793 0.0
C913 C 0.01374 0.5426 0.39258 0.0
C914 C 0.08428 0.56532 0.45514 0.0
C915 C 0.07661 0.52181 0.4623 0.0
N916 N 0.02338 0.44509 0.4478 0.0
N917 N 0.08278 0.61479 0.3874 0.0
C918 C 0.03259 0.48757 0.43991 0.0
C919 C 0.0594 0.57537 0.41268 0.0
N920 N 0.95299 0.46741 0.39182 0.0
N921 N 0.11663 0.59739 0.48795 0.0
H922 H 0.06983 0.62252 0.35151 0.0
H923 H 0.11857 0.63767 0.39879 0.0
H924 H 0.13424 0.5906 0.52098 0.0
H925 H 0.12093 0.62946 0.48579 0.0
H926 H 0.9387 0.43469 0.40245 0.0
H927 H 0.92702 0.4749 0.37066 0.0
H928 H 0.9963 0.41925 0.42658 0.0
H929 H 0.04322 0.43523 0.47513 0.0
C930 C 0.53078 0.16217 0.71063 0.0
C931 C 0.49231 0.12788 0.7399 0.0
C932 C 0.52392 0.07639 0.70508 0.0
C933 C 0.56641 0.11165 0.68164 0.0
N934 N 0.60992 0.18862 0.65976 0.0
N935 N 0.4381 0.05103 0.74096 0.0
C936 C 0.56983 0.15479 0.68372 0.0
C937 C 0.4845 0.08437 0.73019 0.0
N938 N 0.52713 0.20076 0.70543 0.0
N939 N 0.52194 0.03546 0.70452 0.0
H940 H 0.40666 0.05662 0.75182 0.0
H941 H 0.42881 0.01863 0.7315 0.0
H942 H 0.55008 0.02836 0.68621 0.0
H943 H 0.49479 0.00936 0.72611 0.0
H944 H 0.55185 0.22697 0.68224 0.0
H945 H 0.49563 0.20474 0.72033 0.0
H946 H 0.61793 0.22119 0.66605 0.0
H947 H 0.63704 0.18475 0.63523 0.0
loop_
_geom_bond_atom_site_label_1
_geom_bond_atom_site_label_2
_geom_bond_distance
_geom_bond_site_symmetry_2
_ccdc_geom_bond_type
Co0 O3 1.970 1_554 S
Co0 N17 1.989 . S
Co0 O25 1.967 1_554 S
Co0 O32 1.920 . S
Co1 O4 1.966 . S
Co1 N10 2.022 . S
Co1 N18 1.993 1_556 S
Co1 O26 1.941 . S
C2 O3 1.258 . S
C2 O4 1.263 . S
O3 Co0 1.970 1_556 S
O3 C2 1.258 . S
O4 Co1 1.966 . S
O4 C2 1.263 . S
C5 O6 1.235 . S
C5 O32 1.289 . S
O6 C5 1.235 . S
C7 C9 1.395 1_556 S
C7 N10 1.351 . S
C7 C12 1.501 . S
C8 C9 1.387 1_556 S
C8 N11 1.345 . S
C9 C7 1.395 1_554 S
C9 C8 1.387 1_554 S
N10 Co1 2.022 . S
N10 C7 1.351 . S
N10 N11 1.365 . S
N11 C8 1.345 . S
N11 N10 1.365 . S
N11 H31 0.862 . S
C12 C7 1.501 . S
C12 H13 0.961 . S
C12 H14 0.961 1_556 S
C12 H15 0.960 . S
H13 C12 0.961 . S
H14 C12 0.961 1_554 S
H15 C12 0.960 . S
C16 N17 1.342 . S
C16 C20 1.401 . S
C16 C21 1.499 . S
N17 Co0 1.989 . S
N17 C16 1.342 . S
N17 N18 1.388 . S
N18 Co1 1.993 1_554 S
N18 N17 1.388 . S
N18 C19 1.346 . S
C19 N18 1.346 . S
C19 C20 1.396 . S
C19 C29 1.510 . S
C20 C16 1.401 . S
C20 C19 1.396 . S
C21 C16 1.499 . S
C21 H22 0.959 . S
C21 H23 0.960 . S
C21 H24 0.961 . S
H22 C21 0.959 . S
H23 C21 0.960 . S
H24 C21 0.961 . S
O25 Co0 1.967 1_556 S
O25 C33 1.258 . S
O26 Co1 1.941 . S
O26 C33 1.266 . S
H27 C29 0.959 . S
H28 C29 0.961 . S
C29 C19 1.510 . S
C29 H27 0.959 . S
C29 H28 0.961 . S
C29 H30 0.960 . S
H30 C29 0.960 . S
H31 N11 0.862 . S
O32 Co0 1.920 . S
O32 C5 1.289 . S
C33 O25 1.258 . S
C33 O26 1.266 . S
Co34 O37 1.970 . S
Co34 N51 1.989 . S
Co34 O59 1.967 1_655 S
Co34 O66 1.920 1_655 S
Co35 O38 1.966 . S
Co35 N44 2.022 . S
Co35 N52 1.993 . S
Co35 O60 1.941 1_655 S
C36 O37 1.258 . S
C36 O38 1.263 . S
O37 Co34 1.970 . S
O37 C36 1.258 . S
O38 Co35 1.966 . S
O38 C36 1.263 . S
C39 O40 1.235 1_455 S
C39 O66 1.289 . S
O40 C39 1.235 1_655 S
C41 C43 1.400 . S
C41 N44 1.351 . S
C41 C46 1.501 . S
C42 C43 1.387 . S
C42 N45 1.341 . S
C43 C41 1.400 . S
C43 C42 1.387 . S
N44 Co35 2.022 . S
N44 C41 1.351 . S
N44 N45 1.365 . S
N45 C42 1.341 . S
N45 N44 1.365 . S
N45 H65 0.862 . S
C46 C41 1.501 . S
C46 H47 0.961 . S
C46 H48 0.961 . S
C46 H49 0.960 . S
H47 C46 0.961 . S
H48 C46 0.961 . S
H49 C46 0.960 . S
C50 N51 1.342 . S
C50 C54 1.401 . S
C50 C55 1.499 . S
N51 Co34 1.989 . S
N51 C50 1.342 . S
N51 N52 1.388 . S
N52 Co35 1.993 . S
N52 N51 1.388 . S
N52 C53 1.346 . S
C53 N52 1.346 . S
C53 C54 1.396 . S
C53 C63 1.510 . S
C54 C50 1.401 . S
C54 C53 1.396 . S
C55 C50 1.499 . S
C55 H56 0.959 . S
C55 H57 0.960 . S
C55 H58 0.961 . S
H56 C55 0.959 . S
H57 C55 0.960 . S
H58 C55 0.961 . S
O59 Co34 1.967 1_455 S
O59 C67 1.258 . S
O60 Co35 1.941 1_455 S
O60 C67 1.266 . S
H61 C63 0.959 . S
H62 C63 0.961 . S
C63 C53 1.510 . S
C63 H61 0.959 . S
C63 H62 0.961 . S
C63 H64 0.960 . S
H64 C63 0.960 . S
H65 N45 0.862 . S
O66 Co34 1.920 1_455 S
O66 C39 1.289 . S
C67 O59 1.258 . S
C67 O60 1.266 . S
Co68 O71 1.970 . S
Co68 N85 1.989 . S
Co68 O93 1.967 1_554 S
Co68 O100 1.920 . S
Co69 O72 1.966 . S
Co69 N78 2.022 . S
Co69 N86 1.993 . S
Co69 O94 1.941 . S
C70 O71 1.258 . S
C70 O72 1.263 1_554 S
O71 Co68 1.970 . S
O71 C70 1.258 . S
O72 Co69 1.966 . S
O72 C70 1.263 1_556 S
C73 O74 1.235 . S
C73 O100 1.289 . S
O74 C73 1.235 . S
C75 C77 1.400 . S
C75 N78 1.351 . S
C75 C80 1.501 . S
C76 C77 1.387 . S
C76 N79 1.341 . S
C77 C75 1.400 . S
C77 C76 1.387 . S
N78 Co69 2.022 . S
N78 C75 1.351 . S
N78 N79 1.365 . S
N79 C76 1.341 . S
N79 N78 1.365 . S
N79 H99 0.862 . S
C80 C75 1.501 . S
C80 H81 0.961 . S
C80 H82 0.961 . S
C80 H83 0.960 . S
H81 C80 0.961 . S
H82 C80 0.961 . S
H83 C80 0.960 . S
C84 N85 1.342 . S
C84 C88 1.401 . S
C84 C89 1.499 . S
N85 Co68 1.989 . S
N85 C84 1.342 . S
N85 N86 1.388 1_554 S
N86 Co69 1.993 . S
N86 N85 1.388 1_556 S
N86 C87 1.346 . S
C87 N86 1.346 . S
C87 C88 1.396 1_556 S
C87 C97 1.510 . S
C88 C84 1.401 . S
C88 C87 1.396 1_554 S
C89 C84 1.499 . S
C89 H90 0.959 . S
C89 H91 0.960 . S
C89 H92 0.961 . S
H90 C89 0.959 . S
H91 C89 0.960 . S
H92 C89 0.961 . S
O93 Co68 1.967 1_556 S
O93 C101 1.258 . S
O94 Co69 1.941 . S
O94 C101 1.266 . S
H95 C97 0.959 . S
H96 C97 0.961 . S
C97 C87 1.510 . S
C97 H95 0.959 . S
C97 H96 0.961 . S
C97 H98 0.960 . S
H98 C97 0.960 . S
H99 N79 0.862 . S
O100 Co68 1.920 . S
O100 C73 1.289 . S
C101 O93 1.258 . S
C101 O94 1.266 . S
Co102 O105 1.970 . S
Co102 N119 1.989 . S
Co102 O127 1.967 . S
Co102 O134 1.920 . S
Co103 O106 1.966 . S
Co103 N112 2.022 . S
Co103 N120 1.993 . S
Co103 O128 1.941 . S
C104 O105 1.258 . S
C104 O106 1.263 . S
O105 Co102 1.970 . S
O105 C104 1.258 . S
O106 Co103 1.966 . S
O106 C104 1.263 . S
C107 O108 1.235 . S
C107 O134 1.289 . S
O108 C107 1.235 . S
C109 C111 1.400 . S
C109 N112 1.351 . S
C109 C114 1.501 . S
C110 C111 1.387 . S
C110 N113 1.341 . S
C111 C109 1.400 . S
C111 C110 1.387 . S
N112 Co103 2.022 . S
N112 C109 1.351 . S
N112 N113 1.365 . S
N113 C110 1.341 . S
N113 N112 1.365 . S
N113 H133 0.862 . S
C114 C109 1.501 . S
C114 H115 0.961 . S
C114 H116 0.961 . S
C114 H117 0.960 . S
H115 C114 0.961 . S
H116 C114 0.961 . S
H117 C114 0.960 . S
C118 N119 1.342 . S
C118 C122 1.401 . S
C118 C123 1.499 . S
N119 Co102 1.989 . S
N119 C118 1.342 . S
N119 N120 1.388 . S
N120 Co103 1.993 . S
N120 N119 1.388 . S
N120 C121 1.346 . S
C121 N120 1.346 . S
C121 C122 1.396 . S
C121 C131 1.510 . S
C122 C118 1.401 . S
C122 C121 1.396 . S
C123 C118 1.499 . S
C123 H124 0.959 . S
C123 H125 0.960 . S
C123 H126 0.961 . S
H124 C123 0.959 . S
H125 C123 0.960 . S
H126 C123 0.961 . S
O127 Co102 1.967 . S
O127 C135 1.258 . S
O128 Co103 1.941 . S
O128 C135 1.266 . S
H129 C131 0.959 . S
H130 C131 0.961 . S
C131 C121 1.510 . S
C131 H129 0.959 . S
C131 H130 0.961 . S
C131 H132 0.960 . S
H132 C131 0.960 . S
H133 N113 0.862 . S
O134 Co102 1.920 . S
O134 C107 1.289 . S
C135 O127 1.258 . S
C135 O128 1.266 . S
Co136 O139 1.970 1_655 S
Co136 N153 1.989 1_655 S
Co136 O161 1.967 . S
Co136 O168 1.920 . S
Co137 O140 1.966 . S
Co137 N146 2.022 . S
Co137 N154 1.993 . S
Co137 O162 1.941 1_455 S
C138 O139 1.258 . S
C138 O140 1.263 . S
O139 Co136 1.970 1_455 S
O139 C138 1.258 . S
O140 Co137 1.966 . S
O140 C138 1.263 . S
C141 O142 1.235 1_655 S
C141 O168 1.289 . S
O142 C141 1.235 1_455 S
C143 C145 1.400 . S
C143 N146 1.351 . S
C143 C148 1.501 . S
C144 C145 1.387 . S
C144 N147 1.341 . S
C145 C143 1.400 . S
C145 C144 1.387 . S
N146 Co137 2.022 . S
N146 C143 1.351 . S
N146 N147 1.365 . S
N147 C144 1.341 . S
N147 N146 1.365 . S
N147 H167 0.862 . S
C148 C143 1.501 . S
C148 H149 0.961 . S
C148 H150 0.961 . S
C148 H151 0.960 . S
H149 C148 0.961 . S
H150 C148 0.961 . S
H151 C148 0.960 . S
C152 N153 1.342 . S
C152 C156 1.401 . S
C152 C157 1.499 . S
N153 Co136 1.989 1_455 S
N153 C152 1.342 . S
N153 N154 1.388 . S
N154 Co137 1.993 . S
N154 N153 1.388 . S
N154 C155 1.346 . S
C155 N154 1.346 . S
C155 C156 1.396 . S
C155 C165 1.510 . S
C156 C152 1.401 . S
C156 C155 1.396 . S
C157 C152 1.499 . S
C157 H158 0.959 . S
C157 H159 0.960 . S
C157 H160 0.961 . S
H158 C157 0.959 . S
H159 C157 0.960 . S
H160 C157 0.961 . S
O161 Co136 1.967 . S
O161 C169 1.258 . S
O162 Co137 1.941 1_655 S
O162 C169 1.266 . S
H163 C165 0.959 . S
H164 C165 0.961 . S
C165 C155 1.510 . S
C165 H163 0.959 . S
C165 H164 0.961 . S
C165 H166 0.960 . S
H166 C165 0.960 . S
H167 N147 0.862 . S
O168 Co136 1.920 . S
O168 C141 1.289 . S
C169 O161 1.258 . S
C169 O162 1.266 . S
Co170 O173 1.970 . S
Co170 N187 1.989 . S
Co170 O195 1.967 . S
Co170 O202 1.920 . S
Co171 O174 1.966 . S
Co171 N180 2.022 . S
Co171 N188 1.993 . S
Co171 O196 1.941 . S
C172 O173 1.258 . S
C172 O174 1.263 . S
O173 Co170 1.970 . S
O173 C172 1.258 . S
O174 Co171 1.966 . S
O174 C172 1.263 . S
C175 O176 1.235 . S
C175 O202 1.289 . S
O176 C175 1.235 . S
C177 C179 1.400 . S
C177 N180 1.351 . S
C177 C182 1.501 . S
C178 C179 1.387 . S
C178 N181 1.341 . S
C179 C177 1.400 . S
C179 C178 1.387 . S
N180 Co171 2.022 . S
N180 C177 1.351 . S
N180 N181 1.365 . S
N181 C178 1.341 . S
N181 N180 1.365 . S
N181 H201 0.862 . S
C182 C177 1.501 . S
C182 H183 0.961 . S
C182 H184 0.961 . S
C182 H185 0.960 . S
H183 C182 0.961 . S
H184 C182 0.961 . S
H185 C182 0.960 . S
C186 N187 1.342 . S
C186 C190 1.401 . S
C186 C191 1.499 . S
N187 Co170 1.989 . S
N187 C186 1.342 . S
N187 N188 1.388 . S
N188 Co171 1.993 . S
N188 N187 1.388 . S
N188 C189 1.346 . S
C189 N188 1.346 . S
C189 C190 1.396 . S
C189 C199 1.510 . S
C190 C186 1.401 . S
C190 C189 1.396 . S
C191 C186 1.499 . S
C191 H192 0.959 . S
C191 H193 0.960 . S
C191 H194 0.961 . S
H192 C191 0.959 . S
H193 C191 0.960 . S
H194 C191 0.961 . S
O195 Co170 1.967 . S
O195 C203 1.258 . S
O196 Co171 1.941 . S
O196 C203 1.266 . S
H197 C199 0.959 . S
H198 C199 0.961 . S
C199 C189 1.510 . S
C199 H197 0.959 . S
C199 H198 0.961 . S
C199 H200 0.960 . S
H200 C199 0.960 . S
H201 N181 0.862 . S
O202 Co170 1.920 . S
O202 C175 1.289 . S
C203 O195 1.258 . S
C203 O196 1.266 . S
Co204 O207 1.970 . S
Co204 N221 1.989 . S
Co204 O229 1.967 . S
Co204 O236 1.920 . S
Co205 O208 1.966 . S
Co205 N214 2.022 . S
Co205 N222 1.993 . S
Co205 O230 1.941 . S
C206 O207 1.258 . S
C206 O208 1.263 . S
O207 Co204 1.970 . S
O207 C206 1.258 . S
O208 Co205 1.966 . S
O208 C206 1.263 . S
C209 O210 1.235 . S
C209 O236 1.289 . S
O210 C209 1.235 . S
C211 C213 1.400 . S
C211 N214 1.351 . S
C211 C216 1.501 . S
C212 C213 1.387 . S
C212 N215 1.341 . S
C213 C211 1.400 . S
C213 C212 1.387 . S
N214 Co205 2.022 . S
N214 C211 1.351 . S
N214 N215 1.365 . S
N215 C212 1.341 . S
N215 N214 1.365 . S
N215 H235 0.862 . S
C216 C211 1.501 . S
C216 H217 0.961 . S
C216 H218 0.961 . S
C216 H219 0.960 . S
H217 C216 0.961 . S
H218 C216 0.961 . S
H219 C216 0.960 . S
C220 N221 1.342 . S
C220 C224 1.401 . S
C220 C225 1.499 . S
N221 Co204 1.989 . S
N221 C220 1.342 . S
N221 N222 1.388 . S
N222 Co205 1.993 . S
N222 N221 1.388 . S
N222 C223 1.346 . S
C223 N222 1.346 . S
C223 C224 1.396 . S
C223 C233 1.510 . S
C224 C220 1.401 . S
C224 C223 1.396 . S
C225 C220 1.499 . S
C225 H226 0.959 . S
C225 H227 0.960 . S
C225 H228 0.961 . S
H226 C225 0.959 . S
H227 C225 0.960 . S
H228 C225 0.961 . S
O229 Co204 1.967 . S
O229 C237 1.258 . S
O230 Co205 1.941 . S
O230 C237 1.266 . S
H231 C233 0.959 . S
H232 C233 0.961 . S
C233 C223 1.510 . S
C233 H231 0.959 . S
C233 H232 0.961 . S
C233 H234 0.960 . S
H234 C233 0.960 . S
H235 N215 0.862 . S
O236 Co204 1.920 . S
O236 C209 1.289 . S
C237 O229 1.258 . S
C237 O230 1.266 . S
Co238 O241 1.970 1_556 S
Co238 N255 1.989 . S
Co238 O263 1.967 1_556 S
Co238 O270 1.920 . S
Co239 O242 1.966 . S
Co239 N248 2.022 . S
Co239 N256 1.993 1_554 S
Co239 O264 1.941 . S
C240 O241 1.258 . S
C240 O242 1.263 . S
O241 Co238 1.970 1_554 S
O241 C240 1.258 . S
O242 Co239 1.966 . S
O242 C240 1.263 . S
C243 O244 1.235 . S
C243 O270 1.289 . S
O244 C243 1.235 . S
C245 C247 1.398 1_554 S
C245 N248 1.351 . S
C245 C250 1.501 . S
C246 C247 1.387 1_554 S
C246 N249 1.341 . S
C247 C245 1.398 1_556 S
C247 C246 1.387 1_556 S
N248 Co239 2.022 . S
N248 C245 1.351 . S
N248 N249 1.365 . S
N249 C246 1.341 . S
N249 N248 1.365 . S
N249 H269 0.862 . S
C250 C245 1.501 . S
C250 H251 0.961 . S
C250 H252 0.961 1_554 S
C250 H253 0.960 . S
H251 C250 0.961 . S
H252 C250 0.961 1_556 S
H253 C250 0.960 . S
C254 N255 1.342 . S
C254 C258 1.401 . S
C254 C259 1.499 . S
N255 Co238 1.989 . S
N255 C254 1.342 . S
N255 N256 1.388 . S
N256 Co239 1.993 1_556 S
N256 N255 1.388 . S
N256 C257 1.346 . S
C257 N256 1.346 . S
C257 C258 1.396 . S
C257 C267 1.510 . S
C258 C254 1.401 . S
C258 C257 1.396 . S
C259 C254 1.499 . S
C259 H260 0.959 . S
C259 H261 0.960 . S
C259 H262 0.961 . S
H260 C259 0.959 . S
H261 C259 0.960 . S
H262 C259 0.961 . S
O263 Co238 1.967 1_554 S
O263 C271 1.258 . S
O264 Co239 1.941 . S
O264 C271 1.266 . S
H265 C267 0.959 . S
H266 C267 0.961 . S
C267 C257 1.510 . S
C267 H265 0.959 . S
C267 H266 0.961 . S
C267 H268 0.960 . S
H268 C267 0.960 . S
H269 N249 0.862 . S
O270 Co238 1.920 . S
O270 C243 1.289 . S
C271 O263 1.258 . S
C271 O264 1.266 . S
Co272 O275 1.970 . S
Co272 N289 1.989 . S
Co272 O297 1.967 . S
Co272 O304 1.920 . S
Co273 O276 1.966 . S
Co273 N282 2.022 . S
Co273 N290 1.993 . S
Co273 O298 1.941 . S
C274 O275 1.258 . S
C274 O276 1.263 . S
O275 Co272 1.970 . S
O275 C274 1.258 . S
O276 Co273 1.966 . S
O276 C274 1.263 . S
C277 O278 1.235 . S
C277 O304 1.289 . S
O278 C277 1.235 . S
C279 C281 1.400 . S
C279 N282 1.351 . S
C279 C284 1.501 . S
C280 C281 1.387 . S
C280 N283 1.341 . S
C281 C279 1.400 . S
C281 C280 1.387 . S
N282 Co273 2.022 . S
N282 C279 1.351 . S
N282 N283 1.365 . S
N283 C280 1.341 . S
N283 N282 1.365 . S
N283 H303 0.862 . S
C284 C279 1.501 . S
C284 H285 0.961 . S
C284 H286 0.961 . S
C284 H287 0.960 . S
H285 C284 0.961 . S
H286 C284 0.961 . S
H287 C284 0.960 . S
C288 N289 1.342 . S
C288 C292 1.401 . S
C288 C293 1.499 . S
N289 Co272 1.989 . S
N289 C288 1.342 . S
N289 N290 1.388 . S
N290 Co273 1.993 . S
N290 N289 1.388 . S
N290 C291 1.346 . S
C291 N290 1.346 . S
C291 C292 1.396 . S
C291 C301 1.510 . S
C292 C288 1.401 . S
C292 C291 1.396 . S
C293 C288 1.499 . S
C293 H294 0.959 . S
C293 H295 0.960 . S
C293 H296 0.961 . S
H294 C293 0.959 . S
H295 C293 0.960 . S
H296 C293 0.961 . S
O297 Co272 1.967 . S
O297 C305 1.258 . S
O298 Co273 1.941 . S
O298 C305 1.266 . S
H299 C301 0.959 . S
H300 C301 0.961 . S
C301 C291 1.510 . S
C301 H299 0.959 . S
C301 H300 0.961 . S
C301 H302 0.960 . S
H302 C301 0.960 . S
H303 N283 0.862 . S
O304 Co272 1.920 . S
O304 C277 1.289 . S
C305 O297 1.258 . S
C305 O298 1.266 . S
Co306 O309 1.970 . S
Co306 N323 1.989 . S
Co306 O331 1.967 . S
Co306 O338 1.920 . S
Co307 O310 1.966 . S
Co307 N316 2.022 . S
Co307 N324 1.993 . S
Co307 O332 1.941 . S
C308 O309 1.258 . S
C308 O310 1.263 . S
O309 Co306 1.970 . S
O309 C308 1.258 . S
O310 Co307 1.966 . S
O310 C308 1.263 . S
C311 O312 1.235 . S
C311 O338 1.289 . S
O312 C311 1.235 . S
C313 C315 1.400 . S
C313 N316 1.351 . S
C313 C318 1.501 . S
C314 C315 1.387 . S
C314 N317 1.341 . S
C315 C313 1.400 . S
C315 C314 1.387 . S
N316 Co307 2.022 . S
N316 C313 1.351 . S
N316 N317 1.365 . S
N317 C314 1.341 . S
N317 N316 1.365 . S
N317 H337 0.862 . S
C318 C313 1.501 . S
C318 H319 0.961 . S
C318 H320 0.961 . S
C318 H321 0.960 . S
H319 C318 0.961 . S
H320 C318 0.961 . S
H321 C318 0.960 . S
C322 N323 1.342 . S
C322 C326 1.401 . S
C322 C327 1.499 . S
N323 Co306 1.989 . S
N323 C322 1.342 . S
N323 N324 1.388 . S
N324 Co307 1.993 . S
N324 N323 1.388 . S
N324 C325 1.346 . S
C325 N324 1.346 . S
C325 C326 1.396 . S
C325 C335 1.510 . S
C326 C322 1.401 . S
C326 C325 1.396 . S
C327 C322 1.499 . S
C327 H328 0.959 . S
C327 H329 0.960 . S
C327 H330 0.961 . S
H328 C327 0.959 . S
H329 C327 0.960 . S
H330 C327 0.961 . S
O331 Co306 1.967 . S
O331 C339 1.258 . S
O332 Co307 1.941 . S
O332 C339 1.266 . S
H333 C335 0.959 . S
H334 C335 0.961 . S
C335 C325 1.510 . S
C335 H333 0.959 . S
C335 H334 0.961 . S
C335 H336 0.960 . S
H336 C335 0.960 . S
H337 N317 0.862 . S
O338 Co306 1.920 . S
O338 C311 1.289 . S
C339 O331 1.258 . S
C339 O332 1.266 . S
Co340 O343 1.970 . S
Co340 N357 1.989 . S
Co340 O365 1.967 . S
Co340 O372 1.920 . S
Co341 O344 1.966 . S
Co341 N350 2.022 . S
Co341 N358 1.993 . S
Co341 O366 1.941 . S
C342 O343 1.258 . S
C342 O344 1.263 . S
O343 Co340 1.970 . S
O343 C342 1.258 . S
O344 Co341 1.966 . S
O344 C342 1.263 . S
C345 O346 1.235 . S
C345 O372 1.289 . S
O346 C345 1.235 . S
C347 C349 1.400 . S
C347 N350 1.351 . S
C347 C352 1.501 . S
C348 C349 1.387 . S
C348 N351 1.341 . S
C349 C347 1.400 . S
C349 C348 1.387 . S
N350 Co341 2.022 . S
N350 C347 1.351 . S
N350 N351 1.365 . S
N351 C348 1.341 . S
N351 N350 1.365 . S
N351 H371 0.862 . S
C352 C347 1.501 . S
C352 H353 0.961 . S
C352 H354 0.961 . S
C352 H355 0.960 . S
H353 C352 0.961 . S
H354 C352 0.961 . S
H355 C352 0.960 . S
C356 N357 1.342 . S
C356 C360 1.401 . S
C356 C361 1.499 . S
N357 Co340 1.989 . S
N357 C356 1.342 . S
N357 N358 1.388 . S
N358 Co341 1.993 . S
N358 N357 1.388 . S
N358 C359 1.346 . S
C359 N358 1.346 . S
C359 C360 1.396 . S
C359 C369 1.510 . S
C360 C356 1.401 . S
C360 C359 1.396 . S
C361 C356 1.499 . S
C361 H362 0.959 . S
C361 H363 0.960 . S
C361 H364 0.961 . S
H362 C361 0.959 . S
H363 C361 0.960 . S
H364 C361 0.961 . S
O365 Co340 1.967 . S
O365 C373 1.258 . S
O366 Co341 1.941 . S
O366 C373 1.266 . S
H367 C369 0.959 . S
H368 C369 0.961 . S
C369 C359 1.510 . S
C369 H367 0.959 . S
C369 H368 0.961 . S
C369 H370 0.960 . S
H370 C369 0.960 . S
H371 N351 0.862 . S
O372 Co340 1.920 . S
O372 C345 1.289 . S
C373 O365 1.258 . S
C373 O366 1.266 . S
Co374 O377 1.970 . S
Co374 N391 1.989 . S
Co374 O399 1.967 1_556 S
Co374 O406 1.920 . S
Co375 O378 1.966 . S
Co375 N384 2.022 . S
Co375 N392 1.993 . S
Co375 O400 1.941 . S
C376 O377 1.258 . S
C376 O378 1.263 1_556 S
O377 Co374 1.970 . S
O377 C376 1.258 . S
O378 Co375 1.966 . S
O378 C376 1.263 1_554 S
C379 O380 1.235 . S
C379 O406 1.289 . S
O380 C379 1.235 . S
C381 C383 1.400 . S
C381 N384 1.351 . S
C381 C386 1.501 . S
C382 C383 1.387 . S
C382 N385 1.341 . S
C383 C381 1.400 . S
C383 C382 1.387 . S
N384 Co375 2.022 . S
N384 C381 1.351 . S
N384 N385 1.365 . S
N385 C382 1.341 . S
N385 N384 1.365 . S
N385 H405 0.862 . S
C386 C381 1.501 . S
C386 H387 0.961 . S
C386 H388 0.961 . S
C386 H389 0.960 . S
H387 C386 0.961 . S
H388 C386 0.961 . S
H389 C386 0.960 . S
C390 N391 1.342 . S
C390 C394 1.401 . S
C390 C395 1.499 . S
N391 Co374 1.989 . S
N391 C390 1.342 . S
N391 N392 1.388 1_556 S
N392 Co375 1.993 . S
N392 N391 1.388 1_554 S
N392 C393 1.346 . S
C393 N392 1.346 . S
C393 C394 1.396 1_554 S
C393 C403 1.510 . S
C394 C390 1.401 . S
C394 C393 1.396 1_556 S
C395 C390 1.499 . S
C395 H396 0.959 . S
C395 H397 0.960 . S
C395 H398 0.961 . S
H396 C395 0.959 . S
H397 C395 0.960 . S
H398 C395 0.961 . S
O399 Co374 1.967 1_554 S
O399 C407 1.258 . S
O400 Co375 1.941 . S
O400 C407 1.266 . S
H401 C403 0.959 . S
H402 C403 0.961 . S
C403 C393 1.510 . S
C403 H401 0.959 . S
C403 H402 0.961 . S
C403 H404 0.960 . S
H404 C403 0.960 . S
H405 N385 0.862 . S
O406 Co374 1.920 . S
O406 C379 1.289 . S
C407 O399 1.258 . S
C407 O400 1.266 . S
C408 C409 1.363 . S
C408 C414 1.379 . S
C408 N416 1.356 . S
C409 C408 1.363 . S
C409 C415 1.363 . S
C410 C411 1.363 . S
C410 C415 1.379 . S
C410 N417 1.356 . S
C411 C410 1.363 . S
C411 C414 1.363 . S
N412 C414 1.356 . S
N412 H424 0.984 . S
N412 H425 0.985 . S
N413 C415 1.356 . S
N413 H418 0.984 . S
N413 H419 0.985 . S
C414 C408 1.379 . S
C414 C411 1.363 . S
C414 N412 1.356 . S
C415 C409 1.363 . S
C415 C410 1.379 . S
C415 N413 1.356 . S
N416 C408 1.356 . S
N416 H422 0.984 . S
N416 H423 0.984 . S
N417 C410 1.356 . S
N417 H420 0.984 . S
N417 H421 0.985 . S
H418 N413 0.984 . S
H419 N413 0.985 . S
H420 N417 0.984 . S
H421 N417 0.985 . S
H422 N416 0.984 . S
H423 N416 0.984 . S
H424 N412 0.984 . S
H425 N412 0.985 . S
C426 C427 1.363 . S
C426 C432 1.379 . S
C426 N434 1.356 . S
C427 C426 1.363 . S
C427 C433 1.363 . S
C428 C429 1.363 . S
C428 C433 1.379 . S
C428 N435 1.356 . S
C429 C428 1.363 . S
C429 C432 1.363 . S
N430 C432 1.356 . S
N430 H442 0.984 . S
N430 H443 0.985 . S
N431 C433 1.356 . S
N431 H436 0.984 . S
N431 H437 0.985 . S
C432 C426 1.379 . S
C432 C429 1.363 . S
C432 N430 1.356 . S
C433 C427 1.363 . S
C433 C428 1.379 . S
C433 N431 1.356 . S
N434 C426 1.356 . S
N434 H440 0.984 . S
N434 H441 0.984 . S
N435 C428 1.356 . S
N435 H438 0.984 . S
N435 H439 0.985 . S
H436 N431 0.984 . S
H437 N431 0.985 . S
H438 N435 0.984 . S
H439 N435 0.985 . S
H440 N434 0.984 . S
H441 N434 0.984 . S
H442 N430 0.984 . S
H443 N430 0.985 . S
C444 C445 1.363 1_556 S
C444 C450 1.379 . S
C444 N452 1.356 1_556 S
C445 C444 1.363 1_554 S
C445 C451 1.363 1_545 S
C446 C447 1.363 1_554 S
C446 C451 1.379 . S
C446 N453 1.356 1_554 S
C447 C446 1.363 1_556 S
C447 C450 1.363 1_565 S
N448 C450 1.356 . S
N448 H460 0.984 . S
N448 H461 0.985 1_545 S
N449 C451 1.356 . S
N449 H454 0.984 1_565 S
N449 H455 0.985 . S
C450 C444 1.379 . S
C450 C447 1.363 1_545 S
C450 N448 1.356 . S
C451 C445 1.363 1_565 S
C451 C446 1.379 . S
C451 N449 1.356 . S
N452 C444 1.356 1_554 S
N452 H458 0.984 1_554 S
N452 H459 0.984 . S
N453 C446 1.356 1_556 S
N453 H456 0.984 . S
N453 H457 0.985 1_556 S
H454 N449 0.984 1_545 S
H455 N449 0.985 . S
H456 N453 0.984 . S
H457 N453 0.985 1_554 S
H458 N452 0.984 1_556 S
H459 N452 0.984 . S
H460 N448 0.984 . S
H461 N448 0.985 1_565 S
C462 C463 1.363 . S
C462 C468 1.379 . S
C462 N470 1.356 . S
C463 C462 1.363 . S
C463 C469 1.363 . S
C464 C465 1.363 . S
C464 C469 1.379 . S
C464 N471 1.356 . S
C465 C464 1.363 . S
C465 C468 1.363 . S
N466 C468 1.356 . S
N466 H478 0.984 . S
N466 H479 0.985 . S
N467 C469 1.356 . S
N467 H472 0.984 . S
N467 H473 0.985 . S
C468 C462 1.379 . S
C468 C465 1.363 . S
C468 N466 1.356 . S
C469 C463 1.363 . S
C469 C464 1.379 . S
C469 N467 1.356 . S
N470 C462 1.356 . S
N470 H476 0.984 . S
N470 H477 0.984 . S
N471 C464 1.356 . S
N471 H474 0.984 . S
N471 H475 0.985 . S
H472 N467 0.984 . S
H473 N467 0.985 . S
H474 N471 0.984 . S
H475 N471 0.985 . S
H476 N470 0.984 . S
H477 N470 0.984 . S
H478 N466 0.984 . S
H479 N466 0.985 . S
C480 C481 1.363 . S
C480 C486 1.379 . S
C480 N488 1.356 . S
C481 C480 1.363 . S
C481 C487 1.363 . S
C482 C483 1.363 . S
C482 C487 1.379 . S
C482 N489 1.356 . S
C483 C482 1.363 . S
C483 C486 1.363 . S
N484 C486 1.356 . S
N484 H496 0.984 . S
N484 H497 0.985 . S
N485 C487 1.356 . S
N485 H490 0.984 . S
N485 H491 0.985 . S
C486 C480 1.379 . S
C486 C483 1.363 . S
C486 N484 1.356 . S
C487 C481 1.363 . S
C487 C482 1.379 . S
C487 N485 1.356 . S
N488 C480 1.356 . S
N488 H494 0.984 . S
N488 H495 0.984 . S
N489 C482 1.356 . S
N489 H492 0.984 . S
N489 H493 0.985 . S
H490 N485 0.984 . S
H491 N485 0.985 . S
H492 N489 0.984 . S
H493 N489 0.985 . S
H494 N488 0.984 . S
H495 N488 0.984 . S
H496 N484 0.984 . S
H497 N484 0.985 . S
C498 C499 1.363 . S
C498 C504 1.379 . S
C498 N506 1.356 . S
C499 C498 1.363 . S
C499 C505 1.363 1_565 S
C500 C501 1.363 . S
C500 C505 1.379 . S
C500 N507 1.356 . S
C501 C500 1.363 . S
C501 C504 1.363 1_545 S
N502 C504 1.356 . S
N502 H514 0.984 . S
N502 H515 0.985 1_565 S
N503 C505 1.356 . S
N503 H508 0.984 1_545 S
N503 H509 0.985 . S
C504 C498 1.379 . S
C504 C501 1.363 1_565 S
C504 N502 1.356 . S
C505 C499 1.363 1_545 S
C505 C500 1.379 . S
C505 N503 1.356 . S
N506 C498 1.356 . S
N506 H512 0.984 . S
N506 H513 0.984 . S
N507 C500 1.356 . S
N507 H510 0.984 . S
N507 H511 0.985 . S
H508 N503 0.984 1_565 S
H509 N503 0.985 . S
H510 N507 0.984 . S
H511 N507 0.985 . S
H512 N506 0.984 . S
H513 N506 0.984 . S
H514 N502 0.984 . S
H515 N502 0.985 1_545 S
C516 C517 1.363 1_655 S
C516 C522 1.379 . S
C516 N524 1.356 . S
C517 C516 1.363 1_455 S
C517 C523 1.363 . S
C518 C519 1.363 . S
C518 C523 1.379 . S
C518 N525 1.356 . S
C519 C518 1.363 . S
C519 C522 1.363 1_455 S
N520 C522 1.356 . S
N520 H532 0.984 . S
N520 H533 0.985 . S
N521 C523 1.356 . S
N521 H526 0.984 1_554 S
N521 H527 0.985 . S
C522 C516 1.379 . S
C522 C519 1.363 1_655 S
C522 N520 1.356 . S
C523 C517 1.363 . S
C523 C518 1.379 . S
C523 N521 1.356 . S
N524 C516 1.356 . S
N524 H530 0.984 . S
N524 H531 0.984 . S
N525 C518 1.356 . S
N525 H528 0.984 . S
N525 H529 0.985 . S
H526 N521 0.984 1_556 S
H527 N521 0.985 . S
H528 N525 0.984 . S
H529 N525 0.985 . S
H530 N524 0.984 . S
H531 N524 0.984 . S
H532 N520 0.984 . S
H533 N520 0.985 . S
C534 C535 1.363 . S
C534 C540 1.379 . S
C534 N542 1.356 . S
C535 C534 1.363 . S
C535 C541 1.363 . S
C536 C537 1.363 . S
C536 C541 1.379 . S
C536 N543 1.356 . S
C537 C536 1.363 . S
C537 C540 1.363 . S
N538 C540 1.356 . S
N538 H550 0.984 . S
N538 H551 0.985 . S
N539 C541 1.356 . S
N539 H544 0.984 . S
N539 H545 0.985 . S
C540 C534 1.379 . S
C540 C537 1.363 . S
C540 N538 1.356 . S
C541 C535 1.363 . S
C541 C536 1.379 . S
C541 N539 1.356 . S
N542 C534 1.356 . S
N542 H548 0.984 . S
N542 H549 0.984 . S
N543 C536 1.356 . S
N543 H546 0.984 . S
N543 H547 0.985 . S
H544 N539 0.984 . S
H545 N539 0.985 . S
H546 N543 0.984 . S
H547 N543 0.985 . S
H548 N542 0.984 . S
H549 N542 0.984 . S
H550 N538 0.984 . S
H551 N538 0.985 . S
C552 C553 1.363 . S
C552 C558 1.379 . S
C552 N560 1.356 . S
C553 C552 1.363 . S
C553 C559 1.363 . S
C554 C555 1.363 . S
C554 C559 1.379 . S
C554 N561 1.356 . S
C555 C554 1.363 . S
C555 C558 1.363 . S
N556 C558 1.356 . S
N556 H568 0.984 1_556 S
N556 H569 0.985 . S
N557 C559 1.356 . S
N557 H562 0.984 . S
N557 H563 0.985 . S
C558 C552 1.379 . S
C558 C555 1.363 . S
C558 N556 1.356 . S
C559 C553 1.363 . S
C559 C554 1.379 . S
C559 N557 1.356 . S
N560 C552 1.356 . S
N560 H566 0.984 . S
N560 H567 0.984 . S
N561 C554 1.356 . S
N561 H564 0.984 . S
N561 H565 0.985 . S
H562 N557 0.984 . S
H563 N557 0.985 . S
H564 N561 0.984 . S
H565 N561 0.985 . S
H566 N560 0.984 . S
H567 N560 0.984 . S
H568 N556 0.984 1_554 S
H569 N556 0.985 . S
C570 C571 1.363 1_455 S
C570 C576 1.379 1_455 S
C570 N578 1.356 . S
C571 C570 1.363 1_655 S
C571 C577 1.363 . S
C572 C573 1.363 . S
C572 C577 1.379 . S
C572 N579 1.356 . S
C573 C572 1.363 . S
C573 C576 1.363 . S
N574 C576 1.356 1_455 S
N574 H586 0.984 . S
N574 H587 0.985 . S
N575 C577 1.356 . S
N575 H580 0.984 . S
N575 H581 0.985 . S
C576 C570 1.379 1_655 S
C576 C573 1.363 . S
C576 N574 1.356 1_655 S
C577 C571 1.363 . S
C577 C572 1.379 . S
C577 N575 1.356 . S
N578 C570 1.356 . S
N578 H584 0.984 . S
N578 H585 0.984 . S
N579 C572 1.356 . S
N579 H582 0.984 . S
N579 H583 0.985 . S
H580 N575 0.984 . S
H581 N575 0.985 . S
H582 N579 0.984 . S
H583 N579 0.985 . S
H584 N578 0.984 . S
H585 N578 0.984 . S
H586 N574 0.984 . S
H587 N574 0.985 . S
C588 C589 1.363 . S
C588 C594 1.379 . S
C588 N596 1.356 1_554 S
C589 C588 1.363 . S
C589 C595 1.363 . S
C590 C591 1.363 . S
C590 C595 1.379 . S
C590 N597 1.356 . S
C591 C590 1.363 . S
C591 C594 1.363 . S
N592 C594 1.356 . S
N592 H604 0.984 1_554 S
N592 H605 0.985 . S
N593 C595 1.356 . S
N593 H598 0.984 . S
N593 H599 0.985 . S
C594 C588 1.379 . S
C594 C591 1.363 . S
C594 N592 1.356 . S
C595 C589 1.363 . S
C595 C590 1.379 . S
C595 N593 1.356 . S
N596 C588 1.356 1_556 S
N596 H602 0.984 . S
N596 H603 0.984 . S
N597 C590 1.356 . S
N597 H600 0.984 . S
N597 H601 0.985 . S
H598 N593 0.984 . S
H599 N593 0.985 . S
H600 N597 0.984 . S
H601 N597 0.985 . S
H602 N596 0.984 . S
H603 N596 0.984 . S
H604 N592 0.984 1_556 S
H605 N592 0.985 . S
C606 C607 1.363 . S
C606 C612 1.379 . S
C606 N614 1.356 . S
C607 C606 1.363 . S
C607 C613 1.363 . S
C608 C609 1.363 . S
C608 C613 1.379 . S
C608 N615 1.356 . S
C609 C608 1.363 . S
C609 C612 1.363 . S
N610 C612 1.356 . S
N610 H622 0.984 . S
N610 H623 0.985 . S
N611 C613 1.356 . S
N611 H616 0.984 . S
N611 H617 0.985 . S
C612 C606 1.379 . S
C612 C609 1.363 . S
C612 N610 1.356 . S
C613 C607 1.363 . S
C613 C608 1.379 . S
C613 N611 1.356 . S
N614 C606 1.356 . S
N614 H620 0.984 . S
N614 H621 0.984 . S
N615 C608 1.356 . S
N615 H618 0.984 . S
N615 H619 0.985 . S
H616 N611 0.984 . S
H617 N611 0.985 . S
H618 N615 0.984 . S
H619 N615 0.985 . S
H620 N614 0.984 . S
H621 N614 0.984 . S
H622 N610 0.984 . S
H623 N610 0.985 . S
C624 C625 1.363 . S
C624 C630 1.379 . S
C624 N632 1.356 . S
C625 C624 1.363 . S
C625 C631 1.363 . S
C626 C627 1.363 . S
C626 C631 1.379 . S
C626 N633 1.356 . S
C627 C626 1.363 . S
C627 C630 1.363 . S
N628 C630 1.356 . S
N628 H640 0.984 . S
N628 H641 0.985 . S
N629 C631 1.356 . S
N629 H634 0.984 . S
N629 H635 0.985 . S
C630 C624 1.379 . S
C630 C627 1.363 . S
C630 N628 1.356 . S
C631 C625 1.363 . S
C631 C626 1.379 . S
C631 N629 1.356 . S
N632 C624 1.356 . S
N632 H638 0.984 . S
N632 H639 0.984 . S
N633 C626 1.356 . S
N633 H636 0.984 . S
N633 H637 0.985 . S
H634 N629 0.984 . S
H635 N629 0.985 . S
H636 N633 0.984 . S
H637 N633 0.985 . S
H638 N632 0.984 . S
H639 N632 0.984 . S
H640 N628 0.984 . S
H641 N628 0.985 . S
C642 C643 1.363 . S
C642 C648 1.379 . S
C642 N650 1.356 . S
C643 C642 1.363 . S
C643 C649 1.363 . S
C644 C645 1.363 . S
C644 C649 1.379 . S
C644 N651 1.356 . S
C645 C644 1.363 . S
C645 C648 1.363 . S
N646 C648 1.356 . S
N646 H658 0.984 . S
N646 H659 0.985 . S
N647 C649 1.356 1_554 S
N647 H652 0.984 . S
N647 H653 0.985 . S
C648 C642 1.379 . S
C648 C645 1.363 . S
C648 N646 1.356 . S
C649 C643 1.363 . S
C649 C644 1.379 . S
C649 N647 1.356 1_556 S
N650 C642 1.356 . S
N650 H656 0.984 . S
N650 H657 0.984 . S
N651 C644 1.356 . S
N651 H654 0.984 . S
N651 H655 0.985 . S
H652 N647 0.984 . S
H653 N647 0.985 . S
H654 N651 0.984 . S
H655 N651 0.985 . S
H656 N650 0.984 . S
H657 N650 0.984 . S
H658 N646 0.984 . S
H659 N646 0.985 . S
C660 C661 1.363 . S
C660 C666 1.379 . S
C660 N668 1.356 . S
C661 C660 1.363 . S
C661 C667 1.363 . S
C662 C663 1.363 . S
C662 C667 1.379 . S
C662 N669 1.356 . S
C663 C662 1.363 . S
C663 C666 1.363 . S
N664 C666 1.356 . S
N664 H676 0.984 . S
N664 H677 0.985 . S
N665 C667 1.356 . S
N665 H670 0.984 . S
N665 H671 0.985 . S
C666 C660 1.379 . S
C666 C663 1.363 . S
C666 N664 1.356 . S
C667 C661 1.363 . S
C667 C662 1.379 . S
C667 N665 1.356 . S
N668 C660 1.356 . S
N668 H674 0.984 . S
N668 H675 0.984 . S
N669 C662 1.356 . S
N669 H672 0.984 . S
N669 H673 0.985 . S
H670 N665 0.984 . S
H671 N665 0.985 . S
H672 N669 0.984 . S
H673 N669 0.985 . S
H674 N668 0.984 . S
H675 N668 0.984 . S
H676 N664 0.984 . S
H677 N664 0.985 . S
C678 C679 1.363 . S
C678 C684 1.379 . S
C678 N686 1.356 1_556 S
C679 C678 1.363 . S
C679 C685 1.363 . S
C680 C681 1.363 . S
C680 C685 1.379 . S
C680 N687 1.356 . S
C681 C680 1.363 . S
C681 C684 1.363 . S
N682 C684 1.356 . S
N682 H694 0.984 1_556 S
N682 H695 0.985 . S
N683 C685 1.356 . S
N683 H688 0.984 . S
N683 H689 0.985 . S
C684 C678 1.379 . S
C684 C681 1.363 . S
C684 N682 1.356 . S
C685 C679 1.363 . S
C685 C680 1.379 . S
C685 N683 1.356 . S
N686 C678 1.356 1_554 S
N686 H692 0.984 . S
N686 H693 0.984 . S
N687 C680 1.356 . S
N687 H690 0.984 . S
N687 H691 0.985 . S
H688 N683 0.984 . S
H689 N683 0.985 . S
H690 N687 0.984 . S
H691 N687 0.985 . S
H692 N686 0.984 . S
H693 N686 0.984 . S
H694 N682 0.984 1_554 S
H695 N682 0.985 . S
C696 C697 1.363 . S
C696 C702 1.379 . S
C696 N704 1.356 . S
C697 C696 1.363 . S
C697 C703 1.363 . S
C698 C699 1.363 . S
C698 C703 1.379 . S
C698 N705 1.356 . S
C699 C698 1.363 . S
C699 C702 1.363 . S
N700 C702 1.356 . S
N700 H712 0.984 . S
N700 H713 0.985 . S
N701 C703 1.356 . S
N701 H706 0.984 . S
N701 H707 0.985 . S
C702 C696 1.379 . S
C702 C699 1.363 . S
C702 N700 1.356 . S
C703 C697 1.363 . S
C703 C698 1.379 . S
C703 N701 1.356 . S
N704 C696 1.356 . S
N704 H710 0.984 . S
N704 H711 0.984 . S
N705 C698 1.356 . S
N705 H708 0.984 . S
N705 H709 0.985 . S
H706 N701 0.984 . S
H707 N701 0.985 . S
H708 N705 0.984 . S
H709 N705 0.985 . S
H710 N704 0.984 . S
H711 N704 0.984 . S
H712 N700 0.984 . S
H713 N700 0.985 . S
C714 C715 1.363 . S
C714 C720 1.379 . S
C714 N722 1.356 . S
C715 C714 1.363 . S
C715 C721 1.363 . S
C716 C717 1.363 . S
C716 C721 1.379 . S
C716 N723 1.356 . S
C717 C716 1.363 . S
C717 C720 1.363 . S
N718 C720 1.356 . S
N718 H730 0.984 1_554 S
N718 H731 0.985 . S
N719 C721 1.356 . S
N719 H724 0.984 . S
N719 H725 0.985 . S
C720 C714 1.379 . S
C720 C717 1.363 . S
C720 N718 1.356 . S
C721 C715 1.363 . S
C721 C716 1.379 . S
C721 N719 1.356 . S
N722 C714 1.356 . S
N722 H728 0.984 . S
N722 H729 0.984 . S
N723 C716 1.356 . S
N723 H726 0.984 . S
N723 H727 0.985 . S
H724 N719 0.984 . S
H725 N719 0.985 . S
H726 N723 0.984 . S
H727 N723 0.985 . S
H728 N722 0.984 . S
H729 N722 0.984 . S
H730 N718 0.984 1_556 S
H731 N718 0.985 . S
C732 C733 1.363 . S
C732 C738 1.379 . S
C732 N740 1.356 . S
C733 C732 1.363 . S
C733 C739 1.363 . S
C734 C735 1.363 . S
C734 C739 1.379 . S
C734 N741 1.356 . S
C735 C734 1.363 . S
C735 C738 1.363 . S
N736 C738 1.356 . S
N736 H748 0.984 . S
N736 H749 0.985 . S
N737 C739 1.356 . S
N737 H742 0.984 . S
N737 H743 0.985 . S
C738 C732 1.379 . S
C738 C735 1.363 . S
C738 N736 1.356 . S
C739 C733 1.363 . S
C739 C734 1.379 . S
C739 N737 1.356 . S
N740 C732 1.356 . S
N740 H746 0.984 . S
N740 H747 0.984 . S
N741 C734 1.356 . S
N741 H744 0.984 . S
N741 H745 0.985 . S
H742 N737 0.984 . S
H743 N737 0.985 . S
H744 N741 0.984 . S
H745 N741 0.985 . S
H746 N740 0.984 . S
H747 N740 0.984 . S
H748 N736 0.984 . S
H749 N736 0.985 . S
C750 C751 1.363 . S
C750 C756 1.379 . S
C750 N758 1.356 . S
C751 C750 1.363 . S
C751 C757 1.363 . S
C752 C753 1.363 . S
C752 C757 1.379 . S
C752 N759 1.356 . S
C753 C752 1.363 . S
C753 C756 1.363 . S
N754 C756 1.356 . S
N754 H766 0.984 . S
N754 H767 0.985 . S
N755 C757 1.356 . S
N755 H760 0.984 . S
N755 H761 0.985 . S
C756 C750 1.379 . S
C756 C753 1.363 . S
C756 N754 1.356 . S
C757 C751 1.363 . S
C757 C752 1.379 . S
C757 N755 1.356 . S
N758 C750 1.356 . S
N758 H764 0.984 . S
N758 H765 0.984 . S
N759 C752 1.356 . S
N759 H762 0.984 . S
N759 H763 0.985 . S
H760 N755 0.984 . S
H761 N755 0.985 . S
H762 N759 0.984 . S
H763 N759 0.985 . S
H764 N758 0.984 . S
H765 N758 0.984 . S
H766 N754 0.984 . S
H767 N754 0.985 . S
C768 C769 1.363 . S
C768 C774 1.379 . S
C768 N776 1.356 . S
C769 C768 1.363 . S
C769 C775 1.363 . S
C770 C771 1.363 . S
C770 C775 1.379 . S
C770 N777 1.356 . S
C771 C770 1.363 . S
C771 C774 1.363 . S
N772 C774 1.356 . S
N772 H784 0.984 . S
N772 H785 0.985 . S
N773 C775 1.356 . S
N773 H778 0.984 . S
N773 H779 0.985 . S
C774 C768 1.379 . S
C774 C771 1.363 . S
C774 N772 1.356 . S
C775 C769 1.363 . S
C775 C770 1.379 . S
C775 N773 1.356 . S
N776 C768 1.356 . S
N776 H782 0.984 . S
N776 H783 0.984 . S
N777 C770 1.356 . S
N777 H780 0.984 . S
N777 H781 0.985 . S
H778 N773 0.984 . S
H779 N773 0.985 . S
H780 N777 0.984 . S
H781 N777 0.985 . S
H782 N776 0.984 . S
H783 N776 0.984 . S
H784 N772 0.984 . S
H785 N772 0.985 . S
C786 C787 1.363 . S
C786 C792 1.379 . S
C786 N794 1.356 . S
C787 C786 1.363 . S
C787 C793 1.363 . S
C788 C789 1.363 . S
C788 C793 1.379 . S
C788 N795 1.356 . S
C789 C788 1.363 . S
C789 C792 1.363 . S
N790 C792 1.356 . S
N790 H802 0.984 . S
N790 H803 0.985 . S
N791 C793 1.356 . S
N791 H796 0.984 . S
N791 H797 0.985 . S
C792 C786 1.379 . S
C792 C789 1.363 . S
C792 N790 1.356 . S
C793 C787 1.363 . S
C793 C788 1.379 . S
C793 N791 1.356 . S
N794 C786 1.356 . S
N794 H800 0.984 . S
N794 H801 0.984 . S
N795 C788 1.356 . S
N795 H798 0.984 . S
N795 H799 0.985 . S
H796 N791 0.984 . S
H797 N791 0.985 . S
H798 N795 0.984 . S
H799 N795 0.985 . S
H800 N794 0.984 . S
H801 N794 0.984 . S
H802 N790 0.984 . S
H803 N790 0.985 . S
C804 C805 1.363 . S
C804 C810 1.379 . S
C804 N812 1.356 . S
C805 C804 1.363 . S
C805 C811 1.363 . S
C806 C807 1.363 . S
C806 C811 1.379 . S
C806 N813 1.356 . S
C807 C806 1.363 . S
C807 C810 1.363 . S
N808 C810 1.356 . S
N808 H820 0.984 . S
N808 H821 0.985 . S
N809 C811 1.356 . S
N809 H814 0.984 . S
N809 H815 0.985 . S
C810 C804 1.379 . S
C810 C807 1.363 . S
C810 N808 1.356 . S
C811 C805 1.363 . S
C811 C806 1.379 . S
C811 N809 1.356 . S
N812 C804 1.356 . S
N812 H818 0.984 . S
N812 H819 0.984 . S
N813 C806 1.356 . S
N813 H816 0.984 . S
N813 H817 0.985 . S
H814 N809 0.984 . S
H815 N809 0.985 . S
H816 N813 0.984 . S
H817 N813 0.985 . S
H818 N812 0.984 . S
H819 N812 0.984 . S
H820 N808 0.984 . S
H821 N808 0.985 . S
C822 C823 1.363 . S
C822 C828 1.379 . S
C822 N830 1.356 . S
C823 C822 1.363 . S
C823 C829 1.363 . S
C824 C825 1.363 . S
C824 C829 1.379 . S
C824 N831 1.356 . S
C825 C824 1.363 . S
C825 C828 1.363 . S
N826 C828 1.356 . S
N826 H838 0.984 . S
N826 H839 0.985 . S
N827 C829 1.356 . S
N827 H832 0.984 . S
N827 H833 0.985 . S
C828 C822 1.379 . S
C828 C825 1.363 . S
C828 N826 1.356 . S
C829 C823 1.363 . S
C829 C824 1.379 . S
C829 N827 1.356 . S
N830 C822 1.356 . S
N830 H836 0.984 . S
N830 H837 0.984 . S
N831 C824 1.356 . S
N831 H834 0.984 . S
N831 H835 0.985 . S
H832 N827 0.984 . S
H833 N827 0.985 . S
H834 N831 0.984 . S
H835 N831 0.985 . S
H836 N830 0.984 . S
H837 N830 0.984 . S
H838 N826 0.984 . S
H839 N826 0.985 . S
C840 C841 1.363 . S
C840 C846 1.379 . S
C840 N848 1.356 . S
C841 C840 1.363 . S
C841 C847 1.363 . S
C842 C843 1.363 . S
C842 C847 1.379 . S
C842 N849 1.356 . S
C843 C842 1.363 . S
C843 C846 1.363 . S
N844 C846 1.356 . S
N844 H856 0.984 . S
N844 H857 0.985 . S
N845 C847 1.356 . S
N845 H850 0.984 . S
N845 H851 0.985 . S
C846 C840 1.379 . S
C846 C843 1.363 . S
C846 N844 1.356 . S
C847 C841 1.363 . S
C847 C842 1.379 . S
C847 N845 1.356 . S
N848 C840 1.356 . S
N848 H854 0.984 . S
N848 H855 0.984 . S
N849 C842 1.356 . S
N849 H852 0.984 . S
N849 H853 0.985 . S
H850 N845 0.984 . S
H851 N845 0.985 . S
H852 N849 0.984 . S
H853 N849 0.985 . S
H854 N848 0.984 . S
H855 N848 0.984 . S
H856 N844 0.984 . S
H857 N844 0.985 . S
C858 C859 1.363 . S
C858 C864 1.379 . S
C858 N866 1.356 1_556 S
C859 C858 1.363 . S
C859 C865 1.363 . S
C860 C861 1.363 1_655 S
C860 C865 1.379 . S
C860 N867 1.356 . S
C861 C860 1.363 1_455 S
C861 C864 1.363 1_455 S
N862 C864 1.356 1_455 S
N862 H874 0.984 1_556 S
N862 H875 0.985 . S
N863 C865 1.356 . S
N863 H868 0.984 . S
N863 H869 0.985 . S
C864 C858 1.379 . S
C864 C861 1.363 1_655 S
C864 N862 1.356 1_655 S
C865 C859 1.363 . S
C865 C860 1.379 . S
C865 N863 1.356 . S
N866 C858 1.356 1_554 S
N866 H872 0.984 . S
N866 H873 0.984 . S
N867 C860 1.356 . S
N867 H870 0.984 1_655 S
N867 H871 0.985 . S
H868 N863 0.984 . S
H869 N863 0.985 . S
H870 N867 0.984 1_455 S
H871 N867 0.985 . S
H872 N866 0.984 . S
H873 N866 0.984 . S
H874 N862 0.984 1_554 S
H875 N862 0.985 . S
C876 C877 1.363 . S
C876 C882 1.379 . S
C876 N884 1.356 . S
C877 C876 1.363 . S
C877 C883 1.363 . S
C878 C879 1.363 . S
C878 C883 1.379 . S
C878 N885 1.356 . S
C879 C878 1.363 . S
C879 C882 1.363 . S
N880 C882 1.356 . S
N880 H892 0.984 . S
N880 H893 0.985 . S
N881 C883 1.356 . S
N881 H886 0.984 . S
N881 H887 0.985 1_565 S
C882 C876 1.379 . S
C882 C879 1.363 . S
C882 N880 1.356 . S
C883 C877 1.363 . S
C883 C878 1.379 . S
C883 N881 1.356 . S
N884 C876 1.356 . S
N884 H890 0.984 . S
N884 H891 0.984 . S
N885 C878 1.356 . S
N885 H888 0.984 . S
N885 H889 0.985 1_565 S
H886 N881 0.984 . S
H887 N881 0.985 1_545 S
H888 N885 0.984 . S
H889 N885 0.985 1_545 S
H890 N884 0.984 . S
H891 N884 0.984 . S
H892 N880 0.984 . S
H893 N880 0.985 . S
C894 C895 1.363 . S
C894 C900 1.379 . S
C894 N902 1.356 . S
C895 C894 1.363 . S
C895 C901 1.363 . S
C896 C897 1.363 . S
C896 C901 1.379 . S
C896 N903 1.356 . S
C897 C896 1.363 . S
C897 C900 1.363 . S
N898 C900 1.356 . S
N898 H910 0.984 . S
N898 H911 0.985 . S
N899 C901 1.356 . S
N899 H904 0.984 . S
N899 H905 0.985 . S
C900 C894 1.379 . S
C900 C897 1.363 . S
C900 N898 1.356 . S
C901 C895 1.363 . S
C901 C896 1.379 . S
C901 N899 1.356 . S
N902 C894 1.356 . S
N902 H908 0.984 . S
N902 H909 0.984 . S
N903 C896 1.356 . S
N903 H906 0.984 . S
N903 H907 0.985 . S
H904 N899 0.984 . S
H905 N899 0.985 . S
H906 N903 0.984 . S
H907 N903 0.985 . S
H908 N902 0.984 . S
H909 N902 0.984 . S
H910 N898 0.984 . S
H911 N898 0.985 . S
C912 C913 1.363 . S
C912 C918 1.379 1_655 S
C912 N920 1.356 . S
C913 C912 1.363 . S
C913 C919 1.363 1_655 S
C914 C915 1.363 . S
C914 C919 1.379 . S
C914 N921 1.356 . S
C915 C914 1.363 . S
C915 C918 1.363 . S
N916 C918 1.356 . S
N916 H928 0.984 1_455 S
N916 H929 0.985 . S
N917 C919 1.356 . S
N917 H922 0.984 . S
N917 H923 0.985 . S
C918 C912 1.379 1_455 S
C918 C915 1.363 . S
C918 N916 1.356 . S
C919 C913 1.363 1_455 S
C919 C914 1.379 . S
C919 N917 1.356 . S
N920 C912 1.356 . S
N920 H926 0.984 . S
N920 H927 0.984 . S
N921 C914 1.356 . S
N921 H924 0.984 . S
N921 H925 0.985 . S
H922 N917 0.984 . S
H923 N917 0.985 . S
H924 N921 0.984 . S
H925 N921 0.985 . S
H926 N920 0.984 . S
H927 N920 0.984 . S
H928 N916 0.984 1_655 S
H929 N916 0.985 . S
C930 C931 1.363 . S
C930 C936 1.379 . S
C930 N938 1.356 . S
C931 C930 1.363 . S
C931 C937 1.363 . S
C932 C933 1.363 . S
C932 C937 1.379 . S
C932 N939 1.356 . S
C933 C932 1.363 . S
C933 C936 1.363 . S
N934 C936 1.356 . S
N934 H946 0.984 . S
N934 H947 0.985 . S
N935 C937 1.356 . S
N935 H940 0.984 . S
N935 H941 0.985 1_545 S
C936 C930 1.379 . S
C936 C933 1.363 . S
C936 N934 1.356 . S
C937 C931 1.363 . S
C937 C932 1.379 . S
C937 N935 1.356 . S
N938 C930 1.356 . S
N938 H944 0.984 . S
N938 H945 0.984 . S
N939 C932 1.356 . S
N939 H942 0.984 . S
N939 H943 0.985 1_545 S
H940 N935 0.984 . S
H941 N935 0.985 1_565 S
H942 N939 0.984 . S
H943 N939 0.985 1_565 S
H944 N938 0.984 . S
H945 N938 0.984 . S
H946 N934 0.984 . S
H947 N934 0.985 . S
C409 C339 0.777 . S
C411 C33 0.789 . S
C427 C67 0.780 . S
C429 C373 0.787 . S
C445 C407 1.231 . S
C447 C101 1.229 . S
C463 C135 0.789 . S
C465 C237 0.782 . S
C481 C169 0.776 . S
C483 C271 0.787 . S
C499 C305 1.555 . S
C501 C203 1.554 . S
C517 C9 2.028 . S
C519 C138 2.167 . S
C535 C172 1.744 . S
C537 C43 1.721 . S
C553 C77 2.045 . S
C555 C2 2.205 . S
C571 C111 2.042 . S
C573 C36 2.203 . S
C589 C70 1.675 . S
C591 C145 1.657 . S
C607 C104 2.350 . S
C609 C179 2.166 . S
C625 C274 1.744 . S
C627 C213 1.721 . S
C643 C247 2.021 . S
C645 C308 2.167 . S
C661 C342 2.349 . S
C663 C281 2.165 . S
C679 C376 1.675 . S
C681 C315 1.657 . S
C697 C206 2.204 . S
C699 C349 2.042 . S
C715 C383 2.044 . S
C717 C240 2.204 . S
C733 C360 1.440 . S
C735 C20 1.435 . S
C751 C394 1.619 . S
C753 C54 1.508 . S
C769 C88 1.620 . S
C771 C224 1.508 . S
C787 C122 1.440 . S
C789 C258 1.435 . S
C805 C292 1.653 . S
C807 C156 1.560 . S
C823 C190 1.653 . S
C825 C326 1.560 . S
C841 C209 1.187 . S
C843 C5 1.372 . S
C859 C243 1.372 . S
C861 C39 1.187 . S
C877 C73 1.025 . S
C879 C277 1.038 . S
C895 C311 1.182 . S
C897 C107 1.413 . S
C913 C141 1.182 . S
C915 C345 1.413 . S
C931 C379 1.025 . S
C933 C175 1.038 . S
