# Generated by pormake.
# Topology smq, (6)-cn, num edge types: 1
# Building blocks:
#     Node 0, Type 0, BuildingBlock: IZENUY_clean_sbu_0, # of connection points: 6
#     Node 1, Type 0, BuildingBlock: IZENUY_clean_sbu_0, # of connection points: 6
#     Node 2, Type 0, BuildingBlock: IZENUY_clean_sbu_0, # of connection points: 6
#     Node 3, Type 0, BuildingBlock: IZENUY_clean_sbu_0, # of connection points: 6
#     Node 4, Type 0, BuildingBlock: IZENUY_clean_sbu_0, # of connection points: 6
#     Node 5, Type 0, BuildingBlock: IZENUY_clean_sbu_0, # of connection points: 6
#     Node 6, Type 0, BuildingBlock: IZENUY_clean_sbu_0, # of connection points: 6
#     Node 7, Type 0, BuildingBlock: IZENUY_clean_sbu_0, # of connection points: 6
#     Node 8, Type 0, BuildingBlock: IZENUY_clean_sbu_0, # of connection points: 6
#     Node 9, Type 0, BuildingBlock: IZENUY_clean_sbu_0, # of connection points: 6
#     Node 10, Type 0, BuildingBlock: IZENUY_clean_sbu_0, # of connection points: 6
#     Node 11, Type 0, BuildingBlock: IZENUY_clean_sbu_0, # of connection points: 6
#     Node 12, Type 0, BuildingBlock: IZENUY_clean_sbu_0, # of connection points: 6
#     Node 13, Type 0, BuildingBlock: IZENUY_clean_sbu_0, # of connection points: 6
#     Node 14, Type 0, BuildingBlock: IZENUY_clean_sbu_0, # of connection points: 6
#     Node 15, Type 0, BuildingBlock: IZENUY_clean_sbu_0, # of connection points: 6
#     Node 16, Type 0, BuildingBlock: IZENUY_clean_sbu_0, # of connection points: 6
#     Node 17, Type 0, BuildingBlock: IZENUY_clean_sbu_0, # of connection points: 6
#     Node 18, Type 0, BuildingBlock: IZENUY_clean_sbu_0, # of connection points: 6
#     Node 19, Type 0, BuildingBlock: IZENUY_clean_sbu_0, # of connection points: 6
#     Node 20, Type 0, BuildingBlock: IZENUY_clean_sbu_0, # of connection points: 6
#     Node 21, Type 0, BuildingBlock: IZENUY_clean_sbu_0, # of connection points: 6
#     Node 22, Type 0, BuildingBlock: IZENUY_clean_sbu_0, # of connection points: 6
#     Node 23, Type 0, BuildingBlock: IZENUY_clean_sbu_0, # of connection points: 6
#     Edge 24, Type (0, 0), BuildingBlock: OJICUG_clean_linker_0, # of connection points: 2
#     Edge 25, Type (0, 0), BuildingBlock: OJICUG_clean_linker_0, # of connection points: 2
#     Edge 26, Type (0, 0), BuildingBlock: OJICUG_clean_linker_0, # of connection points: 2
#     Edge 27, Type (0, 0), BuildingBlock: OJICUG_clean_linker_0, # of connection points: 2
#     Edge 28, Type (0, 0), BuildingBlock: OJICUG_clean_linker_0, # of connection points: 2
#     Edge 29, Type (0, 0), BuildingBlock: OJICUG_clean_linker_0, # of connection points: 2
#     Edge 30, Type (0, 0), BuildingBlock: OJICUG_clean_linker_0, # of connection points: 2
#     Edge 31, Type (0, 0), BuildingBlock: OJICUG_clean_linker_0, # of connection points: 2
#     Edge 32, Type (0, 0), BuildingBlock: OJICUG_clean_linker_0, # of connection points: 2
#     Edge 33, Type (0, 0), BuildingBlock: OJICUG_clean_linker_0, # of connection points: 2
#     Edge 34, Type (0, 0), BuildingBlock: OJICUG_clean_linker_0, # of connection points: 2
#     Edge 35, Type (0, 0), BuildingBlock: OJICUG_clean_linker_0, # of connection points: 2
#     Edge 36, Type (0, 0), BuildingBlock: OJICUG_clean_linker_0, # of connection points: 2
#     Edge 37, Type (0, 0), BuildingBlock: OJICUG_clean_linker_0, # of connection points: 2
#     Edge 38, Type (0, 0), BuildingBlock: OJICUG_clean_linker_0, # of connection points: 2
#     Edge 39, Type (0, 0), BuildingBlock: OJICUG_clean_linker_0, # of connection points: 2
#     Edge 40, Type (0, 0), BuildingBlock: OJICUG_clean_linker_0, # of connection points: 2
#     Edge 41, Type (0, 0), BuildingBlock: OJICUG_clean_linker_0, # of connection points: 2
#     Edge 42, Type (0, 0), BuildingBlock: OJICUG_clean_linker_0, # of connection points: 2
#     Edge 43, Type (0, 0), BuildingBlock: OJICUG_clean_linker_0, # of connection points: 2
#     Edge 44, Type (0, 0), BuildingBlock: OJICUG_clean_linker_0, # of connection points: 2
#     Edge 45, Type (0, 0), BuildingBlock: OJICUG_clean_linker_0, # of connection points: 2
#     Edge 46, Type (0, 0), BuildingBlock: OJICUG_clean_linker_0, # of connection points: 2
#     Edge 47, Type (0, 0), BuildingBlock: OJICUG_clean_linker_0, # of connection points: 2
#     Edge 48, Type (0, 0), BuildingBlock: OJICUG_clean_linker_0, # of connection points: 2
#     Edge 49, Type (0, 0), BuildingBlock: OJICUG_clean_linker_0, # of connection points: 2
#     Edge 50, Type (0, 0), BuildingBlock: OJICUG_clean_linker_0, # of connection points: 2
#     Edge 51, Type (0, 0), BuildingBlock: OJICUG_clean_linker_0, # of connection points: 2
#     Edge 52, Type (0, 0), BuildingBlock: OJICUG_clean_linker_0, # of connection points: 2
#     Edge 53, Type (0, 0), BuildingBlock: OJICUG_clean_linker_0, # of connection points: 2
#     Edge 54, Type (0, 0), BuildingBlock: OJICUG_clean_linker_0, # of connection points: 2
#     Edge 55, Type (0, 0), BuildingBlock: OJICUG_clean_linker_0, # of connection points: 2
#     Edge 56, Type (0, 0), BuildingBlock: OJICUG_clean_linker_0, # of connection points: 2
#     Edge 57, Type (0, 0), BuildingBlock: OJICUG_clean_linker_0, # of connection points: 2
#     Edge 58, Type (0, 0), BuildingBlock: OJICUG_clean_linker_0, # of connection points: 2
#     Edge 59, Type (0, 0), BuildingBlock: OJICUG_clean_linker_0, # of connection points: 2
#     Edge 60, Type (0, 0), BuildingBlock: OJICUG_clean_linker_0, # of connection points: 2
#     Edge 61, Type (0, 0), BuildingBlock: OJICUG_clean_linker_0, # of connection points: 2
#     Edge 62, Type (0, 0), BuildingBlock: OJICUG_clean_linker_0, # of connection points: 2
#     Edge 63, Type (0, 0), BuildingBlock: OJICUG_clean_linker_0, # of connection points: 2
#     Edge 64, Type (0, 0), BuildingBlock: OJICUG_clean_linker_0, # of connection points: 2
#     Edge 65, Type (0, 0), BuildingBlock: OJICUG_clean_linker_0, # of connection points: 2
#     Edge 66, Type (0, 0), BuildingBlock: OJICUG_clean_linker_0, # of connection points: 2
#     Edge 67, Type (0, 0), BuildingBlock: OJICUG_clean_linker_0, # of connection points: 2
#     Edge 68, Type (0, 0), BuildingBlock: OJICUG_clean_linker_0, # of connection points: 2
#     Edge 69, Type (0, 0), BuildingBlock: OJICUG_clean_linker_0, # of connection points: 2
#     Edge 70, Type (0, 0), BuildingBlock: OJICUG_clean_linker_0, # of connection points: 2
#     Edge 71, Type (0, 0), BuildingBlock: OJICUG_clean_linker_0, # of connection points: 2
#     Edge 72, Type (0, 0), BuildingBlock: OJICUG_clean_linker_0, # of connection points: 2
#     Edge 73, Type (0, 0), BuildingBlock: OJICUG_clean_linker_0, # of connection points: 2
#     Edge 74, Type (0, 0), BuildingBlock: OJICUG_clean_linker_0, # of connection points: 2
#     Edge 75, Type (0, 0), BuildingBlock: OJICUG_clean_linker_0, # of connection points: 2
#     Edge 76, Type (0, 0), BuildingBlock: OJICUG_clean_linker_0, # of connection points: 2
#     Edge 77, Type (0, 0), BuildingBlock: OJICUG_clean_linker_0, # of connection points: 2
#     Edge 78, Type (0, 0), BuildingBlock: OJICUG_clean_linker_0, # of connection points: 2
#     Edge 79, Type (0, 0), BuildingBlock: OJICUG_clean_linker_0, # of connection points: 2
#     Edge 80, Type (0, 0), BuildingBlock: OJICUG_clean_linker_0, # of connection points: 2
#     Edge 81, Type (0, 0), BuildingBlock: OJICUG_clean_linker_0, # of connection points: 2
#     Edge 82, Type (0, 0), BuildingBlock: OJICUG_clean_linker_0, # of connection points: 2
#     Edge 83, Type (0, 0), BuildingBlock: OJICUG_clean_linker_0, # of connection points: 2
#     Edge 84, Type (0, 0), BuildingBlock: OJICUG_clean_linker_0, # of connection points: 2
#     Edge 85, Type (0, 0), BuildingBlock: OJICUG_clean_linker_0, # of connection points: 2
#     Edge 86, Type (0, 0), BuildingBlock: OJICUG_clean_linker_0, # of connection points: 2
#     Edge 87, Type (0, 0), BuildingBlock: OJICUG_clean_linker_0, # of connection points: 2
#     Edge 88, Type (0, 0), BuildingBlock: OJICUG_clean_linker_0, # of connection points: 2
#     Edge 89, Type (0, 0), BuildingBlock: OJICUG_clean_linker_0, # of connection points: 2
#     Edge 90, Type (0, 0), BuildingBlock: OJICUG_clean_linker_0, # of connection points: 2
#     Edge 91, Type (0, 0), BuildingBlock: OJICUG_clean_linker_0, # of connection points: 2
#     Edge 92, Type (0, 0), BuildingBlock: OJICUG_clean_linker_0, # of connection points: 2
#     Edge 93, Type (0, 0), BuildingBlock: OJICUG_clean_linker_0, # of connection points: 2
#     Edge 94, Type (0, 0), BuildingBlock: OJICUG_clean_linker_0, # of connection points: 2
#     Edge 95, Type (0, 0), BuildingBlock: OJICUG_clean_linker_0, # of connection points: 2
# Relax obj value: 0.236
# Max RMSD: 0.214
# Mean RMSD: 0.213
data_MOF--net-smq--node1-IZENUY_clean_sbu_0--edge1-OJICUG_clean_linker_0
_symmetry_space_group_name_H-M    P1
_symmetry_Int_Tables_number       1
_symmetry_cell_setting            triclinic
loop_
_symmetry_equiv_pos_as_xyz
'x, y, z'
_cell_length_a     33.524121
_cell_length_b     33.505406
_cell_length_c     33.51612
_cell_angle_alpha  90.048724
_cell_angle_beta   89.954836
_cell_angle_gamma 90.037737
loop_
_atom_site_label
_atom_site_type_symbol
_atom_site_fract_x
_atom_site_fract_y
_atom_site_fract_z
_atom_type_partial_charge
Fe0 Fe 1.00499 0.17716 0.31742 0.0
Fe1 Fe 0.01364 0.18126 0.22728 0.0
O2 O 0.00909 0.2061 0.27329 0.0
Fe3 Fe 0.00958 0.25896 0.27462 0.0
O4 O 0.0533 0.25902 0.30691 0.0
O5 O 0.0328 0.21243 0.34857 0.0
O6 O 0.053 0.15338 0.30816 0.0
C7 C 0.06164 0.13601 0.27614 0.0
C8 C 0.95153 0.23642 0.33327 0.0
O9 O 0.03713 0.13673 0.24774 0.0
C10 C 0.96506 0.24629 0.20748 0.0
O11 O 0.97508 0.13734 0.2933 0.0
O12 O 0.96458 0.16069 0.23301 0.0
O13 O 0.97491 0.26211 0.31773 0.0
O14 O 0.95805 0.19964 0.32982 0.0
C15 C 0.06742 0.23918 0.2145 0.0
O16 O 0.99067 0.22051 0.19794 0.0
O17 O 0.96585 0.26246 0.24164 0.0
C18 C 0.9526 0.14152 0.26299 0.0
O19 O 0.0626 0.20228 0.22015 0.0
O20 O 0.04419 0.26416 0.23139 0.0
C21 C 0.05734 0.23955 0.33899 0.0
Fe22 Fe 0.34226 0.50627 0.81777 0.0
Fe23 Fe 0.3401 0.51328 0.72735 0.0
O24 O 0.31428 0.50907 0.77287 0.0
Fe25 Fe 0.26142 0.50872 0.77297 0.0
O26 O 0.25987 0.55295 0.80473 0.0
O27 O 0.30591 0.53396 0.84759 0.0
O28 O 0.36544 0.5547 0.80816 0.0
C29 C 0.38302 0.56325 0.7762 0.0
C30 C 0.28341 0.45199 0.83306 0.0
O31 O 0.3836 0.53801 0.74845 0.0
C32 C 0.27625 0.46325 0.70671 0.0
O33 O 0.38314 0.47645 0.79537 0.0
O34 O 0.36153 0.46495 0.73457 0.0
O35 O 0.25782 0.47464 0.81642 0.0
O36 O 0.32018 0.45911 0.83055 0.0
C37 C 0.28159 0.56582 0.71232 0.0
O38 O 0.30215 0.48884 0.69741 0.0
O39 O 0.25926 0.46447 0.74047 0.0
C40 C 0.38081 0.45394 0.76484 0.0
O41 O 0.31844 0.56166 0.71854 0.0
O42 O 0.25666 0.54255 0.72922 0.0
C43 C 0.27856 0.55778 0.83718 0.0
Fe44 Fe 0.00795 0.76354 0.27344 0.0
Fe45 Fe 0.01041 0.84314 0.32039 0.0
O46 O 0.00828 0.81643 0.27461 0.0
Fe47 Fe 0.00589 0.84374 0.22987 0.0
O48 O 0.95778 0.82276 0.21821 0.0
O49 O 0.97474 0.76026 0.22922 0.0
O50 O 0.96324 0.76177 0.30445 0.0
C51 C 0.95856 0.77937 0.33749 0.0
C52 C 0.05479 0.77871 0.20821 0.0
O53 O 0.98291 0.80578 0.34899 0.0
C54 C 0.06395 0.88319 0.27075 0.0
O55 O 0.04149 0.75879 0.31723 0.0
O56 O 0.0575 0.82087 0.33264 0.0
O57 O 0.03113 0.80659 0.19953 0.0
O58 O 0.05241 0.76104 0.24149 0.0
C59 C 0.9542 0.88492 0.2795 0.0
O60 O 0.03961 0.88525 0.29974 0.0
O61 O 0.05453 0.86464 0.23949 0.0
C62 C 0.06432 0.78397 0.33442 0.0
O63 O 0.9622 0.86627 0.31096 0.0
O64 O 0.97982 0.88636 0.25187 0.0
C65 C 0.95255 0.78595 0.21214 0.0
Fe66 Fe 0.67543 0.51189 0.81903 0.0
Fe67 Fe 0.67977 0.50496 0.72874 0.0
O68 O 0.70448 0.50906 0.7748 0.0
Fe69 Fe 0.75735 0.50908 0.77608 0.0
O70 O 0.75779 0.46482 0.8077 0.0
O71 O 0.71084 0.48391 0.84958 0.0
O72 O 0.65215 0.46364 0.80874 0.0
C73 C 0.6352 0.45525 0.77641 0.0
C74 C 0.73419 0.56582 0.83585 0.0
O75 O 0.63556 0.48047 0.74867 0.0
C76 C 0.74445 0.55457 0.70956 0.0
O77 O 0.63529 0.54198 0.79579 0.0
O78 O 0.65835 0.55345 0.73545 0.0
O79 O 0.76011 0.54315 0.81967 0.0
O80 O 0.69747 0.55886 0.83246 0.0
C81 C 0.73828 0.45173 0.71544 0.0
O82 O 0.71864 0.52909 0.6997 0.0
O83 O 0.76061 0.55331 0.74369 0.0
C84 C 0.63819 0.56436 0.76524 0.0
O85 O 0.70131 0.45644 0.72059 0.0
O86 O 0.76299 0.47513 0.73245 0.0
C87 C 0.73815 0.45985 0.83957 0.0
Fe88 Fe 1.0023 0.83899 0.78592 0.0
Fe89 Fe 1.0042 0.76026 0.73993 0.0
O90 O 0.00572 0.81315 0.74026 0.0
Fe91 Fe 0.00994 0.84133 0.69561 0.0
O92 O 0.04117 0.88084 0.71866 0.0
O93 O 0.05205 0.85804 0.77912 0.0
O94 O 0.02412 0.79977 0.81606 0.0
C95 C 0.04867 0.77285 0.8071 0.0
C96 C 0.9545 0.88425 0.73717 0.0
O97 O 0.04791 0.75657 0.77297 0.0
C98 C 0.95642 0.77953 0.67551 0.0
O99 O 0.95283 0.8195 0.79417 0.0
O100 O 0.96956 0.75686 0.78326 0.0
O101 O 0.96237 0.86641 0.70516 0.0
O102 O 0.97989 0.88375 0.76478 0.0
C103 C 0.06197 0.78024 0.67994 0.0
O104 O 0.96048 0.76014 0.70763 0.0
O105 O 0.98088 0.80646 0.66547 0.0
C106 C 0.94671 0.78268 0.79942 0.0
O107 O 0.03848 0.7554 0.69664 0.0
O108 O 0.05633 0.81732 0.68273 0.0
C109 C 0.064 0.87664 0.74869 0.0
Fe110 Fe 0.68732 0.50471 0.29269 0.0
Fe111 Fe 0.76215 0.50761 0.24078 0.0
O112 O 0.70946 0.50862 0.24512 0.0
Fe113 Fe 0.6782 0.51272 0.20269 0.0
O114 O 0.64034 0.54369 0.22864 0.0
O115 O 0.6667 0.55389 0.28786 0.0
O116 O 0.72855 0.52759 0.31976 0.0
C117 C 0.75442 0.55229 0.30826 0.0
C118 C 0.6385 0.45675 0.247 0.0
O119 O 0.76746 0.55167 0.27284 0.0
C120 C 0.73916 0.45968 0.17794 0.0
O121 O 0.70799 0.45555 0.2989 0.0
O122 O 0.76932 0.47346 0.284 0.0
O123 O 0.65393 0.46522 0.21391 0.0
O124 O 0.6414 0.48127 0.27531 0.0
C125 C 0.73779 0.5647 0.18211 0.0
O126 O 0.7604 0.46373 0.20886 0.0
O127 O 0.71098 0.48357 0.17007 0.0
C128 C 0.74506 0.44984 0.30132 0.0
O129 O 0.76368 0.54133 0.19704 0.0
O130 O 0.70106 0.55927 0.18804 0.0
C131 C 0.64542 0.5657 0.25924 0.0
Fe132 Fe 0.00675 0.18278 0.78995 0.0
Fe133 Fe 0.00647 0.25918 0.73987 0.0
O134 O 0.00797 0.20639 0.74294 0.0
Fe135 Fe 0.01032 0.17617 0.6995 0.0
O136 O 0.96312 0.15226 0.71187 0.0
O137 O 0.98196 0.13754 0.7721 0.0
O138 O 0.95806 0.20314 0.80002 0.0
C139 C 0.95166 0.24014 0.80284 0.0
C140 C 0.06561 0.14163 0.75178 0.0
O141 O 0.97361 0.26511 0.78434 0.0
C142 C 0.06235 0.2358 0.67959 0.0
O143 O 0.03082 0.22322 0.8171 0.0
O144 O 0.05128 0.26464 0.77062 0.0
O145 O 0.04128 0.13706 0.72307 0.0
O146 O 0.05595 0.16245 0.7816 0.0
C147 C 0.95698 0.23773 0.6777 0.0
O148 O 0.03916 0.26155 0.69524 0.0
O149 O 0.05658 0.19894 0.68428 0.0
C150 C 0.05366 0.25071 0.80556 0.0
O151 O 0.96159 0.25794 0.70924 0.0
O152 O 0.98086 0.21 0.66847 0.0
C153 C 0.95612 0.1358 0.74481 0.0
Fe154 Fe 0.34153 0.51066 0.19684 0.0
Fe155 Fe 0.33671 0.50346 0.28728 0.0
O156 O 0.31233 0.5065 0.24084 0.0
Fe157 Fe 0.25952 0.50471 0.23897 0.0
O158 O 0.26055 0.46037 0.20755 0.0
O159 O 0.30732 0.48108 0.16599 0.0
O160 O 0.36653 0.46339 0.20689 0.0
C161 C 0.38317 0.455 0.23934 0.0
C162 C 0.28081 0.56206 0.17928 0.0
O163 O 0.38167 0.47974 0.26765 0.0
C164 C 0.26977 0.55071 0.30528 0.0
O165 O 0.38057 0.54216 0.22056 0.0
O166 O 0.35686 0.55264 0.28077 0.0
O167 O 0.25581 0.53803 0.19489 0.0
O168 O 0.31777 0.55697 0.1835 0.0
C169 C 0.27981 0.44847 0.30025 0.0
O170 O 0.29673 0.52682 0.31598 0.0
O171 O 0.25495 0.54904 0.27064 0.0
C172 C 0.37678 0.56442 0.25117 0.0
O173 O 0.31663 0.45437 0.29553 0.0
O174 O 0.25451 0.4711 0.28311 0.0
C175 C 0.28024 0.45645 0.17556 0.0
Fe176 Fe 0.27615 0.01198 0.25765 0.0
Fe177 Fe 0.3159 0.00603 0.17443 0.0
O178 O 0.27283 0.00997 0.20501 0.0
Fe179 Fe 0.22567 0.01302 0.18206 0.0
O180 O 0.21882 0.06248 0.2017 0.0
O181 O 0.23274 0.04622 0.26359 0.0
O182 O 0.30769 0.056 0.25555 0.0
C183 C 0.33912 0.06027 0.23513 0.0
C184 C 0.20892 0.96707 0.25017 0.0
O185 O 0.34787 0.03601 0.20742 0.0
C186 C 0.26049 0.95155 0.14214 0.0
O187 O 0.31974 0.97806 0.26019 0.0
O188 O 0.33072 0.96008 0.19782 0.0
O189 O 0.19787 0.99081 0.22327 0.0
O190 O 0.24417 0.96801 0.26348 0.0
C191 C 0.27163 0.06057 0.13328 0.0
O192 O 0.29076 0.97401 0.13672 0.0
O193 O 0.23134 0.96352 0.16263 0.0
C194 C 0.33526 0.95452 0.23466 0.0
O195 O 0.30447 0.05304 0.14955 0.0
O196 O 0.2438 0.03551 0.13595 0.0
C197 C 0.21493 0.06868 0.2386 0.0
Fe198 Fe 0.50164 0.72897 0.67865 0.0
Fe199 Fe 0.50612 0.77689 0.75595 0.0
O200 O 0.50632 0.77531 0.70308 0.0
Fe201 Fe 0.51036 0.81907 0.67352 0.0
O202 O 0.46246 0.80902 0.64941 0.0
O203 O 0.4795 0.74898 0.63339 0.0
O204 O 0.45228 0.72269 0.69919 0.0
C205 C 0.44702 0.71781 0.73623 0.0
C206 C 0.5634 0.76393 0.63913 0.0
O207 O 0.47049 0.73453 0.76116 0.0
C208 C 0.56403 0.83572 0.73305 0.0
O209 O 0.52307 0.69939 0.71837 0.0
O210 O 0.5493 0.74305 0.75926 0.0
O211 O 0.5411 0.79439 0.63452 0.0
O212 O 0.55122 0.73421 0.65875 0.0
C213 C 0.45882 0.84185 0.73652 0.0
O214 O 0.5415 0.81924 0.75885 0.0
O215 O 0.55705 0.83274 0.69626 0.0
C216 C 0.5489 0.70854 0.74388 0.0
O217 O 0.46324 0.81025 0.75666 0.0
O218 O 0.48184 0.85048 0.70784 0.0
C219 C 0.45444 0.77675 0.63218 0.0
Fe220 Fe 0.74039 0.01016 0.2599 0.0
Fe221 Fe 0.69755 0.00721 0.178 0.0
O222 O 0.74167 0.01073 0.20702 0.0
Fe223 Fe 0.7878 0.01563 0.1823 0.0
O224 O 0.81695 0.99211 0.22118 0.0
O225 O 0.77323 0.96614 0.26237 0.0
O226 O 0.69699 0.97605 0.26271 0.0
C227 C 0.68086 0.95323 0.23697 0.0
C228 C 0.7997 0.06874 0.24129 0.0
O229 O 0.68441 0.95991 0.20016 0.0
C230 C 0.73944 0.06447 0.13765 0.0
O231 O 0.70828 0.05404 0.26093 0.0
O232 O 0.66682 0.03509 0.21335 0.0
O233 O 0.79518 0.06431 0.20415 0.0
O234 O 0.78363 0.04437 0.26564 0.0
C235 C 0.75172 0.95496 0.142 0.0
O236 O 0.70725 0.05553 0.15462 0.0
O237 O 0.76767 0.03981 0.13806 0.0
C238 C 0.67664 0.05893 0.24094 0.0
O239 O 0.72149 0.97754 0.13803 0.0
O240 O 0.7819 0.96682 0.16098 0.0
C241 C 0.80739 0.96572 0.24611 0.0
Fe242 Fe 0.51154 0.24102 0.75786 0.0
Fe243 Fe 0.50735 0.19709 0.6764 0.0
O244 O 0.51093 0.24162 0.70497 0.0
Fe245 Fe 0.51449 0.28743 0.67948 0.0
O246 O 0.56364 0.2958 0.69979 0.0
O247 O 0.54629 0.28417 0.76209 0.0
O248 O 0.55515 0.20863 0.75852 0.0
C249 C 0.55974 0.1767 0.73892 0.0
C250 C 0.46737 0.30828 0.74516 0.0
O251 O 0.53588 0.16678 0.71145 0.0
C252 C 0.45349 0.24993 0.64089 0.0
O253 O 0.47685 0.19803 0.76178 0.0
O254 O 0.46077 0.18399 0.69945 0.0
O255 O 0.49214 0.31736 0.71853 0.0
O256 O 0.46788 0.27409 0.76118 0.0
C257 C 0.56291 0.23898 0.63443 0.0
O258 O 0.47674 0.22023 0.63664 0.0
O259 O 0.46496 0.28043 0.65976 0.0
C260 C 0.45396 0.18149 0.7363 0.0
O261 O 0.55509 0.20698 0.65219 0.0
O262 O 0.53756 0.26662 0.63486 0.0
C263 C 0.56905 0.30119 0.73674 0.0
Fe264 Fe 0.317 0.01011 0.84065 0.0
Fe265 Fe 0.22658 1.00205 0.83362 0.0
O266 O 0.27357 0.00711 0.81042 0.0
Fe267 Fe 0.27651 0.00871 0.75764 0.0
O268 O 0.30852 0.96478 0.75647 0.0
O269 O 0.34868 0.9828 0.80553 0.0
O270 O 0.30687 0.96154 0.86303 0.0
C271 C 0.27427 0.95184 0.87872 0.0
C272 C 0.33524 0.06513 0.78327 0.0
O273 O 0.24535 0.97584 0.87749 0.0
C274 C 0.20948 0.05327 0.76953 0.0
O275 O 0.29224 0.03914 0.88071 0.0
O276 O 0.23226 0.05007 0.8568 0.0
O277 O 0.31993 0.04269 0.75675 0.0
O278 O 0.33078 0.05774 0.81981 0.0
C279 C 0.21583 0.95047 0.77296 0.0
O280 O 0.19848 0.0275 0.79459 0.0
O281 O 0.2444 0.05287 0.75527 0.0
C282 C 0.26169 0.0614 0.87725 0.0
O283 O 0.21905 0.95408 0.81029 0.0
O284 O 0.23311 0.97505 0.74971 0.0
C285 C 0.33997 0.95989 0.77675 0.0
Fe286 Fe 0.50565 0.82148 0.3434 0.0
Fe287 Fe 0.50994 0.73083 0.34219 0.0
O288 O 0.5078 0.77621 0.31578 0.0
Fe289 Fe 0.50844 0.77608 0.26292 0.0
O290 O 0.55314 0.80717 0.26189 0.0
O291 O 0.53367 0.85078 0.30694 0.0
O292 O 0.55369 0.81122 0.36667 0.0
C293 C 0.56141 0.7793 0.38466 0.0
C294 C 0.45208 0.83708 0.28413 0.0
O295 O 0.53545 0.752 0.38556 0.0
C296 C 0.46197 0.71036 0.2763 0.0
O297 O 0.47585 0.79996 0.3847 0.0
O298 O 0.46103 0.74012 0.36269 0.0
O299 O 0.47483 0.82001 0.25876 0.0
O300 O 0.45879 0.83466 0.32101 0.0
C301 C 0.56414 0.71489 0.28466 0.0
O302 O 0.48524 0.70095 0.30421 0.0
O303 O 0.46405 0.74423 0.25979 0.0
C304 C 0.45141 0.77112 0.38164 0.0
O305 O 0.55827 0.71975 0.32154 0.0
O306 O 0.54177 0.73186 0.25905 0.0
C307 C 0.55793 0.83983 0.28022 0.0
Fe308 Fe 0.74209 0.00926 0.76189 0.0
Fe309 Fe 0.69535 0.00737 0.84173 0.0
O310 O 0.74102 0.00934 0.81481 0.0
Fe311 Fe 0.78586 0.01183 0.84201 0.0
O312 O 0.79754 0.05993 0.82093 0.0
O313 O 0.7863 0.04271 0.75848 0.0
O314 O 0.71079 0.05378 0.75973 0.0
C315 C 0.67805 0.05866 0.77781 0.0
C316 C 0.80747 0.96268 0.77727 0.0
O317 O 0.66672 0.03482 0.80466 0.0
C318 C 0.74491 0.95381 0.8814 0.0
O319 O 0.6984 0.9754 0.75736 0.0
O320 O 0.68268 0.96017 0.81955 0.0
O321 O 0.81613 0.98665 0.8049 0.0
O322 O 0.77418 0.96485 0.75961 0.0
C323 C 0.73659 0.06354 0.88349 0.0
O324 O 0.7161 0.97826 0.88365 0.0
O325 O 0.77622 0.96319 0.86291 0.0
C326 C 0.68106 0.95287 0.78271 0.0
O327 O 0.70508 0.05568 0.86482 0.0
O328 O 0.76408 0.03785 0.88473 0.0
C329 C 0.80377 0.06482 0.78409 0.0
Fe330 Fe 0.50663 0.19628 0.34015 0.0
Fe331 Fe 0.51142 0.28681 0.34057 0.0
O332 O 0.50937 0.2419 0.31333 0.0
Fe333 Fe 0.51045 0.24285 0.2604 0.0
O334 O 0.4772 0.19875 0.25497 0.0
O335 O 0.45987 0.18373 0.31678 0.0
O336 O 0.47658 0.2171 0.38149 0.0
C337 C 0.45241 0.24613 0.37902 0.0
C338 C 0.55953 0.17897 0.27744 0.0
O339 O 0.46235 0.27738 0.3607 0.0
C340 C 0.56554 0.30457 0.28353 0.0
O341 O 0.55447 0.20593 0.36432 0.0
O342 O 0.53649 0.26507 0.38377 0.0
O343 O 0.55515 0.21172 0.25923 0.0
O344 O 0.53494 0.16764 0.30363 0.0
C345 C 0.46324 0.30803 0.27538 0.0
O346 O 0.55996 0.29837 0.32029 0.0
O347 O 0.5437 0.28727 0.25759 0.0
C348 C 0.56218 0.23757 0.38293 0.0
O349 O 0.48707 0.31695 0.30298 0.0
O350 O 0.46587 0.27478 0.25751 0.0
C351 C 0.45395 0.18155 0.2797 0.0
Fe352 Fe 0.2552 0.27468 0.00691 0.0
Fe353 Fe 0.17501 0.32079 1.00511 0.0
O354 O 0.20231 0.27533 0.00684 0.0
Fe355 Fe 0.17539 0.23015 0.00883 0.0
O356 O 0.19612 0.21873 0.05709 0.0
O357 O 0.25867 0.23058 0.04047 0.0
O358 O 0.25739 0.30621 0.05134 0.0
C359 C 0.23919 0.33885 0.05646 0.0
C360 C 0.24058 0.20889 0.96062 0.0
O361 O 0.21156 0.3497 0.03328 0.0
C362 C 0.13648 0.27111 0.95056 0.0
O363 O 0.25955 0.31829 0.97304 0.0
O364 O 0.19732 0.33423 0.9583 0.0
O365 O 0.21287 0.19988 0.98422 0.0
O366 O 0.2576 0.24254 0.96254 0.0
C367 C 0.13316 0.27856 0.06033 0.0
O368 O 0.13362 0.29972 0.97528 0.0
O369 O 0.15503 0.23983 0.95994 0.0
C370 C 0.23409 0.33579 0.95083 0.0
O371 O 0.15176 0.31026 0.05307 0.0
O372 O 0.13214 0.25149 0.03422 0.0
C373 C 0.23298 0.21291 0.06236 0.0
Fe374 Fe 0.17777 0.78651 0.01185 0.0
Fe375 Fe 0.25577 0.7398 0.00809 0.0
O376 O 0.2029 0.74061 0.00781 0.0
Fe377 Fe 0.17432 0.69609 1.00451 0.0
O378 O 0.13417 0.71903 0.97403 0.0
O379 O 0.15667 0.7797 0.96324 0.0
O380 O 0.21653 0.81586 0.98795 0.0
C381 C 0.24238 0.80611 0.96246 0.0
C382 C 0.13329 0.73825 0.06121 0.0
O383 O 0.25883 0.77209 0.96377 0.0
C384 C 0.23709 0.67597 0.05699 0.0
O385 O 0.19896 0.79502 0.06055 0.0
O386 O 0.2608 0.78363 0.04181 0.0
O387 O 0.15035 0.70596 0.0527 0.0
O388 O 0.13365 0.76607 0.03606 0.0
C389 C 0.23399 0.67968 0.95129 0.0
O390 O 0.25624 0.70823 0.05239 0.0
O391 O 0.20984 0.66584 0.03285 0.0
C392 C 0.23594 0.79999 0.06548 0.0
O393 O 0.25934 0.69599 0.97444 0.0
O394 O 0.19709 0.68296 0.95754 0.0
C395 C 0.13684 0.74983 0.95192 0.0
Fe396 Fe 0.77549 0.7571 0.50621 0.0
Fe397 Fe 0.82091 0.67658 0.50598 0.0
O398 O 0.77568 0.70417 0.50771 0.0
Fe399 Fe 0.73033 0.67784 0.51134 0.0
O400 O 0.70077 0.71476 0.48533 0.0
O401 O 0.74356 0.75836 0.46159 0.0
O402 O 0.81948 0.7603 0.47295 0.0
C403 C 0.83635 0.73452 0.45069 0.0
C404 C 0.71441 0.73792 0.56277 0.0
O405 O 0.83386 0.69773 0.45814 0.0
C406 C 0.77923 0.63667 0.56356 0.0
O407 O 0.80659 0.75984 0.55085 0.0
O408 O 0.85005 0.71388 0.53279 0.0
O409 O 0.7194 0.70072 0.55899 0.0
O410 O 0.73131 0.76228 0.53905 0.0
C411 C 0.77027 0.63648 0.45365 0.0
O412 O 0.81108 0.65445 0.55481 0.0
O413 O 0.75133 0.63545 0.53835 0.0
C414 C 0.83898 0.74126 0.55624 0.0
O415 O 0.79933 0.63441 0.47779 0.0
O416 O 0.73917 0.65528 0.46318 0.0
C417 C 0.70996 0.74105 0.46013 0.0
Fe418 Fe 0.83474 0.23031 0.0154 0.0
Fe419 Fe 0.75684 0.27714 0.01056 0.0
O420 O 0.80975 0.27617 0.01031 0.0
Fe421 Fe 0.83857 0.32034 0.00567 0.0
O422 O 0.8783 0.29615 0.97556 0.0
O423 O 0.85534 0.23544 0.96622 0.0
O424 O 0.79564 0.20047 0.99292 0.0
C425 C 0.77029 0.20951 0.96678 0.0
C426 C 0.88007 0.2798 0.0628 0.0
O427 O 0.75387 0.24356 0.96708 0.0
C428 C 0.77574 0.34219 0.05755 0.0
O429 O 0.81376 0.22363 0.06451 0.0
O430 O 0.75188 0.23432 0.04569 0.0
O431 O 0.86279 0.31177 0.05379 0.0
O432 O 0.87922 0.25121 0.03849 0.0
C433 C 0.77883 0.33584 0.95239 0.0
O434 O 0.75616 0.31012 0.05377 0.0
O435 O 0.80345 0.35143 0.03358 0.0
C436 C 0.77681 0.21806 0.06941 0.0
O437 O 0.75335 0.32 0.97572 0.0
O438 O 0.81569 0.33236 0.9586 0.0
C439 C 0.87455 0.26523 0.95373 0.0
Fe440 Fe 0.24059 0.25437 0.50922 0.0
Fe441 Fe 0.29154 0.32977 0.51309 0.0
O442 O 0.24432 0.30708 0.50882 0.0
Fe443 Fe 0.20133 0.33766 0.50486 0.0
O444 O 0.16911 0.30362 0.53319 0.0
O445 O 0.20934 0.25576 0.55357 0.0
O446 O 0.28427 0.24697 0.54263 0.0
C447 C 0.30165 0.27084 0.56655 0.0
C448 C 0.18192 0.27865 0.45222 0.0
O449 O 0.29871 0.30803 0.56177 0.0
C450 C 0.25724 0.37226 0.45269 0.0
O451 O 0.27224 0.24985 0.46485 0.0
O452 O 0.31889 0.28937 0.48876 0.0
O453 O 0.18774 0.31534 0.45782 0.0
O454 O 0.19646 0.2528 0.4759 0.0
C455 C 0.24441 0.37706 0.56193 0.0
O456 O 0.28623 0.35147 0.46443 0.0
O457 O 0.22663 0.37665 0.47476 0.0
C458 C 0.30743 0.26349 0.46393 0.0
O459 O 0.27331 0.37473 0.53794 0.0
O460 O 0.2116 0.36146 0.55274 0.0
C461 C 0.17788 0.2762 0.55771 0.0
Fe462 Fe 0.83924 0.70405 0.00576 0.0
Fe463 Fe 0.82999 0.79418 0.01332 0.0
O464 O 0.80794 0.74654 0.00969 0.0
Fe465 Fe 0.75536 0.74218 0.01082 0.0
O466 O 0.75731 0.71055 0.05478 0.0
O467 O 0.80639 0.67137 0.03512 0.0
O468 O 0.86343 0.71563 0.05303 0.0
C469 C 0.87905 0.74872 0.06103 0.0
C470 C 0.78007 0.68379 0.95349 0.0
O471 O 0.87606 0.77688 0.0364 0.0
C472 C 0.76258 0.8095 0.96619 0.0
O473 O 0.8769 0.73003 0.97446 0.0
O474 O 0.85022 0.78908 0.96403 0.0
O475 O 0.75401 0.69859 0.97686 0.0
O476 O 0.81671 0.68914 0.95944 0.0
C477 C 0.77252 0.8028 0.06854 0.0
O478 O 0.78856 0.82116 0.99069 0.0
O479 O 0.74982 0.77403 0.96683 0.0
C480 C 0.87126 0.7603 0.95211 0.0
O481 O 0.80958 0.80057 0.06257 0.0
O482 O 0.74819 0.7854 0.04504 0.0
C483 C 0.77825 0.67949 0.0591 0.0
Fe484 Fe 0.77584 0.25941 0.50907 0.0
Fe485 Fe 0.81917 0.34136 0.50663 0.0
O486 O 0.77494 0.31234 0.50977 0.0
Fe487 Fe 0.72897 0.33735 0.51437 0.0
O488 O 0.72165 0.31595 0.56311 0.0
O489 O 0.73297 0.25411 0.54406 0.0
O490 O 0.80864 0.25779 0.5524 0.0
C491 C 0.84046 0.27748 0.55739 0.0
C492 C 0.70834 0.27307 0.46521 0.0
O493 O 0.84986 0.30605 0.53456 0.0
C494 C 0.76539 0.37709 0.45377 0.0
O495 O 0.81853 0.25665 0.47401 0.0
O496 O 0.8325 0.31941 0.45963 0.0
O497 O 0.69923 0.29852 0.49126 0.0
O498 O 0.74244 0.25687 0.46549 0.0
C499 C 0.7773 0.3823 0.56306 0.0
O500 O 0.79542 0.38126 0.47665 0.0
O501 O 0.7351 0.35813 0.46545 0.0
C502 C 0.83508 0.28278 0.45188 0.0
O503 O 0.80929 0.36473 0.55482 0.0
O504 O 0.74938 0.38179 0.53808 0.0
C505 C 0.71631 0.27891 0.5677 0.0
Fe506 Fe 0.28793 0.67852 0.50813 0.0
Fe507 Fe 0.23928 0.75569 0.50902 0.0
O508 O 0.24141 0.70294 0.50704 0.0
Fe509 Fe 0.19734 0.67352 0.50465 0.0
O510 O 0.2092 0.64954 0.55181 0.0
O511 O 0.26903 0.6336 0.53266 0.0
O512 O 0.29836 0.69858 0.5569 0.0
C513 C 0.30236 0.7355 0.56325 0.0
C514 C 0.24911 0.63818 0.44922 0.0
O515 O 0.28351 0.76079 0.54206 0.0
C516 C 0.17922 0.73332 0.4525 0.0
O517 O 0.31595 0.71848 0.48425 0.0
O518 O 0.27045 0.76122 0.46446 0.0
O519 O 0.22033 0.63395 0.4736 0.0
O520 O 0.2792 0.65856 0.45887 0.0
C521 C 0.17658 0.73506 0.55849 0.0
O522 O 0.19513 0.75877 0.47591 0.0
O523 O 0.1827 0.69641 0.4585 0.0
C524 C 0.30519 0.74679 0.46209 0.0
O525 O 0.20862 0.75442 0.55391 0.0
O526 O 0.16667 0.708 0.53407 0.0
C527 C 0.24181 0.63248 0.55865 0.0
C528 C 0.10186 0.22085 0.15131 0.0
C529 C 0.08946 0.25091 0.1779 0.0
H530 H 0.12312 0.20604 0.09339 0.0
C531 C 0.09292 0.29105 0.16593 0.0
H532 H 0.09972 0.18957 0.15907 0.0
C533 C 0.10748 0.30061 0.12776 0.0
C534 C 0.11753 0.27011 0.10069 0.0
H535 H 0.08346 0.31492 0.18558 0.0
H536 H 0.10984 0.33165 0.11907 0.0
C537 C 0.11494 0.23027 0.11317 0.0
C538 C 0.22981 0.59034 0.66341 0.0
C539 C 0.2699 0.58756 0.67559 0.0
H540 H 0.18918 0.6069 0.61659 0.0
C541 C 0.2999 0.60059 0.64924 0.0
H542 H 0.206 0.58037 0.68286 0.0
C543 C 0.29044 0.61395 0.61117 0.0
C544 C 0.25062 0.61598 0.59856 0.0
H545 H 0.33114 0.59894 0.65722 0.0
H546 H 0.31458 0.62293 0.59163 0.0
C547 C 0.22022 0.60499 0.62535 0.0
C548 C 0.89649 0.79596 0.11533 0.0
C549 C 0.89654 0.75669 0.10071 0.0
H550 H 0.91189 0.83554 0.16248 0.0
C551 C 0.9112 0.72594 0.12514 0.0
H552 H 0.88442 0.82024 0.09775 0.0
C553 C 0.92768 0.73484 0.16262 0.0
C554 C 0.92885 0.77451 0.17655 0.0
H555 H 0.91092 0.69529 0.11485 0.0
H556 H 0.94055 0.7109 0.18006 0.0
C557 C 0.91188 0.80467 0.15285 0.0
C558 C 0.7905 0.4271 0.66673 0.0
C559 C 0.75056 0.42842 0.67985 0.0
H560 H 0.83072 0.411 0.61916 0.0
C561 C 0.72074 0.41242 0.65508 0.0
H562 H 0.81418 0.43926 0.68503 0.0
C563 C 0.72991 0.39833 0.61726 0.0
C564 C 0.76939 0.39815 0.60342 0.0
H565 H 0.68967 0.41255 0.6639 0.0
H566 H 0.7057 0.38769 0.5987 0.0
C567 C 0.79992 0.41145 0.62892 0.0
C568 C 0.07984 0.72478 0.85605 0.0
C569 C 0.07764 0.76285 0.83853 0.0
H570 H 0.1 0.69045 0.90666 0.0
C571 C 0.09566 0.79519 0.85795 0.0
H572 H 0.06494 0.69961 0.8423 0.0
C573 C 0.11459 0.79036 0.8943 0.0
C574 C 0.11591 0.75291 0.91302 0.0
H575 H 0.09286 0.82514 0.84624 0.0
H576 H 0.12706 0.81668 0.90832 0.0
C577 C 0.099 0.71981 0.89322 0.0
C578 C 0.749 0.61554 0.3449 0.0
C579 C 0.76963 0.57977 0.3387 0.0
H580 H 0.73247 0.66101 0.38656 0.0
C581 C 0.79399 0.56468 0.36931 0.0
H582 H 0.72941 0.6272 0.32204 0.0
C583 C 0.79591 0.58398 0.40638 0.0
C584 C 0.77245 0.6179 0.41366 0.0
H585 H 0.80922 0.53644 0.3655 0.0
H586 H 0.81367 0.57096 0.43001 0.0
C587 C 0.75017 0.63431 0.3821 0.0
C588 C 0.89634 0.2271 0.84998 0.0
C589 C 0.92651 0.25287 0.83678 0.0
H590 H 0.85677 0.21085 0.89674 0.0
C591 C 0.93723 0.28565 0.86085 0.0
H592 H 0.88726 0.20174 0.83203 0.0
C593 C 0.92002 0.29066 0.89881 0.0
C594 C 0.89194 0.2629 0.91306 0.0
H595 H 0.96056 0.30592 0.85145 0.0
H596 H 0.92974 0.31521 0.91745 0.0
C597 C 0.87931 0.23205 0.88749 0.0
C598 C 0.29615 0.39604 0.34961 0.0
C599 C 0.26853 0.42397 0.33527 0.0
H600 H 0.31512 0.35968 0.39778 0.0
C601 C 0.23508 0.43334 0.35899 0.0
H602 H 0.32221 0.38809 0.33219 0.0
C603 C 0.23067 0.41648 0.39721 0.0
C604 C 0.25989 0.39041 0.41232 0.0
H605 H 0.21353 0.45521 0.34898 0.0
H606 H 0.20515 0.4247 0.41524 0.0
C607 C 0.29215 0.37991 0.38758 0.0
C608 C 0.15529 0.10874 0.22099 0.0
C609 C 0.17937 0.09192 0.25089 0.0
H610 H 0.09901 0.13304 0.20528 0.0
C611 C 0.16525 0.09184 0.29051 0.0
H612 H 0.16498 0.10979 0.19018 0.0
C613 C 0.12709 0.10677 0.29946 0.0
C614 C 0.10224 0.12069 0.2687 0.0
H615 H 0.18296 0.07895 0.31423 0.0
H616 H 0.11652 0.10611 0.32999 0.0
C617 C 0.11707 0.12196 0.22961 0.0
C618 C 0.42267 0.66918 0.7886 0.0
C619 C 0.4244 0.68172 0.74849 0.0
H620 H 0.40785 0.6216 0.82926 0.0
C621 C 0.41028 0.65574 0.71872 0.0
H622 H 0.43344 0.68838 0.81227 0.0
C623 C 0.39779 0.61741 0.72821 0.0
C624 C 0.39729 0.60419 0.76792 0.0
H625 H 0.41087 0.66403 0.68752 0.0
H626 H 0.38871 0.59797 0.70405 0.0
C627 C 0.40859 0.63084 0.79831 0.0
C628 C 0.90172 0.90864 0.23339 0.0
C629 C 0.91418 0.90234 0.27278 0.0
H630 H 0.85725 0.93168 0.19463 0.0
C631 C 0.88764 0.91136 0.30421 0.0
H632 H 0.92078 0.90107 0.20839 0.0
C633 C 0.85043 0.92921 0.29615 0.0
C634 C 0.83938 0.93741 0.25657 0.0
H635 H 0.89625 0.90609 0.3349 0.0
H636 H 0.83161 0.93865 0.32067 0.0
C637 C 0.86486 0.92559 0.22545 0.0
C638 C 0.6088 0.38799 0.79844 0.0
C639 C 0.62001 0.41462 0.76803 0.0
H640 H 0.58371 0.33061 0.81256 0.0
C641 C 0.61864 0.40158 0.72824 0.0
H642 H 0.61018 0.39705 0.82943 0.0
C643 C 0.60543 0.36343 0.71875 0.0
C644 C 0.59169 0.33742 0.74865 0.0
H645 H 0.62769 0.42099 0.70405 0.0
H646 H 0.60419 0.35526 0.68752 0.0
C647 C 0.59418 0.34983 0.78878 0.0
C648 C 0.17096 0.89218 0.77981 0.0
C649 C 0.18171 0.92657 0.75869 0.0
H650 H 0.12602 0.84905 0.79192 0.0
C651 C 0.15505 0.9421 0.73016 0.0
H652 H 0.19095 0.87948 0.80181 0.0
C653 C 0.1169 0.92532 0.72543 0.0
C654 C 0.10515 0.89282 0.74915 0.0
H655 H 0.16252 0.96884 0.71365 0.0
H656 H 0.09609 0.93894 0.70484 0.0
C657 C 0.13335 0.87533 0.77479 0.0
C658 C 0.58108 0.65738 0.23929 0.0
C659 C 0.58963 0.68074 0.27319 0.0
H660 H 0.59165 0.60215 0.20825 0.0
C661 C 0.61827 0.66707 0.30041 0.0
H662 H 0.55876 0.66695 0.218 0.0
C663 C 0.63609 0.62995 0.29544 0.0
C664 C 0.62626 0.60545 0.26278 0.0
H665 H 0.62567 0.68436 0.32672 0.0
H666 H 0.65705 0.62017 0.31795 0.0
C667 C 0.59939 0.62002 0.23405 0.0
C668 C 0.86558 0.10204 0.80263 0.0
C669 C 0.84009 0.08756 0.77256 0.0
H670 H 0.92218 0.12697 0.81747 0.0
C671 C 0.8527 0.09022 0.73255 0.0
H672 H 0.85712 0.10069 0.8338 0.0
C673 C 0.89038 0.10602 0.7231 0.0
C674 C 0.91643 0.11845 0.75357 0.0
H675 H 0.83392 0.07923 0.70866 0.0
H676 H 0.89946 0.10768 0.69212 0.0
C677 C 0.90331 0.11672 0.79331 0.0
C678 C 0.4203 0.3643 0.29419 0.0
C679 C 0.43543 0.34006 0.26352 0.0
H680 H 0.39349 0.41943 0.31064 0.0
C681 C 0.43075 0.3524 0.22372 0.0
H682 H 0.42336 0.35551 0.32517 0.0
C683 C 0.41309 0.38962 0.21519 0.0
C684 C 0.40079 0.41504 0.24645 0.0
H685 H 0.44272 0.33454 0.19957 0.0
H686 H 0.4105 0.39915 0.18444 0.0
C687 C 0.40368 0.40131 0.28586 0.0
C688 C 0.21437 0.15119 0.09945 0.0
C689 C 0.2445 0.1767 0.08516 0.0
H690 H 0.19927 0.09456 0.12391 0.0
C691 C 0.28449 0.16409 0.08795 0.0
H692 H 0.18322 0.15957 0.09797 0.0
C693 C 0.29383 0.12637 0.10373 0.0
C694 C 0.26325 0.10033 0.11596 0.0
H695 H 0.30843 0.18288 0.07706 0.0
H696 H 0.32476 0.11726 0.10551 0.0
C697 C 0.22356 0.11346 0.11401 0.0
C698 C 0.29271 0.85074 0.92833 0.0
C699 C 0.25327 0.83748 0.93355 0.0
H700 H 0.3307 0.89806 0.90682 0.0
C701 C 0.22195 0.86044 0.91797 0.0
H702 H 0.31732 0.83392 0.94074 0.0
C703 C 0.22928 0.89707 0.90003 0.0
C704 C 0.2683 0.91185 0.89673 0.0
H705 H 0.19126 0.85101 0.9217 0.0
H706 H 0.20404 0.91419 0.88937 0.0
C707 C 0.30023 0.88769 0.90964 0.0
C708 C 0.62871 0.80215 0.41086 0.0
C709 C 0.60178 0.77138 0.40083 0.0
H710 H 0.68539 0.81691 0.43767 0.0
C711 C 0.61427 0.73162 0.40462 0.0
H712 H 0.6201 0.83312 0.40754 0.0
C713 C 0.65169 0.72261 0.41986 0.0
C714 C 0.67752 0.75295 0.43286 0.0
H715 H 0.59488 0.70715 0.39623 0.0
H716 H 0.65957 0.69146 0.42372 0.0
C717 C 0.66632 0.79298 0.42726 0.0
C718 C 0.79086 0.15136 0.92739 0.0
C719 C 0.7599 0.17727 0.93859 0.0
H720 H 0.80768 0.09562 0.90228 0.0
C721 C 0.72039 0.16703 0.92897 0.0
H722 H 0.82163 0.15838 0.93439 0.0
C723 C 0.71219 0.13018 0.91031 0.0
C724 C 0.74339 0.10324 0.90174 0.0
H725 H 0.69596 0.18626 0.93776 0.0
H726 H 0.68154 0.1222 0.90392 0.0
C727 C 0.78278 0.11494 0.9095 0.0
C728 C 0.34422 0.26932 0.4007 0.0
C729 C 0.33779 0.2484 0.43625 0.0
H730 H 0.38591 0.28545 0.35516 0.0
C731 C 0.36786 0.22303 0.45072 0.0
H732 H 0.32166 0.28941 0.38934 0.0
C733 C 0.40477 0.22053 0.43118 0.0
C734 C 0.41238 0.24429 0.39755 0.0
H735 H 0.36378 0.20728 0.47859 0.0
H736 H 0.42804 0.20203 0.4438 0.0
C737 C 0.38123 0.26751 0.38164 0.0
C738 C 0.72872 0.86214 0.08064 0.0
C739 C 0.75941 0.83654 0.09351 0.0
H740 H 0.70242 0.92053 0.08537 0.0
C741 C 0.78402 0.84862 0.12505 0.0
H742 H 0.70947 0.85359 0.05617 0.0
C743 C 0.78047 0.88671 0.14107 0.0
C744 C 0.7522 0.9138 0.12602 0.0
H745 H 0.8078 0.82945 0.13565 0.0
H746 H 0.80084 0.89525 0.16462 0.0
C747 C 0.7251 0.90062 0.09687 0.0
C748 C 0.61635 0.28713 0.61777 0.0
C749 C 0.60331 0.24737 0.61891 0.0
H750 H 0.66259 0.32784 0.60356 0.0
C751 C 0.62978 0.21695 0.60732 0.0
H752 H 0.59705 0.31131 0.6271 0.0
C753 C 0.66783 0.22662 0.59252 0.0
C754 C 0.68026 0.26675 0.59036 0.0
H755 H 0.62065 0.18595 0.60856 0.0
H756 H 0.68694 0.2029 0.58173 0.0
C757 C 0.65441 0.2966 0.60453 0.0
C758 C 0.3635 0.71855 0.60151 0.0
C759 C 0.33796 0.7481 0.58635 0.0
H760 H 0.4203 0.70436 0.62562 0.0
C761 C 0.35024 0.78832 0.58828 0.0
H762 H 0.3553 0.68729 0.60087 0.0
C763 C 0.38794 0.79834 0.60374 0.0
C764 C 0.41418 0.76817 0.61635 0.0
H765 H 0.33136 0.81182 0.5767 0.0
H766 H 0.39701 0.82936 0.60464 0.0
C767 C 0.40119 0.72835 0.61552 0.0
C768 C 0.91487 0.73386 0.89631 0.0
C769 C 0.88889 0.76306 0.91158 0.0
H770 H 0.95329 0.71664 0.84794 0.0
C771 C 0.87819 0.79534 0.88696 0.0
H772 H 0.92319 0.70831 0.91423 0.0
C773 C 0.89436 0.7995 0.84898 0.0
C774 C 0.9222 0.77182 0.83452 0.0
H775 H 0.85781 0.81818 0.89727 0.0
H776 H 0.88647 0.82561 0.83163 0.0
C777 C 0.93152 0.73827 0.85807 0.0
C778 C 0.73704 0.37757 0.38537 0.0
C779 C 0.76515 0.39287 0.41255 0.0
H780 H 0.70996 0.38262 0.328 0.0
C781 C 0.79217 0.42216 0.39945 0.0
H782 H 0.71666 0.35397 0.39389 0.0
C783 C 0.78862 0.43825 0.36093 0.0
C784 C 0.75813 0.42509 0.3352 0.0
H785 H 0.81467 0.43388 0.41945 0.0
H786 H 0.80777 0.46286 0.35245 0.0
C787 C 0.73361 0.39343 0.34724 0.0
C788 C 0.06298 0.29048 0.867 0.0
C789 C 0.07997 0.26789 0.83595 0.0
H790 H 0.06771 0.3096 0.92808 0.0
C791 C 0.11763 0.25082 0.84141 0.0
H792 H 0.0334 0.30298 0.8637 0.0
C793 C 0.13662 0.25359 0.87838 0.0
C794 C 0.11827 0.2735 0.9105 0.0
H795 H 0.13086 0.23256 0.81823 0.0
H796 H 0.16502 0.23877 0.8823 0.0
C797 C 0.08226 0.29373 0.90395 0.0
C798 C 0.27606 0.61377 0.34235 0.0
C799 C 0.25496 0.57831 0.33585 0.0
H800 H 0.29099 0.66016 0.38349 0.0
C801 C 0.22895 0.5642 0.36559 0.0
H802 H 0.297 0.62459 0.32022 0.0
C803 C 0.2254 0.58449 0.40205 0.0
C804 C 0.24877 0.61849 0.40961 0.0
H805 H 0.2134 0.53612 0.3616 0.0
H806 H 0.20622 0.5723 0.42504 0.0
C807 C 0.2731 0.63362 0.37887 0.0
C808 C 0.9092 0.30493 0.1283 0.0
C809 C 0.8986 0.27344 0.10243 0.0
H810 H 0.93874 0.32129 0.18324 0.0
C811 C 0.90481 0.23401 0.11502 0.0
H812 H 0.90408 0.33563 0.11963 0.0
C813 C 0.92324 0.22604 0.15111 0.0
C814 C 0.93642 0.25712 0.1759 0.0
H815 H 0.89608 0.20891 0.09658 0.0
H816 H 0.92916 0.19517 0.15869 0.0
C817 C 0.92834 0.29679 0.16489 0.0
C818 C 0.29719 0.41997 0.65142 0.0
C819 C 0.26579 0.43439 0.67509 0.0
H820 H 0.31505 0.39148 0.59756 0.0
C821 C 0.2263 0.42752 0.6628 0.0
H822 H 0.32793 0.4249 0.66012 0.0
C823 C 0.21873 0.40825 0.62615 0.0
C824 C 0.25059 0.39626 0.60136 0.0
H825 H 0.20159 0.43894 0.68022 0.0
H826 H 0.18816 0.40405 0.6166 0.0
C827 C 0.28977 0.40136 0.61514 0.0
C828 C 0.10449 0.71588 0.12788 0.0
C829 C 0.11651 0.74629 0.10142 0.0
H830 H 0.07527 0.70208 0.18367 0.0
C831 C 0.11344 0.78619 0.11392 0.0
H832 H 0.10714 0.68482 0.1193 0.0
C833 C 0.09682 0.79577 0.15062 0.0
C834 C 0.08198 0.76591 0.17591 0.0
H835 H 0.12338 0.81044 0.09499 0.0
H836 H 0.09367 0.82704 0.1584 0.0
C837 C 0.08693 0.72566 0.1649 0.0
C838 C 0.72498 0.5981 0.65408 0.0
C839 C 0.75585 0.58325 0.67812 0.0
H840 H 0.70823 0.62556 0.5994 0.0
C841 C 0.7956 0.58907 0.66599 0.0
H842 H 0.69406 0.59408 0.6627 0.0
C843 C 0.80392 0.60748 0.62906 0.0
C844 C 0.77251 0.61943 0.60377 0.0
H845 H 0.8199 0.57732 0.6837 0.0
H846 H 0.83463 0.61071 0.61954 0.0
C847 C 0.73312 0.61563 0.61743 0.0
C848 C 0.85052 0.92966 0.72457 0.0
C849 C 0.83986 0.93551 0.76477 0.0
H850 H 0.89583 0.90875 0.68382 0.0
C851 C 0.8656 0.92172 0.79473 0.0
H852 H 0.83141 0.94049 0.70091 0.0
C853 C 0.9024 0.90534 0.78521 0.0
C854 C 0.91447 0.9013 0.74531 0.0
H855 H 0.85809 0.92554 0.82597 0.0
H856 H 0.92167 0.89626 0.8095 0.0
C857 C 0.88759 0.91223 0.71488 0.0
C858 C 0.60533 0.36461 0.30265 0.0
C859 C 0.58899 0.34057 0.27235 0.0
H860 H 0.63227 0.42001 0.31847 0.0
C861 C 0.59062 0.35446 0.23269 0.0
H862 H 0.60495 0.35508 0.33353 0.0
C863 C 0.60699 0.39211 0.22392 0.0
C864 C 0.62112 0.41682 0.25478 0.0
H865 H 0.57824 0.33681 0.20861 0.0
H866 H 0.60764 0.40227 0.19326 0.0
C867 C 0.62065 0.40226 0.29406 0.0
C868 C 0.1718 0.11541 0.77985 0.0
C869 C 0.17904 0.08171 0.75625 0.0
H870 H 0.13009 0.1603 0.79736 0.0
C871 C 0.15002 0.06945 0.7286 0.0
H872 H 0.19342 0.12482 0.80194 0.0
C873 C 0.11351 0.08968 0.72585 0.0
C874 C 0.10517 0.12182 0.75153 0.0
H875 H 0.15461 0.0428 0.71089 0.0
H876 H 0.09116 0.0789 0.70517 0.0
C877 C 0.13524 0.13521 0.77763 0.0
C878 C 0.38926 0.62762 0.2883 0.0
C879 C 0.39605 0.60433 0.25398 0.0
H880 H 0.40405 0.68003 0.32121 0.0
C881 C 0.42033 0.62013 0.22349 0.0
H882 H 0.37062 0.6169 0.31241 0.0
C883 C 0.43918 0.65739 0.22855 0.0
C884 C 0.43351 0.67936 0.26388 0.0
H885 H 0.42584 0.60318 0.19652 0.0
H886 H 0.46004 0.66776 0.20614 0.0
C887 C 0.40781 0.6644 0.29317 0.0
C888 C 0.84648 0.12472 0.22985 0.0
C889 C 0.8344 0.09272 0.25384 0.0
H890 H 0.89296 0.16492 0.21415 0.0
C891 C 0.86014 0.07907 0.28413 0.0
H892 H 0.82724 0.13596 0.20645 0.0
C893 C 0.8985 0.09538 0.28825 0.0
C894 C 0.91154 0.12533 0.26199 0.0
H895 H 0.85172 0.05406 0.30279 0.0
H896 H 0.91842 0.0834 0.31066 0.0
C897 C 0.88449 0.14082 0.2339 0.0
C898 C 0.41997 0.35803 0.72206 0.0
C899 C 0.43817 0.3395 0.75474 0.0
H900 H 0.38894 0.40798 0.69939 0.0
C901 C 0.43663 0.35825 0.79226 0.0
H902 H 0.42263 0.34556 0.69242 0.0
C903 C 0.41798 0.39576 0.79632 0.0
C904 C 0.40101 0.41468 0.7628 0.0
H905 H 0.45181 0.34521 0.81761 0.0
H906 H 0.41755 0.41022 0.82523 0.0
C907 C 0.40153 0.3947 0.72599 0.0
C908 C 0.17277 0.90316 0.24972 0.0
C909 C 0.17809 0.94089 0.26683 0.0
H910 H 0.13194 0.8557 0.23715 0.0
C911 C 0.14693 0.95782 0.28931 0.0
H912 H 0.19604 0.89002 0.23153 0.0
C913 C 0.11017 0.93814 0.29285 0.0
C914 C 0.1038 0.90196 0.27274 0.0
H915 H 0.15009 0.98755 0.30169 0.0
H916 H 0.08603 0.95249 0.30885 0.0
C917 C 0.13587 0.88398 0.25239 0.0
C918 C 0.59356 0.65644 0.71986 0.0
C919 C 0.57811 0.67707 0.75281 0.0
H920 H 0.6235 0.60533 0.69784 0.0
C921 C 0.58299 0.66083 0.79115 0.0
H922 H 0.58847 0.66704 0.68982 0.0
C923 C 0.60229 0.62373 0.79589 0.0
C924 C 0.61681 0.60288 0.7623 0.0
H925 H 0.57007 0.67553 0.81687 0.0
H926 H 0.60546 0.61125 0.82551 0.0
C927 C 0.61285 0.62028 0.72448 0.0
C928 C 0.76419 0.88212 0.88316 0.0
C929 C 0.74259 0.91397 0.90003 0.0
H930 H 0.78513 0.82213 0.89029 0.0
C931 C 0.72032 0.90731 0.93485 0.0
H932 H 0.78099 0.88621 0.85582 0.0
C933 C 0.72292 0.87054 0.95455 0.0
C934 C 0.74675 0.83972 0.93899 0.0
H935 H 0.70318 0.93123 0.94824 0.0
H936 H 0.70869 0.86718 0.98337 0.0
C937 C 0.766 0.84523 0.90236 0.0
C938 C 0.72524 0.16826 0.09331 0.0
C939 C 0.76492 0.18225 0.09272 0.0
H940 H 0.68566 0.1198 0.10832 0.0
C941 C 0.79491 0.15805 0.10924 0.0
H942 H 0.70141 0.18607 0.08076 0.0
C943 C 0.78619 0.11994 0.12308 0.0
C944 C 0.74699 0.10521 0.12233 0.0
H945 H 0.82578 0.16761 0.10972 0.0
H946 H 0.81052 0.1019 0.13429 0.0
C947 C 0.71626 0.13019 0.10858 0.0
C948 C 0.38368 0.27496 0.64182 0.0
C949 C 0.41239 0.24965 0.62462 0.0
H950 H 0.32563 0.30096 0.63728 0.0
C951 C 0.40104 0.22513 0.59254 0.0
H952 H 0.39057 0.29243 0.66797 0.0
C953 C 0.36279 0.22884 0.57581 0.0
C954 C 0.33568 0.25723 0.59084 0.0
H955 H 0.42218 0.20463 0.57924 0.0
H956 H 0.35554 0.21163 0.54947 0.0
C957 C 0.34601 0.27909 0.62491 0.0
C958 C 0.22175 0.84809 0.11983 0.0
C959 C 0.24791 0.83459 0.09012 0.0
H960 H 0.2048 0.89533 0.15854 0.0
C961 C 0.28074 0.85865 0.0795 0.0
H962 H 0.19627 0.83027 0.12877 0.0
C963 C 0.28574 0.8966 0.09669 0.0
C964 C 0.25782 0.91101 0.12451 0.0
H965 H 0.30119 0.8492 0.0563 0.0
H966 H 0.31051 0.91508 0.08723 0.0
C967 C 0.22652 0.88573 0.13662 0.0
C968 C 0.66892 0.72934 0.62047 0.0
C969 C 0.67973 0.75102 0.58649 0.0
H970 H 0.62457 0.71784 0.66428 0.0
C971 C 0.65341 0.7803 0.57174 0.0
H972 H 0.68868 0.7068 0.63259 0.0
C973 C 0.61572 0.78572 0.58924 0.0
C974 C 0.604 0.76195 0.6217 0.0
H975 H 0.66088 0.79717 0.5452 0.0
H976 H 0.59526 0.80715 0.57639 0.0
C977 C 0.63176 0.73509 0.63808 0.0
C978 C 0.28726 0.15553 0.93675 0.0
C979 C 0.2519 0.17758 0.93206 0.0
H980 H 0.31833 0.10084 0.92331 0.0
C981 C 0.22135 0.162 0.90821 0.0
H982 H 0.31065 0.16632 0.95626 0.0
C983 C 0.22501 0.12458 0.89072 0.0
C984 C 0.25948 0.10137 0.89644 0.0
H985 H 0.19325 0.17765 0.90535 0.0
H986 H 0.19995 0.11339 0.87371 0.0
C987 C 0.29117 0.1177 0.91876 0.0
C988 C 0.36754 0.78593 0.45606 0.0
C989 C 0.33642 0.76484 0.4373 0.0
H990 H 0.42875 0.80503 0.45292 0.0
C991 C 0.34205 0.75038 0.39854 0.0
H992 H 0.36411 0.79626 0.48652 0.0
C993 C 0.37913 0.75438 0.37993 0.0
C994 C 0.41122 0.77288 0.39973 0.0
H995 H 0.31888 0.73318 0.38395 0.0
H996 H 0.38319 0.74155 0.35056 0.0
C997 C 0.40461 0.79044 0.43715 0.0
C998 C 0.6289 0.21378 0.41008 0.0
C999 C 0.6019 0.24478 0.40104 0.0
H1000 H 0.68501 0.19815 0.43765 0.0
C1001 C 0.61363 0.28435 0.40803 0.0
H1002 H 0.62092 0.18298 0.40431 0.0
C1003 C 0.65014 0.29286 0.42553 0.0
C1004 C 0.67608 0.26214 0.43723 0.0
H1005 H 0.59429 0.3091 0.40044 0.0
H1006 H 0.65728 0.3238 0.43179 0.0
C1007 C 0.66578 0.22241 0.42844 0.0
C1008 C 0.13213 0.23045 0.42359 0.0
C1009 C 0.15263 0.26693 0.42117 0.0
H1010 H 0.08571 0.19352 0.39991 0.0
C1011 C 0.14252 0.29379 0.39048 0.0
H1012 H 0.13904 0.20919 0.44691 0.0
C1013 C 0.11204 0.28479 0.36342 0.0
C1014 C 0.09054 0.24896 0.36675 0.0
H1015 H 0.15786 0.32212 0.38768 0.0
H1016 H 0.10477 0.30629 0.34043 0.0
C1017 C 0.10128 0.22169 0.39685 0.0
C1018 C 0.22049 0.64012 0.88917 0.0
C1019 C 0.24703 0.65148 0.91974 0.0
H1020 H 0.2096 0.60191 0.83895 0.0
C1021 C 0.28461 0.63315 0.92158 0.0
H1022 H 0.19133 0.65383 0.88681 0.0
C1023 C 0.29477 0.60299 0.89454 0.0
C1024 C 0.26781 0.59082 0.86467 0.0
H1025 H 0.30567 0.6411 0.94477 0.0
H1026 H 0.32375 0.58896 0.89725 0.0
C1027 C 0.23089 0.61034 0.86174 0.0
C1028 C 0.91234 0.79563 0.39371 0.0
C1029 C 0.92525 0.76842 0.36441 0.0
H1030 H 0.87361 0.80667 0.44333 0.0
C1031 C 0.90644 0.73106 0.36176 0.0
H1032 H 0.92583 0.82493 0.39613 0.0
C1033 C 0.87665 0.72049 0.3891 0.0
C1034 C 0.86457 0.74735 0.41915 0.0
H1035 H 0.91556 0.70958 0.33938 0.0
H1036 H 0.86348 0.69101 0.38711 0.0
C1037 C 0.88213 0.78535 0.42056 0.0
C1038 C 0.78371 0.40522 0.86325 0.0
C1039 C 0.74767 0.42623 0.86674 0.0
H1040 H 0.82162 0.35993 0.88744 0.0
C1041 C 0.72036 0.41477 0.8966 0.0
H1042 H 0.80522 0.413 0.84041 0.0
C1043 C 0.72944 0.38392 0.92321 0.0
C1044 C 0.76627 0.36417 0.92086 0.0
H1045 H 0.69199 0.42992 0.89971 0.0
H1046 H 0.70829 0.37665 0.94655 0.0
C1047 C 0.79302 0.37474 0.89018 0.0
C1048 C 0.15262 0.78176 0.61216 0.0
C1049 C 0.14885 0.74544 0.59155 0.0
H1050 H 0.12829 0.82103 0.65631 0.0
C1051 C 0.11796 0.71911 0.6026 0.0
H1052 H 0.17616 0.80262 0.60466 0.0
C1053 C 0.09079 0.7294 0.63272 0.0
C1054 C 0.09358 0.76649 0.65207 0.0
H1055 H 0.11449 0.69063 0.58768 0.0
H1056 H 0.06675 0.70896 0.63976 0.0
C1057 C 0.12517 0.79227 0.64183 0.0
C1058 C 0.78666 0.59383 0.13308 0.0
C1059 C 0.74978 0.59583 0.15295 0.0
H1060 H 0.82436 0.6183 0.08757 0.0
C1061 C 0.72294 0.6264 0.14258 0.0
H1062 H 0.80792 0.57058 0.1402 0.0
C1063 C 0.73238 0.65381 0.11257 0.0
C1064 C 0.76869 0.65107 0.09177 0.0
H1065 H 0.69431 0.62891 0.15739 0.0
H1066 H 0.71082 0.6767 0.10517 0.0
C1067 C 0.7959 0.62099 0.10266 0.0
C1068 C 0.8879 0.29734 0.61125 0.0
C1069 C 0.86823 0.26695 0.58994 0.0
H1070 H 0.93066 0.31191 0.65668 0.0
C1071 C 0.87638 0.22697 0.59926 0.0
H1072 H 0.88186 0.32844 0.60481 0.0
C1073 C 0.90502 0.21758 0.62817 0.0
C1074 C 0.92501 0.24799 0.64916 0.0
H1075 H 0.86163 0.20304 0.58327 0.0
H1076 H 0.91166 0.1865 0.63407 0.0
C1077 C 0.91559 0.28795 0.64104 0.0
C1078 C 0.23008 0.41327 0.14084 0.0
C1079 C 0.26998 0.42424 0.14715 0.0
H1080 H 0.18925 0.37794 0.10647 0.0
C1081 C 0.30011 0.40504 0.12502 0.0
H1082 H 0.20631 0.4276 0.15742 0.0
C1083 C 0.29046 0.37576 0.09671 0.0
C1084 C 0.25042 0.36616 0.08921 0.0
H1085 H 0.33116 0.4128 0.12958 0.0
H1086 H 0.3141 0.36179 0.07965 0.0
C1087 C 0.22037 0.38498 0.11168 0.0
C1088 C 0.39828 0.10375 0.21883 0.0
C1089 C 0.36728 0.09304 0.24516 0.0
H1090 H 0.44961 0.1408 0.20861 0.0
C1091 C 0.36346 0.11397 0.2813 0.0
H1092 H 0.40179 0.08855 0.19051 0.0
C1093 C 0.39083 0.14368 0.29161 0.0
C1094 C 0.42248 0.15366 0.26587 0.0
H1095 H 0.33984 0.10677 0.30217 0.0
H1096 H 0.38759 0.15844 0.32022 0.0
C1097 C 0.42545 0.13396 0.22897 0.0
C1098 C 0.37718 0.91924 0.72613 0.0
C1099 C 0.36855 0.92805 0.76613 0.0
H1100 H 0.41336 0.88542 0.68554 0.0
C1101 C 0.38864 0.90713 0.79644 0.0
H1102 H 0.36215 0.93499 0.70227 0.0
C1103 C 0.41712 0.8781 0.78693 0.0
C1104 C 0.42689 0.87041 0.74696 0.0
H1105 H 0.38227 0.91323 0.82755 0.0
H1106 H 0.43234 0.86257 0.81082 0.0
C1107 C 0.40656 0.8911 0.71664 0.0
C1108 C 0.63403 0.92338 0.28714 0.0
C1109 C 0.65246 0.92169 0.24957 0.0
H1110 H 0.58952 0.89915 0.32597 0.0
C1111 C 0.64099 0.89138 0.22273 0.0
H1112 H 0.64204 0.94635 0.30844 0.0
C1113 C 0.61098 0.86408 0.23285 0.0
C1114 C 0.59134 0.86693 0.26976 0.0
H1115 H 0.65478 0.88915 0.19357 0.0
H1116 H 0.60242 0.8415 0.21135 0.0
C1117 C 0.60364 0.89651 0.297 0.0
C1118 C 0.6319 0.11322 0.79775 0.0
C1119 C 0.65105 0.09166 0.76722 0.0
H1120 H 0.58855 0.15795 0.81268 0.0
C1121 C 0.64177 0.09999 0.72734 0.0
H1122 H 0.63877 0.10732 0.82878 0.0
C1123 C 0.61225 0.12808 0.71824 0.0
C1124 C 0.5925 0.14906 0.74884 0.0
H1125 H 0.65604 0.08362 0.70338 0.0
H1126 H 0.60463 0.13323 0.68726 0.0
C1127 C 0.60331 0.14216 0.78862 0.0
C1128 C 0.88433 0.72112 0.61135 0.0
C1129 C 0.86581 0.75175 0.58945 0.0
H1130 H 0.92692 0.70595 0.65667 0.0
C1131 C 0.87541 0.79158 0.59784 0.0
H1132 H 0.8772 0.69012 0.60544 0.0
C1133 C 0.90463 0.80051 0.62632 0.0
C1134 C 0.92375 0.76981 0.64765 0.0
H1135 H 0.86162 0.81562 0.58125 0.0
H1136 H 0.91255 0.83145 0.63148 0.0
C1137 C 0.91261 0.73009 0.64067 0.0
C1138 C 0.79689 0.39029 0.11016 0.0
C1139 C 0.76597 0.3705 0.08983 0.0
H1140 H 0.81261 0.43338 0.1549 0.0
C1141 C 0.72625 0.37901 0.09983 0.0
H1142 H 0.82781 0.38397 0.10312 0.0
C1143 C 0.7176 0.40803 0.12865 0.0
C1144 C 0.74855 0.42801 0.14879 0.0
H1145 H 0.70195 0.36416 0.08452 0.0
H1146 H 0.6867 0.41484 0.13527 0.0
C1147 C 0.78826 0.41835 0.13985 0.0
C1148 C 0.09178 0.28478 0.63101 0.0
C1149 C 0.09381 0.24804 0.65101 0.0
H1150 H 0.11646 0.32227 0.58551 0.0
C1151 C 0.12475 0.22136 0.64124 0.0
H1152 H 0.06826 0.3059 0.63774 0.0
C1153 C 0.15243 0.23073 0.61149 0.0
C1154 C 0.14954 0.26679 0.59039 0.0
H1155 H 0.1273 0.19286 0.65629 0.0
H1156 H 0.17556 0.20928 0.60443 0.0
C1157 C 0.1192 0.29395 0.60083 0.0
C1158 C 0.23078 0.59058 0.13133 0.0
C1159 C 0.26767 0.59337 0.15091 0.0
H1160 H 0.19246 0.61417 0.08606 0.0
C1161 C 0.29371 0.62477 0.14064 0.0
H1162 H 0.21014 0.56673 0.1384 0.0
C1163 C 0.28358 0.65208 0.11075 0.0
C1164 C 0.24741 0.64832 0.09001 0.0
H1165 H 0.32233 0.62791 0.15532 0.0
H1166 H 0.30455 0.67553 0.10326 0.0
C1167 C 0.22088 0.61759 0.10105 0.0
C1168 C 0.86799 0.2305 0.40943 0.0
C1169 C 0.86193 0.27082 0.41879 0.0
H1170 H 0.90048 0.1881 0.37479 0.0
C1171 C 0.88345 0.30005 0.3974 0.0
H1172 H 0.85177 0.20729 0.42501 0.0
C1173 C 0.91171 0.28914 0.36873 0.0
C1174 C 0.91893 0.24876 0.36055 0.0
H1175 H 0.87932 0.33153 0.40353 0.0
H1176 H 0.92853 0.31231 0.35373 0.0
C1177 C 0.89603 0.2196 0.38056 0.0
C1178 C 0.28762 0.36918 0.9102 0.0
C1179 C 0.24706 0.36261 0.91807 0.0
H1180 H 0.33088 0.40211 0.87695 0.0
C1181 C 0.21844 0.3836 0.89547 0.0
H1182 H 0.31041 0.3534 0.92677 0.0
C1183 C 0.23008 0.41177 0.86703 0.0
C1184 C 0.27063 0.41951 0.86029 0.0
H1185 H 0.18682 0.37906 0.90039 0.0
H1186 H 0.20727 0.4281 0.85104 0.0
C1187 C 0.29927 0.39722 0.88158 0.0
C1188 C 0.13092 0.71794 0.39745 0.0
C1189 C 0.1523 0.74637 0.42 0.0
H1190 H 0.08649 0.70733 0.35276 0.0
C1191 C 0.14652 0.787 0.41197 0.0
H1192 H 0.13486 0.68627 0.40256 0.0
C1193 C 0.11898 0.79898 0.38313 0.0
C1194 C 0.09633 0.77061 0.36179 0.0
H1195 H 0.1627 0.80963 0.42845 0.0
H1196 H 0.1148 0.83067 0.37834 0.0
C1197 C 0.10318 0.72993 0.36876 0.0
C1198 C 0.78667 0.60654 0.87077 0.0
C1199 C 0.74632 0.59833 0.86339 0.0
H1200 H 0.82896 0.64013 0.90463 0.0
C1201 C 0.71707 0.62035 0.8842 0.0
H1202 H 0.80992 0.59036 0.85519 0.0
C1203 C 0.7279 0.6487 0.91281 0.0
C1204 C 0.76823 0.65598 0.92113 0.0
H1205 H 0.6856 0.61511 0.87912 0.0
H1206 H 0.70462 0.66438 0.92884 0.0
C1207 C 0.7975 0.63512 0.89921 0.0
C1208 C 0.61878 0.88451 0.71717 0.0
C1209 C 0.59672 0.86283 0.74576 0.0
H1210 H 0.66263 0.92982 0.7062 0.0
C1211 C 0.60492 0.86903 0.78632 0.0
H1212 H 0.61351 0.88035 0.68556 0.0
C1213 C 0.6333 0.89726 0.79806 0.0
C1214 C 0.65409 0.92023 0.76954 0.0
H1215 H 0.58879 0.85274 0.80911 0.0
H1216 H 0.63816 0.90172 0.8297 0.0
C1217 C 0.64705 0.91293 0.72893 0.0
C1218 C 0.61329 0.13245 0.29847 0.0
C1219 C 0.59256 0.15173 0.26751 0.0
H1220 H 0.65705 0.08849 0.31432 0.0
C1221 C 0.60145 0.14207 0.22782 0.0
H1222 H 0.6069 0.13957 0.32937 0.0
C1223 C 0.62924 0.11207 0.21932 0.0
C1224 C 0.64934 0.09216 0.25034 0.0
H1225 H 0.58569 0.1564 0.20353 0.0
H1226 H 0.63481 0.10417 0.18845 0.0
C1227 C 0.64193 0.10335 0.28995 0.0
C1228 C 0.38535 0.11825 0.80072 0.0
C1229 C 0.36294 0.09766 0.77164 0.0
H1230 H 0.43166 0.16084 0.81259 0.0
C1231 C 0.3688 0.10716 0.73132 0.0
H1232 H 0.38145 0.11188 0.83216 0.0
C1233 C 0.39735 0.13539 0.72021 0.0
C1234 C 0.42105 0.15472 0.74912 0.0
H1235 H 0.35189 0.09221 0.70817 0.0
H1236 H 0.40144 0.14129 0.6887 0.0
C1237 C 0.41417 0.1464 0.78957 0.0
C1238 C 0.39751 0.88596 0.29965 0.0
C1239 C 0.4199 0.8646 0.27107 0.0
H1240 H 0.35349 0.93094 0.3108 0.0
C1241 C 0.41237 0.87145 0.23048 0.0
H1242 H 0.40221 0.88134 0.33128 0.0
C1243 C 0.38411 0.89985 0.2188 0.0
C1244 C 0.36285 0.92229 0.24742 0.0
H1245 H 0.42883 0.85547 0.2077 0.0
H1246 H 0.37964 0.9048 0.18719 0.0
C1247 C 0.36947 0.91452 0.28798 0.0
loop_
_geom_bond_atom_site_label_1
_geom_bond_atom_site_label_2
_geom_bond_distance
_geom_bond_site_symmetry_2
_ccdc_geom_bond_type
Fe0 O2 1.918 . S
Fe0 O5 1.997 . S
Fe0 O6 2.002 . S
Fe0 O11 1.976 1_455 S
Fe0 O14 1.996 1_455 S
Fe1 O2 1.918 . S
Fe1 O9 1.997 . S
Fe1 O12 1.996 1_455 S
Fe1 O16 1.976 1_455 S
Fe1 O19 2.002 . S
O2 Fe0 1.918 . S
O2 Fe1 1.918 . S
O2 Fe3 1.918 . S
Fe3 O2 1.918 . S
Fe3 O4 2.002 . S
Fe3 O13 1.976 1_455 S
Fe3 O17 1.996 1_455 S
Fe3 O20 1.997 . S
O4 Fe3 2.002 . S
O4 C21 1.295 . S
O5 Fe0 1.997 . S
O5 C21 1.235 . S
O6 Fe0 2.002 . S
O6 C7 1.295 . S
C7 O6 1.295 . S
C7 O9 1.235 . S
C8 O13 1.287 . S
C8 O14 1.255 . S
O9 Fe1 1.997 . S
O9 C7 1.235 . S
C10 O16 1.287 . S
C10 O17 1.255 . S
O11 Fe0 1.976 1_655 S
O11 C18 1.287 . S
O12 Fe1 1.996 1_655 S
O12 C18 1.255 . S
O13 Fe3 1.976 1_655 S
O13 C8 1.287 . S
O14 Fe0 1.996 1_655 S
O14 C8 1.255 . S
C15 O19 1.295 . S
C15 O20 1.235 . S
O16 Fe1 1.976 1_655 S
O16 C10 1.287 . S
O17 Fe3 1.996 1_655 S
O17 C10 1.255 . S
C18 O11 1.287 . S
C18 O12 1.255 . S
O19 Fe1 2.002 . S
O19 C15 1.295 . S
O20 Fe3 1.997 . S
O20 C15 1.235 . S
C21 O4 1.295 . S
C21 O5 1.235 . S
Fe22 O24 1.918 . S
Fe22 O27 1.997 . S
Fe22 O28 2.002 . S
Fe22 O33 1.976 . S
Fe22 O36 1.996 . S
Fe23 O24 1.918 . S
Fe23 O31 1.997 . S
Fe23 O34 1.996 . S
Fe23 O38 1.976 . S
Fe23 O41 2.002 . S
O24 Fe22 1.918 . S
O24 Fe23 1.918 . S
O24 Fe25 1.918 . S
Fe25 O24 1.918 . S
Fe25 O26 2.002 . S
Fe25 O35 1.976 . S
Fe25 O39 1.996 . S
Fe25 O42 1.997 . S
O26 Fe25 2.002 . S
O26 C43 1.295 . S
O27 Fe22 1.997 . S
O27 C43 1.235 . S
O28 Fe22 2.002 . S
O28 C29 1.295 . S
C29 O28 1.295 . S
C29 O31 1.235 . S
C30 O35 1.287 . S
C30 O36 1.255 . S
O31 Fe23 1.997 . S
O31 C29 1.235 . S
C32 O38 1.287 . S
C32 O39 1.255 . S
O33 Fe22 1.976 . S
O33 C40 1.287 . S
O34 Fe23 1.996 . S
O34 C40 1.255 . S
O35 Fe25 1.976 . S
O35 C30 1.287 . S
O36 Fe22 1.996 . S
O36 C30 1.255 . S
C37 O41 1.295 . S
C37 O42 1.235 . S
O38 Fe23 1.976 . S
O38 C32 1.287 . S
O39 Fe25 1.996 . S
O39 C32 1.255 . S
C40 O33 1.287 . S
C40 O34 1.255 . S
O41 Fe23 2.002 . S
O41 C37 1.295 . S
O42 Fe25 1.997 . S
O42 C37 1.235 . S
C43 O26 1.295 . S
C43 O27 1.235 . S
Fe44 O46 1.918 . S
Fe44 O49 1.997 1_455 S
Fe44 O50 2.002 1_455 S
Fe44 O55 1.976 . S
Fe44 O58 1.996 . S
Fe45 O46 1.918 . S
Fe45 O53 1.997 1_455 S
Fe45 O56 1.996 . S
Fe45 O60 1.976 . S
Fe45 O63 2.002 1_455 S
O46 Fe44 1.918 . S
O46 Fe45 1.918 . S
O46 Fe47 1.918 . S
Fe47 O46 1.918 . S
Fe47 O48 2.002 1_455 S
Fe47 O57 1.976 . S
Fe47 O61 1.996 . S
Fe47 O64 1.997 1_455 S
O48 Fe47 2.002 1_655 S
O48 C65 1.295 . S
O49 Fe44 1.997 1_655 S
O49 C65 1.235 . S
O50 Fe44 2.002 1_655 S
O50 C51 1.295 . S
C51 O50 1.295 . S
C51 O53 1.235 . S
C52 O57 1.287 . S
C52 O58 1.255 . S
O53 Fe45 1.997 1_655 S
O53 C51 1.235 . S
C54 O60 1.287 . S
C54 O61 1.255 . S
O55 Fe44 1.976 . S
O55 C62 1.287 . S
O56 Fe45 1.996 . S
O56 C62 1.255 . S
O57 Fe47 1.976 . S
O57 C52 1.287 . S
O58 Fe44 1.996 . S
O58 C52 1.255 . S
C59 O63 1.295 . S
C59 O64 1.235 . S
O60 Fe45 1.976 . S
O60 C54 1.287 . S
O61 Fe47 1.996 . S
O61 C54 1.255 . S
C62 O55 1.287 . S
C62 O56 1.255 . S
O63 Fe45 2.002 1_655 S
O63 C59 1.295 . S
O64 Fe47 1.997 1_655 S
O64 C59 1.235 . S
C65 O48 1.295 . S
C65 O49 1.235 . S
Fe66 O68 1.918 . S
Fe66 O71 1.997 . S
Fe66 O72 2.002 . S
Fe66 O77 1.976 . S
Fe66 O80 1.996 . S
Fe67 O68 1.918 . S
Fe67 O75 1.997 . S
Fe67 O78 1.996 . S
Fe67 O82 1.976 . S
Fe67 O85 2.002 . S
O68 Fe66 1.918 . S
O68 Fe67 1.918 . S
O68 Fe69 1.918 . S
Fe69 O68 1.918 . S
Fe69 O70 2.002 . S
Fe69 O79 1.976 . S
Fe69 O83 1.996 . S
Fe69 O86 1.997 . S
O70 Fe69 2.002 . S
O70 C87 1.295 . S
O71 Fe66 1.997 . S
O71 C87 1.235 . S
O72 Fe66 2.002 . S
O72 C73 1.295 . S
C73 O72 1.295 . S
C73 O75 1.235 . S
C74 O79 1.287 . S
C74 O80 1.255 . S
O75 Fe67 1.997 . S
O75 C73 1.235 . S
C76 O82 1.287 . S
C76 O83 1.255 . S
O77 Fe66 1.976 . S
O77 C84 1.287 . S
O78 Fe67 1.996 . S
O78 C84 1.255 . S
O79 Fe69 1.976 . S
O79 C74 1.287 . S
O80 Fe66 1.996 . S
O80 C74 1.255 . S
C81 O85 1.295 . S
C81 O86 1.235 . S
O82 Fe67 1.976 . S
O82 C76 1.287 . S
O83 Fe69 1.996 . S
O83 C76 1.255 . S
C84 O77 1.287 . S
C84 O78 1.255 . S
O85 Fe67 2.002 . S
O85 C81 1.295 . S
O86 Fe69 1.997 . S
O86 C81 1.235 . S
C87 O70 1.295 . S
C87 O71 1.235 . S
Fe88 O90 1.918 . S
Fe88 O93 1.997 . S
Fe88 O94 2.002 . S
Fe88 O99 1.976 1_455 S
Fe88 O102 1.996 1_455 S
Fe89 O90 1.918 . S
Fe89 O97 1.997 . S
Fe89 O100 1.996 1_455 S
Fe89 O104 1.976 1_455 S
Fe89 O107 2.002 . S
O90 Fe88 1.918 . S
O90 Fe89 1.918 . S
O90 Fe91 1.918 . S
Fe91 O90 1.918 . S
Fe91 O92 2.002 . S
Fe91 O101 1.976 1_455 S
Fe91 O105 1.996 1_455 S
Fe91 O108 1.997 . S
O92 Fe91 2.002 . S
O92 C109 1.295 . S
O93 Fe88 1.997 . S
O93 C109 1.235 . S
O94 Fe88 2.002 . S
O94 C95 1.295 . S
C95 O94 1.295 . S
C95 O97 1.235 . S
C96 O101 1.287 . S
C96 O102 1.255 . S
O97 Fe89 1.997 . S
O97 C95 1.235 . S
C98 O104 1.287 . S
C98 O105 1.255 . S
O99 Fe88 1.976 1_655 S
O99 C106 1.287 . S
O100 Fe89 1.996 1_655 S
O100 C106 1.255 . S
O101 Fe91 1.976 1_655 S
O101 C96 1.287 . S
O102 Fe88 1.996 1_655 S
O102 C96 1.255 . S
C103 O107 1.295 . S
C103 O108 1.235 . S
O104 Fe89 1.976 1_655 S
O104 C98 1.287 . S
O105 Fe91 1.996 1_655 S
O105 C98 1.255 . S
C106 O99 1.287 . S
C106 O100 1.255 . S
O107 Fe89 2.002 . S
O107 C103 1.295 . S
O108 Fe91 1.997 . S
O108 C103 1.235 . S
C109 O92 1.295 . S
C109 O93 1.235 . S
Fe110 O112 1.918 . S
Fe110 O115 1.997 . S
Fe110 O116 2.002 . S
Fe110 O121 1.976 . S
Fe110 O124 1.996 . S
Fe111 O112 1.918 . S
Fe111 O119 1.997 . S
Fe111 O122 1.996 . S
Fe111 O126 1.976 . S
Fe111 O129 2.002 . S
O112 Fe110 1.918 . S
O112 Fe111 1.918 . S
O112 Fe113 1.918 . S
Fe113 O112 1.918 . S
Fe113 O114 2.002 . S
Fe113 O123 1.976 . S
Fe113 O127 1.996 . S
Fe113 O130 1.997 . S
O114 Fe113 2.002 . S
O114 C131 1.295 . S
O115 Fe110 1.997 . S
O115 C131 1.235 . S
O116 Fe110 2.002 . S
O116 C117 1.295 . S
C117 O116 1.295 . S
C117 O119 1.235 . S
C118 O123 1.287 . S
C118 O124 1.255 . S
O119 Fe111 1.997 . S
O119 C117 1.235 . S
C120 O126 1.287 . S
C120 O127 1.255 . S
O121 Fe110 1.976 . S
O121 C128 1.287 . S
O122 Fe111 1.996 . S
O122 C128 1.255 . S
O123 Fe113 1.976 . S
O123 C118 1.287 . S
O124 Fe110 1.996 . S
O124 C118 1.255 . S
C125 O129 1.295 . S
C125 O130 1.235 . S
O126 Fe111 1.976 . S
O126 C120 1.287 . S
O127 Fe113 1.996 . S
O127 C120 1.255 . S
C128 O121 1.287 . S
C128 O122 1.255 . S
O129 Fe111 2.002 . S
O129 C125 1.295 . S
O130 Fe113 1.997 . S
O130 C125 1.235 . S
C131 O114 1.295 . S
C131 O115 1.235 . S
Fe132 O134 1.918 . S
Fe132 O137 1.997 1_455 S
Fe132 O138 2.002 1_455 S
Fe132 O143 1.976 . S
Fe132 O146 1.996 . S
Fe133 O134 1.918 . S
Fe133 O141 1.997 1_455 S
Fe133 O144 1.996 . S
Fe133 O148 1.976 . S
Fe133 O151 2.002 1_455 S
O134 Fe132 1.918 . S
O134 Fe133 1.918 . S
O134 Fe135 1.918 . S
Fe135 O134 1.918 . S
Fe135 O136 2.002 1_455 S
Fe135 O145 1.976 . S
Fe135 O149 1.996 . S
Fe135 O152 1.997 1_455 S
O136 Fe135 2.002 1_655 S
O136 C153 1.295 . S
O137 Fe132 1.997 1_655 S
O137 C153 1.235 . S
O138 Fe132 2.002 1_655 S
O138 C139 1.295 . S
C139 O138 1.295 . S
C139 O141 1.235 . S
C140 O145 1.287 . S
C140 O146 1.255 . S
O141 Fe133 1.997 1_655 S
O141 C139 1.235 . S
C142 O148 1.287 . S
C142 O149 1.255 . S
O143 Fe132 1.976 . S
O143 C150 1.287 . S
O144 Fe133 1.996 . S
O144 C150 1.255 . S
O145 Fe135 1.976 . S
O145 C140 1.287 . S
O146 Fe132 1.996 . S
O146 C140 1.255 . S
C147 O151 1.295 . S
C147 O152 1.235 . S
O148 Fe133 1.976 . S
O148 C142 1.287 . S
O149 Fe135 1.996 . S
O149 C142 1.255 . S
C150 O143 1.287 . S
C150 O144 1.255 . S
O151 Fe133 2.002 1_655 S
O151 C147 1.295 . S
O152 Fe135 1.997 1_655 S
O152 C147 1.235 . S
C153 O136 1.295 . S
C153 O137 1.235 . S
Fe154 O156 1.918 . S
Fe154 O159 1.997 . S
Fe154 O160 2.002 . S
Fe154 O165 1.976 . S
Fe154 O168 1.996 . S
Fe155 O156 1.918 . S
Fe155 O163 1.997 . S
Fe155 O166 1.996 . S
Fe155 O170 1.976 . S
Fe155 O173 2.002 . S
O156 Fe154 1.918 . S
O156 Fe155 1.918 . S
O156 Fe157 1.918 . S
Fe157 O156 1.918 . S
Fe157 O158 2.002 . S
Fe157 O167 1.976 . S
Fe157 O171 1.996 . S
Fe157 O174 1.997 . S
O158 Fe157 2.002 . S
O158 C175 1.295 . S
O159 Fe154 1.997 . S
O159 C175 1.235 . S
O160 Fe154 2.002 . S
O160 C161 1.295 . S
C161 O160 1.295 . S
C161 O163 1.235 . S
C162 O167 1.287 . S
C162 O168 1.255 . S
O163 Fe155 1.997 . S
O163 C161 1.235 . S
C164 O170 1.287 . S
C164 O171 1.255 . S
O165 Fe154 1.976 . S
O165 C172 1.287 . S
O166 Fe155 1.996 . S
O166 C172 1.255 . S
O167 Fe157 1.976 . S
O167 C162 1.287 . S
O168 Fe154 1.996 . S
O168 C162 1.255 . S
C169 O173 1.295 . S
C169 O174 1.235 . S
O170 Fe155 1.976 . S
O170 C164 1.287 . S
O171 Fe157 1.996 . S
O171 C164 1.255 . S
C172 O165 1.287 . S
C172 O166 1.255 . S
O173 Fe155 2.002 . S
O173 C169 1.295 . S
O174 Fe157 1.997 . S
O174 C169 1.235 . S
C175 O158 1.295 . S
C175 O159 1.235 . S
Fe176 O178 1.918 . S
Fe176 O181 1.997 . S
Fe176 O182 2.002 . S
Fe176 O187 1.976 1_545 S
Fe176 O190 1.996 1_545 S
Fe177 O178 1.918 . S
Fe177 O185 1.997 . S
Fe177 O188 1.996 1_545 S
Fe177 O192 1.976 1_545 S
Fe177 O195 2.002 . S
O178 Fe176 1.918 . S
O178 Fe177 1.918 . S
O178 Fe179 1.918 . S
Fe179 O178 1.918 . S
Fe179 O180 2.002 . S
Fe179 O189 1.976 1_545 S
Fe179 O193 1.996 1_545 S
Fe179 O196 1.997 . S
O180 Fe179 2.002 . S
O180 C197 1.295 . S
O181 Fe176 1.997 . S
O181 C197 1.235 . S
O182 Fe176 2.002 . S
O182 C183 1.295 . S
C183 O182 1.295 . S
C183 O185 1.235 . S
C184 O189 1.287 . S
C184 O190 1.255 . S
O185 Fe177 1.997 . S
O185 C183 1.235 . S
C186 O192 1.287 . S
C186 O193 1.255 . S
O187 Fe176 1.976 1_565 S
O187 C194 1.287 . S
O188 Fe177 1.996 1_565 S
O188 C194 1.255 . S
O189 Fe179 1.976 1_565 S
O189 C184 1.287 . S
O190 Fe176 1.996 1_565 S
O190 C184 1.255 . S
C191 O195 1.295 . S
C191 O196 1.235 . S
O192 Fe177 1.976 1_565 S
O192 C186 1.287 . S
O193 Fe179 1.996 1_565 S
O193 C186 1.255 . S
C194 O187 1.287 . S
C194 O188 1.255 . S
O195 Fe177 2.002 . S
O195 C191 1.295 . S
O196 Fe179 1.997 . S
O196 C191 1.235 . S
C197 O180 1.295 . S
C197 O181 1.235 . S
Fe198 O200 1.918 . S
Fe198 O203 1.997 . S
Fe198 O204 2.002 . S
Fe198 O209 1.976 . S
Fe198 O212 1.996 . S
Fe199 O200 1.918 . S
Fe199 O207 1.997 . S
Fe199 O210 1.996 . S
Fe199 O214 1.976 . S
Fe199 O217 2.002 . S
O200 Fe198 1.918 . S
O200 Fe199 1.918 . S
O200 Fe201 1.918 . S
Fe201 O200 1.918 . S
Fe201 O202 2.002 . S
Fe201 O211 1.976 . S
Fe201 O215 1.996 . S
Fe201 O218 1.997 . S
O202 Fe201 2.002 . S
O202 C219 1.295 . S
O203 Fe198 1.997 . S
O203 C219 1.235 . S
O204 Fe198 2.002 . S
O204 C205 1.295 . S
C205 O204 1.295 . S
C205 O207 1.235 . S
C206 O211 1.287 . S
C206 O212 1.255 . S
O207 Fe199 1.997 . S
O207 C205 1.235 . S
C208 O214 1.287 . S
C208 O215 1.255 . S
O209 Fe198 1.976 . S
O209 C216 1.287 . S
O210 Fe199 1.996 . S
O210 C216 1.255 . S
O211 Fe201 1.976 . S
O211 C206 1.287 . S
O212 Fe198 1.996 . S
O212 C206 1.255 . S
C213 O217 1.295 . S
C213 O218 1.235 . S
O214 Fe199 1.976 . S
O214 C208 1.287 . S
O215 Fe201 1.996 . S
O215 C208 1.255 . S
C216 O209 1.287 . S
C216 O210 1.255 . S
O217 Fe199 2.002 . S
O217 C213 1.295 . S
O218 Fe201 1.997 . S
O218 C213 1.235 . S
C219 O202 1.295 . S
C219 O203 1.235 . S
Fe220 O222 1.918 . S
Fe220 O225 1.997 1_545 S
Fe220 O226 2.002 1_545 S
Fe220 O231 1.976 . S
Fe220 O234 1.996 . S
Fe221 O222 1.918 . S
Fe221 O229 1.997 1_545 S
Fe221 O232 1.996 . S
Fe221 O236 1.976 . S
Fe221 O239 2.002 1_545 S
O222 Fe220 1.918 . S
O222 Fe221 1.918 . S
O222 Fe223 1.918 . S
Fe223 O222 1.918 . S
Fe223 O224 2.002 1_545 S
Fe223 O233 1.976 . S
Fe223 O237 1.996 . S
Fe223 O240 1.997 1_545 S
O224 Fe223 2.002 1_565 S
O224 C241 1.295 . S
O225 Fe220 1.997 1_565 S
O225 C241 1.235 . S
O226 Fe220 2.002 1_565 S
O226 C227 1.295 . S
C227 O226 1.295 . S
C227 O229 1.235 . S
C228 O233 1.287 . S
C228 O234 1.255 . S
O229 Fe221 1.997 1_565 S
O229 C227 1.235 . S
C230 O236 1.287 . S
C230 O237 1.255 . S
O231 Fe220 1.976 . S
O231 C238 1.287 . S
O232 Fe221 1.996 . S
O232 C238 1.255 . S
O233 Fe223 1.976 . S
O233 C228 1.287 . S
O234 Fe220 1.996 . S
O234 C228 1.255 . S
C235 O239 1.295 . S
C235 O240 1.235 . S
O236 Fe221 1.976 . S
O236 C230 1.287 . S
O237 Fe223 1.996 . S
O237 C230 1.255 . S
C238 O231 1.287 . S
C238 O232 1.255 . S
O239 Fe221 2.002 1_565 S
O239 C235 1.295 . S
O240 Fe223 1.997 1_565 S
O240 C235 1.235 . S
C241 O224 1.295 . S
C241 O225 1.235 . S
Fe242 O244 1.918 . S
Fe242 O247 1.997 . S
Fe242 O248 2.002 . S
Fe242 O253 1.976 . S
Fe242 O256 1.996 . S
Fe243 O244 1.918 . S
Fe243 O251 1.997 . S
Fe243 O254 1.996 . S
Fe243 O258 1.976 . S
Fe243 O261 2.002 . S
O244 Fe242 1.918 . S
O244 Fe243 1.918 . S
O244 Fe245 1.918 . S
Fe245 O244 1.918 . S
Fe245 O246 2.002 . S
Fe245 O255 1.976 . S
Fe245 O259 1.996 . S
Fe245 O262 1.997 . S
O246 Fe245 2.002 . S
O246 C263 1.295 . S
O247 Fe242 1.997 . S
O247 C263 1.235 . S
O248 Fe242 2.002 . S
O248 C249 1.295 . S
C249 O248 1.295 . S
C249 O251 1.235 . S
C250 O255 1.287 . S
C250 O256 1.255 . S
O251 Fe243 1.997 . S
O251 C249 1.235 . S
C252 O258 1.287 . S
C252 O259 1.255 . S
O253 Fe242 1.976 . S
O253 C260 1.287 . S
O254 Fe243 1.996 . S
O254 C260 1.255 . S
O255 Fe245 1.976 . S
O255 C250 1.287 . S
O256 Fe242 1.996 . S
O256 C250 1.255 . S
C257 O261 1.295 . S
C257 O262 1.235 . S
O258 Fe243 1.976 . S
O258 C252 1.287 . S
O259 Fe245 1.996 . S
O259 C252 1.255 . S
C260 O253 1.287 . S
C260 O254 1.255 . S
O261 Fe243 2.002 . S
O261 C257 1.295 . S
O262 Fe245 1.997 . S
O262 C257 1.235 . S
C263 O246 1.295 . S
C263 O247 1.235 . S
Fe264 O266 1.918 . S
Fe264 O269 1.997 1_545 S
Fe264 O270 2.002 1_545 S
Fe264 O275 1.976 . S
Fe264 O278 1.996 . S
Fe265 O266 1.918 . S
Fe265 O273 1.997 1_545 S
Fe265 O276 1.996 . S
Fe265 O280 1.976 . S
Fe265 O283 2.002 1_545 S
O266 Fe264 1.918 . S
O266 Fe265 1.918 . S
O266 Fe267 1.918 . S
Fe267 O266 1.918 . S
Fe267 O268 2.002 1_545 S
Fe267 O277 1.976 . S
Fe267 O281 1.996 . S
Fe267 O284 1.997 1_545 S
O268 Fe267 2.002 1_565 S
O268 C285 1.295 . S
O269 Fe264 1.997 1_565 S
O269 C285 1.235 . S
O270 Fe264 2.002 1_565 S
O270 C271 1.295 . S
C271 O270 1.295 . S
C271 O273 1.235 . S
C272 O277 1.287 . S
C272 O278 1.255 . S
O273 Fe265 1.997 1_565 S
O273 C271 1.235 . S
C274 O280 1.287 . S
C274 O281 1.255 . S
O275 Fe264 1.976 . S
O275 C282 1.287 . S
O276 Fe265 1.996 . S
O276 C282 1.255 . S
O277 Fe267 1.976 . S
O277 C272 1.287 . S
O278 Fe264 1.996 . S
O278 C272 1.255 . S
C279 O283 1.295 . S
C279 O284 1.235 . S
O280 Fe265 1.976 . S
O280 C274 1.287 . S
O281 Fe267 1.996 . S
O281 C274 1.255 . S
C282 O275 1.287 . S
C282 O276 1.255 . S
O283 Fe265 2.002 1_565 S
O283 C279 1.295 . S
O284 Fe267 1.997 1_565 S
O284 C279 1.235 . S
C285 O268 1.295 . S
C285 O269 1.235 . S
Fe286 O288 1.918 . S
Fe286 O291 1.997 . S
Fe286 O292 2.002 . S
Fe286 O297 1.976 . S
Fe286 O300 1.996 . S
Fe287 O288 1.918 . S
Fe287 O295 1.997 . S
Fe287 O298 1.996 . S
Fe287 O302 1.976 . S
Fe287 O305 2.002 . S
O288 Fe286 1.918 . S
O288 Fe287 1.918 . S
O288 Fe289 1.918 . S
Fe289 O288 1.918 . S
Fe289 O290 2.002 . S
Fe289 O299 1.976 . S
Fe289 O303 1.996 . S
Fe289 O306 1.997 . S
O290 Fe289 2.002 . S
O290 C307 1.295 . S
O291 Fe286 1.997 . S
O291 C307 1.235 . S
O292 Fe286 2.002 . S
O292 C293 1.295 . S
C293 O292 1.295 . S
C293 O295 1.235 . S
C294 O299 1.287 . S
C294 O300 1.255 . S
O295 Fe287 1.997 . S
O295 C293 1.235 . S
C296 O302 1.287 . S
C296 O303 1.255 . S
O297 Fe286 1.976 . S
O297 C304 1.287 . S
O298 Fe287 1.996 . S
O298 C304 1.255 . S
O299 Fe289 1.976 . S
O299 C294 1.287 . S
O300 Fe286 1.996 . S
O300 C294 1.255 . S
C301 O305 1.295 . S
C301 O306 1.235 . S
O302 Fe287 1.976 . S
O302 C296 1.287 . S
O303 Fe289 1.996 . S
O303 C296 1.255 . S
C304 O297 1.287 . S
C304 O298 1.255 . S
O305 Fe287 2.002 . S
O305 C301 1.295 . S
O306 Fe289 1.997 . S
O306 C301 1.235 . S
C307 O290 1.295 . S
C307 O291 1.235 . S
Fe308 O310 1.918 . S
Fe308 O313 1.997 . S
Fe308 O314 2.002 . S
Fe308 O319 1.976 1_545 S
Fe308 O322 1.996 1_545 S
Fe309 O310 1.918 . S
Fe309 O317 1.997 . S
Fe309 O320 1.996 1_545 S
Fe309 O324 1.976 1_545 S
Fe309 O327 2.002 . S
O310 Fe308 1.918 . S
O310 Fe309 1.918 . S
O310 Fe311 1.918 . S
Fe311 O310 1.918 . S
Fe311 O312 2.002 . S
Fe311 O321 1.976 1_545 S
Fe311 O325 1.996 1_545 S
Fe311 O328 1.997 . S
O312 Fe311 2.002 . S
O312 C329 1.295 . S
O313 Fe308 1.997 . S
O313 C329 1.235 . S
O314 Fe308 2.002 . S
O314 C315 1.295 . S
C315 O314 1.295 . S
C315 O317 1.235 . S
C316 O321 1.287 . S
C316 O322 1.255 . S
O317 Fe309 1.997 . S
O317 C315 1.235 . S
C318 O324 1.287 . S
C318 O325 1.255 . S
O319 Fe308 1.976 1_565 S
O319 C326 1.287 . S
O320 Fe309 1.996 1_565 S
O320 C326 1.255 . S
O321 Fe311 1.976 1_565 S
O321 C316 1.287 . S
O322 Fe308 1.996 1_565 S
O322 C316 1.255 . S
C323 O327 1.295 . S
C323 O328 1.235 . S
O324 Fe309 1.976 1_565 S
O324 C318 1.287 . S
O325 Fe311 1.996 1_565 S
O325 C318 1.255 . S
C326 O319 1.287 . S
C326 O320 1.255 . S
O327 Fe309 2.002 . S
O327 C323 1.295 . S
O328 Fe311 1.997 . S
O328 C323 1.235 . S
C329 O312 1.295 . S
C329 O313 1.235 . S
Fe330 O332 1.918 . S
Fe330 O335 1.997 . S
Fe330 O336 2.002 . S
Fe330 O341 1.976 . S
Fe330 O344 1.996 . S
Fe331 O332 1.918 . S
Fe331 O339 1.997 . S
Fe331 O342 1.996 . S
Fe331 O346 1.976 . S
Fe331 O349 2.002 . S
O332 Fe330 1.918 . S
O332 Fe331 1.918 . S
O332 Fe333 1.918 . S
Fe333 O332 1.918 . S
Fe333 O334 2.002 . S
Fe333 O343 1.976 . S
Fe333 O347 1.996 . S
Fe333 O350 1.997 . S
O334 Fe333 2.002 . S
O334 C351 1.295 . S
O335 Fe330 1.997 . S
O335 C351 1.235 . S
O336 Fe330 2.002 . S
O336 C337 1.295 . S
C337 O336 1.295 . S
C337 O339 1.235 . S
C338 O343 1.287 . S
C338 O344 1.255 . S
O339 Fe331 1.997 . S
O339 C337 1.235 . S
C340 O346 1.287 . S
C340 O347 1.255 . S
O341 Fe330 1.976 . S
O341 C348 1.287 . S
O342 Fe331 1.996 . S
O342 C348 1.255 . S
O343 Fe333 1.976 . S
O343 C338 1.287 . S
O344 Fe330 1.996 . S
O344 C338 1.255 . S
C345 O349 1.295 . S
C345 O350 1.235 . S
O346 Fe331 1.976 . S
O346 C340 1.287 . S
O347 Fe333 1.996 . S
O347 C340 1.255 . S
C348 O341 1.287 . S
C348 O342 1.255 . S
O349 Fe331 2.002 . S
O349 C345 1.295 . S
O350 Fe333 1.997 . S
O350 C345 1.235 . S
C351 O334 1.295 . S
C351 O335 1.235 . S
Fe352 O354 1.918 . S
Fe352 O357 1.997 . S
Fe352 O358 2.002 . S
Fe352 O363 1.976 1_554 S
Fe352 O366 1.996 1_554 S
Fe353 O354 1.918 . S
Fe353 O361 1.997 . S
Fe353 O364 1.996 1_554 S
Fe353 O368 1.976 1_554 S
Fe353 O371 2.002 . S
O354 Fe352 1.918 . S
O354 Fe353 1.918 . S
O354 Fe355 1.918 . S
Fe355 O354 1.918 . S
Fe355 O356 2.002 . S
Fe355 O365 1.976 1_554 S
Fe355 O369 1.996 1_554 S
Fe355 O372 1.997 . S
O356 Fe355 2.002 . S
O356 C373 1.295 . S
O357 Fe352 1.997 . S
O357 C373 1.235 . S
O358 Fe352 2.002 . S
O358 C359 1.295 . S
C359 O358 1.295 . S
C359 O361 1.235 . S
C360 O365 1.287 . S
C360 O366 1.255 . S
O361 Fe353 1.997 . S
O361 C359 1.235 . S
C362 O368 1.287 . S
C362 O369 1.255 . S
O363 Fe352 1.976 1_556 S
O363 C370 1.287 . S
O364 Fe353 1.996 1_556 S
O364 C370 1.255 . S
O365 Fe355 1.976 1_556 S
O365 C360 1.287 . S
O366 Fe352 1.996 1_556 S
O366 C360 1.255 . S
C367 O371 1.295 . S
C367 O372 1.235 . S
O368 Fe353 1.976 1_556 S
O368 C362 1.287 . S
O369 Fe355 1.996 1_556 S
O369 C362 1.255 . S
C370 O363 1.287 . S
C370 O364 1.255 . S
O371 Fe353 2.002 . S
O371 C367 1.295 . S
O372 Fe355 1.997 . S
O372 C367 1.235 . S
C373 O356 1.295 . S
C373 O357 1.235 . S
Fe374 O376 1.918 . S
Fe374 O379 1.997 1_554 S
Fe374 O380 2.002 1_554 S
Fe374 O385 1.976 . S
Fe374 O388 1.996 . S
Fe375 O376 1.918 . S
Fe375 O383 1.997 1_554 S
Fe375 O386 1.996 . S
Fe375 O390 1.976 . S
Fe375 O393 2.002 1_554 S
O376 Fe374 1.918 . S
O376 Fe375 1.918 . S
O376 Fe377 1.918 . S
Fe377 O376 1.918 . S
Fe377 O378 2.002 1_554 S
Fe377 O387 1.976 . S
Fe377 O391 1.996 . S
Fe377 O394 1.997 1_554 S
O378 Fe377 2.002 1_556 S
O378 C395 1.295 . S
O379 Fe374 1.997 1_556 S
O379 C395 1.235 . S
O380 Fe374 2.002 1_556 S
O380 C381 1.295 . S
C381 O380 1.295 . S
C381 O383 1.235 . S
C382 O387 1.287 . S
C382 O388 1.255 . S
O383 Fe375 1.997 1_556 S
O383 C381 1.235 . S
C384 O390 1.287 . S
C384 O391 1.255 . S
O385 Fe374 1.976 . S
O385 C392 1.287 . S
O386 Fe375 1.996 . S
O386 C392 1.255 . S
O387 Fe377 1.976 . S
O387 C382 1.287 . S
O388 Fe374 1.996 . S
O388 C382 1.255 . S
C389 O393 1.295 . S
C389 O394 1.235 . S
O390 Fe375 1.976 . S
O390 C384 1.287 . S
O391 Fe377 1.996 . S
O391 C384 1.255 . S
C392 O385 1.287 . S
C392 O386 1.255 . S
O393 Fe375 2.002 1_556 S
O393 C389 1.295 . S
O394 Fe377 1.997 1_556 S
O394 C389 1.235 . S
C395 O378 1.295 . S
C395 O379 1.235 . S
Fe396 O398 1.918 . S
Fe396 O401 1.997 . S
Fe396 O402 2.002 . S
Fe396 O407 1.976 . S
Fe396 O410 1.996 . S
Fe397 O398 1.918 . S
Fe397 O405 1.997 . S
Fe397 O408 1.996 . S
Fe397 O412 1.976 . S
Fe397 O415 2.002 . S
O398 Fe396 1.918 . S
O398 Fe397 1.918 . S
O398 Fe399 1.918 . S
Fe399 O398 1.918 . S
Fe399 O400 2.002 . S
Fe399 O409 1.976 . S
Fe399 O413 1.996 . S
Fe399 O416 1.997 . S
O400 Fe399 2.002 . S
O400 C417 1.295 . S
O401 Fe396 1.997 . S
O401 C417 1.235 . S
O402 Fe396 2.002 . S
O402 C403 1.295 . S
C403 O402 1.295 . S
C403 O405 1.235 . S
C404 O409 1.287 . S
C404 O410 1.255 . S
O405 Fe397 1.997 . S
O405 C403 1.235 . S
C406 O412 1.287 . S
C406 O413 1.255 . S
O407 Fe396 1.976 . S
O407 C414 1.287 . S
O408 Fe397 1.996 . S
O408 C414 1.255 . S
O409 Fe399 1.976 . S
O409 C404 1.287 . S
O410 Fe396 1.996 . S
O410 C404 1.255 . S
C411 O415 1.295 . S
C411 O416 1.235 . S
O412 Fe397 1.976 . S
O412 C406 1.287 . S
O413 Fe399 1.996 . S
O413 C406 1.255 . S
C414 O407 1.287 . S
C414 O408 1.255 . S
O415 Fe397 2.002 . S
O415 C411 1.295 . S
O416 Fe399 1.997 . S
O416 C411 1.235 . S
C417 O400 1.295 . S
C417 O401 1.235 . S
Fe418 O420 1.918 . S
Fe418 O423 1.997 1_554 S
Fe418 O424 2.002 1_554 S
Fe418 O429 1.976 . S
Fe418 O432 1.996 . S
Fe419 O420 1.918 . S
Fe419 O427 1.997 1_554 S
Fe419 O430 1.996 . S
Fe419 O434 1.976 . S
Fe419 O437 2.002 1_554 S
O420 Fe418 1.918 . S
O420 Fe419 1.918 . S
O420 Fe421 1.918 . S
Fe421 O420 1.918 . S
Fe421 O422 2.002 1_554 S
Fe421 O431 1.976 . S
Fe421 O435 1.996 . S
Fe421 O438 1.997 1_554 S
O422 Fe421 2.002 1_556 S
O422 C439 1.295 . S
O423 Fe418 1.997 1_556 S
O423 C439 1.235 . S
O424 Fe418 2.002 1_556 S
O424 C425 1.295 . S
C425 O424 1.295 . S
C425 O427 1.235 . S
C426 O431 1.287 . S
C426 O432 1.255 . S
O427 Fe419 1.997 1_556 S
O427 C425 1.235 . S
C428 O434 1.287 . S
C428 O435 1.255 . S
O429 Fe418 1.976 . S
O429 C436 1.287 . S
O430 Fe419 1.996 . S
O430 C436 1.255 . S
O431 Fe421 1.976 . S
O431 C426 1.287 . S
O432 Fe418 1.996 . S
O432 C426 1.255 . S
C433 O437 1.295 . S
C433 O438 1.235 . S
O434 Fe419 1.976 . S
O434 C428 1.287 . S
O435 Fe421 1.996 . S
O435 C428 1.255 . S
C436 O429 1.287 . S
C436 O430 1.255 . S
O437 Fe419 2.002 1_556 S
O437 C433 1.295 . S
O438 Fe421 1.997 1_556 S
O438 C433 1.235 . S
C439 O422 1.295 . S
C439 O423 1.235 . S
Fe440 O442 1.918 . S
Fe440 O445 1.997 . S
Fe440 O446 2.002 . S
Fe440 O451 1.976 . S
Fe440 O454 1.996 . S
Fe441 O442 1.918 . S
Fe441 O449 1.997 . S
Fe441 O452 1.996 . S
Fe441 O456 1.976 . S
Fe441 O459 2.002 . S
O442 Fe440 1.918 . S
O442 Fe441 1.918 . S
O442 Fe443 1.918 . S
Fe443 O442 1.918 . S
Fe443 O444 2.002 . S
Fe443 O453 1.976 . S
Fe443 O457 1.996 . S
Fe443 O460 1.997 . S
O444 Fe443 2.002 . S
O444 C461 1.295 . S
O445 Fe440 1.997 . S
O445 C461 1.235 . S
O446 Fe440 2.002 . S
O446 C447 1.295 . S
C447 O446 1.295 . S
C447 O449 1.235 . S
C448 O453 1.287 . S
C448 O454 1.255 . S
O449 Fe441 1.997 . S
O449 C447 1.235 . S
C450 O456 1.287 . S
C450 O457 1.255 . S
O451 Fe440 1.976 . S
O451 C458 1.287 . S
O452 Fe441 1.996 . S
O452 C458 1.255 . S
O453 Fe443 1.976 . S
O453 C448 1.287 . S
O454 Fe440 1.996 . S
O454 C448 1.255 . S
C455 O459 1.295 . S
C455 O460 1.235 . S
O456 Fe441 1.976 . S
O456 C450 1.287 . S
O457 Fe443 1.996 . S
O457 C450 1.255 . S
C458 O451 1.287 . S
C458 O452 1.255 . S
O459 Fe441 2.002 . S
O459 C455 1.295 . S
O460 Fe443 1.997 . S
O460 C455 1.235 . S
C461 O444 1.295 . S
C461 O445 1.235 . S
Fe462 O464 1.918 . S
Fe462 O467 1.997 . S
Fe462 O468 2.002 . S
Fe462 O473 1.976 1_554 S
Fe462 O476 1.996 1_554 S
Fe463 O464 1.918 . S
Fe463 O471 1.997 . S
Fe463 O474 1.996 1_554 S
Fe463 O478 1.976 1_554 S
Fe463 O481 2.002 . S
O464 Fe462 1.918 . S
O464 Fe463 1.918 . S
O464 Fe465 1.918 . S
Fe465 O464 1.918 . S
Fe465 O466 2.002 . S
Fe465 O475 1.976 1_554 S
Fe465 O479 1.996 1_554 S
Fe465 O482 1.997 . S
O466 Fe465 2.002 . S
O466 C483 1.295 . S
O467 Fe462 1.997 . S
O467 C483 1.235 . S
O468 Fe462 2.002 . S
O468 C469 1.295 . S
C469 O468 1.295 . S
C469 O471 1.235 . S
C470 O475 1.287 . S
C470 O476 1.255 . S
O471 Fe463 1.997 . S
O471 C469 1.235 . S
C472 O478 1.287 . S
C472 O479 1.255 . S
O473 Fe462 1.976 1_556 S
O473 C480 1.287 . S
O474 Fe463 1.996 1_556 S
O474 C480 1.255 . S
O475 Fe465 1.976 1_556 S
O475 C470 1.287 . S
O476 Fe462 1.996 1_556 S
O476 C470 1.255 . S
C477 O481 1.295 . S
C477 O482 1.235 . S
O478 Fe463 1.976 1_556 S
O478 C472 1.287 . S
O479 Fe465 1.996 1_556 S
O479 C472 1.255 . S
C480 O473 1.287 . S
C480 O474 1.255 . S
O481 Fe463 2.002 . S
O481 C477 1.295 . S
O482 Fe465 1.997 . S
O482 C477 1.235 . S
C483 O466 1.295 . S
C483 O467 1.235 . S
Fe484 O486 1.918 . S
Fe484 O489 1.997 . S
Fe484 O490 2.002 . S
Fe484 O495 1.976 . S
Fe484 O498 1.996 . S
Fe485 O486 1.918 . S
Fe485 O493 1.997 . S
Fe485 O496 1.996 . S
Fe485 O500 1.976 . S
Fe485 O503 2.002 . S
O486 Fe484 1.918 . S
O486 Fe485 1.918 . S
O486 Fe487 1.918 . S
Fe487 O486 1.918 . S
Fe487 O488 2.002 . S
Fe487 O497 1.976 . S
Fe487 O501 1.996 . S
Fe487 O504 1.997 . S
O488 Fe487 2.002 . S
O488 C505 1.295 . S
O489 Fe484 1.997 . S
O489 C505 1.235 . S
O490 Fe484 2.002 . S
O490 C491 1.295 . S
C491 O490 1.295 . S
C491 O493 1.235 . S
C492 O497 1.287 . S
C492 O498 1.255 . S
O493 Fe485 1.997 . S
O493 C491 1.235 . S
C494 O500 1.287 . S
C494 O501 1.255 . S
O495 Fe484 1.976 . S
O495 C502 1.287 . S
O496 Fe485 1.996 . S
O496 C502 1.255 . S
O497 Fe487 1.976 . S
O497 C492 1.287 . S
O498 Fe484 1.996 . S
O498 C492 1.255 . S
C499 O503 1.295 . S
C499 O504 1.235 . S
O500 Fe485 1.976 . S
O500 C494 1.287 . S
O501 Fe487 1.996 . S
O501 C494 1.255 . S
C502 O495 1.287 . S
C502 O496 1.255 . S
O503 Fe485 2.002 . S
O503 C499 1.295 . S
O504 Fe487 1.997 . S
O504 C499 1.235 . S
C505 O488 1.295 . S
C505 O489 1.235 . S
Fe506 O508 1.918 . S
Fe506 O511 1.997 . S
Fe506 O512 2.002 . S
Fe506 O517 1.976 . S
Fe506 O520 1.996 . S
Fe507 O508 1.918 . S
Fe507 O515 1.997 . S
Fe507 O518 1.996 . S
Fe507 O522 1.976 . S
Fe507 O525 2.002 . S
O508 Fe506 1.918 . S
O508 Fe507 1.918 . S
O508 Fe509 1.918 . S
Fe509 O508 1.918 . S
Fe509 O510 2.002 . S
Fe509 O519 1.976 . S
Fe509 O523 1.996 . S
Fe509 O526 1.997 . S
O510 Fe509 2.002 . S
O510 C527 1.295 . S
O511 Fe506 1.997 . S
O511 C527 1.235 . S
O512 Fe506 2.002 . S
O512 C513 1.295 . S
C513 O512 1.295 . S
C513 O515 1.235 . S
C514 O519 1.287 . S
C514 O520 1.255 . S
O515 Fe507 1.997 . S
O515 C513 1.235 . S
C516 O522 1.287 . S
C516 O523 1.255 . S
O517 Fe506 1.976 . S
O517 C524 1.287 . S
O518 Fe507 1.996 . S
O518 C524 1.255 . S
O519 Fe509 1.976 . S
O519 C514 1.287 . S
O520 Fe506 1.996 . S
O520 C514 1.255 . S
C521 O525 1.295 . S
C521 O526 1.235 . S
O522 Fe507 1.976 . S
O522 C516 1.287 . S
O523 Fe509 1.996 . S
O523 C516 1.255 . S
C524 O517 1.287 . S
C524 O518 1.255 . S
O525 Fe507 2.002 . S
O525 C521 1.295 . S
O526 Fe509 1.997 . S
O526 C521 1.235 . S
C527 O510 1.295 . S
C527 O511 1.235 . S
C528 C529 1.387 . S
C528 H532 0.950 . S
C528 C537 1.390 . S
C529 C528 1.387 . S
C529 C531 1.387 . S
H530 C537 0.950 . S
C531 C529 1.387 . S
C531 C533 1.390 . S
C531 H535 0.950 . S
H532 C528 0.950 . S
C533 C531 1.390 . S
C533 C534 1.387 . S
C533 H536 0.950 . S
C534 C533 1.387 . S
C534 C537 1.387 . S
H535 C531 0.950 . S
H536 C533 0.950 . S
C537 C528 1.390 . S
C537 H530 0.950 . S
C537 C534 1.387 . S
C538 C539 1.387 . S
C538 H542 0.950 . S
C538 C547 1.390 . S
C539 C538 1.387 . S
C539 C541 1.387 . S
H540 C547 0.950 . S
C541 C539 1.387 . S
C541 C543 1.390 . S
C541 H545 0.950 . S
H542 C538 0.950 . S
C543 C541 1.390 . S
C543 C544 1.387 . S
C543 H546 0.950 . S
C544 C543 1.387 . S
C544 C547 1.387 . S
H545 C541 0.950 . S
H546 C543 0.950 . S
C547 C538 1.390 . S
C547 H540 0.950 . S
C547 C544 1.387 . S
C548 C549 1.387 . S
C548 H552 0.950 . S
C548 C557 1.390 . S
C549 C548 1.387 . S
C549 C551 1.387 . S
H550 C557 0.950 . S
C551 C549 1.387 . S
C551 C553 1.390 . S
C551 H555 0.950 . S
H552 C548 0.950 . S
C553 C551 1.390 . S
C553 C554 1.387 . S
C553 H556 0.950 . S
C554 C553 1.387 . S
C554 C557 1.387 . S
H555 C551 0.950 . S
H556 C553 0.950 . S
C557 C548 1.390 . S
C557 H550 0.950 . S
C557 C554 1.387 . S
C558 C559 1.387 . S
C558 H562 0.950 . S
C558 C567 1.390 . S
C559 C558 1.387 . S
C559 C561 1.387 . S
H560 C567 0.950 . S
C561 C559 1.387 . S
C561 C563 1.390 . S
C561 H565 0.950 . S
H562 C558 0.950 . S
C563 C561 1.390 . S
C563 C564 1.387 . S
C563 H566 0.950 . S
C564 C563 1.387 . S
C564 C567 1.387 . S
H565 C561 0.950 . S
H566 C563 0.950 . S
C567 C558 1.390 . S
C567 H560 0.950 . S
C567 C564 1.387 . S
C568 C569 1.387 . S
C568 H572 0.950 . S
C568 C577 1.390 . S
C569 C568 1.387 . S
C569 C571 1.387 . S
H570 C577 0.950 . S
C571 C569 1.387 . S
C571 C573 1.390 . S
C571 H575 0.950 . S
H572 C568 0.950 . S
C573 C571 1.390 . S
C573 C574 1.387 . S
C573 H576 0.950 . S
C574 C573 1.387 . S
C574 C577 1.387 . S
H575 C571 0.950 . S
H576 C573 0.950 . S
C577 C568 1.390 . S
C577 H570 0.950 . S
C577 C574 1.387 . S
C578 C579 1.387 . S
C578 H582 0.950 . S
C578 C587 1.390 . S
C579 C578 1.387 . S
C579 C581 1.387 . S
H580 C587 0.950 . S
C581 C579 1.387 . S
C581 C583 1.390 . S
C581 H585 0.950 . S
H582 C578 0.950 . S
C583 C581 1.390 . S
C583 C584 1.387 . S
C583 H586 0.950 . S
C584 C583 1.387 . S
C584 C587 1.387 . S
H585 C581 0.950 . S
H586 C583 0.950 . S
C587 C578 1.390 . S
C587 H580 0.950 . S
C587 C584 1.387 . S
C588 C589 1.387 . S
C588 H592 0.950 . S
C588 C597 1.390 . S
C589 C588 1.387 . S
C589 C591 1.387 . S
H590 C597 0.950 . S
C591 C589 1.387 . S
C591 C593 1.390 . S
C591 H595 0.950 . S
H592 C588 0.950 . S
C593 C591 1.390 . S
C593 C594 1.387 . S
C593 H596 0.950 . S
C594 C593 1.387 . S
C594 C597 1.387 . S
H595 C591 0.950 . S
H596 C593 0.950 . S
C597 C588 1.390 . S
C597 H590 0.950 . S
C597 C594 1.387 . S
C598 C599 1.387 . S
C598 H602 0.950 . S
C598 C607 1.390 . S
C599 C598 1.387 . S
C599 C601 1.387 . S
H600 C607 0.950 . S
C601 C599 1.387 . S
C601 C603 1.390 . S
C601 H605 0.950 . S
H602 C598 0.950 . S
C603 C601 1.390 . S
C603 C604 1.387 . S
C603 H606 0.950 . S
C604 C603 1.387 . S
C604 C607 1.387 . S
H605 C601 0.950 . S
H606 C603 0.950 . S
C607 C598 1.390 . S
C607 H600 0.950 . S
C607 C604 1.387 . S
C608 C609 1.387 . S
C608 H612 0.950 . S
C608 C617 1.390 . S
C609 C608 1.387 . S
C609 C611 1.387 . S
H610 C617 0.950 . S
C611 C609 1.387 . S
C611 C613 1.390 . S
C611 H615 0.950 . S
H612 C608 0.950 . S
C613 C611 1.390 . S
C613 C614 1.387 . S
C613 H616 0.950 . S
C614 C613 1.387 . S
C614 C617 1.387 . S
H615 C611 0.950 . S
H616 C613 0.950 . S
C617 C608 1.390 . S
C617 H610 0.950 . S
C617 C614 1.387 . S
C618 C619 1.387 . S
C618 H622 0.950 . S
C618 C627 1.390 . S
C619 C618 1.387 . S
C619 C621 1.387 . S
H620 C627 0.950 . S
C621 C619 1.387 . S
C621 C623 1.390 . S
C621 H625 0.950 . S
H622 C618 0.950 . S
C623 C621 1.390 . S
C623 C624 1.387 . S
C623 H626 0.950 . S
C624 C623 1.387 . S
C624 C627 1.387 . S
H625 C621 0.950 . S
H626 C623 0.950 . S
C627 C618 1.390 . S
C627 H620 0.950 . S
C627 C624 1.387 . S
C628 C629 1.387 . S
C628 H632 0.950 . S
C628 C637 1.390 . S
C629 C628 1.387 . S
C629 C631 1.387 . S
H630 C637 0.950 . S
C631 C629 1.387 . S
C631 C633 1.390 . S
C631 H635 0.950 . S
H632 C628 0.950 . S
C633 C631 1.390 . S
C633 C634 1.387 . S
C633 H636 0.950 . S
C634 C633 1.387 . S
C634 C637 1.387 . S
H635 C631 0.950 . S
H636 C633 0.950 . S
C637 C628 1.390 . S
C637 H630 0.950 . S
C637 C634 1.387 . S
C638 C639 1.387 . S
C638 H642 0.950 . S
C638 C647 1.390 . S
C639 C638 1.387 . S
C639 C641 1.387 . S
H640 C647 0.950 . S
C641 C639 1.387 . S
C641 C643 1.390 . S
C641 H645 0.950 . S
H642 C638 0.950 . S
C643 C641 1.390 . S
C643 C644 1.387 . S
C643 H646 0.950 . S
C644 C643 1.387 . S
C644 C647 1.387 . S
H645 C641 0.950 . S
H646 C643 0.950 . S
C647 C638 1.390 . S
C647 H640 0.950 . S
C647 C644 1.387 . S
C648 C649 1.387 . S
C648 H652 0.950 . S
C648 C657 1.390 . S
C649 C648 1.387 . S
C649 C651 1.387 . S
H650 C657 0.950 . S
C651 C649 1.387 . S
C651 C653 1.390 . S
C651 H655 0.950 . S
H652 C648 0.950 . S
C653 C651 1.390 . S
C653 C654 1.387 . S
C653 H656 0.950 . S
C654 C653 1.387 . S
C654 C657 1.387 . S
H655 C651 0.950 . S
H656 C653 0.950 . S
C657 C648 1.390 . S
C657 H650 0.950 . S
C657 C654 1.387 . S
C658 C659 1.387 . S
C658 H662 0.950 . S
C658 C667 1.390 . S
C659 C658 1.387 . S
C659 C661 1.387 . S
H660 C667 0.950 . S
C661 C659 1.387 . S
C661 C663 1.390 . S
C661 H665 0.950 . S
H662 C658 0.950 . S
C663 C661 1.390 . S
C663 C664 1.387 . S
C663 H666 0.950 . S
C664 C663 1.387 . S
C664 C667 1.387 . S
H665 C661 0.950 . S
H666 C663 0.950 . S
C667 C658 1.390 . S
C667 H660 0.950 . S
C667 C664 1.387 . S
C668 C669 1.387 . S
C668 H672 0.950 . S
C668 C677 1.390 . S
C669 C668 1.387 . S
C669 C671 1.387 . S
H670 C677 0.950 . S
C671 C669 1.387 . S
C671 C673 1.390 . S
C671 H675 0.950 . S
H672 C668 0.950 . S
C673 C671 1.390 . S
C673 C674 1.387 . S
C673 H676 0.950 . S
C674 C673 1.387 . S
C674 C677 1.387 . S
H675 C671 0.950 . S
H676 C673 0.950 . S
C677 C668 1.390 . S
C677 H670 0.950 . S
C677 C674 1.387 . S
C678 C679 1.387 . S
C678 H682 0.950 . S
C678 C687 1.390 . S
C679 C678 1.387 . S
C679 C681 1.387 . S
H680 C687 0.950 . S
C681 C679 1.387 . S
C681 C683 1.390 . S
C681 H685 0.950 . S
H682 C678 0.950 . S
C683 C681 1.390 . S
C683 C684 1.387 . S
C683 H686 0.950 . S
C684 C683 1.387 . S
C684 C687 1.387 . S
H685 C681 0.950 . S
H686 C683 0.950 . S
C687 C678 1.390 . S
C687 H680 0.950 . S
C687 C684 1.387 . S
C688 C689 1.387 . S
C688 H692 0.950 . S
C688 C697 1.390 . S
C689 C688 1.387 . S
C689 C691 1.387 . S
H690 C697 0.950 . S
C691 C689 1.387 . S
C691 C693 1.390 . S
C691 H695 0.950 . S
H692 C688 0.950 . S
C693 C691 1.390 . S
C693 C694 1.387 . S
C693 H696 0.950 . S
C694 C693 1.387 . S
C694 C697 1.387 . S
H695 C691 0.950 . S
H696 C693 0.950 . S
C697 C688 1.390 . S
C697 H690 0.950 . S
C697 C694 1.387 . S
C698 C699 1.387 . S
C698 H702 0.950 . S
C698 C707 1.390 . S
C699 C698 1.387 . S
C699 C701 1.387 . S
H700 C707 0.950 . S
C701 C699 1.387 . S
C701 C703 1.390 . S
C701 H705 0.950 . S
H702 C698 0.950 . S
C703 C701 1.390 . S
C703 C704 1.387 . S
C703 H706 0.950 . S
C704 C703 1.387 . S
C704 C707 1.387 . S
H705 C701 0.950 . S
H706 C703 0.950 . S
C707 C698 1.390 . S
C707 H700 0.950 . S
C707 C704 1.387 . S
C708 C709 1.387 . S
C708 H712 0.950 . S
C708 C717 1.390 . S
C709 C708 1.387 . S
C709 C711 1.387 . S
H710 C717 0.950 . S
C711 C709 1.387 . S
C711 C713 1.390 . S
C711 H715 0.950 . S
H712 C708 0.950 . S
C713 C711 1.390 . S
C713 C714 1.387 . S
C713 H716 0.950 . S
C714 C713 1.387 . S
C714 C717 1.387 . S
H715 C711 0.950 . S
H716 C713 0.950 . S
C717 C708 1.390 . S
C717 H710 0.950 . S
C717 C714 1.387 . S
C718 C719 1.387 . S
C718 H722 0.950 . S
C718 C727 1.390 . S
C719 C718 1.387 . S
C719 C721 1.387 . S
H720 C727 0.950 . S
C721 C719 1.387 . S
C721 C723 1.390 . S
C721 H725 0.950 . S
H722 C718 0.950 . S
C723 C721 1.390 . S
C723 C724 1.387 . S
C723 H726 0.950 . S
C724 C723 1.387 . S
C724 C727 1.387 . S
H725 C721 0.950 . S
H726 C723 0.950 . S
C727 C718 1.390 . S
C727 H720 0.950 . S
C727 C724 1.387 . S
C728 C729 1.387 . S
C728 H732 0.950 . S
C728 C737 1.390 . S
C729 C728 1.387 . S
C729 C731 1.387 . S
H730 C737 0.950 . S
C731 C729 1.387 . S
C731 C733 1.390 . S
C731 H735 0.950 . S
H732 C728 0.950 . S
C733 C731 1.390 . S
C733 C734 1.387 . S
C733 H736 0.950 . S
C734 C733 1.387 . S
C734 C737 1.387 . S
H735 C731 0.950 . S
H736 C733 0.950 . S
C737 C728 1.390 . S
C737 H730 0.950 . S
C737 C734 1.387 . S
C738 C739 1.387 . S
C738 H742 0.950 . S
C738 C747 1.390 . S
C739 C738 1.387 . S
C739 C741 1.387 . S
H740 C747 0.950 . S
C741 C739 1.387 . S
C741 C743 1.390 . S
C741 H745 0.950 . S
H742 C738 0.950 . S
C743 C741 1.390 . S
C743 C744 1.387 . S
C743 H746 0.950 . S
C744 C743 1.387 . S
C744 C747 1.387 . S
H745 C741 0.950 . S
H746 C743 0.950 . S
C747 C738 1.390 . S
C747 H740 0.950 . S
C747 C744 1.387 . S
C748 C749 1.387 . S
C748 H752 0.950 . S
C748 C757 1.390 . S
C749 C748 1.387 . S
C749 C751 1.387 . S
H750 C757 0.950 . S
C751 C749 1.387 . S
C751 C753 1.390 . S
C751 H755 0.950 . S
H752 C748 0.950 . S
C753 C751 1.390 . S
C753 C754 1.387 . S
C753 H756 0.950 . S
C754 C753 1.387 . S
C754 C757 1.387 . S
H755 C751 0.950 . S
H756 C753 0.950 . S
C757 C748 1.390 . S
C757 H750 0.950 . S
C757 C754 1.387 . S
C758 C759 1.387 . S
C758 H762 0.950 . S
C758 C767 1.390 . S
C759 C758 1.387 . S
C759 C761 1.387 . S
H760 C767 0.950 . S
C761 C759 1.387 . S
C761 C763 1.390 . S
C761 H765 0.950 . S
H762 C758 0.950 . S
C763 C761 1.390 . S
C763 C764 1.387 . S
C763 H766 0.950 . S
C764 C763 1.387 . S
C764 C767 1.387 . S
H765 C761 0.950 . S
H766 C763 0.950 . S
C767 C758 1.390 . S
C767 H760 0.950 . S
C767 C764 1.387 . S
C768 C769 1.387 . S
C768 H772 0.950 . S
C768 C777 1.390 . S
C769 C768 1.387 . S
C769 C771 1.387 . S
H770 C777 0.950 . S
C771 C769 1.387 . S
C771 C773 1.390 . S
C771 H775 0.950 . S
H772 C768 0.950 . S
C773 C771 1.390 . S
C773 C774 1.387 . S
C773 H776 0.950 . S
C774 C773 1.387 . S
C774 C777 1.387 . S
H775 C771 0.950 . S
H776 C773 0.950 . S
C777 C768 1.390 . S
C777 H770 0.950 . S
C777 C774 1.387 . S
C778 C779 1.387 . S
C778 H782 0.950 . S
C778 C787 1.390 . S
C779 C778 1.387 . S
C779 C781 1.387 . S
H780 C787 0.950 . S
C781 C779 1.387 . S
C781 C783 1.390 . S
C781 H785 0.950 . S
H782 C778 0.950 . S
C783 C781 1.390 . S
C783 C784 1.387 . S
C783 H786 0.950 . S
C784 C783 1.387 . S
C784 C787 1.387 . S
H785 C781 0.950 . S
H786 C783 0.950 . S
C787 C778 1.390 . S
C787 H780 0.950 . S
C787 C784 1.387 . S
C788 C789 1.387 . S
C788 H792 0.950 . S
C788 C797 1.390 . S
C789 C788 1.387 . S
C789 C791 1.387 . S
H790 C797 0.950 . S
C791 C789 1.387 . S
C791 C793 1.390 . S
C791 H795 0.950 . S
H792 C788 0.950 . S
C793 C791 1.390 . S
C793 C794 1.387 . S
C793 H796 0.950 . S
C794 C793 1.387 . S
C794 C797 1.387 . S
H795 C791 0.950 . S
H796 C793 0.950 . S
C797 C788 1.390 . S
C797 H790 0.950 . S
C797 C794 1.387 . S
C798 C799 1.387 . S
C798 H802 0.950 . S
C798 C807 1.390 . S
C799 C798 1.387 . S
C799 C801 1.387 . S
H800 C807 0.950 . S
C801 C799 1.387 . S
C801 C803 1.390 . S
C801 H805 0.950 . S
H802 C798 0.950 . S
C803 C801 1.390 . S
C803 C804 1.387 . S
C803 H806 0.950 . S
C804 C803 1.387 . S
C804 C807 1.387 . S
H805 C801 0.950 . S
H806 C803 0.950 . S
C807 C798 1.390 . S
C807 H800 0.950 . S
C807 C804 1.387 . S
C808 C809 1.387 . S
C808 H812 0.950 . S
C808 C817 1.390 . S
C809 C808 1.387 . S
C809 C811 1.387 . S
H810 C817 0.950 . S
C811 C809 1.387 . S
C811 C813 1.390 . S
C811 H815 0.950 . S
H812 C808 0.950 . S
C813 C811 1.390 . S
C813 C814 1.387 . S
C813 H816 0.950 . S
C814 C813 1.387 . S
C814 C817 1.387 . S
H815 C811 0.950 . S
H816 C813 0.950 . S
C817 C808 1.390 . S
C817 H810 0.950 . S
C817 C814 1.387 . S
C818 C819 1.387 . S
C818 H822 0.950 . S
C818 C827 1.390 . S
C819 C818 1.387 . S
C819 C821 1.387 . S
H820 C827 0.950 . S
C821 C819 1.387 . S
C821 C823 1.390 . S
C821 H825 0.950 . S
H822 C818 0.950 . S
C823 C821 1.390 . S
C823 C824 1.387 . S
C823 H826 0.950 . S
C824 C823 1.387 . S
C824 C827 1.387 . S
H825 C821 0.950 . S
H826 C823 0.950 . S
C827 C818 1.390 . S
C827 H820 0.950 . S
C827 C824 1.387 . S
C828 C829 1.387 . S
C828 H832 0.950 . S
C828 C837 1.390 . S
C829 C828 1.387 . S
C829 C831 1.387 . S
H830 C837 0.950 . S
C831 C829 1.387 . S
C831 C833 1.390 . S
C831 H835 0.950 . S
H832 C828 0.950 . S
C833 C831 1.390 . S
C833 C834 1.387 . S
C833 H836 0.950 . S
C834 C833 1.387 . S
C834 C837 1.387 . S
H835 C831 0.950 . S
H836 C833 0.950 . S
C837 C828 1.390 . S
C837 H830 0.950 . S
C837 C834 1.387 . S
C838 C839 1.387 . S
C838 H842 0.950 . S
C838 C847 1.390 . S
C839 C838 1.387 . S
C839 C841 1.387 . S
H840 C847 0.950 . S
C841 C839 1.387 . S
C841 C843 1.390 . S
C841 H845 0.950 . S
H842 C838 0.950 . S
C843 C841 1.390 . S
C843 C844 1.387 . S
C843 H846 0.950 . S
C844 C843 1.387 . S
C844 C847 1.387 . S
H845 C841 0.950 . S
H846 C843 0.950 . S
C847 C838 1.390 . S
C847 H840 0.950 . S
C847 C844 1.387 . S
C848 C849 1.387 . S
C848 H852 0.950 . S
C848 C857 1.390 . S
C849 C848 1.387 . S
C849 C851 1.387 . S
H850 C857 0.950 . S
C851 C849 1.387 . S
C851 C853 1.390 . S
C851 H855 0.950 . S
H852 C848 0.950 . S
C853 C851 1.390 . S
C853 C854 1.387 . S
C853 H856 0.950 . S
C854 C853 1.387 . S
C854 C857 1.387 . S
H855 C851 0.950 . S
H856 C853 0.950 . S
C857 C848 1.390 . S
C857 H850 0.950 . S
C857 C854 1.387 . S
C858 C859 1.387 . S
C858 H862 0.950 . S
C858 C867 1.390 . S
C859 C858 1.387 . S
C859 C861 1.387 . S
H860 C867 0.950 . S
C861 C859 1.387 . S
C861 C863 1.390 . S
C861 H865 0.950 . S
H862 C858 0.950 . S
C863 C861 1.390 . S
C863 C864 1.387 . S
C863 H866 0.950 . S
C864 C863 1.387 . S
C864 C867 1.387 . S
H865 C861 0.950 . S
H866 C863 0.950 . S
C867 C858 1.390 . S
C867 H860 0.950 . S
C867 C864 1.387 . S
C868 C869 1.387 . S
C868 H872 0.950 . S
C868 C877 1.390 . S
C869 C868 1.387 . S
C869 C871 1.387 . S
H870 C877 0.950 . S
C871 C869 1.387 . S
C871 C873 1.390 . S
C871 H875 0.950 . S
H872 C868 0.950 . S
C873 C871 1.390 . S
C873 C874 1.387 . S
C873 H876 0.950 . S
C874 C873 1.387 . S
C874 C877 1.387 . S
H875 C871 0.950 . S
H876 C873 0.950 . S
C877 C868 1.390 . S
C877 H870 0.950 . S
C877 C874 1.387 . S
C878 C879 1.387 . S
C878 H882 0.950 . S
C878 C887 1.390 . S
C879 C878 1.387 . S
C879 C881 1.387 . S
H880 C887 0.950 . S
C881 C879 1.387 . S
C881 C883 1.390 . S
C881 H885 0.950 . S
H882 C878 0.950 . S
C883 C881 1.390 . S
C883 C884 1.387 . S
C883 H886 0.950 . S
C884 C883 1.387 . S
C884 C887 1.387 . S
H885 C881 0.950 . S
H886 C883 0.950 . S
C887 C878 1.390 . S
C887 H880 0.950 . S
C887 C884 1.387 . S
C888 C889 1.387 . S
C888 H892 0.950 . S
C888 C897 1.390 . S
C889 C888 1.387 . S
C889 C891 1.387 . S
H890 C897 0.950 . S
C891 C889 1.387 . S
C891 C893 1.390 . S
C891 H895 0.950 . S
H892 C888 0.950 . S
C893 C891 1.390 . S
C893 C894 1.387 . S
C893 H896 0.950 . S
C894 C893 1.387 . S
C894 C897 1.387 . S
H895 C891 0.950 . S
H896 C893 0.950 . S
C897 C888 1.390 . S
C897 H890 0.950 . S
C897 C894 1.387 . S
C898 C899 1.387 . S
C898 H902 0.950 . S
C898 C907 1.390 . S
C899 C898 1.387 . S
C899 C901 1.387 . S
H900 C907 0.950 . S
C901 C899 1.387 . S
C901 C903 1.390 . S
C901 H905 0.950 . S
H902 C898 0.950 . S
C903 C901 1.390 . S
C903 C904 1.387 . S
C903 H906 0.950 . S
C904 C903 1.387 . S
C904 C907 1.387 . S
H905 C901 0.950 . S
H906 C903 0.950 . S
C907 C898 1.390 . S
C907 H900 0.950 . S
C907 C904 1.387 . S
C908 C909 1.387 . S
C908 H912 0.950 . S
C908 C917 1.390 . S
C909 C908 1.387 . S
C909 C911 1.387 . S
H910 C917 0.950 . S
C911 C909 1.387 . S
C911 C913 1.390 . S
C911 H915 0.950 . S
H912 C908 0.950 . S
C913 C911 1.390 . S
C913 C914 1.387 . S
C913 H916 0.950 . S
C914 C913 1.387 . S
C914 C917 1.387 . S
H915 C911 0.950 . S
H916 C913 0.950 . S
C917 C908 1.390 . S
C917 H910 0.950 . S
C917 C914 1.387 . S
C918 C919 1.387 . S
C918 H922 0.950 . S
C918 C927 1.390 . S
C919 C918 1.387 . S
C919 C921 1.387 . S
H920 C927 0.950 . S
C921 C919 1.387 . S
C921 C923 1.390 . S
C921 H925 0.950 . S
H922 C918 0.950 . S
C923 C921 1.390 . S
C923 C924 1.387 . S
C923 H926 0.950 . S
C924 C923 1.387 . S
C924 C927 1.387 . S
H925 C921 0.950 . S
H926 C923 0.950 . S
C927 C918 1.390 . S
C927 H920 0.950 . S
C927 C924 1.387 . S
C928 C929 1.387 . S
C928 H932 0.950 . S
C928 C937 1.390 . S
C929 C928 1.387 . S
C929 C931 1.387 . S
H930 C937 0.950 . S
C931 C929 1.387 . S
C931 C933 1.390 . S
C931 H935 0.950 . S
H932 C928 0.950 . S
C933 C931 1.390 . S
C933 C934 1.387 . S
C933 H936 0.950 . S
C934 C933 1.387 . S
C934 C937 1.387 . S
H935 C931 0.950 . S
H936 C933 0.950 . S
C937 C928 1.390 . S
C937 H930 0.950 . S
C937 C934 1.387 . S
C938 C939 1.387 . S
C938 H942 0.950 . S
C938 C947 1.390 . S
C939 C938 1.387 . S
C939 C941 1.387 . S
H940 C947 0.950 . S
C941 C939 1.387 . S
C941 C943 1.390 . S
C941 H945 0.950 . S
H942 C938 0.950 . S
C943 C941 1.390 . S
C943 C944 1.387 . S
C943 H946 0.950 . S
C944 C943 1.387 . S
C944 C947 1.387 . S
H945 C941 0.950 . S
H946 C943 0.950 . S
C947 C938 1.390 . S
C947 H940 0.950 . S
C947 C944 1.387 . S
C948 C949 1.387 . S
C948 H952 0.950 . S
C948 C957 1.390 . S
C949 C948 1.387 . S
C949 C951 1.387 . S
H950 C957 0.950 . S
C951 C949 1.387 . S
C951 C953 1.390 . S
C951 H955 0.950 . S
H952 C948 0.950 . S
C953 C951 1.390 . S
C953 C954 1.387 . S
C953 H956 0.950 . S
C954 C953 1.387 . S
C954 C957 1.387 . S
H955 C951 0.950 . S
H956 C953 0.950 . S
C957 C948 1.390 . S
C957 H950 0.950 . S
C957 C954 1.387 . S
C958 C959 1.387 . S
C958 H962 0.950 . S
C958 C967 1.390 . S
C959 C958 1.387 . S
C959 C961 1.387 . S
H960 C967 0.950 . S
C961 C959 1.387 . S
C961 C963 1.390 . S
C961 H965 0.950 . S
H962 C958 0.950 . S
C963 C961 1.390 . S
C963 C964 1.387 . S
C963 H966 0.950 . S
C964 C963 1.387 . S
C964 C967 1.387 . S
H965 C961 0.950 . S
H966 C963 0.950 . S
C967 C958 1.390 . S
C967 H960 0.950 . S
C967 C964 1.387 . S
C968 C969 1.387 . S
C968 H972 0.950 . S
C968 C977 1.390 . S
C969 C968 1.387 . S
C969 C971 1.387 . S
H970 C977 0.950 . S
C971 C969 1.387 . S
C971 C973 1.390 . S
C971 H975 0.950 . S
H972 C968 0.950 . S
C973 C971 1.390 . S
C973 C974 1.387 . S
C973 H976 0.950 . S
C974 C973 1.387 . S
C974 C977 1.387 . S
H975 C971 0.950 . S
H976 C973 0.950 . S
C977 C968 1.390 . S
C977 H970 0.950 . S
C977 C974 1.387 . S
C978 C979 1.387 . S
C978 H982 0.950 . S
C978 C987 1.390 . S
C979 C978 1.387 . S
C979 C981 1.387 . S
H980 C987 0.950 . S
C981 C979 1.387 . S
C981 C983 1.390 . S
C981 H985 0.950 . S
H982 C978 0.950 . S
C983 C981 1.390 . S
C983 C984 1.387 . S
C983 H986 0.950 . S
C984 C983 1.387 . S
C984 C987 1.387 . S
H985 C981 0.950 . S
H986 C983 0.950 . S
C987 C978 1.390 . S
C987 H980 0.950 . S
C987 C984 1.387 . S
C988 C989 1.387 . S
C988 H992 0.950 . S
C988 C997 1.390 . S
C989 C988 1.387 . S
C989 C991 1.387 . S
H990 C997 0.950 . S
C991 C989 1.387 . S
C991 C993 1.390 . S
C991 H995 0.950 . S
H992 C988 0.950 . S
C993 C991 1.390 . S
C993 C994 1.387 . S
C993 H996 0.950 . S
C994 C993 1.387 . S
C994 C997 1.387 . S
H995 C991 0.950 . S
H996 C993 0.950 . S
C997 C988 1.390 . S
C997 H990 0.950 . S
C997 C994 1.387 . S
C998 C999 1.387 . S
C998 H1002 0.950 . S
C998 C1007 1.390 . S
C999 C998 1.387 . S
C999 C1001 1.387 . S
H1000 C1007 0.950 . S
C1001 C999 1.387 . S
C1001 C1003 1.390 . S
C1001 H1005 0.950 . S
H1002 C998 0.950 . S
C1003 C1001 1.390 . S
C1003 C1004 1.387 . S
C1003 H1006 0.950 . S
C1004 C1003 1.387 . S
C1004 C1007 1.387 . S
H1005 C1001 0.950 . S
H1006 C1003 0.950 . S
C1007 C998 1.390 . S
C1007 H1000 0.950 . S
C1007 C1004 1.387 . S
C1008 C1009 1.387 . S
C1008 H1012 0.950 . S
C1008 C1017 1.390 . S
C1009 C1008 1.387 . S
C1009 C1011 1.387 . S
H1010 C1017 0.950 . S
C1011 C1009 1.387 . S
C1011 C1013 1.390 . S
C1011 H1015 0.950 . S
H1012 C1008 0.950 . S
C1013 C1011 1.390 . S
C1013 C1014 1.387 . S
C1013 H1016 0.950 . S
C1014 C1013 1.387 . S
C1014 C1017 1.387 . S
H1015 C1011 0.950 . S
H1016 C1013 0.950 . S
C1017 C1008 1.390 . S
C1017 H1010 0.950 . S
C1017 C1014 1.387 . S
C1018 C1019 1.387 . S
C1018 H1022 0.950 . S
C1018 C1027 1.390 . S
C1019 C1018 1.387 . S
C1019 C1021 1.387 . S
H1020 C1027 0.950 . S
C1021 C1019 1.387 . S
C1021 C1023 1.390 . S
C1021 H1025 0.950 . S
H1022 C1018 0.950 . S
C1023 C1021 1.390 . S
C1023 C1024 1.387 . S
C1023 H1026 0.950 . S
C1024 C1023 1.387 . S
C1024 C1027 1.387 . S
H1025 C1021 0.950 . S
H1026 C1023 0.950 . S
C1027 C1018 1.390 . S
C1027 H1020 0.950 . S
C1027 C1024 1.387 . S
C1028 C1029 1.387 . S
C1028 H1032 0.950 . S
C1028 C1037 1.390 . S
C1029 C1028 1.387 . S
C1029 C1031 1.387 . S
H1030 C1037 0.950 . S
C1031 C1029 1.387 . S
C1031 C1033 1.390 . S
C1031 H1035 0.950 . S
H1032 C1028 0.950 . S
C1033 C1031 1.390 . S
C1033 C1034 1.387 . S
C1033 H1036 0.950 . S
C1034 C1033 1.387 . S
C1034 C1037 1.387 . S
H1035 C1031 0.950 . S
H1036 C1033 0.950 . S
C1037 C1028 1.390 . S
C1037 H1030 0.950 . S
C1037 C1034 1.387 . S
C1038 C1039 1.387 . S
C1038 H1042 0.950 . S
C1038 C1047 1.390 . S
C1039 C1038 1.387 . S
C1039 C1041 1.387 . S
H1040 C1047 0.950 . S
C1041 C1039 1.387 . S
C1041 C1043 1.390 . S
C1041 H1045 0.950 . S
H1042 C1038 0.950 . S
C1043 C1041 1.390 . S
C1043 C1044 1.387 . S
C1043 H1046 0.950 . S
C1044 C1043 1.387 . S
C1044 C1047 1.387 . S
H1045 C1041 0.950 . S
H1046 C1043 0.950 . S
C1047 C1038 1.390 . S
C1047 H1040 0.950 . S
C1047 C1044 1.387 . S
C1048 C1049 1.387 . S
C1048 H1052 0.950 . S
C1048 C1057 1.390 . S
C1049 C1048 1.387 . S
C1049 C1051 1.387 . S
H1050 C1057 0.950 . S
C1051 C1049 1.387 . S
C1051 C1053 1.390 . S
C1051 H1055 0.950 . S
H1052 C1048 0.950 . S
C1053 C1051 1.390 . S
C1053 C1054 1.387 . S
C1053 H1056 0.950 . S
C1054 C1053 1.387 . S
C1054 C1057 1.387 . S
H1055 C1051 0.950 . S
H1056 C1053 0.950 . S
C1057 C1048 1.390 . S
C1057 H1050 0.950 . S
C1057 C1054 1.387 . S
C1058 C1059 1.387 . S
C1058 H1062 0.950 . S
C1058 C1067 1.390 . S
C1059 C1058 1.387 . S
C1059 C1061 1.387 . S
H1060 C1067 0.950 . S
C1061 C1059 1.387 . S
C1061 C1063 1.390 . S
C1061 H1065 0.950 . S
H1062 C1058 0.950 . S
C1063 C1061 1.390 . S
C1063 C1064 1.387 . S
C1063 H1066 0.950 . S
C1064 C1063 1.387 . S
C1064 C1067 1.387 . S
H1065 C1061 0.950 . S
H1066 C1063 0.950 . S
C1067 C1058 1.390 . S
C1067 H1060 0.950 . S
C1067 C1064 1.387 . S
C1068 C1069 1.387 . S
C1068 H1072 0.950 . S
C1068 C1077 1.390 . S
C1069 C1068 1.387 . S
C1069 C1071 1.387 . S
H1070 C1077 0.950 . S
C1071 C1069 1.387 . S
C1071 C1073 1.390 . S
C1071 H1075 0.950 . S
H1072 C1068 0.950 . S
C1073 C1071 1.390 . S
C1073 C1074 1.387 . S
C1073 H1076 0.950 . S
C1074 C1073 1.387 . S
C1074 C1077 1.387 . S
H1075 C1071 0.950 . S
H1076 C1073 0.950 . S
C1077 C1068 1.390 . S
C1077 H1070 0.950 . S
C1077 C1074 1.387 . S
C1078 C1079 1.387 . S
C1078 H1082 0.950 . S
C1078 C1087 1.390 . S
C1079 C1078 1.387 . S
C1079 C1081 1.387 . S
H1080 C1087 0.950 . S
C1081 C1079 1.387 . S
C1081 C1083 1.390 . S
C1081 H1085 0.950 . S
H1082 C1078 0.950 . S
C1083 C1081 1.390 . S
C1083 C1084 1.387 . S
C1083 H1086 0.950 . S
C1084 C1083 1.387 . S
C1084 C1087 1.387 . S
H1085 C1081 0.950 . S
H1086 C1083 0.950 . S
C1087 C1078 1.390 . S
C1087 H1080 0.950 . S
C1087 C1084 1.387 . S
C1088 C1089 1.387 . S
C1088 H1092 0.950 . S
C1088 C1097 1.390 . S
C1089 C1088 1.387 . S
C1089 C1091 1.387 . S
H1090 C1097 0.950 . S
C1091 C1089 1.387 . S
C1091 C1093 1.390 . S
C1091 H1095 0.950 . S
H1092 C1088 0.950 . S
C1093 C1091 1.390 . S
C1093 C1094 1.387 . S
C1093 H1096 0.950 . S
C1094 C1093 1.387 . S
C1094 C1097 1.387 . S
H1095 C1091 0.950 . S
H1096 C1093 0.950 . S
C1097 C1088 1.390 . S
C1097 H1090 0.950 . S
C1097 C1094 1.387 . S
C1098 C1099 1.387 . S
C1098 H1102 0.950 . S
C1098 C1107 1.390 . S
C1099 C1098 1.387 . S
C1099 C1101 1.387 . S
H1100 C1107 0.950 . S
C1101 C1099 1.387 . S
C1101 C1103 1.390 . S
C1101 H1105 0.950 . S
H1102 C1098 0.950 . S
C1103 C1101 1.390 . S
C1103 C1104 1.387 . S
C1103 H1106 0.950 . S
C1104 C1103 1.387 . S
C1104 C1107 1.387 . S
H1105 C1101 0.950 . S
H1106 C1103 0.950 . S
C1107 C1098 1.390 . S
C1107 H1100 0.950 . S
C1107 C1104 1.387 . S
C1108 C1109 1.387 . S
C1108 H1112 0.950 . S
C1108 C1117 1.390 . S
C1109 C1108 1.387 . S
C1109 C1111 1.387 . S
H1110 C1117 0.950 . S
C1111 C1109 1.387 . S
C1111 C1113 1.390 . S
C1111 H1115 0.950 . S
H1112 C1108 0.950 . S
C1113 C1111 1.390 . S
C1113 C1114 1.387 . S
C1113 H1116 0.950 . S
C1114 C1113 1.387 . S
C1114 C1117 1.387 . S
H1115 C1111 0.950 . S
H1116 C1113 0.950 . S
C1117 C1108 1.390 . S
C1117 H1110 0.950 . S
C1117 C1114 1.387 . S
C1118 C1119 1.387 . S
C1118 H1122 0.950 . S
C1118 C1127 1.390 . S
C1119 C1118 1.387 . S
C1119 C1121 1.387 . S
H1120 C1127 0.950 . S
C1121 C1119 1.387 . S
C1121 C1123 1.390 . S
C1121 H1125 0.950 . S
H1122 C1118 0.950 . S
C1123 C1121 1.390 . S
C1123 C1124 1.387 . S
C1123 H1126 0.950 . S
C1124 C1123 1.387 . S
C1124 C1127 1.387 . S
H1125 C1121 0.950 . S
H1126 C1123 0.950 . S
C1127 C1118 1.390 . S
C1127 H1120 0.950 . S
C1127 C1124 1.387 . S
C1128 C1129 1.387 . S
C1128 H1132 0.950 . S
C1128 C1137 1.390 . S
C1129 C1128 1.387 . S
C1129 C1131 1.387 . S
H1130 C1137 0.950 . S
C1131 C1129 1.387 . S
C1131 C1133 1.390 . S
C1131 H1135 0.950 . S
H1132 C1128 0.950 . S
C1133 C1131 1.390 . S
C1133 C1134 1.387 . S
C1133 H1136 0.950 . S
C1134 C1133 1.387 . S
C1134 C1137 1.387 . S
H1135 C1131 0.950 . S
H1136 C1133 0.950 . S
C1137 C1128 1.390 . S
C1137 H1130 0.950 . S
C1137 C1134 1.387 . S
C1138 C1139 1.387 . S
C1138 H1142 0.950 . S
C1138 C1147 1.390 . S
C1139 C1138 1.387 . S
C1139 C1141 1.387 . S
H1140 C1147 0.950 . S
C1141 C1139 1.387 . S
C1141 C1143 1.390 . S
C1141 H1145 0.950 . S
H1142 C1138 0.950 . S
C1143 C1141 1.390 . S
C1143 C1144 1.387 . S
C1143 H1146 0.950 . S
C1144 C1143 1.387 . S
C1144 C1147 1.387 . S
H1145 C1141 0.950 . S
H1146 C1143 0.950 . S
C1147 C1138 1.390 . S
C1147 H1140 0.950 . S
C1147 C1144 1.387 . S
C1148 C1149 1.387 . S
C1148 H1152 0.950 . S
C1148 C1157 1.390 . S
C1149 C1148 1.387 . S
C1149 C1151 1.387 . S
H1150 C1157 0.950 . S
C1151 C1149 1.387 . S
C1151 C1153 1.390 . S
C1151 H1155 0.950 . S
H1152 C1148 0.950 . S
C1153 C1151 1.390 . S
C1153 C1154 1.387 . S
C1153 H1156 0.950 . S
C1154 C1153 1.387 . S
C1154 C1157 1.387 . S
H1155 C1151 0.950 . S
H1156 C1153 0.950 . S
C1157 C1148 1.390 . S
C1157 H1150 0.950 . S
C1157 C1154 1.387 . S
C1158 C1159 1.387 . S
C1158 H1162 0.950 . S
C1158 C1167 1.390 . S
C1159 C1158 1.387 . S
C1159 C1161 1.387 . S
H1160 C1167 0.950 . S
C1161 C1159 1.387 . S
C1161 C1163 1.390 . S
C1161 H1165 0.950 . S
H1162 C1158 0.950 . S
C1163 C1161 1.390 . S
C1163 C1164 1.387 . S
C1163 H1166 0.950 . S
C1164 C1163 1.387 . S
C1164 C1167 1.387 . S
H1165 C1161 0.950 . S
H1166 C1163 0.950 . S
C1167 C1158 1.390 . S
C1167 H1160 0.950 . S
C1167 C1164 1.387 . S
C1168 C1169 1.387 . S
C1168 H1172 0.950 . S
C1168 C1177 1.390 . S
C1169 C1168 1.387 . S
C1169 C1171 1.387 . S
H1170 C1177 0.950 . S
C1171 C1169 1.387 . S
C1171 C1173 1.390 . S
C1171 H1175 0.950 . S
H1172 C1168 0.950 . S
C1173 C1171 1.390 . S
C1173 C1174 1.387 . S
C1173 H1176 0.950 . S
C1174 C1173 1.387 . S
C1174 C1177 1.387 . S
H1175 C1171 0.950 . S
H1176 C1173 0.950 . S
C1177 C1168 1.390 . S
C1177 H1170 0.950 . S
C1177 C1174 1.387 . S
C1178 C1179 1.387 . S
C1178 H1182 0.950 . S
C1178 C1187 1.390 . S
C1179 C1178 1.387 . S
C1179 C1181 1.387 . S
H1180 C1187 0.950 . S
C1181 C1179 1.387 . S
C1181 C1183 1.390 . S
C1181 H1185 0.950 . S
H1182 C1178 0.950 . S
C1183 C1181 1.390 . S
C1183 C1184 1.387 . S
C1183 H1186 0.950 . S
C1184 C1183 1.387 . S
C1184 C1187 1.387 . S
H1185 C1181 0.950 . S
H1186 C1183 0.950 . S
C1187 C1178 1.390 . S
C1187 H1180 0.950 . S
C1187 C1184 1.387 . S
C1188 C1189 1.387 . S
C1188 H1192 0.950 . S
C1188 C1197 1.390 . S
C1189 C1188 1.387 . S
C1189 C1191 1.387 . S
H1190 C1197 0.950 . S
C1191 C1189 1.387 . S
C1191 C1193 1.390 . S
C1191 H1195 0.950 . S
H1192 C1188 0.950 . S
C1193 C1191 1.390 . S
C1193 C1194 1.387 . S
C1193 H1196 0.950 . S
C1194 C1193 1.387 . S
C1194 C1197 1.387 . S
H1195 C1191 0.950 . S
H1196 C1193 0.950 . S
C1197 C1188 1.390 . S
C1197 H1190 0.950 . S
C1197 C1194 1.387 . S
C1198 C1199 1.387 . S
C1198 H1202 0.950 . S
C1198 C1207 1.390 . S
C1199 C1198 1.387 . S
C1199 C1201 1.387 . S
H1200 C1207 0.950 . S
C1201 C1199 1.387 . S
C1201 C1203 1.390 . S
C1201 H1205 0.950 . S
H1202 C1198 0.950 . S
C1203 C1201 1.390 . S
C1203 C1204 1.387 . S
C1203 H1206 0.950 . S
C1204 C1203 1.387 . S
C1204 C1207 1.387 . S
H1205 C1201 0.950 . S
H1206 C1203 0.950 . S
C1207 C1198 1.390 . S
C1207 H1200 0.950 . S
C1207 C1204 1.387 . S
C1208 C1209 1.387 . S
C1208 H1212 0.950 . S
C1208 C1217 1.390 . S
C1209 C1208 1.387 . S
C1209 C1211 1.387 . S
H1210 C1217 0.950 . S
C1211 C1209 1.387 . S
C1211 C1213 1.390 . S
C1211 H1215 0.950 . S
H1212 C1208 0.950 . S
C1213 C1211 1.390 . S
C1213 C1214 1.387 . S
C1213 H1216 0.950 . S
C1214 C1213 1.387 . S
C1214 C1217 1.387 . S
H1215 C1211 0.950 . S
H1216 C1213 0.950 . S
C1217 C1208 1.390 . S
C1217 H1210 0.950 . S
C1217 C1214 1.387 . S
C1218 C1219 1.387 . S
C1218 H1222 0.950 . S
C1218 C1227 1.390 . S
C1219 C1218 1.387 . S
C1219 C1221 1.387 . S
H1220 C1227 0.950 . S
C1221 C1219 1.387 . S
C1221 C1223 1.390 . S
C1221 H1225 0.950 . S
H1222 C1218 0.950 . S
C1223 C1221 1.390 . S
C1223 C1224 1.387 . S
C1223 H1226 0.950 . S
C1224 C1223 1.387 . S
C1224 C1227 1.387 . S
H1225 C1221 0.950 . S
H1226 C1223 0.950 . S
C1227 C1218 1.390 . S
C1227 H1220 0.950 . S
C1227 C1224 1.387 . S
C1228 C1229 1.387 . S
C1228 H1232 0.950 . S
C1228 C1237 1.390 . S
C1229 C1228 1.387 . S
C1229 C1231 1.387 . S
H1230 C1237 0.950 . S
C1231 C1229 1.387 . S
C1231 C1233 1.390 . S
C1231 H1235 0.950 . S
H1232 C1228 0.950 . S
C1233 C1231 1.390 . S
C1233 C1234 1.387 . S
C1233 H1236 0.950 . S
C1234 C1233 1.387 . S
C1234 C1237 1.387 . S
H1235 C1231 0.950 . S
H1236 C1233 0.950 . S
C1237 C1228 1.390 . S
C1237 H1230 0.950 . S
C1237 C1234 1.387 . S
C1238 C1239 1.387 . S
C1238 H1242 0.950 . S
C1238 C1247 1.390 . S
C1239 C1238 1.387 . S
C1239 C1241 1.387 . S
H1240 C1247 0.950 . S
C1241 C1239 1.387 . S
C1241 C1243 1.390 . S
C1241 H1245 0.950 . S
H1242 C1238 0.950 . S
C1243 C1241 1.390 . S
C1243 C1244 1.387 . S
C1243 H1246 0.950 . S
C1244 C1243 1.387 . S
C1244 C1247 1.387 . S
H1245 C1241 0.950 . S
H1246 C1243 0.950 . S
C1247 C1238 1.390 . S
C1247 H1240 0.950 . S
C1247 C1244 1.387 . S
C529 C15 1.289 . S
C534 C367 1.347 . S
C539 C37 1.283 . S
C544 C527 1.344 . S
C549 C469 1.344 . S
C554 C65 1.285 . S
C559 C81 1.278 . S
C564 C499 1.338 . S
C569 C95 1.281 . S
C574 C395 1.342 . S
C579 C117 1.284 . S
C584 C411 1.342 . S
C589 C139 1.284 . S
C594 C439 1.343 . S
C599 C169 1.265 . S
C604 C450 1.306 . S
C609 C197 1.291 . S
C614 C7 1.350 . S
C619 C205 1.289 . S
C624 C29 1.350 . S
C629 C59 1.344 . S
C634 C241 1.285 . S
C639 C73 1.341 . S
C644 C263 1.281 . S
C649 C279 1.285 . S
C654 C109 1.343 . S
C659 C301 1.283 . S
C664 C131 1.344 . S
C669 C329 1.297 . S
C674 C153 1.357 . S
C679 C345 1.296 . S
C684 C161 1.355 . S
C689 C373 1.280 . S
C694 C191 1.340 . S
C699 C381 1.278 . S
C704 C271 1.340 . S
C709 C293 1.340 . S
C714 C417 1.279 . S
C719 C425 1.283 . S
C724 C323 1.342 . S
C729 C458 1.259 . S
C734 C337 1.299 . S
C739 C477 1.276 . S
C744 C235 1.337 . S
C749 C257 1.353 . S
C754 C505 1.293 . S
C759 C513 1.283 . S
C764 C219 1.341 . S
C769 C480 1.320 . S
C774 C106 1.307 . S
C779 C494 1.324 . S
C784 C128 1.309 . S
C789 C150 1.304 . S
C794 C362 1.318 . S
C799 C164 1.303 . S
C804 C514 1.315 . S
C809 C426 1.321 . S
C814 C10 1.308 . S
C819 C32 1.324 . S
C824 C455 1.358 . S
C829 C382 1.321 . S
C834 C52 1.307 . S
C839 C76 1.305 . S
C844 C406 1.319 . S
C849 C316 1.307 . S
C854 C96 1.321 . S
C859 C340 1.305 . S
C864 C118 1.318 . S
C869 C274 1.298 . S
C874 C140 1.311 . S
C879 C172 1.309 . S
C884 C296 1.296 . S
C889 C228 1.292 . S
C894 C18 1.304 . S
C899 C250 1.293 . S
C904 C40 1.307 . S
C909 C184 1.305 . S
C914 C54 1.318 . S
C919 C216 1.302 . S
C924 C84 1.316 . S
C929 C318 1.322 . S
C934 C472 1.308 . S
C939 C436 1.309 . S
C944 C230 1.322 . S
C949 C252 1.361 . S
C954 C447 1.326 . S
C959 C392 1.307 . S
C964 C186 1.320 . S
C969 C404 1.306 . S
C974 C206 1.320 . S
C979 C360 1.311 . S
C984 C282 1.324 . S
C989 C524 1.310 . S
C994 C304 1.323 . S
C999 C348 1.311 . S
C1004 C492 1.298 . S
C1009 C448 1.413 . S
C1014 C21 1.412 . S
C1019 C389 1.444 . S
C1024 C43 1.445 . S
C1029 C51 1.441 . S
C1034 C403 1.442 . S
C1039 C87 1.441 . S
C1044 C433 1.440 . S
C1049 C521 1.440 . S
C1054 C103 1.439 . S
C1059 C125 1.443 . S
C1064 C483 1.442 . S
C1069 C491 1.448 . S
C1074 C147 1.450 . S
C1079 C175 1.444 . S
C1084 C359 1.443 . S
C1089 C183 1.449 . S
C1094 C351 1.451 . S
C1099 C285 1.442 . S
C1104 C213 1.441 . S
C1109 C227 1.436 . S
C1114 C307 1.435 . S
C1119 C315 1.449 . S
C1124 C249 1.450 . S
C1129 C414 1.415 . S
C1134 C98 1.415 . S
C1139 C428 1.416 . S
C1144 C120 1.416 . S
C1149 C142 1.443 . S
C1154 C461 1.444 . S
C1159 C162 1.412 . S
C1164 C384 1.412 . S
C1169 C502 1.408 . S
C1174 C8 1.408 . S
C1179 C370 1.413 . S
C1184 C30 1.413 . S
C1189 C516 1.416 . S
C1194 C62 1.416 . S
C1199 C74 1.414 . S
C1204 C470 1.414 . S
C1209 C208 1.421 . S
C1214 C326 1.420 . S
C1219 C338 1.407 . S
C1224 C238 1.407 . S
C1229 C272 1.407 . S
C1234 C260 1.406 . S
C1239 C294 1.415 . S
C1244 C194 1.415 . S
