# Generated by pormake.
# Topology rkf, (6)-cn, num edge types: 1
# Building blocks:
#     Node 0, Type 0, BuildingBlock: NUHQIS_clean_sbu_0, # of connection points: 6
#     Node 1, Type 0, BuildingBlock: NUHQIS_clean_sbu_0, # of connection points: 6
#     Node 2, Type 0, BuildingBlock: NUHQIS_clean_sbu_0, # of connection points: 6
#     Node 3, Type 0, BuildingBlock: NUHQIS_clean_sbu_0, # of connection points: 6
#     Node 4, Type 0, BuildingBlock: NUHQIS_clean_sbu_0, # of connection points: 6
#     Node 5, Type 0, BuildingBlock: NUHQIS_clean_sbu_0, # of connection points: 6
#     Edge 6, Type (0, 0), BuildingBlock: XIVTED_clean_linker_0, # of connection points: 2
#     Edge 7, Type (0, 0), BuildingBlock: XIVTED_clean_linker_0, # of connection points: 2
#     Edge 8, Type (0, 0), BuildingBlock: XIVTED_clean_linker_0, # of connection points: 2
#     Edge 9, Type (0, 0), BuildingBlock: XIVTED_clean_linker_0, # of connection points: 2
#     Edge 10, Type (0, 0), BuildingBlock: XIVTED_clean_linker_0, # of connection points: 2
#     Edge 11, Type (0, 0), BuildingBlock: XIVTED_clean_linker_0, # of connection points: 2
#     Edge 12, Type (0, 0), BuildingBlock: XIVTED_clean_linker_0, # of connection points: 2
#     Edge 13, Type (0, 0), BuildingBlock: XIVTED_clean_linker_0, # of connection points: 2
#     Edge 14, Type (0, 0), BuildingBlock: XIVTED_clean_linker_0, # of connection points: 2
#     Edge 15, Type (0, 0), BuildingBlock: XIVTED_clean_linker_0, # of connection points: 2
#     Edge 16, Type (0, 0), BuildingBlock: XIVTED_clean_linker_0, # of connection points: 2
#     Edge 17, Type (0, 0), BuildingBlock: XIVTED_clean_linker_0, # of connection points: 2
#     Edge 18, Type (0, 0), BuildingBlock: XIVTED_clean_linker_0, # of connection points: 2
#     Edge 19, Type (0, 0), BuildingBlock: XIVTED_clean_linker_0, # of connection points: 2
#     Edge 20, Type (0, 0), BuildingBlock: XIVTED_clean_linker_0, # of connection points: 2
#     Edge 21, Type (0, 0), BuildingBlock: XIVTED_clean_linker_0, # of connection points: 2
#     Edge 22, Type (0, 0), BuildingBlock: XIVTED_clean_linker_0, # of connection points: 2
#     Edge 23, Type (0, 0), BuildingBlock: XIVTED_clean_linker_0, # of connection points: 2
# Relax obj value: 0.705
# Max RMSD: 0.255
# Mean RMSD: 0.255
data_MOF--net-rkf--node1-NUHQIS_clean_sbu_0--edge1-XIVTED_clean_linker_0
_symmetry_space_group_name_H-M    P1
_symmetry_Int_Tables_number       1
_symmetry_cell_setting            triclinic
loop_
_symmetry_equiv_pos_as_xyz
'x, y, z'
_cell_length_a     25.838265
_cell_length_b     25.421057
_cell_length_c     43.10886
_cell_angle_alpha  91.328286
_cell_angle_beta   89.531896
_cell_angle_gamma 120.32682
loop_
_atom_site_label
_atom_site_type_symbol
_atom_site_fract_x
_atom_site_fract_y
_atom_site_fract_z
_atom_type_partial_charge
Tb0 Tb 0.30384 0.175 0.20869 0.0
Eu1 Eu 0.42061 0.30568 0.18743 0.0
C2 C 0.28838 0.27036 0.1763 0.0
C3 C 0.35327 0.18957 1.13835 0.0
C4 C 0.18531 0.01115 0.21945 0.0
C5 C 0.18707 0.92027 0.23384 0.0
C6 C 0.21637 0.9833 0.2306 0.0
C7 C 0.12646 0.97433 0.20848 0.0
C8 C 0.09733 0.91093 0.2112 0.0
C9 C 0.12614 0.88334 0.22564 0.0
C10 C 0.21057 0.07758 0.22317 0.0
O11 O 0.37783 0.15744 0.20695 0.0
O12 O 0.45668 0.2554 0.21363 0.0
O13 O 0.39512 0.3237 0.23594 0.0
O14 O 0.33248 0.22596 0.25267 0.0
C15 C 0.43449 0.19609 0.21341 0.0
O16 O 0.51092 0.36073 1.16862 0.0
O17 O 0.46157 0.40413 0.18495 0.0
O18 O 0.33859 0.28985 1.16135 0.0
O19 O 0.28421 0.24778 0.20365 0.0
O20 O 0.31022 0.16036 1.15879 0.0
O21 O 0.40168 0.24253 1.14516 0.0
C22 C 0.36357 0.2852 0.25792 0.0
O23 O 0.25807 0.10664 0.24078 0.0
O24 O 0.21399 0.10818 0.19857 0.0
C25 C 0.52446 0.44651 1.14119 0.0
C26 C 0.54783 0.50188 1.08274 0.0
C27 C 0.58758 0.48559 1.09551 0.0
C28 C 0.57604 0.45828 1.12452 0.0
C29 C 0.48681 0.46623 1.12929 0.0
C30 C 0.4984 0.49362 1.10046 0.0
C31 C 0.50863 0.41094 1.1699 0.0
H32 H 0.21124 0.9016 0.24521 0.0
H33 H 0.26216 0.0104 0.23885 0.0
H34 H 0.10183 -0.00524 0.19943 0.0
H35 H 0.05109 0.88407 0.20365 0.0
H36 H 0.62634 0.49188 1.08258 0.0
H37 H 0.60621 0.44424 1.1334 0.0
H38 H 0.44683 0.45826 1.14157 0.0
H39 H 0.46622 0.50464 1.09126 0.0
Tb40 Tb 0.27096 0.35789 0.54494 0.0
Eu41 Eu 0.24287 0.46475 0.52392 0.0
C42 C 0.15627 0.32662 0.50979 0.0
C43 C 0.29727 0.40469 0.47421 0.0
C44 C 0.33889 0.26271 0.56306 0.0
C45 C 0.37923 0.19564 0.55354 0.0
C46 C 0.33528 0.21125 0.54825 0.0
C47 C 0.38941 0.30069 0.58148 0.0
C48 C 0.43264 0.28464 0.58718 0.0
C49 C 0.42702 0.23054 0.57432 0.0
C50 C 0.28757 0.27312 0.56178 0.0
O51 O 0.35889 0.43781 0.54303 0.0
O52 O 0.33427 0.51305 0.54712 0.0
O53 O 0.19482 0.42701 0.56984 0.0
O54 O 0.25671 0.39534 0.58829 0.0
C55 C 0.37379 0.49485 0.54797 0.0
O56 O 0.26664 0.55188 0.50307 0.0
O57 O 0.18123 0.49929 0.52625 0.0
O58 O 0.1819 0.37946 0.49655 0.0
O59 O 0.17592 0.32186 0.53681 0.0
O60 O 0.29943 0.37036 0.49613 0.0
O61 O 0.27716 0.44269 0.47946 0.0
C62 C 0.21459 0.40911 0.59304 0.0
O63 O 0.29034 0.31569 0.58028 0.0
O64 O 0.26656 0.27403 0.53451 0.0
C65 C 0.18318 0.55416 0.48217 0.0
C66 C 0.12841 0.56775 0.42892 0.0
C67 C 0.18442 0.61546 0.43931 0.0
C68 C 0.21144 0.60877 0.4658 0.0
C69 C 0.12629 0.50737 0.47242 0.0
C70 C 0.09919 0.5142 0.4462 0.0
C71 C 0.21402 0.54557 0.5086 0.0
H72 H 0.37405 0.15458 0.54248 0.0
H73 H 0.29712 0.18161 0.53364 0.0
H74 H 0.3941 0.34122 0.59298 0.0
H75 H 0.468 0.31273 0.60355 0.0
H76 H 0.20797 0.65727 0.4265 0.0
H77 H 0.25515 0.64561 0.47302 0.0
H78 H 0.10331 0.46459 0.48445 0.0
H79 H 0.05666 0.47599 0.43854 0.0
Tb80 Tb 0.0361 0.29239 0.87917 0.0
Eu81 Eu 0.90885 0.2755 0.85389 0.0
C82 C 0.94893 0.1809 0.84149 0.0
C83 C 0.027 0.32643 0.80842 0.0
C84 C 0.19603 0.3452 0.89896 0.0
C85 C 0.27982 0.43908 0.91987 0.0
C86 C 0.21833 0.40115 0.91514 0.0
C87 C 0.2368 0.33051 0.88539 0.0
C88 C 0.29857 0.36902 0.88969 0.0
C89 C 0.32081 0.42247 0.90825 0.0
C90 C 0.13117 0.29969 0.89893 0.0
O91 O 0.05399 0.38461 0.87481 0.0
O92 O 0.95757 0.36484 0.88086 0.0
O93 O 0.88894 0.22554 0.90001 0.0
O94 O -0.01701 0.28131 0.9208 0.0
C95 C 0.01576 0.40317 0.88048 0.0
O96 O 0.85368 0.31371 0.8406 0.0
O97 O 0.81418 0.21559 0.84207 0.0
O98 O 0.92883 0.21129 0.82684 0.0
O99 O -0.03199 0.19811 0.86996 0.0
O100 O 0.05569 0.31528 0.83018 0.0
O101 O -0.02701 0.31908 0.81309 0.0
C102 C 0.92545 0.24234 0.92413 0.0
O103 O 0.09717 0.31381 0.91535 0.0
O104 O 0.10616 0.27333 0.87252 0.0
C105 C 0.78009 0.25406 0.80287 0.0
C106 C 0.73105 0.23218 0.74252 0.0
C107 C 0.7915 0.27646 0.74801 0.0
C108 C 0.81582 0.28705 0.7778 0.0
C109 C 0.71908 0.21181 0.79784 0.0
C110 C 0.6947 0.20077 0.76786 0.0
C111 C 0.80705 0.2606 0.83373 0.0
H112 H 0.29446 0.47922 0.93459 0.0
H113 H 0.18827 0.41433 0.92572 0.0
H114 H 0.22091 0.28795 0.87262 0.0
H115 H 0.32861 0.35526 0.8797 0.0
H116 H 0.82119 0.30047 0.72899 0.0
H117 H 0.86317 0.31947 0.78098 0.0
H118 H 0.6908 0.18589 0.81692 0.0
H119 H 0.64803 0.16637 0.76436 0.0
Tb120 Tb 0.85434 0.07135 0.2106 0.0
Eu121 Eu 0.74918 0.93826 0.18394 0.0
C122 C 0.88482 -0.01293 0.17483 0.0
C123 C 0.81318 0.05711 1.1387 0.0
C124 C 0.95718 0.23552 0.23116 0.0
C125 C 0.03117 0.3394 0.24567 0.0
C126 C 0.01635 0.27955 0.23853 0.0
C127 C 0.91393 0.25309 0.22819 0.0
C128 C 0.92865 0.313 0.23545 0.0
C129 C -0.01319 0.3561 0.2457 0.0
C130 C 0.93973 0.17089 0.23134 0.0
O131 O 0.77736 0.08252 0.20553 0.0
O132 O 0.70379 0.98228 0.20987 0.0
O133 O 0.77997 0.92222 0.23078 0.0
O134 O 0.81466 0.0174 0.25195 0.0
C135 C 0.72137 0.04074 0.21052 0.0
O136 O 0.65874 0.8767 1.16661 0.0
O137 O 0.7185 0.84192 0.17524 0.0
O138 O 0.83516 0.96377 1.15885 0.0
O139 O 0.88475 0.00674 0.20305 0.0
O140 O 0.85109 0.08905 1.16134 0.0
O141 O 0.76857 0.00063 1.14264 0.0
C142 C 0.79832 0.95977 0.25511 0.0
O143 O 0.89112 0.13584 0.24676 0.0
O144 O 0.94215 0.14563 0.20511 0.0
C145 C 0.65156 0.79814 1.13322 0.0
C146 C 0.63413 0.73883 1.07495 0.0
C147 C 0.6509 0.8008 1.07706 0.0
C148 C 0.65981 0.8302 1.10587 0.0
C149 C 0.6323 0.73571 1.13136 0.0
C150 C 0.62378 0.70622 1.10242 0.0
C151 C 0.66731 0.83039 1.16349 0.0
H152 H 0.07625 0.37101 0.25376 0.0
H153 H 0.05027 0.26675 0.24088 0.0
H154 H 0.86796 0.21964 0.22225 0.0
H155 H 0.89368 0.32459 0.23487 0.0
H156 H 0.66064 0.82769 1.05642 0.0
H157 H 0.67533 0.87858 1.10671 0.0
H158 H 0.62585 0.71029 1.15227 0.0
H159 H 0.61089 0.6585 1.10152 0.0
Tb160 Tb 0.92809 0.91056 0.53893 0.0
Eu161 Eu 0.93777 0.79292 0.51409 0.0
C162 C 0.0341 0.92655 0.5008 0.0
C163 C 0.88711 0.85967 0.46866 0.0
C164 C 0.88147 0.02425 0.55862 0.0
C165 C 0.8568 0.10328 0.54987 0.0
C166 C 0.89484 0.07951 0.54528 0.0
C167 C 0.82743 -0.00879 0.57488 0.0
C168 C 0.79006 0.01531 0.57991 0.0
C169 C 0.80521 0.07279 0.56847 0.0
C170 C 0.92608 0.00412 0.55788 0.0
O171 O 0.83591 0.83701 0.53657 0.0
O172 O 0.85268 0.75723 0.54212 0.0
O173 O -0.00966 0.82659 0.55996 0.0
O174 O 0.93975 0.87092 0.58082 0.0
C175 C 0.81663 0.77974 0.54273 0.0
O176 O 0.89829 0.69936 0.49606 0.0
O177 O -0.00708 0.75115 0.50767 0.0
O178 O 0.00125 0.87429 0.48651 0.0
O179 O 0.01951 0.9331 0.52912 0.0
O180 O 0.89966 0.90176 0.49048 0.0
O181 O 0.8948 0.81267 0.47305 0.0
C182 C -0.02339 0.85001 0.5841 0.0
O183 O 0.91462 0.95815 0.57519 0.0
O184 O 0.94733 0.00034 0.5309 0.0
C185 C -0.03575 0.68364 0.46383 0.0
C186 C -0.01459 0.65818 0.40242 0.0
C187 C 0.93006 0.6203 0.41678 0.0
C188 C 0.91964 0.63287 0.44723 0.0
C189 C 0.021 0.71867 0.4503 0.0
C190 C 0.03144 0.70606 0.41998 0.0
C191 C 0.95005 0.70199 0.49411 0.0
H192 H 0.86937 0.14686 0.53996 0.0
H193 H 0.93589 0.10557 0.53236 0.0
H194 H 0.81528 0.94803 0.58519 0.0
H195 H 0.75147 -0.00966 0.59466 0.0
H196 H 0.89397 0.58254 0.40403 0.0
H197 H 0.87581 0.60446 0.45731 0.0
H198 H 0.0567 0.75774 0.46251 0.0
H199 H 0.07445 0.73666 0.40967 0.0
Tb200 Tb 0.15079 0.95984 0.87139 0.0
Eu201 Eu 0.28093 0.98273 0.84732 0.0
C202 C 0.23795 0.0753 0.83817 0.0
C203 C 0.16585 0.93089 0.79945 0.0
C204 C -0.00925 0.89547 0.89295 0.0
C205 C 0.88388 0.85273 0.88441 0.0
C206 C 0.94331 0.89777 0.87876 0.0
C207 C -0.02207 0.84527 0.91124 0.0
C208 C 0.91875 0.80089 0.91725 0.0
C209 C 0.87077 0.80511 0.90485 0.0
C210 C 0.05268 0.9473 0.89047 0.0
O211 O 0.13676 0.86882 0.86643 0.0
O212 O 0.23464 0.89172 0.87101 0.0
O213 O 0.29424 0.02906 0.89539 0.0
O214 O 0.20011 0.96637 0.91343 0.0
C215 C 0.17659 0.85238 0.87141 0.0
O216 O 0.34048 0.95452 0.82584 0.0
O217 O 0.37738 0.04459 0.84709 0.0
O218 O 0.26068 0.04721 0.82262 0.0
O219 O 0.21596 0.05563 0.86565 0.0
O220 O 0.13456 0.93804 0.82178 0.0
O221 O 0.22103 0.9417 0.80418 0.0
C222 C 0.25629 0.00784 0.91873 0.0
O223 O 0.09254 0.94611 0.90822 0.0
O224 O 0.07335 0.9654 0.86271 0.0
C225 C 0.42741 0.03502 0.80287 0.0
C226 C 0.49513 0.08157 0.74825 0.0
C227 C 0.48513 0.0262 0.76023 0.0
C228 C 0.45172 0.00327 0.78738 0.0
C229 C 0.43957 0.09156 0.79165 0.0
C230 C 0.4732 0.11463 0.76475 0.0
C231 C 0.38826 0.00813 0.83005 0.0
H232 H 0.84826 0.85681 0.87382 0.0
H233 H 0.95211 0.93562 0.86424 0.0
H234 H 0.0135 0.84159 0.92223 0.0
H235 H 0.91108 0.76568 0.93338 0.0
H236 H 0.50155 -0.00022 0.74809 0.0
H237 H 0.44338 0.95984 0.79579 0.0
H238 H 0.4215 0.11722 0.80303 0.0
H239 H 0.47892 0.15678 0.75591 0.0
H240 H 0.91464 0.04364 1.1189 0.0
H241 H 0.19242 0.27752 0.1954 0.0
H242 H -0.01268 -0.00275 0.19638 0.0
H243 H 0.2551 0.20875 1.12064 0.0
H244 H 0.08912 0.20311 0.18062 0.0
H245 H 0.01663 0.12454 1.10561 0.0
C246 C 0.95223 0.04845 1.13216 0.0
C247 C 0.94292 0.01463 1.15907 0.0
C248 C 0.12563 0.20628 1.16665 0.0
C249 C 0.05789 0.1054 1.14388 0.0
C250 C 0.18433 0.24882 0.17492 0.0
C251 C 0.23193 0.2485 1.15943 0.0
C252 C 0.11502 0.16269 1.1433 0.0
C253 C 0.2193 0.20983 1.13327 0.0
C254 C 0.01007 0.09465 1.12461 0.0
C255 C -0.00715 0.02275 0.17562 0.0
N256 N 0.16165 0.16631 1.12672 0.0
N257 N 0.04829 0.06835 1.16814 0.0
H258 H 0.14083 0.0265 0.51515 0.0
H259 H 0.05449 0.22318 0.52505 0.0
H260 H -0.00176 0.95403 0.4474 0.0
H261 H 0.1881 0.30198 0.45355 0.0
H262 H 0.02757 0.12154 0.50495 0.0
H263 H 0.16859 0.12965 0.49998 0.0
C264 C 0.11725 0.03232 0.49607 0.0
C265 C 0.06662 0.98218 0.48288 0.0
C266 C 0.06095 0.16134 0.49289 0.0
C267 C 0.09598 0.09875 0.46673 0.0
C268 C 0.07613 0.21903 0.50425 0.0
C269 C 0.1238 0.27057 0.491 0.0
C270 C 0.09531 0.15574 0.46912 0.0
C271 C 0.15137 0.26305 0.46441 0.0
C272 C 0.13285 0.09092 0.48753 0.0
C273 C 0.03691 -0.00813 0.45847 0.0
N274 N 0.13865 0.20632 0.45507 0.0
N275 N 0.05009 0.04945 0.45216 0.0
H276 H 0.23486 0.17469 0.85884 0.0
H277 H 0.00226 0.20919 0.78442 0.0
H278 H 0.18157 0.04641 0.78184 0.0
H279 H 0.95853 0.08521 0.85982 0.0
H280 H 0.08357 0.19057 0.76921 0.0
H281 H 0.15681 0.19704 0.84421 0.0
C282 C 0.20877 0.15359 0.83796 0.0
C283 C 0.21372 0.10805 0.82179 0.0
C284 C 0.05404 0.16532 0.78805 0.0
C285 C 0.12424 0.13205 0.80579 0.0
C286 C 0.00772 0.17575 0.79679 0.0
C287 C -0.02495 0.14986 0.82397 0.0
C288 C 0.06573 0.12764 0.80625 0.0
C289 C -0.01654 0.10663 0.83903 0.0
C290 C 0.16432 0.16615 0.82975 0.0
C291 C 0.17835 0.08129 0.79507 0.0
N292 N 0.02914 0.09794 0.83041 0.0
N293 N 0.1329 0.09171 0.78857 0.0
H294 H 0.57681 0.45279 1.03305 0.0
H295 H 0.39402 0.54507 0.92337 0.0
H296 H 0.5254 0.58612 1.05641 0.0
H297 H 0.39254 0.37425 0.92071 0.0
H298 H 0.48054 0.58728 0.95836 0.0
H299 H 0.55105 0.455 0.97905 0.0
C300 C 0.56224 0.48428 1.02674 0.0
C301 C 0.55137 0.51787 1.04954 0.0
C302 C 0.46216 0.54115 0.94926 0.0
C303 C 0.52075 0.51952 0.98779 0.0
C304 C 0.41242 0.51672 0.92948 0.0
C305 C 0.38383 0.45492 0.92006 0.0
C306 C 0.48386 0.50377 0.95932 0.0
C307 C 0.41185 0.42168 0.92758 0.0
C308 C 0.54717 0.48517 0.99585 0.0
C309 C 0.53236 0.55776 1.03976 0.0
N310 N 0.45942 0.44611 0.9473 0.0
N311 N 0.51633 0.55648 1.00971 0.0
H312 H 0.01141 0.52831 0.41286 0.0
H313 H 0.0881 0.47006 0.24369 0.0
H314 H 0.18949 0.60937 0.37449 0.0
H315 H 0.91346 0.37224 0.28605 0.0
H316 H 0.1186 0.54994 0.28378 0.0
H317 H -0.03016 0.50118 0.36035 0.0
C318 C 0.04181 0.54163 0.39335 0.0
C319 C 0.10392 0.56911 0.3981 0.0
C320 C 0.07304 0.51181 0.28378 0.0
C321 C 0.05676 0.53801 0.33805 0.0
C322 C 0.05563 0.46615 0.2609 0.0
C323 C -0.00114 0.41329 0.26212 0.0
C324 C 0.03361 0.50407 0.3082 0.0
C325 C 0.95803 0.4116 0.28438 0.0
C326 C 0.01807 0.52621 0.36336 0.0
C327 C 0.14129 0.5873 0.37198 0.0
N328 N -0.02328 0.45546 0.30702 0.0
N329 N 0.11709 0.57005 0.3431 0.0
H330 H 0.75112 0.3043 0.69207 0.0
H331 H 0.85139 0.19526 0.58056 0.0
H332 H 0.66338 0.11607 0.71872 0.0
H333 H 0.68539 0.02274 0.58429 0.0
H334 H 0.80819 0.24037 0.6138 0.0
H335 H 0.74666 0.27168 0.63781 0.0
C336 C 0.72974 0.25604 0.68644 0.0
C337 C 0.71004 0.21302 0.71006 0.0
C338 C 0.7801 0.19319 0.6065 0.0
C339 C 0.70607 0.17572 0.64838 0.0
C340 C 0.80501 0.16703 0.58728 0.0
C341 C 0.773 0.10416 0.58028 0.0
C342 C 0.72316 0.15612 0.61943 0.0
C343 C 0.71303 0.07069 0.59021 0.0
C344 C 0.72744 0.23752 0.65551 0.0
C345 C 0.68059 0.151 0.70138 0.0
N346 N 0.69083 0.0965 0.61022 0.0
N347 N 0.68086 0.13425 0.67126 0.0
H348 H 0.68316 0.66759 1.06117 0.0
H349 H 0.81491 0.68501 0.92349 0.0
H350 H 0.59162 0.75027 1.01887 0.0
H351 H 0.7849 0.83669 0.91549 0.0
H352 H 0.72934 0.63685 0.95864 0.0
H353 H 0.71509 0.653 1.01017 0.0
C354 C 0.66785 0.68065 1.04103 0.0
C355 C 0.6364 0.71212 1.04436 0.0
C356 C 0.7411 0.68025 0.94876 0.0
C357 C 0.67356 0.69632 0.98568 0.0
C358 C 0.78999 0.70789 0.92867 0.0
C359 C 0.80919 0.76652 0.91749 0.0
C360 C 0.71129 0.71152 0.95762 0.0
C361 C 0.77302 0.79217 0.92377 0.0
C362 C 0.68601 0.6721 1.01169 0.0
C363 C 0.61767 0.72775 1.01738 0.0
N364 N 0.72667 0.76508 0.94388 0.0
N365 N 0.63815 0.72147 0.98924 0.0
H366 H 0.90316 0.6367 0.35705 0.0
H367 H 0.16293 0.79921 0.23428 0.0
H368 H 0.0844 0.67436 0.36975 0.0
H369 H 0.00858 0.82164 0.24486 0.0
H370 H 0.11675 0.71415 0.26993 0.0
H371 H 0.92479 0.66216 0.30256 0.0
C372 C 0.94689 0.64812 0.34823 0.0
C373 C -0.00742 0.65502 0.36829 0.0
C374 C 0.09248 0.73679 0.26359 0.0
C375 C 0.01768 0.68519 0.30596 0.0
C376 C 0.11892 0.78573 0.24343 0.0
C377 C 0.09113 0.81999 0.23751 0.0
C378 C 0.03743 0.72132 0.27743 0.0
C379 C 0.0327 0.79792 0.24888 0.0
C380 C 0.95926 0.66304 0.31708 0.0
C381 C 0.0484 0.67029 0.35534 0.0
N382 N 0.00845 0.75088 0.26877 0.0
N383 N 0.05981 0.6861 0.3251 0.0
H384 H 0.47003 0.00955 0.69601 0.0
H385 H 0.545 0.29389 0.59516 0.0
H386 H 0.57425 0.19689 0.72781 0.0
H387 H 0.39489 0.11079 0.58266 0.0
H388 H 0.59002 0.25497 0.631 0.0
H389 H 0.48122 0.04406 0.64281 0.0
C390 C 0.49719 0.05788 0.69179 0.0
C391 C 0.5193 0.10056 0.71652 0.0
C392 C 0.54809 0.22329 0.61957 0.0
C393 C 0.53103 0.14018 0.65572 0.0
C394 C 0.52194 0.24543 0.5993 0.0
C395 C 0.4644 0.2062 0.58684 0.0
C396 C 0.5169 0.16142 0.62705 0.0
C397 C 0.43859 0.14343 0.59192 0.0
C398 C 0.50321 0.07755 0.66135 0.0
C399 C 0.55438 0.16256 0.70947 0.0
N400 N 0.46439 0.12328 0.61213 0.0
N401 N 0.55789 0.1807 0.67974 0.0
H402 H 0.55488 0.26086 0.22641 0.0
H403 H 0.59822 0.97054 0.21259 0.0
H404 H 0.40804 0.07688 0.21167 0.0
H405 H 0.74365 0.1569 0.22048 0.0
H406 H 0.52675 0.00677 0.21762 0.0
H407 H 0.62334 0.22162 0.22993 0.0
C408 C 0.53685 0.21214 0.22414 0.0
C409 C 0.47555 0.17224 0.21846 0.0
C410 C 0.57433 0.03962 0.21844 0.0
C411 C 0.55409 0.12689 0.2223 0.0
C412 C 0.61517 0.01895 0.21564 0.0
C413 C 0.67709 0.06072 0.21586 0.0
C414 C 0.5956 0.10246 0.22158 0.0
C415 C 0.69639 0.12296 0.21989 0.0
C416 C 0.57609 0.18973 0.2261 0.0
C417 C 0.45496 0.10947 0.21588 0.0
N418 N 0.65586 0.14185 0.22244 0.0
N419 N 0.4942 0.08878 0.21761 0.0
H420 H 0.43093 0.62035 0.54757 0.0
H421 H 0.75759 0.65791 0.55582 0.0
H422 H 0.46376 0.47153 0.55986 0.0
H423 H 0.72783 0.8088 0.5437 0.0
H424 H 0.64978 0.59049 0.56196 0.0
H425 H 0.53925 0.69178 0.55084 0.0
C426 C 0.46073 0.60272 0.55129 0.0
C427 C 0.43816 0.53977 0.5531 0.0
C428 C 0.66684 0.63844 0.55815 0.0
C429 C 0.56199 0.62107 0.5567 0.0
C430 C 0.72851 0.67701 0.55466 0.0
C431 C 0.75193 0.73909 0.54897 0.0
C432 C 0.62809 0.66193 0.55582 0.0
C433 C 0.71187 0.76119 0.54784 0.0
C434 C 0.52258 0.64349 0.55306 0.0
C435 C 0.47899 0.51957 0.55793 0.0
N436 N 0.65193 0.72259 0.551 0.0
N437 N 0.53876 0.55998 0.55935 0.0
H438 H 0.95179 0.46218 0.88723 0.0
H439 H 0.24244 0.79541 0.87727 0.0
H440 H 0.13293 0.49548 0.88256 0.0
H441 H 0.06057 0.76047 0.87839 0.0
H442 H 0.20384 0.68643 0.88373 0.0
H443 H -0.00845 0.57216 0.88884 0.0
C444 C -9e-05 0.49252 0.88684 0.0
C445 C 0.03899 0.46942 0.88452 0.0
C446 C 0.17245 0.70273 0.88271 0.0
C447 C 0.08486 0.59553 0.88614 0.0
C448 C 0.19448 0.76499 0.87904 0.0
C449 C 0.15475 0.7872 0.87702 0.0
C450 C 0.11025 0.6624 0.88439 0.0
C451 C 0.09299 0.74552 0.87955 0.0
C452 C 0.02262 0.55539 0.88767 0.0
C453 C 0.101 0.5111 0.88412 0.0
N454 N 0.07271 0.68523 0.88296 0.0
N455 N 0.12196 0.57206 0.88472 0.0
H456 H 0.45328 0.36762 0.29759 0.0
H457 H 0.24612 0.41027 0.41964 0.0
H458 H 0.26125 0.25577 0.28992 0.0
H459 H 0.38188 0.3756 0.45422 0.0
H460 H 0.26411 0.38408 0.36684 0.0
H461 H 0.44098 0.40062 0.35029 0.0
C462 C 0.40862 0.35049 0.30683 0.0
C463 C 0.35822 0.30867 0.2893 0.0
C464 C 0.29042 0.38299 0.38598 0.0
C465 C 0.34387 0.34758 0.3491 0.0
C466 C 0.28053 0.39835 0.41612 0.0
C467 C 0.31254 0.3953 0.4416 0.0
C468 C 0.3342 0.36648 0.38086 0.0
C469 C 0.35602 0.37855 0.43541 0.0
C470 C 0.40168 0.3691 0.33691 0.0
C471 C 0.30136 0.28778 0.30261 0.0
N472 N 0.36596 0.36536 0.40575 0.0
N473 N 0.2957 0.30793 0.3314 0.0
H474 H 0.11682 0.41911 0.61184 0.0
H475 H 0.13323 0.33619 0.78944 0.0
H476 H 0.24962 0.38087 0.64741 0.0
H477 H -0.01305 0.35419 0.75464 0.0
H478 H 0.17838 0.35846 0.73809 0.0
H479 H 0.07134 0.40169 0.66372 0.0
C480 C 0.13678 0.40746 0.63049 0.0
C481 C 0.18751 0.40164 0.6249 0.0
C482 C 0.13653 0.35786 0.74155 0.0
C483 C 0.13513 0.3814 0.6848 0.0
C484 C 0.11054 0.34527 0.77112 0.0
C485 C 0.05586 0.34339 0.77686 0.0
C486 C 0.10828 0.36909 0.71694 0.0
C487 C 0.02909 0.35524 0.75164 0.0
C488 C 0.11054 0.3973 0.66018 0.0
C489 C 0.21075 0.38603 0.65026 0.0
N490 N 0.05545 0.36754 0.72294 0.0
N491 N 0.18458 0.3766 0.67882 0.0
H492 H 0.81567 0.14279 0.94078 0.0
H493 H 0.90691 0.16781 1.12121 0.0
H494 H -0.01507 0.28006 0.97997 0.0
H495 H 0.74837 0.01134 1.08338 0.0
H496 H 0.93042 0.21229 1.07 0.0
H497 H 0.78504 0.09743 0.99247 0.0
C498 C 0.84624 0.16383 0.96018 0.0
C499 C 0.90317 0.21567 0.95568 0.0
C500 C 0.89028 0.16832 1.07274 0.0
C501 C 0.86817 0.16357 1.01523 0.0
C502 C 0.87651 0.1427 1.10224 0.0
C503 C 0.8252 0.08536 1.10711 0.0
C504 C 0.85264 0.13705 1.04729 0.0
C505 C 0.7883 0.05559 1.08105 0.0
C506 C 0.82876 0.13762 0.98972 0.0
C507 C 0.94072 0.24024 0.98193 0.0
N508 N 0.80267 0.08167 1.05241 0.0
N509 N 0.92263 0.21422 1.01025 0.0
H510 H 0.79102 0.85088 0.27149 0.0
H511 H 0.87002 0.95307 0.45135 0.0
H512 H 0.82134 0.02155 0.31107 0.0
H513 H 0.86121 0.78991 0.4138 0.0
H514 H 0.84492 0.97341 0.40046 0.0
H515 H 0.80902 0.82284 0.32301 0.0
C516 C 0.80085 0.88227 0.29094 0.0
C517 C 0.8045 0.93885 0.2866 0.0
C518 C 0.84816 0.93293 0.40319 0.0
C519 C 0.82547 0.90687 0.34597 0.0
C520 C 0.86245 0.92101 0.43251 0.0
C521 C 0.86788 0.8694 0.43735 0.0
C522 C 0.83883 0.89316 0.37788 0.0
C523 C 0.85749 0.83018 0.41149 0.0
C524 C 0.81143 0.86627 0.3204 0.0
C525 C 0.81797 0.97754 0.31292 0.0
N526 N 0.84361 0.84286 0.383 0.0
N527 N 0.82785 0.96091 0.34114 0.0
H528 H 0.07325 0.83634 0.60065 0.0
H529 H 0.05807 0.91671 0.78121 0.0
H530 H 0.94426 0.87878 0.63993 0.0
H531 H 0.20894 0.90759 0.744 0.0
H532 H 0.01315 0.89417 0.72981 0.0
H533 H 0.12017 0.8534 0.65237 0.0
C534 C 0.05437 0.84868 0.62006 0.0
C535 C 0.00435 0.85595 0.61559 0.0
C536 C 0.056 0.89683 0.73269 0.0
C537 C 0.05822 0.8757 0.67515 0.0
C538 C 0.08192 0.90961 0.76232 0.0
C539 C 0.13784 0.91415 0.76746 0.0
C540 C 0.08543 0.88792 0.70731 0.0
C541 C 0.16588 0.90458 0.74146 0.0
C542 C 0.08147 0.85874 0.64962 0.0
C543 C -0.01744 0.87255 0.64185 0.0
N544 N 0.13947 0.89192 0.71264 0.0
N545 N 0.00935 0.88164 0.67017 0.0
H546 H 0.19101 0.96562 0.97216 0.0
H547 H 0.42699 0.23416 1.08654 0.0
H548 H 0.3631 0.10762 0.94039 0.0
H549 H 0.25738 0.08337 1.11535 0.0
H550 H 0.40697 0.18996 1.03351 0.0
H551 H 0.21694 0.00877 1.02463 0.0
C552 C 0.23456 0.00579 0.97613 0.0
C553 C 0.27479 0.03267 0.95139 0.0
C554 C 0.37431 0.16647 1.0515 0.0
C555 C 0.30502 0.08342 1.01244 0.0
C556 C 0.38575 0.1917 1.08191 0.0
C557 C 0.34403 0.1627 1.10589 0.0
C558 C 0.32058 0.11173 1.04471 0.0
C559 C 0.29126 0.10775 1.09802 0.0
C560 C 0.24938 0.03061 1.00633 0.0
C561 C 0.33055 0.08492 0.95852 0.0
N562 N 0.28119 0.08449 1.06841 0.0
N563 N 0.34384 0.10863 0.98822 0.0
loop_
_geom_bond_atom_site_label_1
_geom_bond_atom_site_label_2
_geom_bond_distance
_geom_bond_site_symmetry_2
_ccdc_geom_bond_type
Tb0 C10 2.825 . S
Tb0 O11 2.347 . S
Tb0 O14 2.366 . S
Tb0 O19 2.418 . S
Tb0 O20 2.384 1_554 S
Tb0 O23 2.479 . S
Tb0 O24 2.471 . S
Eu1 O12 2.418 . S
Eu1 O13 2.384 1_556 S
Eu1 O16 2.479 . S
Eu1 O17 2.471 . S
Eu1 O18 2.344 1_556 S
Eu1 O21 2.366 . S
Eu1 C31 2.825 . S
C2 O18 1.262 . S
C2 O19 1.265 . S
C3 O20 1.255 . S
C3 O21 1.265 . S
C4 C6 1.380 . S
C4 C7 1.374 . S
C4 C10 1.507 . S
C5 C6 1.384 . S
C5 C9 1.387 . S
C5 H32 0.930 . S
C6 C4 1.380 . S
C6 C5 1.384 . S
C6 H33 0.931 . S
C7 C4 1.374 . S
C7 C8 1.390 . S
C7 H34 0.930 . S
C8 C7 1.390 . S
C8 C9 1.391 . S
C8 H35 0.930 . S
C9 C5 1.387 . S
C9 C8 1.391 . S
C10 Tb0 2.825 . S
C10 C4 1.507 . S
C10 O23 1.238 . S
C10 O24 1.247 . S
O11 Tb0 2.347 . S
O11 C15 1.259 . S
O12 Eu1 2.418 . S
O12 C15 1.265 1_556 S
O13 Eu1 2.384 1_554 S
O13 C22 1.255 . S
O14 Tb0 2.366 . S
O14 C22 1.265 . S
C15 O11 1.259 . S
C15 O12 1.265 1_554 S
O16 Eu1 2.479 . S
O16 C31 1.238 . S
O17 Eu1 2.471 . S
O17 C31 1.247 . S
O18 Eu1 2.344 1_554 S
O18 C2 1.262 . S
O19 Tb0 2.418 . S
O19 C2 1.265 . S
O20 Tb0 2.384 1_556 S
O20 C3 1.255 . S
O21 Eu1 2.366 . S
O21 C3 1.265 . S
C22 O13 1.255 . S
C22 O14 1.265 . S
O23 Tb0 2.479 . S
O23 C10 1.238 . S
O24 Tb0 2.471 . S
O24 C10 1.247 . S
C25 C28 1.380 . S
C25 C29 1.374 . S
C25 C31 1.507 . S
C26 C27 1.387 . S
C26 C30 1.391 . S
C27 C26 1.387 . S
C27 C28 1.384 . S
C27 H36 0.930 . S
C28 C25 1.380 . S
C28 C27 1.384 . S
C28 H37 0.931 . S
C29 C25 1.374 . S
C29 C30 1.390 . S
C29 H38 0.930 . S
C30 C26 1.391 . S
C30 C29 1.390 . S
C30 H39 0.930 . S
C31 Eu1 2.825 . S
C31 O16 1.238 . S
C31 O17 1.247 . S
C31 C25 1.507 . S
H32 C5 0.930 . S
H33 C6 0.931 . S
H34 C7 0.930 . S
H35 C8 0.930 . S
H36 C27 0.930 . S
H37 C28 0.931 . S
H38 C29 0.930 . S
H39 C30 0.930 . S
Tb40 C50 2.825 . S
Tb40 O51 2.347 . S
Tb40 O54 2.366 . S
Tb40 O59 2.418 . S
Tb40 O60 2.384 . S
Tb40 O63 2.479 . S
Tb40 O64 2.471 . S
Eu41 O52 2.418 . S
Eu41 O53 2.384 . S
Eu41 O56 2.479 . S
Eu41 O57 2.471 . S
Eu41 O58 2.347 . S
Eu41 O61 2.366 . S
Eu41 C71 2.825 . S
C42 O58 1.259 . S
C42 O59 1.265 . S
C43 O60 1.255 . S
C43 O61 1.265 . S
C44 C46 1.380 . S
C44 C47 1.374 . S
C44 C50 1.507 . S
C45 C46 1.384 . S
C45 C49 1.387 . S
C45 H72 0.930 . S
C46 C44 1.380 . S
C46 C45 1.384 . S
C46 H73 0.931 . S
C47 C44 1.374 . S
C47 C48 1.390 . S
C47 H74 0.930 . S
C48 C47 1.390 . S
C48 C49 1.391 . S
C48 H75 0.930 . S
C49 C45 1.387 . S
C49 C48 1.391 . S
C50 Tb40 2.825 . S
C50 C44 1.507 . S
C50 O63 1.238 . S
C50 O64 1.247 . S
O51 Tb40 2.347 . S
O51 C55 1.259 . S
O52 Eu41 2.418 . S
O52 C55 1.265 . S
O53 Eu41 2.384 . S
O53 C62 1.255 . S
O54 Tb40 2.366 . S
O54 C62 1.265 . S
C55 O51 1.259 . S
C55 O52 1.265 . S
O56 Eu41 2.479 . S
O56 C71 1.238 . S
O57 Eu41 2.471 . S
O57 C71 1.247 . S
O58 Eu41 2.347 . S
O58 C42 1.259 . S
O59 Tb40 2.418 . S
O59 C42 1.265 . S
O60 Tb40 2.384 . S
O60 C43 1.255 . S
O61 Eu41 2.366 . S
O61 C43 1.265 . S
C62 O53 1.255 . S
C62 O54 1.265 . S
O63 Tb40 2.479 . S
O63 C50 1.238 . S
O64 Tb40 2.471 . S
O64 C50 1.247 . S
C65 C68 1.380 . S
C65 C69 1.374 . S
C65 C71 1.507 . S
C66 C67 1.387 . S
C66 C70 1.391 . S
C67 C66 1.387 . S
C67 C68 1.384 . S
C67 H76 0.930 . S
C68 C65 1.380 . S
C68 C67 1.384 . S
C68 H77 0.931 . S
C69 C65 1.374 . S
C69 C70 1.390 . S
C69 H78 0.930 . S
C70 C66 1.391 . S
C70 C69 1.390 . S
C70 H79 0.930 . S
C71 Eu41 2.825 . S
C71 O56 1.238 . S
C71 O57 1.247 . S
C71 C65 1.507 . S
H72 C45 0.930 . S
H73 C46 0.931 . S
H74 C47 0.930 . S
H75 C48 0.930 . S
H76 C67 0.930 . S
H77 C68 0.931 . S
H78 C69 0.930 . S
H79 C70 0.930 . S
Tb80 C90 2.825 . S
Tb80 O91 2.347 . S
Tb80 O94 2.366 . S
Tb80 O99 2.418 . S
Tb80 O100 2.384 . S
Tb80 O103 2.479 . S
Tb80 O104 2.471 . S
Eu81 O92 2.418 . S
Eu81 O93 2.384 . S
Eu81 O96 2.479 . S
Eu81 O97 2.471 . S
Eu81 O98 2.347 . S
Eu81 O101 2.361 1_655 S
Eu81 C111 2.825 . S
C82 O98 1.259 1_455 S
C82 O99 1.265 . S
C83 O100 1.255 . S
C83 O101 1.273 . S
C84 C86 1.380 . S
C84 C87 1.374 . S
C84 C90 1.507 . S
C85 C86 1.384 . S
C85 C89 1.387 . S
C85 H112 0.930 . S
C86 C84 1.380 . S
C86 C85 1.384 . S
C86 H113 0.931 . S
C87 C84 1.374 . S
C87 C88 1.390 . S
C87 H114 0.930 . S
C88 C87 1.390 . S
C88 C89 1.391 . S
C88 H115 0.930 . S
C89 C85 1.387 . S
C89 C88 1.391 . S
C90 Tb80 2.825 . S
C90 C84 1.507 . S
C90 O103 1.238 . S
C90 O104 1.247 . S
O91 Tb80 2.347 . S
O91 C95 1.259 1_455 S
O92 Eu81 2.418 . S
O92 C95 1.265 . S
O93 Eu81 2.384 . S
O93 C102 1.255 . S
O94 Tb80 2.366 . S
O94 C102 1.265 1_455 S
C95 O91 1.259 1_655 S
C95 O92 1.265 . S
O96 Eu81 2.479 . S
O96 C111 1.238 . S
O97 Eu81 2.471 . S
O97 C111 1.247 . S
O98 Eu81 2.347 . S
O98 C82 1.259 1_655 S
O99 Tb80 2.418 . S
O99 C82 1.265 . S
O100 Tb80 2.384 . S
O100 C83 1.255 . S
O101 Eu81 2.361 1_455 S
O101 C83 1.273 . S
C102 O93 1.255 . S
C102 O94 1.265 1_655 S
O103 Tb80 2.479 . S
O103 C90 1.238 . S
O104 Tb80 2.471 . S
O104 C90 1.247 . S
C105 C108 1.380 . S
C105 C109 1.374 . S
C105 C111 1.507 . S
C106 C107 1.387 . S
C106 C110 1.391 . S
C107 C106 1.387 . S
C107 C108 1.384 . S
C107 H116 0.930 . S
C108 C105 1.380 . S
C108 C107 1.384 . S
C108 H117 0.931 . S
C109 C105 1.374 . S
C109 C110 1.390 . S
C109 H118 0.930 . S
C110 C106 1.391 . S
C110 C109 1.390 . S
C110 H119 0.930 . S
C111 Eu81 2.825 . S
C111 O96 1.238 . S
C111 O97 1.247 . S
C111 C105 1.507 . S
H112 C85 0.930 . S
H113 C86 0.931 . S
H114 C87 0.930 . S
H115 C88 0.930 . S
H116 C107 0.930 . S
H117 C108 0.931 . S
H118 C109 0.930 . S
H119 C110 0.930 . S
Tb120 C130 2.825 . S
Tb120 O131 2.347 . S
Tb120 O134 2.366 . S
Tb120 O139 2.418 . S
Tb120 O140 2.384 1_554 S
Tb120 O143 2.479 . S
Tb120 O144 2.471 . S
Eu121 O132 2.418 . S
Eu121 O133 2.384 1_556 S
Eu121 O136 2.479 . S
Eu121 O137 2.471 . S
Eu121 O138 2.344 1_566 S
Eu121 O141 2.366 1_565 S
Eu121 C151 2.825 . S
C122 O138 1.263 . S
C122 O139 1.265 . S
C123 O140 1.255 . S
C123 O141 1.265 . S
C124 C126 1.380 . S
C124 C127 1.374 . S
C124 C130 1.507 . S
C125 C126 1.384 . S
C125 C129 1.387 . S
C125 H152 0.930 . S
C126 C124 1.380 . S
C126 C125 1.384 . S
C126 H153 0.931 . S
C127 C124 1.374 . S
C127 C128 1.390 . S
C127 H154 0.930 . S
C128 C127 1.390 . S
C128 C129 1.391 . S
C128 H155 0.930 . S
C129 C125 1.387 . S
C129 C128 1.391 . S
C130 Tb120 2.825 . S
C130 C124 1.507 . S
C130 O143 1.238 . S
C130 O144 1.247 . S
O131 Tb120 2.347 . S
O131 C135 1.259 1_545 S
O132 Eu121 2.418 . S
O132 C135 1.265 1_556 S
O133 Eu121 2.384 1_554 S
O133 C142 1.255 . S
O134 Tb120 2.366 . S
O134 C142 1.265 1_545 S
C135 O131 1.259 1_565 S
C135 O132 1.265 1_554 S
O136 Eu121 2.479 . S
O136 C151 1.238 . S
O137 Eu121 2.471 . S
O137 C151 1.247 . S
O138 Eu121 2.344 1_544 S
O138 C122 1.263 . S
O139 Tb120 2.418 . S
O139 C122 1.265 . S
O140 Tb120 2.384 1_556 S
O140 C123 1.255 . S
O141 Eu121 2.366 1_545 S
O141 C123 1.265 . S
C142 O133 1.255 . S
C142 O134 1.265 1_565 S
O143 Tb120 2.479 . S
O143 C130 1.238 . S
O144 Tb120 2.471 . S
O144 C130 1.247 . S
C145 C148 1.380 . S
C145 C149 1.374 . S
C145 C151 1.507 . S
C146 C147 1.387 . S
C146 C150 1.391 . S
C147 C146 1.387 . S
C147 C148 1.384 . S
C147 H156 0.930 . S
C148 C145 1.380 . S
C148 C147 1.384 . S
C148 H157 0.931 . S
C149 C145 1.374 . S
C149 C150 1.390 . S
C149 H158 0.930 . S
C150 C146 1.391 . S
C150 C149 1.390 . S
C150 H159 0.930 . S
C151 Eu121 2.825 . S
C151 O136 1.238 . S
C151 O137 1.247 . S
C151 C145 1.507 . S
H152 C125 0.930 . S
H153 C126 0.931 . S
H154 C127 0.930 . S
H155 C128 0.930 . S
H156 C147 0.930 . S
H157 C148 0.931 . S
H158 C149 0.930 . S
H159 C150 0.930 . S
Tb160 C170 2.825 . S
Tb160 O171 2.347 . S
Tb160 O174 2.366 . S
Tb160 O179 2.418 1_655 S
Tb160 O180 2.384 . S
Tb160 O183 2.479 . S
Tb160 O184 2.471 . S
Eu161 O172 2.418 1_455 S
Eu161 O173 2.384 . S
Eu161 O176 2.479 . S
Eu161 O177 2.471 . S
Eu161 O178 2.347 . S
Eu161 O181 2.366 1_455 S
Eu161 C191 2.825 . S
C162 O178 1.259 . S
C162 O179 1.265 . S
C163 O180 1.255 . S
C163 O181 1.265 . S
C164 C166 1.380 . S
C164 C167 1.374 . S
C164 C170 1.507 . S
C165 C166 1.384 . S
C165 C169 1.387 . S
C165 H192 0.930 . S
C166 C164 1.380 . S
C166 C165 1.384 . S
C166 H193 0.931 . S
C167 C164 1.374 . S
C167 C168 1.390 . S
C167 H194 0.930 . S
C168 C167 1.390 . S
C168 C169 1.391 . S
C168 H195 0.930 . S
C169 C165 1.387 . S
C169 C168 1.391 . S
C170 Tb160 2.825 . S
C170 C164 1.507 . S
C170 O183 1.238 . S
C170 O184 1.247 . S
O171 Tb160 2.347 . S
O171 C175 1.259 . S
O172 Eu161 2.418 1_655 S
O172 C175 1.265 . S
O173 Eu161 2.384 . S
O173 C182 1.255 . S
O174 Tb160 2.366 . S
O174 C182 1.265 1_655 S
C175 O171 1.259 . S
C175 O172 1.265 . S
O176 Eu161 2.479 . S
O176 C191 1.238 . S
O177 Eu161 2.471 . S
O177 C191 1.247 . S
O178 Eu161 2.347 . S
O178 C162 1.259 . S
O179 Tb160 2.418 1_455 S
O179 C162 1.265 . S
O180 Tb160 2.384 . S
O180 C163 1.255 . S
O181 Eu161 2.366 1_655 S
O181 C163 1.265 . S
C182 O173 1.255 . S
C182 O174 1.265 1_455 S
O183 Tb160 2.479 . S
O183 C170 1.238 . S
O184 Tb160 2.471 . S
O184 C170 1.247 . S
C185 C188 1.380 . S
C185 C189 1.374 . S
C185 C191 1.507 . S
C186 C187 1.387 . S
C186 C190 1.391 . S
C187 C186 1.387 . S
C187 C188 1.384 . S
C187 H196 0.930 . S
C188 C185 1.380 . S
C188 C187 1.384 . S
C188 H197 0.931 . S
C189 C185 1.374 . S
C189 C190 1.390 . S
C189 H198 0.930 . S
C190 C186 1.391 . S
C190 C189 1.390 . S
C190 H199 0.930 . S
C191 Eu161 2.825 . S
C191 O176 1.238 . S
C191 O177 1.247 . S
C191 C185 1.507 . S
H192 C165 0.930 . S
H193 C166 0.931 . S
H194 C167 0.930 . S
H195 C168 0.930 . S
H196 C187 0.930 . S
H197 C188 0.931 . S
H198 C189 0.930 . S
H199 C190 0.930 . S
Tb200 C210 2.825 . S
Tb200 O211 2.347 . S
Tb200 O214 2.366 . S
Tb200 O219 2.418 1_565 S
Tb200 O220 2.384 . S
Tb200 O223 2.479 . S
Tb200 O224 2.471 . S
Eu201 O212 2.418 1_545 S
Eu201 O213 2.384 . S
Eu201 O216 2.479 . S
Eu201 O217 2.471 . S
Eu201 O218 2.347 . S
Eu201 O221 2.366 1_545 S
Eu201 C231 2.825 . S
C202 O218 1.259 . S
C202 O219 1.265 . S
C203 O220 1.255 . S
C203 O221 1.265 . S
C204 C206 1.380 . S
C204 C207 1.374 . S
C204 C210 1.507 . S
C205 C206 1.384 . S
C205 C209 1.387 . S
C205 H232 0.930 . S
C206 C204 1.380 . S
C206 C205 1.384 . S
C206 H233 0.931 . S
C207 C204 1.374 . S
C207 C208 1.390 . S
C207 H234 0.930 . S
C208 C207 1.390 . S
C208 C209 1.391 . S
C208 H235 0.930 . S
C209 C205 1.387 . S
C209 C208 1.391 . S
C210 Tb200 2.825 . S
C210 C204 1.507 . S
C210 O223 1.238 . S
C210 O224 1.247 . S
O211 Tb200 2.347 . S
O211 C215 1.259 . S
O212 Eu201 2.418 1_565 S
O212 C215 1.265 . S
O213 Eu201 2.384 . S
O213 C222 1.255 . S
O214 Tb200 2.366 . S
O214 C222 1.265 1_565 S
C215 O211 1.259 . S
C215 O212 1.265 . S
O216 Eu201 2.479 . S
O216 C231 1.238 . S
O217 Eu201 2.471 . S
O217 C231 1.247 . S
O218 Eu201 2.347 . S
O218 C202 1.259 . S
O219 Tb200 2.418 1_545 S
O219 C202 1.265 . S
O220 Tb200 2.384 . S
O220 C203 1.255 . S
O221 Eu201 2.366 1_565 S
O221 C203 1.265 . S
C222 O213 1.255 . S
C222 O214 1.265 1_545 S
O223 Tb200 2.479 . S
O223 C210 1.238 . S
O224 Tb200 2.471 . S
O224 C210 1.247 . S
C225 C228 1.380 . S
C225 C229 1.374 . S
C225 C231 1.507 . S
C226 C227 1.387 . S
C226 C230 1.391 . S
C227 C226 1.387 . S
C227 C228 1.384 . S
C227 H236 0.930 . S
C228 C225 1.380 . S
C228 C227 1.384 . S
C228 H237 0.931 . S
C229 C225 1.374 . S
C229 C230 1.390 . S
C229 H238 0.930 . S
C230 C226 1.391 . S
C230 C229 1.390 . S
C230 H239 0.930 . S
C231 Eu201 2.825 . S
C231 O216 1.238 . S
C231 O217 1.247 . S
C231 C225 1.507 . S
H232 C205 0.930 . S
H233 C206 0.931 . S
H234 C207 0.930 . S
H235 C208 0.930 . S
H236 C227 0.930 . S
H237 C228 0.931 . S
H238 C229 0.930 . S
H239 C230 0.930 . S
H240 C246 0.930 1_565 S
H241 C250 0.930 . S
H242 C255 0.929 . S
H243 C253 0.929 . S
H244 C248 0.929 . S
H245 C254 0.929 . S
C246 H240 0.930 1_545 S
C246 C247 1.367 1_456 S
C246 C254 1.378 . S
C247 C246 1.367 1_654 S
C247 C255 1.433 . S
C248 H244 0.929 . S
C248 C250 1.378 . S
C248 C252 1.350 . S
C249 C252 1.463 . S
C249 C254 1.350 1_554 S
C249 N257 1.427 . S
C250 H241 0.930 . S
C250 C248 1.378 . S
C250 C251 1.367 . S
C251 C250 1.367 . S
C251 C253 1.433 1_554 S
C252 C248 1.350 . S
C252 C249 1.463 . S
C252 N256 1.427 1_554 S
C253 H243 0.929 . S
C253 C251 1.433 1_556 S
C253 N256 1.384 . S
C254 H245 0.929 . S
C254 C246 1.378 . S
C254 C249 1.350 1_556 S
C255 H242 0.929 . S
C255 C247 1.433 . S
C255 N257 1.384 1_655 S
N256 C252 1.427 1_556 S
N256 C253 1.384 . S
N257 C249 1.427 . S
N257 C255 1.384 1_455 S
H258 C264 0.930 . S
H259 C268 0.930 . S
H260 C273 0.932 1_655 S
H261 C271 0.929 . S
H262 C266 0.929 . S
H263 C272 0.929 . S
C264 H258 0.930 . S
C264 C265 1.367 1_545 S
C264 C272 1.378 . S
C265 C264 1.367 1_565 S
C265 C273 1.442 . S
C266 H262 0.929 . S
C266 C268 1.378 . S
C266 C270 1.350 . S
C267 C270 1.463 . S
C267 C272 1.350 . S
C267 N275 1.427 . S
C268 H259 0.930 . S
C268 C266 1.378 . S
C268 C269 1.367 . S
C269 C268 1.367 . S
C269 C271 1.433 . S
C270 C266 1.350 . S
C270 C267 1.463 . S
C270 N274 1.427 . S
C271 H261 0.929 . S
C271 C269 1.433 . S
C271 N274 1.384 . S
C272 H263 0.929 . S
C272 C264 1.378 . S
C272 C267 1.350 . S
C273 H260 0.932 1_455 S
C273 C265 1.442 . S
C273 N275 1.372 1_565 S
N274 C270 1.427 . S
N274 C271 1.384 . S
N275 C267 1.427 . S
N275 C273 1.372 1_545 S
H276 C282 0.930 . S
H277 C286 0.930 1_655 S
H278 C291 0.929 . S
H279 C289 0.929 . S
H280 C284 0.929 . S
H281 C290 0.929 . S
C282 H276 0.930 . S
C282 C283 1.367 . S
C282 C290 1.378 . S
C283 C282 1.367 . S
C283 C291 1.433 . S
C284 H280 0.929 . S
C284 C286 1.378 . S
C284 C288 1.350 . S
C285 C288 1.463 . S
C285 C290 1.350 . S
C285 N293 1.427 . S
C286 H277 0.930 1_455 S
C286 C284 1.378 . S
C286 C287 1.367 . S
C287 C286 1.367 . S
C287 C289 1.433 . S
C288 C284 1.350 . S
C288 C285 1.463 . S
C288 N292 1.427 . S
C289 H279 0.929 . S
C289 C287 1.433 . S
C289 N292 1.384 . S
C290 H281 0.929 . S
C290 C282 1.378 . S
C290 C285 1.350 . S
C291 H278 0.929 . S
C291 C283 1.433 . S
C291 N293 1.384 . S
N292 C288 1.427 . S
N292 C289 1.384 . S
N293 C285 1.427 . S
N293 C291 1.384 . S
H294 C300 0.930 . S
H295 C304 0.930 . S
H296 C309 0.929 . S
H297 C307 0.929 . S
H298 C302 0.929 . S
H299 C308 0.929 . S
C300 H294 0.930 . S
C300 C301 1.367 . S
C300 C308 1.378 . S
C301 C300 1.367 . S
C301 C309 1.433 . S
C302 H298 0.929 . S
C302 C304 1.378 . S
C302 C306 1.350 . S
C303 C306 1.463 . S
C303 C308 1.350 . S
C303 N311 1.427 . S
C304 H295 0.930 . S
C304 C302 1.378 . S
C304 C305 1.367 . S
C305 C304 1.367 . S
C305 C307 1.433 . S
C306 C302 1.350 . S
C306 C303 1.463 . S
C306 N310 1.427 . S
C307 H297 0.929 . S
C307 C305 1.433 . S
C307 N310 1.384 . S
C308 H299 0.929 . S
C308 C300 1.378 . S
C308 C303 1.350 . S
C309 H296 0.929 . S
C309 C301 1.433 . S
C309 N311 1.384 . S
N310 C306 1.427 . S
N310 C307 1.384 . S
N311 C303 1.427 . S
N311 C309 1.384 . S
H312 C318 0.930 . S
H313 C322 0.930 . S
H314 C327 0.929 . S
H315 C325 0.929 . S
H316 C320 0.929 1_455 S
H317 C326 0.929 1_655 S
C318 H312 0.930 . S
C318 C319 1.367 . S
C318 C326 1.378 . S
C319 C318 1.367 . S
C319 C327 1.433 . S
C320 H316 0.929 1_655 S
C320 C322 1.378 . S
C320 C324 1.350 . S
C321 C324 1.463 1_455 S
C321 C326 1.350 . S
C321 N329 1.427 . S
C322 H313 0.930 . S
C322 C320 1.378 . S
C322 C323 1.367 . S
C323 C322 1.367 . S
C323 C325 1.433 . S
C324 C320 1.350 . S
C324 C321 1.463 1_655 S
C324 N328 1.427 . S
C325 H315 0.929 . S
C325 C323 1.433 . S
C325 N328 1.384 . S
C326 H317 0.929 1_455 S
C326 C318 1.378 . S
C326 C321 1.350 . S
C327 H314 0.929 . S
C327 C319 1.433 . S
C327 N329 1.384 . S
N328 C324 1.427 . S
N328 C325 1.384 . S
N329 C321 1.427 . S
N329 C327 1.384 . S
H330 C336 0.930 . S
H331 C340 0.930 . S
H332 C345 0.929 . S
H333 C343 0.929 . S
H334 C338 0.929 . S
H335 C344 0.928 1_565 S
C336 H330 0.930 . S
C336 C337 1.367 . S
C336 C344 1.378 . S
C337 C336 1.367 . S
C337 C345 1.433 . S
C338 H334 0.929 . S
C338 C340 1.378 1_545 S
C338 C342 1.350 1_545 S
C339 C342 1.463 1_545 S
C339 C344 1.350 . S
C339 N347 1.427 . S
C340 H331 0.930 . S
C340 C338 1.378 1_565 S
C340 C341 1.367 . S
C341 C340 1.367 . S
C341 C343 1.433 . S
C342 C338 1.350 1_565 S
C342 C339 1.463 1_565 S
C342 N346 1.427 . S
C343 H333 0.929 . S
C343 C341 1.433 . S
C343 N346 1.384 . S
C344 H335 0.928 1_545 S
C344 C336 1.378 . S
C344 C339 1.350 . S
C345 H332 0.929 . S
C345 C337 1.433 . S
C345 N347 1.384 . S
N346 C342 1.427 . S
N346 C343 1.384 . S
N347 C339 1.427 . S
N347 C345 1.384 . S
H348 C354 0.930 . S
H349 C358 0.930 . S
H350 C363 0.929 . S
H351 C361 0.929 . S
H352 C356 0.929 . S
H353 C362 0.929 . S
C354 H348 0.930 . S
C354 C355 1.367 . S
C354 C362 1.378 . S
C355 C354 1.367 . S
C355 C363 1.433 . S
C356 H352 0.929 . S
C356 C358 1.378 . S
C356 C360 1.350 . S
C357 C360 1.463 . S
C357 C362 1.350 . S
C357 N365 1.427 . S
C358 H349 0.930 . S
C358 C356 1.378 . S
C358 C359 1.367 1_655 S
C359 C358 1.367 1_455 S
C359 C361 1.433 . S
C360 C356 1.350 . S
C360 C357 1.463 . S
C360 N364 1.427 1_655 S
C361 H351 0.929 . S
C361 C359 1.433 . S
C361 N364 1.384 . S
C362 H353 0.929 . S
C362 C354 1.378 . S
C362 C357 1.350 . S
C363 H350 0.929 . S
C363 C355 1.433 . S
C363 N365 1.384 . S
N364 C360 1.427 1_455 S
N364 C361 1.384 . S
N365 C357 1.427 . S
N365 C363 1.384 . S
H366 C372 0.930 . S
H367 C376 0.930 . S
H368 C381 0.929 . S
H369 C379 0.929 . S
H370 C374 0.929 1_565 S
H371 C380 0.929 . S
C372 H366 0.930 . S
C372 C373 1.367 . S
C372 C380 1.378 . S
C373 C372 1.367 . S
C373 C381 1.433 . S
C374 H370 0.929 1_545 S
C374 C376 1.378 . S
C374 C378 1.350 1_545 S
C375 C378 1.463 . S
C375 C380 1.350 . S
C375 N383 1.427 . S
C376 H367 0.930 . S
C376 C374 1.378 . S
C376 C377 1.367 . S
C377 C376 1.367 . S
C377 C379 1.433 . S
C378 C374 1.350 1_565 S
C378 C375 1.463 . S
C378 N382 1.427 . S
C379 H369 0.929 . S
C379 C377 1.433 . S
C379 N382 1.384 1_545 S
C380 H371 0.929 . S
C380 C372 1.378 . S
C380 C375 1.350 . S
C381 H368 0.929 . S
C381 C373 1.433 . S
C381 N383 1.384 . S
N382 C378 1.427 . S
N382 C379 1.384 1_565 S
N383 C375 1.427 . S
N383 C381 1.384 . S
H384 C390 0.930 . S
H385 C394 0.930 . S
H386 C399 0.929 . S
H387 C397 0.929 . S
H388 C392 0.929 . S
H389 C398 0.929 . S
C390 H384 0.930 . S
C390 C391 1.367 . S
C390 C398 1.378 . S
C391 C390 1.367 . S
C391 C399 1.433 . S
C392 H388 0.929 . S
C392 C394 1.378 . S
C392 C396 1.350 . S
C393 C396 1.463 . S
C393 C398 1.350 . S
C393 N401 1.427 . S
C394 H385 0.930 . S
C394 C392 1.378 . S
C394 C395 1.367 . S
C395 C394 1.367 . S
C395 C397 1.433 . S
C396 C392 1.350 . S
C396 C393 1.463 . S
C396 N400 1.427 . S
C397 H387 0.929 . S
C397 C395 1.433 . S
C397 N400 1.384 . S
C398 H389 0.929 . S
C398 C390 1.378 . S
C398 C393 1.350 . S
C399 H386 0.929 . S
C399 C391 1.433 . S
C399 N401 1.384 . S
N400 C396 1.427 . S
N400 C397 1.384 . S
N401 C393 1.427 . S
N401 C399 1.384 . S
H402 C408 0.930 . S
H403 C412 0.928 1_566 S
H404 C417 0.930 1_556 S
H405 C415 0.929 . S
H406 C410 0.926 1_556 S
H407 C416 0.929 . S
C408 H402 0.930 . S
C408 C409 1.367 . S
C408 C416 1.378 . S
C409 C408 1.367 . S
C409 C417 1.432 . S
C410 H406 0.926 1_554 S
C410 C412 1.378 . S
C410 C414 1.352 . S
C411 C414 1.463 . S
C411 C416 1.350 . S
C411 N419 1.429 . S
C412 H403 0.928 1_544 S
C412 C410 1.378 . S
C412 C413 1.369 . S
C413 C412 1.369 . S
C413 C415 1.433 . S
C414 C410 1.352 . S
C414 C411 1.463 . S
C414 N418 1.427 . S
C415 H405 0.929 . S
C415 C413 1.433 . S
C415 N418 1.384 . S
C416 H407 0.929 . S
C416 C408 1.378 . S
C416 C411 1.350 . S
C417 H404 0.930 1_554 S
C417 C409 1.432 . S
C417 N419 1.384 . S
N418 C414 1.427 . S
N418 C415 1.384 . S
N419 C411 1.429 . S
N419 C417 1.384 . S
H420 C426 0.930 . S
H421 C430 0.930 . S
H422 C435 0.929 . S
H423 C433 0.929 . S
H424 C428 0.929 . S
H425 C434 0.929 . S
C426 H420 0.930 . S
C426 C427 1.367 . S
C426 C434 1.378 . S
C427 C426 1.367 . S
C427 C435 1.433 . S
C428 H424 0.929 . S
C428 C430 1.378 . S
C428 C432 1.350 . S
C429 C432 1.463 . S
C429 C434 1.350 . S
C429 N437 1.427 . S
C430 H421 0.930 . S
C430 C428 1.378 . S
C430 C431 1.367 . S
C431 C430 1.367 . S
C431 C433 1.433 . S
C432 C428 1.350 . S
C432 C429 1.463 . S
C432 N436 1.427 . S
C433 H423 0.929 . S
C433 C431 1.433 . S
C433 N436 1.384 . S
C434 H425 0.929 . S
C434 C426 1.378 . S
C434 C429 1.350 . S
C435 H422 0.929 . S
C435 C427 1.433 . S
C435 N437 1.384 . S
N436 C432 1.427 . S
N436 C433 1.384 . S
N437 C429 1.427 . S
N437 C435 1.384 . S
H438 C444 0.930 . S
H439 C448 0.930 . S
H440 C453 0.929 1_655 S
H441 C451 0.929 . S
H442 C446 0.929 . S
H443 C452 0.929 . S
C444 H438 0.930 . S
C444 C445 1.367 . S
C444 C452 1.378 . S
C445 C444 1.367 . S
C445 C453 1.433 . S
C446 H442 0.929 . S
C446 C448 1.378 . S
C446 C450 1.350 . S
C447 C450 1.463 . S
C447 C452 1.350 . S
C447 N455 1.427 . S
C448 H439 0.930 . S
C448 C446 1.378 . S
C448 C449 1.367 . S
C449 C448 1.367 . S
C449 C451 1.433 . S
C450 C446 1.350 . S
C450 C447 1.463 . S
C450 N454 1.427 . S
C451 H441 0.929 . S
C451 C449 1.433 . S
C451 N454 1.384 . S
C452 H443 0.929 . S
C452 C444 1.378 . S
C452 C447 1.350 . S
C453 H440 0.929 1_455 S
C453 C445 1.433 . S
C453 N455 1.384 . S
N454 C450 1.427 . S
N454 C451 1.384 . S
N455 C447 1.427 . S
N455 C453 1.384 . S
H456 C462 0.930 . S
H457 C466 0.930 . S
H458 C471 0.929 . S
H459 C469 0.929 . S
H460 C464 0.929 . S
H461 C470 0.929 . S
C462 H456 0.930 . S
C462 C463 1.367 . S
C462 C470 1.378 . S
C463 C462 1.367 . S
C463 C471 1.433 . S
C464 H460 0.929 . S
C464 C466 1.378 . S
C464 C468 1.350 . S
C465 C468 1.463 . S
C465 C470 1.350 . S
C465 N473 1.427 . S
C466 H457 0.930 . S
C466 C464 1.378 . S
C466 C467 1.367 . S
C467 C466 1.367 . S
C467 C469 1.433 . S
C468 C464 1.350 . S
C468 C465 1.463 . S
C468 N472 1.427 . S
C469 H459 0.929 . S
C469 C467 1.433 . S
C469 N472 1.384 . S
C470 H461 0.929 . S
C470 C462 1.378 . S
C470 C465 1.350 . S
C471 H458 0.929 . S
C471 C463 1.433 . S
C471 N473 1.384 . S
N472 C468 1.427 . S
N472 C469 1.384 . S
N473 C465 1.427 . S
N473 C471 1.384 . S
H474 C480 0.930 . S
H475 C484 0.930 . S
H476 C489 0.929 . S
H477 C487 0.929 . S
H478 C482 0.929 . S
H479 C488 0.929 . S
C480 H474 0.930 . S
C480 C481 1.367 . S
C480 C488 1.378 . S
C481 C480 1.367 . S
C481 C489 1.433 . S
C482 H478 0.929 . S
C482 C484 1.378 . S
C482 C486 1.350 . S
C483 C486 1.463 . S
C483 C488 1.350 . S
C483 N491 1.427 . S
C484 H475 0.930 . S
C484 C482 1.378 . S
C484 C485 1.367 . S
C485 C484 1.367 . S
C485 C487 1.433 . S
C486 C482 1.350 . S
C486 C483 1.463 . S
C486 N490 1.427 . S
C487 H477 0.929 . S
C487 C485 1.433 . S
C487 N490 1.384 . S
C488 H479 0.929 . S
C488 C480 1.378 . S
C488 C483 1.350 . S
C489 H476 0.929 . S
C489 C481 1.433 . S
C489 N491 1.384 . S
N490 C486 1.427 . S
N490 C487 1.384 . S
N491 C483 1.427 . S
N491 C489 1.384 . S
H492 C498 0.930 . S
H493 C502 0.930 . S
H494 C507 0.929 . S
H495 C505 0.929 . S
H496 C500 0.929 . S
H497 C506 0.929 . S
C498 H492 0.930 . S
C498 C499 1.367 . S
C498 C506 1.378 . S
C499 C498 1.367 . S
C499 C507 1.433 . S
C500 H496 0.929 . S
C500 C502 1.378 . S
C500 C504 1.350 . S
C501 C504 1.463 . S
C501 C506 1.350 . S
C501 N509 1.427 . S
C502 H493 0.930 . S
C502 C500 1.378 . S
C502 C503 1.367 . S
C503 C502 1.367 . S
C503 C505 1.433 . S
C504 C500 1.350 . S
C504 C501 1.463 . S
C504 N508 1.427 . S
C505 H495 0.929 . S
C505 C503 1.433 . S
C505 N508 1.384 . S
C506 H497 0.929 . S
C506 C498 1.378 . S
C506 C501 1.350 . S
C507 H494 0.929 . S
C507 C499 1.433 . S
C507 N509 1.384 . S
N508 C504 1.427 . S
N508 C505 1.384 . S
N509 C501 1.427 . S
N509 C507 1.384 . S
H510 C516 0.930 . S
H511 C520 0.930 . S
H512 C525 0.929 . S
H513 C523 0.929 . S
H514 C518 0.929 . S
H515 C524 0.929 . S
C516 H510 0.930 . S
C516 C517 1.367 . S
C516 C524 1.378 . S
C517 C516 1.367 . S
C517 C525 1.433 . S
C518 H514 0.929 . S
C518 C520 1.378 . S
C518 C522 1.350 . S
C519 C522 1.463 . S
C519 C524 1.350 . S
C519 N527 1.427 . S
C520 H511 0.930 . S
C520 C518 1.378 . S
C520 C521 1.367 . S
C521 C520 1.367 . S
C521 C523 1.433 . S
C522 C518 1.350 . S
C522 C519 1.463 . S
C522 N526 1.427 . S
C523 H513 0.929 . S
C523 C521 1.433 . S
C523 N526 1.384 . S
C524 H515 0.929 . S
C524 C516 1.378 . S
C524 C519 1.350 . S
C525 H512 0.929 . S
C525 C517 1.433 . S
C525 N527 1.384 . S
N526 C522 1.427 . S
N526 C523 1.384 . S
N527 C519 1.427 . S
N527 C525 1.384 . S
H528 C534 0.930 . S
H529 C538 0.930 . S
H530 C543 0.929 . S
H531 C541 0.929 . S
H532 C536 0.929 . S
H533 C542 0.929 . S
C534 H528 0.930 . S
C534 C535 1.367 . S
C534 C542 1.378 . S
C535 C534 1.367 . S
C535 C543 1.433 . S
C536 H532 0.929 . S
C536 C538 1.378 . S
C536 C540 1.350 . S
C537 C540 1.463 . S
C537 C542 1.350 . S
C537 N545 1.427 . S
C538 H529 0.930 . S
C538 C536 1.378 . S
C538 C539 1.367 . S
C539 C538 1.367 . S
C539 C541 1.433 . S
C540 C536 1.350 . S
C540 C537 1.463 . S
C540 N544 1.427 . S
C541 H531 0.929 . S
C541 C539 1.433 . S
C541 N544 1.384 . S
C542 H533 0.929 . S
C542 C534 1.378 . S
C542 C537 1.350 . S
C543 H530 0.929 . S
C543 C535 1.433 . S
C543 N545 1.384 . S
N544 C540 1.427 . S
N544 C541 1.384 . S
N545 C537 1.427 . S
N545 C543 1.384 . S
H546 C552 0.930 1_565 S
H547 C556 0.930 . S
H548 C561 0.929 . S
H549 C559 0.929 . S
H550 C554 0.929 . S
H551 C560 0.929 . S
C552 H546 0.930 1_545 S
C552 C553 1.367 . S
C552 C560 1.378 . S
C553 C552 1.367 . S
C553 C561 1.433 . S
C554 H550 0.929 . S
C554 C556 1.378 . S
C554 C558 1.350 . S
C555 C558 1.463 . S
C555 C560 1.350 . S
C555 N563 1.427 . S
C556 H547 0.930 . S
C556 C554 1.378 . S
C556 C557 1.367 . S
C557 C556 1.367 . S
C557 C559 1.433 . S
C558 C554 1.350 . S
C558 C555 1.463 . S
C558 N562 1.427 . S
C559 H549 0.929 . S
C559 C557 1.433 . S
C559 N562 1.384 . S
C560 H551 0.929 . S
C560 C552 1.378 . S
C560 C555 1.350 . S
C561 H548 0.929 . S
C561 C553 1.433 . S
C561 N563 1.384 . S
N562 C558 1.427 . S
N562 C559 1.384 . S
N563 C555 1.427 . S
N563 C561 1.384 . S
C247 C122 0.731 . S
C251 C2 0.724 . S
C265 C162 0.728 . S
C269 C42 0.731 . S
C283 C202 0.713 . S
C287 C82 0.725 . S
C301 C26 0.808 . S
C305 C89 0.813 . S
C319 C66 0.776 . S
C323 C129 0.767 . S
C337 C106 0.791 . S
C341 C169 0.775 . S
C355 C146 0.776 . S
C359 C209 0.788 . S
C373 C186 0.811 . S
C377 C9 0.813 . S
C391 C226 0.805 . S
C395 C49 0.812 . S
C409 C15 1.654 . S
C413 C135 1.651 1_545 S
C427 C55 1.652 . S
C431 C175 1.656 . S
C445 C95 1.646 1_455 S
C449 C215 1.642 . S
C463 C22 4.061 . S
C467 C43 4.085 . S
C481 C62 4.062 . S
C485 C83 4.085 . S
C499 C102 4.060 . S
C503 C123 4.086 . S
C517 C142 4.059 . S
C521 C163 4.086 . S
C535 C182 4.062 . S
C539 C203 4.086 . S
C553 C222 4.061 . S
C557 C3 4.085 . S
