# Generated by pormake.
# Topology wna, (6)-cn, num edge types: 1
# Building blocks:
#     Node 0, Type 0, BuildingBlock: CUKXOW_clean_sbu_0, # of connection points: 6
#     Node 1, Type 0, BuildingBlock: CUKXOW_clean_sbu_0, # of connection points: 6
#     Node 2, Type 0, BuildingBlock: CUKXOW_clean_sbu_0, # of connection points: 6
#     Node 3, Type 0, BuildingBlock: CUKXOW_clean_sbu_0, # of connection points: 6
#     Node 4, Type 0, BuildingBlock: CUKXOW_clean_sbu_0, # of connection points: 6
#     Node 5, Type 0, BuildingBlock: CUKXOW_clean_sbu_0, # of connection points: 6
#     Node 6, Type 0, BuildingBlock: CUKXOW_clean_sbu_0, # of connection points: 6
#     Node 7, Type 0, BuildingBlock: CUKXOW_clean_sbu_0, # of connection points: 6
#     Node 8, Type 0, BuildingBlock: CUKXOW_clean_sbu_0, # of connection points: 6
#     Node 9, Type 0, BuildingBlock: CUKXOW_clean_sbu_0, # of connection points: 6
#     Node 10, Type 0, BuildingBlock: CUKXOW_clean_sbu_0, # of connection points: 6
#     Node 11, Type 0, BuildingBlock: CUKXOW_clean_sbu_0, # of connection points: 6
#     Node 12, Type 0, BuildingBlock: CUKXOW_clean_sbu_0, # of connection points: 6
#     Node 13, Type 0, BuildingBlock: CUKXOW_clean_sbu_0, # of connection points: 6
#     Node 14, Type 0, BuildingBlock: CUKXOW_clean_sbu_0, # of connection points: 6
#     Node 15, Type 0, BuildingBlock: CUKXOW_clean_sbu_0, # of connection points: 6
#     Node 16, Type 0, BuildingBlock: CUKXOW_clean_sbu_0, # of connection points: 6
#     Node 17, Type 0, BuildingBlock: CUKXOW_clean_sbu_0, # of connection points: 6
#     Node 18, Type 0, BuildingBlock: CUKXOW_clean_sbu_0, # of connection points: 6
#     Node 19, Type 0, BuildingBlock: CUKXOW_clean_sbu_0, # of connection points: 6
#     Node 20, Type 0, BuildingBlock: CUKXOW_clean_sbu_0, # of connection points: 6
#     Node 21, Type 0, BuildingBlock: CUKXOW_clean_sbu_0, # of connection points: 6
#     Node 22, Type 0, BuildingBlock: CUKXOW_clean_sbu_0, # of connection points: 6
#     Node 23, Type 0, BuildingBlock: CUKXOW_clean_sbu_0, # of connection points: 6
#     Node 24, Type 0, BuildingBlock: CUKXOW_clean_sbu_0, # of connection points: 6
#     Node 25, Type 0, BuildingBlock: CUKXOW_clean_sbu_0, # of connection points: 6
#     Node 26, Type 0, BuildingBlock: CUKXOW_clean_sbu_0, # of connection points: 6
#     Node 27, Type 0, BuildingBlock: CUKXOW_clean_sbu_0, # of connection points: 6
#     Node 28, Type 0, BuildingBlock: CUKXOW_clean_sbu_0, # of connection points: 6
#     Node 29, Type 0, BuildingBlock: CUKXOW_clean_sbu_0, # of connection points: 6
#     Node 30, Type 0, BuildingBlock: CUKXOW_clean_sbu_0, # of connection points: 6
#     Node 31, Type 0, BuildingBlock: CUKXOW_clean_sbu_0, # of connection points: 6
#     Node 32, Type 0, BuildingBlock: CUKXOW_clean_sbu_0, # of connection points: 6
#     Node 33, Type 0, BuildingBlock: CUKXOW_clean_sbu_0, # of connection points: 6
#     Node 34, Type 0, BuildingBlock: CUKXOW_clean_sbu_0, # of connection points: 6
#     Node 35, Type 0, BuildingBlock: CUKXOW_clean_sbu_0, # of connection points: 6
#     Edge 36, Type (0, 0), BuildingBlock: ZUJKAS_clean_linker_0, # of connection points: 2
#     Edge 37, Type (0, 0), BuildingBlock: ZUJKAS_clean_linker_0, # of connection points: 2
#     Edge 38, Type (0, 0), BuildingBlock: ZUJKAS_clean_linker_0, # of connection points: 2
#     Edge 39, Type (0, 0), BuildingBlock: ZUJKAS_clean_linker_0, # of connection points: 2
#     Edge 40, Type (0, 0), BuildingBlock: ZUJKAS_clean_linker_0, # of connection points: 2
#     Edge 41, Type (0, 0), BuildingBlock: ZUJKAS_clean_linker_0, # of connection points: 2
#     Edge 42, Type (0, 0), BuildingBlock: ZUJKAS_clean_linker_0, # of connection points: 2
#     Edge 43, Type (0, 0), BuildingBlock: ZUJKAS_clean_linker_0, # of connection points: 2
#     Edge 44, Type (0, 0), BuildingBlock: ZUJKAS_clean_linker_0, # of connection points: 2
#     Edge 45, Type (0, 0), BuildingBlock: ZUJKAS_clean_linker_0, # of connection points: 2
#     Edge 46, Type (0, 0), BuildingBlock: ZUJKAS_clean_linker_0, # of connection points: 2
#     Edge 47, Type (0, 0), BuildingBlock: ZUJKAS_clean_linker_0, # of connection points: 2
#     Edge 48, Type (0, 0), BuildingBlock: ZUJKAS_clean_linker_0, # of connection points: 2
#     Edge 49, Type (0, 0), BuildingBlock: ZUJKAS_clean_linker_0, # of connection points: 2
#     Edge 50, Type (0, 0), BuildingBlock: ZUJKAS_clean_linker_0, # of connection points: 2
#     Edge 51, Type (0, 0), BuildingBlock: ZUJKAS_clean_linker_0, # of connection points: 2
#     Edge 52, Type (0, 0), BuildingBlock: ZUJKAS_clean_linker_0, # of connection points: 2
#     Edge 53, Type (0, 0), BuildingBlock: ZUJKAS_clean_linker_0, # of connection points: 2
#     Edge 54, Type (0, 0), BuildingBlock: ZUJKAS_clean_linker_0, # of connection points: 2
#     Edge 55, Type (0, 0), BuildingBlock: ZUJKAS_clean_linker_0, # of connection points: 2
#     Edge 56, Type (0, 0), BuildingBlock: ZUJKAS_clean_linker_0, # of connection points: 2
#     Edge 57, Type (0, 0), BuildingBlock: ZUJKAS_clean_linker_0, # of connection points: 2
#     Edge 58, Type (0, 0), BuildingBlock: ZUJKAS_clean_linker_0, # of connection points: 2
#     Edge 59, Type (0, 0), BuildingBlock: ZUJKAS_clean_linker_0, # of connection points: 2
#     Edge 60, Type (0, 0), BuildingBlock: ZUJKAS_clean_linker_0, # of connection points: 2
#     Edge 61, Type (0, 0), BuildingBlock: ZUJKAS_clean_linker_0, # of connection points: 2
#     Edge 62, Type (0, 0), BuildingBlock: ZUJKAS_clean_linker_0, # of connection points: 2
#     Edge 63, Type (0, 0), BuildingBlock: ZUJKAS_clean_linker_0, # of connection points: 2
#     Edge 64, Type (0, 0), BuildingBlock: ZUJKAS_clean_linker_0, # of connection points: 2
#     Edge 65, Type (0, 0), BuildingBlock: ZUJKAS_clean_linker_0, # of connection points: 2
#     Edge 66, Type (0, 0), BuildingBlock: ZUJKAS_clean_linker_0, # of connection points: 2
#     Edge 67, Type (0, 0), BuildingBlock: ZUJKAS_clean_linker_0, # of connection points: 2
#     Edge 68, Type (0, 0), BuildingBlock: ZUJKAS_clean_linker_0, # of connection points: 2
#     Edge 69, Type (0, 0), BuildingBlock: ZUJKAS_clean_linker_0, # of connection points: 2
#     Edge 70, Type (0, 0), BuildingBlock: ZUJKAS_clean_linker_0, # of connection points: 2
#     Edge 71, Type (0, 0), BuildingBlock: ZUJKAS_clean_linker_0, # of connection points: 2
#     Edge 72, Type (0, 0), BuildingBlock: ZUJKAS_clean_linker_0, # of connection points: 2
#     Edge 73, Type (0, 0), BuildingBlock: ZUJKAS_clean_linker_0, # of connection points: 2
#     Edge 74, Type (0, 0), BuildingBlock: ZUJKAS_clean_linker_0, # of connection points: 2
#     Edge 75, Type (0, 0), BuildingBlock: ZUJKAS_clean_linker_0, # of connection points: 2
#     Edge 76, Type (0, 0), BuildingBlock: ZUJKAS_clean_linker_0, # of connection points: 2
#     Edge 77, Type (0, 0), BuildingBlock: ZUJKAS_clean_linker_0, # of connection points: 2
#     Edge 78, Type (0, 0), BuildingBlock: ZUJKAS_clean_linker_0, # of connection points: 2
#     Edge 79, Type (0, 0), BuildingBlock: ZUJKAS_clean_linker_0, # of connection points: 2
#     Edge 80, Type (0, 0), BuildingBlock: ZUJKAS_clean_linker_0, # of connection points: 2
#     Edge 81, Type (0, 0), BuildingBlock: ZUJKAS_clean_linker_0, # of connection points: 2
#     Edge 82, Type (0, 0), BuildingBlock: ZUJKAS_clean_linker_0, # of connection points: 2
#     Edge 83, Type (0, 0), BuildingBlock: ZUJKAS_clean_linker_0, # of connection points: 2
#     Edge 84, Type (0, 0), BuildingBlock: ZUJKAS_clean_linker_0, # of connection points: 2
#     Edge 85, Type (0, 0), BuildingBlock: ZUJKAS_clean_linker_0, # of connection points: 2
#     Edge 86, Type (0, 0), BuildingBlock: ZUJKAS_clean_linker_0, # of connection points: 2
#     Edge 87, Type (0, 0), BuildingBlock: ZUJKAS_clean_linker_0, # of connection points: 2
#     Edge 88, Type (0, 0), BuildingBlock: ZUJKAS_clean_linker_0, # of connection points: 2
#     Edge 89, Type (0, 0), BuildingBlock: ZUJKAS_clean_linker_0, # of connection points: 2
#     Edge 90, Type (0, 0), BuildingBlock: ZUJKAS_clean_linker_0, # of connection points: 2
#     Edge 91, Type (0, 0), BuildingBlock: ZUJKAS_clean_linker_0, # of connection points: 2
#     Edge 92, Type (0, 0), BuildingBlock: ZUJKAS_clean_linker_0, # of connection points: 2
#     Edge 93, Type (0, 0), BuildingBlock: ZUJKAS_clean_linker_0, # of connection points: 2
#     Edge 94, Type (0, 0), BuildingBlock: ZUJKAS_clean_linker_0, # of connection points: 2
#     Edge 95, Type (0, 0), BuildingBlock: ZUJKAS_clean_linker_0, # of connection points: 2
#     Edge 96, Type (0, 0), BuildingBlock: ZUJKAS_clean_linker_0, # of connection points: 2
#     Edge 97, Type (0, 0), BuildingBlock: ZUJKAS_clean_linker_0, # of connection points: 2
#     Edge 98, Type (0, 0), BuildingBlock: ZUJKAS_clean_linker_0, # of connection points: 2
#     Edge 99, Type (0, 0), BuildingBlock: ZUJKAS_clean_linker_0, # of connection points: 2
#     Edge 100, Type (0, 0), BuildingBlock: ZUJKAS_clean_linker_0, # of connection points: 2
#     Edge 101, Type (0, 0), BuildingBlock: ZUJKAS_clean_linker_0, # of connection points: 2
#     Edge 102, Type (0, 0), BuildingBlock: ZUJKAS_clean_linker_0, # of connection points: 2
#     Edge 103, Type (0, 0), BuildingBlock: ZUJKAS_clean_linker_0, # of connection points: 2
#     Edge 104, Type (0, 0), BuildingBlock: ZUJKAS_clean_linker_0, # of connection points: 2
#     Edge 105, Type (0, 0), BuildingBlock: ZUJKAS_clean_linker_0, # of connection points: 2
#     Edge 106, Type (0, 0), BuildingBlock: ZUJKAS_clean_linker_0, # of connection points: 2
#     Edge 107, Type (0, 0), BuildingBlock: ZUJKAS_clean_linker_0, # of connection points: 2
#     Edge 108, Type (0, 0), BuildingBlock: ZUJKAS_clean_linker_0, # of connection points: 2
#     Edge 109, Type (0, 0), BuildingBlock: ZUJKAS_clean_linker_0, # of connection points: 2
#     Edge 110, Type (0, 0), BuildingBlock: ZUJKAS_clean_linker_0, # of connection points: 2
#     Edge 111, Type (0, 0), BuildingBlock: ZUJKAS_clean_linker_0, # of connection points: 2
#     Edge 112, Type (0, 0), BuildingBlock: ZUJKAS_clean_linker_0, # of connection points: 2
#     Edge 113, Type (0, 0), BuildingBlock: ZUJKAS_clean_linker_0, # of connection points: 2
#     Edge 114, Type (0, 0), BuildingBlock: ZUJKAS_clean_linker_0, # of connection points: 2
#     Edge 115, Type (0, 0), BuildingBlock: ZUJKAS_clean_linker_0, # of connection points: 2
#     Edge 116, Type (0, 0), BuildingBlock: ZUJKAS_clean_linker_0, # of connection points: 2
#     Edge 117, Type (0, 0), BuildingBlock: ZUJKAS_clean_linker_0, # of connection points: 2
#     Edge 118, Type (0, 0), BuildingBlock: ZUJKAS_clean_linker_0, # of connection points: 2
#     Edge 119, Type (0, 0), BuildingBlock: ZUJKAS_clean_linker_0, # of connection points: 2
#     Edge 120, Type (0, 0), BuildingBlock: ZUJKAS_clean_linker_0, # of connection points: 2
#     Edge 121, Type (0, 0), BuildingBlock: ZUJKAS_clean_linker_0, # of connection points: 2
#     Edge 122, Type (0, 0), BuildingBlock: ZUJKAS_clean_linker_0, # of connection points: 2
#     Edge 123, Type (0, 0), BuildingBlock: ZUJKAS_clean_linker_0, # of connection points: 2
#     Edge 124, Type (0, 0), BuildingBlock: ZUJKAS_clean_linker_0, # of connection points: 2
#     Edge 125, Type (0, 0), BuildingBlock: ZUJKAS_clean_linker_0, # of connection points: 2
#     Edge 126, Type (0, 0), BuildingBlock: ZUJKAS_clean_linker_0, # of connection points: 2
#     Edge 127, Type (0, 0), BuildingBlock: ZUJKAS_clean_linker_0, # of connection points: 2
#     Edge 128, Type (0, 0), BuildingBlock: ZUJKAS_clean_linker_0, # of connection points: 2
#     Edge 129, Type (0, 0), BuildingBlock: ZUJKAS_clean_linker_0, # of connection points: 2
#     Edge 130, Type (0, 0), BuildingBlock: ZUJKAS_clean_linker_0, # of connection points: 2
#     Edge 131, Type (0, 0), BuildingBlock: ZUJKAS_clean_linker_0, # of connection points: 2
#     Edge 132, Type (0, 0), BuildingBlock: ZUJKAS_clean_linker_0, # of connection points: 2
#     Edge 133, Type (0, 0), BuildingBlock: ZUJKAS_clean_linker_0, # of connection points: 2
#     Edge 134, Type (0, 0), BuildingBlock: ZUJKAS_clean_linker_0, # of connection points: 2
#     Edge 135, Type (0, 0), BuildingBlock: ZUJKAS_clean_linker_0, # of connection points: 2
#     Edge 136, Type (0, 0), BuildingBlock: ZUJKAS_clean_linker_0, # of connection points: 2
#     Edge 137, Type (0, 0), BuildingBlock: ZUJKAS_clean_linker_0, # of connection points: 2
#     Edge 138, Type (0, 0), BuildingBlock: ZUJKAS_clean_linker_0, # of connection points: 2
#     Edge 139, Type (0, 0), BuildingBlock: ZUJKAS_clean_linker_0, # of connection points: 2
#     Edge 140, Type (0, 0), BuildingBlock: ZUJKAS_clean_linker_0, # of connection points: 2
#     Edge 141, Type (0, 0), BuildingBlock: ZUJKAS_clean_linker_0, # of connection points: 2
#     Edge 142, Type (0, 0), BuildingBlock: ZUJKAS_clean_linker_0, # of connection points: 2
#     Edge 143, Type (0, 0), BuildingBlock: ZUJKAS_clean_linker_0, # of connection points: 2
# Relax obj value: 0.205
# Max RMSD: 0.245
# Mean RMSD: 0.230
data_MOF--net-wna--node1-CUKXOW_clean_sbu_0--edge1-ZUJKAS_clean_linker_0
_symmetry_space_group_name_H-M    P1
_symmetry_Int_Tables_number       1
_symmetry_cell_setting            triclinic
loop_
_symmetry_equiv_pos_as_xyz
'x, y, z'
_cell_length_a     56.414513
_cell_length_b     56.403923
_cell_length_c     96.798014
_cell_angle_alpha  90.033009
_cell_angle_beta   89.966272
_cell_angle_gamma 120.02722
loop_
_atom_site_label
_atom_site_type_symbol
_atom_site_fract_x
_atom_site_fract_y
_atom_site_fract_z
_atom_type_partial_charge
Tb0 Tb 0.11544 0.26651 0.19614 0.0
C1 C 0.10586 0.20788 0.19903 0.0
Tb2 Tb 0.05711 0.21895 0.19313 0.0
O3 O 0.11494 0.25903 0.21848 0.0
O4 O 0.07908 0.24936 0.20803 0.0
O5 O 0.12314 0.23267 0.1943 0.0
C6 C 0.00906 0.17278 0.1955 0.0
O7 O 0.07966 0.19967 0.20122 0.0
C8 C 0.08298 0.23982 0.16994 0.0
C9 C 0.06664 0.27842 0.19053 0.0
O10 O 0.02587 0.17925 0.18521 0.0
O11 O 0.01913 0.19249 0.2045 0.0
O12 O 0.05669 0.22875 0.17143 0.0
O13 O 0.09328 0.23669 0.18089 0.0
O14 O 0.04822 0.25233 0.19302 0.0
O15 O 0.09349 0.28787 0.19051 0.0
C16 C 0.16542 0.30913 0.19185 0.0
O17 O 0.14571 0.29911 0.18289 0.0
O18 O 0.1568 0.29543 0.20326 0.0
C19 C 0.0885 0.2472 0.2194 0.0
Tb20 Tb 0.7214 0.85279 0.19823 0.0
C21 C 0.78341 0.89857 0.19904 0.0
Tb22 Tb 0.76475 0.83524 0.1948 0.0
O23 O 0.73223 0.86203 0.22017 0.0
O24 O 0.73672 0.8319 0.21006 0.0
O25 O 0.75769 0.89306 0.19824 0.0
C26 C 0.80673 0.82705 0.19939 0.0
O27 O 0.79045 0.87937 0.19832 0.0
C28 C 0.74491 0.8413 0.17166 0.0
C29 C 0.70276 0.79014 0.19396 0.0
O30 O 0.79853 0.83953 0.2077 0.0
O31 O 0.79101 0.81882 0.1886 0.0
O32 O 0.75681 0.8268 0.17278 0.0
O33 O 0.74857 0.85486 0.18261 0.0
O34 O 0.72786 0.79546 0.19731 0.0
O35 O 0.69646 0.80975 0.19231 0.0
C36 C 0.68381 0.86725 0.19356 0.0
O37 O 0.68454 0.85397 0.20438 0.0
O38 O 0.70403 0.87212 0.18546 0.0
C39 C 0.74153 0.84515 0.22112 0.0
Tb40 Tb 0.13286 0.87582 0.19956 0.0
C41 C 0.08574 0.89089 0.19539 0.0
Tb42 Tb 0.14862 0.93703 0.19279 0.0
O43 O 0.1475 0.8877 0.22077 0.0
O44 O 0.13258 0.90914 0.20954 0.0
O45 O 0.09246 0.87163 0.19725 0.0
C46 C 0.16017 0.98859 0.19512 0.0
O47 O 0.10406 0.91744 0.19422 0.0
C48 C 0.1495 0.90995 0.17059 0.0
C49 C 0.1946 0.92074 0.19629 0.0
O50 O 0.1466 0.97213 0.18506 0.0
O51 O 0.16743 0.97607 0.20397 0.0
O52 O 0.15546 0.93538 0.17029 0.0
O53 O 0.14343 0.90228 0.18285 0.0
O54 O 0.18799 0.94028 0.19766 0.0
O55 O 0.17616 0.8943 0.19484 0.0
C56 C 0.11147 0.82191 0.1973 0.0
O57 O 0.12218 0.83599 0.20848 0.0
O58 O 0.11305 0.8382 0.18746 0.0
C59 C 0.14423 0.90896 0.2206 0.0
Tb60 Tb 0.25913 0.11358 0.36048 0.0
C61 C 0.1983 0.09861 0.36298 0.0
Tb62 Tb 0.21689 0.05364 0.3654 0.0
O63 O 0.24206 0.1104 0.33966 0.0
O64 O 0.24166 0.07691 0.34886 0.0
O65 O 0.22405 0.11866 0.36381 0.0
C66 C 0.17379 0.00332 0.36228 0.0
O67 O 0.19121 0.07233 0.36268 0.0
C68 C 0.24185 0.08067 0.38771 0.0
C69 C 0.2783 0.06989 0.36331 0.0
O70 O 0.18454 0.02172 0.35269 0.0
O71 O 0.18755 0.01312 0.37362 0.0
O72 O 0.23153 0.05443 0.38625 0.0
O73 O 0.23513 0.09004 0.37751 0.0
O74 O 0.25274 0.05002 0.36094 0.0
O75 O 0.28471 0.09573 0.36536 0.0
C76 C 0.29982 0.16554 0.36039 0.0
O77 O 0.29419 0.14808 0.35046 0.0
O78 O 0.28278 0.15359 0.37047 0.0
C79 C 0.23391 0.08453 0.3385 0.0
Tb80 Tb 0.87045 0.13978 0.35427 0.0
C81 C 0.87781 0.08762 0.35739 0.0
Tb82 Tb 0.92723 0.14669 0.3637 0.0
O83 O 0.89028 0.16326 0.33565 0.0
O84 O 0.90456 0.13949 0.34517 0.0
O85 O 0.86076 0.09743 0.35701 0.0
C86 C 0.97713 0.15309 0.36346 0.0
O87 O 0.90481 0.10344 0.35842 0.0
C88 C 0.89522 0.14108 0.38493 0.0
C89 C 0.91759 0.19765 0.3631 0.0
O90 O 0.95809 0.13868 0.37235 0.0
O91 O 0.96819 0.16413 0.35462 0.0
O92 O 0.91973 0.14471 0.38626 0.0
O93 O 0.89096 0.14078 0.37223 0.0
O94 O 0.93561 0.18895 0.36226 0.0
O95 O 0.89062 0.18125 0.36216 0.0
C96 C 0.81802 0.12348 0.35006 0.0
O97 O 0.83447 0.12228 0.34109 0.0
O98 O 0.83121 0.13429 0.36148 0.0
C99 C 0.90917 0.15649 0.33565 0.0
Tb100 Tb 0.84497 0.72767 0.35523 0.0
C101 C 0.89382 0.78897 0.35924 0.0
Tb102 Tb 0.83226 0.77438 0.36387 0.0
O103 O 0.82403 0.72382 0.33559 0.0
O104 O 0.84405 0.76129 0.34598 0.0
O105 O 0.88611 0.76253 0.35839 0.0
C106 C 0.82192 0.81536 0.36259 0.0
O107 O 0.8762 0.7981 0.35993 0.0
C108 C 0.8367 0.74834 0.38551 0.0
C109 C 0.78449 0.71201 0.36177 0.0
O110 O 0.83878 0.8137 0.37111 0.0
O111 O 0.81056 0.79372 0.35475 0.0
O112 O 0.83129 0.76814 0.3865 0.0
O113 O 0.83922 0.74518 0.37291 0.0
O114 O 0.79141 0.73836 0.36102 0.0
O115 O 0.80262 0.70349 0.36162 0.0
C116 C 0.86342 0.69274 0.35275 0.0
O117 O 0.86102 0.70666 0.34273 0.0
O118 O 0.85536 0.69842 0.36422 0.0
C119 C 0.82911 0.74899 0.33579 0.0
Tb120 Tb 0.92777 0.76981 0.84624 0.0
C121 C 0.91243 0.70837 0.84661 0.0
Tb122 Tb 0.86796 0.72595 0.84102 0.0
O123 O 0.92562 0.76 0.8682 0.0
O124 O 0.89049 0.75249 0.85735 0.0
O125 O 0.93235 0.73384 0.84408 0.0
C126 C 0.8166 0.68539 0.84406 0.0
O127 O 0.88626 0.70152 0.84722 0.0
C128 C 0.89805 0.74804 0.81897 0.0
C129 C 0.88236 0.78719 0.8409 0.0
O130 O 0.8314 0.68977 0.83305 0.0
O131 O 0.8307 0.70382 0.85326 0.0
O132 O 0.87178 0.73857 0.81931 0.0
O133 O 0.90548 0.74251 0.83018 0.0
O134 O 0.86248 0.76127 0.84142 0.0
O135 O 0.90871 0.79475 0.84206 0.0
C136 C 0.97788 0.81275 0.84269 0.0
O137 O 0.95852 0.80311 0.83353 0.0
O138 O 0.9691 0.79804 0.85382 0.0
C139 C 0.89911 0.74813 0.86854 0.0
Tb140 Tb 0.21603 0.15318 0.84345 0.0
C141 C 0.27758 0.19908 0.84144 0.0
Tb142 Tb 0.26029 0.13711 0.84019 0.0
O143 O 0.23259 0.17186 0.86349 0.0
O144 O 0.23629 0.1388 0.85658 0.0
O145 O 0.25204 0.19228 0.8382 0.0
C146 C 0.29381 0.11737 0.84408 0.0
O147 O 0.28464 0.18058 0.84468 0.0
C148 C 0.24625 0.15236 0.81749 0.0
C149 C 0.19816 0.09011 0.84168 0.0
O150 O 0.27888 0.11334 0.83316 0.0
O151 O 0.29017 0.13286 0.85272 0.0
O152 O 0.27054 0.15577 0.81952 0.0
O153 O 0.23102 0.13908 0.8274 0.0
O154 O 0.22424 0.09652 0.84186 0.0
O155 O 0.1904 0.10881 0.84155 0.0
C156 C 0.17286 0.16013 0.84171 0.0
O157 O 0.17774 0.14781 0.85168 0.0
O158 O 0.19243 0.16874 0.83261 0.0
C159 C 0.24314 0.1565 0.86598 0.0
Tb160 Tb 0.83925 0.06165 0.8449 0.0
C161 C 0.78991 0.07193 0.84288 0.0
Tb162 Tb 0.85014 0.12015 0.84156 0.0
O163 O 0.82054 0.05815 0.86511 0.0
O164 O 0.85135 0.0961 0.85803 0.0
O165 O 0.79877 0.05483 0.83958 0.0
C166 C 0.86516 0.17255 0.84468 0.0
O167 O 0.80675 0.09778 0.84641 0.0
C168 C 0.83582 0.09066 0.81893 0.0
C169 C 0.90069 0.11044 0.8425 0.0
O170 O 0.87165 0.16236 0.83429 0.0
O171 O 0.84997 0.15318 0.85328 0.0
O172 O 0.83048 0.1102 0.82118 0.0
O173 O 0.85039 0.0901 0.82861 0.0
O174 O 0.89219 0.12853 0.84285 0.0
O175 O 0.88364 0.08356 0.84257 0.0
C176 C 0.83646 0.01332 0.84277 0.0
O177 O 0.84809 0.03071 0.85276 0.0
O178 O 0.82616 0.02305 0.83393 0.0
C179 C 0.83418 0.08423 0.86757 0.0
Tb180 Tb 0.7672 0.93342 0.67499 0.0
C181 C 0.7062 0.91968 0.67769 0.0
Tb182 Tb 0.72223 0.87495 0.68135 0.0
O183 O 0.74955 0.93224 0.6548 0.0
O184 O 0.74494 0.89639 0.66363 0.0
O185 O 0.73221 0.93851 0.67994 0.0
C186 C 0.68729 0.82144 0.68232 0.0
O187 O 0.69837 0.89362 0.6754 0.0
C188 C 0.73908 0.90896 0.70234 0.0
C189 C 0.78322 0.88728 0.6788 0.0
O190 O 0.70376 0.83592 0.69217 0.0
O191 O 0.69041 0.83708 0.67182 0.0
O192 O 0.71422 0.88871 0.70112 0.0
O193 O 0.75336 0.90812 0.69259 0.0
O194 O 0.75696 0.86846 0.67984 0.0
O195 O 0.79193 0.91384 0.67743 0.0
C196 C 0.81085 0.9835 0.67547 0.0
O197 O 0.80537 0.96528 0.66594 0.0
O198 O 0.79161 0.9736 0.68475 0.0
C199 C 0.73789 0.90584 0.65364 0.0
Tb200 Tb 0.05109 0.83636 0.67301 0.0
C201 C 0.06352 0.78858 0.67725 0.0
Tb202 Tb 0.10891 0.84928 0.67975 0.0
O203 O 0.05124 0.81738 0.6534 0.0
O204 O 0.08773 0.84892 0.66159 0.0
O205 O 0.04517 0.79648 0.67914 0.0
C206 C 0.16216 0.86721 0.68139 0.0
O207 O 0.08966 0.80621 0.67479 0.0
C208 C 0.07512 0.83489 0.70084 0.0
C209 C 0.09816 0.89846 0.67458 0.0
O210 O 0.14616 0.85131 0.6717 0.0
O211 O 0.14815 0.87283 0.69007 0.0
O212 O 0.09488 0.82952 0.69998 0.0
O213 O 0.07631 0.84925 0.69065 0.0
O214 O 0.11651 0.89051 0.67604 0.0
O215 O 0.07142 0.88095 0.67385 0.0
C216 C 0.00137 0.83046 0.67362 0.0
O217 O 0.01908 0.84208 0.66374 0.0
O218 O 0.01159 0.82199 0.68314 0.0
C219 C 0.07767 0.83131 0.65208 0.0
Tb220 Tb 0.14661 0.21544 0.67511 0.0
C221 C 0.1953 0.2769 0.67745 0.0
Tb222 Tb 0.13573 0.26377 0.68279 0.0
O223 O 0.1439 0.21817 0.65233 0.0
O224 O 0.13919 0.24384 0.6655 0.0
O225 O 0.18721 0.2505 0.67938 0.0
C226 C 0.11749 0.29881 0.68498 0.0
O227 O 0.17794 0.28623 0.67608 0.0
C228 C 0.15349 0.24531 0.70271 0.0
C229 C 0.0856 0.20249 0.67848 0.0
O230 O 0.11917 0.28449 0.69501 0.0
O231 O 0.12629 0.29357 0.67361 0.0
O232 O 0.1581 0.27028 0.70216 0.0
O233 O 0.13775 0.23158 0.69297 0.0
O234 O 0.09417 0.22886 0.68076 0.0
O235 O 0.10229 0.19262 0.67628 0.0
C236 C 0.15515 0.17332 0.67788 0.0
O237 O 0.13756 0.17693 0.68482 0.0
O238 O 0.16813 0.19355 0.66934 0.0
C239 C 0.14002 0.23902 0.65295 0.0
Tb240 Tb 0.78773 0.59811 0.53225 0.0
C241 C 0.77581 0.53738 0.52884 0.0
Tb242 Tb 0.72785 0.55029 0.52497 0.0
O243 O 0.77364 0.60357 0.55243 0.0
O244 O 0.75377 0.56556 0.54256 0.0
O245 O 0.79411 0.56385 0.52787 0.0
C246 C 0.6776 0.50717 0.52588 0.0
O247 O 0.74904 0.52791 0.52977 0.0
C248 C 0.75698 0.57507 0.50263 0.0
C249 C 0.74155 0.61214 0.5259 0.0
O250 O 0.69785 0.50899 0.51869 0.0
O251 O 0.68552 0.52989 0.53264 0.0
O252 O 0.7316 0.55558 0.5022 0.0
O253 O 0.76359 0.57833 0.51511 0.0
O254 O 0.72239 0.58589 0.52746 0.0
O255 O 0.76827 0.62099 0.5258 0.0
C256 C 0.84135 0.63286 0.53285 0.0
O257 O 0.82797 0.61316 0.54161 0.0
O258 O 0.82447 0.63322 0.52387 0.0
C259 C 0.75266 0.57889 0.55273 0.0
Tb260 Tb 0.3928 0.18698 0.53479 0.0
C261 C 0.45223 0.2369 0.52978 0.0
Tb262 Tb 0.43837 0.175 0.52747 0.0
O263 O 0.38833 0.16882 0.55534 0.0
O264 O 0.42602 0.18752 0.54528 0.0
O265 O 0.42588 0.22866 0.53143 0.0
C266 C 0.48365 0.17149 0.52647 0.0
O267 O 0.4617 0.21963 0.52868 0.0
C268 C 0.40521 0.16877 0.50704 0.0
C269 C 0.3792 0.12634 0.53283 0.0
O270 O 0.47613 0.18303 0.51721 0.0
O271 O 0.46552 0.16167 0.53628 0.0
O272 O 0.41813 0.15525 0.50818 0.0
O273 O 0.41319 0.18665 0.51644 0.0
O274 O 0.40571 0.13477 0.53406 0.0
O275 O 0.36994 0.14346 0.53069 0.0
C276 C 0.35472 0.20146 0.53498 0.0
O277 O 0.37452 0.20949 0.54386 0.0
O278 O 0.35636 0.18527 0.52598 0.0
C279 C 0.41338 0.17373 0.55573 0.0
Tb280 Tb 0.80531 0.20792 0.52928 0.0
C281 C 0.75881 0.22321 0.52659 0.0
Tb282 Tb 0.8219 0.26752 0.52409 0.0
O283 O 0.82447 0.21789 0.54974 0.0
O284 O 0.80861 0.24098 0.54135 0.0
O285 O 0.76498 0.2034 0.52668 0.0
C286 C 0.83009 0.31823 0.52443 0.0
O287 O 0.77772 0.2496 0.52649 0.0
C288 C 0.82336 0.24092 0.50219 0.0
C289 C 0.86715 0.25123 0.52621 0.0
O290 O 0.81587 0.29967 0.51529 0.0
O291 O 0.83993 0.30832 0.53341 0.0
O292 O 0.83891 0.26709 0.50389 0.0
O293 O 0.80637 0.23137 0.51197 0.0
O294 O 0.86106 0.2706 0.52912 0.0
O295 O 0.84806 0.22555 0.52377 0.0
C296 C 0.78567 0.15423 0.52808 0.0
O297 O 0.77928 0.16669 0.53736 0.0
O298 O 0.80322 0.172 0.51948 0.0
C299 C 0.82216 0.23948 0.5513 0.0
Tb300 Tb 0.92524 0.45154 0.69046 0.0
C301 C 0.86578 0.44461 0.69017 0.0
Tb302 Tb 0.87369 0.39405 0.69755 0.0
O303 O 0.93114 0.43519 0.67119 0.0
O304 O 0.89193 0.41873 0.67976 0.0
O305 O 0.89265 0.46168 0.69063 0.0
C306 C 0.82866 0.34525 0.6965 0.0
O307 O 0.85446 0.41756 0.69118 0.0
C308 C 0.89878 0.42283 0.71999 0.0
C309 C 0.93338 0.40192 0.69718 0.0
O310 O 0.83134 0.36634 0.70324 0.0
O311 O 0.85154 0.35149 0.69031 0.0
O312 O 0.87753 0.39841 0.72042 0.0
O313 O 0.90348 0.42869 0.70748 0.0
O314 O 0.9067 0.38466 0.69536 0.0
O315 O 0.94446 0.42897 0.69782 0.0
C316 C 0.96442 0.50374 0.69011 0.0
O317 O 0.95277 0.48882 0.67929 0.0
O318 O 0.95403 0.48925 0.7012 0.0
C319 C 0.90569 0.41589 0.67027 0.0
Tb320 Tb 0.53568 0.47264 0.68955 0.0
C321 C 0.54896 0.42464 0.69404 0.0
Tb322 Tb 0.597 0.48723 0.69477 0.0
O323 O 0.54396 0.48294 0.66767 0.0
O324 O 0.56733 0.47029 0.67874 0.0
O325 O 0.52996 0.43188 0.69277 0.0
C326 C 0.64782 0.49636 0.69222 0.0
O327 O 0.57576 0.44248 0.69398 0.0
C328 C 0.57298 0.49174 0.71746 0.0
C329 C 0.58232 0.53364 0.69016 0.0
O330 O 0.62988 0.48011 0.70115 0.0
O331 O 0.6372 0.50772 0.68463 0.0
O332 O 0.59821 0.49714 0.71712 0.0
O333 O 0.56393 0.48446 0.70551 0.0
O334 O 0.60072 0.52583 0.68798 0.0
O335 O 0.5565 0.51633 0.6937 0.0
C336 C 0.48254 0.45563 0.69185 0.0
O337 O 0.49827 0.47036 0.68183 0.0
O338 O 0.49678 0.45058 0.70066 0.0
C339 C 0.56543 0.48013 0.66739 0.0
Tb340 Tb 0.5101 0.05753 0.69331 0.0
C341 C 0.55691 0.11889 0.69469 0.0
Tb342 Tb 0.49411 0.10292 0.69932 0.0
O343 O 0.51292 0.06206 0.67045 0.0
O344 O 0.50305 0.08533 0.68272 0.0
O345 O 0.55066 0.09287 0.69463 0.0
C346 C 0.48946 0.1475 0.70061 0.0
O347 O 0.53834 0.12689 0.69543 0.0
C348 C 0.48894 0.07065 0.72002 0.0
C349 C 0.44858 0.04299 0.69284 0.0
O350 O 0.50389 0.14173 0.70894 0.0
O351 O 0.47734 0.12799 0.69158 0.0
O352 O 0.4747 0.08281 0.71876 0.0
O353 O 0.5068 0.07897 0.71065 0.0
O354 O 0.45597 0.06927 0.69146 0.0
O355 O 0.46601 0.03458 0.69625 0.0
C356 C 0.52311 0.01872 0.69693 0.0
O357 O 0.50581 0.01799 0.68787 0.0
O358 O 0.53295 0.04125 0.70398 0.0
C359 C 0.50632 0.0811 0.67036 0.0
Tb360 Tb 0.59496 0.11041 0.18219 0.0
C361 C 0.57934 0.04879 0.17988 0.0
Tb362 Tb 0.53526 0.06634 0.17731 0.0
O363 O 0.59591 0.09374 0.20235 0.0
O364 O 0.5592 0.08879 0.19457 0.0
O365 O 0.59837 0.07447 0.17708 0.0
C366 C 0.48161 0.03189 0.17872 0.0
O367 O 0.55355 0.04165 0.18243 0.0
C368 C 0.56698 0.08244 0.15533 0.0
C369 C 0.54981 0.12817 0.18041 0.0
O370 O 0.4996 0.03248 0.18728 0.0
O371 O 0.49386 0.05054 0.16932 0.0
O372 O 0.54608 0.05797 0.15671 0.0
O373 O 0.56762 0.09672 0.16541 0.0
O374 O 0.53031 0.10198 0.18022 0.0
O375 O 0.57634 0.13616 0.18045 0.0
C376 C 0.6457 0.1523 0.18013 0.0
O377 O 0.62855 0.14889 0.18994 0.0
O378 O 0.63429 0.13207 0.17145 0.0
C379 C 0.56967 0.08198 0.2042 0.0
Tb380 Tb 0.87276 0.48183 0.18276 0.0
C381 C 0.93307 0.53318 0.18305 0.0
Tb382 Tb 0.92399 0.47531 0.17499 0.0
O383 O 0.87742 0.48144 0.20553 0.0
O384 O 0.90225 0.47591 0.19219 0.0
O385 O 0.90639 0.52425 0.18153 0.0
C386 C 0.96182 0.46037 0.17467 0.0
O387 O 0.94396 0.51703 0.18251 0.0
C388 C 0.90314 0.49127 0.15537 0.0
C389 C 0.86423 0.42299 0.17621 0.0
O390 O 0.94759 0.46005 0.16405 0.0
O391 O 0.95499 0.46948 0.18538 0.0
O392 O 0.92875 0.4977 0.15573 0.0
O393 O 0.89033 0.47476 0.16499 0.0
O394 O 0.8911 0.43274 0.17629 0.0
O395 O 0.85296 0.43876 0.17711 0.0
C396 C 0.82826 0.48641 0.18141 0.0
O397 O 0.83146 0.46976 0.1894 0.0
O398 O 0.85033 0.50081 0.17412 0.0
C399 C 0.89828 0.47762 0.20478 0.0
Tb400 Tb 0.49308 0.39498 0.17631 0.0
C401 C 0.44702 0.40985 0.17161 0.0
Tb402 Tb 0.51051 0.45466 0.1709 0.0
O403 O 0.47757 0.39642 0.19664 0.0
O404 O 0.51062 0.43169 0.18819 0.0
O405 O 0.45312 0.38989 0.17122 0.0
C406 C 0.52108 0.50625 0.1727 0.0
O407 O 0.46604 0.43621 0.17235 0.0
C408 C 0.50799 0.42563 0.14915 0.0
C409 C 0.55655 0.44054 0.17546 0.0
O410 O 0.52569 0.49533 0.162 0.0
O411 O 0.51008 0.48795 0.18235 0.0
O412 O 0.52472 0.4518 0.1501 0.0
O413 O 0.49233 0.4179 0.15942 0.0
O414 O 0.54998 0.45995 0.17649 0.0
O415 O 0.53775 0.41422 0.17431 0.0
C416 C 0.48709 0.34491 0.17475 0.0
O417 O 0.494 0.36213 0.1646 0.0
O418 O 0.48315 0.35575 0.1857 0.0
C419 C 0.49377 0.4226 0.19809 0.0
Tb420 Tb 0.44175 0.26842 1.00536 0.0
C421 C 0.37995 0.2541 1.00984 0.0
Tb422 Tb 0.39582 0.20896 1.01421 0.0
O423 O 0.43287 0.26437 0.98295 0.0
O424 O 0.41152 0.23254 0.99636 0.0
O425 O 0.4064 0.27333 1.01001 0.0
C426 C 0.36196 0.1557 1.01809 0.0
O427 O 0.37114 0.22738 1.00945 0.0
C428 C 0.41939 0.24559 0.03381 0.0
C429 C 0.45591 0.22088 1.00762 0.0
O430 O 0.37908 0.17247 0.02713 0.0
O431 O 0.36378 0.1689 1.00678 0.0
O432 O 0.39421 0.22566 0.03439 0.0
O433 O 0.43054 0.24314 0.02307 0.0
O434 O 0.4295 0.20233 1.00864 0.0
O435 O 0.46535 0.24771 1.00776 0.0
C436 C 0.48342 0.31945 1.00652 0.0
O437 O 0.48092 0.3009 0.99776 0.0
O438 O 0.46219 0.30938 1.01463 0.0
C439 C 0.41323 0.23907 0.98387 0.0
Tb440 Tb 0.71935 0.16199 1.00878 0.0
C441 C 0.73438 0.11603 1.01271 0.0
Tb442 Tb 0.77802 0.17912 1.01662 0.0
O443 O 0.72401 0.15027 0.98797 0.0
O444 O 0.75784 0.18105 0.99863 0.0
O445 O 0.71437 0.12198 1.01329 0.0
C446 C 0.83003 0.19082 1.0174 0.0
O447 O 0.7607 0.13526 1.0127 0.0
C448 C 0.74496 0.17312 0.03718 0.0
C449 C 0.76383 0.22556 1.01216 0.0
O450 O 0.81467 0.18713 0.02807 0.0
O451 O 0.81597 0.18752 1.00625 0.0
O452 O 0.77106 0.19053 0.03733 0.0
O453 O 0.73932 0.1589 0.02641 0.0
O454 O 0.78372 0.21956 1.01287 0.0
O455 O 0.73758 0.20642 1.01123 0.0
C456 C 0.66888 0.15461 1.00996 0.0
O457 O 0.68663 0.1639 0.01991 0.0
O458 O 0.67947 0.14926 0.99934 0.0
C459 C 0.75044 0.16581 0.9881 0.0
Tb460 Tb 0.81772 0.54949 1.00821 0.0
C461 C 0.86829 0.60834 1.01135 0.0
Tb462 Tb 0.80741 0.5964 1.01467 0.0
O463 O 0.83423 0.56631 0.98798 0.0
O464 O 0.80404 0.57276 0.99694 0.0
O465 O 0.85951 0.58168 1.01236 0.0
C466 C 0.80107 0.64022 1.01505 0.0
O467 O 0.85135 0.61825 1.01038 0.0
C468 C 0.80741 0.56755 0.03608 0.0
C469 C 0.75676 0.53804 1.01243 0.0
O470 O 0.8101 0.63201 0.02522 0.0
O471 O 0.7962 0.62405 1.0046 0.0
O472 O 0.79296 0.5796 0.03546 0.0
O473 O 0.82228 0.57398 0.02552 0.0
O474 O 0.76548 0.56453 1.01146 0.0
O475 O 0.77375 0.52817 1.01273 0.0
C476 C 0.81927 0.50294 1.00832 0.0
O477 O 0.82589 0.5198 1.01863 0.0
O478 O 0.81207 0.51244 0.99794 0.0
C479 C 0.82043 0.579 0.98688 0.0
Tb480 Tb 0.45145 0.92762 0.86618 0.0
C481 C 0.43995 0.86659 0.86551 0.0
Tb482 Tb 0.39221 0.88084 0.86378 0.0
O483 O 0.44305 0.93807 0.88679 0.0
O484 O 0.42186 0.89789 0.87952 0.0
O485 O 0.45853 0.89305 0.86496 0.0
C486 C 0.34343 0.83606 0.86634 0.0
O487 O 0.41319 0.8574 0.8658 0.0
C488 C 0.41393 0.90768 0.84085 0.0
C489 C 0.4042 0.94117 0.86553 0.0
O490 O 0.36037 0.84129 0.85619 0.0
O491 O 0.35388 0.8562 0.87513 0.0
O492 O 0.38804 0.89601 0.8437 0.0
O493 O 0.4259 0.90205 0.85016 0.0
O494 O 0.38689 0.91545 0.86919 0.0
O495 O 0.42979 0.94955 0.86171 0.0
C496 C 0.50404 0.96327 0.86179 0.0
O497 O 0.49401 0.94887 0.87294 0.0
O498 O 0.48437 0.95787 0.85315 0.0
C499 C 0.4234 0.91331 0.88927 0.0
Tb500 Tb 0.05645 0.51745 0.86413 0.0
C501 C 0.1175 0.56495 0.86556 0.0
Tb502 Tb 0.10347 0.50321 0.85897 0.0
O503 O 0.05748 0.51689 0.8871 0.0
O504 O 0.08269 0.50897 0.87517 0.0
O505 O 0.09141 0.55836 0.8651 0.0
C506 C 0.14983 0.50173 0.85844 0.0
O507 O 0.12599 0.54687 0.86424 0.0
C508 C 0.07401 0.50001 0.83734 0.0
C509 C 0.0431 0.45608 0.86265 0.0
O510 O 0.14298 0.51473 0.84972 0.0
O511 O 0.13031 0.4891 0.86743 0.0
O512 O 0.08664 0.48622 0.8387 0.0
O513 O 0.08046 0.51661 0.8473 0.0
O514 O 0.06926 0.46342 0.86469 0.0
O515 O 0.03474 0.47379 0.85976 0.0
C516 C 0.01838 0.53075 0.85883 0.0
O517 O 0.01581 0.51239 0.86773 0.0
O518 O 0.04228 0.54158 0.85308 0.0
C519 C 0.07647 0.5102 0.88746 0.0
Tb520 Tb 0.47062 0.53798 0.86231 0.0
C521 C 0.42655 0.55644 0.86249 0.0
Tb522 Tb 0.49065 0.59972 0.85985 0.0
O523 O 0.46004 0.53888 0.88414 0.0
O524 O 0.49191 0.5733 0.87475 0.0
O525 O 0.43124 0.53573 0.8615 0.0
C526 C 0.5013 0.65042 0.86559 0.0
O527 O 0.44641 0.58251 0.86249 0.0
C528 C 0.48535 0.57523 0.83629 0.0
C529 C 0.53372 0.58037 0.85849 0.0
O530 O 0.48833 0.62934 0.87362 0.0
O531 O 0.50849 0.64297 0.8544 0.0
O532 O 0.50045 0.60151 0.83794 0.0
O533 O 0.47099 0.56486 0.84698 0.0
O534 O 0.5294 0.60051 0.86245 0.0
O535 O 0.51341 0.55496 0.85632 0.0
C536 C 0.45473 0.48565 0.85732 0.0
O537 O 0.46936 0.49961 0.86785 0.0
O538 O 0.44923 0.50116 0.84971 0.0
C539 C 0.47787 0.56474 0.88556 0.0
Tb540 Tb 0.59379 0.77562 0.02358 0.0
C541 C 0.53249 0.76243 0.02806 0.0
Tb542 Tb 0.54816 0.71557 0.03207 0.0
O543 O 0.59536 0.76109 1.00281 0.0
O544 O 0.55953 0.74137 1.01446 0.0
O545 O 0.5584 0.78115 0.02548 0.0
C546 C 0.50622 0.6646 0.03127 0.0
O547 O 0.52402 0.73601 0.03015 0.0
C548 C 0.57669 0.74514 0.05357 0.0
C549 C 0.61006 0.73097 0.02909 0.0
O550 O 0.51131 0.68209 0.04113 0.0
O551 O 0.52502 0.67567 0.02179 0.0
O552 O 0.55727 0.71976 0.05452 0.0
O553 O 0.57816 0.7514 0.04107 0.0
O554 O 0.58397 0.71124 0.0277 0.0
O555 O 0.61777 0.75737 0.03014 0.0
C556 C 0.62884 0.82927 0.02313 0.0
O557 O 0.62639 0.81215 1.01353 0.0
O558 O 0.61159 0.8162 0.03299 0.0
C559 C 0.5708 0.74005 1.00349 0.0
Tb560 Tb 0.20863 0.80796 0.02723 0.0
C561 C 0.21789 0.75717 0.02979 0.0
Tb562 Tb 0.2662 0.81854 0.03301 0.0
O563 O 0.22263 0.82963 1.00753 0.0
O564 O 0.24051 0.80794 1.01556 0.0
O565 O 0.20005 0.76586 0.02865 0.0
C566 C 0.31488 0.82184 0.03239 0.0
O567 O 0.24465 0.77408 0.03107 0.0
C568 C 0.24088 0.8235 0.05451 0.0
C569 C 0.25573 0.86796 0.03048 0.0
O570 O 0.29674 0.81034 0.04208 0.0
O571 O 0.30573 0.83175 0.02303 0.0
O572 O 0.26725 0.83702 0.05293 0.0
O573 O 0.23015 0.80635 0.04483 0.0
O574 O 0.2733 0.8593 0.02786 0.0
O575 O 0.22941 0.85088 0.033 0.0
C576 C 0.15542 0.79095 0.02594 0.0
O577 O 0.17023 0.79011 1.01594 0.0
O578 O 0.17058 0.80149 0.03685 0.0
C579 C 0.24173 0.82347 1.00591 0.0
Tb580 Tb 0.17757 0.3935 0.02366 0.0
C581 C 0.22517 0.45434 0.02849 0.0
Tb582 Tb 0.16259 0.43677 0.03174 0.0
O583 O 0.15725 0.38812 1.00362 0.0
O584 O 0.17548 0.42578 1.01364 0.0
O585 O 0.21826 0.42825 0.02729 0.0
C586 C 0.15544 0.47993 0.03271 0.0
O587 O 0.20688 0.46254 0.02948 0.0
C588 C 0.16011 0.40474 0.05198 0.0
C589 C 0.11619 0.3758 0.02694 0.0
O590 O 0.16843 0.47391 0.04186 0.0
O591 O 0.14617 0.46143 0.02305 0.0
O592 O 0.14538 0.41648 0.05139 0.0
O593 O 0.17715 0.41339 0.04219 0.0
O594 O 0.12302 0.40196 0.02577 0.0
O595 O 0.13462 0.36802 0.02869 0.0
C596 C 0.19835 0.36064 0.02074 0.0
O597 O 0.20211 0.38012 1.01234 0.0
O598 O 0.1826 0.3594 0.03086 0.0
C599 C 0.16125 0.41284 1.00339 0.0
Tb600 Tb 0.26508 0.43988 0.51545 0.0
C601 C 0.24864 0.37798 0.51572 0.0
Tb602 Tb 0.20524 0.3966 0.5087 0.0
O603 O 0.26139 0.42658 0.53686 0.0
O604 O 0.22697 0.42106 0.52586 0.0
O605 O 0.26921 0.4036 0.5144 0.0
C606 C 0.15267 0.35888 0.51132 0.0
O607 O 0.22242 0.37119 0.51508 0.0
C608 C 0.23732 0.42021 0.48738 0.0
C609 C 0.22146 0.45817 0.50779 0.0
O610 O 0.16848 0.3596 0.50134 0.0
O611 O 0.16645 0.37924 0.51962 0.0
O612 O 0.21094 0.41018 0.487 0.0
O613 O 0.24356 0.41412 0.49875 0.0
O614 O 0.20113 0.43263 0.50886 0.0
O615 O 0.24762 0.46506 0.50881 0.0
C616 C 0.31598 0.48229 0.51463 0.0
O617 O 0.30466 0.46382 0.50507 0.0
O618 O 0.29877 0.47667 0.52468 0.0
C619 C 0.23489 0.41518 0.5369 0.0
Tb620 Tb 0.55158 0.81865 0.5121 0.0
C621 C 0.61246 0.86661 0.51166 0.0
Tb622 Tb 0.59668 0.8044 0.50761 0.0
O623 O 0.56574 0.8326 0.53298 0.0
O624 O 0.57061 0.80138 0.5241 0.0
O625 O 0.5864 0.85977 0.50999 0.0
C626 C 0.6376 0.79408 0.51082 0.0
O627 O 0.62067 0.84823 0.51211 0.0
C628 C 0.57294 0.80874 0.48518 0.0
C629 C 0.53627 0.75658 0.50769 0.0
O630 O 0.63054 0.80028 0.49922 0.0
O631 O 0.62192 0.79416 0.52058 0.0
O632 O 0.58328 0.79275 0.48609 0.0
O633 O 0.57843 0.82273 0.49602 0.0
O634 O 0.56212 0.76345 0.50975 0.0
O635 O 0.52821 0.77501 0.50684 0.0
C636 C 0.50829 0.8256 0.51051 0.0
O637 O 0.52595 0.83099 0.50069 0.0
O638 O 0.51499 0.81629 0.52115 0.0
C639 C 0.57635 0.81697 0.53446 0.0
Tb640 Tb 0.17628 0.73137 0.51142 0.0
C641 C 0.12731 0.74233 0.5097 0.0
Tb642 Tb 0.18785 0.79006 0.50773 0.0
O643 O 0.15777 0.72818 0.53163 0.0
O644 O 0.18859 0.76605 0.52438 0.0
O645 O 0.13571 0.7248 0.50652 0.0
C646 C 0.20345 0.84261 0.51095 0.0
O647 O 0.14455 0.7684 0.51263 0.0
C648 C 0.17377 0.7601 0.48524 0.0
C649 C 0.23794 0.77973 0.50938 0.0
O650 O 0.20996 0.8324 0.50058 0.0
O651 O 0.18786 0.82317 0.51943 0.0
O652 O 0.16858 0.77983 0.48721 0.0
O653 O 0.18806 0.75968 0.49507 0.0
O654 O 0.22972 0.79804 0.50941 0.0
O655 O 0.22069 0.7529 0.50952 0.0
C656 C 0.17338 0.68305 0.50921 0.0
O657 O 0.18466 0.7002 0.51933 0.0
O658 O 0.16339 0.69297 0.5003 0.0
C659 C 0.17139 0.75434 0.53394 0.0
Tb660 Tb 0.10517 0.5986 0.34162 0.0
C661 C 0.04311 0.58365 0.34482 0.0
Tb662 Tb 0.05919 0.53888 0.35035 0.0
O663 O 0.09624 0.59379 0.31915 0.0
O664 O 0.07601 0.56222 0.33269 0.0
O665 O 0.06942 0.60303 0.34555 0.0
C666 C 0.02543 0.48544 0.35358 0.0
O667 O 0.03452 0.55695 0.34448 0.0
C668 C 0.08028 0.57585 0.36986 0.0
C669 C 0.12073 0.55222 0.34532 0.0
O670 O 0.03943 0.5025 0.36334 0.0
O671 O 0.03033 0.49845 0.34192 0.0
O672 O 0.05527 0.55551 0.37001 0.0
O673 O 0.09279 0.57366 0.35958 0.0
O674 O 0.09448 0.53337 0.34695 0.0
O675 O 0.12961 0.57888 0.34418 0.0
C676 C 0.14536 0.65036 0.34239 0.0
O677 O 0.14153 0.63295 0.33267 0.0
O678 O 0.12658 0.63866 0.35181 0.0
C679 C 0.07712 0.5683 0.32018 0.0
Tb680 Tb 0.38852 0.49737 0.34111 0.0
C681 C 0.40203 0.44994 0.34323 0.0
Tb682 Tb 0.44705 0.5122 0.3481 0.0
O683 O 0.39135 0.48335 0.32067 0.0
O684 O 0.42644 0.51481 0.33029 0.0
O685 O 0.38236 0.45638 0.34413 0.0
C686 C 0.49912 0.52377 0.34872 0.0
O687 O 0.42852 0.46873 0.34305 0.0
C688 C 0.4155 0.50775 0.36918 0.0
C689 C 0.43444 0.5597 0.34633 0.0
O690 O 0.48175 0.51319 0.3588 0.0
O691 O 0.48691 0.52714 0.33819 0.0
O692 O 0.4418 0.52419 0.36907 0.0
O693 O 0.40888 0.49361 0.35837 0.0
O694 O 0.45375 0.55304 0.34537 0.0
O695 O 0.40794 0.5411 0.34624 0.0
C696 C 0.33858 0.49171 0.34111 0.0
O697 O 0.34965 0.48611 0.35142 0.0
O698 O 0.35549 0.50012 0.33078 0.0
C699 C 0.41776 0.49895 0.31993 0.0
Tb700 Tb 0.4802 0.87696 0.34143 0.0
C701 C 0.53044 0.9379 0.34306 0.0
Tb702 Tb 0.47141 0.92605 0.35044 0.0
O703 O 0.47987 0.88291 0.31879 0.0
O704 O 0.47423 0.90705 0.3326 0.0
O705 O 0.52215 0.91122 0.3436 0.0
C706 C 0.45642 0.96343 0.35356 0.0
O707 O 0.51353 0.94787 0.34366 0.0
C708 C 0.48699 0.90383 0.36958 0.0
C709 C 0.42047 0.86653 0.34666 0.0
O710 O 0.45169 0.94414 0.36233 0.0
O711 O 0.46964 0.96172 0.34295 0.0
O712 O 0.49289 0.92924 0.36983 0.0
O713 O 0.47119 0.89183 0.35961 0.0
O714 O 0.42962 0.89328 0.34645 0.0
O715 O 0.43687 0.85594 0.34663 0.0
C716 C 0.48629 0.83327 0.3423 0.0
O717 O 0.47002 0.83653 0.33405 0.0
O718 O 0.49955 0.85486 0.35004 0.0
C719 C 0.47574 0.90352 0.31994 0.0
H720 H 0.15331 0.21158 0.18967 0.0
H721 H 0.16717 0.17698 0.19158 0.0
H722 H 0.09504 0.126 0.2158 0.0
H723 H 0.08061 0.16009 0.21361 0.0
H724 H 0.17748 0.15105 0.21328 0.0
H725 H 0.08656 0.07782 0.18282 0.0
H726 H 0.09661 0.11346 0.18453 0.0
H727 H 0.07831 0.08979 0.19827 0.0
C728 C 0.14049 0.19309 0.19549 0.0
C729 C 0.11561 0.1883 0.20127 0.0
C730 C 0.14851 0.17341 0.19662 0.0
C731 C 0.13186 0.14875 0.20361 0.0
C732 C 0.10785 0.14465 0.21009 0.0
H733 H 0.1685 0.01747 0.21903 0.0
H734 H 0.16497 0.05887 0.22194 0.0
C735 C 0.09964 0.16414 0.20883 0.0
C736 C 0.13858 0.12656 0.20321 0.0
H737 H 0.11435 0.06128 0.19179 0.0
C738 C 0.16374 0.13138 0.20859 0.0
C739 C 0.12072 0.10111 0.19691 0.0
C740 C 0.09417 0.09524 0.19018 0.0
C741 C 0.1715 0.1113 0.20783 0.0
C742 C 0.1534 0.08572 0.20173 0.0
C743 C 0.12819 0.08092 0.19648 0.0
C744 C 0.16016 0.06368 0.20009 0.0
C745 C 0.19923 0.11788 0.2132 0.0
C746 C 0.15895 0.0529 0.18688 0.0
C747 C 0.16038 0.02913 0.18526 0.0
C748 C 0.16341 0.01591 0.19681 0.0
C749 C 0.1664 0.02755 0.20997 0.0
C750 C 0.1645 0.05121 0.21163 0.0
H751 H 0.2132 0.1403 0.21432 0.0
H752 H 0.19677 0.10837 0.22353 0.0
H753 H 0.20895 0.10953 0.20624 0.0
H754 H 0.15567 0.06224 0.17784 0.0
H755 H 0.15813 0.02054 0.175 0.0
H756 H 0.97306 0.15476 0.21719 0.0
H757 H 0.93188 0.10944 0.2197 0.0
H758 H 0.94743 0.08594 0.17977 0.0
H759 H 0.98804 0.13106 0.17713 0.0
H760 H 0.89335 0.07162 0.18349 0.0
H761 H 0.93226 0.03824 0.22785 0.0
H762 H 0.93189 0.06966 0.23027 0.0
H763 H 0.95421 0.06796 0.21757 0.0
C764 C 0.9675 0.13991 0.20895 0.0
C765 C 0.98365 0.14628 0.19698 0.0
C766 C 0.94416 0.11403 0.21043 0.0
C767 C 0.93685 0.09425 0.19999 0.0
C768 C 0.95274 0.10089 0.18795 0.0
H769 H 0.83889 0.91945 0.19803 0.0
H770 H 0.87477 0.96753 0.19919 0.0
C771 C 0.97594 0.12665 0.18646 0.0
C772 C 0.91279 0.06645 0.20145 0.0
H773 H 0.88804 0.0069 0.21969 0.0
C774 C 0.89203 0.0575 0.19147 0.0
C775 C 0.91139 0.04806 0.21178 0.0
C776 C 0.93368 0.05627 0.22243 0.0
C777 C 0.87012 0.03048 0.19136 0.0
C778 C 0.86867 0.01209 0.20171 0.0
C779 C 0.88918 0.02114 0.21183 0.0
C780 C 0.8468 0.98297 0.20172 0.0
C781 C 0.84933 0.02159 0.17986 0.0
C782 C 0.81923 0.97572 0.20301 0.0
C783 C 0.79864 0.94828 0.20224 0.0
C784 C 0.80529 0.92755 0.20031 0.0
C785 C 0.83301 0.93486 0.19945 0.0
C786 C 0.85357 0.96233 0.20015 0.0
H787 H 0.8569 0.03619 0.17105 0.0
H788 H 0.84397 0.00097 0.17597 0.0
H789 H 0.83038 0.02053 0.18383 0.0
H790 H 0.81362 0.99131 0.20451 0.0
H791 H 0.77752 0.94338 0.20311 0.0
H792 H 0.06286 0.9238 0.19568 0.0
H793 H 0.0143 0.90956 0.19718 0.0
H794 H -0.00658 0.82483 0.19697 0.0
H795 H 0.04188 0.83875 0.19568 0.0
H796 H 0.97226 0.87781 0.1793 0.0
H797 H 0.95297 0.82911 0.23103 0.0
H798 H 0.98703 0.85115 0.22439 0.0
H799 H 0.96759 0.81613 0.21878 0.0
C800 C 0.04798 0.90212 0.19594 0.0
C801 C 0.05632 0.88243 0.19565 0.0
C802 C 0.02024 0.89404 0.19682 0.0
C803 C 0.00034 0.86617 0.19745 0.0
C804 C 0.0085 0.84645 0.19684 0.0
H805 H 0.82725 0.80416 0.18181 0.0
H806 H 0.87369 0.81098 0.18181 0.0
C807 C 0.03624 0.85449 0.19601 0.0
C808 C 0.971 0.85779 0.19843 0.0
H809 H 0.91406 0.8232 0.21862 0.0
C810 C 0.95952 0.86587 0.18789 0.0
C811 C 0.95456 0.84248 0.20974 0.0
C812 C 0.96617 0.8344 0.2217 0.0
C813 C 0.93195 0.85894 0.18829 0.0
C814 C 0.91531 0.84299 0.19941 0.0
C815 C 0.92682 0.83508 0.21002 0.0
C816 C 0.88622 0.83549 0.20044 0.0
C817 C 0.92107 0.86933 0.17699 0.0
C818 C 0.87753 0.84573 0.21133 0.0
C819 C 0.85096 0.84161 0.21143 0.0
C820 C 0.83279 0.82719 0.20063 0.0
C821 C 0.84097 0.8155 0.1902 0.0
C822 C 0.86749 0.81952 0.19014 0.0
H823 H 0.93784 0.8865 0.17115 0.0
H824 H 0.90902 0.85249 0.16959 0.0
H825 H 0.90741 0.8764 0.18129 0.0
H826 H 0.89166 0.85795 0.21942 0.0
H827 H 0.84508 0.85077 0.21961 0.0
H828 H 0.14833 0.06913 0.3509 0.0
H829 H 0.11289 0.08174 0.34871 0.0
H830 H 0.16353 0.15632 0.37138 0.0
H831 H 0.19958 0.14443 0.37297 0.0
H832 H 0.08408 0.08765 0.36734 0.0
H833 H 0.14146 0.18674 0.34018 0.0
H834 H 0.15482 0.16382 0.3422 0.0
H835 H 0.15823 0.18694 0.35593 0.0
C836 C 0.15191 0.08827 0.35536 0.0
C837 C 0.17665 0.10584 0.36209 0.0
C838 C 0.13172 0.09551 0.35406 0.0
C839 C 0.13575 0.12027 0.35963 0.0
C840 C 0.16031 0.1376 0.36658 0.0
H841 H 0.00287 0.14372 0.38442 0.0
H842 H 0.043 0.13809 0.38291 0.0
C843 C 0.18076 0.13064 0.36762 0.0
C844 C 0.11351 0.12696 0.35897 0.0
H845 H 0.09949 0.17776 0.3512 0.0
C846 C 0.08744 0.10726 0.36366 0.0
C847 C 0.11768 0.15235 0.35392 0.0
C848 C 0.1445 0.17352 0.34763 0.0
C849 C 0.06566 0.11246 0.36382 0.0
C850 C 0.07035 0.13855 0.35974 0.0
C851 C 0.09612 0.15798 0.3546 0.0
C852 C 0.04868 0.14592 0.36092 0.0
C853 C 0.03776 0.08972 0.36821 0.0
C854 C 0.03985 0.15417 0.34924 0.0
C855 C 0.01735 0.15817 0.35018 0.0
C856 C 0.00337 0.15367 0.36277 0.0
C857 C 0.01319 0.14697 0.37457 0.0
C858 C 0.03593 0.14354 0.37369 0.0
H859 H 0.03568 0.06926 0.36656 0.0
H860 H 0.0349 0.09177 0.3794 0.0
H861 H 0.02117 0.09052 0.36243 0.0
H862 H 0.04963 0.15639 0.33932 0.0
H863 H 0.01003 0.16333 0.34095 0.0
H864 H 0.79404 0.82597 0.34266 0.0
H865 H 0.79295 0.86874 0.33962 0.0
H866 H 0.84178 0.90164 0.37644 0.0
H867 H 0.84262 0.85918 0.37959 0.0
H868 H 0.79838 0.91293 0.37411 0.0
H869 H 0.86214 0.93905 0.32643 0.0
H870 H 0.83049 0.90691 0.32668 0.0
H871 H 0.85791 0.91207 0.33796 0.0
C872 C 0.80415 0.84225 0.35019 0.0
C873 C 0.81855 0.83947 0.36131 0.0
C874 C 0.80363 0.86663 0.34841 0.0
C875 C 0.81755 0.88839 0.35773 0.0
C876 C 0.83091 0.88507 0.36914 0.0
H877 H 0.90535 0.05926 0.35837 0.0
H878 H 0.88622 0.00984 0.35707 0.0
C879 C 0.83145 0.86085 0.3709 0.0
C880 C 0.82008 0.91545 0.35537 0.0
H881 H 0.85459 0.97305 0.33571 0.0
C882 C 0.81019 0.92598 0.36557 0.0
C883 C 0.8357 0.93235 0.34427 0.0
C884 C 0.84738 0.92223 0.33322 0.0
C885 C 0.81669 0.95345 0.36536 0.0
C886 C 0.83321 0.97062 0.35454 0.0
C887 C 0.8419 0.95972 0.34396 0.0
C888 C 0.84426 0.00054 0.35485 0.0
C889 C 0.8073 0.96432 0.37713 0.0
C890 C 0.82697 0.01166 0.35392 0.0
C891 C 0.83784 0.03999 0.35472 0.0
C892 C 0.8662 0.05764 0.3564 0.0
C893 C 0.88344 0.04634 0.35711 0.0
C894 C 0.87255 0.01808 0.35633 0.0
H895 H 0.79842 0.94943 0.38576 0.0
H896 H 0.82462 0.98369 0.38117 0.0
H897 H 0.79139 0.9688 0.37334 0.0
H898 H 0.80512 -0.00156 0.35258 0.0
H899 H 0.82398 0.048 0.35404 0.0
H900 H 0.93679 0.77925 0.36054 0.0
H901 H 0.98569 0.813 0.36099 0.0
H902 H 0.96712 0.87824 0.3578 0.0
H903 H 0.91825 0.8448 0.35761 0.0
H904 H 0.01862 0.85228 0.34215 0.0
H905 H 0.01622 0.90053 0.39161 0.0
H906 H 0.98795 0.86837 0.38579 0.0
H907 H -0.00737 0.90019 0.37908 0.0
C908 C 0.94306 0.80078 0.35995 0.0
C909 C 0.92352 0.80929 0.35916 0.0
C910 C 0.97104 0.82003 0.36019 0.0
C911 C 0.98002 0.84814 0.35968 0.0
C912 C 0.96062 0.85668 0.35855 0.0
H913 H 0.13952 0.98477 0.34013 0.0
H914 H 0.09342 0.94482 0.33927 0.0
C915 C 0.93266 0.83748 0.35838 0.0
C916 C 0.00967 0.86858 0.36027 0.0
H917 H 0.05694 0.9244 0.37821 0.0
C918 C 0.02708 0.86794 0.35009 0.0
C919 C 0.02075 0.88868 0.37078 0.0
C920 C 0.00348 0.88938 0.38252 0.0
C921 C 0.05517 0.88741 0.34989 0.0
C922 C 0.06596 0.90835 0.36 0.0
C923 C 0.04865 0.90848 0.3704 0.0
C924 C 0.09494 0.9308 0.35991 0.0
C925 C 0.07299 0.88518 0.33894 0.0
C926 C 0.11114 0.93635 0.37181 0.0
C927 C 0.13733 0.95939 0.37238 0.0
C928 C 0.14776 0.97726 0.36106 0.0
C929 C 0.132 0.9712 0.34898 0.0
C930 C 0.10571 0.94827 0.34844 0.0
H931 H 0.0639 0.86389 0.33499 0.0
H932 H 0.07493 0.89855 0.3301 0.0
H933 H 0.09382 0.89176 0.34296 0.0
H934 H 0.10323 0.92321 0.38079 0.0
H935 H 0.14908 0.96365 0.38182 0.0
H936 H 0.83111 0.78023 0.83741 0.0
H937 H 0.81863 0.81572 0.83517 0.0
H938 H 0.9036 0.87806 0.83881 0.0
H939 H 0.91642 0.8428 0.84085 0.0
H940 H 0.82686 0.85507 0.85408 0.0
H941 H 0.87925 0.90323 0.80498 0.0
H942 H 0.87346 0.87017 0.81052 0.0
H943 H 0.90176 0.90106 0.81736 0.0
C944 C 0.84722 0.80148 0.83764 0.0
C945 C 0.8748 0.80865 0.83931 0.0
C946 C 0.84001 0.82172 0.83633 0.0
C947 C 0.86022 0.84948 0.83659 0.0
C948 C 0.88775 0.85674 0.83825 0.0
H949 H 0.85655 0.99169 0.86113 0.0
H950 H 0.8586 0.94966 0.85878 0.0
C951 C 0.895 0.83652 0.83953 0.0
C952 C 0.85244 0.8709 0.83602 0.0
H953 H 0.86581 0.92946 0.81919 0.0
C954 C 0.83507 0.87113 0.84634 0.0
C955 C 0.86278 0.89156 0.82578 0.0
C956 C 0.88012 0.89139 0.81395 0.0
C957 C 0.82889 0.89226 0.8471 0.0
C958 C 0.84075 0.9139 0.83742 0.0
C959 C 0.85697 0.91296 0.82668 0.0
C960 C 0.8383 0.93866 0.8389 0.0
C961 C 0.81 0.89143 0.85837 0.0
C962 C 0.82666 0.94665 0.82837 0.0
C963 C 0.82555 0.97079 0.82968 0.0
C964 C 0.83633 0.98729 0.84147 0.0
C965 C 0.84794 0.97922 0.85197 0.0
C966 C 0.84898 0.95516 0.85068 0.0
H967 H 0.79629 0.87018 0.86206 0.0
H968 H 0.82241 0.90375 0.86729 0.0
H969 H 0.79724 0.90011 0.85477 0.0
H970 H 0.81853 0.93427 0.81915 0.0
H971 H 0.81664 0.97672 0.82141 0.0
H972 H 0.205 0.04548 0.84393 0.0
H973 H 0.16959 -0.00282 0.84338 0.0
H974 H 0.10774 0.01997 0.8379 0.0
H975 H 0.14287 0.06831 0.83868 0.0
H976 H 0.09431 0.98106 0.85787 0.0
H977 H 0.12732 0.95142 0.81002 0.0
H978 H 0.15369 0.96735 0.82284 0.0
H979 H 0.14 0.98668 0.81482 0.0
C980 C 0.18389 0.04026 0.84255 0.0
C981 C 0.1768 0.06081 0.84132 0.0
C982 C 0.1637 0.01262 0.84214 0.0
C983 C 0.13611 0.00501 0.84036 0.0
C984 C 0.12895 0.02544 0.8392 0.0
H985 H -0.00445 0.84792 0.82089 0.0
H986 H 0.03563 0.89409 0.82022 0.0
C987 C 0.14908 0.05307 0.83967 0.0
C988 C 0.1145 0.97579 0.84024 0.0
H989 H 0.09216 0.9153 0.82311 0.0
C990 C 0.09383 0.96667 0.85027 0.0
C991 C 0.1138 0.95717 0.83021 0.0
C992 C 0.13473 0.96614 0.81877 0.0
C993 C 0.07248 0.9394 0.8506 0.0
C994 C 0.07216 0.92059 0.84082 0.0
C995 C 0.09271 0.92971 0.83071 0.0
C996 C 0.04993 0.89165 0.84063 0.0
C997 C 0.05008 0.93114 0.86122 0.0
C998 C 0.04533 0.87469 0.85211 0.0
C999 C 0.02241 0.84843 0.85254 0.0
C1000 C 0.00394 0.83869 0.84144 0.0
C1001 C 0.00945 0.85504 0.82961 0.0
C1002 C 0.03231 0.88136 0.82921 0.0
H1003 H 0.04977 0.94919 0.86562 0.0
H1004 H 0.02969 0.91712 0.85667 0.0
H1005 H 0.05356 0.92026 0.86983 0.0
H1006 H 0.05904 0.88207 0.8609 0.0
H1007 H 0.01869 0.83611 0.86173 0.0
H1008 H 0.92645 0.08042 0.84375 0.0
H1009 H 0.97533 0.09686 0.84174 0.0
H1010 H 0.99127 0.17953 0.83665 0.0
H1011 H 0.9423 0.16336 0.83889 0.0
H1012 H 0.01033 0.12446 0.81981 0.0
H1013 H 0.04311 0.18665 0.86802 0.0
H1014 H 0.00772 0.16203 0.86448 0.0
H1015 H 0.02399 0.19462 0.85589 0.0
C1016 C 0.94028 0.10213 0.84227 0.0
C1017 C 0.93043 0.12058 0.84156 0.0
C1018 C 0.96823 0.11147 0.84108 0.0
C1019 C 0.98691 0.13941 0.83916 0.0
C1020 C 0.97722 0.15793 0.83835 0.0
H1021 H 0.15765 0.18238 0.82074 0.0
H1022 H 0.11431 0.18268 0.81882 0.0
C1023 C 0.94921 0.14862 0.8396 0.0
C1024 C 0.01646 0.14879 0.83802 0.0
H1025 H 0.07725 0.1845 0.8551 0.0
C1026 C 0.0251 0.13787 0.82741 0.0
C1027 C 0.03556 0.16626 0.84798 0.0
C1028 C 0.02723 0.17797 0.85981 0.0
C1029 C 0.0521 0.14295 0.82684 0.0
C1030 C 0.07102 0.15981 0.83703 0.0
C1031 C 0.06269 0.17173 0.84727 0.0
C1032 C 0.09826 0.1622 0.83837 0.0
C1033 C 0.0597 0.12895 0.81584 0.0
C1034 C 0.10385 0.15141 0.85016 0.0
C1035 C 0.12844 0.15139 0.8513 0.0
C1036 C 0.14795 0.16221 0.84068 0.0
C1037 C 0.14282 0.17382 0.82904 0.0
C1038 C 0.1181 0.17389 0.82791 0.0
H1039 H 0.04148 0.11305 0.81021 0.0
H1040 H 0.07354 0.14438 0.80822 0.0
H1041 H 0.07073 0.11918 0.82045 0.0
H1042 H 0.08881 0.14228 0.85834 0.0
H1043 H 0.13192 0.14238 0.8604 0.0
H1044 H 0.7736 0.83505 0.68215 0.0
H1045 H 0.80726 0.81996 0.68306 0.0
H1046 H 0.87236 0.90324 0.67734 0.0
H1047 H 0.83896 0.91871 0.67659 0.0
H1048 H 0.84431 0.82528 0.66289 0.0
H1049 H 0.89759 0.87803 0.71108 0.0
H1050 H 0.86466 0.87348 0.70623 0.0
H1051 H 0.89553 0.90065 0.69873 0.0
C1052 C 0.79508 0.85025 0.68115 0.0
C1053 C 0.8036 0.87815 0.67934 0.0
C1054 C 0.81425 0.84153 0.68168 0.0
C1055 C 0.84225 0.86054 0.68049 0.0
C1056 C 0.85084 0.88835 0.67858 0.0
H1057 H 0.97886 0.84812 0.65438 0.0
H1058 H 0.93713 0.85081 0.65659 0.0
C1059 C 0.8317 0.89711 0.67806 0.0
C1060 C 0.86247 0.85121 0.68065 0.0
H1061 H 0.92083 0.86172 0.69657 0.0
C1062 C 0.86087 0.83296 0.67035 0.0
C1063 C 0.88367 0.86085 0.69056 0.0
C1064 C 0.88537 0.87912 0.70236 0.0
C1065 C 0.8808 0.82515 0.66928 0.0
C1066 C 0.90303 0.83628 0.67862 0.0
C1067 C 0.90386 0.85343 0.68934 0.0
C1068 C 0.92669 0.83212 0.67686 0.0
C1069 C 0.87804 0.80532 0.65807 0.0
C1070 C 0.93473 0.82094 0.68759 0.0
C1071 C 0.95868 0.81953 0.68637 0.0
C1072 C 0.97493 0.8295 0.67446 0.0
C1073 C 0.96656 0.84016 0.66363 0.0
C1074 C 0.94266 0.84154 0.66485 0.0
H1075 H 0.85636 0.79231 0.65482 0.0
H1076 H 0.88998 0.81699 0.6489 0.0
H1077 H 0.886 0.79185 0.66154 0.0
H1078 H 0.92275 0.81379 0.69699 0.0
H1079 H 0.96483 0.81134 0.69489 0.0
H1080 H 0.12964 0.13117 0.69588 0.0
H1081 H 0.12793 0.08706 0.69504 0.0
H1082 H 0.18319 0.11486 0.66025 0.0
H1083 H 0.18477 0.15914 0.66098 0.0
H1084 H 0.13546 0.06563 0.65562 0.0
H1085 H 0.18243 0.06236 0.70526 0.0
H1086 H 0.15633 0.07139 0.7074 0.0
H1087 H 0.18698 0.09383 0.69795 0.0
C1088 C 0.14183 0.12805 0.68822 0.0
C1089 C 0.15727 0.14841 0.67846 0.0
C1090 C 0.14098 0.10293 0.68781 0.0
C1091 C 0.15567 0.09783 0.67768 0.0
C1092 C 0.17186 0.11851 0.6682 0.0
H1093 H 0.15109 0.94061 0.67613 0.0
H1094 H 0.16731 0.98967 0.67574 0.0
C1095 C 0.17278 0.14374 0.66864 0.0
C1096 C 0.15174 0.07001 0.67619 0.0
H1097 H 0.15359 0.019 0.69419 0.0
C1098 C 0.13981 0.05555 0.66397 0.0
C1099 C 0.15768 0.05702 0.68704 0.0
C1100 C 0.17182 0.07204 0.7001 0.0
C1101 C 0.13246 0.02797 0.66255 0.0
C1102 C 0.1368 0.0145 0.67374 0.0
C1103 C 0.14996 0.02932 0.6857 0.0
C1104 C 0.127 0.98482 0.67342 0.0
C1105 C 0.11985 0.01341 0.64915 0.0
C1106 C 0.09891 0.96589 0.67233 0.0
C1107 C 0.08951 0.9378 0.67255 0.0
C1108 C 0.10805 0.92817 0.67394 0.0
C1109 C 0.13621 0.94727 0.67501 0.0
C1110 C 0.14557 0.97533 0.67481 0.0
H1111 H 0.12502 0.0281 0.64048 0.0
H1112 H 0.12678 -0.0013 0.64648 0.0
H1113 H 0.09723 0.00182 0.65025 0.0
H1114 H 0.08421 0.97284 0.67153 0.0
H1115 H 0.06769 0.9237 0.67177 0.0
H1116 H 0.82769 0.02119 0.69629 0.0
H1117 H 0.8717 0.0641 0.69797 0.0
H1118 H 0.89499 0.04832 0.65805 0.0
H1119 H 0.85116 0.00578 0.65627 0.0
H1120 H 0.92242 0.06786 0.6979 0.0
H1121 H 0.91538 0.12841 0.6548 0.0
H1122 H 0.88572 0.09879 0.66188 0.0
H1123 H 0.90716 0.09467 0.64947 0.0
C1124 C 0.84207 0.02719 0.6878 0.0
C1125 C 0.83611 0.01031 0.67613 0.0
C1126 C 0.86714 0.05163 0.68877 0.0
C1127 C 0.8864 0.05959 0.67803 0.0
C1128 C 0.88017 0.04291 0.66629 0.0
H1129 H 0.05966 0.14672 0.67607 0.0
H1130 H 0.01063 0.11431 0.67712 0.0
C1131 C 0.85521 0.01852 0.66533 0.0
C1132 C 0.914 0.08391 0.67952 0.0
H1133 H 0.96092 0.14176 0.66273 0.0
C1134 C 0.93071 0.08428 0.69035 0.0
C1135 C 0.92467 0.10548 0.66977 0.0
C1136 C 0.90719 0.10702 0.65841 0.0
C1137 C 0.95828 0.10483 0.69122 0.0
C1138 C 0.96945 0.12525 0.68089 0.0
C1139 C 0.95237 0.12582 0.67052 0.0
C1140 C -0.00088 0.1452 0.68022 0.0
C1141 C 0.97534 0.10425 0.70307 0.0
C1142 C 0.00881 0.17339 0.68123 0.0
C1143 C 0.03691 0.19208 0.68057 0.0
C1144 C 0.05576 0.18288 0.67877 0.0
C1145 C 0.04582 0.15459 0.67751 0.0
C1146 C 0.01778 0.13597 0.67821 0.0
H1147 H 0.96237 0.09263 0.71202 0.0
H1148 H 0.98677 0.094 0.69966 0.0
H1149 H 0.99041 0.12529 0.70652 0.0
H1150 H -0.00535 0.18088 0.68266 0.0
H1151 H 0.0438 0.21371 0.68153 0.0
H1152 H 0.81017 0.33991 0.50599 0.0
H1153 H 0.80959 0.38273 0.50802 0.0
H1154 H 0.85407 0.40038 0.54643 0.0
H1155 H 0.85437 0.35709 0.54453 0.0
H1156 H 0.80796 0.40472 0.54836 0.0
H1157 H 0.86843 0.46221 0.50279 0.0
H1158 H 0.84204 0.42832 0.49822 0.0
H1159 H 0.86928 0.43281 0.50956 0.0
C1160 C 0.82021 0.35312 0.51476 0.0
C1161 C 0.83235 0.34531 0.5251 0.0
C1162 C 0.82005 0.37768 0.51585 0.0
C1163 C 0.8322 0.39494 0.52725 0.0
C1164 C 0.84483 0.38743 0.53749 0.0
H1165 H 0.82901 0.54868 0.52913 0.0
H1166 H 0.84544 0.51604 0.53023 0.0
C1167 C 0.84501 0.36279 0.53639 0.0
C1168 C 0.82924 0.41937 0.529 0.0
H1169 H 0.83685 0.47555 0.51183 0.0
C1170 C 0.81471 0.4205 0.54051 0.0
C1171 C 0.8384 0.44013 0.51885 0.0
C1172 C 0.85566 0.44099 0.50674 0.0
C1173 C 0.80767 0.44098 0.54172 0.0
C1174 C 0.81493 0.46044 0.531 0.0
C1175 C 0.8309 0.4603 0.51992 0.0
C1176 C 0.80499 0.48022 0.53074 0.0
C1177 C 0.7922 0.44134 0.55436 0.0
C1178 C 0.77679 0.47081 0.53046 0.0
C1179 C 0.76728 0.48936 0.52984 0.0
C1180 C 0.78584 0.51768 0.52936 0.0
C1181 C 0.81412 0.52701 0.52949 0.0
C1182 C 0.82359 0.50842 0.53014 0.0
H1183 H 0.79581 0.43113 0.56327 0.0
H1184 H 0.79815 0.46261 0.55738 0.0
H1185 H 0.76993 0.43007 0.5521 0.0
H1186 H 0.76211 0.44907 0.53056 0.0
H1187 H 0.74539 0.48145 0.52966 0.0
H1188 H 0.44194 0.27903 0.53393 0.0
H1189 H 0.47509 0.32822 0.5339 0.0
H1190 H 0.54009 0.31144 0.52496 0.0
H1191 H 0.50735 0.26229 0.52496 0.0
H1192 H 0.53914 0.35234 0.55104 0.0
H1193 H 0.52807 0.37149 0.49556 0.0
H1194 H 0.49915 0.34704 0.50567 0.0
H1195 H 0.52513 0.33934 0.50066 0.0
C1196 C 0.46327 0.28575 0.53191 0.0
C1197 C 0.47199 0.26667 0.52945 0.0
C1198 C 0.48211 0.31383 0.53193 0.0
C1199 C 0.50986 0.32322 0.52945 0.0
C1200 C 0.51866 0.30439 0.52692 0.0
H1201 H 0.66121 0.46 0.512 0.0
H1202 H 0.61739 0.41764 0.51358 0.0
C1203 C 0.49991 0.27634 0.52692 0.0
C1204 C 0.53002 0.35273 0.52951 0.0
H1205 H 0.56454 0.40713 0.5079 0.0
C1206 C 0.54448 0.36461 0.54171 0.0
C1207 C 0.5367 0.36834 0.51728 0.0
C1208 C 0.52151 0.35611 0.50399 0.0
C1209 C 0.56658 0.39158 0.54184 0.0
C1210 C 0.57404 0.40694 0.52944 0.0
C1211 C 0.55866 0.39534 0.5174 0.0
C1212 C 0.59981 0.43346 0.52827 0.0
C1213 C 0.58278 0.40283 0.55499 0.0
C1214 C 0.60435 0.45656 0.53591 0.0
C1215 C 0.62961 0.48091 0.53507 0.0
C1216 C 0.65043 0.48238 0.52653 0.0
C1217 C 0.64552 0.45943 0.51868 0.0
C1218 C 0.62047 0.43523 0.51954 0.0
H1219 H 0.5769 0.38678 0.56302 0.0
H1220 H 0.60505 0.41221 0.55291 0.0
H1221 H 0.57909 0.41901 0.55918 0.0
H1222 H 0.58849 0.45568 0.54256 0.0
H1223 H 0.63294 0.49841 0.54119 0.0
H1224 H 0.52286 0.19253 0.50664 0.0
H1225 H 0.56796 0.19636 0.50718 0.0
H1226 H 0.54877 0.15517 0.5466 0.0
H1227 H 0.5036 0.15163 0.54619 0.0
H1228 H 0.59857 0.20317 0.54632 0.0
H1229 H 0.59022 0.13856 0.50139 0.0
H1230 H 0.58124 0.1641 0.49728 0.0
H1231 H 0.56072 0.13739 0.50939 0.0
C1232 C 0.52814 0.18398 0.51533 0.0
C1233 C 0.50982 0.17172 0.52636 0.0
C1234 C 0.55382 0.18603 0.51559 0.0
C1235 C 0.56152 0.17567 0.52682 0.0
C1236 C 0.54309 0.1631 0.53779 0.0
H1237 H 0.7141 0.17166 0.52792 0.0
H1238 H 0.66592 0.15903 0.52877 0.0
C1239 C 0.51735 0.16104 0.53753 0.0
C1240 C 0.58952 0.17978 0.52751 0.0
H1241 H 0.63556 0.16915 0.50967 0.0
C1242 C 0.6066 0.19548 0.5384 0.0
C1243 C 0.59981 0.16946 0.51725 0.0
C1244 C 0.58196 0.1512 0.50574 0.0
C1245 C 0.63404 0.20199 0.53902 0.0
C1246 C 0.64472 0.19294 0.52834 0.0
C1247 C 0.62738 0.17637 0.51774 0.0
C1248 C 0.67394 0.20073 0.52789 0.0
C1249 C 0.65131 0.21848 0.55111 0.0
C1250 C 0.69437 0.22836 0.52691 0.0
C1251 C 0.72195 0.2357 0.52645 0.0
C1252 C 0.72959 0.21549 0.52685 0.0
C1253 C 0.70899 0.18778 0.52762 0.0
C1254 C 0.68142 0.18048 0.52811 0.0
H1255 H 0.63848 0.21713 0.56012 0.0
H1256 H 0.66567 0.21145 0.55434 0.0
H1257 H 0.66354 0.24033 0.54806 0.0
H1258 H 0.68896 0.24425 0.52642 0.0
H1259 H 0.73724 0.25721 0.52576 0.0
H1260 H 0.81006 0.41661 0.6876 0.0
H1261 H 0.77985 0.43544 0.68465 0.0
H1262 H 0.84947 0.5173 0.68475 0.0
H1263 H 0.88008 0.49868 0.68788 0.0
H1264 H 0.80867 0.51144 0.70226 0.0
H1265 H 0.76508 0.46925 0.65097 0.0
H1266 H 0.76266 0.44306 0.66236 0.0
H1267 H 0.79585 0.47063 0.65734 0.0
C1268 C 0.81909 0.43863 0.68689 0.0
C1269 C 0.84755 0.45611 0.68797 0.0
C1270 C 0.80175 0.44934 0.68507 0.0
C1271 C 0.81247 0.47773 0.68419 0.0
C1272 C 0.84084 0.49531 0.68524 0.0
H1273 H 0.68495 0.52268 0.67149 0.0
H1274 H 0.72951 0.52521 0.66848 0.0
C1275 C 0.85827 0.4846 0.68706 0.0
C1276 C 0.79362 0.48879 0.68328 0.0
H1277 H 0.73737 0.48037 0.66586 0.0
C1278 C 0.79345 0.50518 0.69414 0.0
C1279 C 0.77416 0.48114 0.67253 0.0
C1280 C 0.77462 0.4653 0.66006 0.0
C1281 C 0.77291 0.51217 0.69513 0.0
C1282 C 0.75184 0.50214 0.68512 0.0
C1283 C 0.75334 0.48774 0.67364 0.0
C1284 C 0.7264 0.50313 0.68731 0.0
C1285 C 0.77338 0.52941 0.70716 0.0
C1286 C 0.70997 0.48976 0.6988 0.0
C1287 C 0.6847 0.48819 0.70048 0.0
C1288 C 0.67534 0.4999 0.69067 0.0
C1289 C 0.69189 0.51367 0.67924 0.0
C1290 C 0.71724 0.5151 0.67751 0.0
H1291 H 0.79462 0.54299 0.7109 0.0
H1292 H 0.76423 0.54219 0.70434 0.0
H1293 H 0.7614 0.51578 0.71583 0.0
H1294 H 0.71632 0.47977 0.70629 0.0
H1295 H 0.67227 0.47734 0.70935 0.0
H1296 H 0.46473 0.16458 0.68207 0.0
H1297 H 0.46922 0.21013 0.68074 0.0
H1298 H 0.51954 0.23477 0.71736 0.0
H1299 H 0.51487 0.18934 0.71883 0.0
H1300 H 0.48023 0.25214 0.71666 0.0
H1301 H 0.54206 0.27741 0.66845 0.0
H1302 H 0.50904 0.24684 0.66793 0.0
H1303 H 0.53515 0.24844 0.67914 0.0
C1304 C 0.47643 0.17965 0.68992 0.0
C1305 C 0.4896 0.17363 0.70051 0.0
C1306 C 0.47909 0.20563 0.68911 0.0
C1307 C 0.49503 0.22584 0.69885 0.0
C1308 C 0.50721 0.21942 0.70974 0.0
H1309 H 0.58082 0.40081 0.69598 0.0
H1310 H 0.56562 0.35201 0.69707 0.0
C1311 C 0.50457 0.19353 0.71055 0.0
C1312 C 0.50029 0.25414 0.69742 0.0
H1313 H 0.53374 0.31138 0.67741 0.0
C1314 C 0.49172 0.26508 0.70803 0.0
C1315 C 0.5156 0.27095 0.68622 0.0
C1316 C 0.52624 0.26049 0.67482 0.0
C1317 C 0.49834 0.2926 0.70783 0.0
C1318 C 0.51364 0.30938 0.69663 0.0
C1319 C 0.5219 0.29834 0.68593 0.0
C1320 C 0.52245 0.33883 0.69612 0.0
C1321 C 0.48975 0.30374 0.71981 0.0
C1322 C 0.50316 0.34749 0.69514 0.0
C1323 C 0.51174 0.37538 0.69455 0.0
C1324 C 0.53982 0.39509 0.69483 0.0
C1325 C 0.55906 0.38625 0.69575 0.0
C1326 C 0.55044 0.35837 0.69635 0.0
H1327 H 0.48323 0.2898 0.72888 0.0
H1328 H 0.50674 0.32412 0.72301 0.0
H1329 H 0.47225 0.30624 0.71661 0.0
H1330 H 0.48148 0.33266 0.69473 0.0
H1331 H 0.49634 0.38142 0.69379 0.0
H1332 H 0.81698 0.30126 0.68001 0.0
H1333 H 0.77274 0.2584 0.67814 0.0
H1334 H 0.7387 0.28776 0.70915 0.0
H1335 H 0.78248 0.33025 0.71106 0.0
H1336 H 0.72811 0.23166 0.71261 0.0
H1337 H 0.70228 0.25451 0.66053 0.0
H1338 H 0.7352 0.25714 0.66285 0.0
H1339 H 0.72785 0.28092 0.67142 0.0
C1340 C 0.80004 0.29836 0.68647 0.0
C1341 C 0.80298 0.31894 0.69566 0.0
C1342 C 0.77487 0.27404 0.68535 0.0
C1343 C 0.75255 0.27014 0.69346 0.0
C1344 C 0.75574 0.29047 0.70282 0.0
H1345 H 0.5791 0.17454 0.69325 0.0
H1346 H 0.62761 0.20932 0.69208 0.0
C1347 C 0.78071 0.31471 0.70388 0.0
C1348 C 0.72549 0.24523 0.69219 0.0
H1349 H 0.66854 0.21506 0.67181 0.0
C1350 C 0.71516 0.2277 0.70362 0.0
C1351 C 0.70874 0.24051 0.68049 0.0
C1352 C 0.71886 0.25925 0.66811 0.0
C1353 C 0.68812 0.20588 0.70382 0.0
C1354 C 0.67118 0.20148 0.69223 0.0
C1355 C 0.68172 0.21857 0.68065 0.0
C1356 C 0.64196 0.18023 0.69232 0.0
C1357 C 0.67748 0.18845 0.71665 0.0
C1358 C 0.63413 0.15244 0.69267 0.0
C1359 C 0.60648 0.13251 0.69337 0.0
C1360 C 0.58617 0.14006 0.69369 0.0
C1361 C 0.59416 0.16799 0.69309 0.0
C1362 C 0.62185 0.18789 0.69237 0.0
H1363 H 0.6917 0.19753 0.72553 0.0
H1364 H 0.6572 0.18561 0.71961 0.0
H1365 H 0.67486 0.16793 0.71454 0.0
H1366 H 0.64943 0.14619 0.69248 0.0
H1367 H 0.6011 0.1112 0.69374 0.0
H1368 H 0.58286 0.18368 0.17771 0.0
H1369 H 0.56906 0.21833 0.17668 0.0
H1370 H 0.48455 0.15564 0.18165 0.0
H1371 H 0.49804 0.12069 0.18243 0.0
H1372 H 0.49143 0.19192 0.16108 0.0
H1373 H 0.54487 0.24771 0.20868 0.0
H1374 H 0.56713 0.24454 0.19651 0.0
H1375 H 0.53986 0.21434 0.20445 0.0
C1376 C 0.56134 0.17721 0.17868 0.0
C1377 C 0.54159 0.14936 0.18023 0.0
C1378 C 0.5535 0.1971 0.17814 0.0
C1379 C 0.52582 0.18963 0.17931 0.0
C1380 C 0.50604 0.16187 0.18079 0.0
H1381 H 0.47325 0.3079 0.19553 0.0
H1382 H 0.47956 0.26803 0.19617 0.0
C1383 C 0.51382 0.14192 0.18126 0.0
C1384 C 0.51746 0.21072 0.17872 0.0
H1385 H 0.52774 0.26962 0.19405 0.0
C1386 C 0.49922 0.20884 0.16833 0.0
C1387 C 0.52732 0.23254 0.18832 0.0
C1388 C 0.54566 0.23482 0.2002 0.0
C1389 C 0.49105 0.22855 0.1671 0.0
C1390 C 0.50183 0.25099 0.17634 0.0
C1391 C 0.51963 0.25253 0.1869 0.0
C1392 C 0.4952 0.2733 0.17529 0.0
C1393 C 0.47069 0.22492 0.15602 0.0
C1394 C 0.50149 0.28929 0.16327 0.0
C1395 C 0.49764 0.31193 0.16284 0.0
C1396 C 0.48779 0.31914 0.1745 0.0
C1397 C 0.48083 0.30274 0.18639 0.0
C1398 C 0.4845 0.28002 0.18678 0.0
H1399 H 0.45845 0.20321 0.15268 0.0
H1400 H 0.45649 0.23187 0.15966 0.0
H1401 H 0.48188 0.23731 0.14686 0.0
H1402 H 0.51032 0.28488 0.15438 0.0
H1403 H 0.50334 0.32437 0.15358 0.0
H1404 H 0.80838 0.39487 0.17689 0.0
H1405 H 0.77791 0.34562 0.175 0.0
H1406 H 0.84738 0.33396 0.17 0.0
H1407 H 0.87831 0.38342 0.1721 0.0
H1408 H 0.77234 0.30988 0.15335 0.0
H1409 H 0.80491 0.28361 0.20262 0.0
H1410 H 0.81356 0.31821 0.19847 0.0
H1411 H 0.83118 0.30304 0.19013 0.0
C1412 C 0.8173 0.38194 0.17538 0.0
C1413 C 0.84583 0.39312 0.17474 0.0
C1414 C 0.79982 0.35378 0.17426 0.0
C1415 C 0.81043 0.33621 0.17248 0.0
C1416 C 0.83884 0.34721 0.17157 0.0
H1417 H 0.68265 0.16348 0.15937 0.0
H1418 H 0.72683 0.20575 0.15625 0.0
C1419 C 0.85644 0.37547 0.17274 0.0
C1420 C 0.79136 0.30637 0.1719 0.0
H1421 H 0.76758 0.24804 0.19101 0.0
C1422 C 0.77151 0.29616 0.16143 0.0
C1423 C 0.79047 0.28871 0.18249 0.0
C1424 C 0.81101 0.29883 0.19414 0.0
C1425 C 0.74978 0.26907 0.1617 0.0
C1426 C 0.74824 0.2517 0.17262 0.0
C1427 C 0.76898 0.26147 0.18264 0.0
C1428 C 0.72336 0.22491 0.17495 0.0
C1429 C 0.72769 0.25983 0.15084 0.0
C1430 C 0.70739 0.22142 0.1867 0.0
C1431 C 0.68245 0.1974 0.18854 0.0
C1432 C 0.67307 0.17647 0.17864 0.0
C1433 C 0.68947 0.17946 0.16711 0.0
C1434 C 0.71457 0.20356 0.16529 0.0
H1435 H 0.72987 0.27711 0.1444 0.0
H1436 H 0.72881 0.24473 0.14392 0.0
H1437 H 0.70711 0.2497 0.15572 0.0
H1438 H 0.71384 0.23769 0.19426 0.0
H1439 H 0.6702 0.19553 0.19754 0.0
H1440 H 0.8154 0.51496 0.16293 0.0
H1441 H 0.77149 0.51416 0.16103 0.0
H1442 H 0.74015 0.45886 0.19571 0.0
H1443 H 0.78366 0.4597 0.1977 0.0
H1444 H 0.71965 0.46701 0.15659 0.0
H1445 H 0.72162 0.51857 0.20562 0.0
H1446 H 0.75203 0.52101 0.19804 0.0
H1447 H 0.72901 0.49136 0.20799 0.0
C1448 C 0.79919 0.50296 0.17023 0.0
C1449 C 0.80283 0.48749 0.1805 0.0
C1450 C 0.77421 0.50248 0.16913 0.0
C1451 C 0.75282 0.4868 0.17838 0.0
C1452 C 0.75661 0.47155 0.18867 0.0
H1453 H 0.5788 0.40722 0.17362 0.0
H1454 H 0.62732 0.42098 0.17335 0.0
C1455 C 0.78141 0.47193 0.18974 0.0
C1456 C 0.72579 0.48474 0.1769 0.0
H1457 H 0.67746 0.49096 0.19515 0.0
C1458 C 0.71053 0.47264 0.16491 0.0
C1459 C 0.71413 0.49238 0.18772 0.0
C1460 C 0.73015 0.50681 0.20051 0.0
C1461 C 0.68332 0.46667 0.16375 0.0
C1462 C 0.67107 0.47263 0.17497 0.0
C1463 C 0.6868 0.48605 0.18665 0.0
C1464 C 0.64174 0.46438 0.17498 0.0
C1465 C 0.66785 0.45382 0.15059 0.0
C1466 C 0.63382 0.48418 0.1764 0.0
C1467 C 0.60613 0.47639 0.17668 0.0
C1468 C 0.58584 0.44861 0.17564 0.0
C1469 C 0.59387 0.42879 0.1744 0.0
C1470 C 0.62159 0.43662 0.17413 0.0
H1471 H 0.68198 0.45792 0.14176 0.0
H1472 H 0.65547 0.43131 0.15199 0.0
H1473 H 0.65376 0.46155 0.14796 0.0
H1474 H 0.6491 0.50569 0.17719 0.0
H1475 H 0.60069 0.49221 0.17765 0.0
H1476 H 0.63065 0.13713 0.98949 0.0
H1477 H 0.59014 0.14248 0.98854 0.0
H1478 H 0.60835 0.17776 0.02941 0.0
H1479 H 0.64836 0.17177 0.03056 0.0
H1480 H 0.55315 0.14331 0.02529 0.0
H1481 H 0.59927 0.21796 0.98225 0.0
H1482 H 0.59507 0.1848 0.97876 0.0
H1483 H 0.6184 0.20595 0.99203 0.0
C1484 C 0.62572 0.14563 0.99834 0.0
C1485 C 0.6427 0.15435 1.01003 0.0
C1486 C 0.60273 0.14883 0.99775 0.0
C1487 C 0.59667 0.16111 1.00877 0.0
C1488 C 0.61279 0.16841 0.02076 0.0
H1489 H 0.51171 0.25147 1.00938 0.0
H1490 H 0.54437 0.23508 1.00938 0.0
C1491 C 0.63563 0.16502 0.0214 0.0
C1492 C 0.57456 0.16786 1.0076 0.0
H1493 H 0.55516 0.20729 0.98954 0.0
C1494 C 0.55345 0.15716 1.01744 0.0
C1495 C 0.57533 0.1863 0.99747 0.0
C1496 C 0.59834 0.19965 0.98709 0.0
C1497 C 0.53314 0.1646 1.01748 0.0
C1498 C 0.53373 0.18276 1.00722 0.0
C1499 C 0.55469 0.19322 0.99732 0.0
C1500 C 0.51366 0.19235 1.007 0.0
C1501 C 0.51185 0.15373 0.02878 0.0
C1502 C 0.48561 0.17378 1.00543 0.0
C1503 C 0.46682 0.18305 1.00551 0.0
C1504 C 0.47583 0.21113 1.007 0.0
C1505 C 0.50404 0.22973 1.00822 0.0
C1506 C 0.52276 0.2204 1.00823 0.0
H1507 H 0.5182 0.14567 0.03764 0.0
H1508 H 0.5078 0.16993 0.03263 0.0
H1509 H 0.49242 0.13674 0.02462 0.0
H1510 H 0.47823 0.15211 1.00414 0.0
H1511 H 0.44526 0.16819 1.00441 0.0
H1512 H 0.72976 0.2465 1.00844 0.0
H1513 H 0.74213 0.29464 1.00798 0.0
H1514 H 0.82662 0.31875 1.01537 0.0
H1515 H 0.81461 0.27069 1.0156 0.0
H1516 H 0.76587 0.33385 0.02827 0.0
H1517 H 0.83162 0.36392 0.98149 0.0
H1518 H 0.80908 0.32862 0.98622 0.0
H1519 H 0.84146 0.34837 0.9948 0.0
C1520 C 0.75101 0.262 1.00991 0.0
C1521 C 0.77122 0.25471 1.01195 0.0
C1522 C 0.75802 0.28951 1.00966 0.0
C1523 C 0.78534 0.31025 1.01143 0.0
C1524 C 0.80551 0.30308 1.01368 0.0
H1525 H 0.83278 0.48041 0.02966 0.0
H1526 H 0.8265 0.43416 0.03079 0.0
C1527 C 0.79856 0.27557 1.01387 0.0
C1528 C 0.79253 0.33936 1.01116 0.0
H1529 H 0.8306 0.39963 0.9939 0.0
C1530 C 0.78004 0.34827 0.02078 0.0
C1531 C 0.81083 0.358 1.00127 0.0
C1532 C 0.82386 0.34926 0.99027 0.0
C1533 C 0.7853 0.37535 0.02076 0.0
C1534 C 0.804 0.39414 1.01104 0.0
C1535 C 0.81651 0.38523 1.00143 0.0
C1536 C 0.80965 0.42272 1.01018 0.0
C1537 C 0.77016 0.38337 0.03089 0.0
C1538 C 0.80327 0.43193 0.99804 0.0
C1539 C 0.80712 0.45835 0.99733 0.0
C1540 C 0.81745 0.476 1.00874 0.0
C1541 C 0.82465 0.46711 0.02075 0.0
C1542 C 0.82091 0.44068 0.02143 0.0
H1543 H 0.75192 0.36518 0.03527 0.0
H1544 H 0.78401 0.39492 0.03956 0.0
H1545 H 0.76341 0.39672 0.02589 0.0
H1546 H 0.79467 0.41843 0.98922 0.0
H1547 H 0.80143 0.46474 0.98795 0.0
H1548 H 0.52696 0.3418 0.98931 0.0
H1549 H 0.57015 0.38442 0.99244 0.0
H1550 H 0.53898 0.40111 0.02969 0.0
H1551 H 0.49552 0.35791 0.0267 0.0
H1552 H 0.58276 0.43889 0.9947 0.0
H1553 H 0.60884 0.4017 0.04247 0.0
H1554 H 0.58122 0.37907 0.03121 0.0
H1555 H 0.5771 0.40198 0.04253 0.0
C1556 C 0.52919 0.35466 0.9981 0.0
C1557 C 0.50806 0.34659 1.00781 0.0
C1558 C 0.55383 0.37903 0.99986 0.0
C1559 C 0.55785 0.39572 1.01137 0.0
C1560 C 0.53637 0.38827 0.02083 0.0
H1561 H 0.71563 0.55027 1.01459 0.0
H1562 H 0.66637 0.51821 1.01574 0.0
C1563 C 0.51158 0.36376 1.01908 0.0
C1564 C 0.58517 0.42005 1.01357 0.0
H1565 H 0.64264 0.44368 0.03338 0.0
C1566 C 0.59578 0.44025 1.00327 0.0
C1567 C 0.60206 0.42149 0.02471 0.0
C1568 C 0.59193 0.39987 0.03584 0.0
C1569 C 0.62323 0.46127 1.00347 0.0
C1570 C 0.64032 0.4623 1.01442 0.0
C1571 C 0.6294 0.44278 0.02503 0.0
C1572 C 0.67011 0.48193 1.0144 0.0
C1573 C 0.63408 0.48126 0.99159 0.0
C1574 C 0.68853 0.47211 1.01362 0.0
C1575 C 0.71668 0.49032 1.01305 0.0
C1576 C 0.72694 0.51873 1.01325 0.0
C1577 C 0.70842 0.52851 1.01427 0.0
C1578 C 0.68024 0.51024 1.0149 0.0
H1579 H 0.61968 0.47434 0.98271 0.0
H1580 H 0.63726 0.50139 0.99507 0.0
H1581 H 0.65408 0.48423 0.98798 0.0
H1582 H 0.68107 0.4503 1.01323 0.0
H1583 H 0.73033 0.48207 1.01232 0.0
H1584 H 0.40859 0.81096 0.86795 0.0
H1585 H 0.42408 0.77767 0.86924 0.0
H1586 H 0.50796 0.84273 0.86572 0.0
H1587 H 0.49274 0.87639 0.8646 0.0
H1588 H 0.45365 0.76785 0.84954 0.0
H1589 H 0.50975 0.79942 0.89944 0.0
H1590 H 0.48606 0.81038 0.89413 0.0
H1591 H 0.51994 0.82635 0.88694 0.0
C1592 C 0.43036 0.8183 0.86749 0.0
C1593 C 0.44941 0.8464 0.86619 0.0
C1594 C 0.43917 0.79921 0.86825 0.0
C1595 C 0.46717 0.80778 0.86777 0.0
C1596 C 0.48628 0.83576 0.8664 0.0
H1597 H 0.52505 0.6946 0.84855 0.0
H1598 H 0.52047 0.7355 0.84969 0.0
C1599 C 0.4775 0.85493 0.86566 0.0
C1600 C 0.47606 0.78715 0.86809 0.0
H1601 H 0.51256 0.7649 0.88678 0.0
C1602 C 0.46659 0.76724 0.85766 0.0
C1603 C 0.49274 0.78632 0.87878 0.0
C1604 C 0.50257 0.80659 0.89054 0.0
C1605 C 0.47325 0.74642 0.85761 0.0
C1606 C 0.4903 0.74581 0.86816 0.0
C1607 C 0.49978 0.76568 0.87863 0.0
C1608 C 0.49725 0.72378 0.86873 0.0
C1609 C 0.46133 0.72478 0.84648 0.0
C1610 C 0.48703 0.7045 0.87947 0.0
C1611 C 0.4898 0.68123 0.8789 0.0
C1612 C 0.50283 0.67702 0.86757 0.0
C1613 C 0.51472 0.6973 0.85734 0.0
C1614 C 0.51203 0.72057 0.85794 0.0
H1615 H 0.44391 0.7247 0.84109 0.0
H1616 H 0.47737 0.72888 0.83869 0.0
H1617 H 0.45415 0.7041 0.85087 0.0
H1618 H 0.47569 0.70673 0.88792 0.0
H1619 H 0.48059 0.66594 0.88695 0.0
H1620 H 0.10904 0.60777 0.87123 0.0
H1621 H 0.14365 0.65598 0.87415 0.0
H1622 H 0.20751 0.63633 0.86763 0.0
H1623 H 0.17322 0.58807 0.86492 0.0
H1624 H 0.21781 0.67259 0.88967 0.0
H1625 H 0.18758 0.70555 0.84184 0.0
H1626 H 0.16085 0.68751 0.85431 0.0
H1627 H 0.17584 0.67005 0.84561 0.0
C1628 C 0.13044 0.61365 0.87043 0.0
C1629 C 0.13834 0.59404 0.86772 0.0
C1630 C 0.15016 0.64123 0.87208 0.0
C1631 C 0.17806 0.6497 0.87092 0.0
C1632 C 0.18603 0.63015 0.86854 0.0
H1633 H 0.32099 0.794 0.84823 0.0
H1634 H 0.27863 0.75032 0.85083 0.0
C1635 C 0.16638 0.60258 0.86695 0.0
C1636 C 0.19913 0.67899 0.87176 0.0
H1637 H 0.22466 0.73953 0.85441 0.0
C1638 C 0.2192 0.68737 0.88208 0.0
C1639 C 0.20081 0.69806 0.86177 0.0
C1640 C 0.18029 0.68992 0.85018 0.0
C1641 C 0.24153 0.71417 0.8824 0.0
C1642 C 0.24349 0.73307 0.87224 0.0
C1643 C 0.22289 0.72496 0.86223 0.0
C1644 C 0.26835 0.7602 0.87075 0.0
C1645 C 0.26354 0.72167 0.89315 0.0
C1646 C 0.27639 0.78035 0.88104 0.0
C1647 C 0.30073 0.80539 0.87958 0.0
C1648 C 0.31714 0.8105 0.8678 0.0
C1649 C 0.30871 0.79053 0.85742 0.0
C1650 C 0.28451 0.76562 0.85888 0.0
H1651 H 0.26106 0.70344 0.89882 0.0
H1652 H 0.28412 0.73223 0.88827 0.0
H1653 H 0.26265 0.73593 0.90075 0.0
H1654 H 0.26395 0.77663 0.89019 0.0
H1655 H 0.30685 0.82056 0.88771 0.0
H1656 H 0.38069 0.50589 0.86398 0.0
H1657 H 0.33307 0.49495 0.86404 0.0
H1658 H 0.35906 0.58096 0.86232 0.0
H1659 H 0.40701 0.59228 0.86241 0.0
H1660 H 0.31654 0.55063 0.88157 0.0
H1661 H 0.29363 0.50155 0.82979 0.0
H1662 H 0.30804 0.48801 0.84184 0.0
H1663 H 0.32814 0.52284 0.83605 0.0
C1664 C 0.3764 0.52257 0.86362 0.0
C1665 C 0.39772 0.55 0.86305 0.0
C1666 C 0.34912 0.51622 0.86361 0.0
C1667 C 0.34262 0.53712 0.86295 0.0
C1668 C 0.36375 0.56454 0.86276 0.0
H1669 H 0.19141 0.5284 0.84026 0.0
H1670 H 0.23782 0.53567 0.84187 0.0
C1671 C 0.39111 0.57096 0.86279 0.0
C1672 C 0.31371 0.5303 0.86231 0.0
H1673 H 0.25608 0.49795 0.8425 0.0
C1674 C 0.30327 0.5391 0.87305 0.0
C1675 C 0.29663 0.51548 0.85109 0.0
C1676 C 0.30717 0.5066 0.83896 0.0
C1677 C 0.27602 0.53335 0.87291 0.0
C1678 C 0.2588 0.51807 0.86182 0.0
C1679 C 0.2693 0.50937 0.85106 0.0
C1680 C 0.2303 0.51239 0.86073 0.0
C1681 C 0.26609 0.54427 0.88442 0.0
C1682 C 0.21057 0.49636 0.87066 0.0
C1683 C 0.18399 0.49216 0.86976 0.0
C1684 C 0.17687 0.50386 0.85888 0.0
C1685 C 0.19642 0.51917 0.84875 0.0
C1686 C 0.2229 0.52335 0.84966 0.0
H1687 H 0.28333 0.56045 0.89047 0.0
H1688 H 0.25358 0.55281 0.88025 0.0
H1689 H 0.25303 0.52729 0.89156 0.0
H1690 H 0.21581 0.48733 0.87914 0.0
H1691 H 0.16923 0.48026 0.87768 0.0
H1692 H 0.47695 0.73069 0.03135 0.0
H1693 H 0.44303 0.74552 0.03079 0.0
H1694 H 0.50703 0.82878 0.0237 0.0
H1695 H 0.54122 0.81433 0.02439 0.0
H1696 H 0.47005 0.82364 0.04427 0.0
H1697 H 0.4163 0.76845 0.99657 0.0
H1698 H 0.41934 0.74689 1.00924 0.0
H1699 H 0.44965 0.774 1.00132 0.0
C1700 C 0.48388 0.75216 0.02964 0.0
C1701 C 0.51183 0.77129 0.02786 0.0
C1702 C 0.46442 0.76055 0.02923 0.0
C1703 C 0.47253 0.78814 0.02696 0.0
C1704 C 0.50038 0.80735 0.02536 0.0
H1705 H 0.35185 0.83954 1.01124 0.0
H1706 H 0.39301 0.83529 1.0095 0.0
C1707 C 0.51987 0.799 0.02575 0.0
C1708 C 0.45196 0.79707 0.02672 0.0
H1709 H 0.39356 0.78594 1.01054 0.0
C1710 C 0.45347 0.81564 0.03681 0.0
C1711 C 0.43067 0.78695 1.01683 0.0
C1712 C 0.42897 0.76818 1.00528 0.0
C1713 C 0.4335 0.82345 0.03765 0.0
C1714 C 0.41134 0.81208 0.02826 0.0
C1715 C 0.41049 0.79445 1.0178 0.0
C1716 C 0.3879 0.81675 0.02966 0.0
C1717 C 0.43617 0.84362 0.04864 0.0
C1718 C 0.37152 0.80772 0.04155 0.0
C1719 C 0.34814 0.81009 0.04255 0.0
C1720 C 0.3407 0.82143 0.03164 0.0
C1721 C 0.3573 0.83087 0.01982 0.0
C1722 C 0.38071 0.82841 1.0188 0.0
H1723 H 0.45773 0.85637 0.05213 0.0
H1724 H 0.42876 0.85733 0.04484 0.0
H1725 H 0.42365 0.83225 0.05773 0.0
H1726 H 0.3764 0.79813 0.04991 0.0
H1727 H 0.33557 0.80251 0.05174 0.0
H1728 H 0.24764 0.73101 0.03112 0.0
H1729 H 0.23051 0.68182 0.03045 0.0
H1730 H 0.14777 0.66636 0.02695 0.0
H1731 H 0.16461 0.71561 0.02774 0.0
H1732 H 0.15405 0.63354 0.04665 0.0
H1733 H 0.20064 0.63151 0.99658 0.0
H1734 H 0.22486 0.65609 1.00849 0.0
H1735 H 0.1973 0.66032 1.00206 0.0
C1736 C 0.22579 0.71723 0.03017 0.0
C1737 C 0.20753 0.72732 0.02943 0.0
C1738 C 0.21606 0.68911 0.0297 0.0
C1739 C 0.18794 0.67053 0.02841 0.0
C1740 C 0.16958 0.68043 0.02784 0.0
H1741 H 0.13439 0.4979 1.01259 0.0
H1742 H 0.13717 0.54269 1.01134 0.0
C1743 C 0.17928 0.70858 0.02829 0.0
C1744 C 0.17777 0.64074 0.02808 0.0
H1745 H 0.18518 0.59196 1.01098 0.0
C1746 C 0.16054 0.62434 0.03876 0.0
C1747 C 0.18586 0.62872 1.01764 0.0
C1748 C 0.20296 0.645 1.00546 0.0
C1749 C 0.15234 0.59643 0.03966 0.0
C1750 C 0.16197 0.58485 0.02973 0.0
C1751 C 0.17802 0.60095 1.01866 0.0
C1752 C 0.15737 0.55672 0.03112 0.0
C1753 C 0.13368 0.5797 0.05131 0.0
C1754 C 0.16766 0.54977 0.04266 0.0
C1755 C 0.16608 0.52432 0.04339 0.0
C1756 C 0.15434 0.50545 0.03254 0.0
C1757 C 0.14341 0.51208 0.02112 0.0
C1758 C 0.14502 0.53761 0.0204 0.0
H1759 H 0.12136 0.58873 0.05516 0.0
H1760 H 0.11956 0.55827 0.04802 0.0
H1761 H 0.14625 0.57933 0.06003 0.0
H1762 H 0.17784 0.56444 0.0509 0.0
H1763 H 0.17481 0.51974 0.05226 0.0
H1764 H 0.24844 0.50805 0.021 0.0
H1765 H 0.29725 0.5418 1.01957 0.0
H1766 H 0.31688 0.4816 0.03456 0.0
H1767 H 0.2682 0.44747 0.03538 0.0
H1768 H 0.33414 0.56333 0.03842 0.0
H1769 H 0.36707 0.50946 1.00229 0.0
H1770 H 0.33146 0.49799 1.00556 0.0
H1771 H 0.3506 0.48892 1.01719 0.0
C1772 C 0.26319 0.50201 0.02395 0.0
C1773 C 0.25455 0.47511 0.02824 0.0
C1774 C 0.29108 0.52127 0.02308 0.0
C1775 C 0.31082 0.51409 0.02664 0.0
C1776 C 0.30214 0.48739 0.03127 0.0
H1777 H 0.47377 0.63403 0.05225 0.0
H1778 H 0.427 0.5955 0.05056 0.0
C1779 C 0.27428 0.46798 0.03189 0.0
C1780 C 0.34038 0.53495 0.02622 0.0
H1781 H 0.40285 0.54699 1.01491 0.0
C1782 C 0.34909 0.5598 0.03317 0.0
C1783 C 0.3599 0.53063 1.01914 0.0
C1784 C 0.35173 0.50542 1.0105 0.0
C1785 C 0.37675 0.58015 0.03353 0.0
C1786 C 0.39648 0.57507 0.02726 0.0
C1787 C 0.38777 0.55059 0.01996 0.0
C1788 C 0.42616 0.59513 0.0282 0.0
C1789 C 0.3844 0.60707 0.04043 0.0
C1790 C 0.44193 0.6062 1.01619 0.0
C1791 C 0.46901 0.62772 1.01716 0.0
C1792 C 0.48041 0.63849 0.03014 0.0
C1793 C 0.46525 0.62618 0.04212 0.0
C1794 C 0.43849 0.60438 0.04117 0.0
H1795 H 0.36686 0.61082 0.04065 0.0
H1796 H 0.39048 0.60658 0.05128 0.0
H1797 H 0.40178 0.6245 0.03506 0.0
H1798 H 0.43289 0.59914 1.00608 0.0
H1799 H 0.48037 0.637 1.00777 0.0
H1800 H 0.25587 0.5137 0.50873 0.0
H1801 H 0.24344 0.54932 0.50661 0.0
H1802 H 0.15927 0.48763 0.49947 0.0
H1803 H 0.1713 0.45185 0.5018 0.0
H1804 H 0.21813 0.56239 0.48521 0.0
H1805 H 0.15496 0.5296 0.53303 0.0
H1806 H 0.17812 0.51746 0.52858 0.0
H1807 H 0.14545 0.50343 0.52016 0.0
C1808 C 0.23473 0.50769 0.50665 0.0
C1809 C 0.21452 0.47992 0.50562 0.0
C1810 C 0.22769 0.52807 0.50541 0.0
C1811 C 0.20038 0.52102 0.50311 0.0
C1812 C 0.18036 0.49342 0.50152 0.0
H1813 H 0.15448 0.64693 0.4876 0.0
H1814 H 0.15817 0.60552 0.48496 0.0
C1815 C 0.18732 0.47302 0.50284 0.0
C1816 C 0.19277 0.54256 0.50291 0.0
H1817 H 0.15673 0.56642 0.52069 0.0
C1818 C 0.20456 0.56324 0.49289 0.0
C1819 C 0.17519 0.54357 0.51303 0.0
C1820 C 0.16284 0.52249 0.52439 0.0
C1821 C 0.19962 0.58527 0.49286 0.0
C1822 C 0.18215 0.58632 0.50302 0.0
C1823 C 0.16991 0.56533 0.51285 0.0
C1824 C 0.17857 0.6104 0.50457 0.0
C1825 C 0.21402 0.60782 0.48236 0.0
C1826 C 0.18813 0.62626 0.5166 0.0
C1827 C 0.18589 0.6496 0.51816 0.0
C1828 C 0.17395 0.65743 0.50772 0.0
C1829 C 0.16379 0.64125 0.49578 0.0
C1830 C 0.16604 0.61779 0.49423 0.0
H1831 H 0.23049 0.6063 0.47685 0.0
H1832 H 0.19896 0.60652 0.47459 0.0
H1833 H 0.22309 0.62821 0.4874 0.0
H1834 H 0.19781 0.62084 0.5247 0.0
H1835 H 0.19387 0.66173 0.52746 0.0
H1836 H 0.5453 0.71342 0.50567 0.0
H1837 H 0.51121 0.66476 0.50468 0.0
H1838 H 0.44654 0.68435 0.50675 0.0
H1839 H 0.48045 0.73312 0.50744 0.0
H1840 H 0.47356 0.63458 0.52389 0.0
H1841 H 0.42165 0.63098 0.4748 0.0
H1842 H 0.4541 0.66003 0.47969 0.0
H1843 H 0.42263 0.65615 0.48648 0.0
C1844 C 0.52382 0.70744 0.5058 0.0
C1845 C 0.51559 0.72718 0.50662 0.0
C1846 C 0.50438 0.6796 0.50522 0.0
C1847 C 0.47636 0.67097 0.50543 0.0
C1848 C 0.46806 0.6906 0.50622 0.0
H1849 H 0.33952 0.52312 0.53351 0.0
H1850 H 0.38122 0.56739 0.53076 0.0
C1851 C 0.48749 0.71848 0.50671 0.0
C1852 C 0.45583 0.6414 0.50567 0.0
H1853 H 0.39737 0.59268 0.49009 0.0
C1854 C 0.4571 0.62532 0.51639 0.0
C1855 C 0.43468 0.62922 0.49574 0.0
C1856 C 0.43331 0.64493 0.48345 0.0
C1857 C 0.43702 0.59768 0.51783 0.0
C1858 C 0.41483 0.58604 0.50846 0.0
C1859 C 0.41427 0.60174 0.49735 0.0
C1860 C 0.39103 0.55829 0.51052 0.0
C1861 C 0.4397 0.58129 0.52942 0.0
C1862 C 0.38253 0.53858 0.49998 0.0
C1863 C 0.35853 0.5133 0.5015 0.0
C1864 C 0.34268 0.50753 0.51353 0.0
C1865 C 0.35152 0.52701 0.52418 0.0
C1866 C 0.37542 0.55224 0.52265 0.0
H1867 H 0.46142 0.58988 0.53256 0.0
H1868 H 0.4282 0.58205 0.53855 0.0
H1869 H 0.43129 0.55953 0.52642 0.0
H1870 H 0.3942 0.54296 0.4905 0.0
H1871 H 0.35201 0.49862 0.49311 0.0
H1872 H 0.49158 0.84422 0.4887 0.0
H1873 H 0.44901 0.84588 0.48691 0.0
H1874 H 0.42695 0.81355 0.52826 0.0
H1875 H 0.46951 0.81243 0.53018 0.0
H1876 H 0.39795 0.80278 0.48808 0.0
H1877 H 0.41039 0.87527 0.5296 0.0
H1878 H 0.43875 0.87231 0.523 0.0
H1879 H 0.41636 0.84887 0.53597 0.0
C1880 C 0.47778 0.8379 0.49746 0.0
C1881 C 0.48372 0.82825 0.50958 0.0
C1882 C 0.45355 0.83887 0.49644 0.0
C1883 C 0.43508 0.83033 0.50755 0.0
C1884 C 0.44126 0.82099 0.51971 0.0
H1885 H 0.26289 0.74897 0.51078 0.0
H1886 H 0.3116 0.76468 0.509 0.0
C1887 C 0.46545 0.82011 0.52075 0.0
C1888 C 0.40813 0.82854 0.5061 0.0
H1889 H 0.36363 0.84292 0.52292 0.0
C1890 C 0.39062 0.812 0.49554 0.0
C1891 C 0.39872 0.84096 0.51567 0.0
C1892 C 0.41719 0.86059 0.5266 0.0
C1893 C 0.36339 0.80608 0.49485 0.0
C1894 C 0.35332 0.81651 0.50517 0.0
C1895 C 0.37129 0.83454 0.51517 0.0
C1896 C 0.32385 0.8074 0.50631 0.0
C1897 C 0.34553 0.78828 0.48322 0.0
C1898 C 0.3147 0.82637 0.50589 0.0
C1899 C 0.28678 0.81749 0.50705 0.0
C1900 C 0.26761 0.78948 0.5087 0.0
C1901 C 0.27701 0.77065 0.50939 0.0
C1902 C 0.30485 0.77956 0.50827 0.0
H1903 H 0.35795 0.78955 0.47404 0.0
H1904 H 0.33438 0.76662 0.48669 0.0
H1905 H 0.33026 0.79419 0.4801 0.0
H1906 H 0.32913 0.84799 0.50453 0.0
H1907 H 0.28024 0.83254 0.50651 0.0
H1908 H 0.17586 0.58343 0.3407 0.0
H1909 H 0.20967 0.56852 0.34044 0.0
H1910 H 0.1464 0.48586 0.34951 0.0
H1911 H 0.11223 0.50043 0.34957 0.0
H1912 H 0.22377 0.5448 0.3614 0.0
H1913 H 0.18417 0.47579 0.31584 0.0
H1914 H 0.17328 0.50008 0.31999 0.0
H1915 H 0.15957 0.46839 0.32934 0.0
C1916 C 0.16902 0.56204 0.34259 0.0
C1917 C 0.14125 0.54312 0.3451 0.0
C1918 C 0.18842 0.55356 0.34245 0.0
C1919 C 0.18049 0.52603 0.34478 0.0
C1920 C 0.15287 0.5071 0.34741 0.0
H1921 H 0.30274 0.47727 0.36265 0.0
H1922 H 0.26214 0.48248 0.36408 0.0
C1923 C 0.13339 0.51553 0.34751 0.0
C1924 C 0.20139 0.51744 0.34471 0.0
H1925 H 0.22132 0.47711 0.32783 0.0
C1926 C 0.2232 0.52991 0.3541 0.0
C1927 C 0.20065 0.49817 0.33511 0.0
C1928 C 0.17832 0.48496 0.3244 0.0
C1929 C 0.24452 0.52391 0.35405 0.0
C1930 C 0.24369 0.50448 0.34452 0.0
C1931 C 0.22173 0.49178 0.33522 0.0
C1932 C 0.26645 0.49862 0.34337 0.0
C1933 C 0.26823 0.53919 0.36385 0.0
C1934 C 0.28157 0.50483 0.33106 0.0
C1935 C 0.30451 0.50161 0.33019 0.0
C1936 C 0.31267 0.49208 0.3416 0.0
C1937 C 0.2969 0.48477 0.35373 0.0
C1938 C 0.27386 0.48791 0.35458 0.0
H1939 H 0.26872 0.55764 0.36823 0.0
H1940 H 0.26628 0.52553 0.37256 0.0
H1941 H 0.28803 0.54564 0.35858 0.0
H1942 H 0.27614 0.51302 0.32227 0.0
H1943 H 0.31631 0.50735 0.32071 0.0
H1944 H 0.48654 0.60315 0.34812 0.0
H1945 H 0.50078 0.65162 0.34981 0.0
H1946 H 0.41629 0.63148 0.34881 0.0
H1947 H 0.40171 0.58279 0.34732 0.0
H1948 H 0.49139 0.68199 0.33095 0.0
H1949 H 0.44665 0.68379 0.38163 0.0
H1950 H 0.45061 0.65538 0.37608 0.0
H1951 H 0.42213 0.65853 0.37008 0.0
C1952 C 0.4709 0.60893 0.34835 0.0
C1953 C 0.44294 0.58904 0.34757 0.0
C1954 C 0.47913 0.63667 0.34934 0.0
C1955 C 0.4596 0.64508 0.34965 0.0
C1956 C 0.43167 0.62534 0.34891 0.0
H1957 H 0.46321 0.79009 0.32486 0.0
H1958 H 0.46127 0.7461 0.32735 0.0
C1959 C 0.42339 0.59754 0.34794 0.0
C1960 C 0.46848 0.6746 0.34983 0.0
H1961 H 0.45994 0.72274 0.36692 0.0
C1962 C 0.48482 0.691 0.33891 0.0
C1963 C 0.46032 0.6864 0.36037 0.0
C1964 C 0.44419 0.67019 0.37278 0.0
C1965 C 0.49202 0.71858 0.33786 0.0
C1966 C 0.48229 0.72986 0.34788 0.0
C1967 C 0.46718 0.71391 0.3592 0.0
C1968 C 0.48535 0.75727 0.3461 0.0
C1969 C 0.50959 0.73529 0.3259 0.0
C1970 C 0.49936 0.77802 0.35592 0.0
C1971 C 0.50054 0.8033 0.3545 0.0
C1972 C 0.4874 0.80785 0.34335 0.0
C1973 C 0.47364 0.78712 0.33351 0.0
C1974 C 0.47262 0.76205 0.33488 0.0
H1975 H 0.52195 0.7266 0.32169 0.0
H1976 H 0.4962 0.73524 0.31749 0.0
H1977 H 0.52361 0.75686 0.32902 0.0
H1978 H 0.50909 0.77455 0.36472 0.0
H1979 H 0.51106 0.81894 0.36228 0.0
H1980 H 0.17016 0.68049 0.36541 0.0
H1981 H 0.21476 0.72267 0.36633 0.0
H1982 H 0.2179 0.72488 0.32174 0.0
H1983 H 0.17427 0.68198 0.32087 0.0
H1984 H 0.26128 0.72728 0.33124 0.0
H1985 H 0.2456 0.80265 0.36042 0.0
H1986 H 0.23357 0.77139 0.36989 0.0
H1987 H 0.21739 0.77123 0.35382 0.0
C1988 C 0.18018 0.69043 0.35584 0.0
C1989 C 0.16911 0.67809 0.34307 0.0
C1990 C 0.20554 0.71463 0.35636 0.0
C1991 C 0.21965 0.72712 0.34409 0.0
C1992 C 0.20747 0.71561 0.33133 0.0
H1993 H 0.37947 0.87671 0.33947 0.0
H1994 H 0.33019 0.84388 0.33897 0.0
C1995 C 0.18258 0.69114 0.33083 0.0
C1996 C 0.24852 0.74969 0.34444 0.0
H1997 H 0.29218 0.81218 0.35855 0.0
C1998 C 0.26789 0.74599 0.33708 0.0
C1999 C 0.25723 0.7742 0.35196 0.0
C2000 C 0.23728 0.78024 0.35935 0.0
C2001 C 0.29569 0.76579 0.3372 0.0
C2002 C 0.30462 0.78954 0.34537 0.0
C2003 C 0.28529 0.7937 0.35247 0.0
C2004 C 0.33405 0.80999 0.34672 0.0
C2005 C 0.31513 0.7611 0.32843 0.0
C2006 C 0.35238 0.80195 0.3516 0.0
C2007 C 0.38044 0.82043 0.35168 0.0
C2008 C 0.39066 0.8475 0.34717 0.0
C2009 C 0.37218 0.85593 0.34295 0.0
C2010 C 0.34405 0.83726 0.34268 0.0
H2011 H 0.3043 0.74687 0.31974 0.0
H2012 H 0.33174 0.78063 0.32411 0.0
H2013 H 0.32454 0.75174 0.33488 0.0
H2014 H 0.34499 0.78119 0.35512 0.0
H2015 H 0.39412 0.81346 0.35524 0.0
H2016 H 0.18703 0.33542 0.16748 0.0
H2017 H 0.23572 0.3607 0.16119 0.0
H2018 H 0.25707 0.34999 0.20262 0.0
H2019 H 0.20875 0.32565 0.20901 0.0
H2020 H 0.29324 0.3999 0.19229 0.0
H2021 H 0.27462 0.3177 0.15464 0.0
H2022 H 0.25617 0.33545 0.15147 0.0
H2023 H 0.24879 0.31459 0.16666 0.0
C2024 C 0.20224 0.33909 0.17528 0.0
C2025 C 0.19428 0.32843 0.18867 0.0
C2026 C 0.22996 0.35328 0.17167 0.0
C2027 C 0.24991 0.35658 0.18135 0.0
C2028 C 0.24198 0.34752 0.19497 0.0
H2029 H 0.40163 0.36009 0.17647 0.0
H2030 H 0.35401 0.34958 0.17725 0.0
C2031 C 0.21439 0.3336 0.19861 0.0
C2032 C 0.27882 0.36744 0.17729 0.0
H2033 H 0.32018 0.35217 0.15807 0.0
C2034 C 0.29921 0.38973 0.18468 0.0
C2035 C 0.28642 0.35381 0.16748 0.0
C2036 C 0.26542 0.32893 0.15967 0.0
C2037 C 0.32699 0.39814 0.18294 0.0
C2038 C 0.33457 0.38434 0.17323 0.0
C2039 C 0.31425 0.36272 0.16546 0.0
C2040 C 0.36322 0.39055 0.17178 0.0
C2041 C 0.34778 0.42072 0.19205 0.0
C2042 C 0.38406 0.41687 0.16811 0.0
C2043 C 0.41128 0.42301 0.16783 0.0
C2044 C 0.41808 0.40278 0.17097 0.0
C2045 C 0.39704 0.37611 0.17401 0.0
C2046 C 0.36984 0.37008 0.17446 0.0
H2047 H 0.33805 0.42456 0.2011 0.0
H2048 H 0.36331 0.41569 0.19586 0.0
H2049 H 0.3585 0.43997 0.186 0.0
H2050 H 0.37931 0.43276 0.16565 0.0
H2051 H 0.42701 0.44367 0.16525 0.0
H2052 H 0.54581 0.99421 0.18484 0.0
H2053 H 0.55878 0.95917 0.18744 0.0
H2054 H 0.64309 0.01941 0.17946 0.0
H2055 H 0.63042 0.05482 0.17692 0.0
H2056 H 0.5858 0.94217 0.16834 0.0
H2057 H 0.64458 0.98429 0.21688 0.0
H2058 H 0.62091 0.99433 0.21034 0.0
H2059 H 0.65458 0.0086 0.203 0.0
C2060 C 0.56714 9e-05 0.1836 0.0
C2061 C 0.58713 0.0274 0.18074 0.0
C2062 C 0.57446 0.97999 0.18508 0.0
C2063 C 0.60189 0.98683 0.18382 0.0
C2064 C 0.62185 0.01388 0.18069 0.0
H2065 H 0.68043 0.89344 0.17089 0.0
H2066 H 0.65592 0.9187 0.16868 0.0
C2067 C 0.61455 0.03404 0.17917 0.0
C2068 C 0.60963 0.96562 0.18582 0.0
H2069 H 0.64889 0.94897 0.20582 0.0
C2070 C 0.59943 0.94349 0.17659 0.0
C2071 C 0.62693 0.96717 0.19676 0.0
C2072 C 0.63722 0.98972 0.20741 0.0
C2073 C 0.60703 0.92337 0.17768 0.0
C2074 C 0.62549 0.92573 0.18818 0.0
C2075 C 0.6348 0.94728 0.19774 0.0
C2076 C 0.63708 0.90735 0.18889 0.0
C2077 C 0.59534 0.89988 0.16756 0.0
C2078 C 0.63453 0.8925 0.20098 0.0
C2079 C 0.64863 0.8781 0.20229 0.0
C2080 C 0.66567 0.87867 0.19157 0.0
C2081 C 0.66735 0.89265 0.17929 0.0
C2082 C 0.65323 0.90694 0.17798 0.0
H2083 H 0.57568 0.89637 0.16313 0.0
H2084 H 0.60999 0.90474 0.15891 0.0
H2085 H 0.5919 0.88067 0.17253 0.0
H2086 H 0.62228 0.89274 0.20955 0.0
H2087 H 0.64712 0.86753 0.21188 0.0
H2088 H 0.08651 0.79155 0.17461 0.0
H2089 H 0.05776 0.74179 0.17323 0.0
H2090 H 0.07454 0.73488 0.21607 0.0
H2091 H 0.10303 0.78491 0.21758 0.0
H2092 H 0.06901 0.70011 0.17804 0.0
H2093 H 0.99069 0.69552 0.21455 0.0
H2094 H 0.017 0.72723 0.20716 0.0
H2095 H 0.02496 0.71168 0.22125 0.0
C2096 C 0.08422 0.7794 0.18371 0.0
C2097 C 0.09673 0.79194 0.19623 0.0
C2098 C 0.06782 0.75103 0.1829 0.0
C2099 C 0.06367 0.73478 0.19462 0.0
C2100 C 0.07708 0.74718 0.20701 0.0
H2101 H 0.98594 0.55756 0.19198 0.0
H2102 H 0.0177 0.60631 0.19527 0.0
C2103 C 0.09346 0.77564 0.20783 0.0
C2104 C 0.0448 0.70495 0.1938 0.0
H2105 H 0.98419 0.65329 0.20617 0.0
C2106 C 0.0505 0.68981 0.18422 0.0
C2107 C 0.02049 0.69178 0.20172 0.0
C2108 C 0.01269 0.70736 0.21167 0.0
C2109 C 0.0325 0.66173 0.18234 0.0
C2110 C 0.00848 0.64845 0.19047 0.0
C2111 C 0.00275 0.66358 0.20004 0.0
C2112 C 0.98883 0.61889 0.18902 0.0
C2113 C 0.03899 0.64672 0.17141 0.0
C2114 C 0.96179 0.60981 0.18489 0.0
C2115 C 0.94342 0.58188 0.1831 0.0
C2116 C 0.9519 0.56265 0.18542 0.0
C2117 C 0.97886 0.57185 0.18989 0.0
C2118 C -0.00291 0.59971 0.19175 0.0
H2119 H 0.05408 0.66102 0.16377 0.0
H2120 H 0.04793 0.63528 0.17641 0.0
H2121 H 0.0202 0.63179 0.16582 0.0
H2122 H 0.95504 0.62438 0.18283 0.0
H2123 H 0.9228 0.57544 0.17968 0.0
H2124 H 0.3333 0.19299 0.33882 0.0
H2125 H 0.35809 0.2426 0.3351 0.0
H2126 H 0.33191 0.25438 0.37514 0.0
H2127 H 0.30754 0.2049 0.379 0.0
H2128 H 0.33224 0.2723 0.33383 0.0
H2129 H 0.41169 0.31446 0.37457 0.0
H2130 H 0.39421 0.27875 0.36971 0.0
H2131 H 0.37828 0.29148 0.38136 0.0
C2132 C 0.33347 0.20626 0.34697 0.0
C2133 C 0.31852 0.19523 0.35919 0.0
C2134 C 0.34756 0.23454 0.34482 0.0
C2135 C 0.34699 0.25217 0.35488 0.0
C2136 C 0.33309 0.24121 0.36736 0.0
H2137 H 0.35093 0.40502 0.34615 0.0
H2138 H 0.33914 0.35713 0.34774 0.0
C2139 C 0.31907 0.21294 0.36953 0.0
C2140 C 0.35813 0.28154 0.35173 0.0
H2141 H 0.39988 0.34592 0.36422 0.0
C2142 C 0.34733 0.28843 0.34037 0.0
C2143 C 0.37798 0.30254 0.36018 0.0
C2144 C 0.39143 0.29648 0.37205 0.0
C2145 C 0.35503 0.31572 0.33754 0.0
C2146 C 0.37364 0.33657 0.34647 0.0
C2147 C 0.38533 0.32982 0.35749 0.0
C2148 C 0.38064 0.36542 0.34481 0.0
C2149 C 0.34309 0.32197 0.32506 0.0
C2150 C 0.40792 0.38595 0.34279 0.0
C2151 C 0.41477 0.41336 0.34195 0.0
C2152 C 0.39444 0.42075 0.34321 0.0
C2153 C 0.36706 0.40006 0.34506 0.0
C2154 C 0.36025 0.37265 0.34591 0.0
H2155 H 0.3358 0.30533 0.31725 0.0
H2156 H 0.32529 0.32395 0.32831 0.0
H2157 H 0.35835 0.3415 0.32013 0.0
H2158 H 0.42395 0.38076 0.34195 0.0
H2159 H 0.43607 0.42875 0.3405 0.0
H2160 H 0.55503 0.99354 0.3445 0.0
H2161 H 0.60372 0.02666 0.34443 0.0
H2162 H 0.62192 0.9614 0.33959 0.0
H2163 H 0.57291 0.92771 0.33998 0.0
H2164 H 0.65185 -0.00295 0.35998 0.0
H2165 H 0.6571 0.0544 0.31255 0.0
H2166 H 0.63199 0.0524 0.3246 0.0
H2167 H 0.62778 0.02161 0.31672 0.0
C2168 C 0.56927 0.98609 0.34328 0.0
C2169 C 0.56002 0.9579 0.34222 0.0
C2170 C 0.59715 0.00516 0.34315 0.0
C2171 C 0.61636 -0.00349 0.34175 0.0
C2172 C 0.60732 0.96844 0.34058 0.0
H2173 H 0.78924 0.0969 0.32727 0.0
H2174 H 0.73969 0.0676 0.32536 0.0
C2175 C 0.57934 0.94925 0.3408 0.0
C2176 C 0.64591 0.01676 0.34235 0.0
H2177 H 0.69591 0.07551 0.32754 0.0
C2178 C 0.66156 0.01412 0.35284 0.0
C2179 C 0.65847 0.03887 0.33295 0.0
C2180 C 0.64303 0.04188 0.32099 0.0
C2181 C 0.68947 0.03322 0.35431 0.0
C2182 C 0.70179 0.05591 0.34524 0.0
C2183 C 0.68622 0.05836 0.33463 0.0
C2184 C 0.73129 0.07622 0.34601 0.0
C2185 C 0.7056 0.02853 0.36533 0.0
C2186 C 0.74282 0.09159 0.35807 0.0
C2187 C 0.7712 0.10825 0.35922 0.0
C2188 C 0.78824 0.10988 0.34825 0.0
C2189 C 0.77651 0.09589 0.33589 0.0
C2190 C 0.74824 0.07916 0.33478 0.0
H2191 H 0.69479 0.00701 0.36907 0.0
H2192 H 0.72608 0.03346 0.36142 0.0
H2193 H 0.70859 0.04204 0.37429 0.0
H2194 H 0.72995 0.09004 0.36672 0.0
H2195 H 0.77982 0.11899 0.36883 0.0
H2196 H 0.88146 0.67318 0.37348 0.0
H2197 H 0.90857 0.65042 0.37106 0.0
H2198 H 0.90074 0.6507 0.32672 0.0
H2199 H 0.87457 0.67438 0.32908 0.0
H2200 H 0.90048 0.60297 0.35955 0.0
H2201 H 0.98274 0.69229 0.33164 0.0
H2202 H 0.95475 0.69338 0.34001 0.0
H2203 H 0.95001 0.67762 0.3233 0.0
C2204 C 0.88534 0.66812 0.36324 0.0
C2205 C 0.87634 0.6758 0.35145 0.0
C2206 C 0.90077 0.65512 0.36186 0.0
C2207 C 0.9072 0.64948 0.34869 0.0
C2208 C 0.89666 0.65557 0.33695 0.0
H2209 H 0.98988 0.55445 0.33615 0.0
H2210 H 0.95566 0.56905 0.33649 0.0
C2211 C 0.88159 0.66892 0.33832 0.0
C2212 C 0.92611 0.63859 0.34727 0.0
H2213 H 0.9878 0.65335 0.33366 0.0
C2214 C 0.91957 0.61392 0.35388 0.0
C2215 C 0.95118 0.65318 0.34002 0.0
C2216 C 0.96027 0.68071 0.33345 0.0
C2217 C 0.93751 0.60347 0.3535 0.0
C2218 C 0.96229 0.61778 0.346 0.0
C2219 C 0.96868 0.64231 0.3393 0.0
C2220 C 0.98275 0.60867 0.3456 0.0
C2221 C 0.93018 0.57776 0.36153 0.0
C2222 C 0.00954 0.62643 0.35018 0.0
C2223 C 0.02921 0.61838 0.34975 0.0
C2224 C 0.0224 0.5923 0.34483 0.0
C2225 C -0.00439 0.57456 0.34015 0.0
C2226 C 0.97601 0.58279 0.34042 0.0
H2227 H 0.91438 0.5735 0.36951 0.0
H2228 H 0.9218 0.56008 0.35434 0.0
H2229 H 0.94849 0.5793 0.36667 0.0
H2230 H 0.0152 0.64652 0.35419 0.0
H2231 H 0.04962 0.63246 0.3535 0.0
H2232 H 0.58098 0.62967 0.86098 0.0
H2233 H 0.62775 0.63934 0.85701 0.0
H2234 H 0.59764 0.5543 0.84745 0.0
H2235 H 0.55073 0.54427 0.85144 0.0
H2236 H 0.64326 0.57832 0.86602 0.0
H2237 H 0.66086 0.64012 0.81862 0.0
H2238 H 0.64804 0.65085 0.83286 0.0
H2239 H 0.62707 0.61746 0.82542 0.0
C2240 C 0.58424 0.61298 0.85805 0.0
C2241 C 0.5621 0.58622 0.85649 0.0
C2242 C 0.61096 0.61858 0.85572 0.0
C2243 C 0.61598 0.59757 0.85175 0.0
C2244 C 0.59406 0.57077 0.85042 0.0
H2245 H 0.78274 0.65033 0.82431 0.0
H2246 H 0.73271 0.62199 0.82559 0.0
C2247 C 0.5673 0.56513 0.85271 0.0
C2248 C 0.64427 0.60374 0.84917 0.0
H2249 H 0.70068 0.64455 0.82982 0.0
C2250 C 0.65578 0.59247 0.85798 0.0
C2251 C 0.66026 0.6217 0.83848 0.0
C2252 C 0.64839 0.63304 0.8282 0.0
C2253 C 0.6835 0.60011 0.85692 0.0
C2254 C 0.7 0.61973 0.84692 0.0
C2255 C 0.68802 0.62964 0.83756 0.0
C2256 C 0.73013 0.63255 0.84683 0.0
C2257 C 0.69495 0.58752 0.86668 0.0
C2258 C 0.74517 0.64741 0.85842 0.0
C2259 C 0.77359 0.66352 0.8577 0.0
C2260 C 0.78736 0.66519 0.84534 0.0
C2261 C 0.77251 0.64932 0.83395 0.0
C2262 C 0.74402 0.63317 0.83467 0.0
H2263 H 0.6788 0.56689 0.87013 0.0
H2264 H 0.71181 0.58573 0.86181 0.0
H2265 H 0.70313 0.60065 0.876 0.0
H2266 H 0.73485 0.64774 0.86779 0.0
H2267 H 0.78463 0.67561 0.86662 0.0
H2268 H 0.30548 0.0875 0.82621 0.0
H2269 H 0.32638 0.05967 0.83166 0.0
H2270 H 0.33647 0.08653 0.87409 0.0
H2271 H 0.31626 0.11508 0.86858 0.0
H2272 H 0.3808 0.08418 0.86454 0.0
H2273 H 0.28515 0.98789 0.85241 0.0
H2274 H 0.29697 0.01135 0.83816 0.0
H2275 H 0.28641 0.02039 0.85391 0.0
C2276 C 0.31247 0.0877 0.83665 0.0
C2277 C 0.30914 0.10321 0.847 0.0
C2278 C 0.32418 0.07165 0.83978 0.0
C2279 C 0.33228 0.0705 0.85335 0.0
C2280 C 0.33012 0.08697 0.86358 0.0
H2281 H 0.35892 0.93695 0.8782 0.0
H2282 H 0.34228 0.96951 0.87706 0.0
C2283 C 0.31864 0.10326 0.86042 0.0
C2284 C 0.34238 0.05159 0.85689 0.0
H2285 H 0.32543 0.98455 0.85503 0.0
C2286 C 0.36865 0.06236 0.86257 0.0
C2287 C 0.3262 0.02304 0.85464 0.0
C2288 C 0.29701 0.00993 0.84959 0.0
C2289 C 0.37962 0.04543 0.86557 0.0
C2290 C 0.3641 0.01715 0.86246 0.0
C2291 C 0.33744 0.00628 0.85726 0.0
C2292 C 0.37532 -0.00148 0.86403 0.0
C2293 C 0.4076 0.05801 0.87212 0.0
C2294 C 0.39933 0.00398 0.85705 0.0
C2295 C 0.40899 0.98558 0.85779 0.0
C2296 C 0.39452 0.9611 0.86531 0.0
C2297 C 0.37046 0.95562 0.87229 0.0
C2298 C 0.36097 0.97421 0.87168 0.0
H2299 H 0.41246 0.07687 0.87797 0.0
H2300 H 0.40917 0.04342 0.87923 0.0
H2301 H 0.42326 0.06384 0.8639 0.0
H2302 H 0.41027 0.02217 0.85075 0.0
H2303 H 0.42742 0.99023 0.85215 0.0
H2304 H 0.85832 0.19685 0.86747 0.0
H2305 H 0.88207 0.24606 0.87263 0.0
H2306 H 0.92209 0.26303 0.83291 0.0
H2307 H 0.8982 0.21417 0.82765 0.0
H2308 H 0.93781 0.2784 0.87439 0.0
H2309 H 0.89744 0.31929 0.83467 0.0
H2310 H 0.88067 0.28335 0.83902 0.0
H2311 H 0.90916 0.29787 0.8272 0.0
C2312 C 0.87173 0.21121 0.85975 0.0
C2313 C 0.87648 0.2019 0.84716 0.0
C2314 C 0.88528 0.2392 0.86271 0.0
C2315 C 0.90352 0.25812 0.85307 0.0
C2316 C 0.90761 0.2488 0.84035 0.0
H2317 H 0.05033 0.41158 0.86148 0.0
H2318 H 0.01457 0.36331 0.86103 0.0
C2319 C 0.8941 0.2209 0.83739 0.0
C2320 C 0.92041 0.28734 0.8567 0.0
H2321 H 0.94149 0.35137 0.84434 0.0
C2322 C 0.93831 0.29442 0.86798 0.0
C2323 C 0.92073 0.30813 0.84844 0.0
C2324 C 0.90075 0.30178 0.83675 0.0
C2325 C 0.9576 0.32182 0.87079 0.0
C2326 C 0.95931 0.34246 0.86187 0.0
C2327 C 0.94042 0.33545 0.85104 0.0
C2328 C 0.98103 0.37138 0.86324 0.0
C2329 C 0.97607 0.32835 0.88317 0.0
C2330 C 0.97397 0.39183 0.86441 0.0
C2331 C -0.00574 0.41932 0.86444 0.0
C2332 C 0.02203 0.42688 0.86331 0.0
C2333 C 0.02914 0.40636 0.86245 0.0
C2334 C 0.00874 0.3788 0.86229 0.0
H2335 H 0.96661 0.31209 0.89116 0.0
H2336 H -0.00446 0.32965 0.87989 0.0
H2337 H 0.98092 0.34823 0.88789 0.0
H2338 H 0.9527 0.3865 0.86511 0.0
H2339 H 0.9881 0.43464 0.86524 0.0
H2340 H 0.55726 0.56067 0.70035 0.0
H2341 H 0.57189 0.60916 0.69764 0.0
H2342 H 0.64073 0.62063 0.67309 0.0
H2343 H 0.62672 0.57238 0.6761 0.0
H2344 H 0.65603 0.65877 0.69235 0.0
H2345 H 0.56575 0.64986 0.66494 0.0
H2346 H 0.55683 0.63132 0.68093 0.0
H2347 H 0.57125 0.62119 0.66711 0.0
C2348 C 0.57542 0.5735 0.6943 0.0
C2349 C 0.59088 0.56278 0.68845 0.0
C2350 C 0.5836 0.60114 0.69266 0.0
C2351 C 0.60706 0.61835 0.68493 0.0
C2352 C 0.62246 0.60763 0.67904 0.0
H2353 H 0.66363 0.78697 0.66046 0.0
H2354 H 0.64217 0.73684 0.66076 0.0
C2355 C 0.61449 0.58011 0.68081 0.0
C2356 C 0.61667 0.64792 0.68374 0.0
H2357 H 0.59733 0.69404 0.67417 0.0
C2358 C 0.64325 0.66646 0.68827 0.0
C2359 C 0.60008 0.65791 0.67825 0.0
C2360 C 0.572 0.63903 0.6724 0.0
C2361 C 0.65357 0.69474 0.68773 0.0
C2362 C 0.6365 0.70469 0.68292 0.0
C2363 C 0.61015 0.68625 0.67806 0.0
C2364 C 0.64594 0.73427 0.68289 0.0
C2365 C 0.6828 0.71367 0.69216 0.0
C2366 C 0.65401 0.7491 0.69529 0.0
C2367 C 0.66649 0.77754 0.69511 0.0
C2368 C 0.67056 0.79149 0.68257 0.0
C2369 C 0.6607 0.77656 0.67025 0.0
C2370 C 0.6485 0.74803 0.67041 0.0
H2371 H 0.69518 0.70334 0.69172 0.0
H2372 H 0.69277 0.73224 0.68556 0.0
H2373 H 0.68301 0.72021 0.70299 0.0
H2374 H 0.65156 0.73873 0.70505 0.0
H2375 H 0.67368 0.78866 0.70475 0.0
H2376 H 0.40439 0.05031 0.69021 0.0
H2377 H 0.35662 0.01491 0.68669 0.0
H2378 H 0.38012 0.95296 0.68609 0.0
H2379 H 0.42774 0.98799 0.68991 0.0
H2380 H 0.33253 0.9772 0.66541 0.0
H2381 H 0.32121 0.92538 0.71586 0.0
H2382 H 0.34995 0.95873 0.71201 0.0
H2383 H 0.34859 0.92847 0.70513 0.0
C2384 C 0.39939 0.02916 0.68936 0.0
C2385 C 0.41978 0.02192 0.69049 0.0
C2386 C 0.37214 0.009 0.68731 0.0
C2387 C 0.3649 0.98136 0.68634 0.0
C2388 C 0.38527 0.97414 0.68712 0.0
H2389 H 0.19521 0.86075 0.66294 0.0
H2390 H 0.24554 0.88461 0.66323 0.0
C2391 C 0.41247 0.99422 0.68927 0.0
C2392 C 0.33591 0.96014 0.68469 0.0
H2393 H 0.28293 0.90613 0.7011 0.0
C2394 C 0.32166 0.96148 0.67313 0.0
C2395 C 0.32197 0.93977 0.69484 0.0
C2396 C 0.33609 0.93802 0.70772 0.0
C2397 C 0.29347 0.94352 0.67166 0.0
C2398 C 0.27945 0.92343 0.68192 0.0
C2399 C 0.29392 0.92145 0.69322 0.0
C2400 C 0.24933 0.90683 0.68212 0.0
C2401 C 0.27869 0.94711 0.65956 0.0
C2402 C 0.23504 0.91076 0.69288 0.0
C2403 C 0.20658 0.8971 0.6928 0.0
C2404 C 0.19196 0.87929 0.68194 0.0
C2405 C 0.20616 0.87451 0.67139 0.0
C2406 C 0.23478 0.88818 0.67151 0.0
H2407 H 0.29175 0.96652 0.6539 0.0
H2408 H 0.27253 0.92987 0.65223 0.0
H2409 H 0.25986 0.94694 0.66307 0.0
H2410 H 0.24595 0.92506 0.70116 0.0
H2411 H 0.19607 0.90106 0.70107 0.0
H2412 H 0.98531 0.42654 0.70742 0.0
H2413 H 0.01813 0.41044 0.70557 0.0
H2414 H 0.95715 0.33695 0.68524 0.0
H2415 H 0.92395 0.3526 0.68734 0.0
H2416 H 0.98591 0.32646 0.70413 0.0
H2417 H 0.05675 0.41171 0.67005 0.0
H2418 H 0.05014 0.42319 0.68613 0.0
H2419 H 0.02267 0.40499 0.67402 0.0
C2420 C 0.97884 0.40687 0.70263 0.0
C2421 C 0.95215 0.3909 0.69742 0.0
C2422 C -0.00233 0.39781 0.70149 0.0
C2423 C 0.99025 0.37289 0.69493 0.0
C2424 C 0.9633 0.35639 0.69022 0.0
H2425 H 0.09885 0.31749 0.66405 0.0
H2426 H 0.06871 0.337 0.66635 0.0
C2427 C 0.94435 0.36529 0.69148 0.0
C2428 C 0.01058 0.36398 0.69298 0.0
H2429 H 0.07304 0.38303 0.67883 0.0
C2430 C 0.00493 0.33877 0.69857 0.0
C2431 C 0.03512 0.3799 0.68548 0.0
C2432 C 0.04145 0.40631 0.67845 0.0
C2433 C 0.0234 0.3292 0.69708 0.0
C2434 C 0.04851 0.34571 0.69015 0.0
C2435 C 0.05395 0.37067 0.68432 0.0
C2436 C 0.06913 0.33707 0.68872 0.0
C2437 C 0.01558 0.30127 0.70273 0.0
C2438 C 0.0802 0.33186 0.70052 0.0
C2439 C 0.0971 0.32055 0.69923 0.0
C2440 C 0.10355 0.31477 0.68611 0.0
C2441 C 0.09409 0.32179 0.67427 0.0
C2442 C 0.07688 0.33284 0.67557 0.0
H2443 H -0.00691 0.28838 0.70416 0.0
H2444 H 0.02257 0.29032 0.69578 0.0
H2445 H 0.02539 0.30366 0.71296 0.0
H2446 H 0.07503 0.33571 0.71074 0.0
H2447 H 0.1044 0.31553 0.70851 0.0
H2448 H 0.87142 0.67283 0.51421 0.0
H2449 H 0.92089 0.69477 0.51034 0.0
H2450 H 0.92786 0.65011 0.54478 0.0
H2451 H 0.87853 0.62854 0.54886 0.0
H2452 H 0.97014 0.70435 0.54351 0.0
H2453 H 0.95386 0.65133 0.49305 0.0
H2454 H 0.93767 0.6717 0.49457 0.0
H2455 H 0.92663 0.64212 0.50539 0.0
C2456 C 0.88362 0.66808 0.52108 0.0
C2457 C 0.87129 0.64891 0.53176 0.0
C2458 C 0.91177 0.68043 0.5188 0.0
C2459 C 0.92781 0.67354 0.52709 0.0
C2460 C 0.91573 0.65551 0.53822 0.0
H2461 H 0.08512 0.68925 0.50916 0.0
H2462 H 0.03656 0.67302 0.51324 0.0
C2463 C 0.88762 0.64325 0.54055 0.0
C2464 C 0.95696 0.68412 0.52383 0.0
H2465 H -0.00036 0.68321 0.49911 0.0
C2466 C 0.97665 0.69981 0.5338 0.0
C2467 C 0.96521 0.67766 0.51125 0.0
C2468 C 0.94476 0.65957 0.50048 0.0
C2469 C 0.00453 0.70949 0.53147 0.0
C2470 C 0.01284 0.70369 0.51872 0.0
C2471 C -0.00686 0.6878 0.50881 0.0
C2472 C 0.04192 0.71358 0.51559 0.0
C2473 C 0.02476 0.72527 0.54279 0.0
C2474 C 0.06074 0.74172 0.51519 0.0
C2475 C 0.08842 0.75104 0.51292 0.0
C2476 C 0.09772 0.73235 0.51087 0.0
C2477 C 0.07862 0.70415 0.51072 0.0
C2478 C 0.0509 0.69485 0.51307 0.0
H2479 H 0.01458 0.72179 0.55302 0.0
H2480 H 0.04085 0.71946 0.54349 0.0
H2481 H 0.03487 0.74749 0.54048 0.0
H2482 H 0.05405 0.75648 0.51678 0.0
H2483 H 0.10255 0.77291 0.51295 0.0
H2484 H 0.35267 0.23862 0.55196 0.0
H2485 H 0.32518 0.26062 0.54889 0.0
H2486 H 0.28599 0.20959 0.51336 0.0
H2487 H 0.31401 0.1879 0.51622 0.0
H2488 H 0.30778 0.26292 0.5076 0.0
H2489 H 0.24639 0.23965 0.55535 0.0
H2490 H 0.28191 0.25292 0.5592 0.0
H2491 H 0.26301 0.2207 0.55027 0.0
C2492 C 0.33777 0.23171 0.54368 0.0
C2493 C 0.33546 0.21172 0.53428 0.0
C2494 C 0.3219 0.2441 0.54201 0.0
C2495 C 0.30327 0.23644 0.53102 0.0
C2496 C 0.30012 0.21561 0.52197 0.0
H2497 H 0.21252 0.32357 0.51993 0.0
H2498 H 0.22302 0.28679 0.52283 0.0
C2499 C 0.3161 0.20328 0.5236 0.0
C2500 C 0.29002 0.25275 0.52799 0.0
H2501 H 0.25477 0.28052 0.54298 0.0
C2502 C 0.29573 0.26636 0.51524 0.0
C2503 C 0.27406 0.25696 0.53789 0.0
C2504 C 0.26574 0.24153 0.55138 0.0
C2505 C 0.28723 0.28529 0.51243 0.0
C2506 C 0.27317 0.29111 0.52276 0.0
C2507 C 0.26601 0.27633 0.53518 0.0
C2508 C 0.26683 0.31332 0.52107 0.0
C2509 C 0.29376 0.29921 0.49851 0.0
C2510 C 0.2881 0.34041 0.51937 0.0
C2511 C 0.28224 0.3615 0.51767 0.0
C2512 C 0.25498 0.35581 0.51774 0.0
C2513 C 0.23374 0.32865 0.51971 0.0
C2514 C 0.23965 0.30759 0.5214 0.0
H2515 H 0.297 0.28689 0.49056 0.0
H2516 H 0.27711 0.30284 0.49499 0.0
H2517 H 0.3129 0.3193 0.49931 0.0
H2518 H 0.30926 0.34526 0.5194 0.0
H2519 H 0.29908 0.38219 0.51628 0.0
H2520 H 0.66811 0.88942 0.5135 0.0
H2521 H 0.70226 0.93794 0.51578 0.0
H2522 H 0.63816 0.95843 0.51519 0.0
H2523 H 0.60389 0.91013 0.51268 0.0
H2524 H 0.682 0.99096 0.49787 0.0
H2525 H 0.71698 0.98447 0.55074 0.0
H2526 H 0.71849 0.9618 0.53817 0.0
H2527 H 0.68587 0.95728 0.54329 0.0
C2528 C 0.66124 0.90422 0.51386 0.0
C2529 C 0.63324 0.89589 0.51293 0.0
C2530 C 0.68079 0.93191 0.51524 0.0
C2531 C 0.67264 0.95164 0.51583 0.0
C2532 C 0.64479 0.94344 0.51478 0.0
H2533 H 0.7464 0.1157 0.54453 0.0
H2534 H 0.72196 0.06608 0.54115 0.0
C2535 C 0.62525 0.91581 0.51336 0.0
C2536 C 0.69301 0.98096 0.51741 0.0
H2537 H 0.73941 0.02774 0.53989 0.0
C2538 C 0.69473 -0.00095 0.507 0.0
C2539 C 0.70936 0.99129 0.52939 0.0
C2540 C 0.70753 0.9728 0.54111 0.0
C2541 C 0.71197 0.02738 0.50839 0.0
C2542 C 0.72831 0.03773 0.52038 0.0
C2543 C 0.72701 0.01961 0.53067 0.0
C2544 C 0.74498 0.06744 0.52297 0.0
C2545 C 0.71167 0.04601 0.49728 0.0
C2546 C 0.76644 0.08448 0.51406 0.0
C2547 C 0.78029 0.11284 0.51592 0.0
C2548 C 0.77298 0.1244 0.52679 0.0
C2549 C 0.75233 0.10724 0.53605 0.0
C2550 C 0.73843 0.07895 0.53415 0.0
H2551 H 0.69385 0.03513 0.49024 0.0
H2552 H 0.71108 0.06373 0.50191 0.0
H2553 H 0.7306 0.05403 0.491 0.0
H2554 H 0.77207 0.07588 0.50551 0.0
H2555 H 0.79627 0.12573 0.50869 0.0
H2556 H 0.09344 0.76437 0.67064 0.0
H2557 H 0.08006 0.71624 0.67316 0.0
H2558 H 0.00162 0.69864 0.68929 0.0
H2559 H 0.01464 0.74679 0.68666 0.0
H2560 H 0.06459 0.68415 0.69709 0.0
H2561 H 0.98197 0.64349 0.65768 0.0
H2562 H 0.007 0.67943 0.65906 0.0
H2563 H 0.97846 0.66408 0.67078 0.0
C2564 C 0.07327 0.75029 0.67468 0.0
C2565 C 0.055 0.75934 0.67839 0.0
C2566 C 0.06574 0.72283 0.67613 0.0
C2567 C 0.03982 0.70397 0.68128 0.0
C2568 C 0.02156 0.7129 0.68508 0.0
H2569 H 0.97891 0.53976 0.71148 0.0
H2570 H 0.00148 0.58971 0.70965 0.0
C2571 C 0.02904 0.74038 0.68358 0.0
C2572 C 0.03199 0.67494 0.68268 0.0
H2573 H 0.98564 0.6109 0.67157 0.0
C2574 C 0.04741 0.66807 0.69148 0.0
C2575 C 0.00984 0.65421 0.67518 0.0
C2576 C -0.00651 0.66061 0.66504 0.0
C2577 C 0.04091 0.64078 0.69316 0.0
C2578 C 0.0182 0.61998 0.686 0.0
C2579 C 0.00304 0.62695 0.67707 0.0
C2580 C 0.00919 0.59067 0.68768 0.0
C2581 C 0.05855 0.63449 0.70243 0.0
C2582 C 0.00646 0.57481 0.67598 0.0
C2583 C -0.00674 0.54639 0.67698 0.0
C2584 C 0.98273 0.53347 0.68969 0.0
C2585 C 0.98704 0.54937 0.70158 0.0
C2586 C 2e-05 0.57786 0.70056 0.0
H2587 H 0.07915 0.65274 0.70394 0.0
H2588 H 0.04865 0.62803 0.71271 0.0
H2589 H 0.06102 0.61759 0.69814 0.0
H2590 H 0.01341 0.58438 0.66596 0.0
H2591 H 0.99023 0.5345 0.66768 0.0
H2592 H 0.23751 0.267 0.68166 0.0
H2593 H 0.286 0.30074 0.68438 0.0
H2594 H 0.26864 0.36604 0.6774 0.0
H2595 H 0.22006 0.33256 0.67472 0.0
H2596 H 0.32175 0.34201 0.66539 0.0
H2597 H 0.31 0.38509 0.71495 0.0
H2598 H 0.28381 0.35256 0.70821 0.0
H2599 H 0.28833 0.38391 0.70103 0.0
C2600 C 0.24395 0.28851 0.68063 0.0
C2601 C 0.22486 0.29707 0.67806 0.0
C2602 C 0.27165 0.30773 0.68221 0.0
C2603 C 0.28068 0.33579 0.68132 0.0
C2604 C 0.26188 0.34444 0.67838 0.0
H2605 H 0.45097 0.46287 0.67309 0.0
H2606 H 0.40107 0.43595 0.67096 0.0
C2607 C 0.23417 0.32524 0.67677 0.0
C2608 C 0.30988 0.35596 0.6834 0.0
H2609 H 0.3543 0.40659 0.70502 0.0
C2610 C 0.32892 0.35621 0.67402 0.0
C2611 C 0.31898 0.37416 0.69476 0.0
C2612 C 0.2993 0.3739 0.70541 0.0
C2613 C 0.357 0.37432 0.67568 0.0
C2614 C 0.3661 0.39284 0.68691 0.0
C2615 C 0.34709 0.39253 0.69634 0.0
C2616 C 0.3955 0.41177 0.6893 0.0
C2617 C 0.37677 0.37308 0.66559 0.0
C2618 C 0.40854 0.40786 0.70068 0.0
C2619 C 0.43697 0.42327 0.70195 0.0
C2620 C 0.4526 0.44276 0.69186 0.0
C2621 C 0.43933 0.44782 0.68095 0.0
C2622 C 0.41092 0.43244 0.6797 0.0
H2623 H 0.36691 0.35406 0.65929 0.0
H2624 H 0.38459 0.39082 0.65846 0.0
H2625 H 0.39456 0.37419 0.6711 0.0
H2626 H 0.39685 0.39203 0.70821 0.0
H2627 H 0.44679 0.41909 0.71047 0.0
H2628 H 0.65093 0.88586 0.6758 0.0
H2629 H 0.6153 0.89779 0.67906 0.0
H2630 H 0.67689 0.98231 0.6853 0.0
H2631 H 0.71293 0.97067 0.6821 0.0
H2632 H 0.60994 0.92523 0.70399 0.0
H2633 H 0.62289 0.98137 0.65477 0.0
H2634 H 0.6349 0.95734 0.65702 0.0
H2635 H 0.6537 0.991 0.66437 0.0
C2636 C 0.65702 0.90706 0.67775 0.0
C2637 C 0.68482 0.92736 0.67869 0.0
C2638 C 0.63659 0.91376 0.67964 0.0
C2639 C 0.64359 0.94086 0.68235 0.0
C2640 C 0.67123 0.96129 0.68309 0.0
H2641 H 0.561 0.01984 0.7146 0.0
H2642 H 0.58638 -0.00455 0.71187 0.0
C2643 C 0.69174 0.9546 0.68127 0.0
C2644 C 0.62192 0.94762 0.68482 0.0
H2645 H 0.5936 0.98371 0.67161 0.0
C2646 C 0.60615 0.93785 0.69689 0.0
C2647 C 0.61697 0.96375 0.67542 0.0
C2648 C 0.63282 0.97386 0.66209 0.0
C2649 C 0.58601 0.94463 0.70004 0.0
C2650 C 0.58178 0.96162 0.69088 0.0
C2651 C 0.59696 0.97064 0.67859 0.0
C2652 C 0.56307 0.97195 0.69415 0.0
C2653 C 0.56955 0.93378 0.71313 0.0
C2654 C 0.54124 0.96627 0.68527 0.0
C2655 C 0.52674 0.98016 0.68681 0.0
C2656 C 0.53418 0.0001 0.69715 0.0
C2657 C 0.55491 0.00452 0.70656 0.0
C2658 C 0.56931 0.99053 0.70505 0.0
H2659 H 0.57026 0.9157 0.71715 0.0
H2660 H 0.5781 0.95 0.72116 0.0
H2661 H 0.54785 0.92799 0.7114 0.0
H2662 H 0.53628 0.95205 0.67676 0.0
H2663 H 0.51082 0.97644 0.67942 0.0
H2664 H 0.2387 0.97269 0.19632 0.0
H2665 H 0.28693 0.98621 0.19413 0.0
H2666 H 0.26536 0.90129 0.19311 0.0
H2667 H 0.21695 0.88744 0.19504 0.0
H2668 H 0.31987 0.97479 0.21081 0.0
H2669 H 0.31078 0.9324 0.15795 0.0
H2670 H 0.284 0.93649 0.16576 0.0
H2671 H 0.28858 0.90833 0.17067 0.0
C2672 C 0.24414 0.95683 0.19566 0.0
C2673 C 0.22391 0.92897 0.19574 0.0
C2674 C 0.27173 0.96461 0.19442 0.0
C2675 C 0.27961 0.94474 0.19324 0.0
C2676 C 0.25961 0.91692 0.19372 0.0
H2677 H 0.45361 0.99356 0.19852 0.0
H2678 H 0.40394 0.96864 0.20232 0.0
C2679 C 0.23197 0.90908 0.19489 0.0
C2680 C 0.30883 0.95337 0.19138 0.0
H2681 H 0.35437 0.95272 0.16838 0.0
C2682 C 0.32746 0.96984 0.20159 0.0
C2683 C 0.31854 0.94698 0.17927 0.0
C2684 C 0.29953 0.93028 0.16771 0.0
C2685 C 0.35569 0.98062 0.1999 0.0
C2686 C 0.36542 0.97423 0.18779 0.0
C2687 C 0.34675 0.95732 0.1777 0.0
C2688 C 0.39501 0.98688 0.18487 0.0
C2689 C 0.37491 -0.00033 0.21081 0.0
C2690 C 0.40618 0.00441 0.17348 0.0
C2691 C 0.43438 0.01836 0.17121 0.0
C2692 C 0.45179 0.01496 0.18031 0.0
C2693 C 0.44054 -0.00342 0.1914 0.0
C2694 C 0.41227 0.9825 0.19363 0.0
H2695 H 0.36451 0.00702 0.21794 0.0
H2696 H 0.38289 0.98867 0.21704 0.0
H2697 H 0.39262 0.01772 0.20601 0.0
H2698 H 0.39315 0.00797 0.16658 0.0
H2699 H 0.44259 0.0324 0.16258 0.0
H2700 H 0.97809 0.44091 0.15308 0.0
H2701 H 0.0003 0.41313 0.15446 0.0
H2702 H 0.00449 0.4217 0.19884 0.0
H2703 H 0.98327 0.45024 0.19746 0.0
H2704 H 0.04986 0.42389 0.18855 0.0
H2705 H 0.95706 0.33434 0.16694 0.0
H2706 H 0.97212 0.3635 0.15566 0.0
H2707 H 0.95771 0.36545 0.17192 0.0
C2708 C 0.98424 0.43723 0.16309 0.0
C2709 C 0.97879 0.44741 0.17518 0.0
C2710 C -0.00333 0.4212 0.16387 0.0
C2711 C 0.00331 0.41475 0.17678 0.0
C2712 C -0.00068 0.42627 0.18878 0.0
H2713 H 0.01774 0.27385 0.1979 0.0
H2714 H 0.0033 0.30775 0.19439 0.0
C2715 C 0.98722 0.44256 0.18799 0.0
C2716 C 0.0131 0.39491 0.17794 0.0
H2717 H -0.00495 0.32855 0.17132 0.0
C2718 C 0.03794 0.40305 0.18476 0.0
C2719 C -0.00282 0.36759 0.17322 0.0
C2720 C 0.96941 0.35706 0.16665 0.0
C2721 C 0.04733 0.38459 0.18702 0.0
C2722 C 0.0318 0.3575 0.18195 0.0
C2723 C 0.007 0.34939 0.1751 0.0
C2724 C 0.04054 0.33699 0.18392 0.0
C2725 C 0.0733 0.39408 0.19522 0.0
C2726 C 0.06601 0.342 0.17898 0.0
C2727 C 0.07442 0.32289 0.18114 0.0
C2728 C 0.05726 0.29816 0.18803 0.0
C2729 C 0.03138 0.29275 0.19257 0.0
C2730 C 0.02314 0.31209 0.19058 0.0
H2731 H 0.07812 0.41224 0.20168 0.0
H2732 H 0.07178 0.37757 0.20206 0.0
H2733 H 0.09066 0.40001 0.188 0.0
H2734 H 0.07938 0.36069 0.17343 0.0
H2735 H 0.09429 0.3274 0.1773 0.0
H2736 H 0.55238 0.5468 0.15471 0.0
H2737 H 0.57738 0.59593 0.15937 0.0
H2738 H 0.53892 0.58158 0.19942 0.0
H2739 H 0.51457 0.53211 0.19499 0.0
H2740 H 0.56496 0.6349 0.16566 0.0
H2741 H 0.61891 0.6191 0.20963 0.0
H2742 H 0.5974 0.59192 0.19792 0.0
H2743 H 0.58237 0.60206 0.21141 0.0
C2744 C 0.54894 0.55416 0.16443 0.0
C2745 C 0.53187 0.53576 0.17457 0.0
C2746 C 0.56321 0.58222 0.16707 0.0
C2747 C 0.56051 0.59234 0.17987 0.0
C2748 C 0.54184 0.57412 0.18962 0.0
H2749 H 0.64751 0.77016 0.19354 0.0
H2750 H 0.61125 0.72252 0.19089 0.0
C2751 C 0.52779 0.54594 0.18704 0.0
C2752 C 0.57877 0.62165 0.1832 0.0
H2753 H 0.63072 0.66447 0.20464 0.0
C2754 C 0.57922 0.64143 0.17424 0.0
C2755 C 0.59764 0.63002 0.19428 0.0
C2756 C 0.59933 0.60971 0.2038 0.0
C2757 C 0.59842 0.66934 0.17587 0.0
C2758 C 0.61714 0.6777 0.18701 0.0
C2759 C 0.61625 0.65798 0.19616 0.0
C2760 C 0.63891 0.70657 0.18894 0.0
C2761 C 0.59924 0.68938 0.16528 0.0
C2762 C 0.66647 0.71331 0.1892 0.0
C2763 C 0.68723 0.74043 0.19096 0.0
C2764 C 0.6808 0.76136 0.19242 0.0
C2765 C 0.65316 0.75454 0.19229 0.0
C2766 C 0.63239 0.72734 0.1907 0.0
H2767 H 0.58857 0.67894 0.15559 0.0
H2768 H 0.5888 0.70004 0.16952 0.0
H2769 H 0.62065 0.70502 0.16272 0.0
H2770 H 0.67195 0.69756 0.1879 0.0
H2771 H 0.70831 0.74502 0.19099 0.0
H2772 H 0.30264 0.90829 1.01873 0.0
H2773 H 0.31781 0.95711 1.01748 0.0
H2774 H 0.24632 0.94333 0.04033 0.0
H2775 H 0.23064 0.89437 0.04133 0.0
H2776 H 0.2553 0.97586 1.01819 0.0
H2777 H 0.35131 0.01308 0.04797 0.0
H2778 H 0.3494 0.99237 0.03348 0.0
H2779 H 0.32519 0.97741 0.04741 0.0
C2780 C 0.29028 0.91569 0.0236 0.0
C2781 C 0.26552 0.89756 0.03018 0.0
C2782 C 0.29901 0.94359 0.02291 0.0
C2783 C 0.2834 0.95387 0.02901 0.0
C2784 C 0.25869 0.93579 0.03559 0.0
H2785 H 0.3511 0.12791 0.0422 0.0
H2786 H 0.32831 0.07829 0.0453 0.0
C2787 C 0.24979 0.90786 0.03616 0.0
C2788 C 0.29252 0.98338 0.02823 0.0
H2789 H 0.34632 0.04671 0.03544 0.0
C2790 C 0.27511 0.99139 0.02206 0.0
C2791 C 0.31815 0.00353 0.0335 0.0
C2792 C 0.33697 -0.00382 0.04109 0.0
C2793 C 0.28295 0.01912 0.02071 0.0
C2794 C 0.30916 0.03929 0.02534 0.0
C2795 C 0.32629 0.03122 0.03179 0.0
C2796 C 0.3196 0.06895 0.02356 0.0
C2797 C 0.26294 0.02647 1.0145 0.0
C2798 C 0.32179 0.08012 1.01033 0.0
C2799 C 0.33442 0.10847 1.00859 0.0
C2800 C 0.34551 0.12596 0.02 0.0
C2801 C 0.34271 0.11477 0.03325 0.0
C2802 C 0.32975 0.08648 0.03502 0.0
H2803 H 0.24148 0.00947 1.01562 0.0
H2804 H 0.26474 0.04512 1.01938 0.0
H2805 H 0.26724 0.03048 1.00329 0.0
H2806 H 0.31472 0.06704 1.00131 0.0
H2807 H 0.33659 0.11671 0.99826 0.0
H2808 H 0.09592 0.32154 0.0217 0.0
H2809 H 0.04816 0.28616 1.01867 0.0
H2810 H 0.02298 0.3456 0.02666 0.0
H2811 H 0.07089 0.38141 0.02922 0.0
H2812 H 0.00615 0.26572 0.03571 0.0
H2813 H 0.98307 0.31254 0.99132 0.0
H2814 H 0.0175 0.32507 0.99748 0.0
H2815 H -0.00452 0.33531 1.00584 0.0
C2816 C 0.08024 0.32713 0.0228 0.0
C2817 C 0.08717 0.35432 0.02562 0.0
C2818 C 0.05294 0.30686 0.02105 0.0
C2819 C 0.03203 0.31332 0.02216 0.0
C2820 C 0.03884 0.34031 0.02534 0.0
H2821 H 0.86259 0.20888 0.04006 0.0
H2822 H 0.91248 0.23518 0.04053 0.0
C2823 C 0.0662 0.36072 0.0269 0.0
C2824 C 0.00308 0.29166 0.02031 0.0
H2825 H 0.94446 0.27658 1.00311 0.0
C2826 C -0.00729 0.26795 0.02847 0.0
C2827 C 0.98573 0.29422 1.01062 0.0
C2828 C -0.00391 0.31802 1.00071 0.0
C2829 C 0.96519 0.24724 0.0276 0.0
C2830 C 0.94739 0.25077 1.01864 0.0
C2831 C 0.95803 0.27396 1.01009 0.0
C2832 C 0.91741 0.23173 1.01855 0.0
C2833 C 0.95557 0.2218 0.03626 0.0
C2834 C 0.90347 0.22109 1.00603 0.0
C2835 C 0.87487 0.20647 1.00571 0.0
C2836 C 0.85983 0.20221 1.01792 0.0
C2837 C 0.87374 0.2117 0.03052 0.0
C2838 C 0.90229 0.22658 0.03081 0.0
H2839 H 0.97257 0.21771 0.03832 0.0
H2840 H 0.9482 0.22481 0.04638 0.0
H2841 H 0.93862 0.20354 0.03116 0.0
H2842 H 0.91473 0.2249 0.99644 0.0
H2843 H 0.86455 0.19939 0.99587 0.0
H2844 H 0.77575 0.65374 0.99531 0.0
H2845 H 0.74906 0.67644 0.99899 0.0
H2846 H 0.77565 0.69201 0.04147 0.0
H2847 H 0.80213 0.66888 0.03789 0.0
H2848 H 0.71986 0.66347 0.03873 0.0
H2849 H 0.7643 0.75431 1.00453 0.0
H2850 H 0.75788 0.72371 0.99566 0.0
H2851 H 0.78275 0.73706 1.00936 0.0
C2852 C 0.77658 0.66276 1.00531 0.0
C2853 C 0.79081 0.65947 1.01635 0.0
C2854 C 0.76141 0.67582 1.00739 0.0
C2855 C 0.76049 0.686 0.02049 0.0
C2856 C 0.77618 0.68433 0.03128 0.0
H2857 H 0.66367 0.76415 0.03597 0.0
H2858 H 0.7005 0.7535 0.03513 0.0
C2859 C 0.79135 0.67123 0.02921 0.0
C2860 C 0.74033 0.69485 0.02332 0.0
H2861 H 0.71799 0.73756 1.01206 0.0
C2862 C 0.71965 0.67993 0.03304 0.0
C2863 C 0.74021 0.71639 1.01594 0.0
C2864 C 0.76264 0.73397 1.00589 0.0
C2865 C 0.69828 0.68537 0.03524 0.0
C2866 C 0.69737 0.70593 0.02733 0.0
C2867 C 0.71857 0.72153 1.01798 0.0
C2868 C 0.67454 0.71158 0.02855 0.0
C2869 C 0.67687 0.66906 0.046 0.0
C2870 C 0.64768 0.69142 0.02518 0.0
C2871 C 0.62643 0.69738 0.02567 0.0
C2872 C 0.63184 0.7237 0.02941 0.0
C2873 C 0.65876 0.74369 0.03296 0.0
C2874 C 0.67989 0.73768 0.0325 0.0
H2875 H 0.68441 0.65962 0.05362 0.0
H2876 H 0.6705 0.68212 0.05163 0.0
H2877 H 0.65856 0.65233 0.04085 0.0
H2878 H 0.64325 0.67126 0.02187 0.0
H2879 H 0.60598 0.68161 0.0228 0.0
H2880 H 0.74977 0.02625 0.83004 0.0
H2881 H 0.70056 0.00986 0.82995 0.0
H2882 H 0.71407 0.07832 0.85544 0.0
H2883 H 0.76317 0.09518 0.85527 0.0
H2884 H 0.66688 0.99359 0.85134 0.0
H2885 H 0.66416 0.08038 0.8265 0.0
H2886 H 0.6942 0.07679 0.82616 0.0
H2887 H 0.68707 0.09159 0.84097 0.0
C2888 C 0.74224 0.03789 0.83554 0.0
C2889 C 0.76029 0.06201 0.84264 0.0
C2890 C 0.71417 0.02859 0.83543 0.0
C2891 C 0.70374 0.04319 0.84245 0.0
C2892 C 0.72175 0.0672 0.84959 0.0
H2893 H 0.54622 0.97826 0.87958 0.0
H2894 H 0.59477 -0.00104 0.8738 0.0
C2895 C 0.7498 0.07667 0.84958 0.0
C2896 C 0.67386 0.0322 0.84332 0.0
H2897 H 0.62438 0.04981 0.83997 0.0
C2898 C 0.65755 0.00575 0.84867 0.0
C2899 C 0.66161 0.04791 0.83962 0.0
C2900 C 0.67765 0.07562 0.83285 0.0
C2901 C 0.62953 -0.00496 0.85101 0.0
C2902 C 0.61772 0.01154 0.84829 0.0
C2903 C 0.63368 0.03746 0.84231 0.0
C2904 C 0.58897 0.00229 0.85192 0.0
C2905 C 0.61288 0.96614 0.85641 0.0
C2906 C 0.56998 -0.00112 0.84165 0.0
C2907 C 0.54227 0.98746 0.84498 0.0
C2908 C 0.53336 0.97932 0.85861 0.0
C2909 C 0.55262 0.98419 0.86898 0.0
C2910 C 0.58026 -0.0042 0.86568 0.0
H2911 H 0.62271 0.9538 0.85396 0.0
H2912 H 0.61122 0.96672 0.86781 0.0
H2913 H 0.59189 0.95568 0.852 0.0
H2914 H 0.57641 0.00403 0.831 0.0
H2915 H 0.52773 0.98388 0.83681 0.0
H2916 H 0.87666 0.65364 0.84949 0.0
H2917 H 0.88745 0.61713 0.85242 0.0
H2918 H 0.97368 0.67635 0.85064 0.0
H2919 H 0.9632 0.71324 0.8477 0.0
H2920 H 0.91945 0.6041 0.83383 0.0
H2921 H 0.96283 0.63127 0.88676 0.0
H2922 H 0.94129 0.64337 0.87952 0.0
H2923 H 0.97678 0.65934 0.87475 0.0
C2924 C 0.89797 0.65902 0.84975 0.0
C2925 C 0.91912 0.6864 0.84837 0.0
C2926 C 0.90402 0.63808 0.85142 0.0
C2927 C 0.93129 0.64418 0.85189 0.0
C2928 C 0.95249 0.6714 0.85049 0.0
H2929 H 0.01956 0.56375 0.83832 0.0
H2930 H 0.99186 0.58577 0.83649 0.0
C2931 C 0.94647 0.69239 0.84875 0.0
C2932 C 0.93764 0.62199 0.85345 0.0
H2933 H 0.97122 0.59974 0.87424 0.0
C2934 C 0.93045 0.60285 0.84274 0.0
C2935 C 0.95146 0.6202 0.86521 0.0
C2936 C 0.95835 0.63947 0.8773 0.0
C2937 C 0.93822 0.58283 0.84312 0.0
C2938 C 0.95365 0.58223 0.85446 0.0
C2939 C 0.95943 0.60036 0.86554 0.0
C2940 C 0.96681 0.56532 0.85436 0.0
C2941 C 0.93043 0.56292 0.83127 0.0
C2942 C 0.96166 0.54636 0.86495 0.0
C2943 C 0.97749 0.53372 0.86601 0.0
C2944 C -0.00113 0.54034 0.85662 0.0
C2945 C 0.00318 0.5584 0.8457 0.0
C2946 C 0.98726 0.5708 0.84458 0.0
H2947 H 0.91205 0.56045 0.82576 0.0
H2948 H 0.94758 0.57082 0.82377 0.0
H2949 H 0.9263 0.54254 0.83492 0.0
H2950 H 0.94608 0.54211 0.87265 0.0
H2951 H 0.9739 0.51988 0.87453 0.0
H2952 H 0.33244 0.22079 0.84594 0.0
H2953 H 0.36704 0.26904 0.8486 0.0
H2954 H 0.3058 0.29193 0.8412 0.0
H2955 H 0.2709 0.24369 0.83854 0.0
H2956 H 0.38278 0.31434 0.82961 0.0
H2957 H 0.34079 0.32662 0.87932 0.0
H2958 H 0.3319 0.29352 0.87228 0.0
H2959 H 0.31626 0.31209 0.86554 0.0
C2960 C 0.32627 0.23604 0.84481 0.0
C2961 C 0.29882 0.22835 0.84212 0.0
C2962 C 0.34611 0.2636 0.84632 0.0
C2963 C 0.33883 0.2839 0.84528 0.0
C2964 C 0.31167 0.27643 0.84223 0.0
H2965 H 0.42697 0.45662 0.8348 0.0
H2966 H 0.4027 0.40694 0.83195 0.0
C2967 C 0.2918 0.24888 0.84065 0.0
C2968 C 0.35957 0.31291 0.84758 0.0
H2969 H 0.37521 0.3673 0.86862 0.0
C2970 C 0.38131 0.32593 0.83819 0.0
C2971 C 0.3578 0.32771 0.85893 0.0
C2972 C 0.33559 0.31428 0.86969 0.0
C2973 C 0.40078 0.35383 0.83955 0.0
C2974 C 0.39819 0.36897 0.85051 0.0
C2975 C 0.37707 0.35563 0.8602 0.0
C2976 C 0.41579 0.39902 0.85157 0.0
C2977 C 0.42384 0.36689 0.82922 0.0
C2978 C 0.43122 0.41102 0.86355 0.0
C2979 C 0.44508 0.43948 0.86522 0.0
C2980 C 0.44334 0.45616 0.85499 0.0
C2981 C 0.42863 0.44417 0.84283 0.0
C2982 C 0.41492 0.41582 0.84114 0.0
H2983 H 0.42773 0.35143 0.8242 0.0
H2984 H 0.41824 0.37694 0.82101 0.0
H2985 H 0.44303 0.3827 0.83419 0.0
H2986 H 0.43193 0.39833 0.87175 0.0
H2987 H 0.45624 0.4483 0.87471 0.0
H2988 H 0.63183 0.86684 0.04164 0.0
H2989 H 0.65623 0.91664 0.03888 0.0
H2990 H 0.68938 0.90886 1.00007 0.0
H2991 H 0.66457 0.85891 1.00266 0.0
H2992 H 0.71171 0.95619 0.03494 0.0
H2993 H 0.64705 0.94808 0.98976 0.0
H2994 H 0.63883 0.91948 1.001 0.0
H2995 H 0.6654 0.92977 0.98828 0.0
C2996 C 0.64457 0.8758 0.0326 0.0
C2997 C 0.64613 0.85917 0.02227 0.0
C2998 C 0.65852 0.90419 0.03105 0.0
C2999 C 0.6742 0.9163 1.01916 0.0
C3000 C 0.67697 0.89979 1.00919 0.0
H3001 H 0.76875 0.09515 1.00997 0.0
H3002 H 0.75653 0.04699 1.01078 0.0
C3003 C 0.66291 0.87136 1.0107 0.0
C3004 C 0.6861 0.946 1.01692 0.0
H3005 H 0.68013 0.99239 0.99681 0.0
C3006 C 0.70506 0.96421 0.02654 0.0
C3007 C 0.67704 0.9562 1.00602 0.0
C3008 C 0.6558 0.93743 0.99572 0.0
C3009 C 0.71486 0.99244 0.02571 0.0
C3010 C 0.70568 0.00259 1.01485 0.0
C3011 C 0.68719 0.98444 1.00506 0.0
C3012 C 0.71332 0.0317 1.01404 0.0
C3013 C 0.73401 0.01102 0.03677 0.0
C3014 C 0.69294 0.03888 1.01525 0.0
C3015 C 0.69977 0.06627 1.01471 0.0
C3016 C 0.72715 0.087 1.01292 0.0
C3017 C 0.7475 0.0797 1.01149 0.0
C3018 C 0.74061 0.05222 1.012 0.0
H3019 H 0.73472 -0.00066 0.04584 0.0
H3020 H 0.75501 0.02288 0.03246 0.0
H3021 H 0.72774 0.0258 0.04031 0.0
H3022 H 0.67174 0.02326 1.01679 0.0
H3023 H 0.68358 0.07115 1.01582 0.0
H3024 H 0.90778 0.59893 0.02171 0.0
H3025 H 0.9561 0.6324 0.02534 0.0
H3026 H 0.94405 0.69528 1.00698 0.0
H3027 H 0.89551 0.66211 1.00371 0.0
H3028 H -0.00444 0.66212 1.00753 0.0
H3029 H 0.98141 0.73175 0.04258 0.0
H3030 H 0.95372 0.69825 0.03796 0.0
H3031 H 0.96404 0.72676 0.0264 0.0
C3032 C 0.91544 0.61986 1.0184 0.0
C3033 C 0.89785 0.62796 1.01251 0.0
C3034 C 0.94301 0.63898 0.02054 0.0
C3035 C 0.9535 0.66646 1.01674 0.0
C3036 C 0.93618 0.67439 1.0104 0.0
H3037 H 0.12467 0.77895 1.00289 0.0
H3038 H 0.07494 0.75063 1.00118 0.0
C3039 C 0.90852 0.65535 1.00842 0.0
C3040 C 0.9828 0.68656 1.01898 0.0
H3041 H 0.02654 0.74849 0.03362 0.0
C3042 C 0.00231 0.68092 1.0133 0.0
C3043 C 0.99156 0.71086 0.02672 0.0
C3044 C 0.97158 0.71716 0.03389 0.0
C3045 C 0.03038 0.69914 1.0149 0.0
C3046 C 0.03914 0.72412 0.022 0.0
C3047 C 0.01969 0.72952 0.02799 0.0
C3048 C 0.0685 0.74473 0.02325 0.0
C3049 C 0.05034 0.69124 1.00913 0.0
C3050 C 0.08107 0.75231 0.03627 0.0
C3051 C 0.10951 0.76902 0.03728 0.0
C3052 C 0.12552 0.77806 0.02526 0.0
C3053 C 0.1127 0.77193 1.0123 0.0
C3054 C 0.08437 0.75564 1.0113 0.0
H3055 H 0.04063 0.66873 1.00772 0.0
H3056 H 0.05761 0.70098 0.99887 0.0
H3057 H 0.06839 0.69819 1.016 0.0
H3058 H 0.06906 0.74426 0.04561 0.0
H3059 H 0.11904 0.77353 0.04739 0.0
H3060 H 0.19664 0.32234 0.03867 0.0
H3061 H 0.22353 0.29904 0.03721 0.0
H3062 H 0.25864 0.34038 0.99872 0.0
H3063 H 0.23165 0.3632 1.00001 0.0
H3064 H 0.24377 0.28535 0.9984 0.0
H3065 H 0.3064 0.33957 0.04454 0.0
H3066 H 0.27001 0.32035 0.04726 0.0
H3067 H 0.28436 0.34977 0.03613 0.0
C3068 C 0.20989 0.32614 0.02985 0.0
C3069 C 0.21227 0.34462 1.01949 0.0
C3070 C 0.22531 0.31299 0.02906 0.0
C3071 C 0.24335 0.31836 1.01796 0.0
C3072 C 0.24489 0.33604 1.00738 0.0
H3073 H 0.38843 0.30635 1.01004 0.0
H3074 H 0.35391 0.32028 1.01194 0.0
C3075 C 0.22951 0.34908 1.00815 0.0
C3076 C 0.26155 0.30657 1.01744 0.0
H3077 H 0.31664 0.30876 0.03327 0.0
C3078 C 0.25958 0.29025 1.00607 0.0
C3079 C 0.28238 0.31343 0.02737 0.0
C3080 C 0.28619 0.33192 0.03947 0.0
C3081 C 0.27815 0.28084 1.00425 0.0
C3082 C 0.29888 0.28758 1.01422 0.0
C3083 C 0.30063 0.3036 0.02568 0.0
C3084 C 0.31951 0.27892 1.01275 0.0
C3085 C 0.27601 0.2646 0.99144 0.0
C3086 C 0.31154 0.25107 1.01263 0.0
C3087 C 0.33117 0.24303 1.01147 0.0
C3088 C 0.35917 0.26272 1.01055 0.0
C3089 C 0.36707 0.29064 1.0107 0.0
C3090 C 0.34739 0.29865 1.01182 0.0
H3091 H 0.26346 0.26696 0.9833 0.0
H3092 H 0.2966 0.27101 0.98713 0.0
H3093 H 0.26613 0.24256 0.99414 0.0
H3094 H 0.29016 0.23555 1.01361 0.0
H3095 H 0.32433 0.22134 1.01148 0.0
H3096 H 0.11772 0.3225 0.49211 0.0
H3097 H 0.06742 0.29636 0.49352 0.0
H3098 H 0.07125 0.3275 0.53468 0.0
H3099 H 0.1211 0.35325 0.53338 0.0
H3100 H 0.0314 0.27113 0.53121 0.0
H3101 H 0.02517 0.33908 0.49136 0.0
H3102 H 0.04312 0.32141 0.48666 0.0
H3103 H 0.05687 0.34731 0.49981 0.0
C3104 C 0.10773 0.32328 0.50152 0.0
C3105 C 0.12309 0.34005 0.51257 0.0
C3106 C 0.07911 0.30851 0.50229 0.0
C3107 C 0.06574 0.3104 0.51413 0.0
C3108 C 0.08123 0.32586 0.52545 0.0
H3109 H 0.91293 0.30138 0.5302 0.0
H3110 H 0.96067 0.31338 0.5269 0.0
C3111 C 0.10966 0.34062 0.52467 0.0
C3112 C 0.03573 0.29827 0.51455 0.0
H3113 H 0.98415 0.30716 0.50208 0.0
C3114 C 0.02091 0.27866 0.52473 0.0
C3115 C 0.02237 0.30857 0.50619 0.0
C3116 C 0.03761 0.33039 0.49544 0.0
C3117 C -0.00691 0.26949 0.527 0.0
C3118 C 0.97985 0.28008 0.51876 0.0
C3119 C -0.00551 0.29916 0.50836 0.0
C3120 C 0.95104 0.27245 0.52111 0.0
C3121 C 0.97837 0.24946 0.53855 0.0
C3122 C 0.92997 0.24551 0.51891 0.0
C3123 C 0.90274 0.23857 0.52082 0.0
C3124 C 0.89611 0.25852 0.52488 0.0
C3125 C 0.91733 0.28552 0.52711 0.0
C3126 C 0.94458 0.29243 0.5252 0.0
H3127 H -0.00717 0.24772 0.54569 0.0
H3128 H 0.9656 0.25566 0.54458 0.0
H3129 H 0.96461 0.22891 0.53409 0.0
H3130 H 0.93456 0.22994 0.51552 0.0
H3131 H 0.88692 0.2176 0.51891 0.0
H3132 H 0.649 0.77544 0.53427 0.0
H3133 H 0.67255 0.74917 0.53604 0.0
H3134 H 0.69103 0.76081 0.49246 0.0
H3135 H 0.6669 0.78671 0.49059 0.0
H3136 H 0.66556 0.70731 0.49989 0.0
H3137 H 0.75173 0.76778 0.5356 0.0
H3138 H 0.7196 0.76164 0.54247 0.0
H3139 H 0.73317 0.78202 0.5271 0.0
C3140 C 0.65867 0.77296 0.52514 0.0
C3141 C 0.65613 0.78298 0.51228 0.0
C3142 C 0.67225 0.75807 0.52617 0.0
C3143 C 0.68375 0.75325 0.5144 0.0
C3144 C 0.68236 0.76441 0.50167 0.0
H3145 H 0.77345 0.66522 0.51771 0.0
H3146 H 0.75974 0.69943 0.51418 0.0
C3147 C 0.66869 0.77925 0.50062 0.0
C3148 C 0.6944 0.73406 0.51514 0.0
H3149 H 0.73853 0.72042 0.53278 0.0
C3150 C 0.68176 0.71033 0.50695 0.0
C3151 C 0.71564 0.73814 0.52429 0.0
C3152 C 0.73101 0.76392 0.53276 0.0
C3153 C 0.68923 0.69014 0.50798 0.0
C3154 C 0.70945 0.69355 0.51766 0.0
C3155 C 0.72272 0.71768 0.52552 0.0
C3156 C 0.71736 0.67245 0.5197 0.0
C3157 C 0.67552 0.66545 0.49863 0.0
C3158 C 0.69805 0.64594 0.52409 0.0
C3159 C 0.70577 0.62619 0.52607 0.0
C3160 C 0.73302 0.63276 0.52387 0.0
C3161 C 0.75231 0.65945 0.51959 0.0
C3162 C 0.74454 0.67908 0.51754 0.0
H3163 H 0.66642 0.66952 0.48939 0.0
H3164 H 0.69024 0.65906 0.49514 0.0
H3165 H 0.65876 0.64816 0.50437 0.0
H3166 H 0.67706 0.64061 0.52608 0.0
H3167 H 0.69047 0.6059 0.52945 0.0
H3168 H 0.19669 0.86649 0.5339 0.0
H3169 H 0.22128 0.91544 0.53961 0.0
H3170 H 0.26242 0.93333 0.50018 0.0
H3171 H 0.23773 0.88464 0.49438 0.0
H3172 H 0.2778 0.94706 0.54156 0.0
H3173 H 0.23789 0.99007 0.50262 0.0
H3174 H 0.22072 0.95402 0.50676 0.0
H3175 H 0.24936 0.9685 0.49505 0.0
C3176 C 0.21055 0.88099 0.52636 0.0
C3177 C 0.21535 0.87197 0.5137 0.0
C3178 C 0.2246 0.90884 0.52964 0.0
C3179 C 0.2434 0.92793 0.52025 0.0
C3180 C 0.24757 0.91895 0.50744 0.0
H3181 H 0.3885 0.08324 0.53075 0.0
H3182 H 0.35403 0.03456 0.52957 0.0
C3183 C 0.23357 0.89116 0.50416 0.0
C3184 C 0.26046 0.95696 0.52419 0.0
H3185 H 0.2808 0.0217 0.51317 0.0
C3186 C 0.27821 0.96344 0.5355 0.0
C3187 C 0.26067 0.97817 0.51635 0.0
C3188 C 0.24093 0.97237 0.5046 0.0
C3189 C 0.29712 0.99072 0.53881 0.0
C3190 C 0.29851 0.01187 0.53042 0.0
C3191 C 0.27991 0.00539 0.51949 0.0
C3192 C 0.3195 0.04087 0.53248 0.0
C3193 C 0.31546 -0.0034 0.5512 0.0
C3194 C 0.31147 0.06046 0.53441 0.0
C3195 C 0.33102 0.08819 0.53489 0.0
C3196 C 0.359 0.09686 0.53345 0.0
C3197 C 0.36711 0.07716 0.53196 0.0
C3198 C 0.34746 0.04935 0.53137 0.0
H3199 H 0.3064 0.97948 0.55876 0.0
H3200 H 0.33537 -0.00084 0.54776 0.0
H3201 H 0.3194 0.01571 0.55649 0.0
H3202 H 0.28999 0.0543 0.53526 0.0
H3203 H 0.32411 0.10285 0.53617 0.0
H3204 H 0.00571 0.4463 0.33354 0.0
H3205 H 0.98363 0.3967 0.33689 0.0
H3206 H 0.98611 0.40813 0.38108 0.0
H3207 H 0.00909 0.45772 0.37777 0.0
H3208 H 0.00616 0.37634 0.37426 0.0
H3209 H 0.90729 0.3393 0.34735 0.0
H3210 H 0.93581 0.3604 0.33638 0.0
H3211 H 0.92955 0.37493 0.35157 0.0
C3212 C 0.00109 0.43812 0.34394 0.0
C3213 C 0.00906 0.45566 0.3554 0.0
C3214 C 0.98833 0.40981 0.34585 0.0
C3215 C 0.98291 0.3987 0.35924 0.0
C3216 C 0.99006 0.41627 0.37067 0.0
H3217 H 0.88981 0.22241 0.37254 0.0
H3218 H 0.90577 0.27144 0.3732 0.0
C3219 C 0.00312 0.44454 0.36877 0.0
C3220 C 0.97199 0.36905 0.36138 0.0
H3221 H 0.92068 0.30579 0.35187 0.0
C3222 C 0.98728 0.3609 0.3695 0.0
C3223 C 0.94719 0.34895 0.35532 0.0
C3224 C 0.92888 0.35633 0.3473 0.0
C3225 C 0.97887 0.33318 0.37141 0.0
C3226 C 0.95496 0.31313 0.36467 0.0
C3227 C 0.9392 0.32123 0.35689 0.0
C3228 C 0.94616 0.28366 0.36526 0.0
C3229 C -0.0044 0.3257 0.38071 0.0
C3230 C 0.96367 0.27432 0.36066 0.0
C3231 C 0.95473 0.24634 0.36043 0.0
C3232 C 0.92793 0.22725 0.36453 0.0
C3233 C 0.91054 0.23666 0.36925 0.0
C3234 C 0.91961 0.26464 0.36964 0.0
H3235 H 0.0074 0.3421 0.38839 0.0
H3236 H 0.98243 0.30629 0.38633 0.0
H3237 H 0.0105 0.32305 0.37436 0.0
H3238 H 0.984 0.2886 0.3569 0.0
H3239 H 0.96846 0.23966 0.35657 0.0
H3240 H 0.73992 0.71846 0.35767 0.0
H3241 H 0.69173 0.68257 0.35701 0.0
H3242 H 0.71441 0.62184 0.36648 0.0
H3243 H 0.76255 0.65738 0.36699 0.0
H3244 H 0.6796 0.6072 0.34446 0.0
H3245 H 0.63957 0.63987 0.38838 0.0
H3246 H 0.65789 0.66661 0.37599 0.0
H3247 H 0.6757 0.65309 0.38566 0.0
C3248 C 0.73465 0.69752 0.35978 0.0
C3249 C 0.75513 0.69083 0.36235 0.0
C3250 C 0.70708 0.67704 0.35946 0.0
C3251 C 0.69948 0.64958 0.36184 0.0
C3252 C 0.71983 0.64291 0.36463 0.0
H3253 H 0.52768 0.52385 0.37142 0.0
H3254 H 0.57734 0.55103 0.37484 0.0
C3255 C 0.74736 0.66331 0.36491 0.0
C3256 C 0.67049 0.6276 0.36069 0.0
H3257 H 0.60634 0.60676 0.373 0.0
C3258 C 0.66359 0.60694 0.35079 0.0
C3259 C 0.64972 0.62703 0.36911 0.0
C3260 C 0.65607 0.64767 0.38048 0.0
C3261 C 0.63633 0.58627 0.34874 0.0
C3262 C 0.6154 0.58659 0.35664 0.0
C3263 C 0.62241 0.60667 0.36688 0.0
C3264 C 0.586 0.56721 0.35402 0.0
C3265 C 0.63023 0.56431 0.33815 0.0
C3266 C 0.5745 0.56686 0.34111 0.0
C3267 C 0.54622 0.55125 0.33913 0.0
C3268 C 0.52898 0.53596 0.35006 0.0
C3269 C 0.54057 0.53538 0.3628 0.0
C3270 C 0.56887 0.55096 0.36478 0.0
H3271 H 0.64834 0.56189 0.33628 0.0
H3272 H 0.61281 0.54427 0.34145 0.0
H3273 H 0.62473 0.57013 0.32822 0.0
H3274 H 0.58723 0.57965 0.33275 0.0
H3275 H 0.53777 0.55221 0.32923 0.0
H3276 H 0.33339 0.10587 0.36456 0.0
H3277 H 0.3704 0.09562 0.36195 0.0
H3278 H 0.31114 0.00962 0.35822 0.0
H3279 H 0.27394 0.01964 0.36054 0.0
H3280 H 0.38396 0.06362 0.37741 0.0
H3281 H 0.3583 0.024 0.32398 0.0
H3282 H 0.34386 0.04279 0.33205 0.0
H3283 H 0.32951 0.00676 0.33538 0.0
C3284 C 0.32818 0.08475 0.36319 0.0
C3285 C 0.30069 0.06356 0.36263 0.0
C3286 C 0.34938 0.07897 0.36169 0.0
C3287 C 0.34345 0.05197 0.35958 0.0
C3288 C 0.31608 0.0307 0.35946 0.0
H3289 H 0.42602 0.96579 0.37457 0.0
H3290 H 0.40392 0.9934 0.37578 0.0
C3291 C 0.29487 0.03644 0.36089 0.0
C3292 C 0.36578 0.04579 0.35777 0.0
H3293 H 0.38714 0.0117 0.33674 0.0
C3294 C 0.38497 0.05264 0.36843 0.0
C3295 C 0.36752 0.03219 0.34588 0.0
C3296 C 0.34887 0.02628 0.33361 0.0
C3297 C 0.40475 0.04455 0.36791 0.0
C3298 C 0.40485 0.02876 0.35658 0.0
C3299 C 0.38684 0.02354 0.34551 0.0
C3300 C 0.42126 0.01497 0.3566 0.0
C3301 C 0.42502 0.05262 0.3796 0.0
C3302 C 0.43814 0.0177 0.34533 0.0
C3303 C 0.4505 0.00158 0.34452 0.0
C3304 C 0.44601 0.98251 0.35496 0.0
C3305 C 0.42989 0.98046 0.36642 0.0
C3306 C 0.41746 -0.00357 0.36719 0.0
H3307 H 0.429 0.07218 0.38441 0.0
H3308 H 0.41641 0.03659 0.38772 0.0
H3309 H 0.44477 0.0549 0.37604 0.0
H3310 H 0.4411 0.03172 0.33699 0.0
H3311 H 0.46286 0.00346 0.33557 0.0
H3312 H 0.19305 0.3824 0.05655 0.0
H3313 H 0.19047 0.35327 0.07615 0.0
H3314 H 0.12297 0.35931 0.09305 0.0
H3315 H 0.12509 0.38778 0.07357 0.0
H3316 H 0.17372 0.37074 0.11179 0.0
H3317 H 0.11921 0.27139 0.0835 0.0
H3318 H 0.14777 0.301 0.0757 0.0
H3319 H 0.11586 0.30017 0.07801 0.0
C3320 C 0.17759 0.37731 0.06442 0.0
C3321 C 0.15916 0.38718 0.06352 0.0
C3322 C 0.17623 0.36084 0.07561 0.0
C3323 C 0.15657 0.35428 0.08602 0.0
C3324 C 0.13834 0.36427 0.08513 0.0
H3325 H 0.06178 0.25232 0.14805 0.0
H3326 H 0.08558 0.27912 0.12771 0.0
C3327 C 0.13956 0.38047 0.07398 0.0
C3328 C 0.15409 0.33657 0.09784 0.0
H3329 H 0.1196 0.26956 0.10779 0.0
C3330 C 0.1626 0.3486 0.11093 0.0
C3331 C 0.13949 0.30776 0.09661 0.0
C3332 C 0.12996 0.29408 0.08273 0.0
C3333 C 0.15537 0.33248 0.12295 0.0
C3334 C 0.13918 0.3037 0.12179 0.0
C3335 C 0.13214 0.29165 0.10862 0.0
C3336 C 0.12543 0.28632 0.13398 0.0
C3337 C 0.16343 0.34634 0.13687 0.0
C3338 C 0.13997 0.28123 0.14423 0.0
C3339 C 0.12626 0.26562 0.15592 0.0
C3340 C 0.09799 0.25528 0.15753 0.0
C3341 C 0.08358 0.26009 0.14712 0.0
C3342 C 0.09714 0.27537 0.13547 0.0
H3343 H 0.17426 0.36902 0.13602 0.0
H3344 H 0.145 0.33952 0.14345 0.0
H3345 H 0.17713 0.34041 0.14216 0.0
H3346 H 0.16181 0.28937 0.1432 0.0
H3347 H 0.13773 0.26177 0.16369 0.0
H3348 H 0.62545 0.79361 0.05193 0.0
H3349 H 0.65688 0.81847 0.07104 0.0
H3350 H 0.60098 0.75775 0.09973 0.0
H3351 H 0.56943 0.73312 0.08078 0.0
H3352 H 0.64118 0.83465 0.10115 0.0
H3353 H 0.68176 0.76273 0.09913 0.0
H3354 H 0.66713 0.76986 0.08421 0.0
H3355 H 0.64525 0.74833 0.09774 0.0
C3356 C 0.61961 0.78599 0.06234 0.0
C3357 C 0.59496 0.7616 0.06491 0.0
C3358 C 0.63758 0.80012 0.07322 0.0
C3359 C 0.6311 0.7899 0.08674 0.0
C3360 C 0.60621 0.76595 0.08935 0.0
H3361 H 0.69349 0.83396 0.16899 0.0
H3362 H 0.66809 0.82704 0.14751 0.0
C3363 C 0.58829 0.7519 0.07852 0.0
C3364 C 0.65106 0.80279 0.09807 0.0
H3365 H 0.695 0.79292 0.11811 0.0
C3366 C 0.65324 0.82582 0.10481 0.0
C3367 C 0.66678 0.79123 0.10269 0.0
C3368 C 0.66538 0.76675 0.09557 0.0
C3369 C 0.67034 0.83718 0.1164 0.0
C3370 C 0.68525 0.82489 0.12137 0.0
C3371 C 0.68359 0.80235 0.11431 0.0
C3372 C 0.70187 0.83408 0.13419 0.0
C3373 C 0.67225 0.86214 0.1232 0.0
C3374 C 0.72933 0.84047 0.1339 0.0
C3375 C 0.7438 0.84445 0.14619 0.0
C3376 C 0.73121 0.84246 0.15898 0.0
C3377 C 0.70411 0.83707 0.15929 0.0
C3378 C 0.68951 0.83288 0.14698 0.0
H3379 H 0.66654 0.87371 0.11594 0.0
H3380 H 0.65788 0.8556 0.13207 0.0
H3381 H 0.69325 0.87604 0.12713 0.0
H3382 H 0.7392 0.84122 0.12418 0.0
H3383 H 0.76456 0.8481 0.14573 0.0
H3384 H 0.15557 0.92428 0.14362 0.0
H3385 H 0.16397 0.90175 0.12424 0.0
H3386 H 0.1586 0.839 0.1517 0.0
H3387 H 0.15197 0.86262 0.17125 0.0
H3388 H 0.20135 0.85627 0.13619 0.0
H3389 H 0.11547 0.83601 0.10171 0.0
H3390 H 0.13414 0.87156 0.10623 0.0
H3391 H 0.11664 0.84622 0.11949 0.0
C3392 C 0.15581 0.90546 0.14549 0.0
C3393 C 0.15239 0.89477 0.1589 0.0
C3394 C 0.16029 0.8924 0.13436 0.0
C3395 C 0.16108 0.86815 0.13639 0.0
C3396 C 0.15755 0.85738 0.14981 0.0
H3397 H 0.18752 0.79067 0.06288 0.0
H3398 H 0.16543 0.79752 0.08325 0.0
C3399 C 0.15338 0.87067 0.16098 0.0
C3400 C 0.16834 0.85576 0.12473 0.0
H3401 H 0.15525 0.83832 0.09062 0.0
C3402 C 0.1909 0.85188 0.12631 0.0
C3403 C 0.15446 0.84942 0.11188 0.0
C3404 C 0.12865 0.85073 0.10979 0.0
C3405 C 0.20093 0.84345 0.11522 0.0
C3406 C 0.18863 0.83963 0.10205 0.0
C3407 C 0.16503 0.84179 0.10065 0.0
C3408 C 0.20123 0.8354 0.0895 0.0
C3409 C 0.22487 0.83907 0.11772 0.0
C3410 C 0.2283 0.85477 0.08604 0.0
C3411 C 0.24086 0.85081 0.07458 0.0
C3412 C 0.22649 0.82763 0.06616 0.0
C3413 C 0.19904 0.80868 0.06925 0.0
C3414 C 0.18646 0.81256 0.08087 0.0
H3415 H 0.22547 0.83331 0.12864 0.0
H3416 H 0.22403 0.82284 0.11089 0.0
H3417 H 0.24422 0.85844 0.11563 0.0
H3418 H 0.23982 0.87299 0.09227 0.0
H3419 H 0.26193 0.86596 0.07231 0.0
H3420 H 0.389 0.13134 0.48655 0.0
H3421 H 0.36019 0.12612 0.46665 0.0
H3422 H 0.35127 0.1936 0.481 0.0
H3423 H 0.38087 0.19941 0.50097 0.0
H3424 H 0.29912 0.13328 0.47185 0.0
H3425 H 0.38371 0.19055 0.43437 0.0
H3426 H 0.38802 0.16885 0.44655 0.0
H3427 H 0.38716 0.19847 0.45263 0.0
C3428 C 0.38098 0.14513 0.48549 0.0
C3429 C 0.38711 0.16574 0.49532 0.0
C3430 C 0.36455 0.14212 0.47412 0.0
C3431 C 0.35379 0.15955 0.47235 0.0
C3432 C 0.3595 0.18001 0.48221 0.0
H3433 H 0.26093 0.13484 0.39444 0.0
H3434 H 0.2872 0.15915 0.41521 0.0
C3435 C 0.37625 0.18321 0.49361 0.0
C3436 C 0.33635 0.15565 0.46017 0.0
H3437 H 0.3396 0.16026 0.42497 0.0
C3438 C 0.30786 0.13977 0.46163 0.0
C3439 C 0.34786 0.16418 0.44687 0.0
C3440 C 0.37837 0.18163 0.44491 0.0
C3441 C 0.29067 0.13067 0.44999 0.0
C3442 C 0.30236 0.13754 0.43663 0.0
C3443 C 0.33069 0.15503 0.43523 0.0
C3444 C 0.28614 0.1235 0.42416 0.0
C3445 C 0.26023 0.11266 0.45201 0.0
C3446 C 0.27728 0.09566 0.42229 0.0
C3447 C 0.26292 0.08203 0.41042 0.0
C3448 C 0.25698 0.09591 0.40017 0.0
C3449 C 0.26564 0.12379 0.40207 0.0
C3450 C 0.28041 0.1376 0.41395 0.0
H3451 H 0.2538 0.11505 0.46253 0.0
H3452 H 0.24873 0.11741 0.44424 0.0
H3453 H 0.25463 0.09092 0.45067 0.0
H3454 H 0.28181 0.08451 0.42996 0.0
H3455 H 0.25657 0.06056 0.40927 0.0
H3456 H 0.89259 0.1216 0.41059 0.0
H3457 H 0.87139 0.12875 0.43096 0.0
H3458 H 0.8412 0.17122 0.40583 0.0
H3459 H 0.86093 0.16238 0.38529 0.0
H3460 H 0.88716 0.17506 0.44152 0.0
H3461 H 0.77715 0.13177 0.43049 0.0
H3462 H 0.79879 0.12399 0.41996 0.0
H3463 H 0.79751 0.15491 0.41707 0.0
C3464 C 0.88063 0.13166 0.40938 0.0
C3465 C 0.87828 0.14138 0.39642 0.0
C3466 C 0.86859 0.13583 0.42102 0.0
C3467 C 0.85452 0.15045 0.42002 0.0
C3468 C 0.85124 0.15923 0.40691 0.0
H3469 H 0.86047 0.26123 0.48155 0.0
H3470 H 0.86558 0.23673 0.4621 0.0
C3471 C 0.86269 0.15435 0.39515 0.0
C3472 C 0.84684 0.15964 0.43284 0.0
H3473 H 0.79621 0.16686 0.4482 0.0
C3474 C 0.86706 0.17277 0.44302 0.0
C3475 C 0.82056 0.15648 0.43502 0.0
C3476 C 0.79721 0.14074 0.42511 0.0
C3477 C 0.86215 0.18362 0.45498 0.0
C3478 C 0.83664 0.18237 0.45664 0.0
C3479 C 0.81593 0.16823 0.44681 0.0
C3480 C 0.83195 0.19709 0.46807 0.0
C3481 C 0.88451 0.19644 0.46572 0.0
C3482 C 0.8105 0.18319 0.47758 0.0
C3483 C 0.80722 0.19737 0.48865 0.0
C3484 C 0.82546 0.22554 0.49036 0.0
C3485 C 0.84632 0.23945 0.4806 0.0
C3486 C 0.84938 0.22543 0.46952 0.0
H3487 H 0.89823 0.18761 0.46531 0.0
H3488 H 0.89719 0.21872 0.46367 0.0
H3489 H 0.87591 0.19356 0.47631 0.0
H3490 H 0.79661 0.16137 0.47656 0.0
H3491 H 0.79059 0.18632 0.49587 0.0
H3492 H 0.84758 0.76377 0.41216 0.0
H3493 H 0.84191 0.73497 0.43216 0.0
H3494 H 0.81768 0.66563 0.40517 0.0
H3495 H 0.82417 0.69474 0.38511 0.0
H3496 H 0.79457 0.69329 0.43982 0.0
H3497 H 0.86714 0.65546 0.4314 0.0
H3498 H 0.86905 0.68376 0.42177 0.0
H3499 H 0.84476 0.64906 0.41698 0.0
C3500 C 0.84169 0.74252 0.41049 0.0
C3501 C 0.83659 0.73148 0.39712 0.0
C3502 C 0.83844 0.72609 0.42191 0.0
C3503 C 0.82966 0.69818 0.42019 0.0
C3504 C 0.82521 0.68725 0.40676 0.0
H3505 H 0.74943 0.56103 0.47563 0.0
H3506 H 0.7703 0.5912 0.45565 0.0
C3507 C 0.82889 0.70387 0.39529 0.0
C3508 C 0.82228 0.68018 0.43251 0.0
H3509 H 0.83269 0.63229 0.44872 0.0
C3510 C 0.8032 0.68022 0.44182 0.0
C3511 C 0.83341 0.66299 0.4351 0.0
C3512 C 0.85493 0.66296 0.42586 0.0
C3513 C 0.79462 0.66332 0.45351 0.0
C3514 C 0.80542 0.6459 0.45597 0.0
C3515 C 0.82454 0.64578 0.44675 0.0
C3516 C 0.7961 0.62708 0.46791 0.0
C3517 C 0.77362 0.66373 0.46303 0.0
C3518 C 0.80417 0.63726 0.48135 0.0
C3519 C 0.79234 0.62006 0.49274 0.0
C3520 C 0.77232 0.59252 0.49084 0.0
C3521 C 0.76497 0.5822 0.47735 0.0
C3522 C 0.7769 0.59932 0.46596 0.0
H3523 H 0.76475 0.67585 0.45873 0.0
H3524 H 0.75677 0.64254 0.46505 0.0
H3525 H 0.78337 0.67286 0.47309 0.0
H3526 H 0.81879 0.65874 0.48302 0.0
H3527 H 0.79771 0.62871 0.50296 0.0
H3528 H 0.86155 0.69384 0.87063 0.0
H3529 H 0.84182 0.66807 0.89183 0.0
H3530 H 0.88026 0.74339 0.9152 0.0
H3531 H 0.90134 0.76895 0.89396 0.0
H3532 H 0.89146 0.71054 0.92673 0.0
H3533 H 0.7805 0.65105 0.91693 0.0
H3534 H 0.79829 0.64468 0.90342 0.0
H3535 H 0.80342 0.67868 0.90575 0.0
C3536 C 0.86501 0.70495 0.88021 0.0
C3537 C 0.88253 0.73339 0.88066 0.0
C3538 C 0.8536 0.69019 0.89238 0.0
C3539 C 0.85902 0.7037 0.9052 0.0
C3540 C 0.87559 0.73239 0.90549 0.0
H3541 H 0.78957 0.60301 0.98052 0.0
H3542 H 0.79803 0.63584 0.96181 0.0
C3543 C 0.88752 0.74704 0.89336 0.0
C3544 C 0.8506 0.68777 0.91836 0.0
H3545 H 0.79788 0.6321 0.93416 0.0
C3546 C 0.8708 0.69375 0.92841 0.0
C3547 C 0.82359 0.66605 0.92083 0.0
C3548 C 0.8002 0.65999 0.91121 0.0
C3549 C 0.86518 0.67795 0.94043 0.0
C3550 C 0.83889 0.65471 0.94226 0.0
C3551 C 0.81822 0.64955 0.93264 0.0
C3552 C 0.8332 0.63475 0.95361 0.0
C3553 C 0.88766 0.68637 0.95101 0.0
C3554 C 0.84965 0.62274 0.95504 0.0
C3555 C 0.84528 0.60468 0.96586 0.0
C3556 C 0.82399 0.59774 0.97537 0.0
C3557 C 0.80669 0.60876 0.97363 0.0
C3558 C 0.81132 0.62723 0.96285 0.0
H3559 H 0.90208 0.70882 0.9507 0.0
H3560 H 0.87927 0.68067 0.96164 0.0
H3561 H 0.89958 0.67608 0.94865 0.0
H3562 H 0.86602 0.62739 0.94778 0.0
H3563 H 0.85872 0.59621 0.96678 0.0
H3564 H 0.25781 0.12005 0.87589 0.0
H3565 H 0.28421 0.12482 0.89697 0.0
H3566 H 0.29201 0.20379 0.90461 0.0
H3567 H 0.26562 0.19901 0.8838 0.0
H3568 H 0.33647 0.16363 0.90459 0.0
H3569 H 0.26201 0.16509 0.94111 0.0
H3570 H 0.25339 0.15425 0.92338 0.0
H3571 H 0.27068 0.19011 0.92775 0.0
C3572 C 0.26528 0.13841 0.88208 0.0
C3573 C 0.25962 0.15911 0.87829 0.0
C3574 C 0.28022 0.14107 0.89412 0.0
C3575 C 0.28948 0.16436 0.90254 0.0
C3576 C 0.28437 0.18528 0.89851 0.0
H3577 H 0.42178 0.25139 0.95673 0.0
H3578 H 0.39098 0.22773 0.93751 0.0
C3579 C 0.26943 0.1826 0.88657 0.0
C3580 C 0.30519 0.16757 0.91536 0.0
H3581 H 0.30863 0.18547 0.94928 0.0
C3582 C 0.33018 0.16791 0.91443 0.0
C3583 C 0.29668 0.17245 0.92829 0.0
C3584 C 0.26906 0.17015 0.93024 0.0
C3585 C 0.34777 0.17496 0.92586 0.0
C3586 C 0.34041 0.18245 0.93843 0.0
C3587 C 0.31454 0.18016 0.9396 0.0
C3588 C 0.36002 0.1951 0.95004 0.0
C3589 C 0.37425 0.17472 0.92427 0.0
C3590 C 0.35267 0.18511 0.96359 0.0
C3591 C 0.37018 0.19896 0.97466 0.0
C3592 C 0.39525 0.22296 0.97235 0.0
C3593 C 0.40267 0.23274 0.9588 0.0
C3594 C 0.38519 0.21905 0.94777 0.0
H3595 H 0.37221 0.15937 0.91645 0.0
H3596 H 0.39046 0.19512 0.92062 0.0
H3597 H 0.38092 0.17009 0.9342 0.0
H3598 H 0.33313 0.16693 0.96563 0.0
H3599 H 0.36366 0.19147 0.98501 0.0
H3600 H 0.86426 0.13795 0.87587 0.0
H3601 H 0.8554 0.1592 0.89588 0.0
H3602 H 0.78686 0.08074 0.90728 0.0
H3603 H 0.79477 0.05992 0.88701 0.0
H3604 H 0.77347 0.11962 0.90846 0.0
H3605 H 0.87181 0.15513 0.93612 0.0
H3606 H 0.87528 0.16817 0.91887 0.0
H3607 H 0.86166 0.1321 0.92156 0.0
C3608 C 0.84716 0.12539 0.88259 0.0
C3609 C 0.82999 0.09739 0.87981 0.0
C3610 C 0.84236 0.13744 0.89414 0.0
C3611 C 0.82065 0.12151 0.90322 0.0
C3612 C 0.80373 0.09348 0.90045 0.0
H3613 H 0.78067 0.14083 0.98624 0.0
H3614 H 0.80103 0.1344 0.96519 0.0
C3615 C 0.80832 0.08157 0.88888 0.0
C3616 C 0.81465 0.13374 0.9154 0.0
H3617 H 0.84043 0.16628 0.9462 0.0
C3618 C 0.78818 0.12997 0.91667 0.0
C3619 C 0.83378 0.14705 0.92618 0.0
C3620 C 0.86215 0.15069 0.92573 0.0
C3621 C 0.78005 0.13842 0.92851 0.0
C3622 C 0.79922 0.15194 0.93925 0.0
C3623 C 0.82588 0.15622 0.93789 0.0
C3624 C 0.79116 0.15973 0.95237 0.0
C3625 C 0.75058 0.13157 0.92964 0.0
C3626 C 0.77996 0.17708 0.95232 0.0
C3627 C 0.76816 0.18055 0.96431 0.0
C3628 C 0.76808 0.16733 0.97659 0.0
C3629 C 0.78093 0.15155 0.97691 0.0
C3630 C 0.79247 0.14783 0.96489 0.0
H3631 H 0.73717 0.11537 0.92219 0.0
H3632 H 0.74252 0.12452 0.94022 0.0
H3633 H 0.74924 0.15013 0.92734 0.0
H3634 H 0.77923 0.18693 0.94286 0.0
H3635 H 0.75806 0.19258 0.96385 0.0
H3636 H 0.59063 0.7795 0.54353 0.0
H3637 H 0.62006 0.78463 0.56349 0.0
H3638 H 0.6306 0.8645 0.57165 0.0
H3639 H 0.60173 0.85968 0.55188 0.0
H3640 H 0.68179 0.85433 0.56983 0.0
H3641 H 0.59722 0.79213 0.60677 0.0
H3642 H 0.59623 0.78123 0.58911 0.0
H3643 H 0.5915 0.80974 0.59273 0.0
C3644 C 0.59952 0.79821 0.54953 0.0
C3645 C 0.59412 0.81928 0.54614 0.0
C3646 C 0.61611 0.80103 0.56093 0.0
C3647 C 0.62737 0.82492 0.56899 0.0
C3648 C 0.62205 0.84592 0.56554 0.0
H3649 H 0.7224 0.92538 0.63209 0.0
H3650 H 0.69718 0.90083 0.61148 0.0
C3651 C 0.60551 0.84309 0.55427 0.0
C3652 C 0.64475 0.82873 0.58115 0.0
H3653 H 0.64085 0.82187 0.61624 0.0
C3654 C 0.67301 0.84665 0.57995 0.0
C3655 C 0.63317 0.81861 0.59428 0.0
C3656 C 0.60286 0.79929 0.59594 0.0
C3657 C 0.68978 0.85612 0.59169 0.0
C3658 C 0.67783 0.84781 0.60493 0.0
C3659 C 0.64991 0.82827 0.60607 0.0
C3660 C 0.69312 0.86206 0.61757 0.0
C3661 C 0.71996 0.87593 0.58988 0.0
C3662 C 0.69861 0.84819 0.628 0.0
C3663 C 0.71317 0.86229 0.63985 0.0
C3664 C 0.722 0.89028 0.64146 0.0
C3665 C 0.71598 0.90386 0.6311 0.0
C3666 C 0.70168 0.8899 0.61929 0.0
H3667 H 0.72722 0.8737 0.57954 0.0
H3668 H 0.72377 0.89718 0.59075 0.0
H3669 H 0.73216 0.87288 0.59795 0.0
H3670 H 0.69197 0.82664 0.6269 0.0
H3671 H 0.71775 0.85141 0.64764 0.0
H3672 H 0.2019 0.80806 0.54224 0.0
H3673 H 0.19397 0.82916 0.5627 0.0
H3674 H 0.12498 0.75105 0.57397 0.0
H3675 H 0.13223 0.73017 0.55349 0.0
H3676 H 0.13807 0.82477 0.57008 0.0
H3677 H 0.17919 0.78218 0.60892 0.0
H3678 H 0.18972 0.78717 0.591 0.0
H3679 H 0.15728 0.75856 0.59591 0.0
C3680 C 0.18489 0.79554 0.54902 0.0
C3681 C 0.16751 0.76756 0.54622 0.0
C3682 C 0.18052 0.80754 0.56072 0.0
C3683 C 0.15905 0.79155 0.56987 0.0
C3684 C 0.14182 0.76364 0.5671 0.0
H3685 H 0.05635 0.79578 0.63072 0.0
H3686 H 0.08044 0.79116 0.61083 0.0
C3687 C 0.14598 0.75177 0.55538 0.0
C3688 C 0.15376 0.80369 0.58222 0.0
H3689 H 0.15053 0.79893 0.61742 0.0
C3690 C 0.14133 0.81967 0.58045 0.0
C3691 C 0.15809 0.79701 0.5957 0.0
C3692 C 0.172 0.78046 0.59808 0.0
C3693 C 0.13161 0.82775 0.59184 0.0
C3694 C 0.13447 0.81964 0.60526 0.0
C3695 C 0.14837 0.80508 0.60709 0.0
C3696 C 0.12042 0.82334 0.61727 0.0
C3697 C 0.11734 0.84395 0.58947 0.0
C3698 C 0.13505 0.84287 0.62753 0.0
C3699 C 0.12125 0.84574 0.6389 0.0
C3700 C 0.09275 0.82879 0.64022 0.0
C3701 C 0.07831 0.80914 0.62997 0.0
C3702 C 0.09201 0.80651 0.61859 0.0
H3703 H 0.12149 0.85319 0.57899 0.0
H3704 H 0.09491 0.83017 0.59058 0.0
H3705 H 0.12388 0.86047 0.5973 0.0
H3706 H 0.15703 0.85596 0.62669 0.0
H3707 H 0.13282 0.8612 0.64659 0.0
H3708 H 0.24287 0.42683 0.56412 0.0
H3709 H 0.21903 0.39595 0.58353 0.0
H3710 H 0.16579 0.3332 0.55493 0.0
H3711 H 0.18988 0.36377 0.53558 0.0
H3712 H 0.15379 0.35878 0.58936 0.0
H3713 H 0.21439 0.30719 0.57907 0.0
H3714 H 0.22645 0.34215 0.57387 0.0
H3715 H 0.19872 0.31458 0.56475 0.0
C3716 C 0.22559 0.40669 0.56202 0.0
C3717 C 0.2176 0.398 0.54836 0.0
C3718 C 0.21201 0.38913 0.57309 0.0
C3719 C 0.19053 0.36244 0.57063 0.0
C3720 C 0.18205 0.3539 0.55701 0.0
H3721 H 0.12902 0.22306 0.62623 0.0
H3722 H 0.13678 0.252 0.60596 0.0
C3723 C 0.19555 0.37155 0.54595 0.0
C3724 C 0.17908 0.34274 0.5822 0.0
H3725 H 0.18456 0.29169 0.59801 0.0
C3726 C 0.1603 0.34395 0.59126 0.0
C3727 C 0.18762 0.32344 0.58455 0.0
C3728 C 0.20798 0.32162 0.57513 0.0
C3729 C 0.14978 0.32623 0.60268 0.0
C3730 C 0.15892 0.30738 0.60528 0.0
C3731 C 0.17746 0.30605 0.59605 0.0
C3732 C 0.1504 0.28934 0.61767 0.0
C3733 C 0.12872 0.32765 0.61171 0.0
C3734 C 0.15496 0.30051 0.63105 0.0
C3735 C 0.15009 0.28385 0.64265 0.0
C3736 C 0.14103 0.25586 0.64106 0.0
C3737 C 0.13585 0.24457 0.62773 0.0
C3738 C 0.14035 0.26111 0.61615 0.0
H3739 H 0.11744 0.33595 0.60595 0.0
H3740 H 0.11372 0.30718 0.61586 0.0
H3741 H 0.1392 0.34157 0.62054 0.0
H3742 H 0.16353 0.32231 0.63253 0.0
H3743 H 0.15499 0.29321 0.65277 0.0
H3744 H 0.88135 0.42229 0.74601 0.0
H3745 H 0.90923 0.44227 0.76669 0.0
H3746 H 0.98248 0.47461 0.74182 0.0
H3747 H 0.95446 0.45614 0.72109 0.0
H3748 H 0.94044 0.42855 0.77784 0.0
H3749 H 0.00549 0.53837 0.76608 0.0
H3750 H 0.97646 0.51604 0.75551 0.0
H3751 H 0.00918 0.5183 0.75283 0.0
C3752 C 0.9034 0.43436 0.74496 0.0
C3753 C 0.91577 0.43795 0.73197 0.0
C3754 C 0.91936 0.4457 0.75678 0.0
C3755 C 0.94809 0.46032 0.75591 0.0
C3756 C 0.96043 0.4643 0.74282 0.0
H3757 H 0.0535 0.4586 0.81886 0.0
H3758 H 0.02235 0.45068 0.79975 0.0
C3759 C 0.94438 0.45357 0.73093 0.0
C3760 C 0.96492 0.46859 0.76877 0.0
H3761 H 0.02252 0.52032 0.78377 0.0
C3762 C 0.9581 0.44882 0.77917 0.0
C3763 C 0.98777 0.49513 0.77079 0.0
C3764 C -0.00507 0.51822 0.76076 0.0
C3765 C 0.97393 0.45442 0.79118 0.0
C3766 C -0.00191 0.48016 0.79263 0.0
C3767 C 0.00431 0.50039 0.78256 0.0
C3768 C 0.01772 0.48581 0.80413 0.0
C3769 C 0.96438 0.43262 0.80221 0.0
C3770 C 0.02675 0.50903 0.8126 0.0
C3771 C 0.04527 0.514 0.82339 0.0
C3772 C 0.05475 0.49567 0.82597 0.0
C3773 C 0.04619 0.47287 0.81729 0.0
C3774 C 0.02813 0.46815 0.80642 0.0
H3775 H 0.94176 0.41925 0.80202 0.0
H3776 H 0.97343 0.41941 0.80025 0.0
H3777 H 0.97056 0.44169 0.81269 0.0
H3778 H 0.01945 0.52327 0.81088 0.0
H3779 H 0.05249 0.53235 0.8295 0.0
H3780 H 0.52399 0.49087 0.71779 0.0
H3781 H 0.50312 0.50124 0.73745 0.0
H3782 H 0.57067 0.51377 0.7633 0.0
H3783 H 0.59147 0.50337 0.74375 0.0
H3784 H 0.48837 0.4771 0.76522 0.0
H3785 H 0.5693 0.58675 0.76518 0.0
H3786 H 0.56364 0.5643 0.75071 0.0
H3787 H 0.58197 0.5632 0.76565 0.0
C3788 C 0.53409 0.4954 0.72772 0.0
C3789 C 0.55926 0.49626 0.72929 0.0
C3790 C 0.52223 0.50139 0.73892 0.0
C3791 C 0.53552 0.50851 0.75177 0.0
C3792 C 0.56027 0.50863 0.75342 0.0
H3793 H 0.48745 0.52801 0.83365 0.0
H3794 H 0.49506 0.50927 0.81244 0.0
C3795 C 0.57209 0.50265 0.74226 0.0
C3796 C 0.52427 0.51698 0.76337 0.0
H3797 H 0.53935 0.57116 0.78447 0.0
C3798 C 0.49934 0.4977 0.7694 0.0
C3799 C 0.53849 0.54396 0.76864 0.0
C3800 C 0.56471 0.56586 0.76216 0.0
C3801 C 0.48865 0.50454 0.78088 0.0
C3802 C 0.50347 0.53125 0.7865 0.0
C3803 C 0.52803 0.55066 0.7802 0.0
C3804 C 0.49442 0.53969 0.79904 0.0
C3805 C 0.46156 0.48321 0.78683 0.0
C3806 C 0.49146 0.56295 0.79862 0.0
C3807 C 0.48705 0.57357 0.81076 0.0
C3808 C 0.4852 0.56097 0.82352 0.0
C3809 C 0.48731 0.53723 0.82392 0.0
C3810 C 0.49192 0.52667 0.81177 0.0
H3811 H 0.44931 0.46693 0.77918 0.0
H3812 H 0.46531 0.4734 0.79585 0.0
H3813 H 0.44936 0.49257 0.79038 0.0
H3814 H 0.49356 0.57348 0.78894 0.0
H3815 H 0.48593 0.59217 0.81023 0.0
H3816 H 0.52505 0.05492 0.72922 0.0
H3817 H 0.51834 0.02398 0.74865 0.0
H3818 H 0.4377 0.01254 0.75541 0.0
H3819 H 0.44422 0.0431 0.73611 0.0
H3820 H 0.50476 0.03141 0.77722 0.0
H3821 H 0.4264 0.93359 0.75382 0.0
H3822 H 0.44923 0.96316 0.74361 0.0
H3823 H 0.41947 0.96116 0.75157 0.0
C3824 C 0.50575 0.04536 0.73472 0.0
C3825 C 0.48503 0.05113 0.73112 0.0
C3826 C 0.50203 0.0279 0.74584 0.0
C3827 C 0.4774 0.01575 0.75333 0.0
C3828 C 0.45668 0.02138 0.74963 0.0
H3829 H 0.39062 0.92636 0.82278 0.0
H3830 H 0.41009 0.952 0.80149 0.0
C3831 C 0.46048 0.03893 0.73865 0.0
C3832 C 0.47331 -0.00187 0.76548 0.0
H3833 H 0.42878 0.93506 0.77858 0.0
C3834 C 0.48858 0.01014 0.7775 0.0
C3835 C 0.45224 0.97043 0.76574 0.0
C3836 C 0.43604 0.9562 0.75296 0.0
C3837 C 0.48199 -0.00432 0.79006 0.0
C3838 C 0.45982 0.96845 0.79048 0.0
C3839 C 0.44567 0.95599 0.77825 0.0
C3840 C 0.44898 0.95348 0.80366 0.0
C3841 C 0.49763 0.01011 0.80294 0.0
C3842 C 0.46444 0.94583 0.81199 0.0
C3843 C 0.4533 0.93113 0.82424 0.0
C3844 C 0.42656 0.92387 0.82826 0.0
C3845 C 0.41126 0.93164 0.81992 0.0
C3846 C 0.42235 0.94627 0.80775 0.0
H3847 H 0.51138 0.03241 0.80124 0.0
H3848 H 0.48328 0.00721 0.81148 0.0
H3849 H 0.51033 0.00119 0.80626 0.0
H3850 H 0.48489 0.95082 0.80892 0.0
H3851 H 0.46536 0.92503 0.83041 0.0
H3852 H 0.59195 0.06585 0.22414 0.0
H3853 H 0.56899 0.03469 0.24329 0.0
H3854 H 0.49157 0.02476 0.22995 0.0
H3855 H 0.51497 0.05742 0.21102 0.0
H3856 H 0.49679 0.02881 0.25803 0.0
H3857 H 0.52401 0.95294 0.23943 0.0
H3858 H 0.554 0.98592 0.24143 0.0
H3859 H 0.5284 0.98123 0.22889 0.0
C3860 C 0.57003 0.05711 0.22527 0.0
C3861 C 0.55512 0.06357 0.2159 0.0
C3862 C 0.55689 0.03911 0.23618 0.0
C3863 C 0.52844 0.02671 0.23783 0.0
C3864 C 0.51351 0.03378 0.22875 0.0
H3865 H 0.45894 0.88736 0.29381 0.0
H3866 H 0.46577 0.91624 0.27369 0.0
C3867 C 0.5268 0.05219 0.21787 0.0
C3868 C 0.51471 0.00643 0.24908 0.0
H3869 H 0.51138 0.94959 0.26334 0.0
C3870 C 0.49958 0.01122 0.25912 0.0
C3871 C 0.51779 0.98312 0.25035 0.0
C3872 C 0.53167 0.97533 0.23936 0.0
C3873 C 0.48859 0.99404 0.27071 0.0
C3874 C 0.49358 0.97197 0.27251 0.0
C3875 C 0.50771 0.96662 0.26214 0.0
C3876 C 0.48514 0.95441 0.28511 0.0
C3877 C 0.47164 -0.00032 0.28081 0.0
C3878 C 0.49293 0.96601 0.29838 0.0
C3879 C 0.48826 0.94934 0.30997 0.0
C3880 C 0.47648 0.92091 0.30841 0.0
C3881 C 0.46804 0.90926 0.29526 0.0
C3882 C 0.47202 0.92578 0.28376 0.0
H3883 H 0.46159 0.00993 0.27565 0.0
H3884 H 0.45561 0.98056 0.28574 0.0
H3885 H 0.48519 0.01366 0.289 0.0
H3886 H 0.50386 0.98801 0.29973 0.0
H3887 H 0.49545 0.95884 0.31996 0.0
H3888 H 0.08674 0.57627 0.29281 0.0
H3889 H 0.05449 0.55316 0.27387 0.0
H3890 H -0.00745 0.50148 0.30323 0.0
H3891 H 0.02477 0.52476 0.32223 0.0
H3892 H 0.01993 0.49245 0.26709 0.0
H3893 H 0.96238 0.5457 0.28078 0.0
H3894 H -0.00297 0.55795 0.28655 0.0
H3895 H 0.96925 0.52816 0.29436 0.0
C3896 C 0.06636 0.5597 0.2952 0.0
C3897 C 0.05828 0.55209 0.30897 0.0
C3898 C 0.04803 0.54648 0.28439 0.0
C3899 C 0.02119 0.52569 0.28718 0.0
C3900 C 0.01324 0.51748 0.3009 0.0
H3901 H 0.88201 0.46273 0.23112 0.0
H3902 H 0.91078 0.46991 0.25139 0.0
C3903 C 0.0317 0.53059 0.31173 0.0
C3904 C 0.00116 0.5142 0.27575 0.0
H3905 H 0.94791 0.51756 0.26118 0.0
C3906 C 0.00398 0.49766 0.26582 0.0
C3907 C 0.98046 0.52112 0.27418 0.0
C3908 C 0.97701 0.53932 0.28445 0.0
C3909 C 0.9866 0.48788 0.25426 0.0
C3910 C 0.96641 0.49552 0.25244 0.0
C3911 C 0.96333 0.51165 0.26256 0.0
C3912 C 0.94884 0.48804 0.23993 0.0
C3913 C 0.98992 0.46928 0.24421 0.0
C3914 C 0.96056 0.49557 0.22669 0.0
C3915 C 0.94406 0.4911 0.21509 0.0
C3916 C 0.91564 0.47939 0.21654 0.0
C3917 C 0.90389 0.4716 0.22973 0.0
C3918 C 0.9203 0.47572 0.2413 0.0
H3919 H -0.00071 0.45827 0.24927 0.0
H3920 H 0.96996 0.45398 0.23968 0.0
H3921 H 0.00372 0.48177 0.23571 0.0
H3922 H 0.98257 0.50599 0.22539 0.0
H3923 H 0.95374 0.49825 0.20516 0.0
H3924 H 0.45644 0.40403 0.21861 0.0
H3925 H 0.4558 0.42795 0.23945 0.0
H3926 H 0.53003 0.50003 0.22649 0.0
H3927 H 0.53092 0.47586 0.20542 0.0
H3928 H 0.50059 0.45288 0.25991 0.0
H3929 H 0.47292 0.5259 0.23617 0.0
H3930 H 0.46592 0.49478 0.2274 0.0
H3931 H 0.50047 0.5224 0.22892 0.0
C3932 C 0.47266 0.42499 0.22015 0.0
C3933 C 0.49371 0.43811 0.21039 0.0
C3934 C 0.47225 0.43863 0.23207 0.0
C3935 C 0.49281 0.46574 0.23451 0.0
C3936 C 0.51386 0.47914 0.22474 0.0
H3937 H 0.47146 0.53606 0.31313 0.0
H3938 H 0.497 0.53403 0.29284 0.0
C3939 C 0.51433 0.46537 0.21274 0.0
C3940 C 0.49176 0.47917 0.24748 0.0
H3941 H 0.46895 0.5206 0.26033 0.0
C3942 C 0.49449 0.46832 0.26004 0.0
C3943 C 0.48377 0.49926 0.2476 0.0
C3944 C 0.48048 0.51137 0.23435 0.0
C3945 C 0.48763 0.47567 0.27264 0.0
C3946 C 0.47768 0.49417 0.27266 0.0
C3947 C 0.4768 0.50655 0.26024 0.0
C3948 C 0.46317 0.49645 0.28488 0.0
C3949 C 0.48916 0.46216 0.28578 0.0
C3950 C 0.43594 0.47603 0.28704 0.0
C3951 C 0.42156 0.47706 0.2985 0.0
C3952 C 0.4341 0.49854 0.3081 0.0
C3953 C 0.46145 0.51912 0.30597 0.0
C3954 C 0.47594 0.5181 0.29438 0.0
H3955 H 0.50175 0.45221 0.28449 0.0
H3956 H 0.49789 0.47741 0.29427 0.0
H3957 H 0.46818 0.44629 0.28889 0.0
H3958 H 0.42579 0.45917 0.27982 0.0
H3959 H 0.40052 0.4609 0.29985 0.0
H3960 H 0.94214 0.13492 0.3302 0.0
H3961 H 0.97725 0.14937 0.31208 0.0
H3962 H 0.96074 0.21316 0.29974 0.0
H3963 H 0.92577 0.19887 0.31777 0.0
H3964 H 0.96667 0.15193 0.28263 0.0
H3965 H 0.04598 0.25194 0.30389 0.0
H3966 H 0.01988 0.2253 0.31451 0.0
H3967 H 0.01178 0.24661 0.30407 0.0
C3968 C 0.9463 0.15224 0.32372 0.0
C3969 C 0.93136 0.16587 0.32537 0.0
C3970 C 0.96625 0.1604 0.31338 0.0
C3971 C 0.97173 0.18248 0.30469 0.0
C3972 C 0.95708 0.19632 0.30648 0.0
H3973 H 0.03493 0.23162 0.22331 0.0
H3974 H 0.00791 0.21368 0.24442 0.0
C3975 C 0.93703 0.18806 0.31672 0.0
C3976 C 0.99151 0.19021 0.29316 0.0
H3977 H 0.04996 0.2438 0.28001 0.0
C3978 C 0.98508 0.17186 0.28212 0.0
C3979 C 0.0156 0.21611 0.2926 0.0
C3980 C 0.02395 0.2361 0.30444 0.0
C3981 C 0.00151 0.17926 0.27022 0.0
C3982 C 0.02482 0.20574 0.26935 0.0
C3983 C 0.03195 0.22359 0.28067 0.0
C3984 C 0.04118 0.21579 0.25651 0.0
C3985 C -0.00638 0.15883 0.2586 0.0
C3986 C 0.06898 0.2234 0.25637 0.0
C3987 C 0.08444 0.2335 0.24426 0.0
C3988 C 0.07233 0.23634 0.23217 0.0
C3989 C 0.04461 0.22905 0.23239 0.0
C3990 C 0.02917 0.21883 0.24445 0.0
H3991 H 0.98 0.13753 0.26225 0.0
H3992 H 0.98243 0.16341 0.25058 0.0
H3993 H 0.01203 0.16009 0.25372 0.0
H3994 H 0.07867 0.22142 0.26562 0.0
H3995 H 0.10582 0.23911 0.24437 0.0
H3996 H 0.79121 0.72307 0.31563 0.0
H3997 H 0.77713 0.74407 0.29763 0.0
H3998 H 0.83197 0.8241 0.31437 0.0
H3999 H 0.84627 0.80322 0.33237 0.0
H4000 H 0.75536 0.78269 0.30112 0.0
H4001 H 0.85382 0.82505 0.27229 0.0
H4002 H 0.84296 0.79734 0.28451 0.0
H4003 H 0.85551 0.83163 0.29057 0.0
C4004 C 0.80017 0.74513 0.31549 0.0
C4005 C 0.81983 0.76156 0.32534 0.0
C4006 C 0.79206 0.75706 0.30525 0.0
C4007 C 0.80367 0.7856 0.30465 0.0
C4008 C 0.82296 0.80204 0.31463 0.0
H4009 H 0.75031 0.86983 0.24643 0.0
H4010 H 0.76621 0.85791 0.26758 0.0
C4011 C 0.831 0.7901 0.32491 0.0
C4012 C 0.79614 0.79802 0.29325 0.0
H4013 H 0.8197 0.83245 0.26277 0.0
C4014 C 0.76946 0.79386 0.2928 0.0
C4015 C 0.81462 0.81238 0.28241 0.0
C4016 C 0.84332 0.81684 0.28232 0.0
C4017 C 0.76063 0.80335 0.28163 0.0
C4018 C 0.77899 0.81734 0.27069 0.0
C4019 C 0.80579 0.82189 0.27126 0.0
C4020 C 0.77004 0.8253 0.25803 0.0
C4021 C 0.73146 0.79751 0.2813 0.0
C4022 C 0.76728 0.81111 0.2457 0.0
C4023 C 0.75812 0.81772 0.23371 0.0
C4024 C 0.75187 0.83891 0.2338 0.0
C4025 C 0.755 0.85341 0.2461 0.0
C4026 C 0.764 0.84661 0.25816 0.0
H4027 H 0.71892 0.78362 0.28979 0.0
H4028 H 0.73129 0.81703 0.28232 0.0
H4029 H 0.72176 0.78812 0.27127 0.0
H4030 H 0.77182 0.79458 0.24541 0.0
H4031 H 0.75566 0.80602 0.22441 0.0
H4032 H 0.21186 0.09608 0.31609 0.0
H4033 H 0.19122 0.06725 0.29556 0.0
H4034 H 0.20766 0.00626 0.31261 0.0
H4035 H 0.22758 0.03452 0.3331 0.0
H4036 H 0.21397 0.04946 0.27665 0.0
H4037 H 0.12859 0.95963 0.30209 0.0
H4038 H 0.14806 0.99217 0.31074 0.0
H4039 H 0.16065 0.96847 0.31004 0.0
C4040 C 0.21078 0.07639 0.31546 0.0
C4041 C 0.22104 0.06738 0.32621 0.0
C4042 C 0.19901 0.05996 0.30376 0.0
C4043 C 0.19733 0.0343 0.30268 0.0
C4044 C 0.20791 0.02554 0.31338 0.0
H4045 H 0.17272 0.91252 0.24385 0.0
H4046 H 0.18357 0.94424 0.26324 0.0
C4047 C 0.21948 0.04181 0.32506 0.0
C4048 C 0.18592 0.01714 0.29012 0.0
H4049 H 0.142 0.95158 0.27964 0.0
C4050 C 0.19788 0.0282 0.27725 0.0
C4051 C 0.16474 0.98943 0.29089 0.0
C4052 C 0.14958 0.97684 0.30417 0.0
C4053 C 0.19032 0.01188 0.2653 0.0
C4054 C 0.17033 0.98384 0.26628 0.0
C4055 C 0.15755 0.97305 0.27899 0.0
C4056 C 0.16365 0.96498 0.25442 0.0
C4057 C 0.20449 0.02432 0.2518 0.0
C4058 C 0.14868 0.96607 0.24311 0.0
C4059 C 0.14226 0.94781 0.23207 0.0
C4060 C 0.15098 0.92842 0.23214 0.0
C4061 C 0.16586 0.92734 0.2435 0.0
C4062 C 0.17206 0.94541 0.25457 0.0
H4063 H 0.22177 0.04558 0.25311 0.0
H4064 H 0.21238 0.01167 0.24708 0.0
H4065 H 0.18955 0.02472 0.24449 0.0
H4066 H 0.14175 0.98084 0.2429 0.0
H4067 H 0.13027 0.94869 0.22356 0.0
H4068 H 0.95142 0.76147 0.81619 0.0
H4069 H 0.98016 0.77872 0.79555 0.0
H4070 H 0.91293 0.77615 0.77308 0.0
H4071 H 0.88407 0.75909 0.7938 0.0
H4072 H 0.93993 0.7507 0.75946 0.0
H4073 H 0.01333 0.85584 0.77771 0.0
H4074 H 0.00826 0.82893 0.78939 0.0
H4075 H 0.98035 0.83472 0.78574 0.0
C4076 C 0.94287 0.76494 0.80691 0.0
C4077 C 0.91559 0.75919 0.80662 0.0
C4078 C 0.95932 0.77482 0.79513 0.0
C4079 C 0.94877 0.77904 0.78284 0.0
C4080 C 0.92149 0.77319 0.7825 0.0
H4081 H 0.03993 0.85358 0.70666 0.0
H4082 H 0.00769 0.84011 0.72611 0.0
C4083 C 0.90506 0.76347 0.79432 0.0
C4084 C 0.96593 0.78842 0.77021 0.0
H4085 H 0.02509 0.84114 0.75703 0.0
C4086 C 0.95842 0.77056 0.75888 0.0
C4087 C 0.98995 0.8144 0.76946 0.0
C4088 C -0.00158 0.83474 0.78116 0.0
C4089 C 0.97481 0.77767 0.74696 0.0
C4090 C -0.00076 0.80326 0.74641 0.0
C4091 C 0.00636 0.82147 0.75755 0.0
C4092 C 0.01816 0.811 0.73451 0.0
C4093 C 0.96613 0.75779 0.73506 0.0
C4094 C 0.03464 0.79908 0.73286 0.0
C4095 C 0.05309 0.80682 0.72185 0.0
C4096 C 0.05523 0.82648 0.71227 0.0
C4097 C 0.03855 0.83826 0.71387 0.0
C4098 C 0.02024 0.83067 0.72497 0.0
H4099 H 0.94474 0.74068 0.73623 0.0
H4100 H 0.96794 0.76851 0.72516 0.0
H4101 H 0.9799 0.74905 0.73447 0.0
H4102 H 0.03338 0.78396 0.74018 0.0
H4103 H 0.06569 0.79741 0.72084 0.0
H4104 H 0.19546 0.27534 0.72022 0.0
H4105 H 0.21256 0.25872 0.73891 0.0
H4106 H 0.153 0.1754 0.72838 0.0
H4107 H 0.13564 0.19202 0.70974 0.0
H4108 H 0.18173 0.22698 0.76141 0.0
H4109 H 0.22537 0.17405 0.73116 0.0
H4110 H 0.2176 0.19859 0.72352 0.0
H4111 H 0.19061 0.1643 0.72699 0.0
C4112 C 0.18618 0.25346 0.72182 0.0
C4113 C 0.16448 0.2349 0.71343 0.0
C4114 C 0.19597 0.24401 0.73248 0.0
C4115 C 0.18429 0.21583 0.73491 0.0
C4116 C 0.16271 0.19721 0.72648 0.0
H4117 H 0.19436 0.1395 0.8108 0.0
H4118 H 0.17947 0.15498 0.7907 0.0
C4119 C 0.15287 0.20669 0.71581 0.0
C4120 C 0.19374 0.20616 0.74679 0.0
H4121 H 0.22343 0.16828 0.75551 0.0
C4122 C 0.19089 0.21418 0.76013 0.0
C4123 C 0.20588 0.18966 0.74505 0.0
C4124 C 0.21031 0.18128 0.73091 0.0
C4125 C 0.19957 0.2059 0.77182 0.0
C4126 C 0.21117 0.18892 0.77011 0.0
C4127 C 0.21436 0.18117 0.75676 0.0
C4128 C 0.22015 0.1791 0.78211 0.0
C4129 C 0.1966 0.21569 0.78589 0.0
C4130 C 0.24787 0.18707 0.78377 0.0
C4131 C 0.25644 0.17832 0.79528 0.0
C4132 C 0.23736 0.16137 0.80524 0.0
C4133 C 0.20955 0.15297 0.8034 0.0
C4134 C 0.20102 0.16176 0.79193 0.0
H4135 H 0.19351 0.23362 0.78516 0.0
H4136 H 0.17854 0.19895 0.7912 0.0
H4137 H 0.21493 0.22137 0.79236 0.0
H4138 H 0.26292 0.20035 0.77626 0.0
H4139 H 0.27797 0.18497 0.79644 0.0
H4140 H 0.79915 0.08597 0.7994 0.0
H4141 H 0.78312 0.05503 0.77946 0.0
H4142 H 0.83551 0.02316 0.79132 0.0
H4143 H 0.8516 0.05409 0.81128 0.0
H4144 H 0.81397 0.05138 0.75752 0.0
H4145 H 0.7598 0.95409 0.78711 0.0
H4146 H 0.77031 0.98703 0.79484 0.0
H4147 H 0.79492 0.9762 0.79195 0.0
C4148 C 0.8072 0.07233 0.79774 0.0
C4149 C 0.82638 0.07216 0.80691 0.0
C4150 C 0.79805 0.0547 0.78637 0.0
C4151 C 0.80786 0.03657 0.78403 0.0
C4152 C 0.82729 0.03662 0.7931 0.0
H4153 H 0.79217 0.9466 0.70818 0.0
H4154 H 0.80931 0.97835 0.72777 0.0
C4155 C 0.83647 0.05427 0.80447 0.0
C4156 C 0.79797 0.0179 0.77198 0.0
H4157 H 0.76325 0.95035 0.7629 0.0
C4158 C 0.80287 0.02929 0.75867 0.0
C4159 C 0.78328 0.98911 0.77355 0.0
C4160 C 0.77651 0.97579 0.78762 0.0
C4161 C 0.79366 0.01262 0.74686 0.0
C4162 C 0.77942 0.98383 0.74843 0.0
C4163 C 0.77432 0.97245 0.76174 0.0
C4164 C 0.76917 0.9651 0.7364 0.0
C4165 C 0.79877 0.02595 0.73282 0.0
C4166 C 0.741 0.94686 0.73488 0.0
C4167 C 0.7312 0.92874 0.72372 0.0
C4168 C 0.74945 0.9285 0.71393 0.0
C4169 C 0.77765 0.94668 0.71548 0.0
C4170 C 0.78745 0.96482 0.72664 0.0
H4171 H 0.80396 0.04768 0.73355 0.0
H4172 H 0.81624 0.02544 0.72784 0.0
H4173 H 0.78058 0.01478 0.72605 0.0
H4174 H 0.72658 0.94671 0.74234 0.0
H4175 H 0.70936 0.91489 0.72276 0.0
H4176 H 0.55965 0.49829 0.64249 0.0
H4177 H 0.59008 0.5111 0.62262 0.0
H4178 H 0.64398 0.49185 0.64553 0.0
H4179 H 0.61172 0.47604 0.66491 0.0
H4180 H 0.6374 0.55014 0.61954 0.0
H4181 H 0.6441 0.45688 0.6106 0.0
H4182 H 0.61986 0.45742 0.62254 0.0
H4183 H 0.6548 0.46968 0.62775 0.0
C4184 C 0.57778 0.49637 0.64321 0.0
C4185 C 0.5837 0.48676 0.65535 0.0
C4186 C 0.59527 0.50383 0.63185 0.0
C4187 C 0.61941 0.50241 0.63245 0.0
C4188 C 0.62526 0.4926 0.6446 0.0
H4189 H 0.75386 0.60391 0.5769 0.0
H4190 H 0.72227 0.58485 0.59634 0.0
C4191 C 0.60717 0.4842 0.65583 0.0
C4192 C 0.63891 0.51272 0.62061 0.0
H4193 H 0.67766 0.49757 0.59919 0.0
C4194 C 0.64593 0.53842 0.61503 0.0
C4195 C 0.64987 0.49743 0.6145 0.0
C4196 C 0.64152 0.46871 0.61907 0.0
C4197 C 0.66342 0.54922 0.60361 0.0
C4198 C 0.67569 0.53471 0.59804 0.0
C4199 C 0.6686 0.50893 0.60354 0.0
C4200 C 0.69574 0.54583 0.58648 0.0
C4201 C 0.66769 0.57566 0.59741 0.0
C4202 C 0.69244 0.52974 0.57474 0.0
C4203 C 0.71118 0.54029 0.56384 0.0
C4204 C 0.73314 0.56731 0.56431 0.0
C4205 C 0.73676 0.5832 0.57613 0.0
C4206 C 0.71852 0.57239 0.5872 0.0
H4207 H 0.64998 0.57861 0.59953 0.0
H4208 H 0.68602 0.59313 0.60215 0.0
H4209 H 0.6707 0.57622 0.58606 0.0
H4210 H 0.67527 0.50906 0.57398 0.0
H4211 H 0.70847 0.52731 0.55505 0.0
H4212 H 0.50927 0.06872 0.6435 0.0
H4213 H 0.49836 0.08673 0.62293 0.0
H4214 H 0.48049 0.13816 0.64882 0.0
H4215 H 0.4927 0.12108 0.66922 0.0
H4216 H 0.45095 0.08181 0.61599 0.0
H4217 H 0.52684 0.19218 0.61994 0.0
H4218 H 0.52903 0.16676 0.6303 0.0
H4219 H 0.50686 0.17966 0.6354 0.0
C4220 C 0.50342 0.08419 0.64476 0.0
C4221 C 0.50155 0.0934 0.65798 0.0
C4222 C 0.49712 0.09441 0.63301 0.0
C4223 C 0.48887 0.11405 0.63428 0.0
C4224 C 0.48738 0.1235 0.6475 0.0
H4225 H 0.38668 0.14072 0.57753 0.0
H4226 H 0.4061 0.12626 0.59606 0.0
C4227 C 0.49396 0.11346 0.65921 0.0
C4228 C 0.48007 0.12324 0.6219 0.0
H4229 H 0.48848 0.18007 0.60495 0.0
C4230 C 0.45939 0.1033 0.6135 0.0
C4231 C 0.49134 0.15126 0.61848 0.0
C4232 C 0.51495 0.17366 0.62642 0.0
C4233 C 0.44907 0.11059 0.60209 0.0
C4234 C 0.45913 0.13863 0.5992 0.0
C4235 C 0.48047 0.15857 0.60729 0.0
C4236 C 0.44746 0.14767 0.588 0.0
C4237 C 0.42764 0.08812 0.59318 0.0
C4238 C 0.46439 0.16536 0.57757 0.0
C4239 C 0.45338 0.17404 0.5671 0.0
C4240 C 0.42524 0.16506 0.56686 0.0
C4241 C 0.4084 0.14773 0.5774 0.0
C4242 C 0.41944 0.13926 0.58792 0.0
H4243 H 0.42867 0.069 0.59399 0.0
H4244 H 0.40701 0.08341 0.5967 0.0
H4245 H 0.43001 0.09435 0.58215 0.0
H4246 H 0.48612 0.17236 0.5775 0.0
H4247 H 0.4669 0.18787 0.55925 0.0
H4248 H 0.85333 0.37289 0.66682 0.0
H4249 H 0.83667 0.33844 0.64837 0.0
H4250 H 0.91584 0.38178 0.62863 0.0
H4251 H 0.93309 0.41427 0.64768 0.0
H4252 H 0.82853 0.33892 0.62297 0.0
H4253 H 0.90708 0.3087 0.62693 0.0
H4254 H 0.90407 0.33033 0.63968 0.0
H4255 H 0.9237 0.34485 0.62409 0.0
C4256 C 0.86732 0.37445 0.65876 0.0
C4257 C 0.89473 0.39565 0.65894 0.0
C4258 C 0.85774 0.35498 0.64811 0.0
C4259 C 0.87523 0.35684 0.63726 0.0
C4260 C 0.90223 0.37894 0.63715 0.0
H4261 H 0.81931 0.28572 0.55602 0.0
H4262 H 0.83164 0.31318 0.57706 0.0
C4263 C 0.91201 0.39779 0.64798 0.0
C4264 C 0.86518 0.33651 0.62575 0.0
H4265 H 0.88391 0.29978 0.60495 0.0
C4266 C 0.84045 0.33002 0.61918 0.0
C4267 C 0.88015 0.32411 0.62095 0.0
C4268 C 0.90501 0.32713 0.62842 0.0
C4269 C 0.83087 0.31241 0.60769 0.0
C4270 C 0.84725 0.3022 0.60207 0.0
C4271 C 0.87147 0.30792 0.60897 0.0
C4272 C 0.83995 0.28571 0.58908 0.0
C4273 C 0.803 0.3046 0.60199 0.0
C4274 C 0.8419 0.26182 0.58841 0.0
C4275 C 0.8365 0.24706 0.57608 0.0
C4276 C 0.82841 0.25549 0.56422 0.0
C4277 C 0.82599 0.27904 0.56491 0.0
C4278 C 0.8324 0.29439 0.57709 0.0
H4279 H 0.78943 0.30495 0.61022 0.0
H4280 H 0.80521 0.31973 0.59403 0.0
H4281 H 0.79285 0.28387 0.59729 0.0
H4282 H 0.84767 0.25453 0.59745 0.0
H4283 H 0.83835 0.22885 0.57589 0.0
H4284 H 0.69316 0.12995 0.03962 0.0
H4285 H 0.66307 0.11688 0.05974 0.0
H4286 H 0.72437 0.18745 0.08186 0.0
H4287 H 0.75487 0.20041 0.06173 0.0
H4288 H 0.70363 0.1409 0.09731 0.0
H4289 H 0.61838 0.14942 0.07422 0.0
H4290 H 0.62677 0.12766 0.06439 0.0
H4291 H 0.65147 0.16353 0.06604 0.0
C4292 C 0.70011 0.14288 0.04871 0.0
C4293 C 0.72629 0.1663 0.0491 0.0
C4294 C 0.68282 0.13545 0.06019 0.0
C4295 C 0.69124 0.15143 0.07225 0.0
C4296 C 0.71738 0.17491 0.07264 0.0
H4297 H 0.60604 0.13518 0.14993 0.0
H4298 H 0.63708 0.15243 0.13003 0.0
C4299 C 0.73475 0.18232 0.06114 0.0
C4300 C 0.67324 0.14281 0.08463 0.0
H4301 H 0.60895 0.12532 0.09571 0.0
C4302 C 0.68303 0.13776 0.09699 0.0
C4303 C 0.64637 0.13879 0.08423 0.0
C4304 C 0.63521 0.1454 0.07155 0.0
C4305 C 0.66641 0.1281 0.10881 0.0
C4306 C 0.63937 0.12332 0.10824 0.0
C4307 C 0.62966 0.12876 0.09602 0.0
C4308 C 0.62092 0.11277 0.12034 0.0
C4309 C 0.67756 0.12261 0.12183 0.0
C4310 C 0.60164 0.08478 0.12141 0.0
C4311 C 0.58411 0.07482 0.13284 0.0
C4312 C 0.58556 0.09276 0.1433 0.0
C4313 C 0.60477 0.12083 0.14212 0.0
C4314 C 0.62239 0.13074 0.13075 0.0
H4315 H 0.69861 0.12609 0.12041 0.0
H4316 H 0.67789 0.13619 0.13022 0.0
H4317 H 0.66395 0.10113 0.12521 0.0
H4318 H 0.60023 0.07066 0.11343 0.0
H4319 H 0.56944 0.05311 0.13349 0.0
H4320 H 0.84863 0.47076 0.15053 0.0
H4321 H 0.8277 0.48233 0.1314 0.0
H4322 H 0.90793 0.54082 0.11618 0.0
H4323 H 0.92897 0.52946 0.13531 0.0
H4324 H 0.86709 0.55913 0.11725 0.0
H4325 H 0.83108 0.45964 0.09025 0.0
H4326 H 0.82241 0.45828 0.10825 0.0
H4327 H 0.85753 0.47216 0.10328 0.0
C4328 C 0.86177 0.48627 0.14317 0.0
C4329 C 0.89041 0.49921 0.14435 0.0
C4330 C 0.8498 0.49273 0.13223 0.0
C4331 C 0.8663 0.51222 0.12233 0.0
C4332 C 0.89488 0.52568 0.12371 0.0
H4333 H 0.84613 0.55298 0.04007 0.0
H4334 H 0.85721 0.5378 0.06151 0.0
C4335 C 0.90685 0.51914 0.1346 0.0
C4336 C 0.85394 0.51816 0.11028 0.0
H4337 H 0.82138 0.49139 0.07965 0.0
C4338 C 0.85684 0.54427 0.10908 0.0
C4339 C 0.84081 0.49874 0.09962 0.0
C4340 C 0.83782 0.47065 0.10027 0.0
C4341 C 0.8472 0.55161 0.09739 0.0
C4342 C 0.83427 0.53226 0.08668 0.0
C4343 C 0.83109 0.50605 0.08795 0.0
C4344 C 0.82592 0.53963 0.07361 0.0
C4345 C 0.85174 0.58027 0.09632 0.0
C4346 C 0.80426 0.54514 0.07326 0.0
C4347 C 0.79763 0.55351 0.06093 0.0
C4348 C 0.81264 0.55653 0.04882 0.0
C4349 C 0.83392 0.55044 0.04917 0.0
C4350 C 0.84039 0.54191 0.06143 0.0
H4351 H 0.86554 0.59392 0.10456 0.0
H4352 H 0.86064 0.5893 0.08611 0.0
H4353 H 0.83179 0.57956 0.09724 0.0
H4354 H 0.79271 0.54325 0.08254 0.0
H4355 H 0.78114 0.5581 0.06094 0.0
H4356 H 0.46584 0.37448 0.14408 0.0
H4357 H 0.4584 0.34633 0.12364 0.0
H4358 H 0.53409 0.40969 0.10609 0.0
H4359 H 0.54138 0.43837 0.12657 0.0
H4360 H 0.49288 0.38997 0.08746 0.0
H4361 H 0.4941 0.30285 0.11271 0.0
H4362 H 0.47008 0.31015 0.12101 0.0
H4363 H 0.50604 0.33527 0.12131 0.0
C4364 C 0.48108 0.38232 0.13594 0.0
C4365 C 0.5043 0.4085 0.13693 0.0
C4366 C 0.47689 0.36613 0.1243 0.0
C4367 C 0.496 0.37561 0.11346 0.0
C4368 C 0.51922 0.40186 0.11439 0.0
H4369 H 0.47369 0.28444 0.03555 0.0
H4370 H 0.49627 0.3184 0.05403 0.0
C4371 C 0.52336 0.41819 0.12606 0.0
C4372 C 0.49066 0.3585 0.10092 0.0
H4373 H 0.47068 0.2932 0.09067 0.0
C4374 C 0.4886 0.369 0.0881 0.0
C4375 C 0.48536 0.3312 0.10172 0.0
C4376 C 0.48931 0.31934 0.11491 0.0
C4377 C 0.47962 0.35234 0.07626 0.0
C4378 C 0.47248 0.32459 0.07735 0.0
C4379 C 0.4759 0.31447 0.08996 0.0
C4380 C 0.45918 0.30512 0.06585 0.0
C4381 C 0.47655 0.364 0.0628 0.0
C4382 C 0.43095 0.28663 0.06642 0.0
C4383 C 0.41802 0.26755 0.05587 0.0
C4384 C 0.43317 0.26652 0.04461 0.0
C4385 C 0.46149 0.28507 0.04403 0.0
C4386 C 0.47441 0.30436 0.05457 0.0
H4387 H 0.4819 0.38574 0.0638 0.0
H4388 H 0.49003 0.36262 0.05487 0.0
H4389 H 0.45514 0.35179 0.05904 0.0
H4390 H 0.41892 0.28695 0.07508 0.0
H4391 H 0.39619 0.25346 0.05658 0.0
H4392 H 0.42053 0.94517 0.90966 0.0
H4393 H 0.39067 0.92985 0.93007 0.0
H4394 H 0.35708 0.84586 0.91714 0.0
H4395 H 0.38685 0.86106 0.89679 0.0
H4396 H 0.31741 0.85936 0.92453 0.0
H4397 H 0.39789 0.89178 0.96478 0.0
H4398 H 0.40275 0.9183 0.95289 0.0
H4399 H 0.4044 0.88909 0.94674 0.0
C4400 C 0.40687 0.92345 0.91125 0.0
C4401 C 0.40587 0.90428 0.90166 0.0
C4402 C 0.38995 0.91472 0.92291 0.0
C4403 C 0.37192 0.8867 0.92519 0.0
C4404 C 0.3709 0.86757 0.91559 0.0
H4405 H 0.27835 0.80694 0.99938 0.0
H4406 H 0.31039 0.82234 0.97984 0.0
C4407 C 0.38783 0.87627 0.90396 0.0
C4408 C 0.35344 0.87727 0.93733 0.0
H4409 H 0.35256 0.87643 0.97262 0.0
C4410 C 0.32508 0.86304 0.93505 0.0
C4411 C 0.36353 0.8818 0.95103 0.0
C4412 C 0.3938 0.89586 0.95407 0.0
C4413 C 0.30649 0.85361 0.9461 0.0
C4414 C 0.31657 0.85888 0.9598 0.0
C4415 C 0.34493 0.87266 0.9621 0.0
C4416 C 0.29791 0.85026 0.97185 0.0
C4417 C 0.27621 0.83779 0.94303 0.0
C4418 C 0.28069 0.86123 0.97394 0.0
C4419 C 0.26255 0.85258 0.9851 0.0
C4420 C 0.26143 0.83292 0.99438 0.0
C4421 C 0.27897 0.82226 0.99242 0.0
C4422 C 0.29719 0.83098 0.98126 0.0
H4423 H 0.27204 0.8297 0.9323 0.0
H4424 H 0.26537 0.8204 0.95031 0.0
H4425 H 0.26757 0.85154 0.94424 0.0
H4426 H 0.28128 0.87647 0.96693 0.0
H4427 H 0.24937 0.86126 0.98644 0.0
H4428 H 0.17581 0.46635 0.99966 0.0
H4429 H 0.16097 0.48567 0.98115 0.0
H4430 H 0.11201 0.40507 0.96361 0.0
H4431 H 0.12638 0.38561 0.98223 0.0
H4432 H 0.16871 0.48345 0.95273 0.0
H4433 H 0.0583 0.4341 0.96566 0.0
H4434 H 0.08355 0.43583 0.97771 0.0
H4435 H 0.07075 0.41048 0.96423 0.0
C4436 C 0.16159 0.45274 0.99195 0.0
C4437 C 0.15203 0.42447 0.99241 0.0
C4438 C 0.15324 0.4638 0.98137 0.0
C4439 C 0.1351 0.44675 0.97112 0.0
C4440 C 0.12559 0.41851 0.97157 0.0
H4441 H 0.10516 0.48334 0.88893 0.0
H4442 H 0.12091 0.47053 0.90963 0.0
C4443 C 0.13395 0.40745 0.98214 0.0
C4444 C 0.12704 0.4586 0.95962 0.0
H4445 H 0.07161 0.45515 0.94347 0.0
C4446 C 0.14751 0.47745 0.95076 0.0
C4447 C 0.09941 0.45102 0.95718 0.0
C4448 C 0.07673 0.43195 0.96676 0.0
C4449 C 0.14099 0.48824 0.93925 0.0
C4450 C 0.11324 0.47966 0.93645 0.0
C4451 C 0.09286 0.46152 0.94557 0.0
C4452 C 0.10484 0.48861 0.92388 0.0
C4453 C 0.16389 0.50878 0.93022 0.0
C4454 C 0.09015 0.50258 0.92498 0.0
C4455 C 0.0813 0.51001 0.9131 0.0
C4456 C 0.08695 0.50353 0.89994 0.0
C4457 C 0.10146 0.48943 0.89888 0.0
C4458 C 0.11032 0.482 0.91073 0.0
H4459 H 0.18375 0.5189 0.93581 0.0
H4460 H 0.1661 0.49808 0.92111 0.0
H4461 H 0.15947 0.52477 0.92645 0.0
H4462 H 0.08548 0.50766 0.93504 0.0
H4463 H 0.0699 0.52067 0.9142 0.0
H4464 H 0.44665 0.55135 0.90904 0.0
H4465 H 0.45605 0.57943 0.92998 0.0
H4466 H 0.53076 0.64264 0.91155 0.0
H4467 H 0.52123 0.6151 0.89069 0.0
H4468 H 0.49881 0.59863 0.94785 0.0
H4469 H 0.4963 0.68645 0.92412 0.0
H4470 H 0.4835 0.65407 0.91533 0.0
H4471 H 0.51954 0.67889 0.91516 0.0
C4472 C 0.46495 0.57133 0.90948 0.0
C4473 C 0.48308 0.5812 0.89823 0.0
C4474 C 0.47029 0.58734 0.92141 0.0
C4475 C 0.4938 0.61342 0.92222 0.0
C4476 C 0.51208 0.62298 0.91103 0.0
H4477 H 0.59465 0.73368 0.98055 0.0
H4478 H 0.57251 0.70129 0.96153 0.0
C4479 C 0.5067 0.60713 0.89914 0.0
C4480 C 0.50013 0.63035 0.93491 0.0
H4481 H 0.52003 0.69523 0.94594 0.0
C4482 C 0.50293 0.61958 0.94749 0.0
C4483 C 0.5053 0.65764 0.93448 0.0
C4484 C 0.50071 0.66982 0.92157 0.0
C4485 C 0.51226 0.63588 0.95945 0.0
C4486 C 0.51899 0.66356 0.95875 0.0
C4487 C 0.51508 0.67401 0.94636 0.0
C4488 C 0.53198 0.68252 0.97048 0.0
C4489 C 0.51604 0.62391 0.97263 0.0
C4490 C 0.5164 0.68265 0.98175 0.0
C4491 C 0.52897 0.7013 0.99259 0.0
C4492 C 0.55731 0.71985 0.99232 0.0
C4493 C 0.5728 0.71955 0.98103 0.0
C4494 C 0.56021 0.70109 0.97018 0.0
H4495 H 0.51077 0.60224 0.97135 0.0
H4496 H 0.53761 0.63613 0.97615 0.0
H4497 H 0.50288 0.62497 0.98086 0.0
H4498 H 0.49452 0.66858 0.98208 0.0
H4499 H 0.51649 0.70147 1.00104 0.0
H4500 H 0.28872 0.42792 0.48511 0.0
H4501 H 0.32012 0.44683 0.46557 0.0
H4502 H 0.25938 0.45602 0.4429 0.0
H4503 H 0.22821 0.43806 0.46277 0.0
H4504 H 0.31283 0.42571 0.44001 0.0
H4505 H 0.32741 0.53038 0.43704 0.0
H4506 H 0.31236 0.50848 0.45188 0.0
H4507 H 0.29215 0.50375 0.43668 0.0
C4508 C 0.28231 0.43462 0.47611 0.0
C4509 C 0.25624 0.43203 0.47555 0.0
C4510 C 0.30019 0.4452 0.46489 0.0
C4511 C 0.29233 0.45329 0.45283 0.0
C4512 C 0.26618 0.45056 0.45221 0.0
H4513 H 0.36358 0.46525 0.37216 0.0
H4514 H 0.33388 0.45355 0.39236 0.0
C4515 C 0.2483 0.44009 0.4635 0.0
C4516 C 0.31095 0.46291 0.44068 0.0
H4517 H 0.34442 0.51618 0.41811 0.0
C4518 C 0.31981 0.44555 0.43527 0.0
C4519 C 0.32039 0.48894 0.4346 0.0
C4520 C 0.31283 0.50911 0.44041 0.0
C4521 C 0.33742 0.45327 0.42383 0.0
C4522 C 0.34598 0.47883 0.4174 0.0
C4523 C 0.3376 0.49647 0.42296 0.0
C4524 C 0.36339 0.48733 0.40482 0.0
C4525 C 0.34702 0.43409 0.41887 0.0
C4526 C 0.38951 0.51086 0.40491 0.0
C4527 C 0.40643 0.51789 0.39323 0.0
C4528 C 0.39738 0.50155 0.38129 0.0
C4529 C 0.371 0.47842 0.38115 0.0
C4530 C 0.35411 0.47151 0.39275 0.0
H4531 H 0.34511 0.41946 0.42707 0.0
H4532 H 0.3342 0.422 0.41 0.0
H4533 H 0.36868 0.44559 0.4154 0.0
H4534 H 0.39702 0.52343 0.4141 0.0
H4535 H 0.42667 0.53584 0.3936 0.0
H4536 H 0.46732 0.84912 0.37348 0.0
H4537 H 0.48052 0.82757 0.39165 0.0
H4538 H 0.53909 0.90732 0.40738 0.0
H4539 H 0.52605 0.92895 0.38926 0.0
H4540 H 0.55716 0.86485 0.40382 0.0
H4541 H 0.46168 0.83149 0.43426 0.0
H4542 H 0.45866 0.82434 0.416 0.0
H4543 H 0.47391 0.85907 0.42186 0.0
C4544 C 0.48318 0.86202 0.38075 0.0
C4545 C 0.49568 0.89069 0.38001 0.0
C4546 C 0.49061 0.8497 0.39112 0.0
C4547 C 0.51065 0.8659 0.40087 0.0
C4548 C 0.52357 0.89451 0.39994 0.0
H4549 H 0.56234 0.85009 0.48082 0.0
H4550 H 0.54546 0.86039 0.45974 0.0
C4551 C 0.51606 0.90682 0.38963 0.0
C4552 C 0.51762 0.85323 0.41238 0.0
H4553 H 0.49488 0.82281 0.44384 0.0
C4554 C 0.54346 0.8553 0.41249 0.0
C4555 C 0.49969 0.84102 0.42369 0.0
C4556 C 0.47194 0.83885 0.4241 0.0
C4557 C 0.55206 0.84589 0.4238 0.0
C4558 C 0.53433 0.83416 0.43523 0.0
C4559 C 0.50829 0.83163 0.43499 0.0
C4560 C 0.54341 0.82674 0.44804 0.0
C4561 C 0.58043 0.84953 0.42375 0.0
C4562 C 0.54753 0.80417 0.44847 0.0
C4563 C 0.55684 0.79799 0.46062 0.0
C4564 C 0.56215 0.81433 0.47246 0.0
C4565 C 0.55787 0.8368 0.47196 0.0
C4566 C 0.5484 0.84282 0.4599 0.0
H4567 H 0.59277 0.86183 0.41479 0.0
H4568 H 0.59138 0.85971 0.43342 0.0
H4569 H 0.57889 0.82914 0.42329 0.0
H4570 H 0.54362 0.79144 0.43942 0.0
H4571 H 0.56003 0.78059 0.46073 0.0
H4572 H 0.13969 0.75623 0.46434 0.0
H4573 H 0.12666 0.7263 0.44399 0.0
H4574 H 0.17836 0.69494 0.45786 0.0
H4575 H 0.19137 0.72473 0.47819 0.0
H4576 H 0.1598 0.72264 0.42288 0.0
H4577 H 0.10315 0.6258 0.45269 0.0
H4578 H 0.11302 0.65883 0.46011 0.0
H4579 H 0.13787 0.64803 0.45811 0.0
C4580 C 0.14824 0.74293 0.46302 0.0
C4581 C 0.16622 0.74247 0.47289 0.0
C4582 C 0.14086 0.72593 0.4514 0.0
C4583 C 0.15129 0.70818 0.44952 0.0
C4584 C 0.16971 0.70813 0.45924 0.0
H4585 H 0.13437 0.6133 0.37441 0.0
H4586 H 0.15342 0.64693 0.39326 0.0
C4587 C 0.17708 0.72511 0.47085 0.0
C4588 C 0.14251 0.68941 0.43749 0.0
H4589 H 0.10778 0.62173 0.42869 0.0
C4590 C 0.14848 0.70057 0.42412 0.0
C4591 C 0.12762 0.66065 0.43917 0.0
C4592 C 0.11979 0.64752 0.45328 0.0
C4593 C 0.13984 0.68368 0.41235 0.0
C4594 C 0.12505 0.65492 0.41406 0.0
C4595 C 0.11924 0.6438 0.42743 0.0
C4596 C 0.11399 0.63586 0.40217 0.0
C4597 C 0.14595 0.69669 0.39822 0.0
C4598 C 0.08561 0.61843 0.40099 0.0
C4599 C 0.07479 0.59931 0.39031 0.0
C4600 C 0.09214 0.5972 0.3806 0.0
C4601 C 0.12056 0.6148 0.38167 0.0
C4602 C 0.13143 0.634 0.3924 0.0
H4603 H 0.15232 0.71877 0.39872 0.0
H4604 H 0.16287 0.69488 0.39345 0.0
H4605 H 0.12778 0.68612 0.39138 0.0
H4606 H 0.0718 0.61951 0.40842 0.0
H4607 H 0.0528 0.586 0.38972 0.0
loop_
_geom_bond_atom_site_label_1
_geom_bond_atom_site_label_2
_geom_bond_distance
_geom_bond_site_symmetry_2
_ccdc_geom_bond_type
Tb0 O3 2.453 . S
Tb0 O4 2.596 . S
Tb0 O5 2.374 . S
Tb0 O13 2.343 . S
Tb0 O15 2.353 . S
Tb0 O17 2.427 . S
Tb0 O18 2.513 . S
C1 O5 1.251 . S
C1 O7 1.263 . S
Tb2 O4 2.343 . S
Tb2 O7 2.353 . S
Tb2 O10 2.427 . S
Tb2 O11 2.513 . S
Tb2 O12 2.453 . S
Tb2 O13 2.596 . S
Tb2 O14 2.374 . S
O3 Tb0 2.453 . S
O3 C19 1.245 . S
O4 Tb0 2.596 . S
O4 Tb2 2.343 . S
O4 C19 1.259 . S
O5 Tb0 2.374 . S
O5 C1 1.251 . S
C6 O10 1.275 . S
C6 O11 1.246 . S
O7 C1 1.263 . S
O7 Tb2 2.353 . S
C8 O12 1.245 . S
C8 O13 1.259 . S
C9 O14 1.250 . S
C9 O15 1.263 . S
O10 Tb2 2.427 . S
O10 C6 1.275 . S
O11 Tb2 2.513 . S
O11 C6 1.246 . S
O12 Tb2 2.453 . S
O12 C8 1.245 . S
O13 Tb0 2.343 . S
O13 Tb2 2.596 . S
O13 C8 1.259 . S
O14 Tb2 2.374 . S
O14 C9 1.250 . S
O15 Tb0 2.353 . S
O15 C9 1.263 . S
C16 O17 1.275 . S
C16 O18 1.246 . S
O17 Tb0 2.427 . S
O17 C16 1.275 . S
O18 Tb0 2.513 . S
O18 C16 1.246 . S
C19 O3 1.245 . S
C19 O4 1.259 . S
Tb20 O23 2.453 . S
Tb20 O24 2.596 . S
Tb20 O25 2.374 . S
Tb20 O33 2.343 . S
Tb20 O35 2.353 . S
Tb20 O37 2.427 . S
Tb20 O38 2.513 . S
C21 O25 1.251 . S
C21 O27 1.263 . S
Tb22 O24 2.343 . S
Tb22 O27 2.353 . S
Tb22 O30 2.427 . S
Tb22 O31 2.513 . S
Tb22 O32 2.453 . S
Tb22 O33 2.596 . S
Tb22 O34 2.374 . S
O23 Tb20 2.453 . S
O23 C39 1.245 . S
O24 Tb20 2.596 . S
O24 Tb22 2.343 . S
O24 C39 1.259 . S
O25 Tb20 2.374 . S
O25 C21 1.251 . S
C26 O30 1.275 . S
C26 O31 1.246 . S
O27 C21 1.263 . S
O27 Tb22 2.353 . S
C28 O32 1.245 . S
C28 O33 1.259 . S
C29 O34 1.250 . S
C29 O35 1.263 . S
O30 Tb22 2.427 . S
O30 C26 1.275 . S
O31 Tb22 2.513 . S
O31 C26 1.246 . S
O32 Tb22 2.453 . S
O32 C28 1.245 . S
O33 Tb20 2.343 . S
O33 Tb22 2.596 . S
O33 C28 1.259 . S
O34 Tb22 2.374 . S
O34 C29 1.250 . S
O35 Tb20 2.353 . S
O35 C29 1.263 . S
C36 O37 1.275 . S
C36 O38 1.246 . S
O37 Tb20 2.427 . S
O37 C36 1.275 . S
O38 Tb20 2.513 . S
O38 C36 1.246 . S
C39 O23 1.245 . S
C39 O24 1.259 . S
Tb40 O43 2.453 . S
Tb40 O44 2.596 . S
Tb40 O45 2.374 . S
Tb40 O53 2.343 . S
Tb40 O55 2.353 . S
Tb40 O57 2.427 . S
Tb40 O58 2.513 . S
C41 O45 1.251 . S
C41 O47 1.263 . S
Tb42 O44 2.343 . S
Tb42 O47 2.353 . S
Tb42 O50 2.427 . S
Tb42 O51 2.513 . S
Tb42 O52 2.453 . S
Tb42 O53 2.596 . S
Tb42 O54 2.374 . S
O43 Tb40 2.453 . S
O43 C59 1.245 . S
O44 Tb40 2.596 . S
O44 Tb42 2.343 . S
O44 C59 1.259 . S
O45 Tb40 2.374 . S
O45 C41 1.251 . S
C46 O50 1.275 . S
C46 O51 1.246 . S
O47 C41 1.263 . S
O47 Tb42 2.353 . S
C48 O52 1.245 . S
C48 O53 1.259 . S
C49 O54 1.250 . S
C49 O55 1.263 . S
O50 Tb42 2.427 . S
O50 C46 1.275 . S
O51 Tb42 2.513 . S
O51 C46 1.246 . S
O52 Tb42 2.453 . S
O52 C48 1.245 . S
O53 Tb40 2.343 . S
O53 Tb42 2.596 . S
O53 C48 1.259 . S
O54 Tb42 2.374 . S
O54 C49 1.250 . S
O55 Tb40 2.353 . S
O55 C49 1.263 . S
C56 O57 1.275 . S
C56 O58 1.246 . S
O57 Tb40 2.427 . S
O57 C56 1.275 . S
O58 Tb40 2.513 . S
O58 C56 1.246 . S
C59 O43 1.245 . S
C59 O44 1.259 . S
Tb60 O63 2.453 . S
Tb60 O64 2.596 . S
Tb60 O65 2.374 . S
Tb60 O73 2.343 . S
Tb60 O75 2.353 . S
Tb60 O77 2.427 . S
Tb60 O78 2.513 . S
C61 O65 1.251 . S
C61 O67 1.263 . S
Tb62 O64 2.343 . S
Tb62 O67 2.353 . S
Tb62 O70 2.427 . S
Tb62 O71 2.513 . S
Tb62 O72 2.453 . S
Tb62 O73 2.596 . S
Tb62 O74 2.374 . S
O63 Tb60 2.453 . S
O63 C79 1.245 . S
O64 Tb60 2.596 . S
O64 Tb62 2.343 . S
O64 C79 1.259 . S
O65 Tb60 2.374 . S
O65 C61 1.251 . S
C66 O70 1.275 . S
C66 O71 1.246 . S
O67 C61 1.263 . S
O67 Tb62 2.353 . S
C68 O72 1.245 . S
C68 O73 1.259 . S
C69 O74 1.250 . S
C69 O75 1.263 . S
O70 Tb62 2.427 . S
O70 C66 1.275 . S
O71 Tb62 2.513 . S
O71 C66 1.246 . S
O72 Tb62 2.453 . S
O72 C68 1.245 . S
O73 Tb60 2.343 . S
O73 Tb62 2.596 . S
O73 C68 1.259 . S
O74 Tb62 2.374 . S
O74 C69 1.250 . S
O75 Tb60 2.353 . S
O75 C69 1.263 . S
C76 O77 1.275 . S
C76 O78 1.246 . S
O77 Tb60 2.427 . S
O77 C76 1.275 . S
O78 Tb60 2.513 . S
O78 C76 1.246 . S
C79 O63 1.245 . S
C79 O64 1.259 . S
Tb80 O83 2.453 . S
Tb80 O84 2.596 . S
Tb80 O85 2.374 . S
Tb80 O93 2.343 . S
Tb80 O95 2.353 . S
Tb80 O97 2.427 . S
Tb80 O98 2.513 . S
C81 O85 1.251 . S
C81 O87 1.263 . S
Tb82 O84 2.343 . S
Tb82 O87 2.353 . S
Tb82 O90 2.427 . S
Tb82 O91 2.513 . S
Tb82 O92 2.453 . S
Tb82 O93 2.596 . S
Tb82 O94 2.374 . S
O83 Tb80 2.453 . S
O83 C99 1.245 . S
O84 Tb80 2.596 . S
O84 Tb82 2.343 . S
O84 C99 1.259 . S
O85 Tb80 2.374 . S
O85 C81 1.251 . S
C86 O90 1.275 . S
C86 O91 1.246 . S
O87 C81 1.263 . S
O87 Tb82 2.353 . S
C88 O92 1.245 . S
C88 O93 1.259 . S
C89 O94 1.250 . S
C89 O95 1.263 . S
O90 Tb82 2.427 . S
O90 C86 1.275 . S
O91 Tb82 2.513 . S
O91 C86 1.246 . S
O92 Tb82 2.453 . S
O92 C88 1.245 . S
O93 Tb80 2.343 . S
O93 Tb82 2.596 . S
O93 C88 1.259 . S
O94 Tb82 2.374 . S
O94 C89 1.250 . S
O95 Tb80 2.353 . S
O95 C89 1.263 . S
C96 O97 1.275 . S
C96 O98 1.246 . S
O97 Tb80 2.427 . S
O97 C96 1.275 . S
O98 Tb80 2.513 . S
O98 C96 1.246 . S
C99 O83 1.245 . S
C99 O84 1.259 . S
Tb100 O103 2.453 . S
Tb100 O104 2.596 . S
Tb100 O105 2.374 . S
Tb100 O113 2.343 . S
Tb100 O115 2.353 . S
Tb100 O117 2.427 . S
Tb100 O118 2.513 . S
C101 O105 1.251 . S
C101 O107 1.263 . S
Tb102 O104 2.343 . S
Tb102 O107 2.353 . S
Tb102 O110 2.427 . S
Tb102 O111 2.513 . S
Tb102 O112 2.453 . S
Tb102 O113 2.596 . S
Tb102 O114 2.374 . S
O103 Tb100 2.453 . S
O103 C119 1.245 . S
O104 Tb100 2.596 . S
O104 Tb102 2.343 . S
O104 C119 1.259 . S
O105 Tb100 2.374 . S
O105 C101 1.251 . S
C106 O110 1.275 . S
C106 O111 1.246 . S
O107 C101 1.263 . S
O107 Tb102 2.353 . S
C108 O112 1.245 . S
C108 O113 1.259 . S
C109 O114 1.250 . S
C109 O115 1.263 . S
O110 Tb102 2.427 . S
O110 C106 1.275 . S
O111 Tb102 2.513 . S
O111 C106 1.246 . S
O112 Tb102 2.453 . S
O112 C108 1.245 . S
O113 Tb100 2.343 . S
O113 Tb102 2.596 . S
O113 C108 1.259 . S
O114 Tb102 2.374 . S
O114 C109 1.250 . S
O115 Tb100 2.353 . S
O115 C109 1.263 . S
C116 O117 1.275 . S
C116 O118 1.246 . S
O117 Tb100 2.427 . S
O117 C116 1.275 . S
O118 Tb100 2.513 . S
O118 C116 1.246 . S
C119 O103 1.245 . S
C119 O104 1.259 . S
Tb120 O123 2.453 . S
Tb120 O124 2.596 . S
Tb120 O125 2.374 . S
Tb120 O133 2.343 . S
Tb120 O135 2.353 . S
Tb120 O137 2.427 . S
Tb120 O138 2.513 . S
C121 O125 1.251 . S
C121 O127 1.263 . S
Tb122 O124 2.343 . S
Tb122 O127 2.353 . S
Tb122 O130 2.427 . S
Tb122 O131 2.513 . S
Tb122 O132 2.453 . S
Tb122 O133 2.596 . S
Tb122 O134 2.374 . S
O123 Tb120 2.453 . S
O123 C139 1.245 . S
O124 Tb120 2.596 . S
O124 Tb122 2.343 . S
O124 C139 1.259 . S
O125 Tb120 2.374 . S
O125 C121 1.251 . S
C126 O130 1.275 . S
C126 O131 1.246 . S
O127 C121 1.263 . S
O127 Tb122 2.353 . S
C128 O132 1.245 . S
C128 O133 1.259 . S
C129 O134 1.250 . S
C129 O135 1.263 . S
O130 Tb122 2.427 . S
O130 C126 1.275 . S
O131 Tb122 2.513 . S
O131 C126 1.246 . S
O132 Tb122 2.453 . S
O132 C128 1.245 . S
O133 Tb120 2.343 . S
O133 Tb122 2.596 . S
O133 C128 1.259 . S
O134 Tb122 2.374 . S
O134 C129 1.250 . S
O135 Tb120 2.353 . S
O135 C129 1.263 . S
C136 O137 1.275 . S
C136 O138 1.246 . S
O137 Tb120 2.427 . S
O137 C136 1.275 . S
O138 Tb120 2.513 . S
O138 C136 1.246 . S
C139 O123 1.245 . S
C139 O124 1.259 . S
Tb140 O143 2.453 . S
Tb140 O144 2.596 . S
Tb140 O145 2.374 . S
Tb140 O153 2.343 . S
Tb140 O155 2.353 . S
Tb140 O157 2.427 . S
Tb140 O158 2.513 . S
C141 O145 1.251 . S
C141 O147 1.263 . S
Tb142 O144 2.343 . S
Tb142 O147 2.353 . S
Tb142 O150 2.427 . S
Tb142 O151 2.513 . S
Tb142 O152 2.453 . S
Tb142 O153 2.596 . S
Tb142 O154 2.374 . S
O143 Tb140 2.453 . S
O143 C159 1.245 . S
O144 Tb140 2.596 . S
O144 Tb142 2.343 . S
O144 C159 1.259 . S
O145 Tb140 2.374 . S
O145 C141 1.251 . S
C146 O150 1.275 . S
C146 O151 1.246 . S
O147 C141 1.263 . S
O147 Tb142 2.353 . S
C148 O152 1.245 . S
C148 O153 1.259 . S
C149 O154 1.250 . S
C149 O155 1.263 . S
O150 Tb142 2.427 . S
O150 C146 1.275 . S
O151 Tb142 2.513 . S
O151 C146 1.246 . S
O152 Tb142 2.453 . S
O152 C148 1.245 . S
O153 Tb140 2.343 . S
O153 Tb142 2.596 . S
O153 C148 1.259 . S
O154 Tb142 2.374 . S
O154 C149 1.250 . S
O155 Tb140 2.353 . S
O155 C149 1.263 . S
C156 O157 1.275 . S
C156 O158 1.246 . S
O157 Tb140 2.427 . S
O157 C156 1.275 . S
O158 Tb140 2.513 . S
O158 C156 1.246 . S
C159 O143 1.245 . S
C159 O144 1.259 . S
Tb160 O163 2.453 . S
Tb160 O164 2.596 . S
Tb160 O165 2.374 . S
Tb160 O173 2.343 . S
Tb160 O175 2.353 . S
Tb160 O177 2.427 . S
Tb160 O178 2.513 . S
C161 O165 1.251 . S
C161 O167 1.263 . S
Tb162 O164 2.343 . S
Tb162 O167 2.353 . S
Tb162 O170 2.427 . S
Tb162 O171 2.513 . S
Tb162 O172 2.453 . S
Tb162 O173 2.596 . S
Tb162 O174 2.374 . S
O163 Tb160 2.453 . S
O163 C179 1.245 . S
O164 Tb160 2.596 . S
O164 Tb162 2.343 . S
O164 C179 1.259 . S
O165 Tb160 2.374 . S
O165 C161 1.251 . S
C166 O170 1.275 . S
C166 O171 1.246 . S
O167 C161 1.263 . S
O167 Tb162 2.353 . S
C168 O172 1.245 . S
C168 O173 1.259 . S
C169 O174 1.250 . S
C169 O175 1.263 . S
O170 Tb162 2.427 . S
O170 C166 1.275 . S
O171 Tb162 2.513 . S
O171 C166 1.246 . S
O172 Tb162 2.453 . S
O172 C168 1.245 . S
O173 Tb160 2.343 . S
O173 Tb162 2.596 . S
O173 C168 1.259 . S
O174 Tb162 2.374 . S
O174 C169 1.250 . S
O175 Tb160 2.353 . S
O175 C169 1.263 . S
C176 O177 1.275 . S
C176 O178 1.246 . S
O177 Tb160 2.427 . S
O177 C176 1.275 . S
O178 Tb160 2.513 . S
O178 C176 1.246 . S
C179 O163 1.245 . S
C179 O164 1.259 . S
Tb180 O183 2.453 . S
Tb180 O184 2.596 . S
Tb180 O185 2.374 . S
Tb180 O193 2.343 . S
Tb180 O195 2.353 . S
Tb180 O197 2.427 . S
Tb180 O198 2.513 . S
C181 O185 1.251 . S
C181 O187 1.263 . S
Tb182 O184 2.343 . S
Tb182 O187 2.353 . S
Tb182 O190 2.427 . S
Tb182 O191 2.513 . S
Tb182 O192 2.453 . S
Tb182 O193 2.596 . S
Tb182 O194 2.374 . S
O183 Tb180 2.453 . S
O183 C199 1.245 . S
O184 Tb180 2.596 . S
O184 Tb182 2.343 . S
O184 C199 1.259 . S
O185 Tb180 2.374 . S
O185 C181 1.251 . S
C186 O190 1.275 . S
C186 O191 1.246 . S
O187 C181 1.263 . S
O187 Tb182 2.353 . S
C188 O192 1.245 . S
C188 O193 1.259 . S
C189 O194 1.250 . S
C189 O195 1.263 . S
O190 Tb182 2.427 . S
O190 C186 1.275 . S
O191 Tb182 2.513 . S
O191 C186 1.246 . S
O192 Tb182 2.453 . S
O192 C188 1.245 . S
O193 Tb180 2.343 . S
O193 Tb182 2.596 . S
O193 C188 1.259 . S
O194 Tb182 2.374 . S
O194 C189 1.250 . S
O195 Tb180 2.353 . S
O195 C189 1.263 . S
C196 O197 1.275 . S
C196 O198 1.246 . S
O197 Tb180 2.427 . S
O197 C196 1.275 . S
O198 Tb180 2.513 . S
O198 C196 1.246 . S
C199 O183 1.245 . S
C199 O184 1.259 . S
Tb200 O203 2.453 . S
Tb200 O204 2.596 . S
Tb200 O205 2.374 . S
Tb200 O213 2.343 . S
Tb200 O215 2.353 . S
Tb200 O217 2.427 . S
Tb200 O218 2.513 . S
C201 O205 1.251 . S
C201 O207 1.263 . S
Tb202 O204 2.343 . S
Tb202 O207 2.353 . S
Tb202 O210 2.427 . S
Tb202 O211 2.513 . S
Tb202 O212 2.453 . S
Tb202 O213 2.596 . S
Tb202 O214 2.374 . S
O203 Tb200 2.453 . S
O203 C219 1.245 . S
O204 Tb200 2.596 . S
O204 Tb202 2.343 . S
O204 C219 1.259 . S
O205 Tb200 2.374 . S
O205 C201 1.251 . S
C206 O210 1.275 . S
C206 O211 1.246 . S
O207 C201 1.263 . S
O207 Tb202 2.353 . S
C208 O212 1.245 . S
C208 O213 1.259 . S
C209 O214 1.250 . S
C209 O215 1.263 . S
O210 Tb202 2.427 . S
O210 C206 1.275 . S
O211 Tb202 2.513 . S
O211 C206 1.246 . S
O212 Tb202 2.453 . S
O212 C208 1.245 . S
O213 Tb200 2.343 . S
O213 Tb202 2.596 . S
O213 C208 1.259 . S
O214 Tb202 2.374 . S
O214 C209 1.250 . S
O215 Tb200 2.353 . S
O215 C209 1.263 . S
C216 O217 1.275 . S
C216 O218 1.246 . S
O217 Tb200 2.427 . S
O217 C216 1.275 . S
O218 Tb200 2.513 . S
O218 C216 1.246 . S
C219 O203 1.245 . S
C219 O204 1.259 . S
Tb220 O223 2.453 . S
Tb220 O224 2.596 . S
Tb220 O225 2.374 . S
Tb220 O233 2.343 . S
Tb220 O235 2.353 . S
Tb220 O237 2.427 . S
Tb220 O238 2.513 . S
C221 O225 1.251 . S
C221 O227 1.263 . S
Tb222 O224 2.343 . S
Tb222 O227 2.353 . S
Tb222 O230 2.427 . S
Tb222 O231 2.513 . S
Tb222 O232 2.453 . S
Tb222 O233 2.596 . S
Tb222 O234 2.374 . S
O223 Tb220 2.453 . S
O223 C239 1.245 . S
O224 Tb220 2.596 . S
O224 Tb222 2.343 . S
O224 C239 1.259 . S
O225 Tb220 2.374 . S
O225 C221 1.251 . S
C226 O230 1.275 . S
C226 O231 1.246 . S
O227 C221 1.263 . S
O227 Tb222 2.353 . S
C228 O232 1.245 . S
C228 O233 1.259 . S
C229 O234 1.250 . S
C229 O235 1.263 . S
O230 Tb222 2.427 . S
O230 C226 1.275 . S
O231 Tb222 2.513 . S
O231 C226 1.246 . S
O232 Tb222 2.453 . S
O232 C228 1.245 . S
O233 Tb220 2.343 . S
O233 Tb222 2.596 . S
O233 C228 1.259 . S
O234 Tb222 2.374 . S
O234 C229 1.250 . S
O235 Tb220 2.353 . S
O235 C229 1.263 . S
C236 O237 1.275 . S
C236 O238 1.246 . S
O237 Tb220 2.427 . S
O237 C236 1.275 . S
O238 Tb220 2.513 . S
O238 C236 1.246 . S
C239 O223 1.245 . S
C239 O224 1.259 . S
Tb240 O243 2.453 . S
Tb240 O244 2.596 . S
Tb240 O245 2.374 . S
Tb240 O253 2.343 . S
Tb240 O255 2.353 . S
Tb240 O257 2.427 . S
Tb240 O258 2.513 . S
C241 O245 1.251 . S
C241 O247 1.263 . S
Tb242 O244 2.343 . S
Tb242 O247 2.353 . S
Tb242 O250 2.427 . S
Tb242 O251 2.513 . S
Tb242 O252 2.453 . S
Tb242 O253 2.596 . S
Tb242 O254 2.374 . S
O243 Tb240 2.453 . S
O243 C259 1.245 . S
O244 Tb240 2.596 . S
O244 Tb242 2.343 . S
O244 C259 1.259 . S
O245 Tb240 2.374 . S
O245 C241 1.251 . S
C246 O250 1.275 . S
C246 O251 1.246 . S
O247 C241 1.263 . S
O247 Tb242 2.353 . S
C248 O252 1.245 . S
C248 O253 1.259 . S
C249 O254 1.250 . S
C249 O255 1.263 . S
O250 Tb242 2.427 . S
O250 C246 1.275 . S
O251 Tb242 2.513 . S
O251 C246 1.246 . S
O252 Tb242 2.453 . S
O252 C248 1.245 . S
O253 Tb240 2.343 . S
O253 Tb242 2.596 . S
O253 C248 1.259 . S
O254 Tb242 2.374 . S
O254 C249 1.250 . S
O255 Tb240 2.353 . S
O255 C249 1.263 . S
C256 O257 1.275 . S
C256 O258 1.246 . S
O257 Tb240 2.427 . S
O257 C256 1.275 . S
O258 Tb240 2.513 . S
O258 C256 1.246 . S
C259 O243 1.245 . S
C259 O244 1.259 . S
Tb260 O263 2.453 . S
Tb260 O264 2.596 . S
Tb260 O265 2.374 . S
Tb260 O273 2.343 . S
Tb260 O275 2.353 . S
Tb260 O277 2.427 . S
Tb260 O278 2.513 . S
C261 O265 1.251 . S
C261 O267 1.263 . S
Tb262 O264 2.343 . S
Tb262 O267 2.353 . S
Tb262 O270 2.427 . S
Tb262 O271 2.513 . S
Tb262 O272 2.453 . S
Tb262 O273 2.596 . S
Tb262 O274 2.374 . S
O263 Tb260 2.453 . S
O263 C279 1.245 . S
O264 Tb260 2.596 . S
O264 Tb262 2.343 . S
O264 C279 1.259 . S
O265 Tb260 2.374 . S
O265 C261 1.251 . S
C266 O270 1.275 . S
C266 O271 1.246 . S
O267 C261 1.263 . S
O267 Tb262 2.353 . S
C268 O272 1.245 . S
C268 O273 1.259 . S
C269 O274 1.250 . S
C269 O275 1.263 . S
O270 Tb262 2.427 . S
O270 C266 1.275 . S
O271 Tb262 2.513 . S
O271 C266 1.246 . S
O272 Tb262 2.453 . S
O272 C268 1.245 . S
O273 Tb260 2.343 . S
O273 Tb262 2.596 . S
O273 C268 1.259 . S
O274 Tb262 2.374 . S
O274 C269 1.250 . S
O275 Tb260 2.353 . S
O275 C269 1.263 . S
C276 O277 1.275 . S
C276 O278 1.246 . S
O277 Tb260 2.427 . S
O277 C276 1.275 . S
O278 Tb260 2.513 . S
O278 C276 1.246 . S
C279 O263 1.245 . S
C279 O264 1.259 . S
Tb280 O283 2.453 . S
Tb280 O284 2.596 . S
Tb280 O285 2.374 . S
Tb280 O293 2.343 . S
Tb280 O295 2.353 . S
Tb280 O297 2.427 . S
Tb280 O298 2.513 . S
C281 O285 1.251 . S
C281 O287 1.263 . S
Tb282 O284 2.343 . S
Tb282 O287 2.353 . S
Tb282 O290 2.427 . S
Tb282 O291 2.513 . S
Tb282 O292 2.453 . S
Tb282 O293 2.596 . S
Tb282 O294 2.374 . S
O283 Tb280 2.453 . S
O283 C299 1.245 . S
O284 Tb280 2.596 . S
O284 Tb282 2.343 . S
O284 C299 1.259 . S
O285 Tb280 2.374 . S
O285 C281 1.251 . S
C286 O290 1.275 . S
C286 O291 1.246 . S
O287 C281 1.263 . S
O287 Tb282 2.353 . S
C288 O292 1.245 . S
C288 O293 1.259 . S
C289 O294 1.250 . S
C289 O295 1.263 . S
O290 Tb282 2.427 . S
O290 C286 1.275 . S
O291 Tb282 2.513 . S
O291 C286 1.246 . S
O292 Tb282 2.453 . S
O292 C288 1.245 . S
O293 Tb280 2.343 . S
O293 Tb282 2.596 . S
O293 C288 1.259 . S
O294 Tb282 2.374 . S
O294 C289 1.250 . S
O295 Tb280 2.353 . S
O295 C289 1.263 . S
C296 O297 1.275 . S
C296 O298 1.246 . S
O297 Tb280 2.427 . S
O297 C296 1.275 . S
O298 Tb280 2.513 . S
O298 C296 1.246 . S
C299 O283 1.245 . S
C299 O284 1.259 . S
Tb300 O303 2.453 . S
Tb300 O304 2.596 . S
Tb300 O305 2.374 . S
Tb300 O313 2.343 . S
Tb300 O315 2.353 . S
Tb300 O317 2.427 . S
Tb300 O318 2.513 . S
C301 O305 1.251 . S
C301 O307 1.263 . S
Tb302 O304 2.343 . S
Tb302 O307 2.353 . S
Tb302 O310 2.427 . S
Tb302 O311 2.513 . S
Tb302 O312 2.453 . S
Tb302 O313 2.596 . S
Tb302 O314 2.374 . S
O303 Tb300 2.453 . S
O303 C319 1.245 . S
O304 Tb300 2.596 . S
O304 Tb302 2.343 . S
O304 C319 1.259 . S
O305 Tb300 2.374 . S
O305 C301 1.251 . S
C306 O310 1.275 . S
C306 O311 1.246 . S
O307 C301 1.263 . S
O307 Tb302 2.353 . S
C308 O312 1.245 . S
C308 O313 1.259 . S
C309 O314 1.250 . S
C309 O315 1.263 . S
O310 Tb302 2.427 . S
O310 C306 1.275 . S
O311 Tb302 2.513 . S
O311 C306 1.246 . S
O312 Tb302 2.453 . S
O312 C308 1.245 . S
O313 Tb300 2.343 . S
O313 Tb302 2.596 . S
O313 C308 1.259 . S
O314 Tb302 2.374 . S
O314 C309 1.250 . S
O315 Tb300 2.353 . S
O315 C309 1.263 . S
C316 O317 1.275 . S
C316 O318 1.246 . S
O317 Tb300 2.427 . S
O317 C316 1.275 . S
O318 Tb300 2.513 . S
O318 C316 1.246 . S
C319 O303 1.245 . S
C319 O304 1.259 . S
Tb320 O323 2.453 . S
Tb320 O324 2.596 . S
Tb320 O325 2.374 . S
Tb320 O333 2.343 . S
Tb320 O335 2.353 . S
Tb320 O337 2.427 . S
Tb320 O338 2.513 . S
C321 O325 1.251 . S
C321 O327 1.263 . S
Tb322 O324 2.343 . S
Tb322 O327 2.353 . S
Tb322 O330 2.427 . S
Tb322 O331 2.513 . S
Tb322 O332 2.453 . S
Tb322 O333 2.596 . S
Tb322 O334 2.374 . S
O323 Tb320 2.453 . S
O323 C339 1.245 . S
O324 Tb320 2.596 . S
O324 Tb322 2.343 . S
O324 C339 1.259 . S
O325 Tb320 2.374 . S
O325 C321 1.251 . S
C326 O330 1.275 . S
C326 O331 1.246 . S
O327 C321 1.263 . S
O327 Tb322 2.353 . S
C328 O332 1.245 . S
C328 O333 1.259 . S
C329 O334 1.250 . S
C329 O335 1.263 . S
O330 Tb322 2.427 . S
O330 C326 1.275 . S
O331 Tb322 2.513 . S
O331 C326 1.246 . S
O332 Tb322 2.453 . S
O332 C328 1.245 . S
O333 Tb320 2.343 . S
O333 Tb322 2.596 . S
O333 C328 1.259 . S
O334 Tb322 2.374 . S
O334 C329 1.250 . S
O335 Tb320 2.353 . S
O335 C329 1.263 . S
C336 O337 1.275 . S
C336 O338 1.246 . S
O337 Tb320 2.427 . S
O337 C336 1.275 . S
O338 Tb320 2.513 . S
O338 C336 1.246 . S
C339 O323 1.245 . S
C339 O324 1.259 . S
Tb340 O343 2.453 . S
Tb340 O344 2.596 . S
Tb340 O345 2.374 . S
Tb340 O353 2.343 . S
Tb340 O355 2.353 . S
Tb340 O357 2.427 . S
Tb340 O358 2.513 . S
C341 O345 1.251 . S
C341 O347 1.263 . S
Tb342 O344 2.343 . S
Tb342 O347 2.353 . S
Tb342 O350 2.427 . S
Tb342 O351 2.513 . S
Tb342 O352 2.453 . S
Tb342 O353 2.596 . S
Tb342 O354 2.374 . S
O343 Tb340 2.453 . S
O343 C359 1.245 . S
O344 Tb340 2.596 . S
O344 Tb342 2.343 . S
O344 C359 1.259 . S
O345 Tb340 2.374 . S
O345 C341 1.251 . S
C346 O350 1.275 . S
C346 O351 1.246 . S
O347 C341 1.263 . S
O347 Tb342 2.353 . S
C348 O352 1.245 . S
C348 O353 1.259 . S
C349 O354 1.250 . S
C349 O355 1.263 . S
O350 Tb342 2.427 . S
O350 C346 1.275 . S
O351 Tb342 2.513 . S
O351 C346 1.246 . S
O352 Tb342 2.453 . S
O352 C348 1.245 . S
O353 Tb340 2.343 . S
O353 Tb342 2.596 . S
O353 C348 1.259 . S
O354 Tb342 2.374 . S
O354 C349 1.250 . S
O355 Tb340 2.353 . S
O355 C349 1.263 . S
C356 O357 1.275 . S
C356 O358 1.246 . S
O357 Tb340 2.427 . S
O357 C356 1.275 . S
O358 Tb340 2.513 . S
O358 C356 1.246 . S
C359 O343 1.245 . S
C359 O344 1.259 . S
Tb360 O363 2.453 . S
Tb360 O364 2.596 . S
Tb360 O365 2.374 . S
Tb360 O373 2.343 . S
Tb360 O375 2.353 . S
Tb360 O377 2.427 . S
Tb360 O378 2.513 . S
C361 O365 1.251 . S
C361 O367 1.263 . S
Tb362 O364 2.343 . S
Tb362 O367 2.353 . S
Tb362 O370 2.427 . S
Tb362 O371 2.513 . S
Tb362 O372 2.453 . S
Tb362 O373 2.596 . S
Tb362 O374 2.374 . S
O363 Tb360 2.453 . S
O363 C379 1.245 . S
O364 Tb360 2.596 . S
O364 Tb362 2.343 . S
O364 C379 1.259 . S
O365 Tb360 2.374 . S
O365 C361 1.251 . S
C366 O370 1.275 . S
C366 O371 1.246 . S
O367 C361 1.263 . S
O367 Tb362 2.353 . S
C368 O372 1.245 . S
C368 O373 1.259 . S
C369 O374 1.250 . S
C369 O375 1.263 . S
O370 Tb362 2.427 . S
O370 C366 1.275 . S
O371 Tb362 2.513 . S
O371 C366 1.246 . S
O372 Tb362 2.453 . S
O372 C368 1.245 . S
O373 Tb360 2.343 . S
O373 Tb362 2.596 . S
O373 C368 1.259 . S
O374 Tb362 2.374 . S
O374 C369 1.250 . S
O375 Tb360 2.353 . S
O375 C369 1.263 . S
C376 O377 1.275 . S
C376 O378 1.246 . S
O377 Tb360 2.427 . S
O377 C376 1.275 . S
O378 Tb360 2.513 . S
O378 C376 1.246 . S
C379 O363 1.245 . S
C379 O364 1.259 . S
Tb380 O383 2.453 . S
Tb380 O384 2.596 . S
Tb380 O385 2.374 . S
Tb380 O393 2.343 . S
Tb380 O395 2.353 . S
Tb380 O397 2.427 . S
Tb380 O398 2.513 . S
C381 O385 1.251 . S
C381 O387 1.263 . S
Tb382 O384 2.343 . S
Tb382 O387 2.353 . S
Tb382 O390 2.427 . S
Tb382 O391 2.513 . S
Tb382 O392 2.453 . S
Tb382 O393 2.596 . S
Tb382 O394 2.374 . S
O383 Tb380 2.453 . S
O383 C399 1.245 . S
O384 Tb380 2.596 . S
O384 Tb382 2.343 . S
O384 C399 1.259 . S
O385 Tb380 2.374 . S
O385 C381 1.251 . S
C386 O390 1.275 . S
C386 O391 1.246 . S
O387 C381 1.263 . S
O387 Tb382 2.353 . S
C388 O392 1.245 . S
C388 O393 1.259 . S
C389 O394 1.250 . S
C389 O395 1.263 . S
O390 Tb382 2.427 . S
O390 C386 1.275 . S
O391 Tb382 2.513 . S
O391 C386 1.246 . S
O392 Tb382 2.453 . S
O392 C388 1.245 . S
O393 Tb380 2.343 . S
O393 Tb382 2.596 . S
O393 C388 1.259 . S
O394 Tb382 2.374 . S
O394 C389 1.250 . S
O395 Tb380 2.353 . S
O395 C389 1.263 . S
C396 O397 1.275 . S
C396 O398 1.246 . S
O397 Tb380 2.427 . S
O397 C396 1.275 . S
O398 Tb380 2.513 . S
O398 C396 1.246 . S
C399 O383 1.245 . S
C399 O384 1.259 . S
Tb400 O403 2.453 . S
Tb400 O404 2.596 . S
Tb400 O405 2.374 . S
Tb400 O413 2.343 . S
Tb400 O415 2.353 . S
Tb400 O417 2.427 . S
Tb400 O418 2.513 . S
C401 O405 1.251 . S
C401 O407 1.263 . S
Tb402 O404 2.343 . S
Tb402 O407 2.353 . S
Tb402 O410 2.427 . S
Tb402 O411 2.513 . S
Tb402 O412 2.453 . S
Tb402 O413 2.596 . S
Tb402 O414 2.374 . S
O403 Tb400 2.453 . S
O403 C419 1.245 . S
O404 Tb400 2.596 . S
O404 Tb402 2.343 . S
O404 C419 1.259 . S
O405 Tb400 2.374 . S
O405 C401 1.251 . S
C406 O410 1.275 . S
C406 O411 1.246 . S
O407 C401 1.263 . S
O407 Tb402 2.353 . S
C408 O412 1.245 . S
C408 O413 1.259 . S
C409 O414 1.250 . S
C409 O415 1.263 . S
O410 Tb402 2.427 . S
O410 C406 1.275 . S
O411 Tb402 2.513 . S
O411 C406 1.246 . S
O412 Tb402 2.453 . S
O412 C408 1.245 . S
O413 Tb400 2.343 . S
O413 Tb402 2.596 . S
O413 C408 1.259 . S
O414 Tb402 2.374 . S
O414 C409 1.250 . S
O415 Tb400 2.353 . S
O415 C409 1.263 . S
C416 O417 1.275 . S
C416 O418 1.246 . S
O417 Tb400 2.427 . S
O417 C416 1.275 . S
O418 Tb400 2.513 . S
O418 C416 1.246 . S
C419 O403 1.245 . S
C419 O404 1.259 . S
Tb420 O423 2.453 . S
Tb420 O424 2.596 . S
Tb420 O425 2.374 . S
Tb420 O433 2.343 1_556 S
Tb420 O435 2.353 . S
Tb420 O437 2.427 . S
Tb420 O438 2.523 . S
C421 O425 1.251 . S
C421 O427 1.263 1_556 S
Tb422 O424 2.343 1_554 S
Tb422 O427 2.353 . S
Tb422 O430 2.427 . S
Tb422 O431 2.513 . S
Tb422 O432 2.453 . S
Tb422 O433 2.596 . S
Tb422 O434 2.374 . S
O423 Tb420 2.453 . S
O423 C439 1.245 . S
O424 Tb420 2.596 . S
O424 Tb422 2.343 1_556 S
O424 C439 1.259 . S
O425 Tb420 2.374 . S
O425 C421 1.251 . S
C426 O430 1.261 1_556 S
C426 O431 1.244 1_556 S
O427 C421 1.263 1_554 S
O427 Tb422 2.353 . S
C428 O432 1.245 . S
C428 O433 1.259 . S
C429 O434 1.250 . S
C429 O435 1.263 1_554 S
O430 Tb422 2.427 . S
O430 C426 1.261 1_554 S
O431 Tb422 2.513 . S
O431 C426 1.244 1_554 S
O432 Tb422 2.453 . S
O432 C428 1.245 . S
O433 Tb420 2.343 1_554 S
O433 Tb422 2.596 . S
O433 C428 1.259 . S
O434 Tb422 2.374 . S
O434 C429 1.250 . S
O435 Tb420 2.353 . S
O435 C429 1.263 1_556 S
C436 O437 1.267 1_554 S
C436 O438 1.244 1_554 S
O437 Tb420 2.427 . S
O437 C436 1.267 1_556 S
O438 Tb420 2.523 . S
O438 C436 1.244 1_556 S
C439 O423 1.245 . S
C439 O424 1.259 . S
Tb440 O443 2.453 . S
Tb440 O444 2.596 . S
Tb440 O445 2.374 . S
Tb440 O453 2.343 1_556 S
Tb440 O455 2.353 . S
Tb440 O457 2.427 . S
Tb440 O458 2.523 . S
C441 O445 1.251 . S
C441 O447 1.263 1_556 S
Tb442 O444 2.343 1_554 S
Tb442 O447 2.353 . S
Tb442 O450 2.427 . S
Tb442 O451 2.513 . S
Tb442 O452 2.453 . S
Tb442 O453 2.596 . S
Tb442 O454 2.374 . S
O443 Tb440 2.453 . S
O443 C459 1.245 . S
O444 Tb440 2.596 . S
O444 Tb442 2.343 1_556 S
O444 C459 1.259 . S
O445 Tb440 2.374 . S
O445 C441 1.251 . S
C446 O450 1.261 1_556 S
C446 O451 1.244 1_556 S
O447 C441 1.263 1_554 S
O447 Tb442 2.353 . S
C448 O452 1.245 . S
C448 O453 1.259 . S
C449 O454 1.250 . S
C449 O455 1.263 1_554 S
O450 Tb442 2.427 . S
O450 C446 1.261 1_554 S
O451 Tb442 2.513 . S
O451 C446 1.244 1_554 S
O452 Tb442 2.453 . S
O452 C448 1.245 . S
O453 Tb440 2.343 1_554 S
O453 Tb442 2.596 . S
O453 C448 1.259 . S
O454 Tb442 2.374 . S
O454 C449 1.250 . S
O455 Tb440 2.353 . S
O455 C449 1.263 1_556 S
C456 O457 1.267 1_554 S
C456 O458 1.244 1_554 S
O457 Tb440 2.427 . S
O457 C456 1.267 1_556 S
O458 Tb440 2.523 . S
O458 C456 1.244 1_556 S
C459 O443 1.245 . S
C459 O444 1.259 . S
Tb460 O463 2.453 . S
Tb460 O464 2.596 . S
Tb460 O465 2.374 . S
Tb460 O473 2.343 1_556 S
Tb460 O475 2.353 . S
Tb460 O477 2.427 . S
Tb460 O478 2.523 . S
C461 O465 1.251 . S
C461 O467 1.263 1_556 S
Tb462 O464 2.343 1_554 S
Tb462 O467 2.353 . S
Tb462 O470 2.427 . S
Tb462 O471 2.513 . S
Tb462 O472 2.453 . S
Tb462 O473 2.596 . S
Tb462 O474 2.374 . S
O463 Tb460 2.453 . S
O463 C479 1.245 . S
O464 Tb460 2.596 . S
O464 Tb462 2.343 1_556 S
O464 C479 1.259 . S
O465 Tb460 2.374 . S
O465 C461 1.251 . S
C466 O470 1.261 1_556 S
C466 O471 1.244 1_556 S
O467 C461 1.263 1_554 S
O467 Tb462 2.353 . S
C468 O472 1.245 . S
C468 O473 1.259 . S
C469 O474 1.250 . S
C469 O475 1.263 1_554 S
O470 Tb462 2.427 . S
O470 C466 1.261 1_554 S
O471 Tb462 2.513 . S
O471 C466 1.244 1_554 S
O472 Tb462 2.453 . S
O472 C468 1.245 . S
O473 Tb460 2.343 1_554 S
O473 Tb462 2.596 . S
O473 C468 1.259 . S
O474 Tb462 2.374 . S
O474 C469 1.250 . S
O475 Tb460 2.353 . S
O475 C469 1.263 1_556 S
C476 O477 1.267 1_554 S
C476 O478 1.244 1_554 S
O477 Tb460 2.427 . S
O477 C476 1.267 1_556 S
O478 Tb460 2.523 . S
O478 C476 1.244 1_556 S
C479 O463 1.245 . S
C479 O464 1.259 . S
Tb480 O483 2.453 . S
Tb480 O484 2.596 . S
Tb480 O485 2.374 . S
Tb480 O493 2.343 . S
Tb480 O495 2.353 . S
Tb480 O497 2.427 . S
Tb480 O498 2.513 . S
C481 O485 1.251 . S
C481 O487 1.263 . S
Tb482 O484 2.343 . S
Tb482 O487 2.353 . S
Tb482 O490 2.427 . S
Tb482 O491 2.513 . S
Tb482 O492 2.453 . S
Tb482 O493 2.596 . S
Tb482 O494 2.374 . S
O483 Tb480 2.453 . S
O483 C499 1.245 . S
O484 Tb480 2.596 . S
O484 Tb482 2.343 . S
O484 C499 1.259 . S
O485 Tb480 2.374 . S
O485 C481 1.251 . S
C486 O490 1.275 . S
C486 O491 1.246 . S
O487 C481 1.263 . S
O487 Tb482 2.353 . S
C488 O492 1.245 . S
C488 O493 1.259 . S
C489 O494 1.250 . S
C489 O495 1.263 . S
O490 Tb482 2.427 . S
O490 C486 1.275 . S
O491 Tb482 2.513 . S
O491 C486 1.246 . S
O492 Tb482 2.453 . S
O492 C488 1.245 . S
O493 Tb480 2.343 . S
O493 Tb482 2.596 . S
O493 C488 1.259 . S
O494 Tb482 2.374 . S
O494 C489 1.250 . S
O495 Tb480 2.353 . S
O495 C489 1.263 . S
C496 O497 1.275 . S
C496 O498 1.246 . S
O497 Tb480 2.427 . S
O497 C496 1.275 . S
O498 Tb480 2.513 . S
O498 C496 1.246 . S
C499 O483 1.245 . S
C499 O484 1.259 . S
Tb500 O503 2.453 . S
Tb500 O504 2.596 . S
Tb500 O505 2.374 . S
Tb500 O513 2.343 . S
Tb500 O515 2.353 . S
Tb500 O517 2.427 . S
Tb500 O518 2.513 . S
C501 O505 1.251 . S
C501 O507 1.263 . S
Tb502 O504 2.343 . S
Tb502 O507 2.353 . S
Tb502 O510 2.427 . S
Tb502 O511 2.513 . S
Tb502 O512 2.453 . S
Tb502 O513 2.596 . S
Tb502 O514 2.374 . S
O503 Tb500 2.453 . S
O503 C519 1.245 . S
O504 Tb500 2.596 . S
O504 Tb502 2.343 . S
O504 C519 1.259 . S
O505 Tb500 2.374 . S
O505 C501 1.251 . S
C506 O510 1.275 . S
C506 O511 1.246 . S
O507 C501 1.263 . S
O507 Tb502 2.353 . S
C508 O512 1.245 . S
C508 O513 1.259 . S
C509 O514 1.250 . S
C509 O515 1.263 . S
O510 Tb502 2.427 . S
O510 C506 1.275 . S
O511 Tb502 2.513 . S
O511 C506 1.246 . S
O512 Tb502 2.453 . S
O512 C508 1.245 . S
O513 Tb500 2.343 . S
O513 Tb502 2.596 . S
O513 C508 1.259 . S
O514 Tb502 2.374 . S
O514 C509 1.250 . S
O515 Tb500 2.353 . S
O515 C509 1.263 . S
C516 O517 1.275 . S
C516 O518 1.246 . S
O517 Tb500 2.427 . S
O517 C516 1.275 . S
O518 Tb500 2.513 . S
O518 C516 1.246 . S
C519 O503 1.245 . S
C519 O504 1.259 . S
Tb520 O523 2.453 . S
Tb520 O524 2.596 . S
Tb520 O525 2.374 . S
Tb520 O533 2.343 . S
Tb520 O535 2.353 . S
Tb520 O537 2.427 . S
Tb520 O538 2.513 . S
C521 O525 1.251 . S
C521 O527 1.263 . S
Tb522 O524 2.343 . S
Tb522 O527 2.353 . S
Tb522 O530 2.427 . S
Tb522 O531 2.513 . S
Tb522 O532 2.453 . S
Tb522 O533 2.596 . S
Tb522 O534 2.374 . S
O523 Tb520 2.453 . S
O523 C539 1.245 . S
O524 Tb520 2.596 . S
O524 Tb522 2.343 . S
O524 C539 1.259 . S
O525 Tb520 2.374 . S
O525 C521 1.251 . S
C526 O530 1.275 . S
C526 O531 1.246 . S
O527 C521 1.263 . S
O527 Tb522 2.353 . S
C528 O532 1.245 . S
C528 O533 1.259 . S
C529 O534 1.250 . S
C529 O535 1.263 . S
O530 Tb522 2.427 . S
O530 C526 1.275 . S
O531 Tb522 2.513 . S
O531 C526 1.246 . S
O532 Tb522 2.453 . S
O532 C528 1.245 . S
O533 Tb520 2.343 . S
O533 Tb522 2.596 . S
O533 C528 1.259 . S
O534 Tb522 2.374 . S
O534 C529 1.250 . S
O535 Tb520 2.353 . S
O535 C529 1.263 . S
C536 O537 1.275 . S
C536 O538 1.246 . S
O537 Tb520 2.427 . S
O537 C536 1.275 . S
O538 Tb520 2.513 . S
O538 C536 1.246 . S
C539 O523 1.245 . S
C539 O524 1.259 . S
Tb540 O543 2.453 . S
Tb540 O544 2.596 . S
Tb540 O545 2.374 . S
Tb540 O553 2.343 1_556 S
Tb540 O555 2.353 . S
Tb540 O557 2.427 . S
Tb540 O558 2.513 . S
C541 O545 1.251 . S
C541 O547 1.263 1_556 S
Tb542 O544 2.343 1_554 S
Tb542 O547 2.353 . S
Tb542 O550 2.427 . S
Tb542 O551 2.523 . S
Tb542 O552 2.453 . S
Tb542 O553 2.596 . S
Tb542 O554 2.374 . S
O543 Tb540 2.453 . S
O543 C559 1.245 . S
O544 Tb540 2.596 . S
O544 Tb542 2.343 1_556 S
O544 C559 1.259 . S
O545 Tb540 2.374 . S
O545 C541 1.251 . S
C546 O550 1.267 1_556 S
C546 O551 1.244 1_556 S
O547 C541 1.263 1_554 S
O547 Tb542 2.353 . S
C548 O552 1.245 . S
C548 O553 1.259 . S
C549 O554 1.250 . S
C549 O555 1.263 1_554 S
O550 Tb542 2.427 . S
O550 C546 1.267 1_554 S
O551 Tb542 2.523 . S
O551 C546 1.244 1_554 S
O552 Tb542 2.453 . S
O552 C548 1.245 . S
O553 Tb540 2.343 1_554 S
O553 Tb542 2.596 . S
O553 C548 1.259 . S
O554 Tb542 2.374 . S
O554 C549 1.250 . S
O555 Tb540 2.353 . S
O555 C549 1.263 1_556 S
C556 O557 1.261 1_554 S
C556 O558 1.244 1_554 S
O557 Tb540 2.427 . S
O557 C556 1.261 1_556 S
O558 Tb540 2.513 . S
O558 C556 1.244 1_556 S
C559 O543 1.245 . S
C559 O544 1.259 . S
Tb560 O563 2.453 . S
Tb560 O564 2.596 . S
Tb560 O565 2.374 . S
Tb560 O573 2.343 1_556 S
Tb560 O575 2.353 . S
Tb560 O577 2.427 . S
Tb560 O578 2.513 . S
C561 O565 1.251 . S
C561 O567 1.263 1_556 S
Tb562 O564 2.343 1_554 S
Tb562 O567 2.353 . S
Tb562 O570 2.427 . S
Tb562 O571 2.523 . S
Tb562 O572 2.453 . S
Tb562 O573 2.596 . S
Tb562 O574 2.374 . S
O563 Tb560 2.453 . S
O563 C579 1.245 . S
O564 Tb560 2.596 . S
O564 Tb562 2.343 1_556 S
O564 C579 1.259 . S
O565 Tb560 2.374 . S
O565 C561 1.251 . S
C566 O570 1.267 1_556 S
C566 O571 1.244 1_556 S
O567 C561 1.263 1_554 S
O567 Tb562 2.353 . S
C568 O572 1.245 . S
C568 O573 1.259 . S
C569 O574 1.250 . S
C569 O575 1.263 1_554 S
O570 Tb562 2.427 . S
O570 C566 1.267 1_554 S
O571 Tb562 2.523 . S
O571 C566 1.244 1_554 S
O572 Tb562 2.453 . S
O572 C568 1.245 . S
O573 Tb560 2.343 1_554 S
O573 Tb562 2.596 . S
O573 C568 1.259 . S
O574 Tb562 2.374 . S
O574 C569 1.250 . S
O575 Tb560 2.353 . S
O575 C569 1.263 1_556 S
C576 O577 1.261 1_554 S
C576 O578 1.244 1_554 S
O577 Tb560 2.427 . S
O577 C576 1.261 1_556 S
O578 Tb560 2.513 . S
O578 C576 1.244 1_556 S
C579 O563 1.245 . S
C579 O564 1.259 . S
Tb580 O583 2.453 . S
Tb580 O584 2.596 . S
Tb580 O585 2.374 . S
Tb580 O593 2.343 1_556 S
Tb580 O595 2.353 . S
Tb580 O597 2.427 . S
Tb580 O598 2.513 . S
C581 O585 1.251 . S
C581 O587 1.263 1_556 S
Tb582 O584 2.343 1_554 S
Tb582 O587 2.353 . S
Tb582 O590 2.427 . S
Tb582 O591 2.523 . S
Tb582 O592 2.453 . S
Tb582 O593 2.596 . S
Tb582 O594 2.374 . S
O583 Tb580 2.453 . S
O583 C599 1.245 . S
O584 Tb580 2.596 . S
O584 Tb582 2.343 1_556 S
O584 C599 1.259 . S
O585 Tb580 2.374 . S
O585 C581 1.251 . S
C586 O590 1.267 1_556 S
C586 O591 1.244 1_556 S
O587 C581 1.263 1_554 S
O587 Tb582 2.353 . S
C588 O592 1.245 . S
C588 O593 1.259 . S
C589 O594 1.250 . S
C589 O595 1.263 1_554 S
O590 Tb582 2.427 . S
O590 C586 1.267 1_554 S
O591 Tb582 2.523 . S
O591 C586 1.244 1_554 S
O592 Tb582 2.453 . S
O592 C588 1.245 . S
O593 Tb580 2.343 1_554 S
O593 Tb582 2.596 . S
O593 C588 1.259 . S
O594 Tb582 2.374 . S
O594 C589 1.250 . S
O595 Tb580 2.353 . S
O595 C589 1.263 1_556 S
C596 O597 1.261 1_554 S
C596 O598 1.244 1_554 S
O597 Tb580 2.427 . S
O597 C596 1.261 1_556 S
O598 Tb580 2.513 . S
O598 C596 1.244 1_556 S
C599 O583 1.245 . S
C599 O584 1.259 . S
Tb600 O603 2.453 . S
Tb600 O604 2.596 . S
Tb600 O605 2.374 . S
Tb600 O613 2.343 . S
Tb600 O615 2.353 . S
Tb600 O617 2.427 . S
Tb600 O618 2.513 . S
C601 O605 1.251 . S
C601 O607 1.263 . S
Tb602 O604 2.343 . S
Tb602 O607 2.353 . S
Tb602 O610 2.427 . S
Tb602 O611 2.513 . S
Tb602 O612 2.453 . S
Tb602 O613 2.596 . S
Tb602 O614 2.374 . S
O603 Tb600 2.453 . S
O603 C619 1.245 . S
O604 Tb600 2.596 . S
O604 Tb602 2.343 . S
O604 C619 1.259 . S
O605 Tb600 2.374 . S
O605 C601 1.251 . S
C606 O610 1.275 . S
C606 O611 1.246 . S
O607 C601 1.263 . S
O607 Tb602 2.353 . S
C608 O612 1.245 . S
C608 O613 1.259 . S
C609 O614 1.250 . S
C609 O615 1.263 . S
O610 Tb602 2.427 . S
O610 C606 1.275 . S
O611 Tb602 2.513 . S
O611 C606 1.246 . S
O612 Tb602 2.453 . S
O612 C608 1.245 . S
O613 Tb600 2.343 . S
O613 Tb602 2.596 . S
O613 C608 1.259 . S
O614 Tb602 2.374 . S
O614 C609 1.250 . S
O615 Tb600 2.353 . S
O615 C609 1.263 . S
C616 O617 1.275 . S
C616 O618 1.246 . S
O617 Tb600 2.427 . S
O617 C616 1.275 . S
O618 Tb600 2.513 . S
O618 C616 1.246 . S
C619 O603 1.245 . S
C619 O604 1.259 . S
Tb620 O623 2.453 . S
Tb620 O624 2.596 . S
Tb620 O625 2.374 . S
Tb620 O633 2.343 . S
Tb620 O635 2.353 . S
Tb620 O637 2.427 . S
Tb620 O638 2.513 . S
C621 O625 1.251 . S
C621 O627 1.263 . S
Tb622 O624 2.343 . S
Tb622 O627 2.353 . S
Tb622 O630 2.427 . S
Tb622 O631 2.513 . S
Tb622 O632 2.453 . S
Tb622 O633 2.596 . S
Tb622 O634 2.374 . S
O623 Tb620 2.453 . S
O623 C639 1.245 . S
O624 Tb620 2.596 . S
O624 Tb622 2.343 . S
O624 C639 1.259 . S
O625 Tb620 2.374 . S
O625 C621 1.251 . S
C626 O630 1.275 . S
C626 O631 1.246 . S
O627 C621 1.263 . S
O627 Tb622 2.353 . S
C628 O632 1.245 . S
C628 O633 1.259 . S
C629 O634 1.250 . S
C629 O635 1.263 . S
O630 Tb622 2.427 . S
O630 C626 1.275 . S
O631 Tb622 2.513 . S
O631 C626 1.246 . S
O632 Tb622 2.453 . S
O632 C628 1.245 . S
O633 Tb620 2.343 . S
O633 Tb622 2.596 . S
O633 C628 1.259 . S
O634 Tb622 2.374 . S
O634 C629 1.250 . S
O635 Tb620 2.353 . S
O635 C629 1.263 . S
C636 O637 1.275 . S
C636 O638 1.246 . S
O637 Tb620 2.427 . S
O637 C636 1.275 . S
O638 Tb620 2.513 . S
O638 C636 1.246 . S
C639 O623 1.245 . S
C639 O624 1.259 . S
Tb640 O643 2.453 . S
Tb640 O644 2.596 . S
Tb640 O645 2.374 . S
Tb640 O653 2.343 . S
Tb640 O655 2.353 . S
Tb640 O657 2.427 . S
Tb640 O658 2.513 . S
C641 O645 1.251 . S
C641 O647 1.263 . S
Tb642 O644 2.343 . S
Tb642 O647 2.353 . S
Tb642 O650 2.427 . S
Tb642 O651 2.513 . S
Tb642 O652 2.453 . S
Tb642 O653 2.596 . S
Tb642 O654 2.374 . S
O643 Tb640 2.453 . S
O643 C659 1.245 . S
O644 Tb640 2.596 . S
O644 Tb642 2.343 . S
O644 C659 1.259 . S
O645 Tb640 2.374 . S
O645 C641 1.251 . S
C646 O650 1.275 . S
C646 O651 1.246 . S
O647 C641 1.263 . S
O647 Tb642 2.353 . S
C648 O652 1.245 . S
C648 O653 1.259 . S
C649 O654 1.250 . S
C649 O655 1.263 . S
O650 Tb642 2.427 . S
O650 C646 1.275 . S
O651 Tb642 2.513 . S
O651 C646 1.246 . S
O652 Tb642 2.453 . S
O652 C648 1.245 . S
O653 Tb640 2.343 . S
O653 Tb642 2.596 . S
O653 C648 1.259 . S
O654 Tb642 2.374 . S
O654 C649 1.250 . S
O655 Tb640 2.353 . S
O655 C649 1.263 . S
C656 O657 1.275 . S
C656 O658 1.246 . S
O657 Tb640 2.427 . S
O657 C656 1.275 . S
O658 Tb640 2.513 . S
O658 C656 1.246 . S
C659 O643 1.245 . S
C659 O644 1.259 . S
Tb660 O663 2.453 . S
Tb660 O664 2.596 . S
Tb660 O665 2.374 . S
Tb660 O673 2.343 . S
Tb660 O675 2.353 . S
Tb660 O677 2.427 . S
Tb660 O678 2.513 . S
C661 O665 1.251 . S
C661 O667 1.263 . S
Tb662 O664 2.343 . S
Tb662 O667 2.353 . S
Tb662 O670 2.427 . S
Tb662 O671 2.513 . S
Tb662 O672 2.453 . S
Tb662 O673 2.596 . S
Tb662 O674 2.374 . S
O663 Tb660 2.453 . S
O663 C679 1.245 . S
O664 Tb660 2.596 . S
O664 Tb662 2.343 . S
O664 C679 1.259 . S
O665 Tb660 2.374 . S
O665 C661 1.251 . S
C666 O670 1.275 . S
C666 O671 1.246 . S
O667 C661 1.263 . S
O667 Tb662 2.353 . S
C668 O672 1.245 . S
C668 O673 1.259 . S
C669 O674 1.250 . S
C669 O675 1.263 . S
O670 Tb662 2.427 . S
O670 C666 1.275 . S
O671 Tb662 2.513 . S
O671 C666 1.246 . S
O672 Tb662 2.453 . S
O672 C668 1.245 . S
O673 Tb660 2.343 . S
O673 Tb662 2.596 . S
O673 C668 1.259 . S
O674 Tb662 2.374 . S
O674 C669 1.250 . S
O675 Tb660 2.353 . S
O675 C669 1.263 . S
C676 O677 1.275 . S
C676 O678 1.246 . S
O677 Tb660 2.427 . S
O677 C676 1.275 . S
O678 Tb660 2.513 . S
O678 C676 1.246 . S
C679 O663 1.245 . S
C679 O664 1.259 . S
Tb680 O683 2.453 . S
Tb680 O684 2.596 . S
Tb680 O685 2.374 . S
Tb680 O693 2.343 . S
Tb680 O695 2.353 . S
Tb680 O697 2.427 . S
Tb680 O698 2.513 . S
C681 O685 1.251 . S
C681 O687 1.263 . S
Tb682 O684 2.343 . S
Tb682 O687 2.353 . S
Tb682 O690 2.427 . S
Tb682 O691 2.513 . S
Tb682 O692 2.453 . S
Tb682 O693 2.596 . S
Tb682 O694 2.374 . S
O683 Tb680 2.453 . S
O683 C699 1.245 . S
O684 Tb680 2.596 . S
O684 Tb682 2.343 . S
O684 C699 1.259 . S
O685 Tb680 2.374 . S
O685 C681 1.251 . S
C686 O690 1.275 . S
C686 O691 1.246 . S
O687 C681 1.263 . S
O687 Tb682 2.353 . S
C688 O692 1.245 . S
C688 O693 1.259 . S
C689 O694 1.250 . S
C689 O695 1.263 . S
O690 Tb682 2.427 . S
O690 C686 1.275 . S
O691 Tb682 2.513 . S
O691 C686 1.246 . S
O692 Tb682 2.453 . S
O692 C688 1.245 . S
O693 Tb680 2.343 . S
O693 Tb682 2.596 . S
O693 C688 1.259 . S
O694 Tb682 2.374 . S
O694 C689 1.250 . S
O695 Tb680 2.353 . S
O695 C689 1.263 . S
C696 O697 1.275 . S
C696 O698 1.246 . S
O697 Tb680 2.427 . S
O697 C696 1.275 . S
O698 Tb680 2.513 . S
O698 C696 1.246 . S
C699 O683 1.245 . S
C699 O684 1.259 . S
Tb700 O703 2.453 . S
Tb700 O704 2.596 . S
Tb700 O705 2.374 . S
Tb700 O713 2.343 . S
Tb700 O715 2.353 . S
Tb700 O717 2.427 . S
Tb700 O718 2.513 . S
C701 O705 1.251 . S
C701 O707 1.263 . S
Tb702 O704 2.343 . S
Tb702 O707 2.353 . S
Tb702 O710 2.427 . S
Tb702 O711 2.513 . S
Tb702 O712 2.453 . S
Tb702 O713 2.596 . S
Tb702 O714 2.374 . S
O703 Tb700 2.453 . S
O703 C719 1.245 . S
O704 Tb700 2.596 . S
O704 Tb702 2.343 . S
O704 C719 1.259 . S
O705 Tb700 2.374 . S
O705 C701 1.251 . S
C706 O710 1.275 . S
C706 O711 1.246 . S
O707 C701 1.263 . S
O707 Tb702 2.353 . S
C708 O712 1.245 . S
C708 O713 1.259 . S
C709 O714 1.250 . S
C709 O715 1.263 . S
O710 Tb702 2.427 . S
O710 C706 1.275 . S
O711 Tb702 2.513 . S
O711 C706 1.246 . S
O712 Tb702 2.453 . S
O712 C708 1.245 . S
O713 Tb700 2.343 . S
O713 Tb702 2.596 . S
O713 C708 1.259 . S
O714 Tb702 2.374 . S
O714 C709 1.250 . S
O715 Tb700 2.353 . S
O715 C709 1.263 . S
C716 O717 1.275 . S
C716 O718 1.246 . S
O717 Tb700 2.427 . S
O717 C716 1.275 . S
O718 Tb700 2.513 . S
O718 C716 1.246 . S
C719 O703 1.245 . S
C719 O704 1.259 . S
H720 C728 0.929 . S
H721 C730 0.930 . S
H722 C732 0.930 . S
H723 C735 0.929 . S
H724 C738 0.930 . S
H725 C740 0.960 . S
H726 C740 0.960 . S
H727 C740 0.960 . S
C728 H720 0.929 . S
C728 C729 1.377 . S
C728 C730 1.384 . S
C729 C728 1.377 . S
C729 C735 1.390 . S
C730 H721 0.930 . S
C730 C728 1.384 . S
C730 C731 1.372 . S
C731 C730 1.372 . S
C731 C732 1.400 . S
C731 C736 1.490 . S
C732 H722 0.930 . S
C732 C731 1.400 . S
C732 C735 1.386 . S
H733 C749 0.930 . S
H734 C750 0.931 . S
C735 H723 0.929 . S
C735 C729 1.390 . S
C735 C732 1.386 . S
C736 C731 1.490 . S
C736 C738 1.395 . S
C736 C739 1.403 . S
H737 C743 0.930 . S
C738 H724 0.930 . S
C738 C736 1.395 . S
C738 C741 1.403 . S
C739 C736 1.403 . S
C739 C740 1.524 . S
C739 C743 1.400 . S
C740 H725 0.960 . S
C740 H726 0.960 . S
C740 H727 0.960 . S
C740 C739 1.524 . S
C741 C738 1.403 . S
C741 C742 1.392 . S
C741 C745 1.495 . S
C742 C741 1.392 . S
C742 C743 1.385 . S
C742 C744 1.478 . S
C743 H737 0.930 . S
C743 C739 1.400 . S
C743 C742 1.385 . S
C744 C742 1.478 . S
C744 C746 1.381 . S
C744 C750 1.383 . S
C745 C741 1.495 . S
C745 H751 0.959 . S
C745 H752 0.961 . S
C745 H753 0.960 . S
C746 C744 1.381 . S
C746 C747 1.394 . S
C746 H754 0.930 . S
C747 C746 1.394 . S
C747 C748 1.383 1_545 S
C747 H755 0.915 1_545 S
C748 C747 1.383 1_565 S
C748 C749 1.377 . S
C749 H733 0.930 . S
C749 C748 1.377 . S
C749 C750 1.379 1_565 S
C750 H734 0.931 . S
C750 C744 1.383 . S
C750 C749 1.379 1_545 S
H751 C745 0.959 . S
H752 C745 0.961 . S
H753 C745 0.960 . S
H754 C746 0.930 . S
H755 C747 0.915 1_565 S
H756 C764 0.933 . S
H757 C766 0.930 . S
H758 C768 0.930 . S
H759 C771 0.929 . S
H760 C774 0.930 . S
H761 C776 0.960 . S
H762 C776 0.960 . S
H763 C776 0.960 . S
C764 H756 0.933 . S
C764 C765 1.384 . S
C764 C766 1.375 1_455 S
C765 C764 1.384 . S
C765 C771 1.390 . S
C766 H757 0.930 . S
C766 C764 1.375 1_655 S
C766 C767 1.372 . S
C767 C766 1.372 . S
C767 C768 1.400 . S
C767 C772 1.490 . S
C768 H758 0.930 . S
C768 C767 1.400 . S
C768 C771 1.386 1_655 S
H769 C785 0.930 . S
H770 C786 0.931 1_545 S
C771 H759 0.929 . S
C771 C765 1.390 . S
C771 C768 1.386 1_455 S
C772 C767 1.490 . S
C772 C774 1.395 . S
C772 C775 1.403 . S
H773 C779 0.930 . S
C774 H760 0.930 . S
C774 C772 1.395 . S
C774 C777 1.403 . S
C775 C772 1.403 . S
C775 C776 1.524 . S
C775 C779 1.400 . S
C776 H761 0.960 . S
C776 H762 0.960 . S
C776 H763 0.960 . S
C776 C775 1.524 . S
C777 C774 1.403 . S
C777 C778 1.392 . S
C777 C781 1.495 . S
C778 C777 1.392 . S
C778 C779 1.385 . S
C778 C780 1.478 . S
C779 H773 0.930 . S
C779 C775 1.400 . S
C779 C778 1.385 . S
C780 C778 1.478 . S
C780 C782 1.381 1_545 S
C780 C786 1.383 1_545 S
C781 C777 1.495 . S
C781 H787 0.959 . S
C781 H788 0.961 . S
C781 H789 0.960 . S
C782 C780 1.381 1_565 S
C782 C783 1.394 . S
C782 H790 0.930 1_565 S
C783 C782 1.394 . S
C783 C784 1.383 . S
C783 H791 0.929 . S
C784 C783 1.383 . S
C784 C785 1.377 . S
C785 H769 0.930 . S
C785 C784 1.377 . S
C785 C786 1.379 . S
C786 H770 0.931 1_565 S
C786 C780 1.383 1_565 S
C786 C785 1.379 . S
H787 C781 0.959 . S
H788 C781 0.961 . S
H789 C781 0.960 . S
H790 C782 0.930 1_545 S
H791 C783 0.929 . S
H792 C800 0.929 . S
H793 C802 0.930 . S
H794 C804 0.930 . S
H795 C807 0.929 . S
H796 C810 0.930 . S
H797 C812 0.960 . S
H798 C812 0.960 . S
H799 C812 0.960 . S
C800 H792 0.929 . S
C800 C801 1.377 . S
C800 C802 1.384 . S
C801 C800 1.377 . S
C801 C807 1.390 . S
C802 H793 0.930 . S
C802 C800 1.384 . S
C802 C803 1.372 1_455 S
C803 C802 1.372 1_655 S
C803 C804 1.400 . S
C803 C808 1.490 . S
C804 H794 0.930 . S
C804 C803 1.400 . S
C804 C807 1.386 1_655 S
H805 C821 0.930 . S
H806 C822 0.931 . S
C807 H795 0.929 . S
C807 C801 1.390 . S
C807 C804 1.386 1_455 S
C808 C803 1.490 . S
C808 C810 1.395 . S
C808 C811 1.403 . S
H809 C815 0.930 . S
C810 H796 0.930 . S
C810 C808 1.395 . S
C810 C813 1.403 . S
C811 C808 1.403 . S
C811 C812 1.524 . S
C811 C815 1.400 . S
C812 H797 0.960 . S
C812 H798 0.960 . S
C812 H799 0.960 . S
C812 C811 1.524 . S
C813 C810 1.403 . S
C813 C814 1.392 . S
C813 C817 1.495 . S
C814 C813 1.392 . S
C814 C815 1.385 . S
C814 C816 1.478 . S
C815 H809 0.930 . S
C815 C811 1.400 . S
C815 C814 1.385 . S
C816 C814 1.478 . S
C816 C818 1.381 . S
C816 C822 1.383 . S
C817 C813 1.495 . S
C817 H823 0.959 . S
C817 H824 0.961 . S
C817 H825 0.960 . S
C818 C816 1.381 . S
C818 C819 1.394 . S
C818 H826 0.930 . S
C819 C818 1.394 . S
C819 C820 1.383 . S
C819 H827 0.929 . S
C820 C819 1.383 . S
C820 C821 1.377 . S
C821 H805 0.930 . S
C821 C820 1.377 . S
C821 C822 1.379 . S
C822 H806 0.931 . S
C822 C816 1.383 . S
C822 C821 1.379 . S
H823 C817 0.959 . S
H824 C817 0.961 . S
H825 C817 0.960 . S
H826 C818 0.930 . S
H827 C819 0.929 . S
H828 C836 0.929 . S
H829 C838 0.930 . S
H830 C840 0.930 . S
H831 C843 0.929 . S
H832 C846 0.930 . S
H833 C848 0.960 . S
H834 C848 0.960 . S
H835 C848 0.960 . S
C836 H828 0.929 . S
C836 C837 1.377 . S
C836 C838 1.384 . S
C837 C836 1.377 . S
C837 C843 1.390 . S
C838 H829 0.930 . S
C838 C836 1.384 . S
C838 C839 1.372 . S
C839 C838 1.372 . S
C839 C840 1.400 . S
C839 C844 1.490 . S
C840 H830 0.930 . S
C840 C839 1.400 . S
C840 C843 1.386 . S
H841 C857 0.930 1_655 S
H842 C858 0.931 . S
C843 H831 0.929 . S
C843 C837 1.390 . S
C843 C840 1.386 . S
C844 C839 1.490 . S
C844 C846 1.395 . S
C844 C847 1.403 . S
H845 C851 0.930 . S
C846 H832 0.930 . S
C846 C844 1.395 . S
C846 C849 1.403 . S
C847 C844 1.403 . S
C847 C848 1.524 . S
C847 C851 1.400 . S
C848 H833 0.960 . S
C848 H834 0.960 . S
C848 H835 0.960 . S
C848 C847 1.524 . S
C849 C846 1.403 . S
C849 C850 1.392 . S
C849 C853 1.495 . S
C850 C849 1.392 . S
C850 C851 1.385 . S
C850 C852 1.478 . S
C851 H845 0.930 . S
C851 C847 1.400 . S
C851 C850 1.385 . S
C852 C850 1.478 . S
C852 C854 1.381 . S
C852 C858 1.383 . S
C853 C849 1.495 . S
C853 H859 0.959 . S
C853 H860 0.961 . S
C853 H861 0.960 . S
C854 C852 1.381 . S
C854 C855 1.394 1_455 S
C854 H862 0.930 . S
C855 C854 1.394 1_655 S
C855 C856 1.383 . S
C855 H863 0.929 . S
C856 C855 1.383 . S
C856 C857 1.377 1_655 S
C857 H841 0.930 1_455 S
C857 C856 1.377 1_455 S
C857 C858 1.379 . S
C858 H842 0.931 . S
C858 C852 1.383 . S
C858 C857 1.379 . S
H859 C853 0.959 . S
H860 C853 0.961 . S
H861 C853 0.960 . S
H862 C854 0.930 . S
H863 C855 0.929 . S
H864 C872 0.929 . S
H865 C874 0.930 . S
H866 C876 0.930 . S
H867 C879 0.929 . S
H868 C882 0.930 . S
H869 C884 0.960 . S
H870 C884 0.960 . S
H871 C884 0.960 . S
C872 H864 0.929 . S
C872 C873 1.377 . S
C872 C874 1.384 . S
C873 C872 1.377 . S
C873 C879 1.390 . S
C874 H865 0.930 . S
C874 C872 1.384 . S
C874 C875 1.372 . S
C875 C874 1.372 . S
C875 C876 1.400 . S
C875 C880 1.490 . S
C876 H866 0.930 . S
C876 C875 1.400 . S
C876 C879 1.386 . S
H877 C893 0.930 . S
H878 C894 0.931 . S
C879 H867 0.929 . S
C879 C873 1.390 . S
C879 C876 1.386 . S
C880 C875 1.490 . S
C880 C882 1.395 . S
C880 C883 1.403 . S
H881 C887 0.930 . S
C882 H868 0.930 . S
C882 C880 1.395 . S
C882 C885 1.403 . S
C883 C880 1.403 . S
C883 C884 1.524 . S
C883 C887 1.400 . S
C884 H869 0.960 . S
C884 H870 0.960 . S
C884 H871 0.960 . S
C884 C883 1.524 . S
C885 C882 1.403 . S
C885 C886 1.392 . S
C885 C889 1.495 . S
C886 C885 1.392 . S
C886 C887 1.385 . S
C886 C888 1.478 . S
C887 H881 0.930 . S
C887 C883 1.400 . S
C887 C886 1.385 . S
C888 C886 1.478 . S
C888 C890 1.381 1_565 S
C888 C894 1.383 1_565 S
C889 C885 1.495 . S
C889 H895 0.959 . S
C889 H896 0.961 . S
C889 H897 0.960 . S
C890 C888 1.381 1_545 S
C890 C891 1.394 . S
C890 H898 0.930 1_545 S
C891 C890 1.394 . S
C891 C892 1.383 . S
C891 H899 0.929 . S
C892 C891 1.383 . S
C892 C893 1.377 . S
C893 H877 0.930 . S
C893 C892 1.377 . S
C893 C894 1.379 . S
C894 H878 0.931 . S
C894 C888 1.383 1_545 S
C894 C893 1.379 . S
H895 C889 0.959 . S
H896 C889 0.961 . S
H897 C889 0.960 . S
H898 C890 0.930 1_565 S
H899 C891 0.929 . S
H900 C908 0.929 . S
H901 C910 0.930 1_455 S
H902 C912 0.930 . S
H903 C915 0.929 . S
H904 C918 0.930 . S
H905 C920 0.960 . S
H906 C920 0.975 . S
H907 C920 0.958 . S
C908 H900 0.929 . S
C908 C909 1.377 . S
C908 C910 1.384 . S
C909 C908 1.377 . S
C909 C915 1.390 . S
C910 H901 0.930 1_655 S
C910 C908 1.384 . S
C910 C911 1.372 1_655 S
C911 C910 1.372 1_455 S
C911 C912 1.400 1_455 S
C911 C916 1.490 . S
C912 H902 0.930 . S
C912 C911 1.400 1_655 S
C912 C915 1.386 . S
H913 C929 0.930 . S
H914 C930 0.931 . S
C915 H903 0.929 . S
C915 C909 1.390 . S
C915 C912 1.386 . S
C916 C911 1.490 . S
C916 C918 1.395 . S
C916 C919 1.403 . S
H917 C923 0.930 . S
C918 H904 0.930 . S
C918 C916 1.395 . S
C918 C921 1.403 . S
C919 C916 1.403 . S
C919 C920 1.524 . S
C919 C923 1.400 . S
C920 H905 0.960 . S
C920 H906 0.975 . S
C920 H907 0.958 . S
C920 C919 1.524 . S
C921 C918 1.403 . S
C921 C922 1.392 . S
C921 C925 1.495 . S
C922 C921 1.392 . S
C922 C923 1.385 . S
C922 C924 1.478 . S
C923 H917 0.930 . S
C923 C919 1.400 . S
C923 C922 1.385 . S
C924 C922 1.478 . S
C924 C926 1.381 . S
C924 C930 1.383 . S
C925 C921 1.495 . S
C925 H931 0.959 . S
C925 H932 0.961 . S
C925 H933 0.960 . S
C926 C924 1.381 . S
C926 C927 1.394 . S
C926 H934 0.930 . S
C927 C926 1.394 . S
C927 C928 1.383 1_565 S
C927 H935 0.929 1_565 S
C928 C927 1.383 1_545 S
C928 C929 1.377 . S
C929 H913 0.930 . S
C929 C928 1.377 . S
C929 C930 1.379 1_545 S
C930 H914 0.931 . S
C930 C924 1.383 . S
C930 C929 1.379 1_565 S
H931 C925 0.959 . S
H932 C925 0.961 . S
H933 C925 0.960 . S
H934 C926 0.930 . S
H935 C927 0.929 1_545 S
H936 C944 0.929 . S
H937 C946 0.930 . S
H938 C948 0.930 . S
H939 C951 0.929 . S
H940 C954 0.930 . S
H941 C956 0.960 . S
H942 C956 0.960 . S
H943 C956 0.960 . S
C944 H936 0.929 . S
C944 C945 1.377 . S
C944 C946 1.384 . S
C945 C944 1.377 . S
C945 C951 1.390 . S
C946 H937 0.930 . S
C946 C944 1.384 . S
C946 C947 1.372 . S
C947 C946 1.372 . S
C947 C948 1.400 . S
C947 C952 1.490 . S
C948 H938 0.930 . S
C948 C947 1.400 . S
C948 C951 1.386 . S
H949 C965 0.930 . S
H950 C966 0.931 . S
C951 H939 0.929 . S
C951 C945 1.390 . S
C951 C948 1.386 . S
C952 C947 1.490 . S
C952 C954 1.395 . S
C952 C955 1.403 . S
H953 C959 0.930 . S
C954 H940 0.930 . S
C954 C952 1.395 . S
C954 C957 1.403 . S
C955 C952 1.403 . S
C955 C956 1.524 . S
C955 C959 1.400 . S
C956 H941 0.960 . S
C956 H942 0.960 . S
C956 H943 0.960 . S
C956 C955 1.524 . S
C957 C954 1.403 . S
C957 C958 1.392 . S
C957 C961 1.495 . S
C958 C957 1.392 . S
C958 C959 1.385 . S
C958 C960 1.478 . S
C959 H953 0.930 . S
C959 C955 1.400 . S
C959 C958 1.385 . S
C960 C958 1.478 . S
C960 C962 1.381 . S
C960 C966 1.383 . S
C961 C957 1.495 . S
C961 H967 0.959 . S
C961 H968 0.961 . S
C961 H969 0.960 . S
C962 C960 1.381 . S
C962 C963 1.394 . S
C962 H970 0.930 . S
C963 C962 1.394 . S
C963 C964 1.383 1_565 S
C963 H971 0.929 . S
C964 C963 1.383 1_545 S
C964 C965 1.377 . S
C965 H949 0.930 . S
C965 C964 1.377 . S
C965 C966 1.379 1_545 S
C966 H950 0.931 . S
C966 C960 1.383 . S
C966 C965 1.379 1_565 S
H967 C961 0.959 . S
H968 C961 0.961 . S
H969 C961 0.960 . S
H970 C962 0.930 . S
H971 C963 0.929 . S
H972 C980 0.929 . S
H973 C982 0.900 1_565 S
H974 C984 0.930 . S
H975 C987 0.929 . S
H976 C990 0.930 . S
H977 C992 0.960 . S
H978 C992 0.960 . S
H979 C992 0.960 . S
C980 H972 0.929 . S
C980 C981 1.377 . S
C980 C982 1.407 . S
C981 C980 1.377 . S
C981 C987 1.390 . S
C982 H973 0.900 1_545 S
C982 C980 1.407 . S
C982 C983 1.380 1_545 S
C983 C982 1.380 1_565 S
C983 C984 1.400 1_565 S
C983 C988 1.490 . S
C984 H974 0.930 . S
C984 C983 1.400 1_545 S
C984 C987 1.386 . S
H985 C1001 0.930 . S
H986 C1002 0.931 . S
C987 H975 0.929 . S
C987 C981 1.390 . S
C987 C984 1.386 . S
C988 C983 1.490 . S
C988 C990 1.395 . S
C988 C991 1.403 . S
H989 C995 0.930 . S
C990 H976 0.930 . S
C990 C988 1.395 . S
C990 C993 1.403 . S
C991 C988 1.403 . S
C991 C992 1.524 . S
C991 C995 1.400 . S
C992 H977 0.960 . S
C992 H978 0.960 . S
C992 H979 0.960 . S
C992 C991 1.524 . S
C993 C990 1.403 . S
C993 C994 1.392 . S
C993 C997 1.495 . S
C994 C993 1.392 . S
C994 C995 1.385 . S
C994 C996 1.478 . S
C995 H989 0.930 . S
C995 C991 1.400 . S
C995 C994 1.385 . S
C996 C994 1.478 . S
C996 C998 1.381 . S
C996 C1002 1.383 . S
C997 C993 1.495 . S
C997 H1003 0.959 . S
C997 H1004 0.961 . S
C997 H1005 0.960 . S
C998 C996 1.381 . S
C998 C999 1.394 . S
C998 H1006 0.930 . S
C999 C998 1.394 . S
C999 C1000 1.383 1_455 S
C999 H1007 0.929 . S
C1000 C999 1.383 1_655 S
C1000 C1001 1.377 . S
C1001 H985 0.930 . S
C1001 C1000 1.377 . S
C1001 C1002 1.379 1_655 S
C1002 H986 0.931 . S
C1002 C996 1.383 . S
C1002 C1001 1.379 1_455 S
H1003 C997 0.959 . S
H1004 C997 0.961 . S
H1005 C997 0.960 . S
H1006 C998 0.930 . S
H1007 C999 0.929 . S
H1008 C1016 0.929 . S
H1009 C1018 0.930 . S
H1010 C1020 0.930 . S
H1011 C1023 0.929 . S
H1012 C1026 0.930 . S
H1013 C1028 0.960 . S
H1014 C1028 0.960 . S
H1015 C1028 0.960 . S
C1016 H1008 0.929 . S
C1016 C1017 1.377 . S
C1016 C1018 1.384 . S
C1017 C1016 1.377 . S
C1017 C1023 1.390 . S
C1018 H1009 0.930 . S
C1018 C1016 1.384 . S
C1018 C1019 1.372 1_655 S
C1019 C1018 1.372 1_455 S
C1019 C1020 1.400 . S
C1019 C1024 1.490 . S
C1020 H1010 0.930 . S
C1020 C1019 1.400 . S
C1020 C1023 1.386 1_455 S
H1021 C1037 0.930 . S
H1022 C1038 0.931 . S
C1023 H1011 0.929 . S
C1023 C1017 1.390 . S
C1023 C1020 1.386 1_655 S
C1024 C1019 1.490 . S
C1024 C1026 1.395 . S
C1024 C1027 1.403 . S
H1025 C1031 0.930 . S
C1026 H1012 0.930 . S
C1026 C1024 1.395 . S
C1026 C1029 1.403 . S
C1027 C1024 1.403 . S
C1027 C1028 1.524 . S
C1027 C1031 1.400 . S
C1028 H1013 0.960 . S
C1028 H1014 0.960 . S
C1028 H1015 0.960 . S
C1028 C1027 1.524 . S
C1029 C1026 1.403 . S
C1029 C1030 1.392 . S
C1029 C1033 1.495 . S
C1030 C1029 1.392 . S
C1030 C1031 1.385 . S
C1030 C1032 1.478 . S
C1031 H1025 0.930 . S
C1031 C1027 1.400 . S
C1031 C1030 1.385 . S
C1032 C1030 1.478 . S
C1032 C1034 1.381 . S
C1032 C1038 1.383 . S
C1033 C1029 1.495 . S
C1033 H1039 0.959 . S
C1033 H1040 0.961 . S
C1033 H1041 0.960 . S
C1034 C1032 1.381 . S
C1034 C1035 1.394 . S
C1034 H1042 0.930 . S
C1035 C1034 1.394 . S
C1035 C1036 1.383 . S
C1035 H1043 0.929 . S
C1036 C1035 1.383 . S
C1036 C1037 1.377 . S
C1037 H1021 0.930 . S
C1037 C1036 1.377 . S
C1037 C1038 1.379 . S
C1038 H1022 0.931 . S
C1038 C1032 1.383 . S
C1038 C1037 1.379 . S
H1039 C1033 0.959 . S
H1040 C1033 0.961 . S
H1041 C1033 0.960 . S
H1042 C1034 0.930 . S
H1043 C1035 0.929 . S
H1044 C1052 0.929 . S
H1045 C1054 0.930 . S
H1046 C1056 0.930 . S
H1047 C1059 0.929 . S
H1048 C1062 0.930 . S
H1049 C1064 0.960 . S
H1050 C1064 0.960 . S
H1051 C1064 0.960 . S
C1052 H1044 0.929 . S
C1052 C1053 1.377 . S
C1052 C1054 1.384 . S
C1053 C1052 1.377 . S
C1053 C1059 1.390 . S
C1054 H1045 0.930 . S
C1054 C1052 1.384 . S
C1054 C1055 1.372 . S
C1055 C1054 1.372 . S
C1055 C1056 1.400 . S
C1055 C1060 1.490 . S
C1056 H1046 0.930 . S
C1056 C1055 1.400 . S
C1056 C1059 1.386 . S
H1057 C1073 0.930 1_455 S
H1058 C1074 0.931 . S
C1059 H1047 0.929 . S
C1059 C1053 1.390 . S
C1059 C1056 1.386 . S
C1060 C1055 1.490 . S
C1060 C1062 1.395 . S
C1060 C1063 1.403 . S
H1061 C1067 0.930 . S
C1062 H1048 0.930 . S
C1062 C1060 1.395 . S
C1062 C1065 1.403 . S
C1063 C1060 1.403 . S
C1063 C1064 1.524 . S
C1063 C1067 1.400 . S
C1064 H1049 0.960 . S
C1064 H1050 0.960 . S
C1064 H1051 0.960 . S
C1064 C1063 1.524 . S
C1065 C1062 1.403 . S
C1065 C1066 1.392 . S
C1065 C1069 1.495 . S
C1066 C1065 1.392 . S
C1066 C1067 1.385 . S
C1066 C1068 1.478 . S
C1067 H1061 0.930 . S
C1067 C1063 1.400 . S
C1067 C1066 1.385 . S
C1068 C1066 1.478 . S
C1068 C1070 1.381 . S
C1068 C1074 1.383 . S
C1069 C1065 1.495 . S
C1069 H1075 0.959 . S
C1069 H1076 0.961 . S
C1069 H1077 0.960 . S
C1070 C1068 1.381 . S
C1070 C1071 1.360 1_655 S
C1070 H1078 0.930 . S
C1071 C1070 1.360 1_455 S
C1071 C1072 1.400 . S
C1071 H1079 0.947 . S
C1072 C1071 1.400 . S
C1072 C1073 1.377 1_455 S
C1073 H1057 0.930 1_655 S
C1073 C1072 1.377 1_655 S
C1073 C1074 1.379 . S
C1074 H1058 0.931 . S
C1074 C1068 1.383 . S
C1074 C1073 1.379 . S
H1075 C1069 0.959 . S
H1076 C1069 0.961 . S
H1077 C1069 0.960 . S
H1078 C1070 0.930 . S
H1079 C1071 0.947 . S
H1080 C1088 0.929 . S
H1081 C1090 0.930 . S
H1082 C1092 0.930 . S
H1083 C1095 0.929 . S
H1084 C1098 0.930 . S
H1085 C1100 0.960 . S
H1086 C1100 0.960 . S
H1087 C1100 0.960 . S
C1088 H1080 0.929 . S
C1088 C1089 1.377 . S
C1088 C1090 1.384 . S
C1089 C1088 1.377 . S
C1089 C1095 1.390 . S
C1090 H1081 0.930 . S
C1090 C1088 1.384 . S
C1090 C1091 1.372 . S
C1091 C1090 1.372 . S
C1091 C1092 1.400 . S
C1091 C1096 1.490 . S
C1092 H1082 0.930 . S
C1092 C1091 1.400 . S
C1092 C1095 1.386 . S
H1093 C1109 0.930 . S
H1094 C1110 0.931 1_545 S
C1095 H1083 0.929 . S
C1095 C1089 1.390 . S
C1095 C1092 1.386 . S
C1096 C1091 1.490 . S
C1096 C1098 1.395 . S
C1096 C1099 1.403 . S
H1097 C1103 0.930 . S
C1098 H1084 0.930 . S
C1098 C1096 1.395 . S
C1098 C1101 1.403 . S
C1099 C1096 1.403 . S
C1099 C1100 1.524 . S
C1099 C1103 1.400 . S
C1100 H1085 0.960 . S
C1100 H1086 0.960 . S
C1100 H1087 0.960 . S
C1100 C1099 1.524 . S
C1101 C1098 1.403 . S
C1101 C1102 1.392 . S
C1101 C1105 1.495 . S
C1102 C1101 1.392 . S
C1102 C1103 1.385 . S
C1102 C1104 1.478 . S
C1103 H1097 0.930 . S
C1103 C1099 1.400 . S
C1103 C1102 1.385 . S
C1104 C1102 1.478 . S
C1104 C1106 1.381 1_545 S
C1104 C1110 1.383 1_545 S
C1105 C1101 1.495 . S
C1105 H1111 0.959 . S
C1105 H1112 0.960 1_545 S
C1105 H1113 0.960 1_545 S
C1106 C1104 1.381 1_565 S
C1106 C1107 1.394 . S
C1106 H1114 0.930 . S
C1107 C1106 1.394 . S
C1107 C1108 1.383 . S
C1107 H1115 0.929 . S
C1108 C1107 1.383 . S
C1108 C1109 1.377 . S
C1109 H1093 0.930 . S
C1109 C1108 1.377 . S
C1109 C1110 1.379 . S
C1110 H1094 0.931 1_565 S
C1110 C1104 1.383 1_565 S
C1110 C1109 1.379 . S
H1111 C1105 0.959 . S
H1112 C1105 0.960 1_565 S
H1113 C1105 0.960 1_565 S
H1114 C1106 0.930 . S
H1115 C1107 0.929 . S
H1116 C1124 0.929 . S
H1117 C1126 0.930 . S
H1118 C1128 0.930 . S
H1119 C1131 0.929 1_565 S
H1120 C1134 0.930 . S
H1121 C1136 0.960 . S
H1122 C1136 0.960 . S
H1123 C1136 0.960 . S
C1124 H1116 0.929 . S
C1124 C1125 1.377 . S
C1124 C1126 1.384 1_565 S
C1125 C1124 1.377 . S
C1125 C1131 1.390 1_565 S
C1126 H1117 0.930 . S
C1126 C1124 1.384 1_545 S
C1126 C1127 1.372 . S
C1127 C1126 1.372 . S
C1127 C1128 1.400 . S
C1127 C1132 1.490 . S
C1128 H1118 0.930 . S
C1128 C1127 1.400 . S
C1128 C1131 1.386 . S
H1129 C1145 0.930 . S
H1130 C1146 0.931 1_655 S
C1131 H1119 0.929 1_545 S
C1131 C1125 1.390 1_545 S
C1131 C1128 1.386 . S
C1132 C1127 1.490 . S
C1132 C1134 1.395 . S
C1132 C1135 1.403 . S
H1133 C1139 0.930 . S
C1134 H1120 0.930 . S
C1134 C1132 1.395 . S
C1134 C1137 1.403 . S
C1135 C1132 1.403 . S
C1135 C1136 1.524 . S
C1135 C1139 1.400 . S
C1136 H1121 0.960 . S
C1136 H1122 0.960 . S
C1136 H1123 0.960 . S
C1136 C1135 1.524 . S
C1137 C1134 1.403 . S
C1137 C1138 1.392 . S
C1137 C1141 1.495 . S
C1138 C1137 1.392 . S
C1138 C1139 1.385 . S
C1138 C1140 1.478 . S
C1139 H1133 0.930 . S
C1139 C1135 1.400 . S
C1139 C1138 1.385 . S
C1140 C1138 1.478 . S
C1140 C1142 1.381 1_655 S
C1140 C1146 1.383 1_655 S
C1141 C1137 1.495 . S
C1141 H1147 0.959 . S
C1141 H1148 0.961 1_655 S
C1141 H1149 0.960 1_655 S
C1142 C1140 1.381 1_455 S
C1142 C1143 1.394 . S
C1142 H1150 0.930 . S
C1143 C1142 1.394 . S
C1143 C1144 1.383 . S
C1143 H1151 0.929 . S
C1144 C1143 1.383 . S
C1144 C1145 1.377 . S
C1145 H1129 0.930 . S
C1145 C1144 1.377 . S
C1145 C1146 1.379 . S
C1146 H1130 0.931 1_455 S
C1146 C1140 1.383 1_455 S
C1146 C1145 1.379 . S
H1147 C1141 0.959 . S
H1148 C1141 0.961 1_455 S
H1149 C1141 0.960 1_455 S
H1150 C1142 0.930 . S
H1151 C1143 0.929 . S
H1152 C1160 0.929 . S
H1153 C1162 0.930 . S
H1154 C1164 0.930 . S
H1155 C1167 0.929 . S
H1156 C1170 0.930 . S
H1157 C1172 0.960 . S
H1158 C1172 0.960 . S
H1159 C1172 0.960 . S
C1160 H1152 0.929 . S
C1160 C1161 1.377 . S
C1160 C1162 1.384 . S
C1161 C1160 1.377 . S
C1161 C1167 1.390 . S
C1162 H1153 0.930 . S
C1162 C1160 1.384 . S
C1162 C1163 1.372 . S
C1163 C1162 1.372 . S
C1163 C1164 1.400 . S
C1163 C1168 1.490 . S
C1164 H1154 0.930 . S
C1164 C1163 1.400 . S
C1164 C1167 1.386 . S
H1165 C1181 0.930 . S
H1166 C1182 0.931 . S
C1167 H1155 0.929 . S
C1167 C1161 1.390 . S
C1167 C1164 1.386 . S
C1168 C1163 1.490 . S
C1168 C1170 1.395 . S
C1168 C1171 1.403 . S
H1169 C1175 0.930 . S
C1170 H1156 0.930 . S
C1170 C1168 1.395 . S
C1170 C1173 1.403 . S
C1171 C1168 1.403 . S
C1171 C1172 1.524 . S
C1171 C1175 1.400 . S
C1172 H1157 0.960 . S
C1172 H1158 0.960 . S
C1172 H1159 0.960 . S
C1172 C1171 1.524 . S
C1173 C1170 1.403 . S
C1173 C1174 1.392 . S
C1173 C1177 1.495 . S
C1174 C1173 1.392 . S
C1174 C1175 1.385 . S
C1174 C1176 1.478 . S
C1175 H1169 0.930 . S
C1175 C1171 1.400 . S
C1175 C1174 1.385 . S
C1176 C1174 1.478 . S
C1176 C1178 1.381 . S
C1176 C1182 1.383 . S
C1177 C1173 1.495 . S
C1177 H1183 0.959 . S
C1177 H1184 0.961 . S
C1177 H1185 0.960 . S
C1178 C1176 1.381 . S
C1178 C1179 1.394 . S
C1178 H1186 0.930 . S
C1179 C1178 1.394 . S
C1179 C1180 1.383 . S
C1179 H1187 0.929 . S
C1180 C1179 1.383 . S
C1180 C1181 1.377 . S
C1181 H1165 0.930 . S
C1181 C1180 1.377 . S
C1181 C1182 1.379 . S
C1182 H1166 0.931 . S
C1182 C1176 1.383 . S
C1182 C1181 1.379 . S
H1183 C1177 0.959 . S
H1184 C1177 0.961 . S
H1185 C1177 0.960 . S
H1186 C1178 0.930 . S
H1187 C1179 0.929 . S
H1188 C1196 0.929 . S
H1189 C1198 0.930 . S
H1190 C1200 0.930 . S
H1191 C1203 0.929 . S
H1192 C1206 0.930 . S
H1193 C1208 0.960 . S
H1194 C1208 0.960 . S
H1195 C1208 0.960 . S
C1196 H1188 0.929 . S
C1196 C1197 1.377 . S
C1196 C1198 1.384 . S
C1197 C1196 1.377 . S
C1197 C1203 1.390 . S
C1198 H1189 0.930 . S
C1198 C1196 1.384 . S
C1198 C1199 1.372 . S
C1199 C1198 1.372 . S
C1199 C1200 1.400 . S
C1199 C1204 1.490 . S
C1200 H1190 0.930 . S
C1200 C1199 1.400 . S
C1200 C1203 1.386 . S
H1201 C1217 0.930 . S
H1202 C1218 0.931 . S
C1203 H1191 0.929 . S
C1203 C1197 1.390 . S
C1203 C1200 1.386 . S
C1204 C1199 1.490 . S
C1204 C1206 1.395 . S
C1204 C1207 1.403 . S
H1205 C1211 0.930 . S
C1206 H1192 0.930 . S
C1206 C1204 1.395 . S
C1206 C1209 1.403 . S
C1207 C1204 1.403 . S
C1207 C1208 1.524 . S
C1207 C1211 1.400 . S
C1208 H1193 0.960 . S
C1208 H1194 0.960 . S
C1208 H1195 0.960 . S
C1208 C1207 1.524 . S
C1209 C1206 1.403 . S
C1209 C1210 1.392 . S
C1209 C1213 1.495 . S
C1210 C1209 1.392 . S
C1210 C1211 1.385 . S
C1210 C1212 1.478 . S
C1211 H1205 0.930 . S
C1211 C1207 1.400 . S
C1211 C1210 1.385 . S
C1212 C1210 1.478 . S
C1212 C1214 1.381 . S
C1212 C1218 1.383 . S
C1213 C1209 1.495 . S
C1213 H1219 0.959 . S
C1213 H1220 0.961 . S
C1213 H1221 0.960 . S
C1214 C1212 1.381 . S
C1214 C1215 1.394 . S
C1214 H1222 0.930 . S
C1215 C1214 1.394 . S
C1215 C1216 1.383 . S
C1215 H1223 0.929 . S
C1216 C1215 1.383 . S
C1216 C1217 1.377 . S
C1217 H1201 0.930 . S
C1217 C1216 1.377 . S
C1217 C1218 1.379 . S
C1218 H1202 0.931 . S
C1218 C1212 1.383 . S
C1218 C1217 1.379 . S
H1219 C1213 0.959 . S
H1220 C1213 0.961 . S
H1221 C1213 0.960 . S
H1222 C1214 0.930 . S
H1223 C1215 0.929 . S
H1224 C1232 0.929 . S
H1225 C1234 0.930 . S
H1226 C1236 0.930 . S
H1227 C1239 0.929 . S
H1228 C1242 0.930 . S
H1229 C1244 0.960 . S
H1230 C1244 0.960 . S
H1231 C1244 0.960 . S
C1232 H1224 0.929 . S
C1232 C1233 1.377 . S
C1232 C1234 1.384 . S
C1233 C1232 1.377 . S
C1233 C1239 1.390 . S
C1234 H1225 0.930 . S
C1234 C1232 1.384 . S
C1234 C1235 1.372 . S
C1235 C1234 1.372 . S
C1235 C1236 1.400 . S
C1235 C1240 1.490 . S
C1236 H1226 0.930 . S
C1236 C1235 1.400 . S
C1236 C1239 1.386 . S
H1237 C1253 0.930 . S
H1238 C1254 0.931 . S
C1239 H1227 0.929 . S
C1239 C1233 1.390 . S
C1239 C1236 1.386 . S
C1240 C1235 1.490 . S
C1240 C1242 1.395 . S
C1240 C1243 1.403 . S
H1241 C1247 0.930 . S
C1242 H1228 0.930 . S
C1242 C1240 1.395 . S
C1242 C1245 1.403 . S
C1243 C1240 1.403 . S
C1243 C1244 1.524 . S
C1243 C1247 1.400 . S
C1244 H1229 0.960 . S
C1244 H1230 0.960 . S
C1244 H1231 0.960 . S
C1244 C1243 1.524 . S
C1245 C1242 1.403 . S
C1245 C1246 1.392 . S
C1245 C1249 1.495 . S
C1246 C1245 1.392 . S
C1246 C1247 1.385 . S
C1246 C1248 1.478 . S
C1247 H1241 0.930 . S
C1247 C1243 1.400 . S
C1247 C1246 1.385 . S
C1248 C1246 1.478 . S
C1248 C1250 1.381 . S
C1248 C1254 1.383 . S
C1249 C1245 1.495 . S
C1249 H1255 0.959 . S
C1249 H1256 0.961 . S
C1249 H1257 0.960 . S
C1250 C1248 1.381 . S
C1250 C1251 1.394 . S
C1250 H1258 0.930 . S
C1251 C1250 1.394 . S
C1251 C1252 1.383 . S
C1251 H1259 0.929 . S
C1252 C1251 1.383 . S
C1252 C1253 1.377 . S
C1253 H1237 0.930 . S
C1253 C1252 1.377 . S
C1253 C1254 1.379 . S
C1254 H1238 0.931 . S
C1254 C1248 1.383 . S
C1254 C1253 1.379 . S
H1255 C1249 0.959 . S
H1256 C1249 0.961 . S
H1257 C1249 0.960 . S
H1258 C1250 0.930 . S
H1259 C1251 0.929 . S
H1260 C1268 0.929 . S
H1261 C1270 0.930 . S
H1262 C1272 0.930 . S
H1263 C1275 0.929 . S
H1264 C1278 0.930 . S
H1265 C1280 0.960 . S
H1266 C1280 0.960 . S
H1267 C1280 0.960 . S
C1268 H1260 0.929 . S
C1268 C1269 1.377 . S
C1268 C1270 1.384 . S
C1269 C1268 1.377 . S
C1269 C1275 1.390 . S
C1270 H1261 0.930 . S
C1270 C1268 1.384 . S
C1270 C1271 1.372 . S
C1271 C1270 1.372 . S
C1271 C1272 1.400 . S
C1271 C1276 1.490 . S
C1272 H1262 0.930 . S
C1272 C1271 1.400 . S
C1272 C1275 1.386 . S
H1273 C1289 0.930 . S
H1274 C1290 0.931 . S
C1275 H1263 0.929 . S
C1275 C1269 1.390 . S
C1275 C1272 1.386 . S
C1276 C1271 1.490 . S
C1276 C1278 1.395 . S
C1276 C1279 1.403 . S
H1277 C1283 0.930 . S
C1278 H1264 0.930 . S
C1278 C1276 1.395 . S
C1278 C1281 1.403 . S
C1279 C1276 1.403 . S
C1279 C1280 1.524 . S
C1279 C1283 1.400 . S
C1280 H1265 0.960 . S
C1280 H1266 0.960 . S
C1280 H1267 0.960 . S
C1280 C1279 1.524 . S
C1281 C1278 1.403 . S
C1281 C1282 1.392 . S
C1281 C1285 1.495 . S
C1282 C1281 1.392 . S
C1282 C1283 1.385 . S
C1282 C1284 1.478 . S
C1283 H1277 0.930 . S
C1283 C1279 1.400 . S
C1283 C1282 1.385 . S
C1284 C1282 1.478 . S
C1284 C1286 1.381 . S
C1284 C1290 1.383 . S
C1285 C1281 1.495 . S
C1285 H1291 0.959 . S
C1285 H1292 0.961 . S
C1285 H1293 0.960 . S
C1286 C1284 1.381 . S
C1286 C1287 1.394 . S
C1286 H1294 0.930 . S
C1287 C1286 1.394 . S
C1287 C1288 1.383 . S
C1287 H1295 0.929 . S
C1288 C1287 1.383 . S
C1288 C1289 1.377 . S
C1289 H1273 0.930 . S
C1289 C1288 1.377 . S
C1289 C1290 1.379 . S
C1290 H1274 0.931 . S
C1290 C1284 1.383 . S
C1290 C1289 1.379 . S
H1291 C1285 0.959 . S
H1292 C1285 0.961 . S
H1293 C1285 0.960 . S
H1294 C1286 0.930 . S
H1295 C1287 0.929 . S
H1296 C1304 0.929 . S
H1297 C1306 0.930 . S
H1298 C1308 0.930 . S
H1299 C1311 0.929 . S
H1300 C1314 0.930 . S
H1301 C1316 0.960 . S
H1302 C1316 0.960 . S
H1303 C1316 0.960 . S
C1304 H1296 0.929 . S
C1304 C1305 1.377 . S
C1304 C1306 1.384 . S
C1305 C1304 1.377 . S
C1305 C1311 1.390 . S
C1306 H1297 0.930 . S
C1306 C1304 1.384 . S
C1306 C1307 1.372 . S
C1307 C1306 1.372 . S
C1307 C1308 1.400 . S
C1307 C1312 1.490 . S
C1308 H1298 0.930 . S
C1308 C1307 1.400 . S
C1308 C1311 1.386 . S
H1309 C1325 0.930 . S
H1310 C1326 0.931 . S
C1311 H1299 0.929 . S
C1311 C1305 1.390 . S
C1311 C1308 1.386 . S
C1312 C1307 1.490 . S
C1312 C1314 1.395 . S
C1312 C1315 1.403 . S
H1313 C1319 0.930 . S
C1314 H1300 0.930 . S
C1314 C1312 1.395 . S
C1314 C1317 1.403 . S
C1315 C1312 1.403 . S
C1315 C1316 1.524 . S
C1315 C1319 1.400 . S
C1316 H1301 0.960 . S
C1316 H1302 0.960 . S
C1316 H1303 0.960 . S
C1316 C1315 1.524 . S
C1317 C1314 1.403 . S
C1317 C1318 1.392 . S
C1317 C1321 1.495 . S
C1318 C1317 1.392 . S
C1318 C1319 1.385 . S
C1318 C1320 1.478 . S
C1319 H1313 0.930 . S
C1319 C1315 1.400 . S
C1319 C1318 1.385 . S
C1320 C1318 1.478 . S
C1320 C1322 1.381 . S
C1320 C1326 1.383 . S
C1321 C1317 1.495 . S
C1321 H1327 0.959 . S
C1321 H1328 0.961 . S
C1321 H1329 0.960 . S
C1322 C1320 1.381 . S
C1322 C1323 1.394 . S
C1322 H1330 0.930 . S
C1323 C1322 1.394 . S
C1323 C1324 1.383 . S
C1323 H1331 0.929 . S
C1324 C1323 1.383 . S
C1324 C1325 1.377 . S
C1325 H1309 0.930 . S
C1325 C1324 1.377 . S
C1325 C1326 1.379 . S
C1326 H1310 0.931 . S
C1326 C1320 1.383 . S
C1326 C1325 1.379 . S
H1327 C1321 0.959 . S
H1328 C1321 0.961 . S
H1329 C1321 0.960 . S
H1330 C1322 0.930 . S
H1331 C1323 0.929 . S
H1332 C1340 0.929 . S
H1333 C1342 0.930 . S
H1334 C1344 0.930 . S
H1335 C1347 0.929 . S
H1336 C1350 0.930 . S
H1337 C1352 0.960 . S
H1338 C1352 0.960 . S
H1339 C1352 0.960 . S
C1340 H1332 0.929 . S
C1340 C1341 1.377 . S
C1340 C1342 1.384 . S
C1341 C1340 1.377 . S
C1341 C1347 1.390 . S
C1342 H1333 0.930 . S
C1342 C1340 1.384 . S
C1342 C1343 1.372 . S
C1343 C1342 1.372 . S
C1343 C1344 1.400 . S
C1343 C1348 1.490 . S
C1344 H1334 0.930 . S
C1344 C1343 1.400 . S
C1344 C1347 1.386 . S
H1345 C1361 0.930 . S
H1346 C1362 0.931 . S
C1347 H1335 0.929 . S
C1347 C1341 1.390 . S
C1347 C1344 1.386 . S
C1348 C1343 1.490 . S
C1348 C1350 1.395 . S
C1348 C1351 1.403 . S
H1349 C1355 0.930 . S
C1350 H1336 0.930 . S
C1350 C1348 1.395 . S
C1350 C1353 1.403 . S
C1351 C1348 1.403 . S
C1351 C1352 1.524 . S
C1351 C1355 1.400 . S
C1352 H1337 0.960 . S
C1352 H1338 0.960 . S
C1352 H1339 0.960 . S
C1352 C1351 1.524 . S
C1353 C1350 1.403 . S
C1353 C1354 1.392 . S
C1353 C1357 1.495 . S
C1354 C1353 1.392 . S
C1354 C1355 1.385 . S
C1354 C1356 1.478 . S
C1355 H1349 0.930 . S
C1355 C1351 1.400 . S
C1355 C1354 1.385 . S
C1356 C1354 1.478 . S
C1356 C1358 1.381 . S
C1356 C1362 1.383 . S
C1357 C1353 1.495 . S
C1357 H1363 0.959 . S
C1357 H1364 0.961 . S
C1357 H1365 0.960 . S
C1358 C1356 1.381 . S
C1358 C1359 1.394 . S
C1358 H1366 0.930 . S
C1359 C1358 1.394 . S
C1359 C1360 1.383 . S
C1359 H1367 0.929 . S
C1360 C1359 1.383 . S
C1360 C1361 1.377 . S
C1361 H1345 0.930 . S
C1361 C1360 1.377 . S
C1361 C1362 1.379 . S
C1362 H1346 0.931 . S
C1362 C1356 1.383 . S
C1362 C1361 1.379 . S
H1363 C1357 0.959 . S
H1364 C1357 0.961 . S
H1365 C1357 0.960 . S
H1366 C1358 0.930 . S
H1367 C1359 0.929 . S
H1368 C1376 0.929 . S
H1369 C1378 0.930 . S
H1370 C1380 0.930 . S
H1371 C1383 0.929 . S
H1372 C1386 0.930 . S
H1373 C1388 0.960 . S
H1374 C1388 0.960 . S
H1375 C1388 0.960 . S
C1376 H1368 0.929 . S
C1376 C1377 1.377 . S
C1376 C1378 1.384 . S
C1377 C1376 1.377 . S
C1377 C1383 1.390 . S
C1378 H1369 0.930 . S
C1378 C1376 1.384 . S
C1378 C1379 1.372 . S
C1379 C1378 1.372 . S
C1379 C1380 1.400 . S
C1379 C1384 1.490 . S
C1380 H1370 0.930 . S
C1380 C1379 1.400 . S
C1380 C1383 1.386 . S
H1381 C1397 0.930 . S
H1382 C1398 0.931 . S
C1383 H1371 0.929 . S
C1383 C1377 1.390 . S
C1383 C1380 1.386 . S
C1384 C1379 1.490 . S
C1384 C1386 1.395 . S
C1384 C1387 1.403 . S
H1385 C1391 0.930 . S
C1386 H1372 0.930 . S
C1386 C1384 1.395 . S
C1386 C1389 1.403 . S
C1387 C1384 1.403 . S
C1387 C1388 1.524 . S
C1387 C1391 1.400 . S
C1388 H1373 0.960 . S
C1388 H1374 0.960 . S
C1388 H1375 0.960 . S
C1388 C1387 1.524 . S
C1389 C1386 1.403 . S
C1389 C1390 1.392 . S
C1389 C1393 1.495 . S
C1390 C1389 1.392 . S
C1390 C1391 1.385 . S
C1390 C1392 1.478 . S
C1391 H1385 0.930 . S
C1391 C1387 1.400 . S
C1391 C1390 1.385 . S
C1392 C1390 1.478 . S
C1392 C1394 1.381 . S
C1392 C1398 1.383 . S
C1393 C1389 1.495 . S
C1393 H1399 0.959 . S
C1393 H1400 0.961 . S
C1393 H1401 0.960 . S
C1394 C1392 1.381 . S
C1394 C1395 1.394 . S
C1394 H1402 0.930 . S
C1395 C1394 1.394 . S
C1395 C1396 1.383 . S
C1395 H1403 0.929 . S
C1396 C1395 1.383 . S
C1396 C1397 1.377 . S
C1397 H1381 0.930 . S
C1397 C1396 1.377 . S
C1397 C1398 1.379 . S
C1398 H1382 0.931 . S
C1398 C1392 1.383 . S
C1398 C1397 1.379 . S
H1399 C1393 0.959 . S
H1400 C1393 0.961 . S
H1401 C1393 0.960 . S
H1402 C1394 0.930 . S
H1403 C1395 0.929 . S
H1404 C1412 0.929 . S
H1405 C1414 0.930 . S
H1406 C1416 0.930 . S
H1407 C1419 0.929 . S
H1408 C1422 0.930 . S
H1409 C1424 0.960 . S
H1410 C1424 0.960 . S
H1411 C1424 0.960 . S
C1412 H1404 0.929 . S
C1412 C1413 1.377 . S
C1412 C1414 1.384 . S
C1413 C1412 1.377 . S
C1413 C1419 1.390 . S
C1414 H1405 0.930 . S
C1414 C1412 1.384 . S
C1414 C1415 1.372 . S
C1415 C1414 1.372 . S
C1415 C1416 1.400 . S
C1415 C1420 1.490 . S
C1416 H1406 0.930 . S
C1416 C1415 1.400 . S
C1416 C1419 1.386 . S
H1417 C1433 0.930 . S
H1418 C1434 0.931 . S
C1419 H1407 0.929 . S
C1419 C1413 1.390 . S
C1419 C1416 1.386 . S
C1420 C1415 1.490 . S
C1420 C1422 1.395 . S
C1420 C1423 1.403 . S
H1421 C1427 0.930 . S
C1422 H1408 0.930 . S
C1422 C1420 1.395 . S
C1422 C1425 1.403 . S
C1423 C1420 1.403 . S
C1423 C1424 1.524 . S
C1423 C1427 1.400 . S
C1424 H1409 0.960 . S
C1424 H1410 0.960 . S
C1424 H1411 0.960 . S
C1424 C1423 1.524 . S
C1425 C1422 1.403 . S
C1425 C1426 1.392 . S
C1425 C1429 1.495 . S
C1426 C1425 1.392 . S
C1426 C1427 1.385 . S
C1426 C1428 1.478 . S
C1427 H1421 0.930 . S
C1427 C1423 1.400 . S
C1427 C1426 1.385 . S
C1428 C1426 1.478 . S
C1428 C1430 1.381 . S
C1428 C1434 1.383 . S
C1429 C1425 1.495 . S
C1429 H1435 0.959 . S
C1429 H1436 0.961 . S
C1429 H1437 0.960 . S
C1430 C1428 1.381 . S
C1430 C1431 1.394 . S
C1430 H1438 0.930 . S
C1431 C1430 1.394 . S
C1431 C1432 1.383 . S
C1431 H1439 0.929 . S
C1432 C1431 1.383 . S
C1432 C1433 1.377 . S
C1433 H1417 0.930 . S
C1433 C1432 1.377 . S
C1433 C1434 1.379 . S
C1434 H1418 0.931 . S
C1434 C1428 1.383 . S
C1434 C1433 1.379 . S
H1435 C1429 0.959 . S
H1436 C1429 0.961 . S
H1437 C1429 0.960 . S
H1438 C1430 0.930 . S
H1439 C1431 0.929 . S
H1440 C1448 0.929 . S
H1441 C1450 0.930 . S
H1442 C1452 0.930 . S
H1443 C1455 0.929 . S
H1444 C1458 0.930 . S
H1445 C1460 0.960 . S
H1446 C1460 0.960 . S
H1447 C1460 0.960 . S
C1448 H1440 0.929 . S
C1448 C1449 1.377 . S
C1448 C1450 1.384 . S
C1449 C1448 1.377 . S
C1449 C1455 1.390 . S
C1450 H1441 0.930 . S
C1450 C1448 1.384 . S
C1450 C1451 1.372 . S
C1451 C1450 1.372 . S
C1451 C1452 1.400 . S
C1451 C1456 1.490 . S
C1452 H1442 0.930 . S
C1452 C1451 1.400 . S
C1452 C1455 1.386 . S
H1453 C1469 0.930 . S
H1454 C1470 0.931 . S
C1455 H1443 0.929 . S
C1455 C1449 1.390 . S
C1455 C1452 1.386 . S
C1456 C1451 1.490 . S
C1456 C1458 1.395 . S
C1456 C1459 1.403 . S
H1457 C1463 0.930 . S
C1458 H1444 0.930 . S
C1458 C1456 1.395 . S
C1458 C1461 1.403 . S
C1459 C1456 1.403 . S
C1459 C1460 1.524 . S
C1459 C1463 1.400 . S
C1460 H1445 0.960 . S
C1460 H1446 0.960 . S
C1460 H1447 0.960 . S
C1460 C1459 1.524 . S
C1461 C1458 1.403 . S
C1461 C1462 1.392 . S
C1461 C1465 1.495 . S
C1462 C1461 1.392 . S
C1462 C1463 1.385 . S
C1462 C1464 1.478 . S
C1463 H1457 0.930 . S
C1463 C1459 1.400 . S
C1463 C1462 1.385 . S
C1464 C1462 1.478 . S
C1464 C1466 1.381 . S
C1464 C1470 1.383 . S
C1465 C1461 1.495 . S
C1465 H1471 0.959 . S
C1465 H1472 0.961 . S
C1465 H1473 0.960 . S
C1466 C1464 1.381 . S
C1466 C1467 1.394 . S
C1466 H1474 0.930 . S
C1467 C1466 1.394 . S
C1467 C1468 1.383 . S
C1467 H1475 0.929 . S
C1468 C1467 1.383 . S
C1468 C1469 1.377 . S
C1469 H1453 0.930 . S
C1469 C1468 1.377 . S
C1469 C1470 1.379 . S
C1470 H1454 0.931 . S
C1470 C1464 1.383 . S
C1470 C1469 1.379 . S
H1471 C1465 0.959 . S
H1472 C1465 0.961 . S
H1473 C1465 0.960 . S
H1474 C1466 0.930 . S
H1475 C1467 0.929 . S
H1476 C1484 0.929 . S
H1477 C1486 0.930 . S
H1478 C1488 0.930 . S
H1479 C1491 0.929 . S
H1480 C1494 0.930 . S
H1481 C1496 0.960 . S
H1482 C1496 0.960 . S
H1483 C1496 0.960 1_554 S
C1484 H1476 0.929 . S
C1484 C1485 1.377 1_556 S
C1484 C1486 1.384 . S
C1485 C1484 1.377 1_554 S
C1485 C1491 1.390 . S
C1486 H1477 0.930 . S
C1486 C1484 1.384 . S
C1486 C1487 1.372 1_556 S
C1487 C1486 1.372 1_554 S
C1487 C1488 1.400 . S
C1487 C1492 1.490 . S
C1488 H1478 0.930 . S
C1488 C1487 1.400 . S
C1488 C1491 1.386 . S
H1489 C1505 0.930 . S
H1490 C1506 0.931 . S
C1491 H1479 0.929 . S
C1491 C1485 1.390 . S
C1491 C1488 1.386 . S
C1492 C1487 1.490 . S
C1492 C1494 1.395 . S
C1492 C1495 1.398 1_554 S
H1493 C1499 0.926 1_556 S
C1494 H1480 0.930 . S
C1494 C1492 1.395 . S
C1494 C1497 1.403 . S
C1495 C1492 1.398 1_556 S
C1495 C1496 1.529 . S
C1495 C1499 1.399 1_556 S
C1496 H1481 0.960 . S
C1496 H1482 0.960 . S
C1496 H1483 0.960 1_556 S
C1496 C1495 1.529 . S
C1497 C1494 1.403 . S
C1497 C1498 1.392 . S
C1497 C1501 1.495 . S
C1498 C1497 1.392 . S
C1498 C1499 1.391 . S
C1498 C1500 1.478 . S
C1499 H1493 0.926 1_554 S
C1499 C1495 1.399 1_554 S
C1499 C1498 1.391 . S
C1500 C1498 1.478 . S
C1500 C1502 1.381 1_554 S
C1500 C1506 1.383 . S
C1501 C1497 1.495 . S
C1501 H1507 0.959 . S
C1501 H1508 0.961 . S
C1501 H1509 0.960 . S
C1502 C1500 1.381 1_556 S
C1502 C1503 1.394 . S
C1502 H1510 0.930 . S
C1503 C1502 1.394 . S
C1503 C1504 1.383 1_556 S
C1503 H1511 0.929 . S
C1504 C1503 1.383 1_554 S
C1504 C1505 1.377 . S
C1505 H1489 0.930 . S
C1505 C1504 1.377 . S
C1505 C1506 1.379 . S
C1506 H1490 0.931 . S
C1506 C1500 1.383 . S
C1506 C1505 1.379 . S
H1507 C1501 0.959 . S
H1508 C1501 0.961 . S
H1509 C1501 0.960 . S
H1510 C1502 0.930 . S
H1511 C1503 0.929 . S
H1512 C1520 0.929 . S
H1513 C1522 0.930 . S
H1514 C1524 0.930 . S
H1515 C1527 0.929 . S
H1516 C1530 0.930 . S
H1517 C1532 0.960 . S
H1518 C1532 0.960 . S
H1519 C1532 0.960 . S
C1520 H1512 0.929 . S
C1520 C1521 1.377 1_556 S
C1520 C1522 1.384 . S
C1521 C1520 1.377 1_554 S
C1521 C1527 1.390 . S
C1522 H1513 0.930 . S
C1522 C1520 1.384 . S
C1522 C1523 1.372 1_556 S
C1523 C1522 1.372 1_554 S
C1523 C1524 1.400 . S
C1523 C1528 1.490 . S
C1524 H1514 0.930 . S
C1524 C1523 1.400 . S
C1524 C1527 1.386 . S
H1525 C1541 0.930 . S
H1526 C1542 0.931 . S
C1527 H1515 0.929 . S
C1527 C1521 1.390 . S
C1527 C1524 1.386 . S
C1528 C1523 1.490 . S
C1528 C1530 1.395 1_554 S
C1528 C1531 1.403 . S
H1529 C1535 0.930 . S
C1530 H1516 0.930 . S
C1530 C1528 1.395 1_556 S
C1530 C1533 1.403 . S
C1531 C1528 1.403 . S
C1531 C1532 1.524 . S
C1531 C1535 1.400 . S
C1532 H1517 0.960 . S
C1532 H1518 0.960 . S
C1532 H1519 0.960 . S
C1532 C1531 1.524 . S
C1533 C1530 1.403 . S
C1533 C1534 1.392 1_556 S
C1533 C1537 1.495 . S
C1534 C1533 1.392 1_554 S
C1534 C1535 1.385 . S
C1534 C1536 1.478 . S
C1535 H1529 0.930 . S
C1535 C1531 1.400 . S
C1535 C1534 1.385 . S
C1536 C1534 1.478 . S
C1536 C1538 1.381 1_554 S
C1536 C1542 1.383 . S
C1537 C1533 1.495 . S
C1537 H1543 0.959 . S
C1537 H1544 0.961 . S
C1537 H1545 0.960 . S
C1538 C1536 1.381 1_556 S
C1538 C1539 1.394 . S
C1538 H1546 0.930 . S
C1539 C1538 1.394 . S
C1539 C1540 1.383 1_556 S
C1539 H1547 0.929 . S
C1540 C1539 1.383 1_554 S
C1540 C1541 1.377 . S
C1541 H1525 0.930 . S
C1541 C1540 1.377 . S
C1541 C1542 1.379 . S
C1542 H1526 0.931 . S
C1542 C1536 1.383 . S
C1542 C1541 1.379 . S
H1543 C1537 0.959 . S
H1544 C1537 0.961 . S
H1545 C1537 0.960 . S
H1546 C1538 0.930 . S
H1547 C1539 0.929 . S
H1548 C1556 0.929 . S
H1549 C1558 0.930 . S
H1550 C1560 0.930 . S
H1551 C1563 0.929 . S
H1552 C1566 0.930 . S
H1553 C1568 0.960 . S
H1554 C1568 0.960 . S
H1555 C1568 0.960 . S
C1556 H1548 0.929 . S
C1556 C1557 1.377 1_556 S
C1556 C1558 1.384 . S
C1557 C1556 1.377 1_554 S
C1557 C1563 1.390 . S
C1558 H1549 0.930 . S
C1558 C1556 1.384 . S
C1558 C1559 1.372 1_556 S
C1559 C1558 1.372 1_554 S
C1559 C1560 1.400 . S
C1559 C1564 1.490 . S
C1560 H1550 0.930 . S
C1560 C1559 1.400 . S
C1560 C1563 1.386 . S
H1561 C1577 0.930 . S
H1562 C1578 0.931 . S
C1563 H1551 0.929 . S
C1563 C1557 1.390 . S
C1563 C1560 1.386 . S
C1564 C1559 1.490 . S
C1564 C1566 1.395 1_554 S
C1564 C1567 1.403 . S
H1565 C1571 0.930 . S
C1566 H1552 0.930 . S
C1566 C1564 1.395 1_556 S
C1566 C1569 1.403 . S
C1567 C1564 1.403 . S
C1567 C1568 1.524 . S
C1567 C1571 1.400 . S
C1568 H1553 0.960 . S
C1568 H1554 0.960 . S
C1568 H1555 0.960 . S
C1568 C1567 1.524 . S
C1569 C1566 1.403 . S
C1569 C1570 1.344 1_556 S
C1569 C1573 1.495 . S
C1570 C1569 1.344 1_554 S
C1570 C1571 1.437 . S
C1570 C1572 1.477 . S
C1571 H1565 0.930 . S
C1571 C1567 1.400 . S
C1571 C1570 1.437 . S
C1572 C1570 1.477 . S
C1572 C1574 1.326 1_554 S
C1572 C1578 1.444 . S
C1573 C1569 1.495 . S
C1573 H1579 0.959 . S
C1573 H1580 0.961 . S
C1573 H1581 0.960 . S
C1574 C1572 1.326 1_556 S
C1574 C1575 1.394 . S
C1574 H1582 0.930 . S
C1575 C1574 1.394 . S
C1575 C1576 1.383 1_556 S
C1575 H1583 0.929 . S
C1576 C1575 1.383 1_554 S
C1576 C1577 1.377 . S
C1577 H1561 0.930 . S
C1577 C1576 1.377 . S
C1577 C1578 1.379 . S
C1578 H1562 0.931 . S
C1578 C1572 1.444 . S
C1578 C1577 1.379 . S
H1579 C1573 0.959 . S
H1580 C1573 0.961 . S
H1581 C1573 0.960 . S
H1582 C1574 0.930 . S
H1583 C1575 0.929 . S
H1584 C1592 0.929 . S
H1585 C1594 0.930 . S
H1586 C1596 0.930 . S
H1587 C1599 0.929 . S
H1588 C1602 0.930 . S
H1589 C1604 0.960 . S
H1590 C1604 0.960 . S
H1591 C1604 0.960 . S
C1592 H1584 0.929 . S
C1592 C1593 1.377 . S
C1592 C1594 1.384 . S
C1593 C1592 1.377 . S
C1593 C1599 1.390 . S
C1594 H1585 0.930 . S
C1594 C1592 1.384 . S
C1594 C1595 1.372 . S
C1595 C1594 1.372 . S
C1595 C1596 1.400 . S
C1595 C1600 1.490 . S
C1596 H1586 0.930 . S
C1596 C1595 1.400 . S
C1596 C1599 1.386 . S
H1597 C1613 0.930 . S
H1598 C1614 0.931 . S
C1599 H1587 0.929 . S
C1599 C1593 1.390 . S
C1599 C1596 1.386 . S
C1600 C1595 1.490 . S
C1600 C1602 1.395 . S
C1600 C1603 1.403 . S
H1601 C1607 0.930 . S
C1602 H1588 0.930 . S
C1602 C1600 1.395 . S
C1602 C1605 1.403 . S
C1603 C1600 1.403 . S
C1603 C1604 1.524 . S
C1603 C1607 1.400 . S
C1604 H1589 0.960 . S
C1604 H1590 0.960 . S
C1604 H1591 0.960 . S
C1604 C1603 1.524 . S
C1605 C1602 1.403 . S
C1605 C1606 1.392 . S
C1605 C1609 1.495 . S
C1606 C1605 1.392 . S
C1606 C1607 1.385 . S
C1606 C1608 1.478 . S
C1607 H1601 0.930 . S
C1607 C1603 1.400 . S
C1607 C1606 1.385 . S
C1608 C1606 1.478 . S
C1608 C1610 1.381 . S
C1608 C1614 1.383 . S
C1609 C1605 1.495 . S
C1609 H1615 0.959 . S
C1609 H1616 0.961 . S
C1609 H1617 0.960 . S
C1610 C1608 1.381 . S
C1610 C1611 1.394 . S
C1610 H1618 0.930 . S
C1611 C1610 1.394 . S
C1611 C1612 1.383 . S
C1611 H1619 0.929 . S
C1612 C1611 1.383 . S
C1612 C1613 1.377 . S
C1613 H1597 0.930 . S
C1613 C1612 1.377 . S
C1613 C1614 1.379 . S
C1614 H1598 0.931 . S
C1614 C1608 1.383 . S
C1614 C1613 1.379 . S
H1615 C1609 0.959 . S
H1616 C1609 0.961 . S
H1617 C1609 0.960 . S
H1618 C1610 0.930 . S
H1619 C1611 0.929 . S
H1620 C1628 0.929 . S
H1621 C1630 0.930 . S
H1622 C1632 0.930 . S
H1623 C1635 0.929 . S
H1624 C1638 0.930 . S
H1625 C1640 0.960 . S
H1626 C1640 0.960 . S
H1627 C1640 0.960 . S
C1628 H1620 0.929 . S
C1628 C1629 1.377 . S
C1628 C1630 1.384 . S
C1629 C1628 1.377 . S
C1629 C1635 1.390 . S
C1630 H1621 0.930 . S
C1630 C1628 1.384 . S
C1630 C1631 1.372 . S
C1631 C1630 1.372 . S
C1631 C1632 1.400 . S
C1631 C1636 1.490 . S
C1632 H1622 0.930 . S
C1632 C1631 1.400 . S
C1632 C1635 1.386 . S
H1633 C1649 0.930 . S
H1634 C1650 0.931 . S
C1635 H1623 0.929 . S
C1635 C1629 1.390 . S
C1635 C1632 1.386 . S
C1636 C1631 1.490 . S
C1636 C1638 1.395 . S
C1636 C1639 1.403 . S
H1637 C1643 0.930 . S
C1638 H1624 0.930 . S
C1638 C1636 1.395 . S
C1638 C1641 1.403 . S
C1639 C1636 1.403 . S
C1639 C1640 1.524 . S
C1639 C1643 1.400 . S
C1640 H1625 0.960 . S
C1640 H1626 0.960 . S
C1640 H1627 0.960 . S
C1640 C1639 1.524 . S
C1641 C1638 1.403 . S
C1641 C1642 1.392 . S
C1641 C1645 1.495 . S
C1642 C1641 1.392 . S
C1642 C1643 1.385 . S
C1642 C1644 1.478 . S
C1643 H1637 0.930 . S
C1643 C1639 1.400 . S
C1643 C1642 1.385 . S
C1644 C1642 1.478 . S
C1644 C1646 1.381 . S
C1644 C1650 1.383 . S
C1645 C1641 1.495 . S
C1645 H1651 0.959 . S
C1645 H1652 0.961 . S
C1645 H1653 0.960 . S
C1646 C1644 1.381 . S
C1646 C1647 1.394 . S
C1646 H1654 0.930 . S
C1647 C1646 1.394 . S
C1647 C1648 1.383 . S
C1647 H1655 0.929 . S
C1648 C1647 1.383 . S
C1648 C1649 1.377 . S
C1649 H1633 0.930 . S
C1649 C1648 1.377 . S
C1649 C1650 1.379 . S
C1650 H1634 0.931 . S
C1650 C1644 1.383 . S
C1650 C1649 1.379 . S
H1651 C1645 0.959 . S
H1652 C1645 0.961 . S
H1653 C1645 0.960 . S
H1654 C1646 0.930 . S
H1655 C1647 0.929 . S
H1656 C1664 0.929 . S
H1657 C1666 0.930 . S
H1658 C1668 0.930 . S
H1659 C1671 0.929 . S
H1660 C1674 0.930 . S
H1661 C1676 0.960 . S
H1662 C1676 0.960 . S
H1663 C1676 0.960 . S
C1664 H1656 0.929 . S
C1664 C1665 1.377 . S
C1664 C1666 1.384 . S
C1665 C1664 1.377 . S
C1665 C1671 1.390 . S
C1666 H1657 0.930 . S
C1666 C1664 1.384 . S
C1666 C1667 1.372 . S
C1667 C1666 1.372 . S
C1667 C1668 1.400 . S
C1667 C1672 1.490 . S
C1668 H1658 0.930 . S
C1668 C1667 1.400 . S
C1668 C1671 1.386 . S
H1669 C1685 0.930 . S
H1670 C1686 0.931 . S
C1671 H1659 0.929 . S
C1671 C1665 1.390 . S
C1671 C1668 1.386 . S
C1672 C1667 1.490 . S
C1672 C1674 1.395 . S
C1672 C1675 1.403 . S
H1673 C1679 0.930 . S
C1674 H1660 0.930 . S
C1674 C1672 1.395 . S
C1674 C1677 1.403 . S
C1675 C1672 1.403 . S
C1675 C1676 1.524 . S
C1675 C1679 1.400 . S
C1676 H1661 0.960 . S
C1676 H1662 0.960 . S
C1676 H1663 0.960 . S
C1676 C1675 1.524 . S
C1677 C1674 1.403 . S
C1677 C1678 1.392 . S
C1677 C1681 1.495 . S
C1678 C1677 1.392 . S
C1678 C1679 1.385 . S
C1678 C1680 1.478 . S
C1679 H1673 0.930 . S
C1679 C1675 1.400 . S
C1679 C1678 1.385 . S
C1680 C1678 1.478 . S
C1680 C1682 1.381 . S
C1680 C1686 1.383 . S
C1681 C1677 1.495 . S
C1681 H1687 0.959 . S
C1681 H1688 0.961 . S
C1681 H1689 0.960 . S
C1682 C1680 1.381 . S
C1682 C1683 1.394 . S
C1682 H1690 0.930 . S
C1683 C1682 1.394 . S
C1683 C1684 1.383 . S
C1683 H1691 0.929 . S
C1684 C1683 1.383 . S
C1684 C1685 1.377 . S
C1685 H1669 0.930 . S
C1685 C1684 1.377 . S
C1685 C1686 1.379 . S
C1686 H1670 0.931 . S
C1686 C1680 1.383 . S
C1686 C1685 1.379 . S
H1687 C1681 0.959 . S
H1688 C1681 0.961 . S
H1689 C1681 0.960 . S
H1690 C1682 0.930 . S
H1691 C1683 0.929 . S
H1692 C1700 0.929 . S
H1693 C1702 0.930 . S
H1694 C1704 0.958 . S
H1695 C1707 0.929 . S
H1696 C1710 0.930 . S
H1697 C1712 0.960 . S
H1698 C1712 0.960 . S
H1699 C1712 0.960 . S
C1700 H1692 0.929 . S
C1700 C1701 1.377 . S
C1700 C1702 1.384 . S
C1701 C1700 1.377 . S
C1701 C1707 1.390 1_556 S
C1702 H1693 0.930 . S
C1702 C1700 1.384 . S
C1702 C1703 1.372 . S
C1703 C1702 1.372 . S
C1703 C1704 1.375 1_556 S
C1703 C1708 1.490 . S
C1704 H1694 0.958 . S
C1704 C1703 1.375 1_554 S
C1704 C1707 1.389 . S
H1705 C1721 0.930 . S
H1706 C1722 0.931 . S
C1707 H1695 0.929 . S
C1707 C1701 1.390 1_554 S
C1707 C1704 1.389 . S
C1708 C1703 1.490 . S
C1708 C1710 1.395 1_556 S
C1708 C1711 1.403 . S
H1709 C1715 0.930 . S
C1710 H1696 0.930 . S
C1710 C1708 1.395 1_554 S
C1710 C1713 1.403 . S
C1711 C1708 1.403 . S
C1711 C1712 1.524 . S
C1711 C1715 1.400 . S
C1712 H1697 0.960 . S
C1712 H1698 0.960 . S
C1712 H1699 0.960 . S
C1712 C1711 1.524 . S
C1713 C1710 1.403 . S
C1713 C1714 1.392 1_554 S
C1713 C1717 1.495 . S
C1714 C1713 1.392 1_556 S
C1714 C1715 1.385 . S
C1714 C1716 1.478 . S
C1715 H1709 0.930 . S
C1715 C1711 1.400 . S
C1715 C1714 1.385 . S
C1716 C1714 1.478 . S
C1716 C1718 1.381 . S
C1716 C1722 1.383 1_556 S
C1717 C1713 1.495 . S
C1717 H1723 0.959 . S
C1717 H1724 0.961 . S
C1717 H1725 0.960 . S
C1718 C1716 1.381 . S
C1718 C1719 1.394 . S
C1718 H1726 0.930 . S
C1719 C1718 1.394 . S
C1719 C1720 1.383 . S
C1719 H1727 0.929 . S
C1720 C1719 1.383 . S
C1720 C1721 1.377 1_556 S
C1721 H1705 0.930 . S
C1721 C1720 1.377 1_554 S
C1721 C1722 1.379 . S
C1722 H1706 0.931 . S
C1722 C1716 1.383 1_554 S
C1722 C1721 1.379 . S
H1723 C1717 0.959 . S
H1724 C1717 0.961 . S
H1725 C1717 0.960 . S
H1726 C1718 0.930 . S
H1727 C1719 0.929 . S
H1728 C1736 0.929 . S
H1729 C1738 0.930 . S
H1730 C1740 0.930 . S
H1731 C1743 0.929 . S
H1732 C1746 0.930 . S
H1733 C1748 0.960 . S
H1734 C1748 0.960 . S
H1735 C1748 0.960 . S
C1736 H1728 0.929 . S
C1736 C1737 1.377 . S
C1736 C1738 1.384 . S
C1737 C1736 1.377 . S
C1737 C1743 1.390 . S
C1738 H1729 0.930 . S
C1738 C1736 1.384 . S
C1738 C1739 1.372 . S
C1739 C1738 1.372 . S
C1739 C1740 1.400 . S
C1739 C1744 1.490 . S
C1740 H1730 0.930 . S
C1740 C1739 1.400 . S
C1740 C1743 1.386 . S
H1741 C1757 0.927 1_554 S
H1742 C1758 0.933 . S
C1743 H1731 0.929 . S
C1743 C1737 1.390 . S
C1743 C1740 1.386 . S
C1744 C1739 1.490 . S
C1744 C1746 1.395 1_556 S
C1744 C1747 1.403 . S
H1745 C1751 0.930 . S
C1746 H1732 0.930 . S
C1746 C1744 1.395 1_554 S
C1746 C1749 1.403 . S
C1747 C1744 1.403 . S
C1747 C1748 1.524 . S
C1747 C1751 1.400 . S
C1748 H1733 0.960 . S
C1748 H1734 0.960 . S
C1748 H1735 0.960 . S
C1748 C1747 1.524 . S
C1749 C1746 1.403 . S
C1749 C1750 1.392 1_554 S
C1749 C1753 1.495 . S
C1750 C1749 1.392 1_556 S
C1750 C1751 1.385 . S
C1750 C1752 1.481 . S
C1751 H1745 0.930 . S
C1751 C1747 1.400 . S
C1751 C1750 1.385 . S
C1752 C1750 1.481 . S
C1752 C1754 1.395 . S
C1752 C1758 1.377 1_556 S
C1753 C1749 1.495 . S
C1753 H1759 0.959 . S
C1753 H1760 0.961 . S
C1753 H1761 0.960 . S
C1754 C1752 1.395 . S
C1754 C1755 1.394 . S
C1754 H1762 0.930 . S
C1755 C1754 1.394 . S
C1755 C1756 1.383 . S
C1755 H1763 0.929 . S
C1756 C1755 1.383 . S
C1756 C1757 1.383 . S
C1757 H1741 0.927 1_556 S
C1757 C1756 1.383 . S
C1757 C1758 1.377 1_556 S
C1758 H1742 0.933 . S
C1758 C1752 1.377 1_554 S
C1758 C1757 1.377 1_554 S
H1759 C1753 0.959 . S
H1760 C1753 0.961 . S
H1761 C1753 0.960 . S
H1762 C1754 0.930 . S
H1763 C1755 0.929 . S
H1764 C1772 0.929 . S
H1765 C1774 0.930 . S
H1766 C1776 0.930 . S
H1767 C1779 0.929 . S
H1768 C1782 0.930 . S
H1769 C1784 0.952 1_554 S
H1770 C1784 0.993 . S
H1771 C1784 0.929 1_554 S
C1772 H1764 0.929 . S
C1772 C1773 1.377 . S
C1772 C1774 1.384 . S
C1773 C1772 1.377 . S
C1773 C1779 1.390 1_556 S
C1774 H1765 0.930 . S
C1774 C1772 1.384 . S
C1774 C1775 1.372 . S
C1775 C1774 1.372 . S
C1775 C1776 1.400 1_556 S
C1775 C1780 1.490 . S
C1776 H1766 0.930 . S
C1776 C1775 1.400 1_554 S
C1776 C1779 1.386 . S
H1777 C1793 0.930 . S
H1778 C1794 0.931 . S
C1779 H1767 0.929 . S
C1779 C1773 1.390 1_554 S
C1779 C1776 1.386 . S
C1780 C1775 1.490 . S
C1780 C1782 1.395 . S
C1780 C1783 1.403 . S
H1781 C1787 0.941 . S
C1782 H1768 0.930 . S
C1782 C1780 1.395 . S
C1782 C1785 1.403 . S
C1783 C1780 1.403 . S
C1783 C1784 1.529 . S
C1783 C1787 1.400 . S
C1784 H1769 0.952 1_556 S
C1784 H1770 0.993 . S
C1784 H1771 0.929 1_556 S
C1784 C1783 1.529 . S
C1785 C1782 1.403 . S
C1785 C1786 1.392 . S
C1785 C1789 1.495 . S
C1786 C1785 1.392 . S
C1786 C1787 1.385 . S
C1786 C1788 1.478 . S
C1787 H1781 0.941 . S
C1787 C1783 1.400 . S
C1787 C1786 1.385 . S
C1788 C1786 1.478 . S
C1788 C1790 1.381 . S
C1788 C1794 1.383 1_556 S
C1789 C1785 1.495 . S
C1789 H1795 0.959 . S
C1789 H1796 1.009 . S
C1789 H1797 0.960 . S
C1790 C1788 1.381 . S
C1790 C1791 1.394 . S
C1790 H1798 0.930 . S
C1791 C1790 1.394 . S
C1791 C1792 1.383 . S
C1791 H1799 0.929 . S
C1792 C1791 1.383 . S
C1792 C1793 1.377 1_556 S
C1793 H1777 0.930 . S
C1793 C1792 1.377 1_554 S
C1793 C1794 1.379 . S
C1794 H1778 0.931 . S
C1794 C1788 1.383 1_554 S
C1794 C1793 1.379 . S
H1795 C1789 0.959 . S
H1796 C1789 1.009 . S
H1797 C1789 0.960 . S
H1798 C1790 0.930 . S
H1799 C1791 0.929 . S
H1800 C1808 0.929 . S
H1801 C1810 0.930 . S
H1802 C1812 0.930 . S
H1803 C1815 0.929 . S
H1804 C1818 0.930 . S
H1805 C1820 0.960 . S
H1806 C1820 0.960 . S
H1807 C1820 0.960 . S
C1808 H1800 0.929 . S
C1808 C1809 1.377 . S
C1808 C1810 1.384 . S
C1809 C1808 1.377 . S
C1809 C1815 1.390 . S
C1810 H1801 0.930 . S
C1810 C1808 1.384 . S
C1810 C1811 1.372 . S
C1811 C1810 1.372 . S
C1811 C1812 1.400 . S
C1811 C1816 1.490 . S
C1812 H1802 0.930 . S
C1812 C1811 1.400 . S
C1812 C1815 1.386 . S
H1813 C1829 0.930 . S
H1814 C1830 0.931 . S
C1815 H1803 0.929 . S
C1815 C1809 1.390 . S
C1815 C1812 1.386 . S
C1816 C1811 1.490 . S
C1816 C1818 1.395 . S
C1816 C1819 1.403 . S
H1817 C1823 0.930 . S
C1818 H1804 0.930 . S
C1818 C1816 1.395 . S
C1818 C1821 1.403 . S
C1819 C1816 1.403 . S
C1819 C1820 1.524 . S
C1819 C1823 1.400 . S
C1820 H1805 0.960 . S
C1820 H1806 0.960 . S
C1820 H1807 0.960 . S
C1820 C1819 1.524 . S
C1821 C1818 1.403 . S
C1821 C1822 1.392 . S
C1821 C1825 1.495 . S
C1822 C1821 1.392 . S
C1822 C1823 1.385 . S
C1822 C1824 1.478 . S
C1823 H1817 0.930 . S
C1823 C1819 1.400 . S
C1823 C1822 1.385 . S
C1824 C1822 1.478 . S
C1824 C1826 1.381 . S
C1824 C1830 1.383 . S
C1825 C1821 1.495 . S
C1825 H1831 0.959 . S
C1825 H1832 0.961 . S
C1825 H1833 0.960 . S
C1826 C1824 1.381 . S
C1826 C1827 1.394 . S
C1826 H1834 0.930 . S
C1827 C1826 1.394 . S
C1827 C1828 1.383 . S
C1827 H1835 0.929 . S
C1828 C1827 1.383 . S
C1828 C1829 1.377 . S
C1829 H1813 0.930 . S
C1829 C1828 1.377 . S
C1829 C1830 1.379 . S
C1830 H1814 0.931 . S
C1830 C1824 1.383 . S
C1830 C1829 1.379 . S
H1831 C1825 0.959 . S
H1832 C1825 0.961 . S
H1833 C1825 0.960 . S
H1834 C1826 0.930 . S
H1835 C1827 0.929 . S
H1836 C1844 0.929 . S
H1837 C1846 0.930 . S
H1838 C1848 0.930 . S
H1839 C1851 0.929 . S
H1840 C1854 0.930 . S
H1841 C1856 0.960 . S
H1842 C1856 0.960 . S
H1843 C1856 0.960 . S
C1844 H1836 0.929 . S
C1844 C1845 1.377 . S
C1844 C1846 1.384 . S
C1845 C1844 1.377 . S
C1845 C1851 1.390 . S
C1846 H1837 0.930 . S
C1846 C1844 1.384 . S
C1846 C1847 1.372 . S
C1847 C1846 1.372 . S
C1847 C1848 1.400 . S
C1847 C1852 1.490 . S
C1848 H1838 0.930 . S
C1848 C1847 1.400 . S
C1848 C1851 1.386 . S
H1849 C1865 0.930 . S
H1850 C1866 0.931 . S
C1851 H1839 0.929 . S
C1851 C1845 1.390 . S
C1851 C1848 1.386 . S
C1852 C1847 1.490 . S
C1852 C1854 1.395 . S
C1852 C1855 1.403 . S
H1853 C1859 0.930 . S
C1854 H1840 0.930 . S
C1854 C1852 1.395 . S
C1854 C1857 1.403 . S
C1855 C1852 1.403 . S
C1855 C1856 1.524 . S
C1855 C1859 1.400 . S
C1856 H1841 0.960 . S
C1856 H1842 0.960 . S
C1856 H1843 0.960 . S
C1856 C1855 1.524 . S
C1857 C1854 1.403 . S
C1857 C1858 1.392 . S
C1857 C1861 1.495 . S
C1858 C1857 1.392 . S
C1858 C1859 1.385 . S
C1858 C1860 1.478 . S
C1859 H1853 0.930 . S
C1859 C1855 1.400 . S
C1859 C1858 1.385 . S
C1860 C1858 1.478 . S
C1860 C1862 1.381 . S
C1860 C1866 1.383 . S
C1861 C1857 1.495 . S
C1861 H1867 0.959 . S
C1861 H1868 0.961 . S
C1861 H1869 0.960 . S
C1862 C1860 1.381 . S
C1862 C1863 1.394 . S
C1862 H1870 0.930 . S
C1863 C1862 1.394 . S
C1863 C1864 1.383 . S
C1863 H1871 0.929 . S
C1864 C1863 1.383 . S
C1864 C1865 1.377 . S
C1865 H1849 0.930 . S
C1865 C1864 1.377 . S
C1865 C1866 1.379 . S
C1866 H1850 0.931 . S
C1866 C1860 1.383 . S
C1866 C1865 1.379 . S
H1867 C1861 0.959 . S
H1868 C1861 0.961 . S
H1869 C1861 0.960 . S
H1870 C1862 0.930 . S
H1871 C1863 0.929 . S
H1872 C1880 0.929 . S
H1873 C1882 0.930 . S
H1874 C1884 0.930 . S
H1875 C1887 0.929 . S
H1876 C1890 0.930 . S
H1877 C1892 0.960 . S
H1878 C1892 0.960 . S
H1879 C1892 0.960 . S
C1880 H1872 0.929 . S
C1880 C1881 1.377 . S
C1880 C1882 1.384 . S
C1881 C1880 1.377 . S
C1881 C1887 1.390 . S
C1882 H1873 0.930 . S
C1882 C1880 1.384 . S
C1882 C1883 1.372 . S
C1883 C1882 1.372 . S
C1883 C1884 1.400 . S
C1883 C1888 1.490 . S
C1884 H1874 0.930 . S
C1884 C1883 1.400 . S
C1884 C1887 1.386 . S
H1885 C1901 0.930 . S
H1886 C1902 0.931 . S
C1887 H1875 0.929 . S
C1887 C1881 1.390 . S
C1887 C1884 1.386 . S
C1888 C1883 1.490 . S
C1888 C1890 1.395 . S
C1888 C1891 1.403 . S
H1889 C1895 0.930 . S
C1890 H1876 0.930 . S
C1890 C1888 1.395 . S
C1890 C1893 1.403 . S
C1891 C1888 1.403 . S
C1891 C1892 1.524 . S
C1891 C1895 1.400 . S
C1892 H1877 0.960 . S
C1892 H1878 0.960 . S
C1892 H1879 0.960 . S
C1892 C1891 1.524 . S
C1893 C1890 1.403 . S
C1893 C1894 1.392 . S
C1893 C1897 1.495 . S
C1894 C1893 1.392 . S
C1894 C1895 1.385 . S
C1894 C1896 1.478 . S
C1895 H1889 0.930 . S
C1895 C1891 1.400 . S
C1895 C1894 1.385 . S
C1896 C1894 1.478 . S
C1896 C1898 1.381 . S
C1896 C1902 1.383 . S
C1897 C1893 1.495 . S
C1897 H1903 0.959 . S
C1897 H1904 0.961 . S
C1897 H1905 0.960 . S
C1898 C1896 1.381 . S
C1898 C1899 1.394 . S
C1898 H1906 0.930 . S
C1899 C1898 1.394 . S
C1899 C1900 1.383 . S
C1899 H1907 0.929 . S
C1900 C1899 1.383 . S
C1900 C1901 1.377 . S
C1901 H1885 0.930 . S
C1901 C1900 1.377 . S
C1901 C1902 1.379 . S
C1902 H1886 0.931 . S
C1902 C1896 1.383 . S
C1902 C1901 1.379 . S
H1903 C1897 0.959 . S
H1904 C1897 0.961 . S
H1905 C1897 0.960 . S
H1906 C1898 0.930 . S
H1907 C1899 0.929 . S
H1908 C1916 0.929 . S
H1909 C1918 0.930 . S
H1910 C1920 0.930 . S
H1911 C1923 0.929 . S
H1912 C1926 0.930 . S
H1913 C1928 0.960 . S
H1914 C1928 0.960 . S
H1915 C1928 0.960 . S
C1916 H1908 0.929 . S
C1916 C1917 1.377 . S
C1916 C1918 1.384 . S
C1917 C1916 1.377 . S
C1917 C1923 1.390 . S
C1918 H1909 0.930 . S
C1918 C1916 1.384 . S
C1918 C1919 1.372 . S
C1919 C1918 1.372 . S
C1919 C1920 1.400 . S
C1919 C1924 1.490 . S
C1920 H1910 0.930 . S
C1920 C1919 1.400 . S
C1920 C1923 1.386 . S
H1921 C1937 0.930 . S
H1922 C1938 0.931 . S
C1923 H1911 0.929 . S
C1923 C1917 1.390 . S
C1923 C1920 1.386 . S
C1924 C1919 1.490 . S
C1924 C1926 1.395 . S
C1924 C1927 1.403 . S
H1925 C1931 0.930 . S
C1926 H1912 0.930 . S
C1926 C1924 1.395 . S
C1926 C1929 1.403 . S
C1927 C1924 1.403 . S
C1927 C1928 1.524 . S
C1927 C1931 1.400 . S
C1928 H1913 0.960 . S
C1928 H1914 0.960 . S
C1928 H1915 0.960 . S
C1928 C1927 1.524 . S
C1929 C1926 1.403 . S
C1929 C1930 1.392 . S
C1929 C1933 1.495 . S
C1930 C1929 1.392 . S
C1930 C1931 1.385 . S
C1930 C1932 1.478 . S
C1931 H1925 0.930 . S
C1931 C1927 1.400 . S
C1931 C1930 1.385 . S
C1932 C1930 1.478 . S
C1932 C1934 1.381 . S
C1932 C1938 1.383 . S
C1933 C1929 1.495 . S
C1933 H1939 0.959 . S
C1933 H1940 0.961 . S
C1933 H1941 0.960 . S
C1934 C1932 1.381 . S
C1934 C1935 1.394 . S
C1934 H1942 0.930 . S
C1935 C1934 1.394 . S
C1935 C1936 1.383 . S
C1935 H1943 0.929 . S
C1936 C1935 1.383 . S
C1936 C1937 1.377 . S
C1937 H1921 0.930 . S
C1937 C1936 1.377 . S
C1937 C1938 1.379 . S
C1938 H1922 0.931 . S
C1938 C1932 1.383 . S
C1938 C1937 1.379 . S
H1939 C1933 0.959 . S
H1940 C1933 0.961 . S
H1941 C1933 0.960 . S
H1942 C1934 0.930 . S
H1943 C1935 0.929 . S
H1944 C1952 0.929 . S
H1945 C1954 0.930 . S
H1946 C1956 0.930 . S
H1947 C1959 0.929 . S
H1948 C1962 0.930 . S
H1949 C1964 0.960 . S
H1950 C1964 0.960 . S
H1951 C1964 0.960 . S
C1952 H1944 0.929 . S
C1952 C1953 1.377 . S
C1952 C1954 1.384 . S
C1953 C1952 1.377 . S
C1953 C1959 1.390 . S
C1954 H1945 0.930 . S
C1954 C1952 1.384 . S
C1954 C1955 1.372 . S
C1955 C1954 1.372 . S
C1955 C1956 1.400 . S
C1955 C1960 1.490 . S
C1956 H1946 0.930 . S
C1956 C1955 1.400 . S
C1956 C1959 1.386 . S
H1957 C1973 0.930 . S
H1958 C1974 0.931 . S
C1959 H1947 0.929 . S
C1959 C1953 1.390 . S
C1959 C1956 1.386 . S
C1960 C1955 1.490 . S
C1960 C1962 1.395 . S
C1960 C1963 1.403 . S
H1961 C1967 0.930 . S
C1962 H1948 0.930 . S
C1962 C1960 1.395 . S
C1962 C1965 1.403 . S
C1963 C1960 1.403 . S
C1963 C1964 1.524 . S
C1963 C1967 1.400 . S
C1964 H1949 0.960 . S
C1964 H1950 0.960 . S
C1964 H1951 0.960 . S
C1964 C1963 1.524 . S
C1965 C1962 1.403 . S
C1965 C1966 1.392 . S
C1965 C1969 1.495 . S
C1966 C1965 1.392 . S
C1966 C1967 1.385 . S
C1966 C1968 1.478 . S
C1967 H1961 0.930 . S
C1967 C1963 1.400 . S
C1967 C1966 1.385 . S
C1968 C1966 1.478 . S
C1968 C1970 1.381 . S
C1968 C1974 1.383 . S
C1969 C1965 1.495 . S
C1969 H1975 0.959 . S
C1969 H1976 0.961 . S
C1969 H1977 0.960 . S
C1970 C1968 1.381 . S
C1970 C1971 1.394 . S
C1970 H1978 0.930 . S
C1971 C1970 1.394 . S
C1971 C1972 1.383 . S
C1971 H1979 0.929 . S
C1972 C1971 1.383 . S
C1972 C1973 1.377 . S
C1973 H1957 0.930 . S
C1973 C1972 1.377 . S
C1973 C1974 1.379 . S
C1974 H1958 0.931 . S
C1974 C1968 1.383 . S
C1974 C1973 1.379 . S
H1975 C1969 0.959 . S
H1976 C1969 0.961 . S
H1977 C1969 0.960 . S
H1978 C1970 0.930 . S
H1979 C1971 0.929 . S
H1980 C1988 0.929 . S
H1981 C1990 0.930 . S
H1982 C1992 0.930 . S
H1983 C1995 0.929 . S
H1984 C1998 0.930 . S
H1985 C2000 0.960 . S
H1986 C2000 0.960 . S
H1987 C2000 0.960 . S
C1988 H1980 0.929 . S
C1988 C1989 1.377 . S
C1988 C1990 1.384 . S
C1989 C1988 1.377 . S
C1989 C1995 1.390 . S
C1990 H1981 0.930 . S
C1990 C1988 1.384 . S
C1990 C1991 1.372 . S
C1991 C1990 1.372 . S
C1991 C1992 1.400 . S
C1991 C1996 1.490 . S
C1992 H1982 0.930 . S
C1992 C1991 1.400 . S
C1992 C1995 1.386 . S
H1993 C2009 0.930 . S
H1994 C2010 0.931 . S
C1995 H1983 0.929 . S
C1995 C1989 1.390 . S
C1995 C1992 1.386 . S
C1996 C1991 1.490 . S
C1996 C1998 1.395 . S
C1996 C1999 1.403 . S
H1997 C2003 0.930 . S
C1998 H1984 0.930 . S
C1998 C1996 1.395 . S
C1998 C2001 1.403 . S
C1999 C1996 1.403 . S
C1999 C2000 1.524 . S
C1999 C2003 1.400 . S
C2000 H1985 0.960 . S
C2000 H1986 0.960 . S
C2000 H1987 0.960 . S
C2000 C1999 1.524 . S
C2001 C1998 1.403 . S
C2001 C2002 1.392 . S
C2001 C2005 1.495 . S
C2002 C2001 1.392 . S
C2002 C2003 1.385 . S
C2002 C2004 1.478 . S
C2003 H1997 0.930 . S
C2003 C1999 1.400 . S
C2003 C2002 1.385 . S
C2004 C2002 1.478 . S
C2004 C2006 1.381 . S
C2004 C2010 1.383 . S
C2005 C2001 1.495 . S
C2005 H2011 0.959 . S
C2005 H2012 0.961 . S
C2005 H2013 0.960 . S
C2006 C2004 1.381 . S
C2006 C2007 1.394 . S
C2006 H2014 0.930 . S
C2007 C2006 1.394 . S
C2007 C2008 1.383 . S
C2007 H2015 0.929 . S
C2008 C2007 1.383 . S
C2008 C2009 1.377 . S
C2009 H1993 0.930 . S
C2009 C2008 1.377 . S
C2009 C2010 1.379 . S
C2010 H1994 0.931 . S
C2010 C2004 1.383 . S
C2010 C2009 1.379 . S
H2011 C2005 0.959 . S
H2012 C2005 0.961 . S
H2013 C2005 0.960 . S
H2014 C2006 0.930 . S
H2015 C2007 0.929 . S
H2016 C2024 0.929 . S
H2017 C2026 0.930 . S
H2018 C2028 0.930 . S
H2019 C2031 0.929 . S
H2020 C2034 0.930 . S
H2021 C2036 0.960 . S
H2022 C2036 0.960 . S
H2023 C2036 0.960 . S
C2024 H2016 0.929 . S
C2024 C2025 1.377 . S
C2024 C2026 1.384 . S
C2025 C2024 1.377 . S
C2025 C2031 1.390 . S
C2026 H2017 0.930 . S
C2026 C2024 1.384 . S
C2026 C2027 1.372 . S
C2027 C2026 1.372 . S
C2027 C2028 1.400 . S
C2027 C2032 1.490 . S
C2028 H2018 0.930 . S
C2028 C2027 1.400 . S
C2028 C2031 1.386 . S
H2029 C2045 0.930 . S
H2030 C2046 0.931 . S
C2031 H2019 0.929 . S
C2031 C2025 1.390 . S
C2031 C2028 1.386 . S
C2032 C2027 1.490 . S
C2032 C2034 1.395 . S
C2032 C2035 1.403 . S
H2033 C2039 0.930 . S
C2034 H2020 0.930 . S
C2034 C2032 1.395 . S
C2034 C2037 1.403 . S
C2035 C2032 1.403 . S
C2035 C2036 1.524 . S
C2035 C2039 1.400 . S
C2036 H2021 0.960 . S
C2036 H2022 0.960 . S
C2036 H2023 0.960 . S
C2036 C2035 1.524 . S
C2037 C2034 1.403 . S
C2037 C2038 1.392 . S
C2037 C2041 1.495 . S
C2038 C2037 1.392 . S
C2038 C2039 1.385 . S
C2038 C2040 1.478 . S
C2039 H2033 0.930 . S
C2039 C2035 1.400 . S
C2039 C2038 1.385 . S
C2040 C2038 1.478 . S
C2040 C2042 1.381 . S
C2040 C2046 1.383 . S
C2041 C2037 1.495 . S
C2041 H2047 0.959 . S
C2041 H2048 0.961 . S
C2041 H2049 0.960 . S
C2042 C2040 1.381 . S
C2042 C2043 1.394 . S
C2042 H2050 0.930 . S
C2043 C2042 1.394 . S
C2043 C2044 1.383 . S
C2043 H2051 0.929 . S
C2044 C2043 1.383 . S
C2044 C2045 1.377 . S
C2045 H2029 0.930 . S
C2045 C2044 1.377 . S
C2045 C2046 1.379 . S
C2046 H2030 0.931 . S
C2046 C2040 1.383 . S
C2046 C2045 1.379 . S
H2047 C2041 0.959 . S
H2048 C2041 0.961 . S
H2049 C2041 0.960 . S
H2050 C2042 0.930 . S
H2051 C2043 0.929 . S
H2052 C2060 0.929 . S
H2053 C2062 0.930 . S
H2054 C2064 0.930 . S
H2055 C2067 0.929 . S
H2056 C2070 0.930 . S
H2057 C2072 0.960 . S
H2058 C2072 0.960 . S
H2059 C2072 0.960 . S
C2060 H2052 0.929 . S
C2060 C2061 1.377 . S
C2060 C2062 1.384 1_545 S
C2061 C2060 1.377 . S
C2061 C2067 1.390 . S
C2062 H2053 0.930 . S
C2062 C2060 1.384 1_565 S
C2062 C2063 1.372 . S
C2063 C2062 1.372 . S
C2063 C2064 1.400 1_565 S
C2063 C2068 1.490 . S
C2064 H2054 0.930 . S
C2064 C2063 1.400 1_545 S
C2064 C2067 1.386 . S
H2065 C2081 0.930 . S
H2066 C2082 0.931 . S
C2067 H2055 0.929 . S
C2067 C2061 1.390 . S
C2067 C2064 1.386 . S
C2068 C2063 1.490 . S
C2068 C2070 1.395 . S
C2068 C2071 1.403 . S
H2069 C2075 0.930 . S
C2070 H2056 0.930 . S
C2070 C2068 1.395 . S
C2070 C2073 1.403 . S
C2071 C2068 1.403 . S
C2071 C2072 1.524 1_565 S
C2071 C2075 1.400 . S
C2072 H2057 0.960 . S
C2072 H2058 0.960 . S
C2072 H2059 0.960 . S
C2072 C2071 1.524 1_545 S
C2073 C2070 1.403 . S
C2073 C2074 1.392 . S
C2073 C2077 1.495 . S
C2074 C2073 1.392 . S
C2074 C2075 1.385 . S
C2074 C2076 1.478 . S
C2075 H2069 0.930 . S
C2075 C2071 1.400 . S
C2075 C2074 1.385 . S
C2076 C2074 1.478 . S
C2076 C2078 1.381 . S
C2076 C2082 1.383 . S
C2077 C2073 1.495 . S
C2077 H2083 0.959 . S
C2077 H2084 0.961 . S
C2077 H2085 0.960 . S
C2078 C2076 1.381 . S
C2078 C2079 1.394 . S
C2078 H2086 0.930 . S
C2079 C2078 1.394 . S
C2079 C2080 1.383 . S
C2079 H2087 0.929 . S
C2080 C2079 1.383 . S
C2080 C2081 1.377 . S
C2081 H2065 0.930 . S
C2081 C2080 1.377 . S
C2081 C2082 1.379 . S
C2082 H2066 0.931 . S
C2082 C2076 1.383 . S
C2082 C2081 1.379 . S
H2083 C2077 0.959 . S
H2084 C2077 0.961 . S
H2085 C2077 0.960 . S
H2086 C2078 0.930 . S
H2087 C2079 0.929 . S
H2088 C2096 0.929 . S
H2089 C2098 0.930 . S
H2090 C2100 0.930 . S
H2091 C2103 0.929 . S
H2092 C2106 0.930 . S
H2093 C2108 0.960 . S
H2094 C2108 0.960 . S
H2095 C2108 0.960 . S
C2096 H2088 0.929 . S
C2096 C2097 1.377 . S
C2096 C2098 1.384 . S
C2097 C2096 1.377 . S
C2097 C2103 1.390 . S
C2098 H2089 0.930 . S
C2098 C2096 1.384 . S
C2098 C2099 1.372 . S
C2099 C2098 1.372 . S
C2099 C2100 1.400 . S
C2099 C2104 1.490 . S
C2100 H2090 0.930 . S
C2100 C2099 1.400 . S
C2100 C2103 1.386 . S
H2101 C2117 0.952 . S
H2102 C2118 0.931 . S
C2103 H2091 0.929 . S
C2103 C2097 1.390 . S
C2103 C2100 1.386 . S
C2104 C2099 1.490 . S
C2104 C2106 1.395 . S
C2104 C2107 1.403 . S
H2105 C2111 0.930 . S
C2106 H2092 0.930 . S
C2106 C2104 1.395 . S
C2106 C2109 1.403 . S
C2107 C2104 1.403 . S
C2107 C2108 1.524 . S
C2107 C2111 1.400 . S
C2108 H2093 0.960 . S
C2108 H2094 0.960 . S
C2108 H2095 0.960 . S
C2108 C2107 1.524 . S
C2109 C2106 1.403 . S
C2109 C2110 1.392 . S
C2109 C2113 1.495 . S
C2110 C2109 1.392 . S
C2110 C2111 1.385 . S
C2110 C2112 1.478 . S
C2111 H2105 0.930 . S
C2111 C2107 1.400 . S
C2111 C2110 1.385 . S
C2112 C2110 1.478 . S
C2112 C2114 1.381 1_455 S
C2112 C2118 1.383 . S
C2113 C2109 1.495 . S
C2113 H2119 0.959 . S
C2113 H2120 0.961 . S
C2113 H2121 0.960 . S
C2114 C2112 1.381 1_655 S
C2114 C2115 1.394 . S
C2114 H2122 0.930 . S
C2115 C2114 1.394 . S
C2115 C2116 1.383 . S
C2115 H2123 0.929 . S
C2116 C2115 1.383 . S
C2116 C2117 1.354 1_655 S
C2117 H2101 0.952 . S
C2117 C2116 1.354 1_455 S
C2117 C2118 1.381 . S
C2118 H2102 0.931 . S
C2118 C2112 1.383 . S
C2118 C2117 1.381 . S
H2119 C2113 0.959 . S
H2120 C2113 0.961 . S
H2121 C2113 0.960 . S
H2122 C2114 0.930 . S
H2123 C2115 0.929 . S
H2124 C2132 0.929 . S
H2125 C2134 0.930 . S
H2126 C2136 0.930 . S
H2127 C2139 0.929 . S
H2128 C2142 0.930 . S
H2129 C2144 0.960 . S
H2130 C2144 0.960 . S
H2131 C2144 0.960 . S
C2132 H2124 0.929 . S
C2132 C2133 1.377 . S
C2132 C2134 1.384 . S
C2133 C2132 1.377 . S
C2133 C2139 1.390 . S
C2134 H2125 0.930 . S
C2134 C2132 1.384 . S
C2134 C2135 1.372 . S
C2135 C2134 1.372 . S
C2135 C2136 1.400 . S
C2135 C2140 1.490 . S
C2136 H2126 0.930 . S
C2136 C2135 1.400 . S
C2136 C2139 1.386 . S
H2137 C2153 0.930 . S
H2138 C2154 0.931 . S
C2139 H2127 0.929 . S
C2139 C2133 1.390 . S
C2139 C2136 1.386 . S
C2140 C2135 1.490 . S
C2140 C2142 1.395 . S
C2140 C2143 1.403 . S
H2141 C2147 0.930 . S
C2142 H2128 0.930 . S
C2142 C2140 1.395 . S
C2142 C2145 1.403 . S
C2143 C2140 1.403 . S
C2143 C2144 1.524 . S
C2143 C2147 1.400 . S
C2144 H2129 0.960 . S
C2144 H2130 0.960 . S
C2144 H2131 0.960 . S
C2144 C2143 1.524 . S
C2145 C2142 1.403 . S
C2145 C2146 1.392 . S
C2145 C2149 1.495 . S
C2146 C2145 1.392 . S
C2146 C2147 1.385 . S
C2146 C2148 1.478 . S
C2147 H2141 0.930 . S
C2147 C2143 1.400 . S
C2147 C2146 1.385 . S
C2148 C2146 1.478 . S
C2148 C2150 1.381 . S
C2148 C2154 1.383 . S
C2149 C2145 1.495 . S
C2149 H2155 0.959 . S
C2149 H2156 0.961 . S
C2149 H2157 0.960 . S
C2150 C2148 1.381 . S
C2150 C2151 1.394 . S
C2150 H2158 0.930 . S
C2151 C2150 1.394 . S
C2151 C2152 1.383 . S
C2151 H2159 0.929 . S
C2152 C2151 1.383 . S
C2152 C2153 1.377 . S
C2153 H2137 0.930 . S
C2153 C2152 1.377 . S
C2153 C2154 1.379 . S
C2154 H2138 0.931 . S
C2154 C2148 1.383 . S
C2154 C2153 1.379 . S
H2155 C2149 0.959 . S
H2156 C2149 0.961 . S
H2157 C2149 0.960 . S
H2158 C2150 0.930 . S
H2159 C2151 0.929 . S
H2160 C2168 0.929 . S
H2161 C2170 0.930 . S
H2162 C2172 0.930 . S
H2163 C2175 0.929 . S
H2164 C2178 0.930 . S
H2165 C2180 0.960 . S
H2166 C2180 0.960 . S
H2167 C2180 0.960 . S
C2168 H2160 0.929 . S
C2168 C2169 1.377 . S
C2168 C2170 1.384 1_565 S
C2169 C2168 1.377 . S
C2169 C2175 1.390 . S
C2170 H2161 0.930 . S
C2170 C2168 1.384 1_545 S
C2170 C2171 1.372 . S
C2171 C2170 1.372 . S
C2171 C2172 1.400 1_545 S
C2171 C2176 1.490 . S
C2172 H2162 0.930 . S
C2172 C2171 1.400 1_565 S
C2172 C2175 1.386 . S
H2173 C2189 0.930 . S
H2174 C2190 0.931 . S
C2175 H2163 0.929 . S
C2175 C2169 1.390 . S
C2175 C2172 1.386 . S
C2176 C2171 1.490 . S
C2176 C2178 1.395 . S
C2176 C2179 1.403 . S
H2177 C2183 0.930 . S
C2178 H2164 0.930 . S
C2178 C2176 1.395 . S
C2178 C2181 1.403 . S
C2179 C2176 1.403 . S
C2179 C2180 1.524 . S
C2179 C2183 1.400 . S
C2180 H2165 0.960 . S
C2180 H2166 0.960 . S
C2180 H2167 0.960 . S
C2180 C2179 1.524 . S
C2181 C2178 1.403 . S
C2181 C2182 1.392 . S
C2181 C2185 1.495 . S
C2182 C2181 1.392 . S
C2182 C2183 1.385 . S
C2182 C2184 1.478 . S
C2183 H2177 0.930 . S
C2183 C2179 1.400 . S
C2183 C2182 1.385 . S
C2184 C2182 1.478 . S
C2184 C2186 1.381 . S
C2184 C2190 1.383 . S
C2185 C2181 1.495 . S
C2185 H2191 0.959 . S
C2185 H2192 0.961 . S
C2185 H2193 0.960 . S
C2186 C2184 1.381 . S
C2186 C2187 1.394 . S
C2186 H2194 0.930 . S
C2187 C2186 1.394 . S
C2187 C2188 1.383 . S
C2187 H2195 0.929 . S
C2188 C2187 1.383 . S
C2188 C2189 1.377 . S
C2189 H2173 0.930 . S
C2189 C2188 1.377 . S
C2189 C2190 1.379 . S
C2190 H2174 0.931 . S
C2190 C2184 1.383 . S
C2190 C2189 1.379 . S
H2191 C2185 0.959 . S
H2192 C2185 0.961 . S
H2193 C2185 0.960 . S
H2194 C2186 0.930 . S
H2195 C2187 0.929 . S
H2196 C2204 0.929 . S
H2197 C2206 0.930 . S
H2198 C2208 0.930 . S
H2199 C2211 0.929 . S
H2200 C2214 0.930 . S
H2201 C2216 0.960 1_455 S
H2202 C2216 0.960 . S
H2203 C2216 0.960 . S
C2204 H2196 0.929 . S
C2204 C2205 1.377 . S
C2204 C2206 1.384 . S
C2205 C2204 1.377 . S
C2205 C2211 1.390 . S
C2206 H2197 0.930 . S
C2206 C2204 1.384 . S
C2206 C2207 1.372 . S
C2207 C2206 1.372 . S
C2207 C2208 1.400 . S
C2207 C2212 1.490 . S
C2208 H2198 0.930 . S
C2208 C2207 1.400 . S
C2208 C2211 1.386 . S
H2209 C2225 0.930 . S
H2210 C2226 0.932 . S
C2211 H2199 0.929 . S
C2211 C2205 1.390 . S
C2211 C2208 1.386 . S
C2212 C2207 1.490 . S
C2212 C2214 1.395 . S
C2212 C2215 1.403 . S
H2213 C2219 0.930 1_455 S
C2214 H2200 0.930 . S
C2214 C2212 1.395 . S
C2214 C2217 1.403 . S
C2215 C2212 1.403 . S
C2215 C2216 1.524 . S
C2215 C2219 1.400 . S
C2216 H2201 0.960 1_655 S
C2216 H2202 0.960 . S
C2216 H2203 0.960 . S
C2216 C2215 1.524 . S
C2217 C2214 1.403 . S
C2217 C2218 1.392 . S
C2217 C2221 1.495 . S
C2218 C2217 1.392 . S
C2218 C2219 1.385 . S
C2218 C2220 1.478 . S
C2219 H2213 0.930 1_655 S
C2219 C2215 1.400 . S
C2219 C2218 1.385 . S
C2220 C2218 1.478 . S
C2220 C2222 1.381 . S
C2220 C2226 1.383 . S
C2221 C2217 1.495 . S
C2221 H2227 0.959 . S
C2221 H2228 0.961 . S
C2221 H2229 0.960 . S
C2222 C2220 1.381 . S
C2222 C2223 1.394 1_655 S
C2222 H2230 0.930 . S
C2223 C2222 1.394 1_455 S
C2223 C2224 1.383 . S
C2223 H2231 0.929 . S
C2224 C2223 1.383 . S
C2224 C2225 1.377 . S
C2225 H2209 0.930 . S
C2225 C2224 1.377 . S
C2225 C2226 1.378 1_455 S
C2226 H2210 0.932 . S
C2226 C2220 1.383 . S
C2226 C2225 1.378 1_655 S
H2227 C2221 0.959 . S
H2228 C2221 0.961 . S
H2229 C2221 0.960 . S
H2230 C2222 0.930 . S
H2231 C2223 0.929 . S
H2232 C2240 0.929 . S
H2233 C2242 0.930 . S
H2234 C2244 0.930 . S
H2235 C2247 0.929 . S
H2236 C2250 0.930 . S
H2237 C2252 0.960 . S
H2238 C2252 0.960 . S
H2239 C2252 0.960 . S
C2240 H2232 0.929 . S
C2240 C2241 1.377 . S
C2240 C2242 1.384 . S
C2241 C2240 1.377 . S
C2241 C2247 1.390 . S
C2242 H2233 0.930 . S
C2242 C2240 1.384 . S
C2242 C2243 1.372 . S
C2243 C2242 1.372 . S
C2243 C2244 1.400 . S
C2243 C2248 1.490 . S
C2244 H2234 0.930 . S
C2244 C2243 1.400 . S
C2244 C2247 1.386 . S
H2245 C2261 0.930 . S
H2246 C2262 0.931 . S
C2247 H2235 0.929 . S
C2247 C2241 1.390 . S
C2247 C2244 1.386 . S
C2248 C2243 1.490 . S
C2248 C2250 1.395 . S
C2248 C2251 1.403 . S
H2249 C2255 0.930 . S
C2250 H2236 0.930 . S
C2250 C2248 1.395 . S
C2250 C2253 1.403 . S
C2251 C2248 1.403 . S
C2251 C2252 1.524 . S
C2251 C2255 1.400 . S
C2252 H2237 0.960 . S
C2252 H2238 0.960 . S
C2252 H2239 0.960 . S
C2252 C2251 1.524 . S
C2253 C2250 1.403 . S
C2253 C2254 1.392 . S
C2253 C2257 1.495 . S
C2254 C2253 1.392 . S
C2254 C2255 1.385 . S
C2254 C2256 1.478 . S
C2255 H2249 0.930 . S
C2255 C2251 1.400 . S
C2255 C2254 1.385 . S
C2256 C2254 1.478 . S
C2256 C2258 1.381 . S
C2256 C2262 1.383 . S
C2257 C2253 1.495 . S
C2257 H2263 0.959 . S
C2257 H2264 0.961 . S
C2257 H2265 0.960 . S
C2258 C2256 1.381 . S
C2258 C2259 1.394 . S
C2258 H2266 0.930 . S
C2259 C2258 1.394 . S
C2259 C2260 1.383 . S
C2259 H2267 0.929 . S
C2260 C2259 1.383 . S
C2260 C2261 1.377 . S
C2261 H2245 0.930 . S
C2261 C2260 1.377 . S
C2261 C2262 1.379 . S
C2262 H2246 0.931 . S
C2262 C2256 1.383 . S
C2262 C2261 1.379 . S
H2263 C2257 0.959 . S
H2264 C2257 0.961 . S
H2265 C2257 0.960 . S
H2266 C2258 0.930 . S
H2267 C2259 0.929 . S
H2268 C2276 0.929 . S
H2269 C2278 0.930 . S
H2270 C2280 0.930 . S
H2271 C2283 0.929 . S
H2272 C2286 0.930 . S
H2273 C2288 0.960 1_565 S
H2274 C2288 0.960 . S
H2275 C2288 0.960 . S
C2276 H2268 0.929 . S
C2276 C2277 1.377 . S
C2276 C2278 1.384 . S
C2277 C2276 1.377 . S
C2277 C2283 1.390 . S
C2278 H2269 0.930 . S
C2278 C2276 1.384 . S
C2278 C2279 1.372 . S
C2279 C2278 1.372 . S
C2279 C2280 1.400 . S
C2279 C2284 1.490 . S
C2280 H2270 0.930 . S
C2280 C2279 1.400 . S
C2280 C2283 1.386 . S
H2281 C2297 0.930 . S
H2282 C2298 0.931 . S
C2283 H2271 0.929 . S
C2283 C2277 1.390 . S
C2283 C2280 1.386 . S
C2284 C2279 1.490 . S
C2284 C2286 1.395 . S
C2284 C2287 1.403 . S
H2285 C2291 0.930 1_565 S
C2286 H2272 0.930 . S
C2286 C2284 1.395 . S
C2286 C2289 1.403 . S
C2287 C2284 1.403 . S
C2287 C2288 1.524 . S
C2287 C2291 1.400 . S
C2288 H2273 0.960 1_545 S
C2288 H2274 0.960 . S
C2288 H2275 0.960 . S
C2288 C2287 1.524 . S
C2289 C2286 1.403 . S
C2289 C2290 1.392 . S
C2289 C2293 1.495 . S
C2290 C2289 1.392 . S
C2290 C2291 1.385 . S
C2290 C2292 1.478 . S
C2291 H2285 0.930 1_545 S
C2291 C2287 1.400 . S
C2291 C2290 1.385 . S
C2292 C2290 1.478 . S
C2292 C2294 1.381 . S
C2292 C2298 1.383 1_545 S
C2293 C2289 1.495 . S
C2293 H2299 0.959 . S
C2293 H2300 0.961 . S
C2293 H2301 0.960 . S
C2294 C2292 1.381 . S
C2294 C2295 1.394 1_545 S
C2294 H2302 0.930 . S
C2295 C2294 1.394 1_565 S
C2295 C2296 1.383 . S
C2295 H2303 0.929 . S
C2296 C2295 1.383 . S
C2296 C2297 1.377 . S
C2297 H2281 0.930 . S
C2297 C2296 1.377 . S
C2297 C2298 1.379 . S
C2298 H2282 0.931 . S
C2298 C2292 1.383 1_565 S
C2298 C2297 1.379 . S
H2299 C2293 0.959 . S
H2300 C2293 0.961 . S
H2301 C2293 0.960 . S
H2302 C2294 0.930 . S
H2303 C2295 0.929 . S
H2304 C2312 0.929 . S
H2305 C2314 0.930 . S
H2306 C2316 0.930 . S
H2307 C2319 0.929 . S
H2308 C2322 0.930 . S
H2309 C2324 0.960 . S
H2310 C2324 0.960 . S
H2311 C2324 0.960 . S
C2312 H2304 0.929 . S
C2312 C2313 1.377 . S
C2312 C2314 1.384 . S
C2313 C2312 1.377 . S
C2313 C2319 1.390 . S
C2314 H2305 0.930 . S
C2314 C2312 1.384 . S
C2314 C2315 1.372 . S
C2315 C2314 1.372 . S
C2315 C2316 1.400 . S
C2315 C2320 1.490 . S
C2316 H2306 0.930 . S
C2316 C2315 1.400 . S
C2316 C2319 1.386 . S
H2317 C2333 0.930 . S
H2318 C2334 0.931 . S
C2319 H2307 0.929 . S
C2319 C2313 1.390 . S
C2319 C2316 1.386 . S
C2320 C2315 1.490 . S
C2320 C2322 1.395 . S
C2320 C2323 1.403 . S
H2321 C2327 0.930 . S
C2322 H2308 0.930 . S
C2322 C2320 1.395 . S
C2322 C2325 1.403 . S
C2323 C2320 1.403 . S
C2323 C2324 1.524 . S
C2323 C2327 1.400 . S
C2324 H2309 0.960 . S
C2324 H2310 0.960 . S
C2324 H2311 0.960 . S
C2324 C2323 1.524 . S
C2325 C2322 1.403 . S
C2325 C2326 1.392 . S
C2325 C2329 1.477 1_655 S
C2326 C2325 1.392 . S
C2326 C2327 1.385 . S
C2326 C2328 1.478 . S
C2327 H2321 0.930 . S
C2327 C2323 1.400 . S
C2327 C2326 1.385 . S
C2328 C2326 1.478 . S
C2328 C2330 1.381 . S
C2328 C2334 1.383 1_655 S
C2329 C2325 1.477 1_455 S
C2329 H2335 0.971 1_455 S
C2329 H2336 0.985 . S
C2329 H2337 0.943 1_455 S
C2330 C2328 1.381 . S
C2330 C2331 1.394 1_655 S
C2330 H2338 0.930 . S
C2331 C2330 1.394 1_455 S
C2331 C2332 1.383 . S
C2331 H2339 0.929 . S
C2332 C2331 1.383 . S
C2332 C2333 1.377 . S
C2333 H2317 0.930 . S
C2333 C2332 1.377 . S
C2333 C2334 1.379 . S
C2334 H2318 0.931 . S
C2334 C2328 1.383 1_455 S
C2334 C2333 1.379 . S
H2335 C2329 0.971 1_655 S
H2336 C2329 0.985 . S
H2337 C2329 0.943 1_655 S
H2338 C2330 0.930 . S
H2339 C2331 0.929 . S
H2340 C2348 0.929 . S
H2341 C2350 0.930 . S
H2342 C2352 0.930 . S
H2343 C2355 0.929 . S
H2344 C2358 0.930 . S
H2345 C2360 0.960 . S
H2346 C2360 0.960 . S
H2347 C2360 0.960 . S
C2348 H2340 0.929 . S
C2348 C2349 1.377 . S
C2348 C2350 1.384 . S
C2349 C2348 1.377 . S
C2349 C2355 1.390 . S
C2350 H2341 0.930 . S
C2350 C2348 1.384 . S
C2350 C2351 1.372 . S
C2351 C2350 1.372 . S
C2351 C2352 1.400 . S
C2351 C2356 1.490 . S
C2352 H2342 0.930 . S
C2352 C2351 1.400 . S
C2352 C2355 1.386 . S
H2353 C2369 0.930 . S
H2354 C2370 0.931 . S
C2355 H2343 0.929 . S
C2355 C2349 1.390 . S
C2355 C2352 1.386 . S
C2356 C2351 1.490 . S
C2356 C2358 1.395 . S
C2356 C2359 1.403 . S
H2357 C2363 0.930 . S
C2358 H2344 0.930 . S
C2358 C2356 1.395 . S
C2358 C2361 1.403 . S
C2359 C2356 1.403 . S
C2359 C2360 1.524 . S
C2359 C2363 1.400 . S
C2360 H2345 0.960 . S
C2360 H2346 0.960 . S
C2360 H2347 0.960 . S
C2360 C2359 1.524 . S
C2361 C2358 1.403 . S
C2361 C2362 1.392 . S
C2361 C2365 1.495 . S
C2362 C2361 1.392 . S
C2362 C2363 1.385 . S
C2362 C2364 1.478 . S
C2363 H2357 0.930 . S
C2363 C2359 1.400 . S
C2363 C2362 1.385 . S
C2364 C2362 1.478 . S
C2364 C2366 1.381 . S
C2364 C2370 1.383 . S
C2365 C2361 1.495 . S
C2365 H2371 0.959 . S
C2365 H2372 0.961 . S
C2365 H2373 0.960 . S
C2366 C2364 1.381 . S
C2366 C2367 1.394 . S
C2366 H2374 0.930 . S
C2367 C2366 1.394 . S
C2367 C2368 1.383 . S
C2367 H2375 0.929 . S
C2368 C2367 1.383 . S
C2368 C2369 1.377 . S
C2369 H2353 0.930 . S
C2369 C2368 1.377 . S
C2369 C2370 1.379 . S
C2370 H2354 0.931 . S
C2370 C2364 1.383 . S
C2370 C2369 1.379 . S
H2371 C2365 0.959 . S
H2372 C2365 0.961 . S
H2373 C2365 0.960 . S
H2374 C2366 0.930 . S
H2375 C2367 0.929 . S
H2376 C2384 0.929 . S
H2377 C2386 0.930 . S
H2378 C2388 0.930 . S
H2379 C2391 0.929 . S
H2380 C2394 0.930 . S
H2381 C2396 0.960 . S
H2382 C2396 0.960 . S
H2383 C2396 0.960 . S
C2384 H2376 0.929 . S
C2384 C2385 1.377 . S
C2384 C2386 1.384 . S
C2385 C2384 1.377 . S
C2385 C2391 1.390 1_545 S
C2386 H2377 0.930 . S
C2386 C2384 1.384 . S
C2386 C2387 1.372 1_545 S
C2387 C2386 1.372 1_565 S
C2387 C2388 1.400 . S
C2387 C2392 1.490 . S
C2388 H2378 0.930 . S
C2388 C2387 1.400 . S
C2388 C2391 1.386 . S
H2389 C2405 0.930 . S
H2390 C2406 0.931 . S
C2391 H2379 0.929 . S
C2391 C2385 1.390 1_565 S
C2391 C2388 1.386 . S
C2392 C2387 1.490 . S
C2392 C2394 1.395 . S
C2392 C2395 1.403 . S
H2393 C2399 0.930 . S
C2394 H2380 0.930 . S
C2394 C2392 1.395 . S
C2394 C2397 1.403 . S
C2395 C2392 1.403 . S
C2395 C2396 1.524 . S
C2395 C2399 1.400 . S
C2396 H2381 0.960 . S
C2396 H2382 0.960 . S
C2396 H2383 0.960 . S
C2396 C2395 1.524 . S
C2397 C2394 1.403 . S
C2397 C2398 1.392 . S
C2397 C2401 1.495 . S
C2398 C2397 1.392 . S
C2398 C2399 1.385 . S
C2398 C2400 1.478 . S
C2399 H2393 0.930 . S
C2399 C2395 1.400 . S
C2399 C2398 1.385 . S
C2400 C2398 1.478 . S
C2400 C2402 1.381 . S
C2400 C2406 1.383 . S
C2401 C2397 1.495 . S
C2401 H2407 0.959 . S
C2401 H2408 0.961 . S
C2401 H2409 0.960 . S
C2402 C2400 1.381 . S
C2402 C2403 1.394 . S
C2402 H2410 0.930 . S
C2403 C2402 1.394 . S
C2403 C2404 1.383 . S
C2403 H2411 0.929 . S
C2404 C2403 1.383 . S
C2404 C2405 1.377 . S
C2405 H2389 0.930 . S
C2405 C2404 1.377 . S
C2405 C2406 1.379 . S
C2406 H2390 0.931 . S
C2406 C2400 1.383 . S
C2406 C2405 1.379 . S
H2407 C2401 0.959 . S
H2408 C2401 0.961 . S
H2409 C2401 0.960 . S
H2410 C2402 0.930 . S
H2411 C2403 0.929 . S
H2412 C2420 0.929 . S
H2413 C2422 0.930 . S
H2414 C2424 0.930 . S
H2415 C2427 0.929 . S
H2416 C2430 0.930 . S
H2417 C2432 0.960 . S
H2418 C2432 0.960 . S
H2419 C2432 0.960 . S
C2420 H2412 0.929 . S
C2420 C2421 1.377 . S
C2420 C2422 1.384 1_655 S
C2421 C2420 1.377 . S
C2421 C2427 1.390 . S
C2422 H2413 0.930 . S
C2422 C2420 1.384 1_455 S
C2422 C2423 1.372 . S
C2423 C2422 1.372 . S
C2423 C2424 1.400 1_455 S
C2423 C2428 1.490 . S
C2424 H2414 0.930 . S
C2424 C2423 1.400 1_655 S
C2424 C2427 1.386 . S
H2425 C2441 0.930 . S
H2426 C2442 0.931 . S
C2427 H2415 0.929 . S
C2427 C2421 1.390 . S
C2427 C2424 1.386 . S
C2428 C2423 1.490 . S
C2428 C2430 1.395 . S
C2428 C2431 1.403 . S
H2429 C2435 0.930 . S
C2430 H2416 0.930 . S
C2430 C2428 1.395 . S
C2430 C2433 1.403 . S
C2431 C2428 1.403 . S
C2431 C2432 1.524 . S
C2431 C2435 1.400 . S
C2432 H2417 0.960 . S
C2432 H2418 0.960 . S
C2432 H2419 0.960 . S
C2432 C2431 1.524 . S
C2433 C2430 1.403 . S
C2433 C2434 1.392 . S
C2433 C2437 1.495 . S
C2434 C2433 1.392 . S
C2434 C2435 1.385 . S
C2434 C2436 1.478 . S
C2435 H2429 0.930 . S
C2435 C2431 1.400 . S
C2435 C2434 1.385 . S
C2436 C2434 1.478 . S
C2436 C2438 1.381 . S
C2436 C2442 1.383 . S
C2437 C2433 1.495 . S
C2437 H2443 0.959 . S
C2437 H2444 0.961 . S
C2437 H2445 0.960 . S
C2438 C2436 1.381 . S
C2438 C2439 1.394 . S
C2438 H2446 0.930 . S
C2439 C2438 1.394 . S
C2439 C2440 1.383 . S
C2439 H2447 0.929 . S
C2440 C2439 1.383 . S
C2440 C2441 1.377 . S
C2441 H2425 0.930 . S
C2441 C2440 1.377 . S
C2441 C2442 1.379 . S
C2442 H2426 0.931 . S
C2442 C2436 1.383 . S
C2442 C2441 1.379 . S
H2443 C2437 0.959 . S
H2444 C2437 0.961 . S
H2445 C2437 0.960 . S
H2446 C2438 0.930 . S
H2447 C2439 0.929 . S
H2448 C2456 0.929 . S
H2449 C2458 0.930 . S
H2450 C2460 0.930 . S
H2451 C2463 0.929 . S
H2452 C2466 0.930 . S
H2453 C2468 0.986 . S
H2454 C2468 0.960 . S
H2455 C2468 0.960 . S
C2456 H2448 0.929 . S
C2456 C2457 1.377 . S
C2456 C2458 1.384 . S
C2457 C2456 1.377 . S
C2457 C2463 1.390 . S
C2458 H2449 0.930 . S
C2458 C2456 1.384 . S
C2458 C2459 1.372 . S
C2459 C2458 1.372 . S
C2459 C2460 1.400 . S
C2459 C2464 1.490 . S
C2460 H2450 0.930 . S
C2460 C2459 1.400 . S
C2460 C2463 1.386 . S
H2461 C2477 0.930 . S
H2462 C2478 0.931 . S
C2463 H2451 0.929 . S
C2463 C2457 1.390 . S
C2463 C2460 1.386 . S
C2464 C2459 1.490 . S
C2464 C2466 1.395 . S
C2464 C2467 1.403 . S
H2465 C2471 0.930 . S
C2466 H2452 0.930 . S
C2466 C2464 1.395 . S
C2466 C2469 1.403 1_655 S
C2467 C2464 1.403 . S
C2467 C2468 1.524 . S
C2467 C2471 1.400 1_655 S
C2468 H2453 0.986 . S
C2468 H2454 0.960 . S
C2468 H2455 0.960 . S
C2468 C2467 1.524 . S
C2469 C2466 1.403 1_455 S
C2469 C2470 1.392 . S
C2469 C2473 1.495 . S
C2470 C2469 1.392 . S
C2470 C2471 1.385 . S
C2470 C2472 1.478 . S
C2471 H2465 0.930 . S
C2471 C2467 1.400 1_455 S
C2471 C2470 1.385 . S
C2472 C2470 1.478 . S
C2472 C2474 1.381 . S
C2472 C2478 1.383 . S
C2473 C2469 1.495 . S
C2473 H2479 0.959 . S
C2473 H2480 0.961 . S
C2473 H2481 0.960 . S
C2474 C2472 1.381 . S
C2474 C2475 1.394 . S
C2474 H2482 0.930 . S
C2475 C2474 1.394 . S
C2475 C2476 1.383 . S
C2475 H2483 0.929 . S
C2476 C2475 1.383 . S
C2476 C2477 1.377 . S
C2477 H2461 0.930 . S
C2477 C2476 1.377 . S
C2477 C2478 1.379 . S
C2478 H2462 0.931 . S
C2478 C2472 1.383 . S
C2478 C2477 1.379 . S
H2479 C2473 0.959 . S
H2480 C2473 0.961 . S
H2481 C2473 0.960 . S
H2482 C2474 0.930 . S
H2483 C2475 0.929 . S
H2484 C2492 0.929 . S
H2485 C2494 0.930 . S
H2486 C2496 0.930 . S
H2487 C2499 0.929 . S
H2488 C2502 0.930 . S
H2489 C2504 0.960 . S
H2490 C2504 0.960 . S
H2491 C2504 0.960 . S
C2492 H2484 0.929 . S
C2492 C2493 1.377 . S
C2492 C2494 1.384 . S
C2493 C2492 1.377 . S
C2493 C2499 1.390 . S
C2494 H2485 0.930 . S
C2494 C2492 1.384 . S
C2494 C2495 1.372 . S
C2495 C2494 1.372 . S
C2495 C2496 1.400 . S
C2495 C2500 1.490 . S
C2496 H2486 0.930 . S
C2496 C2495 1.400 . S
C2496 C2499 1.386 . S
H2497 C2513 0.930 . S
H2498 C2514 0.931 . S
C2499 H2487 0.929 . S
C2499 C2493 1.390 . S
C2499 C2496 1.386 . S
C2500 C2495 1.490 . S
C2500 C2502 1.395 . S
C2500 C2503 1.403 . S
H2501 C2507 0.930 . S
C2502 H2488 0.930 . S
C2502 C2500 1.395 . S
C2502 C2505 1.403 . S
C2503 C2500 1.403 . S
C2503 C2504 1.524 . S
C2503 C2507 1.400 . S
C2504 H2489 0.960 . S
C2504 H2490 0.960 . S
C2504 H2491 0.960 . S
C2504 C2503 1.524 . S
C2505 C2502 1.403 . S
C2505 C2506 1.392 . S
C2505 C2509 1.495 . S
C2506 C2505 1.392 . S
C2506 C2507 1.385 . S
C2506 C2508 1.478 . S
C2507 H2501 0.930 . S
C2507 C2503 1.400 . S
C2507 C2506 1.385 . S
C2508 C2506 1.478 . S
C2508 C2510 1.381 . S
C2508 C2514 1.383 . S
C2509 C2505 1.495 . S
C2509 H2515 0.959 . S
C2509 H2516 0.961 . S
C2509 H2517 0.960 . S
C2510 C2508 1.381 . S
C2510 C2511 1.394 . S
C2510 H2518 0.930 . S
C2511 C2510 1.394 . S
C2511 C2512 1.383 . S
C2511 H2519 0.929 . S
C2512 C2511 1.383 . S
C2512 C2513 1.377 . S
C2513 H2497 0.930 . S
C2513 C2512 1.377 . S
C2513 C2514 1.379 . S
C2514 H2498 0.931 . S
C2514 C2508 1.383 . S
C2514 C2513 1.379 . S
H2515 C2509 0.959 . S
H2516 C2509 0.961 . S
H2517 C2509 0.960 . S
H2518 C2510 0.930 . S
H2519 C2511 0.929 . S
H2520 C2528 0.929 . S
H2521 C2530 0.930 . S
H2522 C2532 0.930 . S
H2523 C2535 0.929 . S
H2524 C2538 0.930 . S
H2525 C2540 0.960 . S
H2526 C2540 0.960 . S
H2527 C2540 0.960 . S
C2528 H2520 0.929 . S
C2528 C2529 1.377 . S
C2528 C2530 1.384 . S
C2529 C2528 1.377 . S
C2529 C2535 1.390 . S
C2530 H2521 0.930 . S
C2530 C2528 1.384 . S
C2530 C2531 1.372 . S
C2531 C2530 1.372 . S
C2531 C2532 1.400 . S
C2531 C2536 1.490 . S
C2532 H2522 0.930 . S
C2532 C2531 1.400 . S
C2532 C2535 1.386 . S
H2533 C2549 0.930 . S
H2534 C2550 0.931 . S
C2535 H2523 0.929 . S
C2535 C2529 1.390 . S
C2535 C2532 1.386 . S
C2536 C2531 1.490 . S
C2536 C2538 1.395 . S
C2536 C2539 1.403 . S
H2537 C2543 0.930 . S
C2538 H2524 0.930 . S
C2538 C2536 1.395 . S
C2538 C2541 1.403 1_565 S
C2539 C2536 1.403 . S
C2539 C2540 1.524 . S
C2539 C2543 1.400 1_565 S
C2540 H2525 0.960 . S
C2540 H2526 0.960 . S
C2540 H2527 0.960 . S
C2540 C2539 1.524 . S
C2541 C2538 1.403 1_545 S
C2541 C2542 1.392 . S
C2541 C2545 1.495 . S
C2542 C2541 1.392 . S
C2542 C2543 1.385 . S
C2542 C2544 1.478 . S
C2543 H2537 0.930 . S
C2543 C2539 1.400 1_545 S
C2543 C2542 1.385 . S
C2544 C2542 1.478 . S
C2544 C2546 1.381 . S
C2544 C2550 1.383 . S
C2545 C2541 1.495 . S
C2545 H2551 0.959 . S
C2545 H2552 0.961 . S
C2545 H2553 0.960 . S
C2546 C2544 1.381 . S
C2546 C2547 1.394 . S
C2546 H2554 0.930 . S
C2547 C2546 1.394 . S
C2547 C2548 1.383 . S
C2547 H2555 0.929 . S
C2548 C2547 1.383 . S
C2548 C2549 1.377 . S
C2549 H2533 0.930 . S
C2549 C2548 1.377 . S
C2549 C2550 1.379 . S
C2550 H2534 0.931 . S
C2550 C2544 1.383 . S
C2550 C2549 1.379 . S
H2551 C2545 0.959 . S
H2552 C2545 0.961 . S
H2553 C2545 0.960 . S
H2554 C2546 0.930 . S
H2555 C2547 0.929 . S
H2556 C2564 0.929 . S
H2557 C2566 0.930 . S
H2558 C2568 0.930 . S
H2559 C2571 0.929 . S
H2560 C2574 0.930 . S
H2561 C2576 0.960 1_655 S
H2562 C2576 0.960 . S
H2563 C2576 0.960 . S
C2564 H2556 0.929 . S
C2564 C2565 1.377 . S
C2564 C2566 1.384 . S
C2565 C2564 1.377 . S
C2565 C2571 1.390 . S
C2566 H2557 0.930 . S
C2566 C2564 1.384 . S
C2566 C2567 1.372 . S
C2567 C2566 1.372 . S
C2567 C2568 1.400 . S
C2567 C2572 1.490 . S
C2568 H2558 0.930 . S
C2568 C2567 1.400 . S
C2568 C2571 1.386 . S
H2569 C2585 0.930 . S
H2570 C2586 0.931 . S
C2571 H2559 0.929 . S
C2571 C2565 1.390 . S
C2571 C2568 1.386 . S
C2572 C2567 1.490 . S
C2572 C2574 1.395 . S
C2572 C2575 1.403 . S
H2573 C2579 0.930 . S
C2574 H2560 0.930 . S
C2574 C2572 1.395 . S
C2574 C2577 1.403 . S
C2575 C2572 1.403 . S
C2575 C2576 1.524 . S
C2575 C2579 1.400 . S
C2576 H2561 0.960 1_455 S
C2576 H2562 0.960 . S
C2576 H2563 0.960 . S
C2576 C2575 1.524 . S
C2577 C2574 1.403 . S
C2577 C2578 1.392 . S
C2577 C2581 1.495 . S
C2578 C2577 1.392 . S
C2578 C2579 1.385 . S
C2578 C2580 1.478 . S
C2579 H2573 0.930 . S
C2579 C2575 1.400 . S
C2579 C2578 1.385 . S
C2580 C2578 1.478 . S
C2580 C2582 1.381 . S
C2580 C2586 1.383 . S
C2581 C2577 1.495 . S
C2581 H2587 0.959 . S
C2581 H2588 0.961 . S
C2581 H2589 0.960 . S
C2582 C2580 1.381 . S
C2582 C2583 1.394 . S
C2582 H2590 0.930 . S
C2583 C2582 1.394 . S
C2583 C2584 1.383 1_455 S
C2583 H2591 0.929 . S
C2584 C2583 1.383 1_655 S
C2584 C2585 1.377 . S
C2585 H2569 0.930 . S
C2585 C2584 1.377 . S
C2585 C2586 1.379 1_655 S
C2586 H2570 0.931 . S
C2586 C2580 1.383 . S
C2586 C2585 1.379 1_455 S
H2587 C2581 0.959 . S
H2588 C2581 0.961 . S
H2589 C2581 0.960 . S
H2590 C2582 0.930 . S
H2591 C2583 0.929 . S
H2592 C2600 0.929 . S
H2593 C2602 0.930 . S
H2594 C2604 0.930 . S
H2595 C2607 0.929 . S
H2596 C2610 0.930 . S
H2597 C2612 0.960 . S
H2598 C2612 0.960 . S
H2599 C2612 0.960 . S
C2600 H2592 0.929 . S
C2600 C2601 1.377 . S
C2600 C2602 1.384 . S
C2601 C2600 1.377 . S
C2601 C2607 1.390 . S
C2602 H2593 0.930 . S
C2602 C2600 1.384 . S
C2602 C2603 1.372 . S
C2603 C2602 1.372 . S
C2603 C2604 1.400 . S
C2603 C2608 1.490 . S
C2604 H2594 0.930 . S
C2604 C2603 1.400 . S
C2604 C2607 1.386 . S
H2605 C2621 0.930 . S
H2606 C2622 0.931 . S
C2607 H2595 0.929 . S
C2607 C2601 1.390 . S
C2607 C2604 1.386 . S
C2608 C2603 1.490 . S
C2608 C2610 1.395 . S
C2608 C2611 1.403 . S
H2609 C2615 0.930 . S
C2610 H2596 0.930 . S
C2610 C2608 1.395 . S
C2610 C2613 1.403 . S
C2611 C2608 1.403 . S
C2611 C2612 1.524 . S
C2611 C2615 1.400 . S
C2612 H2597 0.960 . S
C2612 H2598 0.960 . S
C2612 H2599 0.960 . S
C2612 C2611 1.524 . S
C2613 C2610 1.403 . S
C2613 C2614 1.392 . S
C2613 C2617 1.495 . S
C2614 C2613 1.392 . S
C2614 C2615 1.385 . S
C2614 C2616 1.478 . S
C2615 H2609 0.930 . S
C2615 C2611 1.400 . S
C2615 C2614 1.385 . S
C2616 C2614 1.478 . S
C2616 C2618 1.381 . S
C2616 C2622 1.383 . S
C2617 C2613 1.495 . S
C2617 H2623 0.959 . S
C2617 H2624 0.961 . S
C2617 H2625 0.960 . S
C2618 C2616 1.381 . S
C2618 C2619 1.394 . S
C2618 H2626 0.930 . S
C2619 C2618 1.394 . S
C2619 C2620 1.383 . S
C2619 H2627 0.929 . S
C2620 C2619 1.383 . S
C2620 C2621 1.377 . S
C2621 H2605 0.930 . S
C2621 C2620 1.377 . S
C2621 C2622 1.379 . S
C2622 H2606 0.931 . S
C2622 C2616 1.383 . S
C2622 C2621 1.379 . S
H2623 C2617 0.959 . S
H2624 C2617 0.961 . S
H2625 C2617 0.960 . S
H2626 C2618 0.930 . S
H2627 C2619 0.929 . S
H2628 C2636 0.929 . S
H2629 C2638 0.930 . S
H2630 C2640 0.930 . S
H2631 C2643 0.929 . S
H2632 C2646 0.930 . S
H2633 C2648 0.960 1_545 S
H2634 C2648 0.960 . S
H2635 C2648 0.960 . S
C2636 H2628 0.929 . S
C2636 C2637 1.377 . S
C2636 C2638 1.384 . S
C2637 C2636 1.377 . S
C2637 C2643 1.390 . S
C2638 H2629 0.930 . S
C2638 C2636 1.384 . S
C2638 C2639 1.372 . S
C2639 C2638 1.372 . S
C2639 C2640 1.400 . S
C2639 C2644 1.490 . S
C2640 H2630 0.930 . S
C2640 C2639 1.400 . S
C2640 C2643 1.386 . S
H2641 C2657 0.930 1_545 S
H2642 C2658 0.931 . S
C2643 H2631 0.929 . S
C2643 C2637 1.390 . S
C2643 C2640 1.386 . S
C2644 C2639 1.490 . S
C2644 C2646 1.395 . S
C2644 C2647 1.403 . S
H2645 C2651 0.930 . S
C2646 H2632 0.930 . S
C2646 C2644 1.395 . S
C2646 C2649 1.403 . S
C2647 C2644 1.403 . S
C2647 C2648 1.524 . S
C2647 C2651 1.400 . S
C2648 H2633 0.960 1_565 S
C2648 H2634 0.960 . S
C2648 H2635 0.960 . S
C2648 C2647 1.524 . S
C2649 C2646 1.403 . S
C2649 C2650 1.392 . S
C2649 C2653 1.495 . S
C2650 C2649 1.392 . S
C2650 C2651 1.385 . S
C2650 C2652 1.478 . S
C2651 H2645 0.930 . S
C2651 C2647 1.400 . S
C2651 C2650 1.385 . S
C2652 C2650 1.478 . S
C2652 C2654 1.381 . S
C2652 C2658 1.383 . S
C2653 C2649 1.495 . S
C2653 H2659 0.959 . S
C2653 H2660 0.961 . S
C2653 H2661 0.960 . S
C2654 C2652 1.381 . S
C2654 C2655 1.394 . S
C2654 H2662 0.930 . S
C2655 C2654 1.394 . S
C2655 C2656 1.383 1_565 S
C2655 H2663 0.935 . S
C2656 C2655 1.383 1_545 S
C2656 C2657 1.377 1_545 S
C2657 H2641 0.930 1_565 S
C2657 C2656 1.377 1_565 S
C2657 C2658 1.379 . S
C2658 H2642 0.931 . S
C2658 C2652 1.383 . S
C2658 C2657 1.379 . S
H2659 C2653 0.959 . S
H2660 C2653 0.961 . S
H2661 C2653 0.960 . S
H2662 C2654 0.930 . S
H2663 C2655 0.935 . S
H2664 C2672 0.929 . S
H2665 C2674 0.930 . S
H2666 C2676 0.930 . S
H2667 C2679 0.929 . S
H2668 C2682 0.930 . S
H2669 C2684 0.960 . S
H2670 C2684 0.960 . S
H2671 C2684 0.960 . S
C2672 H2664 0.929 . S
C2672 C2673 1.377 . S
C2672 C2674 1.384 . S
C2673 C2672 1.377 . S
C2673 C2679 1.390 . S
C2674 H2665 0.930 . S
C2674 C2672 1.384 . S
C2674 C2675 1.372 . S
C2675 C2674 1.372 . S
C2675 C2676 1.400 . S
C2675 C2680 1.490 . S
C2676 H2666 0.930 . S
C2676 C2675 1.400 . S
C2676 C2679 1.386 . S
H2677 C2693 0.930 . S
H2678 C2694 0.931 . S
C2679 H2667 0.929 . S
C2679 C2673 1.390 . S
C2679 C2676 1.386 . S
C2680 C2675 1.490 . S
C2680 C2682 1.395 . S
C2680 C2683 1.403 . S
H2681 C2687 0.930 . S
C2682 H2668 0.930 . S
C2682 C2680 1.395 . S
C2682 C2685 1.403 . S
C2683 C2680 1.403 . S
C2683 C2684 1.524 . S
C2683 C2687 1.400 . S
C2684 H2669 0.960 . S
C2684 H2670 0.960 . S
C2684 H2671 0.960 . S
C2684 C2683 1.524 . S
C2685 C2682 1.403 . S
C2685 C2686 1.392 . S
C2685 C2689 1.495 1_565 S
C2686 C2685 1.392 . S
C2686 C2687 1.385 . S
C2686 C2688 1.478 . S
C2687 H2681 0.930 . S
C2687 C2683 1.400 . S
C2687 C2686 1.385 . S
C2688 C2686 1.478 . S
C2688 C2690 1.381 1_565 S
C2688 C2694 1.383 . S
C2689 C2685 1.495 1_545 S
C2689 H2695 0.959 . S
C2689 H2696 0.961 . S
C2689 H2697 0.960 . S
C2690 C2688 1.381 1_545 S
C2690 C2691 1.394 . S
C2690 H2698 0.930 . S
C2691 C2690 1.394 . S
C2691 C2692 1.383 . S
C2691 H2699 0.929 . S
C2692 C2691 1.383 . S
C2692 C2693 1.377 1_545 S
C2693 H2677 0.930 . S
C2693 C2692 1.377 1_565 S
C2693 C2694 1.379 . S
C2694 H2678 0.931 . S
C2694 C2688 1.383 . S
C2694 C2693 1.379 . S
H2695 C2689 0.959 . S
H2696 C2689 0.961 . S
H2697 C2689 0.960 . S
H2698 C2690 0.930 . S
H2699 C2691 0.929 . S
H2700 C2708 0.929 . S
H2701 C2710 0.930 . S
H2702 C2712 0.930 . S
H2703 C2715 0.929 . S
H2704 C2718 0.930 . S
H2705 C2720 0.960 . S
H2706 C2720 0.960 . S
H2707 C2720 0.960 . S
C2708 H2700 0.929 . S
C2708 C2709 1.377 1_455 S
C2708 C2710 1.384 . S
C2709 C2708 1.377 1_655 S
C2709 C2715 1.390 . S
C2710 H2701 0.930 . S
C2710 C2708 1.384 . S
C2710 C2711 1.372 . S
C2711 C2710 1.372 . S
C2711 C2712 1.400 1_455 S
C2711 C2716 1.490 . S
C2712 H2702 0.930 . S
C2712 C2711 1.400 1_655 S
C2712 C2715 1.386 . S
H2713 C2729 0.930 . S
H2714 C2730 0.931 . S
C2715 H2703 0.929 . S
C2715 C2709 1.390 . S
C2715 C2712 1.386 . S
C2716 C2711 1.490 . S
C2716 C2718 1.395 . S
C2716 C2719 1.403 . S
H2717 C2723 0.930 . S
C2718 H2704 0.930 . S
C2718 C2716 1.395 . S
C2718 C2721 1.403 . S
C2719 C2716 1.403 . S
C2719 C2720 1.524 1_455 S
C2719 C2723 1.400 . S
C2720 H2705 0.960 . S
C2720 H2706 0.960 . S
C2720 H2707 0.960 . S
C2720 C2719 1.524 1_655 S
C2721 C2718 1.403 . S
C2721 C2722 1.392 . S
C2721 C2725 1.495 . S
C2722 C2721 1.392 . S
C2722 C2723 1.385 . S
C2722 C2724 1.478 . S
C2723 H2717 0.930 . S
C2723 C2719 1.400 . S
C2723 C2722 1.385 . S
C2724 C2722 1.478 . S
C2724 C2726 1.381 . S
C2724 C2730 1.383 . S
C2725 C2721 1.495 . S
C2725 H2731 0.959 . S
C2725 H2732 0.961 . S
C2725 H2733 0.960 . S
C2726 C2724 1.381 . S
C2726 C2727 1.394 . S
C2726 H2734 0.930 . S
C2727 C2726 1.394 . S
C2727 C2728 1.383 . S
C2727 H2735 0.929 . S
C2728 C2727 1.383 . S
C2728 C2729 1.377 . S
C2729 H2713 0.930 . S
C2729 C2728 1.377 . S
C2729 C2730 1.379 . S
C2730 H2714 0.931 . S
C2730 C2724 1.383 . S
C2730 C2729 1.379 . S
H2731 C2725 0.959 . S
H2732 C2725 0.961 . S
H2733 C2725 0.960 . S
H2734 C2726 0.930 . S
H2735 C2727 0.929 . S
H2736 C2744 0.929 . S
H2737 C2746 0.930 . S
H2738 C2748 0.930 . S
H2739 C2751 0.929 . S
H2740 C2754 0.930 . S
H2741 C2756 0.960 . S
H2742 C2756 0.960 . S
H2743 C2756 0.960 . S
C2744 H2736 0.929 . S
C2744 C2745 1.377 . S
C2744 C2746 1.384 . S
C2745 C2744 1.377 . S
C2745 C2751 1.390 . S
C2746 H2737 0.930 . S
C2746 C2744 1.384 . S
C2746 C2747 1.372 . S
C2747 C2746 1.372 . S
C2747 C2748 1.400 . S
C2747 C2752 1.490 . S
C2748 H2738 0.930 . S
C2748 C2747 1.400 . S
C2748 C2751 1.386 . S
H2749 C2765 0.930 . S
H2750 C2766 0.931 . S
C2751 H2739 0.929 . S
C2751 C2745 1.390 . S
C2751 C2748 1.386 . S
C2752 C2747 1.490 . S
C2752 C2754 1.395 . S
C2752 C2755 1.403 . S
H2753 C2759 0.930 . S
C2754 H2740 0.930 . S
C2754 C2752 1.395 . S
C2754 C2757 1.403 . S
C2755 C2752 1.403 . S
C2755 C2756 1.524 . S
C2755 C2759 1.400 . S
C2756 H2741 0.960 . S
C2756 H2742 0.960 . S
C2756 H2743 0.960 . S
C2756 C2755 1.524 . S
C2757 C2754 1.403 . S
C2757 C2758 1.392 . S
C2757 C2761 1.495 . S
C2758 C2757 1.392 . S
C2758 C2759 1.385 . S
C2758 C2760 1.478 . S
C2759 H2753 0.930 . S
C2759 C2755 1.400 . S
C2759 C2758 1.385 . S
C2760 C2758 1.478 . S
C2760 C2762 1.381 . S
C2760 C2766 1.383 . S
C2761 C2757 1.495 . S
C2761 H2767 0.959 . S
C2761 H2768 0.961 . S
C2761 H2769 0.960 . S
C2762 C2760 1.381 . S
C2762 C2763 1.394 . S
C2762 H2770 0.930 . S
C2763 C2762 1.394 . S
C2763 C2764 1.383 . S
C2763 H2771 0.929 . S
C2764 C2763 1.383 . S
C2764 C2765 1.377 . S
C2765 H2749 0.930 . S
C2765 C2764 1.377 . S
C2765 C2766 1.379 . S
C2766 H2750 0.931 . S
C2766 C2760 1.383 . S
C2766 C2765 1.379 . S
H2767 C2761 0.959 . S
H2768 C2761 0.961 . S
H2769 C2761 0.960 . S
H2770 C2762 0.930 . S
H2771 C2763 0.929 . S
H2772 C2780 0.929 . S
H2773 C2782 0.930 . S
H2774 C2784 0.930 . S
H2775 C2787 0.929 . S
H2776 C2790 0.930 . S
H2777 C2792 0.960 . S
H2778 C2792 0.960 . S
H2779 C2792 0.960 . S
C2780 H2772 0.929 . S
C2780 C2781 1.377 1_556 S
C2780 C2782 1.384 . S
C2781 C2780 1.377 1_554 S
C2781 C2787 1.390 . S
C2782 H2773 0.930 . S
C2782 C2780 1.384 . S
C2782 C2783 1.372 1_556 S
C2783 C2782 1.372 1_554 S
C2783 C2784 1.400 . S
C2783 C2788 1.489 1_554 S
C2784 H2774 0.930 . S
C2784 C2783 1.400 . S
C2784 C2787 1.386 . S
H2785 C2801 0.930 . S
H2786 C2802 0.931 . S
C2787 H2775 0.929 . S
C2787 C2781 1.390 . S
C2787 C2784 1.386 . S
C2788 C2783 1.489 1_556 S
C2788 C2790 1.403 . S
C2788 C2791 1.396 1_556 S
H2789 C2795 0.930 . S
C2790 H2776 0.930 . S
C2790 C2788 1.403 . S
C2790 C2793 1.403 1_565 S
C2791 C2788 1.396 1_554 S
C2791 C2792 1.524 . S
C2791 C2795 1.400 1_565 S
C2792 H2777 0.960 . S
C2792 H2778 0.960 . S
C2792 H2779 0.960 . S
C2792 C2791 1.524 . S
C2793 C2790 1.403 1_545 S
C2793 C2794 1.392 . S
C2793 C2797 1.495 . S
C2794 C2793 1.392 . S
C2794 C2795 1.385 1_556 S
C2794 C2796 1.478 . S
C2795 H2789 0.930 . S
C2795 C2791 1.400 1_545 S
C2795 C2794 1.385 1_554 S
C2796 C2794 1.478 . S
C2796 C2798 1.381 . S
C2796 C2802 1.383 1_556 S
C2797 C2793 1.495 . S
C2797 H2803 0.959 1_545 S
C2797 H2804 0.961 . S
C2797 H2805 0.960 . S
C2798 C2796 1.381 . S
C2798 C2799 1.394 . S
C2798 H2806 0.930 . S
C2799 C2798 1.394 . S
C2799 C2800 1.383 . S
C2799 H2807 0.929 . S
C2800 C2799 1.383 . S
C2800 C2801 1.377 1_556 S
C2801 H2785 0.930 . S
C2801 C2800 1.377 1_554 S
C2801 C2802 1.379 . S
C2802 H2786 0.931 . S
C2802 C2796 1.383 1_554 S
C2802 C2801 1.379 . S
H2803 C2797 0.959 1_565 S
H2804 C2797 0.961 . S
H2805 C2797 0.960 . S
H2806 C2798 0.930 . S
H2807 C2799 0.929 . S
H2808 C2816 0.929 . S
H2809 C2818 0.930 . S
H2810 C2820 0.930 . S
H2811 C2823 0.929 . S
H2812 C2826 0.940 . S
H2813 C2828 0.960 . S
H2814 C2828 0.960 . S
H2815 C2828 0.960 1_554 S
C2816 H2808 0.929 . S
C2816 C2817 1.377 1_556 S
C2816 C2818 1.384 . S
C2817 C2816 1.377 1_554 S
C2817 C2823 1.390 . S
C2818 H2809 0.930 . S
C2818 C2816 1.384 . S
C2818 C2819 1.319 1_556 S
C2819 C2818 1.319 1_554 S
C2819 C2820 1.460 . S
C2819 C2824 1.488 . S
C2820 H2810 0.930 . S
C2820 C2819 1.460 . S
C2820 C2823 1.386 . S
H2821 C2837 0.930 . S
H2822 C2838 0.931 . S
C2823 H2811 0.929 . S
C2823 C2817 1.390 . S
C2823 C2820 1.386 . S
C2824 C2819 1.488 . S
C2824 C2826 1.393 . S
C2824 C2827 1.402 1_554 S
H2825 C2831 0.930 . S
C2826 H2812 0.940 . S
C2826 C2824 1.393 . S
C2826 C2829 1.403 1_455 S
C2827 C2824 1.402 1_556 S
C2827 C2828 1.524 . S
C2827 C2831 1.400 1_455 S
C2828 H2813 0.960 . S
C2828 H2814 0.960 . S
C2828 H2815 0.960 1_556 S
C2828 C2827 1.524 . S
C2829 C2826 1.403 1_655 S
C2829 C2830 1.387 1_554 S
C2829 C2833 1.498 . S
C2830 C2829 1.387 1_556 S
C2830 C2831 1.392 . S
C2830 C2832 1.482 . S
C2831 H2825 0.930 . S
C2831 C2827 1.400 1_655 S
C2831 C2830 1.392 . S
C2832 C2830 1.482 . S
C2832 C2834 1.381 . S
C2832 C2838 1.383 1_556 S
C2833 C2829 1.498 . S
C2833 H2839 0.935 1_655 S
C2833 H2840 0.961 . S
C2833 H2841 0.960 1_554 S
C2834 C2832 1.381 . S
C2834 C2835 1.394 . S
C2834 H2842 0.930 . S
C2835 C2834 1.394 . S
C2835 C2836 1.383 . S
C2835 H2843 0.929 . S
C2836 C2835 1.383 . S
C2836 C2837 1.377 1_556 S
C2837 H2821 0.930 . S
C2837 C2836 1.377 1_554 S
C2837 C2838 1.379 . S
C2838 H2822 0.931 . S
C2838 C2832 1.383 1_554 S
C2838 C2837 1.379 . S
H2839 C2833 0.935 1_455 S
H2840 C2833 0.961 . S
H2841 C2833 0.960 1_556 S
H2842 C2834 0.930 . S
H2843 C2835 0.929 . S
H2844 C2852 0.929 . S
H2845 C2854 0.930 . S
H2846 C2856 0.930 . S
H2847 C2859 0.929 . S
H2848 C2862 0.930 . S
H2849 C2864 0.960 . S
H2850 C2864 0.960 . S
H2851 C2864 0.960 . S
C2852 H2844 0.929 . S
C2852 C2853 1.377 . S
C2852 C2854 1.384 . S
C2853 C2852 1.377 . S
C2853 C2859 1.390 1_556 S
C2854 H2845 0.930 . S
C2854 C2852 1.384 . S
C2854 C2855 1.372 . S
C2855 C2854 1.372 . S
C2855 C2856 1.400 1_556 S
C2855 C2860 1.490 . S
C2856 H2846 0.930 . S
C2856 C2855 1.400 1_554 S
C2856 C2859 1.386 . S
H2857 C2873 0.930 . S
H2858 C2874 0.931 . S
C2859 H2847 0.929 . S
C2859 C2853 1.390 1_554 S
C2859 C2856 1.386 . S
C2860 C2855 1.490 . S
C2860 C2862 1.395 1_556 S
C2860 C2863 1.403 . S
H2861 C2867 0.930 . S
C2862 H2848 0.930 . S
C2862 C2860 1.395 1_554 S
C2862 C2865 1.403 . S
C2863 C2860 1.403 . S
C2863 C2864 1.524 . S
C2863 C2867 1.400 . S
C2864 H2849 0.960 . S
C2864 H2850 0.960 . S
C2864 H2851 0.960 . S
C2864 C2863 1.524 . S
C2865 C2862 1.403 . S
C2865 C2866 1.413 . S
C2865 C2869 1.495 . S
C2866 C2865 1.413 . S
C2866 C2867 1.362 1_554 S
C2866 C2868 1.487 . S
C2867 H2861 0.930 . S
C2867 C2863 1.400 . S
C2867 C2866 1.362 1_556 S
C2868 C2866 1.487 . S
C2868 C2870 1.381 1_554 S
C2868 C2874 1.383 . S
C2869 C2865 1.495 . S
C2869 H2875 0.959 . S
C2869 H2876 0.961 . S
C2869 H2877 0.960 . S
C2870 C2868 1.381 1_556 S
C2870 C2871 1.394 . S
C2870 H2878 0.930 . S
C2871 C2870 1.394 . S
C2871 C2872 1.383 1_556 S
C2871 H2879 0.929 . S
C2872 C2871 1.383 1_554 S
C2872 C2873 1.377 . S
C2873 H2857 0.930 . S
C2873 C2872 1.377 . S
C2873 C2874 1.379 . S
C2874 H2858 0.931 . S
C2874 C2868 1.383 . S
C2874 C2873 1.379 . S
H2875 C2869 0.959 . S
H2876 C2869 0.961 . S
H2877 C2869 0.960 . S
H2878 C2870 0.930 . S
H2879 C2871 0.929 . S
H2880 C2888 0.929 . S
H2881 C2890 0.930 . S
H2882 C2892 0.930 . S
H2883 C2895 0.929 . S
H2884 C2898 0.930 . S
H2885 C2900 0.960 . S
H2886 C2900 0.960 . S
H2887 C2900 0.960 . S
C2888 H2880 0.929 . S
C2888 C2889 1.377 . S
C2888 C2890 1.384 . S
C2889 C2888 1.377 . S
C2889 C2895 1.390 . S
C2890 H2881 0.930 . S
C2890 C2888 1.384 . S
C2890 C2891 1.372 . S
C2891 C2890 1.372 . S
C2891 C2892 1.400 . S
C2891 C2896 1.490 . S
C2892 H2882 0.930 . S
C2892 C2891 1.400 . S
C2892 C2895 1.386 . S
H2893 C2909 0.930 . S
H2894 C2910 0.931 . S
C2895 H2883 0.929 . S
C2895 C2889 1.390 . S
C2895 C2892 1.386 . S
C2896 C2891 1.490 . S
C2896 C2898 1.395 . S
C2896 C2899 1.403 . S
H2897 C2903 0.930 . S
C2898 H2884 0.930 . S
C2898 C2896 1.395 . S
C2898 C2901 1.403 . S
C2899 C2896 1.403 . S
C2899 C2900 1.524 . S
C2899 C2903 1.400 . S
C2900 H2885 0.960 . S
C2900 H2886 0.960 . S
C2900 H2887 0.960 . S
C2900 C2899 1.524 . S
C2901 C2898 1.403 . S
C2901 C2902 1.392 . S
C2901 C2905 1.495 1_545 S
C2902 C2901 1.392 . S
C2902 C2903 1.385 . S
C2902 C2904 1.478 . S
C2903 H2897 0.930 . S
C2903 C2899 1.400 . S
C2903 C2902 1.385 . S
C2904 C2902 1.478 . S
C2904 C2906 1.381 1_545 S
C2904 C2910 1.383 . S
C2905 C2901 1.495 1_565 S
C2905 H2911 0.959 . S
C2905 H2912 0.961 . S
C2905 H2913 0.960 . S
C2906 C2904 1.381 1_565 S
C2906 C2907 1.394 . S
C2906 H2914 0.930 . S
C2907 C2906 1.394 . S
C2907 C2908 1.383 . S
C2907 H2915 0.929 . S
C2908 C2907 1.383 . S
C2908 C2909 1.377 1_565 S
C2909 H2893 0.930 . S
C2909 C2908 1.377 1_545 S
C2909 C2910 1.379 . S
C2910 H2894 0.931 . S
C2910 C2904 1.383 . S
C2910 C2909 1.379 . S
H2911 C2905 0.959 . S
H2912 C2905 0.961 . S
H2913 C2905 0.960 . S
H2914 C2906 0.930 . S
H2915 C2907 0.929 . S
H2916 C2924 0.929 . S
H2917 C2926 0.930 . S
H2918 C2928 0.930 . S
H2919 C2931 0.929 . S
H2920 C2934 0.930 . S
H2921 C2936 0.960 1_455 S
H2922 C2936 0.960 . S
H2923 C2936 0.960 . S
C2924 H2916 0.929 . S
C2924 C2925 1.377 . S
C2924 C2926 1.384 . S
C2925 C2924 1.377 . S
C2925 C2931 1.390 . S
C2926 H2917 0.930 . S
C2926 C2924 1.384 . S
C2926 C2927 1.372 . S
C2927 C2926 1.372 . S
C2927 C2928 1.400 . S
C2927 C2932 1.490 . S
C2928 H2918 0.930 . S
C2928 C2927 1.400 . S
C2928 C2931 1.386 . S
H2929 C2945 0.930 . S
H2930 C2946 0.932 1_455 S
C2931 H2919 0.929 . S
C2931 C2925 1.390 . S
C2931 C2928 1.386 . S
C2932 C2927 1.490 . S
C2932 C2934 1.395 . S
C2932 C2935 1.403 . S
H2933 C2939 0.930 . S
C2934 H2920 0.930 . S
C2934 C2932 1.395 . S
C2934 C2937 1.403 . S
C2935 C2932 1.403 . S
C2935 C2936 1.524 . S
C2935 C2939 1.400 . S
C2936 H2921 0.960 1_655 S
C2936 H2922 0.960 . S
C2936 H2923 0.960 . S
C2936 C2935 1.524 . S
C2937 C2934 1.403 . S
C2937 C2938 1.392 . S
C2937 C2941 1.495 . S
C2938 C2937 1.392 . S
C2938 C2939 1.385 . S
C2938 C2940 1.478 . S
C2939 H2933 0.930 . S
C2939 C2935 1.400 . S
C2939 C2938 1.385 . S
C2940 C2938 1.478 . S
C2940 C2942 1.381 . S
C2940 C2946 1.383 . S
C2941 C2937 1.495 . S
C2941 H2947 0.959 . S
C2941 H2948 0.961 . S
C2941 H2949 0.960 . S
C2942 C2940 1.381 . S
C2942 C2943 1.394 . S
C2942 H2950 0.930 . S
C2943 C2942 1.394 . S
C2943 C2944 1.383 1_655 S
C2943 H2951 0.929 . S
C2944 C2943 1.383 1_455 S
C2944 C2945 1.377 . S
C2945 H2929 0.930 . S
C2945 C2944 1.377 . S
C2945 C2946 1.379 1_455 S
C2946 H2930 0.932 1_655 S
C2946 C2940 1.383 . S
C2946 C2945 1.379 1_655 S
H2947 C2941 0.959 . S
H2948 C2941 0.961 . S
H2949 C2941 0.960 . S
H2950 C2942 0.930 . S
H2951 C2943 0.929 . S
H2952 C2960 0.929 . S
H2953 C2962 0.930 . S
H2954 C2964 0.930 . S
H2955 C2967 0.929 . S
H2956 C2970 0.930 . S
H2957 C2972 0.960 . S
H2958 C2972 0.960 . S
H2959 C2972 0.960 . S
C2960 H2952 0.929 . S
C2960 C2961 1.377 . S
C2960 C2962 1.384 . S
C2961 C2960 1.377 . S
C2961 C2967 1.390 . S
C2962 H2953 0.930 . S
C2962 C2960 1.384 . S
C2962 C2963 1.372 . S
C2963 C2962 1.372 . S
C2963 C2964 1.400 . S
C2963 C2968 1.490 . S
C2964 H2954 0.930 . S
C2964 C2963 1.400 . S
C2964 C2967 1.386 . S
H2965 C2981 0.930 . S
H2966 C2982 0.931 . S
C2967 H2955 0.929 . S
C2967 C2961 1.390 . S
C2967 C2964 1.386 . S
C2968 C2963 1.490 . S
C2968 C2970 1.395 . S
C2968 C2971 1.403 . S
H2969 C2975 0.930 . S
C2970 H2956 0.930 . S
C2970 C2968 1.395 . S
C2970 C2973 1.403 . S
C2971 C2968 1.403 . S
C2971 C2972 1.524 . S
C2971 C2975 1.400 . S
C2972 H2957 0.960 . S
C2972 H2958 0.960 . S
C2972 H2959 0.960 . S
C2972 C2971 1.524 . S
C2973 C2970 1.403 . S
C2973 C2974 1.392 . S
C2973 C2977 1.495 . S
C2974 C2973 1.392 . S
C2974 C2975 1.385 . S
C2974 C2976 1.478 . S
C2975 H2969 0.930 . S
C2975 C2971 1.400 . S
C2975 C2974 1.385 . S
C2976 C2974 1.478 . S
C2976 C2978 1.381 . S
C2976 C2982 1.383 . S
C2977 C2973 1.495 . S
C2977 H2983 0.959 . S
C2977 H2984 0.961 . S
C2977 H2985 0.960 . S
C2978 C2976 1.381 . S
C2978 C2979 1.394 . S
C2978 H2986 0.930 . S
C2979 C2978 1.394 . S
C2979 C2980 1.383 . S
C2979 H2987 0.929 . S
C2980 C2979 1.383 . S
C2980 C2981 1.377 . S
C2981 H2965 0.930 . S
C2981 C2980 1.377 . S
C2981 C2982 1.379 . S
C2982 H2966 0.931 . S
C2982 C2976 1.383 . S
C2982 C2981 1.379 . S
H2983 C2977 0.959 . S
H2984 C2977 0.961 . S
H2985 C2977 0.960 . S
H2986 C2978 0.930 . S
H2987 C2979 0.929 . S
H2988 C2996 0.929 . S
H2989 C2998 0.939 . S
H2990 C3000 0.930 . S
H2991 C3003 0.929 . S
H2992 C3006 0.930 . S
H2993 C3008 0.960 . S
H2994 C3008 0.960 . S
H2995 C3008 0.960 . S
C2996 H2988 0.929 . S
C2996 C2997 1.377 . S
C2996 C2998 1.384 . S
C2997 C2996 1.377 . S
C2997 C3003 1.390 . S
C2998 H2989 0.939 . S
C2998 C2996 1.384 . S
C2998 C2999 1.372 . S
C2999 C2998 1.372 . S
C2999 C3000 1.400 . S
C2999 C3004 1.490 . S
C3000 H2990 0.930 . S
C3000 C2999 1.400 . S
C3000 C3003 1.386 . S
H3001 C3017 0.934 . S
H3002 C3018 0.931 . S
C3003 H2991 0.929 . S
C3003 C2997 1.390 . S
C3003 C3000 1.386 . S
C3004 C2999 1.490 . S
C3004 C3006 1.395 . S
C3004 C3007 1.403 1_554 S
H3005 C3011 0.930 . S
C3006 H2992 0.930 . S
C3006 C3004 1.395 . S
C3006 C3009 1.403 1_565 S
C3007 C3004 1.403 1_556 S
C3007 C3008 1.524 . S
C3007 C3011 1.400 1_565 S
C3008 H2993 0.960 . S
C3008 H2994 0.960 . S
C3008 H2995 0.960 . S
C3008 C3007 1.524 . S
C3009 C3006 1.403 1_545 S
C3009 C3010 1.392 . S
C3009 C3013 1.495 . S
C3010 C3009 1.392 . S
C3010 C3011 1.385 1_554 S
C3010 C3012 1.483 . S
C3011 H3005 0.930 . S
C3011 C3007 1.400 1_545 S
C3011 C3010 1.385 1_556 S
C3012 C3010 1.483 . S
C3012 C3014 1.369 1_554 S
C3012 C3018 1.391 . S
C3013 C3009 1.495 . S
C3013 H3019 0.959 . S
C3013 H3020 0.961 . S
C3013 H3021 0.960 . S
C3014 C3012 1.369 1_556 S
C3014 C3015 1.394 . S
C3014 H3022 0.930 . S
C3015 C3014 1.394 . S
C3015 C3016 1.383 . S
C3015 H3023 0.929 . S
C3016 C3015 1.383 . S
C3016 C3017 1.370 1_556 S
C3017 H3001 0.934 . S
C3017 C3016 1.370 1_554 S
C3017 C3018 1.385 . S
C3018 H3002 0.931 . S
C3018 C3012 1.391 . S
C3018 C3017 1.385 . S
H3019 C3013 0.959 . S
H3020 C3013 0.961 . S
H3021 C3013 0.960 . S
H3022 C3014 0.930 . S
H3023 C3015 0.929 . S
H3024 C3032 0.929 . S
H3025 C3034 0.930 . S
H3026 C3036 0.930 . S
H3027 C3039 0.929 . S
H3028 C3042 0.930 . S
H3029 C3044 0.966 . S
H3030 C3044 0.890 1_554 S
H3031 C3044 1.034 . S
C3032 H3024 0.929 . S
C3032 C3033 1.377 1_554 S
C3032 C3034 1.384 . S
C3033 C3032 1.377 1_556 S
C3033 C3039 1.390 . S
C3034 H3025 0.930 . S
C3034 C3032 1.384 . S
C3034 C3035 1.316 1_554 S
C3035 C3034 1.316 1_556 S
C3035 C3036 1.462 . S
C3035 C3040 1.488 . S
C3036 H3026 0.930 . S
C3036 C3035 1.462 . S
C3036 C3039 1.386 . S
H3037 C3053 0.930 . S
H3038 C3054 0.931 . S
C3039 H3027 0.929 . S
C3039 C3033 1.390 . S
C3039 C3036 1.386 . S
C3040 C3035 1.488 . S
C3040 C3042 1.395 1_556 S
C3040 C3043 1.402 . S
H3041 C3047 0.930 1_556 S
C3042 H3028 0.930 . S
C3042 C3040 1.395 1_554 S
C3042 C3045 1.403 1_655 S
C3043 C3040 1.402 . S
C3043 C3044 1.522 . S
C3043 C3047 1.399 1_656 S
C3044 H3029 0.966 . S
C3044 H3030 0.890 1_556 S
C3044 H3031 1.034 . S
C3044 C3043 1.522 . S
C3045 C3042 1.403 1_455 S
C3045 C3046 1.392 . S
C3045 C3049 1.495 . S
C3046 C3045 1.392 . S
C3046 C3047 1.386 . S
C3046 C3048 1.478 . S
C3047 H3041 0.930 1_554 S
C3047 C3043 1.399 1_454 S
C3047 C3046 1.386 . S
C3048 C3046 1.478 . S
C3048 C3050 1.381 . S
C3048 C3054 1.383 1_554 S
C3049 C3045 1.495 . S
C3049 H3055 0.959 . S
C3049 H3056 0.961 1_554 S
C3049 H3057 0.960 . S
C3050 C3048 1.381 . S
C3050 C3051 1.394 . S
C3050 H3058 0.930 . S
C3051 C3050 1.394 . S
C3051 C3052 1.383 . S
C3051 H3059 0.929 . S
C3052 C3051 1.383 . S
C3052 C3053 1.377 1_554 S
C3053 H3037 0.930 . S
C3053 C3052 1.377 1_556 S
C3053 C3054 1.379 . S
C3054 H3038 0.931 . S
C3054 C3048 1.383 1_556 S
C3054 C3053 1.379 . S
H3055 C3049 0.959 . S
H3056 C3049 0.961 1_556 S
H3057 C3049 0.960 . S
H3058 C3050 0.930 . S
H3059 C3051 0.929 . S
H3060 C3068 0.929 . S
H3061 C3070 0.930 . S
H3062 C3072 0.930 . S
H3063 C3075 0.929 . S
H3064 C3078 0.930 . S
H3065 C3080 0.960 . S
H3066 C3080 0.960 . S
H3067 C3080 0.960 . S
C3068 H3060 0.929 . S
C3068 C3069 1.377 . S
C3068 C3070 1.384 . S
C3069 C3068 1.377 . S
C3069 C3075 1.390 1_554 S
C3070 H3061 0.930 . S
C3070 C3068 1.384 . S
C3070 C3071 1.372 . S
C3071 C3070 1.372 . S
C3071 C3072 1.400 1_554 S
C3071 C3076 1.490 . S
C3072 H3062 0.930 . S
C3072 C3071 1.400 1_556 S
C3072 C3075 1.386 . S
H3073 C3089 0.930 . S
H3074 C3090 0.931 . S
C3075 H3063 0.929 . S
C3075 C3069 1.390 1_556 S
C3075 C3072 1.386 . S
C3076 C3071 1.490 . S
C3076 C3078 1.395 1_554 S
C3076 C3079 1.403 . S
H3077 C3083 0.930 . S
C3078 H3064 0.930 . S
C3078 C3076 1.395 1_556 S
C3078 C3081 1.403 . S
C3079 C3076 1.403 . S
C3079 C3080 1.524 . S
C3079 C3083 1.400 . S
C3080 H3065 0.960 . S
C3080 H3066 0.960 . S
C3080 H3067 0.960 . S
C3080 C3079 1.524 . S
C3081 C3078 1.403 . S
C3081 C3082 1.392 . S
C3081 C3085 1.495 . S
C3082 C3081 1.392 . S
C3082 C3083 1.385 1_556 S
C3082 C3084 1.478 . S
C3083 H3077 0.930 . S
C3083 C3079 1.400 . S
C3083 C3082 1.385 1_554 S
C3084 C3082 1.478 . S
C3084 C3086 1.381 1_556 S
C3084 C3090 1.383 . S
C3085 C3081 1.495 . S
C3085 H3091 0.959 . S
C3085 H3092 0.961 . S
C3085 H3093 0.960 . S
C3086 C3084 1.381 1_554 S
C3086 C3087 1.394 . S
C3086 H3094 0.930 . S
C3087 C3086 1.394 . S
C3087 C3088 1.383 1_554 S
C3087 H3095 0.929 . S
C3088 C3087 1.383 1_556 S
C3088 C3089 1.377 . S
C3089 H3073 0.930 . S
C3089 C3088 1.377 . S
C3089 C3090 1.379 . S
C3090 H3074 0.931 . S
C3090 C3084 1.383 . S
C3090 C3089 1.379 . S
H3091 C3085 0.959 . S
H3092 C3085 0.961 . S
H3093 C3085 0.960 . S
H3094 C3086 0.930 . S
H3095 C3087 0.929 . S
H3096 C3104 0.929 . S
H3097 C3106 0.930 . S
H3098 C3108 0.930 . S
H3099 C3111 0.929 . S
H3100 C3114 0.930 . S
H3101 C3116 0.972 . S
H3102 C3116 0.960 . S
H3103 C3116 0.960 . S
C3104 H3096 0.929 . S
C3104 C3105 1.377 . S
C3104 C3106 1.384 . S
C3105 C3104 1.377 . S
C3105 C3111 1.390 . S
C3106 H3097 0.930 . S
C3106 C3104 1.384 . S
C3106 C3107 1.372 . S
C3107 C3106 1.372 . S
C3107 C3108 1.400 . S
C3107 C3112 1.490 . S
C3108 H3098 0.930 . S
C3108 C3107 1.400 . S
C3108 C3111 1.386 . S
H3109 C3125 0.930 . S
H3110 C3126 0.931 . S
C3111 H3099 0.929 . S
C3111 C3105 1.390 . S
C3111 C3108 1.386 . S
C3112 C3107 1.490 . S
C3112 C3114 1.395 . S
C3112 C3115 1.403 . S
H3113 C3119 0.930 . S
C3114 H3100 0.930 . S
C3114 C3112 1.395 . S
C3114 C3117 1.403 1_455 S
C3115 C3112 1.403 . S
C3115 C3116 1.524 . S
C3115 C3119 1.400 1_455 S
C3116 H3101 0.972 . S
C3116 H3102 0.960 . S
C3116 H3103 0.960 . S
C3116 C3115 1.524 . S
C3117 C3114 1.403 1_655 S
C3117 C3118 1.392 . S
C3117 C3121 1.495 . S
C3118 C3117 1.392 . S
C3118 C3119 1.385 . S
C3118 C3120 1.478 . S
C3119 H3113 0.930 . S
C3119 C3115 1.400 1_655 S
C3119 C3118 1.385 . S
C3120 C3118 1.478 . S
C3120 C3122 1.381 . S
C3120 C3126 1.383 . S
C3121 C3117 1.495 . S
C3121 H3127 0.959 . S
C3121 H3128 0.961 . S
C3121 H3129 0.960 . S
C3122 C3120 1.381 . S
C3122 C3123 1.394 . S
C3122 H3130 0.930 . S
C3123 C3122 1.394 . S
C3123 C3124 1.383 . S
C3123 H3131 0.929 . S
C3124 C3123 1.383 . S
C3124 C3125 1.377 . S
C3125 H3109 0.930 . S
C3125 C3124 1.377 . S
C3125 C3126 1.379 . S
C3126 H3110 0.931 . S
C3126 C3120 1.383 . S
C3126 C3125 1.379 . S
H3127 C3121 0.959 . S
H3128 C3121 0.961 . S
H3129 C3121 0.960 . S
H3130 C3122 0.930 . S
H3131 C3123 0.929 . S
H3132 C3140 0.929 . S
H3133 C3142 0.930 . S
H3134 C3144 0.930 . S
H3135 C3147 0.929 . S
H3136 C3150 0.930 . S
H3137 C3152 0.960 . S
H3138 C3152 0.960 . S
H3139 C3152 0.960 . S
C3140 H3132 0.929 . S
C3140 C3141 1.377 . S
C3140 C3142 1.384 . S
C3141 C3140 1.377 . S
C3141 C3147 1.390 . S
C3142 H3133 0.930 . S
C3142 C3140 1.384 . S
C3142 C3143 1.372 . S
C3143 C3142 1.372 . S
C3143 C3144 1.400 . S
C3143 C3148 1.490 . S
C3144 H3134 0.930 . S
C3144 C3143 1.400 . S
C3144 C3147 1.386 . S
H3145 C3161 0.930 . S
H3146 C3162 0.931 . S
C3147 H3135 0.929 . S
C3147 C3141 1.390 . S
C3147 C3144 1.386 . S
C3148 C3143 1.490 . S
C3148 C3150 1.395 . S
C3148 C3151 1.403 . S
H3149 C3155 0.930 . S
C3150 H3136 0.930 . S
C3150 C3148 1.395 . S
C3150 C3153 1.403 . S
C3151 C3148 1.403 . S
C3151 C3152 1.524 . S
C3151 C3155 1.400 . S
C3152 H3137 0.960 . S
C3152 H3138 0.960 . S
C3152 H3139 0.960 . S
C3152 C3151 1.524 . S
C3153 C3150 1.403 . S
C3153 C3154 1.392 . S
C3153 C3157 1.495 . S
C3154 C3153 1.392 . S
C3154 C3155 1.385 . S
C3154 C3156 1.478 . S
C3155 H3149 0.930 . S
C3155 C3151 1.400 . S
C3155 C3154 1.385 . S
C3156 C3154 1.478 . S
C3156 C3158 1.381 . S
C3156 C3162 1.383 . S
C3157 C3153 1.495 . S
C3157 H3163 0.959 . S
C3157 H3164 0.961 . S
C3157 H3165 0.960 . S
C3158 C3156 1.381 . S
C3158 C3159 1.394 . S
C3158 H3166 0.930 . S
C3159 C3158 1.394 . S
C3159 C3160 1.383 . S
C3159 H3167 0.929 . S
C3160 C3159 1.383 . S
C3160 C3161 1.377 . S
C3161 H3145 0.930 . S
C3161 C3160 1.377 . S
C3161 C3162 1.379 . S
C3162 H3146 0.931 . S
C3162 C3156 1.383 . S
C3162 C3161 1.379 . S
H3163 C3157 0.959 . S
H3164 C3157 0.961 . S
H3165 C3157 0.960 . S
H3166 C3158 0.930 . S
H3167 C3159 0.929 . S
H3168 C3176 0.929 . S
H3169 C3178 0.930 . S
H3170 C3180 0.930 . S
H3171 C3183 0.929 . S
H3172 C3186 0.930 . S
H3173 C3188 0.960 1_545 S
H3174 C3188 0.960 . S
H3175 C3188 0.960 . S
C3176 H3168 0.929 . S
C3176 C3177 1.377 . S
C3176 C3178 1.384 . S
C3177 C3176 1.377 . S
C3177 C3183 1.390 . S
C3178 H3169 0.930 . S
C3178 C3176 1.384 . S
C3178 C3179 1.372 . S
C3179 C3178 1.372 . S
C3179 C3180 1.400 . S
C3179 C3184 1.490 . S
C3180 H3170 0.930 . S
C3180 C3179 1.400 . S
C3180 C3183 1.386 . S
H3181 C3197 0.930 . S
H3182 C3198 0.931 . S
C3183 H3171 0.929 . S
C3183 C3177 1.390 . S
C3183 C3180 1.386 . S
C3184 C3179 1.490 . S
C3184 C3186 1.395 . S
C3184 C3187 1.403 1_565 S
H3185 C3191 0.930 . S
C3186 H3172 0.930 . S
C3186 C3184 1.395 . S
C3186 C3189 1.403 1_565 S
C3187 C3184 1.403 1_545 S
C3187 C3188 1.524 1_545 S
C3187 C3191 1.400 . S
C3188 H3173 0.960 1_565 S
C3188 H3174 0.960 . S
C3188 H3175 0.960 . S
C3188 C3187 1.524 1_565 S
C3189 C3186 1.403 1_545 S
C3189 C3190 1.392 . S
C3189 C3193 1.495 . S
C3190 C3189 1.392 . S
C3190 C3191 1.385 . S
C3190 C3192 1.478 . S
C3191 H3185 0.930 . S
C3191 C3187 1.400 . S
C3191 C3190 1.385 . S
C3192 C3190 1.478 . S
C3192 C3194 1.381 . S
C3192 C3198 1.383 . S
C3193 C3189 1.495 . S
C3193 H3199 0.959 . S
C3193 H3200 0.961 . S
C3193 H3201 0.960 . S
C3194 C3192 1.381 . S
C3194 C3195 1.394 . S
C3194 H3202 0.930 . S
C3195 C3194 1.394 . S
C3195 C3196 1.383 . S
C3195 H3203 0.929 . S
C3196 C3195 1.383 . S
C3196 C3197 1.377 . S
C3197 H3181 0.930 . S
C3197 C3196 1.377 . S
C3197 C3198 1.379 . S
C3198 H3182 0.931 . S
C3198 C3192 1.383 . S
C3198 C3197 1.379 . S
H3199 C3193 0.959 . S
H3200 C3193 0.961 . S
H3201 C3193 0.960 . S
H3202 C3194 0.930 . S
H3203 C3195 0.929 . S
H3204 C3212 0.929 . S
H3205 C3214 0.930 . S
H3206 C3216 0.930 . S
H3207 C3219 0.929 . S
H3208 C3222 0.948 . S
H3209 C3224 0.960 . S
H3210 C3224 0.960 . S
H3211 C3224 0.960 . S
C3212 H3204 0.929 . S
C3212 C3213 1.377 . S
C3212 C3214 1.384 1_455 S
C3213 C3212 1.377 . S
C3213 C3219 1.390 1_455 S
C3214 H3205 0.930 . S
C3214 C3212 1.384 1_655 S
C3214 C3215 1.372 . S
C3215 C3214 1.372 . S
C3215 C3216 1.400 . S
C3215 C3220 1.490 . S
C3216 H3206 0.930 . S
C3216 C3215 1.400 . S
C3216 C3219 1.386 . S
H3217 C3233 0.930 . S
H3218 C3234 0.931 . S
C3219 H3207 0.929 . S
C3219 C3213 1.390 1_655 S
C3219 C3216 1.386 . S
C3220 C3215 1.490 . S
C3220 C3222 1.395 . S
C3220 C3223 1.403 . S
H3221 C3227 0.930 . S
C3222 H3208 0.948 . S
C3222 C3220 1.395 . S
C3222 C3225 1.403 . S
C3223 C3220 1.403 . S
C3223 C3224 1.524 . S
C3223 C3227 1.400 . S
C3224 H3209 0.960 . S
C3224 H3210 0.960 . S
C3224 H3211 0.960 . S
C3224 C3223 1.524 . S
C3225 C3222 1.403 . S
C3225 C3226 1.392 . S
C3225 C3229 1.495 . S
C3226 C3225 1.392 . S
C3226 C3227 1.385 . S
C3226 C3228 1.478 . S
C3227 H3221 0.930 . S
C3227 C3223 1.400 . S
C3227 C3226 1.385 . S
C3228 C3226 1.478 . S
C3228 C3230 1.381 . S
C3228 C3234 1.383 . S
C3229 C3225 1.495 . S
C3229 H3235 0.959 1_655 S
C3229 H3236 0.961 . S
C3229 H3237 0.960 . S
C3230 C3228 1.381 . S
C3230 C3231 1.394 . S
C3230 H3238 0.930 . S
C3231 C3230 1.394 . S
C3231 C3232 1.383 . S
C3231 H3239 0.929 . S
C3232 C3231 1.383 . S
C3232 C3233 1.377 . S
C3233 H3217 0.930 . S
C3233 C3232 1.377 . S
C3233 C3234 1.379 . S
C3234 H3218 0.931 . S
C3234 C3228 1.383 . S
C3234 C3233 1.379 . S
H3235 C3229 0.959 1_455 S
H3236 C3229 0.961 . S
H3237 C3229 0.960 . S
H3238 C3230 0.930 . S
H3239 C3231 0.929 . S
H3240 C3248 0.929 . S
H3241 C3250 0.930 . S
H3242 C3252 0.930 . S
H3243 C3255 0.929 . S
H3244 C3258 0.930 . S
H3245 C3260 0.960 . S
H3246 C3260 0.960 . S
H3247 C3260 0.960 . S
C3248 H3240 0.929 . S
C3248 C3249 1.377 . S
C3248 C3250 1.384 . S
C3249 C3248 1.377 . S
C3249 C3255 1.390 . S
C3250 H3241 0.930 . S
C3250 C3248 1.384 . S
C3250 C3251 1.372 . S
C3251 C3250 1.372 . S
C3251 C3252 1.400 . S
C3251 C3256 1.490 . S
C3252 H3242 0.930 . S
C3252 C3251 1.400 . S
C3252 C3255 1.386 . S
H3253 C3269 0.930 . S
H3254 C3270 0.931 . S
C3255 H3243 0.929 . S
C3255 C3249 1.390 . S
C3255 C3252 1.386 . S
C3256 C3251 1.490 . S
C3256 C3258 1.395 . S
C3256 C3259 1.403 . S
H3257 C3263 0.930 . S
C3258 H3244 0.930 . S
C3258 C3256 1.395 . S
C3258 C3261 1.403 . S
C3259 C3256 1.403 . S
C3259 C3260 1.524 . S
C3259 C3263 1.400 . S
C3260 H3245 0.960 . S
C3260 H3246 0.960 . S
C3260 H3247 0.960 . S
C3260 C3259 1.524 . S
C3261 C3258 1.403 . S
C3261 C3262 1.392 . S
C3261 C3265 1.495 . S
C3262 C3261 1.392 . S
C3262 C3263 1.385 . S
C3262 C3264 1.478 . S
C3263 H3257 0.930 . S
C3263 C3259 1.400 . S
C3263 C3262 1.385 . S
C3264 C3262 1.478 . S
C3264 C3266 1.381 . S
C3264 C3270 1.383 . S
C3265 C3261 1.495 . S
C3265 H3271 0.959 . S
C3265 H3272 0.961 . S
C3265 H3273 0.960 . S
C3266 C3264 1.381 . S
C3266 C3267 1.394 . S
C3266 H3274 0.930 . S
C3267 C3266 1.394 . S
C3267 C3268 1.383 . S
C3267 H3275 0.929 . S
C3268 C3267 1.383 . S
C3268 C3269 1.377 . S
C3269 H3253 0.930 . S
C3269 C3268 1.377 . S
C3269 C3270 1.379 . S
C3270 H3254 0.931 . S
C3270 C3264 1.383 . S
C3270 C3269 1.379 . S
H3271 C3265 0.959 . S
H3272 C3265 0.961 . S
H3273 C3265 0.960 . S
H3274 C3266 0.930 . S
H3275 C3267 0.929 . S
H3276 C3284 0.929 . S
H3277 C3286 0.930 . S
H3278 C3288 0.930 . S
H3279 C3291 0.929 . S
H3280 C3294 0.930 . S
H3281 C3296 0.960 1_565 S
H3282 C3296 0.960 . S
H3283 C3296 0.960 . S
C3284 H3276 0.929 . S
C3284 C3285 1.377 . S
C3284 C3286 1.384 . S
C3285 C3284 1.377 . S
C3285 C3291 1.390 . S
C3286 H3277 0.930 . S
C3286 C3284 1.384 . S
C3286 C3287 1.372 . S
C3287 C3286 1.372 . S
C3287 C3288 1.400 . S
C3287 C3292 1.490 . S
C3288 H3278 0.930 . S
C3288 C3287 1.400 . S
C3288 C3291 1.386 . S
H3289 C3305 0.921 1_565 S
H3290 C3306 0.931 . S
C3291 H3279 0.929 . S
C3291 C3285 1.390 . S
C3291 C3288 1.386 . S
C3292 C3287 1.490 . S
C3292 C3294 1.395 . S
C3292 C3295 1.403 . S
H3293 C3299 0.930 . S
C3294 H3280 0.930 . S
C3294 C3292 1.395 . S
C3294 C3297 1.403 . S
C3295 C3292 1.403 . S
C3295 C3296 1.524 . S
C3295 C3299 1.400 . S
C3296 H3281 0.960 1_545 S
C3296 H3282 0.960 . S
C3296 H3283 0.960 . S
C3296 C3295 1.524 . S
C3297 C3294 1.403 . S
C3297 C3298 1.392 . S
C3297 C3301 1.495 . S
C3298 C3297 1.392 . S
C3298 C3299 1.385 . S
C3298 C3300 1.478 . S
C3299 H3293 0.930 . S
C3299 C3295 1.400 . S
C3299 C3298 1.385 . S
C3300 C3298 1.478 . S
C3300 C3302 1.381 . S
C3300 C3306 1.383 . S
C3301 C3297 1.495 . S
C3301 H3307 0.959 . S
C3301 H3308 0.961 . S
C3301 H3309 0.960 . S
C3302 C3300 1.381 . S
C3302 C3303 1.394 . S
C3302 H3310 0.930 . S
C3303 C3302 1.394 . S
C3303 C3304 1.383 1_545 S
C3303 H3311 0.907 1_545 S
C3304 C3303 1.383 1_565 S
C3304 C3305 1.377 1_565 S
C3305 H3289 0.921 1_545 S
C3305 C3304 1.377 1_545 S
C3305 C3306 1.379 . S
C3306 H3290 0.931 . S
C3306 C3300 1.383 . S
C3306 C3305 1.379 . S
H3307 C3301 0.959 . S
H3308 C3301 0.961 . S
H3309 C3301 0.960 . S
H3310 C3302 0.930 . S
H3311 C3303 0.907 1_565 S
H3312 C3320 0.929 . S
H3313 C3322 0.930 . S
H3314 C3324 0.930 . S
H3315 C3327 0.929 . S
H3316 C3330 0.930 . S
H3317 C3332 0.960 . S
H3318 C3332 0.960 . S
H3319 C3332 0.960 . S
C3320 H3312 0.929 . S
C3320 C3321 1.377 . S
C3320 C3322 1.384 . S
C3321 C3320 1.377 . S
C3321 C3327 1.390 . S
C3322 H3313 0.930 . S
C3322 C3320 1.384 . S
C3322 C3323 1.372 . S
C3323 C3322 1.372 . S
C3323 C3324 1.400 . S
C3323 C3328 1.490 . S
C3324 H3314 0.930 . S
C3324 C3323 1.400 . S
C3324 C3327 1.386 . S
H3325 C3341 0.930 . S
H3326 C3342 0.931 . S
C3327 H3315 0.929 . S
C3327 C3321 1.390 . S
C3327 C3324 1.386 . S
C3328 C3323 1.490 . S
C3328 C3330 1.395 . S
C3328 C3331 1.403 . S
H3329 C3335 0.930 . S
C3330 H3316 0.930 . S
C3330 C3328 1.395 . S
C3330 C3333 1.403 . S
C3331 C3328 1.403 . S
C3331 C3332 1.524 . S
C3331 C3335 1.400 . S
C3332 H3317 0.960 . S
C3332 H3318 0.960 . S
C3332 H3319 0.960 . S
C3332 C3331 1.524 . S
C3333 C3330 1.403 . S
C3333 C3334 1.392 . S
C3333 C3337 1.495 . S
C3334 C3333 1.392 . S
C3334 C3335 1.385 . S
C3334 C3336 1.478 . S
C3335 H3329 0.930 . S
C3335 C3331 1.400 . S
C3335 C3334 1.385 . S
C3336 C3334 1.478 . S
C3336 C3338 1.381 . S
C3336 C3342 1.383 . S
C3337 C3333 1.495 . S
C3337 H3343 0.959 . S
C3337 H3344 0.961 . S
C3337 H3345 0.960 . S
C3338 C3336 1.381 . S
C3338 C3339 1.394 . S
C3338 H3346 0.930 . S
C3339 C3338 1.394 . S
C3339 C3340 1.383 . S
C3339 H3347 0.929 . S
C3340 C3339 1.383 . S
C3340 C3341 1.377 . S
C3341 H3325 0.930 . S
C3341 C3340 1.377 . S
C3341 C3342 1.379 . S
C3342 H3326 0.931 . S
C3342 C3336 1.383 . S
C3342 C3341 1.379 . S
H3343 C3337 0.959 . S
H3344 C3337 0.961 . S
H3345 C3337 0.960 . S
H3346 C3338 0.930 . S
H3347 C3339 0.929 . S
H3348 C3356 0.929 . S
H3349 C3358 0.930 . S
H3350 C3360 0.930 . S
H3351 C3363 0.929 . S
H3352 C3366 0.930 . S
H3353 C3368 0.960 . S
H3354 C3368 0.960 . S
H3355 C3368 0.960 . S
C3356 H3348 0.929 . S
C3356 C3357 1.377 . S
C3356 C3358 1.384 . S
C3357 C3356 1.377 . S
C3357 C3363 1.390 . S
C3358 H3349 0.930 . S
C3358 C3356 1.384 . S
C3358 C3359 1.372 . S
C3359 C3358 1.372 . S
C3359 C3360 1.400 . S
C3359 C3364 1.490 . S
C3360 H3350 0.930 . S
C3360 C3359 1.400 . S
C3360 C3363 1.386 . S
H3361 C3377 0.930 . S
H3362 C3378 0.931 . S
C3363 H3351 0.929 . S
C3363 C3357 1.390 . S
C3363 C3360 1.386 . S
C3364 C3359 1.490 . S
C3364 C3366 1.395 . S
C3364 C3367 1.403 . S
H3365 C3371 0.930 . S
C3366 H3352 0.930 . S
C3366 C3364 1.395 . S
C3366 C3369 1.403 . S
C3367 C3364 1.403 . S
C3367 C3368 1.524 . S
C3367 C3371 1.400 . S
C3368 H3353 0.960 . S
C3368 H3354 0.960 . S
C3368 H3355 0.960 . S
C3368 C3367 1.524 . S
C3369 C3366 1.403 . S
C3369 C3370 1.392 . S
C3369 C3373 1.495 . S
C3370 C3369 1.392 . S
C3370 C3371 1.385 . S
C3370 C3372 1.478 . S
C3371 H3365 0.930 . S
C3371 C3367 1.400 . S
C3371 C3370 1.385 . S
C3372 C3370 1.478 . S
C3372 C3374 1.381 . S
C3372 C3378 1.383 . S
C3373 C3369 1.495 . S
C3373 H3379 0.959 . S
C3373 H3380 0.961 . S
C3373 H3381 0.960 . S
C3374 C3372 1.381 . S
C3374 C3375 1.394 . S
C3374 H3382 0.930 . S
C3375 C3374 1.394 . S
C3375 C3376 1.383 . S
C3375 H3383 0.929 . S
C3376 C3375 1.383 . S
C3376 C3377 1.377 . S
C3377 H3361 0.930 . S
C3377 C3376 1.377 . S
C3377 C3378 1.379 . S
C3378 H3362 0.931 . S
C3378 C3372 1.383 . S
C3378 C3377 1.379 . S
H3379 C3373 0.959 . S
H3380 C3373 0.961 . S
H3381 C3373 0.960 . S
H3382 C3374 0.930 . S
H3383 C3375 0.929 . S
H3384 C3392 0.929 . S
H3385 C3394 0.930 . S
H3386 C3396 0.930 . S
H3387 C3399 0.929 . S
H3388 C3402 0.930 . S
H3389 C3404 0.960 . S
H3390 C3404 0.960 . S
H3391 C3404 0.960 . S
C3392 H3384 0.929 . S
C3392 C3393 1.377 . S
C3392 C3394 1.384 . S
C3393 C3392 1.377 . S
C3393 C3399 1.390 . S
C3394 H3385 0.930 . S
C3394 C3392 1.384 . S
C3394 C3395 1.372 . S
C3395 C3394 1.372 . S
C3395 C3396 1.400 . S
C3395 C3400 1.490 . S
C3396 H3386 0.930 . S
C3396 C3395 1.400 . S
C3396 C3399 1.386 . S
H3397 C3413 0.930 . S
H3398 C3414 0.931 . S
C3399 H3387 0.929 . S
C3399 C3393 1.390 . S
C3399 C3396 1.386 . S
C3400 C3395 1.490 . S
C3400 C3402 1.395 . S
C3400 C3403 1.403 . S
H3401 C3407 0.930 . S
C3402 H3388 0.930 . S
C3402 C3400 1.395 . S
C3402 C3405 1.403 . S
C3403 C3400 1.403 . S
C3403 C3404 1.524 . S
C3403 C3407 1.400 . S
C3404 H3389 0.960 . S
C3404 H3390 0.960 . S
C3404 H3391 0.960 . S
C3404 C3403 1.524 . S
C3405 C3402 1.403 . S
C3405 C3406 1.392 . S
C3405 C3409 1.495 . S
C3406 C3405 1.392 . S
C3406 C3407 1.385 . S
C3406 C3408 1.478 . S
C3407 H3401 0.930 . S
C3407 C3403 1.400 . S
C3407 C3406 1.385 . S
C3408 C3406 1.478 . S
C3408 C3410 1.381 . S
C3408 C3414 1.383 . S
C3409 C3405 1.495 . S
C3409 H3415 0.959 . S
C3409 H3416 0.961 . S
C3409 H3417 0.960 . S
C3410 C3408 1.381 . S
C3410 C3411 1.394 . S
C3410 H3418 0.930 . S
C3411 C3410 1.394 . S
C3411 C3412 1.383 . S
C3411 H3419 0.929 . S
C3412 C3411 1.383 . S
C3412 C3413 1.377 . S
C3413 H3397 0.930 . S
C3413 C3412 1.377 . S
C3413 C3414 1.379 . S
C3414 H3398 0.931 . S
C3414 C3408 1.383 . S
C3414 C3413 1.379 . S
H3415 C3409 0.959 . S
H3416 C3409 0.961 . S
H3417 C3409 0.960 . S
H3418 C3410 0.930 . S
H3419 C3411 0.929 . S
H3420 C3428 0.929 . S
H3421 C3430 0.930 . S
H3422 C3432 0.930 . S
H3423 C3435 0.929 . S
H3424 C3438 0.930 . S
H3425 C3440 0.960 . S
H3426 C3440 0.960 . S
H3427 C3440 0.960 . S
C3428 H3420 0.929 . S
C3428 C3429 1.377 . S
C3428 C3430 1.384 . S
C3429 C3428 1.377 . S
C3429 C3435 1.390 . S
C3430 H3421 0.930 . S
C3430 C3428 1.384 . S
C3430 C3431 1.372 . S
C3431 C3430 1.372 . S
C3431 C3432 1.400 . S
C3431 C3436 1.490 . S
C3432 H3422 0.930 . S
C3432 C3431 1.400 . S
C3432 C3435 1.386 . S
H3433 C3449 0.930 . S
H3434 C3450 0.931 . S
C3435 H3423 0.929 . S
C3435 C3429 1.390 . S
C3435 C3432 1.386 . S
C3436 C3431 1.490 . S
C3436 C3438 1.395 . S
C3436 C3439 1.403 . S
H3437 C3443 0.930 . S
C3438 H3424 0.930 . S
C3438 C3436 1.395 . S
C3438 C3441 1.403 . S
C3439 C3436 1.403 . S
C3439 C3440 1.524 . S
C3439 C3443 1.400 . S
C3440 H3425 0.960 . S
C3440 H3426 0.960 . S
C3440 H3427 0.960 . S
C3440 C3439 1.524 . S
C3441 C3438 1.403 . S
C3441 C3442 1.392 . S
C3441 C3445 1.495 . S
C3442 C3441 1.392 . S
C3442 C3443 1.385 . S
C3442 C3444 1.478 . S
C3443 H3437 0.930 . S
C3443 C3439 1.400 . S
C3443 C3442 1.385 . S
C3444 C3442 1.478 . S
C3444 C3446 1.381 . S
C3444 C3450 1.383 . S
C3445 C3441 1.495 . S
C3445 H3451 0.959 . S
C3445 H3452 0.961 . S
C3445 H3453 0.960 . S
C3446 C3444 1.381 . S
C3446 C3447 1.394 . S
C3446 H3454 0.930 . S
C3447 C3446 1.394 . S
C3447 C3448 1.383 . S
C3447 H3455 0.929 . S
C3448 C3447 1.383 . S
C3448 C3449 1.377 . S
C3449 H3433 0.930 . S
C3449 C3448 1.377 . S
C3449 C3450 1.379 . S
C3450 H3434 0.931 . S
C3450 C3444 1.383 . S
C3450 C3449 1.379 . S
H3451 C3445 0.959 . S
H3452 C3445 0.961 . S
H3453 C3445 0.960 . S
H3454 C3446 0.930 . S
H3455 C3447 0.929 . S
H3456 C3464 0.929 . S
H3457 C3466 0.930 . S
H3458 C3468 0.930 . S
H3459 C3471 0.929 . S
H3460 C3474 0.930 . S
H3461 C3476 0.960 . S
H3462 C3476 0.960 . S
H3463 C3476 0.960 . S
C3464 H3456 0.929 . S
C3464 C3465 1.377 . S
C3464 C3466 1.384 . S
C3465 C3464 1.377 . S
C3465 C3471 1.390 . S
C3466 H3457 0.930 . S
C3466 C3464 1.384 . S
C3466 C3467 1.372 . S
C3467 C3466 1.372 . S
C3467 C3468 1.400 . S
C3467 C3472 1.490 . S
C3468 H3458 0.930 . S
C3468 C3467 1.400 . S
C3468 C3471 1.386 . S
H3469 C3485 0.930 . S
H3470 C3486 0.931 . S
C3471 H3459 0.929 . S
C3471 C3465 1.390 . S
C3471 C3468 1.386 . S
C3472 C3467 1.490 . S
C3472 C3474 1.395 . S
C3472 C3475 1.403 . S
H3473 C3479 0.930 . S
C3474 H3460 0.930 . S
C3474 C3472 1.395 . S
C3474 C3477 1.403 . S
C3475 C3472 1.403 . S
C3475 C3476 1.524 . S
C3475 C3479 1.400 . S
C3476 H3461 0.960 . S
C3476 H3462 0.960 . S
C3476 H3463 0.960 . S
C3476 C3475 1.524 . S
C3477 C3474 1.403 . S
C3477 C3478 1.392 . S
C3477 C3481 1.495 . S
C3478 C3477 1.392 . S
C3478 C3479 1.385 . S
C3478 C3480 1.478 . S
C3479 H3473 0.930 . S
C3479 C3475 1.400 . S
C3479 C3478 1.385 . S
C3480 C3478 1.478 . S
C3480 C3482 1.381 . S
C3480 C3486 1.383 . S
C3481 C3477 1.495 . S
C3481 H3487 0.959 . S
C3481 H3488 0.961 . S
C3481 H3489 0.960 . S
C3482 C3480 1.381 . S
C3482 C3483 1.394 . S
C3482 H3490 0.930 . S
C3483 C3482 1.394 . S
C3483 C3484 1.383 . S
C3483 H3491 0.929 . S
C3484 C3483 1.383 . S
C3484 C3485 1.377 . S
C3485 H3469 0.930 . S
C3485 C3484 1.377 . S
C3485 C3486 1.379 . S
C3486 H3470 0.931 . S
C3486 C3480 1.383 . S
C3486 C3485 1.379 . S
H3487 C3481 0.959 . S
H3488 C3481 0.961 . S
H3489 C3481 0.960 . S
H3490 C3482 0.930 . S
H3491 C3483 0.929 . S
H3492 C3500 0.929 . S
H3493 C3502 0.930 . S
H3494 C3504 0.930 . S
H3495 C3507 0.929 . S
H3496 C3510 0.930 . S
H3497 C3512 0.960 . S
H3498 C3512 0.960 . S
H3499 C3512 0.960 . S
C3500 H3492 0.929 . S
C3500 C3501 1.377 . S
C3500 C3502 1.384 . S
C3501 C3500 1.377 . S
C3501 C3507 1.390 . S
C3502 H3493 0.930 . S
C3502 C3500 1.384 . S
C3502 C3503 1.372 . S
C3503 C3502 1.372 . S
C3503 C3504 1.400 . S
C3503 C3508 1.490 . S
C3504 H3494 0.930 . S
C3504 C3503 1.400 . S
C3504 C3507 1.386 . S
H3505 C3521 0.930 . S
H3506 C3522 0.931 . S
C3507 H3495 0.929 . S
C3507 C3501 1.390 . S
C3507 C3504 1.386 . S
C3508 C3503 1.490 . S
C3508 C3510 1.395 . S
C3508 C3511 1.403 . S
H3509 C3515 0.930 . S
C3510 H3496 0.930 . S
C3510 C3508 1.395 . S
C3510 C3513 1.403 . S
C3511 C3508 1.403 . S
C3511 C3512 1.524 . S
C3511 C3515 1.400 . S
C3512 H3497 0.960 . S
C3512 H3498 0.960 . S
C3512 H3499 0.960 . S
C3512 C3511 1.524 . S
C3513 C3510 1.403 . S
C3513 C3514 1.392 . S
C3513 C3517 1.495 . S
C3514 C3513 1.392 . S
C3514 C3515 1.385 . S
C3514 C3516 1.478 . S
C3515 H3509 0.930 . S
C3515 C3511 1.400 . S
C3515 C3514 1.385 . S
C3516 C3514 1.478 . S
C3516 C3518 1.381 . S
C3516 C3522 1.383 . S
C3517 C3513 1.495 . S
C3517 H3523 0.959 . S
C3517 H3524 0.961 . S
C3517 H3525 0.960 . S
C3518 C3516 1.381 . S
C3518 C3519 1.394 . S
C3518 H3526 0.930 . S
C3519 C3518 1.394 . S
C3519 C3520 1.383 . S
C3519 H3527 0.929 . S
C3520 C3519 1.383 . S
C3520 C3521 1.377 . S
C3521 H3505 0.930 . S
C3521 C3520 1.377 . S
C3521 C3522 1.379 . S
C3522 H3506 0.931 . S
C3522 C3516 1.383 . S
C3522 C3521 1.379 . S
H3523 C3517 0.959 . S
H3524 C3517 0.961 . S
H3525 C3517 0.960 . S
H3526 C3518 0.930 . S
H3527 C3519 0.929 . S
H3528 C3536 0.929 . S
H3529 C3538 0.930 . S
H3530 C3540 0.930 . S
H3531 C3543 0.929 . S
H3532 C3546 0.930 . S
H3533 C3548 0.960 . S
H3534 C3548 0.960 . S
H3535 C3548 0.960 . S
C3536 H3528 0.929 . S
C3536 C3537 1.377 . S
C3536 C3538 1.384 . S
C3537 C3536 1.377 . S
C3537 C3543 1.390 . S
C3538 H3529 0.930 . S
C3538 C3536 1.384 . S
C3538 C3539 1.372 . S
C3539 C3538 1.372 . S
C3539 C3540 1.400 . S
C3539 C3544 1.490 . S
C3540 H3530 0.930 . S
C3540 C3539 1.400 . S
C3540 C3543 1.386 . S
H3541 C3557 0.930 . S
H3542 C3558 0.931 . S
C3543 H3531 0.929 . S
C3543 C3537 1.390 . S
C3543 C3540 1.386 . S
C3544 C3539 1.490 . S
C3544 C3546 1.395 . S
C3544 C3547 1.403 . S
H3545 C3551 0.930 . S
C3546 H3532 0.930 . S
C3546 C3544 1.395 . S
C3546 C3549 1.403 . S
C3547 C3544 1.403 . S
C3547 C3548 1.524 . S
C3547 C3551 1.400 . S
C3548 H3533 0.960 . S
C3548 H3534 0.960 . S
C3548 H3535 0.960 . S
C3548 C3547 1.524 . S
C3549 C3546 1.403 . S
C3549 C3550 1.392 . S
C3549 C3553 1.495 . S
C3550 C3549 1.392 . S
C3550 C3551 1.385 . S
C3550 C3552 1.478 . S
C3551 H3545 0.930 . S
C3551 C3547 1.400 . S
C3551 C3550 1.385 . S
C3552 C3550 1.478 . S
C3552 C3554 1.381 . S
C3552 C3558 1.383 . S
C3553 C3549 1.495 . S
C3553 H3559 0.959 . S
C3553 H3560 0.961 . S
C3553 H3561 0.960 . S
C3554 C3552 1.381 . S
C3554 C3555 1.394 . S
C3554 H3562 0.930 . S
C3555 C3554 1.394 . S
C3555 C3556 1.383 . S
C3555 H3563 0.929 . S
C3556 C3555 1.383 . S
C3556 C3557 1.377 . S
C3557 H3541 0.930 . S
C3557 C3556 1.377 . S
C3557 C3558 1.379 . S
C3558 H3542 0.931 . S
C3558 C3552 1.383 . S
C3558 C3557 1.379 . S
H3559 C3553 0.959 . S
H3560 C3553 0.961 . S
H3561 C3553 0.960 . S
H3562 C3554 0.930 . S
H3563 C3555 0.929 . S
H3564 C3572 0.929 . S
H3565 C3574 0.930 . S
H3566 C3576 0.930 . S
H3567 C3579 0.929 . S
H3568 C3582 0.930 . S
H3569 C3584 0.960 . S
H3570 C3584 0.960 . S
H3571 C3584 0.960 . S
C3572 H3564 0.929 . S
C3572 C3573 1.377 . S
C3572 C3574 1.384 . S
C3573 C3572 1.377 . S
C3573 C3579 1.390 . S
C3574 H3565 0.930 . S
C3574 C3572 1.384 . S
C3574 C3575 1.372 . S
C3575 C3574 1.372 . S
C3575 C3576 1.400 . S
C3575 C3580 1.490 . S
C3576 H3566 0.930 . S
C3576 C3575 1.400 . S
C3576 C3579 1.386 . S
H3577 C3593 0.930 . S
H3578 C3594 0.931 . S
C3579 H3567 0.929 . S
C3579 C3573 1.390 . S
C3579 C3576 1.386 . S
C3580 C3575 1.490 . S
C3580 C3582 1.395 . S
C3580 C3583 1.403 . S
H3581 C3587 0.930 . S
C3582 H3568 0.930 . S
C3582 C3580 1.395 . S
C3582 C3585 1.403 . S
C3583 C3580 1.403 . S
C3583 C3584 1.524 . S
C3583 C3587 1.400 . S
C3584 H3569 0.960 . S
C3584 H3570 0.960 . S
C3584 H3571 0.960 . S
C3584 C3583 1.524 . S
C3585 C3582 1.403 . S
C3585 C3586 1.392 . S
C3585 C3589 1.495 . S
C3586 C3585 1.392 . S
C3586 C3587 1.385 . S
C3586 C3588 1.478 . S
C3587 H3581 0.930 . S
C3587 C3583 1.400 . S
C3587 C3586 1.385 . S
C3588 C3586 1.478 . S
C3588 C3590 1.381 . S
C3588 C3594 1.383 . S
C3589 C3585 1.495 . S
C3589 H3595 0.959 . S
C3589 H3596 0.961 . S
C3589 H3597 0.960 . S
C3590 C3588 1.381 . S
C3590 C3591 1.394 . S
C3590 H3598 0.930 . S
C3591 C3590 1.394 . S
C3591 C3592 1.383 . S
C3591 H3599 0.929 . S
C3592 C3591 1.383 . S
C3592 C3593 1.377 . S
C3593 H3577 0.930 . S
C3593 C3592 1.377 . S
C3593 C3594 1.379 . S
C3594 H3578 0.931 . S
C3594 C3588 1.383 . S
C3594 C3593 1.379 . S
H3595 C3589 0.959 . S
H3596 C3589 0.961 . S
H3597 C3589 0.960 . S
H3598 C3590 0.930 . S
H3599 C3591 0.929 . S
H3600 C3608 0.929 . S
H3601 C3610 0.930 . S
H3602 C3612 0.930 . S
H3603 C3615 0.929 . S
H3604 C3618 0.930 . S
H3605 C3620 0.960 . S
H3606 C3620 0.960 . S
H3607 C3620 0.960 . S
C3608 H3600 0.929 . S
C3608 C3609 1.377 . S
C3608 C3610 1.384 . S
C3609 C3608 1.377 . S
C3609 C3615 1.390 . S
C3610 H3601 0.930 . S
C3610 C3608 1.384 . S
C3610 C3611 1.372 . S
C3611 C3610 1.372 . S
C3611 C3612 1.400 . S
C3611 C3616 1.490 . S
C3612 H3602 0.930 . S
C3612 C3611 1.400 . S
C3612 C3615 1.386 . S
H3613 C3629 0.930 . S
H3614 C3630 0.931 . S
C3615 H3603 0.929 . S
C3615 C3609 1.390 . S
C3615 C3612 1.386 . S
C3616 C3611 1.490 . S
C3616 C3618 1.395 . S
C3616 C3619 1.403 . S
H3617 C3623 0.930 . S
C3618 H3604 0.930 . S
C3618 C3616 1.395 . S
C3618 C3621 1.403 . S
C3619 C3616 1.403 . S
C3619 C3620 1.524 . S
C3619 C3623 1.400 . S
C3620 H3605 0.960 . S
C3620 H3606 0.960 . S
C3620 H3607 0.960 . S
C3620 C3619 1.524 . S
C3621 C3618 1.403 . S
C3621 C3622 1.392 . S
C3621 C3625 1.495 . S
C3622 C3621 1.392 . S
C3622 C3623 1.385 . S
C3622 C3624 1.478 . S
C3623 H3617 0.930 . S
C3623 C3619 1.400 . S
C3623 C3622 1.385 . S
C3624 C3622 1.478 . S
C3624 C3626 1.381 . S
C3624 C3630 1.383 . S
C3625 C3621 1.495 . S
C3625 H3631 0.959 . S
C3625 H3632 0.961 . S
C3625 H3633 0.960 . S
C3626 C3624 1.381 . S
C3626 C3627 1.394 . S
C3626 H3634 0.930 . S
C3627 C3626 1.394 . S
C3627 C3628 1.383 . S
C3627 H3635 0.929 . S
C3628 C3627 1.383 . S
C3628 C3629 1.377 . S
C3629 H3613 0.930 . S
C3629 C3628 1.377 . S
C3629 C3630 1.379 . S
C3630 H3614 0.931 . S
C3630 C3624 1.383 . S
C3630 C3629 1.379 . S
H3631 C3625 0.959 . S
H3632 C3625 0.961 . S
H3633 C3625 0.960 . S
H3634 C3626 0.930 . S
H3635 C3627 0.929 . S
H3636 C3644 0.929 . S
H3637 C3646 0.930 . S
H3638 C3648 0.930 . S
H3639 C3651 0.929 . S
H3640 C3654 0.930 . S
H3641 C3656 0.960 . S
H3642 C3656 0.960 . S
H3643 C3656 0.960 . S
C3644 H3636 0.929 . S
C3644 C3645 1.377 . S
C3644 C3646 1.384 . S
C3645 C3644 1.377 . S
C3645 C3651 1.390 . S
C3646 H3637 0.930 . S
C3646 C3644 1.384 . S
C3646 C3647 1.372 . S
C3647 C3646 1.372 . S
C3647 C3648 1.400 . S
C3647 C3652 1.490 . S
C3648 H3638 0.930 . S
C3648 C3647 1.400 . S
C3648 C3651 1.386 . S
H3649 C3665 0.930 . S
H3650 C3666 0.931 . S
C3651 H3639 0.929 . S
C3651 C3645 1.390 . S
C3651 C3648 1.386 . S
C3652 C3647 1.490 . S
C3652 C3654 1.395 . S
C3652 C3655 1.403 . S
H3653 C3659 0.930 . S
C3654 H3640 0.930 . S
C3654 C3652 1.395 . S
C3654 C3657 1.403 . S
C3655 C3652 1.403 . S
C3655 C3656 1.524 . S
C3655 C3659 1.400 . S
C3656 H3641 0.960 . S
C3656 H3642 0.960 . S
C3656 H3643 0.960 . S
C3656 C3655 1.524 . S
C3657 C3654 1.403 . S
C3657 C3658 1.392 . S
C3657 C3661 1.495 . S
C3658 C3657 1.392 . S
C3658 C3659 1.385 . S
C3658 C3660 1.478 . S
C3659 H3653 0.930 . S
C3659 C3655 1.400 . S
C3659 C3658 1.385 . S
C3660 C3658 1.478 . S
C3660 C3662 1.381 . S
C3660 C3666 1.383 . S
C3661 C3657 1.495 . S
C3661 H3667 0.959 . S
C3661 H3668 0.961 . S
C3661 H3669 0.960 . S
C3662 C3660 1.381 . S
C3662 C3663 1.394 . S
C3662 H3670 0.930 . S
C3663 C3662 1.394 . S
C3663 C3664 1.383 . S
C3663 H3671 0.929 . S
C3664 C3663 1.383 . S
C3664 C3665 1.377 . S
C3665 H3649 0.930 . S
C3665 C3664 1.377 . S
C3665 C3666 1.379 . S
C3666 H3650 0.931 . S
C3666 C3660 1.383 . S
C3666 C3665 1.379 . S
H3667 C3661 0.959 . S
H3668 C3661 0.961 . S
H3669 C3661 0.960 . S
H3670 C3662 0.930 . S
H3671 C3663 0.929 . S
H3672 C3680 0.929 . S
H3673 C3682 0.930 . S
H3674 C3684 0.930 . S
H3675 C3687 0.929 . S
H3676 C3690 0.930 . S
H3677 C3692 0.960 . S
H3678 C3692 0.960 . S
H3679 C3692 0.960 . S
C3680 H3672 0.929 . S
C3680 C3681 1.377 . S
C3680 C3682 1.384 . S
C3681 C3680 1.377 . S
C3681 C3687 1.390 . S
C3682 H3673 0.930 . S
C3682 C3680 1.384 . S
C3682 C3683 1.372 . S
C3683 C3682 1.372 . S
C3683 C3684 1.400 . S
C3683 C3688 1.490 . S
C3684 H3674 0.930 . S
C3684 C3683 1.400 . S
C3684 C3687 1.386 . S
H3685 C3701 0.930 . S
H3686 C3702 0.931 . S
C3687 H3675 0.929 . S
C3687 C3681 1.390 . S
C3687 C3684 1.386 . S
C3688 C3683 1.490 . S
C3688 C3690 1.395 . S
C3688 C3691 1.403 . S
H3689 C3695 0.930 . S
C3690 H3676 0.930 . S
C3690 C3688 1.395 . S
C3690 C3693 1.403 . S
C3691 C3688 1.403 . S
C3691 C3692 1.524 . S
C3691 C3695 1.400 . S
C3692 H3677 0.960 . S
C3692 H3678 0.960 . S
C3692 H3679 0.960 . S
C3692 C3691 1.524 . S
C3693 C3690 1.403 . S
C3693 C3694 1.392 . S
C3693 C3697 1.495 . S
C3694 C3693 1.392 . S
C3694 C3695 1.385 . S
C3694 C3696 1.478 . S
C3695 H3689 0.930 . S
C3695 C3691 1.400 . S
C3695 C3694 1.385 . S
C3696 C3694 1.478 . S
C3696 C3698 1.381 . S
C3696 C3702 1.383 . S
C3697 C3693 1.495 . S
C3697 H3703 0.959 . S
C3697 H3704 0.961 . S
C3697 H3705 0.960 . S
C3698 C3696 1.381 . S
C3698 C3699 1.394 . S
C3698 H3706 0.930 . S
C3699 C3698 1.394 . S
C3699 C3700 1.383 . S
C3699 H3707 0.929 . S
C3700 C3699 1.383 . S
C3700 C3701 1.377 . S
C3701 H3685 0.930 . S
C3701 C3700 1.377 . S
C3701 C3702 1.379 . S
C3702 H3686 0.931 . S
C3702 C3696 1.383 . S
C3702 C3701 1.379 . S
H3703 C3697 0.959 . S
H3704 C3697 0.961 . S
H3705 C3697 0.960 . S
H3706 C3698 0.930 . S
H3707 C3699 0.929 . S
H3708 C3716 0.929 . S
H3709 C3718 0.930 . S
H3710 C3720 0.930 . S
H3711 C3723 0.929 . S
H3712 C3726 0.930 . S
H3713 C3728 0.960 . S
H3714 C3728 0.960 . S
H3715 C3728 0.960 . S
C3716 H3708 0.929 . S
C3716 C3717 1.377 . S
C3716 C3718 1.384 . S
C3717 C3716 1.377 . S
C3717 C3723 1.390 . S
C3718 H3709 0.930 . S
C3718 C3716 1.384 . S
C3718 C3719 1.372 . S
C3719 C3718 1.372 . S
C3719 C3720 1.400 . S
C3719 C3724 1.490 . S
C3720 H3710 0.930 . S
C3720 C3719 1.400 . S
C3720 C3723 1.386 . S
H3721 C3737 0.930 . S
H3722 C3738 0.931 . S
C3723 H3711 0.929 . S
C3723 C3717 1.390 . S
C3723 C3720 1.386 . S
C3724 C3719 1.490 . S
C3724 C3726 1.395 . S
C3724 C3727 1.403 . S
H3725 C3731 0.930 . S
C3726 H3712 0.930 . S
C3726 C3724 1.395 . S
C3726 C3729 1.403 . S
C3727 C3724 1.403 . S
C3727 C3728 1.524 . S
C3727 C3731 1.400 . S
C3728 H3713 0.960 . S
C3728 H3714 0.960 . S
C3728 H3715 0.960 . S
C3728 C3727 1.524 . S
C3729 C3726 1.403 . S
C3729 C3730 1.392 . S
C3729 C3733 1.495 . S
C3730 C3729 1.392 . S
C3730 C3731 1.385 . S
C3730 C3732 1.478 . S
C3731 H3725 0.930 . S
C3731 C3727 1.400 . S
C3731 C3730 1.385 . S
C3732 C3730 1.478 . S
C3732 C3734 1.381 . S
C3732 C3738 1.383 . S
C3733 C3729 1.495 . S
C3733 H3739 0.959 . S
C3733 H3740 0.961 . S
C3733 H3741 0.960 . S
C3734 C3732 1.381 . S
C3734 C3735 1.394 . S
C3734 H3742 0.930 . S
C3735 C3734 1.394 . S
C3735 C3736 1.383 . S
C3735 H3743 0.929 . S
C3736 C3735 1.383 . S
C3736 C3737 1.377 . S
C3737 H3721 0.930 . S
C3737 C3736 1.377 . S
C3737 C3738 1.379 . S
C3738 H3722 0.931 . S
C3738 C3732 1.383 . S
C3738 C3737 1.379 . S
H3739 C3733 0.959 . S
H3740 C3733 0.961 . S
H3741 C3733 0.960 . S
H3742 C3734 0.930 . S
H3743 C3735 0.929 . S
H3744 C3752 0.929 . S
H3745 C3754 0.930 . S
H3746 C3756 0.930 1_455 S
H3747 C3759 0.929 . S
H3748 C3762 0.934 . S
H3749 C3764 0.960 . S
H3750 C3764 0.960 . S
H3751 C3764 0.960 . S
C3752 H3744 0.929 . S
C3752 C3753 1.377 . S
C3752 C3754 1.384 . S
C3753 C3752 1.377 . S
C3753 C3759 1.390 . S
C3754 H3745 0.930 . S
C3754 C3752 1.384 . S
C3754 C3755 1.372 . S
C3755 C3754 1.372 . S
C3755 C3756 1.400 . S
C3755 C3760 1.490 . S
C3756 H3746 0.930 1_655 S
C3756 C3755 1.400 . S
C3756 C3759 1.386 . S
H3757 C3773 0.930 . S
H3758 C3774 0.931 . S
C3759 H3747 0.929 . S
C3759 C3753 1.390 . S
C3759 C3756 1.386 . S
C3760 C3755 1.490 . S
C3760 C3762 1.358 1_655 S
C3760 C3763 1.403 . S
H3761 C3767 0.930 . S
C3762 H3748 0.934 . S
C3762 C3760 1.358 1_455 S
C3762 C3765 1.423 . S
C3763 C3760 1.403 . S
C3763 C3764 1.524 . S
C3763 C3767 1.400 1_655 S
C3764 H3749 0.960 . S
C3764 H3750 0.960 . S
C3764 H3751 0.960 . S
C3764 C3763 1.524 . S
C3765 C3762 1.423 . S
C3765 C3766 1.392 . S
C3765 C3769 1.495 . S
C3766 C3765 1.392 . S
C3766 C3767 1.385 . S
C3766 C3768 1.478 . S
C3767 H3761 0.930 . S
C3767 C3763 1.400 1_455 S
C3767 C3766 1.385 . S
C3768 C3766 1.478 . S
C3768 C3770 1.381 . S
C3768 C3774 1.383 . S
C3769 C3765 1.495 . S
C3769 H3775 0.959 . S
C3769 H3776 0.961 . S
C3769 H3777 0.960 . S
C3770 C3768 1.381 . S
C3770 C3771 1.394 . S
C3770 H3778 0.930 1_455 S
C3771 C3770 1.394 . S
C3771 C3772 1.383 . S
C3771 H3779 0.929 . S
C3772 C3771 1.383 . S
C3772 C3773 1.377 . S
C3773 H3757 0.930 . S
C3773 C3772 1.377 . S
C3773 C3774 1.379 . S
C3774 H3758 0.931 . S
C3774 C3768 1.383 . S
C3774 C3773 1.379 . S
H3775 C3769 0.959 . S
H3776 C3769 0.961 . S
H3777 C3769 0.960 . S
H3778 C3770 0.930 1_655 S
H3779 C3771 0.929 . S
H3780 C3788 0.929 . S
H3781 C3790 0.930 . S
H3782 C3792 0.930 . S
H3783 C3795 0.929 . S
H3784 C3798 0.930 . S
H3785 C3800 0.960 . S
H3786 C3800 0.960 . S
H3787 C3800 0.960 . S
C3788 H3780 0.929 . S
C3788 C3789 1.377 . S
C3788 C3790 1.384 . S
C3789 C3788 1.377 . S
C3789 C3795 1.390 . S
C3790 H3781 0.930 . S
C3790 C3788 1.384 . S
C3790 C3791 1.372 . S
C3791 C3790 1.372 . S
C3791 C3792 1.400 . S
C3791 C3796 1.490 . S
C3792 H3782 0.930 . S
C3792 C3791 1.400 . S
C3792 C3795 1.386 . S
H3793 C3809 0.930 . S
H3794 C3810 0.931 . S
C3795 H3783 0.929 . S
C3795 C3789 1.390 . S
C3795 C3792 1.386 . S
C3796 C3791 1.490 . S
C3796 C3798 1.395 . S
C3796 C3799 1.403 . S
H3797 C3803 0.930 . S
C3798 H3784 0.930 . S
C3798 C3796 1.395 . S
C3798 C3801 1.403 . S
C3799 C3796 1.403 . S
C3799 C3800 1.524 . S
C3799 C3803 1.400 . S
C3800 H3785 0.960 . S
C3800 H3786 0.960 . S
C3800 H3787 0.960 . S
C3800 C3799 1.524 . S
C3801 C3798 1.403 . S
C3801 C3802 1.392 . S
C3801 C3805 1.495 . S
C3802 C3801 1.392 . S
C3802 C3803 1.385 . S
C3802 C3804 1.478 . S
C3803 H3797 0.930 . S
C3803 C3799 1.400 . S
C3803 C3802 1.385 . S
C3804 C3802 1.478 . S
C3804 C3806 1.381 . S
C3804 C3810 1.383 . S
C3805 C3801 1.495 . S
C3805 H3811 0.959 . S
C3805 H3812 0.961 . S
C3805 H3813 0.960 . S
C3806 C3804 1.381 . S
C3806 C3807 1.394 . S
C3806 H3814 0.930 . S
C3807 C3806 1.394 . S
C3807 C3808 1.383 . S
C3807 H3815 0.929 . S
C3808 C3807 1.383 . S
C3808 C3809 1.377 . S
C3809 H3793 0.930 . S
C3809 C3808 1.377 . S
C3809 C3810 1.379 . S
C3810 H3794 0.931 . S
C3810 C3804 1.383 . S
C3810 C3809 1.379 . S
H3811 C3805 0.959 . S
H3812 C3805 0.961 . S
H3813 C3805 0.960 . S
H3814 C3806 0.930 . S
H3815 C3807 0.929 . S
H3816 C3824 0.929 . S
H3817 C3826 0.930 . S
H3818 C3828 0.930 . S
H3819 C3831 0.929 . S
H3820 C3834 0.930 . S
H3821 C3836 0.960 . S
H3822 C3836 0.960 . S
H3823 C3836 0.960 . S
C3824 H3816 0.929 . S
C3824 C3825 1.377 . S
C3824 C3826 1.384 . S
C3825 C3824 1.377 . S
C3825 C3831 1.390 . S
C3826 H3817 0.930 . S
C3826 C3824 1.384 . S
C3826 C3827 1.372 . S
C3827 C3826 1.372 . S
C3827 C3828 1.400 . S
C3827 C3832 1.490 . S
C3828 H3818 0.930 . S
C3828 C3827 1.400 . S
C3828 C3831 1.386 . S
H3829 C3845 0.930 . S
H3830 C3846 0.931 . S
C3831 H3819 0.929 . S
C3831 C3825 1.390 . S
C3831 C3828 1.386 . S
C3832 C3827 1.490 . S
C3832 C3834 1.395 . S
C3832 C3835 1.403 1_545 S
H3833 C3839 0.930 . S
C3834 H3820 0.930 . S
C3834 C3832 1.395 . S
C3834 C3837 1.403 . S
C3835 C3832 1.403 1_565 S
C3835 C3836 1.524 . S
C3835 C3839 1.400 . S
C3836 H3821 0.960 . S
C3836 H3822 0.960 . S
C3836 H3823 0.960 . S
C3836 C3835 1.524 . S
C3837 C3834 1.403 . S
C3837 C3838 1.392 1_545 S
C3837 C3841 1.495 . S
C3838 C3837 1.392 1_565 S
C3838 C3839 1.385 . S
C3838 C3840 1.478 . S
C3839 H3833 0.930 . S
C3839 C3835 1.400 . S
C3839 C3838 1.385 . S
C3840 C3838 1.478 . S
C3840 C3842 1.381 . S
C3840 C3846 1.383 . S
C3841 C3837 1.495 . S
C3841 H3847 0.959 . S
C3841 H3848 0.961 . S
C3841 H3849 0.960 . S
C3842 C3840 1.381 . S
C3842 C3843 1.394 . S
C3842 H3850 0.930 . S
C3843 C3842 1.394 . S
C3843 C3844 1.383 . S
C3843 H3851 0.929 . S
C3844 C3843 1.383 . S
C3844 C3845 1.377 . S
C3845 H3829 0.930 . S
C3845 C3844 1.377 . S
C3845 C3846 1.379 . S
C3846 H3830 0.931 . S
C3846 C3840 1.383 . S
C3846 C3845 1.379 . S
H3847 C3841 0.959 . S
H3848 C3841 0.961 . S
H3849 C3841 0.960 . S
H3850 C3842 0.930 . S
H3851 C3843 0.929 . S
H3852 C3860 0.929 . S
H3853 C3862 0.930 . S
H3854 C3864 0.930 1_565 S
H3855 C3867 0.929 . S
H3856 C3870 0.930 . S
H3857 C3872 0.961 . S
H3858 C3872 0.959 1_545 S
H3859 C3872 0.961 . S
C3860 H3852 0.929 . S
C3860 C3861 1.377 . S
C3860 C3862 1.384 . S
C3861 C3860 1.377 . S
C3861 C3867 1.390 . S
C3862 H3853 0.930 . S
C3862 C3860 1.384 . S
C3862 C3863 1.372 . S
C3863 C3862 1.372 . S
C3863 C3864 1.400 . S
C3863 C3868 1.490 . S
C3864 H3854 0.930 1_545 S
C3864 C3863 1.400 . S
C3864 C3867 1.386 . S
H3865 C3881 0.930 . S
H3866 C3882 0.931 . S
C3867 H3855 0.929 . S
C3867 C3861 1.390 . S
C3867 C3864 1.386 . S
C3868 C3863 1.490 . S
C3868 C3870 1.395 . S
C3868 C3871 1.403 . S
H3869 C3875 0.930 . S
C3870 H3856 0.930 . S
C3870 C3868 1.395 . S
C3870 C3873 1.403 . S
C3871 C3868 1.403 . S
C3871 C3872 1.523 1_545 S
C3871 C3875 1.400 1_545 S
C3872 H3857 0.961 . S
C3872 H3858 0.959 1_565 S
C3872 H3859 0.961 . S
C3872 C3871 1.523 1_565 S
C3873 C3870 1.403 . S
C3873 C3874 1.392 1_545 S
C3873 C3877 1.495 . S
C3874 C3873 1.392 1_565 S
C3874 C3875 1.385 . S
C3874 C3876 1.478 . S
C3875 H3869 0.930 . S
C3875 C3871 1.400 1_565 S
C3875 C3874 1.385 . S
C3876 C3874 1.478 . S
C3876 C3878 1.381 . S
C3876 C3882 1.383 . S
C3877 C3873 1.495 . S
C3877 H3883 0.959 . S
C3877 H3884 0.961 1_545 S
C3877 H3885 0.960 . S
C3878 C3876 1.381 . S
C3878 C3879 1.394 . S
C3878 H3886 0.930 1_565 S
C3879 C3878 1.394 . S
C3879 C3880 1.383 . S
C3879 H3887 0.935 . S
C3880 C3879 1.383 . S
C3880 C3881 1.377 . S
C3881 H3865 0.930 . S
C3881 C3880 1.377 . S
C3881 C3882 1.379 . S
C3882 H3866 0.931 . S
C3882 C3876 1.383 . S
C3882 C3881 1.379 . S
H3883 C3877 0.959 . S
H3884 C3877 0.961 1_565 S
H3885 C3877 0.960 . S
H3886 C3878 0.930 1_545 S
H3887 C3879 0.935 . S
H3888 C3896 0.929 . S
H3889 C3898 0.930 . S
H3890 C3900 0.930 1_655 S
H3891 C3903 0.929 . S
H3892 C3906 0.930 . S
H3893 C3908 0.960 . S
H3894 C3908 0.960 . S
H3895 C3908 0.960 . S
C3896 H3888 0.929 . S
C3896 C3897 1.377 . S
C3896 C3898 1.384 . S
C3897 C3896 1.377 . S
C3897 C3903 1.390 . S
C3898 H3889 0.930 . S
C3898 C3896 1.384 . S
C3898 C3899 1.372 . S
C3899 C3898 1.372 . S
C3899 C3900 1.400 . S
C3899 C3904 1.490 . S
C3900 H3890 0.930 1_455 S
C3900 C3899 1.400 . S
C3900 C3903 1.386 . S
H3901 C3917 0.930 . S
H3902 C3918 0.931 . S
C3903 H3891 0.929 . S
C3903 C3897 1.390 . S
C3903 C3900 1.386 . S
C3904 C3899 1.490 . S
C3904 C3906 1.395 . S
C3904 C3907 1.403 1_455 S
H3905 C3911 0.930 . S
C3906 H3892 0.930 . S
C3906 C3904 1.395 . S
C3906 C3909 1.403 . S
C3907 C3904 1.403 1_655 S
C3907 C3908 1.524 . S
C3907 C3911 1.400 . S
C3908 H3893 0.960 . S
C3908 H3894 0.960 . S
C3908 H3895 0.960 . S
C3908 C3907 1.524 . S
C3909 C3906 1.403 . S
C3909 C3910 1.392 1_455 S
C3909 C3913 1.495 . S
C3910 C3909 1.392 1_655 S
C3910 C3911 1.385 . S
C3910 C3912 1.478 . S
C3911 H3905 0.930 . S
C3911 C3907 1.400 . S
C3911 C3910 1.385 . S
C3912 C3910 1.478 . S
C3912 C3914 1.381 . S
C3912 C3918 1.383 . S
C3913 C3909 1.495 . S
C3913 H3919 0.959 . S
C3913 H3920 0.961 . S
C3913 H3921 0.960 . S
C3914 C3912 1.381 . S
C3914 C3915 1.394 . S
C3914 H3922 0.930 1_655 S
C3915 C3914 1.394 . S
C3915 C3916 1.383 . S
C3915 H3923 0.929 . S
C3916 C3915 1.383 . S
C3916 C3917 1.377 . S
C3917 H3901 0.930 . S
C3917 C3916 1.377 . S
C3917 C3918 1.379 . S
C3918 H3902 0.931 . S
C3918 C3912 1.383 . S
C3918 C3917 1.379 . S
H3919 C3913 0.959 . S
H3920 C3913 0.961 . S
H3921 C3913 0.960 . S
H3922 C3914 0.930 1_455 S
H3923 C3915 0.929 . S
H3924 C3932 0.929 . S
H3925 C3934 0.930 . S
H3926 C3936 0.930 . S
H3927 C3939 0.929 . S
H3928 C3942 0.930 . S
H3929 C3944 0.960 . S
H3930 C3944 0.960 . S
H3931 C3944 0.960 . S
C3932 H3924 0.929 . S
C3932 C3933 1.377 . S
C3932 C3934 1.384 . S
C3933 C3932 1.377 . S
C3933 C3939 1.390 . S
C3934 H3925 0.930 . S
C3934 C3932 1.384 . S
C3934 C3935 1.372 . S
C3935 C3934 1.372 . S
C3935 C3936 1.400 . S
C3935 C3940 1.490 . S
C3936 H3926 0.930 . S
C3936 C3935 1.400 . S
C3936 C3939 1.386 . S
H3937 C3953 0.930 . S
H3938 C3954 0.931 . S
C3939 H3927 0.929 . S
C3939 C3933 1.390 . S
C3939 C3936 1.386 . S
C3940 C3935 1.490 . S
C3940 C3942 1.395 . S
C3940 C3943 1.403 . S
H3941 C3947 0.930 . S
C3942 H3928 0.930 . S
C3942 C3940 1.395 . S
C3942 C3945 1.403 . S
C3943 C3940 1.403 . S
C3943 C3944 1.524 . S
C3943 C3947 1.400 . S
C3944 H3929 0.960 . S
C3944 H3930 0.960 . S
C3944 H3931 0.960 . S
C3944 C3943 1.524 . S
C3945 C3942 1.403 . S
C3945 C3946 1.392 . S
C3945 C3949 1.495 . S
C3946 C3945 1.392 . S
C3946 C3947 1.385 . S
C3946 C3948 1.478 . S
C3947 H3941 0.930 . S
C3947 C3943 1.400 . S
C3947 C3946 1.385 . S
C3948 C3946 1.478 . S
C3948 C3950 1.381 . S
C3948 C3954 1.383 . S
C3949 C3945 1.495 . S
C3949 H3955 0.959 . S
C3949 H3956 0.961 . S
C3949 H3957 0.960 . S
C3950 C3948 1.381 . S
C3950 C3951 1.394 . S
C3950 H3958 0.930 . S
C3951 C3950 1.394 . S
C3951 C3952 1.383 . S
C3951 H3959 0.929 . S
C3952 C3951 1.383 . S
C3952 C3953 1.377 . S
C3953 H3937 0.930 . S
C3953 C3952 1.377 . S
C3953 C3954 1.379 . S
C3954 H3938 0.931 . S
C3954 C3948 1.383 . S
C3954 C3953 1.379 . S
H3955 C3949 0.959 . S
H3956 C3949 0.961 . S
H3957 C3949 0.960 . S
H3958 C3950 0.930 . S
H3959 C3951 0.929 . S
H3960 C3968 0.929 . S
H3961 C3970 0.930 . S
H3962 C3972 0.930 . S
H3963 C3975 0.929 . S
H3964 C3978 0.930 . S
H3965 C3980 0.960 . S
H3966 C3980 0.960 . S
H3967 C3980 0.960 1_655 S
C3968 H3960 0.929 . S
C3968 C3969 1.377 . S
C3968 C3970 1.384 . S
C3969 C3968 1.377 . S
C3969 C3975 1.390 . S
C3970 H3961 0.930 . S
C3970 C3968 1.384 . S
C3970 C3971 1.372 . S
C3971 C3970 1.372 . S
C3971 C3972 1.400 . S
C3971 C3976 1.490 . S
C3972 H3962 0.930 . S
C3972 C3971 1.400 . S
C3972 C3975 1.386 . S
H3973 C3989 0.930 . S
H3974 C3990 0.931 . S
C3975 H3963 0.929 . S
C3975 C3969 1.390 . S
C3975 C3972 1.386 . S
C3976 C3971 1.490 . S
C3976 C3978 1.395 . S
C3976 C3979 1.403 1_655 S
H3977 C3983 0.930 . S
C3978 H3964 0.930 . S
C3978 C3976 1.395 . S
C3978 C3981 1.403 . S
C3979 C3976 1.403 1_455 S
C3979 C3980 1.524 . S
C3979 C3983 1.400 . S
C3980 H3965 0.960 . S
C3980 H3966 0.960 . S
C3980 H3967 0.960 1_455 S
C3980 C3979 1.524 . S
C3981 C3978 1.403 . S
C3981 C3982 1.392 1_655 S
C3981 C3985 1.495 . S
C3982 C3981 1.392 1_455 S
C3982 C3983 1.385 . S
C3982 C3984 1.478 . S
C3983 H3977 0.930 . S
C3983 C3979 1.400 . S
C3983 C3982 1.385 . S
C3984 C3982 1.478 . S
C3984 C3986 1.381 . S
C3984 C3990 1.383 . S
C3985 C3981 1.495 . S
C3985 H3991 0.959 . S
C3985 H3992 0.961 . S
C3985 H3993 0.960 1_655 S
C3986 C3984 1.381 . S
C3986 C3987 1.394 . S
C3986 H3994 0.930 . S
C3987 C3986 1.394 . S
C3987 C3988 1.383 . S
C3987 H3995 0.929 . S
C3988 C3987 1.383 . S
C3988 C3989 1.377 . S
C3989 H3973 0.930 . S
C3989 C3988 1.377 . S
C3989 C3990 1.379 . S
C3990 H3974 0.931 . S
C3990 C3984 1.383 . S
C3990 C3989 1.379 . S
H3991 C3985 0.959 . S
H3992 C3985 0.961 . S
H3993 C3985 0.960 1_455 S
H3994 C3986 0.930 . S
H3995 C3987 0.929 . S
H3996 C4004 0.929 . S
H3997 C4006 0.930 . S
H3998 C4008 0.930 . S
H3999 C4011 0.929 . S
H4000 C4014 0.930 . S
H4001 C4016 0.960 . S
H4002 C4016 0.960 . S
H4003 C4016 0.960 . S
C4004 H3996 0.929 . S
C4004 C4005 1.377 . S
C4004 C4006 1.384 . S
C4005 C4004 1.377 . S
C4005 C4011 1.390 . S
C4006 H3997 0.930 . S
C4006 C4004 1.384 . S
C4006 C4007 1.372 . S
C4007 C4006 1.372 . S
C4007 C4008 1.400 . S
C4007 C4012 1.490 . S
C4008 H3998 0.930 . S
C4008 C4007 1.400 . S
C4008 C4011 1.386 . S
H4009 C4025 0.930 . S
H4010 C4026 0.931 . S
C4011 H3999 0.929 . S
C4011 C4005 1.390 . S
C4011 C4008 1.386 . S
C4012 C4007 1.490 . S
C4012 C4014 1.395 . S
C4012 C4015 1.403 . S
H4013 C4019 0.930 . S
C4014 H4000 0.930 . S
C4014 C4012 1.395 . S
C4014 C4017 1.403 . S
C4015 C4012 1.403 . S
C4015 C4016 1.524 . S
C4015 C4019 1.400 . S
C4016 H4001 0.960 . S
C4016 H4002 0.960 . S
C4016 H4003 0.960 . S
C4016 C4015 1.524 . S
C4017 C4014 1.403 . S
C4017 C4018 1.392 . S
C4017 C4021 1.495 . S
C4018 C4017 1.392 . S
C4018 C4019 1.385 . S
C4018 C4020 1.478 . S
C4019 H4013 0.930 . S
C4019 C4015 1.400 . S
C4019 C4018 1.385 . S
C4020 C4018 1.478 . S
C4020 C4022 1.381 . S
C4020 C4026 1.383 . S
C4021 C4017 1.495 . S
C4021 H4027 0.959 . S
C4021 H4028 0.961 . S
C4021 H4029 0.960 . S
C4022 C4020 1.381 . S
C4022 C4023 1.394 . S
C4022 H4030 0.930 . S
C4023 C4022 1.394 . S
C4023 C4024 1.383 . S
C4023 H4031 0.929 . S
C4024 C4023 1.383 . S
C4024 C4025 1.377 . S
C4025 H4009 0.930 . S
C4025 C4024 1.377 . S
C4025 C4026 1.379 . S
C4026 H4010 0.931 . S
C4026 C4020 1.383 . S
C4026 C4025 1.379 . S
H4027 C4021 0.959 . S
H4028 C4021 0.961 . S
H4029 C4021 0.960 . S
H4030 C4022 0.930 . S
H4031 C4023 0.929 . S
H4032 C4040 0.929 . S
H4033 C4042 0.930 . S
H4034 C4044 0.930 . S
H4035 C4047 0.929 . S
H4036 C4050 0.930 . S
H4037 C4052 0.960 . S
H4038 C4052 0.960 . S
H4039 C4052 0.960 . S
C4040 H4032 0.929 . S
C4040 C4041 1.377 . S
C4040 C4042 1.384 . S
C4041 C4040 1.377 . S
C4041 C4047 1.390 . S
C4042 H4033 0.930 . S
C4042 C4040 1.384 . S
C4042 C4043 1.372 . S
C4043 C4042 1.372 . S
C4043 C4044 1.400 . S
C4043 C4048 1.490 . S
C4044 H4034 0.930 . S
C4044 C4043 1.400 . S
C4044 C4047 1.386 . S
H4045 C4061 0.930 . S
H4046 C4062 0.931 . S
C4047 H4035 0.929 . S
C4047 C4041 1.390 . S
C4047 C4044 1.386 . S
C4048 C4043 1.490 . S
C4048 C4050 1.395 . S
C4048 C4051 1.403 1_545 S
H4049 C4055 0.930 . S
C4050 H4036 0.930 . S
C4050 C4048 1.395 . S
C4050 C4053 1.403 . S
C4051 C4048 1.403 1_565 S
C4051 C4052 1.524 . S
C4051 C4055 1.400 . S
C4052 H4037 0.960 . S
C4052 H4038 0.960 . S
C4052 H4039 0.960 . S
C4052 C4051 1.524 . S
C4053 C4050 1.403 . S
C4053 C4054 1.392 1_545 S
C4053 C4057 1.495 . S
C4054 C4053 1.392 1_565 S
C4054 C4055 1.385 . S
C4054 C4056 1.478 . S
C4055 H4049 0.930 . S
C4055 C4051 1.400 . S
C4055 C4054 1.385 . S
C4056 C4054 1.478 . S
C4056 C4058 1.381 . S
C4056 C4062 1.383 . S
C4057 C4053 1.495 . S
C4057 H4063 0.959 . S
C4057 H4064 0.961 . S
C4057 H4065 0.960 . S
C4058 C4056 1.381 . S
C4058 C4059 1.394 . S
C4058 H4066 0.930 . S
C4059 C4058 1.394 . S
C4059 C4060 1.383 . S
C4059 H4067 0.929 . S
C4060 C4059 1.383 . S
C4060 C4061 1.377 . S
C4061 H4045 0.930 . S
C4061 C4060 1.377 . S
C4061 C4062 1.379 . S
C4062 H4046 0.931 . S
C4062 C4056 1.383 . S
C4062 C4061 1.379 . S
H4063 C4057 0.959 . S
H4064 C4057 0.961 . S
H4065 C4057 0.960 . S
H4066 C4058 0.930 . S
H4067 C4059 0.929 . S
H4068 C4076 0.929 . S
H4069 C4078 0.930 . S
H4070 C4080 0.930 . S
H4071 C4083 0.929 . S
H4072 C4086 0.930 . S
H4073 C4088 0.960 . S
H4074 C4088 0.960 . S
H4075 C4088 0.960 . S
C4076 H4068 0.929 . S
C4076 C4077 1.377 . S
C4076 C4078 1.384 . S
C4077 C4076 1.377 . S
C4077 C4083 1.390 . S
C4078 H4069 0.930 . S
C4078 C4076 1.384 . S
C4078 C4079 1.372 . S
C4079 C4078 1.372 . S
C4079 C4080 1.400 . S
C4079 C4084 1.490 . S
C4080 H4070 0.930 . S
C4080 C4079 1.400 . S
C4080 C4083 1.386 . S
H4081 C4097 0.930 . S
H4082 C4098 0.931 . S
C4083 H4071 0.929 . S
C4083 C4077 1.390 . S
C4083 C4080 1.386 . S
C4084 C4079 1.490 . S
C4084 C4086 1.395 . S
C4084 C4087 1.403 . S
H4085 C4091 0.930 . S
C4086 H4072 0.930 . S
C4086 C4084 1.395 . S
C4086 C4089 1.403 1_655 S
C4087 C4084 1.403 . S
C4087 C4088 1.524 . S
C4087 C4091 1.400 1_655 S
C4088 H4073 0.960 . S
C4088 H4074 0.960 . S
C4088 H4075 0.960 . S
C4088 C4087 1.524 . S
C4089 C4086 1.403 1_455 S
C4089 C4090 1.392 . S
C4089 C4093 1.495 . S
C4090 C4089 1.392 . S
C4090 C4091 1.385 . S
C4090 C4092 1.478 . S
C4091 H4085 0.930 . S
C4091 C4087 1.400 1_455 S
C4091 C4090 1.385 . S
C4092 C4090 1.478 . S
C4092 C4094 1.381 . S
C4092 C4098 1.383 . S
C4093 C4089 1.495 . S
C4093 H4099 0.959 . S
C4093 H4100 0.961 . S
C4093 H4101 0.960 . S
C4094 C4092 1.381 . S
C4094 C4095 1.394 . S
C4094 H4102 0.930 . S
C4095 C4094 1.394 . S
C4095 C4096 1.383 . S
C4095 H4103 0.929 . S
C4096 C4095 1.383 . S
C4096 C4097 1.377 . S
C4097 H4081 0.930 . S
C4097 C4096 1.377 . S
C4097 C4098 1.379 . S
C4098 H4082 0.931 . S
C4098 C4092 1.383 . S
C4098 C4097 1.379 . S
H4099 C4093 0.959 . S
H4100 C4093 0.961 . S
H4101 C4093 0.960 . S
H4102 C4094 0.930 . S
H4103 C4095 0.929 . S
H4104 C4112 0.929 . S
H4105 C4114 0.930 . S
H4106 C4116 0.930 . S
H4107 C4119 0.929 . S
H4108 C4122 0.930 . S
H4109 C4124 0.960 . S
H4110 C4124 0.960 . S
H4111 C4124 0.960 . S
C4112 H4104 0.929 . S
C4112 C4113 1.377 . S
C4112 C4114 1.384 . S
C4113 C4112 1.377 . S
C4113 C4119 1.390 . S
C4114 H4105 0.930 . S
C4114 C4112 1.384 . S
C4114 C4115 1.372 . S
C4115 C4114 1.372 . S
C4115 C4116 1.400 . S
C4115 C4120 1.490 . S
C4116 H4106 0.930 . S
C4116 C4115 1.400 . S
C4116 C4119 1.386 . S
H4117 C4133 0.930 . S
H4118 C4134 0.931 . S
C4119 H4107 0.929 . S
C4119 C4113 1.390 . S
C4119 C4116 1.386 . S
C4120 C4115 1.490 . S
C4120 C4122 1.395 . S
C4120 C4123 1.403 . S
H4121 C4127 0.930 . S
C4122 H4108 0.930 . S
C4122 C4120 1.395 . S
C4122 C4125 1.403 . S
C4123 C4120 1.403 . S
C4123 C4124 1.524 . S
C4123 C4127 1.400 . S
C4124 H4109 0.960 . S
C4124 H4110 0.960 . S
C4124 H4111 0.960 . S
C4124 C4123 1.524 . S
C4125 C4122 1.403 . S
C4125 C4126 1.392 . S
C4125 C4129 1.495 . S
C4126 C4125 1.392 . S
C4126 C4127 1.385 . S
C4126 C4128 1.478 . S
C4127 H4121 0.930 . S
C4127 C4123 1.400 . S
C4127 C4126 1.385 . S
C4128 C4126 1.478 . S
C4128 C4130 1.381 . S
C4128 C4134 1.383 . S
C4129 C4125 1.495 . S
C4129 H4135 0.959 . S
C4129 H4136 0.961 . S
C4129 H4137 0.960 . S
C4130 C4128 1.381 . S
C4130 C4131 1.394 . S
C4130 H4138 0.930 . S
C4131 C4130 1.394 . S
C4131 C4132 1.383 . S
C4131 H4139 0.929 . S
C4132 C4131 1.383 . S
C4132 C4133 1.377 . S
C4133 H4117 0.930 . S
C4133 C4132 1.377 . S
C4133 C4134 1.379 . S
C4134 H4118 0.931 . S
C4134 C4128 1.383 . S
C4134 C4133 1.379 . S
H4135 C4129 0.959 . S
H4136 C4129 0.961 . S
H4137 C4129 0.960 . S
H4138 C4130 0.930 . S
H4139 C4131 0.929 . S
H4140 C4148 0.929 . S
H4141 C4150 0.930 . S
H4142 C4152 0.930 . S
H4143 C4155 0.929 . S
H4144 C4158 0.930 . S
H4145 C4160 0.960 . S
H4146 C4160 0.960 . S
H4147 C4160 0.960 . S
C4148 H4140 0.929 . S
C4148 C4149 1.377 . S
C4148 C4150 1.384 . S
C4149 C4148 1.377 . S
C4149 C4155 1.390 . S
C4150 H4141 0.930 . S
C4150 C4148 1.384 . S
C4150 C4151 1.372 . S
C4151 C4150 1.372 . S
C4151 C4152 1.400 . S
C4151 C4156 1.490 . S
C4152 H4142 0.930 . S
C4152 C4151 1.400 . S
C4152 C4155 1.386 . S
H4153 C4169 0.930 . S
H4154 C4170 0.931 . S
C4155 H4143 0.929 . S
C4155 C4149 1.390 . S
C4155 C4152 1.386 . S
C4156 C4151 1.490 . S
C4156 C4158 1.395 . S
C4156 C4159 1.403 1_545 S
H4157 C4163 0.930 . S
C4158 H4144 0.930 . S
C4158 C4156 1.395 . S
C4158 C4161 1.403 . S
C4159 C4156 1.403 1_565 S
C4159 C4160 1.524 . S
C4159 C4163 1.400 . S
C4160 H4145 0.960 . S
C4160 H4146 0.960 . S
C4160 H4147 0.960 . S
C4160 C4159 1.524 . S
C4161 C4158 1.403 . S
C4161 C4162 1.392 1_545 S
C4161 C4165 1.495 . S
C4162 C4161 1.392 1_565 S
C4162 C4163 1.385 . S
C4162 C4164 1.478 . S
C4163 H4157 0.930 . S
C4163 C4159 1.400 . S
C4163 C4162 1.385 . S
C4164 C4162 1.478 . S
C4164 C4166 1.381 . S
C4164 C4170 1.383 . S
C4165 C4161 1.495 . S
C4165 H4171 0.959 . S
C4165 H4172 0.961 . S
C4165 H4173 0.960 . S
C4166 C4164 1.381 . S
C4166 C4167 1.394 . S
C4166 H4174 0.930 . S
C4167 C4166 1.394 . S
C4167 C4168 1.383 . S
C4167 H4175 0.929 . S
C4168 C4167 1.383 . S
C4168 C4169 1.377 . S
C4169 H4153 0.930 . S
C4169 C4168 1.377 . S
C4169 C4170 1.379 . S
C4170 H4154 0.931 . S
C4170 C4164 1.383 . S
C4170 C4169 1.379 . S
H4171 C4165 0.959 . S
H4172 C4165 0.961 . S
H4173 C4165 0.960 . S
H4174 C4166 0.930 . S
H4175 C4167 0.929 . S
H4176 C4184 0.929 . S
H4177 C4186 0.930 . S
H4178 C4188 0.930 . S
H4179 C4191 0.929 . S
H4180 C4194 0.930 . S
H4181 C4196 0.960 . S
H4182 C4196 0.960 . S
H4183 C4196 0.960 . S
C4184 H4176 0.929 . S
C4184 C4185 1.377 . S
C4184 C4186 1.384 . S
C4185 C4184 1.377 . S
C4185 C4191 1.390 . S
C4186 H4177 0.930 . S
C4186 C4184 1.384 . S
C4186 C4187 1.372 . S
C4187 C4186 1.372 . S
C4187 C4188 1.400 . S
C4187 C4192 1.490 . S
C4188 H4178 0.930 . S
C4188 C4187 1.400 . S
C4188 C4191 1.386 . S
H4189 C4205 0.930 . S
H4190 C4206 0.931 . S
C4191 H4179 0.929 . S
C4191 C4185 1.390 . S
C4191 C4188 1.386 . S
C4192 C4187 1.490 . S
C4192 C4194 1.395 . S
C4192 C4195 1.403 . S
H4193 C4199 0.930 . S
C4194 H4180 0.930 . S
C4194 C4192 1.395 . S
C4194 C4197 1.403 . S
C4195 C4192 1.403 . S
C4195 C4196 1.524 . S
C4195 C4199 1.400 . S
C4196 H4181 0.960 . S
C4196 H4182 0.960 . S
C4196 H4183 0.960 . S
C4196 C4195 1.524 . S
C4197 C4194 1.403 . S
C4197 C4198 1.392 . S
C4197 C4201 1.495 . S
C4198 C4197 1.392 . S
C4198 C4199 1.385 . S
C4198 C4200 1.478 . S
C4199 H4193 0.930 . S
C4199 C4195 1.400 . S
C4199 C4198 1.385 . S
C4200 C4198 1.478 . S
C4200 C4202 1.381 . S
C4200 C4206 1.383 . S
C4201 C4197 1.495 . S
C4201 H4207 0.959 . S
C4201 H4208 0.961 . S
C4201 H4209 0.960 . S
C4202 C4200 1.381 . S
C4202 C4203 1.394 . S
C4202 H4210 0.930 . S
C4203 C4202 1.394 . S
C4203 C4204 1.383 . S
C4203 H4211 0.929 . S
C4204 C4203 1.383 . S
C4204 C4205 1.377 . S
C4205 H4189 0.930 . S
C4205 C4204 1.377 . S
C4205 C4206 1.379 . S
C4206 H4190 0.931 . S
C4206 C4200 1.383 . S
C4206 C4205 1.379 . S
H4207 C4201 0.959 . S
H4208 C4201 0.961 . S
H4209 C4201 0.960 . S
H4210 C4202 0.930 . S
H4211 C4203 0.929 . S
H4212 C4220 0.929 . S
H4213 C4222 0.930 . S
H4214 C4224 0.930 . S
H4215 C4227 0.929 . S
H4216 C4230 0.930 . S
H4217 C4232 0.960 . S
H4218 C4232 0.960 . S
H4219 C4232 0.960 . S
C4220 H4212 0.929 . S
C4220 C4221 1.377 . S
C4220 C4222 1.384 . S
C4221 C4220 1.377 . S
C4221 C4227 1.390 . S
C4222 H4213 0.930 . S
C4222 C4220 1.384 . S
C4222 C4223 1.372 . S
C4223 C4222 1.372 . S
C4223 C4224 1.400 . S
C4223 C4228 1.490 . S
C4224 H4214 0.930 . S
C4224 C4223 1.400 . S
C4224 C4227 1.386 . S
H4225 C4241 0.930 . S
H4226 C4242 0.931 . S
C4227 H4215 0.929 . S
C4227 C4221 1.390 . S
C4227 C4224 1.386 . S
C4228 C4223 1.490 . S
C4228 C4230 1.395 . S
C4228 C4231 1.403 . S
H4229 C4235 0.930 . S
C4230 H4216 0.930 . S
C4230 C4228 1.395 . S
C4230 C4233 1.403 . S
C4231 C4228 1.403 . S
C4231 C4232 1.524 . S
C4231 C4235 1.400 . S
C4232 H4217 0.960 . S
C4232 H4218 0.960 . S
C4232 H4219 0.960 . S
C4232 C4231 1.524 . S
C4233 C4230 1.403 . S
C4233 C4234 1.392 . S
C4233 C4237 1.495 . S
C4234 C4233 1.392 . S
C4234 C4235 1.385 . S
C4234 C4236 1.478 . S
C4235 H4229 0.930 . S
C4235 C4231 1.400 . S
C4235 C4234 1.385 . S
C4236 C4234 1.478 . S
C4236 C4238 1.381 . S
C4236 C4242 1.383 . S
C4237 C4233 1.495 . S
C4237 H4243 0.959 . S
C4237 H4244 0.961 . S
C4237 H4245 0.960 . S
C4238 C4236 1.381 . S
C4238 C4239 1.394 . S
C4238 H4246 0.930 . S
C4239 C4238 1.394 . S
C4239 C4240 1.383 . S
C4239 H4247 0.929 . S
C4240 C4239 1.383 . S
C4240 C4241 1.377 . S
C4241 H4225 0.930 . S
C4241 C4240 1.377 . S
C4241 C4242 1.379 . S
C4242 H4226 0.931 . S
C4242 C4236 1.383 . S
C4242 C4241 1.379 . S
H4243 C4237 0.959 . S
H4244 C4237 0.961 . S
H4245 C4237 0.960 . S
H4246 C4238 0.930 . S
H4247 C4239 0.929 . S
H4248 C4256 0.929 . S
H4249 C4258 0.930 . S
H4250 C4260 0.930 . S
H4251 C4263 0.929 . S
H4252 C4266 0.930 . S
H4253 C4268 0.960 . S
H4254 C4268 0.960 . S
H4255 C4268 0.960 . S
C4256 H4248 0.929 . S
C4256 C4257 1.377 . S
C4256 C4258 1.384 . S
C4257 C4256 1.377 . S
C4257 C4263 1.390 . S
C4258 H4249 0.930 . S
C4258 C4256 1.384 . S
C4258 C4259 1.372 . S
C4259 C4258 1.372 . S
C4259 C4260 1.400 . S
C4259 C4264 1.490 . S
C4260 H4250 0.930 . S
C4260 C4259 1.400 . S
C4260 C4263 1.386 . S
H4261 C4277 0.930 . S
H4262 C4278 0.931 . S
C4263 H4251 0.929 . S
C4263 C4257 1.390 . S
C4263 C4260 1.386 . S
C4264 C4259 1.490 . S
C4264 C4266 1.395 . S
C4264 C4267 1.403 . S
H4265 C4271 0.930 . S
C4266 H4252 0.930 . S
C4266 C4264 1.395 . S
C4266 C4269 1.403 . S
C4267 C4264 1.403 . S
C4267 C4268 1.524 . S
C4267 C4271 1.400 . S
C4268 H4253 0.960 . S
C4268 H4254 0.960 . S
C4268 H4255 0.960 . S
C4268 C4267 1.524 . S
C4269 C4266 1.403 . S
C4269 C4270 1.392 . S
C4269 C4273 1.495 . S
C4270 C4269 1.392 . S
C4270 C4271 1.385 . S
C4270 C4272 1.478 . S
C4271 H4265 0.930 . S
C4271 C4267 1.400 . S
C4271 C4270 1.385 . S
C4272 C4270 1.478 . S
C4272 C4274 1.381 . S
C4272 C4278 1.383 . S
C4273 C4269 1.495 . S
C4273 H4279 0.959 . S
C4273 H4280 0.961 . S
C4273 H4281 0.960 . S
C4274 C4272 1.381 . S
C4274 C4275 1.394 . S
C4274 H4282 0.930 . S
C4275 C4274 1.394 . S
C4275 C4276 1.383 . S
C4275 H4283 0.929 . S
C4276 C4275 1.383 . S
C4276 C4277 1.377 . S
C4277 H4261 0.930 . S
C4277 C4276 1.377 . S
C4277 C4278 1.379 . S
C4278 H4262 0.931 . S
C4278 C4272 1.383 . S
C4278 C4277 1.379 . S
H4279 C4273 0.959 . S
H4280 C4273 0.961 . S
H4281 C4273 0.960 . S
H4282 C4274 0.930 . S
H4283 C4275 0.929 . S
H4284 C4292 0.929 . S
H4285 C4294 0.930 . S
H4286 C4296 0.930 . S
H4287 C4299 0.929 . S
H4288 C4302 0.930 . S
H4289 C4304 0.960 . S
H4290 C4304 0.960 . S
H4291 C4304 0.960 . S
C4292 H4284 0.929 . S
C4292 C4293 1.377 . S
C4292 C4294 1.384 . S
C4293 C4292 1.377 . S
C4293 C4299 1.390 . S
C4294 H4285 0.930 . S
C4294 C4292 1.384 . S
C4294 C4295 1.372 . S
C4295 C4294 1.372 . S
C4295 C4296 1.400 . S
C4295 C4300 1.490 . S
C4296 H4286 0.930 . S
C4296 C4295 1.400 . S
C4296 C4299 1.386 . S
H4297 C4313 0.930 . S
H4298 C4314 0.931 . S
C4299 H4287 0.929 . S
C4299 C4293 1.390 . S
C4299 C4296 1.386 . S
C4300 C4295 1.490 . S
C4300 C4302 1.395 . S
C4300 C4303 1.403 . S
H4301 C4307 0.930 . S
C4302 H4288 0.930 . S
C4302 C4300 1.395 . S
C4302 C4305 1.403 . S
C4303 C4300 1.403 . S
C4303 C4304 1.524 . S
C4303 C4307 1.400 . S
C4304 H4289 0.960 . S
C4304 H4290 0.960 . S
C4304 H4291 0.960 . S
C4304 C4303 1.524 . S
C4305 C4302 1.403 . S
C4305 C4306 1.392 . S
C4305 C4309 1.495 . S
C4306 C4305 1.392 . S
C4306 C4307 1.385 . S
C4306 C4308 1.478 . S
C4307 H4301 0.930 . S
C4307 C4303 1.400 . S
C4307 C4306 1.385 . S
C4308 C4306 1.478 . S
C4308 C4310 1.381 . S
C4308 C4314 1.383 . S
C4309 C4305 1.495 . S
C4309 H4315 0.959 . S
C4309 H4316 0.961 . S
C4309 H4317 0.960 . S
C4310 C4308 1.381 . S
C4310 C4311 1.394 . S
C4310 H4318 0.930 . S
C4311 C4310 1.394 . S
C4311 C4312 1.383 . S
C4311 H4319 0.929 . S
C4312 C4311 1.383 . S
C4312 C4313 1.377 . S
C4313 H4297 0.930 . S
C4313 C4312 1.377 . S
C4313 C4314 1.379 . S
C4314 H4298 0.931 . S
C4314 C4308 1.383 . S
C4314 C4313 1.379 . S
H4315 C4309 0.959 . S
H4316 C4309 0.961 . S
H4317 C4309 0.960 . S
H4318 C4310 0.930 . S
H4319 C4311 0.929 . S
H4320 C4328 0.929 . S
H4321 C4330 0.930 . S
H4322 C4332 0.930 . S
H4323 C4335 0.929 . S
H4324 C4338 0.930 . S
H4325 C4340 0.960 . S
H4326 C4340 0.960 . S
H4327 C4340 0.960 . S
C4328 H4320 0.929 . S
C4328 C4329 1.377 . S
C4328 C4330 1.384 . S
C4329 C4328 1.377 . S
C4329 C4335 1.390 . S
C4330 H4321 0.930 . S
C4330 C4328 1.384 . S
C4330 C4331 1.372 . S
C4331 C4330 1.372 . S
C4331 C4332 1.400 . S
C4331 C4336 1.490 . S
C4332 H4322 0.930 . S
C4332 C4331 1.400 . S
C4332 C4335 1.386 . S
H4333 C4349 0.930 . S
H4334 C4350 0.931 . S
C4335 H4323 0.929 . S
C4335 C4329 1.390 . S
C4335 C4332 1.386 . S
C4336 C4331 1.490 . S
C4336 C4338 1.395 . S
C4336 C4339 1.403 . S
H4337 C4343 0.930 . S
C4338 H4324 0.930 . S
C4338 C4336 1.395 . S
C4338 C4341 1.403 . S
C4339 C4336 1.403 . S
C4339 C4340 1.524 . S
C4339 C4343 1.400 . S
C4340 H4325 0.960 . S
C4340 H4326 0.960 . S
C4340 H4327 0.960 . S
C4340 C4339 1.524 . S
C4341 C4338 1.403 . S
C4341 C4342 1.392 . S
C4341 C4345 1.495 . S
C4342 C4341 1.392 . S
C4342 C4343 1.385 . S
C4342 C4344 1.478 . S
C4343 H4337 0.930 . S
C4343 C4339 1.400 . S
C4343 C4342 1.385 . S
C4344 C4342 1.478 . S
C4344 C4346 1.381 . S
C4344 C4350 1.383 . S
C4345 C4341 1.495 . S
C4345 H4351 0.959 . S
C4345 H4352 0.961 . S
C4345 H4353 0.960 . S
C4346 C4344 1.381 . S
C4346 C4347 1.394 . S
C4346 H4354 0.930 . S
C4347 C4346 1.394 . S
C4347 C4348 1.383 . S
C4347 H4355 0.929 . S
C4348 C4347 1.383 . S
C4348 C4349 1.377 . S
C4349 H4333 0.930 . S
C4349 C4348 1.377 . S
C4349 C4350 1.379 . S
C4350 H4334 0.931 . S
C4350 C4344 1.383 . S
C4350 C4349 1.379 . S
H4351 C4345 0.959 . S
H4352 C4345 0.961 . S
H4353 C4345 0.960 . S
H4354 C4346 0.930 . S
H4355 C4347 0.929 . S
H4356 C4364 0.929 . S
H4357 C4366 0.930 . S
H4358 C4368 0.930 . S
H4359 C4371 0.929 . S
H4360 C4374 0.930 . S
H4361 C4376 0.960 . S
H4362 C4376 0.960 . S
H4363 C4376 0.960 . S
C4364 H4356 0.929 . S
C4364 C4365 1.377 . S
C4364 C4366 1.384 . S
C4365 C4364 1.377 . S
C4365 C4371 1.390 . S
C4366 H4357 0.930 . S
C4366 C4364 1.384 . S
C4366 C4367 1.372 . S
C4367 C4366 1.372 . S
C4367 C4368 1.400 . S
C4367 C4372 1.490 . S
C4368 H4358 0.930 . S
C4368 C4367 1.400 . S
C4368 C4371 1.386 . S
H4369 C4385 0.930 . S
H4370 C4386 0.931 . S
C4371 H4359 0.929 . S
C4371 C4365 1.390 . S
C4371 C4368 1.386 . S
C4372 C4367 1.490 . S
C4372 C4374 1.395 . S
C4372 C4375 1.403 . S
H4373 C4379 0.930 . S
C4374 H4360 0.930 . S
C4374 C4372 1.395 . S
C4374 C4377 1.403 . S
C4375 C4372 1.403 . S
C4375 C4376 1.524 . S
C4375 C4379 1.400 . S
C4376 H4361 0.960 . S
C4376 H4362 0.960 . S
C4376 H4363 0.960 . S
C4376 C4375 1.524 . S
C4377 C4374 1.403 . S
C4377 C4378 1.392 . S
C4377 C4381 1.495 . S
C4378 C4377 1.392 . S
C4378 C4379 1.385 . S
C4378 C4380 1.478 . S
C4379 H4373 0.930 . S
C4379 C4375 1.400 . S
C4379 C4378 1.385 . S
C4380 C4378 1.478 . S
C4380 C4382 1.381 . S
C4380 C4386 1.383 . S
C4381 C4377 1.495 . S
C4381 H4387 0.959 . S
C4381 H4388 0.961 . S
C4381 H4389 0.960 . S
C4382 C4380 1.381 . S
C4382 C4383 1.394 . S
C4382 H4390 0.930 . S
C4383 C4382 1.394 . S
C4383 C4384 1.383 . S
C4383 H4391 0.929 . S
C4384 C4383 1.383 . S
C4384 C4385 1.377 . S
C4385 H4369 0.930 . S
C4385 C4384 1.377 . S
C4385 C4386 1.379 . S
C4386 H4370 0.931 . S
C4386 C4380 1.383 . S
C4386 C4385 1.379 . S
H4387 C4381 0.959 . S
H4388 C4381 0.961 . S
H4389 C4381 0.960 . S
H4390 C4382 0.930 . S
H4391 C4383 0.929 . S
H4392 C4400 0.929 . S
H4393 C4402 0.930 . S
H4394 C4404 0.930 . S
H4395 C4407 0.929 . S
H4396 C4410 0.930 . S
H4397 C4412 0.960 . S
H4398 C4412 0.960 . S
H4399 C4412 0.960 . S
C4400 H4392 0.929 . S
C4400 C4401 1.377 . S
C4400 C4402 1.384 . S
C4401 C4400 1.377 . S
C4401 C4407 1.390 . S
C4402 H4393 0.930 . S
C4402 C4400 1.384 . S
C4402 C4403 1.372 . S
C4403 C4402 1.372 . S
C4403 C4404 1.400 . S
C4403 C4408 1.490 . S
C4404 H4394 0.930 . S
C4404 C4403 1.400 . S
C4404 C4407 1.386 . S
H4405 C4421 0.930 . S
H4406 C4422 0.931 . S
C4407 H4395 0.929 . S
C4407 C4401 1.390 . S
C4407 C4404 1.386 . S
C4408 C4403 1.490 . S
C4408 C4410 1.395 . S
C4408 C4411 1.403 . S
H4409 C4415 0.930 . S
C4410 H4396 0.930 . S
C4410 C4408 1.395 . S
C4410 C4413 1.403 . S
C4411 C4408 1.403 . S
C4411 C4412 1.524 . S
C4411 C4415 1.400 . S
C4412 H4397 0.960 . S
C4412 H4398 0.960 . S
C4412 H4399 0.960 . S
C4412 C4411 1.524 . S
C4413 C4410 1.403 . S
C4413 C4414 1.392 . S
C4413 C4417 1.495 . S
C4414 C4413 1.392 . S
C4414 C4415 1.385 . S
C4414 C4416 1.478 . S
C4415 H4409 0.930 . S
C4415 C4411 1.400 . S
C4415 C4414 1.385 . S
C4416 C4414 1.478 . S
C4416 C4418 1.381 . S
C4416 C4422 1.383 . S
C4417 C4413 1.495 . S
C4417 H4423 0.959 . S
C4417 H4424 0.961 . S
C4417 H4425 0.960 . S
C4418 C4416 1.381 . S
C4418 C4419 1.394 . S
C4418 H4426 0.930 . S
C4419 C4418 1.394 . S
C4419 C4420 1.383 . S
C4419 H4427 0.929 . S
C4420 C4419 1.383 . S
C4420 C4421 1.377 . S
C4421 H4405 0.930 . S
C4421 C4420 1.377 . S
C4421 C4422 1.379 . S
C4422 H4406 0.931 . S
C4422 C4416 1.383 . S
C4422 C4421 1.379 . S
H4423 C4417 0.959 . S
H4424 C4417 0.961 . S
H4425 C4417 0.960 . S
H4426 C4418 0.930 . S
H4427 C4419 0.929 . S
H4428 C4436 0.929 . S
H4429 C4438 0.930 . S
H4430 C4440 0.930 . S
H4431 C4443 0.929 . S
H4432 C4446 0.930 . S
H4433 C4448 0.960 . S
H4434 C4448 0.960 . S
H4435 C4448 0.960 . S
C4436 H4428 0.929 . S
C4436 C4437 1.377 . S
C4436 C4438 1.384 . S
C4437 C4436 1.377 . S
C4437 C4443 1.390 . S
C4438 H4429 0.930 . S
C4438 C4436 1.384 . S
C4438 C4439 1.372 . S
C4439 C4438 1.372 . S
C4439 C4440 1.400 . S
C4439 C4444 1.490 . S
C4440 H4430 0.930 . S
C4440 C4439 1.400 . S
C4440 C4443 1.386 . S
H4441 C4457 0.930 . S
H4442 C4458 0.931 . S
C4443 H4431 0.929 . S
C4443 C4437 1.390 . S
C4443 C4440 1.386 . S
C4444 C4439 1.490 . S
C4444 C4446 1.395 . S
C4444 C4447 1.403 . S
H4445 C4451 0.930 . S
C4446 H4432 0.930 . S
C4446 C4444 1.395 . S
C4446 C4449 1.403 . S
C4447 C4444 1.403 . S
C4447 C4448 1.524 . S
C4447 C4451 1.400 . S
C4448 H4433 0.960 . S
C4448 H4434 0.960 . S
C4448 H4435 0.960 . S
C4448 C4447 1.524 . S
C4449 C4446 1.403 . S
C4449 C4450 1.392 . S
C4449 C4453 1.495 . S
C4450 C4449 1.392 . S
C4450 C4451 1.385 . S
C4450 C4452 1.478 . S
C4451 H4445 0.930 . S
C4451 C4447 1.400 . S
C4451 C4450 1.385 . S
C4452 C4450 1.478 . S
C4452 C4454 1.381 . S
C4452 C4458 1.383 . S
C4453 C4449 1.495 . S
C4453 H4459 0.959 . S
C4453 H4460 0.961 . S
C4453 H4461 0.960 . S
C4454 C4452 1.381 . S
C4454 C4455 1.394 . S
C4454 H4462 0.930 . S
C4455 C4454 1.394 . S
C4455 C4456 1.383 . S
C4455 H4463 0.929 . S
C4456 C4455 1.383 . S
C4456 C4457 1.377 . S
C4457 H4441 0.930 . S
C4457 C4456 1.377 . S
C4457 C4458 1.379 . S
C4458 H4442 0.931 . S
C4458 C4452 1.383 . S
C4458 C4457 1.379 . S
H4459 C4453 0.959 . S
H4460 C4453 0.961 . S
H4461 C4453 0.960 . S
H4462 C4454 0.930 . S
H4463 C4455 0.929 . S
H4464 C4472 0.929 . S
H4465 C4474 0.930 . S
H4466 C4476 0.930 . S
H4467 C4479 0.929 . S
H4468 C4482 0.930 . S
H4469 C4484 0.960 . S
H4470 C4484 0.960 . S
H4471 C4484 0.960 . S
C4472 H4464 0.929 . S
C4472 C4473 1.377 . S
C4472 C4474 1.384 . S
C4473 C4472 1.377 . S
C4473 C4479 1.390 . S
C4474 H4465 0.930 . S
C4474 C4472 1.384 . S
C4474 C4475 1.372 . S
C4475 C4474 1.372 . S
C4475 C4476 1.400 . S
C4475 C4480 1.490 . S
C4476 H4466 0.930 . S
C4476 C4475 1.400 . S
C4476 C4479 1.386 . S
H4477 C4493 0.930 . S
H4478 C4494 0.931 . S
C4479 H4467 0.929 . S
C4479 C4473 1.390 . S
C4479 C4476 1.386 . S
C4480 C4475 1.490 . S
C4480 C4482 1.395 . S
C4480 C4483 1.403 . S
H4481 C4487 0.930 . S
C4482 H4468 0.930 . S
C4482 C4480 1.395 . S
C4482 C4485 1.403 . S
C4483 C4480 1.403 . S
C4483 C4484 1.524 . S
C4483 C4487 1.400 . S
C4484 H4469 0.960 . S
C4484 H4470 0.960 . S
C4484 H4471 0.960 . S
C4484 C4483 1.524 . S
C4485 C4482 1.403 . S
C4485 C4486 1.392 . S
C4485 C4489 1.495 . S
C4486 C4485 1.392 . S
C4486 C4487 1.385 . S
C4486 C4488 1.478 . S
C4487 H4481 0.930 . S
C4487 C4483 1.400 . S
C4487 C4486 1.385 . S
C4488 C4486 1.478 . S
C4488 C4490 1.381 . S
C4488 C4494 1.383 . S
C4489 C4485 1.495 . S
C4489 H4495 0.959 . S
C4489 H4496 0.961 . S
C4489 H4497 0.960 . S
C4490 C4488 1.381 . S
C4490 C4491 1.394 . S
C4490 H4498 0.930 . S
C4491 C4490 1.394 . S
C4491 C4492 1.383 . S
C4491 H4499 0.929 . S
C4492 C4491 1.383 . S
C4492 C4493 1.377 . S
C4493 H4477 0.930 . S
C4493 C4492 1.377 . S
C4493 C4494 1.379 . S
C4494 H4478 0.931 . S
C4494 C4488 1.383 . S
C4494 C4493 1.379 . S
H4495 C4489 0.959 . S
H4496 C4489 0.961 . S
H4497 C4489 0.960 . S
H4498 C4490 0.930 . S
H4499 C4491 0.929 . S
H4500 C4508 0.929 . S
H4501 C4510 0.930 . S
H4502 C4512 0.930 . S
H4503 C4515 0.929 . S
H4504 C4518 0.930 . S
H4505 C4520 0.960 . S
H4506 C4520 0.960 . S
H4507 C4520 0.960 . S
C4508 H4500 0.929 . S
C4508 C4509 1.377 . S
C4508 C4510 1.384 . S
C4509 C4508 1.377 . S
C4509 C4515 1.390 . S
C4510 H4501 0.930 . S
C4510 C4508 1.384 . S
C4510 C4511 1.372 . S
C4511 C4510 1.372 . S
C4511 C4512 1.400 . S
C4511 C4516 1.490 . S
C4512 H4502 0.930 . S
C4512 C4511 1.400 . S
C4512 C4515 1.386 . S
H4513 C4529 0.930 . S
H4514 C4530 0.931 . S
C4515 H4503 0.929 . S
C4515 C4509 1.390 . S
C4515 C4512 1.386 . S
C4516 C4511 1.490 . S
C4516 C4518 1.395 . S
C4516 C4519 1.403 . S
H4517 C4523 0.930 . S
C4518 H4504 0.930 . S
C4518 C4516 1.395 . S
C4518 C4521 1.403 . S
C4519 C4516 1.403 . S
C4519 C4520 1.524 . S
C4519 C4523 1.400 . S
C4520 H4505 0.960 . S
C4520 H4506 0.960 . S
C4520 H4507 0.960 . S
C4520 C4519 1.524 . S
C4521 C4518 1.403 . S
C4521 C4522 1.392 . S
C4521 C4525 1.495 . S
C4522 C4521 1.392 . S
C4522 C4523 1.385 . S
C4522 C4524 1.478 . S
C4523 H4517 0.930 . S
C4523 C4519 1.400 . S
C4523 C4522 1.385 . S
C4524 C4522 1.478 . S
C4524 C4526 1.381 . S
C4524 C4530 1.383 . S
C4525 C4521 1.495 . S
C4525 H4531 0.959 . S
C4525 H4532 0.961 . S
C4525 H4533 0.960 . S
C4526 C4524 1.381 . S
C4526 C4527 1.394 . S
C4526 H4534 0.930 . S
C4527 C4526 1.394 . S
C4527 C4528 1.383 . S
C4527 H4535 0.929 . S
C4528 C4527 1.383 . S
C4528 C4529 1.377 . S
C4529 H4513 0.930 . S
C4529 C4528 1.377 . S
C4529 C4530 1.379 . S
C4530 H4514 0.931 . S
C4530 C4524 1.383 . S
C4530 C4529 1.379 . S
H4531 C4525 0.959 . S
H4532 C4525 0.961 . S
H4533 C4525 0.960 . S
H4534 C4526 0.930 . S
H4535 C4527 0.929 . S
H4536 C4544 0.929 . S
H4537 C4546 0.930 . S
H4538 C4548 0.930 . S
H4539 C4551 0.929 . S
H4540 C4554 0.930 . S
H4541 C4556 0.960 . S
H4542 C4556 0.960 . S
H4543 C4556 0.960 . S
C4544 H4536 0.929 . S
C4544 C4545 1.377 . S
C4544 C4546 1.384 . S
C4545 C4544 1.377 . S
C4545 C4551 1.390 . S
C4546 H4537 0.930 . S
C4546 C4544 1.384 . S
C4546 C4547 1.372 . S
C4547 C4546 1.372 . S
C4547 C4548 1.400 . S
C4547 C4552 1.490 . S
C4548 H4538 0.930 . S
C4548 C4547 1.400 . S
C4548 C4551 1.386 . S
H4549 C4565 0.930 . S
H4550 C4566 0.931 . S
C4551 H4539 0.929 . S
C4551 C4545 1.390 . S
C4551 C4548 1.386 . S
C4552 C4547 1.490 . S
C4552 C4554 1.395 . S
C4552 C4555 1.403 . S
H4553 C4559 0.930 . S
C4554 H4540 0.930 . S
C4554 C4552 1.395 . S
C4554 C4557 1.403 . S
C4555 C4552 1.403 . S
C4555 C4556 1.524 . S
C4555 C4559 1.400 . S
C4556 H4541 0.960 . S
C4556 H4542 0.960 . S
C4556 H4543 0.960 . S
C4556 C4555 1.524 . S
C4557 C4554 1.403 . S
C4557 C4558 1.392 . S
C4557 C4561 1.495 . S
C4558 C4557 1.392 . S
C4558 C4559 1.385 . S
C4558 C4560 1.478 . S
C4559 H4553 0.930 . S
C4559 C4555 1.400 . S
C4559 C4558 1.385 . S
C4560 C4558 1.478 . S
C4560 C4562 1.381 . S
C4560 C4566 1.383 . S
C4561 C4557 1.495 . S
C4561 H4567 0.959 . S
C4561 H4568 0.961 . S
C4561 H4569 0.960 . S
C4562 C4560 1.381 . S
C4562 C4563 1.394 . S
C4562 H4570 0.930 . S
C4563 C4562 1.394 . S
C4563 C4564 1.383 . S
C4563 H4571 0.929 . S
C4564 C4563 1.383 . S
C4564 C4565 1.377 . S
C4565 H4549 0.930 . S
C4565 C4564 1.377 . S
C4565 C4566 1.379 . S
C4566 H4550 0.931 . S
C4566 C4560 1.383 . S
C4566 C4565 1.379 . S
H4567 C4561 0.959 . S
H4568 C4561 0.961 . S
H4569 C4561 0.960 . S
H4570 C4562 0.930 . S
H4571 C4563 0.929 . S
H4572 C4580 0.929 . S
H4573 C4582 0.930 . S
H4574 C4584 0.930 . S
H4575 C4587 0.929 . S
H4576 C4590 0.930 . S
H4577 C4592 0.960 . S
H4578 C4592 0.960 . S
H4579 C4592 0.960 . S
C4580 H4572 0.929 . S
C4580 C4581 1.377 . S
C4580 C4582 1.384 . S
C4581 C4580 1.377 . S
C4581 C4587 1.390 . S
C4582 H4573 0.930 . S
C4582 C4580 1.384 . S
C4582 C4583 1.372 . S
C4583 C4582 1.372 . S
C4583 C4584 1.400 . S
C4583 C4588 1.490 . S
C4584 H4574 0.930 . S
C4584 C4583 1.400 . S
C4584 C4587 1.386 . S
H4585 C4601 0.930 . S
H4586 C4602 0.931 . S
C4587 H4575 0.929 . S
C4587 C4581 1.390 . S
C4587 C4584 1.386 . S
C4588 C4583 1.490 . S
C4588 C4590 1.395 . S
C4588 C4591 1.403 . S
H4589 C4595 0.930 . S
C4590 H4576 0.930 . S
C4590 C4588 1.395 . S
C4590 C4593 1.403 . S
C4591 C4588 1.403 . S
C4591 C4592 1.524 . S
C4591 C4595 1.400 . S
C4592 H4577 0.960 . S
C4592 H4578 0.960 . S
C4592 H4579 0.960 . S
C4592 C4591 1.524 . S
C4593 C4590 1.403 . S
C4593 C4594 1.392 . S
C4593 C4597 1.495 . S
C4594 C4593 1.392 . S
C4594 C4595 1.385 . S
C4594 C4596 1.478 . S
C4595 H4589 0.930 . S
C4595 C4591 1.400 . S
C4595 C4594 1.385 . S
C4596 C4594 1.478 . S
C4596 C4598 1.381 . S
C4596 C4602 1.383 . S
C4597 C4593 1.495 . S
C4597 H4603 0.959 . S
C4597 H4604 0.961 . S
C4597 H4605 0.960 . S
C4598 C4596 1.381 . S
C4598 C4599 1.394 . S
C4598 H4606 0.930 . S
C4599 C4598 1.394 . S
C4599 C4600 1.383 . S
C4599 H4607 0.929 . S
C4600 C4599 1.383 . S
C4600 C4601 1.377 . S
C4601 H4585 0.930 . S
C4601 C4600 1.377 . S
C4601 C4602 1.379 . S
C4602 H4586 0.931 . S
C4602 C4596 1.383 . S
C4602 C4601 1.379 . S
H4603 C4597 0.959 . S
H4604 C4597 0.961 . S
H4605 C4597 0.960 . S
H4606 C4598 0.930 . S
H4607 C4599 0.929 . S
C729 C1 1.421 . S
C748 C46 1.409 . S
C765 C6 1.401 . S
C784 C21 1.427 . S
C801 C41 1.428 . S
C820 C26 1.371 . S
C837 C61 1.467 . S
C856 C86 1.426 . S
C873 C106 1.440 . S
C892 C81 1.446 . S
C909 C101 1.461 . S
C928 C66 1.446 . S
C945 C129 1.428 . S
C964 C176 1.401 . S
C981 C149 1.425 . S
C1000 C136 1.370 . S
C1017 C169 1.421 . S
C1036 C156 1.407 . S
C1053 C189 1.466 . S
C1072 C216 1.452 . S
C1089 C236 1.443 . S
C1108 C209 1.455 . S
C1125 C196 1.443 . S
C1144 C229 1.463 . S
C1161 C286 1.434 . S
C1180 C241 1.477 . S
C1197 C261 1.463 . S
C1216 C246 1.462 . S
C1233 C266 1.436 . S
C1252 C281 1.462 . S
C1269 C301 1.481 . S
C1288 C326 1.446 . S
C1305 C346 1.460 . S
C1324 C321 1.470 . S
C1341 C306 1.460 . S
C1360 C341 1.468 . S
C1377 C369 1.469 . S
C1396 C416 1.460 . S
C1413 C389 1.464 . S
C1432 C376 1.438 . S
C1449 C396 1.442 . S
C1468 C409 1.475 . S
C1485 C456 1.330 . S
C1504 C429 1.354 . S
C1521 C449 1.351 . S
C1540 C476 1.312 . S
C1557 C436 1.332 . S
C1576 C469 1.337 . S
C1593 C481 1.471 . S
C1612 C526 1.428 . S
C1629 C501 1.466 . S
C1648 C486 1.461 . S
C1665 C521 1.469 . S
C1684 C506 1.445 . S
C1701 C541 1.356 . S
C1720 C566 1.308 . S
C1737 C561 1.356 . S
C1756 C586 1.305 . S
C1773 C581 1.356 . S
C1792 C546 1.324 . S
C1809 C609 1.463 . S
C1828 C656 1.442 . S
C1845 C629 1.468 . S
C1864 C616 1.454 . S
C1881 C636 1.445 . S
C1900 C649 1.463 . S
C1917 C669 1.480 . S
C1936 C696 1.435 . S
C1953 C689 1.485 . S
C1972 C716 1.457 . S
C1989 C676 1.460 . S
C2008 C709 1.477 . S
C2025 C16 1.393 . S
C2044 C401 1.413 . S
C2061 C361 1.393 . S
C2080 C36 1.407 . S
C2097 C56 1.385 . S
C2116 C381 1.386 . S
C2133 C76 1.214 . S
C2152 C681 1.200 . S
C2169 C701 1.224 . S
C2188 C96 1.211 . S
C2205 C116 1.213 . S
C2224 C661 1.236 . S
C2241 C529 1.390 . S
C2260 C126 1.410 . S
C2277 C146 1.386 . S
C2296 C489 1.409 . S
C2313 C166 1.394 . S
C2332 C509 1.371 . S
C2349 C329 1.224 . S
C2368 C186 1.183 . S
C2385 C349 1.220 . S
C2404 C206 1.215 . S
C2421 C309 1.225 . S
C2440 C226 1.181 . S
C2457 C256 1.307 . S
C2476 C641 1.330 . S
C2493 C276 1.303 . S
C2512 C601 1.284 . S
C2529 C621 1.315 . S
C2548 C296 1.295 . S
C2565 C201 1.250 . S
C2584 C316 1.261 . S
C2601 C221 1.244 . S
C2620 C336 1.221 . S
C2637 C181 1.248 . S
C2656 C356 1.255 . S
C2673 C49 1.386 . S
C2692 C366 1.372 . S
C2709 C386 1.376 . S
C2728 C9 1.399 . S
C2745 C406 1.374 . S
C2764 C29 1.402 . S
C2781 C569 1.243 . S
C2800 C426 1.274 . S
C2817 C589 1.243 . S
C2836 C446 1.254 . S
C2853 C466 1.251 . S
C2872 C549 1.228 . S
C2889 C161 1.385 . S
C2908 C496 1.353 . S
C2925 C121 1.386 . S
C2944 C516 1.399 . S
C2961 C141 1.389 . S
C2980 C536 1.394 . S
C2997 C556 1.236 . S
C3016 C441 1.216 . S
C3033 C461 1.247 . S
C3052 C576 1.213 . S
C3069 C596 1.250 . S
C3088 C421 1.274 . S
C3105 C606 1.302 . S
C3124 C289 1.329 . S
C3141 C626 1.311 . S
C3160 C249 1.288 . S
C3177 C646 1.310 . S
C3196 C269 1.290 . S
C3213 C666 1.249 . S
C3232 C89 1.221 . S
C3249 C109 1.249 . S
C3268 C686 1.252 . S
C3285 C69 1.245 . S
C3304 C706 1.266 . S
C3321 C588 2.165 . S
C3340 C8 2.185 . S
C3357 C548 2.161 . S
C3376 C28 2.167 . S
C3393 C48 2.171 . S
C3412 C568 2.124 . S
C3429 C268 2.491 . S
C3448 C68 2.466 . S
C3465 C88 2.485 . S
C3484 C288 2.479 . S
C3501 C108 2.490 . S
C3520 C248 2.502 . S
C3537 C139 2.179 . S
C3556 C479 2.124 . S
C3573 C159 2.172 . S
C3592 C439 2.145 . S
C3609 C179 2.179 . S
C3628 C459 2.124 . S
C3645 C639 2.495 . S
C3664 C199 2.464 . S
C3681 C659 2.493 . S
C3700 C219 2.469 . S
C3717 C619 2.492 . S
C3736 C239 2.503 . S
C3753 C308 2.572 . S
C3772 C508 2.566 . S
C3789 C328 2.576 . S
C3808 C528 2.591 . S
C3825 C348 2.579 . S
C3844 C488 2.601 . S
C3861 C379 2.582 . S
C3880 C719 2.584 . S
C3897 C679 2.573 . S
C3916 C399 2.600 . S
C3933 C419 2.589 . S
C3952 C699 2.552 . S
C3969 C99 1.056 . S
C3988 C19 1.081 . S
C4005 C119 1.052 . S
C4024 C39 1.015 . S
C4041 C79 1.060 . S
C4060 C59 1.056 . S
C4077 C128 1.057 . S
C4096 C208 1.015 . S
C4113 C228 1.046 . S
C4132 C148 1.061 . S
C4149 C168 1.047 . S
C4168 C188 1.060 . S
C4185 C339 1.194 . S
C4204 C259 1.159 . S
C4221 C359 1.199 . S
C4240 C279 1.171 . S
C4257 C319 1.193 . S
C4276 C299 1.225 . S
C4293 C448 1.450 . S
C4312 C368 1.454 . S
C4329 C388 1.472 . S
C4348 C468 1.423 . S
C4365 C408 1.467 . S
C4384 C428 1.437 . S
C4401 C499 1.461 . S
C4420 C579 1.440 . S
C4437 C599 1.452 . S
C4456 C519 1.494 . S
C4473 C539 1.472 . S
C4492 C559 1.445 . S
C4509 C608 1.200 . S
C4528 C688 1.157 . S
C4545 C708 1.200 . S
C4564 C628 1.160 . S
C4581 C648 1.190 . S
C4600 C668 1.193 . S
