# Generated by pormake.
# Topology vbg, (5)-cn, num edge types: 1
# Building blocks:
#     Node 0, Type 0, BuildingBlock: XOMCOT_clean_sbu_1, # of connection points: 5
#     Node 1, Type 0, BuildingBlock: XOMCOT_clean_sbu_1, # of connection points: 5
#     Node 2, Type 0, BuildingBlock: XOMCOT_clean_sbu_1, # of connection points: 5
#     Node 3, Type 0, BuildingBlock: XOMCOT_clean_sbu_1, # of connection points: 5
#     Node 4, Type 0, BuildingBlock: XOMCOT_clean_sbu_1, # of connection points: 5
#     Node 5, Type 0, BuildingBlock: XOMCOT_clean_sbu_1, # of connection points: 5
#     Node 6, Type 0, BuildingBlock: XOMCOT_clean_sbu_1, # of connection points: 5
#     Node 7, Type 0, BuildingBlock: XOMCOT_clean_sbu_1, # of connection points: 5
#     Node 8, Type 0, BuildingBlock: XOMCOT_clean_sbu_1, # of connection points: 5
#     Node 9, Type 0, BuildingBlock: XOMCOT_clean_sbu_1, # of connection points: 5
#     Node 10, Type 0, BuildingBlock: XOMCOT_clean_sbu_1, # of connection points: 5
#     Node 11, Type 0, BuildingBlock: XOMCOT_clean_sbu_1, # of connection points: 5
#     Node 12, Type 0, BuildingBlock: XOMCOT_clean_sbu_1, # of connection points: 5
#     Node 13, Type 0, BuildingBlock: XOMCOT_clean_sbu_1, # of connection points: 5
#     Node 14, Type 0, BuildingBlock: XOMCOT_clean_sbu_1, # of connection points: 5
#     Node 15, Type 0, BuildingBlock: XOMCOT_clean_sbu_1, # of connection points: 5
#     Node 16, Type 0, BuildingBlock: XOMCOT_clean_sbu_1, # of connection points: 5
#     Node 17, Type 0, BuildingBlock: XOMCOT_clean_sbu_1, # of connection points: 5
#     Node 18, Type 0, BuildingBlock: XOMCOT_clean_sbu_1, # of connection points: 5
#     Node 19, Type 0, BuildingBlock: XOMCOT_clean_sbu_1, # of connection points: 5
#     Node 20, Type 0, BuildingBlock: XOMCOT_clean_sbu_1, # of connection points: 5
#     Node 21, Type 0, BuildingBlock: XOMCOT_clean_sbu_1, # of connection points: 5
#     Node 22, Type 0, BuildingBlock: XOMCOT_clean_sbu_1, # of connection points: 5
#     Node 23, Type 0, BuildingBlock: XOMCOT_clean_sbu_1, # of connection points: 5
#     Node 24, Type 0, BuildingBlock: XOMCOT_clean_sbu_1, # of connection points: 5
#     Node 25, Type 0, BuildingBlock: XOMCOT_clean_sbu_1, # of connection points: 5
#     Node 26, Type 0, BuildingBlock: XOMCOT_clean_sbu_1, # of connection points: 5
#     Node 27, Type 0, BuildingBlock: XOMCOT_clean_sbu_1, # of connection points: 5
#     Node 28, Type 0, BuildingBlock: XOMCOT_clean_sbu_1, # of connection points: 5
#     Node 29, Type 0, BuildingBlock: XOMCOT_clean_sbu_1, # of connection points: 5
#     Node 30, Type 0, BuildingBlock: XOMCOT_clean_sbu_1, # of connection points: 5
#     Node 31, Type 0, BuildingBlock: XOMCOT_clean_sbu_1, # of connection points: 5
#     Edge 32, Type (0, 0), BuildingBlock: EZIPEK_clean_linker_0, # of connection points: 2
#     Edge 33, Type (0, 0), BuildingBlock: EZIPEK_clean_linker_0, # of connection points: 2
#     Edge 34, Type (0, 0), BuildingBlock: EZIPEK_clean_linker_0, # of connection points: 2
#     Edge 35, Type (0, 0), BuildingBlock: EZIPEK_clean_linker_0, # of connection points: 2
#     Edge 36, Type (0, 0), BuildingBlock: EZIPEK_clean_linker_0, # of connection points: 2
#     Edge 37, Type (0, 0), BuildingBlock: EZIPEK_clean_linker_0, # of connection points: 2
#     Edge 38, Type (0, 0), BuildingBlock: EZIPEK_clean_linker_0, # of connection points: 2
#     Edge 39, Type (0, 0), BuildingBlock: EZIPEK_clean_linker_0, # of connection points: 2
#     Edge 40, Type (0, 0), BuildingBlock: EZIPEK_clean_linker_0, # of connection points: 2
#     Edge 41, Type (0, 0), BuildingBlock: EZIPEK_clean_linker_0, # of connection points: 2
#     Edge 42, Type (0, 0), BuildingBlock: EZIPEK_clean_linker_0, # of connection points: 2
#     Edge 43, Type (0, 0), BuildingBlock: EZIPEK_clean_linker_0, # of connection points: 2
#     Edge 44, Type (0, 0), BuildingBlock: EZIPEK_clean_linker_0, # of connection points: 2
#     Edge 45, Type (0, 0), BuildingBlock: EZIPEK_clean_linker_0, # of connection points: 2
#     Edge 46, Type (0, 0), BuildingBlock: EZIPEK_clean_linker_0, # of connection points: 2
#     Edge 47, Type (0, 0), BuildingBlock: EZIPEK_clean_linker_0, # of connection points: 2
#     Edge 48, Type (0, 0), BuildingBlock: EZIPEK_clean_linker_0, # of connection points: 2
#     Edge 49, Type (0, 0), BuildingBlock: EZIPEK_clean_linker_0, # of connection points: 2
#     Edge 50, Type (0, 0), BuildingBlock: EZIPEK_clean_linker_0, # of connection points: 2
#     Edge 51, Type (0, 0), BuildingBlock: EZIPEK_clean_linker_0, # of connection points: 2
#     Edge 52, Type (0, 0), BuildingBlock: EZIPEK_clean_linker_0, # of connection points: 2
#     Edge 53, Type (0, 0), BuildingBlock: EZIPEK_clean_linker_0, # of connection points: 2
#     Edge 54, Type (0, 0), BuildingBlock: EZIPEK_clean_linker_0, # of connection points: 2
#     Edge 55, Type (0, 0), BuildingBlock: EZIPEK_clean_linker_0, # of connection points: 2
#     Edge 56, Type (0, 0), BuildingBlock: EZIPEK_clean_linker_0, # of connection points: 2
#     Edge 57, Type (0, 0), BuildingBlock: EZIPEK_clean_linker_0, # of connection points: 2
#     Edge 58, Type (0, 0), BuildingBlock: EZIPEK_clean_linker_0, # of connection points: 2
#     Edge 59, Type (0, 0), BuildingBlock: EZIPEK_clean_linker_0, # of connection points: 2
#     Edge 60, Type (0, 0), BuildingBlock: EZIPEK_clean_linker_0, # of connection points: 2
#     Edge 61, Type (0, 0), BuildingBlock: EZIPEK_clean_linker_0, # of connection points: 2
#     Edge 62, Type (0, 0), BuildingBlock: EZIPEK_clean_linker_0, # of connection points: 2
#     Edge 63, Type (0, 0), BuildingBlock: EZIPEK_clean_linker_0, # of connection points: 2
#     Edge 64, Type (0, 0), BuildingBlock: EZIPEK_clean_linker_0, # of connection points: 2
#     Edge 65, Type (0, 0), BuildingBlock: EZIPEK_clean_linker_0, # of connection points: 2
#     Edge 66, Type (0, 0), BuildingBlock: EZIPEK_clean_linker_0, # of connection points: 2
#     Edge 67, Type (0, 0), BuildingBlock: EZIPEK_clean_linker_0, # of connection points: 2
#     Edge 68, Type (0, 0), BuildingBlock: EZIPEK_clean_linker_0, # of connection points: 2
#     Edge 69, Type (0, 0), BuildingBlock: EZIPEK_clean_linker_0, # of connection points: 2
#     Edge 70, Type (0, 0), BuildingBlock: EZIPEK_clean_linker_0, # of connection points: 2
#     Edge 71, Type (0, 0), BuildingBlock: EZIPEK_clean_linker_0, # of connection points: 2
#     Edge 72, Type (0, 0), BuildingBlock: EZIPEK_clean_linker_0, # of connection points: 2
#     Edge 73, Type (0, 0), BuildingBlock: EZIPEK_clean_linker_0, # of connection points: 2
#     Edge 74, Type (0, 0), BuildingBlock: EZIPEK_clean_linker_0, # of connection points: 2
#     Edge 75, Type (0, 0), BuildingBlock: EZIPEK_clean_linker_0, # of connection points: 2
#     Edge 76, Type (0, 0), BuildingBlock: EZIPEK_clean_linker_0, # of connection points: 2
#     Edge 77, Type (0, 0), BuildingBlock: EZIPEK_clean_linker_0, # of connection points: 2
#     Edge 78, Type (0, 0), BuildingBlock: EZIPEK_clean_linker_0, # of connection points: 2
#     Edge 79, Type (0, 0), BuildingBlock: EZIPEK_clean_linker_0, # of connection points: 2
#     Edge 80, Type (0, 0), BuildingBlock: EZIPEK_clean_linker_0, # of connection points: 2
#     Edge 81, Type (0, 0), BuildingBlock: EZIPEK_clean_linker_0, # of connection points: 2
#     Edge 82, Type (0, 0), BuildingBlock: EZIPEK_clean_linker_0, # of connection points: 2
#     Edge 83, Type (0, 0), BuildingBlock: EZIPEK_clean_linker_0, # of connection points: 2
#     Edge 84, Type (0, 0), BuildingBlock: EZIPEK_clean_linker_0, # of connection points: 2
#     Edge 85, Type (0, 0), BuildingBlock: EZIPEK_clean_linker_0, # of connection points: 2
#     Edge 86, Type (0, 0), BuildingBlock: EZIPEK_clean_linker_0, # of connection points: 2
#     Edge 87, Type (0, 0), BuildingBlock: EZIPEK_clean_linker_0, # of connection points: 2
#     Edge 88, Type (0, 0), BuildingBlock: EZIPEK_clean_linker_0, # of connection points: 2
#     Edge 89, Type (0, 0), BuildingBlock: EZIPEK_clean_linker_0, # of connection points: 2
#     Edge 90, Type (0, 0), BuildingBlock: EZIPEK_clean_linker_0, # of connection points: 2
#     Edge 91, Type (0, 0), BuildingBlock: EZIPEK_clean_linker_0, # of connection points: 2
#     Edge 92, Type (0, 0), BuildingBlock: EZIPEK_clean_linker_0, # of connection points: 2
#     Edge 93, Type (0, 0), BuildingBlock: EZIPEK_clean_linker_0, # of connection points: 2
#     Edge 94, Type (0, 0), BuildingBlock: EZIPEK_clean_linker_0, # of connection points: 2
#     Edge 95, Type (0, 0), BuildingBlock: EZIPEK_clean_linker_0, # of connection points: 2
#     Edge 96, Type (0, 0), BuildingBlock: EZIPEK_clean_linker_0, # of connection points: 2
#     Edge 97, Type (0, 0), BuildingBlock: EZIPEK_clean_linker_0, # of connection points: 2
#     Edge 98, Type (0, 0), BuildingBlock: EZIPEK_clean_linker_0, # of connection points: 2
#     Edge 99, Type (0, 0), BuildingBlock: EZIPEK_clean_linker_0, # of connection points: 2
#     Edge 100, Type (0, 0), BuildingBlock: EZIPEK_clean_linker_0, # of connection points: 2
#     Edge 101, Type (0, 0), BuildingBlock: EZIPEK_clean_linker_0, # of connection points: 2
#     Edge 102, Type (0, 0), BuildingBlock: EZIPEK_clean_linker_0, # of connection points: 2
#     Edge 103, Type (0, 0), BuildingBlock: EZIPEK_clean_linker_0, # of connection points: 2
#     Edge 104, Type (0, 0), BuildingBlock: EZIPEK_clean_linker_0, # of connection points: 2
#     Edge 105, Type (0, 0), BuildingBlock: EZIPEK_clean_linker_0, # of connection points: 2
#     Edge 106, Type (0, 0), BuildingBlock: EZIPEK_clean_linker_0, # of connection points: 2
#     Edge 107, Type (0, 0), BuildingBlock: EZIPEK_clean_linker_0, # of connection points: 2
#     Edge 108, Type (0, 0), BuildingBlock: EZIPEK_clean_linker_0, # of connection points: 2
#     Edge 109, Type (0, 0), BuildingBlock: EZIPEK_clean_linker_0, # of connection points: 2
#     Edge 110, Type (0, 0), BuildingBlock: EZIPEK_clean_linker_0, # of connection points: 2
#     Edge 111, Type (0, 0), BuildingBlock: EZIPEK_clean_linker_0, # of connection points: 2
# Relax obj value: 0.209
# Max RMSD: 0.188
# Mean RMSD: 0.188
data_MOF--net-vbg--node1-XOMCOT_clean_sbu_1--edge1-EZIPEK_clean_linker_0
_symmetry_space_group_name_H-M    P1
_symmetry_Int_Tables_number       1
_symmetry_cell_setting            triclinic
loop_
_symmetry_equiv_pos_as_xyz
'x, y, z'
_cell_length_a     73.111129
_cell_length_b     31.743681
_cell_length_c     31.0083
_cell_angle_alpha  90.047078
_cell_angle_beta   90.136883
_cell_angle_gamma 89.968236
loop_
_atom_site_label
_atom_site_type_symbol
_atom_site_fract_x
_atom_site_fract_y
_atom_site_fract_z
_atom_type_partial_charge
C0 C 0.03714 0.25284 0.38562 0.0
C1 C 0.03338 0.27538 0.34872 0.0
N2 N 0.0171 0.26208 0.33383 0.0
N3 N 0.02331 0.2255 0.39273 0.0
C4 C 0.01112 0.23271 0.36135 0.0
H5 H 0.04945 0.2548 0.40494 0.0
Co6 Co 0.02156 0.18536 0.43453 0.0
C7 C 0.01231 0.10634 0.37714 0.0
O8 O 0.02658 0.08878 0.39568 0.0
N9 N 0.01963 0.1466 0.47887 0.0
C10 C 0.01345 0.09673 0.52723 0.0
C11 C 0.01243 0.10773 0.48426 0.0
C12 C 0.02404 0.15918 0.51892 0.0
N13 N 0.02054 0.12975 0.5486 0.0
O14 O 0.00034 0.21814 0.46144 0.0
H15 H 0.00562 0.0896 0.45981 0.0
H16 H 0.02948 0.18999 0.52651 0.0
O17 O 0.00727 0.14387 0.39071 0.0
C18 C 0.00673 0.25028 0.48313 0.0
O19 O 0.0244 0.25737 0.48074 0.0
N20 N 0.04415 0.16227 0.41557 0.0
C21 C 0.08056 0.14951 0.39231 0.0
C22 C 0.06688 0.15031 0.36068 0.0
C23 C 0.04872 0.15742 0.37297 0.0
C24 C 0.05752 0.16112 0.44637 0.0
C25 C 0.07571 0.15421 0.43551 0.0
H26 H 0.03851 0.16125 0.34809 0.0
H27 H 0.0545 0.16862 0.4794 0.0
H28 H -0.00161 0.2157 0.35768 0.0
H29 H 0.04216 0.29806 0.33297 0.0
H30 H 0.00832 0.0682 0.54198 0.0
H31 H 0.07034 0.14761 0.32685 0.0
H32 H 0.08608 0.15464 0.46054 0.0
C33 C 0.19813 0.03841 0.4079 0.0
C34 C 0.2 1.01164 0.37326 0.0
N35 N 0.21584 1.02139 0.35382 0.0
N36 N 0.21267 0.06467 0.40918 0.0
C37 C 0.22333 0.05308 0.37624 0.0
H38 H 0.18652 0.04019 0.42938 0.0
Co39 Co 0.21618 0.10951 0.44509 0.0
C40 C 0.22913 0.17863 0.37912 0.0
O41 O 0.21484 0.20045 0.39117 0.0
N42 N 0.21976 0.15531 0.48308 0.0
C43 C 0.21545 0.21119 0.52587 0.0
C44 C 0.21198 0.19409 0.4858 0.0
C45 C 0.22854 0.15105 0.52091 0.0
N46 N 0.22535 0.1829 0.54803 0.0
O47 O 0.23613 0.07452 0.47652 0.0
H48 H 0.20243 0.20725 0.46291 0.0
H49 H 0.23588 0.12349 0.53105 0.0
O50 O 0.23241 0.14227 0.39792 0.0
C51 C 0.22851 0.04673 0.50206 0.0
O52 O 0.21062 0.04345 0.50019 0.0
N53 N 0.19451 0.13343 0.42286 0.0
C54 C 0.15823 0.14397 0.3974 0.0
C55 C 0.17204 0.14056 0.36647 0.0
C56 C 0.19009 0.13429 0.37998 0.0
C57 C 0.18105 0.13654 0.45312 0.0
C58 C 0.16286 0.14258 0.44111 0.0
H59 H 0.20026 0.12688 0.35625 0.0
H60 H 0.18429 0.13182 0.48683 0.0
H61 H 0.23587 0.06889 0.36729 0.0
H62 H 0.1902 0.98862 0.36185 0.0
H63 H 0.20916 0.23904 0.53949 0.0
H64 H 0.16874 0.14008 0.3324 0.0
H65 H 0.15237 0.14402 0.46569 0.0
C66 C 0.04328 0.03841 0.88692 0.0
C67 C 0.03807 1.01666 0.92336 0.0
N68 N 0.0223 0.03377 0.93713 0.0
N69 N 0.03086 0.06899 0.879 0.0
C70 C 0.01811 0.0648 0.90967 0.0
H71 H 0.05556 0.03329 0.86823 0.0
Co72 Co 0.03074 0.10945 0.83711 0.0
C73 C 0.02159 0.18592 0.89979 0.0
O74 O 0.03793 0.20105 0.89197 0.0
N75 N 0.03028 0.14932 0.79353 0.0
C76 C 0.02825 0.20384 0.74854 0.0
C77 C 0.02859 0.19175 0.79126 0.0
C78 C 0.03107 0.13663 0.75228 0.0
N79 N 0.02967 0.16873 0.72462 0.0
O80 O 0.00896 0.07908 0.80811 0.0
H81 H 0.02715 0.21282 0.81819 0.0
H82 H 0.03243 0.10417 0.74235 0.0
O83 O 0.01624 0.15179 0.87935 0.0
C84 C 0.01432 0.04542 0.7872 0.0
O85 O 0.03166 0.03511 0.79068 0.0
N86 N 0.05387 0.1296 0.85747 0.0
C87 C 0.09085 0.13854 0.87937 0.0
C88 C 0.07756 0.13511 0.91162 0.0
C89 C 0.05914 0.12993 0.89994 0.0
C90 C 0.06689 0.13291 0.82606 0.0
C91 C 0.08533 0.138 0.83629 0.0
H92 H 0.04923 0.12427 0.92492 0.0
H93 H 0.06335 0.12886 0.79257 0.0
H94 H 0.00614 0.08462 0.91262 0.0
H95 H 0.04539 0.99132 0.93911 0.0
H96 H 0.02627 0.23534 0.73603 0.0
H97 H 0.08147 0.13454 0.94532 0.0
H98 H 0.09533 0.13962 0.81062 0.0
C99 C 0.2108 0.24902 0.89223 0.0
C100 C 0.21427 0.27028 0.93013 0.0
N101 N 0.23111 0.25906 0.94332 0.0
N102 N 0.22535 0.22438 0.88296 0.0
C103 C 0.23769 0.23239 0.91376 0.0
H104 H 0.19822 0.24971 0.87384 0.0
Co105 Co 0.22816 0.18598 0.83972 0.0
C106 C 0.23944 0.10768 0.89439 0.0
O107 O 0.22521 0.08865 0.87727 0.0
N108 N 0.23116 0.14927 0.79387 0.0
C109 C 0.23842 0.1025 0.74305 0.0
C110 C 0.23823 0.11049 0.78679 0.0
C111 C 0.22785 0.16454 0.75425 0.0
N112 N 0.23217 0.13719 0.72309 0.0
O113 O 0.24919 0.21997 0.81664 0.0
H114 H 0.24398 0.09018 0.81085 0.0
H115 H 0.22236 0.19555 0.74806 0.0
O116 O 0.24329 0.1458 0.88133 0.0
C117 C 0.24308 0.25243 0.79552 0.0
O118 O 0.22538 0.25949 0.79674 0.0
N119 N 0.20579 0.15998 0.85665 0.0
C120 C 0.16919 0.14531 0.87787 0.0
C121 C 0.18268 0.14534 0.91002 0.0
C122 C 0.20092 0.15332 0.8988 0.0
C123 C 0.19269 0.15905 0.8252 0.0
C124 C 0.1744 0.15133 0.83504 0.0
H125 H 0.21093 0.15666 0.92426 0.0
H126 H 0.196 0.16745 0.79251 0.0
H127 H 0.25101 0.2176 0.9156 0.0
H128 H 0.20493 0.29034 0.94778 0.0
H129 H 0.24355 0.07455 0.72708 0.0
H130 H 0.179 0.1415 0.9436 0.0
H131 H 0.16423 0.15224 0.80957 0.0
C132 C 0.95764 0.79516 0.62778 0.0
C133 C 0.96171 0.77078 0.66334 0.0
N134 N 0.97804 0.7836 0.67847 0.0
N135 N 0.97135 0.82304 0.6217 0.0
C136 C 0.98374 0.81437 0.65229 0.0
H137 H 0.94516 0.79425 0.60901 0.0
Co138 Co 0.97303 0.86642 0.58326 0.0
C139 C 0.98382 0.94056 0.64363 0.0
O140 O 0.96993 0.95981 0.62525 0.0
N141 N 0.97531 0.90871 0.54283 0.0
C142 C 0.98884 0.95063 0.49498 0.0
C143 C 0.98799 0.93936 0.53794 0.0
C144 C 0.96897 0.90164 0.50289 0.0
N145 N 0.97691 0.92619 0.47341 0.0
O146 O 0.99342 0.83423 0.55141 0.0
H147 H 0.99779 0.94873 0.56217 0.0
H148 H 0.96022 0.87543 0.49477 0.0
O149 O 0.9883 0.90319 0.62892 0.0
C150 C 0.98623 0.80536 0.5264 0.0
O151 O 0.96849 0.79956 0.52971 0.0
N152 N 0.95085 0.88968 0.60614 0.0
C153 C 0.91457 0.89965 0.63279 0.0
C154 C 0.92854 0.89435 0.66335 0.0
C155 C 0.94669 0.88964 0.64929 0.0
C156 C 0.9372 0.89624 0.57673 0.0
C157 C 0.91919 0.90217 0.58934 0.0
H158 H 0.95715 0.88282 0.6729 0.0
H159 H 0.93957 0.89347 0.54288 0.0
H160 H 0.99641 0.83146 0.65663 0.0
H161 H 0.95302 0.74746 0.67836 0.0
H162 H -0.00115 0.97113 0.48019 0.0
H163 H 0.92534 0.89158 0.69731 0.0
H164 H 0.90867 0.90547 0.56488 0.0
C165 C 0.78864 1.00663 0.64319 0.0
C166 C 0.78161 0.02817 0.67794 0.0
N167 N 0.76475 1.013 0.68522 0.0
N168 N 0.77622 0.97789 0.62971 0.0
C169 C 0.76158 0.98396 0.65486 0.0
H170 H 0.80204 1.01132 0.62953 0.0
Co171 Co 0.77692 0.93883 0.58612 0.0
C172 C 0.76416 0.88464 0.66678 0.0
O173 O 0.77572 0.90722 0.6895 0.0
N174 N 0.77776 0.90145 0.54122 0.0
C175 C 0.77635 0.84816 0.49482 0.0
C176 C 0.77505 0.85954 0.53762 0.0
C177 C 0.78072 0.91482 0.50081 0.0
N178 N 0.77965 0.88338 0.4721 0.0
O179 O 0.75527 0.96911 0.55685 0.0
H180 H 0.77141 0.83893 0.56358 0.0
H181 H 0.78286 0.94742 0.49215 0.0
O182 O 0.76222 0.89375 0.62566 0.0
C183 C 0.76063 1.00329 0.53698 0.0
O184 O 0.77781 1.0143 0.54214 0.0
N185 N 0.79981 0.91822 0.60576 0.0
C186 C 0.83666 0.90486 0.62571 0.0
C187 C 0.82315 0.87799 0.64197 0.0
C188 C 0.80483 0.88435 0.63032 0.0
C189 C 0.81301 0.94294 0.58783 0.0
C190 C 0.83146 0.93714 0.59762 0.0
H191 H 0.79509 0.86165 0.64095 0.0
H192 H 0.80908 0.96809 0.56621 0.0
H193 H 0.74905 0.96599 0.65229 0.0
H194 H 0.78861 0.05119 0.69777 0.0
H195 H 0.77377 0.81734 0.48114 0.0
H196 H 0.82679 0.85181 0.66267 0.0
H197 H 0.84158 0.95787 0.58354 0.0
C198 C 0.95691 1.00359 0.13216 0.0
C199 C 0.96272 0.02614 0.09677 0.0
N200 N 0.97898 1.01019 0.08482 0.0
N201 N 0.96953 0.97378 0.14138 0.0
C202 C 0.98295 0.97933 0.11267 0.0
H203 H 0.94416 1.00766 0.14926 0.0
Co204 Co 0.96942 0.93357 0.18341 0.0
C205 C 0.97875 0.85503 0.12462 0.0
O206 O 0.96332 0.83847 0.13795 0.0
N207 N 0.96959 0.89442 0.22806 0.0
C208 C 0.97341 0.84326 0.27651 0.0
C209 C 0.9733 0.85296 0.23318 0.0
C210 C 0.96758 0.90892 0.26849 0.0
N211 N 0.9702 0.87905 0.29833 0.0
O212 O 0.99075 0.96433 0.21307 0.0
H213 H 0.97689 0.83135 0.2081 0.0
H214 H 0.96478 0.94142 0.27633 0.0
O215 O 0.98402 0.89109 0.14144 0.0
C216 C 0.98478 0.99774 0.23339 0.0
O217 O 0.96742 1.00729 0.22842 0.0
N218 N 0.94684 0.91274 0.16162 0.0
C219 C 0.91062 0.90167 0.13531 0.0
C220 C 0.92464 0.90358 0.10473 0.0
C221 C 0.94269 0.90982 0.11856 0.0
C222 C 0.93315 0.91076 0.19144 0.0
C223 C 0.91503 0.90471 0.17901 0.0
H224 H 0.95322 0.91403 0.09459 0.0
H225 H 0.93598 0.91642 0.22508 0.0
H226 H 0.99527 0.96048 0.11137 0.0
H227 H 0.95535 0.05085 0.08008 0.0
H228 H 0.97683 0.8132 0.29092 0.0
H229 H 0.92156 0.90206 0.07059 0.0
H230 H 0.90441 0.90418 0.20332 0.0
C231 C 0.78752 0.79049 0.13241 0.0
C232 C 0.78216 0.76772 0.09668 0.0
N233 N 0.76583 0.78293 0.08409 0.0
N234 N 0.77458 0.8197 0.14097 0.0
C235 C 0.76137 0.81343 0.11186 0.0
H236 H 0.80028 0.78734 0.14982 0.0
Co237 Co 0.77417 0.86083 0.18168 0.0
C238 C 0.765 0.93859 0.12195 0.0
O239 O 0.78012 0.95525 0.1373 0.0
N240 N 0.77352 0.90089 0.22512 0.0
C241 C 0.76856 0.95299 0.27185 0.0
C242 C 0.76728 0.94079 0.22927 0.0
C243 C 0.77778 0.88912 0.26553 0.0
N244 N 0.77494 0.9199 0.29427 0.0
O245 O 0.75283 0.83041 0.2108 0.0
H246 H 0.76079 0.95885 0.20436 0.0
H247 H 0.78239 0.85786 0.27412 0.0
O248 O 0.75966 0.90231 0.13803 0.0
C249 C 0.75887 0.79795 0.23251 0.0
O250 O 0.77643 0.7896 0.22976 0.0
N251 N 0.79681 0.88162 0.16024 0.0
C252 C 0.833 0.89298 0.13411 0.0
C253 C 0.81895 0.89094 0.10345 0.0
C254 C 0.80091 0.88452 0.11718 0.0
C255 C 0.81055 0.88358 0.19007 0.0
C256 C 0.82864 0.88983 0.17776 0.0
H257 H 0.79035 0.88021 0.09315 0.0
H258 H 0.80787 0.87763 0.22361 0.0
H259 H 0.74895 0.83187 0.1099 0.0
H260 H 0.78996 0.74386 0.07988 0.0
H261 H 0.76382 0.98232 0.28576 0.0
H262 H 0.82199 0.89247 0.06933 0.0
H263 H 0.83929 0.89037 0.20212 0.0
C264 C 0.03818 0.75607 0.88374 0.0
C265 C 0.03326 0.77676 0.84636 0.0
N266 N 0.01728 0.76028 0.83296 0.0
N267 N 0.02542 0.72656 0.89254 0.0
C268 C 0.01269 0.73066 0.8616 0.0
H269 H 0.05063 0.76069 0.90209 0.0
Co270 Co 0.02505 0.6858 0.93435 0.0
C271 C 0.01718 0.60865 0.87276 0.0
O272 O 0.03223 0.59122 0.88759 0.0
N273 N 0.02415 0.64581 0.9779 0.0
C274 C 0.02008 0.59307 0.02429 0.0
C275 C 0.01937 0.60475 0.98143 0.0
C276 C 0.02714 0.65838 0.01867 0.0
N277 N 0.02473 0.62736 0.04728 0.0
O278 O 0.00318 0.7153 0.96202 0.0
H279 H 0.01475 0.5848 0.95552 0.0
H280 H 0.03091 0.69015 0.02752 0.0
O281 O 0.01158 0.644 0.89033 0.0
C282 C 0.00901 0.74778 0.98403 0.0
O283 O 0.02646 0.75706 0.98104 0.0
N284 N 0.04819 0.66587 0.91524 0.0
C285 C 0.08483 0.65371 0.8932 0.0
C286 C 0.07148 0.6573 0.86098 0.0
C287 C 0.05323 0.66421 0.87278 0.0
C288 C 0.06129 0.66289 0.9466 0.0
C289 C 0.07957 0.65617 0.93632 0.0
H290 H 0.04323 0.66995 0.84789 0.0
H291 H 0.05797 0.66822 0.97992 0.0
H292 H 0.00059 0.71123 0.85894 0.0
H293 H 0.04101 0.80062 0.82949 0.0
H294 H 0.01661 0.56264 0.03772 0.0
H295 H 0.07524 0.65647 0.82723 0.0
H296 H 0.08967 0.65456 0.9619 0.0
C297 C 0.20928 0.53476 0.89827 0.0
C298 C 0.21432 0.51359 0.86126 0.0
N299 N 0.22968 0.5318 0.84654 0.0
N300 N 0.22148 0.56589 0.90581 0.0
C301 C 0.2339 0.56262 0.87424 0.0
H302 H 0.19721 0.529 0.91747 0.0
Co303 Co 0.22149 0.60671 0.94765 0.0
C304 C 0.23069 0.68247 0.88469 0.0
O305 O 0.2148 0.69904 0.89455 0.0
N306 N 0.22195 0.64686 0.99158 0.0
C307 C 0.225 0.70128 0.03658 0.0
C308 C 0.22509 0.68883 0.99392 0.0
C309 C 0.22003 0.63475 0.0329 0.0
N310 N 0.22199 0.66682 0.06062 0.0
O311 O 0.24284 0.57602 0.97728 0.0
H312 H 0.22778 0.70932 0.96711 0.0
H313 H 0.21735 0.60272 0.0428 0.0
O314 O 0.23612 0.64841 0.90513 0.0
C315 C 0.2368 0.54322 0.99841 0.0
O316 O 0.2193 0.53458 0.99482 0.0
N317 N 0.19874 0.62751 0.92609 0.0
C318 C 0.16249 0.64 0.90026 0.0
C319 C 0.17623 0.63463 0.8695 0.0
C320 C 0.19422 0.62755 0.88315 0.0
C321 C 0.18529 0.63276 0.95617 0.0
C322 C 0.16716 0.63956 0.94394 0.0
H323 H 0.20439 0.6206 0.85921 0.0
H324 H 0.18823 0.62927 0.99005 0.0
H325 H 0.24563 0.58304 0.87066 0.0
H326 H 0.20702 0.48818 0.84554 0.0
H327 H 0.22752 0.73261 0.04905 0.0
H328 H 0.17295 0.63404 0.83542 0.0
H329 H 0.15672 0.64278 0.96848 0.0
C330 C 0.04041 0.54021 0.38251 0.0
C331 C 0.03471 0.51837 0.41853 0.0
N332 N 0.01877 0.53541 0.43137 0.0
N333 N 0.02815 0.57092 0.37388 0.0
C334 C 0.01495 0.56646 0.40356 0.0
H335 H 0.0531 0.53567 0.36524 0.0
Co336 Co 0.02913 0.61382 0.33426 0.0
C337 C 0.01981 0.69096 0.39357 0.0
O338 O 0.03438 0.70871 0.37685 0.0
N339 N 0.02935 0.65614 0.29311 0.0
C340 C 0.01746 0.7001 0.24466 0.0
C341 C 0.01803 0.68946 0.28771 0.0
C342 C 0.03552 0.64757 0.25335 0.0
N343 N 0.0282 0.67282 0.22331 0.0
O344 O 0.00845 0.58455 0.29975 0.0
H345 H 0.00868 0.70144 0.31158 0.0
H346 H 0.04347 0.61989 0.24588 0.0
O347 O 0.01449 0.65451 0.37775 0.0
C348 C 0.01533 0.55466 0.2754 0.0
O349 O 0.03289 0.54701 0.2799 0.0
N350 N 0.05147 0.63293 0.35954 0.0
C351 C 0.08689 0.64254 0.39225 0.0
C352 C 0.07207 0.63782 0.42027 0.0
C353 C 0.05445 0.63258 0.40314 0.0
C354 C 0.06599 0.63734 0.33227 0.0
C355 C 0.08369 0.64282 0.34791 0.0
H356 H 0.04326 0.62673 0.4249 0.0
H357 H 0.06434 0.63408 0.29807 0.0
H358 H 0.00314 0.58682 0.40624 0.0
H359 H 0.04202 0.49356 0.43518 0.0
H360 H 0.00801 0.72194 0.22965 0.0
H361 H 0.07418 0.63669 0.45483 0.0
H362 H 0.09496 0.64541 0.32542 0.0
C363 C 0.21221 0.75053 0.40881 0.0
C364 C 0.21886 0.77285 0.44356 0.0
N365 N 0.23548 0.75723 0.45315 0.0
N366 N 0.22466 0.72114 0.39738 0.0
C367 C 0.2388 0.72655 0.4245 0.0
H368 H 0.19903 0.75469 0.39349 0.0
Co369 Co 0.22325 0.68175 0.35418 0.0
C370 C 0.23284 0.60149 0.4073 0.0
O371 O 0.21784 0.58447 0.39209 0.0
N372 N 0.22185 0.64188 0.30832 0.0
C373 C 0.21125 0.59674 0.25872 0.0
C374 C 0.21127 0.60728 0.30188 0.0
C375 C 0.22838 0.65043 0.26863 0.0
N376 N 0.22168 0.62499 0.23801 0.0
O377 O 0.24502 0.70929 0.32543 0.0
H378 H 0.20211 0.59371 0.32524 0.0
H379 H 0.23678 0.67695 0.26059 0.0
O380 O 0.23758 0.63868 0.39345 0.0
C381 C 0.23999 0.74429 0.307 0.0
O382 O 0.22375 0.7592 0.31669 0.0
N383 N 0.2005 0.66407 0.3763 0.0
C384 C 0.16408 0.6542 0.40055 0.0
C385 C 0.17813 0.64856 0.43084 0.0
C386 C 0.19635 0.65457 0.41821 0.0
C387 C 0.1868 0.67166 0.34738 0.0
C388 C 0.16855 0.66609 0.35855 0.0
H389 H 0.20699 0.65292 0.44229 0.0
H390 H 0.19008 0.68289 0.31539 0.0
H391 H 0.25113 0.70765 0.42412 0.0
H392 H 0.21184 0.79722 0.4615 0.0
H393 H 0.20253 0.57367 0.24322 0.0
H394 H 0.175 0.64067 0.46398 0.0
H395 H 0.15796 0.6718 0.33476 0.0
C396 C 0.95914 0.29182 0.12576 0.0
C397 C 0.96403 0.2693 0.16197 0.0
N398 N 0.97959 0.28625 0.17727 0.0
N399 N 0.97159 0.32261 0.11935 0.0
C400 C 0.98402 0.31785 0.15079 0.0
H401 H 0.94693 0.28737 0.1065 0.0
Co402 Co 0.97171 0.36481 0.07919 0.0
C403 C 0.98064 0.44077 0.14335 0.0
O404 O 0.96501 0.45762 0.13197 0.0
N405 N 0.97213 0.40773 0.03674 0.0
C406 C 0.96421 0.4598 0.99185 0.0
C407 C 0.96366 0.44569 0.03389 0.0
C408 C 0.97828 0.40082 0.99642 0.0
N409 N 0.97322 0.43086 0.96859 0.0
O410 O 0.99311 0.33418 0.04922 0.0
H411 H 0.95541 0.45984 0.05871 0.0
H412 H 0.98498 0.37259 0.98588 0.0
O413 O 0.98596 0.40592 0.12396 0.0
C414 C 0.98665 0.30213 0.0272 0.0
O415 O 0.96915 0.29389 0.0315 0.0
N416 N 0.94884 0.3834 0.10032 0.0
C417 C 0.91228 0.39131 0.12454 0.0
C418 C 0.92604 0.38935 0.15594 0.0
C419 C 0.94426 0.38431 0.14304 0.0
C420 C 0.93537 0.38361 0.06975 0.0
C421 C 0.91707 0.38849 0.08107 0.0
H422 H 0.95459 0.37862 0.16715 0.0
H423 H 0.93874 0.37804 0.03633 0.0
H424 H 0.99578 0.33803 0.15537 0.0
H425 H 0.95643 0.24405 0.17704 0.0
H426 H 0.95677 0.48633 0.97861 0.0
H427 H 0.92265 0.38981 0.18991 0.0
H428 H 0.90665 0.38848 0.05615 0.0
C429 C 0.79093 0.50529 0.1326 0.0
C430 C 0.78673 0.52817 0.16905 0.0
N431 N 0.7702 0.51519 0.18252 0.0
N432 N 0.77713 0.47807 0.12455 0.0
C433 C 0.76453 0.48579 0.15465 0.0
H434 H 0.80353 0.5068 0.11443 0.0
Co435 Co 0.77532 0.43691 0.08396 0.0
C436 C 0.7661 0.35984 0.14421 0.0
O437 O 0.78076 0.34237 0.12753 0.0
N438 N 0.77326 0.39682 0.04087 0.0
C439 C 0.76664 0.34498 0.99493 0.0
C440 C 0.76627 0.35751 0.03748 0.0
C441 C 0.77697 0.40804 1.00008 0.0
N442 N 0.77311 0.37742 0.9718 0.0
O443 O 0.75401 0.46923 0.05623 0.0
H444 H 0.75985 0.3402 0.06295 0.0
H445 H 0.78194 0.43885 0.99095 0.0
O446 O 0.76094 0.39661 0.12883 0.0
C447 C 0.76015 0.50132 0.03415 0.0
O448 O 0.77781 0.50872 0.03608 0.0
N449 N 0.79797 0.41423 0.10355 0.0
C450 C 0.83442 0.40081 0.12682 0.0
C451 C 0.82089 0.40349 0.15856 0.0
C452 C 0.80272 0.41097 0.14626 0.0
C453 C 0.81118 0.41134 0.07264 0.0
C454 C 0.82939 0.40411 0.08353 0.0
H455 H 0.79261 0.41593 0.17111 0.0
H456 H 0.80801 0.41743 0.03933 0.0
H457 H 0.75171 0.46901 0.15727 0.0
H458 H 0.79537 0.5507 0.18557 0.0
H459 H 0.76123 0.31597 0.98164 0.0
H460 H 0.82447 0.40183 0.19243 0.0
H461 H 0.83964 0.40304 0.05836 0.0
C462 C 0.95554 0.50847 0.6316 0.0
C463 C 0.96071 0.53079 0.59545 0.0
N464 N 0.97717 0.51616 0.58314 0.0
N465 N 0.96873 0.4801 0.641 0.0
C466 C 0.98188 0.48645 0.6117 0.0
H467 H 0.94266 0.51109 0.64851 0.0
Co468 Co 0.96916 0.43788 0.68121 0.0
C469 C 0.97904 0.36091 0.62434 0.0
O470 O 0.965 0.34332 0.64361 0.0
N471 N 0.97039 0.39625 0.72318 0.0
C472 C 0.98496 0.35708 0.77207 0.0
C473 C 0.98343 0.36642 0.72882 0.0
C474 C 0.9643 0.40429 0.7632 0.0
N475 N 0.97314 0.38186 0.79336 0.0
O476 O 0.98974 0.46876 0.71349 0.0
H477 H 0.99323 0.35683 0.70477 0.0
H478 H 0.95538 0.43027 0.77072 0.0
O479 O 0.98405 0.39841 0.63758 0.0
C480 C 0.98272 0.49888 0.73712 0.0
O481 O 0.96522 0.50671 0.7316 0.0
N482 N 0.94689 0.4164 0.6577 0.0
C483 C 0.91111 0.40332 0.62874 0.0
C484 C 0.92554 0.40544 0.59922 0.0
C485 C 0.94336 0.41269 0.61437 0.0
C486 C 0.93275 0.41444 0.68629 0.0
C487 C 0.91489 0.40733 0.67261 0.0
H488 H 0.95415 0.41727 0.59116 0.0
H489 H 0.93485 0.42117 0.71979 0.0
H490 H 0.99443 0.46843 0.61003 0.0
H491 H 0.95268 0.55396 0.57818 0.0
H492 H 0.99553 0.33816 0.78704 0.0
H493 H 0.92294 0.40335 0.56488 0.0
H494 H 0.90394 0.40683 0.69612 0.0
C495 C 0.78767 0.28965 0.62936 0.0
C496 C 0.78179 0.26717 0.5939 0.0
N497 N 0.76552 0.28327 0.58204 0.0
N498 N 0.77511 0.31955 0.6385 0.0
C499 C 0.76162 0.31408 0.6099 0.0
H500 H 0.80048 0.28562 0.64639 0.0
Co501 Co 0.77527 0.35984 0.68005 0.0
C502 C 0.76593 0.43865 0.62131 0.0
O503 O 0.7814 0.45499 0.6349 0.0
N504 N 0.77526 0.39899 0.72445 0.0
C505 C 0.77203 0.45083 0.77237 0.0
C506 C 0.77126 0.44033 0.7293 0.0
C507 C 0.77809 0.38511 0.76485 0.0
N508 N 0.77606 0.41558 0.79429 0.0
O509 O 0.75384 0.32932 0.70942 0.0
H510 H 0.76682 0.46117 0.70436 0.0
H511 H 0.78106 0.35271 0.77289 0.0
O512 O 0.76064 0.40252 0.6379 0.0
C513 C 0.7594 0.29547 0.72962 0.0
O514 O 0.77674 0.28542 0.72567 0.0
N515 N 0.79781 0.38055 0.65805 0.0
C516 C 0.8338 0.3922 0.63056 0.0
C517 C 0.81956 0.38991 0.60045 0.0
C518 C 0.80164 0.3834 0.61486 0.0
C519 C 0.81172 0.38284 0.68744 0.0
C520 C 0.82974 0.38917 0.67442 0.0
H521 H 0.79094 0.37907 0.59121 0.0
H522 H 0.80917 0.3773 0.72117 0.0
H523 H 0.74936 0.33315 0.60851 0.0
H524 H 0.78916 0.24269 0.57693 0.0
H525 H 0.76855 0.48088 0.78672 0.0
H526 H 0.82237 0.39141 0.56621 0.0
H527 H 0.84055 0.39 0.69838 0.0
C528 C 0.53865 0.25678 0.87362 0.0
C529 C 0.53387 0.27949 0.8374 0.0
N530 N 0.51741 0.26544 0.82434 0.0
N531 N 0.52518 0.22893 0.88219 0.0
C532 C 0.51229 0.23588 0.85244 0.0
H533 H 0.55141 0.25888 0.89121 0.0
Co534 Co 0.52399 0.18742 0.92237 0.0
C535 C 0.5113 0.11103 0.86471 0.0
O536 O 0.52537 0.09024 0.87996 0.0
N537 N 0.52273 0.14497 0.96488 0.0
C538 C 0.53077 0.09584 0.01296 0.0
C539 C 0.53234 0.10879 0.97072 0.0
C540 C 0.51484 0.15168 1.00338 0.0
N541 N 0.52011 0.12396 0.03323 0.0
O542 O 0.50358 0.22099 0.95209 0.0
H543 H 0.5419 0.09543 0.94801 0.0
H544 H 0.50674 0.17864 0.01181 0.0
O545 O 0.50814 0.14901 0.87952 0.0
C546 C 0.51087 0.25095 0.97553 0.0
O547 O 0.52863 0.25629 0.9723 0.0
N548 N 0.54597 0.16535 0.90068 0.0
C549 C 0.58249 0.15457 0.87779 0.0
C550 C 0.56865 0.15063 0.84662 0.0
C551 C 0.55036 0.15701 0.85864 0.0
C552 C 0.55947 0.17037 0.9307 0.0
C553 C 0.57773 0.1643 0.92018 0.0
H554 H 0.53994 0.15749 0.83396 0.0
H555 H 0.55603 0.18072 0.96292 0.0
H556 H 0.49965 0.21833 0.85 0.0
H557 H 0.5422 0.30222 0.82042 0.0
H558 H 0.53866 0.07137 0.02864 0.0
H559 H 0.57204 0.14444 0.81323 0.0
H560 H 0.58816 0.16863 0.94469 0.0
C561 C 0.70232 0.04334 0.88506 0.0
C562 C 0.70563 1.01962 0.84868 0.0
N563 N 0.72197 0.03167 0.83327 0.0
N564 N 0.71647 0.07011 0.89114 0.0
C565 C 0.7284 0.0614 0.85984 0.0
H566 H 0.69008 0.04267 0.90459 0.0
Co567 Co 0.71883 0.11179 0.93098 0.0
C568 C 0.72889 0.18815 0.87071 0.0
O569 O 0.71452 0.20657 0.88776 0.0
N570 N 0.72125 0.15215 0.97359 0.0
C571 C 0.72947 0.20265 0.01961 0.0
C572 C 0.72905 0.1906 0.97696 0.0
C573 C 0.71774 0.14093 0.01446 0.0
N574 N 0.72282 0.17049 0.04288 0.0
O575 O 0.73997 0.07874 0.95901 0.0
H576 H 0.7359 0.20695 0.95154 0.0
H577 H 0.7125 0.11037 0.02357 0.0
O578 O 0.73361 0.15092 0.88575 0.0
C579 C 0.73392 0.04701 0.98179 0.0
O580 O 0.71623 0.03991 0.98073 0.0
N581 N 0.69649 0.13553 0.91067 0.0
C582 C 0.66026 0.14767 0.88484 0.0
C583 C 0.67414 0.14459 0.85406 0.0
C584 C 0.69218 0.13798 0.86764 0.0
C585 C 0.683 0.13951 0.94078 0.0
C586 C 0.66485 0.146 0.92856 0.0
H587 H 0.70251 0.1324 0.84346 0.0
H588 H 0.68594 0.13467 0.97448 0.0
H589 H 0.74128 0.0776 0.8555 0.0
H590 H 0.69657 0.99694 0.8337 0.0
H591 H 0.7359 0.23057 0.03281 0.0
H592 H 0.67093 0.14502 0.81995 0.0
H593 H 0.65432 0.14754 0.95304 0.0
C594 C 0.54228 0.03455 0.35851 0.0
C595 C 0.54132 1.01099 0.39571 0.0
N596 N 0.5262 0.02328 0.41678 0.0
N597 N 0.5279 0.0613 0.35725 0.0
C598 C 0.51819 0.05311 0.39276 0.0
H599 H 0.55316 0.03375 0.33492 0.0
Co600 Co 0.52378 0.10316 0.31826 0.0
C601 C 0.51399 0.17907 0.3791 0.0
O602 O 0.52751 0.19862 0.35978 0.0
N603 N 0.51948 0.14369 0.27706 0.0
C604 C 0.50764 0.19341 0.23479 0.0
C605 C 0.50855 0.17795 0.27612 0.0
C606 C 0.52372 0.13686 0.23558 0.0
N607 N 0.51666 0.16629 0.20931 0.0
O608 O 0.50261 0.06887 0.29234 0.0
H609 H 0.49972 0.18754 0.30182 0.0
H610 H 0.53091 0.10912 0.22437 0.0
O611 O 0.50961 0.14103 0.3656 0.0
C612 C 0.5088 0.039 0.2672 0.0
O613 O 0.52662 0.03421 0.26521 0.0
N614 N 0.54625 0.1285 0.33599 0.0
C615 C 0.58281 0.1419 0.35864 0.0
C616 C 0.56943 0.13869 0.39055 0.0
C617 C 0.55126 0.13134 0.37857 0.0
C618 C 0.55924 0.13277 0.30472 0.0
C619 C 0.57755 0.13985 0.31534 0.0
H620 H 0.54145 0.12524 0.40368 0.0
H621 H 0.55586 0.12748 0.27136 0.0
H622 H 0.50585 0.0697 0.40186 0.0
H623 H 0.55111 0.98797 0.40716 0.0
H624 H 0.49948 0.21978 0.22376 0.0
H625 H 0.57315 0.13938 0.42438 0.0
H626 H 0.58769 0.1415 0.28997 0.0
C627 C 0.7036 0.25272 0.38063 0.0
C628 C 0.70723 0.27589 0.41728 0.0
N629 N 0.72373 0.26365 0.43187 0.0
N630 N 0.71773 0.22614 0.37356 0.0
C631 C 0.72992 0.23443 0.40452 0.0
H632 H 0.69123 0.25383 0.36142 0.0
Co633 Co 0.72064 0.18575 0.33265 0.0
C634 C 0.73021 0.10878 0.39347 0.0
O635 O 0.71599 0.09006 0.37596 0.0
N636 N 0.72377 0.14657 0.28924 0.0
C637 C 0.73115 0.09611 0.24244 0.0
C638 C 0.7307 0.10726 0.28541 0.0
C639 C 0.72078 0.15905 0.2485 0.0
N640 N 0.72514 0.12937 0.21972 0.0
O641 O 0.742 0.21958 0.30736 0.0
H642 H 0.73635 0.08889 0.31114 0.0
H643 H 0.71581 0.19 0.23983 0.0
O644 O 0.73492 0.14593 0.37838 0.0
C645 C 0.73595 0.2517 0.28507 0.0
O646 O 0.71824 0.2587 0.28586 0.0
N647 N 0.69795 0.16154 0.34955 0.0
C648 C 0.66101 0.14857 0.36803 0.0
C649 C 0.67391 0.15033 0.40146 0.0
C650 C 0.69236 0.15748 0.39155 0.0
C651 C 0.68536 0.15924 0.31703 0.0
C652 C 0.66694 0.15222 0.32551 0.0
H653 H 0.70196 0.16211 0.41769 0.0
H654 H 0.68916 0.16598 0.28427 0.0
H655 H 0.74291 0.21838 0.40795 0.0
H656 H 0.69829 0.29832 0.43298 0.0
H657 H 0.7366 0.06732 0.22879 0.0
H658 H 0.66963 0.14837 0.43481 0.0
H659 H 0.65722 0.15184 0.29907 0.0
C660 C 0.45223 0.78707 0.12229 0.0
C661 C 0.4565 0.76622 0.16003 0.0
N662 N 0.47315 0.77947 0.17265 0.0
N663 N 0.46612 0.81334 0.11234 0.0
C664 C 0.47883 0.80695 0.14283 0.0
H665 H 0.43958 0.78464 0.10428 0.0
Co666 Co 0.4682 0.85179 0.06864 0.0
C667 C 0.47761 0.93082 0.12719 0.0
O668 O 0.46311 0.94893 0.11034 0.0
N669 N 0.47064 0.88893 0.02233 0.0
C670 C 0.47646 0.93897 0.97385 0.0
C671 C 0.47647 0.92901 0.01718 0.0
C672 C 0.46775 0.87497 0.98178 0.0
N673 N 0.47114 0.90454 0.95196 0.0
O674 O 0.48985 0.81858 0.04472 0.0
H675 H 0.48121 0.94934 0.04247 0.0
H676 H 0.4632 0.84343 0.9741 0.0
O677 O 0.48247 0.89383 0.11202 0.0
C678 C 0.48425 0.78531 0.02374 0.0
O679 O 0.46669 0.77671 0.02533 0.0
N680 N 0.44523 0.87607 0.08506 0.0
C681 C 0.40858 0.89514 0.10305 0.0
C682 C 0.42149 0.8926 0.13646 0.0
C683 C 0.43972 0.88229 0.12685 0.0
C684 C 0.43258 0.87809 0.05259 0.0
C685 C 0.41434 0.88812 0.06078 0.0
H686 H 0.44928 0.87797 0.15313 0.0
H687 H 0.43621 0.86952 0.02014 0.0
H688 H 0.49183 0.8232 0.14408 0.0
H689 H 0.44786 0.74467 0.17775 0.0
H690 H 0.48062 0.96849 0.95945 0.0
H691 H 0.41736 0.89688 0.16969 0.0
H692 H 0.40461 0.8887 0.03437 0.0
C693 C 0.27341 0.99687 0.14856 0.0
C694 C 0.26659 1.01575 0.18513 0.0
N695 N 0.25249 0.99219 0.19881 0.0
N696 N 0.2636 0.96166 0.14045 0.0
C697 C 0.25082 0.96008 0.1712 0.0
H698 H 0.28508 1.00732 0.13014 0.0
Co699 Co 0.26526 0.92127 0.09933 0.0
C700 C 0.27156 0.84201 0.16156 0.0
O701 O 0.28591 0.82664 0.14156 0.0
N702 N 0.26605 0.87955 0.05647 0.0
C703 C 0.26162 0.82299 0.01452 0.0
C704 C 0.26182 0.83796 0.05644 0.0
C705 C 0.26824 0.88858 0.01455 0.0
N706 N 0.26533 0.85571 0.9886 0.0
O707 O 0.26286 0.96874 0.05311 0.0
H708 H 0.25807 0.81976 0.08433 0.0
H709 H 0.27161 0.91912 1.00206 0.0
O710 O 0.26403 0.876 0.14697 0.0
C711 C 0.27058 1.00099 0.03515 0.0
O712 O 0.28732 1.01086 0.04675 0.0
N713 N 0.29176 0.923 0.1026 0.0
C714 C 0.33001 0.91815 0.11037 0.0
C715 C 0.31887 0.91575 0.14686 0.0
C716 C 0.29984 0.9185 0.14231 0.0
C717 C 0.30269 0.92692 0.06702 0.0
C718 C 0.32176 0.92448 0.0702 0.0
H719 H 0.29158 0.91664 0.17107 0.0
H720 H 0.29698 0.93212 0.03563 0.0
H721 H 0.24077 0.93518 0.17404 0.0
H722 H 0.27177 0.04369 0.20103 0.0
H723 H 0.2581 0.79151 1.00389 0.0
H724 H 0.32483 0.91124 0.17854 0.0
H725 H 0.33001 0.92693 0.04133 0.0
C726 C 0.4607 1.00159 0.60235 0.0
C727 C 0.46973 1.02116 0.56923 0.0
N728 N 0.48696 1.00673 0.56905 0.0
N729 N 0.47216 0.97386 0.62189 0.0
C730 C 0.48829 0.97982 0.60213 0.0
H731 H 0.44648 1.0066 0.60982 0.0
Co732 Co 0.46871 0.93157 0.66313 0.0
C733 C 0.48283 0.87208 0.60734 0.0
O734 O 0.46514 0.87482 0.60077 0.0
N735 N 0.46564 0.89034 0.70468 0.0
C736 C 0.45181 0.84685 0.75026 0.0
C737 C 0.45235 0.86107 0.70813 0.0
C738 C 0.47345 0.89175 0.74388 0.0
N739 N 0.46471 0.86782 0.77286 0.0
O740 O 0.48284 0.97067 0.70819 0.0
H741 H 0.44248 0.85398 0.68312 0.0
H742 H 0.4846 0.91233 0.75248 0.0
O743 O 0.48977 0.89673 0.63702 0.0
C744 C 0.47996 1.00993 0.71895 0.0
O745 O 0.46797 0.03151 0.69642 0.0
N746 N 0.44582 0.95383 0.6785 0.0
C747 C 0.408 0.95924 0.68842 0.0
C748 C 0.41556 0.94519 0.64982 0.0
C749 C 0.43434 0.94129 0.64624 0.0
C750 C 0.43879 0.96813 0.71662 0.0
C751 C 0.41974 0.97135 0.72219 0.0
H752 H 0.43988 0.92728 0.61735 0.0
H753 H 0.44758 0.9744 0.74362 0.0
H754 H 0.50067 0.96304 0.61001 0.0
H755 H 0.46378 0.04168 0.54509 0.0
H756 H 0.44144 0.82673 0.76417 0.0
H757 H 0.40691 0.93445 0.62358 0.0
H758 H 0.41423 0.98077 0.75313 0.0
C759 C 0.29509 0.81163 0.65505 0.0
C760 C 0.29337 0.78879 0.61735 0.0
N761 N 0.27631 0.79497 0.60235 0.0
N762 N 0.27913 0.8317 0.66291 0.0
C763 C 0.26794 0.82031 0.63065 0.0
H764 H 0.30725 0.8142 0.67479 0.0
Co765 Co 0.27268 0.86938 0.70499 0.0
C766 C 0.25737 0.94387 0.64909 0.0
O767 O 0.26609 0.96931 0.67549 0.0
N768 N 0.26572 0.90642 0.74777 0.0
C769 C 0.2461 0.93133 0.79636 0.0
C770 C 0.24934 0.92555 0.75294 0.0
C771 C 0.27206 0.90123 0.78797 0.0
N772 N 0.26023 0.91427 0.818 0.0
O773 O 0.25348 0.82799 0.72882 0.0
H774 H 0.2391 0.92843 0.72803 0.0
H775 H 0.28377 0.88237 0.7959 0.0
O776 O 0.25724 0.90366 0.65814 0.0
C777 C 0.26158 0.79918 0.75234 0.0
O778 O 0.27942 0.79618 0.74859 0.0
N779 N 0.29399 0.90104 0.69275 0.0
C780 C 0.33001 0.93038 0.6897 0.0
C781 C 0.31783 0.93882 0.65567 0.0
C782 C 0.29981 0.92331 0.65757 0.0
C783 C 0.30622 0.8909 0.72432 0.0
C784 C 0.32389 0.90655 0.72448 0.0
H785 H 0.29114 0.9274 0.62991 0.0
H786 H 0.30277 0.86745 0.7479 0.0
H787 H 0.25396 0.83105 0.62726 0.0
H788 H 0.30383 0.77018 0.60163 0.0
H789 H 0.2333 0.94107 0.81075 0.0
H790 H 0.32245 0.95542 0.62721 0.0
H791 H 0.33319 0.89733 0.75008 0.0
C792 C 0.5368 0.75735 0.37295 0.0
C793 C 0.53086 0.77885 0.33689 0.0
N794 N 0.51468 0.76218 0.3251 0.0
N795 N 0.52436 0.72745 0.38283 0.0
C796 C 0.51088 0.73203 0.35385 0.0
H797 H 0.5496 0.76199 0.38986 0.0
Co798 Co 0.52481 0.68734 0.42519 0.0
C799 C 0.51559 0.60782 0.36746 0.0
O800 O 0.53072 0.59123 0.38283 0.0
N801 N 0.52483 0.6482 0.46984 0.0
C802 C 0.51961 0.59719 0.51756 0.0
C803 C 0.51877 0.60827 0.47468 0.0
C804 C 0.52874 0.66089 0.51022 0.0
N805 N 0.52552 0.63097 0.53965 0.0
O806 O 0.50392 0.71858 0.45576 0.0
H807 H 0.51248 0.5895 0.45008 0.0
H808 H 0.53315 0.69235 0.51845 0.0
O809 O 0.51022 0.64433 0.38316 0.0
C810 C 0.5111 0.75007 0.47717 0.0
O811 O 0.52873 0.7563 0.47213 0.0
N812 N 0.54731 0.66658 0.40314 0.0
C813 C 0.58342 0.65412 0.37695 0.0
C814 C 0.5693 0.65553 0.34638 0.0
C815 C 0.5513 0.66253 0.36015 0.0
C816 C 0.56113 0.66558 0.43282 0.0
C817 C 0.57917 0.65877 0.4205 0.0
H818 H 0.54071 0.66631 0.33617 0.0
H819 H 0.55852 0.67261 0.4662 0.0
H820 H 0.4987 0.71272 0.35282 0.0
H821 H 0.53817 0.80306 0.31944 0.0
H822 H 0.5147 0.56821 0.53175 0.0
H823 H 0.57227 0.65292 0.31228 0.0
H824 H 0.58987 0.65884 0.44476 0.0
C825 C 0.707 0.53988 0.38123 0.0
C826 C 0.71271 0.51731 0.34574 0.0
N827 N 0.72891 0.53337 0.33353 0.0
N828 N 0.71959 0.56984 0.39007 0.0
C829 C 0.73294 0.56425 0.36127 0.0
H830 H 0.69425 0.53599 0.39838 0.0
Co831 Co 0.71935 0.61068 0.43118 0.0
C832 C 0.72839 0.68887 0.37169 0.0
O833 O 0.7129 0.70506 0.38526 0.0
N834 N 0.71929 0.65039 0.47513 0.0
C835 C 0.72287 0.70258 0.52254 0.0
C836 C 0.72349 0.69165 0.47957 0.0
C837 C 0.71648 0.637 0.51567 0.0
N838 N 0.71883 0.6676 0.54485 0.0
O839 O 0.74081 0.5808 0.46116 0.0
H840 H 0.72808 0.71203 0.45445 0.0
H841 H 0.7134 0.60476 0.52406 0.0
O842 O 0.73386 0.653 0.38862 0.0
C843 C 0.73509 0.54754 0.48198 0.0
O844 O 0.7177 0.53783 0.47798 0.0
N845 N 0.69678 0.63089 0.40871 0.0
C846 C 0.6608 0.64243 0.38081 0.0
C847 C 0.67502 0.63976 0.35083 0.0
C848 C 0.69294 0.63328 0.36546 0.0
C849 C 0.68288 0.63345 0.43796 0.0
C850 C 0.66487 0.63975 0.42472 0.0
H851 H 0.70364 0.62876 0.34195 0.0
H852 H 0.68545 0.62822 0.47177 0.0
H853 H 0.74517 0.58336 0.35959 0.0
H854 H 0.70525 0.49285 0.32891 0.0
H855 H 0.72657 0.73265 0.53655 0.0
H856 H 0.6722 0.64098 0.31655 0.0
H857 H 0.65407 0.64085 0.44857 0.0
C858 C 0.54268 0.53286 0.87142 0.0
C859 C 0.5383 0.5094 0.90738 0.0
N860 N 0.52168 0.52206 0.92069 0.0
N861 N 0.52887 0.56002 0.8633 0.0
C862 C 0.5161 0.55165 0.89292 0.0
H863 H 0.55554 0.53235 0.85427 0.0
Co864 Co 0.52774 0.60409 0.82553 0.0
C865 C 0.51616 0.678 0.88504 0.0
O866 O 0.53025 0.69717 0.86758 0.0
N867 N 0.52607 0.64796 0.78603 0.0
C868 C 0.51265 0.69277 0.7406 0.0
C869 C 0.51304 0.67807 0.78229 0.0
C870 C 0.53317 0.64478 0.74628 0.0
N871 N 0.52494 0.67049 0.7179 0.0
O872 O 0.50769 0.57264 0.79155 0.0
H873 H 0.50253 0.68444 0.80573 0.0
H874 H 0.54246 0.62004 0.73688 0.0
O875 O 0.51193 0.64044 0.87041 0.0
C876 C 0.51505 0.54314 0.76768 0.0
O877 O 0.53276 0.53729 0.77167 0.0
N878 N 0.54952 0.62613 0.85069 0.0
C879 C 0.58498 0.63893 0.88172 0.0
C880 C 0.57027 0.63638 0.91045 0.0
C881 C 0.55262 0.6292 0.89425 0.0
C882 C 0.56393 0.62833 0.82292 0.0
C883 C 0.58163 0.6354 0.83761 0.0
H884 H 0.54162 0.6241 0.91679 0.0
H885 H 0.56216 0.62146 0.78934 0.0
H886 H 0.50338 0.56879 0.89596 0.0
H887 H 0.54707 0.4874 0.92427 0.0
H888 H 0.50225 0.71295 0.7267 0.0
H889 H 0.57254 0.63799 0.94494 0.0
H890 H 0.59281 0.63607 0.81472 0.0
C891 C 0.70447 0.7554 0.88157 0.0
C892 C 0.70851 0.7785 0.91801 0.0
N893 N 0.72504 0.7658 0.93196 0.0
N894 N 0.71838 0.72834 0.87401 0.0
C895 C 0.73088 0.73639 0.90437 0.0
H896 H 0.6919 0.75654 0.86315 0.0
Co897 Co 0.72028 0.68693 0.83382 0.0
C898 C 0.73049 0.61009 0.89296 0.0
O899 O 0.7162 0.59189 0.87519 0.0
N900 N 0.72238 0.6466 0.79097 0.0
C901 C 0.73072 0.59644 0.74469 0.0
C902 C 0.73105 0.60913 0.78719 0.0
C903 C 0.71767 0.65674 0.75041 0.0
N904 N 0.72267 0.62726 0.72186 0.0
O905 O 0.74111 0.72026 0.80541 0.0
H906 H 0.73883 0.59395 0.81211 0.0
H907 H 0.71157 0.68652 0.74146 0.0
O908 O 0.73525 0.64745 0.87846 0.0
C909 C 0.73426 0.75123 0.78274 0.0
O910 O 0.71641 0.75598 0.7836 0.0
N911 N 0.69805 0.66331 0.85472 0.0
C912 C 0.66213 0.64966 0.88167 0.0
C913 C 0.67625 0.65279 0.912 0.0
C914 C 0.69412 0.66026 0.89787 0.0
C915 C 0.6843 0.65965 0.82509 0.0
C916 C 0.66632 0.65235 0.83785 0.0
H917 H 0.70463 0.66571 0.92173 0.0
H918 H 0.68687 0.66522 0.79141 0.0
H919 H 0.74372 0.7197 0.90751 0.0
H920 H 0.69973 0.80087 0.93429 0.0
H921 H 0.73745 0.56912 0.73107 0.0
H922 H 0.67334 0.65157 0.94621 0.0
H923 H 0.65559 0.65083 0.81372 0.0
C924 C 0.45638 0.28744 0.62075 0.0
C925 C 0.46049 0.26487 0.6575 0.0
N926 N 0.47714 0.27743 0.67087 0.0
N927 N 0.47042 0.31377 0.6122 0.0
C928 C 0.483 0.30601 0.6425 0.0
H929 H 0.4436 0.28682 0.60313 0.0
Co930 Co 0.47204 0.35615 0.57293 0.0
C931 C 0.4849 0.43153 0.6293 0.0
O932 O 0.4714 0.45191 0.61058 0.0
N933 N 0.47414 0.39794 0.5318 0.0
C934 C 0.48832 0.43839 0.48373 0.0
C935 C 0.48809 0.42528 0.52597 0.0
C936 C 0.46645 0.39423 0.49265 0.0
N937 N 0.47501 0.41751 0.46278 0.0
O938 O 0.49163 0.32206 0.54008 0.0
H939 H 0.49924 0.42985 0.54827 0.0
H940 H 0.45643 0.37048 0.48478 0.0
O941 O 0.48845 0.39304 0.61626 0.0
C942 C 0.48443 0.29045 0.51889 0.0
O943 O 0.46691 0.28334 0.52456 0.0
N944 N 0.45084 0.38113 0.59795 0.0
C945 C 0.41633 0.39755 0.63226 0.0
C946 C 0.43148 0.39395 0.65949 0.0
C947 C 0.44859 0.38495 0.64168 0.0
C948 C 0.43603 0.38511 0.5714 0.0
C949 C 0.41874 0.39386 0.58781 0.0
H950 H 0.45975 0.37848 0.66331 0.0
H951 H 0.43707 0.37838 0.53762 0.0
H952 H 0.4958 0.32283 0.64553 0.0
H953 H 0.45159 0.24347 0.67467 0.0
H954 H 0.49912 0.45615 0.46832 0.0
H955 H 0.42991 0.39565 0.69418 0.0
H956 H 0.40713 0.39551 0.56608 0.0
C957 C 0.29228 0.5089 0.64563 0.0
C958 C 0.2866 0.53146 0.68117 0.0
N959 N 0.27046 0.51532 0.6937 0.0
N960 N 0.27979 0.47866 0.63704 0.0
C961 C 0.26644 0.48433 0.66595 0.0
H962 H 0.30503 0.51282 0.62847 0.0
Co963 Co 0.28038 0.43677 0.59641 0.0
C964 C 0.27339 0.3595 0.65608 0.0
O965 O 0.28896 0.34478 0.64131 0.0
N966 N 0.28058 0.39586 0.55325 0.0
C967 C 0.27558 0.34286 0.50747 0.0
C968 C 0.27517 0.35524 0.55004 0.0
C969 C 0.28359 0.40763 0.51223 0.0
N970 N 0.28039 0.37654 0.48393 0.0
O971 O 0.25836 0.4629 0.56784 0.0
H972 H 0.26943 0.33678 0.57553 0.0
H973 H 0.28718 0.43932 0.5028 0.0
O974 O 0.26709 0.3947 0.63973 0.0
C975 C 0.26408 0.49494 0.54546 0.0
O976 O 0.2815 0.50469 0.54835 0.0
N977 N 0.30345 0.41935 0.61784 0.0
C978 C 0.33976 0.40989 0.6434 0.0
C979 C 0.32591 0.41205 0.67436 0.0
C980 C 0.30779 0.41753 0.66087 0.0
C981 C 0.31702 0.41787 0.58773 0.0
C982 C 0.33519 0.41254 0.59979 0.0
H983 H 0.29728 0.42132 0.68499 0.0
H984 H 0.31402 0.42303 0.55413 0.0
H985 H 0.2543 0.46493 0.66792 0.0
H986 H 0.29411 0.55589 0.69793 0.0
H987 H 0.27096 0.31301 0.49449 0.0
H988 H 0.32915 0.41084 0.70843 0.0
H989 H 0.34572 0.41191 0.57524 0.0
C990 C 0.4591 0.51224 0.12258 0.0
C991 C 0.46503 0.53223 0.08562 0.0
N992 N 0.48059 0.51317 0.07321 0.0
N993 N 0.47088 0.48073 0.13206 0.0
C994 C 0.48402 0.48301 0.10212 0.0
H995 H 0.44662 0.51868 0.14005 0.0
Co996 Co 0.47017 0.43944 0.17327 0.0
C997 C 0.47758 0.36295 0.10984 0.0
O998 O 0.46169 0.34746 0.12147 0.0
N999 N 0.47019 0.39877 0.21609 0.0
C1000 C 0.47389 0.34471 0.26101 0.0
C1001 C 0.47401 0.3571 0.21837 0.0
C1002 C 0.468 0.41081 0.25726 0.0
N1003 N 0.47035 0.37902 0.285 0.0
O1004 O 0.49204 0.46765 0.20308 0.0
H1005 H 0.47776 0.33716 0.19173 0.0
H1006 H 0.4652 0.44281 0.26711 0.0
O1007 O 0.48367 0.39683 0.12955 0.0
C1008 C 0.4862 0.50023 0.22496 0.0
O1009 O 0.4688 0.5099 0.22105 0.0
N1010 N 0.44694 0.42122 0.15231 0.0
C1011 C 0.4104 0.41023 0.12819 0.0
C1012 C 0.42387 0.41613 0.09679 0.0
C1013 C 0.44205 0.4224 0.10968 0.0
C1014 C 0.43371 0.41607 0.18293 0.0
C1015 C 0.41548 0.40988 0.17156 0.0
H1016 H 0.45211 0.42988 0.0856 0.0
H1017 H 0.43688 0.41901 0.21671 0.0
H1018 H 0.49563 0.46196 0.10028 0.0
H1019 H 0.45811 0.5571 0.06815 0.0
H1020 H 0.47725 0.31384 0.27358 0.0
H1021 H 0.42026 0.41752 0.06292 0.0
H1022 H 0.40528 0.40642 0.19661 0.0
C1023 C 0.2907 0.28537 0.14886 0.0
C1024 C 0.28591 0.26209 0.11301 0.0
N1025 N 0.26953 0.2762 0.09945 0.0
N1026 N 0.27735 0.31379 0.15664 0.0
C1027 C 0.26448 0.30655 0.12685 0.0
H1028 H 0.30343 0.28346 0.16656 0.0
Co1029 Co 0.27668 0.35632 0.19589 0.0
C1030 C 0.26551 0.43304 0.13919 0.0
O1031 O 0.27947 0.45152 0.1581 0.0
N1032 N 0.27557 0.39816 0.23736 0.0
C1033 C 0.26336 0.44161 0.28582 0.0
C1034 C 0.26315 0.42925 0.24325 0.0
C1035 C 0.28281 0.39181 0.27663 0.0
N1036 N 0.27551 0.41713 0.3066 0.0
O1037 O 0.25643 0.32431 0.2285 0.0
H1038 H 0.25274 0.43819 0.22031 0.0
H1039 H 0.29153 0.36536 0.2843 0.0
O1040 O 0.26107 0.39509 0.15239 0.0
C1041 C 0.26363 0.29458 0.25238 0.0
O1042 O 0.28141 0.28923 0.24951 0.0
N1043 N 0.29849 0.3788 0.17117 0.0
C1044 C 0.33345 0.3942 0.13852 0.0
C1045 C 0.31846 0.39114 0.11058 0.0
C1046 C 0.30111 0.38261 0.12755 0.0
C1047 C 0.31317 0.38158 0.19831 0.0
C1048 C 0.33065 0.38983 0.18277 0.0
H1049 H 0.28997 0.37723 0.10542 0.0
H1050 H 0.31181 0.37473 0.23201 0.0
H1051 H 0.25198 0.32456 0.12379 0.0
H1052 H 0.29423 0.23892 0.09654 0.0
H1053 H 0.25364 0.46242 0.30131 0.0
H1054 H 0.32029 0.39345 0.07601 0.0
H1055 H 0.34208 0.39104 0.20506 0.0
C1056 C 0.98273 0.30051 0.25444 0.0
C1057 C 0.98847 0.27814 0.21734 0.0
C1058 C 0.01432 0.2481 0.25645 0.0
C1059 C 0.00876 0.27107 0.29332 0.0
N1060 N 0.98946 0.32151 0.32829 0.0
N1061 N 0.01001 0.23444 0.17998 0.0
C1062 C 0.99344 0.29809 0.29249 0.0
C1063 C 0.00439 0.25293 0.21751 0.0
N1064 N 0.96704 0.32389 0.25279 0.0
N1065 N 0.0287 0.22072 0.25946 0.0
H1066 H 0.00242 0.23634 0.15148 0.0
H1067 H 0.0224 0.21878 0.1763 0.0
H1068 H 0.03637 0.21705 0.28761 0.0
H1069 H 0.03257 0.20005 0.23512 0.0
H1070 H 0.96133 0.33941 0.27902 0.0
H1071 H 0.95908 0.32635 0.22496 0.0
H1072 H 0.97909 0.34385 0.32994 0.0
H1073 H 0.99738 0.32005 0.35633 0.0
C1074 C 0.24689 0.97303 0.27398 0.0
C1075 C 0.24221 0.99727 0.23731 0.0
C1076 C 0.21736 0.03135 0.27592 0.0
C1077 C 0.22226 1.00777 0.31287 0.0
N1078 N 0.23915 0.95257 0.34728 0.0
N1079 N 0.22171 0.04329 0.19935 0.0
C1080 C 0.23619 0.97705 0.31173 0.0
C1081 C 0.22697 0.02456 0.23705 0.0
N1082 N 0.26193 0.94746 0.2727 0.0
N1083 N 0.20408 0.06149 0.27896 0.0
H1084 H 0.22888 0.03915 0.17057 0.0
H1085 H 0.20975 0.06071 0.19576 0.0
H1086 H 0.19626 0.06568 0.30673 0.0
H1087 H 0.20122 0.08335 0.25489 0.0
H1088 H 0.26697 0.93078 0.299 0.0
H1089 H 0.27006 0.94438 0.24525 0.0
H1090 H 0.24838 0.92768 0.3485 0.0
H1091 H 0.23133 0.95573 0.37525 0.0
C1092 C 0.00552 0.04239 0.05042 0.0
C1093 C 0.98923 1.01875 0.04677 0.0
C1094 C 0.99656 0.9996 0.97255 0.0
C1095 C 0.01238 0.02488 0.97555 0.0
N1096 N 0.03183 0.07271 0.01434 0.0
N1097 N 0.9681 0.97702 1.00534 0.0
C1098 C 0.01691 0.04683 0.01382 0.0
C1099 C 0.98437 0.99804 1.00795 0.0
N1100 N 0.01006 0.05988 0.08929 0.0
N1101 N 0.99356 0.97673 0.93585 0.0
H1102 H 0.95926 0.97391 0.03147 0.0
H1103 H 0.96287 0.96407 0.97708 0.0
H1104 H 0.00247 0.97772 0.90961 0.0
H1105 H 0.98308 0.95491 0.93211 0.0
H1106 H 0.02255 0.07421 0.09586 0.0
H1107 H 0.00137 0.05862 0.11592 0.0
H1108 H 0.03512 0.09282 0.03968 0.0
H1109 H 0.04069 0.07535 0.98817 0.0
C1110 C 0.24484 0.24373 0.05829 0.0
C1111 C 0.26072 0.26895 0.0591 0.0
C1112 C 0.25479 0.2934 0.98579 0.0
C1113 C 0.23955 0.26628 0.9841 0.0
N1114 N 0.22064 0.21238 0.01547 0.0
N1115 N 0.28196 0.31586 0.02448 0.0
C1116 C 0.2346 0.24073 0.01962 0.0
C1117 C 0.26609 0.29315 0.02292 0.0
N1118 N 0.23951 0.2234 0.09499 0.0
N1119 N 0.25809 0.31971 0.9518 0.0
H1120 H 0.29024 0.31724 0.05182 0.0
H1121 H 0.28751 0.33174 0.99829 0.0
H1122 H 0.24971 0.32029 0.92448 0.0
H1123 H 0.26817 0.34278 0.9515 0.0
H1124 H 0.22703 0.20805 0.09841 0.0
H1125 H 0.24741 0.22359 0.1231 0.0
H1126 H 0.21753 0.18966 0.03847 0.0
H1127 H 0.21277 0.20973 0.98756 0.0
C1128 C 0.99298 0.79559 0.79278 0.0
C1129 C 0.00791 0.7674 0.79325 0.0
C1130 C 0.00177 0.74652 0.71881 0.0
C1131 C 0.98653 0.77381 0.71869 0.0
N1132 N 0.96617 0.82163 0.75485 0.0
N1133 N 0.02581 0.71271 0.76023 0.0
C1134 C 0.98163 0.79744 0.75569 0.0
C1135 C 0.01213 0.74189 0.75715 0.0
N1136 N 0.99002 0.82082 0.82781 0.0
N1137 N 0.00653 0.72624 0.68161 0.0
H1138 H 0.03421 0.71031 0.78731 0.0
H1139 H 0.02838 0.68979 0.73702 0.0
H1140 H -0.0014 0.72802 0.65362 0.0
H1141 H 0.01857 0.7092 0.67772 0.0
H1142 H 0.98021 0.84452 0.82911 0.0
H1143 H -0.00175 0.81954 0.85533 0.0
H1144 H 0.96097 0.83768 0.78137 0.0
H1145 H 0.95783 0.82409 0.72767 0.0
C1146 C 0.7262 0.04545 0.75651 0.0
C1147 C 0.73033 1.02104 0.79341 0.0
C1148 C 0.75799 0.99404 0.76004 0.0
C1149 C 0.75382 1.0181 0.72279 0.0
N1150 N 0.73346 0.06221 0.68212 0.0
N1151 N 0.7475 0.96716 0.82901 0.0
C1152 C 0.73767 0.04237 0.71995 0.0
C1153 C 0.74542 0.99355 0.79455 0.0
N1154 N 0.7118 0.07289 0.75758 0.0
N1155 N 0.77412 0.97238 0.76245 0.0
H1156 H 0.73824 0.96682 0.85459 0.0
H1157 H 0.75733 0.94351 0.83083 0.0
H1158 H 0.78361 0.97181 0.7375 0.0
H1159 H 0.77873 0.95703 0.79003 0.0
H1160 H 0.70907 0.09499 0.73367 0.0
H1161 H 0.7029 0.07478 0.78373 0.0
H1162 H 0.72106 0.07723 0.67618 0.0
H1163 H 0.74224 0.06199 0.65562 0.0
C1164 C 0.76134 0.79935 1.00788 0.0
C1165 C 0.7563 0.77577 0.04473 0.0
C1166 C 0.72896 0.74973 1.00847 0.0
C1167 C 0.73376 0.77422 0.97208 0.0
N1168 N 0.75257 0.82537 0.93704 0.0
N1169 N 0.73522 0.73195 0.0832 0.0
C1170 C 0.74943 0.80004 0.97186 0.0
C1171 C 0.74004 0.75186 0.04586 0.0
N1172 N 0.77747 0.82111 1.00784 0.0
N1173 N 0.71426 0.72325 1.00627 0.0
H1174 H 0.74372 0.73147 0.1103 0.0
H1175 H 0.72265 0.71739 0.08813 0.0
H1176 H 0.70562 0.72185 0.97954 0.0
H1177 H 0.71102 0.70118 0.02983 0.0
H1178 H 0.78273 0.83671 0.98114 0.0
H1179 H 0.78618 0.82223 0.03444 0.0
H1180 H 0.76308 0.84731 0.93512 0.0
H1181 H 0.74369 0.82628 0.91062 0.0
C1182 C 0.25595 0.50263 0.80845 0.0
C1183 C 0.23912 0.52447 0.80704 0.0
C1184 C 0.24452 0.54539 0.73234 0.0
C1185 C 0.261 0.52224 0.73327 0.0
N1186 N 0.28239 0.47667 0.76946 0.0
N1187 N 0.21655 0.56541 0.76933 0.0
C1188 C 0.26681 0.50048 0.77075 0.0
C1189 C 0.23311 0.54543 0.76928 0.0
N1190 N 0.26149 0.48472 0.84637 0.0
N1191 N 0.24014 0.56767 0.69604 0.0
H1192 H 0.20817 0.56655 0.79645 0.0
H1193 H 0.21066 0.57961 0.7425 0.0
H1194 H 0.24857 0.56807 0.66892 0.0
H1195 H 0.22883 0.58732 0.6931 0.0
H1196 H 0.27436 0.47169 0.85152 0.0
H1197 H 0.2532 0.48415 0.87373 0.0
H1198 H 0.28666 0.45678 0.79412 0.0
H1199 H 0.29078 0.47507 0.7424 0.0
C1200 C 0.98161 0.50154 0.5061 0.0
C1201 C 0.98678 0.52386 0.54384 0.0
C1202 C 0.0139 0.55152 0.50788 0.0
C1203 C 0.00905 0.52821 0.47061 0.0
N1204 N 0.98972 0.47931 0.4334 0.0
N1205 N 0.00787 0.56713 0.58324 0.0
C1206 C 0.99324 0.50271 0.46951 0.0
C1207 C 0.00294 0.54819 0.54536 0.0
N1208 N 0.96566 0.47908 0.5058 0.0
N1209 N 0.02874 0.57759 0.50668 0.0
H1210 H -0.00049 0.56667 0.61049 0.0
H1211 H 0.02038 0.58187 0.58845 0.0
H1212 H 0.0376 0.57863 0.48044 0.0
H1213 H 0.03203 0.59917 0.53074 0.0
H1214 H 0.9603 0.46405 0.47882 0.0
H1215 H 0.95728 0.47638 0.53276 0.0
H1216 H 0.97907 0.45781 0.43048 0.0
H1217 H -0.00177 0.47998 0.40642 0.0
C1218 C 0.24197 0.74596 0.52986 0.0
C1219 C 0.24634 0.76589 0.49043 0.0
C1220 C 0.27221 0.80181 0.52399 0.0
C1221 C 0.26821 0.78067 0.56304 0.0
N1222 N 0.25182 0.72786 0.60231 0.0
N1223 N 0.26653 0.80764 0.44703 0.0
C1224 C 0.25384 0.75111 0.56558 0.0
C1225 C 0.26186 0.7921 0.48656 0.0
N1226 N 0.22626 0.72293 0.53318 0.0
N1227 N 0.2852 0.83271 0.52353 0.0
H1228 H 0.2586 0.80238 0.41951 0.0
H1229 H 0.2787 0.82354 0.44093 0.0
H1230 H 0.29299 0.84049 0.55059 0.0
H1231 H 0.28752 0.85241 0.49731 0.0
H1232 H 0.22122 0.71134 0.56219 0.0
H1233 H 0.21769 0.71697 0.50694 0.0
H1234 H 0.24262 0.70304 0.60535 0.0
H1235 H 0.26057 0.73129 0.62876 0.0
C1236 C 0.75506 0.50272 0.29644 0.0
C1237 C 0.73868 0.52618 0.29459 0.0
C1238 C 0.74548 0.54922 0.22137 0.0
C1239 C 0.76127 0.52373 0.22227 0.0
N1240 N 0.78083 0.4734 0.25758 0.0
N1241 N 0.71719 0.56979 0.25625 0.0
C1242 C 0.76612 0.49993 0.25916 0.0
C1243 C 0.73352 0.5488 0.25715 0.0
N1244 N 0.76001 0.48378 0.33427 0.0
N1245 N 0.74228 0.57404 0.18615 0.0
H1246 H 0.70844 0.5712 0.28268 0.0
H1247 H 0.71181 0.58429 0.22897 0.0
H1248 H 0.75114 0.57467 0.15979 0.0
H1249 H 0.73174 0.59593 0.18392 0.0
H1250 H 0.77267 0.46972 0.33961 0.0
H1251 H 0.75155 0.48375 0.36134 0.0
H1252 H 0.78407 0.45177 0.2816 0.0
H1253 H 0.78939 0.47134 0.23084 0.0
C1254 C 0.73902 0.25293 0.54584 0.0
C1255 C 0.75547 0.27605 0.54342 0.0
C1256 C 0.74824 0.29886 0.47032 0.0
C1257 C 0.73247 0.27338 0.47163 0.0
N1258 N 0.71295 0.22376 0.50771 0.0
N1259 N 0.77679 0.3192 0.50434 0.0
C1260 C 0.72774 0.25005 0.50883 0.0
C1261 C 0.76043 0.29847 0.50579 0.0
N1262 N 0.73427 0.23427 0.5839 0.0
N1263 N 0.75123 0.32353 0.43494 0.0
H1264 H 0.7857 0.32073 0.53057 0.0
H1265 H 0.78204 0.33339 0.4768 0.0
H1266 H 0.74219 0.32414 0.40883 0.0
H1267 H 0.76176 0.3454 0.43242 0.0
H1268 H 0.72162 0.2204 0.58962 0.0
H1269 H 0.74291 0.23424 0.61075 0.0
H1270 H 0.7097 0.20257 0.53209 0.0
H1271 H 0.7043 0.2215 0.48106 0.0
C1272 C 0.50201 0.24618 0.71167 0.0
C1273 C 0.48586 0.2705 0.71132 0.0
C1274 C 0.4917 0.29495 0.78468 0.0
C1275 C 0.50828 0.27212 0.78433 0.0
N1276 N 0.53008 0.22718 0.74876 0.0
N1277 N 0.46547 0.32042 0.7445 0.0
C1278 C 0.51377 0.24825 0.74796 0.0
C1279 C 0.48062 0.29532 0.74721 0.0
N1280 N 0.50572 0.22084 0.67709 0.0
N1281 N 0.48657 0.31546 0.8215 0.0
H1282 H 0.45684 0.32067 0.71774 0.0
H1283 H 0.46175 0.34245 0.76772 0.0
H1284 H 0.49508 0.31743 0.84851 0.0
H1285 H 0.4738 0.3292 0.82613 0.0
H1286 H 0.51673 0.20018 0.67525 0.0
H1287 H 0.49693 0.21873 0.65059 0.0
H1288 H 0.53563 0.2113 0.72256 0.0
H1289 H 0.53861 0.22655 0.7757 0.0
C1290 C 0.51338 0.03595 0.53123 0.0
C1291 C 0.49888 1.0067 0.53275 0.0
C1292 C 0.50636 0.98013 0.46109 0.0
C1293 C 0.52005 1.01121 0.45844 0.0
N1294 N 0.53894 0.06443 0.49047 0.0
N1295 N 0.48304 0.94615 0.50415 0.0
C1296 C 0.52447 0.03745 0.49383 0.0
C1297 C 0.4959 0.97701 0.49923 0.0
N1298 N 0.51597 0.06283 0.56515 0.0
N1299 N 0.50282 0.95556 0.42583 0.0
H1300 H 0.47478 0.94368 0.53135 0.0
H1301 H 0.48119 0.92128 0.48274 0.0
H1302 H 0.51087 0.95674 0.3981 0.0
H1303 H 0.49182 0.93495 0.42322 0.0
H1304 H 0.52571 0.08666 0.56599 0.0
H1305 H 0.5079 0.06166 0.59285 0.0
H1306 H 0.54341 0.08434 0.51494 0.0
H1307 H 0.54714 0.06555 0.46299 0.0
C1308 C 0.47711 0.79425 0.24988 0.0
C1309 C 0.48244 0.77181 0.21245 0.0
C1310 C 0.51031 0.74754 0.24808 0.0
C1311 C 0.50466 0.76865 0.28605 0.0
N1312 N 0.48252 0.80856 0.32583 0.0
N1313 N 0.50215 0.72307 0.17627 0.0
C1314 C 0.48794 0.79094 0.28772 0.0
C1315 C 0.49854 0.74728 0.21171 0.0
N1316 N 0.46218 0.82013 0.24836 0.0
N1317 N 0.52692 0.7278 0.24712 0.0
H1318 H 0.49347 0.72237 0.14951 0.0
H1319 H 0.51283 0.70149 0.17438 0.0
H1320 H 0.53542 0.72548 0.27403 0.0
H1321 H 0.53273 0.7152 0.21937 0.0
H1322 H 0.45848 0.84061 0.27304 0.0
H1323 H 0.45401 0.82325 0.22096 0.0
H1324 H 0.46965 0.82157 0.33097 0.0
H1325 H 0.49081 0.80847 0.3533 0.0
C1326 C 0.48526 0.49249 0.998 0.0
C1327 C 0.49044 0.51754 0.03383 0.0
C1328 C 0.51819 0.54013 0.99707 0.0
C1329 C 0.51305 0.51496 0.96126 0.0
N1330 N 0.49346 0.46435 0.92755 0.0
N1331 N 0.51214 0.56099 0.07106 0.0
C1332 C 0.49708 0.49004 0.96191 0.0
C1333 C 0.50704 0.54018 0.03434 0.0
N1334 N 0.46901 0.47123 0.999 0.0
N1335 N 0.53329 0.56535 0.99437 0.0
H1336 H 0.50366 0.56303 0.09802 0.0
H1337 H 0.52492 0.57465 0.07573 0.0
H1338 H 0.54209 0.56495 0.96804 0.0
H1339 H 0.53675 0.58809 0.01713 0.0
H1340 H 0.46384 0.45329 0.97372 0.0
H1341 H 0.4601 0.47295 0.0251 0.0
H1342 H 0.48246 0.44368 0.92566 0.0
H1343 H 0.50226 0.46221 0.90116 0.0
C1344 C 0.04065 0.14024 0.61086 0.0
C1345 C 0.02273 0.13602 0.59401 0.0
C1346 C 0.00965 0.16075 0.66191 0.0
C1347 C 0.02752 0.16357 0.67915 0.0
N1348 N 0.05994 0.1544 0.67316 0.0
N1349 N 0.9901 0.13664 0.60366 0.0
C1350 C 0.04304 0.15301 0.65433 0.0
C1351 C 0.00718 0.14472 0.61961 0.0
N1352 N 0.05528 0.13211 0.58476 0.0
N1353 N 0.99509 0.17334 0.68636 0.0
H1354 H 0.98771 0.12689 0.57211 0.0
H1355 H 0.97821 0.13763 0.62199 0.0
H1356 H 0.99644 0.18373 0.71807 0.0
H1357 H 0.98174 0.17554 0.67495 0.0
H1358 H 0.0688 0.13837 0.59303 0.0
H1359 H 0.05378 0.11965 0.5538 0.0
H1360 H 0.07186 0.14345 0.65874 0.0
H1361 H 0.06196 0.16572 0.70444 0.0
C1362 C 0.24438 0.17157 0.61138 0.0
C1363 C 0.22669 0.17709 0.59369 0.0
C1364 C 0.21281 0.1526 0.6608 0.0
C1365 C 0.23049 0.14588 0.67799 0.0
N1366 N 0.26318 0.1442 0.66965 0.0
N1367 N 0.19425 0.16224 0.59725 0.0
C1368 C 0.24635 0.15369 0.65311 0.0
C1369 C 0.21087 0.16535 0.61736 0.0
N1370 N 0.2592 0.18325 0.58735 0.0
N1371 N 0.19781 0.14586 0.68609 0.0
H1372 H 0.19209 0.16924 0.56492 0.0
H1373 H 0.18277 0.14884 0.61149 0.0
H1374 H 0.19863 0.13156 0.71632 0.0
H1375 H 0.1847 0.15597 0.6779 0.0
H1376 H 0.27272 0.18087 0.59742 0.0
H1377 H 0.25783 0.19778 0.55732 0.0
H1378 H 0.27532 0.14588 0.65236 0.0
H1379 H 0.26511 0.13318 0.70093 0.0
C1380 C 0.98872 0.88126 0.36519 0.0
C1381 C 0.97179 0.88734 0.34363 0.0
C1382 C 0.95998 0.92614 0.40564 0.0
C1383 C 0.97625 0.91704 0.42831 0.0
N1384 N 0.00422 0.87705 0.43393 0.0
N1385 N 0.94016 0.90777 0.34581 0.0
C1386 C 0.99013 0.89206 0.40934 0.0
C1387 C 0.95705 0.90756 0.36471 0.0
N1388 N 0.00376 0.86765 0.34312 0.0
N1389 N 0.94742 0.95269 0.42355 0.0
H1390 H 0.9376 0.89282 0.31641 0.0
H1391 H 0.92844 0.91903 0.36095 0.0
H1392 H 0.94941 0.96654 0.45376 0.0
H1393 H 0.93591 0.96365 0.4072 0.0
H1394 H 0.01681 0.86679 0.35665 0.0
H1395 H 0.00371 0.8617 0.31012 0.0
H1396 H 0.01349 0.85461 0.4228 0.0
H1397 H 0.00563 0.88381 0.46664 0.0
C1398 C 0.79349 0.90997 0.35931 0.0
C1399 C 0.77605 0.91434 0.33997 0.0
C1400 C 0.76115 0.89228 0.40668 0.0
C1401 C 0.77857 0.88946 0.4265 0.0
N1402 N 0.81115 0.89767 0.42463 0.0
N1403 N 0.74322 0.91491 0.3451 0.0
C1404 C 0.79473 0.89886 0.40353 0.0
C1405 C 0.75984 0.90703 0.36366 0.0
N1406 N 0.80878 0.91604 0.33482 0.0
N1407 N 0.74592 0.88047 0.42909 0.0
H1408 H 0.74163 0.92331 0.31288 0.0
H1409 H 0.73093 0.91531 0.36192 0.0
H1410 H 0.74621 0.87172 0.46142 0.0
H1411 H 0.73295 0.87768 0.41551 0.0
H1412 H 0.82201 0.90949 0.34517 0.0
H1413 H 0.80812 0.92673 0.30302 0.0
H1414 H 0.82343 0.90791 0.41146 0.0
H1415 H 0.81236 0.88748 0.45651 0.0
C1416 C 0.04255 0.64775 0.11074 0.0
C1417 C 0.02589 0.63292 0.09305 0.0
C1418 C 0.01106 0.64086 0.16298 0.0
C1419 C 0.02697 0.66144 0.17872 0.0
N1420 N 0.05741 0.68728 0.1679 0.0
N1421 N 0.99353 0.61995 0.10041 0.0
C1422 C 0.04263 0.6656 0.15261 0.0
C1423 C 0.00993 0.63037 0.11868 0.0
N1424 N 0.05828 0.64387 0.08741 0.0
N1425 N 0.99747 0.62938 0.19074 0.0
H1426 H 0.99198 0.61308 0.06779 0.0
H1427 H 0.98114 0.62205 0.11676 0.0
H1428 H 0.998 0.63532 0.22375 0.0
H1429 H 0.98659 0.61004 0.18184 0.0
H1430 H 0.0712 0.65104 0.09951 0.0
H1431 H 0.0585 0.62957 0.05708 0.0
H1432 H 0.06874 0.69483 0.14917 0.0
H1433 H 0.05767 0.70055 0.19871 0.0
C1434 C 0.20495 0.64832 0.17268 0.0
C1435 C 0.22154 0.63597 0.19301 0.0
C1436 C 0.2386 0.65772 0.12892 0.0
C1437 C 0.22187 0.66272 0.10659 0.0
N1438 N 0.18906 0.66086 0.10526 0.0
N1439 N 0.25418 0.62722 0.19059 0.0
C1440 C 0.20501 0.6574 0.12797 0.0
C1441 C 0.23843 0.6406 0.17119 0.0
N1442 N 0.18949 0.65439 0.19653 0.0
N1443 N 0.25457 0.66904 0.10942 0.0
H1444 H 0.25429 0.61302 0.22092 0.0
H1445 H 0.26684 0.62659 0.17533 0.0
H1446 H 0.25508 0.68019 0.07785 0.0
H1447 H 0.26712 0.67011 0.12535 0.0
H1448 H 0.17749 0.66705 0.18382 0.0
H1449 H 0.1892 0.65153 0.22997 0.0
H1450 H 0.17637 0.65246 0.11783 0.0
H1451 H 0.18873 0.66997 0.07293 0.0
C1452 C 0.95904 0.38125 0.86465 0.0
C1453 C 0.97371 0.39339 0.83802 0.0
C1454 C 0.98722 0.43437 0.89703 0.0
C1455 C 0.97213 0.4236 0.92305 0.0
N1456 N 0.94253 0.39155 0.93152 0.0
N1457 N 0.00053 0.43581 0.82553 0.0
C1458 C 0.95762 0.39857 0.90665 0.0
C1459 C 0.98756 0.42106 0.85332 0.0
N1460 N 0.94678 0.35218 0.8497 0.0
N1461 N 0.00134 0.45662 0.91481 0.0
H1462 H 0.00108 0.42702 0.79321 0.0
H1463 H 0.01 0.45903 0.83345 0.0
H1464 H 0.00087 0.46818 0.94632 0.0
H1465 H 0.01374 0.46205 0.89939 0.0
H1466 H 0.93659 0.33861 0.86847 0.0
H1467 H 0.9477 0.33916 0.81885 0.0
H1468 H 0.93076 0.37655 0.92055 0.0
H1469 H 0.9412 0.40354 0.9626 0.0
C1470 C 0.79175 0.39892 0.86193 0.0
C1471 C 0.77534 0.40839 0.83974 0.0
C1472 C 0.75724 0.38999 0.90311 0.0
C1473 C 0.77369 0.38258 0.92602 0.0
N1474 N 0.80644 0.37967 0.92951 0.0
N1475 N 0.74262 0.41671 0.83847 0.0
C1476 C 0.79094 0.38684 0.9059 0.0
C1477 C 0.75811 0.40498 0.86014 0.0
N1478 N 0.808 0.40132 0.84036 0.0
N1479 N 0.7408 0.38204 0.92234 0.0
H1480 H 0.74252 0.42503 0.80601 0.0
H1481 H 0.72986 0.41998 0.85283 0.0
H1482 H 0.73949 0.37383 0.95465 0.0
H1483 H 0.72836 0.38159 0.90598 0.0
H1484 H 0.8205 0.39151 0.85287 0.0
H1485 H 0.80891 0.41254 0.8088 0.0
H1486 H 0.81963 0.38568 0.91869 0.0
H1487 H 0.80604 0.36811 0.961 0.0
C1488 C 0.53531 0.15031 0.09887 0.0
C1489 C 0.51949 0.13411 0.07813 0.0
C1490 C 0.50072 0.15447 0.13986 0.0
C1491 C 0.51699 0.1635 0.16323 0.0
N1492 N 0.54958 0.17234 0.16567 0.0
N1493 N 0.48717 0.12149 0.07678 0.0
C1494 C 0.53423 0.16218 0.14273 0.0
C1495 C 0.50216 0.13692 0.09798 0.0
N1496 N 0.55093 0.1574 0.07586 0.0
N1497 N 0.48395 0.16211 0.15756 0.0
H1498 H 0.48801 0.10759 0.04633 0.0
H1499 H 0.47425 0.11881 0.09049 0.0
H1500 H 0.4819 0.17036 0.18955 0.0
H1501 H 0.47182 0.16182 0.13991 0.0
H1502 H 0.56225 0.17329 0.0882 0.0
H1503 H 0.55208 0.15137 0.043 0.0
H1504 H 0.56281 0.16646 0.15483 0.0
H1505 H 0.54899 0.18536 0.19656 0.0
C1506 C 0.70779 0.14137 0.1536 0.0
C1507 C 0.72489 0.13589 0.17414 0.0
C1508 C 0.74096 0.15753 0.10879 0.0
C1509 C 0.72376 0.16357 0.08842 0.0
N1510 N 0.69105 0.16794 0.09162 0.0
N1511 N 0.75775 0.13439 0.17211 0.0
C1512 C 0.70721 0.15724 0.11098 0.0
C1513 C 0.7415 0.14294 0.15201 0.0
N1514 N 0.69221 0.13007 0.17494 0.0
N1515 N 0.75672 0.16653 0.08704 0.0
H1516 H 0.75873 0.12629 0.20454 0.0
H1517 H 0.77035 0.1337 0.15669 0.0
H1518 H 0.75717 0.17298 0.05421 0.0
H1519 H 0.76956 0.16847 0.10139 0.0
H1520 H 0.67922 0.13008 0.16118 0.0
H1521 H 0.69248 0.11742 0.20601 0.0
H1522 H 0.67842 0.16729 0.10694 0.0
H1523 H 0.69046 0.18078 0.06066 0.0
C1524 C 0.45038 0.89002 0.84206 0.0
C1525 C 0.46586 0.87524 0.81873 0.0
C1526 C 0.48533 0.89159 0.88108 0.0
C1527 C 0.46952 0.89885 0.90615 0.0
N1528 N 0.43679 0.90238 0.91209 0.0
N1529 N 0.49798 0.85885 0.81709 0.0
C1530 C 0.45196 0.89686 0.88712 0.0
C1531 C 0.48335 0.87527 0.83867 0.0
N1532 N 0.43473 0.90143 0.82092 0.0
N1533 N 0.50216 0.9006 0.89772 0.0
H1534 H 0.49665 0.84402 0.78721 0.0
H1535 H 0.51104 0.85626 0.83031 0.0
H1536 H 0.50407 0.911 0.92929 0.0
H1537 H 0.51409 0.90047 0.87944 0.0
H1538 H 0.42373 0.91599 0.83619 0.0
H1539 H 0.43348 0.90156 0.78752 0.0
H1540 H 0.42358 0.89639 0.901 0.0
H1541 H 0.43756 0.91068 0.94461 0.0
C1542 C 0.27684 0.90494 0.88573 0.0
C1543 C 0.26076 0.89839 0.86132 0.0
C1544 C 0.24806 0.856 0.91976 0.0
C1545 C 0.26478 0.86014 0.94262 0.0
N1546 N 0.29665 0.87798 0.94188 0.0
N1547 N 0.23421 0.85414 0.84922 0.0
C1548 C 0.27977 0.88073 0.92323 0.0
C1549 C 0.24719 0.87 0.87646 0.0
N1550 N 0.28905 0.93517 0.87353 0.0
N1551 N 0.23279 0.84073 0.93951 0.0
H1552 H 0.234 0.86024 0.81627 0.0
H1553 H 0.22515 0.83045 0.85843 0.0
H1554 H 0.23262 0.83036 0.9713 0.0
H1555 H 0.21991 0.84152 0.92502 0.0
H1556 H 0.30032 0.9437 0.8922 0.0
H1557 H 0.2868 0.95455 0.84686 0.0
H1558 H 0.30844 0.89005 0.92772 0.0
H1559 H 0.29893 0.85985 0.96948 0.0
C1560 C 0.54157 0.65232 0.60568 0.0
C1561 C 0.52534 0.6382 0.58528 0.0
C1562 C 0.50896 0.64298 0.65348 0.0
C1563 C 0.52453 0.66232 0.67245 0.0
N1564 N 0.55495 0.6899 0.66613 0.0
N1565 N 0.49256 0.62842 0.58764 0.0
C1566 C 0.54065 0.66838 0.64826 0.0
C1567 C 0.50871 0.63586 0.60851 0.0
N1568 N 0.55787 0.64912 0.58454 0.0
N1569 N 0.49498 0.62859 0.67863 0.0
H1570 H 0.49151 0.62516 0.55434 0.0
H1571 H 0.4799 0.63041 0.60286 0.0
H1572 H 0.49515 0.63004 0.71216 0.0
H1573 H 0.4843 0.61026 0.66659 0.0
H1574 H 0.57045 0.65558 0.59889 0.0
H1575 H 0.55891 0.6361 0.55372 0.0
H1576 H 0.56655 0.6987 0.64895 0.0
H1577 H 0.55445 0.70202 0.69742 0.0
C1578 C 0.73837 0.64349 0.65371 0.0
C1579 C 0.72211 0.63326 0.67615 0.0
C1580 C 0.70364 0.64961 0.6125 0.0
C1581 C 0.71984 0.66043 0.59032 0.0
N1582 N 0.75238 0.67234 0.58948 0.0
N1583 N 0.68976 0.62137 0.67758 0.0
C1584 C 0.73716 0.65868 0.61083 0.0
C1585 C 0.70484 0.63492 0.65561 0.0
N1586 N 0.755 0.6377 0.6731 0.0
N1587 N 0.68718 0.65469 0.59217 0.0
H1588 H 0.69059 0.60936 0.70885 0.0
H1589 H 0.67666 0.61962 0.66463 0.0
H1590 H 0.68613 0.66662 0.5609 0.0
H1591 H 0.67454 0.64947 0.60644 0.0
H1592 H 0.76742 0.6388 0.65684 0.0
H1593 H 0.75658 0.63008 0.70549 0.0
H1594 H 0.76499 0.67747 0.60416 0.0
H1595 H 0.75242 0.68008 0.55689 0.0
C1596 C 0.45783 0.41617 0.39493 0.0
C1597 C 0.47426 0.40831 0.41759 0.0
C1598 C 0.48823 0.37959 0.35246 0.0
C1599 C 0.4713 0.38425 0.33077 0.0
N1600 N 0.43913 0.39942 0.33259 0.0
N1601 N 0.50314 0.37121 0.4213 0.0
C1602 C 0.4558 0.40025 0.35253 0.0
C1603 C 0.48899 0.38695 0.39737 0.0
N1604 N 0.4444 0.43957 0.4139 0.0
N1605 N 0.50372 0.3698 0.33007 0.0
H1606 H 0.50359 0.37281 0.45482 0.0
H1607 H 0.51324 0.35177 0.40843 0.0
H1608 H 0.50392 0.36541 0.2968 0.0
H1609 H 0.51672 0.37031 0.34392 0.0
H1610 H 0.43269 0.44967 0.39775 0.0
H1611 H 0.44576 0.45188 0.44498 0.0
H1612 H 0.42696 0.40744 0.3479 0.0
H1613 H 0.43734 0.38685 0.30175 0.0
C1614 C 0.26137 0.3869 0.37169 0.0
C1615 C 0.27617 0.40812 0.35178 0.0
C1616 C 0.29475 0.39855 0.4164 0.0
C1617 C 0.27925 0.38252 0.43816 0.0
N1618 N 0.24678 0.3675 0.43845 0.0
N1619 N 0.30624 0.43799 0.35526 0.0
C1620 C 0.26226 0.37806 0.41636 0.0
C1621 C 0.29268 0.41507 0.37428 0.0
N1622 N 0.2469 0.37313 0.34749 0.0
N1623 N 0.31149 0.39682 0.43594 0.0
H1624 H 0.3049 0.4504 0.32424 0.0
H1625 H 0.31806 0.44754 0.37128 0.0
H1626 H 0.31336 0.38347 0.46639 0.0
H1627 H 0.32365 0.40481 0.42059 0.0
H1628 H 0.2368 0.35323 0.35946 0.0
H1629 H 0.24603 0.37736 0.31426 0.0
H1630 H 0.23378 0.36795 0.42464 0.0
H1631 H 0.24642 0.36311 0.47166 0.0
C1632 C 0.10934 0.10781 0.38261 0.0
C1633 C 0.10024 0.14721 0.3812 0.0
C1634 C 0.1296 0.18446 0.3811 0.0
C1635 C 0.13866 0.14516 0.38483 0.0
N1636 N 0.13807 0.06946 0.37909 0.0
N1637 N 0.10109 0.22206 0.36885 0.0
C1638 C 0.12878 0.10677 0.38202 0.0
C1639 C 0.11023 0.18526 0.37678 0.0
N1640 N 0.09932 0.07166 0.3866 0.0
N1641 N 0.1395 0.22093 0.3837 0.0
H1642 H 0.08688 0.22358 0.36612 0.0
H1643 H 0.1075 0.25041 0.36161 0.0
H1644 H 0.15376 0.22127 0.38504 0.0
H1645 H 0.13369 0.25074 0.38637 0.0
H1646 H 0.10496 0.04224 0.3931 0.0
H1647 H 0.08506 0.07138 0.38508 0.0
H1648 H 0.13183 0.04059 0.37308 0.0
H1649 H 0.15232 0.06767 0.37938 0.0
C1650 C 0.14032 0.10311 0.88669 0.0
C1651 C 0.14937 0.1426 0.88843 0.0
C1652 C 0.11981 0.17924 0.89267 0.0
C1653 C 0.11076 0.13985 0.88951 0.0
N1654 N 0.11184 0.06412 0.89299 0.0
N1655 N 0.14839 0.21722 0.9024 0.0
C1656 C 0.12089 0.10167 0.88981 0.0
C1657 C 0.13928 0.18036 0.89467 0.0
N1658 N 0.15032 0.06725 0.88021 0.0
N1659 N 0.10977 0.21558 0.89179 0.0
H1660 H 0.16263 0.21919 0.9033 0.0
H1661 H 0.14198 0.2452 0.91122 0.0
H1662 H 0.0955 0.21574 0.89226 0.0
H1663 H 0.11542 0.24548 0.88863 0.0
H1664 H 0.1446 0.03799 0.87341 0.0
H1665 H 0.16459 0.06712 0.87967 0.0
H1666 H 0.11833 0.03524 0.89733 0.0
H1667 H 0.09762 0.06208 0.8947 0.0
C1668 C 0.86575 0.93194 0.65905 0.0
C1669 C 0.85636 0.89924 0.63679 0.0
C1670 C 0.88517 0.86047 0.63007 0.0
C1671 C 0.89484 0.89677 0.64383 0.0
N1672 N 0.89465 0.96769 0.67126 0.0
N1673 N 0.85751 0.83354 0.59732 0.0
C1674 C 0.88522 0.93253 0.659 0.0
C1675 C 0.8661 0.86335 0.62193 0.0
N1676 N 0.856 0.96217 0.68039 0.0
N1677 N 0.89438 0.82347 0.62408 0.0
H1678 H 0.84369 0.8349 0.58926 0.0
H1679 H 0.86445 0.80931 0.58166 0.0
H1680 H 0.9084 0.82063 0.62993 0.0
H1681 H 0.88788 0.79494 0.61772 0.0
H1682 H 0.86201 0.98475 0.70026 0.0
H1683 H 0.84174 0.96214 0.68151 0.0
H1684 H 0.88841 0.99652 0.67767 0.0
H1685 H 0.9089 0.96856 0.6728 0.0
C1686 C 0.88082 0.93705 0.11881 0.0
C1687 C 0.89105 0.89922 0.12256 0.0
C1688 C 0.86283 0.85778 0.11792 0.0
C1689 C 0.85257 0.89557 0.12164 0.0
N1690 N 0.85115 0.97124 0.12404 0.0
N1691 N 0.89245 0.82352 0.12418 0.0
C1692 C 0.86139 0.93532 0.12081 0.0
C1693 C 0.88224 0.85948 0.12086 0.0
N1694 N 0.88978 0.9745 0.11372 0.0
N1695 N 0.85389 0.82038 0.11199 0.0
H1696 H 0.90673 0.82379 0.12448 0.0
H1697 H 0.88692 0.79362 0.1284 0.0
H1698 H 0.83967 0.81825 0.11027 0.0
H1699 H 0.86045 0.79202 0.10536 0.0
H1700 H 0.88326 1.00292 0.1071 0.0
H1701 H 0.90401 0.97668 0.11272 0.0
H1702 H 0.85664 1.0011 0.12888 0.0
H1703 H 0.83687 0.97094 0.12358 0.0
C1704 C 0.11535 0.68687 0.88028 0.0
C1705 C 0.10458 0.6498 0.88302 0.0
C1706 C 0.13231 0.60633 0.88353 0.0
C1707 C 0.14295 0.64352 0.88764 0.0
N1708 N 0.14529 0.71914 0.88869 0.0
N1709 N 0.10213 0.5743 0.88583 0.0
C1710 C 0.13468 0.68386 0.88494 0.0
C1711 C 0.11289 0.60945 0.88345 0.0
N1712 N 0.10698 0.72485 0.87354 0.0
N1713 N 0.14084 0.56813 0.88002 0.0
H1714 H 0.0879 0.57556 0.88368 0.0
H1715 H 0.10712 0.54411 0.89156 0.0
H1716 H 0.15503 0.56472 0.88102 0.0
H1717 H 0.13408 0.54012 0.87298 0.0
H1718 H 0.11397 0.75275 0.8675 0.0
H1719 H 0.09283 0.72799 0.87064 0.0
H1720 H 0.1401 0.74947 0.89216 0.0
H1721 H 0.15955 0.71792 0.89013 0.0
C1722 C 0.11451 0.6838 0.41535 0.0
C1723 C 0.10608 0.64423 0.40797 0.0
C1724 C 0.136 0.60935 0.40722 0.0
C1725 C 0.14448 0.64926 0.41192 0.0
N1726 N 0.14243 0.72243 0.43147 0.0
N1727 N 0.10788 0.56855 0.40822 0.0
C1728 C 0.13387 0.68584 0.41992 0.0
C1729 C 0.11658 0.60666 0.40798 0.0
N1730 N 0.10404 0.71949 0.4158 0.0
N1731 N 0.14652 0.57452 0.39961 0.0
H1732 H 0.09366 0.56582 0.40838 0.0
H1733 H 0.11459 0.53986 0.41193 0.0
H1734 H 0.16078 0.57523 0.40045 0.0
H1735 H 0.14125 0.54536 0.39061 0.0
H1736 H 0.10938 0.74986 0.41591 0.0
H1737 H 0.08978 0.71867 0.41435 0.0
H1738 H 0.13556 0.74954 0.44114 0.0
H1739 H 0.1566 0.72457 0.43483 0.0
C1740 C 0.86289 0.35783 0.13718 0.0
C1741 C 0.85415 0.3977 0.13788 0.0
C1742 C 0.8839 0.4334 0.13903 0.0
C1743 C 0.89263 0.39359 0.13631 0.0
N1744 N 0.89124 0.31808 0.14271 0.0
N1745 N 0.8557 0.47267 0.14929 0.0
C1746 C 0.88233 0.35579 0.13886 0.0
C1747 C 0.8645 0.43528 0.14231 0.0
N1748 N 0.85257 0.32215 0.13299 0.0
N1749 N 0.89415 0.46932 0.13637 0.0
H1750 H 0.84149 0.47512 0.15104 0.0
H1751 H 0.86236 0.50072 0.1567 0.0
H1752 H 0.90842 0.46897 0.13576 0.0
H1753 H 0.88865 0.49935 0.13285 0.0
H1754 H 0.85799 0.2924 0.12704 0.0
H1755 H 0.8383 0.32258 0.13374 0.0
H1756 H 0.88468 0.28957 0.14849 0.0
H1757 H 0.90547 0.31568 0.14348 0.0
C1758 C 0.86367 0.35748 0.61351 0.0
C1759 C 0.85325 0.39505 0.61711 0.0
C1760 C 0.8812 0.43723 0.61082 0.0
C1761 C 0.89169 0.39985 0.61503 0.0
N1762 N 0.89358 0.3243 0.61834 0.0
N1763 N 0.85142 0.47073 0.61736 0.0
C1764 C 0.8831 0.35983 0.6149 0.0
C1765 C 0.86181 0.43502 0.61437 0.0
N1766 N 0.85489 0.31969 0.60922 0.0
N1767 N 0.88989 0.47474 0.604 0.0
H1768 H 0.83716 0.47003 0.61821 0.0
H1769 H 0.85681 0.50087 0.62076 0.0
H1770 H 0.90409 0.47714 0.60171 0.0
H1771 H 0.88315 0.50282 0.59714 0.0
H1772 H 0.86152 0.29138 0.60284 0.0
H1773 H 0.84066 0.3171 0.60865 0.0
H1774 H 0.88831 0.29434 0.62372 0.0
H1775 H 0.90785 0.3251 0.61737 0.0
C1776 C 0.6112 0.11189 0.87083 0.0
C1777 C 0.60221 0.15128 0.86695 0.0
C1778 C 0.63173 0.18801 0.86616 0.0
C1779 C 0.64067 0.14879 0.87204 0.0
N1780 N 0.63981 0.07296 0.86943 0.0
N1781 N 0.60341 0.22524 0.85039 0.0
C1782 C 0.63065 0.11051 0.87069 0.0
C1783 C 0.61238 0.18885 0.86088 0.0
N1784 N 0.60109 0.07617 0.8769 0.0
N1785 N 0.64167 0.22444 0.86761 0.0
H1786 H 0.58924 0.22658 0.84657 0.0
H1787 H 0.60998 0.2531 0.84196 0.0
H1788 H 0.65592 0.2247 0.86985 0.0
H1789 H 0.63589 0.25438 0.86861 0.0
H1790 H 0.60668 0.04716 0.88535 0.0
H1791 H 0.58683 0.07596 0.87533 0.0
H1792 H 0.63346 0.04402 0.86445 0.0
H1793 H 0.65405 0.07095 0.8699 0.0
C1794 C 0.63084 0.1843 0.37892 0.0
C1795 C 0.64102 0.14629 0.3764 0.0
C1796 C 0.61257 0.10545 0.37393 0.0
C1797 C 0.60256 0.14363 0.37001 0.0
N1798 N 0.60158 0.21941 0.36888 0.0
N1799 N 0.64218 0.07069 0.37183 0.0
C1800 C 0.61152 0.18313 0.37316 0.0
C1801 C 0.63203 0.10677 0.37467 0.0
N1802 N 0.63974 0.22143 0.38669 0.0
N1803 N 0.6034 0.06801 0.37689 0.0
H1804 H 0.65642 0.07055 0.37439 0.0
H1805 H 0.6367 0.04116 0.36511 0.0
H1806 H 0.58918 0.06583 0.37541 0.0
H1807 H 0.60968 0.03942 0.38398 0.0
H1808 H 0.63313 0.24983 0.39281 0.0
H1809 H 0.6539 0.22331 0.39042 0.0
H1810 H 0.60736 0.24918 0.36573 0.0
H1811 H 0.58735 0.21961 0.36636 0.0
C1812 C 0.35781 0.87143 0.11494 0.0
C1813 C 0.35025 0.91265 0.1137 0.0
C1814 C 0.38116 0.94297 0.10972 0.0
C1815 C 0.38871 0.9018 0.11166 0.0
N1816 N 0.38475 0.82748 0.12419 0.0
N1817 N 0.35439 0.98777 0.11789 0.0
C1818 C 0.37716 0.86623 0.11696 0.0
C1819 C 0.36186 0.9485 0.11359 0.0
N1820 N 0.34649 0.83721 0.11228 0.0
N1821 N 0.39243 0.97663 0.10279 0.0
H1822 H 0.34032 0.99284 0.12032 0.0
H1823 H 0.36207 1.01502 0.12238 0.0
H1824 H 0.40664 0.97389 0.10166 0.0
H1825 H 0.38775 1.00686 0.09589 0.0
H1826 H 0.35111 0.80652 0.10779 0.0
H1827 H 0.33226 0.83964 0.11166 0.0
H1828 H 0.37722 0.80101 0.13286 0.0
H1829 H 0.39884 0.82238 0.12497 0.0
C1830 C 0.3566 0.98146 0.69277 0.0
C1831 C 0.34991 0.93981 0.68706 0.0
C1832 C 0.381 0.91213 0.69389 0.0
C1833 C 0.38797 0.95376 0.69425 0.0
N1834 N 0.38276 0.02854 0.68921 0.0
N1835 N 0.35618 0.86654 0.67224 0.0
C1836 C 0.37587 0.9887 0.69248 0.0
C1837 C 0.36227 0.90544 0.68468 0.0
N1838 N 0.34461 1.01378 0.69968 0.0
N1839 N 0.39229 0.87893 0.70298 0.0
H1840 H 0.3426 0.86066 0.66371 0.0
H1841 H 0.36491 0.84133 0.66599 0.0
H1842 H 0.40608 0.88279 0.7109 0.0
H1843 H 0.38758 0.84823 0.7071 0.0
H1844 H 0.3487 0.04398 0.7086 0.0
H1845 H 0.33046 1.00964 0.69943 0.0
H1846 H 0.37469 0.0549 0.683 0.0
H1847 H 0.39675 0.03487 0.69005 0.0
C1848 C 0.63091 0.6079 0.36359 0.0
C1849 C 0.64136 0.64539 0.36717 0.0
C1850 C 0.61348 0.68779 0.36043 0.0
C1851 C 0.60295 0.6505 0.3645 0.0
N1852 N 0.60098 0.57495 0.36824 0.0
N1853 N 0.64327 0.72106 0.36741 0.0
C1854 C 0.61149 0.6104 0.36472 0.0
C1855 C 0.63285 0.68543 0.36429 0.0
N1856 N 0.63966 0.57002 0.35951 0.0
N1857 N 0.60483 0.72537 0.35334 0.0
H1858 H 0.65754 0.72026 0.36844 0.0
H1859 H 0.63791 0.75125 0.37075 0.0
H1860 H 0.59064 0.7279 0.35082 0.0
H1861 H 0.61162 0.75336 0.34651 0.0
H1862 H 0.63299 0.54175 0.35308 0.0
H1863 H 0.65388 0.5673 0.35915 0.0
H1864 H 0.60624 0.54499 0.37388 0.0
H1865 H 0.58672 0.5758 0.36717 0.0
C1866 C 0.63408 0.60692 0.89752 0.0
C1867 C 0.64267 0.64686 0.89491 0.0
C1868 C 0.61286 0.68222 0.89701 0.0
C1869 C 0.60426 0.64224 0.89644 0.0
N1870 N 0.60592 0.56731 0.9072 0.0
N1871 N 0.64109 0.72223 0.90303 0.0
C1872 C 0.61469 0.60479 0.90072 0.0
C1873 C 0.63229 0.68448 0.89857 0.0
N1874 N 0.64447 0.57119 0.89477 0.0
N1875 N 0.6024 0.7178 0.89373 0.0
H1876 H 0.65532 0.7248 0.90362 0.0
H1877 H 0.63447 0.75055 0.90946 0.0
H1878 H 0.58813 0.71701 0.89461 0.0
H1879 H 0.60769 0.7478 0.88865 0.0
H1880 H 0.63909 0.54104 0.89139 0.0
H1881 H 0.65874 0.57188 0.89421 0.0
H1882 H 0.6126 0.53913 0.91397 0.0
H1883 H 0.59172 0.56502 0.90924 0.0
C1884 C 0.38718 0.36407 0.65598 0.0
C1885 C 0.39751 0.40132 0.6494 0.0
C1886 C 0.36988 0.44417 0.65714 0.0
C1887 C 0.35931 0.40678 0.65544 0.0
N1888 N 0.35718 0.33117 0.65605 0.0
N1889 N 0.39959 0.47687 0.64656 0.0
C1890 C 0.36778 0.36665 0.65667 0.0
C1891 C 0.38915 0.44152 0.65173 0.0
N1892 N 0.396 0.32637 0.6608 0.0
N1893 N 0.36135 0.48202 0.66329 0.0
H1894 H 0.41382 0.47576 0.64446 0.0
H1895 H 0.39425 0.50704 0.64286 0.0
H1896 H 0.34721 0.48459 0.66702 0.0
H1897 H 0.36822 0.51032 0.66812 0.0
H1898 H 0.38948 0.29844 0.6692 0.0
H1899 H 0.41021 0.32356 0.65973 0.0
H1900 H 0.36229 0.30088 0.65164 0.0
H1901 H 0.34295 0.33224 0.65846 0.0
C1902 C 0.36314 0.36281 0.11466 0.0
C1903 C 0.35243 0.39931 0.12243 0.0
C1904 C 0.37977 0.44365 0.11718 0.0
C1905 C 0.3907 0.40672 0.11708 0.0
N1906 N 0.39346 0.33131 0.11325 0.0
N1907 N 0.34975 0.47457 0.12883 0.0
C1908 C 0.38255 0.3663 0.1142 0.0
C1909 C 0.36049 0.43991 0.12217 0.0
N1910 N 0.35468 0.32491 0.1083 0.0
N1911 N 0.38795 0.48216 0.11304 0.0
H1912 H 0.33551 0.47283 0.13054 0.0
H1913 H 0.35482 0.50474 0.13418 0.0
H1914 H 0.40206 0.4857 0.10988 0.0
H1915 H 0.38081 0.51029 0.10935 0.0
H1916 H 0.36145 0.29757 0.09897 0.0
H1917 H 0.3405 0.32142 0.10913 0.0
H1918 H 0.38863 0.30065 0.11634 0.0
H1919 H 0.40767 0.3331 0.11086 0.0
C1920 C 0.00232 0.0356 0.34403 0.0
C1921 C 0.0037 0.08051 0.33963 0.0
C1922 C 0.99498 0.07016 0.26217 0.0
C1923 C 0.99525 0.02518 0.26626 0.0
N1924 N 0.004 0.96649 0.31038 0.0
N1925 N 0.00443 0.13867 0.28979 0.0
C1926 C 0.00049 1.0085 0.30689 0.0
C1927 C 0.00078 0.09724 0.29735 0.0
N1928 N 0.00175 1.01843 0.38435 0.0
N1929 N 0.98917 0.08734 0.22415 0.0
H1930 H 0.00876 0.1591 0.31386 0.0
H1931 H 0.00454 0.15196 0.25912 0.0
H1932 H 0.98661 0.06919 0.19671 0.0
H1933 H 0.98613 0.11919 0.22039 0.0
H1934 H -0.00101 0.98672 0.39001 0.0
H1935 H 0.00178 0.03669 0.41223 0.0
H1936 H 0.01007 0.95335 0.33765 0.0
H1937 H 0.00303 0.94595 0.28426 0.0
C1938 C 0.24119 0.2338 0.27081 0.0
C1939 C 0.25368 0.2655 0.28488 0.0
C1940 C 0.25443 0.22955 0.35731 0.0
C1941 C 0.24084 0.20022 0.34431 0.0
N1942 N 0.22185 0.17324 0.28761 0.0
N1943 N 0.27206 0.29311 0.34307 0.0
C1944 C 0.23446 0.2022 0.30064 0.0
C1945 C 0.26031 0.26281 0.32857 0.0
N1946 N 0.23647 0.23247 0.22816 0.0
N1947 N 0.26182 0.22518 0.39763 0.0
H1948 H 0.2763 0.31797 0.32388 0.0
H1949 H 0.27668 0.29594 0.37464 0.0
H1950 H 0.25788 0.2011 0.41853 0.0
H1951 H 0.27267 0.24279 0.40964 0.0
H1952 H 0.22913 0.20807 0.21393 0.0
H1953 H 0.24073 0.25517 0.20607 0.0
H1954 H 0.21436 0.17521 0.25911 0.0
H1955 H 0.21904 0.1466 0.30596 0.0
C1956 C 0.01063 0.24578 1.00602 0.0
C1957 C 0.99688 0.27515 0.99337 0.0
C1958 C 0.99751 0.24204 0.9196 0.0
C1959 C 0.01035 0.21106 0.93309 0.0
N1960 N 0.02661 0.17954 0.99211 0.0
N1961 N 0.97505 0.29538 0.93811 0.0
C1962 C 0.0162 0.21214 0.97719 0.0
C1963 C 0.98974 0.27144 0.95016 0.0
N1964 N 0.01834 0.24973 0.04599 0.0
N1965 N 0.99307 0.24445 0.87686 0.0
H1966 H 0.96934 0.31867 0.95746 0.0
H1967 H 0.96767 0.29031 0.90982 0.0
H1968 H 0.99736 0.22206 0.85441 0.0
H1969 H 0.98604 0.26974 0.86327 0.0
H1970 H 0.02965 0.2325 0.05626 0.0
H1971 H 0.01428 0.27281 0.06793 0.0
H1972 H 0.03023 0.17545 0.02429 0.0
H1973 H 0.02994 0.15392 0.97266 0.0
C1974 C 0.25398 0.10039 0.97122 0.0
C1975 C 0.24962 0.08299 0.92994 0.0
C1976 C 0.25361 1.01204 0.96268 0.0
C1977 C 0.26103 0.02907 1.00138 0.0
N1978 N 0.26859 0.09212 0.04133 0.0
N1979 N 0.25079 1.02041 0.88556 0.0
C1980 C 0.26158 0.07409 1.00487 0.0
C1981 C 0.25123 0.0383 0.92555 0.0
N1982 N 0.24956 0.1412 0.97993 0.0
N1983 N 0.24765 0.97142 0.96151 0.0
H1984 H 0.25024 0.03823 0.85744 0.0
H1985 H 0.25332 0.98849 0.8804 0.0
H1986 H 0.246 0.95376 0.9894 0.0
H1987 H 0.24128 0.95823 0.93458 0.0
H1988 H 0.2507 0.15465 0.01044 0.0
H1989 H 0.24288 0.16027 0.9578 0.0
H1990 H 0.27179 0.12404 0.04351 0.0
H1991 H 0.27172 0.07493 0.06902 0.0
C1992 C 0.00297 0.97358 0.75819 0.0
C1993 C 0.00314 1.01868 0.75484 0.0
C1994 C 0.99502 1.00965 0.67749 0.0
C1995 C 0.99309 0.96494 0.68125 0.0
N1996 N 0.99225 0.90607 0.73016 0.0
N1997 N 0.99373 0.07796 0.71245 0.0
C1998 C 0.99633 0.94737 0.72304 0.0
C1999 C 0.9974 0.03603 0.71493 0.0
N2000 N 0.00915 0.95547 0.79541 0.0
N2001 N 0.99559 0.02735 0.63742 0.0
H2002 H 0.99505 0.09812 0.73879 0.0
H2003 H 0.98702 0.09096 0.68595 0.0
H2004 H 0.99514 1.00958 0.60915 0.0
H2005 H -0.00109 0.05883 0.63248 0.0
H2006 H 0.01172 0.92333 0.79849 0.0
H2007 H 0.01243 0.97311 0.82278 0.0
H2008 H 0.99226 0.89239 0.76066 0.0
H2009 H 0.98744 0.88629 0.70597 0.0
C2010 C 0.74167 0.82747 0.76337 0.0
C2011 C 0.74471 0.78376 0.75529 0.0
C2012 C 0.75925 0.80492 0.68557 0.0
C2013 C 0.75472 0.84844 0.69194 0.0
N2014 N 0.73838 0.8987 0.73521 0.0
N2015 N 0.75464 0.73122 0.70504 0.0
C2016 C 0.74503 0.85874 0.73051 0.0
C2017 C 0.75309 0.77276 0.71541 0.0
N2018 N 0.73595 0.8394 0.8035 0.0
N2019 N 0.77001 0.79405 0.65159 0.0
H2020 H 0.75119 0.70727 0.72652 0.0
H2021 H 0.75838 0.72079 0.67452 0.0
H2022 H 0.77361 0.81556 0.62806 0.0
H2023 H 0.7761 0.7646 0.64798 0.0
H2024 H 0.73523 0.87065 0.8136 0.0
H2025 H 0.73376 0.81773 0.82826 0.0
H2026 H 0.72963 0.90775 0.75999 0.0
H2027 H 0.74003 0.92174 0.71161 0.0
C2028 C 0.99764 0.81956 0.01159 0.0
C2029 C 0.99809 0.77468 0.01626 0.0
C2030 C 0.99071 0.78531 0.09378 0.0
C2031 C 0.98856 0.82988 0.08863 0.0
N2032 N 0.98715 0.88755 0.03839 0.0
N2033 N 0.99077 0.71559 0.06113 0.0
C2034 C 0.99135 0.84645 0.04632 0.0
C2035 C 0.99324 0.75795 0.0571 0.0
N2036 N 0.00334 0.83681 0.97358 0.0
N2037 N 0.99127 0.76894 0.13444 0.0
H2038 H 0.99222 0.69493 0.03523 0.0
H2039 H 0.98514 0.70195 0.08858 0.0
H2040 H 0.99072 0.7879 0.1618 0.0
H2041 H 0.99459 0.73765 0.141 0.0
H2042 H 0.00578 0.86889 0.9695 0.0
H2043 H 0.00643 0.81856 0.94654 0.0
H2044 H 0.98674 0.90046 1.00756 0.0
H2045 H 0.98281 0.90799 0.06245 0.0
C2046 C 0.74339 0.97364 0.01047 0.0
C2047 C 0.74497 1.01865 0.01281 0.0
C2048 C 0.75548 1.00939 0.08845 0.0
C2049 C 0.75552 0.96432 0.08551 0.0
N2050 N 0.75293 0.90494 0.03755 0.0
N2051 N 0.75793 0.07663 0.05179 0.0
C2052 C 0.75031 0.94684 0.04478 0.0
C2053 C 0.75275 0.03548 0.05099 0.0
N2054 N 0.73535 0.95616 0.97492 0.0
N2055 N 0.75705 0.028 0.12794 0.0
H2056 H 0.75607 0.09678 0.02565 0.0
H2057 H 0.76619 0.08862 0.07631 0.0
H2058 H 0.75769 1.01089 0.1565 0.0
H2059 H 0.75532 0.06019 0.13261 0.0
H2060 H 0.73152 0.92459 0.97313 0.0
H2061 H 0.73182 0.97385 0.94778 0.0
H2062 H 0.75132 0.89093 1.00743 0.0
H2063 H 0.75834 0.88493 0.0608 0.0
C2064 C 0.00923 0.54714 0.76411 0.0
C2065 C 0.99258 0.52545 0.77214 0.0
C2066 C 0.99001 0.56683 0.84126 0.0
C2067 C 0.00757 0.58495 0.83549 0.0
N2068 N 0.03499 0.58695 0.7919 0.0
N2069 N 0.96901 0.51017 0.82455 0.0
C2070 C 0.01745 0.57332 0.79711 0.0
C2071 C 0.98347 0.53448 0.8123 0.0
N2072 N 0.01685 0.54486 0.72399 0.0
N2073 N 0.97943 0.58001 0.87494 0.0
H2074 H 0.96423 0.48522 0.8062 0.0
H2075 H 0.96318 0.51117 0.85513 0.0
H2076 H 0.9839 0.60174 0.89782 0.0
H2077 H 0.96565 0.57227 0.8781 0.0
H2078 H 0.02761 0.56399 0.71405 0.0
H2079 H 0.01139 0.52655 0.69921 0.0
H2080 H 0.04377 0.57506 0.76844 0.0
H2081 H 0.04119 0.60838 0.81253 0.0
C2082 C 0.26021 0.76897 0.83004 0.0
C2083 C 0.25271 0.77039 0.78695 0.0
C2084 C 0.2356 0.70479 0.80584 0.0
C2085 C 0.24147 0.70649 0.84987 0.0
N2086 N 0.25844 0.74338 0.90414 0.0
N2087 N 0.232 0.73932 0.73579 0.0
C2088 C 0.25357 0.73945 0.86176 0.0
C2089 C 0.23993 0.73828 0.77568 0.0
N2090 N 0.27411 0.79557 0.84102 0.0
N2091 N 0.22661 0.66957 0.79224 0.0
H2092 H 0.23527 0.76204 0.71281 0.0
H2093 H 0.22125 0.71979 0.72657 0.0
H2094 H 0.2248 0.64378 0.8125 0.0
H2095 H 0.22305 0.66367 0.76029 0.0
H2096 H 0.282 0.7923 0.86883 0.0
H2097 H 0.27846 0.81994 0.82142 0.0
H2098 H 0.265 0.7697 0.91686 0.0
H2099 H 0.2552 0.72069 0.92718 0.0
C2100 C 0.01228 0.75464 0.50134 0.0
C2101 C 0.99613 0.77793 0.49219 0.0
C2102 C 0.99319 0.73541 0.42394 0.0
C2103 C 0.01042 0.71575 0.43052 0.0
N2104 N 0.03797 0.71451 0.47414 0.0
N2105 N 0.97386 0.796 0.43742 0.0
C2106 C 0.02039 0.72782 0.46878 0.0
C2107 C 0.98732 0.76955 0.45149 0.0
N2108 N 0.01962 0.75633 0.54183 0.0
N2109 N 0.98229 0.72195 0.39089 0.0
H2110 H 0.96992 0.82258 0.45454 0.0
H2111 H 0.96832 0.79482 0.40646 0.0
H2112 H 0.98611 0.69779 0.37 0.0
H2113 H 0.96879 0.73176 0.38694 0.0
H2114 H 0.03001 0.73624 0.55221 0.0
H2115 H 0.01425 0.7751 0.5663 0.0
H2116 H 0.04664 0.72626 0.49802 0.0
H2117 H 0.04437 0.69425 0.45281 0.0
C2118 C 0.2477 0.50467 0.47342 0.0
C2119 C 0.25287 0.52147 0.51404 0.0
C2120 C 0.24565 0.59297 0.48514 0.0
C2121 C 0.24255 0.57636 0.44292 0.0
N2122 N 0.24481 0.51584 0.39625 0.0
N2123 N 0.25829 0.58326 0.55726 0.0
C2124 C 0.24474 0.53199 0.43712 0.0
C2125 C 0.25233 0.56616 0.51928 0.0
N2126 N 0.24524 0.46234 0.46937 0.0
N2127 N 0.24134 0.63387 0.49369 0.0
H2128 H 0.26158 0.56493 0.58412 0.0
H2129 H 0.26077 0.61531 0.56148 0.0
H2130 H 0.23659 0.65444 0.47022 0.0
H2131 H 0.24115 0.64641 0.52469 0.0
H2132 H 0.23915 0.44896 0.44225 0.0
H2133 H 0.24714 0.4416 0.49502 0.0
H2134 H 0.24817 0.48464 0.38937 0.0
H2135 H 0.24358 0.53477 0.36888 0.0
C2136 C 0.00723 0.4871 0.17106 0.0
C2137 C 0.9909 0.46455 0.17986 0.0
C2138 C 0.98999 0.50153 0.25199 0.0
C2139 C 0.00521 0.52731 0.24123 0.0
N2140 N 0.02661 0.54752 0.18573 0.0
N2141 N 0.96553 0.45506 0.22882 0.0
C2142 C 0.01337 0.52048 0.19951 0.0
C2143 C 0.982 0.47334 0.22035 0.0
N2144 N 0.01701 0.47685 0.13506 0.0
N2145 N 0.98363 0.50202 0.29338 0.0
H2146 H 0.95986 0.43204 0.20922 0.0
H2147 H 0.95706 0.46434 0.25407 0.0
H2148 H 0.98881 0.52212 0.31702 0.0
H2149 H 0.97427 0.48021 0.30524 0.0
H2150 H 0.0301 0.48819 0.12878 0.0
H2151 H 0.01275 0.45385 0.11325 0.0
H2152 H 0.03167 0.54815 0.1544 0.0
H2153 H 0.03111 0.57263 0.20425 0.0
C2154 C 0.74521 0.32507 0.25636 0.0
C2155 C 0.74693 0.28007 0.25415 0.0
C2156 C 0.75693 0.28914 0.17831 0.0
C2157 C 0.75692 0.33426 0.18108 0.0
N2158 N 0.75436 0.39386 0.22883 0.0
N2159 N 0.75991 0.22212 0.21519 0.0
C2160 C 0.75189 0.35186 0.22184 0.0
C2161 C 0.75457 0.26319 0.21595 0.0
N2162 N 0.73728 0.34254 0.29196 0.0
N2163 N 0.75813 0.2703 0.13886 0.0
H2164 H 0.75832 0.20201 0.24144 0.0
H2165 H 0.76808 0.2102 0.19054 0.0
H2166 H 0.75833 0.28721 0.11016 0.0
H2167 H 0.75649 0.23802 0.13451 0.0
H2168 H 0.73336 0.37405 0.29371 0.0
H2169 H 0.73391 0.32485 0.31917 0.0
H2170 H 0.75279 0.40806 0.25887 0.0
H2171 H 0.75959 0.41385 0.20541 0.0
C2172 C 0.99003 0.26297 0.55454 0.0
C2173 C 0.99622 0.27899 0.51456 0.0
C2174 C 0.99142 0.35149 0.54519 0.0
C2175 C 0.98764 0.33492 0.58713 0.0
N2176 N 0.98859 0.27286 0.63185 0.0
N2177 N 0.00415 0.34051 0.47328 0.0
C2178 C 0.98837 0.29009 0.59155 0.0
C2179 C 0.99736 0.32391 0.51056 0.0
N2180 N 0.98537 0.2216 0.55758 0.0
N2181 N 0.98857 0.39322 0.53739 0.0
H2182 H 0.00702 0.32202 0.44627 0.0
H2183 H 0.00767 0.37212 0.46985 0.0
H2184 H 0.98436 0.41409 0.56116 0.0
H2185 H 0.98903 0.40642 0.50669 0.0
H2186 H 0.9781 0.21009 0.58391 0.0
H2187 H 0.98653 0.20069 0.53179 0.0
H2188 H 0.99084 0.24092 0.63708 0.0
H2189 H 0.98892 0.29102 0.65989 0.0
C2190 C 0.752 0.53639 0.55389 0.0
C2191 C 0.74605 0.5199 0.51372 0.0
C2192 C 0.75238 0.44776 0.54362 0.0
C2193 C 0.75607 0.46433 0.58561 0.0
N2194 N 0.75491 0.52589 0.631 0.0
N2195 N 0.73946 0.45787 0.47169 0.0
C2196 C 0.75468 0.50909 0.59051 0.0
C2197 C 0.74586 0.47493 0.50926 0.0
N2198 N 0.75544 0.57841 0.55739 0.0
N2199 N 0.75598 0.40639 0.53553 0.0
H2200 H 0.73635 0.47614 0.44468 0.0
H2201 H 0.73653 0.42596 0.46794 0.0
H2202 H 0.76062 0.38588 0.55925 0.0
H2203 H 0.7557 0.39331 0.50476 0.0
H2204 H 0.76223 0.59121 0.58389 0.0
H2205 H 0.75362 0.59926 0.53181 0.0
H2206 H 0.75215 0.55746 0.63731 0.0
H2207 H 0.75548 0.50726 0.65854 0.0
C2208 C 0.49772 0.07325 0.74953 0.0
C2209 C 0.48917 0.03341 0.75714 0.0
C2210 C 0.49324 0.04727 0.83615 0.0
C2211 C 0.5006 0.08836 0.82847 0.0
N2212 N 0.50702 0.14222 0.77636 0.0
N2213 N 0.47607 0.98686 0.81007 0.0
C2214 C 0.50188 0.10178 0.78469 0.0
C2215 C 0.48631 1.02161 0.80116 0.0
N2216 N 0.50268 0.08321 0.7083 0.0
N2217 N 0.49296 0.03224 0.87743 0.0
H2218 H 0.47121 0.96698 0.78618 0.0
H2219 H 0.47127 0.97943 0.84072 0.0
H2220 H 0.49606 0.05095 0.90415 0.0
H2221 H 0.49052 1.00078 0.88502 0.0
H2222 H 0.51063 0.10927 0.70037 0.0
H2223 H 0.50045 0.06298 0.68227 0.0
H2224 H 0.5062 0.15583 0.74592 0.0
H2225 H 0.51038 0.16341 0.80069 0.0
C2226 C 0.73947 0.25828 0.83777 0.0
C2227 C 0.73826 0.21333 0.83389 0.0
C2228 C 0.74879 0.22281 0.75769 0.0
C2229 C 0.74836 0.26791 0.76124 0.0
N2230 N 0.73784 0.32663 0.80305 0.0
N2231 N 0.73866 0.15452 0.78478 0.0
C2232 C 0.74194 0.28486 0.80064 0.0
C2233 C 0.74216 0.19606 0.7923 0.0
N2234 N 0.73932 0.27618 0.87774 0.0
N2235 N 0.75545 0.20522 0.72071 0.0
H2236 H 0.7337 0.13449 0.8085 0.0
H2237 H 0.73926 0.14078 0.75432 0.0
H2238 H 0.75861 0.2231 0.6935 0.0
H2239 H 0.7585 0.1733 0.71768 0.0
H2240 H 0.74213 0.3079 0.88287 0.0
H2241 H 0.73884 0.25864 0.90596 0.0
H2242 H 0.73062 0.33925 0.82896 0.0
H2243 H 0.73947 0.34715 0.77717 0.0
C2244 C 0.50351 0.2261 0.49335 0.0
C2245 C 0.49369 0.26383 0.48339 0.0
C2246 C 0.49619 0.24417 0.40585 0.0
C2247 C 0.50451 0.20444 0.41535 0.0
N2248 N 0.51362 0.15582 0.47081 0.0
N2249 N 0.47533 0.29833 0.42903 0.0
C2250 C 0.5074 0.19494 0.46003 0.0
C2251 C 0.48846 0.26954 0.4394 0.0
N2252 N 0.50909 0.21987 0.5349 0.0
N2253 N 0.49598 0.25922 0.36464 0.0
H2254 H 0.46945 0.31815 0.45159 0.0
H2255 H 0.46924 0.2999 0.39862 0.0
H2256 H 0.50171 0.24356 0.33869 0.0
H2257 H 0.4917 0.2896 0.35693 0.0
H2258 H 0.51765 0.19536 0.54443 0.0
H2259 H 0.50624 0.24144 0.55941 0.0
H2260 H 0.51467 0.14499 0.50238 0.0
H2261 H 0.51607 0.13268 0.44772 0.0
C2262 C 0.74285 0.10158 0.47272 0.0
C2263 C 0.73951 0.08407 0.43094 0.0
C2264 C 0.74379 1.01284 0.46456 0.0
C2265 C 0.74963 0.03018 0.50441 0.0
N2266 N 0.75562 0.09337 0.54513 0.0
N2267 N 0.7417 1.02139 0.38723 0.0
C2268 C 0.74949 0.0753 0.50782 0.0
C2269 C 0.74129 0.03924 0.42722 0.0
N2270 N 0.73878 0.14288 0.47994 0.0
N2271 N 0.74025 0.97083 0.46192 0.0
H2272 H 0.74121 0.03901 0.35903 0.0
H2273 H 0.74498 0.98989 0.38224 0.0
H2274 H 0.7419 0.95044 0.48794 0.0
H2275 H 0.73343 0.95777 0.43557 0.0
H2276 H 0.73903 0.15671 0.51038 0.0
H2277 H 0.73367 0.16248 0.45593 0.0
H2278 H 0.75829 0.12545 0.54824 0.0
H2279 H 0.75872 0.07575 0.5726 0.0
C2280 C 0.49128 0.02755 0.19665 0.0
C2281 C 0.49763 1.01089 0.2363 0.0
C2282 C 0.49117 0.93909 0.20566 0.0
C2283 C 0.48715 0.95602 0.16394 0.0
N2284 N 0.48872 1.01807 0.11947 0.0
N2285 N 0.5056 0.9485 0.27622 0.0
C2286 C 0.48865 1.00074 0.15967 0.0
C2287 C 0.49824 0.9659 0.23986 0.0
N2288 N 0.48743 0.06939 0.19391 0.0
N2289 N 0.48736 0.89788 0.21376 0.0
H2290 H 0.50957 0.96664 0.30273 0.0
H2291 H 0.50858 0.91653 0.2791 0.0
H2292 H 0.48162 0.87823 0.19062 0.0
H2293 H 0.48834 0.88449 0.24431 0.0
H2294 H 0.48027 0.08178 0.16776 0.0
H2295 H 0.48918 0.08999 0.21981 0.0
H2296 H 0.49197 0.04951 0.11416 0.0
H2297 H 0.4881 1.00004 0.09145 0.0
C2298 C 0.27467 0.80712 0.23634 0.0
C2299 C 0.26359 0.8175 0.19965 0.0
C2300 C 0.23908 0.77241 0.23004 0.0
C2301 C 0.2495 0.76479 0.26845 0.0
N2302 N 0.27655 0.77949 0.30982 0.0
N2303 N 0.23386 0.81409 0.16569 0.0
C2304 C 0.26721 0.78307 0.27178 0.0
C2305 C 0.24543 0.80135 0.19785 0.0
N2306 N 0.29237 0.82086 0.23775 0.0
N2307 N 0.22315 0.75073 0.22325 0.0
H2308 H 0.23776 0.83332 0.14025 0.0
H2309 H 0.21983 0.80844 0.16602 0.0
H2310 H 0.21732 0.7306 0.2458 0.0
H2311 H 0.21648 0.74955 0.19356 0.0
H2312 H 0.30193 0.81025 0.26016 0.0
H2313 H 0.29779 0.84181 0.21528 0.0
H2314 H 0.28847 0.79603 0.3169 0.0
H2315 H 0.27169 0.76179 0.33569 0.0
C2316 C 0.50378 0.85157 0.54395 0.0
C2317 C 0.4928 0.83894 0.57941 0.0
C2318 C 0.49229 0.76631 0.54681 0.0
C2319 C 0.50158 0.78045 0.50909 0.0
N2320 N 0.5123 0.84049 0.46901 0.0
N2321 N 0.47545 0.7833 0.61252 0.0
C2322 C 0.50618 0.82427 0.50713 0.0
C2323 C 0.48673 0.79596 0.57997 0.0
N2324 N 0.5124 0.88955 0.54571 0.0
N2325 N 0.48937 0.72423 0.55213 0.0
H2326 H 0.47254 0.80237 0.63908 0.0
H2327 H 0.46841 0.7548 0.61239 0.0
H2328 H 0.49261 0.70209 0.52854 0.0
H2329 H 0.48471 0.71113 0.5808 0.0
H2330 H 0.52191 0.89948 0.52291 0.0
H2331 H 0.5116 0.90879 0.57278 0.0
H2332 H 0.51426 0.87259 0.46385 0.0
H2333 H 0.51338 0.82233 0.44105 0.0
C2334 C 0.23569 0.99826 0.61615 0.0
C2335 C 0.24834 0.96479 0.60927 0.0
C2336 C 0.24918 0.98607 0.53114 0.0
C2337 C 0.23779 1.02185 0.53907 0.0
N2338 N 0.22082 0.06229 0.59142 0.0
N2339 N 0.26709 0.92677 0.55898 0.0
C2340 C 0.23128 0.02775 0.58227 0.0
C2341 C 0.25499 0.95868 0.56628 0.0
N2342 N 0.22705 1.0006 0.65515 0.0
N2343 N 0.25377 0.97702 0.48947 0.0
H2344 H 0.26991 0.9038 0.58204 0.0
H2345 H 0.27457 0.92344 0.53069 0.0
H2346 H 0.25026 0.99671 0.46382 0.0
H2347 H 0.26016 0.94927 0.47988 0.0
H2348 H 0.21615 1.02062 0.66188 0.0
H2349 H 0.2295 0.97919 0.67993 0.0
H2350 H 0.21766 0.07202 0.62252 0.0
H2351 H 0.21609 0.08315 0.56811 0.0
C2352 C 0.50323 0.59894 0.28855 0.0
C2353 C 0.50628 0.58217 0.33076 0.0
C2354 C 0.50212 0.51025 0.29831 0.0
C2355 C 0.49699 0.52716 0.25767 0.0
N2356 N 0.49127 0.58952 0.21563 0.0
N2357 N 0.50447 0.52034 0.37573 0.0
C2358 C 0.4971 0.57211 0.25352 0.0
C2359 C 0.50461 0.53734 0.33531 0.0
N2360 N 0.5071 0.64023 0.2809 0.0
N2361 N 0.50491 0.46794 0.30183 0.0
H2362 H 0.50521 0.53875 0.40344 0.0
H2363 H 0.50139 0.48887 0.38189 0.0
H2364 H 0.5034 0.44749 0.27576 0.0
H2365 H 0.51081 0.45419 0.32898 0.0
H2366 H 0.50739 0.6533 0.25015 0.0
H2367 H 0.51138 0.66066 0.30502 0.0
H2368 H 0.48848 0.6215 0.21191 0.0
H2369 H 0.48842 0.57147 0.18827 0.0
C2370 C 0.7424 0.69766 0.29441 0.0
C2371 C 0.73809 0.71458 0.33588 0.0
C2372 C 0.74129 0.78634 0.30309 0.0
C2373 C 0.74801 0.76979 0.26376 0.0
N2374 N 0.75603 0.70766 0.22332 0.0
N2375 N 0.73809 0.77699 0.38011 0.0
C2376 C 0.74894 0.72479 0.26009 0.0
C2377 C 0.73879 0.75948 0.34001 0.0
N2378 N 0.73934 0.656 0.28666 0.0
N2379 N 0.73696 0.82797 0.30554 0.0
H2380 H 0.73771 0.75893 0.40803 0.0
H2381 H 0.74036 0.80887 0.38568 0.0
H2382 H 0.73873 0.84865 0.27981 0.0
H2383 H 0.72947 0.84026 0.33118 0.0
H2384 H 0.74018 0.6425 0.25614 0.0
H2385 H 0.7345 0.63567 0.31025 0.0
H2386 H 0.75942 0.67592 0.22031 0.0
H2387 H 0.75921 0.72578 0.19628 0.0
C2388 C 0.50492 0.74757 0.91697 0.0
C2389 C 0.50637 0.70284 0.92132 0.0
C2390 C 0.49512 0.71254 0.99683 0.0
C2391 C 0.49558 0.75757 0.99308 0.0
N2392 N 0.50626 0.81613 0.95127 0.0
N2393 N 0.50542 0.64412 0.97041 0.0
C2394 C 0.50221 0.77435 0.95382 0.0
C2395 C 0.50209 0.68567 0.96269 0.0
N2396 N 0.50502 0.76497 0.87678 0.0
N2397 N 0.48801 0.69519 0.03342 0.0
H2398 H 0.51034 0.62382 0.94685 0.0
H2399 H 0.50458 0.6306 1.00091 0.0
H2400 H 0.4844 0.7133 0.0602 0.0
H2401 H 0.48498 0.66327 0.03646 0.0
H2402 H 0.50202 0.79657 0.8716 0.0
H2403 H 0.5056 0.74704 0.84865 0.0
H2404 H 0.51363 0.82847 0.92549 0.0
H2405 H 0.50451 0.83685 0.97699 0.0
C2406 C 0.74388 0.60169 0.97149 0.0
C2407 C 0.73969 0.58459 0.92992 0.0
C2408 C 0.74273 0.51299 0.96327 0.0
C2409 C 0.74932 0.52959 1.00272 0.0
N2410 N 0.75748 0.59182 0.04285 0.0
N2411 N 0.74029 0.52173 0.88605 0.0
C2412 C 0.75034 0.57462 1.00611 0.0
C2413 C 0.74052 0.53962 0.92606 0.0
N2414 N 0.74088 0.64342 0.97899 0.0
N2415 N 0.73825 0.47144 0.96088 0.0
H2416 H 0.74006 0.53935 0.8578 0.0
H2417 H 0.74279 0.48984 0.88102 0.0
H2418 H 0.73976 0.45089 0.98683 0.0
H2419 H 0.73085 0.45929 0.93496 0.0
H2420 H 0.74175 0.6571 0.00944 0.0
H2421 H 0.73606 0.66372 0.95529 0.0
H2422 H 0.7609 0.62355 0.04575 0.0
H2423 H 0.76072 0.57372 0.06991 0.0
C2424 C 0.50304 0.49605 0.65473 0.0
C2425 C 0.4951 0.45626 0.66485 0.0
C2426 C 0.49651 0.47801 0.74268 0.0
C2427 C 0.50556 0.51656 0.73235 0.0
N2428 N 0.52254 0.55312 0.67717 0.0
N2429 N 0.48833 0.4064 0.72078 0.0
C2430 C 0.51023 0.52278 0.68801 0.0
C2431 C 0.493 0.44646 0.7096 0.0
N2432 N 0.50373 0.50917 0.61284 0.0
N2433 N 0.49137 0.47122 0.78439 0.0
H2434 H 0.48694 0.38265 0.69785 0.0
H2435 H 0.48809 0.39565 0.75247 0.0
H2436 H 0.49399 0.49303 0.80885 0.0
H2437 H 0.48328 0.44596 0.794 0.0
H2438 H 0.5069 0.54003 0.60423 0.0
H2439 H 0.5001 0.49017 0.58688 0.0
H2440 H 0.52851 0.55531 0.64674 0.0
H2441 H 0.52784 0.57405 0.69946 0.0
C2442 C 0.26321 0.2634 0.72905 0.0
C2443 C 0.25408 0.28064 0.76522 0.0
C2444 C 0.25823 0.35174 0.73189 0.0
C2445 C 0.26452 0.33352 0.6925 0.0
N2446 N 0.26909 0.26888 0.6527 0.0
N2447 N 0.24256 0.34286 0.80053 0.0
C2448 C 0.26599 0.28851 0.69113 0.0
C2449 C 0.25142 0.32532 0.76617 0.0
N2450 N 0.26949 0.22298 0.73049 0.0
N2451 N 0.25988 0.39406 0.73813 0.0
H2452 H 0.23937 0.32578 0.82827 0.0
H2453 H 0.23781 0.3738 0.80083 0.0
H2454 H 0.26573 0.4138 0.71539 0.0
H2455 H 0.25721 0.40886 0.76741 0.0
H2456 H 0.27861 0.2111 0.70775 0.0
H2457 H 0.26764 0.20324 0.75688 0.0
H2458 H 0.26899 0.23632 0.64934 0.0
H2459 H 0.26954 0.28482 0.62346 0.0
C2460 C 0.50312 0.31363 0.0824 0.0
C2461 C 0.48745 0.3387 0.07338 0.0
C2462 C 0.48653 0.30546 0.99965 0.0
C2463 C 0.50112 0.27772 0.01016 0.0
N2464 N 0.52148 0.2518 0.06561 0.0
N2465 N 0.46274 0.35324 0.02358 0.0
C2466 C 0.50893 0.28111 0.05265 0.0
C2467 C 0.47878 0.33291 0.03206 0.0
N2468 N 0.5126 0.32077 0.11972 0.0
N2469 N 0.48054 0.30731 0.95792 0.0
H2470 H 0.45721 0.37551 0.04421 0.0
H2471 H 0.45439 0.34622 0.99727 0.0
H2472 H 0.48552 0.28756 0.93376 0.0
H2473 H 0.47172 0.33055 0.94648 0.0
H2474 H 0.52527 0.30734 0.12654 0.0
H2475 H 0.50855 0.34313 0.14242 0.0
H2476 H 0.52609 0.24885 0.09724 0.0
H2477 H 0.52608 0.22761 0.04573 0.0
C2478 C 0.25247 0.53114 0.07148 0.0
C2479 C 0.24749 0.51524 0.03036 0.0
C2480 C 0.25343 0.44267 0.05978 0.0
C2481 C 0.25638 0.45873 0.10236 0.0
N2482 N 0.25351 0.51937 0.14868 0.0
N2483 N 0.24175 0.45387 0.98677 0.0
C2484 C 0.25447 0.50331 0.1079 0.0
C2485 C 0.24752 0.47035 0.02517 0.0
N2486 N 0.25565 0.57316 0.0761 0.0
N2487 N 0.25694 0.40129 0.05153 0.0
H2488 H 0.23891 0.47263 0.95994 0.0
H2489 H 0.23902 0.42198 0.98211 0.0
H2490 H 0.26057 0.38007 0.07553 0.0
H2491 H 0.25735 0.38862 0.02058 0.0
H2492 H 0.26159 0.58572 0.10381 0.0
H2493 H 0.25457 0.59425 0.05047 0.0
H2494 H 0.25008 0.5506 0.15494 0.0
H2495 H 0.25377 0.50044 0.17612 0.0
loop_
_geom_bond_atom_site_label_1
_geom_bond_atom_site_label_2
_geom_bond_distance
_geom_bond_site_symmetry_2
_ccdc_geom_bond_type
C0 C1 1.351 . S
C0 N3 1.368 . S
C0 H5 0.931 . S
C1 C0 1.351 . S
C1 N2 1.373 . S
C1 H29 0.930 . S
N2 C1 1.373 . S
N2 C4 1.340 . S
N3 C0 1.368 . S
N3 C4 1.321 . S
N3 Co6 2.135 . S
C4 N2 1.340 . S
C4 N3 1.321 . S
C4 H28 0.930 . S
H5 C0 0.931 . S
Co6 N3 2.135 . S
Co6 N9 2.121 . S
Co6 O14 2.055 . S
Co6 O17 2.039 . S
Co6 N20 2.140 . S
C7 O8 1.227 . S
C7 O17 1.265 . S
O8 C7 1.227 . S
N9 Co6 2.121 . S
N9 C11 1.375 . S
N9 C12 1.313 . S
C10 C11 1.338 . S
C10 N13 1.377 . S
C10 H30 0.930 . S
C11 N9 1.375 . S
C11 C10 1.338 . S
C11 H15 0.931 . S
C12 N9 1.313 . S
C12 N13 1.344 . S
C12 H16 0.930 . S
N13 C10 1.377 . S
N13 C12 1.344 . S
O14 Co6 2.055 . S
O14 C18 1.253 . S
H15 C11 0.931 . S
H16 C12 0.930 . S
O17 Co6 2.039 . S
O17 C7 1.265 . S
C18 O14 1.253 . S
C18 O19 1.227 . S
O19 C18 1.227 . S
N20 Co6 2.140 . S
N20 C23 1.346 . S
N20 C24 1.345 . S
C21 C22 1.387 . S
C21 C25 1.391 . S
C22 C21 1.387 . S
C22 C23 1.369 . S
C22 H31 0.929 . S
C23 N20 1.346 . S
C23 C22 1.369 . S
C23 H26 0.928 . S
C24 N20 1.345 . S
C24 C25 1.371 . S
C24 H27 0.931 . S
C25 C21 1.391 . S
C25 C24 1.371 . S
C25 H32 0.930 . S
H26 C23 0.928 . S
H27 C24 0.931 . S
H28 C4 0.930 . S
H29 C1 0.930 . S
H30 C10 0.930 . S
H31 C22 0.929 . S
H32 C25 0.930 . S
C33 C34 1.351 1_545 S
C33 N36 1.368 . S
C33 H38 0.931 1_545 S
C34 C33 1.351 1_565 S
C34 N35 1.373 1_565 S
C34 H62 0.930 . S
N35 C34 1.373 1_545 S
N35 C37 1.340 . S
N36 C33 1.368 . S
N36 C37 1.321 . S
N36 Co39 2.135 . S
C37 N35 1.340 . S
C37 N36 1.321 . S
C37 H61 0.930 . S
H38 C33 0.931 1_565 S
Co39 N36 2.135 . S
Co39 N42 2.121 . S
Co39 O47 2.055 . S
Co39 O50 2.039 . S
Co39 N53 2.140 . S
C40 O41 1.227 . S
C40 O50 1.265 . S
O41 C40 1.227 . S
N42 Co39 2.121 . S
N42 C44 1.375 . S
N42 C45 1.313 . S
C43 C44 1.338 . S
C43 N46 1.377 . S
C43 H63 0.930 . S
C44 N42 1.375 . S
C44 C43 1.338 . S
C44 H48 0.931 . S
C45 N42 1.313 . S
C45 N46 1.344 . S
C45 H49 0.930 . S
N46 C43 1.377 . S
N46 C45 1.344 . S
O47 Co39 2.055 . S
O47 C51 1.253 . S
H48 C44 0.931 . S
H49 C45 0.930 . S
O50 Co39 2.039 . S
O50 C40 1.265 . S
C51 O47 1.253 . S
C51 O52 1.227 . S
O52 C51 1.227 . S
N53 Co39 2.140 . S
N53 C56 1.346 . S
N53 C57 1.345 . S
C54 C55 1.387 . S
C54 C58 1.391 . S
C55 C54 1.387 . S
C55 C56 1.369 . S
C55 H64 0.929 . S
C56 N53 1.346 . S
C56 C55 1.369 . S
C56 H59 0.928 . S
C57 N53 1.345 . S
C57 C58 1.371 . S
C57 H60 0.931 . S
C58 C54 1.391 . S
C58 C57 1.371 . S
C58 H65 0.930 . S
H59 C56 0.928 . S
H60 C57 0.931 . S
H61 C37 0.930 . S
H62 C34 0.930 . S
H63 C43 0.930 . S
H64 C55 0.929 . S
H65 C58 0.930 . S
C66 C67 1.351 1_545 S
C66 N69 1.368 . S
C66 H71 0.931 1_545 S
C67 C66 1.351 1_565 S
C67 N68 1.373 1_565 S
C67 H95 0.930 . S
N68 C67 1.373 1_545 S
N68 C70 1.340 . S
N69 C66 1.368 . S
N69 C70 1.321 . S
N69 Co72 2.135 . S
C70 N68 1.340 . S
C70 N69 1.321 . S
C70 H94 0.930 . S
H71 C66 0.931 1_565 S
Co72 N69 2.135 . S
Co72 N75 2.121 . S
Co72 O80 2.055 . S
Co72 O83 2.039 . S
Co72 N86 2.140 . S
C73 O74 1.227 . S
C73 O83 1.265 . S
O74 C73 1.227 . S
N75 Co72 2.121 . S
N75 C77 1.375 . S
N75 C78 1.313 . S
C76 C77 1.338 . S
C76 N79 1.377 . S
C76 H96 0.930 . S
C77 N75 1.375 . S
C77 C76 1.338 . S
C77 H81 0.931 . S
C78 N75 1.313 . S
C78 N79 1.344 . S
C78 H82 0.930 . S
N79 C76 1.377 . S
N79 C78 1.344 . S
O80 Co72 2.055 . S
O80 C84 1.253 . S
H81 C77 0.931 . S
H82 C78 0.930 . S
O83 Co72 2.039 . S
O83 C73 1.265 . S
C84 O80 1.253 . S
C84 O85 1.227 . S
O85 C84 1.227 . S
N86 Co72 2.140 . S
N86 C89 1.346 . S
N86 C90 1.345 . S
C87 C88 1.387 . S
C87 C91 1.391 . S
C88 C87 1.387 . S
C88 C89 1.369 . S
C88 H97 0.929 . S
C89 N86 1.346 . S
C89 C88 1.369 . S
C89 H92 0.928 . S
C90 N86 1.345 . S
C90 C91 1.371 . S
C90 H93 0.931 . S
C91 C87 1.391 . S
C91 C90 1.371 . S
C91 H98 0.930 . S
H92 C89 0.928 . S
H93 C90 0.931 . S
H94 C70 0.930 . S
H95 C67 0.930 . S
H96 C76 0.930 . S
H97 C88 0.929 . S
H98 C91 0.930 . S
C99 C100 1.351 . S
C99 N102 1.368 . S
C99 H104 0.931 . S
C100 C99 1.351 . S
C100 N101 1.373 . S
C100 H128 0.930 . S
N101 C100 1.373 . S
N101 C103 1.340 . S
N102 C99 1.368 . S
N102 C103 1.321 . S
N102 Co105 2.135 . S
C103 N101 1.340 . S
C103 N102 1.321 . S
C103 H127 0.930 . S
H104 C99 0.931 . S
Co105 N102 2.135 . S
Co105 N108 2.121 . S
Co105 O113 2.055 . S
Co105 O116 2.039 . S
Co105 N119 2.140 . S
C106 O107 1.227 . S
C106 O116 1.265 . S
O107 C106 1.227 . S
N108 Co105 2.121 . S
N108 C110 1.375 . S
N108 C111 1.313 . S
C109 C110 1.338 . S
C109 N112 1.377 . S
C109 H129 0.930 . S
C110 N108 1.375 . S
C110 C109 1.338 . S
C110 H114 0.931 . S
C111 N108 1.313 . S
C111 N112 1.344 . S
C111 H115 0.930 . S
N112 C109 1.377 . S
N112 C111 1.344 . S
O113 Co105 2.055 . S
O113 C117 1.253 . S
H114 C110 0.931 . S
H115 C111 0.930 . S
O116 Co105 2.039 . S
O116 C106 1.265 . S
C117 O113 1.253 . S
C117 O118 1.227 . S
O118 C117 1.227 . S
N119 Co105 2.140 . S
N119 C122 1.346 . S
N119 C123 1.345 . S
C120 C121 1.387 . S
C120 C124 1.391 . S
C121 C120 1.387 . S
C121 C122 1.369 . S
C121 H130 0.929 . S
C122 N119 1.346 . S
C122 C121 1.369 . S
C122 H125 0.928 . S
C123 N119 1.345 . S
C123 C124 1.371 . S
C123 H126 0.931 . S
C124 C120 1.391 . S
C124 C123 1.371 . S
C124 H131 0.930 . S
H125 C122 0.928 . S
H126 C123 0.931 . S
H127 C103 0.930 . S
H128 C100 0.930 . S
H129 C109 0.930 . S
H130 C121 0.929 . S
H131 C124 0.930 . S
C132 C133 1.351 . S
C132 N135 1.368 . S
C132 H137 0.931 . S
C133 C132 1.351 . S
C133 N134 1.373 . S
C133 H161 0.930 . S
N134 C133 1.373 . S
N134 C136 1.340 . S
N135 C132 1.368 . S
N135 C136 1.321 . S
N135 Co138 2.135 . S
C136 N134 1.340 . S
C136 N135 1.321 . S
C136 H160 0.930 . S
H137 C132 0.931 . S
Co138 N135 2.135 . S
Co138 N141 2.121 . S
Co138 O146 2.055 . S
Co138 O149 2.039 . S
Co138 N152 2.140 . S
C139 O140 1.227 . S
C139 O149 1.265 . S
O140 C139 1.227 . S
N141 Co138 2.121 . S
N141 C143 1.375 . S
N141 C144 1.313 . S
C142 C143 1.338 . S
C142 N145 1.377 . S
C142 H162 0.930 . S
C143 N141 1.375 . S
C143 C142 1.338 . S
C143 H147 0.931 . S
C144 N141 1.313 . S
C144 N145 1.344 . S
C144 H148 0.930 . S
N145 C142 1.377 . S
N145 C144 1.344 . S
O146 Co138 2.055 . S
O146 C150 1.253 . S
H147 C143 0.931 . S
H148 C144 0.930 . S
O149 Co138 2.039 . S
O149 C139 1.265 . S
C150 O146 1.253 . S
C150 O151 1.227 . S
O151 C150 1.227 . S
N152 Co138 2.140 . S
N152 C155 1.346 . S
N152 C156 1.345 . S
C153 C154 1.387 . S
C153 C157 1.391 . S
C154 C153 1.387 . S
C154 C155 1.369 . S
C154 H163 0.929 . S
C155 N152 1.346 . S
C155 C154 1.369 . S
C155 H158 0.928 . S
C156 N152 1.345 . S
C156 C157 1.371 . S
C156 H159 0.931 . S
C157 C153 1.391 . S
C157 C156 1.371 . S
C157 H164 0.930 . S
H158 C155 0.928 . S
H159 C156 0.931 . S
H160 C136 0.930 . S
H161 C133 0.930 . S
H162 C142 0.930 . S
H163 C154 0.929 . S
H164 C157 0.930 . S
C165 C166 1.351 1_565 S
C165 N168 1.368 . S
C165 H170 0.931 1_565 S
C166 C165 1.351 1_545 S
C166 N167 1.373 1_545 S
C166 H194 0.930 . S
N167 C166 1.373 1_565 S
N167 C169 1.340 . S
N168 C165 1.368 . S
N168 C169 1.321 . S
N168 Co171 2.135 . S
C169 N167 1.340 . S
C169 N168 1.321 . S
C169 H193 0.930 . S
H170 C165 0.931 1_545 S
Co171 N168 2.135 . S
Co171 N174 2.121 . S
Co171 O179 2.055 . S
Co171 O182 2.039 . S
Co171 N185 2.140 . S
C172 O173 1.227 . S
C172 O182 1.265 . S
O173 C172 1.227 . S
N174 Co171 2.121 . S
N174 C176 1.375 . S
N174 C177 1.313 . S
C175 C176 1.338 . S
C175 N178 1.377 . S
C175 H195 0.930 . S
C176 N174 1.375 . S
C176 C175 1.338 . S
C176 H180 0.931 . S
C177 N174 1.313 . S
C177 N178 1.344 . S
C177 H181 0.930 . S
N178 C175 1.377 . S
N178 C177 1.344 . S
O179 Co171 2.055 . S
O179 C183 1.253 . S
H180 C176 0.931 . S
H181 C177 0.930 . S
O182 Co171 2.039 . S
O182 C172 1.265 . S
C183 O179 1.253 . S
C183 O184 1.227 . S
O184 C183 1.227 . S
N185 Co171 2.140 . S
N185 C188 1.346 . S
N185 C189 1.345 . S
C186 C187 1.387 . S
C186 C190 1.391 . S
C187 C186 1.387 . S
C187 C188 1.369 . S
C187 H196 0.929 . S
C188 N185 1.346 . S
C188 C187 1.369 . S
C188 H191 0.928 . S
C189 N185 1.345 . S
C189 C190 1.371 . S
C189 H192 0.931 . S
C190 C186 1.391 . S
C190 C189 1.371 . S
C190 H197 0.930 . S
H191 C188 0.928 . S
H192 C189 0.931 . S
H193 C169 0.930 . S
H194 C166 0.930 . S
H195 C175 0.930 . S
H196 C187 0.929 . S
H197 C190 0.930 . S
C198 C199 1.351 1_565 S
C198 N201 1.368 . S
C198 H203 0.931 1_565 S
C199 C198 1.351 1_545 S
C199 N200 1.373 1_545 S
C199 H227 0.930 . S
N200 C199 1.373 1_565 S
N200 C202 1.340 . S
N201 C198 1.368 . S
N201 C202 1.321 . S
N201 Co204 2.135 . S
C202 N200 1.340 . S
C202 N201 1.321 . S
C202 H226 0.930 . S
H203 C198 0.931 1_545 S
Co204 N201 2.135 . S
Co204 N207 2.121 . S
Co204 O212 2.055 . S
Co204 O215 2.039 . S
Co204 N218 2.140 . S
C205 O206 1.227 . S
C205 O215 1.265 . S
O206 C205 1.227 . S
N207 Co204 2.121 . S
N207 C209 1.375 . S
N207 C210 1.313 . S
C208 C209 1.338 . S
C208 N211 1.377 . S
C208 H228 0.930 . S
C209 N207 1.375 . S
C209 C208 1.338 . S
C209 H213 0.931 . S
C210 N207 1.313 . S
C210 N211 1.344 . S
C210 H214 0.930 . S
N211 C208 1.377 . S
N211 C210 1.344 . S
O212 Co204 2.055 . S
O212 C216 1.253 . S
H213 C209 0.931 . S
H214 C210 0.930 . S
O215 Co204 2.039 . S
O215 C205 1.265 . S
C216 O212 1.253 . S
C216 O217 1.227 . S
O217 C216 1.227 . S
N218 Co204 2.140 . S
N218 C221 1.346 . S
N218 C222 1.345 . S
C219 C220 1.387 . S
C219 C223 1.391 . S
C220 C219 1.387 . S
C220 C221 1.369 . S
C220 H229 0.929 . S
C221 N218 1.346 . S
C221 C220 1.369 . S
C221 H224 0.928 . S
C222 N218 1.345 . S
C222 C223 1.371 . S
C222 H225 0.931 . S
C223 C219 1.391 . S
C223 C222 1.371 . S
C223 H230 0.930 . S
H224 C221 0.928 . S
H225 C222 0.931 . S
H226 C202 0.930 . S
H227 C199 0.930 . S
H228 C208 0.930 . S
H229 C220 0.929 . S
H230 C223 0.930 . S
C231 C232 1.351 . S
C231 N234 1.368 . S
C231 H236 0.931 . S
C232 C231 1.351 . S
C232 N233 1.373 . S
C232 H260 0.930 . S
N233 C232 1.373 . S
N233 C235 1.340 . S
N234 C231 1.368 . S
N234 C235 1.321 . S
N234 Co237 2.135 . S
C235 N233 1.340 . S
C235 N234 1.321 . S
C235 H259 0.930 . S
H236 C231 0.931 . S
Co237 N234 2.135 . S
Co237 N240 2.121 . S
Co237 O245 2.055 . S
Co237 O248 2.039 . S
Co237 N251 2.140 . S
C238 O239 1.227 . S
C238 O248 1.265 . S
O239 C238 1.227 . S
N240 Co237 2.121 . S
N240 C242 1.375 . S
N240 C243 1.313 . S
C241 C242 1.338 . S
C241 N244 1.377 . S
C241 H261 0.930 . S
C242 N240 1.375 . S
C242 C241 1.338 . S
C242 H246 0.931 . S
C243 N240 1.313 . S
C243 N244 1.344 . S
C243 H247 0.930 . S
N244 C241 1.377 . S
N244 C243 1.344 . S
O245 Co237 2.055 . S
O245 C249 1.253 . S
H246 C242 0.931 . S
H247 C243 0.930 . S
O248 Co237 2.039 . S
O248 C238 1.265 . S
C249 O245 1.253 . S
C249 O250 1.227 . S
O250 C249 1.227 . S
N251 Co237 2.140 . S
N251 C254 1.346 . S
N251 C255 1.345 . S
C252 C253 1.387 . S
C252 C256 1.391 . S
C253 C252 1.387 . S
C253 C254 1.369 . S
C253 H262 0.929 . S
C254 N251 1.346 . S
C254 C253 1.369 . S
C254 H257 0.928 . S
C255 N251 1.345 . S
C255 C256 1.371 . S
C255 H258 0.931 . S
C256 C252 1.391 . S
C256 C255 1.371 . S
C256 H263 0.930 . S
H257 C254 0.928 . S
H258 C255 0.931 . S
H259 C235 0.930 . S
H260 C232 0.930 . S
H261 C241 0.930 . S
H262 C253 0.929 . S
H263 C256 0.930 . S
C264 C265 1.351 . S
C264 N267 1.368 . S
C264 H269 0.931 . S
C265 C264 1.351 . S
C265 N266 1.373 . S
C265 H293 0.930 . S
N266 C265 1.373 . S
N266 C268 1.340 . S
N267 C264 1.368 . S
N267 C268 1.321 . S
N267 Co270 2.135 . S
C268 N266 1.340 . S
C268 N267 1.321 . S
C268 H292 0.930 . S
H269 C264 0.931 . S
Co270 N267 2.135 . S
Co270 N273 2.121 . S
Co270 O278 2.055 . S
Co270 O281 2.039 . S
Co270 N284 2.140 . S
C271 O272 1.227 . S
C271 O281 1.265 . S
O272 C271 1.227 . S
N273 Co270 2.121 . S
N273 C275 1.375 . S
N273 C276 1.313 1_556 S
C274 C275 1.338 1_554 S
C274 N277 1.377 . S
C274 H294 0.930 . S
C275 N273 1.375 . S
C275 C274 1.338 1_556 S
C275 H279 0.931 . S
C276 N273 1.313 1_554 S
C276 N277 1.344 . S
C276 H280 0.930 . S
N277 C274 1.377 . S
N277 C276 1.344 . S
O278 Co270 2.055 . S
O278 C282 1.253 . S
H279 C275 0.931 . S
H280 C276 0.930 . S
O281 Co270 2.039 . S
O281 C271 1.265 . S
C282 O278 1.253 . S
C282 O283 1.227 . S
O283 C282 1.227 . S
N284 Co270 2.140 . S
N284 C287 1.346 . S
N284 C288 1.345 . S
C285 C286 1.387 . S
C285 C289 1.391 . S
C286 C285 1.387 . S
C286 C287 1.369 . S
C286 H295 0.929 . S
C287 N284 1.346 . S
C287 C286 1.369 . S
C287 H290 0.928 . S
C288 N284 1.345 . S
C288 C289 1.371 . S
C288 H291 0.931 . S
C289 C285 1.391 . S
C289 C288 1.371 . S
C289 H296 0.930 . S
H290 C287 0.928 . S
H291 C288 0.931 . S
H292 C268 0.930 . S
H293 C265 0.930 . S
H294 C274 0.930 . S
H295 C286 0.929 . S
H296 C289 0.930 . S
C297 C298 1.351 . S
C297 N300 1.368 . S
C297 H302 0.931 . S
C298 C297 1.351 . S
C298 N299 1.373 . S
C298 H326 0.930 . S
N299 C298 1.373 . S
N299 C301 1.340 . S
N300 C297 1.368 . S
N300 C301 1.321 . S
N300 Co303 2.135 . S
C301 N299 1.340 . S
C301 N300 1.321 . S
C301 H325 0.930 . S
H302 C297 0.931 . S
Co303 N300 2.135 . S
Co303 N306 2.121 . S
Co303 O311 2.055 . S
Co303 O314 2.039 . S
Co303 N317 2.140 . S
C304 O305 1.227 . S
C304 O314 1.265 . S
O305 C304 1.227 . S
N306 Co303 2.121 . S
N306 C308 1.375 . S
N306 C309 1.313 1_556 S
C307 C308 1.338 1_554 S
C307 N310 1.377 . S
C307 H327 0.930 . S
C308 N306 1.375 . S
C308 C307 1.338 1_556 S
C308 H312 0.931 . S
C309 N306 1.313 1_554 S
C309 N310 1.344 . S
C309 H313 0.930 . S
N310 C307 1.377 . S
N310 C309 1.344 . S
O311 Co303 2.055 . S
O311 C315 1.253 . S
H312 C308 0.931 . S
H313 C309 0.930 . S
O314 Co303 2.039 . S
O314 C304 1.265 . S
C315 O311 1.253 . S
C315 O316 1.227 . S
O316 C315 1.227 . S
N317 Co303 2.140 . S
N317 C320 1.346 . S
N317 C321 1.345 . S
C318 C319 1.387 . S
C318 C322 1.391 . S
C319 C318 1.387 . S
C319 C320 1.369 . S
C319 H328 0.929 . S
C320 N317 1.346 . S
C320 C319 1.369 . S
C320 H323 0.928 . S
C321 N317 1.345 . S
C321 C322 1.371 . S
C321 H324 0.931 . S
C322 C318 1.391 . S
C322 C321 1.371 . S
C322 H329 0.930 . S
H323 C320 0.928 . S
H324 C321 0.931 . S
H325 C301 0.930 . S
H326 C298 0.930 . S
H327 C307 0.930 . S
H328 C319 0.929 . S
H329 C322 0.930 . S
C330 C331 1.351 . S
C330 N333 1.368 . S
C330 H335 0.931 . S
C331 C330 1.351 . S
C331 N332 1.373 . S
C331 H359 0.930 . S
N332 C331 1.373 . S
N332 C334 1.340 . S
N333 C330 1.368 . S
N333 C334 1.321 . S
N333 Co336 2.135 . S
C334 N332 1.340 . S
C334 N333 1.321 . S
C334 H358 0.930 . S
H335 C330 0.931 . S
Co336 N333 2.135 . S
Co336 N339 2.121 . S
Co336 O344 2.055 . S
Co336 O347 2.039 . S
Co336 N350 2.140 . S
C337 O338 1.227 . S
C337 O347 1.265 . S
O338 C337 1.227 . S
N339 Co336 2.121 . S
N339 C341 1.375 . S
N339 C342 1.313 . S
C340 C341 1.338 . S
C340 N343 1.377 . S
C340 H360 0.930 . S
C341 N339 1.375 . S
C341 C340 1.338 . S
C341 H345 0.931 . S
C342 N339 1.313 . S
C342 N343 1.344 . S
C342 H346 0.930 . S
N343 C340 1.377 . S
N343 C342 1.344 . S
O344 Co336 2.055 . S
O344 C348 1.253 . S
H345 C341 0.931 . S
H346 C342 0.930 . S
O347 Co336 2.039 . S
O347 C337 1.265 . S
C348 O344 1.253 . S
C348 O349 1.227 . S
O349 C348 1.227 . S
N350 Co336 2.140 . S
N350 C353 1.346 . S
N350 C354 1.345 . S
C351 C352 1.387 . S
C351 C355 1.391 . S
C352 C351 1.387 . S
C352 C353 1.369 . S
C352 H361 0.929 . S
C353 N350 1.346 . S
C353 C352 1.369 . S
C353 H356 0.928 . S
C354 N350 1.345 . S
C354 C355 1.371 . S
C354 H357 0.931 . S
C355 C351 1.391 . S
C355 C354 1.371 . S
C355 H362 0.930 . S
H356 C353 0.928 . S
H357 C354 0.931 . S
H358 C334 0.930 . S
H359 C331 0.930 . S
H360 C340 0.930 . S
H361 C352 0.929 . S
H362 C355 0.930 . S
C363 C364 1.351 . S
C363 N366 1.368 . S
C363 H368 0.931 . S
C364 C363 1.351 . S
C364 N365 1.373 . S
C364 H392 0.930 . S
N365 C364 1.373 . S
N365 C367 1.340 . S
N366 C363 1.368 . S
N366 C367 1.321 . S
N366 Co369 2.135 . S
C367 N365 1.340 . S
C367 N366 1.321 . S
C367 H391 0.930 . S
H368 C363 0.931 . S
Co369 N366 2.135 . S
Co369 N372 2.121 . S
Co369 O377 2.055 . S
Co369 O380 2.039 . S
Co369 N383 2.140 . S
C370 O371 1.227 . S
C370 O380 1.265 . S
O371 C370 1.227 . S
N372 Co369 2.121 . S
N372 C374 1.375 . S
N372 C375 1.313 . S
C373 C374 1.338 . S
C373 N376 1.377 . S
C373 H393 0.930 . S
C374 N372 1.375 . S
C374 C373 1.338 . S
C374 H378 0.931 . S
C375 N372 1.313 . S
C375 N376 1.344 . S
C375 H379 0.930 . S
N376 C373 1.377 . S
N376 C375 1.344 . S
O377 Co369 2.055 . S
O377 C381 1.253 . S
H378 C374 0.931 . S
H379 C375 0.930 . S
O380 Co369 2.039 . S
O380 C370 1.265 . S
C381 O377 1.253 . S
C381 O382 1.227 . S
O382 C381 1.227 . S
N383 Co369 2.140 . S
N383 C386 1.346 . S
N383 C387 1.345 . S
C384 C385 1.387 . S
C384 C388 1.391 . S
C385 C384 1.387 . S
C385 C386 1.369 . S
C385 H394 0.929 . S
C386 N383 1.346 . S
C386 C385 1.369 . S
C386 H389 0.928 . S
C387 N383 1.345 . S
C387 C388 1.371 . S
C387 H390 0.931 . S
C388 C384 1.391 . S
C388 C387 1.371 . S
C388 H395 0.930 . S
H389 C386 0.928 . S
H390 C387 0.931 . S
H391 C367 0.930 . S
H392 C364 0.930 . S
H393 C373 0.930 . S
H394 C385 0.929 . S
H395 C388 0.930 . S
C396 C397 1.351 . S
C396 N399 1.368 . S
C396 H401 0.931 . S
C397 C396 1.351 . S
C397 N398 1.373 . S
C397 H425 0.930 . S
N398 C397 1.373 . S
N398 C400 1.340 . S
N399 C396 1.368 . S
N399 C400 1.321 . S
N399 Co402 2.135 . S
C400 N398 1.340 . S
C400 N399 1.321 . S
C400 H424 0.930 . S
H401 C396 0.931 . S
Co402 N399 2.135 . S
Co402 N405 2.121 . S
Co402 O410 2.055 . S
Co402 O413 2.039 . S
Co402 N416 2.140 . S
C403 O404 1.227 . S
C403 O413 1.265 . S
O404 C403 1.227 . S
N405 Co402 2.121 . S
N405 C407 1.375 . S
N405 C408 1.313 1_554 S
C406 C407 1.338 1_556 S
C406 N409 1.377 . S
C406 H426 0.930 . S
C407 N405 1.375 . S
C407 C406 1.338 1_554 S
C407 H411 0.931 . S
C408 N405 1.313 1_556 S
C408 N409 1.344 . S
C408 H412 0.930 . S
N409 C406 1.377 . S
N409 C408 1.344 . S
O410 Co402 2.055 . S
O410 C414 1.253 . S
H411 C407 0.931 . S
H412 C408 0.930 . S
O413 Co402 2.039 . S
O413 C403 1.265 . S
C414 O410 1.253 . S
C414 O415 1.227 . S
O415 C414 1.227 . S
N416 Co402 2.140 . S
N416 C419 1.346 . S
N416 C420 1.345 . S
C417 C418 1.387 . S
C417 C421 1.391 . S
C418 C417 1.387 . S
C418 C419 1.369 . S
C418 H427 0.929 . S
C419 N416 1.346 . S
C419 C418 1.369 . S
C419 H422 0.928 . S
C420 N416 1.345 . S
C420 C421 1.371 . S
C420 H423 0.931 . S
C421 C417 1.391 . S
C421 C420 1.371 . S
C421 H428 0.930 . S
H422 C419 0.928 . S
H423 C420 0.931 . S
H424 C400 0.930 . S
H425 C397 0.930 . S
H426 C406 0.930 . S
H427 C418 0.929 . S
H428 C421 0.930 . S
C429 C430 1.351 . S
C429 N432 1.368 . S
C429 H434 0.931 . S
C430 C429 1.351 . S
C430 N431 1.373 . S
C430 H458 0.930 . S
N431 C430 1.373 . S
N431 C433 1.340 . S
N432 C429 1.368 . S
N432 C433 1.321 . S
N432 Co435 2.135 . S
C433 N431 1.340 . S
C433 N432 1.321 . S
C433 H457 0.930 . S
H434 C429 0.931 . S
Co435 N432 2.135 . S
Co435 N438 2.121 . S
Co435 O443 2.055 . S
Co435 O446 2.039 . S
Co435 N449 2.140 . S
C436 O437 1.227 . S
C436 O446 1.265 . S
O437 C436 1.227 . S
N438 Co435 2.121 . S
N438 C440 1.375 . S
N438 C441 1.313 1_554 S
C439 C440 1.338 1_556 S
C439 N442 1.377 . S
C439 H459 0.930 . S
C440 N438 1.375 . S
C440 C439 1.338 1_554 S
C440 H444 0.931 . S
C441 N438 1.313 1_556 S
C441 N442 1.344 . S
C441 H445 0.930 . S
N442 C439 1.377 . S
N442 C441 1.344 . S
O443 Co435 2.055 . S
O443 C447 1.253 . S
H444 C440 0.931 . S
H445 C441 0.930 . S
O446 Co435 2.039 . S
O446 C436 1.265 . S
C447 O443 1.253 . S
C447 O448 1.227 . S
O448 C447 1.227 . S
N449 Co435 2.140 . S
N449 C452 1.346 . S
N449 C453 1.345 . S
C450 C451 1.387 . S
C450 C454 1.391 . S
C451 C450 1.387 . S
C451 C452 1.369 . S
C451 H460 0.929 . S
C452 N449 1.346 . S
C452 C451 1.369 . S
C452 H455 0.928 . S
C453 N449 1.345 . S
C453 C454 1.371 . S
C453 H456 0.931 . S
C454 C450 1.391 . S
C454 C453 1.371 . S
C454 H461 0.930 . S
H455 C452 0.928 . S
H456 C453 0.931 . S
H457 C433 0.930 . S
H458 C430 0.930 . S
H459 C439 0.930 . S
H460 C451 0.929 . S
H461 C454 0.930 . S
C462 C463 1.351 . S
C462 N465 1.368 . S
C462 H467 0.931 . S
C463 C462 1.351 . S
C463 N464 1.373 . S
C463 H491 0.930 . S
N464 C463 1.373 . S
N464 C466 1.340 . S
N465 C462 1.368 . S
N465 C466 1.321 . S
N465 Co468 2.135 . S
C466 N464 1.340 . S
C466 N465 1.321 . S
C466 H490 0.930 . S
H467 C462 0.931 . S
Co468 N465 2.135 . S
Co468 N471 2.121 . S
Co468 O476 2.055 . S
Co468 O479 2.039 . S
Co468 N482 2.140 . S
C469 O470 1.227 . S
C469 O479 1.265 . S
O470 C469 1.227 . S
N471 Co468 2.121 . S
N471 C473 1.375 . S
N471 C474 1.313 . S
C472 C473 1.338 . S
C472 N475 1.377 . S
C472 H492 0.930 . S
C473 N471 1.375 . S
C473 C472 1.338 . S
C473 H477 0.931 . S
C474 N471 1.313 . S
C474 N475 1.344 . S
C474 H478 0.930 . S
N475 C472 1.377 . S
N475 C474 1.344 . S
O476 Co468 2.055 . S
O476 C480 1.253 . S
H477 C473 0.931 . S
H478 C474 0.930 . S
O479 Co468 2.039 . S
O479 C469 1.265 . S
C480 O476 1.253 . S
C480 O481 1.227 . S
O481 C480 1.227 . S
N482 Co468 2.140 . S
N482 C485 1.346 . S
N482 C486 1.345 . S
C483 C484 1.387 . S
C483 C487 1.391 . S
C484 C483 1.387 . S
C484 C485 1.369 . S
C484 H493 0.929 . S
C485 N482 1.346 . S
C485 C484 1.369 . S
C485 H488 0.928 . S
C486 N482 1.345 . S
C486 C487 1.371 . S
C486 H489 0.931 . S
C487 C483 1.391 . S
C487 C486 1.371 . S
C487 H494 0.930 . S
H488 C485 0.928 . S
H489 C486 0.931 . S
H490 C466 0.930 . S
H491 C463 0.930 . S
H492 C472 0.930 . S
H493 C484 0.929 . S
H494 C487 0.930 . S
C495 C496 1.351 . S
C495 N498 1.368 . S
C495 H500 0.931 . S
C496 C495 1.351 . S
C496 N497 1.373 . S
C496 H524 0.930 . S
N497 C496 1.373 . S
N497 C499 1.340 . S
N498 C495 1.368 . S
N498 C499 1.321 . S
N498 Co501 2.135 . S
C499 N497 1.340 . S
C499 N498 1.321 . S
C499 H523 0.930 . S
H500 C495 0.931 . S
Co501 N498 2.135 . S
Co501 N504 2.121 . S
Co501 O509 2.055 . S
Co501 O512 2.039 . S
Co501 N515 2.140 . S
C502 O503 1.227 . S
C502 O512 1.265 . S
O503 C502 1.227 . S
N504 Co501 2.121 . S
N504 C506 1.375 . S
N504 C507 1.313 . S
C505 C506 1.338 . S
C505 N508 1.377 . S
C505 H525 0.930 . S
C506 N504 1.375 . S
C506 C505 1.338 . S
C506 H510 0.931 . S
C507 N504 1.313 . S
C507 N508 1.344 . S
C507 H511 0.930 . S
N508 C505 1.377 . S
N508 C507 1.344 . S
O509 Co501 2.055 . S
O509 C513 1.253 . S
H510 C506 0.931 . S
H511 C507 0.930 . S
O512 Co501 2.039 . S
O512 C502 1.265 . S
C513 O509 1.253 . S
C513 O514 1.227 . S
O514 C513 1.227 . S
N515 Co501 2.140 . S
N515 C518 1.346 . S
N515 C519 1.345 . S
C516 C517 1.387 . S
C516 C520 1.391 . S
C517 C516 1.387 . S
C517 C518 1.369 . S
C517 H526 0.929 . S
C518 N515 1.346 . S
C518 C517 1.369 . S
C518 H521 0.928 . S
C519 N515 1.345 . S
C519 C520 1.371 . S
C519 H522 0.931 . S
C520 C516 1.391 . S
C520 C519 1.371 . S
C520 H527 0.930 . S
H521 C518 0.928 . S
H522 C519 0.931 . S
H523 C499 0.930 . S
H524 C496 0.930 . S
H525 C505 0.930 . S
H526 C517 0.929 . S
H527 C520 0.930 . S
C528 C529 1.351 . S
C528 N531 1.368 . S
C528 H533 0.931 . S
C529 C528 1.351 . S
C529 N530 1.373 . S
C529 H557 0.930 . S
N530 C529 1.373 . S
N530 C532 1.340 . S
N531 C528 1.368 . S
N531 C532 1.321 . S
N531 Co534 2.135 . S
C532 N530 1.340 . S
C532 N531 1.321 . S
C532 H556 0.930 . S
H533 C528 0.931 . S
Co534 N531 2.135 . S
Co534 N537 2.121 . S
Co534 O542 2.055 . S
Co534 O545 2.039 . S
Co534 N548 2.140 . S
C535 O536 1.227 . S
C535 O545 1.265 . S
O536 C535 1.227 . S
N537 Co534 2.121 . S
N537 C539 1.375 . S
N537 C540 1.313 1_556 S
C538 C539 1.338 1_554 S
C538 N541 1.377 . S
C538 H558 0.930 . S
C539 N537 1.375 . S
C539 C538 1.338 1_556 S
C539 H543 0.931 . S
C540 N537 1.313 1_554 S
C540 N541 1.344 . S
C540 H544 0.930 . S
N541 C538 1.377 . S
N541 C540 1.344 . S
O542 Co534 2.055 . S
O542 C546 1.253 . S
H543 C539 0.931 . S
H544 C540 0.930 . S
O545 Co534 2.039 . S
O545 C535 1.265 . S
C546 O542 1.253 . S
C546 O547 1.227 . S
O547 C546 1.227 . S
N548 Co534 2.140 . S
N548 C551 1.346 . S
N548 C552 1.345 . S
C549 C550 1.387 . S
C549 C553 1.391 . S
C550 C549 1.387 . S
C550 C551 1.369 . S
C550 H559 0.929 . S
C551 N548 1.346 . S
C551 C550 1.369 . S
C551 H554 0.928 . S
C552 N548 1.345 . S
C552 C553 1.371 . S
C552 H555 0.931 . S
C553 C549 1.391 . S
C553 C552 1.371 . S
C553 H560 0.930 . S
H554 C551 0.928 . S
H555 C552 0.931 . S
H556 C532 0.930 . S
H557 C529 0.930 . S
H558 C538 0.930 . S
H559 C550 0.929 . S
H560 C553 0.930 . S
C561 C562 1.351 1_545 S
C561 N564 1.368 . S
C561 H566 0.931 1_545 S
C562 C561 1.351 1_565 S
C562 N563 1.373 1_565 S
C562 H590 0.930 . S
N563 C562 1.373 1_545 S
N563 C565 1.340 . S
N564 C561 1.368 . S
N564 C565 1.321 . S
N564 Co567 2.135 . S
C565 N563 1.340 . S
C565 N564 1.321 . S
C565 H589 0.930 . S
H566 C561 0.931 1_565 S
Co567 N564 2.135 . S
Co567 N570 2.121 . S
Co567 O575 2.055 . S
Co567 O578 2.039 . S
Co567 N581 2.140 . S
C568 O569 1.227 . S
C568 O578 1.265 . S
O569 C568 1.227 . S
N570 Co567 2.121 . S
N570 C572 1.375 . S
N570 C573 1.313 1_556 S
C571 C572 1.338 1_554 S
C571 N574 1.377 . S
C571 H591 0.930 . S
C572 N570 1.375 . S
C572 C571 1.338 1_556 S
C572 H576 0.931 . S
C573 N570 1.313 1_554 S
C573 N574 1.344 . S
C573 H577 0.930 . S
N574 C571 1.377 . S
N574 C573 1.344 . S
O575 Co567 2.055 . S
O575 C579 1.253 . S
H576 C572 0.931 . S
H577 C573 0.930 . S
O578 Co567 2.039 . S
O578 C568 1.265 . S
C579 O575 1.253 . S
C579 O580 1.227 . S
O580 C579 1.227 . S
N581 Co567 2.140 . S
N581 C584 1.346 . S
N581 C585 1.345 . S
C582 C583 1.387 . S
C582 C586 1.391 . S
C583 C582 1.387 . S
C583 C584 1.369 . S
C583 H592 0.929 . S
C584 N581 1.346 . S
C584 C583 1.369 . S
C584 H587 0.928 . S
C585 N581 1.345 . S
C585 C586 1.371 . S
C585 H588 0.931 . S
C586 C582 1.391 . S
C586 C585 1.371 . S
C586 H593 0.930 . S
H587 C584 0.928 . S
H588 C585 0.931 . S
H589 C565 0.930 . S
H590 C562 0.930 . S
H591 C571 0.930 . S
H592 C583 0.929 . S
H593 C586 0.930 . S
C594 C595 1.351 1_545 S
C594 N597 1.368 . S
C594 H599 0.931 1_545 S
C595 C594 1.351 1_565 S
C595 N596 1.373 1_565 S
C595 H623 0.930 . S
N596 C595 1.373 1_545 S
N596 C598 1.340 . S
N597 C594 1.368 . S
N597 C598 1.321 . S
N597 Co600 2.135 . S
C598 N596 1.340 . S
C598 N597 1.321 . S
C598 H622 0.930 . S
H599 C594 0.931 1_565 S
Co600 N597 2.135 . S
Co600 N603 2.121 . S
Co600 O608 2.055 . S
Co600 O611 2.039 . S
Co600 N614 2.140 . S
C601 O602 1.227 . S
C601 O611 1.265 . S
O602 C601 1.227 . S
N603 Co600 2.121 . S
N603 C605 1.375 . S
N603 C606 1.313 . S
C604 C605 1.338 . S
C604 N607 1.377 . S
C604 H624 0.930 . S
C605 N603 1.375 . S
C605 C604 1.338 . S
C605 H609 0.931 . S
C606 N603 1.313 . S
C606 N607 1.344 . S
C606 H610 0.930 . S
N607 C604 1.377 . S
N607 C606 1.344 . S
O608 Co600 2.055 . S
O608 C612 1.253 . S
H609 C605 0.931 . S
H610 C606 0.930 . S
O611 Co600 2.039 . S
O611 C601 1.265 . S
C612 O608 1.253 . S
C612 O613 1.227 . S
O613 C612 1.227 . S
N614 Co600 2.140 . S
N614 C617 1.346 . S
N614 C618 1.345 . S
C615 C616 1.387 . S
C615 C619 1.391 . S
C616 C615 1.387 . S
C616 C617 1.369 . S
C616 H625 0.929 . S
C617 N614 1.346 . S
C617 C616 1.369 . S
C617 H620 0.928 . S
C618 N614 1.345 . S
C618 C619 1.371 . S
C618 H621 0.931 . S
C619 C615 1.391 . S
C619 C618 1.371 . S
C619 H626 0.930 . S
H620 C617 0.928 . S
H621 C618 0.931 . S
H622 C598 0.930 . S
H623 C595 0.930 . S
H624 C604 0.930 . S
H625 C616 0.929 . S
H626 C619 0.930 . S
C627 C628 1.351 . S
C627 N630 1.368 . S
C627 H632 0.931 . S
C628 C627 1.351 . S
C628 N629 1.373 . S
C628 H656 0.930 . S
N629 C628 1.373 . S
N629 C631 1.340 . S
N630 C627 1.368 . S
N630 C631 1.321 . S
N630 Co633 2.135 . S
C631 N629 1.340 . S
C631 N630 1.321 . S
C631 H655 0.930 . S
H632 C627 0.931 . S
Co633 N630 2.135 . S
Co633 N636 2.121 . S
Co633 O641 2.055 . S
Co633 O644 2.039 . S
Co633 N647 2.140 . S
C634 O635 1.227 . S
C634 O644 1.265 . S
O635 C634 1.227 . S
N636 Co633 2.121 . S
N636 C638 1.375 . S
N636 C639 1.313 . S
C637 C638 1.338 . S
C637 N640 1.377 . S
C637 H657 0.930 . S
C638 N636 1.375 . S
C638 C637 1.338 . S
C638 H642 0.931 . S
C639 N636 1.313 . S
C639 N640 1.344 . S
C639 H643 0.930 . S
N640 C637 1.377 . S
N640 C639 1.344 . S
O641 Co633 2.055 . S
O641 C645 1.253 . S
H642 C638 0.931 . S
H643 C639 0.930 . S
O644 Co633 2.039 . S
O644 C634 1.265 . S
C645 O641 1.253 . S
C645 O646 1.227 . S
O646 C645 1.227 . S
N647 Co633 2.140 . S
N647 C650 1.346 . S
N647 C651 1.345 . S
C648 C649 1.387 . S
C648 C652 1.391 . S
C649 C648 1.387 . S
C649 C650 1.369 . S
C649 H658 0.929 . S
C650 N647 1.346 . S
C650 C649 1.369 . S
C650 H653 0.928 . S
C651 N647 1.345 . S
C651 C652 1.371 . S
C651 H654 0.931 . S
C652 C648 1.391 . S
C652 C651 1.371 . S
C652 H659 0.930 . S
H653 C650 0.928 . S
H654 C651 0.931 . S
H655 C631 0.930 . S
H656 C628 0.930 . S
H657 C637 0.930 . S
H658 C649 0.929 . S
H659 C652 0.930 . S
C660 C661 1.351 . S
C660 N663 1.368 . S
C660 H665 0.931 . S
C661 C660 1.351 . S
C661 N662 1.373 . S
C661 H689 0.930 . S
N662 C661 1.373 . S
N662 C664 1.340 . S
N663 C660 1.368 . S
N663 C664 1.321 . S
N663 Co666 2.135 . S
C664 N662 1.340 . S
C664 N663 1.321 . S
C664 H688 0.930 . S
H665 C660 0.931 . S
Co666 N663 2.135 . S
Co666 N669 2.121 . S
Co666 O674 2.055 . S
Co666 O677 2.039 . S
Co666 N680 2.140 . S
C667 O668 1.227 . S
C667 O677 1.265 . S
O668 C667 1.227 . S
N669 Co666 2.121 . S
N669 C671 1.375 . S
N669 C672 1.313 1_554 S
C670 C671 1.338 1_556 S
C670 N673 1.377 . S
C670 H690 0.930 . S
C671 N669 1.375 . S
C671 C670 1.338 1_554 S
C671 H675 0.931 . S
C672 N669 1.313 1_556 S
C672 N673 1.344 . S
C672 H676 0.930 . S
N673 C670 1.377 . S
N673 C672 1.344 . S
O674 Co666 2.055 . S
O674 C678 1.253 . S
H675 C671 0.931 . S
H676 C672 0.930 . S
O677 Co666 2.039 . S
O677 C667 1.265 . S
C678 O674 1.253 . S
C678 O679 1.227 . S
O679 C678 1.227 . S
N680 Co666 2.140 . S
N680 C683 1.346 . S
N680 C684 1.345 . S
C681 C682 1.387 . S
C681 C685 1.391 . S
C682 C681 1.387 . S
C682 C683 1.369 . S
C682 H691 0.929 . S
C683 N680 1.346 . S
C683 C682 1.369 . S
C683 H686 0.928 . S
C684 N680 1.345 . S
C684 C685 1.371 . S
C684 H687 0.931 . S
C685 C681 1.391 . S
C685 C684 1.371 . S
C685 H692 0.930 . S
H686 C683 0.928 . S
H687 C684 0.931 . S
H688 C664 0.930 . S
H689 C661 0.930 . S
H690 C670 0.930 . S
H691 C682 0.929 . S
H692 C685 0.930 . S
C693 C694 1.351 1_565 S
C693 N696 1.368 . S
C693 H698 0.931 1_565 S
C694 C693 1.351 1_545 S
C694 N695 1.373 1_545 S
C694 H722 0.930 . S
N695 C694 1.373 1_565 S
N695 C697 1.340 . S
N696 C693 1.368 . S
N696 C697 1.321 . S
N696 Co699 2.135 . S
C697 N695 1.340 . S
C697 N696 1.321 . S
C697 H721 0.930 . S
H698 C693 0.931 1_545 S
Co699 N696 2.135 . S
Co699 N702 2.121 . S
Co699 O707 2.055 . S
Co699 O710 2.039 . S
Co699 N713 2.140 . S
C700 O701 1.227 . S
C700 O710 1.265 . S
O701 C700 1.227 . S
N702 Co699 2.121 . S
N702 C704 1.375 . S
N702 C705 1.313 1_554 S
C703 C704 1.338 1_556 S
C703 N706 1.377 . S
C703 H723 0.930 . S
C704 N702 1.375 . S
C704 C703 1.338 1_554 S
C704 H708 0.931 . S
C705 N702 1.313 1_556 S
C705 N706 1.344 . S
C705 H709 0.930 . S
N706 C703 1.377 . S
N706 C705 1.344 . S
O707 Co699 2.055 . S
O707 C711 1.253 . S
H708 C704 0.931 . S
H709 C705 0.930 . S
O710 Co699 2.039 . S
O710 C700 1.265 . S
C711 O707 1.253 . S
C711 O712 1.227 . S
O712 C711 1.227 . S
N713 Co699 2.140 . S
N713 C716 1.346 . S
N713 C717 1.345 . S
C714 C715 1.387 . S
C714 C718 1.391 . S
C715 C714 1.387 . S
C715 C716 1.369 . S
C715 H724 0.929 . S
C716 N713 1.346 . S
C716 C715 1.369 . S
C716 H719 0.928 . S
C717 N713 1.345 . S
C717 C718 1.371 . S
C717 H720 0.931 . S
C718 C714 1.391 . S
C718 C717 1.371 . S
C718 H725 0.930 . S
H719 C716 0.928 . S
H720 C717 0.931 . S
H721 C697 0.930 . S
H722 C694 0.930 . S
H723 C703 0.930 . S
H724 C715 0.929 . S
H725 C718 0.930 . S
C726 C727 1.351 1_565 S
C726 N729 1.368 . S
C726 H731 0.931 1_565 S
C727 C726 1.351 1_545 S
C727 N728 1.373 1_545 S
C727 H755 0.930 . S
N728 C727 1.373 1_565 S
N728 C730 1.340 . S
N729 C726 1.368 . S
N729 C730 1.321 . S
N729 Co732 2.135 . S
C730 N728 1.340 . S
C730 N729 1.321 . S
C730 H754 0.930 . S
H731 C726 0.931 1_545 S
Co732 N729 2.135 . S
Co732 N735 2.121 . S
Co732 O740 2.055 . S
Co732 O743 2.039 . S
Co732 N746 2.140 . S
C733 O734 1.227 . S
C733 O743 1.265 . S
O734 C733 1.227 . S
N735 Co732 2.121 . S
N735 C737 1.375 . S
N735 C738 1.313 . S
C736 C737 1.338 . S
C736 N739 1.377 . S
C736 H756 0.930 . S
C737 N735 1.375 . S
C737 C736 1.338 . S
C737 H741 0.931 . S
C738 N735 1.313 . S
C738 N739 1.344 . S
C738 H742 0.930 . S
N739 C736 1.377 . S
N739 C738 1.344 . S
O740 Co732 2.055 . S
O740 C744 1.253 . S
H741 C737 0.931 . S
H742 C738 0.930 . S
O743 Co732 2.039 . S
O743 C733 1.265 . S
C744 O740 1.253 . S
C744 O745 1.227 . S
O745 C744 1.227 . S
N746 Co732 2.140 . S
N746 C749 1.346 . S
N746 C750 1.345 . S
C747 C748 1.387 . S
C747 C751 1.391 . S
C748 C747 1.387 . S
C748 C749 1.369 . S
C748 H757 0.929 . S
C749 N746 1.346 . S
C749 C748 1.369 . S
C749 H752 0.928 . S
C750 N746 1.345 . S
C750 C751 1.371 . S
C750 H753 0.931 . S
C751 C747 1.391 . S
C751 C750 1.371 . S
C751 H758 0.930 . S
H752 C749 0.928 . S
H753 C750 0.931 . S
H754 C730 0.930 . S
H755 C727 0.930 . S
H756 C736 0.930 . S
H757 C748 0.929 . S
H758 C751 0.930 . S
C759 C760 1.351 . S
C759 N762 1.368 . S
C759 H764 0.931 . S
C760 C759 1.351 . S
C760 N761 1.373 . S
C760 H788 0.930 . S
N761 C760 1.373 . S
N761 C763 1.340 . S
N762 C759 1.368 . S
N762 C763 1.321 . S
N762 Co765 2.135 . S
C763 N761 1.340 . S
C763 N762 1.321 . S
C763 H787 0.930 . S
H764 C759 0.931 . S
Co765 N762 2.135 . S
Co765 N768 2.121 . S
Co765 O773 2.055 . S
Co765 O776 2.039 . S
Co765 N779 2.140 . S
C766 O767 1.227 . S
C766 O776 1.265 . S
O767 C766 1.227 . S
N768 Co765 2.121 . S
N768 C770 1.375 . S
N768 C771 1.313 . S
C769 C770 1.338 . S
C769 N772 1.377 . S
C769 H789 0.930 . S
C770 N768 1.375 . S
C770 C769 1.338 . S
C770 H774 0.931 . S
C771 N768 1.313 . S
C771 N772 1.344 . S
C771 H775 0.930 . S
N772 C769 1.377 . S
N772 C771 1.344 . S
O773 Co765 2.055 . S
O773 C777 1.253 . S
H774 C770 0.931 . S
H775 C771 0.930 . S
O776 Co765 2.039 . S
O776 C766 1.265 . S
C777 O773 1.253 . S
C777 O778 1.227 . S
O778 C777 1.227 . S
N779 Co765 2.140 . S
N779 C782 1.346 . S
N779 C783 1.345 . S
C780 C781 1.387 . S
C780 C784 1.391 . S
C781 C780 1.387 . S
C781 C782 1.369 . S
C781 H790 0.929 . S
C782 N779 1.346 . S
C782 C781 1.369 . S
C782 H785 0.928 . S
C783 N779 1.345 . S
C783 C784 1.371 . S
C783 H786 0.931 . S
C784 C780 1.391 . S
C784 C783 1.371 . S
C784 H791 0.930 . S
H785 C782 0.928 . S
H786 C783 0.931 . S
H787 C763 0.930 . S
H788 C760 0.930 . S
H789 C769 0.930 . S
H790 C781 0.929 . S
H791 C784 0.930 . S
C792 C793 1.351 . S
C792 N795 1.368 . S
C792 H797 0.931 . S
C793 C792 1.351 . S
C793 N794 1.373 . S
C793 H821 0.930 . S
N794 C793 1.373 . S
N794 C796 1.340 . S
N795 C792 1.368 . S
N795 C796 1.321 . S
N795 Co798 2.135 . S
C796 N794 1.340 . S
C796 N795 1.321 . S
C796 H820 0.930 . S
H797 C792 0.931 . S
Co798 N795 2.135 . S
Co798 N801 2.121 . S
Co798 O806 2.055 . S
Co798 O809 2.039 . S
Co798 N812 2.140 . S
C799 O800 1.227 . S
C799 O809 1.265 . S
O800 C799 1.227 . S
N801 Co798 2.121 . S
N801 C803 1.375 . S
N801 C804 1.313 . S
C802 C803 1.338 . S
C802 N805 1.377 . S
C802 H822 0.930 . S
C803 N801 1.375 . S
C803 C802 1.338 . S
C803 H807 0.931 . S
C804 N801 1.313 . S
C804 N805 1.344 . S
C804 H808 0.930 . S
N805 C802 1.377 . S
N805 C804 1.344 . S
O806 Co798 2.055 . S
O806 C810 1.253 . S
H807 C803 0.931 . S
H808 C804 0.930 . S
O809 Co798 2.039 . S
O809 C799 1.265 . S
C810 O806 1.253 . S
C810 O811 1.227 . S
O811 C810 1.227 . S
N812 Co798 2.140 . S
N812 C815 1.346 . S
N812 C816 1.345 . S
C813 C814 1.387 . S
C813 C817 1.391 . S
C814 C813 1.387 . S
C814 C815 1.369 . S
C814 H823 0.929 . S
C815 N812 1.346 . S
C815 C814 1.369 . S
C815 H818 0.928 . S
C816 N812 1.345 . S
C816 C817 1.371 . S
C816 H819 0.931 . S
C817 C813 1.391 . S
C817 C816 1.371 . S
C817 H824 0.930 . S
H818 C815 0.928 . S
H819 C816 0.931 . S
H820 C796 0.930 . S
H821 C793 0.930 . S
H822 C802 0.930 . S
H823 C814 0.929 . S
H824 C817 0.930 . S
C825 C826 1.351 . S
C825 N828 1.368 . S
C825 H830 0.931 . S
C826 C825 1.351 . S
C826 N827 1.373 . S
C826 H854 0.930 . S
N827 C826 1.373 . S
N827 C829 1.340 . S
N828 C825 1.368 . S
N828 C829 1.321 . S
N828 Co831 2.135 . S
C829 N827 1.340 . S
C829 N828 1.321 . S
C829 H853 0.930 . S
H830 C825 0.931 . S
Co831 N828 2.135 . S
Co831 N834 2.121 . S
Co831 O839 2.055 . S
Co831 O842 2.039 . S
Co831 N845 2.140 . S
C832 O833 1.227 . S
C832 O842 1.265 . S
O833 C832 1.227 . S
N834 Co831 2.121 . S
N834 C836 1.375 . S
N834 C837 1.313 . S
C835 C836 1.338 . S
C835 N838 1.377 . S
C835 H855 0.930 . S
C836 N834 1.375 . S
C836 C835 1.338 . S
C836 H840 0.931 . S
C837 N834 1.313 . S
C837 N838 1.344 . S
C837 H841 0.930 . S
N838 C835 1.377 . S
N838 C837 1.344 . S
O839 Co831 2.055 . S
O839 C843 1.253 . S
H840 C836 0.931 . S
H841 C837 0.930 . S
O842 Co831 2.039 . S
O842 C832 1.265 . S
C843 O839 1.253 . S
C843 O844 1.227 . S
O844 C843 1.227 . S
N845 Co831 2.140 . S
N845 C848 1.346 . S
N845 C849 1.345 . S
C846 C847 1.387 . S
C846 C850 1.391 . S
C847 C846 1.387 . S
C847 C848 1.369 . S
C847 H856 0.929 . S
C848 N845 1.346 . S
C848 C847 1.369 . S
C848 H851 0.928 . S
C849 N845 1.345 . S
C849 C850 1.371 . S
C849 H852 0.931 . S
C850 C846 1.391 . S
C850 C849 1.371 . S
C850 H857 0.930 . S
H851 C848 0.928 . S
H852 C849 0.931 . S
H853 C829 0.930 . S
H854 C826 0.930 . S
H855 C835 0.930 . S
H856 C847 0.929 . S
H857 C850 0.930 . S
C858 C859 1.351 . S
C858 N861 1.368 . S
C858 H863 0.931 . S
C859 C858 1.351 . S
C859 N860 1.373 . S
C859 H887 0.930 . S
N860 C859 1.373 . S
N860 C862 1.340 . S
N861 C858 1.368 . S
N861 C862 1.321 . S
N861 Co864 2.135 . S
C862 N860 1.340 . S
C862 N861 1.321 . S
C862 H886 0.930 . S
H863 C858 0.931 . S
Co864 N861 2.135 . S
Co864 N867 2.121 . S
Co864 O872 2.055 . S
Co864 O875 2.039 . S
Co864 N878 2.140 . S
C865 O866 1.227 . S
C865 O875 1.265 . S
O866 C865 1.227 . S
N867 Co864 2.121 . S
N867 C869 1.375 . S
N867 C870 1.313 . S
C868 C869 1.338 . S
C868 N871 1.377 . S
C868 H888 0.930 . S
C869 N867 1.375 . S
C869 C868 1.338 . S
C869 H873 0.931 . S
C870 N867 1.313 . S
C870 N871 1.344 . S
C870 H874 0.930 . S
N871 C868 1.377 . S
N871 C870 1.344 . S
O872 Co864 2.055 . S
O872 C876 1.253 . S
H873 C869 0.931 . S
H874 C870 0.930 . S
O875 Co864 2.039 . S
O875 C865 1.265 . S
C876 O872 1.253 . S
C876 O877 1.227 . S
O877 C876 1.227 . S
N878 Co864 2.140 . S
N878 C881 1.346 . S
N878 C882 1.345 . S
C879 C880 1.387 . S
C879 C883 1.391 . S
C880 C879 1.387 . S
C880 C881 1.369 . S
C880 H889 0.929 . S
C881 N878 1.346 . S
C881 C880 1.369 . S
C881 H884 0.928 . S
C882 N878 1.345 . S
C882 C883 1.371 . S
C882 H885 0.931 . S
C883 C879 1.391 . S
C883 C882 1.371 . S
C883 H890 0.930 . S
H884 C881 0.928 . S
H885 C882 0.931 . S
H886 C862 0.930 . S
H887 C859 0.930 . S
H888 C868 0.930 . S
H889 C880 0.929 . S
H890 C883 0.930 . S
C891 C892 1.351 . S
C891 N894 1.368 . S
C891 H896 0.931 . S
C892 C891 1.351 . S
C892 N893 1.373 . S
C892 H920 0.930 . S
N893 C892 1.373 . S
N893 C895 1.340 . S
N894 C891 1.368 . S
N894 C895 1.321 . S
N894 Co897 2.135 . S
C895 N893 1.340 . S
C895 N894 1.321 . S
C895 H919 0.930 . S
H896 C891 0.931 . S
Co897 N894 2.135 . S
Co897 N900 2.121 . S
Co897 O905 2.055 . S
Co897 O908 2.039 . S
Co897 N911 2.140 . S
C898 O899 1.227 . S
C898 O908 1.265 . S
O899 C898 1.227 . S
N900 Co897 2.121 . S
N900 C902 1.375 . S
N900 C903 1.313 . S
C901 C902 1.338 . S
C901 N904 1.377 . S
C901 H921 0.930 . S
C902 N900 1.375 . S
C902 C901 1.338 . S
C902 H906 0.931 . S
C903 N900 1.313 . S
C903 N904 1.344 . S
C903 H907 0.930 . S
N904 C901 1.377 . S
N904 C903 1.344 . S
O905 Co897 2.055 . S
O905 C909 1.253 . S
H906 C902 0.931 . S
H907 C903 0.930 . S
O908 Co897 2.039 . S
O908 C898 1.265 . S
C909 O905 1.253 . S
C909 O910 1.227 . S
O910 C909 1.227 . S
N911 Co897 2.140 . S
N911 C914 1.346 . S
N911 C915 1.345 . S
C912 C913 1.387 . S
C912 C916 1.391 . S
C913 C912 1.387 . S
C913 C914 1.369 . S
C913 H922 0.929 . S
C914 N911 1.346 . S
C914 C913 1.369 . S
C914 H917 0.928 . S
C915 N911 1.345 . S
C915 C916 1.371 . S
C915 H918 0.931 . S
C916 C912 1.391 . S
C916 C915 1.371 . S
C916 H923 0.930 . S
H917 C914 0.928 . S
H918 C915 0.931 . S
H919 C895 0.930 . S
H920 C892 0.930 . S
H921 C901 0.930 . S
H922 C913 0.929 . S
H923 C916 0.930 . S
C924 C925 1.351 . S
C924 N927 1.368 . S
C924 H929 0.931 . S
C925 C924 1.351 . S
C925 N926 1.373 . S
C925 H953 0.930 . S
N926 C925 1.373 . S
N926 C928 1.340 . S
N927 C924 1.368 . S
N927 C928 1.321 . S
N927 Co930 2.135 . S
C928 N926 1.340 . S
C928 N927 1.321 . S
C928 H952 0.930 . S
H929 C924 0.931 . S
Co930 N927 2.135 . S
Co930 N933 2.121 . S
Co930 O938 2.055 . S
Co930 O941 2.039 . S
Co930 N944 2.140 . S
C931 O932 1.227 . S
C931 O941 1.265 . S
O932 C931 1.227 . S
N933 Co930 2.121 . S
N933 C935 1.375 . S
N933 C936 1.313 . S
C934 C935 1.338 . S
C934 N937 1.377 . S
C934 H954 0.930 . S
C935 N933 1.375 . S
C935 C934 1.338 . S
C935 H939 0.931 . S
C936 N933 1.313 . S
C936 N937 1.344 . S
C936 H940 0.930 . S
N937 C934 1.377 . S
N937 C936 1.344 . S
O938 Co930 2.055 . S
O938 C942 1.253 . S
H939 C935 0.931 . S
H940 C936 0.930 . S
O941 Co930 2.039 . S
O941 C931 1.265 . S
C942 O938 1.253 . S
C942 O943 1.227 . S
O943 C942 1.227 . S
N944 Co930 2.140 . S
N944 C947 1.346 . S
N944 C948 1.345 . S
C945 C946 1.387 . S
C945 C949 1.391 . S
C946 C945 1.387 . S
C946 C947 1.369 . S
C946 H955 0.929 . S
C947 N944 1.346 . S
C947 C946 1.369 . S
C947 H950 0.928 . S
C948 N944 1.345 . S
C948 C949 1.371 . S
C948 H951 0.931 . S
C949 C945 1.391 . S
C949 C948 1.371 . S
C949 H956 0.930 . S
H950 C947 0.928 . S
H951 C948 0.931 . S
H952 C928 0.930 . S
H953 C925 0.930 . S
H954 C934 0.930 . S
H955 C946 0.929 . S
H956 C949 0.930 . S
C957 C958 1.351 . S
C957 N960 1.368 . S
C957 H962 0.931 . S
C958 C957 1.351 . S
C958 N959 1.373 . S
C958 H986 0.930 . S
N959 C958 1.373 . S
N959 C961 1.340 . S
N960 C957 1.368 . S
N960 C961 1.321 . S
N960 Co963 2.135 . S
C961 N959 1.340 . S
C961 N960 1.321 . S
C961 H985 0.930 . S
H962 C957 0.931 . S
Co963 N960 2.135 . S
Co963 N966 2.121 . S
Co963 O971 2.055 . S
Co963 O974 2.039 . S
Co963 N977 2.140 . S
C964 O965 1.227 . S
C964 O974 1.265 . S
O965 C964 1.227 . S
N966 Co963 2.121 . S
N966 C968 1.375 . S
N966 C969 1.313 . S
C967 C968 1.338 . S
C967 N970 1.377 . S
C967 H987 0.930 . S
C968 N966 1.375 . S
C968 C967 1.338 . S
C968 H972 0.931 . S
C969 N966 1.313 . S
C969 N970 1.344 . S
C969 H973 0.930 . S
N970 C967 1.377 . S
N970 C969 1.344 . S
O971 Co963 2.055 . S
O971 C975 1.253 . S
H972 C968 0.931 . S
H973 C969 0.930 . S
O974 Co963 2.039 . S
O974 C964 1.265 . S
C975 O971 1.253 . S
C975 O976 1.227 . S
O976 C975 1.227 . S
N977 Co963 2.140 . S
N977 C980 1.346 . S
N977 C981 1.345 . S
C978 C979 1.387 . S
C978 C982 1.391 . S
C979 C978 1.387 . S
C979 C980 1.369 . S
C979 H988 0.929 . S
C980 N977 1.346 . S
C980 C979 1.369 . S
C980 H983 0.928 . S
C981 N977 1.345 . S
C981 C982 1.371 . S
C981 H984 0.931 . S
C982 C978 1.391 . S
C982 C981 1.371 . S
C982 H989 0.930 . S
H983 C980 0.928 . S
H984 C981 0.931 . S
H985 C961 0.930 . S
H986 C958 0.930 . S
H987 C967 0.930 . S
H988 C979 0.929 . S
H989 C982 0.930 . S
C990 C991 1.351 . S
C990 N993 1.368 . S
C990 H995 0.931 . S
C991 C990 1.351 . S
C991 N992 1.373 . S
C991 H1019 0.930 . S
N992 C991 1.373 . S
N992 C994 1.340 . S
N993 C990 1.368 . S
N993 C994 1.321 . S
N993 Co996 2.135 . S
C994 N992 1.340 . S
C994 N993 1.321 . S
C994 H1018 0.930 . S
H995 C990 0.931 . S
Co996 N993 2.135 . S
Co996 N999 2.121 . S
Co996 O1004 2.055 . S
Co996 O1007 2.039 . S
Co996 N1010 2.140 . S
C997 O998 1.227 . S
C997 O1007 1.265 . S
O998 C997 1.227 . S
N999 Co996 2.121 . S
N999 C1001 1.375 . S
N999 C1002 1.313 . S
C1000 C1001 1.338 . S
C1000 N1003 1.377 . S
C1000 H1020 0.930 . S
C1001 N999 1.375 . S
C1001 C1000 1.338 . S
C1001 H1005 0.931 . S
C1002 N999 1.313 . S
C1002 N1003 1.344 . S
C1002 H1006 0.930 . S
N1003 C1000 1.377 . S
N1003 C1002 1.344 . S
O1004 Co996 2.055 . S
O1004 C1008 1.253 . S
H1005 C1001 0.931 . S
H1006 C1002 0.930 . S
O1007 Co996 2.039 . S
O1007 C997 1.265 . S
C1008 O1004 1.253 . S
C1008 O1009 1.227 . S
O1009 C1008 1.227 . S
N1010 Co996 2.140 . S
N1010 C1013 1.346 . S
N1010 C1014 1.345 . S
C1011 C1012 1.387 . S
C1011 C1015 1.391 . S
C1012 C1011 1.387 . S
C1012 C1013 1.369 . S
C1012 H1021 0.929 . S
C1013 N1010 1.346 . S
C1013 C1012 1.369 . S
C1013 H1016 0.928 . S
C1014 N1010 1.345 . S
C1014 C1015 1.371 . S
C1014 H1017 0.931 . S
C1015 C1011 1.391 . S
C1015 C1014 1.371 . S
C1015 H1022 0.930 . S
H1016 C1013 0.928 . S
H1017 C1014 0.931 . S
H1018 C994 0.930 . S
H1019 C991 0.930 . S
H1020 C1000 0.930 . S
H1021 C1012 0.929 . S
H1022 C1015 0.930 . S
C1023 C1024 1.351 . S
C1023 N1026 1.368 . S
C1023 H1028 0.931 . S
C1024 C1023 1.351 . S
C1024 N1025 1.373 . S
C1024 H1052 0.930 . S
N1025 C1024 1.373 . S
N1025 C1027 1.340 . S
N1026 C1023 1.368 . S
N1026 C1027 1.321 . S
N1026 Co1029 2.135 . S
C1027 N1025 1.340 . S
C1027 N1026 1.321 . S
C1027 H1051 0.930 . S
H1028 C1023 0.931 . S
Co1029 N1026 2.135 . S
Co1029 N1032 2.121 . S
Co1029 O1037 2.055 . S
Co1029 O1040 2.039 . S
Co1029 N1043 2.140 . S
C1030 O1031 1.227 . S
C1030 O1040 1.265 . S
O1031 C1030 1.227 . S
N1032 Co1029 2.121 . S
N1032 C1034 1.375 . S
N1032 C1035 1.313 . S
C1033 C1034 1.338 . S
C1033 N1036 1.377 . S
C1033 H1053 0.930 . S
C1034 N1032 1.375 . S
C1034 C1033 1.338 . S
C1034 H1038 0.931 . S
C1035 N1032 1.313 . S
C1035 N1036 1.344 . S
C1035 H1039 0.930 . S
N1036 C1033 1.377 . S
N1036 C1035 1.344 . S
O1037 Co1029 2.055 . S
O1037 C1041 1.253 . S
H1038 C1034 0.931 . S
H1039 C1035 0.930 . S
O1040 Co1029 2.039 . S
O1040 C1030 1.265 . S
C1041 O1037 1.253 . S
C1041 O1042 1.227 . S
O1042 C1041 1.227 . S
N1043 Co1029 2.140 . S
N1043 C1046 1.346 . S
N1043 C1047 1.345 . S
C1044 C1045 1.387 . S
C1044 C1048 1.391 . S
C1045 C1044 1.387 . S
C1045 C1046 1.369 . S
C1045 H1054 0.929 . S
C1046 N1043 1.346 . S
C1046 C1045 1.369 . S
C1046 H1049 0.928 . S
C1047 N1043 1.345 . S
C1047 C1048 1.371 . S
C1047 H1050 0.931 . S
C1048 C1044 1.391 . S
C1048 C1047 1.371 . S
C1048 H1055 0.930 . S
H1049 C1046 0.928 . S
H1050 C1047 0.931 . S
H1051 C1027 0.930 . S
H1052 C1024 0.930 . S
H1053 C1033 0.930 . S
H1054 C1045 0.929 . S
H1055 C1048 0.930 . S
C1056 C1057 1.363 1_455 S
C1056 C1062 1.379 . S
C1056 N1064 1.350 1_455 S
C1057 C1056 1.363 1_655 S
C1057 C1063 1.363 . S
C1058 C1059 1.363 1_655 S
C1058 C1063 1.379 . S
C1058 N1065 1.350 1_655 S
C1059 C1058 1.363 1_455 S
C1059 C1062 1.363 . S
N1060 C1062 1.356 . S
N1060 H1072 0.984 . S
N1060 H1073 0.985 . S
N1061 C1063 1.356 . S
N1061 H1066 0.984 . S
N1061 H1067 0.985 . S
C1062 C1056 1.379 . S
C1062 C1059 1.363 . S
C1062 N1060 1.356 . S
C1063 C1057 1.363 . S
C1063 C1058 1.379 . S
C1063 N1061 1.356 . S
N1064 C1056 1.350 1_655 S
N1064 H1070 0.954 1_655 S
N1064 H1071 1.023 . S
N1065 C1058 1.350 1_455 S
N1065 H1068 1.023 . S
N1065 H1069 0.954 1_455 S
H1066 N1061 0.984 . S
H1067 N1061 0.985 . S
H1068 N1065 1.023 . S
H1069 N1065 0.954 1_655 S
H1070 N1064 0.954 1_455 S
H1071 N1064 1.023 . S
H1072 N1060 0.984 . S
H1073 N1060 0.985 . S
C1074 C1075 1.363 . S
C1074 C1080 1.379 . S
C1074 N1082 1.356 . S
C1075 C1074 1.363 . S
C1075 C1081 1.363 1_565 S
C1076 C1077 1.363 . S
C1076 C1081 1.379 . S
C1076 N1083 1.356 . S
C1077 C1076 1.363 . S
C1077 C1080 1.363 1_545 S
N1078 C1080 1.356 . S
N1078 H1090 0.984 . S
N1078 H1091 0.985 . S
N1079 C1081 1.356 . S
N1079 H1084 0.984 . S
N1079 H1085 0.985 . S
C1080 C1074 1.379 . S
C1080 C1077 1.363 1_565 S
C1080 N1078 1.356 . S
C1081 C1075 1.363 1_545 S
C1081 C1076 1.379 . S
C1081 N1079 1.356 . S
N1082 C1074 1.356 . S
N1082 H1088 0.984 . S
N1082 H1089 0.984 . S
N1083 C1076 1.356 . S
N1083 H1086 0.984 . S
N1083 H1087 0.985 . S
H1084 N1079 0.984 . S
H1085 N1079 0.985 . S
H1086 N1083 0.984 . S
H1087 N1083 0.985 . S
H1088 N1082 0.984 . S
H1089 N1082 0.984 . S
H1090 N1078 0.984 . S
H1091 N1078 0.985 . S
C1092 C1093 1.363 1_455 S
C1092 C1098 1.379 1_554 S
C1092 N1100 1.356 . S
C1093 C1092 1.363 1_655 S
C1093 C1099 1.363 1_565 S
C1094 C1095 1.363 1_655 S
C1094 C1099 1.379 1_556 S
C1094 N1101 1.356 . S
C1095 C1094 1.363 1_455 S
C1095 C1098 1.363 1_545 S
N1096 C1098 1.356 . S
N1096 H1108 0.984 . S
N1096 H1109 0.985 . S
N1097 C1099 1.356 . S
N1097 H1102 0.984 . S
N1097 H1103 0.985 . S
C1098 C1092 1.379 1_556 S
C1098 C1095 1.363 1_565 S
C1098 N1096 1.356 . S
C1099 C1093 1.363 1_545 S
C1099 C1094 1.379 1_554 S
C1099 N1097 1.356 . S
N1100 C1092 1.356 . S
N1100 H1106 0.984 . S
N1100 H1107 0.984 1_455 S
N1101 C1094 1.356 . S
N1101 H1104 0.984 1_655 S
N1101 H1105 0.985 . S
H1102 N1097 0.984 . S
H1103 N1097 0.985 . S
H1104 N1101 0.984 1_455 S
H1105 N1101 0.985 . S
H1106 N1100 0.984 . S
H1107 N1100 0.984 1_655 S
H1108 N1096 0.984 . S
H1109 N1096 0.985 . S
C1110 C1111 1.363 . S
C1110 C1116 1.377 . S
C1110 N1118 1.356 . S
C1111 C1110 1.363 . S
C1111 C1117 1.365 1_554 S
C1112 C1113 1.363 . S
C1112 C1117 1.377 . S
C1112 N1119 1.356 . S
C1113 C1112 1.363 . S
C1113 C1116 1.365 1_556 S
N1114 C1116 1.357 1_556 S
N1114 H1126 0.984 1_556 S
N1114 H1127 0.985 . S
N1115 C1117 1.357 1_554 S
N1115 H1120 0.984 . S
N1115 H1121 0.985 1_554 S
C1116 C1110 1.377 . S
C1116 C1113 1.365 1_554 S
C1116 N1114 1.357 1_554 S
C1117 C1111 1.365 1_556 S
C1117 C1112 1.377 . S
C1117 N1115 1.357 1_556 S
N1118 C1110 1.356 . S
N1118 H1124 0.984 . S
N1118 H1125 0.984 . S
N1119 C1112 1.356 . S
N1119 H1122 0.984 . S
N1119 H1123 0.985 . S
H1120 N1115 0.984 . S
H1121 N1115 0.985 1_556 S
H1122 N1119 0.984 . S
H1123 N1119 0.985 . S
H1124 N1118 0.984 . S
H1125 N1118 0.984 . S
H1126 N1114 0.984 1_554 S
H1127 N1114 0.985 . S
C1128 C1129 1.363 . S
C1128 C1134 1.379 1_455 S
C1128 N1136 1.356 . S
C1129 C1128 1.363 . S
C1129 C1135 1.363 . S
C1130 C1131 1.363 . S
C1130 C1135 1.379 1_655 S
C1130 N1137 1.356 . S
C1131 C1130 1.363 . S
C1131 C1134 1.363 . S
N1132 C1134 1.356 . S
N1132 H1144 0.984 . S
N1132 H1145 0.985 . S
N1133 C1135 1.356 . S
N1133 H1138 0.984 . S
N1133 H1139 0.985 . S
C1134 C1128 1.379 1_655 S
C1134 C1131 1.363 . S
C1134 N1132 1.356 . S
C1135 C1129 1.363 . S
C1135 C1130 1.379 1_455 S
C1135 N1133 1.356 . S
N1136 C1128 1.356 . S
N1136 H1142 0.984 . S
N1136 H1143 0.984 . S
N1137 C1130 1.356 . S
N1137 H1140 0.984 . S
N1137 H1141 0.985 . S
H1138 N1133 0.984 . S
H1139 N1133 0.985 . S
H1140 N1137 0.984 . S
H1141 N1137 0.985 . S
H1142 N1136 0.984 . S
H1143 N1136 0.984 . S
H1144 N1132 0.984 . S
H1145 N1132 0.985 . S
C1146 C1147 1.363 . S
C1146 C1152 1.379 . S
C1146 N1154 1.356 . S
C1147 C1146 1.363 . S
C1147 C1153 1.363 1_545 S
C1148 C1149 1.363 . S
C1148 C1153 1.379 . S
C1148 N1155 1.356 . S
C1149 C1148 1.363 . S
C1149 C1152 1.363 1_565 S
N1150 C1152 1.356 . S
N1150 H1162 0.984 . S
N1150 H1163 0.985 . S
N1151 C1153 1.356 . S
N1151 H1156 0.984 . S
N1151 H1157 0.985 . S
C1152 C1146 1.379 . S
C1152 C1149 1.363 1_545 S
C1152 N1150 1.356 . S
C1153 C1147 1.363 1_565 S
C1153 C1148 1.379 . S
C1153 N1151 1.356 . S
N1154 C1146 1.356 . S
N1154 H1160 0.984 . S
N1154 H1161 0.984 . S
N1155 C1148 1.356 . S
N1155 H1158 0.984 . S
N1155 H1159 0.985 . S
H1156 N1151 0.984 . S
H1157 N1151 0.985 . S
H1158 N1155 0.984 . S
H1159 N1155 0.985 . S
H1160 N1154 0.984 . S
H1161 N1154 0.984 . S
H1162 N1150 0.984 . S
H1163 N1150 0.985 . S
C1164 C1165 1.363 . S
C1164 C1170 1.379 1_554 S
C1164 N1172 1.356 . S
C1165 C1164 1.363 . S
C1165 C1171 1.363 . S
C1166 C1167 1.362 . S
C1166 C1171 1.380 1_556 S
C1166 N1173 1.356 . S
C1167 C1166 1.362 . S
C1167 C1170 1.363 . S
N1168 C1170 1.356 . S
N1168 H1180 0.984 . S
N1168 H1181 0.985 . S
N1169 C1171 1.356 . S
N1169 H1174 0.984 . S
N1169 H1175 0.985 . S
C1170 C1164 1.379 1_556 S
C1170 C1167 1.363 . S
C1170 N1168 1.356 . S
C1171 C1165 1.363 . S
C1171 C1166 1.380 1_554 S
C1171 N1169 1.356 . S
N1172 C1164 1.356 . S
N1172 H1178 0.984 1_554 S
N1172 H1179 0.984 . S
N1173 C1166 1.356 . S
N1173 H1176 0.984 . S
N1173 H1177 0.985 1_556 S
H1174 N1169 0.984 . S
H1175 N1169 0.985 . S
H1176 N1173 0.984 . S
H1177 N1173 0.985 1_554 S
H1178 N1172 0.984 1_556 S
H1179 N1172 0.984 . S
H1180 N1168 0.984 . S
H1181 N1168 0.985 . S
C1182 C1183 1.363 . S
C1182 C1188 1.379 . S
C1182 N1190 1.356 . S
C1183 C1182 1.363 . S
C1183 C1189 1.363 . S
C1184 C1185 1.363 . S
C1184 C1189 1.379 . S
C1184 N1191 1.356 . S
C1185 C1184 1.363 . S
C1185 C1188 1.363 . S
N1186 C1188 1.356 . S
N1186 H1198 0.984 . S
N1186 H1199 0.985 . S
N1187 C1189 1.356 . S
N1187 H1192 0.984 . S
N1187 H1193 0.985 . S
C1188 C1182 1.379 . S
C1188 C1185 1.363 . S
C1188 N1186 1.356 . S
C1189 C1183 1.363 . S
C1189 C1184 1.379 . S
C1189 N1187 1.356 . S
N1190 C1182 1.356 . S
N1190 H1196 0.984 . S
N1190 H1197 0.984 . S
N1191 C1184 1.356 . S
N1191 H1194 0.984 . S
N1191 H1195 0.985 . S
H1192 N1187 0.984 . S
H1193 N1187 0.985 . S
H1194 N1191 0.984 . S
H1195 N1191 0.985 . S
H1196 N1190 0.984 . S
H1197 N1190 0.984 . S
H1198 N1186 0.984 . S
H1199 N1186 0.985 . S
C1200 C1201 1.363 1_455 S
C1200 C1206 1.379 . S
C1200 N1208 1.350 1_455 S
C1201 C1200 1.363 1_655 S
C1201 C1207 1.363 . S
C1202 C1203 1.363 1_655 S
C1202 C1207 1.379 . S
C1202 N1209 1.350 1_655 S
C1203 C1202 1.363 1_455 S
C1203 C1206 1.363 . S
N1204 C1206 1.356 . S
N1204 H1216 0.984 . S
N1204 H1217 0.985 . S
N1205 C1207 1.356 . S
N1205 H1210 0.984 . S
N1205 H1211 0.985 . S
C1206 C1200 1.379 . S
C1206 C1203 1.363 . S
C1206 N1204 1.356 . S
C1207 C1201 1.363 . S
C1207 C1202 1.379 . S
C1207 N1205 1.356 . S
N1208 C1200 1.350 1_655 S
N1208 H1214 0.953 1_655 S
N1208 H1215 1.025 . S
N1209 C1202 1.350 1_455 S
N1209 H1212 1.025 . S
N1209 H1213 0.953 1_455 S
H1210 N1205 0.984 . S
H1211 N1205 0.985 . S
H1212 N1209 1.025 . S
H1213 N1209 0.953 1_655 S
H1214 N1208 0.953 1_455 S
H1215 N1208 1.025 . S
H1216 N1204 0.984 . S
H1217 N1204 0.985 . S
C1218 C1219 1.363 . S
C1218 C1224 1.379 . S
C1218 N1226 1.356 . S
C1219 C1218 1.363 . S
C1219 C1225 1.363 . S
C1220 C1221 1.363 . S
C1220 C1225 1.379 . S
C1220 N1227 1.356 . S
C1221 C1220 1.363 . S
C1221 C1224 1.363 . S
N1222 C1224 1.356 . S
N1222 H1234 0.984 . S
N1222 H1235 0.985 . S
N1223 C1225 1.356 . S
N1223 H1228 0.984 . S
N1223 H1229 0.985 . S
C1224 C1218 1.379 . S
C1224 C1221 1.363 . S
C1224 N1222 1.356 . S
C1225 C1219 1.363 . S
C1225 C1220 1.379 . S
C1225 N1223 1.356 . S
N1226 C1218 1.356 . S
N1226 H1232 0.984 . S
N1226 H1233 0.984 . S
N1227 C1220 1.356 . S
N1227 H1230 0.984 . S
N1227 H1231 0.985 . S
H1228 N1223 0.984 . S
H1229 N1223 0.985 . S
H1230 N1227 0.984 . S
H1231 N1227 0.985 . S
H1232 N1226 0.984 . S
H1233 N1226 0.984 . S
H1234 N1222 0.984 . S
H1235 N1222 0.985 . S
C1236 C1237 1.363 . S
C1236 C1242 1.379 . S
C1236 N1244 1.356 . S
C1237 C1236 1.363 . S
C1237 C1243 1.363 . S
C1238 C1239 1.363 . S
C1238 C1243 1.379 . S
C1238 N1245 1.356 . S
C1239 C1238 1.363 . S
C1239 C1242 1.363 . S
N1240 C1242 1.356 . S
N1240 H1252 0.984 . S
N1240 H1253 0.985 . S
N1241 C1243 1.356 . S
N1241 H1246 0.984 . S
N1241 H1247 0.985 . S
C1242 C1236 1.379 . S
C1242 C1239 1.363 . S
C1242 N1240 1.356 . S
C1243 C1237 1.363 . S
C1243 C1238 1.379 . S
C1243 N1241 1.356 . S
N1244 C1236 1.356 . S
N1244 H1250 0.984 . S
N1244 H1251 0.984 . S
N1245 C1238 1.356 . S
N1245 H1248 0.984 . S
N1245 H1249 0.985 . S
H1246 N1241 0.984 . S
H1247 N1241 0.985 . S
H1248 N1245 0.984 . S
H1249 N1245 0.985 . S
H1250 N1244 0.984 . S
H1251 N1244 0.984 . S
H1252 N1240 0.984 . S
H1253 N1240 0.985 . S
C1254 C1255 1.363 . S
C1254 C1260 1.379 . S
C1254 N1262 1.356 . S
C1255 C1254 1.363 . S
C1255 C1261 1.363 . S
C1256 C1257 1.363 . S
C1256 C1261 1.379 . S
C1256 N1263 1.356 . S
C1257 C1256 1.363 . S
C1257 C1260 1.363 . S
N1258 C1260 1.356 . S
N1258 H1270 0.984 . S
N1258 H1271 0.985 . S
N1259 C1261 1.356 . S
N1259 H1264 0.984 . S
N1259 H1265 0.985 . S
C1260 C1254 1.379 . S
C1260 C1257 1.363 . S
C1260 N1258 1.356 . S
C1261 C1255 1.363 . S
C1261 C1256 1.379 . S
C1261 N1259 1.356 . S
N1262 C1254 1.356 . S
N1262 H1268 0.984 . S
N1262 H1269 0.984 . S
N1263 C1256 1.356 . S
N1263 H1266 0.984 . S
N1263 H1267 0.985 . S
H1264 N1259 0.984 . S
H1265 N1259 0.985 . S
H1266 N1263 0.984 . S
H1267 N1263 0.985 . S
H1268 N1262 0.984 . S
H1269 N1262 0.984 . S
H1270 N1258 0.984 . S
H1271 N1258 0.985 . S
C1272 C1273 1.363 . S
C1272 C1278 1.379 . S
C1272 N1280 1.356 . S
C1273 C1272 1.363 . S
C1273 C1279 1.363 . S
C1274 C1275 1.363 . S
C1274 C1279 1.379 . S
C1274 N1281 1.356 . S
C1275 C1274 1.363 . S
C1275 C1278 1.363 . S
N1276 C1278 1.356 . S
N1276 H1288 0.984 . S
N1276 H1289 0.985 . S
N1277 C1279 1.356 . S
N1277 H1282 0.984 . S
N1277 H1283 0.985 . S
C1278 C1272 1.379 . S
C1278 C1275 1.363 . S
C1278 N1276 1.356 . S
C1279 C1273 1.363 . S
C1279 C1274 1.379 . S
C1279 N1277 1.356 . S
N1280 C1272 1.356 . S
N1280 H1286 0.984 . S
N1280 H1287 0.984 . S
N1281 C1274 1.356 . S
N1281 H1284 0.984 . S
N1281 H1285 0.985 . S
H1282 N1277 0.984 . S
H1283 N1277 0.985 . S
H1284 N1281 0.984 . S
H1285 N1281 0.985 . S
H1286 N1280 0.984 . S
H1287 N1280 0.984 . S
H1288 N1276 0.984 . S
H1289 N1276 0.985 . S
C1290 C1291 1.363 1_545 S
C1290 C1296 1.379 . S
C1290 N1298 1.356 . S
C1291 C1290 1.363 1_565 S
C1291 C1297 1.363 . S
C1292 C1293 1.363 1_565 S
C1292 C1297 1.379 . S
C1292 N1299 1.356 . S
C1293 C1292 1.363 1_545 S
C1293 C1296 1.363 . S
N1294 C1296 1.356 . S
N1294 H1306 0.984 . S
N1294 H1307 0.985 . S
N1295 C1297 1.356 . S
N1295 H1300 0.984 . S
N1295 H1301 0.985 . S
C1296 C1290 1.379 . S
C1296 C1293 1.363 . S
C1296 N1294 1.356 . S
C1297 C1291 1.363 . S
C1297 C1292 1.379 . S
C1297 N1295 1.356 . S
N1298 C1290 1.356 . S
N1298 H1304 0.984 . S
N1298 H1305 0.984 . S
N1299 C1292 1.356 . S
N1299 H1302 0.984 . S
N1299 H1303 0.985 . S
H1300 N1295 0.984 . S
H1301 N1295 0.985 . S
H1302 N1299 0.984 . S
H1303 N1299 0.985 . S
H1304 N1298 0.984 . S
H1305 N1298 0.984 . S
H1306 N1294 0.984 . S
H1307 N1294 0.985 . S
C1308 C1309 1.363 . S
C1308 C1314 1.379 . S
C1308 N1316 1.356 . S
C1309 C1308 1.363 . S
C1309 C1315 1.363 . S
C1310 C1311 1.363 . S
C1310 C1315 1.379 . S
C1310 N1317 1.356 . S
C1311 C1310 1.363 . S
C1311 C1314 1.363 . S
N1312 C1314 1.356 . S
N1312 H1324 0.984 . S
N1312 H1325 0.985 . S
N1313 C1315 1.356 . S
N1313 H1318 0.984 . S
N1313 H1319 0.985 . S
C1314 C1308 1.379 . S
C1314 C1311 1.363 . S
C1314 N1312 1.356 . S
C1315 C1309 1.363 . S
C1315 C1310 1.379 . S
C1315 N1313 1.356 . S
N1316 C1308 1.356 . S
N1316 H1322 0.984 . S
N1316 H1323 0.984 . S
N1317 C1310 1.356 . S
N1317 H1320 0.984 . S
N1317 H1321 0.985 . S
H1318 N1313 0.984 . S
H1319 N1313 0.985 . S
H1320 N1317 0.984 . S
H1321 N1317 0.985 . S
H1322 N1316 0.984 . S
H1323 N1316 0.984 . S
H1324 N1312 0.984 . S
H1325 N1312 0.985 . S
C1326 C1327 1.363 . S
C1326 C1332 1.379 1_554 S
C1326 N1334 1.356 . S
C1327 C1326 1.363 . S
C1327 C1333 1.363 . S
C1328 C1329 1.363 . S
C1328 C1333 1.379 1_556 S
C1328 N1335 1.356 . S
C1329 C1328 1.363 . S
C1329 C1332 1.363 . S
N1330 C1332 1.356 . S
N1330 H1342 0.984 . S
N1330 H1343 0.985 . S
N1331 C1333 1.356 . S
N1331 H1336 0.984 . S
N1331 H1337 0.985 . S
C1332 C1326 1.379 1_556 S
C1332 C1329 1.363 . S
C1332 N1330 1.356 . S
C1333 C1327 1.363 . S
C1333 C1328 1.379 1_554 S
C1333 N1331 1.356 . S
N1334 C1326 1.356 . S
N1334 H1340 0.984 . S
N1334 H1341 0.984 . S
N1335 C1328 1.356 . S
N1335 H1338 0.984 . S
N1335 H1339 0.985 . S
H1336 N1331 0.984 . S
H1337 N1331 0.985 . S
H1338 N1335 0.984 . S
H1339 N1335 0.985 . S
H1340 N1334 0.984 . S
H1341 N1334 0.984 . S
H1342 N1330 0.984 . S
H1343 N1330 0.985 . S
C1344 C1345 1.363 . S
C1344 C1350 1.379 . S
C1344 N1352 1.356 . S
C1345 C1344 1.363 . S
C1345 C1351 1.363 . S
C1346 C1347 1.363 . S
C1346 C1351 1.379 . S
C1346 N1353 1.356 . S
C1347 C1346 1.363 . S
C1347 C1350 1.363 . S
N1348 C1350 1.356 . S
N1348 H1360 0.984 . S
N1348 H1361 0.985 . S
N1349 C1351 1.356 . S
N1349 H1354 0.984 . S
N1349 H1355 0.985 1_455 S
C1350 C1344 1.379 . S
C1350 C1347 1.363 . S
C1350 N1348 1.356 . S
C1351 C1345 1.363 . S
C1351 C1346 1.379 . S
C1351 N1349 1.356 . S
N1352 C1344 1.356 . S
N1352 H1358 0.984 . S
N1352 H1359 0.984 . S
N1353 C1346 1.356 . S
N1353 H1356 0.984 . S
N1353 H1357 0.985 1_455 S
H1354 N1349 0.984 . S
H1355 N1349 0.985 1_655 S
H1356 N1353 0.984 . S
H1357 N1353 0.985 1_655 S
H1358 N1352 0.984 . S
H1359 N1352 0.984 . S
H1360 N1348 0.984 . S
H1361 N1348 0.985 . S
C1362 C1363 1.363 . S
C1362 C1368 1.379 . S
C1362 N1370 1.356 . S
C1363 C1362 1.363 . S
C1363 C1369 1.363 . S
C1364 C1365 1.363 . S
C1364 C1369 1.379 . S
C1364 N1371 1.356 . S
C1365 C1364 1.363 . S
C1365 C1368 1.363 . S
N1366 C1368 1.356 . S
N1366 H1378 0.984 . S
N1366 H1379 0.985 . S
N1367 C1369 1.356 . S
N1367 H1372 0.984 . S
N1367 H1373 0.985 . S
C1368 C1362 1.379 . S
C1368 C1365 1.363 . S
C1368 N1366 1.356 . S
C1369 C1363 1.363 . S
C1369 C1364 1.379 . S
C1369 N1367 1.356 . S
N1370 C1362 1.356 . S
N1370 H1376 0.984 . S
N1370 H1377 0.984 . S
N1371 C1364 1.356 . S
N1371 H1374 0.984 . S
N1371 H1375 0.985 . S
H1372 N1367 0.984 . S
H1373 N1367 0.985 . S
H1374 N1371 0.984 . S
H1375 N1371 0.985 . S
H1376 N1370 0.984 . S
H1377 N1370 0.984 . S
H1378 N1366 0.984 . S
H1379 N1366 0.985 . S
C1380 C1381 1.363 . S
C1380 C1386 1.379 . S
C1380 N1388 1.356 . S
C1381 C1380 1.363 . S
C1381 C1387 1.363 . S
C1382 C1383 1.363 . S
C1382 C1387 1.379 . S
C1382 N1389 1.356 . S
C1383 C1382 1.363 . S
C1383 C1386 1.363 . S
N1384 C1386 1.356 . S
N1384 H1396 0.984 1_655 S
N1384 H1397 0.985 . S
N1385 C1387 1.356 . S
N1385 H1390 0.984 . S
N1385 H1391 0.985 . S
C1386 C1380 1.379 . S
C1386 C1383 1.363 . S
C1386 N1384 1.356 . S
C1387 C1381 1.363 . S
C1387 C1382 1.379 . S
C1387 N1385 1.356 . S
N1388 C1380 1.356 . S
N1388 H1394 0.984 1_655 S
N1388 H1395 0.984 . S
N1389 C1382 1.356 . S
N1389 H1392 0.984 . S
N1389 H1393 0.985 . S
H1390 N1385 0.984 . S
H1391 N1385 0.985 . S
H1392 N1389 0.984 . S
H1393 N1389 0.985 . S
H1394 N1388 0.984 1_455 S
H1395 N1388 0.984 . S
H1396 N1384 0.984 1_455 S
H1397 N1384 0.985 . S
C1398 C1399 1.363 . S
C1398 C1404 1.379 . S
C1398 N1406 1.356 . S
C1399 C1398 1.363 . S
C1399 C1405 1.363 . S
C1400 C1401 1.363 . S
C1400 C1405 1.379 . S
C1400 N1407 1.356 . S
C1401 C1400 1.363 . S
C1401 C1404 1.363 . S
N1402 C1404 1.356 . S
N1402 H1414 0.984 . S
N1402 H1415 0.985 . S
N1403 C1405 1.356 . S
N1403 H1408 0.984 . S
N1403 H1409 0.985 . S
C1404 C1398 1.379 . S
C1404 C1401 1.363 . S
C1404 N1402 1.356 . S
C1405 C1399 1.363 . S
C1405 C1400 1.379 . S
C1405 N1403 1.356 . S
N1406 C1398 1.356 . S
N1406 H1412 0.984 . S
N1406 H1413 0.984 . S
N1407 C1400 1.356 . S
N1407 H1410 0.984 . S
N1407 H1411 0.985 . S
H1408 N1403 0.984 . S
H1409 N1403 0.985 . S
H1410 N1407 0.984 . S
H1411 N1407 0.985 . S
H1412 N1406 0.984 . S
H1413 N1406 0.984 . S
H1414 N1402 0.984 . S
H1415 N1402 0.985 . S
C1416 C1417 1.363 . S
C1416 C1422 1.379 . S
C1416 N1424 1.356 . S
C1417 C1416 1.363 . S
C1417 C1423 1.363 . S
C1418 C1419 1.363 . S
C1418 C1423 1.379 . S
C1418 N1425 1.391 . S
C1419 C1418 1.363 . S
C1419 C1422 1.363 . S
N1420 C1422 1.356 . S
N1420 H1432 0.984 . S
N1420 H1433 0.985 . S
N1421 C1423 1.391 . S
N1421 H1426 1.001 . S
N1421 H1427 0.936 1_455 S
C1422 C1416 1.379 . S
C1422 C1419 1.363 . S
C1422 N1420 1.356 . S
C1423 C1417 1.363 . S
C1423 C1418 1.379 . S
C1423 N1421 1.391 . S
N1424 C1416 1.356 . S
N1424 H1430 0.984 . S
N1424 H1431 0.984 . S
N1425 C1418 1.391 . S
N1425 H1428 1.001 . S
N1425 H1429 0.936 1_455 S
H1426 N1421 1.001 . S
H1427 N1421 0.936 1_655 S
H1428 N1425 1.001 . S
H1429 N1425 0.936 1_655 S
H1430 N1424 0.984 . S
H1431 N1424 0.984 . S
H1432 N1420 0.984 . S
H1433 N1420 0.985 . S
C1434 C1435 1.363 . S
C1434 C1440 1.379 . S
C1434 N1442 1.356 . S
C1435 C1434 1.363 . S
C1435 C1441 1.363 . S
C1436 C1437 1.363 . S
C1436 C1441 1.379 . S
C1436 N1443 1.356 . S
C1437 C1436 1.363 . S
C1437 C1440 1.363 . S
N1438 C1440 1.356 . S
N1438 H1450 0.984 . S
N1438 H1451 0.985 . S
N1439 C1441 1.356 . S
N1439 H1444 0.984 . S
N1439 H1445 0.985 . S
C1440 C1434 1.379 . S
C1440 C1437 1.363 . S
C1440 N1438 1.356 . S
C1441 C1435 1.363 . S
C1441 C1436 1.379 . S
C1441 N1439 1.356 . S
N1442 C1434 1.356 . S
N1442 H1448 0.984 . S
N1442 H1449 0.984 . S
N1443 C1436 1.356 . S
N1443 H1446 0.984 . S
N1443 H1447 0.985 . S
H1444 N1439 0.984 . S
H1445 N1439 0.985 . S
H1446 N1443 0.984 . S
H1447 N1443 0.985 . S
H1448 N1442 0.984 . S
H1449 N1442 0.984 . S
H1450 N1438 0.984 . S
H1451 N1438 0.985 . S
C1452 C1453 1.363 . S
C1452 C1458 1.379 . S
C1452 N1460 1.356 . S
C1453 C1452 1.363 . S
C1453 C1459 1.363 . S
C1454 C1455 1.363 . S
C1454 C1459 1.379 . S
C1454 N1461 1.356 . S
C1455 C1454 1.363 . S
C1455 C1458 1.363 . S
N1456 C1458 1.356 . S
N1456 H1468 0.984 . S
N1456 H1469 0.985 . S
N1457 C1459 1.356 . S
N1457 H1462 0.984 . S
N1457 H1463 0.985 1_655 S
C1458 C1452 1.379 . S
C1458 C1455 1.363 . S
C1458 N1456 1.356 . S
C1459 C1453 1.363 . S
C1459 C1454 1.379 . S
C1459 N1457 1.356 . S
N1460 C1452 1.356 . S
N1460 H1466 0.984 . S
N1460 H1467 0.984 . S
N1461 C1454 1.356 . S
N1461 H1464 0.984 . S
N1461 H1465 0.985 1_655 S
H1462 N1457 0.984 . S
H1463 N1457 0.985 1_455 S
H1464 N1461 0.984 . S
H1465 N1461 0.985 1_455 S
H1466 N1460 0.984 . S
H1467 N1460 0.984 . S
H1468 N1456 0.984 . S
H1469 N1456 0.985 . S
C1470 C1471 1.363 . S
C1470 C1476 1.379 . S
C1470 N1478 1.356 . S
C1471 C1470 1.363 . S
C1471 C1477 1.363 . S
C1472 C1473 1.363 . S
C1472 C1477 1.379 . S
C1472 N1479 1.356 . S
C1473 C1472 1.363 . S
C1473 C1476 1.363 . S
N1474 C1476 1.356 . S
N1474 H1486 0.984 . S
N1474 H1487 0.985 . S
N1475 C1477 1.356 . S
N1475 H1480 0.984 . S
N1475 H1481 0.985 . S
C1476 C1470 1.379 . S
C1476 C1473 1.363 . S
C1476 N1474 1.356 . S
C1477 C1471 1.363 . S
C1477 C1472 1.379 . S
C1477 N1475 1.356 . S
N1478 C1470 1.356 . S
N1478 H1484 0.984 . S
N1478 H1485 0.984 . S
N1479 C1472 1.356 . S
N1479 H1482 0.984 . S
N1479 H1483 0.985 . S
H1480 N1475 0.984 . S
H1481 N1475 0.985 . S
H1482 N1479 0.984 . S
H1483 N1479 0.985 . S
H1484 N1478 0.984 . S
H1485 N1478 0.984 . S
H1486 N1474 0.984 . S
H1487 N1474 0.985 . S
C1488 C1489 1.363 . S
C1488 C1494 1.379 . S
C1488 N1496 1.356 . S
C1489 C1488 1.363 . S
C1489 C1495 1.363 . S
C1490 C1491 1.363 . S
C1490 C1495 1.379 . S
C1490 N1497 1.356 . S
C1491 C1490 1.363 . S
C1491 C1494 1.363 . S
N1492 C1494 1.356 . S
N1492 H1504 0.984 . S
N1492 H1505 0.985 . S
N1493 C1495 1.356 . S
N1493 H1498 0.984 . S
N1493 H1499 0.985 . S
C1494 C1488 1.379 . S
C1494 C1491 1.363 . S
C1494 N1492 1.356 . S
C1495 C1489 1.363 . S
C1495 C1490 1.379 . S
C1495 N1493 1.356 . S
N1496 C1488 1.356 . S
N1496 H1502 0.984 . S
N1496 H1503 0.984 . S
N1497 C1490 1.356 . S
N1497 H1500 0.984 . S
N1497 H1501 0.985 . S
H1498 N1493 0.984 . S
H1499 N1493 0.985 . S
H1500 N1497 0.984 . S
H1501 N1497 0.985 . S
H1502 N1496 0.984 . S
H1503 N1496 0.984 . S
H1504 N1492 0.984 . S
H1505 N1492 0.985 . S
C1506 C1507 1.363 . S
C1506 C1512 1.379 . S
C1506 N1514 1.356 . S
C1507 C1506 1.363 . S
C1507 C1513 1.363 . S
C1508 C1509 1.363 . S
C1508 C1513 1.379 . S
C1508 N1515 1.356 . S
C1509 C1508 1.363 . S
C1509 C1512 1.363 . S
N1510 C1512 1.356 . S
N1510 H1522 0.984 . S
N1510 H1523 0.985 . S
N1511 C1513 1.356 . S
N1511 H1516 0.984 . S
N1511 H1517 0.985 . S
C1512 C1506 1.379 . S
C1512 C1509 1.363 . S
C1512 N1510 1.356 . S
C1513 C1507 1.363 . S
C1513 C1508 1.379 . S
C1513 N1511 1.356 . S
N1514 C1506 1.356 . S
N1514 H1520 0.984 . S
N1514 H1521 0.984 . S
N1515 C1508 1.356 . S
N1515 H1518 0.984 . S
N1515 H1519 0.985 . S
H1516 N1511 0.984 . S
H1517 N1511 0.985 . S
H1518 N1515 0.984 . S
H1519 N1515 0.985 . S
H1520 N1514 0.984 . S
H1521 N1514 0.984 . S
H1522 N1510 0.984 . S
H1523 N1510 0.985 . S
C1524 C1525 1.363 . S
C1524 C1530 1.379 . S
C1524 N1532 1.356 . S
C1525 C1524 1.363 . S
C1525 C1531 1.363 . S
C1526 C1527 1.363 . S
C1526 C1531 1.379 . S
C1526 N1533 1.356 . S
C1527 C1526 1.363 . S
C1527 C1530 1.363 . S
N1528 C1530 1.356 . S
N1528 H1540 0.984 . S
N1528 H1541 0.985 . S
N1529 C1531 1.356 . S
N1529 H1534 0.984 . S
N1529 H1535 0.985 . S
C1530 C1524 1.379 . S
C1530 C1527 1.363 . S
C1530 N1528 1.356 . S
C1531 C1525 1.363 . S
C1531 C1526 1.379 . S
C1531 N1529 1.356 . S
N1532 C1524 1.356 . S
N1532 H1538 0.984 . S
N1532 H1539 0.984 . S
N1533 C1526 1.356 . S
N1533 H1536 0.984 . S
N1533 H1537 0.985 . S
H1534 N1529 0.984 . S
H1535 N1529 0.985 . S
H1536 N1533 0.984 . S
H1537 N1533 0.985 . S
H1538 N1532 0.984 . S
H1539 N1532 0.984 . S
H1540 N1528 0.984 . S
H1541 N1528 0.985 . S
C1542 C1543 1.363 . S
C1542 C1548 1.379 . S
C1542 N1550 1.356 . S
C1543 C1542 1.363 . S
C1543 C1549 1.363 . S
C1544 C1545 1.363 . S
C1544 C1549 1.379 . S
C1544 N1551 1.356 . S
C1545 C1544 1.363 . S
C1545 C1548 1.363 . S
N1546 C1548 1.356 . S
N1546 H1558 0.984 . S
N1546 H1559 0.985 . S
N1547 C1549 1.356 . S
N1547 H1552 0.984 . S
N1547 H1553 0.985 . S
C1548 C1542 1.379 . S
C1548 C1545 1.363 . S
C1548 N1546 1.356 . S
C1549 C1543 1.363 . S
C1549 C1544 1.379 . S
C1549 N1547 1.356 . S
N1550 C1542 1.356 . S
N1550 H1556 0.984 . S
N1550 H1557 0.984 . S
N1551 C1544 1.356 . S
N1551 H1554 0.984 . S
N1551 H1555 0.985 . S
H1552 N1547 0.984 . S
H1553 N1547 0.985 . S
H1554 N1551 0.984 . S
H1555 N1551 0.985 . S
H1556 N1550 0.984 . S
H1557 N1550 0.984 . S
H1558 N1546 0.984 . S
H1559 N1546 0.985 . S
C1560 C1561 1.363 . S
C1560 C1566 1.379 . S
C1560 N1568 1.356 . S
C1561 C1560 1.363 . S
C1561 C1567 1.363 . S
C1562 C1563 1.363 . S
C1562 C1567 1.379 . S
C1562 N1569 1.356 . S
C1563 C1562 1.363 . S
C1563 C1566 1.363 . S
N1564 C1566 1.356 . S
N1564 H1576 0.984 . S
N1564 H1577 0.985 . S
N1565 C1567 1.356 . S
N1565 H1570 0.984 . S
N1565 H1571 0.985 . S
C1566 C1560 1.379 . S
C1566 C1563 1.363 . S
C1566 N1564 1.356 . S
C1567 C1561 1.363 . S
C1567 C1562 1.379 . S
C1567 N1565 1.356 . S
N1568 C1560 1.356 . S
N1568 H1574 0.984 . S
N1568 H1575 0.984 . S
N1569 C1562 1.356 . S
N1569 H1572 0.984 . S
N1569 H1573 0.985 . S
H1570 N1565 0.984 . S
H1571 N1565 0.985 . S
H1572 N1569 0.984 . S
H1573 N1569 0.985 . S
H1574 N1568 0.984 . S
H1575 N1568 0.984 . S
H1576 N1564 0.984 . S
H1577 N1564 0.985 . S
C1578 C1579 1.363 . S
C1578 C1584 1.379 . S
C1578 N1586 1.356 . S
C1579 C1578 1.363 . S
C1579 C1585 1.363 . S
C1580 C1581 1.363 . S
C1580 C1585 1.379 . S
C1580 N1587 1.356 . S
C1581 C1580 1.363 . S
C1581 C1584 1.363 . S
N1582 C1584 1.356 . S
N1582 H1594 0.984 . S
N1582 H1595 0.985 . S
N1583 C1585 1.356 . S
N1583 H1588 0.984 . S
N1583 H1589 0.985 . S
C1584 C1578 1.379 . S
C1584 C1581 1.363 . S
C1584 N1582 1.356 . S
C1585 C1579 1.363 . S
C1585 C1580 1.379 . S
C1585 N1583 1.356 . S
N1586 C1578 1.356 . S
N1586 H1592 0.984 . S
N1586 H1593 0.984 . S
N1587 C1580 1.356 . S
N1587 H1590 0.984 . S
N1587 H1591 0.985 . S
H1588 N1583 0.984 . S
H1589 N1583 0.985 . S
H1590 N1587 0.984 . S
H1591 N1587 0.985 . S
H1592 N1586 0.984 . S
H1593 N1586 0.984 . S
H1594 N1582 0.984 . S
H1595 N1582 0.985 . S
C1596 C1597 1.363 . S
C1596 C1602 1.379 . S
C1596 N1604 1.356 . S
C1597 C1596 1.363 . S
C1597 C1603 1.363 . S
C1598 C1599 1.363 . S
C1598 C1603 1.379 . S
C1598 N1605 1.356 . S
C1599 C1598 1.363 . S
C1599 C1602 1.363 . S
N1600 C1602 1.356 . S
N1600 H1612 0.984 . S
N1600 H1613 0.985 . S
N1601 C1603 1.356 . S
N1601 H1606 0.984 . S
N1601 H1607 0.985 . S
C1602 C1596 1.379 . S
C1602 C1599 1.363 . S
C1602 N1600 1.356 . S
C1603 C1597 1.363 . S
C1603 C1598 1.379 . S
C1603 N1601 1.356 . S
N1604 C1596 1.356 . S
N1604 H1610 0.984 . S
N1604 H1611 0.984 . S
N1605 C1598 1.356 . S
N1605 H1608 0.984 . S
N1605 H1609 0.985 . S
H1606 N1601 0.984 . S
H1607 N1601 0.985 . S
H1608 N1605 0.984 . S
H1609 N1605 0.985 . S
H1610 N1604 0.984 . S
H1611 N1604 0.984 . S
H1612 N1600 0.984 . S
H1613 N1600 0.985 . S
C1614 C1615 1.363 . S
C1614 C1620 1.379 . S
C1614 N1622 1.356 . S
C1615 C1614 1.363 . S
C1615 C1621 1.363 . S
C1616 C1617 1.363 . S
C1616 C1621 1.379 . S
C1616 N1623 1.356 . S
C1617 C1616 1.363 . S
C1617 C1620 1.363 . S
N1618 C1620 1.356 . S
N1618 H1630 0.984 . S
N1618 H1631 0.985 . S
N1619 C1621 1.356 . S
N1619 H1624 0.984 . S
N1619 H1625 0.985 . S
C1620 C1614 1.379 . S
C1620 C1617 1.363 . S
C1620 N1618 1.356 . S
C1621 C1615 1.363 . S
C1621 C1616 1.379 . S
C1621 N1619 1.356 . S
N1622 C1614 1.356 . S
N1622 H1628 0.984 . S
N1622 H1629 0.984 . S
N1623 C1616 1.356 . S
N1623 H1626 0.984 . S
N1623 H1627 0.985 . S
H1624 N1619 0.984 . S
H1625 N1619 0.985 . S
H1626 N1623 0.984 . S
H1627 N1623 0.985 . S
H1628 N1622 0.984 . S
H1629 N1622 0.984 . S
H1630 N1618 0.984 . S
H1631 N1618 0.985 . S
C1632 C1633 1.363 . S
C1632 C1638 1.379 . S
C1632 N1640 1.356 . S
C1633 C1632 1.363 . S
C1633 C1639 1.363 . S
C1634 C1635 1.363 . S
C1634 C1639 1.379 . S
C1634 N1641 1.356 . S
C1635 C1634 1.363 . S
C1635 C1638 1.363 . S
N1636 C1638 1.356 . S
N1636 H1648 0.984 . S
N1636 H1649 0.985 . S
N1637 C1639 1.356 . S
N1637 H1642 0.984 . S
N1637 H1643 0.985 . S
C1638 C1632 1.379 . S
C1638 C1635 1.363 . S
C1638 N1636 1.356 . S
C1639 C1633 1.363 . S
C1639 C1634 1.379 . S
C1639 N1637 1.356 . S
N1640 C1632 1.356 . S
N1640 H1646 0.984 . S
N1640 H1647 0.984 . S
N1641 C1634 1.356 . S
N1641 H1644 0.984 . S
N1641 H1645 0.985 . S
H1642 N1637 0.984 . S
H1643 N1637 0.985 . S
H1644 N1641 0.984 . S
H1645 N1641 0.985 . S
H1646 N1640 0.984 . S
H1647 N1640 0.984 . S
H1648 N1636 0.984 . S
H1649 N1636 0.985 . S
C1650 C1651 1.363 . S
C1650 C1656 1.379 . S
C1650 N1658 1.356 . S
C1651 C1650 1.363 . S
C1651 C1657 1.363 . S
C1652 C1653 1.363 . S
C1652 C1657 1.379 . S
C1652 N1659 1.356 . S
C1653 C1652 1.363 . S
C1653 C1656 1.363 . S
N1654 C1656 1.356 . S
N1654 H1666 0.984 . S
N1654 H1667 0.985 . S
N1655 C1657 1.356 . S
N1655 H1660 0.984 . S
N1655 H1661 0.985 . S
C1656 C1650 1.379 . S
C1656 C1653 1.363 . S
C1656 N1654 1.356 . S
C1657 C1651 1.363 . S
C1657 C1652 1.379 . S
C1657 N1655 1.356 . S
N1658 C1650 1.356 . S
N1658 H1664 0.984 . S
N1658 H1665 0.984 . S
N1659 C1652 1.356 . S
N1659 H1662 0.984 . S
N1659 H1663 0.985 . S
H1660 N1655 0.984 . S
H1661 N1655 0.985 . S
H1662 N1659 0.984 . S
H1663 N1659 0.985 . S
H1664 N1658 0.984 . S
H1665 N1658 0.984 . S
H1666 N1654 0.984 . S
H1667 N1654 0.985 . S
C1668 C1669 1.363 . S
C1668 C1674 1.379 . S
C1668 N1676 1.356 . S
C1669 C1668 1.363 . S
C1669 C1675 1.363 . S
C1670 C1671 1.363 . S
C1670 C1675 1.379 . S
C1670 N1677 1.356 . S
C1671 C1670 1.363 . S
C1671 C1674 1.363 . S
N1672 C1674 1.356 . S
N1672 H1684 0.984 . S
N1672 H1685 0.985 . S
N1673 C1675 1.356 . S
N1673 H1678 0.984 . S
N1673 H1679 0.985 . S
C1674 C1668 1.379 . S
C1674 C1671 1.363 . S
C1674 N1672 1.356 . S
C1675 C1669 1.363 . S
C1675 C1670 1.379 . S
C1675 N1673 1.356 . S
N1676 C1668 1.356 . S
N1676 H1682 0.984 . S
N1676 H1683 0.984 . S
N1677 C1670 1.356 . S
N1677 H1680 0.984 . S
N1677 H1681 0.985 . S
H1678 N1673 0.984 . S
H1679 N1673 0.985 . S
H1680 N1677 0.984 . S
H1681 N1677 0.985 . S
H1682 N1676 0.984 . S
H1683 N1676 0.984 . S
H1684 N1672 0.984 . S
H1685 N1672 0.985 . S
C1686 C1687 1.363 . S
C1686 C1692 1.379 . S
C1686 N1694 1.356 . S
C1687 C1686 1.363 . S
C1687 C1693 1.363 . S
C1688 C1689 1.363 . S
C1688 C1693 1.379 . S
C1688 N1695 1.356 . S
C1689 C1688 1.363 . S
C1689 C1692 1.363 . S
N1690 C1692 1.356 . S
N1690 H1702 0.984 . S
N1690 H1703 0.985 . S
N1691 C1693 1.356 . S
N1691 H1696 0.984 . S
N1691 H1697 0.985 . S
C1692 C1686 1.379 . S
C1692 C1689 1.363 . S
C1692 N1690 1.356 . S
C1693 C1687 1.363 . S
C1693 C1688 1.379 . S
C1693 N1691 1.356 . S
N1694 C1686 1.356 . S
N1694 H1700 0.984 . S
N1694 H1701 0.984 . S
N1695 C1688 1.356 . S
N1695 H1698 0.984 . S
N1695 H1699 0.985 . S
H1696 N1691 0.984 . S
H1697 N1691 0.985 . S
H1698 N1695 0.984 . S
H1699 N1695 0.985 . S
H1700 N1694 0.984 . S
H1701 N1694 0.984 . S
H1702 N1690 0.984 . S
H1703 N1690 0.985 . S
C1704 C1705 1.363 . S
C1704 C1710 1.379 . S
C1704 N1712 1.356 . S
C1705 C1704 1.363 . S
C1705 C1711 1.363 . S
C1706 C1707 1.363 . S
C1706 C1711 1.379 . S
C1706 N1713 1.356 . S
C1707 C1706 1.363 . S
C1707 C1710 1.363 . S
N1708 C1710 1.356 . S
N1708 H1720 0.984 . S
N1708 H1721 0.985 . S
N1709 C1711 1.356 . S
N1709 H1714 0.984 . S
N1709 H1715 0.985 . S
C1710 C1704 1.379 . S
C1710 C1707 1.363 . S
C1710 N1708 1.356 . S
C1711 C1705 1.363 . S
C1711 C1706 1.379 . S
C1711 N1709 1.356 . S
N1712 C1704 1.356 . S
N1712 H1718 0.984 . S
N1712 H1719 0.984 . S
N1713 C1706 1.356 . S
N1713 H1716 0.984 . S
N1713 H1717 0.985 . S
H1714 N1709 0.984 . S
H1715 N1709 0.985 . S
H1716 N1713 0.984 . S
H1717 N1713 0.985 . S
H1718 N1712 0.984 . S
H1719 N1712 0.984 . S
H1720 N1708 0.984 . S
H1721 N1708 0.985 . S
C1722 C1723 1.363 . S
C1722 C1728 1.379 . S
C1722 N1730 1.356 . S
C1723 C1722 1.363 . S
C1723 C1729 1.363 . S
C1724 C1725 1.363 . S
C1724 C1729 1.379 . S
C1724 N1731 1.356 . S
C1725 C1724 1.363 . S
C1725 C1728 1.363 . S
N1726 C1728 1.356 . S
N1726 H1738 0.984 . S
N1726 H1739 0.985 . S
N1727 C1729 1.356 . S
N1727 H1732 0.984 . S
N1727 H1733 0.985 . S
C1728 C1722 1.379 . S
C1728 C1725 1.363 . S
C1728 N1726 1.356 . S
C1729 C1723 1.363 . S
C1729 C1724 1.379 . S
C1729 N1727 1.356 . S
N1730 C1722 1.356 . S
N1730 H1736 0.984 . S
N1730 H1737 0.984 . S
N1731 C1724 1.356 . S
N1731 H1734 0.984 . S
N1731 H1735 0.985 . S
H1732 N1727 0.984 . S
H1733 N1727 0.985 . S
H1734 N1731 0.984 . S
H1735 N1731 0.985 . S
H1736 N1730 0.984 . S
H1737 N1730 0.984 . S
H1738 N1726 0.984 . S
H1739 N1726 0.985 . S
C1740 C1741 1.363 . S
C1740 C1746 1.379 . S
C1740 N1748 1.356 . S
C1741 C1740 1.363 . S
C1741 C1747 1.363 . S
C1742 C1743 1.363 . S
C1742 C1747 1.379 . S
C1742 N1749 1.356 . S
C1743 C1742 1.363 . S
C1743 C1746 1.363 . S
N1744 C1746 1.356 . S
N1744 H1756 0.984 . S
N1744 H1757 0.985 . S
N1745 C1747 1.356 . S
N1745 H1750 0.984 . S
N1745 H1751 0.985 . S
C1746 C1740 1.379 . S
C1746 C1743 1.363 . S
C1746 N1744 1.356 . S
C1747 C1741 1.363 . S
C1747 C1742 1.379 . S
C1747 N1745 1.356 . S
N1748 C1740 1.356 . S
N1748 H1754 0.984 . S
N1748 H1755 0.984 . S
N1749 C1742 1.356 . S
N1749 H1752 0.984 . S
N1749 H1753 0.985 . S
H1750 N1745 0.984 . S
H1751 N1745 0.985 . S
H1752 N1749 0.984 . S
H1753 N1749 0.985 . S
H1754 N1748 0.984 . S
H1755 N1748 0.984 . S
H1756 N1744 0.984 . S
H1757 N1744 0.985 . S
C1758 C1759 1.363 . S
C1758 C1764 1.379 . S
C1758 N1766 1.356 . S
C1759 C1758 1.363 . S
C1759 C1765 1.363 . S
C1760 C1761 1.363 . S
C1760 C1765 1.379 . S
C1760 N1767 1.356 . S
C1761 C1760 1.363 . S
C1761 C1764 1.363 . S
N1762 C1764 1.356 . S
N1762 H1774 0.984 . S
N1762 H1775 0.985 . S
N1763 C1765 1.356 . S
N1763 H1768 0.984 . S
N1763 H1769 0.985 . S
C1764 C1758 1.379 . S
C1764 C1761 1.363 . S
C1764 N1762 1.356 . S
C1765 C1759 1.363 . S
C1765 C1760 1.379 . S
C1765 N1763 1.356 . S
N1766 C1758 1.356 . S
N1766 H1772 0.984 . S
N1766 H1773 0.984 . S
N1767 C1760 1.356 . S
N1767 H1770 0.984 . S
N1767 H1771 0.985 . S
H1768 N1763 0.984 . S
H1769 N1763 0.985 . S
H1770 N1767 0.984 . S
H1771 N1767 0.985 . S
H1772 N1766 0.984 . S
H1773 N1766 0.984 . S
H1774 N1762 0.984 . S
H1775 N1762 0.985 . S
C1776 C1777 1.363 . S
C1776 C1782 1.379 . S
C1776 N1784 1.356 . S
C1777 C1776 1.363 . S
C1777 C1783 1.363 . S
C1778 C1779 1.363 . S
C1778 C1783 1.379 . S
C1778 N1785 1.356 . S
C1779 C1778 1.363 . S
C1779 C1782 1.363 . S
N1780 C1782 1.356 . S
N1780 H1792 0.984 . S
N1780 H1793 0.985 . S
N1781 C1783 1.356 . S
N1781 H1786 0.984 . S
N1781 H1787 0.985 . S
C1782 C1776 1.379 . S
C1782 C1779 1.363 . S
C1782 N1780 1.356 . S
C1783 C1777 1.363 . S
C1783 C1778 1.379 . S
C1783 N1781 1.356 . S
N1784 C1776 1.356 . S
N1784 H1790 0.984 . S
N1784 H1791 0.984 . S
N1785 C1778 1.356 . S
N1785 H1788 0.984 . S
N1785 H1789 0.985 . S
H1786 N1781 0.984 . S
H1787 N1781 0.985 . S
H1788 N1785 0.984 . S
H1789 N1785 0.985 . S
H1790 N1784 0.984 . S
H1791 N1784 0.984 . S
H1792 N1780 0.984 . S
H1793 N1780 0.985 . S
C1794 C1795 1.363 . S
C1794 C1800 1.379 . S
C1794 N1802 1.356 . S
C1795 C1794 1.363 . S
C1795 C1801 1.363 . S
C1796 C1797 1.363 . S
C1796 C1801 1.379 . S
C1796 N1803 1.356 . S
C1797 C1796 1.363 . S
C1797 C1800 1.363 . S
N1798 C1800 1.356 . S
N1798 H1810 0.984 . S
N1798 H1811 0.985 . S
N1799 C1801 1.356 . S
N1799 H1804 0.984 . S
N1799 H1805 0.985 . S
C1800 C1794 1.379 . S
C1800 C1797 1.363 . S
C1800 N1798 1.356 . S
C1801 C1795 1.363 . S
C1801 C1796 1.379 . S
C1801 N1799 1.356 . S
N1802 C1794 1.356 . S
N1802 H1808 0.984 . S
N1802 H1809 0.984 . S
N1803 C1796 1.356 . S
N1803 H1806 0.984 . S
N1803 H1807 0.985 . S
H1804 N1799 0.984 . S
H1805 N1799 0.985 . S
H1806 N1803 0.984 . S
H1807 N1803 0.985 . S
H1808 N1802 0.984 . S
H1809 N1802 0.984 . S
H1810 N1798 0.984 . S
H1811 N1798 0.985 . S
C1812 C1813 1.363 . S
C1812 C1818 1.379 . S
C1812 N1820 1.356 . S
C1813 C1812 1.363 . S
C1813 C1819 1.363 . S
C1814 C1815 1.363 . S
C1814 C1819 1.379 . S
C1814 N1821 1.356 . S
C1815 C1814 1.363 . S
C1815 C1818 1.363 . S
N1816 C1818 1.356 . S
N1816 H1828 0.984 . S
N1816 H1829 0.985 . S
N1817 C1819 1.356 . S
N1817 H1822 0.984 . S
N1817 H1823 0.985 . S
C1818 C1812 1.379 . S
C1818 C1815 1.363 . S
C1818 N1816 1.356 . S
C1819 C1813 1.363 . S
C1819 C1814 1.379 . S
C1819 N1817 1.356 . S
N1820 C1812 1.356 . S
N1820 H1826 0.984 . S
N1820 H1827 0.984 . S
N1821 C1814 1.356 . S
N1821 H1824 0.984 . S
N1821 H1825 0.985 . S
H1822 N1817 0.984 . S
H1823 N1817 0.985 . S
H1824 N1821 0.984 . S
H1825 N1821 0.985 . S
H1826 N1820 0.984 . S
H1827 N1820 0.984 . S
H1828 N1816 0.984 . S
H1829 N1816 0.985 . S
C1830 C1831 1.363 . S
C1830 C1836 1.379 . S
C1830 N1838 1.356 . S
C1831 C1830 1.363 . S
C1831 C1837 1.363 . S
C1832 C1833 1.363 . S
C1832 C1837 1.379 . S
C1832 N1839 1.356 . S
C1833 C1832 1.363 . S
C1833 C1836 1.363 . S
N1834 C1836 1.356 . S
N1834 H1846 0.984 . S
N1834 H1847 0.985 . S
N1835 C1837 1.356 . S
N1835 H1840 0.984 . S
N1835 H1841 0.985 . S
C1836 C1830 1.379 . S
C1836 C1833 1.363 . S
C1836 N1834 1.356 . S
C1837 C1831 1.363 . S
C1837 C1832 1.379 . S
C1837 N1835 1.356 . S
N1838 C1830 1.356 . S
N1838 H1844 0.984 . S
N1838 H1845 0.984 . S
N1839 C1832 1.356 . S
N1839 H1842 0.984 . S
N1839 H1843 0.985 . S
H1840 N1835 0.984 . S
H1841 N1835 0.985 . S
H1842 N1839 0.984 . S
H1843 N1839 0.985 . S
H1844 N1838 0.984 . S
H1845 N1838 0.984 . S
H1846 N1834 0.984 . S
H1847 N1834 0.985 . S
C1848 C1849 1.363 . S
C1848 C1854 1.379 . S
C1848 N1856 1.356 . S
C1849 C1848 1.363 . S
C1849 C1855 1.363 . S
C1850 C1851 1.363 . S
C1850 C1855 1.379 . S
C1850 N1857 1.356 . S
C1851 C1850 1.363 . S
C1851 C1854 1.363 . S
N1852 C1854 1.356 . S
N1852 H1864 0.984 . S
N1852 H1865 0.985 . S
N1853 C1855 1.356 . S
N1853 H1858 0.984 . S
N1853 H1859 0.985 . S
C1854 C1848 1.379 . S
C1854 C1851 1.363 . S
C1854 N1852 1.356 . S
C1855 C1849 1.363 . S
C1855 C1850 1.379 . S
C1855 N1853 1.356 . S
N1856 C1848 1.356 . S
N1856 H1862 0.984 . S
N1856 H1863 0.984 . S
N1857 C1850 1.356 . S
N1857 H1860 0.984 . S
N1857 H1861 0.985 . S
H1858 N1853 0.984 . S
H1859 N1853 0.985 . S
H1860 N1857 0.984 . S
H1861 N1857 0.985 . S
H1862 N1856 0.984 . S
H1863 N1856 0.984 . S
H1864 N1852 0.984 . S
H1865 N1852 0.985 . S
C1866 C1867 1.363 . S
C1866 C1872 1.379 . S
C1866 N1874 1.356 . S
C1867 C1866 1.363 . S
C1867 C1873 1.363 . S
C1868 C1869 1.363 . S
C1868 C1873 1.379 . S
C1868 N1875 1.356 . S
C1869 C1868 1.363 . S
C1869 C1872 1.363 . S
N1870 C1872 1.356 . S
N1870 H1882 0.984 . S
N1870 H1883 0.985 . S
N1871 C1873 1.356 . S
N1871 H1876 0.984 . S
N1871 H1877 0.985 . S
C1872 C1866 1.379 . S
C1872 C1869 1.363 . S
C1872 N1870 1.356 . S
C1873 C1867 1.363 . S
C1873 C1868 1.379 . S
C1873 N1871 1.356 . S
N1874 C1866 1.356 . S
N1874 H1880 0.984 . S
N1874 H1881 0.984 . S
N1875 C1868 1.356 . S
N1875 H1878 0.984 . S
N1875 H1879 0.985 . S
H1876 N1871 0.984 . S
H1877 N1871 0.985 . S
H1878 N1875 0.984 . S
H1879 N1875 0.985 . S
H1880 N1874 0.984 . S
H1881 N1874 0.984 . S
H1882 N1870 0.984 . S
H1883 N1870 0.985 . S
C1884 C1885 1.363 . S
C1884 C1890 1.379 . S
C1884 N1892 1.356 . S
C1885 C1884 1.363 . S
C1885 C1891 1.363 . S
C1886 C1887 1.363 . S
C1886 C1891 1.379 . S
C1886 N1893 1.356 . S
C1887 C1886 1.363 . S
C1887 C1890 1.363 . S
N1888 C1890 1.356 . S
N1888 H1900 0.984 . S
N1888 H1901 0.985 . S
N1889 C1891 1.356 . S
N1889 H1894 0.984 . S
N1889 H1895 0.985 . S
C1890 C1884 1.379 . S
C1890 C1887 1.363 . S
C1890 N1888 1.356 . S
C1891 C1885 1.363 . S
C1891 C1886 1.379 . S
C1891 N1889 1.356 . S
N1892 C1884 1.356 . S
N1892 H1898 0.984 . S
N1892 H1899 0.984 . S
N1893 C1886 1.356 . S
N1893 H1896 0.984 . S
N1893 H1897 0.985 . S
H1894 N1889 0.984 . S
H1895 N1889 0.985 . S
H1896 N1893 0.984 . S
H1897 N1893 0.985 . S
H1898 N1892 0.984 . S
H1899 N1892 0.984 . S
H1900 N1888 0.984 . S
H1901 N1888 0.985 . S
C1902 C1903 1.363 . S
C1902 C1908 1.379 . S
C1902 N1910 1.356 . S
C1903 C1902 1.363 . S
C1903 C1909 1.363 . S
C1904 C1905 1.363 . S
C1904 C1909 1.379 . S
C1904 N1911 1.356 . S
C1905 C1904 1.363 . S
C1905 C1908 1.363 . S
N1906 C1908 1.356 . S
N1906 H1918 0.984 . S
N1906 H1919 0.985 . S
N1907 C1909 1.356 . S
N1907 H1912 0.984 . S
N1907 H1913 0.985 . S
C1908 C1902 1.379 . S
C1908 C1905 1.363 . S
C1908 N1906 1.356 . S
C1909 C1903 1.363 . S
C1909 C1904 1.379 . S
C1909 N1907 1.356 . S
N1910 C1902 1.356 . S
N1910 H1916 0.984 . S
N1910 H1917 0.984 . S
N1911 C1904 1.356 . S
N1911 H1914 0.984 . S
N1911 H1915 0.985 . S
H1912 N1907 0.984 . S
H1913 N1907 0.985 . S
H1914 N1911 0.984 . S
H1915 N1911 0.985 . S
H1916 N1910 0.984 . S
H1917 N1910 0.984 . S
H1918 N1906 0.984 . S
H1919 N1906 0.985 . S
C1920 C1921 1.401 . S
C1920 C1926 1.379 . S
C1920 N1928 1.356 . S
C1921 C1920 1.401 . S
C1921 C1927 1.318 1_455 S
C1922 C1923 1.363 . S
C1922 C1927 1.379 . S
C1922 N1929 1.356 . S
C1923 C1922 1.363 . S
C1923 C1926 1.363 1_655 S
N1924 C1926 1.356 1_565 S
N1924 H1936 0.984 . S
N1924 H1937 0.985 . S
N1925 C1927 1.356 . S
N1925 H1930 0.984 . S
N1925 H1931 0.985 . S
C1926 C1920 1.379 . S
C1926 C1923 1.363 1_455 S
C1926 N1924 1.356 1_545 S
C1927 C1921 1.318 1_655 S
C1927 C1922 1.379 . S
C1927 N1925 1.356 . S
N1928 C1920 1.356 . S
N1928 H1934 0.984 . S
N1928 H1935 0.984 . S
N1929 C1922 1.356 . S
N1929 H1932 0.984 . S
N1929 H1933 0.985 . S
H1930 N1925 0.984 . S
H1931 N1925 0.985 . S
H1932 N1929 0.984 . S
H1933 N1929 0.985 . S
H1934 N1928 0.984 . S
H1935 N1928 0.984 . S
H1936 N1924 0.984 . S
H1937 N1924 0.985 . S
C1938 C1939 1.363 . S
C1938 C1944 1.379 . S
C1938 N1946 1.356 . S
C1939 C1938 1.363 . S
C1939 C1945 1.363 . S
C1940 C1941 1.363 . S
C1940 C1945 1.379 . S
C1940 N1947 1.356 . S
C1941 C1940 1.363 . S
C1941 C1944 1.363 . S
N1942 C1944 1.356 . S
N1942 H1954 0.984 . S
N1942 H1955 0.985 . S
N1943 C1945 1.356 . S
N1943 H1948 0.984 . S
N1943 H1949 0.985 . S
C1944 C1938 1.379 . S
C1944 C1941 1.363 . S
C1944 N1942 1.356 . S
C1945 C1939 1.363 . S
C1945 C1940 1.379 . S
C1945 N1943 1.356 . S
N1946 C1938 1.356 . S
N1946 H1952 0.984 . S
N1946 H1953 0.984 . S
N1947 C1940 1.356 . S
N1947 H1950 0.984 . S
N1947 H1951 0.985 . S
H1948 N1943 0.984 . S
H1949 N1943 0.985 . S
H1950 N1947 0.984 . S
H1951 N1947 0.985 . S
H1952 N1946 0.984 . S
H1953 N1946 0.984 . S
H1954 N1942 0.984 . S
H1955 N1942 0.985 . S
C1956 C1957 1.363 1_455 S
C1956 C1962 1.379 . S
C1956 N1964 1.356 1_556 S
C1957 C1956 1.363 1_655 S
C1957 C1963 1.363 . S
C1958 C1959 1.328 1_655 S
C1958 C1963 1.379 . S
C1958 N1965 1.356 . S
C1959 C1958 1.328 1_455 S
C1959 C1962 1.391 . S
N1960 C1962 1.356 . S
N1960 H1972 0.984 . S
N1960 H1973 0.985 . S
N1961 C1963 1.356 . S
N1961 H1966 0.984 . S
N1961 H1967 0.985 . S
C1962 C1956 1.379 . S
C1962 C1959 1.391 . S
C1962 N1960 1.356 . S
C1963 C1957 1.363 . S
C1963 C1958 1.379 . S
C1963 N1961 1.356 . S
N1964 C1956 1.356 1_554 S
N1964 H1970 0.984 . S
N1964 H1971 0.984 . S
N1965 C1958 1.356 . S
N1965 H1968 0.984 . S
N1965 H1969 0.985 . S
H1966 N1961 0.984 . S
H1967 N1961 0.985 . S
H1968 N1965 0.984 . S
H1969 N1965 0.985 . S
H1970 N1964 0.984 . S
H1971 N1964 0.984 . S
H1972 N1960 0.984 . S
H1973 N1960 0.985 . S
C1974 C1975 1.363 . S
C1974 C1980 1.379 . S
C1974 N1982 1.356 . S
C1975 C1974 1.363 . S
C1975 C1981 1.363 . S
C1976 C1977 1.364 . S
C1976 C1981 1.381 . S
C1976 N1983 1.353 1_545 S
C1977 C1976 1.364 . S
C1977 C1980 1.363 . S
N1978 C1980 1.356 1_554 S
N1978 H1990 0.984 . S
N1978 H1991 0.985 . S
N1979 C1981 1.356 . S
N1979 H1984 0.984 . S
N1979 H1985 0.985 1_545 S
C1980 C1974 1.379 . S
C1980 C1977 1.363 . S
C1980 N1978 1.356 1_556 S
C1981 C1975 1.363 . S
C1981 C1976 1.381 . S
C1981 N1979 1.356 . S
N1982 C1974 1.356 . S
N1982 H1988 0.984 . S
N1982 H1989 0.984 . S
N1983 C1976 1.353 1_565 S
N1983 H1986 0.984 . S
N1983 H1987 0.985 . S
H1984 N1979 0.984 . S
H1985 N1979 0.985 1_565 S
H1986 N1983 0.984 . S
H1987 N1983 0.985 . S
H1988 N1982 0.984 . S
H1989 N1982 0.984 . S
H1990 N1978 0.984 . S
H1991 N1978 0.985 . S
C1992 C1993 1.363 . S
C1992 C1998 1.379 . S
C1992 N2000 1.356 . S
C1993 C1992 1.363 . S
C1993 C1999 1.363 1_455 S
C1994 C1995 1.400 . S
C1994 C1999 1.379 . S
C1994 N2001 1.356 . S
C1995 C1994 1.400 . S
C1995 C1998 1.319 1_655 S
N1996 C1998 1.356 . S
N1996 H2008 0.984 . S
N1996 H2009 0.985 . S
N1997 C1999 1.356 1_545 S
N1997 H2002 0.984 . S
N1997 H2003 0.985 . S
C1998 C1992 1.379 . S
C1998 C1995 1.319 1_455 S
C1998 N1996 1.356 . S
C1999 C1993 1.363 1_655 S
C1999 C1994 1.379 . S
C1999 N1997 1.356 1_565 S
N2000 C1992 1.356 . S
N2000 H2006 0.984 . S
N2000 H2007 0.984 . S
N2001 C1994 1.356 . S
N2001 H2004 0.984 . S
N2001 H2005 0.985 . S
H2002 N1997 0.984 . S
H2003 N1997 0.985 . S
H2004 N2001 0.984 . S
H2005 N2001 0.985 . S
H2006 N2000 0.984 . S
H2007 N2000 0.984 . S
H2008 N1996 0.984 . S
H2009 N1996 0.985 . S
C2010 C2011 1.363 . S
C2010 C2016 1.379 . S
C2010 N2018 1.356 . S
C2011 C2010 1.363 . S
C2011 C2017 1.363 . S
C2012 C2013 1.363 . S
C2012 C2017 1.379 . S
C2012 N2019 1.356 . S
C2013 C2012 1.363 . S
C2013 C2016 1.363 . S
N2014 C2016 1.356 . S
N2014 H2026 0.984 . S
N2014 H2027 0.985 . S
N2015 C2017 1.356 . S
N2015 H2020 0.984 . S
N2015 H2021 0.985 . S
C2016 C2010 1.379 . S
C2016 C2013 1.363 . S
C2016 N2014 1.356 . S
C2017 C2011 1.363 . S
C2017 C2012 1.379 . S
C2017 N2015 1.356 . S
N2018 C2010 1.356 . S
N2018 H2024 0.984 . S
N2018 H2025 0.984 . S
N2019 C2012 1.356 . S
N2019 H2022 0.984 . S
N2019 H2023 0.985 . S
H2020 N2015 0.984 . S
H2021 N2015 0.985 . S
H2022 N2019 0.984 . S
H2023 N2019 0.985 . S
H2024 N2018 0.984 . S
H2025 N2018 0.984 . S
H2026 N2014 0.984 . S
H2027 N2014 0.985 . S
C2028 C2029 1.363 . S
C2028 C2034 1.379 . S
C2028 N2036 1.356 . S
C2029 C2028 1.363 . S
C2029 C2035 1.363 1_455 S
C2030 C2031 1.396 . S
C2030 C2035 1.379 . S
C2030 N2037 1.356 . S
C2031 C2030 1.396 . S
C2031 C2034 1.323 1_655 S
N2032 C2034 1.356 . S
N2032 H2044 0.984 . S
N2032 H2045 0.985 . S
N2033 C2035 1.356 . S
N2033 H2038 0.984 . S
N2033 H2039 0.985 . S
C2034 C2028 1.379 . S
C2034 C2031 1.323 1_455 S
C2034 N2032 1.356 . S
C2035 C2029 1.363 1_655 S
C2035 C2030 1.379 . S
C2035 N2033 1.356 . S
N2036 C2028 1.356 . S
N2036 H2042 0.984 1_554 S
N2036 H2043 0.984 1_554 S
N2037 C2030 1.356 . S
N2037 H2040 0.984 . S
N2037 H2041 0.985 . S
H2038 N2033 0.984 . S
H2039 N2033 0.985 . S
H2040 N2037 0.984 . S
H2041 N2037 0.985 . S
H2042 N2036 0.984 1_556 S
H2043 N2036 0.984 1_556 S
H2044 N2032 0.984 . S
H2045 N2032 0.985 . S
C2046 C2047 1.363 . S
C2046 C2052 1.379 . S
C2046 N2054 1.356 1_554 S
C2047 C2046 1.363 . S
C2047 C2053 1.363 . S
C2048 C2049 1.363 . S
C2048 C2053 1.379 . S
C2048 N2055 1.356 . S
C2049 C2048 1.363 . S
C2049 C2052 1.363 . S
N2050 C2052 1.356 . S
N2050 H2062 0.984 . S
N2050 H2063 0.985 . S
N2051 C2053 1.356 1_545 S
N2051 H2056 0.984 . S
N2051 H2057 0.985 . S
C2052 C2046 1.379 . S
C2052 C2049 1.363 . S
C2052 N2050 1.356 . S
C2053 C2047 1.363 . S
C2053 C2048 1.379 . S
C2053 N2051 1.356 1_565 S
N2054 C2046 1.356 1_556 S
N2054 H2060 0.984 . S
N2054 H2061 0.984 . S
N2055 C2048 1.356 . S
N2055 H2058 0.984 . S
N2055 H2059 0.985 . S
H2056 N2051 0.984 . S
H2057 N2051 0.985 . S
H2058 N2055 0.984 . S
H2059 N2055 0.985 . S
H2060 N2054 0.984 . S
H2061 N2054 0.984 . S
H2062 N2050 0.984 . S
H2063 N2050 0.985 . S
C2064 C2065 1.354 1_455 S
C2064 C2070 1.384 . S
C2064 N2072 1.359 . S
C2065 C2064 1.354 1_655 S
C2065 C2071 1.363 . S
C2066 C2067 1.349 1_655 S
C2066 C2071 1.379 . S
C2066 N2073 1.356 . S
C2067 C2066 1.349 1_455 S
C2067 C2070 1.371 . S
N2068 C2070 1.356 . S
N2068 H2080 0.984 . S
N2068 H2081 0.985 . S
N2069 C2071 1.356 . S
N2069 H2074 0.984 . S
N2069 H2075 0.985 . S
C2070 C2064 1.384 . S
C2070 C2067 1.371 . S
C2070 N2068 1.356 . S
C2071 C2065 1.363 . S
C2071 C2066 1.379 . S
C2071 N2069 1.356 . S
N2072 C2064 1.359 . S
N2072 H2078 0.984 . S
N2072 H2079 0.984 1_455 S
N2073 C2066 1.356 . S
N2073 H2076 0.984 . S
N2073 H2077 0.985 . S
H2074 N2069 0.984 . S
H2075 N2069 0.985 . S
H2076 N2073 0.984 . S
H2077 N2073 0.985 . S
H2078 N2072 0.984 . S
H2079 N2072 0.984 1_655 S
H2080 N2068 0.984 . S
H2081 N2068 0.985 . S
C2082 C2083 1.363 . S
C2082 C2088 1.379 . S
C2082 N2090 1.356 . S
C2083 C2082 1.363 . S
C2083 C2089 1.363 . S
C2084 C2085 1.363 . S
C2084 C2089 1.379 . S
C2084 N2091 1.356 . S
C2085 C2084 1.363 . S
C2085 C2088 1.363 . S
N2086 C2088 1.356 . S
N2086 H2098 0.984 . S
N2086 H2099 0.985 . S
N2087 C2089 1.356 . S
N2087 H2092 0.984 . S
N2087 H2093 0.985 . S
C2088 C2082 1.379 . S
C2088 C2085 1.363 . S
C2088 N2086 1.356 . S
C2089 C2083 1.363 . S
C2089 C2084 1.379 . S
C2089 N2087 1.356 . S
N2090 C2082 1.356 . S
N2090 H2096 0.984 . S
N2090 H2097 0.984 . S
N2091 C2084 1.356 . S
N2091 H2094 0.984 . S
N2091 H2095 0.985 . S
H2092 N2087 0.984 . S
H2093 N2087 0.985 . S
H2094 N2091 0.984 . S
H2095 N2091 0.985 . S
H2096 N2090 0.984 . S
H2097 N2090 0.984 . S
H2098 N2086 0.984 . S
H2099 N2086 0.985 . S
C2100 C2101 1.363 . S
C2100 C2106 1.379 1_655 S
C2100 N2108 1.356 1_655 S
C2101 C2100 1.363 . S
C2101 C2107 1.363 . S
C2102 C2103 1.351 1_655 S
C2102 C2107 1.379 . S
C2102 N2109 1.356 . S
C2103 C2102 1.351 1_455 S
C2103 C2106 1.369 . S
N2104 C2106 1.356 . S
N2104 H2116 0.984 . S
N2104 H2117 0.985 . S
N2105 C2107 1.356 . S
N2105 H2110 0.984 . S
N2105 H2111 0.985 . S
C2106 C2100 1.379 1_455 S
C2106 C2103 1.369 . S
C2106 N2104 1.356 . S
C2107 C2101 1.363 . S
C2107 C2102 1.379 . S
C2107 N2105 1.356 . S
N2108 C2100 1.356 1_455 S
N2108 H2114 0.991 . S
N2108 H2115 0.979 1_455 S
N2109 C2102 1.356 . S
N2109 H2112 0.984 . S
N2109 H2113 0.985 . S
H2110 N2105 0.984 . S
H2111 N2105 0.985 . S
H2112 N2109 0.984 . S
H2113 N2109 0.985 . S
H2114 N2108 0.991 . S
H2115 N2108 0.979 1_655 S
H2116 N2104 0.984 . S
H2117 N2104 0.985 . S
C2118 C2119 1.363 . S
C2118 C2124 1.379 . S
C2118 N2126 1.356 . S
C2119 C2118 1.363 . S
C2119 C2125 1.363 . S
C2120 C2121 1.363 . S
C2120 C2125 1.379 . S
C2120 N2127 1.356 . S
C2121 C2120 1.363 . S
C2121 C2124 1.363 . S
N2122 C2124 1.356 . S
N2122 H2134 0.984 . S
N2122 H2135 0.985 . S
N2123 C2125 1.356 . S
N2123 H2128 0.984 . S
N2123 H2129 0.985 . S
C2124 C2118 1.379 . S
C2124 C2121 1.363 . S
C2124 N2122 1.356 . S
C2125 C2119 1.363 . S
C2125 C2120 1.379 . S
C2125 N2123 1.356 . S
N2126 C2118 1.356 . S
N2126 H2132 0.984 . S
N2126 H2133 0.984 . S
N2127 C2120 1.356 . S
N2127 H2130 0.984 . S
N2127 H2131 0.985 . S
H2128 N2123 0.984 . S
H2129 N2123 0.985 . S
H2130 N2127 0.984 . S
H2131 N2127 0.985 . S
H2132 N2126 0.984 . S
H2133 N2126 0.984 . S
H2134 N2122 0.984 . S
H2135 N2122 0.985 . S
C2136 C2137 1.355 1_455 S
C2136 C2142 1.379 . S
C2136 N2144 1.356 . S
C2137 C2136 1.355 1_655 S
C2137 C2143 1.365 . S
C2138 C2139 1.363 . S
C2138 C2143 1.379 1_455 S
C2138 N2145 1.356 . S
C2139 C2138 1.363 . S
C2139 C2142 1.363 . S
N2140 C2142 1.356 . S
N2140 H2152 0.984 . S
N2140 H2153 0.985 . S
N2141 C2143 1.356 . S
N2141 H2146 0.984 . S
N2141 H2147 0.985 . S
C2142 C2136 1.379 . S
C2142 C2139 1.363 . S
C2142 N2140 1.356 . S
C2143 C2137 1.365 . S
C2143 C2138 1.379 1_655 S
C2143 N2141 1.356 . S
N2144 C2136 1.356 . S
N2144 H2150 0.984 . S
N2144 H2151 0.978 1_455 S
N2145 C2138 1.356 . S
N2145 H2148 0.984 . S
N2145 H2149 0.989 . S
H2146 N2141 0.984 . S
H2147 N2141 0.985 . S
H2148 N2145 0.984 . S
H2149 N2145 0.989 . S
H2150 N2144 0.984 . S
H2151 N2144 0.978 1_655 S
H2152 N2140 0.984 . S
H2153 N2140 0.985 . S
C2154 C2155 1.363 . S
C2154 C2160 1.379 . S
C2154 N2162 1.356 . S
C2155 C2154 1.363 . S
C2155 C2161 1.363 . S
C2156 C2157 1.363 . S
C2156 C2161 1.379 . S
C2156 N2163 1.356 . S
C2157 C2156 1.363 . S
C2157 C2160 1.363 . S
N2158 C2160 1.356 . S
N2158 H2170 0.984 . S
N2158 H2171 0.985 . S
N2159 C2161 1.356 . S
N2159 H2164 0.984 . S
N2159 H2165 0.985 . S
C2160 C2154 1.379 . S
C2160 C2157 1.363 . S
C2160 N2158 1.356 . S
C2161 C2155 1.363 . S
C2161 C2156 1.379 . S
C2161 N2159 1.356 . S
N2162 C2154 1.356 . S
N2162 H2168 0.984 . S
N2162 H2169 0.984 . S
N2163 C2156 1.356 . S
N2163 H2166 0.984 . S
N2163 H2167 0.985 . S
H2164 N2159 0.984 . S
H2165 N2159 0.985 . S
H2166 N2163 0.984 . S
H2167 N2163 0.985 . S
H2168 N2162 0.984 . S
H2169 N2162 0.984 . S
H2170 N2158 0.984 . S
H2171 N2158 0.985 . S
C2172 C2173 1.363 1_655 S
C2172 C2178 1.379 . S
C2172 N2180 1.356 . S
C2173 C2172 1.363 1_455 S
C2173 C2179 1.363 . S
C2174 C2175 1.338 1_455 S
C2174 C2179 1.379 . S
C2174 N2181 1.356 . S
C2175 C2174 1.338 1_655 S
C2175 C2178 1.381 . S
N2176 C2178 1.356 . S
N2176 H2188 0.984 . S
N2176 H2189 0.985 . S
N2177 C2179 1.356 . S
N2177 H2182 0.984 . S
N2177 H2183 0.985 . S
C2178 C2172 1.379 . S
C2178 C2175 1.381 . S
C2178 N2176 1.356 . S
C2179 C2173 1.363 . S
C2179 C2174 1.379 . S
C2179 N2177 1.356 . S
N2180 C2172 1.356 . S
N2180 H2186 0.984 . S
N2180 H2187 0.984 . S
N2181 C2174 1.356 . S
N2181 H2184 0.984 . S
N2181 H2185 0.985 . S
H2182 N2177 0.984 . S
H2183 N2177 0.985 . S
H2184 N2181 0.984 . S
H2185 N2181 0.985 . S
H2186 N2180 0.984 . S
H2187 N2180 0.984 . S
H2188 N2176 0.984 . S
H2189 N2176 0.985 . S
C2190 C2191 1.363 . S
C2190 C2196 1.379 . S
C2190 N2198 1.356 . S
C2191 C2190 1.363 . S
C2191 C2197 1.363 . S
C2192 C2193 1.363 . S
C2192 C2197 1.379 . S
C2192 N2199 1.356 . S
C2193 C2192 1.363 . S
C2193 C2196 1.363 . S
N2194 C2196 1.356 . S
N2194 H2206 0.984 . S
N2194 H2207 0.985 . S
N2195 C2197 1.356 . S
N2195 H2200 0.984 . S
N2195 H2201 0.985 . S
C2196 C2190 1.379 . S
C2196 C2193 1.363 . S
C2196 N2194 1.356 . S
C2197 C2191 1.363 . S
C2197 C2192 1.379 . S
C2197 N2195 1.356 . S
N2198 C2190 1.356 . S
N2198 H2204 0.984 . S
N2198 H2205 0.984 . S
N2199 C2192 1.356 . S
N2199 H2202 0.984 . S
N2199 H2203 0.985 . S
H2200 N2195 0.984 . S
H2201 N2195 0.985 . S
H2202 N2199 0.984 . S
H2203 N2199 0.985 . S
H2204 N2198 0.984 . S
H2205 N2198 0.984 . S
H2206 N2194 0.984 . S
H2207 N2194 0.985 . S
C2208 C2209 1.363 . S
C2208 C2214 1.379 . S
C2208 N2216 1.356 . S
C2209 C2208 1.363 . S
C2209 C2215 1.363 . S
C2210 C2211 1.363 . S
C2210 C2215 1.379 . S
C2210 N2217 1.356 . S
C2211 C2210 1.363 . S
C2211 C2214 1.363 . S
N2212 C2214 1.356 . S
N2212 H2224 0.984 . S
N2212 H2225 0.985 . S
N2213 C2215 1.356 1_565 S
N2213 H2218 0.984 . S
N2213 H2219 0.985 . S
C2214 C2208 1.379 . S
C2214 C2211 1.363 . S
C2214 N2212 1.356 . S
C2215 C2209 1.363 . S
C2215 C2210 1.379 . S
C2215 N2213 1.356 1_545 S
N2216 C2208 1.356 . S
N2216 H2222 0.984 . S
N2216 H2223 0.984 . S
N2217 C2210 1.356 . S
N2217 H2220 0.984 . S
N2217 H2221 0.985 . S
H2218 N2213 0.984 . S
H2219 N2213 0.985 . S
H2220 N2217 0.984 . S
H2221 N2217 0.985 . S
H2222 N2216 0.984 . S
H2223 N2216 0.984 . S
H2224 N2212 0.984 . S
H2225 N2212 0.985 . S
C2226 C2227 1.363 . S
C2226 C2232 1.379 . S
C2226 N2234 1.356 . S
C2227 C2226 1.363 . S
C2227 C2233 1.363 . S
C2228 C2229 1.363 . S
C2228 C2233 1.379 . S
C2228 N2235 1.356 . S
C2229 C2228 1.363 . S
C2229 C2232 1.363 . S
N2230 C2232 1.356 . S
N2230 H2242 0.984 . S
N2230 H2243 0.985 . S
N2231 C2233 1.356 . S
N2231 H2236 0.984 . S
N2231 H2237 0.985 . S
C2232 C2226 1.379 . S
C2232 C2229 1.363 . S
C2232 N2230 1.356 . S
C2233 C2227 1.363 . S
C2233 C2228 1.379 . S
C2233 N2231 1.356 . S
N2234 C2226 1.356 . S
N2234 H2240 0.984 . S
N2234 H2241 0.984 . S
N2235 C2228 1.356 . S
N2235 H2238 0.984 . S
N2235 H2239 0.985 . S
H2236 N2231 0.984 . S
H2237 N2231 0.985 . S
H2238 N2235 0.984 . S
H2239 N2235 0.985 . S
H2240 N2234 0.984 . S
H2241 N2234 0.984 . S
H2242 N2230 0.984 . S
H2243 N2230 0.985 . S
C2244 C2245 1.363 . S
C2244 C2250 1.379 . S
C2244 N2252 1.356 . S
C2245 C2244 1.363 . S
C2245 C2251 1.363 . S
C2246 C2247 1.363 . S
C2246 C2251 1.379 . S
C2246 N2253 1.356 . S
C2247 C2246 1.363 . S
C2247 C2250 1.363 . S
N2248 C2250 1.356 . S
N2248 H2260 0.984 . S
N2248 H2261 0.985 . S
N2249 C2251 1.356 . S
N2249 H2254 0.984 . S
N2249 H2255 0.985 . S
C2250 C2244 1.379 . S
C2250 C2247 1.363 . S
C2250 N2248 1.356 . S
C2251 C2245 1.363 . S
C2251 C2246 1.379 . S
C2251 N2249 1.356 . S
N2252 C2244 1.356 . S
N2252 H2258 0.984 . S
N2252 H2259 0.984 . S
N2253 C2246 1.356 . S
N2253 H2256 0.984 . S
N2253 H2257 0.985 . S
H2254 N2249 0.984 . S
H2255 N2249 0.985 . S
H2256 N2253 0.984 . S
H2257 N2253 0.985 . S
H2258 N2252 0.984 . S
H2259 N2252 0.984 . S
H2260 N2248 0.984 . S
H2261 N2248 0.985 . S
C2262 C2263 1.363 . S
C2262 C2268 1.379 . S
C2262 N2270 1.356 . S
C2263 C2262 1.363 . S
C2263 C2269 1.363 . S
C2264 C2265 1.363 . S
C2264 C2269 1.379 . S
C2264 N2271 1.356 1_545 S
C2265 C2264 1.363 . S
C2265 C2268 1.363 . S
N2266 C2268 1.356 . S
N2266 H2278 0.984 . S
N2266 H2279 0.985 . S
N2267 C2269 1.356 . S
N2267 H2272 0.984 . S
N2267 H2273 0.985 . S
C2268 C2262 1.379 . S
C2268 C2265 1.363 . S
C2268 N2266 1.356 . S
C2269 C2263 1.363 . S
C2269 C2264 1.379 . S
C2269 N2267 1.356 . S
N2270 C2262 1.356 . S
N2270 H2276 0.984 . S
N2270 H2277 0.984 . S
N2271 C2264 1.356 1_565 S
N2271 H2274 0.984 . S
N2271 H2275 0.985 . S
H2272 N2267 0.984 . S
H2273 N2267 0.985 . S
H2274 N2271 0.984 . S
H2275 N2271 0.985 . S
H2276 N2270 0.984 . S
H2277 N2270 0.984 . S
H2278 N2266 0.984 . S
H2279 N2266 0.985 . S
C2280 C2281 1.365 . S
C2280 C2286 1.382 . S
C2280 N2288 1.351 1_565 S
C2281 C2280 1.365 . S
C2281 C2287 1.363 . S
C2282 C2283 1.363 . S
C2282 C2287 1.379 . S
C2282 N2289 1.356 . S
C2283 C2282 1.363 . S
C2283 C2286 1.363 . S
N2284 C2286 1.356 . S
N2284 H2296 0.984 1_565 S
N2284 H2297 0.985 . S
N2285 C2287 1.356 . S
N2285 H2290 0.984 . S
N2285 H2291 0.985 . S
C2286 C2280 1.382 . S
C2286 C2283 1.363 . S
C2286 N2284 1.356 . S
C2287 C2281 1.363 . S
C2287 C2282 1.379 . S
C2287 N2285 1.356 . S
N2288 C2280 1.351 1_545 S
N2288 H2294 0.984 . S
N2288 H2295 0.984 . S
N2289 C2282 1.356 . S
N2289 H2292 0.984 . S
N2289 H2293 0.985 . S
H2290 N2285 0.984 . S
H2291 N2285 0.985 . S
H2292 N2289 0.984 . S
H2293 N2289 0.985 . S
H2294 N2288 0.984 . S
H2295 N2288 0.984 . S
H2296 N2284 0.984 1_545 S
H2297 N2284 0.985 . S
C2298 C2299 1.363 . S
C2298 C2304 1.379 . S
C2298 N2306 1.356 . S
C2299 C2298 1.363 . S
C2299 C2305 1.363 . S
C2300 C2301 1.363 . S
C2300 C2305 1.379 . S
C2300 N2307 1.356 . S
C2301 C2300 1.363 . S
C2301 C2304 1.363 . S
N2302 C2304 1.356 . S
N2302 H2314 0.984 . S
N2302 H2315 0.985 . S
N2303 C2305 1.356 . S
N2303 H2308 0.984 . S
N2303 H2309 0.985 . S
C2304 C2298 1.379 . S
C2304 C2301 1.363 . S
C2304 N2302 1.356 . S
C2305 C2299 1.363 . S
C2305 C2300 1.379 . S
C2305 N2303 1.356 . S
N2306 C2298 1.356 . S
N2306 H2312 0.984 . S
N2306 H2313 0.984 . S
N2307 C2300 1.356 . S
N2307 H2310 0.984 . S
N2307 H2311 0.985 . S
H2308 N2303 0.984 . S
H2309 N2303 0.985 . S
H2310 N2307 0.984 . S
H2311 N2307 0.985 . S
H2312 N2306 0.984 . S
H2313 N2306 0.984 . S
H2314 N2302 0.984 . S
H2315 N2302 0.985 . S
C2316 C2317 1.363 . S
C2316 C2322 1.379 . S
C2316 N2324 1.356 . S
C2317 C2316 1.363 . S
C2317 C2323 1.363 . S
C2318 C2319 1.363 . S
C2318 C2323 1.379 . S
C2318 N2325 1.356 . S
C2319 C2318 1.363 . S
C2319 C2322 1.363 . S
N2320 C2322 1.356 . S
N2320 H2332 0.984 . S
N2320 H2333 0.985 . S
N2321 C2323 1.356 . S
N2321 H2326 0.984 . S
N2321 H2327 0.985 . S
C2322 C2316 1.379 . S
C2322 C2319 1.363 . S
C2322 N2320 1.356 . S
C2323 C2317 1.363 . S
C2323 C2318 1.379 . S
C2323 N2321 1.356 . S
N2324 C2316 1.356 . S
N2324 H2330 0.984 . S
N2324 H2331 0.984 . S
N2325 C2318 1.356 . S
N2325 H2328 0.984 . S
N2325 H2329 0.985 . S
H2326 N2321 0.984 . S
H2327 N2321 0.985 . S
H2328 N2325 0.984 . S
H2329 N2325 0.985 . S
H2330 N2324 0.984 . S
H2331 N2324 0.984 . S
H2332 N2320 0.984 . S
H2333 N2320 0.985 . S
C2334 C2335 1.363 . S
C2334 C2340 1.379 . S
C2334 N2342 1.356 . S
C2335 C2334 1.363 . S
C2335 C2341 1.363 . S
C2336 C2337 1.363 . S
C2336 C2341 1.379 . S
C2336 N2343 1.356 . S
C2337 C2336 1.363 . S
C2337 C2340 1.363 . S
N2338 C2340 1.356 1_545 S
N2338 H2350 0.984 . S
N2338 H2351 0.985 . S
N2339 C2341 1.356 . S
N2339 H2344 0.984 . S
N2339 H2345 0.985 . S
C2340 C2334 1.379 . S
C2340 C2337 1.363 . S
C2340 N2338 1.356 1_565 S
C2341 C2335 1.363 . S
C2341 C2336 1.379 . S
C2341 N2339 1.356 . S
N2342 C2334 1.356 . S
N2342 H2348 0.984 . S
N2342 H2349 0.984 . S
N2343 C2336 1.356 . S
N2343 H2346 0.984 . S
N2343 H2347 0.985 . S
H2344 N2339 0.984 . S
H2345 N2339 0.985 . S
H2346 N2343 0.984 . S
H2347 N2343 0.985 . S
H2348 N2342 0.984 . S
H2349 N2342 0.984 . S
H2350 N2338 0.984 . S
H2351 N2338 0.985 . S
C2352 C2353 1.363 . S
C2352 C2358 1.379 . S
C2352 N2360 1.356 . S
C2353 C2352 1.363 . S
C2353 C2359 1.363 . S
C2354 C2355 1.363 . S
C2354 C2359 1.379 . S
C2354 N2361 1.356 . S
C2355 C2354 1.363 . S
C2355 C2358 1.363 . S
N2356 C2358 1.356 . S
N2356 H2368 0.984 . S
N2356 H2369 0.985 . S
N2357 C2359 1.356 . S
N2357 H2362 0.984 . S
N2357 H2363 0.985 . S
C2358 C2352 1.379 . S
C2358 C2355 1.363 . S
C2358 N2356 1.356 . S
C2359 C2353 1.363 . S
C2359 C2354 1.379 . S
C2359 N2357 1.356 . S
N2360 C2352 1.356 . S
N2360 H2366 0.984 . S
N2360 H2367 0.984 . S
N2361 C2354 1.356 . S
N2361 H2364 0.984 . S
N2361 H2365 0.985 . S
H2362 N2357 0.984 . S
H2363 N2357 0.985 . S
H2364 N2361 0.984 . S
H2365 N2361 0.985 . S
H2366 N2360 0.984 . S
H2367 N2360 0.984 . S
H2368 N2356 0.984 . S
H2369 N2356 0.985 . S
C2370 C2371 1.363 . S
C2370 C2376 1.379 . S
C2370 N2378 1.356 . S
C2371 C2370 1.363 . S
C2371 C2377 1.363 . S
C2372 C2373 1.363 . S
C2372 C2377 1.379 . S
C2372 N2379 1.356 . S
C2373 C2372 1.363 . S
C2373 C2376 1.363 . S
N2374 C2376 1.356 . S
N2374 H2386 0.984 . S
N2374 H2387 0.985 . S
N2375 C2377 1.356 . S
N2375 H2380 0.984 . S
N2375 H2381 0.985 . S
C2376 C2370 1.379 . S
C2376 C2373 1.363 . S
C2376 N2374 1.356 . S
C2377 C2371 1.363 . S
C2377 C2372 1.379 . S
C2377 N2375 1.356 . S
N2378 C2370 1.356 . S
N2378 H2384 0.984 . S
N2378 H2385 0.984 . S
N2379 C2372 1.356 . S
N2379 H2382 0.984 . S
N2379 H2383 0.985 . S
H2380 N2375 0.984 . S
H2381 N2375 0.985 . S
H2382 N2379 0.984 . S
H2383 N2379 0.985 . S
H2384 N2378 0.984 . S
H2385 N2378 0.984 . S
H2386 N2374 0.984 . S
H2387 N2374 0.985 . S
C2388 C2389 1.363 . S
C2388 C2394 1.379 . S
C2388 N2396 1.356 . S
C2389 C2388 1.363 . S
C2389 C2395 1.363 . S
C2390 C2391 1.363 . S
C2390 C2395 1.379 . S
C2390 N2397 1.356 1_556 S
C2391 C2390 1.363 . S
C2391 C2394 1.363 . S
N2392 C2394 1.356 . S
N2392 H2404 0.984 . S
N2392 H2405 0.985 . S
N2393 C2395 1.356 . S
N2393 H2398 0.984 . S
N2393 H2399 0.985 . S
C2394 C2388 1.379 . S
C2394 C2391 1.363 . S
C2394 N2392 1.356 . S
C2395 C2389 1.363 . S
C2395 C2390 1.379 . S
C2395 N2393 1.356 . S
N2396 C2388 1.356 . S
N2396 H2402 0.984 . S
N2396 H2403 0.984 . S
N2397 C2390 1.356 1_554 S
N2397 H2400 0.984 . S
N2397 H2401 0.985 . S
H2398 N2393 0.984 . S
H2399 N2393 0.985 . S
H2400 N2397 0.984 . S
H2401 N2397 0.985 . S
H2402 N2396 0.984 . S
H2403 N2396 0.984 . S
H2404 N2392 0.984 . S
H2405 N2392 0.985 . S
C2406 C2407 1.363 . S
C2406 C2412 1.379 . S
C2406 N2414 1.356 . S
C2407 C2406 1.363 . S
C2407 C2413 1.363 . S
C2408 C2409 1.363 . S
C2408 C2413 1.379 . S
C2408 N2415 1.356 . S
C2409 C2408 1.363 . S
C2409 C2412 1.363 . S
N2410 C2412 1.356 1_554 S
N2410 H2422 0.984 . S
N2410 H2423 0.985 . S
N2411 C2413 1.356 . S
N2411 H2416 0.984 . S
N2411 H2417 0.985 . S
C2412 C2406 1.379 . S
C2412 C2409 1.363 . S
C2412 N2410 1.356 1_556 S
C2413 C2407 1.363 . S
C2413 C2408 1.379 . S
C2413 N2411 1.356 . S
N2414 C2406 1.356 . S
N2414 H2420 0.984 . S
N2414 H2421 0.984 . S
N2415 C2408 1.356 . S
N2415 H2418 0.984 . S
N2415 H2419 0.985 . S
H2416 N2411 0.984 . S
H2417 N2411 0.985 . S
H2418 N2415 0.984 . S
H2419 N2415 0.985 . S
H2420 N2414 0.984 . S
H2421 N2414 0.984 . S
H2422 N2410 0.984 . S
H2423 N2410 0.985 . S
C2424 C2425 1.363 . S
C2424 C2430 1.379 . S
C2424 N2432 1.356 . S
C2425 C2424 1.363 . S
C2425 C2431 1.363 . S
C2426 C2427 1.363 . S
C2426 C2431 1.379 . S
C2426 N2433 1.356 . S
C2427 C2426 1.363 . S
C2427 C2430 1.363 . S
N2428 C2430 1.356 . S
N2428 H2440 0.984 . S
N2428 H2441 0.985 . S
N2429 C2431 1.356 . S
N2429 H2434 0.984 . S
N2429 H2435 0.985 . S
C2430 C2424 1.379 . S
C2430 C2427 1.363 . S
C2430 N2428 1.356 . S
C2431 C2425 1.363 . S
C2431 C2426 1.379 . S
C2431 N2429 1.356 . S
N2432 C2424 1.356 . S
N2432 H2438 0.984 . S
N2432 H2439 0.984 . S
N2433 C2426 1.356 . S
N2433 H2436 0.984 . S
N2433 H2437 0.985 . S
H2434 N2429 0.984 . S
H2435 N2429 0.985 . S
H2436 N2433 0.984 . S
H2437 N2433 0.985 . S
H2438 N2432 0.984 . S
H2439 N2432 0.984 . S
H2440 N2428 0.984 . S
H2441 N2428 0.985 . S
C2442 C2443 1.363 . S
C2442 C2448 1.379 . S
C2442 N2450 1.356 . S
C2443 C2442 1.363 . S
C2443 C2449 1.363 . S
C2444 C2445 1.363 . S
C2444 C2449 1.379 . S
C2444 N2451 1.356 . S
C2445 C2444 1.363 . S
C2445 C2448 1.363 . S
N2446 C2448 1.356 . S
N2446 H2458 0.984 . S
N2446 H2459 0.985 . S
N2447 C2449 1.356 . S
N2447 H2452 0.984 . S
N2447 H2453 0.985 . S
C2448 C2442 1.379 . S
C2448 C2445 1.363 . S
C2448 N2446 1.356 . S
C2449 C2443 1.363 . S
C2449 C2444 1.379 . S
C2449 N2447 1.356 . S
N2450 C2442 1.356 . S
N2450 H2456 0.984 . S
N2450 H2457 0.984 . S
N2451 C2444 1.356 . S
N2451 H2454 0.984 . S
N2451 H2455 0.985 . S
H2452 N2447 0.984 . S
H2453 N2447 0.985 . S
H2454 N2451 0.984 . S
H2455 N2451 0.985 . S
H2456 N2450 0.984 . S
H2457 N2450 0.984 . S
H2458 N2446 0.984 . S
H2459 N2446 0.985 . S
C2460 C2461 1.363 . S
C2460 C2466 1.379 . S
C2460 N2468 1.356 . S
C2461 C2460 1.363 . S
C2461 C2467 1.363 . S
C2462 C2463 1.363 . S
C2462 C2467 1.379 . S
C2462 N2469 1.356 1_554 S
C2463 C2462 1.363 . S
C2463 C2466 1.363 . S
N2464 C2466 1.356 . S
N2464 H2476 0.984 . S
N2464 H2477 0.985 . S
N2465 C2467 1.356 . S
N2465 H2470 0.984 . S
N2465 H2471 0.985 . S
C2466 C2460 1.379 . S
C2466 C2463 1.363 . S
C2466 N2464 1.356 . S
C2467 C2461 1.363 . S
C2467 C2462 1.379 . S
C2467 N2465 1.356 . S
N2468 C2460 1.356 . S
N2468 H2474 0.984 . S
N2468 H2475 0.984 . S
N2469 C2462 1.356 1_556 S
N2469 H2472 0.984 . S
N2469 H2473 0.985 . S
H2470 N2465 0.984 . S
H2471 N2465 0.985 . S
H2472 N2469 0.984 . S
H2473 N2469 0.985 . S
H2474 N2468 0.984 . S
H2475 N2468 0.984 . S
H2476 N2464 0.984 . S
H2477 N2464 0.985 . S
C2478 C2479 1.363 . S
C2478 C2484 1.379 . S
C2478 N2486 1.356 . S
C2479 C2478 1.363 . S
C2479 C2485 1.363 . S
C2480 C2481 1.363 . S
C2480 C2485 1.379 . S
C2480 N2487 1.356 . S
C2481 C2480 1.363 . S
C2481 C2484 1.363 . S
N2482 C2484 1.356 . S
N2482 H2494 0.984 . S
N2482 H2495 0.985 . S
N2483 C2485 1.356 . S
N2483 H2488 0.984 1_554 S
N2483 H2489 0.985 . S
C2484 C2478 1.379 . S
C2484 C2481 1.363 . S
C2484 N2482 1.356 . S
C2485 C2479 1.363 . S
C2485 C2480 1.379 . S
C2485 N2483 1.356 . S
N2486 C2478 1.356 . S
N2486 H2492 0.984 . S
N2486 H2493 0.984 1_554 S
N2487 C2480 1.356 . S
N2487 H2490 0.984 . S
N2487 H2491 0.985 . S
H2488 N2483 0.984 1_556 S
H2489 N2483 0.985 . S
H2490 N2487 0.984 . S
H2491 N2487 0.985 . S
H2492 N2486 0.984 . S
H2493 N2486 0.984 1_556 S
H2494 N2482 0.984 . S
H2495 N2482 0.985 . S
C1057 N398 1.129 . S
C1059 N2 1.129 . S
C1075 N695 1.129 . S
C1077 N35 1.129 . S
C1093 N200 1.129 . S
C1095 N68 1.129 . S
C1111 N1025 1.129 . S
C1113 N101 1.129 . S
C1129 N266 1.129 . S
C1131 N134 1.129 . S
C1147 N563 1.129 . S
C1149 N167 1.129 . S
C1165 N233 1.129 . S
C1167 N893 1.129 . S
C1183 N299 1.129 . S
C1185 N959 1.129 . S
C1201 N464 1.129 . S
C1203 N332 1.129 . S
C1219 N365 1.129 . S
C1221 N761 1.129 . S
C1237 N827 1.129 . S
C1239 N431 1.129 . S
C1255 N497 1.129 . S
C1257 N629 1.129 . S
C1273 N926 1.129 . S
C1275 N530 1.129 . S
C1291 N728 1.129 . S
C1293 N596 1.129 . S
C1309 N662 1.129 . S
C1311 N794 1.129 . S
C1327 N992 1.129 . S
C1329 N860 1.129 . S
C1345 N13 1.135 . S
C1347 N79 1.135 . S
C1363 N46 1.135 . S
C1365 N112 1.135 . S
C1381 N211 1.135 . S
C1383 N145 1.135 . S
C1399 N244 1.135 . S
C1401 N178 1.135 . S
C1417 N277 1.135 . S
C1419 N343 1.135 . S
C1435 N376 1.135 . S
C1437 N310 1.135 . S
C1453 N475 1.135 . S
C1455 N409 1.135 . S
C1471 N508 1.135 . S
C1473 N442 1.135 . S
C1489 N541 1.135 . S
C1491 N607 1.135 . S
C1507 N640 1.135 . S
C1509 N574 1.135 . S
C1525 N739 1.135 . S
C1527 N673 1.135 . S
C1543 N772 1.135 . S
C1545 N706 1.135 . S
C1561 N805 1.135 . S
C1563 N871 1.135 . S
C1579 N904 1.135 . S
C1581 N838 1.135 . S
C1597 N937 1.135 . S
C1599 N1003 1.135 . S
C1615 N1036 1.135 . S
C1617 N970 1.135 . S
C1633 C21 1.600 . S
C1635 C54 1.600 . S
C1651 C120 1.600 . S
C1653 C87 1.600 . S
C1669 C186 1.600 . S
C1671 C153 1.600 . S
C1687 C219 1.600 . S
C1689 C252 1.600 . S
C1705 C285 1.600 . S
C1707 C318 1.600 . S
C1723 C351 1.600 . S
C1725 C384 1.600 . S
C1741 C450 1.600 . S
C1743 C417 1.600 . S
C1759 C516 1.600 . S
C1761 C483 1.600 . S
C1777 C549 1.600 . S
C1779 C582 1.600 . S
C1795 C648 1.600 . S
C1797 C615 1.600 . S
C1813 C714 1.600 . S
C1815 C681 1.600 . S
C1831 C780 1.600 . S
C1833 C747 1.600 . S
C1849 C846 1.600 . S
C1851 C813 1.600 . S
C1867 C912 1.600 . S
C1869 C879 1.600 . S
C1885 C945 1.600 . S
C1887 C978 1.600 . S
C1903 C1044 1.600 . S
C1905 C1011 1.600 . S
C1921 C7 1.792 . S
C1923 C216 1.838 1_545 S
C1939 C1041 1.838 . S
C1941 C40 1.773 . S
C1957 C414 1.838 1_556 S
C1959 C73 1.791 . S
C1975 C106 1.773 . S
C1977 C711 1.838 1_546 S
C1993 C84 1.838 1_565 S
C1995 C139 1.792 . S
C2011 C909 1.838 . S
C2013 C172 1.773 . S
C2029 C282 1.838 1_554 S
C2031 C205 1.791 . S
C2047 C579 1.838 1_564 S
C2049 C238 1.773 . S
C2065 C480 1.838 . S
C2067 C271 1.792 . S
C2083 C777 1.838 . S
C2085 C304 1.773 . S
C2101 C150 1.838 . S
C2103 C337 1.791 . S
C2119 C975 1.838 . S
C2121 C370 1.773 . S
C2137 C403 1.792 . S
C2139 C348 1.838 . S
C2155 C645 1.838 . S
C2157 C436 1.773 . S
C2173 C18 1.838 . S
C2175 C469 1.791 . S
C2191 C843 1.838 . S
C2193 C502 1.773 . S
C2209 C744 1.838 1_545 S
C2211 C535 1.773 . S
C2227 C568 1.773 . S
C2229 C513 1.838 . S
C2245 C942 1.838 . S
C2247 C601 1.773 . S
C2263 C634 1.773 . S
C2265 C183 1.838 1_545 S
C2281 C612 1.838 1_565 S
C2283 C667 1.773 . S
C2299 C700 1.773 . S
C2301 C381 1.838 . S
C2317 C733 1.773 . S
C2319 C810 1.838 . S
C2335 C766 1.773 . S
C2337 C51 1.838 1_565 S
C2353 C799 1.773 . S
C2355 C1008 1.838 . S
C2371 C832 1.773 . S
C2373 C249 1.838 . S
C2389 C865 1.773 . S
C2391 C678 1.838 1_556 S
C2407 C898 1.773 . S
C2409 C447 1.838 1_556 S
C2425 C931 1.773 . S
C2427 C876 1.838 . S
C2443 C117 1.838 . S
C2445 C964 1.773 . S
C2461 C997 1.773 . S
C2463 C546 1.838 1_554 S
C2479 C315 1.838 1_554 S
C2481 C1030 1.773 . S
