# Generated by pormake.
# Topology vbw, (6)-cn, num edge types: 1
# Building blocks:
#     Node 0, Type 0, BuildingBlock: MIDCAF_clean_sbu_0, # of connection points: 6
#     Node 1, Type 0, BuildingBlock: MIDCAF_clean_sbu_0, # of connection points: 6
#     Node 2, Type 0, BuildingBlock: MIDCAF_clean_sbu_0, # of connection points: 6
#     Node 3, Type 0, BuildingBlock: MIDCAF_clean_sbu_0, # of connection points: 6
#     Node 4, Type 0, BuildingBlock: MIDCAF_clean_sbu_0, # of connection points: 6
#     Node 5, Type 0, BuildingBlock: MIDCAF_clean_sbu_0, # of connection points: 6
#     Node 6, Type 0, BuildingBlock: MIDCAF_clean_sbu_0, # of connection points: 6
#     Node 7, Type 0, BuildingBlock: MIDCAF_clean_sbu_0, # of connection points: 6
#     Node 8, Type 0, BuildingBlock: MIDCAF_clean_sbu_0, # of connection points: 6
#     Node 9, Type 0, BuildingBlock: MIDCAF_clean_sbu_0, # of connection points: 6
#     Node 10, Type 0, BuildingBlock: MIDCAF_clean_sbu_0, # of connection points: 6
#     Node 11, Type 0, BuildingBlock: MIDCAF_clean_sbu_0, # of connection points: 6
#     Node 12, Type 0, BuildingBlock: MIDCAF_clean_sbu_0, # of connection points: 6
#     Node 13, Type 0, BuildingBlock: MIDCAF_clean_sbu_0, # of connection points: 6
#     Node 14, Type 0, BuildingBlock: MIDCAF_clean_sbu_0, # of connection points: 6
#     Node 15, Type 0, BuildingBlock: MIDCAF_clean_sbu_0, # of connection points: 6
#     Edge 16, Type (0, 0), BuildingBlock: EZIPEK_clean_linker_0, # of connection points: 2
#     Edge 17, Type (0, 0), BuildingBlock: EZIPEK_clean_linker_0, # of connection points: 2
#     Edge 18, Type (0, 0), BuildingBlock: EZIPEK_clean_linker_0, # of connection points: 2
#     Edge 19, Type (0, 0), BuildingBlock: EZIPEK_clean_linker_0, # of connection points: 2
#     Edge 20, Type (0, 0), BuildingBlock: EZIPEK_clean_linker_0, # of connection points: 2
#     Edge 21, Type (0, 0), BuildingBlock: EZIPEK_clean_linker_0, # of connection points: 2
#     Edge 22, Type (0, 0), BuildingBlock: EZIPEK_clean_linker_0, # of connection points: 2
#     Edge 23, Type (0, 0), BuildingBlock: EZIPEK_clean_linker_0, # of connection points: 2
#     Edge 24, Type (0, 0), BuildingBlock: EZIPEK_clean_linker_0, # of connection points: 2
#     Edge 25, Type (0, 0), BuildingBlock: EZIPEK_clean_linker_0, # of connection points: 2
#     Edge 26, Type (0, 0), BuildingBlock: EZIPEK_clean_linker_0, # of connection points: 2
#     Edge 27, Type (0, 0), BuildingBlock: EZIPEK_clean_linker_0, # of connection points: 2
#     Edge 28, Type (0, 0), BuildingBlock: EZIPEK_clean_linker_0, # of connection points: 2
#     Edge 29, Type (0, 0), BuildingBlock: EZIPEK_clean_linker_0, # of connection points: 2
#     Edge 30, Type (0, 0), BuildingBlock: EZIPEK_clean_linker_0, # of connection points: 2
#     Edge 31, Type (0, 0), BuildingBlock: EZIPEK_clean_linker_0, # of connection points: 2
#     Edge 32, Type (0, 0), BuildingBlock: EZIPEK_clean_linker_0, # of connection points: 2
#     Edge 33, Type (0, 0), BuildingBlock: EZIPEK_clean_linker_0, # of connection points: 2
#     Edge 34, Type (0, 0), BuildingBlock: EZIPEK_clean_linker_0, # of connection points: 2
#     Edge 35, Type (0, 0), BuildingBlock: EZIPEK_clean_linker_0, # of connection points: 2
#     Edge 36, Type (0, 0), BuildingBlock: EZIPEK_clean_linker_0, # of connection points: 2
#     Edge 37, Type (0, 0), BuildingBlock: EZIPEK_clean_linker_0, # of connection points: 2
#     Edge 38, Type (0, 0), BuildingBlock: EZIPEK_clean_linker_0, # of connection points: 2
#     Edge 39, Type (0, 0), BuildingBlock: EZIPEK_clean_linker_0, # of connection points: 2
#     Edge 40, Type (0, 0), BuildingBlock: EZIPEK_clean_linker_0, # of connection points: 2
#     Edge 41, Type (0, 0), BuildingBlock: EZIPEK_clean_linker_0, # of connection points: 2
#     Edge 42, Type (0, 0), BuildingBlock: EZIPEK_clean_linker_0, # of connection points: 2
#     Edge 43, Type (0, 0), BuildingBlock: EZIPEK_clean_linker_0, # of connection points: 2
#     Edge 44, Type (0, 0), BuildingBlock: EZIPEK_clean_linker_0, # of connection points: 2
#     Edge 45, Type (0, 0), BuildingBlock: EZIPEK_clean_linker_0, # of connection points: 2
#     Edge 46, Type (0, 0), BuildingBlock: EZIPEK_clean_linker_0, # of connection points: 2
#     Edge 47, Type (0, 0), BuildingBlock: EZIPEK_clean_linker_0, # of connection points: 2
#     Edge 48, Type (0, 0), BuildingBlock: EZIPEK_clean_linker_0, # of connection points: 2
#     Edge 49, Type (0, 0), BuildingBlock: EZIPEK_clean_linker_0, # of connection points: 2
#     Edge 50, Type (0, 0), BuildingBlock: EZIPEK_clean_linker_0, # of connection points: 2
#     Edge 51, Type (0, 0), BuildingBlock: EZIPEK_clean_linker_0, # of connection points: 2
#     Edge 52, Type (0, 0), BuildingBlock: EZIPEK_clean_linker_0, # of connection points: 2
#     Edge 53, Type (0, 0), BuildingBlock: EZIPEK_clean_linker_0, # of connection points: 2
#     Edge 54, Type (0, 0), BuildingBlock: EZIPEK_clean_linker_0, # of connection points: 2
#     Edge 55, Type (0, 0), BuildingBlock: EZIPEK_clean_linker_0, # of connection points: 2
#     Edge 56, Type (0, 0), BuildingBlock: EZIPEK_clean_linker_0, # of connection points: 2
#     Edge 57, Type (0, 0), BuildingBlock: EZIPEK_clean_linker_0, # of connection points: 2
#     Edge 58, Type (0, 0), BuildingBlock: EZIPEK_clean_linker_0, # of connection points: 2
#     Edge 59, Type (0, 0), BuildingBlock: EZIPEK_clean_linker_0, # of connection points: 2
#     Edge 60, Type (0, 0), BuildingBlock: EZIPEK_clean_linker_0, # of connection points: 2
#     Edge 61, Type (0, 0), BuildingBlock: EZIPEK_clean_linker_0, # of connection points: 2
#     Edge 62, Type (0, 0), BuildingBlock: EZIPEK_clean_linker_0, # of connection points: 2
#     Edge 63, Type (0, 0), BuildingBlock: EZIPEK_clean_linker_0, # of connection points: 2
# Relax obj value: 0.402
# Max RMSD: 0.279
# Mean RMSD: 0.279
data_MOF--net-vbw--node1-MIDCAF_clean_sbu_0--edge1-EZIPEK_clean_linker_0
_symmetry_space_group_name_H-M    P1
_symmetry_Int_Tables_number       1
_symmetry_cell_setting            triclinic
loop_
_symmetry_equiv_pos_as_xyz
'x, y, z'
_cell_length_a     37.655323
_cell_length_b     33.697173
_cell_length_c     19.676813
_cell_angle_alpha  90.013049
_cell_angle_beta   89.982553
_cell_angle_gamma 90.025862
loop_
_atom_site_label
_atom_site_type_symbol
_atom_site_fract_x
_atom_site_fract_y
_atom_site_fract_z
_atom_type_partial_charge
Zn0 Zn 0.09494 0.13142 0.07902 0.0
Zn1 Zn 0.19919 0.17699 0.19201 0.0
Zn2 Zn 0.14894 0.15255 0.13773 0.0
C3 C 0.20495 0.09802 0.21044 0.0
C4 C 0.15101 0.20916 0.2674 0.0
O5 O 0.14116 0.18795 0.04365 0.0
O6 O 0.08493 0.17675 0.01753 0.0
C7 C 0.14454 0.07134 0.06063 0.0
O8 O 0.18381 0.10034 0.15913 0.0
O9 O 0.21233 0.12906 0.24324 0.0
O10 O 0.18098 0.2205 0.24691 0.0
O11 O 0.1346 0.18076 0.23648 0.0
O12 O 0.11621 0.0845 0.03502 0.0
O13 O 0.16007 0.09061 0.10871 0.0
O14 O 0.10342 0.16238 0.20856 0.0
O15 O 0.06378 0.12426 0.15815 0.0
C16 C 0.07261 0.14573 0.20788 0.0
O17 O 0.17548 0.19358 0.06675 0.0
O18 O 0.22857 0.19141 0.11379 0.0
C19 C 0.11346 0.19536 0.00722 0.0
C20 C 0.2089 0.20149 0.06506 0.0
Zn21 Zn 0.29936 0.82764 0.71912 0.0
Zn22 Zn 0.40649 0.85827 0.58077 0.0
Zn23 Zn 0.35158 0.84439 0.64659 0.0
C24 C 0.43149 0.8425 0.70614 0.0
C25 C 0.36439 0.92434 0.56172 0.0
O26 O 0.3176 0.80303 0.5888 0.0
O27 O 0.26864 0.80266 0.65119 0.0
C28 C 0.35286 0.79592 0.78931 0.0
O29 O 0.39899 0.83078 0.7106 0.0
O30 O 0.44167 0.86169 0.6547 0.0
O31 O 0.39059 0.90735 0.53441 0.0
O32 O 0.34782 0.9073 0.61125 0.0
O33 O 0.31956 0.79292 0.78836 0.0
O34 O 0.36932 0.81616 0.74336 0.0
O35 O 0.32422 0.90223 0.66463 0.0
O36 O 0.2886 0.88194 0.74662 0.0
C37 C 0.30143 0.90988 0.71166 0.0
O38 O 0.35104 0.80545 0.55632 0.0
O39 O 0.40728 0.80938 0.52466 0.0
C40 C 0.28509 0.79241 0.59828 0.0
C41 C 0.37707 0.79363 0.51883 0.0
Zn42 Zn 0.19599 0.83578 0.76508 0.0
Zn43 Zn 0.09573 0.86354 0.91465 0.0
Zn44 Zn 0.149 0.84491 0.84442 0.0
C45 C 0.06774 0.84602 0.78968 0.0
C46 C 0.13854 0.9274 0.92797 0.0
O47 O 0.18398 0.80185 0.89396 0.0
O48 O 0.23107 0.81619 0.8312 0.0
C49 C 0.14522 0.7979 0.70135 0.0
O50 O 0.10032 0.83539 0.78056 0.0
O51 O 0.05849 0.86234 0.84455 0.0
O52 O 0.10988 0.91464 0.95259 0.0
O53 O 0.15568 0.90674 0.8835 0.0
O54 O 0.17857 0.79643 0.70143 0.0
O55 O 0.12865 0.81845 0.74686 0.0
O56 O 0.18078 0.90149 0.83153 0.0
O57 O 0.20294 0.88958 0.73026 0.0
C58 C 0.1983 0.91338 0.77891 0.0
O59 O 0.14935 0.80208 0.93143 0.0
O60 O 0.09846 0.81887 0.9791 0.0
C61 C 0.21757 0.79913 0.882 0.0
C62 C 0.12515 0.79628 0.97709 0.0
Zn63 Zn 0.28536 0.20243 0.28093 0.0
Zn64 Zn 0.43106 0.12986 0.44123 0.0
Zn65 Zn 0.37609 0.15676 0.38474 0.0
C66 C 0.45554 0.15684 0.31981 0.0
C67 C 0.37519 0.07154 0.43697 0.0
O68 O 0.34688 0.19417 0.45611 0.0
O69 O 0.31515 0.20059 0.36706 0.0
C70 C 0.36719 0.20541 0.26991 0.0
O71 O 0.42376 0.17098 0.32089 0.0
O72 O 0.46538 0.13245 0.36466 0.0
O73 O 0.4046 0.08057 0.46381 0.0
O74 O 0.3601 0.09539 0.39513 0.0
O75 O 0.33772 0.19875 0.29841 0.0
O76 O 0.39383 0.18879 0.29748 0.0
O77 O 0.33444 0.11457 0.34415 0.0
O78 O 0.28755 0.1409 0.28527 0.0
C79 C 0.30529 0.11139 0.30896 0.0
O80 O 0.38034 0.1874 0.48163 0.0
O81 O 0.4348 0.17124 0.5141 0.0
C82 C 0.31679 0.20361 0.43115 0.0
C83 C 0.40676 0.19118 0.52253 0.0
Zn84 Zn 0.81004 0.82969 0.77965 0.0
Zn85 Zn 0.91016 0.85873 0.90568 0.0
Zn86 Zn 0.85711 0.84263 0.84712 0.0
C87 C 0.93637 0.84896 0.7822 0.0
C88 C 0.86405 0.92045 0.93855 0.0
O89 O 0.82498 0.79724 0.89837 0.0
O90 O 0.77503 0.818 0.8523 0.0
C91 C 0.85803 0.79076 0.71231 0.0
O92 O 0.90476 0.83422 0.77842 0.0
O93 O 0.94516 0.86876 0.83384 0.0
O94 O 0.8925 0.90449 0.95849 0.0
O95 O 0.84734 0.90465 0.88787 0.0
O96 O 0.82576 0.78451 0.7251 0.0
O97 O 0.87545 0.81645 0.74795 0.0
O98 O 0.82179 0.89521 0.83314 0.0
O99 O 0.80386 0.87989 0.73028 0.0
C100 C 0.8041 0.90411 0.77898 0.0
O101 O 0.8595 0.80227 0.93631 0.0
O102 O 0.91655 0.80898 0.95893 0.0
C103 C 0.79075 0.79614 0.8946 0.0
C104 C 0.88716 0.79248 0.97113 0.0
Zn105 Zn 0.59751 0.12751 0.41075 0.0
Zn106 Zn 0.73666 0.16066 0.22863 0.0
Zn107 Zn 0.65198 0.14699 0.35474 0.0
C108 C 0.70514 0.09814 0.31019 0.0
C109 C 0.66306 0.18428 0.18975 0.0
O110 O 0.65182 0.1856 0.44597 0.0
O111 O 0.60523 0.15876 0.49469 0.0
C112 C 0.62928 0.05959 0.41877 0.0
O113 O 0.67848 0.09 0.34668 0.0
O114 O 0.71031 0.13436 0.29984 0.0
O115 O 0.69568 0.18002 0.17306 0.0
O116 O 0.64976 0.17351 0.24813 0.0
O117 O 0.59784 0.07082 0.42862 0.0
O118 O 0.65198 0.08315 0.39063 0.0
O119 O 0.61287 0.16554 0.27946 0.0
O120 O 0.56599 0.14779 0.33946 0.0
C121 C 0.57912 0.16282 0.2863 0.0
O122 O 0.68537 0.18868 0.40722 0.0
O123 O 0.72356 0.18335 0.32315 0.0
C124 C 0.63003 0.18381 0.49648 0.0
C125 C 0.7156 0.19728 0.38106 0.0
Zn126 Zn 0.81574 0.16334 0.21305 0.0
Zn127 Zn 0.91922 0.13592 0.06704 0.0
Zn128 Zn 0.86397 0.15223 0.14161 0.0
C129 C 0.94348 0.15204 0.19859 0.0
C130 C 0.87611 0.06887 0.06576 0.0
O131 O 0.82999 0.19499 0.08779 0.0
O132 O 0.78091 0.17811 0.14137 0.0
C133 C 0.86456 0.20435 0.27648 0.0
O134 O 0.91077 0.16187 0.20755 0.0
O135 O 0.95381 0.13828 0.14231 0.0
O136 O 0.90302 0.08282 0.03589 0.0
O137 O 0.85899 0.08989 0.10942 0.0
O138 O 0.83143 0.20713 0.26982 0.0
O139 O 0.88238 0.18087 0.2375 0.0
O140 O 0.83206 0.09704 0.1576 0.0
O141 O 0.81196 0.11141 0.25915 0.0
C142 C 0.81562 0.08639 0.21209 0.0
O143 O 0.86253 0.19167 0.05222 0.0
O144 O 0.91463 0.18146 0.00297 0.0
C145 C 0.79602 0.19696 0.09431 0.0
C146 C 0.88551 0.19992 0.00579 0.0
Zn147 Zn 0.69253 0.82669 0.70483 0.0
Zn148 Zn 0.58208 0.85185 0.58071 0.0
Zn149 Zn 0.63755 0.841 0.64615 0.0
C150 C 0.55949 0.83796 0.70925 0.0
C151 C 0.62476 0.91801 0.56335 0.0
O152 O 0.671 0.80043 0.5855 0.0
O153 O 0.71457 0.78409 0.6555 0.0
C154 C 0.64264 0.8072 0.79718 0.0
O155 O 0.59172 0.82541 0.71237 0.0
O156 O 0.54898 0.85686 0.65771 0.0
O157 O 0.59984 0.89995 0.53376 0.0
O158 O 0.63983 0.90268 0.61557 0.0
O159 O 0.67559 0.81355 0.79666 0.0
O160 O 0.62363 0.81486 0.74445 0.0
O161 O 0.66545 0.89868 0.6685 0.0
O162 O 0.7187 0.87586 0.69257 0.0
C163 C 0.69815 0.90492 0.68476 0.0
O164 O 0.63756 0.80389 0.55267 0.0
O165 O 0.5806 0.80261 0.52536 0.0
C166 C 0.70013 0.78176 0.59809 0.0
C167 C 0.61181 0.79016 0.51633 0.0
Zn168 Zn 0.58675 0.64094 0.08296 0.0
Zn169 Zn 0.69348 0.66552 0.19938 0.0
Zn170 Zn 0.6418 0.64904 0.1386 0.0
C171 C 0.69092 0.5831 0.20246 0.0
C172 C 0.64609 0.69502 0.28398 0.0
O173 O 0.64133 0.68827 0.04944 0.0
O174 O 0.58322 0.69393 0.03815 0.0
C175 C 0.62998 0.57773 0.04195 0.0
O176 O 0.66378 0.58851 0.16346 0.0
O177 O 0.70897 0.61262 0.22103 0.0
O178 O 0.67935 0.69548 0.27893 0.0
O179 O 0.62706 0.67828 0.23747 0.0
O180 O 0.60315 0.59738 0.02377 0.0
O181 O 0.64511 0.58726 0.09858 0.0
O182 O 0.5956 0.66546 0.2064 0.0
O183 O 0.55358 0.62992 0.15763 0.0
C184 C 0.56371 0.65133 0.20645 0.0
O185 O 0.67726 0.68567 0.0691 0.0
O186 O 0.72298 0.69301 0.13599 0.0
C187 C 0.61407 0.70541 0.02282 0.0
C188 C 0.70983 0.69662 0.07776 0.0
Zn189 Zn 0.80111 0.32286 0.68148 0.0
Zn190 Zn 0.91746 0.36665 0.57782 0.0
Zn191 Zn 0.86068 0.34452 0.63497 0.0
C192 C 0.93782 0.34318 0.70534 0.0
C193 C 0.87208 0.43011 0.57085 0.0
O194 O 0.83304 0.30502 0.55945 0.0
O195 O 0.78083 0.29256 0.60632 0.0
C196 C 0.85247 0.29456 0.77115 0.0
O197 O 0.90602 0.32882 0.70432 0.0
O198 O 0.94811 0.36586 0.65831 0.0
O199 O 0.90016 0.41785 0.54312 0.0
O200 O 0.85517 0.40823 0.6136 0.0
O201 O 0.81951 0.29354 0.75991 0.0
O202 O 0.87343 0.31329 0.7305 0.0
O203 O 0.8288 0.39959 0.65992 0.0
O204 O 0.77926 0.37395 0.701 0.0
C205 C 0.79775 0.40396 0.68672 0.0
O206 O 0.86768 0.31233 0.5383 0.0
O207 O 0.92373 0.32373 0.51008 0.0
C208 C 0.80195 0.28888 0.55715 0.0
C209 C 0.89488 0.30571 0.50008 0.0
Zn210 Zn 0.69601 0.32486 0.80559 0.0
Zn211 Zn 0.59445 0.35712 0.92752 0.0
Zn212 Zn 0.64419 0.3414 0.85477 0.0
C213 C 0.56841 0.35209 0.79346 0.0
C214 C 0.63674 0.42184 0.93735 0.0
O215 O 0.67541 0.29877 0.91861 0.0
O216 O 0.72903 0.31251 0.87999 0.0
C217 C 0.64869 0.28416 0.73311 0.0
O218 O 0.59806 0.33372 0.78394 0.0
O219 O 0.56222 0.36784 0.85048 0.0
O220 O 0.61392 0.40464 0.97382 0.0
O221 O 0.6495 0.40433 0.88444 0.0
O222 O 0.67892 0.27778 0.75799 0.0
O223 O 0.62943 0.31256 0.75718 0.0
O224 O 0.67682 0.39655 0.83712 0.0
O225 O 0.70593 0.37217 0.75003 0.0
C226 C 0.69789 0.40165 0.78622 0.0
O227 O 0.64127 0.30135 0.94407 0.0
O228 O 0.58667 0.30883 0.98327 0.0
C229 C 0.70948 0.29472 0.92211 0.0
C230 C 0.61591 0.2907 0.9842 0.0
Zn231 Zn 0.80138 0.67656 0.28077 0.0
Zn232 Zn 0.93094 0.62477 0.4179 0.0
Zn233 Zn 0.84919 0.6525 0.34867 0.0
C234 C 0.92008 0.63362 0.28333 0.0
C235 C 0.86845 0.56731 0.41542 0.0
O236 O 0.82352 0.69768 0.41035 0.0
O237 O 0.77344 0.70166 0.35221 0.0
C238 C 0.85508 0.7028 0.20748 0.0
O239 O 0.89413 0.65796 0.28197 0.0
O240 O 0.91815 0.60521 0.32436 0.0
O241 O 0.90177 0.57362 0.41288 0.0
O242 O 0.84572 0.59267 0.39259 0.0
O243 O 0.82338 0.71323 0.21598 0.0
O244 O 0.86905 0.67773 0.24892 0.0
O245 O 0.81309 0.60153 0.34234 0.0
O246 O 0.78455 0.62337 0.25197 0.0
C247 C 0.78998 0.5963 0.29512 0.0
O248 O 0.85732 0.68871 0.43816 0.0
O249 O 0.91059 0.67024 0.47735 0.0
C250 C 0.79145 0.71008 0.40409 0.0
C251 C 0.88294 0.69174 0.48111 0.0
Zn252 Zn 0.40964 0.36506 0.95148 0.0
Zn253 Zn 0.28702 0.3096 0.76466 0.0
Zn254 Zn 0.35965 0.33961 0.88053 0.0
C255 C 0.29549 0.39471 0.80938 0.0
C256 C 0.36313 0.29464 0.72918 0.0
O257 O 0.36362 0.30517 0.97984 0.0
O258 O 0.40919 0.33158 0.03336 0.0
C259 C 0.36113 0.42639 0.94175 0.0
O260 O 0.3214 0.38817 0.85139 0.0
O261 O 0.28147 0.36764 0.77313 0.0
O262 O 0.33024 0.29263 0.71471 0.0
O263 O 0.37553 0.31112 0.78375 0.0
O264 O 0.39066 0.41784 0.96789 0.0
O265 O 0.34489 0.40135 0.90338 0.0
O266 O 0.40644 0.33353 0.81376 0.0
O267 O 0.44681 0.35979 0.88177 0.0
C268 C 0.43843 0.34517 0.82495 0.0
O269 O 0.33575 0.29374 0.94167 0.0
O270 O 0.30713 0.29754 0.84936 0.0
C271 C 0.38445 0.3064 0.03208 0.0
C272 C 0.30928 0.28271 0.90683 0.0
Zn273 Zn 0.18883 0.66911 0.29366 0.0
Zn274 Zn 0.09135 0.6237 0.42371 0.0
Zn275 Zn 0.14044 0.64757 0.35044 0.0
C276 C 0.0619 0.64019 0.29946 0.0
C277 C 0.13944 0.5641 0.42972 0.0
O278 O 0.16963 0.69166 0.41298 0.0
O279 O 0.22217 0.68532 0.36457 0.0
C280 C 0.1395 0.70069 0.21768 0.0
O281 O 0.09237 0.65651 0.29003 0.0
O282 O 0.05638 0.61877 0.35089 0.0
O283 O 0.11228 0.5755 0.4615 0.0
O284 O 0.15254 0.58554 0.38159 0.0
O285 O 0.16751 0.71377 0.24447 0.0
O286 O 0.12339 0.67146 0.247 0.0
O287 O 0.17481 0.59509 0.32989 0.0
O288 O 0.20145 0.62078 0.24105 0.0
C289 C 0.19513 0.59096 0.27777 0.0
O290 O 0.13634 0.68624 0.44205 0.0
O291 O 0.08521 0.66823 0.48814 0.0
C292 C 0.20322 0.69917 0.41167 0.0
C293 C 0.11174 0.69101 0.48703 0.0
Zn294 Zn 0.29986 0.67427 0.19286 0.0
Zn295 Zn 0.41633 0.63362 0.08207 0.0
Zn296 Zn 0.35897 0.65351 0.14135 0.0
C297 C 0.43578 0.65175 0.21288 0.0
C298 C 0.36897 0.57154 0.0641 0.0
O299 O 0.33199 0.69645 0.07263 0.0
O300 O 0.27978 0.70722 0.12072 0.0
C301 C 0.35159 0.69876 0.28323 0.0
O302 O 0.404 0.66601 0.21254 0.0
O303 O 0.4465 0.63092 0.16369 0.0
O304 O 0.3977 0.58456 0.03981 0.0
O305 O 0.35229 0.59134 0.11008 0.0
O306 O 0.31867 0.70127 0.27274 0.0
O307 O 0.37197 0.68087 0.24044 0.0
O308 O 0.32701 0.59819 0.1593 0.0
O309 O 0.27889 0.62231 0.20859 0.0
C310 C 0.29674 0.59293 0.18857 0.0
O311 O 0.36589 0.68845 0.04778 0.0
O312 O 0.4223 0.67964 0.01975 0.0
C313 C 0.30102 0.71272 0.07224 0.0
C314 C 0.39284 0.69649 0.00979 0.0
Zn315 Zn 0.09521 0.35855 0.58091 0.0
Zn316 Zn 0.19726 0.32596 0.70867 0.0
Zn317 Zn 0.14929 0.34057 0.64204 0.0
C318 C 0.19789 0.40387 0.71721 0.0
C319 C 0.14655 0.28863 0.77481 0.0
O320 O 0.14859 0.303 0.5515 0.0
O321 O 0.09239 0.31087 0.52205 0.0
C322 C 0.14194 0.42052 0.55894 0.0
O323 O 0.18085 0.39631 0.66185 0.0
O324 O 0.20329 0.376 0.75856 0.0
O325 O 0.17897 0.28184 0.76404 0.0
O326 O 0.12985 0.31399 0.73765 0.0
O327 O 0.11338 0.4066 0.5355 0.0
O328 O 0.15846 0.40205 0.60674 0.0
O329 O 0.10008 0.33006 0.70649 0.0
O330 O 0.05887 0.36389 0.65173 0.0
C331 C 0.06799 0.34343 0.7024 0.0
O332 O 0.18222 0.29579 0.58667 0.0
O333 O 0.23224 0.31312 0.63612 0.0
C334 C 0.12205 0.29428 0.51309 0.0
C335 C 0.21636 0.29336 0.59095 0.0
C336 C 0.22821 0.05357 0.29611 0.0
C337 C 0.22641 0.0625 0.22614 0.0
C338 C 0.29087 0.06345 0.2212 0.0
C339 C 0.29053 0.07213 0.29143 0.0
N340 N 0.26375 0.05984 0.39936 0.0
N341 N 0.255 0.05678 0.11831 0.0
C342 C 0.261 0.06004 0.33036 0.0
C343 C 0.2577 0.05902 0.18722 0.0
N344 N 0.19762 0.04439 0.32944 0.0
N345 N 0.32246 0.06432 0.18753 0.0
H346 H 0.2302 0.05438 0.09489 0.0
H347 H 0.27662 0.05666 0.08539 0.0
H348 H 0.34618 0.06917 0.21386 0.0
H349 H 0.32524 0.05883 0.13577 0.0
H350 H 0.19633 0.03764 0.38098 0.0
H351 H 0.17368 0.04195 0.30286 0.0
H352 H 0.24277 0.05365 0.4321 0.0
H353 H 0.28795 0.06598 0.42306 0.0
C354 C 0.24811 0.95422 0.82224 0.0
C355 C 0.219 0.95096 0.77684 0.0
C356 C 0.25875 0.96163 0.68146 0.0
C357 C 0.2868 0.94994 0.72473 0.0
N358 N 0.31173 0.95923 0.83543 0.0
N359 N 0.1956 0.97739 0.6734 0.0
C360 C 0.28262 0.95753 0.79469 0.0
C361 C 0.22427 0.96568 0.71032 0.0
N362 N 0.24433 0.94922 0.89017 0.0
N363 N 0.26417 0.96283 0.61319 0.0
H364 H 0.17026 0.97746 0.6951 0.0
H365 H 0.1975 0.98923 0.62464 0.0
H366 H 0.28931 0.95793 0.59292 0.0
H367 H 0.24402 0.96738 0.57781 0.0
H368 H 0.21978 0.94476 0.91325 0.0
H369 H 0.21978 0.94476 0.91325 0.0
H370 H 0.30979 0.96221 0.88813 0.0
H371 H 0.33729 0.95861 0.81469 0.0
C372 C 0.7116 0.93694 0.78799 0.0
C373 C 0.71002 0.94201 0.717 0.0
C374 C 0.77313 0.9573 0.71629 0.0
C375 C 0.77607 0.93513 0.7771 0.0
N376 N 0.74651 0.91499 0.88184 0.0
N377 N 0.7345 0.97549 0.62143 0.0
C378 C 0.74517 0.93003 0.81778 0.0
C379 C 0.73914 0.9603 0.68486 0.0
N380 N 0.68111 0.92978 0.82311 0.0
N381 N 0.8031 0.97253 0.68764 0.0
H382 H 0.70934 0.97575 0.59908 0.0
H383 H 0.75485 0.98737 0.59198 0.0
H384 H 0.82772 0.96949 0.71161 0.0
H385 H 0.80323 0.98968 0.64367 0.0
H386 H 0.68105 0.92247 0.87469 0.0
H387 H 0.65635 0.93183 0.79937 0.0
H388 H 0.77009 0.90861 0.90738 0.0
H389 H 0.77009 0.90861 0.90738 0.0
C390 C 0.72865 0.07018 0.20233 0.0
C391 C 0.72643 0.06791 0.2742 0.0
C392 C 0.78455 0.03634 0.27731 0.0
C393 C 0.7907 0.05258 0.21242 0.0
N394 N 0.7655 0.05932 0.10191 0.0
N395 N 0.7468 0.03774 0.37797 0.0
C396 C 0.76108 0.05926 0.17056 0.0
C397 C 0.75216 0.04595 0.31088 0.0
N398 N 0.70092 0.08543 0.16628 0.0
N399 N 0.81143 0.01623 0.30809 0.0
H400 H 0.72283 0.04423 0.40214 0.0
H401 H 0.76565 0.02441 0.40911 0.0
H402 H 0.83547 0.01161 0.28267 0.0
H403 H 0.80931 0.0028 0.35554 0.0
H404 H 0.70195 0.09161 0.11449 0.0
H405 H 0.67677 0.09223 0.18969 0.0
H406 H 0.74491 0.06352 0.06737 0.0
H407 H 0.79009 0.05234 0.08048 0.0
C408 C 0.73386 0.56449 0.3362 0.0
C409 C 0.76468 0.56259 0.29418 0.0
C410 C 0.72965 0.5259 0.21161 0.0
C411 C 0.6994 0.54502 0.23718 0.0
N412 N 0.66991 0.55127 0.34385 0.0
N413 N 0.79359 0.5303 0.19996 0.0
C414 C 0.70079 0.55135 0.30805 0.0
C415 C 0.76336 0.53878 0.2349 0.0
N416 N 0.73554 0.58266 0.39795 0.0
N417 N 0.72566 0.49331 0.1721 0.0
H418 H 0.81848 0.53914 0.21792 0.0
H419 H 0.79326 0.51554 0.15335 0.0
H420 H 0.70024 0.48307 0.15997 0.0
H421 H 0.7471 0.47579 0.15698 0.0
H422 H 0.71328 0.58886 0.4275 0.0
H423 H 0.75969 0.59181 0.41868 0.0
H424 H 0.66869 0.55549 0.39624 0.0
H425 H 0.64589 0.54463 0.31978 0.0
C426 C 0.71961 0.45241 0.70791 0.0
C427 C 0.71925 0.43802 0.77539 0.0
C428 C 0.78351 0.44663 0.77981 0.0
C429 C 0.7836 0.44277 0.70866 0.0
N430 N 0.75572 0.46409 0.60653 0.0
N431 N 0.74941 0.43392 0.88246 0.0
C432 C 0.75287 0.45486 0.67358 0.0
C433 C 0.7507 0.44127 0.81454 0.0
N434 N 0.68808 0.45907 0.67606 0.0
N435 N 0.81516 0.44976 0.81274 0.0
H436 H 0.72522 0.42924 0.90672 0.0
H437 H 0.77172 0.43185 0.91349 0.0
H438 H 0.83892 0.45113 0.7853 0.0
H439 H 0.81749 0.4534 0.8651 0.0
H440 H 0.68576 0.46841 0.62587 0.0
H441 H 0.6641 0.45598 0.70236 0.0
H442 H 0.73445 0.47234 0.57589 0.0
H443 H 0.78055 0.46434 0.583 0.0
C444 C 0.28211 0.44458 0.72634 0.0
C445 C 0.28174 0.43499 0.7962 0.0
C446 C 0.21908 0.45221 0.79874 0.0
C447 C 0.21772 0.44123 0.72949 0.0
N448 N 0.24899 0.44539 0.62255 0.0
N449 N 0.25323 0.4452 0.90336 0.0
C450 C 0.24932 0.44567 0.69147 0.0
C451 C 0.25157 0.44607 0.83431 0.0
N452 N 0.31343 0.44459 0.69189 0.0
N453 N 0.18846 0.46284 0.83053 0.0
H454 H 0.27705 0.43887 0.92815 0.0
H455 H 0.23143 0.44984 0.93491 0.0
H456 H 0.16468 0.46472 0.80327 0.0
H457 H 0.18731 0.47191 0.88107 0.0
H458 H 0.31475 0.44891 0.6394 0.0
H459 H 0.33754 0.44078 0.71737 0.0
H460 H 0.22551 0.44445 0.59449 0.0
H461 H 0.22551 0.44445 0.59449 0.0
C462 C 0.28052 0.54605 0.27418 0.0
C463 C 0.28212 0.55336 0.2038 0.0
C464 C 0.21845 0.54281 0.19683 0.0
C465 C 0.2166 0.55491 0.26546 0.0
N466 N 0.24422 0.55412 0.3755 0.0
N467 N 0.25605 0.53974 0.0959 0.0
C468 C 0.24702 0.54995 0.30687 0.0
C469 C 0.25224 0.54315 0.16443 0.0
N470 N 0.3114 0.5413 0.30914 0.0
N471 N 0.18769 0.53588 0.16252 0.0
H472 H 0.281 0.54254 0.07335 0.0
H473 H 0.23516 0.53456 0.06246 0.0
H474 H 0.16322 0.53746 0.18749 0.0
H475 H 0.1866 0.52682 0.112 0.0
H476 H 0.31251 0.53503 0.36091 0.0
H477 H 0.33577 0.54139 0.28374 0.0
H478 H 0.26591 0.55501 0.40826 0.0
H479 H 0.2196 0.55713 0.39904 0.0
C480 C 0.11015 0.26119 0.948 0.0
C481 C 0.11659 0.21978 0.9454 0.0
C482 C 0.12879 0.22412 0.82359 0.0
C483 C 0.12866 0.26596 0.82892 0.0
N484 N 0.11886 0.32541 0.89446 0.0
N485 N 0.13222 0.161 0.8819 0.0
C486 C 0.11853 0.28491 0.89031 0.0
C487 C 0.12558 0.20091 0.88329 0.0
N488 N 0.09602 0.27762 0.00547 0.0
N489 N 0.13155 0.20681 0.76094 0.0
H490 H 0.12887 0.14264 0.92406 0.0
H491 H 0.14309 0.14637 0.8402 0.0
H492 H 0.13324 0.22344 0.71627 0.0
H493 H 0.12866 0.17648 0.75248 0.0
H494 H 0.08743 0.30692 0.00854 0.0
H495 H 0.09047 0.26099 0.04894 0.0
H496 H 0.11586 0.34102 0.93973 0.0
H497 H 0.12385 0.34362 0.85272 0.0
C498 C 0.38157 0.72741 0.46051 0.0
C499 C 0.37096 0.76786 0.45941 0.0
C500 C 0.36017 0.76377 0.33722 0.0
C501 C 0.36583 0.72232 0.34002 0.0
N502 N 0.38109 0.66352 0.40274 0.0
N503 N 0.3469 0.82399 0.39882 0.0
C504 C 0.37674 0.70376 0.40111 0.0
C505 C 0.35934 0.78588 0.39828 0.0
N506 N 0.39634 0.71187 0.51808 0.0
N507 N 0.35617 0.78196 0.27553 0.0
H508 H 0.3465 0.84144 0.44247 0.0
H509 H 0.33436 0.83726 0.35751 0.0
H510 H 0.35751 0.76642 0.22968 0.0
H511 H 0.35518 0.81262 0.26926 0.0
H512 H 0.40799 0.68389 0.52024 0.0
H513 H 0.39864 0.72799 0.56316 0.0
H514 H 0.38528 0.64742 0.44715 0.0
H515 H 0.37897 0.64591 0.3593 0.0
C516 C 0.09866 0.72866 0.12427 0.0
C517 C 0.13215 0.71488 0.14698 0.0
C518 C 0.1609 0.75376 0.05857 0.0
C519 C 0.12781 0.76471 0.03056 0.0
N520 N 0.06476 0.74959 0.02613 0.0
N521 N 0.1924 0.70043 0.11222 0.0
C522 C 0.09641 0.74788 0.05976 0.0
C523 C 0.16215 0.72223 0.10533 0.0
N524 N 0.06957 0.72575 0.1649 0.0
N525 N 0.19043 0.77632 0.04914 0.0
H526 H 0.19388 0.67602 0.14473 0.0
H527 H 0.2139 0.70417 0.07936 0.0
H528 H 0.18968 0.80396 0.02555 0.0
H529 H 0.21404 0.77024 0.07487 0.0
H530 H 0.04526 0.7388 0.15288 0.0
H531 H 0.07103 0.71345 0.21308 0.0
H532 H 0.04187 0.73575 0.04427 0.0
H533 H 0.0626 0.76028 0.97656 0.0
C534 C 0.39292 0.2318 0.69992 0.0
C535 C 0.38662 0.27221 0.68389 0.0
C536 C 0.40334 0.2605 0.56565 0.0
C537 C 0.40414 0.21921 0.57952 0.0
N538 N 0.39923 0.16448 0.65793 0.0
N539 N 0.38625 0.32624 0.60444 0.0
C540 C 0.39963 0.20454 0.64648 0.0
C541 C 0.39265 0.28707 0.61771 0.0
N542 N 0.39132 0.21953 0.7661 0.0
N543 N 0.4129 0.27406 0.50274 0.0
H544 H 0.38037 0.34659 0.64286 0.0
H545 H 0.38555 0.33835 0.55581 0.0
H546 H 0.42081 0.25516 0.46353 0.0
H547 H 0.41565 0.30396 0.49066 0.0
H548 H 0.3986 0.19131 0.78235 0.0
H549 H 0.38567 0.23884 0.80611 0.0
H550 H 0.3919 0.15157 0.70386 0.0
H551 H 0.40418 0.14357 0.62001 0.0
C552 C 0.879 0.72567 0.02724 0.0
C553 C 0.88449 0.76725 0.03297 0.0
C554 C 0.88442 0.76193 0.15777 0.0
C555 C 0.87559 0.72135 0.15157 0.0
N556 N 0.87413 0.66181 0.08504 0.0
N557 N 0.89896 0.82426 0.10276 0.0
C558 C 0.87655 0.70223 0.08753 0.0
C559 C 0.88971 0.78506 0.09807 0.0
N560 N 0.87515 0.70899 0.96433 0.0
N561 N 0.88607 0.7784 0.22126 0.0
H562 H 0.89996 0.84337 0.06123 0.0
H563 H 0.90687 0.8381 0.14749 0.0
H564 H 0.88454 0.76121 0.26533 0.0
H565 H 0.88844 0.8086 0.23103 0.0
H566 H 0.86784 0.67962 0.95613 0.0
H567 H 0.87788 0.72522 0.91948 0.0
H568 H 0.87667 0.64515 0.04081 0.0
H569 H 0.87234 0.64458 0.129 0.0
C570 C 0.60453 0.21586 0.60437 0.0
C571 C 0.6333 0.21028 0.55753 0.0
C572 C 0.66605 0.2613 0.61826 0.0
C573 C 0.64009 0.26217 0.67034 0.0
N574 N 0.59159 0.22711 0.72338 0.0
N575 N 0.69734 0.21393 0.55066 0.0
C576 C 0.61142 0.23526 0.66708 0.0
C577 C 0.6659 0.22936 0.57216 0.0
N578 N 0.57057 0.20489 0.589 0.0
N579 N 0.69183 0.28964 0.61432 0.0
H580 H 0.69904 0.18557 0.52978 0.0
H581 H 0.72169 0.22612 0.56506 0.0
H582 H 0.69245 0.31426 0.64649 0.0
H583 H 0.71003 0.29026 0.57436 0.0
H584 H 0.54956 0.20884 0.6228 0.0
H585 H 0.56225 0.19764 0.54013 0.0
H586 H 0.5724 0.20476 0.72389 0.0
H587 H 0.59601 0.24099 0.77006 0.0
C588 C 0.85468 0.23031 0.83166 0.0
C589 C 0.86577 0.27047 0.82851 0.0
C590 C 0.89141 0.26453 0.94258 0.0
C591 C 0.87615 0.22612 0.94839 0.0
N592 N 0.83753 0.17537 0.90321 0.0
N593 N 0.89095 0.32787 0.88368 0.0
C594 C 0.85594 0.20996 0.89442 0.0
C595 C 0.88344 0.2882 0.88449 0.0
N596 N 0.84398 0.21121 0.77383 0.0
N597 N 0.91343 0.27828 0.99246 0.0
H598 H 0.88526 0.34604 0.84224 0.0
H599 H 0.90047 0.34333 0.9257 0.0
H600 H 0.91822 0.26254 0.0372 0.0
H601 H 0.92847 0.30408 0.98773 0.0
H602 H 0.83877 0.18086 0.77187 0.0
H603 H 0.84413 0.22481 0.72616 0.0
H604 H 0.81943 0.16448 0.86776 0.0
H605 H 0.83758 0.15959 0.94868 0.0
C606 C 0.61876 0.70032 0.39946 0.0
C607 C 0.63026 0.71901 0.33885 0.0
C608 C 0.62643 0.78425 0.39337 0.0
C609 C 0.61891 0.76526 0.45608 0.0
N610 N 0.6093 0.70584 0.52146 0.0
N611 N 0.64649 0.77799 0.27686 0.0
C612 C 0.61516 0.7234 0.45983 0.0
C613 C 0.63422 0.76083 0.33538 0.0
N614 N 0.61148 0.66058 0.39893 0.0
N615 N 0.62515 0.82475 0.3889 0.0
H616 H 0.64964 0.76228 0.23152 0.0
H617 H 0.65505 0.8073 0.27372 0.0
H618 H 0.61993 0.84303 0.43044 0.0
H619 H 0.62661 0.84034 0.34333 0.0
H620 H 0.6001 0.6454 0.4395 0.0
H621 H 0.61443 0.64318 0.35542 0.0
H622 H 0.60952 0.67531 0.52927 0.0
H623 H 0.6064 0.72209 0.56628 0.0
C624 C 0.6163 0.77404 0.97372 0.0
C625 C 0.61826 0.73237 0.96435 0.0
C626 C 0.62691 0.74092 0.84176 0.0
C627 C 0.62841 0.78255 0.8523 0.0
N628 N 0.62373 0.83985 0.92444 0.0
N629 N 0.62231 0.67513 0.89142 0.0
C630 C 0.62249 0.7995 0.91719 0.0
C631 C 0.62221 0.71554 0.89861 0.0
N632 N 0.60809 0.78896 0.03644 0.0
N633 N 0.63096 0.72587 0.77745 0.0
H634 H 0.61888 0.65588 0.93222 0.0
H635 H 0.62688 0.65998 0.84632 0.0
H636 H 0.63538 0.74344 0.7347 0.0
H637 H 0.62895 0.69609 0.76457 0.0
H638 H 0.6033 0.81879 0.04628 0.0
H639 H 0.60424 0.77093 0.07893 0.0
H640 H 0.623 0.85457 0.97086 0.0
H641 H 0.62636 0.85901 0.88303 0.0
C642 C 0.87658 0.29578 0.37988 0.0
C643 C 0.89157 0.27996 0.44002 0.0
C644 C 0.89687 0.21448 0.38669 0.0
C645 C 0.88163 0.23046 0.32684 0.0
N646 N 0.86738 0.28754 0.25883 0.0
N647 N 0.92306 0.2274 0.49729 0.0
C648 C 0.87491 0.27165 0.3211 0.0
C649 C 0.90428 0.24032 0.44214 0.0
N650 N 0.8631 0.33348 0.37941 0.0
N651 N 0.90224 0.1745 0.39199 0.0
H652 H 0.92768 0.24514 0.53986 0.0
H653 H 0.93612 0.2002 0.49903 0.0
H654 H 0.89793 0.15494 0.35178 0.0
H655 H 0.90923 0.16037 0.43708 0.0
H656 H 0.84809 0.34488 0.33949 0.0
H657 H 0.86479 0.35266 0.42093 0.0
H658 H 0.86508 0.31789 0.24991 0.0
H659 H 0.86715 0.2704 0.21461 0.0
C660 C 0.63551 0.27791 0.10274 0.0
C661 C 0.62316 0.26269 0.03987 0.0
C662 C 0.63025 0.19461 0.08104 0.0
C663 C 0.64223 0.20984 0.14408 0.0
N664 N 0.65019 0.26506 0.2206 0.0
N665 N 0.6024 0.20792 0.97206 0.0
C666 C 0.64258 0.25127 0.15684 0.0
C667 C 0.61838 0.22137 0.03 0.0
N668 N 0.64201 0.3177 0.1096 0.0
N669 N 0.6317 0.15467 0.06927 0.0
H670 H 0.59417 0.22688 0.93321 0.0
H671 H 0.59503 0.17847 0.96445 0.0
H672 H 0.63869 0.13435 0.10699 0.0
H673 H 0.62748 0.14179 0.02188 0.0
H674 H 0.65517 0.33014 0.15095 0.0
H675 H 0.63644 0.33841 0.07167 0.0
H676 H 0.64755 0.29462 0.23508 0.0
H677 H 0.65602 0.24636 0.26125 0.0
C678 C 0.88572 0.75968 0.53481 0.0
C679 C 0.87918 0.71832 0.5408 0.0
C680 C 0.87323 0.72541 0.66406 0.0
C681 C 0.87427 0.76714 0.65706 0.0
N682 N 0.8805 0.82502 0.58644 0.0
N683 N 0.86006 0.66297 0.60927 0.0
C684 C 0.88079 0.78465 0.59269 0.0
C685 C 0.87146 0.70138 0.60508 0.0
N686 N 0.8968 0.77494 0.47406 0.0
N687 N 0.87352 0.70892 0.72751 0.0
H688 H 0.85529 0.64571 0.56631 0.0
H689 H 0.85127 0.6499 0.6542 0.0
H690 H 0.8751 0.72617 0.77152 0.0
H691 H 0.87593 0.67853 0.73607 0.0
H692 H 0.90544 0.80406 0.4679 0.0
H693 H 0.89949 0.75762 0.4304 0.0
H694 H 0.88072 0.83973 0.53994 0.0
H695 H 0.87846 0.84395 0.62822 0.0
C696 C 0.40229 0.25317 0.19849 0.0
C697 C 0.37109 0.23029 0.20786 0.0
C698 C 0.34587 0.26335 0.10901 0.0
C699 C 0.37972 0.27905 0.09128 0.0
N700 N 0.44332 0.27528 0.11335 0.0
N701 N 0.31756 0.2052 0.15476 0.0
C702 C 0.40907 0.26976 0.13397 0.0
C703 C 0.34407 0.23262 0.15792 0.0
N704 N 0.42425 0.26169 0.25153 0.0
N705 N 0.31527 0.27963 0.08492 0.0
H706 H 0.31766 0.17967 0.18459 0.0
H707 H 0.29875 0.20543 0.11583 0.0
H708 H 0.31488 0.3067 0.05934 0.0
H709 H 0.29032 0.26945 0.10011 0.0
H710 H 0.44617 0.28042 0.24627 0.0
H711 H 0.41745 0.25517 0.30164 0.0
H712 H 0.46485 0.26681 0.14347 0.0
H713 H 0.45012 0.28266 0.06359 0.0
C714 C 0.12921 0.73049 0.66419 0.0
C715 C 0.12656 0.77183 0.65299 0.0
C716 C 0.10824 0.75995 0.53527 0.0
C717 C 0.11646 0.71915 0.54381 0.0
N718 N 0.13698 0.66529 0.61456 0.0
N719 N 0.11323 0.82702 0.58015 0.0
C720 C 0.12718 0.70421 0.60803 0.0
C721 C 0.11543 0.78692 0.58934 0.0
N722 N 0.1338 0.71662 0.7289 0.0
N723 N 0.09325 0.77265 0.47589 0.0
H724 H 0.11663 0.84709 0.62005 0.0
H725 H 0.10934 0.84042 0.5331 0.0
H726 H 0.08845 0.75368 0.43497 0.0
H727 H 0.08348 0.80121 0.46861 0.0
H728 H 0.13291 0.68668 0.7418 0.0
H729 H 0.13506 0.73554 0.77087 0.0
H730 H 0.14874 0.65367 0.65809 0.0
H731 H 0.13593 0.645 0.57455 0.0
C732 C 0.38877 0.70765 0.88455 0.0
C733 C 0.38866 0.72358 0.95144 0.0
C734 C 0.37679 0.79008 0.90637 0.0
C735 C 0.37226 0.77318 0.84115 0.0
N736 N 0.37333 0.71691 0.7658 0.0
N737 N 0.38353 0.77923 0.02778 0.0
C738 C 0.37877 0.73235 0.82931 0.0
C739 C 0.38322 0.76473 0.96285 0.0
N740 N 0.39778 0.66878 0.87406 0.0
N741 N 0.37481 0.83038 0.91367 0.0
H742 H 0.38979 0.76178 0.06989 0.0
H743 H 0.37628 0.80802 0.04076 0.0
H744 H 0.37038 0.84932 0.87256 0.0
H745 H 0.38014 0.84542 0.95868 0.0
H746 H 0.4024 0.65657 0.82631 0.0
H747 H 0.40268 0.64878 0.91333 0.0
H748 H 0.37311 0.68671 0.75486 0.0
H749 H 0.36752 0.73455 0.72363 0.0
C750 C 0.1344 0.22972 0.45395 0.0
C751 C 0.12711 0.27091 0.45044 0.0
C752 C 0.12662 0.26819 0.32592 0.0
C753 C 0.13696 0.22787 0.32937 0.0
N754 N 0.15407 0.17047 0.39472 0.0
N755 N 0.12016 0.33092 0.38432 0.0
C756 C 0.14138 0.20848 0.39288 0.0
C757 C 0.12386 0.29052 0.38672 0.0
N758 N 0.13397 0.2109 0.5155 0.0
N759 N 0.11944 0.285 0.2641 0.0
H760 H 0.11823 0.34872 0.42744 0.0
H761 H 0.1218 0.34754 0.33988 0.0
H762 H 0.12205 0.26957 0.21836 0.0
H763 H 0.10789 0.31282 0.25806 0.0
H764 H 0.13553 0.18025 0.52117 0.0
H765 H 0.12953 0.22583 0.56118 0.0
H766 H 0.16234 0.15636 0.43901 0.0
H767 H 0.15829 0.15353 0.35108 0.0
C768 C 0.02755 0.19224 0.25323 0.0
C769 C 0.04427 0.15471 0.25791 0.0
C770 C 0.98685 0.12316 0.27714 0.0
C771 C 0.97072 0.15784 0.25138 0.0
N772 N 0.97192 0.22823 0.23721 0.0
N773 N 0.04237 0.08825 0.29988 0.0
C774 C 0.98985 0.19378 0.24938 0.0
C775 C 0.02453 0.12171 0.28113 0.0
N776 N 0.04793 0.22539 0.24717 0.0
N777 N 0.96601 0.09105 0.29104 0.0
H778 H 0.07012 0.08777 0.3013 0.0
H779 H 0.03025 0.06211 0.31578 0.0
H780 H 0.93836 0.09277 0.28737 0.0
H781 H 0.97556 0.06372 0.30735 0.0
H782 H 0.0381 0.25413 0.24346 0.0
H783 H 0.07541 0.22361 0.24953 0.0
H784 H 0.98384 0.25584 0.23124 0.0
H785 H 0.94425 0.22878 0.23439 0.0
C786 C 0.47629 0.79361 0.7434 0.0
C787 C 0.459 0.83028 0.75529 0.0
C788 C 0.51487 0.86008 0.79107 0.0
C789 C 0.53249 0.82773 0.76059 0.0
N790 N 0.53275 0.7581 0.73831 0.0
N791 N 0.45806 0.89216 0.81451 0.0
C792 C 0.51392 0.79204 0.7492 0.0
C793 C 0.47714 0.86105 0.78942 0.0
N794 N 0.45708 0.76216 0.7199 0.0
N795 N 0.53468 0.89107 0.81448 0.0
H796 H 0.43033 0.89235 0.81195 0.0
H797 H 0.46914 0.91612 0.84024 0.0
H798 H 0.56242 0.88963 0.81456 0.0
H799 H 0.52411 0.91723 0.8339 0.0
H800 H 0.46812 0.73535 0.7044 0.0
H801 H 0.4295 0.7635 0.71571 0.0
H802 H 0.52126 0.73033 0.7311 0.0
H803 H 0.56044 0.75795 0.7415 0.0
C804 C 0.98261 0.80159 0.74601 0.0
C805 C 0.96532 0.83828 0.73458 0.0
C806 C 0.0223 0.86957 0.70921 0.0
C807 C 0.0392 0.83692 0.74044 0.0
N808 N 0.03883 0.76782 0.76818 0.0
N809 N 0.9661 0.90198 0.68171 0.0
C810 C 0.02042 0.80101 0.74986 0.0
C811 C 0.98453 0.87019 0.70605 0.0
N812 N 0.9626 0.7686 0.75818 0.0
N813 N 0.0426 0.90078 0.6882 0.0
H814 H 0.93834 0.90175 0.6803 0.0
H815 H 0.97775 0.92731 0.66136 0.0
H816 H 0.07031 0.89965 0.69097 0.0
H817 H 0.03255 0.92661 0.66667 0.0
H818 H 0.97293 0.74055 0.76766 0.0
H819 H 0.93498 0.76936 0.75507 0.0
H820 H 0.02725 0.74066 0.77988 0.0
H821 H 0.06654 0.76776 0.77017 0.0
C822 C 0.4965 0.14581 0.22252 0.0
C823 C 0.48264 0.17203 0.27222 0.0
C824 C 0.53606 0.21239 0.26175 0.0
C825 C 0.55365 0.17875 0.23661 0.0
N826 N 0.55013 0.12161 0.16606 0.0
N827 N 0.48876 0.23261 0.3372 0.0
C828 C 0.53311 0.14914 0.20485 0.0
C829 C 0.50155 0.20718 0.28911 0.0
N830 N 0.47524 0.11678 0.19645 0.0
N831 N 0.55446 0.24688 0.26851 0.0
H832 H 0.46438 0.22828 0.36121 0.0
H833 H 0.50329 0.25653 0.35599 0.0
H834 H 0.58081 0.24881 0.25234 0.0
H835 H 0.54279 0.27333 0.28447 0.0
H836 H 0.48331 0.0967 0.15941 0.0
H837 H 0.44847 0.11461 0.20993 0.0
H838 H 0.5379 0.09699 0.14439 0.0
H839 H 0.57734 0.12416 0.15654 0.0
C840 C 0.5187 0.69885 0.24848 0.0
C841 C 0.53659 0.66231 0.25766 0.0
C842 C 0.48125 0.63132 0.29441 0.0
C843 C 0.46286 0.6631 0.26381 0.0
N844 N 0.46136 0.73248 0.23906 0.0
N845 N 0.53839 0.59854 0.31063 0.0
C846 C 0.48085 0.69925 0.25209 0.0
C847 C 0.51897 0.63056 0.29032 0.0
N848 N 0.53786 0.73167 0.23109 0.0
N849 N 0.46204 0.60072 0.32089 0.0
H850 H 0.56607 0.59847 0.30667 0.0
H851 H 0.52762 0.57294 0.33175 0.0
H852 H 0.43429 0.60175 0.32173 0.0
H853 H 0.47309 0.57587 0.344 0.0
H854 H 0.52685 0.75929 0.22069 0.0
H855 H 0.56557 0.73107 0.22958 0.0
H856 H 0.47216 0.76015 0.22811 0.0
H857 H 0.43368 0.73212 0.24239 0.0
C858 C 0.98362 0.29511 0.73974 0.0
C859 C 0.96543 0.33076 0.75457 0.0
C860 C 0.02148 0.36289 0.78423 0.0
C861 C 0.03942 0.33184 0.75034 0.0
N862 N 0.04083 0.26328 0.71827 0.0
N863 N 0.96436 0.39195 0.8155 0.0
C864 C 0.02152 0.29564 0.7375 0.0
C865 C 0.98371 0.36192 0.78749 0.0
N866 N 0.96432 0.2624 0.72234 0.0
N867 N 0.04072 0.39444 0.80728 0.0
H868 H 0.93662 0.39104 0.81557 0.0
H869 H 0.97526 0.41628 0.84044 0.0
H870 H 0.06845 0.3945 0.80466 0.0
H871 H 0.02978 0.41963 0.82949 0.0
H872 H 0.97524 0.23536 0.70782 0.0
H873 H 0.93663 0.26246 0.72508 0.0
H874 H 0.02997 0.23581 0.70614 0.0
H875 H 0.06853 0.26394 0.71726 0.0
C876 C 0.51757 0.38747 0.744 0.0
C877 C 0.5384 0.35258 0.7442 0.0
C878 C 0.48556 0.31185 0.75528 0.0
C879 C 0.46602 0.34637 0.77156 0.0
N880 N 0.45856 0.41653 0.75562 0.0
N881 N 0.53844 0.28727 0.69922 0.0
C882 C 0.48032 0.38417 0.75534 0.0
C883 C 0.52106 0.31639 0.73276 0.0
N884 N 0.5344 0.42326 0.74095 0.0
N885 N 0.47144 0.27521 0.76613 0.0
H886 H 0.56346 0.29303 0.67865 0.0
H887 H 0.52612 0.26088 0.68497 0.0
H888 H 0.44561 0.27157 0.78404 0.0
H889 H 0.48605 0.24914 0.76049 0.0
H890 H 0.52177 0.45049 0.74698 0.0
H891 H 0.56182 0.42486 0.73308 0.0
H892 H 0.46681 0.44501 0.74264 0.0
H893 H 0.43131 0.4138 0.76453 0.0
C894 C 0.01326 0.62557 0.21933 0.0
C895 C 0.02985 0.65303 0.26312 0.0
C896 C 0.9725 0.67877 0.30018 0.0
C897 C 0.95576 0.64758 0.26324 0.0
N898 N 0.95801 0.59961 0.17297 0.0
N899 N 0.02715 0.71389 0.32621 0.0
C900 C 0.97553 0.62405 0.21706 0.0
C901 C 0.00987 0.68302 0.29558 0.0
N902 N 0.03388 0.59935 0.18419 0.0
N903 N 0.95351 0.7017 0.34462 0.0
H904 H 0.05479 0.71607 0.32675 0.0
H905 H 0.01435 0.7388 0.34569 0.0
H906 H 0.92604 0.70085 0.34912 0.0
H907 H 0.96509 0.72065 0.38003 0.0
H908 H 0.02399 0.57558 0.15626 0.0
H909 H 0.06157 0.60154 0.18444 0.0
H910 H 0.9705 0.5829 0.13549 0.0
H911 H 0.93031 0.59847 0.17085 0.0
C912 C 0.16352 0.03488 0.95833 0.0
C913 C 0.1597 0.03509 0.02997 0.0
C914 C 0.16089 0.96281 0.02985 0.0
C915 C 0.15386 0.96345 0.959 0.0
N916 N 0.15076 -0.00023 0.85364 0.0
N917 N 0.15836 -0.00072 0.13591 0.0
C918 C 0.15679 -0.00071 0.92204 0.0
C919 C 0.16055 -0.00096 0.06667 0.0
N920 N 0.17257 0.06916 0.92569 0.0
N921 N 0.16741 0.92747 0.06148 0.0
H922 H 0.15872 0.02537 0.16429 0.0
H923 H 0.15462 0.97378 0.16493 0.0
H924 H 0.16822 0.90064 0.03492 0.0
H925 H 0.17546 0.92526 0.11196 0.0
H926 H 0.17809 0.07065 0.87388 0.0
H927 H 0.17804 0.09522 0.95252 0.0
H928 H 0.14908 0.02577 0.82522 0.0
H929 H 0.14537 0.97411 0.82593 0.0
C930 C 0.34652 0.96514 0.46172 0.0
C931 C 0.35301 0.96305 0.53278 0.0
C932 C 0.35278 0.03541 0.53729 0.0
C933 C 0.35687 0.03647 0.46564 0.0
N934 N 0.35472 0.00296 0.35786 0.0
N935 N 0.36068 0.99686 0.63999 0.0
C936 C 0.352 0.00162 0.42697 0.0
C937 C 0.3547 -0.00159 0.5716 0.0
N938 N 0.33504 0.93214 0.42813 0.0
N939 N 0.34813 0.0701 0.57208 0.0
H940 H 0.36242 0.97032 0.66687 0.0
H941 H 0.36602 0.02184 0.66943 0.0
H942 H 0.34654 0.09743 0.54721 0.0
H943 H 0.34233 0.07133 0.6238 0.0
H944 H 0.32765 0.93213 0.37713 0.0
H945 H 0.32908 0.90599 0.45407 0.0
H946 H 0.35532 0.97772 0.32732 0.0
H947 H 0.358 0.02954 0.33145 0.0
C948 C 0.8467 0.02917 0.9756 0.0
C949 C 0.86162 0.03067 0.04159 0.0
C950 C 0.85988 0.95823 0.0482 0.0
C951 C 0.85212 0.9567 0.97744 0.0
N952 N 0.82116 0.98919 0.88681 0.0
N953 N 0.87927 -0.00208 0.14472 0.0
C954 C 0.84043 0.9918 0.94472 0.0
C955 C 0.86646 0.99555 0.07986 0.0
N956 N 0.83944 0.06372 0.94193 0.0
N957 N 0.85996 0.92376 0.08477 0.0
H958 H 0.88328 0.02496 0.16942 0.0
H959 H 0.88718 0.97346 0.17318 0.0
H960 H 0.85289 0.89667 0.0628 0.0
H961 H 0.86335 0.92235 0.13718 0.0
H962 H 0.83313 0.06532 0.89052 0.0
H963 H 0.84084 0.09137 0.96551 0.0
H964 H 0.80946 0.01298 0.86166 0.0
H965 H 0.81227 0.96203 0.87092 0.0
C966 C 0.64067 0.02671 0.52822 0.0
C967 C 0.64144 0.02453 0.45634 0.0
C968 C 0.649 0.95304 0.46278 0.0
C969 C 0.63837 0.95464 0.532 0.0
N970 N 0.62566 0.9929 0.63282 0.0
N971 N 0.65021 0.98699 0.35389 0.0
C972 C 0.63555 0.99145 0.56606 0.0
C973 C 0.64754 0.98812 0.42305 0.0
N974 N 0.64436 0.06264 0.55966 0.0
N975 N 0.66045 0.91795 0.43584 0.0
H976 H 0.65039 0.0127 0.32433 0.0
H977 H 0.65083 0.96076 0.32593 0.0
H978 H 0.66303 0.89239 0.46542 0.0
H979 H 0.67067 0.91515 0.38691 0.0
H980 H 0.64691 0.06585 0.61208 0.0
H981 H 0.64857 0.08883 0.53246 0.0
H982 H 0.61916 0.01915 0.65782 0.0
H983 H 0.62197 0.96758 0.66239 0.0
C984 C 0.62035 0.53204 0.94072 0.0
C985 C 0.64056 0.54241 -0.00069 0.0
C986 C 0.66959 0.4775 0.99464 0.0
C987 C 0.6428 0.46443 0.94926 0.0
N988 N 0.59409 0.47944 0.87392 0.0
N989 N 0.69939 0.53465 0.04399 0.0
C990 C 0.61895 0.4919 0.91989 0.0
C991 C 0.66992 0.51803 0.01567 0.0
N992 N 0.60571 0.56087 0.90089 0.0
N993 N 0.69361 0.4509 0.01955 0.0
H994 H 0.70128 0.56508 0.05289 0.0
H995 H 0.7235 0.51972 0.04783 0.0
H996 H 0.693 0.42083 0.00686 0.0
H997 H 0.71361 0.45829 0.05356 0.0
H998 H 0.59299 0.55512 0.85493 0.0
H999 H 0.61152 0.59076 0.90775 0.0
H1000 H 0.573 0.49713 0.85794 0.0
H1001 H 0.59339 0.45063 0.85448 0.0
C1002 C 0.83607 0.50365 0.44713 0.0
C1003 C 0.8578 0.53631 0.4655 0.0
C1004 C 0.87342 0.50323 0.57303 0.0
C1005 C 0.85771 0.46836 0.54778 0.0
N1006 N 0.81951 0.43496 0.46872 0.0
N1007 N 0.89168 0.571 0.55178 0.0
C1008 C 0.83659 0.46891 0.48827 0.0
C1009 C 0.87417 0.5375 0.53116 0.0
N1010 N 0.8164 0.50517 0.38915 0.0
N1011 N 0.88817 0.50278 0.63654 0.0
H1012 H 0.89049 0.59763 0.5251 0.0
H1013 H 0.90773 0.57288 0.59461 0.0
H1014 H 0.88716 0.47764 0.66751 0.0
H1015 H 0.89921 0.52729 0.66068 0.0
H1016 H 0.79623 0.4852 0.37737 0.0
H1017 H 0.81986 0.52746 0.35345 0.0
H1018 H 0.80677 0.43124 0.42227 0.0
H1019 H 0.81855 0.4098 0.49963 0.0
C1020 C 0.33793 0.46561 0.0361 0.0
C1021 C 0.34457 0.46336 0.96552 0.0
C1022 C 0.34914 0.53531 0.96075 0.0
C1023 C 0.35318 0.53584 0.0326 0.0
N1024 N 0.35071 0.50119 0.14002 0.0
N1025 N 0.3531 0.49556 0.85809 0.0
C1026 C 0.34632 0.50116 0.07114 0.0
C1027 C 0.34813 0.49823 0.92661 0.0
N1028 N 0.32566 0.43284 0.0694 0.0
N1029 N 0.34679 0.5702 0.9257 0.0
H1030 H 0.35177 0.46846 0.83255 0.0
H1031 H 0.35991 0.51963 0.82756 0.0
H1032 H 0.34673 0.59774 0.95007 0.0
H1033 H 0.34142 0.5717 0.87385 0.0
H1034 H 0.31797 0.43306 0.12026 0.0
H1035 H 0.31997 0.40651 0.04349 0.0
H1036 H 0.34936 0.47564 0.16966 0.0
H1037 H 0.35822 0.52636 0.16715 0.0
C1038 C 0.15499 0.49216 0.4174 0.0
C1039 C 0.1572 0.52796 0.45439 0.0
C1040 C 0.16242 0.49205 0.56129 0.0
C1041 C 0.15673 0.45617 0.52531 0.0
N1042 N 0.16328 0.42077 0.41968 0.0
N1043 N 0.17919 0.5615 0.5533 0.0
C1044 C 0.15863 0.45586 0.4532 0.0
C1045 C 0.16707 0.52749 0.52362 0.0
N1046 N 0.14706 0.49276 0.34975 0.0
N1047 N 0.16019 0.49313 0.63047 0.0
H1048 H 0.18248 0.58765 0.52543 0.0
H1049 H 0.18927 0.56248 0.60258 0.0
H1050 H 0.1548 0.46812 0.65967 0.0
H1051 H 0.16104 0.51937 0.65841 0.0
H1052 H 0.14107 0.46734 0.32188 0.0
H1053 H 0.145 0.51913 0.32231 0.0
H1054 H 0.16689 0.41879 0.3673 0.0
H1055 H 0.16732 0.39417 0.44578 0.0
C1056 C 0.22255 0.26163 0.99668 0.0
C1057 C 0.22592 0.22023 0.00596 0.0
C1058 C 0.27961 0.21879 0.93584 0.0
C1059 C 0.2793 0.26081 0.93602 0.0
N1060 N 0.25069 0.32317 0.96167 0.0
N1061 N 0.25124 0.15765 0.97389 0.0
C1062 C 0.25035 0.28254 0.9636 0.0
C1063 C 0.25238 0.19821 0.97133 0.0
N1064 N 0.19304 0.28072 0.02041 0.0
N1065 N 0.30632 0.19905 0.90292 0.0
H1066 H 0.23035 0.14243 0.99717 0.0
H1067 H 0.26978 0.13885 0.95174 0.0
H1068 H 0.32634 0.21368 0.87614 0.0
H1069 H 0.30884 0.16837 0.90089 0.0
H1070 H 0.1871 0.31028 0.01034 0.0
H1071 H 0.17273 0.26592 0.04594 0.0
H1072 H 0.23249 0.34111 0.98688 0.0
H1073 H 0.27043 0.33955 0.93722 0.0
C1074 C 0.23673 0.78732 0.51269 0.0
C1075 C 0.26553 0.76912 0.54728 0.0
C1076 C 0.24889 0.70419 0.502 0.0
C1077 C 0.22091 0.72246 0.4653 0.0
N1078 N 0.18458 0.77965 0.44105 0.0
N1079 N 0.30234 0.71208 0.56944 0.0
C1080 C 0.21361 0.76356 0.47246 0.0
C1081 C 0.27262 0.72806 0.54031 0.0
N1082 N 0.2329 0.82771 0.51566 0.0
N1083 N 0.25142 0.66366 0.50285 0.0
H1084 H 0.31973 0.72842 0.59974 0.0
H1085 H 0.31137 0.68345 0.55977 0.0
H1086 H 0.23347 0.64527 0.47747 0.0
H1087 H 0.269 0.64794 0.53345 0.0
H1088 H 0.21435 0.84381 0.48799 0.0
H1089 H 0.25018 0.84601 0.54284 0.0
H1090 H 0.17536 0.8083 0.4495 0.0
H1091 H 0.16803 0.76358 0.40879 0.0
C1092 C 0.26256 0.79902 0.97518 0.0
C1093 C 0.24178 0.77744 0.92755 0.0
C1094 C 0.27247 0.71608 0.95888 0.0
C1095 C 0.28837 0.73634 0.01406 0.0
N1096 N 0.29967 0.79655 0.07599 0.0
N1097 N 0.22632 0.71586 0.87275 0.0
C1098 C 0.28424 0.77787 0.02185 0.0
C1099 C 0.2468 0.73609 0.91853 0.0
N1100 N 0.26102 0.83959 0.97644 0.0
N1101 N 0.28197 0.67773 0.94547 0.0
H1102 H 0.20774 0.72978 0.84146 0.0
H1103 H 0.226 0.68507 0.86863 0.0
H1104 H 0.30078 0.66253 0.97439 0.0
H1105 H 0.27385 0.6622 0.90246 0.0
H1106 H 0.27815 0.8572 0.00496 0.0
H1107 H 0.24387 0.856 0.94573 0.0
H1108 H 0.29425 0.82572 0.08993 0.0
H1109 H 0.31709 0.78206 0.10895 0.0
C1110 C 0.28751 0.21711 0.54673 0.0
C1111 C 0.28601 0.21746 0.4745 0.0
C1112 C 0.23457 0.26192 0.47899 0.0
C1113 C 0.23755 0.26438 0.55062 0.0
N1114 N 0.2615 0.23386 0.6533 0.0
N1115 N 0.24229 0.21703 0.38533 0.0
C1116 C 0.26226 0.23913 0.58461 0.0
C1117 C 0.25497 0.23317 0.4438 0.0
N1118 N 0.31084 0.19315 0.58041 0.0
N1119 N 0.21361 0.28765 0.44367 0.0
H1120 H 0.25137 0.18949 0.36873 0.0
H1121 H 0.21876 0.22643 0.36265 0.0
H1122 H 0.20005 0.31098 0.46674 0.0
H1123 H 0.21282 0.28801 0.39066 0.0
H1124 H 0.31391 0.19399 0.63314 0.0
H1125 H 0.32432 0.16995 0.55691 0.0
H1126 H 0.24236 0.24595 0.68558 0.0
H1127 H 0.24236 0.24595 0.68558 0.0
C1128 C 0.7783 0.76578 0.00695 0.0
C1129 C 0.76951 0.76908 0.93789 0.0
C1130 C 0.72305 0.71782 0.95402 0.0
C1131 C 0.73215 0.71629 0.02393 0.0
N1132 N 0.78575 0.71628 0.0908 0.0
N1133 N 0.73419 0.74636 0.84237 0.0
C1134 C 0.76464 0.73378 0.04374 0.0
C1135 C 0.74194 0.74459 0.91017 0.0
N1136 N 0.79916 0.79326 0.03871 0.0
N1137 N 0.7009 0.68963 0.92799 0.0
H1138 H 0.75052 0.76016 0.80679 0.0
H1139 H 0.71122 0.73459 0.82101 0.0
H1140 H 0.69119 0.66621 0.95711 0.0
H1141 H 0.69573 0.68607 0.87645 0.0
H1142 H 0.80442 0.79193 0.09078 0.0
H1143 H 0.80737 0.81944 0.01525 0.0
H1144 H 0.81072 0.72783 0.10027 0.0
H1145 H 0.78172 0.68743 0.10845 0.0
C1146 C 0.76046 0.28731 0.45999 0.0
C1147 C 0.78842 0.26862 0.49572 0.0
C1148 C 0.77327 0.20478 0.44353 0.0
C1149 C 0.7418 0.22239 0.417 0.0
N1150 N 0.70532 0.28007 0.39742 0.0
N1151 N 0.8256 0.2121 0.51573 0.0
C1152 C 0.7356 0.26373 0.42366 0.0
C1153 C 0.79651 0.22815 0.48458 0.0
N1154 N 0.75805 0.32779 0.4612 0.0
N1155 N 0.77998 0.16545 0.43164 0.0
H1156 H 0.84314 0.2292 0.54447 0.0
H1157 H 0.83286 0.1824 0.51336 0.0
H1158 H 0.76259 0.14693 0.40529 0.0
H1159 H 0.803 0.15078 0.44623 0.0
H1160 H 0.74006 0.34407 0.43237 0.0
H1161 H 0.77654 0.3454 0.48685 0.0
H1162 H 0.69712 0.30902 0.40698 0.0
H1163 H 0.68717 0.26393 0.36849 0.0
C1164 C 0.72403 0.22769 0.96993 0.0
C1165 C 0.72676 0.26963 0.97411 0.0
C1166 C 0.77516 0.26403 0.05703 0.0
C1167 C 0.7739 0.22212 0.04975 0.0
N1168 N 0.75005 0.16351 0.99656 0.0
N1169 N 0.74842 0.32798 0.03063 0.0
C1170 C 0.74877 0.20374 0.00612 0.0
C1171 C 0.7506 0.28788 0.02026 0.0
N1172 N 0.69766 0.2109 0.93174 0.0
N1173 N 0.8001 0.28087 0.09862 0.0
H1174 H 0.72963 0.34573 0.0062 0.0
H1175 H 0.76299 0.34354 0.06673 0.0
H1176 H 0.81748 0.26431 0.12849 0.0
H1177 H 0.80498 0.31118 0.10177 0.0
H1178 H 0.69155 0.1808 0.93213 0.0
H1179 H 0.6798 0.22745 0.90296 0.0
H1180 H 0.73492 0.14822 0.96094 0.0
H1181 H 0.76839 0.14524 0.02106 0.0
C1182 C 0.75554 0.70482 0.50863 0.0
C1183 C 0.77289 0.72925 0.46037 0.0
C1184 C 0.7377 0.78661 0.49477 0.0
C1185 C 0.72058 0.76237 0.54414 0.0
N1186 N 0.71406 0.69997 0.60263 0.0
N1187 N 0.78635 0.79343 0.41435 0.0
C1188 C 0.72979 0.72185 0.55234 0.0
C1189 C 0.7656 0.77022 0.45536 0.0
N1190 N 0.76296 0.66508 0.51073 0.0
N1191 N 0.7275 0.82527 0.48593 0.0
H1192 H 0.80746 0.78187 0.38619 0.0
H1193 H 0.78493 0.82423 0.41242 0.0
H1194 H 0.70867 0.83945 0.51607 0.0
H1195 H 0.73609 0.84304 0.44594 0.0
H1196 H 0.74842 0.64445 0.53852 0.0
H1197 H 0.7834 0.6522 0.48254 0.0
H1198 H 0.72247 0.67187 0.61739 0.0
H1199 H 0.69285 0.71059 0.63157 0.0
loop_
_geom_bond_atom_site_label_1
_geom_bond_atom_site_label_2
_geom_bond_distance
_geom_bond_site_symmetry_2
_ccdc_geom_bond_type
Zn0 O6 1.920 . S
Zn0 O12 1.898 . S
Zn0 O15 1.905 1_556 S
Zn1 O9 1.905 . S
Zn1 O10 1.898 . S
Zn1 O18 1.920 . S
Zn2 O5 2.080 . S
Zn2 O8 2.114 . S
Zn2 O11 2.120 . S
Zn2 O13 2.120 . S
Zn2 O14 2.114 . S
Zn2 O17 2.080 . S
C3 O8 1.166 . S
C3 O9 1.182 . S
C4 O10 1.167 . S
C4 O11 1.299 . S
O5 Zn2 2.080 . S
O5 C19 1.305 1_554 S
O6 Zn0 1.920 . S
O6 C19 1.234 . S
C7 O12 1.167 1_554 S
C7 O13 1.299 . S
O8 Zn2 2.114 . S
O8 C3 1.166 . S
O9 Zn1 1.905 . S
O9 C3 1.182 . S
O10 Zn1 1.898 . S
O10 C4 1.167 . S
O11 Zn2 2.120 . S
O11 C4 1.299 . S
O12 Zn0 1.898 . S
O12 C7 1.167 1_556 S
O13 Zn2 2.120 . S
O13 C7 1.299 . S
O14 Zn2 2.114 . S
O14 C16 1.166 . S
O15 Zn0 1.905 1_554 S
O15 C16 1.182 . S
C16 O14 1.166 . S
C16 O15 1.182 . S
O17 Zn2 2.080 . S
O17 C20 1.305 . S
O18 Zn1 1.920 . S
O18 C20 1.234 . S
C19 O5 1.305 1_556 S
C19 O6 1.234 . S
C20 O17 1.305 . S
C20 O18 1.234 . S
Zn21 O27 1.920 . S
Zn21 O33 1.898 . S
Zn21 O36 1.905 . S
Zn22 O30 1.905 . S
Zn22 O31 1.898 . S
Zn22 O39 1.920 . S
Zn23 O26 2.080 . S
Zn23 O29 2.114 . S
Zn23 O32 2.120 . S
Zn23 O34 2.120 . S
Zn23 O35 2.114 . S
Zn23 O38 2.080 . S
C24 O29 1.166 . S
C24 O30 1.182 . S
C25 O31 1.167 . S
C25 O32 1.299 . S
O26 Zn23 2.080 . S
O26 C40 1.305 . S
O27 Zn21 1.920 . S
O27 C40 1.234 . S
C28 O33 1.167 . S
C28 O34 1.299 . S
O29 Zn23 2.114 . S
O29 C24 1.166 . S
O30 Zn22 1.905 . S
O30 C24 1.182 . S
O31 Zn22 1.898 . S
O31 C25 1.167 . S
O32 Zn23 2.120 . S
O32 C25 1.299 . S
O33 Zn21 1.898 . S
O33 C28 1.167 . S
O34 Zn23 2.120 . S
O34 C28 1.299 . S
O35 Zn23 2.114 . S
O35 C37 1.166 . S
O36 Zn21 1.905 . S
O36 C37 1.182 . S
C37 O35 1.166 . S
C37 O36 1.182 . S
O38 Zn23 2.080 . S
O38 C41 1.305 . S
O39 Zn22 1.920 . S
O39 C41 1.234 . S
C40 O26 1.305 . S
C40 O27 1.234 . S
C41 O38 1.305 . S
C41 O39 1.234 . S
Zn42 O48 1.920 . S
Zn42 O54 1.898 . S
Zn42 O57 1.905 . S
Zn43 O51 1.905 1_554 S
Zn43 O52 1.898 . S
Zn43 O60 1.920 . S
Zn44 O47 2.080 . S
Zn44 O50 2.114 . S
Zn44 O53 2.120 . S
Zn44 O55 2.120 . S
Zn44 O56 2.114 . S
Zn44 O59 2.080 . S
C45 O50 1.166 . S
C45 O51 1.182 . S
C46 O52 1.167 1_556 S
C46 O53 1.299 . S
O47 Zn44 2.080 . S
O47 C61 1.305 . S
O48 Zn42 1.920 . S
O48 C61 1.234 . S
C49 O54 1.167 . S
C49 O55 1.299 . S
O50 Zn44 2.114 . S
O50 C45 1.166 . S
O51 Zn43 1.905 1_556 S
O51 C45 1.182 . S
O52 Zn43 1.898 . S
O52 C46 1.167 1_554 S
O53 Zn44 2.120 . S
O53 C46 1.299 . S
O54 Zn42 1.898 . S
O54 C49 1.167 . S
O55 Zn44 2.120 . S
O55 C49 1.299 . S
O56 Zn44 2.114 . S
O56 C58 1.166 . S
O57 Zn42 1.905 . S
O57 C58 1.182 . S
C58 O56 1.166 . S
C58 O57 1.182 . S
O59 Zn44 2.080 . S
O59 C62 1.305 1_556 S
O60 Zn43 1.920 . S
O60 C62 1.234 . S
C61 O47 1.305 . S
C61 O48 1.234 . S
C62 O59 1.305 1_554 S
C62 O60 1.234 . S
Zn63 O69 1.920 . S
Zn63 O75 1.898 . S
Zn63 O78 1.905 . S
Zn64 O72 1.905 . S
Zn64 O73 1.898 . S
Zn64 O81 1.920 . S
Zn65 O68 2.080 . S
Zn65 O71 2.114 . S
Zn65 O74 2.120 . S
Zn65 O76 2.120 . S
Zn65 O77 2.114 . S
Zn65 O80 2.080 . S
C66 O71 1.166 . S
C66 O72 1.182 . S
C67 O73 1.167 . S
C67 O74 1.299 . S
O68 Zn65 2.080 . S
O68 C82 1.305 . S
O69 Zn63 1.920 . S
O69 C82 1.234 . S
C70 O75 1.167 . S
C70 O76 1.299 . S
O71 Zn65 2.114 . S
O71 C66 1.166 . S
O72 Zn64 1.905 . S
O72 C66 1.182 . S
O73 Zn64 1.898 . S
O73 C67 1.167 . S
O74 Zn65 2.120 . S
O74 C67 1.299 . S
O75 Zn63 1.898 . S
O75 C70 1.167 . S
O76 Zn65 2.120 . S
O76 C70 1.299 . S
O77 Zn65 2.114 . S
O77 C79 1.166 . S
O78 Zn63 1.905 . S
O78 C79 1.182 . S
C79 O77 1.166 . S
C79 O78 1.182 . S
O80 Zn65 2.080 . S
O80 C83 1.305 . S
O81 Zn64 1.920 . S
O81 C83 1.234 . S
C82 O68 1.305 . S
C82 O69 1.234 . S
C83 O80 1.305 . S
C83 O81 1.234 . S
Zn84 O90 1.920 . S
Zn84 O96 1.898 . S
Zn84 O99 1.905 . S
Zn85 O93 1.905 1_554 S
Zn85 O94 1.898 . S
Zn85 O102 1.920 . S
Zn86 O89 2.080 . S
Zn86 O92 2.114 . S
Zn86 O95 2.120 . S
Zn86 O97 2.120 . S
Zn86 O98 2.114 . S
Zn86 O101 2.080 . S
C87 O92 1.166 . S
C87 O93 1.182 . S
C88 O94 1.167 1_556 S
C88 O95 1.299 . S
O89 Zn86 2.080 . S
O89 C103 1.305 . S
O90 Zn84 1.920 . S
O90 C103 1.234 . S
C91 O96 1.167 . S
C91 O97 1.299 . S
O92 Zn86 2.114 . S
O92 C87 1.166 . S
O93 Zn85 1.905 1_556 S
O93 C87 1.182 . S
O94 Zn85 1.898 . S
O94 C88 1.167 1_554 S
O95 Zn86 2.120 . S
O95 C88 1.299 . S
O96 Zn84 1.898 . S
O96 C91 1.167 . S
O97 Zn86 2.120 . S
O97 C91 1.299 . S
O98 Zn86 2.114 . S
O98 C100 1.166 . S
O99 Zn84 1.905 . S
O99 C100 1.182 . S
C100 O98 1.166 . S
C100 O99 1.182 . S
O101 Zn86 2.080 . S
O101 C104 1.305 1_556 S
O102 Zn85 1.920 . S
O102 C104 1.234 . S
C103 O89 1.305 . S
C103 O90 1.234 . S
C104 O101 1.305 1_554 S
C104 O102 1.234 . S
Zn105 O111 1.920 . S
Zn105 O117 1.898 . S
Zn105 O120 1.905 . S
Zn106 O114 1.905 . S
Zn106 O115 1.898 . S
Zn106 O123 1.920 . S
Zn107 O110 2.080 . S
Zn107 O113 2.114 . S
Zn107 O116 2.120 . S
Zn107 O118 2.120 . S
Zn107 O119 2.114 . S
Zn107 O122 2.080 . S
C108 O113 1.166 . S
C108 O114 1.182 . S
C109 O115 1.167 . S
C109 O116 1.299 . S
O110 Zn107 2.080 . S
O110 C124 1.305 . S
O111 Zn105 1.920 . S
O111 C124 1.234 . S
C112 O117 1.167 . S
C112 O118 1.299 . S
O113 Zn107 2.114 . S
O113 C108 1.166 . S
O114 Zn106 1.905 . S
O114 C108 1.182 . S
O115 Zn106 1.898 . S
O115 C109 1.167 . S
O116 Zn107 2.120 . S
O116 C109 1.299 . S
O117 Zn105 1.898 . S
O117 C112 1.167 . S
O118 Zn107 2.120 . S
O118 C112 1.299 . S
O119 Zn107 2.114 . S
O119 C121 1.166 . S
O120 Zn105 1.905 . S
O120 C121 1.182 . S
C121 O119 1.166 . S
C121 O120 1.182 . S
O122 Zn107 2.080 . S
O122 C125 1.305 . S
O123 Zn106 1.920 . S
O123 C125 1.234 . S
C124 O110 1.305 . S
C124 O111 1.234 . S
C125 O122 1.305 . S
C125 O123 1.234 . S
Zn126 O132 1.920 . S
Zn126 O138 1.898 . S
Zn126 O141 1.905 . S
Zn127 O135 1.905 1_556 S
Zn127 O136 1.898 . S
Zn127 O144 1.920 . S
Zn128 O131 2.080 . S
Zn128 O134 2.114 . S
Zn128 O137 2.120 . S
Zn128 O139 2.120 . S
Zn128 O140 2.114 . S
Zn128 O143 2.080 . S
C129 O134 1.166 . S
C129 O135 1.182 . S
C130 O136 1.167 1_554 S
C130 O137 1.299 . S
O131 Zn128 2.080 . S
O131 C145 1.305 . S
O132 Zn126 1.920 . S
O132 C145 1.234 . S
C133 O138 1.167 . S
C133 O139 1.299 . S
O134 Zn128 2.114 . S
O134 C129 1.166 . S
O135 Zn127 1.905 1_554 S
O135 C129 1.182 . S
O136 Zn127 1.898 . S
O136 C130 1.167 1_556 S
O137 Zn128 2.120 . S
O137 C130 1.299 . S
O138 Zn126 1.898 . S
O138 C133 1.167 . S
O139 Zn128 2.120 . S
O139 C133 1.299 . S
O140 Zn128 2.114 . S
O140 C142 1.166 . S
O141 Zn126 1.905 . S
O141 C142 1.182 . S
C142 O140 1.166 . S
C142 O141 1.182 . S
O143 Zn128 2.080 . S
O143 C146 1.305 1_554 S
O144 Zn127 1.920 . S
O144 C146 1.234 . S
C145 O131 1.305 . S
C145 O132 1.234 . S
C146 O143 1.305 1_556 S
C146 O144 1.234 . S
Zn147 O153 1.920 . S
Zn147 O159 1.898 . S
Zn147 O162 1.905 . S
Zn148 O156 1.905 . S
Zn148 O157 1.898 . S
Zn148 O165 1.920 . S
Zn149 O152 2.080 . S
Zn149 O155 2.114 . S
Zn149 O158 2.120 . S
Zn149 O160 2.120 . S
Zn149 O161 2.114 . S
Zn149 O164 2.080 . S
C150 O155 1.166 . S
C150 O156 1.182 . S
C151 O157 1.167 . S
C151 O158 1.299 . S
O152 Zn149 2.080 . S
O152 C166 1.305 . S
O153 Zn147 1.920 . S
O153 C166 1.234 . S
C154 O159 1.167 . S
C154 O160 1.299 . S
O155 Zn149 2.114 . S
O155 C150 1.166 . S
O156 Zn148 1.905 . S
O156 C150 1.182 . S
O157 Zn148 1.898 . S
O157 C151 1.167 . S
O158 Zn149 2.120 . S
O158 C151 1.299 . S
O159 Zn147 1.898 . S
O159 C154 1.167 . S
O160 Zn149 2.120 . S
O160 C154 1.299 . S
O161 Zn149 2.114 . S
O161 C163 1.166 . S
O162 Zn147 1.905 . S
O162 C163 1.182 . S
C163 O161 1.166 . S
C163 O162 1.182 . S
O164 Zn149 2.080 . S
O164 C167 1.305 . S
O165 Zn148 1.920 . S
O165 C167 1.234 . S
C166 O152 1.305 . S
C166 O153 1.234 . S
C167 O164 1.305 . S
C167 O165 1.234 . S
Zn168 O174 1.920 . S
Zn168 O180 1.898 . S
Zn168 O183 1.905 1_556 S
Zn169 O177 1.905 . S
Zn169 O178 1.898 . S
Zn169 O186 1.920 . S
Zn170 O173 2.080 . S
Zn170 O176 2.114 . S
Zn170 O179 2.120 . S
Zn170 O181 2.120 . S
Zn170 O182 2.114 . S
Zn170 O185 2.080 . S
C171 O176 1.166 . S
C171 O177 1.182 . S
C172 O178 1.167 . S
C172 O179 1.299 . S
O173 Zn170 2.080 . S
O173 C187 1.305 1_554 S
O174 Zn168 1.920 . S
O174 C187 1.234 . S
C175 O180 1.167 1_554 S
C175 O181 1.299 . S
O176 Zn170 2.114 . S
O176 C171 1.166 . S
O177 Zn169 1.905 . S
O177 C171 1.182 . S
O178 Zn169 1.898 . S
O178 C172 1.167 . S
O179 Zn170 2.120 . S
O179 C172 1.299 . S
O180 Zn168 1.898 . S
O180 C175 1.167 1_556 S
O181 Zn170 2.120 . S
O181 C175 1.299 . S
O182 Zn170 2.114 . S
O182 C184 1.166 . S
O183 Zn168 1.905 1_554 S
O183 C184 1.182 . S
C184 O182 1.166 . S
C184 O183 1.182 . S
O185 Zn170 2.080 . S
O185 C188 1.305 . S
O186 Zn169 1.920 . S
O186 C188 1.234 . S
C187 O173 1.305 1_556 S
C187 O174 1.234 . S
C188 O185 1.305 . S
C188 O186 1.234 . S
Zn189 O195 1.920 . S
Zn189 O201 1.898 . S
Zn189 O204 1.905 . S
Zn190 O198 1.905 . S
Zn190 O199 1.898 . S
Zn190 O207 1.920 . S
Zn191 O194 2.080 . S
Zn191 O197 2.114 . S
Zn191 O200 2.120 . S
Zn191 O202 2.120 . S
Zn191 O203 2.114 . S
Zn191 O206 2.080 . S
C192 O197 1.166 . S
C192 O198 1.182 . S
C193 O199 1.167 . S
C193 O200 1.299 . S
O194 Zn191 2.080 . S
O194 C208 1.305 . S
O195 Zn189 1.920 . S
O195 C208 1.234 . S
C196 O201 1.167 . S
C196 O202 1.299 . S
O197 Zn191 2.114 . S
O197 C192 1.166 . S
O198 Zn190 1.905 . S
O198 C192 1.182 . S
O199 Zn190 1.898 . S
O199 C193 1.167 . S
O200 Zn191 2.120 . S
O200 C193 1.299 . S
O201 Zn189 1.898 . S
O201 C196 1.167 . S
O202 Zn191 2.120 . S
O202 C196 1.299 . S
O203 Zn191 2.114 . S
O203 C205 1.166 . S
O204 Zn189 1.905 . S
O204 C205 1.182 . S
C205 O203 1.166 . S
C205 O204 1.182 . S
O206 Zn191 2.080 . S
O206 C209 1.305 . S
O207 Zn190 1.920 . S
O207 C209 1.234 . S
C208 O194 1.305 . S
C208 O195 1.234 . S
C209 O206 1.305 . S
C209 O207 1.234 . S
Zn210 O216 1.920 . S
Zn210 O222 1.898 . S
Zn210 O225 1.905 . S
Zn211 O219 1.905 1_554 S
Zn211 O220 1.898 . S
Zn211 O228 1.920 . S
Zn212 O215 2.080 . S
Zn212 O218 2.114 . S
Zn212 O221 2.120 . S
Zn212 O223 2.120 . S
Zn212 O224 2.114 . S
Zn212 O227 2.080 . S
C213 O218 1.166 . S
C213 O219 1.182 . S
C214 O220 1.167 1_556 S
C214 O221 1.299 . S
O215 Zn212 2.080 . S
O215 C229 1.305 . S
O216 Zn210 1.920 . S
O216 C229 1.234 . S
C217 O222 1.167 . S
C217 O223 1.299 . S
O218 Zn212 2.114 . S
O218 C213 1.166 . S
O219 Zn211 1.905 1_556 S
O219 C213 1.182 . S
O220 Zn211 1.898 . S
O220 C214 1.167 1_554 S
O221 Zn212 2.120 . S
O221 C214 1.299 . S
O222 Zn210 1.898 . S
O222 C217 1.167 . S
O223 Zn212 2.120 . S
O223 C217 1.299 . S
O224 Zn212 2.114 . S
O224 C226 1.166 . S
O225 Zn210 1.905 . S
O225 C226 1.182 . S
C226 O224 1.166 . S
C226 O225 1.182 . S
O227 Zn212 2.080 . S
O227 C230 1.305 1_556 S
O228 Zn211 1.920 . S
O228 C230 1.234 . S
C229 O215 1.305 . S
C229 O216 1.234 . S
C230 O227 1.305 1_554 S
C230 O228 1.234 . S
Zn231 O237 1.920 . S
Zn231 O243 1.898 . S
Zn231 O246 1.905 . S
Zn232 O240 1.905 . S
Zn232 O241 1.898 . S
Zn232 O249 1.920 . S
Zn233 O236 2.080 . S
Zn233 O239 2.114 . S
Zn233 O242 2.120 . S
Zn233 O244 2.120 . S
Zn233 O245 2.114 . S
Zn233 O248 2.080 . S
C234 O239 1.166 . S
C234 O240 1.182 . S
C235 O241 1.167 . S
C235 O242 1.299 . S
O236 Zn233 2.080 . S
O236 C250 1.305 . S
O237 Zn231 1.920 . S
O237 C250 1.234 . S
C238 O243 1.167 . S
C238 O244 1.299 . S
O239 Zn233 2.114 . S
O239 C234 1.166 . S
O240 Zn232 1.905 . S
O240 C234 1.182 . S
O241 Zn232 1.898 . S
O241 C235 1.167 . S
O242 Zn233 2.120 . S
O242 C235 1.299 . S
O243 Zn231 1.898 . S
O243 C238 1.167 . S
O244 Zn233 2.120 . S
O244 C238 1.299 . S
O245 Zn233 2.114 . S
O245 C247 1.166 . S
O246 Zn231 1.905 . S
O246 C247 1.182 . S
C247 O245 1.166 . S
C247 O246 1.182 . S
O248 Zn233 2.080 . S
O248 C251 1.305 . S
O249 Zn232 1.920 . S
O249 C251 1.234 . S
C250 O236 1.305 . S
C250 O237 1.234 . S
C251 O248 1.305 . S
C251 O249 1.234 . S
Zn252 O258 1.920 . S
Zn252 O264 1.898 . S
Zn252 O267 1.905 1_554 S
Zn253 O261 1.905 . S
Zn253 O262 1.898 . S
Zn253 O270 1.920 . S
Zn254 O257 2.080 . S
Zn254 O260 2.114 . S
Zn254 O263 2.120 . S
Zn254 O265 2.120 . S
Zn254 O266 2.114 . S
Zn254 O269 2.080 . S
C255 O260 1.166 . S
C255 O261 1.182 . S
C256 O262 1.167 . S
C256 O263 1.299 . S
O257 Zn254 2.080 . S
O257 C271 1.305 1_556 S
O258 Zn252 1.920 . S
O258 C271 1.234 . S
C259 O264 1.167 1_556 S
C259 O265 1.299 . S
O260 Zn254 2.114 . S
O260 C255 1.166 . S
O261 Zn253 1.905 . S
O261 C255 1.182 . S
O262 Zn253 1.898 . S
O262 C256 1.167 . S
O263 Zn254 2.120 . S
O263 C256 1.299 . S
O264 Zn252 1.898 . S
O264 C259 1.167 1_554 S
O265 Zn254 2.120 . S
O265 C259 1.299 . S
O266 Zn254 2.114 . S
O266 C268 1.166 . S
O267 Zn252 1.905 1_556 S
O267 C268 1.182 . S
C268 O266 1.166 . S
C268 O267 1.182 . S
O269 Zn254 2.080 . S
O269 C272 1.305 . S
O270 Zn253 1.920 . S
O270 C272 1.234 . S
C271 O257 1.305 1_554 S
C271 O258 1.234 . S
C272 O269 1.305 . S
C272 O270 1.234 . S
Zn273 O279 1.920 . S
Zn273 O285 1.898 . S
Zn273 O288 1.905 . S
Zn274 O282 1.905 . S
Zn274 O283 1.898 . S
Zn274 O291 1.920 . S
Zn275 O278 2.080 . S
Zn275 O281 2.114 . S
Zn275 O284 2.120 . S
Zn275 O286 2.120 . S
Zn275 O287 2.114 . S
Zn275 O290 2.080 . S
C276 O281 1.166 . S
C276 O282 1.182 . S
C277 O283 1.167 . S
C277 O284 1.299 . S
O278 Zn275 2.080 . S
O278 C292 1.305 . S
O279 Zn273 1.920 . S
O279 C292 1.234 . S
C280 O285 1.167 . S
C280 O286 1.299 . S
O281 Zn275 2.114 . S
O281 C276 1.166 . S
O282 Zn274 1.905 . S
O282 C276 1.182 . S
O283 Zn274 1.898 . S
O283 C277 1.167 . S
O284 Zn275 2.120 . S
O284 C277 1.299 . S
O285 Zn273 1.898 . S
O285 C280 1.167 . S
O286 Zn275 2.120 . S
O286 C280 1.299 . S
O287 Zn275 2.114 . S
O287 C289 1.166 . S
O288 Zn273 1.905 . S
O288 C289 1.182 . S
C289 O287 1.166 . S
C289 O288 1.182 . S
O290 Zn275 2.080 . S
O290 C293 1.305 . S
O291 Zn274 1.920 . S
O291 C293 1.234 . S
C292 O278 1.305 . S
C292 O279 1.234 . S
C293 O290 1.305 . S
C293 O291 1.234 . S
Zn294 O300 1.920 . S
Zn294 O306 1.898 . S
Zn294 O309 1.905 . S
Zn295 O303 1.905 1_556 S
Zn295 O304 1.898 . S
Zn295 O312 1.920 . S
Zn296 O299 2.080 . S
Zn296 O302 2.114 . S
Zn296 O305 2.120 . S
Zn296 O307 2.120 . S
Zn296 O308 2.114 . S
Zn296 O311 2.080 . S
C297 O302 1.166 . S
C297 O303 1.182 . S
C298 O304 1.167 1_554 S
C298 O305 1.299 . S
O299 Zn296 2.080 . S
O299 C313 1.305 . S
O300 Zn294 1.920 . S
O300 C313 1.234 . S
C301 O306 1.167 . S
C301 O307 1.299 . S
O302 Zn296 2.114 . S
O302 C297 1.166 . S
O303 Zn295 1.905 1_554 S
O303 C297 1.182 . S
O304 Zn295 1.898 . S
O304 C298 1.167 1_556 S
O305 Zn296 2.120 . S
O305 C298 1.299 . S
O306 Zn294 1.898 . S
O306 C301 1.167 . S
O307 Zn296 2.120 . S
O307 C301 1.299 . S
O308 Zn296 2.114 . S
O308 C310 1.166 . S
O309 Zn294 1.905 . S
O309 C310 1.182 . S
C310 O308 1.166 . S
C310 O309 1.182 . S
O311 Zn296 2.080 . S
O311 C314 1.305 1_554 S
O312 Zn295 1.920 . S
O312 C314 1.234 . S
C313 O299 1.305 . S
C313 O300 1.234 . S
C314 O311 1.305 1_556 S
C314 O312 1.234 . S
Zn315 O321 1.920 . S
Zn315 O327 1.898 . S
Zn315 O330 1.905 . S
Zn316 O324 1.905 . S
Zn316 O325 1.898 . S
Zn316 O333 1.920 . S
Zn317 O320 2.080 . S
Zn317 O323 2.114 . S
Zn317 O326 2.120 . S
Zn317 O328 2.120 . S
Zn317 O329 2.114 . S
Zn317 O332 2.080 . S
C318 O323 1.166 . S
C318 O324 1.182 . S
C319 O325 1.167 . S
C319 O326 1.299 . S
O320 Zn317 2.080 . S
O320 C334 1.305 . S
O321 Zn315 1.920 . S
O321 C334 1.234 . S
C322 O327 1.167 . S
C322 O328 1.299 . S
O323 Zn317 2.114 . S
O323 C318 1.166 . S
O324 Zn316 1.905 . S
O324 C318 1.182 . S
O325 Zn316 1.898 . S
O325 C319 1.167 . S
O326 Zn317 2.120 . S
O326 C319 1.299 . S
O327 Zn315 1.898 . S
O327 C322 1.167 . S
O328 Zn317 2.120 . S
O328 C322 1.299 . S
O329 Zn317 2.114 . S
O329 C331 1.166 . S
O330 Zn315 1.905 . S
O330 C331 1.182 . S
C331 O329 1.166 . S
C331 O330 1.182 . S
O332 Zn317 2.080 . S
O332 C335 1.305 . S
O333 Zn316 1.920 . S
O333 C335 1.234 . S
C334 O320 1.305 . S
C334 O321 1.234 . S
C335 O332 1.305 . S
C335 O333 1.234 . S
C336 C337 1.363 . S
C336 C342 1.379 . S
C336 N344 1.356 . S
C337 C336 1.363 . S
C337 C343 1.363 . S
C338 C339 1.363 . S
C338 C343 1.379 . S
C338 N345 1.356 . S
C339 C338 1.363 . S
C339 C342 1.363 . S
N340 C342 1.356 . S
N340 H352 0.984 . S
N340 H353 0.985 . S
N341 C343 1.356 . S
N341 H346 0.984 . S
N341 H347 0.985 . S
C342 C336 1.379 . S
C342 C339 1.363 . S
C342 N340 1.356 . S
C343 C337 1.363 . S
C343 C338 1.379 . S
C343 N341 1.356 . S
N344 C336 1.356 . S
N344 H350 0.984 . S
N344 H351 0.984 . S
N345 C338 1.356 . S
N345 H348 0.984 . S
N345 H349 0.985 . S
H346 N341 0.984 . S
H347 N341 0.985 . S
H348 N345 0.984 . S
H349 N345 0.985 . S
H350 N344 0.984 . S
H351 N344 0.984 . S
H352 N340 0.984 . S
H353 N340 0.985 . S
C354 C355 1.363 . S
C354 C360 1.379 . S
C354 N362 1.356 . S
C355 C354 1.363 . S
C355 C361 1.363 . S
C356 C357 1.363 . S
C356 C361 1.379 . S
C356 N363 1.356 . S
C357 C356 1.363 . S
C357 C360 1.363 . S
N358 C360 1.356 . S
N358 H370 0.984 . S
N358 H371 0.985 . S
N359 C361 1.356 . S
N359 H364 0.984 . S
N359 H365 0.985 . S
C360 C354 1.379 . S
C360 C357 1.363 . S
C360 N358 1.356 . S
C361 C355 1.363 . S
C361 C356 1.379 . S
C361 N359 1.356 . S
N362 C354 1.356 . S
N362 H368 0.984 . S
N362 H369 0.984 . S
N363 C356 1.356 . S
N363 H366 0.984 . S
N363 H367 0.985 . S
H364 N359 0.984 . S
H365 N359 0.985 . S
H366 N363 0.984 . S
H367 N363 0.985 . S
H368 N362 0.984 . S
H369 N362 0.984 . S
H370 N358 0.984 . S
H371 N358 0.985 . S
C372 C373 1.363 . S
C372 C378 1.379 . S
C372 N380 1.356 . S
C373 C372 1.363 . S
C373 C379 1.363 . S
C374 C375 1.363 . S
C374 C379 1.379 . S
C374 N381 1.356 . S
C375 C374 1.363 . S
C375 C378 1.363 . S
N376 C378 1.356 . S
N376 H388 0.984 . S
N376 H389 0.985 . S
N377 C379 1.356 . S
N377 H382 0.984 . S
N377 H383 0.985 . S
C378 C372 1.379 . S
C378 C375 1.363 . S
C378 N376 1.356 . S
C379 C373 1.363 . S
C379 C374 1.379 . S
C379 N377 1.356 . S
N380 C372 1.356 . S
N380 H386 0.984 . S
N380 H387 0.984 . S
N381 C374 1.356 . S
N381 H384 0.984 . S
N381 H385 0.985 . S
H382 N377 0.984 . S
H383 N377 0.985 . S
H384 N381 0.984 . S
H385 N381 0.985 . S
H386 N380 0.984 . S
H387 N380 0.984 . S
H388 N376 0.984 . S
H389 N376 0.985 . S
C390 C391 1.363 . S
C390 C396 1.379 . S
C390 N398 1.356 . S
C391 C390 1.363 . S
C391 C397 1.363 . S
C392 C393 1.363 . S
C392 C397 1.379 . S
C392 N399 1.356 . S
C393 C392 1.363 . S
C393 C396 1.363 . S
N394 C396 1.356 . S
N394 H406 0.984 . S
N394 H407 0.985 . S
N395 C397 1.356 . S
N395 H400 0.984 . S
N395 H401 0.985 . S
C396 C390 1.379 . S
C396 C393 1.363 . S
C396 N394 1.356 . S
C397 C391 1.363 . S
C397 C392 1.379 . S
C397 N395 1.356 . S
N398 C390 1.356 . S
N398 H404 0.984 . S
N398 H405 0.984 . S
N399 C392 1.356 . S
N399 H402 0.984 . S
N399 H403 0.985 . S
H400 N395 0.984 . S
H401 N395 0.985 . S
H402 N399 0.984 . S
H403 N399 0.985 . S
H404 N398 0.984 . S
H405 N398 0.984 . S
H406 N394 0.984 . S
H407 N394 0.985 . S
C408 C409 1.363 . S
C408 C414 1.379 . S
C408 N416 1.356 . S
C409 C408 1.363 . S
C409 C415 1.363 . S
C410 C411 1.363 . S
C410 C415 1.379 . S
C410 N417 1.356 . S
C411 C410 1.363 . S
C411 C414 1.363 . S
N412 C414 1.356 . S
N412 H424 0.984 . S
N412 H425 0.985 . S
N413 C415 1.356 . S
N413 H418 0.984 . S
N413 H419 0.985 . S
C414 C408 1.379 . S
C414 C411 1.363 . S
C414 N412 1.356 . S
C415 C409 1.363 . S
C415 C410 1.379 . S
C415 N413 1.356 . S
N416 C408 1.356 . S
N416 H422 0.984 . S
N416 H423 0.984 . S
N417 C410 1.356 . S
N417 H420 0.984 . S
N417 H421 0.985 . S
H418 N413 0.984 . S
H419 N413 0.985 . S
H420 N417 0.984 . S
H421 N417 0.985 . S
H422 N416 0.984 . S
H423 N416 0.984 . S
H424 N412 0.984 . S
H425 N412 0.985 . S
C426 C427 1.363 . S
C426 C432 1.379 . S
C426 N434 1.356 . S
C427 C426 1.363 . S
C427 C433 1.363 . S
C428 C429 1.363 . S
C428 C433 1.379 . S
C428 N435 1.356 . S
C429 C428 1.363 . S
C429 C432 1.363 . S
N430 C432 1.356 . S
N430 H442 0.984 . S
N430 H443 0.985 . S
N431 C433 1.356 . S
N431 H436 0.984 . S
N431 H437 0.985 . S
C432 C426 1.379 . S
C432 C429 1.363 . S
C432 N430 1.356 . S
C433 C427 1.363 . S
C433 C428 1.379 . S
C433 N431 1.356 . S
N434 C426 1.356 . S
N434 H440 0.984 . S
N434 H441 0.984 . S
N435 C428 1.356 . S
N435 H438 0.984 . S
N435 H439 0.985 . S
H436 N431 0.984 . S
H437 N431 0.985 . S
H438 N435 0.984 . S
H439 N435 0.985 . S
H440 N434 0.984 . S
H441 N434 0.984 . S
H442 N430 0.984 . S
H443 N430 0.985 . S
C444 C445 1.363 . S
C444 C450 1.379 . S
C444 N452 1.356 . S
C445 C444 1.363 . S
C445 C451 1.363 . S
C446 C447 1.363 . S
C446 C451 1.379 . S
C446 N453 1.356 . S
C447 C446 1.363 . S
C447 C450 1.363 . S
N448 C450 1.356 . S
N448 H460 0.984 . S
N448 H461 0.985 . S
N449 C451 1.356 . S
N449 H454 0.984 . S
N449 H455 0.985 . S
C450 C444 1.379 . S
C450 C447 1.363 . S
C450 N448 1.356 . S
C451 C445 1.363 . S
C451 C446 1.379 . S
C451 N449 1.356 . S
N452 C444 1.356 . S
N452 H458 0.984 . S
N452 H459 0.984 . S
N453 C446 1.356 . S
N453 H456 0.984 . S
N453 H457 0.985 . S
H454 N449 0.984 . S
H455 N449 0.985 . S
H456 N453 0.984 . S
H457 N453 0.985 . S
H458 N452 0.984 . S
H459 N452 0.984 . S
H460 N448 0.984 . S
H461 N448 0.985 . S
C462 C463 1.363 . S
C462 C468 1.379 . S
C462 N470 1.356 . S
C463 C462 1.363 . S
C463 C469 1.363 . S
C464 C465 1.363 . S
C464 C469 1.379 . S
C464 N471 1.356 . S
C465 C464 1.363 . S
C465 C468 1.363 . S
N466 C468 1.356 . S
N466 H478 0.984 . S
N466 H479 0.985 . S
N467 C469 1.356 . S
N467 H472 0.984 . S
N467 H473 0.985 . S
C468 C462 1.379 . S
C468 C465 1.363 . S
C468 N466 1.356 . S
C469 C463 1.363 . S
C469 C464 1.379 . S
C469 N467 1.356 . S
N470 C462 1.356 . S
N470 H476 0.984 . S
N470 H477 0.984 . S
N471 C464 1.356 . S
N471 H474 0.984 . S
N471 H475 0.985 . S
H472 N467 0.984 . S
H473 N467 0.985 . S
H474 N471 0.984 . S
H475 N471 0.985 . S
H476 N470 0.984 . S
H477 N470 0.984 . S
H478 N466 0.984 . S
H479 N466 0.985 . S
C480 C481 1.363 . S
C480 C486 1.379 . S
C480 N488 1.356 . S
C481 C480 1.363 . S
C481 C487 1.363 . S
C482 C483 1.363 . S
C482 C487 1.379 . S
C482 N489 1.356 . S
C483 C482 1.363 . S
C483 C486 1.363 . S
N484 C486 1.356 . S
N484 H496 0.984 . S
N484 H497 0.985 . S
N485 C487 1.356 . S
N485 H490 0.984 . S
N485 H491 0.985 . S
C486 C480 1.379 . S
C486 C483 1.363 . S
C486 N484 1.356 . S
C487 C481 1.363 . S
C487 C482 1.379 . S
C487 N485 1.356 . S
N488 C480 1.356 . S
N488 H494 0.984 . S
N488 H495 0.984 . S
N489 C482 1.356 . S
N489 H492 0.984 . S
N489 H493 0.985 . S
H490 N485 0.984 . S
H491 N485 0.985 . S
H492 N489 0.984 . S
H493 N489 0.985 . S
H494 N488 0.984 . S
H495 N488 0.984 . S
H496 N484 0.984 . S
H497 N484 0.985 . S
C498 C499 1.363 . S
C498 C504 1.379 . S
C498 N506 1.356 . S
C499 C498 1.363 . S
C499 C505 1.363 . S
C500 C501 1.363 . S
C500 C505 1.379 . S
C500 N507 1.356 . S
C501 C500 1.363 . S
C501 C504 1.363 . S
N502 C504 1.356 . S
N502 H514 0.984 . S
N502 H515 0.985 . S
N503 C505 1.356 . S
N503 H508 0.984 . S
N503 H509 0.985 . S
C504 C498 1.379 . S
C504 C501 1.363 . S
C504 N502 1.356 . S
C505 C499 1.363 . S
C505 C500 1.379 . S
C505 N503 1.356 . S
N506 C498 1.356 . S
N506 H512 0.984 . S
N506 H513 0.984 . S
N507 C500 1.356 . S
N507 H510 0.984 . S
N507 H511 0.985 . S
H508 N503 0.984 . S
H509 N503 0.985 . S
H510 N507 0.984 . S
H511 N507 0.985 . S
H512 N506 0.984 . S
H513 N506 0.984 . S
H514 N502 0.984 . S
H515 N502 0.985 . S
C516 C517 1.363 . S
C516 C522 1.379 . S
C516 N524 1.356 . S
C517 C516 1.363 . S
C517 C523 1.363 . S
C518 C519 1.363 . S
C518 C523 1.379 . S
C518 N525 1.356 . S
C519 C518 1.363 . S
C519 C522 1.363 . S
N520 C522 1.356 . S
N520 H532 0.984 . S
N520 H533 0.985 . S
N521 C523 1.356 . S
N521 H526 0.984 . S
N521 H527 0.985 . S
C522 C516 1.379 . S
C522 C519 1.363 . S
C522 N520 1.356 . S
C523 C517 1.363 . S
C523 C518 1.379 . S
C523 N521 1.356 . S
N524 C516 1.356 . S
N524 H530 0.984 . S
N524 H531 0.984 . S
N525 C518 1.356 . S
N525 H528 0.984 . S
N525 H529 0.985 . S
H526 N521 0.984 . S
H527 N521 0.985 . S
H528 N525 0.984 . S
H529 N525 0.985 . S
H530 N524 0.984 . S
H531 N524 0.984 . S
H532 N520 0.984 . S
H533 N520 0.985 . S
C534 C535 1.363 . S
C534 C540 1.379 . S
C534 N542 1.356 . S
C535 C534 1.363 . S
C535 C541 1.363 . S
C536 C537 1.363 . S
C536 C541 1.379 . S
C536 N543 1.356 . S
C537 C536 1.363 . S
C537 C540 1.363 . S
N538 C540 1.356 . S
N538 H550 0.984 . S
N538 H551 0.985 . S
N539 C541 1.356 . S
N539 H544 0.984 . S
N539 H545 0.985 . S
C540 C534 1.379 . S
C540 C537 1.363 . S
C540 N538 1.356 . S
C541 C535 1.363 . S
C541 C536 1.379 . S
C541 N539 1.356 . S
N542 C534 1.356 . S
N542 H548 0.984 . S
N542 H549 0.984 . S
N543 C536 1.356 . S
N543 H546 0.984 . S
N543 H547 0.985 . S
H544 N539 0.984 . S
H545 N539 0.985 . S
H546 N543 0.984 . S
H547 N543 0.985 . S
H548 N542 0.984 . S
H549 N542 0.984 . S
H550 N538 0.984 . S
H551 N538 0.985 . S
C552 C553 1.363 . S
C552 C558 1.379 . S
C552 N560 1.356 . S
C553 C552 1.363 . S
C553 C559 1.363 . S
C554 C555 1.363 . S
C554 C559 1.379 . S
C554 N561 1.356 . S
C555 C554 1.363 . S
C555 C558 1.363 . S
N556 C558 1.356 . S
N556 H568 0.984 . S
N556 H569 0.985 . S
N557 C559 1.356 . S
N557 H562 0.984 . S
N557 H563 0.985 . S
C558 C552 1.379 . S
C558 C555 1.363 . S
C558 N556 1.356 . S
C559 C553 1.363 . S
C559 C554 1.379 . S
C559 N557 1.356 . S
N560 C552 1.356 . S
N560 H566 0.984 . S
N560 H567 0.984 . S
N561 C554 1.356 . S
N561 H564 0.984 . S
N561 H565 0.985 . S
H562 N557 0.984 . S
H563 N557 0.985 . S
H564 N561 0.984 . S
H565 N561 0.985 . S
H566 N560 0.984 . S
H567 N560 0.984 . S
H568 N556 0.984 . S
H569 N556 0.985 . S
C570 C571 1.363 . S
C570 C576 1.379 . S
C570 N578 1.356 . S
C571 C570 1.363 . S
C571 C577 1.363 . S
C572 C573 1.363 . S
C572 C577 1.379 . S
C572 N579 1.356 . S
C573 C572 1.363 . S
C573 C576 1.363 . S
N574 C576 1.356 . S
N574 H586 0.984 . S
N574 H587 0.985 . S
N575 C577 1.356 . S
N575 H580 0.984 . S
N575 H581 0.985 . S
C576 C570 1.379 . S
C576 C573 1.363 . S
C576 N574 1.356 . S
C577 C571 1.363 . S
C577 C572 1.379 . S
C577 N575 1.356 . S
N578 C570 1.356 . S
N578 H584 0.984 . S
N578 H585 0.984 . S
N579 C572 1.356 . S
N579 H582 0.984 . S
N579 H583 0.985 . S
H580 N575 0.984 . S
H581 N575 0.985 . S
H582 N579 0.984 . S
H583 N579 0.985 . S
H584 N578 0.984 . S
H585 N578 0.984 . S
H586 N574 0.984 . S
H587 N574 0.985 . S
C588 C589 1.363 . S
C588 C594 1.379 . S
C588 N596 1.356 . S
C589 C588 1.363 . S
C589 C595 1.363 . S
C590 C591 1.363 . S
C590 C595 1.379 . S
C590 N597 1.356 . S
C591 C590 1.363 . S
C591 C594 1.363 . S
N592 C594 1.356 . S
N592 H604 0.984 . S
N592 H605 0.985 . S
N593 C595 1.356 . S
N593 H598 0.984 . S
N593 H599 0.985 . S
C594 C588 1.379 . S
C594 C591 1.363 . S
C594 N592 1.356 . S
C595 C589 1.363 . S
C595 C590 1.379 . S
C595 N593 1.356 . S
N596 C588 1.356 . S
N596 H602 0.984 . S
N596 H603 0.984 . S
N597 C590 1.356 . S
N597 H600 0.984 . S
N597 H601 0.985 . S
H598 N593 0.984 . S
H599 N593 0.985 . S
H600 N597 0.984 . S
H601 N597 0.985 . S
H602 N596 0.984 . S
H603 N596 0.984 . S
H604 N592 0.984 . S
H605 N592 0.985 . S
C606 C607 1.363 . S
C606 C612 1.379 . S
C606 N614 1.356 . S
C607 C606 1.363 . S
C607 C613 1.363 . S
C608 C609 1.363 . S
C608 C613 1.379 . S
C608 N615 1.356 . S
C609 C608 1.363 . S
C609 C612 1.363 . S
N610 C612 1.356 . S
N610 H622 0.984 . S
N610 H623 0.985 . S
N611 C613 1.356 . S
N611 H616 0.984 . S
N611 H617 0.985 . S
C612 C606 1.379 . S
C612 C609 1.363 . S
C612 N610 1.356 . S
C613 C607 1.363 . S
C613 C608 1.379 . S
C613 N611 1.356 . S
N614 C606 1.356 . S
N614 H620 0.984 . S
N614 H621 0.984 . S
N615 C608 1.356 . S
N615 H618 0.984 . S
N615 H619 0.985 . S
H616 N611 0.984 . S
H617 N611 0.985 . S
H618 N615 0.984 . S
H619 N615 0.985 . S
H620 N614 0.984 . S
H621 N614 0.984 . S
H622 N610 0.984 . S
H623 N610 0.985 . S
C624 C625 1.363 . S
C624 C630 1.379 . S
C624 N632 1.356 . S
C625 C624 1.363 . S
C625 C631 1.363 . S
C626 C627 1.363 . S
C626 C631 1.379 . S
C626 N633 1.356 . S
C627 C626 1.363 . S
C627 C630 1.363 . S
N628 C630 1.356 . S
N628 H640 0.984 . S
N628 H641 0.985 . S
N629 C631 1.356 . S
N629 H634 0.984 . S
N629 H635 0.985 . S
C630 C624 1.379 . S
C630 C627 1.363 . S
C630 N628 1.356 . S
C631 C625 1.363 . S
C631 C626 1.379 . S
C631 N629 1.356 . S
N632 C624 1.356 . S
N632 H638 0.984 . S
N632 H639 0.984 . S
N633 C626 1.356 . S
N633 H636 0.984 . S
N633 H637 0.985 . S
H634 N629 0.984 . S
H635 N629 0.985 . S
H636 N633 0.984 . S
H637 N633 0.985 . S
H638 N632 0.984 . S
H639 N632 0.984 . S
H640 N628 0.984 . S
H641 N628 0.985 . S
C642 C643 1.363 . S
C642 C648 1.379 . S
C642 N650 1.356 . S
C643 C642 1.363 . S
C643 C649 1.363 . S
C644 C645 1.363 . S
C644 C649 1.379 . S
C644 N651 1.356 . S
C645 C644 1.363 . S
C645 C648 1.363 . S
N646 C648 1.356 . S
N646 H658 0.984 . S
N646 H659 0.985 . S
N647 C649 1.356 . S
N647 H652 0.984 . S
N647 H653 0.985 . S
C648 C642 1.379 . S
C648 C645 1.363 . S
C648 N646 1.356 . S
C649 C643 1.363 . S
C649 C644 1.379 . S
C649 N647 1.356 . S
N650 C642 1.356 . S
N650 H656 0.984 . S
N650 H657 0.984 . S
N651 C644 1.356 . S
N651 H654 0.984 . S
N651 H655 0.985 . S
H652 N647 0.984 . S
H653 N647 0.985 . S
H654 N651 0.984 . S
H655 N651 0.985 . S
H656 N650 0.984 . S
H657 N650 0.984 . S
H658 N646 0.984 . S
H659 N646 0.985 . S
C660 C661 1.363 . S
C660 C666 1.379 . S
C660 N668 1.356 . S
C661 C660 1.363 . S
C661 C667 1.363 . S
C662 C663 1.363 . S
C662 C667 1.379 . S
C662 N669 1.356 . S
C663 C662 1.363 . S
C663 C666 1.363 . S
N664 C666 1.356 . S
N664 H676 0.984 . S
N664 H677 0.985 . S
N665 C667 1.356 . S
N665 H670 0.984 . S
N665 H671 0.985 . S
C666 C660 1.379 . S
C666 C663 1.363 . S
C666 N664 1.356 . S
C667 C661 1.363 . S
C667 C662 1.379 . S
C667 N665 1.356 . S
N668 C660 1.356 . S
N668 H674 0.984 . S
N668 H675 0.984 . S
N669 C662 1.356 . S
N669 H672 0.984 . S
N669 H673 0.985 . S
H670 N665 0.984 . S
H671 N665 0.985 . S
H672 N669 0.984 . S
H673 N669 0.985 . S
H674 N668 0.984 . S
H675 N668 0.984 . S
H676 N664 0.984 . S
H677 N664 0.985 . S
C678 C679 1.363 . S
C678 C684 1.379 . S
C678 N686 1.356 . S
C679 C678 1.363 . S
C679 C685 1.363 . S
C680 C681 1.363 . S
C680 C685 1.379 . S
C680 N687 1.356 . S
C681 C680 1.363 . S
C681 C684 1.363 . S
N682 C684 1.356 . S
N682 H694 0.984 . S
N682 H695 0.985 . S
N683 C685 1.356 . S
N683 H688 0.984 . S
N683 H689 0.985 . S
C684 C678 1.379 . S
C684 C681 1.363 . S
C684 N682 1.356 . S
C685 C679 1.363 . S
C685 C680 1.379 . S
C685 N683 1.356 . S
N686 C678 1.356 . S
N686 H692 0.984 . S
N686 H693 0.984 . S
N687 C680 1.356 . S
N687 H690 0.984 . S
N687 H691 0.985 . S
H688 N683 0.984 . S
H689 N683 0.985 . S
H690 N687 0.984 . S
H691 N687 0.985 . S
H692 N686 0.984 . S
H693 N686 0.984 . S
H694 N682 0.984 . S
H695 N682 0.985 . S
C696 C697 1.363 . S
C696 C702 1.379 . S
C696 N704 1.356 . S
C697 C696 1.363 . S
C697 C703 1.363 . S
C698 C699 1.363 . S
C698 C703 1.379 . S
C698 N705 1.356 . S
C699 C698 1.363 . S
C699 C702 1.363 . S
N700 C702 1.356 . S
N700 H712 0.984 . S
N700 H713 0.985 . S
N701 C703 1.356 . S
N701 H706 0.984 . S
N701 H707 0.985 . S
C702 C696 1.379 . S
C702 C699 1.363 . S
C702 N700 1.356 . S
C703 C697 1.363 . S
C703 C698 1.379 . S
C703 N701 1.356 . S
N704 C696 1.356 . S
N704 H710 0.984 . S
N704 H711 0.984 . S
N705 C698 1.356 . S
N705 H708 0.984 . S
N705 H709 0.985 . S
H706 N701 0.984 . S
H707 N701 0.985 . S
H708 N705 0.984 . S
H709 N705 0.985 . S
H710 N704 0.984 . S
H711 N704 0.984 . S
H712 N700 0.984 . S
H713 N700 0.985 . S
C714 C715 1.363 . S
C714 C720 1.379 . S
C714 N722 1.356 . S
C715 C714 1.363 . S
C715 C721 1.363 . S
C716 C717 1.363 . S
C716 C721 1.379 . S
C716 N723 1.356 . S
C717 C716 1.363 . S
C717 C720 1.363 . S
N718 C720 1.356 . S
N718 H730 0.984 . S
N718 H731 0.985 . S
N719 C721 1.356 . S
N719 H724 0.984 . S
N719 H725 0.985 . S
C720 C714 1.379 . S
C720 C717 1.363 . S
C720 N718 1.356 . S
C721 C715 1.363 . S
C721 C716 1.379 . S
C721 N719 1.356 . S
N722 C714 1.356 . S
N722 H728 0.984 . S
N722 H729 0.984 . S
N723 C716 1.356 . S
N723 H726 0.984 . S
N723 H727 0.985 . S
H724 N719 0.984 . S
H725 N719 0.985 . S
H726 N723 0.984 . S
H727 N723 0.985 . S
H728 N722 0.984 . S
H729 N722 0.984 . S
H730 N718 0.984 . S
H731 N718 0.985 . S
C732 C733 1.363 . S
C732 C738 1.379 . S
C732 N740 1.356 . S
C733 C732 1.363 . S
C733 C739 1.363 . S
C734 C735 1.363 . S
C734 C739 1.379 . S
C734 N741 1.356 . S
C735 C734 1.363 . S
C735 C738 1.363 . S
N736 C738 1.356 . S
N736 H748 0.984 . S
N736 H749 0.985 . S
N737 C739 1.356 . S
N737 H742 0.984 . S
N737 H743 0.985 . S
C738 C732 1.379 . S
C738 C735 1.363 . S
C738 N736 1.356 . S
C739 C733 1.363 . S
C739 C734 1.379 . S
C739 N737 1.356 . S
N740 C732 1.356 . S
N740 H746 0.984 . S
N740 H747 0.984 . S
N741 C734 1.356 . S
N741 H744 0.984 . S
N741 H745 0.985 . S
H742 N737 0.984 . S
H743 N737 0.985 . S
H744 N741 0.984 . S
H745 N741 0.985 . S
H746 N740 0.984 . S
H747 N740 0.984 . S
H748 N736 0.984 . S
H749 N736 0.985 . S
C750 C751 1.363 . S
C750 C756 1.379 . S
C750 N758 1.356 . S
C751 C750 1.363 . S
C751 C757 1.363 . S
C752 C753 1.363 . S
C752 C757 1.379 . S
C752 N759 1.356 . S
C753 C752 1.363 . S
C753 C756 1.363 . S
N754 C756 1.356 . S
N754 H766 0.984 . S
N754 H767 0.985 . S
N755 C757 1.356 . S
N755 H760 0.984 . S
N755 H761 0.985 . S
C756 C750 1.379 . S
C756 C753 1.363 . S
C756 N754 1.356 . S
C757 C751 1.363 . S
C757 C752 1.379 . S
C757 N755 1.356 . S
N758 C750 1.356 . S
N758 H764 0.984 . S
N758 H765 0.984 . S
N759 C752 1.356 . S
N759 H762 0.984 . S
N759 H763 0.985 . S
H760 N755 0.984 . S
H761 N755 0.985 . S
H762 N759 0.984 . S
H763 N759 0.985 . S
H764 N758 0.984 . S
H765 N758 0.984 . S
H766 N754 0.984 . S
H767 N754 0.985 . S
C768 C769 1.363 . S
C768 C774 1.379 1_455 S
C768 N776 1.356 . S
C769 C768 1.363 . S
C769 C775 1.363 . S
C770 C771 1.363 . S
C770 C775 1.379 1_655 S
C770 N777 1.356 . S
C771 C770 1.363 . S
C771 C774 1.363 . S
N772 C774 1.356 . S
N772 H784 0.984 . S
N772 H785 0.985 . S
N773 C775 1.356 . S
N773 H778 0.984 . S
N773 H779 0.985 . S
C774 C768 1.379 1_655 S
C774 C771 1.363 . S
C774 N772 1.356 . S
C775 C769 1.363 . S
C775 C770 1.379 1_455 S
C775 N773 1.356 . S
N776 C768 1.356 . S
N776 H782 0.984 . S
N776 H783 0.984 . S
N777 C770 1.356 . S
N777 H780 0.984 . S
N777 H781 0.985 . S
H778 N773 0.984 . S
H779 N773 0.985 . S
H780 N777 0.984 . S
H781 N777 0.985 . S
H782 N776 0.984 . S
H783 N776 0.984 . S
H784 N772 0.984 . S
H785 N772 0.985 . S
C786 C787 1.363 . S
C786 C792 1.379 . S
C786 N794 1.356 . S
C787 C786 1.363 . S
C787 C793 1.363 . S
C788 C789 1.363 . S
C788 C793 1.379 . S
C788 N795 1.356 . S
C789 C788 1.363 . S
C789 C792 1.363 . S
N790 C792 1.356 . S
N790 H802 0.984 . S
N790 H803 0.985 . S
N791 C793 1.356 . S
N791 H796 0.984 . S
N791 H797 0.985 . S
C792 C786 1.379 . S
C792 C789 1.363 . S
C792 N790 1.356 . S
C793 C787 1.363 . S
C793 C788 1.379 . S
C793 N791 1.356 . S
N794 C786 1.356 . S
N794 H800 0.984 . S
N794 H801 0.984 . S
N795 C788 1.356 . S
N795 H798 0.984 . S
N795 H799 0.985 . S
H796 N791 0.984 . S
H797 N791 0.985 . S
H798 N795 0.984 . S
H799 N795 0.985 . S
H800 N794 0.984 . S
H801 N794 0.984 . S
H802 N790 0.984 . S
H803 N790 0.985 . S
C804 C805 1.363 . S
C804 C810 1.379 1_655 S
C804 N812 1.356 . S
C805 C804 1.363 . S
C805 C811 1.363 . S
C806 C807 1.363 . S
C806 C811 1.379 1_455 S
C806 N813 1.356 . S
C807 C806 1.363 . S
C807 C810 1.363 . S
N808 C810 1.356 . S
N808 H820 0.984 . S
N808 H821 0.985 . S
N809 C811 1.356 . S
N809 H814 0.984 . S
N809 H815 0.985 . S
C810 C804 1.379 1_455 S
C810 C807 1.363 . S
C810 N808 1.356 . S
C811 C805 1.363 . S
C811 C806 1.379 1_655 S
C811 N809 1.356 . S
N812 C804 1.356 . S
N812 H818 0.984 . S
N812 H819 0.984 . S
N813 C806 1.356 . S
N813 H816 0.984 . S
N813 H817 0.985 . S
H814 N809 0.984 . S
H815 N809 0.985 . S
H816 N813 0.984 . S
H817 N813 0.985 . S
H818 N812 0.984 . S
H819 N812 0.984 . S
H820 N808 0.984 . S
H821 N808 0.985 . S
C822 C823 1.363 . S
C822 C828 1.379 . S
C822 N830 1.356 . S
C823 C822 1.363 . S
C823 C829 1.363 . S
C824 C825 1.363 . S
C824 C829 1.379 . S
C824 N831 1.356 . S
C825 C824 1.363 . S
C825 C828 1.363 . S
N826 C828 1.356 . S
N826 H838 0.984 . S
N826 H839 0.985 . S
N827 C829 1.356 . S
N827 H832 0.984 . S
N827 H833 0.985 . S
C828 C822 1.379 . S
C828 C825 1.363 . S
C828 N826 1.356 . S
C829 C823 1.363 . S
C829 C824 1.379 . S
C829 N827 1.356 . S
N830 C822 1.356 . S
N830 H836 0.984 . S
N830 H837 0.984 . S
N831 C824 1.356 . S
N831 H834 0.984 . S
N831 H835 0.985 . S
H832 N827 0.984 . S
H833 N827 0.985 . S
H834 N831 0.984 . S
H835 N831 0.985 . S
H836 N830 0.984 . S
H837 N830 0.984 . S
H838 N826 0.984 . S
H839 N826 0.985 . S
C840 C841 1.363 . S
C840 C846 1.379 . S
C840 N848 1.356 . S
C841 C840 1.363 . S
C841 C847 1.363 . S
C842 C843 1.363 . S
C842 C847 1.379 . S
C842 N849 1.356 . S
C843 C842 1.363 . S
C843 C846 1.363 . S
N844 C846 1.356 . S
N844 H856 0.984 . S
N844 H857 0.985 . S
N845 C847 1.356 . S
N845 H850 0.984 . S
N845 H851 0.985 . S
C846 C840 1.379 . S
C846 C843 1.363 . S
C846 N844 1.356 . S
C847 C841 1.363 . S
C847 C842 1.379 . S
C847 N845 1.356 . S
N848 C840 1.356 . S
N848 H854 0.984 . S
N848 H855 0.984 . S
N849 C842 1.356 . S
N849 H852 0.984 . S
N849 H853 0.985 . S
H850 N845 0.984 . S
H851 N845 0.985 . S
H852 N849 0.984 . S
H853 N849 0.985 . S
H854 N848 0.984 . S
H855 N848 0.984 . S
H856 N844 0.984 . S
H857 N844 0.985 . S
C858 C859 1.363 . S
C858 C864 1.379 1_655 S
C858 N866 1.356 . S
C859 C858 1.363 . S
C859 C865 1.363 . S
C860 C861 1.363 . S
C860 C865 1.379 1_455 S
C860 N867 1.356 . S
C861 C860 1.363 . S
C861 C864 1.363 . S
N862 C864 1.356 . S
N862 H874 0.984 . S
N862 H875 0.985 . S
N863 C865 1.356 . S
N863 H868 0.984 . S
N863 H869 0.985 . S
C864 C858 1.379 1_455 S
C864 C861 1.363 . S
C864 N862 1.356 . S
C865 C859 1.363 . S
C865 C860 1.379 1_655 S
C865 N863 1.356 . S
N866 C858 1.356 . S
N866 H872 0.984 . S
N866 H873 0.984 . S
N867 C860 1.356 . S
N867 H870 0.984 . S
N867 H871 0.985 . S
H868 N863 0.984 . S
H869 N863 0.985 . S
H870 N867 0.984 . S
H871 N867 0.985 . S
H872 N866 0.984 . S
H873 N866 0.984 . S
H874 N862 0.984 . S
H875 N862 0.985 . S
C876 C877 1.363 . S
C876 C882 1.379 . S
C876 N884 1.356 . S
C877 C876 1.363 . S
C877 C883 1.363 . S
C878 C879 1.363 . S
C878 C883 1.379 . S
C878 N885 1.356 . S
C879 C878 1.363 . S
C879 C882 1.363 . S
N880 C882 1.356 . S
N880 H892 0.984 . S
N880 H893 0.985 . S
N881 C883 1.356 . S
N881 H886 0.984 . S
N881 H887 0.985 . S
C882 C876 1.379 . S
C882 C879 1.363 . S
C882 N880 1.356 . S
C883 C877 1.363 . S
C883 C878 1.379 . S
C883 N881 1.356 . S
N884 C876 1.356 . S
N884 H890 0.984 . S
N884 H891 0.984 . S
N885 C878 1.356 . S
N885 H888 0.984 . S
N885 H889 0.985 . S
H886 N881 0.984 . S
H887 N881 0.985 . S
H888 N885 0.984 . S
H889 N885 0.985 . S
H890 N884 0.984 . S
H891 N884 0.984 . S
H892 N880 0.984 . S
H893 N880 0.985 . S
C894 C895 1.363 . S
C894 C900 1.379 1_455 S
C894 N902 1.356 . S
C895 C894 1.363 . S
C895 C901 1.363 . S
C896 C897 1.363 . S
C896 C901 1.379 1_655 S
C896 N903 1.356 . S
C897 C896 1.363 . S
C897 C900 1.363 . S
N898 C900 1.356 . S
N898 H910 0.984 . S
N898 H911 0.985 . S
N899 C901 1.356 . S
N899 H904 0.984 . S
N899 H905 0.985 . S
C900 C894 1.379 1_655 S
C900 C897 1.363 . S
C900 N898 1.356 . S
C901 C895 1.363 . S
C901 C896 1.379 1_455 S
C901 N899 1.356 . S
N902 C894 1.356 . S
N902 H908 0.984 . S
N902 H909 0.984 . S
N903 C896 1.356 . S
N903 H906 0.984 . S
N903 H907 0.985 . S
H904 N899 0.984 . S
H905 N899 0.985 . S
H906 N903 0.984 . S
H907 N903 0.985 . S
H908 N902 0.984 . S
H909 N902 0.984 . S
H910 N898 0.984 . S
H911 N898 0.985 . S
C912 C913 1.363 1_556 S
C912 C918 1.379 1_545 S
C912 N920 1.356 . S
C913 C912 1.363 1_554 S
C913 C919 1.363 . S
C914 C915 1.363 1_554 S
C914 C919 1.379 1_565 S
C914 N921 1.356 . S
C915 C914 1.363 1_556 S
C915 C918 1.363 . S
N916 C918 1.356 . S
N916 H928 0.984 . S
N916 H929 0.985 . S
N917 C919 1.356 . S
N917 H922 0.984 . S
N917 H923 0.985 . S
C918 C912 1.379 1_565 S
C918 C915 1.363 . S
C918 N916 1.356 . S
C919 C913 1.363 . S
C919 C914 1.379 1_545 S
C919 N917 1.356 . S
N920 C912 1.356 . S
N920 H926 0.984 . S
N920 H927 0.984 . S
N921 C914 1.356 . S
N921 H924 0.984 . S
N921 H925 0.985 . S
H922 N917 0.984 . S
H923 N917 0.985 . S
H924 N921 0.984 . S
H925 N921 0.985 . S
H926 N920 0.984 . S
H927 N920 0.984 . S
H928 N916 0.984 . S
H929 N916 0.985 . S
C930 C931 1.363 . S
C930 C936 1.379 1_565 S
C930 N938 1.356 . S
C931 C930 1.363 . S
C931 C937 1.363 . S
C932 C933 1.363 . S
C932 C937 1.379 1_545 S
C932 N939 1.356 . S
C933 C932 1.363 . S
C933 C936 1.363 . S
N934 C936 1.356 . S
N934 H946 0.984 . S
N934 H947 0.985 . S
N935 C937 1.356 . S
N935 H940 0.984 . S
N935 H941 0.985 . S
C936 C930 1.379 1_545 S
C936 C933 1.363 . S
C936 N934 1.356 . S
C937 C931 1.363 . S
C937 C932 1.379 1_565 S
C937 N935 1.356 . S
N938 C930 1.356 . S
N938 H944 0.984 . S
N938 H945 0.984 . S
N939 C932 1.356 . S
N939 H942 0.984 . S
N939 H943 0.985 . S
H940 N935 0.984 . S
H941 N935 0.985 . S
H942 N939 0.984 . S
H943 N939 0.985 . S
H944 N938 0.984 . S
H945 N938 0.984 . S
H946 N934 0.984 . S
H947 N934 0.985 . S
C948 C949 1.363 1_556 S
C948 C954 1.379 1_545 S
C948 N956 1.356 . S
C949 C948 1.363 1_554 S
C949 C955 1.363 . S
C950 C951 1.363 1_554 S
C950 C955 1.379 1_565 S
C950 N957 1.356 . S
C951 C950 1.363 1_556 S
C951 C954 1.363 . S
N952 C954 1.356 . S
N952 H964 0.984 . S
N952 H965 0.985 . S
N953 C955 1.356 . S
N953 H958 0.984 . S
N953 H959 0.985 . S
C954 C948 1.379 1_565 S
C954 C951 1.363 . S
C954 N952 1.356 . S
C955 C949 1.363 . S
C955 C950 1.379 1_545 S
C955 N953 1.356 . S
N956 C948 1.356 . S
N956 H962 0.984 . S
N956 H963 0.984 . S
N957 C950 1.356 . S
N957 H960 0.984 . S
N957 H961 0.985 . S
H958 N953 0.984 . S
H959 N953 0.985 . S
H960 N957 0.984 . S
H961 N957 0.985 . S
H962 N956 0.984 . S
H963 N956 0.984 . S
H964 N952 0.984 . S
H965 N952 0.985 . S
C966 C967 1.363 . S
C966 C972 1.379 1_545 S
C966 N974 1.356 . S
C967 C966 1.363 . S
C967 C973 1.363 . S
C968 C969 1.363 . S
C968 C973 1.379 1_565 S
C968 N975 1.356 . S
C969 C968 1.363 . S
C969 C972 1.363 . S
N970 C972 1.356 . S
N970 H982 0.984 . S
N970 H983 0.985 . S
N971 C973 1.356 . S
N971 H976 0.984 . S
N971 H977 0.985 . S
C972 C966 1.379 1_565 S
C972 C969 1.363 . S
C972 N970 1.356 . S
C973 C967 1.363 . S
C973 C968 1.379 1_545 S
C973 N971 1.356 . S
N974 C966 1.356 . S
N974 H980 0.984 . S
N974 H981 0.984 . S
N975 C968 1.356 . S
N975 H978 0.984 . S
N975 H979 0.985 . S
H976 N971 0.984 . S
H977 N971 0.985 . S
H978 N975 0.984 . S
H979 N975 0.985 . S
H980 N974 0.984 . S
H981 N974 0.984 . S
H982 N970 0.984 . S
H983 N970 0.985 . S
C984 C985 1.363 1_556 S
C984 C990 1.379 . S
C984 N992 1.356 . S
C985 C984 1.363 1_554 S
C985 C991 1.363 . S
C986 C987 1.363 1_554 S
C986 C991 1.379 . S
C986 N993 1.356 . S
C987 C986 1.363 1_556 S
C987 C990 1.363 . S
N988 C990 1.356 . S
N988 H1000 0.984 . S
N988 H1001 0.985 . S
N989 C991 1.356 . S
N989 H994 0.984 . S
N989 H995 0.985 . S
C990 C984 1.379 . S
C990 C987 1.363 . S
C990 N988 1.356 . S
C991 C985 1.363 . S
C991 C986 1.379 . S
C991 N989 1.356 . S
N992 C984 1.356 . S
N992 H998 0.984 . S
N992 H999 0.984 . S
N993 C986 1.356 . S
N993 H996 0.984 . S
N993 H997 0.985 . S
H994 N989 0.984 . S
H995 N989 0.985 . S
H996 N993 0.984 . S
H997 N993 0.985 . S
H998 N992 0.984 . S
H999 N992 0.984 . S
H1000 N988 0.984 . S
H1001 N988 0.985 . S
C1002 C1003 1.363 . S
C1002 C1008 1.379 . S
C1002 N1010 1.356 . S
C1003 C1002 1.363 . S
C1003 C1009 1.363 . S
C1004 C1005 1.363 . S
C1004 C1009 1.379 . S
C1004 N1011 1.356 . S
C1005 C1004 1.363 . S
C1005 C1008 1.363 . S
N1006 C1008 1.356 . S
N1006 H1018 0.984 . S
N1006 H1019 0.985 . S
N1007 C1009 1.356 . S
N1007 H1012 0.984 . S
N1007 H1013 0.985 . S
C1008 C1002 1.379 . S
C1008 C1005 1.363 . S
C1008 N1006 1.356 . S
C1009 C1003 1.363 . S
C1009 C1004 1.379 . S
C1009 N1007 1.356 . S
N1010 C1002 1.356 . S
N1010 H1016 0.984 . S
N1010 H1017 0.984 . S
N1011 C1004 1.356 . S
N1011 H1014 0.984 . S
N1011 H1015 0.985 . S
H1012 N1007 0.984 . S
H1013 N1007 0.985 . S
H1014 N1011 0.984 . S
H1015 N1011 0.985 . S
H1016 N1010 0.984 . S
H1017 N1010 0.984 . S
H1018 N1006 0.984 . S
H1019 N1006 0.985 . S
C1020 C1021 1.363 1_554 S
C1020 C1026 1.379 . S
C1020 N1028 1.356 . S
C1021 C1020 1.363 1_556 S
C1021 C1027 1.363 . S
C1022 C1023 1.363 1_556 S
C1022 C1027 1.379 . S
C1022 N1029 1.356 . S
C1023 C1022 1.363 1_554 S
C1023 C1026 1.363 . S
N1024 C1026 1.356 . S
N1024 H1036 0.984 . S
N1024 H1037 0.985 . S
N1025 C1027 1.356 . S
N1025 H1030 0.984 . S
N1025 H1031 0.985 . S
C1026 C1020 1.379 . S
C1026 C1023 1.363 . S
C1026 N1024 1.356 . S
C1027 C1021 1.363 . S
C1027 C1022 1.379 . S
C1027 N1025 1.356 . S
N1028 C1020 1.356 . S
N1028 H1034 0.984 . S
N1028 H1035 0.984 . S
N1029 C1022 1.356 . S
N1029 H1032 0.984 . S
N1029 H1033 0.985 . S
H1030 N1025 0.984 . S
H1031 N1025 0.985 . S
H1032 N1029 0.984 . S
H1033 N1029 0.985 . S
H1034 N1028 0.984 . S
H1035 N1028 0.984 . S
H1036 N1024 0.984 . S
H1037 N1024 0.985 . S
C1038 C1039 1.363 . S
C1038 C1044 1.379 . S
C1038 N1046 1.356 . S
C1039 C1038 1.363 . S
C1039 C1045 1.363 . S
C1040 C1041 1.363 . S
C1040 C1045 1.379 . S
C1040 N1047 1.356 . S
C1041 C1040 1.363 . S
C1041 C1044 1.363 . S
N1042 C1044 1.356 . S
N1042 H1054 0.984 . S
N1042 H1055 0.985 . S
N1043 C1045 1.356 . S
N1043 H1048 0.984 . S
N1043 H1049 0.985 . S
C1044 C1038 1.379 . S
C1044 C1041 1.363 . S
C1044 N1042 1.356 . S
C1045 C1039 1.363 . S
C1045 C1040 1.379 . S
C1045 N1043 1.356 . S
N1046 C1038 1.356 . S
N1046 H1052 0.984 . S
N1046 H1053 0.984 . S
N1047 C1040 1.356 . S
N1047 H1050 0.984 . S
N1047 H1051 0.985 . S
H1048 N1043 0.984 . S
H1049 N1043 0.985 . S
H1050 N1047 0.984 . S
H1051 N1047 0.985 . S
H1052 N1046 0.984 . S
H1053 N1046 0.984 . S
H1054 N1042 0.984 . S
H1055 N1042 0.985 . S
C1056 C1057 1.363 . S
C1056 C1062 1.379 1_554 S
C1056 N1064 1.356 . S
C1057 C1056 1.363 . S
C1057 C1063 1.363 . S
C1058 C1059 1.363 . S
C1058 C1063 1.379 1_556 S
C1058 N1065 1.356 . S
C1059 C1058 1.363 . S
C1059 C1062 1.363 . S
N1060 C1062 1.356 . S
N1060 H1072 0.984 . S
N1060 H1073 0.985 . S
N1061 C1063 1.356 . S
N1061 H1066 0.984 . S
N1061 H1067 0.985 . S
C1062 C1056 1.379 1_556 S
C1062 C1059 1.363 . S
C1062 N1060 1.356 . S
C1063 C1057 1.363 . S
C1063 C1058 1.379 1_554 S
C1063 N1061 1.356 . S
N1064 C1056 1.356 . S
N1064 H1070 0.984 . S
N1064 H1071 0.984 . S
N1065 C1058 1.356 . S
N1065 H1068 0.984 . S
N1065 H1069 0.985 . S
H1066 N1061 0.984 . S
H1067 N1061 0.985 . S
H1068 N1065 0.984 . S
H1069 N1065 0.985 . S
H1070 N1064 0.984 . S
H1071 N1064 0.984 . S
H1072 N1060 0.984 . S
H1073 N1060 0.985 . S
C1074 C1075 1.363 . S
C1074 C1080 1.379 . S
C1074 N1082 1.356 . S
C1075 C1074 1.363 . S
C1075 C1081 1.363 . S
C1076 C1077 1.363 . S
C1076 C1081 1.379 . S
C1076 N1083 1.356 . S
C1077 C1076 1.363 . S
C1077 C1080 1.363 . S
N1078 C1080 1.356 . S
N1078 H1090 0.984 . S
N1078 H1091 0.985 . S
N1079 C1081 1.356 . S
N1079 H1084 0.984 . S
N1079 H1085 0.985 . S
C1080 C1074 1.379 . S
C1080 C1077 1.363 . S
C1080 N1078 1.356 . S
C1081 C1075 1.363 . S
C1081 C1076 1.379 . S
C1081 N1079 1.356 . S
N1082 C1074 1.356 . S
N1082 H1088 0.984 . S
N1082 H1089 0.984 . S
N1083 C1076 1.356 . S
N1083 H1086 0.984 . S
N1083 H1087 0.985 . S
H1084 N1079 0.984 . S
H1085 N1079 0.985 . S
H1086 N1083 0.984 . S
H1087 N1083 0.985 . S
H1088 N1082 0.984 . S
H1089 N1082 0.984 . S
H1090 N1078 0.984 . S
H1091 N1078 0.985 . S
C1092 C1093 1.363 1_554 S
C1092 C1098 1.379 . S
C1092 N1100 1.356 . S
C1093 C1092 1.363 1_556 S
C1093 C1099 1.363 . S
C1094 C1095 1.363 1_556 S
C1094 C1099 1.379 . S
C1094 N1101 1.356 . S
C1095 C1094 1.363 1_554 S
C1095 C1098 1.363 . S
N1096 C1098 1.356 . S
N1096 H1108 0.984 . S
N1096 H1109 0.985 . S
N1097 C1099 1.356 . S
N1097 H1102 0.984 . S
N1097 H1103 0.985 . S
C1098 C1092 1.379 . S
C1098 C1095 1.363 . S
C1098 N1096 1.356 . S
C1099 C1093 1.363 . S
C1099 C1094 1.379 . S
C1099 N1097 1.356 . S
N1100 C1092 1.356 . S
N1100 H1106 0.984 . S
N1100 H1107 0.984 . S
N1101 C1094 1.356 . S
N1101 H1104 0.984 . S
N1101 H1105 0.985 . S
H1102 N1097 0.984 . S
H1103 N1097 0.985 . S
H1104 N1101 0.984 . S
H1105 N1101 0.985 . S
H1106 N1100 0.984 . S
H1107 N1100 0.984 . S
H1108 N1096 0.984 . S
H1109 N1096 0.985 . S
C1110 C1111 1.363 . S
C1110 C1116 1.379 . S
C1110 N1118 1.356 . S
C1111 C1110 1.363 . S
C1111 C1117 1.363 . S
C1112 C1113 1.363 . S
C1112 C1117 1.379 . S
C1112 N1119 1.356 . S
C1113 C1112 1.363 . S
C1113 C1116 1.363 . S
N1114 C1116 1.356 . S
N1114 H1126 0.984 . S
N1114 H1127 0.985 . S
N1115 C1117 1.356 . S
N1115 H1120 0.984 . S
N1115 H1121 0.985 . S
C1116 C1110 1.379 . S
C1116 C1113 1.363 . S
C1116 N1114 1.356 . S
C1117 C1111 1.363 . S
C1117 C1112 1.379 . S
C1117 N1115 1.356 . S
N1118 C1110 1.356 . S
N1118 H1124 0.984 . S
N1118 H1125 0.984 . S
N1119 C1112 1.356 . S
N1119 H1122 0.984 . S
N1119 H1123 0.985 . S
H1120 N1115 0.984 . S
H1121 N1115 0.985 . S
H1122 N1119 0.984 . S
H1123 N1119 0.985 . S
H1124 N1118 0.984 . S
H1125 N1118 0.984 . S
H1126 N1114 0.984 . S
H1127 N1114 0.985 . S
C1128 C1129 1.363 1_554 S
C1128 C1134 1.379 . S
C1128 N1136 1.356 . S
C1129 C1128 1.363 1_556 S
C1129 C1135 1.363 . S
C1130 C1131 1.363 1_556 S
C1130 C1135 1.379 . S
C1130 N1137 1.356 . S
C1131 C1130 1.363 1_554 S
C1131 C1134 1.363 . S
N1132 C1134 1.356 . S
N1132 H1144 0.984 . S
N1132 H1145 0.985 . S
N1133 C1135 1.356 . S
N1133 H1138 0.984 . S
N1133 H1139 0.985 . S
C1134 C1128 1.379 . S
C1134 C1131 1.363 . S
C1134 N1132 1.356 . S
C1135 C1129 1.363 . S
C1135 C1130 1.379 . S
C1135 N1133 1.356 . S
N1136 C1128 1.356 . S
N1136 H1142 0.984 . S
N1136 H1143 0.984 . S
N1137 C1130 1.356 . S
N1137 H1140 0.984 . S
N1137 H1141 0.985 . S
H1138 N1133 0.984 . S
H1139 N1133 0.985 . S
H1140 N1137 0.984 . S
H1141 N1137 0.985 . S
H1142 N1136 0.984 . S
H1143 N1136 0.984 . S
H1144 N1132 0.984 . S
H1145 N1132 0.985 . S
C1146 C1147 1.363 . S
C1146 C1152 1.379 . S
C1146 N1154 1.356 . S
C1147 C1146 1.363 . S
C1147 C1153 1.363 . S
C1148 C1149 1.363 . S
C1148 C1153 1.379 . S
C1148 N1155 1.356 . S
C1149 C1148 1.363 . S
C1149 C1152 1.363 . S
N1150 C1152 1.356 . S
N1150 H1162 0.984 . S
N1150 H1163 0.985 . S
N1151 C1153 1.356 . S
N1151 H1156 0.984 . S
N1151 H1157 0.985 . S
C1152 C1146 1.379 . S
C1152 C1149 1.363 . S
C1152 N1150 1.356 . S
C1153 C1147 1.363 . S
C1153 C1148 1.379 . S
C1153 N1151 1.356 . S
N1154 C1146 1.356 . S
N1154 H1160 0.984 . S
N1154 H1161 0.984 . S
N1155 C1148 1.356 . S
N1155 H1158 0.984 . S
N1155 H1159 0.985 . S
H1156 N1151 0.984 . S
H1157 N1151 0.985 . S
H1158 N1155 0.984 . S
H1159 N1155 0.985 . S
H1160 N1154 0.984 . S
H1161 N1154 0.984 . S
H1162 N1150 0.984 . S
H1163 N1150 0.985 . S
C1164 C1165 1.363 . S
C1164 C1170 1.379 . S
C1164 N1172 1.356 . S
C1165 C1164 1.363 . S
C1165 C1171 1.363 1_556 S
C1166 C1167 1.363 . S
C1166 C1171 1.379 . S
C1166 N1173 1.356 . S
C1167 C1166 1.363 . S
C1167 C1170 1.363 1_554 S
N1168 C1170 1.356 . S
N1168 H1180 0.984 . S
N1168 H1181 0.985 1_556 S
N1169 C1171 1.356 . S
N1169 H1174 0.984 1_554 S
N1169 H1175 0.985 . S
C1170 C1164 1.379 . S
C1170 C1167 1.363 1_556 S
C1170 N1168 1.356 . S
C1171 C1165 1.363 1_554 S
C1171 C1166 1.379 . S
C1171 N1169 1.356 . S
N1172 C1164 1.356 . S
N1172 H1178 0.984 . S
N1172 H1179 0.984 . S
N1173 C1166 1.356 . S
N1173 H1176 0.984 . S
N1173 H1177 0.985 . S
H1174 N1169 0.984 1_556 S
H1175 N1169 0.985 . S
H1176 N1173 0.984 . S
H1177 N1173 0.985 . S
H1178 N1172 0.984 . S
H1179 N1172 0.984 . S
H1180 N1168 0.984 . S
H1181 N1168 0.985 1_554 S
C1182 C1183 1.363 . S
C1182 C1188 1.379 . S
C1182 N1190 1.356 . S
C1183 C1182 1.363 . S
C1183 C1189 1.363 . S
C1184 C1185 1.363 . S
C1184 C1189 1.379 . S
C1184 N1191 1.356 . S
C1185 C1184 1.363 . S
C1185 C1188 1.363 . S
N1186 C1188 1.356 . S
N1186 H1198 0.984 . S
N1186 H1199 0.985 . S
N1187 C1189 1.356 . S
N1187 H1192 0.984 . S
N1187 H1193 0.985 . S
C1188 C1182 1.379 . S
C1188 C1185 1.363 . S
C1188 N1186 1.356 . S
C1189 C1183 1.363 . S
C1189 C1184 1.379 . S
C1189 N1187 1.356 . S
N1190 C1182 1.356 . S
N1190 H1196 0.984 . S
N1190 H1197 0.984 . S
N1191 C1184 1.356 . S
N1191 H1194 0.984 . S
N1191 H1195 0.985 . S
H1192 N1187 0.984 . S
H1193 N1187 0.985 . S
H1194 N1191 0.984 . S
H1195 N1191 0.985 . S
H1196 N1190 0.984 . S
H1197 N1190 0.984 . S
H1198 N1186 0.984 . S
H1199 N1186 0.985 . S
C337 C3 1.086 . S
C339 C79 1.086 . S
C355 C58 1.086 . S
C357 C37 1.086 . S
C373 C163 1.086 . S
C375 C100 1.086 . S
C391 C108 1.086 . S
C393 C142 1.086 . S
C409 C247 1.086 . S
C411 C171 1.086 . S
C427 C226 1.086 . S
C429 C205 1.086 . S
C445 C255 1.086 . S
C447 C318 1.086 . S
C463 C310 1.086 . S
C465 C289 1.086 . S
C481 C19 1.556 . S
C483 C319 1.386 . S
C499 C41 1.556 . S
C501 C301 1.386 . S
C517 C280 1.386 . S
C519 C62 1.556 . S
C535 C256 1.386 . S
C537 C83 1.556 . S
C553 C104 1.556 . S
C555 C238 1.386 . S
C571 C124 1.556 . S
C573 C217 1.386 . S
C589 C196 1.386 . S
C591 C146 1.556 . S
C607 C172 1.386 . S
C609 C167 1.556 . S
C625 C187 1.556 . S
C627 C154 1.386 . S
C643 C209 1.556 . S
C645 C133 1.386 . S
C661 C230 1.556 . S
C663 C109 1.386 . S
C679 C251 1.556 . S
C681 C91 1.386 . S
C697 C70 1.386 . S
C699 C271 1.556 . S
C715 C49 1.386 . S
C717 C293 1.556 . S
C733 C314 1.556 . S
C735 C28 1.386 . S
C751 C334 1.556 . S
C753 C4 1.386 . S
C769 C16 1.343 . S
C771 C129 1.343 . S
C787 C24 1.343 . S
C789 C150 1.343 . S
C805 C87 1.343 . S
C807 C45 1.343 . S
C823 C66 1.343 . S
C825 C121 1.343 . S
C841 C184 1.343 . S
C843 C297 1.343 . S
C859 C192 1.343 . S
C861 C331 1.343 . S
C877 C213 1.343 . S
C879 C268 1.343 . S
C895 C276 1.343 . S
C897 C234 1.343 . S
C913 C7 1.321 . S
C915 C46 1.321 . S
C931 C25 1.321 . S
C933 C67 1.321 . S
C949 C130 1.321 . S
C951 C88 1.321 . S
C967 C112 1.321 . S
C969 C151 1.321 . S
C985 C175 1.321 . S
C987 C214 1.321 . S
C1003 C235 1.321 . S
C1005 C193 1.321 . S
C1021 C259 1.321 . S
C1023 C298 1.321 . S
C1039 C277 1.321 . S
C1041 C322 1.321 . S
C1057 C20 0.955 . S
C1059 C272 0.955 . S
C1075 C40 0.955 . S
C1077 C292 0.955 . S
C1093 C61 0.955 . S
C1095 C313 0.955 . S
C1111 C82 0.955 . S
C1113 C335 0.955 . S
C1129 C103 0.955 . S
C1131 C188 0.955 . S
C1147 C208 0.955 . S
C1149 C125 0.955 . S
C1165 C229 0.955 . S
C1167 C145 0.955 . S
C1183 C250 0.955 . S
C1185 C166 0.955 . S
