# Generated by pormake.
# Topology wgb, (5)-cn, num edge types: 1
# Building blocks:
#     Node 0, Type 0, BuildingBlock: XOMCOT_clean_sbu_1, # of connection points: 5
#     Node 1, Type 0, BuildingBlock: XOMCOT_clean_sbu_1, # of connection points: 5
#     Node 2, Type 0, BuildingBlock: XOMCOT_clean_sbu_1, # of connection points: 5
#     Node 3, Type 0, BuildingBlock: XOMCOT_clean_sbu_1, # of connection points: 5
#     Node 4, Type 0, BuildingBlock: XOMCOT_clean_sbu_1, # of connection points: 5
#     Node 5, Type 0, BuildingBlock: XOMCOT_clean_sbu_1, # of connection points: 5
#     Node 6, Type 0, BuildingBlock: XOMCOT_clean_sbu_1, # of connection points: 5
#     Node 7, Type 0, BuildingBlock: XOMCOT_clean_sbu_1, # of connection points: 5
#     Node 8, Type 0, BuildingBlock: XOMCOT_clean_sbu_1, # of connection points: 5
#     Node 9, Type 0, BuildingBlock: XOMCOT_clean_sbu_1, # of connection points: 5
#     Node 10, Type 0, BuildingBlock: XOMCOT_clean_sbu_1, # of connection points: 5
#     Node 11, Type 0, BuildingBlock: XOMCOT_clean_sbu_1, # of connection points: 5
#     Node 12, Type 0, BuildingBlock: XOMCOT_clean_sbu_1, # of connection points: 5
#     Node 13, Type 0, BuildingBlock: XOMCOT_clean_sbu_1, # of connection points: 5
#     Node 14, Type 0, BuildingBlock: XOMCOT_clean_sbu_1, # of connection points: 5
#     Node 15, Type 0, BuildingBlock: XOMCOT_clean_sbu_1, # of connection points: 5
#     Edge 16, Type (0, 0), BuildingBlock: CIFDUS_clean_linker_0, # of connection points: 2
#     Edge 17, Type (0, 0), BuildingBlock: CIFDUS_clean_linker_0, # of connection points: 2
#     Edge 18, Type (0, 0), BuildingBlock: CIFDUS_clean_linker_0, # of connection points: 2
#     Edge 19, Type (0, 0), BuildingBlock: CIFDUS_clean_linker_0, # of connection points: 2
#     Edge 20, Type (0, 0), BuildingBlock: CIFDUS_clean_linker_0, # of connection points: 2
#     Edge 21, Type (0, 0), BuildingBlock: CIFDUS_clean_linker_0, # of connection points: 2
#     Edge 22, Type (0, 0), BuildingBlock: CIFDUS_clean_linker_0, # of connection points: 2
#     Edge 23, Type (0, 0), BuildingBlock: CIFDUS_clean_linker_0, # of connection points: 2
#     Edge 24, Type (0, 0), BuildingBlock: CIFDUS_clean_linker_0, # of connection points: 2
#     Edge 25, Type (0, 0), BuildingBlock: CIFDUS_clean_linker_0, # of connection points: 2
#     Edge 26, Type (0, 0), BuildingBlock: CIFDUS_clean_linker_0, # of connection points: 2
#     Edge 27, Type (0, 0), BuildingBlock: CIFDUS_clean_linker_0, # of connection points: 2
#     Edge 28, Type (0, 0), BuildingBlock: CIFDUS_clean_linker_0, # of connection points: 2
#     Edge 29, Type (0, 0), BuildingBlock: CIFDUS_clean_linker_0, # of connection points: 2
#     Edge 30, Type (0, 0), BuildingBlock: CIFDUS_clean_linker_0, # of connection points: 2
#     Edge 31, Type (0, 0), BuildingBlock: CIFDUS_clean_linker_0, # of connection points: 2
#     Edge 32, Type (0, 0), BuildingBlock: CIFDUS_clean_linker_0, # of connection points: 2
#     Edge 33, Type (0, 0), BuildingBlock: CIFDUS_clean_linker_0, # of connection points: 2
#     Edge 34, Type (0, 0), BuildingBlock: CIFDUS_clean_linker_0, # of connection points: 2
#     Edge 35, Type (0, 0), BuildingBlock: CIFDUS_clean_linker_0, # of connection points: 2
#     Edge 36, Type (0, 0), BuildingBlock: CIFDUS_clean_linker_0, # of connection points: 2
#     Edge 37, Type (0, 0), BuildingBlock: CIFDUS_clean_linker_0, # of connection points: 2
#     Edge 38, Type (0, 0), BuildingBlock: CIFDUS_clean_linker_0, # of connection points: 2
#     Edge 39, Type (0, 0), BuildingBlock: CIFDUS_clean_linker_0, # of connection points: 2
#     Edge 40, Type (0, 0), BuildingBlock: CIFDUS_clean_linker_0, # of connection points: 2
#     Edge 41, Type (0, 0), BuildingBlock: CIFDUS_clean_linker_0, # of connection points: 2
#     Edge 42, Type (0, 0), BuildingBlock: CIFDUS_clean_linker_0, # of connection points: 2
#     Edge 43, Type (0, 0), BuildingBlock: CIFDUS_clean_linker_0, # of connection points: 2
#     Edge 44, Type (0, 0), BuildingBlock: CIFDUS_clean_linker_0, # of connection points: 2
#     Edge 45, Type (0, 0), BuildingBlock: CIFDUS_clean_linker_0, # of connection points: 2
#     Edge 46, Type (0, 0), BuildingBlock: CIFDUS_clean_linker_0, # of connection points: 2
#     Edge 47, Type (0, 0), BuildingBlock: CIFDUS_clean_linker_0, # of connection points: 2
#     Edge 48, Type (0, 0), BuildingBlock: CIFDUS_clean_linker_0, # of connection points: 2
#     Edge 49, Type (0, 0), BuildingBlock: CIFDUS_clean_linker_0, # of connection points: 2
#     Edge 50, Type (0, 0), BuildingBlock: CIFDUS_clean_linker_0, # of connection points: 2
#     Edge 51, Type (0, 0), BuildingBlock: CIFDUS_clean_linker_0, # of connection points: 2
#     Edge 52, Type (0, 0), BuildingBlock: CIFDUS_clean_linker_0, # of connection points: 2
#     Edge 53, Type (0, 0), BuildingBlock: CIFDUS_clean_linker_0, # of connection points: 2
#     Edge 54, Type (0, 0), BuildingBlock: CIFDUS_clean_linker_0, # of connection points: 2
#     Edge 55, Type (0, 0), BuildingBlock: CIFDUS_clean_linker_0, # of connection points: 2
# Relax obj value: 0.104
# Max RMSD: 0.129
# Mean RMSD: 0.129
data_MOF--net-wgb--node1-XOMCOT_clean_sbu_1--edge1-CIFDUS_clean_linker_0
_symmetry_space_group_name_H-M    P1
_symmetry_Int_Tables_number       1
_symmetry_cell_setting            triclinic
loop_
_symmetry_equiv_pos_as_xyz
'x, y, z'
_cell_length_a     52.248117
_cell_length_b     52.308015
_cell_length_c     23.706576
_cell_angle_alpha  90.023798
_cell_angle_beta   90.169487
_cell_angle_gamma 90.123601
loop_
_atom_site_label
_atom_site_type_symbol
_atom_site_fract_x
_atom_site_fract_y
_atom_site_fract_z
_atom_type_partial_charge
C0 C 0.37203 0.06079 0.07855 0.0
C1 C 0.37663 0.03504 0.08229 0.0
N2 N 0.37131 0.02741 0.13522 0.0
N3 N 0.3635 0.06948 0.12864 0.0
C4 C 0.36346 0.04873 0.16262 0.0
H5 H 0.37541 0.0726 0.04191 0.0
Co6 Co 0.35676 0.10383 0.14328 0.0
C7 C 0.30796 0.1052 0.20518 0.0
O8 O 0.30104 0.12299 0.16915 0.0
N9 N 0.35101 0.13892 0.15865 0.0
C10 C 0.34816 0.1748 0.20915 0.0
C11 C 0.35027 0.14864 0.21149 0.0
C12 C 0.34967 0.1598 0.12502 0.0
N13 N 0.34788 0.18181 0.15457 0.0
O14 O 0.38385 0.10432 0.19874 0.0
H15 H 0.35176 0.13739 0.24963 0.0
H16 H 0.35031 0.15926 0.07973 0.0
O17 O 0.33017 0.09481 0.20075 0.0
C18 C 0.40426 0.10944 0.17135 0.0
O19 O 0.40238 0.11233 0.11641 0.0
N20 N 0.33301 0.10337 0.08302 0.0
C21 C 0.30754 0.09941 0.97928 0.0
C22 C 0.29825 0.08661 0.02719 0.0
C23 C 0.31166 0.0883 0.07842 0.0
C24 C 0.3429 0.11464 0.0361 0.0
C25 C 0.33019 0.1136 0.98452 0.0
H26 H 0.3055 0.07659 0.11334 0.0
H27 H 0.36158 0.1235 0.03804 0.0
H28 H 0.35816 0.04936 0.20669 0.0
H29 H 0.38433 0.02307 0.0492 0.0
H30 H 0.34783 0.18765 0.24492 0.0
H31 H 0.28146 0.07449 0.02457 0.0
H32 H 0.33844 0.12348 0.94878 0.0
C33 C 0.07228 0.63422 0.88114 0.0
C34 C 0.04732 0.6275 0.87022 0.0
N35 N 0.0406 0.63725 0.81968 0.0
N36 N 0.08133 0.6482 0.83783 0.0
C37 C 0.06171 0.64956 0.80076 0.0
H38 H 0.08314 0.6295 0.9186 0.0
Co39 Co 0.11419 0.66204 0.83596 0.0
C40 C 0.09878 0.70973 0.76853 0.0
O41 O 0.09769 0.72494 0.81244 0.0
N42 N 0.14787 0.6752 0.83438 0.0
C43 C 0.18126 0.70162 0.83824 0.0
C44 C 0.15538 0.69985 0.82959 0.0
C45 C 0.16982 0.66231 0.84543 0.0
N46 N 0.1903 0.67804 0.84824 0.0
O47 O 0.12328 0.63725 0.78047 0.0
H48 H 0.14294 0.71597 0.82401 0.0
H49 H 0.17059 0.64211 0.85498 0.0
O50 O 0.10457 0.68605 0.77468 0.0
C51 C 0.12796 0.6158 0.80368 0.0
O52 O 0.12747 0.61448 0.85905 0.0
N53 N 0.10519 0.68453 0.89492 0.0
C54 C 0.09307 0.71258 0.99109 0.0
C55 C 0.0757 0.71093 0.9462 0.0
C56 C 0.08183 0.69616 0.89911 0.0
C57 C 0.12153 0.68476 0.93993 0.0
C58 C 0.11606 0.69899 0.98798 0.0
H59 H 0.0679 0.69443 0.86553 0.0
H60 H 0.13884 0.67352 0.93928 0.0
H61 H 0.0627 0.65995 0.76139 0.0
H62 H 0.03517 0.61616 0.89739 0.0
H63 H 0.19249 0.71904 0.83947 0.0
H64 H 0.05742 0.72063 0.94788 0.0
H65 H 0.12981 0.69945 0.02227 0.0
C66 C 0.6516 0.95069 0.11867 0.0
C67 C 0.64457 0.9757 0.12834 0.0
N68 N 0.6476 0.98067 0.18379 0.0
N69 N 0.65926 0.94012 0.1677 0.0
C70 C 0.65664 0.95877 0.20641 0.0
H71 H 0.65036 0.94059 0.07893 0.0
Co72 Co 0.66733 0.90625 0.18167 0.0
C73 C 0.71407 0.90922 0.25143 0.0
O74 O 0.72512 0.8928 0.21736 0.0
N75 N 0.67431 0.87139 0.19758 0.0
C76 C 0.67672 0.8363 0.25087 0.0
C77 C 0.67748 0.86248 0.25076 0.0
C78 C 0.67091 0.84989 0.16636 0.0
N79 N 0.67246 0.82839 0.19777 0.0
O80 O 0.64033 0.90461 0.23416 0.0
H81 H 0.67852 0.87425 0.28818 0.0
H82 H 0.66524 0.8497 0.12263 0.0
O83 O 0.69111 0.91655 0.24186 0.0
C84 C 0.62041 0.89562 0.21054 0.0
O85 O 0.62151 0.88949 0.15681 0.0
N86 N 0.69256 0.90816 0.12592 0.0
C87 C 0.72409 0.91256 0.03198 0.0
C88 C 0.7286 0.92753 0.08003 0.0
C89 C 0.71214 0.92556 0.12605 0.0
C90 C 0.68694 0.89492 0.07803 0.0
C91 C 0.70279 0.89626 0.03113 0.0
H92 H 0.71468 0.93861 0.16093 0.0
H93 H 0.66928 0.88436 0.0749 0.0
H94 H 0.66067 0.956 0.25076 0.0
H95 H 0.63673 0.98875 0.09742 0.0
H96 H 0.67828 0.82407 0.28753 0.0
H97 H 0.74411 0.94129 0.08123 0.0
H98 H 0.69812 0.88495 0.99423 0.0
C99 C 0.93996 0.36577 0.88334 0.0
C100 C 0.96577 0.37067 0.8836 0.0
N101 N 0.97523 0.36461 0.83255 0.0
N102 N 0.93303 0.35636 0.8326 0.0
C103 C 0.9549 0.35605 0.80223 0.0
H104 H 0.92692 0.36945 0.91769 0.0
Co105 Co 0.89922 0.34858 0.81369 0.0
C106 C 0.90133 0.30185 0.74307 0.0
O107 O 0.88238 0.29262 0.77327 0.0
N108 N 0.86451 0.34183 0.79463 0.0
C109 C 0.82917 0.33874 0.74201 0.0
C110 C 0.85535 0.34146 0.74125 0.0
C111 C 0.84325 0.33979 0.82699 0.0
N112 N 0.82152 0.33778 0.79613 0.0
O113 O 0.89907 0.37613 0.76046 0.0
H114 H 0.86698 0.3437 0.70389 0.0
H115 H 0.84335 0.34022 0.87233 0.0
O116 O 0.91053 0.32401 0.75494 0.0
C117 C 0.89242 0.39646 0.78624 0.0
O118 O 0.88772 0.39493 0.84058 0.0
N119 N 0.8993 0.32377 0.87093 0.0
C120 C 0.90004 0.29512 0.97019 0.0
C121 C 0.91381 0.28701 0.92266 0.0
C122 C 0.91368 0.30198 0.87365 0.0
C123 C 0.88759 0.33274 0.91813 0.0
C124 C 0.88724 0.31858 0.96767 0.0
H125 H 0.92578 0.29641 0.83897 0.0
H126 H 0.87913 0.35159 0.9178 0.0
H127 H 0.95583 0.34994 0.75867 0.0
H128 H 0.97655 0.37899 0.91811 0.0
H129 H 0.8167 0.33852 0.70547 0.0
H130 H 0.92469 0.26942 0.92344 0.0
H131 H 0.87759 0.32634 0.00423 0.0
C132 C 0.36298 0.4503 0.13618 0.0
C133 C 0.36873 0.47561 0.12672 0.0
N134 N 0.36225 0.48144 0.0731 0.0
N135 N 0.35279 0.44018 0.08896 0.0
C136 C 0.35258 0.4595 0.0513 0.0
H137 H 0.36672 0.4397 0.17448 0.0
Co138 Co 0.34462 0.40598 0.07874 0.0
C139 C 0.29742 0.40601 0.00952 0.0
O140 O 0.28714 0.39037 0.04649 0.0
N141 N 0.33735 0.37088 0.06734 0.0
C142 C 0.33343 0.33439 0.01943 0.0
C143 C 0.33544 0.36044 0.01527 0.0
C144 C 0.33704 0.35043 0.10244 0.0
N145 N 0.33452 0.32809 0.07433 0.0
O146 O 0.37199 0.40297 0.02589 0.0
H147 H 0.33644 0.37106 0.97621 0.0
H148 H 0.3402 0.35138 0.1473 0.0
O149 O 0.32023 0.41446 0.01734 0.0
C150 C 0.39247 0.39684 0.05182 0.0
O151 O 0.3915 0.39411 0.1069 0.0
N152 N 0.31972 0.40922 0.13535 0.0
C153 C 0.28916 0.41493 0.23102 0.0
C154 C 0.28347 0.42824 0.1811 0.0
C155 C 0.29939 0.42563 0.13412 0.0
C156 C 0.32669 0.39804 0.18488 0.0
C157 C 0.31136 0.39993 0.2326 0.0
H158 H 0.29572 0.43731 0.09743 0.0
H159 H 0.34485 0.38835 0.18804 0.0
H160 H 0.34592 0.45723 0.00838 0.0
H161 H 0.37795 0.48834 0.1565 0.0
H162 H 0.33188 0.32109 0.98459 0.0
H163 H 0.26728 0.4411 0.17879 0.0
H164 H 0.31701 0.38977 0.27039 0.0
C165 C 0.4465 0.63604 0.86791 0.0
C166 C 0.47177 0.62893 0.87065 0.0
N167 N 0.48235 0.63955 0.91707 0.0
N168 N 0.44097 0.65106 0.91235 0.0
C169 C 0.46311 0.65276 0.94181 0.0
H170 H 0.43302 0.63091 0.83508 0.0
Co171 Co 0.40894 0.66601 0.92305 0.0
C172 C 0.43054 0.71198 0.99021 0.0
O173 O 0.43427 0.72695 0.94668 0.0
N174 N 0.37632 0.68079 0.93401 0.0
C175 C 0.34585 0.70983 0.94628 0.0
C176 C 0.37164 0.70593 0.94179 0.0
C177 C 0.35276 0.66984 0.93286 0.0
N178 N 0.33391 0.68717 0.94068 0.0
O179 O 0.4015 0.64097 0.97937 0.0
H180 H 0.38582 0.72088 0.94144 0.0
H181 H 0.34941 0.64971 0.92556 0.0
O182 O 0.4221 0.68914 0.98298 0.0
C183 C 0.39339 0.62063 0.95564 0.0
O184 O 0.3907 0.62065 0.90049 0.0
N185 N 0.41549 0.68834 0.86238 0.0
C186 C 0.42185 0.714 0.76 0.0
C187 C 0.44182 0.71311 0.79969 0.0
C188 C 0.43849 0.69951 0.85001 0.0
C189 C 0.39669 0.68759 0.82241 0.0
C190 C 0.3993 0.70046 0.77156 0.0
H191 H 0.45451 0.69777 0.87866 0.0
H192 H 0.3797 0.67618 0.82895 0.0
H193 H 0.46521 0.66407 0.97972 0.0
H194 H 0.48147 0.61673 0.84073 0.0
H195 H 0.3365 0.72818 0.95067 0.0
H196 H 0.45986 0.7227 0.79203 0.0
H197 H 0.38392 0.69922 0.74095 0.0
C198 C 0.63935 0.57134 0.14936 0.0
C199 C 0.63157 0.54648 0.14022 0.0
N200 N 0.6378 0.53993 0.08699 0.0
N201 N 0.65064 0.58033 0.10231 0.0
C202 C 0.64922 0.56089 0.065 0.0
H203 H 0.63699 0.5822 0.18783 0.0
Co204 Co 0.66421 0.61303 0.09175 0.0
C205 C 0.70874 0.59348 0.01974 0.0
O206 O 0.72457 0.59173 0.06251 0.0
N207 N 0.67742 0.64636 0.07962 0.0
C208 C 0.70316 0.6789 0.05813 0.0
C209 C 0.70103 0.65284 0.06115 0.0
C210 C 0.66574 0.6691 0.08855 0.0
N211 N 0.681 0.68913 0.07548 0.0
O212 O 0.63643 0.62029 0.04113 0.0
H213 H 0.7164 0.63981 0.0525 0.0
H214 H 0.64664 0.67104 0.10543 0.0
O215 O 0.68564 0.60101 0.02757 0.0
C216 C 0.61751 0.627 0.07169 0.0
O217 O 0.62108 0.62838 0.12654 0.0
N218 N 0.68922 0.60653 0.14816 0.0
C219 C 0.71922 0.59918 0.24439 0.0
C220 C 0.71587 0.57934 0.20543 0.0
C221 C 0.70004 0.58315 0.15849 0.0
C222 C 0.69145 0.62546 0.18759 0.0
C223 C 0.70663 0.62235 0.23533 0.0
H224 H 0.69662 0.56726 0.13023 0.0
H225 H 0.68066 0.64293 0.18363 0.0
H226 H 0.65667 0.56203 0.02259 0.0
H227 H 0.62174 0.53438 0.17021 0.0
H228 H 0.72018 0.68957 0.04685 0.0
H229 H 0.72473 0.56089 0.21212 0.0
H230 H 0.70827 0.63792 0.26533 0.0
C231 C 0.56611 0.36929 0.88449 0.0
C232 C 0.54074 0.37525 0.89234 0.0
N233 N 0.53411 0.36864 0.94533 0.0
N234 N 0.57549 0.3588 0.93209 0.0
C235 C 0.55564 0.35868 0.9684 0.0
H236 H 0.57724 0.37313 0.84705 0.0
Co237 Co 0.60955 0.35018 0.9445 0.0
C238 C 0.60742 0.30278 0.01372 0.0
O239 O 0.62443 0.29231 0.98016 0.0
N240 N 0.64448 0.34248 0.95779 0.0
C241 C 0.68061 0.33826 0.00712 0.0
C242 C 0.65446 0.33999 0.01017 0.0
C243 C 0.66528 0.34272 0.92363 0.0
N244 N 0.68745 0.3401 0.95263 0.0
O245 O 0.61201 0.37691 0.99923 0.0
H246 H 0.64347 0.3405 0.04875 0.0
H247 H 0.66462 0.3464 0.87892 0.0
O248 O 0.59946 0.3255 0.00366 0.0
C249 C 0.61761 0.39784 0.97469 0.0
O250 O 0.6209 0.3975 0.91973 0.0
N251 N 0.60687 0.32601 0.88624 0.0
C252 C 0.59869 0.2998 0.78515 0.0
C253 C 0.58709 0.29147 0.83519 0.0
C254 C 0.59084 0.3053 0.8851 0.0
C255 C 0.61749 0.33474 0.8375 0.0
C256 C 0.61407 0.32173 0.78679 0.0
H257 H 0.57973 0.30011 0.92165 0.0
H258 H 0.62738 0.35288 0.83721 0.0
H259 H 0.5572 0.35186 0.01131 0.0
H260 H 0.52851 0.38471 0.86197 0.0
H261 H 0.6936 0.3365 0.04253 0.0
H262 H 0.57425 0.27518 0.83513 0.0
H263 H 0.62294 0.32915 0.74893 0.0
C264 C 0.86505 0.57171 0.62513 0.0
C265 C 0.87101 0.54626 0.63171 0.0
N266 N 0.86565 0.53934 0.68524 0.0
N267 N 0.85582 0.58087 0.67408 0.0
C268 C 0.85642 0.56081 0.70987 0.0
H269 H 0.86804 0.58306 0.58759 0.0
Co270 Co 0.84806 0.61494 0.68854 0.0
C271 C 0.80223 0.61399 0.76099 0.0
O272 O 0.79257 0.63208 0.72892 0.0
N273 N 0.84131 0.64994 0.70423 0.0
C274 C 0.83823 0.68516 0.75679 0.0
C275 C 0.84156 0.65918 0.7575 0.0
C276 C 0.8384 0.67111 0.67171 0.0
N277 N 0.83626 0.69275 0.70277 0.0
O278 O 0.87617 0.61646 0.73985 0.0
H279 H 0.84456 0.64773 0.79491 0.0
H280 H 0.83829 0.67099 0.62625 0.0
O281 O 0.82446 0.60493 0.74988 0.0
C282 C 0.89658 0.62272 0.71403 0.0
O283 O 0.89519 0.62721 0.65955 0.0
N284 N 0.82214 0.61296 0.63372 0.0
C285 C 0.79015 0.60715 0.54047 0.0
C286 C 0.78487 0.59423 0.59077 0.0
C287 C 0.80164 0.59667 0.63635 0.0
C288 C 0.82824 0.62445 0.58396 0.0
C289 C 0.81232 0.62212 0.53695 0.0
H290 H 0.79859 0.58466 0.6727 0.0
H291 H 0.84618 0.63459 0.58002 0.0
H292 H 0.85066 0.56221 0.75351 0.0
H293 H 0.87958 0.53419 0.59994 0.0
H294 H 0.83828 0.6976 0.79328 0.0
H295 H 0.76851 0.58156 0.594 0.0
H296 H 0.81742 0.63171 0.49807 0.0
C297 C 0.56417 0.14166 0.40483 0.0
C298 C 0.53893 0.13476 0.39917 0.0
N299 N 0.53111 0.14091 0.34673 0.0
N300 N 0.57236 0.15247 0.3565 0.0
C301 C 0.55185 0.15152 0.32149 0.0
H302 H 0.57596 0.13895 0.44192 0.0
Co303 Co 0.60614 0.16397 0.34737 0.0
C304 C 0.59112 0.21269 0.28217 0.0
O305 O 0.59161 0.22802 0.32595 0.0
N306 N 0.64052 0.17471 0.33864 0.0
C307 C 0.67552 0.19899 0.33598 0.0
C308 C 0.64931 0.19886 0.33228 0.0
C309 C 0.66198 0.16047 0.34569 0.0
N310 N 0.68345 0.17488 0.34431 0.0
O311 O 0.61114 0.13897 0.28996 0.0
H312 H 0.63763 0.2157 0.32929 0.0
H313 H 0.66181 0.1403 0.35575 0.0
O314 O 0.5958 0.18878 0.28827 0.0
C315 C 0.61527 0.11718 0.31206 0.0
O316 O 0.61546 0.11543 0.36738 0.0
N317 N 0.60173 0.18661 0.40882 0.0
C318 C 0.59592 0.21078 0.51305 0.0
C319 C 0.57712 0.21328 0.47109 0.0
C320 C 0.58006 0.20038 0.4197 0.0
C321 C 0.61969 0.18352 0.45018 0.0
C322 C 0.61737 0.19569 0.50205 0.0
H323 H 0.56459 0.20085 0.38931 0.0
H324 H 0.63555 0.17063 0.44416 0.0
H325 H 0.55211 0.15849 0.27852 0.0
H326 H 0.52739 0.12534 0.43084 0.0
H327 H 0.68779 0.2157 0.33559 0.0
H328 H 0.5599 0.22421 0.47879 0.0
H329 H 0.63213 0.19297 0.53368 0.0
C330 C 0.14483 0.44585 0.61205 0.0
C331 C 0.14063 0.47142 0.62238 0.0
N332 N 0.14472 0.47589 0.67774 0.0
N333 N 0.15168 0.43431 0.66058 0.0
C334 C 0.1514 0.453 0.6997 0.0
H335 H 0.1426 0.43617 0.572 0.0
Co336 Co 0.15803 0.39979 0.67181 0.0
C337 C 0.20248 0.39882 0.74908 0.0
O338 O 0.21333 0.38242 0.71464 0.0
N339 N 0.16361 0.36455 0.68487 0.0
C340 C 0.16427 0.32847 0.73487 0.0
C341 C 0.16237 0.35455 0.73741 0.0
C342 C 0.16584 0.34382 0.65092 0.0
N343 N 0.16637 0.32171 0.68041 0.0
O344 O 0.12809 0.39757 0.71817 0.0
H345 H 0.15947 0.36554 0.7755 0.0
H346 H 0.16569 0.34443 0.6055 0.0
O347 O 0.18021 0.40772 0.7376 0.0
C348 C 0.10919 0.39316 0.68536 0.0
O349 O 0.11364 0.3916 0.63091 0.0
N350 N 0.18523 0.40223 0.62044 0.0
C351 C 0.21773 0.40914 0.52827 0.0
C352 C 0.22258 0.42165 0.57964 0.0
C353 C 0.20572 0.41844 0.62485 0.0
C354 C 0.17951 0.39126 0.56987 0.0
C355 C 0.19581 0.39377 0.5239 0.0
H356 H 0.20855 0.42988 0.66229 0.0
H357 H 0.16142 0.38157 0.56422 0.0
H358 H 0.15584 0.44973 0.74366 0.0
H359 H 0.13432 0.4854 0.59175 0.0
H360 H 0.16369 0.31547 0.77035 0.0
H361 H 0.23862 0.43465 0.58412 0.0
H362 H 0.1909 0.38411 0.48492 0.0
C363 C 0.45077 0.86427 0.39041 0.0
C364 C 0.47664 0.86807 0.38373 0.0
N365 N 0.48246 0.86393 0.32913 0.0
N366 N 0.44046 0.85758 0.34033 0.0
C367 C 0.46012 0.85777 0.30383 0.0
H368 H 0.44017 0.86641 0.4292 0.0
Co369 Co 0.40652 0.85082 0.32455 0.0
C370 C 0.40702 0.80524 0.25021 0.0
O371 O 0.38822 0.79564 0.2803 0.0
N372 N 0.37189 0.84458 0.30759 0.0
C373 C 0.33598 0.84118 0.25716 0.0
C374 C 0.36179 0.84615 0.25511 0.0
C375 C 0.35168 0.83898 0.34079 0.0
N376 N 0.32977 0.83656 0.31119 0.0
O377 O 0.40575 0.87932 0.27393 0.0
H378 H 0.37258 0.8506 0.21749 0.0
H379 H 0.35244 0.83742 0.38603 0.0
O380 O 0.41648 0.8271 0.26336 0.0
C381 C 0.40139 0.89926 0.30336 0.0
O382 O 0.39912 0.89664 0.35826 0.0
N383 N 0.40723 0.82528 0.37978 0.0
C384 C 0.40777 0.79551 0.47707 0.0
C385 C 0.42056 0.78727 0.42836 0.0
C386 C 0.42057 0.80281 0.38022 0.0
C387 C 0.39683 0.83438 0.42832 0.0
C388 C 0.39635 0.81967 0.47696 0.0
H389 H 0.43181 0.79704 0.34432 0.0
H390 H 0.38889 0.85346 0.42918 0.0
H391 H 0.45789 0.85412 0.25917 0.0
H392 H 0.49005 0.87333 0.41663 0.0
H393 H 0.32287 0.84091 0.22174 0.0
H394 H 0.43047 0.76911 0.42751 0.0
H395 H 0.38747 0.82739 0.51451 0.0
C396 C 0.86913 0.94991 0.6539 0.0
C397 C 0.87413 0.97572 0.652 0.0
N398 N 0.8679 0.98446 0.60023 0.0
N399 N 0.85964 0.94229 0.60376 0.0
C400 C 0.85918 0.96368 0.57181 0.0
H401 H 0.87263 0.93734 0.68929 0.0
Co402 Co 0.85158 0.9085 0.58598 0.0
C403 C 0.80574 0.9114 0.51457 0.0
O404 O 0.79496 0.89434 0.54761 0.0
N405 N 0.84452 0.87374 0.567 0.0
C406 C 0.84164 0.83949 0.51109 0.0
C407 C 0.84347 0.86562 0.51283 0.0
C408 C 0.84385 0.85174 0.59738 0.0
N409 N 0.84196 0.83069 0.56433 0.0
O410 O 0.879 0.90773 0.53452 0.0
H411 H 0.84498 0.87791 0.47632 0.0
H412 H 0.8463 0.85069 0.64245 0.0
O413 O 0.82836 0.9195 0.52537 0.0
C414 C 0.89956 0.90102 0.55905 0.0
O415 O 0.89905 0.89681 0.6137 0.0
N416 N 0.82596 0.90953 0.64077 0.0
C417 C 0.79434 0.91307 0.73464 0.0
C418 C 0.78969 0.92815 0.68689 0.0
C419 C 0.8062 0.92663 0.64091 0.0
C420 C 0.83171 0.89617 0.68835 0.0
C421 C 0.81581 0.89707 0.73523 0.0
H422 H 0.80358 0.93983 0.60639 0.0
H423 H 0.84949 0.88577 0.69108 0.0
H424 H 0.85273 0.96388 0.52843 0.0
H425 H 0.8825 0.98694 0.68569 0.0
H426 H 0.84074 0.82784 0.47339 0.0
H427 H 0.77405 0.9417 0.68594 0.0
H428 H 0.82057 0.88568 0.77191 0.0
C429 C 0.94567 0.13613 0.35644 0.0
C430 C 0.97104 0.1297 0.36306 0.0
N431 N 0.97915 0.13839 0.41363 0.0
N432 N 0.93765 0.14889 0.40247 0.0
C433 C 0.95839 0.14986 0.4367 0.0
H434 H 0.93379 0.13191 0.32016 0.0
Co435 Co 0.90443 0.16184 0.41186 0.0
C436 C 0.92326 0.20774 0.48316 0.0
O437 O 0.92704 0.22291 0.44001 0.0
N438 N 0.87072 0.17471 0.4221 0.0
C439 C 0.8392 0.20251 0.4361 0.0
C440 C 0.8651 0.19956 0.43142 0.0
C441 C 0.8475 0.16297 0.42008 0.0
N442 N 0.82805 0.17956 0.42901 0.0
O443 O 0.89748 0.1348 0.46451 0.0
H444 H 0.87875 0.21499 0.43243 0.0
H445 H 0.84482 0.14279 0.41196 0.0
O446 O 0.91558 0.18465 0.47519 0.0
C447 C 0.89095 0.11542 0.43496 0.0
O448 O 0.88915 0.1184 0.38001 0.0
N449 N 0.91053 0.18578 0.35338 0.0
C450 C 0.91634 0.21365 0.25339 0.0
C451 C 0.93631 0.2124 0.29308 0.0
C452 C 0.93328 0.1977 0.34206 0.0
C453 C 0.89183 0.18536 0.31308 0.0
C454 C 0.89414 0.19936 0.26359 0.0
H455 H 0.94933 0.19579 0.3706 0.0
H456 H 0.87519 0.1733 0.31803 0.0
H457 H 0.95832 0.15918 0.4774 0.0
H458 H 0.98244 0.11913 0.33306 0.0
H459 H 0.8292 0.2204 0.44224 0.0
H460 H 0.95415 0.2225 0.28636 0.0
H461 H 0.87883 0.19829 0.23277 0.0
C462 C 0.15164 0.06893 0.59747 0.0
C463 C 0.14603 0.0434 0.5916 0.0
N464 N 0.15405 0.03566 0.54034 0.0
N465 N 0.16329 0.07731 0.55036 0.0
C466 C 0.16446 0.05671 0.51624 0.0
H467 H 0.14678 0.08087 0.63309 0.0
Co468 Co 0.17181 0.11114 0.53672 0.0
C469 C 0.22152 0.11008 0.47793 0.0
O470 O 0.22895 0.12747 0.51454 0.0
N471 N 0.17941 0.1459 0.52192 0.0
C472 C 0.18476 0.18148 0.47144 0.0
C473 C 0.18226 0.15535 0.46922 0.0
C474 C 0.17974 0.1669 0.55528 0.0
N475 N 0.18304 0.18874 0.5257 0.0
O476 O 0.14542 0.11265 0.47979 0.0
H477 H 0.18171 0.14399 0.43111 0.0
H478 H 0.17699 0.1666 0.60021 0.0
O479 O 0.19867 0.10095 0.48079 0.0
C480 C 0.12513 0.11959 0.50563 0.0
O481 O 0.12694 0.12431 0.55998 0.0
N482 N 0.19475 0.1095 0.59832 0.0
C483 C 0.21907 0.10362 0.703 0.0
C484 C 0.22772 0.09029 0.65524 0.0
C485 C 0.21491 0.09301 0.60357 0.0
C486 C 0.18525 0.12123 0.64506 0.0
C487 C 0.19748 0.11926 0.69714 0.0
H488 H 0.22049 0.08094 0.56879 0.0
H489 H 0.16714 0.13108 0.64272 0.0
H490 H 0.17233 0.05737 0.47413 0.0
H491 H 0.1358 0.03182 0.62191 0.0
H492 H 0.18649 0.19419 0.43564 0.0
H493 H 0.24353 0.07701 0.65822 0.0
H494 H 0.18964 0.12957 0.73271 0.0
C495 C 0.06658 0.86589 0.37192 0.0
C496 C 0.04196 0.87343 0.38304 0.0
N497 N 0.03655 0.86744 0.43705 0.0
N498 N 0.07659 0.85508 0.4185 0.0
C499 C 0.05796 0.85629 0.45752 0.0
H500 H 0.0769 0.86893 0.33301 0.0
Co501 Co 0.11014 0.84521 0.42542 0.0
C502 C 0.11027 0.79998 0.49994 0.0
O503 O 0.1259 0.78897 0.46403 0.0
N504 N 0.14481 0.83646 0.43232 0.0
C505 C 0.18336 0.83235 0.47148 0.0
C506 C 0.15767 0.83492 0.48178 0.0
C507 C 0.1633 0.83557 0.39269 0.0
N508 N 0.18684 0.83291 0.41532 0.0
O509 O 0.11619 0.87322 0.47509 0.0
H510 H 0.14905 0.83687 0.52298 0.0
H511 H 0.16 0.83807 0.34821 0.0
O512 O 0.10191 0.82258 0.48982 0.0
C513 C 0.12327 0.89273 0.44703 0.0
O514 O 0.12524 0.89057 0.39196 0.0
N515 N 0.10375 0.81937 0.37224 0.0
C516 C 0.09387 0.78663 0.28225 0.0
C517 C 0.08315 0.78184 0.33527 0.0
C518 C 0.08757 0.79902 0.37933 0.0
C519 C 0.11234 0.82535 0.31972 0.0
C520 C 0.10814 0.809 0.27435 0.0
H521 H 0.07744 0.7962 0.41842 0.0
H522 H 0.12184 0.84342 0.31258 0.0
H523 H 0.06035 0.84963 0.50038 0.0
H524 H 0.0295 0.88354 0.3542 0.0
H525 H 0.19841 0.83181 0.50294 0.0
H526 H 0.07093 0.76537 0.34211 0.0
H527 H 0.11604 0.81384 0.23351 0.0
H528 H 0.31686 0.09858 0.31797 0.0
H529 H 0.25717 0.09758 0.19234 0.0
H530 H 0.22459 0.09511 0.26589 0.0
H531 H 0.21273 0.09919 0.36641 0.0
H532 H 0.27249 0.10393 0.49161 0.0
H533 H 0.30503 0.09869 0.41884 0.0
C534 C 0.29676 0.09705 0.30688 0.0
C535 C 0.28944 0.09811 0.24985 0.0
C536 C 0.27798 0.09667 0.34967 0.0
C537 C 0.26327 0.09673 0.23603 0.0
C538 C 0.24459 0.09545 0.2781 0.0
C539 C 0.23284 0.09839 0.37773 0.0
C540 C 0.24016 0.10196 0.4343 0.0
C541 C 0.25163 0.09628 0.33518 0.0
C542 C 0.26635 0.10133 0.44828 0.0
C543 C 0.28502 0.09839 0.40663 0.0
H544 H 0.11639 0.74942 0.52108 0.0
H545 H 0.08734 0.81897 0.59487 0.0
H546 H 0.07896 0.7963 0.68324 0.0
H547 H 0.08319 0.75769 0.74144 0.0
H548 H 0.11256 0.68825 0.6676 0.0
H549 H 0.11712 0.7099 0.57683 0.0
C550 C 0.10809 0.75963 0.55636 0.0
C551 C 0.10283 0.78596 0.55165 0.0
C552 C 0.10339 0.7465 0.60694 0.0
C553 C 0.09168 0.79876 0.59747 0.0
C554 C 0.08695 0.78581 0.64802 0.0
C555 C 0.09035 0.74716 0.70538 0.0
C556 C 0.09782 0.72142 0.71159 0.0
C557 C 0.09321 0.75982 0.65354 0.0
C558 C 0.10672 0.70805 0.66416 0.0
C559 C 0.10948 0.72047 0.61229 0.0
H560 H 0.7551 0.91825 0.49888 0.0
H561 H 0.82737 0.91901 0.41167 0.0
H562 H 0.80502 0.92082 0.32081 0.0
H563 H 0.76485 0.91639 0.26673 0.0
H564 H 0.6926 0.91758 0.35411 0.0
H565 H 0.71495 0.92117 0.44463 0.0
C566 C 0.76589 0.91936 0.45991 0.0
C567 C 0.79274 0.91818 0.46156 0.0
C568 C 0.75292 0.92051 0.4081 0.0
C569 C 0.80666 0.91995 0.41118 0.0
C570 C 0.79389 0.92077 0.35931 0.0
C571 C 0.75406 0.91791 0.30562 0.0
C572 C 0.72721 0.91634 0.30416 0.0
C573 C 0.76703 0.92018 0.3573 0.0
C574 C 0.71331 0.91872 0.35443 0.0
C575 C 0.72607 0.92061 0.40613 0.0
H576 H 0.89248 0.25151 0.72125 0.0
H577 H 0.93248 0.31754 0.65673 0.0
H578 H 0.94508 0.29316 0.57316 0.0
H579 H 0.9416 0.25432 0.51499 0.0
H580 H 0.90128 0.18843 0.57929 0.0
H581 H 0.89238 0.21142 0.66689 0.0
C582 C 0.90411 0.26058 0.68913 0.0
C583 C 0.91123 0.2865 0.69502 0.0
C584 C 0.91125 0.24644 0.64117 0.0
C585 C 0.92662 0.29772 0.65328 0.0
C586 C 0.93379 0.28378 0.6054 0.0
C587 C 0.93116 0.2448 0.54843 0.0
C588 C 0.92195 0.21967 0.54014 0.0
C589 C 0.92578 0.25829 0.59839 0.0
C590 C 0.90866 0.20766 0.58432 0.0
C591 C 0.90338 0.2209 0.63433 0.0
H592 H 0.24614 0.41013 0.99536 0.0
H593 H 0.31741 0.41205 0.90423 0.0
H594 H 0.29398 0.41176 0.81457 0.0
H595 H 0.25334 0.4062 0.76265 0.0
H596 H 0.18197 0.4066 0.85334 0.0
H597 H 0.20525 0.41102 0.94282 0.0
C598 C 0.25649 0.41094 0.9558 0.0
C599 C 0.28345 0.41085 0.95624 0.0
C600 C 0.24287 0.41097 0.90453 0.0
C601 C 0.29668 0.41219 0.90489 0.0
C602 C 0.28328 0.41183 0.85366 0.0
C603 C 0.24291 0.40765 0.80203 0.0
C604 C 0.21603 0.40576 0.80172 0.0
C605 C 0.25642 0.41049 0.85304 0.0
C606 C 0.20266 0.40802 0.8527 0.0
C607 C 0.21597 0.4104 0.90379 0.0
H608 H 0.39981 0.75474 0.22872 0.0
H609 H 0.43695 0.82216 0.16302 0.0
H610 H 0.44999 0.79825 0.07909 0.0
H611 H 0.44756 0.75927 0.02102 0.0
H612 H 0.4103 0.69195 0.08723 0.0
H613 H 0.40107 0.71465 0.17481 0.0
C614 C 0.41089 0.76421 0.19621 0.0
C615 C 0.41705 0.79035 0.20177 0.0
C616 C 0.41835 0.75034 0.14821 0.0
C617 C 0.43181 0.80214 0.15968 0.0
C618 C 0.43924 0.78847 0.11164 0.0
C619 C 0.43776 0.74939 0.05489 0.0
C620 C 0.42942 0.72395 0.04708 0.0
C621 C 0.43217 0.7627 0.10496 0.0
C622 C 0.41696 0.71147 0.09181 0.0
C623 C 0.41148 0.72452 0.14185 0.0
H624 H 0.75485 0.57448 0.98898 0.0
H625 H 0.68852 0.61325 0.92208 0.0
H626 H 0.71139 0.62144 0.83404 0.0
H627 H 0.7517 0.62187 0.78083 0.0
H628 H 0.8183 0.5839 0.84865 0.0
H629 H 0.79379 0.57118 0.93187 0.0
C630 C 0.74521 0.58439 0.95483 0.0
C631 C 0.72007 0.59351 0.96245 0.0
C632 C 0.75867 0.58954 0.90492 0.0
C633 C 0.70781 0.606 0.91746 0.0
C634 C 0.72098 0.61091 0.86728 0.0
C635 C 0.76086 0.61067 0.81364 0.0
C636 C 0.78695 0.6042 0.80896 0.0
C637 C 0.74667 0.6035 0.86135 0.0
C638 C 0.79834 0.5893 0.85138 0.0
C639 C 0.78433 0.58204 0.89898 0.0
H640 H 0.57644 0.26089 0.25371 0.0
H641 H 0.60538 0.19087 0.18191 0.0
H642 H 0.61151 0.21232 0.09137 0.0
H643 H 0.61241 0.25192 0.03525 0.0
H644 H 0.58317 0.32185 0.1068 0.0
H645 H 0.57333 0.29943 0.19464 0.0
C646 C 0.58378 0.25019 0.21808 0.0
C647 C 0.59068 0.22432 0.22495 0.0
C648 C 0.58746 0.26272 0.1662 0.0
C649 C 0.5999 0.21075 0.17803 0.0
C650 C 0.60358 0.22307 0.12625 0.0
C651 C 0.6037 0.26224 0.06989 0.0
C652 C 0.59886 0.28864 0.06463 0.0
C653 C 0.59805 0.24921 0.12029 0.0
C654 C 0.5872 0.30158 0.10969 0.0
C655 C 0.58163 0.28877 0.16003 0.0
H656 H 0.35374 0.2861 0.02483 0.0
H657 H 0.31708 0.31287 0.17636 0.0
H658 H 0.31798 0.26952 0.2153 0.0
H659 H 0.32855 0.2239 0.20508 0.0
H660 H 0.36622 0.19793 0.05367 0.0
H661 H 0.36491 0.24098 0.01531 0.0
C662 C 0.3457 0.28243 0.06612 0.0
C663 C 0.3352 0.30264 0.0975 0.0
C664 C 0.3463 0.25756 0.08809 0.0
C665 C 0.32541 0.29765 0.15155 0.0
C666 C 0.32582 0.27287 0.17367 0.0
C667 C 0.33667 0.22766 0.16392 0.0
C668 C 0.34726 0.20749 0.1323 0.0
C669 C 0.3362 0.25266 0.14224 0.0
C670 C 0.35745 0.2128 0.07867 0.0
C671 C 0.35691 0.23753 0.05676 0.0
H672 H 0.21561 0.70081 0.93167 0.0
H673 H 0.22208 0.6424 0.80496 0.0
H674 H 0.26796 0.6376 0.82667 0.0
H675 H 0.30708 0.65415 0.87485 0.0
H676 H 0.29918 0.71257 0.00196 0.0
H677 H 0.253 0.71317 0.98768 0.0
C678 C 0.2271 0.6868 0.9095 0.0
C679 C 0.21585 0.67219 0.86646 0.0
C680 C 0.25318 0.68435 0.92213 0.0
C681 C 0.23057 0.65381 0.83827 0.0
C682 C 0.25673 0.65122 0.8505 0.0
C683 C 0.29513 0.66652 0.90023 0.0
C684 C 0.30656 0.68365 0.93871 0.0
C685 C 0.26842 0.66692 0.89138 0.0
C686 C 0.29086 0.69963 0.9713 0.0
C687 C 0.26446 0.69997 0.96322 0.0
H688 H 0.68595 0.80806 0.09815 0.0
H689 H 0.65012 0.79028 0.25689 0.0
H690 H 0.64687 0.74531 0.23002 0.0
H691 H 0.65767 0.71039 0.16464 0.0
H692 H 0.69535 0.72783 0.008 0.0
H693 H 0.69408 0.77353 0.02998 0.0
C694 C 0.67709 0.79436 0.12634 0.0
C695 C 0.66857 0.8024 0.1796 0.0
C696 C 0.67566 0.76845 0.11095 0.0
C697 C 0.65728 0.78445 0.21608 0.0
C698 C 0.65529 0.75876 0.20063 0.0
C699 C 0.66503 0.72431 0.1349 0.0
C700 C 0.67659 0.7159 0.08486 0.0
C701 C 0.6649 0.75044 0.14866 0.0
C702 C 0.6865 0.734 0.04693 0.0
C703 C 0.68582 0.76006 0.05954 0.0
H704 H 0.80389 0.35423 0.89701 0.0
H705 H 0.78004 0.31831 0.74155 0.0
H706 H 0.73601 0.31645 0.77558 0.0
H707 H 0.70421 0.32444 0.85057 0.0
H708 H 0.72888 0.3595 0.00626 0.0
H709 H 0.77265 0.36173 0.97154 0.0
C710 C 0.78924 0.34566 0.87068 0.0
C711 C 0.7955 0.33638 0.8167 0.0
C712 C 0.76399 0.3444 0.89072 0.0
C713 C 0.77588 0.32588 0.78298 0.0
C714 C 0.75065 0.32468 0.80255 0.0
C715 C 0.71916 0.33269 0.87665 0.0
C716 C 0.71323 0.34164 0.93108 0.0
C717 C 0.74446 0.33389 0.85639 0.0
C718 C 0.73291 0.35207 0.96462 0.0
C719 C 0.75797 0.35351 0.94465 0.0
H720 H 0.82316 0.81075 0.66065 0.0
H721 H 0.86195 0.79083 0.50655 0.0
H722 H 0.86265 0.74599 0.53459 0.0
H723 H 0.85333 0.71241 0.60417 0.0
H724 H 0.81418 0.73221 0.758 0.0
H725 H 0.8128 0.77692 0.72919 0.0
C726 C 0.83188 0.7966 0.63344 0.0
C727 C 0.84243 0.80421 0.58157 0.0
C728 C 0.83222 0.77074 0.64984 0.0
C729 C 0.85338 0.78554 0.54637 0.0
C730 C 0.85391 0.75985 0.5625 0.0
C731 C 0.8442 0.72641 0.63105 0.0
C732 C 0.83404 0.71886 0.68339 0.0
C733 C 0.84341 0.7522 0.61417 0.0
C734 C 0.82254 0.73746 0.71793 0.0
C735 C 0.82164 0.76308 0.7014 0.0
H736 H 0.80061 0.1501 0.3564 0.0
H737 H 0.7942 0.20002 0.50025 0.0
H738 H 0.74777 0.20081 0.48989 0.0
H739 H 0.70961 0.1919 0.43289 0.0
H740 H 0.71462 0.14237 0.28879 0.0
H741 H 0.76077 0.13643 0.30605 0.0
C742 C 0.7889 0.16053 0.38619 0.0
C743 C 0.80078 0.17526 0.42867 0.0
C744 C 0.76202 0.16121 0.37937 0.0
C745 C 0.78545 0.18886 0.46686 0.0
C746 C 0.75893 0.18936 0.4609 0.0
C747 C 0.72084 0.17943 0.40612 0.0
C748 C 0.70907 0.16767 0.35963 0.0
C749 C 0.74712 0.17636 0.41622 0.0
C750 C 0.72349 0.15147 0.32496 0.0
C751 C 0.74982 0.14825 0.33469 0.0
H752 H 0.19005 0.30563 0.58601 0.0
H753 H 0.14391 0.27998 0.72561 0.0
H754 H 0.14533 0.23628 0.69019 0.0
H755 H 0.15909 0.20549 0.61923 0.0
H756 H 0.2058 0.23041 0.47985 0.0
H757 H 0.2043 0.27435 0.5148 0.0
C758 C 0.18018 0.29047 0.60833 0.0
C759 C 0.167 0.29604 0.65847 0.0
C760 C 0.18109 0.2653 0.5877 0.0
C761 C 0.15452 0.27616 0.6874 0.0
C762 C 0.1552 0.25118 0.66701 0.0
C763 C 0.16928 0.22039 0.59683 0.0
C764 C 0.18263 0.21456 0.54706 0.0
C765 C 0.16849 0.24551 0.61734 0.0
C766 C 0.19518 0.23437 0.51797 0.0
C767 C 0.19442 0.25949 0.53807 0.0
H768 H 0.28482 0.8536 0.27092 0.0
H769 H 0.31872 0.80796 0.40278 0.0
H770 H 0.27679 0.80189 0.44592 0.0
H771 H 0.23079 0.81096 0.44802 0.0
H772 H 0.19714 0.85743 0.31719 0.0
H773 H 0.23852 0.86116 0.27086 0.0
C774 C 0.28294 0.84201 0.30856 0.0
C775 C 0.30481 0.83143 0.33388 0.0
C776 C 0.25883 0.8387 0.33323 0.0
C777 C 0.30218 0.81668 0.38308 0.0
C778 C 0.27823 0.8131 0.40761 0.0
C779 C 0.23256 0.82193 0.40944 0.0
C780 C 0.21094 0.8339 0.38625 0.0
C781 C 0.25649 0.82434 0.38349 0.0
C782 C 0.21338 0.84772 0.33565 0.0
C783 C 0.2371 0.85005 0.30931 0.0
H784 H 0.25617 0.09938 0.95722 0.0
H785 H 0.32969 0.09449 0.87534 0.0
H786 H 0.30894 0.09498 0.78327 0.0
H787 H 0.27011 0.09893 0.7256 0.0
H788 H 0.19637 0.1012 0.80718 0.0
H789 H 0.21704 0.09956 0.89932 0.0
C790 C 0.26764 0.09804 0.9193 0.0
C791 C 0.2945 0.09738 0.92346 0.0
C792 C 0.25557 0.09807 0.86618 0.0
C793 C 0.30902 0.09574 0.87362 0.0
C794 C 0.29716 0.09584 0.82079 0.0
C795 C 0.2585 0.09867 0.76342 0.0
C796 C 0.23171 0.10063 0.7591 0.0
C797 C 0.27047 0.09737 0.81651 0.0
C798 C 0.21706 0.10044 0.80892 0.0
C799 C 0.22885 0.09929 0.86182 0.0
H800 H 0.07926 0.7977 0.17536 0.0
H801 H 0.10069 0.73512 0.2839 0.0
H802 H 0.10018 0.70589 0.20331 0.0
H803 H 0.09747 0.69916 0.10093 0.0
H804 H 0.07669 0.7619 0.9922 0.0
H805 H 0.07285 0.79012 0.07405 0.0
C806 C 0.08365 0.77762 0.18125 0.0
C807 C 0.09031 0.76854 0.23507 0.0
C808 C 0.08353 0.76107 0.13481 0.0
C809 C 0.09547 0.74244 0.24271 0.0
C810 C 0.09533 0.7258 0.19668 0.0
C811 C 0.09194 0.71898 0.09536 0.0
C812 C 0.08765 0.72861 0.04086 0.0
C813 C 0.08999 0.73505 0.14241 0.0
C814 C 0.08002 0.75414 0.03394 0.0
C815 C 0.07799 0.77027 0.08059 0.0
H816 H 0.70942 0.91528 0.92236 0.0
H817 H 0.77624 0.91471 0.02981 0.0
H818 H 0.80393 0.9161 0.94694 0.0
H819 H 0.80901 0.91579 0.84427 0.0
H820 H 0.74218 0.91449 0.73685 0.0
H821 H 0.71449 0.91559 0.81972 0.0
C822 C 0.73005 0.91526 0.92762 0.0
C823 C 0.74081 0.91463 0.982 0.0
C824 C 0.74577 0.91573 0.87995 0.0
C825 C 0.76754 0.9153 0.9883 0.0
C826 C 0.78335 0.91596 0.94101 0.0
C827 C 0.78838 0.91554 0.83903 0.0
C828 C 0.77762 0.91479 0.78465 0.0
C829 C 0.77265 0.91587 0.8867 0.0
C830 C 0.75088 0.91517 0.77836 0.0
C831 C 0.73507 0.91567 0.82565 0.0
H832 H 0.87879 0.24077 0.20208 0.0
H833 H 0.9586 0.22097 0.18584 0.0
H834 H 0.96072 0.24433 0.09658 0.0
H835 H 0.93944 0.26978 0.02208 0.0
H836 H 0.85884 0.28649 0.03719 0.0
H837 H 0.85741 0.26432 0.12735 0.0
C838 C 0.89663 0.24122 0.17882 0.0
C839 C 0.91843 0.22893 0.20066 0.0
C840 C 0.89752 0.25398 0.127 0.0
C841 C 0.94155 0.23046 0.17051 0.0
C842 C 0.94271 0.2436 0.11912 0.0
C843 C 0.92151 0.26826 0.04478 0.0
C844 C 0.89932 0.27993 0.02303 0.0
C845 C 0.92074 0.25526 0.09671 0.0
C846 C 0.8763 0.27804 0.05335 0.0
C847 C 0.87542 0.26531 0.10487 0.0
H848 H 0.2036 0.41476 0.41828 0.0
H849 H 0.27008 0.41197 0.5267 0.0
H850 H 0.29797 0.41558 0.44454 0.0
H851 H 0.30345 0.41728 0.34188 0.0
H852 H 0.23686 0.41667 0.23347 0.0
H853 H 0.20905 0.41679 0.31591 0.0
C854 C 0.2242 0.41468 0.42405 0.0
C855 C 0.2347 0.41277 0.47866 0.0
C856 C 0.2401 0.41618 0.37663 0.0
C857 C 0.26144 0.41353 0.48527 0.0
C858 C 0.27742 0.41543 0.43826 0.0
C859 C 0.28285 0.41696 0.33614 0.0
C860 C 0.27232 0.41674 0.28135 0.0
C861 C 0.26695 0.41638 0.38372 0.0
C862 C 0.24555 0.41707 0.27499 0.0
C863 C 0.22961 0.41694 0.32214 0.0
H864 H 0.44625 0.76843 0.52748 0.0
H865 H 0.36615 0.78727 0.54255 0.0
H866 H 0.36398 0.7648 0.63229 0.0
H867 H 0.38481 0.74115 0.7074 0.0
H868 H 0.46414 0.71945 0.69175 0.0
H869 H 0.46681 0.7423 0.6019 0.0
C870 C 0.42828 0.76725 0.5501 0.0
C871 C 0.40645 0.77966 0.52868 0.0
C872 C 0.42711 0.75419 0.60185 0.0
C873 C 0.38331 0.7782 0.55862 0.0
C874 C 0.38203 0.76534 0.60988 0.0
C875 C 0.40264 0.74101 0.68409 0.0
C876 C 0.42418 0.72845 0.7063 0.0
C877 C 0.40384 0.75351 0.63207 0.0
C878 C 0.44731 0.7292 0.67608 0.0
C879 C 0.44878 0.74205 0.62439 0.0
H880 H 0.70507 0.60747 0.35213 0.0
H881 H 0.76889 0.58378 0.2501 0.0
H882 H 0.79666 0.58343 0.33367 0.0
H883 H 0.80316 0.59265 0.43475 0.0
H884 H 0.7389 0.61528 0.53678 0.0
H885 H 0.71073 0.61328 0.45419 0.0
C886 C 0.72503 0.60206 0.34848 0.0
C887 C 0.73512 0.5959 0.29537 0.0
C888 C 0.74072 0.60191 0.39646 0.0
C889 C 0.76083 0.58853 0.29082 0.0
C890 C 0.77668 0.5885 0.33841 0.0
C891 C 0.78296 0.59707 0.43866 0.0
C892 C 0.77304 0.6044 0.49124 0.0
C893 C 0.76692 0.59563 0.39122 0.0
C894 C 0.74683 0.60965 0.49647 0.0
C895 C 0.7308 0.60856 0.44937 0.0
H896 H 0.60054 0.24875 0.76504 0.0
H897 H 0.58658 0.3211 0.68354 0.0
H898 H 0.58232 0.29966 0.59241 0.0
H899 H 0.58547 0.2606 0.53484 0.0
H900 H 0.60086 0.18852 0.61609 0.0
H901 H 0.60132 0.20944 0.70829 0.0
C902 C 0.59621 0.25973 0.7274 0.0
C903 C 0.59411 0.28644 0.73087 0.0
C904 C 0.59412 0.24732 0.67505 0.0
C905 C 0.5887 0.30052 0.68174 0.0
C906 C 0.58616 0.28828 0.62967 0.0
C907 C 0.5885 0.24949 0.57291 0.0
C908 C 0.59325 0.22315 0.56886 0.0
C909 C 0.58926 0.26174 0.62565 0.0
C910 C 0.5974 0.20891 0.61831 0.0
C911 C 0.59766 0.22084 0.67096 0.0
H912 H 0.38422 0.01523 0.24195 0.0
H913 H 0.36789 0.98254 0.07881 0.0
H914 H 0.37713 0.93982 0.11505 0.0
H915 H 0.38959 0.91148 0.19393 0.0
H916 H 0.40505 0.94473 0.3572 0.0
H917 H 0.39648 0.98724 0.3202 0.0
C918 C 0.38238 0.99874 0.21453 0.0
C919 C 0.37537 1.00213 0.1578 0.0
C920 C 0.38776 0.97423 0.23561 0.0
C921 C 0.37351 0.98052 0.12256 0.0
C922 C 0.37874 0.95605 0.14327 0.0
C923 C 0.3913 0.92808 0.22113 0.0
C924 C 0.39796 0.9249 0.27818 0.0
C925 C 0.38601 0.95265 0.19973 0.0
C926 C 0.39986 0.94659 0.31312 0.0
C927 C 0.39493 0.97097 0.29207 0.0
H928 H 0.94269 0.63186 0.66648 0.0
H929 H 0.90667 0.61807 0.82728 0.0
H930 H 0.94832 0.62155 0.87442 0.0
H931 H 0.99479 0.62883 0.86959 0.0
H932 H 0.03048 0.64137 0.70783 0.0
H933 H 0.98891 0.63844 0.66153 0.0
C934 C 0.94386 0.62962 0.71189 0.0
C935 C 0.92157 0.62473 0.74333 0.0
C936 C 0.96778 0.63155 0.73853 0.0
C937 C 0.92353 0.62182 0.80209 0.0
C938 C 0.94733 0.62383 0.82903 0.0
C939 C 0.9936 0.63065 0.82416 0.0
C940 C 0.01591 0.63534 0.79239 0.0
C941 C 0.96959 0.62866 0.79762 0.0
C942 C 0.01373 0.63811 0.73358 0.0
C943 C 0.98994 0.63627 0.70695 0.0
H944 H 0.64405 0.02874 0.14168 0.0
H945 H 0.6346 0.9844 0.29396 0.0
H946 H 0.62368 0.02276 0.34592 0.0
H947 H 0.61714 0.06864 0.3492 0.0
H948 H 0.62507 0.11394 0.1982 0.0
H949 H 0.63571 0.07532 0.14437 0.0
C950 C 0.6394 0.02744 0.18608 0.0
C951 C 0.64056 1.00361 0.21381 0.0
C952 C 0.63274 0.04971 0.21594 0.0
C953 C 0.63457 1.00241 0.27157 0.0
C954 C 0.62806 0.02436 0.30139 0.0
C955 C 0.62116 0.07017 0.30447 0.0
C956 C 0.62046 0.09415 0.27781 0.0
C957 C 0.62724 0.04807 0.27413 0.0
C958 C 0.62548 0.09568 0.21971 0.0
C959 C 0.63163 0.07363 0.18901 0.0
H960 H 0.09306 0.38299 0.79321 0.0
H961 H 0.0657 0.39419 0.62302 0.0
H962 H 0.02206 0.38565 0.65293 0.0
H963 H 0.99131 0.37499 0.72704 0.0
H964 H 0.01804 0.36303 0.89716 0.0
H965 H 0.06195 0.37186 0.86784 0.0
C966 C 0.0775 0.38372 0.76288 0.0
C967 C 0.08272 0.38923 0.70601 0.0
C968 C 0.05222 0.37853 0.78025 0.0
C969 C 0.06233 0.38991 0.66708 0.0
C970 C 0.03728 0.385 0.68407 0.0
C971 C 1.00675 0.374 0.75755 0.0
C972 C 1.0013 0.36838 0.81419 0.0
C973 C 0.03198 0.37913 0.74043 0.0
C974 C 0.02161 0.3676 0.85336 0.0
C975 C 0.04678 0.37259 0.83661 0.0
H976 H 0.382 0.57437 0.91208 0.0
H977 H 0.39169 0.61371 0.07077 0.0
H978 H 0.38208 0.57398 0.12154 0.0
H979 H 0.3711 0.52809 0.12007 0.0
H980 H 0.36365 0.48927 0.95975 0.0
H981 H 0.37173 0.52905 0.91058 0.0
C982 C 0.38197 0.57439 0.95783 0.0
C983 C 0.38752 0.59702 0.9876 0.0
C984 C 0.37668 0.55158 0.98646 0.0
C985 C 0.3875 0.59656 0.04685 0.0
C986 C 0.38199 0.57385 0.07582 0.0
C987 C 0.37142 0.52817 0.07442 0.0
C988 C 0.36663 0.50539 0.04407 0.0
C989 C 0.37663 0.5512 0.04598 0.0
C990 C 0.3668 0.50628 0.98473 0.0
C991 C 0.37164 0.52909 0.95631 0.0
H992 H 0.60002 0.62143 0.9626 0.0
H993 H 0.57644 0.6442 0.12969 0.0
H994 H 0.53292 0.65039 0.09666 0.0
H995 H 0.50092 0.64777 0.02206 0.0
H996 H 0.52376 0.62635 0.85376 0.0
H997 H 0.56776 0.62096 0.88574 0.0
C998 C 0.58538 0.62792 0.99157 0.0
C999 C 0.59161 0.63217 0.04861 0.0
C1000 C 0.56005 0.63148 0.97233 0.0
C1001 C 0.57233 0.6406 0.08559 0.0
C1002 C 0.54731 0.64416 0.06681 0.0
C1003 C 0.51546 0.64226 0.992 0.0
C1004 C 0.50869 0.63732 0.9356 0.0
C1005 C 0.54087 0.63944 0.01047 0.0
C1006 C 0.52806 0.62985 0.89773 0.0
C1007 C 0.5534 0.62691 0.91589 0.0
H1008 H 0.63138 0.49344 0.13588 0.0
H1009 H 0.63374 0.5317 0.97453 0.0
H1010 H 0.62783 0.49108 0.92647 0.0
H1011 H 0.62239 0.44491 0.92945 0.0
H1012 H 0.61866 0.40582 0.08947 0.0
H1013 H 0.62427 0.44669 0.13889 0.0
C1014 C 0.63033 0.49297 0.09026 0.0
C1015 C 0.63329 0.51576 0.05905 0.0
C1016 C 0.62664 0.46941 0.0626 0.0
C1017 C 0.6321 0.51458 0.99982 0.0
C1018 C 0.62852 0.49131 0.97217 0.0
C1019 C 0.62279 0.44522 0.9752 0.0
C1020 C 0.62025 0.4223 0.00572 0.0
C1021 C 0.62594 0.46864 0.00307 0.0
C1022 C 0.6206 0.42319 0.06496 0.0
C1023 C 0.62384 0.44654 0.09318 0.0
H1024 H 0.43868 0.38808 0.0993 0.0
H1025 H 0.40132 0.39532 0.93752 0.0
H1026 H 0.44202 0.3867 0.88999 0.0
H1027 H 0.48805 0.37663 0.895 0.0
H1028 H 0.5249 0.37101 0.05799 0.0
H1029 H 0.48432 0.37895 0.10427 0.0
C1030 C 0.43933 0.3878 0.05358 0.0
C1031 C 0.41694 0.39232 0.02201 0.0
C1032 C 0.46268 0.3829 0.02674 0.0
C1033 C 0.41827 0.39196 0.96283 0.0
C1034 C 0.44153 0.38697 0.93568 0.0
C1035 C 0.48736 0.37735 0.94061 0.0
C1036 C 0.50978 0.37307 0.97263 0.0
C1037 C 0.46387 0.38239 0.96728 0.0
C1038 C 0.50814 0.37374 0.03186 0.0
C1039 C 0.48488 0.37851 0.05857 0.0
H1040 H 0.88516 0.44243 0.83522 0.0
H1041 H 0.89188 0.40647 0.67212 0.0
H1042 H 0.8839 0.44774 0.62613 0.0
H1043 H 0.87386 0.49372 0.63297 0.0
H1044 H 0.86872 0.529 0.79754 0.0
H1045 H 0.87669 0.48806 0.84199 0.0
C1046 C 0.88494 0.44351 0.78954 0.0
C1047 C 0.88903 0.42133 0.75716 0.0
C1048 C 0.88034 0.46715 0.76362 0.0
C1049 C 0.88885 0.42324 0.69805 0.0
C1050 C 0.88419 0.44682 0.67179 0.0
C1051 C 0.8747 0.49265 0.67852 0.0
C1052 C 0.87046 0.51477 0.71146 0.0
C1053 C 0.87977 0.4689 0.70423 0.0
C1054 C 0.87138 0.51255 0.77062 0.0
C1055 C 0.87617 0.48905 0.79633 0.0
H1056 H 0.5196 0.13 0.23843 0.0
H1057 H 0.48593 0.14055 0.40245 0.0
H1058 H 0.44361 0.13042 0.36423 0.0
H1059 H 0.41574 0.11897 0.28307 0.0
H1060 H 0.45024 0.10866 0.11942 0.0
H1061 H 0.49223 0.11813 0.15842 0.0
C1062 C 0.50298 0.13033 0.26564 0.0
C1063 C 0.50601 0.13606 0.32316 0.0
C1064 C 0.47867 0.12433 0.24345 0.0
C1065 C 0.48423 0.13598 0.35807 0.0
C1066 C 0.45996 0.13023 0.33621 0.0
C1067 C 0.4325 0.11856 0.25621 0.0
C1068 C 0.4297 0.11315 0.19837 0.0
C1069 C 0.4569 0.12428 0.27889 0.0
C1070 C 0.45167 0.11289 0.16406 0.0
C1071 C 0.47581 0.11835 0.18626 0.0
H1072 H 0.14534 0.52395 0.63441 0.0
H1073 H 0.13641 0.48175 0.78986 0.0
H1074 H 0.13163 0.52137 0.84167 0.0
H1075 H 0.12922 0.56766 0.8436 0.0
H1076 H 0.13575 0.61089 0.68932 0.0
H1077 H 0.14187 0.57109 0.63619 0.0
C1078 C 0.14214 0.52336 0.6795 0.0
C1079 C 0.14152 0.49966 0.70794 0.0
C1080 C 0.13891 0.5464 0.70933 0.0
C1081 C 0.13758 0.49949 0.76664 0.0
C1082 C 0.13462 0.52222 0.79647 0.0
C1083 C 0.13209 0.56851 0.79835 0.0
C1084 C 0.13216 0.59223 0.7705 0.0
C1085 C 0.13526 0.54571 0.7683 0.0
C1086 C 0.13566 0.59286 0.71177 0.0
C1087 C 0.13915 0.57012 0.68144 0.0
H1088 H 0.58067 0.86607 0.17928 0.0
H1089 H 0.60691 0.91589 0.31265 0.0
H1090 H 0.56626 0.91001 0.36232 0.0
H1091 H 0.52282 0.89193 0.36537 0.0
H1092 H 0.49787 0.8408 0.23294 0.0
H1093 H 0.53852 0.84631 0.18487 0.0
C1094 C 0.57752 0.87567 0.21923 0.0
C1095 C 0.59658 0.89154 0.24213 0.0
C1096 C 0.55434 0.8721 0.24743 0.0
C1097 C 0.59242 0.90357 0.29425 0.0
C1098 C 0.56921 0.90026 0.32253 0.0
C1099 C 0.52635 0.88172 0.32644 0.0
C1100 C 0.5071 0.86622 0.30258 0.0
C1101 C 0.54997 0.8847 0.29925 0.0
C1102 C 0.51203 0.85332 0.25171 0.0
C1103 C 0.53537 0.8563 0.22431 0.0
H1104 H 0.88607 0.10139 0.54666 0.0
H1105 H 0.8854 0.07121 0.37702 0.0
H1106 H 0.87795 0.02846 0.41283 0.0
H1107 H 0.87232 0.99916 0.49146 0.0
H1108 H 0.87136 0.02835 0.66169 0.0
H1109 H 0.87895 0.07154 0.62657 0.0
C1110 C 0.88429 0.08544 0.51768 0.0
C1111 C 0.88632 0.08966 0.45922 0.0
C1112 C 0.87977 0.06055 0.53856 0.0
C1113 C 0.88386 0.06871 0.42223 0.0
C1114 C 0.8796 0.04411 0.44261 0.0
C1115 C 0.8734 0.0149 0.52105 0.0
C1116 C 0.87132 0.01023 0.57925 0.0
C1117 C 0.87753 0.03977 0.50061 0.0
C1118 C 0.87324 0.03111 0.61668 0.0
C1119 C 0.87747 0.05595 0.59661 0.0
H1120 H 0.08008 0.12958 0.55638 0.0
H1121 H 0.11276 0.11529 0.39245 0.0
H1122 H 0.07024 0.12009 0.34916 0.0
H1123 H 0.02386 0.12879 0.35856 0.0
H1124 H 0.99215 0.14168 0.5243 0.0
H1125 H 0.03445 0.13737 0.56592 0.0
C1126 C 0.07808 0.12751 0.51106 0.0
C1127 C 0.09972 0.12213 0.47771 0.0
C1128 C 0.05372 0.1302 0.48676 0.0
C1129 C 0.0965 0.11942 0.41915 0.0
C1130 C 0.07218 0.1222 0.39444 0.0
C1131 C 0.02605 0.13044 0.40382 0.0
C1132 C 1.00451 0.1357 0.43797 0.0
C1133 C 0.05062 0.1276 0.42791 0.0
C1134 C 0.00814 0.13809 0.49656 0.0
C1135 C 0.0324 0.13544 0.52061 0.0
H1136 H 0.13508 0.93719 0.39519 0.0
H1137 H 0.12461 0.90399 0.5602 0.0
H1138 H 0.1342 0.94538 0.60392 0.0
H1139 H 0.14526 0.99093 0.59472 0.0
H1140 H 0.15383 0.02387 0.42868 0.0
H1141 H 0.14583 0.98236 0.38608 0.0
C1142 C 0.13491 0.9389 0.44078 0.0
C1143 C 0.12911 0.91751 0.47439 0.0
C1144 C 0.14028 0.96267 0.46545 0.0
C1145 C 0.12896 0.92017 0.53336 0.0
C1146 C 0.13447 0.94382 0.55834 0.0
C1147 C 0.14519 0.98917 0.54922 0.0
C1148 C 0.15017 0.01075 0.51522 0.0
C1149 C 0.14006 0.96523 0.52472 0.0
C1150 C 0.15046 0.00776 0.45624 0.0
C1151 C 0.14566 0.98398 0.43166 0.0
H1152 H 0.9899 0.87693 0.39248 0.0
H1153 H 0.03095 0.8717 0.55056 0.0
H1154 H 0.99206 0.88184 0.60173 0.0
H1155 H 0.9466 0.8923 0.602 0.0
H1156 H 0.90552 0.89916 0.44448 0.0
H1157 H 0.94458 0.88897 0.39252 0.0
C1158 C 0.9905 0.87828 0.43804 0.0
C1159 C 0.01345 0.87339 0.46737 0.0
C1160 C 0.96812 0.88461 0.46733 0.0
C1161 C 0.01359 0.87485 0.52664 0.0
C1162 C 0.99137 0.88089 0.55607 0.0
C1163 C 0.94616 0.89164 0.55627 0.0
C1164 C 0.92323 0.8964 0.5271 0.0
C1165 C 0.96857 0.88578 0.52685 0.0
C1166 C 0.923 0.89563 0.46787 0.0
C1167 C 0.94528 0.88971 0.43819 0.0
loop_
_geom_bond_atom_site_label_1
_geom_bond_atom_site_label_2
_geom_bond_distance
_geom_bond_site_symmetry_2
_ccdc_geom_bond_type
C0 C1 1.351 . S
C0 N3 1.368 . S
C0 H5 0.931 . S
C1 C0 1.351 . S
C1 N2 1.373 . S
C1 H29 0.930 . S
N2 C1 1.373 . S
N2 C4 1.340 . S
N3 C0 1.368 . S
N3 C4 1.321 . S
N3 Co6 2.135 . S
C4 N2 1.340 . S
C4 N3 1.321 . S
C4 H28 0.930 . S
H5 C0 0.931 . S
Co6 N3 2.135 . S
Co6 N9 2.121 . S
Co6 O14 2.055 . S
Co6 O17 2.039 . S
Co6 N20 2.140 . S
C7 O8 1.227 . S
C7 O17 1.265 . S
O8 C7 1.227 . S
N9 Co6 2.121 . S
N9 C11 1.375 . S
N9 C12 1.313 . S
C10 C11 1.338 . S
C10 N13 1.377 . S
C10 H30 0.930 . S
C11 N9 1.375 . S
C11 C10 1.338 . S
C11 H15 0.931 . S
C12 N9 1.313 . S
C12 N13 1.344 . S
C12 H16 0.930 . S
N13 C10 1.377 . S
N13 C12 1.344 . S
O14 Co6 2.055 . S
O14 C18 1.253 . S
H15 C11 0.931 . S
H16 C12 0.930 . S
O17 Co6 2.039 . S
O17 C7 1.265 . S
C18 O14 1.253 . S
C18 O19 1.227 . S
O19 C18 1.227 . S
N20 Co6 2.140 . S
N20 C23 1.346 . S
N20 C24 1.345 . S
C21 C22 1.387 . S
C21 C25 1.391 . S
C22 C21 1.387 . S
C22 C23 1.369 . S
C22 H31 0.929 . S
C23 N20 1.346 . S
C23 C22 1.369 . S
C23 H26 0.928 . S
C24 N20 1.345 . S
C24 C25 1.371 . S
C24 H27 0.931 . S
C25 C21 1.391 . S
C25 C24 1.371 . S
C25 H32 0.930 1_554 S
H26 C23 0.928 . S
H27 C24 0.931 . S
H28 C4 0.930 . S
H29 C1 0.930 . S
H30 C10 0.930 . S
H31 C22 0.929 . S
H32 C25 0.930 1_556 S
C33 C34 1.351 . S
C33 N36 1.368 . S
C33 H38 0.931 . S
C34 C33 1.351 . S
C34 N35 1.373 . S
C34 H62 0.930 . S
N35 C34 1.373 . S
N35 C37 1.340 . S
N36 C33 1.368 . S
N36 C37 1.321 . S
N36 Co39 2.135 . S
C37 N35 1.340 . S
C37 N36 1.321 . S
C37 H61 0.930 . S
H38 C33 0.931 . S
Co39 N36 2.135 . S
Co39 N42 2.121 . S
Co39 O47 2.055 . S
Co39 O50 2.039 . S
Co39 N53 2.140 . S
C40 O41 1.227 . S
C40 O50 1.265 . S
O41 C40 1.227 . S
N42 Co39 2.121 . S
N42 C44 1.375 . S
N42 C45 1.313 . S
C43 C44 1.338 . S
C43 N46 1.377 . S
C43 H63 0.930 . S
C44 N42 1.375 . S
C44 C43 1.338 . S
C44 H48 0.931 . S
C45 N42 1.313 . S
C45 N46 1.344 . S
C45 H49 0.930 . S
N46 C43 1.377 . S
N46 C45 1.344 . S
O47 Co39 2.055 . S
O47 C51 1.253 . S
H48 C44 0.931 . S
H49 C45 0.930 . S
O50 Co39 2.039 . S
O50 C40 1.265 . S
C51 O47 1.253 . S
C51 O52 1.227 . S
O52 C51 1.227 . S
N53 Co39 2.140 . S
N53 C56 1.346 . S
N53 C57 1.345 . S
C54 C55 1.387 . S
C54 C58 1.391 . S
C55 C54 1.387 . S
C55 C56 1.369 . S
C55 H64 0.929 . S
C56 N53 1.346 . S
C56 C55 1.369 . S
C56 H59 0.928 . S
C57 N53 1.345 . S
C57 C58 1.371 . S
C57 H60 0.931 . S
C58 C54 1.391 . S
C58 C57 1.371 . S
C58 H65 0.930 1_556 S
H59 C56 0.928 . S
H60 C57 0.931 . S
H61 C37 0.930 . S
H62 C34 0.930 . S
H63 C43 0.930 . S
H64 C55 0.929 . S
H65 C58 0.930 1_554 S
C66 C67 1.351 . S
C66 N69 1.368 . S
C66 H71 0.931 . S
C67 C66 1.351 . S
C67 N68 1.373 . S
C67 H95 0.930 . S
N68 C67 1.373 . S
N68 C70 1.340 . S
N69 C66 1.368 . S
N69 C70 1.321 . S
N69 Co72 2.135 . S
C70 N68 1.340 . S
C70 N69 1.321 . S
C70 H94 0.930 . S
H71 C66 0.931 . S
Co72 N69 2.135 . S
Co72 N75 2.121 . S
Co72 O80 2.055 . S
Co72 O83 2.039 . S
Co72 N86 2.140 . S
C73 O74 1.227 . S
C73 O83 1.265 . S
O74 C73 1.227 . S
N75 Co72 2.121 . S
N75 C77 1.375 . S
N75 C78 1.313 . S
C76 C77 1.338 . S
C76 N79 1.377 . S
C76 H96 0.930 . S
C77 N75 1.375 . S
C77 C76 1.338 . S
C77 H81 0.931 . S
C78 N75 1.313 . S
C78 N79 1.344 . S
C78 H82 0.930 . S
N79 C76 1.377 . S
N79 C78 1.344 . S
O80 Co72 2.055 . S
O80 C84 1.253 . S
H81 C77 0.931 . S
H82 C78 0.930 . S
O83 Co72 2.039 . S
O83 C73 1.265 . S
C84 O80 1.253 . S
C84 O85 1.227 . S
O85 C84 1.227 . S
N86 Co72 2.140 . S
N86 C89 1.346 . S
N86 C90 1.345 . S
C87 C88 1.387 . S
C87 C91 1.391 . S
C88 C87 1.387 . S
C88 C89 1.369 . S
C88 H97 0.929 . S
C89 N86 1.346 . S
C89 C88 1.369 . S
C89 H92 0.928 . S
C90 N86 1.345 . S
C90 C91 1.371 . S
C90 H93 0.931 . S
C91 C87 1.391 . S
C91 C90 1.371 . S
C91 H98 0.930 1_554 S
H92 C89 0.928 . S
H93 C90 0.931 . S
H94 C70 0.930 . S
H95 C67 0.930 . S
H96 C76 0.930 . S
H97 C88 0.929 . S
H98 C91 0.930 1_556 S
C99 C100 1.351 . S
C99 N102 1.368 . S
C99 H104 0.931 . S
C100 C99 1.351 . S
C100 N101 1.373 . S
C100 H128 0.930 . S
N101 C100 1.373 . S
N101 C103 1.340 . S
N102 C99 1.368 . S
N102 C103 1.321 . S
N102 Co105 2.135 . S
C103 N101 1.340 . S
C103 N102 1.321 . S
C103 H127 0.930 . S
H104 C99 0.931 . S
Co105 N102 2.135 . S
Co105 N108 2.121 . S
Co105 O113 2.055 . S
Co105 O116 2.039 . S
Co105 N119 2.140 . S
C106 O107 1.227 . S
C106 O116 1.265 . S
O107 C106 1.227 . S
N108 Co105 2.121 . S
N108 C110 1.375 . S
N108 C111 1.313 . S
C109 C110 1.338 . S
C109 N112 1.377 . S
C109 H129 0.930 . S
C110 N108 1.375 . S
C110 C109 1.338 . S
C110 H114 0.931 . S
C111 N108 1.313 . S
C111 N112 1.344 . S
C111 H115 0.930 . S
N112 C109 1.377 . S
N112 C111 1.344 . S
O113 Co105 2.055 . S
O113 C117 1.253 . S
H114 C110 0.931 . S
H115 C111 0.930 . S
O116 Co105 2.039 . S
O116 C106 1.265 . S
C117 O113 1.253 . S
C117 O118 1.227 . S
O118 C117 1.227 . S
N119 Co105 2.140 . S
N119 C122 1.346 . S
N119 C123 1.345 . S
C120 C121 1.387 . S
C120 C124 1.391 . S
C121 C120 1.387 . S
C121 C122 1.369 . S
C121 H130 0.929 . S
C122 N119 1.346 . S
C122 C121 1.369 . S
C122 H125 0.928 . S
C123 N119 1.345 . S
C123 C124 1.371 . S
C123 H126 0.931 . S
C124 C120 1.391 . S
C124 C123 1.371 . S
C124 H131 0.930 1_556 S
H125 C122 0.928 . S
H126 C123 0.931 . S
H127 C103 0.930 . S
H128 C100 0.930 . S
H129 C109 0.930 . S
H130 C121 0.929 . S
H131 C124 0.930 1_554 S
C132 C133 1.351 . S
C132 N135 1.368 . S
C132 H137 0.931 . S
C133 C132 1.351 . S
C133 N134 1.373 . S
C133 H161 0.930 . S
N134 C133 1.373 . S
N134 C136 1.340 . S
N135 C132 1.368 . S
N135 C136 1.321 . S
N135 Co138 2.135 . S
C136 N134 1.340 . S
C136 N135 1.321 . S
C136 H160 0.930 . S
H137 C132 0.931 . S
Co138 N135 2.135 . S
Co138 N141 2.121 . S
Co138 O146 2.055 . S
Co138 O149 2.039 1_554 S
Co138 N152 2.140 . S
C139 O140 1.227 1_556 S
C139 O149 1.265 . S
O140 C139 1.227 1_554 S
N141 Co138 2.121 . S
N141 C143 1.375 . S
N141 C144 1.313 . S
C142 C143 1.338 . S
C142 N145 1.377 . S
C142 H162 0.930 . S
C143 N141 1.375 . S
C143 C142 1.338 . S
C143 H147 0.931 . S
C144 N141 1.313 . S
C144 N145 1.344 . S
C144 H148 0.930 . S
N145 C142 1.377 . S
N145 C144 1.344 . S
O146 Co138 2.055 . S
O146 C150 1.253 . S
H147 C143 0.931 . S
H148 C144 0.930 . S
O149 Co138 2.039 1_556 S
O149 C139 1.265 . S
C150 O146 1.253 . S
C150 O151 1.227 . S
O151 C150 1.227 . S
N152 Co138 2.140 . S
N152 C155 1.346 . S
N152 C156 1.345 . S
C153 C154 1.387 . S
C153 C157 1.391 . S
C154 C153 1.387 . S
C154 C155 1.369 . S
C154 H163 0.929 . S
C155 N152 1.346 . S
C155 C154 1.369 . S
C155 H158 0.928 . S
C156 N152 1.345 . S
C156 C157 1.371 . S
C156 H159 0.931 . S
C157 C153 1.391 . S
C157 C156 1.371 . S
C157 H164 0.930 . S
H158 C155 0.928 . S
H159 C156 0.931 . S
H160 C136 0.930 . S
H161 C133 0.930 . S
H162 C142 0.930 . S
H163 C154 0.929 . S
H164 C157 0.930 . S
C165 C166 1.351 . S
C165 N168 1.368 . S
C165 H170 0.931 . S
C166 C165 1.351 . S
C166 N167 1.373 . S
C166 H194 0.930 . S
N167 C166 1.373 . S
N167 C169 1.340 . S
N168 C165 1.368 . S
N168 C169 1.321 . S
N168 Co171 2.135 . S
C169 N167 1.340 . S
C169 N168 1.321 . S
C169 H193 0.930 . S
H170 C165 0.931 . S
Co171 N168 2.135 . S
Co171 N174 2.121 . S
Co171 O179 2.055 . S
Co171 O182 2.039 1_556 S
Co171 N185 2.140 . S
C172 O173 1.227 1_554 S
C172 O182 1.265 . S
O173 C172 1.227 1_556 S
N174 Co171 2.121 . S
N174 C176 1.375 . S
N174 C177 1.313 . S
C175 C176 1.338 . S
C175 N178 1.377 . S
C175 H195 0.930 . S
C176 N174 1.375 . S
C176 C175 1.338 . S
C176 H180 0.931 . S
C177 N174 1.313 . S
C177 N178 1.344 . S
C177 H181 0.930 . S
N178 C175 1.377 . S
N178 C177 1.344 . S
O179 Co171 2.055 . S
O179 C183 1.253 . S
H180 C176 0.931 . S
H181 C177 0.930 . S
O182 Co171 2.039 1_554 S
O182 C172 1.265 . S
C183 O179 1.253 . S
C183 O184 1.227 . S
O184 C183 1.227 . S
N185 Co171 2.140 . S
N185 C188 1.346 . S
N185 C189 1.345 . S
C186 C187 1.387 . S
C186 C190 1.391 . S
C187 C186 1.387 . S
C187 C188 1.369 . S
C187 H196 0.929 . S
C188 N185 1.346 . S
C188 C187 1.369 . S
C188 H191 0.928 . S
C189 N185 1.345 . S
C189 C190 1.371 . S
C189 H192 0.931 . S
C190 C186 1.391 . S
C190 C189 1.371 . S
C190 H197 0.930 . S
H191 C188 0.928 . S
H192 C189 0.931 . S
H193 C169 0.930 . S
H194 C166 0.930 . S
H195 C175 0.930 . S
H196 C187 0.929 . S
H197 C190 0.930 . S
C198 C199 1.351 . S
C198 N201 1.368 . S
C198 H203 0.931 . S
C199 C198 1.351 . S
C199 N200 1.373 . S
C199 H227 0.930 . S
N200 C199 1.373 . S
N200 C202 1.340 . S
N201 C198 1.368 . S
N201 C202 1.321 . S
N201 Co204 2.135 . S
C202 N200 1.340 . S
C202 N201 1.321 . S
C202 H226 0.930 . S
H203 C198 0.931 . S
Co204 N201 2.135 . S
Co204 N207 2.121 . S
Co204 O212 2.055 . S
Co204 O215 2.039 1_554 S
Co204 N218 2.140 . S
C205 O206 1.227 1_556 S
C205 O215 1.265 . S
O206 C205 1.227 1_554 S
N207 Co204 2.121 . S
N207 C209 1.375 . S
N207 C210 1.313 . S
C208 C209 1.338 . S
C208 N211 1.377 . S
C208 H228 0.930 . S
C209 N207 1.375 . S
C209 C208 1.338 . S
C209 H213 0.931 . S
C210 N207 1.313 . S
C210 N211 1.344 . S
C210 H214 0.930 . S
N211 C208 1.377 . S
N211 C210 1.344 . S
O212 Co204 2.055 . S
O212 C216 1.253 . S
H213 C209 0.931 . S
H214 C210 0.930 . S
O215 Co204 2.039 1_556 S
O215 C205 1.265 . S
C216 O212 1.253 . S
C216 O217 1.227 . S
O217 C216 1.227 . S
N218 Co204 2.140 . S
N218 C221 1.346 . S
N218 C222 1.345 . S
C219 C220 1.387 . S
C219 C223 1.391 . S
C220 C219 1.387 . S
C220 C221 1.369 . S
C220 H229 0.929 . S
C221 N218 1.346 . S
C221 C220 1.369 . S
C221 H224 0.928 . S
C222 N218 1.345 . S
C222 C223 1.371 . S
C222 H225 0.931 . S
C223 C219 1.391 . S
C223 C222 1.371 . S
C223 H230 0.930 . S
H224 C221 0.928 . S
H225 C222 0.931 . S
H226 C202 0.930 . S
H227 C199 0.930 . S
H228 C208 0.930 . S
H229 C220 0.929 . S
H230 C223 0.930 . S
C231 C232 1.351 . S
C231 N234 1.368 . S
C231 H236 0.931 . S
C232 C231 1.351 . S
C232 N233 1.373 . S
C232 H260 0.930 . S
N233 C232 1.373 . S
N233 C235 1.340 . S
N234 C231 1.368 . S
N234 C235 1.321 . S
N234 Co237 2.135 . S
C235 N233 1.340 . S
C235 N234 1.321 . S
C235 H259 0.930 . S
H236 C231 0.931 . S
Co237 N234 2.135 . S
Co237 N240 2.121 . S
Co237 O245 2.055 . S
Co237 O248 2.039 1_556 S
Co237 N251 2.140 . S
C238 O239 1.227 1_554 S
C238 O248 1.265 . S
O239 C238 1.227 1_556 S
N240 Co237 2.121 . S
N240 C242 1.375 . S
N240 C243 1.313 . S
C241 C242 1.338 . S
C241 N244 1.377 . S
C241 H261 0.930 . S
C242 N240 1.375 . S
C242 C241 1.338 . S
C242 H246 0.931 . S
C243 N240 1.313 . S
C243 N244 1.344 . S
C243 H247 0.930 . S
N244 C241 1.377 . S
N244 C243 1.344 . S
O245 Co237 2.055 . S
O245 C249 1.253 . S
H246 C242 0.931 . S
H247 C243 0.930 . S
O248 Co237 2.039 1_554 S
O248 C238 1.265 . S
C249 O245 1.253 . S
C249 O250 1.227 . S
O250 C249 1.227 . S
N251 Co237 2.140 . S
N251 C254 1.346 . S
N251 C255 1.345 . S
C252 C253 1.387 . S
C252 C256 1.391 . S
C253 C252 1.387 . S
C253 C254 1.369 . S
C253 H262 0.929 . S
C254 N251 1.346 . S
C254 C253 1.369 . S
C254 H257 0.928 . S
C255 N251 1.345 . S
C255 C256 1.371 . S
C255 H258 0.931 . S
C256 C252 1.391 . S
C256 C255 1.371 . S
C256 H263 0.930 . S
H257 C254 0.928 . S
H258 C255 0.931 . S
H259 C235 0.930 . S
H260 C232 0.930 . S
H261 C241 0.930 . S
H262 C253 0.929 . S
H263 C256 0.930 . S
C264 C265 1.351 . S
C264 N267 1.368 . S
C264 H269 0.931 . S
C265 C264 1.351 . S
C265 N266 1.373 . S
C265 H293 0.930 . S
N266 C265 1.373 . S
N266 C268 1.340 . S
N267 C264 1.368 . S
N267 C268 1.321 . S
N267 Co270 2.135 . S
C268 N266 1.340 . S
C268 N267 1.321 . S
C268 H292 0.930 . S
H269 C264 0.931 . S
Co270 N267 2.135 . S
Co270 N273 2.121 . S
Co270 O278 2.055 . S
Co270 O281 2.039 . S
Co270 N284 2.140 . S
C271 O272 1.227 . S
C271 O281 1.265 . S
O272 C271 1.227 . S
N273 Co270 2.121 . S
N273 C275 1.375 . S
N273 C276 1.313 . S
C274 C275 1.338 . S
C274 N277 1.377 . S
C274 H294 0.930 . S
C275 N273 1.375 . S
C275 C274 1.338 . S
C275 H279 0.931 . S
C276 N273 1.313 . S
C276 N277 1.344 . S
C276 H280 0.930 . S
N277 C274 1.377 . S
N277 C276 1.344 . S
O278 Co270 2.055 . S
O278 C282 1.253 . S
H279 C275 0.931 . S
H280 C276 0.930 . S
O281 Co270 2.039 . S
O281 C271 1.265 . S
C282 O278 1.253 . S
C282 O283 1.227 . S
O283 C282 1.227 . S
N284 Co270 2.140 . S
N284 C287 1.346 . S
N284 C288 1.345 . S
C285 C286 1.387 . S
C285 C289 1.391 . S
C286 C285 1.387 . S
C286 C287 1.369 . S
C286 H295 0.929 . S
C287 N284 1.346 . S
C287 C286 1.369 . S
C287 H290 0.928 . S
C288 N284 1.345 . S
C288 C289 1.371 . S
C288 H291 0.931 . S
C289 C285 1.391 . S
C289 C288 1.371 . S
C289 H296 0.930 . S
H290 C287 0.928 . S
H291 C288 0.931 . S
H292 C268 0.930 . S
H293 C265 0.930 . S
H294 C274 0.930 . S
H295 C286 0.929 . S
H296 C289 0.930 . S
C297 C298 1.351 . S
C297 N300 1.368 . S
C297 H302 0.931 . S
C298 C297 1.351 . S
C298 N299 1.373 . S
C298 H326 0.930 . S
N299 C298 1.373 . S
N299 C301 1.340 . S
N300 C297 1.368 . S
N300 C301 1.321 . S
N300 Co303 2.135 . S
C301 N299 1.340 . S
C301 N300 1.321 . S
C301 H325 0.930 . S
H302 C297 0.931 . S
Co303 N300 2.135 . S
Co303 N306 2.121 . S
Co303 O311 2.055 . S
Co303 O314 2.039 . S
Co303 N317 2.140 . S
C304 O305 1.227 . S
C304 O314 1.265 . S
O305 C304 1.227 . S
N306 Co303 2.121 . S
N306 C308 1.375 . S
N306 C309 1.313 . S
C307 C308 1.338 . S
C307 N310 1.377 . S
C307 H327 0.930 . S
C308 N306 1.375 . S
C308 C307 1.338 . S
C308 H312 0.931 . S
C309 N306 1.313 . S
C309 N310 1.344 . S
C309 H313 0.930 . S
N310 C307 1.377 . S
N310 C309 1.344 . S
O311 Co303 2.055 . S
O311 C315 1.253 . S
H312 C308 0.931 . S
H313 C309 0.930 . S
O314 Co303 2.039 . S
O314 C304 1.265 . S
C315 O311 1.253 . S
C315 O316 1.227 . S
O316 C315 1.227 . S
N317 Co303 2.140 . S
N317 C320 1.346 . S
N317 C321 1.345 . S
C318 C319 1.387 . S
C318 C322 1.391 . S
C319 C318 1.387 . S
C319 C320 1.369 . S
C319 H328 0.929 . S
C320 N317 1.346 . S
C320 C319 1.369 . S
C320 H323 0.928 . S
C321 N317 1.345 . S
C321 C322 1.371 . S
C321 H324 0.931 . S
C322 C318 1.391 . S
C322 C321 1.371 . S
C322 H329 0.930 . S
H323 C320 0.928 . S
H324 C321 0.931 . S
H325 C301 0.930 . S
H326 C298 0.930 . S
H327 C307 0.930 . S
H328 C319 0.929 . S
H329 C322 0.930 . S
C330 C331 1.351 . S
C330 N333 1.368 . S
C330 H335 0.931 . S
C331 C330 1.351 . S
C331 N332 1.373 . S
C331 H359 0.930 . S
N332 C331 1.373 . S
N332 C334 1.340 . S
N333 C330 1.368 . S
N333 C334 1.321 . S
N333 Co336 2.135 . S
C334 N332 1.340 . S
C334 N333 1.321 . S
C334 H358 0.930 . S
H335 C330 0.931 . S
Co336 N333 2.135 . S
Co336 N339 2.121 . S
Co336 O344 2.055 . S
Co336 O347 2.039 . S
Co336 N350 2.140 . S
C337 O338 1.227 . S
C337 O347 1.265 . S
O338 C337 1.227 . S
N339 Co336 2.121 . S
N339 C341 1.375 . S
N339 C342 1.313 . S
C340 C341 1.338 . S
C340 N343 1.377 . S
C340 H360 0.930 . S
C341 N339 1.375 . S
C341 C340 1.338 . S
C341 H345 0.931 . S
C342 N339 1.313 . S
C342 N343 1.344 . S
C342 H346 0.930 . S
N343 C340 1.377 . S
N343 C342 1.344 . S
O344 Co336 2.055 . S
O344 C348 1.253 . S
H345 C341 0.931 . S
H346 C342 0.930 . S
O347 Co336 2.039 . S
O347 C337 1.265 . S
C348 O344 1.253 . S
C348 O349 1.227 . S
O349 C348 1.227 . S
N350 Co336 2.140 . S
N350 C353 1.346 . S
N350 C354 1.345 . S
C351 C352 1.387 . S
C351 C355 1.391 . S
C352 C351 1.387 . S
C352 C353 1.369 . S
C352 H361 0.929 . S
C353 N350 1.346 . S
C353 C352 1.369 . S
C353 H356 0.928 . S
C354 N350 1.345 . S
C354 C355 1.371 . S
C354 H357 0.931 . S
C355 C351 1.391 . S
C355 C354 1.371 . S
C355 H362 0.930 . S
H356 C353 0.928 . S
H357 C354 0.931 . S
H358 C334 0.930 . S
H359 C331 0.930 . S
H360 C340 0.930 . S
H361 C352 0.929 . S
H362 C355 0.930 . S
C363 C364 1.351 . S
C363 N366 1.368 . S
C363 H368 0.931 . S
C364 C363 1.351 . S
C364 N365 1.373 . S
C364 H392 0.930 . S
N365 C364 1.373 . S
N365 C367 1.340 . S
N366 C363 1.368 . S
N366 C367 1.321 . S
N366 Co369 2.135 . S
C367 N365 1.340 . S
C367 N366 1.321 . S
C367 H391 0.930 . S
H368 C363 0.931 . S
Co369 N366 2.135 . S
Co369 N372 2.121 . S
Co369 O377 2.055 . S
Co369 O380 2.039 . S
Co369 N383 2.140 . S
C370 O371 1.227 . S
C370 O380 1.265 . S
O371 C370 1.227 . S
N372 Co369 2.121 . S
N372 C374 1.375 . S
N372 C375 1.313 . S
C373 C374 1.338 . S
C373 N376 1.377 . S
C373 H393 0.930 . S
C374 N372 1.375 . S
C374 C373 1.338 . S
C374 H378 0.931 . S
C375 N372 1.313 . S
C375 N376 1.344 . S
C375 H379 0.930 . S
N376 C373 1.377 . S
N376 C375 1.344 . S
O377 Co369 2.055 . S
O377 C381 1.253 . S
H378 C374 0.931 . S
H379 C375 0.930 . S
O380 Co369 2.039 . S
O380 C370 1.265 . S
C381 O377 1.253 . S
C381 O382 1.227 . S
O382 C381 1.227 . S
N383 Co369 2.140 . S
N383 C386 1.346 . S
N383 C387 1.345 . S
C384 C385 1.387 . S
C384 C388 1.391 . S
C385 C384 1.387 . S
C385 C386 1.369 . S
C385 H394 0.929 . S
C386 N383 1.346 . S
C386 C385 1.369 . S
C386 H389 0.928 . S
C387 N383 1.345 . S
C387 C388 1.371 . S
C387 H390 0.931 . S
C388 C384 1.391 . S
C388 C387 1.371 . S
C388 H395 0.930 . S
H389 C386 0.928 . S
H390 C387 0.931 . S
H391 C367 0.930 . S
H392 C364 0.930 . S
H393 C373 0.930 . S
H394 C385 0.929 . S
H395 C388 0.930 . S
C396 C397 1.351 . S
C396 N399 1.368 . S
C396 H401 0.931 . S
C397 C396 1.351 . S
C397 N398 1.373 . S
C397 H425 0.930 . S
N398 C397 1.373 . S
N398 C400 1.340 . S
N399 C396 1.368 . S
N399 C400 1.321 . S
N399 Co402 2.135 . S
C400 N398 1.340 . S
C400 N399 1.321 . S
C400 H424 0.930 . S
H401 C396 0.931 . S
Co402 N399 2.135 . S
Co402 N405 2.121 . S
Co402 O410 2.055 . S
Co402 O413 2.039 . S
Co402 N416 2.140 . S
C403 O404 1.227 . S
C403 O413 1.265 . S
O404 C403 1.227 . S
N405 Co402 2.121 . S
N405 C407 1.375 . S
N405 C408 1.313 . S
C406 C407 1.338 . S
C406 N409 1.377 . S
C406 H426 0.930 . S
C407 N405 1.375 . S
C407 C406 1.338 . S
C407 H411 0.931 . S
C408 N405 1.313 . S
C408 N409 1.344 . S
C408 H412 0.930 . S
N409 C406 1.377 . S
N409 C408 1.344 . S
O410 Co402 2.055 . S
O410 C414 1.253 . S
H411 C407 0.931 . S
H412 C408 0.930 . S
O413 Co402 2.039 . S
O413 C403 1.265 . S
C414 O410 1.253 . S
C414 O415 1.227 . S
O415 C414 1.227 . S
N416 Co402 2.140 . S
N416 C419 1.346 . S
N416 C420 1.345 . S
C417 C418 1.387 . S
C417 C421 1.391 . S
C418 C417 1.387 . S
C418 C419 1.369 . S
C418 H427 0.929 . S
C419 N416 1.346 . S
C419 C418 1.369 . S
C419 H422 0.928 . S
C420 N416 1.345 . S
C420 C421 1.371 . S
C420 H423 0.931 . S
C421 C417 1.391 . S
C421 C420 1.371 . S
C421 H428 0.930 . S
H422 C419 0.928 . S
H423 C420 0.931 . S
H424 C400 0.930 . S
H425 C397 0.930 . S
H426 C406 0.930 . S
H427 C418 0.929 . S
H428 C421 0.930 . S
C429 C430 1.351 . S
C429 N432 1.368 . S
C429 H434 0.931 . S
C430 C429 1.351 . S
C430 N431 1.373 . S
C430 H458 0.930 . S
N431 C430 1.373 . S
N431 C433 1.340 . S
N432 C429 1.368 . S
N432 C433 1.321 . S
N432 Co435 2.135 . S
C433 N431 1.340 . S
C433 N432 1.321 . S
C433 H457 0.930 . S
H434 C429 0.931 . S
Co435 N432 2.135 . S
Co435 N438 2.121 . S
Co435 O443 2.055 . S
Co435 O446 2.039 . S
Co435 N449 2.140 . S
C436 O437 1.227 . S
C436 O446 1.265 . S
O437 C436 1.227 . S
N438 Co435 2.121 . S
N438 C440 1.375 . S
N438 C441 1.313 . S
C439 C440 1.338 . S
C439 N442 1.377 . S
C439 H459 0.930 . S
C440 N438 1.375 . S
C440 C439 1.338 . S
C440 H444 0.931 . S
C441 N438 1.313 . S
C441 N442 1.344 . S
C441 H445 0.930 . S
N442 C439 1.377 . S
N442 C441 1.344 . S
O443 Co435 2.055 . S
O443 C447 1.253 . S
H444 C440 0.931 . S
H445 C441 0.930 . S
O446 Co435 2.039 . S
O446 C436 1.265 . S
C447 O443 1.253 . S
C447 O448 1.227 . S
O448 C447 1.227 . S
N449 Co435 2.140 . S
N449 C452 1.346 . S
N449 C453 1.345 . S
C450 C451 1.387 . S
C450 C454 1.391 . S
C451 C450 1.387 . S
C451 C452 1.369 . S
C451 H460 0.929 . S
C452 N449 1.346 . S
C452 C451 1.369 . S
C452 H455 0.928 . S
C453 N449 1.345 . S
C453 C454 1.371 . S
C453 H456 0.931 . S
C454 C450 1.391 . S
C454 C453 1.371 . S
C454 H461 0.930 . S
H455 C452 0.928 . S
H456 C453 0.931 . S
H457 C433 0.930 . S
H458 C430 0.930 . S
H459 C439 0.930 . S
H460 C451 0.929 . S
H461 C454 0.930 . S
C462 C463 1.351 . S
C462 N465 1.368 . S
C462 H467 0.931 . S
C463 C462 1.351 . S
C463 N464 1.373 . S
C463 H491 0.930 . S
N464 C463 1.373 . S
N464 C466 1.340 . S
N465 C462 1.368 . S
N465 C466 1.321 . S
N465 Co468 2.135 . S
C466 N464 1.340 . S
C466 N465 1.321 . S
C466 H490 0.930 . S
H467 C462 0.931 . S
Co468 N465 2.135 . S
Co468 N471 2.121 . S
Co468 O476 2.055 . S
Co468 O479 2.039 . S
Co468 N482 2.140 . S
C469 O470 1.227 . S
C469 O479 1.265 . S
O470 C469 1.227 . S
N471 Co468 2.121 . S
N471 C473 1.375 . S
N471 C474 1.313 . S
C472 C473 1.338 . S
C472 N475 1.377 . S
C472 H492 0.930 . S
C473 N471 1.375 . S
C473 C472 1.338 . S
C473 H477 0.931 . S
C474 N471 1.313 . S
C474 N475 1.344 . S
C474 H478 0.930 . S
N475 C472 1.377 . S
N475 C474 1.344 . S
O476 Co468 2.055 . S
O476 C480 1.253 . S
H477 C473 0.931 . S
H478 C474 0.930 . S
O479 Co468 2.039 . S
O479 C469 1.265 . S
C480 O476 1.253 . S
C480 O481 1.227 . S
O481 C480 1.227 . S
N482 Co468 2.140 . S
N482 C485 1.346 . S
N482 C486 1.345 . S
C483 C484 1.387 . S
C483 C487 1.391 . S
C484 C483 1.387 . S
C484 C485 1.369 . S
C484 H493 0.929 . S
C485 N482 1.346 . S
C485 C484 1.369 . S
C485 H488 0.928 . S
C486 N482 1.345 . S
C486 C487 1.371 . S
C486 H489 0.931 . S
C487 C483 1.391 . S
C487 C486 1.371 . S
C487 H494 0.930 . S
H488 C485 0.928 . S
H489 C486 0.931 . S
H490 C466 0.930 . S
H491 C463 0.930 . S
H492 C472 0.930 . S
H493 C484 0.929 . S
H494 C487 0.930 . S
C495 C496 1.351 . S
C495 N498 1.368 . S
C495 H500 0.931 . S
C496 C495 1.351 . S
C496 N497 1.373 . S
C496 H524 0.930 . S
N497 C496 1.373 . S
N497 C499 1.340 . S
N498 C495 1.368 . S
N498 C499 1.321 . S
N498 Co501 2.135 . S
C499 N497 1.340 . S
C499 N498 1.321 . S
C499 H523 0.930 . S
H500 C495 0.931 . S
Co501 N498 2.135 . S
Co501 N504 2.121 . S
Co501 O509 2.055 . S
Co501 O512 2.039 . S
Co501 N515 2.140 . S
C502 O503 1.227 . S
C502 O512 1.265 . S
O503 C502 1.227 . S
N504 Co501 2.121 . S
N504 C506 1.375 . S
N504 C507 1.313 . S
C505 C506 1.338 . S
C505 N508 1.377 . S
C505 H525 0.930 . S
C506 N504 1.375 . S
C506 C505 1.338 . S
C506 H510 0.931 . S
C507 N504 1.313 . S
C507 N508 1.344 . S
C507 H511 0.930 . S
N508 C505 1.377 . S
N508 C507 1.344 . S
O509 Co501 2.055 . S
O509 C513 1.253 . S
H510 C506 0.931 . S
H511 C507 0.930 . S
O512 Co501 2.039 . S
O512 C502 1.265 . S
C513 O509 1.253 . S
C513 O514 1.227 . S
O514 C513 1.227 . S
N515 Co501 2.140 . S
N515 C518 1.346 . S
N515 C519 1.345 . S
C516 C517 1.387 . S
C516 C520 1.391 . S
C517 C516 1.387 . S
C517 C518 1.369 . S
C517 H526 0.929 . S
C518 N515 1.346 . S
C518 C517 1.369 . S
C518 H521 0.928 . S
C519 N515 1.345 . S
C519 C520 1.371 . S
C519 H522 0.931 . S
C520 C516 1.391 . S
C520 C519 1.371 . S
C520 H527 0.930 . S
H521 C518 0.928 . S
H522 C519 0.931 . S
H523 C499 0.930 . S
H524 C496 0.930 . S
H525 C505 0.930 . S
H526 C517 0.929 . S
H527 C520 0.930 . S
H528 C534 0.930 . S
H529 C537 0.930 . S
H530 C538 0.930 . S
H531 C539 0.930 . S
H532 C542 0.930 . S
H533 C543 0.930 . S
C534 H528 0.930 . S
C534 C535 1.355 . S
C534 C536 1.415 . S
C535 C534 1.355 . S
C535 C537 1.419 . S
C536 C534 1.415 . S
C536 C541 1.425 . S
C536 C543 1.409 . S
C537 H529 0.930 . S
C537 C535 1.419 . S
C537 C538 1.362 . S
C538 H530 0.930 . S
C538 C537 1.362 . S
C538 C541 1.409 . S
C539 H531 0.930 . S
C539 C540 1.355 . S
C539 C541 1.415 . S
C540 C539 1.355 . S
C540 C542 1.419 . S
C541 C536 1.425 . S
C541 C538 1.409 . S
C541 C539 1.415 . S
C542 H532 0.930 . S
C542 C540 1.419 . S
C542 C543 1.362 . S
C543 H533 0.930 . S
C543 C536 1.409 . S
C543 C542 1.362 . S
H544 C550 0.930 . S
H545 C553 0.930 . S
H546 C554 0.930 . S
H547 C555 0.930 . S
H548 C558 0.930 . S
H549 C559 0.930 . S
C550 H544 0.930 . S
C550 C551 1.355 . S
C550 C552 1.415 . S
C551 C550 1.355 . S
C551 C553 1.419 . S
C552 C550 1.415 . S
C552 C557 1.425 . S
C552 C559 1.409 . S
C553 H545 0.930 . S
C553 C551 1.419 . S
C553 C554 1.362 . S
C554 H546 0.930 . S
C554 C553 1.362 . S
C554 C557 1.409 . S
C555 H547 0.930 . S
C555 C556 1.355 . S
C555 C557 1.415 . S
C556 C555 1.355 . S
C556 C558 1.419 . S
C557 C552 1.425 . S
C557 C554 1.409 . S
C557 C555 1.415 . S
C558 H548 0.930 . S
C558 C556 1.419 . S
C558 C559 1.362 . S
C559 H549 0.930 . S
C559 C552 1.409 . S
C559 C558 1.362 . S
H560 C566 0.930 . S
H561 C569 0.930 . S
H562 C570 0.930 . S
H563 C571 0.930 . S
H564 C574 0.930 . S
H565 C575 0.930 . S
C566 H560 0.930 . S
C566 C567 1.355 . S
C566 C568 1.415 . S
C567 C566 1.355 . S
C567 C569 1.419 . S
C568 C566 1.415 . S
C568 C573 1.425 . S
C568 C575 1.409 . S
C569 H561 0.930 . S
C569 C567 1.419 . S
C569 C570 1.362 . S
C570 H562 0.930 . S
C570 C569 1.362 . S
C570 C573 1.409 . S
C571 H563 0.930 . S
C571 C572 1.355 . S
C571 C573 1.415 . S
C572 C571 1.355 . S
C572 C574 1.419 . S
C573 C568 1.425 . S
C573 C570 1.409 . S
C573 C571 1.415 . S
C574 H564 0.930 . S
C574 C572 1.419 . S
C574 C575 1.362 . S
C575 H565 0.930 . S
C575 C568 1.409 . S
C575 C574 1.362 . S
H576 C582 0.930 . S
H577 C585 0.930 . S
H578 C586 0.930 . S
H579 C587 0.930 . S
H580 C590 0.930 . S
H581 C591 0.930 . S
C582 H576 0.930 . S
C582 C583 1.355 . S
C582 C584 1.415 . S
C583 C582 1.355 . S
C583 C585 1.419 . S
C584 C582 1.415 . S
C584 C589 1.425 . S
C584 C591 1.409 . S
C585 H577 0.930 . S
C585 C583 1.419 . S
C585 C586 1.362 . S
C586 H578 0.930 . S
C586 C585 1.362 . S
C586 C589 1.409 . S
C587 H579 0.930 . S
C587 C588 1.355 . S
C587 C589 1.415 . S
C588 C587 1.355 . S
C588 C590 1.419 . S
C589 C584 1.425 . S
C589 C586 1.409 . S
C589 C587 1.415 . S
C590 H580 0.930 . S
C590 C588 1.419 . S
C590 C591 1.362 . S
C591 H581 0.930 . S
C591 C584 1.409 . S
C591 C590 1.362 . S
H592 C598 0.930 . S
H593 C601 0.930 . S
H594 C602 0.930 . S
H595 C603 0.930 . S
H596 C606 0.930 . S
H597 C607 0.930 . S
C598 H592 0.930 . S
C598 C599 1.355 . S
C598 C600 1.415 . S
C599 C598 1.355 . S
C599 C601 1.419 . S
C600 C598 1.415 . S
C600 C605 1.425 . S
C600 C607 1.409 . S
C601 H593 0.930 . S
C601 C599 1.419 . S
C601 C602 1.362 . S
C602 H594 0.930 . S
C602 C601 1.362 . S
C602 C605 1.409 . S
C603 H595 0.930 . S
C603 C604 1.355 . S
C603 C605 1.415 . S
C604 C603 1.355 . S
C604 C606 1.419 . S
C605 C600 1.425 . S
C605 C602 1.409 . S
C605 C603 1.415 . S
C606 H596 0.930 . S
C606 C604 1.419 . S
C606 C607 1.362 . S
C607 H597 0.930 . S
C607 C600 1.409 . S
C607 C606 1.362 . S
H608 C614 0.930 . S
H609 C617 0.930 . S
H610 C618 0.930 . S
H611 C619 0.930 . S
H612 C622 0.930 . S
H613 C623 0.930 . S
C614 H608 0.930 . S
C614 C615 1.355 . S
C614 C616 1.415 . S
C615 C614 1.355 . S
C615 C617 1.419 . S
C616 C614 1.415 . S
C616 C621 1.425 . S
C616 C623 1.409 . S
C617 H609 0.930 . S
C617 C615 1.419 . S
C617 C618 1.362 . S
C618 H610 0.930 . S
C618 C617 1.362 . S
C618 C621 1.409 . S
C619 H611 0.930 . S
C619 C620 1.355 . S
C619 C621 1.415 . S
C620 C619 1.355 . S
C620 C622 1.419 . S
C621 C616 1.425 . S
C621 C618 1.409 . S
C621 C619 1.415 . S
C622 H612 0.930 . S
C622 C620 1.419 . S
C622 C623 1.362 . S
C623 H613 0.930 . S
C623 C616 1.409 . S
C623 C622 1.362 . S
H624 C630 0.930 . S
H625 C633 0.930 . S
H626 C634 0.930 . S
H627 C635 0.930 . S
H628 C638 0.930 . S
H629 C639 0.930 . S
C630 H624 0.930 . S
C630 C631 1.355 . S
C630 C632 1.415 . S
C631 C630 1.355 . S
C631 C633 1.419 . S
C632 C630 1.415 . S
C632 C637 1.425 . S
C632 C639 1.409 . S
C633 H625 0.930 . S
C633 C631 1.419 . S
C633 C634 1.362 . S
C634 H626 0.930 . S
C634 C633 1.362 . S
C634 C637 1.409 . S
C635 H627 0.930 . S
C635 C636 1.355 . S
C635 C637 1.415 . S
C636 C635 1.355 . S
C636 C638 1.419 . S
C637 C632 1.425 . S
C637 C634 1.409 . S
C637 C635 1.415 . S
C638 H628 0.930 . S
C638 C636 1.419 . S
C638 C639 1.362 . S
C639 H629 0.930 . S
C639 C632 1.409 . S
C639 C638 1.362 . S
H640 C646 0.930 . S
H641 C649 0.930 . S
H642 C650 0.930 . S
H643 C651 0.930 . S
H644 C654 0.930 . S
H645 C655 0.930 . S
C646 H640 0.930 . S
C646 C647 1.355 . S
C646 C648 1.415 . S
C647 C646 1.355 . S
C647 C649 1.419 . S
C648 C646 1.415 . S
C648 C653 1.425 . S
C648 C655 1.409 . S
C649 H641 0.930 . S
C649 C647 1.419 . S
C649 C650 1.362 . S
C650 H642 0.930 . S
C650 C649 1.362 . S
C650 C653 1.409 . S
C651 H643 0.930 . S
C651 C652 1.355 . S
C651 C653 1.415 . S
C652 C651 1.355 . S
C652 C654 1.419 . S
C653 C648 1.425 . S
C653 C650 1.409 . S
C653 C651 1.415 . S
C654 H644 0.930 . S
C654 C652 1.419 . S
C654 C655 1.362 . S
C655 H645 0.930 . S
C655 C648 1.409 . S
C655 C654 1.362 . S
H656 C662 0.930 . S
H657 C665 0.930 . S
H658 C666 0.930 . S
H659 C667 0.930 . S
H660 C670 0.930 . S
H661 C671 0.930 . S
C662 H656 0.930 . S
C662 C663 1.355 . S
C662 C664 1.415 . S
C663 C662 1.355 . S
C663 C665 1.419 . S
C664 C662 1.415 . S
C664 C669 1.425 . S
C664 C671 1.409 . S
C665 H657 0.930 . S
C665 C663 1.419 . S
C665 C666 1.362 . S
C666 H658 0.930 . S
C666 C665 1.362 . S
C666 C669 1.409 . S
C667 H659 0.930 . S
C667 C668 1.355 . S
C667 C669 1.415 . S
C668 C667 1.355 . S
C668 C670 1.419 . S
C669 C664 1.425 . S
C669 C666 1.409 . S
C669 C667 1.415 . S
C670 H660 0.930 . S
C670 C668 1.419 . S
C670 C671 1.362 . S
C671 H661 0.930 . S
C671 C664 1.409 . S
C671 C670 1.362 . S
H672 C678 0.930 . S
H673 C681 0.930 . S
H674 C682 0.930 . S
H675 C683 0.930 . S
H676 C686 0.930 . S
H677 C687 0.930 . S
C678 H672 0.930 . S
C678 C679 1.355 . S
C678 C680 1.415 . S
C679 C678 1.355 . S
C679 C681 1.419 . S
C680 C678 1.415 . S
C680 C685 1.425 . S
C680 C687 1.409 . S
C681 H673 0.930 . S
C681 C679 1.419 . S
C681 C682 1.362 . S
C682 H674 0.930 . S
C682 C681 1.362 . S
C682 C685 1.409 . S
C683 H675 0.930 . S
C683 C684 1.355 . S
C683 C685 1.415 . S
C684 C683 1.355 . S
C684 C686 1.419 . S
C685 C680 1.425 . S
C685 C682 1.409 . S
C685 C683 1.415 . S
C686 H676 0.930 . S
C686 C684 1.419 . S
C686 C687 1.362 . S
C687 H677 0.930 . S
C687 C680 1.409 . S
C687 C686 1.362 . S
H688 C694 0.930 . S
H689 C697 0.930 . S
H690 C698 0.930 . S
H691 C699 0.930 . S
H692 C702 0.930 . S
H693 C703 0.930 . S
C694 H688 0.930 . S
C694 C695 1.355 . S
C694 C696 1.415 . S
C695 C694 1.355 . S
C695 C697 1.419 . S
C696 C694 1.415 . S
C696 C701 1.425 . S
C696 C703 1.409 . S
C697 H689 0.930 . S
C697 C695 1.419 . S
C697 C698 1.362 . S
C698 H690 0.930 . S
C698 C697 1.362 . S
C698 C701 1.409 . S
C699 H691 0.930 . S
C699 C700 1.355 . S
C699 C701 1.415 . S
C700 C699 1.355 . S
C700 C702 1.419 . S
C701 C696 1.425 . S
C701 C698 1.409 . S
C701 C699 1.415 . S
C702 H692 0.930 . S
C702 C700 1.419 . S
C702 C703 1.362 . S
C703 H693 0.930 . S
C703 C696 1.409 . S
C703 C702 1.362 . S
H704 C710 0.930 . S
H705 C713 0.930 . S
H706 C714 0.930 . S
H707 C715 0.930 . S
H708 C718 0.930 . S
H709 C719 0.930 . S
C710 H704 0.930 . S
C710 C711 1.355 . S
C710 C712 1.415 . S
C711 C710 1.355 . S
C711 C713 1.419 . S
C712 C710 1.415 . S
C712 C717 1.425 . S
C712 C719 1.409 . S
C713 H705 0.930 . S
C713 C711 1.419 . S
C713 C714 1.362 . S
C714 H706 0.930 . S
C714 C713 1.362 . S
C714 C717 1.409 . S
C715 H707 0.930 . S
C715 C716 1.355 . S
C715 C717 1.415 . S
C716 C715 1.355 . S
C716 C718 1.419 . S
C717 C712 1.425 . S
C717 C714 1.409 . S
C717 C715 1.415 . S
C718 H708 0.930 . S
C718 C716 1.419 . S
C718 C719 1.362 . S
C719 H709 0.930 . S
C719 C712 1.409 . S
C719 C718 1.362 . S
H720 C726 0.930 . S
H721 C729 0.930 . S
H722 C730 0.930 . S
H723 C731 0.930 . S
H724 C734 0.930 . S
H725 C735 0.930 . S
C726 H720 0.930 . S
C726 C727 1.355 . S
C726 C728 1.415 . S
C727 C726 1.355 . S
C727 C729 1.419 . S
C728 C726 1.415 . S
C728 C733 1.425 . S
C728 C735 1.409 . S
C729 H721 0.930 . S
C729 C727 1.419 . S
C729 C730 1.362 . S
C730 H722 0.930 . S
C730 C729 1.362 . S
C730 C733 1.409 . S
C731 H723 0.930 . S
C731 C732 1.355 . S
C731 C733 1.415 . S
C732 C731 1.355 . S
C732 C734 1.419 . S
C733 C728 1.425 . S
C733 C730 1.409 . S
C733 C731 1.415 . S
C734 H724 0.930 . S
C734 C732 1.419 . S
C734 C735 1.362 . S
C735 H725 0.930 . S
C735 C728 1.409 . S
C735 C734 1.362 . S
H736 C742 0.930 . S
H737 C745 0.930 . S
H738 C746 0.930 . S
H739 C747 0.930 . S
H740 C750 0.930 . S
H741 C751 0.930 . S
C742 H736 0.930 . S
C742 C743 1.355 . S
C742 C744 1.415 . S
C743 C742 1.355 . S
C743 C745 1.419 . S
C744 C742 1.415 . S
C744 C749 1.425 . S
C744 C751 1.409 . S
C745 H737 0.930 . S
C745 C743 1.419 . S
C745 C746 1.362 . S
C746 H738 0.930 . S
C746 C745 1.362 . S
C746 C749 1.409 . S
C747 H739 0.930 . S
C747 C748 1.355 . S
C747 C749 1.415 . S
C748 C747 1.355 . S
C748 C750 1.419 . S
C749 C744 1.425 . S
C749 C746 1.409 . S
C749 C747 1.415 . S
C750 H740 0.930 . S
C750 C748 1.419 . S
C750 C751 1.362 . S
C751 H741 0.930 . S
C751 C744 1.409 . S
C751 C750 1.362 . S
H752 C758 0.930 . S
H753 C761 0.930 . S
H754 C762 0.930 . S
H755 C763 0.930 . S
H756 C766 0.930 . S
H757 C767 0.930 . S
C758 H752 0.930 . S
C758 C759 1.355 . S
C758 C760 1.415 . S
C759 C758 1.355 . S
C759 C761 1.419 . S
C760 C758 1.415 . S
C760 C765 1.425 . S
C760 C767 1.409 . S
C761 H753 0.930 . S
C761 C759 1.419 . S
C761 C762 1.362 . S
C762 H754 0.930 . S
C762 C761 1.362 . S
C762 C765 1.409 . S
C763 H755 0.930 . S
C763 C764 1.355 . S
C763 C765 1.415 . S
C764 C763 1.355 . S
C764 C766 1.419 . S
C765 C760 1.425 . S
C765 C762 1.409 . S
C765 C763 1.415 . S
C766 H756 0.930 . S
C766 C764 1.419 . S
C766 C767 1.362 . S
C767 H757 0.930 . S
C767 C760 1.409 . S
C767 C766 1.362 . S
H768 C774 0.930 . S
H769 C777 0.930 . S
H770 C778 0.930 . S
H771 C779 0.930 . S
H772 C782 0.930 . S
H773 C783 0.930 . S
C774 H768 0.930 . S
C774 C775 1.355 . S
C774 C776 1.415 . S
C775 C774 1.355 . S
C775 C777 1.419 . S
C776 C774 1.415 . S
C776 C781 1.425 . S
C776 C783 1.409 . S
C777 H769 0.930 . S
C777 C775 1.419 . S
C777 C778 1.362 . S
C778 H770 0.930 . S
C778 C777 1.362 . S
C778 C781 1.409 . S
C779 H771 0.930 . S
C779 C780 1.355 . S
C779 C781 1.415 . S
C780 C779 1.355 . S
C780 C782 1.419 . S
C781 C776 1.425 . S
C781 C778 1.409 . S
C781 C779 1.415 . S
C782 H772 0.930 . S
C782 C780 1.419 . S
C782 C783 1.362 . S
C783 H773 0.930 . S
C783 C776 1.409 . S
C783 C782 1.362 . S
H784 C790 0.930 . S
H785 C793 0.930 . S
H786 C794 0.930 . S
H787 C795 0.930 . S
H788 C798 0.930 . S
H789 C799 0.930 . S
C790 H784 0.930 . S
C790 C791 1.355 . S
C790 C792 1.415 . S
C791 C790 1.355 . S
C791 C793 1.419 . S
C792 C790 1.415 . S
C792 C797 1.425 . S
C792 C799 1.409 . S
C793 H785 0.930 . S
C793 C791 1.419 . S
C793 C794 1.362 . S
C794 H786 0.930 . S
C794 C793 1.362 . S
C794 C797 1.409 . S
C795 H787 0.930 . S
C795 C796 1.355 . S
C795 C797 1.415 . S
C796 C795 1.355 . S
C796 C798 1.419 . S
C797 C792 1.425 . S
C797 C794 1.409 . S
C797 C795 1.415 . S
C798 H788 0.930 . S
C798 C796 1.419 . S
C798 C799 1.362 . S
C799 H789 0.930 . S
C799 C792 1.409 . S
C799 C798 1.362 . S
H800 C806 0.930 . S
H801 C809 0.930 . S
H802 C810 0.930 . S
H803 C811 0.930 . S
H804 C814 0.930 1_556 S
H805 C815 0.930 . S
C806 H800 0.930 . S
C806 C807 1.355 . S
C806 C808 1.415 . S
C807 C806 1.355 . S
C807 C809 1.419 . S
C808 C806 1.415 . S
C808 C813 1.425 . S
C808 C815 1.409 . S
C809 H801 0.930 . S
C809 C807 1.419 . S
C809 C810 1.362 . S
C810 H802 0.930 . S
C810 C809 1.362 . S
C810 C813 1.409 . S
C811 H803 0.930 . S
C811 C812 1.355 . S
C811 C813 1.415 . S
C812 C811 1.355 . S
C812 C814 1.419 . S
C813 C808 1.425 . S
C813 C810 1.409 . S
C813 C811 1.415 . S
C814 H804 0.930 1_554 S
C814 C812 1.419 . S
C814 C815 1.362 . S
C815 H805 0.930 . S
C815 C808 1.409 . S
C815 C814 1.362 . S
H816 C822 0.930 . S
H817 C825 0.930 1_554 S
H818 C826 0.930 . S
H819 C827 0.930 . S
H820 C830 0.930 . S
H821 C831 0.930 . S
C822 H816 0.930 . S
C822 C823 1.355 . S
C822 C824 1.415 . S
C823 C822 1.355 . S
C823 C825 1.419 . S
C824 C822 1.415 . S
C824 C829 1.425 . S
C824 C831 1.409 . S
C825 H817 0.930 1_556 S
C825 C823 1.419 . S
C825 C826 1.362 . S
C826 H818 0.930 . S
C826 C825 1.362 . S
C826 C829 1.409 . S
C827 H819 0.930 . S
C827 C828 1.355 . S
C827 C829 1.415 . S
C828 C827 1.355 . S
C828 C830 1.419 . S
C829 C824 1.425 . S
C829 C826 1.409 . S
C829 C827 1.415 . S
C830 H820 0.930 . S
C830 C828 1.419 . S
C830 C831 1.362 . S
C831 H821 0.930 . S
C831 C824 1.409 . S
C831 C830 1.362 . S
H832 C838 0.930 . S
H833 C841 0.930 . S
H834 C842 0.930 . S
H835 C843 0.930 . S
H836 C846 0.930 . S
H837 C847 0.930 . S
C838 H832 0.930 . S
C838 C839 1.355 . S
C838 C840 1.415 . S
C839 C838 1.355 . S
C839 C841 1.419 . S
C840 C838 1.415 . S
C840 C845 1.425 . S
C840 C847 1.409 . S
C841 H833 0.930 . S
C841 C839 1.419 . S
C841 C842 1.362 . S
C842 H834 0.930 . S
C842 C841 1.362 . S
C842 C845 1.409 . S
C843 H835 0.930 . S
C843 C844 1.355 . S
C843 C845 1.415 . S
C844 C843 1.355 . S
C844 C846 1.419 . S
C845 C840 1.425 . S
C845 C842 1.409 . S
C845 C843 1.415 . S
C846 H836 0.930 . S
C846 C844 1.419 . S
C846 C847 1.362 . S
C847 H837 0.930 . S
C847 C840 1.409 . S
C847 C846 1.362 . S
H848 C854 0.930 . S
H849 C857 0.930 . S
H850 C858 0.930 . S
H851 C859 0.930 . S
H852 C862 0.930 . S
H853 C863 0.930 . S
C854 H848 0.930 . S
C854 C855 1.355 . S
C854 C856 1.415 . S
C855 C854 1.355 . S
C855 C857 1.419 . S
C856 C854 1.415 . S
C856 C861 1.425 . S
C856 C863 1.409 . S
C857 H849 0.930 . S
C857 C855 1.419 . S
C857 C858 1.362 . S
C858 H850 0.930 . S
C858 C857 1.362 . S
C858 C861 1.409 . S
C859 H851 0.930 . S
C859 C860 1.355 . S
C859 C861 1.415 . S
C860 C859 1.355 . S
C860 C862 1.419 . S
C861 C856 1.425 . S
C861 C858 1.409 . S
C861 C859 1.415 . S
C862 H852 0.930 . S
C862 C860 1.419 . S
C862 C863 1.362 . S
C863 H853 0.930 . S
C863 C856 1.409 . S
C863 C862 1.362 . S
H864 C870 0.930 . S
H865 C873 0.930 . S
H866 C874 0.930 . S
H867 C875 0.930 . S
H868 C878 0.930 . S
H869 C879 0.930 . S
C870 H864 0.930 . S
C870 C871 1.355 . S
C870 C872 1.415 . S
C871 C870 1.355 . S
C871 C873 1.419 . S
C872 C870 1.415 . S
C872 C877 1.425 . S
C872 C879 1.409 . S
C873 H865 0.930 . S
C873 C871 1.419 . S
C873 C874 1.362 . S
C874 H866 0.930 . S
C874 C873 1.362 . S
C874 C877 1.409 . S
C875 H867 0.930 . S
C875 C876 1.355 . S
C875 C877 1.415 . S
C876 C875 1.355 . S
C876 C878 1.419 . S
C877 C872 1.425 . S
C877 C874 1.409 . S
C877 C875 1.415 . S
C878 H868 0.930 . S
C878 C876 1.419 . S
C878 C879 1.362 . S
C879 H869 0.930 . S
C879 C872 1.409 . S
C879 C878 1.362 . S
H880 C886 0.930 . S
H881 C889 0.930 . S
H882 C890 0.930 . S
H883 C891 0.930 . S
H884 C894 0.930 . S
H885 C895 0.930 . S
C886 H880 0.930 . S
C886 C887 1.355 . S
C886 C888 1.415 . S
C887 C886 1.355 . S
C887 C889 1.419 . S
C888 C886 1.415 . S
C888 C893 1.425 . S
C888 C895 1.409 . S
C889 H881 0.930 . S
C889 C887 1.419 . S
C889 C890 1.362 . S
C890 H882 0.930 . S
C890 C889 1.362 . S
C890 C893 1.409 . S
C891 H883 0.930 . S
C891 C892 1.355 . S
C891 C893 1.415 . S
C892 C891 1.355 . S
C892 C894 1.419 . S
C893 C888 1.425 . S
C893 C890 1.409 . S
C893 C891 1.415 . S
C894 H884 0.930 . S
C894 C892 1.419 . S
C894 C895 1.362 . S
C895 H885 0.930 . S
C895 C888 1.409 . S
C895 C894 1.362 . S
H896 C902 0.930 . S
H897 C905 0.930 . S
H898 C906 0.930 . S
H899 C907 0.930 . S
H900 C910 0.930 . S
H901 C911 0.930 . S
C902 H896 0.930 . S
C902 C903 1.355 . S
C902 C904 1.415 . S
C903 C902 1.355 . S
C903 C905 1.419 . S
C904 C902 1.415 . S
C904 C909 1.425 . S
C904 C911 1.409 . S
C905 H897 0.930 . S
C905 C903 1.419 . S
C905 C906 1.362 . S
C906 H898 0.930 . S
C906 C905 1.362 . S
C906 C909 1.409 . S
C907 H899 0.930 . S
C907 C908 1.355 . S
C907 C909 1.415 . S
C908 C907 1.355 . S
C908 C910 1.419 . S
C909 C904 1.425 . S
C909 C906 1.409 . S
C909 C907 1.415 . S
C910 H900 0.930 . S
C910 C908 1.419 . S
C910 C911 1.362 . S
C911 H901 0.930 . S
C911 C904 1.409 . S
C911 C910 1.362 . S
H912 C918 0.930 . S
H913 C921 0.930 . S
H914 C922 0.930 . S
H915 C923 0.930 . S
H916 C926 0.930 . S
H917 C927 0.930 . S
C918 H912 0.930 . S
C918 C919 1.355 . S
C918 C920 1.415 . S
C919 C918 1.355 . S
C919 C921 1.419 . S
C920 C918 1.415 . S
C920 C925 1.425 . S
C920 C927 1.409 . S
C921 H913 0.930 . S
C921 C919 1.419 . S
C921 C922 1.362 . S
C922 H914 0.930 . S
C922 C921 1.362 . S
C922 C925 1.409 . S
C923 H915 0.930 . S
C923 C924 1.355 . S
C923 C925 1.415 . S
C924 C923 1.355 . S
C924 C926 1.419 . S
C925 C920 1.425 . S
C925 C922 1.409 . S
C925 C923 1.415 . S
C926 H916 0.930 . S
C926 C924 1.419 . S
C926 C927 1.362 . S
C927 H917 0.930 . S
C927 C920 1.409 . S
C927 C926 1.362 . S
H928 C934 0.930 . S
H929 C937 0.930 . S
H930 C938 0.930 . S
H931 C939 0.930 . S
H932 C942 0.930 1_455 S
H933 C943 0.930 . S
C934 H928 0.930 . S
C934 C935 1.355 . S
C934 C936 1.415 . S
C935 C934 1.355 . S
C935 C937 1.419 . S
C936 C934 1.415 . S
C936 C941 1.425 . S
C936 C943 1.409 . S
C937 H929 0.930 . S
C937 C935 1.419 . S
C937 C938 1.362 . S
C938 H930 0.930 . S
C938 C937 1.362 . S
C938 C941 1.409 . S
C939 H931 0.930 . S
C939 C940 1.355 . S
C939 C941 1.415 . S
C940 C939 1.355 . S
C940 C942 1.419 . S
C941 C936 1.425 . S
C941 C938 1.409 . S
C941 C939 1.415 . S
C942 H932 0.930 1_655 S
C942 C940 1.419 . S
C942 C943 1.362 . S
C943 H933 0.930 . S
C943 C936 1.409 . S
C943 C942 1.362 . S
H944 C950 0.930 . S
H945 C953 0.930 1_565 S
H946 C954 0.930 . S
H947 C955 0.930 . S
H948 C958 0.930 . S
H949 C959 0.930 . S
C950 H944 0.930 . S
C950 C951 1.355 . S
C950 C952 1.415 . S
C951 C950 1.355 . S
C951 C953 1.419 . S
C952 C950 1.415 . S
C952 C957 1.425 . S
C952 C959 1.409 . S
C953 H945 0.930 1_545 S
C953 C951 1.419 . S
C953 C954 1.362 . S
C954 H946 0.930 . S
C954 C953 1.362 . S
C954 C957 1.409 . S
C955 H947 0.930 . S
C955 C956 1.355 . S
C955 C957 1.415 . S
C956 C955 1.355 . S
C956 C958 1.419 . S
C957 C952 1.425 . S
C957 C954 1.409 . S
C957 C955 1.415 . S
C958 H948 0.930 . S
C958 C956 1.419 . S
C958 C959 1.362 . S
C959 H949 0.930 . S
C959 C952 1.409 . S
C959 C958 1.362 . S
H960 C966 0.930 . S
H961 C969 0.930 . S
H962 C970 0.930 . S
H963 C971 0.932 1_655 S
H964 C974 0.930 . S
H965 C975 0.930 . S
C966 H960 0.930 . S
C966 C967 1.355 . S
C966 C968 1.415 . S
C967 C966 1.355 . S
C967 C969 1.419 . S
C968 C966 1.415 . S
C968 C973 1.425 . S
C968 C975 1.409 . S
C969 H961 0.930 . S
C969 C967 1.419 . S
C969 C970 1.362 . S
C970 H962 0.930 . S
C970 C969 1.362 . S
C970 C973 1.409 . S
C971 H963 0.932 1_455 S
C971 C972 1.355 . S
C971 C973 1.415 . S
C972 C971 1.355 . S
C972 C974 1.419 . S
C973 C968 1.425 . S
C973 C970 1.409 . S
C973 C971 1.415 . S
C974 H964 0.930 . S
C974 C972 1.419 . S
C974 C975 1.362 . S
C975 H965 0.930 . S
C975 C968 1.409 . S
C975 C974 1.362 . S
H976 C982 0.930 . S
H977 C985 0.930 . S
H978 C986 0.930 . S
H979 C987 0.930 . S
H980 C990 0.930 . S
H981 C991 0.930 . S
C982 H976 0.930 . S
C982 C983 1.355 . S
C982 C984 1.415 . S
C983 C982 1.355 . S
C983 C985 1.419 . S
C984 C982 1.415 . S
C984 C989 1.425 . S
C984 C991 1.409 . S
C985 H977 0.930 . S
C985 C983 1.419 . S
C985 C986 1.362 . S
C986 H978 0.930 . S
C986 C985 1.362 . S
C986 C989 1.409 . S
C987 H979 0.930 . S
C987 C988 1.355 . S
C987 C989 1.415 1_554 S
C988 C987 1.355 . S
C988 C990 1.419 . S
C989 C984 1.425 . S
C989 C986 1.409 . S
C989 C987 1.415 1_556 S
C990 H980 0.930 . S
C990 C988 1.419 . S
C990 C991 1.362 1_554 S
C991 H981 0.930 . S
C991 C984 1.409 . S
C991 C990 1.362 1_556 S
H992 C998 0.930 1_556 S
H993 C1001 0.930 . S
H994 C1002 0.930 . S
H995 C1003 0.930 . S
H996 C1006 0.930 . S
H997 C1007 0.930 . S
C998 H992 0.930 1_554 S
C998 C999 1.355 . S
C998 C1000 1.415 1_554 S
C999 C998 1.355 . S
C999 C1001 1.419 . S
C1000 C998 1.415 1_556 S
C1000 C1005 1.425 1_556 S
C1000 C1007 1.409 . S
C1001 H993 0.930 . S
C1001 C999 1.419 . S
C1001 C1002 1.362 . S
C1002 H994 0.930 . S
C1002 C1001 1.362 . S
C1002 C1005 1.409 . S
C1003 H995 0.930 . S
C1003 C1004 1.355 1_554 S
C1003 C1005 1.415 . S
C1004 C1003 1.355 1_556 S
C1004 C1006 1.419 . S
C1005 C1000 1.425 1_554 S
C1005 C1002 1.409 . S
C1005 C1003 1.415 . S
C1006 H996 0.930 . S
C1006 C1004 1.419 . S
C1006 C1007 1.362 . S
C1007 H997 0.930 . S
C1007 C1000 1.409 . S
C1007 C1006 1.362 . S
H1008 C1014 0.930 . S
H1009 C1017 0.930 . S
H1010 C1018 0.932 . S
H1011 C1019 0.930 . S
H1012 C1022 0.930 . S
H1013 C1023 0.930 . S
C1014 H1008 0.930 . S
C1014 C1015 1.355 . S
C1014 C1016 1.415 1_554 S
C1015 C1014 1.355 . S
C1015 C1017 1.419 . S
C1016 C1014 1.415 1_556 S
C1016 C1021 1.425 . S
C1016 C1023 1.409 . S
C1017 H1009 0.930 . S
C1017 C1015 1.419 . S
C1017 C1018 1.355 1_554 S
C1018 H1010 0.932 . S
C1018 C1017 1.355 1_556 S
C1018 C1021 1.415 . S
C1019 H1011 0.930 . S
C1019 C1020 1.355 . S
C1019 C1021 1.415 . S
C1020 C1019 1.355 . S
C1020 C1022 1.419 . S
C1021 C1016 1.425 . S
C1021 C1018 1.415 . S
C1021 C1019 1.415 . S
C1022 H1012 0.930 . S
C1022 C1020 1.419 . S
C1022 C1023 1.362 . S
C1023 H1013 0.930 . S
C1023 C1016 1.409 . S
C1023 C1022 1.362 . S
H1024 C1030 0.930 . S
H1025 C1033 0.930 . S
H1026 C1034 0.930 . S
H1027 C1035 0.930 . S
H1028 C1038 0.930 . S
H1029 C1039 0.930 . S
C1030 H1024 0.930 . S
C1030 C1031 1.355 . S
C1030 C1032 1.415 . S
C1031 C1030 1.355 . S
C1031 C1033 1.419 . S
C1032 C1030 1.415 . S
C1032 C1037 1.425 1_554 S
C1032 C1039 1.409 . S
C1033 H1025 0.930 . S
C1033 C1031 1.419 . S
C1033 C1034 1.362 1_554 S
C1034 H1026 0.930 . S
C1034 C1033 1.362 1_556 S
C1034 C1037 1.409 . S
C1035 H1027 0.930 . S
C1035 C1036 1.355 . S
C1035 C1037 1.415 . S
C1036 C1035 1.355 . S
C1036 C1038 1.419 1_556 S
C1037 C1032 1.425 1_556 S
C1037 C1034 1.409 . S
C1037 C1035 1.415 . S
C1038 H1028 0.930 . S
C1038 C1036 1.419 1_554 S
C1038 C1039 1.362 . S
C1039 H1029 0.930 . S
C1039 C1032 1.409 . S
C1039 C1038 1.362 . S
H1040 C1046 0.930 . S
H1041 C1049 0.930 . S
H1042 C1050 0.930 . S
H1043 C1051 0.930 . S
H1044 C1054 0.930 . S
H1045 C1055 0.930 . S
C1046 H1040 0.930 . S
C1046 C1047 1.355 . S
C1046 C1048 1.415 . S
C1047 C1046 1.355 . S
C1047 C1049 1.419 . S
C1048 C1046 1.415 . S
C1048 C1053 1.425 . S
C1048 C1055 1.409 . S
C1049 H1041 0.930 . S
C1049 C1047 1.419 . S
C1049 C1050 1.362 . S
C1050 H1042 0.930 . S
C1050 C1049 1.362 . S
C1050 C1053 1.409 . S
C1051 H1043 0.930 . S
C1051 C1052 1.355 . S
C1051 C1053 1.415 . S
C1052 C1051 1.355 . S
C1052 C1054 1.419 . S
C1053 C1048 1.425 . S
C1053 C1050 1.409 . S
C1053 C1051 1.415 . S
C1054 H1044 0.930 . S
C1054 C1052 1.419 . S
C1054 C1055 1.362 . S
C1055 H1045 0.930 . S
C1055 C1048 1.409 . S
C1055 C1054 1.362 . S
H1056 C1062 0.930 . S
H1057 C1065 0.930 . S
H1058 C1066 0.930 . S
H1059 C1067 0.930 . S
H1060 C1070 0.930 . S
H1061 C1071 0.930 . S
C1062 H1056 0.930 . S
C1062 C1063 1.355 . S
C1062 C1064 1.415 . S
C1063 C1062 1.355 . S
C1063 C1065 1.419 . S
C1064 C1062 1.415 . S
C1064 C1069 1.425 . S
C1064 C1071 1.409 . S
C1065 H1057 0.930 . S
C1065 C1063 1.419 . S
C1065 C1066 1.362 . S
C1066 H1058 0.930 . S
C1066 C1065 1.362 . S
C1066 C1069 1.409 . S
C1067 H1059 0.930 . S
C1067 C1068 1.355 . S
C1067 C1069 1.415 . S
C1068 C1067 1.355 . S
C1068 C1070 1.419 . S
C1069 C1064 1.425 . S
C1069 C1066 1.409 . S
C1069 C1067 1.415 . S
C1070 H1060 0.930 . S
C1070 C1068 1.419 . S
C1070 C1071 1.362 . S
C1071 H1061 0.930 . S
C1071 C1064 1.409 . S
C1071 C1070 1.362 . S
H1072 C1078 0.930 . S
H1073 C1081 0.930 . S
H1074 C1082 0.930 . S
H1075 C1083 0.930 . S
H1076 C1086 0.930 . S
H1077 C1087 0.930 . S
C1078 H1072 0.930 . S
C1078 C1079 1.355 . S
C1078 C1080 1.415 . S
C1079 C1078 1.355 . S
C1079 C1081 1.419 . S
C1080 C1078 1.415 . S
C1080 C1085 1.425 . S
C1080 C1087 1.409 . S
C1081 H1073 0.930 . S
C1081 C1079 1.419 . S
C1081 C1082 1.362 . S
C1082 H1074 0.930 . S
C1082 C1081 1.362 . S
C1082 C1085 1.409 . S
C1083 H1075 0.930 . S
C1083 C1084 1.355 . S
C1083 C1085 1.415 . S
C1084 C1083 1.355 . S
C1084 C1086 1.419 . S
C1085 C1080 1.425 . S
C1085 C1082 1.409 . S
C1085 C1083 1.415 . S
C1086 H1076 0.930 . S
C1086 C1084 1.419 . S
C1086 C1087 1.362 . S
C1087 H1077 0.930 . S
C1087 C1080 1.409 . S
C1087 C1086 1.362 . S
H1088 C1094 0.930 . S
H1089 C1097 0.930 . S
H1090 C1098 0.930 . S
H1091 C1099 0.930 . S
H1092 C1102 0.930 . S
H1093 C1103 0.930 . S
C1094 H1088 0.930 . S
C1094 C1095 1.355 . S
C1094 C1096 1.415 . S
C1095 C1094 1.355 . S
C1095 C1097 1.419 . S
C1096 C1094 1.415 . S
C1096 C1101 1.425 . S
C1096 C1103 1.409 . S
C1097 H1089 0.930 . S
C1097 C1095 1.419 . S
C1097 C1098 1.362 . S
C1098 H1090 0.930 . S
C1098 C1097 1.362 . S
C1098 C1101 1.409 . S
C1099 H1091 0.930 . S
C1099 C1100 1.355 . S
C1099 C1101 1.415 . S
C1100 C1099 1.355 . S
C1100 C1102 1.419 . S
C1101 C1096 1.425 . S
C1101 C1098 1.409 . S
C1101 C1099 1.415 . S
C1102 H1092 0.930 . S
C1102 C1100 1.419 . S
C1102 C1103 1.362 . S
C1103 H1093 0.930 . S
C1103 C1096 1.409 . S
C1103 C1102 1.362 . S
H1104 C1110 0.930 . S
H1105 C1113 0.930 . S
H1106 C1114 0.930 . S
H1107 C1115 0.930 . S
H1108 C1118 0.930 . S
H1109 C1119 0.930 . S
C1110 H1104 0.930 . S
C1110 C1111 1.355 . S
C1110 C1112 1.415 . S
C1111 C1110 1.355 . S
C1111 C1113 1.419 . S
C1112 C1110 1.415 . S
C1112 C1117 1.425 . S
C1112 C1119 1.409 . S
C1113 H1105 0.930 . S
C1113 C1111 1.419 . S
C1113 C1114 1.362 . S
C1114 H1106 0.930 . S
C1114 C1113 1.362 . S
C1114 C1117 1.409 . S
C1115 H1107 0.930 . S
C1115 C1116 1.355 . S
C1115 C1117 1.415 . S
C1116 C1115 1.355 . S
C1116 C1118 1.419 . S
C1117 C1112 1.425 . S
C1117 C1114 1.409 . S
C1117 C1115 1.415 . S
C1118 H1108 0.930 . S
C1118 C1116 1.419 . S
C1118 C1119 1.362 . S
C1119 H1109 0.930 . S
C1119 C1112 1.409 . S
C1119 C1118 1.362 . S
H1120 C1126 0.930 . S
H1121 C1129 0.930 . S
H1122 C1130 0.930 . S
H1123 C1131 0.930 . S
H1124 C1134 0.953 . S
H1125 C1135 0.930 . S
C1126 H1120 0.930 . S
C1126 C1127 1.355 . S
C1126 C1128 1.415 . S
C1127 C1126 1.355 . S
C1127 C1129 1.419 . S
C1128 C1126 1.415 . S
C1128 C1133 1.425 . S
C1128 C1135 1.409 . S
C1129 H1121 0.930 . S
C1129 C1127 1.419 . S
C1129 C1130 1.362 . S
C1130 H1122 0.930 . S
C1130 C1129 1.362 . S
C1130 C1133 1.409 . S
C1131 H1123 0.930 . S
C1131 C1132 1.355 . S
C1131 C1133 1.415 . S
C1132 C1131 1.355 . S
C1132 C1134 1.419 . S
C1133 C1128 1.425 . S
C1133 C1130 1.409 . S
C1133 C1131 1.415 . S
C1134 H1124 0.953 . S
C1134 C1132 1.419 . S
C1134 C1135 1.362 . S
C1135 H1125 0.930 . S
C1135 C1128 1.409 . S
C1135 C1134 1.362 . S
H1136 C1142 0.930 . S
H1137 C1145 0.930 . S
H1138 C1146 0.930 . S
H1139 C1147 0.930 . S
H1140 C1150 0.930 1_545 S
H1141 C1151 0.930 . S
C1142 H1136 0.930 . S
C1142 C1143 1.355 . S
C1142 C1144 1.415 . S
C1143 C1142 1.355 . S
C1143 C1145 1.419 . S
C1144 C1142 1.415 . S
C1144 C1149 1.425 . S
C1144 C1151 1.409 . S
C1145 H1137 0.930 . S
C1145 C1143 1.419 . S
C1145 C1146 1.362 . S
C1146 H1138 0.930 . S
C1146 C1145 1.362 . S
C1146 C1149 1.409 . S
C1147 H1139 0.930 . S
C1147 C1148 1.355 . S
C1147 C1149 1.415 . S
C1148 C1147 1.355 . S
C1148 C1150 1.419 . S
C1149 C1144 1.425 . S
C1149 C1146 1.409 . S
C1149 C1147 1.415 . S
C1150 H1140 0.930 1_565 S
C1150 C1148 1.419 . S
C1150 C1151 1.362 . S
C1151 H1141 0.930 . S
C1151 C1144 1.409 . S
C1151 C1150 1.362 . S
H1152 C1158 0.930 . S
H1153 C1161 0.930 1_455 S
H1154 C1162 0.930 . S
H1155 C1163 0.930 . S
H1156 C1166 0.930 . S
H1157 C1167 0.930 . S
C1158 H1152 0.930 . S
C1158 C1159 1.355 . S
C1158 C1160 1.415 . S
C1159 C1158 1.355 . S
C1159 C1161 1.419 . S
C1160 C1158 1.415 . S
C1160 C1165 1.425 . S
C1160 C1167 1.409 . S
C1161 H1153 0.930 1_655 S
C1161 C1159 1.419 . S
C1161 C1162 1.362 . S
C1162 H1154 0.930 . S
C1162 C1161 1.362 . S
C1162 C1165 1.409 . S
C1163 H1155 0.930 . S
C1163 C1164 1.355 . S
C1163 C1165 1.415 . S
C1164 C1163 1.355 . S
C1164 C1166 1.419 . S
C1165 C1160 1.425 . S
C1165 C1162 1.409 . S
C1165 C1163 1.415 . S
C1166 H1156 0.930 . S
C1166 C1164 1.419 . S
C1166 C1167 1.362 . S
C1167 H1157 0.930 . S
C1167 C1160 1.409 . S
C1167 C1166 1.362 . S
C535 C7 1.024 . S
C540 C469 1.035 . S
C551 C502 1.043 . S
C556 C40 1.028 . S
C567 C403 1.040 . S
C572 C73 1.024 . S
C583 C106 1.034 . S
C588 C436 1.041 . S
C599 C139 1.043 . S
C604 C337 1.031 . S
C615 C370 1.027 . S
C620 C172 1.043 . S
C631 C205 1.033 . S
C636 C271 1.042 . S
C647 C304 1.038 . S
C652 C238 1.038 . S
C663 N145 1.416 . S
C668 N13 1.445 . S
C679 N46 1.444 . S
C684 N178 1.432 . S
C695 N79 1.439 . S
C700 N211 1.437 . S
C711 N112 1.432 . S
C716 N244 1.444 . S
C727 N409 1.458 . S
C732 N277 1.410 . S
C743 N442 1.416 . S
C748 N310 1.456 . S
C759 N343 1.458 . S
C764 N475 1.413 . S
C775 N376 1.444 . S
C780 N508 1.416 . S
C791 C21 1.519 1_556 S
C796 C483 1.498 . S
C807 C516 1.481 . S
C812 C54 1.473 1_554 S
C823 C87 1.476 1_556 S
C828 C417 1.496 . S
C839 C450 1.506 . S
C844 C120 1.483 1_554 S
C855 C351 1.473 . S
C860 C153 1.482 . S
C871 C384 1.481 . S
C876 C186 1.504 . S
C887 C219 1.479 . S
C892 C285 1.474 . S
C903 C252 1.505 . S
C908 C318 1.522 . S
C919 N2 1.473 1_565 S
C924 C381 1.583 . S
C935 C282 1.557 . S
C940 N35 1.477 1_655 S
C951 N68 1.459 1_545 S
C956 C315 1.554 . S
C967 C348 1.589 . S
C972 N101 1.498 1_455 S
C983 C183 1.564 . S
C988 N134 1.438 . S
C999 C216 1.588 . S
C1004 N167 1.492 . S
C1015 N200 1.526 . S
C1020 C249 1.588 . S
C1031 C150 1.554 . S
C1036 N233 1.452 . S
C1047 C117 1.585 . S
C1052 N266 1.528 . S
C1063 N299 1.520 . S
C1068 C18 1.590 . S
C1079 N332 1.528 . S
C1084 C51 1.584 . S
C1095 C84 1.590 . S
C1100 N365 1.522 . S
C1111 C447 1.585 . S
C1116 N398 1.481 1_545 S
C1127 C480 1.571 . S
C1132 N431 1.513 1_455 S
C1143 C513 1.554 . S
C1148 N464 1.441 1_565 S
C1159 N497 1.453 1_655 S
C1164 C414 1.554 . S
