# Generated by pormake.
# Topology sxi, (6)-cn, num edge types: 1
# Building blocks:
#     Node 0, Type 0, BuildingBlock: OJICUG_clean_sbu_0, # of connection points: 6
#     Node 1, Type 0, BuildingBlock: OJICUG_clean_sbu_0, # of connection points: 6
#     Node 2, Type 0, BuildingBlock: OJICUG_clean_sbu_0, # of connection points: 6
#     Node 3, Type 0, BuildingBlock: OJICUG_clean_sbu_0, # of connection points: 6
#     Node 4, Type 0, BuildingBlock: OJICUG_clean_sbu_0, # of connection points: 6
#     Node 5, Type 0, BuildingBlock: OJICUG_clean_sbu_0, # of connection points: 6
#     Node 6, Type 0, BuildingBlock: OJICUG_clean_sbu_0, # of connection points: 6
#     Node 7, Type 0, BuildingBlock: OJICUG_clean_sbu_0, # of connection points: 6
#     Node 8, Type 0, BuildingBlock: OJICUG_clean_sbu_0, # of connection points: 6
#     Node 9, Type 0, BuildingBlock: OJICUG_clean_sbu_0, # of connection points: 6
#     Node 10, Type 0, BuildingBlock: OJICUG_clean_sbu_0, # of connection points: 6
#     Node 11, Type 0, BuildingBlock: OJICUG_clean_sbu_0, # of connection points: 6
#     Node 12, Type 0, BuildingBlock: OJICUG_clean_sbu_0, # of connection points: 6
#     Node 13, Type 0, BuildingBlock: OJICUG_clean_sbu_0, # of connection points: 6
#     Node 14, Type 0, BuildingBlock: OJICUG_clean_sbu_0, # of connection points: 6
#     Node 15, Type 0, BuildingBlock: OJICUG_clean_sbu_0, # of connection points: 6
#     Node 16, Type 0, BuildingBlock: OJICUG_clean_sbu_0, # of connection points: 6
#     Node 17, Type 0, BuildingBlock: OJICUG_clean_sbu_0, # of connection points: 6
#     Node 18, Type 0, BuildingBlock: OJICUG_clean_sbu_0, # of connection points: 6
#     Node 19, Type 0, BuildingBlock: OJICUG_clean_sbu_0, # of connection points: 6
#     Node 20, Type 0, BuildingBlock: OJICUG_clean_sbu_0, # of connection points: 6
#     Node 21, Type 0, BuildingBlock: OJICUG_clean_sbu_0, # of connection points: 6
#     Node 22, Type 0, BuildingBlock: OJICUG_clean_sbu_0, # of connection points: 6
#     Node 23, Type 0, BuildingBlock: OJICUG_clean_sbu_0, # of connection points: 6
#     Edge 24, Type (0, 0), BuildingBlock: XUDNAN_clean_linker_2, # of connection points: 2
#     Edge 25, Type (0, 0), BuildingBlock: XUDNAN_clean_linker_2, # of connection points: 2
#     Edge 26, Type (0, 0), BuildingBlock: XUDNAN_clean_linker_2, # of connection points: 2
#     Edge 27, Type (0, 0), BuildingBlock: XUDNAN_clean_linker_2, # of connection points: 2
#     Edge 28, Type (0, 0), BuildingBlock: XUDNAN_clean_linker_2, # of connection points: 2
#     Edge 29, Type (0, 0), BuildingBlock: XUDNAN_clean_linker_2, # of connection points: 2
#     Edge 30, Type (0, 0), BuildingBlock: XUDNAN_clean_linker_2, # of connection points: 2
#     Edge 31, Type (0, 0), BuildingBlock: XUDNAN_clean_linker_2, # of connection points: 2
#     Edge 32, Type (0, 0), BuildingBlock: XUDNAN_clean_linker_2, # of connection points: 2
#     Edge 33, Type (0, 0), BuildingBlock: XUDNAN_clean_linker_2, # of connection points: 2
#     Edge 34, Type (0, 0), BuildingBlock: XUDNAN_clean_linker_2, # of connection points: 2
#     Edge 35, Type (0, 0), BuildingBlock: XUDNAN_clean_linker_2, # of connection points: 2
#     Edge 36, Type (0, 0), BuildingBlock: XUDNAN_clean_linker_2, # of connection points: 2
#     Edge 37, Type (0, 0), BuildingBlock: XUDNAN_clean_linker_2, # of connection points: 2
#     Edge 38, Type (0, 0), BuildingBlock: XUDNAN_clean_linker_2, # of connection points: 2
#     Edge 39, Type (0, 0), BuildingBlock: XUDNAN_clean_linker_2, # of connection points: 2
#     Edge 40, Type (0, 0), BuildingBlock: XUDNAN_clean_linker_2, # of connection points: 2
#     Edge 41, Type (0, 0), BuildingBlock: XUDNAN_clean_linker_2, # of connection points: 2
#     Edge 42, Type (0, 0), BuildingBlock: XUDNAN_clean_linker_2, # of connection points: 2
#     Edge 43, Type (0, 0), BuildingBlock: XUDNAN_clean_linker_2, # of connection points: 2
#     Edge 44, Type (0, 0), BuildingBlock: XUDNAN_clean_linker_2, # of connection points: 2
#     Edge 45, Type (0, 0), BuildingBlock: XUDNAN_clean_linker_2, # of connection points: 2
#     Edge 46, Type (0, 0), BuildingBlock: XUDNAN_clean_linker_2, # of connection points: 2
#     Edge 47, Type (0, 0), BuildingBlock: XUDNAN_clean_linker_2, # of connection points: 2
#     Edge 48, Type (0, 0), BuildingBlock: XUDNAN_clean_linker_2, # of connection points: 2
#     Edge 49, Type (0, 0), BuildingBlock: XUDNAN_clean_linker_2, # of connection points: 2
#     Edge 50, Type (0, 0), BuildingBlock: XUDNAN_clean_linker_2, # of connection points: 2
#     Edge 51, Type (0, 0), BuildingBlock: XUDNAN_clean_linker_2, # of connection points: 2
#     Edge 52, Type (0, 0), BuildingBlock: XUDNAN_clean_linker_2, # of connection points: 2
#     Edge 53, Type (0, 0), BuildingBlock: XUDNAN_clean_linker_2, # of connection points: 2
#     Edge 54, Type (0, 0), BuildingBlock: XUDNAN_clean_linker_2, # of connection points: 2
#     Edge 55, Type (0, 0), BuildingBlock: XUDNAN_clean_linker_2, # of connection points: 2
#     Edge 56, Type (0, 0), BuildingBlock: XUDNAN_clean_linker_2, # of connection points: 2
#     Edge 57, Type (0, 0), BuildingBlock: XUDNAN_clean_linker_2, # of connection points: 2
#     Edge 58, Type (0, 0), BuildingBlock: XUDNAN_clean_linker_2, # of connection points: 2
#     Edge 59, Type (0, 0), BuildingBlock: XUDNAN_clean_linker_2, # of connection points: 2
#     Edge 60, Type (0, 0), BuildingBlock: XUDNAN_clean_linker_2, # of connection points: 2
#     Edge 61, Type (0, 0), BuildingBlock: XUDNAN_clean_linker_2, # of connection points: 2
#     Edge 62, Type (0, 0), BuildingBlock: XUDNAN_clean_linker_2, # of connection points: 2
#     Edge 63, Type (0, 0), BuildingBlock: XUDNAN_clean_linker_2, # of connection points: 2
#     Edge 64, Type (0, 0), BuildingBlock: XUDNAN_clean_linker_2, # of connection points: 2
#     Edge 65, Type (0, 0), BuildingBlock: XUDNAN_clean_linker_2, # of connection points: 2
#     Edge 66, Type (0, 0), BuildingBlock: XUDNAN_clean_linker_2, # of connection points: 2
#     Edge 67, Type (0, 0), BuildingBlock: XUDNAN_clean_linker_2, # of connection points: 2
#     Edge 68, Type (0, 0), BuildingBlock: XUDNAN_clean_linker_2, # of connection points: 2
#     Edge 69, Type (0, 0), BuildingBlock: XUDNAN_clean_linker_2, # of connection points: 2
#     Edge 70, Type (0, 0), BuildingBlock: XUDNAN_clean_linker_2, # of connection points: 2
#     Edge 71, Type (0, 0), BuildingBlock: XUDNAN_clean_linker_2, # of connection points: 2
#     Edge 72, Type (0, 0), BuildingBlock: XUDNAN_clean_linker_2, # of connection points: 2
#     Edge 73, Type (0, 0), BuildingBlock: XUDNAN_clean_linker_2, # of connection points: 2
#     Edge 74, Type (0, 0), BuildingBlock: XUDNAN_clean_linker_2, # of connection points: 2
#     Edge 75, Type (0, 0), BuildingBlock: XUDNAN_clean_linker_2, # of connection points: 2
#     Edge 76, Type (0, 0), BuildingBlock: XUDNAN_clean_linker_2, # of connection points: 2
#     Edge 77, Type (0, 0), BuildingBlock: XUDNAN_clean_linker_2, # of connection points: 2
#     Edge 78, Type (0, 0), BuildingBlock: XUDNAN_clean_linker_2, # of connection points: 2
#     Edge 79, Type (0, 0), BuildingBlock: XUDNAN_clean_linker_2, # of connection points: 2
#     Edge 80, Type (0, 0), BuildingBlock: XUDNAN_clean_linker_2, # of connection points: 2
#     Edge 81, Type (0, 0), BuildingBlock: XUDNAN_clean_linker_2, # of connection points: 2
#     Edge 82, Type (0, 0), BuildingBlock: XUDNAN_clean_linker_2, # of connection points: 2
#     Edge 83, Type (0, 0), BuildingBlock: XUDNAN_clean_linker_2, # of connection points: 2
#     Edge 84, Type (0, 0), BuildingBlock: XUDNAN_clean_linker_2, # of connection points: 2
#     Edge 85, Type (0, 0), BuildingBlock: XUDNAN_clean_linker_2, # of connection points: 2
#     Edge 86, Type (0, 0), BuildingBlock: XUDNAN_clean_linker_2, # of connection points: 2
#     Edge 87, Type (0, 0), BuildingBlock: XUDNAN_clean_linker_2, # of connection points: 2
#     Edge 88, Type (0, 0), BuildingBlock: XUDNAN_clean_linker_2, # of connection points: 2
#     Edge 89, Type (0, 0), BuildingBlock: XUDNAN_clean_linker_2, # of connection points: 2
#     Edge 90, Type (0, 0), BuildingBlock: XUDNAN_clean_linker_2, # of connection points: 2
#     Edge 91, Type (0, 0), BuildingBlock: XUDNAN_clean_linker_2, # of connection points: 2
#     Edge 92, Type (0, 0), BuildingBlock: XUDNAN_clean_linker_2, # of connection points: 2
#     Edge 93, Type (0, 0), BuildingBlock: XUDNAN_clean_linker_2, # of connection points: 2
#     Edge 94, Type (0, 0), BuildingBlock: XUDNAN_clean_linker_2, # of connection points: 2
#     Edge 95, Type (0, 0), BuildingBlock: XUDNAN_clean_linker_2, # of connection points: 2
# Relax obj value: 0.447
# Max RMSD: 0.271
# Mean RMSD: 0.271
data_MOF--net-sxi--node1-OJICUG_clean_sbu_0--edge1-XUDNAN_clean_linker_2
_symmetry_space_group_name_H-M    P1
_symmetry_Int_Tables_number       1
_symmetry_cell_setting            triclinic
loop_
_symmetry_equiv_pos_as_xyz
'x, y, z'
_cell_length_a     47.919758
_cell_length_b     47.920486
_cell_length_c     47.90651
_cell_angle_alpha  89.956967
_cell_angle_beta   89.988444
_cell_angle_gamma 89.951434
loop_
_atom_site_label
_atom_site_type_symbol
_atom_site_fract_x
_atom_site_fract_y
_atom_site_fract_z
_atom_type_partial_charge
Sc0 Sc 0.00927 0.30936 0.3916 0.0
Sc1 Sc 0.0709 0.33251 0.3613 0.0
Sc2 Sc 0.02141 0.37945 0.38664 0.0
O3 O 0.0343 0.34074 0.37993 0.0
C4 C 0.96447 0.35652 0.37984 0.0
C5 C 0.02678 0.28843 0.3347 0.0
C6 C 0.04817 0.38361 0.32539 0.0
C7 C 0.06805 0.28451 0.40446 0.0
C8 C 0.0074 0.34622 0.44394 0.0
C9 C 0.08514 0.38442 0.40106 0.0
O10 O 0.97132 0.33349 0.39083 0.0
O11 O 0.05191 0.29683 0.33891 0.0
O12 O 0.03504 0.39351 0.34626 0.0
O13 O 0.0432 0.28042 0.39639 0.0
O14 O 0.00678 0.36792 0.42826 0.0
O15 O 0.09306 0.3662 0.38324 0.0
O16 O 0.01249 0.32181 0.43456 0.0
O17 O 0.08211 0.30536 0.39591 0.0
O18 O 0.05971 0.39003 0.40554 0.0
O19 O 0.00614 0.29768 0.3487 0.0
O20 O 0.98229 0.37119 0.36736 0.0
O21 O 0.06145 0.36042 0.32627 0.0
Sc22 Sc 0.92803 0.7617 0.66304 0.0
Sc23 Sc 0.91317 0.82189 0.62636 0.0
Sc24 Sc 0.86204 0.79042 0.66629 0.0
O25 O 0.90087 0.79095 0.6519 0.0
C26 C 0.87127 0.72713 0.65722 0.0
C27 C 0.95009 0.77065 0.60481 0.0
C28 C 0.85691 0.80464 0.60039 0.0
C29 C 0.96171 0.81883 0.66817 0.0
C30 C 0.89762 0.77102 0.71986 0.0
C31 C 0.86814 0.85297 0.66397 0.0
O32 O 0.89728 0.72905 0.66215 0.0
O33 O 0.94631 0.79691 0.60696 0.0
O34 O 0.84643 0.80241 0.62496 0.0
O35 O 0.96123 0.79225 0.66609 0.0
O36 O 0.87463 0.77759 0.70809 0.0
O37 O 0.88156 0.85159 0.64111 0.0
O38 O 0.92021 0.76721 0.70656 0.0
O39 O 0.94278 0.83452 0.65776 0.0
O40 O 0.86687 0.83232 0.68023 0.0
O41 O 0.93694 0.75366 0.62017 0.0
O42 O 0.85527 0.748 0.65435 0.0
O43 O 0.883 0.80823 0.59611 0.0
Sc44 Sc 0.5002 0.68601 0.89073 0.0
Sc45 Sc 0.43244 0.66558 0.8763 0.0
Sc46 Sc 0.47833 0.61952 0.90722 0.0
O47 O 0.4706 0.65708 0.89193 0.0
C48 C 0.53361 0.63091 0.87391 0.0
C49 C 0.47021 0.70617 0.84006 0.0
C50 C 0.4481 0.60984 0.84819 0.0
C51 C 0.44433 0.71544 0.91491 0.0
C52 C 0.51205 0.65895 0.94948 0.0
C53 C 0.41773 0.62075 0.92322 0.0
O54 O 0.53193 0.65735 0.87624 0.0
O55 O 0.4464 0.70094 0.85049 0.0
O56 O 0.45672 0.60078 0.87187 0.0
O57 O 0.46957 0.71663 0.90587 0.0
O58 O 0.50118 0.63567 0.94261 0.0
O59 O 0.41113 0.63276 0.90042 0.0
O60 O 0.51265 0.67999 0.93335 0.0
O61 O 0.42763 0.69546 0.90903 0.0
O62 O 0.44223 0.62233 0.93263 0.0
O63 O 0.49115 0.69231 0.8477 0.0
O64 O 0.51535 0.61441 0.88351 0.0
O65 O 0.44003 0.635 0.84416 0.0
Sc66 Sc 0.55595 0.22355 0.16109 0.0
Sc67 Sc 0.58269 0.172 0.11631 0.0
Sc68 Sc 0.62619 0.22616 0.14102 0.0
O69 O 0.58836 0.2072 0.1394 0.0
C70 C 0.58476 0.27681 0.13309 0.0
C71 C 0.52711 0.20587 0.10336 0.0
C72 C 0.62892 0.20268 0.07867 0.0
C73 C 0.54381 0.15979 0.16989 0.0
C74 C 0.60469 0.23786 0.2034 0.0
C75 C 0.63999 0.16166 0.14974 0.0
O76 O 0.56427 0.26431 0.14448 0.0
O77 O 0.54684 0.19034 0.0942 0.0
O78 O 0.63636 0.21917 0.09794 0.0
O79 O 0.54465 0.18448 0.17938 0.0
O80 O 0.62358 0.23658 0.18486 0.0
O81 O 0.61807 0.15212 0.13772 0.0
O82 O 0.57937 0.23251 0.19811 0.0
O83 O 0.5551 0.15295 0.14683 0.0
O84 O 0.64531 0.18758 0.15203 0.0
O85 O 0.52771 0.21706 0.12734 0.0
O86 O 0.60867 0.26573 0.12985 0.0
O87 O 0.60947 0.18492 0.08193 0.0
Sc88 Sc 0.51745 0.12676 0.6086 0.0
Sc89 Sc 0.57019 0.16732 0.63764 0.0
Sc90 Sc 0.51659 0.19799 0.59862 0.0
O91 O 0.53499 0.16394 0.61504 0.0
C92 C 0.50996 0.15801 0.54915 0.0
C93 C 0.58073 0.11348 0.59907 0.0
C94 C 0.58048 0.21199 0.59115 0.0
C95 C 0.53998 0.11993 0.67157 0.0
C96 C 0.4642 0.15907 0.61185 0.0
C97 C 0.53125 0.21832 0.65828 0.0
O98 O 0.50566 0.13777 0.566 0.0
O99 O 0.58918 0.13051 0.61782 0.0
O100 O 0.55528 0.22019 0.59181 0.0
O101 O 0.52757 0.11114 0.64978 0.0
O102 O 0.47531 0.18027 0.60049 0.0
O103 O 0.5546 0.20525 0.65857 0.0
O104 O 0.47861 0.14117 0.62482 0.0
O105 O 0.55417 0.14239 0.67174 0.0
O106 O 0.51279 0.21486 0.63954 0.0
O107 O 0.5553 0.11116 0.59218 0.0
O108 O 0.51906 0.18165 0.55708 0.0
O109 O 0.58904 0.19107 0.60493 0.0
Sc110 Sc 0.13905 0.2773 0.86876 0.0
Sc111 Sc 0.08518 0.32301 0.88558 0.0
Sc112 Sc 0.07146 0.25791 0.85597 0.0
O113 O 0.09808 0.28622 0.87033 0.0
C114 C 0.1209 0.25806 0.81036 0.0
C115 C 0.13971 0.33953 0.85423 0.0
C116 C 0.04504 0.3134 0.83263 0.0
C117 C 0.13369 0.30054 0.92817 0.0
C118 C 0.11345 0.21712 0.87645 0.0
C119 C 0.03823 0.28246 0.90861 0.0
O120 O 0.13693 0.27469 0.82368 0.0
O121 O 0.11383 0.34432 0.85726 0.0
O122 O 0.0514 0.2878 0.8299 0.0
O123 O 0.14072 0.27983 0.91302 0.0
O124 O 0.08985 0.22722 0.8823 0.0
O125 O 0.05345 0.30404 0.91239 0.0
O126 O 0.13351 0.23287 0.86963 0.0
O127 O 0.11622 0.31936 0.92003 0.0
O128 O 0.04188 0.26542 0.88864 0.0
O129 O 0.15144 0.32008 0.86758 0.0
O130 O 0.09889 0.24752 0.82113 0.0
O131 O 0.05401 0.32854 0.8527 0.0
Sc132 Sc 0.96961 0.8877 0.10138 0.0
Sc133 Sc 0.92287 0.83757 0.12721 0.0
Sc134 Sc 0.97512 0.81846 0.07871 0.0
O135 O 0.95587 0.84789 0.10246 0.0
C136 C 0.97964 0.87074 0.03794 0.0
C137 C 0.90359 0.89488 0.09923 0.0
C138 C 0.91232 0.80056 0.07227 0.0
C139 C 0.95325 0.88355 0.16547 0.0
C140 C 0.02575 0.8528 0.10331 0.0
C141 C 0.96245 0.78506 0.13546 0.0
O142 O 0.97363 0.88858 0.05659 0.0
O143 O 0.89736 0.87078 0.1088 0.0
O144 O 0.93625 0.80432 0.06141 0.0
O145 O 0.96819 0.89275 0.1457 0.0
O146 O 0.01572 0.83002 0.0941 0.0
O147 O 0.94585 0.80291 0.1464 0.0
O148 O 0.01171 0.87504 0.1061 0.0
O149 O 0.93514 0.86443 0.16189 0.0
O150 O 0.97242 0.78795 0.1111 0.0
O151 O 0.92849 0.90354 0.09685 0.0
O152 O 0.98135 0.8448 0.04292 0.0
O153 O 0.90574 0.80976 0.0963 0.0
Sc154 Sc 0.37188 0.71974 0.34254 0.0
Sc155 Sc 0.42034 0.67973 0.37676 0.0
Sc156 Sc 0.43619 0.74783 0.35861 0.0
O157 O 0.40945 0.71636 0.35934 0.0
C158 C 0.40828 0.75537 0.29923 0.0
C159 C 0.37731 0.65979 0.33073 0.0
C160 C 0.46924 0.69317 0.33711 0.0
C161 C 0.36339 0.69163 0.4031 0.0
C162 C 0.37787 0.77681 0.37378 0.0
C163 C 0.45761 0.7213 0.4119 0.0
O164 O 0.38593 0.74288 0.30635 0.0
O165 O 0.38866 0.65539 0.35431 0.0
O166 O 0.46891 0.71894 0.3446 0.0
O167 O 0.35432 0.69754 0.37856 0.0
O168 O 0.40447 0.77714 0.37198 0.0
O169 O 0.45402 0.69694 0.40222 0.0
O170 O 0.36285 0.75714 0.36445 0.0
O171 O 0.38922 0.6871 0.4082 0.0
O172 O 0.44486 0.74201 0.40188 0.0
O173 O 0.38033 0.68313 0.31912 0.0
O174 O 0.42904 0.75787 0.31549 0.0
O175 O 0.45052 0.67552 0.34431 0.0
Sc176 Sc 0.40231 0.01823 0.38638 0.0
Sc177 Sc 0.3734 0.06636 0.34043 0.0
Sc178 Sc 0.39047 0.99921 0.31758 0.0
O179 O 0.38882 0.02774 0.34809 0.0
C180 C 0.44774 0.98729 0.34851 0.0
C181 C 0.4198 0.07979 0.38658 0.0
C182 C 0.41468 0.0562 0.29099 0.0
C183 C 0.34325 0.04912 0.39584 0.0
C184 C 0.36997 0.96367 0.36984 0.0
C185 C 0.33899 0.02975 0.29601 0.0
O186 O 0.43935 0.99723 0.37165 0.0
O187 O 0.39811 0.08727 0.37308 0.0
O188 O 0.4075 0.0305 0.28938 0.0
O189 O 0.36602 0.03827 0.40461 0.0
O190 O 0.37345 0.9668 0.3437 0.0
O191 O 0.34741 0.05334 0.30481 0.0
O192 O 0.37926 0.98044 0.38798 0.0
O193 O 0.34044 0.05889 0.37104 0.0
O194 O 0.34845 0.00724 0.30579 0.0
O195 O 0.42719 0.05457 0.38789 0.0
O196 O 0.4327 0.98686 0.32671 0.0
O197 O 0.4065 0.07249 0.31053 0.0
Sc198 Sc 0.22675 0.15485 0.55107 0.0
Sc199 Sc 0.17525 0.11992 0.58659 0.0
Sc200 Sc 0.23377 0.14353 0.62276 0.0
O201 O 0.21181 0.13995 0.5875 0.0
C202 C 0.27681 0.12156 0.57605 0.0
C203 C 0.2019 0.10006 0.53121 0.0
C204 C 0.20628 0.08413 0.63396 0.0
C205 C 0.16672 0.17342 0.54592 0.0
C206 C 0.25396 0.19822 0.59251 0.0
C207 C 0.17159 0.15959 0.64025 0.0
O208 O 0.26176 0.12709 0.55473 0.0
O209 O 0.19265 0.09168 0.5547 0.0
O210 O 0.22587 0.1016 0.63741 0.0
O211 O 0.19174 0.18217 0.54765 0.0
O212 O 0.24463 0.18648 0.61435 0.0
O213 O 0.15943 0.14752 0.61965 0.0
O214 O 0.25168 0.18747 0.56856 0.0
O215 O 0.15917 0.14969 0.55572 0.0
O216 O 0.1978 0.15871 0.64461 0.0
O217 O 0.20352 0.12582 0.52638 0.0
O218 O 0.27019 0.1284 0.60102 0.0
O219 O 0.18635 0.08825 0.61694 0.0
Sc220 Sc 0.09936 0.98379 0.79582 0.0
Sc221 Sc 0.13576 0.93529 0.83501 0.0
Sc222 Sc 0.11814 0.99914 0.86461 0.0
O223 O 0.11772 0.97303 0.83207 0.0
C224 C 0.13362 0.0374 0.81218 0.0
C225 C 0.15693 0.9573 0.77785 0.0
C226 C 0.17429 0.96857 0.87878 0.0
C227 C 0.08428 0.92241 0.79458 0.0
C228 C 0.05835 0.01378 0.83867 0.0
C229 C 0.09639 0.94042 0.88774 0.0
O230 O 0.12283 0.02158 0.79385 0.0
O231 O 0.1644 0.94832 0.80189 0.0
O232 O 0.16075 0.99116 0.87647 0.0
O233 O 0.07466 0.94696 0.79595 0.0
O234 O 0.07532 0.01179 0.85892 0.0
O235 O 0.10586 0.92514 0.86788 0.0
O236 O 0.06441 0.00539 0.8143 0.0
O237 O 0.10824 0.9162 0.80425 0.0
O238 O 0.10259 0.96617 0.89092 0.0
O239 O 0.13177 0.9635 0.77204 0.0
O240 O 0.13285 0.03245 0.83837 0.0
O241 O 0.16653 0.94644 0.86643 0.0
Sc242 Sc 0.27795 0.84543 0.05776 0.0
Sc243 Sc 0.3304 0.89079 0.0836 0.0
Sc244 Sc 0.28185 0.85902 0.12909 0.0
O245 O 0.29675 0.86525 0.09011 0.0
C246 C 0.2269 0.86752 0.0943 0.0
C247 C 0.29125 0.9057 0.03161 0.0
C248 C 0.30113 0.9229 0.13434 0.0
C249 C 0.34148 0.84056 0.04041 0.0
C250 C 0.27055 0.7982 0.10336 0.0
C251 C 0.34736 0.85277 0.13631 0.0
O252 O 0.23703 0.85815 0.07158 0.0
O253 O 0.30894 0.91386 0.04992 0.0
O254 O 0.28745 0.90153 0.14176 0.0
O255 O 0.3168 0.83097 0.04132 0.0
O256 O 0.27287 0.81516 0.12358 0.0
O257 O 0.35431 0.86894 0.11617 0.0
O258 O 0.27333 0.80586 0.07822 0.0
O259 O 0.34888 0.86251 0.05343 0.0
O260 O 0.32223 0.8477 0.143 0.0
O261 O 0.27991 0.88182 0.03238 0.0
O262 O 0.24078 0.8699 0.11671 0.0
O263 O 0.31747 0.92278 0.11339 0.0
Sc264 Sc 0.90711 0.4839 0.69573 0.0
Sc265 Sc 0.87412 0.42753 0.6614 0.0
Sc266 Sc 0.90224 0.48348 0.62277 0.0
O267 O 0.89454 0.46484 0.65995 0.0
C268 C 0.87914 0.53269 0.66049 0.0
C269 C 0.84889 0.45847 0.71466 0.0
C270 C 0.84169 0.45722 0.61126 0.0
C271 C 0.92267 0.42081 0.70746 0.0
C272 C 0.95706 0.50149 0.65628 0.0
C273 C 0.91687 0.42024 0.60978 0.0
O274 O 0.88672 0.52208 0.68366 0.0
O275 O 0.84556 0.44119 0.69467 0.0
O276 O 0.86179 0.47363 0.60593 0.0
O277 O 0.92756 0.44674 0.71044 0.0
O278 O 0.94421 0.49636 0.63368 0.0
O279 O 0.90063 0.40997 0.62835 0.0
O280 O 0.94614 0.49816 0.68003 0.0
O281 O 0.90357 0.41137 0.69152 0.0
O282 O 0.91976 0.44631 0.60609 0.0
O283 O 0.87033 0.47343 0.71735 0.0
O284 O 0.8843 0.52167 0.63695 0.0
O285 O 0.8426 0.4396 0.63115 0.0
Sc286 Sc 0.78027 0.64631 0.86073 0.0
Sc287 Sc 0.82264 0.61922 0.91388 0.0
Sc288 Sc 0.7545 0.6416 0.92865 0.0
O289 O 0.78565 0.63561 0.90112 0.0
C290 C 0.74795 0.69615 0.89138 0.0
C291 C 0.84198 0.66497 0.86984 0.0
C292 C 0.8094 0.66421 0.95984 0.0
C293 C 0.81079 0.58643 0.85807 0.0
C294 C 0.72285 0.61819 0.87486 0.0
C295 C 0.78004 0.58793 0.95533 0.0
O296 O 0.75929 0.68525 0.86999 0.0
O297 O 0.84803 0.64426 0.88533 0.0
O298 O 0.78309 0.66014 0.95843 0.0
O299 O 0.80041 0.60824 0.84678 0.0
O300 O 0.724 0.62371 0.90082 0.0
O301 O 0.80464 0.59322 0.94681 0.0
O302 O 0.74161 0.62482 0.85748 0.0
O303 O 0.81838 0.58566 0.88365 0.0
O304 O 0.75891 0.60104 0.94647 0.0
O305 O 0.81763 0.66967 0.86097 0.0
O306 O 0.74548 0.68315 0.91432 0.0
O307 O 0.82694 0.65225 0.94378 0.0
Sc308 Sc 0.60607 0.53008 0.11911 0.0
Sc309 Sc 0.63932 0.57603 0.16557 0.0
Sc310 Sc 0.58853 0.5277 0.18853 0.0
O311 O 0.61173 0.5447 0.15796 0.0
C312 C 0.5438 0.52353 0.14327 0.0
C313 C 0.60346 0.59527 0.11219 0.0
C314 C 0.59065 0.5912 0.20819 0.0
C315 C 0.67075 0.54684 0.11542 0.0
C316 C 0.60431 0.47503 0.15013 0.0
C317 C 0.64828 0.53331 0.21676 0.0
O318 O 0.56264 0.51948 0.12506 0.0
O319 O 0.62211 0.60044 0.13066 0.0
O320 O 0.5814 0.56645 0.20908 0.0
O321 O 0.64805 0.53736 0.1058 0.0
O322 O 0.59181 0.48657 0.17055 0.0
O323 O 0.65694 0.55365 0.20164 0.0
O324 O 0.61717 0.48871 0.13144 0.0
O325 O 0.67205 0.55886 0.13905 0.0
O326 O 0.62505 0.5211 0.21287 0.0
O327 O 0.59447 0.57089 0.10674 0.0
O328 O 0.54953 0.5332 0.16719 0.0
O329 O 0.61096 0.59836 0.19272 0.0
Sc330 Sc 0.74203 0.3626 0.37735 0.0
Sc331 Sc 0.68372 0.37856 0.41794 0.0
Sc332 Sc 0.74187 0.34881 0.44784 0.0
O333 O 0.72235 0.36319 0.41382 0.0
C334 C 0.76775 0.30846 0.4027 0.0
C335 C 0.68004 0.34235 0.3625 0.0
C336 C 0.68493 0.32225 0.45478 0.0
C337 C 0.70963 0.41958 0.37154 0.0
C338 C 0.78577 0.38769 0.42132 0.0
C339 C 0.71058 0.39917 0.47274 0.0
O340 O 0.75493 0.31989 0.38257 0.0
O341 O 0.66865 0.3512 0.385 0.0
O342 O 0.7108 0.31774 0.45104 0.0
O343 O 0.73119 0.40474 0.36774 0.0
O344 O 0.77258 0.38083 0.4434 0.0
O345 O 0.69902 0.40713 0.45017 0.0
O346 O 0.77914 0.37894 0.39698 0.0
O347 O 0.68974 0.4121 0.3876 0.0
O348 O 0.7178 0.37403 0.47596 0.0
O349 O 0.70558 0.3468 0.35642 0.0
O350 O 0.76873 0.31955 0.42666 0.0
O351 O 0.67321 0.3455 0.44835 0.0
Sc352 Sc 0.30064 0.40361 0.02427 0.0
Sc353 Sc 0.33537 0.36719 0.07785 0.0
Sc354 Sc 0.37193 0.38906 0.01782 0.0
O355 O 0.33603 0.38646 0.03996 0.0
C356 C 0.32663 0.37342 0.97164 0.0
C357 C 0.27766 0.34771 0.05233 0.0
C358 C 0.37987 0.32885 0.0451 0.0
C359 C 0.29542 0.42029 0.08728 0.0
C360 C 0.34497 0.44813 0.00293 0.0
C361 C 0.39099 0.40407 0.07989 0.0
O362 O 0.30574 0.38199 0.98557 0.0
O363 O 0.29951 0.3412 0.06618 0.0
O364 O 0.38368 0.34643 0.02564 0.0
O365 O 0.29282 0.42638 0.06165 0.0
O366 O 0.36601 0.43249 0.00689 0.0
O367 O 0.37038 0.39246 0.0922 0.0
O368 O 0.32023 0.44012 0.00753 0.0
O369 O 0.30819 0.39858 0.09583 0.0
O370 O 0.3945 0.40315 0.05359 0.0
O371 O 0.27542 0.37005 0.03842 0.0
O372 O 0.35167 0.37541 0.98028 0.0
O373 O 0.36342 0.33355 0.06548 0.0
Sc374 Sc 0.87026 0.11002 0.97775 0.0
Sc375 Sc 0.83248 0.13821 0.92127 0.0
Sc376 Sc 0.80009 0.09506 0.97122 0.0
O377 O 0.83427 0.11464 0.95647 0.0
C378 C 0.84222 0.04934 0.98608 0.0
C379 C 0.88885 0.10121 0.91507 0.0
C380 C 0.78968 0.08995 0.90582 0.0
C381 C 0.87861 0.17226 0.95442 0.0
C382 C 0.83104 0.11345 0.02754 0.0
C383 C 0.77722 0.15516 0.95613 0.0
O384 O 0.86074 0.0678 0.99062 0.0
O385 O 0.87032 0.11769 0.90481 0.0
O386 O 0.78424 0.08473 0.93113 0.0
O387 O 0.88574 0.15113 0.9687 0.0
O388 O 0.81192 0.10157 0.01363 0.0
O389 O 0.79434 0.15968 0.93601 0.0
O390 O 0.85205 0.12474 0.01595 0.0
O391 O 0.85748 0.17206 0.93832 0.0
O392 O 0.77787 0.1335 0.97139 0.0
O393 O 0.88996 0.0949 0.94087 0.0
O394 O 0.81994 0.05478 0.9728 0.0
O395 O 0.80776 0.1079 0.89849 0.0
Sc396 Sc 0.14614 0.5641 0.25046 0.0
Sc397 Sc 0.12514 0.58771 0.184 0.0
Sc398 Sc 0.13842 0.63507 0.23884 0.0
O399 O 0.13638 0.59565 0.2242 0.0
C400 C 0.10741 0.60166 0.28728 0.0
C401 C 0.09936 0.53453 0.21356 0.0
C402 C 0.08318 0.6371 0.20169 0.0
C403 C 0.17784 0.54723 0.19572 0.0
C404 C 0.18979 0.60939 0.27086 0.0
C405 C 0.16402 0.642 0.17792 0.0
O406 O 0.1148 0.57742 0.2794 0.0
O407 O 0.09646 0.55364 0.19522 0.0
O408 O 0.09844 0.64509 0.22181 0.0
O409 O 0.17717 0.54954 0.22216 0.0
O410 O 0.17924 0.62934 0.257 0.0
O411 O 0.15313 0.61994 0.16773 0.0
O412 O 0.17811 0.58582 0.2728 0.0
O413 O 0.1595 0.55807 0.17956 0.0
O414 O 0.15959 0.64993 0.20276 0.0
O415 O 0.11708 0.53598 0.23297 0.0
O416 O 0.11688 0.62396 0.27645 0.0
O417 O 0.09004 0.61717 0.1853 0.0
Sc418 Sc 0.67801 0.8925 0.49864 0.0
Sc419 Sc 0.6654 0.86897 0.43143 0.0
Sc420 Sc 0.6147 0.90515 0.46705 0.0
O421 O 0.65269 0.88898 0.46618 0.0
C422 C 0.61891 0.87865 0.52655 0.0
C423 C 0.70157 0.83797 0.47774 0.0
C424 C 0.60841 0.84282 0.44396 0.0
C425 C 0.71305 0.91056 0.44412 0.0
C426 C 0.64882 0.95156 0.50088 0.0
C427 C 0.62391 0.91389 0.40608 0.0
O428 O 0.6454 0.88118 0.52773 0.0
O429 O 0.69851 0.84511 0.45235 0.0
O430 O 0.59872 0.8676 0.44686 0.0
O431 O 0.7118 0.90463 0.47026 0.0
O432 O 0.62703 0.94293 0.48836 0.0
O433 O 0.63505 0.88986 0.40385 0.0
O434 O 0.67003 0.93617 0.50486 0.0
O435 O 0.69546 0.90153 0.42615 0.0
O436 O 0.62388 0.92632 0.42923 0.0
O437 O 0.68695 0.84903 0.49658 0.0
O438 O 0.60445 0.88575 0.50556 0.0
O439 O 0.63426 0.83765 0.43978 0.0
Sc440 Sc 0.35139 0.37433 0.72556 0.0
Sc441 Sc 0.383 0.41756 0.67583 0.0
Sc442 Sc 0.33416 0.44395 0.7245 0.0
O443 O 0.35639 0.41209 0.70826 0.0
C444 C 0.28903 0.39948 0.73026 0.0
C445 C 0.34639 0.36324 0.66099 0.0
C446 C 0.33615 0.46177 0.66041 0.0
C447 C 0.41537 0.36921 0.7073 0.0
C448 C 0.34943 0.40761 0.77859 0.0
C449 C 0.39492 0.46905 0.71736 0.0
O450 O 0.30789 0.38155 0.73565 0.0
O451 O 0.36399 0.38205 0.65361 0.0
O452 O 0.3277 0.46409 0.68535 0.0
O453 O 0.39333 0.36023 0.71878 0.0
O454 O 0.33636 0.42724 0.76636 0.0
O455 O 0.40228 0.45336 0.69695 0.0
O456 O 0.3636 0.38964 0.76538 0.0
O457 O 0.4157 0.39145 0.69291 0.0
O458 O 0.37172 0.46695 0.73013 0.0
O459 O 0.33925 0.35888 0.68617 0.0
O460 O 0.29482 0.42306 0.71967 0.0
O461 O 0.35498 0.44459 0.65322 0.0
Sc462 Sc 0.11709 0.59269 0.53271 0.0
Sc463 Sc 0.16781 0.6282 0.56818 0.0
Sc464 Sc 0.18056 0.60347 0.50143 0.0
O465 O 0.15519 0.60821 0.5337 0.0
C466 C 0.15166 0.54561 0.4996 0.0
C467 C 0.1286 0.58069 0.59276 0.0
C468 C 0.2176 0.58953 0.55536 0.0
C469 C 0.10967 0.65321 0.55998 0.0
C470 C 0.12097 0.61604 0.47342 0.0
C471 C 0.202 0.65945 0.52007 0.0
O472 O 0.12894 0.55594 0.50888 0.0
O473 O 0.1392 0.60493 0.59592 0.0
O474 O 0.21573 0.59497 0.52923 0.0
O475 O 0.10065 0.6284 0.5559 0.0
O476 O 0.14688 0.60995 0.47186 0.0
O477 O 0.19894 0.65323 0.54577 0.0
O478 O 0.1069 0.61471 0.49572 0.0
O479 O 0.13565 0.65879 0.56157 0.0
O480 O 0.18777 0.64738 0.50142 0.0
O481 O 0.12736 0.56967 0.56891 0.0
O482 O 0.17427 0.55936 0.49888 0.0
O483 O 0.19932 0.5972 0.57317 0.0
Sc484 Sc 0.63505 0.94025 0.74883 0.0
Sc485 Sc 0.62066 0.91866 0.81634 0.0
Sc486 Sc 0.64429 0.87108 0.76714 0.0
O487 O 0.63347 0.90998 0.77725 0.0
C488 C 0.61064 0.88871 0.71441 0.0
C489 C 0.58454 0.96205 0.78046 0.0
C490 C 0.58776 0.86461 0.80296 0.0
C491 C 0.662 0.96687 0.80406 0.0
C492 C 0.68973 0.90727 0.73396 0.0
C493 C 0.66585 0.8703 0.82689 0.0
O494 O 0.61776 0.91422 0.71638 0.0
O495 O 0.59482 0.95461 0.80386 0.0
O496 O 0.6096 0.85446 0.79139 0.0
O497 O 0.65255 0.96906 0.77918 0.0
O498 O 0.67942 0.88389 0.74137 0.0
O499 O 0.64509 0.88467 0.83545 0.0
O500 O 0.67718 0.93034 0.73742 0.0
O501 O 0.65511 0.94704 0.82053 0.0
O502 O 0.67238 0.86946 0.80134 0.0
O503 O 0.5931 0.95167 0.7578 0.0
O504 O 0.61738 0.87021 0.73203 0.0
O505 O 0.58625 0.88999 0.81108 0.0
Sc506 Sc 0.84113 0.04718 0.27708 0.0
Sc507 Sc 0.88638 0.07858 0.32605 0.0
Sc508 Sc 0.85923 0.11674 0.26923 0.0
O509 O 0.86241 0.0808 0.29096 0.0
C510 C 0.86706 0.07378 0.2213 0.0
C511 C 0.90014 0.02127 0.2949 0.0
C512 C 0.92126 0.12427 0.29293 0.0
C513 C 0.83458 0.03921 0.34228 0.0
C514 C 0.79774 0.09199 0.25864 0.0
C515 C 0.85006 0.13514 0.33202 0.0
O516 O 0.85403 0.055 0.23488 0.0
O517 O 0.90816 0.04114 0.31084 0.0
O518 O 0.90061 0.13083 0.27785 0.0
O519 O 0.82616 0.03642 0.31738 0.0
O520 O 0.81673 0.11022 0.25597 0.0
O521 O 0.86568 0.11606 0.34257 0.0
O522 O 0.80234 0.06856 0.26996 0.0
O523 O 0.85632 0.05308 0.3486 0.0
O524 O 0.84481 0.13704 0.30601 0.0
O525 O 0.87676 0.02129 0.28247 0.0
O526 O 0.87372 0.09722 0.2318 0.0
O527 O 0.92045 0.10395 0.30998 0.0
H528 H 0.92515 0.38812 0.35332 0.0
H529 H 0.95074 0.35761 0.43444 0.0
H530 H 0.91256 0.38306 0.45663 0.0
H531 H 0.88776 0.45636 0.37993 0.0
H532 H 0.86007 0.45106 0.35504 0.0
H533 H 0.89541 0.44139 0.34628 0.0
H534 H 0.87929 0.39098 0.33497 0.0
H535 H 0.84423 0.40088 0.34286 0.0
H536 H 0.85989 0.37172 0.36088 0.0
H537 H 0.86761 0.39986 0.46905 0.0
H538 H 0.81685 0.39438 0.46873 0.0
H539 H 0.81544 0.41266 0.38014 0.0
C540 C 0.92285 0.38759 0.3758 0.0
C541 C 0.94077 0.37121 0.39222 0.0
C542 C 0.9372 0.37019 0.42149 0.0
C543 C 0.91583 0.38507 0.43437 0.0
C544 C 0.89772 0.40047 0.41767 0.0
C545 C 0.90072 0.40148 0.38887 0.0
C546 C 0.87464 0.41275 0.37516 0.0
C547 C 0.87979 0.44214 0.36342 0.0
C548 C 0.86388 0.39287 0.35219 0.0
C549 C 0.85541 0.4139 0.40027 0.0
C550 C 0.86982 0.40907 0.42486 0.0
C551 C 0.85611 0.40421 0.4501 0.0
C552 C 0.82717 0.40104 0.44974 0.0
C553 C 0.81259 0.40224 0.42416 0.0
C554 C 0.82643 0.4114 0.39984 0.0
H555 H 0.88122 0.57256 0.70061 0.0
H556 H 0.84513 0.55361 0.61986 0.0
H557 H 0.82788 0.60188 0.61608 0.0
H558 H 0.82857 0.62883 0.72172 0.0
H559 H 0.85538 0.65046 0.73652 0.0
H560 H 0.8582 0.613 0.73871 0.0
H561 H 0.90609 0.61314 0.71523 0.0
H562 H 0.9056 0.65041 0.71294 0.0
H563 H 0.91053 0.62998 0.68183 0.0
H564 H 0.82463 0.65323 0.61559 0.0
H565 H 0.83781 0.70322 0.61777 0.0
H566 H 0.8782 0.68891 0.69732 0.0
C567 C 0.86863 0.57831 0.68274 0.0
C568 C 0.86455 0.5596 0.66055 0.0
C569 C 0.84859 0.56785 0.63707 0.0
C570 C 0.83841 0.59511 0.63489 0.0
C571 C 0.84425 0.6137 0.65641 0.0
C572 C 0.85883 0.60555 0.68005 0.0
C573 C 0.86739 0.63033 0.69743 0.0
C574 C 0.85144 0.63065 0.72525 0.0
C575 C 0.89925 0.63099 0.7021 0.0
C576 C 0.85778 0.65368 0.67859 0.0
C577 C 0.8433 0.6438 0.65567 0.0
C578 C 0.83524 0.66134 0.6338 0.0
C579 C 0.84288 0.68954 0.63506 0.0
C580 C 0.85904 0.69932 0.65761 0.0
C581 C 0.86573 0.68153 0.67995 0.0
H582 H 0.6891 0.64668 0.84128 0.0
H583 H 0.69727 0.56866 0.8858 0.0
H584 H 0.64835 0.55699 0.87446 0.0
H585 H 0.63304 0.66506 0.87186 0.0
H586 H 0.61545 0.68268 0.8436 0.0
H587 H 0.65261 0.67948 0.8431 0.0
H588 H 0.65034 0.65527 0.79483 0.0
H589 H 0.61284 0.65862 0.79511 0.0
H590 H 0.62872 0.62486 0.79017 0.0
H591 H 0.59815 0.55924 0.87003 0.0
H592 H 0.55118 0.57705 0.87945 0.0
H593 H 0.57364 0.65665 0.84259 0.0
C594 C 0.68077 0.6265 0.84715 0.0
C595 C 0.69655 0.60813 0.86366 0.0
C596 C 0.68525 0.58255 0.8726 0.0
C597 C 0.65765 0.57574 0.86599 0.0
C598 C 0.64177 0.59508 0.85096 0.0
C599 C 0.65296 0.6201 0.8417 0.0
C600 C 0.6304 0.64052 0.83318 0.0
C601 C 0.63304 0.66852 0.84891 0.0
C602 C 0.63058 0.64507 0.80143 0.0
C603 C 0.60488 0.62434 0.84209 0.0
C604 C 0.61178 0.59754 0.85049 0.0
C605 C 0.59237 0.57989 0.86292 0.0
C606 C 0.56573 0.59032 0.86836 0.0
C607 C 0.55905 0.61843 0.86211 0.0
C608 C 0.57836 0.63511 0.84756 0.0
H609 H 0.62584 0.31448 0.12111 0.0
H610 H 0.53602 0.30634 0.13055 0.0
H611 H 0.53133 0.3574 0.12945 0.0
H612 H 0.63445 0.36631 0.16616 0.0
H613 H 0.66075 0.38575 0.14758 0.0
H614 H 0.65725 0.3489 0.14179 0.0
H615 H 0.6505 0.35699 0.08877 0.0
H616 H 0.65477 0.39398 0.09417 0.0
H617 H 0.62405 0.38096 0.07682 0.0
H618 H 0.53701 0.40713 0.13844 0.0
H619 H 0.55225 0.45452 0.15092 0.0
H620 H 0.63829 0.43176 0.13424 0.0
C621 C 0.60507 0.32338 0.12179 0.0
C622 C 0.58132 0.3065 0.1261 0.0
C623 C 0.55454 0.31891 0.1274 0.0
C624 C 0.55163 0.34789 0.12665 0.0
C625 C 0.57565 0.36399 0.12417 0.0
C626 C 0.60183 0.35228 0.12109 0.0
C627 C 0.6245 0.37426 0.12212 0.0
C628 C 0.64545 0.36844 0.14583 0.0
C629 C 0.63933 0.37669 0.09378 0.0
C630 C 0.60707 0.39984 0.12812 0.0
C631 C 0.57892 0.39341 0.12887 0.0
C632 C 0.55886 0.41266 0.13716 0.0
C633 C 0.56776 0.4393 0.14465 0.0
C634 C 0.59641 0.44638 0.14367 0.0
C635 C 0.61629 0.42664 0.13491 0.0
H636 H 0.4232 0.12961 0.63861 0.0
H637 H 0.44559 0.16677 0.55909 0.0
H638 H 0.40368 0.14671 0.53759 0.0
H639 H 0.38685 0.06589 0.61001 0.0
H640 H 0.35983 0.06784 0.63612 0.0
H641 H 0.3947 0.07943 0.64422 0.0
H642 H 0.3758 0.12815 0.6587 0.0
H643 H 0.34108 0.11618 0.65164 0.0
H644 H 0.35396 0.14722 0.63468 0.0
H645 H 0.35789 0.12825 0.52579 0.0
H646 H 0.30689 0.12414 0.52763 0.0
H647 H 0.31212 0.09962 0.61467 0.0
C648 C 0.41922 0.13325 0.61665 0.0
C649 C 0.43738 0.14978 0.60056 0.0
C650 C 0.43163 0.15447 0.57192 0.0
C651 C 0.40823 0.14262 0.55934 0.0
C652 C 0.39071 0.12622 0.57566 0.0
C653 C 0.39554 0.12205 0.60386 0.0
C654 C 0.37093 0.10812 0.61775 0.0
C655 C 0.37855 0.07856 0.6276 0.0
C656 C 0.35978 0.126 0.64209 0.0
C657 C 0.35076 0.10716 0.59342 0.0
C658 C 0.36317 0.11627 0.569 0.0
C659 C 0.34795 0.12066 0.5446 0.0
C660 C 0.31893 0.11817 0.54582 0.0
C661 C 0.30566 0.11213 0.57149 0.0
C662 C 0.32187 0.1043 0.59482 0.0
H663 H 0.15455 0.17801 0.88062 0.0
H664 H 0.07463 0.19556 0.84183 0.0
H665 H 0.08169 0.15653 0.80933 0.0
H666 H 0.19149 0.15176 0.8181 0.0
H667 H 0.2084 0.12393 0.83699 0.0
H668 H 0.20001 0.15619 0.85448 0.0
H669 H 0.17133 0.12958 0.89218 0.0
H670 H 0.18122 0.09752 0.87561 0.0
H671 H 0.1448 0.10533 0.88112 0.0
H672 H 0.09717 0.1175 0.78058 0.0
H673 H 0.10655 0.06789 0.77336 0.0
H674 H 0.17342 0.07131 0.83411 0.0
C675 C 0.13851 0.17332 0.86541 0.0
C676 C 0.11418 0.18964 0.86353 0.0
C677 C 0.09334 0.18299 0.84371 0.0
C678 C 0.09755 0.16146 0.82461 0.0
C679 C 0.12256 0.14677 0.82583 0.0
C680 C 0.142 0.1514 0.84662 0.0
C681 C 0.16414 0.12897 0.84691 0.0
C682 C 0.1927 0.14094 0.83863 0.0
C683 C 0.1654 0.11448 0.87563 0.0
C684 C 0.1529 0.11003 0.82428 0.0
C685 C 0.13021 0.12195 0.81095 0.0
C686 C 0.11487 0.10787 0.79078 0.0
C687 C 0.12056 0.07967 0.78662 0.0
C688 C 0.14016 0.06597 0.80391 0.0
C689 C 0.15836 0.08166 0.82079 0.0
H690 H 0.0679 0.82805 0.07434 0.0
H691 H 0.05028 0.88392 0.14344 0.0
H692 H 0.10019 0.89595 0.14655 0.0
H693 H 0.13608 0.80354 0.09963 0.0
H694 H 0.15064 0.80259 0.06494 0.0
H695 H 0.11387 0.79678 0.07003 0.0
H696 H 0.10336 0.83667 0.03498 0.0
H697 H 0.14007 0.84336 0.03054 0.0
H698 H 0.11707 0.87108 0.04142 0.0
H699 H 0.15047 0.90397 0.14063 0.0
H700 H 0.20077 0.90284 0.13011 0.0
H701 H 0.1857 0.84284 0.06389 0.0
C702 C 0.07477 0.84211 0.09065 0.0
C703 C 0.05558 0.85499 0.10878 0.0
C704 C 0.06495 0.87386 0.12945 0.0
C705 C 0.0931 0.88094 0.13126 0.0
C706 C 0.11135 0.86898 0.11216 0.0
C707 C 0.10278 0.84965 0.09256 0.0
C708 C 0.12669 0.84047 0.07416 0.0
C709 C 0.13215 0.80898 0.0774 0.0
C710 C 0.12147 0.84838 0.04346 0.0
C711 C 0.15 0.85764 0.08662 0.0
C712 C 0.14057 0.87406 0.10837 0.0
C713 C 0.15822 0.89118 0.12371 0.0
C714 C 0.18665 0.89049 0.11751 0.0
C715 C 0.19691 0.87278 0.09621 0.0
C716 C 0.17827 0.85689 0.07997 0.0
H717 H 0.39808 0.8152 0.4102 0.0
H718 H 0.32553 0.79432 0.36055 0.0
H719 H 0.30668 0.84128 0.36793 0.0
H720 H 0.35796 0.87197 0.45713 0.0
H721 H 0.38947 0.89246 0.45773 0.0
H722 H 0.39144 0.85487 0.45881 0.0
H723 H 0.42427 0.85567 0.41594 0.0
H724 H 0.42219 0.89282 0.41446 0.0
H725 H 0.41277 0.87249 0.38423 0.0
H726 H 0.30676 0.89114 0.36236 0.0
H727 H 0.32222 0.93902 0.35139 0.0
H728 H 0.39101 0.93008 0.40908 0.0
C729 C 0.37761 0.8203 0.40211 0.0
C730 C 0.36347 0.80158 0.38452 0.0
C731 C 0.33674 0.8085 0.3741 0.0
C732 C 0.32574 0.83512 0.37837 0.0
C733 C 0.34133 0.85416 0.39379 0.0
C734 C 0.36622 0.84674 0.40659 0.0
C735 C 0.38135 0.87206 0.41772 0.0
C736 C 0.37995 0.87289 0.44975 0.0
C737 C 0.41189 0.87332 0.40741 0.0
C738 C 0.36356 0.89487 0.40512 0.0
C739 C 0.33997 0.8842 0.39224 0.0
C740 C 0.32419 0.9001 0.37355 0.0
C741 C 0.33323 0.92709 0.36714 0.0
C742 C 0.35743 0.93787 0.37985 0.0
C743 C 0.37186 0.92223 0.40001 0.0
H744 H 0.36596 0.35729 0.93375 0.0
H745 H 0.27718 0.37315 0.94298 0.0
H746 H 0.2727 0.3772 0.89212 0.0
H747 H 0.37934 0.40586 0.88964 0.0
H748 H 0.40384 0.38838 0.86706 0.0
H749 H 0.39971 0.37689 0.90247 0.0
H750 H 0.38761 0.32682 0.88636 0.0
H751 H 0.39302 0.33765 0.85071 0.0
H752 H 0.36055 0.32154 0.86077 0.0
H753 H 0.28031 0.39471 0.84479 0.0
H754 H 0.29744 0.41288 0.7999 0.0
H755 H 0.38108 0.38447 0.82 0.0
C756 C 0.34533 0.36022 0.92501 0.0
C757 C 0.32208 0.36557 0.9423 0.0
C758 C 0.2954 0.36933 0.93015 0.0
C759 C 0.29261 0.37164 0.90123 0.0
C760 C 0.31655 0.36934 0.88493 0.0
C761 C 0.34225 0.36254 0.89619 0.0
C762 C 0.36527 0.36491 0.87466 0.0
C763 C 0.38836 0.38522 0.88404 0.0
C764 C 0.37731 0.336 0.86771 0.0
C765 C 0.34887 0.37657 0.85043 0.0
C766 C 0.32077 0.37865 0.8567 0.0
C767 C 0.30204 0.39221 0.83915 0.0
C768 C 0.3121 0.40305 0.81406 0.0
C769 C 0.34062 0.4002 0.80683 0.0
C770 C 0.35918 0.38674 0.82517 0.0
H771 H 0.86221 0.13784 0.06961 0.0
H772 H 0.80525 0.0694 0.05187 0.0
H773 H 0.81611 0.04835 0.09687 0.0
H774 H 0.9138 0.09893 0.10791 0.0
H775 H 0.91906 0.12517 0.13433 0.0
H776 H 0.90845 0.13526 0.09966 0.0
H777 H 0.86505 0.16097 0.11949 0.0
H778 H 0.87622 0.15188 0.15417 0.0
H779 H 0.8417 0.14253 0.14253 0.0
H780 H 0.83506 0.03222 0.14106 0.0
H781 H 0.84786 0.03004 0.19044 0.0
H782 H 0.8891 0.11057 0.18312 0.0
C783 C 0.85183 0.11863 0.07542 0.0
C784 C 0.83314 0.10525 0.05703 0.0
C785 C 0.81963 0.08026 0.06549 0.0
C786 C 0.82601 0.06772 0.09086 0.0
C787 C 0.84559 0.08057 0.10779 0.0
C788 C 0.8574 0.10602 0.10116 0.0
C789 C 0.87521 0.11669 0.12495 0.0
C790 C 0.90596 0.11915 0.11617 0.0
C791 C 0.86385 0.14466 0.13595 0.0
C792 C 0.87114 0.09331 0.14589 0.0
C793 C 0.85492 0.07222 0.13492 0.0
C794 C 0.84758 0.04866 0.15013 0.0
C795 C 0.85511 0.0476 0.17818 0.0
C796 C 0.86888 0.07048 0.19083 0.0
C797 C 0.87847 0.09282 0.17407 0.0
H798 H 0.09815 0.5621 0.32654 0.0
H799 H 0.07913 0.64785 0.30518 0.0
H800 H 0.06536 0.65696 0.35363 0.0
H801 H 0.04689 0.55757 0.39265 0.0
H802 H 0.07303 0.53679 0.41001 0.0
H803 H 0.06734 0.53285 0.373 0.0
H804 H 0.11987 0.54191 0.36464 0.0
H805 H 0.1256 0.5467 0.40111 0.0
H806 H 0.13521 0.57399 0.37702 0.0
H807 H 0.07212 0.66214 0.40354 0.0
H808 H 0.09494 0.66115 0.45 0.0
H809 H 0.11184 0.57311 0.43992 0.0
C810 C 0.0895 0.58228 0.33182 0.0
C811 C 0.09019 0.60438 0.31251 0.0
C812 C 0.07911 0.6307 0.31992 0.0
C813 C 0.07096 0.63599 0.34739 0.0
C814 C 0.07379 0.61467 0.36698 0.0
C815 C 0.08201 0.58793 0.35937 0.0
C816 C 0.09003 0.57069 0.38458 0.0
C817 C 0.06799 0.54815 0.3904 0.0
C818 C 0.11941 0.55765 0.38163 0.0
C819 C 0.08924 0.59307 0.40667 0.0
C820 C 0.07833 0.61788 0.3966 0.0
C821 C 0.07971 0.64262 0.412 0.0
C822 C 0.093 0.64207 0.43805 0.0
C823 C 0.10518 0.61712 0.44766 0.0
C824 C 0.10249 0.59231 0.43243 0.0
H825 H 0.63697 0.84294 0.56657 0.0
H826 H 0.56775 0.89623 0.54334 0.0
H827 H 0.54873 0.8925 0.59079 0.0
H828 H 0.59437 0.80096 0.62468 0.0
H829 H 0.62572 0.79915 0.64539 0.0
H830 H 0.62777 0.79685 0.60785 0.0
H831 H 0.66297 0.83779 0.60754 0.0
H832 H 0.66082 0.84052 0.64465 0.0
H833 H 0.65319 0.87057 0.62329 0.0
H834 H 0.54916 0.89975 0.64072 0.0
H835 H 0.56467 0.91029 0.68875 0.0
H836 H 0.62941 0.8478 0.68172 0.0
C837 C 0.61709 0.85259 0.57132 0.0
C838 C 0.60394 0.87006 0.55176 0.0
C839 C 0.57806 0.88265 0.55821 0.0
C840 C 0.56701 0.88051 0.58508 0.0
C841 C 0.58166 0.86496 0.60482 0.0
C842 C 0.60559 0.85017 0.59797 0.0
C843 C 0.61994 0.83893 0.62372 0.0
C844 C 0.61674 0.80708 0.62552 0.0
C845 C 0.65101 0.84752 0.62485 0.0
C846 C 0.60282 0.85322 0.64602 0.0
C847 C 0.5803 0.8675 0.63479 0.0
C848 C 0.56564 0.88751 0.65014 0.0
C849 C 0.57469 0.89362 0.67722 0.0
C850 C 0.5977 0.87929 0.68862 0.0
C851 C 0.61103 0.85806 0.67344 0.0
H852 H 0.11229 0.50505 0.50698 0.0
H853 H 0.18942 0.52284 0.46302 0.0
H854 H 0.18498 0.47844 0.43724 0.0
H855 H 0.12161 0.42755 0.51075 0.0
H856 H 0.08482 0.42183 0.50542 0.0
H857 H 0.09661 0.4527 0.52335 0.0
H858 H 0.06958 0.48356 0.48803 0.0
H859 H 0.05778 0.45288 0.47012 0.0
H860 H 0.0763 0.47963 0.4512 0.0
H861 H 0.1677 0.43576 0.4107 0.0
H862 H 0.13934 0.39929 0.38718 0.0
H863 H 0.07571 0.40878 0.45089 0.0
C864 C 0.12863 0.4993 0.49245 0.0
C865 C 0.15118 0.51739 0.48707 0.0
C866 C 0.17203 0.50919 0.4677 0.0
C867 C 0.16972 0.48398 0.45295 0.0
C868 C 0.14676 0.46694 0.45821 0.0
C869 C 0.12681 0.47415 0.47785 0.0
C870 C 0.10291 0.45366 0.47808 0.0
C871 C 0.10142 0.438 0.50606 0.0
C872 C 0.07503 0.46831 0.47144 0.0
C873 C 0.11188 0.43451 0.45469 0.0
C874 C 0.13732 0.44215 0.44354 0.0
C875 C 0.14807 0.42914 0.41969 0.0
C876 C 0.13193 0.4084 0.40649 0.0
C877 C 0.10538 0.40123 0.41717 0.0
C878 C 0.09599 0.41374 0.44219 0.0
H879 H 0.81572 0.84591 0.647 0.0
H880 H 0.86936 0.90299 0.69167 0.0
H881 H 0.82767 0.92826 0.70924 0.0
H882 H 0.75426 0.89583 0.63366 0.0
H883 H 0.73053 0.86722 0.63947 0.0
H884 H 0.76437 0.86092 0.6242 0.0
H885 H 0.77293 0.82414 0.66331 0.0
H886 H 0.74012 0.83218 0.67952 0.0
H887 H 0.77197 0.83514 0.69931 0.0
H888 H 0.78017 0.94246 0.72736 0.0
H889 H 0.73197 0.94319 0.74607 0.0
H890 H 0.71051 0.87269 0.69375 0.0
C891 C 0.81859 0.86473 0.65918 0.0
C892 C 0.84554 0.87334 0.66718 0.0
C893 C 0.84881 0.89691 0.68452 0.0
C894 C 0.82524 0.91119 0.69467 0.0
C895 C 0.79875 0.90128 0.6875 0.0
C896 C 0.79537 0.8786 0.66998 0.0
C897 C 0.76529 0.86897 0.6691 0.0
C898 C 0.75285 0.87351 0.63988 0.0
C899 C 0.76245 0.83831 0.67838 0.0
C900 C 0.75244 0.88869 0.69009 0.0
C901 C 0.7718 0.90784 0.6997 0.0
C902 C 0.76484 0.92775 0.71975 0.0
C903 C 0.73751 0.92796 0.7303 0.0
C904 C 0.7178 0.90784 0.72144 0.0
C905 C 0.72534 0.88813 0.70096 0.0
H906 H 0.43126 0.58393 0.96439 0.0
H907 H 0.36232 0.60955 0.91138 0.0
H908 H 0.33431 0.57 0.92955 0.0
H909 H 0.42509 0.51364 0.95123 0.0
H910 H 0.43491 0.50238 0.98578 0.0
H911 H 0.44752 0.5351 0.97245 0.0
H912 H 0.42683 0.56092 0.01523 0.0
H913 H 0.41442 0.52814 0.02886 0.0
H914 H 0.39041 0.55665 0.02365 0.0
H915 H 0.3155 0.52532 0.95106 0.0
H916 H 0.30804 0.47886 0.97215 0.0
H917 H 0.39123 0.48146 0.00781 0.0
C918 C 0.41 0.58186 0.95702 0.0
C919 C 0.39888 0.60014 0.9366 0.0
C920 C 0.37118 0.59604 0.9272 0.0
C921 C 0.35516 0.57363 0.93741 0.0
C922 C 0.36725 0.55551 0.95685 0.0
C923 C 0.39408 0.55947 0.96652 0.0
C924 C 0.40351 0.53569 0.98511 0.0
C925 C 0.42927 0.52083 0.97289 0.0
C926 C 0.40911 0.54597 0.01498 0.0
C927 C 0.37798 0.51726 0.98396 0.0
C928 C 0.35707 0.52928 0.96804 0.0
C929 C 0.33168 0.51585 0.96368 0.0
C930 C 0.32766 0.48947 0.97576 0.0
C931 C 0.34911 0.47654 0.99155 0.0
C932 C 0.37451 0.49076 0.99574 0.0
H933 H 0.69509 0.17137 0.15618 0.0
H934 H 0.6311 0.11005 0.17431 0.0
H935 H 0.66483 0.08413 0.2041 0.0
H936 H 0.75512 0.12372 0.15582 0.0
H937 H 0.77731 0.14949 0.17181 0.0
H938 H 0.74903 0.16031 0.14953 0.0
H939 H 0.72988 0.19136 0.18955 0.0
H940 H 0.75767 0.18016 0.21217 0.0
H941 H 0.72188 0.17574 0.22285 0.0
H942 H 0.70568 0.06759 0.23544 0.0
H943 H 0.7495 0.06049 0.26202 0.0
H944 H 0.78424 0.13485 0.22365 0.0
C945 C 0.68821 0.15216 0.16594 0.0
C946 C 0.66049 0.14268 0.16295 0.0
C947 C 0.65236 0.11748 0.17607 0.0
C948 C 0.67133 0.1028 0.19318 0.0
C949 C 0.69822 0.11359 0.19666 0.0
C950 C 0.70664 0.13754 0.18299 0.0
C951 C 0.73592 0.14598 0.19096 0.0
C952 C 0.7555 0.14479 0.16552 0.0
C953 C 0.73634 0.17502 0.2047 0.0
C954 C 0.74272 0.12336 0.21177 0.0
C955 C 0.72096 0.10466 0.21476 0.0
C956 C 0.72283 0.08209 0.23309 0.0
C957 C 0.74775 0.07832 0.24823 0.0
C958 C 0.77033 0.09721 0.24514 0.0
C959 C 0.76741 0.12012 0.22683 0.0
H960 H 0.61059 0.99311 0.49221 0.0
H961 H 0.68546 0.97336 0.53924 0.0
H962 H 0.68015 0.0171 0.56588 0.0
H963 H 0.62043 0.07081 0.49148 0.0
H964 H 0.58346 0.0766 0.49528 0.0
H965 H 0.59596 0.04634 0.47676 0.0
H966 H 0.56716 0.01438 0.50952 0.0
H967 H 0.55464 0.04442 0.52806 0.0
H968 H 0.57212 0.01681 0.54675 0.0
H969 H 0.66212 0.05935 0.5926 0.0
H970 H 0.6335 0.0961 0.61538 0.0
H971 H 0.57192 0.08798 0.54948 0.0
C972 C 0.62633 0.9983 0.50756 0.0
C973 C 0.6484 0.97975 0.51359 0.0
C974 C 0.66842 0.98729 0.53407 0.0
C975 C 0.6656 0.01214 0.54934 0.0
C976 C 0.64297 0.02947 0.54356 0.0
C977 C 0.62393 0.02302 0.52281 0.0
C978 C 0.60007 0.04361 0.52221 0.0
C979 C 0.6 0.06034 0.49481 0.0
C980 C 0.57186 0.02892 0.52694 0.0
C981 C 0.60792 0.06183 0.54671 0.0
C982 C 0.63288 0.05376 0.55863 0.0
C983 C 0.64282 0.06622 0.58308 0.0
C984 C 0.62649 0.08705 0.5959 0.0
C985 C 0.60045 0.09482 0.58433 0.0
C986 C 0.5917 0.08252 0.55898 0.0
H987 H 0.27032 0.35196 0.75504 0.0
H988 H 0.24383 0.43548 0.732 0.0
H989 H 0.20013 0.42878 0.75883 0.0
H990 H 0.20084 0.31879 0.7561 0.0
H991 H 0.21012 0.29784 0.78594 0.0
H992 H 0.23653 0.30799 0.76117 0.0
H993 H 0.26559 0.32997 0.80146 0.0
H994 H 0.23913 0.31998 0.82611 0.0
H995 H 0.24963 0.35597 0.82346 0.0
H996 H 0.16066 0.4135 0.79282 0.0
H997 H 0.13077 0.39123 0.8291 0.0
H998 H 0.1866 0.31992 0.83014 0.0
C999 C 0.2551 0.36868 0.75488 0.0
C1000 C 0.26055 0.3942 0.74124 0.0
C1001 C 0.24006 0.41559 0.74204 0.0
C1002 C 0.2152 0.41201 0.75733 0.0
C1003 C 0.21115 0.38692 0.7716 0.0
C1004 C 0.23057 0.36559 0.77018 0.0
C1005 C 0.223 0.34159 0.78907 0.0
C1006 C 0.21728 0.31499 0.77205 0.0
C1007 C 0.24568 0.33661 0.81133 0.0
C1008 C 0.19659 0.35289 0.80192 0.0
C1009 C 0.18961 0.37883 0.79148 0.0
C1010 C 0.16597 0.39313 0.80101 0.0
C1011 C 0.14918 0.38045 0.82166 0.0
C1012 C 0.15659 0.3541 0.83282 0.0
C1013 C 0.18053 0.34033 0.82252 0.0
H1014 H 0.90354 0.95069 0.10288 0.0
H1015 H 0.85752 0.88165 0.06726 0.0
H1016 H 0.83275 0.91469 0.03582 0.0
H1017 H 0.84985 0.0068 0.09488 0.0
H1018 H 0.87675 0.03153 0.08577 0.0
H1019 H 0.88435 0.00336 0.10945 0.0
H1020 H 0.92548 0.98903 0.07726 0.0
H1021 H 0.91706 0.01635 0.05299 0.0
H1022 H 0.91865 0.98066 0.04121 0.0
H1023 H 0.81869 0.95559 0.00323 0.0
H1024 H 0.81523 0.9993 0.97546 0.0
H1025 H 0.87442 0.03878 0.03139 0.0
C1026 C 0.88732 0.94265 0.08933 0.0
C1027 C 0.88213 0.91375 0.08769 0.0
C1028 C 0.86129 0.90384 0.06928 0.0
C1029 C 0.84739 0.92246 0.05115 0.0
C1030 C 0.85465 0.95073 0.05191 0.0
C1031 C 0.87393 0.96069 0.07093 0.0
C1032 C 0.88118 0.99086 0.0656 0.0
C1033 C 0.87248 0.00923 0.0904 0.0
C1034 C 0.91243 0.9944 0.05886 0.0
C1035 C 0.86336 0.99645 0.04028 0.0
C1036 C 0.84788 0.97334 0.03271 0.0
C1037 C 0.83059 0.97381 0.00921 0.0
C1038 C 0.8289 0.99862 0.99344 0.0
C1039 C 0.84489 0.02233 0.00095 0.0
C1040 C 0.86226 0.02095 0.02469 0.0
H1041 H 0.34344 0.66942 0.28598 0.0
H1042 H 0.35547 0.61283 0.35584 0.0
H1043 H 0.30906 0.59225 0.34671 0.0
H1044 H 0.2754 0.68555 0.30118 0.0
H1045 H 0.26359 0.68811 0.26554 0.0
H1046 H 0.29954 0.69491 0.27386 0.0
H1047 H 0.31564 0.65724 0.23859 0.0
H1048 H 0.27971 0.65088 0.22958 0.0
H1049 H 0.30157 0.62243 0.24096 0.0
H1050 H 0.25939 0.58154 0.33305 0.0
H1051 H 0.21144 0.57949 0.31433 0.0
H1052 H 0.23137 0.64562 0.25566 0.0
C1053 C 0.33683 0.65209 0.29891 0.0
C1054 C 0.35324 0.64268 0.32163 0.0
C1055 C 0.34345 0.62023 0.33819 0.0
C1056 C 0.31704 0.60853 0.33324 0.0
C1057 C 0.30079 0.61953 0.3117 0.0
C1058 C 0.31047 0.64061 0.2946 0.0
C1059 C 0.28816 0.65056 0.27451 0.0
C1060 C 0.28128 0.68161 0.27907 0.0
C1061 C 0.29679 0.64492 0.24411 0.0
C1062 C 0.26416 0.63211 0.2833 0.0
C1063 C 0.27193 0.61416 0.30456 0.0
C1064 C 0.25317 0.59534 0.31628 0.0
C1065 C 0.22596 0.59444 0.30559 0.0
C1066 C 0.21765 0.61252 0.28365 0.0
C1067 C 0.237 0.63179 0.27265 0.0
H1068 H 0.46298 0.06719 0.42113 0.0
H1069 H 0.41192 0.13687 0.39359 0.0
H1070 H 0.43518 0.16706 0.42867 0.0
H1071 H 0.45541 0.08004 0.49078 0.0
H1072 H 0.48993 0.06858 0.50044 0.0
H1073 H 0.47348 0.0545 0.46986 0.0
H1074 H 0.51569 0.06997 0.43972 0.0
H1075 H 0.53233 0.08402 0.47037 0.0
H1076 H 0.5267 0.10593 0.44028 0.0
H1077 H 0.46126 0.18806 0.47041 0.0
H1078 H 0.48394 0.19658 0.51609 0.0
H1079 H 0.51412 0.11135 0.51718 0.0
C1080 C 0.457 0.08897 0.42176 0.0
C1081 C 0.43566 0.09967 0.40432 0.0
C1082 C 0.42835 0.12823 0.40648 0.0
C1083 C 0.44151 0.14551 0.42633 0.0
C1084 C 0.46184 0.13386 0.44378 0.0
C1085 C 0.46942 0.10614 0.44159 0.0
C1086 C 0.48896 0.09733 0.46477 0.0
C1087 C 0.47616 0.07374 0.4825 0.0
C1088 C 0.51762 0.08882 0.45307 0.0
C1089 C 0.49076 0.12424 0.48098 0.0
C1090 C 0.47561 0.14533 0.46827 0.0
C1091 C 0.4734 0.17175 0.48028 0.0
C1092 C 0.48643 0.17645 0.50614 0.0
C1093 C 0.50085 0.15461 0.51995 0.0
C1094 C 0.50338 0.12841 0.50692 0.0
H1095 H 0.14683 0.14636 0.68986 0.0
H1096 H 0.16533 0.2151 0.63425 0.0
H1097 H 0.1534 0.24871 0.67161 0.0
H1098 H 0.08781 0.18096 0.72743 0.0
H1099 H 0.09759 0.16613 0.76054 0.0
H1100 H 0.10442 0.1472 0.72878 0.0
H1101 H 0.15597 0.14326 0.74218 0.0
H1102 H 0.15114 0.16334 0.77355 0.0
H1103 H 0.17626 0.1744 0.74799 0.0
H1104 H 0.14697 0.27441 0.71758 0.0
H1105 H 0.13815 0.29029 0.76618 0.0
H1106 H 0.12105 0.205 0.79069 0.0
C1107 C 0.14691 0.16848 0.68521 0.0
C1108 C 0.15598 0.17827 0.65896 0.0
C1109 C 0.15741 0.20734 0.65397 0.0
C1110 C 0.15102 0.22654 0.67517 0.0
C1111 C 0.14307 0.21628 0.70121 0.0
C1112 C 0.14027 0.18793 0.70608 0.0
C1113 C 0.13268 0.1823 0.73627 0.0
C1114 C 0.10391 0.16831 0.73836 0.0
C1115 C 0.15535 0.16476 0.75082 0.0
C1116 C 0.13199 0.21178 0.74765 0.0
C1117 C 0.13844 0.23112 0.72727 0.0
C1118 C 0.14121 0.25949 0.73354 0.0
C1119 C 0.13641 0.26832 0.76116 0.0
C1120 C 0.12848 0.24889 0.78191 0.0
C1121 C 0.12649 0.22032 0.77501 0.0
H1122 H 0.09155 0.89042 0.91702 0.0
H1123 H 0.04906 0.96824 0.89837 0.0
H1124 H 0.01103 0.95553 0.93029 0.0
H1125 H 0.02709 0.84714 0.92667 0.0
H1126 H 0.04183 0.82798 0.95551 0.0
H1127 H 0.06419 0.84105 0.9282 0.0
H1128 H 0.09397 0.8672 0.96501 0.0
H1129 H 0.07177 0.85412 0.99231 0.0
H1130 H 0.07714 0.89115 0.98865 0.0
H1131 H 0.98102 0.93827 0.96812 0.0
H1132 H 0.96052 0.91669 0.01023 0.0
H1133 H 0.02067 0.84921 0.00476 0.0
C1134 C 0.07388 0.90433 0.91927 0.0
C1135 C 0.0732 0.93028 0.9053 0.0
C1136 C 0.05004 0.94833 0.90908 0.0
C1137 C 0.02821 0.94123 0.927 0.0
C1138 C 0.02969 0.91593 0.94108 0.0
C1139 C 0.05181 0.89764 0.93747 0.0
C1140 C 0.04921 0.873 0.95722 0.0
C1141 C 0.04535 0.84567 0.94092 0.0
C1142 C 0.07452 0.87129 0.97696 0.0
C1143 C 0.02278 0.88086 0.97289 0.0
C1144 C 0.01175 0.90558 0.96299 0.0
C1145 C 0.98901 0.91855 0.97572 0.0
C1146 C 0.97751 0.9062 0.99961 0.0
C1147 C 0.98864 0.88107 0.01035 0.0
C1148 C 0.01116 0.86796 0.99642 0.0
H1149 H 0.34318 0.80043 0.15558 0.0
H1150 H 0.39763 0.87251 0.15671 0.0
H1151 H 0.42511 0.8507 0.19496 0.0
H1152 H 0.33535 0.79564 0.22435 0.0
H1153 H 0.33396 0.75812 0.22666 0.0
H1154 H 0.32382 0.77523 0.19492 0.0
H1155 H 0.35993 0.74633 0.16698 0.0
H1156 H 0.36993 0.72859 0.19864 0.0
H1157 H 0.39596 0.746 0.1778 0.0
H1158 H 0.44073 0.8246 0.23856 0.0
H1159 H 0.44299 0.79778 0.28256 0.0
H1160 H 0.37575 0.74463 0.25359 0.0
C1161 C 0.36157 0.81118 0.16315 0.0
C1162 C 0.36849 0.83804 0.1532 0.0
C1163 C 0.39236 0.8517 0.16377 0.0
C1164 C 0.40794 0.83947 0.18555 0.0
C1165 C 0.39941 0.81357 0.19609 0.0
C1166 C 0.3769 0.79948 0.18487 0.0
C1167 C 0.36914 0.77412 0.20202 0.0
C1168 C 0.3388 0.77593 0.21261 0.0
C1169 C 0.37405 0.74716 0.18536 0.0
C1170 C 0.38981 0.77683 0.22562 0.0
C1171 C 0.40762 0.7992 0.22154 0.0
C1172 C 0.42722 0.80678 0.24164 0.0
C1173 C 0.42831 0.79142 0.26661 0.0
C1174 C 0.4095 0.7691 0.27153 0.0
C1175 C 0.39045 0.7615 0.25044 0.0
H1176 H 0.0077 0.39398 0.47471 0.0
H1177 H 0.9858 0.3063 0.4792 0.0
H1178 H 0.9638 0.31424 0.52529 0.0
H1179 H 0.02122 0.40418 0.55035 0.0
H1180 H 0.00639 0.43875 0.54954 0.0
H1181 H 0.02357 0.42496 0.51905 0.0
H1182 H 0.97902 0.43438 0.48984 0.0
H1183 H 0.96154 0.44787 0.52015 0.0
H1184 H 0.94626 0.41948 0.5008 0.0
H1185 H 0.93836 0.33383 0.5683 0.0
H1186 H 0.91445 0.36256 0.6042 0.0
H1187 H 0.95488 0.43644 0.57071 0.0
C1188 C 0.99889 0.37627 0.48566 0.0
C1189 C 0.99853 0.34953 0.47339 0.0
C1190 C 0.9866 0.32694 0.48834 0.0
C1191 C 0.97397 0.33128 0.51451 0.0
C1192 C 0.97387 0.3582 0.52559 0.0
C1193 C 0.98647 0.38018 0.51173 0.0
C1194 C 0.98204 0.40746 0.52684 0.0
C1195 C 0.00996 0.41954 0.53705 0.0
C1196 C 0.96627 0.42851 0.50831 0.0
C1197 C 0.96423 0.39764 0.55094 0.0
C1198 C 0.95976 0.36919 0.55015 0.0
C1199 C 0.94214 0.35606 0.56937 0.0
C1200 C 0.92861 0.37252 0.58968 0.0
C1201 C 0.9327 0.4018 0.59044 0.0
C1202 C 0.95122 0.41414 0.57101 0.0
H1203 H 0.885 0.65715 0.8337 0.0
H1204 H 0.84304 0.71895 0.88423 0.0
H1205 H 0.86263 0.75646 0.85516 0.0
H1206 H 0.94885 0.70546 0.81243 0.0
H1207 H 0.94866 0.68983 0.77821 0.0
H1208 H 0.94008 0.6691 0.80846 0.0
H1209 H 0.89371 0.65522 0.78479 0.0
H1210 H 0.90117 0.67679 0.75516 0.0
H1211 H 0.86944 0.68219 0.7746 0.0
H1212 H 0.87092 0.78384 0.81257 0.0
H1213 H 0.87603 0.80051 0.76385 0.0
H1214 H 0.91649 0.72285 0.7417 0.0
C1215 C 0.88189 0.67868 0.8398 0.0
C1216 C 0.86314 0.68536 0.86139 0.0
C1217 C 0.85798 0.71363 0.86809 0.0
C1218 C 0.86891 0.73506 0.85157 0.0
C1219 C 0.88544 0.72785 0.82878 0.0
C1220 C 0.89292 0.70038 0.82349 0.0
C1221 C 0.9071 0.69783 0.79533 0.0
C1222 C 0.93802 0.69011 0.79882 0.0
C1223 C 0.89193 0.67676 0.77639 0.0
C1224 C 0.90389 0.7274 0.78459 0.0
C1225 C 0.89166 0.74454 0.80431 0.0
C1226 C 0.8818 0.77113 0.79739 0.0
C1227 C 0.88449 0.78037 0.7697 0.0
C1228 C 0.89732 0.76319 0.74951 0.0
C1229 C 0.90767 0.73674 0.75722 0.0
H1230 H 0.55018 0.59804 0.09568 0.0
H1231 H 0.62901 0.64171 0.08948 0.0
H1232 H 0.60961 0.67073 0.05112 0.0
H1233 H 0.54252 0.58773 0.02829 0.0
H1234 H 0.50509 0.5912 0.02665 0.0
H1235 H 0.52139 0.58067 0.05864 0.0
H1236 H 0.49813 0.62184 0.08484 0.0
H1237 H 0.48119 0.63232 0.0529 0.0
H1238 H 0.50232 0.65693 0.07191 0.0
H1239 H 0.58471 0.6876 0.00754 0.0
H1240 H 0.55796 0.68996 0.96339 0.0
H1241 H 0.49738 0.63191 0.99709 0.0
C1242 C 0.56299 0.61454 0.08701 0.0
C1243 C 0.59098 0.61784 0.09546 0.0
C1244 C 0.60735 0.63926 0.08353 0.0
C1245 C 0.59647 0.65571 0.06171 0.0
C1246 C 0.56924 0.65053 0.05252 0.0
C1247 C 0.55264 0.63059 0.06516 0.0
C1248 C 0.52614 0.62529 0.04892 0.0
C1249 C 0.52369 0.59442 0.0401 0.0
C1250 C 0.50042 0.63467 0.06564 0.0
C1251 C 0.53106 0.64406 0.02415 0.0
C1252 C 0.5555 0.65919 0.02692 0.0
C1253 C 0.56529 0.67628 0.00547 0.0
C1254 C 0.55 0.67746 0.98047 0.0
C1255 C 0.52569 0.66104 0.97696 0.0
C1256 C 0.51587 0.6447 0.99932 0.0
H1257 H 0.69776 0.32046 0.31279 0.0
H1258 H 0.62514 0.32526 0.36691 0.0
H1259 H 0.59881 0.29589 0.33358 0.0
H1260 H 0.66156 0.32528 0.24865 0.0
H1261 H 0.68436 0.30134 0.23069 0.0
H1262 H 0.69743 0.32164 0.25942 0.0
H1263 H 0.71325 0.27622 0.28431 0.0
H1264 H 0.69999 0.25573 0.25572 0.0
H1265 H 0.68816 0.24897 0.29079 0.0
H1266 H 0.5802 0.26701 0.2933 0.0
H1267 H 0.56999 0.24337 0.24875 0.0
H1268 H 0.65531 0.25774 0.22167 0.0
C1269 C 0.67633 0.31537 0.31784 0.0
C1270 C 0.66355 0.32527 0.34258 0.0
C1271 C 0.63542 0.31802 0.34812 0.0
C1272 C 0.62034 0.30124 0.32937 0.0
C1273 C 0.63373 0.29179 0.30528 0.0
C1274 C 0.66108 0.2987 0.29949 0.0
C1275 C 0.67052 0.28676 0.27181 0.0
C1276 C 0.67895 0.31015 0.25144 0.0
C1277 C 0.69439 0.26567 0.27591 0.0
C1278 C 0.64401 0.2724 0.26255 0.0
C1279 C 0.6231 0.27528 0.28224 0.0
C1280 C 0.59647 0.26453 0.27783 0.0
C1281 C 0.59091 0.25108 0.25242 0.0
C1282 C 0.61184 0.24861 0.23158 0.0
C1283 C 0.63887 0.259 0.23713 0.0
H1284 H 0.52526 0.49916 0.09529 0.0
H1285 H 0.49944 0.51914 0.17983 0.0
H1286 H 0.45687 0.49067 0.17335 0.0
H1287 H 0.45573 0.49782 0.06363 0.0
H1288 H 0.46491 0.469 0.04129 0.0
H1289 H 0.49127 0.49348 0.05207 0.0
H1290 H 0.52088 0.45247 0.07173 0.0
H1291 H 0.49436 0.42797 0.06149 0.0
H1292 H 0.50575 0.42941 0.09731 0.0
H1293 H 0.41857 0.4562 0.15817 0.0
H1294 H 0.3869 0.42286 0.13442 0.0
H1295 H 0.44029 0.42532 0.0612 0.0
C1296 C 0.51041 0.49822 0.11231 0.0
C1297 C 0.51574 0.51155 0.13804 0.0
C1298 C 0.49576 0.50935 0.1598 0.0
C1299 C 0.47159 0.49305 0.15638 0.0
C1300 C 0.46769 0.47918 0.13109 0.0
C1301 C 0.48646 0.48198 0.10934 0.0
C1302 C 0.4785 0.46406 0.08471 0.0
C1303 C 0.47222 0.48217 0.05891 0.0
C1304 C 0.50122 0.4422 0.07846 0.0
C1305 C 0.45238 0.45053 0.09595 0.0
C1306 C 0.44631 0.45939 0.12269 0.0
C1307 C 0.4231 0.44927 0.13716 0.0
C1308 C 0.40535 0.43016 0.12361 0.0
C1309 C 0.41101 0.42141 0.09592 0.0
C1310 C 0.43515 0.43154 0.08231 0.0
H1311 H 0.0334 0.02395 0.88906 0.0
H1312 H 0.02054 0.03321 0.79986 0.0
H1313 H 0.97525 0.05642 0.80891 0.0
H1314 H 0.96188 0.00895 0.90649 0.0
H1315 H 0.9634 0.02778 0.939 0.0
H1316 H 0.99446 0.01183 0.92508 0.0
H1317 H 0.01986 0.05956 0.92688 0.0
H1318 H 0.98889 0.07568 0.94076 0.0
H1319 H 0.00469 0.08927 0.90943 0.0
H1320 H 0.93134 0.0807 0.82873 0.0
H1321 H 0.89309 0.10118 0.85717 0.0
H1322 H 0.93582 0.07419 0.93245 0.0
C1323 C 0.02113 0.0308 0.87135 0.0
C1324 C 0.03065 0.02681 0.84374 0.0
C1325 C 0.0137 0.03595 0.82123 0.0
C1326 C 0.98795 0.04923 0.82616 0.0
C1327 C 0.97931 0.05302 0.85371 0.0
C1328 C 0.99541 0.04383 0.87586 0.0
C1329 C 0.98167 0.05014 0.90352 0.0
C1330 C 0.97495 0.02307 0.91945 0.0
C1331 C -0.00014 0.06984 0.92117 0.0
C1332 C 0.9554 0.06454 0.89358 0.0
C1333 C 0.95426 0.06619 0.86484 0.0
C1334 C 0.93199 0.07933 0.85126 0.0
C1335 C 0.91038 0.09096 0.86756 0.0
C1336 C 0.91118 0.08921 0.89708 0.0
C1337 C 0.93415 0.07576 0.90996 0.0
H1338 H 0.19752 0.68383 0.19682 0.0
H1339 H 0.17391 0.64043 0.12089 0.0
H1340 H 0.20399 0.6726 0.09362 0.0
H1341 H 0.19474 0.75066 0.17006 0.0
H1342 H 0.22398 0.76358 0.18986 0.0
H1343 H 0.20357 0.73509 0.20318 0.0
H1344 H 0.24826 0.70479 0.20722 0.0
H1345 H 0.26887 0.73324 0.19377 0.0
H1346 H 0.26995 0.69964 0.17692 0.0
H1347 H 0.2333 0.71275 0.07461 0.0
H1348 H 0.25711 0.75742 0.06529 0.0
H1349 H 0.26079 0.77381 0.15434 0.0
C1350 C 0.19878 0.68072 0.17447 0.0
C1351 C 0.18317 0.65958 0.16098 0.0
C1352 C 0.18567 0.65639 0.1317 0.0
C1353 C 0.20277 0.67453 0.1161 0.0
C1354 C 0.21746 0.69544 0.13015 0.0
C1355 C 0.21566 0.69844 0.15875 0.0
C1356 C 0.23174 0.72363 0.16892 0.0
C1357 C 0.21235 0.74446 0.18387 0.0
C1358 C 0.25615 0.71479 0.18782 0.0
C1359 C 0.24212 0.73513 0.14144 0.0
C1360 C 0.23412 0.71838 0.11933 0.0
C1361 C 0.23993 0.72579 0.09181 0.0
C1362 C 0.25352 0.75126 0.08674 0.0
C1363 C 0.2609 0.76927 0.10908 0.0
C1364 C 0.2557 0.76054 0.13677 0.0
H1365 H 0.4937 0.00559 0.37625 0.0
H1366 H 0.46572 0.94245 0.31794 0.0
H1367 H 0.51248 0.92035 0.31945 0.0
H1368 H 0.56709 0.0098 0.34892 0.0
H1369 H 0.58082 0.01527 0.38351 0.0
H1370 H 0.54652 0.02797 0.37466 0.0
H1371 H 0.52543 0.00057 0.41629 0.0
H1372 H 0.55955 0.98807 0.42536 0.0
H1373 H 0.53174 0.96357 0.41906 0.0
H1374 H 0.55953 0.9008 0.33427 0.0
H1375 H 0.60176 0.88647 0.36041 0.0
H1376 H 0.60019 0.96527 0.40491 0.0
C1377 C 0.49762 0.98741 0.36339 0.0
C1378 C 0.47621 0.97559 0.3471 0.0
C1379 C 0.482 0.95186 0.33047 0.0
C1380 C 0.50849 0.93925 0.33114 0.0
C1381 C 0.52911 0.95117 0.34788 0.0
C1382 C 0.52403 0.97505 0.36331 0.0
C1383 C 0.54885 0.98279 0.3811 0.0
C1384 C 0.56157 0.01061 0.37146 0.0
C1385 C 0.54091 0.98377 0.41227 0.0
C1386 C 0.56809 0.9586 0.37465 0.0
C1387 C 0.55662 0.94068 0.3552 0.0
C1388 C 0.5691 0.91507 0.34892 0.0
C1389 C 0.5932 0.90712 0.36376 0.0
C1390 C 0.60438 0.92475 0.38465 0.0
C1391 C 0.59239 0.95138 0.38888 0.0
H1392 H 0.29614 0.33891 0.66633 0.0
H1393 H 0.36693 0.34449 0.61017 0.0
H1394 H 0.34737 0.30533 0.58234 0.0
H1395 H 0.29695 0.26871 0.67192 0.0
H1396 H 0.25969 0.26417 0.67445 0.0
H1397 H 0.27534 0.29633 0.68559 0.0
H1398 H 0.24355 0.32429 0.65192 0.0
H1399 H 0.2273 0.29221 0.64099 0.0
H1400 H 0.24257 0.31521 0.61542 0.0
H1401 H 0.32272 0.26145 0.56488 0.0
H1402 H 0.29636 0.21739 0.5596 0.0
H1403 H 0.24488 0.23945 0.63069 0.0
C1404 C 0.30728 0.33246 0.64773 0.0
C1405 C 0.33309 0.34465 0.64036 0.0
C1406 C 0.34698 0.33561 0.61595 0.0
C1407 C 0.33604 0.31334 0.60016 0.0
C1408 C 0.31127 0.30073 0.60912 0.0
C1409 C 0.29702 0.31023 0.6323 0.0
C1410 C 0.27297 0.29138 0.64006 0.0
C1411 C 0.27648 0.27945 0.66975 0.0
C1412 C 0.24494 0.30669 0.63689 0.0
C1413 C 0.27633 0.26903 0.61822 0.0
C1414 C 0.29806 0.27503 0.60011 0.0
C1415 C 0.30553 0.25678 0.57877 0.0
C1416 C 0.29048 0.23182 0.57598 0.0
C1417 C 0.2687 0.22509 0.59486 0.0
C1418 C 0.26152 0.24405 0.61609 0.0
H1419 H -5e-05 0.48684 0.62155 0.0
H1420 H 0.97762 0.54297 0.68885 0.0
H1421 H 0.0241 0.56515 0.68595 0.0
H1422 H 0.07489 0.47914 0.64303 0.0
H1423 H 0.08641 0.4775 0.60725 0.0
H1424 H 0.05251 0.46424 0.61672 0.0
H1425 H 0.02929 0.49646 0.57992 0.0
H1426 H 0.06304 0.50941 0.57015 0.0
H1427 H 0.03615 0.53344 0.58089 0.0
H1428 H 0.06955 0.5863 0.66984 0.0
H1429 H 0.10994 0.60336 0.64249 0.0
H1430 H 0.10527 0.52925 0.59067 0.0
C1431 C 0.0051 0.50353 0.63589 0.0
C1432 C 0.98536 0.51336 0.6553 0.0
C1433 C 0.99266 0.53514 0.67389 0.0
C1434 C 0.019 0.54776 0.67248 0.0
C1435 C 0.03806 0.53775 0.65297 0.0
C1436 C 0.03159 0.51577 0.63535 0.0
C1437 C 0.05517 0.50983 0.61531 0.0
C1438 C 0.068 0.48096 0.62093 0.0
C1439 C 0.04532 0.51247 0.58479 0.0
C1440 C 0.07515 0.53295 0.62326 0.0
C1441 C 0.06513 0.54878 0.64515 0.0
C1442 C 0.07811 0.57361 0.65324 0.0
C1443 C 0.10116 0.58311 0.6377 0.0
C1444 C 0.11085 0.56768 0.61447 0.0
C1445 C 0.0986 0.5415 0.60845 0.0
H1446 H 0.75579 0.73432 0.84929 0.0
H1447 H 0.71375 0.72302 0.92877 0.0
H1448 H 0.6924 0.76968 0.92405 0.0
H1449 H 0.76895 0.80986 0.85698 0.0
H1450 H 0.76276 0.81641 0.82044 0.0
H1451 H 0.7768 0.7833 0.83152 0.0
H1452 H 0.73632 0.75759 0.80649 0.0
H1453 H 0.72231 0.79053 0.79524 0.0
H1454 H 0.70076 0.76671 0.81481 0.0
H1455 H 0.67142 0.81572 0.90786 0.0
H1456 H 0.6528 0.85604 0.88133 0.0
H1457 H 0.71066 0.83762 0.81404 0.0
C1458 C 0.7424 0.74175 0.86592 0.0
C1459 C 0.73649 0.7249 0.88938 0.0
C1460 C 0.71874 0.73551 0.91061 0.0
C1461 C 0.70654 0.76207 0.90816 0.0
C1462 C 0.71257 0.77799 0.88458 0.0
C1463 C 0.73028 0.76826 0.86395 0.0
C1464 C 0.73218 0.78862 0.83992 0.0
C1465 C 0.76194 0.80024 0.83706 0.0
C1466 C 0.72229 0.77506 0.81251 0.0
C1467 C 0.71206 0.81089 0.84978 0.0
C1468 C 0.70108 0.80463 0.87568 0.0
C1469 C 0.68026 0.8211 0.88778 0.0
C1470 C 0.66986 0.84405 0.87261 0.0
C1471 C 0.68027 0.8502 0.84562 0.0
C1472 C 0.70232 0.83381 0.8347 0.0
H1473 H 0.76547 0.27515 0.35629 0.0
H1474 H 0.80168 0.27997 0.43924 0.0
H1475 H 0.82471 0.23443 0.4318 0.0
H1476 H 0.75235 0.20093 0.35677 0.0
H1477 H 0.76107 0.1968 0.32041 0.0
H1478 H 0.7469 0.22937 0.33271 0.0
H1479 H 0.7896 0.25582 0.31264 0.0
H1480 H 0.80379 0.2234 0.30009 0.0
H1481 H 0.82428 0.24528 0.32278 0.0
H1482 H 0.84544 0.18855 0.41406 0.0
H1483 H 0.86241 0.14771 0.38712 0.0
H1484 H 0.81104 0.17367 0.31703 0.0
C1485 C 0.77819 0.2667 0.37296 0.0
C1486 C 0.78177 0.28123 0.39831 0.0
C1487 C 0.79858 0.26925 0.41959 0.0
C1488 C 0.81171 0.24335 0.4156 0.0
C1489 C 0.80769 0.22958 0.39033 0.0
C1490 C 0.79128 0.24089 0.36942 0.0
C1491 C 0.7907 0.2224 0.34394 0.0
C1492 C 0.76099 0.21174 0.33813 0.0
C1493 C 0.80282 0.23764 0.31837 0.0
C1494 C 0.80963 0.19908 0.35359 0.0
C1495 C 0.81922 0.20337 0.38041 0.0
C1496 C 0.83789 0.18488 0.3931 0.0
C1497 C 0.84735 0.1617 0.3777 0.0
C1498 C 0.83816 0.1574 0.34993 0.0
C1499 C 0.81863 0.17619 0.33817 0.0
H1500 H 0.11893 0.48228 0.21589 0.0
H1501 H 0.04226 0.52991 0.21664 0.0
H1502 H 0.01766 0.4895 0.23749 0.0
H1503 H 0.08648 0.40857 0.20875 0.0
H1504 H 0.1124 0.39483 0.23231 0.0
H1505 H 0.12118 0.42305 0.20898 0.0
H1506 H 0.13768 0.45224 0.25126 0.0
H1507 H 0.12838 0.42464 0.27478 0.0
H1508 H 0.11372 0.45898 0.27951 0.0
H1509 H 0.00512 0.44998 0.2691 0.0
H1510 H 0.00473 0.41458 0.30639 0.0
H1511 H 0.09029 0.39261 0.28705 0.0
C1512 C 0.09653 0.48346 0.21878 0.0
C1513 C 0.08226 0.50889 0.21401 0.0
C1514 C 0.0533 0.51034 0.21921 0.0
C1515 C 0.0393 0.4875 0.23135 0.0
C1516 C 0.05456 0.46342 0.23788 0.0
C1517 C 0.08253 0.46107 0.23124 0.0
C1518 C 0.09552 0.43541 0.24468 0.0
C1519 C 0.10441 0.4142 0.22234 0.0
C1520 C 0.12025 0.44332 0.26368 0.0
C1521 C 0.07105 0.42459 0.26152 0.0
C1522 C 0.04745 0.44065 0.25675 0.0
C1523 C 0.02322 0.43686 0.27234 0.0
C1524 C 0.02328 0.41676 0.29363 0.0
C1525 C 0.04742 0.40062 0.29944 0.0
C1526 C 0.07132 0.40405 0.28256 0.0
H1527 H 0.80015 0.79688 0.60083 0.0
H1528 H 0.86989 0.81123 0.54475 0.0
H1529 H 0.83732 0.81271 0.50484 0.0
H1530 H 0.75781 0.75404 0.55132 0.0
H1531 H 0.72566 0.76916 0.5637 0.0
H1532 H 0.75483 0.76513 0.58714 0.0
H1533 H 0.75273 0.81764 0.59869 0.0
H1534 H 0.72381 0.8222 0.57533 0.0
H1535 H 0.75487 0.84295 0.57085 0.0
H1536 H 0.79647 0.81845 0.47185 0.0
H1537 H 0.75144 0.83126 0.4501 0.0
H1538 H 0.7089 0.81179 0.5276 0.0
C1539 C 0.80874 0.79981 0.58013 0.0
C1540 C 0.83768 0.80389 0.57604 0.0
C1541 C 0.84785 0.80797 0.54852 0.0
C1542 C 0.8295 0.80867 0.52564 0.0
C1543 C 0.80106 0.80488 0.5305 0.0
C1544 C 0.79079 0.80041 0.5571 0.0
C1545 C 0.75922 0.79941 0.55721 0.0
C1546 C 0.74877 0.77019 0.56532 0.0
C1547 C 0.74696 0.82191 0.57664 0.0
C1548 C 0.75327 0.8056 0.5268 0.0
C1549 C 0.77761 0.808 0.51151 0.0
C1550 C 0.77726 0.81608 0.48349 0.0
C1551 C 0.75153 0.82312 0.4712 0.0
C1552 C 0.72662 0.82238 0.48708 0.0
C1553 C 0.72754 0.81225 0.5148 0.0
H1554 H 0.38061 0.52262 0.72595 0.0
H1555 H 0.44943 0.46461 0.73406 0.0
H1556 H 0.47428 0.49859 0.76415 0.0
H1557 H 0.42396 0.58957 0.72974 0.0
H1558 H 0.39674 0.60666 0.7493 0.0
H1559 H 0.38793 0.58083 0.72341 0.0
H1560 H 0.36013 0.55346 0.76081 0.0
H1561 H 0.36933 0.57866 0.78695 0.0
H1562 H 0.37753 0.54233 0.79229 0.0
H1563 H 0.48581 0.53348 0.80136 0.0
H1564 H 0.48617 0.56897 0.83866 0.0
H1565 H 0.41039 0.60541 0.80519 0.0
C1566 C 0.40154 0.51772 0.733 0.0
C1567 C 0.41342 0.49132 0.72751 0.0
C1568 C 0.44039 0.48504 0.73757 0.0
C1569 C 0.45449 0.50415 0.75479 0.0
C1570 C 0.44145 0.5295 0.76113 0.0
C1571 C 0.41585 0.53661 0.74991 0.0
C1572 C 0.40481 0.56359 0.76222 0.0
C1573 C 0.40328 0.58652 0.73983 0.0
C1574 C 0.37628 0.55922 0.7764 0.0
C1575 C 0.42737 0.56978 0.78339 0.0
C1576 C 0.44845 0.55001 0.78225 0.0
C1577 C 0.46987 0.54948 0.80188 0.0
C1578 C 0.46972 0.56955 0.82315 0.0
C1579 C 0.44838 0.58998 0.82462 0.0
C1580 C 0.42725 0.59038 0.80416 0.0
H1581 H 0.68398 0.21573 0.07366 0.0
H1582 H 0.61319 0.18646 0.02565 0.0
H1583 H 0.64377 0.18116 0.98421 0.0
H1584 H 0.72306 0.25118 0.01627 0.0
H1585 H 0.7561 0.23888 0.02941 0.0
H1586 H 0.72778 0.24582 0.05322 0.0
H1587 H 0.73142 0.19544 0.07271 0.0
H1588 H 0.75989 0.18859 0.04933 0.0
H1589 H 0.72955 0.16637 0.04891 0.0
H1590 H 0.68338 0.17378 0.94974 0.0
H1591 H 0.72798 0.15865 0.92849 0.0
H1592 H 0.77286 0.19029 2e-05 0.0
C1593 C 0.67466 0.20913 0.05416 0.0
C1594 C 0.64601 0.20211 0.05273 0.0
C1595 C 0.63496 0.19233 0.02714 0.0
C1596 C 0.65218 0.18942 0.00346 0.0
C1597 C 0.68048 0.19615 0.00574 0.0
C1598 C 0.69163 0.20554 0.03063 0.0
C1599 C 0.72319 0.20726 0.02917 0.0
C1600 C 0.73311 0.2376 0.0322 0.0
C1601 C 0.73679 0.18828 0.05132 0.0
C1602 C 0.72827 0.19652 -0.00013 0.0
C1603 C 0.70337 0.191 0.98632 0.0
C1604 C 0.70294 0.17864 0.95993 0.0
C1605 C 0.7284 0.17043 0.94778 0.0
C1606 C 0.75389 0.1743 0.96215 0.0
C1607 C 0.75378 0.18834 0.98805 0.0
H1608 H 0.54451 0.97242 0.74195 0.0
H1609 H 0.58905 0.01022 0.8108 0.0
H1610 H 0.57446 0.05695 0.79442 0.0
H1611 H 0.56633 0.01504 0.69341 0.0
H1612 H 0.53488 0.01739 0.67289 0.0
H1613 H 0.54098 0.98725 0.69424 0.0
H1614 H 0.4941 0.99496 0.71999 0.0
H1615 H 0.48739 0.02492 0.69819 0.0
H1616 H 0.48669 0.02835 0.73565 0.0
H1617 H 0.56585 0.09894 0.76363 0.0
H1618 H 0.56022 0.1318 0.72422 0.0
H1619 H 0.52079 0.06634 0.67574 0.0
C1620 C 0.5498 0.99048 0.75447 0.0
C1621 C 0.56757 0.98772 0.77783 0.0
C1622 C 0.57486 0.0118 0.79326 0.0
C1623 C 0.56684 0.03848 0.78392 0.0
C1624 C 0.55106 0.04061 0.75947 0.0
C1625 C 0.54194 0.01711 0.74541 0.0
C1626 C 0.52866 0.02469 0.71772 0.0
C1627 C 0.54363 0.01025 0.69315 0.0
C1628 C 0.49735 0.01783 0.71791 0.0
C1629 C 0.53343 0.05589 0.71744 0.0
C1630 C 0.54591 0.06486 0.74185 0.0
C1631 C 0.5553 0.09228 0.74481 0.0
C1632 C 0.55215 0.1108 0.72221 0.0
C1633 C 0.53985 0.10182 0.69685 0.0
C1634 C 0.52978 0.07415 0.69494 0.0
H1635 H 0.27251 0.30494 0.01621 0.0
H1636 H 0.22796 0.35275 0.07832 0.0
H1637 H 0.18322 0.34029 0.05611 0.0
H1638 H 0.23773 0.32784 0.96235 0.0
H1639 H 0.23627 0.29635 0.94187 0.0
H1640 H 0.26376 0.30102 0.96685 0.0
H1641 H 0.25041 0.25509 0.99199 0.0
H1642 H 0.22338 0.24953 0.96641 0.0
H1643 H 0.21488 0.24959 0.00307 0.0
H1644 H 0.1455 0.33416 0.01963 0.0
H1645 H 0.1173 0.32749 0.97664 0.0
H1646 H 0.18629 0.28247 0.93918 0.0
C1647 C 0.25318 0.3108 0.02638 0.0
C1648 C 0.25359 0.3289 0.04958 0.0
C1649 C 0.22799 0.33791 0.06126 0.0
C1650 C 0.20247 0.33128 0.04846 0.0
C1651 C 0.20287 0.31529 0.02415 0.0
C1652 C 0.22756 0.30436 0.01374 0.0
C1653 C 0.22299 0.29105 0.98542 0.0
C1654 C 0.24126 0.30491 0.96282 0.0
C1655 C 0.22822 0.25944 0.98681 0.0
C1656 C 0.19235 0.29741 0.98092 0.0
C1657 C 0.18096 0.31134 0.00342 0.0
C1658 C 0.15392 0.32238 0.00231 0.0
C1659 C 0.13811 0.31873 0.97775 0.0
C1660 C 0.14931 0.30398 0.95476 0.0
C1661 C 0.17672 0.29309 0.95669 0.0
H1662 H 0.88365 0.96826 0.2861 0.0
H1663 H 0.95697 0.02099 0.2856 0.0
H1664 H 0.98274 0.98446 0.25953 0.0
H1665 H 0.92094 0.89739 0.28563 0.0
H1666 H 0.89476 0.88355 0.26246 0.0
H1667 H 0.88539 0.90948 0.28809 0.0
H1668 H 0.86485 0.94047 0.24883 0.0
H1669 H 0.87448 0.91507 0.22311 0.0
H1670 H 0.88675 0.95048 0.21989 0.0
H1671 H 0.99622 0.94787 0.22436 0.0
H1672 H 0.99671 0.91517 0.1847 0.0
H1673 H 0.91369 0.88689 0.20688 0.0
C1674 C 0.90558 0.97154 0.28168 0.0
C1675 C 0.91846 0.99731 0.28809 0.0
C1676 C 0.94692 0.00119 0.28145 0.0
C1677 C 0.96161 0.98056 0.26648 0.0
C1678 C 0.94759 0.95612 0.25874 0.0
C1679 C 0.92026 0.95138 0.26659 0.0
C1680 C 0.90826 0.92593 0.25213 0.0
C1681 C 0.90197 0.90271 0.27335 0.0
C1682 C 0.88207 0.93347 0.23498 0.0
C1683 C 0.93244 0.91799 0.23345 0.0
C1684 C 0.9552 0.93519 0.23806 0.0
C1685 C 0.97879 0.9339 0.22111 0.0
C1686 C 0.97881 0.91527 0.1985 0.0
C1687 C 0.95526 0.89827 0.19272 0.0
C1688 C 0.93224 0.89905 0.2111 0.0
H1689 H 0.21168 0.68167 0.46858 0.0
H1690 H 0.25044 0.66864 0.54936 0.0
H1691 H 0.29642 0.67983 0.52891 0.0
H1692 H 0.26001 0.64774 0.43072 0.0
H1693 H 0.25972 0.67039 0.40067 0.0
H1694 H 0.22928 0.66783 0.42242 0.0
H1695 H 0.22952 0.72128 0.43054 0.0
H1696 H 0.2596 0.72419 0.40813 0.0
H1697 H 0.26079 0.73797 0.44311 0.0
H1698 H 0.33896 0.68366 0.49761 0.0
H1699 H 0.37361 0.6851 0.45937 0.0
H1700 H 0.30643 0.69484 0.39932 0.0
C1701 C 0.22965 0.6823 0.48227 0.0
C1702 C 0.22739 0.67439 0.51061 0.0
C1703 C 0.25152 0.67503 0.5277 0.0
C1704 C 0.27781 0.68115 0.51619 0.0
C1705 C 0.27951 0.68699 0.4877 0.0
C1706 C 0.25593 0.68826 0.47111 0.0
C1707 C 0.26341 0.69232 0.44068 0.0
C1708 C 0.25246 0.66813 0.42259 0.0
C1709 C 0.2527 0.72063 0.42999 0.0
C1710 C 0.2949 0.69193 0.44251 0.0
C1711 C 0.30388 0.68912 0.46977 0.0
C1712 C 0.33214 0.68642 0.47625 0.0
C1713 C 0.35166 0.68702 0.45434 0.0
C1714 C 0.34284 0.69012 0.42626 0.0
C1715 C 0.31401 0.69265 0.4205 0.0
H1716 H 0.2116 0.11106 0.4764 0.0
H1717 H 0.22589 0.04845 0.54023 0.0
H1718 H 0.2602 0.02524 0.50925 0.0
H1719 H 0.22338 0.0653 0.41357 0.0
H1720 H 0.24074 0.09321 0.39527 0.0
H1721 H 0.21329 0.10101 0.4198 0.0
H1722 H 0.24682 0.1339 0.44641 0.0
H1723 H 0.27454 0.12585 0.42245 0.0
H1724 H 0.27949 0.12042 0.45936 0.0
H1725 H 0.2985 0.0141 0.475 0.0
H1726 H 0.33554 0.01361 0.43948 0.0
H1727 H 0.29714 0.08439 0.3979 0.0
C1728 C 0.22109 0.0918 0.48349 0.0
C1729 C 0.21578 0.08137 0.51071 0.0
C1730 C 0.22911 0.05648 0.51934 0.0
C1731 C 0.24882 0.04332 0.50191 0.0
C1732 C 0.2547 0.05517 0.47585 0.0
C1733 C 0.24085 0.07863 0.46649 0.0
C1734 C 0.25295 0.08909 0.4391 0.0
C1735 C 0.2313 0.08702 0.41553 0.0
C1736 C 0.26411 0.11908 0.44203 0.0
C1737 C 0.27652 0.06844 0.43483 0.0
C1738 C 0.27696 0.0489 0.45616 0.0
C1739 C 0.298 0.02899 0.45801 0.0
C1740 C 0.31912 0.02907 0.43775 0.0
C1741 C 0.31934 0.04899 0.41576 0.0
C1742 C 0.2974 0.06866 0.41413 0.0
H1743 H 0.19082 0.00234 0.77685 0.0
H1744 H 0.16404 0.93128 0.72824 0.0
H1745 H 0.1807 0.95429 0.68523 0.0
H1746 H 0.16612 0.05061 0.73434 0.0
H1747 H 0.19338 0.07633 0.73736 0.0
H1748 H 0.1876 0.05193 0.76521 0.0
H1749 H 0.23861 0.03493 0.76288 0.0
H1750 H 0.24527 0.06002 0.73561 0.0
H1751 H 0.25303 0.02363 0.73001 0.0
H1752 H 0.18862 0.98919 0.64733 0.0
H1753 H 0.19325 0.03118 0.61757 0.0
H1754 H 0.21647 0.07989 0.69007 0.0
C1755 C 0.19045 0.99086 0.75739 0.0
C1756 C 0.17731 0.96449 0.75596 0.0
C1757 C 0.17515 0.9509 0.72987 0.0
C1758 C 0.18426 0.96402 0.70529 0.0
C1759 C 0.19554 0.99079 0.70712 0.0
C1760 C 0.19934 0.00385 0.73261 0.0
C1761 C 0.20846 0.03396 0.72859 0.0
C1762 C 0.18764 0.05439 0.74216 0.0
C1763 C 0.23811 0.03839 0.73994 0.0
C1764 C 0.2079 0.03618 0.69697 0.0
C1765 C 0.20052 0.011 0.68499 0.0
C1766 C 0.19533 0.00874 0.6564 0.0
C1767 C 0.19783 0.0327 0.63966 0.0
C1768 C 0.20579 0.05857 0.65142 0.0
C1769 C 0.21124 0.06015 0.68041 0.0
H1770 H 0.20722 0.92333 0.8917 0.0
H1771 H 0.19438 0.01043 0.9128 0.0
H1772 H 0.22853 0.00604 0.95118 0.0
H1773 H 0.20921 0.89866 0.95891 0.0
H1774 H 0.23555 0.8725 0.95279 0.0
H1775 H 0.21357 0.88383 0.92461 0.0
H1776 H 0.25728 0.89681 0.89546 0.0
H1777 H 0.27946 0.88546 0.92366 0.0
H1778 H 0.28286 0.9203 0.90987 0.0
H1779 H 0.25997 0.98985 0.99192 0.0
H1780 H 0.28422 0.96336 0.0295 0.0
H1781 H 0.27666 0.88796 0.98019 0.0
C1782 C 0.21209 0.94175 0.90383 0.0
C1783 C 0.19805 0.96725 0.89896 0.0
C1784 C 0.20488 0.99065 0.91583 0.0
C1785 C 0.22433 0.98837 0.93777 0.0
C1786 C 0.23715 0.96265 0.94251 0.0
C1787 C 0.23144 0.93985 0.92572 0.0
C1788 C 0.24603 0.91394 0.93632 0.0
C1789 C 0.22482 0.8909 0.94359 0.0
C1790 C 0.2677 0.90352 0.91506 0.0
C1791 C 0.26003 0.92537 0.96222 0.0
C1792 C 0.2551 0.95357 0.96547 0.0
C1793 C 0.26435 0.96786 0.98925 0.0
C1794 C 0.27826 0.95274 0.01047 0.0
C1795 C 0.28244 0.92363 0.0078 0.0
C1796 C 0.27392 0.91024 0.98288 0.0
H1797 H 0.3427 0.95942 0.1498 0.0
H1798 H 0.25505 0.94102 0.16208 0.0
H1799 H 0.25298 0.97546 0.20023 0.0
H1800 H 0.35957 0.96113 0.2184 0.0
H1801 H 0.38475 0.989 0.21659 0.0
H1802 H 0.37792 0.9681 0.18628 0.0
H1803 H 0.36591 0.0127 0.1581 0.0
H1804 H 0.37269 0.03375 0.18854 0.0
H1805 H 0.33954 0.03627 0.17094 0.0
H1806 H 0.26243 0.00388 0.2429 0.0
H1807 H 0.28309 0.02375 0.28596 0.0
H1808 H 0.36404 0.02538 0.24613 0.0
C1809 C 0.32282 0.96366 0.15967 0.0
C1810 C 0.29893 0.94785 0.15264 0.0
C1811 C 0.27354 0.95309 0.1669 0.0
C1812 C 0.27214 0.9727 0.18859 0.0
C1813 C 0.29629 0.98715 0.19588 0.0
C1814 C 0.32114 0.98308 0.18166 0.0
C1815 C 0.34488 0.99835 0.19603 0.0
C1816 C 0.36812 0.97792 0.20485 0.0
C1817 C 0.35643 0.02166 0.17728 0.0
C1818 C 0.32979 0.01038 0.22118 0.0
C1819 C 0.30165 0.00413 0.22049 0.0
C1820 C 0.28421 0.00982 0.24322 0.0
C1821 C 0.29599 0.02131 0.26756 0.0
C1822 C 0.32482 0.02721 0.26882 0.0
C1823 C 0.34166 0.02239 0.24507 0.0
H1824 H 0.71838 0.38739 0.52744 0.0
H1825 H 0.72617 0.45418 0.46696 0.0
H1826 H 0.7555 0.48057 0.50034 0.0
H1827 H 0.7227 0.43161 0.59325 0.0
H1828 H 0.74307 0.40499 0.61037 0.0
H1829 H 0.71694 0.39535 0.58508 0.0
H1830 H 0.75438 0.3679 0.55741 0.0
H1831 H 0.78072 0.37786 0.5821 0.0
H1832 H 0.78534 0.38573 0.54559 0.0
H1833 H 0.79171 0.49458 0.53606 0.0
H1834 H 0.82924 0.49629 0.57118 0.0
H1835 H 0.79875 0.41919 0.60766 0.0
C1836 C 0.72517 0.40817 0.5217 0.0
C1837 C 0.71973 0.4189 0.49471 0.0
C1838 C 0.72952 0.44585 0.48771 0.0
C1839 C 0.74639 0.46086 0.50652 0.0
C1840 C 0.75292 0.44874 0.53229 0.0
C1841 C 0.74213 0.42316 0.54005 0.0
C1842 C 0.7551 0.41273 0.56699 0.0
C1843 C 0.73314 0.41108 0.59031 0.0
C1844 C 0.76975 0.3844 0.56274 0.0
C1845 C 0.77595 0.43573 0.57258 0.0
C1846 C 0.77406 0.45657 0.55264 0.0
C1847 C 0.79291 0.47869 0.55207 0.0
C1848 C 0.81431 0.47936 0.57209 0.0
C1849 C 0.817 0.4579 0.59237 0.0
C1850 C 0.79709 0.43616 0.59282 0.0
H1851 H 0.81446 0.50231 0.71574 0.0
H1852 H 0.84043 0.42996 0.76288 0.0
H1853 H 0.8279 0.45398 0.80675 0.0
H1854 H 0.84633 0.54798 0.75452 0.0
H1855 H 0.82125 0.576 0.7533 0.0
H1856 H 0.82249 0.55091 0.72555 0.0
H1857 H 0.77044 0.53856 0.73276 0.0
H1858 H 0.76855 0.56461 0.75982 0.0
H1859 H 0.75806 0.52922 0.76706 0.0
H1860 H 0.82447 0.49014 0.84518 0.0
H1861 H 0.82355 0.53262 0.87455 0.0
H1862 H 0.80184 0.58195 0.80166 0.0
C1863 C 0.81524 0.49075 0.73517 0.0
C1864 C 0.82743 0.46391 0.73588 0.0
C1865 C 0.83002 0.45001 0.76181 0.0
C1866 C 0.82345 0.4638 0.78689 0.0
C1867 C 0.81411 0.49139 0.78561 0.0
C1868 C 0.80925 0.50447 0.76029 0.0
C1869 C 0.80334 0.53531 0.76427 0.0
C1870 C 0.82463 0.55358 0.74848 0.0
C1871 C 0.77331 0.54233 0.75547 0.0
C1872 C 0.80697 0.53786 0.79556 0.0
C1873 C 0.81284 0.51233 0.80762 0.0
C1874 C 0.81919 0.51009 0.836 0.0
C1875 C 0.81892 0.53442 0.8525 0.0
C1876 C 0.81254 0.56075 0.84057 0.0
C1877 C 0.80653 0.56222 0.81166 0.0
H1878 H 0.67182 0.53077 0.06089 0.0
H1879 H 0.72547 0.56224 0.12665 0.0
H1880 H 0.76421 0.5662 0.09255 0.0
H1881 H 0.72619 0.49383 0.01866 0.0
H1882 H 0.70991 0.50475 0.98654 0.0
H1883 H 0.68889 0.49848 0.01712 0.0
H1884 H 0.66823 0.54839 0.01335 0.0
H1885 H 0.68892 0.55465 0.98279 0.0
H1886 H 0.69155 0.57788 0.01225 0.0
H1887 H 0.79491 0.57286 0.04951 0.0
H1888 H 0.81166 0.58689 0.00271 0.0
H1889 H 0.73656 0.55313 0.96571 0.0
C1890 C 0.69192 0.53768 0.06853 0.0
C1891 C 0.69557 0.54589 0.09667 0.0
C1892 C 0.72214 0.55553 0.10533 0.0
C1893 C 0.74432 0.55772 0.08608 0.0
C1894 C 0.73964 0.55013 0.05828 0.0
C1895 C 0.71394 0.54035 0.04963 0.0
C1896 C 0.71254 0.53753 0.01819 0.0
C1897 C 0.70919 0.50682 0.00963 0.0
C1898 C 0.68894 0.5557 0.00595 0.0
C1899 C 0.74102 0.54848 0.0102 0.0
C1900 C 0.75679 0.55481 0.03356 0.0
C1901 C 0.78293 0.56746 0.03115 0.0
C1902 C 0.79245 0.57511 0.00441 0.0
C1903 C 0.77556 0.57068 0.98057 0.0
C1904 C 0.75015 0.55613 0.98352 0.0
H1905 H 0.66135 0.44575 0.3555 0.0
H1906 H 0.75125 0.44899 0.3457 0.0
H1907 H 0.74598 0.48401 0.30829 0.0
H1908 H 0.64608 0.44564 0.2866 0.0
H1909 H 0.61506 0.46683 0.2886 0.0
H1910 H 0.62591 0.44677 0.31836 0.0
H1911 H 0.62686 0.4915 0.34875 0.0
H1912 H 0.61562 0.51175 0.31907 0.0
H1913 H 0.64704 0.52117 0.33746 0.0
H1914 H 0.73038 0.51348 0.26679 0.0
H1915 H 0.70551 0.53434 0.22622 0.0
H1916 H 0.62652 0.51082 0.26367 0.0
C1917 C 0.67997 0.45466 0.34631 0.0
C1918 C 0.70667 0.44474 0.3537 0.0
C1919 C 0.73052 0.45634 0.34047 0.0
C1920 C 0.72776 0.47631 0.3192 0.0
C1921 C 0.70103 0.4847 0.31145 0.0
C1922 C 0.67756 0.47444 0.32489 0.0
C1923 C 0.65115 0.48425 0.31072 0.0
C1924 C 0.63355 0.4594 0.30046 0.0
C1925 C 0.63417 0.50331 0.33016 0.0
C1926 C 0.66339 0.50052 0.28658 0.0
C1927 C 0.69216 0.50111 0.28748 0.0
C1928 C 0.70781 0.51353 0.26613 0.0
C1929 C 0.69359 0.5253 0.24317 0.0
C1930 C 0.66415 0.52399 0.24164 0.0
C1931 C 0.64909 0.51198 0.26403 0.0
H1932 H 0.47518 0.21851 0.12158 0.0
H1933 H 0.52472 0.21339 0.04608 0.0
H1934 H 0.48739 0.23851 0.02031 0.0
H1935 H 0.40398 0.21527 0.08816 0.0
H1936 H 0.3904 0.24016 0.11287 0.0
H1937 H 0.4177 0.21637 0.12317 0.0
H1938 H 0.44813 0.25827 0.13859 0.0
H1939 H 0.42124 0.28216 0.12806 0.0
H1940 H 0.45589 0.28551 0.1138 0.0
H1941 H 0.44856 0.27177 0.00548 0.0
H1942 H 0.41259 0.3085 0.00257 0.0
H1943 H 0.38932 0.29246 0.08862 0.0
C1944 C 0.47778 0.22174 0.09935 0.0
C1945 C 0.50281 0.21379 0.08576 0.0
C1946 C 0.50556 0.21879 0.05679 0.0
C1947 C 0.48448 0.2332 0.04207 0.0
C1948 C 0.46071 0.2421 0.05659 0.0
C1949 C 0.45716 0.23613 0.08457 0.0
C1950 C 0.4317 0.2507 0.09646 0.0
C1951 C 0.40963 0.22935 0.1057 0.0
C1952 C 0.43974 0.27032 0.12063 0.0
C1953 C 0.42198 0.26693 0.07116 0.0
C1954 C 0.43864 0.26136 0.04821 0.0
C1955 C 0.43512 0.27579 0.02318 0.0
C1956 C 0.4146 0.29674 0.02178 0.0
C1957 C 0.39786 0.3034 0.04533 0.0
C1958 C 0.40127 0.28763 0.07006 0.0
H1959 H 0.02902 0.23692 0.94058 0.0
H1960 H 0.991 0.31385 0.91259 0.0
H1961 H 0.94464 0.29633 0.92741 0.0
H1962 H 0.98093 0.1934 0.91593 0.0
H1963 H 0.98101 0.16857 0.94421 0.0
H1964 H 0.01145 0.18935 0.93757 0.0
H1965 H 0.01061 0.20802 0.98829 0.0
H1966 H 0.98039 0.18677 0.99537 0.0
H1967 H 0.97923 0.22382 0.00178 0.0
H1968 H 0.90177 0.26556 0.93488 0.0
H1969 H 0.86745 0.22716 0.94017 0.0
H1970 H 0.93416 0.17173 0.96607 0.0
C1971 C 0.01112 0.25066 0.93914 0.0
C1972 C 0.01359 0.27702 0.92624 0.0
C1973 C 0.98962 0.29401 0.92336 0.0
C1974 C 0.96317 0.28406 0.93145 0.0
C1975 C 0.96121 0.25729 0.94287 0.0
C1976 C 0.98476 0.24117 0.94749 0.0
C1977 C 0.97707 0.21221 0.95755 0.0
C1978 C 0.98827 0.18958 0.93762 0.0
C1979 C 0.98743 0.20744 0.98753 0.0
C1980 C 0.94555 0.21396 0.95651 0.0
C1981 C 0.93664 0.24008 0.94809 0.0
C1982 C 0.9085 0.24534 0.94238 0.0
C1983 C 0.88913 0.22338 0.94531 0.0
C1984 C 0.89794 0.19656 0.95411 0.0
C1985 C 0.92651 0.19217 0.96018 0.0
H1986 H 0.98846 0.73927 0.114 0.0
H1987 H 0.95947 0.77436 0.19234 0.0
H1988 H 0.98184 0.73507 0.21766 0.0
H1989 H 0.98314 0.66443 0.1336 0.0
H1990 H 0.0145 0.65589 0.11465 0.0
H1991 H 0.99242 0.68398 0.10281 0.0
H1992 H 0.03454 0.71782 0.10437 0.0
H1993 H 0.05669 0.68995 0.11621 0.0
H1994 H 0.05395 0.72158 0.13638 0.0
H1995 H 0.01305 0.69579 0.23435 0.0
H1996 H 0.05026 0.66088 0.24131 0.0
H1997 H 0.05882 0.6517 0.15171 0.0
C1998 C 0.98623 0.73856 0.13648 0.0
C1999 C 0.97214 0.76005 0.15119 0.0
C2000 C 0.96991 0.75813 0.18058 0.0
C2001 C 0.98257 0.73586 0.19509 0.0
C2002 C 0.99704 0.71555 0.17986 0.0
C2003 C 0.99868 0.71666 0.15114 0.0
C2004 C 0.01754 0.69398 0.13963 0.0
C2005 C 0.0009 0.67334 0.12161 0.0
C2006 C 0.04213 0.7066 0.1232 0.0
C2007 C 0.02728 0.68041 0.16645 0.0
C2008 C 0.01488 0.69289 0.18941 0.0
C2009 C 0.02242 0.68559 0.21651 0.0
C2010 C 0.04363 0.66574 0.22023 0.0
C2011 C 0.05723 0.65334 0.19702 0.0
C2012 C 0.0483 0.66023 0.1698 0.0
H2013 H 0.51102 0.71975 0.39475 0.0
H2014 H 0.45826 0.74167 0.46461 0.0
H2015 H 0.4968 0.76885 0.48528 0.0
H2016 H 0.58211 0.72233 0.43365 0.0
H2017 H 0.59827 0.73806 0.40352 0.0
H2018 H 0.57046 0.71311 0.39908 0.0
H2019 H 0.5434 0.7492 0.36943 0.0
H2020 H 0.57053 0.77453 0.37431 0.0
H2021 H 0.5352 0.78282 0.38422 0.0
H2022 H 0.53467 0.80244 0.49171 0.0
H2023 H 0.57111 0.83813 0.48563 0.0
H2024 H 0.60055 0.79612 0.41114 0.0
C2025 C 0.50842 0.72871 0.41535 0.0
C2026 C 0.48223 0.72781 0.42881 0.0
C2027 C 0.47858 0.74133 0.4547 0.0
C2028 C 0.50033 0.75693 0.46643 0.0
C2029 C 0.52546 0.75892 0.45182 0.0
C2030 C 0.52985 0.74481 0.42701 0.0
C2031 C 0.55668 0.75435 0.41303 0.0
C2032 C 0.57816 0.73054 0.41229 0.0
C2033 C 0.55109 0.76591 0.38352 0.0
C2034 C 0.56572 0.77724 0.4329 0.0
C2035 C 0.54765 0.77908 0.45538 0.0
C2036 C 0.54944 0.80067 0.47471 0.0
C2037 C 0.57002 0.82099 0.47093 0.0
C2038 C 0.58865 0.81963 0.44806 0.0
C2039 C 0.58691 0.79716 0.42913 0.0
H2040 H 0.48694 0.22339 0.69256 0.0
H2041 H 0.56141 0.26592 0.66465 0.0
H2042 H 0.5426 0.31059 0.68255 0.0
H2043 H 0.4415 0.26911 0.67079 0.0
H2044 H 0.41693 0.26741 0.69924 0.0
H2045 H 0.4391 0.23813 0.69206 0.0
H2046 H 0.45826 0.23912 0.74259 0.0
H2047 H 0.43556 0.26815 0.75028 0.0
H2048 H 0.47255 0.27102 0.75644 0.0
H2049 H 0.51023 0.35132 0.69121 0.0
H2050 H 0.46994 0.38344 0.69538 0.0
H2051 H 0.41759 0.31388 0.72004 0.0
C2052 C 0.49994 0.24185 0.69189 0.0
C2053 C 0.52581 0.24127 0.67791 0.0
C2054 C 0.54193 0.2659 0.67613 0.0
C2055 C 0.53125 0.29138 0.68604 0.0
C2056 C 0.50475 0.29163 0.6982 0.0
C2057 C 0.4897 0.26726 0.70199 0.0
C2058 C 0.46046 0.27329 0.71233 0.0
C2059 C 0.43823 0.26129 0.6924 0.0
C2060 C 0.45648 0.26225 0.74219 0.0
C2061 C 0.46065 0.30484 0.7118 0.0
C2062 C 0.48641 0.31517 0.70395 0.0
C2063 C 0.49027 0.34352 0.69834 0.0
C2064 C 0.46722 0.36162 0.70058 0.0
C2065 C 0.44066 0.3513 0.70842 0.0
C2066 C 0.43773 0.32264 0.71474 0.0
H2067 H 0.95928 0.71677 0.58889 0.0
H2068 H 0.99668 0.79917 0.58736 0.0
H2069 H 0.04146 0.77838 0.5723 0.0
H2070 H 0.01411 0.68284 0.61873 0.0
H2071 H 0.01098 0.65089 0.59914 0.0
H2072 H 0.98075 0.67238 0.60484 0.0
H2073 H 0.97204 0.67553 0.55155 0.0
H2074 H 0.00195 0.65348 0.54563 0.0
H2075 H -0.00026 0.68709 0.52886 0.0
H2076 H 0.08395 0.74754 0.56477 0.0
H2077 H 0.11906 0.70991 0.56039 0.0
H2078 H 0.05316 0.64812 0.56686 0.0
C2079 C 0.97661 0.73059 0.58449 0.0
C2080 C 0.97442 0.75962 0.5892 0.0
C2081 C 0.99771 0.77692 0.58353 0.0
C2082 C 0.02331 0.76526 0.57516 0.0
C2083 C 0.02511 0.73635 0.57216 0.0
C2084 C 0.00216 0.71933 0.57608 0.0
C2085 C 0.00985 0.6888 0.57349 0.0
C2086 C 0.00355 0.67281 0.60067 0.0
C2087 C 0.99502 0.67544 0.54838 0.0
C2088 C 0.04091 0.69119 0.5685 0.0
C2089 C 0.04937 0.71874 0.56763 0.0
C2090 C 0.07745 0.72592 0.56491 0.0
C2091 C 0.09727 0.70439 0.56267 0.0
C2092 C 0.08893 0.67601 0.56319 0.0
C2093 C 0.0603 0.66954 0.56611 0.0
H2094 H 0.51254 0.71762 0.80445 0.0
H2095 H 0.44323 0.75619 0.84786 0.0
H2096 H 0.46347 0.80277 0.83855 0.0
H2097 H 0.56248 0.75664 0.83311 0.0
H2098 H 0.58482 0.75949 0.80297 0.0
H2099 H 0.56182 0.73012 0.80643 0.0
H2100 H 0.53908 0.74121 0.75863 0.0
H2101 H 0.56261 0.77025 0.75453 0.0
H2102 H 0.52546 0.77567 0.75203 0.0
H2103 H 0.49643 0.84423 0.83252 0.0
H2104 H 0.5363 0.87653 0.82637 0.0
H2105 H 0.58396 0.80965 0.78806 0.0
C2106 C 0.50091 0.73595 0.81078 0.0
C2107 C 0.47615 0.73331 0.82654 0.0
C2108 C 0.46187 0.75772 0.83516 0.0
C2109 C 0.47341 0.78428 0.8302 0.0
C2110 C 0.49897 0.78601 0.81627 0.0
C2111 C 0.51218 0.76242 0.80612 0.0
C2112 C 0.54082 0.76919 0.79469 0.0
C2113 C 0.56381 0.7529 0.81024 0.0
C2114 C 0.54205 0.76377 0.76309 0.0
C2115 C 0.54226 0.80004 0.80104 0.0
C2116 C 0.51789 0.80957 0.81317 0.0
C2117 C 0.51537 0.83706 0.82251 0.0
C2118 C 0.53822 0.85522 0.81911 0.0
C2119 C 0.56338 0.84575 0.80671 0.0
C2120 C 0.5651 0.81777 0.79749 0.0
H2121 H 0.92053 0.17887 0.27796 0.0
H2122 H 0.97566 0.11474 0.31028 0.0
H2123 H 0.01314 0.1501 0.31548 0.0
H2124 H 0.97358 0.22347 0.24268 0.0
H2125 H 0.95612 0.25489 0.25377 0.0
H2126 H 0.9362 0.22372 0.24697 0.0
H2127 H 0.915 0.22621 0.29672 0.0
H2128 H 0.93464 0.25733 0.30355 0.0
H2129 H 0.938 0.22766 0.32646 0.0
H2130 H 0.04276 0.19393 0.32173 0.0
H2131 H 0.05864 0.24124 0.33486 0.0
H2132 H 0.98215 0.2762 0.30175 0.0
C2133 C 0.94078 0.17191 0.2852 0.0
C2134 C 0.94533 0.14383 0.29313 0.0
C2135 C 0.97181 0.13602 0.30368 0.0
C2136 C 0.99324 0.15596 0.30655 0.0
C2137 C 0.98776 0.18365 0.29902 0.0
C2138 C 0.96198 0.19155 0.28877 0.0
C2139 C 0.95953 0.22295 0.28626 0.0
C2140 C 0.95617 0.23177 0.25559 0.0
C2141 C 0.93539 0.23418 0.30433 0.0
C2142 C 0.98762 0.23175 0.29759 0.0
C2143 C 0.00404 0.20883 0.304 0.0
C2144 C 0.03021 0.21195 0.31639 0.0
C2145 C 0.03921 0.23896 0.32354 0.0
C2146 C 0.02176 0.26239 0.31892 0.0
C2147 C 0.99611 0.25871 0.30496 0.0
H2148 H 0.11999 0.28496 0.43032 0.0
H2149 H 0.04186 0.23899 0.42604 0.0
H2150 H 0.05775 0.20816 0.46352 0.0
H2151 H 0.16348 0.224 0.44295 0.0
H2152 H 0.18663 0.24195 0.46652 0.0
H2153 H 0.16914 0.26101 0.43922 0.0
H2154 H 0.14872 0.29481 0.47617 0.0
H2155 H 0.16583 0.27559 0.50362 0.0
H2156 H 0.12862 0.28097 0.50482 0.0
H2157 H 0.08058 0.18288 0.50191 0.0
H2158 H 0.11201 0.16079 0.53596 0.0
H2159 H 0.17633 0.22143 0.51552 0.0
C2160 C 0.10636 0.26827 0.43712 0.0
C2161 C 0.07962 0.26461 0.42517 0.0
C2162 C 0.06243 0.24244 0.43474 0.0
C2163 C 0.07117 0.22478 0.45619 0.0
C2164 C 0.09726 0.22928 0.46789 0.0
C2165 C 0.11486 0.25012 0.45853 0.0
C2166 C 0.14225 0.24959 0.47441 0.0
C2167 C 0.16683 0.24378 0.45459 0.0
C2168 C 0.1466 0.27686 0.49072 0.0
C2169 C 0.13712 0.22519 0.49398 0.0
C2170 C 0.11088 0.21406 0.48999 0.0
C2171 C 0.10126 0.19129 0.50524 0.0
C2172 C 0.11928 0.17894 0.52461 0.0
C2173 C 0.14672 0.18924 0.52843 0.0
C2174 C 0.15547 0.21307 0.51324 0.0
H2175 H 0.03342 0.92919 0.76931 0.0
H2176 H 0.10019 0.86895 0.78149 0.0
H2177 H 0.0766 0.83658 0.74915 0.0
H2178 H 0.97691 0.87897 0.76476 0.0
H2179 H 0.95858 0.8987 0.73847 0.0
H2180 H 0.98022 0.91643 0.76354 0.0
H2181 H 0.00785 0.93937 0.72306 0.0
H2182 H 0.98661 0.92134 0.69786 0.0
H2183 H 0.02403 0.91756 0.69702 0.0
H2184 H 0.04694 0.81176 0.71426 0.0
H2185 H 0.01113 0.79414 0.68197 0.0
H2186 H 0.96386 0.87086 0.69223 0.0
C2187 C 0.043 0.90907 0.7655 0.0
C2188 C 0.06872 0.90163 0.77795 0.0
C2189 C 0.08048 0.8751 0.77228 0.0
C2190 C 0.06732 0.85664 0.75383 0.0
C2191 C 0.04243 0.86502 0.74134 0.0
C2192 C 0.03022 0.89045 0.74715 0.0
C2193 C 0.00347 0.8945 0.73082 0.0
C2194 C 0.97831 0.8973 0.75058 0.0
C2195 C 0.00564 0.91968 0.71102 0.0
C2196 C 0.00259 0.86735 0.71478 0.0
C2197 C 0.02531 0.85071 0.72113 0.0
C2198 C 0.02901 0.82454 0.70919 0.0
C2199 C 0.00855 0.81477 0.69083 0.0
C2200 C 0.98467 0.83114 0.68457 0.0
C2201 C 0.98199 0.858 0.69636 0.0
H2202 H 0.39245 0.72028 0.93839 0.0
H2203 H 0.47281 0.76188 0.93319 0.0
H2204 H 0.45562 0.79857 0.9651 0.0
H2205 H 0.35036 0.78226 0.93973 0.0
H2206 H 0.32547 0.76774 0.96392 0.0
H2207 H 0.34423 0.74515 0.94048 0.0
H2208 H 0.36192 0.71608 0.98261 0.0
H2209 H 0.34332 0.73867 0.00619 0.0
H2210 H 0.3803 0.7333 0.01054 0.0
H2211 H 0.42935 0.8305 0.99847 0.0
H2212 H 0.39599 0.85528 0.02914 0.0
H2213 H 0.33358 0.79193 0.01169 0.0
C2214 C 0.40651 0.73711 0.94378 0.0
C2215 C 0.43401 0.73813 0.93321 0.0
C2216 C 0.45163 0.7606 0.94096 0.0
C2217 C 0.44208 0.78154 0.95912 0.0
C2218 C 0.41489 0.7797 0.96929 0.0
C2219 C 0.39738 0.75807 0.96178 0.0
C2220 C 0.36914 0.7607 0.97555 0.0
C2221 C 0.34594 0.76418 0.95361 0.0
C2222 C 0.36335 0.73571 0.99487 0.0
C2223 C 0.37344 0.7872 0.99203 0.0
C2224 C 0.39993 0.79791 0.98826 0.0
C2225 C 0.40854 0.82232 0.00153 0.0
C2226 C 0.38945 0.83621 0.01895 0.0
C2227 C 0.3621 0.82563 0.02285 0.0
C2228 C 0.35425 0.80071 0.00921 0.0
H2229 H 0.51672 0.1668 0.21987 0.0
H2230 H 0.53292 0.1054 0.15514 0.0
H2231 H 0.50191 0.07209 0.17932 0.0
H2232 H 0.51365 0.11793 0.278 0.0
H2233 H 0.48609 0.13686 0.29525 0.0
H2234 H 0.51073 0.15517 0.27354 0.0
H2235 H 0.46988 0.1754 0.24437 0.0
H2236 H 0.44514 0.15693 0.26579 0.0
H2237 H 0.44515 0.15194 0.2285 0.0
H2238 H 0.46724 0.04641 0.20932 0.0
H2239 H 0.43344 0.02928 0.24406 0.0
H2240 H 0.44005 0.10771 0.28908 0.0
C2241 C 0.51407 0.14626 0.21085 0.0
C2242 C 0.52733 0.13877 0.18553 0.0
C2243 C 0.52311 0.11165 0.17452 0.0
C2244 C 0.50546 0.09259 0.18807 0.0
C2245 C 0.49231 0.10093 0.21264 0.0
C2246 C 0.49659 0.12703 0.22405 0.0
C2247 C 0.47956 0.13107 0.25037 0.0
C2248 C 0.49865 0.13551 0.27579 0.0
C2249 C 0.4587 0.15527 0.24704 0.0
C2250 C 0.46476 0.10324 0.25186 0.0
C2251 C 0.47242 0.08615 0.22993 0.0
C2252 C 0.46124 0.05955 0.22668 0.0
C2253 C 0.44199 0.05004 0.24656 0.0
C2254 C 0.43406 0.06709 0.26944 0.0
C2255 C 0.44558 0.09412 0.27189 0.0
H2256 H 0.5764 0.26407 0.56708 0.0
H2257 H 0.62767 0.18925 0.56933 0.0
H2258 H 0.65707 0.20826 0.53181 0.0
H2259 H 0.57892 0.27543 0.493 0.0
H2260 H 0.58175 0.31286 0.49547 0.0
H2261 H 0.56397 0.29353 0.52241 0.0
H2262 H 0.59661 0.31478 0.55992 0.0
H2263 H 0.61412 0.33454 0.53317 0.0
H2264 H 0.63388 0.31182 0.55575 0.0
H2265 H 0.67971 0.23374 0.49355 0.0
H2266 H 0.69976 0.26793 0.46112 0.0
H2267 H 0.6357 0.32786 0.48435 0.0
C2268 C 0.59393 0.25181 0.55977 0.0
C2269 C 0.59973 0.22517 0.57109 0.0
C2270 C 0.62294 0.20979 0.56114 0.0
C2271 C 0.6396 0.22026 0.53963 0.0
C2272 C 0.63295 0.24624 0.52851 0.0
C2273 C 0.6111 0.26213 0.53853 0.0
C2274 C 0.60954 0.29006 0.52368 0.0
C2275 C 0.5819 0.29313 0.50769 0.0
C2276 C 0.6138 0.31423 0.54436 0.0
C2277 C 0.63403 0.2873 0.50383 0.0
C2278 C 0.64684 0.26161 0.50677 0.0
C2279 C 0.67003 0.25401 0.49114 0.0
C2280 C 0.68122 0.27362 0.47275 0.0
C2281 C 0.66943 0.30068 0.47037 0.0
C2282 C 0.64503 0.30731 0.48557 0.0
H2283 H 0.95874 0.43131 0.75101 0.0
H2284 H 0.9255 0.36439 0.69963 0.0
H2285 H 0.95357 0.33035 0.72594 0.0
H2286 H 0.02865 0.40357 0.75761 0.0
H2287 H 0.03261 0.41438 0.79342 0.0
H2288 H 0.0103 0.43389 0.77026 0.0
H2289 H 0.96899 0.42756 0.80459 0.0
H2290 H 0.99115 0.408 0.82784 0.0
H2291 H 0.95905 0.39291 0.81536 0.0
H2292 H 0.98458 0.30365 0.75715 0.0
H2293 H 0.01657 0.28501 0.79243 0.0
H2294 H 0.02983 0.36872 0.82484 0.0
C2295 C 0.95745 0.40952 0.74519 0.0
C2296 C 0.93989 0.40056 0.72319 0.0
C2297 C 0.93868 0.3718 0.71641 0.0
C2298 C 0.9546 0.35228 0.73119 0.0
C2299 C 0.97154 0.3618 0.75276 0.0
C2300 C 0.97309 0.38966 0.75985 0.0
C2301 C 0.99269 0.39411 0.78432 0.0
C2302 C 0.01753 0.41258 0.77589 0.0
C2303 C 0.97703 0.40637 0.80952 0.0
C2304 C 0.00185 0.36433 0.78984 0.0
C2305 C 0.98941 0.34615 0.77124 0.0
C2306 C 0.99448 0.31763 0.77186 0.0
C2307 C 0.01279 0.30729 0.79204 0.0
C2308 C 0.02584 0.32537 0.81153 0.0
C2309 C 0.02019 0.35433 0.81035 0.0
H2310 H 0.92113 0.76767 0.02621 0.0
H2311 H 0.85689 0.7939 0.08462 0.0
H2312 H 0.82344 0.76203 0.06204 0.0
H2313 H 0.87559 0.75997 0.9657 0.0
H2314 H 0.89395 0.72967 0.95307 0.0
H2315 H 0.91231 0.75582 0.97283 0.0
H2316 H 0.92851 0.71785 0.00785 0.0
H2317 H 0.90997 0.69164 0.98839 0.0
H2318 H 0.90282 0.69638 0.02502 0.0
H2319 H 0.79749 0.72608 0.03431 0.0
H2320 H 0.78046 0.68949 0.00235 0.0
H2321 H 0.86203 0.6864 0.96279 0.0
C2322 C 0.89993 0.76706 0.03403 0.0
C2323 C 0.89166 0.78334 0.05718 0.0
C2324 C 0.86376 0.78162 0.06693 0.0
C2325 C 0.84459 0.76359 0.05426 0.0
C2326 C 0.85362 0.74742 0.03188 0.0
C2327 C 0.88057 0.7491 0.02174 0.0
C2328 C 0.88521 0.72888 0.99795 0.0
C2329 C 0.89217 0.74452 0.97078 0.0
C2330 C 0.90797 0.70742 0.00526 0.0
C2331 C 0.85673 0.7154 0.9965 0.0
C2332 C 0.83877 0.72645 0.01615 0.0
C2333 C 0.81132 0.71729 0.01876 0.0
C2334 C 0.80188 0.69646 0.00055 0.0
C2335 C 0.81991 0.68496 0.9801 0.0
C2336 C 0.84774 0.69454 0.9783 0.0
H2337 H 0.47391 0.64188 0.31312 0.0
H2338 H 0.51567 0.7221 0.31885 0.0
H2339 H 0.55191 0.70529 0.28601 0.0
H2340 H 0.53528 0.59944 0.31002 0.0
H2341 H 0.51995 0.57521 0.2857 0.0
H2342 H 0.49809 0.59378 0.30995 0.0
H2343 H 0.46838 0.61261 0.26874 0.0
H2344 H 0.49026 0.59424 0.24436 0.0
H2345 H 0.48526 0.63135 0.24082 0.0
H2346 H 0.58325 0.67896 0.25121 0.0
H2347 H 0.6068 0.64552 0.21943 0.0
H2348 H 0.54288 0.584 0.2379 0.0
C2349 C 0.49072 0.656 0.30775 0.0
C2350 C 0.49192 0.68331 0.31863 0.0
C2351 C 0.51428 0.70104 0.31077 0.0
C2352 C 0.53494 0.6917 0.29213 0.0
C2353 C 0.53285 0.66466 0.28159 0.0
C2354 C 0.51127 0.64713 0.28927 0.0
C2355 C 0.51323 0.61918 0.27502 0.0
C2356 C 0.51687 0.59551 0.29646 0.0
C2357 C 0.48777 0.61406 0.25611 0.0
C2358 C 0.53938 0.62354 0.25811 0.0
C2359 C 0.55051 0.64983 0.26196 0.0
C2360 C 0.57471 0.65829 0.24812 0.0
C2361 C 0.58789 0.63922 0.23008 0.0
C2362 C 0.5768 0.61208 0.22623 0.0
C2363 C 0.55213 0.60446 0.2404 0.0
H2364 H 0.25474 0.45911 0.07782 0.0
H2365 H 0.30667 0.42389 0.1433 0.0
H2366 H 0.2843 0.45523 0.17762 0.0
H2367 H 0.25356 0.53055 0.10358 0.0
H2368 H 0.21759 0.53586 0.09392 0.0
H2369 H 0.23904 0.51208 0.0742 0.0
H2370 H 0.20322 0.47246 0.08277 0.0
H2371 H 0.18166 0.4961 0.10244 0.0
H2372 H 0.19326 0.46388 0.11804 0.0
H2373 H 0.25542 0.48906 0.20475 0.0
H2374 H 0.22025 0.52116 0.2238 0.0
H2375 H 0.18632 0.53351 0.14052 0.0
C2376 C 0.26169 0.45819 0.09932 0.0
C2377 C 0.28255 0.43917 0.10791 0.0
C2378 C 0.29069 0.43828 0.1363 0.0
C2379 C 0.27824 0.45609 0.15588 0.0
C2380 C 0.25767 0.4745 0.14668 0.0
C2381 C 0.24935 0.47558 0.11911 0.0
C2382 C 0.22566 0.49606 0.1149 0.0
C2383 C 0.2345 0.52006 0.0955 0.0
C2384 C 0.1994 0.48123 0.1039 0.0
C2385 C 0.22168 0.50611 0.14454 0.0
C2386 C 0.24058 0.49365 0.16245 0.0
C2387 C 0.24058 0.49904 0.19094 0.0
C2388 C 0.22044 0.51733 0.20152 0.0
C2389 C 0.20037 0.52987 0.18367 0.0
C2390 C 0.20136 0.5244 0.15473 0.0
H2391 H 0.75853 0.04337 0.91461 0.0
H2392 H 0.7846 0.10058 0.84928 0.0
H2393 H 0.75504 0.07487 0.81546 0.0
H2394 H 0.75661 0.9812 0.87231 0.0
H2395 H 0.7265 0.96747 0.89019 0.0
H2396 H 0.75055 0.98983 0.90843 0.0
H2397 H 0.7098 0.02304 0.92137 0.0
H2398 H 0.68566 0.00092 0.90302 0.0
H2399 H 0.68823 0.03737 0.89406 0.0
H2400 H 0.72053 0.04371 0.78966 0.0
H2401 H 0.68612 0.00901 0.77352 0.0
H2402 H 0.68366 0.9729 0.85669 0.0
C2403 C 0.75823 0.05058 0.89318 0.0
C2404 C 0.7738 0.07412 0.88461 0.0
C2405 C 0.77289 0.08257 0.85629 0.0
C2406 C 0.75612 0.06815 0.837 0.0
C2407 C 0.74066 0.0453 0.84642 0.0
C2408 C 0.74182 0.03651 0.87383 0.0
C2409 C 0.7231 0.0117 0.87906 0.0
C2410 C 0.74022 0.98603 0.88801 0.0
C2411 C 0.70035 0.01869 0.90065 0.0
C2412 C 0.71087 0.00792 0.8503 0.0
C2413 C 0.72119 0.02745 0.83172 0.0
C2414 C 0.71244 0.02827 0.80402 0.0
C2415 C 0.69279 0.0085 0.7951 0.0
C2416 C 0.68212 0.98816 0.81384 0.0
C2417 C 0.69138 0.98804 0.84179 0.0
H2418 H 0.78439 0.01345 0.33637 0.0
H2419 H 0.8496 0.02947 0.39722 0.0
H2420 H 0.82518 0.99876 0.431 0.0
H2421 H 0.72624 0.01 0.38495 0.0
H2422 H 0.70948 0.98253 0.3655 0.0
H2423 H 0.73102 0.00766 0.34769 0.0
H2424 H 0.76075 0.96735 0.32715 0.0
H2425 H 0.7396 0.94212 0.3452 0.0
H2426 H 0.77685 0.94253 0.35043 0.0
H2427 H 0.7942 0.96363 0.45696 0.0
H2428 H 0.7592 0.92921 0.473 0.0
H2429 H 0.71635 0.93632 0.39344 0.0
C2430 C 0.79353 0.01091 0.35689 0.0
C2431 C 0.81898 0.02388 0.36411 0.0
C2432 C 0.83004 0.01987 0.39126 0.0
C2433 C 0.81637 0.0024 0.41052 0.0
C2434 C 0.79172 0.98927 0.40226 0.0
C2435 C 0.78037 0.99359 0.37611 0.0
C2436 C 0.75439 0.9764 0.37159 0.0
C2437 C 0.72877 0.99528 0.36719 0.0
C2438 C 0.75814 0.95589 0.34715 0.0
C2439 C 0.75296 0.9613 0.39916 0.0
C2440 C 0.77447 0.96902 0.41674 0.0
C2441 C 0.77725 0.95755 0.44335 0.0
C2442 C 0.75731 0.93795 0.45224 0.0
C2443 C 0.73508 0.9299 0.43443 0.0
C2444 C 0.73316 0.94174 0.40753 0.0
H2445 H 0.29821 0.50298 0.66969 0.0
H2446 H 0.34531 0.46282 0.60344 0.0
H2447 H 0.3229 0.49419 0.56893 0.0
H2448 H 0.2355 0.50973 0.63305 0.0
H2449 H 0.22672 0.54298 0.64826 0.0
H2450 H 0.24805 0.5187 0.66736 0.0
H2451 H 0.28651 0.55645 0.67246 0.0
H2452 H 0.26531 0.58085 0.65322 0.0
H2453 H 0.30029 0.57315 0.64168 0.0
H2454 H 0.29281 0.5287 0.54163 0.0
H2455 H 0.25703 0.56159 0.52413 0.0
H2456 H 0.23112 0.57818 0.60941 0.0
C2457 C 0.30409 0.50074 0.64798 0.0
C2458 C 0.32352 0.48039 0.63928 0.0
C2459 C 0.33047 0.47829 0.6106 0.0
C2460 C 0.31794 0.49606 0.59089 0.0
C2461 C 0.29874 0.51583 0.60032 0.0
C2462 C 0.29195 0.51818 0.62823 0.0
C2463 C 0.26984 0.54004 0.63318 0.0
C2464 C 0.24348 0.52708 0.64622 0.0
C2465 C 0.28118 0.56404 0.6512 0.0
C2466 C 0.26474 0.54936 0.60357 0.0
C2467 C 0.2817 0.53545 0.58484 0.0
C2468 C 0.27962 0.53989 0.55616 0.0
C2469 C 0.25927 0.55864 0.54643 0.0
C2470 C 0.24124 0.57247 0.5654 0.0
C2471 C 0.24455 0.56806 0.59431 0.0
loop_
_geom_bond_atom_site_label_1
_geom_bond_atom_site_label_2
_geom_bond_distance
_geom_bond_site_symmetry_2
_ccdc_geom_bond_type
Sc0 O3 2.025 . S
Sc0 O10 2.105 1_455 S
Sc0 O13 2.105 . S
Sc0 O16 2.105 . S
Sc0 O19 2.105 . S
Sc1 O3 2.025 . S
Sc1 O11 2.105 . S
Sc1 O15 2.105 . S
Sc1 O17 2.105 . S
Sc1 O21 2.105 . S
Sc2 O3 2.025 . S
Sc2 O12 2.105 . S
Sc2 O14 2.105 . S
Sc2 O18 2.105 . S
Sc2 O20 2.105 1_455 S
O3 Sc0 2.025 . S
O3 Sc1 2.025 . S
O3 Sc2 2.025 . S
C4 O10 1.268 . S
C4 O20 1.268 . S
C5 O11 1.268 . S
C5 O19 1.268 . S
C6 O12 1.268 . S
C6 O21 1.268 . S
C7 O13 1.268 . S
C7 O17 1.268 . S
C8 O14 1.268 . S
C8 O16 1.268 . S
C9 O15 1.268 . S
C9 O18 1.268 . S
O10 Sc0 2.105 1_655 S
O10 C4 1.268 . S
O11 Sc1 2.105 . S
O11 C5 1.268 . S
O12 Sc2 2.105 . S
O12 C6 1.268 . S
O13 Sc0 2.105 . S
O13 C7 1.268 . S
O14 Sc2 2.105 . S
O14 C8 1.268 . S
O15 Sc1 2.105 . S
O15 C9 1.268 . S
O16 Sc0 2.105 . S
O16 C8 1.268 . S
O17 Sc1 2.105 . S
O17 C7 1.268 . S
O18 Sc2 2.105 . S
O18 C9 1.268 . S
O19 Sc0 2.105 . S
O19 C5 1.268 . S
O20 Sc2 2.105 1_655 S
O20 C4 1.268 . S
O21 Sc1 2.105 . S
O21 C6 1.268 . S
Sc22 O25 2.025 . S
Sc22 O32 2.105 . S
Sc22 O35 2.105 . S
Sc22 O38 2.105 . S
Sc22 O41 2.105 . S
Sc23 O25 2.025 . S
Sc23 O33 2.105 . S
Sc23 O37 2.105 . S
Sc23 O39 2.105 . S
Sc23 O43 2.105 . S
Sc24 O25 2.025 . S
Sc24 O34 2.105 . S
Sc24 O36 2.105 . S
Sc24 O40 2.105 . S
Sc24 O42 2.105 . S
O25 Sc22 2.025 . S
O25 Sc23 2.025 . S
O25 Sc24 2.025 . S
C26 O32 1.268 . S
C26 O42 1.268 . S
C27 O33 1.268 . S
C27 O41 1.268 . S
C28 O34 1.268 . S
C28 O43 1.268 . S
C29 O35 1.268 . S
C29 O39 1.268 . S
C30 O36 1.268 . S
C30 O38 1.268 . S
C31 O37 1.268 . S
C31 O40 1.268 . S
O32 Sc22 2.105 . S
O32 C26 1.268 . S
O33 Sc23 2.105 . S
O33 C27 1.268 . S
O34 Sc24 2.105 . S
O34 C28 1.268 . S
O35 Sc22 2.105 . S
O35 C29 1.268 . S
O36 Sc24 2.105 . S
O36 C30 1.268 . S
O37 Sc23 2.105 . S
O37 C31 1.268 . S
O38 Sc22 2.105 . S
O38 C30 1.268 . S
O39 Sc23 2.105 . S
O39 C29 1.268 . S
O40 Sc24 2.105 . S
O40 C31 1.268 . S
O41 Sc22 2.105 . S
O41 C27 1.268 . S
O42 Sc24 2.105 . S
O42 C26 1.268 . S
O43 Sc23 2.105 . S
O43 C28 1.268 . S
Sc44 O47 2.025 . S
Sc44 O54 2.105 . S
Sc44 O57 2.105 . S
Sc44 O60 2.105 . S
Sc44 O63 2.105 . S
Sc45 O47 2.025 . S
Sc45 O55 2.105 . S
Sc45 O59 2.105 . S
Sc45 O61 2.105 . S
Sc45 O65 2.105 . S
Sc46 O47 2.025 . S
Sc46 O56 2.105 . S
Sc46 O58 2.105 . S
Sc46 O62 2.105 . S
Sc46 O64 2.105 . S
O47 Sc44 2.025 . S
O47 Sc45 2.025 . S
O47 Sc46 2.025 . S
C48 O54 1.268 . S
C48 O64 1.268 . S
C49 O55 1.268 . S
C49 O63 1.268 . S
C50 O56 1.268 . S
C50 O65 1.268 . S
C51 O57 1.268 . S
C51 O61 1.268 . S
C52 O58 1.268 . S
C52 O60 1.268 . S
C53 O59 1.268 . S
C53 O62 1.268 . S
O54 Sc44 2.105 . S
O54 C48 1.268 . S
O55 Sc45 2.105 . S
O55 C49 1.268 . S
O56 Sc46 2.105 . S
O56 C50 1.268 . S
O57 Sc44 2.105 . S
O57 C51 1.268 . S
O58 Sc46 2.105 . S
O58 C52 1.268 . S
O59 Sc45 2.105 . S
O59 C53 1.268 . S
O60 Sc44 2.105 . S
O60 C52 1.268 . S
O61 Sc45 2.105 . S
O61 C51 1.268 . S
O62 Sc46 2.105 . S
O62 C53 1.268 . S
O63 Sc44 2.105 . S
O63 C49 1.268 . S
O64 Sc46 2.105 . S
O64 C48 1.268 . S
O65 Sc45 2.105 . S
O65 C50 1.268 . S
Sc66 O69 2.025 . S
Sc66 O76 2.105 . S
Sc66 O79 2.105 . S
Sc66 O82 2.105 . S
Sc66 O85 2.105 . S
Sc67 O69 2.025 . S
Sc67 O77 2.105 . S
Sc67 O81 2.105 . S
Sc67 O83 2.105 . S
Sc67 O87 2.105 . S
Sc68 O69 2.025 . S
Sc68 O78 2.105 . S
Sc68 O80 2.105 . S
Sc68 O84 2.105 . S
Sc68 O86 2.105 . S
O69 Sc66 2.025 . S
O69 Sc67 2.025 . S
O69 Sc68 2.025 . S
C70 O76 1.268 . S
C70 O86 1.268 . S
C71 O77 1.268 . S
C71 O85 1.268 . S
C72 O78 1.268 . S
C72 O87 1.268 . S
C73 O79 1.268 . S
C73 O83 1.268 . S
C74 O80 1.268 . S
C74 O82 1.268 . S
C75 O81 1.268 . S
C75 O84 1.268 . S
O76 Sc66 2.105 . S
O76 C70 1.268 . S
O77 Sc67 2.105 . S
O77 C71 1.268 . S
O78 Sc68 2.105 . S
O78 C72 1.268 . S
O79 Sc66 2.105 . S
O79 C73 1.268 . S
O80 Sc68 2.105 . S
O80 C74 1.268 . S
O81 Sc67 2.105 . S
O81 C75 1.268 . S
O82 Sc66 2.105 . S
O82 C74 1.268 . S
O83 Sc67 2.105 . S
O83 C73 1.268 . S
O84 Sc68 2.105 . S
O84 C75 1.268 . S
O85 Sc66 2.105 . S
O85 C71 1.268 . S
O86 Sc68 2.105 . S
O86 C70 1.268 . S
O87 Sc67 2.105 . S
O87 C72 1.268 . S
Sc88 O91 2.025 . S
Sc88 O98 2.105 . S
Sc88 O101 2.105 . S
Sc88 O104 2.105 . S
Sc88 O107 2.105 . S
Sc89 O91 2.025 . S
Sc89 O99 2.105 . S
Sc89 O103 2.105 . S
Sc89 O105 2.105 . S
Sc89 O109 2.105 . S
Sc90 O91 2.025 . S
Sc90 O100 2.105 . S
Sc90 O102 2.105 . S
Sc90 O106 2.105 . S
Sc90 O108 2.105 . S
O91 Sc88 2.025 . S
O91 Sc89 2.025 . S
O91 Sc90 2.025 . S
C92 O98 1.268 . S
C92 O108 1.268 . S
C93 O99 1.268 . S
C93 O107 1.268 . S
C94 O100 1.268 . S
C94 O109 1.268 . S
C95 O101 1.268 . S
C95 O105 1.268 . S
C96 O102 1.268 . S
C96 O104 1.268 . S
C97 O103 1.268 . S
C97 O106 1.268 . S
O98 Sc88 2.105 . S
O98 C92 1.268 . S
O99 Sc89 2.105 . S
O99 C93 1.268 . S
O100 Sc90 2.105 . S
O100 C94 1.268 . S
O101 Sc88 2.105 . S
O101 C95 1.268 . S
O102 Sc90 2.105 . S
O102 C96 1.268 . S
O103 Sc89 2.105 . S
O103 C97 1.268 . S
O104 Sc88 2.105 . S
O104 C96 1.268 . S
O105 Sc89 2.105 . S
O105 C95 1.268 . S
O106 Sc90 2.105 . S
O106 C97 1.268 . S
O107 Sc88 2.105 . S
O107 C93 1.268 . S
O108 Sc90 2.105 . S
O108 C92 1.268 . S
O109 Sc89 2.105 . S
O109 C94 1.268 . S
Sc110 O113 2.025 . S
Sc110 O120 2.105 . S
Sc110 O123 2.105 . S
Sc110 O126 2.105 . S
Sc110 O129 2.105 . S
Sc111 O113 2.025 . S
Sc111 O121 2.105 . S
Sc111 O125 2.105 . S
Sc111 O127 2.105 . S
Sc111 O131 2.105 . S
Sc112 O113 2.025 . S
Sc112 O122 2.105 . S
Sc112 O124 2.105 . S
Sc112 O128 2.105 . S
Sc112 O130 2.105 . S
O113 Sc110 2.025 . S
O113 Sc111 2.025 . S
O113 Sc112 2.025 . S
C114 O120 1.268 . S
C114 O130 1.268 . S
C115 O121 1.268 . S
C115 O129 1.268 . S
C116 O122 1.268 . S
C116 O131 1.268 . S
C117 O123 1.268 . S
C117 O127 1.268 . S
C118 O124 1.268 . S
C118 O126 1.268 . S
C119 O125 1.268 . S
C119 O128 1.268 . S
O120 Sc110 2.105 . S
O120 C114 1.268 . S
O121 Sc111 2.105 . S
O121 C115 1.268 . S
O122 Sc112 2.105 . S
O122 C116 1.268 . S
O123 Sc110 2.105 . S
O123 C117 1.268 . S
O124 Sc112 2.105 . S
O124 C118 1.268 . S
O125 Sc111 2.105 . S
O125 C119 1.268 . S
O126 Sc110 2.105 . S
O126 C118 1.268 . S
O127 Sc111 2.105 . S
O127 C117 1.268 . S
O128 Sc112 2.105 . S
O128 C119 1.268 . S
O129 Sc110 2.105 . S
O129 C115 1.268 . S
O130 Sc112 2.105 . S
O130 C114 1.268 . S
O131 Sc111 2.105 . S
O131 C116 1.268 . S
Sc132 O135 2.025 . S
Sc132 O142 2.105 . S
Sc132 O145 2.105 . S
Sc132 O148 2.105 1_655 S
Sc132 O151 2.105 . S
Sc133 O135 2.025 . S
Sc133 O143 2.105 . S
Sc133 O147 2.105 . S
Sc133 O149 2.105 . S
Sc133 O153 2.105 . S
Sc134 O135 2.025 . S
Sc134 O144 2.105 . S
Sc134 O146 2.105 1_655 S
Sc134 O150 2.105 . S
Sc134 O152 2.105 . S
O135 Sc132 2.025 . S
O135 Sc133 2.025 . S
O135 Sc134 2.025 . S
C136 O142 1.268 . S
C136 O152 1.268 . S
C137 O143 1.268 . S
C137 O151 1.268 . S
C138 O144 1.268 . S
C138 O153 1.268 . S
C139 O145 1.268 . S
C139 O149 1.268 . S
C140 O146 1.268 . S
C140 O148 1.268 . S
C141 O147 1.268 . S
C141 O150 1.268 . S
O142 Sc132 2.105 . S
O142 C136 1.268 . S
O143 Sc133 2.105 . S
O143 C137 1.268 . S
O144 Sc134 2.105 . S
O144 C138 1.268 . S
O145 Sc132 2.105 . S
O145 C139 1.268 . S
O146 Sc134 2.105 1_455 S
O146 C140 1.268 . S
O147 Sc133 2.105 . S
O147 C141 1.268 . S
O148 Sc132 2.105 1_455 S
O148 C140 1.268 . S
O149 Sc133 2.105 . S
O149 C139 1.268 . S
O150 Sc134 2.105 . S
O150 C141 1.268 . S
O151 Sc132 2.105 . S
O151 C137 1.268 . S
O152 Sc134 2.105 . S
O152 C136 1.268 . S
O153 Sc133 2.105 . S
O153 C138 1.268 . S
Sc154 O157 2.025 . S
Sc154 O164 2.105 . S
Sc154 O167 2.105 . S
Sc154 O170 2.105 . S
Sc154 O173 2.105 . S
Sc155 O157 2.025 . S
Sc155 O165 2.105 . S
Sc155 O169 2.105 . S
Sc155 O171 2.105 . S
Sc155 O175 2.105 . S
Sc156 O157 2.025 . S
Sc156 O166 2.105 . S
Sc156 O168 2.105 . S
Sc156 O172 2.105 . S
Sc156 O174 2.105 . S
O157 Sc154 2.025 . S
O157 Sc155 2.025 . S
O157 Sc156 2.025 . S
C158 O164 1.268 . S
C158 O174 1.268 . S
C159 O165 1.268 . S
C159 O173 1.268 . S
C160 O166 1.268 . S
C160 O175 1.268 . S
C161 O167 1.268 . S
C161 O171 1.268 . S
C162 O168 1.268 . S
C162 O170 1.268 . S
C163 O169 1.268 . S
C163 O172 1.268 . S
O164 Sc154 2.105 . S
O164 C158 1.268 . S
O165 Sc155 2.105 . S
O165 C159 1.268 . S
O166 Sc156 2.105 . S
O166 C160 1.268 . S
O167 Sc154 2.105 . S
O167 C161 1.268 . S
O168 Sc156 2.105 . S
O168 C162 1.268 . S
O169 Sc155 2.105 . S
O169 C163 1.268 . S
O170 Sc154 2.105 . S
O170 C162 1.268 . S
O171 Sc155 2.105 . S
O171 C161 1.268 . S
O172 Sc156 2.105 . S
O172 C163 1.268 . S
O173 Sc154 2.105 . S
O173 C159 1.268 . S
O174 Sc156 2.105 . S
O174 C158 1.268 . S
O175 Sc155 2.105 . S
O175 C160 1.268 . S
Sc176 O179 2.025 . S
Sc176 O186 2.105 . S
Sc176 O189 2.105 . S
Sc176 O192 2.105 1_545 S
Sc176 O195 2.105 . S
Sc177 O179 2.025 . S
Sc177 O187 2.105 . S
Sc177 O191 2.105 . S
Sc177 O193 2.105 . S
Sc177 O197 2.105 . S
Sc178 O179 2.025 . S
Sc178 O188 2.105 . S
Sc178 O190 2.105 1_545 S
Sc178 O194 2.105 . S
Sc178 O196 2.105 . S
O179 Sc176 2.025 . S
O179 Sc177 2.025 . S
O179 Sc178 2.025 . S
C180 O186 1.268 . S
C180 O196 1.268 . S
C181 O187 1.268 . S
C181 O195 1.268 . S
C182 O188 1.268 . S
C182 O197 1.268 . S
C183 O189 1.268 . S
C183 O193 1.268 . S
C184 O190 1.268 . S
C184 O192 1.268 . S
C185 O191 1.268 . S
C185 O194 1.268 . S
O186 Sc176 2.105 . S
O186 C180 1.268 . S
O187 Sc177 2.105 . S
O187 C181 1.268 . S
O188 Sc178 2.105 . S
O188 C182 1.268 . S
O189 Sc176 2.105 . S
O189 C183 1.268 . S
O190 Sc178 2.105 1_565 S
O190 C184 1.268 . S
O191 Sc177 2.105 . S
O191 C185 1.268 . S
O192 Sc176 2.105 1_565 S
O192 C184 1.268 . S
O193 Sc177 2.105 . S
O193 C183 1.268 . S
O194 Sc178 2.105 . S
O194 C185 1.268 . S
O195 Sc176 2.105 . S
O195 C181 1.268 . S
O196 Sc178 2.105 . S
O196 C180 1.268 . S
O197 Sc177 2.105 . S
O197 C182 1.268 . S
Sc198 O201 2.025 . S
Sc198 O208 2.105 . S
Sc198 O211 2.105 . S
Sc198 O214 2.105 . S
Sc198 O217 2.105 . S
Sc199 O201 2.025 . S
Sc199 O209 2.105 . S
Sc199 O213 2.105 . S
Sc199 O215 2.105 . S
Sc199 O219 2.105 . S
Sc200 O201 2.025 . S
Sc200 O210 2.105 . S
Sc200 O212 2.105 . S
Sc200 O216 2.105 . S
Sc200 O218 2.105 . S
O201 Sc198 2.025 . S
O201 Sc199 2.025 . S
O201 Sc200 2.025 . S
C202 O208 1.268 . S
C202 O218 1.268 . S
C203 O209 1.268 . S
C203 O217 1.268 . S
C204 O210 1.268 . S
C204 O219 1.268 . S
C205 O211 1.268 . S
C205 O215 1.268 . S
C206 O212 1.268 . S
C206 O214 1.268 . S
C207 O213 1.268 . S
C207 O216 1.268 . S
O208 Sc198 2.105 . S
O208 C202 1.268 . S
O209 Sc199 2.105 . S
O209 C203 1.268 . S
O210 Sc200 2.105 . S
O210 C204 1.268 . S
O211 Sc198 2.105 . S
O211 C205 1.268 . S
O212 Sc200 2.105 . S
O212 C206 1.268 . S
O213 Sc199 2.105 . S
O213 C207 1.268 . S
O214 Sc198 2.105 . S
O214 C206 1.268 . S
O215 Sc199 2.105 . S
O215 C205 1.268 . S
O216 Sc200 2.105 . S
O216 C207 1.268 . S
O217 Sc198 2.105 . S
O217 C203 1.268 . S
O218 Sc200 2.105 . S
O218 C202 1.268 . S
O219 Sc199 2.105 . S
O219 C204 1.268 . S
Sc220 O223 2.025 . S
Sc220 O230 2.105 1_565 S
Sc220 O233 2.105 . S
Sc220 O236 2.105 . S
Sc220 O239 2.105 . S
Sc221 O223 2.025 . S
Sc221 O231 2.105 . S
Sc221 O235 2.105 . S
Sc221 O237 2.105 . S
Sc221 O241 2.105 . S
Sc222 O223 2.025 . S
Sc222 O232 2.105 . S
Sc222 O234 2.105 . S
Sc222 O238 2.105 . S
Sc222 O240 2.105 1_565 S
O223 Sc220 2.025 . S
O223 Sc221 2.025 . S
O223 Sc222 2.025 . S
C224 O230 1.268 . S
C224 O240 1.268 . S
C225 O231 1.268 . S
C225 O239 1.268 . S
C226 O232 1.268 . S
C226 O241 1.268 . S
C227 O233 1.268 . S
C227 O237 1.268 . S
C228 O234 1.268 . S
C228 O236 1.268 . S
C229 O235 1.268 . S
C229 O238 1.268 . S
O230 Sc220 2.105 1_545 S
O230 C224 1.268 . S
O231 Sc221 2.105 . S
O231 C225 1.268 . S
O232 Sc222 2.105 . S
O232 C226 1.268 . S
O233 Sc220 2.105 . S
O233 C227 1.268 . S
O234 Sc222 2.105 . S
O234 C228 1.268 . S
O235 Sc221 2.105 . S
O235 C229 1.268 . S
O236 Sc220 2.105 . S
O236 C228 1.268 . S
O237 Sc221 2.105 . S
O237 C227 1.268 . S
O238 Sc222 2.105 . S
O238 C229 1.268 . S
O239 Sc220 2.105 . S
O239 C225 1.268 . S
O240 Sc222 2.105 1_545 S
O240 C224 1.268 . S
O241 Sc221 2.105 . S
O241 C226 1.268 . S
Sc242 O245 2.025 . S
Sc242 O252 2.105 . S
Sc242 O255 2.105 . S
Sc242 O258 2.105 . S
Sc242 O261 2.105 . S
Sc243 O245 2.025 . S
Sc243 O253 2.105 . S
Sc243 O257 2.105 . S
Sc243 O259 2.105 . S
Sc243 O263 2.105 . S
Sc244 O245 2.025 . S
Sc244 O254 2.105 . S
Sc244 O256 2.105 . S
Sc244 O260 2.105 . S
Sc244 O262 2.105 . S
O245 Sc242 2.025 . S
O245 Sc243 2.025 . S
O245 Sc244 2.025 . S
C246 O252 1.268 . S
C246 O262 1.268 . S
C247 O253 1.268 . S
C247 O261 1.268 . S
C248 O254 1.268 . S
C248 O263 1.268 . S
C249 O255 1.268 . S
C249 O259 1.268 . S
C250 O256 1.268 . S
C250 O258 1.268 . S
C251 O257 1.268 . S
C251 O260 1.268 . S
O252 Sc242 2.105 . S
O252 C246 1.268 . S
O253 Sc243 2.105 . S
O253 C247 1.268 . S
O254 Sc244 2.105 . S
O254 C248 1.268 . S
O255 Sc242 2.105 . S
O255 C249 1.268 . S
O256 Sc244 2.105 . S
O256 C250 1.268 . S
O257 Sc243 2.105 . S
O257 C251 1.268 . S
O258 Sc242 2.105 . S
O258 C250 1.268 . S
O259 Sc243 2.105 . S
O259 C249 1.268 . S
O260 Sc244 2.105 . S
O260 C251 1.268 . S
O261 Sc242 2.105 . S
O261 C247 1.268 . S
O262 Sc244 2.105 . S
O262 C246 1.268 . S
O263 Sc243 2.105 . S
O263 C248 1.268 . S
Sc264 O267 2.025 . S
Sc264 O274 2.105 . S
Sc264 O277 2.105 . S
Sc264 O280 2.105 . S
Sc264 O283 2.105 . S
Sc265 O267 2.025 . S
Sc265 O275 2.105 . S
Sc265 O279 2.105 . S
Sc265 O281 2.105 . S
Sc265 O285 2.105 . S
Sc266 O267 2.025 . S
Sc266 O276 2.105 . S
Sc266 O278 2.105 . S
Sc266 O282 2.105 . S
Sc266 O284 2.105 . S
O267 Sc264 2.025 . S
O267 Sc265 2.025 . S
O267 Sc266 2.025 . S
C268 O274 1.268 . S
C268 O284 1.268 . S
C269 O275 1.268 . S
C269 O283 1.268 . S
C270 O276 1.268 . S
C270 O285 1.268 . S
C271 O277 1.268 . S
C271 O281 1.268 . S
C272 O278 1.268 . S
C272 O280 1.268 . S
C273 O279 1.268 . S
C273 O282 1.268 . S
O274 Sc264 2.105 . S
O274 C268 1.268 . S
O275 Sc265 2.105 . S
O275 C269 1.268 . S
O276 Sc266 2.105 . S
O276 C270 1.268 . S
O277 Sc264 2.105 . S
O277 C271 1.268 . S
O278 Sc266 2.105 . S
O278 C272 1.268 . S
O279 Sc265 2.105 . S
O279 C273 1.268 . S
O280 Sc264 2.105 . S
O280 C272 1.268 . S
O281 Sc265 2.105 . S
O281 C271 1.268 . S
O282 Sc266 2.105 . S
O282 C273 1.268 . S
O283 Sc264 2.105 . S
O283 C269 1.268 . S
O284 Sc266 2.105 . S
O284 C268 1.268 . S
O285 Sc265 2.105 . S
O285 C270 1.268 . S
Sc286 O289 2.025 . S
Sc286 O296 2.105 . S
Sc286 O299 2.105 . S
Sc286 O302 2.105 . S
Sc286 O305 2.105 . S
Sc287 O289 2.025 . S
Sc287 O297 2.105 . S
Sc287 O301 2.105 . S
Sc287 O303 2.105 . S
Sc287 O307 2.105 . S
Sc288 O289 2.025 . S
Sc288 O298 2.105 . S
Sc288 O300 2.105 . S
Sc288 O304 2.105 . S
Sc288 O306 2.105 . S
O289 Sc286 2.025 . S
O289 Sc287 2.025 . S
O289 Sc288 2.025 . S
C290 O296 1.268 . S
C290 O306 1.268 . S
C291 O297 1.268 . S
C291 O305 1.268 . S
C292 O298 1.268 . S
C292 O307 1.268 . S
C293 O299 1.268 . S
C293 O303 1.268 . S
C294 O300 1.268 . S
C294 O302 1.268 . S
C295 O301 1.268 . S
C295 O304 1.268 . S
O296 Sc286 2.105 . S
O296 C290 1.268 . S
O297 Sc287 2.105 . S
O297 C291 1.268 . S
O298 Sc288 2.105 . S
O298 C292 1.268 . S
O299 Sc286 2.105 . S
O299 C293 1.268 . S
O300 Sc288 2.105 . S
O300 C294 1.268 . S
O301 Sc287 2.105 . S
O301 C295 1.268 . S
O302 Sc286 2.105 . S
O302 C294 1.268 . S
O303 Sc287 2.105 . S
O303 C293 1.268 . S
O304 Sc288 2.105 . S
O304 C295 1.268 . S
O305 Sc286 2.105 . S
O305 C291 1.268 . S
O306 Sc288 2.105 . S
O306 C290 1.268 . S
O307 Sc287 2.105 . S
O307 C292 1.268 . S
Sc308 O311 2.025 . S
Sc308 O318 2.105 . S
Sc308 O321 2.105 . S
Sc308 O324 2.105 . S
Sc308 O327 2.105 . S
Sc309 O311 2.025 . S
Sc309 O319 2.105 . S
Sc309 O323 2.105 . S
Sc309 O325 2.105 . S
Sc309 O329 2.105 . S
Sc310 O311 2.025 . S
Sc310 O320 2.105 . S
Sc310 O322 2.105 . S
Sc310 O326 2.105 . S
Sc310 O328 2.105 . S
O311 Sc308 2.025 . S
O311 Sc309 2.025 . S
O311 Sc310 2.025 . S
C312 O318 1.268 . S
C312 O328 1.268 . S
C313 O319 1.268 . S
C313 O327 1.268 . S
C314 O320 1.268 . S
C314 O329 1.268 . S
C315 O321 1.268 . S
C315 O325 1.268 . S
C316 O322 1.268 . S
C316 O324 1.268 . S
C317 O323 1.268 . S
C317 O326 1.268 . S
O318 Sc308 2.105 . S
O318 C312 1.268 . S
O319 Sc309 2.105 . S
O319 C313 1.268 . S
O320 Sc310 2.105 . S
O320 C314 1.268 . S
O321 Sc308 2.105 . S
O321 C315 1.268 . S
O322 Sc310 2.105 . S
O322 C316 1.268 . S
O323 Sc309 2.105 . S
O323 C317 1.268 . S
O324 Sc308 2.105 . S
O324 C316 1.268 . S
O325 Sc309 2.105 . S
O325 C315 1.268 . S
O326 Sc310 2.105 . S
O326 C317 1.268 . S
O327 Sc308 2.105 . S
O327 C313 1.268 . S
O328 Sc310 2.105 . S
O328 C312 1.268 . S
O329 Sc309 2.105 . S
O329 C314 1.268 . S
Sc330 O333 2.025 . S
Sc330 O340 2.105 . S
Sc330 O343 2.105 . S
Sc330 O346 2.105 . S
Sc330 O349 2.105 . S
Sc331 O333 2.025 . S
Sc331 O341 2.105 . S
Sc331 O345 2.105 . S
Sc331 O347 2.105 . S
Sc331 O351 2.105 . S
Sc332 O333 2.025 . S
Sc332 O342 2.105 . S
Sc332 O344 2.105 . S
Sc332 O348 2.105 . S
Sc332 O350 2.105 . S
O333 Sc330 2.025 . S
O333 Sc331 2.025 . S
O333 Sc332 2.025 . S
C334 O340 1.268 . S
C334 O350 1.268 . S
C335 O341 1.268 . S
C335 O349 1.268 . S
C336 O342 1.268 . S
C336 O351 1.268 . S
C337 O343 1.268 . S
C337 O347 1.268 . S
C338 O344 1.268 . S
C338 O346 1.268 . S
C339 O345 1.268 . S
C339 O348 1.268 . S
O340 Sc330 2.105 . S
O340 C334 1.268 . S
O341 Sc331 2.105 . S
O341 C335 1.268 . S
O342 Sc332 2.105 . S
O342 C336 1.268 . S
O343 Sc330 2.105 . S
O343 C337 1.268 . S
O344 Sc332 2.105 . S
O344 C338 1.268 . S
O345 Sc331 2.105 . S
O345 C339 1.268 . S
O346 Sc330 2.105 . S
O346 C338 1.268 . S
O347 Sc331 2.105 . S
O347 C337 1.268 . S
O348 Sc332 2.105 . S
O348 C339 1.268 . S
O349 Sc330 2.105 . S
O349 C335 1.268 . S
O350 Sc332 2.105 . S
O350 C334 1.268 . S
O351 Sc331 2.105 . S
O351 C336 1.268 . S
Sc352 O355 2.025 . S
Sc352 O362 2.105 1_554 S
Sc352 O365 2.105 . S
Sc352 O368 2.105 . S
Sc352 O371 2.105 . S
Sc353 O355 2.025 . S
Sc353 O363 2.105 . S
Sc353 O367 2.105 . S
Sc353 O369 2.105 . S
Sc353 O373 2.105 . S
Sc354 O355 2.025 . S
Sc354 O364 2.105 . S
Sc354 O366 2.105 . S
Sc354 O370 2.105 . S
Sc354 O372 2.105 1_554 S
O355 Sc352 2.025 . S
O355 Sc353 2.025 . S
O355 Sc354 2.025 . S
C356 O362 1.268 . S
C356 O372 1.268 . S
C357 O363 1.268 . S
C357 O371 1.268 . S
C358 O364 1.268 . S
C358 O373 1.268 . S
C359 O365 1.268 . S
C359 O369 1.268 . S
C360 O366 1.268 . S
C360 O368 1.268 . S
C361 O367 1.268 . S
C361 O370 1.268 . S
O362 Sc352 2.105 1_556 S
O362 C356 1.268 . S
O363 Sc353 2.105 . S
O363 C357 1.268 . S
O364 Sc354 2.105 . S
O364 C358 1.268 . S
O365 Sc352 2.105 . S
O365 C359 1.268 . S
O366 Sc354 2.105 . S
O366 C360 1.268 . S
O367 Sc353 2.105 . S
O367 C361 1.268 . S
O368 Sc352 2.105 . S
O368 C360 1.268 . S
O369 Sc353 2.105 . S
O369 C359 1.268 . S
O370 Sc354 2.105 . S
O370 C361 1.268 . S
O371 Sc352 2.105 . S
O371 C357 1.268 . S
O372 Sc354 2.105 1_556 S
O372 C356 1.268 . S
O373 Sc353 2.105 . S
O373 C358 1.268 . S
Sc374 O377 2.025 . S
Sc374 O384 2.105 . S
Sc374 O387 2.105 . S
Sc374 O390 2.105 1_556 S
Sc374 O393 2.105 . S
Sc375 O377 2.025 . S
Sc375 O385 2.105 . S
Sc375 O389 2.105 . S
Sc375 O391 2.105 . S
Sc375 O395 2.105 . S
Sc376 O377 2.025 . S
Sc376 O386 2.105 . S
Sc376 O388 2.105 1_556 S
Sc376 O392 2.105 . S
Sc376 O394 2.105 . S
O377 Sc374 2.025 . S
O377 Sc375 2.025 . S
O377 Sc376 2.025 . S
C378 O384 1.268 . S
C378 O394 1.268 . S
C379 O385 1.268 . S
C379 O393 1.268 . S
C380 O386 1.268 . S
C380 O395 1.268 . S
C381 O387 1.268 . S
C381 O391 1.268 . S
C382 O388 1.268 . S
C382 O390 1.268 . S
C383 O389 1.268 . S
C383 O392 1.268 . S
O384 Sc374 2.105 . S
O384 C378 1.268 . S
O385 Sc375 2.105 . S
O385 C379 1.268 . S
O386 Sc376 2.105 . S
O386 C380 1.268 . S
O387 Sc374 2.105 . S
O387 C381 1.268 . S
O388 Sc376 2.105 1_554 S
O388 C382 1.268 . S
O389 Sc375 2.105 . S
O389 C383 1.268 . S
O390 Sc374 2.105 1_554 S
O390 C382 1.268 . S
O391 Sc375 2.105 . S
O391 C381 1.268 . S
O392 Sc376 2.105 . S
O392 C383 1.268 . S
O393 Sc374 2.105 . S
O393 C379 1.268 . S
O394 Sc376 2.105 . S
O394 C378 1.268 . S
O395 Sc375 2.105 . S
O395 C380 1.268 . S
Sc396 O399 2.025 . S
Sc396 O406 2.105 . S
Sc396 O409 2.105 . S
Sc396 O412 2.105 . S
Sc396 O415 2.105 . S
Sc397 O399 2.025 . S
Sc397 O407 2.105 . S
Sc397 O411 2.105 . S
Sc397 O413 2.105 . S
Sc397 O417 2.105 . S
Sc398 O399 2.025 . S
Sc398 O408 2.105 . S
Sc398 O410 2.105 . S
Sc398 O414 2.105 . S
Sc398 O416 2.105 . S
O399 Sc396 2.025 . S
O399 Sc397 2.025 . S
O399 Sc398 2.025 . S
C400 O406 1.268 . S
C400 O416 1.268 . S
C401 O407 1.268 . S
C401 O415 1.268 . S
C402 O408 1.268 . S
C402 O417 1.268 . S
C403 O409 1.268 . S
C403 O413 1.268 . S
C404 O410 1.268 . S
C404 O412 1.268 . S
C405 O411 1.268 . S
C405 O414 1.268 . S
O406 Sc396 2.105 . S
O406 C400 1.268 . S
O407 Sc397 2.105 . S
O407 C401 1.268 . S
O408 Sc398 2.105 . S
O408 C402 1.268 . S
O409 Sc396 2.105 . S
O409 C403 1.268 . S
O410 Sc398 2.105 . S
O410 C404 1.268 . S
O411 Sc397 2.105 . S
O411 C405 1.268 . S
O412 Sc396 2.105 . S
O412 C404 1.268 . S
O413 Sc397 2.105 . S
O413 C403 1.268 . S
O414 Sc398 2.105 . S
O414 C405 1.268 . S
O415 Sc396 2.105 . S
O415 C401 1.268 . S
O416 Sc398 2.105 . S
O416 C400 1.268 . S
O417 Sc397 2.105 . S
O417 C402 1.268 . S
Sc418 O421 2.025 . S
Sc418 O428 2.105 . S
Sc418 O431 2.105 . S
Sc418 O434 2.105 . S
Sc418 O437 2.105 . S
Sc419 O421 2.025 . S
Sc419 O429 2.105 . S
Sc419 O433 2.105 . S
Sc419 O435 2.105 . S
Sc419 O439 2.105 . S
Sc420 O421 2.025 . S
Sc420 O430 2.105 . S
Sc420 O432 2.105 . S
Sc420 O436 2.105 . S
Sc420 O438 2.105 . S
O421 Sc418 2.025 . S
O421 Sc419 2.025 . S
O421 Sc420 2.025 . S
C422 O428 1.268 . S
C422 O438 1.268 . S
C423 O429 1.268 . S
C423 O437 1.268 . S
C424 O430 1.268 . S
C424 O439 1.268 . S
C425 O431 1.268 . S
C425 O435 1.268 . S
C426 O432 1.268 . S
C426 O434 1.268 . S
C427 O433 1.268 . S
C427 O436 1.268 . S
O428 Sc418 2.105 . S
O428 C422 1.268 . S
O429 Sc419 2.105 . S
O429 C423 1.268 . S
O430 Sc420 2.105 . S
O430 C424 1.268 . S
O431 Sc418 2.105 . S
O431 C425 1.268 . S
O432 Sc420 2.105 . S
O432 C426 1.268 . S
O433 Sc419 2.105 . S
O433 C427 1.268 . S
O434 Sc418 2.105 . S
O434 C426 1.268 . S
O435 Sc419 2.105 . S
O435 C425 1.268 . S
O436 Sc420 2.105 . S
O436 C427 1.268 . S
O437 Sc418 2.105 . S
O437 C423 1.268 . S
O438 Sc420 2.105 . S
O438 C422 1.268 . S
O439 Sc419 2.105 . S
O439 C424 1.268 . S
Sc440 O443 2.025 . S
Sc440 O450 2.105 . S
Sc440 O453 2.105 . S
Sc440 O456 2.105 . S
Sc440 O459 2.105 . S
Sc441 O443 2.025 . S
Sc441 O451 2.105 . S
Sc441 O455 2.105 . S
Sc441 O457 2.105 . S
Sc441 O461 2.105 . S
Sc442 O443 2.025 . S
Sc442 O452 2.105 . S
Sc442 O454 2.105 . S
Sc442 O458 2.105 . S
Sc442 O460 2.105 . S
O443 Sc440 2.025 . S
O443 Sc441 2.025 . S
O443 Sc442 2.025 . S
C444 O450 1.268 . S
C444 O460 1.268 . S
C445 O451 1.268 . S
C445 O459 1.268 . S
C446 O452 1.268 . S
C446 O461 1.268 . S
C447 O453 1.268 . S
C447 O457 1.268 . S
C448 O454 1.268 . S
C448 O456 1.268 . S
C449 O455 1.268 . S
C449 O458 1.268 . S
O450 Sc440 2.105 . S
O450 C444 1.268 . S
O451 Sc441 2.105 . S
O451 C445 1.268 . S
O452 Sc442 2.105 . S
O452 C446 1.268 . S
O453 Sc440 2.105 . S
O453 C447 1.268 . S
O454 Sc442 2.105 . S
O454 C448 1.268 . S
O455 Sc441 2.105 . S
O455 C449 1.268 . S
O456 Sc440 2.105 . S
O456 C448 1.268 . S
O457 Sc441 2.105 . S
O457 C447 1.268 . S
O458 Sc442 2.105 . S
O458 C449 1.268 . S
O459 Sc440 2.105 . S
O459 C445 1.268 . S
O460 Sc442 2.105 . S
O460 C444 1.268 . S
O461 Sc441 2.105 . S
O461 C446 1.268 . S
Sc462 O465 2.025 . S
Sc462 O472 2.105 . S
Sc462 O475 2.105 . S
Sc462 O478 2.105 . S
Sc462 O481 2.105 . S
Sc463 O465 2.025 . S
Sc463 O473 2.105 . S
Sc463 O477 2.105 . S
Sc463 O479 2.105 . S
Sc463 O483 2.105 . S
Sc464 O465 2.025 . S
Sc464 O474 2.105 . S
Sc464 O476 2.105 . S
Sc464 O480 2.105 . S
Sc464 O482 2.105 . S
O465 Sc462 2.025 . S
O465 Sc463 2.025 . S
O465 Sc464 2.025 . S
C466 O472 1.268 . S
C466 O482 1.268 . S
C467 O473 1.268 . S
C467 O481 1.268 . S
C468 O474 1.268 . S
C468 O483 1.268 . S
C469 O475 1.268 . S
C469 O479 1.268 . S
C470 O476 1.268 . S
C470 O478 1.268 . S
C471 O477 1.268 . S
C471 O480 1.268 . S
O472 Sc462 2.105 . S
O472 C466 1.268 . S
O473 Sc463 2.105 . S
O473 C467 1.268 . S
O474 Sc464 2.105 . S
O474 C468 1.268 . S
O475 Sc462 2.105 . S
O475 C469 1.268 . S
O476 Sc464 2.105 . S
O476 C470 1.268 . S
O477 Sc463 2.105 . S
O477 C471 1.268 . S
O478 Sc462 2.105 . S
O478 C470 1.268 . S
O479 Sc463 2.105 . S
O479 C469 1.268 . S
O480 Sc464 2.105 . S
O480 C471 1.268 . S
O481 Sc462 2.105 . S
O481 C467 1.268 . S
O482 Sc464 2.105 . S
O482 C466 1.268 . S
O483 Sc463 2.105 . S
O483 C468 1.268 . S
Sc484 O487 2.025 . S
Sc484 O494 2.105 . S
Sc484 O497 2.105 . S
Sc484 O500 2.105 . S
Sc484 O503 2.105 . S
Sc485 O487 2.025 . S
Sc485 O495 2.105 . S
Sc485 O499 2.105 . S
Sc485 O501 2.105 . S
Sc485 O505 2.105 . S
Sc486 O487 2.025 . S
Sc486 O496 2.105 . S
Sc486 O498 2.105 . S
Sc486 O502 2.105 . S
Sc486 O504 2.105 . S
O487 Sc484 2.025 . S
O487 Sc485 2.025 . S
O487 Sc486 2.025 . S
C488 O494 1.268 . S
C488 O504 1.268 . S
C489 O495 1.268 . S
C489 O503 1.268 . S
C490 O496 1.268 . S
C490 O505 1.268 . S
C491 O497 1.268 . S
C491 O501 1.268 . S
C492 O498 1.268 . S
C492 O500 1.268 . S
C493 O499 1.268 . S
C493 O502 1.268 . S
O494 Sc484 2.105 . S
O494 C488 1.268 . S
O495 Sc485 2.105 . S
O495 C489 1.268 . S
O496 Sc486 2.105 . S
O496 C490 1.268 . S
O497 Sc484 2.105 . S
O497 C491 1.268 . S
O498 Sc486 2.105 . S
O498 C492 1.268 . S
O499 Sc485 2.105 . S
O499 C493 1.268 . S
O500 Sc484 2.105 . S
O500 C492 1.268 . S
O501 Sc485 2.105 . S
O501 C491 1.268 . S
O502 Sc486 2.105 . S
O502 C493 1.268 . S
O503 Sc484 2.105 . S
O503 C489 1.268 . S
O504 Sc486 2.105 . S
O504 C488 1.268 . S
O505 Sc485 2.105 . S
O505 C490 1.268 . S
Sc506 O509 2.025 . S
Sc506 O516 2.105 . S
Sc506 O519 2.105 . S
Sc506 O522 2.105 . S
Sc506 O525 2.105 . S
Sc507 O509 2.025 . S
Sc507 O517 2.105 . S
Sc507 O521 2.105 . S
Sc507 O523 2.105 . S
Sc507 O527 2.105 . S
Sc508 O509 2.025 . S
Sc508 O518 2.105 . S
Sc508 O520 2.105 . S
Sc508 O524 2.105 . S
Sc508 O526 2.105 . S
O509 Sc506 2.025 . S
O509 Sc507 2.025 . S
O509 Sc508 2.025 . S
C510 O516 1.268 . S
C510 O526 1.268 . S
C511 O517 1.268 . S
C511 O525 1.268 . S
C512 O518 1.268 . S
C512 O527 1.268 . S
C513 O519 1.268 . S
C513 O523 1.268 . S
C514 O520 1.268 . S
C514 O522 1.268 . S
C515 O521 1.268 . S
C515 O524 1.268 . S
O516 Sc506 2.105 . S
O516 C510 1.268 . S
O517 Sc507 2.105 . S
O517 C511 1.268 . S
O518 Sc508 2.105 . S
O518 C512 1.268 . S
O519 Sc506 2.105 . S
O519 C513 1.268 . S
O520 Sc508 2.105 . S
O520 C514 1.268 . S
O521 Sc507 2.105 . S
O521 C515 1.268 . S
O522 Sc506 2.105 . S
O522 C514 1.268 . S
O523 Sc507 2.105 . S
O523 C513 1.268 . S
O524 Sc508 2.105 . S
O524 C515 1.268 . S
O525 Sc506 2.105 . S
O525 C511 1.268 . S
O526 Sc508 2.105 . S
O526 C510 1.268 . S
O527 Sc507 2.105 . S
O527 C512 1.268 . S
H528 C540 0.930 . S
H529 C542 0.930 . S
H530 C543 0.930 . S
H531 C547 0.959 . S
H532 C547 0.959 . S
H533 C547 0.961 . S
H534 C548 0.960 . S
H535 C548 0.961 . S
H536 C548 0.959 . S
H537 C551 0.929 . S
H538 C552 0.931 . S
H539 C554 0.930 . S
C540 H528 0.930 . S
C540 C541 1.399 . S
C540 C545 1.399 . S
C541 C540 1.399 . S
C541 C542 1.376 . S
C542 H529 0.930 . S
C542 C541 1.376 . S
C542 C543 1.388 . S
C543 H530 0.930 . S
C543 C542 1.388 . S
C543 C544 1.390 . S
C544 C543 1.390 . S
C544 C545 1.394 . S
C544 C550 1.465 . S
C545 C540 1.399 . S
C545 C544 1.394 . S
C545 C546 1.516 . S
C546 C545 1.516 . S
C546 C547 1.502 . S
C546 C548 1.561 . S
C546 C549 1.526 . S
C547 H531 0.959 . S
C547 H532 0.959 . S
C547 H533 0.961 . S
C547 C546 1.502 . S
C548 H534 0.960 . S
C548 H535 0.961 . S
C548 H536 0.959 . S
C548 C546 1.561 . S
C549 C546 1.526 . S
C549 C550 1.396 . S
C549 C554 1.390 . S
C550 C544 1.465 . S
C550 C549 1.396 . S
C550 C551 1.399 . S
C551 H537 0.929 . S
C551 C550 1.399 . S
C551 C552 1.385 . S
C552 H538 0.931 . S
C552 C551 1.385 . S
C552 C553 1.389 . S
C553 C552 1.389 . S
C553 C554 1.387 . S
C554 H539 0.930 . S
C554 C549 1.390 . S
C554 C553 1.387 . S
H555 C567 0.930 . S
H556 C569 0.930 . S
H557 C570 0.930 . S
H558 C574 0.959 . S
H559 C574 0.959 . S
H560 C574 0.961 . S
H561 C575 0.960 . S
H562 C575 0.961 . S
H563 C575 0.959 . S
H564 C578 0.929 . S
H565 C579 0.931 . S
H566 C581 0.930 . S
C567 H555 0.930 . S
C567 C568 1.399 . S
C567 C572 1.399 . S
C568 C567 1.399 . S
C568 C569 1.376 . S
C569 H556 0.930 . S
C569 C568 1.376 . S
C569 C570 1.388 . S
C570 H557 0.930 . S
C570 C569 1.388 . S
C570 C571 1.390 . S
C571 C570 1.390 . S
C571 C572 1.394 . S
C571 C577 1.465 . S
C572 C567 1.399 . S
C572 C571 1.394 . S
C572 C573 1.516 . S
C573 C572 1.516 . S
C573 C574 1.502 . S
C573 C575 1.561 . S
C573 C576 1.526 . S
C574 H558 0.959 . S
C574 H559 0.959 . S
C574 H560 0.961 . S
C574 C573 1.502 . S
C575 H561 0.960 . S
C575 H562 0.961 . S
C575 H563 0.959 . S
C575 C573 1.561 . S
C576 C573 1.526 . S
C576 C577 1.396 . S
C576 C581 1.390 . S
C577 C571 1.465 . S
C577 C576 1.396 . S
C577 C578 1.399 . S
C578 H564 0.929 . S
C578 C577 1.399 . S
C578 C579 1.385 . S
C579 H565 0.931 . S
C579 C578 1.385 . S
C579 C580 1.389 . S
C580 C579 1.389 . S
C580 C581 1.387 . S
C581 H566 0.930 . S
C581 C576 1.390 . S
C581 C580 1.387 . S
H582 C594 0.930 . S
H583 C596 0.930 . S
H584 C597 0.930 . S
H585 C601 0.959 . S
H586 C601 0.959 . S
H587 C601 0.961 . S
H588 C602 0.960 . S
H589 C602 0.961 . S
H590 C602 0.959 . S
H591 C605 0.929 . S
H592 C606 0.931 . S
H593 C608 0.930 . S
C594 H582 0.930 . S
C594 C595 1.399 . S
C594 C599 1.399 . S
C595 C594 1.399 . S
C595 C596 1.376 . S
C596 H583 0.930 . S
C596 C595 1.376 . S
C596 C597 1.388 . S
C597 H584 0.930 . S
C597 C596 1.388 . S
C597 C598 1.390 . S
C598 C597 1.390 . S
C598 C599 1.394 . S
C598 C604 1.465 . S
C599 C594 1.399 . S
C599 C598 1.394 . S
C599 C600 1.516 . S
C600 C599 1.516 . S
C600 C601 1.502 . S
C600 C602 1.561 . S
C600 C603 1.526 . S
C601 H585 0.959 . S
C601 H586 0.959 . S
C601 H587 0.961 . S
C601 C600 1.502 . S
C602 H588 0.960 . S
C602 H589 0.961 . S
C602 H590 0.959 . S
C602 C600 1.561 . S
C603 C600 1.526 . S
C603 C604 1.396 . S
C603 C608 1.390 . S
C604 C598 1.465 . S
C604 C603 1.396 . S
C604 C605 1.399 . S
C605 H591 0.929 . S
C605 C604 1.399 . S
C605 C606 1.385 . S
C606 H592 0.931 . S
C606 C605 1.385 . S
C606 C607 1.389 . S
C607 C606 1.389 . S
C607 C608 1.387 . S
C608 H593 0.930 . S
C608 C603 1.390 . S
C608 C607 1.387 . S
H609 C621 0.930 . S
H610 C623 0.930 . S
H611 C624 0.930 . S
H612 C628 0.959 . S
H613 C628 0.959 . S
H614 C628 0.961 . S
H615 C629 0.960 . S
H616 C629 0.961 . S
H617 C629 0.959 . S
H618 C632 0.929 . S
H619 C633 0.931 . S
H620 C635 0.930 . S
C621 H609 0.930 . S
C621 C622 1.399 . S
C621 C626 1.399 . S
C622 C621 1.399 . S
C622 C623 1.376 . S
C623 H610 0.930 . S
C623 C622 1.376 . S
C623 C624 1.388 . S
C624 H611 0.930 . S
C624 C623 1.388 . S
C624 C625 1.390 . S
C625 C624 1.390 . S
C625 C626 1.394 . S
C625 C631 1.465 . S
C626 C621 1.399 . S
C626 C625 1.394 . S
C626 C627 1.516 . S
C627 C626 1.516 . S
C627 C628 1.502 . S
C627 C629 1.561 . S
C627 C630 1.526 . S
C628 H612 0.959 . S
C628 H613 0.959 . S
C628 H614 0.961 . S
C628 C627 1.502 . S
C629 H615 0.960 . S
C629 H616 0.961 . S
C629 H617 0.959 . S
C629 C627 1.561 . S
C630 C627 1.526 . S
C630 C631 1.396 . S
C630 C635 1.390 . S
C631 C625 1.465 . S
C631 C630 1.396 . S
C631 C632 1.399 . S
C632 H618 0.929 . S
C632 C631 1.399 . S
C632 C633 1.385 . S
C633 H619 0.931 . S
C633 C632 1.385 . S
C633 C634 1.389 . S
C634 C633 1.389 . S
C634 C635 1.387 . S
C635 H620 0.930 . S
C635 C630 1.390 . S
C635 C634 1.387 . S
H636 C648 0.930 . S
H637 C650 0.930 . S
H638 C651 0.930 . S
H639 C655 0.959 . S
H640 C655 0.959 . S
H641 C655 0.961 . S
H642 C656 0.960 . S
H643 C656 0.961 . S
H644 C656 0.959 . S
H645 C659 0.929 . S
H646 C660 0.931 . S
H647 C662 0.930 . S
C648 H636 0.930 . S
C648 C649 1.399 . S
C648 C653 1.399 . S
C649 C648 1.399 . S
C649 C650 1.376 . S
C650 H637 0.930 . S
C650 C649 1.376 . S
C650 C651 1.388 . S
C651 H638 0.930 . S
C651 C650 1.388 . S
C651 C652 1.390 . S
C652 C651 1.390 . S
C652 C653 1.394 . S
C652 C658 1.465 . S
C653 C648 1.399 . S
C653 C652 1.394 . S
C653 C654 1.516 . S
C654 C653 1.516 . S
C654 C655 1.502 . S
C654 C656 1.561 . S
C654 C657 1.526 . S
C655 H639 0.959 . S
C655 H640 0.959 . S
C655 H641 0.961 . S
C655 C654 1.502 . S
C656 H642 0.960 . S
C656 H643 0.961 . S
C656 H644 0.959 . S
C656 C654 1.561 . S
C657 C654 1.526 . S
C657 C658 1.396 . S
C657 C662 1.390 . S
C658 C652 1.465 . S
C658 C657 1.396 . S
C658 C659 1.399 . S
C659 H645 0.929 . S
C659 C658 1.399 . S
C659 C660 1.385 . S
C660 H646 0.931 . S
C660 C659 1.385 . S
C660 C661 1.389 . S
C661 C660 1.389 . S
C661 C662 1.387 . S
C662 H647 0.930 . S
C662 C657 1.390 . S
C662 C661 1.387 . S
H663 C675 0.930 . S
H664 C677 0.930 . S
H665 C678 0.930 . S
H666 C682 0.959 . S
H667 C682 0.959 . S
H668 C682 0.961 . S
H669 C683 0.960 . S
H670 C683 0.961 . S
H671 C683 0.959 . S
H672 C686 0.929 . S
H673 C687 0.931 . S
H674 C689 0.930 . S
C675 H663 0.930 . S
C675 C676 1.399 . S
C675 C680 1.399 . S
C676 C675 1.399 . S
C676 C677 1.376 . S
C677 H664 0.930 . S
C677 C676 1.376 . S
C677 C678 1.388 . S
C678 H665 0.930 . S
C678 C677 1.388 . S
C678 C679 1.390 . S
C679 C678 1.390 . S
C679 C680 1.394 . S
C679 C685 1.465 . S
C680 C675 1.399 . S
C680 C679 1.394 . S
C680 C681 1.516 . S
C681 C680 1.516 . S
C681 C682 1.502 . S
C681 C683 1.561 . S
C681 C684 1.526 . S
C682 H666 0.959 . S
C682 H667 0.959 . S
C682 H668 0.961 . S
C682 C681 1.502 . S
C683 H669 0.960 . S
C683 H670 0.961 . S
C683 H671 0.959 . S
C683 C681 1.561 . S
C684 C681 1.526 . S
C684 C685 1.396 . S
C684 C689 1.390 . S
C685 C679 1.465 . S
C685 C684 1.396 . S
C685 C686 1.399 . S
C686 H672 0.929 . S
C686 C685 1.399 . S
C686 C687 1.385 . S
C687 H673 0.931 . S
C687 C686 1.385 . S
C687 C688 1.389 . S
C688 C687 1.389 . S
C688 C689 1.387 . S
C689 H674 0.930 . S
C689 C684 1.390 . S
C689 C688 1.387 . S
H690 C702 0.930 . S
H691 C704 0.930 . S
H692 C705 0.930 . S
H693 C709 0.959 . S
H694 C709 0.959 . S
H695 C709 0.961 . S
H696 C710 0.960 . S
H697 C710 0.961 . S
H698 C710 0.959 . S
H699 C713 0.929 . S
H700 C714 0.931 . S
H701 C716 0.930 . S
C702 H690 0.930 . S
C702 C703 1.399 . S
C702 C707 1.399 . S
C703 C702 1.399 . S
C703 C704 1.376 . S
C704 H691 0.930 . S
C704 C703 1.376 . S
C704 C705 1.388 . S
C705 H692 0.930 . S
C705 C704 1.388 . S
C705 C706 1.390 . S
C706 C705 1.390 . S
C706 C707 1.394 . S
C706 C712 1.465 . S
C707 C702 1.399 . S
C707 C706 1.394 . S
C707 C708 1.516 . S
C708 C707 1.516 . S
C708 C709 1.502 . S
C708 C710 1.561 . S
C708 C711 1.526 . S
C709 H693 0.959 . S
C709 H694 0.959 . S
C709 H695 0.961 . S
C709 C708 1.502 . S
C710 H696 0.960 . S
C710 H697 0.961 . S
C710 H698 0.959 . S
C710 C708 1.561 . S
C711 C708 1.526 . S
C711 C712 1.396 . S
C711 C716 1.390 . S
C712 C706 1.465 . S
C712 C711 1.396 . S
C712 C713 1.399 . S
C713 H699 0.929 . S
C713 C712 1.399 . S
C713 C714 1.385 . S
C714 H700 0.931 . S
C714 C713 1.385 . S
C714 C715 1.389 . S
C715 C714 1.389 . S
C715 C716 1.387 . S
C716 H701 0.930 . S
C716 C711 1.390 . S
C716 C715 1.387 . S
H717 C729 0.930 . S
H718 C731 0.930 . S
H719 C732 0.930 . S
H720 C736 0.959 . S
H721 C736 0.959 . S
H722 C736 0.961 . S
H723 C737 0.960 . S
H724 C737 0.961 . S
H725 C737 0.959 . S
H726 C740 0.929 . S
H727 C741 0.931 . S
H728 C743 0.930 . S
C729 H717 0.930 . S
C729 C730 1.399 . S
C729 C734 1.399 . S
C730 C729 1.399 . S
C730 C731 1.376 . S
C731 H718 0.930 . S
C731 C730 1.376 . S
C731 C732 1.388 . S
C732 H719 0.930 . S
C732 C731 1.388 . S
C732 C733 1.390 . S
C733 C732 1.390 . S
C733 C734 1.394 . S
C733 C739 1.465 . S
C734 C729 1.399 . S
C734 C733 1.394 . S
C734 C735 1.516 . S
C735 C734 1.516 . S
C735 C736 1.502 . S
C735 C737 1.561 . S
C735 C738 1.526 . S
C736 H720 0.959 . S
C736 H721 0.959 . S
C736 H722 0.961 . S
C736 C735 1.502 . S
C737 H723 0.960 . S
C737 H724 0.961 . S
C737 H725 0.959 . S
C737 C735 1.561 . S
C738 C735 1.526 . S
C738 C739 1.396 . S
C738 C743 1.390 . S
C739 C733 1.465 . S
C739 C738 1.396 . S
C739 C740 1.399 . S
C740 H726 0.929 . S
C740 C739 1.399 . S
C740 C741 1.385 . S
C741 H727 0.931 . S
C741 C740 1.385 . S
C741 C742 1.389 . S
C742 C741 1.389 . S
C742 C743 1.387 . S
C743 H728 0.930 . S
C743 C738 1.390 . S
C743 C742 1.387 . S
H744 C756 0.930 . S
H745 C758 0.930 . S
H746 C759 0.930 . S
H747 C763 0.959 . S
H748 C763 0.959 . S
H749 C763 0.961 . S
H750 C764 0.960 . S
H751 C764 0.961 . S
H752 C764 0.959 . S
H753 C767 0.929 . S
H754 C768 0.931 . S
H755 C770 0.930 . S
C756 H744 0.930 . S
C756 C757 1.399 . S
C756 C761 1.399 . S
C757 C756 1.399 . S
C757 C758 1.376 . S
C758 H745 0.930 . S
C758 C757 1.376 . S
C758 C759 1.388 . S
C759 H746 0.930 . S
C759 C758 1.388 . S
C759 C760 1.390 . S
C760 C759 1.390 . S
C760 C761 1.394 . S
C760 C766 1.465 . S
C761 C756 1.399 . S
C761 C760 1.394 . S
C761 C762 1.516 . S
C762 C761 1.516 . S
C762 C763 1.502 . S
C762 C764 1.561 . S
C762 C765 1.526 . S
C763 H747 0.959 . S
C763 H748 0.959 . S
C763 H749 0.961 . S
C763 C762 1.502 . S
C764 H750 0.960 . S
C764 H751 0.961 . S
C764 H752 0.959 . S
C764 C762 1.561 . S
C765 C762 1.526 . S
C765 C766 1.396 . S
C765 C770 1.390 . S
C766 C760 1.465 . S
C766 C765 1.396 . S
C766 C767 1.399 . S
C767 H753 0.929 . S
C767 C766 1.399 . S
C767 C768 1.385 . S
C768 H754 0.931 . S
C768 C767 1.385 . S
C768 C769 1.389 . S
C769 C768 1.389 . S
C769 C770 1.387 . S
C770 H755 0.930 . S
C770 C765 1.390 . S
C770 C769 1.387 . S
H771 C783 0.930 . S
H772 C785 0.930 . S
H773 C786 0.930 . S
H774 C790 0.959 . S
H775 C790 0.959 . S
H776 C790 0.961 . S
H777 C791 0.960 . S
H778 C791 0.961 . S
H779 C791 0.959 . S
H780 C794 0.929 . S
H781 C795 0.931 . S
H782 C797 0.930 . S
C783 H771 0.930 . S
C783 C784 1.399 . S
C783 C788 1.399 . S
C784 C783 1.399 . S
C784 C785 1.376 . S
C785 H772 0.930 . S
C785 C784 1.376 . S
C785 C786 1.388 . S
C786 H773 0.930 . S
C786 C785 1.388 . S
C786 C787 1.390 . S
C787 C786 1.390 . S
C787 C788 1.394 . S
C787 C793 1.465 . S
C788 C783 1.399 . S
C788 C787 1.394 . S
C788 C789 1.516 . S
C789 C788 1.516 . S
C789 C790 1.502 . S
C789 C791 1.561 . S
C789 C792 1.526 . S
C790 H774 0.959 . S
C790 H775 0.959 . S
C790 H776 0.961 . S
C790 C789 1.502 . S
C791 H777 0.960 . S
C791 H778 0.961 . S
C791 H779 0.959 . S
C791 C789 1.561 . S
C792 C789 1.526 . S
C792 C793 1.396 . S
C792 C797 1.390 . S
C793 C787 1.465 . S
C793 C792 1.396 . S
C793 C794 1.399 . S
C794 H780 0.929 . S
C794 C793 1.399 . S
C794 C795 1.385 . S
C795 H781 0.931 . S
C795 C794 1.385 . S
C795 C796 1.389 . S
C796 C795 1.389 . S
C796 C797 1.387 . S
C797 H782 0.930 . S
C797 C792 1.390 . S
C797 C796 1.387 . S
H798 C810 0.930 . S
H799 C812 0.930 . S
H800 C813 0.930 . S
H801 C817 0.959 . S
H802 C817 0.959 . S
H803 C817 0.961 . S
H804 C818 0.960 . S
H805 C818 0.961 . S
H806 C818 0.959 . S
H807 C821 0.929 . S
H808 C822 0.931 . S
H809 C824 0.930 . S
C810 H798 0.930 . S
C810 C811 1.399 . S
C810 C815 1.399 . S
C811 C810 1.399 . S
C811 C812 1.376 . S
C812 H799 0.930 . S
C812 C811 1.376 . S
C812 C813 1.388 . S
C813 H800 0.930 . S
C813 C812 1.388 . S
C813 C814 1.390 . S
C814 C813 1.390 . S
C814 C815 1.394 . S
C814 C820 1.465 . S
C815 C810 1.399 . S
C815 C814 1.394 . S
C815 C816 1.516 . S
C816 C815 1.516 . S
C816 C817 1.502 . S
C816 C818 1.561 . S
C816 C819 1.526 . S
C817 H801 0.959 . S
C817 H802 0.959 . S
C817 H803 0.961 . S
C817 C816 1.502 . S
C818 H804 0.960 . S
C818 H805 0.961 . S
C818 H806 0.959 . S
C818 C816 1.561 . S
C819 C816 1.526 . S
C819 C820 1.396 . S
C819 C824 1.390 . S
C820 C814 1.465 . S
C820 C819 1.396 . S
C820 C821 1.399 . S
C821 H807 0.929 . S
C821 C820 1.399 . S
C821 C822 1.385 . S
C822 H808 0.931 . S
C822 C821 1.385 . S
C822 C823 1.389 . S
C823 C822 1.389 . S
C823 C824 1.387 . S
C824 H809 0.930 . S
C824 C819 1.390 . S
C824 C823 1.387 . S
H825 C837 0.930 . S
H826 C839 0.930 . S
H827 C840 0.930 . S
H828 C844 0.959 . S
H829 C844 0.959 . S
H830 C844 0.961 . S
H831 C845 0.960 . S
H832 C845 0.961 . S
H833 C845 0.959 . S
H834 C848 0.929 . S
H835 C849 0.931 . S
H836 C851 0.930 . S
C837 H825 0.930 . S
C837 C838 1.399 . S
C837 C842 1.399 . S
C838 C837 1.399 . S
C838 C839 1.376 . S
C839 H826 0.930 . S
C839 C838 1.376 . S
C839 C840 1.388 . S
C840 H827 0.930 . S
C840 C839 1.388 . S
C840 C841 1.390 . S
C841 C840 1.390 . S
C841 C842 1.394 . S
C841 C847 1.465 . S
C842 C837 1.399 . S
C842 C841 1.394 . S
C842 C843 1.516 . S
C843 C842 1.516 . S
C843 C844 1.502 . S
C843 C845 1.561 . S
C843 C846 1.526 . S
C844 H828 0.959 . S
C844 H829 0.959 . S
C844 H830 0.961 . S
C844 C843 1.502 . S
C845 H831 0.960 . S
C845 H832 0.961 . S
C845 H833 0.959 . S
C845 C843 1.561 . S
C846 C843 1.526 . S
C846 C847 1.396 . S
C846 C851 1.390 . S
C847 C841 1.465 . S
C847 C846 1.396 . S
C847 C848 1.399 . S
C848 H834 0.929 . S
C848 C847 1.399 . S
C848 C849 1.385 . S
C849 H835 0.931 . S
C849 C848 1.385 . S
C849 C850 1.389 . S
C850 C849 1.389 . S
C850 C851 1.387 . S
C851 H836 0.930 . S
C851 C846 1.390 . S
C851 C850 1.387 . S
H852 C864 0.930 . S
H853 C866 0.930 . S
H854 C867 0.930 . S
H855 C871 0.959 . S
H856 C871 0.959 . S
H857 C871 0.961 . S
H858 C872 0.960 . S
H859 C872 0.961 . S
H860 C872 0.959 . S
H861 C875 0.929 . S
H862 C876 0.931 . S
H863 C878 0.930 . S
C864 H852 0.930 . S
C864 C865 1.399 . S
C864 C869 1.399 . S
C865 C864 1.399 . S
C865 C866 1.376 . S
C866 H853 0.930 . S
C866 C865 1.376 . S
C866 C867 1.388 . S
C867 H854 0.930 . S
C867 C866 1.388 . S
C867 C868 1.390 . S
C868 C867 1.390 . S
C868 C869 1.394 . S
C868 C874 1.465 . S
C869 C864 1.399 . S
C869 C868 1.394 . S
C869 C870 1.516 . S
C870 C869 1.516 . S
C870 C871 1.502 . S
C870 C872 1.561 . S
C870 C873 1.526 . S
C871 H855 0.959 . S
C871 H856 0.959 . S
C871 H857 0.961 . S
C871 C870 1.502 . S
C872 H858 0.960 . S
C872 H859 0.961 . S
C872 H860 0.959 . S
C872 C870 1.561 . S
C873 C870 1.526 . S
C873 C874 1.396 . S
C873 C878 1.390 . S
C874 C868 1.465 . S
C874 C873 1.396 . S
C874 C875 1.399 . S
C875 H861 0.929 . S
C875 C874 1.399 . S
C875 C876 1.385 . S
C876 H862 0.931 . S
C876 C875 1.385 . S
C876 C877 1.389 . S
C877 C876 1.389 . S
C877 C878 1.387 . S
C878 H863 0.930 . S
C878 C873 1.390 . S
C878 C877 1.387 . S
H879 C891 0.930 . S
H880 C893 0.930 . S
H881 C894 0.930 . S
H882 C898 0.959 . S
H883 C898 0.959 . S
H884 C898 0.961 . S
H885 C899 0.960 . S
H886 C899 0.961 . S
H887 C899 0.959 . S
H888 C902 0.929 . S
H889 C903 0.931 . S
H890 C905 0.930 . S
C891 H879 0.930 . S
C891 C892 1.399 . S
C891 C896 1.399 . S
C892 C891 1.399 . S
C892 C893 1.376 . S
C893 H880 0.930 . S
C893 C892 1.376 . S
C893 C894 1.388 . S
C894 H881 0.930 . S
C894 C893 1.388 . S
C894 C895 1.390 . S
C895 C894 1.390 . S
C895 C896 1.394 . S
C895 C901 1.465 . S
C896 C891 1.399 . S
C896 C895 1.394 . S
C896 C897 1.516 . S
C897 C896 1.516 . S
C897 C898 1.502 . S
C897 C899 1.561 . S
C897 C900 1.526 . S
C898 H882 0.959 . S
C898 H883 0.959 . S
C898 H884 0.961 . S
C898 C897 1.502 . S
C899 H885 0.960 . S
C899 H886 0.961 . S
C899 H887 0.959 . S
C899 C897 1.561 . S
C900 C897 1.526 . S
C900 C901 1.396 . S
C900 C905 1.390 . S
C901 C895 1.465 . S
C901 C900 1.396 . S
C901 C902 1.399 . S
C902 H888 0.929 . S
C902 C901 1.399 . S
C902 C903 1.385 . S
C903 H889 0.931 . S
C903 C902 1.385 . S
C903 C904 1.389 . S
C904 C903 1.389 . S
C904 C905 1.387 . S
C905 H890 0.930 . S
C905 C900 1.390 . S
C905 C904 1.387 . S
H906 C918 0.930 . S
H907 C920 0.930 . S
H908 C921 0.930 . S
H909 C925 0.959 1_554 S
H910 C925 0.959 1_554 S
H911 C925 0.961 . S
H912 C926 0.960 . S
H913 C926 0.961 . S
H914 C926 0.959 . S
H915 C929 0.929 . S
H916 C930 0.931 . S
H917 C932 0.930 1_554 S
C918 H906 0.930 . S
C918 C919 1.399 . S
C918 C923 1.399 . S
C919 C918 1.399 . S
C919 C920 1.376 . S
C920 H907 0.930 . S
C920 C919 1.376 . S
C920 C921 1.388 . S
C921 H908 0.930 . S
C921 C920 1.388 . S
C921 C922 1.390 . S
C922 C921 1.390 . S
C922 C923 1.394 . S
C922 C928 1.465 . S
C923 C918 1.399 . S
C923 C922 1.394 . S
C923 C924 1.516 . S
C924 C923 1.516 . S
C924 C925 1.502 . S
C924 C926 1.561 . S
C924 C927 1.526 . S
C925 H909 0.959 1_556 S
C925 H910 0.959 1_556 S
C925 H911 0.961 . S
C925 C924 1.502 . S
C926 H912 0.960 . S
C926 H913 0.961 . S
C926 H914 0.959 . S
C926 C924 1.561 . S
C927 C924 1.526 . S
C927 C928 1.396 . S
C927 C932 1.390 . S
C928 C922 1.465 . S
C928 C927 1.396 . S
C928 C929 1.399 . S
C929 H915 0.929 . S
C929 C928 1.399 . S
C929 C930 1.385 . S
C930 H916 0.931 . S
C930 C929 1.385 . S
C930 C931 1.389 . S
C931 C930 1.389 . S
C931 C932 1.387 . S
C932 H917 0.930 1_556 S
C932 C927 1.390 . S
C932 C931 1.387 . S
H933 C945 0.930 . S
H934 C947 0.930 . S
H935 C948 0.930 . S
H936 C952 0.959 . S
H937 C952 0.959 . S
H938 C952 0.961 . S
H939 C953 0.960 . S
H940 C953 0.961 . S
H941 C953 0.959 . S
H942 C956 0.929 . S
H943 C957 0.931 . S
H944 C959 0.930 . S
C945 H933 0.930 . S
C945 C946 1.399 . S
C945 C950 1.399 . S
C946 C945 1.399 . S
C946 C947 1.376 . S
C947 H934 0.930 . S
C947 C946 1.376 . S
C947 C948 1.388 . S
C948 H935 0.930 . S
C948 C947 1.388 . S
C948 C949 1.390 . S
C949 C948 1.390 . S
C949 C950 1.394 . S
C949 C955 1.465 . S
C950 C945 1.399 . S
C950 C949 1.394 . S
C950 C951 1.516 . S
C951 C950 1.516 . S
C951 C952 1.502 . S
C951 C953 1.561 . S
C951 C954 1.526 . S
C952 H936 0.959 . S
C952 H937 0.959 . S
C952 H938 0.961 . S
C952 C951 1.502 . S
C953 H939 0.960 . S
C953 H940 0.961 . S
C953 H941 0.959 . S
C953 C951 1.561 . S
C954 C951 1.526 . S
C954 C955 1.396 . S
C954 C959 1.390 . S
C955 C949 1.465 . S
C955 C954 1.396 . S
C955 C956 1.399 . S
C956 H942 0.929 . S
C956 C955 1.399 . S
C956 C957 1.385 . S
C957 H943 0.931 . S
C957 C956 1.385 . S
C957 C958 1.389 . S
C958 C957 1.389 . S
C958 C959 1.387 . S
C959 H944 0.930 . S
C959 C954 1.390 . S
C959 C958 1.387 . S
H960 C972 0.930 . S
H961 C974 0.929 1_565 S
H962 C975 0.930 . S
H963 C979 0.966 . S
H964 C979 0.966 . S
H965 C979 0.938 1_565 S
H966 C980 0.960 1_565 S
H967 C980 0.961 . S
H968 C980 0.959 . S
H969 C983 0.929 . S
H970 C984 0.931 . S
H971 C986 0.930 . S
C972 H960 0.930 . S
C972 C973 1.399 . S
C972 C977 1.399 1_565 S
C973 C972 1.399 . S
C973 C974 1.364 1_565 S
C974 H961 0.929 1_545 S
C974 C973 1.364 1_545 S
C974 C975 1.403 . S
C975 H962 0.930 . S
C975 C974 1.403 . S
C975 C976 1.390 . S
C976 C975 1.390 . S
C976 C977 1.394 . S
C976 C982 1.465 . S
C977 C972 1.399 1_545 S
C977 C976 1.394 . S
C977 C978 1.516 . S
C978 C977 1.516 . S
C978 C979 1.512 . S
C978 C980 1.561 . S
C978 C981 1.526 . S
C979 H963 0.966 . S
C979 H964 0.966 . S
C979 H965 0.938 1_545 S
C979 C978 1.512 . S
C980 H966 0.960 1_545 S
C980 H967 0.961 . S
C980 H968 0.959 . S
C980 C978 1.561 . S
C981 C978 1.526 . S
C981 C982 1.396 . S
C981 C986 1.390 . S
C982 C976 1.465 . S
C982 C981 1.396 . S
C982 C983 1.399 . S
C983 H969 0.929 . S
C983 C982 1.399 . S
C983 C984 1.385 . S
C984 H970 0.931 . S
C984 C983 1.385 . S
C984 C985 1.389 . S
C985 C984 1.389 . S
C985 C986 1.387 . S
C986 H971 0.930 . S
C986 C981 1.390 . S
C986 C985 1.387 . S
H987 C999 0.930 . S
H988 C1001 0.930 . S
H989 C1002 0.930 . S
H990 C1006 0.959 . S
H991 C1006 0.959 . S
H992 C1006 0.961 . S
H993 C1007 0.960 . S
H994 C1007 0.961 . S
H995 C1007 0.959 . S
H996 C1010 0.929 . S
H997 C1011 0.931 . S
H998 C1013 0.930 . S
C999 H987 0.930 . S
C999 C1000 1.399 . S
C999 C1004 1.399 . S
C1000 C999 1.399 . S
C1000 C1001 1.376 . S
C1001 H988 0.930 . S
C1001 C1000 1.376 . S
C1001 C1002 1.388 . S
C1002 H989 0.930 . S
C1002 C1001 1.388 . S
C1002 C1003 1.390 . S
C1003 C1002 1.390 . S
C1003 C1004 1.394 . S
C1003 C1009 1.465 . S
C1004 C999 1.399 . S
C1004 C1003 1.394 . S
C1004 C1005 1.516 . S
C1005 C1004 1.516 . S
C1005 C1006 1.502 . S
C1005 C1007 1.561 . S
C1005 C1008 1.526 . S
C1006 H990 0.959 . S
C1006 H991 0.959 . S
C1006 H992 0.961 . S
C1006 C1005 1.502 . S
C1007 H993 0.960 . S
C1007 H994 0.961 . S
C1007 H995 0.959 . S
C1007 C1005 1.561 . S
C1008 C1005 1.526 . S
C1008 C1009 1.396 . S
C1008 C1013 1.390 . S
C1009 C1003 1.465 . S
C1009 C1008 1.396 . S
C1009 C1010 1.399 . S
C1010 H996 0.929 . S
C1010 C1009 1.399 . S
C1010 C1011 1.385 . S
C1011 H997 0.931 . S
C1011 C1010 1.385 . S
C1011 C1012 1.389 . S
C1012 C1011 1.389 . S
C1012 C1013 1.387 . S
C1013 H998 0.930 . S
C1013 C1008 1.390 . S
C1013 C1012 1.387 . S
H1014 C1026 0.930 . S
H1015 C1028 0.930 . S
H1016 C1029 0.930 . S
H1017 C1033 0.959 . S
H1018 C1033 0.959 1_545 S
H1019 C1033 0.961 . S
H1020 C1034 0.956 1_565 S
H1021 C1034 0.971 . S
H1022 C1034 0.959 . S
H1023 C1037 0.929 . S
H1024 C1038 0.931 . S
H1025 C1040 0.930 . S
C1026 H1014 0.930 . S
C1026 C1027 1.399 . S
C1026 C1031 1.399 . S
C1027 C1026 1.399 . S
C1027 C1028 1.376 . S
C1028 H1015 0.930 . S
C1028 C1027 1.376 . S
C1028 C1029 1.388 . S
C1029 H1016 0.930 . S
C1029 C1028 1.388 . S
C1029 C1030 1.390 . S
C1030 C1029 1.390 . S
C1030 C1031 1.394 . S
C1030 C1036 1.465 . S
C1031 C1026 1.399 . S
C1031 C1030 1.394 . S
C1031 C1032 1.516 . S
C1032 C1031 1.516 . S
C1032 C1033 1.502 . S
C1032 C1034 1.555 1_565 S
C1032 C1035 1.526 . S
C1033 H1017 0.959 . S
C1033 H1018 0.959 1_565 S
C1033 H1019 0.961 . S
C1033 C1032 1.502 . S
C1034 H1020 0.956 1_545 S
C1034 H1021 0.971 . S
C1034 H1022 0.959 . S
C1034 C1032 1.555 1_545 S
C1035 C1032 1.526 . S
C1035 C1036 1.396 . S
C1035 C1040 1.390 1_565 S
C1036 C1030 1.465 . S
C1036 C1035 1.396 . S
C1036 C1037 1.399 1_554 S
C1037 H1023 0.929 . S
C1037 C1036 1.399 1_556 S
C1037 C1038 1.385 1_565 S
C1038 H1024 0.931 . S
C1038 C1037 1.385 1_545 S
C1038 C1039 1.389 . S
C1039 C1038 1.389 . S
C1039 C1040 1.387 1_556 S
C1040 H1025 0.930 . S
C1040 C1035 1.390 1_545 S
C1040 C1039 1.387 1_554 S
H1041 C1053 0.930 . S
H1042 C1055 0.930 . S
H1043 C1056 0.930 . S
H1044 C1060 0.959 . S
H1045 C1060 0.959 . S
H1046 C1060 0.961 . S
H1047 C1061 0.960 . S
H1048 C1061 0.961 . S
H1049 C1061 0.959 . S
H1050 C1064 0.929 . S
H1051 C1065 0.931 . S
H1052 C1067 0.930 . S
C1053 H1041 0.930 . S
C1053 C1054 1.399 . S
C1053 C1058 1.399 . S
C1054 C1053 1.399 . S
C1054 C1055 1.376 . S
C1055 H1042 0.930 . S
C1055 C1054 1.376 . S
C1055 C1056 1.388 . S
C1056 H1043 0.930 . S
C1056 C1055 1.388 . S
C1056 C1057 1.390 . S
C1057 C1056 1.390 . S
C1057 C1058 1.394 . S
C1057 C1063 1.465 . S
C1058 C1053 1.399 . S
C1058 C1057 1.394 . S
C1058 C1059 1.516 . S
C1059 C1058 1.516 . S
C1059 C1060 1.502 . S
C1059 C1061 1.561 . S
C1059 C1062 1.526 . S
C1060 H1044 0.959 . S
C1060 H1045 0.959 . S
C1060 H1046 0.961 . S
C1060 C1059 1.502 . S
C1061 H1047 0.960 . S
C1061 H1048 0.961 . S
C1061 H1049 0.959 . S
C1061 C1059 1.561 . S
C1062 C1059 1.526 . S
C1062 C1063 1.396 . S
C1062 C1067 1.390 . S
C1063 C1057 1.465 . S
C1063 C1062 1.396 . S
C1063 C1064 1.399 . S
C1064 H1050 0.929 . S
C1064 C1063 1.399 . S
C1064 C1065 1.385 . S
C1065 H1051 0.931 . S
C1065 C1064 1.385 . S
C1065 C1066 1.389 . S
C1066 C1065 1.389 . S
C1066 C1067 1.387 . S
C1067 H1052 0.930 . S
C1067 C1062 1.390 . S
C1067 C1066 1.387 . S
H1068 C1080 0.930 . S
H1069 C1082 0.930 . S
H1070 C1083 0.930 . S
H1071 C1087 0.959 . S
H1072 C1087 0.959 . S
H1073 C1087 0.961 . S
H1074 C1088 0.960 . S
H1075 C1088 0.961 . S
H1076 C1088 0.959 . S
H1077 C1091 0.929 . S
H1078 C1092 0.931 . S
H1079 C1094 0.930 . S
C1080 H1068 0.930 . S
C1080 C1081 1.399 . S
C1080 C1085 1.399 . S
C1081 C1080 1.399 . S
C1081 C1082 1.376 . S
C1082 H1069 0.930 . S
C1082 C1081 1.376 . S
C1082 C1083 1.388 . S
C1083 H1070 0.930 . S
C1083 C1082 1.388 . S
C1083 C1084 1.390 . S
C1084 C1083 1.390 . S
C1084 C1085 1.394 . S
C1084 C1090 1.465 . S
C1085 C1080 1.399 . S
C1085 C1084 1.394 . S
C1085 C1086 1.516 . S
C1086 C1085 1.516 . S
C1086 C1087 1.502 . S
C1086 C1088 1.561 . S
C1086 C1089 1.526 . S
C1087 H1071 0.959 . S
C1087 H1072 0.959 . S
C1087 H1073 0.961 . S
C1087 C1086 1.502 . S
C1088 H1074 0.960 . S
C1088 H1075 0.961 . S
C1088 H1076 0.959 . S
C1088 C1086 1.561 . S
C1089 C1086 1.526 . S
C1089 C1090 1.396 . S
C1089 C1094 1.390 . S
C1090 C1084 1.465 . S
C1090 C1089 1.396 . S
C1090 C1091 1.399 . S
C1091 H1077 0.929 . S
C1091 C1090 1.399 . S
C1091 C1092 1.385 . S
C1092 H1078 0.931 . S
C1092 C1091 1.385 . S
C1092 C1093 1.389 . S
C1093 C1092 1.389 . S
C1093 C1094 1.387 . S
C1094 H1079 0.930 . S
C1094 C1089 1.390 . S
C1094 C1093 1.387 . S
H1095 C1107 0.930 . S
H1096 C1109 0.930 . S
H1097 C1110 0.930 . S
H1098 C1114 0.959 . S
H1099 C1114 0.959 . S
H1100 C1114 0.961 . S
H1101 C1115 0.960 . S
H1102 C1115 0.961 . S
H1103 C1115 0.959 . S
H1104 C1118 0.929 . S
H1105 C1119 0.931 . S
H1106 C1121 0.930 . S
C1107 H1095 0.930 . S
C1107 C1108 1.399 . S
C1107 C1112 1.399 . S
C1108 C1107 1.399 . S
C1108 C1109 1.376 . S
C1109 H1096 0.930 . S
C1109 C1108 1.376 . S
C1109 C1110 1.388 . S
C1110 H1097 0.930 . S
C1110 C1109 1.388 . S
C1110 C1111 1.390 . S
C1111 C1110 1.390 . S
C1111 C1112 1.394 . S
C1111 C1117 1.465 . S
C1112 C1107 1.399 . S
C1112 C1111 1.394 . S
C1112 C1113 1.516 . S
C1113 C1112 1.516 . S
C1113 C1114 1.502 . S
C1113 C1115 1.561 . S
C1113 C1116 1.526 . S
C1114 H1098 0.959 . S
C1114 H1099 0.959 . S
C1114 H1100 0.961 . S
C1114 C1113 1.502 . S
C1115 H1101 0.960 . S
C1115 H1102 0.961 . S
C1115 H1103 0.959 . S
C1115 C1113 1.561 . S
C1116 C1113 1.526 . S
C1116 C1117 1.396 . S
C1116 C1121 1.390 . S
C1117 C1111 1.465 . S
C1117 C1116 1.396 . S
C1117 C1118 1.399 . S
C1118 H1104 0.929 . S
C1118 C1117 1.399 . S
C1118 C1119 1.385 . S
C1119 H1105 0.931 . S
C1119 C1118 1.385 . S
C1119 C1120 1.389 . S
C1120 C1119 1.389 . S
C1120 C1121 1.387 . S
C1121 H1106 0.930 . S
C1121 C1116 1.390 . S
C1121 C1120 1.387 . S
H1122 C1134 0.930 . S
H1123 C1136 0.930 . S
H1124 C1137 0.930 . S
H1125 C1141 0.959 . S
H1126 C1141 0.959 . S
H1127 C1141 0.961 . S
H1128 C1142 0.960 . S
H1129 C1142 0.961 . S
H1130 C1142 0.959 . S
H1131 C1145 0.929 . S
H1132 C1146 0.931 . S
H1133 C1148 0.933 . S
C1134 H1122 0.930 . S
C1134 C1135 1.399 . S
C1134 C1139 1.399 . S
C1135 C1134 1.399 . S
C1135 C1136 1.376 . S
C1136 H1123 0.930 . S
C1136 C1135 1.376 . S
C1136 C1137 1.388 . S
C1137 H1124 0.930 . S
C1137 C1136 1.388 . S
C1137 C1138 1.390 . S
C1138 C1137 1.390 . S
C1138 C1139 1.394 . S
C1138 C1144 1.465 . S
C1139 C1134 1.399 . S
C1139 C1138 1.394 . S
C1139 C1140 1.516 . S
C1140 C1139 1.516 . S
C1140 C1141 1.502 . S
C1140 C1142 1.561 . S
C1140 C1143 1.526 . S
C1141 H1125 0.959 . S
C1141 H1126 0.959 . S
C1141 H1127 0.961 . S
C1141 C1140 1.502 . S
C1142 H1128 0.960 . S
C1142 H1129 0.961 . S
C1142 H1130 0.959 . S
C1142 C1140 1.561 . S
C1143 C1140 1.526 . S
C1143 C1144 1.396 . S
C1143 C1148 1.390 1_556 S
C1144 C1138 1.465 . S
C1144 C1143 1.396 . S
C1144 C1145 1.399 1_556 S
C1145 H1131 0.929 . S
C1145 C1144 1.399 1_554 S
C1145 C1146 1.385 . S
C1146 H1132 0.931 . S
C1146 C1145 1.385 . S
C1146 C1147 1.389 . S
C1147 C1146 1.389 . S
C1147 C1148 1.387 . S
C1148 H1133 0.933 . S
C1148 C1143 1.390 1_554 S
C1148 C1147 1.387 . S
H1149 C1161 0.930 . S
H1150 C1163 0.930 . S
H1151 C1164 0.930 . S
H1152 C1168 0.959 . S
H1153 C1168 0.959 . S
H1154 C1168 0.961 . S
H1155 C1169 0.960 . S
H1156 C1169 0.961 . S
H1157 C1169 0.959 . S
H1158 C1172 0.929 . S
H1159 C1173 0.931 . S
H1160 C1175 0.930 . S
C1161 H1149 0.930 . S
C1161 C1162 1.399 . S
C1161 C1166 1.399 . S
C1162 C1161 1.399 . S
C1162 C1163 1.376 . S
C1163 H1150 0.930 . S
C1163 C1162 1.376 . S
C1163 C1164 1.388 . S
C1164 H1151 0.930 . S
C1164 C1163 1.388 . S
C1164 C1165 1.390 . S
C1165 C1164 1.390 . S
C1165 C1166 1.394 . S
C1165 C1171 1.465 . S
C1166 C1161 1.399 . S
C1166 C1165 1.394 . S
C1166 C1167 1.516 . S
C1167 C1166 1.516 . S
C1167 C1168 1.502 . S
C1167 C1169 1.561 . S
C1167 C1170 1.526 . S
C1168 H1152 0.959 . S
C1168 H1153 0.959 . S
C1168 H1154 0.961 . S
C1168 C1167 1.502 . S
C1169 H1155 0.960 . S
C1169 H1156 0.961 . S
C1169 H1157 0.959 . S
C1169 C1167 1.561 . S
C1170 C1167 1.526 . S
C1170 C1171 1.396 . S
C1170 C1175 1.390 . S
C1171 C1165 1.465 . S
C1171 C1170 1.396 . S
C1171 C1172 1.399 . S
C1172 H1158 0.929 . S
C1172 C1171 1.399 . S
C1172 C1173 1.385 . S
C1173 H1159 0.931 . S
C1173 C1172 1.385 . S
C1173 C1174 1.389 . S
C1174 C1173 1.389 . S
C1174 C1175 1.387 . S
C1175 H1160 0.930 . S
C1175 C1170 1.390 . S
C1175 C1174 1.387 . S
H1176 C1188 0.930 1_455 S
H1177 C1190 0.930 . S
H1178 C1191 0.930 . S
H1179 C1195 0.959 1_455 S
H1180 C1195 0.959 . S
H1181 C1195 0.961 1_455 S
H1182 C1196 0.960 . S
H1183 C1196 0.961 . S
H1184 C1196 0.959 . S
H1185 C1199 0.929 . S
H1186 C1200 0.931 . S
H1187 C1202 0.930 . S
C1188 H1176 0.930 1_655 S
C1188 C1189 1.399 . S
C1188 C1193 1.399 . S
C1189 C1188 1.399 . S
C1189 C1190 1.376 . S
C1190 H1177 0.930 . S
C1190 C1189 1.376 . S
C1190 C1191 1.388 . S
C1191 H1178 0.930 . S
C1191 C1190 1.388 . S
C1191 C1192 1.390 . S
C1192 C1191 1.390 . S
C1192 C1193 1.394 . S
C1192 C1198 1.465 . S
C1193 C1188 1.399 . S
C1193 C1192 1.394 . S
C1193 C1194 1.516 . S
C1194 C1193 1.516 . S
C1194 C1195 1.502 . S
C1194 C1196 1.561 . S
C1194 C1197 1.526 . S
C1195 H1179 0.959 1_655 S
C1195 H1180 0.959 . S
C1195 H1181 0.961 1_655 S
C1195 C1194 1.502 . S
C1196 H1182 0.960 . S
C1196 H1183 0.961 . S
C1196 H1184 0.959 . S
C1196 C1194 1.561 . S
C1197 C1194 1.526 . S
C1197 C1198 1.396 . S
C1197 C1202 1.390 . S
C1198 C1192 1.465 . S
C1198 C1197 1.396 . S
C1198 C1199 1.399 . S
C1199 H1185 0.929 . S
C1199 C1198 1.399 . S
C1199 C1200 1.385 . S
C1200 H1186 0.931 . S
C1200 C1199 1.385 . S
C1200 C1201 1.389 . S
C1201 C1200 1.389 . S
C1201 C1202 1.387 . S
C1202 H1187 0.930 . S
C1202 C1197 1.390 . S
C1202 C1201 1.387 . S
H1203 C1215 0.930 . S
H1204 C1217 0.930 . S
H1205 C1218 0.930 . S
H1206 C1222 0.959 . S
H1207 C1222 0.959 . S
H1208 C1222 0.961 . S
H1209 C1223 0.960 . S
H1210 C1223 0.961 . S
H1211 C1223 0.959 . S
H1212 C1226 0.929 . S
H1213 C1227 0.931 . S
H1214 C1229 0.930 . S
C1215 H1203 0.930 . S
C1215 C1216 1.399 . S
C1215 C1220 1.399 . S
C1216 C1215 1.399 . S
C1216 C1217 1.376 . S
C1217 H1204 0.930 . S
C1217 C1216 1.376 . S
C1217 C1218 1.388 . S
C1218 H1205 0.930 . S
C1218 C1217 1.388 . S
C1218 C1219 1.390 . S
C1219 C1218 1.390 . S
C1219 C1220 1.394 . S
C1219 C1225 1.465 . S
C1220 C1215 1.399 . S
C1220 C1219 1.394 . S
C1220 C1221 1.516 . S
C1221 C1220 1.516 . S
C1221 C1222 1.502 . S
C1221 C1223 1.561 . S
C1221 C1224 1.526 . S
C1222 H1206 0.959 . S
C1222 H1207 0.959 . S
C1222 H1208 0.961 . S
C1222 C1221 1.502 . S
C1223 H1209 0.960 . S
C1223 H1210 0.961 . S
C1223 H1211 0.959 . S
C1223 C1221 1.561 . S
C1224 C1221 1.526 . S
C1224 C1225 1.396 . S
C1224 C1229 1.390 . S
C1225 C1219 1.465 . S
C1225 C1224 1.396 . S
C1225 C1226 1.399 . S
C1226 H1212 0.929 . S
C1226 C1225 1.399 . S
C1226 C1227 1.385 . S
C1227 H1213 0.931 . S
C1227 C1226 1.385 . S
C1227 C1228 1.389 . S
C1228 C1227 1.389 . S
C1228 C1229 1.387 . S
C1229 H1214 0.930 . S
C1229 C1224 1.390 . S
C1229 C1228 1.387 . S
H1230 C1242 0.930 . S
H1231 C1244 0.930 . S
H1232 C1245 0.930 . S
H1233 C1249 0.959 . S
H1234 C1249 0.959 . S
H1235 C1249 0.961 . S
H1236 C1250 0.960 . S
H1237 C1250 0.961 . S
H1238 C1250 0.959 . S
H1239 C1253 0.929 . S
H1240 C1254 0.931 . S
H1241 C1256 0.926 1_554 S
C1242 H1230 0.930 . S
C1242 C1243 1.399 . S
C1242 C1247 1.399 . S
C1243 C1242 1.399 . S
C1243 C1244 1.376 . S
C1244 H1231 0.930 . S
C1244 C1243 1.376 . S
C1244 C1245 1.388 . S
C1245 H1232 0.930 . S
C1245 C1244 1.388 . S
C1245 C1246 1.390 . S
C1246 C1245 1.390 . S
C1246 C1247 1.394 . S
C1246 C1252 1.465 . S
C1247 C1242 1.399 . S
C1247 C1246 1.394 . S
C1247 C1248 1.516 . S
C1248 C1247 1.516 . S
C1248 C1249 1.502 . S
C1248 C1250 1.561 . S
C1248 C1251 1.526 . S
C1249 H1233 0.959 . S
C1249 H1234 0.959 . S
C1249 H1235 0.961 . S
C1249 C1248 1.502 . S
C1250 H1236 0.960 . S
C1250 H1237 0.961 . S
C1250 H1238 0.959 . S
C1250 C1248 1.561 . S
C1251 C1248 1.526 . S
C1251 C1252 1.396 . S
C1251 C1256 1.374 1_554 S
C1252 C1246 1.465 . S
C1252 C1251 1.396 . S
C1252 C1253 1.399 1_554 S
C1253 H1239 0.929 . S
C1253 C1252 1.399 1_556 S
C1253 C1254 1.385 . S
C1254 H1240 0.931 . S
C1254 C1253 1.385 . S
C1254 C1255 1.389 . S
C1255 C1254 1.389 . S
C1255 C1256 1.407 . S
C1256 H1241 0.926 1_556 S
C1256 C1251 1.374 1_556 S
C1256 C1255 1.407 . S
H1257 C1269 0.930 . S
H1258 C1271 0.930 . S
H1259 C1272 0.930 . S
H1260 C1276 0.959 . S
H1261 C1276 0.959 . S
H1262 C1276 0.961 . S
H1263 C1277 0.960 . S
H1264 C1277 0.961 . S
H1265 C1277 0.959 . S
H1266 C1280 0.929 . S
H1267 C1281 0.931 . S
H1268 C1283 0.930 . S
C1269 H1257 0.930 . S
C1269 C1270 1.399 . S
C1269 C1274 1.399 . S
C1270 C1269 1.399 . S
C1270 C1271 1.376 . S
C1271 H1258 0.930 . S
C1271 C1270 1.376 . S
C1271 C1272 1.388 . S
C1272 H1259 0.930 . S
C1272 C1271 1.388 . S
C1272 C1273 1.390 . S
C1273 C1272 1.390 . S
C1273 C1274 1.394 . S
C1273 C1279 1.465 . S
C1274 C1269 1.399 . S
C1274 C1273 1.394 . S
C1274 C1275 1.516 . S
C1275 C1274 1.516 . S
C1275 C1276 1.502 . S
C1275 C1277 1.561 . S
C1275 C1278 1.526 . S
C1276 H1260 0.959 . S
C1276 H1261 0.959 . S
C1276 H1262 0.961 . S
C1276 C1275 1.502 . S
C1277 H1263 0.960 . S
C1277 H1264 0.961 . S
C1277 H1265 0.959 . S
C1277 C1275 1.561 . S
C1278 C1275 1.526 . S
C1278 C1279 1.396 . S
C1278 C1283 1.390 . S
C1279 C1273 1.465 . S
C1279 C1278 1.396 . S
C1279 C1280 1.399 . S
C1280 H1266 0.929 . S
C1280 C1279 1.399 . S
C1280 C1281 1.385 . S
C1281 H1267 0.931 . S
C1281 C1280 1.385 . S
C1281 C1282 1.389 . S
C1282 C1281 1.389 . S
C1282 C1283 1.387 . S
C1283 H1268 0.930 . S
C1283 C1278 1.390 . S
C1283 C1282 1.387 . S
H1284 C1296 0.930 . S
H1285 C1298 0.930 . S
H1286 C1299 0.930 . S
H1287 C1303 0.959 . S
H1288 C1303 0.959 . S
H1289 C1303 0.961 . S
H1290 C1304 0.960 . S
H1291 C1304 0.961 . S
H1292 C1304 0.959 . S
H1293 C1307 0.929 . S
H1294 C1308 0.931 . S
H1295 C1310 0.930 . S
C1296 H1284 0.930 . S
C1296 C1297 1.399 . S
C1296 C1301 1.399 . S
C1297 C1296 1.399 . S
C1297 C1298 1.376 . S
C1298 H1285 0.930 . S
C1298 C1297 1.376 . S
C1298 C1299 1.388 . S
C1299 H1286 0.930 . S
C1299 C1298 1.388 . S
C1299 C1300 1.390 . S
C1300 C1299 1.390 . S
C1300 C1301 1.394 . S
C1300 C1306 1.465 . S
C1301 C1296 1.399 . S
C1301 C1300 1.394 . S
C1301 C1302 1.516 . S
C1302 C1301 1.516 . S
C1302 C1303 1.502 . S
C1302 C1304 1.561 . S
C1302 C1305 1.526 . S
C1303 H1287 0.959 . S
C1303 H1288 0.959 . S
C1303 H1289 0.961 . S
C1303 C1302 1.502 . S
C1304 H1290 0.960 . S
C1304 H1291 0.961 . S
C1304 H1292 0.959 . S
C1304 C1302 1.561 . S
C1305 C1302 1.526 . S
C1305 C1306 1.396 . S
C1305 C1310 1.390 . S
C1306 C1300 1.465 . S
C1306 C1305 1.396 . S
C1306 C1307 1.399 . S
C1307 H1293 0.929 . S
C1307 C1306 1.399 . S
C1307 C1308 1.385 . S
C1308 H1294 0.931 . S
C1308 C1307 1.385 . S
C1308 C1309 1.389 . S
C1309 C1308 1.389 . S
C1309 C1310 1.387 . S
C1310 H1295 0.930 . S
C1310 C1305 1.390 . S
C1310 C1309 1.387 . S
H1311 C1323 0.930 . S
H1312 C1325 0.930 . S
H1313 C1326 0.930 1_565 S
H1314 C1330 0.959 . S
H1315 C1330 0.959 . S
H1316 C1330 0.961 . S
H1317 C1331 0.960 . S
H1318 C1331 0.961 . S
H1319 C1331 0.959 . S
H1320 C1334 0.929 . S
H1321 C1335 0.931 . S
H1322 C1337 0.930 . S
C1323 H1311 0.930 . S
C1323 C1324 1.399 1_545 S
C1323 C1328 1.399 1_455 S
C1324 C1323 1.399 1_565 S
C1324 C1325 1.376 . S
C1325 H1312 0.930 . S
C1325 C1324 1.376 . S
C1325 C1326 1.388 1_465 S
C1326 H1313 0.930 1_545 S
C1326 C1325 1.388 1_645 S
C1326 C1327 1.390 . S
C1327 C1326 1.390 . S
C1327 C1328 1.394 . S
C1327 C1333 1.465 . S
C1328 C1323 1.399 1_655 S
C1328 C1327 1.394 . S
C1328 C1329 1.516 . S
C1329 C1328 1.516 . S
C1329 C1330 1.502 . S
C1329 C1331 1.561 . S
C1329 C1332 1.526 . S
C1330 H1314 0.959 . S
C1330 H1315 0.959 . S
C1330 H1316 0.961 . S
C1330 C1329 1.502 . S
C1331 H1317 0.960 . S
C1331 H1318 0.961 . S
C1331 H1319 0.959 . S
C1331 C1329 1.561 . S
C1332 C1329 1.526 . S
C1332 C1333 1.396 . S
C1332 C1337 1.390 . S
C1333 C1327 1.465 . S
C1333 C1332 1.396 . S
C1333 C1334 1.399 . S
C1334 H1320 0.929 . S
C1334 C1333 1.399 . S
C1334 C1335 1.385 . S
C1335 H1321 0.931 . S
C1335 C1334 1.385 . S
C1335 C1336 1.389 . S
C1336 C1335 1.389 . S
C1336 C1337 1.387 . S
C1337 H1322 0.930 . S
C1337 C1332 1.390 . S
C1337 C1336 1.387 . S
H1338 C1350 0.930 . S
H1339 C1352 0.930 . S
H1340 C1353 0.930 . S
H1341 C1357 0.959 . S
H1342 C1357 0.959 . S
H1343 C1357 0.961 . S
H1344 C1358 0.960 . S
H1345 C1358 0.961 . S
H1346 C1358 0.959 . S
H1347 C1361 0.929 . S
H1348 C1362 0.931 . S
H1349 C1364 0.930 . S
C1350 H1338 0.930 . S
C1350 C1351 1.399 . S
C1350 C1355 1.399 . S
C1351 C1350 1.399 . S
C1351 C1352 1.376 . S
C1352 H1339 0.930 . S
C1352 C1351 1.376 . S
C1352 C1353 1.388 . S
C1353 H1340 0.930 . S
C1353 C1352 1.388 . S
C1353 C1354 1.390 . S
C1354 C1353 1.390 . S
C1354 C1355 1.394 . S
C1354 C1360 1.465 . S
C1355 C1350 1.399 . S
C1355 C1354 1.394 . S
C1355 C1356 1.516 . S
C1356 C1355 1.516 . S
C1356 C1357 1.502 . S
C1356 C1358 1.561 . S
C1356 C1359 1.526 . S
C1357 H1341 0.959 . S
C1357 H1342 0.959 . S
C1357 H1343 0.961 . S
C1357 C1356 1.502 . S
C1358 H1344 0.960 . S
C1358 H1345 0.961 . S
C1358 H1346 0.959 . S
C1358 C1356 1.561 . S
C1359 C1356 1.526 . S
C1359 C1360 1.396 . S
C1359 C1364 1.390 . S
C1360 C1354 1.465 . S
C1360 C1359 1.396 . S
C1360 C1361 1.399 . S
C1361 H1347 0.929 . S
C1361 C1360 1.399 . S
C1361 C1362 1.385 . S
C1362 H1348 0.931 . S
C1362 C1361 1.385 . S
C1362 C1363 1.389 . S
C1363 C1362 1.389 . S
C1363 C1364 1.387 . S
C1364 H1349 0.930 . S
C1364 C1359 1.390 . S
C1364 C1363 1.387 . S
H1365 C1377 0.930 . S
H1366 C1379 0.930 . S
H1367 C1380 0.930 . S
H1368 C1384 0.959 . S
H1369 C1384 0.959 . S
H1370 C1384 0.961 1_545 S
H1371 C1385 0.960 . S
H1372 C1385 0.961 . S
H1373 C1385 0.959 . S
H1374 C1388 0.929 . S
H1375 C1389 0.931 . S
H1376 C1391 0.930 . S
C1377 H1365 0.930 . S
C1377 C1378 1.399 1_545 S
C1377 C1382 1.399 1_545 S
C1378 C1377 1.399 1_565 S
C1378 C1379 1.376 . S
C1379 H1366 0.930 . S
C1379 C1378 1.376 . S
C1379 C1380 1.388 . S
C1380 H1367 0.930 . S
C1380 C1379 1.388 . S
C1380 C1381 1.390 . S
C1381 C1380 1.390 . S
C1381 C1382 1.394 . S
C1381 C1387 1.465 . S
C1382 C1377 1.399 1_565 S
C1382 C1381 1.394 . S
C1382 C1383 1.516 . S
C1383 C1382 1.516 . S
C1383 C1384 1.502 . S
C1383 C1385 1.561 1_565 S
C1383 C1386 1.526 . S
C1384 H1368 0.959 . S
C1384 H1369 0.959 . S
C1384 H1370 0.961 1_565 S
C1384 C1383 1.502 . S
C1385 H1371 0.960 . S
C1385 H1372 0.961 . S
C1385 H1373 0.959 . S
C1385 C1383 1.561 1_545 S
C1386 C1383 1.526 . S
C1386 C1387 1.396 . S
C1386 C1391 1.390 . S
C1387 C1381 1.465 . S
C1387 C1386 1.396 . S
C1387 C1388 1.399 . S
C1388 H1374 0.929 . S
C1388 C1387 1.399 . S
C1388 C1389 1.385 . S
C1389 H1375 0.931 . S
C1389 C1388 1.385 . S
C1389 C1390 1.389 . S
C1390 C1389 1.389 . S
C1390 C1391 1.387 . S
C1391 H1376 0.930 . S
C1391 C1386 1.390 . S
C1391 C1390 1.387 . S
H1392 C1404 0.930 . S
H1393 C1406 0.930 . S
H1394 C1407 0.930 . S
H1395 C1411 0.959 . S
H1396 C1411 0.959 . S
H1397 C1411 0.961 . S
H1398 C1412 0.960 . S
H1399 C1412 0.961 . S
H1400 C1412 0.959 . S
H1401 C1415 0.929 . S
H1402 C1416 0.931 . S
H1403 C1418 0.930 . S
C1404 H1392 0.930 . S
C1404 C1405 1.399 . S
C1404 C1409 1.399 . S
C1405 C1404 1.399 . S
C1405 C1406 1.376 . S
C1406 H1393 0.930 . S
C1406 C1405 1.376 . S
C1406 C1407 1.388 . S
C1407 H1394 0.930 . S
C1407 C1406 1.388 . S
C1407 C1408 1.390 . S
C1408 C1407 1.390 . S
C1408 C1409 1.394 . S
C1408 C1414 1.465 . S
C1409 C1404 1.399 . S
C1409 C1408 1.394 . S
C1409 C1410 1.516 . S
C1410 C1409 1.516 . S
C1410 C1411 1.502 . S
C1410 C1412 1.561 . S
C1410 C1413 1.526 . S
C1411 H1395 0.959 . S
C1411 H1396 0.959 . S
C1411 H1397 0.961 . S
C1411 C1410 1.502 . S
C1412 H1398 0.960 . S
C1412 H1399 0.961 . S
C1412 H1400 0.959 . S
C1412 C1410 1.561 . S
C1413 C1410 1.526 . S
C1413 C1414 1.396 . S
C1413 C1418 1.390 . S
C1414 C1408 1.465 . S
C1414 C1413 1.396 . S
C1414 C1415 1.399 . S
C1415 H1401 0.929 . S
C1415 C1414 1.399 . S
C1415 C1416 1.385 . S
C1416 H1402 0.931 . S
C1416 C1415 1.385 . S
C1416 C1417 1.389 . S
C1417 C1416 1.389 . S
C1417 C1418 1.387 . S
C1418 H1403 0.930 . S
C1418 C1413 1.390 . S
C1418 C1417 1.387 . S
H1419 C1431 0.930 . S
H1420 C1433 0.930 . S
H1421 C1434 0.930 . S
H1422 C1438 0.959 . S
H1423 C1438 0.959 . S
H1424 C1438 0.961 . S
H1425 C1439 0.960 . S
H1426 C1439 0.961 . S
H1427 C1439 0.959 . S
H1428 C1442 0.929 . S
H1429 C1443 0.931 . S
H1430 C1445 0.930 . S
C1431 H1419 0.930 . S
C1431 C1432 1.399 . S
C1431 C1436 1.399 1_655 S
C1432 C1431 1.399 . S
C1432 C1433 1.376 . S
C1433 H1420 0.930 . S
C1433 C1432 1.376 . S
C1433 C1434 1.388 . S
C1434 H1421 0.930 . S
C1434 C1433 1.388 . S
C1434 C1435 1.390 1_655 S
C1435 C1434 1.390 1_455 S
C1435 C1436 1.394 . S
C1435 C1441 1.465 . S
C1436 C1431 1.399 1_455 S
C1436 C1435 1.394 . S
C1436 C1437 1.516 . S
C1437 C1436 1.516 . S
C1437 C1438 1.502 . S
C1437 C1439 1.561 . S
C1437 C1440 1.526 . S
C1438 H1422 0.959 . S
C1438 H1423 0.959 . S
C1438 H1424 0.961 . S
C1438 C1437 1.502 . S
C1439 H1425 0.960 . S
C1439 H1426 0.961 . S
C1439 H1427 0.959 . S
C1439 C1437 1.561 . S
C1440 C1437 1.526 . S
C1440 C1441 1.396 . S
C1440 C1445 1.390 . S
C1441 C1435 1.465 . S
C1441 C1440 1.396 . S
C1441 C1442 1.399 . S
C1442 H1428 0.929 . S
C1442 C1441 1.399 . S
C1442 C1443 1.385 . S
C1443 H1429 0.931 . S
C1443 C1442 1.385 . S
C1443 C1444 1.389 . S
C1444 C1443 1.389 . S
C1444 C1445 1.387 . S
C1445 H1430 0.930 . S
C1445 C1440 1.390 . S
C1445 C1444 1.387 . S
H1446 C1458 0.930 . S
H1447 C1460 0.930 . S
H1448 C1461 0.930 . S
H1449 C1465 0.959 . S
H1450 C1465 0.959 . S
H1451 C1465 0.961 . S
H1452 C1466 0.960 . S
H1453 C1466 0.961 . S
H1454 C1466 0.959 . S
H1455 C1469 0.929 . S
H1456 C1470 0.931 . S
H1457 C1472 0.930 . S
C1458 H1446 0.930 . S
C1458 C1459 1.399 . S
C1458 C1463 1.399 . S
C1459 C1458 1.399 . S
C1459 C1460 1.376 . S
C1460 H1447 0.930 . S
C1460 C1459 1.376 . S
C1460 C1461 1.388 . S
C1461 H1448 0.930 . S
C1461 C1460 1.388 . S
C1461 C1462 1.390 . S
C1462 C1461 1.390 . S
C1462 C1463 1.394 . S
C1462 C1468 1.465 . S
C1463 C1458 1.399 . S
C1463 C1462 1.394 . S
C1463 C1464 1.516 . S
C1464 C1463 1.516 . S
C1464 C1465 1.502 . S
C1464 C1466 1.561 . S
C1464 C1467 1.526 . S
C1465 H1449 0.959 . S
C1465 H1450 0.959 . S
C1465 H1451 0.961 . S
C1465 C1464 1.502 . S
C1466 H1452 0.960 . S
C1466 H1453 0.961 . S
C1466 H1454 0.959 . S
C1466 C1464 1.561 . S
C1467 C1464 1.526 . S
C1467 C1468 1.396 . S
C1467 C1472 1.390 . S
C1468 C1462 1.465 . S
C1468 C1467 1.396 . S
C1468 C1469 1.399 . S
C1469 H1455 0.929 . S
C1469 C1468 1.399 . S
C1469 C1470 1.385 . S
C1470 H1456 0.931 . S
C1470 C1469 1.385 . S
C1470 C1471 1.389 . S
C1471 C1470 1.389 . S
C1471 C1472 1.387 . S
C1472 H1457 0.930 . S
C1472 C1467 1.390 . S
C1472 C1471 1.387 . S
H1473 C1485 0.930 . S
H1474 C1487 0.930 . S
H1475 C1488 0.930 . S
H1476 C1492 0.959 . S
H1477 C1492 0.959 . S
H1478 C1492 0.961 . S
H1479 C1493 0.960 . S
H1480 C1493 0.961 . S
H1481 C1493 0.959 . S
H1482 C1496 0.929 . S
H1483 C1497 0.931 . S
H1484 C1499 0.930 . S
C1485 H1473 0.930 . S
C1485 C1486 1.399 . S
C1485 C1490 1.399 . S
C1486 C1485 1.399 . S
C1486 C1487 1.376 . S
C1487 H1474 0.930 . S
C1487 C1486 1.376 . S
C1487 C1488 1.388 . S
C1488 H1475 0.930 . S
C1488 C1487 1.388 . S
C1488 C1489 1.390 . S
C1489 C1488 1.390 . S
C1489 C1490 1.394 . S
C1489 C1495 1.465 . S
C1490 C1485 1.399 . S
C1490 C1489 1.394 . S
C1490 C1491 1.516 . S
C1491 C1490 1.516 . S
C1491 C1492 1.502 . S
C1491 C1493 1.561 . S
C1491 C1494 1.526 . S
C1492 H1476 0.959 . S
C1492 H1477 0.959 . S
C1492 H1478 0.961 . S
C1492 C1491 1.502 . S
C1493 H1479 0.960 . S
C1493 H1480 0.961 . S
C1493 H1481 0.959 . S
C1493 C1491 1.561 . S
C1494 C1491 1.526 . S
C1494 C1495 1.396 . S
C1494 C1499 1.390 . S
C1495 C1489 1.465 . S
C1495 C1494 1.396 . S
C1495 C1496 1.399 . S
C1496 H1482 0.929 . S
C1496 C1495 1.399 . S
C1496 C1497 1.385 . S
C1497 H1483 0.931 . S
C1497 C1496 1.385 . S
C1497 C1498 1.389 . S
C1498 C1497 1.389 . S
C1498 C1499 1.387 . S
C1499 H1484 0.930 . S
C1499 C1494 1.390 . S
C1499 C1498 1.387 . S
H1500 C1512 0.930 . S
H1501 C1514 0.930 . S
H1502 C1515 0.930 . S
H1503 C1519 0.959 . S
H1504 C1519 0.959 . S
H1505 C1519 0.961 . S
H1506 C1520 0.960 . S
H1507 C1520 0.961 . S
H1508 C1520 0.959 . S
H1509 C1523 0.929 . S
H1510 C1524 0.931 . S
H1511 C1526 0.930 . S
C1512 H1500 0.930 . S
C1512 C1513 1.399 . S
C1512 C1517 1.399 . S
C1513 C1512 1.399 . S
C1513 C1514 1.376 . S
C1514 H1501 0.930 . S
C1514 C1513 1.376 . S
C1514 C1515 1.388 . S
C1515 H1502 0.930 . S
C1515 C1514 1.388 . S
C1515 C1516 1.390 . S
C1516 C1515 1.390 . S
C1516 C1517 1.394 . S
C1516 C1522 1.465 . S
C1517 C1512 1.399 . S
C1517 C1516 1.394 . S
C1517 C1518 1.516 . S
C1518 C1517 1.516 . S
C1518 C1519 1.502 . S
C1518 C1520 1.561 . S
C1518 C1521 1.526 . S
C1519 H1503 0.959 . S
C1519 H1504 0.959 . S
C1519 H1505 0.961 . S
C1519 C1518 1.502 . S
C1520 H1506 0.960 . S
C1520 H1507 0.961 . S
C1520 H1508 0.959 . S
C1520 C1518 1.561 . S
C1521 C1518 1.526 . S
C1521 C1522 1.396 . S
C1521 C1526 1.390 . S
C1522 C1516 1.465 . S
C1522 C1521 1.396 . S
C1522 C1523 1.399 . S
C1523 H1509 0.929 . S
C1523 C1522 1.399 . S
C1523 C1524 1.385 . S
C1524 H1510 0.931 . S
C1524 C1523 1.385 . S
C1524 C1525 1.389 . S
C1525 C1524 1.389 . S
C1525 C1526 1.387 . S
C1526 H1511 0.930 . S
C1526 C1521 1.390 . S
C1526 C1525 1.387 . S
H1527 C1539 0.930 . S
H1528 C1541 0.930 . S
H1529 C1542 0.930 . S
H1530 C1546 0.959 . S
H1531 C1546 0.959 . S
H1532 C1546 0.961 . S
H1533 C1547 0.960 . S
H1534 C1547 0.961 . S
H1535 C1547 0.959 . S
H1536 C1550 0.929 . S
H1537 C1551 0.931 . S
H1538 C1553 0.930 . S
C1539 H1527 0.930 . S
C1539 C1540 1.399 . S
C1539 C1544 1.399 . S
C1540 C1539 1.399 . S
C1540 C1541 1.376 . S
C1541 H1528 0.930 . S
C1541 C1540 1.376 . S
C1541 C1542 1.388 . S
C1542 H1529 0.930 . S
C1542 C1541 1.388 . S
C1542 C1543 1.390 . S
C1543 C1542 1.390 . S
C1543 C1544 1.394 . S
C1543 C1549 1.465 . S
C1544 C1539 1.399 . S
C1544 C1543 1.394 . S
C1544 C1545 1.516 . S
C1545 C1544 1.516 . S
C1545 C1546 1.502 . S
C1545 C1547 1.561 . S
C1545 C1548 1.526 . S
C1546 H1530 0.959 . S
C1546 H1531 0.959 . S
C1546 H1532 0.961 . S
C1546 C1545 1.502 . S
C1547 H1533 0.960 . S
C1547 H1534 0.961 . S
C1547 H1535 0.959 . S
C1547 C1545 1.561 . S
C1548 C1545 1.526 . S
C1548 C1549 1.396 . S
C1548 C1553 1.390 . S
C1549 C1543 1.465 . S
C1549 C1548 1.396 . S
C1549 C1550 1.399 . S
C1550 H1536 0.929 . S
C1550 C1549 1.399 . S
C1550 C1551 1.385 . S
C1551 H1537 0.931 . S
C1551 C1550 1.385 . S
C1551 C1552 1.389 . S
C1552 C1551 1.389 . S
C1552 C1553 1.387 . S
C1553 H1538 0.930 . S
C1553 C1548 1.390 . S
C1553 C1552 1.387 . S
H1554 C1566 0.930 . S
H1555 C1568 0.930 . S
H1556 C1569 0.930 . S
H1557 C1573 0.959 . S
H1558 C1573 0.959 . S
H1559 C1573 0.961 . S
H1560 C1574 0.960 . S
H1561 C1574 0.961 . S
H1562 C1574 0.959 . S
H1563 C1577 0.929 . S
H1564 C1578 0.931 . S
H1565 C1580 0.930 . S
C1566 H1554 0.930 . S
C1566 C1567 1.399 . S
C1566 C1571 1.399 . S
C1567 C1566 1.399 . S
C1567 C1568 1.376 . S
C1568 H1555 0.930 . S
C1568 C1567 1.376 . S
C1568 C1569 1.388 . S
C1569 H1556 0.930 . S
C1569 C1568 1.388 . S
C1569 C1570 1.390 . S
C1570 C1569 1.390 . S
C1570 C1571 1.394 . S
C1570 C1576 1.465 . S
C1571 C1566 1.399 . S
C1571 C1570 1.394 . S
C1571 C1572 1.516 . S
C1572 C1571 1.516 . S
C1572 C1573 1.502 . S
C1572 C1574 1.561 . S
C1572 C1575 1.526 . S
C1573 H1557 0.959 . S
C1573 H1558 0.959 . S
C1573 H1559 0.961 . S
C1573 C1572 1.502 . S
C1574 H1560 0.960 . S
C1574 H1561 0.961 . S
C1574 H1562 0.959 . S
C1574 C1572 1.561 . S
C1575 C1572 1.526 . S
C1575 C1576 1.396 . S
C1575 C1580 1.390 . S
C1576 C1570 1.465 . S
C1576 C1575 1.396 . S
C1576 C1577 1.399 . S
C1577 H1563 0.929 . S
C1577 C1576 1.399 . S
C1577 C1578 1.385 . S
C1578 H1564 0.931 . S
C1578 C1577 1.385 . S
C1578 C1579 1.389 . S
C1579 C1578 1.389 . S
C1579 C1580 1.387 . S
C1580 H1565 0.930 . S
C1580 C1575 1.390 . S
C1580 C1579 1.387 . S
H1581 C1593 0.930 . S
H1582 C1595 0.930 . S
H1583 C1596 0.930 . S
H1584 C1600 0.959 1_556 S
H1585 C1600 0.953 1_556 S
H1586 C1600 0.961 . S
H1587 C1601 0.960 . S
H1588 C1601 0.961 . S
H1589 C1601 0.959 . S
H1590 C1604 0.929 . S
H1591 C1605 0.931 . S
H1592 C1607 0.930 . S
C1593 H1581 0.930 . S
C1593 C1594 1.399 . S
C1593 C1598 1.399 . S
C1594 C1593 1.399 . S
C1594 C1595 1.376 . S
C1595 H1582 0.930 . S
C1595 C1594 1.376 . S
C1595 C1596 1.388 . S
C1596 H1583 0.930 . S
C1596 C1595 1.388 . S
C1596 C1597 1.390 . S
C1597 C1596 1.390 . S
C1597 C1598 1.394 . S
C1597 C1603 1.465 . S
C1598 C1593 1.399 . S
C1598 C1597 1.394 . S
C1598 C1599 1.516 . S
C1599 C1598 1.516 . S
C1599 C1600 1.502 . S
C1599 C1601 1.561 . S
C1599 C1602 1.526 . S
C1600 H1584 0.959 1_554 S
C1600 H1585 0.953 1_554 S
C1600 H1586 0.961 . S
C1600 C1599 1.502 . S
C1601 H1587 0.960 . S
C1601 H1588 0.961 . S
C1601 H1589 0.959 . S
C1601 C1599 1.561 . S
C1602 C1599 1.526 . S
C1602 C1603 1.396 . S
C1602 C1607 1.390 1_554 S
C1603 C1597 1.465 . S
C1603 C1602 1.396 . S
C1603 C1604 1.399 . S
C1604 H1590 0.929 . S
C1604 C1603 1.399 . S
C1604 C1605 1.385 1_554 S
C1605 H1591 0.931 . S
C1605 C1604 1.385 1_556 S
C1605 C1606 1.389 . S
C1606 C1605 1.389 . S
C1606 C1607 1.387 . S
C1607 H1592 0.930 . S
C1607 C1602 1.390 1_556 S
C1607 C1606 1.387 . S
H1608 C1620 0.930 . S
H1609 C1622 0.930 1_565 S
H1610 C1623 0.930 . S
H1611 C1627 0.959 . S
H1612 C1627 0.959 . S
H1613 C1627 0.961 . S
H1614 C1628 0.960 1_565 S
H1615 C1628 0.961 . S
H1616 C1628 0.959 . S
H1617 C1631 0.929 . S
H1618 C1632 0.931 . S
H1619 C1634 0.930 . S
C1620 H1608 0.930 . S
C1620 C1621 1.399 . S
C1620 C1625 1.399 1_565 S
C1621 C1620 1.399 . S
C1621 C1622 1.376 1_565 S
C1622 H1609 0.930 1_545 S
C1622 C1621 1.376 1_545 S
C1622 C1623 1.388 . S
C1623 H1610 0.930 . S
C1623 C1622 1.388 . S
C1623 C1624 1.390 . S
C1624 C1623 1.390 . S
C1624 C1625 1.394 . S
C1624 C1630 1.465 . S
C1625 C1620 1.399 1_545 S
C1625 C1624 1.394 . S
C1625 C1626 1.516 . S
C1626 C1625 1.516 . S
C1626 C1627 1.502 . S
C1626 C1628 1.561 . S
C1626 C1629 1.526 . S
C1627 H1611 0.959 . S
C1627 H1612 0.959 . S
C1627 H1613 0.961 . S
C1627 C1626 1.502 . S
C1628 H1614 0.960 1_545 S
C1628 H1615 0.961 . S
C1628 H1616 0.959 . S
C1628 C1626 1.561 . S
C1629 C1626 1.526 . S
C1629 C1630 1.396 . S
C1629 C1634 1.390 . S
C1630 C1624 1.465 . S
C1630 C1629 1.396 . S
C1630 C1631 1.399 . S
C1631 H1617 0.929 . S
C1631 C1630 1.399 . S
C1631 C1632 1.385 . S
C1632 H1618 0.931 . S
C1632 C1631 1.385 . S
C1632 C1633 1.389 . S
C1633 C1632 1.389 . S
C1633 C1634 1.387 . S
C1634 H1619 0.930 . S
C1634 C1629 1.390 . S
C1634 C1633 1.387 . S
H1635 C1647 0.930 . S
H1636 C1649 0.930 . S
H1637 C1650 0.930 . S
H1638 C1654 0.959 1_556 S
H1639 C1654 0.959 . S
H1640 C1654 0.961 . S
H1641 C1655 0.960 . S
H1642 C1655 0.961 . S
H1643 C1655 0.959 . S
H1644 C1658 0.929 . S
H1645 C1659 0.931 . S
H1646 C1661 0.930 . S
C1647 H1635 0.930 . S
C1647 C1648 1.399 . S
C1647 C1652 1.399 . S
C1648 C1647 1.399 . S
C1648 C1649 1.376 1_554 S
C1649 H1636 0.930 . S
C1649 C1648 1.376 1_556 S
C1649 C1650 1.388 . S
C1650 H1637 0.930 . S
C1650 C1649 1.388 . S
C1650 C1651 1.390 . S
C1651 C1650 1.390 . S
C1651 C1652 1.394 1_556 S
C1651 C1657 1.465 . S
C1652 C1647 1.399 . S
C1652 C1651 1.394 1_554 S
C1652 C1653 1.516 . S
C1653 C1652 1.516 . S
C1653 C1654 1.502 . S
C1653 C1655 1.561 . S
C1653 C1656 1.526 1_554 S
C1654 H1638 0.959 1_554 S
C1654 H1639 0.959 . S
C1654 H1640 0.961 . S
C1654 C1653 1.502 . S
C1655 H1641 0.960 . S
C1655 H1642 0.961 . S
C1655 H1643 0.959 . S
C1655 C1653 1.561 . S
C1656 C1653 1.526 1_556 S
C1656 C1657 1.396 . S
C1656 C1661 1.390 . S
C1657 C1651 1.465 . S
C1657 C1656 1.396 . S
C1657 C1658 1.399 . S
C1658 H1644 0.929 . S
C1658 C1657 1.399 . S
C1658 C1659 1.385 . S
C1659 H1645 0.931 . S
C1659 C1658 1.385 . S
C1659 C1660 1.389 . S
C1660 C1659 1.389 . S
C1660 C1661 1.387 . S
C1661 H1646 0.930 . S
C1661 C1656 1.390 . S
C1661 C1660 1.387 . S
H1662 C1674 0.930 . S
H1663 C1676 0.930 . S
H1664 C1677 0.930 . S
H1665 C1681 0.959 . S
H1666 C1681 0.959 . S
H1667 C1681 0.961 . S
H1668 C1682 0.960 . S
H1669 C1682 0.961 . S
H1670 C1682 0.959 . S
H1671 C1685 0.929 . S
H1672 C1686 0.931 . S
H1673 C1688 0.930 . S
C1674 H1662 0.930 . S
C1674 C1675 1.399 1_565 S
C1674 C1679 1.399 . S
C1675 C1674 1.399 1_545 S
C1675 C1676 1.376 . S
C1676 H1663 0.930 . S
C1676 C1675 1.376 . S
C1676 C1677 1.388 . S
C1677 H1664 0.930 . S
C1677 C1676 1.388 . S
C1677 C1678 1.390 1_545 S
C1678 C1677 1.390 1_565 S
C1678 C1679 1.394 . S
C1678 C1684 1.465 . S
C1679 C1674 1.399 . S
C1679 C1678 1.394 . S
C1679 C1680 1.516 . S
C1680 C1679 1.516 . S
C1680 C1681 1.502 . S
C1680 C1682 1.561 . S
C1680 C1683 1.526 . S
C1681 H1665 0.959 . S
C1681 H1666 0.959 . S
C1681 H1667 0.961 . S
C1681 C1680 1.502 . S
C1682 H1668 0.960 . S
C1682 H1669 0.961 . S
C1682 H1670 0.959 . S
C1682 C1680 1.561 . S
C1683 C1680 1.526 . S
C1683 C1684 1.396 . S
C1683 C1688 1.390 . S
C1684 C1678 1.465 . S
C1684 C1683 1.396 . S
C1684 C1685 1.399 . S
C1685 H1671 0.929 . S
C1685 C1684 1.399 . S
C1685 C1686 1.385 . S
C1686 H1672 0.931 . S
C1686 C1685 1.385 . S
C1686 C1687 1.389 . S
C1687 C1686 1.389 . S
C1687 C1688 1.387 . S
C1688 H1673 0.930 . S
C1688 C1683 1.390 . S
C1688 C1687 1.387 . S
H1689 C1701 0.930 . S
H1690 C1703 0.930 . S
H1691 C1704 0.930 . S
H1692 C1708 0.959 . S
H1693 C1708 0.959 . S
H1694 C1708 0.961 . S
H1695 C1709 0.960 . S
H1696 C1709 0.961 . S
H1697 C1709 0.959 . S
H1698 C1712 0.929 . S
H1699 C1713 0.931 . S
H1700 C1715 0.930 . S
C1701 H1689 0.930 . S
C1701 C1702 1.399 . S
C1701 C1706 1.399 . S
C1702 C1701 1.399 . S
C1702 C1703 1.376 . S
C1703 H1690 0.930 . S
C1703 C1702 1.376 . S
C1703 C1704 1.388 . S
C1704 H1691 0.930 . S
C1704 C1703 1.388 . S
C1704 C1705 1.390 . S
C1705 C1704 1.390 . S
C1705 C1706 1.394 . S
C1705 C1711 1.465 . S
C1706 C1701 1.399 . S
C1706 C1705 1.394 . S
C1706 C1707 1.516 . S
C1707 C1706 1.516 . S
C1707 C1708 1.502 . S
C1707 C1709 1.561 . S
C1707 C1710 1.526 . S
C1708 H1692 0.959 . S
C1708 H1693 0.959 . S
C1708 H1694 0.961 . S
C1708 C1707 1.502 . S
C1709 H1695 0.960 . S
C1709 H1696 0.961 . S
C1709 H1697 0.959 . S
C1709 C1707 1.561 . S
C1710 C1707 1.526 . S
C1710 C1711 1.396 . S
C1710 C1715 1.390 . S
C1711 C1705 1.465 . S
C1711 C1710 1.396 . S
C1711 C1712 1.399 . S
C1712 H1698 0.929 . S
C1712 C1711 1.399 . S
C1712 C1713 1.385 . S
C1713 H1699 0.931 . S
C1713 C1712 1.385 . S
C1713 C1714 1.389 . S
C1714 C1713 1.389 . S
C1714 C1715 1.387 . S
C1715 H1700 0.930 . S
C1715 C1710 1.390 . S
C1715 C1714 1.387 . S
H1716 C1728 0.930 . S
H1717 C1730 0.930 . S
H1718 C1731 0.930 . S
H1719 C1735 0.959 . S
H1720 C1735 0.959 . S
H1721 C1735 0.961 . S
H1722 C1736 0.960 . S
H1723 C1736 0.961 . S
H1724 C1736 0.959 . S
H1725 C1739 0.929 . S
H1726 C1740 0.931 . S
H1727 C1742 0.930 . S
C1728 H1716 0.930 . S
C1728 C1729 1.399 . S
C1728 C1733 1.399 . S
C1729 C1728 1.399 . S
C1729 C1730 1.376 . S
C1730 H1717 0.930 . S
C1730 C1729 1.376 . S
C1730 C1731 1.388 . S
C1731 H1718 0.930 . S
C1731 C1730 1.388 . S
C1731 C1732 1.390 . S
C1732 C1731 1.390 . S
C1732 C1733 1.394 . S
C1732 C1738 1.465 . S
C1733 C1728 1.399 . S
C1733 C1732 1.394 . S
C1733 C1734 1.516 . S
C1734 C1733 1.516 . S
C1734 C1735 1.502 . S
C1734 C1736 1.561 . S
C1734 C1737 1.526 . S
C1735 H1719 0.959 . S
C1735 H1720 0.959 . S
C1735 H1721 0.961 . S
C1735 C1734 1.502 . S
C1736 H1722 0.960 . S
C1736 H1723 0.961 . S
C1736 H1724 0.959 . S
C1736 C1734 1.561 . S
C1737 C1734 1.526 . S
C1737 C1738 1.396 . S
C1737 C1742 1.390 . S
C1738 C1732 1.465 . S
C1738 C1737 1.396 . S
C1738 C1739 1.399 . S
C1739 H1725 0.929 . S
C1739 C1738 1.399 . S
C1739 C1740 1.385 . S
C1740 H1726 0.931 . S
C1740 C1739 1.385 . S
C1740 C1741 1.389 . S
C1741 C1740 1.389 . S
C1741 C1742 1.387 . S
C1742 H1727 0.930 . S
C1742 C1737 1.390 . S
C1742 C1741 1.387 . S
H1743 C1755 0.930 . S
H1744 C1757 0.930 . S
H1745 C1758 0.930 . S
H1746 C1762 0.959 . S
H1747 C1762 0.959 . S
H1748 C1762 0.961 . S
H1749 C1763 0.960 . S
H1750 C1763 0.961 . S
H1751 C1763 0.959 . S
H1752 C1766 0.929 1_565 S
H1753 C1767 0.931 . S
H1754 C1769 0.930 . S
C1755 H1743 0.930 . S
C1755 C1756 1.399 1_545 S
C1755 C1760 1.399 . S
C1756 C1755 1.399 1_565 S
C1756 C1757 1.376 . S
C1757 H1744 0.930 . S
C1757 C1756 1.376 . S
C1757 C1758 1.388 . S
C1758 H1745 0.930 . S
C1758 C1757 1.388 . S
C1758 C1759 1.390 1_565 S
C1759 C1758 1.390 1_545 S
C1759 C1760 1.394 . S
C1759 C1765 1.465 . S
C1760 C1755 1.399 . S
C1760 C1759 1.394 . S
C1760 C1761 1.516 . S
C1761 C1760 1.516 . S
C1761 C1762 1.502 . S
C1761 C1763 1.561 . S
C1761 C1764 1.526 . S
C1762 H1746 0.959 . S
C1762 H1747 0.959 . S
C1762 H1748 0.961 . S
C1762 C1761 1.502 . S
C1763 H1749 0.960 . S
C1763 H1750 0.961 . S
C1763 H1751 0.959 . S
C1763 C1761 1.561 . S
C1764 C1761 1.526 . S
C1764 C1765 1.396 . S
C1764 C1769 1.390 . S
C1765 C1759 1.465 . S
C1765 C1764 1.396 . S
C1765 C1766 1.399 . S
C1766 H1752 0.929 1_545 S
C1766 C1765 1.399 . S
C1766 C1767 1.385 . S
C1767 H1753 0.931 . S
C1767 C1766 1.385 . S
C1767 C1768 1.389 . S
C1768 C1767 1.389 . S
C1768 C1769 1.387 . S
C1769 H1754 0.930 . S
C1769 C1764 1.390 . S
C1769 C1768 1.387 . S
H1770 C1782 0.930 . S
H1771 C1784 0.930 . S
H1772 C1785 0.930 . S
H1773 C1789 0.959 . S
H1774 C1789 0.959 . S
H1775 C1789 0.961 . S
H1776 C1790 0.960 . S
H1777 C1790 0.961 . S
H1778 C1790 0.959 . S
H1779 C1793 0.929 . S
H1780 C1794 0.931 . S
H1781 C1796 0.930 . S
C1782 H1770 0.930 . S
C1782 C1783 1.399 . S
C1782 C1787 1.399 . S
C1783 C1782 1.399 . S
C1783 C1784 1.376 . S
C1784 H1771 0.930 . S
C1784 C1783 1.376 . S
C1784 C1785 1.388 . S
C1785 H1772 0.930 . S
C1785 C1784 1.388 . S
C1785 C1786 1.390 . S
C1786 C1785 1.390 . S
C1786 C1787 1.394 . S
C1786 C1792 1.465 . S
C1787 C1782 1.399 . S
C1787 C1786 1.394 . S
C1787 C1788 1.516 . S
C1788 C1787 1.516 . S
C1788 C1789 1.502 . S
C1788 C1790 1.561 . S
C1788 C1791 1.526 . S
C1789 H1773 0.959 . S
C1789 H1774 0.959 . S
C1789 H1775 0.961 . S
C1789 C1788 1.502 . S
C1790 H1776 0.960 . S
C1790 H1777 0.961 . S
C1790 H1778 0.959 . S
C1790 C1788 1.561 . S
C1791 C1788 1.526 . S
C1791 C1792 1.396 . S
C1791 C1796 1.390 . S
C1792 C1786 1.465 . S
C1792 C1791 1.396 . S
C1792 C1793 1.399 1_556 S
C1793 H1779 0.929 . S
C1793 C1792 1.399 1_554 S
C1793 C1794 1.385 . S
C1794 H1780 0.931 . S
C1794 C1793 1.385 . S
C1794 C1795 1.389 . S
C1795 C1794 1.389 . S
C1795 C1796 1.387 1_554 S
C1796 H1781 0.930 . S
C1796 C1791 1.390 . S
C1796 C1795 1.387 1_556 S
H1797 C1809 0.930 . S
H1798 C1811 0.930 . S
H1799 C1812 0.930 . S
H1800 C1816 0.936 1_565 S
H1801 C1816 0.959 . S
H1802 C1816 0.961 . S
H1803 C1817 0.960 . S
H1804 C1817 0.961 . S
H1805 C1817 0.959 . S
H1806 C1820 0.929 . S
H1807 C1821 0.931 . S
H1808 C1823 0.930 . S
C1809 H1797 0.930 . S
C1809 C1810 1.399 . S
C1809 C1814 1.399 . S
C1810 C1809 1.399 . S
C1810 C1811 1.376 . S
C1811 H1798 0.930 . S
C1811 C1810 1.376 . S
C1811 C1812 1.388 . S
C1812 H1799 0.930 . S
C1812 C1811 1.388 . S
C1812 C1813 1.390 . S
C1813 C1812 1.390 . S
C1813 C1814 1.394 . S
C1813 C1819 1.465 . S
C1814 C1809 1.399 . S
C1814 C1813 1.394 . S
C1814 C1815 1.516 1_565 S
C1815 C1814 1.516 1_545 S
C1815 C1816 1.502 . S
C1815 C1817 1.561 . S
C1815 C1818 1.526 . S
C1816 H1800 0.936 1_545 S
C1816 H1801 0.959 . S
C1816 H1802 0.961 . S
C1816 C1815 1.502 . S
C1817 H1803 0.960 . S
C1817 H1804 0.961 . S
C1817 H1805 0.959 . S
C1817 C1815 1.561 . S
C1818 C1815 1.526 . S
C1818 C1819 1.396 1_545 S
C1818 C1823 1.390 . S
C1819 C1813 1.465 . S
C1819 C1818 1.396 1_565 S
C1819 C1820 1.399 . S
C1820 H1806 0.929 . S
C1820 C1819 1.399 . S
C1820 C1821 1.385 . S
C1821 H1807 0.931 . S
C1821 C1820 1.385 . S
C1821 C1822 1.389 1_565 S
C1822 C1821 1.389 1_545 S
C1822 C1823 1.387 . S
C1823 H1808 0.930 . S
C1823 C1818 1.390 . S
C1823 C1822 1.387 . S
H1824 C1836 0.930 . S
H1825 C1838 0.930 . S
H1826 C1839 0.930 . S
H1827 C1843 0.959 . S
H1828 C1843 0.959 . S
H1829 C1843 0.961 . S
H1830 C1844 0.960 . S
H1831 C1844 0.961 . S
H1832 C1844 0.959 . S
H1833 C1847 0.929 . S
H1834 C1848 0.931 . S
H1835 C1850 0.930 . S
C1836 H1824 0.930 . S
C1836 C1837 1.399 . S
C1836 C1841 1.399 . S
C1837 C1836 1.399 . S
C1837 C1838 1.376 . S
C1838 H1825 0.930 . S
C1838 C1837 1.376 . S
C1838 C1839 1.388 . S
C1839 H1826 0.930 . S
C1839 C1838 1.388 . S
C1839 C1840 1.390 . S
C1840 C1839 1.390 . S
C1840 C1841 1.394 . S
C1840 C1846 1.465 . S
C1841 C1836 1.399 . S
C1841 C1840 1.394 . S
C1841 C1842 1.516 . S
C1842 C1841 1.516 . S
C1842 C1843 1.502 . S
C1842 C1844 1.561 . S
C1842 C1845 1.526 . S
C1843 H1827 0.959 . S
C1843 H1828 0.959 . S
C1843 H1829 0.961 . S
C1843 C1842 1.502 . S
C1844 H1830 0.960 . S
C1844 H1831 0.961 . S
C1844 H1832 0.959 . S
C1844 C1842 1.561 . S
C1845 C1842 1.526 . S
C1845 C1846 1.396 . S
C1845 C1850 1.390 . S
C1846 C1840 1.465 . S
C1846 C1845 1.396 . S
C1846 C1847 1.399 . S
C1847 H1833 0.929 . S
C1847 C1846 1.399 . S
C1847 C1848 1.385 . S
C1848 H1834 0.931 . S
C1848 C1847 1.385 . S
C1848 C1849 1.389 . S
C1849 C1848 1.389 . S
C1849 C1850 1.387 . S
C1850 H1835 0.930 . S
C1850 C1845 1.390 . S
C1850 C1849 1.387 . S
H1851 C1863 0.930 . S
H1852 C1865 0.930 . S
H1853 C1866 0.930 . S
H1854 C1870 0.959 . S
H1855 C1870 0.959 . S
H1856 C1870 0.961 . S
H1857 C1871 0.960 . S
H1858 C1871 0.961 . S
H1859 C1871 0.959 . S
H1860 C1874 0.929 . S
H1861 C1875 0.931 . S
H1862 C1877 0.930 . S
C1863 H1851 0.930 . S
C1863 C1864 1.399 . S
C1863 C1868 1.399 . S
C1864 C1863 1.399 . S
C1864 C1865 1.376 . S
C1865 H1852 0.930 . S
C1865 C1864 1.376 . S
C1865 C1866 1.388 . S
C1866 H1853 0.930 . S
C1866 C1865 1.388 . S
C1866 C1867 1.390 . S
C1867 C1866 1.390 . S
C1867 C1868 1.394 . S
C1867 C1873 1.465 . S
C1868 C1863 1.399 . S
C1868 C1867 1.394 . S
C1868 C1869 1.516 . S
C1869 C1868 1.516 . S
C1869 C1870 1.502 . S
C1869 C1871 1.561 . S
C1869 C1872 1.526 . S
C1870 H1854 0.959 . S
C1870 H1855 0.959 . S
C1870 H1856 0.961 . S
C1870 C1869 1.502 . S
C1871 H1857 0.960 . S
C1871 H1858 0.961 . S
C1871 H1859 0.959 . S
C1871 C1869 1.561 . S
C1872 C1869 1.526 . S
C1872 C1873 1.396 . S
C1872 C1877 1.390 . S
C1873 C1867 1.465 . S
C1873 C1872 1.396 . S
C1873 C1874 1.399 . S
C1874 H1860 0.929 . S
C1874 C1873 1.399 . S
C1874 C1875 1.385 . S
C1875 H1861 0.931 . S
C1875 C1874 1.385 . S
C1875 C1876 1.389 . S
C1876 C1875 1.389 . S
C1876 C1877 1.387 . S
C1877 H1862 0.930 . S
C1877 C1872 1.390 . S
C1877 C1876 1.387 . S
H1878 C1890 0.930 . S
H1879 C1892 0.930 . S
H1880 C1893 0.930 . S
H1881 C1897 0.959 . S
H1882 C1897 0.959 . S
H1883 C1897 0.961 . S
H1884 C1898 0.960 . S
H1885 C1898 0.961 1_556 S
H1886 C1898 0.959 . S
H1887 C1901 0.929 . S
H1888 C1902 0.930 . S
H1889 C1904 0.930 . S
C1890 H1878 0.930 . S
C1890 C1891 1.399 . S
C1890 C1895 1.399 . S
C1891 C1890 1.399 . S
C1891 C1892 1.376 . S
C1892 H1879 0.930 . S
C1892 C1891 1.376 . S
C1892 C1893 1.388 . S
C1893 H1880 0.930 . S
C1893 C1892 1.388 . S
C1893 C1894 1.390 . S
C1894 C1893 1.390 . S
C1894 C1895 1.394 . S
C1894 C1900 1.465 . S
C1895 C1890 1.399 . S
C1895 C1894 1.394 . S
C1895 C1896 1.516 . S
C1896 C1895 1.516 . S
C1896 C1897 1.502 . S
C1896 C1898 1.561 . S
C1896 C1899 1.526 . S
C1897 H1881 0.959 . S
C1897 H1882 0.959 . S
C1897 H1883 0.961 . S
C1897 C1896 1.502 . S
C1898 H1884 0.960 . S
C1898 H1885 0.961 1_554 S
C1898 H1886 0.959 . S
C1898 C1896 1.561 . S
C1899 C1896 1.526 . S
C1899 C1900 1.396 . S
C1899 C1904 1.390 1_554 S
C1900 C1894 1.465 . S
C1900 C1899 1.396 . S
C1900 C1901 1.399 . S
C1901 H1887 0.929 . S
C1901 C1900 1.399 . S
C1901 C1902 1.386 1_554 S
C1902 H1888 0.930 . S
C1902 C1901 1.386 1_556 S
C1902 C1903 1.389 . S
C1903 C1902 1.389 . S
C1903 C1904 1.387 . S
C1904 H1889 0.930 . S
C1904 C1899 1.390 1_556 S
C1904 C1903 1.387 . S
H1905 C1917 0.930 . S
H1906 C1919 0.930 . S
H1907 C1920 0.930 . S
H1908 C1924 0.959 . S
H1909 C1924 0.959 . S
H1910 C1924 0.961 . S
H1911 C1925 0.960 . S
H1912 C1925 0.961 . S
H1913 C1925 0.959 . S
H1914 C1928 0.929 . S
H1915 C1929 0.931 . S
H1916 C1931 0.930 . S
C1917 H1905 0.930 . S
C1917 C1918 1.399 . S
C1917 C1922 1.399 . S
C1918 C1917 1.399 . S
C1918 C1919 1.376 . S
C1919 H1906 0.930 . S
C1919 C1918 1.376 . S
C1919 C1920 1.388 . S
C1920 H1907 0.930 . S
C1920 C1919 1.388 . S
C1920 C1921 1.390 . S
C1921 C1920 1.390 . S
C1921 C1922 1.394 . S
C1921 C1927 1.465 . S
C1922 C1917 1.399 . S
C1922 C1921 1.394 . S
C1922 C1923 1.516 . S
C1923 C1922 1.516 . S
C1923 C1924 1.502 . S
C1923 C1925 1.561 . S
C1923 C1926 1.526 . S
C1924 H1908 0.959 . S
C1924 H1909 0.959 . S
C1924 H1910 0.961 . S
C1924 C1923 1.502 . S
C1925 H1911 0.960 . S
C1925 H1912 0.961 . S
C1925 H1913 0.959 . S
C1925 C1923 1.561 . S
C1926 C1923 1.526 . S
C1926 C1927 1.396 . S
C1926 C1931 1.390 . S
C1927 C1921 1.465 . S
C1927 C1926 1.396 . S
C1927 C1928 1.399 . S
C1928 H1914 0.929 . S
C1928 C1927 1.399 . S
C1928 C1929 1.385 . S
C1929 H1915 0.931 . S
C1929 C1928 1.385 . S
C1929 C1930 1.389 . S
C1930 C1929 1.389 . S
C1930 C1931 1.387 . S
C1931 H1916 0.930 . S
C1931 C1926 1.390 . S
C1931 C1930 1.387 . S
H1932 C1944 0.930 . S
H1933 C1946 0.930 . S
H1934 C1947 0.930 . S
H1935 C1951 0.959 . S
H1936 C1951 0.959 . S
H1937 C1951 0.961 . S
H1938 C1952 0.960 . S
H1939 C1952 0.961 . S
H1940 C1952 0.959 . S
H1941 C1955 0.929 . S
H1942 C1956 0.931 . S
H1943 C1958 0.930 . S
C1944 H1932 0.930 . S
C1944 C1945 1.399 . S
C1944 C1949 1.399 . S
C1945 C1944 1.399 . S
C1945 C1946 1.376 . S
C1946 H1933 0.930 . S
C1946 C1945 1.376 . S
C1946 C1947 1.388 . S
C1947 H1934 0.930 . S
C1947 C1946 1.388 . S
C1947 C1948 1.390 . S
C1948 C1947 1.390 . S
C1948 C1949 1.394 . S
C1948 C1954 1.465 . S
C1949 C1944 1.399 . S
C1949 C1948 1.394 . S
C1949 C1950 1.516 . S
C1950 C1949 1.516 . S
C1950 C1951 1.502 . S
C1950 C1952 1.561 . S
C1950 C1953 1.526 . S
C1951 H1935 0.959 . S
C1951 H1936 0.959 . S
C1951 H1937 0.961 . S
C1951 C1950 1.502 . S
C1952 H1938 0.960 . S
C1952 H1939 0.961 . S
C1952 H1940 0.959 . S
C1952 C1950 1.561 . S
C1953 C1950 1.526 . S
C1953 C1954 1.396 . S
C1953 C1958 1.390 . S
C1954 C1948 1.465 . S
C1954 C1953 1.396 . S
C1954 C1955 1.399 . S
C1955 H1941 0.929 . S
C1955 C1954 1.399 . S
C1955 C1956 1.385 . S
C1956 H1942 0.931 . S
C1956 C1955 1.385 . S
C1956 C1957 1.389 . S
C1957 C1956 1.389 . S
C1957 C1958 1.387 . S
C1958 H1943 0.930 . S
C1958 C1953 1.390 . S
C1958 C1957 1.387 . S
H1959 C1971 0.930 . S
H1960 C1973 0.930 . S
H1961 C1974 0.930 . S
H1962 C1978 0.959 . S
H1963 C1978 0.959 1_554 S
H1964 C1978 0.961 1_455 S
H1965 C1979 0.960 . S
H1966 C1979 0.961 . S
H1967 C1979 0.959 . S
H1968 C1982 0.929 . S
H1969 C1983 0.931 . S
H1970 C1985 0.930 . S
C1971 H1959 0.930 . S
C1971 C1972 1.399 . S
C1971 C1976 1.399 1_455 S
C1972 C1971 1.399 . S
C1972 C1973 1.376 . S
C1973 H1960 0.930 . S
C1973 C1972 1.376 . S
C1973 C1974 1.388 1_455 S
C1974 H1961 0.930 . S
C1974 C1973 1.388 1_655 S
C1974 C1975 1.390 . S
C1975 C1974 1.390 . S
C1975 C1976 1.394 . S
C1975 C1981 1.465 . S
C1976 C1971 1.399 1_655 S
C1976 C1975 1.394 . S
C1976 C1977 1.516 . S
C1977 C1976 1.516 . S
C1977 C1978 1.502 . S
C1977 C1979 1.561 . S
C1977 C1980 1.526 . S
C1978 H1962 0.959 . S
C1978 H1963 0.959 1_556 S
C1978 H1964 0.961 1_655 S
C1978 C1977 1.502 . S
C1979 H1965 0.960 . S
C1979 H1966 0.961 . S
C1979 H1967 0.959 . S
C1979 C1977 1.561 . S
C1980 C1977 1.526 . S
C1980 C1981 1.396 . S
C1980 C1985 1.390 . S
C1981 C1975 1.465 . S
C1981 C1980 1.396 . S
C1981 C1982 1.399 . S
C1982 H1968 0.929 . S
C1982 C1981 1.399 . S
C1982 C1983 1.385 . S
C1983 H1969 0.931 . S
C1983 C1982 1.385 . S
C1983 C1984 1.389 . S
C1984 C1983 1.389 . S
C1984 C1985 1.387 . S
C1985 H1970 0.930 . S
C1985 C1980 1.390 . S
C1985 C1984 1.387 . S
H1986 C1998 0.928 1_455 S
H1987 C2000 0.930 . S
H1988 C2001 0.930 . S
H1989 C2005 0.959 . S
H1990 C2005 0.959 . S
H1991 C2005 0.961 . S
H1992 C2006 0.960 . S
H1993 C2006 0.961 . S
H1994 C2006 0.959 . S
H1995 C2009 0.929 . S
H1996 C2010 0.931 . S
H1997 C2012 0.930 . S
C1998 H1986 0.928 1_655 S
C1998 C1999 1.424 . S
C1998 C2003 1.378 1_655 S
C1999 C1998 1.424 . S
C1999 C2000 1.376 . S
C2000 H1987 0.930 . S
C2000 C1999 1.376 . S
C2000 C2001 1.388 . S
C2001 H1988 0.930 . S
C2001 C2000 1.388 . S
C2001 C2002 1.390 1_655 S
C2002 C2001 1.390 1_455 S
C2002 C2003 1.394 . S
C2002 C2008 1.465 . S
C2003 C1998 1.378 1_455 S
C2003 C2002 1.394 . S
C2003 C2004 1.516 . S
C2004 C2003 1.516 . S
C2004 C2005 1.502 . S
C2004 C2006 1.561 . S
C2004 C2007 1.526 . S
C2005 H1989 0.959 . S
C2005 H1990 0.959 . S
C2005 H1991 0.961 . S
C2005 C2004 1.502 . S
C2006 H1992 0.960 . S
C2006 H1993 0.961 . S
C2006 H1994 0.959 . S
C2006 C2004 1.561 . S
C2007 C2004 1.526 . S
C2007 C2008 1.396 . S
C2007 C2012 1.390 . S
C2008 C2002 1.465 . S
C2008 C2007 1.396 . S
C2008 C2009 1.399 . S
C2009 H1995 0.929 . S
C2009 C2008 1.399 . S
C2009 C2010 1.385 . S
C2010 H1996 0.931 . S
C2010 C2009 1.385 . S
C2010 C2011 1.389 . S
C2011 C2010 1.389 . S
C2011 C2012 1.387 . S
C2012 H1997 0.930 . S
C2012 C2007 1.390 . S
C2012 C2011 1.387 . S
H2013 C2025 0.930 . S
H2014 C2027 0.930 . S
H2015 C2028 0.930 . S
H2016 C2032 0.959 . S
H2017 C2032 0.959 . S
H2018 C2032 0.961 . S
H2019 C2033 0.960 . S
H2020 C2033 0.961 . S
H2021 C2033 0.959 . S
H2022 C2036 0.929 . S
H2023 C2037 0.931 . S
H2024 C2039 0.930 . S
C2025 H2013 0.930 . S
C2025 C2026 1.399 . S
C2025 C2030 1.399 . S
C2026 C2025 1.399 . S
C2026 C2027 1.376 . S
C2027 H2014 0.930 . S
C2027 C2026 1.376 . S
C2027 C2028 1.388 . S
C2028 H2015 0.930 . S
C2028 C2027 1.388 . S
C2028 C2029 1.390 . S
C2029 C2028 1.390 . S
C2029 C2030 1.394 . S
C2029 C2035 1.465 . S
C2030 C2025 1.399 . S
C2030 C2029 1.394 . S
C2030 C2031 1.516 . S
C2031 C2030 1.516 . S
C2031 C2032 1.502 . S
C2031 C2033 1.561 . S
C2031 C2034 1.526 . S
C2032 H2016 0.959 . S
C2032 H2017 0.959 . S
C2032 H2018 0.961 . S
C2032 C2031 1.502 . S
C2033 H2019 0.960 . S
C2033 H2020 0.961 . S
C2033 H2021 0.959 . S
C2033 C2031 1.561 . S
C2034 C2031 1.526 . S
C2034 C2035 1.396 . S
C2034 C2039 1.390 . S
C2035 C2029 1.465 . S
C2035 C2034 1.396 . S
C2035 C2036 1.399 . S
C2036 H2022 0.929 . S
C2036 C2035 1.399 . S
C2036 C2037 1.385 . S
C2037 H2023 0.931 . S
C2037 C2036 1.385 . S
C2037 C2038 1.389 . S
C2038 C2037 1.389 . S
C2038 C2039 1.387 . S
C2039 H2024 0.930 . S
C2039 C2034 1.390 . S
C2039 C2038 1.387 . S
H2040 C2052 0.930 . S
H2041 C2054 0.930 . S
H2042 C2055 0.930 . S
H2043 C2059 0.959 . S
H2044 C2059 0.959 . S
H2045 C2059 0.961 . S
H2046 C2060 0.960 . S
H2047 C2060 0.961 . S
H2048 C2060 0.959 . S
H2049 C2063 0.929 . S
H2050 C2064 0.931 . S
H2051 C2066 0.930 . S
C2052 H2040 0.930 . S
C2052 C2053 1.399 . S
C2052 C2057 1.399 . S
C2053 C2052 1.399 . S
C2053 C2054 1.376 . S
C2054 H2041 0.930 . S
C2054 C2053 1.376 . S
C2054 C2055 1.388 . S
C2055 H2042 0.930 . S
C2055 C2054 1.388 . S
C2055 C2056 1.390 . S
C2056 C2055 1.390 . S
C2056 C2057 1.394 . S
C2056 C2062 1.465 . S
C2057 C2052 1.399 . S
C2057 C2056 1.394 . S
C2057 C2058 1.516 . S
C2058 C2057 1.516 . S
C2058 C2059 1.502 . S
C2058 C2060 1.561 . S
C2058 C2061 1.526 . S
C2059 H2043 0.959 . S
C2059 H2044 0.959 . S
C2059 H2045 0.961 . S
C2059 C2058 1.502 . S
C2060 H2046 0.960 . S
C2060 H2047 0.961 . S
C2060 H2048 0.959 . S
C2060 C2058 1.561 . S
C2061 C2058 1.526 . S
C2061 C2062 1.396 . S
C2061 C2066 1.390 . S
C2062 C2056 1.465 . S
C2062 C2061 1.396 . S
C2062 C2063 1.399 . S
C2063 H2049 0.929 . S
C2063 C2062 1.399 . S
C2063 C2064 1.385 . S
C2064 H2050 0.931 . S
C2064 C2063 1.385 . S
C2064 C2065 1.389 . S
C2065 C2064 1.389 . S
C2065 C2066 1.387 . S
C2066 H2051 0.930 . S
C2066 C2061 1.390 . S
C2066 C2065 1.387 . S
H2067 C2079 0.930 . S
H2068 C2081 0.928 1_655 S
H2069 C2082 0.930 . S
H2070 C2086 0.959 . S
H2071 C2086 0.959 . S
H2072 C2086 0.961 1_655 S
H2073 C2087 0.960 . S
H2074 C2087 0.961 . S
H2075 C2087 0.959 . S
H2076 C2090 0.929 . S
H2077 C2091 0.931 . S
H2078 C2093 0.930 . S
C2079 H2067 0.930 . S
C2079 C2080 1.399 . S
C2079 C2084 1.399 1_655 S
C2080 C2079 1.399 . S
C2080 C2081 1.370 1_655 S
C2081 H2068 0.928 1_455 S
C2081 C2080 1.370 1_455 S
C2081 C2082 1.397 . S
C2082 H2069 0.930 . S
C2082 C2081 1.397 . S
C2082 C2083 1.390 . S
C2083 C2082 1.390 . S
C2083 C2084 1.394 . S
C2083 C2089 1.465 . S
C2084 C2079 1.399 1_455 S
C2084 C2083 1.394 . S
C2084 C2085 1.516 . S
C2085 C2084 1.516 . S
C2085 C2086 1.502 . S
C2085 C2087 1.561 . S
C2085 C2088 1.526 . S
C2086 H2070 0.959 . S
C2086 H2071 0.959 . S
C2086 H2072 0.961 1_455 S
C2086 C2085 1.502 . S
C2087 H2073 0.960 . S
C2087 H2074 0.961 . S
C2087 H2075 0.959 . S
C2087 C2085 1.561 . S
C2088 C2085 1.526 . S
C2088 C2089 1.396 . S
C2088 C2093 1.390 . S
C2089 C2083 1.465 . S
C2089 C2088 1.396 . S
C2089 C2090 1.399 . S
C2090 H2076 0.929 . S
C2090 C2089 1.399 . S
C2090 C2091 1.385 . S
C2091 H2077 0.931 . S
C2091 C2090 1.385 . S
C2091 C2092 1.389 . S
C2092 C2091 1.389 . S
C2092 C2093 1.387 . S
C2093 H2078 0.930 . S
C2093 C2088 1.390 . S
C2093 C2092 1.387 . S
H2094 C2106 0.930 . S
H2095 C2108 0.930 . S
H2096 C2109 0.930 . S
H2097 C2113 0.959 . S
H2098 C2113 0.959 . S
H2099 C2113 0.961 . S
H2100 C2114 0.960 . S
H2101 C2114 0.961 . S
H2102 C2114 0.959 . S
H2103 C2117 0.929 . S
H2104 C2118 0.931 . S
H2105 C2120 0.930 . S
C2106 H2094 0.930 . S
C2106 C2107 1.399 . S
C2106 C2111 1.399 . S
C2107 C2106 1.399 . S
C2107 C2108 1.376 . S
C2108 H2095 0.930 . S
C2108 C2107 1.376 . S
C2108 C2109 1.388 . S
C2109 H2096 0.930 . S
C2109 C2108 1.388 . S
C2109 C2110 1.390 . S
C2110 C2109 1.390 . S
C2110 C2111 1.394 . S
C2110 C2116 1.465 . S
C2111 C2106 1.399 . S
C2111 C2110 1.394 . S
C2111 C2112 1.516 . S
C2112 C2111 1.516 . S
C2112 C2113 1.502 . S
C2112 C2114 1.561 . S
C2112 C2115 1.526 . S
C2113 H2097 0.959 . S
C2113 H2098 0.959 . S
C2113 H2099 0.961 . S
C2113 C2112 1.502 . S
C2114 H2100 0.960 . S
C2114 H2101 0.961 . S
C2114 H2102 0.959 . S
C2114 C2112 1.561 . S
C2115 C2112 1.526 . S
C2115 C2116 1.396 . S
C2115 C2120 1.390 . S
C2116 C2110 1.465 . S
C2116 C2115 1.396 . S
C2116 C2117 1.399 . S
C2117 H2103 0.929 . S
C2117 C2116 1.399 . S
C2117 C2118 1.385 . S
C2118 H2104 0.931 . S
C2118 C2117 1.385 . S
C2118 C2119 1.389 . S
C2119 C2118 1.389 . S
C2119 C2120 1.387 . S
C2120 H2105 0.930 . S
C2120 C2115 1.390 . S
C2120 C2119 1.387 . S
H2121 C2133 0.930 . S
H2122 C2135 0.930 . S
H2123 C2136 0.930 . S
H2124 C2140 0.959 1_455 S
H2125 C2140 0.959 . S
H2126 C2140 0.961 . S
H2127 C2141 0.960 . S
H2128 C2141 0.961 . S
H2129 C2141 0.959 . S
H2130 C2144 0.929 . S
H2131 C2145 0.931 . S
H2132 C2147 0.930 . S
C2133 H2121 0.930 . S
C2133 C2134 1.399 . S
C2133 C2138 1.399 . S
C2134 C2133 1.399 . S
C2134 C2135 1.376 . S
C2135 H2122 0.930 . S
C2135 C2134 1.376 . S
C2135 C2136 1.388 . S
C2136 H2123 0.930 . S
C2136 C2135 1.388 . S
C2136 C2137 1.390 . S
C2137 C2136 1.390 . S
C2137 C2138 1.394 . S
C2137 C2143 1.465 . S
C2138 C2133 1.399 . S
C2138 C2137 1.394 . S
C2138 C2139 1.516 . S
C2139 C2138 1.516 . S
C2139 C2140 1.502 . S
C2139 C2141 1.561 . S
C2139 C2142 1.526 . S
C2140 H2124 0.959 1_655 S
C2140 H2125 0.959 . S
C2140 H2126 0.961 . S
C2140 C2139 1.502 . S
C2141 H2127 0.960 . S
C2141 H2128 0.961 . S
C2141 H2129 0.959 . S
C2141 C2139 1.561 . S
C2142 C2139 1.526 . S
C2142 C2143 1.396 . S
C2142 C2147 1.390 1_655 S
C2143 C2137 1.465 . S
C2143 C2142 1.396 . S
C2143 C2144 1.399 . S
C2144 H2130 0.929 . S
C2144 C2143 1.399 . S
C2144 C2145 1.385 1_655 S
C2145 H2131 0.931 . S
C2145 C2144 1.385 1_455 S
C2145 C2146 1.389 . S
C2146 C2145 1.389 . S
C2146 C2147 1.387 . S
C2147 H2132 0.930 . S
C2147 C2142 1.390 1_455 S
C2147 C2146 1.387 . S
H2148 C2160 0.930 . S
H2149 C2162 0.930 . S
H2150 C2163 0.930 . S
H2151 C2167 0.959 . S
H2152 C2167 0.959 . S
H2153 C2167 0.961 . S
H2154 C2168 0.960 . S
H2155 C2168 0.961 . S
H2156 C2168 0.959 . S
H2157 C2171 0.929 . S
H2158 C2172 0.931 . S
H2159 C2174 0.930 . S
C2160 H2148 0.930 . S
C2160 C2161 1.399 . S
C2160 C2165 1.399 . S
C2161 C2160 1.399 . S
C2161 C2162 1.376 . S
C2162 H2149 0.930 . S
C2162 C2161 1.376 . S
C2162 C2163 1.388 . S
C2163 H2150 0.930 . S
C2163 C2162 1.388 . S
C2163 C2164 1.390 . S
C2164 C2163 1.390 . S
C2164 C2165 1.394 . S
C2164 C2170 1.465 . S
C2165 C2160 1.399 . S
C2165 C2164 1.394 . S
C2165 C2166 1.516 . S
C2166 C2165 1.516 . S
C2166 C2167 1.502 . S
C2166 C2168 1.561 . S
C2166 C2169 1.526 . S
C2167 H2151 0.959 . S
C2167 H2152 0.959 . S
C2167 H2153 0.961 . S
C2167 C2166 1.502 . S
C2168 H2154 0.960 . S
C2168 H2155 0.961 . S
C2168 H2156 0.959 . S
C2168 C2166 1.561 . S
C2169 C2166 1.526 . S
C2169 C2170 1.396 . S
C2169 C2174 1.390 . S
C2170 C2164 1.465 . S
C2170 C2169 1.396 . S
C2170 C2171 1.399 . S
C2171 H2157 0.929 . S
C2171 C2170 1.399 . S
C2171 C2172 1.385 . S
C2172 H2158 0.931 . S
C2172 C2171 1.385 . S
C2172 C2173 1.389 . S
C2173 C2172 1.389 . S
C2173 C2174 1.387 . S
C2174 H2159 0.930 . S
C2174 C2169 1.390 . S
C2174 C2173 1.387 . S
H2175 C2187 0.930 . S
H2176 C2189 0.930 . S
H2177 C2190 0.930 . S
H2178 C2194 0.959 . S
H2179 C2194 0.959 . S
H2180 C2194 0.961 . S
H2181 C2195 0.965 . S
H2182 C2195 0.961 . S
H2183 C2195 0.959 1_455 S
H2184 C2198 0.929 . S
H2185 C2199 0.931 . S
H2186 C2201 0.930 . S
C2187 H2175 0.930 . S
C2187 C2188 1.399 . S
C2187 C2192 1.399 . S
C2188 C2187 1.399 . S
C2188 C2189 1.376 . S
C2189 H2176 0.930 . S
C2189 C2188 1.376 . S
C2189 C2190 1.388 . S
C2190 H2177 0.930 . S
C2190 C2189 1.388 . S
C2190 C2191 1.390 . S
C2191 C2190 1.390 . S
C2191 C2192 1.394 . S
C2191 C2197 1.465 . S
C2192 C2187 1.399 . S
C2192 C2191 1.394 . S
C2192 C2193 1.516 1_455 S
C2193 C2192 1.516 1_655 S
C2193 C2194 1.502 . S
C2193 C2195 1.561 . S
C2193 C2196 1.526 . S
C2194 H2178 0.959 . S
C2194 H2179 0.959 . S
C2194 H2180 0.961 . S
C2194 C2193 1.502 . S
C2195 H2181 0.965 . S
C2195 H2182 0.961 . S
C2195 H2183 0.959 1_655 S
C2195 C2193 1.561 . S
C2196 C2193 1.526 . S
C2196 C2197 1.396 1_655 S
C2196 C2201 1.390 . S
C2197 C2191 1.465 . S
C2197 C2196 1.396 1_455 S
C2197 C2198 1.399 . S
C2198 H2184 0.929 . S
C2198 C2197 1.399 . S
C2198 C2199 1.385 1_455 S
C2199 H2185 0.931 . S
C2199 C2198 1.385 1_655 S
C2199 C2200 1.389 . S
C2200 C2199 1.389 . S
C2200 C2201 1.387 . S
C2201 H2186 0.930 . S
C2201 C2196 1.390 . S
C2201 C2200 1.387 . S
H2202 C2214 0.930 . S
H2203 C2216 0.930 . S
H2204 C2217 0.930 . S
H2205 C2221 0.959 . S
H2206 C2221 0.959 . S
H2207 C2221 0.961 . S
H2208 C2222 0.960 . S
H2209 C2222 0.961 . S
H2210 C2222 0.959 . S
H2211 C2225 0.929 . S
H2212 C2226 0.931 . S
H2213 C2228 0.930 . S
C2214 H2202 0.930 . S
C2214 C2215 1.399 . S
C2214 C2219 1.399 . S
C2215 C2214 1.399 . S
C2215 C2216 1.376 . S
C2216 H2203 0.930 . S
C2216 C2215 1.376 . S
C2216 C2217 1.388 . S
C2217 H2204 0.930 . S
C2217 C2216 1.388 . S
C2217 C2218 1.390 . S
C2218 C2217 1.390 . S
C2218 C2219 1.394 . S
C2218 C2224 1.465 1_556 S
C2219 C2214 1.399 . S
C2219 C2218 1.394 . S
C2219 C2220 1.516 . S
C2220 C2219 1.516 . S
C2220 C2221 1.502 . S
C2220 C2222 1.561 1_556 S
C2220 C2223 1.526 1_556 S
C2221 H2205 0.959 . S
C2221 H2206 0.959 . S
C2221 H2207 0.961 . S
C2221 C2220 1.502 . S
C2222 H2208 0.960 . S
C2222 H2209 0.961 . S
C2222 H2210 0.959 . S
C2222 C2220 1.561 1_554 S
C2223 C2220 1.526 1_554 S
C2223 C2224 1.396 . S
C2223 C2228 1.390 . S
C2224 C2218 1.465 1_554 S
C2224 C2223 1.396 . S
C2224 C2225 1.399 . S
C2225 H2211 0.929 . S
C2225 C2224 1.399 . S
C2225 C2226 1.385 . S
C2226 H2212 0.931 . S
C2226 C2225 1.385 . S
C2226 C2227 1.389 . S
C2227 C2226 1.389 . S
C2227 C2228 1.387 . S
C2228 H2213 0.930 . S
C2228 C2223 1.390 . S
C2228 C2227 1.387 . S
H2229 C2241 0.930 . S
H2230 C2243 0.930 . S
H2231 C2244 0.930 . S
H2232 C2248 0.959 . S
H2233 C2248 0.959 . S
H2234 C2248 0.961 . S
H2235 C2249 0.960 . S
H2236 C2249 0.961 . S
H2237 C2249 0.959 . S
H2238 C2252 0.929 . S
H2239 C2253 0.931 . S
H2240 C2255 0.930 . S
C2241 H2229 0.930 . S
C2241 C2242 1.399 . S
C2241 C2246 1.399 . S
C2242 C2241 1.399 . S
C2242 C2243 1.376 . S
C2243 H2230 0.930 . S
C2243 C2242 1.376 . S
C2243 C2244 1.388 . S
C2244 H2231 0.930 . S
C2244 C2243 1.388 . S
C2244 C2245 1.390 . S
C2245 C2244 1.390 . S
C2245 C2246 1.394 . S
C2245 C2251 1.465 . S
C2246 C2241 1.399 . S
C2246 C2245 1.394 . S
C2246 C2247 1.516 . S
C2247 C2246 1.516 . S
C2247 C2248 1.502 . S
C2247 C2249 1.561 . S
C2247 C2250 1.526 . S
C2248 H2232 0.959 . S
C2248 H2233 0.959 . S
C2248 H2234 0.961 . S
C2248 C2247 1.502 . S
C2249 H2235 0.960 . S
C2249 H2236 0.961 . S
C2249 H2237 0.959 . S
C2249 C2247 1.561 . S
C2250 C2247 1.526 . S
C2250 C2251 1.396 . S
C2250 C2255 1.390 . S
C2251 C2245 1.465 . S
C2251 C2250 1.396 . S
C2251 C2252 1.399 . S
C2252 H2238 0.929 . S
C2252 C2251 1.399 . S
C2252 C2253 1.385 . S
C2253 H2239 0.931 . S
C2253 C2252 1.385 . S
C2253 C2254 1.389 . S
C2254 C2253 1.389 . S
C2254 C2255 1.387 . S
C2255 H2240 0.930 . S
C2255 C2250 1.390 . S
C2255 C2254 1.387 . S
H2256 C2268 0.930 . S
H2257 C2270 0.930 . S
H2258 C2271 0.930 . S
H2259 C2275 0.959 . S
H2260 C2275 0.959 . S
H2261 C2275 0.961 . S
H2262 C2276 0.960 . S
H2263 C2276 0.961 . S
H2264 C2276 0.959 . S
H2265 C2279 0.929 . S
H2266 C2280 0.931 . S
H2267 C2282 0.930 . S
C2268 H2256 0.930 . S
C2268 C2269 1.399 . S
C2268 C2273 1.399 . S
C2269 C2268 1.399 . S
C2269 C2270 1.376 . S
C2270 H2257 0.930 . S
C2270 C2269 1.376 . S
C2270 C2271 1.388 . S
C2271 H2258 0.930 . S
C2271 C2270 1.388 . S
C2271 C2272 1.390 . S
C2272 C2271 1.390 . S
C2272 C2273 1.394 . S
C2272 C2278 1.465 . S
C2273 C2268 1.399 . S
C2273 C2272 1.394 . S
C2273 C2274 1.516 . S
C2274 C2273 1.516 . S
C2274 C2275 1.502 . S
C2274 C2276 1.561 . S
C2274 C2277 1.526 . S
C2275 H2259 0.959 . S
C2275 H2260 0.959 . S
C2275 H2261 0.961 . S
C2275 C2274 1.502 . S
C2276 H2262 0.960 . S
C2276 H2263 0.961 . S
C2276 H2264 0.959 . S
C2276 C2274 1.561 . S
C2277 C2274 1.526 . S
C2277 C2278 1.396 . S
C2277 C2282 1.390 . S
C2278 C2272 1.465 . S
C2278 C2277 1.396 . S
C2278 C2279 1.399 . S
C2279 H2265 0.929 . S
C2279 C2278 1.399 . S
C2279 C2280 1.385 . S
C2280 H2266 0.931 . S
C2280 C2279 1.385 . S
C2280 C2281 1.389 . S
C2281 C2280 1.389 . S
C2281 C2282 1.387 . S
C2282 H2267 0.930 . S
C2282 C2277 1.390 . S
C2282 C2281 1.387 . S
H2283 C2295 0.930 . S
H2284 C2297 0.930 . S
H2285 C2298 0.930 . S
H2286 C2302 0.959 . S
H2287 C2302 0.959 . S
H2288 C2302 0.961 . S
H2289 C2303 0.960 . S
H2290 C2303 0.961 1_455 S
H2291 C2303 0.959 . S
H2292 C2306 0.929 . S
H2293 C2307 0.931 . S
H2294 C2309 0.930 . S
C2295 H2283 0.930 . S
C2295 C2296 1.399 . S
C2295 C2300 1.399 . S
C2296 C2295 1.399 . S
C2296 C2297 1.376 . S
C2297 H2284 0.930 . S
C2297 C2296 1.376 . S
C2297 C2298 1.388 . S
C2298 H2285 0.930 . S
C2298 C2297 1.388 . S
C2298 C2299 1.390 . S
C2299 C2298 1.390 . S
C2299 C2300 1.394 . S
C2299 C2305 1.465 . S
C2300 C2295 1.399 . S
C2300 C2299 1.394 . S
C2300 C2301 1.516 1_655 S
C2301 C2300 1.516 1_455 S
C2301 C2302 1.502 . S
C2301 C2303 1.561 1_455 S
C2301 C2304 1.526 . S
C2302 H2286 0.959 . S
C2302 H2287 0.959 . S
C2302 H2288 0.961 . S
C2302 C2301 1.502 . S
C2303 H2289 0.960 . S
C2303 H2290 0.961 1_655 S
C2303 H2291 0.959 . S
C2303 C2301 1.561 1_655 S
C2304 C2301 1.526 . S
C2304 C2305 1.396 1_455 S
C2304 C2309 1.390 . S
C2305 C2299 1.465 . S
C2305 C2304 1.396 1_655 S
C2305 C2306 1.399 . S
C2306 H2292 0.929 . S
C2306 C2305 1.399 . S
C2306 C2307 1.385 1_655 S
C2307 H2293 0.931 . S
C2307 C2306 1.385 1_455 S
C2307 C2308 1.389 . S
C2308 C2307 1.389 . S
C2308 C2309 1.387 . S
C2309 H2294 0.930 . S
C2309 C2304 1.390 . S
C2309 C2308 1.387 . S
H2310 C2322 0.930 . S
H2311 C2324 0.930 . S
H2312 C2325 0.930 . S
H2313 C2329 0.933 1_556 S
H2314 C2329 0.959 . S
H2315 C2329 0.961 . S
H2316 C2330 0.960 . S
H2317 C2330 0.961 . S
H2318 C2330 0.959 . S
H2319 C2333 0.929 . S
H2320 C2334 0.931 . S
H2321 C2336 0.930 . S
C2322 H2310 0.930 . S
C2322 C2323 1.399 . S
C2322 C2327 1.399 . S
C2323 C2322 1.399 . S
C2323 C2324 1.376 . S
C2324 H2311 0.930 . S
C2324 C2323 1.376 . S
C2324 C2325 1.388 . S
C2325 H2312 0.930 . S
C2325 C2324 1.388 . S
C2325 C2326 1.390 . S
C2326 C2325 1.390 . S
C2326 C2327 1.394 . S
C2326 C2332 1.465 1_554 S
C2327 C2322 1.399 . S
C2327 C2326 1.394 . S
C2327 C2328 1.516 . S
C2328 C2327 1.516 . S
C2328 C2329 1.502 . S
C2328 C2330 1.561 . S
C2328 C2331 1.494 1_554 S
C2329 H2313 0.933 1_554 S
C2329 H2314 0.959 . S
C2329 H2315 0.961 . S
C2329 C2328 1.502 . S
C2330 H2316 0.960 . S
C2330 H2317 0.961 . S
C2330 H2318 0.959 . S
C2330 C2328 1.561 . S
C2331 C2328 1.494 1_556 S
C2331 C2332 1.405 . S
C2331 C2336 1.413 . S
C2332 C2326 1.465 1_556 S
C2332 C2331 1.405 . S
C2332 C2333 1.399 . S
C2333 H2319 0.929 . S
C2333 C2332 1.399 . S
C2333 C2334 1.385 . S
C2334 H2320 0.931 . S
C2334 C2333 1.385 . S
C2334 C2335 1.389 . S
C2335 C2334 1.389 . S
C2335 C2336 1.387 . S
C2336 H2321 0.930 . S
C2336 C2331 1.413 . S
C2336 C2335 1.387 . S
H2337 C2349 0.930 . S
H2338 C2351 0.930 . S
H2339 C2352 0.930 . S
H2340 C2356 0.959 . S
H2341 C2356 0.959 . S
H2342 C2356 0.961 . S
H2343 C2357 0.960 . S
H2344 C2357 0.961 . S
H2345 C2357 0.959 . S
H2346 C2360 0.929 . S
H2347 C2361 0.931 . S
H2348 C2363 0.930 . S
C2349 H2337 0.930 . S
C2349 C2350 1.399 . S
C2349 C2354 1.399 . S
C2350 C2349 1.399 . S
C2350 C2351 1.376 . S
C2351 H2338 0.930 . S
C2351 C2350 1.376 . S
C2351 C2352 1.388 . S
C2352 H2339 0.930 . S
C2352 C2351 1.388 . S
C2352 C2353 1.390 . S
C2353 C2352 1.390 . S
C2353 C2354 1.394 . S
C2353 C2359 1.465 . S
C2354 C2349 1.399 . S
C2354 C2353 1.394 . S
C2354 C2355 1.516 . S
C2355 C2354 1.516 . S
C2355 C2356 1.502 . S
C2355 C2357 1.561 . S
C2355 C2358 1.526 . S
C2356 H2340 0.959 . S
C2356 H2341 0.959 . S
C2356 H2342 0.961 . S
C2356 C2355 1.502 . S
C2357 H2343 0.960 . S
C2357 H2344 0.961 . S
C2357 H2345 0.959 . S
C2357 C2355 1.561 . S
C2358 C2355 1.526 . S
C2358 C2359 1.396 . S
C2358 C2363 1.390 . S
C2359 C2353 1.465 . S
C2359 C2358 1.396 . S
C2359 C2360 1.399 . S
C2360 H2346 0.929 . S
C2360 C2359 1.399 . S
C2360 C2361 1.385 . S
C2361 H2347 0.931 . S
C2361 C2360 1.385 . S
C2361 C2362 1.389 . S
C2362 C2361 1.389 . S
C2362 C2363 1.387 . S
C2363 H2348 0.930 . S
C2363 C2358 1.390 . S
C2363 C2362 1.387 . S
H2364 C2376 0.930 . S
H2365 C2378 0.930 . S
H2366 C2379 0.930 . S
H2367 C2383 0.959 . S
H2368 C2383 0.959 . S
H2369 C2383 0.961 . S
H2370 C2384 0.960 . S
H2371 C2384 0.961 . S
H2372 C2384 0.959 . S
H2373 C2387 0.929 . S
H2374 C2388 0.931 . S
H2375 C2390 0.930 . S
C2376 H2364 0.930 . S
C2376 C2377 1.399 . S
C2376 C2381 1.399 . S
C2377 C2376 1.399 . S
C2377 C2378 1.376 . S
C2378 H2365 0.930 . S
C2378 C2377 1.376 . S
C2378 C2379 1.388 . S
C2379 H2366 0.930 . S
C2379 C2378 1.388 . S
C2379 C2380 1.390 . S
C2380 C2379 1.390 . S
C2380 C2381 1.394 . S
C2380 C2386 1.465 . S
C2381 C2376 1.399 . S
C2381 C2380 1.394 . S
C2381 C2382 1.516 . S
C2382 C2381 1.516 . S
C2382 C2383 1.502 . S
C2382 C2384 1.561 . S
C2382 C2385 1.526 . S
C2383 H2367 0.959 . S
C2383 H2368 0.959 . S
C2383 H2369 0.961 . S
C2383 C2382 1.502 . S
C2384 H2370 0.960 . S
C2384 H2371 0.961 . S
C2384 H2372 0.959 . S
C2384 C2382 1.561 . S
C2385 C2382 1.526 . S
C2385 C2386 1.396 . S
C2385 C2390 1.390 . S
C2386 C2380 1.465 . S
C2386 C2385 1.396 . S
C2386 C2387 1.399 . S
C2387 H2373 0.929 . S
C2387 C2386 1.399 . S
C2387 C2388 1.385 . S
C2388 H2374 0.931 . S
C2388 C2387 1.385 . S
C2388 C2389 1.389 . S
C2389 C2388 1.389 . S
C2389 C2390 1.387 . S
C2390 H2375 0.930 . S
C2390 C2385 1.390 . S
C2390 C2389 1.387 . S
H2391 C2403 0.930 . S
H2392 C2405 0.930 . S
H2393 C2406 0.930 . S
H2394 C2410 0.959 1_565 S
H2395 C2410 0.959 . S
H2396 C2410 0.961 . S
H2397 C2411 0.960 . S
H2398 C2411 0.961 . S
H2399 C2411 0.959 . S
H2400 C2414 0.929 . S
H2401 C2415 0.931 . S
H2402 C2417 0.930 . S
C2403 H2391 0.930 . S
C2403 C2404 1.399 . S
C2403 C2408 1.399 . S
C2404 C2403 1.399 . S
C2404 C2405 1.376 . S
C2405 H2392 0.930 . S
C2405 C2404 1.376 . S
C2405 C2406 1.388 . S
C2406 H2393 0.930 . S
C2406 C2405 1.388 . S
C2406 C2407 1.390 . S
C2407 C2406 1.390 . S
C2407 C2408 1.394 . S
C2407 C2413 1.465 1_545 S
C2408 C2403 1.399 . S
C2408 C2407 1.394 . S
C2408 C2409 1.516 . S
C2409 C2408 1.516 . S
C2409 C2410 1.502 . S
C2409 C2411 1.561 . S
C2409 C2412 1.526 1_545 S
C2410 H2394 0.959 1_545 S
C2410 H2395 0.959 . S
C2410 H2396 0.961 . S
C2410 C2409 1.502 . S
C2411 H2397 0.960 . S
C2411 H2398 0.961 . S
C2411 H2399 0.959 . S
C2411 C2409 1.561 . S
C2412 C2409 1.526 1_565 S
C2412 C2413 1.396 . S
C2412 C2417 1.390 . S
C2413 C2407 1.465 1_565 S
C2413 C2412 1.396 . S
C2413 C2414 1.399 . S
C2414 H2400 0.929 . S
C2414 C2413 1.399 . S
C2414 C2415 1.385 . S
C2415 H2401 0.931 . S
C2415 C2414 1.385 . S
C2415 C2416 1.389 . S
C2416 C2415 1.389 . S
C2416 C2417 1.387 . S
C2417 H2402 0.930 . S
C2417 C2412 1.390 . S
C2417 C2416 1.387 . S
H2418 C2430 0.930 . S
H2419 C2432 0.930 . S
H2420 C2433 0.930 . S
H2421 C2437 0.959 . S
H2422 C2437 0.959 . S
H2423 C2437 0.961 . S
H2424 C2438 0.960 . S
H2425 C2438 0.961 . S
H2426 C2438 0.959 1_565 S
H2427 C2441 0.929 . S
H2428 C2442 0.931 . S
H2429 C2444 0.930 . S
C2430 H2418 0.930 . S
C2430 C2431 1.399 . S
C2430 C2435 1.399 . S
C2431 C2430 1.399 . S
C2431 C2432 1.376 . S
C2432 H2419 0.930 . S
C2432 C2431 1.376 . S
C2432 C2433 1.388 1_545 S
C2433 H2420 0.930 . S
C2433 C2432 1.388 1_565 S
C2433 C2434 1.390 . S
C2434 C2433 1.390 . S
C2434 C2435 1.394 1_565 S
C2434 C2440 1.465 . S
C2435 C2430 1.399 . S
C2435 C2434 1.394 1_545 S
C2435 C2436 1.516 . S
C2436 C2435 1.516 . S
C2436 C2437 1.502 . S
C2436 C2438 1.561 . S
C2436 C2439 1.526 1_545 S
C2437 H2421 0.959 . S
C2437 H2422 0.959 . S
C2437 H2423 0.961 . S
C2437 C2436 1.502 . S
C2438 H2424 0.960 . S
C2438 H2425 0.961 . S
C2438 H2426 0.959 1_545 S
C2438 C2436 1.561 . S
C2439 C2436 1.526 1_565 S
C2439 C2440 1.396 . S
C2439 C2444 1.390 . S
C2440 C2434 1.465 . S
C2440 C2439 1.396 . S
C2440 C2441 1.399 . S
C2441 H2427 0.929 . S
C2441 C2440 1.399 . S
C2441 C2442 1.385 . S
C2442 H2428 0.931 . S
C2442 C2441 1.385 . S
C2442 C2443 1.389 . S
C2443 C2442 1.389 . S
C2443 C2444 1.387 . S
C2444 H2429 0.930 . S
C2444 C2439 1.390 . S
C2444 C2443 1.387 . S
H2445 C2457 0.930 . S
H2446 C2459 0.930 . S
H2447 C2460 0.930 . S
H2448 C2464 0.959 . S
H2449 C2464 0.959 . S
H2450 C2464 0.961 . S
H2451 C2465 0.960 . S
H2452 C2465 0.961 . S
H2453 C2465 0.959 . S
H2454 C2468 0.929 . S
H2455 C2469 0.931 . S
H2456 C2471 0.930 . S
C2457 H2445 0.930 . S
C2457 C2458 1.399 . S
C2457 C2462 1.399 . S
C2458 C2457 1.399 . S
C2458 C2459 1.376 . S
C2459 H2446 0.930 . S
C2459 C2458 1.376 . S
C2459 C2460 1.388 . S
C2460 H2447 0.930 . S
C2460 C2459 1.388 . S
C2460 C2461 1.390 . S
C2461 C2460 1.390 . S
C2461 C2462 1.394 . S
C2461 C2467 1.465 . S
C2462 C2457 1.399 . S
C2462 C2461 1.394 . S
C2462 C2463 1.516 . S
C2463 C2462 1.516 . S
C2463 C2464 1.502 . S
C2463 C2465 1.561 . S
C2463 C2466 1.526 . S
C2464 H2448 0.959 . S
C2464 H2449 0.959 . S
C2464 H2450 0.961 . S
C2464 C2463 1.502 . S
C2465 H2451 0.960 . S
C2465 H2452 0.961 . S
C2465 H2453 0.959 . S
C2465 C2463 1.561 . S
C2466 C2463 1.526 . S
C2466 C2467 1.396 . S
C2466 C2471 1.390 . S
C2467 C2461 1.465 . S
C2467 C2466 1.396 . S
C2467 C2468 1.399 . S
C2468 H2454 0.929 . S
C2468 C2467 1.399 . S
C2468 C2469 1.385 . S
C2469 H2455 0.931 . S
C2469 C2468 1.385 . S
C2469 C2470 1.389 . S
C2470 C2469 1.389 . S
C2470 C2471 1.387 . S
C2471 H2456 0.930 . S
C2471 C2466 1.390 . S
C2471 C2470 1.387 . S
C541 C4 1.040 . S
C553 C338 0.969 . S
C568 C268 0.962 . S
C580 C26 1.090 . S
C595 C294 1.040 . S
C607 C48 1.082 . S
C622 C70 0.993 . S
C634 C316 1.005 . S
C649 C96 1.044 . S
C661 C202 0.967 . S
C676 C118 1.011 . S
C688 C224 0.988 . S
C703 C140 1.023 . S
C715 C246 1.092 . S
C730 C162 1.054 . S
C742 C184 1.072 . S
C757 C356 1.074 . S
C769 C448 0.959 . S
C784 C382 0.994 . S
C796 C510 1.004 . S
C811 C400 0.963 . S
C823 C470 1.091 . S
C838 C422 0.997 . S
C850 C488 1.001 . S
C865 C466 1.101 . S
C877 C9 1.110 . S
C892 C31 1.008 . S
C904 C492 1.062 . S
C919 C53 1.020 . S
C931 C360 1.033 1_556 S
C946 C75 1.010 . S
C958 C514 1.076 . S
C973 C426 1.111 . S
C985 C93 1.100 . S
C1000 C444 1.021 . S
C1012 C115 1.081 . S
C1027 C137 1.045 . S
C1039 C378 1.113 . S
C1054 C159 1.053 . S
C1066 C404 1.017 . S
C1081 C181 1.118 . S
C1093 C92 1.081 . S
C1108 C207 1.046 . S
C1120 C114 1.114 . S
C1135 C229 1.012 . S
C1147 C136 1.045 1_455 S
C1162 C251 1.045 . S
C1174 C158 1.019 . S
C1189 C8 1.034 1_655 S
C1201 C273 1.100 . S
C1216 C291 1.029 . S
C1228 C30 1.104 . S
C1243 C313 1.019 . S
C1255 C52 1.034 . S
C1270 C335 1.112 . S
C1282 C74 1.051 . S
C1297 C312 1.114 . S
C1309 C361 1.045 . S
C1324 C228 1.107 . S
C1336 C379 1.034 . S
C1351 C405 1.034 . S
C1363 C250 1.107 . S
C1378 C180 1.033 1_565 S
C1390 C427 1.021 . S
C1405 C445 1.067 . S
C1417 C206 1.018 . S
C1432 C272 1.022 . S
C1444 C467 1.083 . S
C1459 C290 1.114 . S
C1471 C493 1.096 . S
C1486 C334 1.030 . S
C1498 C515 1.096 . S
C1513 C401 1.529 . S
C1525 C6 1.467 . S
C1540 C28 1.484 . S
C1552 C423 1.520 . S
C1567 C449 1.520 . S
C1579 C50 1.468 . S
C1594 C72 1.484 . S
C1606 C383 1.520 . S
C1621 C489 1.597 . S
C1633 C95 1.569 . S
C1648 C357 1.518 . S
C1660 C117 1.476 . S
C1675 C511 1.525 . S
C1687 C139 1.467 . S
C1702 C471 1.525 . S
C1714 C161 1.499 . S
C1729 C203 1.538 . S
C1741 C183 1.472 . S
C1756 C225 1.601 . S
C1768 C204 1.566 . S
C1783 C226 1.535 . S
C1795 C247 1.594 . S
C1810 C248 1.500 . S
C1822 C185 1.571 . S
C1837 C339 1.543 . S
C1849 C270 1.474 . S
C1864 C269 1.583 . S
C1876 C293 1.564 . S
C1891 C315 1.488 . S
C1903 C295 1.522 . S
C1918 C337 1.478 . S
C1930 C317 1.550 . S
C1945 C71 1.586 . S
C1957 C358 1.520 . S
C1972 C119 1.528 . S
C1984 C381 1.505 . S
C1999 C141 1.599 . S
C2011 C402 1.543 . S
C2026 C163 1.582 . S
C2038 C424 1.515 . S
C2053 C97 1.523 . S
C2065 C447 1.494 . S
C2080 C27 1.532 . S
C2092 C469 1.512 . S
C2107 C49 1.526 . S
C2119 C490 1.501 . S
C2134 C512 1.486 . S
C2146 C5 1.521 . S
C2161 C7 1.516 . S
C2173 C205 1.519 . S
C2188 C227 1.500 . S
C2200 C29 1.498 . S
C2215 C51 1.507 . S
C2227 C249 1.510 . S
C2242 C73 1.498 . S
C2254 C182 1.496 . S
C2269 C94 1.510 . S
C2281 C336 1.507 . S
C2296 C271 1.504 . S
C2308 C116 1.502 . S
C2323 C138 1.525 . S
C2335 C292 1.523 . S
C2350 C160 1.517 . S
C2362 C314 1.519 . S
C2377 C359 1.530 . S
C2389 C403 1.530 . S
C2404 C380 1.524 . S
C2416 C491 1.522 . S
C2431 C513 1.491 . S
C2443 C425 1.492 . S
C2458 C446 1.517 . S
C2470 C468 1.515 . S
