# Generated by pormake.
# Topology smm, (6)-cn, num edge types: 1
# Building blocks:
#     Node 0, Type 0, BuildingBlock: MIFKUJ_clean_sbu_0, # of connection points: 6
#     Node 1, Type 0, BuildingBlock: MIFKUJ_clean_sbu_0, # of connection points: 6
#     Node 2, Type 0, BuildingBlock: MIFKUJ_clean_sbu_0, # of connection points: 6
#     Node 3, Type 0, BuildingBlock: MIFKUJ_clean_sbu_0, # of connection points: 6
#     Node 4, Type 0, BuildingBlock: MIFKUJ_clean_sbu_0, # of connection points: 6
#     Node 5, Type 0, BuildingBlock: MIFKUJ_clean_sbu_0, # of connection points: 6
#     Node 6, Type 0, BuildingBlock: MIFKUJ_clean_sbu_0, # of connection points: 6
#     Node 7, Type 0, BuildingBlock: MIFKUJ_clean_sbu_0, # of connection points: 6
#     Node 8, Type 0, BuildingBlock: MIFKUJ_clean_sbu_0, # of connection points: 6
#     Edge 9, Type (0, 0), BuildingBlock: TEMPAE_clean_linker_10, # of connection points: 2
#     Edge 10, Type (0, 0), BuildingBlock: TEMPAE_clean_linker_10, # of connection points: 2
#     Edge 11, Type (0, 0), BuildingBlock: TEMPAE_clean_linker_10, # of connection points: 2
#     Edge 12, Type (0, 0), BuildingBlock: TEMPAE_clean_linker_10, # of connection points: 2
#     Edge 13, Type (0, 0), BuildingBlock: TEMPAE_clean_linker_10, # of connection points: 2
#     Edge 14, Type (0, 0), BuildingBlock: TEMPAE_clean_linker_10, # of connection points: 2
#     Edge 15, Type (0, 0), BuildingBlock: TEMPAE_clean_linker_10, # of connection points: 2
#     Edge 16, Type (0, 0), BuildingBlock: TEMPAE_clean_linker_10, # of connection points: 2
#     Edge 17, Type (0, 0), BuildingBlock: TEMPAE_clean_linker_10, # of connection points: 2
#     Edge 18, Type (0, 0), BuildingBlock: TEMPAE_clean_linker_10, # of connection points: 2
#     Edge 19, Type (0, 0), BuildingBlock: TEMPAE_clean_linker_10, # of connection points: 2
#     Edge 20, Type (0, 0), BuildingBlock: TEMPAE_clean_linker_10, # of connection points: 2
#     Edge 21, Type (0, 0), BuildingBlock: TEMPAE_clean_linker_10, # of connection points: 2
#     Edge 22, Type (0, 0), BuildingBlock: TEMPAE_clean_linker_10, # of connection points: 2
#     Edge 23, Type (0, 0), BuildingBlock: TEMPAE_clean_linker_10, # of connection points: 2
#     Edge 24, Type (0, 0), BuildingBlock: TEMPAE_clean_linker_10, # of connection points: 2
#     Edge 25, Type (0, 0), BuildingBlock: TEMPAE_clean_linker_10, # of connection points: 2
#     Edge 26, Type (0, 0), BuildingBlock: TEMPAE_clean_linker_10, # of connection points: 2
#     Edge 27, Type (0, 0), BuildingBlock: TEMPAE_clean_linker_10, # of connection points: 2
#     Edge 28, Type (0, 0), BuildingBlock: TEMPAE_clean_linker_10, # of connection points: 2
#     Edge 29, Type (0, 0), BuildingBlock: TEMPAE_clean_linker_10, # of connection points: 2
#     Edge 30, Type (0, 0), BuildingBlock: TEMPAE_clean_linker_10, # of connection points: 2
#     Edge 31, Type (0, 0), BuildingBlock: TEMPAE_clean_linker_10, # of connection points: 2
#     Edge 32, Type (0, 0), BuildingBlock: TEMPAE_clean_linker_10, # of connection points: 2
#     Edge 33, Type (0, 0), BuildingBlock: TEMPAE_clean_linker_10, # of connection points: 2
#     Edge 34, Type (0, 0), BuildingBlock: TEMPAE_clean_linker_10, # of connection points: 2
#     Edge 35, Type (0, 0), BuildingBlock: TEMPAE_clean_linker_10, # of connection points: 2
# Relax obj value: 0.037
# Max RMSD: 0.128
# Mean RMSD: 0.112
data_MOF--net-smm--node1-MIFKUJ_clean_sbu_0--edge1-TEMPAE_clean_linker_10
_symmetry_space_group_name_H-M    P1
_symmetry_Int_Tables_number       1
_symmetry_cell_setting            triclinic
loop_
_symmetry_equiv_pos_as_xyz
'x, y, z'
_cell_length_a     61.259179
_cell_length_b     62.71272
_cell_length_c     13.656891
_cell_angle_alpha  92.142441
_cell_angle_beta   92.335206
_cell_angle_gamma 119.96098
loop_
_atom_site_label
_atom_site_type_symbol
_atom_site_fract_x
_atom_site_fract_y
_atom_site_fract_z
_atom_type_partial_charge
Zn0 Zn 0.99891 0.14133 0.0642 0.0
Zn1 Zn 0.01544 0.21323 0.03189 0.0
C2 C 0.02803 0.11947 0.07053 0.0
O3 O 0.01209 0.10849 -0.00662 0.0
C4 C 0.97364 0.21366 0.12374 0.0
O5 O 0.98505 0.21144 0.20288 0.0
O6 O 0.96565 0.1098 0.06084 0.0
O7 O 0.99993 0.17129 0.11497 0.0
O8 O 0.02716 0.20876 0.16539 0.0
C9 C 0.96133 0.09372 0.12265 0.0
O10 O 0.97701 0.09956 0.20058 0.0
O11 O 0.02645 0.13598 0.12145 0.0
C12 C 0.03607 0.26074 0.94983 0.0
O13 O 0.01225 0.2528 0.92328 0.0
O14 O 0.04186 0.24679 -0.00442 0.0
O15 O 0.01405 0.1877 0.92745 0.0
O16 O 0.00644 0.14888 0.92524 0.0
O17 O 0.9823 0.21344 0.04065 0.0
C18 C 0.01671 0.18603 0.17903 0.0
C19 C 0.01192 0.16844 0.88201 0.0
Zn20 Zn 0.86729 0.86899 0.03066 0.0
Zn21 Zn 0.81254 0.79702 0.07461 0.0
C22 C 0.91862 0.89262 0.07467 0.0
O23 O 0.91058 0.90382 0.13395 0.0
C24 C 0.76589 0.77405 0.96868 0.0
O25 O 0.77578 0.76059 0.94114 0.0
O26 O 0.86753 0.89966 0.98957 0.0
O27 O 0.83983 0.8373 0.95326 0.0
O28 O 0.8297 0.79845 0.95198 0.0
C29 C 0.88451 0.91434 0.93621 0.0
O30 O 0.89886 0.90724 0.89338 0.0
O31 O 0.90247 0.87461 0.0175 0.0
C32 C 0.78924 0.75908 0.20777 0.0
O33 O 0.77393 0.76805 0.21106 0.0
O34 O 0.80834 0.76929 0.15664 0.0
O35 O 0.83504 0.83001 0.13641 0.0
O36 O 0.86244 0.86791 0.17802 0.0
O37 O 0.77851 0.79225 0.03088 0.0
C38 C 0.84166 0.81937 0.91548 0.0
C39 C 0.84716 0.84661 0.20363 0.0
Zn40 Zn 0.15461 0.02341 0.02706 0.0
Zn41 Zn 0.19626 0.99343 0.97078 0.0
C42 C 0.10314 0.9944 -0.00058 0.0
O43 O 0.10867 0.01266 0.94268 0.0
C44 C 0.24177 0.02895 0.08386 0.0
O45 O 0.23049 0.01427 0.15392 0.0
O46 O 0.15487 0.05388 0.07939 0.0
O47 O 0.18208 0.01854 0.07654 0.0
O48 O 0.17971 0.9833 0.09693 0.0
C49 C 0.14331 0.05209 0.15667 0.0
O50 O 0.13618 0.03248 0.20702 0.0
O51 O 0.12088 0.99454 0.05147 0.0
C52 C 0.21018 0.9689 0.82811 0.0
O53 O 0.21298 0.98738 0.77727 0.0
O54 O 0.20217 0.96707 0.9135 0.0
O55 O 0.17531 0.00061 0.8727 0.0
O56 O 0.15454 0.02123 0.8815 0.0
O57 O 0.23063 0.02394 -0.00153 0.0
C58 C 0.1747 -0.00032 0.12527 0.0
C59 C 0.16174 0.00848 0.8325 0.0
Zn60 Zn 0.6942 0.48668 0.22575 0.0
Zn61 Zn 0.67146 0.53655 0.30579 0.0
C62 C 0.66254 0.43618 0.22867 0.0
O63 O 0.68032 0.44042 0.29657 0.0
C64 C 0.71933 0.57994 0.27751 0.0
O65 O 0.71682 0.56779 0.19358 0.0
O66 O 0.72651 0.48695 0.19655 0.0
O67 O 0.68759 0.51338 0.19047 0.0
O68 O 0.66682 0.53181 0.15689 0.0
C69 C 0.72691 0.47208 0.13156 0.0
O70 O 0.707 0.45892 0.0707 0.0
O71 O 0.66419 0.45409 0.18288 0.0
C72 C 0.64611 0.55298 0.43369 0.0
O73 O 0.66696 0.56069 0.48976 0.0
O74 O 0.64322 0.54095 0.35259 0.0
O75 O 0.66849 0.50466 0.35582 0.0
O76 O 0.6949 0.49083 0.37274 0.0
O77 O 0.70392 0.56901 0.34268 0.0
C78 C 0.6755 0.51833 0.12674 0.0
C79 C 0.68394 0.50161 0.41003 0.0
Zn80 Zn 0.53245 0.21494 0.20043 0.0
Zn81 Zn 0.4783 0.14327 0.25061 0.0
C82 C 0.57589 0.2083 0.20777 0.0
O83 O 0.56621 0.19741 0.28805 0.0
C84 C 0.42796 0.11763 0.19323 0.0
O85 O 0.43695 0.10392 0.15875 0.0
O86 O 0.53306 0.24606 0.16542 0.0
O87 O 0.50139 0.18381 0.15652 0.0
O88 O 0.48915 0.14586 0.11169 0.0
C89 C 0.54623 0.25792 0.09606 0.0
O90 O 0.55627 0.24783 0.04143 0.0
O91 O 0.56393 0.21592 0.15507 0.0
C92 C 0.46509 0.10531 0.38447 0.0
O93 O 0.45693 0.1183 0.43191 0.0
O94 O 0.47627 0.11316 0.30623 0.0
O95 O 0.50333 0.17439 0.33475 0.0
O96 O 0.53338 0.21362 0.34757 0.0
O97 O 0.44305 0.13794 0.24098 0.0
C98 C 0.50066 0.16834 0.0927 0.0
C99 C 0.51889 0.19372 0.38746 0.0
Zn100 Zn 0.80941 0.3278 0.24591 0.0
Zn101 Zn 0.88492 0.35046 0.31655 0.0
C102 C 0.81745 0.3778 0.2225 0.0
O103 O 0.83853 0.38606 0.27763 0.0
C104 C 0.87569 0.29917 0.25821 0.0
O105 O 0.85177 0.29133 0.23434 0.0
O106 O 0.77701 0.29539 0.21022 0.0
O107 O 0.84153 0.33102 0.21114 0.0
O108 O 0.87902 0.3598 0.1825 0.0
C109 C 0.76236 0.29528 0.14113 0.0
O110 O 0.77059 0.3143 0.08681 0.0
O111 O 0.80402 0.35487 0.19882 0.0
C112 C 0.92443 0.38681 0.46395 0.0
O113 O 0.9061 0.38116 0.52259 0.0
O114 O 0.91914 0.3771 0.37649 0.0
O115 O 0.85632 0.34522 0.40692 0.0
O116 O 0.81523 0.33348 0.39134 0.0
O117 O 0.88995 0.32111 0.29483 0.0
C118 C 0.85572 0.34739 0.15619 0.0
C119 C 0.83566 0.34063 0.44425 0.0
Zn120 Zn 0.33115 0.81477 0.69033 0.0
Zn121 Zn 0.35707 0.88721 0.64617 0.0
C122 C 0.36087 0.79359 0.69247 0.0
O123 O 0.34509 0.7827 0.61487 0.0
C124 C 0.32955 0.90905 0.70412 0.0
O125 O 0.35215 0.92427 0.74576 0.0
O126 O 0.29763 0.78429 0.70356 0.0
O127 O 0.33533 0.84669 0.73573 0.0
O128 O 0.36684 0.88267 0.78284 0.0
C129 C 0.29587 0.7685 0.76325 0.0
O130 O 0.31451 0.77465 0.82972 0.0
O131 O 0.3589 0.80963 0.74487 0.0
C132 C 0.37754 0.9269 0.5239 0.0
O133 O 0.35495 0.91302 0.47967 0.0
O134 O 0.38388 0.91911 0.59826 0.0
O135 O 0.35019 0.85875 0.54875 0.0
O136 O 0.3362 0.81846 0.54722 0.0
O137 O 0.32604 0.88998 0.65424 0.0
C138 C 0.3527 0.86032 0.80019 0.0
C139 C 0.3445 0.83832 0.50323 0.0
Zn140 Zn 0.19794 0.54403 0.63939 0.0
Zn141 Zn 0.15587 0.47331 0.70422 0.0
C142 C 0.24965 0.56583 0.67303 0.0
O143 O 0.24382 0.58008 0.72523 0.0
C144 C 0.10331 0.44855 0.7048 0.0
O145 O 0.10794 0.43057 0.68534 0.0
O146 O 0.19821 0.57479 0.6006 0.0
O147 O 0.1675 0.51161 0.58239 0.0
O148 O 0.15802 0.47313 0.55827 0.0
C149 C 0.21515 0.59047 0.54981 0.0
O150 O 0.23007 0.58443 0.50511 0.0
O151 O 0.23209 0.54712 0.62295 0.0
C152 C 0.14991 0.43794 0.84283 0.0
O153 O 0.1449 0.45206 0.89993 0.0
O154 O 0.15704 0.44453 0.75758 0.0
O155 O 0.1857 0.5061 0.74726 0.0
O156 O 0.19414 0.54337 0.78578 0.0
O157 O 0.12186 0.47034 0.72271 0.0
C158 C 0.16605 0.49435 0.52543 0.0
C159 C 0.18656 0.52167 0.81094 0.0
Zn160 Zn 0.48024 0.68555 0.72004 0.0
Zn161 Zn 0.53617 0.66859 0.66489 0.0
C162 C 0.43553 0.6388 0.65679 0.0
O163 O 0.44605 0.64317 0.57247 0.0
C164 C 0.58261 0.69557 0.77604 0.0
O165 O 0.57042 0.67646 0.8286 0.0
O166 O 0.47539 0.7131 0.77286 0.0
O167 O 0.51064 0.68582 0.78572 0.0
O168 O 0.52061 0.65692 0.79069 0.0
C169 C 0.45777 0.70887 0.82878 0.0
O170 O 0.445 0.68694 0.86308 0.0
O171 O 0.44754 0.65336 0.73165 0.0
C172 C 0.55562 0.64645 0.53474 0.0
O173 O 0.56966 0.66947 0.51267 0.0
O174 O 0.5382 0.6412 0.59284 0.0
O175 O 0.51367 0.67953 0.60592 0.0
O176 O 0.48605 0.69088 0.5765 0.0
O177 O 0.57163 0.69701 0.69759 0.0
C178 C 0.50945 0.66752 0.82703 0.0
C179 C 0.50223 0.68581 0.54524 0.0
C180 C 0.04891 0.30318 0.90104 0.0
C181 C 0.05577 0.28617 0.93219 0.0
C182 C 0.06727 0.32772 0.88916 0.0
C183 C 0.09314 0.33537 0.90807 0.0
C184 C 0.10026 0.31818 0.9374 0.0
C185 C 0.08146 0.29377 0.94953 0.0
C186 C 0.05895 0.34556 0.85767 0.0
C187 C 0.12767 0.32564 0.95702 0.0
C188 C 0.13618 0.39433 0.79006 0.0
C189 C 0.14074 0.4121 0.86583 0.0
C190 C 0.12197 0.3691 0.80447 0.0
C191 C 0.11252 0.3615 0.89733 0.0
C192 C 0.11912 0.37931 0.97658 0.0
C193 C 0.13306 0.40447 0.95971 0.0
C194 C 0.11532 0.35071 0.71798 0.0
C195 C 0.10986 0.37188 0.07732 0.0
H196 H 0.02912 0.29747 0.88767 0.0
H197 H 0.0869 0.28066 0.97304 0.0
H198 H 0.06528 0.36083 0.91514 0.0
H199 H 0.0678 0.35389 0.78939 0.0
H200 H 0.03811 0.33657 0.84437 0.0
H201 H 0.13007 0.30982 0.976 0.0
H202 H 0.13827 0.33373 0.89158 0.0
H203 H 0.13629 0.34005 0.01846 0.0
H204 H 0.14214 0.40005 0.71729 0.0
H205 H 0.13684 0.41812 0.01888 0.0
H206 H 0.0952 0.34307 0.69272 0.0
H207 H 0.11769 0.33505 0.73924 0.0
H208 H 0.12706 0.35924 0.65537 0.0
H209 H 0.08926 0.36498 0.07535 0.0
H210 H 0.11949 0.38756 0.13368 0.0
H211 H 0.11287 0.35668 0.09997 0.0
C212 C 0.73008 0.78263 0.95005 0.0
C213 C 0.73999 0.76707 0.93162 0.0
C214 C 0.70497 0.77524 0.91949 0.0
C215 C 0.6894 0.75161 0.8712 0.0
C216 C 0.69962 0.73625 0.84947 0.0
C217 C 0.72481 0.74424 0.87934 0.0
C218 C 0.69487 0.79232 0.94202 0.0
C219 C 0.68362 0.71083 0.79868 0.0
C220 C 0.61932 0.71396 0.899 0.0
C221 C 0.6094 0.71355 0.80421 0.0
C222 C 0.64532 0.7278 0.92386 0.0
C223 C 0.66183 0.74158 0.85206 0.0
C224 C 0.65178 0.74277 0.75845 0.0
C225 C 0.62558 0.72868 0.73548 0.0
C226 C 0.6552 0.72617 0.02483 0.0
C227 C 0.66878 0.75759 0.68057 0.0
H228 H 0.74183 0.80044 0.98941 0.0
H229 H 0.73233 0.73215 0.86435 0.0
H230 H 0.68384 0.79304 0.87701 0.0
H231 H 0.68192 0.78525 0.0022 0.0
H232 H 0.71023 0.81134 0.96506 0.0
H233 H 0.6948 0.70176 0.78229 0.0
H234 H 0.6684 0.69897 0.84601 0.0
H235 H 0.67441 0.71189 0.72887 0.0
H236 H 0.60683 0.70266 0.95302 0.0
H237 H 0.61797 0.72855 0.66225 0.0
H238 H 0.66886 0.74484 0.05824 0.0
H239 H 0.66535 0.71571 0.01867 0.0
H240 H 0.63982 0.7168 0.0751 0.0
H241 H 0.68367 0.77601 0.71223 0.0
H242 H 0.65806 0.76008 0.61879 0.0
H243 H 0.67835 0.74795 0.65078 0.0
C244 C 0.22328 0.9378 0.85926 0.0
C245 C 0.22058 0.9533 0.79452 0.0
C246 C 0.23774 0.92687 0.83666 0.0
C247 C 0.24956 0.93142 0.74687 0.0
C248 C 0.24487 0.94506 0.67721 0.0
C249 C 0.23046 0.95593 0.70202 0.0
C250 C 0.24218 0.91232 0.91269 0.0
C251 C 0.25678 0.9499 0.57988 0.0
C252 C 0.31409 0.93722 0.75801 0.0
C253 C 0.30889 0.91452 0.71362 0.0
C254 C 0.29492 0.94294 0.76801 0.0
C255 C 0.26986 0.92546 0.73318 0.0
C256 C 0.26443 0.90253 0.68784 0.0
C257 C 0.28407 0.89732 0.6784 0.0
C258 C 0.3015 0.96769 0.81642 0.0
C259 C 0.23791 0.88344 0.65041 0.0
H260 H 0.21543 0.9354 0.93042 0.0
H261 H 0.22805 0.96753 0.65085 0.0
H262 H 0.24041 0.89519 0.87819 0.0
H263 H 0.26168 0.92351 0.94708 0.0
H264 H 0.22877 0.90733 0.97151 0.0
H265 H 0.24803 0.95718 0.52801 0.0
H266 H 0.27721 0.96366 0.59202 0.0
H267 H 0.25513 0.93282 0.54533 0.0
H268 H 0.33323 0.95065 0.7849 0.0
H269 H 0.27995 0.87972 0.64409 0.0
H270 H 0.29079 0.96502 0.88284 0.0
H271 H 0.29602 0.97787 0.76556 0.0
H272 H 0.32198 0.9793 0.83836 0.0
H273 H 0.2256 0.8771 0.71278 0.0
H274 H 0.23711 0.86716 0.61161 0.0
H275 H 0.22997 0.89163 0.59956 0.0
C276 C 0.38401 0.08388 0.15115 0.0
C277 C 0.40071 0.10887 0.17786 0.0
C278 C 0.35805 0.07474 0.13587 0.0
C279 C 0.34851 0.09106 0.14624 0.0
C280 C 0.36527 0.11644 0.17175 0.0
C281 C 0.39126 0.12505 0.18827 0.0
C282 C 0.34081 0.04747 0.10978 0.0
C283 C 0.35575 0.1344 0.18151 0.0
C284 C 0.28273 0.061 0.02333 0.0
C285 C 0.26825 0.04913 0.10183 0.0
C286 C 0.30893 0.07689 0.03817 0.0
C287 C 0.32079 0.08085 0.13355 0.0
C288 C 0.30591 0.0708 0.21423 0.0
C289 C 0.2798 0.05502 0.19735 0.0
C290 C 0.32409 0.08762 0.95044 0.0
C291 C 0.31778 0.07476 0.31727 0.0
H292 H 0.39118 0.07126 0.14347 0.0
H293 H 0.40418 0.14444 0.20815 0.0
H294 H 0.32682 0.03926 0.16601 0.0
H295 H 0.33014 0.04462 0.03831 0.0
H296 H 0.35131 0.03731 0.10466 0.0
H297 H 0.37135 0.15368 0.19814 0.0
H298 H 0.34507 0.13358 0.11252 0.0
H299 H 0.34253 0.12927 0.24088 0.0
H300 H 0.27388 0.05682 0.94941 0.0
H301 H 0.26865 0.04632 0.25872 0.0
H302 H 0.33313 0.07677 0.92891 0.0
H303 H 0.33935 0.10695 0.9684 0.0
H304 H 0.31204 0.08715 0.88639 0.0
H305 H 0.32705 0.06349 0.32393 0.0
H306 H 0.30356 0.06933 0.37319 0.0
H307 H 0.33251 0.09434 0.33389 0.0
C308 C 0.87191 0.25842 0.20622 0.0
C309 C 0.88702 0.28369 0.23357 0.0
C310 C 0.88287 0.24399 0.18141 0.0
C311 C 0.90951 0.25519 0.18299 0.0
C312 C 0.92477 0.28077 0.20872 0.0
C313 C 0.91338 0.29461 0.23427 0.0
C314 C 0.866 0.21676 0.15483 0.0
C315 C 0.95324 0.29354 0.21028 0.0
C316 C 0.94502 0.221 0.22722 0.0
C317 C 0.95362 0.22021 0.13418 0.0
C318 C 0.92929 0.23093 0.24273 0.0
C319 C 0.92184 0.24026 0.16325 0.0
C320 C 0.929 0.23797 0.06776 0.0
C321 C 0.94485 0.22799 0.05433 0.0
C322 C 0.92205 0.23293 0.34567 0.0
C323 C 0.92132 0.24752 0.98087 0.0
H324 H 0.85154 0.24985 0.20511 0.0
H325 H 0.92526 0.31417 0.25401 0.0
H326 H 0.87041 0.21178 0.08243 0.0
H327 H 0.86954 0.20603 0.20969 0.0
H328 H 0.84565 0.21109 0.15198 0.0
H329 H 0.96234 0.31375 0.22784 0.0
H330 H 0.96046 0.2857 0.26583 0.0
H331 H 0.95912 0.2904 0.1379 0.0
H332 H 0.95146 0.21482 0.28931 0.0
H333 H 0.95127 0.22735 0.98206 0.0
H334 H 0.9015 0.22613 0.34586 0.0
H335 H 0.93209 0.25259 0.37364 0.0
H336 H 0.92691 0.22238 0.3971 0.0
H337 H 0.901 0.24177 0.98019 0.0
H338 H 0.92495 0.24094 0.91006 0.0
H339 H 0.93219 0.26799 0.98653 0.0
C340 C 0.79979 0.72782 0.26708 0.0
C341 C 0.78176 0.73486 0.24654 0.0
C342 C 0.79237 0.70352 0.28931 0.0
C343 C 0.76633 0.68578 0.28799 0.0
C344 C 0.74814 0.69318 0.27239 0.0
C345 C 0.75611 0.71773 0.25327 0.0
C346 C 0.81236 0.69656 0.30864 0.0
C347 C 0.72016 0.67479 0.26819 0.0
C348 C 0.74383 0.61969 0.19938 0.0
C349 C 0.73526 0.60719 0.28513 0.0
C350 C 0.75474 0.64536 0.20023 0.0
C351 C 0.7579 0.65905 0.28967 0.0
C352 C 0.75096 0.64678 0.37783 0.0
C353 C 0.73936 0.62091 0.37436 0.0
C354 C 0.76137 0.65759 0.10407 0.0
C355 C 0.75475 0.66085 0.47501 0.0
H356 H 0.81966 0.74113 0.2631 0.0
H357 H 0.74209 0.72307 0.2372 0.0
H358 H 0.80779 0.68461 0.37136 0.0
H359 H 0.81303 0.68593 0.2432 0.0
H360 H 0.83139 0.71305 0.32457 0.0
H361 H 0.70854 0.68382 0.26285 0.0
H362 H 0.71494 0.66159 0.2032 0.0
H363 H 0.71532 0.66394 0.33418 0.0
H364 H 0.74068 0.6093 0.12992 0.0
H365 H 0.73288 0.61138 0.44098 0.0
H366 H 0.7813 0.67277 0.10912 0.0
H367 H 0.74937 0.66583 0.08777 0.0
H368 H 0.75863 0.64443 0.04159 0.0
H369 H 0.77398 0.6773 0.48387 0.0
H370 H 0.75203 0.64925 0.53798 0.0
H371 H 0.74104 0.66749 0.47742 0.0
C372 C 0.05703 0.41945 0.69664 0.0
C373 C 0.07708 0.44354 0.6905 0.0
C374 C 0.0322 0.41297 0.6669 0.0
C375 C 0.02728 0.43099 0.62906 0.0
C376 C 0.04727 0.45569 0.62751 0.0
C377 C 0.07198 0.46173 0.65889 0.0
C378 C 0.01147 0.38647 0.67095 0.0
C379 C 0.04282 0.4754 0.58744 0.0
C380 C 0.97056 0.40376 0.44436 0.0
C381 C 0.95125 0.40139 0.50288 0.0
C382 C 0.99562 0.41445 0.48349 0.0
C383 C 0.00165 0.42323 0.58353 0.0
C384 C 0.98257 0.42225 0.64153 0.0
C385 C 0.95756 0.41124 0.60068 0.0
C386 C 0.01536 0.41508 0.41897 0.0
C387 C 0.98834 0.43174 0.74803 0.0
H388 H 0.0609 0.40538 0.72175 0.0
H389 H 0.08747 0.48035 0.65338 0.0
H390 H 0.99537 0.38557 0.70883 0.0
H391 H 0.0043 0.37807 0.59521 0.0
H392 H 0.01806 0.37523 0.70961 0.0
H393 H 0.05952 0.49415 0.60257 0.0
H394 H 0.03861 0.47187 0.50676 0.0
H395 H 0.02626 0.47496 0.6194 0.0
H396 H 0.96597 0.39633 0.36864 0.0
H397 H 0.94284 0.40967 0.64639 0.0
H398 H 0.02167 0.40239 0.44543 0.0
H399 H 0.03217 0.43386 0.42303 0.0
H400 H 0.00812 0.40949 0.3409 0.0
H401 H 0.99276 0.41958 0.79131 0.0
H402 H 0.97224 0.43236 0.77975 0.0
H403 H 0.0052 0.45051 0.75626 0.0
C404 C 0.55458 0.60668 0.55978 0.0
C405 C 0.56317 0.62808 0.50813 0.0
C406 C 0.56499 0.59133 0.5481 0.0
C407 C 0.58425 0.59741 0.48255 0.0
C408 C 0.5918 0.61807 0.42547 0.0
C409 C 0.58122 0.63321 0.43919 0.0
C410 C 0.5564 0.56945 0.61013 0.0
C411 C 0.61205 0.62497 0.35371 0.0
C412 C 0.63495 0.5805 0.52969 0.0
C413 C 0.62828 0.56166 0.45615 0.0
C414 C 0.62018 0.59164 0.54157 0.0
C415 C 0.59807 0.58355 0.47916 0.0
C416 C 0.59037 0.56348 0.4091 0.0
C417 C 0.60564 0.55284 0.39811 0.0
C418 C 0.62899 0.61296 0.61745 0.0
C419 C 0.56666 0.55404 0.34254 0.0
H420 H 0.54063 0.60258 0.61327 0.0
H421 H 0.58775 0.64958 0.39837 0.0
H422 H 0.55252 0.55277 0.56443 0.0
H423 H 0.57165 0.57321 0.66662 0.0
H424 H 0.53916 0.56543 0.64798 0.0
H425 H 0.61425 0.64031 0.30917 0.0
H426 H 0.6304 0.63071 0.39441 0.0
H427 H 0.60761 0.60882 0.30331 0.0
H428 H 0.65235 0.58736 0.57517 0.0
H429 H 0.60021 0.5381 0.34181 0.0
H430 H 0.61352 0.60981 0.66488 0.0
H431 H 0.6343 0.63014 0.5801 0.0
H432 H 0.64555 0.61584 0.66481 0.0
H433 H 0.5505 0.55089 0.38584 0.0
H434 H 0.56177 0.53658 0.30018 0.0
H435 H 0.56933 0.56807 0.2899 0.0
C436 C 0.44457 0.07104 0.49675 0.0
C437 C 0.45762 0.08008 0.41214 0.0
C438 C 0.4341 0.04611 0.51613 0.0
C439 C 0.43676 0.02988 0.44924 0.0
C440 C 0.45111 0.03918 0.36671 0.0
C441 C 0.46141 0.06419 0.34923 0.0
C442 C 0.41905 0.03689 0.60538 0.0
C443 C 0.45445 0.02247 0.29397 0.0
C444 C 0.41874 0.9667 0.53653 0.0
C445 C 0.39376 0.95249 0.49647 0.0
C446 C 0.43337 0.99177 0.51891 0.0
C447 C 0.42261 0.0029 0.46112 0.0
C448 C 0.39769 0.98844 0.41792 0.0
C449 C 0.38364 0.96337 0.4355 0.0
C450 C 0.46004 0.00652 0.56464 0.0
C451 C 0.38547 -0.00033 0.35629 0.0
H452 H 0.44173 0.08324 0.5462 0.0
H453 H 0.47155 0.07103 0.28384 0.0
H454 H 0.39886 0.02429 0.58169 0.0
H455 H 0.42558 0.02619 0.64819 0.0
H456 H 0.42053 0.05217 0.65432 0.0
H457 H 0.46846 0.03299 0.24016 0.0
H458 H 0.46059 0.01092 0.33269 0.0
H459 H 0.4361 0.0098 0.25301 0.0
H460 H 0.42672 0.95834 0.58314 0.0
H461 H 0.36435 0.95253 0.40434 0.0
H462 H 0.46126 0.02036 0.62091 0.0
H463 H 0.47327 0.01676 0.50823 0.0
H464 H 0.46636 0.99467 0.60008 0.0
H465 H 0.3838 0.01372 0.40203 0.0
H466 H 0.36635 0.98568 0.32448 0.0
H467 H 0.39738 0.00919 0.29547 0.0
C468 C 0.11046 0.05936 0.22686 0.0
C469 C 0.13182 0.06773 0.17213 0.0
C470 C 0.09543 0.07042 0.22234 0.0
C471 C 0.10227 0.09063 0.1634 0.0
C472 C 0.12511 0.10061 0.11564 0.0
C473 C 0.13954 0.08892 0.12004 0.0
C474 C 0.07106 0.05901 0.27332 0.0
C475 C 0.13326 0.12238 0.05333 0.0
C476 C 0.04823 0.09427 0.03671 0.0
C477 C 0.04733 0.1126 0.09551 0.0
C478 C 0.06616 0.0872 0.05784 0.0
C479 C 0.08377 0.09877 0.13985 0.0
C480 C 0.08318 0.11746 0.19925 0.0
C481 C 0.06487 0.12413 0.17653 0.0
C482 C 0.06607 0.06713 -0.00738 0.0
C483 C 0.10179 0.13027 0.28681 0.0
H484 H 0.10435 0.04302 0.26754 0.0
H485 H 0.15617 0.09562 0.07837 0.0
H486 H 0.06882 0.07344 0.31337 0.0
H487 H 0.05488 0.04932 0.21764 0.0
H488 H 0.07004 0.04551 0.32593 0.0
H489 H 0.15325 0.13039 0.03503 0.0
H490 H 0.12119 0.1164 0.98369 0.0
H491 H 0.13092 0.13698 0.09142 0.0
H492 H 0.0348 0.08529 0.97385 0.0
H493 H 0.0643 0.13833 0.22218 0.0
H494 H 0.06292 0.05142 0.03655 0.0
H495 H 0.08465 0.07416 0.96099 0.0
H496 H 0.05119 0.06014 0.93131 0.0
H497 H 0.09909 0.11673 0.34182 0.0
H498 H 0.09967 0.14529 0.32251 0.0
H499 H 0.12138 0.13815 0.26407 0.0
C500 C 0.87527 0.94869 0.95902 0.0
C501 C 0.89282 0.9408 0.94794 0.0
C502 C 0.88332 0.97359 0.98383 0.0
C503 C 0.90947 0.9907 0.00093 0.0
C504 C 0.92725 0.9828 0.98865 0.0
C505 C 0.9187 0.95801 0.96087 0.0
C506 C 0.8639 0.98148 -0.00582 0.0
C507 C 0.95529 0.00034 0.00827 0.0
C508 C 0.93753 0.05973 -0.00675 0.0
C509 C 0.94356 0.06746 0.0933 0.0
C510 C 0.92533 0.03464 0.96216 0.0
C511 C 0.91851 0.01686 0.03291 0.0
C512 C 0.9228 0.02446 0.13427 0.0
C513 C 0.93556 0.04974 0.16331 0.0
C514 C 0.92142 0.02733 0.8535 0.0
C515 C 0.91536 0.00599 0.21198 0.0
H516 H 0.85526 0.9353 0.94949 0.0
H517 H 0.93229 0.95183 0.9544 0.0
H518 H 0.86469 0.98817 0.07132 0.0
H519 H 0.86811 0.99703 0.94758 0.0
H520 H 0.84442 0.9662 0.97319 0.0
H521 H 0.9666 0.99128 -0.00555 0.0
H522 H 0.96159 0.01617 0.96128 0.0
H523 H 0.9594 0.0079 0.08583 0.0
H524 H 0.94384 0.07332 0.93859 0.0
H525 H 0.9401 0.05567 0.2407 0.0
H526 H 0.90184 0.01209 0.83455 0.0
H527 H 0.93435 0.0205 0.83359 0.0
H528 H 0.92517 0.04302 0.80823 0.0
H529 H 0.89566 0.99071 0.19594 0.0
H530 H 0.91699 0.01457 0.28659 0.0
H531 H 0.92778 0.99782 0.21196 0.0
C532 C 0.95554 0.89192 0.00399 0.0
C533 C 0.94608 0.90298 0.06757 0.0
C534 C 0.98159 0.90317 0.99177 0.0
C535 C 0.99833 0.92609 0.04331 0.0
C536 C 0.98892 0.93685 0.10991 0.0
C537 C 0.96297 0.92509 0.12161 0.0
C538 C 0.99109 0.89105 0.9212 0.0
C539 C 0.00609 0.96145 0.16531 0.0
C540 C 0.06964 0.9567 0.07222 0.0
C541 C 0.07661 0.97472 0.0037 0.0
C542 C 0.0441 0.9394 0.08155 0.0
C543 C 0.02527 0.94036 0.0213 0.0
C544 C 0.03236 0.9576 0.94823 0.0
C545 C 0.05794 0.97454 0.94031 0.0
C546 C 0.03724 0.92104 0.15942 0.0
C547 C 0.0129 0.9593 0.88252 0.0
H548 H 0.94259 0.87477 0.96231 0.0
H549 H 0.95588 0.93379 0.17101 0.0
H550 H 0.99778 0.90207 0.85601 0.0
H551 H 0.00741 0.89043 0.95619 0.0
H552 H 0.9762 0.872 0.89589 0.0
H553 H 0.99595 0.96662 0.21833 0.0
H554 H 0.0219 0.96106 0.20604 0.0
H555 H 0.01444 0.97609 0.11264 0.0
H556 H 0.08404 0.95658 0.12065 0.0
H557 H 0.0632 0.98817 0.88608 0.0
H558 H 0.02219 0.90245 0.13008 0.0
H559 H 0.02979 0.92672 0.22173 0.0
H560 H 0.0538 0.91981 0.18794 0.0
H561 H 0.99874 0.94083 0.84889 0.0
H562 H 0.02156 0.9719 0.82285 0.0
H563 H 0.00269 0.96624 0.92695 0.0
C564 C 0.75578 0.45917 0.06069 0.0
C565 C 0.7458 0.4642 0.14304 0.0
C566 C 0.77059 0.44789 0.06981 0.0
C567 C 0.77439 0.44044 0.16264 0.0
C568 C 0.76476 0.446 0.24632 0.0
C569 C 0.75096 0.45823 0.2357 0.0
C570 C 0.78124 0.44299 0.97953 0.0
C571 C 0.76746 0.43751 0.34586 0.0
C572 C 0.78175 0.38392 0.16787 0.0
C573 C 0.80733 0.39422 0.1992 0.0
C574 C 0.77093 0.3988 0.1547 0.0
C575 C 0.78619 0.42473 0.17087 0.0
C576 C 0.81224 0.43534 0.19891 0.0
C577 C 0.82247 0.41992 0.21375 0.0
C578 C 0.74294 0.38664 0.12698 0.0
C579 C 0.82918 0.46292 0.21496 0.0
H580 H 0.75159 0.46364 0.98897 0.0
H581 H 0.74273 0.46161 0.29904 0.0
H582 H 0.80141 0.44867 -0.0049 0.0
H583 H 0.77094 0.42293 0.9581 0.0
H584 H 0.77964 0.45289 0.91633 0.0
H585 H 0.76016 0.44454 0.40445 0.0
H586 H 0.75687 0.41704 0.3431 0.0
H587 H 0.78753 0.44364 0.36616 0.0
H588 H 0.76984 0.36406 0.1569 0.0
H589 H 0.84226 0.42798 0.23758 0.0
H590 H 0.73966 0.39353 0.05749 0.0
H591 H 0.73357 0.39144 0.18467 0.0
H592 H 0.73374 0.36623 0.11755 0.0
H593 H 0.82735 0.4721 0.14975 0.0
H594 H 0.84934 0.46833 0.22912 0.0
H595 H 0.82332 0.46992 0.27854 0.0
C596 C 0.62088 0.40637 0.14044 0.0
C597 C 0.64149 0.41086 0.20427 0.0
C598 C 0.60123 0.38219 0.11513 0.0
C599 C 0.60254 0.36219 0.15348 0.0
C600 C 0.62308 0.36671 0.21935 0.0
C601 C 0.64222 0.39099 0.24429 0.0
C602 C 0.57934 0.37803 0.04634 0.0
C603 C 0.62524 0.34585 0.26171 0.0
C604 C 0.54937 0.29682 0.16614 0.0
C605 C 0.55551 0.28463 0.09356 0.0
C606 C 0.5631 0.3226 0.18092 0.0
C607 C 0.58337 0.33635 0.12179 0.0
C608 C 0.58782 0.32434 0.04182 0.0
C609 C 0.57369 0.29857 0.02828 0.0
C610 C 0.55745 0.33482 0.26571 0.0
C611 C 0.6092 0.33838 0.9768 0.0
H612 H 0.62014 0.42173 0.10994 0.0
H613 H 0.65806 0.39434 0.2938 0.0
H614 H 0.5795 0.36862 0.97619 0.0
H615 H 0.56118 0.36578 0.07848 0.0
H616 H 0.58002 0.39556 0.03003 0.0
H617 H 0.64219 0.35259 0.31339 0.0
H618 H 0.60825 0.33405 0.30131 0.0
H619 H 0.6263 0.33408 0.20151 0.0
H620 H 0.53505 0.2862 0.21597 0.0
H621 H 0.57825 0.28931 0.97086 0.0
H622 H 0.55885 0.35239 0.24516 0.0
H623 H 0.57152 0.33922 0.32815 0.0
H624 H 0.53833 0.32264 0.29112 0.0
H625 H 0.60953 0.35531 0.95408 0.0
H626 H 0.60783 0.32702 0.90991 0.0
H627 H 0.62745 0.34417 0.01848 0.0
C628 C 0.61194 0.22465 0.09855 0.0
C629 C 0.60226 0.21561 0.18876 0.0
C630 C 0.63779 0.23483 0.08489 0.0
C631 C 0.65438 0.23643 0.16391 0.0
C632 C 0.6445 0.22634 0.25365 0.0
C633 C 0.61852 0.21582 0.26459 0.0
C634 C 0.64753 0.24501 0.98753 0.0
C635 C 0.66155 0.22815 0.34048 0.0
C636 C 0.72253 0.25412 0.12415 0.0
C637 C 0.73493 0.27962 0.14607 0.0
C638 C 0.69612 0.23972 0.12779 0.0
C639 C 0.68221 0.25115 0.1568 0.0
C640 C 0.69494 0.27691 0.1806 0.0
C641 C 0.72109 0.29084 0.17353 0.0
C642 C 0.68307 0.21242 0.09982 0.0
C643 C 0.68102 0.28978 0.21445 0.0
H644 H 0.59942 0.22438 0.03942 0.0
H645 H 0.61121 0.20897 0.33469 0.0
H646 H 0.65859 0.26545 -0.00376 0.0
H647 H 0.66036 0.23857 0.96202 0.0
H648 H 0.63197 0.23951 0.93002 0.0
H649 H 0.65072 0.2175 0.40193 0.0
H650 H 0.67433 0.22133 0.31855 0.0
H651 H 0.67357 0.24776 0.36761 0.0
H652 H 0.73338 0.24558 0.10258 0.0
H653 H 0.73088 0.31061 0.19109 0.0
H654 H 0.66863 0.20763 0.03839 0.0
H655 H 0.67304 0.20184 0.16257 0.0
H656 H 0.69649 0.20642 0.0772 0.0
H657 H 0.66673 0.28752 0.15625 0.0
H658 H 0.69391 0.30982 0.23287 0.0
H659 H 0.67081 0.28132 0.28029 0.0
C660 C 0.4617 0.74972 0.79922 0.0
C661 C 0.44802 0.72619 0.83491 0.0
C662 C 0.45059 0.76438 0.78592 0.0
C663 C 0.42517 0.75512 0.80792 0.0
C664 C 0.41184 0.73211 0.85007 0.0
C665 C 0.42352 0.718 0.86389 0.0
C666 C 0.46547 0.78896 0.74189 0.0
C667 C 0.38457 0.72148 0.87333 0.0
C668 C 0.39294 0.79342 0.81182 0.0
C669 C 0.37947 0.7861 0.71975 0.0
C670 C 0.40893 0.78438 0.84036 0.0
C671 C 0.41134 0.76768 0.77527 0.0
C672 C 0.39871 0.76123 0.68053 0.0
C673 C 0.38294 0.77053 0.65403 0.0
C674 C 0.42243 0.79191 0.94134 0.0
C675 C 0.40088 0.7436 0.60849 0.0
H676 H 0.48072 0.75625 0.77739 0.0
H677 H 0.41281 0.69985 0.89155 0.0
H678 H 0.45842 0.78742 0.66433 0.0
H679 H 0.46296 0.80326 0.78162 0.0
H680 H 0.48595 0.7952 0.74346 0.0
H681 H 0.37762 0.70447 0.91383 0.0
H682 H 0.38211 0.73521 0.91777 0.0
H683 H 0.37257 0.7169 0.80396 0.0
H684 H 0.39041 0.80559 0.86265 0.0
H685 H 0.37286 0.76509 0.58219 0.0
H686 H 0.44266 0.79767 0.93685 0.0
H687 H 0.41406 0.77591 0.9877 0.0
H688 H 0.42104 0.80725 0.97823 0.0
H689 H 0.42101 0.74979 0.59842 0.0
H690 H 0.39126 0.7419 0.53548 0.0
H691 H 0.39234 0.72505 0.63778 0.0
C692 C 0.24637 0.6353 0.54271 0.0
C693 C 0.22232 0.61672 0.56482 0.0
C694 C 0.25552 0.66 0.57477 0.0
C695 C 0.2401 0.6663 0.6291 0.0
C696 C 0.21526 0.64788 0.64652 0.0
C697 C 0.20667 0.62329 0.6143 0.0
C698 C 0.28218 0.67913 0.55501 0.0
C699 C 0.19823 0.65396 0.70342 0.0
C700 C 0.27712 0.72414 0.79803 0.0
C701 C 0.27721 0.74211 0.73965 0.0
C702 C 0.26396 0.69912 0.76511 0.0
C703 C 0.25058 0.69196 0.67166 0.0
C704 C 0.24907 0.70976 0.61575 0.0
C705 C 0.2623 0.73463 0.65066 0.0
C706 C 0.2658 0.68061 0.82746 0.0
C707 C 0.23494 0.70283 0.51598 0.0
H708 H 0.25864 0.63041 0.50492 0.0
H709 H 0.18803 0.60905 0.63138 0.0
H710 H 0.28235 0.69491 0.52022 0.0
H711 H 0.29388 0.68643 0.62545 0.0
H712 H 0.29114 0.67152 0.50657 0.0
H713 H 0.17872 0.638 0.70293 0.0
H714 H 0.206 0.65965 0.78078 0.0
H715 H 0.19742 0.66967 0.67252 0.0
H716 H 0.28842 0.72972 0.86727 0.0
H717 H 0.26215 0.74835 0.60514 0.0
H718 H 0.27731 0.67382 0.79155 0.0
H719 H 0.2468 0.66441 0.83439 0.0
H720 H 0.27464 0.68867 0.90223 0.0
H721 H 0.24513 0.6977 0.46332 0.0
H722 H 0.23308 0.71822 0.48707 0.0
H723 H 0.2158 0.68656 0.51919 0.0
C724 C 0.39269 0.61305 0.57215 0.0
C725 C 0.40824 0.62084 0.65949 0.0
C726 C 0.3663 0.60039 0.57397 0.0
C727 C 0.35519 0.59481 0.66523 0.0
C728 C 0.37076 0.60054 0.75298 0.0
C729 C 0.39716 0.61382 0.74925 0.0
C730 C 0.35048 0.59506 0.47881 0.0
C731 C 0.35962 0.59414 0.85147 0.0
C732 C 0.29511 0.59754 0.68394 0.0
C733 C 0.2764 0.57264 0.66977 0.0
C734 C 0.32074 0.60486 0.68283 0.0
C735 C 0.32793 0.58676 0.66969 0.0
C736 C 0.30913 0.56148 0.65723 0.0
C737 C 0.28346 0.55472 0.65573 0.0
C738 C 0.34011 0.63207 0.69446 0.0
C739 C 0.31612 0.54164 0.64608 0.0
H740 H 0.40108 0.61836 0.50241 0.0
H741 H 0.40908 0.61952 0.81696 0.0
H742 H 0.33449 0.57581 0.47306 0.0
H743 H 0.34236 0.6074 0.47718 0.0
H744 H 0.36168 0.598 0.41359 0.0
H745 H 0.37362 0.5954 0.90912 0.0
H746 H 0.35312 0.6071 0.87436 0.0
H747 H 0.34298 0.57523 0.84693 0.0
H748 H 0.28967 0.61145 0.69427 0.0
H749 H 0.26897 0.53543 0.64585 0.0
H750 H 0.3518 0.63751 0.63011 0.0
H751 H 0.35299 0.636 0.76056 0.0
H752 H 0.3313 0.64377 0.7016 0.0
H753 H 0.3252 0.54315 0.57611 0.0
H754 H 0.29941 0.52283 0.64644 0.0
H755 H 0.33003 0.54408 0.70642 0.0
C756 C 0.01113 0.18356 0.71726 0.0
C757 C 0.01656 0.16897 0.77702 0.0
C758 C 0.01438 0.18352 0.6165 0.0
C759 C 0.02399 0.16905 0.57515 0.0
C760 C 0.03033 0.15488 0.63575 0.0
C761 C 0.02618 0.15473 0.73612 0.0
C762 C 0.00694 0.19857 0.55396 0.0
C763 C 0.04148 0.14 0.59476 0.0
C764 C 0.00313 0.15604 0.30755 0.0
C765 C 0.02226 0.17736 0.27008 0.0
C766 C 0.00472 0.15133 0.40616 0.0
C767 C 0.02612 0.16828 0.46757 0.0
C768 C 0.04699 0.18787 0.42634 0.0
C769 C 0.04467 0.19243 0.32788 0.0
C770 C 0.98205 0.13015 0.447 0.0
C771 C 0.0706 0.20569 0.48852 0.0
H772 H 0.00363 0.19449 0.7489 0.0
H773 H 0.03072 0.14368 0.78287 0.0
H774 H 0.02355 0.21246 0.51751 0.0
H775 H 0.99241 0.18641 0.49541 0.0
H776 H 0.99928 0.20837 0.59747 0.0
H777 H 0.04564 0.1302 0.6522 0.0
H778 H 0.02835 0.12622 0.53649 0.0
H779 H 0.05924 0.15231 0.56026 0.0
H780 H 0.98576 0.14443 0.26288 0.0
H781 H 0.05969 0.20871 0.29823 0.0
H782 H 0.97162 0.13743 0.48801 0.0
H783 H 0.98791 0.12051 0.49906 0.0
H784 H 0.96893 0.11653 0.38802 0.0
H785 H 0.06735 0.21947 0.52856 0.0
H786 H 0.08689 0.21573 0.44283 0.0
H787 H 0.07551 0.19598 0.54383 0.0
C788 C 0.86787 0.83354 0.77188 0.0
C789 C 0.84445 0.81897 0.8099 0.0
C790 C 0.86962 0.8358 0.67026 0.0
C791 C 0.84725 0.82411 0.60722 0.0
C792 C 0.82369 0.80864 0.64566 0.0
C793 C 0.82266 0.80599 0.74675 0.0
C794 C 0.89517 0.85157 0.63099 0.0
C795 C 0.79932 0.79648 0.58149 0.0
C796 C 0.84654 0.85665 0.38047 0.0
C797 C 0.84656 0.84071 0.30631 0.0
C798 C 0.84664 0.85132 0.4791 0.0
C799 C 0.84792 0.83018 0.50338 0.0
C800 C 0.84862 0.8144 0.42836 0.0
C801 C 0.84745 0.81965 0.33025 0.0
C802 C 0.84489 0.86805 0.55706 0.0
C803 C 0.85084 0.79217 0.45156 0.0
H804 H 0.88463 0.84352 0.82159 0.0
H805 H 0.80454 0.79496 0.7773 0.0
H806 H 0.89731 0.84215 0.56473 0.0
H807 H 0.89695 0.86918 0.60898 0.0
H808 H 0.91082 0.85589 0.68658 0.0
H809 H 0.78291 0.78357 0.6218 0.0
H810 H 0.79562 0.81088 0.55378 0.0
H811 H 0.80071 0.78617 0.51663 0.0
H812 H 0.84594 0.87297 0.36106 0.0
H813 H 0.84804 0.80771 0.27221 0.0
H814 H 0.86193 0.87632 0.60878 0.0
H815 H 0.82833 0.8572 0.60038 0.0
H816 H 0.84308 0.88319 0.52535 0.0
H817 H 0.86739 0.7978 0.50413 0.0
H818 H 0.85292 0.78284 0.38477 0.0
H819 H 0.83386 0.77864 0.48714 0.0
C820 C 0.15954 0.98595 0.67601 0.0
C821 C 0.15492 0.00301 0.72632 0.0
C822 C 0.15649 0.98271 0.57382 0.0
C823 C 0.14805 0.99651 0.52103 0.0
C824 C 0.1406 0.01166 0.57178 0.0
C825 C 0.14435 0.01494 0.67443 0.0
C826 C 0.16478 0.96642 0.52258 0.0
C827 C 0.13061 0.02589 0.51753 0.0
C828 C 0.18243 0.0184 0.29203 0.0
C829 C 0.16594 -0.00019 0.22246 0.0
C830 C 0.17625 0.01804 0.38922 0.0
C831 C 0.1525 0.99914 0.41575 0.0
C832 C 0.13496 0.98132 0.34363 0.0
C833 C 0.14226 0.98141 0.24754 0.0
C834 C 0.19587 0.03691 0.46442 0.0
C835 C 0.109 0.96179 0.36859 0.0
H836 H 0.16658 0.9758 0.71615 0.0
H837 H 0.14001 0.02762 0.71329 0.0
H838 H 0.1504 0.954 0.46432 0.0
H839 H 0.18255 0.9781 0.48687 0.0
H840 H 0.16824 0.95498 0.57428 0.0
H841 H 0.12009 0.03171 0.56577 0.0
H842 H 0.14661 0.0427 0.49087 0.0
H843 H 0.11801 0.01472 0.45253 0.0
H844 H 0.20078 0.03251 0.27133 0.0
H845 H 0.12958 0.96721 0.19239 0.0
H846 H 0.20137 0.02748 0.51909 0.0
H847 H 0.18801 0.04694 0.50471 0.0
H848 H 0.21317 0.05062 0.43065 0.0
H849 H 0.11038 0.94748 0.40915 0.0
H850 H 0.09616 0.95267 0.30167 0.0
H851 H 0.1005 0.96991 0.4168 0.0
C852 C 0.65955 0.47981 0.54894 0.0
C853 C 0.68056 0.50019 0.51489 0.0
C854 C 0.65578 0.47823 0.64945 0.0
C855 C 0.6733 0.49771 0.71597 0.0
C856 C 0.69487 0.51808 0.68143 0.0
C857 C 0.69828 0.51904 0.58067 0.0
C858 C 0.63325 0.45582 0.68459 0.0
C859 C 0.71421 0.5389 0.75092 0.0
C860 C 0.65685 0.51456 0.95778 0.0
C861 C 0.6705 0.50829 0.02397 0.0
C862 C 0.65597 0.50945 0.85674 0.0
C863 C 0.66888 0.49759 0.82155 0.0
C864 C 0.68054 0.48902 0.88858 0.0
C865 C 0.68139 0.49472 0.98935 0.0
C866 C 0.64305 0.5186 0.78752 0.0
C867 C 0.69355 0.4752 0.85559 0.0
H868 H 0.64614 0.46514 0.49681 0.0
H869 H 0.71458 0.5346 0.55309 0.0
H870 H 0.63972 0.44704 0.73882 0.0
H871 H 0.621 0.46137 0.72243 0.0
H872 H 0.62181 0.44196 0.6234 0.0
H873 H 0.72989 0.55337 0.71206 0.0
H874 H 0.70505 0.54756 0.79208 0.0
H875 H 0.72226 0.53156 0.80542 0.0
H876 H 0.64803 0.52475 0.9843 0.0
H877 H 0.69173 0.48966 0.04033 0.0
H878 H 0.63085 0.50399 0.72998 0.0
H879 H 0.65753 0.53445 0.74999 0.0
H880 H 0.63132 0.52468 0.82648 0.0
H881 H 0.69107 0.47048 0.77537 0.0
H882 H 0.68604 0.4578 0.89355 0.0
H883 H 0.71405 0.48641 0.87753 0.0
C884 C 0.54402 0.20629 0.54848 0.0
C885 C 0.52076 0.1925 0.49419 0.0
C886 C 0.54596 0.20416 0.64995 0.0
C887 C 0.52399 0.18834 0.69738 0.0
C888 C 0.50046 0.17451 0.64248 0.0
C889 C 0.49921 0.17663 0.5413 0.0
C890 C 0.5714 0.21867 0.70616 0.0
C891 C 0.47647 0.15776 0.69074 0.0
C892 C 0.51926 0.16181 0.94339 0.0
C893 C 0.51225 0.1763 -0.00073 0.0
C894 C 0.52592 0.16715 0.84662 0.0
C895 C 0.52479 0.18697 0.80514 0.0
C896 C 0.51958 0.20271 0.864 0.0
C897 C 0.51338 0.19714 0.96061 0.0
C898 C 0.53208 0.15039 0.78658 0.0
C899 C 0.51801 0.22392 0.82235 0.0
H900 H 0.56075 0.21832 0.51128 0.0
H901 H 0.48123 0.1662 0.49905 0.0
H902 H 0.57103 0.2317 0.76235 0.0
H903 H 0.57583 0.20601 0.7457 0.0
H904 H 0.5868 0.22932 0.65741 0.0
H905 H 0.45976 0.14841 0.63719 0.0
H906 H 0.47852 0.14343 0.72842 0.0
H907 H 0.47283 0.16858 0.74727 0.0
H908 H 0.51854 0.14577 0.97381 0.0
H909 H 0.50756 0.20812 0.00351 0.0
H910 H 0.5478 0.16118 0.73948 0.0
H911 H 0.51534 0.13743 0.73758 0.0
H912 H 0.53733 0.13939 0.8339 0.0
H913 H 0.53461 0.23518 0.77998 0.0
H914 H 0.5169 0.23613 0.88061 0.0
H915 H 0.50092 0.21655 0.77113 0.0
C916 C 0.81838 0.35057 0.59061 0.0
C917 C 0.83557 0.34453 0.55118 0.0
C918 C 0.81821 0.35433 0.69249 0.0
C919 C 0.83527 0.35143 0.7557 0.0
C920 C 0.85277 0.34553 0.7159 0.0
C921 C 0.8528 0.34232 0.61407 0.0
C922 C 0.79988 0.36138 0.73233 0.0
C923 C 0.87119 0.34206 0.78093 0.0
C924 C 0.85827 0.37334 0.01831 0.0
C925 C 0.84561 0.35094 0.06279 0.0
C926 C 0.85244 0.37477 0.91929 0.0
C927 C 0.83435 0.35305 0.86378 0.0
C928 C 0.81958 0.33118 0.91162 0.0
C929 C 0.82529 0.33048 0.01121 0.0
C930 C 0.86753 0.39882 0.87205 0.0
C931 C 0.80008 0.30756 0.85559 0.0
H932 H 0.80524 0.35262 0.54174 0.0
H933 H 0.86596 0.3375 0.58365 0.0
H934 H 0.78712 0.34728 0.78093 0.0
H935 H 0.81036 0.37908 0.77764 0.0
H936 H 0.78821 0.36338 0.67297 0.0
H937 H 0.88323 0.33711 0.73806 0.0
H938 H 0.88368 0.35928 0.82686 0.0
H939 H 0.86077 0.32728 0.83126 0.0
H940 H 0.87364 0.38934 0.05914 0.0
H941 H 0.81542 0.31316 0.0459 0.0
H942 H 0.85577 0.40129 0.81467 0.0
H943 H 0.88348 0.39882 0.83635 0.0
H944 H 0.87545 0.41479 0.92724 0.0
H945 H 0.7888 0.31106 0.7998 0.0
H946 H 0.78702 0.29393 0.90528 0.0
H947 H 0.80984 0.29924 0.81642 0.0
C948 C 0.35519 0.82233 0.35371 0.0
C949 C 0.34737 0.83776 0.39731 0.0
C950 C 0.35879 0.82251 0.25281 0.0
C951 C 0.35373 0.838 0.19495 0.0
C952 C 0.34531 0.8532 0.23892 0.0
C953 C 0.34259 0.85313 0.3399 0.0
C954 C 0.36849 0.80665 0.20881 0.0
C955 C 0.33901 0.8695 0.17932 0.0
C956 C 0.37795 0.86394 0.95433 0.0
C957 C 0.3559 0.85056 0.89268 0.0
C958 C 0.3787 0.85794 0.05177 0.0
C959 C 0.3567 0.83851 0.08794 0.0
C960 C 0.3354 0.82332 0.0229 0.0
C961 C 0.33529 0.82956 0.92569 0.0
C962 C 0.40203 0.87406 0.11847 0.0
C963 C 0.31161 0.80237 0.05859 0.0
H964 H 0.3591 0.81061 0.39893 0.0
H965 H 0.33629 0.86485 0.37389 0.0
H966 H 0.35606 0.7951 0.14421 0.0
H967 H 0.38751 0.81861 0.18253 0.0
H968 H 0.36984 0.79442 0.26259 0.0
H969 H 0.33193 0.87954 0.22468 0.0
H970 H 0.35604 0.88326 0.14452 0.0
H971 H 0.3244 0.85823 0.11961 0.0
H972 H 0.39407 0.87998 0.92842 0.0
H973 H 0.31817 0.81923 0.87822 0.0
H974 H 0.40581 0.86289 0.17026 0.0
H975 H 0.39908 0.88751 0.16265 0.0
H976 H 0.41891 0.88452 0.07609 0.0
H977 H 0.31611 0.79101 0.10657 0.0
H978 H 0.29824 0.79024 -0.00317 0.0
H979 H 0.302 0.81002 0.10284 0.0
C980 C 0.16567 0.52267 0.96176 0.0
C981 C 0.18036 0.51515 0.91159 0.0
C982 C 0.16128 0.51781 0.06059 0.0
C983 C 0.17286 0.50621 0.11033 0.0
C984 C 0.18755 0.49843 0.05912 0.0
C985 C 0.19084 0.50273 0.95966 0.0
C986 C 0.14467 0.52544 0.11205 0.0
C987 C 0.20054 0.48639 0.1101 0.0
C988 C 0.18621 0.51967 0.38549 0.0
C989 C 0.16813 0.4973 0.41966 0.0
C990 C 0.18804 0.52277 0.28455 0.0
C991 C 0.17074 0.50329 0.21708 0.0
C992 C 0.15205 0.48083 0.25155 0.0
C993 C 0.15124 0.47795 0.35274 0.0
C994 C 0.2087 0.54671 0.2501 0.0
C995 C 0.13276 0.46002 0.18173 0.0
H996 H 0.15761 0.53226 0.92363 0.0
H997 H 0.20242 0.4972 0.9202 0.0
H998 H 0.13021 0.50981 0.15059 0.0
H999 H 0.15622 0.54067 0.16837 0.0
H1000 H 0.13494 0.53176 0.06023 0.0
H1001 H 0.21113 0.48129 0.05916 0.0
H1002 H 0.21392 0.49916 0.17044 0.0
H1003 H 0.1865 0.4695 0.14359 0.0
H1004 H 0.19919 0.53454 0.43774 0.0
H1005 H 0.13695 0.46078 0.3797 0.0
H1006 H 0.20031 0.55593 0.20779 0.0
H1007 H 0.22043 0.54297 0.20021 0.0
H1008 H 0.22117 0.55962 0.31207 0.0
H1009 H 0.12195 0.46655 0.13727 0.0
H1010 H 0.11927 0.44385 0.22072 0.0
H1011 H 0.14233 0.45395 0.1298 0.0
C1012 C 0.49884 0.69765 0.37681 0.0
C1013 C 0.50604 0.68508 0.44107 0.0
C1014 C 0.50067 0.69527 0.27592 0.0
C1015 C 0.50943 0.67963 0.24013 0.0
C1016 C 0.5173 0.66742 0.305 0.0
C1017 C 0.51562 0.67044 0.40525 0.0
C1018 C 0.49274 0.70897 0.20762 0.0
C1019 C 0.52674 0.65063 0.26845 0.0
C1020 C 0.48797 0.65326 0.97956 0.0
C1021 C 0.50952 0.66877 0.93246 0.0
C1022 C 0.48782 0.65634 0.08128 0.0
C1023 C 0.50968 0.67545 0.13434 0.0
C1024 C 0.53165 0.69076 0.0864 0.0
C1025 C 0.53129 0.68715 0.98523 0.0
C1026 C 0.46428 0.63957 0.13172 0.0
C1027 C 0.55517 0.71139 0.14112 0.0
H1028 H 0.4916 0.70911 0.40527 0.0
H1029 H 0.52083 0.66051 0.4553 0.0
H1030 H 0.50813 0.71995 0.15946 0.0
H1031 H 0.47607 0.69559 0.15926 0.0
H1032 H 0.48786 0.72155 0.2481 0.0
H1033 H 0.53206 0.64248 0.32931 0.0
H1034 H 0.51192 0.63541 0.21878 0.0
H1035 H 0.54345 0.66099 0.22534 0.0
H1036 H 0.47127 0.6392 0.93684 0.0
H1037 H 0.54781 0.69907 0.94664 0.0
H1038 H 0.45665 0.65056 0.16627 0.0
H1039 H 0.46888 0.63059 0.19121 0.0
H1040 H 0.44933 0.62503 0.08002 0.0
H1041 H 0.551 0.72542 0.17273 0.0
H1042 H 0.57107 0.72058 0.09287 0.0
H1043 H 0.56131 0.70426 0.20314 0.0
loop_
_geom_bond_atom_site_label_1
_geom_bond_atom_site_label_2
_geom_bond_distance
_geom_bond_site_symmetry_2
_ccdc_geom_bond_type
Zn0 O6 1.969 1_455 S
Zn0 O7 1.965 1_455 S
Zn0 O11 2.024 . S
Zn0 O16 1.969 1_554 S
Zn1 O8 1.969 . S
Zn1 O14 1.969 . S
Zn1 O15 1.965 1_554 S
Zn1 O17 2.024 1_455 S
C2 O3 1.229 1_554 S
C2 O11 1.058 . S
O3 C2 1.229 1_556 S
C4 O5 1.229 . S
C4 O17 1.058 . S
O5 C4 1.229 . S
O6 Zn0 1.969 1_655 S
O6 C9 1.267 . S
O7 Zn0 1.965 1_655 S
O7 C18 1.260 1_655 S
O8 Zn1 1.969 . S
O8 C18 1.258 . S
C9 O6 1.267 . S
C9 O10 1.228 . S
O10 C9 1.228 . S
O11 Zn0 2.024 . S
O11 C2 1.058 . S
C12 O13 1.228 . S
C12 O14 1.267 1_556 S
O13 C12 1.228 . S
O14 Zn1 1.969 . S
O14 C12 1.267 1_554 S
O15 Zn1 1.965 1_556 S
O15 C19 1.260 . S
O16 Zn0 1.969 1_556 S
O16 C19 1.258 . S
O17 Zn1 2.024 1_655 S
O17 C4 1.058 . S
C18 O7 1.260 1_455 S
C18 O8 1.258 . S
C19 O15 1.260 . S
C19 O16 1.258 . S
Zn20 O26 1.969 . S
Zn20 O27 1.965 1_554 S
Zn20 O31 2.024 . S
Zn20 O36 1.969 . S
Zn21 O28 1.969 1_554 S
Zn21 O34 1.969 . S
Zn21 O35 1.965 . S
Zn21 O37 2.024 . S
C22 O23 1.229 . S
C22 O31 1.058 . S
O23 C22 1.229 . S
C24 O25 1.229 1_554 S
C24 O37 1.058 . S
O25 C24 1.229 1_556 S
O26 Zn20 1.969 . S
O26 C29 1.265 1_554 S
O27 Zn20 1.965 1_556 S
O27 C38 1.260 . S
O28 Zn21 1.969 1_556 S
O28 C38 1.258 . S
C29 O26 1.265 1_556 S
C29 O30 1.230 . S
O30 C29 1.230 . S
O31 Zn20 2.024 . S
O31 C22 1.058 . S
C32 O33 1.228 . S
C32 O34 1.267 . S
O33 C32 1.228 . S
O34 Zn21 1.969 . S
O34 C32 1.267 . S
O35 Zn21 1.965 . S
O35 C39 1.260 . S
O36 Zn20 1.969 . S
O36 C39 1.258 . S
O37 Zn21 2.024 . S
O37 C24 1.058 . S
C38 O27 1.260 . S
C38 O28 1.258 . S
C39 O35 1.260 . S
C39 O36 1.258 . S
Zn40 O46 1.970 . S
Zn40 O47 1.957 1_556 S
Zn40 O51 2.021 1_546 S
Zn40 O56 1.980 . S
Zn41 O48 1.969 . S
Zn41 O54 1.969 1_545 S
Zn41 O55 1.965 1_544 S
Zn41 O57 2.024 1_554 S
C42 O43 1.229 . S
C42 O51 1.058 1_556 S
O43 C42 1.229 . S
C44 O45 1.229 . S
C44 O57 1.058 1_554 S
O45 C44 1.229 . S
O46 Zn40 1.970 . S
O46 C49 1.267 1_556 S
O47 Zn40 1.957 1_554 S
O47 C58 1.260 . S
O48 Zn41 1.969 . S
O48 C58 1.258 . S
C49 O46 1.267 1_554 S
C49 O50 1.228 . S
O50 C49 1.228 . S
O51 Zn40 2.021 1_564 S
O51 C42 1.058 1_554 S
C52 O53 1.228 . S
C52 O54 1.267 1_556 S
O53 C52 1.228 . S
O54 Zn41 1.969 1_565 S
O54 C52 1.267 1_554 S
O55 Zn41 1.965 1_566 S
O55 C59 1.260 1_565 S
O56 Zn40 1.980 . S
O56 C59 1.258 . S
O57 Zn41 2.024 1_556 S
O57 C44 1.058 1_556 S
C58 O47 1.260 . S
C58 O48 1.258 . S
C59 O55 1.260 1_545 S
C59 O56 1.258 . S
Zn60 O66 1.969 . S
Zn60 O67 1.965 . S
Zn60 O71 2.024 . S
Zn60 O76 1.969 . S
Zn61 O68 1.969 . S
Zn61 O74 1.969 . S
Zn61 O75 1.965 . S
Zn61 O77 2.024 . S
C62 O63 1.229 . S
C62 O71 1.058 . S
O63 C62 1.229 . S
C64 O65 1.229 . S
C64 O77 1.058 . S
O65 C64 1.229 . S
O66 Zn60 1.969 . S
O66 C69 1.267 . S
O67 Zn60 1.965 . S
O67 C78 1.260 . S
O68 Zn61 1.969 . S
O68 C78 1.258 . S
C69 O66 1.267 . S
C69 O70 1.228 . S
O70 C69 1.228 . S
O71 Zn60 2.024 . S
O71 C62 1.058 . S
C72 O73 1.228 . S
C72 O74 1.267 . S
O73 C72 1.228 . S
O74 Zn61 1.969 . S
O74 C72 1.267 . S
O75 Zn61 1.965 . S
O75 C79 1.260 . S
O76 Zn60 1.969 . S
O76 C79 1.258 . S
O77 Zn61 2.024 . S
O77 C64 1.058 . S
C78 O67 1.260 . S
C78 O68 1.258 . S
C79 O75 1.260 . S
C79 O76 1.258 . S
Zn80 O86 1.969 . S
Zn80 O87 1.965 . S
Zn80 O91 2.024 . S
Zn80 O96 1.969 . S
Zn81 O88 1.969 . S
Zn81 O94 1.969 . S
Zn81 O95 1.965 . S
Zn81 O97 2.024 . S
C82 O83 1.229 . S
C82 O91 1.058 . S
O83 C82 1.229 . S
C84 O85 1.229 . S
C84 O97 1.058 . S
O85 C84 1.229 . S
O86 Zn80 1.969 . S
O86 C89 1.267 . S
O87 Zn80 1.965 . S
O87 C98 1.260 . S
O88 Zn81 1.969 . S
O88 C98 1.258 . S
C89 O86 1.267 . S
C89 O90 1.228 . S
O90 C89 1.228 . S
O91 Zn80 2.024 . S
O91 C82 1.058 . S
C92 O93 1.228 . S
C92 O94 1.267 . S
O93 C92 1.228 . S
O94 Zn81 1.969 . S
O94 C92 1.267 . S
O95 Zn81 1.965 . S
O95 C99 1.260 . S
O96 Zn80 1.969 . S
O96 C99 1.258 . S
O97 Zn81 2.024 . S
O97 C84 1.058 . S
C98 O87 1.260 . S
C98 O88 1.258 . S
C99 O95 1.260 . S
C99 O96 1.258 . S
Zn100 O106 1.969 . S
Zn100 O107 1.965 . S
Zn100 O111 2.024 . S
Zn100 O116 1.969 . S
Zn101 O108 1.969 . S
Zn101 O114 1.969 . S
Zn101 O115 1.965 . S
Zn101 O117 2.024 . S
C102 O103 1.229 . S
C102 O111 1.058 . S
O103 C102 1.229 . S
C104 O105 1.229 . S
C104 O117 1.058 . S
O105 C104 1.229 . S
O106 Zn100 1.969 . S
O106 C109 1.267 . S
O107 Zn100 1.965 . S
O107 C118 1.260 . S
O108 Zn101 1.969 . S
O108 C118 1.258 . S
C109 O106 1.267 . S
C109 O110 1.228 . S
O110 C109 1.228 . S
O111 Zn100 2.024 . S
O111 C102 1.058 . S
C112 O113 1.228 . S
C112 O114 1.267 . S
O113 C112 1.228 . S
O114 Zn101 1.969 . S
O114 C112 1.267 . S
O115 Zn101 1.965 . S
O115 C119 1.260 . S
O116 Zn100 1.969 . S
O116 C119 1.258 . S
O117 Zn101 2.024 . S
O117 C104 1.058 . S
C118 O107 1.260 . S
C118 O108 1.258 . S
C119 O115 1.260 . S
C119 O116 1.258 . S
Zn120 O126 1.969 . S
Zn120 O127 1.965 . S
Zn120 O131 2.024 . S
Zn120 O136 1.969 . S
Zn121 O128 1.969 . S
Zn121 O134 1.969 . S
Zn121 O135 1.965 . S
Zn121 O137 2.024 . S
C122 O123 1.229 . S
C122 O131 1.058 . S
O123 C122 1.229 . S
C124 O125 1.229 . S
C124 O137 1.058 . S
O125 C124 1.229 . S
O126 Zn120 1.969 . S
O126 C129 1.267 . S
O127 Zn120 1.965 . S
O127 C138 1.260 . S
O128 Zn121 1.969 . S
O128 C138 1.258 . S
C129 O126 1.267 . S
C129 O130 1.228 . S
O130 C129 1.228 . S
O131 Zn120 2.024 . S
O131 C122 1.058 . S
C132 O133 1.228 . S
C132 O134 1.267 . S
O133 C132 1.228 . S
O134 Zn121 1.969 . S
O134 C132 1.267 . S
O135 Zn121 1.965 . S
O135 C139 1.260 . S
O136 Zn120 1.969 . S
O136 C139 1.258 . S
O137 Zn121 2.024 . S
O137 C124 1.058 . S
C138 O127 1.260 . S
C138 O128 1.258 . S
C139 O135 1.260 . S
C139 O136 1.258 . S
Zn140 O146 1.969 . S
Zn140 O147 1.965 . S
Zn140 O151 2.024 . S
Zn140 O156 1.969 . S
Zn141 O148 1.969 . S
Zn141 O154 1.969 . S
Zn141 O155 1.965 . S
Zn141 O157 2.024 . S
C142 O143 1.229 . S
C142 O151 1.058 . S
O143 C142 1.229 . S
C144 O145 1.229 . S
C144 O157 1.058 . S
O145 C144 1.229 . S
O146 Zn140 1.969 . S
O146 C149 1.267 . S
O147 Zn140 1.965 . S
O147 C158 1.260 . S
O148 Zn141 1.969 . S
O148 C158 1.258 . S
C149 O146 1.267 . S
C149 O150 1.228 . S
O150 C149 1.228 . S
O151 Zn140 2.024 . S
O151 C142 1.058 . S
C152 O153 1.228 . S
C152 O154 1.267 . S
O153 C152 1.228 . S
O154 Zn141 1.969 . S
O154 C152 1.267 . S
O155 Zn141 1.965 . S
O155 C159 1.260 . S
O156 Zn140 1.969 . S
O156 C159 1.258 . S
O157 Zn141 2.024 . S
O157 C144 1.058 . S
C158 O147 1.260 . S
C158 O148 1.258 . S
C159 O155 1.260 . S
C159 O156 1.258 . S
Zn160 O166 1.969 . S
Zn160 O167 1.965 . S
Zn160 O171 2.024 . S
Zn160 O176 1.969 . S
Zn161 O168 1.969 . S
Zn161 O174 1.969 . S
Zn161 O175 1.965 . S
Zn161 O177 2.024 . S
C162 O163 1.229 . S
C162 O171 1.058 . S
O163 C162 1.229 . S
C164 O165 1.229 . S
C164 O177 1.058 . S
O165 C164 1.229 . S
O166 Zn160 1.969 . S
O166 C169 1.267 . S
O167 Zn160 1.965 . S
O167 C178 1.260 . S
O168 Zn161 1.969 . S
O168 C178 1.258 . S
C169 O166 1.267 . S
C169 O170 1.228 . S
O170 C169 1.228 . S
O171 Zn160 2.024 . S
O171 C162 1.058 . S
C172 O173 1.228 . S
C172 O174 1.267 . S
O173 C172 1.228 . S
O174 Zn161 1.969 . S
O174 C172 1.267 . S
O175 Zn161 1.965 . S
O175 C179 1.260 . S
O176 Zn160 1.969 . S
O176 C179 1.258 . S
O177 Zn161 2.024 . S
O177 C164 1.058 . S
C178 O167 1.260 . S
C178 O168 1.258 . S
C179 O175 1.260 . S
C179 O176 1.258 . S
C180 C181 1.391 . S
C180 C182 1.394 . S
C180 H196 0.931 1_556 S
C181 C180 1.391 . S
C181 C185 1.376 . S
C182 C180 1.394 . S
C182 C183 1.369 . S
C182 C186 1.531 . S
C183 C182 1.369 . S
C183 C184 1.410 . S
C183 C191 1.503 . S
C184 C183 1.410 . S
C184 C185 1.392 . S
C184 C187 1.511 . S
C185 C181 1.376 . S
C185 C184 1.392 . S
C185 H197 0.929 . S
C186 C182 1.531 . S
C186 H198 0.960 . S
C186 H199 0.962 . S
C186 H200 0.960 1_556 S
C187 C184 1.511 . S
C187 H201 0.961 . S
C187 H202 0.961 . S
C187 H203 0.961 . S
C188 C189 1.370 . S
C188 C190 1.363 . S
C188 H204 0.931 . S
C189 C188 1.370 . S
C189 C193 1.408 . S
C190 C188 1.363 . S
C190 C191 1.370 . S
C190 C194 1.524 . S
C191 C183 1.503 . S
C191 C190 1.370 . S
C191 C192 1.403 . S
C192 C191 1.403 . S
C192 C193 1.404 . S
C192 C195 1.539 1_556 S
C193 C189 1.408 . S
C193 C192 1.404 . S
C193 H205 0.930 . S
C194 C190 1.524 . S
C194 H206 0.956 . S
C194 H207 0.961 . S
C194 H208 0.961 . S
C195 C192 1.539 1_554 S
C195 H209 0.958 . S
C195 H210 0.961 . S
C195 H211 0.960 . S
H196 C180 0.931 1_554 S
H197 C185 0.929 . S
H198 C186 0.960 . S
H199 C186 0.962 . S
H200 C186 0.960 1_554 S
H201 C187 0.961 . S
H202 C187 0.961 . S
H203 C187 0.961 . S
H204 C188 0.931 . S
H205 C193 0.930 . S
H206 C194 0.956 . S
H207 C194 0.961 . S
H208 C194 0.961 . S
H209 C195 0.958 . S
H210 C195 0.961 . S
H211 C195 0.960 . S
C212 C213 1.391 . S
C212 C214 1.394 . S
C212 H228 0.931 1_556 S
C213 C212 1.391 . S
C213 C217 1.376 . S
C214 C212 1.394 . S
C214 C215 1.369 . S
C214 C218 1.531 . S
C215 C214 1.369 . S
C215 C216 1.410 . S
C215 C223 1.503 . S
C216 C215 1.410 . S
C216 C217 1.392 . S
C216 C219 1.511 . S
C217 C213 1.376 . S
C217 C216 1.392 . S
C217 H229 0.929 . S
C218 C214 1.531 . S
C218 H230 0.960 . S
C218 H231 0.962 . S
C218 H232 0.960 . S
C219 C216 1.511 . S
C219 H233 0.961 . S
C219 H234 0.961 . S
C219 H235 0.961 . S
C220 C221 1.370 . S
C220 C222 1.363 . S
C220 H236 0.931 . S
C221 C220 1.370 . S
C221 C225 1.408 . S
C222 C220 1.363 . S
C222 C223 1.370 . S
C222 C226 1.524 1_556 S
C223 C215 1.503 . S
C223 C222 1.370 . S
C223 C224 1.403 . S
C224 C223 1.403 . S
C224 C225 1.404 . S
C224 C227 1.539 . S
C225 C221 1.408 . S
C225 C224 1.404 . S
C225 H237 0.930 . S
C226 C222 1.524 1_554 S
C226 H238 0.956 . S
C226 H239 0.961 . S
C226 H240 0.961 . S
C227 C224 1.539 . S
C227 H241 0.958 . S
C227 H242 0.961 . S
C227 H243 0.960 . S
H228 C212 0.931 1_554 S
H229 C217 0.929 . S
H230 C218 0.960 . S
H231 C218 0.962 . S
H232 C218 0.960 . S
H233 C219 0.961 . S
H234 C219 0.961 . S
H235 C219 0.961 . S
H236 C220 0.931 . S
H237 C225 0.930 . S
H238 C226 0.956 . S
H239 C226 0.961 . S
H240 C226 0.961 . S
H241 C227 0.958 . S
H242 C227 0.961 . S
H243 C227 0.960 . S
C244 C245 1.391 . S
C244 C246 1.394 . S
C244 H260 0.931 1_556 S
C245 C244 1.391 . S
C245 C249 1.376 . S
C246 C244 1.394 . S
C246 C247 1.369 . S
C246 C250 1.534 . S
C247 C246 1.369 . S
C247 C248 1.410 . S
C247 C255 1.503 . S
C248 C247 1.410 . S
C248 C249 1.392 . S
C248 C251 1.511 . S
C249 C245 1.376 . S
C249 C248 1.392 . S
C249 H261 0.929 . S
C250 C246 1.534 . S
C250 H262 0.963 . S
C250 H263 0.960 1_556 S
C250 H264 0.955 1_556 S
C251 C248 1.511 . S
C251 H265 0.961 . S
C251 H266 0.961 . S
C251 H267 0.961 . S
C252 C253 1.370 . S
C252 C254 1.363 . S
C252 H268 0.931 . S
C253 C252 1.370 . S
C253 C257 1.408 . S
C254 C252 1.363 . S
C254 C255 1.370 . S
C254 C258 1.524 . S
C255 C247 1.503 . S
C255 C254 1.370 . S
C255 C256 1.403 . S
C256 C255 1.403 . S
C256 C257 1.404 . S
C256 C259 1.539 . S
C257 C253 1.408 . S
C257 C256 1.404 . S
C257 H269 0.930 . S
C258 C254 1.524 . S
C258 H270 0.956 . S
C258 H271 0.961 . S
C258 H272 0.961 . S
C259 C256 1.539 . S
C259 H273 0.958 . S
C259 H274 0.961 . S
C259 H275 0.960 . S
H260 C244 0.931 1_554 S
H261 C249 0.929 . S
H262 C250 0.963 . S
H263 C250 0.960 1_554 S
H264 C250 0.955 1_554 S
H265 C251 0.961 . S
H266 C251 0.961 . S
H267 C251 0.961 . S
H268 C252 0.931 . S
H269 C257 0.930 . S
H270 C258 0.956 . S
H271 C258 0.961 . S
H272 C258 0.961 . S
H273 C259 0.958 . S
H274 C259 0.961 . S
H275 C259 0.960 . S
C276 C277 1.391 . S
C276 C278 1.394 . S
C276 H292 0.931 . S
C277 C276 1.391 . S
C277 C281 1.376 . S
C278 C276 1.394 . S
C278 C279 1.369 . S
C278 C282 1.531 . S
C279 C278 1.369 . S
C279 C280 1.410 . S
C279 C287 1.503 . S
C280 C279 1.410 . S
C280 C281 1.392 . S
C280 C283 1.511 . S
C281 C277 1.376 . S
C281 C280 1.392 . S
C281 H293 0.929 . S
C282 C278 1.531 . S
C282 H294 0.960 . S
C282 H295 0.962 . S
C282 H296 0.960 . S
C283 C280 1.511 . S
C283 H297 0.961 . S
C283 H298 0.961 . S
C283 H299 0.961 . S
C284 C285 1.370 1_556 S
C284 C286 1.363 1_556 S
C284 H300 0.931 . S
C285 C284 1.370 1_554 S
C285 C289 1.408 . S
C286 C284 1.363 1_554 S
C286 C287 1.370 . S
C286 C290 1.524 1_554 S
C287 C279 1.503 . S
C287 C286 1.370 . S
C287 C288 1.403 . S
C288 C287 1.403 . S
C288 C289 1.404 . S
C288 C291 1.539 . S
C289 C285 1.408 . S
C289 C288 1.404 . S
C289 H301 0.930 . S
C290 C286 1.524 1_556 S
C290 H302 0.956 . S
C290 H303 0.961 . S
C290 H304 0.961 . S
C291 C288 1.539 . S
C291 H305 0.958 . S
C291 H306 0.961 . S
C291 H307 0.960 . S
H292 C276 0.931 . S
H293 C281 0.929 . S
H294 C282 0.960 . S
H295 C282 0.962 . S
H296 C282 0.960 . S
H297 C283 0.961 . S
H298 C283 0.961 . S
H299 C283 0.961 . S
H300 C284 0.931 . S
H301 C289 0.930 . S
H302 C290 0.956 . S
H303 C290 0.961 . S
H304 C290 0.961 . S
H305 C291 0.958 . S
H306 C291 0.961 . S
H307 C291 0.960 . S
C308 C309 1.391 . S
C308 C310 1.394 . S
C308 H324 0.931 . S
C309 C308 1.391 . S
C309 C313 1.376 . S
C310 C308 1.394 . S
C310 C311 1.369 . S
C310 C314 1.531 . S
C311 C310 1.369 . S
C311 C312 1.410 . S
C311 C319 1.503 . S
C312 C311 1.410 . S
C312 C313 1.392 . S
C312 C315 1.511 . S
C313 C309 1.376 . S
C313 C312 1.392 . S
C313 H325 0.929 . S
C314 C310 1.531 . S
C314 H326 0.960 . S
C314 H327 0.962 . S
C314 H328 0.960 . S
C315 C312 1.511 . S
C315 H329 0.961 . S
C315 H330 0.961 . S
C315 H331 0.961 . S
C316 C317 1.370 . S
C316 C318 1.363 . S
C316 H332 0.931 . S
C317 C316 1.370 . S
C317 C321 1.408 . S
C318 C316 1.363 . S
C318 C319 1.370 . S
C318 C322 1.524 . S
C319 C311 1.503 . S
C319 C318 1.370 . S
C319 C320 1.403 . S
C320 C319 1.403 . S
C320 C321 1.404 . S
C320 C323 1.539 1_554 S
C321 C317 1.408 . S
C321 C320 1.404 . S
C321 H333 0.930 1_554 S
C322 C318 1.524 . S
C322 H334 0.956 . S
C322 H335 0.961 . S
C322 H336 0.961 . S
C323 C320 1.539 1_556 S
C323 H337 0.958 . S
C323 H338 0.961 . S
C323 H339 0.960 . S
H324 C308 0.931 . S
H325 C313 0.929 . S
H326 C314 0.960 . S
H327 C314 0.962 . S
H328 C314 0.960 . S
H329 C315 0.961 . S
H330 C315 0.961 . S
H331 C315 0.961 . S
H332 C316 0.931 . S
H333 C321 0.930 1_556 S
H334 C322 0.956 . S
H335 C322 0.961 . S
H336 C322 0.961 . S
H337 C323 0.958 . S
H338 C323 0.961 . S
H339 C323 0.960 . S
C340 C341 1.391 . S
C340 C342 1.394 . S
C340 H356 0.931 . S
C341 C340 1.391 . S
C341 C345 1.376 . S
C342 C340 1.394 . S
C342 C343 1.369 . S
C342 C346 1.531 . S
C343 C342 1.369 . S
C343 C344 1.410 . S
C343 C351 1.503 . S
C344 C343 1.410 . S
C344 C345 1.392 . S
C344 C347 1.511 . S
C345 C341 1.376 . S
C345 C344 1.392 . S
C345 H357 0.929 . S
C346 C342 1.531 . S
C346 H358 0.960 . S
C346 H359 0.962 . S
C346 H360 0.960 . S
C347 C344 1.511 . S
C347 H361 0.961 . S
C347 H362 0.961 . S
C347 H363 0.961 . S
C348 C349 1.370 . S
C348 C350 1.363 . S
C348 H364 0.931 . S
C349 C348 1.370 . S
C349 C353 1.408 . S
C350 C348 1.363 . S
C350 C351 1.370 . S
C350 C354 1.524 . S
C351 C343 1.503 . S
C351 C350 1.370 . S
C351 C352 1.403 . S
C352 C351 1.403 . S
C352 C353 1.404 . S
C352 C355 1.539 . S
C353 C349 1.408 . S
C353 C352 1.404 . S
C353 H365 0.930 . S
C354 C350 1.524 . S
C354 H366 0.956 . S
C354 H367 0.961 . S
C354 H368 0.961 1_554 S
C355 C352 1.539 . S
C355 H369 0.958 . S
C355 H370 0.961 . S
C355 H371 0.960 . S
H356 C340 0.931 . S
H357 C345 0.929 . S
H358 C346 0.960 . S
H359 C346 0.962 . S
H360 C346 0.960 . S
H361 C347 0.961 . S
H362 C347 0.961 . S
H363 C347 0.961 . S
H364 C348 0.931 . S
H365 C353 0.930 . S
H366 C354 0.956 . S
H367 C354 0.961 . S
H368 C354 0.961 1_556 S
H369 C355 0.958 . S
H370 C355 0.961 . S
H371 C355 0.960 . S
C372 C373 1.391 . S
C372 C374 1.394 . S
C372 H388 0.931 . S
C373 C372 1.391 . S
C373 C377 1.376 . S
C374 C372 1.394 . S
C374 C375 1.369 . S
C374 C378 1.531 . S
C375 C374 1.369 . S
C375 C376 1.410 . S
C375 C383 1.503 . S
C376 C375 1.410 . S
C376 C377 1.392 . S
C376 C379 1.511 . S
C377 C373 1.376 . S
C377 C376 1.392 . S
C377 H389 0.929 . S
C378 C374 1.531 . S
C378 H390 0.960 1_455 S
C378 H391 0.962 . S
C378 H392 0.960 . S
C379 C376 1.511 . S
C379 H393 0.961 . S
C379 H394 0.961 . S
C379 H395 0.961 . S
C380 C381 1.370 . S
C380 C382 1.396 . S
C380 H396 0.931 . S
C381 C380 1.370 . S
C381 C385 1.408 . S
C382 C380 1.396 . S
C382 C383 1.381 1_655 S
C382 C386 1.482 1_655 S
C383 C375 1.503 . S
C383 C382 1.381 1_455 S
C383 C384 1.403 1_455 S
C384 C383 1.403 1_655 S
C384 C385 1.404 . S
C384 C387 1.539 . S
C385 C381 1.408 . S
C385 C384 1.404 . S
C385 H397 0.930 . S
C386 C382 1.482 1_455 S
C386 H398 0.956 . S
C386 H399 0.961 . S
C386 H400 0.961 . S
C387 C384 1.539 . S
C387 H401 0.958 . S
C387 H402 0.961 . S
C387 H403 0.967 . S
H388 C372 0.931 . S
H389 C377 0.929 . S
H390 C378 0.960 1_655 S
H391 C378 0.962 . S
H392 C378 0.960 . S
H393 C379 0.961 . S
H394 C379 0.961 . S
H395 C379 0.961 . S
H396 C380 0.931 . S
H397 C385 0.930 . S
H398 C386 0.956 . S
H399 C386 0.961 . S
H400 C386 0.961 . S
H401 C387 0.958 . S
H402 C387 0.961 . S
H403 C387 0.967 . S
C404 C405 1.391 . S
C404 C406 1.394 . S
C404 H420 0.931 . S
C405 C404 1.391 . S
C405 C409 1.376 . S
C406 C404 1.394 . S
C406 C407 1.369 . S
C406 C410 1.531 . S
C407 C406 1.369 . S
C407 C408 1.410 . S
C407 C415 1.503 . S
C408 C407 1.410 . S
C408 C409 1.392 . S
C408 C411 1.511 . S
C409 C405 1.376 . S
C409 C408 1.392 . S
C409 H421 0.929 . S
C410 C406 1.531 . S
C410 H422 0.960 . S
C410 H423 0.962 . S
C410 H424 0.960 . S
C411 C408 1.511 . S
C411 H425 0.961 . S
C411 H426 0.961 . S
C411 H427 0.961 . S
C412 C413 1.370 . S
C412 C414 1.363 . S
C412 H428 0.931 . S
C413 C412 1.370 . S
C413 C417 1.408 . S
C414 C412 1.363 . S
C414 C415 1.370 . S
C414 C418 1.524 . S
C415 C407 1.503 . S
C415 C414 1.370 . S
C415 C416 1.403 . S
C416 C415 1.403 . S
C416 C417 1.404 . S
C416 C419 1.539 . S
C417 C413 1.408 . S
C417 C416 1.404 . S
C417 H429 0.930 . S
C418 C414 1.524 . S
C418 H430 0.956 . S
C418 H431 0.961 . S
C418 H432 0.961 . S
C419 C416 1.539 . S
C419 H433 0.958 . S
C419 H434 0.961 . S
C419 H435 0.960 . S
H420 C404 0.931 . S
H421 C409 0.929 . S
H422 C410 0.960 . S
H423 C410 0.962 . S
H424 C410 0.960 . S
H425 C411 0.961 . S
H426 C411 0.961 . S
H427 C411 0.961 . S
H428 C412 0.931 . S
H429 C417 0.930 . S
H430 C418 0.956 . S
H431 C418 0.961 . S
H432 C418 0.961 . S
H433 C419 0.958 . S
H434 C419 0.961 . S
H435 C419 0.960 . S
C436 C437 1.391 . S
C436 C438 1.394 . S
C436 H452 0.931 . S
C437 C436 1.391 . S
C437 C441 1.376 . S
C438 C436 1.394 . S
C438 C439 1.369 . S
C438 C442 1.531 . S
C439 C438 1.369 . S
C439 C440 1.410 . S
C439 C447 1.503 1_545 S
C440 C439 1.410 . S
C440 C441 1.392 . S
C440 C443 1.511 1_545 S
C441 C437 1.376 . S
C441 C440 1.392 . S
C441 H453 0.929 . S
C442 C438 1.531 . S
C442 H454 0.960 . S
C442 H455 0.962 . S
C442 H456 0.960 . S
C443 C440 1.511 1_565 S
C443 H457 0.960 1_565 S
C443 H458 0.961 . S
C443 H459 0.961 . S
C444 C445 1.370 . S
C444 C446 1.363 . S
C444 H460 0.931 . S
C445 C444 1.370 . S
C445 C449 1.408 . S
C446 C444 1.363 . S
C446 C447 1.370 . S
C446 C450 1.524 1_565 S
C447 C439 1.503 1_565 S
C447 C446 1.370 . S
C447 C448 1.403 . S
C448 C447 1.403 . S
C448 C449 1.404 . S
C448 C451 1.539 . S
C449 C445 1.408 . S
C449 C448 1.404 . S
C449 H461 0.930 . S
C450 C446 1.524 1_545 S
C450 H462 0.956 . S
C450 H463 0.961 . S
C450 H464 0.961 . S
C451 C448 1.539 . S
C451 H465 0.958 . S
C451 H466 0.961 . S
C451 H467 0.960 . S
H452 C436 0.931 . S
H453 C441 0.929 . S
H454 C442 0.960 . S
H455 C442 0.962 . S
H456 C442 0.960 . S
H457 C443 0.960 1_545 S
H458 C443 0.961 . S
H459 C443 0.961 . S
H460 C444 0.931 . S
H461 C449 0.930 . S
H462 C450 0.956 . S
H463 C450 0.961 . S
H464 C450 0.961 . S
H465 C451 0.958 . S
H466 C451 0.961 . S
H467 C451 0.960 . S
C468 C469 1.391 . S
C468 C470 1.394 . S
C468 H484 0.931 . S
C469 C468 1.391 . S
C469 C473 1.376 . S
C470 C468 1.394 . S
C470 C471 1.369 . S
C470 C474 1.531 . S
C471 C470 1.369 . S
C471 C472 1.410 . S
C471 C479 1.503 . S
C472 C471 1.410 . S
C472 C473 1.392 . S
C472 C475 1.511 1_554 S
C473 C469 1.376 . S
C473 C472 1.392 . S
C473 H485 0.929 1_554 S
C474 C470 1.531 . S
C474 H486 0.960 . S
C474 H487 0.962 . S
C474 H488 0.960 . S
C475 C472 1.511 1_556 S
C475 H489 0.961 . S
C475 H490 0.961 . S
C475 H491 0.961 1_556 S
C476 C477 1.370 1_556 S
C476 C478 1.363 . S
C476 H492 0.931 . S
C477 C476 1.370 1_554 S
C477 C481 1.408 . S
C478 C476 1.363 . S
C478 C479 1.370 1_556 S
C478 C482 1.524 . S
C479 C471 1.503 . S
C479 C478 1.370 1_554 S
C479 C480 1.403 . S
C480 C479 1.403 . S
C480 C481 1.404 . S
C480 C483 1.539 . S
C481 C477 1.408 . S
C481 C480 1.404 . S
C481 H493 0.930 . S
C482 C478 1.524 . S
C482 H494 0.956 . S
C482 H495 0.961 . S
C482 H496 0.961 . S
C483 C480 1.539 . S
C483 H497 0.958 . S
C483 H498 0.961 . S
C483 H499 0.960 . S
H484 C468 0.931 . S
H485 C473 0.929 1_556 S
H486 C474 0.960 . S
H487 C474 0.962 . S
H488 C474 0.960 . S
H489 C475 0.961 . S
H490 C475 0.961 . S
H491 C475 0.961 1_554 S
H492 C476 0.931 . S
H493 C481 0.930 . S
H494 C482 0.956 . S
H495 C482 0.961 . S
H496 C482 0.961 . S
H497 C483 0.958 . S
H498 C483 0.961 . S
H499 C483 0.960 . S
C500 C501 1.391 1_556 S
C500 C502 1.394 . S
C500 H516 0.931 . S
C501 C500 1.391 1_554 S
C501 C505 1.376 . S
C502 C500 1.394 . S
C502 C503 1.369 1_556 S
C502 C506 1.531 . S
C503 C502 1.369 1_554 S
C503 C504 1.410 . S
C503 C511 1.503 1_565 S
C504 C503 1.410 . S
C504 C505 1.392 . S
C504 C507 1.511 . S
C505 C501 1.376 . S
C505 C504 1.392 . S
C505 H517 0.929 . S
C506 C502 1.531 . S
C506 H518 0.960 1_565 S
C506 H519 0.964 . S
C506 H520 0.960 . S
C507 C504 1.511 . S
C507 H521 0.961 . S
C507 H522 0.961 1_565 S
C507 H523 0.961 . S
C508 C509 1.370 . S
C508 C510 1.363 1_554 S
C508 H524 0.931 1_554 S
C509 C508 1.370 . S
C509 C513 1.408 . S
C510 C508 1.363 1_556 S
C510 C511 1.370 1_556 S
C510 C514 1.524 . S
C511 C503 1.503 1_545 S
C511 C510 1.370 1_554 S
C511 C512 1.403 . S
C512 C511 1.403 . S
C512 C513 1.404 . S
C512 C515 1.539 . S
C513 C509 1.408 . S
C513 C512 1.404 . S
C513 H525 0.930 . S
C514 C510 1.524 . S
C514 H526 0.956 . S
C514 H527 0.961 . S
C514 H528 0.961 . S
C515 C512 1.539 . S
C515 H529 0.958 . S
C515 H530 0.961 . S
C515 H531 0.960 . S
H516 C500 0.931 . S
H517 C505 0.929 . S
H518 C506 0.960 1_545 S
H519 C506 0.964 . S
H520 C506 0.960 . S
H521 C507 0.961 . S
H522 C507 0.961 1_545 S
H523 C507 0.961 . S
H524 C508 0.931 1_556 S
H525 C513 0.930 . S
H526 C514 0.956 . S
H527 C514 0.961 . S
H528 C514 0.961 . S
H529 C515 0.958 . S
H530 C515 0.961 . S
H531 C515 0.960 . S
C532 C533 1.391 1_556 S
C532 C534 1.394 . S
C532 H548 0.931 . S
C533 C532 1.391 1_554 S
C533 C537 1.376 . S
C534 C532 1.394 . S
C534 C535 1.369 1_556 S
C534 C538 1.531 . S
C535 C534 1.369 1_554 S
C535 C536 1.410 . S
C535 C543 1.504 1_655 S
C536 C535 1.410 . S
C536 C537 1.392 . S
C536 C539 1.511 . S
C537 C533 1.376 . S
C537 C536 1.392 . S
C537 H549 0.929 . S
C538 C534 1.531 . S
C538 H550 0.960 1_655 S
C538 H551 0.962 . S
C538 H552 0.960 . S
C539 C536 1.511 . S
C539 H553 0.961 . S
C539 H554 0.961 1_655 S
C539 H555 0.961 . S
C540 C541 1.370 1_554 S
C540 C542 1.363 . S
C540 H556 0.931 . S
C541 C540 1.370 1_556 S
C541 C545 1.408 . S
C542 C540 1.363 . S
C542 C543 1.375 . S
C542 C546 1.524 . S
C543 C535 1.504 1_455 S
C543 C542 1.375 . S
C543 C544 1.397 1_554 S
C544 C543 1.397 1_556 S
C544 C545 1.404 . S
C544 C547 1.539 . S
C545 C541 1.408 . S
C545 C544 1.404 . S
C545 H557 0.930 . S
C546 C542 1.524 . S
C546 H558 0.956 . S
C546 H559 0.961 . S
C546 H560 0.961 . S
C547 C544 1.539 . S
C547 H561 0.958 . S
C547 H562 0.961 . S
C547 H563 0.960 1_455 S
H548 C532 0.931 . S
H549 C537 0.929 . S
H550 C538 0.960 1_455 S
H551 C538 0.962 . S
H552 C538 0.960 . S
H553 C539 0.961 . S
H554 C539 0.961 1_455 S
H555 C539 0.961 . S
H556 C540 0.931 . S
H557 C545 0.930 . S
H558 C546 0.956 . S
H559 C546 0.961 . S
H560 C546 0.961 . S
H561 C547 0.958 . S
H562 C547 0.961 . S
H563 C547 0.960 1_655 S
C564 C565 1.391 . S
C564 C566 1.394 . S
C564 H580 0.931 . S
C565 C564 1.391 . S
C565 C569 1.376 . S
C566 C564 1.394 . S
C566 C567 1.369 . S
C566 C570 1.531 . S
C567 C566 1.369 . S
C567 C568 1.410 . S
C567 C575 1.503 . S
C568 C567 1.410 . S
C568 C569 1.392 . S
C568 C571 1.511 . S
C569 C565 1.376 . S
C569 C568 1.392 . S
C569 H581 0.929 . S
C570 C566 1.531 . S
C570 H582 0.960 . S
C570 H583 0.962 . S
C570 H584 0.960 . S
C571 C568 1.511 . S
C571 H585 0.961 . S
C571 H586 0.961 . S
C571 H587 0.961 . S
C572 C573 1.370 . S
C572 C574 1.363 . S
C572 H588 0.931 . S
C573 C572 1.370 . S
C573 C577 1.408 . S
C574 C572 1.363 . S
C574 C575 1.370 . S
C574 C578 1.524 . S
C575 C567 1.503 . S
C575 C574 1.370 . S
C575 C576 1.403 . S
C576 C575 1.403 . S
C576 C577 1.404 . S
C576 C579 1.539 . S
C577 C573 1.408 . S
C577 C576 1.404 . S
C577 H589 0.930 . S
C578 C574 1.524 . S
C578 H590 0.956 . S
C578 H591 0.961 . S
C578 H592 0.961 . S
C579 C576 1.539 . S
C579 H593 0.958 . S
C579 H594 0.961 . S
C579 H595 0.960 . S
H580 C564 0.931 . S
H581 C569 0.929 . S
H582 C570 0.960 . S
H583 C570 0.962 . S
H584 C570 0.960 . S
H585 C571 0.961 . S
H586 C571 0.961 . S
H587 C571 0.961 . S
H588 C572 0.931 . S
H589 C577 0.930 . S
H590 C578 0.956 . S
H591 C578 0.961 . S
H592 C578 0.961 . S
H593 C579 0.958 . S
H594 C579 0.961 . S
H595 C579 0.960 . S
C596 C597 1.391 . S
C596 C598 1.394 . S
C596 H612 0.931 . S
C597 C596 1.391 . S
C597 C601 1.376 . S
C598 C596 1.394 . S
C598 C599 1.369 . S
C598 C602 1.531 . S
C599 C598 1.369 . S
C599 C600 1.410 . S
C599 C607 1.503 . S
C600 C599 1.410 . S
C600 C601 1.392 . S
C600 C603 1.511 . S
C601 C597 1.376 . S
C601 C600 1.392 . S
C601 H613 0.929 . S
C602 C598 1.531 . S
C602 H614 0.960 . S
C602 H615 0.962 . S
C602 H616 0.960 . S
C603 C600 1.511 . S
C603 H617 0.961 . S
C603 H618 0.961 . S
C603 H619 0.961 . S
C604 C605 1.370 . S
C604 C606 1.363 . S
C604 H620 0.931 . S
C605 C604 1.370 . S
C605 C609 1.408 . S
C606 C604 1.363 . S
C606 C607 1.370 . S
C606 C610 1.524 . S
C607 C599 1.503 . S
C607 C606 1.370 . S
C607 C608 1.403 . S
C608 C607 1.403 . S
C608 C609 1.404 . S
C608 C611 1.539 . S
C609 C605 1.408 . S
C609 C608 1.404 . S
C609 H621 0.930 . S
C610 C606 1.524 . S
C610 H622 0.956 . S
C610 H623 0.961 . S
C610 H624 0.961 . S
C611 C608 1.539 . S
C611 H625 0.958 . S
C611 H626 0.961 . S
C611 H627 0.960 . S
H612 C596 0.931 . S
H613 C601 0.929 . S
H614 C602 0.960 . S
H615 C602 0.962 . S
H616 C602 0.960 . S
H617 C603 0.961 . S
H618 C603 0.961 . S
H619 C603 0.961 . S
H620 C604 0.931 . S
H621 C609 0.930 . S
H622 C610 0.956 . S
H623 C610 0.961 . S
H624 C610 0.961 . S
H625 C611 0.958 . S
H626 C611 0.961 . S
H627 C611 0.960 . S
C628 C629 1.391 . S
C628 C630 1.394 . S
C628 H644 0.931 . S
C629 C628 1.391 . S
C629 C633 1.376 . S
C630 C628 1.394 . S
C630 C631 1.369 . S
C630 C634 1.531 . S
C631 C630 1.369 . S
C631 C632 1.410 . S
C631 C639 1.503 . S
C632 C631 1.410 . S
C632 C633 1.392 . S
C632 C635 1.511 . S
C633 C629 1.376 . S
C633 C632 1.392 . S
C633 H645 0.929 . S
C634 C630 1.531 . S
C634 H646 0.960 . S
C634 H647 0.962 . S
C634 H648 0.960 . S
C635 C632 1.511 . S
C635 H649 0.961 . S
C635 H650 0.961 . S
C635 H651 0.961 . S
C636 C637 1.370 . S
C636 C638 1.363 . S
C636 H652 0.931 . S
C637 C636 1.370 . S
C637 C641 1.408 . S
C638 C636 1.363 . S
C638 C639 1.370 . S
C638 C642 1.524 . S
C639 C631 1.503 . S
C639 C638 1.370 . S
C639 C640 1.403 . S
C640 C639 1.403 . S
C640 C641 1.404 . S
C640 C643 1.539 . S
C641 C637 1.408 . S
C641 C640 1.404 . S
C641 H653 0.930 . S
C642 C638 1.524 . S
C642 H654 0.956 . S
C642 H655 0.961 . S
C642 H656 0.961 . S
C643 C640 1.539 . S
C643 H657 0.958 . S
C643 H658 0.961 . S
C643 H659 0.960 . S
H644 C628 0.931 . S
H645 C633 0.929 . S
H646 C634 0.960 . S
H647 C634 0.962 . S
H648 C634 0.960 . S
H649 C635 0.961 . S
H650 C635 0.961 . S
H651 C635 0.961 . S
H652 C636 0.931 . S
H653 C641 0.930 . S
H654 C642 0.956 . S
H655 C642 0.961 . S
H656 C642 0.961 . S
H657 C643 0.958 . S
H658 C643 0.961 . S
H659 C643 0.960 . S
C660 C661 1.391 . S
C660 C662 1.394 . S
C660 H676 0.931 . S
C661 C660 1.391 . S
C661 C665 1.376 . S
C662 C660 1.394 . S
C662 C663 1.369 . S
C662 C666 1.531 . S
C663 C662 1.369 . S
C663 C664 1.410 . S
C663 C671 1.503 . S
C664 C663 1.410 . S
C664 C665 1.392 . S
C664 C667 1.511 . S
C665 C661 1.376 . S
C665 C664 1.392 . S
C665 H677 0.929 . S
C666 C662 1.531 . S
C666 H678 0.960 . S
C666 H679 0.962 . S
C666 H680 0.960 . S
C667 C664 1.511 . S
C667 H681 0.961 . S
C667 H682 0.961 . S
C667 H683 0.961 . S
C668 C669 1.370 . S
C668 C670 1.363 . S
C668 H684 0.931 . S
C669 C668 1.370 . S
C669 C673 1.408 . S
C670 C668 1.363 . S
C670 C671 1.370 . S
C670 C674 1.524 . S
C671 C663 1.503 . S
C671 C670 1.370 . S
C671 C672 1.403 . S
C672 C671 1.403 . S
C672 C673 1.404 . S
C672 C675 1.539 . S
C673 C669 1.408 . S
C673 C672 1.404 . S
C673 H685 0.930 . S
C674 C670 1.524 . S
C674 H686 0.956 . S
C674 H687 0.961 . S
C674 H688 0.961 . S
C675 C672 1.539 . S
C675 H689 0.958 . S
C675 H690 0.961 . S
C675 H691 0.960 . S
H676 C660 0.931 . S
H677 C665 0.929 . S
H678 C666 0.960 . S
H679 C666 0.962 . S
H680 C666 0.960 . S
H681 C667 0.961 . S
H682 C667 0.961 . S
H683 C667 0.961 . S
H684 C668 0.931 . S
H685 C673 0.930 . S
H686 C674 0.956 . S
H687 C674 0.961 . S
H688 C674 0.961 . S
H689 C675 0.958 . S
H690 C675 0.961 . S
H691 C675 0.960 . S
C692 C693 1.391 . S
C692 C694 1.394 . S
C692 H708 0.931 . S
C693 C692 1.391 . S
C693 C697 1.376 . S
C694 C692 1.394 . S
C694 C695 1.369 . S
C694 C698 1.531 . S
C695 C694 1.369 . S
C695 C696 1.410 . S
C695 C703 1.503 . S
C696 C695 1.410 . S
C696 C697 1.392 . S
C696 C699 1.511 . S
C697 C693 1.376 . S
C697 C696 1.392 . S
C697 H709 0.929 . S
C698 C694 1.531 . S
C698 H710 0.960 . S
C698 H711 0.962 . S
C698 H712 0.960 . S
C699 C696 1.511 . S
C699 H713 0.961 . S
C699 H714 0.961 . S
C699 H715 0.961 . S
C700 C701 1.370 . S
C700 C702 1.363 . S
C700 H716 0.931 . S
C701 C700 1.370 . S
C701 C705 1.408 . S
C702 C700 1.363 . S
C702 C703 1.370 . S
C702 C706 1.524 . S
C703 C695 1.503 . S
C703 C702 1.370 . S
C703 C704 1.403 . S
C704 C703 1.403 . S
C704 C705 1.404 . S
C704 C707 1.539 . S
C705 C701 1.408 . S
C705 C704 1.404 . S
C705 H717 0.930 . S
C706 C702 1.524 . S
C706 H718 0.956 . S
C706 H719 0.961 . S
C706 H720 0.961 . S
C707 C704 1.539 . S
C707 H721 0.958 . S
C707 H722 0.961 . S
C707 H723 0.960 . S
H708 C692 0.931 . S
H709 C697 0.929 . S
H710 C698 0.960 . S
H711 C698 0.962 . S
H712 C698 0.960 . S
H713 C699 0.961 . S
H714 C699 0.961 . S
H715 C699 0.961 . S
H716 C700 0.931 . S
H717 C705 0.930 . S
H718 C706 0.956 . S
H719 C706 0.961 . S
H720 C706 0.961 . S
H721 C707 0.958 . S
H722 C707 0.961 . S
H723 C707 0.960 . S
C724 C725 1.391 . S
C724 C726 1.394 . S
C724 H740 0.931 . S
C725 C724 1.391 . S
C725 C729 1.376 . S
C726 C724 1.394 . S
C726 C727 1.369 . S
C726 C730 1.531 . S
C727 C726 1.369 . S
C727 C728 1.410 . S
C727 C735 1.503 . S
C728 C727 1.410 . S
C728 C729 1.392 . S
C728 C731 1.511 . S
C729 C725 1.376 . S
C729 C728 1.392 . S
C729 H741 0.929 . S
C730 C726 1.531 . S
C730 H742 0.960 . S
C730 H743 0.962 . S
C730 H744 0.960 . S
C731 C728 1.511 . S
C731 H745 0.961 . S
C731 H746 0.961 . S
C731 H747 0.961 . S
C732 C733 1.370 . S
C732 C734 1.363 . S
C732 H748 0.931 . S
C733 C732 1.370 . S
C733 C737 1.408 . S
C734 C732 1.363 . S
C734 C735 1.370 . S
C734 C738 1.524 . S
C735 C727 1.503 . S
C735 C734 1.370 . S
C735 C736 1.403 . S
C736 C735 1.403 . S
C736 C737 1.404 . S
C736 C739 1.539 . S
C737 C733 1.408 . S
C737 C736 1.404 . S
C737 H749 0.930 . S
C738 C734 1.524 . S
C738 H750 0.956 . S
C738 H751 0.961 . S
C738 H752 0.961 . S
C739 C736 1.539 . S
C739 H753 0.958 . S
C739 H754 0.961 . S
C739 H755 0.960 . S
H740 C724 0.931 . S
H741 C729 0.929 . S
H742 C730 0.960 . S
H743 C730 0.962 . S
H744 C730 0.960 . S
H745 C731 0.961 . S
H746 C731 0.961 . S
H747 C731 0.961 . S
H748 C732 0.931 . S
H749 C737 0.930 . S
H750 C738 0.956 . S
H751 C738 0.961 . S
H752 C738 0.961 . S
H753 C739 0.958 . S
H754 C739 0.961 . S
H755 C739 0.960 . S
C756 C757 1.391 1_655 S
C756 C758 1.400 . S
C756 H772 0.931 . S
C757 C756 1.391 1_455 S
C757 C761 1.376 . S
C758 C756 1.400 . S
C758 C759 1.326 1_655 S
C758 C762 1.570 . S
C759 C758 1.326 1_455 S
C759 C760 1.410 . S
C759 C767 1.503 . S
C760 C759 1.410 . S
C760 C761 1.392 . S
C760 C763 1.511 . S
C761 C757 1.376 . S
C761 C760 1.392 . S
C761 H773 0.929 . S
C762 C758 1.570 . S
C762 H774 0.960 . S
C762 H775 0.962 . S
C762 H776 0.960 . S
C763 C760 1.511 . S
C763 H777 0.961 . S
C763 H778 0.961 . S
C763 H779 0.961 . S
C764 C765 1.370 1_655 S
C764 C766 1.363 . S
C764 H780 0.931 . S
C765 C764 1.370 1_455 S
C765 C769 1.408 . S
C766 C764 1.363 . S
C766 C767 1.370 1_655 S
C766 C770 1.524 . S
C767 C759 1.503 . S
C767 C766 1.370 1_455 S
C767 C768 1.403 . S
C768 C767 1.403 . S
C768 C769 1.404 . S
C768 C771 1.539 . S
C769 C765 1.408 . S
C769 C768 1.404 . S
C769 H781 0.930 . S
C770 C766 1.524 . S
C770 H782 0.956 . S
C770 H783 0.961 . S
C770 H784 0.961 . S
C771 C768 1.539 . S
C771 H785 0.958 . S
C771 H786 0.961 . S
C771 H787 0.960 . S
H772 C756 0.931 . S
H773 C761 0.929 . S
H774 C762 0.960 . S
H775 C762 0.962 . S
H776 C762 0.960 . S
H777 C763 0.961 . S
H778 C763 0.961 . S
H779 C763 0.961 . S
H780 C764 0.931 . S
H781 C769 0.930 . S
H782 C770 0.956 . S
H783 C770 0.961 . S
H784 C770 0.961 . S
H785 C771 0.958 . S
H786 C771 0.961 . S
H787 C771 0.960 . S
C788 C789 1.391 . S
C788 C790 1.394 . S
C788 H804 0.931 . S
C789 C788 1.391 . S
C789 C793 1.376 . S
C790 C788 1.394 . S
C790 C791 1.369 . S
C790 C794 1.531 . S
C791 C790 1.369 . S
C791 C792 1.410 . S
C791 C799 1.503 . S
C792 C791 1.410 . S
C792 C793 1.392 . S
C792 C795 1.511 . S
C793 C789 1.376 . S
C793 C792 1.392 . S
C793 H805 0.929 . S
C794 C790 1.531 . S
C794 H806 0.960 . S
C794 H807 0.962 . S
C794 H808 0.960 . S
C795 C792 1.511 . S
C795 H809 0.961 . S
C795 H810 0.961 . S
C795 H811 0.961 . S
C796 C797 1.370 . S
C796 C798 1.363 . S
C796 H812 0.931 . S
C797 C796 1.370 . S
C797 C801 1.408 . S
C798 C796 1.363 . S
C798 C799 1.370 . S
C798 C802 1.524 . S
C799 C791 1.503 . S
C799 C798 1.370 . S
C799 C800 1.403 . S
C800 C799 1.403 . S
C800 C801 1.404 . S
C800 C803 1.539 . S
C801 C797 1.408 . S
C801 C800 1.404 . S
C801 H813 0.930 . S
C802 C798 1.524 . S
C802 H814 0.956 . S
C802 H815 0.961 . S
C802 H816 0.961 . S
C803 C800 1.539 . S
C803 H817 0.958 . S
C803 H818 0.961 . S
C803 H819 0.960 . S
H804 C788 0.931 . S
H805 C793 0.929 . S
H806 C794 0.960 . S
H807 C794 0.962 . S
H808 C794 0.960 . S
H809 C795 0.961 . S
H810 C795 0.961 . S
H811 C795 0.961 . S
H812 C796 0.931 . S
H813 C801 0.930 . S
H814 C802 0.956 . S
H815 C802 0.961 . S
H816 C802 0.961 . S
H817 C803 0.958 . S
H818 C803 0.961 . S
H819 C803 0.960 . S
C820 C821 1.391 1_565 S
C820 C822 1.394 . S
C820 H836 0.931 . S
C821 C820 1.391 1_545 S
C821 C825 1.376 . S
C822 C820 1.394 . S
C822 C823 1.369 1_565 S
C822 C826 1.531 . S
C823 C822 1.369 1_545 S
C823 C824 1.410 . S
C823 C831 1.503 . S
C824 C823 1.410 . S
C824 C825 1.392 . S
C824 C827 1.511 . S
C825 C821 1.376 . S
C825 C824 1.392 . S
C825 H837 0.929 . S
C826 C822 1.531 . S
C826 H838 0.960 . S
C826 H839 0.962 . S
C826 H840 0.960 . S
C827 C824 1.511 . S
C827 H841 0.961 . S
C827 H842 0.961 . S
C827 H843 0.961 . S
C828 C829 1.370 . S
C828 C830 1.363 . S
C828 H844 0.931 . S
C829 C828 1.370 . S
C829 C833 1.408 1_545 S
C830 C828 1.363 . S
C830 C831 1.370 . S
C830 C834 1.524 . S
C831 C823 1.503 . S
C831 C830 1.370 . S
C831 C832 1.403 1_545 S
C832 C831 1.403 1_565 S
C832 C833 1.404 . S
C832 C835 1.539 . S
C833 C829 1.408 1_565 S
C833 C832 1.404 . S
C833 H845 0.930 . S
C834 C830 1.524 . S
C834 H846 0.956 . S
C834 H847 0.961 . S
C834 H848 0.961 . S
C835 C832 1.539 . S
C835 H849 0.958 . S
C835 H850 0.961 . S
C835 H851 0.960 . S
H836 C820 0.931 . S
H837 C825 0.929 . S
H838 C826 0.960 . S
H839 C826 0.962 . S
H840 C826 0.960 . S
H841 C827 0.961 . S
H842 C827 0.961 . S
H843 C827 0.961 . S
H844 C828 0.931 . S
H845 C833 0.930 . S
H846 C834 0.956 . S
H847 C834 0.961 . S
H848 C834 0.961 . S
H849 C835 0.958 . S
H850 C835 0.961 . S
H851 C835 0.960 . S
C852 C853 1.391 . S
C852 C854 1.394 . S
C852 H868 0.931 . S
C853 C852 1.391 . S
C853 C857 1.376 . S
C854 C852 1.394 . S
C854 C855 1.369 . S
C854 C858 1.531 . S
C855 C854 1.369 . S
C855 C856 1.410 . S
C855 C863 1.503 . S
C856 C855 1.410 . S
C856 C857 1.392 . S
C856 C859 1.511 . S
C857 C853 1.376 . S
C857 C856 1.392 . S
C857 H869 0.929 . S
C858 C854 1.531 . S
C858 H870 0.960 . S
C858 H871 0.962 . S
C858 H872 0.960 . S
C859 C856 1.511 . S
C859 H873 0.961 . S
C859 H874 0.961 . S
C859 H875 0.961 . S
C860 C861 1.370 1_556 S
C860 C862 1.363 . S
C860 H876 0.931 1_556 S
C861 C860 1.370 1_554 S
C861 C865 1.408 . S
C862 C860 1.363 . S
C862 C863 1.370 . S
C862 C866 1.524 . S
C863 C855 1.503 . S
C863 C862 1.370 . S
C863 C864 1.403 . S
C864 C863 1.403 . S
C864 C865 1.404 1_556 S
C864 C867 1.539 . S
C865 C861 1.408 . S
C865 C864 1.404 1_554 S
C865 H877 0.930 . S
C866 C862 1.524 . S
C866 H878 0.956 . S
C866 H879 0.961 . S
C866 H880 0.961 . S
C867 C864 1.539 . S
C867 H881 0.958 . S
C867 H882 0.961 . S
C867 H883 0.960 . S
H868 C852 0.931 . S
H869 C857 0.929 . S
H870 C858 0.960 . S
H871 C858 0.962 . S
H872 C858 0.960 . S
H873 C859 0.961 . S
H874 C859 0.961 . S
H875 C859 0.961 . S
H876 C860 0.931 1_554 S
H877 C865 0.930 . S
H878 C866 0.956 . S
H879 C866 0.961 . S
H880 C866 0.961 . S
H881 C867 0.958 . S
H882 C867 0.961 . S
H883 C867 0.960 . S
C884 C885 1.391 . S
C884 C886 1.394 . S
C884 H900 0.931 . S
C885 C884 1.391 . S
C885 C889 1.376 . S
C886 C884 1.394 . S
C886 C887 1.369 . S
C886 C890 1.531 . S
C887 C886 1.369 . S
C887 C888 1.410 . S
C887 C895 1.503 . S
C888 C887 1.410 . S
C888 C889 1.392 . S
C888 C891 1.511 . S
C889 C885 1.376 . S
C889 C888 1.392 . S
C889 H901 0.929 . S
C890 C886 1.531 . S
C890 H902 0.960 . S
C890 H903 0.962 . S
C890 H904 0.960 . S
C891 C888 1.511 . S
C891 H905 0.961 . S
C891 H906 0.961 . S
C891 H907 0.961 . S
C892 C893 1.370 1_556 S
C892 C894 1.363 . S
C892 H908 0.931 . S
C893 C892 1.370 1_554 S
C893 C897 1.408 1_554 S
C894 C892 1.363 . S
C894 C895 1.370 . S
C894 C898 1.524 . S
C895 C887 1.503 . S
C895 C894 1.370 . S
C895 C896 1.403 . S
C896 C895 1.403 . S
C896 C897 1.404 . S
C896 C899 1.539 . S
C897 C893 1.408 1_556 S
C897 C896 1.404 . S
C897 H909 0.930 1_556 S
C898 C894 1.524 . S
C898 H910 0.956 . S
C898 H911 0.961 . S
C898 H912 0.961 . S
C899 C896 1.539 . S
C899 H913 0.958 . S
C899 H914 0.961 . S
C899 H915 0.960 . S
H900 C884 0.931 . S
H901 C889 0.929 . S
H902 C890 0.960 . S
H903 C890 0.962 . S
H904 C890 0.960 . S
H905 C891 0.961 . S
H906 C891 0.961 . S
H907 C891 0.961 . S
H908 C892 0.931 . S
H909 C897 0.930 1_554 S
H910 C898 0.956 . S
H911 C898 0.961 . S
H912 C898 0.961 . S
H913 C899 0.958 . S
H914 C899 0.961 . S
H915 C899 0.960 . S
C916 C917 1.391 . S
C916 C918 1.394 . S
C916 H932 0.931 . S
C917 C916 1.391 . S
C917 C921 1.376 . S
C918 C916 1.394 . S
C918 C919 1.369 . S
C918 C922 1.531 . S
C919 C918 1.369 . S
C919 C920 1.410 . S
C919 C927 1.503 . S
C920 C919 1.410 . S
C920 C921 1.392 . S
C920 C923 1.511 . S
C921 C917 1.376 . S
C921 C920 1.392 . S
C921 H933 0.929 . S
C922 C918 1.531 . S
C922 H934 0.960 . S
C922 H935 0.962 . S
C922 H936 0.960 . S
C923 C920 1.511 . S
C923 H937 0.961 . S
C923 H938 0.961 . S
C923 H939 0.961 . S
C924 C925 1.370 1_556 S
C924 C926 1.363 . S
C924 H940 0.931 1_556 S
C925 C924 1.370 1_554 S
C925 C929 1.408 . S
C926 C924 1.363 . S
C926 C927 1.370 . S
C926 C930 1.524 . S
C927 C919 1.503 . S
C927 C926 1.370 . S
C927 C928 1.403 . S
C928 C927 1.403 . S
C928 C929 1.404 1_556 S
C928 C931 1.539 . S
C929 C925 1.408 . S
C929 C928 1.404 1_554 S
C929 H941 0.930 . S
C930 C926 1.524 . S
C930 H942 0.956 . S
C930 H943 0.961 . S
C930 H944 0.961 . S
C931 C928 1.539 . S
C931 H945 0.958 . S
C931 H946 0.961 . S
C931 H947 0.960 . S
H932 C916 0.931 . S
H933 C921 0.929 . S
H934 C922 0.960 . S
H935 C922 0.962 . S
H936 C922 0.960 . S
H937 C923 0.961 . S
H938 C923 0.961 . S
H939 C923 0.961 . S
H940 C924 0.931 1_554 S
H941 C929 0.930 . S
H942 C930 0.956 . S
H943 C930 0.961 . S
H944 C930 0.961 . S
H945 C931 0.958 . S
H946 C931 0.961 . S
H947 C931 0.960 . S
C948 C949 1.391 . S
C948 C950 1.394 . S
C948 H964 0.931 . S
C949 C948 1.391 . S
C949 C953 1.376 . S
C950 C948 1.394 . S
C950 C951 1.369 . S
C950 C954 1.531 . S
C951 C950 1.369 . S
C951 C952 1.410 . S
C951 C959 1.503 . S
C952 C951 1.410 . S
C952 C953 1.392 . S
C952 C955 1.511 . S
C953 C949 1.376 . S
C953 C952 1.392 . S
C953 H965 0.929 . S
C954 C950 1.531 . S
C954 H966 0.960 . S
C954 H967 0.962 . S
C954 H968 0.960 . S
C955 C952 1.511 . S
C955 H969 0.961 . S
C955 H970 0.961 . S
C955 H971 0.961 . S
C956 C957 1.370 . S
C956 C958 1.363 1_556 S
C956 H972 0.931 . S
C957 C956 1.370 . S
C957 C961 1.408 . S
C958 C956 1.363 1_554 S
C958 C959 1.370 . S
C958 C962 1.524 . S
C959 C951 1.503 . S
C959 C958 1.370 . S
C959 C960 1.403 . S
C960 C959 1.403 . S
C960 C961 1.404 1_554 S
C960 C963 1.539 . S
C961 C957 1.408 . S
C961 C960 1.404 1_556 S
C961 H973 0.930 . S
C962 C958 1.524 . S
C962 H974 0.956 . S
C962 H975 0.961 . S
C962 H976 0.961 . S
C963 C960 1.539 . S
C963 H977 0.958 . S
C963 H978 0.961 . S
C963 H979 0.960 . S
H964 C948 0.931 . S
H965 C953 0.929 . S
H966 C954 0.960 . S
H967 C954 0.962 . S
H968 C954 0.960 . S
H969 C955 0.961 . S
H970 C955 0.961 . S
H971 C955 0.961 . S
H972 C956 0.931 . S
H973 C961 0.930 . S
H974 C962 0.956 . S
H975 C962 0.961 . S
H976 C962 0.961 . S
H977 C963 0.958 . S
H978 C963 0.961 . S
H979 C963 0.960 . S
C980 C981 1.391 . S
C980 C982 1.394 1_556 S
C980 H996 0.931 . S
C981 C980 1.391 . S
C981 C985 1.376 . S
C982 C980 1.394 1_554 S
C982 C983 1.369 . S
C982 C986 1.531 . S
C983 C982 1.369 . S
C983 C984 1.410 . S
C983 C991 1.503 . S
C984 C983 1.410 . S
C984 C985 1.392 1_554 S
C984 C987 1.511 . S
C985 C981 1.376 . S
C985 C984 1.392 1_556 S
C985 H997 0.929 . S
C986 C982 1.531 . S
C986 H998 0.960 . S
C986 H999 0.962 . S
C986 H1000 0.960 . S
C987 C984 1.511 . S
C987 H1001 0.961 . S
C987 H1002 0.961 . S
C987 H1003 0.961 . S
C988 C989 1.370 . S
C988 C990 1.363 . S
C988 H1004 0.931 . S
C989 C988 1.370 . S
C989 C993 1.408 . S
C990 C988 1.363 . S
C990 C991 1.370 . S
C990 C994 1.524 . S
C991 C983 1.503 . S
C991 C990 1.370 . S
C991 C992 1.403 . S
C992 C991 1.403 . S
C992 C993 1.404 . S
C992 C995 1.539 . S
C993 C989 1.408 . S
C993 C992 1.404 . S
C993 H1005 0.930 . S
C994 C990 1.524 . S
C994 H1006 0.956 . S
C994 H1007 0.961 . S
C994 H1008 0.961 . S
C995 C992 1.539 . S
C995 H1009 0.958 . S
C995 H1010 0.961 . S
C995 H1011 0.960 . S
H996 C980 0.931 . S
H997 C985 0.929 . S
H998 C986 0.960 . S
H999 C986 0.962 . S
H1000 C986 0.960 . S
H1001 C987 0.961 . S
H1002 C987 0.961 . S
H1003 C987 0.961 . S
H1004 C988 0.931 . S
H1005 C993 0.930 . S
H1006 C994 0.956 . S
H1007 C994 0.961 . S
H1008 C994 0.961 . S
H1009 C995 0.958 . S
H1010 C995 0.961 . S
H1011 C995 0.960 . S
C1012 C1013 1.391 . S
C1012 C1014 1.394 . S
C1012 H1028 0.931 . S
C1013 C1012 1.391 . S
C1013 C1017 1.376 . S
C1014 C1012 1.394 . S
C1014 C1015 1.369 . S
C1014 C1018 1.531 . S
C1015 C1014 1.369 . S
C1015 C1016 1.410 . S
C1015 C1023 1.503 . S
C1016 C1015 1.410 . S
C1016 C1017 1.392 . S
C1016 C1019 1.511 . S
C1017 C1013 1.376 . S
C1017 C1016 1.392 . S
C1017 H1029 0.929 . S
C1018 C1014 1.531 . S
C1018 H1030 0.960 . S
C1018 H1031 0.962 . S
C1018 H1032 0.960 . S
C1019 C1016 1.511 . S
C1019 H1033 0.961 . S
C1019 H1034 0.961 . S
C1019 H1035 0.961 . S
C1020 C1021 1.370 1_554 S
C1020 C1022 1.363 . S
C1020 H1036 0.931 1_554 S
C1021 C1020 1.370 1_556 S
C1021 C1025 1.408 . S
C1022 C1020 1.363 . S
C1022 C1023 1.370 . S
C1022 C1026 1.524 . S
C1023 C1015 1.503 . S
C1023 C1022 1.370 . S
C1023 C1024 1.403 . S
C1024 C1023 1.403 . S
C1024 C1025 1.404 1_554 S
C1024 C1027 1.539 . S
C1025 C1021 1.408 . S
C1025 C1024 1.404 1_556 S
C1025 H1037 0.930 . S
C1026 C1022 1.524 . S
C1026 H1038 0.956 . S
C1026 H1039 0.961 . S
C1026 H1040 0.961 . S
C1027 C1024 1.539 . S
C1027 H1041 0.958 . S
C1027 H1042 0.961 . S
C1027 H1043 0.960 . S
H1028 C1012 0.931 . S
H1029 C1017 0.929 . S
H1030 C1018 0.960 . S
H1031 C1018 0.962 . S
H1032 C1018 0.960 . S
H1033 C1019 0.961 . S
H1034 C1019 0.961 . S
H1035 C1019 0.961 . S
H1036 C1020 0.931 1_556 S
H1037 C1025 0.930 . S
H1038 C1026 0.956 . S
H1039 C1026 0.961 . S
H1040 C1026 0.961 . S
H1041 C1027 0.958 . S
H1042 C1027 0.961 . S
H1043 C1027 0.960 . S
C181 C12 1.549 . S
C189 C152 1.514 . S
C213 C24 1.525 1_556 S
C221 C164 1.533 . S
C245 C52 1.570 . S
C253 C124 1.518 . S
C277 C84 1.444 . S
C285 C44 1.434 . S
C309 C104 1.473 . S
C317 C4 1.494 . S
C341 C32 1.548 . S
C349 C64 1.516 . S
C373 C144 1.523 . S
C381 C112 1.549 . S
C405 C172 1.578 . S
C413 C72 1.582 . S
C437 C92 1.615 . S
C445 C132 1.617 . S
C469 C49 1.428 . S
C477 C2 1.364 . S
C501 C29 1.413 1_554 S
C509 C9 1.401 . S
C533 C22 1.467 . S
C541 C42 1.509 . S
C565 C69 1.474 . S
C573 C102 1.429 . S
C597 C62 1.403 . S
C605 C89 1.464 . S
C629 C82 1.367 . S
C637 C109 1.431 . S
C661 C169 1.492 . S
C669 C122 1.445 . S
C693 C149 1.347 . S
C701 C129 1.333 . S
C725 C162 1.485 . S
C733 C142 1.455 . S
C757 C19 1.173 . S
C765 C18 1.181 . S
C789 C38 1.180 . S
C797 C39 1.178 . S
C821 C59 1.152 . S
C829 C58 1.190 . S
C853 C79 1.160 . S
C861 C78 1.184 . S
C885 C99 1.188 . S
C893 C98 1.172 . S
C917 C119 1.196 . S
C925 C118 1.169 . S
C949 C139 1.185 . S
C957 C138 1.175 . S
C981 C159 1.194 . S
C989 C158 1.172 . S
C1013 C179 1.201 . S
C1021 C178 1.166 . S
