# Generated by pormake.
# Topology sml, (6)-cn, num edge types: 1
# Building blocks:
#     Node 0, Type 0, BuildingBlock: IZENUY_clean_sbu_0, # of connection points: 6
#     Node 1, Type 0, BuildingBlock: IZENUY_clean_sbu_0, # of connection points: 6
#     Node 2, Type 0, BuildingBlock: IZENUY_clean_sbu_0, # of connection points: 6
#     Node 3, Type 0, BuildingBlock: IZENUY_clean_sbu_0, # of connection points: 6
#     Node 4, Type 0, BuildingBlock: IZENUY_clean_sbu_0, # of connection points: 6
#     Node 5, Type 0, BuildingBlock: IZENUY_clean_sbu_0, # of connection points: 6
#     Edge 6, Type (0, 0), BuildingBlock: MIFKUJ_clean_linker_0, # of connection points: 2
#     Edge 7, Type (0, 0), BuildingBlock: MIFKUJ_clean_linker_0, # of connection points: 2
#     Edge 8, Type (0, 0), BuildingBlock: MIFKUJ_clean_linker_0, # of connection points: 2
#     Edge 9, Type (0, 0), BuildingBlock: MIFKUJ_clean_linker_0, # of connection points: 2
#     Edge 10, Type (0, 0), BuildingBlock: MIFKUJ_clean_linker_0, # of connection points: 2
#     Edge 11, Type (0, 0), BuildingBlock: MIFKUJ_clean_linker_0, # of connection points: 2
#     Edge 12, Type (0, 0), BuildingBlock: MIFKUJ_clean_linker_0, # of connection points: 2
#     Edge 13, Type (0, 0), BuildingBlock: MIFKUJ_clean_linker_0, # of connection points: 2
#     Edge 14, Type (0, 0), BuildingBlock: MIFKUJ_clean_linker_0, # of connection points: 2
#     Edge 15, Type (0, 0), BuildingBlock: MIFKUJ_clean_linker_0, # of connection points: 2
#     Edge 16, Type (0, 0), BuildingBlock: MIFKUJ_clean_linker_0, # of connection points: 2
#     Edge 17, Type (0, 0), BuildingBlock: MIFKUJ_clean_linker_0, # of connection points: 2
#     Edge 18, Type (0, 0), BuildingBlock: MIFKUJ_clean_linker_0, # of connection points: 2
#     Edge 19, Type (0, 0), BuildingBlock: MIFKUJ_clean_linker_0, # of connection points: 2
#     Edge 20, Type (0, 0), BuildingBlock: MIFKUJ_clean_linker_0, # of connection points: 2
#     Edge 21, Type (0, 0), BuildingBlock: MIFKUJ_clean_linker_0, # of connection points: 2
#     Edge 22, Type (0, 0), BuildingBlock: MIFKUJ_clean_linker_0, # of connection points: 2
#     Edge 23, Type (0, 0), BuildingBlock: MIFKUJ_clean_linker_0, # of connection points: 2
# Relax obj value: 0.327
# Max RMSD: 0.283
# Mean RMSD: 0.283
data_MOF--net-sml--node1-IZENUY_clean_sbu_0--edge1-MIFKUJ_clean_linker_0
_symmetry_space_group_name_H-M    P1
_symmetry_Int_Tables_number       1
_symmetry_cell_setting            triclinic
loop_
_symmetry_equiv_pos_as_xyz
'x, y, z'
_cell_length_a     51.746292
_cell_length_b     51.830017
_cell_length_c     18.841849
_cell_angle_alpha  90.33416
_cell_angle_beta   89.843088
_cell_angle_gamma 120.03347
loop_
_atom_site_label
_atom_site_type_symbol
_atom_site_fract_x
_atom_site_fract_y
_atom_site_fract_z
_atom_type_partial_charge
Fe0 Fe 0.26177 0.4518 0.05526 0.0
Fe1 Fe 0.20706 0.39697 -0.00806 0.0
O2 O 0.22969 0.43627 8e-05 0.0
Fe3 Fe 0.22009 0.45992 0.95348 0.0
O4 O 0.23437 0.489 0.02117 0.0
O5 O 0.2476 0.47106 0.11098 0.0
O6 O 0.24626 0.42126 0.11943 0.0
C7 C 0.21954 0.40171 0.13272 0.0
C8 C 0.28075 0.49036 0.93697 0.0
O9 O 0.19974 0.3929 0.08571 0.0
C10 C 0.20617 0.41289 0.85582 0.0
O11 O 0.27831 0.4342 0.00264 0.0
O12 O 0.23825 0.38975 -0.00041 0.0
O13 O 0.25566 0.47806 0.90603 0.0
O14 O 0.28298 0.48484 0.00117 0.0
C15 C 0.16529 0.41655 0.00119 0.0
O16 O 0.21257 0.39819 0.89775 0.0
O17 O 0.20379 0.43482 0.87703 0.0
C18 C 0.26585 0.40675 0.98801 0.0
O19 O 0.17179 0.39704 0.98245 0.0
O20 O 0.18436 0.44393 -0.00086 0.0
C21 C 0.2393 0.48847 0.08658 0.0
Fe22 Fe 0.81858 0.25643 0.34787 0.0
Fe23 Fe 0.82293 0.20148 0.30584 0.0
O24 O 0.80224 0.22023 0.31016 0.0
Fe25 Fe 0.76514 0.20295 0.27765 0.0
O26 O 0.75096 0.20507 0.36402 0.0
O27 O 0.78309 0.25234 0.38149 0.0
O28 O 0.82263 0.24281 0.43225 0.0
C29 C 0.83548 0.22793 0.4421 0.0
C30 C 0.79028 0.26382 0.23606 0.0
O31 O 0.84246 0.21677 0.39056 0.0
C32 C 0.79233 0.18789 0.17398 0.0
O33 O 0.85716 0.26774 0.32173 0.0
O34 O 0.85224 0.231 0.25423 0.0
O35 O 0.76783 0.23832 0.24863 0.0
O36 O 0.8151 0.27169 0.265 0.0
C37 C 0.76791 0.15547 0.34433 0.0
O38 O 0.80679 0.18283 0.22075 0.0
O39 O 0.77681 0.19961 0.18957 0.0
C40 C 0.86697 0.25787 0.27332 0.0
O41 O 0.79539 0.1707 0.35727 0.0
O42 O 0.75568 0.16463 0.30082 0.0
C43 C 0.75822 0.22933 0.3951 0.0
Fe44 Fe 0.57728 0.7729 0.62417 0.0
Fe45 Fe 0.58228 0.81797 0.73708 0.0
O46 O 0.5995 0.80428 0.67852 0.0
Fe47 Fe 0.63898 0.822 0.67446 0.0
O48 O 0.63984 0.7876 0.65693 0.0
O49 O 0.59296 0.75207 0.66531 0.0
O50 O 0.54674 0.75531 0.68776 0.0
C51 C 0.5454 0.75823 0.7541 0.0
C52 C 0.6257 0.81016 0.53442 0.0
O53 O 0.56297 0.78259 0.78496 0.0
C54 C 0.62753 0.86963 0.68037 0.0
O55 O 0.55959 0.79165 0.58071 0.0
O56 O 0.54979 0.80705 0.68086 0.0
O57 O 0.63933 0.82969 0.58124 0.0
O58 O 0.60398 0.78485 0.55046 0.0
C59 C 0.63163 0.82479 0.81656 0.0
O60 O 0.59987 0.85368 0.69191 0.0
O61 O 0.64498 0.85953 0.69077 0.0
C62 C 0.54515 0.80132 0.61531 0.0
O63 O 0.61178 0.83158 0.80416 0.0
O64 O 0.64165 0.81566 0.76763 0.0
C65 C 0.62048 0.76079 0.66973 0.0
Fe66 Fe 0.81697 0.56237 0.9633 0.0
Fe67 Fe 0.76608 0.56583 0.03703 0.0
O68 O 0.80192 0.5839 -0.00237 0.0
Fe69 Fe 0.8228 0.62327 -0.0072 0.0
O70 O 0.85321 0.62464 0.04296 0.0
O71 O 0.85631 0.59041 0.98105 0.0
O72 O 0.816 0.5471 0.04996 0.0
C73 C 0.79196 0.53142 0.08326 0.0
C74 C 0.83182 0.60366 0.85906 0.0
O75 O 0.76939 0.53434 0.0717 0.0
C76 C 0.76691 0.61349 0.96154 0.0
O77 O 0.78052 0.52997 0.93941 0.0
O78 O 0.74894 0.54597 0.95549 0.0
O79 O 0.84008 0.62377 0.90653 0.0
O80 O 0.81842 0.57644 0.87535 0.0
C81 C 0.79739 0.61189 0.12994 0.0
O82 O 0.75625 0.59394 0.0098 0.0
O83 O 0.79378 0.62472 0.94273 0.0
C84 C 0.75508 0.52728 0.9291 0.0
O85 O 0.78112 0.58425 0.12039 0.0
O86 O 0.80923 0.62946 0.07808 0.0
C87 C 0.86716 0.61143 0.02613 0.0
Fe88 Fe 0.2629 0.81448 0.25488 0.0
Fe89 Fe 0.21963 0.76494 0.35534 0.0
O90 O 0.23018 0.79848 0.30832 0.0
Fe91 Fe 0.20813 0.81586 0.31485 0.0
O92 O 0.24002 0.85404 0.3129 0.0
O93 O 0.27966 0.84876 0.30656 0.0
O94 O 0.2829 0.80215 0.31176 0.0
C95 C 0.28004 0.79553 0.37685 0.0
C96 C 0.22292 0.82485 0.17432 0.0
O97 O 0.25453 0.78258 0.40586 0.0
C98 C 0.16609 0.75449 0.29997 0.0
O99 O 0.24874 0.78091 0.19974 0.0
O100 O 0.23505 0.75019 0.29022 0.0
O101 O 0.20276 0.81458 0.22045 0.0
O102 O 0.24897 0.83012 0.18834 0.0
C103 C 0.20367 0.79696 0.45096 0.0
O104 O 0.18449 0.74539 0.30707 0.0
O105 O 0.1726 0.78066 0.31775 0.0
C106 C 0.24066 0.75541 0.22498 0.0
O107 O 0.20188 0.77302 0.42951 0.0
O108 O 0.21124 0.81858 0.41 0.0
C109 C 0.26767 0.86406 0.32257 0.0
Fe110 Fe 0.45749 0.20588 0.70135 0.0
Fe111 Fe 0.39967 0.20194 0.64832 0.0
O112 O 0.43917 0.22177 0.65487 0.0
Fe113 Fe 0.45982 0.25723 0.61457 0.0
O114 O 0.48915 0.27226 0.68147 0.0
O115 O 0.47534 0.23736 0.76267 0.0
O116 O 0.42762 0.1873 0.76754 0.0
C117 C 0.40696 0.1924 0.78583 0.0
C118 C 0.49509 0.23317 0.58262 0.0
O119 O 0.39585 0.20253 0.7426 0.0
C120 C 0.41485 0.22292 0.51471 0.0
O121 O 0.44159 0.17349 0.64273 0.0
O122 O 0.39566 0.16469 0.65021 0.0
O123 O 0.48089 0.24532 0.55932 0.0
O124 O 0.49023 0.22177 0.64379 0.0
C125 C 0.41298 0.26119 0.67015 0.0
O126 O 0.40168 0.20032 0.55352 0.0
O127 O 0.43375 0.24812 0.53994 0.0
C128 C 0.41405 0.1565 0.6326 0.0
O129 O 0.39578 0.23532 0.6457 0.0
O130 O 0.44086 0.272 0.66804 0.0
C131 C 0.49057 0.26429 0.74394 0.0
H132 H 0.35416 0.24581 0.67653 0.0
H133 H 0.3328 0.27422 0.72815 0.0
H134 H 0.42101 0.34556 0.78149 0.0
H135 H 0.44265 0.31697 0.7308 0.0
H136 H 0.38373 0.3341 0.89046 0.0
H137 H 0.38152 0.3529 0.64275 0.0
H138 H 0.37061 0.34054 0.51573 0.0
H139 H 0.27693 0.28873 0.56201 0.0
H140 H 0.28738 0.30019 0.68946 0.0
H141 H 0.32694 0.43228 0.97926 0.0
H142 H 0.3552 0.41101 0.9241 0.0
H143 H 0.2728 0.33139 0.87041 0.0
H144 H 0.24452 0.35225 0.92548 0.0
H145 H 0.31175 0.35241 0.75824 0.0
H146 H 0.31423 0.33126 0.00668 0.0
H147 H 0.32508 0.34411 0.13346 0.0
H148 H 0.41806 0.40045 0.08546 0.0
H149 H 0.40768 0.38824 0.95816 0.0
C150 C 0.36912 0.26763 0.69872 0.0
C151 C 0.40019 0.27917 0.69889 0.0
C152 C 0.35684 0.28394 0.72803 0.0
C153 C 0.37529 0.31227 0.75783 0.0
C154 C 0.40632 0.32383 0.7585 0.0
C155 C 0.41866 0.30749 0.72916 0.0
C156 C 0.36198 0.32931 0.7899 0.0
C157 C 0.36835 0.33852 0.86113 0.0
C158 C 0.34154 0.33472 0.75219 0.0
C159 C 0.33524 0.32738 0.67567 0.0
C160 C 0.35862 0.33867 0.62589 0.0
C161 C 0.35252 0.33183 0.5538 0.0
C162 C 0.3231 0.31385 0.5308 0.0
C163 C 0.29971 0.30265 0.57986 0.0
C164 C 0.30571 0.30934 0.65201 0.0
C165 C 0.31486 0.41016 0.95615 0.0
C166 C 0.28345 0.39387 0.95744 0.0
C167 C 0.33104 0.39803 0.92472 0.0
C168 C 0.31611 0.36952 0.89349 0.0
C169 C 0.2848 0.35338 0.89429 0.0
C170 C 0.26867 0.3653 0.92627 0.0
C171 C 0.33283 0.35638 0.85911 0.0
C172 C 0.32719 0.34804 0.78736 0.0
C173 C 0.35387 0.35175 0.89637 0.0
C174 C 0.36012 0.35913 0.97282 0.0
C175 C 0.33694 0.34661 0.02307 0.0
C176 C 0.34302 0.35373 0.09504 0.0
C177 C 0.37223 0.37316 0.11748 0.0
C178 C 0.39544 0.38545 0.06799 0.0
C179 C 0.38948 0.37843 -0.00407 0.0
H180 H 0.37689 0.37863 0.17323 0.0
H181 H 0.31842 0.30862 0.47496 0.0
H182 H 0.11355 0.39525 0.92662 0.0
H183 H 0.06271 0.37282 0.9756 0.0
H184 H 0.09889 0.39057 0.18762 0.0
H185 H 0.1497 0.41379 0.13876 0.0
H186 H 0.05434 0.33223 0.16782 0.0
H187 H 0.07068 0.43026 0.12968 0.0
H188 H 0.08424 0.47568 0.06119 0.0
H189 H 1.01186 0.42499 0.91696 0.0
H190 H 0.99814 0.37914 0.98399 0.0
H191 H 0.90534 0.31737 0.29868 0.0
H192 H 0.95627 0.34818 0.25372 0.0
H193 H 0.94821 0.27293 0.1359 0.0
H194 H 0.89744 0.242 0.18033 0.0
H195 H 0.97995 0.36352 0.11744 0.0
H196 H 1.01459 0.27415 0.14934 0.0
H197 H 1.00213 0.23045 0.22389 0.0
H198 H 0.97483 0.26758 0.39267 0.0
H199 H 0.98752 0.31167 0.31953 0.0
C200 C 0.11052 0.39495 0.98358 0.0
C201 C 0.13526 0.40657 0.02915 0.0
C202 C 0.08161 0.38214 0.0115 0.0
C203 C 0.07711 0.38027 0.08532 0.0
C204 C 0.10196 0.3921 0.13066 0.0
C205 C 0.13085 0.40542 0.1028 0.0
C206 C 0.04649 0.36448 0.11537 0.0
C207 C 0.03808 0.33907 0.15676 0.0
C208 C 0.02544 0.37369 0.10185 0.0
C209 C 0.03356 0.40121 0.06147 0.0
C210 C 0.05782 0.42874 0.08298 0.0
C211 C 0.0655 0.45458 0.0445 0.0
C212 C 0.04897 0.45321 0.98465 0.0
C213 C 0.02467 0.42601 0.96327 0.0
C214 C 0.01691 0.40009 0.00153 0.0
C215 C 0.91435 0.30738 0.263 0.0
C216 C 0.89734 0.2771 0.24374 0.0
C217 C 0.94342 0.32508 0.23712 0.0
C218 C 0.95613 0.31277 0.19207 0.0
C219 C 0.93896 0.28279 0.1713 0.0
C220 C 0.90989 0.26515 0.19676 0.0
C221 C 0.98765 0.33089 0.16847 0.0
C222 C 0.99622 0.35669 0.12835 0.0
C223 C 1.00902 0.32226 0.18379 0.0
C224 C 1.00174 0.29606 0.22866 0.0
C225 C 1.00604 0.27303 0.20247 0.0
C226 C 0.99892 0.24819 0.24446 0.0
C227 C 0.98761 0.2462 0.31289 0.0
C228 C 0.98349 0.2691 0.33957 0.0
C229 C 0.99061 0.294 0.29783 0.0
H230 H 0.98208 0.22693 0.34528 0.0
H231 H 0.05495 0.47325 0.95494 0.0
H232 H 0.70914 0.11262 0.32204 0.0
H233 H 0.68081 0.06438 0.38199 0.0
H234 H 0.75858 0.08378 0.50542 0.0
H235 H 0.78691 0.13153 0.44613 0.0
H236 H 0.69296 0.01702 0.38706 0.0
H237 H 0.73569 0.05472 0.6712 0.0
H238 H 0.7543 0.0991 0.74845 0.0
H239 H 0.70335 0.12881 0.63012 0.0
H240 H 0.68417 0.08444 0.55257 0.0
H241 H 0.68142 0.90354 0.6167 0.0
H242 H 0.7006 0.95218 0.56116 0.0
H243 H 0.62131 0.95388 0.62399 0.0
H244 H 0.60149 0.90466 0.67899 0.0
H245 H 0.68099 1.00949 0.64895 0.0
H246 H 0.6216 0.93715 0.46762 0.0
H247 H 0.60733 0.89185 0.39665 0.0
H248 H 0.69607 0.93153 0.31158 0.0
H249 H 0.71107 0.97687 0.38324 0.0
C250 C 0.72019 0.1066 0.36196 0.0
C251 C 0.75033 0.12604 0.37922 0.0
C252 C 0.70398 0.07905 0.3961 0.0
C253 C 0.71751 0.07068 0.44872 0.0
C254 C 0.74756 0.08996 0.46576 0.0
C255 C 0.76377 0.11728 0.43146 0.0
C256 C 0.70065 0.04152 0.48496 0.0
C257 C 0.69005 0.01538 0.44422 0.0
C258 C 0.69725 0.03942 0.55973 0.0
C259 C 0.70855 0.06625 0.60592 0.0
C260 C 0.72833 0.07064 0.66184 0.0
C261 C 0.739 0.09579 0.70565 0.0
C262 C 0.72991 0.11666 0.69435 0.0
C263 C 0.71032 0.11256 0.63885 0.0
C264 C 0.69959 0.08745 0.59483 0.0
C265 C 0.66813 0.91433 0.61959 0.0
C266 C 0.63993 0.90025 0.65252 0.0
C267 C 0.6791 0.94207 0.58748 0.0
C268 C 0.66228 0.95645 0.58824 0.0
C269 C 0.63456 0.94302 0.62292 0.0
C270 C 0.6233 0.91495 0.65419 0.0
C271 C 0.67356 0.9852 0.55107 0.0
C272 C 0.6834 0.0112 0.59167 0.0
C273 C 0.67682 0.98722 0.47639 0.0
C274 C 0.66752 0.96035 0.43133 0.0
C275 C 0.63813 0.93617 0.43416 0.0
C276 C 0.62991 0.91047 0.39379 0.0
C277 C 0.65081 0.90877 0.34983 0.0
C278 C 0.67992 0.93286 0.34578 0.0
C279 C 0.68829 0.95857 0.38623 0.0
H280 H 0.64442 0.88881 0.31886 0.0
H281 H 0.73802 0.13598 0.72872 0.0
H282 H 0.58909 0.70782 0.74066 0.0
H283 H 0.60849 0.67666 0.78723 0.0
H284 H 0.69436 0.7357 0.69407 0.0
H285 H 0.67532 0.76689 0.64792 0.0
H286 H 0.67675 0.67608 0.67508 0.0
H287 H 0.68332 0.74278 0.86365 0.0
H288 H 0.66342 0.76517 0.94757 0.0
H289 H 0.60552 0.67924 0.03799 0.0
H290 H 0.62476 0.65619 0.95375 0.0
H291 H 0.78404 0.65885 0.86632 0.0
H292 H 0.7534 0.67722 0.81306 0.0
H293 H 0.67683 0.61216 0.92984 0.0
H294 H 0.7074 0.59366 0.98414 0.0
H295 H 0.68267 0.66756 0.93589 0.0
H296 H 0.68268 0.60237 0.75888 0.0
H297 H 0.70147 0.57978 0.67265 0.0
H298 H 0.74585 0.66191 0.55719 0.0
H299 H 0.7283 0.68542 0.64417 0.0
C300 C 0.61196 0.71387 0.72921 0.0
C301 C 0.6307 0.73986 0.69075 0.0
C302 C 0.62305 0.69617 0.75622 0.0
C303 C 0.65294 0.70404 0.74461 0.0
C304 C 0.67124 0.72924 0.7037 0.0
C305 C 0.66033 0.74708 0.6775 0.0
C306 C 0.6658 0.6869 0.77694 0.0
C307 C 0.6783 0.67436 0.73208 0.0
C308 C 0.66687 0.6839 0.85132 0.0
C309 C 0.65517 0.69769 0.9017 0.0
C310 C 0.66611 0.72859 0.90089 0.0
C311 C 0.655 0.74142 0.94862 0.0
C312 C 0.63313 0.72364 -0.00215 0.0
C313 C 0.62239 0.69297 -0.00035 0.0
C314 C 0.63338 0.68001 0.95192 0.0
C315 C 0.76066 0.6483 0.88064 0.0
C316 C 0.74819 0.62467 0.92944 0.0
C317 C 0.74314 0.65876 0.84977 0.0
C318 C 0.71273 0.64575 0.8665 0.0
C319 C 0.70022 0.62241 0.91581 0.0
C320 C 0.71775 0.61187 0.94679 0.0
C321 C 0.69444 0.65734 0.83398 0.0
C322 C 0.68089 0.66887 0.87882 0.0
C323 C 0.69249 0.65946 0.75941 0.0
C324 C 0.70432 0.64578 0.70869 0.0
C325 C 0.69686 0.61582 0.71586 0.0
C326 C 0.70723 0.6028 0.66666 0.0
C327 C 0.72475 0.61936 0.60934 0.0
C328 C 0.73211 0.64905 0.60138 0.0
C329 C 0.7221 0.66229 0.65089 0.0
H330 H 0.73271 0.60923 0.57125 0.0
H331 H 0.62455 0.73364 0.03467 0.0
H332 H 0.12069 0.70089 0.3472 0.0
H333 H 0.06985 0.67295 0.29833 0.0
H334 H 0.09567 0.73702 0.12884 0.0
H335 H 0.14559 0.76541 0.1798 0.0
H336 H 0.04731 0.72887 0.17534 0.0
H337 H 0.0807 0.66148 0.1066 0.0
H338 H 0.10256 0.62921 0.1238 0.0
H339 H 0.03179 0.57458 0.26777 0.0
H340 H 1.00978 0.60683 0.25218 0.0
H341 H 0.9108 0.60055 0.97676 0.0
H342 H 0.96189 0.62164 0.02146 0.0
H343 H 0.94259 0.66698 0.18807 0.0
H344 H 0.89212 0.64709 0.14201 0.0
H345 H 0.98806 0.61955 0.13728 0.0
H346 H 1.00105 0.73294 0.22499 0.0
H347 H 0.9819 0.76629 0.19178 0.0
H348 H 0.96517 0.73073 0.97977 0.0
H349 H 0.98456 0.69747 0.01147 0.0
C350 C 0.1154 0.7086 0.29904 0.0
C351 C 0.13677 0.73523 0.2672 0.0
C352 C 0.08644 0.69263 0.27087 0.0
C353 C 0.07878 0.70271 0.20942 0.0
C354 C 0.10076 0.7288 0.17647 0.0
C355 C 0.12932 0.745 0.2054 0.0
C356 C 0.04759 0.68747 0.18161 0.0
C357 C 0.0345 0.70495 0.16697 0.0
C358 C 0.03074 0.65629 0.16952 0.0
C359 C 0.04379 0.63676 0.17876 0.0
C360 C 0.06995 0.64273 0.14234 0.0
C361 C 0.08234 0.62442 0.15173 0.0
C362 C 0.06861 0.5999 0.197 0.0
C363 C 0.04242 0.5936 0.2328 0.0
C364 C 0.02997 0.61188 0.22366 0.0
C365 C 0.91748 0.61502 0.02292 0.0
C366 C 0.89756 0.62254 0.05508 0.0
C367 C 0.94666 0.62695 0.04865 0.0
C368 C 0.95636 0.6464 0.10736 0.0
C369 C 0.93599 0.65274 0.1415 0.0
C370 C 0.90707 0.64129 0.11512 0.0
C371 C 0.98802 0.66103 0.13134 0.0
C372 C 1.00106 0.64346 0.14557 0.0
C373 C 1.00532 0.69231 0.14069 0.0
C374 C 0.99399 0.71253 0.12086 0.0
C375 C 0.9934 0.73234 0.17123 0.0
C376 C 0.98248 0.7512 0.15268 0.0
C377 C 0.97224 0.75056 0.08377 0.0
C378 C 0.97301 0.73113 0.03319 0.0
C379 C 0.98393 0.71226 0.05143 0.0
H380 H 0.96377 0.76516 0.06955 0.0
H381 H 0.07823 0.58575 0.20422 0.0
H382 H 0.44317 0.13668 0.54591 0.0
H383 H 0.42265 0.08698 0.49159 0.0
H384 H 0.33904 0.0583 0.59919 0.0
H385 H 0.35903 0.10787 0.65211 0.0
H386 H 0.36212 0.01772 0.60731 0.0
H387 H 0.34055 0.07414 0.43916 0.0
H388 H 0.35301 0.11617 0.35906 0.0
H389 H 0.40998 0.09446 0.23765 0.0
H390 H 0.3983 0.05258 0.31812 0.0
H391 H 0.24943 0.89347 0.41139 0.0
H392 H 0.27981 0.9428 0.46535 0.0
H393 H 0.35773 0.95258 0.35758 0.0
H394 H 0.3276 0.90277 0.30445 0.0
H395 H 0.34378 1.00297 0.34801 0.0
H396 H 0.35782 0.9407 0.50782 0.0
H397 H 0.34606 0.8998 0.59082 0.0
H398 H 0.30464 0.93335 0.73286 0.0
H399 H 0.31473 0.97361 0.64906 0.0
C400 C 0.42049 0.11968 0.55833 0.0
C401 C 0.4027 0.12614 0.60326 0.0
C402 C 0.40879 0.0914 0.52707 0.0
C403 C 0.37932 0.06904 0.54132 0.0
C404 C 0.36183 0.07525 0.5876 0.0
C405 C 0.37327 0.1036 0.61762 0.0
C406 C 0.36629 0.03921 0.5074 0.0
C407 C 0.35782 0.01434 0.55073 0.0
C408 C 0.36161 0.03515 0.4333 0.0
C409 C 0.36888 0.06047 0.38526 0.0
C410 C 0.35603 0.07854 0.39594 0.0
C411 C 0.36288 0.10229 0.35032 0.0
C412 C 0.38231 0.10802 0.2933 0.0
C413 C 0.39497 0.09002 0.2819 0.0
C414 C 0.38825 0.06628 0.32753 0.0
C415 C 0.27302 0.90612 0.39896 0.0
C416 C 0.28611 0.89431 0.3533 0.0
C417 C 0.29036 0.93417 0.43037 0.0
C418 C 0.32101 0.95115 0.41601 0.0
C419 C 0.33411 0.9397 0.36956 0.0
C420 C 0.3169 0.9113 0.33932 0.0
C421 C 0.33893 0.98121 0.44821 0.0
C422 C 0.34827 1.00621 0.40455 0.0
C423 C 0.34426 0.98532 0.52228 0.0
C424 C 0.33659 0.96001 0.57113 0.0
C425 C 0.3455 0.93899 0.55575 0.0
C426 C 0.33923 0.91594 0.60321 0.0
C427 C 0.32456 0.91394 0.66702 0.0
C428 C 0.31607 0.93495 0.68345 0.0
C429 C 0.32185 0.95777 0.63567 0.0
H430 H 0.31981 0.89613 0.70378 0.0
H431 H 0.38749 0.12632 0.25778 0.0
H432 H 0.18219 0.3559 0.808 0.0
H433 H 0.17083 0.33849 0.68506 0.0
H434 H 0.2019 0.42874 0.61653 0.0
H435 H 0.21184 0.44593 0.7396 0.0
H436 H 0.15606 0.39217 0.54086 0.0
H437 H 0.24755 0.39611 0.62327 0.0
H438 H 0.27499 0.38101 0.70432 0.0
H439 H 0.21973 0.28975 0.63998 0.0
H440 H 0.1916 0.30425 0.55952 0.0
H441 H 0.25701 0.41256 0.24422 0.0
H442 H 0.24305 0.39684 0.36639 0.0
H443 H 0.15045 0.34506 0.30478 0.0
H444 H 0.16414 0.36114 0.182 0.0
H445 H 0.21394 0.34693 0.4455 0.0
H446 H 0.11198 0.36165 0.42501 0.0
H447 H 0.0913 0.38536 0.34795 0.0
H448 H 0.17996 0.45239 0.28833 0.0
H449 H 0.20109 0.42927 0.36558 0.0
C450 C 0.18634 0.37192 0.76655 0.0
C451 C 0.19827 0.40231 0.78262 0.0
C452 C 0.17976 0.36194 0.69661 0.0
C453 C 0.18593 0.38238 0.6418 0.0
C454 C 0.19686 0.41258 0.6582 0.0
C455 C 0.20276 0.42244 0.72826 0.0
C456 C 0.18364 0.37325 0.56683 0.0
C457 C 0.16819 0.3817 0.52011 0.0
C458 C 0.19958 0.35968 0.53994 0.0
C459 C 0.2172 0.35118 0.58628 0.0
C460 C 0.2412 0.37281 0.62665 0.0
C461 C 0.25684 0.36437 0.6725 0.0
C462 C 0.24894 0.33442 0.67763 0.0
C463 C 0.22567 0.31291 0.63623 0.0
C464 C 0.20987 0.32122 0.59056 0.0
C465 C 0.23373 0.39741 0.25627 0.0
C466 C 0.2116 0.38861 0.20393 0.0
C467 C 0.22583 0.38816 0.32598 0.0
C468 C 0.19573 0.37004 0.34435 0.0
C469 C 0.17379 0.3592 0.29134 0.0
C470 C 0.18166 0.36854 0.22145 0.0
C471 C 0.18748 0.36709 0.4198 0.0
C472 C 0.20073 0.35617 0.46657 0.0
C473 C 0.17055 0.37951 0.4468 0.0
C474 C 0.15803 0.39355 0.40035 0.0
C475 C 0.12701 0.38146 0.39548 0.0
C476 C 0.11523 0.39482 0.35188 0.0
C477 C 0.13432 0.42039 0.31341 0.0
C478 C 0.16521 0.4326 0.3182 0.0
C479 C 0.17709 0.41937 0.36181 0.0
H480 H 0.12519 0.43077 0.27993 0.0
H481 H 0.26077 0.32787 0.71379 0.0
H482 H 0.7474 0.16433 0.07697 0.0
H483 H 0.75178 0.15846 0.94934 0.0
H484 H 0.84646 0.19271 0.97477 0.0
H485 H 0.84149 0.19629 0.10267 0.0
H486 H 0.77543 0.19638 0.85978 0.0
H487 H 0.87869 0.17764 0.84514 0.0
H488 H 0.89603 0.14681 0.90474 0.0
H489 H 0.80637 0.08542 0.9708 0.0
H490 H 0.7884 0.11562 0.91079 0.0
H491 H 0.84884 0.26369 0.55797 0.0
H492 H 0.84187 0.24775 0.6816 0.0
H493 H 0.82046 0.1594 0.61485 0.0
H494 H 0.82961 0.17603 0.4912 0.0
H495 H 0.84442 0.1696 0.74035 0.0
H496 H 0.76686 0.17682 0.63557 0.0
H497 H 0.74175 0.19836 0.56772 0.0
H498 H 0.7653 0.26587 0.72759 0.0
H499 H 0.79085 0.24486 0.79642 0.0
C500 C 0.76894 0.16977 0.05517 0.0
C501 C 0.79411 0.18064 0.09923 0.0
C502 C 0.77149 0.16655 0.98227 0.0
C503 C 0.79944 0.17499 0.95182 0.0
C504 C 0.82445 0.18514 -0.00344 0.0
C505 C 0.82169 0.18743 0.06975 0.0
C506 C 0.80321 0.17658 0.87329 0.0
C507 C 0.79029 0.19019 0.83387 0.0
C508 C 0.82153 0.16742 0.83801 0.0
C509 C 0.83224 0.14905 0.87381 0.0
C510 C 0.86263 0.15748 0.87202 0.0
C511 C 0.87258 0.14013 0.90599 0.0
C512 C 0.85233 0.11422 0.94168 0.0
C513 C 0.82206 0.10556 0.94335 0.0
C514 C 0.81199 0.12281 0.90947 0.0
C515 C 0.8437 0.24119 0.56999 0.0
C516 C 0.83927 0.2209 0.51538 0.0
C517 C 0.83948 0.23201 0.64045 0.0
C518 C 0.82954 0.20209 0.65708 0.0
C519 C 0.8278 0.1825 0.60313 0.0
C520 C 0.83298 0.19199 0.53258 0.0
C521 C 0.81813 0.19096 0.72922 0.0
C522 C 0.82931 0.17535 0.76671 0.0
C523 C 0.79679 0.1967 0.76177 0.0
C524 C 0.78085 0.20919 0.72137 0.0
C525 C 0.7667 0.19623 0.65649 0.0
C526 C 0.7524 0.20839 0.61771 0.0
C527 C 0.75193 0.23349 0.64327 0.0
C528 C 0.76566 0.24639 0.70788 0.0
C529 C 0.77999 0.23431 0.74693 0.0
H530 H 0.74095 0.24293 0.61298 0.0
H531 H 0.86008 0.10083 0.96795 0.0
H532 H 0.59831 0.7777 0.41604 0.0
H533 H 0.61789 0.78622 0.29565 0.0
H534 H 0.69973 0.86267 0.36759 0.0
H535 H 0.67976 0.85492 0.48814 0.0
H536 H 0.68369 0.87654 0.25506 0.0
H537 H 0.69798 0.79678 0.311 0.0
H538 H 0.68741 0.74818 0.35815 0.0
H539 H 0.61604 0.70313 0.20806 0.0
H540 H 0.62568 0.75141 0.16115 0.0
H541 H 0.6765 0.81544 0.86312 0.0
H542 H 0.69634 0.82244 0.98402 0.0
H543 H 0.63586 0.85234 0.05166 0.0
H544 H 0.61651 0.84609 0.93195 0.0
H545 H 0.66683 0.79309 0.09538 0.0
H546 H 0.66103 0.89951 0.18379 0.0
H547 H 0.67631 0.94935 0.13678 0.0
H548 H 0.73926 0.94371 -0.002 0.0
H549 H 0.72488 0.89407 0.04525 0.0
C550 C 0.62054 0.79624 0.40635 0.0
C551 C 0.63751 0.81557 0.46151 0.0
C552 C 0.63188 0.80088 0.33764 0.0
C553 C 0.66066 0.82457 0.32296 0.0
C554 C 0.67763 0.84403 0.37791 0.0
C555 C 0.66613 0.83964 0.44664 0.0
C556 C 0.67149 0.83028 0.24886 0.0
C557 C 0.68044 0.85844 0.2202 0.0
C558 C 0.66881 0.80707 0.20396 0.0
C559 C 0.66264 0.77782 0.23239 0.0
C560 C 0.67991 0.77653 0.28833 0.0
C561 C 0.67406 0.74902 0.31506 0.0
C562 C 0.65109 0.72259 0.28611 0.0
C563 C 0.63387 0.72361 0.23039 0.0
C564 C 0.63955 0.75106 0.20362 0.0
C565 C 0.66778 0.82393 0.90365 0.0
C566 C 0.64482 0.83007 0.8881 0.0
C567 C 0.67923 0.82803 0.97248 0.0
C568 C 0.66794 0.83839 0.02644 0.0
C569 C 0.64551 0.8451 0.01047 0.0
C570 C 0.63417 0.84113 0.94203 0.0
C571 C 0.67618 0.83848 0.10143 0.0
C572 C 0.67106 0.81148 0.13043 0.0
C573 C 0.68304 0.86295 0.14671 0.0
C574 C 0.69182 0.89294 0.11818 0.0
C575 C 0.67834 0.90896 0.14375 0.0
C576 C 0.68681 0.93719 0.11693 0.0
C577 C 0.70872 0.94968 0.06438 0.0
C578 C 0.72225 0.93398 0.03861 0.0
C579 C 0.71392 0.90577 0.06538 0.0
H580 H 0.71522 0.97153 0.04364 0.0
H581 H 0.64662 0.70131 0.30684 0.0
H582 H 0.86607 0.65944 0.80153 0.0
H583 H 0.87208 0.67251 0.67533 0.0
H584 H 0.8164 0.57961 0.62035 0.0
H585 H 0.81113 0.56638 0.74498 0.0
H586 H 0.85885 0.60425 0.52792 0.0
H587 H 0.79015 0.62847 0.64133 0.0
H588 H 0.7754 0.65411 0.72848 0.0
H589 H 0.83908 0.73878 0.64059 0.0
H590 H 0.85489 0.71352 0.55376 0.0
H591 H 0.76516 0.58507 0.24805 0.0
H592 H 0.78178 0.5972 0.37081 0.0
H593 H 0.86223 0.67544 0.30227 0.0
H594 H 0.84579 0.66341 0.17817 0.0
H595 H 0.8205 0.67032 0.45082 0.0
H596 H 0.8859 0.63862 0.32901 0.0
H597 H 0.89164 0.60599 0.24205 0.0
H598 H 0.8221 0.52872 0.34533 0.0
H599 H 0.8162 0.56082 0.43351 0.0
C600 C 0.85549 0.6418 0.76238 0.0
C601 C 0.83795 0.61189 0.78334 0.0
C602 C 0.85893 0.64931 0.69035 0.0
C603 C 0.84443 0.62707 0.63839 0.0
C604 C 0.82794 0.59716 0.65932 0.0
C605 C 0.8248 0.58964 0.73086 0.0
C606 C 0.84409 0.63451 0.56262 0.0
C607 C 0.851 0.61915 0.51129 0.0
C608 C 0.83377 0.65391 0.54049 0.0
C609 C 0.82408 0.66914 0.5919 0.0
C610 C 0.80132 0.65258 0.64114 0.0
C611 C 0.79284 0.66707 0.69071 0.0
C612 C 0.80641 0.69811 0.69054 0.0
C613 C 0.82863 0.71473 0.64082 0.0
C614 C 0.83745 0.70034 0.59156 0.0
C615 C 0.78603 0.60531 0.25901 0.0
C616 C 0.80429 0.62318 0.2035 0.0
C617 C 0.79542 0.61222 0.32915 0.0
C618 C 0.8232 0.63707 0.34506 0.0
C619 C 0.84062 0.65627 0.29059 0.0
C620 C 0.83116 0.64939 0.21995 0.0
C621 C 0.83512 0.63997 0.41735 0.0
C622 C 0.82991 0.65678 0.46779 0.0
C623 C 0.84631 0.6214 0.43906 0.0
C624 C 0.85061 0.6021 0.38768 0.0
C625 C 0.87186 0.61467 0.33314 0.0
C626 C 0.87515 0.59628 0.28368 0.0
C627 C 0.85719 0.56533 0.28801 0.0
C628 C 0.83606 0.55267 0.34219 0.0
C629 C 0.83284 0.57094 0.39212 0.0
H630 H 0.85968 0.55115 0.24949 0.0
H631 H 0.79961 0.70927 0.72866 0.0
H632 H 0.17868 0.82914 0.49925 0.0
H633 H 0.16745 0.83498 0.62272 0.0
H634 H 0.19867 0.77574 0.68964 0.0
H635 H 0.2084 0.76866 0.56637 0.0
H636 H 0.15372 0.76865 0.77094 0.0
H637 H 0.24344 0.85288 0.66625 0.0
H638 H 0.26642 0.89324 0.57817 0.0
H639 H 0.21897 0.93403 0.66702 0.0
H640 H 0.19432 0.89295 0.75287 0.0
H641 H 0.2602 0.84571 0.06001 0.0
H642 H 0.24626 0.84717 0.9373 0.0
H643 H 0.15589 0.81826 0.00275 0.0
H644 H 0.16955 0.8167 0.12594 0.0
H645 H 0.21881 0.87241 0.85657 0.0
H646 H 0.1125 0.76147 0.89092 0.0
H647 H 0.08961 0.71994 0.97644 0.0
H648 H 0.17628 0.73389 0.03033 0.0
H649 H 0.19957 0.7752 0.94461 0.0
C650 C 0.18271 0.81709 0.54045 0.0
C651 C 0.19493 0.79892 0.52396 0.0
C652 C 0.17611 0.82027 0.61066 0.0
C653 C 0.18274 0.80622 0.66526 0.0
C654 C 0.19337 0.78677 0.64824 0.0
C655 C 0.19919 0.78296 0.57799 0.0
C656 C 0.18257 0.8144 0.74032 0.0
C657 C 0.16742 0.79143 0.78956 0.0
C658 C 0.20052 0.84417 0.76456 0.0
C659 C 0.21666 0.86958 0.71527 0.0
C660 C 0.23769 0.87031 0.66661 0.0
C661 C 0.25082 0.89318 0.61669 0.0
C662 C 0.24412 0.91615 0.61699 0.0
C663 C 0.22408 0.91617 0.66677 0.0
C664 C 0.21031 0.89296 0.71563 0.0
C665 C 0.23751 0.84025 0.04864 0.0
C666 C 0.2158 0.83036 0.10235 0.0
C667 C 0.22966 0.84138 0.9786 0.0
C668 C 0.20003 0.83254 0.96132 0.0
C669 C 0.17884 0.82499 0.01537 0.0
C670 C 0.18667 0.8239 0.08553 0.0
C671 C 0.19074 0.82655 0.88652 0.0
C672 C 0.20414 0.84987 0.83763 0.0
C673 C 0.17159 0.79708 0.86244 0.0
C674 C 0.15773 0.77152 0.91189 0.0
C675 C 0.1266 0.75551 0.92074 0.0
C676 C 0.11358 0.73204 0.96923 0.0
C677 C 0.13149 0.72431 0.00876 0.0
C678 C 0.16244 0.73992 -0.0003 0.0
C679 C 0.17555 0.76334 0.95118 0.0
H680 H 0.12141 0.70623 0.04642 0.0
H681 H 0.25456 0.93405 0.57898 0.0
H682 H 0.41422 0.26509 0.43 0.0
H683 H 0.3994 0.25929 0.30476 0.0
H684 H 0.38311 0.16904 0.30711 0.0
H685 H 0.39617 0.17414 0.4322 0.0
H686 H 0.42488 0.25111 0.19842 0.0
H687 H 0.33476 0.1247 0.19446 0.0
H688 H 0.29387 0.08878 0.27058 0.0
H689 H 0.28549 0.15996 0.36426 0.0
H690 H 0.32609 0.19632 0.28802 0.0
H691 H 0.43214 0.18134 0.89968 0.0
H692 H 0.42083 0.18431 0.02417 0.0
H693 H 0.34708 0.19599 0.96306 0.0
H694 H 0.3581 0.19305 0.83808 0.0
H695 H 0.33981 0.15986 0.09454 0.0
H696 H 0.40079 0.25521 0.98642 0.0
H697 H 0.44161 0.29007 0.90835 0.0
H698 H 0.50543 0.28267 0.03896 0.0
H699 H 0.4649 0.24731 0.11715 0.0
C700 C 0.40711 0.24396 0.40358 0.0
C701 C 0.40617 0.22001 0.44016 0.0
C702 C 0.39854 0.24062 0.3325 0.0
C703 C 0.38943 0.21347 0.29725 0.0
C704 C 0.38888 0.18974 0.33395 0.0
C705 C 0.39671 0.1928 0.40512 0.0
C706 C 0.38356 0.21057 0.22037 0.0
C707 C 0.4059 0.2315 0.17583 0.0
C708 C 0.35859 0.18512 0.19077 0.0
C709 C 0.33349 0.16326 0.23536 0.0
C710 C 0.32397 0.13268 0.23066 0.0
C711 C 0.3009 0.11224 0.27401 0.0
C712 C 0.28708 0.12207 0.3222 0.0
C713 C 0.29624 0.15237 0.32697 0.0
C714 C 0.31931 0.17292 0.28373 0.0
C715 C 0.413 0.18368 0.9126 0.0
C716 C 0.39638 0.18758 0.8594 0.0
C717 C 0.40658 0.18534 0.98355 0.0
C718 C 0.38347 0.19079 0.00179 0.0
C719 C 0.36503 0.19185 0.94927 0.0
C720 C 0.37152 0.19035 0.87817 0.0
C721 C 0.38169 0.19965 0.07459 0.0
C722 C 0.35807 0.17992 0.11768 0.0
C723 C 0.40514 0.22642 0.1029 0.0
C724 C 0.42977 0.24851 0.05751 0.0
C725 C 0.42351 0.26091 -0.00167 0.0
C726 C 0.44659 0.28075 0.95404 0.0
C727 C 0.47609 0.28858 0.96871 0.0
C728 C 0.48257 0.27661 0.02776 0.0
C729 C 0.45955 0.2567 0.07214 0.0
H730 H 0.49394 0.30397 0.93447 0.0
H731 H 0.26927 0.10622 0.35585 0.0
H732 H 0.19221 0.49583 0.1093 0.0
H733 H 0.19468 0.54305 0.13789 0.0
H734 H 0.28867 0.58274 0.18293 0.0
H735 H 0.28619 0.53518 0.15405 0.0
H736 H 0.25925 0.60636 0.26735 0.0
H737 H 0.27122 0.589 0.02286 0.0
H738 H 0.25762 0.55913 0.91276 0.0
H739 H 0.17377 0.55734 0.90722 0.0
H740 H 0.1867 0.58675 0.0182 0.0
H741 H 0.2913 0.75374 0.20015 0.0
H742 H 0.29357 0.70828 0.17556 0.0
H743 H 0.19837 0.65942 0.14316 0.0
H744 H 0.19604 0.70475 0.16787 0.0
H745 H 0.23201 0.64198 0.05139 0.0
H746 H 0.22302 0.663 0.29618 0.0
H747 H 0.23782 0.69204 0.40735 0.0
H748 H 0.31756 0.68608 0.41561 0.0
H749 H 0.30408 0.65838 0.30232 0.0
C750 C 0.21308 0.51423 0.1286 0.0
C751 C 0.23894 0.51188 0.13021 0.0
C752 C 0.21455 0.54128 0.14417 0.0
C753 C 0.24202 0.56659 0.16067 0.0
C754 C 0.2673 0.5635 0.16974 0.0
C755 C 0.26582 0.53628 0.15411 0.0
C756 C 0.24483 0.59656 0.15879 0.0
C757 C 0.2538 0.61445 0.21995 0.0
C758 C 0.23742 0.60689 0.09689 0.0
C759 C 0.22983 0.58985 0.02917 0.0
C760 C 0.24981 0.58207 -0.00159 0.0
C761 C 0.24223 0.56523 0.93584 0.0
C762 C 0.21481 0.55629 0.90308 0.0
C763 C 0.19498 0.56426 0.93272 0.0
C764 C 0.20244 0.58104 -0.00456 0.0
C765 C 0.27114 0.73363 0.18422 0.0
C766 C 0.24357 0.73277 0.1842 0.0
C767 C 0.27239 0.70763 0.17149 0.0
C768 C 0.24609 0.68044 0.1591 0.0
C769 C 0.21892 0.68017 0.15275 0.0
C770 C 0.21762 0.70609 0.16611 0.0
C771 C 0.24631 0.65189 0.16021 0.0
C772 C 0.23782 0.63417 0.09873 0.0
C773 C 0.25448 0.64194 0.22181 0.0
C774 C 0.26281 0.65911 0.28958 0.0
C775 C 0.24405 0.66843 0.32066 0.0
C776 C 0.25219 0.68464 0.38424 0.0
C777 C 0.2787 0.69105 0.41834 0.0
C778 C 0.29707 0.68118 0.38902 0.0
C779 C 0.2893 0.66542 0.32481 0.0
H780 H 0.28495 0.70358 0.4676 0.0
H781 H 0.20895 0.54323 0.85465 0.0
H782 H 0.75918 0.28066 0.43733 0.0
H783 H 0.71613 0.28546 0.47208 0.0
H784 H 0.66032 0.18979 0.46908 0.0
H785 H 0.70305 0.18475 0.43473 0.0
H786 H 0.63968 0.21701 0.38118 0.0
H787 H 0.6731 0.22663 0.62148 0.0
H788 H 0.70602 0.24663 0.72584 0.0
H789 H 0.71299 0.3319 0.69541 0.0
H790 H 0.68017 0.31246 0.59055 0.0
H791 H 0.50544 0.18852 0.54942 0.0
H792 H 0.55274 0.19326 0.51003 0.0
H793 H 0.59148 0.28865 0.49719 0.0
H794 H 0.54365 0.28379 0.53496 0.0
H795 H 0.62335 0.26846 0.58403 0.0
H796 H 0.58486 0.25553 0.35009 0.0
H797 H 0.54756 0.23243 0.25462 0.0
H798 H 0.54775 0.15027 0.28032 0.0
H799 H 0.58473 0.17273 0.37676 0.0
C800 C 0.73793 0.26061 0.44597 0.0
C801 C 0.73446 0.23232 0.43195 0.0
C802 C 0.71333 0.26341 0.46583 0.0
C803 C 0.68495 0.23799 0.4722 0.0
C804 C 0.68197 0.20971 0.46365 0.0
C805 C 0.70647 0.20689 0.44409 0.0
C806 C 0.65782 0.24068 0.47951 0.0
C807 C 0.636 0.22798 0.42608 0.0
C808 C 0.65352 0.25599 0.53663 0.0
C809 C 0.6746 0.26822 0.59725 0.0
C810 C 0.68206 0.2498 0.63622 0.0
C811 C 0.70058 0.26099 0.69574 0.0
C812 C 0.71182 0.29059 0.7169 0.0
C813 C 0.70445 0.30904 0.67869 0.0
C814 C 0.68586 0.29793 0.61923 0.0
C815 C 0.52378 0.21036 0.53574 0.0
C816 C 0.52094 0.23574 0.5439 0.0
C817 C 0.55077 0.21308 0.51357 0.0
C818 C 0.57555 0.2413 0.50059 0.0
C819 C 0.57252 0.26668 0.50652 0.0
C820 C 0.54521 0.26388 0.52731 0.0
C821 C 0.60503 0.24399 0.4872 0.0
C822 C 0.62731 0.25779 0.53905 0.0
C823 C 0.60967 0.22943 0.42918 0.0
C824 C 0.58743 0.21577 0.37109 0.0
C825 C 0.57676 0.23245 0.33584 0.0
C826 C 0.55571 0.21949 0.28144 0.0
C827 C 0.54525 0.18988 0.26151 0.0
C828 C 0.55586 0.1732 0.29585 0.0
C829 C 0.57691 0.18605 0.35033 0.0
H830 H 0.52895 0.17988 0.21937 0.0
H831 H 0.72609 0.29918 0.7631 0.0
H832 H 0.33793 0.50763 0.9687 0.0
H833 H 0.38236 0.5542 0.9369 0.0
H834 H 0.32956 0.57641 0.8008 0.0
H835 H 0.28437 0.52951 0.83344 0.0
H836 H 0.38959 0.59061 0.74736 0.0
H837 H 0.34201 0.60637 0.94882 0.0
H838 H 0.31809 0.59416 0.06642 0.0
H839 H 0.39855 0.60499 0.15964 0.0
H840 H 0.42289 0.61682 0.04212 0.0
H841 H 0.48964 0.74011 0.71203 0.0
H842 H 0.4441 0.69583 0.74859 0.0
H843 H 0.49363 0.6779 0.90534 0.0
H844 H 0.53968 0.72379 0.87041 0.0
H845 H 0.43498 0.66133 0.94933 0.0
H846 H 0.48277 0.64573 0.74881 0.0
H847 H 0.50683 0.6573 0.63114 0.0
H848 H 0.42615 0.64525 0.53618 0.0
H849 H 0.40175 0.63409 0.65356 0.0
C850 C 0.33575 0.52214 0.931 0.0
C851 C 0.30762 0.51511 0.90414 0.0
C852 C 0.36118 0.54874 0.91303 0.0
C853 C 0.35908 0.56888 0.86767 0.0
C854 C 0.33148 0.56108 0.83627 0.0
C855 C 0.30577 0.53429 0.85458 0.0
C856 C 0.38551 0.59879 0.85768 0.0
C857 C 0.39927 0.60629 0.79108 0.0
C858 C 0.39853 0.61876 0.91555 0.0
C859 C 0.38418 0.6122 0.98653 0.0
C860 C 0.35455 0.60592 -0.00573 0.0
C861 C 0.34091 0.59909 0.06095 0.0
C862 C 0.35672 0.59869 0.12048 0.0
C863 C 0.3863 0.60526 0.11346 0.0
C864 C 0.40005 0.61206 0.04682 0.0
C865 C 0.49065 0.72754 0.75642 0.0
C866 C 0.51801 0.73555 0.78912 0.0
C867 C 0.46466 0.70197 0.77663 0.0
C868 C 0.46561 0.68323 0.82845 0.0
C869 C 0.49252 0.69209 0.86493 0.0
C870 C 0.51871 0.71826 0.84531 0.0
C871 C 0.43906 0.65332 0.83875 0.0
C872 C 0.42531 0.64572 0.90549 0.0
C873 C 0.42608 0.63317 0.781 0.0
C874 C 0.44051 0.6393 0.71009 0.0
C875 C 0.47021 0.64572 0.70291 0.0
C876 C 0.48391 0.65219 0.63625 0.0
C877 C 0.46804 0.65206 0.57624 0.0
C878 C 0.43842 0.64536 0.58273 0.0
C879 C 0.42463 0.63893 0.64931 0.0
H880 H 0.47869 0.6571 0.52468 0.0
H881 H 0.34609 0.59336 0.17206 0.0
H882 H 0.73771 0.26325 0.21103 0.0
H883 H 0.73227 0.30654 0.18443 0.0
H884 H 0.82781 0.36118 0.16432 0.0
H885 H 0.83348 0.31828 0.19033 0.0
H886 H 0.80309 0.38161 0.26616 0.0
H887 H 0.7849 0.34576 0.02357 0.0
H888 H 0.75894 0.31045 0.92554 0.0
H889 H 0.67781 0.30993 0.97708 0.0
H890 H 0.70315 0.34485 0.07628 0.0
H891 H 0.83519 0.51974 0.12736 0.0
H892 H 0.82857 0.47138 0.1599 0.0
H893 H 0.73292 0.43276 0.15001 0.0
H894 H 0.73937 0.4811 0.11605 0.0
H895 H 0.75011 0.40085 0.07305 0.0
H896 H 0.76711 0.43786 0.30935 0.0
H897 H 0.79206 0.47431 0.40592 0.0
H898 H 0.87295 0.47239 0.36826 0.0
H899 H 0.84855 0.43605 0.27109 0.0
C900 C 0.75748 0.28427 0.19879 0.0
C901 C 0.78608 0.28742 0.20368 0.0
C902 C 0.75432 0.30899 0.18382 0.0
C903 C 0.77968 0.33708 0.17328 0.0
C904 C 0.808 0.33973 0.17297 0.0
C905 C 0.81118 0.31514 0.18768 0.0
C906 C 0.77734 0.36437 0.1702 0.0
C907 C 0.79169 0.38593 0.22361 0.0
C908 C 0.76128 0.36932 0.11652 0.0
C909 C 0.74583 0.34759 0.05817 0.0
C910 C 0.76141 0.33777 0.01477 0.0
C911 C 0.74683 0.31791 0.95877 0.0
C912 C 0.71671 0.30786 0.94526 0.0
C913 C 0.70111 0.31766 0.98773 0.0
C914 C 0.71557 0.33747 0.04387 0.0
C915 C 0.81272 0.50114 0.13374 0.0
C916 C 0.78784 0.50425 0.11876 0.0
C917 C 0.80895 0.47348 0.15256 0.0
C918 C 0.78022 0.44842 0.15742 0.0
C919 C 0.75527 0.4518 0.14641 0.0
C920 C 0.75903 0.47953 0.12766 0.0
C921 C 0.77665 0.41846 0.16784 0.0
C922 C 0.76111 0.39634 0.1162 0.0
C923 C 0.7913 0.41277 0.22357 0.0
C924 C 0.80603 0.43433 0.28264 0.0
C925 C 0.79026 0.4453 0.32144 0.0
C926 C 0.80429 0.4659 0.37637 0.0
C927 C 0.83409 0.47572 0.3931 0.0
C928 C 0.84987 0.46478 0.35522 0.0
C929 C 0.83592 0.4441 0.30035 0.0
H930 H 0.84494 0.49177 0.43546 0.0
H931 H 0.70549 0.29258 0.90174 0.0
H932 H 0.33704 0.83489 0.34217 0.0
H933 H 0.38221 0.83703 0.38617 0.0
H934 H 0.33039 0.76891 0.53933 0.0
H935 H 0.28435 0.76605 0.49417 0.0
H936 H 0.39184 0.82487 0.58219 0.0
H937 H 0.34257 0.7461 0.40528 0.0
H938 H 0.31992 0.72919 0.28718 0.0
H939 H 0.40363 0.78901 0.18857 0.0
H940 H 0.42647 0.80744 0.30621 0.0
H941 H 0.4941 0.78535 0.68551 0.0
H942 H 0.44951 0.78421 0.64379 0.0
H943 H 0.49076 0.81652 0.43935 0.0
H944 H 0.53509 0.81455 0.4796 0.0
H945 H 0.43553 0.78148 0.41832 0.0
H946 H 0.4859 0.86334 0.57368 0.0
H947 H 0.51249 0.89121 0.68121 0.0
H948 H 0.43412 0.83822 0.80649 0.0
H949 H 0.40716 0.8097 0.69986 0.0
C950 C 0.33514 0.82052 0.38583 0.0
C951 C 0.30705 0.79991 0.41403 0.0
C952 C 0.36103 0.8219 0.41092 0.0
C953 C 0.35948 0.80287 0.46506 0.0
C954 C 0.33185 0.78371 0.49719 0.0
C955 C 0.30565 0.78213 0.47157 0.0
C956 C 0.38657 0.80171 0.48367 0.0
C957 C 0.40119 0.8149 0.54728 0.0
C958 C 0.3996 0.79045 0.4354 0.0
C959 C 0.38615 0.77836 0.36475 0.0
C960 C 0.35609 0.75586 0.35848 0.0
C961 C 0.34321 0.74599 0.29155 0.0
C962 C 0.36032 0.75789 0.23036 0.0
C963 C 0.39038 0.77978 0.23601 0.0
C964 C 0.40328 0.79004 0.30285 0.0
C965 C 0.49358 0.79156 0.63103 0.0
C966 C 0.51809 0.79992 0.58567 0.0
C967 C 0.46814 0.79143 0.60757 0.0
C968 C 0.46706 0.80141 0.53933 0.0
C969 C 0.49116 0.80903 0.49266 0.0
C970 C 0.51646 0.80797 0.51551 0.0
C971 C 0.4407 0.80395 0.5184 0.0
C972 C 0.42629 0.79132 0.45389 0.0
C973 C 0.42854 0.817 0.56439 0.0
C974 C 0.44457 0.83423 0.62877 0.0
C975 C 0.47438 0.8575 0.62422 0.0
C976 C 0.48952 0.87343 0.68502 0.0
C977 C 0.47502 0.86646 0.75066 0.0
C978 C 0.44532 0.84358 0.75561 0.0
C979 C 0.43009 0.82755 0.69498 0.0
H980 H 0.48678 0.87881 0.79768 0.0
H981 H 0.35029 0.75017 0.17859 0.0
H982 H 0.70239 0.51531 0.86827 0.0
H983 H 0.65779 0.46635 0.85293 0.0
H984 H 0.70573 0.42422 0.93227 0.0
H985 H 0.7507 0.47297 0.94431 0.0
H986 H 0.66983 0.39042 0.83602 0.0
H987 H 0.65794 0.43655 0.04015 0.0
H988 H 0.65811 0.47644 0.11241 0.0
H989 H 0.58835 0.47321 0.98306 0.0
H990 H 0.58807 0.43361 0.90927 0.0
H991 H 0.5259 0.25737 0.84235 0.0
H992 H 0.57143 0.29789 0.8974 0.0
H993 H 0.55285 0.36253 0.80282 0.0
H994 H 0.50776 0.32258 0.74906 0.0
H995 H 0.57587 0.37955 0.93438 0.0
H996 H 0.59575 0.33471 0.72231 0.0
H997 H 0.5976 0.29348 0.66078 0.0
H998 H 0.65467 0.29214 0.82405 0.0
H999 H 0.65262 0.3329 0.88726 0.0
C1000 C 0.70355 0.49554 0.88083 0.0
C1001 C 0.72999 0.49797 0.90735 0.0
C1002 C 0.67798 0.46758 0.87292 0.0
C1003 C 0.67809 0.44159 0.89356 0.0
C1004 C 0.70496 0.44389 0.91642 0.0
C1005 C 0.73073 0.47181 0.92291 0.0
C1006 C 0.64996 0.41227 0.89319 0.0
C1007 C 0.64939 0.38793 0.85857 0.0
C1008 C 0.62336 0.40864 0.92413 0.0
C1009 C 0.62311 0.4322 0.9689 0.0
C1010 C 0.64274 0.44444 0.02687 0.0
C1011 C 0.64285 0.46701 0.06812 0.0
C1012 C 0.62328 0.47738 0.05228 0.0
C1013 C 0.6035 0.46515 -0.00474 0.0
C1014 C 0.60333 0.44261 0.95375 0.0
C1015 C 0.53119 0.28023 0.8353 0.0
C1016 C 0.51361 0.28696 0.79083 0.0
C1017 C 0.55727 0.30332 0.86617 0.0
C1018 C 0.56585 0.33325 0.85293 0.0
C1019 C 0.54685 0.33966 0.81342 0.0
C1020 C 0.5211 0.3168 0.78253 0.0
C1021 C 0.5955 0.35835 0.87393 0.0
C1022 C 0.59645 0.38194 0.913 0.0
C1023 C 0.62254 0.36096 0.84871 0.0
C1024 C 0.62361 0.33649 0.81012 0.0
C1025 C 0.60844 0.32541 0.74542 0.0
C1026 C 0.60955 0.30214 0.71022 0.0
C1027 C 0.62608 0.29007 0.73879 0.0
C1028 C 0.64171 0.30137 0.80226 0.0
C1029 C 0.64054 0.32451 0.83782 0.0
H1030 H 0.62684 0.27198 0.71183 0.0
H1031 H 0.62342 0.49486 0.08425 0.0
loop_
_geom_bond_atom_site_label_1
_geom_bond_atom_site_label_2
_geom_bond_distance
_geom_bond_site_symmetry_2
_ccdc_geom_bond_type
Fe0 O2 1.915 1_554 S
Fe0 O5 1.997 . S
Fe0 O6 2.002 . S
Fe0 O11 1.976 . S
Fe0 O14 1.996 1_554 S
Fe1 O2 1.918 1_554 S
Fe1 O9 1.997 . S
Fe1 O12 1.996 1_554 S
Fe1 O16 1.976 1_554 S
Fe1 O19 2.002 . S
O2 Fe0 1.915 1_556 S
O2 Fe1 1.918 1_556 S
O2 Fe3 1.921 . S
Fe3 O2 1.921 . S
Fe3 O4 2.002 1_556 S
Fe3 O13 1.976 . S
Fe3 O17 1.996 . S
Fe3 O20 1.997 . S
O4 Fe3 2.002 1_554 S
O4 C21 1.295 . S
O5 Fe0 1.997 . S
O5 C21 1.235 . S
O6 Fe0 2.002 . S
O6 C7 1.295 . S
C7 O6 1.295 . S
C7 O9 1.235 . S
C8 O13 1.287 . S
C8 O14 1.255 . S
O9 Fe1 1.997 . S
O9 C7 1.235 . S
C10 O16 1.287 . S
C10 O17 1.255 . S
O11 Fe0 1.976 . S
O11 C18 1.287 . S
O12 Fe1 1.996 1_556 S
O12 C18 1.255 1_556 S
O13 Fe3 1.976 . S
O13 C8 1.287 . S
O14 Fe0 1.996 1_556 S
O14 C8 1.255 . S
C15 O19 1.295 . S
C15 O20 1.235 1_554 S
O16 Fe1 1.976 1_556 S
O16 C10 1.287 . S
O17 Fe3 1.996 . S
O17 C10 1.255 . S
C18 O11 1.287 . S
C18 O12 1.255 1_554 S
O19 Fe1 2.002 . S
O19 C15 1.295 . S
O20 Fe3 1.997 . S
O20 C15 1.235 1_556 S
C21 O4 1.295 . S
C21 O5 1.235 . S
Fe22 O24 1.918 . S
Fe22 O27 1.997 . S
Fe22 O28 2.002 . S
Fe22 O33 1.976 . S
Fe22 O36 1.996 . S
Fe23 O24 1.918 . S
Fe23 O31 1.997 . S
Fe23 O34 1.996 . S
Fe23 O38 1.976 . S
Fe23 O41 2.002 . S
O24 Fe22 1.918 . S
O24 Fe23 1.918 . S
O24 Fe25 1.918 . S
Fe25 O24 1.918 . S
Fe25 O26 2.002 . S
Fe25 O35 1.976 . S
Fe25 O39 1.996 . S
Fe25 O42 1.997 . S
O26 Fe25 2.002 . S
O26 C43 1.295 . S
O27 Fe22 1.997 . S
O27 C43 1.235 . S
O28 Fe22 2.002 . S
O28 C29 1.295 . S
C29 O28 1.295 . S
C29 O31 1.235 . S
C30 O35 1.287 . S
C30 O36 1.255 . S
O31 Fe23 1.997 . S
O31 C29 1.235 . S
C32 O38 1.287 . S
C32 O39 1.255 . S
O33 Fe22 1.976 . S
O33 C40 1.287 . S
O34 Fe23 1.996 . S
O34 C40 1.255 . S
O35 Fe25 1.976 . S
O35 C30 1.287 . S
O36 Fe22 1.996 . S
O36 C30 1.255 . S
C37 O41 1.295 . S
C37 O42 1.235 . S
O38 Fe23 1.976 . S
O38 C32 1.287 . S
O39 Fe25 1.996 . S
O39 C32 1.255 . S
C40 O33 1.287 . S
C40 O34 1.255 . S
O41 Fe23 2.002 . S
O41 C37 1.295 . S
O42 Fe25 1.997 . S
O42 C37 1.235 . S
C43 O26 1.295 . S
C43 O27 1.235 . S
Fe44 O46 1.918 . S
Fe44 O49 1.997 . S
Fe44 O50 2.002 . S
Fe44 O55 1.976 . S
Fe44 O58 1.996 . S
Fe45 O46 1.918 . S
Fe45 O53 1.997 . S
Fe45 O56 1.996 . S
Fe45 O60 1.976 . S
Fe45 O63 2.002 . S
O46 Fe44 1.918 . S
O46 Fe45 1.918 . S
O46 Fe47 1.918 . S
Fe47 O46 1.918 . S
Fe47 O48 2.002 . S
Fe47 O57 1.976 . S
Fe47 O61 1.996 . S
Fe47 O64 1.997 . S
O48 Fe47 2.002 . S
O48 C65 1.295 . S
O49 Fe44 1.997 . S
O49 C65 1.235 . S
O50 Fe44 2.002 . S
O50 C51 1.295 . S
C51 O50 1.295 . S
C51 O53 1.235 . S
C52 O57 1.287 . S
C52 O58 1.255 . S
O53 Fe45 1.997 . S
O53 C51 1.235 . S
C54 O60 1.287 . S
C54 O61 1.255 . S
O55 Fe44 1.976 . S
O55 C62 1.287 . S
O56 Fe45 1.996 . S
O56 C62 1.255 . S
O57 Fe47 1.976 . S
O57 C52 1.287 . S
O58 Fe44 1.996 . S
O58 C52 1.255 . S
C59 O63 1.295 . S
C59 O64 1.235 . S
O60 Fe45 1.976 . S
O60 C54 1.287 . S
O61 Fe47 1.996 . S
O61 C54 1.255 . S
C62 O55 1.287 . S
C62 O56 1.255 . S
O63 Fe45 2.002 . S
O63 C59 1.295 . S
O64 Fe47 1.997 . S
O64 C59 1.235 . S
C65 O48 1.295 . S
C65 O49 1.235 . S
Fe66 O68 1.921 . S
Fe66 O71 1.997 . S
Fe66 O72 2.002 1_556 S
Fe66 O77 1.976 . S
Fe66 O80 1.996 . S
Fe67 O68 1.915 1_554 S
Fe67 O75 1.997 . S
Fe67 O78 1.996 1_554 S
Fe67 O82 1.976 . S
Fe67 O85 2.002 . S
O68 Fe66 1.921 . S
O68 Fe67 1.915 1_556 S
O68 Fe69 1.918 1_556 S
Fe69 O68 1.918 1_554 S
Fe69 O70 2.002 . S
Fe69 O79 1.976 1_554 S
Fe69 O83 1.996 1_554 S
Fe69 O86 1.997 . S
O70 Fe69 2.002 . S
O70 C87 1.295 . S
O71 Fe66 1.997 . S
O71 C87 1.235 1_556 S
O72 Fe66 2.002 1_554 S
O72 C73 1.295 . S
C73 O72 1.295 . S
C73 O75 1.235 . S
C74 O79 1.287 . S
C74 O80 1.255 . S
O75 Fe67 1.997 . S
O75 C73 1.235 . S
C76 O82 1.287 . S
C76 O83 1.255 1_554 S
O77 Fe66 1.976 . S
O77 C84 1.287 . S
O78 Fe67 1.996 1_556 S
O78 C84 1.255 . S
O79 Fe69 1.976 1_556 S
O79 C74 1.287 . S
O80 Fe66 1.996 . S
O80 C74 1.255 . S
C81 O85 1.295 . S
C81 O86 1.235 . S
O82 Fe67 1.976 . S
O82 C76 1.287 . S
O83 Fe69 1.996 1_556 S
O83 C76 1.255 1_556 S
C84 O77 1.287 . S
C84 O78 1.255 . S
O85 Fe67 2.002 . S
O85 C81 1.295 . S
O86 Fe69 1.997 . S
O86 C81 1.235 . S
C87 O70 1.295 . S
C87 O71 1.235 1_554 S
Fe88 O90 1.918 . S
Fe88 O93 1.997 . S
Fe88 O94 2.002 . S
Fe88 O99 1.976 . S
Fe88 O102 1.996 . S
Fe89 O90 1.918 . S
Fe89 O97 1.997 . S
Fe89 O100 1.996 . S
Fe89 O104 1.976 . S
Fe89 O107 2.002 . S
O90 Fe88 1.918 . S
O90 Fe89 1.918 . S
O90 Fe91 1.918 . S
Fe91 O90 1.918 . S
Fe91 O92 2.002 . S
Fe91 O101 1.976 . S
Fe91 O105 1.996 . S
Fe91 O108 1.997 . S
O92 Fe91 2.002 . S
O92 C109 1.295 . S
O93 Fe88 1.997 . S
O93 C109 1.235 . S
O94 Fe88 2.002 . S
O94 C95 1.295 . S
C95 O94 1.295 . S
C95 O97 1.235 . S
C96 O101 1.287 . S
C96 O102 1.255 . S
O97 Fe89 1.997 . S
O97 C95 1.235 . S
C98 O104 1.287 . S
C98 O105 1.255 . S
O99 Fe88 1.976 . S
O99 C106 1.287 . S
O100 Fe89 1.996 . S
O100 C106 1.255 . S
O101 Fe91 1.976 . S
O101 C96 1.287 . S
O102 Fe88 1.996 . S
O102 C96 1.255 . S
C103 O107 1.295 . S
C103 O108 1.235 . S
O104 Fe89 1.976 . S
O104 C98 1.287 . S
O105 Fe91 1.996 . S
O105 C98 1.255 . S
C106 O99 1.287 . S
C106 O100 1.255 . S
O107 Fe89 2.002 . S
O107 C103 1.295 . S
O108 Fe91 1.997 . S
O108 C103 1.235 . S
C109 O92 1.295 . S
C109 O93 1.235 . S
Fe110 O112 1.918 . S
Fe110 O115 1.997 . S
Fe110 O116 2.002 . S
Fe110 O121 1.976 . S
Fe110 O124 1.996 . S
Fe111 O112 1.918 . S
Fe111 O119 1.997 . S
Fe111 O122 1.996 . S
Fe111 O126 1.976 . S
Fe111 O129 2.002 . S
O112 Fe110 1.918 . S
O112 Fe111 1.918 . S
O112 Fe113 1.918 . S
Fe113 O112 1.918 . S
Fe113 O114 2.002 . S
Fe113 O123 1.976 . S
Fe113 O127 1.996 . S
Fe113 O130 1.997 . S
O114 Fe113 2.002 . S
O114 C131 1.295 . S
O115 Fe110 1.997 . S
O115 C131 1.235 . S
O116 Fe110 2.002 . S
O116 C117 1.295 . S
C117 O116 1.295 . S
C117 O119 1.235 . S
C118 O123 1.287 . S
C118 O124 1.255 . S
O119 Fe111 1.997 . S
O119 C117 1.235 . S
C120 O126 1.287 . S
C120 O127 1.255 . S
O121 Fe110 1.976 . S
O121 C128 1.287 . S
O122 Fe111 1.996 . S
O122 C128 1.255 . S
O123 Fe113 1.976 . S
O123 C118 1.287 . S
O124 Fe110 1.996 . S
O124 C118 1.255 . S
C125 O129 1.295 . S
C125 O130 1.235 . S
O126 Fe111 1.976 . S
O126 C120 1.287 . S
O127 Fe113 1.996 . S
O127 C120 1.255 . S
C128 O121 1.287 . S
C128 O122 1.255 . S
O129 Fe111 2.002 . S
O129 C125 1.295 . S
O130 Fe113 1.997 . S
O130 C125 1.235 . S
C131 O114 1.295 . S
C131 O115 1.235 . S
H132 C150 0.951 . S
H133 C152 0.951 . S
H134 C154 0.950 . S
H135 C155 0.950 . S
H136 C157 0.950 . S
H137 C160 0.950 . S
H138 C161 0.950 . S
H139 C163 0.950 . S
H140 C164 0.950 . S
H141 C165 0.955 . S
H142 C167 0.951 . S
H143 C169 0.950 . S
H144 C170 0.950 . S
H145 C172 0.950 . S
H146 C175 0.950 1_556 S
H147 C176 0.950 . S
H148 C178 0.950 . S
H149 C179 0.950 . S
C150 H132 0.951 . S
C150 C151 1.366 . S
C150 C152 1.388 . S
C151 C150 1.366 . S
C151 C155 1.385 . S
C152 H133 0.951 . S
C152 C150 1.388 . S
C152 C153 1.366 . S
C153 C152 1.366 . S
C153 C154 1.414 . S
C153 C156 1.499 . S
C154 H134 0.950 . S
C154 C153 1.414 . S
C154 C155 1.374 . S
C155 H135 0.950 . S
C155 C151 1.385 . S
C155 C154 1.374 . S
C156 C153 1.499 . S
C156 C157 1.373 . S
C156 C158 1.389 . S
C157 H136 0.950 . S
C157 C156 1.373 . S
C157 C173 1.377 . S
C158 C156 1.389 . S
C158 C159 1.524 . S
C158 C172 1.377 . S
C159 C158 1.524 . S
C159 C160 1.397 . S
C159 C164 1.363 . S
C160 H137 0.950 . S
C160 C159 1.397 . S
C160 C161 1.334 . S
C161 H138 0.950 . S
C161 C160 1.334 . S
C161 C162 1.287 . S
C162 C161 1.287 . S
C162 C163 1.524 . S
C162 H181 0.913 . S
C163 H139 0.950 . S
C163 C162 1.524 . S
C163 C164 1.415 . S
C164 H140 0.950 . S
C164 C159 1.363 . S
C164 C163 1.415 . S
C165 H141 0.955 . S
C165 C166 1.364 1_554 S
C165 C167 1.385 1_554 S
C166 C165 1.364 1_556 S
C166 C170 1.385 . S
C167 H142 0.951 . S
C167 C165 1.385 1_556 S
C167 C168 1.366 . S
C168 C167 1.366 . S
C168 C169 1.414 . S
C168 C171 1.499 . S
C169 H143 0.950 . S
C169 C168 1.414 . S
C169 C170 1.374 . S
C170 H144 0.950 . S
C170 C166 1.385 . S
C170 C169 1.374 . S
C171 C168 1.499 . S
C171 C172 1.373 . S
C171 C173 1.389 . S
C172 H145 0.950 . S
C172 C158 1.377 . S
C172 C171 1.373 . S
C173 C157 1.377 . S
C173 C171 1.389 . S
C173 C174 1.524 . S
C174 C173 1.524 . S
C174 C175 1.397 1_556 S
C174 C179 1.363 1_556 S
C175 H146 0.950 1_554 S
C175 C174 1.397 1_554 S
C175 C176 1.334 . S
C176 H147 0.950 . S
C176 C175 1.334 . S
C176 C177 1.287 . S
C177 C176 1.287 . S
C177 C178 1.524 . S
C177 H180 0.999 . S
C178 H148 0.950 . S
C178 C177 1.524 . S
C178 C179 1.415 . S
C179 H149 0.950 . S
C179 C174 1.363 1_554 S
C179 C178 1.415 . S
H180 C177 0.999 . S
H181 C162 0.913 . S
H182 C200 0.951 . S
H183 C202 0.951 . S
H184 C204 0.950 . S
H185 C205 0.950 . S
H186 C207 0.950 . S
H187 C210 0.950 . S
H188 C211 0.950 . S
H189 C213 0.950 1_655 S
H190 C214 0.950 . S
H191 C215 0.951 . S
H192 C217 0.951 . S
H193 C219 0.950 . S
H194 C220 0.950 . S
H195 C222 0.950 . S
H196 C225 0.950 . S
H197 C226 0.950 . S
H198 C228 0.950 . S
H199 C229 0.950 . S
C200 H182 0.951 . S
C200 C201 1.366 1_556 S
C200 C202 1.388 1_556 S
C201 C200 1.366 1_554 S
C201 C205 1.385 . S
C202 H183 0.951 . S
C202 C200 1.388 1_554 S
C202 C203 1.366 . S
C203 C202 1.366 . S
C203 C204 1.414 . S
C203 C206 1.499 . S
C204 H184 0.950 . S
C204 C203 1.414 . S
C204 C205 1.374 . S
C205 H185 0.950 . S
C205 C201 1.385 . S
C205 C204 1.374 . S
C206 C203 1.499 . S
C206 C207 1.373 . S
C206 C208 1.389 . S
C207 H186 0.950 . S
C207 C206 1.373 . S
C207 C223 1.377 1_455 S
C208 C206 1.389 . S
C208 C209 1.524 . S
C208 C222 1.377 1_455 S
C209 C208 1.524 . S
C209 C210 1.397 . S
C209 C214 1.363 1_455 S
C210 H187 0.950 . S
C210 C209 1.397 . S
C210 C211 1.334 . S
C211 H188 0.950 . S
C211 C210 1.334 . S
C211 C212 1.287 . S
C212 C211 1.287 . S
C212 C213 1.524 1_554 S
C212 H231 0.913 . S
C213 H189 0.950 1_455 S
C213 C212 1.524 1_556 S
C213 C214 1.415 1_456 S
C214 H190 0.950 . S
C214 C209 1.363 1_655 S
C214 C213 1.415 1_654 S
C215 H191 0.951 . S
C215 C216 1.366 . S
C215 C217 1.388 . S
C216 C215 1.366 . S
C216 C220 1.385 . S
C217 H192 0.951 . S
C217 C215 1.388 . S
C217 C218 1.366 . S
C218 C217 1.366 . S
C218 C219 1.414 . S
C218 C221 1.499 . S
C219 H193 0.950 . S
C219 C218 1.414 . S
C219 C220 1.374 . S
C220 H194 0.950 . S
C220 C216 1.385 . S
C220 C219 1.374 . S
C221 C218 1.499 . S
C221 C222 1.373 . S
C221 C223 1.389 . S
C222 H195 0.950 . S
C222 C208 1.377 1_655 S
C222 C221 1.373 . S
C223 C207 1.377 1_655 S
C223 C221 1.389 . S
C223 C224 1.524 . S
C224 C223 1.524 . S
C224 C225 1.397 . S
C224 C229 1.363 1_655 S
C225 H196 0.950 . S
C225 C224 1.397 . S
C225 C226 1.334 . S
C226 H197 0.950 . S
C226 C225 1.334 . S
C226 C227 1.287 . S
C227 C226 1.287 . S
C227 C228 1.524 1_655 S
C227 H230 0.999 . S
C228 H198 0.950 . S
C228 C227 1.524 1_455 S
C228 C229 1.415 . S
C229 H199 0.950 . S
C229 C224 1.363 1_455 S
C229 C228 1.415 . S
H230 C227 0.999 . S
H231 C212 0.913 . S
H232 C250 0.951 . S
H233 C252 0.951 . S
H234 C254 0.950 . S
H235 C255 0.950 . S
H236 C257 0.950 . S
H237 C260 0.950 . S
H238 C261 0.950 . S
H239 C263 0.950 . S
H240 C264 0.950 . S
H241 C265 0.951 . S
H242 C267 0.951 . S
H243 C269 0.950 . S
H244 C270 0.950 . S
H245 C272 0.949 1_565 S
H246 C275 0.950 . S
H247 C276 0.950 . S
H248 C278 0.950 . S
H249 C279 0.950 . S
C250 H232 0.951 . S
C250 C251 1.366 . S
C250 C252 1.388 . S
C251 C250 1.366 . S
C251 C255 1.385 . S
C252 H233 0.951 . S
C252 C250 1.388 . S
C252 C253 1.366 . S
C253 C252 1.366 . S
C253 C254 1.414 . S
C253 C256 1.499 . S
C254 H234 0.950 . S
C254 C253 1.414 . S
C254 C255 1.374 . S
C255 H235 0.950 . S
C255 C251 1.385 . S
C255 C254 1.374 . S
C256 C253 1.499 . S
C256 C257 1.373 . S
C256 C258 1.389 . S
C257 H236 0.950 . S
C257 C256 1.373 . S
C257 C273 1.377 1_545 S
C258 C256 1.389 . S
C258 C259 1.524 . S
C258 C272 1.410 . S
C259 C258 1.524 . S
C259 C260 1.397 . S
C259 C264 1.363 . S
C260 H237 0.950 . S
C260 C259 1.397 . S
C260 C261 1.334 . S
C261 H238 0.950 . S
C261 C260 1.334 . S
C261 C262 1.287 . S
C262 C261 1.287 . S
C262 C263 1.524 . S
C262 H281 0.913 . S
C263 H239 0.950 . S
C263 C262 1.524 . S
C263 C264 1.415 . S
C264 H240 0.950 . S
C264 C259 1.363 . S
C264 C263 1.415 . S
C265 H241 0.951 . S
C265 C266 1.366 . S
C265 C267 1.388 . S
C266 C265 1.366 . S
C266 C270 1.385 . S
C267 H242 0.951 . S
C267 C265 1.388 . S
C267 C268 1.366 . S
C268 C267 1.366 . S
C268 C269 1.414 . S
C268 C271 1.499 . S
C269 H243 0.950 . S
C269 C268 1.414 . S
C269 C270 1.374 . S
C270 H244 0.950 . S
C270 C266 1.385 . S
C270 C269 1.374 . S
C271 C268 1.499 . S
C271 C272 1.343 1_565 S
C271 C273 1.389 . S
C272 H245 0.949 1_545 S
C272 C258 1.410 . S
C272 C271 1.343 1_545 S
C273 C257 1.377 1_565 S
C273 C271 1.389 . S
C273 C274 1.524 . S
C274 C273 1.524 . S
C274 C275 1.397 . S
C274 C279 1.363 . S
C275 H246 0.950 . S
C275 C274 1.397 . S
C275 C276 1.334 . S
C276 H247 0.950 . S
C276 C275 1.334 . S
C276 C277 1.287 . S
C277 C276 1.287 . S
C277 C278 1.524 . S
C277 H280 0.999 . S
C278 H248 0.950 . S
C278 C277 1.524 . S
C278 C279 1.415 . S
C279 H249 0.950 . S
C279 C274 1.363 . S
C279 C278 1.415 . S
H280 C277 0.999 . S
H281 C262 0.913 . S
H282 C300 0.951 . S
H283 C302 0.951 . S
H284 C304 0.950 . S
H285 C305 0.950 . S
H286 C307 0.950 . S
H287 C310 0.950 . S
H288 C311 0.950 . S
H289 C313 0.950 . S
H290 C314 0.950 . S
H291 C315 0.951 . S
H292 C317 0.951 . S
H293 C319 0.950 . S
H294 C320 0.941 1_554 S
H295 C322 0.950 . S
H296 C325 0.950 . S
H297 C326 0.950 . S
H298 C328 0.950 . S
H299 C329 0.950 . S
C300 H282 0.951 . S
C300 C301 1.366 . S
C300 C302 1.388 . S
C301 C300 1.366 . S
C301 C305 1.385 . S
C302 H283 0.951 . S
C302 C300 1.388 . S
C302 C303 1.366 . S
C303 C302 1.366 . S
C303 C304 1.414 . S
C303 C306 1.499 . S
C304 H284 0.950 . S
C304 C303 1.414 . S
C304 C305 1.374 . S
C305 H285 0.950 . S
C305 C301 1.385 . S
C305 C304 1.374 . S
C306 C303 1.499 . S
C306 C307 1.373 . S
C306 C308 1.389 . S
C307 H286 0.950 . S
C307 C306 1.373 . S
C307 C323 1.377 . S
C308 C306 1.389 . S
C308 C309 1.524 . S
C308 C322 1.377 . S
C309 C308 1.524 . S
C309 C310 1.397 . S
C309 C314 1.363 . S
C310 H287 0.950 . S
C310 C309 1.397 . S
C310 C311 1.334 . S
C311 H288 0.950 . S
C311 C310 1.334 . S
C311 C312 1.287 1_556 S
C312 C311 1.287 1_554 S
C312 C313 1.524 . S
C312 H331 0.913 . S
C313 H289 0.950 . S
C313 C312 1.524 . S
C313 C314 1.415 1_554 S
C314 H290 0.950 . S
C314 C309 1.363 . S
C314 C313 1.415 1_556 S
C315 H291 0.951 . S
C315 C316 1.366 . S
C315 C317 1.388 . S
C316 C315 1.366 . S
C316 C320 1.388 . S
C317 H292 0.951 . S
C317 C315 1.388 . S
C317 C318 1.366 . S
C318 C317 1.366 . S
C318 C319 1.414 . S
C318 C321 1.499 . S
C319 H293 0.950 . S
C319 C318 1.414 . S
C319 C320 1.379 . S
C320 H294 0.941 1_556 S
C320 C316 1.388 . S
C320 C319 1.379 . S
C321 C318 1.499 . S
C321 C322 1.373 . S
C321 C323 1.389 . S
C322 H295 0.950 . S
C322 C308 1.377 . S
C322 C321 1.373 . S
C323 C307 1.377 . S
C323 C321 1.389 . S
C323 C324 1.524 . S
C324 C323 1.524 . S
C324 C325 1.397 . S
C324 C329 1.363 . S
C325 H296 0.950 . S
C325 C324 1.397 . S
C325 C326 1.334 . S
C326 H297 0.950 . S
C326 C325 1.334 . S
C326 C327 1.287 . S
C327 C326 1.287 . S
C327 C328 1.524 . S
C327 H330 0.999 . S
C328 H298 0.950 . S
C328 C327 1.524 . S
C328 C329 1.415 . S
C329 H299 0.950 . S
C329 C324 1.363 . S
C329 C328 1.415 . S
H330 C327 0.999 . S
H331 C312 0.913 . S
H332 C350 0.951 . S
H333 C352 0.951 . S
H334 C354 0.950 . S
H335 C355 0.950 . S
H336 C357 0.950 . S
H337 C360 0.950 . S
H338 C361 0.950 . S
H339 C363 0.950 . S
H340 C364 0.950 . S
H341 C365 0.951 . S
H342 C367 0.951 . S
H343 C369 0.950 . S
H344 C370 0.950 . S
H345 C372 0.950 . S
H346 C375 0.950 . S
H347 C376 0.950 . S
H348 C378 0.950 1_456 S
H349 C379 0.950 . S
C350 H332 0.951 . S
C350 C351 1.366 . S
C350 C352 1.388 . S
C351 C350 1.366 . S
C351 C355 1.385 . S
C352 H333 0.951 . S
C352 C350 1.388 . S
C352 C353 1.366 . S
C353 C352 1.366 . S
C353 C354 1.414 . S
C353 C356 1.499 . S
C354 H334 0.950 . S
C354 C353 1.414 . S
C354 C355 1.374 . S
C355 H335 0.950 . S
C355 C351 1.385 . S
C355 C354 1.374 . S
C356 C353 1.499 . S
C356 C357 1.373 . S
C356 C358 1.389 . S
C357 H336 0.950 . S
C357 C356 1.373 . S
C357 C373 1.377 1_455 S
C358 C356 1.389 . S
C358 C359 1.524 . S
C358 C372 1.377 1_455 S
C359 C358 1.524 . S
C359 C360 1.397 . S
C359 C364 1.363 1_455 S
C360 H337 0.950 . S
C360 C359 1.397 . S
C360 C361 1.334 . S
C361 H338 0.950 . S
C361 C360 1.334 . S
C361 C362 1.287 . S
C362 C361 1.287 . S
C362 C363 1.524 1_455 S
C362 H381 0.913 . S
C363 H339 0.950 . S
C363 C362 1.524 1_655 S
C363 C364 1.415 . S
C364 H340 0.950 . S
C364 C359 1.363 1_655 S
C364 C363 1.415 . S
C365 H341 0.951 . S
C365 C366 1.366 1_556 S
C365 C367 1.388 1_556 S
C366 C365 1.366 1_554 S
C366 C370 1.385 . S
C367 H342 0.951 . S
C367 C365 1.388 1_554 S
C367 C368 1.366 . S
C368 C367 1.366 . S
C368 C369 1.414 . S
C368 C371 1.499 . S
C369 H343 0.950 . S
C369 C368 1.414 . S
C369 C370 1.374 . S
C370 H344 0.950 . S
C370 C366 1.385 . S
C370 C369 1.374 . S
C371 C368 1.499 . S
C371 C372 1.373 . S
C371 C373 1.389 . S
C372 H345 0.950 . S
C372 C358 1.377 1_655 S
C372 C371 1.373 . S
C373 C357 1.377 1_655 S
C373 C371 1.389 . S
C373 C374 1.524 . S
C374 C373 1.524 . S
C374 C375 1.397 . S
C374 C379 1.363 1_655 S
C375 H346 0.950 . S
C375 C374 1.397 . S
C375 C376 1.334 . S
C376 H347 0.950 . S
C376 C375 1.334 . S
C376 C377 1.287 . S
C377 C376 1.287 . S
C377 C378 1.524 . S
C377 H380 0.999 . S
C378 H348 0.950 1_654 S
C378 C377 1.524 . S
C378 C379 1.415 1_655 S
C379 H349 0.950 . S
C379 C374 1.363 1_455 S
C379 C378 1.415 1_455 S
H380 C377 0.999 . S
H381 C362 0.913 . S
H382 C400 0.951 . S
H383 C402 0.951 . S
H384 C404 0.950 . S
H385 C405 0.950 . S
H386 C407 0.954 1_545 S
H387 C410 0.950 . S
H388 C411 0.950 . S
H389 C413 0.950 . S
H390 C414 0.950 . S
H391 C415 0.951 . S
H392 C417 0.951 . S
H393 C419 0.950 . S
H394 C420 0.950 . S
H395 C422 0.950 . S
H396 C425 0.950 . S
H397 C426 0.950 . S
H398 C428 0.950 . S
H399 C429 0.950 . S
C400 H382 0.951 . S
C400 C401 1.366 . S
C400 C402 1.388 . S
C401 C400 1.366 . S
C401 C405 1.385 . S
C402 H383 0.951 . S
C402 C400 1.388 . S
C402 C403 1.366 . S
C403 C402 1.366 . S
C403 C404 1.414 . S
C403 C406 1.499 . S
C404 H384 0.950 . S
C404 C403 1.414 . S
C404 C405 1.374 . S
C405 H385 0.950 . S
C405 C401 1.385 . S
C405 C404 1.374 . S
C406 C403 1.499 . S
C406 C407 1.345 1_545 S
C406 C408 1.389 . S
C407 H386 0.954 1_565 S
C407 C406 1.345 1_565 S
C407 C423 1.405 . S
C408 C406 1.389 . S
C408 C409 1.524 . S
C408 C422 1.377 1_545 S
C409 C408 1.524 . S
C409 C410 1.397 . S
C409 C414 1.363 . S
C410 H387 0.950 . S
C410 C409 1.397 . S
C410 C411 1.334 . S
C411 H388 0.950 . S
C411 C410 1.334 . S
C411 C412 1.287 . S
C412 C411 1.287 . S
C412 C413 1.524 . S
C412 H431 0.913 . S
C413 H389 0.950 . S
C413 C412 1.524 . S
C413 C414 1.415 . S
C414 H390 0.950 . S
C414 C409 1.363 . S
C414 C413 1.415 . S
C415 H391 0.951 . S
C415 C416 1.366 . S
C415 C417 1.388 . S
C416 C415 1.366 . S
C416 C420 1.385 . S
C417 H392 0.951 . S
C417 C415 1.388 . S
C417 C418 1.366 . S
C418 C417 1.366 . S
C418 C419 1.414 . S
C418 C421 1.499 . S
C419 H393 0.950 . S
C419 C418 1.414 . S
C419 C420 1.374 . S
C420 H394 0.950 . S
C420 C416 1.385 . S
C420 C419 1.374 . S
C421 C418 1.499 . S
C421 C422 1.373 . S
C421 C423 1.389 . S
C422 H395 0.950 . S
C422 C408 1.377 1_565 S
C422 C421 1.373 . S
C423 C407 1.405 . S
C423 C421 1.389 . S
C423 C424 1.524 . S
C424 C423 1.524 . S
C424 C425 1.397 . S
C424 C429 1.363 . S
C425 H396 0.950 . S
C425 C424 1.397 . S
C425 C426 1.334 . S
C426 H397 0.950 . S
C426 C425 1.334 . S
C426 C427 1.287 . S
C427 C426 1.287 . S
C427 C428 1.524 . S
C427 H430 0.999 . S
C428 H398 0.950 . S
C428 C427 1.524 . S
C428 C429 1.415 . S
C429 H399 0.950 . S
C429 C424 1.363 . S
C429 C428 1.415 . S
H430 C427 0.999 . S
H431 C412 0.913 . S
H432 C450 0.951 . S
H433 C452 0.951 . S
H434 C454 0.950 . S
H435 C455 0.950 . S
H436 C457 0.950 . S
H437 C460 0.950 . S
H438 C461 0.950 . S
H439 C463 0.950 . S
H440 C464 0.950 . S
H441 C465 0.951 . S
H442 C467 0.951 . S
H443 C469 0.950 . S
H444 C470 0.950 . S
H445 C472 0.950 . S
H446 C475 0.950 . S
H447 C476 0.950 . S
H448 C478 0.950 . S
H449 C479 0.950 . S
C450 H432 0.951 . S
C450 C451 1.366 . S
C450 C452 1.388 . S
C451 C450 1.366 . S
C451 C455 1.385 . S
C452 H433 0.951 . S
C452 C450 1.388 . S
C452 C453 1.366 . S
C453 C452 1.366 . S
C453 C454 1.414 . S
C453 C456 1.499 . S
C454 H434 0.950 . S
C454 C453 1.414 . S
C454 C455 1.374 . S
C455 H435 0.950 . S
C455 C451 1.385 . S
C455 C454 1.374 . S
C456 C453 1.499 . S
C456 C457 1.373 . S
C456 C458 1.389 . S
C457 H436 0.950 . S
C457 C456 1.373 . S
C457 C473 1.377 . S
C458 C456 1.389 . S
C458 C459 1.524 . S
C458 C472 1.377 . S
C459 C458 1.524 . S
C459 C460 1.397 . S
C459 C464 1.363 . S
C460 H437 0.950 . S
C460 C459 1.397 . S
C460 C461 1.334 . S
C461 H438 0.950 . S
C461 C460 1.334 . S
C461 C462 1.287 . S
C462 C461 1.287 . S
C462 C463 1.524 . S
C462 H481 0.913 . S
C463 H439 0.950 . S
C463 C462 1.524 . S
C463 C464 1.415 . S
C464 H440 0.950 . S
C464 C459 1.363 . S
C464 C463 1.415 . S
C465 H441 0.951 . S
C465 C466 1.366 . S
C465 C467 1.388 . S
C466 C465 1.366 . S
C466 C470 1.385 . S
C467 H442 0.951 . S
C467 C465 1.388 . S
C467 C468 1.366 . S
C468 C467 1.366 . S
C468 C469 1.414 . S
C468 C471 1.499 . S
C469 H443 0.950 . S
C469 C468 1.414 . S
C469 C470 1.374 . S
C470 H444 0.950 . S
C470 C466 1.385 . S
C470 C469 1.374 . S
C471 C468 1.499 . S
C471 C472 1.373 . S
C471 C473 1.389 . S
C472 H445 0.950 . S
C472 C458 1.377 . S
C472 C471 1.373 . S
C473 C457 1.377 . S
C473 C471 1.389 . S
C473 C474 1.524 . S
C474 C473 1.524 . S
C474 C475 1.397 . S
C474 C479 1.363 . S
C475 H446 0.950 . S
C475 C474 1.397 . S
C475 C476 1.334 . S
C476 H447 0.950 . S
C476 C475 1.334 . S
C476 C477 1.287 . S
C477 C476 1.287 . S
C477 C478 1.524 . S
C477 H480 0.999 . S
C478 H448 0.950 . S
C478 C477 1.524 . S
C478 C479 1.415 . S
C479 H449 0.950 . S
C479 C474 1.363 . S
C479 C478 1.415 . S
H480 C477 0.999 . S
H481 C462 0.913 . S
H482 C500 0.951 . S
H483 C502 0.951 1_556 S
H484 C504 0.950 . S
H485 C505 0.950 . S
H486 C507 0.950 . S
H487 C510 0.950 . S
H488 C511 0.950 1_554 S
H489 C513 0.950 . S
H490 C514 0.950 . S
H491 C515 0.951 . S
H492 C517 0.951 . S
H493 C519 0.950 . S
H494 C520 0.950 . S
H495 C522 0.950 . S
H496 C525 0.950 . S
H497 C526 0.950 . S
H498 C528 0.950 . S
H499 C529 0.950 . S
C500 H482 0.951 . S
C500 C501 1.366 . S
C500 C502 1.388 . S
C501 C500 1.366 . S
C501 C505 1.385 . S
C502 H483 0.951 1_554 S
C502 C500 1.388 . S
C502 C503 1.366 1_554 S
C503 C502 1.366 1_556 S
C503 C504 1.414 1_556 S
C503 C506 1.499 . S
C504 H484 0.950 . S
C504 C503 1.414 1_554 S
C504 C505 1.374 . S
C505 H485 0.950 . S
C505 C501 1.385 . S
C505 C504 1.374 . S
C506 C503 1.499 . S
C506 C507 1.373 . S
C506 C508 1.389 . S
C507 H486 0.950 . S
C507 C506 1.373 . S
C507 C523 1.377 . S
C508 C506 1.389 . S
C508 C509 1.524 . S
C508 C522 1.377 . S
C509 C508 1.524 . S
C509 C510 1.397 . S
C509 C514 1.363 . S
C510 H487 0.950 . S
C510 C509 1.397 . S
C510 C511 1.334 . S
C511 H488 0.950 1_556 S
C511 C510 1.334 . S
C511 C512 1.287 . S
C512 C511 1.287 . S
C512 C513 1.524 . S
C512 H531 0.913 . S
C513 H489 0.950 . S
C513 C512 1.524 . S
C513 C514 1.415 . S
C514 H490 0.950 . S
C514 C509 1.363 . S
C514 C513 1.415 . S
C515 H491 0.951 . S
C515 C516 1.366 . S
C515 C517 1.388 . S
C516 C515 1.366 . S
C516 C520 1.385 . S
C517 H492 0.951 . S
C517 C515 1.388 . S
C517 C518 1.366 . S
C518 C517 1.366 . S
C518 C519 1.414 . S
C518 C521 1.499 . S
C519 H493 0.950 . S
C519 C518 1.414 . S
C519 C520 1.374 . S
C520 H494 0.950 . S
C520 C516 1.385 . S
C520 C519 1.374 . S
C521 C518 1.499 . S
C521 C522 1.373 . S
C521 C523 1.389 . S
C522 H495 0.950 . S
C522 C508 1.377 . S
C522 C521 1.373 . S
C523 C507 1.377 . S
C523 C521 1.389 . S
C523 C524 1.524 . S
C524 C523 1.524 . S
C524 C525 1.397 . S
C524 C529 1.363 . S
C525 H496 0.950 . S
C525 C524 1.397 . S
C525 C526 1.334 . S
C526 H497 0.950 . S
C526 C525 1.334 . S
C526 C527 1.287 . S
C527 C526 1.287 . S
C527 C528 1.524 . S
C527 H530 0.999 . S
C528 H498 0.950 . S
C528 C527 1.524 . S
C528 C529 1.415 . S
C529 H499 0.950 . S
C529 C524 1.363 . S
C529 C528 1.415 . S
H530 C527 0.999 . S
H531 C512 0.913 . S
H532 C550 0.951 . S
H533 C552 0.951 . S
H534 C554 0.950 . S
H535 C555 0.950 . S
H536 C557 0.950 . S
H537 C560 0.950 . S
H538 C561 0.950 . S
H539 C563 0.950 . S
H540 C564 0.950 . S
H541 C565 0.951 . S
H542 C567 0.951 . S
H543 C569 0.943 1_554 S
H544 C570 0.950 . S
H545 C572 0.950 . S
H546 C575 0.950 . S
H547 C576 0.950 . S
H548 C578 0.950 . S
H549 C579 0.950 . S
C550 H532 0.951 . S
C550 C551 1.366 . S
C550 C552 1.388 . S
C551 C550 1.366 . S
C551 C555 1.385 . S
C552 H533 0.951 . S
C552 C550 1.388 . S
C552 C553 1.366 . S
C553 C552 1.366 . S
C553 C554 1.414 . S
C553 C556 1.499 . S
C554 H534 0.950 . S
C554 C553 1.414 . S
C554 C555 1.374 . S
C555 H535 0.950 . S
C555 C551 1.385 . S
C555 C554 1.374 . S
C556 C553 1.499 . S
C556 C557 1.373 . S
C556 C558 1.389 . S
C557 H536 0.950 . S
C557 C556 1.373 . S
C557 C573 1.377 . S
C558 C556 1.389 . S
C558 C559 1.524 . S
C558 C572 1.377 . S
C559 C558 1.524 . S
C559 C560 1.397 . S
C559 C564 1.363 . S
C560 H537 0.950 . S
C560 C559 1.397 . S
C560 C561 1.334 . S
C561 H538 0.950 . S
C561 C560 1.334 . S
C561 C562 1.287 . S
C562 C561 1.287 . S
C562 C563 1.524 . S
C562 H581 0.913 . S
C563 H539 0.950 . S
C563 C562 1.524 . S
C563 C564 1.415 . S
C564 H540 0.950 . S
C564 C559 1.363 . S
C564 C563 1.415 . S
C565 H541 0.951 . S
C565 C566 1.366 . S
C565 C567 1.388 . S
C566 C565 1.366 . S
C566 C570 1.385 . S
C567 H542 0.951 . S
C567 C565 1.388 . S
C567 C568 1.366 1_556 S
C568 C567 1.366 1_554 S
C568 C569 1.414 1_554 S
C568 C571 1.499 . S
C569 H543 0.943 1_556 S
C569 C568 1.414 1_556 S
C569 C570 1.374 . S
C570 H544 0.950 . S
C570 C566 1.385 . S
C570 C569 1.374 . S
C571 C568 1.499 . S
C571 C572 1.373 . S
C571 C573 1.389 . S
C572 H545 0.950 . S
C572 C558 1.377 . S
C572 C571 1.373 . S
C573 C557 1.377 . S
C573 C571 1.389 . S
C573 C574 1.524 . S
C574 C573 1.524 . S
C574 C575 1.397 . S
C574 C579 1.363 . S
C575 H546 0.950 . S
C575 C574 1.397 . S
C575 C576 1.334 . S
C576 H547 0.950 . S
C576 C575 1.334 . S
C576 C577 1.287 . S
C577 C576 1.287 . S
C577 C578 1.524 . S
C577 H580 0.999 . S
C578 H548 0.950 . S
C578 C577 1.524 . S
C578 C579 1.415 . S
C579 H549 0.950 . S
C579 C574 1.363 . S
C579 C578 1.415 . S
H580 C577 0.999 . S
H581 C562 0.913 . S
H582 C600 0.951 . S
H583 C602 0.951 . S
H584 C604 0.950 . S
H585 C605 0.950 . S
H586 C607 0.950 . S
H587 C610 0.950 . S
H588 C611 0.950 . S
H589 C613 0.950 . S
H590 C614 0.950 . S
H591 C615 0.951 . S
H592 C617 0.951 . S
H593 C619 0.950 . S
H594 C620 0.950 . S
H595 C622 0.950 . S
H596 C625 0.950 . S
H597 C626 0.950 . S
H598 C628 0.950 . S
H599 C629 0.950 . S
C600 H582 0.951 . S
C600 C601 1.366 . S
C600 C602 1.388 . S
C601 C600 1.366 . S
C601 C605 1.385 . S
C602 H583 0.951 . S
C602 C600 1.388 . S
C602 C603 1.366 . S
C603 C602 1.366 . S
C603 C604 1.414 . S
C603 C606 1.499 . S
C604 H584 0.950 . S
C604 C603 1.414 . S
C604 C605 1.374 . S
C605 H585 0.950 . S
C605 C601 1.385 . S
C605 C604 1.374 . S
C606 C603 1.499 . S
C606 C607 1.373 . S
C606 C608 1.389 . S
C607 H586 0.950 . S
C607 C606 1.373 . S
C607 C623 1.377 . S
C608 C606 1.389 . S
C608 C609 1.524 . S
C608 C622 1.377 . S
C609 C608 1.524 . S
C609 C610 1.397 . S
C609 C614 1.363 . S
C610 H587 0.950 . S
C610 C609 1.397 . S
C610 C611 1.334 . S
C611 H588 0.950 . S
C611 C610 1.334 . S
C611 C612 1.287 . S
C612 C611 1.287 . S
C612 C613 1.524 . S
C612 H631 0.913 . S
C613 H589 0.950 . S
C613 C612 1.524 . S
C613 C614 1.415 . S
C614 H590 0.950 . S
C614 C609 1.363 . S
C614 C613 1.415 . S
C615 H591 0.951 . S
C615 C616 1.366 . S
C615 C617 1.388 . S
C616 C615 1.366 . S
C616 C620 1.385 . S
C617 H592 0.951 . S
C617 C615 1.388 . S
C617 C618 1.366 . S
C618 C617 1.366 . S
C618 C619 1.414 . S
C618 C621 1.499 . S
C619 H593 0.950 . S
C619 C618 1.414 . S
C619 C620 1.374 . S
C620 H594 0.950 . S
C620 C616 1.385 . S
C620 C619 1.374 . S
C621 C618 1.499 . S
C621 C622 1.373 . S
C621 C623 1.389 . S
C622 H595 0.950 . S
C622 C608 1.377 . S
C622 C621 1.373 . S
C623 C607 1.377 . S
C623 C621 1.389 . S
C623 C624 1.524 . S
C624 C623 1.524 . S
C624 C625 1.397 . S
C624 C629 1.363 . S
C625 H596 0.950 . S
C625 C624 1.397 . S
C625 C626 1.334 . S
C626 H597 0.950 . S
C626 C625 1.334 . S
C626 C627 1.287 . S
C627 C626 1.287 . S
C627 C628 1.524 . S
C627 H630 0.999 . S
C628 H598 0.950 . S
C628 C627 1.524 . S
C628 C629 1.415 . S
C629 H599 0.950 . S
C629 C624 1.363 . S
C629 C628 1.415 . S
H630 C627 0.999 . S
H631 C612 0.913 . S
H632 C650 0.951 . S
H633 C652 0.951 . S
H634 C654 0.950 . S
H635 C655 0.950 . S
H636 C657 0.950 . S
H637 C660 0.950 . S
H638 C661 0.950 . S
H639 C663 0.950 . S
H640 C664 0.950 . S
H641 C665 0.951 . S
H642 C667 0.951 . S
H643 C669 0.950 . S
H644 C670 0.950 . S
H645 C672 0.950 . S
H646 C675 0.950 . S
H647 C676 0.950 1_554 S
H648 C678 0.950 . S
H649 C679 0.950 . S
C650 H632 0.951 . S
C650 C651 1.366 . S
C650 C652 1.388 . S
C651 C650 1.366 . S
C651 C655 1.385 . S
C652 H633 0.951 . S
C652 C650 1.388 . S
C652 C653 1.366 . S
C653 C652 1.366 . S
C653 C654 1.414 . S
C653 C656 1.499 . S
C654 H634 0.950 . S
C654 C653 1.414 . S
C654 C655 1.374 . S
C655 H635 0.950 . S
C655 C651 1.385 . S
C655 C654 1.374 . S
C656 C653 1.499 . S
C656 C657 1.373 . S
C656 C658 1.389 . S
C657 H636 0.950 . S
C657 C656 1.373 . S
C657 C673 1.377 . S
C658 C656 1.389 . S
C658 C659 1.524 . S
C658 C672 1.377 . S
C659 C658 1.524 . S
C659 C660 1.397 . S
C659 C664 1.363 . S
C660 H637 0.950 . S
C660 C659 1.397 . S
C660 C661 1.334 . S
C661 H638 0.950 . S
C661 C660 1.334 . S
C661 C662 1.287 . S
C662 C661 1.287 . S
C662 C663 1.524 . S
C662 H681 0.913 . S
C663 H639 0.950 . S
C663 C662 1.524 . S
C663 C664 1.415 . S
C664 H640 0.950 . S
C664 C659 1.363 . S
C664 C663 1.415 . S
C665 H641 0.951 . S
C665 C666 1.366 . S
C665 C667 1.388 . S
C666 C665 1.366 . S
C666 C670 1.385 . S
C667 H642 0.951 . S
C667 C665 1.388 . S
C667 C668 1.366 1_554 S
C668 C667 1.366 1_556 S
C668 C669 1.414 1_556 S
C668 C671 1.499 . S
C669 H643 0.950 . S
C669 C668 1.414 1_554 S
C669 C670 1.374 . S
C670 H644 0.950 . S
C670 C666 1.385 . S
C670 C669 1.374 . S
C671 C668 1.499 . S
C671 C672 1.373 . S
C671 C673 1.389 . S
C672 H645 0.950 . S
C672 C658 1.377 . S
C672 C671 1.373 . S
C673 C657 1.377 . S
C673 C671 1.389 . S
C673 C674 1.524 . S
C674 C673 1.524 . S
C674 C675 1.397 . S
C674 C679 1.363 . S
C675 H646 0.950 . S
C675 C674 1.397 . S
C675 C676 1.334 . S
C676 H647 0.950 1_556 S
C676 C675 1.334 . S
C676 C677 1.287 . S
C677 C676 1.287 . S
C677 C678 1.524 . S
C677 H680 0.999 1_556 S
C678 H648 0.950 . S
C678 C677 1.524 . S
C678 C679 1.415 . S
C679 H649 0.950 . S
C679 C674 1.363 . S
C679 C678 1.415 . S
H680 C677 0.999 1_554 S
H681 C662 0.913 . S
H682 C700 0.951 . S
H683 C702 0.951 . S
H684 C704 0.950 . S
H685 C705 0.950 . S
H686 C707 0.950 . S
H687 C710 0.950 . S
H688 C711 0.950 . S
H689 C713 0.950 . S
H690 C714 0.950 . S
H691 C715 0.951 . S
H692 C717 0.951 1_554 S
H693 C719 0.950 . S
H694 C720 0.950 . S
H695 C722 0.950 . S
H696 C725 0.950 . S
H697 C726 0.950 1_556 S
H698 C728 0.950 . S
H699 C729 0.950 . S
C700 H682 0.951 . S
C700 C701 1.366 . S
C700 C702 1.388 . S
C701 C700 1.366 . S
C701 C705 1.385 . S
C702 H683 0.951 . S
C702 C700 1.388 . S
C702 C703 1.366 . S
C703 C702 1.366 . S
C703 C704 1.414 . S
C703 C706 1.499 . S
C704 H684 0.950 . S
C704 C703 1.414 . S
C704 C705 1.374 . S
C705 H685 0.950 . S
C705 C701 1.385 . S
C705 C704 1.374 . S
C706 C703 1.499 . S
C706 C707 1.373 . S
C706 C708 1.389 . S
C707 H686 0.950 . S
C707 C706 1.373 . S
C707 C723 1.377 . S
C708 C706 1.389 . S
C708 C709 1.524 . S
C708 C722 1.377 . S
C709 C708 1.524 . S
C709 C710 1.397 . S
C709 C714 1.363 . S
C710 H687 0.950 . S
C710 C709 1.397 . S
C710 C711 1.334 . S
C711 H688 0.950 . S
C711 C710 1.334 . S
C711 C712 1.287 . S
C712 C711 1.287 . S
C712 C713 1.524 . S
C712 H731 0.913 . S
C713 H689 0.950 . S
C713 C712 1.524 . S
C713 C714 1.415 . S
C714 H690 0.950 . S
C714 C709 1.363 . S
C714 C713 1.415 . S
C715 H691 0.951 . S
C715 C716 1.366 . S
C715 C717 1.388 . S
C716 C715 1.366 . S
C716 C720 1.385 . S
C717 H692 0.951 1_556 S
C717 C715 1.388 . S
C717 C718 1.366 1_556 S
C718 C717 1.366 1_554 S
C718 C719 1.414 1_554 S
C718 C721 1.499 . S
C719 H693 0.950 . S
C719 C718 1.414 1_556 S
C719 C720 1.374 . S
C720 H694 0.950 . S
C720 C716 1.385 . S
C720 C719 1.374 . S
C721 C718 1.499 . S
C721 C722 1.373 . S
C721 C723 1.389 . S
C722 H695 0.950 . S
C722 C708 1.377 . S
C722 C721 1.373 . S
C723 C707 1.377 . S
C723 C721 1.389 . S
C723 C724 1.524 . S
C724 C723 1.524 . S
C724 C725 1.397 . S
C724 C729 1.363 . S
C725 H696 0.950 . S
C725 C724 1.397 . S
C725 C726 1.334 . S
C726 H697 0.950 1_554 S
C726 C725 1.334 . S
C726 C727 1.287 . S
C727 C726 1.287 . S
C727 C728 1.524 . S
C727 H730 0.999 . S
C728 H698 0.950 . S
C728 C727 1.524 . S
C728 C729 1.415 . S
C729 H699 0.950 . S
C729 C724 1.363 . S
C729 C728 1.415 . S
H730 C727 0.999 . S
H731 C712 0.913 . S
H732 C750 0.951 . S
H733 C752 0.951 . S
H734 C754 0.950 . S
H735 C755 0.950 . S
H736 C757 0.950 . S
H737 C760 0.950 . S
H738 C761 0.950 . S
H739 C763 0.950 . S
H740 C764 0.950 . S
H741 C765 0.951 . S
H742 C767 0.951 . S
H743 C769 0.950 . S
H744 C770 0.950 . S
H745 C772 0.950 . S
H746 C775 0.950 . S
H747 C776 0.950 . S
H748 C778 0.950 . S
H749 C779 0.950 . S
C750 H732 0.951 . S
C750 C751 1.366 . S
C750 C752 1.388 . S
C751 C750 1.366 . S
C751 C755 1.385 . S
C752 H733 0.951 . S
C752 C750 1.388 . S
C752 C753 1.366 . S
C753 C752 1.366 . S
C753 C754 1.414 . S
C753 C756 1.499 . S
C754 H734 0.950 . S
C754 C753 1.414 . S
C754 C755 1.374 . S
C755 H735 0.950 . S
C755 C751 1.385 . S
C755 C754 1.374 . S
C756 C753 1.499 . S
C756 C757 1.373 . S
C756 C758 1.389 . S
C757 H736 0.950 . S
C757 C756 1.373 . S
C757 C773 1.377 . S
C758 C756 1.389 . S
C758 C759 1.524 . S
C758 C772 1.377 . S
C759 C758 1.524 . S
C759 C760 1.397 1_554 S
C759 C764 1.363 . S
C760 H737 0.950 . S
C760 C759 1.397 1_556 S
C760 C761 1.334 . S
C761 H738 0.950 . S
C761 C760 1.334 . S
C761 C762 1.287 . S
C762 C761 1.287 . S
C762 C763 1.524 . S
C762 H781 0.913 . S
C763 H739 0.950 . S
C763 C762 1.524 . S
C763 C764 1.415 1_556 S
C764 H740 0.950 . S
C764 C759 1.363 . S
C764 C763 1.415 1_554 S
C765 H741 0.951 . S
C765 C766 1.366 . S
C765 C767 1.388 . S
C766 C765 1.366 . S
C766 C770 1.385 . S
C767 H742 0.951 . S
C767 C765 1.388 . S
C767 C768 1.366 . S
C768 C767 1.366 . S
C768 C769 1.414 . S
C768 C771 1.499 . S
C769 H743 0.950 . S
C769 C768 1.414 . S
C769 C770 1.374 . S
C770 H744 0.950 . S
C770 C766 1.385 . S
C770 C769 1.374 . S
C771 C768 1.499 . S
C771 C772 1.373 . S
C771 C773 1.389 . S
C772 H745 0.950 . S
C772 C758 1.377 . S
C772 C771 1.373 . S
C773 C757 1.377 . S
C773 C771 1.389 . S
C773 C774 1.524 . S
C774 C773 1.524 . S
C774 C775 1.397 . S
C774 C779 1.363 . S
C775 H746 0.950 . S
C775 C774 1.397 . S
C775 C776 1.334 . S
C776 H747 0.950 . S
C776 C775 1.334 . S
C776 C777 1.287 . S
C777 C776 1.287 . S
C777 C778 1.524 . S
C777 H780 0.999 . S
C778 H748 0.950 . S
C778 C777 1.524 . S
C778 C779 1.415 . S
C779 H749 0.950 . S
C779 C774 1.363 . S
C779 C778 1.415 . S
H780 C777 0.999 . S
H781 C762 0.913 . S
H782 C800 0.951 . S
H783 C802 0.951 . S
H784 C804 0.950 . S
H785 C805 0.950 . S
H786 C807 0.950 . S
H787 C810 0.950 . S
H788 C811 0.950 . S
H789 C813 0.950 . S
H790 C814 0.950 . S
H791 C815 0.951 . S
H792 C817 0.951 . S
H793 C819 0.950 . S
H794 C820 0.950 . S
H795 C822 0.950 . S
H796 C825 0.950 . S
H797 C826 0.950 . S
H798 C828 0.950 . S
H799 C829 0.950 . S
C800 H782 0.951 . S
C800 C801 1.366 . S
C800 C802 1.388 . S
C801 C800 1.366 . S
C801 C805 1.385 . S
C802 H783 0.951 . S
C802 C800 1.388 . S
C802 C803 1.366 . S
C803 C802 1.366 . S
C803 C804 1.414 . S
C803 C806 1.499 . S
C804 H784 0.950 . S
C804 C803 1.414 . S
C804 C805 1.374 . S
C805 H785 0.950 . S
C805 C801 1.385 . S
C805 C804 1.374 . S
C806 C803 1.499 . S
C806 C807 1.373 . S
C806 C808 1.389 . S
C807 H786 0.950 . S
C807 C806 1.373 . S
C807 C823 1.377 . S
C808 C806 1.389 . S
C808 C809 1.524 . S
C808 C822 1.377 . S
C809 C808 1.524 . S
C809 C810 1.397 . S
C809 C814 1.363 . S
C810 H787 0.950 . S
C810 C809 1.397 . S
C810 C811 1.334 . S
C811 H788 0.950 . S
C811 C810 1.334 . S
C811 C812 1.287 . S
C812 C811 1.287 . S
C812 C813 1.524 . S
C812 H831 0.913 . S
C813 H789 0.950 . S
C813 C812 1.524 . S
C813 C814 1.415 . S
C814 H790 0.950 . S
C814 C809 1.363 . S
C814 C813 1.415 . S
C815 H791 0.951 . S
C815 C816 1.366 . S
C815 C817 1.388 . S
C816 C815 1.366 . S
C816 C820 1.385 . S
C817 H792 0.951 . S
C817 C815 1.388 . S
C817 C818 1.366 . S
C818 C817 1.366 . S
C818 C819 1.414 . S
C818 C821 1.499 . S
C819 H793 0.950 . S
C819 C818 1.414 . S
C819 C820 1.374 . S
C820 H794 0.950 . S
C820 C816 1.385 . S
C820 C819 1.374 . S
C821 C818 1.499 . S
C821 C822 1.373 . S
C821 C823 1.389 . S
C822 H795 0.950 . S
C822 C808 1.377 . S
C822 C821 1.373 . S
C823 C807 1.377 . S
C823 C821 1.389 . S
C823 C824 1.524 . S
C824 C823 1.524 . S
C824 C825 1.397 . S
C824 C829 1.363 . S
C825 H796 0.950 . S
C825 C824 1.397 . S
C825 C826 1.334 . S
C826 H797 0.950 . S
C826 C825 1.334 . S
C826 C827 1.287 . S
C827 C826 1.287 . S
C827 C828 1.524 . S
C827 H830 0.999 . S
C828 H798 0.950 . S
C828 C827 1.524 . S
C828 C829 1.415 . S
C829 H799 0.950 . S
C829 C824 1.363 . S
C829 C828 1.415 . S
H830 C827 0.999 . S
H831 C812 0.913 . S
H832 C850 0.951 . S
H833 C852 0.951 . S
H834 C854 0.950 . S
H835 C855 0.950 . S
H836 C857 0.950 . S
H837 C860 0.950 . S
H838 C861 0.950 . S
H839 C863 0.950 . S
H840 C864 0.950 . S
H841 C865 0.951 . S
H842 C867 0.951 . S
H843 C869 0.950 . S
H844 C870 0.950 . S
H845 C872 0.950 . S
H846 C875 0.950 . S
H847 C876 0.950 . S
H848 C878 0.950 . S
H849 C879 0.950 . S
C850 H832 0.951 . S
C850 C851 1.366 . S
C850 C852 1.388 . S
C851 C850 1.366 . S
C851 C855 1.385 . S
C852 H833 0.951 . S
C852 C850 1.388 . S
C852 C853 1.366 . S
C853 C852 1.366 . S
C853 C854 1.414 . S
C853 C856 1.499 . S
C854 H834 0.950 . S
C854 C853 1.414 . S
C854 C855 1.374 . S
C855 H835 0.950 . S
C855 C851 1.385 . S
C855 C854 1.374 . S
C856 C853 1.499 . S
C856 C857 1.373 . S
C856 C858 1.389 . S
C857 H836 0.950 . S
C857 C856 1.373 . S
C857 C873 1.377 . S
C858 C856 1.389 . S
C858 C859 1.524 . S
C858 C872 1.377 . S
C859 C858 1.524 . S
C859 C860 1.397 . S
C859 C864 1.363 1_556 S
C860 H837 0.950 . S
C860 C859 1.397 . S
C860 C861 1.334 1_556 S
C861 H838 0.950 . S
C861 C860 1.334 1_554 S
C861 C862 1.287 . S
C862 C861 1.287 . S
C862 C863 1.524 . S
C862 H881 0.913 . S
C863 H839 0.950 . S
C863 C862 1.524 . S
C863 C864 1.415 . S
C864 H840 0.950 . S
C864 C859 1.363 1_554 S
C864 C863 1.415 . S
C865 H841 0.951 . S
C865 C866 1.366 . S
C865 C867 1.388 . S
C866 C865 1.366 . S
C866 C870 1.385 . S
C867 H842 0.951 . S
C867 C865 1.388 . S
C867 C868 1.366 . S
C868 C867 1.366 . S
C868 C869 1.414 . S
C868 C871 1.499 . S
C869 H843 0.950 . S
C869 C868 1.414 . S
C869 C870 1.374 . S
C870 H844 0.950 . S
C870 C866 1.385 . S
C870 C869 1.374 . S
C871 C868 1.499 . S
C871 C872 1.373 . S
C871 C873 1.389 . S
C872 H845 0.950 . S
C872 C858 1.377 . S
C872 C871 1.373 . S
C873 C857 1.377 . S
C873 C871 1.389 . S
C873 C874 1.524 . S
C874 C873 1.524 . S
C874 C875 1.397 . S
C874 C879 1.363 . S
C875 H846 0.950 . S
C875 C874 1.397 . S
C875 C876 1.334 . S
C876 H847 0.950 . S
C876 C875 1.334 . S
C876 C877 1.287 . S
C877 C876 1.287 . S
C877 C878 1.524 . S
C877 H880 0.999 . S
C878 H848 0.950 . S
C878 C877 1.524 . S
C878 C879 1.415 . S
C879 H849 0.950 . S
C879 C874 1.363 . S
C879 C878 1.415 . S
H880 C877 0.999 . S
H881 C862 0.913 . S
H882 C900 0.951 . S
H883 C902 0.951 . S
H884 C904 0.950 . S
H885 C905 0.950 . S
H886 C907 0.950 . S
H887 C910 0.950 . S
H888 C911 0.950 . S
H889 C913 0.950 . S
H890 C914 0.950 . S
H891 C915 0.951 . S
H892 C917 0.951 . S
H893 C919 0.950 . S
H894 C920 0.950 . S
H895 C922 0.950 . S
H896 C925 0.950 . S
H897 C926 0.950 . S
H898 C928 0.950 . S
H899 C929 0.950 . S
C900 H882 0.951 . S
C900 C901 1.366 . S
C900 C902 1.388 . S
C901 C900 1.366 . S
C901 C905 1.385 . S
C902 H883 0.951 . S
C902 C900 1.388 . S
C902 C903 1.366 . S
C903 C902 1.366 . S
C903 C904 1.414 . S
C903 C906 1.499 . S
C904 H884 0.950 . S
C904 C903 1.414 . S
C904 C905 1.374 . S
C905 H885 0.950 . S
C905 C901 1.385 . S
C905 C904 1.374 . S
C906 C903 1.499 . S
C906 C907 1.373 . S
C906 C908 1.389 . S
C907 H886 0.950 . S
C907 C906 1.373 . S
C907 C923 1.377 . S
C908 C906 1.389 . S
C908 C909 1.524 . S
C908 C922 1.377 . S
C909 C908 1.524 . S
C909 C910 1.397 . S
C909 C914 1.363 . S
C910 H887 0.950 . S
C910 C909 1.397 . S
C910 C911 1.334 1_554 S
C911 H888 0.950 . S
C911 C910 1.334 1_556 S
C911 C912 1.287 . S
C912 C911 1.287 . S
C912 C913 1.524 . S
C912 H931 0.913 . S
C913 H889 0.950 . S
C913 C912 1.524 . S
C913 C914 1.415 1_556 S
C914 H890 0.950 . S
C914 C909 1.363 . S
C914 C913 1.415 1_554 S
C915 H891 0.951 . S
C915 C916 1.366 . S
C915 C917 1.388 . S
C916 C915 1.366 . S
C916 C920 1.385 . S
C917 H892 0.951 . S
C917 C915 1.388 . S
C917 C918 1.366 . S
C918 C917 1.366 . S
C918 C919 1.414 . S
C918 C921 1.499 . S
C919 H893 0.950 . S
C919 C918 1.414 . S
C919 C920 1.374 . S
C920 H894 0.950 . S
C920 C916 1.385 . S
C920 C919 1.374 . S
C921 C918 1.499 . S
C921 C922 1.373 . S
C921 C923 1.389 . S
C922 H895 0.950 . S
C922 C908 1.377 . S
C922 C921 1.373 . S
C923 C907 1.377 . S
C923 C921 1.389 . S
C923 C924 1.524 . S
C924 C923 1.524 . S
C924 C925 1.397 . S
C924 C929 1.363 . S
C925 H896 0.950 . S
C925 C924 1.397 . S
C925 C926 1.334 . S
C926 H897 0.950 . S
C926 C925 1.334 . S
C926 C927 1.287 . S
C927 C926 1.287 . S
C927 C928 1.524 . S
C927 H930 0.999 . S
C928 H898 0.950 . S
C928 C927 1.524 . S
C928 C929 1.415 . S
C929 H899 0.950 . S
C929 C924 1.363 . S
C929 C928 1.415 . S
H930 C927 0.999 . S
H931 C912 0.913 . S
H932 C950 0.951 . S
H933 C952 0.951 . S
H934 C954 0.950 . S
H935 C955 0.950 . S
H936 C957 0.950 . S
H937 C960 0.950 . S
H938 C961 0.950 . S
H939 C963 0.950 . S
H940 C964 0.950 . S
H941 C965 0.951 . S
H942 C967 0.951 . S
H943 C969 0.950 . S
H944 C970 0.950 . S
H945 C972 0.950 . S
H946 C975 0.950 . S
H947 C976 0.950 . S
H948 C978 0.950 . S
H949 C979 0.950 . S
C950 H932 0.951 . S
C950 C951 1.366 . S
C950 C952 1.388 . S
C951 C950 1.366 . S
C951 C955 1.385 . S
C952 H933 0.951 . S
C952 C950 1.388 . S
C952 C953 1.366 . S
C953 C952 1.366 . S
C953 C954 1.414 . S
C953 C956 1.499 . S
C954 H934 0.950 . S
C954 C953 1.414 . S
C954 C955 1.374 . S
C955 H935 0.950 . S
C955 C951 1.385 . S
C955 C954 1.374 . S
C956 C953 1.499 . S
C956 C957 1.373 . S
C956 C958 1.389 . S
C957 H936 0.950 . S
C957 C956 1.373 . S
C957 C973 1.377 . S
C958 C956 1.389 . S
C958 C959 1.524 . S
C958 C972 1.377 . S
C959 C958 1.524 . S
C959 C960 1.397 . S
C959 C964 1.363 . S
C960 H937 0.950 . S
C960 C959 1.397 . S
C960 C961 1.334 . S
C961 H938 0.950 . S
C961 C960 1.334 . S
C961 C962 1.287 . S
C962 C961 1.287 . S
C962 C963 1.524 . S
C962 H981 0.913 . S
C963 H939 0.950 . S
C963 C962 1.524 . S
C963 C964 1.415 . S
C964 H940 0.950 . S
C964 C959 1.363 . S
C964 C963 1.415 . S
C965 H941 0.951 . S
C965 C966 1.366 . S
C965 C967 1.388 . S
C966 C965 1.366 . S
C966 C970 1.385 . S
C967 H942 0.951 . S
C967 C965 1.388 . S
C967 C968 1.366 . S
C968 C967 1.366 . S
C968 C969 1.414 . S
C968 C971 1.499 . S
C969 H943 0.950 . S
C969 C968 1.414 . S
C969 C970 1.374 . S
C970 H944 0.950 . S
C970 C966 1.385 . S
C970 C969 1.374 . S
C971 C968 1.499 . S
C971 C972 1.373 . S
C971 C973 1.389 . S
C972 H945 0.950 . S
C972 C958 1.377 . S
C972 C971 1.373 . S
C973 C957 1.377 . S
C973 C971 1.389 . S
C973 C974 1.524 . S
C974 C973 1.524 . S
C974 C975 1.397 . S
C974 C979 1.363 . S
C975 H946 0.950 . S
C975 C974 1.397 . S
C975 C976 1.334 . S
C976 H947 0.950 . S
C976 C975 1.334 . S
C976 C977 1.287 . S
C977 C976 1.287 . S
C977 C978 1.524 . S
C977 H980 0.999 . S
C978 H948 0.950 . S
C978 C977 1.524 . S
C978 C979 1.415 . S
C979 H949 0.950 . S
C979 C974 1.363 . S
C979 C978 1.415 . S
H980 C977 0.999 . S
H981 C962 0.913 . S
H982 C1000 0.951 . S
H983 C1002 0.951 . S
H984 C1004 0.950 . S
H985 C1005 0.950 . S
H986 C1007 0.950 . S
H987 C1010 0.950 . S
H988 C1011 0.950 . S
H989 C1013 0.950 . S
H990 C1014 0.950 . S
H991 C1015 0.951 . S
H992 C1017 0.951 . S
H993 C1019 0.950 . S
H994 C1020 0.950 . S
H995 C1022 0.950 . S
H996 C1025 0.950 . S
H997 C1026 0.950 . S
H998 C1028 0.950 . S
H999 C1029 0.950 . S
C1000 H982 0.951 . S
C1000 C1001 1.366 . S
C1000 C1002 1.388 . S
C1001 C1000 1.366 . S
C1001 C1005 1.385 . S
C1002 H983 0.951 . S
C1002 C1000 1.388 . S
C1002 C1003 1.366 . S
C1003 C1002 1.366 . S
C1003 C1004 1.414 . S
C1003 C1006 1.499 . S
C1004 H984 0.950 . S
C1004 C1003 1.414 . S
C1004 C1005 1.374 . S
C1005 H985 0.950 . S
C1005 C1001 1.385 . S
C1005 C1004 1.374 . S
C1006 C1003 1.499 . S
C1006 C1007 1.373 . S
C1006 C1008 1.389 . S
C1007 H986 0.950 . S
C1007 C1006 1.373 . S
C1007 C1023 1.377 . S
C1008 C1006 1.389 . S
C1008 C1009 1.524 . S
C1008 C1022 1.377 . S
C1009 C1008 1.524 . S
C1009 C1010 1.397 . S
C1009 C1014 1.363 . S
C1010 H987 0.950 . S
C1010 C1009 1.397 . S
C1010 C1011 1.334 . S
C1011 H988 0.950 . S
C1011 C1010 1.334 . S
C1011 C1012 1.287 . S
C1012 C1011 1.287 . S
C1012 C1013 1.524 . S
C1012 H1031 0.913 . S
C1013 H989 0.950 . S
C1013 C1012 1.524 . S
C1013 C1014 1.415 . S
C1014 H990 0.950 . S
C1014 C1009 1.363 . S
C1014 C1013 1.415 . S
C1015 H991 0.951 . S
C1015 C1016 1.366 . S
C1015 C1017 1.388 . S
C1016 C1015 1.366 . S
C1016 C1020 1.385 . S
C1017 H992 0.951 . S
C1017 C1015 1.388 . S
C1017 C1018 1.366 . S
C1018 C1017 1.366 . S
C1018 C1019 1.414 . S
C1018 C1021 1.499 . S
C1019 H993 0.950 . S
C1019 C1018 1.414 . S
C1019 C1020 1.374 . S
C1020 H994 0.950 . S
C1020 C1016 1.385 . S
C1020 C1019 1.374 . S
C1021 C1018 1.499 . S
C1021 C1022 1.373 . S
C1021 C1023 1.389 . S
C1022 H995 0.950 . S
C1022 C1008 1.377 . S
C1022 C1021 1.373 . S
C1023 C1007 1.377 . S
C1023 C1021 1.389 . S
C1023 C1024 1.524 . S
C1024 C1023 1.524 . S
C1024 C1025 1.397 . S
C1024 C1029 1.363 . S
C1025 H996 0.950 . S
C1025 C1024 1.397 . S
C1025 C1026 1.334 . S
C1026 H997 0.950 . S
C1026 C1025 1.334 . S
C1026 C1027 1.287 . S
C1027 C1026 1.287 . S
C1027 C1028 1.524 . S
C1027 H1030 0.999 . S
C1028 H998 0.950 . S
C1028 C1027 1.524 . S
C1028 C1029 1.415 . S
C1029 H999 0.950 . S
C1029 C1024 1.363 . S
C1029 C1028 1.415 . S
H1030 C1027 0.999 . S
H1031 C1012 0.913 . S
C151 C125 1.632 . S
C166 C18 1.617 1_556 S
C201 C15 1.632 . S
C216 C40 1.617 . S
C251 C37 1.633 . S
C266 C54 1.618 . S
C301 C65 1.633 . S
C316 C76 1.618 1_556 S
C351 C98 1.617 . S
C366 C87 1.633 . S
C401 C128 1.618 . S
C416 C109 1.633 . S
C451 C10 0.719 . S
C466 C7 0.719 . S
C501 C32 0.719 . S
C516 C29 0.719 . S
C551 C52 0.720 . S
C566 C59 0.718 . S
C601 C74 0.719 . S
C616 C81 0.719 . S
C651 C103 0.718 . S
C666 C96 0.720 . S
C701 C120 0.719 . S
C716 C117 0.719 . S
C751 C21 1.135 . S
C766 C106 1.148 . S
C801 C43 1.134 . S
C816 C118 1.147 . S
C851 C8 1.148 . S
C866 C51 1.135 . S
C901 C30 1.147 . S
C916 C73 1.134 . S
C951 C95 1.135 . S
C966 C62 1.147 . S
C1001 C84 1.148 . S
C1016 C131 1.135 . S
