# Generated by pormake.
# Topology why, (6)-cn, num edge types: 1
# Building blocks:
#     Node 0, Type 0, BuildingBlock: MIDCAF_clean_sbu_0, # of connection points: 6
#     Node 1, Type 0, BuildingBlock: MIDCAF_clean_sbu_0, # of connection points: 6
#     Node 2, Type 0, BuildingBlock: MIDCAF_clean_sbu_0, # of connection points: 6
#     Node 3, Type 0, BuildingBlock: MIDCAF_clean_sbu_0, # of connection points: 6
#     Node 4, Type 0, BuildingBlock: MIDCAF_clean_sbu_0, # of connection points: 6
#     Node 5, Type 0, BuildingBlock: MIDCAF_clean_sbu_0, # of connection points: 6
#     Node 6, Type 0, BuildingBlock: MIDCAF_clean_sbu_0, # of connection points: 6
#     Node 7, Type 0, BuildingBlock: MIDCAF_clean_sbu_0, # of connection points: 6
#     Node 8, Type 0, BuildingBlock: MIDCAF_clean_sbu_0, # of connection points: 6
#     Node 9, Type 0, BuildingBlock: MIDCAF_clean_sbu_0, # of connection points: 6
#     Node 10, Type 0, BuildingBlock: MIDCAF_clean_sbu_0, # of connection points: 6
#     Node 11, Type 0, BuildingBlock: MIDCAF_clean_sbu_0, # of connection points: 6
#     Node 12, Type 0, BuildingBlock: MIDCAF_clean_sbu_0, # of connection points: 6
#     Node 13, Type 0, BuildingBlock: MIDCAF_clean_sbu_0, # of connection points: 6
#     Node 14, Type 0, BuildingBlock: MIDCAF_clean_sbu_0, # of connection points: 6
#     Node 15, Type 0, BuildingBlock: MIDCAF_clean_sbu_0, # of connection points: 6
#     Edge 16, Type (0, 0), BuildingBlock: OJICUG_clean_linker_0, # of connection points: 2
#     Edge 17, Type (0, 0), BuildingBlock: OJICUG_clean_linker_0, # of connection points: 2
#     Edge 18, Type (0, 0), BuildingBlock: OJICUG_clean_linker_0, # of connection points: 2
#     Edge 19, Type (0, 0), BuildingBlock: OJICUG_clean_linker_0, # of connection points: 2
#     Edge 20, Type (0, 0), BuildingBlock: OJICUG_clean_linker_0, # of connection points: 2
#     Edge 21, Type (0, 0), BuildingBlock: OJICUG_clean_linker_0, # of connection points: 2
#     Edge 22, Type (0, 0), BuildingBlock: OJICUG_clean_linker_0, # of connection points: 2
#     Edge 23, Type (0, 0), BuildingBlock: OJICUG_clean_linker_0, # of connection points: 2
#     Edge 24, Type (0, 0), BuildingBlock: OJICUG_clean_linker_0, # of connection points: 2
#     Edge 25, Type (0, 0), BuildingBlock: OJICUG_clean_linker_0, # of connection points: 2
#     Edge 26, Type (0, 0), BuildingBlock: OJICUG_clean_linker_0, # of connection points: 2
#     Edge 27, Type (0, 0), BuildingBlock: OJICUG_clean_linker_0, # of connection points: 2
#     Edge 28, Type (0, 0), BuildingBlock: OJICUG_clean_linker_0, # of connection points: 2
#     Edge 29, Type (0, 0), BuildingBlock: OJICUG_clean_linker_0, # of connection points: 2
#     Edge 30, Type (0, 0), BuildingBlock: OJICUG_clean_linker_0, # of connection points: 2
#     Edge 31, Type (0, 0), BuildingBlock: OJICUG_clean_linker_0, # of connection points: 2
#     Edge 32, Type (0, 0), BuildingBlock: OJICUG_clean_linker_0, # of connection points: 2
#     Edge 33, Type (0, 0), BuildingBlock: OJICUG_clean_linker_0, # of connection points: 2
#     Edge 34, Type (0, 0), BuildingBlock: OJICUG_clean_linker_0, # of connection points: 2
#     Edge 35, Type (0, 0), BuildingBlock: OJICUG_clean_linker_0, # of connection points: 2
#     Edge 36, Type (0, 0), BuildingBlock: OJICUG_clean_linker_0, # of connection points: 2
#     Edge 37, Type (0, 0), BuildingBlock: OJICUG_clean_linker_0, # of connection points: 2
#     Edge 38, Type (0, 0), BuildingBlock: OJICUG_clean_linker_0, # of connection points: 2
#     Edge 39, Type (0, 0), BuildingBlock: OJICUG_clean_linker_0, # of connection points: 2
#     Edge 40, Type (0, 0), BuildingBlock: OJICUG_clean_linker_0, # of connection points: 2
#     Edge 41, Type (0, 0), BuildingBlock: OJICUG_clean_linker_0, # of connection points: 2
#     Edge 42, Type (0, 0), BuildingBlock: OJICUG_clean_linker_0, # of connection points: 2
#     Edge 43, Type (0, 0), BuildingBlock: OJICUG_clean_linker_0, # of connection points: 2
#     Edge 44, Type (0, 0), BuildingBlock: OJICUG_clean_linker_0, # of connection points: 2
#     Edge 45, Type (0, 0), BuildingBlock: OJICUG_clean_linker_0, # of connection points: 2
#     Edge 46, Type (0, 0), BuildingBlock: OJICUG_clean_linker_0, # of connection points: 2
#     Edge 47, Type (0, 0), BuildingBlock: OJICUG_clean_linker_0, # of connection points: 2
#     Edge 48, Type (0, 0), BuildingBlock: OJICUG_clean_linker_0, # of connection points: 2
#     Edge 49, Type (0, 0), BuildingBlock: OJICUG_clean_linker_0, # of connection points: 2
#     Edge 50, Type (0, 0), BuildingBlock: OJICUG_clean_linker_0, # of connection points: 2
#     Edge 51, Type (0, 0), BuildingBlock: OJICUG_clean_linker_0, # of connection points: 2
#     Edge 52, Type (0, 0), BuildingBlock: OJICUG_clean_linker_0, # of connection points: 2
#     Edge 53, Type (0, 0), BuildingBlock: OJICUG_clean_linker_0, # of connection points: 2
#     Edge 54, Type (0, 0), BuildingBlock: OJICUG_clean_linker_0, # of connection points: 2
#     Edge 55, Type (0, 0), BuildingBlock: OJICUG_clean_linker_0, # of connection points: 2
#     Edge 56, Type (0, 0), BuildingBlock: OJICUG_clean_linker_0, # of connection points: 2
#     Edge 57, Type (0, 0), BuildingBlock: OJICUG_clean_linker_0, # of connection points: 2
#     Edge 58, Type (0, 0), BuildingBlock: OJICUG_clean_linker_0, # of connection points: 2
#     Edge 59, Type (0, 0), BuildingBlock: OJICUG_clean_linker_0, # of connection points: 2
#     Edge 60, Type (0, 0), BuildingBlock: OJICUG_clean_linker_0, # of connection points: 2
#     Edge 61, Type (0, 0), BuildingBlock: OJICUG_clean_linker_0, # of connection points: 2
#     Edge 62, Type (0, 0), BuildingBlock: OJICUG_clean_linker_0, # of connection points: 2
#     Edge 63, Type (0, 0), BuildingBlock: OJICUG_clean_linker_0, # of connection points: 2
# Relax obj value: 0.309
# Max RMSD: 0.222
# Mean RMSD: 0.222
data_MOF--net-why--node1-MIDCAF_clean_sbu_0--edge1-OJICUG_clean_linker_0
_symmetry_space_group_name_H-M    P1
_symmetry_Int_Tables_number       1
_symmetry_cell_setting            triclinic
loop_
_symmetry_equiv_pos_as_xyz
'x, y, z'
_cell_length_a     34.849236
_cell_length_b     35.114131
_cell_length_c     18.577174
_cell_angle_alpha  89.983708
_cell_angle_beta   89.748633
_cell_angle_gamma 89.519743
loop_
_atom_site_label
_atom_site_type_symbol
_atom_site_fract_x
_atom_site_fract_y
_atom_site_fract_z
_atom_type_partial_charge
Zn0 Zn 0.37766 0.18802 0.19518 0.0
Zn1 Zn 0.32929 0.11949 0.9924 0.0
Zn2 Zn 0.3516 0.15881 0.09188 0.0
C3 C 0.39993 0.09055 1.02377 0.0
C4 C 0.33742 0.1929 0.94094 0.0
O5 O 0.30342 0.17908 0.16136 0.0
O6 O 0.33596 0.22538 0.21153 0.0
C7 C 0.38313 0.11231 0.2218 0.0
O8 O 0.39172 0.1092 0.08186 0.0
O9 O 0.37688 0.09132 0.97169 0.0
O10 O 0.3166 0.16438 0.92873 0.0
O11 O 0.35863 0.19398 0.99738 0.0
O12 O 0.37732 0.14201 0.25847 0.0
O13 O 0.3821 0.11417 0.15254 0.0
O14 O 0.38794 0.20319 0.04505 0.0
O15 O 0.42437 0.20331 0.14187 0.0
C16 C 0.41941 0.21192 0.07654 0.0
O17 O 0.28909 0.15301 0.10058 0.0
O18 O 0.2883 0.09617 0.05142 0.0
C19 C 0.30421 0.20943 0.20033 0.0
C20 C 0.27075 0.12265 0.08405 0.0
Zn21 Zn 0.52816 0.63243 0.44086 0.0
Zn22 Zn 0.59331 0.56829 0.22228 0.0
Zn23 Zn 0.55627 0.59629 0.33128 0.0
C24 C 0.62617 0.63675 0.25806 0.0
C25 C 0.51693 0.58218 0.18307 0.0
O26 O 0.5355 0.55277 0.4052 0.0
O27 O 0.49618 0.58814 0.4711 0.0
C28 C 0.60682 0.63406 0.45627 0.0
O29 O 0.6093 0.62866 0.31789 0.0
O30 O 0.62183 0.61537 0.20421 0.0
O31 O 0.54428 0.5599 0.16662 0.0
O32 O 0.5192 0.6038 0.23888 0.0
O33 O 0.57727 0.6394 0.49462 0.0
O34 O 0.60347 0.62314 0.39022 0.0
O35 O 0.51495 0.63567 0.28173 0.0
O36 O 0.50938 0.67373 0.37608 0.0
C37 C 0.50437 0.66752 0.30981 0.0
O38 O 0.55747 0.53427 0.33848 0.0
O39 O 0.6142 0.52813 0.28778 0.0
C40 C 0.50953 0.5557 0.45431 0.0
C41 C 0.58659 0.51342 0.3217 0.0
Zn42 Zn 0.13707 0.8402 0.48345 0.0
Zn43 Zn 0.08311 0.77735 0.70247 0.0
Zn44 Zn 0.1119 0.80462 0.59169 0.0
C45 C 0.04338 0.74948 0.5849 0.0
C46 C 0.0767 0.85442 0.71943 0.0
O47 O 0.17467 0.80653 0.59067 0.0
O48 O 0.1824 0.86116 0.53476 0.0
C49 C 0.12255 0.76396 0.44508 0.0
O50 O 0.07363 0.76064 0.55182 0.0
O51 O 0.03878 0.7563 0.65105 0.0
O52 O 0.07638 0.82502 0.75845 0.0
O53 O 0.08404 0.85147 0.65146 0.0
O54 O 0.14395 0.79127 0.42674 0.0
O55 O 0.10213 0.76645 0.50277 0.0
O56 O 0.07483 0.85521 0.57894 0.0
O57 O 0.08932 0.86968 0.46667 0.0
C58 C 0.06642 0.87203 0.51931 0.0
O59 O 0.16002 0.7866 0.65911 0.0
O60 O 0.12856 0.74537 0.72603 0.0
C61 C 0.19667 0.83337 0.56883 0.0
C62 C 0.15998 0.75983 0.70626 0.0
Zn63 Zn 0.95335 0.32652 0.97415 0.0
Zn64 Zn 0.85525 0.38143 0.68775 0.0
Zn65 Zn 0.91126 0.35512 0.87809 0.0
C66 C 0.84541 0.3261 0.81777 0.0
C67 C 0.93795 0.36305 0.69254 0.0
O68 O 0.93016 0.40355 0.94088 0.0
O69 O 0.97996 0.37547 0.99232 0.0
C70 C 0.87775 0.30989 1.01357 0.0
O71 O 0.85911 0.32278 0.8809 0.0
O72 O 0.85027 0.35853 0.78887 0.0
O73 O 0.90971 0.37118 0.65119 0.0
O74 O 0.93369 0.35886 0.76184 0.0
O75 O 0.91019 0.31296 1.04299 0.0
O76 O 0.87336 0.31983 0.94725 0.0
O77 O 0.94958 0.32388 0.8107 0.0
O78 O 0.9732 0.28963 0.89978 0.0
C79 C 0.96968 0.29574 0.83295 0.0
O80 O 0.90279 0.41601 0.88174 0.0
O81 O 0.86948 0.39542 0.79251 0.0
C82 C 0.96068 0.40531 0.97927 0.0
C83 C 0.88313 0.42385 0.8258 0.0
Zn84 Zn 0.64329 0.85561 0.08261 0.0
Zn85 Zn 0.58243 0.7737 0.88897 0.0
Zn86 Zn 0.61329 0.80951 0.98766 0.0
C87 C 0.54564 0.75639 1.02231 0.0
C88 C 0.57369 0.84981 0.85348 0.0
O89 O 0.6757 0.81248 0.97972 0.0
O90 O 0.67659 0.87356 1.00176 0.0
C91 C 0.63404 0.78181 0.13867 0.0
O92 O 0.57626 0.7708 0.04883 0.0
O93 O 0.54015 0.75712 0.95507 0.0
O94 O 0.57517 0.81814 0.8214 0.0
O95 O 0.58189 0.85165 0.92103 0.0
O96 O 0.65779 0.80883 0.14073 0.0
O97 O 0.60804 0.78085 0.0897 0.0
O98 O 0.5778 0.86148 0.99122 0.0
O99 O 0.593 0.87946 0.10108 0.0
C100 C 0.56967 0.87999 0.04933 0.0
O101 O 0.66035 0.78446 0.9218 0.0
O102 O 0.62682 0.73954 0.86914 0.0
C103 C 0.69472 0.84349 0.98554 0.0
C104 C 0.65895 0.75425 0.88266 0.0
Zn105 Zn 0.39046 0.40141 0.85809 0.0
Zn106 Zn 0.4459 0.34848 0.63278 0.0
Zn107 Zn 0.42184 0.37986 0.74606 0.0
C108 C 0.47711 0.30903 0.75073 0.0
C109 C 0.36846 0.34135 0.62309 0.0
O110 O 0.41854 0.44301 0.74285 0.0
O111 O 0.36748 0.44673 0.81282 0.0
C112 C 0.46584 0.38715 0.89321 0.0
O113 O 0.46604 0.33915 0.78476 0.0
O114 O 0.46992 0.30534 0.68459 0.0
O115 O 0.39684 0.33944 0.58082 0.0
O116 O 0.37355 0.35163 0.68921 0.0
O117 O 0.43816 0.40705 0.91666 0.0
O118 O 0.46309 0.36956 0.83253 0.0
O119 O 0.36979 0.34593 0.76215 0.0
O120 O 0.35887 0.35701 0.87725 0.0
C121 C 0.3532 0.33713 0.82193 0.0
O122 O 0.4391 0.42697 0.6752 0.0
O123 O 0.47611 0.39315 0.60227 0.0
C124 C 0.39099 0.46271 0.771 0.0
C125 C 0.46362 0.42518 0.62326 0.0
Zn126 Zn 0.84022 0.11013 0.61688 0.0
Zn127 Zn 0.88293 0.17712 0.40439 0.0
Zn128 Zn 0.85752 0.14613 0.5054 0.0
C129 C 0.92446 0.20248 0.51678 0.0
C130 C 0.89024 0.10323 0.37039 0.0
O131 O 0.79545 0.13722 0.50304 0.0
O132 O 0.79588 0.08545 0.56998 0.0
C133 C 0.84674 0.18644 0.65527 0.0
O134 O 0.89276 0.19278 0.54674 0.0
O135 O 0.93078 0.19383 0.45189 0.0
O136 O 0.88386 0.13369 0.33655 0.0
O137 O 0.88919 0.10333 0.43983 0.0
O138 O 0.82985 0.15699 0.67774 0.0
O139 O 0.86457 0.18558 0.59444 0.0
O140 O 0.89919 0.09879 0.51057 0.0
O141 O 0.89073 0.0841 0.62506 0.0
C142 C 0.91088 0.08224 0.56854 0.0
O143 O 0.80811 0.16277 0.43884 0.0
O144 O 0.83847 0.21209 0.39388 0.0
C145 C 0.77783 0.1085 0.53 0.0
C146 C 0.8076 0.194 0.40256 0.0
Zn147 Zn 0.01864 0.62244 0.11466 0.0
Zn148 Zn 0.10781 0.57037 0.41033 0.0
Zn149 Zn 0.05629 0.59547 0.21607 0.0
C150 C 0.12078 0.62485 0.28127 0.0
C151 C 0.02454 0.58956 0.39922 0.0
O152 O 0.03869 0.54654 0.15248 0.0
O153 O -0.01001 0.57466 0.09772 0.0
C154 C 0.09433 0.63806 0.08178 0.0
O155 O 0.10823 0.62844 0.21739 0.0
O156 O 0.11488 0.59252 0.30965 0.0
O157 O 0.05248 0.58053 0.44068 0.0
O158 O 0.02881 0.59414 0.32979 0.0
O159 O 0.0633 0.63321 0.04831 0.0
O160 O 0.09613 0.63041 0.14962 0.0
O161 O 0.01581 0.62696 0.2777 0.0
O162 O -0.00109 0.6617 0.18393 0.0
C163 C -0.00117 0.65606 0.25121 0.0
O164 O 0.0649 0.53473 0.21274 0.0
O165 O 0.09464 0.55621 0.30549 0.0
C166 C 0.00866 0.54472 0.11273 0.0
C167 C 0.08288 0.52745 0.27079 0.0
Zn168 Zn 0.86475 0.65691 0.72924 0.0
Zn169 Zn 0.79339 0.61091 0.49457 0.0
Zn170 Zn 0.83239 0.64076 0.61758 0.0
C171 C 0.86996 0.58422 0.51379 0.0
C172 C 0.81809 0.68788 0.48131 0.0
O173 O 0.78791 0.66177 0.69256 0.0
O174 O 0.82504 0.69385 0.76618 0.0
C175 C 0.86491 0.57774 0.7211 0.0
O176 O 0.86237 0.58917 0.58134 0.0
O177 O 0.8449 0.59257 0.46732 0.0
O178 O 0.7885 0.66791 0.46952 0.0
O179 O 0.8426 0.67788 0.52947 0.0
O180 O 0.86651 0.60381 0.76789 0.0
O181 O 0.85654 0.58621 0.65544 0.0
O182 O 0.8736 0.68177 0.57869 0.0
O183 O 0.91052 0.67353 0.67359 0.0
C184 C 0.90617 0.68502 0.60972 0.0
O185 O 0.77018 0.64499 0.62398 0.0
O186 O 0.77041 0.58741 0.58385 0.0
C187 C 0.79181 0.6856 0.74451 0.0
C188 C 0.75111 0.61612 0.6031 0.0
Zn189 Zn 0.116 0.05385 0.79535 0.0
Zn190 Zn 0.03725 0.12245 0.9655 0.0
Zn191 Zn 0.06623 0.08262 0.87005 0.0
C192 C 0.01721 0.15585 0.83015 0.0
C193 C 0.11693 0.11704 0.98918 0.0
O194 O 0.05826 0.02205 0.85946 0.0
O195 O 0.12002 0.01128 0.8675 0.0
C196 C 0.0511 0.07087 0.70917 0.0
O197 O 0.04017 0.1297 0.80633 0.0
O198 O 0.0098 0.15787 0.8968 0.0
O199 O 0.08852 0.13702 1.00962 0.0
O200 O 0.11343 0.09362 0.93727 0.0
O201 O 0.07571 0.04442 0.71507 0.0
O202 O 0.04973 0.09703 0.75804 0.0
O203 O 0.08185 0.12256 0.78714 0.0
O204 O 0.14275 0.10567 0.79719 0.0
C205 C 0.11769 0.13015 0.7791 0.0
O206 O 0.02677 0.04209 0.91212 0.0
O207 O 0.01052 0.0765 1.00689 0.0
C208 C 0.08626 -0.00173 0.86401 0.0
C209 C 0.00946 0.04531 0.97277 0.0
Zn210 Zn 0.67686 0.32622 1.02405 0.0
Zn211 Zn 0.60475 0.28024 0.23468 0.0
Zn212 Zn 0.63835 0.3011 0.12347 0.0
C213 C 0.56158 0.2612 0.11014 0.0
C214 C 0.60484 0.3582 0.2408 0.0
O215 O 0.70173 0.29345 0.13557 0.0
O216 O 0.72015 0.34602 0.08204 0.0
C217 C 0.64934 0.25646 0.98226 0.0
O218 O 0.59454 0.26375 0.07944 0.0
O219 O 0.55795 0.26946 0.17601 0.0
O220 O 0.60565 0.33085 0.28498 0.0
O221 O 0.612 0.35204 0.17356 0.0
O222 O 0.68031 0.27464 0.97461 0.0
O223 O 0.62546 0.26594 1.03228 0.0
O224 O 0.61255 0.35641 0.09975 0.0
O225 O 0.63521 0.35929 0.98927 0.0
C226 C 0.60983 0.36873 1.03459 0.0
O227 O 0.6801 0.27671 0.19843 0.0
O228 O 0.64277 0.24021 0.26479 0.0
C229 C 0.72852 0.31696 0.11883 0.0
C230 C 0.67603 0.25075 0.24667 0.0
Zn231 Zn 0.42576 0.84284 0.43809 0.0
Zn232 Zn 0.34979 0.90777 0.23374 0.0
Zn233 Zn 0.39352 0.87489 0.33184 0.0
C234 C 0.3192 0.83727 0.26886 0.0
C235 C 0.42375 0.88991 0.17707 0.0
O236 O 0.41593 0.91968 0.40367 0.0
O237 O 0.4564 0.88647 0.47037 0.0
C238 C 0.34876 0.83431 0.46251 0.0
O239 O 0.34 0.84319 0.32484 0.0
O240 O 0.31824 0.86174 0.21912 0.0
O241 O 0.39637 0.91341 0.16938 0.0
O242 O 0.42499 0.86757 0.23202 0.0
O243 O 0.37932 0.83337 0.49851 0.0
O244 O 0.34936 0.8448 0.39592 0.0
O245 O 0.4343 0.83696 0.27743 0.0
O246 O 0.44665 0.80208 0.37383 0.0
C247 C 0.44873 0.80696 0.30652 0.0
O248 O 0.39435 0.93673 0.33833 0.0
O249 O 0.33636 0.95106 0.29959 0.0
C250 C 0.44173 0.91815 0.45295 0.0
C251 C 0.3679 0.96156 0.32608 0.0
Zn252 Zn 0.16857 0.34374 0.60751 0.0
Zn253 Zn 0.10319 0.29678 0.3791 0.0
Zn254 Zn 0.13461 0.31405 0.48727 0.0
C255 C 0.05902 0.27303 0.49795 0.0
C256 C 0.10299 0.37471 0.37864 0.0
O257 O 0.19741 0.31185 0.48373 0.0
O258 O 0.19719 0.3692 0.52664 0.0
C259 C 0.14942 0.26529 0.61946 0.0
O260 O 0.09186 0.27407 0.52895 0.0
O261 O 0.05601 0.28391 0.43345 0.0
O262 O 0.10317 0.34801 0.33306 0.0
O263 O 0.10953 0.36721 0.44544 0.0
O264 O 0.17634 0.28789 0.63543 0.0
O265 O 0.1247 0.27433 0.57106 0.0
O266 O 0.10185 0.3649 0.51811 0.0
O267 O 0.11708 0.36247 0.63308 0.0
C268 C 0.09305 0.37073 0.58479 0.0
O269 O 0.17892 0.29416 0.41121 0.0
O270 O 0.14141 0.25781 0.34597 0.0
C271 C 0.21629 0.34113 0.50349 0.0
C272 C 0.17475 0.26849 0.36255 0.0
Zn273 Zn 0.85436 0.90169 0.30742 0.0
Zn274 Zn 0.92474 0.83499 0.12472 0.0
Zn275 Zn 0.89962 0.87263 0.22541 0.0
C276 C 0.9482 0.79755 0.25273 0.0
C277 C 0.84449 0.84111 0.11065 0.0
O278 O 0.90996 0.93242 0.23748 0.0
O279 O 0.84839 0.94631 0.23894 0.0
C280 C 0.92255 0.88305 0.38263 0.0
O281 O 0.92709 0.8238 0.28159 0.0
O282 O 0.95341 0.79707 0.18534 0.0
O283 O 0.87235 0.82192 0.08552 0.0
O284 O 0.84944 0.86337 0.16401 0.0
O285 O 0.89795 0.90974 0.38139 0.0
O286 O 0.92142 0.85714 0.3333 0.0
O287 O 0.88693 0.83217 0.30942 0.0
O288 O 0.82621 0.85044 0.31191 0.0
C289 C 0.85162 0.82537 0.32551 0.0
O290 O 0.93811 0.91338 0.17948 0.0
O291 O 0.95111 0.88039 0.08141 0.0
C292 C 0.88295 0.95742 0.23698 0.0
C293 C 0.95334 0.91109 0.11678 0.0
Zn294 Zn 0.29569 0.62168 0.07556 0.0
Zn295 Zn 0.37242 0.69485 0.88067 0.0
Zn296 Zn 0.33371 0.6619 0.98625 0.0
C297 C 0.4029 0.71418 1.02075 0.0
C298 C 0.3791 0.61609 0.86057 0.0
O299 O 0.27081 0.66456 0.97355 0.0
O300 O 0.25763 0.60528 1.00175 0.0
C301 C 0.31138 0.69406 0.13369 0.0
O302 O 0.37207 0.6994 0.04615 0.0
O303 O 0.40932 0.71433 0.95369 0.0
O304 O 0.38553 0.64659 0.8267 0.0
O305 O 0.36333 0.61693 0.92362 0.0
O306 O 0.28495 0.66959 0.13329 0.0
O307 O 0.33877 0.69239 0.08703 0.0
O308 O 0.36432 0.60787 0.99616 0.0
O309 O 0.34189 0.59219 0.10265 0.0
C310 C 0.36846 0.59031 0.05643 0.0
O311 O 0.29215 0.68622 0.91169 0.0
O312 O 0.32722 0.72509 0.84553 0.0
C313 C 0.24642 0.63736 0.9789 0.0
C314 C 0.29479 0.71182 0.86255 0.0
Zn315 Zn 0.60323 0.05046 0.79014 0.0
Zn316 Zn 0.53834 0.11976 0.60923 0.0
Zn317 Zn 0.55856 0.08088 0.71314 0.0
C318 C 0.51905 0.1615 0.73703 0.0
C319 C 0.61835 0.10508 0.5991 0.0
O320 O 0.54525 0.02124 0.72503 0.0
O321 O 0.60652 0.00652 0.71925 0.0
C322 C 0.53762 0.07144 0.87141 0.0
O323 O 0.5348 0.13247 0.76823 0.0
O324 O 0.51641 0.16236 0.66915 0.0
O325 O 0.5924 0.12476 0.56899 0.0
O326 O 0.61059 0.08556 0.65507 0.0
O327 O 0.56081 0.04359 0.86729 0.0
O328 O 0.5387 0.09746 0.82218 0.0
O329 O 0.574 0.12085 0.79643 0.0
O330 O 0.63394 0.10018 0.79686 0.0
C331 C 0.6096 0.12613 0.81184 0.0
O332 O 0.51657 0.04349 0.66746 0.0
O333 O 0.50445 0.07816 0.57117 0.0
C334 C 0.57182 -0.00419 0.72032 0.0
C335 C 0.49965 0.04783 0.60686 0.0
C336 C 0.45828 0.26842 0.06187 0.0
C337 C 0.45126 0.23096 1.04022 0.0
H338 H 0.49998 0.3071 0.1021 0.0
C339 C 0.48246 0.20779 1.0196 0.0
H340 H 0.43471 0.28682 0.07839 0.0
C341 C 0.51994 0.21853 1.03658 0.0
C342 C 0.52638 0.25382 0.06929 0.0
H343 H 0.47755 0.17918 1.00089 0.0
H344 H 0.54294 0.19778 1.03137 0.0
C345 C 0.49567 0.27971 0.07677 0.0
C346 C 0.51629 0.73063 0.25945 0.0
C347 C 0.49112 0.69978 0.26615 0.0
H348 H 0.52202 0.79127 0.2654 0.0
C349 C 0.45167 0.70624 0.25886 0.0
H350 H 0.54676 0.72613 0.26564 0.0
C351 C 0.43751 0.74361 0.25687 0.0
C352 C 0.46255 0.77454 0.26381 0.0
H353 H 0.43167 0.68297 0.26472 0.0
H354 H 0.40693 0.74818 0.26105 0.0
C355 C 0.50212 0.76796 0.25915 0.0
C356 C 0.9793 0.75101 0.53355 0.0
C357 C 0.01255 0.72963 0.54852 0.0
H358 H 0.91817 0.75401 0.5454 0.0
C359 C 0.00949 0.69071 0.56263 0.0
H360 H 0.98127 0.78116 0.5229 0.0
C361 C 0.97352 0.67513 0.57508 0.0
C362 C 0.94037 0.69799 0.57124 0.0
H363 H 0.03479 0.67392 0.57557 0.0
H364 H 0.97203 0.64655 0.5965 0.0
C365 C 0.94316 0.73549 0.54648 0.0
C366 C 0.02117 0.25629 0.78038 0.0
C367 C 0.98186 0.26486 0.78465 0.0
H368 H 0.0638 0.21233 0.78786 0.0
C369 C 0.95531 0.23551 0.77424 0.0
H370 H 0.04214 0.27847 0.78864 0.0
C371 C 0.96761 0.19751 0.77642 0.0
C372 C 0.00662 0.1889 0.78584 0.0
H373 H 0.92479 0.2415 0.77764 0.0
H374 H 0.94633 0.17529 0.7809 0.0
C375 C 0.03355 0.21829 0.78014 0.0
C376 C 0.50341 0.70627 0.0702 0.0
C377 C 0.513 0.74491 0.06748 0.0
H378 H 0.45803 0.66587 0.06331 0.0
C379 C 0.48394 0.77225 0.07828 0.0
H380 H 0.52523 0.6846 0.0613 0.0
C381 C 0.4453 0.76171 0.07633 0.0
C382 C 0.43567 0.72342 0.0668 0.0
H383 H 0.49091 0.8021 0.07688 0.0
H384 H 0.42346 0.78376 0.0725 0.0
C385 C 0.46482 0.69559 0.07128 0.0
C386 C 0.53111 0.2649 0.7686 0.0
C387 C 0.49351 0.27552 0.78702 0.0
H388 H 0.56883 0.21899 0.73966 0.0
C389 C 0.46786 0.24717 0.81002 0.0
H390 H 0.55115 0.28609 0.74938 0.0
C391 C 0.47768 0.20849 0.80303 0.0
C392 C 0.51359 0.19806 0.77468 0.0
H393 H 0.43849 0.2547 0.82339 0.0
H394 H 0.4559 0.18715 0.81202 0.0
C395 C 0.54104 0.22643 0.76231 0.0
C396 C -0.01489 0.21017 0.58237 0.0
C397 C 0.95222 0.22702 0.55211 0.0
H398 H 0.04634 0.21206 0.58971 0.0
C399 C 0.95408 0.26428 0.52624 0.0
H400 H -0.01605 0.18163 0.60399 0.0
C401 C -0.0104 0.28114 0.51634 0.0
C402 C 0.02349 0.26159 0.5349 0.0
H403 H 0.92903 0.27775 0.50258 0.0
H404 H -0.00926 0.30742 0.48598 0.0
C405 C 0.0209 0.22753 0.57389 0.0
C406 C 0.94419 0.69477 0.28977 0.0
C407 C 0.98344 0.6868 0.29616 0.0
H408 H 0.90213 0.738 0.27024 0.0
C409 C 0.00861 0.7165 0.3134 0.0
H410 H 0.92444 0.67236 0.27541 0.0
C411 C -0.00416 0.75439 0.31023 0.0
C412 C 0.95768 0.76245 0.29178 0.0
H413 H 0.03917 0.71093 0.31749 0.0
H414 H 0.01665 0.77709 0.31312 0.0
C415 C 0.93146 0.73246 0.28663 0.0
C416 C 0.17389 0.08521 1.04131 0.0
C417 C 0.15354 0.11898 1.02777 0.0
H418 H 0.22654 0.05994 0.07548 0.0
C419 C 0.1693 0.15398 0.04838 0.0
H420 H 0.16183 0.05783 1.02746 0.0
C421 C 0.20684 0.15535 0.07502 0.0
C422 C 0.22847 0.12159 0.08263 0.0
H423 H 0.15374 0.18035 1.03902 0.0
H424 H 0.21986 0.18286 0.08374 0.0
C425 C 0.21073 0.08646 0.06962 0.0
C426 C 0.60483 0.40831 0.337 0.0
C427 C 0.59528 0.39687 0.26667 0.0
H428 H 0.6095 0.45534 0.41073 0.0
C429 C 0.57735 0.42304 0.2206 0.0
H430 H 0.61872 0.3886 0.37363 0.0
C431 C 0.57041 0.46027 0.24314 0.0
C432 C 0.58231 0.47241 0.31135 0.0
H433 H 0.56962 0.41517 0.16644 0.0
H434 H 0.55832 0.48044 0.2051 0.0
C435 C 0.59911 0.44617 0.35872 0.0
C436 C 0.30309 0.84694 0.563 0.0
C437 C 0.31195 0.82749 0.49878 0.0
H438 H 0.25841 0.86438 0.6364 0.0
C439 C 0.28401 0.80502 0.46608 0.0
H440 H 0.32431 0.8647 0.58867 0.0
C441 C 0.24709 0.80354 0.49518 0.0
C442 C 0.23736 0.82548 0.55587 0.0
H443 H 0.2903 0.78981 0.41669 0.0
H444 H 0.22529 0.78772 0.46677 0.0
C445 C 0.26568 0.8466 0.5906 0.0
C446 C 0.85744 0.50733 0.70466 0.0
C447 C 0.87243 0.53801 0.74349 0.0
H448 H 0.84825 0.44729 0.70103 0.0
C449 C 0.89272 0.53065 0.80734 0.0
H450 H 0.84155 0.51217 0.65547 0.0
C451 C 0.89708 0.4935 0.8329 0.0
C452 C 0.88076 0.46288 0.79586 0.0
H453 H 0.90493 0.55372 0.83819 0.0
H454 H 0.91266 0.48892 0.88237 0.0
C455 C 0.86127 0.47014 0.73096 0.0
C456 C 0.75452 0.87644 1.02142 0.0
C457 C 0.73613 0.8423 1.00275 0.0
H458 H 0.80238 0.90244 0.07314 0.0
C459 C 0.75522 0.80748 1.0156 0.0
H460 H 0.7408 0.90381 1.01228 0.0
C461 C 0.79112 0.80693 0.04921 0.0
C462 C 0.80767 0.84103 0.07266 0.0
H463 H 0.74163 0.78065 1.00337 0.0
H464 H 0.80507 0.77984 0.0599 0.0
C465 C 0.78954 0.87575 0.05718 0.0
C466 C 0.35063 0.55916 0.80604 0.0
C467 C 0.3837 0.57938 0.82363 0.0
H468 H 0.32737 0.50651 0.77015 0.0
C469 C 0.41995 0.56349 0.80828 0.0
H470 H 0.32243 0.57127 0.8164 0.0
C471 C 0.42289 0.52608 0.78175 0.0
C472 C 0.38955 0.50468 0.76983 0.0
H473 H 0.44578 0.57898 0.82108 0.0
H474 H 0.45099 0.5129 0.77665 0.0
C475 C 0.35352 0.52237 0.77862 0.0
C476 C 0.67371 0.13802 0.54079 0.0
C477 C 0.65759 0.1048 0.56975 0.0
H478 H 0.72524 0.16562 0.50655 0.0
C479 C 0.67991 0.07153 0.5739 0.0
H480 H 0.6569 0.16404 0.53716 0.0
C481 C 0.71836 0.07194 0.55318 0.0
C482 C 0.73557 0.10592 0.52988 0.0
H483 H 0.66789 0.04543 0.59501 0.0
H484 H 0.73525 0.04614 0.55987 0.0
C485 C 0.71264 0.13875 0.52202 0.0
C486 C 0.07749 0.42036 0.28741 0.0
C487 C 0.09528 0.41394 0.35416 0.0
H488 H 0.05901 0.46126 0.20952 0.0
C489 C 0.10735 0.44518 0.39491 0.0
H490 H 0.06758 0.39678 0.25503 0.0
C491 C 0.10302 0.48211 0.36805 0.0
C492 C 0.08592 0.48853 0.30058 0.0
H493 H 0.12127 0.44104 0.44638 0.0
H494 H 0.11372 0.50543 0.39985 0.0
C495 C 0.07261 0.4573 0.26117 0.0
C496 C 0.67306 0.60886 0.46383 0.0
C497 C 0.64496 0.63397 0.49025 0.0
H498 H 0.72737 0.58253 0.47994 0.0
C499 C 0.65214 0.65443 0.5539 0.0
H500 H 0.66825 0.59231 0.41552 0.0
C501 C 0.6869 0.64938 0.59078 0.0
C502 C 0.71414 0.62271 0.56598 0.0
H503 H 0.63074 0.67388 0.57554 0.0
H504 H 0.69203 0.66562 0.63918 0.0
C505 C 0.70685 0.60286 0.50168 0.0
C506 C 0.06325 0.93074 0.86151 0.0
C507 C 0.0817 0.96137 0.82835 0.0
H508 H 0.04669 0.87226 0.85214 0.0
C509 C 0.0956 0.95743 0.75769 0.0
H510 H 0.05275 0.93315 0.91622 0.0
C511 C 0.09136 0.92339 0.72045 0.0
C512 C 0.07413 0.89213 0.75399 0.0
H513 H 0.11037 -0.01939 0.73136 0.0
H514 H 0.10336 0.92106 0.66672 0.0
C515 C 0.05975 0.89613 0.8247 0.0
C516 C 0.79719 0.32928 0.14275 0.0
C517 C 0.76893 0.3048 0.11649 0.0
H518 H 0.855 0.34888 0.13159 0.0
C519 C 0.77935 0.27647 0.06646 0.0
H520 H 0.78957 0.35186 0.18002 0.0
C521 C 0.81624 0.27585 1.03638 0.0
C522 C 0.84348 0.30262 0.05798 0.0
H523 H 0.75779 0.25783 1.04425 0.0
H524 H 0.82269 0.25617 0.99309 0.0
C525 C 0.83447 0.32774 0.11454 0.0
C526 C 0.40544 0.00905 0.25903 0.0
C527 C 0.37869 0.00124 0.31386 0.0
H528 H 0.42721 0.0507 0.18511 0.0
C529 C 0.35703 0.03101 0.34383 0.0
H530 H 0.42191 -0.0138 0.23429 0.0
C531 C 0.36096 0.068 0.31723 0.0
C532 C 0.38536 0.07523 0.25832 0.0
H533 H 0.33579 0.02534 0.38514 0.0
H534 H 0.34277 0.09036 0.33916 0.0
C535 C 0.40827 0.04572 0.2305 0.0
C536 C 0.2863 0.32253 0.49403 0.0
C537 C 0.255 0.33605 0.53444 0.0
H538 H 0.34727 0.31356 0.49053 0.0
C539 C 0.26085 0.34695 0.60645 0.0
H540 H 0.28259 0.3137 0.4388 0.0
C541 C 0.29739 0.34641 0.63641 0.0
C542 C 0.32924 0.33535 0.59491 0.0
H543 H 0.23714 0.35689 0.63955 0.0
H544 H 0.30072 0.35642 0.69113 0.0
C545 C 0.32326 0.32247 0.52387 0.0
C546 C 0.87147 0.06257 0.26732 0.0
C547 C 0.8937 0.06745 0.32968 0.0
H548 H 0.85029 0.02322 0.18885 0.0
C549 C 0.91639 0.03718 0.35468 0.0
H550 H 0.85354 0.08554 0.24719 0.0
C551 C 0.91571 0.00209 0.31927 0.0
C552 C 0.89121 -0.00356 0.26023 0.0
H553 H 0.93379 0.04036 0.40247 0.0
H554 H 0.9322 0.97863 0.34137 0.0
C555 C 0.86966 0.0271 0.23367 0.0
C556 C 0.14057 0.62067 0.9851 0.0
C557 C 0.12997 0.64534 1.04143 0.0
H558 H 0.18686 0.59875 0.92028 0.0
C559 C 0.15614 0.6726 0.06533 0.0
H560 H 0.12084 0.59922 0.96623 0.0
C561 C 0.19335 0.67339 1.03681 0.0
C562 C 0.2052 0.64595 0.98608 0.0
H563 H 0.14841 0.69197 0.10842 0.0
H564 H 0.21388 0.69291 0.05977 0.0
C565 C 0.17817 0.6205 0.95852 0.0
C566 C 0.58453 0.92593 0.71183 0.0
C567 C 0.56411 0.95637 0.74289 0.0
H568 H 0.60236 0.8676 0.72195 0.0
C569 C 0.54283 0.9501 0.80625 0.0
H570 H 0.60156 0.93026 0.66364 0.0
C571 C 0.54469 0.91489 0.84135 0.0
C572 C 0.5666 0.88498 0.81204 0.0
H573 H 0.52735 0.97328 0.83192 0.0
H574 H 0.53012 0.91146 0.89252 0.0
C575 C 0.58511 0.89025 0.74542 0.0
C576 C 0.47034 0.1005 1.02253 0.0
C577 C 0.43913 0.07659 1.00834 0.0
H578 H 0.52599 0.11925 0.98659 0.0
C579 C 0.44393 0.04678 0.95864 0.0
H580 H 0.46742 0.12328 0.06146 0.0
C581 C 0.47754 0.04373 0.91788 0.0
C582 C 0.50651 0.07091 0.92505 0.0
H583 H 0.42028 0.02802 0.94651 0.0
H584 H 0.47949 0.02205 0.87652 0.0
C585 C 0.50354 0.09844 0.97952 0.0
C586 C 0.62498 0.7066 0.28148 0.0
C587 C 0.64107 0.67526 0.24462 0.0
H588 H 0.60942 0.76595 0.27509 0.0
C589 C 0.662 0.68169 0.18098 0.0
H590 H 0.6087 0.70253 0.33066 0.0
C591 C 0.66182 0.71758 0.14916 0.0
C592 C 0.64135 0.74757 0.1812 0.0
H593 H 0.67505 0.65816 0.15182 0.0
H594 H 0.67525 0.72121 0.09687 0.0
C595 C 0.62489 0.74272 0.24943 0.0
C596 C 0.96095 0.86196 0.48975 0.0
C597 C 0.9561 0.88588 0.42999 0.0
H598 H 5e-05 0.84118 0.5701 0.0
C599 C -0.01471 0.9113 0.41127 0.0
H600 H 0.93853 0.84237 0.50526 0.0
C601 C 0.02034 0.91034 0.44734 0.0
C602 C 0.02666 0.88419 0.50338 0.0
H603 H 0.98203 0.93001 0.36529 0.0
H604 H 0.04358 0.92781 0.42745 0.0
C605 C -0.00412 0.86167 0.5272 0.0
C606 C 0.83353 0.22243 0.76937 0.0
C607 C 0.84474 0.22228 0.69667 0.0
H608 H 0.82446 0.25585 0.86446 0.0
C609 C 0.85288 0.25703 0.66266 0.0
H610 H 0.82679 0.19611 0.79689 0.0
C611 C 0.85066 0.29114 0.70086 0.0
C612 C 0.84087 0.29127 0.77421 0.0
H613 H 0.86104 0.258 0.60637 0.0
H614 H 0.85814 0.31705 0.67324 0.0
C615 C 0.83193 0.25661 0.80791 0.0
C616 C 0.524 0.91563 0.12677 0.0
C617 C 0.53022 0.89332 0.0649 0.0
H618 H 0.48505 0.93087 0.21155 0.0
C619 C 0.49864 0.87574 1.03209 0.0
H620 H 0.54761 0.93 0.15273 0.0
C621 C 0.46267 0.87621 0.06633 0.0
C622 C 0.45827 0.89443 0.13299 0.0
H623 H 0.50253 0.85833 0.98443 0.0
H624 H 0.43928 0.86012 1.04358 0.0
C625 C 0.4884 0.91583 0.16092 0.0
C626 C 0.3544 0.26747 0.79957 0.0
C627 C 0.33687 0.29912 0.83302 0.0
H628 H 0.36903 0.20808 0.80951 0.0
C629 C 0.31325 0.29338 0.89344 0.0
H630 H 0.37304 0.27117 0.75331 0.0
C631 C 0.3116 0.2577 0.92585 0.0
C632 C 0.33291 0.22725 0.89746 0.0
H633 H 0.29939 0.31728 0.92009 0.0
H634 H 0.29583 0.25452 0.9759 0.0
C635 C 0.35263 0.23157 0.83214 0.0
C636 C 0.01304 0.09931 0.6084 0.0
C637 C 0.02079 0.06864 0.65455 0.0
H638 H 0.97227 0.12536 0.53715 0.0
C639 C -0.00437 0.03763 0.65621 0.0
H640 H 0.03212 0.12347 0.60633 0.0
C641 C 0.96081 0.03944 0.61918 0.0
C642 C 0.95146 0.07162 0.57781 0.0
H643 H 0.00108 0.01374 0.69178 0.0
H644 H 0.93977 0.01738 0.62818 0.0
C645 C 0.97904 0.10019 0.56847 0.0
C646 C 0.13707 0.72751 0.33215 0.0
C647 C 0.12297 0.72832 0.40312 0.0
H648 H 0.14776 0.69365 0.2381 0.0
C649 C 0.11086 0.69426 0.43522 0.0
H650 H 0.14687 0.75331 0.3062 0.0
C651 C 0.11234 0.66018 0.39693 0.0
C652 C 0.12532 0.65943 0.32532 0.0
H653 H 0.10038 0.6938 0.49017 0.0
H654 H 0.10192 0.63484 0.42294 0.0
C655 C 0.13785 0.6934 0.29337 0.0
C656 C 0.91657 0.5805 0.41185 0.0
C657 C 0.90992 0.57939 0.48678 0.0
H658 H 0.95693 0.58579 0.32601 0.0
C659 C 0.94166 0.58042 0.53297 0.0
H660 H 0.893 0.57952 0.37409 0.0
C661 C 0.97891 0.58412 0.5047 0.0
C662 C -0.01489 0.58749 0.42983 0.0
H663 H 0.93766 0.57986 0.59081 0.0
H664 H 0.0028 0.58511 0.54173 0.0
C665 C 0.95344 0.58483 0.38391 0.0
C666 C 0.15352 0.1907 0.76598 0.0
C667 C 0.1289 0.16332 0.73732 0.0
H668 H 0.17908 0.24548 0.75091 0.0
C669 C 0.11397 0.16798 0.66815 0.0
H670 H 0.16541 0.18716 0.81938 0.0
C671 C 0.12265 0.20031 0.62843 0.0
C672 C 0.14507 0.22918 0.65845 0.0
H673 H 0.09564 0.14655 0.64482 0.0
H674 H 0.1114 0.2029 0.57444 0.0
C675 C 0.16136 0.22377 0.72686 0.0
C676 C 0.50308 0.37954 1.00719 0.0
C677 C 0.50216 0.38659 0.93284 0.0
H678 H 0.53843 0.3679 0.09877 0.0
C679 C 0.53631 0.39433 0.8961 0.0
H680 H 0.47679 0.37395 1.03656 0.0
C681 C 0.57121 0.39323 0.9323 0.0
C682 C 0.57287 0.3828 1.00547 0.0
H683 H 0.53605 0.4008 0.83905 0.0
H684 H 0.5972 0.39797 0.90147 0.0
C685 C 0.53828 0.37697 1.0431 0.0
C686 C 0.28266 0.75746 0.15627 0.0
C687 C 0.30694 0.72789 0.17903 0.0
H688 H 0.26623 0.81585 0.1696 0.0
C689 C 0.32819 0.73205 0.24221 0.0
H690 H 0.26553 0.75433 0.10809 0.0
C691 C 0.32794 0.76695 0.27862 0.0
C692 C 0.30708 0.79819 0.25105 0.0
H693 H 0.34648 0.70907 0.2611 0.0
H694 H 0.34699 0.77042 0.32402 0.0
C695 C 0.28273 0.79242 0.19196 0.0
C696 C 0.04506 0.37786 0.68323 0.0
C697 C 0.05274 0.37627 0.60877 0.0
H698 H 0.00383 0.37361 0.76761 0.0
C699 C 0.02178 0.3724 0.56125 0.0
H700 H 0.06802 0.38126 0.72179 0.0
C701 C -0.01568 0.36805 0.58816 0.0
C702 C 0.97735 0.36669 0.66292 0.0
H703 H 0.02665 0.37096 0.50369 0.0
H704 H 0.96099 0.36471 0.55045 0.0
C705 C 0.00811 0.37272 0.70986 0.0
C706 C 0.87109 0.76949 0.39831 0.0
C707 C 0.8418 0.79027 0.36457 0.0
H708 H 0.88672 0.71883 0.45387 0.0
C709 C 0.80387 0.77702 0.36868 0.0
H710 H 0.90042 0.77937 0.39788 0.0
C711 C 0.79568 0.74329 0.40594 0.0
C712 C 0.82542 0.72248 0.43887 0.0
H713 H 0.78067 0.79263 0.34324 0.0
H714 H 0.76625 0.73376 0.40961 0.0
C715 C 0.86315 0.7354 0.43266 0.0
C716 C 0.44013 0.58489 1.03945 0.0
C717 C 0.40708 0.5786 0.08162 0.0
H718 H 0.50162 0.59091 1.03897 0.0
C719 C 0.41161 0.56909 0.15476 0.0
H720 H 0.43771 0.59237 0.98309 0.0
C721 C 0.44757 0.57004 0.18673 0.0
C722 C 0.48006 0.57895 0.14593 0.0
H723 H 0.38702 0.56368 0.18901 0.0
H724 H 0.44989 0.5646 0.24401 0.0
C725 C 0.47658 0.58456 0.07142 0.0
C726 C 0.60181 0.21496 0.92401 0.0
C727 C 0.64024 0.22451 0.93442 0.0
H728 H 0.56226 0.17499 0.88249 0.0
C729 C 0.66916 0.20249 0.90126 0.0
H730 H 0.5791 0.23262 0.94587 0.0
C731 C 0.65945 0.17052 0.86029 0.0
C732 C 0.62078 0.16024 0.85254 0.0
H733 H 0.69913 0.20949 0.90822 0.0
H734 H 0.68211 0.15371 0.83549 0.0
C735 C 0.5922 0.18262 0.8855 0.0
C736 C 0.27192 0.26047 0.27267 0.0
C737 C 0.26985 0.22483 0.23801 0.0
H738 H 0.24353 0.30213 0.33861 0.0
C739 C 0.23614 0.20355 0.24505 0.0
H740 H 0.2974 0.27779 0.26827 0.0
C741 C 0.20533 0.2176 0.28617 0.0
C742 C 0.20786 0.25294 0.32173 0.0
H743 H 0.23388 0.17577 0.22031 0.0
H744 H 0.17965 0.20058 0.29079 0.0
C745 C 0.24133 0.27431 0.31401 0.0
C746 C 0.51558 0.48689 0.48791 0.0
C747 C 0.49699 0.52214 0.49632 0.0
H748 H 0.52026 0.42915 0.52224 0.0
C749 C 0.46779 0.52571 0.54879 0.0
H750 H 0.53843 0.48321 0.44893 0.0
C751 C 0.45735 0.49462 0.59153 0.0
C752 C 0.47595 0.45935 0.58285 0.0
H753 H 0.45294 0.55259 0.557 0.0
H754 H 0.43434 0.49807 0.63033 0.0
C755 C 0.50525 0.45593 0.53063 0.0
C756 C 0.22905 0.76884 0.73999 0.0
C757 C 0.19557 0.74691 0.74193 0.0
H758 H 0.28663 0.77527 0.77782 0.0
C759 C 0.19523 0.71329 0.78305 0.0
H760 H 0.23007 0.79504 0.70938 0.0
C761 C 0.22734 0.70211 0.8223 0.0
C762 C 0.26052 0.72439 0.82209 0.0
H763 H 0.16999 0.6955 0.7852 0.0
H764 H 0.22627 0.67563 0.85169 0.0
C765 C 0.26127 0.75766 0.77974 0.0
C766 C 0.02245 0.47854 0.07058 0.0
C767 C -0.00374 0.50854 0.08089 0.0
H768 H 0.03176 0.42245 1.02918 0.0
C769 C 0.95837 0.50471 0.05623 0.0
H770 H 0.05204 0.48118 0.08723 0.0
C771 C 0.94682 0.47135 1.02223 0.0
C772 C 0.97303 0.44137 1.01176 0.0
H773 H 0.93754 0.52747 0.06351 0.0
H774 H 0.91723 0.46876 1.0055 0.0
C775 C 0.0109 0.44518 1.03653 0.0
C776 C 0.69112 0.70074 0.81631 0.0
C777 C 0.69376 0.73661 0.85002 0.0
H778 H 0.71996 0.65653 0.75721 0.0
C779 C 0.72907 0.75552 0.84859 0.0
H780 H 0.6644 0.68522 0.81634 0.0
C781 C 0.76101 0.73882 0.81461 0.0
C782 C 0.75805 0.70323 0.78019 0.0
H783 H 0.73186 0.78349 0.87227 0.0
H784 H 0.78788 0.75411 0.81415 0.0
C785 C 0.72284 0.68433 0.78174 0.0
C786 C 0.74241 0.25776 0.29307 0.0
C787 C 0.70964 0.23535 0.28527 0.0
H788 H 0.79821 0.26281 0.33807 0.0
C789 C 0.70862 0.19921 0.31801 0.0
H790 H 0.74376 0.28597 0.26969 0.0
C791 C 0.74022 0.18555 0.35693 0.0
C792 C 0.77284 0.20827 0.36546 0.0
H793 H 0.68362 0.18133 0.31268 0.0
H794 H 0.73937 0.15705 0.379 0.0
C795 C 0.77348 0.24452 0.33303 0.0
C796 C -0.01597 0.01261 0.08239 0.0
C797 C -0.00714 0.01159 1.00835 0.0
H798 H 0.96567 -0.01848 0.17526 0.0
C799 C -0.01108 0.97727 0.97079 0.0
H800 H -0.01299 0.03861 0.11316 0.0
C801 C 0.97727 0.94441 1.00672 0.0
C802 C 0.96883 0.94528 0.08093 0.0
H803 H -0.00492 0.97571 0.91368 0.0
H804 H 0.97439 0.91842 0.97589 0.0
C805 C 0.97217 0.97979 0.1183 0.0
C806 C 0.48095 0.97921 0.60269 0.0
C807 C 0.47941 0.01576 0.57236 0.0
H808 H 0.47061 0.91988 0.58826 0.0
C809 C 0.46263 0.02043 0.50392 0.0
H810 H 0.49338 0.97451 0.65526 0.0
C811 C 0.44951 -0.01104 0.46528 0.0
C812 C 0.45305 0.95225 0.49413 0.0
H813 H 0.46095 0.04824 0.47885 0.0
H814 H 0.43817 -0.00676 0.41184 0.0
C815 C 0.46815 0.94782 0.56385 0.0
loop_
_geom_bond_atom_site_label_1
_geom_bond_atom_site_label_2
_geom_bond_distance
_geom_bond_site_symmetry_2
_ccdc_geom_bond_type
Zn0 O6 1.920 . S
Zn0 O12 1.898 . S
Zn0 O15 1.905 . S
Zn1 O9 1.905 . S
Zn1 O10 1.898 . S
Zn1 O18 1.920 . S
Zn2 O5 2.080 . S
Zn2 O8 2.114 1_554 S
Zn2 O11 2.120 1_554 S
Zn2 O13 2.120 . S
Zn2 O14 2.114 . S
Zn2 O17 2.080 . S
C3 O8 1.166 . S
C3 O9 1.182 . S
C4 O10 1.167 . S
C4 O11 1.299 . S
O5 Zn2 2.080 . S
O5 C19 1.305 . S
O6 Zn0 1.920 . S
O6 C19 1.234 . S
C7 O12 1.167 . S
C7 O13 1.299 . S
O8 Zn2 2.114 1_556 S
O8 C3 1.166 . S
O9 Zn1 1.905 . S
O9 C3 1.182 . S
O10 Zn1 1.898 . S
O10 C4 1.167 . S
O11 Zn2 2.120 1_556 S
O11 C4 1.299 . S
O12 Zn0 1.898 . S
O12 C7 1.167 . S
O13 Zn2 2.120 . S
O13 C7 1.299 . S
O14 Zn2 2.114 . S
O14 C16 1.166 . S
O15 Zn0 1.905 . S
O15 C16 1.182 . S
C16 O14 1.166 . S
C16 O15 1.182 . S
O17 Zn2 2.080 . S
O17 C20 1.305 1_554 S
O18 Zn1 1.920 . S
O18 C20 1.234 . S
C19 O5 1.305 . S
C19 O6 1.234 . S
C20 O17 1.305 1_556 S
C20 O18 1.234 . S
Zn21 O27 1.920 . S
Zn21 O33 1.898 . S
Zn21 O36 1.905 . S
Zn22 O30 1.905 . S
Zn22 O31 1.898 . S
Zn22 O39 1.920 . S
Zn23 O26 2.080 . S
Zn23 O29 2.114 . S
Zn23 O32 2.120 . S
Zn23 O34 2.120 . S
Zn23 O35 2.114 . S
Zn23 O38 2.080 . S
C24 O29 1.166 . S
C24 O30 1.182 . S
C25 O31 1.167 . S
C25 O32 1.299 . S
O26 Zn23 2.080 . S
O26 C40 1.305 . S
O27 Zn21 1.920 . S
O27 C40 1.234 . S
C28 O33 1.167 . S
C28 O34 1.299 . S
O29 Zn23 2.114 . S
O29 C24 1.166 . S
O30 Zn22 1.905 . S
O30 C24 1.182 . S
O31 Zn22 1.898 . S
O31 C25 1.167 . S
O32 Zn23 2.120 . S
O32 C25 1.299 . S
O33 Zn21 1.898 . S
O33 C28 1.167 . S
O34 Zn23 2.120 . S
O34 C28 1.299 . S
O35 Zn23 2.114 . S
O35 C37 1.166 . S
O36 Zn21 1.905 . S
O36 C37 1.182 . S
C37 O35 1.166 . S
C37 O36 1.182 . S
O38 Zn23 2.080 . S
O38 C41 1.305 . S
O39 Zn22 1.920 . S
O39 C41 1.234 . S
C40 O26 1.305 . S
C40 O27 1.234 . S
C41 O38 1.305 . S
C41 O39 1.234 . S
Zn42 O48 1.920 . S
Zn42 O54 1.898 . S
Zn42 O57 1.905 . S
Zn43 O51 1.905 . S
Zn43 O52 1.898 . S
Zn43 O60 1.920 . S
Zn44 O47 2.080 . S
Zn44 O50 2.114 . S
Zn44 O53 2.120 . S
Zn44 O55 2.120 . S
Zn44 O56 2.114 . S
Zn44 O59 2.080 . S
C45 O50 1.166 . S
C45 O51 1.182 . S
C46 O52 1.167 . S
C46 O53 1.299 . S
O47 Zn44 2.080 . S
O47 C61 1.305 . S
O48 Zn42 1.920 . S
O48 C61 1.234 . S
C49 O54 1.167 . S
C49 O55 1.299 . S
O50 Zn44 2.114 . S
O50 C45 1.166 . S
O51 Zn43 1.905 . S
O51 C45 1.182 . S
O52 Zn43 1.898 . S
O52 C46 1.167 . S
O53 Zn44 2.120 . S
O53 C46 1.299 . S
O54 Zn42 1.898 . S
O54 C49 1.167 . S
O55 Zn44 2.120 . S
O55 C49 1.299 . S
O56 Zn44 2.114 . S
O56 C58 1.166 . S
O57 Zn42 1.905 . S
O57 C58 1.182 . S
C58 O56 1.166 . S
C58 O57 1.182 . S
O59 Zn44 2.080 . S
O59 C62 1.305 . S
O60 Zn43 1.920 . S
O60 C62 1.234 . S
C61 O47 1.305 . S
C61 O48 1.234 . S
C62 O59 1.305 . S
C62 O60 1.234 . S
Zn63 O69 1.920 . S
Zn63 O75 1.898 . S
Zn63 O78 1.905 . S
Zn64 O72 1.905 . S
Zn64 O73 1.898 . S
Zn64 O81 1.920 . S
Zn65 O68 2.080 . S
Zn65 O71 2.114 . S
Zn65 O74 2.120 . S
Zn65 O76 2.120 . S
Zn65 O77 2.114 . S
Zn65 O80 2.080 . S
C66 O71 1.166 . S
C66 O72 1.182 . S
C67 O73 1.167 1_455 S
C67 O74 1.299 1_455 S
O68 Zn65 2.080 . S
O68 C82 1.305 . S
O69 Zn63 1.920 . S
O69 C82 1.234 . S
C70 O75 1.167 . S
C70 O76 1.299 . S
O71 Zn65 2.114 . S
O71 C66 1.166 . S
O72 Zn64 1.905 . S
O72 C66 1.182 . S
O73 Zn64 1.898 . S
O73 C67 1.167 1_655 S
O74 Zn65 2.120 . S
O74 C67 1.299 1_655 S
O75 Zn63 1.898 . S
O75 C70 1.167 . S
O76 Zn65 2.120 . S
O76 C70 1.299 . S
O77 Zn65 2.114 . S
O77 C79 1.166 . S
O78 Zn63 1.905 . S
O78 C79 1.182 . S
C79 O77 1.166 . S
C79 O78 1.182 . S
O80 Zn65 2.080 . S
O80 C83 1.305 . S
O81 Zn64 1.920 . S
O81 C83 1.234 . S
C82 O68 1.305 . S
C82 O69 1.234 . S
C83 O80 1.305 . S
C83 O81 1.234 . S
Zn84 O90 1.920 . S
Zn84 O96 1.898 . S
Zn84 O99 1.905 . S
Zn85 O93 1.905 . S
Zn85 O94 1.898 . S
Zn85 O102 1.920 . S
Zn86 O89 2.080 . S
Zn86 O92 2.114 . S
Zn86 O95 2.120 . S
Zn86 O97 2.120 1_556 S
Zn86 O98 2.114 1_556 S
Zn86 O101 2.080 . S
C87 O92 1.166 . S
C87 O93 1.182 . S
C88 O94 1.167 . S
C88 O95 1.299 . S
O89 Zn86 2.080 . S
O89 C103 1.305 1_556 S
O90 Zn84 1.920 . S
O90 C103 1.234 . S
C91 O96 1.167 . S
C91 O97 1.299 . S
O92 Zn86 2.114 . S
O92 C87 1.166 . S
O93 Zn85 1.905 . S
O93 C87 1.182 . S
O94 Zn85 1.898 . S
O94 C88 1.167 . S
O95 Zn86 2.120 . S
O95 C88 1.299 . S
O96 Zn84 1.898 . S
O96 C91 1.167 . S
O97 Zn86 2.120 1_554 S
O97 C91 1.299 . S
O98 Zn86 2.114 1_554 S
O98 C100 1.166 . S
O99 Zn84 1.905 . S
O99 C100 1.182 . S
C100 O98 1.166 . S
C100 O99 1.182 . S
O101 Zn86 2.080 . S
O101 C104 1.305 . S
O102 Zn85 1.920 . S
O102 C104 1.234 . S
C103 O89 1.305 1_554 S
C103 O90 1.234 . S
C104 O101 1.305 . S
C104 O102 1.234 . S
Zn105 O111 1.920 . S
Zn105 O117 1.898 . S
Zn105 O120 1.905 . S
Zn106 O114 1.905 . S
Zn106 O115 1.898 . S
Zn106 O123 1.920 . S
Zn107 O110 2.080 . S
Zn107 O113 2.114 . S
Zn107 O116 2.120 . S
Zn107 O118 2.120 . S
Zn107 O119 2.114 . S
Zn107 O122 2.080 . S
C108 O113 1.166 . S
C108 O114 1.182 . S
C109 O115 1.167 . S
C109 O116 1.299 . S
O110 Zn107 2.080 . S
O110 C124 1.305 . S
O111 Zn105 1.920 . S
O111 C124 1.234 . S
C112 O117 1.167 . S
C112 O118 1.299 . S
O113 Zn107 2.114 . S
O113 C108 1.166 . S
O114 Zn106 1.905 . S
O114 C108 1.182 . S
O115 Zn106 1.898 . S
O115 C109 1.167 . S
O116 Zn107 2.120 . S
O116 C109 1.299 . S
O117 Zn105 1.898 . S
O117 C112 1.167 . S
O118 Zn107 2.120 . S
O118 C112 1.299 . S
O119 Zn107 2.114 . S
O119 C121 1.166 . S
O120 Zn105 1.905 . S
O120 C121 1.182 . S
C121 O119 1.166 . S
C121 O120 1.182 . S
O122 Zn107 2.080 . S
O122 C125 1.305 . S
O123 Zn106 1.920 . S
O123 C125 1.234 . S
C124 O110 1.305 . S
C124 O111 1.234 . S
C125 O122 1.305 . S
C125 O123 1.234 . S
Zn126 O132 1.920 . S
Zn126 O138 1.898 . S
Zn126 O141 1.905 . S
Zn127 O135 1.905 . S
Zn127 O136 1.898 . S
Zn127 O144 1.920 . S
Zn128 O131 2.080 . S
Zn128 O134 2.114 . S
Zn128 O137 2.120 . S
Zn128 O139 2.120 . S
Zn128 O140 2.114 . S
Zn128 O143 2.080 . S
C129 O134 1.166 . S
C129 O135 1.182 . S
C130 O136 1.167 . S
C130 O137 1.299 . S
O131 Zn128 2.080 . S
O131 C145 1.305 . S
O132 Zn126 1.920 . S
O132 C145 1.234 . S
C133 O138 1.167 . S
C133 O139 1.299 . S
O134 Zn128 2.114 . S
O134 C129 1.166 . S
O135 Zn127 1.905 . S
O135 C129 1.182 . S
O136 Zn127 1.898 . S
O136 C130 1.167 . S
O137 Zn128 2.120 . S
O137 C130 1.299 . S
O138 Zn126 1.898 . S
O138 C133 1.167 . S
O139 Zn128 2.120 . S
O139 C133 1.299 . S
O140 Zn128 2.114 . S
O140 C142 1.166 . S
O141 Zn126 1.905 . S
O141 C142 1.182 . S
C142 O140 1.166 . S
C142 O141 1.182 . S
O143 Zn128 2.080 . S
O143 C146 1.305 . S
O144 Zn127 1.920 . S
O144 C146 1.234 . S
C145 O131 1.305 . S
C145 O132 1.234 . S
C146 O143 1.305 . S
C146 O144 1.234 . S
Zn147 O153 1.920 . S
Zn147 O159 1.898 . S
Zn147 O162 1.905 . S
Zn148 O156 1.905 . S
Zn148 O157 1.898 . S
Zn148 O165 1.920 . S
Zn149 O152 2.080 . S
Zn149 O155 2.114 . S
Zn149 O158 2.120 . S
Zn149 O160 2.120 . S
Zn149 O161 2.114 . S
Zn149 O164 2.080 . S
C150 O155 1.166 . S
C150 O156 1.182 . S
C151 O157 1.167 1_655 S
C151 O158 1.299 1_655 S
O152 Zn149 2.080 . S
O152 C166 1.305 . S
O153 Zn147 1.920 . S
O153 C166 1.234 . S
C154 O159 1.167 . S
C154 O160 1.299 . S
O155 Zn149 2.114 . S
O155 C150 1.166 . S
O156 Zn148 1.905 . S
O156 C150 1.182 . S
O157 Zn148 1.898 . S
O157 C151 1.167 1_455 S
O158 Zn149 2.120 . S
O158 C151 1.299 1_455 S
O159 Zn147 1.898 . S
O159 C154 1.167 . S
O160 Zn149 2.120 . S
O160 C154 1.299 . S
O161 Zn149 2.114 . S
O161 C163 1.166 . S
O162 Zn147 1.905 . S
O162 C163 1.182 . S
C163 O161 1.166 . S
C163 O162 1.182 . S
O164 Zn149 2.080 . S
O164 C167 1.305 . S
O165 Zn148 1.920 . S
O165 C167 1.234 . S
C166 O152 1.305 . S
C166 O153 1.234 . S
C167 O164 1.305 . S
C167 O165 1.234 . S
Zn168 O174 1.920 . S
Zn168 O180 1.898 . S
Zn168 O183 1.905 . S
Zn169 O177 1.905 . S
Zn169 O178 1.898 . S
Zn169 O186 1.920 . S
Zn170 O173 2.080 . S
Zn170 O176 2.114 . S
Zn170 O179 2.120 . S
Zn170 O181 2.120 . S
Zn170 O182 2.114 . S
Zn170 O185 2.080 . S
C171 O176 1.166 . S
C171 O177 1.182 . S
C172 O178 1.167 . S
C172 O179 1.299 . S
O173 Zn170 2.080 . S
O173 C187 1.305 . S
O174 Zn168 1.920 . S
O174 C187 1.234 . S
C175 O180 1.167 . S
C175 O181 1.299 . S
O176 Zn170 2.114 . S
O176 C171 1.166 . S
O177 Zn169 1.905 . S
O177 C171 1.182 . S
O178 Zn169 1.898 . S
O178 C172 1.167 . S
O179 Zn170 2.120 . S
O179 C172 1.299 . S
O180 Zn168 1.898 . S
O180 C175 1.167 . S
O181 Zn170 2.120 . S
O181 C175 1.299 . S
O182 Zn170 2.114 . S
O182 C184 1.166 . S
O183 Zn168 1.905 . S
O183 C184 1.182 . S
C184 O182 1.166 . S
C184 O183 1.182 . S
O185 Zn170 2.080 . S
O185 C188 1.305 . S
O186 Zn169 1.920 . S
O186 C188 1.234 . S
C187 O173 1.305 . S
C187 O174 1.234 . S
C188 O185 1.305 . S
C188 O186 1.234 . S
Zn189 O195 1.920 . S
Zn189 O201 1.898 . S
Zn189 O204 1.905 . S
Zn190 O198 1.905 . S
Zn190 O199 1.898 . S
Zn190 O207 1.920 . S
Zn191 O194 2.080 . S
Zn191 O197 2.114 . S
Zn191 O200 2.120 . S
Zn191 O202 2.120 . S
Zn191 O203 2.114 . S
Zn191 O206 2.080 . S
C192 O197 1.166 . S
C192 O198 1.182 . S
C193 O199 1.167 . S
C193 O200 1.299 . S
O194 Zn191 2.080 . S
O194 C208 1.305 . S
O195 Zn189 1.920 . S
O195 C208 1.234 . S
C196 O201 1.167 1_655 S
C196 O202 1.299 1_655 S
O197 Zn191 2.114 . S
O197 C192 1.166 . S
O198 Zn190 1.905 . S
O198 C192 1.182 . S
O199 Zn190 1.898 . S
O199 C193 1.167 . S
O200 Zn191 2.120 . S
O200 C193 1.299 . S
O201 Zn189 1.898 . S
O201 C196 1.167 1_455 S
O202 Zn191 2.120 . S
O202 C196 1.299 1_455 S
O203 Zn191 2.114 . S
O203 C205 1.166 . S
O204 Zn189 1.905 . S
O204 C205 1.182 . S
C205 O203 1.166 . S
C205 O204 1.182 . S
O206 Zn191 2.080 . S
O206 C209 1.305 . S
O207 Zn190 1.920 . S
O207 C209 1.234 . S
C208 O194 1.305 . S
C208 O195 1.234 . S
C209 O206 1.305 . S
C209 O207 1.234 . S
Zn210 O216 1.920 . S
Zn210 O222 1.898 . S
Zn210 O225 1.905 . S
Zn211 O219 1.905 . S
Zn211 O220 1.898 . S
Zn211 O228 1.920 . S
Zn212 O215 2.080 . S
Zn212 O218 2.114 . S
Zn212 O221 2.120 . S
Zn212 O223 2.120 1_554 S
Zn212 O224 2.114 1_554 S
Zn212 O227 2.080 . S
C213 O218 1.166 . S
C213 O219 1.182 . S
C214 O220 1.167 . S
C214 O221 1.299 . S
O215 Zn212 2.080 . S
O215 C229 1.305 1_554 S
O216 Zn210 1.920 . S
O216 C229 1.234 . S
C217 O222 1.167 . S
C217 O223 1.299 . S
O218 Zn212 2.114 . S
O218 C213 1.166 . S
O219 Zn211 1.905 . S
O219 C213 1.182 . S
O220 Zn211 1.898 . S
O220 C214 1.167 . S
O221 Zn212 2.120 . S
O221 C214 1.299 . S
O222 Zn210 1.898 . S
O222 C217 1.167 . S
O223 Zn212 2.120 1_556 S
O223 C217 1.299 . S
O224 Zn212 2.114 1_556 S
O224 C226 1.166 . S
O225 Zn210 1.905 . S
O225 C226 1.182 . S
C226 O224 1.166 . S
C226 O225 1.182 . S
O227 Zn212 2.080 . S
O227 C230 1.305 . S
O228 Zn211 1.920 . S
O228 C230 1.234 . S
C229 O215 1.305 1_556 S
C229 O216 1.234 . S
C230 O227 1.305 . S
C230 O228 1.234 . S
Zn231 O237 1.920 . S
Zn231 O243 1.898 . S
Zn231 O246 1.905 . S
Zn232 O240 1.905 . S
Zn232 O241 1.898 . S
Zn232 O249 1.920 . S
Zn233 O236 2.080 . S
Zn233 O239 2.114 . S
Zn233 O242 2.120 . S
Zn233 O244 2.120 . S
Zn233 O245 2.114 . S
Zn233 O248 2.080 . S
C234 O239 1.166 . S
C234 O240 1.182 . S
C235 O241 1.167 . S
C235 O242 1.299 . S
O236 Zn233 2.080 . S
O236 C250 1.305 . S
O237 Zn231 1.920 . S
O237 C250 1.234 . S
C238 O243 1.167 . S
C238 O244 1.299 . S
O239 Zn233 2.114 . S
O239 C234 1.166 . S
O240 Zn232 1.905 . S
O240 C234 1.182 . S
O241 Zn232 1.898 . S
O241 C235 1.167 . S
O242 Zn233 2.120 . S
O242 C235 1.299 . S
O243 Zn231 1.898 . S
O243 C238 1.167 . S
O244 Zn233 2.120 . S
O244 C238 1.299 . S
O245 Zn233 2.114 . S
O245 C247 1.166 . S
O246 Zn231 1.905 . S
O246 C247 1.182 . S
C247 O245 1.166 . S
C247 O246 1.182 . S
O248 Zn233 2.080 . S
O248 C251 1.305 . S
O249 Zn232 1.920 . S
O249 C251 1.234 . S
C250 O236 1.305 . S
C250 O237 1.234 . S
C251 O248 1.305 . S
C251 O249 1.234 . S
Zn252 O258 1.920 . S
Zn252 O264 1.898 . S
Zn252 O267 1.905 . S
Zn253 O261 1.905 . S
Zn253 O262 1.898 . S
Zn253 O270 1.920 . S
Zn254 O257 2.080 . S
Zn254 O260 2.114 . S
Zn254 O263 2.120 . S
Zn254 O265 2.120 . S
Zn254 O266 2.114 . S
Zn254 O269 2.080 . S
C255 O260 1.166 . S
C255 O261 1.182 . S
C256 O262 1.167 . S
C256 O263 1.299 . S
O257 Zn254 2.080 . S
O257 C271 1.305 . S
O258 Zn252 1.920 . S
O258 C271 1.234 . S
C259 O264 1.167 . S
C259 O265 1.299 . S
O260 Zn254 2.114 . S
O260 C255 1.166 . S
O261 Zn253 1.905 . S
O261 C255 1.182 . S
O262 Zn253 1.898 . S
O262 C256 1.167 . S
O263 Zn254 2.120 . S
O263 C256 1.299 . S
O264 Zn252 1.898 . S
O264 C259 1.167 . S
O265 Zn254 2.120 . S
O265 C259 1.299 . S
O266 Zn254 2.114 . S
O266 C268 1.166 . S
O267 Zn252 1.905 . S
O267 C268 1.182 . S
C268 O266 1.166 . S
C268 O267 1.182 . S
O269 Zn254 2.080 . S
O269 C272 1.305 . S
O270 Zn253 1.920 . S
O270 C272 1.234 . S
C271 O257 1.305 . S
C271 O258 1.234 . S
C272 O269 1.305 . S
C272 O270 1.234 . S
Zn273 O279 1.920 . S
Zn273 O285 1.898 . S
Zn273 O288 1.905 . S
Zn274 O282 1.905 . S
Zn274 O283 1.898 . S
Zn274 O291 1.920 . S
Zn275 O278 2.080 . S
Zn275 O281 2.114 . S
Zn275 O284 2.120 . S
Zn275 O286 2.120 . S
Zn275 O287 2.114 . S
Zn275 O290 2.080 . S
C276 O281 1.166 . S
C276 O282 1.182 . S
C277 O283 1.167 . S
C277 O284 1.299 . S
O278 Zn275 2.080 . S
O278 C292 1.305 . S
O279 Zn273 1.920 . S
O279 C292 1.234 . S
C280 O285 1.167 1_455 S
C280 O286 1.299 1_455 S
O281 Zn275 2.114 . S
O281 C276 1.166 . S
O282 Zn274 1.905 . S
O282 C276 1.182 . S
O283 Zn274 1.898 . S
O283 C277 1.167 . S
O284 Zn275 2.120 . S
O284 C277 1.299 . S
O285 Zn273 1.898 . S
O285 C280 1.167 1_655 S
O286 Zn275 2.120 . S
O286 C280 1.299 1_655 S
O287 Zn275 2.114 . S
O287 C289 1.166 . S
O288 Zn273 1.905 . S
O288 C289 1.182 . S
C289 O287 1.166 . S
C289 O288 1.182 . S
O290 Zn275 2.080 . S
O290 C293 1.305 . S
O291 Zn274 1.920 . S
O291 C293 1.234 . S
C292 O278 1.305 . S
C292 O279 1.234 . S
C293 O290 1.305 . S
C293 O291 1.234 . S
Zn294 O300 1.920 . S
Zn294 O306 1.898 . S
Zn294 O309 1.905 . S
Zn295 O303 1.905 . S
Zn295 O304 1.898 . S
Zn295 O312 1.920 . S
Zn296 O299 2.080 . S
Zn296 O302 2.114 . S
Zn296 O305 2.120 . S
Zn296 O307 2.120 1_556 S
Zn296 O308 2.114 1_556 S
Zn296 O311 2.080 . S
C297 O302 1.166 . S
C297 O303 1.182 . S
C298 O304 1.167 . S
C298 O305 1.299 . S
O299 Zn296 2.080 . S
O299 C313 1.305 1_556 S
O300 Zn294 1.920 . S
O300 C313 1.234 . S
C301 O306 1.167 . S
C301 O307 1.299 . S
O302 Zn296 2.114 . S
O302 C297 1.166 . S
O303 Zn295 1.905 . S
O303 C297 1.182 . S
O304 Zn295 1.898 . S
O304 C298 1.167 . S
O305 Zn296 2.120 . S
O305 C298 1.299 . S
O306 Zn294 1.898 . S
O306 C301 1.167 . S
O307 Zn296 2.120 1_554 S
O307 C301 1.299 . S
O308 Zn296 2.114 1_554 S
O308 C310 1.166 . S
O309 Zn294 1.905 . S
O309 C310 1.182 . S
C310 O308 1.166 . S
C310 O309 1.182 . S
O311 Zn296 2.080 . S
O311 C314 1.305 . S
O312 Zn295 1.920 . S
O312 C314 1.234 . S
C313 O299 1.305 1_554 S
C313 O300 1.234 . S
C314 O311 1.305 . S
C314 O312 1.234 . S
Zn315 O321 1.920 . S
Zn315 O327 1.898 . S
Zn315 O330 1.905 . S
Zn316 O324 1.905 . S
Zn316 O325 1.898 . S
Zn316 O333 1.920 . S
Zn317 O320 2.080 . S
Zn317 O323 2.114 . S
Zn317 O326 2.120 . S
Zn317 O328 2.120 . S
Zn317 O329 2.114 . S
Zn317 O332 2.080 . S
C318 O323 1.166 . S
C318 O324 1.182 . S
C319 O325 1.167 . S
C319 O326 1.299 . S
O320 Zn317 2.080 . S
O320 C334 1.305 . S
O321 Zn315 1.920 . S
O321 C334 1.234 . S
C322 O327 1.167 . S
C322 O328 1.299 . S
O323 Zn317 2.114 . S
O323 C318 1.166 . S
O324 Zn316 1.905 . S
O324 C318 1.182 . S
O325 Zn316 1.898 . S
O325 C319 1.167 . S
O326 Zn317 2.120 . S
O326 C319 1.299 . S
O327 Zn315 1.898 . S
O327 C322 1.167 . S
O328 Zn317 2.120 . S
O328 C322 1.299 . S
O329 Zn317 2.114 . S
O329 C331 1.166 . S
O330 Zn315 1.905 . S
O330 C331 1.182 . S
C331 O329 1.166 . S
C331 O330 1.182 . S
O332 Zn317 2.080 . S
O332 C335 1.305 . S
O333 Zn316 1.920 . S
O333 C335 1.234 . S
C334 O320 1.305 . S
C334 O321 1.234 . S
C335 O332 1.305 . S
C335 O333 1.234 . S
C336 C337 1.387 . S
C336 H340 0.950 . S
C336 C345 1.390 . S
C337 C336 1.387 . S
C337 C339 1.387 . S
H338 C345 0.950 . S
C339 C337 1.387 . S
C339 C341 1.390 . S
C339 H343 0.950 . S
H340 C336 0.950 . S
C341 C339 1.390 . S
C341 C342 1.387 . S
C341 H344 0.950 . S
C342 C341 1.387 . S
C342 C345 1.387 . S
H343 C339 0.950 . S
H344 C341 0.950 . S
C345 C336 1.390 . S
C345 H338 0.950 . S
C345 C342 1.387 . S
C346 C347 1.387 . S
C346 H350 0.950 . S
C346 C355 1.390 . S
C347 C346 1.387 . S
C347 C349 1.387 . S
H348 C355 0.950 . S
C349 C347 1.387 . S
C349 C351 1.390 . S
C349 H353 0.950 . S
H350 C346 0.950 . S
C351 C349 1.390 . S
C351 C352 1.387 . S
C351 H354 0.950 . S
C352 C351 1.387 . S
C352 C355 1.387 . S
H353 C349 0.950 . S
H354 C351 0.950 . S
C355 C346 1.390 . S
C355 H348 0.950 . S
C355 C352 1.387 . S
C356 C357 1.387 . S
C356 H360 0.950 . S
C356 C365 1.390 1_455 S
C357 C356 1.387 . S
C357 C359 1.387 . S
H358 C365 0.950 . S
C359 C357 1.387 . S
C359 C361 1.390 1_455 S
C359 H363 0.950 . S
H360 C356 0.950 . S
C361 C359 1.390 1_655 S
C361 C362 1.387 . S
C361 H364 0.950 . S
C362 C361 1.387 . S
C362 C365 1.387 . S
H363 C359 0.950 . S
H364 C361 0.950 . S
C365 C356 1.390 1_655 S
C365 H358 0.950 . S
C365 C362 1.387 . S
C366 C367 1.387 . S
C366 H370 0.950 . S
C366 C375 1.390 1_655 S
C367 C366 1.387 . S
C367 C369 1.387 . S
H368 C375 0.950 . S
C369 C367 1.387 . S
C369 C371 1.390 1_655 S
C369 H373 0.950 . S
H370 C366 0.950 . S
C371 C369 1.390 1_455 S
C371 C372 1.387 . S
C371 H374 0.950 . S
C372 C371 1.387 . S
C372 C375 1.387 . S
H373 C369 0.950 . S
H374 C371 0.950 . S
C375 C366 1.390 1_455 S
C375 H368 0.950 . S
C375 C372 1.387 . S
C376 C377 1.387 . S
C376 H380 0.950 . S
C376 C385 1.390 . S
C377 C376 1.387 . S
C377 C379 1.387 . S
H378 C385 0.950 . S
C379 C377 1.387 . S
C379 C381 1.390 . S
C379 H383 0.950 . S
H380 C376 0.950 . S
C381 C379 1.390 . S
C381 C382 1.387 . S
C381 H384 0.950 . S
C382 C381 1.387 . S
C382 C385 1.387 . S
H383 C379 0.950 . S
H384 C381 0.950 . S
C385 C376 1.390 . S
C385 H378 0.950 . S
C385 C382 1.387 . S
C386 C387 1.387 . S
C386 H390 0.950 . S
C386 C395 1.390 . S
C387 C386 1.387 . S
C387 C389 1.387 . S
H388 C395 0.950 . S
C389 C387 1.387 . S
C389 C391 1.390 . S
C389 H393 0.950 . S
H390 C386 0.950 . S
C391 C389 1.390 . S
C391 C392 1.387 . S
C391 H394 0.950 . S
C392 C391 1.387 . S
C392 C395 1.387 . S
H393 C389 0.950 . S
H394 C391 0.950 . S
C395 C386 1.390 . S
C395 H388 0.950 . S
C395 C392 1.387 . S
C396 C397 1.387 . S
C396 H400 0.950 . S
C396 C405 1.390 1_655 S
C397 C396 1.387 . S
C397 C399 1.387 . S
H398 C405 0.950 . S
C399 C397 1.387 . S
C399 C401 1.390 1_655 S
C399 H403 0.950 . S
H400 C396 0.950 . S
C401 C399 1.390 1_455 S
C401 C402 1.387 . S
C401 H404 0.950 . S
C402 C401 1.387 . S
C402 C405 1.387 . S
H403 C399 0.950 . S
H404 C401 0.950 . S
C405 C396 1.390 1_455 S
C405 H398 0.950 . S
C405 C402 1.387 . S
C406 C407 1.387 . S
C406 H410 0.950 . S
C406 C415 1.390 1_455 S
C407 C406 1.387 . S
C407 C409 1.387 . S
H408 C415 0.950 . S
C409 C407 1.387 . S
C409 C411 1.390 1_455 S
C409 H413 0.950 . S
H410 C406 0.950 . S
C411 C409 1.390 1_655 S
C411 C412 1.387 . S
C411 H414 0.950 . S
C412 C411 1.387 . S
C412 C415 1.387 . S
H413 C409 0.950 . S
H414 C411 0.950 . S
C415 C406 1.390 1_655 S
C415 H408 0.950 . S
C415 C412 1.387 . S
C416 C417 1.387 . S
C416 H420 0.950 . S
C416 C425 1.390 . S
C417 C416 1.387 . S
C417 C419 1.387 . S
H418 C425 0.950 1_554 S
C419 C417 1.387 . S
C419 C421 1.390 . S
C419 H423 0.950 . S
H420 C416 0.950 . S
C421 C419 1.390 . S
C421 C422 1.387 . S
C421 H424 0.950 . S
C422 C421 1.387 . S
C422 C425 1.387 . S
H423 C419 0.950 . S
H424 C421 0.950 . S
C425 C416 1.390 . S
C425 H418 0.950 1_556 S
C425 C422 1.387 . S
C426 C427 1.387 . S
C426 H430 0.950 . S
C426 C435 1.390 . S
C427 C426 1.387 . S
C427 C429 1.387 . S
H428 C435 0.950 . S
C429 C427 1.387 . S
C429 C431 1.390 . S
C429 H433 0.950 . S
H430 C426 0.950 . S
C431 C429 1.390 . S
C431 C432 1.387 . S
C431 H434 0.950 . S
C432 C431 1.387 . S
C432 C435 1.387 . S
H433 C429 0.950 . S
H434 C431 0.950 . S
C435 C426 1.390 . S
C435 H428 0.950 . S
C435 C432 1.387 . S
C436 C437 1.387 . S
C436 H440 0.950 . S
C436 C445 1.390 . S
C437 C436 1.387 . S
C437 C439 1.387 . S
H438 C445 0.950 . S
C439 C437 1.387 . S
C439 C441 1.390 . S
C439 H443 0.950 . S
H440 C436 0.950 . S
C441 C439 1.390 . S
C441 C442 1.387 . S
C441 H444 0.950 . S
C442 C441 1.387 . S
C442 C445 1.387 . S
H443 C439 0.950 . S
H444 C441 0.950 . S
C445 C436 1.390 . S
C445 H438 0.950 . S
C445 C442 1.387 . S
C446 C447 1.387 . S
C446 H450 0.950 . S
C446 C455 1.390 . S
C447 C446 1.387 . S
C447 C449 1.387 . S
H448 C455 0.950 . S
C449 C447 1.387 . S
C449 C451 1.390 . S
C449 H453 0.950 . S
H450 C446 0.950 . S
C451 C449 1.390 . S
C451 C452 1.387 . S
C451 H454 0.950 . S
C452 C451 1.387 . S
C452 C455 1.387 . S
H453 C449 0.950 . S
H454 C451 0.950 . S
C455 C446 1.390 . S
C455 H448 0.950 . S
C455 C452 1.387 . S
C456 C457 1.387 . S
C456 H460 0.950 1_554 S
C456 C465 1.390 . S
C457 C456 1.387 . S
C457 C459 1.387 . S
H458 C465 0.950 . S
C459 C457 1.387 . S
C459 C461 1.390 . S
C459 H463 0.950 . S
H460 C456 0.950 1_556 S
C461 C459 1.390 . S
C461 C462 1.387 . S
C461 H464 0.950 . S
C462 C461 1.387 . S
C462 C465 1.387 . S
H463 C459 0.950 . S
H464 C461 0.950 . S
C465 C456 1.390 . S
C465 H458 0.950 . S
C465 C462 1.387 . S
C466 C467 1.387 . S
C466 H470 0.950 . S
C466 C475 1.390 . S
C467 C466 1.387 . S
C467 C469 1.387 . S
H468 C475 0.950 . S
C469 C467 1.387 . S
C469 C471 1.390 . S
C469 H473 0.950 . S
H470 C466 0.950 . S
C471 C469 1.390 . S
C471 C472 1.387 . S
C471 H474 0.950 . S
C472 C471 1.387 . S
C472 C475 1.387 . S
H473 C469 0.950 . S
H474 C471 0.950 . S
C475 C466 1.390 . S
C475 H468 0.950 . S
C475 C472 1.387 . S
C476 C477 1.387 . S
C476 H480 0.950 . S
C476 C485 1.390 . S
C477 C476 1.387 . S
C477 C479 1.387 . S
H478 C485 0.950 . S
C479 C477 1.387 . S
C479 C481 1.390 . S
C479 H483 0.950 . S
H480 C476 0.950 . S
C481 C479 1.390 . S
C481 C482 1.387 . S
C481 H484 0.950 . S
C482 C481 1.387 . S
C482 C485 1.387 . S
H483 C479 0.950 . S
H484 C481 0.950 . S
C485 C476 1.390 . S
C485 H478 0.950 . S
C485 C482 1.387 . S
C486 C487 1.387 . S
C486 H490 0.950 . S
C486 C495 1.390 . S
C487 C486 1.387 . S
C487 C489 1.387 . S
H488 C495 0.950 . S
C489 C487 1.387 . S
C489 C491 1.390 . S
C489 H493 0.950 . S
H490 C486 0.950 . S
C491 C489 1.390 . S
C491 C492 1.387 . S
C491 H494 0.950 . S
C492 C491 1.387 . S
C492 C495 1.387 . S
H493 C489 0.950 . S
H494 C491 0.950 . S
C495 C486 1.390 . S
C495 H488 0.950 . S
C495 C492 1.387 . S
C496 C497 1.387 . S
C496 H500 0.950 . S
C496 C505 1.390 . S
C497 C496 1.387 . S
C497 C499 1.387 . S
H498 C505 0.950 . S
C499 C497 1.387 . S
C499 C501 1.390 . S
C499 H503 0.950 . S
H500 C496 0.950 . S
C501 C499 1.390 . S
C501 C502 1.387 . S
C501 H504 0.950 . S
C502 C501 1.387 . S
C502 C505 1.387 . S
H503 C499 0.950 . S
H504 C501 0.950 . S
C505 C496 1.390 . S
C505 H498 0.950 . S
C505 C502 1.387 . S
C506 C507 1.387 . S
C506 H510 0.950 . S
C506 C515 1.390 . S
C507 C506 1.387 . S
C507 C509 1.387 . S
H508 C515 0.950 . S
C509 C507 1.387 . S
C509 C511 1.390 . S
C509 H513 0.950 1_565 S
H510 C506 0.950 . S
C511 C509 1.390 . S
C511 C512 1.387 . S
C511 H514 0.950 . S
C512 C511 1.387 . S
C512 C515 1.387 . S
H513 C509 0.950 1_545 S
H514 C511 0.950 . S
C515 C506 1.390 . S
C515 H508 0.950 . S
C515 C512 1.387 . S
C516 C517 1.387 . S
C516 H520 0.950 . S
C516 C525 1.390 . S
C517 C516 1.387 . S
C517 C519 1.387 . S
H518 C525 0.950 . S
C519 C517 1.387 . S
C519 C521 1.390 . S
C519 H523 0.950 . S
H520 C516 0.950 . S
C521 C519 1.390 . S
C521 C522 1.387 . S
C521 H524 0.950 . S
C522 C521 1.387 . S
C522 C525 1.387 . S
H523 C519 0.950 . S
H524 C521 0.950 . S
C525 C516 1.390 . S
C525 H518 0.950 . S
C525 C522 1.387 . S
C526 C527 1.387 . S
C526 H530 0.950 . S
C526 C535 1.390 . S
C527 C526 1.387 . S
C527 C529 1.387 . S
H528 C535 0.950 . S
C529 C527 1.387 . S
C529 C531 1.390 . S
C529 H533 0.950 1_545 S
H530 C526 0.950 . S
C531 C529 1.390 . S
C531 C532 1.387 . S
C531 H534 0.950 . S
C532 C531 1.387 . S
C532 C535 1.387 . S
H533 C529 0.950 1_565 S
H534 C531 0.950 . S
C535 C526 1.390 . S
C535 H528 0.950 . S
C535 C532 1.387 . S
C536 C537 1.387 . S
C536 H540 0.950 . S
C536 C545 1.390 . S
C537 C536 1.387 . S
C537 C539 1.387 . S
H538 C545 0.950 . S
C539 C537 1.387 . S
C539 C541 1.390 . S
C539 H543 0.950 . S
H540 C536 0.950 . S
C541 C539 1.390 . S
C541 C542 1.387 . S
C541 H544 0.950 . S
C542 C541 1.387 . S
C542 C545 1.387 . S
H543 C539 0.950 . S
H544 C541 0.950 . S
C545 C536 1.390 . S
C545 H538 0.950 . S
C545 C542 1.387 . S
C546 C547 1.387 . S
C546 H550 0.950 . S
C546 C555 1.390 . S
C547 C546 1.387 . S
C547 C549 1.387 . S
H548 C555 0.950 . S
C549 C547 1.387 . S
C549 C551 1.390 . S
C549 H553 0.950 . S
H550 C546 0.950 . S
C551 C549 1.390 . S
C551 C552 1.387 . S
C551 H554 0.950 . S
C552 C551 1.387 . S
C552 C555 1.387 . S
H553 C549 0.950 . S
H554 C551 0.950 . S
C555 C546 1.390 . S
C555 H548 0.950 . S
C555 C552 1.387 . S
C556 C557 1.387 . S
C556 H560 0.950 . S
C556 C565 1.390 . S
C557 C556 1.387 . S
C557 C559 1.387 . S
H558 C565 0.950 1_556 S
C559 C557 1.387 . S
C559 C561 1.390 . S
C559 H563 0.950 . S
H560 C556 0.950 . S
C561 C559 1.390 . S
C561 C562 1.387 . S
C561 H564 0.950 . S
C562 C561 1.387 . S
C562 C565 1.387 . S
H563 C559 0.950 . S
H564 C561 0.950 . S
C565 C556 1.390 . S
C565 H558 0.950 1_554 S
C565 C562 1.387 . S
C566 C567 1.387 . S
C566 H570 0.950 . S
C566 C575 1.390 . S
C567 C566 1.387 . S
C567 C569 1.387 . S
H568 C575 0.950 . S
C569 C567 1.387 . S
C569 C571 1.390 . S
C569 H573 0.950 1_565 S
H570 C566 0.950 . S
C571 C569 1.390 . S
C571 C572 1.387 . S
C571 H574 0.950 . S
C572 C571 1.387 . S
C572 C575 1.387 . S
H573 C569 0.950 1_545 S
H574 C571 0.950 . S
C575 C566 1.390 . S
C575 H568 0.950 . S
C575 C572 1.387 . S
C576 C577 1.387 . S
C576 H580 0.950 . S
C576 C585 1.390 . S
C577 C576 1.387 . S
C577 C579 1.387 . S
H578 C585 0.950 . S
C579 C577 1.387 . S
C579 C581 1.390 . S
C579 H583 0.950 . S
H580 C576 0.950 . S
C581 C579 1.390 . S
C581 C582 1.387 . S
C581 H584 0.950 . S
C582 C581 1.387 . S
C582 C585 1.387 . S
H583 C579 0.950 . S
H584 C581 0.950 . S
C585 C576 1.390 . S
C585 H578 0.950 . S
C585 C582 1.387 . S
C586 C587 1.387 . S
C586 H590 0.950 . S
C586 C595 1.390 . S
C587 C586 1.387 . S
C587 C589 1.387 . S
H588 C595 0.950 . S
C589 C587 1.387 . S
C589 C591 1.390 . S
C589 H593 0.950 . S
H590 C586 0.950 . S
C591 C589 1.390 . S
C591 C592 1.387 . S
C591 H594 0.950 . S
C592 C591 1.387 . S
C592 C595 1.387 . S
H593 C589 0.950 . S
H594 C591 0.950 . S
C595 C586 1.390 . S
C595 H588 0.950 . S
C595 C592 1.387 . S
C596 C597 1.387 . S
C596 H600 0.950 . S
C596 C605 1.390 . S
C597 C596 1.387 . S
C597 C599 1.387 . S
H598 C605 0.950 . S
C599 C597 1.387 . S
C599 C601 1.390 . S
C599 H603 0.950 . S
H600 C596 0.950 . S
C601 C599 1.390 . S
C601 C602 1.387 . S
C601 H604 0.950 . S
C602 C601 1.387 . S
C602 C605 1.387 . S
H603 C599 0.950 . S
H604 C601 0.950 . S
C605 C596 1.390 . S
C605 H598 0.950 . S
C605 C602 1.387 . S
C606 C607 1.387 . S
C606 H610 0.950 . S
C606 C615 1.390 . S
C607 C606 1.387 . S
C607 C609 1.387 . S
H608 C615 0.950 . S
C609 C607 1.387 . S
C609 C611 1.390 . S
C609 H613 0.950 . S
H610 C606 0.950 . S
C611 C609 1.390 . S
C611 C612 1.387 . S
C611 H614 0.950 . S
C612 C611 1.387 . S
C612 C615 1.387 . S
H613 C609 0.950 . S
H614 C611 0.950 . S
C615 C606 1.390 . S
C615 H608 0.950 . S
C615 C612 1.387 . S
C616 C617 1.387 . S
C616 H620 0.950 . S
C616 C625 1.390 . S
C617 C616 1.387 . S
C617 C619 1.387 . S
H618 C625 0.950 . S
C619 C617 1.387 . S
C619 C621 1.390 . S
C619 H623 0.950 . S
H620 C616 0.950 . S
C621 C619 1.390 . S
C621 C622 1.387 . S
C621 H624 0.950 . S
C622 C621 1.387 . S
C622 C625 1.387 . S
H623 C619 0.950 . S
H624 C621 0.950 . S
C625 C616 1.390 . S
C625 H618 0.950 . S
C625 C622 1.387 . S
C626 C627 1.387 . S
C626 H630 0.950 . S
C626 C635 1.390 . S
C627 C626 1.387 . S
C627 C629 1.387 . S
H628 C635 0.950 . S
C629 C627 1.387 . S
C629 C631 1.390 . S
C629 H633 0.950 . S
H630 C626 0.950 . S
C631 C629 1.390 . S
C631 C632 1.387 . S
C631 H634 0.950 . S
C632 C631 1.387 . S
C632 C635 1.387 . S
H633 C629 0.950 . S
H634 C631 0.950 . S
C635 C626 1.390 . S
C635 H628 0.950 . S
C635 C632 1.387 . S
C636 C637 1.387 . S
C636 H640 0.950 . S
C636 C645 1.390 . S
C637 C636 1.387 . S
C637 C639 1.387 . S
H638 C645 0.950 . S
C639 C637 1.387 . S
C639 C641 1.390 . S
C639 H643 0.950 . S
H640 C636 0.950 . S
C641 C639 1.390 . S
C641 C642 1.387 . S
C641 H644 0.950 . S
C642 C641 1.387 . S
C642 C645 1.387 . S
H643 C639 0.950 . S
H644 C641 0.950 . S
C645 C636 1.390 . S
C645 H638 0.950 . S
C645 C642 1.387 . S
C646 C647 1.387 . S
C646 H650 0.950 . S
C646 C655 1.390 . S
C647 C646 1.387 . S
C647 C649 1.387 . S
H648 C655 0.950 . S
C649 C647 1.387 . S
C649 C651 1.390 . S
C649 H653 0.950 . S
H650 C646 0.950 . S
C651 C649 1.390 . S
C651 C652 1.387 . S
C651 H654 0.950 . S
C652 C651 1.387 . S
C652 C655 1.387 . S
H653 C649 0.950 . S
H654 C651 0.950 . S
C655 C646 1.390 . S
C655 H648 0.950 . S
C655 C652 1.387 . S
C656 C657 1.387 . S
C656 H660 0.950 . S
C656 C665 1.390 . S
C657 C656 1.387 . S
C657 C659 1.387 . S
H658 C665 0.950 . S
C659 C657 1.387 . S
C659 C661 1.390 . S
C659 H663 0.950 . S
H660 C656 0.950 . S
C661 C659 1.390 . S
C661 C662 1.387 . S
C661 H664 0.950 . S
C662 C661 1.387 . S
C662 C665 1.387 . S
H663 C659 0.950 . S
H664 C661 0.950 . S
C665 C656 1.390 . S
C665 H658 0.950 . S
C665 C662 1.387 . S
C666 C667 1.387 . S
C666 H670 0.950 . S
C666 C675 1.390 . S
C667 C666 1.387 . S
C667 C669 1.387 . S
H668 C675 0.950 . S
C669 C667 1.387 . S
C669 C671 1.390 . S
C669 H673 0.950 . S
H670 C666 0.950 . S
C671 C669 1.390 . S
C671 C672 1.387 . S
C671 H674 0.950 . S
C672 C671 1.387 . S
C672 C675 1.387 . S
H673 C669 0.950 . S
H674 C671 0.950 . S
C675 C666 1.390 . S
C675 H668 0.950 . S
C675 C672 1.387 . S
C676 C677 1.387 . S
C676 H680 0.950 . S
C676 C685 1.390 . S
C677 C676 1.387 . S
C677 C679 1.387 . S
H678 C685 0.950 . S
C679 C677 1.387 . S
C679 C681 1.390 . S
C679 H683 0.950 . S
H680 C676 0.950 . S
C681 C679 1.390 . S
C681 C682 1.387 . S
C681 H684 0.950 . S
C682 C681 1.387 . S
C682 C685 1.387 . S
H683 C679 0.950 . S
H684 C681 0.950 . S
C685 C676 1.390 . S
C685 H678 0.950 . S
C685 C682 1.387 . S
C686 C687 1.387 . S
C686 H690 0.950 . S
C686 C695 1.390 . S
C687 C686 1.387 . S
C687 C689 1.387 . S
H688 C695 0.950 . S
C689 C687 1.387 . S
C689 C691 1.390 . S
C689 H693 0.950 . S
H690 C686 0.950 . S
C691 C689 1.390 . S
C691 C692 1.387 . S
C691 H694 0.950 . S
C692 C691 1.387 . S
C692 C695 1.387 . S
H693 C689 0.950 . S
H694 C691 0.950 . S
C695 C686 1.390 . S
C695 H688 0.950 . S
C695 C692 1.387 . S
C696 C697 1.387 . S
C696 H700 0.950 . S
C696 C705 1.390 . S
C697 C696 1.387 . S
C697 C699 1.387 . S
H698 C705 0.950 . S
C699 C697 1.387 . S
C699 C701 1.390 . S
C699 H703 0.950 . S
H700 C696 0.950 . S
C701 C699 1.390 . S
C701 C702 1.387 . S
C701 H704 0.950 . S
C702 C701 1.387 . S
C702 C705 1.387 . S
H703 C699 0.950 . S
H704 C701 0.950 . S
C705 C696 1.390 . S
C705 H698 0.950 . S
C705 C702 1.387 . S
C706 C707 1.387 . S
C706 H710 0.950 . S
C706 C715 1.390 . S
C707 C706 1.387 . S
C707 C709 1.387 . S
H708 C715 0.950 . S
C709 C707 1.387 . S
C709 C711 1.390 . S
C709 H713 0.950 . S
H710 C706 0.950 . S
C711 C709 1.390 . S
C711 C712 1.387 . S
C711 H714 0.950 . S
C712 C711 1.387 . S
C712 C715 1.387 . S
H713 C709 0.950 . S
H714 C711 0.950 . S
C715 C706 1.390 . S
C715 H708 0.950 . S
C715 C712 1.387 . S
C716 C717 1.387 . S
C716 H720 0.950 . S
C716 C725 1.390 . S
C717 C716 1.387 . S
C717 C719 1.387 . S
H718 C725 0.950 . S
C719 C717 1.387 . S
C719 C721 1.390 . S
C719 H723 0.950 . S
H720 C716 0.950 . S
C721 C719 1.390 . S
C721 C722 1.387 . S
C721 H724 0.950 . S
C722 C721 1.387 . S
C722 C725 1.387 . S
H723 C719 0.950 . S
H724 C721 0.950 . S
C725 C716 1.390 . S
C725 H718 0.950 . S
C725 C722 1.387 . S
C726 C727 1.387 . S
C726 H730 0.950 . S
C726 C735 1.390 . S
C727 C726 1.387 . S
C727 C729 1.387 . S
H728 C735 0.950 . S
C729 C727 1.387 . S
C729 C731 1.390 . S
C729 H733 0.950 . S
H730 C726 0.950 . S
C731 C729 1.390 . S
C731 C732 1.387 . S
C731 H734 0.950 . S
C732 C731 1.387 . S
C732 C735 1.387 . S
H733 C729 0.950 . S
H734 C731 0.950 . S
C735 C726 1.390 . S
C735 H728 0.950 . S
C735 C732 1.387 . S
C736 C737 1.387 . S
C736 H740 0.950 . S
C736 C745 1.390 . S
C737 C736 1.387 . S
C737 C739 1.387 . S
H738 C745 0.950 . S
C739 C737 1.387 . S
C739 C741 1.390 . S
C739 H743 0.950 . S
H740 C736 0.950 . S
C741 C739 1.390 . S
C741 C742 1.387 . S
C741 H744 0.950 . S
C742 C741 1.387 . S
C742 C745 1.387 . S
H743 C739 0.950 . S
H744 C741 0.950 . S
C745 C736 1.390 . S
C745 H738 0.950 . S
C745 C742 1.387 . S
C746 C747 1.387 . S
C746 H750 0.950 . S
C746 C755 1.390 . S
C747 C746 1.387 . S
C747 C749 1.387 . S
H748 C755 0.950 . S
C749 C747 1.387 . S
C749 C751 1.390 . S
C749 H753 0.950 . S
H750 C746 0.950 . S
C751 C749 1.390 . S
C751 C752 1.387 . S
C751 H754 0.950 . S
C752 C751 1.387 . S
C752 C755 1.387 . S
H753 C749 0.950 . S
H754 C751 0.950 . S
C755 C746 1.390 . S
C755 H748 0.950 . S
C755 C752 1.387 . S
C756 C757 1.387 . S
C756 H760 0.950 . S
C756 C765 1.390 . S
C757 C756 1.387 . S
C757 C759 1.387 . S
H758 C765 0.950 . S
C759 C757 1.387 . S
C759 C761 1.390 . S
C759 H763 0.950 . S
H760 C756 0.950 . S
C761 C759 1.390 . S
C761 C762 1.387 . S
C761 H764 0.950 . S
C762 C761 1.387 . S
C762 C765 1.387 . S
H763 C759 0.950 . S
H764 C761 0.950 . S
C765 C756 1.390 . S
C765 H758 0.950 . S
C765 C762 1.387 . S
C766 C767 1.387 . S
C766 H770 0.950 . S
C766 C775 1.390 . S
C767 C766 1.387 . S
C767 C769 1.387 1_454 S
H768 C775 0.950 . S
C769 C767 1.387 1_656 S
C769 C771 1.390 . S
C769 H773 0.950 . S
H770 C766 0.950 . S
C771 C769 1.390 . S
C771 C772 1.387 . S
C771 H774 0.950 . S
C772 C771 1.387 . S
C772 C775 1.387 1_656 S
H773 C769 0.950 . S
H774 C771 0.950 . S
C775 C766 1.390 . S
C775 H768 0.950 . S
C775 C772 1.387 1_454 S
C776 C777 1.387 . S
C776 H780 0.950 . S
C776 C785 1.390 . S
C777 C776 1.387 . S
C777 C779 1.387 . S
H778 C785 0.950 . S
C779 C777 1.387 . S
C779 C781 1.390 . S
C779 H783 0.950 . S
H780 C776 0.950 . S
C781 C779 1.390 . S
C781 C782 1.387 . S
C781 H784 0.950 . S
C782 C781 1.387 . S
C782 C785 1.387 . S
H783 C779 0.950 . S
H784 C781 0.950 . S
C785 C776 1.390 . S
C785 H778 0.950 . S
C785 C782 1.387 . S
C786 C787 1.387 . S
C786 H790 0.950 . S
C786 C795 1.390 . S
C787 C786 1.387 . S
C787 C789 1.387 . S
H788 C795 0.950 . S
C789 C787 1.387 . S
C789 C791 1.390 . S
C789 H793 0.950 . S
H790 C786 0.950 . S
C791 C789 1.390 . S
C791 C792 1.387 . S
C791 H794 0.950 . S
C792 C791 1.387 . S
C792 C795 1.387 . S
H793 C789 0.950 . S
H794 C791 0.950 . S
C795 C786 1.390 . S
C795 H788 0.950 . S
C795 C792 1.387 . S
C796 C797 1.387 1_554 S
C796 H800 0.950 . S
C796 C805 1.390 . S
C797 C796 1.387 1_556 S
C797 C799 1.387 1_445 S
H798 C805 0.950 . S
C799 C797 1.387 1_665 S
C799 C801 1.390 . S
C799 H803 0.950 . S
H800 C796 0.950 . S
C801 C799 1.390 . S
C801 C802 1.387 1_556 S
C801 H804 0.950 . S
C802 C801 1.387 1_554 S
C802 C805 1.387 1_665 S
H803 C799 0.950 . S
H804 C801 0.950 . S
C805 C796 1.390 . S
C805 H798 0.950 . S
C805 C802 1.387 1_445 S
C806 C807 1.387 1_565 S
C806 H810 0.950 . S
C806 C815 1.390 . S
C807 C806 1.387 1_545 S
C807 C809 1.387 . S
H808 C815 0.950 . S
C809 C807 1.387 . S
C809 C811 1.390 . S
C809 H813 0.950 . S
H810 C806 0.950 . S
C811 C809 1.390 . S
C811 C812 1.387 1_545 S
C811 H814 0.950 . S
C812 C811 1.387 1_565 S
C812 C815 1.387 . S
H813 C809 0.950 . S
H814 C811 0.950 . S
C815 C806 1.390 . S
C815 H808 0.950 . S
C815 C812 1.387 . S
C337 C16 1.395 . S
C342 C213 1.395 . S
C347 C37 1.395 . S
C352 C247 1.395 . S
C357 C45 1.399 . S
C362 C184 1.399 . S
C367 C79 1.399 . S
C372 C192 1.399 . S
C377 C87 1.399 . S
C382 C297 1.399 . S
C387 C108 1.395 . S
C392 C318 1.395 . S
C397 C129 1.395 . S
C402 C255 1.395 . S
C407 C163 1.395 . S
C412 C276 1.395 . S
C417 C193 1.401 . S
C422 C20 1.345 . S
C427 C214 1.401 . S
C432 C41 1.345 . S
C437 C238 1.401 . S
C442 C61 1.345 . S
C447 C175 1.402 . S
C452 C83 1.347 . S
C457 C103 1.350 . S
C462 C277 1.405 . S
C467 C298 1.404 . S
C472 C124 1.349 . S
C477 C319 1.400 . S
C482 C145 1.345 . S
C487 C256 1.401 . S
C492 C167 1.345 . S
C497 C28 1.404 . S
C502 C188 1.349 . S
C507 C208 1.348 1_565 S
C512 C46 1.403 . S
C517 C229 1.344 . S
C522 C70 1.400 . S
C527 C251 1.349 1_545 S
C532 C7 1.404 . S
C537 C271 1.350 . S
C542 C109 1.404 . S
C547 C130 1.405 . S
C552 C292 1.350 1_545 S
C557 C154 1.405 . S
C562 C313 1.350 . S
C567 C334 1.348 1_565 S
C572 C88 1.404 . S
C577 C3 1.013 . S
C582 C322 1.042 . S
C587 C24 1.012 . S
C592 C91 1.042 . S
C597 C280 1.042 . S
C602 C58 1.013 . S
C607 C133 1.042 . S
C612 C66 1.013 . S
C617 C100 1.013 . S
C622 C235 1.042 . S
C627 C121 1.018 . S
C632 C4 1.049 . S
C637 C196 1.049 . S
C642 C142 1.018 . S
C647 C49 1.049 . S
C652 C150 1.017 . S
C657 C171 1.017 . S
C662 C151 1.049 . S
C667 C205 1.016 . S
C672 C259 1.048 . S
C677 C112 1.042 . S
C682 C226 1.013 . S
C687 C301 1.049 . S
C692 C234 1.017 . S
C697 C268 1.013 . S
C702 C67 1.042 . S
C707 C289 1.017 . S
C712 C172 1.048 . S
C717 C310 1.017 . S
C722 C25 1.049 . S
C727 C217 1.048 . S
C732 C331 1.017 . S
C737 C19 1.365 . S
C742 C272 1.365 . S
C747 C40 1.361 . S
C752 C125 1.361 . S
C757 C62 1.361 . S
C762 C314 1.361 . S
C767 C166 1.362 . S
C772 C82 1.362 . S
C777 C104 1.361 . S
C782 C187 1.361 . S
C787 C230 1.360 . S
C792 C146 1.360 . S
C797 C209 1.364 . S
C802 C293 1.364 . S
C807 C335 1.364 . S
C812 C250 1.364 . S
