# Generated by pormake.
# Topology wjd, (6)-cn, num edge types: 1
# Building blocks:
#     Node 0, Type 0, BuildingBlock: JUFBIX_clean_sbu_0, # of connection points: 6
#     Node 1, Type 0, BuildingBlock: JUFBIX_clean_sbu_0, # of connection points: 6
#     Node 2, Type 0, BuildingBlock: JUFBIX_clean_sbu_0, # of connection points: 6
#     Node 3, Type 0, BuildingBlock: JUFBIX_clean_sbu_0, # of connection points: 6
#     Node 4, Type 0, BuildingBlock: JUFBIX_clean_sbu_0, # of connection points: 6
#     Node 5, Type 0, BuildingBlock: JUFBIX_clean_sbu_0, # of connection points: 6
#     Node 6, Type 0, BuildingBlock: JUFBIX_clean_sbu_0, # of connection points: 6
#     Node 7, Type 0, BuildingBlock: JUFBIX_clean_sbu_0, # of connection points: 6
#     Node 8, Type 0, BuildingBlock: JUFBIX_clean_sbu_0, # of connection points: 6
#     Node 9, Type 0, BuildingBlock: JUFBIX_clean_sbu_0, # of connection points: 6
#     Node 10, Type 0, BuildingBlock: JUFBIX_clean_sbu_0, # of connection points: 6
#     Node 11, Type 0, BuildingBlock: JUFBIX_clean_sbu_0, # of connection points: 6
#     Edge 12, Type (0, 0), BuildingBlock: MIFKUJ_clean_linker_0, # of connection points: 2
#     Edge 13, Type (0, 0), BuildingBlock: MIFKUJ_clean_linker_0, # of connection points: 2
#     Edge 14, Type (0, 0), BuildingBlock: MIFKUJ_clean_linker_0, # of connection points: 2
#     Edge 15, Type (0, 0), BuildingBlock: MIFKUJ_clean_linker_0, # of connection points: 2
#     Edge 16, Type (0, 0), BuildingBlock: MIFKUJ_clean_linker_0, # of connection points: 2
#     Edge 17, Type (0, 0), BuildingBlock: MIFKUJ_clean_linker_0, # of connection points: 2
#     Edge 18, Type (0, 0), BuildingBlock: MIFKUJ_clean_linker_0, # of connection points: 2
#     Edge 19, Type (0, 0), BuildingBlock: MIFKUJ_clean_linker_0, # of connection points: 2
#     Edge 20, Type (0, 0), BuildingBlock: MIFKUJ_clean_linker_0, # of connection points: 2
#     Edge 21, Type (0, 0), BuildingBlock: MIFKUJ_clean_linker_0, # of connection points: 2
#     Edge 22, Type (0, 0), BuildingBlock: MIFKUJ_clean_linker_0, # of connection points: 2
#     Edge 23, Type (0, 0), BuildingBlock: MIFKUJ_clean_linker_0, # of connection points: 2
#     Edge 24, Type (0, 0), BuildingBlock: MIFKUJ_clean_linker_0, # of connection points: 2
#     Edge 25, Type (0, 0), BuildingBlock: MIFKUJ_clean_linker_0, # of connection points: 2
#     Edge 26, Type (0, 0), BuildingBlock: MIFKUJ_clean_linker_0, # of connection points: 2
#     Edge 27, Type (0, 0), BuildingBlock: MIFKUJ_clean_linker_0, # of connection points: 2
#     Edge 28, Type (0, 0), BuildingBlock: MIFKUJ_clean_linker_0, # of connection points: 2
#     Edge 29, Type (0, 0), BuildingBlock: MIFKUJ_clean_linker_0, # of connection points: 2
#     Edge 30, Type (0, 0), BuildingBlock: MIFKUJ_clean_linker_0, # of connection points: 2
#     Edge 31, Type (0, 0), BuildingBlock: MIFKUJ_clean_linker_0, # of connection points: 2
#     Edge 32, Type (0, 0), BuildingBlock: MIFKUJ_clean_linker_0, # of connection points: 2
#     Edge 33, Type (0, 0), BuildingBlock: MIFKUJ_clean_linker_0, # of connection points: 2
#     Edge 34, Type (0, 0), BuildingBlock: MIFKUJ_clean_linker_0, # of connection points: 2
#     Edge 35, Type (0, 0), BuildingBlock: MIFKUJ_clean_linker_0, # of connection points: 2
#     Edge 36, Type (0, 0), BuildingBlock: MIFKUJ_clean_linker_0, # of connection points: 2
#     Edge 37, Type (0, 0), BuildingBlock: MIFKUJ_clean_linker_0, # of connection points: 2
#     Edge 38, Type (0, 0), BuildingBlock: MIFKUJ_clean_linker_0, # of connection points: 2
#     Edge 39, Type (0, 0), BuildingBlock: MIFKUJ_clean_linker_0, # of connection points: 2
#     Edge 40, Type (0, 0), BuildingBlock: MIFKUJ_clean_linker_0, # of connection points: 2
#     Edge 41, Type (0, 0), BuildingBlock: MIFKUJ_clean_linker_0, # of connection points: 2
#     Edge 42, Type (0, 0), BuildingBlock: MIFKUJ_clean_linker_0, # of connection points: 2
#     Edge 43, Type (0, 0), BuildingBlock: MIFKUJ_clean_linker_0, # of connection points: 2
#     Edge 44, Type (0, 0), BuildingBlock: MIFKUJ_clean_linker_0, # of connection points: 2
#     Edge 45, Type (0, 0), BuildingBlock: MIFKUJ_clean_linker_0, # of connection points: 2
#     Edge 46, Type (0, 0), BuildingBlock: MIFKUJ_clean_linker_0, # of connection points: 2
#     Edge 47, Type (0, 0), BuildingBlock: MIFKUJ_clean_linker_0, # of connection points: 2
# Relax obj value: 0.292
# Max RMSD: 0.234
# Mean RMSD: 0.234
data_MOF--net-wjd--node1-JUFBIX_clean_sbu_0--edge1-MIFKUJ_clean_linker_0
_symmetry_space_group_name_H-M    P1
_symmetry_Int_Tables_number       1
_symmetry_cell_setting            triclinic
loop_
_symmetry_equiv_pos_as_xyz
'x, y, z'
_cell_length_a     41.627952
_cell_length_b     41.568435
_cell_length_c     73.500946
_cell_angle_alpha  90.19356
_cell_angle_beta   89.954427
_cell_angle_gamma 120.02857
loop_
_atom_site_label
_atom_site_type_symbol
_atom_site_fract_x
_atom_site_fract_y
_atom_site_fract_z
_atom_type_partial_charge
Co0 Co 0.31262 0.11572 0.14748 0.0
C1 C 0.34837 0.11918 0.18039 0.0
Co2 Co 0.3556 0.09987 0.14525 0.0
C3 C 0.26424 0.14611 0.14008 0.0
C4 C 0.25464 0.1193 0.16598 0.0
N5 N 0.27553 0.1273 0.1508 0.0
N6 N 0.23771 0.15064 0.14825 0.0
C7 C 0.2316 0.13383 0.1645 0.0
H8 H 0.27566 0.15684 0.12677 0.0
H9 H 0.25619 0.10399 0.17749 0.0
C10 C 0.31953 0.09487 0.11249 0.0
N11 N 0.39283 0.0882 0.14263 0.0
C12 C 0.42501 0.10781 0.13349 0.0
C13 C 0.39513 0.06016 0.15045 0.0
N14 N 0.44771 0.09361 0.1355 0.0
C15 C 0.42874 0.06334 0.14607 0.0
C16 C 0.28621 0.04007 0.15187 0.0
O17 O 0.30043 0.10487 0.12206 0.0
O18 O 0.34615 0.09307 0.11993 0.0
O19 O 0.31951 0.04848 0.14864 0.0
O20 O 0.27818 0.06571 0.15278 0.0
O21 O 0.36505 0.10642 0.1709 0.0
H22 H 0.37426 0.03938 0.15923 0.0
H23 H 0.43228 0.13301 0.12614 0.0
O24 O 0.32504 0.12575 0.17263 0.0
O25 O 0.34711 0.16613 0.14218 0.0
O26 O 0.39078 0.15135 0.14151 0.0
C27 C 0.38111 0.17582 0.14038 0.0
H28 H 0.21146 0.13175 0.17445 0.0
H29 H 0.43856 0.0451 0.15069 0.0
Co30 Co 0.7558 0.68236 0.38304 0.0
C31 C 0.7765 0.65464 0.35362 0.0
Co32 Co 0.78182 0.64976 0.39123 0.0
C33 C 0.74955 0.7464 0.38216 0.0
C34 C 0.71443 0.70839 0.36172 0.0
N35 N 0.73616 0.71151 0.37599 0.0
N36 N 0.73885 0.76607 0.37188 0.0
C37 C 0.71607 0.74211 0.35914 0.0
H38 H 0.76956 0.7582 0.39312 0.0
H39 H 0.70118 0.68449 0.35279 0.0
C40 C 0.75921 0.67785 0.42032 0.0
N41 N 0.80395 0.62308 0.39879 0.0
C42 C 0.8047 0.59404 0.39096 0.0
C43 C 0.82748 0.63281 0.41304 0.0
N44 N 0.8282 0.58577 0.39969 0.0
C45 C 0.8424 0.60999 0.41362 0.0
C46 C 0.83316 0.72328 0.38668 0.0
O47 O 0.74937 0.69118 0.40746 0.0
O48 O 0.7746 0.65879 0.41655 0.0
O49 O 0.82848 0.69199 0.39123 0.0
O50 O 0.80494 0.72599 0.38265 0.0
O51 O 0.78844 0.64132 0.36576 0.0
H52 H 0.83447 0.656 0.42207 0.0
H53 H 0.78963 0.58033 0.37869 0.0
O54 O 0.76152 0.67334 0.35859 0.0
O55 O 0.70775 0.63861 0.38331 0.0
O56 O 0.73497 0.60684 0.391 0.0
C57 C 0.70569 0.60769 0.38705 0.0
H58 H 0.70448 0.74939 0.34777 0.0
H59 H 0.86245 0.61134 0.42341 0.0
Co60 Co 0.87125 0.19614 0.11704 0.0
C61 C 0.87409 0.22006 0.15304 0.0
Co62 Co 0.90261 0.25749 0.12057 0.0
C63 C 0.85154 0.1178 0.11177 0.0
C64 C 0.80479 0.12486 0.11671 0.0
N65 N 0.84211 0.14424 0.11472 0.0
N66 N 0.82147 0.0832 0.11156 0.0
C67 C 0.79217 0.08775 0.11463 0.0
H68 H 0.87978 0.12366 0.11003 0.0
H69 H 0.7874 0.13646 0.12008 0.0
C70 C 0.90156 0.23379 0.08482 0.0
N71 N 0.92916 0.30887 0.12312 0.0
C72 C 0.91512 0.32983 0.12939 0.0
C73 C 0.96299 0.33347 0.11666 0.0
N74 N 0.93809 0.36652 0.12665 0.0
C75 C 0.96855 0.36891 0.11879 0.0
C76 C 0.94527 0.22319 0.12336 0.0
O77 O 0.88214 0.20135 0.09152 0.0
O78 O 0.91198 0.26208 0.09506 0.0
O79 O 0.9465 0.25441 0.1242 0.0
O80 O 0.91443 0.19353 0.12086 0.0
O81 O 0.89334 0.25221 0.1461 0.0
H82 H 0.98143 0.32605 0.10984 0.0
H83 H 0.88725 0.31804 0.13466 0.0
O84 O 0.86135 0.19162 0.14271 0.0
O85 O 0.82872 0.19988 0.11309 0.0
O86 O 0.85841 0.25998 0.11682 0.0
C87 C 0.82844 0.23006 0.11386 0.0
H88 H 0.7637 0.06559 0.11611 0.0
H89 H 0.99248 0.39418 0.11408 0.0
Co90 Co 0.30406 0.07932 0.4011 0.0
C91 C 0.33812 0.13056 0.37347 0.0
Co92 Co 0.34063 0.1362 0.41129 0.0
C93 C 0.23586 0.01295 0.39464 0.0
C94 C 0.27963 0.01183 0.37993 0.0
N95 N 0.27286 0.03209 0.39211 0.0
N96 N 0.21904 0.98221 0.38423 0.0
C97 C 0.24641 0.98092 0.37509 0.0
H98 H 0.22114 0.02214 0.40343 0.0
H99 H 0.30658 0.02007 0.37417 0.0
C100 C 0.30456 0.08252 0.43862 0.0
N101 N 0.37008 0.18375 0.42045 0.0
C102 C 0.39882 0.2136 0.41259 0.0
C103 C 0.3629 0.19712 0.43575 0.0
N104 N 0.40932 0.24501 0.42224 0.0
C105 C 0.38693 0.23469 0.43687 0.0
C106 C 0.26922 0.12142 0.40508 0.0
O107 O 0.29079 0.06108 0.42501 0.0
O108 O 0.32778 0.11676 0.43591 0.0
O109 O 0.30094 0.14531 0.41088 0.0
O110 O 0.26376 0.08969 0.40028 0.0
O111 O 0.35289 0.15413 0.38635 0.0
H112 H 0.34031 0.181 0.44502 0.0
H113 H 0.41033 0.21276 0.3995 0.0
O114 O 0.31637 0.09674 0.3773 0.0
O115 O 0.34592 0.07076 0.40159 0.0
O116 O 0.38066 0.12806 0.41142 0.0
C117 C 0.37778 0.09761 0.40617 0.0
H118 H 0.24246 0.96049 0.36483 0.0
H119 H 0.38716 0.25318 0.44734 0.0
Co120 Co 0.81721 0.69167 0.12617 0.0
C121 C 0.7832 0.65479 0.15888 0.0
Co122 Co 0.75709 0.65211 0.12446 0.0
C123 C 0.89867 0.73105 0.12276 0.0
C124 C 0.87806 0.74926 0.14488 0.0
N125 N 0.86688 0.7262 0.13034 0.0
N126 N 0.9288 0.75574 0.13231 0.0
C127 C 0.91589 0.76733 0.14611 0.0
H128 H 0.89964 0.71548 0.11114 0.0
H129 H 0.85972 0.75153 0.15457 0.0
C130 C 0.78999 0.69005 0.09186 0.0
N131 N 0.70729 0.61712 0.12123 0.0
C132 C 0.68937 0.58088 0.12602 0.0
C133 C 0.68199 0.62169 0.11189 0.0
N134 N 0.65406 0.56255 0.11982 0.0
C135 C 0.64932 0.58822 0.11097 0.0
C136 C 0.77205 0.72243 0.13299 0.0
O137 O 0.81978 0.70702 0.10121 0.0
O138 O 0.76106 0.66392 0.09927 0.0
O139 O 0.74497 0.69042 0.12913 0.0
O140 O 0.80464 0.72743 0.13302 0.0
O141 O 0.75329 0.64116 0.14976 0.0
H142 H 0.68733 0.64745 0.10566 0.0
H143 H 0.7025 0.56784 0.13322 0.0
O144 O 0.81379 0.67613 0.15102 0.0
O145 O 0.82958 0.65589 0.11926 0.0
O146 O 0.77025 0.61439 0.1198 0.0
C147 C 0.80384 0.62234 0.11781 0.0
H148 H 0.93274 0.78699 0.15657 0.0
H149 H 0.62418 0.58311 0.10412 0.0
Co150 Co 0.91287 0.22964 0.37723 0.0
C151 C 0.86477 0.21101 0.34797 0.0
Co152 Co 0.85403 0.20277 0.3856 0.0
C153 C 0.983 0.23521 0.37563 0.0
C154 C 0.98365 0.27718 0.35867 0.0
N155 N 0.96203 0.24982 0.37035 0.0
N156 N 0.01636 0.25142 0.36751 0.0
C157 C 0.01737 0.27833 0.35695 0.0
H158 H 0.9736 0.21222 0.38502 0.0
H159 H 0.97499 0.29412 0.35138 0.0
C160 C 0.90493 0.22325 0.41463 0.0
N161 N 0.80472 0.17971 0.39324 0.0
C162 C 0.77426 0.17905 0.38627 0.0
C163 C 0.79171 0.15521 0.4071 0.0
N164 N 0.74296 0.15463 0.39516 0.0
C165 C 0.754 0.13981 0.40828 0.0
C166 C 0.87663 0.15236 0.37925 0.0
O167 O 0.92766 0.23322 0.40155 0.0
O168 O 0.87049 0.20918 0.41103 0.0
O169 O 0.85002 0.15624 0.38473 0.0
O170 O 0.90721 0.18096 0.37528 0.0
O171 O 0.83929 0.19727 0.36005 0.0
H172 H 0.80848 0.14794 0.41547 0.0
H173 H 0.7748 0.19491 0.3745 0.0
O174 O 0.89851 0.22652 0.35289 0.0
O175 O 0.91716 0.2777 0.379 0.0
O176 O 0.85776 0.24932 0.38612 0.0
C177 C 0.8879 0.27907 0.38269 0.0
H178 H 0.03999 0.29619 0.34801 0.0
H179 H 0.73594 0.11896 0.41795 0.0
Co180 Co 0.09763 0.34955 0.62485 0.0
C181 C 0.08639 0.32096 0.58974 0.0
Co182 Co 0.12981 0.32148 0.61908 0.0
C183 C 0.08922 0.41139 0.63517 0.0
C184 C 0.03766 0.36626 0.62573 0.0
N185 N 0.07291 0.37561 0.6296 0.0
N186 N 0.06604 0.42527 0.63448 0.0
C187 C 0.03336 0.39673 0.62867 0.0
H188 H 0.1184 0.42775 0.63848 0.0
H189 H 0.01703 0.33972 0.62018 0.0
C190 C 0.13854 0.34858 0.65457 0.0
N191 N 0.15585 0.29702 0.61408 0.0
C192 C 0.15918 0.27178 0.62421 0.0
C193 C 0.17606 0.30129 0.59901 0.0
N194 N 0.1808 0.26019 0.61606 0.0
C195 C 0.1914 0.27878 0.60018 0.0
C196 C 0.16969 0.39613 0.61199 0.0
O197 O 0.11618 0.35875 0.64891 0.0
O198 O 0.14896 0.33169 0.64365 0.0
O199 O 0.17078 0.36626 0.6113 0.0
O200 O 0.14014 0.39508 0.61725 0.0
O201 O 0.10952 0.31106 0.59469 0.0
H202 H 0.17926 0.3195 0.58782 0.0
H203 H 0.14619 0.26236 0.63737 0.0
O204 O 0.07846 0.33961 0.60074 0.0
O205 O 0.05571 0.30336 0.63245 0.0
O206 O 0.08916 0.27699 0.62688 0.0
C207 C 0.05887 0.27437 0.6321 0.0
H208 H 0.00847 0.39804 0.62605 0.0
H209 H 0.20838 0.27579 0.58991 0.0
Co210 Co 0.18576 0.85823 0.91122 0.0
C211 C 0.20895 0.85562 0.87585 0.0
Co212 Co 0.24646 0.89073 0.9075 0.0
C213 C 0.10937 0.84186 0.91514 0.0
C214 C 0.1137 0.79283 0.91309 0.0
N215 N 0.1344 0.83029 0.91385 0.0
N216 N 0.07413 0.81314 0.91524 0.0
C217 C 0.07684 0.78229 0.91405 0.0
H218 H 0.11669 0.87076 0.91553 0.0
H219 H 0.12438 0.77413 0.91111 0.0
C220 C 0.22395 0.89534 0.9426 0.0
N221 N 0.29743 0.9165 0.9045 0.0
C222 C 0.31684 0.90126 0.89767 0.0
C223 C 0.32326 0.95002 0.91088 0.0
N224 N 0.35374 0.9231 0.9 0.0
C225 C 0.35796 0.95413 0.90819 0.0
C226 C 0.21145 0.93114 0.90097 0.0
O227 O 0.19147 0.87467 0.93613 0.0
O228 O 0.25195 0.90416 0.93247 0.0
O229 O 0.24334 0.93399 0.90186 0.0
O230 O 0.18272 0.90003 0.90413 0.0
O231 O 0.24068 0.87752 0.88257 0.0
H232 H 0.31718 0.96914 0.91804 0.0
H233 H 0.30378 0.8732 0.89238 0.0
O234 O 0.18058 0.84281 0.88613 0.0
O235 O 0.18953 0.8166 0.91831 0.0
O236 O 0.24901 0.84723 0.91308 0.0
C237 C 0.22022 0.81729 0.91752 0.0
H238 H 0.05376 0.75417 0.91287 0.0
H239 H 0.38399 0.97737 0.91274 0.0
Co240 Co 0.6354 0.7427 0.62842 0.0
C241 C 0.66229 0.76821 0.5932 0.0
Co242 Co 0.67135 0.80357 0.62612 0.0
C243 C 0.56945 0.67408 0.63531 0.0
C244 C 0.60927 0.66484 0.62139 0.0
N245 N 0.60481 0.69162 0.62932 0.0
N246 N 0.55104 0.6377 0.63091 0.0
C247 C 0.57617 0.63166 0.62227 0.0
H248 H 0.55641 0.68847 0.64133 0.0
H249 H 0.63403 0.66965 0.61426 0.0
C250 C 0.64611 0.77728 0.66167 0.0
N251 N 0.69966 0.85511 0.62575 0.0
C252 C 0.73323 0.87933 0.61865 0.0
C253 C 0.68816 0.87669 0.63393 0.0
N254 N 0.74257 0.91507 0.62196 0.0
C255 C 0.7142 0.91322 0.63162 0.0
C256 C 0.59671 0.77949 0.62158 0.0
O257 O 0.62964 0.74566 0.65395 0.0
O258 O 0.66553 0.80593 0.652 0.0
O259 O 0.62898 0.80754 0.62192 0.0
O260 O 0.59282 0.74761 0.62406 0.0
O261 O 0.67754 0.80042 0.60046 0.0
H262 H 0.66251 0.86645 0.64143 0.0
H263 H 0.7504 0.87095 0.61129 0.0
O264 O 0.64181 0.73994 0.60293 0.0
O265 O 0.67845 0.73844 0.63243 0.0
O266 O 0.71334 0.79925 0.62983 0.0
C267 C 0.71038 0.76752 0.63178 0.0
H268 H 0.57052 0.60569 0.61606 0.0
H269 H 0.71288 0.93665 0.63721 0.0
Co270 Co 0.13791 0.32625 0.88407 0.0
C271 C 0.14451 0.35595 0.84895 0.0
Co272 Co 0.11198 0.36088 0.88067 0.0
C273 C 0.15033 0.26393 0.8912 0.0
C274 C 0.19795 0.31285 0.88111 0.0
N275 N 0.16211 0.29919 0.88583 0.0
N276 N 0.17774 0.2555 0.89019 0.0
C277 C 0.20762 0.28626 0.88384 0.0
H278 H 0.12235 0.24493 0.89573 0.0
H279 H 0.21589 0.34037 0.87574 0.0
C280 C 0.10332 0.32996 0.91549 0.0
N281 N 0.08995 0.38996 0.87875 0.0
C282 C 0.10766 0.42632 0.87437 0.0
C283 C 0.05642 0.3826 0.88486 0.0
N284 N 0.08727 0.44247 0.87813 0.0
C285 C 0.05476 0.41491 0.88459 0.0
C286 C 0.06546 0.28602 0.873 0.0
O287 O 0.12067 0.31466 0.90877 0.0
O288 O 0.0982 0.35215 0.90567 0.0
O289 O 0.06647 0.31709 0.87436 0.0
O290 O 0.09454 0.28431 0.87614 0.0
O291 O 0.12536 0.36908 0.85571 0.0
H292 H 0.03575 0.35628 0.89052 0.0
H293 H 0.13641 0.44157 0.87017 0.0
O294 O 0.15413 0.33754 0.85916 0.0
O295 O 0.18135 0.36842 0.89226 0.0
O296 O 0.1579 0.40417 0.88712 0.0
C297 C 0.1849 0.40044 0.89223 0.0
H298 H 0.23433 0.28897 0.88084 0.0
H299 H 0.03238 0.41833 0.8899 0.0
Co300 Co 0.23759 0.89262 0.64704 0.0
C301 C 0.21062 0.89979 0.61314 0.0
Co302 Co 0.17807 0.87389 0.64655 0.0
C303 C 0.30197 0.88492 0.64909 0.0
C304 C 0.31492 0.93774 0.63823 0.0
N305 N 0.28716 0.90664 0.6457 0.0
N306 N 0.33754 0.90061 0.64355 0.0
C307 C 0.34594 0.93413 0.6369 0.0
H308 H 0.28631 0.85727 0.65472 0.0
H309 H 0.31205 0.96044 0.63294 0.0
C310 C 0.20671 0.86896 0.68065 0.0
N311 N 0.1286 0.85959 0.64843 0.0
C312 C 0.09961 0.83779 0.63752 0.0
C313 C 0.11352 0.86677 0.66305 0.0
N314 N 0.06717 0.83059 0.64508 0.0
C315 C 0.07577 0.84882 0.66107 0.0
C316 C 0.19058 0.81643 0.63929 0.0
O317 O 0.23755 0.88374 0.67234 0.0
O318 O 0.1776 0.86157 0.67178 0.0
O319 O 0.16528 0.82491 0.63997 0.0
O320 O 0.22403 0.84166 0.64207 0.0
O321 O 0.1795 0.88704 0.62125 0.0
H322 H 0.129 0.88344 0.67464 0.0
H323 H 0.1021 0.82655 0.62463 0.0
O324 O 0.23802 0.90207 0.62186 0.0
O325 O 0.25012 0.94315 0.65189 0.0
O326 O 0.19036 0.92248 0.65305 0.0
C327 C 0.22337 0.9493 0.6542 0.0
H328 H 0.37169 0.95348 0.63029 0.0
H329 H 0.05607 0.84929 0.67054 0.0
Co330 Co 0.68298 0.81898 0.89195 0.0
C331 C 0.65164 0.78967 0.85766 0.0
Co332 Co 0.65003 0.75799 0.89077 0.0
C333 C 0.74263 0.89634 0.89609 0.0
C334 C 0.69092 0.88988 0.88689 0.0
N335 N 0.70735 0.87037 0.892 0.0
N336 N 0.74838 0.93114 0.89395 0.0
C337 C 0.71588 0.92703 0.88817 0.0
H338 H 0.76366 0.88991 0.90036 0.0
H339 H 0.66266 0.87788 0.88208 0.0
C340 C 0.68363 0.78626 0.92455 0.0
N341 N 0.62312 0.70676 0.89039 0.0
C342 C 0.58752 0.68664 0.88497 0.0
C343 C 0.63116 0.6819 0.89767 0.0
N344 N 0.57239 0.65033 0.88901 0.0
C345 C 0.59989 0.64711 0.89692 0.0
C346 C 0.72512 0.7879 0.88291 0.0
O347 O 0.69654 0.81784 0.91689 0.0
O348 O 0.66101 0.75718 0.91579 0.0
O349 O 0.69449 0.75767 0.8849 0.0
O350 O 0.72602 0.81879 0.88451 0.0
O351 O 0.63989 0.75877 0.86566 0.0
H352 H 0.65726 0.68893 0.90408 0.0
H353 H 0.57213 0.69898 0.87943 0.0
O354 O 0.67003 0.81949 0.8668 0.0
O355 O 0.64 0.81902 0.89974 0.0
O356 O 0.60559 0.75899 0.89686 0.0
C357 C 0.60849 0.79009 0.90062 0.0
H358 H 0.71097 0.94934 0.88437 0.0
H359 H 0.5972 0.62184 0.90252 0.0
H360 H 0.96073 0.18034 0.10169 0.0
H361 H 0.01704 0.17606 0.10116 0.0
H362 H 0.06295 0.25661 0.14474 0.0
H363 H 0.00729 0.26291 0.14431 0.0
H364 H 0.11605 0.26731 0.12279 0.0
H365 H 0.01783 0.15836 0.15167 0.0
H366 H 0.95527 0.10315 0.15371 0.0
H367 H 0.97766 0.05621 0.10662 0.0
H368 H 0.04006 0.11118 0.10417 0.0
H369 H 0.224 0.19893 0.16597 0.0
H370 H 0.18108 0.21988 0.15647 0.0
H371 H 0.16252 0.16076 0.10569 0.0
H372 H 0.2063 0.14042 0.11511 0.0
H373 H 0.09794 0.14029 0.12804 0.0
H374 H 0.20095 0.24824 0.10258 0.0
H375 H 0.26389 0.30299 0.10264 0.0
H376 H 0.23333 0.35147 0.14618 0.0
H377 H 0.17037 0.29669 0.14662 0.0
C378 C 0.98291 0.19716 0.11114 0.0
C379 C 0.97959 0.22138 0.12332 0.0
C380 C 0.01505 0.19467 0.11085 0.0
C381 C 0.04382 0.21513 0.1233 0.0
C382 C 0.04101 0.24033 0.1351 0.0
C383 C 0.00922 0.24375 0.13496 0.0
C384 C 0.07588 0.20886 0.12451 0.0
C385 C 0.11208 0.23956 0.1241 0.0
C386 C 0.07078 0.17258 0.12589 0.0
C387 C 0.0335 0.13903 0.12765 0.0
C388 C 0.00933 0.13628 0.14172 0.0
C389 C 0.97387 0.10501 0.14294 0.0
C390 C 0.96241 0.07616 0.13027 0.0
C391 C 0.98647 0.07848 0.11642 0.0
C392 C 0.02191 0.10967 0.11512 0.0
C393 C 0.21145 0.19133 0.15259 0.0
C394 C 0.21815 0.16811 0.14124 0.0
C395 C 0.18714 0.20335 0.14716 0.0
C396 C 0.16876 0.19186 0.13039 0.0
C397 C 0.1767 0.17004 0.11864 0.0
C398 C 0.20168 0.15861 0.12395 0.0
C399 C 0.1379 0.19866 0.12641 0.0
C400 C 0.10186 0.16798 0.12647 0.0
C401 C 0.14323 0.23492 0.12509 0.0
C402 C 0.18096 0.26817 0.12472 0.0
C403 C 0.20771 0.27042 0.11228 0.0
C404 C 0.24339 0.3015 0.1122 0.0
C405 C 0.25262 0.33066 0.12442 0.0
C406 C 0.22615 0.32885 0.13672 0.0
C407 C 0.19044 0.2978 0.13687 0.0
H408 H 0.28027 0.35468 0.12435 0.0
H409 H 0.93493 0.052 0.1312 0.0
H410 H 0.18017 0.90776 0.37976 0.0
H411 H 0.11261 0.86894 0.37688 0.0
H412 H 0.10217 0.96716 0.37902 0.0
H413 H 0.16933 0.00556 0.38255 0.0
H414 H 0.05282 0.91857 0.39967 0.0
H415 H 0.08866 0.91582 0.33869 0.0
H416 H 0.12348 0.90834 0.31346 0.0
H417 H 0.07963 0.79372 0.32759 0.0
H418 H 0.04494 0.80063 0.35307 0.0
H419 H 0.85647 0.79669 0.37909 0.0
H420 H 0.92095 0.8474 0.37534 0.0
H421 H 0.96002 0.77086 0.38616 0.0
H422 H 0.89666 0.72083 0.39018 0.0
H423 H 0.99185 0.81597 0.35478 0.0
H424 H 0.96451 0.82531 0.41891 0.0
H425 H 0.92836 0.8341 0.44305 0.0
H426 H 0.95488 0.93957 0.42028 0.0
H427 H 0.99085 0.93115 0.39588 0.0
C428 C 0.16331 0.92086 0.37947 0.0
C429 C 0.17974 0.95944 0.38152 0.0
C430 C 0.1248 0.89882 0.37773 0.0
C431 C 0.10224 0.91517 0.37751 0.0
C432 C 0.11887 0.95386 0.37922 0.0
C433 C 0.15721 0.97575 0.38127 0.0
C434 C 0.06123 0.89178 0.37638 0.0
C435 C 0.03952 0.89668 0.38957 0.0
C436 C 0.04363 0.8632 0.36323 0.0
C437 C 0.06438 0.85883 0.34788 0.0
C438 C 0.08663 0.88908 0.3365 0.0
C439 C 0.10632 0.88493 0.32214 0.0
C440 C 0.10382 0.85059 0.31895 0.0
C441 C 0.08155 0.82031 0.33009 0.0
C442 C 0.06183 0.82431 0.34448 0.0
C443 C 0.87887 0.79088 0.38077 0.0
C444 C 0.87143 0.75483 0.385 0.0
C445 C 0.91557 0.81973 0.37856 0.0
C446 C 0.94506 0.81264 0.38037 0.0
C447 C 0.93759 0.77676 0.38457 0.0
C448 C 0.90127 0.74824 0.38698 0.0
C449 C 0.98412 0.84226 0.37832 0.0
C450 C 0.00535 0.8385 0.36454 0.0
C451 C 0.00118 0.8722 0.39071 0.0
C452 C 0.98001 0.87744 0.4055 0.0
C453 C 0.96241 0.85025 0.419 0.0
C454 C 0.942 0.85518 0.43273 0.0
C455 C 0.93924 0.88732 0.43317 0.0
C456 C 0.95698 0.91466 0.41991 0.0
C457 C 0.97741 0.90984 0.40614 0.0
H458 H 0.92345 0.89107 0.44383 0.0
H459 H 0.11909 0.84744 0.30782 0.0
H460 H 0.86974 0.06453 0.12612 0.0
H461 H 0.85946 0.00129 0.12923 0.0
H462 H 0.7585 0.95871 0.09792 0.0
H463 H 0.76854 0.0216 0.09506 0.0
H464 H 0.74467 0.92076 0.12783 0.0
H465 H 0.83581 0.95874 0.08131 0.0
H466 H 0.89529 0.99671 0.06545 0.0
H467 H 0.95321 0.97941 0.10921 0.0
H468 H 0.89414 0.9419 0.12551 0.0
H469 H 0.71894 0.73539 0.11824 0.0
H470 H 0.72363 0.79649 0.11543 0.0
H471 H 0.82182 0.84519 0.14898 0.0
H472 H 0.81712 0.78466 0.15202 0.0
H473 H 0.83519 0.87863 0.11646 0.0
H474 H 0.74082 0.84072 0.16302 0.0
H475 H 0.67953 0.79928 0.17662 0.0
H476 H 0.626 0.81363 0.12996 0.0
H477 H 0.687 0.85482 0.11599 0.0
C478 C 0.84593 0.04173 0.11953 0.0
C479 C 0.81975 0.04781 0.11048 0.0
C480 C 0.83997 0.0056 0.12134 0.0
C481 C 0.80802 0.97514 0.1139 0.0
C482 C 0.78308 0.98163 0.10396 0.0
C483 C 0.78889 0.01755 0.10228 0.0
C484 C 0.79908 0.93636 0.1175 0.0
C485 C 0.76435 0.91145 0.12512 0.0
C486 C 0.82479 0.92422 0.11419 0.0
C487 C 0.86054 0.94779 0.10472 0.0
C488 C 0.86127 0.96341 0.08766 0.0
C489 C 0.89491 0.98475 0.07857 0.0
C490 C 0.92799 0.99042 0.08631 0.0
C491 C 0.92754 0.97493 0.10321 0.0
C492 C 0.894 0.95367 0.1124 0.0
C493 C 0.74065 0.7589 0.12555 0.0
C494 C 0.76785 0.75541 0.13521 0.0
C495 C 0.74351 0.79382 0.12381 0.0
C496 C 0.77353 0.82548 0.13168 0.0
C497 C 0.79877 0.82126 0.14257 0.0
C498 C 0.79592 0.7866 0.14436 0.0
C499 C 0.78122 0.86344 0.12713 0.0
C500 C 0.81565 0.88809 0.11922 0.0
C501 C 0.75508 0.87516 0.12996 0.0
C502 C 0.71845 0.85059 0.1384 0.0
C503 C 0.71597 0.83482 0.15561 0.0
C504 C 0.68129 0.81143 0.16339 0.0
C505 C 0.64889 0.80376 0.15414 0.0
C506 C 0.65112 0.81957 0.1371 0.0
C507 C 0.68573 0.84297 0.12926 0.0
H508 H 0.62207 0.78564 0.16019 0.0
H509 H 0.95399 0.00686 0.07921 0.0
H510 H 0.27902 0.19087 0.40778 0.0
H511 H 0.23509 0.21119 0.40075 0.0
H512 H 0.15081 0.09791 0.3893 0.0
H513 H 0.19568 0.07734 0.39561 0.0
H514 H 0.14895 0.14119 0.36436 0.0
H515 H 0.15027 0.14538 0.42907 0.0
H516 H 0.17763 0.16094 0.45981 0.0
H517 H 0.22793 0.27727 0.44784 0.0
H518 H 0.20128 0.26242 0.41692 0.0
H519 H 0.00087 0.18045 0.3683 0.0
H520 H 0.04434 0.15818 0.3736 0.0
H521 H 0.13507 0.27131 0.37501 0.0
H522 H 0.09117 0.2938 0.36967 0.0
H523 H 0.13211 0.22704 0.40512 0.0
H524 H 0.12768 0.21957 0.33967 0.0
H525 H 0.09619 0.20084 0.30991 0.0
H526 H 0.04619 0.08597 0.32494 0.0
H527 H 0.07696 0.10403 0.3549 0.0
C528 C 0.25104 0.17005 0.40397 0.0
C529 C 0.24077 0.13237 0.40238 0.0
C530 C 0.22583 0.18178 0.40002 0.0
C531 C 0.18936 0.15607 0.39482 0.0
C532 C 0.17878 0.11828 0.39336 0.0
C533 C 0.20432 0.1065 0.39706 0.0
C534 C 0.16305 0.16925 0.39032 0.0
C535 C 0.14483 0.15947 0.37342 0.0
C536 C 0.1581 0.19369 0.40197 0.0
C537 C 0.174 0.20277 0.42061 0.0
C538 C 0.16736 0.17428 0.43294 0.0
C539 C 0.18272 0.18298 0.45041 0.0
C540 C 0.20456 0.22007 0.45576 0.0
C541 C 0.21102 0.24855 0.44367 0.0
C542 C 0.19576 0.24001 0.42618 0.0
C543 C 0.03013 0.20056 0.36963 0.0
C544 C 0.04277 0.23885 0.36873 0.0
C545 C 0.05492 0.1878 0.37254 0.0
C546 C 0.09288 0.21308 0.37465 0.0
C547 C 0.10581 0.25139 0.37337 0.0
C548 C 0.08092 0.2642 0.37023 0.0
C549 C 0.1185 0.19924 0.37916 0.0
C550 C 0.13639 0.2088 0.39609 0.0
C551 C 0.12256 0.1741 0.3677 0.0
C552 C 0.1044 0.16318 0.34959 0.0
C553 C 0.10976 0.19032 0.33668 0.0
C554 C 0.09207 0.17983 0.31977 0.0
C555 C 0.06914 0.14225 0.31555 0.0
C556 C 0.06394 0.11507 0.32823 0.0
C557 C 0.08154 0.12542 0.34517 0.0
H558 H 0.05545 0.13418 0.30245 0.0
H559 H 0.21644 0.22674 0.46929 0.0
H560 H 0.22032 0.01226 0.16925 0.0
H561 H 0.16429 0.95304 0.16325 0.0
H562 H 0.22566 0.92166 0.12702 0.0
H563 H 0.28236 0.98091 0.13339 0.0
H564 H 0.13312 0.93595 0.13079 0.0
H565 H 0.17415 0.82343 0.12322 0.0
H566 H 0.22026 0.80809 0.13516 0.0
H567 H 0.22843 0.86695 0.18465 0.0
H568 H 0.18205 0.8822 0.17309 0.0
H569 H 0.9685 0.78358 0.10153 0.0
H570 H 0.03664 0.82074 0.10012 0.0
H571 H 0.04317 0.7926 0.15593 0.0
H572 H 0.97556 0.75552 0.15717 0.0
H573 H 0.10541 0.80572 0.13704 0.0
H574 H 0.02986 0.86378 0.14721 0.0
H575 H 0.98165 0.87891 0.13865 0.0
H576 H 0.04111 0.93062 0.08963 0.0
H577 H 0.08939 0.91523 0.0978 0.0
C578 C 0.22214 0.99228 0.16044 0.0
C579 C 0.25562 0.00116 0.15176 0.0
C580 C 0.19006 0.95856 0.1569 0.0
C581 C 0.19063 0.93311 0.14449 0.0
C582 C 0.22458 0.94078 0.13671 0.0
C583 C 0.25698 0.97454 0.14043 0.0
C584 C 0.15494 0.90063 0.13861 0.0
C585 C 0.12731 0.90751 0.132 0.0
C586 C 0.1473 0.86351 0.14001 0.0
C587 C 0.17502 0.85435 0.14718 0.0
C588 C 0.18576 0.83304 0.13665 0.0
C589 C 0.21193 0.82436 0.14336 0.0
C590 C 0.22738 0.83667 0.16062 0.0
C591 C 0.21658 0.85758 0.17124 0.0
C592 C 0.19041 0.86631 0.16461 0.0
C593 C 0.98475 0.78409 0.11314 0.0
C594 C 0.96717 0.76732 0.12953 0.0
C595 C 0.02355 0.80535 0.11239 0.0
C596 C 0.04493 0.80999 0.12805 0.0
C597 C 0.02734 0.78951 0.1437 0.0
C598 C 0.98875 0.76852 0.14445 0.0
C599 C 0.08364 0.84123 0.12963 0.0
C600 C 0.11176 0.83423 0.13537 0.0
C601 C 0.09172 0.87843 0.12783 0.0
C602 C 0.06292 0.88795 0.12299 0.0
C603 C 0.03249 0.87816 0.13455 0.0
C604 C 0.00518 0.88679 0.12978 0.0
C605 C 0.00826 0.90563 0.11358 0.0
C606 C 0.03871 0.91594 0.10214 0.0
C607 C 0.06604 0.90725 0.10683 0.0
H608 H 0.98711 0.91232 0.10991 0.0
H609 H 0.24764 0.82993 0.16578 0.0
H610 H 0.81035 0.81462 0.38009 0.0
H611 H 0.84165 0.88187 0.37898 0.0
H612 H 0.73993 0.87613 0.36152 0.0
H613 H 0.70834 0.80785 0.36229 0.0
H614 H 0.79705 0.92644 0.3423 0.0
H615 H 0.7724 0.90322 0.40687 0.0
H616 H 0.77291 0.87787 0.43708 0.0
H617 H 0.89127 0.92711 0.43431 0.0
H618 H 0.89157 0.95344 0.40421 0.0
H619 H 0.81059 0.09028 0.37406 0.0
H620 H 0.79832 0.02727 0.36928 0.0
H621 H 0.9154 0.06537 0.373 0.0
H622 H 0.92825 0.1296 0.37746 0.0
H623 H 0.863 0.00197 0.39663 0.0
H624 H 0.88515 0.03865 0.33472 0.0
H625 H 0.88063 0.06937 0.30701 0.0
H626 H 0.76267 0.996 0.30575 0.0
H627 H 0.76636 0.96519 0.33364 0.0
C628 C 0.79438 0.82752 0.37627 0.0
C629 C 0.75665 0.80594 0.37157 0.0
C630 C 0.81241 0.86608 0.3756 0.0
C631 C 0.793 0.88406 0.3705 0.0
C632 C 0.75538 0.86272 0.36557 0.0
C633 C 0.73734 0.82387 0.36604 0.0
C634 C 0.81223 0.92512 0.37021 0.0
C635 C 0.81129 0.94295 0.3542 0.0
C636 C 0.83204 0.94673 0.38552 0.0
C637 C 0.83193 0.92981 0.40323 0.0
C638 C 0.79847 0.90827 0.41263 0.0
C639 C 0.79864 0.8938 0.42974 0.0
C640 C 0.83202 0.90031 0.43749 0.0
C641 C 0.86541 0.92175 0.42822 0.0
C642 C 0.86546 0.93666 0.41119 0.0
C643 C 0.83385 0.08542 0.37382 0.0
C644 C 0.87038 0.1147 0.37627 0.0
C645 C 0.82678 0.04946 0.37094 0.0
C646 C 0.85599 0.04196 0.37062 0.0
C647 C 0.89262 0.07096 0.37307 0.0
C648 C 0.89987 0.1074 0.37563 0.0
C649 C 0.84691 0.00304 0.36894 0.0
C650 C 0.84965 0.98549 0.38457 0.0
C651 C 0.82842 0.98177 0.35337 0.0
C652 C 0.82604 -0.00032 0.33635 0.0
C653 C 0.8582 0.02919 0.32861 0.0
C654 C 0.85579 0.04662 0.31286 0.0
C655 C 0.82138 0.03469 0.30464 0.0
C656 C 0.78931 0.00521 0.31213 0.0
C657 C 0.79156 0.98769 0.3279 0.0
H658 H 0.81957 0.04827 0.29246 0.0
H659 H 0.83204 0.88899 0.45073 0.0
H660 H 0.27941 0.01399 0.63984 0.0
H661 H 0.27872 0.07238 0.63621 0.0
H662 H 0.17856 0.02762 0.66818 0.0
H663 H 0.17882 0.96942 0.67154 0.0
H664 H 0.16957 0.05047 0.63565 0.0
H665 H 0.26102 0.10007 0.68358 0.0
H666 H 0.32024 0.11584 0.69843 0.0
H667 H 0.38043 0.18526 0.65327 0.0
H668 H 0.32153 0.1695 0.63802 0.0
H669 H 0.14074 0.2032 0.63932 0.0
H670 H 0.15426 0.15481 0.64859 0.0
H671 H 0.25402 0.20566 0.61625 0.0
H672 H 0.24133 0.25481 0.60738 0.0
H673 H 0.26583 0.18116 0.64816 0.0
H674 H 0.17666 0.13081 0.59979 0.0
H675 H 0.11847 0.11459 0.58371 0.0
H676 H 0.05524 0.04584 0.62847 0.0
H677 H 0.1131 0.06198 0.6449 0.0
C678 C 0.25804 0.0172 0.6466 0.0
C679 C 0.22911 0.98722 0.65592 0.0
C680 C 0.25755 0.05048 0.64446 0.0
C681 C 0.2284 0.05427 0.65182 0.0
C682 C 0.20113 0.02524 0.66226 0.0
C683 C 0.20143 0.99206 0.66425 0.0
C684 C 0.22369 0.08641 0.64714 0.0
C685 C 0.19042 0.07901 0.63868 0.0
C686 C 0.25144 0.12372 0.6504 0.0
C687 C 0.28685 0.13331 0.65958 0.0
C688 C 0.28688 0.11845 0.67674 0.0
C689 C 0.32039 0.12744 0.68524 0.0
C690 C 0.35407 0.15146 0.67677 0.0
C691 C 0.35432 0.16662 0.6598 0.0
C692 C 0.32088 0.1577 0.65123 0.0
C693 C 0.16585 0.20447 0.63439 0.0
C694 C 0.18973 0.23276 0.62244 0.0
C695 C 0.17341 0.17659 0.63959 0.0
C696 C 0.20488 0.17629 0.63289 0.0
C697 C 0.22949 0.20521 0.62151 0.0
C698 C 0.22196 0.2331 0.61631 0.0
C699 C 0.21131 0.14502 0.63716 0.0
C700 C 0.24494 0.15258 0.64529 0.0
C701 C 0.18403 0.10772 0.63349 0.0
C702 C 0.14919 0.09792 0.62365 0.0
C703 C 0.15034 0.11246 0.60626 0.0
C704 C 0.11743 0.10323 0.59707 0.0
C705 C 0.08318 0.07929 0.60509 0.0
C706 C 0.08179 0.06442 0.62229 0.0
C707 C 0.11463 0.07357 0.63154 0.0
H708 H 0.05773 0.07219 0.59796 0.0
H709 H 0.37999 0.15838 0.68338 0.0
H710 H 0.06446 0.86574 0.89857 0.0
H711 H 0.00528 0.86301 0.8928 0.0
H712 H 0.94815 0.76059 0.92299 0.0
H713 H 0.00724 0.76311 0.92865 0.0
H714 H 0.91736 0.75393 0.89032 0.0
H715 H 0.95775 0.84309 0.93975 0.0
H716 H 0.00171 0.90128 0.95547 0.0
H717 H 0.99851 0.96477 0.91025 0.0
H718 H 0.95481 0.90695 0.8942 0.0
H719 H 0.7384 0.73386 0.89487 0.0
H720 H 0.79875 0.73909 0.89944 0.0
H721 H 0.85194 0.84682 0.87373 0.0
H722 H 0.79148 0.84235 0.86989 0.0
H723 H 0.88584 0.85196 0.90346 0.0
H724 H 0.84677 0.76574 0.85369 0.0
H725 H 0.8045 0.70889 0.83658 0.0
H726 H 0.80741 0.64174 0.88011 0.0
H727 H 0.84933 0.69821 0.89758 0.0
C728 C 0.03939 0.84314 0.90434 0.0
C729 C 0.04037 0.81451 0.91399 0.0
C730 C 0.00558 0.84156 0.901 0.0
C731 C 0.97231 0.81159 0.90749 0.0
C732 C 0.97348 0.78383 0.91777 0.0
C733 C 0.00718 0.78528 0.92099 0.0
C734 C 0.93604 0.80764 0.90251 0.0
C735 C 0.91023 0.77516 0.89339 0.0
C736 C 0.92736 0.83592 0.90594 0.0
C737 C 0.95326 0.87068 0.91572 0.0
C738 C 0.96659 0.86946 0.93312 0.0
C739 C 0.99142 0.90238 0.9421 0.0
C740 C 0.00297 0.9367 0.93385 0.0
C741 C 0.98957 0.93818 0.91663 0.0
C742 C 0.96472 0.90535 0.90761 0.0
C743 C 0.76286 0.75822 0.88975 0.0
C744 C 0.7603 0.78764 0.88195 0.0
C745 C 0.79745 0.76124 0.8924 0.0
C746 C 0.83002 0.79331 0.88686 0.0
C747 C 0.82725 0.8219 0.87821 0.0
C748 C 0.79271 0.8192 0.87587 0.0
C749 C 0.86699 0.79815 0.89123 0.0
C750 C 0.89293 0.83077 0.90028 0.0
C751 C 0.87604 0.77021 0.8875 0.0
C752 C 0.85099 0.7362 0.87698 0.0
C753 C 0.83822 0.73885 0.85965 0.0
C754 C 0.81434 0.70669 0.84989 0.0
C755 C 0.80323 0.67173 0.85727 0.0
C756 C 0.81603 0.66884 0.87441 0.0
C757 C 0.83989 0.70091 0.88424 0.0
H758 H 0.78473 0.64687 0.84969 0.0
H759 H 0.02223 0.96216 0.94081 0.0
H760 H 0.81202 0.92469 0.61861 0.0
H761 H 0.87012 0.9846 0.61756 0.0
H762 H 0.80744 0.04163 0.616 0.0
H763 H 0.75 0.98233 0.61587 0.0
H764 H 0.86757 0.07977 0.59753 0.0
H765 H 0.83878 0.01984 0.65741 0.0
H766 H 0.82683 0.96805 0.67788 0.0
H767 H 0.93327 0.98128 0.66462 0.0
H768 H 0.94565 0.03291 0.64393 0.0
H769 H 0.98527 0.2535 0.63601 0.0
H770 H 0.93261 0.18978 0.63498 0.0
H771 H 0.00822 0.14722 0.63406 0.0
H772 H 0.06057 0.21022 0.63574 0.0
H773 H 0.94637 0.10067 0.65192 0.0
H774 H 0.97888 0.16804 0.59571 0.0
H775 H 0.9914 0.2224 0.57721 0.0
H776 H 0.87802 0.1955 0.58306 0.0
H777 H 0.86512 0.14175 0.60222 0.0
C778 C 0.81077 0.95 0.61748 0.0
C779 C 0.77647 0.94888 0.61784 0.0
C780 C 0.84394 0.98424 0.61708 0.0
C781 C 0.84317 0.01773 0.61733 0.0
C782 C 0.80891 0.01633 0.61604 0.0
C783 C 0.77599 0.98233 0.61618 0.0
C784 C 0.87709 0.05418 0.62081 0.0
C785 C 0.88472 0.08433 0.60944 0.0
C786 C 0.89997 0.06017 0.63619 0.0
C787 C 0.893 0.02997 0.64905 0.0
C788 C 0.85959 0.01165 0.65887 0.0
C789 C 0.85274 0.98232 0.67048 0.0
C790 C 0.87925 0.97135 0.67252 0.0
C791 C 0.91277 0.98982 0.66303 0.0
C792 C 0.91972 0.01911 0.65136 0.0
C793 C 0.99058 0.23051 0.63614 0.0
C794 C 0.02703 0.2369 0.63556 0.0
C795 C 0.96053 0.19415 0.63547 0.0
C796 C 0.96661 0.16386 0.63391 0.0
C797 C 0.00288 0.17013 0.63506 0.0
C798 C 0.0328 0.20629 0.63591 0.0
C799 C 0.936 0.1263 0.62898 0.0
C800 C 0.92933 0.09604 0.63995 0.0
C801 C 0.91405 0.12025 0.61322 0.0
C802 C 0.92113 0.15105 0.60063 0.0
C803 C 0.95666 0.17387 0.5932 0.0
C804 C 0.96391 0.20476 0.5827 0.0
C805 C 0.9356 0.21261 0.57911 0.0
C806 C 0.89996 0.18948 0.58594 0.0
C807 C 0.89269 0.15884 0.59667 0.0
H808 H 0.94115 0.23636 0.57088 0.0
H809 H 0.87383 0.94854 0.68147 0.0
H810 H 0.11926 0.18608 0.88483 0.0
H811 H 0.12049 0.12767 0.88673 0.0
H812 H 0.23397 0.18843 0.90536 0.0
H813 H 0.23276 0.24637 0.90355 0.0
H814 H 0.22564 0.14479 0.87617 0.0
H815 H 0.16386 0.13326 0.93359 0.0
H816 H 0.11421 0.12914 0.95346 0.0
H817 H 0.03386 0.03198 0.9246 0.0
H818 H 0.08295 0.03585 0.90434 0.0
H819 H 0.26443 0.00469 0.90337 0.0
H820 H 0.25499 0.05805 0.90082 0.0
H821 H 0.13947 0.98446 0.88801 0.0
H822 H 0.14845 0.93108 0.8911 0.0
H823 H 0.14445 0.03214 0.91217 0.0
H824 H 0.20357 0.04109 0.85534 0.0
H825 H 0.25137 0.04383 0.83453 0.0
H826 H 0.33384 0.14403 0.86055 0.0
H827 H 0.28662 0.14162 0.88169 0.0
C828 C 0.14409 0.18672 0.88971 0.0
C829 C 0.17607 0.22073 0.89383 0.0
C830 C 0.14484 0.15344 0.89074 0.0
C831 C 0.17746 0.15383 0.89605 0.0
C832 C 0.20867 0.18757 0.90104 0.0
C833 C 0.20796 0.22063 0.89998 0.0
C834 C 0.18042 0.1198 0.89527 0.0
C835 C 0.20813 0.12026 0.88419 0.0
C836 C 0.1566 0.08735 0.90517 0.0
C837 C 0.12704 0.08517 0.91728 0.0
C838 C 0.13555 0.11127 0.93134 0.0
C839 C 0.10751 0.10892 0.9427 0.0
C840 C 0.07088 0.0804 0.94025 0.0
C841 C 0.06223 0.05411 0.92645 0.0
C842 C 0.09015 0.05637 0.91502 0.0
C843 C 0.23717 -2e-05 0.89976 0.0
C844 C 0.20721 0.96375 0.89744 0.0
C845 C 0.23179 0.03047 0.89827 0.0
C846 C 0.19654 0.02529 0.89408 0.0
C847 C 0.16685 0.98915 0.89131 0.0
C848 C 0.1721 0.95868 0.89301 0.0
C849 C 0.19025 0.0574 0.89335 0.0
C850 C 0.16183 0.05655 0.90405 0.0
C851 C 0.2131 0.08939 0.88292 0.0
C852 C 0.2416 0.09098 0.8702 0.0
C853 C 0.23195 0.06356 0.85671 0.0
C854 C 0.25893 0.06508 0.84484 0.0
C855 C 0.29563 0.09404 0.84624 0.0
C856 C 0.3054 0.12159 0.85949 0.0
C857 C 0.27854 0.12019 0.87141 0.0
H858 H 0.31648 0.09517 0.83704 0.0
H859 H 0.04922 0.07861 0.94907 0.0
H860 H 0.00741 0.77809 0.66244 0.0
H861 H 0.94282 0.75378 0.65326 0.0
H862 H 0.97974 0.81304 0.60248 0.0
H863 H 0.04462 0.83692 0.61167 0.0
H864 H 0.93967 0.83474 0.6255 0.0
H865 H 0.92682 0.72294 0.60025 0.0
H866 H 0.93225 0.66656 0.59985 0.0
H867 H 0.85914 0.6236 0.64578 0.0
H868 H 0.8537 0.67999 0.64665 0.0
H869 H 0.7627 0.80109 0.60635 0.0
H870 H 0.82018 0.79971 0.60279 0.0
H871 H 0.79124 0.72653 0.64903 0.0
H872 H 0.73207 0.72618 0.65193 0.0
H873 H 0.82727 0.70948 0.62429 0.0
H874 H 0.84788 0.82144 0.65374 0.0
H875 H 0.84409 0.87848 0.65745 0.0
H876 H 0.90478 0.92186 0.60779 0.0
H877 H 0.90859 0.86489 0.60367 0.0
C878 C 0.00152 0.78469 0.64906 0.0
C879 C 0.03054 0.80942 0.63776 0.0
C880 C 0.96477 0.7707 0.64378 0.0
C881 C 0.95663 0.78167 0.62721 0.0
C882 C 0.9856 0.80412 0.61527 0.0
C883 C 0.02248 0.81763 0.62046 0.0
C884 C 0.91902 0.77582 0.62427 0.0
C885 C 0.9151 0.80738 0.62471 0.0
C886 C 0.88713 0.74003 0.62415 0.0
C887 C 0.89004 0.70587 0.62358 0.0
C888 C 0.91211 0.70162 0.61036 0.0
C889 C 0.91515 0.66961 0.61003 0.0
C890 C 0.89611 0.64154 0.6228 0.0
C891 C 0.87389 0.64537 0.6359 0.0
C892 C 0.87077 0.67733 0.63629 0.0
C893 C 0.76859 0.7846 0.61571 0.0
C894 C 0.74377 0.76454 0.62974 0.0
C895 C 0.80132 0.78375 0.61364 0.0
C896 C 0.81047 0.76393 0.62597 0.0
C897 C 0.78477 0.74225 0.63946 0.0
C898 C 0.75127 0.74226 0.64122 0.0
C899 C 0.84804 0.76846 0.62555 0.0
C900 C 0.8519 0.73681 0.62468 0.0
C901 C 0.88012 0.80423 0.62577 0.0
C902 C 0.87818 0.83872 0.6283 0.0
C903 C 0.86022 0.84305 0.64355 0.0
C904 C 0.85809 0.87537 0.64573 0.0
C905 C 0.87408 0.9037 0.63283 0.0
C906 C 0.89236 0.89985 0.61775 0.0
C907 C 0.89455 0.86757 0.61549 0.0
H908 H 0.87236 0.92867 0.63453 0.0
H909 H 0.89852 0.6168 0.62254 0.0
H910 H 0.05675 0.21953 0.86238 0.0
H911 H 0.00023 0.15928 0.86402 0.0
H912 H 0.93813 0.21284 0.87921 0.0
H913 H 0.99497 0.27358 0.87774 0.0
H914 H 0.93083 0.16114 0.90346 0.0
H915 H 0.92065 0.16641 0.83917 0.0
H916 H 0.94197 0.17565 0.80732 0.0
H917 H 0.9642 0.08565 0.81185 0.0
H918 H 0.94351 0.0762 0.84382 0.0
H919 H 0.75616 0.99661 0.90456 0.0
H920 H 0.81113 0.0576 0.90083 0.0
H921 H 0.87302 0.00579 0.88243 0.0
H922 H 0.81735 0.94441 0.88565 0.0
H923 H 0.87923 0.05722 0.85906 0.0
H924 H 0.89312 0.05298 0.92316 0.0
H925 H 0.87702 0.04578 0.95575 0.0
H926 H 0.85253 0.1344 0.95249 0.0
H927 H 0.86795 0.14178 0.91981 0.0
C928 C 0.03089 0.2186 0.86561 0.0
C929 C 0.03024 0.25119 0.87006 0.0
C930 C -0.00143 0.18413 0.86645 0.0
C931 C 0.96503 0.18164 0.8717 0.0
C932 C 0.96382 0.21429 0.87509 0.0
C933 C 0.99621 0.24892 0.87415 0.0
C934 C 0.93271 0.14489 0.87587 0.0
C935 C 0.91905 0.13851 0.89371 0.0
C936 C 0.9184 0.11525 0.86321 0.0
C937 C 0.93079 0.12079 0.84396 0.0
C938 C 0.93036 0.14878 0.83343 0.0
C939 C 0.94228 0.15401 0.81534 0.0
C940 C 0.9545 0.1313 0.80758 0.0
C941 C 0.95475 0.10324 0.81788 0.0
C942 C 0.94288 0.0979 0.83598 0.0
C943 C 0.78166 0.99824 0.89998 0.0
C944 C 0.78249 0.96592 0.8952 0.0
C945 C 0.81313 0.03307 0.89799 0.0
C946 C 0.84617 0.03623 0.89136 0.0
C947 C 0.84771 0.00389 0.88755 0.0
C948 C 0.81609 0.96889 0.88954 0.0
C949 C 0.87771 0.07331 0.88683 0.0
C950 C 0.89107 0.07978 0.86888 0.0
C951 C 0.89212 0.10301 0.89947 0.0
C952 C 0.88121 0.09758 0.91895 0.0
C953 C 0.88376 0.07056 0.92932 0.0
C954 C 0.87489 0.06655 0.94783 0.0
C955 C 0.86362 0.08952 0.95617 0.0
C956 C 0.86113 0.11653 0.946 0.0
C957 C 0.86991 0.12062 0.92748 0.0
H958 H 0.85693 0.08648 0.97052 0.0
H959 H 0.96372 0.13541 0.79357 0.0
H960 H 0.28982 0.09897 0.34583 0.0
H961 H 0.30268 0.10603 0.31334 0.0
H962 H 0.41591 0.1905 0.32417 0.0
H963 H 0.4028 0.18392 0.35715 0.0
H964 H 0.38495 0.20496 0.29272 0.0
H965 H 0.39965 0.10681 0.31678 0.0
H966 H 0.38102 0.05074 0.33526 0.0
H967 H 0.28479 0.98896 0.30166 0.0
H968 H 0.30222 0.04483 0.28328 0.0
H969 H 0.39444 0.10612 0.2021 0.0
H970 H 0.40464 0.11695 0.23497 0.0
H971 H 0.32826 0.15852 0.23635 0.0
H972 H 0.31828 0.14822 0.20368 0.0
H973 H 0.35736 0.08691 0.26239 0.0
H974 H 0.35215 0.22399 0.26865 0.0
H975 H 0.37101 0.28081 0.2508 0.0
H976 H 0.45435 0.26633 0.22371 0.0
H977 H 0.4364 0.20974 0.24159 0.0
C978 C 0.31734 0.11958 0.34133 0.0
C979 C 0.34541 0.1407 0.35402 0.0
C980 C 0.32467 0.1235 0.32274 0.0
C981 C 0.36044 0.14817 0.31632 0.0
C982 C 0.38814 0.17113 0.32885 0.0
C983 C 0.38064 0.16747 0.34764 0.0
C984 C 0.36863 0.14753 0.29666 0.0
C985 C 0.37926 0.1793 0.28607 0.0
C986 C 0.36208 0.11421 0.28804 0.0
C987 C 0.35222 0.08012 0.29867 0.0
C988 C 0.37444 0.08131 0.31337 0.0
C989 C 0.36408 0.04958 0.32384 0.0
C990 C 0.33179 0.01634 0.31962 0.0
C991 C 0.30982 0.01473 0.3049 0.0
C992 C 0.31993 0.04643 0.29444 0.0
C993 C 0.38004 0.11782 0.2094 0.0
C994 C 0.35556 0.12631 0.20022 0.0
C995 C 0.38588 0.12398 0.22819 0.0
C996 C 0.36763 0.13905 0.23815 0.0
C997 C 0.34329 0.14761 0.22896 0.0
C998 C 0.33741 0.14143 0.21025 0.0
C999 C 0.37214 0.14395 0.25827 0.0
C1000 C 0.3638 0.11285 0.26898 0.0
C1001 C 0.38126 0.178 0.26697 0.0
C1002 C 0.39274 0.21245 0.2564 0.0
C1003 C 0.37467 0.23305 0.25898 0.0
C1004 C 0.38517 0.2652 0.24883 0.0
C1005 C 0.41381 0.27713 0.2361 0.0
C1006 C 0.4321 0.257 0.23354 0.0
C1007 C 0.42174 0.22486 0.24366 0.0
H1008 H 0.42185 0.30199 0.22824 0.0
H1009 H 0.3238 0.99182 0.32776 0.0
H1010 H 0.74138 0.66871 0.32638 0.0
H1011 H 0.74502 0.6611 0.29382 0.0
H1012 H 0.82048 0.62006 0.30272 0.0
H1013 H 0.81689 0.62753 0.33586 0.0
H1014 H 0.84189 0.67738 0.27434 0.0
H1015 H 0.73569 0.55938 0.29159 0.0
H1016 H 0.6755 0.52046 0.30678 0.0
H1017 H 0.62648 0.57105 0.27484 0.0
H1018 H 0.6864 0.61066 0.25969 0.0
H1019 H 0.83442 0.64725 0.17873 0.0
H1020 H 0.83489 0.63862 0.21164 0.0
H1021 H 0.73274 0.64117 0.2165 0.0
H1022 H 0.73084 0.64667 0.18349 0.0
H1023 H 0.72832 0.59548 0.23884 0.0
H1024 H 0.82752 0.71913 0.22615 0.0
H1025 H 0.8852 0.76646 0.21145 0.0
H1026 H 0.94468 0.71707 0.23492 0.0
H1027 H 0.8872 0.66913 0.24958 0.0
C1028 C 0.75879 0.65796 0.32156 0.0
C1029 C 0.77887 0.6487 0.33382 0.0
C1030 C 0.76071 0.65353 0.30286 0.0
C1031 C 0.78275 0.63974 0.29582 0.0
C1032 C 0.80318 0.63065 0.3079 0.0
C1033 C 0.80101 0.63478 0.3268 0.0
C1034 C 0.78422 0.63549 0.27578 0.0
C1035 C 0.81732 0.65888 0.26653 0.0
C1036 C 0.75179 0.61245 0.2656 0.0
C1037 C 0.71561 0.58807 0.27454 0.0
C1038 C 0.71212 0.56233 0.28788 0.0
C1039 C 0.67804 0.54014 0.29647 0.0
C1040 C 0.64723 0.54333 0.29177 0.0
C1041 C 0.65037 0.56862 0.27845 0.0
C1042 C 0.68436 0.59088 0.26984 0.0
C1043 C 0.81191 0.64555 0.18687 0.0
C1044 C 0.78261 0.64768 0.17861 0.0
C1045 C 0.81236 0.64099 0.20573 0.0
C1046 C 0.78436 0.64017 0.21683 0.0
C1047 C 0.75474 0.64164 0.20841 0.0
C1048 C 0.75364 0.64488 0.18951 0.0
C1049 C 0.78582 0.63827 0.23714 0.0
C1050 C 0.75321 0.61365 0.2465 0.0
C1051 C 0.81836 0.66132 0.24741 0.0
C1052 C 0.853 0.69031 0.23877 0.0
C1053 C 0.85287 0.71825 0.22809 0.0
C1054 C 0.88552 0.74519 0.21977 0.0
C1055 C 0.91856 0.7447 0.2222 0.0
C1056 C 0.91905 0.71736 0.23302 0.0
C1057 C 0.88645 0.69031 0.24134 0.0
H1058 H 0.9438 0.76556 0.21575 0.0
H1059 H 0.62088 0.52624 0.29839 0.0
H1060 H 0.8203 0.15992 0.17159 0.0
H1061 H 0.81094 0.15292 0.20469 0.0
H1062 H 0.90436 0.26298 0.21265 0.0
H1063 H 0.91334 0.27056 0.17969 0.0
H1064 H 0.90369 0.20285 0.23429 0.0
H1065 H 0.82586 0.25489 0.21787 0.0
H1066 H 0.77482 0.25502 0.20093 0.0
H1067 H 0.69727 0.14916 0.22382 0.0
H1068 H 0.74801 0.14815 0.24069 0.0
H1069 H 0.90905 0.25968 0.32252 0.0
H1070 H 0.90215 0.25483 0.28965 0.0
H1071 H 0.7966 0.15411 0.29521 0.0
H1072 H 0.80311 0.15933 0.32865 0.0
H1073 H 0.79661 0.19815 0.26657 0.0
H1074 H 0.86997 0.14643 0.28501 0.0
H1075 H 0.91908 0.14284 0.30202 0.0
H1076 H 0.00218 0.24091 0.27509 0.0
H1077 H 0.95353 0.24549 0.25812 0.0
C1078 C 0.83873 0.18269 0.1804 0.0
C1079 C 0.86758 0.21582 0.173 0.0
C1080 C 0.83329 0.17866 0.19929 0.0
C1081 C 0.85696 0.20743 0.21112 0.0
C1082 C 0.88578 0.24043 0.20376 0.0
C1083 C 0.89079 0.24476 0.18491 0.0
C1084 C 0.85246 0.20315 0.23121 0.0
C1085 C 0.8804 0.20203 0.24136 0.0
C1086 C 0.82128 0.20046 0.24038 0.0
C1087 C 0.79079 0.20123 0.23035 0.0
C1088 C 0.79799 0.23147 0.21915 0.0
C1089 C 0.7691 0.23174 0.20959 0.0
C1090 C 0.73284 0.20205 0.21125 0.0
C1091 C 0.72538 0.1721 0.22252 0.0
C1092 C 0.75419 0.17167 0.23209 0.0
C1093 C 0.88409 0.23663 0.31683 0.0
C1094 C 0.85681 0.20962 0.32821 0.0
C1095 C 0.88023 0.23385 0.29798 0.0
C1096 C 0.84932 0.20362 0.28988 0.0
C1097 C 0.82085 0.17755 0.30115 0.0
C1098 C 0.82454 0.18056 0.32023 0.0
C1099 C 0.84851 0.19906 0.26971 0.0
C1100 C 0.81964 0.1984 0.25953 0.0
C1101 C 0.87853 0.19935 0.26042 0.0
C1102 C 0.90804 0.19642 0.27035 0.0
C1103 C 0.8987 0.16737 0.28278 0.0
C1104 C 0.92646 0.16514 0.29241 0.0
C1105 C 0.96372 0.19165 0.28965 0.0
C1106 C 0.9733 0.22039 0.27721 0.0
C1107 C 0.94564 0.22279 0.26756 0.0
H1108 H 0.98518 0.1899 0.29714 0.0
H1109 H 0.71052 0.20231 0.20384 0.0
H1110 H 0.17582 0.32048 0.67384 0.0
H1111 H 0.18801 0.32577 0.70673 0.0
H1112 H 0.1388 0.39526 0.71203 0.0
H1113 H 0.12717 0.39063 0.67941 0.0
H1114 H 0.19749 0.42024 0.73372 0.0
H1115 H 0.08935 0.30091 0.72059 0.0
H1116 H 0.05566 0.2395 0.70568 0.0
H1117 H 0.13001 0.20848 0.72995 0.0
H1118 H 0.16446 0.26996 0.74481 0.0
H1119 H 0.12894 0.3945 0.82371 0.0
H1120 H 0.1384 0.39678 0.79086 0.0
H1121 H 0.18882 0.32847 0.79625 0.0
H1122 H 0.17904 0.32569 0.82922 0.0
H1123 H 0.13854 0.30333 0.76928 0.0
H1124 H 0.24131 0.42105 0.78594 0.0
H1125 H 0.27304 0.48227 0.80108 0.0
H1126 H 0.20752 0.5165 0.77049 0.0
H1127 H 0.17499 0.45528 0.75534 0.0
C1128 C 0.16807 0.33728 0.682 0.0
C1129 C 0.15008 0.35472 0.674 0.0
C1130 C 0.17489 0.34015 0.70081 0.0
C1131 C 0.16376 0.36043 0.71196 0.0
C1132 C 0.14756 0.37936 0.7038 0.0
C1133 C 0.14074 0.3765 0.68509 0.0
C1134 C 0.16678 0.36049 0.7322 0.0
C1135 C 0.18449 0.39467 0.74149 0.0
C1136 C 0.15057 0.32717 0.74243 0.0
C1137 C 0.12974 0.29015 0.73362 0.0
C1138 C 0.09867 0.28108 0.72263 0.0
C1139 C 0.07942 0.24626 0.71421 0.0
C1140 C 0.09076 0.22015 0.71682 0.0
C1141 C 0.12131 0.22877 0.72791 0.0
C1142 C 0.1407 0.26358 0.73634 0.0
C1143 C 0.14241 0.38026 0.81798 0.0
C1144 C 0.15325 0.35993 0.82917 0.0
C1145 C 0.14795 0.38171 0.79914 0.0
C1146 C 0.16466 0.36309 0.79102 0.0
C1147 C 0.17594 0.34314 0.80217 0.0
C1148 C 0.17047 0.34171 0.82105 0.0
C1149 C 0.16865 0.36312 0.77083 0.0
C1150 C 0.15215 0.32893 0.76154 0.0
C1151 C 0.1858 0.39645 0.76062 0.0
C1152 C 0.20553 0.43345 0.76959 0.0
C1153 C 0.23349 0.44154 0.78252 0.0
C1154 C 0.25164 0.47626 0.7911 0.0
C1155 C 0.24226 0.50324 0.78677 0.0
C1156 C 0.21475 0.49557 0.77383 0.0
C1157 C 0.19648 0.46088 0.76523 0.0
H1158 H 0.25633 0.53009 0.79344 0.0
H1159 H 0.07583 0.1932 0.71029 0.0
H1160 H 0.14615 0.82634 0.85463 0.0
H1161 H 0.14283 0.82171 0.82135 0.0
H1162 H 0.26048 0.86189 0.81908 0.0
H1163 H 0.26409 0.86742 0.85215 0.0
H1164 H 0.24398 0.90064 0.79717 0.0
H1165 H 0.1928 0.76781 0.80624 0.0
H1166 H 0.14906 0.70576 0.81858 0.0
H1167 H 0.05727 0.71284 0.79667 0.0
H1168 H 0.10045 0.77463 0.78397 0.0
H1169 H 0.26311 0.87915 0.70342 0.0
H1170 H 0.26056 0.87071 0.73639 0.0
H1171 H 0.14376 0.83478 0.73595 0.0
H1172 H 0.14592 0.84254 0.7029 0.0
H1173 H 0.15749 0.79318 0.75907 0.0
H1174 H 0.20741 0.92302 0.74843 0.0
H1175 H 0.24987 0.98423 0.73503 0.0
H1176 H 0.34269 0.98432 0.76053 0.0
H1177 H 0.30082 0.92282 0.77387 0.0
C1178 C 0.17117 0.8336 0.84703 0.0
C1179 C 0.20544 0.84762 0.85603 0.0
C1180 C 0.16922 0.83077 0.82799 0.0
C1181 C 0.20142 0.84142 0.81762 0.0
C1182 C 0.23528 0.85373 0.82671 0.0
C1183 C 0.2373 0.85686 0.84565 0.0
C1184 C 0.20081 0.84311 0.79735 0.0
C1185 C 0.22547 0.87688 0.78886 0.0
C1186 C 0.17573 0.8127 0.78643 0.0
C1187 C 0.14979 0.77593 0.79434 0.0
C1188 C 0.16327 0.75621 0.80417 0.0
C1189 C 0.13861 0.72107 0.81118 0.0
C1190 C 0.10044 0.70554 0.80855 0.0
C1191 C 0.08684 0.72495 0.79875 0.0
C1192 C 0.11138 0.75993 0.79157 0.0
C1193 C 0.23681 0.86924 0.7103 0.0
C1194 C 0.20478 0.86179 0.70051 0.0
C1195 C 0.23541 0.86453 0.72918 0.0
C1196 C 0.20208 0.85266 0.73872 0.0
C1197 C 0.16981 0.84405 0.72891 0.0
C1198 C 0.17114 0.84862 0.71001 0.0
C1199 C 0.20125 0.8504 0.75896 0.0
C1200 C 0.17615 0.81679 0.76742 0.0
C1201 C 0.22577 0.88104 0.7699 0.0
C1202 C 0.25102 0.91815 0.762 0.0
C1203 C 0.23691 0.93596 0.75107 0.0
C1204 C 0.26087 0.97073 0.7435 0.0
C1205 C 0.29897 0.98811 0.74689 0.0
C1206 C 0.31318 0.9708 0.7579 0.0
C1207 C 0.28935 0.936 0.76547 0.0
H1208 H 0.31747 0.01503 0.74102 0.0
H1209 H 0.08141 0.67838 0.81403 0.0
H1210 H 0.60419 0.72221 0.68603 0.0
H1211 H 0.60235 0.72729 0.71912 0.0
H1212 H 0.6806 0.84477 0.71595 0.0
H1213 H 0.68281 0.83987 0.68283 0.0
H1214 H 0.70014 0.81335 0.74222 0.0
H1215 H 0.5894 0.81412 0.72607 0.0
H1216 H 0.52899 0.7924 0.7111 0.0
H1217 H 0.48383 0.68826 0.73917 0.0
H1218 H 0.54407 0.70939 0.75432 0.0
H1219 H 0.68257 0.85029 0.83511 0.0
H1220 H 0.6787 0.85071 0.80186 0.0
H1221 H 0.60547 0.73199 0.80173 0.0
H1222 H 0.6091 0.7313 0.83492 0.0
H1223 H 0.58319 0.76695 0.77713 0.0
H1224 H 0.69549 0.76698 0.79282 0.0
H1225 H 0.75574 0.79046 0.80828 0.0
H1226 H 0.79828 0.8949 0.78073 0.0
H1227 H 0.73805 0.87221 0.76531 0.0
C1228 C 0.62087 0.7492 0.69234 0.0
C1229 C 0.64367 0.78063 0.68172 0.0
C1230 C 0.61965 0.7521 0.71129 0.0
C1231 C 0.64111 0.78649 0.72009 0.0
C1232 C 0.66377 0.81794 0.70952 0.0
C1233 C 0.6649 0.8151 0.69055 0.0
C1234 C 0.64085 0.78932 0.74034 0.0
C1235 C 0.6746 0.80378 0.74981 0.0
C1236 C 0.60753 0.77619 0.75036 0.0
C1237 C 0.57133 0.76322 0.7412 0.0
C1238 C 0.56667 0.78648 0.72895 0.0
C1239 C 0.53244 0.7743 0.72046 0.0
C1240 C 0.50262 0.7389 0.72412 0.0
C1241 C 0.50696 0.71566 0.73633 0.0
C1242 C 0.54111 0.72776 0.74492 0.0
C1243 C 0.66528 0.82431 0.82803 0.0
C1244 C 0.64635 0.79072 0.83771 0.0
C1245 C 0.66323 0.82458 0.809 0.0
C1246 C 0.64216 0.79131 0.79925 0.0
C1247 C 0.62196 0.75799 0.80893 0.0
C1248 C 0.62417 0.75766 0.82793 0.0
C1249 C 0.64244 0.79089 0.77896 0.0
C1250 C 0.60871 0.77676 0.7695 0.0
C1251 C 0.67581 0.80446 0.76894 0.0
C1252 C 0.71214 0.81804 0.77807 0.0
C1253 C 0.7176 0.79505 0.79017 0.0
C1254 C 0.75176 0.8082 0.79891 0.0
C1255 C 0.78079 0.84419 0.79553 0.0
C1256 C 0.77575 0.86705 0.78336 0.0
C1257 C 0.74161 0.85406 0.77461 0.0
H1258 H 0.80721 0.85432 0.80231 0.0
H1259 H 0.47613 0.72954 0.71755 0.0
H1260 H 0.28888 0.93216 0.96156 0.0
H1261 H 0.30004 0.96475 0.99056 0.0
H1262 H 0.18384 0.93017 0.99453 0.0
H1263 H 0.17235 0.8973 0.9653 0.0
H1264 H 0.22939 0.00533 1.00227 0.0
H1265 H 0.21818 0.8905 0.02148 0.0
H1266 H 0.23076 0.83852 0.02086 0.0
H1267 H 0.3459 0.91405 0.03208 0.0
H1268 H 0.33411 0.96659 0.0325 0.0
H1269 H 0.25225 0.07026 0.09553 0.0
H1270 H 0.23173 0.03608 0.06665 0.0
H1271 H 0.3414 0.05225 0.05816 0.0
H1272 H 0.3617 0.08555 0.08702 0.0
H1273 H 0.29222 0.98211 0.05363 0.0
H1274 H 0.30474 0.09735 0.03246 0.0
H1275 H 0.29307 0.14995 0.03248 0.0
H1276 H 0.1766 0.07461 0.02469 0.0
H1277 H 0.18752 0.02148 0.02486 0.0
C1278 C 0.26553 0.93105 0.96866 0.0
C1279 C 0.22964 0.91187 0.96112 0.0
C1280 C 0.27198 0.94974 0.98528 0.0
C1281 C 0.24277 0.94981 0.99482 0.0
C1282 C 0.20681 0.93049 0.98743 0.0
C1283 C 0.20024 0.91147 0.9708 0.0
C1284 C 0.25033 0.97072 0.0123 0.0
C1285 C 0.24253 -0.00014 0.01364 0.0
C1286 C 0.26811 0.9641 0.02702 0.0
C1287 C 0.27529 0.93253 0.02689 0.0
C1288 C 0.24623 0.89607 0.02368 0.0
C1289 C 0.25322 0.8665 0.02339 0.0
C1290 C 0.28912 0.87299 0.02639 0.0
C1291 C 0.31811 0.90906 0.02974 0.0
C1292 C 0.31128 0.93875 0.03003 0.0
C1293 C 0.27218 0.06726 0.08728 0.0
C1294 C 0.30861 0.08061 0.09361 0.0
C1295 C 0.2604 0.04762 0.07077 0.0
C1296 C 0.28496 0.04138 0.06017 0.0
C1297 C 0.32178 0.05632 0.0661 0.0
C1298 C 0.33344 0.0756 0.0826 0.0
C1299 C 0.27217 0.01746 0.04351 0.0
C1300 C 0.27887 0.98755 0.04234 0.0
C1301 C 0.25352 0.02352 0.02896 0.0
C1302 C 0.2469 0.05541 0.02889 0.0
C1303 C 0.2766 0.09197 0.03091 0.0
C1304 C 0.27012 0.12188 0.03086 0.0
C1305 C 0.2341 0.11562 0.02865 0.0
C1306 C 0.20448 0.07942 0.02644 0.0
C1307 C 0.2108 0.0494 0.0265 0.0
H1308 H 0.22914 0.13881 0.0286 0.0
H1309 H 0.29448 0.85005 0.02616 0.0
H1310 H 0.69744 0.67689 0.43212 0.0
H1311 H 0.68519 0.69335 0.46215 0.0
H1312 H 0.79104 0.71133 0.48111 0.0
H1313 H 0.80246 0.6926 0.45102 0.0
H1314 H 0.74262 0.68364 0.50782 0.0
H1315 H 0.77863 0.78412 0.46696 0.0
H1316 H 0.7762 0.81159 0.43769 0.0
H1317 H 0.66404 0.78434 0.44863 0.0
H1318 H 0.66539 0.75568 0.47774 0.0
H1319 H 0.71353 0.82024 0.56979 0.0
H1320 H 0.73523 0.80843 0.54081 0.0
H1321 H 0.65536 0.69166 0.54542 0.0
H1322 H 0.63365 0.70307 0.57421 0.0
H1323 H 0.70343 0.77855 0.50794 0.0
H1324 H 0.69562 0.6417 0.5329 0.0
H1325 H 0.70243 0.61541 0.56172 0.0
H1326 H 0.77062 0.72531 0.58335 0.0
H1327 H 0.76472 0.75228 0.55459 0.0
C1328 C 0.71793 0.68388 0.44276 0.0
C1329 C 0.75107 0.68387 0.43922 0.0
C1330 C 0.711 0.69353 0.45991 0.0
C1331 C 0.73769 0.70485 0.4738 0.0
C1332 C 0.77015 0.70309 0.47059 0.0
C1333 C 0.77669 0.69241 0.45343 0.0
C1334 C 0.73192 0.71988 0.49124 0.0
C1335 C 0.7342 0.70446 0.50782 0.0
C1336 C 0.72219 0.74813 0.49142 0.0
C1337 C 0.72205 0.76753 0.4745 0.0
C1338 C 0.75343 0.78395 0.46312 0.0
C1339 C 0.75219 0.79959 0.44652 0.0
C1340 C 0.71994 0.79959 0.44128 0.0
C1341 C 0.68897 0.78423 0.4527 0.0
C1342 C 0.68995 0.76827 0.46925 0.0
C1343 C 0.70015 0.79215 0.56447 0.0
C1344 C 0.67189 0.76262 0.5744 0.0
C1345 C 0.71268 0.78543 0.54792 0.0
C1346 C 0.69742 0.74905 0.54109 0.0
C1347 C 0.66807 0.71986 0.55057 0.0
C1348 C 0.65551 0.72652 0.56701 0.0
C1349 C 0.71246 0.74102 0.52435 0.0
C1350 C 0.71215 0.75795 0.50793 0.0
C1351 C 0.72509 0.71504 0.52439 0.0
C1352 C 0.72944 0.69898 0.54161 0.0
C1353 C 0.71225 0.66026 0.54376 0.0
C1354 C 0.71592 0.64524 0.5601 0.0
C1355 C 0.73685 0.66868 0.57437 0.0
C1356 C 0.7543 0.70719 0.57231 0.0
C1357 C 0.75077 0.72235 0.556 0.0
H1358 H 0.73961 0.65699 0.58702 0.0
H1359 H 0.71898 0.81159 0.42838 0.0
H1360 H 0.09532 0.27362 0.93808 0.0
H1361 H 0.06204 0.25482 0.96719 0.0
H1362 H 0.03953 0.3452 0.96361 0.0
H1363 H 0.07269 0.36418 0.93473 0.0
H1364 H 0.06025 0.33761 0.99817 0.0
H1365 H 0.97585 0.25664 0.95094 0.0
H1366 H 0.95997 0.21119 0.92609 0.0
H1367 H 0.96654 0.13487 0.96304 0.0
H1368 H 0.98341 0.18032 0.98803 0.0
H1369 H 0.92092 0.29287 0.0624 0.0
H1370 H 0.95409 0.30603 0.03348 0.0
H1371 H 0.95211 0.20139 0.03664 0.0
H1372 H 0.91696 0.18725 0.06509 0.0
H1373 H 0.94703 0.21357 1.00312 0.0
H1374 H 0.0299 0.28777 0.04987 0.0
H1375 H 0.05218 0.33145 0.07578 0.0
H1376 H 0.05495 0.41683 0.04196 0.0
H1377 H 0.03209 0.37346 0.0159 0.0
C1378 C 0.08369 0.28976 0.94361 0.0
C1379 C 0.08663 0.32036 0.934 0.0
C1380 C 0.06446 0.27884 0.96021 0.0
C1381 C 0.04783 0.29831 0.96752 0.0
C1382 C 0.05199 0.32965 0.95827 0.0
C1383 C 0.07096 0.34044 0.9417 0.0
C1384 C 0.02511 0.28578 0.98448 0.0
C1385 C 0.0353 0.31062 0.9992 0.0
C1386 C 0.9933 0.25 0.98614 0.0
C1387 C 0.98141 0.2221 0.97129 0.0
C1388 C 0.9741 0.23025 0.95374 0.0
C1389 C 0.96497 0.20449 0.93963 0.0
C1390 C 0.96258 0.17028 0.94296 0.0
C1391 C 0.9687 0.1615 0.96046 0.0
C1392 C 0.97806 0.18726 0.9746 0.0
C1393 C 0.9269 0.27235 0.05672 0.0
C1394 C 0.91635 0.23905 0.06603 0.0
C1395 C 0.94627 0.28005 0.04026 0.0
C1396 C 0.95682 0.2553 0.03304 0.0
C1397 C 0.94464 0.22115 0.04189 0.0
C1398 C 0.92442 0.21301 0.05815 0.0
C1399 C 0.98168 0.26576 0.01676 0.0
C1400 C 0.972 0.24054 1.00219 0.0
C1401 C 0.01462 0.30084 0.01541 0.0
C1402 C 0.02898 0.32726 0.03096 0.0
C1403 C 0.03508 0.31581 0.04798 0.0
C1404 C 0.04781 0.34051 0.06269 0.0
C1405 C 0.0549 0.37687 0.06053 0.0
C1406 C 0.0494 0.38864 0.04362 0.0
C1407 C 0.03658 0.36402 0.02886 0.0
H1408 H 0.06472 0.39594 0.07195 0.0
H1409 H 0.95602 0.15052 0.93201 0.0
H1410 H 0.34447 0.10625 0.47049 0.0
H1411 H 0.3262 0.07624 0.50052 0.0
H1412 H 0.22001 0.99476 0.47874 0.0
H1413 H 0.23846 0.02358 0.44869 0.0
H1414 H 0.22975 0.03753 0.51855 0.0
H1415 H 0.25916 0.95715 0.48001 0.0
H1416 H 0.30165 0.94954 0.45934 0.0
H1417 H 0.38832 0.99854 0.49936 0.0
H1418 H 0.34644 0.00696 0.52015 0.0
H1419 H 0.16011 0.90107 0.58907 0.0
H1420 H 0.17356 0.93262 0.55951 0.0
H1421 H 0.28969 0.96852 0.56628 0.0
H1422 H 0.27636 0.93615 0.5951 0.0
H1423 H 0.27466 0.95048 0.53362 0.0
H1424 H 0.251 0.02684 0.57337 0.0
H1425 H 0.21661 0.04306 0.59542 0.0
H1426 H 0.12937 0.01303 0.55637 0.0
H1427 H 0.16301 0.9961 0.53417 0.0
C1428 C 0.31712 0.08219 0.47218 0.0
C1429 C 0.293 0.06714 0.45722 0.0
C1430 C 0.3067 0.06511 0.48931 0.0
C1431 C 0.2717 0.03334 0.49183 0.0
C1432 C 0.24705 0.01931 0.4771 0.0
C1433 C 0.25775 0.03572 0.45993 0.0
C1434 C 0.26174 0.01296 0.50939 0.0
C1435 C 0.23914 0.01815 0.52185 0.0
C1436 C 0.27498 0.98866 0.51388 0.0
C1437 C 0.29986 0.98308 0.50151 0.0
C1438 C 0.28739 0.96662 0.48431 0.0
C1439 C 0.31132 0.96209 0.4726 0.0
C1440 C 0.3477 0.97366 0.47801 0.0
C1441 C 0.36017 0.98966 0.49517 0.0
C1442 C 0.33634 0.9943 0.50692 0.0
C1443 C 0.18839 0.91531 0.58412 0.0
C1444 C 0.21705 0.91589 0.59451 0.0
C1445 C 0.19617 0.93371 0.56728 0.0
C1446 C 0.23284 0.95359 0.56065 0.0
C1447 C 0.26118 0.95345 0.57092 0.0
C1448 C 0.25342 0.9348 0.58752 0.0
C1449 C 0.24218 0.97456 0.5431 0.0
C1450 C 0.26488 0.96962 0.53052 0.0
C1451 C 0.22984 -7e-05 0.53882 0.0
C1452 C 0.20934 0.00978 0.55217 0.0
C1453 C 0.22432 0.02336 0.56954 0.0
C1454 C 0.205 0.03275 0.58205 0.0
C1455 C 0.17079 0.02899 0.57731 0.0
C1456 C 0.15585 0.01586 0.56003 0.0
C1457 C 0.17504 0.00638 0.54748 0.0
H1458 H 0.1559 0.03635 0.587 0.0
H1459 H 0.3662 0.97014 0.46892 0.0
H1460 H 0.84409 0.74686 0.07108 0.0
H1461 H 0.83504 0.77176 0.04237 0.0
H1462 H 0.71914 0.68826 0.04269 0.0
H1463 H 0.72782 0.66303 0.07087 0.0
H1464 H 0.80394 0.73678 1.00682 0.0
H1465 H 0.6717 0.73388 0.03355 0.0
H1466 H 0.64617 0.74175 0.06244 0.0
H1467 H 0.75648 0.80902 0.08357 0.0
H1468 H 0.78263 0.80177 0.05478 0.0
H1469 H 0.67773 0.72323 0.93888 0.0
H1470 H 0.70586 0.71648 0.9666 0.0
H1471 H 0.75113 0.83283 0.97859 0.0
H1472 H 0.72365 0.8402 0.95035 0.0
H1473 H 0.71419 0.78236 1.00877 0.0
H1474 H 0.80944 0.81189 0.96552 0.0
H1475 H 0.83777 0.80805 0.93671 0.0
H1476 H 0.80716 0.69519 0.94846 0.0
H1477 H 0.77803 0.69807 0.97719 0.0
C1478 C 0.81684 0.73343 0.06485 0.0
C1479 C 0.78673 0.70291 0.07337 0.0
C1480 C 0.81171 0.74773 0.04846 0.0
C1481 C 0.7763 0.73214 0.04048 0.0
C1482 C 0.74663 0.701 0.04865 0.0
C1483 C 0.75176 0.6865 0.0648 0.0
C1484 C 0.76931 0.74868 0.02403 0.0
C1485 C 0.78456 0.747 1.00724 0.0
C1486 C 0.7446 0.76278 0.02461 0.0
C1487 C 0.72909 0.76705 0.04204 0.0
C1488 C 0.6905 0.7504 0.04436 0.0
C1489 C 0.67591 0.7547 0.06072 0.0
C1490 C 0.69965 0.77577 0.07485 0.0
C1491 C 0.73807 0.79252 0.07266 0.0
C1492 C 0.75279 0.78825 0.05633 0.0
C1493 C 0.69339 0.74747 0.94742 0.0
C1494 C 0.69818 0.78228 0.9424 0.0
C1495 C 0.70976 0.74355 0.96322 0.0
C1496 C 0.73093 0.77418 0.97458 0.0
C1497 C 0.73505 0.80885 0.96995 0.0
C1498 C 0.71923 0.81299 0.95386 0.0
C1499 C 0.74772 0.76918 0.99146 0.0
C1500 C 0.73406 0.77273 1.00834 0.0
C1501 C 0.7742 0.75723 0.99093 0.0
C1502 C 0.79129 0.75514 0.97351 0.0
C1503 C 0.80837 0.7861 0.96189 0.0
C1504 C 0.82466 0.78414 0.94558 0.0
C1505 C 0.82429 0.75141 0.94077 0.0
C1506 C 0.80747 0.72054 0.95222 0.0
C1507 C 0.79108 0.72233 0.96853 0.0
H1508 H 0.83715 0.75002 0.92821 0.0
H1509 H 0.68822 0.77919 0.08745 0.0
H1510 H 0.02108 0.31694 0.58026 0.0
H1511 H 0.9867 0.29464 0.55165 0.0
H1512 H 0.07167 0.27477 0.53037 0.0
H1513 H 0.10583 0.2959 0.55927 0.0
H1514 H 0.03554 0.32809 0.51198 0.0
H1515 H 0.02236 0.20877 0.53005 0.0
H1516 H 0.00381 0.15397 0.54939 0.0
H1517 H 0.89169 0.13259 0.55025 0.0
H1518 H 0.9099 0.18812 0.53142 0.0
H1519 H 0.97705 0.25288 0.42482 0.0
H1520 H 0.00335 0.26615 0.45522 0.0
H1521 H 0.894 0.22155 0.47825 0.0
H1522 H 0.86695 0.20787 0.44741 0.0
H1523 H 0.93828 0.19903 0.49697 0.0
H1524 H 0.94856 0.31284 0.47696 0.0
H1525 H 0.9643 0.36442 0.45572 0.0
H1526 H 0.07913 0.39465 0.45773 0.0
H1527 H 0.064 0.34286 0.47876 0.0
C1528 C 0.0325 0.30772 0.56954 0.0
C1529 C 0.06638 0.30839 0.57205 0.0
C1530 C 0.01255 0.2946 0.55326 0.0
C1531 C 0.02607 0.2821 0.53906 0.0
C1532 C 0.06018 0.2833 0.54135 0.0
C1533 C 0.07985 0.29571 0.5578 0.0
C1534 C 0.00632 0.2715 0.52127 0.0
C1535 C 0.0146 0.29979 0.50861 0.0
C1536 C 0.97799 0.23477 0.51714 0.0
C1537 C 0.96777 0.20326 0.52971 0.0
C1538 C 0.99402 0.19311 0.5348 0.0
C1539 C 0.98346 0.16164 0.54552 0.0
C1540 C 0.94657 0.13975 0.55101 0.0
C1541 C 0.92022 0.14947 0.54592 0.0
C1542 C 0.93071 0.18107 0.53532 0.0
C1543 C 0.9583 0.24572 0.43626 0.0
C1544 C 0.91973 0.22946 0.43357 0.0
C1545 C 0.97355 0.2535 0.45371 0.0
C1546 C 0.95082 0.24541 0.46906 0.0
C1547 C 0.91214 0.22822 0.46659 0.0
C1548 C 0.89671 0.22047 0.44897 0.0
C1549 C 0.96808 0.2555 0.48752 0.0
C1550 C 0.95916 0.22734 0.50036 0.0
C1551 C 0.99579 0.29236 0.49187 0.0
C1552 C 0.00508 0.32376 0.47934 0.0
C1553 C 0.97713 0.33031 0.47277 0.0
C1554 C 0.98595 0.35961 0.46078 0.0
C1555 C 0.02268 0.38275 0.45535 0.0
C1556 C 0.05068 0.37668 0.46194 0.0
C1557 C 0.04201 0.34738 0.47391 0.0
H1558 H 0.02945 0.40542 0.44607 0.0
H1559 H 0.93844 0.11537 0.55928 0.0
H1560 H 0.7751 0.19175 0.13797 0.0
H1561 H 0.71106 0.1785 0.13715 0.0
H1562 H 0.73586 0.24905 0.09021 0.0
H1563 H 0.8012 0.26368 0.09144 0.0
H1564 H 0.68176 0.24921 0.11858 0.0
H1565 H 0.70164 0.1678 0.07943 0.0
H1566 H 0.72967 0.12909 0.07251 0.0
H1567 H 0.67074 0.05729 0.11718 0.0
H1568 H 0.64283 0.09594 0.12456 0.0
H1569 H 0.48165 0.14476 0.10857 0.0
H1570 H 0.54729 0.17619 0.10037 0.0
H1571 H 0.56598 0.11137 0.14019 0.0
H1572 H 0.50105 0.08066 0.14887 0.0
H1573 H 0.59865 0.11425 0.10741 0.0
H1574 H 0.58649 0.19742 0.14933 0.0
H1575 H 0.56372 0.23854 0.16024 0.0
H1576 H 0.61039 0.30808 0.11337 0.0
H1577 H 0.63277 0.26682 0.10195 0.0
C1578 C 0.7671 0.20522 0.12778 0.0
C1579 C 0.79256 0.2284 0.11468 0.0
C1580 C 0.73065 0.19771 0.12733 0.0
C1581 C 0.71885 0.21254 0.1135 0.0
C1582 C 0.74476 0.23765 0.10102 0.0
C1583 C 0.78177 0.2458 0.10168 0.0
C1584 C 0.67865 0.19762 0.11117 0.0
C1585 C 0.66339 0.21998 0.1156 0.0
C1586 C 0.65504 0.15935 0.10755 0.0
C1587 C 0.67018 0.13483 0.10256 0.0
C1588 C 0.69468 0.14378 0.08779 0.0
C1589 C 0.71059 0.12188 0.0838 0.0
C1590 C 0.70201 0.09077 0.09441 0.0
C1591 C 0.67732 0.08137 0.10896 0.0
C1592 C 0.66138 0.10323 0.11303 0.0
C1593 C 0.49964 0.13726 0.1157 0.0
C1594 C 0.48577 0.11017 0.12952 0.0
C1595 C 0.53717 0.15523 0.11091 0.0
C1596 C 0.56143 0.14624 0.11976 0.0
C1597 C 0.5476 0.1186 0.13316 0.0
C1598 C 0.51027 0.10088 0.13805 0.0
C1599 C 0.60146 0.16553 0.11538 0.0
C1600 C 0.61673 0.14381 0.10971 0.0
C1601 C 0.62492 0.20431 0.11797 0.0
C1602 C 0.61069 0.2286 0.1246 0.0
C1603 C 0.59138 0.22111 0.14119 0.0
C1604 C 0.57865 0.24451 0.14749 0.0
C1605 C 0.58544 0.27577 0.13745 0.0
C1606 C 0.60499 0.28372 0.12108 0.0
C1607 C 0.61765 0.2603 0.11467 0.0
H1608 H 0.57575 0.29392 0.14243 0.0
H1609 H 0.71448 0.07394 0.09135 0.0
H1610 H 0.69545 0.53904 0.38093 0.0
H1611 H 0.63806 0.47969 0.38339 0.0
H1612 H 0.57794 0.53674 0.39554 0.0
H1613 H 0.63579 0.59689 0.39285 0.0
H1614 H 0.56833 0.48133 0.42107 0.0
H1615 H 0.55878 0.49194 0.35681 0.0
H1616 H 0.57966 0.50287 0.32492 0.0
H1617 H 0.60241 0.41296 0.3275 0.0
H1618 H 0.58185 0.40165 0.35948 0.0
H1619 H 0.40391 0.3063 0.42795 0.0
H1620 H 0.44871 0.36994 0.41922 0.0
H1621 H 0.51927 0.33206 0.39595 0.0
H1622 H 0.47381 0.26802 0.4043 0.0
H1623 H 0.51743 0.38117 0.37451 0.0
H1624 H 0.53621 0.37501 0.43862 0.0
H1625 H 0.51794 0.36294 0.47089 0.0
H1626 H 0.48282 0.44401 0.46944 0.0
H1627 H 0.50045 0.45621 0.43706 0.0
C1628 C 0.66995 0.53905 0.3839 0.0
C1629 C 0.67002 0.57251 0.38682 0.0
C1630 C 0.63715 0.50511 0.38517 0.0
C1631 C 0.6038 0.5039 0.38953 0.0
C1632 C 0.60348 0.53725 0.39206 0.0
C1633 C 0.63639 0.57146 0.39049 0.0
C1634 C 0.57038 0.46751 0.39301 0.0
C1635 C 0.55648 0.45962 0.4108 0.0
C1636 C 0.55599 0.43901 0.37973 0.0
C1637 C 0.56895 0.44609 0.36058 0.0
C1638 C 0.56854 0.47471 0.35063 0.0
C1639 C 0.58026 0.48092 0.33251 0.0
C1640 C 0.59244 0.45866 0.32418 0.0
C1641 C 0.59296 0.43017 0.33396 0.0
C1642 C 0.58118 0.42379 0.35207 0.0
C1643 C 0.42911 0.31162 0.42109 0.0
C1644 C 0.4357 0.28237 0.41698 0.0
C1645 C 0.45466 0.34797 0.41609 0.0
C1646 C 0.48766 0.35589 0.40722 0.0
C1647 C 0.494 0.3266 0.40281 0.0
C1648 C 0.46813 0.2901 0.40759 0.0
C1649 C 0.51578 0.39472 0.40269 0.0
C1650 C 0.52876 0.403 0.38473 0.0
C1651 C 0.52982 0.42346 0.41591 0.0
C1652 C 0.51923 0.41619 0.43537 0.0
C1653 C 0.52431 0.39004 0.44514 0.0
C1654 C 0.51412 0.38321 0.46346 0.0
C1655 C 0.49911 0.40261 0.4722 0.0
C1656 C 0.49437 0.42895 0.46265 0.0
C1657 C 0.50447 0.43585 0.44432 0.0
H1658 H 0.49125 0.39729 0.48638 0.0
H1659 H 0.60135 0.46332 0.31013 0.0
H1660 H 0.88331 0.36507 0.14757 0.0
H1661 H 0.85982 0.40819 0.14625 0.0
H1662 H 0.94714 0.47749 0.10902 0.0
H1663 H 0.97004 0.43372 0.1095 0.0
H1664 H 0.93065 0.51602 0.13852 0.0
H1665 H 0.87103 0.42356 0.09091 0.0
H1666 H 0.83496 0.35954 0.07909 0.0
H1667 H 0.74367 0.33929 0.11374 0.0
H1668 H 0.77949 0.40307 0.12603 0.0
H1669 H 0.86734 0.62944 0.10364 0.0
H1670 H 0.88871 0.58454 0.10509 0.0
H1671 H 0.78536 0.50484 0.13011 0.0
H1672 H 0.76321 0.5494 0.12803 0.0
H1673 H 0.80849 0.47008 0.10844 0.0
H1674 H 0.86325 0.55937 0.15585 0.0
H1675 H 0.89654 0.62229 0.16919 0.0
H1676 H 0.99368 0.64672 0.13826 0.0
H1677 H 0.96074 0.58411 0.1245 0.0
C1678 C 0.89762 0.38933 0.13902 0.0
C1679 C 0.9282 0.3952 0.1283 0.0
C1680 C 0.88422 0.41411 0.13841 0.0
C1681 C 0.90145 0.44567 0.12735 0.0
C1682 C 0.93341 0.45313 0.1176 0.0
C1683 C 0.94655 0.42805 0.11797 0.0
C1684 C 0.88486 0.46969 0.12513 0.0
C1685 C 0.90417 0.50621 0.13177 0.0
C1686 C 0.84967 0.45628 0.11691 0.0
C1687 C 0.82812 0.41795 0.10955 0.0
C1688 C 0.84343 0.40534 0.09616 0.0
C1689 C 0.82301 0.36913 0.08935 0.0
C1690 C 0.7871 0.34538 0.09569 0.0
C1691 C 0.77152 0.35774 0.10887 0.0
C1692 C 0.79187 0.39392 0.11576 0.0
C1693 C 0.84888 0.6021 0.10914 0.0
C1694 C 0.81376 0.59301 0.11588 0.0
C1695 C 0.86123 0.57654 0.11009 0.0
C1696 C 0.83912 0.54172 0.11823 0.0
C1697 C 0.80306 0.53168 0.12393 0.0
C1698 C 0.79039 0.55711 0.1227 0.0
C1699 C 0.85453 0.51682 0.12157 0.0
C1700 C 0.83494 0.48002 0.11524 0.0
C1701 C 0.88913 0.52974 0.13044 0.0
C1702 C 0.90941 0.56713 0.13902 0.0
C1703 C 0.89166 0.57822 0.15182 0.0
C1704 C 0.91046 0.61383 0.15946 0.0
C1705 C 0.94718 0.63852 0.15454 0.0
C1706 C 0.96522 0.62758 0.14204 0.0
C1707 C 0.9465 0.59201 0.13433 0.0
H1708 H 0.96167 0.66612 0.16044 0.0
H1709 H 0.77128 0.31748 0.09031 0.0
H1710 H 0.44791 0.15605 0.40635 0.0
H1711 H 0.50546 0.15649 0.40049 0.0
H1712 H 0.44538 0.03739 0.39421 0.0
H1713 H 0.38643 0.03658 0.39972 0.0
H1714 H 0.5146 0.07456 0.41922 0.0
H1715 H 0.47484 0.07435 0.35792 0.0
H1716 H 0.44919 0.09442 0.33309 0.0
H1717 H 0.53913 0.20645 0.33883 0.0
H1718 H 0.56536 0.18708 0.36375 0.0
H1719 H 0.68353 0.08573 0.39594 0.0
H1720 H 0.61834 0.06871 0.39394 0.0
H1721 H 0.65107 0.18357 0.38468 0.0
H1722 H 0.71673 0.20044 0.3862 0.0
H1723 H 0.59086 0.13963 0.36513 0.0
H1724 H 0.62703 0.14409 0.42747 0.0
H1725 H 0.65302 0.12848 0.45391 0.0
H1726 H 0.56995 0.01341 0.44831 0.0
H1727 H 0.54377 0.02829 0.42166 0.0
C1728 C 0.44659 0.12971 0.40384 0.0
C1729 C 0.41239 0.09615 0.40363 0.0
C1730 C 0.47966 0.13016 0.40037 0.0
C1731 C 0.47963 0.09709 0.39678 0.0
C1732 C 0.44583 0.06325 0.39688 0.0
C1733 C 0.41228 0.0628 0.40007 0.0
C1734 C 0.51557 0.0989 0.39332 0.0
C1735 C 0.53095 0.08776 0.40717 0.0
C1736 C 0.53729 0.11752 0.37792 0.0
C1737 C 0.52192 0.12929 0.36279 0.0
C1738 C 0.48903 0.10331 0.35397 0.0
C1739 C 0.47439 0.11455 0.33987 0.0
C1740 C 0.49236 0.15171 0.33445 0.0
C1741 C 0.52519 0.17768 0.34305 0.0
C1742 C 0.54004 0.16656 0.35713 0.0
C1743 C 0.67677 0.10725 0.39328 0.0
C1744 C 0.70507 0.14447 0.39146 0.0
C1745 C 0.63952 0.09754 0.39217 0.0
C1746 C 0.62968 0.12495 0.38963 0.0
C1747 C 0.65794 0.16193 0.38676 0.0
C1748 C 0.6954 0.17159 0.3876 0.0
C1749 C 0.59015 0.11532 0.39109 0.0
C1750 C 0.57429 0.12548 0.37698 0.0
C1751 C 0.5681 0.09624 0.40641 0.0
C1752 C 0.58373 0.08723 0.42245 0.0
C1753 C 0.61449 0.11541 0.43179 0.0
C1754 C 0.62923 0.10671 0.44682 0.0
C1755 C 0.61322 0.06996 0.45275 0.0
C1756 C 0.58237 0.04185 0.44368 0.0
C1757 C 0.56756 0.0504 0.42861 0.0
H1758 H 0.62466 0.06328 0.4644 0.0
H1759 H 0.4809 0.16035 0.32356 0.0
H1760 H 0.3792 0.23707 0.1521 0.0
H1761 H 0.42669 0.30217 0.14813 0.0
H1762 H 0.49321 0.26847 0.11716 0.0
H1763 H 0.44687 0.20329 0.1223 0.0
H1764 H 0.53693 0.32128 0.136 0.0
H1765 H 0.43819 0.30639 0.09771 0.0
H1766 H 0.37397 0.28885 0.08957 0.0
H1767 H 0.37643 0.36754 0.12835 0.0
H1768 H 0.44053 0.38523 0.13689 0.0
H1769 H 0.60171 0.51955 0.09514 0.0
H1770 H 0.55713 0.45319 0.09731 0.0
H1771 H 0.60154 0.45011 0.14991 0.0
H1772 H 0.6469 0.51649 0.14751 0.0
H1773 H 0.5029 0.41512 0.11791 0.0
H1774 H 0.58989 0.36396 0.15835 0.0
H1775 H 0.65456 0.37745 0.16069 0.0
H1776 H 0.67797 0.42691 0.10763 0.0
H1777 H 0.61327 0.41309 0.10481 0.0
C1778 C 0.40395 0.24365 0.1444 0.0
C1779 C 0.40927 0.2152 0.1374 0.0
C1780 C 0.43103 0.28092 0.14202 0.0
C1781 C 0.46336 0.2906 0.13194 0.0
C1782 C 0.46863 0.262 0.12497 0.0
C1783 C 0.44205 0.2247 0.12783 0.0
C1784 C 0.49192 0.33039 0.12893 0.0
C1785 C 0.52945 0.34174 0.132 0.0
C1786 C 0.4825 0.3572 0.12326 0.0
C1787 C 0.44406 0.3469 0.11804 0.0
C1788 C 0.42496 0.31981 0.10457 0.0
C1789 C 0.38859 0.30986 0.09988 0.0
C1790 C 0.3711 0.32701 0.10847 0.0
C1791 C 0.39 0.35425 0.12172 0.0
C1792 C 0.42637 0.36429 0.12648 0.0
C1793 C 0.60191 0.50476 0.10719 0.0
C1794 C 0.62779 0.5233 0.12118 0.0
C1795 C 0.57643 0.46674 0.10841 0.0
C1796 C 0.576 0.44634 0.12371 0.0
C1797 C 0.60171 0.46489 0.13777 0.0
C1798 C 0.62757 0.50289 0.13644 0.0
C1799 C 0.54791 0.40602 0.12511 0.0
C1800 C 0.51044 0.39463 0.12183 0.0
C1801 C 0.5576 0.37889 0.12977 0.0
C1802 C 0.5968 0.38794 0.13149 0.0
C1803 C 0.60883 0.37773 0.14718 0.0
C1804 C 0.64549 0.38537 0.14858 0.0
C1805 C 0.67041 0.40318 0.13435 0.0
C1806 C 0.65869 0.41328 0.11868 0.0
C1807 C 0.62202 0.40559 0.11718 0.0
H1808 H 0.69877 0.40906 0.13546 0.0
H1809 H 0.34293 0.31923 0.10483 0.0
H1810 H 0.89526 0.59124 0.40316 0.0
H1811 H 0.91028 0.54215 0.39777 0.0
H1812 H 0.79782 0.46849 0.38012 0.0
H1813 H 0.78264 0.51768 0.38557 0.0
H1814 H 0.82318 0.43974 0.4077 0.0
H1815 H 0.86402 0.50046 0.34967 0.0
H1816 H 0.89986 0.55387 0.3294 0.0
H1817 H 0.00161 0.56964 0.35233 0.0
H1818 H 0.96634 0.51662 0.37294 0.0
H1819 H 0.82846 0.28667 0.37595 0.0
H1820 H 0.82452 0.34296 0.37689 0.0
H1821 H 0.94133 0.40739 0.38942 0.0
H1822 H 0.94578 0.35047 0.38792 0.0
H1823 H 0.91881 0.4439 0.36582 0.0
H1824 H 0.8801 0.38389 0.42327 0.0
H1825 H 0.84578 0.33119 0.44413 0.0
H1826 H 0.74241 0.31603 0.4238 0.0
H1827 H 0.77611 0.36833 0.40261 0.0
C1828 C 0.87382 0.56462 0.39804 0.0
C1829 C 0.83768 0.55802 0.39493 0.0
C1830 C 0.88252 0.53678 0.39483 0.0
C1831 C 0.85517 0.50184 0.38852 0.0
C1832 C 0.81929 0.49541 0.38495 0.0
C1833 C 0.81068 0.52345 0.38798 0.0
C1834 C 0.86327 0.47117 0.38701 0.0
C1835 C 0.84372 0.44039 0.39837 0.0
C1836 C 0.89128 0.47299 0.37541 0.0
C1837 C 0.91251 0.50481 0.36299 0.0
C1838 C 0.89403 0.51552 0.35052 0.0
C1839 C 0.91424 0.54568 0.33894 0.0
C1840 C 0.95299 0.5652 0.33961 0.0
C1841 C 0.9716 0.55453 0.35184 0.0
C1842 C 0.95151 0.5244 0.36346 0.0
C1843 C 0.85344 0.31279 0.37885 0.0
C1844 C 0.88733 0.31418 0.3822 0.0
C1845 C 0.85111 0.34494 0.37938 0.0
C1846 C 0.8824 0.37914 0.38367 0.0
C1847 C 0.9168 0.38111 0.38622 0.0
C1848 C 0.9193 0.34871 0.38542 0.0
C1849 C 0.87805 0.41207 0.38622 0.0
C1850 C 0.8984 0.44334 0.3752 0.0
C1851 C 0.85108 0.41104 0.39833 0.0
C1852 C 0.83065 0.37992 0.41127 0.0
C1853 C 0.85004 0.3692 0.42318 0.0
C1854 C 0.8307 0.3394 0.43507 0.0
C1855 C 0.79194 0.32024 0.43527 0.0
C1856 C 0.77244 0.33091 0.42362 0.0
C1857 C 0.79165 0.36066 0.41169 0.0
H1858 H 0.77701 0.29715 0.44447 0.0
H1859 H 0.96859 0.58854 0.33064 0.0
H1860 H 0.12872 0.76117 0.62286 0.0
H1861 H 0.10886 0.69511 0.62131 0.0
H1862 H 0.20858 0.71619 0.64943 0.0
H1863 H 0.22952 0.78275 0.65007 0.0
H1864 H 0.19295 0.66461 0.62597 0.0
H1865 H 0.12053 0.68239 0.67136 0.0
H1866 H 0.07965 0.70446 0.68346 0.0
H1867 H 0.99533 0.63618 0.64481 0.0
H1868 H 0.03592 0.61405 0.63231 0.0
H1869 H 0.12301 0.4781 0.65453 0.0
H1870 H 0.14465 0.54461 0.6553 0.0
H1871 H 0.05452 0.52731 0.62012 0.0
H1872 H 0.03292 0.46081 0.61906 0.0
H1873 H 0.06577 0.57648 0.64777 0.0
H1874 H 0.14052 0.55843 0.60307 0.0
H1875 H 0.18212 0.53588 0.59262 0.0
H1876 H 0.26323 0.60447 0.63247 0.0
H1877 H 0.22186 0.62702 0.64335 0.0
C1878 C 0.14663 0.75177 0.62851 0.0
C1879 C 0.18054 0.77711 0.63671 0.0
C1880 C 0.1351 0.7139 0.62777 0.0
C1881 C 0.15659 0.70026 0.63577 0.0
C1882 C 0.19128 0.72581 0.64328 0.0
C1883 C 0.20325 0.76389 0.64364 0.0
C1884 C 0.14239 0.65941 0.63677 0.0
C1885 C 0.16531 0.64549 0.63097 0.0
C1886 C 0.10613 0.63407 0.6431 0.0
C1887 C 0.08139 0.64681 0.65081 0.0
C1888 C 0.09334 0.67221 0.66539 0.0
C1889 C 0.07022 0.68472 0.67232 0.0
C1890 C 0.03495 0.67179 0.66488 0.0
C1891 C 0.02267 0.6462 0.65054 0.0
C1892 C 0.0457 0.63362 0.64355 0.0
C1893 C 0.10775 0.48834 0.64692 0.0
C1894 C 0.07638 0.46392 0.63656 0.0
C1895 C 0.12017 0.52644 0.64741 0.0
C1896 C 0.1016 0.54108 0.63752 0.0
C1897 C 0.06938 0.51667 0.62781 0.0
C1898 C 0.05694 0.47853 0.6273 0.0
C1899 C 0.11624 0.58189 0.6369 0.0
C1900 C 0.09341 0.59574 0.6428 0.0
C1901 C 0.15272 0.60714 0.63092 0.0
C1902 C 0.17795 0.59419 0.62412 0.0
C1903 C 0.16714 0.56855 0.60967 0.0
C1904 C 0.19068 0.55577 0.60367 0.0
C1905 C 0.22527 0.56869 0.6119 0.0
C1906 C 0.23642 0.59448 0.62612 0.0
C1907 C 0.21295 0.60729 0.6322 0.0
H1908 H 0.24347 0.55881 0.60721 0.0
H1909 H 0.01712 0.68156 0.67024 0.0
H1910 H 0.34952 0.86921 0.8774 0.0
H1911 H 0.38974 0.84218 0.87759 0.0
H1912 H 0.46049 0.92336 0.91729 0.0
H1913 H 0.41969 0.94978 0.91779 0.0
H1914 H 0.49887 0.9111 0.88862 0.0
H1915 H 0.40025 0.84147 0.93144 0.0
H1916 H 0.3356 0.80265 0.94171 0.0
H1917 H 0.31927 0.71834 0.90291 0.0
H1918 H 0.3837 0.75701 0.89213 0.0
H1919 H 0.60604 0.84186 0.92191 0.0
H1920 H 0.5581 0.8592 0.92206 0.0
H1921 H 0.49049 0.76707 0.8864 0.0
H1922 H 0.53832 0.74883 0.88665 0.0
H1923 H 0.44821 0.7818 0.91066 0.0
H1924 H 0.54558 0.8488 0.86808 0.0
H1925 H 0.61068 0.88541 0.85806 0.0
H1926 H 0.62858 0.97306 0.89503 0.0
H1927 H 0.56373 0.93666 0.90554 0.0
C1928 C 0.37354 0.88137 0.88624 0.0
C1929 C 0.38084 0.91135 0.89785 0.0
C1930 C 0.39655 0.86589 0.88626 0.0
C1931 C 0.42764 0.88038 0.89769 0.0
C1932 C 0.43642 0.91167 0.90845 0.0
C1933 C 0.41315 0.92692 0.90861 0.0
C1934 C 0.45057 0.86241 0.89878 0.0
C1935 C 0.4879 0.88297 0.89359 0.0
C1936 C 0.43578 0.82522 0.90469 0.0
C1937 C 0.39672 0.80237 0.91083 0.0
C1938 C 0.38276 0.8149 0.92491 0.0
C1939 C 0.34618 0.79287 0.93086 0.0
C1940 C 0.32338 0.75805 0.92298 0.0
C1941 C 0.337 0.74532 0.90901 0.0
C1942 C 0.37354 0.7673 0.90296 0.0
C1943 C 0.58049 0.82465 0.91452 0.0
C1944 C 0.57594 0.79427 0.90411 0.0
C1945 C 0.55321 0.83468 0.91455 0.0
C1946 C 0.52127 0.81506 0.90382 0.0
C1947 C 0.51513 0.78274 0.89465 0.0
C1948 C 0.54235 0.77229 0.89484 0.0
C1949 C 0.49666 0.83078 0.90084 0.0
C1950 C 0.45907 0.80982 0.90556 0.0
C1951 C 0.51101 0.86747 0.89426 0.0
C1952 C 0.54983 0.88987 0.88769 0.0
C1953 C 0.56344 0.8758 0.87415 0.0
C1954 C 0.6003 0.89651 0.86838 0.0
C1955 C 0.62375 0.93152 0.87592 0.0
C1956 C 0.61037 0.94593 0.88921 0.0
C1957 C 0.57355 0.92528 0.89507 0.0
H1958 H 0.65225 0.94753 0.87141 0.0
H1959 H 0.29522 0.74087 0.92776 0.0
H1960 H 0.50866 0.58364 0.60665 0.0
H1961 H 0.44119 0.55078 0.6044 0.0
H1962 H 0.4351 0.6062 0.65288 0.0
H1963 H 0.50292 0.63876 0.65546 0.0
H1964 H 0.37931 0.53225 0.6515 0.0
H1965 H 0.42599 0.63877 0.6147 0.0
H1966 H 0.4669 0.68516 0.59226 0.0
H1967 H 0.42545 0.60153 0.55044 0.0
H1968 H 0.38467 0.55443 0.57272 0.0
H1969 H 0.18988 0.46184 0.62916 0.0
H1970 H 0.25339 0.51411 0.63227 0.0
H1971 H 0.2914 0.4627 0.59335 0.0
H1972 H 0.22834 0.40999 0.59055 0.0
H1973 H 0.32897 0.54587 0.59257 0.0
H1974 H 0.29003 0.43861 0.6337 0.0
H1975 H 0.24674 0.39595 0.6568 0.0
H1976 H 0.27238 0.48849 0.69194 0.0
H1977 H 0.31523 0.53176 0.66885 0.0
C1978 C 0.49307 0.58821 0.61712 0.0
C1979 C 0.51126 0.61404 0.63118 0.0
C1980 C 0.45447 0.56971 0.61569 0.0
C1981 C 0.43323 0.57663 0.62827 0.0
C1982 C 0.45102 0.6007 0.64295 0.0
C1983 C 0.48973 0.61936 0.64436 0.0
C1984 C 0.39268 0.55971 0.62548 0.0
C1985 C 0.36829 0.53581 0.63877 0.0
C1986 C 0.37823 0.56477 0.60898 0.0
C1987 C 0.40245 0.59297 0.59543 0.0
C1988 C 0.42578 0.63018 0.60075 0.0
C1989 C 0.44893 0.65663 0.58805 0.0
C1990 C 0.44883 0.64628 0.56994 0.0
C1991 C 0.4255 0.60948 0.56448 0.0
C1992 C 0.40232 0.5829 0.57714 0.0
C1993 C 0.21154 0.46237 0.62077 0.0
C1994 C 0.2044 0.43177 0.60974 0.0
C1995 C 0.24777 0.49217 0.62261 0.0
C1996 C 0.27697 0.49194 0.61316 0.0
C1997 C 0.26915 0.46332 0.60071 0.0
C1998 C 0.23318 0.43322 0.59916 0.0
C1999 C 0.316 0.51757 0.61829 0.0
C2000 C 0.34008 0.54303 0.60543 0.0
C2001 C 0.33005 0.51459 0.63535 0.0
C2002 C 0.30554 0.48843 0.6495 0.0
C2003 C 0.28629 0.44986 0.64632 0.0
C2004 C 0.26182 0.42557 0.65939 0.0
C2005 C 0.25675 0.43951 0.67581 0.0
C2006 C 0.27628 0.47774 0.67921 0.0
C2007 C 0.30065 0.50216 0.66613 0.0
H2008 H 0.23777 0.42069 0.68591 0.0
H2009 H 0.46677 0.6668 0.56012 0.0
H2010 H 0.26798 0.80026 0.90045 0.0
H2011 H 0.25701 0.73756 0.89451 0.0
H2012 H 0.16218 0.69212 0.9302 0.0
H2013 H 0.1722 0.75453 0.93575 0.0
H2014 H 0.2079 0.65346 0.92936 0.0
H2015 H 0.1424 0.69994 0.89025 0.0
H2016 H 0.14735 0.75047 0.87074 0.0
H2017 H 0.2243 0.73941 0.83603 0.0
H2018 H 0.2202 0.68916 0.85552 0.0
H2019 H 0.06936 0.47788 0.90372 0.0
H2020 H 0.10204 0.54449 0.90994 0.0
H2021 H 0.17241 0.56356 0.86339 0.0
H2022 H 0.13934 0.49661 0.85692 0.0
H2023 H 0.15186 0.61814 0.86766 0.0
H2024 H 0.20667 0.56224 0.90158 0.0
H2025 H 0.20872 0.51557 0.92134 0.0
H2026 H 0.16209 0.54713 0.9653 0.0
H2027 H 0.15882 0.59338 0.94563 0.0
C2028 C 0.24563 0.77706 0.90757 0.0
C2029 C 0.22063 0.7821 0.91841 0.0
C2030 C 0.2394 0.74129 0.90413 0.0
C2031 C 0.20869 0.71036 0.91185 0.0
C2032 C 0.18614 0.71574 0.92422 0.0
C2033 C 0.19181 0.75135 0.92732 0.0
C2034 C 0.19576 0.67266 0.90459 0.0
C2035 C 0.19563 0.64559 0.91591 0.0
C2036 C 0.18093 0.66294 0.8868 0.0
C2037 C 0.18111 0.69097 0.87434 0.0
C2038 C 0.1603 0.70825 0.87843 0.0
C2039 C 0.16304 0.7369 0.86742 0.0
C2040 C 0.18627 0.74822 0.85222 0.0
C2041 C 0.20646 0.73067 0.84786 0.0
C2042 C 0.20386 0.70206 0.85885 0.0
C2043 C 0.09105 0.49623 0.89449 0.0
C2044 C 0.10189 0.48193 0.87987 0.0
C2045 C 0.10999 0.53429 0.89818 0.0
C2046 C 0.14005 0.5588 0.88731 0.0
C2047 C 0.14944 0.54503 0.872 0.0
C2048 C 0.13062 0.50684 0.86837 0.0
C2049 C 0.1627 0.59836 0.89271 0.0
C2050 C 0.16465 0.62587 0.88101 0.0
C2051 C 0.17992 0.60857 0.91003 0.0
C2052 C 0.18216 0.58108 0.92205 0.0
C2053 C 0.19645 0.55897 0.91539 0.0
C2054 C 0.19784 0.53258 0.92658 0.0
C2055 C 0.18548 0.52833 0.94455 0.0
C2056 C 0.17165 0.55046 0.95136 0.0
C2057 C 0.17 0.57676 0.94019 0.0
H2058 H 0.18668 0.50796 0.95322 0.0
H2059 H 0.18846 0.77044 0.84374 0.0
H2060 H 0.41238 0.93375 0.64186 0.0
H2061 H 0.44879 0.9037 0.63544 0.0
H2062 H 0.34878 0.79665 0.6347 0.0
H2063 H 0.3121 0.82637 0.64081 0.0
H2064 H 0.40705 0.79552 0.65266 0.0
H2065 H 0.38408 0.83443 0.59555 0.0
H2066 H 0.38138 0.87811 0.57384 0.0
H2067 H 0.49925 0.94998 0.5784 0.0
H2068 H 0.50259 0.90701 0.60037 0.0
H2069 H 0.5228 0.72611 0.61999 0.0
H2070 H 0.46981 0.73666 0.61973 0.0
H2071 H 0.54523 0.85515 0.61897 0.0
H2072 H 0.59769 0.84496 0.61863 0.0
H2073 H 0.48758 0.83798 0.59794 0.0
H2074 H 0.50789 0.80412 0.65899 0.0
H2075 H 0.51158 0.76007 0.6801 0.0
H2076 H 0.39867 0.67845 0.66787 0.0
H2077 H 0.39464 0.72173 0.64631 0.0
C2078 C 0.39813 0.90384 0.64037 0.0
C2079 C 0.35931 0.88261 0.64174 0.0
C2080 C 0.41894 0.8867 0.63673 0.0
C2081 C 0.40132 0.84804 0.63434 0.0
C2082 C 0.36282 0.82653 0.63649 0.0
C2083 C 0.34194 0.84365 0.64009 0.0
C2084 C 0.42322 0.83048 0.62893 0.0
C2085 C 0.42419 0.80425 0.64054 0.0
C2086 C 0.44534 0.8418 0.61305 0.0
C2087 C 0.44353 0.86757 0.5997 0.0
C2088 C 0.4094 0.85966 0.59202 0.0
C2089 C 0.40776 0.88428 0.57966 0.0
C2090 C 0.44012 0.91682 0.57477 0.0
C2091 C 0.4742 0.92477 0.58221 0.0
C2092 C 0.47599 0.90026 0.5946 0.0
C2093 C 0.52794 0.75435 0.61948 0.0
C2094 C 0.56439 0.78472 0.61954 0.0
C2095 C 0.4977 0.76033 0.61938 0.0
C2096 C 0.50364 0.79672 0.61961 0.0
C2097 C 0.53997 0.82684 0.61878 0.0
C2098 C 0.57 0.82094 0.6187 0.0
C2099 C 0.47283 0.8044 0.62211 0.0
C2100 C 0.46994 0.82866 0.60989 0.0
C2101 C 0.44907 0.79135 0.63743 0.0
C2102 C 0.45107 0.76599 0.65093 0.0
C2103 C 0.48388 0.77675 0.66079 0.0
C2104 C 0.48605 0.75192 0.67281 0.0
C2105 C 0.45537 0.7165 0.67534 0.0
C2106 C 0.42242 0.70588 0.66589 0.0
C2107 C 0.42019 0.73052 0.65374 0.0
H2108 H 0.45714 0.69729 0.68463 0.0
H2109 H 0.43879 0.93586 0.5652 0.0
H2110 H 0.53436 0.59107 0.91131 0.0
H2111 H 0.46708 0.55091 0.91282 0.0
H2112 H 0.45406 0.60927 0.86761 0.0
H2113 H 0.52137 0.64897 0.86569 0.0
H2114 H 0.40816 0.60153 0.89721 0.0
H2115 H 0.44018 0.52585 0.86043 0.0
H2116 H 0.47419 0.49321 0.85276 0.0
H2117 H 0.43249 0.42707 0.90103 0.0
H2118 H 0.39862 0.4597 0.90913 0.0
H2119 H 0.21691 0.46989 0.87746 0.0
H2120 H 0.28284 0.51708 0.87902 0.0
H2121 H 0.30055 0.45049 0.91833 0.0
H2122 H 0.23529 0.40277 0.91613 0.0
H2123 H 0.3446 0.46437 0.89133 0.0
H2124 H 0.3124 0.53922 0.92858 0.0
H2125 H 0.27898 0.57213 0.93691 0.0
H2126 H 0.31995 0.6391 0.88887 0.0
H2127 H 0.35363 0.60654 0.88023 0.0
C2128 C 0.51734 0.59487 0.90141 0.0
C2129 C 0.53332 0.62343 0.88844 0.0
C2130 C 0.47885 0.57209 0.9024 0.0
C2131 C 0.45569 0.5774 0.89041 0.0
C2132 C 0.4715 0.60508 0.87711 0.0
C2133 C 0.50996 0.62768 0.87604 0.0
C2134 C 0.41491 0.55424 0.89189 0.0
C2135 C 0.39406 0.57154 0.89575 0.0
C2136 C 0.39686 0.51518 0.89034 0.0
C2137 C 0.41718 0.49549 0.88548 0.0
C2138 C 0.43852 0.50458 0.86949 0.0
C2139 C 0.45772 0.48603 0.86505 0.0
C2140 C 0.45558 0.45816 0.87642 0.0
C2141 C 0.43416 0.44871 0.89224 0.0
C2142 C 0.41494 0.4672 0.89676 0.0
C2143 C 0.23477 0.46597 0.8868 0.0
C2144 C 0.22135 0.43265 0.8965 0.0
C2145 C 0.27241 0.49295 0.88773 0.0
C2146 C 0.29674 0.48721 0.89871 0.0
C2147 C 0.28241 0.45533 0.90961 0.0
C2148 C 0.24514 0.42816 0.9084 0.0
C2149 C 0.33751 0.51141 0.89708 0.0
C2150 C 0.35848 0.49432 0.89298 0.0
C2151 C 0.35554 0.55058 0.89854 0.0
C2152 C 0.33526 0.57018 0.90367 0.0
C2153 C 0.31407 0.56077 0.91972 0.0
C2154 C 0.29516 0.57943 0.92452 0.0
C2155 C 0.29718 0.60756 0.91338 0.0
C2156 C 0.31834 0.61725 0.89747 0.0
C2157 C 0.33746 0.59879 0.89264 0.0
H2158 H 0.28242 0.62189 0.91709 0.0
H2159 H 0.47046 0.44382 0.87295 0.0
loop_
_geom_bond_atom_site_label_1
_geom_bond_atom_site_label_2
_geom_bond_distance
_geom_bond_site_symmetry_2
_ccdc_geom_bond_type
Co0 N5 2.057 . S
Co0 O17 2.021 . S
Co0 O20 2.062 . S
Co0 O24 2.117 . S
Co0 O25 2.020 . S
C1 O21 1.259 . S
C1 O24 1.258 . S
Co2 N11 2.057 . S
Co2 O18 2.117 . S
Co2 O19 2.020 . S
Co2 O21 2.021 . S
Co2 O26 2.062 . S
C3 N5 1.316 . S
C3 N6 1.347 . S
C3 H8 0.931 . S
C4 N5 1.375 . S
C4 C7 1.350 . S
C4 H9 0.930 . S
N5 Co0 2.057 . S
N5 C3 1.316 . S
N5 C4 1.375 . S
N6 C3 1.347 . S
N6 C7 1.373 . S
C7 C4 1.350 . S
C7 N6 1.373 . S
C7 H28 0.931 . S
H8 C3 0.931 . S
H9 C4 0.930 . S
C10 O17 1.259 . S
C10 O18 1.258 . S
N11 Co2 2.057 . S
N11 C12 1.316 . S
N11 C13 1.375 . S
C12 N11 1.316 . S
C12 N14 1.347 . S
C12 H23 0.931 . S
C13 N11 1.375 . S
C13 C15 1.350 . S
C13 H22 0.930 . S
N14 C12 1.347 . S
N14 C15 1.373 . S
C15 C13 1.350 . S
C15 N14 1.373 . S
C15 H29 0.931 . S
C16 O19 1.256 . S
C16 O20 1.255 . S
O17 Co0 2.021 . S
O17 C10 1.259 . S
O18 Co2 2.117 . S
O18 C10 1.258 . S
O19 Co2 2.020 . S
O19 C16 1.256 . S
O20 Co0 2.062 . S
O20 C16 1.255 . S
O21 C1 1.259 . S
O21 Co2 2.021 . S
H22 C13 0.930 . S
H23 C12 0.931 . S
O24 Co0 2.117 . S
O24 C1 1.258 . S
O25 Co0 2.020 . S
O25 C27 1.256 . S
O26 Co2 2.062 . S
O26 C27 1.255 . S
C27 O25 1.256 . S
C27 O26 1.255 . S
H28 C7 0.931 . S
H29 C15 0.931 . S
Co30 N35 2.057 . S
Co30 O47 2.021 . S
Co30 O50 2.062 . S
Co30 O54 2.117 . S
Co30 O55 2.020 . S
C31 O51 1.259 . S
C31 O54 1.258 . S
Co32 N41 2.057 . S
Co32 O48 2.117 . S
Co32 O49 2.020 . S
Co32 O51 2.021 . S
Co32 O56 2.062 . S
C33 N35 1.316 . S
C33 N36 1.347 . S
C33 H38 0.931 . S
C34 N35 1.375 . S
C34 C37 1.350 . S
C34 H39 0.930 . S
N35 Co30 2.057 . S
N35 C33 1.316 . S
N35 C34 1.375 . S
N36 C33 1.347 . S
N36 C37 1.373 . S
C37 C34 1.350 . S
C37 N36 1.373 . S
C37 H58 0.931 . S
H38 C33 0.931 . S
H39 C34 0.930 . S
C40 O47 1.259 . S
C40 O48 1.258 . S
N41 Co32 2.057 . S
N41 C42 1.316 . S
N41 C43 1.375 . S
C42 N41 1.316 . S
C42 N44 1.347 . S
C42 H53 0.931 . S
C43 N41 1.375 . S
C43 C45 1.350 . S
C43 H52 0.930 . S
N44 C42 1.347 . S
N44 C45 1.373 . S
C45 C43 1.350 . S
C45 N44 1.373 . S
C45 H59 0.931 . S
C46 O49 1.256 . S
C46 O50 1.255 . S
O47 Co30 2.021 . S
O47 C40 1.259 . S
O48 Co32 2.117 . S
O48 C40 1.258 . S
O49 Co32 2.020 . S
O49 C46 1.256 . S
O50 Co30 2.062 . S
O50 C46 1.255 . S
O51 C31 1.259 . S
O51 Co32 2.021 . S
H52 C43 0.930 . S
H53 C42 0.931 . S
O54 Co30 2.117 . S
O54 C31 1.258 . S
O55 Co30 2.020 . S
O55 C57 1.256 . S
O56 Co32 2.062 . S
O56 C57 1.255 . S
C57 O55 1.256 . S
C57 O56 1.255 . S
H58 C37 0.931 . S
H59 C45 0.931 . S
Co60 N65 2.057 . S
Co60 O77 2.021 . S
Co60 O80 2.062 . S
Co60 O84 2.117 . S
Co60 O85 2.020 . S
C61 O81 1.259 . S
C61 O84 1.258 . S
Co62 N71 2.057 . S
Co62 O78 2.117 . S
Co62 O79 2.020 . S
Co62 O81 2.021 . S
Co62 O86 2.062 . S
C63 N65 1.316 . S
C63 N66 1.347 . S
C63 H68 0.931 . S
C64 N65 1.375 . S
C64 C67 1.350 . S
C64 H69 0.930 . S
N65 Co60 2.057 . S
N65 C63 1.316 . S
N65 C64 1.375 . S
N66 C63 1.347 . S
N66 C67 1.373 . S
C67 C64 1.350 . S
C67 N66 1.373 . S
C67 H88 0.931 . S
H68 C63 0.931 . S
H69 C64 0.930 . S
C70 O77 1.259 . S
C70 O78 1.258 . S
N71 Co62 2.057 . S
N71 C72 1.316 . S
N71 C73 1.375 . S
C72 N71 1.316 . S
C72 N74 1.347 . S
C72 H83 0.931 . S
C73 N71 1.375 . S
C73 C75 1.350 . S
C73 H82 0.930 . S
N74 C72 1.347 . S
N74 C75 1.373 . S
C75 C73 1.350 . S
C75 N74 1.373 . S
C75 H89 0.931 . S
C76 O79 1.256 . S
C76 O80 1.255 . S
O77 Co60 2.021 . S
O77 C70 1.259 . S
O78 Co62 2.117 . S
O78 C70 1.258 . S
O79 Co62 2.020 . S
O79 C76 1.256 . S
O80 Co60 2.062 . S
O80 C76 1.255 . S
O81 C61 1.259 . S
O81 Co62 2.021 . S
H82 C73 0.930 . S
H83 C72 0.931 . S
O84 Co60 2.117 . S
O84 C61 1.258 . S
O85 Co60 2.020 . S
O85 C87 1.256 . S
O86 Co62 2.062 . S
O86 C87 1.255 . S
C87 O85 1.256 . S
C87 O86 1.255 . S
H88 C67 0.931 . S
H89 C75 0.931 . S
Co90 N95 2.057 . S
Co90 O107 2.021 . S
Co90 O110 2.062 . S
Co90 O114 2.117 . S
Co90 O115 2.020 . S
C91 O111 1.259 . S
C91 O114 1.258 . S
Co92 N101 2.057 . S
Co92 O108 2.117 . S
Co92 O109 2.020 . S
Co92 O111 2.021 . S
Co92 O116 2.062 . S
C93 N95 1.316 . S
C93 N96 1.347 1_545 S
C93 H98 0.931 . S
C94 N95 1.375 . S
C94 C97 1.350 1_545 S
C94 H99 0.930 . S
N95 Co90 2.057 . S
N95 C93 1.316 . S
N95 C94 1.375 . S
N96 C93 1.347 1_565 S
N96 C97 1.373 . S
C97 C94 1.350 1_565 S
C97 N96 1.373 . S
C97 H118 0.931 . S
H98 C93 0.931 . S
H99 C94 0.930 . S
C100 O107 1.259 . S
C100 O108 1.258 . S
N101 Co92 2.057 . S
N101 C102 1.316 . S
N101 C103 1.375 . S
C102 N101 1.316 . S
C102 N104 1.347 . S
C102 H113 0.931 . S
C103 N101 1.375 . S
C103 C105 1.350 . S
C103 H112 0.930 . S
N104 C102 1.347 . S
N104 C105 1.373 . S
C105 C103 1.350 . S
C105 N104 1.373 . S
C105 H119 0.931 . S
C106 O109 1.256 . S
C106 O110 1.255 . S
O107 Co90 2.021 . S
O107 C100 1.259 . S
O108 Co92 2.117 . S
O108 C100 1.258 . S
O109 Co92 2.020 . S
O109 C106 1.256 . S
O110 Co90 2.062 . S
O110 C106 1.255 . S
O111 C91 1.259 . S
O111 Co92 2.021 . S
H112 C103 0.930 . S
H113 C102 0.931 . S
O114 Co90 2.117 . S
O114 C91 1.258 . S
O115 Co90 2.020 . S
O115 C117 1.256 . S
O116 Co92 2.062 . S
O116 C117 1.255 . S
C117 O115 1.256 . S
C117 O116 1.255 . S
H118 C97 0.931 . S
H119 C105 0.931 . S
Co120 N125 2.057 . S
Co120 O137 2.021 . S
Co120 O140 2.062 . S
Co120 O144 2.117 . S
Co120 O145 2.020 . S
C121 O141 1.259 . S
C121 O144 1.258 . S
Co122 N131 2.057 . S
Co122 O138 2.117 . S
Co122 O139 2.020 . S
Co122 O141 2.021 . S
Co122 O146 2.062 . S
C123 N125 1.316 . S
C123 N126 1.347 . S
C123 H128 0.931 . S
C124 N125 1.375 . S
C124 C127 1.350 . S
C124 H129 0.930 . S
N125 Co120 2.057 . S
N125 C123 1.316 . S
N125 C124 1.375 . S
N126 C123 1.347 . S
N126 C127 1.373 . S
C127 C124 1.350 . S
C127 N126 1.373 . S
C127 H148 0.931 . S
H128 C123 0.931 . S
H129 C124 0.930 . S
C130 O137 1.259 . S
C130 O138 1.258 . S
N131 Co122 2.057 . S
N131 C132 1.316 . S
N131 C133 1.375 . S
C132 N131 1.316 . S
C132 N134 1.347 . S
C132 H143 0.931 . S
C133 N131 1.375 . S
C133 C135 1.350 . S
C133 H142 0.930 . S
N134 C132 1.347 . S
N134 C135 1.373 . S
C135 C133 1.350 . S
C135 N134 1.373 . S
C135 H149 0.931 . S
C136 O139 1.256 . S
C136 O140 1.255 . S
O137 Co120 2.021 . S
O137 C130 1.259 . S
O138 Co122 2.117 . S
O138 C130 1.258 . S
O139 Co122 2.020 . S
O139 C136 1.256 . S
O140 Co120 2.062 . S
O140 C136 1.255 . S
O141 C121 1.259 . S
O141 Co122 2.021 . S
H142 C133 0.930 . S
H143 C132 0.931 . S
O144 Co120 2.117 . S
O144 C121 1.258 . S
O145 Co120 2.020 . S
O145 C147 1.256 . S
O146 Co122 2.062 . S
O146 C147 1.255 . S
C147 O145 1.256 . S
C147 O146 1.255 . S
H148 C127 0.931 . S
H149 C135 0.931 . S
Co150 N155 2.057 . S
Co150 O167 2.021 . S
Co150 O170 2.062 . S
Co150 O174 2.117 . S
Co150 O175 2.020 . S
C151 O171 1.259 . S
C151 O174 1.258 . S
Co152 N161 2.057 . S
Co152 O168 2.117 . S
Co152 O169 2.020 . S
Co152 O171 2.021 . S
Co152 O176 2.062 . S
C153 N155 1.316 . S
C153 N156 1.347 1_655 S
C153 H158 0.931 . S
C154 N155 1.375 . S
C154 C157 1.350 1_655 S
C154 H159 0.930 . S
N155 Co150 2.057 . S
N155 C153 1.316 . S
N155 C154 1.375 . S
N156 C153 1.347 1_455 S
N156 C157 1.373 . S
C157 C154 1.350 1_455 S
C157 N156 1.373 . S
C157 H178 0.931 . S
H158 C153 0.931 . S
H159 C154 0.930 . S
C160 O167 1.259 . S
C160 O168 1.258 . S
N161 Co152 2.057 . S
N161 C162 1.316 . S
N161 C163 1.375 . S
C162 N161 1.316 . S
C162 N164 1.347 . S
C162 H173 0.931 . S
C163 N161 1.375 . S
C163 C165 1.350 . S
C163 H172 0.930 . S
N164 C162 1.347 . S
N164 C165 1.373 . S
C165 C163 1.350 . S
C165 N164 1.373 . S
C165 H179 0.931 . S
C166 O169 1.256 . S
C166 O170 1.255 . S
O167 Co150 2.021 . S
O167 C160 1.259 . S
O168 Co152 2.117 . S
O168 C160 1.258 . S
O169 Co152 2.020 . S
O169 C166 1.256 . S
O170 Co150 2.062 . S
O170 C166 1.255 . S
O171 C151 1.259 . S
O171 Co152 2.021 . S
H172 C163 0.930 . S
H173 C162 0.931 . S
O174 Co150 2.117 . S
O174 C151 1.258 . S
O175 Co150 2.020 . S
O175 C177 1.256 . S
O176 Co152 2.062 . S
O176 C177 1.255 . S
C177 O175 1.256 . S
C177 O176 1.255 . S
H178 C157 0.931 . S
H179 C165 0.931 . S
Co180 N185 2.057 . S
Co180 O197 2.021 . S
Co180 O200 2.062 . S
Co180 O204 2.117 . S
Co180 O205 2.020 . S
C181 O201 1.259 . S
C181 O204 1.258 . S
Co182 N191 2.057 . S
Co182 O198 2.117 . S
Co182 O199 2.020 . S
Co182 O201 2.021 . S
Co182 O206 2.062 . S
C183 N185 1.316 . S
C183 N186 1.347 . S
C183 H188 0.931 . S
C184 N185 1.375 . S
C184 C187 1.350 . S
C184 H189 0.930 . S
N185 Co180 2.057 . S
N185 C183 1.316 . S
N185 C184 1.375 . S
N186 C183 1.347 . S
N186 C187 1.373 . S
C187 C184 1.350 . S
C187 N186 1.373 . S
C187 H208 0.931 . S
H188 C183 0.931 . S
H189 C184 0.930 . S
C190 O197 1.259 . S
C190 O198 1.258 . S
N191 Co182 2.057 . S
N191 C192 1.316 . S
N191 C193 1.375 . S
C192 N191 1.316 . S
C192 N194 1.347 . S
C192 H203 0.931 . S
C193 N191 1.375 . S
C193 C195 1.350 . S
C193 H202 0.930 . S
N194 C192 1.347 . S
N194 C195 1.373 . S
C195 C193 1.350 . S
C195 N194 1.373 . S
C195 H209 0.931 . S
C196 O199 1.256 . S
C196 O200 1.255 . S
O197 Co180 2.021 . S
O197 C190 1.259 . S
O198 Co182 2.117 . S
O198 C190 1.258 . S
O199 Co182 2.020 . S
O199 C196 1.256 . S
O200 Co180 2.062 . S
O200 C196 1.255 . S
O201 C181 1.259 . S
O201 Co182 2.021 . S
H202 C193 0.930 . S
H203 C192 0.931 . S
O204 Co180 2.117 . S
O204 C181 1.258 . S
O205 Co180 2.020 . S
O205 C207 1.256 . S
O206 Co182 2.062 . S
O206 C207 1.255 . S
C207 O205 1.256 . S
C207 O206 1.255 . S
H208 C187 0.931 . S
H209 C195 0.931 . S
Co210 N215 2.057 . S
Co210 O227 2.021 . S
Co210 O230 2.062 . S
Co210 O234 2.117 . S
Co210 O235 2.020 . S
C211 O231 1.259 . S
C211 O234 1.258 . S
Co212 N221 2.057 . S
Co212 O228 2.117 . S
Co212 O229 2.020 . S
Co212 O231 2.021 . S
Co212 O236 2.062 . S
C213 N215 1.316 . S
C213 N216 1.347 . S
C213 H218 0.931 . S
C214 N215 1.375 . S
C214 C217 1.350 . S
C214 H219 0.930 . S
N215 Co210 2.057 . S
N215 C213 1.316 . S
N215 C214 1.375 . S
N216 C213 1.347 . S
N216 C217 1.373 . S
C217 C214 1.350 . S
C217 N216 1.373 . S
C217 H238 0.931 . S
H218 C213 0.931 . S
H219 C214 0.930 . S
C220 O227 1.259 . S
C220 O228 1.258 . S
N221 Co212 2.057 . S
N221 C222 1.316 . S
N221 C223 1.375 . S
C222 N221 1.316 . S
C222 N224 1.347 . S
C222 H233 0.931 . S
C223 N221 1.375 . S
C223 C225 1.350 . S
C223 H232 0.930 . S
N224 C222 1.347 . S
N224 C225 1.373 . S
C225 C223 1.350 . S
C225 N224 1.373 . S
C225 H239 0.931 . S
C226 O229 1.256 . S
C226 O230 1.255 . S
O227 Co210 2.021 . S
O227 C220 1.259 . S
O228 Co212 2.117 . S
O228 C220 1.258 . S
O229 Co212 2.020 . S
O229 C226 1.256 . S
O230 Co210 2.062 . S
O230 C226 1.255 . S
O231 C211 1.259 . S
O231 Co212 2.021 . S
H232 C223 0.930 . S
H233 C222 0.931 . S
O234 Co210 2.117 . S
O234 C211 1.258 . S
O235 Co210 2.020 . S
O235 C237 1.256 . S
O236 Co212 2.062 . S
O236 C237 1.255 . S
C237 O235 1.256 . S
C237 O236 1.255 . S
H238 C217 0.931 . S
H239 C225 0.931 . S
Co240 N245 2.057 . S
Co240 O257 2.021 . S
Co240 O260 2.062 . S
Co240 O264 2.117 . S
Co240 O265 2.020 . S
C241 O261 1.259 . S
C241 O264 1.258 . S
Co242 N251 2.057 . S
Co242 O258 2.117 . S
Co242 O259 2.020 . S
Co242 O261 2.021 . S
Co242 O266 2.062 . S
C243 N245 1.316 . S
C243 N246 1.347 . S
C243 H248 0.931 . S
C244 N245 1.375 . S
C244 C247 1.350 . S
C244 H249 0.930 . S
N245 Co240 2.057 . S
N245 C243 1.316 . S
N245 C244 1.375 . S
N246 C243 1.347 . S
N246 C247 1.373 . S
C247 C244 1.350 . S
C247 N246 1.373 . S
C247 H268 0.931 . S
H248 C243 0.931 . S
H249 C244 0.930 . S
C250 O257 1.259 . S
C250 O258 1.258 . S
N251 Co242 2.057 . S
N251 C252 1.316 . S
N251 C253 1.375 . S
C252 N251 1.316 . S
C252 N254 1.347 . S
C252 H263 0.931 . S
C253 N251 1.375 . S
C253 C255 1.350 . S
C253 H262 0.930 . S
N254 C252 1.347 . S
N254 C255 1.373 . S
C255 C253 1.350 . S
C255 N254 1.373 . S
C255 H269 0.931 . S
C256 O259 1.256 . S
C256 O260 1.255 . S
O257 Co240 2.021 . S
O257 C250 1.259 . S
O258 Co242 2.117 . S
O258 C250 1.258 . S
O259 Co242 2.020 . S
O259 C256 1.256 . S
O260 Co240 2.062 . S
O260 C256 1.255 . S
O261 C241 1.259 . S
O261 Co242 2.021 . S
H262 C253 0.930 . S
H263 C252 0.931 . S
O264 Co240 2.117 . S
O264 C241 1.258 . S
O265 Co240 2.020 . S
O265 C267 1.256 . S
O266 Co242 2.062 . S
O266 C267 1.255 . S
C267 O265 1.256 . S
C267 O266 1.255 . S
H268 C247 0.931 . S
H269 C255 0.931 . S
Co270 N275 2.057 . S
Co270 O287 2.021 . S
Co270 O290 2.062 . S
Co270 O294 2.117 . S
Co270 O295 2.020 . S
C271 O291 1.259 . S
C271 O294 1.258 . S
Co272 N281 2.057 . S
Co272 O288 2.117 . S
Co272 O289 2.020 . S
Co272 O291 2.021 . S
Co272 O296 2.062 . S
C273 N275 1.316 . S
C273 N276 1.347 . S
C273 H278 0.931 . S
C274 N275 1.375 . S
C274 C277 1.350 . S
C274 H279 0.930 . S
N275 Co270 2.057 . S
N275 C273 1.316 . S
N275 C274 1.375 . S
N276 C273 1.347 . S
N276 C277 1.373 . S
C277 C274 1.350 . S
C277 N276 1.373 . S
C277 H298 0.931 . S
H278 C273 0.931 . S
H279 C274 0.930 . S
C280 O287 1.259 . S
C280 O288 1.258 . S
N281 Co272 2.057 . S
N281 C282 1.316 . S
N281 C283 1.375 . S
C282 N281 1.316 . S
C282 N284 1.347 . S
C282 H293 0.931 . S
C283 N281 1.375 . S
C283 C285 1.350 . S
C283 H292 0.930 . S
N284 C282 1.347 . S
N284 C285 1.373 . S
C285 C283 1.350 . S
C285 N284 1.373 . S
C285 H299 0.931 . S
C286 O289 1.256 . S
C286 O290 1.255 . S
O287 Co270 2.021 . S
O287 C280 1.259 . S
O288 Co272 2.117 . S
O288 C280 1.258 . S
O289 Co272 2.020 . S
O289 C286 1.256 . S
O290 Co270 2.062 . S
O290 C286 1.255 . S
O291 C271 1.259 . S
O291 Co272 2.021 . S
H292 C283 0.930 . S
H293 C282 0.931 . S
O294 Co270 2.117 . S
O294 C271 1.258 . S
O295 Co270 2.020 . S
O295 C297 1.256 . S
O296 Co272 2.062 . S
O296 C297 1.255 . S
C297 O295 1.256 . S
C297 O296 1.255 . S
H298 C277 0.931 . S
H299 C285 0.931 . S
Co300 N305 2.057 . S
Co300 O317 2.021 . S
Co300 O320 2.062 . S
Co300 O324 2.117 . S
Co300 O325 2.020 . S
C301 O321 1.259 . S
C301 O324 1.258 . S
Co302 N311 2.057 . S
Co302 O318 2.117 . S
Co302 O319 2.020 . S
Co302 O321 2.021 . S
Co302 O326 2.062 . S
C303 N305 1.316 . S
C303 N306 1.347 . S
C303 H308 0.931 . S
C304 N305 1.375 . S
C304 C307 1.350 . S
C304 H309 0.930 . S
N305 Co300 2.057 . S
N305 C303 1.316 . S
N305 C304 1.375 . S
N306 C303 1.347 . S
N306 C307 1.373 . S
C307 C304 1.350 . S
C307 N306 1.373 . S
C307 H328 0.931 . S
H308 C303 0.931 . S
H309 C304 0.930 . S
C310 O317 1.259 . S
C310 O318 1.258 . S
N311 Co302 2.057 . S
N311 C312 1.316 . S
N311 C313 1.375 . S
C312 N311 1.316 . S
C312 N314 1.347 . S
C312 H323 0.931 . S
C313 N311 1.375 . S
C313 C315 1.350 . S
C313 H322 0.930 . S
N314 C312 1.347 . S
N314 C315 1.373 . S
C315 C313 1.350 . S
C315 N314 1.373 . S
C315 H329 0.931 . S
C316 O319 1.256 . S
C316 O320 1.255 . S
O317 Co300 2.021 . S
O317 C310 1.259 . S
O318 Co302 2.117 . S
O318 C310 1.258 . S
O319 Co302 2.020 . S
O319 C316 1.256 . S
O320 Co300 2.062 . S
O320 C316 1.255 . S
O321 C301 1.259 . S
O321 Co302 2.021 . S
H322 C313 0.930 . S
H323 C312 0.931 . S
O324 Co300 2.117 . S
O324 C301 1.258 . S
O325 Co300 2.020 . S
O325 C327 1.256 . S
O326 Co302 2.062 . S
O326 C327 1.255 . S
C327 O325 1.256 . S
C327 O326 1.255 . S
H328 C307 0.931 . S
H329 C315 0.931 . S
Co330 N335 2.057 . S
Co330 O347 2.021 . S
Co330 O350 2.062 . S
Co330 O354 2.117 . S
Co330 O355 2.020 . S
C331 O351 1.259 . S
C331 O354 1.258 . S
Co332 N341 2.057 . S
Co332 O348 2.117 . S
Co332 O349 2.020 . S
Co332 O351 2.021 . S
Co332 O356 2.062 . S
C333 N335 1.316 . S
C333 N336 1.347 . S
C333 H338 0.931 . S
C334 N335 1.375 . S
C334 C337 1.350 . S
C334 H339 0.930 . S
N335 Co330 2.057 . S
N335 C333 1.316 . S
N335 C334 1.375 . S
N336 C333 1.347 . S
N336 C337 1.373 . S
C337 C334 1.350 . S
C337 N336 1.373 . S
C337 H358 0.931 . S
H338 C333 0.931 . S
H339 C334 0.930 . S
C340 O347 1.259 . S
C340 O348 1.258 . S
N341 Co332 2.057 . S
N341 C342 1.316 . S
N341 C343 1.375 . S
C342 N341 1.316 . S
C342 N344 1.347 . S
C342 H353 0.931 . S
C343 N341 1.375 . S
C343 C345 1.350 . S
C343 H352 0.930 . S
N344 C342 1.347 . S
N344 C345 1.373 . S
C345 C343 1.350 . S
C345 N344 1.373 . S
C345 H359 0.931 . S
C346 O349 1.256 . S
C346 O350 1.255 . S
O347 Co330 2.021 . S
O347 C340 1.259 . S
O348 Co332 2.117 . S
O348 C340 1.258 . S
O349 Co332 2.020 . S
O349 C346 1.256 . S
O350 Co330 2.062 . S
O350 C346 1.255 . S
O351 C331 1.259 . S
O351 Co332 2.021 . S
H352 C343 0.930 . S
H353 C342 0.931 . S
O354 Co330 2.117 . S
O354 C331 1.258 . S
O355 Co330 2.020 . S
O355 C357 1.256 . S
O356 Co332 2.062 . S
O356 C357 1.255 . S
C357 O355 1.256 . S
C357 O356 1.255 . S
H358 C337 0.931 . S
H359 C345 0.931 . S
H360 C378 0.951 . S
H361 C380 0.951 . S
H362 C382 0.950 . S
H363 C383 0.950 . S
H364 C385 0.950 . S
H365 C388 0.950 1_455 S
H366 C389 0.950 . S
H367 C391 0.950 . S
H368 C392 0.950 1_455 S
H369 C393 0.951 . S
H370 C395 0.951 . S
H371 C397 0.950 . S
H372 C398 0.950 . S
H373 C400 0.950 . S
H374 C403 0.950 . S
H375 C404 0.950 . S
H376 C406 0.950 . S
H377 C407 0.950 . S
C378 H360 0.951 . S
C378 C379 1.366 . S
C378 C380 1.388 . S
C379 C378 1.366 . S
C379 C383 1.385 . S
C380 H361 0.951 . S
C380 C378 1.388 . S
C380 C381 1.366 1_655 S
C381 C380 1.366 1_455 S
C381 C382 1.414 . S
C381 C384 1.499 . S
C382 H362 0.950 . S
C382 C381 1.414 . S
C382 C383 1.374 1_455 S
C383 H363 0.950 . S
C383 C379 1.385 . S
C383 C382 1.374 1_655 S
C384 C381 1.499 . S
C384 C385 1.373 . S
C384 C386 1.389 . S
C385 H364 0.950 . S
C385 C384 1.373 . S
C385 C401 1.377 . S
C386 C384 1.389 . S
C386 C387 1.524 . S
C386 C400 1.377 . S
C387 C386 1.524 . S
C387 C388 1.381 1_455 S
C387 C392 1.363 1_455 S
C388 H365 0.950 1_655 S
C388 C387 1.381 1_655 S
C388 C389 1.351 . S
C389 H366 0.950 . S
C389 C388 1.351 . S
C389 C390 1.287 . S
C390 C389 1.287 . S
C390 C391 1.524 . S
C390 H409 0.913 . S
C391 H367 0.950 . S
C391 C390 1.524 . S
C391 C392 1.415 . S
C392 H368 0.950 1_655 S
C392 C387 1.363 1_655 S
C392 C391 1.415 . S
C393 H369 0.951 . S
C393 C394 1.366 . S
C393 C395 1.388 . S
C394 C393 1.366 . S
C394 C398 1.385 . S
C395 H370 0.951 . S
C395 C393 1.388 . S
C395 C396 1.366 . S
C396 C395 1.366 . S
C396 C397 1.414 . S
C396 C399 1.499 . S
C397 H371 0.950 . S
C397 C396 1.414 . S
C397 C398 1.374 . S
C398 H372 0.950 . S
C398 C394 1.385 . S
C398 C397 1.374 . S
C399 C396 1.499 . S
C399 C400 1.373 . S
C399 C401 1.389 . S
C400 H373 0.950 . S
C400 C386 1.377 . S
C400 C399 1.373 . S
C401 C385 1.377 . S
C401 C399 1.389 . S
C401 C402 1.524 . S
C402 C401 1.524 . S
C402 C403 1.397 . S
C402 C407 1.363 . S
C403 H374 0.950 . S
C403 C402 1.397 . S
C403 C404 1.334 . S
C404 H375 0.950 . S
C404 C403 1.334 . S
C404 C405 1.287 . S
C405 C404 1.287 . S
C405 C406 1.524 . S
C405 H408 0.999 . S
C406 H376 0.950 . S
C406 C405 1.524 . S
C406 C407 1.415 . S
C407 H377 0.950 . S
C407 C402 1.363 . S
C407 C406 1.415 . S
H408 C405 0.999 . S
H409 C390 0.913 . S
H410 C428 0.951 . S
H411 C430 0.951 . S
H412 C432 0.950 . S
H413 C433 0.950 1_545 S
H414 C435 0.950 . S
H415 C438 0.950 . S
H416 C439 0.950 . S
H417 C441 0.950 . S
H418 C442 0.950 . S
H419 C443 0.951 . S
H420 C445 0.951 . S
H421 C447 0.950 . S
H422 C448 0.950 . S
H423 C450 0.950 . S
H424 C453 0.950 . S
H425 C454 0.950 . S
H426 C456 0.950 . S
H427 C457 0.950 . S
C428 H410 0.951 . S
C428 C429 1.366 . S
C428 C430 1.388 . S
C429 C428 1.366 . S
C429 C433 1.385 . S
C430 H411 0.951 . S
C430 C428 1.388 . S
C430 C431 1.366 . S
C431 C430 1.366 . S
C431 C432 1.414 . S
C431 C434 1.499 . S
C432 H412 0.950 . S
C432 C431 1.414 . S
C432 C433 1.374 . S
C433 H413 0.950 1_565 S
C433 C429 1.385 . S
C433 C432 1.374 . S
C434 C431 1.499 . S
C434 C435 1.373 . S
C434 C436 1.389 . S
C435 H414 0.950 . S
C435 C434 1.373 . S
C435 C451 1.377 . S
C436 C434 1.389 . S
C436 C437 1.524 . S
C436 C450 1.377 . S
C437 C436 1.524 . S
C437 C438 1.397 . S
C437 C442 1.363 . S
C438 H415 0.950 . S
C438 C437 1.397 . S
C438 C439 1.334 . S
C439 H416 0.950 . S
C439 C438 1.334 . S
C439 C440 1.287 . S
C440 C439 1.287 . S
C440 C441 1.524 . S
C440 H459 0.913 . S
C441 H417 0.950 . S
C441 C440 1.524 . S
C441 C442 1.415 . S
C442 H418 0.950 . S
C442 C437 1.363 . S
C442 C441 1.415 . S
C443 H419 0.951 . S
C443 C444 1.366 . S
C443 C445 1.388 . S
C444 C443 1.366 . S
C444 C448 1.385 . S
C445 H420 0.951 . S
C445 C443 1.388 . S
C445 C446 1.366 . S
C446 C445 1.366 . S
C446 C447 1.414 . S
C446 C449 1.499 1_655 S
C447 H421 0.950 . S
C447 C446 1.414 . S
C447 C448 1.374 . S
C448 H422 0.950 . S
C448 C444 1.385 . S
C448 C447 1.374 . S
C449 C446 1.499 1_455 S
C449 C450 1.373 . S
C449 C451 1.389 . S
C450 H423 0.950 . S
C450 C436 1.377 . S
C450 C449 1.373 . S
C451 C435 1.377 . S
C451 C449 1.389 . S
C451 C452 1.524 . S
C452 C451 1.524 . S
C452 C453 1.397 1_455 S
C452 C457 1.363 . S
C453 H424 0.950 . S
C453 C452 1.397 1_655 S
C453 C454 1.334 . S
C454 H425 0.950 . S
C454 C453 1.334 . S
C454 C455 1.287 . S
C455 C454 1.287 . S
C455 C456 1.524 . S
C455 H458 0.999 . S
C456 H426 0.950 . S
C456 C455 1.524 . S
C456 C457 1.415 1_655 S
C457 H427 0.950 . S
C457 C452 1.363 . S
C457 C456 1.415 1_455 S
H458 C455 0.999 . S
H459 C440 0.913 . S
H460 C478 0.951 . S
H461 C480 0.951 . S
H462 C482 0.950 . S
H463 C483 0.950 . S
H464 C485 0.950 . S
H465 C488 0.950 . S
H466 C489 0.950 . S
H467 C491 0.950 . S
H468 C492 0.950 . S
H469 C493 0.951 . S
H470 C495 0.951 . S
H471 C497 0.950 . S
H472 C498 0.950 . S
H473 C500 0.950 . S
H474 C503 0.950 . S
H475 C504 0.950 . S
H476 C506 0.950 . S
H477 C507 0.950 . S
C478 H460 0.951 . S
C478 C479 1.366 . S
C478 C480 1.388 1_545 S
C479 C478 1.366 . S
C479 C483 1.385 . S
C480 H461 0.951 . S
C480 C478 1.388 1_565 S
C480 C481 1.366 . S
C481 C480 1.366 . S
C481 C482 1.414 . S
C481 C484 1.499 . S
C482 H462 0.950 . S
C482 C481 1.414 . S
C482 C483 1.374 1_565 S
C483 H463 0.950 . S
C483 C479 1.385 . S
C483 C482 1.374 1_545 S
C484 C481 1.499 . S
C484 C485 1.373 . S
C484 C486 1.389 . S
C485 H464 0.950 . S
C485 C484 1.373 . S
C485 C501 1.377 . S
C486 C484 1.389 . S
C486 C487 1.524 . S
C486 C500 1.377 . S
C487 C486 1.524 . S
C487 C488 1.397 . S
C487 C492 1.363 . S
C488 H465 0.950 . S
C488 C487 1.397 . S
C488 C489 1.334 . S
C489 H466 0.950 . S
C489 C488 1.334 . S
C489 C490 1.287 . S
C490 C489 1.287 . S
C490 C491 1.524 . S
C490 H509 0.913 . S
C491 H467 0.950 . S
C491 C490 1.524 . S
C491 C492 1.415 . S
C492 H468 0.950 . S
C492 C487 1.363 . S
C492 C491 1.415 . S
C493 H469 0.951 . S
C493 C494 1.366 . S
C493 C495 1.388 . S
C494 C493 1.366 . S
C494 C498 1.385 . S
C495 H470 0.951 . S
C495 C493 1.388 . S
C495 C496 1.366 . S
C496 C495 1.366 . S
C496 C497 1.414 . S
C496 C499 1.499 . S
C497 H471 0.950 . S
C497 C496 1.414 . S
C497 C498 1.374 . S
C498 H472 0.950 . S
C498 C494 1.385 . S
C498 C497 1.374 . S
C499 C496 1.499 . S
C499 C500 1.373 . S
C499 C501 1.389 . S
C500 H473 0.950 . S
C500 C486 1.377 . S
C500 C499 1.373 . S
C501 C485 1.377 . S
C501 C499 1.389 . S
C501 C502 1.524 . S
C502 C501 1.524 . S
C502 C503 1.397 . S
C502 C507 1.363 . S
C503 H474 0.950 . S
C503 C502 1.397 . S
C503 C504 1.334 . S
C504 H475 0.950 . S
C504 C503 1.334 . S
C504 C505 1.287 . S
C505 C504 1.287 . S
C505 C506 1.524 . S
C505 H508 0.999 . S
C506 H476 0.950 . S
C506 C505 1.524 . S
C506 C507 1.415 . S
C507 H477 0.950 . S
C507 C502 1.363 . S
C507 C506 1.415 . S
H508 C505 0.999 . S
H509 C490 0.913 . S
H510 C528 0.951 . S
H511 C530 0.951 . S
H512 C532 0.950 . S
H513 C533 0.950 . S
H514 C535 0.950 . S
H515 C538 0.950 . S
H516 C539 0.950 . S
H517 C541 0.950 . S
H518 C542 0.950 . S
H519 C543 0.951 1_655 S
H520 C545 0.951 . S
H521 C547 0.950 . S
H522 C548 0.950 . S
H523 C550 0.950 . S
H524 C553 0.950 . S
H525 C554 0.950 . S
H526 C556 0.950 . S
H527 C557 0.950 . S
C528 H510 0.951 . S
C528 C529 1.366 . S
C528 C530 1.388 . S
C529 C528 1.366 . S
C529 C533 1.385 . S
C530 H511 0.951 . S
C530 C528 1.388 . S
C530 C531 1.366 . S
C531 C530 1.366 . S
C531 C532 1.414 . S
C531 C534 1.499 . S
C532 H512 0.950 . S
C532 C531 1.414 . S
C532 C533 1.374 . S
C533 H513 0.950 . S
C533 C529 1.385 . S
C533 C532 1.374 . S
C534 C531 1.499 . S
C534 C535 1.373 . S
C534 C536 1.389 . S
C535 H514 0.950 . S
C535 C534 1.373 . S
C535 C551 1.377 . S
C536 C534 1.389 . S
C536 C537 1.524 . S
C536 C550 1.377 . S
C537 C536 1.524 . S
C537 C538 1.397 . S
C537 C542 1.363 . S
C538 H515 0.950 . S
C538 C537 1.397 . S
C538 C539 1.334 . S
C539 H516 0.950 . S
C539 C538 1.334 . S
C539 C540 1.287 . S
C540 C539 1.287 . S
C540 C541 1.524 . S
C540 H559 0.913 . S
C541 H517 0.950 . S
C541 C540 1.524 . S
C541 C542 1.415 . S
C542 H518 0.950 . S
C542 C537 1.363 . S
C542 C541 1.415 . S
C543 H519 0.951 1_455 S
C543 C544 1.366 . S
C543 C545 1.388 . S
C544 C543 1.366 . S
C544 C548 1.385 . S
C545 H520 0.951 . S
C545 C543 1.388 . S
C545 C546 1.366 . S
C546 C545 1.366 . S
C546 C547 1.414 . S
C546 C549 1.499 . S
C547 H521 0.950 . S
C547 C546 1.414 . S
C547 C548 1.374 . S
C548 H522 0.950 . S
C548 C544 1.385 . S
C548 C547 1.374 . S
C549 C546 1.499 . S
C549 C550 1.373 . S
C549 C551 1.389 . S
C550 H523 0.950 . S
C550 C536 1.377 . S
C550 C549 1.373 . S
C551 C535 1.377 . S
C551 C549 1.389 . S
C551 C552 1.524 . S
C552 C551 1.524 . S
C552 C553 1.397 . S
C552 C557 1.363 . S
C553 H524 0.950 . S
C553 C552 1.397 . S
C553 C554 1.334 . S
C554 H525 0.950 . S
C554 C553 1.334 . S
C554 C555 1.287 . S
C555 C554 1.287 . S
C555 C556 1.524 . S
C555 H558 0.999 . S
C556 H526 0.950 . S
C556 C555 1.524 . S
C556 C557 1.415 . S
C557 H527 0.950 . S
C557 C552 1.363 . S
C557 C556 1.415 . S
H558 C555 0.999 . S
H559 C540 0.913 . S
H560 C578 0.951 . S
H561 C580 0.951 . S
H562 C582 0.950 . S
H563 C583 0.950 . S
H564 C585 0.950 . S
H565 C588 0.950 . S
H566 C589 0.950 . S
H567 C591 0.950 . S
H568 C592 0.950 . S
H569 C593 0.951 . S
H570 C595 0.951 . S
H571 C597 0.950 . S
H572 C598 0.950 . S
H573 C600 0.950 . S
H574 C603 0.950 . S
H575 C604 0.950 1_655 S
H576 C606 0.950 . S
H577 C607 0.950 . S
C578 H560 0.951 . S
C578 C579 1.366 . S
C578 C580 1.388 1_545 S
C579 C578 1.366 . S
C579 C583 1.385 . S
C580 H561 0.951 . S
C580 C578 1.388 1_565 S
C580 C581 1.366 . S
C581 C580 1.366 . S
C581 C582 1.414 1_565 S
C581 C584 1.499 . S
C582 H562 0.950 . S
C582 C581 1.414 1_545 S
C582 C583 1.374 . S
C583 H563 0.950 . S
C583 C579 1.385 . S
C583 C582 1.374 . S
C584 C581 1.499 . S
C584 C585 1.373 . S
C584 C586 1.389 . S
C585 H564 0.950 . S
C585 C584 1.373 . S
C585 C601 1.377 . S
C586 C584 1.389 . S
C586 C587 1.524 . S
C586 C600 1.377 . S
C587 C586 1.524 . S
C587 C588 1.397 . S
C587 C592 1.363 . S
C588 H565 0.950 . S
C588 C587 1.397 . S
C588 C589 1.334 . S
C589 H566 0.950 . S
C589 C588 1.334 . S
C589 C590 1.287 . S
C590 C589 1.287 . S
C590 C591 1.524 . S
C590 H609 0.913 . S
C591 H567 0.950 . S
C591 C590 1.524 . S
C591 C592 1.415 . S
C592 H568 0.950 . S
C592 C587 1.363 . S
C592 C591 1.415 . S
C593 H569 0.951 . S
C593 C594 1.366 . S
C593 C595 1.388 1_655 S
C594 C593 1.366 . S
C594 C598 1.385 . S
C595 H570 0.951 . S
C595 C593 1.388 1_455 S
C595 C596 1.366 . S
C596 C595 1.366 . S
C596 C597 1.414 . S
C596 C599 1.499 . S
C597 H571 0.950 . S
C597 C596 1.414 . S
C597 C598 1.374 1_455 S
C598 H572 0.950 . S
C598 C594 1.385 . S
C598 C597 1.374 1_655 S
C599 C596 1.499 . S
C599 C600 1.373 . S
C599 C601 1.389 . S
C600 H573 0.950 . S
C600 C586 1.377 . S
C600 C599 1.373 . S
C601 C585 1.377 . S
C601 C599 1.389 . S
C601 C602 1.524 . S
C602 C601 1.524 . S
C602 C603 1.397 . S
C602 C607 1.363 . S
C603 H574 0.950 . S
C603 C602 1.397 . S
C603 C604 1.334 . S
C604 H575 0.950 1_455 S
C604 C603 1.334 . S
C604 C605 1.287 . S
C605 C604 1.287 . S
C605 C606 1.524 . S
C605 H608 0.999 1_455 S
C606 H576 0.950 . S
C606 C605 1.524 . S
C606 C607 1.415 . S
C607 H577 0.950 . S
C607 C602 1.363 . S
C607 C606 1.415 . S
H608 C605 0.999 1_655 S
H609 C590 0.913 . S
H610 C628 0.951 . S
H611 C630 0.951 . S
H612 C632 0.950 . S
H613 C633 0.950 . S
H614 C635 0.950 . S
H615 C638 0.950 . S
H616 C639 0.950 . S
H617 C641 0.950 . S
H618 C642 0.950 . S
H619 C643 0.951 . S
H620 C645 0.951 . S
H621 C647 0.950 . S
H622 C648 0.950 . S
H623 C650 0.950 . S
H624 C653 0.950 . S
H625 C654 0.950 . S
H626 C656 0.950 . S
H627 C657 0.950 . S
C628 H610 0.951 . S
C628 C629 1.366 . S
C628 C630 1.388 . S
C629 C628 1.366 . S
C629 C633 1.385 . S
C630 H611 0.951 . S
C630 C628 1.388 . S
C630 C631 1.366 . S
C631 C630 1.366 . S
C631 C632 1.414 . S
C631 C634 1.499 . S
C632 H612 0.950 . S
C632 C631 1.414 . S
C632 C633 1.374 . S
C633 H613 0.950 . S
C633 C629 1.385 . S
C633 C632 1.374 . S
C634 C631 1.499 . S
C634 C635 1.373 . S
C634 C636 1.389 . S
C635 H614 0.950 . S
C635 C634 1.373 . S
C635 C651 1.377 . S
C636 C634 1.389 . S
C636 C637 1.524 . S
C636 C650 1.377 . S
C637 C636 1.524 . S
C637 C638 1.397 . S
C637 C642 1.363 . S
C638 H615 0.950 . S
C638 C637 1.397 . S
C638 C639 1.334 . S
C639 H616 0.950 . S
C639 C638 1.334 . S
C639 C640 1.287 . S
C640 C639 1.287 . S
C640 C641 1.524 . S
C640 H659 0.913 . S
C641 H617 0.950 . S
C641 C640 1.524 . S
C641 C642 1.415 . S
C642 H618 0.950 . S
C642 C637 1.363 . S
C642 C641 1.415 . S
C643 H619 0.951 . S
C643 C644 1.366 . S
C643 C645 1.388 . S
C644 C643 1.366 . S
C644 C648 1.385 . S
C645 H620 0.951 . S
C645 C643 1.388 . S
C645 C646 1.366 . S
C646 C645 1.366 . S
C646 C647 1.414 . S
C646 C649 1.499 1_545 S
C647 H621 0.950 . S
C647 C646 1.414 . S
C647 C648 1.374 . S
C648 H622 0.950 . S
C648 C644 1.385 . S
C648 C647 1.374 . S
C649 C646 1.499 1_565 S
C649 C650 1.373 . S
C649 C651 1.389 . S
C650 H623 0.950 . S
C650 C636 1.377 . S
C650 C649 1.373 . S
C651 C635 1.377 . S
C651 C649 1.389 . S
C651 C652 1.524 . S
C652 C651 1.524 . S
C652 C653 1.397 1_565 S
C652 C657 1.363 . S
C653 H624 0.950 . S
C653 C652 1.397 1_545 S
C653 C654 1.334 . S
C654 H625 0.950 . S
C654 C653 1.334 . S
C654 C655 1.287 . S
C655 C654 1.287 . S
C655 C656 1.524 1_545 S
C655 H658 0.999 . S
C656 H626 0.950 . S
C656 C655 1.524 1_565 S
C656 C657 1.415 . S
C657 H627 0.950 . S
C657 C652 1.363 . S
C657 C656 1.415 . S
H658 C655 0.999 . S
H659 C640 0.913 . S
H660 C678 0.951 . S
H661 C680 0.951 . S
H662 C682 0.950 . S
H663 C683 0.950 . S
H664 C685 0.950 . S
H665 C688 0.950 . S
H666 C689 0.950 . S
H667 C691 0.950 . S
H668 C692 0.950 . S
H669 C693 0.951 . S
H670 C695 0.951 . S
H671 C697 0.950 . S
H672 C698 0.950 . S
H673 C700 0.950 . S
H674 C703 0.950 . S
H675 C704 0.950 . S
H676 C706 0.950 . S
H677 C707 0.950 . S
C678 H660 0.951 . S
C678 C679 1.366 . S
C678 C680 1.388 1_565 S
C679 C678 1.366 . S
C679 C683 1.385 . S
C680 H661 0.951 . S
C680 C678 1.388 1_545 S
C680 C681 1.366 . S
C681 C680 1.366 . S
C681 C682 1.414 1_545 S
C681 C684 1.499 . S
C682 H662 0.950 . S
C682 C681 1.414 1_565 S
C682 C683 1.374 . S
C683 H663 0.950 . S
C683 C679 1.385 . S
C683 C682 1.374 . S
C684 C681 1.499 . S
C684 C685 1.373 . S
C684 C686 1.389 . S
C685 H664 0.950 . S
C685 C684 1.373 . S
C685 C701 1.377 . S
C686 C684 1.389 . S
C686 C687 1.524 . S
C686 C700 1.377 . S
C687 C686 1.524 . S
C687 C688 1.397 . S
C687 C692 1.363 . S
C688 H665 0.950 . S
C688 C687 1.397 . S
C688 C689 1.334 . S
C689 H666 0.950 . S
C689 C688 1.334 . S
C689 C690 1.287 . S
C690 C689 1.287 . S
C690 C691 1.524 . S
C690 H709 0.913 . S
C691 H667 0.950 . S
C691 C690 1.524 . S
C691 C692 1.415 . S
C692 H668 0.950 . S
C692 C687 1.363 . S
C692 C691 1.415 . S
C693 H669 0.951 . S
C693 C694 1.366 . S
C693 C695 1.388 . S
C694 C693 1.366 . S
C694 C698 1.385 . S
C695 H670 0.951 . S
C695 C693 1.388 . S
C695 C696 1.366 . S
C696 C695 1.366 . S
C696 C697 1.414 . S
C696 C699 1.499 . S
C697 H671 0.950 . S
C697 C696 1.414 . S
C697 C698 1.374 . S
C698 H672 0.950 . S
C698 C694 1.385 . S
C698 C697 1.374 . S
C699 C696 1.499 . S
C699 C700 1.373 . S
C699 C701 1.389 . S
C700 H673 0.950 . S
C700 C686 1.377 . S
C700 C699 1.373 . S
C701 C685 1.377 . S
C701 C699 1.389 . S
C701 C702 1.524 . S
C702 C701 1.524 . S
C702 C703 1.397 . S
C702 C707 1.363 . S
C703 H674 0.950 . S
C703 C702 1.397 . S
C703 C704 1.334 . S
C704 H675 0.950 . S
C704 C703 1.334 . S
C704 C705 1.287 . S
C705 C704 1.287 . S
C705 C706 1.524 . S
C705 H708 0.999 . S
C706 H676 0.950 . S
C706 C705 1.524 . S
C706 C707 1.415 . S
C707 H677 0.950 . S
C707 C702 1.363 . S
C707 C706 1.415 . S
H708 C705 0.999 . S
H709 C690 0.913 . S
H710 C728 0.951 . S
H711 C730 0.951 . S
H712 C732 0.950 . S
H713 C733 0.950 . S
H714 C735 0.950 . S
H715 C738 0.950 . S
H716 C739 0.950 1_455 S
H717 C741 0.950 . S
H718 C742 0.950 . S
H719 C743 0.951 . S
H720 C745 0.951 . S
H721 C747 0.950 . S
H722 C748 0.950 . S
H723 C750 0.950 . S
H724 C753 0.950 . S
H725 C754 0.950 . S
H726 C756 0.950 . S
H727 C757 0.950 . S
C728 H710 0.951 . S
C728 C729 1.366 . S
C728 C730 1.388 1_455 S
C729 C728 1.366 . S
C729 C733 1.385 . S
C730 H711 0.951 . S
C730 C728 1.388 1_655 S
C730 C731 1.366 . S
C731 C730 1.366 . S
C731 C732 1.414 . S
C731 C734 1.499 . S
C732 H712 0.950 . S
C732 C731 1.414 . S
C732 C733 1.374 1_655 S
C733 H713 0.950 . S
C733 C729 1.385 . S
C733 C732 1.374 1_455 S
C734 C731 1.499 . S
C734 C735 1.373 . S
C734 C736 1.389 . S
C735 H714 0.950 . S
C735 C734 1.373 . S
C735 C751 1.377 . S
C736 C734 1.389 . S
C736 C737 1.524 . S
C736 C750 1.377 . S
C737 C736 1.524 . S
C737 C738 1.397 . S
C737 C742 1.363 . S
C738 H715 0.950 . S
C738 C737 1.397 . S
C738 C739 1.334 . S
C739 H716 0.950 1_655 S
C739 C738 1.334 . S
C739 C740 1.287 . S
C740 C739 1.287 . S
C740 C741 1.524 . S
C740 H759 0.913 1_655 S
C741 H717 0.950 . S
C741 C740 1.524 . S
C741 C742 1.415 . S
C742 H718 0.950 . S
C742 C737 1.363 . S
C742 C741 1.415 . S
C743 H719 0.951 . S
C743 C744 1.366 . S
C743 C745 1.388 . S
C744 C743 1.366 . S
C744 C748 1.385 . S
C745 H720 0.951 . S
C745 C743 1.388 . S
C745 C746 1.366 . S
C746 C745 1.366 . S
C746 C747 1.414 . S
C746 C749 1.499 . S
C747 H721 0.950 . S
C747 C746 1.414 . S
C747 C748 1.374 . S
C748 H722 0.950 . S
C748 C744 1.385 . S
C748 C747 1.374 . S
C749 C746 1.499 . S
C749 C750 1.373 . S
C749 C751 1.389 . S
C750 H723 0.950 . S
C750 C736 1.377 . S
C750 C749 1.373 . S
C751 C735 1.377 . S
C751 C749 1.389 . S
C751 C752 1.524 . S
C752 C751 1.524 . S
C752 C753 1.397 . S
C752 C757 1.363 . S
C753 H724 0.950 . S
C753 C752 1.397 . S
C753 C754 1.334 . S
C754 H725 0.950 . S
C754 C753 1.334 . S
C754 C755 1.287 . S
C755 C754 1.287 . S
C755 C756 1.524 . S
C755 H758 0.999 . S
C756 H726 0.950 . S
C756 C755 1.524 . S
C756 C757 1.415 . S
C757 H727 0.950 . S
C757 C752 1.363 . S
C757 C756 1.415 . S
H758 C755 0.999 . S
H759 C740 0.913 1_455 S
H760 C778 0.951 . S
H761 C780 0.951 . S
H762 C782 0.950 . S
H763 C783 0.950 . S
H764 C785 0.950 . S
H765 C788 0.950 . S
H766 C789 0.950 . S
H767 C791 0.950 . S
H768 C792 0.950 . S
H769 C793 0.951 . S
H770 C795 0.951 . S
H771 C797 0.950 . S
H772 C798 0.950 . S
H773 C800 0.950 . S
H774 C803 0.950 . S
H775 C804 0.950 1_455 S
H776 C806 0.950 . S
H777 C807 0.950 . S
C778 H760 0.951 . S
C778 C779 1.366 . S
C778 C780 1.388 1_565 S
C779 C778 1.366 . S
C779 C783 1.385 . S
C780 H761 0.951 . S
C780 C778 1.388 1_545 S
C780 C781 1.366 . S
C781 C780 1.366 . S
C781 C782 1.414 . S
C781 C784 1.499 . S
C782 H762 0.950 . S
C782 C781 1.414 . S
C782 C783 1.374 1_545 S
C783 H763 0.950 . S
C783 C779 1.385 . S
C783 C782 1.374 1_565 S
C784 C781 1.499 . S
C784 C785 1.373 . S
C784 C786 1.389 . S
C785 H764 0.950 . S
C785 C784 1.373 . S
C785 C801 1.377 . S
C786 C784 1.389 . S
C786 C787 1.524 . S
C786 C800 1.377 . S
C787 C786 1.524 . S
C787 C788 1.397 . S
C787 C792 1.363 . S
C788 H765 0.950 . S
C788 C787 1.397 . S
C788 C789 1.334 . S
C789 H766 0.950 . S
C789 C788 1.334 . S
C789 C790 1.287 . S
C790 C789 1.287 . S
C790 C791 1.524 . S
C790 H809 0.913 . S
C791 H767 0.950 . S
C791 C790 1.524 . S
C791 C792 1.415 . S
C792 H768 0.950 . S
C792 C787 1.363 . S
C792 C791 1.415 . S
C793 H769 0.951 . S
C793 C794 1.366 . S
C793 C795 1.388 1_455 S
C794 C793 1.366 . S
C794 C798 1.385 . S
C795 H770 0.951 . S
C795 C793 1.388 1_655 S
C795 C796 1.366 . S
C796 C795 1.366 . S
C796 C797 1.414 1_655 S
C796 C799 1.499 . S
C797 H771 0.950 . S
C797 C796 1.414 1_455 S
C797 C798 1.374 . S
C798 H772 0.950 . S
C798 C794 1.385 . S
C798 C797 1.374 . S
C799 C796 1.499 . S
C799 C800 1.373 . S
C799 C801 1.389 . S
C800 H773 0.950 . S
C800 C786 1.377 . S
C800 C799 1.373 . S
C801 C785 1.377 . S
C801 C799 1.389 . S
C801 C802 1.524 . S
C802 C801 1.524 . S
C802 C803 1.397 . S
C802 C807 1.363 . S
C803 H774 0.950 . S
C803 C802 1.397 . S
C803 C804 1.334 . S
C804 H775 0.950 1_655 S
C804 C803 1.334 . S
C804 C805 1.287 . S
C805 C804 1.287 . S
C805 C806 1.524 . S
C805 H808 0.999 . S
C806 H776 0.950 . S
C806 C805 1.524 . S
C806 C807 1.415 . S
C807 H777 0.950 . S
C807 C802 1.363 . S
C807 C806 1.415 . S
H808 C805 0.999 . S
H809 C790 0.913 . S
H810 C828 0.951 . S
H811 C830 0.951 . S
H812 C832 0.950 . S
H813 C833 0.950 . S
H814 C835 0.950 . S
H815 C838 0.950 . S
H816 C839 0.950 . S
H817 C841 0.950 . S
H818 C842 0.950 . S
H819 C843 0.951 . S
H820 C845 0.951 . S
H821 C847 0.950 . S
H822 C848 0.950 . S
H823 C850 0.950 . S
H824 C853 0.950 . S
H825 C854 0.950 . S
H826 C856 0.950 . S
H827 C857 0.950 . S
C828 H810 0.951 . S
C828 C829 1.366 . S
C828 C830 1.388 . S
C829 C828 1.366 . S
C829 C833 1.385 . S
C830 H811 0.951 . S
C830 C828 1.388 . S
C830 C831 1.366 . S
C831 C830 1.366 . S
C831 C832 1.414 . S
C831 C834 1.499 . S
C832 H812 0.950 . S
C832 C831 1.414 . S
C832 C833 1.374 . S
C833 H813 0.950 . S
C833 C829 1.385 . S
C833 C832 1.374 . S
C834 C831 1.499 . S
C834 C835 1.373 . S
C834 C836 1.389 . S
C835 H814 0.950 . S
C835 C834 1.373 . S
C835 C851 1.377 . S
C836 C834 1.389 . S
C836 C837 1.524 . S
C836 C850 1.377 . S
C837 C836 1.524 . S
C837 C838 1.397 . S
C837 C842 1.363 . S
C838 H815 0.950 . S
C838 C837 1.397 . S
C838 C839 1.334 . S
C839 H816 0.950 . S
C839 C838 1.334 . S
C839 C840 1.287 . S
C840 C839 1.287 . S
C840 C841 1.524 . S
C840 H859 0.913 . S
C841 H817 0.950 . S
C841 C840 1.524 . S
C841 C842 1.415 . S
C842 H818 0.950 . S
C842 C837 1.363 . S
C842 C841 1.415 . S
C843 H819 0.951 . S
C843 C844 1.366 . S
C843 C845 1.388 1_565 S
C844 C843 1.366 . S
C844 C848 1.385 . S
C845 H820 0.951 . S
C845 C843 1.388 1_545 S
C845 C846 1.366 . S
C846 C845 1.366 . S
C846 C847 1.414 1_545 S
C846 C849 1.499 . S
C847 H821 0.950 . S
C847 C846 1.414 1_565 S
C847 C848 1.374 . S
C848 H822 0.950 . S
C848 C844 1.385 . S
C848 C847 1.374 . S
C849 C846 1.499 . S
C849 C850 1.373 . S
C849 C851 1.389 . S
C850 H823 0.950 . S
C850 C836 1.377 . S
C850 C849 1.373 . S
C851 C835 1.377 . S
C851 C849 1.389 . S
C851 C852 1.524 . S
C852 C851 1.524 . S
C852 C853 1.397 . S
C852 C857 1.363 . S
C853 H824 0.950 . S
C853 C852 1.397 . S
C853 C854 1.334 . S
C854 H825 0.950 . S
C854 C853 1.334 . S
C854 C855 1.287 . S
C855 C854 1.287 . S
C855 C856 1.524 . S
C855 H858 0.999 . S
C856 H826 0.950 . S
C856 C855 1.524 . S
C856 C857 1.415 . S
C857 H827 0.950 . S
C857 C852 1.363 . S
C857 C856 1.415 . S
H858 C855 0.999 . S
H859 C840 0.913 . S
H860 C878 0.951 . S
H861 C880 0.951 . S
H862 C882 0.950 . S
H863 C883 0.950 . S
H864 C885 0.950 . S
H865 C888 0.950 . S
H866 C889 0.950 . S
H867 C891 0.950 . S
H868 C892 0.950 . S
H869 C893 0.951 . S
H870 C895 0.951 . S
H871 C897 0.950 . S
H872 C898 0.950 . S
H873 C900 0.950 . S
H874 C903 0.950 . S
H875 C904 0.950 . S
H876 C906 0.950 . S
H877 C907 0.950 . S
C878 H860 0.951 . S
C878 C879 1.366 . S
C878 C880 1.388 1_455 S
C879 C878 1.366 . S
C879 C883 1.385 . S
C880 H861 0.951 . S
C880 C878 1.388 1_655 S
C880 C881 1.366 . S
C881 C880 1.366 . S
C881 C882 1.414 . S
C881 C884 1.499 . S
C882 H862 0.950 . S
C882 C881 1.414 . S
C882 C883 1.374 1_655 S
C883 H863 0.950 . S
C883 C879 1.385 . S
C883 C882 1.374 1_455 S
C884 C881 1.499 . S
C884 C885 1.373 . S
C884 C886 1.389 . S
C885 H864 0.950 . S
C885 C884 1.373 . S
C885 C901 1.377 . S
C886 C884 1.389 . S
C886 C887 1.524 . S
C886 C900 1.377 . S
C887 C886 1.524 . S
C887 C888 1.397 . S
C887 C892 1.363 . S
C888 H865 0.950 . S
C888 C887 1.397 . S
C888 C889 1.334 . S
C889 H866 0.950 . S
C889 C888 1.334 . S
C889 C890 1.287 . S
C890 C889 1.287 . S
C890 C891 1.524 . S
C890 H909 0.913 . S
C891 H867 0.950 . S
C891 C890 1.524 . S
C891 C892 1.415 . S
C892 H868 0.950 . S
C892 C887 1.363 . S
C892 C891 1.415 . S
C893 H869 0.951 . S
C893 C894 1.366 . S
C893 C895 1.388 . S
C894 C893 1.366 . S
C894 C898 1.385 . S
C895 H870 0.951 . S
C895 C893 1.388 . S
C895 C896 1.366 . S
C896 C895 1.366 . S
C896 C897 1.414 . S
C896 C899 1.499 . S
C897 H871 0.950 . S
C897 C896 1.414 . S
C897 C898 1.374 . S
C898 H872 0.950 . S
C898 C894 1.385 . S
C898 C897 1.374 . S
C899 C896 1.499 . S
C899 C900 1.373 . S
C899 C901 1.389 . S
C900 H873 0.950 . S
C900 C886 1.377 . S
C900 C899 1.373 . S
C901 C885 1.377 . S
C901 C899 1.389 . S
C901 C902 1.524 . S
C902 C901 1.524 . S
C902 C903 1.397 . S
C902 C907 1.363 . S
C903 H874 0.950 . S
C903 C902 1.397 . S
C903 C904 1.334 . S
C904 H875 0.950 . S
C904 C903 1.334 . S
C904 C905 1.287 . S
C905 C904 1.287 . S
C905 C906 1.524 . S
C905 H908 0.999 . S
C906 H876 0.950 . S
C906 C905 1.524 . S
C906 C907 1.415 . S
C907 H877 0.950 . S
C907 C902 1.363 . S
C907 C906 1.415 . S
H908 C905 0.999 . S
H909 C890 0.913 . S
H910 C928 0.951 . S
H911 C930 0.951 . S
H912 C932 0.950 . S
H913 C933 0.950 . S
H914 C935 0.950 . S
H915 C938 0.950 . S
H916 C939 0.950 . S
H917 C941 0.950 . S
H918 C942 0.950 . S
H919 C943 0.951 . S
H920 C945 0.951 . S
H921 C947 0.950 . S
H922 C948 0.950 . S
H923 C950 0.950 . S
H924 C953 0.950 . S
H925 C954 0.950 . S
H926 C956 0.950 . S
H927 C957 0.950 . S
C928 H910 0.951 . S
C928 C929 1.366 . S
C928 C930 1.388 . S
C929 C928 1.366 . S
C929 C933 1.385 . S
C930 H911 0.951 . S
C930 C928 1.388 . S
C930 C931 1.366 1_455 S
C931 C930 1.366 1_655 S
C931 C932 1.414 . S
C931 C934 1.499 . S
C932 H912 0.950 . S
C932 C931 1.414 . S
C932 C933 1.374 1_655 S
C933 H913 0.950 . S
C933 C929 1.385 . S
C933 C932 1.374 1_455 S
C934 C931 1.499 . S
C934 C935 1.373 . S
C934 C936 1.389 . S
C935 H914 0.950 . S
C935 C934 1.373 . S
C935 C951 1.377 . S
C936 C934 1.389 . S
C936 C937 1.524 . S
C936 C950 1.377 . S
C937 C936 1.524 . S
C937 C938 1.397 . S
C937 C942 1.363 . S
C938 H915 0.950 . S
C938 C937 1.397 . S
C938 C939 1.334 . S
C939 H916 0.950 . S
C939 C938 1.334 . S
C939 C940 1.287 . S
C940 C939 1.287 . S
C940 C941 1.524 . S
C940 H959 0.913 . S
C941 H917 0.950 . S
C941 C940 1.524 . S
C941 C942 1.415 . S
C942 H918 0.950 . S
C942 C937 1.363 . S
C942 C941 1.415 . S
C943 H919 0.951 . S
C943 C944 1.366 . S
C943 C945 1.388 1_565 S
C944 C943 1.366 . S
C944 C948 1.385 . S
C945 H920 0.951 . S
C945 C943 1.388 1_545 S
C945 C946 1.366 . S
C946 C945 1.366 . S
C946 C947 1.414 . S
C946 C949 1.499 . S
C947 H921 0.950 . S
C947 C946 1.414 . S
C947 C948 1.374 1_545 S
C948 H922 0.950 . S
C948 C944 1.385 . S
C948 C947 1.374 1_565 S
C949 C946 1.499 . S
C949 C950 1.373 . S
C949 C951 1.389 . S
C950 H923 0.950 . S
C950 C936 1.377 . S
C950 C949 1.373 . S
C951 C935 1.377 . S
C951 C949 1.389 . S
C951 C952 1.524 . S
C952 C951 1.524 . S
C952 C953 1.397 . S
C952 C957 1.363 . S
C953 H924 0.950 . S
C953 C952 1.397 . S
C953 C954 1.334 . S
C954 H925 0.950 . S
C954 C953 1.334 . S
C954 C955 1.287 . S
C955 C954 1.287 . S
C955 C956 1.524 . S
C955 H958 0.999 . S
C956 H926 0.950 . S
C956 C955 1.524 . S
C956 C957 1.415 . S
C957 H927 0.950 . S
C957 C952 1.363 . S
C957 C956 1.415 . S
H958 C955 0.999 . S
H959 C940 0.913 . S
H960 C978 0.951 . S
H961 C980 0.951 . S
H962 C982 0.950 . S
H963 C983 0.950 . S
H964 C985 0.950 . S
H965 C988 0.950 . S
H966 C989 0.950 . S
H967 C991 0.950 1_565 S
H968 C992 0.950 . S
H969 C993 0.951 . S
H970 C995 0.951 . S
H971 C997 0.950 . S
H972 C998 0.950 . S
H973 C1000 0.950 . S
H974 C1003 0.950 . S
H975 C1004 0.950 . S
H976 C1006 0.950 . S
H977 C1007 0.950 . S
C978 H960 0.951 . S
C978 C979 1.366 . S
C978 C980 1.388 . S
C979 C978 1.366 . S
C979 C983 1.385 . S
C980 H961 0.951 . S
C980 C978 1.388 . S
C980 C981 1.366 . S
C981 C980 1.366 . S
C981 C982 1.414 . S
C981 C984 1.499 . S
C982 H962 0.950 . S
C982 C981 1.414 . S
C982 C983 1.374 . S
C983 H963 0.950 . S
C983 C979 1.385 . S
C983 C982 1.374 . S
C984 C981 1.499 . S
C984 C985 1.373 . S
C984 C986 1.389 . S
C985 H964 0.950 . S
C985 C984 1.373 . S
C985 C1001 1.377 . S
C986 C984 1.389 . S
C986 C987 1.524 . S
C986 C1000 1.377 . S
C987 C986 1.524 . S
C987 C988 1.397 . S
C987 C992 1.363 . S
C988 H965 0.950 . S
C988 C987 1.397 . S
C988 C989 1.334 . S
C989 H966 0.950 . S
C989 C988 1.334 . S
C989 C990 1.287 . S
C990 C989 1.287 . S
C990 C991 1.524 . S
C990 H1009 0.913 . S
C991 H967 0.950 1_545 S
C991 C990 1.524 . S
C991 C992 1.415 . S
C992 H968 0.950 . S
C992 C987 1.363 . S
C992 C991 1.415 . S
C993 H969 0.951 . S
C993 C994 1.366 . S
C993 C995 1.388 . S
C994 C993 1.366 . S
C994 C998 1.385 . S
C995 H970 0.951 . S
C995 C993 1.388 . S
C995 C996 1.366 . S
C996 C995 1.366 . S
C996 C997 1.414 . S
C996 C999 1.499 . S
C997 H971 0.950 . S
C997 C996 1.414 . S
C997 C998 1.374 . S
C998 H972 0.950 . S
C998 C994 1.385 . S
C998 C997 1.374 . S
C999 C996 1.499 . S
C999 C1000 1.373 . S
C999 C1001 1.389 . S
C1000 H973 0.950 . S
C1000 C986 1.377 . S
C1000 C999 1.373 . S
C1001 C985 1.377 . S
C1001 C999 1.389 . S
C1001 C1002 1.524 . S
C1002 C1001 1.524 . S
C1002 C1003 1.397 . S
C1002 C1007 1.363 . S
C1003 H974 0.950 . S
C1003 C1002 1.397 . S
C1003 C1004 1.334 . S
C1004 H975 0.950 . S
C1004 C1003 1.334 . S
C1004 C1005 1.287 . S
C1005 C1004 1.287 . S
C1005 C1006 1.524 . S
C1005 H1008 0.999 . S
C1006 H976 0.950 . S
C1006 C1005 1.524 . S
C1006 C1007 1.415 . S
C1007 H977 0.950 . S
C1007 C1002 1.363 . S
C1007 C1006 1.415 . S
H1008 C1005 0.999 . S
H1009 C990 0.913 . S
H1010 C1028 0.951 . S
H1011 C1030 0.951 . S
H1012 C1032 0.950 . S
H1013 C1033 0.950 . S
H1014 C1035 0.950 . S
H1015 C1038 0.950 . S
H1016 C1039 0.950 . S
H1017 C1041 0.950 . S
H1018 C1042 0.950 . S
H1019 C1043 0.951 . S
H1020 C1045 0.951 . S
H1021 C1047 0.950 . S
H1022 C1048 0.950 . S
H1023 C1050 0.950 . S
H1024 C1053 0.950 . S
H1025 C1054 0.950 . S
H1026 C1056 0.950 . S
H1027 C1057 0.950 . S
C1028 H1010 0.951 . S
C1028 C1029 1.366 . S
C1028 C1030 1.388 . S
C1029 C1028 1.366 . S
C1029 C1033 1.385 . S
C1030 H1011 0.951 . S
C1030 C1028 1.388 . S
C1030 C1031 1.366 . S
C1031 C1030 1.366 . S
C1031 C1032 1.414 . S
C1031 C1034 1.499 . S
C1032 H1012 0.950 . S
C1032 C1031 1.414 . S
C1032 C1033 1.374 . S
C1033 H1013 0.950 . S
C1033 C1029 1.385 . S
C1033 C1032 1.374 . S
C1034 C1031 1.499 . S
C1034 C1035 1.373 . S
C1034 C1036 1.389 . S
C1035 H1014 0.950 . S
C1035 C1034 1.373 . S
C1035 C1051 1.377 . S
C1036 C1034 1.389 . S
C1036 C1037 1.524 . S
C1036 C1050 1.377 . S
C1037 C1036 1.524 . S
C1037 C1038 1.397 . S
C1037 C1042 1.363 . S
C1038 H1015 0.950 . S
C1038 C1037 1.397 . S
C1038 C1039 1.334 . S
C1039 H1016 0.950 . S
C1039 C1038 1.334 . S
C1039 C1040 1.287 . S
C1040 C1039 1.287 . S
C1040 C1041 1.524 . S
C1040 H1059 0.913 . S
C1041 H1017 0.950 . S
C1041 C1040 1.524 . S
C1041 C1042 1.415 . S
C1042 H1018 0.950 . S
C1042 C1037 1.363 . S
C1042 C1041 1.415 . S
C1043 H1019 0.951 . S
C1043 C1044 1.366 . S
C1043 C1045 1.388 . S
C1044 C1043 1.366 . S
C1044 C1048 1.385 . S
C1045 H1020 0.951 . S
C1045 C1043 1.388 . S
C1045 C1046 1.366 . S
C1046 C1045 1.366 . S
C1046 C1047 1.414 . S
C1046 C1049 1.499 . S
C1047 H1021 0.950 . S
C1047 C1046 1.414 . S
C1047 C1048 1.374 . S
C1048 H1022 0.950 . S
C1048 C1044 1.385 . S
C1048 C1047 1.374 . S
C1049 C1046 1.499 . S
C1049 C1050 1.373 . S
C1049 C1051 1.389 . S
C1050 H1023 0.950 . S
C1050 C1036 1.377 . S
C1050 C1049 1.373 . S
C1051 C1035 1.377 . S
C1051 C1049 1.389 . S
C1051 C1052 1.524 . S
C1052 C1051 1.524 . S
C1052 C1053 1.397 . S
C1052 C1057 1.363 . S
C1053 H1024 0.950 . S
C1053 C1052 1.397 . S
C1053 C1054 1.334 . S
C1054 H1025 0.950 . S
C1054 C1053 1.334 . S
C1054 C1055 1.287 . S
C1055 C1054 1.287 . S
C1055 C1056 1.524 . S
C1055 H1058 0.999 . S
C1056 H1026 0.950 . S
C1056 C1055 1.524 . S
C1056 C1057 1.415 . S
C1057 H1027 0.950 . S
C1057 C1052 1.363 . S
C1057 C1056 1.415 . S
H1058 C1055 0.999 . S
H1059 C1040 0.913 . S
H1060 C1078 0.951 . S
H1061 C1080 0.951 . S
H1062 C1082 0.950 . S
H1063 C1083 0.950 . S
H1064 C1085 0.950 . S
H1065 C1088 0.950 . S
H1066 C1089 0.950 . S
H1067 C1091 0.950 . S
H1068 C1092 0.950 . S
H1069 C1093 0.951 . S
H1070 C1095 0.951 . S
H1071 C1097 0.950 . S
H1072 C1098 0.950 . S
H1073 C1100 0.950 . S
H1074 C1103 0.950 . S
H1075 C1104 0.950 . S
H1076 C1106 0.950 1_455 S
H1077 C1107 0.950 . S
C1078 H1060 0.951 . S
C1078 C1079 1.366 . S
C1078 C1080 1.388 . S
C1079 C1078 1.366 . S
C1079 C1083 1.385 . S
C1080 H1061 0.951 . S
C1080 C1078 1.388 . S
C1080 C1081 1.366 . S
C1081 C1080 1.366 . S
C1081 C1082 1.414 . S
C1081 C1084 1.499 . S
C1082 H1062 0.950 . S
C1082 C1081 1.414 . S
C1082 C1083 1.374 . S
C1083 H1063 0.950 . S
C1083 C1079 1.385 . S
C1083 C1082 1.374 . S
C1084 C1081 1.499 . S
C1084 C1085 1.373 . S
C1084 C1086 1.389 . S
C1085 H1064 0.950 . S
C1085 C1084 1.373 . S
C1085 C1101 1.377 . S
C1086 C1084 1.389 . S
C1086 C1087 1.524 . S
C1086 C1100 1.377 . S
C1087 C1086 1.524 . S
C1087 C1088 1.397 . S
C1087 C1092 1.363 . S
C1088 H1065 0.950 . S
C1088 C1087 1.397 . S
C1088 C1089 1.334 . S
C1089 H1066 0.950 . S
C1089 C1088 1.334 . S
C1089 C1090 1.287 . S
C1090 C1089 1.287 . S
C1090 C1091 1.524 . S
C1090 H1109 0.913 . S
C1091 H1067 0.950 . S
C1091 C1090 1.524 . S
C1091 C1092 1.415 . S
C1092 H1068 0.950 . S
C1092 C1087 1.363 . S
C1092 C1091 1.415 . S
C1093 H1069 0.951 . S
C1093 C1094 1.366 . S
C1093 C1095 1.388 . S
C1094 C1093 1.366 . S
C1094 C1098 1.385 . S
C1095 H1070 0.951 . S
C1095 C1093 1.388 . S
C1095 C1096 1.366 . S
C1096 C1095 1.366 . S
C1096 C1097 1.414 . S
C1096 C1099 1.499 . S
C1097 H1071 0.950 . S
C1097 C1096 1.414 . S
C1097 C1098 1.374 . S
C1098 H1072 0.950 . S
C1098 C1094 1.385 . S
C1098 C1097 1.374 . S
C1099 C1096 1.499 . S
C1099 C1100 1.373 . S
C1099 C1101 1.389 . S
C1100 H1073 0.950 . S
C1100 C1086 1.377 . S
C1100 C1099 1.373 . S
C1101 C1085 1.377 . S
C1101 C1099 1.389 . S
C1101 C1102 1.524 . S
C1102 C1101 1.524 . S
C1102 C1103 1.397 . S
C1102 C1107 1.363 . S
C1103 H1074 0.950 . S
C1103 C1102 1.397 . S
C1103 C1104 1.334 . S
C1104 H1075 0.950 . S
C1104 C1103 1.334 . S
C1104 C1105 1.287 . S
C1105 C1104 1.287 . S
C1105 C1106 1.524 . S
C1105 H1108 0.999 . S
C1106 H1076 0.950 1_655 S
C1106 C1105 1.524 . S
C1106 C1107 1.415 . S
C1107 H1077 0.950 . S
C1107 C1102 1.363 . S
C1107 C1106 1.415 . S
H1108 C1105 0.999 . S
H1109 C1090 0.913 . S
H1110 C1128 0.951 . S
H1111 C1130 0.951 . S
H1112 C1132 0.950 . S
H1113 C1133 0.950 . S
H1114 C1135 0.950 . S
H1115 C1138 0.950 . S
H1116 C1139 0.950 . S
H1117 C1141 0.950 . S
H1118 C1142 0.950 . S
H1119 C1143 0.951 . S
H1120 C1145 0.951 . S
H1121 C1147 0.950 . S
H1122 C1148 0.950 . S
H1123 C1150 0.950 . S
H1124 C1153 0.950 . S
H1125 C1154 0.950 . S
H1126 C1156 0.950 . S
H1127 C1157 0.950 . S
C1128 H1110 0.951 . S
C1128 C1129 1.366 . S
C1128 C1130 1.388 . S
C1129 C1128 1.366 . S
C1129 C1133 1.385 . S
C1130 H1111 0.951 . S
C1130 C1128 1.388 . S
C1130 C1131 1.366 . S
C1131 C1130 1.366 . S
C1131 C1132 1.414 . S
C1131 C1134 1.499 . S
C1132 H1112 0.950 . S
C1132 C1131 1.414 . S
C1132 C1133 1.374 . S
C1133 H1113 0.950 . S
C1133 C1129 1.385 . S
C1133 C1132 1.374 . S
C1134 C1131 1.499 . S
C1134 C1135 1.373 . S
C1134 C1136 1.389 . S
C1135 H1114 0.950 . S
C1135 C1134 1.373 . S
C1135 C1151 1.377 . S
C1136 C1134 1.389 . S
C1136 C1137 1.524 . S
C1136 C1150 1.377 . S
C1137 C1136 1.524 . S
C1137 C1138 1.397 . S
C1137 C1142 1.363 . S
C1138 H1115 0.950 . S
C1138 C1137 1.397 . S
C1138 C1139 1.334 . S
C1139 H1116 0.950 . S
C1139 C1138 1.334 . S
C1139 C1140 1.287 . S
C1140 C1139 1.287 . S
C1140 C1141 1.524 . S
C1140 H1159 0.914 . S
C1141 H1117 0.950 . S
C1141 C1140 1.524 . S
C1141 C1142 1.415 . S
C1142 H1118 0.950 . S
C1142 C1137 1.363 . S
C1142 C1141 1.415 . S
C1143 H1119 0.951 . S
C1143 C1144 1.366 . S
C1143 C1145 1.388 . S
C1144 C1143 1.366 . S
C1144 C1148 1.385 . S
C1145 H1120 0.951 . S
C1145 C1143 1.388 . S
C1145 C1146 1.366 . S
C1146 C1145 1.366 . S
C1146 C1147 1.414 . S
C1146 C1149 1.499 . S
C1147 H1121 0.950 . S
C1147 C1146 1.414 . S
C1147 C1148 1.374 . S
C1148 H1122 0.950 . S
C1148 C1144 1.385 . S
C1148 C1147 1.374 . S
C1149 C1146 1.499 . S
C1149 C1150 1.373 . S
C1149 C1151 1.389 . S
C1150 H1123 0.950 . S
C1150 C1136 1.377 . S
C1150 C1149 1.373 . S
C1151 C1135 1.377 . S
C1151 C1149 1.389 . S
C1151 C1152 1.524 . S
C1152 C1151 1.524 . S
C1152 C1153 1.397 . S
C1152 C1157 1.363 . S
C1153 H1124 0.950 . S
C1153 C1152 1.397 . S
C1153 C1154 1.334 . S
C1154 H1125 0.950 . S
C1154 C1153 1.334 . S
C1154 C1155 1.287 . S
C1155 C1154 1.287 . S
C1155 C1156 1.524 . S
C1155 H1158 0.999 . S
C1156 H1126 0.950 . S
C1156 C1155 1.524 . S
C1156 C1157 1.415 . S
C1157 H1127 0.950 . S
C1157 C1152 1.363 . S
C1157 C1156 1.415 . S
H1158 C1155 0.999 . S
H1159 C1140 0.914 . S
H1160 C1178 0.951 . S
H1161 C1180 0.951 . S
H1162 C1182 0.950 . S
H1163 C1183 0.950 . S
H1164 C1185 0.950 . S
H1165 C1188 0.950 . S
H1166 C1189 0.950 . S
H1167 C1191 0.950 . S
H1168 C1192 0.950 . S
H1169 C1193 0.951 . S
H1170 C1195 0.951 . S
H1171 C1197 0.950 . S
H1172 C1198 0.950 . S
H1173 C1200 0.950 . S
H1174 C1203 0.950 . S
H1175 C1204 0.950 . S
H1176 C1206 0.950 . S
H1177 C1207 0.950 . S
C1178 H1160 0.951 . S
C1178 C1179 1.366 . S
C1178 C1180 1.388 . S
C1179 C1178 1.366 . S
C1179 C1183 1.385 . S
C1180 H1161 0.951 . S
C1180 C1178 1.388 . S
C1180 C1181 1.366 . S
C1181 C1180 1.366 . S
C1181 C1182 1.414 . S
C1181 C1184 1.499 . S
C1182 H1162 0.950 . S
C1182 C1181 1.414 . S
C1182 C1183 1.374 . S
C1183 H1163 0.950 . S
C1183 C1179 1.385 . S
C1183 C1182 1.374 . S
C1184 C1181 1.499 . S
C1184 C1185 1.373 . S
C1184 C1186 1.389 . S
C1185 H1164 0.950 . S
C1185 C1184 1.373 . S
C1185 C1201 1.377 . S
C1186 C1184 1.389 . S
C1186 C1187 1.524 . S
C1186 C1200 1.377 . S
C1187 C1186 1.524 . S
C1187 C1188 1.397 . S
C1187 C1192 1.363 . S
C1188 H1165 0.950 . S
C1188 C1187 1.397 . S
C1188 C1189 1.334 . S
C1189 H1166 0.950 . S
C1189 C1188 1.334 . S
C1189 C1190 1.287 . S
C1190 C1189 1.287 . S
C1190 C1191 1.524 . S
C1190 H1209 0.913 . S
C1191 H1167 0.950 . S
C1191 C1190 1.524 . S
C1191 C1192 1.415 . S
C1192 H1168 0.950 . S
C1192 C1187 1.363 . S
C1192 C1191 1.415 . S
C1193 H1169 0.951 . S
C1193 C1194 1.366 . S
C1193 C1195 1.388 . S
C1194 C1193 1.366 . S
C1194 C1198 1.385 . S
C1195 H1170 0.951 . S
C1195 C1193 1.388 . S
C1195 C1196 1.366 . S
C1196 C1195 1.366 . S
C1196 C1197 1.414 . S
C1196 C1199 1.499 . S
C1197 H1171 0.950 . S
C1197 C1196 1.414 . S
C1197 C1198 1.374 . S
C1198 H1172 0.950 . S
C1198 C1194 1.385 . S
C1198 C1197 1.374 . S
C1199 C1196 1.499 . S
C1199 C1200 1.373 . S
C1199 C1201 1.389 . S
C1200 H1173 0.950 . S
C1200 C1186 1.377 . S
C1200 C1199 1.373 . S
C1201 C1185 1.377 . S
C1201 C1199 1.389 . S
C1201 C1202 1.524 . S
C1202 C1201 1.524 . S
C1202 C1203 1.397 . S
C1202 C1207 1.363 . S
C1203 H1174 0.950 . S
C1203 C1202 1.397 . S
C1203 C1204 1.334 . S
C1204 H1175 0.950 . S
C1204 C1203 1.334 . S
C1204 C1205 1.287 . S
C1205 C1204 1.287 . S
C1205 C1206 1.524 . S
C1205 H1208 0.999 . S
C1206 H1176 0.950 . S
C1206 C1205 1.524 . S
C1206 C1207 1.415 . S
C1207 H1177 0.950 . S
C1207 C1202 1.363 . S
C1207 C1206 1.415 . S
H1208 C1205 0.999 . S
H1209 C1190 0.913 . S
H1210 C1228 0.951 . S
H1211 C1230 0.951 . S
H1212 C1232 0.950 . S
H1213 C1233 0.950 . S
H1214 C1235 0.950 . S
H1215 C1238 0.950 . S
H1216 C1239 0.950 . S
H1217 C1241 0.950 . S
H1218 C1242 0.950 . S
H1219 C1243 0.951 . S
H1220 C1245 0.951 . S
H1221 C1247 0.950 . S
H1222 C1248 0.950 . S
H1223 C1250 0.950 . S
H1224 C1253 0.950 . S
H1225 C1254 0.950 . S
H1226 C1256 0.950 . S
H1227 C1257 0.950 . S
C1228 H1210 0.951 . S
C1228 C1229 1.366 . S
C1228 C1230 1.388 . S
C1229 C1228 1.366 . S
C1229 C1233 1.385 . S
C1230 H1211 0.951 . S
C1230 C1228 1.388 . S
C1230 C1231 1.366 . S
C1231 C1230 1.366 . S
C1231 C1232 1.414 . S
C1231 C1234 1.499 . S
C1232 H1212 0.950 . S
C1232 C1231 1.414 . S
C1232 C1233 1.374 . S
C1233 H1213 0.950 . S
C1233 C1229 1.385 . S
C1233 C1232 1.374 . S
C1234 C1231 1.499 . S
C1234 C1235 1.373 . S
C1234 C1236 1.389 . S
C1235 H1214 0.950 . S
C1235 C1234 1.373 . S
C1235 C1251 1.377 . S
C1236 C1234 1.389 . S
C1236 C1237 1.524 . S
C1236 C1250 1.377 . S
C1237 C1236 1.524 . S
C1237 C1238 1.397 . S
C1237 C1242 1.363 . S
C1238 H1215 0.950 . S
C1238 C1237 1.397 . S
C1238 C1239 1.334 . S
C1239 H1216 0.950 . S
C1239 C1238 1.334 . S
C1239 C1240 1.287 . S
C1240 C1239 1.287 . S
C1240 C1241 1.524 . S
C1240 H1259 0.913 . S
C1241 H1217 0.950 . S
C1241 C1240 1.524 . S
C1241 C1242 1.415 . S
C1242 H1218 0.950 . S
C1242 C1237 1.363 . S
C1242 C1241 1.415 . S
C1243 H1219 0.951 . S
C1243 C1244 1.366 . S
C1243 C1245 1.388 . S
C1244 C1243 1.366 . S
C1244 C1248 1.385 . S
C1245 H1220 0.951 . S
C1245 C1243 1.388 . S
C1245 C1246 1.366 . S
C1246 C1245 1.366 . S
C1246 C1247 1.414 . S
C1246 C1249 1.499 . S
C1247 H1221 0.950 . S
C1247 C1246 1.414 . S
C1247 C1248 1.374 . S
C1248 H1222 0.950 . S
C1248 C1244 1.385 . S
C1248 C1247 1.374 . S
C1249 C1246 1.499 . S
C1249 C1250 1.373 . S
C1249 C1251 1.389 . S
C1250 H1223 0.950 . S
C1250 C1236 1.377 . S
C1250 C1249 1.373 . S
C1251 C1235 1.377 . S
C1251 C1249 1.389 . S
C1251 C1252 1.524 . S
C1252 C1251 1.524 . S
C1252 C1253 1.397 . S
C1252 C1257 1.363 . S
C1253 H1224 0.950 . S
C1253 C1252 1.397 . S
C1253 C1254 1.334 . S
C1254 H1225 0.950 . S
C1254 C1253 1.334 . S
C1254 C1255 1.287 . S
C1255 C1254 1.287 . S
C1255 C1256 1.524 . S
C1255 H1258 0.999 . S
C1256 H1226 0.950 . S
C1256 C1255 1.524 . S
C1256 C1257 1.415 . S
C1257 H1227 0.950 . S
C1257 C1252 1.363 . S
C1257 C1256 1.415 . S
H1258 C1255 0.999 . S
H1259 C1240 0.913 . S
H1260 C1278 0.951 . S
H1261 C1280 0.951 . S
H1262 C1282 0.950 . S
H1263 C1283 0.950 . S
H1264 C1285 0.950 . S
H1265 C1288 0.950 . S
H1266 C1289 0.950 1_556 S
H1267 C1291 0.950 . S
H1268 C1292 0.950 . S
H1269 C1293 0.951 . S
H1270 C1295 0.951 . S
H1271 C1297 0.950 . S
H1272 C1298 0.950 . S
H1273 C1300 0.950 . S
H1274 C1303 0.950 . S
H1275 C1304 0.950 1_554 S
H1276 C1306 0.950 . S
H1277 C1307 0.950 . S
C1278 H1260 0.951 . S
C1278 C1279 1.366 . S
C1278 C1280 1.388 . S
C1279 C1278 1.366 . S
C1279 C1283 1.385 . S
C1280 H1261 0.951 . S
C1280 C1278 1.388 . S
C1280 C1281 1.366 . S
C1281 C1280 1.366 . S
C1281 C1282 1.414 . S
C1281 C1284 1.499 . S
C1282 H1262 0.950 . S
C1282 C1281 1.414 . S
C1282 C1283 1.374 . S
C1283 H1263 0.950 . S
C1283 C1279 1.385 . S
C1283 C1282 1.374 . S
C1284 C1281 1.499 . S
C1284 C1285 1.373 1_565 S
C1284 C1286 1.389 1_556 S
C1285 H1264 0.950 . S
C1285 C1284 1.373 1_545 S
C1285 C1301 1.377 . S
C1286 C1284 1.389 1_554 S
C1286 C1287 1.524 . S
C1286 C1300 1.377 . S
C1287 C1286 1.524 . S
C1287 C1288 1.397 1_554 S
C1287 C1292 1.363 . S
C1288 H1265 0.950 . S
C1288 C1287 1.397 1_556 S
C1288 C1289 1.334 1_556 S
C1289 H1266 0.950 1_554 S
C1289 C1288 1.334 1_554 S
C1289 C1290 1.287 . S
C1290 C1289 1.287 . S
C1290 C1291 1.524 . S
C1290 H1309 0.913 . S
C1291 H1267 0.950 . S
C1291 C1290 1.524 . S
C1291 C1292 1.415 . S
C1292 H1268 0.950 . S
C1292 C1287 1.363 . S
C1292 C1291 1.415 . S
C1293 H1269 0.951 . S
C1293 C1294 1.366 . S
C1293 C1295 1.388 . S
C1294 C1293 1.366 . S
C1294 C1298 1.385 . S
C1295 H1270 0.951 . S
C1295 C1293 1.388 . S
C1295 C1296 1.366 . S
C1296 C1295 1.366 . S
C1296 C1297 1.414 . S
C1296 C1299 1.499 . S
C1297 H1271 0.950 . S
C1297 C1296 1.414 . S
C1297 C1298 1.374 . S
C1298 H1272 0.950 . S
C1298 C1294 1.385 . S
C1298 C1297 1.374 . S
C1299 C1296 1.499 . S
C1299 C1300 1.373 1_545 S
C1299 C1301 1.389 1_554 S
C1300 H1273 0.950 . S
C1300 C1286 1.377 . S
C1300 C1299 1.373 1_565 S
C1301 C1285 1.377 . S
C1301 C1299 1.389 1_556 S
C1301 C1302 1.524 . S
C1302 C1301 1.524 . S
C1302 C1303 1.397 1_556 S
C1302 C1307 1.363 . S
C1303 H1274 0.950 . S
C1303 C1302 1.397 1_554 S
C1303 C1304 1.334 1_554 S
C1304 H1275 0.950 1_556 S
C1304 C1303 1.334 1_556 S
C1304 C1305 1.287 . S
C1305 C1304 1.287 . S
C1305 C1306 1.524 . S
C1305 H1308 0.999 . S
C1306 H1276 0.950 . S
C1306 C1305 1.524 . S
C1306 C1307 1.415 . S
C1307 H1277 0.950 . S
C1307 C1302 1.363 . S
C1307 C1306 1.415 . S
H1308 C1305 0.999 . S
H1309 C1290 0.913 . S
H1310 C1328 0.951 . S
H1311 C1330 0.951 . S
H1312 C1332 0.950 . S
H1313 C1333 0.950 . S
H1314 C1335 0.950 . S
H1315 C1338 0.950 . S
H1316 C1339 0.950 . S
H1317 C1341 0.950 . S
H1318 C1342 0.950 . S
H1319 C1343 0.951 . S
H1320 C1345 0.951 . S
H1321 C1347 0.950 . S
H1322 C1348 0.950 . S
H1323 C1350 0.950 . S
H1324 C1353 0.950 . S
H1325 C1354 0.950 . S
H1326 C1356 0.950 . S
H1327 C1357 0.950 . S
C1328 H1310 0.951 . S
C1328 C1329 1.366 . S
C1328 C1330 1.388 . S
C1329 C1328 1.366 . S
C1329 C1333 1.385 . S
C1330 H1311 0.951 . S
C1330 C1328 1.388 . S
C1330 C1331 1.366 . S
C1331 C1330 1.366 . S
C1331 C1332 1.414 . S
C1331 C1334 1.499 . S
C1332 H1312 0.950 . S
C1332 C1331 1.414 . S
C1332 C1333 1.374 . S
C1333 H1313 0.950 . S
C1333 C1329 1.385 . S
C1333 C1332 1.374 . S
C1334 C1331 1.499 . S
C1334 C1335 1.373 . S
C1334 C1336 1.389 . S
C1335 H1314 0.950 . S
C1335 C1334 1.373 . S
C1335 C1351 1.377 . S
C1336 C1334 1.389 . S
C1336 C1337 1.524 . S
C1336 C1350 1.377 . S
C1337 C1336 1.524 . S
C1337 C1338 1.397 . S
C1337 C1342 1.363 . S
C1338 H1315 0.950 . S
C1338 C1337 1.397 . S
C1338 C1339 1.334 . S
C1339 H1316 0.950 . S
C1339 C1338 1.334 . S
C1339 C1340 1.287 . S
C1340 C1339 1.287 . S
C1340 C1341 1.524 . S
C1340 H1359 0.913 . S
C1341 H1317 0.950 . S
C1341 C1340 1.524 . S
C1341 C1342 1.415 . S
C1342 H1318 0.950 . S
C1342 C1337 1.363 . S
C1342 C1341 1.415 . S
C1343 H1319 0.951 . S
C1343 C1344 1.366 . S
C1343 C1345 1.388 . S
C1344 C1343 1.366 . S
C1344 C1348 1.385 . S
C1345 H1320 0.951 . S
C1345 C1343 1.388 . S
C1345 C1346 1.366 . S
C1346 C1345 1.366 . S
C1346 C1347 1.414 . S
C1346 C1349 1.499 . S
C1347 H1321 0.950 . S
C1347 C1346 1.414 . S
C1347 C1348 1.374 . S
C1348 H1322 0.950 . S
C1348 C1344 1.385 . S
C1348 C1347 1.374 . S
C1349 C1346 1.499 . S
C1349 C1350 1.373 . S
C1349 C1351 1.389 . S
C1350 H1323 0.950 . S
C1350 C1336 1.377 . S
C1350 C1349 1.373 . S
C1351 C1335 1.377 . S
C1351 C1349 1.389 . S
C1351 C1352 1.524 . S
C1352 C1351 1.524 . S
C1352 C1353 1.397 . S
C1352 C1357 1.363 . S
C1353 H1324 0.950 . S
C1353 C1352 1.397 . S
C1353 C1354 1.334 . S
C1354 H1325 0.950 . S
C1354 C1353 1.334 . S
C1354 C1355 1.287 . S
C1355 C1354 1.287 . S
C1355 C1356 1.524 . S
C1355 H1358 0.999 . S
C1356 H1326 0.950 . S
C1356 C1355 1.524 . S
C1356 C1357 1.415 . S
C1357 H1327 0.950 . S
C1357 C1352 1.363 . S
C1357 C1356 1.415 . S
H1358 C1355 0.999 . S
H1359 C1340 0.913 . S
H1360 C1378 0.951 . S
H1361 C1380 0.951 . S
H1362 C1382 0.950 . S
H1363 C1383 0.950 . S
H1364 C1385 0.950 . S
H1365 C1388 0.950 . S
H1366 C1389 0.950 . S
H1367 C1391 0.950 . S
H1368 C1392 0.950 . S
H1369 C1393 0.951 . S
H1370 C1395 0.951 . S
H1371 C1397 0.950 . S
H1372 C1398 0.950 . S
H1373 C1400 0.950 . S
H1374 C1403 0.950 . S
H1375 C1404 0.950 . S
H1376 C1406 0.950 . S
H1377 C1407 0.950 . S
C1378 H1360 0.951 . S
C1378 C1379 1.366 . S
C1378 C1380 1.388 . S
C1379 C1378 1.366 . S
C1379 C1383 1.385 . S
C1380 H1361 0.951 . S
C1380 C1378 1.388 . S
C1380 C1381 1.366 . S
C1381 C1380 1.366 . S
C1381 C1382 1.414 . S
C1381 C1384 1.499 . S
C1382 H1362 0.950 . S
C1382 C1381 1.414 . S
C1382 C1383 1.374 . S
C1383 H1363 0.950 . S
C1383 C1379 1.385 . S
C1383 C1382 1.374 . S
C1384 C1381 1.499 . S
C1384 C1385 1.373 . S
C1384 C1386 1.389 . S
C1385 H1364 0.950 . S
C1385 C1384 1.373 . S
C1385 C1401 1.377 1_456 S
C1386 C1384 1.389 . S
C1386 C1387 1.524 . S
C1386 C1400 1.377 1_456 S
C1387 C1386 1.524 . S
C1387 C1388 1.397 . S
C1387 C1392 1.363 1_556 S
C1388 H1365 0.950 . S
C1388 C1387 1.397 . S
C1388 C1389 1.334 . S
C1389 H1366 0.950 . S
C1389 C1388 1.334 . S
C1389 C1390 1.287 . S
C1390 C1389 1.287 . S
C1390 C1391 1.524 1_556 S
C1390 H1409 0.913 . S
C1391 H1367 0.950 . S
C1391 C1390 1.524 1_554 S
C1391 C1392 1.415 . S
C1392 H1368 0.950 . S
C1392 C1387 1.363 1_554 S
C1392 C1391 1.415 . S
C1393 H1369 0.951 . S
C1393 C1394 1.366 . S
C1393 C1395 1.388 . S
C1394 C1393 1.366 . S
C1394 C1398 1.385 . S
C1395 H1370 0.951 . S
C1395 C1393 1.388 . S
C1395 C1396 1.366 . S
C1396 C1395 1.366 . S
C1396 C1397 1.414 . S
C1396 C1399 1.499 . S
C1397 H1371 0.950 . S
C1397 C1396 1.414 . S
C1397 C1398 1.374 . S
C1398 H1372 0.950 . S
C1398 C1394 1.385 . S
C1398 C1397 1.374 . S
C1399 C1396 1.499 . S
C1399 C1400 1.373 . S
C1399 C1401 1.389 . S
C1400 H1373 0.950 . S
C1400 C1386 1.377 1_654 S
C1400 C1399 1.373 . S
C1401 C1385 1.377 1_654 S
C1401 C1399 1.389 . S
C1401 C1402 1.524 . S
C1402 C1401 1.524 . S
C1402 C1403 1.397 . S
C1402 C1407 1.363 1_554 S
C1403 H1374 0.950 . S
C1403 C1402 1.397 . S
C1403 C1404 1.334 . S
C1404 H1375 0.950 . S
C1404 C1403 1.334 . S
C1404 C1405 1.287 . S
C1405 C1404 1.287 . S
C1405 C1406 1.524 1_554 S
C1405 H1408 0.999 . S
C1406 H1376 0.950 . S
C1406 C1405 1.524 1_556 S
C1406 C1407 1.415 . S
C1407 H1377 0.950 . S
C1407 C1402 1.363 1_556 S
C1407 C1406 1.415 . S
H1408 C1405 0.999 . S
H1409 C1390 0.913 . S
H1410 C1428 0.951 . S
H1411 C1430 0.951 . S
H1412 C1432 0.950 . S
H1413 C1433 0.950 . S
H1414 C1435 0.950 . S
H1415 C1438 0.950 . S
H1416 C1439 0.950 . S
H1417 C1441 0.950 . S
H1418 C1442 0.950 . S
H1419 C1443 0.951 . S
H1420 C1445 0.951 . S
H1421 C1447 0.950 . S
H1422 C1448 0.950 . S
H1423 C1450 0.950 . S
H1424 C1453 0.950 . S
H1425 C1454 0.950 . S
H1426 C1456 0.950 . S
H1427 C1457 0.950 . S
C1428 H1410 0.951 . S
C1428 C1429 1.366 . S
C1428 C1430 1.388 . S
C1429 C1428 1.366 . S
C1429 C1433 1.385 . S
C1430 H1411 0.951 . S
C1430 C1428 1.388 . S
C1430 C1431 1.366 . S
C1431 C1430 1.366 . S
C1431 C1432 1.414 . S
C1431 C1434 1.499 . S
C1432 H1412 0.950 . S
C1432 C1431 1.414 . S
C1432 C1433 1.374 . S
C1433 H1413 0.950 . S
C1433 C1429 1.385 . S
C1433 C1432 1.374 . S
C1434 C1431 1.499 . S
C1434 C1435 1.373 1_545 S
C1434 C1436 1.389 . S
C1435 H1414 0.950 . S
C1435 C1434 1.373 1_565 S
C1435 C1451 1.377 . S
C1436 C1434 1.389 . S
C1436 C1437 1.524 . S
C1436 C1450 1.377 . S
C1437 C1436 1.524 . S
C1437 C1438 1.397 . S
C1437 C1442 1.363 . S
C1438 H1415 0.950 . S
C1438 C1437 1.397 . S
C1438 C1439 1.334 . S
C1439 H1416 0.950 . S
C1439 C1438 1.334 . S
C1439 C1440 1.287 . S
C1440 C1439 1.287 . S
C1440 C1441 1.524 . S
C1440 H1459 0.913 . S
C1441 H1417 0.950 . S
C1441 C1440 1.524 . S
C1441 C1442 1.415 . S
C1442 H1418 0.950 . S
C1442 C1437 1.363 . S
C1442 C1441 1.415 . S
C1443 H1419 0.951 . S
C1443 C1444 1.366 . S
C1443 C1445 1.388 . S
C1444 C1443 1.366 . S
C1444 C1448 1.385 . S
C1445 H1420 0.951 . S
C1445 C1443 1.388 . S
C1445 C1446 1.366 . S
C1446 C1445 1.366 . S
C1446 C1447 1.414 . S
C1446 C1449 1.499 . S
C1447 H1421 0.950 . S
C1447 C1446 1.414 . S
C1447 C1448 1.374 . S
C1448 H1422 0.950 . S
C1448 C1444 1.385 . S
C1448 C1447 1.374 . S
C1449 C1446 1.499 . S
C1449 C1450 1.373 1_565 S
C1449 C1451 1.389 . S
C1450 H1423 0.950 . S
C1450 C1436 1.377 . S
C1450 C1449 1.373 1_545 S
C1451 C1435 1.377 . S
C1451 C1449 1.389 . S
C1451 C1452 1.524 . S
C1452 C1451 1.524 . S
C1452 C1453 1.397 . S
C1452 C1457 1.363 . S
C1453 H1424 0.950 . S
C1453 C1452 1.397 . S
C1453 C1454 1.334 . S
C1454 H1425 0.950 . S
C1454 C1453 1.334 . S
C1454 C1455 1.287 . S
C1455 C1454 1.287 . S
C1455 C1456 1.524 . S
C1455 H1458 0.999 . S
C1456 H1426 0.950 . S
C1456 C1455 1.524 . S
C1456 C1457 1.415 . S
C1457 H1427 0.950 . S
C1457 C1452 1.363 . S
C1457 C1456 1.415 . S
H1458 C1455 0.999 . S
H1459 C1440 0.913 . S
H1460 C1478 0.951 . S
H1461 C1480 0.951 . S
H1462 C1482 0.950 . S
H1463 C1483 0.950 . S
H1464 C1485 0.955 . S
H1465 C1488 0.950 . S
H1466 C1489 0.950 . S
H1467 C1491 0.950 . S
H1468 C1492 0.950 . S
H1469 C1493 0.951 . S
H1470 C1495 0.951 . S
H1471 C1497 0.950 . S
H1472 C1498 0.950 . S
H1473 C1500 0.955 . S
H1474 C1503 0.950 . S
H1475 C1504 0.950 . S
H1476 C1506 0.950 . S
H1477 C1507 0.950 . S
C1478 H1460 0.951 . S
C1478 C1479 1.366 . S
C1478 C1480 1.388 . S
C1479 C1478 1.366 . S
C1479 C1483 1.385 . S
C1480 H1461 0.951 . S
C1480 C1478 1.388 . S
C1480 C1481 1.366 . S
C1481 C1480 1.366 . S
C1481 C1482 1.414 . S
C1481 C1484 1.499 . S
C1482 H1462 0.950 . S
C1482 C1481 1.414 . S
C1482 C1483 1.374 . S
C1483 H1463 0.950 . S
C1483 C1479 1.385 . S
C1483 C1482 1.374 . S
C1484 C1481 1.499 . S
C1484 C1485 1.329 1_554 S
C1484 C1486 1.389 . S
C1485 H1464 0.955 . S
C1485 C1484 1.329 1_556 S
C1485 C1501 1.418 . S
C1486 C1484 1.389 . S
C1486 C1487 1.524 . S
C1486 C1500 1.418 . S
C1487 C1486 1.524 . S
C1487 C1488 1.397 . S
C1487 C1492 1.363 . S
C1488 H1465 0.950 . S
C1488 C1487 1.397 . S
C1488 C1489 1.334 . S
C1489 H1466 0.950 . S
C1489 C1488 1.334 . S
C1489 C1490 1.287 . S
C1490 C1489 1.287 . S
C1490 C1491 1.524 . S
C1490 H1509 0.913 . S
C1491 H1467 0.950 . S
C1491 C1490 1.524 . S
C1491 C1492 1.415 . S
C1492 H1468 0.950 . S
C1492 C1487 1.363 . S
C1492 C1491 1.415 . S
C1493 H1469 0.951 . S
C1493 C1494 1.366 . S
C1493 C1495 1.388 . S
C1494 C1493 1.366 . S
C1494 C1498 1.385 . S
C1495 H1470 0.951 . S
C1495 C1493 1.388 . S
C1495 C1496 1.366 . S
C1496 C1495 1.366 . S
C1496 C1497 1.414 . S
C1496 C1499 1.499 . S
C1497 H1471 0.950 . S
C1497 C1496 1.414 . S
C1497 C1498 1.374 . S
C1498 H1472 0.950 . S
C1498 C1494 1.385 . S
C1498 C1497 1.374 . S
C1499 C1496 1.499 . S
C1499 C1500 1.329 1_556 S
C1499 C1501 1.389 . S
C1500 H1473 0.955 . S
C1500 C1486 1.418 . S
C1500 C1499 1.329 1_554 S
C1501 C1485 1.418 . S
C1501 C1499 1.389 . S
C1501 C1502 1.524 . S
C1502 C1501 1.524 . S
C1502 C1503 1.397 . S
C1502 C1507 1.363 . S
C1503 H1474 0.950 . S
C1503 C1502 1.397 . S
C1503 C1504 1.334 . S
C1504 H1475 0.950 . S
C1504 C1503 1.334 . S
C1504 C1505 1.287 . S
C1505 C1504 1.287 . S
C1505 C1506 1.524 . S
C1505 H1508 0.999 . S
C1506 H1476 0.950 . S
C1506 C1505 1.524 . S
C1506 C1507 1.415 . S
C1507 H1477 0.950 . S
C1507 C1502 1.363 . S
C1507 C1506 1.415 . S
H1508 C1505 0.999 . S
H1509 C1490 0.913 . S
H1510 C1528 0.951 . S
H1511 C1530 0.951 . S
H1512 C1532 0.950 . S
H1513 C1533 0.950 . S
H1514 C1535 0.950 . S
H1515 C1538 0.950 . S
H1516 C1539 0.950 . S
H1517 C1541 0.950 . S
H1518 C1542 0.950 . S
H1519 C1543 0.951 . S
H1520 C1545 0.951 . S
H1521 C1547 0.950 . S
H1522 C1548 0.950 . S
H1523 C1550 0.950 . S
H1524 C1553 0.950 . S
H1525 C1554 0.950 . S
H1526 C1556 0.950 . S
H1527 C1557 0.950 . S
C1528 H1510 0.951 . S
C1528 C1529 1.366 . S
C1528 C1530 1.388 . S
C1529 C1528 1.366 . S
C1529 C1533 1.385 . S
C1530 H1511 0.951 . S
C1530 C1528 1.388 . S
C1530 C1531 1.366 . S
C1531 C1530 1.366 . S
C1531 C1532 1.414 . S
C1531 C1534 1.499 . S
C1532 H1512 0.950 . S
C1532 C1531 1.414 . S
C1532 C1533 1.374 . S
C1533 H1513 0.950 . S
C1533 C1529 1.385 . S
C1533 C1532 1.374 . S
C1534 C1531 1.499 . S
C1534 C1535 1.373 . S
C1534 C1536 1.389 1_455 S
C1535 H1514 0.950 . S
C1535 C1534 1.373 . S
C1535 C1551 1.377 . S
C1536 C1534 1.389 1_655 S
C1536 C1537 1.524 . S
C1536 C1550 1.377 . S
C1537 C1536 1.524 . S
C1537 C1538 1.397 1_655 S
C1537 C1542 1.363 . S
C1538 H1515 0.950 . S
C1538 C1537 1.397 1_455 S
C1538 C1539 1.334 . S
C1539 H1516 0.950 . S
C1539 C1538 1.334 . S
C1539 C1540 1.287 1_455 S
C1540 C1539 1.287 1_655 S
C1540 C1541 1.524 . S
C1540 H1559 0.913 . S
C1541 H1517 0.950 . S
C1541 C1540 1.524 . S
C1541 C1542 1.415 . S
C1542 H1518 0.950 . S
C1542 C1537 1.363 . S
C1542 C1541 1.415 . S
C1543 H1519 0.951 . S
C1543 C1544 1.366 . S
C1543 C1545 1.388 . S
C1544 C1543 1.366 . S
C1544 C1548 1.385 . S
C1545 H1520 0.951 . S
C1545 C1543 1.388 . S
C1545 C1546 1.366 . S
C1546 C1545 1.366 . S
C1546 C1547 1.414 . S
C1546 C1549 1.499 . S
C1547 H1521 0.950 . S
C1547 C1546 1.414 . S
C1547 C1548 1.374 . S
C1548 H1522 0.950 . S
C1548 C1544 1.385 . S
C1548 C1547 1.374 . S
C1549 C1546 1.499 . S
C1549 C1550 1.373 . S
C1549 C1551 1.389 1_655 S
C1550 H1523 0.950 . S
C1550 C1536 1.377 . S
C1550 C1549 1.373 . S
C1551 C1535 1.377 . S
C1551 C1549 1.389 1_455 S
C1551 C1552 1.524 . S
C1552 C1551 1.524 . S
C1552 C1553 1.397 1_455 S
C1552 C1557 1.363 . S
C1553 H1524 0.950 . S
C1553 C1552 1.397 1_655 S
C1553 C1554 1.334 . S
C1554 H1525 0.950 . S
C1554 C1553 1.334 . S
C1554 C1555 1.287 1_655 S
C1555 C1554 1.287 1_455 S
C1555 C1556 1.524 . S
C1555 H1558 0.999 . S
C1556 H1526 0.950 . S
C1556 C1555 1.524 . S
C1556 C1557 1.415 . S
C1557 H1527 0.950 . S
C1557 C1552 1.363 . S
C1557 C1556 1.415 . S
H1558 C1555 0.999 . S
H1559 C1540 0.913 . S
H1560 C1578 0.951 . S
H1561 C1580 0.951 . S
H1562 C1582 0.950 . S
H1563 C1583 0.950 . S
H1564 C1585 0.950 . S
H1565 C1588 0.950 . S
H1566 C1589 0.950 . S
H1567 C1591 0.950 1_565 S
H1568 C1592 0.950 . S
H1569 C1593 0.951 . S
H1570 C1595 0.951 . S
H1571 C1597 0.950 . S
H1572 C1598 0.950 . S
H1573 C1600 0.950 . S
H1574 C1603 0.950 . S
H1575 C1604 0.950 . S
H1576 C1606 0.950 . S
H1577 C1607 0.950 . S
C1578 H1560 0.951 . S
C1578 C1579 1.366 . S
C1578 C1580 1.388 . S
C1579 C1578 1.366 . S
C1579 C1583 1.385 . S
C1580 H1561 0.951 . S
C1580 C1578 1.388 . S
C1580 C1581 1.366 . S
C1581 C1580 1.366 . S
C1581 C1582 1.414 . S
C1581 C1584 1.499 . S
C1582 H1562 0.950 . S
C1582 C1581 1.414 . S
C1582 C1583 1.374 . S
C1583 H1563 0.950 . S
C1583 C1579 1.385 . S
C1583 C1582 1.374 . S
C1584 C1581 1.499 . S
C1584 C1585 1.373 . S
C1584 C1586 1.389 . S
C1585 H1564 0.950 . S
C1585 C1584 1.373 . S
C1585 C1601 1.377 . S
C1586 C1584 1.389 . S
C1586 C1587 1.524 . S
C1586 C1600 1.377 . S
C1587 C1586 1.524 . S
C1587 C1588 1.397 . S
C1587 C1592 1.363 . S
C1588 H1565 0.950 . S
C1588 C1587 1.397 . S
C1588 C1589 1.334 . S
C1589 H1566 0.950 . S
C1589 C1588 1.334 . S
C1589 C1590 1.287 . S
C1590 C1589 1.287 . S
C1590 C1591 1.524 . S
C1590 H1609 0.949 . S
C1591 H1567 0.950 1_545 S
C1591 C1590 1.524 . S
C1591 C1592 1.415 . S
C1592 H1568 0.950 . S
C1592 C1587 1.363 . S
C1592 C1591 1.415 . S
C1593 H1569 0.951 . S
C1593 C1594 1.366 . S
C1593 C1595 1.388 . S
C1594 C1593 1.366 . S
C1594 C1598 1.385 . S
C1595 H1570 0.951 . S
C1595 C1593 1.388 . S
C1595 C1596 1.366 . S
C1596 C1595 1.366 . S
C1596 C1597 1.414 . S
C1596 C1599 1.499 . S
C1597 H1571 0.950 . S
C1597 C1596 1.414 . S
C1597 C1598 1.374 . S
C1598 H1572 0.950 . S
C1598 C1594 1.385 . S
C1598 C1597 1.374 . S
C1599 C1596 1.499 . S
C1599 C1600 1.373 . S
C1599 C1601 1.389 . S
C1600 H1573 0.950 . S
C1600 C1586 1.377 . S
C1600 C1599 1.373 . S
C1601 C1585 1.377 . S
C1601 C1599 1.389 . S
C1601 C1602 1.524 . S
C1602 C1601 1.524 . S
C1602 C1603 1.397 . S
C1602 C1607 1.363 . S
C1603 H1574 0.950 . S
C1603 C1602 1.397 . S
C1603 C1604 1.334 . S
C1604 H1575 0.950 . S
C1604 C1603 1.334 . S
C1604 C1605 1.287 . S
C1605 C1604 1.287 . S
C1605 C1606 1.524 . S
C1605 H1608 0.999 . S
C1606 H1576 0.950 . S
C1606 C1605 1.524 . S
C1606 C1607 1.415 . S
C1607 H1577 0.950 . S
C1607 C1602 1.363 . S
C1607 C1606 1.415 . S
H1608 C1605 0.999 . S
H1609 C1590 0.949 . S
H1610 C1628 0.951 . S
H1611 C1630 0.951 . S
H1612 C1632 0.950 . S
H1613 C1633 0.950 . S
H1614 C1635 0.950 . S
H1615 C1638 0.950 . S
H1616 C1639 0.950 . S
H1617 C1641 0.950 . S
H1618 C1642 0.950 . S
H1619 C1643 0.951 . S
H1620 C1645 0.951 . S
H1621 C1647 0.950 . S
H1622 C1648 0.950 . S
H1623 C1650 0.950 . S
H1624 C1653 0.950 . S
H1625 C1654 0.950 . S
H1626 C1656 0.950 . S
H1627 C1657 0.950 . S
C1628 H1610 0.951 . S
C1628 C1629 1.366 . S
C1628 C1630 1.388 . S
C1629 C1628 1.366 . S
C1629 C1633 1.385 . S
C1630 H1611 0.951 . S
C1630 C1628 1.388 . S
C1630 C1631 1.366 . S
C1631 C1630 1.366 . S
C1631 C1632 1.414 . S
C1631 C1634 1.499 . S
C1632 H1612 0.950 . S
C1632 C1631 1.414 . S
C1632 C1633 1.374 . S
C1633 H1613 0.950 . S
C1633 C1629 1.385 . S
C1633 C1632 1.374 . S
C1634 C1631 1.499 . S
C1634 C1635 1.373 . S
C1634 C1636 1.389 . S
C1635 H1614 0.950 . S
C1635 C1634 1.373 . S
C1635 C1651 1.377 . S
C1636 C1634 1.389 . S
C1636 C1637 1.524 . S
C1636 C1650 1.377 . S
C1637 C1636 1.524 . S
C1637 C1638 1.397 . S
C1637 C1642 1.363 . S
C1638 H1615 0.950 . S
C1638 C1637 1.397 . S
C1638 C1639 1.334 . S
C1639 H1616 0.950 . S
C1639 C1638 1.334 . S
C1639 C1640 1.287 . S
C1640 C1639 1.287 . S
C1640 C1641 1.524 . S
C1640 H1659 0.913 . S
C1641 H1617 0.950 . S
C1641 C1640 1.524 . S
C1641 C1642 1.415 . S
C1642 H1618 0.950 . S
C1642 C1637 1.363 . S
C1642 C1641 1.415 . S
C1643 H1619 0.951 . S
C1643 C1644 1.366 . S
C1643 C1645 1.388 . S
C1644 C1643 1.366 . S
C1644 C1648 1.385 . S
C1645 H1620 0.951 . S
C1645 C1643 1.388 . S
C1645 C1646 1.366 . S
C1646 C1645 1.366 . S
C1646 C1647 1.414 . S
C1646 C1649 1.499 . S
C1647 H1621 0.950 . S
C1647 C1646 1.414 . S
C1647 C1648 1.374 . S
C1648 H1622 0.950 . S
C1648 C1644 1.385 . S
C1648 C1647 1.374 . S
C1649 C1646 1.499 . S
C1649 C1650 1.373 . S
C1649 C1651 1.389 . S
C1650 H1623 0.950 . S
C1650 C1636 1.377 . S
C1650 C1649 1.373 . S
C1651 C1635 1.377 . S
C1651 C1649 1.389 . S
C1651 C1652 1.524 . S
C1652 C1651 1.524 . S
C1652 C1653 1.397 . S
C1652 C1657 1.363 . S
C1653 H1624 0.950 . S
C1653 C1652 1.397 . S
C1653 C1654 1.334 . S
C1654 H1625 0.950 . S
C1654 C1653 1.334 . S
C1654 C1655 1.287 . S
C1655 C1654 1.287 . S
C1655 C1656 1.524 . S
C1655 H1658 0.999 . S
C1656 H1626 0.950 . S
C1656 C1655 1.524 . S
C1656 C1657 1.415 . S
C1657 H1627 0.950 . S
C1657 C1652 1.363 . S
C1657 C1656 1.415 . S
H1658 C1655 0.999 . S
H1659 C1640 0.913 . S
H1660 C1678 0.951 . S
H1661 C1680 0.951 . S
H1662 C1682 0.950 . S
H1663 C1683 0.950 . S
H1664 C1685 0.950 . S
H1665 C1688 0.950 . S
H1666 C1689 0.950 . S
H1667 C1691 0.950 . S
H1668 C1692 0.950 . S
H1669 C1693 0.951 . S
H1670 C1695 0.951 . S
H1671 C1697 0.950 . S
H1672 C1698 0.950 . S
H1673 C1700 0.950 . S
H1674 C1703 0.950 . S
H1675 C1704 0.950 . S
H1676 C1706 0.950 . S
H1677 C1707 0.950 . S
C1678 H1660 0.951 . S
C1678 C1679 1.366 . S
C1678 C1680 1.388 . S
C1679 C1678 1.366 . S
C1679 C1683 1.385 . S
C1680 H1661 0.951 . S
C1680 C1678 1.388 . S
C1680 C1681 1.366 . S
C1681 C1680 1.366 . S
C1681 C1682 1.414 . S
C1681 C1684 1.499 . S
C1682 H1662 0.950 . S
C1682 C1681 1.414 . S
C1682 C1683 1.374 . S
C1683 H1663 0.950 . S
C1683 C1679 1.385 . S
C1683 C1682 1.374 . S
C1684 C1681 1.499 . S
C1684 C1685 1.373 . S
C1684 C1686 1.389 . S
C1685 H1664 0.950 . S
C1685 C1684 1.373 . S
C1685 C1701 1.377 . S
C1686 C1684 1.389 . S
C1686 C1687 1.524 . S
C1686 C1700 1.377 . S
C1687 C1686 1.524 . S
C1687 C1688 1.397 . S
C1687 C1692 1.363 . S
C1688 H1665 0.950 . S
C1688 C1687 1.397 . S
C1688 C1689 1.334 . S
C1689 H1666 0.950 . S
C1689 C1688 1.334 . S
C1689 C1690 1.287 . S
C1690 C1689 1.287 . S
C1690 C1691 1.524 . S
C1690 H1709 0.913 . S
C1691 H1667 0.950 . S
C1691 C1690 1.524 . S
C1691 C1692 1.415 . S
C1692 H1668 0.950 . S
C1692 C1687 1.363 . S
C1692 C1691 1.415 . S
C1693 H1669 0.951 . S
C1693 C1694 1.366 . S
C1693 C1695 1.388 . S
C1694 C1693 1.366 . S
C1694 C1698 1.385 . S
C1695 H1670 0.951 . S
C1695 C1693 1.388 . S
C1695 C1696 1.366 . S
C1696 C1695 1.366 . S
C1696 C1697 1.414 . S
C1696 C1699 1.499 . S
C1697 H1671 0.950 . S
C1697 C1696 1.414 . S
C1697 C1698 1.374 . S
C1698 H1672 0.950 . S
C1698 C1694 1.385 . S
C1698 C1697 1.374 . S
C1699 C1696 1.499 . S
C1699 C1700 1.373 . S
C1699 C1701 1.389 . S
C1700 H1673 0.950 . S
C1700 C1686 1.377 . S
C1700 C1699 1.373 . S
C1701 C1685 1.377 . S
C1701 C1699 1.389 . S
C1701 C1702 1.524 . S
C1702 C1701 1.524 . S
C1702 C1703 1.397 . S
C1702 C1707 1.363 . S
C1703 H1674 0.950 . S
C1703 C1702 1.397 . S
C1703 C1704 1.334 . S
C1704 H1675 0.950 . S
C1704 C1703 1.334 . S
C1704 C1705 1.287 . S
C1705 C1704 1.287 . S
C1705 C1706 1.524 . S
C1705 H1708 0.999 . S
C1706 H1676 0.950 . S
C1706 C1705 1.524 . S
C1706 C1707 1.415 . S
C1707 H1677 0.950 . S
C1707 C1702 1.363 . S
C1707 C1706 1.415 . S
H1708 C1705 0.999 . S
H1709 C1690 0.913 . S
H1710 C1728 0.951 . S
H1711 C1730 0.951 . S
H1712 C1732 0.950 . S
H1713 C1733 0.950 . S
H1714 C1735 0.950 . S
H1715 C1738 0.950 . S
H1716 C1739 0.950 . S
H1717 C1741 0.950 . S
H1718 C1742 0.950 . S
H1719 C1743 0.951 . S
H1720 C1745 0.951 . S
H1721 C1747 0.950 . S
H1722 C1748 0.950 . S
H1723 C1750 0.950 . S
H1724 C1753 0.950 . S
H1725 C1754 0.950 . S
H1726 C1756 0.950 . S
H1727 C1757 0.950 . S
C1728 H1710 0.951 . S
C1728 C1729 1.366 . S
C1728 C1730 1.388 . S
C1729 C1728 1.366 . S
C1729 C1733 1.385 . S
C1730 H1711 0.951 . S
C1730 C1728 1.388 . S
C1730 C1731 1.366 . S
C1731 C1730 1.366 . S
C1731 C1732 1.414 . S
C1731 C1734 1.499 . S
C1732 H1712 0.950 . S
C1732 C1731 1.414 . S
C1732 C1733 1.374 . S
C1733 H1713 0.950 . S
C1733 C1729 1.385 . S
C1733 C1732 1.374 . S
C1734 C1731 1.499 . S
C1734 C1735 1.373 . S
C1734 C1736 1.389 . S
C1735 H1714 0.950 . S
C1735 C1734 1.373 . S
C1735 C1751 1.377 . S
C1736 C1734 1.389 . S
C1736 C1737 1.524 . S
C1736 C1750 1.377 . S
C1737 C1736 1.524 . S
C1737 C1738 1.397 . S
C1737 C1742 1.363 . S
C1738 H1715 0.950 . S
C1738 C1737 1.397 . S
C1738 C1739 1.334 . S
C1739 H1716 0.950 . S
C1739 C1738 1.334 . S
C1739 C1740 1.287 . S
C1740 C1739 1.287 . S
C1740 C1741 1.524 . S
C1740 H1759 0.913 . S
C1741 H1717 0.950 . S
C1741 C1740 1.524 . S
C1741 C1742 1.415 . S
C1742 H1718 0.950 . S
C1742 C1737 1.363 . S
C1742 C1741 1.415 . S
C1743 H1719 0.951 . S
C1743 C1744 1.366 . S
C1743 C1745 1.388 . S
C1744 C1743 1.366 . S
C1744 C1748 1.385 . S
C1745 H1720 0.951 . S
C1745 C1743 1.388 . S
C1745 C1746 1.366 . S
C1746 C1745 1.366 . S
C1746 C1747 1.414 . S
C1746 C1749 1.499 . S
C1747 H1721 0.950 . S
C1747 C1746 1.414 . S
C1747 C1748 1.374 . S
C1748 H1722 0.950 . S
C1748 C1744 1.385 . S
C1748 C1747 1.374 . S
C1749 C1746 1.499 . S
C1749 C1750 1.373 . S
C1749 C1751 1.389 . S
C1750 H1723 0.950 . S
C1750 C1736 1.377 . S
C1750 C1749 1.373 . S
C1751 C1735 1.377 . S
C1751 C1749 1.389 . S
C1751 C1752 1.524 . S
C1752 C1751 1.524 . S
C1752 C1753 1.397 . S
C1752 C1757 1.363 . S
C1753 H1724 0.950 . S
C1753 C1752 1.397 . S
C1753 C1754 1.334 . S
C1754 H1725 0.950 . S
C1754 C1753 1.334 . S
C1754 C1755 1.287 . S
C1755 C1754 1.287 . S
C1755 C1756 1.524 . S
C1755 H1758 0.999 . S
C1756 H1726 0.950 . S
C1756 C1755 1.524 . S
C1756 C1757 1.415 . S
C1757 H1727 0.950 . S
C1757 C1752 1.363 . S
C1757 C1756 1.415 . S
H1758 C1755 0.999 . S
H1759 C1740 0.913 . S
H1760 C1778 0.951 . S
H1761 C1780 0.951 . S
H1762 C1782 0.950 . S
H1763 C1783 0.950 . S
H1764 C1785 0.950 . S
H1765 C1788 0.950 . S
H1766 C1789 0.950 . S
H1767 C1791 0.950 . S
H1768 C1792 0.950 . S
H1769 C1793 0.951 . S
H1770 C1795 0.951 . S
H1771 C1797 0.950 . S
H1772 C1798 0.950 . S
H1773 C1800 0.950 . S
H1774 C1803 0.950 . S
H1775 C1804 0.950 . S
H1776 C1806 0.950 . S
H1777 C1807 0.950 . S
C1778 H1760 0.951 . S
C1778 C1779 1.366 . S
C1778 C1780 1.388 . S
C1779 C1778 1.366 . S
C1779 C1783 1.385 . S
C1780 H1761 0.951 . S
C1780 C1778 1.388 . S
C1780 C1781 1.366 . S
C1781 C1780 1.366 . S
C1781 C1782 1.414 . S
C1781 C1784 1.499 . S
C1782 H1762 0.950 . S
C1782 C1781 1.414 . S
C1782 C1783 1.374 . S
C1783 H1763 0.950 . S
C1783 C1779 1.385 . S
C1783 C1782 1.374 . S
C1784 C1781 1.499 . S
C1784 C1785 1.373 . S
C1784 C1786 1.389 . S
C1785 H1764 0.950 . S
C1785 C1784 1.373 . S
C1785 C1801 1.377 . S
C1786 C1784 1.389 . S
C1786 C1787 1.524 . S
C1786 C1800 1.377 . S
C1787 C1786 1.524 . S
C1787 C1788 1.397 . S
C1787 C1792 1.363 . S
C1788 H1765 0.950 . S
C1788 C1787 1.397 . S
C1788 C1789 1.334 . S
C1789 H1766 0.950 . S
C1789 C1788 1.334 . S
C1789 C1790 1.287 . S
C1790 C1789 1.287 . S
C1790 C1791 1.524 . S
C1790 H1809 0.913 . S
C1791 H1767 0.950 . S
C1791 C1790 1.524 . S
C1791 C1792 1.415 . S
C1792 H1768 0.950 . S
C1792 C1787 1.363 . S
C1792 C1791 1.415 . S
C1793 H1769 0.951 . S
C1793 C1794 1.366 . S
C1793 C1795 1.388 . S
C1794 C1793 1.366 . S
C1794 C1798 1.385 . S
C1795 H1770 0.951 . S
C1795 C1793 1.388 . S
C1795 C1796 1.366 . S
C1796 C1795 1.366 . S
C1796 C1797 1.414 . S
C1796 C1799 1.499 . S
C1797 H1771 0.950 . S
C1797 C1796 1.414 . S
C1797 C1798 1.374 . S
C1798 H1772 0.950 . S
C1798 C1794 1.385 . S
C1798 C1797 1.374 . S
C1799 C1796 1.499 . S
C1799 C1800 1.373 . S
C1799 C1801 1.389 . S
C1800 H1773 0.950 . S
C1800 C1786 1.377 . S
C1800 C1799 1.373 . S
C1801 C1785 1.377 . S
C1801 C1799 1.389 . S
C1801 C1802 1.524 . S
C1802 C1801 1.524 . S
C1802 C1803 1.397 . S
C1802 C1807 1.363 . S
C1803 H1774 0.950 . S
C1803 C1802 1.397 . S
C1803 C1804 1.334 . S
C1804 H1775 0.950 . S
C1804 C1803 1.334 . S
C1804 C1805 1.287 . S
C1805 C1804 1.287 . S
C1805 C1806 1.524 . S
C1805 H1808 0.999 . S
C1806 H1776 0.950 . S
C1806 C1805 1.524 . S
C1806 C1807 1.415 . S
C1807 H1777 0.950 . S
C1807 C1802 1.363 . S
C1807 C1806 1.415 . S
H1808 C1805 0.999 . S
H1809 C1790 0.913 . S
H1810 C1828 0.951 . S
H1811 C1830 0.951 . S
H1812 C1832 0.950 . S
H1813 C1833 0.950 . S
H1814 C1835 0.950 . S
H1815 C1838 0.950 . S
H1816 C1839 0.950 . S
H1817 C1841 0.950 . S
H1818 C1842 0.950 . S
H1819 C1843 0.951 . S
H1820 C1845 0.951 . S
H1821 C1847 0.950 . S
H1822 C1848 0.950 . S
H1823 C1850 0.950 . S
H1824 C1853 0.950 . S
H1825 C1854 0.950 . S
H1826 C1856 0.950 . S
H1827 C1857 0.950 . S
C1828 H1810 0.951 . S
C1828 C1829 1.366 . S
C1828 C1830 1.388 . S
C1829 C1828 1.366 . S
C1829 C1833 1.385 . S
C1830 H1811 0.951 . S
C1830 C1828 1.388 . S
C1830 C1831 1.366 . S
C1831 C1830 1.366 . S
C1831 C1832 1.414 . S
C1831 C1834 1.499 . S
C1832 H1812 0.950 . S
C1832 C1831 1.414 . S
C1832 C1833 1.374 . S
C1833 H1813 0.950 . S
C1833 C1829 1.385 . S
C1833 C1832 1.374 . S
C1834 C1831 1.499 . S
C1834 C1835 1.373 . S
C1834 C1836 1.389 . S
C1835 H1814 0.950 . S
C1835 C1834 1.373 . S
C1835 C1851 1.377 . S
C1836 C1834 1.389 . S
C1836 C1837 1.524 . S
C1836 C1850 1.377 . S
C1837 C1836 1.524 . S
C1837 C1838 1.397 . S
C1837 C1842 1.363 . S
C1838 H1815 0.950 . S
C1838 C1837 1.397 . S
C1838 C1839 1.334 . S
C1839 H1816 0.950 . S
C1839 C1838 1.334 . S
C1839 C1840 1.287 . S
C1840 C1839 1.287 . S
C1840 C1841 1.524 . S
C1840 H1859 0.913 . S
C1841 H1817 0.950 . S
C1841 C1840 1.524 . S
C1841 C1842 1.415 . S
C1842 H1818 0.950 . S
C1842 C1837 1.363 . S
C1842 C1841 1.415 . S
C1843 H1819 0.951 . S
C1843 C1844 1.366 . S
C1843 C1845 1.388 . S
C1844 C1843 1.366 . S
C1844 C1848 1.385 . S
C1845 H1820 0.951 . S
C1845 C1843 1.388 . S
C1845 C1846 1.366 . S
C1846 C1845 1.366 . S
C1846 C1847 1.414 . S
C1846 C1849 1.499 . S
C1847 H1821 0.950 . S
C1847 C1846 1.414 . S
C1847 C1848 1.374 . S
C1848 H1822 0.950 . S
C1848 C1844 1.385 . S
C1848 C1847 1.374 . S
C1849 C1846 1.499 . S
C1849 C1850 1.373 . S
C1849 C1851 1.389 . S
C1850 H1823 0.950 . S
C1850 C1836 1.377 . S
C1850 C1849 1.373 . S
C1851 C1835 1.377 . S
C1851 C1849 1.389 . S
C1851 C1852 1.524 . S
C1852 C1851 1.524 . S
C1852 C1853 1.397 . S
C1852 C1857 1.363 . S
C1853 H1824 0.950 . S
C1853 C1852 1.397 . S
C1853 C1854 1.334 . S
C1854 H1825 0.950 . S
C1854 C1853 1.334 . S
C1854 C1855 1.287 . S
C1855 C1854 1.287 . S
C1855 C1856 1.524 . S
C1855 H1858 0.999 . S
C1856 H1826 0.950 . S
C1856 C1855 1.524 . S
C1856 C1857 1.415 . S
C1857 H1827 0.950 . S
C1857 C1852 1.363 . S
C1857 C1856 1.415 . S
H1858 C1855 0.999 . S
H1859 C1840 0.913 . S
H1860 C1878 0.951 . S
H1861 C1880 0.951 . S
H1862 C1882 0.950 . S
H1863 C1883 0.950 . S
H1864 C1885 0.950 . S
H1865 C1888 0.950 . S
H1866 C1889 0.950 . S
H1867 C1891 0.950 . S
H1868 C1892 0.950 . S
H1869 C1893 0.951 . S
H1870 C1895 0.951 . S
H1871 C1897 0.950 . S
H1872 C1898 0.950 . S
H1873 C1900 0.950 . S
H1874 C1903 0.950 . S
H1875 C1904 0.950 . S
H1876 C1906 0.950 . S
H1877 C1907 0.950 . S
C1878 H1860 0.951 . S
C1878 C1879 1.366 . S
C1878 C1880 1.388 . S
C1879 C1878 1.366 . S
C1879 C1883 1.385 . S
C1880 H1861 0.951 . S
C1880 C1878 1.388 . S
C1880 C1881 1.366 . S
C1881 C1880 1.366 . S
C1881 C1882 1.414 . S
C1881 C1884 1.499 . S
C1882 H1862 0.950 . S
C1882 C1881 1.414 . S
C1882 C1883 1.374 . S
C1883 H1863 0.950 . S
C1883 C1879 1.385 . S
C1883 C1882 1.374 . S
C1884 C1881 1.499 . S
C1884 C1885 1.373 . S
C1884 C1886 1.389 . S
C1885 H1864 0.950 . S
C1885 C1884 1.373 . S
C1885 C1901 1.377 . S
C1886 C1884 1.389 . S
C1886 C1887 1.524 . S
C1886 C1900 1.377 . S
C1887 C1886 1.524 . S
C1887 C1888 1.397 . S
C1887 C1892 1.363 . S
C1888 H1865 0.950 . S
C1888 C1887 1.397 . S
C1888 C1889 1.334 . S
C1889 H1866 0.950 . S
C1889 C1888 1.334 . S
C1889 C1890 1.287 . S
C1890 C1889 1.287 . S
C1890 C1891 1.524 . S
C1890 H1909 0.913 . S
C1891 H1867 0.950 . S
C1891 C1890 1.524 . S
C1891 C1892 1.415 . S
C1892 H1868 0.950 . S
C1892 C1887 1.363 . S
C1892 C1891 1.415 . S
C1893 H1869 0.951 . S
C1893 C1894 1.366 . S
C1893 C1895 1.388 . S
C1894 C1893 1.366 . S
C1894 C1898 1.385 . S
C1895 H1870 0.951 . S
C1895 C1893 1.388 . S
C1895 C1896 1.366 . S
C1896 C1895 1.366 . S
C1896 C1897 1.414 . S
C1896 C1899 1.499 . S
C1897 H1871 0.950 . S
C1897 C1896 1.414 . S
C1897 C1898 1.374 . S
C1898 H1872 0.950 . S
C1898 C1894 1.385 . S
C1898 C1897 1.374 . S
C1899 C1896 1.499 . S
C1899 C1900 1.373 . S
C1899 C1901 1.389 . S
C1900 H1873 0.950 . S
C1900 C1886 1.377 . S
C1900 C1899 1.373 . S
C1901 C1885 1.377 . S
C1901 C1899 1.389 . S
C1901 C1902 1.524 . S
C1902 C1901 1.524 . S
C1902 C1903 1.397 . S
C1902 C1907 1.363 . S
C1903 H1874 0.950 . S
C1903 C1902 1.397 . S
C1903 C1904 1.334 . S
C1904 H1875 0.950 . S
C1904 C1903 1.334 . S
C1904 C1905 1.287 . S
C1905 C1904 1.287 . S
C1905 C1906 1.524 . S
C1905 H1908 0.999 . S
C1906 H1876 0.950 . S
C1906 C1905 1.524 . S
C1906 C1907 1.415 . S
C1907 H1877 0.950 . S
C1907 C1902 1.363 . S
C1907 C1906 1.415 . S
H1908 C1905 0.999 . S
H1909 C1890 0.913 . S
H1910 C1928 0.951 . S
H1911 C1930 0.951 . S
H1912 C1932 0.950 . S
H1913 C1933 0.950 . S
H1914 C1935 0.950 . S
H1915 C1938 0.950 . S
H1916 C1939 0.950 . S
H1917 C1941 0.950 . S
H1918 C1942 0.950 . S
H1919 C1943 0.951 . S
H1920 C1945 0.951 . S
H1921 C1947 0.950 . S
H1922 C1948 0.950 . S
H1923 C1950 0.950 . S
H1924 C1953 0.950 . S
H1925 C1954 0.950 . S
H1926 C1956 0.950 1_545 S
H1927 C1957 0.950 . S
C1928 H1910 0.951 . S
C1928 C1929 1.366 . S
C1928 C1930 1.388 . S
C1929 C1928 1.366 . S
C1929 C1933 1.385 . S
C1930 H1911 0.951 . S
C1930 C1928 1.388 . S
C1930 C1931 1.366 . S
C1931 C1930 1.366 . S
C1931 C1932 1.414 . S
C1931 C1934 1.499 . S
C1932 H1912 0.950 . S
C1932 C1931 1.414 . S
C1932 C1933 1.374 . S
C1933 H1913 0.950 . S
C1933 C1929 1.385 . S
C1933 C1932 1.374 . S
C1934 C1931 1.499 . S
C1934 C1935 1.373 . S
C1934 C1936 1.389 . S
C1935 H1914 0.950 . S
C1935 C1934 1.373 . S
C1935 C1951 1.377 . S
C1936 C1934 1.389 . S
C1936 C1937 1.524 . S
C1936 C1950 1.377 . S
C1937 C1936 1.524 . S
C1937 C1938 1.397 . S
C1937 C1942 1.363 . S
C1938 H1915 0.950 . S
C1938 C1937 1.397 . S
C1938 C1939 1.334 . S
C1939 H1916 0.950 . S
C1939 C1938 1.334 . S
C1939 C1940 1.287 . S
C1940 C1939 1.287 . S
C1940 C1941 1.524 . S
C1940 H1959 0.913 . S
C1941 H1917 0.950 . S
C1941 C1940 1.524 . S
C1941 C1942 1.415 . S
C1942 H1918 0.950 . S
C1942 C1937 1.363 . S
C1942 C1941 1.415 . S
C1943 H1919 0.951 . S
C1943 C1944 1.366 . S
C1943 C1945 1.388 . S
C1944 C1943 1.366 . S
C1944 C1948 1.385 . S
C1945 H1920 0.951 . S
C1945 C1943 1.388 . S
C1945 C1946 1.366 . S
C1946 C1945 1.366 . S
C1946 C1947 1.414 . S
C1946 C1949 1.499 . S
C1947 H1921 0.950 . S
C1947 C1946 1.414 . S
C1947 C1948 1.374 . S
C1948 H1922 0.950 . S
C1948 C1944 1.385 . S
C1948 C1947 1.374 . S
C1949 C1946 1.499 . S
C1949 C1950 1.373 . S
C1949 C1951 1.389 . S
C1950 H1923 0.950 . S
C1950 C1936 1.377 . S
C1950 C1949 1.373 . S
C1951 C1935 1.377 . S
C1951 C1949 1.389 . S
C1951 C1952 1.524 . S
C1952 C1951 1.524 . S
C1952 C1953 1.397 . S
C1952 C1957 1.363 . S
C1953 H1924 0.950 . S
C1953 C1952 1.397 . S
C1953 C1954 1.334 . S
C1954 H1925 0.950 . S
C1954 C1953 1.334 . S
C1954 C1955 1.287 . S
C1955 C1954 1.287 . S
C1955 C1956 1.524 . S
C1955 H1958 0.999 . S
C1956 H1926 0.950 1_565 S
C1956 C1955 1.524 . S
C1956 C1957 1.415 . S
C1957 H1927 0.950 . S
C1957 C1952 1.363 . S
C1957 C1956 1.415 . S
H1958 C1955 0.999 . S
H1959 C1940 0.913 . S
H1960 C1978 0.951 . S
H1961 C1980 0.951 . S
H1962 C1982 0.950 . S
H1963 C1983 0.950 . S
H1964 C1985 0.950 . S
H1965 C1988 0.950 . S
H1966 C1989 0.950 . S
H1967 C1991 0.950 . S
H1968 C1992 0.950 . S
H1969 C1993 0.951 . S
H1970 C1995 0.951 . S
H1971 C1997 0.950 . S
H1972 C1998 0.950 . S
H1973 C2000 0.950 . S
H1974 C2003 0.950 . S
H1975 C2004 0.950 . S
H1976 C2006 0.950 . S
H1977 C2007 0.950 . S
C1978 H1960 0.951 . S
C1978 C1979 1.366 . S
C1978 C1980 1.388 . S
C1979 C1978 1.366 . S
C1979 C1983 1.385 . S
C1980 H1961 0.951 . S
C1980 C1978 1.388 . S
C1980 C1981 1.366 . S
C1981 C1980 1.366 . S
C1981 C1982 1.414 . S
C1981 C1984 1.499 . S
C1982 H1962 0.950 . S
C1982 C1981 1.414 . S
C1982 C1983 1.374 . S
C1983 H1963 0.950 . S
C1983 C1979 1.385 . S
C1983 C1982 1.374 . S
C1984 C1981 1.499 . S
C1984 C1985 1.373 . S
C1984 C1986 1.389 . S
C1985 H1964 0.950 . S
C1985 C1984 1.373 . S
C1985 C2001 1.377 . S
C1986 C1984 1.389 . S
C1986 C1987 1.524 . S
C1986 C2000 1.377 . S
C1987 C1986 1.524 . S
C1987 C1988 1.397 . S
C1987 C1992 1.363 . S
C1988 H1965 0.950 . S
C1988 C1987 1.397 . S
C1988 C1989 1.334 . S
C1989 H1966 0.950 . S
C1989 C1988 1.334 . S
C1989 C1990 1.287 . S
C1990 C1989 1.287 . S
C1990 C1991 1.524 . S
C1990 H2009 0.913 . S
C1991 H1967 0.950 . S
C1991 C1990 1.524 . S
C1991 C1992 1.415 . S
C1992 H1968 0.950 . S
C1992 C1987 1.363 . S
C1992 C1991 1.415 . S
C1993 H1969 0.951 . S
C1993 C1994 1.366 . S
C1993 C1995 1.388 . S
C1994 C1993 1.366 . S
C1994 C1998 1.385 . S
C1995 H1970 0.951 . S
C1995 C1993 1.388 . S
C1995 C1996 1.366 . S
C1996 C1995 1.366 . S
C1996 C1997 1.414 . S
C1996 C1999 1.499 . S
C1997 H1971 0.950 . S
C1997 C1996 1.414 . S
C1997 C1998 1.374 . S
C1998 H1972 0.950 . S
C1998 C1994 1.385 . S
C1998 C1997 1.374 . S
C1999 C1996 1.499 . S
C1999 C2000 1.373 . S
C1999 C2001 1.389 . S
C2000 H1973 0.950 . S
C2000 C1986 1.377 . S
C2000 C1999 1.373 . S
C2001 C1985 1.377 . S
C2001 C1999 1.389 . S
C2001 C2002 1.524 . S
C2002 C2001 1.524 . S
C2002 C2003 1.397 . S
C2002 C2007 1.363 . S
C2003 H1974 0.950 . S
C2003 C2002 1.397 . S
C2003 C2004 1.334 . S
C2004 H1975 0.950 . S
C2004 C2003 1.334 . S
C2004 C2005 1.287 . S
C2005 C2004 1.287 . S
C2005 C2006 1.524 . S
C2005 H2008 0.999 . S
C2006 H1976 0.950 . S
C2006 C2005 1.524 . S
C2006 C2007 1.415 . S
C2007 H1977 0.950 . S
C2007 C2002 1.363 . S
C2007 C2006 1.415 . S
H2008 C2005 0.999 . S
H2009 C1990 0.913 . S
H2010 C2028 0.951 . S
H2011 C2030 0.951 . S
H2012 C2032 0.950 . S
H2013 C2033 0.950 . S
H2014 C2035 0.950 . S
H2015 C2038 0.950 . S
H2016 C2039 0.950 . S
H2017 C2041 0.950 . S
H2018 C2042 0.950 . S
H2019 C2043 0.951 . S
H2020 C2045 0.951 . S
H2021 C2047 0.950 . S
H2022 C2048 0.950 . S
H2023 C2050 0.950 . S
H2024 C2053 0.950 . S
H2025 C2054 0.950 . S
H2026 C2056 0.950 1_655 S
H2027 C2057 0.950 . S
C2028 H2010 0.951 . S
C2028 C2029 1.366 . S
C2028 C2030 1.388 . S
C2029 C2028 1.366 . S
C2029 C2033 1.385 . S
C2030 H2011 0.951 . S
C2030 C2028 1.388 . S
C2030 C2031 1.366 . S
C2031 C2030 1.366 . S
C2031 C2032 1.414 . S
C2031 C2034 1.499 . S
C2032 H2012 0.950 . S
C2032 C2031 1.414 . S
C2032 C2033 1.374 . S
C2033 H2013 0.950 . S
C2033 C2029 1.385 . S
C2033 C2032 1.374 . S
C2034 C2031 1.499 . S
C2034 C2035 1.373 . S
C2034 C2036 1.389 . S
C2035 H2014 0.950 . S
C2035 C2034 1.373 . S
C2035 C2051 1.377 . S
C2036 C2034 1.389 . S
C2036 C2037 1.524 . S
C2036 C2050 1.377 . S
C2037 C2036 1.524 . S
C2037 C2038 1.397 . S
C2037 C2042 1.363 . S
C2038 H2015 0.950 . S
C2038 C2037 1.397 . S
C2038 C2039 1.334 . S
C2039 H2016 0.950 . S
C2039 C2038 1.334 . S
C2039 C2040 1.287 . S
C2040 C2039 1.287 . S
C2040 C2041 1.524 . S
C2040 H2059 0.913 . S
C2041 H2017 0.950 . S
C2041 C2040 1.524 . S
C2041 C2042 1.415 . S
C2042 H2018 0.950 . S
C2042 C2037 1.363 . S
C2042 C2041 1.415 . S
C2043 H2019 0.951 . S
C2043 C2044 1.366 . S
C2043 C2045 1.388 . S
C2044 C2043 1.366 . S
C2044 C2048 1.385 . S
C2045 H2020 0.951 . S
C2045 C2043 1.388 . S
C2045 C2046 1.366 . S
C2046 C2045 1.366 . S
C2046 C2047 1.414 . S
C2046 C2049 1.499 . S
C2047 H2021 0.950 . S
C2047 C2046 1.414 . S
C2047 C2048 1.374 . S
C2048 H2022 0.950 . S
C2048 C2044 1.385 . S
C2048 C2047 1.374 . S
C2049 C2046 1.499 . S
C2049 C2050 1.373 . S
C2049 C2051 1.389 . S
C2050 H2023 0.950 . S
C2050 C2036 1.377 . S
C2050 C2049 1.373 . S
C2051 C2035 1.377 . S
C2051 C2049 1.389 . S
C2051 C2052 1.524 . S
C2052 C2051 1.524 . S
C2052 C2053 1.397 . S
C2052 C2057 1.363 . S
C2053 H2024 0.950 . S
C2053 C2052 1.397 . S
C2053 C2054 1.334 . S
C2054 H2025 0.950 . S
C2054 C2053 1.334 . S
C2054 C2055 1.287 . S
C2055 C2054 1.287 . S
C2055 C2056 1.524 . S
C2055 H2058 0.999 1_455 S
C2056 H2026 0.950 1_455 S
C2056 C2055 1.524 . S
C2056 C2057 1.415 . S
C2057 H2027 0.950 . S
C2057 C2052 1.363 . S
C2057 C2056 1.415 . S
H2058 C2055 0.999 1_655 S
H2059 C2040 0.913 . S
H2060 C2078 0.951 . S
H2061 C2080 0.951 . S
H2062 C2082 0.950 . S
H2063 C2083 0.950 . S
H2064 C2085 0.950 . S
H2065 C2088 0.950 . S
H2066 C2089 0.950 . S
H2067 C2091 0.950 . S
H2068 C2092 0.950 . S
H2069 C2093 0.951 . S
H2070 C2095 0.951 . S
H2071 C2097 0.950 . S
H2072 C2098 0.950 . S
H2073 C2100 0.950 . S
H2074 C2103 0.950 . S
H2075 C2104 0.950 . S
H2076 C2106 0.950 . S
H2077 C2107 0.950 . S
C2078 H2060 0.951 . S
C2078 C2079 1.366 . S
C2078 C2080 1.388 . S
C2079 C2078 1.366 . S
C2079 C2083 1.385 . S
C2080 H2061 0.951 . S
C2080 C2078 1.388 . S
C2080 C2081 1.366 . S
C2081 C2080 1.366 . S
C2081 C2082 1.414 . S
C2081 C2084 1.499 . S
C2082 H2062 0.950 . S
C2082 C2081 1.414 . S
C2082 C2083 1.374 . S
C2083 H2063 0.950 . S
C2083 C2079 1.385 . S
C2083 C2082 1.374 . S
C2084 C2081 1.499 . S
C2084 C2085 1.373 . S
C2084 C2086 1.389 . S
C2085 H2064 0.950 . S
C2085 C2084 1.373 . S
C2085 C2101 1.377 . S
C2086 C2084 1.389 . S
C2086 C2087 1.524 . S
C2086 C2100 1.377 . S
C2087 C2086 1.524 . S
C2087 C2088 1.397 . S
C2087 C2092 1.363 . S
C2088 H2065 0.950 . S
C2088 C2087 1.397 . S
C2088 C2089 1.334 . S
C2089 H2066 0.950 . S
C2089 C2088 1.334 . S
C2089 C2090 1.287 . S
C2090 C2089 1.287 . S
C2090 C2091 1.524 . S
C2090 H2109 0.913 . S
C2091 H2067 0.950 . S
C2091 C2090 1.524 . S
C2091 C2092 1.415 . S
C2092 H2068 0.950 . S
C2092 C2087 1.363 . S
C2092 C2091 1.415 . S
C2093 H2069 0.951 . S
C2093 C2094 1.366 . S
C2093 C2095 1.388 . S
C2094 C2093 1.366 . S
C2094 C2098 1.385 . S
C2095 H2070 0.951 . S
C2095 C2093 1.388 . S
C2095 C2096 1.366 . S
C2096 C2095 1.366 . S
C2096 C2097 1.414 . S
C2096 C2099 1.499 . S
C2097 H2071 0.950 . S
C2097 C2096 1.414 . S
C2097 C2098 1.374 . S
C2098 H2072 0.950 . S
C2098 C2094 1.385 . S
C2098 C2097 1.374 . S
C2099 C2096 1.499 . S
C2099 C2100 1.373 . S
C2099 C2101 1.389 . S
C2100 H2073 0.950 . S
C2100 C2086 1.377 . S
C2100 C2099 1.373 . S
C2101 C2085 1.377 . S
C2101 C2099 1.389 . S
C2101 C2102 1.524 . S
C2102 C2101 1.524 . S
C2102 C2103 1.397 . S
C2102 C2107 1.363 . S
C2103 H2074 0.950 . S
C2103 C2102 1.397 . S
C2103 C2104 1.334 . S
C2104 H2075 0.950 . S
C2104 C2103 1.334 . S
C2104 C2105 1.287 . S
C2105 C2104 1.287 . S
C2105 C2106 1.524 . S
C2105 H2108 0.999 . S
C2106 H2076 0.950 . S
C2106 C2105 1.524 . S
C2106 C2107 1.415 . S
C2107 H2077 0.950 . S
C2107 C2102 1.363 . S
C2107 C2106 1.415 . S
H2108 C2105 0.999 . S
H2109 C2090 0.913 . S
H2110 C2128 0.951 . S
H2111 C2130 0.951 . S
H2112 C2132 0.950 . S
H2113 C2133 0.950 . S
H2114 C2135 0.950 . S
H2115 C2138 0.950 . S
H2116 C2139 0.950 . S
H2117 C2141 0.950 . S
H2118 C2142 0.950 . S
H2119 C2143 0.951 . S
H2120 C2145 0.951 . S
H2121 C2147 0.950 . S
H2122 C2148 0.950 . S
H2123 C2150 0.950 . S
H2124 C2153 0.950 . S
H2125 C2154 0.950 . S
H2126 C2156 0.950 . S
H2127 C2157 0.950 . S
C2128 H2110 0.951 . S
C2128 C2129 1.366 . S
C2128 C2130 1.388 . S
C2129 C2128 1.366 . S
C2129 C2133 1.385 . S
C2130 H2111 0.951 . S
C2130 C2128 1.388 . S
C2130 C2131 1.366 . S
C2131 C2130 1.366 . S
C2131 C2132 1.414 . S
C2131 C2134 1.499 . S
C2132 H2112 0.950 . S
C2132 C2131 1.414 . S
C2132 C2133 1.374 . S
C2133 H2113 0.950 . S
C2133 C2129 1.385 . S
C2133 C2132 1.374 . S
C2134 C2131 1.499 . S
C2134 C2135 1.373 . S
C2134 C2136 1.389 . S
C2135 H2114 0.950 . S
C2135 C2134 1.373 . S
C2135 C2151 1.377 . S
C2136 C2134 1.389 . S
C2136 C2137 1.524 . S
C2136 C2150 1.377 . S
C2137 C2136 1.524 . S
C2137 C2138 1.397 . S
C2137 C2142 1.363 . S
C2138 H2115 0.950 . S
C2138 C2137 1.397 . S
C2138 C2139 1.334 . S
C2139 H2116 0.950 . S
C2139 C2138 1.334 . S
C2139 C2140 1.287 . S
C2140 C2139 1.287 . S
C2140 C2141 1.524 . S
C2140 H2159 0.913 . S
C2141 H2117 0.950 . S
C2141 C2140 1.524 . S
C2141 C2142 1.415 . S
C2142 H2118 0.950 . S
C2142 C2137 1.363 . S
C2142 C2141 1.415 . S
C2143 H2119 0.951 . S
C2143 C2144 1.366 . S
C2143 C2145 1.388 . S
C2144 C2143 1.366 . S
C2144 C2148 1.385 . S
C2145 H2120 0.951 . S
C2145 C2143 1.388 . S
C2145 C2146 1.366 . S
C2146 C2145 1.366 . S
C2146 C2147 1.414 . S
C2146 C2149 1.499 . S
C2147 H2121 0.950 . S
C2147 C2146 1.414 . S
C2147 C2148 1.374 . S
C2148 H2122 0.950 . S
C2148 C2144 1.385 . S
C2148 C2147 1.374 . S
C2149 C2146 1.499 . S
C2149 C2150 1.373 . S
C2149 C2151 1.389 . S
C2150 H2123 0.950 . S
C2150 C2136 1.377 . S
C2150 C2149 1.373 . S
C2151 C2135 1.377 . S
C2151 C2149 1.389 . S
C2151 C2152 1.524 . S
C2152 C2151 1.524 . S
C2152 C2153 1.397 . S
C2152 C2157 1.363 . S
C2153 H2124 0.950 . S
C2153 C2152 1.397 . S
C2153 C2154 1.334 . S
C2154 H2125 0.950 . S
C2154 C2153 1.334 . S
C2154 C2155 1.287 . S
C2155 C2154 1.287 . S
C2155 C2156 1.524 . S
C2155 H2158 0.999 . S
C2156 H2126 0.950 . S
C2156 C2155 1.524 . S
C2156 C2157 1.415 . S
C2157 H2127 0.950 . S
C2157 C2152 1.363 . S
C2157 C2156 1.415 . S
H2158 C2155 0.999 . S
H2159 C2140 0.913 . S
C379 C76 0.618 . S
C394 N6 0.629 . S
C429 N96 0.720 . S
C444 C46 0.718 . S
C479 N66 0.629 . S
C494 C136 0.617 . S
C529 C106 0.718 . S
C544 N156 0.720 . S
C579 C16 0.618 . S
C594 N126 0.630 . S
C629 N36 0.719 . S
C644 C166 0.718 . S
C679 C327 0.616 . S
C694 N194 0.627 . S
C729 N216 0.629 . S
C744 C346 0.617 . S
C779 N254 0.630 . S
C794 C207 0.618 . S
C829 N276 0.628 . S
C844 C226 0.617 . S
C879 N314 0.629 . S
C894 C267 0.618 . S
C929 C286 0.617 . S
C944 N336 0.628 . S
C979 C91 1.718 . S
C994 C1 1.703 . S
C1029 C31 1.718 . S
C1044 C121 1.703 . S
C1079 C61 1.703 . S
C1094 C151 1.718 . S
C1129 C190 1.704 . S
C1144 C271 1.703 . S
C1179 C211 1.703 . S
C1194 C310 1.704 . S
C1229 C250 1.703 . S
C1244 C331 1.704 . S
C1279 C220 1.968 . S
C1294 C10 1.968 . S
C1329 C40 1.912 . S
C1344 C241 1.970 . S
C1379 C280 1.969 . S
C1394 C70 1.969 . S
C1429 C100 1.912 . S
C1444 C301 1.970 . S
C1479 C130 1.969 . S
C1494 C340 1.969 . S
C1529 C181 1.970 . S
C1544 C160 1.912 . S
C1579 C87 1.117 . S
C1594 N14 1.094 . S
C1629 C57 1.015 . S
C1644 N104 1.020 . S
C1679 N74 1.094 . S
C1694 C147 1.117 . S
C1729 C117 1.015 . S
C1744 N164 1.020 . S
C1779 C27 1.117 . S
C1794 N134 1.094 . S
C1829 N44 1.020 . S
C1844 C177 1.016 . S
C1879 C316 1.118 . S
C1894 N186 1.095 . S
C1929 N224 1.094 . S
C1944 C357 1.116 . S
C1979 N246 1.095 . S
C1994 C196 1.118 . S
C2029 C237 1.116 . S
C2044 N284 1.093 . S
C2079 N306 1.095 . S
C2094 C256 1.118 . S
C2129 N344 1.093 . S
C2144 C297 1.116 . S
