# Generated by pormake.
# Topology umd, (4)-cn, num edge types: 1
# Building blocks:
#     Node 0, Type 0, BuildingBlock: KOZSID_clean_sbu_0, # of connection points: 4
#     Node 1, Type 0, BuildingBlock: KOZSID_clean_sbu_0, # of connection points: 4
#     Node 2, Type 0, BuildingBlock: KOZSID_clean_sbu_0, # of connection points: 4
#     Node 3, Type 0, BuildingBlock: KOZSID_clean_sbu_0, # of connection points: 4
#     Node 4, Type 0, BuildingBlock: KOZSID_clean_sbu_0, # of connection points: 4
#     Node 5, Type 0, BuildingBlock: KOZSID_clean_sbu_0, # of connection points: 4
#     Node 6, Type 0, BuildingBlock: KOZSID_clean_sbu_0, # of connection points: 4
#     Node 7, Type 0, BuildingBlock: KOZSID_clean_sbu_0, # of connection points: 4
#     Node 8, Type 0, BuildingBlock: KOZSID_clean_sbu_0, # of connection points: 4
#     Node 9, Type 0, BuildingBlock: KOZSID_clean_sbu_0, # of connection points: 4
#     Node 10, Type 0, BuildingBlock: KOZSID_clean_sbu_0, # of connection points: 4
#     Node 11, Type 0, BuildingBlock: KOZSID_clean_sbu_0, # of connection points: 4
#     Node 12, Type 0, BuildingBlock: KOZSID_clean_sbu_0, # of connection points: 4
#     Node 13, Type 0, BuildingBlock: KOZSID_clean_sbu_0, # of connection points: 4
#     Node 14, Type 0, BuildingBlock: KOZSID_clean_sbu_0, # of connection points: 4
#     Node 15, Type 0, BuildingBlock: KOZSID_clean_sbu_0, # of connection points: 4
#     Edge 16, Type (0, 0), BuildingBlock: XIVTED_clean_linker_0, # of connection points: 2
#     Edge 17, Type (0, 0), BuildingBlock: XIVTED_clean_linker_0, # of connection points: 2
#     Edge 18, Type (0, 0), BuildingBlock: XIVTED_clean_linker_0, # of connection points: 2
#     Edge 19, Type (0, 0), BuildingBlock: XIVTED_clean_linker_0, # of connection points: 2
#     Edge 20, Type (0, 0), BuildingBlock: XIVTED_clean_linker_0, # of connection points: 2
#     Edge 21, Type (0, 0), BuildingBlock: XIVTED_clean_linker_0, # of connection points: 2
#     Edge 22, Type (0, 0), BuildingBlock: XIVTED_clean_linker_0, # of connection points: 2
#     Edge 23, Type (0, 0), BuildingBlock: XIVTED_clean_linker_0, # of connection points: 2
#     Edge 24, Type (0, 0), BuildingBlock: XIVTED_clean_linker_0, # of connection points: 2
#     Edge 25, Type (0, 0), BuildingBlock: XIVTED_clean_linker_0, # of connection points: 2
#     Edge 26, Type (0, 0), BuildingBlock: XIVTED_clean_linker_0, # of connection points: 2
#     Edge 27, Type (0, 0), BuildingBlock: XIVTED_clean_linker_0, # of connection points: 2
#     Edge 28, Type (0, 0), BuildingBlock: XIVTED_clean_linker_0, # of connection points: 2
#     Edge 29, Type (0, 0), BuildingBlock: XIVTED_clean_linker_0, # of connection points: 2
#     Edge 30, Type (0, 0), BuildingBlock: XIVTED_clean_linker_0, # of connection points: 2
#     Edge 31, Type (0, 0), BuildingBlock: XIVTED_clean_linker_0, # of connection points: 2
#     Edge 32, Type (0, 0), BuildingBlock: XIVTED_clean_linker_0, # of connection points: 2
#     Edge 33, Type (0, 0), BuildingBlock: XIVTED_clean_linker_0, # of connection points: 2
#     Edge 34, Type (0, 0), BuildingBlock: XIVTED_clean_linker_0, # of connection points: 2
#     Edge 35, Type (0, 0), BuildingBlock: XIVTED_clean_linker_0, # of connection points: 2
#     Edge 36, Type (0, 0), BuildingBlock: XIVTED_clean_linker_0, # of connection points: 2
#     Edge 37, Type (0, 0), BuildingBlock: XIVTED_clean_linker_0, # of connection points: 2
#     Edge 38, Type (0, 0), BuildingBlock: XIVTED_clean_linker_0, # of connection points: 2
#     Edge 39, Type (0, 0), BuildingBlock: XIVTED_clean_linker_0, # of connection points: 2
#     Edge 40, Type (0, 0), BuildingBlock: XIVTED_clean_linker_0, # of connection points: 2
#     Edge 41, Type (0, 0), BuildingBlock: XIVTED_clean_linker_0, # of connection points: 2
#     Edge 42, Type (0, 0), BuildingBlock: XIVTED_clean_linker_0, # of connection points: 2
#     Edge 43, Type (0, 0), BuildingBlock: XIVTED_clean_linker_0, # of connection points: 2
#     Edge 44, Type (0, 0), BuildingBlock: XIVTED_clean_linker_0, # of connection points: 2
#     Edge 45, Type (0, 0), BuildingBlock: XIVTED_clean_linker_0, # of connection points: 2
#     Edge 46, Type (0, 0), BuildingBlock: XIVTED_clean_linker_0, # of connection points: 2
#     Edge 47, Type (0, 0), BuildingBlock: XIVTED_clean_linker_0, # of connection points: 2
# Relax obj value: 0.058
# Max RMSD: 0.214
# Mean RMSD: 0.214
data_MOF--net-umd--node1-KOZSID_clean_sbu_0--edge1-XIVTED_clean_linker_0
_symmetry_space_group_name_H-M    P1
_symmetry_Int_Tables_number       1
_symmetry_cell_setting            triclinic
loop_
_symmetry_equiv_pos_as_xyz
'x, y, z'
_cell_length_a     54.078946
_cell_length_b     54.141215
_cell_length_c     62.814557
_cell_angle_alpha  89.985715
_cell_angle_beta   89.960032
_cell_angle_gamma 89.986411
loop_
_atom_site_label
_atom_site_type_symbol
_atom_site_fract_x
_atom_site_fract_y
_atom_site_fract_z
_atom_type_partial_charge
C0 C 0.16427 0.43261 0.18742 0.0
C1 C 0.15479 0.41706 0.20298 0.0
C2 C 0.15173 0.39427 0.19366 0.0
C3 C 0.15917 0.39708 0.17288 0.0
N4 N 0.1666 0.42025 0.16861 0.0
Co5 Co 0.17627 0.43287 0.1401 0.0
N6 N 0.16053 0.40481 0.12494 0.0
C7 C 0.15431 0.38311 0.1339 0.0
C8 C 0.14403 0.36695 0.11954 0.0
C9 C 0.14407 0.37921 0.10037 0.0
C10 C 0.15446 0.40224 0.10405 0.0
N11 N 0.18593 0.4461 0.11183 0.0
C12 C 0.17745 0.44046 0.09212 0.0
C13 C 0.19023 0.45369 0.07665 0.0
C14 C 0.20735 0.46785 0.0871 0.0
C15 C 0.20416 0.46253 0.10827 0.0
N16 N 0.19243 0.46071 0.15509 0.0
C17 C 0.21054 0.47499 0.14707 0.0
C18 C 0.21915 0.49209 0.16139 0.0
C19 C 0.20558 0.48831 0.17954 0.0
C20 C 0.18924 0.46917 0.1752 0.0
N21 N 0.2075 0.41349 0.14135 0.0
C22 C 0.24877 0.38095 0.14348 0.0
C23 C 0.23571 0.38474 0.12443 0.0
C24 C 0.21542 0.40089 0.1237 0.0
C25 C 0.24085 0.39452 0.16139 0.0
C26 C 0.22041 0.41069 0.15997 0.0
N27 N 0.14475 0.45123 0.13877 0.0
C28 C 0.12069 0.48817 0.1322 0.0
C29 C 0.09849 0.47533 0.13604 0.0
C30 C 0.10019 0.45037 0.14161 0.0
C31 C 0.12323 0.43886 0.14306 0.0
C32 C 0.1436 0.47573 0.13345 0.0
H33 H 0.12349 0.41973 0.14762 0.0
H34 H 0.16036 0.48583 0.13001 0.0
H35 H 0.20571 0.40254 0.10881 0.0
H36 H 0.21474 0.42056 0.17409 0.0
C37 C 0.15458 0.38039 0.15617 0.0
C38 C 0.17203 0.4586 0.1909 0.0
C39 C 0.15972 0.42063 0.08728 0.0
C40 C 0.21565 0.4747 0.12524 0.0
H41 H 0.15008 0.42159 0.21923 0.0
H42 H 0.14362 0.37802 0.20088 0.0
H43 H 0.13655 0.34879 0.12274 0.0
H44 H 0.1373 0.37198 0.08541 0.0
H45 H 0.18793 0.45273 0.05956 0.0
H46 H 0.22027 0.48077 0.08009 0.0
H47 H 0.23293 0.50625 0.15871 0.0
H48 H 0.20759 0.49844 0.19429 0.0
H49 H 0.24057 0.37467 0.11013 0.0
H50 H 0.25037 0.39272 0.17646 0.0
H51 H 0.12033 0.50753 0.12785 0.0
H52 H 0.08372 0.43974 0.14515 0.0
C53 C 0.58989 0.16295 0.68717 0.0
C54 C 0.60553 0.15364 0.70275 0.0
C55 C 0.62838 0.15072 0.69344 0.0
C56 C 0.62553 0.15806 0.67264 0.0
N57 N 0.60227 0.16529 0.66836 0.0
Co58 Co 0.5896 0.17479 0.63982 0.0
N59 N 0.61785 0.15924 0.6247 0.0
C60 C 0.63962 0.15324 0.63367 0.0
C61 C 0.65592 0.14308 0.61934 0.0
C62 C 0.64368 0.14298 0.60015 0.0
C63 C 0.62052 0.15317 0.60381 0.0
N64 N 0.57634 0.18428 0.61153 0.0
C65 C 0.58211 0.17582 0.59182 0.0
C66 C 0.5688 0.18846 0.57634 0.0
C67 C 0.55446 0.20547 0.58675 0.0
C68 C 0.55975 0.20235 0.60793 0.0
N69 N 0.56157 0.19076 0.65477 0.0
C70 C 0.54715 0.20872 0.64672 0.0
C71 C 0.52997 0.21726 0.66102 0.0
C72 C 0.53384 0.20382 0.67921 0.0
C73 C 0.55312 0.1876 0.6749 0.0
N74 N 0.60875 0.20609 0.64109 0.0
C75 C 0.64145 0.24712 0.64354 0.0
C76 C 0.63769 0.23427 0.62438 0.0
C77 C 0.62145 0.21407 0.6235 0.0
C78 C 0.6277 0.23922 0.66134 0.0
C79 C 0.61144 0.2189 0.65976 0.0
N80 N 0.57147 0.14318 0.63858 0.0
C81 C 0.5346 0.11877 0.63264 0.0
C82 C 0.54742 0.09672 0.63733 0.0
C83 C 0.57258 0.0988 0.6424 0.0
C84 C 0.58402 0.12188 0.64312 0.0
C85 C 0.54696 0.14175 0.6333 0.0
H86 H 0.60325 0.12232 0.64736 0.0
H87 H 0.53673 0.15836 0.62963 0.0
H88 H 0.61984 0.20444 0.60857 0.0
H89 H 0.60145 0.21322 0.67383 0.0
C90 C 0.6423 0.15359 0.65595 0.0
C91 C 0.56383 0.17056 0.69064 0.0
C92 C 0.60211 0.15826 0.58701 0.0
C93 C 0.54743 0.21377 0.62488 0.0
H94 H 0.60101 0.14898 0.71902 0.0
H95 H 0.6447 0.14278 0.70069 0.0
H96 H 0.67417 0.13578 0.62256 0.0
H97 H 0.65101 0.13626 0.58521 0.0
H98 H 0.56983 0.18616 0.55925 0.0
H99 H 0.54143 0.21827 0.57972 0.0
H100 H 0.5157 0.23093 0.65831 0.0
H101 H 0.52369 0.20583 0.69396 0.0
H102 H 0.64788 0.23917 0.61016 0.0
H103 H 0.62945 0.24863 0.67647 0.0
H104 H 0.51512 0.11841 0.62874 0.0
H105 H 0.58375 0.08264 0.64558 0.0
C106 C 0.85482 0.58741 0.18584 0.0
C107 C 0.86142 0.60338 0.20212 0.0
C108 C 0.86451 0.6263 0.19302 0.0
C109 C 0.85958 0.62314 0.17171 0.0
N110 N 0.85368 0.59967 0.16693 0.0
Co111 Co 0.84554 0.58717 0.13805 0.0
N112 N 0.86081 0.61609 0.12367 0.0
C113 C 0.86591 0.63783 0.13309 0.0
C114 C 0.876 0.65468 0.11922 0.0
C115 C 0.87701 0.64287 0.09986 0.0
C116 C 0.86738 0.61939 0.10295 0.0
N117 N 0.83738 0.57416 0.10934 0.0
C118 C 0.84611 0.58068 0.08988 0.0
C119 C 0.83441 0.56724 0.07394 0.0
C120 C 0.8178 0.55197 0.08377 0.0
C121 C 0.82017 0.55689 0.10508 0.0
N122 N 0.82995 0.55835 0.15231 0.0
C123 C 0.81356 0.54278 0.1434 0.0
C124 C 0.8064 0.52411 0.15681 0.0
C125 C 0.81898 0.52822 0.17538 0.0
C126 C 0.83303 0.54943 0.17233 0.0
N127 N 0.81362 0.60545 0.13878 0.0
C128 C 0.77218 0.63779 0.14068 0.0
C129 C 0.78565 0.63436 0.12177 0.0
C130 C 0.80601 0.61829 0.12115 0.0
C131 C 0.77963 0.62382 0.15849 0.0
C132 C 0.80014 0.60771 0.15717 0.0
N133 N 0.87775 0.56999 0.13734 0.0
C134 C 0.90342 0.53409 0.13096 0.0
C135 C 0.92499 0.54729 0.13644 0.0
C136 C 0.92202 0.57214 0.14222 0.0
C137 C 0.89856 0.58292 0.14274 0.0
C138 C 0.88006 0.54576 0.13145 0.0
H139 H 0.89739 0.60197 0.14746 0.0
H140 H 0.86388 0.53522 0.1271 0.0
H141 H 0.81612 0.61703 0.10642 0.0
H142 H 0.80548 0.59756 0.17123 0.0
C143 C 0.86436 0.64024 0.15536 0.0
C144 C 0.84794 0.56127 0.18904 0.0
C145 C 0.86311 0.60132 0.08571 0.0
C146 C 0.80916 0.54344 0.12151 0.0
H147 H 0.86367 0.59892 0.21881 0.0
H148 H 0.87057 0.64301 0.20088 0.0
H149 H 0.88254 0.67309 0.12284 0.0
H150 H 0.88386 0.65071 0.08515 0.0
H151 H 0.83711 0.5687 0.05691 0.0
H152 H 0.80582 0.53851 0.07629 0.0
H153 H 0.79447 0.50863 0.15319 0.0
H154 H 0.81798 0.51674 0.18944 0.0
H155 H 0.78112 0.6447 0.10755 0.0
H156 H 0.76974 0.6253 0.17342 0.0
H157 H 0.90441 0.5148 0.12653 0.0
H158 H 0.93778 0.5836 0.14608 0.0
C159 C 0.43461 0.85473 0.68576 0.0
C160 C 0.41896 0.86156 0.70223 0.0
C161 C 0.3959 0.86483 0.69341 0.0
C162 C 0.39866 0.85978 0.67209 0.0
N163 N 0.42202 0.85363 0.66701 0.0
Co164 Co 0.43396 0.84525 0.638 0.0
N165 N 0.40491 0.86075 0.62399 0.0
C166 C 0.38334 0.86605 0.63365 0.0
C167 C 0.36639 0.87635 0.61999 0.0
C168 C 0.37798 0.87732 0.60051 0.0
C169 C 0.40143 0.86747 0.60333 0.0
N170 N 0.44638 0.83689 0.60913 0.0
C171 C 0.4397 0.8458 0.5898 0.0
C172 C 0.45276 0.83402 0.57365 0.0
C173 C 0.46798 0.81717 0.58326 0.0
C174 C 0.46339 0.8195 0.60464 0.0
N175 N 0.4629 0.82943 0.65191 0.0
C176 C 0.47822 0.81294 0.64277 0.0
C177 C 0.49718 0.80579 0.65588 0.0
C178 C 0.49353 0.81846 0.67447 0.0
C179 C 0.47224 0.8325 0.67179 0.0
N180 N 0.41542 0.81355 0.63905 0.0
C181 C 0.38326 0.77206 0.64138 0.0
C182 C 0.38622 0.78558 0.62246 0.0
C183 C 0.4022 0.80598 0.62162 0.0
C184 C 0.39757 0.77952 0.65899 0.0
C185 C 0.41357 0.80007 0.65746 0.0
N186 N 0.45146 0.87721 0.63694 0.0
C187 C 0.48764 0.90222 0.62989 0.0
C188 C 0.47454 0.92395 0.63482 0.0
C189 C 0.44982 0.92156 0.64107 0.0
C190 C 0.4388 0.89825 0.64219 0.0
C191 C 0.4757 0.87907 0.63085 0.0
H192 H 0.41985 0.89737 0.64733 0.0
H193 H 0.48601 0.86272 0.62661 0.0
H194 H 0.40315 0.81612 0.6069 0.0
H195 H 0.42401 0.8054 0.67136 0.0
C196 C 0.38129 0.86463 0.65596 0.0
C197 C 0.46074 0.8475 0.68868 0.0
C198 C 0.41934 0.86323 0.58596 0.0
C199 C 0.47709 0.80847 0.6209 0.0
H200 H 0.4237 0.8638 0.71885 0.0
H201 H 0.37935 0.87107 0.70148 0.0
H202 H 0.34809 0.88311 0.62383 0.0
H203 H 0.37003 0.88433 0.58591 0.0
H204 H 0.45113 0.8369 0.55666 0.0
H205 H 0.48124 0.80512 0.57559 0.0
H206 H 0.51259 0.79383 0.65201 0.0
H207 H 0.50543 0.81752 0.68827 0.0
H208 H 0.37558 0.78103 0.6084 0.0
H209 H 0.39644 0.7696 0.67392 0.0
H210 H 0.50681 0.90312 0.62497 0.0
H211 H 0.43903 0.93764 0.64542 0.0
C212 C 0.16401 0.59009 0.32718 0.0
C213 C 0.15463 0.60573 0.31164 0.0
C214 C 0.15154 0.62848 0.32103 0.0
C215 C 0.15886 0.62557 0.34183 0.0
N216 N 0.16625 0.60237 0.34604 0.0
Co217 Co 0.17575 0.5896 0.37454 0.0
N218 N 0.15995 0.61762 0.38975 0.0
C219 C 0.15379 0.63937 0.38084 0.0
C220 C 0.1435 0.6555 0.39522 0.0
C221 C 0.14346 0.64319 0.41437 0.0
C222 C 0.15382 0.62014 0.41064 0.0
N223 N 0.18523 0.57622 0.40279 0.0
C224 C 0.17668 0.58181 0.42251 0.0
C225 C 0.18935 0.56846 0.43796 0.0
C226 C 0.20648 0.55429 0.4275 0.0
C227 C 0.2034 0.55972 0.40634 0.0
N228 N 0.19197 0.56182 0.3595 0.0
C229 C 0.21002 0.54747 0.36751 0.0
C230 C 0.2187 0.53044 0.35316 0.0
C231 C 0.20524 0.53432 0.33498 0.0
C232 C 0.18889 0.55346 0.33934 0.0
N233 N 0.20701 0.60896 0.37346 0.0
C234 C 0.24832 0.64148 0.37168 0.0
C235 C 0.23511 0.63757 0.39065 0.0
C236 C 0.21481 0.62143 0.39121 0.0
C237 C 0.24051 0.62809 0.35366 0.0
C238 C 0.22003 0.61192 0.3549 0.0
N239 N 0.14419 0.57128 0.37571 0.0
C240 C 0.12 0.53439 0.38219 0.0
C241 C 0.09785 0.54735 0.37842 0.0
C242 C 0.09963 0.57231 0.37289 0.0
C243 C 0.12272 0.58374 0.37144 0.0
C244 C 0.14296 0.54676 0.38096 0.0
H245 H 0.12303 0.60288 0.36692 0.0
H246 H 0.15969 0.5366 0.38436 0.0
H247 H 0.205 0.61968 0.40605 0.0
H248 H 0.21445 0.60216 0.3407 0.0
C249 C 0.1542 0.64218 0.35857 0.0
C250 C 0.17175 0.56411 0.32364 0.0
C251 C 0.15903 0.60171 0.42739 0.0
C252 C 0.21498 0.54762 0.38936 0.0
H253 H 0.15002 0.60128 0.29536 0.0
H254 H 0.14349 0.64477 0.31384 0.0
H255 H 0.13607 0.6737 0.39206 0.0
H256 H 0.13668 0.65038 0.42934 0.0
H257 H 0.18699 0.56936 0.45505 0.0
H258 H 0.21935 0.54131 0.43449 0.0
H259 H 0.23244 0.51624 0.35583 0.0
H260 H 0.20732 0.52426 0.3202 0.0
H261 H 0.23985 0.64751 0.40502 0.0
H262 H 0.25014 0.62999 0.33863 0.0
H263 H 0.11957 0.51503 0.38649 0.0
H264 H 0.0832 0.58302 0.36941 0.0
C265 C 0.43222 0.16427 0.82696 0.0
C266 C 0.41638 0.15522 0.81144 0.0
C267 C 0.39354 0.15259 0.82086 0.0
C268 C 0.39662 0.15984 0.84165 0.0
N269 N 0.41999 0.16674 0.84584 0.0
Co270 Co 0.433 0.17594 0.87433 0.0
N271 N 0.40468 0.16065 0.88956 0.0
C272 C 0.38277 0.15497 0.88069 0.0
C273 C 0.36647 0.14495 0.89509 0.0
C274 C 0.37884 0.1446 0.9142 0.0
C275 C 0.4021 0.15452 0.91045 0.0
N276 N 0.4466 0.18511 0.90256 0.0
C277 C 0.44087 0.17665 0.92228 0.0
C278 C 0.45445 0.18906 0.93772 0.0
C279 C 0.46892 0.20593 0.92727 0.0
C280 C 0.46343 0.20297 0.90611 0.0
N281 N 0.46109 0.19163 0.85927 0.0
C282 C 0.47577 0.20938 0.86728 0.0
C283 C 0.49297 0.21774 0.8529 0.0
C284 C 0.48881 0.20439 0.83472 0.0
C285 C 0.46937 0.1884 0.8391 0.0
N286 N 0.41419 0.20748 0.87328 0.0
C287 C 0.3819 0.24889 0.8712 0.0
C288 C 0.38568 0.23587 0.89027 0.0
C289 C 0.40172 0.21549 0.89098 0.0
C290 C 0.39543 0.24094 0.85328 0.0
C291 C 0.41148 0.22043 0.85468 0.0
N292 N 0.45076 0.14409 0.87534 0.0
C293 C 0.48737 0.11914 0.8809 0.0
C294 C 0.47425 0.09733 0.87607 0.0
C295 C 0.44908 0.09978 0.87119 0.0
C296 C 0.43791 0.12299 0.87074 0.0
C297 C 0.47528 0.14229 0.88048 0.0
H298 H 0.41864 0.12372 0.86663 0.0
H299 H 0.48574 0.15873 0.88421 0.0
H300 H 0.40335 0.20576 0.90587 0.0
H301 H 0.42129 0.21471 0.84053 0.0
C302 C 0.37992 0.15548 0.85843 0.0
C303 C 0.45838 0.17149 0.82341 0.0
C304 C 0.42069 0.15933 0.92716 0.0
C305 C 0.47573 0.21433 0.88913 0.0
H306 H 0.42073 0.15053 0.79516 0.0
H307 H 0.37708 0.14487 0.81368 0.0
H308 H 0.3481 0.13789 0.89195 0.0
H309 H 0.37155 0.13791 0.92917 0.0
H310 H 0.45353 0.1867 0.95481 0.0
H311 H 0.48214 0.21854 0.93426 0.0
H312 H 0.50743 0.23121 0.85556 0.0
H313 H 0.4989 0.20629 0.81992 0.0
H314 H 0.37566 0.24078 0.90458 0.0
H315 H 0.39366 0.25046 0.8382 0.0
H316 H 0.50687 0.11847 0.88469 0.0
H317 H 0.4377 0.08378 0.86792 0.0
C318 C 0.85473 0.43407 0.32762 0.0
C319 C 0.86126 0.41824 0.3112 0.0
C320 C 0.8643 0.39523 0.32014 0.0
C321 C 0.85941 0.3982 0.34148 0.0
N322 N 0.85357 0.42164 0.34645 0.0
Co323 Co 0.84557 0.4339 0.37545 0.0
N324 N 0.86081 0.40479 0.38957 0.0
C325 C 0.86586 0.38314 0.37996 0.0
C326 C 0.87597 0.36612 0.39365 0.0
C327 C 0.87704 0.37771 0.4131 0.0
C328 C 0.8674 0.40124 0.41025 0.0
N329 N 0.83756 0.44667 0.4043 0.0
C330 C 0.84626 0.43988 0.42369 0.0
C331 C 0.83463 0.45323 0.43975 0.0
C332 C 0.81811 0.46871 0.43006 0.0
C333 C 0.82045 0.46399 0.40872 0.0
N334 N 0.83003 0.4629 0.36142 0.0
C335 C 0.81381 0.47853 0.37053 0.0
C336 C 0.80681 0.49745 0.35734 0.0
C337 C 0.81932 0.49347 0.33871 0.0
C338 C 0.83311 0.47204 0.34147 0.0
N339 N 0.81359 0.41572 0.37472 0.0
C340 C 0.77215 0.38337 0.37267 0.0
C341 C 0.78567 0.3866 0.39156 0.0
C342 C 0.80602 0.40268 0.39226 0.0
C343 C 0.77954 0.3976 0.35497 0.0
C344 C 0.80005 0.41369 0.35636 0.0
N345 N 0.87785 0.45097 0.37615 0.0
C346 C 0.90369 0.48672 0.38262 0.0
C347 C 0.92517 0.4735 0.37685 0.0
C348 C 0.92208 0.44871 0.37094 0.0
C349 C 0.89858 0.43802 0.37053 0.0
C350 C 0.88029 0.47513 0.38221 0.0
H351 H 0.89733 0.41902 0.36569 0.0
H352 H 0.86418 0.48568 0.38674 0.0
H353 H 0.81617 0.40377 0.40697 0.0
H354 H 0.80534 0.424 0.34237 0.0
C355 C 0.86423 0.38094 0.35769 0.0
C356 C 0.84787 0.46025 0.32459 0.0
C357 C 0.86308 0.41904 0.42771 0.0
C358 C 0.8095 0.47767 0.39243 0.0
H359 H 0.86348 0.42284 0.29454 0.0
H360 H 0.87031 0.37857 0.31214 0.0
H361 H 0.88249 0.34774 0.38986 0.0
H362 H 0.88392 0.36968 0.42771 0.0
H363 H 0.83727 0.45158 0.45676 0.0
H364 H 0.8062 0.48215 0.43766 0.0
H365 H 0.79509 0.51304 0.36117 0.0
H366 H 0.81846 0.50525 0.32483 0.0
H367 H 0.7812 0.37607 0.4057 0.0
H368 H 0.76961 0.39631 0.34005 0.0
H369 H 0.9048 0.50596 0.38718 0.0
H370 H 0.93777 0.43724 0.36687 0.0
C371 C 0.58768 0.85509 0.82755 0.0
C372 C 0.60357 0.86181 0.81122 0.0
C373 C 0.62651 0.86508 0.82027 0.0
C374 C 0.62344 0.86013 0.84158 0.0
N375 N 0.6 0.85405 0.84644 0.0
Co376 Co 0.58764 0.84577 0.87535 0.0
N377 N 0.61653 0.86122 0.88963 0.0
C378 C 0.63824 0.86644 0.88016 0.0
C379 C 0.65509 0.87658 0.89399 0.0
C380 C 0.6433 0.87753 0.91337 0.0
C381 C 0.61982 0.86781 0.91033 0.0
N382 N 0.57475 0.83752 0.9041 0.0
C383 C 0.58122 0.84639 0.92351 0.0
C384 C 0.56784 0.83471 0.93952 0.0
C385 C 0.55266 0.81796 0.92977 0.0
C386 C 0.55759 0.82023 0.90844 0.0
N387 N 0.55888 0.82998 0.86117 0.0
C388 C 0.54343 0.8135 0.87015 0.0
C389 C 0.52476 0.8062 0.8568 0.0
C390 C 0.52874 0.81878 0.8382 0.0
C391 C 0.54988 0.83296 0.84117 0.0
N392 N 0.6062 0.81407 0.87458 0.0
C393 C 0.64006 0.77396 0.87247 0.0
C394 C 0.63585 0.7869 0.89151 0.0
C395 C 0.61908 0.80663 0.89222 0.0
C396 C 0.62557 0.78075 0.85476 0.0
C397 C 0.60877 0.8007 0.85616 0.0
N398 N 0.5702 0.87779 0.87618 0.0
C399 C 0.5342 0.90308 0.8832 0.0
C400 C 0.54755 0.92473 0.87851 0.0
C401 C 0.57225 0.92214 0.87228 0.0
C402 C 0.58305 0.89875 0.87104 0.0
C403 C 0.54593 0.87982 0.88214 0.0
H404 H 0.60202 0.89775 0.86598 0.0
H405 H 0.53547 0.86352 0.88626 0.0
H406 H 0.61735 0.81647 0.90704 0.0
H407 H 0.59855 0.80589 0.84209 0.0
C408 C 0.6406 0.86496 0.85788 0.0
C409 C 0.56158 0.84794 0.8244 0.0
C410 C 0.60175 0.86355 0.92758 0.0
C411 C 0.54416 0.80914 0.89205 0.0
H412 H 0.59906 0.86399 0.79454 0.0
H413 H 0.64319 0.87123 0.81235 0.0
H414 H 0.67349 0.88322 0.89032 0.0
H415 H 0.65113 0.8844 0.92806 0.0
H416 H 0.56925 0.83755 0.95653 0.0
H417 H 0.53925 0.80596 0.93731 0.0
H418 H 0.50935 0.79418 0.86048 0.0
H419 H 0.5172 0.81769 0.82418 0.0
H420 H 0.64578 0.78213 0.90589 0.0
H421 H 0.62784 0.77142 0.83965 0.0
H422 H 0.51502 0.90414 0.88808 0.0
H423 H 0.58322 0.93817 0.8681 0.0
C424 C 0.83358 0.55258 0.83892 0.0
C425 C 0.81755 0.53317 0.8346 0.0
C426 C 0.80426 0.529 0.85284 0.0
C427 C 0.81271 0.54615 0.86718 0.0
N428 N 0.83045 0.56083 0.8591 0.0
Co429 Co 0.84625 0.58885 0.8741 0.0
N430 N 0.83716 0.57524 0.90238 0.0
C431 C 0.8193 0.55842 0.90599 0.0
C432 C 0.81642 0.55291 0.92716 0.0
C433 C 0.83334 0.56736 0.93755 0.0
C434 C 0.8457 0.58095 0.92207 0.0
N435 N 0.86164 0.61711 0.88927 0.0
C436 C 0.86779 0.6197 0.91015 0.0
C437 C 0.87772 0.64294 0.91386 0.0
C438 C 0.87735 0.65529 0.89473 0.0
C439 C 0.8673 0.63899 0.88037 0.0
N440 N 0.85536 0.60185 0.84557 0.0
C441 C 0.86225 0.62521 0.84136 0.0
C442 C 0.86941 0.6283 0.82053 0.0
C443 C 0.86672 0.60551 0.81113 0.0
C444 C 0.85773 0.58966 0.82669 0.0
N445 N 0.81471 0.6077 0.87318 0.0
C446 C 0.77416 0.64106 0.87113 0.0
C447 C 0.78152 0.62713 0.85326 0.0
C448 C 0.8017 0.61062 0.85462 0.0
C449 C 0.78692 0.63671 0.89023 0.0
C450 C 0.80687 0.62016 0.89093 0.0
N451 N 0.87812 0.57109 0.87502 0.0
C452 C 0.92248 0.57279 0.87087 0.0
C453 C 0.92497 0.54769 0.87594 0.0
C454 C 0.90313 0.53459 0.88082 0.0
C455 C 0.87994 0.54662 0.8803 0.0
C456 C 0.89923 0.5839 0.87033 0.0
H457 H 0.86349 0.53618 0.88409 0.0
H458 H 0.89849 0.60312 0.86612 0.0
H459 H 0.80727 0.60081 0.84044 0.0
H460 H 0.81647 0.61817 0.90584 0.0
C461 C 0.80785 0.54616 0.88905 0.0
C462 C 0.85046 0.56355 0.82317 0.0
C463 C 0.863 0.60116 0.9269 0.0
C464 C 0.8667 0.64186 0.85812 0.0
H465 H 0.81558 0.52311 0.81981 0.0
H466 H 0.79078 0.51456 0.85555 0.0
H467 H 0.80381 0.53969 0.93419 0.0
H468 H 0.83575 0.56827 0.95464 0.0
H469 H 0.88442 0.65024 0.92881 0.0
H470 H 0.88437 0.67365 0.89157 0.0
H471 H 0.87711 0.64475 0.81332 0.0
H472 H 0.87134 0.60117 0.79482 0.0
H473 H 0.77239 0.62959 0.83808 0.0
H474 H 0.78176 0.64625 0.90471 0.0
H475 H 0.93849 0.58415 0.86755 0.0
H476 H 0.90382 0.51514 0.88474 0.0
C477 C 0.47293 0.83334 0.34237 0.0
C478 C 0.49422 0.81923 0.33996 0.0
C479 C 0.4976 0.8067 0.35866 0.0
C480 C 0.47849 0.81402 0.37156 0.0
N481 N 0.46333 0.83047 0.3622 0.0
Co482 Co 0.43433 0.84659 0.37579 0.0
N483 N 0.44626 0.83821 0.40481 0.0
C484 C 0.46302 0.82064 0.4095 0.0
C485 C 0.46721 0.81819 0.43092 0.0
C486 C 0.45198 0.83514 0.44037 0.0
C487 C 0.43933 0.84712 0.42409 0.0
N488 N 0.40536 0.86263 0.38947 0.0
C489 C 0.40164 0.86942 0.41009 0.0
C490 C 0.37831 0.87966 0.41264 0.0
C491 C 0.36702 0.87884 0.39305 0.0
C492 C 0.38402 0.86825 0.37958 0.0
N493 N 0.42274 0.85468 0.3466 0.0
C494 C 0.39946 0.86089 0.34131 0.0
C495 C 0.39693 0.86565 0.31992 0.0
C496 C 0.42004 0.8621 0.31128 0.0
C497 C 0.43551 0.85544 0.32792 0.0
N498 N 0.41545 0.81506 0.37479 0.0
C499 C 0.38267 0.77405 0.37229 0.0
C500 C 0.39749 0.7811 0.35486 0.0
C501 C 0.4138 0.8014 0.35648 0.0
C502 C 0.38546 0.78769 0.39116 0.0
C503 C 0.40175 0.80786 0.39208 0.0
N504 N 0.45215 0.87843 0.37679 0.0
C505 C 0.45194 0.92232 0.36971 0.0
C506 C 0.47563 0.92502 0.37833 0.0
C507 C 0.48736 0.90375 0.38631 0.0
C508 C 0.47544 0.88059 0.38515 0.0
C509 C 0.44052 0.89917 0.36933 0.0
H510 H 0.48497 0.86447 0.39107 0.0
H511 H 0.42207 0.89821 0.36304 0.0
H512 H 0.42462 0.80641 0.34269 0.0
H513 H 0.40254 0.81813 0.40674 0.0
C514 C 0.47695 0.80955 0.39341 0.0
C515 C 0.46164 0.84813 0.32525 0.0
C516 C 0.41909 0.86476 0.42772 0.0
C517 C 0.38209 0.86638 0.3573 0.0
H518 H 0.50628 0.81812 0.32626 0.0
H519 H 0.51289 0.79469 0.36272 0.0
H520 H 0.48022 0.80599 0.43872 0.0
H521 H 0.45009 0.83795 0.45734 0.0
H522 H 0.37022 0.88675 0.42717 0.0
H523 H 0.34884 0.88577 0.38903 0.0
H524 H 0.38051 0.87194 0.3117 0.0
H525 H 0.42496 0.86411 0.29466 0.0
H526 H 0.39652 0.77106 0.33999 0.0
H527 H 0.37446 0.78344 0.40509 0.0
H528 H 0.442 0.93819 0.36361 0.0
H529 H 0.50574 0.90494 0.39306 0.0
C530 C 0.18937 0.47237 0.84181 0.0
C531 C 0.20354 0.49349 0.83873 0.0
C532 C 0.2163 0.49746 0.85723 0.0
C533 C 0.2091 0.4788 0.87064 0.0
N534 N 0.19252 0.46337 0.86179 0.0
Co535 Co 0.17687 0.43462 0.87609 0.0
N536 N 0.18537 0.44748 0.90478 0.0
C537 C 0.20276 0.46459 0.90897 0.0
C538 C 0.20533 0.46943 0.93027 0.0
C539 C 0.18866 0.45427 0.94017 0.0
C540 C 0.17672 0.44099 0.92426 0.0
N541 N 0.16154 0.40575 0.89051 0.0
C542 C 0.15506 0.40249 0.91125 0.0
C543 C 0.14525 0.37908 0.91435 0.0
C544 C 0.14606 0.36729 0.89498 0.0
C545 C 0.1562 0.38408 0.88109 0.0
N546 N 0.16836 0.42227 0.84725 0.0
C547 C 0.16225 0.39886 0.84245 0.0
C548 C 0.15713 0.39578 0.82117 0.0
C549 C 0.16034 0.41869 0.81208 0.0
C550 C 0.16719 0.43457 0.82835 0.0
N551 N 0.20864 0.41615 0.8751 0.0
C552 C 0.2499 0.38365 0.87291 0.0
C553 C 0.24236 0.39766 0.85515 0.0
C554 C 0.22194 0.41386 0.85662 0.0
C555 C 0.23662 0.38711 0.8919 0.0
C556 C 0.21633 0.40325 0.89267 0.0
N557 N 0.1448 0.452 0.87711 0.0
C558 C 0.10038 0.44996 0.87331 0.0
C559 C 0.09782 0.47468 0.87939 0.0
C560 C 0.11951 0.48802 0.884 0.0
C561 C 0.14279 0.47627 0.88297 0.0
C562 C 0.12379 0.43914 0.87209 0.0
H563 H 0.15912 0.48673 0.887 0.0
H564 H 0.12477 0.42017 0.86711 0.0
H565 H 0.21652 0.42406 0.8426 0.0
H566 H 0.20635 0.40453 0.90746 0.0
C567 C 0.21371 0.47802 0.8925 0.0
C568 C 0.1743 0.46065 0.82513 0.0
C569 C 0.15952 0.42052 0.92848 0.0
C570 C 0.15751 0.38173 0.8588 0.0
H571 H 0.20454 0.505 0.82468 0.0
H572 H 0.22838 0.51284 0.86081 0.0
H573 H 0.21747 0.48276 0.93771 0.0
H574 H 0.18607 0.45279 0.95721 0.0
H575 H 0.13839 0.37128 0.92908 0.0
H576 H 0.13931 0.34895 0.89136 0.0
H577 H 0.1509 0.37912 0.81331 0.0
H578 H 0.15802 0.42319 0.79541 0.0
H579 H 0.25211 0.39614 0.84015 0.0
H580 H 0.24125 0.37673 0.90608 0.0
H581 H 0.08433 0.43899 0.8692 0.0
H582 H 0.11847 0.50721 0.88877 0.0
C583 C 0.54919 0.19005 0.34277 0.0
C584 C 0.5279 0.20414 0.34024 0.0
C585 C 0.52433 0.21665 0.35892 0.0
C586 C 0.54333 0.20936 0.37193 0.0
N587 N 0.55861 0.19295 0.36264 0.0
Co588 Co 0.58748 0.17683 0.37639 0.0
N589 N 0.57517 0.18499 0.40535 0.0
C590 C 0.55834 0.20254 0.40996 0.0
C591 C 0.55391 0.20488 0.43135 0.0
C592 C 0.56905 0.18789 0.44086 0.0
C593 C 0.58189 0.176 0.42464 0.0
N594 N 0.61632 0.16077 0.39022 0.0
C595 C 0.61979 0.15385 0.41083 0.0
C596 C 0.64311 0.14363 0.41352 0.0
C597 C 0.65464 0.1446 0.39401 0.0
C598 C 0.63778 0.15525 0.38046 0.0
N599 N 0.59941 0.16894 0.34726 0.0
C600 C 0.62277 0.16284 0.34211 0.0
C601 C 0.62551 0.15811 0.32073 0.0
C602 C 0.60245 0.16155 0.31196 0.0
C603 C 0.58681 0.16812 0.32851 0.0
N604 N 0.60629 0.20842 0.37568 0.0
C605 C 0.63876 0.24975 0.3738 0.0
C606 C 0.62429 0.24272 0.35616 0.0
C607 C 0.60813 0.22226 0.35746 0.0
C608 C 0.63585 0.23583 0.39252 0.0
C609 C 0.61972 0.21552 0.39313 0.0
N610 N 0.56972 0.14493 0.37712 0.0
C611 C 0.57007 0.10112 0.36972 0.0
C612 C 0.5463 0.09831 0.37813 0.0
C613 C 0.53444 0.11946 0.3862 0.0
C614 C 0.54635 0.14265 0.3853 0.0
C615 C 0.58147 0.12427 0.36961 0.0
H616 H 0.53671 0.15869 0.39126 0.0
H617 H 0.6 0.12532 0.36347 0.0
H618 H 0.59755 0.21729 0.34354 0.0
H619 H 0.61881 0.2051 0.40771 0.0
C620 C 0.54461 0.21371 0.3938 0.0
C621 C 0.56065 0.17523 0.32574 0.0
C622 C 0.60213 0.15839 0.42837 0.0
C623 C 0.63997 0.15729 0.3582 0.0
H624 H 0.51595 0.20521 0.32648 0.0
H625 H 0.50896 0.2286 0.3629 0.0
H626 H 0.54081 0.21704 0.4391 0.0
H627 H 0.57076 0.18503 0.45784 0.0
H628 H 0.65105 0.13645 0.42807 0.0
H629 H 0.67288 0.13773 0.3901 0.0
H630 H 0.64202 0.15187 0.3126 0.0
H631 H 0.59768 0.15951 0.29532 0.0
H632 H 0.62539 0.25295 0.34137 0.0
H633 H 0.6466 0.24001 0.40659 0.0
H634 H 0.58007 0.08533 0.36352 0.0
H635 H 0.51598 0.11816 0.3928 0.0
C636 C 0.83425 0.46868 0.67463 0.0
C637 C 0.8179 0.48786 0.67885 0.0
C638 C 0.80445 0.49158 0.66065 0.0
C639 C 0.81313 0.4744 0.64642 0.0
N640 N 0.83117 0.46013 0.65453 0.0
Co641 Co 0.84735 0.43216 0.63967 0.0
N642 N 0.83781 0.44523 0.61131 0.0
C643 C 0.81964 0.46172 0.60769 0.0
C644 C 0.8163 0.46678 0.58651 0.0
C645 C 0.83323 0.45238 0.57608 0.0
C646 C 0.8461 0.43927 0.59157 0.0
N647 N 0.86312 0.40396 0.62467 0.0
C648 C 0.86916 0.40114 0.60378 0.0
C649 C 0.8798 0.37815 0.60035 0.0
C650 C 0.87989 0.36613 0.61961 0.0
C651 C 0.86945 0.38238 0.63381 0.0
N652 N 0.85691 0.41972 0.66829 0.0
C653 C 0.86433 0.39657 0.67269 0.0
C654 C 0.87168 0.39388 0.69349 0.0
C655 C 0.86857 0.41672 0.7027 0.0
C656 C 0.85914 0.43218 0.68706 0.0
N657 N 0.81612 0.41284 0.64097 0.0
C658 C 0.77489 0.38034 0.64312 0.0
C659 C 0.78276 0.39388 0.66103 0.0
C660 C 0.80319 0.41007 0.6596 0.0
C661 C 0.78797 0.38409 0.62406 0.0
C662 C 0.80825 0.40021 0.62333 0.0
N663 N 0.87889 0.45046 0.63831 0.0
C664 C 0.92342 0.44949 0.64115 0.0
C665 C 0.92517 0.47439 0.63543 0.0
C666 C 0.90302 0.4873 0.63156 0.0
C667 C 0.88008 0.47493 0.63288 0.0
C668 C 0.90036 0.43806 0.64267 0.0
H669 H 0.86335 0.48505 0.6294 0.0
H670 H 0.90007 0.41898 0.64735 0.0
H671 H 0.80882 0.41997 0.6737 0.0
H672 H 0.81799 0.40181 0.60845 0.0
C673 C 0.80812 0.47401 0.6246 0.0
C674 C 0.85136 0.45818 0.69042 0.0
C675 C 0.86352 0.41911 0.58673 0.0
C676 C 0.86907 0.37983 0.65608 0.0
H677 H 0.81581 0.49806 0.69356 0.0
H678 H 0.79069 0.50574 0.65788 0.0
H679 H 0.80331 0.47962 0.57947 0.0
H680 H 0.83524 0.45114 0.55898 0.0
H681 H 0.8867 0.37076 0.58548 0.0
H682 H 0.88749 0.34805 0.62298 0.0
H683 H 0.87978 0.37769 0.7008 0.0
H684 H 0.87321 0.42135 0.71894 0.0
H685 H 0.77321 0.39207 0.6761 0.0
H686 H 0.78313 0.37401 0.60978 0.0
H687 H 0.93987 0.43884 0.6447 0.0
H688 H 0.90345 0.50662 0.62712 0.0
C689 C 0.55063 0.83241 0.17249 0.0
C690 C 0.52954 0.81816 0.1755 0.0
C691 C 0.5257 0.80542 0.15697 0.0
C692 C 0.54441 0.8127 0.14361 0.0
N693 N 0.55974 0.82932 0.15253 0.0
Co694 Co 0.58851 0.84511 0.13833 0.0
N695 N 0.57583 0.83656 0.1096 0.0
C696 C 0.5588 0.81912 0.10533 0.0
C697 C 0.55405 0.81659 0.084 0.0
C698 C 0.56919 0.83334 0.07418 0.0
C699 C 0.58237 0.84528 0.09015 0.0
N700 N 0.61739 0.86059 0.12402 0.0
C701 C 0.62072 0.86711 0.1033 0.0
C702 C 0.64412 0.87702 0.10027 0.0
C703 C 0.65584 0.87625 0.11968 0.0
C704 C 0.63902 0.86602 0.13351 0.0
N705 N 0.6007 0.85366 0.16721 0.0
C706 C 0.62409 0.85989 0.17208 0.0
C707 C 0.62704 0.86501 0.19337 0.0
C708 C 0.60408 0.86169 0.20239 0.0
C709 C 0.5883 0.85477 0.18607 0.0
N710 N 0.60714 0.81344 0.13935 0.0
C711 C 0.63945 0.77201 0.14159 0.0
C712 C 0.62527 0.77954 0.15927 0.0
C713 C 0.6092 0.80005 0.15779 0.0
C714 C 0.63627 0.78543 0.12264 0.0
C715 C 0.62022 0.8058 0.12186 0.0
N716 N 0.5709 0.87705 0.13727 0.0
C717 C 0.57247 0.92144 0.14117 0.0
C718 C 0.54769 0.92377 0.13509 0.0
C719 C 0.5346 0.90197 0.13039 0.0
C720 C 0.5466 0.87884 0.13138 0.0
C721 C 0.58355 0.89815 0.14233 0.0
H722 H 0.53629 0.86244 0.12729 0.0
H723 H 0.60255 0.89734 0.14733 0.0
H724 H 0.59887 0.80543 0.17176 0.0
H725 H 0.61911 0.81585 0.10709 0.0
C726 C 0.54531 0.80812 0.12175 0.0
C727 C 0.56222 0.84753 0.18921 0.0
C728 C 0.60276 0.86261 0.08604 0.0
C729 C 0.64128 0.86472 0.1558 0.0
H730 H 0.51795 0.81711 0.18951 0.0
H731 H 0.51037 0.79329 0.15333 0.0
H732 H 0.54077 0.80443 0.0765 0.0
H733 H 0.57071 0.83602 0.05715 0.0
H734 H 0.65196 0.88392 0.08558 0.0
H735 H 0.67416 0.88308 0.12336 0.0
H736 H 0.64365 0.87132 0.20129 0.0
H737 H 0.59949 0.86398 0.21905 0.0
H738 H 0.62655 0.7697 0.17424 0.0
H739 H 0.64679 0.78084 0.10852 0.0
H740 H 0.58327 0.93758 0.14534 0.0
H741 H 0.51539 0.9028 0.1256 0.0
C742 C 0.18983 0.54937 0.67254 0.0
C743 C 0.20363 0.52796 0.67541 0.0
C744 C 0.21616 0.52388 0.6568 0.0
C745 C 0.20918 0.54272 0.64352 0.0
N746 N 0.19295 0.55839 0.65255 0.0
Co747 Co 0.17742 0.58731 0.63839 0.0
N748 N 0.18542 0.57435 0.60962 0.0
C749 C 0.20257 0.55704 0.60526 0.0
C750 C 0.20484 0.55217 0.58393 0.0
C751 C 0.18824 0.56753 0.5742 0.0
C752 C 0.17663 0.58095 0.59022 0.0
N753 N 0.1622 0.61633 0.62413 0.0
C754 C 0.15552 0.61968 0.60345 0.0
C755 C 0.14595 0.6432 0.60045 0.0
C756 C 0.14711 0.65498 0.61981 0.0
C757 C 0.15722 0.63806 0.63361 0.0
N758 N 0.16942 0.59977 0.66732 0.0
C759 C 0.16365 0.62325 0.67218 0.0
C760 C 0.15874 0.62636 0.6935 0.0
C761 C 0.16172 0.60339 0.70254 0.0
C762 C 0.16823 0.58745 0.68621 0.0
N763 N 0.20939 0.60545 0.63903 0.0
C764 C 0.25085 0.63771 0.64084 0.0
C765 C 0.24345 0.62371 0.65866 0.0
C766 C 0.22292 0.60764 0.65738 0.0
C767 C 0.23734 0.63434 0.62198 0.0
C768 C 0.21696 0.61831 0.6214 0.0
N769 N 0.14516 0.57027 0.63777 0.0
C770 C 0.10095 0.57261 0.64295 0.0
C771 C 0.09785 0.54781 0.6371 0.0
C772 C 0.11931 0.53453 0.63138 0.0
C773 C 0.14271 0.54609 0.63178 0.0
C774 C 0.12445 0.58327 0.64334 0.0
H775 H 0.15882 0.5355 0.6273 0.0
H776 H 0.12572 0.60229 0.64812 0.0
H777 H 0.21761 0.59747 0.67145 0.0
H778 H 0.2068 0.6171 0.6067 0.0
C779 C 0.21353 0.54346 0.62162 0.0
C780 C 0.17503 0.56127 0.68935 0.0
C781 C 0.15963 0.60163 0.58616 0.0
C782 C 0.15887 0.64042 0.65588 0.0
H783 H 0.20447 0.51626 0.68934 0.0
H784 H 0.22789 0.50827 0.65305 0.0
H785 H 0.21674 0.53869 0.57638 0.0
H786 H 0.18548 0.56904 0.55719 0.0
H787 H 0.13903 0.6511 0.58579 0.0
H788 H 0.14064 0.67341 0.6235 0.0
H789 H 0.15275 0.64308 0.70142 0.0
H790 H 0.15947 0.5989 0.71922 0.0
H791 H 0.25338 0.62516 0.67356 0.0
H792 H 0.24184 0.64472 0.60776 0.0
H793 H 0.08526 0.58411 0.64698 0.0
H794 H 0.11817 0.51528 0.62687 0.0
C795 C 0.47248 0.18871 0.17287 0.0
C796 C 0.49362 0.20286 0.17599 0.0
C797 C 0.49775 0.21549 0.15745 0.0
C798 C 0.47917 0.20826 0.14398 0.0
N799 N 0.46363 0.19177 0.15283 0.0
Co800 Co 0.43491 0.17611 0.13847 0.0
N801 N 0.44795 0.18453 0.10979 0.0
C802 C 0.46516 0.20184 0.10562 0.0
C803 C 0.47012 0.20438 0.08433 0.0
C804 C 0.45493 0.18778 0.07441 0.0
C805 C 0.44151 0.17592 0.09029 0.0
N806 N 0.40609 0.16077 0.12399 0.0
C807 C 0.40288 0.15433 0.10323 0.0
C808 C 0.37945 0.14456 0.10008 0.0
C809 C 0.36757 0.14535 0.11943 0.0
C810 C 0.38434 0.15545 0.13336 0.0
N811 N 0.42237 0.16769 0.1673 0.0
C812 C 0.3989 0.16159 0.17202 0.0
C813 C 0.39567 0.15657 0.1933 0.0
C814 C 0.41854 0.15983 0.20248 0.0
C815 C 0.43454 0.16662 0.18625 0.0
N816 N 0.41641 0.20787 0.13933 0.0
C817 C 0.38377 0.24902 0.14146 0.0
C818 C 0.3978 0.24153 0.15922 0.0
C819 C 0.41406 0.22117 0.15779 0.0
C820 C 0.3873 0.23576 0.12248 0.0
C821 C 0.40352 0.21552 0.12174 0.0
N822 N 0.45234 0.14405 0.13763 0.0
C823 C 0.45048 0.09978 0.14226 0.0
C824 C 0.47543 0.09704 0.13658 0.0
C825 C 0.48852 0.11874 0.13126 0.0
C826 C 0.47665 0.14197 0.13182 0.0
C827 C 0.43952 0.12313 0.14287 0.0
H828 H 0.48711 0.15824 0.12759 0.0
H829 H 0.42042 0.12412 0.14753 0.0
H830 H 0.42425 0.2158 0.17182 0.0
H831 H 0.40486 0.20555 0.10696 0.0
C832 C 0.47854 0.21278 0.12211 0.0
C833 C 0.46062 0.17375 0.18956 0.0
C834 C 0.42096 0.15883 0.08602 0.0
C835 C 0.38186 0.15681 0.15563 0.0
H836 H 0.50502 0.20392 0.1901 0.0
H837 H 0.51318 0.22753 0.15389 0.0
H838 H 0.48355 0.21646 0.07691 0.0
H839 H 0.45353 0.18519 0.05737 0.0
H840 H 0.37167 0.13776 0.08534 0.0
H841 H 0.34918 0.13864 0.12301 0.0
H842 H 0.37894 0.15037 0.20112 0.0
H843 H 0.42293 0.15759 0.21918 0.0
H844 H 0.39624 0.25128 0.17421 0.0
H845 H 0.37693 0.24035 0.10829 0.0
H846 H 0.43909 0.08393 0.14597 0.0
H847 H 0.50787 0.11793 0.12692 0.0
H848 H 0.08332 0.52019 0.15234 0.0
H849 H 0.9434 0.51025 0.11015 0.0
H850 H 0.05654 0.45774 0.11661 0.0
H851 H 0.96537 0.55775 0.16203 0.0
H852 H 0.98542 0.49334 0.10924 0.0
H853 H 0.04129 0.53755 0.15221 0.0
C854 C 0.0687 0.51027 0.14425 0.0
C855 C 0.07355 0.48739 0.13456 0.0
C856 C 0.98099 0.50751 0.12079 0.0
C857 C 0.02523 0.50716 0.13436 0.0
C858 C 0.95684 0.51711 0.12145 0.0
C859 C 0.95045 0.53577 0.13608 0.0
C860 C 0.99918 0.51671 0.13469 0.0
C861 C 0.9692 0.54394 0.15004 0.0
C862 C 0.04464 0.52008 0.14433 0.0
C863 C 0.05368 0.47529 0.12448 0.0
N864 N 0.99255 0.53452 0.14891 0.0
N865 N 0.03053 0.48529 0.12461 0.0
H866 H 0.51994 0.9387 0.65015 0.0
H867 H 0.50913 0.0797 0.61165 0.0
H868 H 0.45565 0.96664 0.61751 0.0
H869 H 0.55763 0.05584 0.66224 0.0
H870 H 0.4916 0.03793 0.61035 0.0
H871 H 0.53715 0.98068 0.65065 0.0
C872 C 0.50956 0.95359 0.64288 0.0
C873 C 0.48624 0.94905 0.63385 0.0
C874 C 0.50612 0.04192 0.6217 0.0
C875 C 0.50587 0.99734 0.63437 0.0
C876 C 0.51607 0.06589 0.62258 0.0
C877 C 0.53525 0.07163 0.63691 0.0
C878 C 0.5155 0.02329 0.63508 0.0
C879 C 0.54346 0.05249 0.65045 0.0
C880 C 0.5193 0.97762 0.64333 0.0
C881 C 0.47356 0.96925 0.62485 0.0
N882 N 0.53373 0.02934 0.64908 0.0
N883 N 0.48353 0.99239 0.62528 0.0
H884 H 0.05639 0.56494 0.39858 0.0
H885 H 0.96496 0.46333 0.35051 0.0
H886 H 0.08199 0.50293 0.36162 0.0
H887 H 0.94422 0.51016 0.40324 0.0
H888 H 1.00681 0.47983 0.35226 0.0
H889 H 0.01464 0.54731 0.39858 0.0
C890 C 0.05326 0.54754 0.39052 0.0
C891 C 0.07285 0.53545 0.38004 0.0
C892 C 0.99314 0.48645 0.3635 0.0
C893 C 0.02473 0.51523 0.37977 0.0
C894 C 0.96908 0.47692 0.36263 0.0
C895 C 0.95066 0.48494 0.37697 0.0
C896 C 0.99913 0.50458 0.3786 0.0
C897 C 0.95744 0.50337 0.3917 0.0
C898 C 0.02938 0.53746 0.39057 0.0
C899 C 0.06759 0.51284 0.37002 0.0
N900 N 0.98099 0.51253 0.3921 0.0
N901 N 0.04406 0.50363 0.36995 0.0
H902 H 0.56687 0.96657 0.89679 0.0
H903 H 0.46366 0.05733 0.85034 0.0
H904 H 0.50263 0.9407 0.8629 0.0
H905 H 0.51227 0.07913 0.90151 0.0
H906 H 0.48039 0.01564 0.85221 0.0
H907 H 0.5497 1.00851 0.89644 0.0
C908 C 0.5491 0.96969 0.88931 0.0
C909 C 0.53621 0.94997 0.87982 0.0
C910 C 0.48736 0.0295 0.86308 0.0
C911 C 0.51653 0.99824 0.87915 0.0
C912 C 0.47771 0.05346 0.86214 0.0
C913 C 0.4861 0.07208 0.87607 0.0
C914 C 0.506 0.02382 0.87781 0.0
C915 C 0.50514 0.06568 0.89035 0.0
C916 C 0.53929 0.99366 0.88918 0.0
C917 C 0.51316 0.9552 0.87054 0.0
N918 N 0.51441 0.04218 0.89084 0.0
N919 N 0.50421 0.97879 0.87025 0.0
H920 H 0.96515 0.55814 0.85028 0.0
H921 H 0.05588 0.45558 0.89778 0.0
H922 H 0.94311 0.50998 0.90171 0.0
H923 H 0.0819 0.51942 0.86343 0.0
H924 H 0.01389 0.47271 0.89721 0.0
H925 H 1.00691 0.54154 0.85243 0.0
C926 C 0.96898 0.54421 0.86219 0.0
C927 C 0.95026 0.53591 0.87611 0.0
C928 C 0.02878 0.48305 0.8899 0.0
C929 C 0.99862 0.51615 0.87817 0.0
C930 C 0.05279 0.47326 0.89016 0.0
C931 C 0.07256 0.48604 0.8806 0.0
C932 C 0.02423 0.50567 0.87967 0.0
C933 C 0.06736 0.50898 0.87113 0.0
C934 C 0.99298 0.53463 0.8633 0.0
C935 C 0.95663 0.51702 0.89055 0.0
N936 N 0.04374 0.51791 0.87072 0.0
N937 N 0.98017 0.50783 0.89119 0.0
H938 H 0.53986 0.06716 0.34438 0.0
H939 H 0.49692 0.94956 0.41222 0.0
H940 H 0.52636 0.07223 0.41183 0.0
H941 H 0.48092 0.95773 0.3454 0.0
H942 H 0.51324 0.99211 0.41266 0.0
H943 H 0.5233 0.025 0.34461 0.0
C944 C 0.53327 0.05941 0.35924 0.0
C945 C 0.53437 0.07334 0.37809 0.0
C946 C 0.5062 0.98453 0.39791 0.0
C947 C 0.51583 0.02466 0.37858 0.0
C948 C 0.4971 0.96018 0.39761 0.0
C949 C 0.48754 0.95001 0.37874 0.0
C950 C 0.50623 0.99868 0.37911 0.0
C951 C 0.488 0.96479 0.36032 0.0
C952 C 0.52382 0.03533 0.35937 0.0
C953 C 0.52562 0.06227 0.3969 0.0
N954 N 0.49727 0.9882 0.36094 0.0
N955 N 0.51696 0.03853 0.39673 0.0
H956 H 0.96652 0.45676 0.61519 0.0
H957 H 0.05814 0.55797 0.66349 0.0
H958 H 0.94104 0.51879 0.6522 0.0
H959 H 0.07876 0.51131 0.61062 0.0
H960 H 0.01625 0.5416 0.66168 0.0
H961 H 1.0083 0.47431 0.6152 0.0
C962 C 0.96969 0.47416 0.62326 0.0
C963 C 0.95014 0.48628 0.63375 0.0
C964 C 0.02991 0.53498 0.65042 0.0
C965 C 0.99827 0.50638 0.63405 0.0
C966 C 0.05398 0.54444 0.65133 0.0
C967 C 0.07236 0.53643 0.63696 0.0
C968 C 0.02387 0.51694 0.63526 0.0
C969 C 0.06556 0.51808 0.62217 0.0
C970 C 0.99358 0.48418 0.62321 0.0
C971 C 0.95542 0.50886 0.64378 0.0
N972 N 0.04198 0.50899 0.62173 0.0
N973 N 0.97896 0.51803 0.64387 0.0
H974 H 0.51311 0.07919 0.11057 0.0
H975 H 0.50236 0.93874 0.15059 0.0
H976 H 0.46488 0.05634 0.16177 0.0
H977 H 0.56641 0.96627 0.11731 0.0
H978 H 0.4851 0.98074 0.15079 0.0
H979 H 0.53035 0.03733 0.10956 0.0
C980 C 0.50616 0.0656 0.1217 0.0
C981 C 0.48717 0.0717 0.13616 0.0
C982 C 0.50291 0.97757 0.14339 0.0
C983 C 0.50662 0.02316 0.13462 0.0
C984 C 0.51268 0.95353 0.14312 0.0
C985 C 0.53594 0.94887 0.13399 0.0
C986 C 0.51625 0.99718 0.13415 0.0
C987 C 0.54854 0.96896 0.12472 0.0
C988 C 0.51595 0.04155 0.12098 0.0
C989 C 0.47892 0.05276 0.1499 0.0
N990 N 0.53854 0.99211 0.12498 0.0
N991 N 0.48851 0.02951 0.14868 0.0
H992 H 0.15271 0.51754 0.32032 0.0
H993 H 0.15304 0.50522 0.19414 0.0
H994 H 0.18126 0.5765 0.28134 0.0
H995 H 0.18138 0.44627 0.23323 0.0
H996 H 0.15051 0.53168 0.22594 0.0
H997 H 0.15033 0.49112 0.2885 0.0
C998 C 0.15781 0.52519 0.30499 0.0
C999 C 0.16653 0.54964 0.30356 0.0
C1000 C 0.15677 0.51277 0.22756 0.0
C1001 C 0.16361 0.51941 0.26696 0.0
C1002 C 0.15806 0.49758 0.20948 0.0
C1003 C 0.16676 0.47312 0.21095 0.0
C1004 C 0.16367 0.50338 0.24752 0.0
C1005 C 0.17352 0.4645 0.23129 0.0
C1006 C 0.1566 0.51002 0.2869 0.0
C1007 C 0.17339 0.55828 0.28325 0.0
N1008 N 0.17166 0.4795 0.24874 0.0
N1009 N 0.17161 0.5433 0.26578 0.0
H1010 H 0.51729 0.15134 0.69401 0.0
H1011 H 0.50464 0.15162 0.82006 0.0
H1012 H 0.57616 0.18027 0.73288 0.0
H1013 H 0.44613 0.18122 0.78114 0.0
H1014 H 0.53109 0.14886 0.78823 0.0
H1015 H 0.49079 0.14904 0.72584 0.0
C1016 C 0.52491 0.15653 0.70932 0.0
C1017 C 0.54935 0.16535 0.71073 0.0
C1018 C 0.51226 0.15544 0.78665 0.0
C1019 C 0.51905 0.16251 0.74731 0.0
C1020 C 0.49708 0.15686 0.80474 0.0
C1021 C 0.47276 0.166 0.80332 0.0
C1022 C 0.50299 0.16264 0.76673 0.0
C1023 C 0.46423 0.17303 0.78303 0.0
C1024 C 0.5097 0.15537 0.72741 0.0
C1025 C 0.55795 0.17233 0.73101 0.0
N1026 N 0.47922 0.17103 0.76556 0.0
N1027 N 0.54293 0.17058 0.74847 0.0
H1028 H 0.81136 0.55515 0.21866 0.0
H1029 H 0.88927 0.47993 0.30537 0.0
H1030 H 0.88826 0.53893 0.20787 0.0
H1031 H 0.81122 0.46947 0.29552 0.0
H1032 H 0.89086 0.5055 0.27277 0.0
H1033 H 0.81235 0.5294 0.25083 0.0
C1034 C 0.82858 0.54647 0.22331 0.0
C1035 C 0.84972 0.54908 0.21052 0.0
C1036 C 0.87344 0.49745 0.27768 0.0
C1037 C 0.85106 0.51946 0.24745 0.0
C1038 C 0.87256 0.48276 0.29619 0.0
C1039 C 0.85005 0.47271 0.30324 0.0
C1040 C 0.85154 0.50248 0.26636 0.0
C1041 C 0.82892 0.47701 0.29075 0.0
C1042 C 0.82909 0.53157 0.24155 0.0
C1043 C 0.87156 0.53739 0.21729 0.0
N1044 N 0.83011 0.4918 0.27321 0.0
N1045 N 0.8717 0.52309 0.23527 0.0
H1046 H 0.55541 0.81122 0.79497 0.0
H1047 H 0.48043 0.88887 0.70786 0.0
H1048 H 0.53929 0.88813 0.80535 0.0
H1049 H 0.47018 0.81086 0.71773 0.0
H1050 H 0.50593 0.89051 0.74049 0.0
H1051 H 0.52979 0.8121 0.76273 0.0
C1052 C 0.54675 0.82841 0.79023 0.0
C1053 C 0.54936 0.84959 0.80293 0.0
C1054 C 0.49796 0.87308 0.73556 0.0
C1055 C 0.5199 0.85081 0.76589 0.0
C1056 C 0.48332 0.87217 0.71703 0.0
C1057 C 0.47336 0.84965 0.70997 0.0
C1058 C 0.50302 0.85123 0.74691 0.0
C1059 C 0.47769 0.82856 0.72248 0.0
C1060 C 0.53194 0.82887 0.77194 0.0
C1061 C 0.53774 0.8714 0.79601 0.0
N1062 N 0.49243 0.82979 0.74005 0.0
N1063 N 0.52352 0.87148 0.77798 0.0
H1064 H 0.87032 0.51734 0.81975 0.0
H1065 H 0.87029 0.5048 0.69369 0.0
H1066 H 0.84057 0.57582 0.78092 0.0
H1067 H 0.84162 0.44591 0.73269 0.0
H1068 H 0.87254 0.5313 0.72549 0.0
H1069 H 0.87299 0.49096 0.78791 0.0
C1070 C 0.86502 0.5249 0.80444 0.0
C1071 C 0.85587 0.5492 0.80306 0.0
C1072 C 0.86627 0.51239 0.7271 0.0
C1073 C 0.85913 0.51905 0.76645 0.0
C1074 C 0.86514 0.49719 0.70902 0.0
C1075 C 0.85643 0.47273 0.71047 0.0
C1076 C 0.85922 0.50302 0.74703 0.0
C1077 C 0.84949 0.46413 0.73078 0.0
C1078 C 0.8664 0.50976 0.78634 0.0
C1079 C 0.84877 0.55774 0.78278 0.0
N1080 N 0.85122 0.47914 0.74822 0.0
N1081 N 0.85072 0.54279 0.76531 0.0
H1082 H 0.48106 0.88931 0.30555 0.0
H1083 H 0.55598 0.8109 0.21874 0.0
H1084 H 0.47158 0.81105 0.29673 0.0
H1085 H 0.53996 0.8878 0.20817 0.0
H1086 H 0.53052 0.81196 0.2511 0.0
H1087 H 0.50648 0.89065 0.27284 0.0
C1088 C 0.48413 0.87248 0.29661 0.0
C1089 C 0.47442 0.84999 0.304 0.0
C1090 C 0.53265 0.82869 0.24181 0.0
C1091 C 0.50394 0.85123 0.26693 0.0
C1092 C 0.54736 0.82812 0.22345 0.0
C1093 C 0.54995 0.84925 0.21067 0.0
C1094 C 0.52069 0.85068 0.24784 0.0
C1095 C 0.53841 0.87111 0.21756 0.0
C1096 C 0.49872 0.87323 0.27803 0.0
C1097 C 0.47893 0.82873 0.29175 0.0
N1098 N 0.52428 0.87129 0.23566 0.0
N1099 N 0.49359 0.82981 0.2741 0.0
H1100 H 0.21094 0.46654 0.79553 0.0
H1101 H 0.13352 0.54178 0.70854 0.0
H1102 H 0.13411 0.48318 0.80624 0.0
H1103 H 0.21157 0.55207 0.71854 0.0
H1104 H 0.13176 0.51635 0.74121 0.0
H1105 H 0.21011 0.49221 0.76331 0.0
C1106 C 0.19377 0.4753 0.79086 0.0
C1107 C 0.17261 0.47283 0.80364 0.0
C1108 C 0.14922 0.52433 0.73631 0.0
C1109 C 0.17144 0.50236 0.76665 0.0
C1110 C 0.15019 0.53894 0.71776 0.0
C1111 C 0.17276 0.5489 0.71073 0.0
C1112 C 0.17107 0.51927 0.74769 0.0
C1113 C 0.19383 0.5446 0.72329 0.0
C1114 C 0.19334 0.49015 0.77259 0.0
C1115 C 0.15083 0.48461 0.79683 0.0
N1116 N 0.19255 0.52987 0.74087 0.0
N1117 N 0.15077 0.49886 0.77881 0.0
H1118 H 0.54168 0.13368 0.30633 0.0
H1119 H 0.46599 0.21052 0.21905 0.0
H1120 H 0.55041 0.21195 0.29694 0.0
H1121 H 0.48324 0.13384 0.20874 0.0
H1122 H 0.49131 0.20995 0.25148 0.0
H1123 H 0.51633 0.13178 0.27363 0.0
C1124 C 0.53846 0.1504 0.29727 0.0
C1125 C 0.54793 0.17305 0.30449 0.0
C1126 C 0.48946 0.19317 0.24225 0.0
C1127 C 0.51848 0.17117 0.26744 0.0
C1128 C 0.47482 0.19344 0.22385 0.0
C1129 C 0.47261 0.17224 0.21113 0.0
C1130 C 0.50175 0.17139 0.24836 0.0
C1131 C 0.48447 0.15058 0.2181 0.0
C1132 C 0.52391 0.14933 0.27869 0.0
C1133 C 0.54323 0.19415 0.29209 0.0
N1134 N 0.49853 0.15068 0.23622 0.0
N1135 N 0.5286 0.19277 0.27446 0.0
H1136 H 0.178 0.38381 0.95407 0.0
H1137 H 0.12915 0.44753 0.06154 0.0
H1138 H 0.12861 0.44615 0.95496 0.0
H1139 H 0.17762 0.38448 0.06074 0.0
H1140 H 0.12481 0.44436 0.0227 0.0
H1141 H 0.17411 0.38049 0.99292 0.0
C1142 C 0.16573 0.39632 0.96241 0.0
C1143 C 0.15323 0.41499 0.95125 0.0
C1144 C 0.13605 0.4309 0.031 0.0
C1145 C 0.14932 0.41192 0.9959 0.0
C1146 C 0.13837 0.43263 0.05319 0.0
C1147 C 0.15339 0.41598 0.06439 0.0
C1148 C 0.14913 0.41255 0.01979 0.0
C1149 C 0.16546 0.39738 0.05275 0.0
C1150 C 0.16371 0.39462 0.98464 0.0
C1151 C 0.13823 0.43125 0.96294 0.0
N1152 N 0.16321 0.39627 0.03113 0.0
N1153 N 0.13684 0.42947 0.98458 0.0
H1154 H 0.63931 0.17621 0.45379 0.0
H1155 H 0.57535 0.1276 0.56128 0.0
H1156 H 0.57656 0.12736 0.45475 0.0
H1157 H 0.63832 0.17618 0.56047 0.0
H1158 H 0.57863 0.12316 0.52246 0.0
H1159 H 0.64272 0.17219 0.49263 0.0
C1160 C 0.62675 0.164 0.46214 0.0
C1161 C 0.60791 0.15172 0.451 0.0
C1162 C 0.59205 0.13445 0.53075 0.0
C1163 C 0.61107 0.14768 0.49564 0.0
C1164 C 0.59026 0.13682 0.55293 0.0
C1165 C 0.60685 0.1519 0.56413 0.0
C1166 C 0.61041 0.14753 0.51954 0.0
C1167 C 0.62546 0.16398 0.55249 0.0
C1168 C 0.62849 0.16192 0.48436 0.0
C1169 C 0.59158 0.1368 0.46271 0.0
N1170 N 0.62663 0.16167 0.53087 0.0
N1171 N 0.5934 0.13536 0.48433 0.0
H1172 H 0.84411 0.63776 0.06013 0.0
H1173 H 0.89416 0.57494 0.95264 0.0
H1174 H 0.89444 0.57618 0.05923 0.0
H1175 H 0.8443 0.63689 0.95345 0.0
H1176 H 0.89843 0.5782 0.99148 0.0
H1177 H 0.84795 0.64114 0.02127 0.0
C1178 C 0.85657 0.62544 0.05178 0.0
C1179 C 0.86935 0.60696 0.06295 0.0
C1180 C 0.88689 0.5914 0.98318 0.0
C1181 C 0.87321 0.61009 0.01829 0.0
C1182 C 0.88461 0.58963 0.96099 0.0
C1183 C 0.86922 0.60594 0.94979 0.0
C1184 C 0.87341 0.60946 0.9944 0.0
C1185 C 0.85674 0.62427 0.96143 0.0
C1186 C 0.85856 0.62717 0.02955 0.0
C1187 C 0.8846 0.59094 0.05125 0.0
N1188 N 0.85897 0.62542 0.98305 0.0
N1189 N 0.88596 0.59274 0.02961 0.0
H1190 H 0.44484 0.8954 0.56066 0.0
H1191 H 0.38181 0.84667 0.45294 0.0
H1192 H 0.38298 0.84544 0.55957 0.0
H1193 H 0.44425 0.89591 0.45425 0.0
H1194 H 0.37807 0.85058 0.49177 0.0
H1195 H 0.44127 0.9004 0.52192 0.0
C1196 C 0.43006 0.88604 0.55228 0.0
C1197 C 0.4139 0.87035 0.56337 0.0
C1198 C 0.3923 0.86096 0.48358 0.0
C1199 C 0.41007 0.87533 0.51885 0.0
C1200 C 0.39423 0.85894 0.46136 0.0
C1201 C 0.41308 0.87136 0.45033 0.0
C1202 C 0.40953 0.8753 0.49495 0.0
C1203 C 0.42922 0.88636 0.46212 0.0
C1204 C 0.42813 0.8887 0.53014 0.0
C1205 C 0.39547 0.8581 0.55168 0.0
N1206 N 0.42721 0.88776 0.48374 0.0
N1207 N 0.39419 0.86069 0.5301 0.0
H1208 H 0.12833 0.57508 0.45325 0.0
H1209 H 0.17836 0.63816 0.56051 0.0
H1210 H 0.17732 0.63771 0.45385 0.0
H1211 H 0.12823 0.57644 0.55983 0.0
H1212 H 0.17428 0.64159 0.52168 0.0
H1213 H 0.12419 0.57827 0.49211 0.0
C1214 C 0.1377 0.5899 0.46156 0.0
C1215 C 0.15281 0.60642 0.4503 0.0
C1216 C 0.16377 0.62758 0.53001 0.0
C1217 C 0.14879 0.60986 0.49492 0.0
C1218 C 0.16589 0.62582 0.55222 0.0
C1219 C 0.15324 0.60729 0.56344 0.0
C1220 C 0.14911 0.61046 0.51881 0.0
C1221 C 0.13797 0.59123 0.55181 0.0
C1222 C 0.1355 0.59163 0.48376 0.0
C1223 C 0.16509 0.62491 0.46189 0.0
N1224 N 0.13649 0.59306 0.53019 0.0
N1225 N 0.16295 0.62602 0.48352 0.0
H1226 H 0.44719 0.1283 0.95279 0.0
H1227 H 0.38435 0.1777 0.06053 0.0
H1228 H 0.38488 0.17775 0.95384 0.0
H1229 H 0.44638 0.1279 0.05939 0.0
H1230 H 0.3809 0.17396 0.02167 0.0
H1231 H 0.44411 0.12397 0.99164 0.0
C1232 C 0.43246 0.13774 0.9612 0.0
C1233 C 0.41599 0.15303 0.95006 0.0
C1234 C 0.39499 0.16345 0.0299 0.0
C1235 C 0.41269 0.14879 0.99468 0.0
C1236 C 0.39677 0.16539 0.05213 0.0
C1237 C 0.41539 0.15272 0.06323 0.0
C1238 C 0.41216 0.14896 0.01858 0.0
C1239 C 0.43152 0.13765 0.05147 0.0
C1240 C 0.43079 0.13544 0.9834 0.0
C1241 C 0.39763 0.16538 0.96177 0.0
N1242 N 0.42967 0.13633 0.02983 0.0
N1243 N 0.39658 0.16313 0.9834 0.0
H1244 H 0.84344 0.38177 0.45184 0.0
H1245 H 0.84594 0.38051 0.56288 0.0
H1246 H 0.89349 0.44335 0.45562 0.0
H1247 H 0.89106 0.44572 0.55809 0.0
H1248 H 0.84887 0.37497 0.52454 0.0
H1249 H 0.84593 0.37679 0.49025 0.0
C1250 C 0.85561 0.39377 0.46081 0.0
C1251 C 0.86864 0.41267 0.45046 0.0
C1252 C 0.85836 0.39049 0.53154 0.0
C1253 C 0.8712 0.4078 0.49514 0.0
C1254 C 0.85695 0.39339 0.55369 0.0
C1255 C 0.86861 0.41336 0.56375 0.0
C1256 C 0.87117 0.40804 0.5191 0.0
C1257 C 0.88205 0.42988 0.55098 0.0
C1258 C 0.85691 0.39114 0.48299 0.0
C1259 C 0.88346 0.42827 0.46295 0.0
N1260 N 0.88281 0.42696 0.52941 0.0
N1261 N 0.88417 0.42561 0.48455 0.0
H1262 H 0.63941 0.84418 0.06033 0.0
H1263 H 0.57669 0.89561 0.95333 0.0
H1264 H 0.57732 0.89391 0.05979 0.0
H1265 H 0.6378 0.84468 0.9537 0.0
H1266 H 0.58028 0.89973 0.99214 0.0
H1267 H 0.64291 0.84857 0.02152 0.0
C1268 C 0.62699 0.85661 0.05207 0.0
C1269 C 0.60833 0.86907 0.06332 0.0
C1270 C 0.59325 0.888 0.98375 0.0
C1271 C 0.61165 0.8736 0.01873 0.0
C1272 C 0.59132 0.88584 0.96157 0.0
C1273 C 0.60725 0.87014 0.95026 0.0
C1274 C 0.61109 0.87411 0.99485 0.0
C1275 C 0.62548 0.85737 0.96177 0.0
C1276 C 0.6288 0.85893 0.02988 0.0
C1277 C 0.5922 0.88432 0.05175 0.0
N1278 N 0.62678 0.85948 0.98339 0.0
N1279 N 0.5941 0.88602 0.03014 0.0
H1280 H 0.26273 0.34982 0.1766 0.0
H1281 H 0.37205 0.28357 0.11058 0.0
H1282 H 0.28368 0.36987 0.11261 0.0
H1283 H 0.35273 0.26277 0.17477 0.0
H1284 H 0.3404 0.31571 0.11168 0.0
H1285 H 0.29606 0.31904 0.17697 0.0
C1286 C 0.27438 0.34802 0.16267 0.0
C1287 C 0.26999 0.36268 0.1445 0.0
C1288 C 0.34306 0.3042 0.12558 0.0
C1289 C 0.30843 0.32687 0.14477 0.0
C1290 C 0.36116 0.28561 0.12495 0.0
C1291 C 0.36525 0.27 0.14256 0.0
C1292 C 0.32856 0.30753 0.14397 0.0
C1293 C 0.35062 0.27428 0.16081 0.0
C1294 C 0.2934 0.33022 0.16286 0.0
C1295 C 0.28578 0.35892 0.1269 0.0
N1296 N 0.33297 0.29243 0.16099 0.0
N1297 N 0.30407 0.34152 0.12749 0.0
H1298 H 0.7398 0.37001 0.61237 0.0
H1299 H 0.67265 0.26017 0.67682 0.0
H1300 H 0.76109 0.3487 0.67595 0.0
H1301 H 0.65292 0.28231 0.61307 0.0
H1302 H 0.70378 0.29313 0.67762 0.0
H1303 H 0.70727 0.33879 0.61309 0.0
C1304 C 0.73779 0.35877 0.62652 0.0
C1305 C 0.75366 0.36214 0.64407 0.0
C1306 C 0.6926 0.29081 0.66348 0.0
C1307 C 0.71567 0.32598 0.64505 0.0
C1308 C 0.6746 0.27202 0.66304 0.0
C1309 C 0.65992 0.26809 0.6448 0.0
C1310 C 0.69612 0.30608 0.64558 0.0
C1311 C 0.66387 0.28409 0.6274 0.0
C1312 C 0.71898 0.34091 0.62694 0.0
C1313 C 0.74938 0.34712 0.66206 0.0
N1314 N 0.68146 0.30217 0.62823 0.0
N1315 N 0.731 0.32972 0.66203 0.0
H1316 H 0.73789 0.64935 0.10953 0.0
H1317 H 0.6697 0.75768 0.17518 0.0
H1318 H 0.75776 0.66861 0.17392 0.0
H1319 H 0.65151 0.73763 0.1106 0.0
H1320 H 0.70065 0.7245 0.17582 0.0
H1321 H 0.70554 0.68078 0.11036 0.0
C1322 C 0.7356 0.66017 0.12388 0.0
C1323 C 0.75103 0.65614 0.14163 0.0
C1324 C 0.68985 0.72733 0.16152 0.0
C1325 C 0.71323 0.69258 0.14273 0.0
C1326 C 0.67194 0.74625 0.16117 0.0
C1327 C 0.65776 0.75085 0.14276 0.0
C1328 C 0.69376 0.71259 0.14336 0.0
C1329 C 0.66208 0.73536 0.12508 0.0
C1330 C 0.7169 0.67816 0.12436 0.0
C1331 C 0.74641 0.67068 0.15986 0.0
N1332 N 0.67955 0.71715 0.12583 0.0
N1333 N 0.72813 0.68821 0.15989 0.0
H1334 H 0.2851 0.64924 0.60963 0.0
H1335 H 0.35323 0.75762 0.6751 0.0
H1336 H 0.26527 0.66852 0.67405 0.0
H1337 H 0.37116 0.73773 0.6104 0.0
H1338 H 0.32235 0.72439 0.67583 0.0
H1339 H 0.3174 0.6807 0.61038 0.0
C1340 C 0.28739 0.66007 0.62397 0.0
C1341 C 0.27199 0.65605 0.64175 0.0
C1342 C 0.33309 0.72726 0.66149 0.0
C1343 C 0.30972 0.69251 0.64276 0.0
C1344 C 0.35094 0.74621 0.66109 0.0
C1345 C 0.36503 0.75086 0.64261 0.0
C1346 C 0.32914 0.71255 0.64333 0.0
C1347 C 0.36067 0.7354 0.62494 0.0
C1348 C 0.30606 0.67808 0.62441 0.0
C1349 C 0.27661 0.67059 0.65997 0.0
N1350 N 0.34325 0.71715 0.62574 0.0
N1351 N 0.29485 0.68814 0.65995 0.0
H1352 H 0.35297 0.75999 0.33829 0.0
H1353 H 0.28289 0.652 0.40288 0.0
H1354 H 0.36944 0.74006 0.40324 0.0
H1355 H 0.26296 0.67286 0.33886 0.0
H1356 H 0.31556 0.68306 0.40243 0.0
H1357 H 0.32156 0.72725 0.33729 0.0
C1358 C 0.35025 0.74867 0.35231 0.0
C1359 C 0.36409 0.75315 0.37093 0.0
C1360 C 0.30411 0.68088 0.38843 0.0
C1361 C 0.3276 0.7154 0.36989 0.0
C1362 C 0.2852 0.66311 0.38869 0.0
C1363 C 0.26965 0.65964 0.37094 0.0
C1364 C 0.30789 0.69562 0.37027 0.0
C1365 C 0.27438 0.6745 0.35292 0.0
C1366 C 0.33209 0.73001 0.35174 0.0
C1367 C 0.35917 0.73783 0.3886 0.0
N1368 N 0.29288 0.69179 0.35309 0.0
N1369 N 0.34149 0.71984 0.38763 0.0
H1370 H 0.35071 0.26267 0.83809 0.0
H1371 H 0.28459 0.37222 0.90372 0.0
H1372 H 0.37089 0.28389 0.90196 0.0
H1373 H 0.26361 0.35256 0.83968 0.0
H1374 H 0.31678 0.34062 0.9027 0.0
H1375 H 0.31994 0.29599 0.83763 0.0
C1376 C 0.34894 0.27438 0.85198 0.0
C1377 C 0.36364 0.27008 0.87014 0.0
C1378 C 0.30522 0.34319 0.88881 0.0
C1379 C 0.32784 0.30849 0.86975 0.0
C1380 C 0.28661 0.36127 0.8894 0.0
C1381 C 0.27094 0.36523 0.87181 0.0
C1382 C 0.3085 0.32861 0.87049 0.0
C1383 C 0.27518 0.35053 0.85362 0.0
C1384 C 0.33115 0.29339 0.85173 0.0
C1385 C 0.35991 0.28593 0.88768 0.0
N1386 N 0.29336 0.33291 0.85348 0.0
N1387 N 0.34251 0.30421 0.88703 0.0
H1388 H 0.65094 0.28332 0.40532 0.0
H1389 H 0.75768 0.35329 0.339 0.0
H1390 H 0.66877 0.26503 0.34026 0.0
H1391 H 0.73813 0.37077 0.40387 0.0
H1392 H 0.72474 0.3221 0.33845 0.0
H1393 H 0.68217 0.31586 0.40445 0.0
C1394 C 0.66142 0.28599 0.3908 0.0
C1395 C 0.65704 0.27096 0.37288 0.0
C1396 C 0.72762 0.33281 0.35279 0.0
C1397 C 0.69324 0.30898 0.37174 0.0
C1398 C 0.74641 0.35085 0.35309 0.0
C1399 C 0.75109 0.36492 0.37156 0.0
C1400 C 0.7131 0.32861 0.37106 0.0
C1401 C 0.7358 0.36031 0.38933 0.0
C1402 C 0.67928 0.30481 0.3903 0.0
C1403 C 0.67113 0.27607 0.35447 0.0
N1404 N 0.71773 0.3427 0.38863 0.0
N1405 N 0.68855 0.29444 0.35442 0.0
H1406 H 0.73046 0.64125 0.84755 0.0
H1407 H 0.68533 0.77311 0.89262 0.0
H1408 H 0.77173 0.68589 0.89194 0.0
H1409 H 0.6411 0.72993 0.84928 0.0
H1410 H 0.71706 0.74126 0.89169 0.0
H1411 H 0.69811 0.6732 0.84684 0.0
C1412 C 0.73288 0.65771 0.85709 0.0
C1413 C 0.75404 0.66048 0.86999 0.0
C1414 C 0.70044 0.73862 0.88236 0.0
C1415 C 0.71668 0.69738 0.86929 0.0
C1416 C 0.68205 0.75685 0.883 0.0
C1417 C 0.66001 0.75436 0.87125 0.0
C1418 C 0.6972 0.71736 0.86981 0.0
C1419 C 0.65764 0.73293 0.8586 0.0
C1420 C 0.71425 0.67596 0.85675 0.0
C1421 C 0.75572 0.68237 0.88208 0.0
N1422 N 0.67585 0.71532 0.8583 0.0
N1423 N 0.73746 0.69975 0.88142 0.0
loop_
_geom_bond_atom_site_label_1
_geom_bond_atom_site_label_2
_geom_bond_distance
_geom_bond_site_symmetry_2
_ccdc_geom_bond_type
C0 C1 1.443 . S
C0 N4 1.376 . S
C0 C38 1.389 . S
C1 C0 1.443 . S
C1 C2 1.340 . S
C1 H41 0.951 . S
C2 C1 1.340 . S
C2 C3 1.439 . S
C2 H42 0.950 . S
C3 C2 1.439 . S
C3 N4 1.374 . S
C3 C37 1.395 . S
N4 C0 1.376 . S
N4 C3 1.374 . S
N4 Co5 2.008 . S
Co5 N4 2.008 . S
Co5 N6 1.995 . S
Co5 N11 2.008 . S
Co5 N16 1.995 . S
Co5 N21 2.282 . S
Co5 N27 2.282 . S
N6 Co5 1.995 . S
N6 C7 1.376 . S
N6 C10 1.383 . S
C7 N6 1.376 . S
C7 C8 1.446 . S
C7 C37 1.391 . S
C8 C7 1.446 . S
C8 C9 1.339 . S
C8 H43 0.949 . S
C9 C8 1.339 . S
C9 C10 1.439 . S
C9 H44 0.950 . S
C10 N6 1.383 . S
C10 C9 1.439 . S
C10 C39 1.392 . S
N11 Co5 2.008 . S
N11 C12 1.376 . S
N11 C15 1.374 . S
C12 N11 1.376 . S
C12 C13 1.443 . S
C12 C39 1.389 . S
C13 C12 1.443 . S
C13 C14 1.340 . S
C13 H45 0.951 . S
C14 C13 1.340 . S
C14 C15 1.439 . S
C14 H46 0.950 . S
C15 N11 1.374 . S
C15 C14 1.439 . S
C15 C40 1.395 . S
N16 Co5 1.995 . S
N16 C17 1.376 . S
N16 C20 1.383 . S
C17 N16 1.376 . S
C17 C18 1.446 . S
C17 C40 1.391 . S
C18 C17 1.446 . S
C18 C19 1.339 . S
C18 H47 0.949 . S
C19 C18 1.339 . S
C19 C20 1.439 . S
C19 H48 0.950 . S
C20 N16 1.383 . S
C20 C19 1.439 . S
C20 C38 1.392 . S
N21 Co5 2.282 . S
N21 C24 1.332 . S
N21 C26 1.332 . S
C22 C23 1.386 . S
C22 C25 1.388 . S
C23 C22 1.386 . S
C23 C24 1.382 . S
C23 H49 0.950 . S
C24 N21 1.332 . S
C24 C23 1.382 . S
C24 H35 0.952 . S
C25 C22 1.388 . S
C25 C26 1.382 . S
C25 H50 0.950 . S
C26 N21 1.332 . S
C26 C25 1.382 . S
C26 H36 0.948 . S
N27 Co5 2.282 . S
N27 C31 1.332 . S
N27 C32 1.332 . S
C28 C29 1.388 . S
C28 C32 1.382 . S
C28 H51 0.950 . S
C29 C28 1.388 . S
C29 C30 1.386 . S
C30 C29 1.386 . S
C30 C31 1.382 . S
C30 H52 0.950 . S
C31 N27 1.332 . S
C31 C30 1.382 . S
C31 H33 0.952 . S
C32 N27 1.332 . S
C32 C28 1.382 . S
C32 H34 0.948 . S
H33 C31 0.952 . S
H34 C32 0.948 . S
H35 C24 0.952 . S
H36 C26 0.948 . S
C37 C3 1.395 . S
C37 C7 1.391 . S
C38 C0 1.389 . S
C38 C20 1.392 . S
C39 C10 1.392 . S
C39 C12 1.389 . S
C40 C15 1.395 . S
C40 C17 1.391 . S
H41 C1 0.951 . S
H42 C2 0.950 . S
H43 C8 0.949 . S
H44 C9 0.950 . S
H45 C13 0.951 . S
H46 C14 0.950 . S
H47 C18 0.949 . S
H48 C19 0.950 . S
H49 C23 0.950 . S
H50 C25 0.950 . S
H51 C28 0.950 . S
H52 C30 0.950 . S
C53 C54 1.443 . S
C53 N57 1.376 . S
C53 C91 1.389 . S
C54 C53 1.443 . S
C54 C55 1.340 . S
C54 H94 0.951 . S
C55 C54 1.340 . S
C55 C56 1.439 . S
C55 H95 0.950 . S
C56 C55 1.439 . S
C56 N57 1.374 . S
C56 C90 1.395 . S
N57 C53 1.376 . S
N57 C56 1.374 . S
N57 Co58 2.008 . S
Co58 N57 2.008 . S
Co58 N59 1.995 . S
Co58 N64 2.008 . S
Co58 N69 1.995 . S
Co58 N74 2.282 . S
Co58 N80 2.282 . S
N59 Co58 1.995 . S
N59 C60 1.376 . S
N59 C63 1.383 . S
C60 N59 1.376 . S
C60 C61 1.446 . S
C60 C90 1.391 . S
C61 C60 1.446 . S
C61 C62 1.339 . S
C61 H96 0.949 . S
C62 C61 1.339 . S
C62 C63 1.439 . S
C62 H97 0.950 . S
C63 N59 1.383 . S
C63 C62 1.439 . S
C63 C92 1.392 . S
N64 Co58 2.008 . S
N64 C65 1.376 . S
N64 C68 1.374 . S
C65 N64 1.376 . S
C65 C66 1.443 . S
C65 C92 1.389 . S
C66 C65 1.443 . S
C66 C67 1.340 . S
C66 H98 0.951 . S
C67 C66 1.340 . S
C67 C68 1.439 . S
C67 H99 0.950 . S
C68 N64 1.374 . S
C68 C67 1.439 . S
C68 C93 1.395 . S
N69 Co58 1.995 . S
N69 C70 1.376 . S
N69 C73 1.383 . S
C70 N69 1.376 . S
C70 C71 1.446 . S
C70 C93 1.391 . S
C71 C70 1.446 . S
C71 C72 1.339 . S
C71 H100 0.949 . S
C72 C71 1.339 . S
C72 C73 1.439 . S
C72 H101 0.950 . S
C73 N69 1.383 . S
C73 C72 1.439 . S
C73 C91 1.392 . S
N74 Co58 2.282 . S
N74 C77 1.332 . S
N74 C79 1.332 . S
C75 C76 1.386 . S
C75 C78 1.388 . S
C76 C75 1.386 . S
C76 C77 1.382 . S
C76 H102 0.950 . S
C77 N74 1.332 . S
C77 C76 1.382 . S
C77 H88 0.952 . S
C78 C75 1.388 . S
C78 C79 1.382 . S
C78 H103 0.950 . S
C79 N74 1.332 . S
C79 C78 1.382 . S
C79 H89 0.948 . S
N80 Co58 2.282 . S
N80 C84 1.332 . S
N80 C85 1.332 . S
C81 C82 1.388 . S
C81 C85 1.382 . S
C81 H104 0.950 . S
C82 C81 1.388 . S
C82 C83 1.386 . S
C83 C82 1.386 . S
C83 C84 1.382 . S
C83 H105 0.950 . S
C84 N80 1.332 . S
C84 C83 1.382 . S
C84 H86 0.952 . S
C85 N80 1.332 . S
C85 C81 1.382 . S
C85 H87 0.948 . S
H86 C84 0.952 . S
H87 C85 0.948 . S
H88 C77 0.952 . S
H89 C79 0.948 . S
C90 C56 1.395 . S
C90 C60 1.391 . S
C91 C53 1.389 . S
C91 C73 1.392 . S
C92 C63 1.392 . S
C92 C65 1.389 . S
C93 C68 1.395 . S
C93 C70 1.391 . S
H94 C54 0.951 . S
H95 C55 0.950 . S
H96 C61 0.949 . S
H97 C62 0.950 . S
H98 C66 0.951 . S
H99 C67 0.950 . S
H100 C71 0.949 . S
H101 C72 0.950 . S
H102 C76 0.950 . S
H103 C78 0.950 . S
H104 C81 0.950 . S
H105 C83 0.950 . S
C106 C107 1.443 . S
C106 N110 1.376 . S
C106 C144 1.389 . S
C107 C106 1.443 . S
C107 C108 1.340 . S
C107 H147 0.951 . S
C108 C107 1.340 . S
C108 C109 1.439 . S
C108 H148 0.950 . S
C109 C108 1.439 . S
C109 N110 1.374 . S
C109 C143 1.395 . S
N110 C106 1.376 . S
N110 C109 1.374 . S
N110 Co111 2.008 . S
Co111 N110 2.008 . S
Co111 N112 1.995 . S
Co111 N117 2.008 . S
Co111 N122 1.995 . S
Co111 N127 2.282 . S
Co111 N133 2.282 . S
N112 Co111 1.995 . S
N112 C113 1.376 . S
N112 C116 1.383 . S
C113 N112 1.376 . S
C113 C114 1.446 . S
C113 C143 1.391 . S
C114 C113 1.446 . S
C114 C115 1.339 . S
C114 H149 0.949 . S
C115 C114 1.339 . S
C115 C116 1.439 . S
C115 H150 0.950 . S
C116 N112 1.383 . S
C116 C115 1.439 . S
C116 C145 1.392 . S
N117 Co111 2.008 . S
N117 C118 1.376 . S
N117 C121 1.374 . S
C118 N117 1.376 . S
C118 C119 1.443 . S
C118 C145 1.389 . S
C119 C118 1.443 . S
C119 C120 1.340 . S
C119 H151 0.951 . S
C120 C119 1.340 . S
C120 C121 1.439 . S
C120 H152 0.950 . S
C121 N117 1.374 . S
C121 C120 1.439 . S
C121 C146 1.395 . S
N122 Co111 1.995 . S
N122 C123 1.376 . S
N122 C126 1.383 . S
C123 N122 1.376 . S
C123 C124 1.446 . S
C123 C146 1.391 . S
C124 C123 1.446 . S
C124 C125 1.339 . S
C124 H153 0.949 . S
C125 C124 1.339 . S
C125 C126 1.439 . S
C125 H154 0.950 . S
C126 N122 1.383 . S
C126 C125 1.439 . S
C126 C144 1.392 . S
N127 Co111 2.282 . S
N127 C130 1.332 . S
N127 C132 1.332 . S
C128 C129 1.386 . S
C128 C131 1.388 . S
C129 C128 1.386 . S
C129 C130 1.382 . S
C129 H155 0.950 . S
C130 N127 1.332 . S
C130 C129 1.382 . S
C130 H141 0.952 . S
C131 C128 1.388 . S
C131 C132 1.382 . S
C131 H156 0.950 . S
C132 N127 1.332 . S
C132 C131 1.382 . S
C132 H142 0.948 . S
N133 Co111 2.282 . S
N133 C137 1.332 . S
N133 C138 1.332 . S
C134 C135 1.388 . S
C134 C138 1.382 . S
C134 H157 0.950 . S
C135 C134 1.388 . S
C135 C136 1.386 . S
C136 C135 1.386 . S
C136 C137 1.382 . S
C136 H158 0.950 . S
C137 N133 1.332 . S
C137 C136 1.382 . S
C137 H139 0.952 . S
C138 N133 1.332 . S
C138 C134 1.382 . S
C138 H140 0.948 . S
H139 C137 0.952 . S
H140 C138 0.948 . S
H141 C130 0.952 . S
H142 C132 0.948 . S
C143 C109 1.395 . S
C143 C113 1.391 . S
C144 C106 1.389 . S
C144 C126 1.392 . S
C145 C116 1.392 . S
C145 C118 1.389 . S
C146 C121 1.395 . S
C146 C123 1.391 . S
H147 C107 0.951 . S
H148 C108 0.950 . S
H149 C114 0.949 . S
H150 C115 0.950 . S
H151 C119 0.951 . S
H152 C120 0.950 . S
H153 C124 0.949 . S
H154 C125 0.950 . S
H155 C129 0.950 . S
H156 C131 0.950 . S
H157 C134 0.950 . S
H158 C136 0.950 . S
C159 C160 1.443 . S
C159 N163 1.376 . S
C159 C197 1.389 . S
C160 C159 1.443 . S
C160 C161 1.340 . S
C160 H200 0.951 . S
C161 C160 1.340 . S
C161 C162 1.439 . S
C161 H201 0.950 . S
C162 C161 1.439 . S
C162 N163 1.374 . S
C162 C196 1.395 . S
N163 C159 1.376 . S
N163 C162 1.374 . S
N163 Co164 2.008 . S
Co164 N163 2.008 . S
Co164 N165 1.995 . S
Co164 N170 2.008 . S
Co164 N175 1.995 . S
Co164 N180 2.282 . S
Co164 N186 2.282 . S
N165 Co164 1.995 . S
N165 C166 1.376 . S
N165 C169 1.383 . S
C166 N165 1.376 . S
C166 C167 1.446 . S
C166 C196 1.391 . S
C167 C166 1.446 . S
C167 C168 1.339 . S
C167 H202 0.949 . S
C168 C167 1.339 . S
C168 C169 1.439 . S
C168 H203 0.950 . S
C169 N165 1.383 . S
C169 C168 1.439 . S
C169 C198 1.392 . S
N170 Co164 2.008 . S
N170 C171 1.376 . S
N170 C174 1.374 . S
C171 N170 1.376 . S
C171 C172 1.443 . S
C171 C198 1.389 . S
C172 C171 1.443 . S
C172 C173 1.340 . S
C172 H204 0.951 . S
C173 C172 1.340 . S
C173 C174 1.439 . S
C173 H205 0.950 . S
C174 N170 1.374 . S
C174 C173 1.439 . S
C174 C199 1.395 . S
N175 Co164 1.995 . S
N175 C176 1.376 . S
N175 C179 1.383 . S
C176 N175 1.376 . S
C176 C177 1.446 . S
C176 C199 1.391 . S
C177 C176 1.446 . S
C177 C178 1.339 . S
C177 H206 0.949 . S
C178 C177 1.339 . S
C178 C179 1.439 . S
C178 H207 0.950 . S
C179 N175 1.383 . S
C179 C178 1.439 . S
C179 C197 1.392 . S
N180 Co164 2.282 . S
N180 C183 1.332 . S
N180 C185 1.332 . S
C181 C182 1.386 . S
C181 C184 1.388 . S
C182 C181 1.386 . S
C182 C183 1.382 . S
C182 H208 0.950 . S
C183 N180 1.332 . S
C183 C182 1.382 . S
C183 H194 0.952 . S
C184 C181 1.388 . S
C184 C185 1.382 . S
C184 H209 0.950 . S
C185 N180 1.332 . S
C185 C184 1.382 . S
C185 H195 0.948 . S
N186 Co164 2.282 . S
N186 C190 1.332 . S
N186 C191 1.332 . S
C187 C188 1.388 . S
C187 C191 1.382 . S
C187 H210 0.950 . S
C188 C187 1.388 . S
C188 C189 1.386 . S
C189 C188 1.386 . S
C189 C190 1.382 . S
C189 H211 0.950 . S
C190 N186 1.332 . S
C190 C189 1.382 . S
C190 H192 0.952 . S
C191 N186 1.332 . S
C191 C187 1.382 . S
C191 H193 0.948 . S
H192 C190 0.952 . S
H193 C191 0.948 . S
H194 C183 0.952 . S
H195 C185 0.948 . S
C196 C162 1.395 . S
C196 C166 1.391 . S
C197 C159 1.389 . S
C197 C179 1.392 . S
C198 C169 1.392 . S
C198 C171 1.389 . S
C199 C174 1.395 . S
C199 C176 1.391 . S
H200 C160 0.951 . S
H201 C161 0.950 . S
H202 C167 0.949 . S
H203 C168 0.950 . S
H204 C172 0.951 . S
H205 C173 0.950 . S
H206 C177 0.949 . S
H207 C178 0.950 . S
H208 C182 0.950 . S
H209 C184 0.950 . S
H210 C187 0.950 . S
H211 C189 0.950 . S
C212 C213 1.443 . S
C212 N216 1.376 . S
C212 C250 1.389 . S
C213 C212 1.443 . S
C213 C214 1.340 . S
C213 H253 0.951 . S
C214 C213 1.340 . S
C214 C215 1.439 . S
C214 H254 0.950 . S
C215 C214 1.439 . S
C215 N216 1.374 . S
C215 C249 1.395 . S
N216 C212 1.376 . S
N216 C215 1.374 . S
N216 Co217 2.008 . S
Co217 N216 2.008 . S
Co217 N218 1.995 . S
Co217 N223 2.008 . S
Co217 N228 1.995 . S
Co217 N233 2.282 . S
Co217 N239 2.282 . S
N218 Co217 1.995 . S
N218 C219 1.376 . S
N218 C222 1.383 . S
C219 N218 1.376 . S
C219 C220 1.446 . S
C219 C249 1.391 . S
C220 C219 1.446 . S
C220 C221 1.339 . S
C220 H255 0.949 . S
C221 C220 1.339 . S
C221 C222 1.439 . S
C221 H256 0.950 . S
C222 N218 1.383 . S
C222 C221 1.439 . S
C222 C251 1.392 . S
N223 Co217 2.008 . S
N223 C224 1.376 . S
N223 C227 1.374 . S
C224 N223 1.376 . S
C224 C225 1.443 . S
C224 C251 1.389 . S
C225 C224 1.443 . S
C225 C226 1.340 . S
C225 H257 0.951 . S
C226 C225 1.340 . S
C226 C227 1.439 . S
C226 H258 0.950 . S
C227 N223 1.374 . S
C227 C226 1.439 . S
C227 C252 1.395 . S
N228 Co217 1.995 . S
N228 C229 1.376 . S
N228 C232 1.383 . S
C229 N228 1.376 . S
C229 C230 1.446 . S
C229 C252 1.391 . S
C230 C229 1.446 . S
C230 C231 1.339 . S
C230 H259 0.949 . S
C231 C230 1.339 . S
C231 C232 1.439 . S
C231 H260 0.950 . S
C232 N228 1.383 . S
C232 C231 1.439 . S
C232 C250 1.392 . S
N233 Co217 2.282 . S
N233 C236 1.332 . S
N233 C238 1.332 . S
C234 C235 1.386 . S
C234 C237 1.388 . S
C235 C234 1.386 . S
C235 C236 1.382 . S
C235 H261 0.950 . S
C236 N233 1.332 . S
C236 C235 1.382 . S
C236 H247 0.952 . S
C237 C234 1.388 . S
C237 C238 1.382 . S
C237 H262 0.950 . S
C238 N233 1.332 . S
C238 C237 1.382 . S
C238 H248 0.948 . S
N239 Co217 2.282 . S
N239 C243 1.332 . S
N239 C244 1.332 . S
C240 C241 1.388 . S
C240 C244 1.382 . S
C240 H263 0.950 . S
C241 C240 1.388 . S
C241 C242 1.386 . S
C242 C241 1.386 . S
C242 C243 1.382 . S
C242 H264 0.950 . S
C243 N239 1.332 . S
C243 C242 1.382 . S
C243 H245 0.952 . S
C244 N239 1.332 . S
C244 C240 1.382 . S
C244 H246 0.948 . S
H245 C243 0.952 . S
H246 C244 0.948 . S
H247 C236 0.952 . S
H248 C238 0.948 . S
C249 C215 1.395 . S
C249 C219 1.391 . S
C250 C212 1.389 . S
C250 C232 1.392 . S
C251 C222 1.392 . S
C251 C224 1.389 . S
C252 C227 1.395 . S
C252 C229 1.391 . S
H253 C213 0.951 . S
H254 C214 0.950 . S
H255 C220 0.949 . S
H256 C221 0.950 . S
H257 C225 0.951 . S
H258 C226 0.950 . S
H259 C230 0.949 . S
H260 C231 0.950 . S
H261 C235 0.950 . S
H262 C237 0.950 . S
H263 C240 0.950 . S
H264 C242 0.950 . S
C265 C266 1.443 . S
C265 N269 1.376 . S
C265 C303 1.389 . S
C266 C265 1.443 . S
C266 C267 1.340 . S
C266 H306 0.951 . S
C267 C266 1.340 . S
C267 C268 1.439 . S
C267 H307 0.950 . S
C268 C267 1.439 . S
C268 N269 1.374 . S
C268 C302 1.395 . S
N269 C265 1.376 . S
N269 C268 1.374 . S
N269 Co270 2.008 . S
Co270 N269 2.008 . S
Co270 N271 1.995 . S
Co270 N276 2.008 . S
Co270 N281 1.995 . S
Co270 N286 2.282 . S
Co270 N292 2.282 . S
N271 Co270 1.995 . S
N271 C272 1.376 . S
N271 C275 1.383 . S
C272 N271 1.376 . S
C272 C273 1.446 . S
C272 C302 1.391 . S
C273 C272 1.446 . S
C273 C274 1.339 . S
C273 H308 0.949 . S
C274 C273 1.339 . S
C274 C275 1.439 . S
C274 H309 0.950 . S
C275 N271 1.383 . S
C275 C274 1.439 . S
C275 C304 1.392 . S
N276 Co270 2.008 . S
N276 C277 1.376 . S
N276 C280 1.374 . S
C277 N276 1.376 . S
C277 C278 1.443 . S
C277 C304 1.389 . S
C278 C277 1.443 . S
C278 C279 1.340 . S
C278 H310 0.951 . S
C279 C278 1.340 . S
C279 C280 1.439 . S
C279 H311 0.950 . S
C280 N276 1.374 . S
C280 C279 1.439 . S
C280 C305 1.395 . S
N281 Co270 1.995 . S
N281 C282 1.376 . S
N281 C285 1.383 . S
C282 N281 1.376 . S
C282 C283 1.446 . S
C282 C305 1.391 . S
C283 C282 1.446 . S
C283 C284 1.339 . S
C283 H312 0.949 . S
C284 C283 1.339 . S
C284 C285 1.439 . S
C284 H313 0.950 . S
C285 N281 1.383 . S
C285 C284 1.439 . S
C285 C303 1.392 . S
N286 Co270 2.282 . S
N286 C289 1.332 . S
N286 C291 1.332 . S
C287 C288 1.386 . S
C287 C290 1.388 . S
C288 C287 1.386 . S
C288 C289 1.382 . S
C288 H314 0.950 . S
C289 N286 1.332 . S
C289 C288 1.382 . S
C289 H300 0.952 . S
C290 C287 1.388 . S
C290 C291 1.382 . S
C290 H315 0.950 . S
C291 N286 1.332 . S
C291 C290 1.382 . S
C291 H301 0.948 . S
N292 Co270 2.282 . S
N292 C296 1.332 . S
N292 C297 1.332 . S
C293 C294 1.388 . S
C293 C297 1.382 . S
C293 H316 0.950 . S
C294 C293 1.388 . S
C294 C295 1.386 . S
C295 C294 1.386 . S
C295 C296 1.382 . S
C295 H317 0.950 . S
C296 N292 1.332 . S
C296 C295 1.382 . S
C296 H298 0.952 . S
C297 N292 1.332 . S
C297 C293 1.382 . S
C297 H299 0.948 . S
H298 C296 0.952 . S
H299 C297 0.948 . S
H300 C289 0.952 . S
H301 C291 0.948 . S
C302 C268 1.395 . S
C302 C272 1.391 . S
C303 C265 1.389 . S
C303 C285 1.392 . S
C304 C275 1.392 . S
C304 C277 1.389 . S
C305 C280 1.395 . S
C305 C282 1.391 . S
H306 C266 0.951 . S
H307 C267 0.950 . S
H308 C273 0.949 . S
H309 C274 0.950 . S
H310 C278 0.951 . S
H311 C279 0.950 . S
H312 C283 0.949 . S
H313 C284 0.950 . S
H314 C288 0.950 . S
H315 C290 0.950 . S
H316 C293 0.950 . S
H317 C295 0.950 . S
C318 C319 1.443 . S
C318 N322 1.376 . S
C318 C356 1.389 . S
C319 C318 1.443 . S
C319 C320 1.340 . S
C319 H359 0.951 . S
C320 C319 1.340 . S
C320 C321 1.439 . S
C320 H360 0.950 . S
C321 C320 1.439 . S
C321 N322 1.374 . S
C321 C355 1.395 . S
N322 C318 1.376 . S
N322 C321 1.374 . S
N322 Co323 2.008 . S
Co323 N322 2.008 . S
Co323 N324 1.995 . S
Co323 N329 2.008 . S
Co323 N334 1.995 . S
Co323 N339 2.282 . S
Co323 N345 2.282 . S
N324 Co323 1.995 . S
N324 C325 1.376 . S
N324 C328 1.383 . S
C325 N324 1.376 . S
C325 C326 1.446 . S
C325 C355 1.391 . S
C326 C325 1.446 . S
C326 C327 1.339 . S
C326 H361 0.949 . S
C327 C326 1.339 . S
C327 C328 1.439 . S
C327 H362 0.950 . S
C328 N324 1.383 . S
C328 C327 1.439 . S
C328 C357 1.392 . S
N329 Co323 2.008 . S
N329 C330 1.376 . S
N329 C333 1.374 . S
C330 N329 1.376 . S
C330 C331 1.443 . S
C330 C357 1.389 . S
C331 C330 1.443 . S
C331 C332 1.340 . S
C331 H363 0.951 . S
C332 C331 1.340 . S
C332 C333 1.439 . S
C332 H364 0.950 . S
C333 N329 1.374 . S
C333 C332 1.439 . S
C333 C358 1.395 . S
N334 Co323 1.995 . S
N334 C335 1.376 . S
N334 C338 1.383 . S
C335 N334 1.376 . S
C335 C336 1.446 . S
C335 C358 1.391 . S
C336 C335 1.446 . S
C336 C337 1.339 . S
C336 H365 0.949 . S
C337 C336 1.339 . S
C337 C338 1.439 . S
C337 H366 0.950 . S
C338 N334 1.383 . S
C338 C337 1.439 . S
C338 C356 1.392 . S
N339 Co323 2.282 . S
N339 C342 1.332 . S
N339 C344 1.332 . S
C340 C341 1.386 . S
C340 C343 1.388 . S
C341 C340 1.386 . S
C341 C342 1.382 . S
C341 H367 0.950 . S
C342 N339 1.332 . S
C342 C341 1.382 . S
C342 H353 0.952 . S
C343 C340 1.388 . S
C343 C344 1.382 . S
C343 H368 0.950 . S
C344 N339 1.332 . S
C344 C343 1.382 . S
C344 H354 0.948 . S
N345 Co323 2.282 . S
N345 C349 1.332 . S
N345 C350 1.332 . S
C346 C347 1.388 . S
C346 C350 1.382 . S
C346 H369 0.950 . S
C347 C346 1.388 . S
C347 C348 1.386 . S
C348 C347 1.386 . S
C348 C349 1.382 . S
C348 H370 0.950 . S
C349 N345 1.332 . S
C349 C348 1.382 . S
C349 H351 0.952 . S
C350 N345 1.332 . S
C350 C346 1.382 . S
C350 H352 0.948 . S
H351 C349 0.952 . S
H352 C350 0.948 . S
H353 C342 0.952 . S
H354 C344 0.948 . S
C355 C321 1.395 . S
C355 C325 1.391 . S
C356 C318 1.389 . S
C356 C338 1.392 . S
C357 C328 1.392 . S
C357 C330 1.389 . S
C358 C333 1.395 . S
C358 C335 1.391 . S
H359 C319 0.951 . S
H360 C320 0.950 . S
H361 C326 0.949 . S
H362 C327 0.950 . S
H363 C331 0.951 . S
H364 C332 0.950 . S
H365 C336 0.949 . S
H366 C337 0.950 . S
H367 C341 0.950 . S
H368 C343 0.950 . S
H369 C346 0.950 . S
H370 C348 0.950 . S
C371 C372 1.443 . S
C371 N375 1.376 . S
C371 C409 1.389 . S
C372 C371 1.443 . S
C372 C373 1.340 . S
C372 H412 0.951 . S
C373 C372 1.340 . S
C373 C374 1.439 . S
C373 H413 0.950 . S
C374 C373 1.439 . S
C374 N375 1.374 . S
C374 C408 1.395 . S
N375 C371 1.376 . S
N375 C374 1.374 . S
N375 Co376 2.008 . S
Co376 N375 2.008 . S
Co376 N377 1.995 . S
Co376 N382 2.008 . S
Co376 N387 1.995 . S
Co376 N392 2.282 . S
Co376 N398 2.282 . S
N377 Co376 1.995 . S
N377 C378 1.376 . S
N377 C381 1.383 . S
C378 N377 1.376 . S
C378 C379 1.446 . S
C378 C408 1.391 . S
C379 C378 1.446 . S
C379 C380 1.339 . S
C379 H414 0.949 . S
C380 C379 1.339 . S
C380 C381 1.439 . S
C380 H415 0.950 . S
C381 N377 1.383 . S
C381 C380 1.439 . S
C381 C410 1.392 . S
N382 Co376 2.008 . S
N382 C383 1.376 . S
N382 C386 1.374 . S
C383 N382 1.376 . S
C383 C384 1.443 . S
C383 C410 1.389 . S
C384 C383 1.443 . S
C384 C385 1.340 . S
C384 H416 0.951 . S
C385 C384 1.340 . S
C385 C386 1.439 . S
C385 H417 0.950 . S
C386 N382 1.374 . S
C386 C385 1.439 . S
C386 C411 1.395 . S
N387 Co376 1.995 . S
N387 C388 1.376 . S
N387 C391 1.383 . S
C388 N387 1.376 . S
C388 C389 1.446 . S
C388 C411 1.391 . S
C389 C388 1.446 . S
C389 C390 1.339 . S
C389 H418 0.949 . S
C390 C389 1.339 . S
C390 C391 1.439 . S
C390 H419 0.950 . S
C391 N387 1.383 . S
C391 C390 1.439 . S
C391 C409 1.392 . S
N392 Co376 2.282 . S
N392 C395 1.332 . S
N392 C397 1.332 . S
C393 C394 1.386 . S
C393 C396 1.388 . S
C394 C393 1.386 . S
C394 C395 1.382 . S
C394 H420 0.950 . S
C395 N392 1.332 . S
C395 C394 1.382 . S
C395 H406 0.952 . S
C396 C393 1.388 . S
C396 C397 1.382 . S
C396 H421 0.950 . S
C397 N392 1.332 . S
C397 C396 1.382 . S
C397 H407 0.948 . S
N398 Co376 2.282 . S
N398 C402 1.332 . S
N398 C403 1.332 . S
C399 C400 1.388 . S
C399 C403 1.382 . S
C399 H422 0.950 . S
C400 C399 1.388 . S
C400 C401 1.386 . S
C401 C400 1.386 . S
C401 C402 1.382 . S
C401 H423 0.950 . S
C402 N398 1.332 . S
C402 C401 1.382 . S
C402 H404 0.952 . S
C403 N398 1.332 . S
C403 C399 1.382 . S
C403 H405 0.948 . S
H404 C402 0.952 . S
H405 C403 0.948 . S
H406 C395 0.952 . S
H407 C397 0.948 . S
C408 C374 1.395 . S
C408 C378 1.391 . S
C409 C371 1.389 . S
C409 C391 1.392 . S
C410 C381 1.392 . S
C410 C383 1.389 . S
C411 C386 1.395 . S
C411 C388 1.391 . S
H412 C372 0.951 . S
H413 C373 0.950 . S
H414 C379 0.949 . S
H415 C380 0.950 . S
H416 C384 0.951 . S
H417 C385 0.950 . S
H418 C389 0.949 . S
H419 C390 0.950 . S
H420 C394 0.950 . S
H421 C396 0.950 . S
H422 C399 0.950 . S
H423 C401 0.950 . S
C424 C425 1.443 . S
C424 N428 1.376 . S
C424 C462 1.389 . S
C425 C424 1.443 . S
C425 C426 1.340 . S
C425 H465 0.951 . S
C426 C425 1.340 . S
C426 C427 1.439 . S
C426 H466 0.950 . S
C427 C426 1.439 . S
C427 N428 1.374 . S
C427 C461 1.395 . S
N428 C424 1.376 . S
N428 C427 1.374 . S
N428 Co429 2.008 . S
Co429 N428 2.008 . S
Co429 N430 1.995 . S
Co429 N435 2.008 . S
Co429 N440 1.995 . S
Co429 N445 2.282 . S
Co429 N451 2.282 . S
N430 Co429 1.995 . S
N430 C431 1.376 . S
N430 C434 1.383 . S
C431 N430 1.376 . S
C431 C432 1.446 . S
C431 C461 1.391 . S
C432 C431 1.446 . S
C432 C433 1.339 . S
C432 H467 0.949 . S
C433 C432 1.339 . S
C433 C434 1.439 . S
C433 H468 0.950 . S
C434 N430 1.383 . S
C434 C433 1.439 . S
C434 C463 1.392 . S
N435 Co429 2.008 . S
N435 C436 1.376 . S
N435 C439 1.374 . S
C436 N435 1.376 . S
C436 C437 1.443 . S
C436 C463 1.389 . S
C437 C436 1.443 . S
C437 C438 1.340 . S
C437 H469 0.951 . S
C438 C437 1.340 . S
C438 C439 1.439 . S
C438 H470 0.950 . S
C439 N435 1.374 . S
C439 C438 1.439 . S
C439 C464 1.395 . S
N440 Co429 1.995 . S
N440 C441 1.376 . S
N440 C444 1.383 . S
C441 N440 1.376 . S
C441 C442 1.446 . S
C441 C464 1.391 . S
C442 C441 1.446 . S
C442 C443 1.339 . S
C442 H471 0.949 . S
C443 C442 1.339 . S
C443 C444 1.439 . S
C443 H472 0.950 . S
C444 N440 1.383 . S
C444 C443 1.439 . S
C444 C462 1.392 . S
N445 Co429 2.282 . S
N445 C448 1.332 . S
N445 C450 1.332 . S
C446 C447 1.386 . S
C446 C449 1.388 . S
C447 C446 1.386 . S
C447 C448 1.382 . S
C447 H473 0.950 . S
C448 N445 1.332 . S
C448 C447 1.382 . S
C448 H459 0.952 . S
C449 C446 1.388 . S
C449 C450 1.382 . S
C449 H474 0.950 . S
C450 N445 1.332 . S
C450 C449 1.382 . S
C450 H460 0.948 . S
N451 Co429 2.282 . S
N451 C455 1.332 . S
N451 C456 1.332 . S
C452 C453 1.388 . S
C452 C456 1.382 . S
C452 H475 0.950 . S
C453 C452 1.388 . S
C453 C454 1.386 . S
C454 C453 1.386 . S
C454 C455 1.382 . S
C454 H476 0.950 . S
C455 N451 1.332 . S
C455 C454 1.382 . S
C455 H457 0.952 . S
C456 N451 1.332 . S
C456 C452 1.382 . S
C456 H458 0.948 . S
H457 C455 0.952 . S
H458 C456 0.948 . S
H459 C448 0.952 . S
H460 C450 0.948 . S
C461 C427 1.395 . S
C461 C431 1.391 . S
C462 C424 1.389 . S
C462 C444 1.392 . S
C463 C434 1.392 . S
C463 C436 1.389 . S
C464 C439 1.395 . S
C464 C441 1.391 . S
H465 C425 0.951 . S
H466 C426 0.950 . S
H467 C432 0.949 . S
H468 C433 0.950 . S
H469 C437 0.951 . S
H470 C438 0.950 . S
H471 C442 0.949 . S
H472 C443 0.950 . S
H473 C447 0.950 . S
H474 C449 0.950 . S
H475 C452 0.950 . S
H476 C454 0.950 . S
C477 C478 1.443 . S
C477 N481 1.376 . S
C477 C515 1.389 . S
C478 C477 1.443 . S
C478 C479 1.340 . S
C478 H518 0.951 . S
C479 C478 1.340 . S
C479 C480 1.439 . S
C479 H519 0.950 . S
C480 C479 1.439 . S
C480 N481 1.374 . S
C480 C514 1.395 . S
N481 C477 1.376 . S
N481 C480 1.374 . S
N481 Co482 2.008 . S
Co482 N481 2.008 . S
Co482 N483 1.995 . S
Co482 N488 2.008 . S
Co482 N493 1.995 . S
Co482 N498 2.282 . S
Co482 N504 2.282 . S
N483 Co482 1.995 . S
N483 C484 1.376 . S
N483 C487 1.383 . S
C484 N483 1.376 . S
C484 C485 1.446 . S
C484 C514 1.391 . S
C485 C484 1.446 . S
C485 C486 1.339 . S
C485 H520 0.949 . S
C486 C485 1.339 . S
C486 C487 1.439 . S
C486 H521 0.950 . S
C487 N483 1.383 . S
C487 C486 1.439 . S
C487 C516 1.392 . S
N488 Co482 2.008 . S
N488 C489 1.376 . S
N488 C492 1.374 . S
C489 N488 1.376 . S
C489 C490 1.443 . S
C489 C516 1.389 . S
C490 C489 1.443 . S
C490 C491 1.340 . S
C490 H522 0.951 . S
C491 C490 1.340 . S
C491 C492 1.439 . S
C491 H523 0.950 . S
C492 N488 1.374 . S
C492 C491 1.439 . S
C492 C517 1.395 . S
N493 Co482 1.995 . S
N493 C494 1.376 . S
N493 C497 1.383 . S
C494 N493 1.376 . S
C494 C495 1.446 . S
C494 C517 1.391 . S
C495 C494 1.446 . S
C495 C496 1.339 . S
C495 H524 0.949 . S
C496 C495 1.339 . S
C496 C497 1.439 . S
C496 H525 0.950 . S
C497 N493 1.383 . S
C497 C496 1.439 . S
C497 C515 1.392 . S
N498 Co482 2.282 . S
N498 C501 1.332 . S
N498 C503 1.332 . S
C499 C500 1.386 . S
C499 C502 1.388 . S
C500 C499 1.386 . S
C500 C501 1.382 . S
C500 H526 0.950 . S
C501 N498 1.332 . S
C501 C500 1.382 . S
C501 H512 0.952 . S
C502 C499 1.388 . S
C502 C503 1.382 . S
C502 H527 0.950 . S
C503 N498 1.332 . S
C503 C502 1.382 . S
C503 H513 0.948 . S
N504 Co482 2.282 . S
N504 C508 1.332 . S
N504 C509 1.332 . S
C505 C506 1.388 . S
C505 C509 1.382 . S
C505 H528 0.950 . S
C506 C505 1.388 . S
C506 C507 1.386 . S
C507 C506 1.386 . S
C507 C508 1.382 . S
C507 H529 0.950 . S
C508 N504 1.332 . S
C508 C507 1.382 . S
C508 H510 0.952 . S
C509 N504 1.332 . S
C509 C505 1.382 . S
C509 H511 0.948 . S
H510 C508 0.952 . S
H511 C509 0.948 . S
H512 C501 0.952 . S
H513 C503 0.948 . S
C514 C480 1.395 . S
C514 C484 1.391 . S
C515 C477 1.389 . S
C515 C497 1.392 . S
C516 C487 1.392 . S
C516 C489 1.389 . S
C517 C492 1.395 . S
C517 C494 1.391 . S
H518 C478 0.951 . S
H519 C479 0.950 . S
H520 C485 0.949 . S
H521 C486 0.950 . S
H522 C490 0.951 . S
H523 C491 0.950 . S
H524 C495 0.949 . S
H525 C496 0.950 . S
H526 C500 0.950 . S
H527 C502 0.950 . S
H528 C505 0.950 . S
H529 C507 0.950 . S
C530 C531 1.443 . S
C530 N534 1.376 . S
C530 C568 1.389 . S
C531 C530 1.443 . S
C531 C532 1.340 . S
C531 H571 0.951 . S
C532 C531 1.340 . S
C532 C533 1.439 . S
C532 H572 0.950 . S
C533 C532 1.439 . S
C533 N534 1.374 . S
C533 C567 1.395 . S
N534 C530 1.376 . S
N534 C533 1.374 . S
N534 Co535 2.008 . S
Co535 N534 2.008 . S
Co535 N536 1.995 . S
Co535 N541 2.008 . S
Co535 N546 1.995 . S
Co535 N551 2.282 . S
Co535 N557 2.282 . S
N536 Co535 1.995 . S
N536 C537 1.376 . S
N536 C540 1.383 . S
C537 N536 1.376 . S
C537 C538 1.446 . S
C537 C567 1.391 . S
C538 C537 1.446 . S
C538 C539 1.339 . S
C538 H573 0.949 . S
C539 C538 1.339 . S
C539 C540 1.439 . S
C539 H574 0.950 . S
C540 N536 1.383 . S
C540 C539 1.439 . S
C540 C569 1.392 . S
N541 Co535 2.008 . S
N541 C542 1.376 . S
N541 C545 1.374 . S
C542 N541 1.376 . S
C542 C543 1.443 . S
C542 C569 1.389 . S
C543 C542 1.443 . S
C543 C544 1.340 . S
C543 H575 0.951 . S
C544 C543 1.340 . S
C544 C545 1.439 . S
C544 H576 0.950 . S
C545 N541 1.374 . S
C545 C544 1.439 . S
C545 C570 1.395 . S
N546 Co535 1.995 . S
N546 C547 1.376 . S
N546 C550 1.383 . S
C547 N546 1.376 . S
C547 C548 1.446 . S
C547 C570 1.391 . S
C548 C547 1.446 . S
C548 C549 1.339 . S
C548 H577 0.949 . S
C549 C548 1.339 . S
C549 C550 1.439 . S
C549 H578 0.950 . S
C550 N546 1.383 . S
C550 C549 1.439 . S
C550 C568 1.392 . S
N551 Co535 2.282 . S
N551 C554 1.332 . S
N551 C556 1.332 . S
C552 C553 1.386 . S
C552 C555 1.388 . S
C553 C552 1.386 . S
C553 C554 1.382 . S
C553 H579 0.950 . S
C554 N551 1.332 . S
C554 C553 1.382 . S
C554 H565 0.952 . S
C555 C552 1.388 . S
C555 C556 1.382 . S
C555 H580 0.950 . S
C556 N551 1.332 . S
C556 C555 1.382 . S
C556 H566 0.948 . S
N557 Co535 2.282 . S
N557 C561 1.332 . S
N557 C562 1.332 . S
C558 C559 1.388 . S
C558 C562 1.382 . S
C558 H581 0.950 . S
C559 C558 1.388 . S
C559 C560 1.386 . S
C560 C559 1.386 . S
C560 C561 1.382 . S
C560 H582 0.950 . S
C561 N557 1.332 . S
C561 C560 1.382 . S
C561 H563 0.952 . S
C562 N557 1.332 . S
C562 C558 1.382 . S
C562 H564 0.948 . S
H563 C561 0.952 . S
H564 C562 0.948 . S
H565 C554 0.952 . S
H566 C556 0.948 . S
C567 C533 1.395 . S
C567 C537 1.391 . S
C568 C530 1.389 . S
C568 C550 1.392 . S
C569 C540 1.392 . S
C569 C542 1.389 . S
C570 C545 1.395 . S
C570 C547 1.391 . S
H571 C531 0.951 . S
H572 C532 0.950 . S
H573 C538 0.949 . S
H574 C539 0.950 . S
H575 C543 0.951 . S
H576 C544 0.950 . S
H577 C548 0.949 . S
H578 C549 0.950 . S
H579 C553 0.950 . S
H580 C555 0.950 . S
H581 C558 0.950 . S
H582 C560 0.950 . S
C583 C584 1.443 . S
C583 N587 1.376 . S
C583 C621 1.389 . S
C584 C583 1.443 . S
C584 C585 1.340 . S
C584 H624 0.951 . S
C585 C584 1.340 . S
C585 C586 1.439 . S
C585 H625 0.950 . S
C586 C585 1.439 . S
C586 N587 1.374 . S
C586 C620 1.395 . S
N587 C583 1.376 . S
N587 C586 1.374 . S
N587 Co588 2.008 . S
Co588 N587 2.008 . S
Co588 N589 1.995 . S
Co588 N594 2.008 . S
Co588 N599 1.995 . S
Co588 N604 2.282 . S
Co588 N610 2.282 . S
N589 Co588 1.995 . S
N589 C590 1.376 . S
N589 C593 1.383 . S
C590 N589 1.376 . S
C590 C591 1.446 . S
C590 C620 1.391 . S
C591 C590 1.446 . S
C591 C592 1.339 . S
C591 H626 0.949 . S
C592 C591 1.339 . S
C592 C593 1.439 . S
C592 H627 0.950 . S
C593 N589 1.383 . S
C593 C592 1.439 . S
C593 C622 1.392 . S
N594 Co588 2.008 . S
N594 C595 1.376 . S
N594 C598 1.374 . S
C595 N594 1.376 . S
C595 C596 1.443 . S
C595 C622 1.389 . S
C596 C595 1.443 . S
C596 C597 1.340 . S
C596 H628 0.951 . S
C597 C596 1.340 . S
C597 C598 1.439 . S
C597 H629 0.950 . S
C598 N594 1.374 . S
C598 C597 1.439 . S
C598 C623 1.395 . S
N599 Co588 1.995 . S
N599 C600 1.376 . S
N599 C603 1.383 . S
C600 N599 1.376 . S
C600 C601 1.446 . S
C600 C623 1.391 . S
C601 C600 1.446 . S
C601 C602 1.339 . S
C601 H630 0.949 . S
C602 C601 1.339 . S
C602 C603 1.439 . S
C602 H631 0.950 . S
C603 N599 1.383 . S
C603 C602 1.439 . S
C603 C621 1.392 . S
N604 Co588 2.282 . S
N604 C607 1.332 . S
N604 C609 1.332 . S
C605 C606 1.386 . S
C605 C608 1.388 . S
C606 C605 1.386 . S
C606 C607 1.382 . S
C606 H632 0.950 . S
C607 N604 1.332 . S
C607 C606 1.382 . S
C607 H618 0.952 . S
C608 C605 1.388 . S
C608 C609 1.382 . S
C608 H633 0.950 . S
C609 N604 1.332 . S
C609 C608 1.382 . S
C609 H619 0.948 . S
N610 Co588 2.282 . S
N610 C614 1.332 . S
N610 C615 1.332 . S
C611 C612 1.388 . S
C611 C615 1.382 . S
C611 H634 0.950 . S
C612 C611 1.388 . S
C612 C613 1.386 . S
C613 C612 1.386 . S
C613 C614 1.382 . S
C613 H635 0.950 . S
C614 N610 1.332 . S
C614 C613 1.382 . S
C614 H616 0.952 . S
C615 N610 1.332 . S
C615 C611 1.382 . S
C615 H617 0.948 . S
H616 C614 0.952 . S
H617 C615 0.948 . S
H618 C607 0.952 . S
H619 C609 0.948 . S
C620 C586 1.395 . S
C620 C590 1.391 . S
C621 C583 1.389 . S
C621 C603 1.392 . S
C622 C593 1.392 . S
C622 C595 1.389 . S
C623 C598 1.395 . S
C623 C600 1.391 . S
H624 C584 0.951 . S
H625 C585 0.950 . S
H626 C591 0.949 . S
H627 C592 0.950 . S
H628 C596 0.951 . S
H629 C597 0.950 . S
H630 C601 0.949 . S
H631 C602 0.950 . S
H632 C606 0.950 . S
H633 C608 0.950 . S
H634 C611 0.950 . S
H635 C613 0.950 . S
C636 C637 1.443 . S
C636 N640 1.376 . S
C636 C674 1.389 . S
C637 C636 1.443 . S
C637 C638 1.340 . S
C637 H677 0.951 . S
C638 C637 1.340 . S
C638 C639 1.439 . S
C638 H678 0.950 . S
C639 C638 1.439 . S
C639 N640 1.374 . S
C639 C673 1.395 . S
N640 C636 1.376 . S
N640 C639 1.374 . S
N640 Co641 2.008 . S
Co641 N640 2.008 . S
Co641 N642 1.995 . S
Co641 N647 2.008 . S
Co641 N652 1.995 . S
Co641 N657 2.282 . S
Co641 N663 2.282 . S
N642 Co641 1.995 . S
N642 C643 1.376 . S
N642 C646 1.383 . S
C643 N642 1.376 . S
C643 C644 1.446 . S
C643 C673 1.391 . S
C644 C643 1.446 . S
C644 C645 1.339 . S
C644 H679 0.949 . S
C645 C644 1.339 . S
C645 C646 1.439 . S
C645 H680 0.950 . S
C646 N642 1.383 . S
C646 C645 1.439 . S
C646 C675 1.392 . S
N647 Co641 2.008 . S
N647 C648 1.376 . S
N647 C651 1.374 . S
C648 N647 1.376 . S
C648 C649 1.443 . S
C648 C675 1.389 . S
C649 C648 1.443 . S
C649 C650 1.340 . S
C649 H681 0.951 . S
C650 C649 1.340 . S
C650 C651 1.439 . S
C650 H682 0.950 . S
C651 N647 1.374 . S
C651 C650 1.439 . S
C651 C676 1.395 . S
N652 Co641 1.995 . S
N652 C653 1.376 . S
N652 C656 1.383 . S
C653 N652 1.376 . S
C653 C654 1.446 . S
C653 C676 1.391 . S
C654 C653 1.446 . S
C654 C655 1.339 . S
C654 H683 0.949 . S
C655 C654 1.339 . S
C655 C656 1.439 . S
C655 H684 0.950 . S
C656 N652 1.383 . S
C656 C655 1.439 . S
C656 C674 1.392 . S
N657 Co641 2.282 . S
N657 C660 1.332 . S
N657 C662 1.332 . S
C658 C659 1.386 . S
C658 C661 1.388 . S
C659 C658 1.386 . S
C659 C660 1.382 . S
C659 H685 0.950 . S
C660 N657 1.332 . S
C660 C659 1.382 . S
C660 H671 0.952 . S
C661 C658 1.388 . S
C661 C662 1.382 . S
C661 H686 0.950 . S
C662 N657 1.332 . S
C662 C661 1.382 . S
C662 H672 0.948 . S
N663 Co641 2.282 . S
N663 C667 1.332 . S
N663 C668 1.332 . S
C664 C665 1.388 . S
C664 C668 1.382 . S
C664 H687 0.950 . S
C665 C664 1.388 . S
C665 C666 1.386 . S
C666 C665 1.386 . S
C666 C667 1.382 . S
C666 H688 0.950 . S
C667 N663 1.332 . S
C667 C666 1.382 . S
C667 H669 0.952 . S
C668 N663 1.332 . S
C668 C664 1.382 . S
C668 H670 0.948 . S
H669 C667 0.952 . S
H670 C668 0.948 . S
H671 C660 0.952 . S
H672 C662 0.948 . S
C673 C639 1.395 . S
C673 C643 1.391 . S
C674 C636 1.389 . S
C674 C656 1.392 . S
C675 C646 1.392 . S
C675 C648 1.389 . S
C676 C651 1.395 . S
C676 C653 1.391 . S
H677 C637 0.951 . S
H678 C638 0.950 . S
H679 C644 0.949 . S
H680 C645 0.950 . S
H681 C649 0.951 . S
H682 C650 0.950 . S
H683 C654 0.949 . S
H684 C655 0.950 . S
H685 C659 0.950 . S
H686 C661 0.950 . S
H687 C664 0.950 . S
H688 C666 0.950 . S
C689 C690 1.443 . S
C689 N693 1.376 . S
C689 C727 1.389 . S
C690 C689 1.443 . S
C690 C691 1.340 . S
C690 H730 0.951 . S
C691 C690 1.340 . S
C691 C692 1.439 . S
C691 H731 0.950 . S
C692 C691 1.439 . S
C692 N693 1.374 . S
C692 C726 1.395 . S
N693 C689 1.376 . S
N693 C692 1.374 . S
N693 Co694 2.008 . S
Co694 N693 2.008 . S
Co694 N695 1.995 . S
Co694 N700 2.008 . S
Co694 N705 1.995 . S
Co694 N710 2.282 . S
Co694 N716 2.282 . S
N695 Co694 1.995 . S
N695 C696 1.376 . S
N695 C699 1.383 . S
C696 N695 1.376 . S
C696 C697 1.446 . S
C696 C726 1.391 . S
C697 C696 1.446 . S
C697 C698 1.339 . S
C697 H732 0.949 . S
C698 C697 1.339 . S
C698 C699 1.439 . S
C698 H733 0.950 . S
C699 N695 1.383 . S
C699 C698 1.439 . S
C699 C728 1.392 . S
N700 Co694 2.008 . S
N700 C701 1.376 . S
N700 C704 1.374 . S
C701 N700 1.376 . S
C701 C702 1.443 . S
C701 C728 1.389 . S
C702 C701 1.443 . S
C702 C703 1.340 . S
C702 H734 0.951 . S
C703 C702 1.340 . S
C703 C704 1.439 . S
C703 H735 0.950 . S
C704 N700 1.374 . S
C704 C703 1.439 . S
C704 C729 1.395 . S
N705 Co694 1.995 . S
N705 C706 1.376 . S
N705 C709 1.383 . S
C706 N705 1.376 . S
C706 C707 1.446 . S
C706 C729 1.391 . S
C707 C706 1.446 . S
C707 C708 1.339 . S
C707 H736 0.949 . S
C708 C707 1.339 . S
C708 C709 1.439 . S
C708 H737 0.950 . S
C709 N705 1.383 . S
C709 C708 1.439 . S
C709 C727 1.392 . S
N710 Co694 2.282 . S
N710 C713 1.332 . S
N710 C715 1.332 . S
C711 C712 1.386 . S
C711 C714 1.388 . S
C712 C711 1.386 . S
C712 C713 1.382 . S
C712 H738 0.950 . S
C713 N710 1.332 . S
C713 C712 1.382 . S
C713 H724 0.952 . S
C714 C711 1.388 . S
C714 C715 1.382 . S
C714 H739 0.950 . S
C715 N710 1.332 . S
C715 C714 1.382 . S
C715 H725 0.948 . S
N716 Co694 2.282 . S
N716 C720 1.332 . S
N716 C721 1.332 . S
C717 C718 1.388 . S
C717 C721 1.382 . S
C717 H740 0.950 . S
C718 C717 1.388 . S
C718 C719 1.386 . S
C719 C718 1.386 . S
C719 C720 1.382 . S
C719 H741 0.950 . S
C720 N716 1.332 . S
C720 C719 1.382 . S
C720 H722 0.952 . S
C721 N716 1.332 . S
C721 C717 1.382 . S
C721 H723 0.948 . S
H722 C720 0.952 . S
H723 C721 0.948 . S
H724 C713 0.952 . S
H725 C715 0.948 . S
C726 C692 1.395 . S
C726 C696 1.391 . S
C727 C689 1.389 . S
C727 C709 1.392 . S
C728 C699 1.392 . S
C728 C701 1.389 . S
C729 C704 1.395 . S
C729 C706 1.391 . S
H730 C690 0.951 . S
H731 C691 0.950 . S
H732 C697 0.949 . S
H733 C698 0.950 . S
H734 C702 0.951 . S
H735 C703 0.950 . S
H736 C707 0.949 . S
H737 C708 0.950 . S
H738 C712 0.950 . S
H739 C714 0.950 . S
H740 C717 0.950 . S
H741 C719 0.950 . S
C742 C743 1.443 . S
C742 N746 1.376 . S
C742 C780 1.389 . S
C743 C742 1.443 . S
C743 C744 1.340 . S
C743 H783 0.951 . S
C744 C743 1.340 . S
C744 C745 1.439 . S
C744 H784 0.950 . S
C745 C744 1.439 . S
C745 N746 1.374 . S
C745 C779 1.395 . S
N746 C742 1.376 . S
N746 C745 1.374 . S
N746 Co747 2.008 . S
Co747 N746 2.008 . S
Co747 N748 1.995 . S
Co747 N753 2.008 . S
Co747 N758 1.995 . S
Co747 N763 2.282 . S
Co747 N769 2.282 . S
N748 Co747 1.995 . S
N748 C749 1.376 . S
N748 C752 1.383 . S
C749 N748 1.376 . S
C749 C750 1.446 . S
C749 C779 1.391 . S
C750 C749 1.446 . S
C750 C751 1.339 . S
C750 H785 0.949 . S
C751 C750 1.339 . S
C751 C752 1.439 . S
C751 H786 0.950 . S
C752 N748 1.383 . S
C752 C751 1.439 . S
C752 C781 1.392 . S
N753 Co747 2.008 . S
N753 C754 1.376 . S
N753 C757 1.374 . S
C754 N753 1.376 . S
C754 C755 1.443 . S
C754 C781 1.389 . S
C755 C754 1.443 . S
C755 C756 1.340 . S
C755 H787 0.951 . S
C756 C755 1.340 . S
C756 C757 1.439 . S
C756 H788 0.950 . S
C757 N753 1.374 . S
C757 C756 1.439 . S
C757 C782 1.395 . S
N758 Co747 1.995 . S
N758 C759 1.376 . S
N758 C762 1.383 . S
C759 N758 1.376 . S
C759 C760 1.446 . S
C759 C782 1.391 . S
C760 C759 1.446 . S
C760 C761 1.339 . S
C760 H789 0.949 . S
C761 C760 1.339 . S
C761 C762 1.439 . S
C761 H790 0.950 . S
C762 N758 1.383 . S
C762 C761 1.439 . S
C762 C780 1.392 . S
N763 Co747 2.282 . S
N763 C766 1.332 . S
N763 C768 1.332 . S
C764 C765 1.386 . S
C764 C767 1.388 . S
C765 C764 1.386 . S
C765 C766 1.382 . S
C765 H791 0.950 . S
C766 N763 1.332 . S
C766 C765 1.382 . S
C766 H777 0.952 . S
C767 C764 1.388 . S
C767 C768 1.382 . S
C767 H792 0.950 . S
C768 N763 1.332 . S
C768 C767 1.382 . S
C768 H778 0.948 . S
N769 Co747 2.282 . S
N769 C773 1.332 . S
N769 C774 1.332 . S
C770 C771 1.388 . S
C770 C774 1.382 . S
C770 H793 0.950 . S
C771 C770 1.388 . S
C771 C772 1.386 . S
C772 C771 1.386 . S
C772 C773 1.382 . S
C772 H794 0.950 . S
C773 N769 1.332 . S
C773 C772 1.382 . S
C773 H775 0.952 . S
C774 N769 1.332 . S
C774 C770 1.382 . S
C774 H776 0.948 . S
H775 C773 0.952 . S
H776 C774 0.948 . S
H777 C766 0.952 . S
H778 C768 0.948 . S
C779 C745 1.395 . S
C779 C749 1.391 . S
C780 C742 1.389 . S
C780 C762 1.392 . S
C781 C752 1.392 . S
C781 C754 1.389 . S
C782 C757 1.395 . S
C782 C759 1.391 . S
H783 C743 0.951 . S
H784 C744 0.950 . S
H785 C750 0.949 . S
H786 C751 0.950 . S
H787 C755 0.951 . S
H788 C756 0.950 . S
H789 C760 0.949 . S
H790 C761 0.950 . S
H791 C765 0.950 . S
H792 C767 0.950 . S
H793 C770 0.950 . S
H794 C772 0.950 . S
C795 C796 1.443 . S
C795 N799 1.376 . S
C795 C833 1.389 . S
C796 C795 1.443 . S
C796 C797 1.340 . S
C796 H836 0.951 . S
C797 C796 1.340 . S
C797 C798 1.439 . S
C797 H837 0.950 . S
C798 C797 1.439 . S
C798 N799 1.374 . S
C798 C832 1.395 . S
N799 C795 1.376 . S
N799 C798 1.374 . S
N799 Co800 2.008 . S
Co800 N799 2.008 . S
Co800 N801 1.995 . S
Co800 N806 2.008 . S
Co800 N811 1.995 . S
Co800 N816 2.282 . S
Co800 N822 2.282 . S
N801 Co800 1.995 . S
N801 C802 1.376 . S
N801 C805 1.383 . S
C802 N801 1.376 . S
C802 C803 1.446 . S
C802 C832 1.391 . S
C803 C802 1.446 . S
C803 C804 1.339 . S
C803 H838 0.949 . S
C804 C803 1.339 . S
C804 C805 1.439 . S
C804 H839 0.950 . S
C805 N801 1.383 . S
C805 C804 1.439 . S
C805 C834 1.392 . S
N806 Co800 2.008 . S
N806 C807 1.376 . S
N806 C810 1.374 . S
C807 N806 1.376 . S
C807 C808 1.443 . S
C807 C834 1.389 . S
C808 C807 1.443 . S
C808 C809 1.340 . S
C808 H840 0.951 . S
C809 C808 1.340 . S
C809 C810 1.439 . S
C809 H841 0.950 . S
C810 N806 1.374 . S
C810 C809 1.439 . S
C810 C835 1.395 . S
N811 Co800 1.995 . S
N811 C812 1.376 . S
N811 C815 1.383 . S
C812 N811 1.376 . S
C812 C813 1.446 . S
C812 C835 1.391 . S
C813 C812 1.446 . S
C813 C814 1.339 . S
C813 H842 0.949 . S
C814 C813 1.339 . S
C814 C815 1.439 . S
C814 H843 0.950 . S
C815 N811 1.383 . S
C815 C814 1.439 . S
C815 C833 1.392 . S
N816 Co800 2.282 . S
N816 C819 1.332 . S
N816 C821 1.332 . S
C817 C818 1.386 . S
C817 C820 1.388 . S
C818 C817 1.386 . S
C818 C819 1.382 . S
C818 H844 0.950 . S
C819 N816 1.332 . S
C819 C818 1.382 . S
C819 H830 0.952 . S
C820 C817 1.388 . S
C820 C821 1.382 . S
C820 H845 0.950 . S
C821 N816 1.332 . S
C821 C820 1.382 . S
C821 H831 0.948 . S
N822 Co800 2.282 . S
N822 C826 1.332 . S
N822 C827 1.332 . S
C823 C824 1.388 . S
C823 C827 1.382 . S
C823 H846 0.950 . S
C824 C823 1.388 . S
C824 C825 1.386 . S
C825 C824 1.386 . S
C825 C826 1.382 . S
C825 H847 0.950 . S
C826 N822 1.332 . S
C826 C825 1.382 . S
C826 H828 0.952 . S
C827 N822 1.332 . S
C827 C823 1.382 . S
C827 H829 0.948 . S
H828 C826 0.952 . S
H829 C827 0.948 . S
H830 C819 0.952 . S
H831 C821 0.948 . S
C832 C798 1.395 . S
C832 C802 1.391 . S
C833 C795 1.389 . S
C833 C815 1.392 . S
C834 C805 1.392 . S
C834 C807 1.389 . S
C835 C810 1.395 . S
C835 C812 1.391 . S
H836 C796 0.951 . S
H837 C797 0.950 . S
H838 C803 0.949 . S
H839 C804 0.950 . S
H840 C808 0.951 . S
H841 C809 0.950 . S
H842 C813 0.949 . S
H843 C814 0.950 . S
H844 C818 0.950 . S
H845 C820 0.950 . S
H846 C823 0.950 . S
H847 C825 0.950 . S
H848 C854 0.930 . S
H849 C858 0.930 . S
H850 C863 0.929 . S
H851 C861 0.929 . S
H852 C856 0.929 . S
H853 C862 0.929 . S
C854 H848 0.930 . S
C854 C855 1.367 . S
C854 C862 1.378 . S
C855 C854 1.367 . S
C855 C863 1.433 . S
C856 H852 0.929 . S
C856 C858 1.378 . S
C856 C860 1.350 . S
C857 C860 1.463 1_455 S
C857 C862 1.350 . S
C857 N865 1.427 . S
C858 H849 0.930 . S
C858 C856 1.378 . S
C858 C859 1.367 . S
C859 C858 1.367 . S
C859 C861 1.433 . S
C860 C856 1.350 . S
C860 C857 1.463 1_655 S
C860 N864 1.427 . S
C861 H851 0.929 . S
C861 C859 1.433 . S
C861 N864 1.384 . S
C862 H853 0.929 . S
C862 C854 1.378 . S
C862 C857 1.350 . S
C863 H850 0.929 . S
C863 C855 1.433 . S
C863 N865 1.384 . S
N864 C860 1.427 . S
N864 C861 1.384 . S
N865 C857 1.427 . S
N865 C863 1.384 . S
H866 C872 0.930 . S
H867 C876 0.930 . S
H868 C881 0.929 . S
H869 C879 0.929 . S
H870 C874 0.929 . S
H871 C880 0.929 . S
C872 H866 0.930 . S
C872 C873 1.367 . S
C872 C880 1.378 . S
C873 C872 1.367 . S
C873 C881 1.433 . S
C874 H870 0.929 . S
C874 C876 1.378 . S
C874 C878 1.350 . S
C875 C878 1.463 1_565 S
C875 C880 1.350 . S
C875 N883 1.427 . S
C876 H867 0.930 . S
C876 C874 1.378 . S
C876 C877 1.367 . S
C877 C876 1.367 . S
C877 C879 1.433 . S
C878 C874 1.350 . S
C878 C875 1.463 1_545 S
C878 N882 1.427 . S
C879 H869 0.929 . S
C879 C877 1.433 . S
C879 N882 1.384 . S
C880 H871 0.929 . S
C880 C872 1.378 . S
C880 C875 1.350 . S
C881 H868 0.929 . S
C881 C873 1.433 . S
C881 N883 1.384 . S
N882 C878 1.427 . S
N882 C879 1.384 . S
N883 C875 1.427 . S
N883 C881 1.384 . S
H884 C890 0.930 . S
H885 C894 0.930 . S
H886 C899 0.929 . S
H887 C897 0.929 . S
H888 C892 0.929 . S
H889 C898 0.929 . S
C890 H884 0.930 . S
C890 C891 1.367 . S
C890 C898 1.378 . S
C891 C890 1.367 . S
C891 C899 1.433 . S
C892 H888 0.929 . S
C892 C894 1.378 . S
C892 C896 1.350 . S
C893 C896 1.463 1_455 S
C893 C898 1.350 . S
C893 N901 1.427 . S
C894 H885 0.930 . S
C894 C892 1.378 . S
C894 C895 1.367 . S
C895 C894 1.367 . S
C895 C897 1.433 . S
C896 C892 1.350 . S
C896 C893 1.463 1_655 S
C896 N900 1.427 . S
C897 H887 0.929 . S
C897 C895 1.433 . S
C897 N900 1.384 . S
C898 H889 0.929 . S
C898 C890 1.378 . S
C898 C893 1.350 . S
C899 H886 0.929 . S
C899 C891 1.433 . S
C899 N901 1.384 . S
N900 C896 1.427 . S
N900 C897 1.384 . S
N901 C893 1.427 . S
N901 C899 1.384 . S
H902 C908 0.930 . S
H903 C912 0.930 . S
H904 C917 0.929 . S
H905 C915 0.929 . S
H906 C910 0.929 . S
H907 C916 0.929 . S
C908 H902 0.930 . S
C908 C909 1.367 . S
C908 C916 1.378 . S
C909 C908 1.367 . S
C909 C917 1.433 . S
C910 H906 0.929 . S
C910 C912 1.378 . S
C910 C914 1.350 . S
C911 C914 1.463 1_565 S
C911 C916 1.350 . S
C911 N919 1.427 . S
C912 H903 0.930 . S
C912 C910 1.378 . S
C912 C913 1.367 . S
C913 C912 1.367 . S
C913 C915 1.433 . S
C914 C910 1.350 . S
C914 C911 1.463 1_545 S
C914 N918 1.427 . S
C915 H905 0.929 . S
C915 C913 1.433 . S
C915 N918 1.384 . S
C916 H907 0.929 . S
C916 C908 1.378 . S
C916 C911 1.350 . S
C917 H904 0.929 . S
C917 C909 1.433 . S
C917 N919 1.384 . S
N918 C914 1.427 . S
N918 C915 1.384 . S
N919 C911 1.427 . S
N919 C917 1.384 . S
H920 C926 0.930 . S
H921 C930 0.930 . S
H922 C935 0.929 . S
H923 C933 0.929 . S
H924 C928 0.929 . S
H925 C934 0.929 . S
C926 H920 0.930 . S
C926 C927 1.367 . S
C926 C934 1.378 . S
C927 C926 1.367 . S
C927 C935 1.433 . S
C928 H924 0.929 . S
C928 C930 1.378 . S
C928 C932 1.350 . S
C929 C932 1.463 1_655 S
C929 C934 1.350 . S
C929 N937 1.427 . S
C930 H921 0.930 . S
C930 C928 1.378 . S
C930 C931 1.367 . S
C931 C930 1.367 . S
C931 C933 1.433 . S
C932 C928 1.350 . S
C932 C929 1.463 1_455 S
C932 N936 1.427 . S
C933 H923 0.929 . S
C933 C931 1.433 . S
C933 N936 1.384 . S
C934 H925 0.929 . S
C934 C926 1.378 . S
C934 C929 1.350 . S
C935 H922 0.929 . S
C935 C927 1.433 . S
C935 N937 1.384 . S
N936 C932 1.427 . S
N936 C933 1.384 . S
N937 C929 1.427 . S
N937 C935 1.384 . S
H938 C944 0.930 . S
H939 C948 0.930 . S
H940 C953 0.929 . S
H941 C951 0.929 . S
H942 C946 0.929 . S
H943 C952 0.929 . S
C944 H938 0.930 . S
C944 C945 1.367 . S
C944 C952 1.378 . S
C945 C944 1.367 . S
C945 C953 1.433 . S
C946 H942 0.929 . S
C946 C948 1.378 . S
C946 C950 1.350 . S
C947 C950 1.463 1_545 S
C947 C952 1.350 . S
C947 N955 1.427 . S
C948 H939 0.930 . S
C948 C946 1.378 . S
C948 C949 1.367 . S
C949 C948 1.367 . S
C949 C951 1.433 . S
C950 C946 1.350 . S
C950 C947 1.463 1_565 S
C950 N954 1.427 . S
C951 H941 0.929 . S
C951 C949 1.433 . S
C951 N954 1.384 . S
C952 H943 0.929 . S
C952 C944 1.378 . S
C952 C947 1.350 . S
C953 H940 0.929 . S
C953 C945 1.433 . S
C953 N955 1.384 . S
N954 C950 1.427 . S
N954 C951 1.384 . S
N955 C947 1.427 . S
N955 C953 1.384 . S
H956 C962 0.930 . S
H957 C966 0.930 . S
H958 C971 0.929 . S
H959 C969 0.929 . S
H960 C964 0.929 . S
H961 C970 0.929 . S
C962 H956 0.930 . S
C962 C963 1.367 . S
C962 C970 1.378 . S
C963 C962 1.367 . S
C963 C971 1.433 . S
C964 H960 0.929 . S
C964 C966 1.378 . S
C964 C968 1.350 . S
C965 C968 1.463 1_655 S
C965 C970 1.350 . S
C965 N973 1.427 . S
C966 H957 0.930 . S
C966 C964 1.378 . S
C966 C967 1.367 . S
C967 C966 1.367 . S
C967 C969 1.433 . S
C968 C964 1.350 . S
C968 C965 1.463 1_455 S
C968 N972 1.427 . S
C969 H959 0.929 . S
C969 C967 1.433 . S
C969 N972 1.384 . S
C970 H961 0.929 . S
C970 C962 1.378 . S
C970 C965 1.350 . S
C971 H958 0.929 . S
C971 C963 1.433 . S
C971 N973 1.384 . S
N972 C968 1.427 . S
N972 C969 1.384 . S
N973 C965 1.427 . S
N973 C971 1.384 . S
H974 C980 0.930 . S
H975 C984 0.930 . S
H976 C989 0.929 . S
H977 C987 0.929 . S
H978 C982 0.929 . S
H979 C988 0.929 . S
C980 H974 0.930 . S
C980 C981 1.367 . S
C980 C988 1.378 . S
C981 C980 1.367 . S
C981 C989 1.433 . S
C982 H978 0.929 . S
C982 C984 1.378 . S
C982 C986 1.350 . S
C983 C986 1.463 1_545 S
C983 C988 1.350 . S
C983 N991 1.427 . S
C984 H975 0.930 . S
C984 C982 1.378 . S
C984 C985 1.367 . S
C985 C984 1.367 . S
C985 C987 1.433 . S
C986 C982 1.350 . S
C986 C983 1.463 1_565 S
C986 N990 1.427 . S
C987 H977 0.929 . S
C987 C985 1.433 . S
C987 N990 1.384 . S
C988 H979 0.929 . S
C988 C980 1.378 . S
C988 C983 1.350 . S
C989 H976 0.929 . S
C989 C981 1.433 . S
C989 N991 1.384 . S
N990 C986 1.427 . S
N990 C987 1.384 . S
N991 C983 1.427 . S
N991 C989 1.384 . S
H992 C998 0.930 . S
H993 C1002 0.930 . S
H994 C1007 0.929 . S
H995 C1005 0.929 . S
H996 C1000 0.929 . S
H997 C1006 0.929 . S
C998 H992 0.930 . S
C998 C999 1.367 . S
C998 C1006 1.378 . S
C999 C998 1.367 . S
C999 C1007 1.433 . S
C1000 H996 0.929 . S
C1000 C1002 1.378 . S
C1000 C1004 1.350 . S
C1001 C1004 1.463 . S
C1001 C1006 1.350 . S
C1001 N1009 1.427 . S
C1002 H993 0.930 . S
C1002 C1000 1.378 . S
C1002 C1003 1.367 . S
C1003 C1002 1.367 . S
C1003 C1005 1.433 . S
C1004 C1000 1.350 . S
C1004 C1001 1.463 . S
C1004 N1008 1.427 . S
C1005 H995 0.929 . S
C1005 C1003 1.433 . S
C1005 N1008 1.384 . S
C1006 H997 0.929 . S
C1006 C998 1.378 . S
C1006 C1001 1.350 . S
C1007 H994 0.929 . S
C1007 C999 1.433 . S
C1007 N1009 1.384 . S
N1008 C1004 1.427 . S
N1008 C1005 1.384 . S
N1009 C1001 1.427 . S
N1009 C1007 1.384 . S
H1010 C1016 0.930 . S
H1011 C1020 0.930 . S
H1012 C1025 0.929 . S
H1013 C1023 0.929 . S
H1014 C1018 0.929 . S
H1015 C1024 0.929 . S
C1016 H1010 0.930 . S
C1016 C1017 1.367 . S
C1016 C1024 1.378 . S
C1017 C1016 1.367 . S
C1017 C1025 1.433 . S
C1018 H1014 0.929 . S
C1018 C1020 1.378 . S
C1018 C1022 1.350 . S
C1019 C1022 1.463 . S
C1019 C1024 1.350 . S
C1019 N1027 1.427 . S
C1020 H1011 0.930 . S
C1020 C1018 1.378 . S
C1020 C1021 1.367 . S
C1021 C1020 1.367 . S
C1021 C1023 1.433 . S
C1022 C1018 1.350 . S
C1022 C1019 1.463 . S
C1022 N1026 1.427 . S
C1023 H1013 0.929 . S
C1023 C1021 1.433 . S
C1023 N1026 1.384 . S
C1024 H1015 0.929 . S
C1024 C1016 1.378 . S
C1024 C1019 1.350 . S
C1025 H1012 0.929 . S
C1025 C1017 1.433 . S
C1025 N1027 1.384 . S
N1026 C1022 1.427 . S
N1026 C1023 1.384 . S
N1027 C1019 1.427 . S
N1027 C1025 1.384 . S
H1028 C1034 0.930 . S
H1029 C1038 0.930 . S
H1030 C1043 0.929 . S
H1031 C1041 0.929 . S
H1032 C1036 0.929 . S
H1033 C1042 0.929 . S
C1034 H1028 0.930 . S
C1034 C1035 1.367 . S
C1034 C1042 1.378 . S
C1035 C1034 1.367 . S
C1035 C1043 1.433 . S
C1036 H1032 0.929 . S
C1036 C1038 1.378 . S
C1036 C1040 1.350 . S
C1037 C1040 1.463 . S
C1037 C1042 1.350 . S
C1037 N1045 1.427 . S
C1038 H1029 0.930 . S
C1038 C1036 1.378 . S
C1038 C1039 1.367 . S
C1039 C1038 1.367 . S
C1039 C1041 1.433 . S
C1040 C1036 1.350 . S
C1040 C1037 1.463 . S
C1040 N1044 1.427 . S
C1041 H1031 0.929 . S
C1041 C1039 1.433 . S
C1041 N1044 1.384 . S
C1042 H1033 0.929 . S
C1042 C1034 1.378 . S
C1042 C1037 1.350 . S
C1043 H1030 0.929 . S
C1043 C1035 1.433 . S
C1043 N1045 1.384 . S
N1044 C1040 1.427 . S
N1044 C1041 1.384 . S
N1045 C1037 1.427 . S
N1045 C1043 1.384 . S
H1046 C1052 0.930 . S
H1047 C1056 0.930 . S
H1048 C1061 0.929 . S
H1049 C1059 0.929 . S
H1050 C1054 0.929 . S
H1051 C1060 0.929 . S
C1052 H1046 0.930 . S
C1052 C1053 1.367 . S
C1052 C1060 1.378 . S
C1053 C1052 1.367 . S
C1053 C1061 1.433 . S
C1054 H1050 0.929 . S
C1054 C1056 1.378 . S
C1054 C1058 1.350 . S
C1055 C1058 1.463 . S
C1055 C1060 1.350 . S
C1055 N1063 1.427 . S
C1056 H1047 0.930 . S
C1056 C1054 1.378 . S
C1056 C1057 1.367 . S
C1057 C1056 1.367 . S
C1057 C1059 1.433 . S
C1058 C1054 1.350 . S
C1058 C1055 1.463 . S
C1058 N1062 1.427 . S
C1059 H1049 0.929 . S
C1059 C1057 1.433 . S
C1059 N1062 1.384 . S
C1060 H1051 0.929 . S
C1060 C1052 1.378 . S
C1060 C1055 1.350 . S
C1061 H1048 0.929 . S
C1061 C1053 1.433 . S
C1061 N1063 1.384 . S
N1062 C1058 1.427 . S
N1062 C1059 1.384 . S
N1063 C1055 1.427 . S
N1063 C1061 1.384 . S
H1064 C1070 0.930 . S
H1065 C1074 0.930 . S
H1066 C1079 0.929 . S
H1067 C1077 0.929 . S
H1068 C1072 0.929 . S
H1069 C1078 0.929 . S
C1070 H1064 0.930 . S
C1070 C1071 1.367 . S
C1070 C1078 1.378 . S
C1071 C1070 1.367 . S
C1071 C1079 1.433 . S
C1072 H1068 0.929 . S
C1072 C1074 1.378 . S
C1072 C1076 1.350 . S
C1073 C1076 1.463 . S
C1073 C1078 1.350 . S
C1073 N1081 1.427 . S
C1074 H1065 0.930 . S
C1074 C1072 1.378 . S
C1074 C1075 1.367 . S
C1075 C1074 1.367 . S
C1075 C1077 1.433 . S
C1076 C1072 1.350 . S
C1076 C1073 1.463 . S
C1076 N1080 1.427 . S
C1077 H1067 0.929 . S
C1077 C1075 1.433 . S
C1077 N1080 1.384 . S
C1078 H1069 0.929 . S
C1078 C1070 1.378 . S
C1078 C1073 1.350 . S
C1079 H1066 0.929 . S
C1079 C1071 1.433 . S
C1079 N1081 1.384 . S
N1080 C1076 1.427 . S
N1080 C1077 1.384 . S
N1081 C1073 1.427 . S
N1081 C1079 1.384 . S
H1082 C1088 0.930 . S
H1083 C1092 0.930 . S
H1084 C1097 0.929 . S
H1085 C1095 0.929 . S
H1086 C1090 0.929 . S
H1087 C1096 0.929 . S
C1088 H1082 0.930 . S
C1088 C1089 1.367 . S
C1088 C1096 1.378 . S
C1089 C1088 1.367 . S
C1089 C1097 1.433 . S
C1090 H1086 0.929 . S
C1090 C1092 1.378 . S
C1090 C1094 1.350 . S
C1091 C1094 1.463 . S
C1091 C1096 1.350 . S
C1091 N1099 1.427 . S
C1092 H1083 0.930 . S
C1092 C1090 1.378 . S
C1092 C1093 1.367 . S
C1093 C1092 1.367 . S
C1093 C1095 1.433 . S
C1094 C1090 1.350 . S
C1094 C1091 1.463 . S
C1094 N1098 1.427 . S
C1095 H1085 0.929 . S
C1095 C1093 1.433 . S
C1095 N1098 1.384 . S
C1096 H1087 0.929 . S
C1096 C1088 1.378 . S
C1096 C1091 1.350 . S
C1097 H1084 0.929 . S
C1097 C1089 1.433 . S
C1097 N1099 1.384 . S
N1098 C1094 1.427 . S
N1098 C1095 1.384 . S
N1099 C1091 1.427 . S
N1099 C1097 1.384 . S
H1100 C1106 0.930 . S
H1101 C1110 0.930 . S
H1102 C1115 0.929 . S
H1103 C1113 0.929 . S
H1104 C1108 0.929 . S
H1105 C1114 0.929 . S
C1106 H1100 0.930 . S
C1106 C1107 1.367 . S
C1106 C1114 1.378 . S
C1107 C1106 1.367 . S
C1107 C1115 1.433 . S
C1108 H1104 0.929 . S
C1108 C1110 1.378 . S
C1108 C1112 1.350 . S
C1109 C1112 1.463 . S
C1109 C1114 1.350 . S
C1109 N1117 1.427 . S
C1110 H1101 0.930 . S
C1110 C1108 1.378 . S
C1110 C1111 1.367 . S
C1111 C1110 1.367 . S
C1111 C1113 1.433 . S
C1112 C1108 1.350 . S
C1112 C1109 1.463 . S
C1112 N1116 1.427 . S
C1113 H1103 0.929 . S
C1113 C1111 1.433 . S
C1113 N1116 1.384 . S
C1114 H1105 0.929 . S
C1114 C1106 1.378 . S
C1114 C1109 1.350 . S
C1115 H1102 0.929 . S
C1115 C1107 1.433 . S
C1115 N1117 1.384 . S
N1116 C1112 1.427 . S
N1116 C1113 1.384 . S
N1117 C1109 1.427 . S
N1117 C1115 1.384 . S
H1118 C1124 0.930 . S
H1119 C1128 0.930 . S
H1120 C1133 0.929 . S
H1121 C1131 0.929 . S
H1122 C1126 0.929 . S
H1123 C1132 0.929 . S
C1124 H1118 0.930 . S
C1124 C1125 1.367 . S
C1124 C1132 1.378 . S
C1125 C1124 1.367 . S
C1125 C1133 1.433 . S
C1126 H1122 0.929 . S
C1126 C1128 1.378 . S
C1126 C1130 1.350 . S
C1127 C1130 1.463 . S
C1127 C1132 1.350 . S
C1127 N1135 1.427 . S
C1128 H1119 0.930 . S
C1128 C1126 1.378 . S
C1128 C1129 1.367 . S
C1129 C1128 1.367 . S
C1129 C1131 1.433 . S
C1130 C1126 1.350 . S
C1130 C1127 1.463 . S
C1130 N1134 1.427 . S
C1131 H1121 0.929 . S
C1131 C1129 1.433 . S
C1131 N1134 1.384 . S
C1132 H1123 0.929 . S
C1132 C1124 1.378 . S
C1132 C1127 1.350 . S
C1133 H1120 0.929 . S
C1133 C1125 1.433 . S
C1133 N1135 1.384 . S
N1134 C1130 1.427 . S
N1134 C1131 1.384 . S
N1135 C1127 1.427 . S
N1135 C1133 1.384 . S
H1136 C1142 0.930 . S
H1137 C1146 0.930 . S
H1138 C1151 0.929 . S
H1139 C1149 0.929 . S
H1140 C1144 0.929 . S
H1141 C1150 0.929 . S
C1142 H1136 0.930 . S
C1142 C1143 1.367 . S
C1142 C1150 1.378 . S
C1143 C1142 1.367 . S
C1143 C1151 1.433 . S
C1144 H1140 0.929 . S
C1144 C1146 1.378 . S
C1144 C1148 1.350 . S
C1145 C1148 1.463 1_556 S
C1145 C1150 1.350 . S
C1145 N1153 1.427 . S
C1146 H1137 0.930 . S
C1146 C1144 1.378 . S
C1146 C1147 1.367 . S
C1147 C1146 1.367 . S
C1147 C1149 1.433 . S
C1148 C1144 1.350 . S
C1148 C1145 1.463 1_554 S
C1148 N1152 1.427 . S
C1149 H1139 0.929 . S
C1149 C1147 1.433 . S
C1149 N1152 1.384 . S
C1150 H1141 0.929 . S
C1150 C1142 1.378 . S
C1150 C1145 1.350 . S
C1151 H1138 0.929 . S
C1151 C1143 1.433 . S
C1151 N1153 1.384 . S
N1152 C1148 1.427 . S
N1152 C1149 1.384 . S
N1153 C1145 1.427 . S
N1153 C1151 1.384 . S
H1154 C1160 0.930 . S
H1155 C1164 0.930 . S
H1156 C1169 0.929 . S
H1157 C1167 0.929 . S
H1158 C1162 0.929 . S
H1159 C1168 0.929 . S
C1160 H1154 0.930 . S
C1160 C1161 1.367 . S
C1160 C1168 1.378 . S
C1161 C1160 1.367 . S
C1161 C1169 1.433 . S
C1162 H1158 0.929 . S
C1162 C1164 1.378 . S
C1162 C1166 1.350 . S
C1163 C1166 1.463 . S
C1163 C1168 1.350 . S
C1163 N1171 1.427 . S
C1164 H1155 0.930 . S
C1164 C1162 1.378 . S
C1164 C1165 1.367 . S
C1165 C1164 1.367 . S
C1165 C1167 1.433 . S
C1166 C1162 1.350 . S
C1166 C1163 1.463 . S
C1166 N1170 1.427 . S
C1167 H1157 0.929 . S
C1167 C1165 1.433 . S
C1167 N1170 1.384 . S
C1168 H1159 0.929 . S
C1168 C1160 1.378 . S
C1168 C1163 1.350 . S
C1169 H1156 0.929 . S
C1169 C1161 1.433 . S
C1169 N1171 1.384 . S
N1170 C1166 1.427 . S
N1170 C1167 1.384 . S
N1171 C1163 1.427 . S
N1171 C1169 1.384 . S
H1172 C1178 0.930 . S
H1173 C1182 0.930 . S
H1174 C1187 0.929 . S
H1175 C1185 0.929 . S
H1176 C1180 0.929 . S
H1177 C1186 0.929 . S
C1178 H1172 0.930 . S
C1178 C1179 1.367 . S
C1178 C1186 1.378 . S
C1179 C1178 1.367 . S
C1179 C1187 1.433 . S
C1180 H1176 0.929 . S
C1180 C1182 1.378 . S
C1180 C1184 1.350 . S
C1181 C1184 1.463 1_554 S
C1181 C1186 1.350 . S
C1181 N1189 1.427 . S
C1182 H1173 0.930 . S
C1182 C1180 1.378 . S
C1182 C1183 1.367 . S
C1183 C1182 1.367 . S
C1183 C1185 1.433 . S
C1184 C1180 1.350 . S
C1184 C1181 1.463 1_556 S
C1184 N1188 1.427 . S
C1185 H1175 0.929 . S
C1185 C1183 1.433 . S
C1185 N1188 1.384 . S
C1186 H1177 0.929 . S
C1186 C1178 1.378 . S
C1186 C1181 1.350 . S
C1187 H1174 0.929 . S
C1187 C1179 1.433 . S
C1187 N1189 1.384 . S
N1188 C1184 1.427 . S
N1188 C1185 1.384 . S
N1189 C1181 1.427 . S
N1189 C1187 1.384 . S
H1190 C1196 0.930 . S
H1191 C1200 0.930 . S
H1192 C1205 0.929 . S
H1193 C1203 0.929 . S
H1194 C1198 0.929 . S
H1195 C1204 0.929 . S
C1196 H1190 0.930 . S
C1196 C1197 1.367 . S
C1196 C1204 1.378 . S
C1197 C1196 1.367 . S
C1197 C1205 1.433 . S
C1198 H1194 0.929 . S
C1198 C1200 1.378 . S
C1198 C1202 1.350 . S
C1199 C1202 1.463 . S
C1199 C1204 1.350 . S
C1199 N1207 1.427 . S
C1200 H1191 0.930 . S
C1200 C1198 1.378 . S
C1200 C1201 1.367 . S
C1201 C1200 1.367 . S
C1201 C1203 1.433 . S
C1202 C1198 1.350 . S
C1202 C1199 1.463 . S
C1202 N1206 1.427 . S
C1203 H1193 0.929 . S
C1203 C1201 1.433 . S
C1203 N1206 1.384 . S
C1204 H1195 0.929 . S
C1204 C1196 1.378 . S
C1204 C1199 1.350 . S
C1205 H1192 0.929 . S
C1205 C1197 1.433 . S
C1205 N1207 1.384 . S
N1206 C1202 1.427 . S
N1206 C1203 1.384 . S
N1207 C1199 1.427 . S
N1207 C1205 1.384 . S
H1208 C1214 0.930 . S
H1209 C1218 0.930 . S
H1210 C1223 0.929 . S
H1211 C1221 0.929 . S
H1212 C1216 0.929 . S
H1213 C1222 0.929 . S
C1214 H1208 0.930 . S
C1214 C1215 1.367 . S
C1214 C1222 1.378 . S
C1215 C1214 1.367 . S
C1215 C1223 1.433 . S
C1216 H1212 0.929 . S
C1216 C1218 1.378 . S
C1216 C1220 1.350 . S
C1217 C1220 1.463 . S
C1217 C1222 1.350 . S
C1217 N1225 1.427 . S
C1218 H1209 0.930 . S
C1218 C1216 1.378 . S
C1218 C1219 1.367 . S
C1219 C1218 1.367 . S
C1219 C1221 1.433 . S
C1220 C1216 1.350 . S
C1220 C1217 1.463 . S
C1220 N1224 1.427 . S
C1221 H1211 0.929 . S
C1221 C1219 1.433 . S
C1221 N1224 1.384 . S
C1222 H1213 0.929 . S
C1222 C1214 1.378 . S
C1222 C1217 1.350 . S
C1223 H1210 0.929 . S
C1223 C1215 1.433 . S
C1223 N1225 1.384 . S
N1224 C1220 1.427 . S
N1224 C1221 1.384 . S
N1225 C1217 1.427 . S
N1225 C1223 1.384 . S
H1226 C1232 0.930 . S
H1227 C1236 0.930 . S
H1228 C1241 0.929 . S
H1229 C1239 0.929 . S
H1230 C1234 0.929 . S
H1231 C1240 0.929 . S
C1232 H1226 0.930 . S
C1232 C1233 1.367 . S
C1232 C1240 1.378 . S
C1233 C1232 1.367 . S
C1233 C1241 1.433 . S
C1234 H1230 0.929 . S
C1234 C1236 1.378 . S
C1234 C1238 1.350 . S
C1235 C1238 1.463 1_556 S
C1235 C1240 1.350 . S
C1235 N1243 1.427 . S
C1236 H1227 0.930 . S
C1236 C1234 1.378 . S
C1236 C1237 1.367 . S
C1237 C1236 1.367 . S
C1237 C1239 1.433 . S
C1238 C1234 1.350 . S
C1238 C1235 1.463 1_554 S
C1238 N1242 1.427 . S
C1239 H1229 0.929 . S
C1239 C1237 1.433 . S
C1239 N1242 1.384 . S
C1240 H1231 0.929 . S
C1240 C1232 1.378 . S
C1240 C1235 1.350 . S
C1241 H1228 0.929 . S
C1241 C1233 1.433 . S
C1241 N1243 1.384 . S
N1242 C1238 1.427 . S
N1242 C1239 1.384 . S
N1243 C1235 1.427 . S
N1243 C1241 1.384 . S
H1244 C1250 0.930 . S
H1245 C1254 0.930 . S
H1246 C1259 0.929 . S
H1247 C1257 0.929 . S
H1248 C1252 0.929 . S
H1249 C1258 0.929 . S
C1250 H1244 0.930 . S
C1250 C1251 1.367 . S
C1250 C1258 1.378 . S
C1251 C1250 1.367 . S
C1251 C1259 1.433 . S
C1252 H1248 0.929 . S
C1252 C1254 1.378 . S
C1252 C1256 1.350 . S
C1253 C1256 1.463 . S
C1253 C1258 1.350 . S
C1253 N1261 1.427 . S
C1254 H1245 0.930 . S
C1254 C1252 1.378 . S
C1254 C1255 1.367 . S
C1255 C1254 1.367 . S
C1255 C1257 1.433 . S
C1256 C1252 1.350 . S
C1256 C1253 1.463 . S
C1256 N1260 1.427 . S
C1257 H1247 0.929 . S
C1257 C1255 1.433 . S
C1257 N1260 1.384 . S
C1258 H1249 0.929 . S
C1258 C1250 1.378 . S
C1258 C1253 1.350 . S
C1259 H1246 0.929 . S
C1259 C1251 1.433 . S
C1259 N1261 1.384 . S
N1260 C1256 1.427 . S
N1260 C1257 1.384 . S
N1261 C1253 1.427 . S
N1261 C1259 1.384 . S
H1262 C1268 0.930 . S
H1263 C1272 0.930 . S
H1264 C1277 0.929 . S
H1265 C1275 0.929 . S
H1266 C1270 0.929 . S
H1267 C1276 0.929 . S
C1268 H1262 0.930 . S
C1268 C1269 1.367 . S
C1268 C1276 1.378 . S
C1269 C1268 1.367 . S
C1269 C1277 1.433 . S
C1270 H1266 0.929 . S
C1270 C1272 1.378 . S
C1270 C1274 1.350 . S
C1271 C1274 1.463 1_554 S
C1271 C1276 1.350 . S
C1271 N1279 1.427 . S
C1272 H1263 0.930 . S
C1272 C1270 1.378 . S
C1272 C1273 1.367 . S
C1273 C1272 1.367 . S
C1273 C1275 1.433 . S
C1274 C1270 1.350 . S
C1274 C1271 1.463 1_556 S
C1274 N1278 1.427 . S
C1275 H1265 0.929 . S
C1275 C1273 1.433 . S
C1275 N1278 1.384 . S
C1276 H1267 0.929 . S
C1276 C1268 1.378 . S
C1276 C1271 1.350 . S
C1277 H1264 0.929 . S
C1277 C1269 1.433 . S
C1277 N1279 1.384 . S
N1278 C1274 1.427 . S
N1278 C1275 1.384 . S
N1279 C1271 1.427 . S
N1279 C1277 1.384 . S
H1280 C1286 0.930 . S
H1281 C1290 0.930 . S
H1282 C1295 0.929 . S
H1283 C1293 0.929 . S
H1284 C1288 0.929 . S
H1285 C1294 0.929 . S
C1286 H1280 0.930 . S
C1286 C1287 1.367 . S
C1286 C1294 1.378 . S
C1287 C1286 1.367 . S
C1287 C1295 1.433 . S
C1288 H1284 0.929 . S
C1288 C1290 1.378 . S
C1288 C1292 1.350 . S
C1289 C1292 1.463 . S
C1289 C1294 1.350 . S
C1289 N1297 1.427 . S
C1290 H1281 0.930 . S
C1290 C1288 1.378 . S
C1290 C1291 1.367 . S
C1291 C1290 1.367 . S
C1291 C1293 1.433 . S
C1292 C1288 1.350 . S
C1292 C1289 1.463 . S
C1292 N1296 1.427 . S
C1293 H1283 0.929 . S
C1293 C1291 1.433 . S
C1293 N1296 1.384 . S
C1294 H1285 0.929 . S
C1294 C1286 1.378 . S
C1294 C1289 1.350 . S
C1295 H1282 0.929 . S
C1295 C1287 1.433 . S
C1295 N1297 1.384 . S
N1296 C1292 1.427 . S
N1296 C1293 1.384 . S
N1297 C1289 1.427 . S
N1297 C1295 1.384 . S
H1298 C1304 0.930 . S
H1299 C1308 0.930 . S
H1300 C1313 0.929 . S
H1301 C1311 0.929 . S
H1302 C1306 0.929 . S
H1303 C1312 0.929 . S
C1304 H1298 0.930 . S
C1304 C1305 1.367 . S
C1304 C1312 1.378 . S
C1305 C1304 1.367 . S
C1305 C1313 1.433 . S
C1306 H1302 0.929 . S
C1306 C1308 1.378 . S
C1306 C1310 1.350 . S
C1307 C1310 1.463 . S
C1307 C1312 1.350 . S
C1307 N1315 1.427 . S
C1308 H1299 0.930 . S
C1308 C1306 1.378 . S
C1308 C1309 1.367 . S
C1309 C1308 1.367 . S
C1309 C1311 1.433 . S
C1310 C1306 1.350 . S
C1310 C1307 1.463 . S
C1310 N1314 1.427 . S
C1311 H1301 0.929 . S
C1311 C1309 1.433 . S
C1311 N1314 1.384 . S
C1312 H1303 0.929 . S
C1312 C1304 1.378 . S
C1312 C1307 1.350 . S
C1313 H1300 0.929 . S
C1313 C1305 1.433 . S
C1313 N1315 1.384 . S
N1314 C1310 1.427 . S
N1314 C1311 1.384 . S
N1315 C1307 1.427 . S
N1315 C1313 1.384 . S
H1316 C1322 0.930 . S
H1317 C1326 0.930 . S
H1318 C1331 0.929 . S
H1319 C1329 0.929 . S
H1320 C1324 0.929 . S
H1321 C1330 0.929 . S
C1322 H1316 0.930 . S
C1322 C1323 1.367 . S
C1322 C1330 1.378 . S
C1323 C1322 1.367 . S
C1323 C1331 1.433 . S
C1324 H1320 0.929 . S
C1324 C1326 1.378 . S
C1324 C1328 1.350 . S
C1325 C1328 1.463 . S
C1325 C1330 1.350 . S
C1325 N1333 1.427 . S
C1326 H1317 0.930 . S
C1326 C1324 1.378 . S
C1326 C1327 1.367 . S
C1327 C1326 1.367 . S
C1327 C1329 1.433 . S
C1328 C1324 1.350 . S
C1328 C1325 1.463 . S
C1328 N1332 1.427 . S
C1329 H1319 0.929 . S
C1329 C1327 1.433 . S
C1329 N1332 1.384 . S
C1330 H1321 0.929 . S
C1330 C1322 1.378 . S
C1330 C1325 1.350 . S
C1331 H1318 0.929 . S
C1331 C1323 1.433 . S
C1331 N1333 1.384 . S
N1332 C1328 1.427 . S
N1332 C1329 1.384 . S
N1333 C1325 1.427 . S
N1333 C1331 1.384 . S
H1334 C1340 0.930 . S
H1335 C1344 0.930 . S
H1336 C1349 0.929 . S
H1337 C1347 0.929 . S
H1338 C1342 0.929 . S
H1339 C1348 0.929 . S
C1340 H1334 0.930 . S
C1340 C1341 1.367 . S
C1340 C1348 1.378 . S
C1341 C1340 1.367 . S
C1341 C1349 1.433 . S
C1342 H1338 0.929 . S
C1342 C1344 1.378 . S
C1342 C1346 1.350 . S
C1343 C1346 1.463 . S
C1343 C1348 1.350 . S
C1343 N1351 1.427 . S
C1344 H1335 0.930 . S
C1344 C1342 1.378 . S
C1344 C1345 1.367 . S
C1345 C1344 1.367 . S
C1345 C1347 1.433 . S
C1346 C1342 1.350 . S
C1346 C1343 1.463 . S
C1346 N1350 1.427 . S
C1347 H1337 0.929 . S
C1347 C1345 1.433 . S
C1347 N1350 1.384 . S
C1348 H1339 0.929 . S
C1348 C1340 1.378 . S
C1348 C1343 1.350 . S
C1349 H1336 0.929 . S
C1349 C1341 1.433 . S
C1349 N1351 1.384 . S
N1350 C1346 1.427 . S
N1350 C1347 1.384 . S
N1351 C1343 1.427 . S
N1351 C1349 1.384 . S
H1352 C1358 0.930 . S
H1353 C1362 0.930 . S
H1354 C1367 0.929 . S
H1355 C1365 0.929 . S
H1356 C1360 0.929 . S
H1357 C1366 0.929 . S
C1358 H1352 0.930 . S
C1358 C1359 1.367 . S
C1358 C1366 1.378 . S
C1359 C1358 1.367 . S
C1359 C1367 1.433 . S
C1360 H1356 0.929 . S
C1360 C1362 1.378 . S
C1360 C1364 1.350 . S
C1361 C1364 1.463 . S
C1361 C1366 1.350 . S
C1361 N1369 1.427 . S
C1362 H1353 0.930 . S
C1362 C1360 1.378 . S
C1362 C1363 1.367 . S
C1363 C1362 1.367 . S
C1363 C1365 1.433 . S
C1364 C1360 1.350 . S
C1364 C1361 1.463 . S
C1364 N1368 1.427 . S
C1365 H1355 0.929 . S
C1365 C1363 1.433 . S
C1365 N1368 1.384 . S
C1366 H1357 0.929 . S
C1366 C1358 1.378 . S
C1366 C1361 1.350 . S
C1367 H1354 0.929 . S
C1367 C1359 1.433 . S
C1367 N1369 1.384 . S
N1368 C1364 1.427 . S
N1368 C1365 1.384 . S
N1369 C1361 1.427 . S
N1369 C1367 1.384 . S
H1370 C1376 0.930 . S
H1371 C1380 0.930 . S
H1372 C1385 0.929 . S
H1373 C1383 0.929 . S
H1374 C1378 0.929 . S
H1375 C1384 0.929 . S
C1376 H1370 0.930 . S
C1376 C1377 1.367 . S
C1376 C1384 1.378 . S
C1377 C1376 1.367 . S
C1377 C1385 1.433 . S
C1378 H1374 0.929 . S
C1378 C1380 1.378 . S
C1378 C1382 1.350 . S
C1379 C1382 1.463 . S
C1379 C1384 1.350 . S
C1379 N1387 1.427 . S
C1380 H1371 0.930 . S
C1380 C1378 1.378 . S
C1380 C1381 1.367 . S
C1381 C1380 1.367 . S
C1381 C1383 1.433 . S
C1382 C1378 1.350 . S
C1382 C1379 1.463 . S
C1382 N1386 1.427 . S
C1383 H1373 0.929 . S
C1383 C1381 1.433 . S
C1383 N1386 1.384 . S
C1384 H1375 0.929 . S
C1384 C1376 1.378 . S
C1384 C1379 1.350 . S
C1385 H1372 0.929 . S
C1385 C1377 1.433 . S
C1385 N1387 1.384 . S
N1386 C1382 1.427 . S
N1386 C1383 1.384 . S
N1387 C1379 1.427 . S
N1387 C1385 1.384 . S
H1388 C1394 0.930 . S
H1389 C1398 0.930 . S
H1390 C1403 0.929 . S
H1391 C1401 0.929 . S
H1392 C1396 0.929 . S
H1393 C1402 0.929 . S
C1394 H1388 0.930 . S
C1394 C1395 1.367 . S
C1394 C1402 1.378 . S
C1395 C1394 1.367 . S
C1395 C1403 1.433 . S
C1396 H1392 0.929 . S
C1396 C1398 1.378 . S
C1396 C1400 1.350 . S
C1397 C1400 1.463 . S
C1397 C1402 1.350 . S
C1397 N1405 1.427 . S
C1398 H1389 0.930 . S
C1398 C1396 1.378 . S
C1398 C1399 1.367 . S
C1399 C1398 1.367 . S
C1399 C1401 1.433 . S
C1400 C1396 1.350 . S
C1400 C1397 1.463 . S
C1400 N1404 1.427 . S
C1401 H1391 0.929 . S
C1401 C1399 1.433 . S
C1401 N1404 1.384 . S
C1402 H1393 0.929 . S
C1402 C1394 1.378 . S
C1402 C1397 1.350 . S
C1403 H1390 0.929 . S
C1403 C1395 1.433 . S
C1403 N1405 1.384 . S
N1404 C1400 1.427 . S
N1404 C1401 1.384 . S
N1405 C1397 1.427 . S
N1405 C1403 1.384 . S
H1406 C1412 0.930 . S
H1407 C1416 0.930 . S
H1408 C1421 0.929 . S
H1409 C1419 0.929 . S
H1410 C1414 0.929 . S
H1411 C1420 0.929 . S
C1412 H1406 0.930 . S
C1412 C1413 1.367 . S
C1412 C1420 1.378 . S
C1413 C1412 1.367 . S
C1413 C1421 1.433 . S
C1414 H1410 0.929 . S
C1414 C1416 1.378 . S
C1414 C1418 1.350 . S
C1415 C1418 1.463 . S
C1415 C1420 1.350 . S
C1415 N1423 1.427 . S
C1416 H1407 0.930 . S
C1416 C1414 1.378 . S
C1416 C1417 1.367 . S
C1417 C1416 1.367 . S
C1417 C1419 1.433 . S
C1418 C1414 1.350 . S
C1418 C1415 1.463 . S
C1418 N1422 1.427 . S
C1419 H1409 0.929 . S
C1419 C1417 1.433 . S
C1419 N1422 1.384 . S
C1420 H1411 0.929 . S
C1420 C1412 1.378 . S
C1420 C1415 1.350 . S
C1421 H1408 0.929 . S
C1421 C1413 1.433 . S
C1421 N1423 1.384 . S
N1422 C1418 1.427 . S
N1422 C1419 1.384 . S
N1423 C1415 1.427 . S
N1423 C1421 1.384 . S
C855 C29 1.785 . S
C859 C135 1.784 . S
C873 C188 1.785 . S
C877 C82 1.784 . S
C891 C241 1.776 . S
C895 C347 1.778 . S
C909 C400 1.777 . S
C913 C294 1.780 . S
C927 C453 1.773 . S
C931 C559 1.771 . S
C945 C612 1.775 . S
C949 C506 1.772 . S
C963 C665 1.772 . S
C967 C771 1.774 . S
C981 C824 1.776 . S
C985 C718 1.778 . S
C999 C250 1.885 . S
C1003 C38 1.883 . S
C1017 C91 1.883 . S
C1021 C303 1.884 . S
C1035 C144 1.885 . S
C1039 C356 1.887 . S
C1053 C409 1.884 . S
C1057 C197 1.885 . S
C1071 C462 1.875 . S
C1075 C674 1.876 . S
C1089 C515 1.878 . S
C1093 C727 1.876 . S
C1107 C568 1.879 . S
C1111 C780 1.882 . S
C1125 C621 1.879 . S
C1129 C833 1.877 . S
C1143 C569 1.838 . S
C1147 C39 1.826 . S
C1161 C622 1.838 . S
C1165 C92 1.827 . S
C1179 C145 1.829 . S
C1183 C463 1.836 . S
C1197 C198 1.826 . S
C1201 C516 1.838 . S
C1215 C251 1.826 . S
C1219 C781 1.838 . S
C1233 C304 1.828 . S
C1237 C834 1.837 . S
C1251 C357 1.833 . S
C1255 C675 1.833 . S
C1269 C728 1.834 . S
C1273 C410 1.832 . S
C1287 C22 1.651 . S
C1291 C817 1.659 . S
C1305 C658 1.658 . S
C1309 C75 1.652 . S
C1323 C128 1.657 . S
C1327 C711 1.654 . S
C1341 C764 1.659 . S
C1345 C181 1.652 . S
C1359 C499 1.656 . S
C1363 C234 1.655 . S
C1377 C287 1.653 . S
C1381 C552 1.658 . S
C1395 C605 1.658 . S
C1399 C340 1.653 . S
C1413 C446 1.656 . S
C1417 C393 1.655 . S
