# Generated by pormake.
# Topology umq, (4)-cn, num edge types: 1
# Building blocks:
#     Node 0, Type 0, BuildingBlock: TATPOV_clean_sbu_0, # of connection points: 4
#     Node 1, Type 0, BuildingBlock: TATPOV_clean_sbu_0, # of connection points: 4
#     Node 2, Type 0, BuildingBlock: TATPOV_clean_sbu_0, # of connection points: 4
#     Node 3, Type 0, BuildingBlock: TATPOV_clean_sbu_0, # of connection points: 4
#     Node 4, Type 0, BuildingBlock: TATPOV_clean_sbu_0, # of connection points: 4
#     Node 5, Type 0, BuildingBlock: TATPOV_clean_sbu_0, # of connection points: 4
#     Node 6, Type 0, BuildingBlock: TATPOV_clean_sbu_0, # of connection points: 4
#     Node 7, Type 0, BuildingBlock: TATPOV_clean_sbu_0, # of connection points: 4
#     Node 8, Type 0, BuildingBlock: TATPOV_clean_sbu_0, # of connection points: 4
#     Node 9, Type 0, BuildingBlock: TATPOV_clean_sbu_0, # of connection points: 4
#     Node 10, Type 0, BuildingBlock: TATPOV_clean_sbu_0, # of connection points: 4
#     Node 11, Type 0, BuildingBlock: TATPOV_clean_sbu_0, # of connection points: 4
#     Node 12, Type 0, BuildingBlock: TATPOV_clean_sbu_0, # of connection points: 4
#     Node 13, Type 0, BuildingBlock: TATPOV_clean_sbu_0, # of connection points: 4
#     Node 14, Type 0, BuildingBlock: TATPOV_clean_sbu_0, # of connection points: 4
#     Node 15, Type 0, BuildingBlock: TATPOV_clean_sbu_0, # of connection points: 4
#     Node 16, Type 0, BuildingBlock: TATPOV_clean_sbu_0, # of connection points: 4
#     Node 17, Type 0, BuildingBlock: TATPOV_clean_sbu_0, # of connection points: 4
#     Node 18, Type 0, BuildingBlock: TATPOV_clean_sbu_0, # of connection points: 4
#     Node 19, Type 0, BuildingBlock: TATPOV_clean_sbu_0, # of connection points: 4
#     Node 20, Type 0, BuildingBlock: TATPOV_clean_sbu_0, # of connection points: 4
#     Node 21, Type 0, BuildingBlock: TATPOV_clean_sbu_0, # of connection points: 4
#     Node 22, Type 0, BuildingBlock: TATPOV_clean_sbu_0, # of connection points: 4
#     Node 23, Type 0, BuildingBlock: TATPOV_clean_sbu_0, # of connection points: 4
#     Node 24, Type 0, BuildingBlock: TATPOV_clean_sbu_0, # of connection points: 4
#     Node 25, Type 0, BuildingBlock: TATPOV_clean_sbu_0, # of connection points: 4
#     Node 26, Type 0, BuildingBlock: TATPOV_clean_sbu_0, # of connection points: 4
#     Node 27, Type 0, BuildingBlock: TATPOV_clean_sbu_0, # of connection points: 4
#     Node 28, Type 0, BuildingBlock: TATPOV_clean_sbu_0, # of connection points: 4
#     Node 29, Type 0, BuildingBlock: TATPOV_clean_sbu_0, # of connection points: 4
#     Node 30, Type 0, BuildingBlock: TATPOV_clean_sbu_0, # of connection points: 4
#     Node 31, Type 0, BuildingBlock: TATPOV_clean_sbu_0, # of connection points: 4
#     Edge 32, Type (0, 0), BuildingBlock: TEMPAE_clean_linker_10, # of connection points: 2
#     Edge 33, Type (0, 0), BuildingBlock: TEMPAE_clean_linker_10, # of connection points: 2
#     Edge 34, Type (0, 0), BuildingBlock: TEMPAE_clean_linker_10, # of connection points: 2
#     Edge 35, Type (0, 0), BuildingBlock: TEMPAE_clean_linker_10, # of connection points: 2
#     Edge 36, Type (0, 0), BuildingBlock: TEMPAE_clean_linker_10, # of connection points: 2
#     Edge 37, Type (0, 0), BuildingBlock: TEMPAE_clean_linker_10, # of connection points: 2
#     Edge 38, Type (0, 0), BuildingBlock: TEMPAE_clean_linker_10, # of connection points: 2
#     Edge 39, Type (0, 0), BuildingBlock: TEMPAE_clean_linker_10, # of connection points: 2
#     Edge 40, Type (0, 0), BuildingBlock: TEMPAE_clean_linker_10, # of connection points: 2
#     Edge 41, Type (0, 0), BuildingBlock: TEMPAE_clean_linker_10, # of connection points: 2
#     Edge 42, Type (0, 0), BuildingBlock: TEMPAE_clean_linker_10, # of connection points: 2
#     Edge 43, Type (0, 0), BuildingBlock: TEMPAE_clean_linker_10, # of connection points: 2
#     Edge 44, Type (0, 0), BuildingBlock: TEMPAE_clean_linker_10, # of connection points: 2
#     Edge 45, Type (0, 0), BuildingBlock: TEMPAE_clean_linker_10, # of connection points: 2
#     Edge 46, Type (0, 0), BuildingBlock: TEMPAE_clean_linker_10, # of connection points: 2
#     Edge 47, Type (0, 0), BuildingBlock: TEMPAE_clean_linker_10, # of connection points: 2
#     Edge 48, Type (0, 0), BuildingBlock: TEMPAE_clean_linker_10, # of connection points: 2
#     Edge 49, Type (0, 0), BuildingBlock: TEMPAE_clean_linker_10, # of connection points: 2
#     Edge 50, Type (0, 0), BuildingBlock: TEMPAE_clean_linker_10, # of connection points: 2
#     Edge 51, Type (0, 0), BuildingBlock: TEMPAE_clean_linker_10, # of connection points: 2
#     Edge 52, Type (0, 0), BuildingBlock: TEMPAE_clean_linker_10, # of connection points: 2
#     Edge 53, Type (0, 0), BuildingBlock: TEMPAE_clean_linker_10, # of connection points: 2
#     Edge 54, Type (0, 0), BuildingBlock: TEMPAE_clean_linker_10, # of connection points: 2
#     Edge 55, Type (0, 0), BuildingBlock: TEMPAE_clean_linker_10, # of connection points: 2
#     Edge 56, Type (0, 0), BuildingBlock: TEMPAE_clean_linker_10, # of connection points: 2
#     Edge 57, Type (0, 0), BuildingBlock: TEMPAE_clean_linker_10, # of connection points: 2
#     Edge 58, Type (0, 0), BuildingBlock: TEMPAE_clean_linker_10, # of connection points: 2
#     Edge 59, Type (0, 0), BuildingBlock: TEMPAE_clean_linker_10, # of connection points: 2
#     Edge 60, Type (0, 0), BuildingBlock: TEMPAE_clean_linker_10, # of connection points: 2
#     Edge 61, Type (0, 0), BuildingBlock: TEMPAE_clean_linker_10, # of connection points: 2
#     Edge 62, Type (0, 0), BuildingBlock: TEMPAE_clean_linker_10, # of connection points: 2
#     Edge 63, Type (0, 0), BuildingBlock: TEMPAE_clean_linker_10, # of connection points: 2
#     Edge 64, Type (0, 0), BuildingBlock: TEMPAE_clean_linker_10, # of connection points: 2
#     Edge 65, Type (0, 0), BuildingBlock: TEMPAE_clean_linker_10, # of connection points: 2
#     Edge 66, Type (0, 0), BuildingBlock: TEMPAE_clean_linker_10, # of connection points: 2
#     Edge 67, Type (0, 0), BuildingBlock: TEMPAE_clean_linker_10, # of connection points: 2
#     Edge 68, Type (0, 0), BuildingBlock: TEMPAE_clean_linker_10, # of connection points: 2
#     Edge 69, Type (0, 0), BuildingBlock: TEMPAE_clean_linker_10, # of connection points: 2
#     Edge 70, Type (0, 0), BuildingBlock: TEMPAE_clean_linker_10, # of connection points: 2
#     Edge 71, Type (0, 0), BuildingBlock: TEMPAE_clean_linker_10, # of connection points: 2
#     Edge 72, Type (0, 0), BuildingBlock: TEMPAE_clean_linker_10, # of connection points: 2
#     Edge 73, Type (0, 0), BuildingBlock: TEMPAE_clean_linker_10, # of connection points: 2
#     Edge 74, Type (0, 0), BuildingBlock: TEMPAE_clean_linker_10, # of connection points: 2
#     Edge 75, Type (0, 0), BuildingBlock: TEMPAE_clean_linker_10, # of connection points: 2
#     Edge 76, Type (0, 0), BuildingBlock: TEMPAE_clean_linker_10, # of connection points: 2
#     Edge 77, Type (0, 0), BuildingBlock: TEMPAE_clean_linker_10, # of connection points: 2
#     Edge 78, Type (0, 0), BuildingBlock: TEMPAE_clean_linker_10, # of connection points: 2
#     Edge 79, Type (0, 0), BuildingBlock: TEMPAE_clean_linker_10, # of connection points: 2
#     Edge 80, Type (0, 0), BuildingBlock: TEMPAE_clean_linker_10, # of connection points: 2
#     Edge 81, Type (0, 0), BuildingBlock: TEMPAE_clean_linker_10, # of connection points: 2
#     Edge 82, Type (0, 0), BuildingBlock: TEMPAE_clean_linker_10, # of connection points: 2
#     Edge 83, Type (0, 0), BuildingBlock: TEMPAE_clean_linker_10, # of connection points: 2
#     Edge 84, Type (0, 0), BuildingBlock: TEMPAE_clean_linker_10, # of connection points: 2
#     Edge 85, Type (0, 0), BuildingBlock: TEMPAE_clean_linker_10, # of connection points: 2
#     Edge 86, Type (0, 0), BuildingBlock: TEMPAE_clean_linker_10, # of connection points: 2
#     Edge 87, Type (0, 0), BuildingBlock: TEMPAE_clean_linker_10, # of connection points: 2
#     Edge 88, Type (0, 0), BuildingBlock: TEMPAE_clean_linker_10, # of connection points: 2
#     Edge 89, Type (0, 0), BuildingBlock: TEMPAE_clean_linker_10, # of connection points: 2
#     Edge 90, Type (0, 0), BuildingBlock: TEMPAE_clean_linker_10, # of connection points: 2
#     Edge 91, Type (0, 0), BuildingBlock: TEMPAE_clean_linker_10, # of connection points: 2
#     Edge 92, Type (0, 0), BuildingBlock: TEMPAE_clean_linker_10, # of connection points: 2
#     Edge 93, Type (0, 0), BuildingBlock: TEMPAE_clean_linker_10, # of connection points: 2
#     Edge 94, Type (0, 0), BuildingBlock: TEMPAE_clean_linker_10, # of connection points: 2
#     Edge 95, Type (0, 0), BuildingBlock: TEMPAE_clean_linker_10, # of connection points: 2
# Relax obj value: 0.062
# Max RMSD: 0.083
# Mean RMSD: 0.083
data_MOF--net-umq--node1-TATPOV_clean_sbu_0--edge1-TEMPAE_clean_linker_10
_symmetry_space_group_name_H-M    P1
_symmetry_Int_Tables_number       1
_symmetry_cell_setting            triclinic
loop_
_symmetry_equiv_pos_as_xyz
'x, y, z'
_cell_length_a     66.903679
_cell_length_b     66.999844
_cell_length_c     44.910922
_cell_angle_alpha  90.015325
_cell_angle_beta   89.985874
_cell_angle_gamma 90.009275
loop_
_atom_site_label
_atom_site_type_symbol
_atom_site_fract_x
_atom_site_fract_y
_atom_site_fract_z
_atom_type_partial_charge
Zn0 Zn 0.22655 0.11812 0.11773 0.0
Zn1 Zn 0.23853 0.09297 0.15748 0.0
O2 O 0.23538 0.07561 0.11935 0.0
O3 O 0.21919 0.09617 0.08985 0.0
O4 O 0.24583 0.07285 0.18881 0.0
O5 O 0.20571 0.12972 0.1444 0.0
O6 O 0.21307 0.10564 0.17574 0.0
C7 C 0.22617 0.07898 0.09504 0.0
C8 C 0.2665 0.12611 0.1374 0.0
O9 O 0.26233 0.11258 0.15635 0.0
O10 O 0.2542 0.13029 0.11689 0.0
C11 C 0.25842 0.05893 0.18464 0.0
O12 O 0.26784 0.05782 0.15901 0.0
C13 C 0.20237 0.12063 0.16856 0.0
Zn14 Zn 0.87099 0.22381 0.14048 0.0
Zn15 Zn 0.90287 0.22563 0.16934 0.0
O16 O 0.91319 0.22761 0.12576 0.0
O17 O 0.88451 0.23246 0.1031 0.0
O18 O 0.92796 0.2267 0.19367 0.0
O19 O 0.86617 0.19503 0.14857 0.0
O20 O 0.88989 0.19858 0.18188 0.0
C21 C 0.90339 0.23174 0.10222 0.0
C22 C 0.86907 0.2549 0.18216 0.0
O23 O 0.88764 0.25084 0.1839 0.0
O24 O 0.85774 0.2441 0.16641 0.0
C25 C 0.93948 0.24168 0.19115 0.0
O26 O 0.93481 0.25588 0.17221 0.0
C27 C 0.87593 0.18812 0.17033 0.0
Zn28 Zn 0.74478 0.86496 0.11353 0.0
Zn29 Zn 0.74056 0.89374 0.153 0.0
O30 O 0.74414 0.90905 0.11321 0.0
O31 O 0.7484 0.88473 0.08097 0.0
O32 O 0.73709 0.91622 0.18206 0.0
O33 O 0.76851 0.85444 0.13641 0.0
O34 O 0.76597 0.87955 0.1678 0.0
C35 C 0.74721 0.90319 0.08661 0.0
C36 C 0.70761 0.86224 0.14371 0.0
O37 O 0.71477 0.87683 0.1585 0.0
O38 O 0.71732 0.85485 0.12222 0.0
C39 C 0.72343 0.92906 0.17767 0.0
O40 O 0.71147 0.92687 0.1547 0.0
C41 C 0.77491 0.86383 0.15895 0.0
Zn42 Zn 0.12976 0.78869 0.12142 0.0
Zn43 Zn 0.09919 0.77772 0.1545 0.0
O44 O 0.08623 0.78177 0.11315 0.0
O45 O 0.11196 0.79046 0.08564 0.0
O46 O 0.07557 0.77117 0.18038 0.0
O47 O 0.1355 0.81264 0.1463 0.0
O48 O 0.11127 0.80251 0.17572 0.0
C49 C 0.0935 0.78662 0.08794 0.0
C50 C 0.13454 0.74945 0.14687 0.0
O51 O 0.11693 0.75249 0.15675 0.0
O52 O 0.14337 0.76278 0.13182 0.0
C53 C 0.06329 0.75753 0.17313 0.0
O54 O 0.06646 0.74729 0.14862 0.0
C55 C 0.12536 0.81474 0.16984 0.0
Zn56 Zn 0.22191 0.87984 0.38536 0.0
Zn57 Zn 0.2319 0.90953 0.35234 0.0
O58 O 0.22808 0.92244 0.39404 0.0
O59 O 0.21269 0.89815 0.41764 0.0
O60 O 0.23785 0.93278 0.3256 0.0
O61 O 0.20217 0.86925 0.35606 0.0
O62 O 0.20706 0.89722 0.33155 0.0
C63 C 0.21886 0.91597 0.41692 0.0
C64 C 0.26245 0.87721 0.36528 0.0
O65 O 0.25714 0.89197 0.34924 0.0
O66 O 0.25049 0.87007 0.38438 0.0
C67 C 0.25293 0.94415 0.3285 0.0
O68 O 0.26561 0.94089 0.35031 0.0
C69 C 0.19774 0.88075 0.33476 0.0
Zn70 Zn 0.13976 0.23589 0.35751 0.0
Zn71 Zn 0.10561 0.23863 0.33054 0.0
O72 O 0.09665 0.23742 0.37464 0.0
O73 O 0.12592 0.2381 0.39687 0.0
O74 O 0.07992 0.23914 0.30759 0.0
O75 O 0.14644 0.20939 0.34006 0.0
O76 O 0.11908 0.21312 0.31357 0.0
C77 C 0.10703 0.23807 0.39841 0.0
C78 C 0.13714 0.27111 0.32214 0.0
O79 O 0.11912 0.26537 0.31878 0.0
O80 O 0.14931 0.2605 0.33677 0.0
C81 C 0.06493 0.24961 0.31515 0.0
O82 O 0.06601 0.26075 0.33917 0.0
C83 C 0.13483 0.20323 0.31985 0.0
Zn84 Zn 0.75109 0.12742 0.34091 0.0
Zn85 Zn 0.74432 0.09474 0.3117 0.0
O86 O 0.74763 0.08408 0.35456 0.0
O87 O 0.75007 0.11231 0.37928 0.0
O88 O 0.73982 0.06976 0.28799 0.0
O89 O 0.77693 0.13241 0.32031 0.0
O90 O 0.77044 0.10597 0.29289 0.0
C91 C 0.74909 0.09345 0.37914 0.0
C92 C 0.71432 0.12949 0.31011 0.0
O93 O 0.71835 0.11129 0.30433 0.0
O94 O 0.72656 0.14005 0.32464 0.0
C95 C 0.72703 0.05677 0.29585 0.0
O96 O 0.71623 0.05993 0.31984 0.0
C97 C 0.7816 0.12082 0.29922 0.0
Zn98 Zn 0.86065 0.75183 0.32896 0.0
Zn99 Zn 0.89394 0.75256 0.30336 0.0
O100 O 0.90198 0.75555 0.3479 0.0
O101 O 0.87313 0.74889 0.36903 0.0
O102 O 0.92019 0.75415 0.28175 0.0
O103 O 0.85182 0.77837 0.31456 0.0
O104 O 0.87794 0.77642 0.28514 0.0
C105 C 0.89164 0.75237 0.37129 0.0
C106 C 0.86544 0.71773 0.29324 0.0
O107 O 0.88331 0.72429 0.292 0.0
O108 O 0.85208 0.7278 0.30627 0.0
C109 C 0.93459 0.74254 0.28811 0.0
O110 O 0.93221 0.72926 0.30935 0.0
C111 C 0.86186 0.78523 0.29304 0.0
Zn112 Zn 0.79088 0.89407 0.88328 0.0
Zn113 Zn 0.7801 0.92019 0.8439 0.0
O114 O 0.78365 0.93687 0.88235 0.0
O115 O 0.79885 0.91561 0.91184 0.0
O116 O 0.77398 0.94085 0.81308 0.0
O117 O 0.81131 0.88158 0.85666 0.0
O118 O 0.80449 0.9058 0.82529 0.0
C119 C 0.7923 0.93302 0.90695 0.0
C120 C 0.75005 0.88909 0.86337 0.0
O121 O 0.7549 0.90272 0.84497 0.0
O122 O 0.76239 0.88352 0.8831 0.0
C123 C 0.76044 0.95393 0.81654 0.0
O124 O 0.74974 0.95387 0.84108 0.0
C125 C 0.81465 0.89038 0.83228 0.0
Zn126 Zn 0.10828 0.74679 0.8689 0.0
Zn127 Zn 0.07997 0.74732 0.82912 0.0
O128 O 0.06441 0.75074 0.86923 0.0
O129 O 0.08898 0.74965 0.90187 0.0
O130 O 0.05796 0.74789 0.79861 0.0
O131 O 0.12157 0.77069 0.85049 0.0
O132 O 0.09761 0.77135 0.817 0.0
C133 C 0.07056 0.75104 0.8961 0.0
C134 C 0.10813 0.71111 0.83505 0.0
O135 O 0.09401 0.71997 0.82126 0.0
O136 O 0.11648 0.71944 0.85703 0.0
C137 C 0.04471 0.7343 0.79793 0.0
O138 O 0.04565 0.71967 0.81736 0.0
C139 C 0.11375 0.77855 0.82767 0.0
Zn140 Zn 0.24199 0.12155 0.85761 0.0
Zn141 Zn 0.24408 0.08939 0.82734 0.0
O142 O 0.24465 0.07897 0.8709 0.0
O143 O 0.24681 0.10714 0.89566 0.0
O144 O 0.2451 0.06398 0.80362 0.0
O145 O 0.21424 0.12775 0.84469 0.0
O146 O 0.21732 0.10254 0.81375 0.0
C147 C 0.24658 0.08827 0.89549 0.0
C148 C 0.27517 0.12243 0.81846 0.0
O149 O 0.26985 0.1044 0.81394 0.0
O150 O 0.26489 0.13345 0.83545 0.0
C151 C 0.25883 0.05135 0.80883 0.0
O152 O 0.27223 0.05541 0.82936 0.0
C153 C 0.20727 0.11735 0.82363 0.0
Zn154 Zn 0.87146 0.22712 0.85883 0.0
Zn155 Zn 0.90251 0.24086 0.82953 0.0
O156 O 0.91454 0.23429 0.87095 0.0
O157 O 0.88875 0.22084 0.89381 0.0
O158 O 0.92662 0.24853 0.80515 0.0
O159 O 0.86533 0.20603 0.8294 0.0
O160 O 0.89142 0.21704 0.80453 0.0
C161 C 0.90698 0.22585 0.89375 0.0
C162 C 0.86669 0.26809 0.84042 0.0
O163 O 0.88422 0.26589 0.8297 0.0
O164 O 0.85824 0.25382 0.85395 0.0
C165 C 0.94097 0.25924 0.81454 0.0
O166 O 0.94006 0.2668 0.84151 0.0
C167 C 0.87674 0.20499 0.80705 0.0
Zn168 Zn 0.78695 0.12554 0.59711 0.0
Zn169 Zn 0.7788 0.09841 0.63735 0.0
O170 O 0.78072 0.08189 0.5986 0.0
O171 O 0.79273 0.10408 0.56729 0.0
O172 O 0.77409 0.0776 0.66852 0.0
O173 O 0.80926 0.13706 0.62133 0.0
O174 O 0.80434 0.1124 0.6528 0.0
C175 C 0.78753 0.08633 0.57296 0.0
C176 C 0.74772 0.1301 0.62307 0.0
O177 O 0.75367 0.11594 0.6398 0.0
O178 O 0.75878 0.13628 0.60209 0.0
C179 C 0.75967 0.06532 0.66676 0.0
O180 O 0.74741 0.06635 0.64397 0.0
C181 C 0.81417 0.12779 0.64474 0.0
Zn182 Zn 0.85661 0.78383 0.61665 0.0
Zn183 Zn 0.88866 0.7704 0.64503 0.0
O184 O 0.89956 0.77442 0.6024 0.0
O185 O 0.87331 0.78718 0.57982 0.0
O186 O 0.9127 0.76244 0.66919 0.0
O187 O 0.85269 0.80655 0.64458 0.0
O188 O 0.8794 0.79566 0.66807 0.0
C189 C 0.89139 0.7816 0.57912 0.0
C190 C 0.85168 0.74387 0.63955 0.0
O191 O 0.86965 0.74618 0.64835 0.0
O192 O 0.84284 0.75775 0.62566 0.0
C193 C 0.92663 0.75094 0.66046 0.0
O194 O 0.92569 0.74307 0.6337 0.0
C195 C 0.8651 0.80816 0.66566 0.0
Zn196 Zn 0.23701 0.84917 0.65118 0.0
Zn197 Zn 0.24255 0.88109 0.68367 0.0
O198 O 0.23814 0.89285 0.64163 0.0
O199 O 0.23561 0.86581 0.61419 0.0
O200 O 0.24587 0.90584 0.70851 0.0
O201 O 0.21232 0.84165 0.67332 0.0
O202 O 0.21787 0.86722 0.70291 0.0
C203 C 0.23615 0.88465 0.61622 0.0
C204 C 0.27491 0.84876 0.68033 0.0
O205 O 0.26959 0.86617 0.6887 0.0
O206 O 0.26321 0.83817 0.66482 0.0
C207 C 0.2577 0.91955 0.70003 0.0
O208 O 0.2681 0.91695 0.67551 0.0
C209 C 0.20756 0.85188 0.69589 0.0
Zn210 Zn 0.13272 0.22554 0.63732 0.0
Zn211 Zn 0.10295 0.23611 0.67105 0.0
O212 O 0.08952 0.23236 0.62966 0.0
O213 O 0.1145 0.2205 0.60309 0.0
O214 O 0.07949 0.24211 0.69775 0.0
O215 O 0.14085 0.20307 0.66291 0.0
O216 O 0.11521 0.21076 0.6914 0.0
C217 C 0.09628 0.22528 0.60531 0.0
C218 C 0.13775 0.26495 0.66136 0.0
O219 O 0.12095 0.26136 0.67372 0.0
O220 O 0.14563 0.25214 0.64428 0.0
C221 C 0.06787 0.25687 0.69366 0.0
O222 O 0.07147 0.26921 0.67156 0.0
C223 C 0.13032 0.19973 0.68571 0.0
Zn224 Zn 0.71541 0.62447 0.62985 0.0
Zn225 Zn 0.72812 0.59971 0.6702 0.0
O226 O 0.7219 0.58185 0.63374 0.0
O227 O 0.70589 0.60219 0.60378 0.0
O228 O 0.73652 0.57929 0.70026 0.0
O229 O 0.69663 0.63741 0.65868 0.0
O230 O 0.70469 0.61415 0.69108 0.0
C231 C 0.71211 0.58484 0.60984 0.0
C232 C 0.75668 0.63073 0.64517 0.0
O233 O 0.75275 0.61782 0.66516 0.0
O234 O 0.74363 0.6352 0.62585 0.0
C235 C 0.75064 0.56724 0.6943 0.0
O236 O 0.76024 0.5691 0.66892 0.0
C237 C 0.69436 0.62942 0.68397 0.0
Zn238 Zn 0.39779 0.72994 0.62572 0.0
Zn239 Zn 0.42431 0.73555 0.66626 0.0
O240 O 0.44099 0.73375 0.62695 0.0
O241 O 0.41804 0.72423 0.59484 0.0
O242 O 0.4457 0.73968 0.69717 0.0
O243 O 0.38537 0.70729 0.64746 0.0
O244 O 0.40932 0.70999 0.68071 0.0
C245 C 0.43607 0.72802 0.60089 0.0
C246 C 0.39309 0.7678 0.6536 0.0
O247 O 0.40685 0.76092 0.67032 0.0
O248 O 0.38722 0.75779 0.63136 0.0
C249 C 0.45585 0.75573 0.69693 0.0
O250 O 0.45192 0.76931 0.67664 0.0
C251 C 0.39372 0.70113 0.67098 0.0
Zn252 Zn 0.27681 0.36992 0.63267 0.0
Zn253 Zn 0.27176 0.39842 0.6704 0.0
O254 O 0.27824 0.41241 0.63019 0.0
O255 O 0.28757 0.3878 0.60112 0.0
O256 O 0.26905 0.42249 0.69682 0.0
O257 O 0.29566 0.35579 0.65996 0.0
O258 O 0.29428 0.38162 0.6901 0.0
C259 C 0.28516 0.40629 0.60539 0.0
C260 C 0.23667 0.37147 0.65468 0.0
O261 O 0.24412 0.38447 0.67221 0.0
O262 O 0.2473 0.36388 0.63428 0.0
C263 C 0.25605 0.43548 0.68972 0.0
O264 O 0.24413 0.43184 0.66711 0.0
C265 C 0.30142 0.36453 0.68341 0.0
Zn266 Zn 0.63976 0.27248 0.61863 0.0
Zn267 Zn 0.60976 0.26162 0.65198 0.0
O268 O 0.59625 0.26488 0.61077 0.0
O269 O 0.62238 0.27109 0.58251 0.0
O270 O 0.58667 0.25518 0.67913 0.0
O271 O 0.64413 0.29805 0.64026 0.0
O272 O 0.62121 0.28735 0.67148 0.0
C273 C 0.60381 0.26795 0.58513 0.0
C274 C 0.6465 0.23477 0.64653 0.0
O275 O 0.62842 0.23689 0.65498 0.0
O276 O 0.65506 0.2484 0.63178 0.0
C277 C 0.57297 0.24293 0.67204 0.0
O278 O 0.57406 0.2336 0.64635 0.0
C279 C 0.63436 0.30025 0.66412 0.0
Zn280 Zn 0.72692 0.37823 0.87488 0.0
Zn281 Zn 0.73627 0.4068 0.83881 0.0
O282 O 0.73042 0.42155 0.87841 0.0
O283 O 0.71644 0.39774 0.9048 0.0
O284 O 0.74219 0.42951 0.8112 0.0
O285 O 0.70814 0.36595 0.84547 0.0
O286 O 0.71252 0.39273 0.81792 0.0
C287 C 0.72129 0.41587 0.9018 0.0
C288 C 0.76783 0.37622 0.85633 0.0
O289 O 0.76221 0.3901 0.83881 0.0
O290 O 0.75586 0.36946 0.87572 0.0
C291 C 0.75542 0.44245 0.81747 0.0
O292 O 0.7659 0.44043 0.84202 0.0
C293 C 0.70376 0.37613 0.82268 0.0
Zn294 Zn 0.64477 0.74482 0.88767 0.0
Zn295 Zn 0.61319 0.75449 0.85525 0.0
O296 O 0.60056 0.75004 0.89667 0.0
O297 O 0.62733 0.74473 0.924 0.0
O298 O 0.58961 0.7596 0.82843 0.0
O299 O 0.64978 0.71978 0.86461 0.0
O300 O 0.62479 0.729 0.83589 0.0
C301 C 0.60857 0.7468 0.92193 0.0
C302 C 0.64911 0.78281 0.85929 0.0
O303 O 0.63107 0.77982 0.85119 0.0
O304 O 0.65836 0.76978 0.87428 0.0
C305 C 0.57327 0.76759 0.83657 0.0
O306 O 0.57143 0.77406 0.86405 0.0
C307 C 0.63886 0.71684 0.84206 0.0
Zn308 Zn 0.26325 0.64176 0.84204 0.0
Zn309 Zn 0.2601 0.60711 0.81579 0.0
O310 O 0.26226 0.59948 0.86024 0.0
O311 O 0.26339 0.62879 0.88215 0.0
O312 O 0.25766 0.57999 0.79679 0.0
O313 O 0.28871 0.64804 0.82119 0.0
O314 O 0.28591 0.6195 0.79729 0.0
C315 C 0.26305 0.60994 0.8839 0.0
C316 C 0.22697 0.63865 0.80922 0.0
O317 O 0.23327 0.62095 0.80451 0.0
O318 O 0.2375 0.65072 0.82417 0.0
C319 C 0.26442 0.57548 0.77122 0.0
O320 O 0.27355 0.58919 0.75533 0.0
C321 C 0.29526 0.63581 0.8021 0.0
Zn322 Zn 0.38105 0.24349 0.86076 0.0
Zn323 Zn 0.4128 0.24394 0.82699 0.0
O324 O 0.4247 0.24818 0.86953 0.0
O325 O 0.39744 0.24685 0.89702 0.0
O326 O 0.43712 0.24455 0.80061 0.0
O327 O 0.36928 0.26711 0.83965 0.0
O328 O 0.39604 0.26768 0.81122 0.0
C329 C 0.41619 0.24856 0.89494 0.0
C330 C 0.38519 0.20713 0.82918 0.0
O331 O 0.40035 0.21593 0.81801 0.0
O332 O 0.37446 0.21587 0.84832 0.0
C333 C 0.45101 0.23176 0.8035 0.0
O334 O 0.44934 0.21794 0.82412 0.0
C335 C 0.3791 0.27492 0.81857 0.0
Zn336 Zn 0.25644 0.38295 0.3752 0.0
Zn337 Zn 0.25237 0.41461 0.34164 0.0
O338 O 0.25598 0.42712 0.3838 0.0
O339 O 0.25965 0.39995 0.41093 0.0
O340 O 0.25014 0.43841 0.31478 0.0
O341 O 0.27996 0.37313 0.3517 0.0
O342 O 0.27694 0.40004 0.32405 0.0
C343 C 0.25854 0.41874 0.40899 0.0
C344 C 0.21857 0.38381 0.34628 0.0
O345 O 0.22555 0.39965 0.33447 0.0
O346 O 0.22891 0.37407 0.36484 0.0
C347 C 0.23569 0.45067 0.31638 0.0
O348 O 0.22175 0.44792 0.33658 0.0
C349 C 0.28587 0.38372 0.33011 0.0
Zn350 Zn 0.61216 0.26507 0.35856 0.0
Zn351 Zn 0.58308 0.26115 0.32173 0.0
O352 O 0.56889 0.26657 0.36224 0.0
O353 O 0.59429 0.27558 0.39027 0.0
O354 O 0.55997 0.25931 0.29345 0.0
O355 O 0.62668 0.2842 0.33249 0.0
O356 O 0.60032 0.28388 0.30332 0.0
C357 C 0.57569 0.27336 0.38672 0.0
C358 C 0.60986 0.22552 0.3349 0.0
O359 O 0.59651 0.23348 0.31852 0.0
O360 O 0.61801 0.23564 0.35539 0.0
C361 C 0.54662 0.24602 0.29686 0.0
O362 O 0.54835 0.23322 0.31887 0.0
C363 C 0.61765 0.29062 0.30971 0.0
Zn364 Zn 0.74236 0.61867 0.37938 0.0
Zn365 Zn 0.74442 0.58575 0.34802 0.0
O366 O 0.74314 0.5745 0.39097 0.0
O367 O 0.74182 0.60252 0.4165 0.0
O368 O 0.74569 0.56126 0.32253 0.0
O369 O 0.71702 0.62713 0.3591 0.0
O370 O 0.71835 0.59916 0.33349 0.0
C371 C 0.7424 0.58365 0.41582 0.0
C372 C 0.77808 0.61713 0.34527 0.0
O373 O 0.77066 0.60059 0.33653 0.0
O374 O 0.76868 0.62775 0.36388 0.0
C375 C 0.75919 0.54817 0.32621 0.0
O376 O 0.77243 0.55062 0.34751 0.0
C377 C 0.7096 0.61553 0.33981 0.0
Zn378 Zn 0.36346 0.72952 0.37697 0.0
Zn379 Zn 0.3935 0.73911 0.34177 0.0
O380 O 0.4074 0.73513 0.38238 0.0
O381 O 0.38205 0.72863 0.41193 0.0
O382 O 0.4167 0.74367 0.31419 0.0
O383 O 0.35683 0.70486 0.35407 0.0
O384 O 0.38022 0.71425 0.32266 0.0
C385 C 0.4006 0.7314 0.40827 0.0
C386 C 0.35888 0.76812 0.34922 0.0
O387 O 0.37639 0.76481 0.33912 0.0
O388 O 0.35012 0.75517 0.36507 0.0
C389 C 0.43175 0.75419 0.32139 0.0
O390 O 0.43179 0.76343 0.3472 0.0
C391 C 0.36626 0.70223 0.32999 0.0
Zn392 Zn 0.26847 0.63256 0.11819 0.0
Zn393 Zn 0.25766 0.60411 0.15348 0.0
O394 O 0.26226 0.58954 0.11326 0.0
O395 O 0.27797 0.61285 0.08794 0.0
O396 O 0.25111 0.58191 0.18185 0.0
O397 O 0.2879 0.64381 0.14749 0.0
O398 O 0.28233 0.61677 0.17396 0.0
C399 C 0.27188 0.59505 0.0902 0.0
C400 C 0.22776 0.63641 0.13692 0.0
O401 O 0.23267 0.62217 0.15426 0.0
O402 O 0.24001 0.64265 0.11754 0.0
C403 C 0.23901 0.56784 0.17591 0.0
O404 O 0.2298 0.56772 0.15008 0.0
C405 C 0.2919 0.63299 0.16976 0.0
Zn406 Zn 0.355 0.28671 0.12009 0.0
Zn407 Zn 0.38572 0.27599 0.15379 0.0
O408 O 0.39902 0.28131 0.11318 0.0
O409 O 0.37363 0.2905 0.08535 0.0
O410 O 0.40915 0.26935 0.17981 0.0
O411 O 0.34813 0.30943 0.14708 0.0
O412 O 0.37301 0.30004 0.17585 0.0
C413 C 0.39213 0.28693 0.08812 0.0
C414 C 0.35155 0.24661 0.14323 0.0
O415 O 0.36868 0.25033 0.15435 0.0
O416 O 0.34252 0.25977 0.1281 0.0
C417 C 0.4221 0.25653 0.17192 0.0
O418 O 0.4198 0.24712 0.14647 0.0
C419 C 0.35832 0.31165 0.17056 0.0
Zn420 Zn 0.74055 0.36148 0.12941 0.0
Zn421 Zn 0.74428 0.392 0.16554 0.0
O422 O 0.74252 0.40582 0.12422 0.0
O423 O 0.73942 0.37977 0.09471 0.0
O424 O 0.74648 0.41503 0.19381 0.0
O425 O 0.71559 0.35217 0.14987 0.0
O426 O 0.7185 0.37793 0.1799 0.0
C427 C 0.74085 0.39844 0.09818 0.0
C428 C 0.77729 0.36035 0.16151 0.0
O429 O 0.77042 0.37617 0.17351 0.0
O430 O 0.76725 0.35128 0.14184 0.0
C431 C 0.75952 0.42858 0.18996 0.0
O432 O 0.77169 0.42735 0.16707 0.0
C433 C 0.70913 0.36231 0.1716 0.0
Zn434 Zn 0.6212 0.70462 0.14601 0.0
Zn435 Zn 0.59153 0.71465 0.18022 0.0
O436 O 0.57845 0.71146 0.1386 0.0
O437 O 0.60325 0.70022 0.11122 0.0
O438 O 0.5679 0.72087 0.2062 0.0
O439 O 0.62924 0.68175 0.17101 0.0
O440 O 0.60473 0.69004 0.20117 0.0
C441 C 0.5851 0.70518 0.11371 0.0
C442 C 0.62515 0.74434 0.1703 0.0
O443 O 0.60848 0.74021 0.18254 0.0
O444 O 0.63364 0.73163 0.15366 0.0
C445 C 0.55733 0.73621 0.20077 0.0
O446 O 0.56231 0.74783 0.17839 0.0
C447 C 0.61956 0.6788 0.19476 0.0
C448 C 0.32105 0.22562 0.14699 0.0
C449 C 0.34194 0.22695 0.14748 0.0
C450 C 0.31137 0.20713 0.14841 0.0
C451 C 0.32288 0.1894 0.14971 0.0
C452 C 0.344 0.19063 0.1512 0.0
C453 C 0.35331 0.20948 0.15037 0.0
C454 C 0.2888 0.20656 0.1474 0.0
C455 C 0.35676 0.17208 0.15219 0.0
C456 C 0.29118 0.14434 0.16909 0.0
C457 C 0.28447 0.13871 0.14075 0.0
C458 C 0.30503 0.15997 0.1725 0.0
C459 C 0.31252 0.16982 0.14691 0.0
C460 C 0.30727 0.16277 0.11824 0.0
C461 C 0.29311 0.14746 0.11551 0.0
C462 C 0.31014 0.1671 0.20344 0.0
C463 C 0.31529 0.17249 0.09035 0.0
H464 H 0.3122 0.23913 0.14515 0.0
H465 H 0.36948 0.21047 0.15066 0.0
H466 H 0.28382 0.19971 0.12616 0.0
H467 H 0.2829 0.19722 0.16581 0.0
H468 H 0.28208 0.22168 0.14911 0.0
H469 H 0.37265 0.17555 0.15716 0.0
H470 H 0.35107 0.16149 0.16917 0.0
H471 H 0.35603 0.1644 0.13032 0.0
H472 H 0.28447 0.13763 0.18866 0.0
H473 H 0.28809 0.14296 0.09355 0.0
H474 H 0.30179 0.18106 0.20817 0.0
H475 H 0.3263 0.17055 0.20533 0.0
H476 H 0.30611 0.1559 0.22066 0.0
H477 H 0.30804 0.18725 0.08729 0.0
H478 H 0.31236 0.16332 0.0702 0.0
H479 H 0.33162 0.17505 0.09225 0.0
C480 C 0.84038 0.27353 0.20281 0.0
C481 C 0.86064 0.27329 0.19507 0.0
C482 C 0.83 0.29155 0.20554 0.0
C483 C 0.84019 0.30972 0.20012 0.0
C484 C 0.86125 0.30963 0.19683 0.0
C485 C 0.87133 0.29128 0.19422 0.0
C486 C 0.80764 0.29089 0.21008 0.0
C487 C 0.87278 0.32874 0.19259 0.0
C488 C 0.80706 0.33993 0.15015 0.0
C489 C 0.79656 0.35161 0.17071 0.0
C490 C 0.82281 0.32767 0.15916 0.0
C491 C 0.82823 0.32705 0.18964 0.0
C492 C 0.81915 0.34046 0.20998 0.0
C493 C 0.80328 0.35264 0.20024 0.0
C494 C 0.83225 0.31395 0.13641 0.0
C495 C 0.82497 0.34088 0.2424 0.0
H496 H 0.83223 0.25956 0.20421 0.0
H497 H 0.8871 0.29112 0.18867 0.0
H498 H 0.80289 0.30241 0.22632 0.0
H499 H 0.80003 0.29408 0.18863 0.0
H500 H 0.80254 0.27607 0.21814 0.0
H501 H 0.88869 0.32688 0.19908 0.0
H502 H 0.87232 0.33309 0.16876 0.0
H503 H 0.86614 0.34108 0.20578 0.0
H504 H 0.80219 0.33951 0.12712 0.0
H505 H 0.79533 0.36187 0.21615 0.0
H506 H 0.82797 0.29827 0.14124 0.0
H507 H 0.84877 0.31492 0.13752 0.0
H508 H 0.82749 0.31753 0.11332 0.0
H509 H 0.8154 0.33029 0.25494 0.0
H510 H 0.82263 0.35598 0.25202 0.0
H511 H 0.8408 0.33647 0.24569 0.0
C512 C 0.62308 0.78109 0.18088 0.0
C513 C 0.63455 0.76412 0.17433 0.0
C514 C 0.63177 0.80023 0.18071 0.0
C515 C 0.65238 0.80226 0.17411 0.0
C516 C 0.6642 0.785 0.16949 0.0
C517 C 0.65512 0.7662 0.16947 0.0
C518 C 0.61868 0.81823 0.18579 0.0
C519 C 0.68631 0.7864 0.16286 0.0
C520 C 0.67681 0.84363 0.1312 0.0
C521 C 0.68916 0.852 0.15303 0.0
C522 C 0.66279 0.82891 0.13851 0.0
C523 C 0.66146 0.82215 0.16831 0.0
C524 C 0.67233 0.83213 0.19093 0.0
C525 C 0.68606 0.84712 0.18301 0.0
C526 C 0.65114 0.81905 0.11376 0.0
C527 C 0.67115 0.82553 0.22299 0.0
H528 H 0.60715 0.77954 0.1847 0.0
H529 H 0.6641 0.75308 0.16487 0.0
H530 H 0.62644 0.82956 0.19961 0.0
H531 H 0.61518 0.82526 0.16404 0.0
H532 H 0.60436 0.81414 0.19674 0.0
H533 H 0.69365 0.77153 0.16252 0.0
H534 H 0.68857 0.79354 0.14081 0.0
H535 H 0.69389 0.79583 0.17973 0.0
H536 H 0.67909 0.8476 0.10803 0.0
H537 H 0.69565 0.85359 0.19991 0.0
H538 H 0.63541 0.81649 0.12057 0.0
H539 H 0.65787 0.8043 0.10868 0.0
H540 H 0.65124 0.82814 0.09307 0.0
H541 H 0.6556 0.8216 0.22922 0.0
H542 H 0.67672 0.83728 0.23836 0.0
H543 H 0.6805 0.812 0.22604 0.0
C544 C 0.19998 0.65675 0.11633 0.0
C545 C 0.20873 0.64725 0.14085 0.0
C546 C 0.18452 0.67061 0.12013 0.0
C547 C 0.17798 0.67542 0.14925 0.0
C548 C 0.18558 0.66462 0.17389 0.0
C549 C 0.20083 0.65048 0.16935 0.0
C550 C 0.17649 0.68139 0.09314 0.0
C551 C 0.17902 0.66928 0.20527 0.0
C552 C 0.16587 0.73034 0.15431 0.0
C553 C 0.14499 0.73037 0.15222 0.0
C554 C 0.17662 0.71245 0.15547 0.0
C555 C 0.16626 0.69405 0.15387 0.0
C556 C 0.14507 0.69393 0.15333 0.0
C557 C 0.13463 0.71218 0.15277 0.0
C558 C 0.19918 0.71332 0.15671 0.0
C559 C 0.1335 0.67465 0.15145 0.0
H560 H 0.20589 0.65404 0.09421 0.0
H561 H 0.20758 0.64314 0.18837 0.0
H562 H 0.15996 0.68249 0.0942 0.0
H563 H 0.18254 0.69681 0.09263 0.0
H564 H 0.18073 0.67381 0.07206 0.0
H565 H 0.18313 0.65716 0.22099 0.0
H566 H 0.18637 0.68325 0.21276 0.0
H567 H 0.16263 0.6717 0.20634 0.0
H568 H 0.17389 0.74441 0.15432 0.0
H569 H 0.11846 0.71219 0.1511 0.0
H570 H 0.20548 0.70809 0.13523 0.0
H571 H 0.20491 0.70332 0.17444 0.0
H572 H 0.20478 0.72867 0.161 0.0
H573 H 0.13473 0.66855 0.12855 0.0
H574 H 0.11742 0.67684 0.15665 0.0
H575 H 0.13975 0.66333 0.16688 0.0
C576 C 0.29058 0.85649 0.38382 0.0
C577 C 0.28174 0.86703 0.36035 0.0
C578 C 0.30655 0.84342 0.37872 0.0
C579 C 0.3136 0.84054 0.34929 0.0
C580 C 0.30587 0.85242 0.32589 0.0
C581 C 0.29005 0.86569 0.33175 0.0
C582 C 0.31464 0.8314 0.40449 0.0
C583 C 0.31301 0.84986 0.29426 0.0
C584 C 0.35815 0.80542 0.34461 0.0
C585 C 0.34831 0.78698 0.34316 0.0
C586 C 0.34717 0.82336 0.34465 0.0
C587 C 0.32603 0.82265 0.34276 0.0
C588 C 0.31632 0.80407 0.3387 0.0
C589 C 0.32756 0.78649 0.33925 0.0
C590 C 0.35808 0.84285 0.34896 0.0
C591 C 0.29385 0.80258 0.33598 0.0
H592 H 0.28439 0.85776 0.40606 0.0
H593 H 0.28327 0.87388 0.31355 0.0
H594 H 0.30929 0.81576 0.40268 0.0
H595 H 0.33121 0.83108 0.40397 0.0
H596 H 0.30973 0.83747 0.42632 0.0
H597 H 0.30879 0.86278 0.2801 0.0
H598 H 0.32947 0.84793 0.29345 0.0
H599 H 0.30615 0.83623 0.28464 0.0
H600 H 0.37422 0.80577 0.34767 0.0
H601 H 0.31999 0.77221 0.33772 0.0
H602 H 0.35653 0.84767 0.37248 0.0
H603 H 0.35157 0.85474 0.33478 0.0
H604 H 0.37426 0.84142 0.34381 0.0
H605 H 0.28684 0.80637 0.35765 0.0
H606 H 0.28891 0.78736 0.32948 0.0
H607 H 0.28821 0.81336 0.31923 0.0
C608 C 0.18848 0.36412 0.35832 0.0
C609 C 0.19912 0.37536 0.33738 0.0
C610 C 0.17359 0.35078 0.34941 0.0
C611 C 0.16927 0.34864 0.31869 0.0
C612 C 0.17798 0.36199 0.29793 0.0
C613 C 0.193 0.37524 0.30754 0.0
C614 C 0.16442 0.33722 0.37257 0.0
C615 C 0.173 0.36095 0.26524 0.0
C616 C 0.16444 0.29367 0.30651 0.0
C617 C 0.144 0.29085 0.31169 0.0
C618 C 0.17262 0.31283 0.30498 0.0
C619 C 0.15998 0.32962 0.30869 0.0
C620 C 0.13899 0.32688 0.3098 0.0
C621 C 0.13117 0.3074 0.31145 0.0
C622 C 0.19508 0.31492 0.30305 0.0
C623 C 0.12492 0.34438 0.31217 0.0
H624 H 0.19292 0.36459 0.38154 0.0
H625 H 0.20105 0.38414 0.29133 0.0
H626 H 0.14798 0.33649 0.36979 0.0
H627 H 0.1704 0.32187 0.36981 0.0
H628 H 0.16773 0.34226 0.39562 0.0
H629 H 0.17509 0.37571 0.25443 0.0
H630 H 0.18318 0.35019 0.25416 0.0
H631 H 0.15741 0.35586 0.26159 0.0
H632 H 0.17431 0.28083 0.30587 0.0
H633 H 0.11528 0.30526 0.31498 0.0
H634 H 0.20102 0.31998 0.32486 0.0
H635 H 0.19923 0.32625 0.28619 0.0
H636 H 0.20249 0.30061 0.29715 0.0
H637 H 0.1227 0.3482 0.33597 0.0
H638 H 0.11007 0.34067 0.30257 0.0
H639 H 0.13099 0.35773 0.30067 0.0
C640 C 0.69476 0.15902 0.29507 0.0
C641 C 0.69507 0.13864 0.30189 0.0
C642 C 0.67689 0.1698 0.29528 0.0
C643 C 0.65883 0.15995 0.3027 0.0
C644 C 0.65874 0.13892 0.30625 0.0
C645 C 0.67698 0.12842 0.30583 0.0
C646 C 0.67775 0.19215 0.29079 0.0
C647 C 0.63974 0.12776 0.31322 0.0
C648 C 0.62937 0.19561 0.34986 0.0
C649 C 0.61782 0.20539 0.32831 0.0
C650 C 0.64124 0.17918 0.34237 0.0
C651 C 0.64159 0.17233 0.31253 0.0
C652 C 0.62819 0.18063 0.2915 0.0
C653 C 0.61643 0.19718 0.29964 0.0
C654 C 0.65502 0.17059 0.36574 0.0
C655 C 0.62758 0.17331 0.25976 0.0
H656 H 0.70876 0.16684 0.29153 0.0
H657 H 0.6772 0.11262 0.31098 0.0
H658 H 0.6659 0.19707 0.27521 0.0
H659 H 0.67517 0.19977 0.3124 0.0
H660 H 0.69244 0.19709 0.28192 0.0
H661 H 0.64094 0.11179 0.30678 0.0
H662 H 0.63685 0.12846 0.33752 0.0
H663 H 0.62672 0.13449 0.30166 0.0
H664 H 0.63014 0.20161 0.37226 0.0
H665 H 0.60732 0.20451 0.28294 0.0
H666 H 0.67065 0.17508 0.3608 0.0
H667 H 0.65442 0.15406 0.36552 0.0
H668 H 0.6512 0.17588 0.38849 0.0
H669 H 0.63969 0.18061 0.24687 0.0
H670 H 0.61312 0.17702 0.24896 0.0
H671 H 0.62996 0.15694 0.2586 0.0
C672 C 0.80489 0.61824 0.30577 0.0
C673 C 0.79705 0.62497 0.33298 0.0
C674 C 0.82083 0.62843 0.29198 0.0
C675 C 0.82877 0.64579 0.30562 0.0
C676 C 0.82201 0.65145 0.33434 0.0
C677 C 0.8064 0.64088 0.34764 0.0
C678 C 0.82816 0.6212 0.26212 0.0
C679 C 0.83005 0.66971 0.35016 0.0
C680 C 0.8711 0.68097 0.29291 0.0
C681 C 0.86002 0.69751 0.28332 0.0
C682 C 0.86188 0.66216 0.29546 0.0
C683 C 0.84127 0.6603 0.28881 0.0
C684 C 0.83135 0.67609 0.27396 0.0
C685 C 0.84089 0.69459 0.27148 0.0
C686 C 0.87337 0.64513 0.30912 0.0
C687 C 0.80963 0.67456 0.26519 0.0
H688 H 0.79796 0.60572 0.29451 0.0
H689 H 0.80081 0.64582 0.36908 0.0
H690 H 0.8179 0.62661 0.24447 0.0
H691 H 0.84348 0.62658 0.25706 0.0
H692 H 0.82804 0.60463 0.26129 0.0
H693 H 0.82356 0.6716 0.37276 0.0
H694 H 0.84652 0.66871 0.35243 0.0
H695 H 0.82662 0.68331 0.33701 0.0
H696 H 0.88605 0.68313 0.30162 0.0
H697 H 0.83253 0.70736 0.26339 0.0
H698 H 0.86806 0.63057 0.30034 0.0
H699 H 0.8711 0.64516 0.33359 0.0
H700 H 0.88964 0.64662 0.30473 0.0
H701 H 0.80667 0.66018 0.25381 0.0
H702 H 0.80505 0.68693 0.25021 0.0
H703 H 0.80017 0.67512 0.28549 0.0
C704 C 0.72325 0.8678 0.8851 0.0
C705 C 0.73065 0.87861 0.86078 0.0
C706 C 0.7067 0.85515 0.88204 0.0
C707 C 0.69748 0.85303 0.85384 0.0
C708 C 0.70391 0.86506 0.82974 0.0
C709 C 0.72042 0.87782 0.83354 0.0
C710 C 0.70013 0.84287 0.9085 0.0
C711 C 0.69443 0.86333 0.79938 0.0
C712 C 0.68015 0.79993 0.84413 0.0
C713 C 0.65989 0.80129 0.85163 0.0
C714 C 0.69216 0.81697 0.84236 0.0
C715 C 0.68376 0.83587 0.8488 0.0
C716 C 0.66295 0.83752 0.8543 0.0
C717 C 0.65115 0.82011 0.85547 0.0
C718 C 0.71418 0.81449 0.83583 0.0
C719 C 0.65343 0.8574 0.86116 0.0
H720 H 0.73087 0.86863 0.90637 0.0
H721 H 0.72601 0.88624 0.81468 0.0
H722 H 0.68363 0.8433 0.91088 0.0
H723 H 0.70453 0.82707 0.90505 0.0
H724 H 0.70698 0.84818 0.9296 0.0
H725 H 0.69828 0.87621 0.78491 0.0
H726 H 0.6998 0.84949 0.7884 0.0
H727 H 0.67792 0.86226 0.80121 0.0
H728 H 0.68684 0.78534 0.84083 0.0
H729 H 0.63547 0.82113 0.86137 0.0
H730 H 0.72293 0.8175 0.85634 0.0
H731 H 0.71908 0.82535 0.81867 0.0
H732 H 0.71784 0.7992 0.82797 0.0
H733 H 0.65711 0.86173 0.88437 0.0
H734 H 0.6369 0.8568 0.85895 0.0
H735 H 0.65932 0.86922 0.84626 0.0
C736 C 0.11982 0.68909 0.7935 0.0
C737 C 0.11699 0.69233 0.82405 0.0
C738 C 0.13438 0.67545 0.78354 0.0
C739 C 0.14635 0.66528 0.8047 0.0
C740 C 0.14129 0.66636 0.83528 0.0
C741 C 0.12662 0.67986 0.84454 0.0
C742 C 0.13845 0.67369 0.75064 0.0
C743 C 0.15323 0.65543 0.8587 0.0
C744 C 0.19126 0.63138 0.79508 0.0
C745 C 0.20675 0.64513 0.79997 0.0
C746 C 0.17126 0.63784 0.79318 0.0
C747 C 0.16681 0.65839 0.79672 0.0
C748 C 0.18265 0.67239 0.79849 0.0
C749 C 0.20236 0.66557 0.79988 0.0
C750 C 0.15496 0.62247 0.78972 0.0
C751 C 0.17879 0.69451 0.80198 0.0
H752 H 0.11217 0.69851 0.77752 0.0
H753 H 0.12405 0.68204 0.86818 0.0
H754 H 0.15026 0.68448 0.74422 0.0
H755 H 0.14376 0.65849 0.74482 0.0
H756 H 0.12485 0.67715 0.73741 0.0
H757 H 0.14591 0.65596 0.88089 0.0
H758 H 0.15533 0.63959 0.85232 0.0
H759 H 0.16826 0.66233 0.86067 0.0
H760 H 0.19457 0.61554 0.79465 0.0
H761 H 0.21432 0.67632 0.80284 0.0
H762 H 0.14137 0.62889 0.77929 0.0
H763 H 0.15083 0.61657 0.81196 0.0
H764 H 0.16023 0.60969 0.77605 0.0
H765 H 0.16868 0.69991 0.78419 0.0
H766 H 0.19278 0.70344 0.80114 0.0
H767 H 0.17137 0.69738 0.82367 0.0
C768 C 0.37144 0.17404 0.84101 0.0
C769 C 0.37871 0.18719 0.81938 0.0
C770 C 0.3582 0.15872 0.8334 0.0
C771 C 0.35207 0.15664 0.80337 0.0
C772 C 0.36193 0.16779 0.78092 0.0
C773 C 0.37514 0.18319 0.78923 0.0
C774 C 0.3486 0.14681 0.85812 0.0
C775 C 0.35681 0.16509 0.7485 0.0
C776 C 0.31045 0.11836 0.79981 0.0
C777 C 0.29401 0.13062 0.80627 0.0
C778 C 0.32954 0.12671 0.79522 0.0
C779 C 0.33209 0.14766 0.7976 0.0
C780 C 0.31507 0.16007 0.8008 0.0
C781 C 0.29629 0.15138 0.80492 0.0
C782 C 0.34704 0.11295 0.79024 0.0
C783 C 0.31684 0.18253 0.80307 0.0
H784 H 0.37454 0.17699 0.86431 0.0
H785 H 0.38095 0.19326 0.77242 0.0
H786 H 0.33299 0.15199 0.86143 0.0
H787 H 0.34807 0.13076 0.85225 0.0
H788 H 0.35674 0.14847 0.87954 0.0
H789 H 0.36948 0.16964 0.73402 0.0
H790 H 0.35281 0.14935 0.74359 0.0
H791 H 0.34377 0.17458 0.74282 0.0
H792 H 0.30872 0.10227 0.80032 0.0
H793 H 0.2835 0.16094 0.80906 0.0
H794 H 0.35267 0.10759 0.81205 0.0
H795 H 0.35948 0.12055 0.77844 0.0
H796 H 0.34241 0.09964 0.77718 0.0
H797 H 0.325 0.18656 0.82373 0.0
H798 H 0.30202 0.19001 0.80354 0.0
H799 H 0.32543 0.18853 0.78397 0.0
C800 C 0.83468 0.28614 0.83427 0.0
C801 C 0.85552 0.28696 0.83698 0.0
C802 C 0.82311 0.30351 0.83452 0.0
C803 C 0.83255 0.32226 0.83815 0.0
C804 C 0.85371 0.32332 0.83948 0.0
C805 C 0.86502 0.30558 0.83862 0.0
C806 C 0.80063 0.30164 0.83243 0.0
C807 C 0.8643 0.343 0.84352 0.0
C808 C 0.79606 0.36446 0.82421 0.0
C809 C 0.78743 0.36636 0.85252 0.0
C810 C 0.81215 0.35132 0.81942 0.0
C811 C 0.81985 0.34015 0.84361 0.0
C812 C 0.81247 0.34364 0.8727 0.0
C813 C 0.79622 0.35654 0.87675 0.0
C814 C 0.81957 0.34805 0.78807 0.0
C815 C 0.82052 0.33239 0.89925 0.0
H816 H 0.82733 0.27175 0.83256 0.0
H817 H 0.88114 0.30622 0.84076 0.0
H818 H 0.79377 0.30587 0.85402 0.0
H819 H 0.7947 0.31194 0.81523 0.0
H820 H 0.79582 0.28621 0.82685 0.0
H821 H 0.88059 0.34174 0.83909 0.0
H822 H 0.8579 0.35455 0.82863 0.0
H823 H 0.86222 0.34822 0.86677 0.0
H824 H 0.78933 0.37206 0.80542 0.0
H825 H 0.78976 0.35822 0.89876 0.0
H826 H 0.81321 0.33393 0.7793 0.0
H827 H 0.83608 0.34662 0.78761 0.0
H828 H 0.81505 0.3604 0.773 0.0
H829 H 0.8152 0.31671 0.89843 0.0
H830 H 0.81553 0.33908 0.92064 0.0
H831 H 0.83709 0.33208 0.89885 0.0
C832 C 0.64921 0.19751 0.6483 0.0
C833 C 0.65784 0.21635 0.65248 0.0
C834 C 0.66126 0.18029 0.64713 0.0
C835 C 0.68224 0.18213 0.6506 0.0
C836 C 0.69064 0.20095 0.65762 0.0
C837 C 0.67835 0.21783 0.6582 0.0
C838 C 0.65173 0.16049 0.63977 0.0
C839 C 0.71287 0.20359 0.66209 0.0
C840 C 0.71993 0.14007 0.65753 0.0
C841 C 0.7286 0.14045 0.62908 0.0
C842 C 0.70368 0.15255 0.66452 0.0
C843 C 0.69591 0.16548 0.64245 0.0
C844 C 0.70357 0.16463 0.61307 0.0
C845 C 0.71989 0.15223 0.60682 0.0
C846 C 0.69586 0.15293 0.69603 0.0
C847 C 0.69553 0.17792 0.58869 0.0
H848 H 0.63333 0.19639 0.64379 0.0
H849 H 0.68497 0.23241 0.66177 0.0
H850 H 0.65429 0.15705 0.6159 0.0
H851 H 0.65853 0.14828 0.65301 0.0
H852 H 0.63535 0.16069 0.64384 0.0
H853 H 0.71663 0.21859 0.67099 0.0
H854 H 0.71874 0.19213 0.67762 0.0
H855 H 0.72067 0.20164 0.64047 0.0
H856 H 0.72654 0.13091 0.67481 0.0
H857 H 0.7263 0.15231 0.58464 0.0
H858 H 0.67931 0.15391 0.69631 0.0
H859 H 0.70175 0.16633 0.7076 0.0
H860 H 0.70055 0.13951 0.70876 0.0
H861 H 0.67897 0.17726 0.58808 0.0
H862 H 0.70139 0.1737 0.56641 0.0
H863 H 0.69985 0.19363 0.59323 0.0
C864 C 0.78467 0.64685 0.67314 0.0
C865 C 0.77554 0.6422 0.64592 0.0
C866 C 0.79994 0.66124 0.67463 0.0
C867 C 0.80639 0.67083 0.6482 0.0
C868 C 0.79849 0.66472 0.62041 0.0
C869 C 0.78299 0.65066 0.61964 0.0
C870 C 0.80786 0.66741 0.70472 0.0
C871 C 0.80527 0.67419 0.59161 0.0
C872 C 0.81991 0.72562 0.64813 0.0
C873 C 0.84075 0.72508 0.64518 0.0
C874 C 0.80876 0.70804 0.65075 0.0
C875 C 0.81862 0.68936 0.64974 0.0
C876 C 0.83976 0.68868 0.64781 0.0
C877 C 0.85064 0.70663 0.64585 0.0
C878 C 0.78628 0.7095 0.65343 0.0
C879 C 0.85077 0.66906 0.6463 0.0
H880 H 0.77892 0.64036 0.69352 0.0
H881 H 0.77612 0.64688 0.5985 0.0
H882 H 0.82431 0.66935 0.70407 0.0
H883 H 0.80123 0.68199 0.71103 0.0
H884 H 0.80406 0.65635 0.72227 0.0
H885 H 0.80005 0.66569 0.57184 0.0
H886 H 0.79923 0.68959 0.59015 0.0
H887 H 0.82181 0.67525 0.59085 0.0
H888 H 0.81225 0.73988 0.64801 0.0
H889 H 0.86676 0.7062 0.64348 0.0
H890 H 0.78093 0.70041 0.67247 0.0
H891 H 0.77919 0.70348 0.63298 0.0
H892 H 0.78114 0.72512 0.65659 0.0
H893 H 0.84541 0.65874 0.66388 0.0
H894 H 0.86718 0.67102 0.64872 0.0
H895 H 0.84777 0.66184 0.62452 0.0
C896 C 0.29748 0.82006 0.68867 0.0
C897 C 0.295 0.84078 0.68686 0.0
C898 C 0.31651 0.81146 0.6884 0.0
C899 C 0.33356 0.82389 0.68603 0.0
C900 C 0.33125 0.84491 0.68693 0.0
C901 C 0.31188 0.85317 0.68739 0.0
C902 C 0.3182 0.78896 0.68802 0.0
C903 C 0.34903 0.85868 0.68503 0.0
C904 C 0.38015 0.79217 0.69135 0.0
C905 C 0.38208 0.78619 0.66155 0.0
C906 C 0.36564 0.80631 0.69968 0.0
C907 C 0.35295 0.81456 0.67764 0.0
C908 C 0.35652 0.81026 0.64723 0.0
C909 C 0.37099 0.79607 0.63959 0.0
C910 C 0.36266 0.8109 0.73225 0.0
C911 C 0.34363 0.81899 0.62288 0.0
H912 H 0.28443 0.81046 0.6888 0.0
H913 H 0.30999 0.86922 0.6861 0.0
H914 H 0.32322 0.78396 0.66567 0.0
H915 H 0.32948 0.78386 0.70443 0.0
H916 H 0.30375 0.78154 0.69312 0.0
H917 H 0.34544 0.87375 0.69387 0.0
H918 H 0.36199 0.85257 0.69744 0.0
H919 H 0.35354 0.86033 0.66139 0.0
H920 H 0.38883 0.78471 0.70842 0.0
H921 H 0.37275 0.79179 0.61644 0.0
H922 H 0.35026 0.80161 0.74105 0.0
H923 H 0.35855 0.82679 0.7356 0.0
H924 H 0.37631 0.80755 0.74542 0.0
H925 H 0.32859 0.812 0.62365 0.0
H926 H 0.35008 0.8164 0.60041 0.0
H927 H 0.34167 0.83527 0.62616 0.0
C928 C 0.16979 0.28305 0.66671 0.0
C929 C 0.14887 0.2836 0.66721 0.0
C930 C 0.18112 0.30051 0.6688 0.0
C931 C 0.17132 0.31919 0.67095 0.0
C932 C 0.15017 0.31984 0.673 0.0
C933 C 0.13913 0.30193 0.67131 0.0
C934 C 0.20364 0.29898 0.6671 0.0
C935 C 0.13915 0.33941 0.67524 0.0
C936 C 0.20956 0.35905 0.68826 0.0
C937 C 0.21643 0.36328 0.65946 0.0
C938 C 0.1932 0.34618 0.69265 0.0
C939 C 0.18348 0.33768 0.66763 0.0
C940 C 0.18889 0.34397 0.63863 0.0
C941 C 0.20545 0.35651 0.6349 0.0
C942 C 0.18779 0.34004 0.72393 0.0
C943 C 0.17864 0.33572 0.61133 0.0
H944 H 0.17737 0.26885 0.66406 0.0
H945 H 0.12294 0.30238 0.67173 0.0
H946 H 0.20898 0.30562 0.6459 0.0
H947 H 0.21064 0.30744 0.6856 0.0
H948 H 0.20894 0.28328 0.66815 0.0
H949 H 0.12352 0.3373 0.68296 0.0
H950 H 0.14689 0.34981 0.69063 0.0
H951 H 0.13875 0.34658 0.65298 0.0
H952 H 0.21802 0.36431 0.7073 0.0
H953 H 0.21059 0.36003 0.6126 0.0
H954 H 0.19463 0.32531 0.72882 0.0
H955 H 0.17137 0.33845 0.72646 0.0
H956 H 0.19335 0.35095 0.74063 0.0
H957 H 0.18374 0.32017 0.60747 0.0
H958 H 0.18209 0.34464 0.59112 0.0
H959 H 0.16221 0.33535 0.61449 0.0
C960 C 0.24431 0.05457 0.06314 0.0
C961 C 0.22657 0.06468 0.07013 0.0
C962 C 0.24835 0.04911 0.0335 0.0
C963 C 0.23453 0.05437 0.01098 0.0
C964 C 0.21506 0.06056 0.01917 0.0
C965 C 0.21132 0.06571 0.04885 0.0
C966 C 0.26856 0.04066 0.02577 0.0
C967 C 0.19936 0.06518 0.99608 0.0
C968 C 0.25226 0.08841 0.94997 0.0
C969 C 0.24726 0.07762 0.92433 0.0
C970 C 0.2496 0.0803 0.97831 0.0
C971 C 0.24205 0.06061 0.98124 0.0
C972 C 0.23893 0.04886 0.95541 0.0
C973 C 0.24142 0.05758 0.92711 0.0
C974 C 0.25345 0.09355 0.00503 0.0
C975 C 0.23193 0.0275 0.95725 0.0
H976 H 0.25598 0.05323 0.07977 0.0
H977 H 0.19731 0.07291 0.05457 0.0
H978 H 0.26765 0.03097 0.00574 0.0
H979 H 0.27906 0.05304 0.02086 0.0
H980 H 0.27477 0.03191 0.04463 0.0
H981 H 0.18431 0.06697 0.0062 0.0
H982 H 0.20329 0.07927 0.98447 0.0
H983 H 0.19867 0.05314 0.97918 0.0
H984 H 0.25734 0.10372 0.948 0.0
H985 H 0.2379 0.04899 0.90734 0.0
H986 H 0.26427 0.08634 0.02029 0.0
H987 H 0.23935 0.09597 0.01753 0.0
H988 H 0.25953 0.10838 -0.00132 0.0
H989 H 0.23468 0.0208 0.97946 0.0
H990 H 0.23957 0.01832 0.94009 0.0
H991 H 0.21568 0.02687 0.95245 0.0
C992 C 0.91253 0.20876 0.9418 0.0
C993 C 0.9183 0.22367 0.92173 0.0
C994 C 0.91771 0.20997 0.97189 0.0
C995 C 0.9289 0.22657 0.98206 0.0
C996 C 0.93742 0.23987 0.96108 0.0
C997 C 0.93191 0.23835 0.93093 0.0
C998 C 0.90881 0.195 0.99326 0.0
C999 C 0.95047 0.257 0.97085 0.0
C1000 C 0.90308 0.24492 0.05083 0.0
C1001 C 0.91332 0.23453 0.07315 0.0
C1002 C 0.90936 0.24411 0.0212 0.0
C1003 C 0.92644 0.23269 0.01367 0.0
C1004 C 0.93822 0.22414 0.03659 0.0
C1005 C 0.93144 0.22507 0.06626 0.0
C1006 C 0.89641 0.25382 -0.0023 0.0
C1007 C 0.95706 0.21267 0.02979 0.0
H1008 H 0.90246 0.19705 0.93447 0.0
H1009 H 0.93672 0.24971 0.91531 0.0
H1010 H 0.92018 0.18993 0.00952 0.0
H1011 H 0.89647 0.20213 0.00593 0.0
H1012 H 0.90271 0.18172 0.98155 0.0
H1013 H 0.96056 0.26186 0.95259 0.0
H1014 H 0.94092 0.26987 0.97709 0.0
H1015 H 0.95959 0.25288 0.99056 0.0
H1016 H 0.88936 0.25274 0.05625 0.0
H1017 H 0.9396 0.21728 0.08356 0.0
H1018 H 0.88914 0.24213 0.98393 0.0
H1019 H 0.90562 0.26319 0.98268 0.0
H1020 H 0.88453 0.26335 0.00753 0.0
H1021 H 0.95341 0.19659 0.02748 0.0
H1022 H 0.96799 0.21416 0.04827 0.0
H1023 H 0.96416 0.21778 0.0088 0.0
C1024 C 0.80275 0.9434 0.95735 0.0
C1025 C 0.79019 0.94646 0.9328 0.0
C1026 C 0.79541 0.94589 0.98631 0.0
C1027 C 0.7752 0.95156 0.99025 0.0
C1028 C 0.7646 0.95966 0.96583 0.0
C1029 C 0.77218 0.95681 0.93694 0.0
C1030 C 0.80793 0.9387 0.01208 0.0
C1031 C 0.74383 0.96791 0.96971 0.0
C1032 C 0.74965 0.91048 0.03276 0.0
C1033 C 0.75057 0.9175 0.06207 0.0
C1034 C 0.75628 0.92212 0.00898 0.0
C1035 C 0.76383 0.94158 0.01451 0.0
C1036 C 0.76293 0.94955 0.04372 0.0
C1037 C 0.75641 0.93732 0.06732 0.0
C1038 C 0.75648 0.9128 0.97826 0.0
C1039 C 0.76973 0.97049 0.05068 0.0
H1040 H 0.81712 0.93622 0.95409 0.0
H1041 H 0.76267 0.95999 0.91797 0.0
H1042 H 0.80609 0.9487 0.03154 0.0
H1043 H 0.80294 0.92353 0.01872 0.0
H1044 H 0.82404 0.93796 0.00618 0.0
H1045 H 0.74029 0.97889 0.95194 0.0
H1046 H 0.73281 0.95556 0.96822 0.0
H1047 H 0.74214 0.97515 0.99181 0.0
H1048 H 0.74459 0.89538 0.02847 0.0
H1049 H 0.75682 0.94298 0.08993 0.0
H1050 H 0.77205 0.91166 0.96997 0.0
H1051 H 0.74792 0.92216 0.96242 0.0
H1052 H 0.74986 0.89759 0.97801 0.0
H1053 H 0.78464 0.96993 0.06145 0.0
H1054 H 0.75932 0.97757 0.0668 0.0
H1055 H 0.7707 0.98002 0.03053 0.0
C1056 C 0.05882 0.74049 0.94515 0.0
C1057 C 0.05708 0.75395 0.9215 0.0
C1058 C 0.05637 0.74693 0.97457 0.0
C1059 C 0.05198 0.76728 0.98006 0.0
C1060 C 0.04601 0.77963 0.95605 0.0
C1061 C 0.04895 0.77289 0.9267 0.0
C1062 C 0.06226 0.73291 -0.00061 0.0
C1063 C 0.03961 0.8009 0.96121 0.0
C1064 C 0.06085 0.78046 0.06134 0.0
C1065 C 0.08122 0.78551 0.0605 0.0
C1066 C 0.05032 0.77612 0.03493 0.0
C1067 C 0.06057 0.77651 0.00735 0.0
C1068 C 0.08075 0.78302 0.00636 0.0
C1069 C 0.09065 0.78767 0.03284 0.0
C1070 C 0.02843 0.7708 0.03661 0.0
C1071 C 0.09252 0.78366 0.97758 0.0
H1072 H 0.06489 0.72574 0.94093 0.0
H1073 H 0.04738 0.78327 0.90833 0.0
H1074 H 0.07777 0.73636 0.00656 0.0
H1075 H 0.05234 0.73476 0.01896 0.0
H1076 H 0.06174 0.71707 0.99213 0.0
H1077 H 0.03016 0.80639 0.9426 0.0
H1078 H 0.03122 0.80233 0.98242 0.0
H1079 H 0.05302 0.81061 0.96263 0.0
H1080 H 0.05331 0.77924 0.08263 0.0
H1081 H 0.10627 0.7919 0.03185 0.0
H1082 H 0.02513 0.75714 0.02356 0.0
H1083 H 0.01954 0.7831 0.02671 0.0
H1084 H 0.02336 0.76852 0.05992 0.0
H1085 H 0.09327 0.76852 0.96761 0.0
H1086 H 0.10805 0.78911 0.98084 0.0
H1087 H 0.08507 0.79362 0.96131 0.0
C1088 C 0.20239 0.92484 0.46421 0.0
C1089 C 0.21882 0.92705 0.44519 0.0
C1090 C 0.20487 0.92578 0.49514 0.0
C1091 C 0.22429 0.92853 0.50691 0.0
C1092 C 0.23994 0.93467 0.48775 0.0
C1093 C 0.23701 0.93387 0.45679 0.0
C1094 C 0.18748 0.9203 0.51489 0.0
C1095 C 0.26061 0.93878 0.49959 0.0
C1096 C 0.23082 0.91737 0.58965 0.0
C1097 C 0.23456 0.89675 0.58875 0.0
C1098 C 0.2282 0.92836 0.56319 0.0
C1099 C 0.22932 0.91841 0.5354 0.0
C1100 C 0.23392 0.89776 0.53452 0.0
C1101 C 0.23643 0.88726 0.56111 0.0
C1102 C 0.22348 0.95032 0.56529 0.0
C1103 C 0.23557 0.88642 0.50546 0.0
H1104 H 0.18819 0.91996 0.45511 0.0
H1105 H 0.2497 0.93585 0.44204 0.0
H1106 H 0.18847 0.90424 0.52076 0.0
H1107 H 0.18782 0.92903 0.53587 0.0
H1108 H 0.17295 0.9229 0.50354 0.0
H1109 H 0.26935 0.94819 0.48392 0.0
H1110 H 0.25992 0.9463 0.52159 0.0
H1111 H 0.26866 0.92442 0.50251 0.0
H1112 H 0.22945 0.92484 0.61097 0.0
H1113 H 0.23965 0.87142 0.56016 0.0
H1114 H 0.20703 0.95228 0.5666 0.0
H1115 H 0.22895 0.95869 0.54559 0.0
H1116 H 0.23009 0.95698 0.5857 0.0
H1117 H 0.22101 0.88667 0.49365 0.0
H1118 H 0.23997 0.87059 0.50878 0.0
H1119 H 0.24682 0.89357 0.49078 0.0
C1120 C 0.07431 0.24177 0.56805 0.0
C1121 C 0.08411 0.22457 0.57808 0.0
C1122 C 0.07022 0.24425 0.53755 0.0
C1123 C 0.07627 0.22926 0.51721 0.0
C1124 C 0.08278 0.21055 0.52818 0.0
C1125 C 0.08681 0.2085 0.55858 0.0
C1126 C 0.06216 0.26397 0.52679 0.0
C1127 C 0.08859 0.19381 0.50743 0.0
C1128 C 0.07762 0.23257 0.43259 0.0
C1129 C 0.09754 0.23846 0.42817 0.0
C1130 C 0.06973 0.23079 0.46156 0.0
C1131 C 0.08213 0.23488 0.48639 0.0
C1132 C 0.10179 0.24214 0.48177 0.0
C1133 C 0.10917 0.24385 0.45281 0.0
C1134 C 0.04854 0.22353 0.46532 0.0
C1135 C 0.11561 0.247 0.50745 0.0
H1136 H 0.072 0.25414 0.58324 0.0
H1137 H 0.09405 0.19504 0.56658 0.0
H1138 H 0.07482 0.27386 0.52063 0.0
H1139 H 0.05267 0.26194 0.50675 0.0
H1140 H 0.05332 0.27155 0.54441 0.0
H1141 H 0.08985 0.17934 0.51935 0.0
H1142 H 0.07752 0.19222 0.48923 0.0
H1143 H 0.1033 0.19725 0.49718 0.0
H1144 H 0.06846 0.2286 0.41359 0.0
H1145 H 0.12442 0.24888 0.44956 0.0
H1146 H 0.04179 0.22891 0.48641 0.0
H1147 H 0.04847 0.20697 0.46561 0.0
H1148 H 0.03905 0.22844 0.4464 0.0
H1149 H 0.10846 0.25791 0.52265 0.0
H1150 H 0.1301 0.25333 0.49988 0.0
H1151 H 0.11875 0.23327 0.52046 0.0
C1152 C 0.79865 0.07503 0.52334 0.0
C1153 C 0.78593 0.07235 0.54776 0.0
C1154 C 0.79253 0.06949 0.49473 0.0
C1155 C 0.77321 0.06129 0.4908 0.0
C1156 C 0.76236 0.0547 0.516 0.0
C1157 C 0.76879 0.0605 0.54452 0.0
C1158 C 0.80522 0.07567 0.46852 0.0
C1159 C 0.74252 0.04431 0.51266 0.0
C1160 C 0.7473 0.09325 0.43412 0.0
C1161 C 0.75102 0.08277 0.40775 0.0
C1162 C 0.75287 0.08546 0.46171 0.0
C1163 C 0.76231 0.06652 0.46305 0.0
C1164 C 0.76409 0.05489 0.43683 0.0
C1165 C 0.75849 0.06323 0.40929 0.0
C1166 C 0.75018 0.09842 0.48903 0.0
C1167 C 0.77306 0.03425 0.43724 0.0
H1168 H 0.81228 0.08361 0.52607 0.0
H1169 H 0.75913 0.05791 0.56353 0.0
H1170 H 0.80536 0.0638 0.45133 0.0
H1171 H 0.79883 0.08934 0.45831 0.0
H1172 H 0.82087 0.07891 0.47523 0.0
H1173 H 0.73915 0.03498 0.53249 0.0
H1174 H 0.73049 0.05561 0.51046 0.0
H1175 H 0.74231 0.03478 0.49243 0.0
H1176 H 0.74097 0.10813 0.43308 0.0
H1177 H 0.76108 0.05489 0.38896 0.0
H1178 H 0.765 0.10252 0.49831 0.0
H1179 H 0.74187 0.09019 0.50649 0.0
H1180 H 0.74191 0.11241 0.48411 0.0
H1181 H 0.78888 0.03509 0.42992 0.0
H1182 H 0.7651 0.02439 0.42128 0.0
H1183 H 0.77254 0.02736 0.45969 0.0
C1184 C 0.91636 0.76681 0.5438 0.0
C1185 C 0.90169 0.78118 0.55 0.0
C1186 C 0.92173 0.76248 0.5142 0.0
C1187 C 0.91205 0.77267 0.49064 0.0
C1188 C 0.89934 0.789 0.49715 0.0
C1189 C 0.89433 0.79305 0.52678 0.0
C1190 C 0.93611 0.74564 0.50817 0.0
C1191 C 0.88901 0.80063 0.4728 0.0
C1192 C 0.91716 0.76595 0.40712 0.0
C1193 C 0.90034 0.75402 0.40144 0.0
C1194 C 0.9226 0.77076 0.43655 0.0
C1195 C 0.91083 0.76357 0.4605 0.0
C1196 C 0.89511 0.74994 0.45478 0.0
C1197 C 0.89013 0.74532 0.42537 0.0
C1198 C 0.93995 0.78471 0.44169 0.0
C1199 C 0.88225 0.74162 0.47954 0.0
H1200 H 0.92237 0.75779 0.56172 0.0
H1201 H 0.88339 0.80455 0.53157 0.0
H1202 H 0.92759 0.73167 0.50436 0.0
H1203 H 0.94517 0.74864 0.48796 0.0
H1204 H 0.9463 0.74319 0.52737 0.0
H1205 H 0.88176 0.81439 0.48141 0.0
H1206 H 0.89978 0.80488 0.45516 0.0
H1207 H 0.87733 0.79114 0.4624 0.0
H1208 H 0.92528 0.77253 0.38868 0.0
H1209 H 0.87743 0.73568 0.42109 0.0
H1210 H 0.94738 0.78174 0.46333 0.0
H1211 H 0.93444 0.80032 0.44192 0.0
H1212 H 0.95117 0.7834 0.42356 0.0
H1213 H 0.89171 0.73497 0.49721 0.0
H1214 H 0.87169 0.73001 0.47148 0.0
H1215 H 0.87344 0.75385 0.4898 0.0
C1216 C 0.69791 0.57222 0.56258 0.0
C1217 C 0.71139 0.5696 0.58611 0.0
C1218 C 0.7023 0.56478 0.53422 0.0
C1219 C 0.72057 0.55456 0.52969 0.0
C1220 C 0.73157 0.54792 0.55469 0.0
C1221 C 0.72703 0.55581 0.58291 0.0
C1222 C 0.68923 0.57095 0.50843 0.0
C1223 C 0.74989 0.53509 0.55099 0.0
C1224 C 0.73201 0.55421 0.44703 0.0
C1225 C 0.74132 0.57288 0.44442 0.0
C1226 C 0.72697 0.54657 0.47528 0.0
C1227 C 0.73113 0.55808 0.50104 0.0
C1228 C 0.74255 0.57585 0.49835 0.0
C1229 C 0.74759 0.58287 0.47011 0.0
C1230 C 0.71609 0.5269 0.477 0.0
C1231 C 0.74784 0.58867 0.52498 0.0
H1232 H 0.68524 0.58215 0.56539 0.0
H1233 H 0.73711 0.55305 0.60134 0.0
H1234 H 0.6967 0.58306 0.49574 0.0
H1235 H 0.68687 0.55821 0.4931 0.0
H1236 H 0.67442 0.57648 0.516 0.0
H1237 H 0.75261 0.526 0.57128 0.0
H1238 H 0.74837 0.52504 0.53146 0.0
H1239 H 0.76315 0.54474 0.54741 0.0
H1240 H 0.72751 0.54621 0.42715 0.0
H1241 H 0.7554 0.59699 0.46809 0.0
H1242 H 0.70045 0.52894 0.46934 0.0
H1243 H 0.71593 0.52062 0.49986 0.0
H1244 H 0.72318 0.51592 0.46176 0.0
H1245 H 0.73401 0.59419 0.53586 0.0
H1246 H 0.75708 0.60181 0.51881 0.0
H1247 H 0.75629 0.57982 0.54159 0.0
C1248 C 0.43487 0.73186 0.4318 0.0
C1249 C 0.41397 0.73088 0.43455 0.0
C1250 C 0.44726 0.73143 0.45718 0.0
C1251 C 0.43844 0.73041 0.48583 0.0
C1252 C 0.41732 0.72956 0.48854 0.0
C1253 C 0.40547 0.72967 0.46297 0.0
C1254 C 0.46961 0.73241 0.45307 0.0
C1255 C 0.40702 0.72852 0.51851 0.0
C1256 C 0.4525 0.71094 0.5594 0.0
C1257 C 0.44998 0.72858 0.57571 0.0
C1258 C 0.4531 0.71148 0.5282 0.0
C1259 C 0.45058 0.73001 0.51359 0.0
C1260 C 0.4527 0.74788 0.53011 0.0
C1261 C 0.45245 0.74695 0.56134 0.0
C1262 C 0.45242 0.69209 0.51121 0.0
C1263 C 0.4513 0.76798 0.5152 0.0
H1264 H 0.44156 0.73289 0.40987 0.0
H1265 H 0.38936 0.72901 0.4654 0.0
H1266 H 0.4744 0.74826 0.45362 0.0
H1267 H 0.4777 0.72434 0.47095 0.0
H1268 H 0.47412 0.72611 0.43119 0.0
H1269 H 0.39046 0.72861 0.51656 0.0
H1270 H 0.41145 0.71467 0.53028 0.0
H1271 H 0.41149 0.7414 0.53251 0.0
H1272 H 0.45091 0.69669 0.57061 0.0
H1273 H 0.45076 0.76062 0.57404 0.0
H1274 H 0.45983 0.69361 0.48921 0.0
H1275 H 0.43659 0.68783 0.50736 0.0
H1276 H 0.45974 0.67988 0.52391 0.0
H1277 H 0.4592 0.76787 0.49349 0.0
H1278 H 0.45769 0.77994 0.52945 0.0
H1279 H 0.43534 0.77154 0.51097 0.0
C1280 C 0.27419 0.44471 0.44163 0.0
C1281 C 0.25954 0.43012 0.4369 0.0
C1282 C 0.27968 0.45008 0.47085 0.0
C1283 C 0.27058 0.44019 0.49527 0.0
C1284 C 0.25381 0.4277 0.4902 0.0
C1285 C 0.24849 0.42292 0.46101 0.0
C1286 C 0.29644 0.46481 0.47522 0.0
C1287 C 0.24314 0.41711 0.51534 0.0
C1288 C 0.29799 0.41316 0.55468 0.0
C1289 C 0.28758 0.41993 0.57977 0.0
C1290 C 0.29492 0.42188 0.52679 0.0
C1291 C 0.28124 0.43793 0.52412 0.0
C1292 C 0.27371 0.44713 0.5502 0.0
C1293 C 0.27673 0.43782 0.57793 0.0
C1294 C 0.30409 0.412 0.49979 0.0
C1295 C 0.2607 0.46545 0.54862 0.0
H1296 H 0.28255 0.45053 0.42286 0.0
H1297 H 0.23686 0.41194 0.45709 0.0
H1298 H 0.29675 0.4709 0.4982 0.0
H1299 H 0.31095 0.45741 0.47057 0.0
H1300 H 0.29494 0.47736 0.45922 0.0
H1301 H 0.22977 0.40879 0.50754 0.0
H1302 H 0.25345 0.40635 0.52616 0.0
H1303 H 0.23827 0.42798 0.53246 0.0
H1304 H 0.30708 0.3998 0.55628 0.0
H1305 H 0.26914 0.44357 0.59746 0.0
H1306 H 0.31128 0.42331 0.48533 0.0
H1307 H 0.29225 0.40449 0.48658 0.0
H1308 H 0.3155 0.40068 0.50594 0.0
H1309 H 0.2636 0.4742 0.52807 0.0
H1310 H 0.26325 0.47514 0.56834 0.0
H1311 H 0.24474 0.46096 0.54882 0.0
C1312 C 0.60077 0.26366 0.53064 0.0
C1313 C 0.59142 0.26752 0.55791 0.0
C1314 C 0.59024 0.26467 0.50388 0.0
C1315 C 0.56968 0.26985 0.5042 0.0
C1316 C 0.55981 0.2728 0.53178 0.0
C1317 C 0.57084 0.27155 0.55846 0.0
C1318 C 0.60151 0.26096 0.47518 0.0
C1319 C 0.53795 0.27816 0.53333 0.0
C1320 C 0.56528 0.29302 0.43019 0.0
C1321 C 0.56305 0.27566 0.41319 0.0
C1322 C 0.56337 0.29234 0.46124 0.0
C1323 C 0.55974 0.27374 0.47515 0.0
C1324 C 0.55341 0.25735 0.45764 0.0
C1325 C 0.55518 0.25848 0.4265 0.0
C1326 C 0.56899 0.31055 0.47911 0.0
C1327 C 0.54828 0.23759 0.4717 0.0
H1328 H 0.61658 0.26011 0.53014 0.0
H1329 H 0.56351 0.27444 0.57956 0.0
H1330 H 0.59398 0.2492 0.46193 0.0
H1331 H 0.60181 0.27479 0.46159 0.0
H1332 H 0.6172 0.25621 0.4791 0.0
H1333 H 0.5311 0.27245 0.5542 0.0
H1334 H 0.53643 0.29465 0.53339 0.0
H1335 H 0.52945 0.27222 0.51405 0.0
H1336 H 0.57108 0.30641 0.41972 0.0
H1337 H 0.55324 0.24508 0.41325 0.0
H1338 H 0.58495 0.30947 0.48572 0.0
H1339 H 0.55988 0.31155 0.49969 0.0
H1340 H 0.56698 0.32446 0.46597 0.0
H1341 H 0.56226 0.22913 0.47594 0.0
H1342 H 0.53867 0.22848 0.45678 0.0
H1343 H 0.54053 0.23974 0.49332 0.0
C1344 C 0.73542 0.44127 0.93638 0.0
C1345 C 0.71943 0.42895 0.92803 0.0
C1346 C 0.7384 0.44605 0.96655 0.0
C1347 C 0.72534 0.43788 0.98815 0.0
C1348 C 0.70699 0.42942 0.97885 0.0
C1349 C 0.70429 0.42491 0.9487 0.0
C1350 C 0.75714 0.45691 0.97562 0.0
C1351 C 0.6919 0.42176 0.00104 0.0
C1352 C 0.74701 0.40269 0.04448 0.0
C1353 C 0.74059 0.41111 0.07132 0.0
C1354 C 0.74366 0.41225 0.01738 0.0
C1355 C 0.73368 0.43093 0.01703 0.0
C1356 C 0.72903 0.44053 0.04432 0.0
C1357 C 0.73249 0.43041 0.07135 0.0
C1358 C 0.7494 0.40138 0.98908 0.0
C1359 C 0.71939 0.46084 0.04529 0.0
H1360 H 0.74689 0.44499 0.92025 0.0
H1361 H 0.69151 0.41603 0.94196 0.0
H1362 H 0.75481 0.46531 -0.00334 0.0
H1363 H 0.76933 0.44595 0.9793 0.0
H1364 H 0.76204 0.4674 0.9579 0.0
H1365 H 0.67725 0.41858 0.99039 0.0
H1366 H 0.69754 0.40773 0.01119 0.0
H1367 H 0.68962 0.43276 0.01915 0.0
H1368 H 0.75387 0.38802 0.04453 0.0
H1369 H 0.72784 0.43713 0.09219 0.0
H1370 H 0.75915 0.41092 0.97509 0.0
H1371 H 0.73581 0.39776 0.97599 0.0
H1372 H 0.7575 0.38722 0.99355 0.0
H1373 H 0.72118 0.46916 0.02409 0.0
H1374 H 0.72587 0.46985 0.06368 0.0
H1375 H 0.7032 0.45912 0.05002 0.0
C1376 C 0.57785 0.69492 0.06204 0.0
C1377 C 0.57349 0.7075 0.08608 0.0
C1378 C 0.57532 0.70157 0.03274 0.0
C1379 C 0.5685 0.72129 0.02773 0.0
C1380 C 0.56033 0.73231 0.05171 0.0
C1381 C 0.56299 0.72528 0.08094 0.0
C1382 C 0.5832 0.68882 0.00765 0.0
C1383 C 0.55163 0.75281 0.04698 0.0
C1384 C 0.60543 0.74631 0.97684 0.0
C1385 C 0.59631 0.74413 0.949 0.0
C1386 C 0.59574 0.74036 0.0029 0.0
C1387 C 0.57629 0.73201 0.00117 0.0
C1388 C 0.56623 0.7315 0.97342 0.0
C1389 C 0.57641 0.73755 0.94751 0.0
C1390 C 0.60707 0.74166 0.032 0.0
C1391 C 0.54528 0.72343 0.97053 0.0
H1392 H 0.58548 0.6809 0.06609 0.0
H1393 H 0.55922 0.7349 0.09953 0.0
H1394 H 0.57326 0.68978 0.98797 0.0
H1395 H 0.5982 0.69431 0.00095 0.0
H1396 H 0.58461 0.67292 0.01435 0.0
H1397 H 0.54107 0.75678 0.06512 0.0
H1398 H 0.56387 0.76399 0.04689 0.0
H1399 H 0.54376 0.75374 0.02526 0.0
H1400 H 0.62064 0.75186 0.97815 0.0
H1401 H 0.56919 0.73606 0.92602 0.0
H1402 H 0.60996 0.72644 0.04071 0.0
H1403 H 0.59811 0.74979 0.04887 0.0
H1404 H 0.62165 0.74943 0.02956 0.0
H1405 H 0.54599 0.70747 0.96404 0.0
H1406 H 0.537 0.73147 0.95276 0.0
H1407 H 0.53677 0.72462 0.99167 0.0
C1408 C 0.29017 0.58354 0.04575 0.0
C1409 C 0.27296 0.58251 0.0634 0.0
C1410 C 0.28909 0.58024 0.01501 0.0
C1411 C 0.27025 0.57637 0.0019 0.0
C1412 C 0.25374 0.57172 0.02038 0.0
C1413 C 0.2553 0.57484 0.05123 0.0
C1414 C 0.30734 0.58438 0.99625 0.0
C1415 C 0.23361 0.56669 0.00731 0.0
C1416 C 0.26064 0.61235 0.93891 0.0
C1417 C 0.26359 0.60046 0.91365 0.0
C1418 C 0.26203 0.60436 0.96754 0.0
C1419 C 0.26664 0.58385 0.97122 0.0
C1420 C 0.26911 0.57154 0.94585 0.0
C1421 C 0.26739 0.57999 0.91723 0.0
C1422 C 0.25914 0.61817 0.99387 0.0
C1423 C 0.27361 0.54957 0.94881 0.0
H1424 H 0.30395 0.58915 0.05537 0.0
H1425 H 0.24201 0.57384 0.06499 0.0
H1426 H 0.30788 0.57436 0.97661 0.0
H1427 H 0.30673 0.6 0.98806 0.0
H1428 H 0.32132 0.58252 0.00932 0.0
H1429 H 0.22398 0.55887 0.02375 0.0
H1430 H 0.22597 0.58069 0.00058 0.0
H1431 H 0.23524 0.55721 0.98721 0.0
H1432 H 0.2574 0.62811 0.93638 0.0
H1433 H 0.26948 0.57067 0.89775 0.0
H1434 H 0.27318 0.6191 0.00695 0.0
H1435 H 0.2473 0.6123 0.00878 0.0
H1436 H 0.25489 0.63353 0.98702 0.0
H1437 H 0.28493 0.54682 0.96639 0.0
H1438 H 0.27906 0.54305 0.92755 0.0
H1439 H 0.25978 0.54157 0.95538 0.0
C1440 C 0.42234 0.23978 0.94707 0.0
C1441 C 0.42729 0.25182 0.92272 0.0
C1442 C 0.42453 0.24685 0.97617 0.0
C1443 C 0.43191 0.26642 0.98078 0.0
C1444 C 0.44034 0.27703 0.95654 0.0
C1445 C 0.43768 0.26969 0.92743 0.0
C1446 C 0.41603 0.23458 0.00138 0.0
C1447 C 0.4499 0.29718 0.96093 0.0
C1448 C 0.39638 0.29145 0.03354 0.0
C1449 C 0.4049 0.28668 0.06114 0.0
C1450 C 0.40607 0.28665 0.00691 0.0
C1451 C 0.42507 0.27727 0.00783 0.0
C1452 C 0.43489 0.27486 0.03552 0.0
C1453 C 0.42456 0.27936 0.06199 0.0
C1454 C 0.39493 0.28975 0.97796 0.0
C1455 C 0.45563 0.26619 0.03762 0.0
H1456 H 0.41459 0.22579 0.94324 0.0
H1457 H 0.44173 0.27892 0.90854 0.0
H1458 H 0.42659 0.23419 0.02036 0.0
H1459 H 0.40191 0.24149 0.00932 0.0
H1460 H 0.41277 0.21899 0.99448 0.0
H1461 H 0.4611 0.30022 0.94323 0.0
H1462 H 0.43829 0.30896 0.95972 0.0
H1463 H 0.45727 0.2982 0.98302 0.0
H1464 H 0.38141 0.29761 0.03263 0.0
H1465 H 0.43151 0.27607 0.08324 0.0
H1466 H 0.39148 0.27508 0.96768 0.0
H1467 H 0.40427 0.29825 0.96202 0.0
H1468 H 0.38067 0.29796 0.98113 0.0
H1469 H 0.4546 0.25012 0.04335 0.0
H1470 H 0.46418 0.27362 0.0557 0.0
H1471 H 0.46405 0.26772 0.01644 0.0
C1472 C 0.27235 0.02607 0.20136 0.0
C1473 C 0.26089 0.04313 0.20741 0.0
C1474 C 0.27308 0.01011 0.22162 0.0
C1475 C 0.26213 0.0113 0.24854 0.0
C1476 C 0.25129 0.02885 0.25536 0.0
C1477 C 0.25079 0.04454 0.23472 0.0
C1478 C 0.28485 0.99165 0.21361 0.0
C1479 C 0.2395 0.03073 0.28391 0.0
C1480 C 0.24267 0.96368 0.28367 0.0
C1481 C 0.25588 0.961 0.3076 0.0
C1482 C 0.24481 0.97978 0.26402 0.0
C1483 C 0.26053 0.99361 0.26839 0.0
C1484 C 0.27411 0.99087 0.29221 0.0
C1485 C 0.27164 0.97457 0.31155 0.0
C1486 C 0.23003 0.98215 0.23883 0.0
C1487 C 0.29104 0.00534 0.29752 0.0
H1488 H 0.28026 0.02488 0.18038 0.0
H1489 H 0.24203 0.05773 0.23972 0.0
H1490 H 0.29482 0.98732 0.23224 0.0
H1491 H 0.27443 0.97903 0.20971 0.0
H1492 H 0.29405 0.9938 0.19326 0.0
H1493 H 0.23323 0.04594 0.28699 0.0
H1494 H 0.22697 0.01987 0.28376 0.0
H1495 H 0.24907 0.02712 0.30334 0.0
H1496 H 0.2305 0.95324 0.28034 0.0
H1497 H 0.28193 0.97259 0.32994 0.0
H1498 H 0.23804 0.98282 0.21722 0.0
H1499 H 0.22176 0.9964 0.24142 0.0
H1500 H 0.21904 0.96974 0.23796 0.0
H1501 H 0.3003 0.00678 0.27714 0.0
H1502 H 0.30081 0.00064 0.31625 0.0
H1503 H 0.28493 0.02036 0.30258 0.0
C1504 C 0.96166 0.22911 0.23187 0.0
C1505 C 0.95775 0.24324 0.20958 0.0
C1506 C 0.97888 0.23044 0.24957 0.0
C1507 C 0.99258 0.24621 0.24473 0.0
C1508 C 0.98871 0.26055 0.22233 0.0
C1509 C 0.97131 0.25893 0.20507 0.0
C1510 C 0.98247 0.21491 0.27334 0.0
C1511 C 0.00305 0.27751 0.21642 0.0
C1512 C 0.02918 0.25908 0.30648 0.0
C1513 C 0.04645 0.24905 0.29704 0.0
C1514 C 0.01152 0.25834 0.28963 0.0
C1515 C 0.0112 0.24741 0.26266 0.0
C1516 C 0.02862 0.23739 0.25289 0.0
C1517 C 0.04602 0.23829 0.27023 0.0
C1518 C 0.99317 0.26914 0.30078 0.0
C1519 C 0.02887 0.22566 0.22416 0.0
H1520 H 0.95122 0.21699 0.23559 0.0
H1521 H 0.96841 0.26991 0.18788 0.0
H1522 H 0.99659 0.20681 0.26869 0.0
H1523 H 0.98417 0.22223 0.29536 0.0
H1524 H 0.97012 0.20387 0.27475 0.0
H1525 H 0.99771 0.28758 0.19846 0.0
H1526 H 0.00524 0.28642 0.23698 0.0
H1527 H 0.01787 0.27147 0.20995 0.0
H1528 H 0.02938 0.26739 0.32718 0.0
H1529 H 0.05931 0.23054 0.2627 0.0
H1530 H 0.9808 0.25835 0.30415 0.0
H1531 H 0.98808 0.28013 0.28394 0.0
H1532 H 0.99593 0.2771 0.32208 0.0
H1533 H 0.01765 0.21349 0.22517 0.0
H1534 H 0.04375 0.21899 0.21948 0.0
H1535 H 0.0247 0.23548 0.20527 0.0
C1536 C 0.73636 0.0349 0.25294 0.0
C1537 C 0.72493 0.03799 0.27873 0.0
C1538 C 0.73508 0.01696 0.23698 0.0
C1539 C 0.72208 0.00172 0.24704 0.0
C1540 C 0.7103 0.00482 0.27281 0.0
C1541 C 0.71185 0.02294 0.28836 0.0
C1542 C 0.74784 0.01423 0.20952 0.0
C1543 C 0.69628 0.98888 0.28418 0.0
C1544 C 0.70824 0.96214 0.19019 0.0
C1545 C 0.72198 0.94697 0.19686 0.0
C1546 C 0.70771 0.97985 0.20687 0.0
C1547 C 0.72122 0.98241 0.23082 0.0
C1548 C 0.73469 0.96691 0.23825 0.0
C1549 C 0.73492 0.94938 0.22117 0.0
C1550 C 0.69313 0.99606 0.1983 0.0
C1551 C 0.74927 0.96906 0.26372 0.0
H1552 H 0.74646 0.04645 0.24529 0.0
H1553 H 0.70296 0.02521 0.30825 0.0
H1554 H 0.75817 0.00146 0.21273 0.0
H1555 H 0.73827 0.0107 0.19005 0.0
H1556 H 0.75684 0.02772 0.20427 0.0
H1557 H 0.68775 0.99384 0.30408 0.0
H1558 H 0.68553 0.98461 0.26648 0.0
H1559 H 0.70488 0.97529 0.29007 0.0
H1560 H 0.69815 0.96039 0.17149 0.0
H1561 H 0.74553 0.9377 0.22657 0.0
H1562 H 0.70144 0.00942 0.19059 0.0
H1563 H 0.68415 0.00063 0.21792 0.0
H1564 H 0.6828 0.99126 0.18031 0.0
H1565 H 0.7599 0.98136 0.25889 0.0
H1566 H 0.75795 0.95519 0.26771 0.0
H1567 H 0.74121 0.97305 0.28448 0.0
C1568 C 0.03077 0.74002 0.1821 0.0
C1569 C 0.04513 0.754 0.19126 0.0
C1570 C 0.01301 0.73729 0.19826 0.0
C1571 C 0.00956 0.74878 0.22421 0.0
C1572 C 0.02418 0.76257 0.23395 0.0
C1573 C 0.04178 0.76503 0.21736 0.0
C1574 C 0.99776 0.72242 0.18719 0.0
C1575 C 0.02106 0.77505 0.26158 0.0
C1576 C 0.95594 0.75774 0.24838 0.0
C1577 C 0.95376 0.74399 0.27173 0.0
C1578 C 0.97399 0.75936 0.23268 0.0
C1579 C 0.99029 0.74697 0.24052 0.0
C1580 C 0.98821 0.73304 0.26401 0.0
C1581 C 0.96995 0.7317 0.27933 0.0
C1582 C 0.97562 0.77438 0.20772 0.0
C1583 C 0.00529 0.71961 0.27303 0.0
H1584 H 0.03324 0.73141 0.162 0.0
H1585 H 0.05282 0.77581 0.22468 0.0
H1586 H 0.99407 0.71158 0.20503 0.0
H1587 H 0.98372 0.7303 0.18127 0.0
H1588 H 0.00308 0.71406 0.16735 0.0
H1589 H 0.03426 0.78446 0.26688 0.0
H1590 H 0.00791 0.78493 0.25852 0.0
H1591 H 0.01786 0.76528 0.28095 0.0
H1592 H 0.94351 0.76728 0.24232 0.0
H1593 H 0.96841 0.72105 0.29734 0.0
H1594 H 0.97962 0.7667 0.18665 0.0
H1595 H 0.98773 0.7852 0.21264 0.0
H1596 H 0.9615 0.78277 0.20422 0.0
H1597 H 0.01012 0.71043 0.25376 0.0
H1598 H 0.00121 0.70949 0.29165 0.0
H1599 H 0.01831 0.72877 0.27994 0.0
C1600 C 0.76874 0.96911 0.76731 0.0
C1601 C 0.75767 0.96968 0.79383 0.0
C1602 C 0.7674 0.98454 0.74637 0.0
C1603 C 0.75469 0.00099 0.7521 0.0
C1604 C 0.74299 0.00139 0.77835 0.0
C1605 C 0.7446 0.9857 0.79893 0.0
C1606 C 0.78006 0.98354 0.71855 0.0
C1607 C 0.72927 0.01869 0.78515 0.0
C1608 C 0.77003 0.04918 0.71443 0.0
C1609 C 0.75737 0.04953 0.68955 0.0
C1610 C 0.76886 0.03376 0.73543 0.0
C1611 C 0.75473 0.01828 0.73143 0.0
C1612 C 0.74152 0.0188 0.70682 0.0
C1613 C 0.74298 0.03446 0.68615 0.0
C1614 C 0.78316 0.03376 0.76147 0.0
C1615 C 0.72627 0.00253 0.70186 0.0
H1616 H 0.77878 0.95673 0.76307 0.0
H1617 H 0.73596 0.98622 0.81933 0.0
H1618 H 0.77058 0.98547 0.6985 0.0
H1619 H 0.79111 0.99589 0.71867 0.0
H1620 H 0.78826 0.96918 0.71661 0.0
H1621 H 0.72011 0.01606 0.80541 0.0
H1622 H 0.73825 0.03243 0.78853 0.0
H1623 H 0.71911 0.02149 0.76608 0.0
H1624 H 0.7811 0.06083 0.71735 0.0
H1625 H 0.73312 0.03465 0.66702 0.0
H1626 H 0.79319 0.02061 0.76 0.0
H1627 H 0.77477 0.03253 0.7827 0.0
H1628 H 0.79251 0.04745 0.76224 0.0
H1629 H 0.73401 0.98818 0.69749 0.0
H1630 H 0.71623 0.00582 0.68278 0.0
H1631 H 0.71703 0.00045 0.72214 0.0
C1632 C 0.96013 0.73544 0.67032 0.0
C1633 C 0.94399 0.74708 0.68015 0.0
C1634 C 0.9769 0.73229 0.68858 0.0
C1635 C 0.9775 0.74096 0.71732 0.0
C1636 C 0.96114 0.75248 0.72751 0.0
C1637 C 0.94461 0.7554 0.70882 0.0
C1638 C 0.99407 0.71991 0.67698 0.0
C1639 C 0.96119 0.76194 0.75805 0.0
C1640 C 0.01271 0.72107 0.77669 0.0
C1641 C 0.02805 0.73536 0.77624 0.0
C1642 C 0.99639 0.72243 0.75715 0.0
C1643 C 0.99539 0.73844 0.73664 0.0
C1644 C 0.01104 0.75264 0.73559 0.0
C1645 C 0.02716 0.75095 0.75541 0.0
C1646 C 0.97997 0.707 0.75893 0.0
C1647 C 0.01053 0.76991 0.71399 0.0
H1648 H 0.95978 0.72894 0.64822 0.0
H1649 H 0.93221 0.76437 0.71668 0.0
H1650 H 0.00782 0.72916 0.67593 0.0
H1651 H 0.99716 0.70735 0.69241 0.0
H1652 H 0.99106 0.71374 0.65446 0.0
H1653 H 0.94709 0.77007 0.76287 0.0
H1654 H 0.96337 0.75033 0.77536 0.0
H1655 H 0.97384 0.77257 0.7599 0.0
H1656 H 0.01328 0.70895 0.79265 0.0
H1657 H 0.03897 0.76201 0.7548 0.0
H1658 H 0.97739 0.70024 0.73672 0.0
H1659 H 0.96579 0.71424 0.76583 0.0
H1660 H 0.98348 0.69491 0.77503 0.0
H1661 H 0.00864 0.76431 0.69091 0.0
H1662 H 0.02433 0.7791 0.71499 0.0
H1663 H 0.99753 0.77962 0.71898 0.0
C1664 C 0.24801 0.94129 0.74303 0.0
C1665 C 0.25897 0.93859 0.71669 0.0
C1666 C 0.24843 0.95954 0.75836 0.0
C1667 C 0.26005 0.97549 0.74705 0.0
C1668 C 0.27135 0.97279 0.72072 0.0
C1669 C 0.2707 0.95436 0.70588 0.0
C1670 C 0.23623 0.96183 0.78646 0.0
C1671 C 0.2839 0.98947 0.70798 0.0
C1672 C 0.24546 0.02803 0.77008 0.0
C1673 C 0.25943 0.03213 0.79256 0.0
C1674 C 0.24561 0.00972 0.75493 0.0
C1675 C 0.26003 0.99512 0.76249 0.0
C1676 C 0.27426 -0.0008 0.78499 0.0
C1677 C 0.27381 0.01767 0.79973 0.0
C1678 C 0.23023 0.00593 0.73097 0.0
C1679 C 0.28985 0.98398 0.79368 0.0
H1680 H 0.23893 0.92918 0.75158 0.0
H1681 H 0.27922 0.95242 0.68555 0.0
H1682 H 0.24601 0.96643 0.80518 0.0
H1683 H 0.22491 0.97376 0.78341 0.0
H1684 H 0.22841 0.94782 0.79274 0.0
H1685 H 0.29219 0.98482 0.6877 0.0
H1686 H 0.27421 0.00234 0.70223 0.0
H1687 H 0.29482 0.99474 0.72483 0.0
H1688 H 0.23432 0.03913 0.76435 0.0
H1689 H 0.28466 0.02069 0.81707 0.0
H1690 H 0.22092 0.99285 0.73704 0.0
H1691 H 0.23777 0.00234 0.70963 0.0
H1692 H 0.22024 0.01896 0.72741 0.0
H1693 H 0.28246 0.97018 0.80177 0.0
H1694 H 0.30002 0.98957 0.81137 0.0
H1695 H 0.29894 0.97981 0.77397 0.0
C1696 C 0.97572 0.2724 0.80685 0.0
C1697 C 0.95923 0.26165 0.79611 0.0
C1698 C 0.99362 0.27341 0.79051 0.0
C1699 C 0.99505 0.26337 0.76283 0.0
C1700 C 0.97826 0.25302 0.75147 0.0
C1701 C 0.96056 0.25232 0.7682 0.0
C1702 C 0.01117 0.2847 0.80326 0.0
C1703 C 0.97917 0.24213 0.72204 0.0
C1704 C 0.03655 0.27523 0.70766 0.0
C1705 C 0.04986 0.25938 0.71258 0.0
C1706 C 0.01888 0.27706 0.72438 0.0
C1707 C 0.0144 0.26266 0.74647 0.0
C1708 C 0.028 0.24691 0.75201 0.0
C1709 C 0.04556 0.24548 0.73505 0.0
C1710 C 0.00478 0.29411 0.71793 0.0
C1711 C 0.02377 0.23124 0.77535 0.0
H1712 H 0.97482 0.27972 0.82833 0.0
H1713 H 0.9479 0.24403 0.75963 0.0
H1714 H 0.02347 0.27414 0.80838 0.0
H1715 H 0.01698 0.29553 0.78671 0.0
H1716 H 0.0072 0.29288 0.82395 0.0
H1717 H 0.96451 0.23565 0.71562 0.0
H1718 H 0.98414 0.25242 0.70416 0.0
H1719 H 0.9903 0.22989 0.72338 0.0
H1720 H 0.03977 0.28609 0.69043 0.0
H1721 H 0.05575 0.23321 0.73909 0.0
H1722 H 0.00137 0.30238 0.73872 0.0
H1723 H 0.99044 0.28818 0.70926 0.0
H1724 H 0.01101 0.30473 0.70136 0.0
H1725 H 0.02103 0.23842 0.79724 0.0
H1726 H 0.03625 0.22043 0.77778 0.0
H1727 H 0.01003 0.22288 0.76935 0.0
C1728 C 0.74332 0.54741 0.74015 0.0
C1729 C 0.75465 0.55008 0.71416 0.0
C1730 C 0.7454 0.53017 0.75753 0.0
C1731 C 0.75918 0.51525 0.74878 0.0
C1732 C 0.77132 0.51824 0.72336 0.0
C1733 C 0.76889 0.53563 0.70631 0.0
C1734 C 0.73221 0.52753 0.78455 0.0
C1735 C 0.78626 0.50271 0.71347 0.0
C1736 C 0.77114 0.4756 0.80652 0.0
C1737 C 0.75775 0.46039 0.79855 0.0
C1738 C 0.77227 0.49335 0.78998 0.0
C1739 C 0.75967 0.49592 0.76496 0.0
C1740 C 0.7466 0.48036 0.75625 0.0
C1741 C 0.74582 0.46279 0.77312 0.0
C1742 C 0.78647 0.50958 0.7998 0.0
C1743 C 0.73295 0.48253 0.72966 0.0
H1744 H 0.73236 0.55854 0.74649 0.0
H1745 H 0.77778 0.53761 0.68635 0.0
H1746 H 0.72179 0.51489 0.78084 0.0
H1747 H 0.74139 0.52384 0.80436 0.0
H1748 H 0.72328 0.54111 0.78952 0.0
H1749 H 0.79588 0.50812 0.695 0.0
H1750 H 0.79594 0.49822 0.73237 0.0
H1751 H 0.77823 0.48915 0.70584 0.0
H1752 H 0.78047 0.47384 0.82607 0.0
H1753 H 0.73549 0.45109 0.76669 0.0
H1754 H 0.77783 0.52278 0.80736 0.0
H1755 H 0.79591 0.51447 0.78084 0.0
H1756 H 0.79635 0.50466 0.81826 0.0
H1757 H 0.72218 0.49484 0.73364 0.0
H1758 H 0.72439 0.46867 0.72498 0.0
H1759 H 0.74175 0.48648 0.70956 0.0
C1760 C 0.53741 0.77539 0.82519 0.0
C1761 C 0.55602 0.76803 0.81586 0.0
C1762 C 0.52066 0.77456 0.80638 0.0
C1763 C 0.52257 0.76616 0.77759 0.0
C1764 C 0.54141 0.75916 0.76778 0.0
C1765 C 0.5579 0.76019 0.78701 0.0
C1766 C 0.50081 0.78226 0.81754 0.0
C1767 C 0.54407 0.75013 0.73721 0.0
C1768 C 0.47712 0.74394 0.7393 0.0
C1769 C 0.47234 0.7588 0.71849 0.0
C1770 C 0.4932 0.74633 0.75905 0.0
C1771 C 0.50477 0.76401 0.75799 0.0
C1772 C 0.4998 0.77923 0.73745 0.0
C1773 C 0.48365 0.77644 0.71792 0.0
C1774 C 0.49805 0.72975 0.78065 0.0
C1775 C 0.51177 0.7983 0.73571 0.0
H1776 H 0.53582 0.7815 0.84741 0.0
H1777 H 0.57221 0.75451 0.77954 0.0
H1778 H 0.49468 0.79344 0.80179 0.0
H1779 H 0.48991 0.76981 0.81876 0.0
H1780 H 0.50202 0.78922 0.83992 0.0
H1781 H 0.55986 0.74604 0.73259 0.0
H1782 H 0.53471 0.73653 0.73516 0.0
H1783 H 0.53899 0.76078 0.71988 0.0
H1784 H 0.46844 0.73029 0.73996 0.0
H1785 H 0.48004 0.78803 0.70199 0.0
H1786 H 0.4982 0.73559 0.80376 0.0
H1787 H 0.51319 0.72379 0.77592 0.0
H1788 H 0.48715 0.71726 0.77939 0.0
H1789 H 0.51238 0.80557 0.75789 0.0
H1790 H 0.50542 0.80905 0.71944 0.0
H1791 H 0.52738 0.79488 0.72911 0.0
C1792 C 0.24122 0.46942 0.69669 0.0
C1793 C 0.25581 0.45529 0.70437 0.0
C1794 C 0.2418 0.48885 0.70834 0.0
C1795 C 0.2574 0.49431 0.72801 0.0
C1796 C 0.27186 0.47997 0.73648 0.0
C1797 C 0.27085 0.46061 0.72464 0.0
C1798 C 0.226 0.50368 0.69901 0.0
C1799 C 0.28872 0.48525 0.75739 0.0
C1800 C 0.27149 0.54913 0.73308 0.0
C1801 C 0.26235 0.55481 0.75988 0.0
C1802 C 0.26997 0.52949 0.72245 0.0
C1803 C 0.25897 0.5152 0.73895 0.0
C1804 C 0.24958 0.52087 0.76588 0.0
C1805 C 0.25142 0.54058 0.77606 0.0
C1806 C 0.28025 0.52397 0.69366 0.0
C1807 C 0.23762 0.50608 0.78397 0.0
H1808 H 0.2295 0.46543 0.68114 0.0
H1809 H 0.28219 0.44979 0.73067 0.0
H1810 H 0.21874 0.51027 0.71893 0.0
H1811 H 0.23303 0.5161 0.68646 0.0
H1812 H 0.21429 0.4968 0.68479 0.0
H1813 H 0.2983 0.47218 0.76268 0.0
H1814 H 0.2982 0.49701 0.74722 0.0
H1815 H 0.28267 0.49139 0.77848 0.0
H1816 H 0.27999 0.56 0.72047 0.0
H1817 H 0.24427 0.54484 0.79677 0.0
H1818 H 0.26914 0.51825 0.67744 0.0
H1819 H 0.2912 0.51184 0.69769 0.0
H1820 H 0.28821 0.53683 0.68349 0.0
H1821 H 0.22538 0.49977 0.77023 0.0
H1822 H 0.23102 0.51294 0.80424 0.0
H1823 H 0.24731 0.49346 0.79085 0.0
C1824 C 0.47048 0.24715 0.76178 0.0
C1825 C 0.4689 0.23256 0.78406 0.0
C1826 C 0.48743 0.24827 0.74345 0.0
C1827 C 0.50323 0.23447 0.7475 0.0
C1828 C 0.50169 0.21962 0.76979 0.0
C1829 C 0.48454 0.21883 0.7878 0.0
C1830 C 0.48851 0.26431 0.71989 0.0
C1831 C 0.51824 0.20467 0.77478 0.0
C1832 C 0.53962 0.22762 0.68328 0.0
C1833 C 0.55552 0.23999 0.69193 0.0
C1834 C 0.52262 0.22545 0.70135 0.0
C1835 C 0.5215 0.23588 0.72872 0.0
C1836 C 0.53764 0.2481 0.73782 0.0
C1837 C 0.55444 0.25002 0.71932 0.0
C1838 C 0.5057 0.21228 0.6909 0.0
C1839 C 0.53704 0.25941 0.76691 0.0
H1840 H 0.45847 0.2578 0.75868 0.0
H1841 H 0.48346 0.20749 0.80493 0.0
H1842 H 0.50154 0.27414 0.72413 0.0
H1843 H 0.4907 0.25744 0.69764 0.0
H1844 H 0.4748 0.27366 0.71924 0.0
H1845 H 0.51459 0.19383 0.7927 0.0
H1846 H 0.52122 0.19629 0.75394 0.0
H1847 H 0.53224 0.21256 0.78084 0.0
H1848 H 0.54032 0.21981 0.66218 0.0
H1849 H 0.56666 0.25957 0.72625 0.0
H1850 H 0.49196 0.22134 0.68794 0.0
H1851 H 0.50235 0.20076 0.70794 0.0
H1852 H 0.50915 0.20469 0.66951 0.0
H1853 H 0.5244 0.27014 0.76672 0.0
H1854 H 0.55108 0.26779 0.77119 0.0
H1855 H 0.53445 0.24894 0.78565 0.0
C1856 C 0.22482 0.53449 0.18979 0.0
C1857 C 0.23633 0.55124 0.19732 0.0
C1858 C 0.22329 0.51814 0.20923 0.0
C1859 C 0.23349 0.51861 0.23685 0.0
C1860 C 0.24464 0.53572 0.24494 0.0
C1861 C 0.24594 0.55181 0.22509 0.0
C1862 C 0.21126 0.50014 0.19987 0.0
C1863 C 0.25567 0.53681 0.27425 0.0
C1864 C 0.21958 0.48222 0.29838 0.0
C1865 C 0.23472 0.46784 0.29567 0.0
C1866 C 0.2188 0.49872 0.27912 0.0
C1867 C 0.23347 0.50082 0.25662 0.0
C1868 C 0.24861 0.48623 0.25353 0.0
C1869 C 0.24907 0.46994 0.27311 0.0
C1870 C 0.20246 0.51403 0.2831 0.0
C1871 C 0.2645 0.48793 0.22976 0.0
H1872 H 0.21731 0.53394 0.16842 0.0
H1873 H 0.25479 0.56473 0.23119 0.0
H1874 H 0.2213 0.48707 0.19729 0.0
H1875 H 0.20015 0.49631 0.21729 0.0
H1876 H 0.20326 0.50259 0.1785 0.0
H1877 H 0.26275 0.5516 0.2779 0.0
H1878 H 0.24528 0.53376 0.29296 0.0
H1879 H 0.26749 0.5252 0.27489 0.0
H1880 H 0.20842 0.4807 0.31573 0.0
H1881 H 0.26078 0.45888 0.27075 0.0
H1882 H 0.194 0.51585 0.26203 0.0
H1883 H 0.20913 0.52874 0.28857 0.0
H1884 H 0.19182 0.50988 0.30107 0.0
H1885 H 0.25744 0.48904 0.20747 0.0
H1886 H 0.27488 0.47499 0.22976 0.0
H1887 H 0.27334 0.50175 0.23321 0.0
C1888 C 0.52693 0.25965 0.25413 0.0
C1889 C 0.52884 0.24569 0.27723 0.0
C1890 C 0.50971 0.26027 0.23638 0.0
C1891 C 0.494 0.24661 0.24186 0.0
C1892 C 0.49601 0.23215 0.26464 0.0
C1893 C 0.51343 0.23186 0.28207 0.0
C1894 C 0.50812 0.27588 0.21224 0.0
C1895 C 0.47958 0.21732 0.27107 0.0
C1896 C 0.44229 0.26313 0.21769 0.0
C1897 C 0.44004 0.25306 0.19051 0.0
C1898 C 0.45962 0.26082 0.23489 0.0
C1899 C 0.47509 0.24815 0.22467 0.0
C1900 C 0.47276 0.2376 0.19758 0.0
C1901 C 0.45524 0.24018 0.1808 0.0
C1902 C 0.46154 0.27228 0.26372 0.0
C1903 C 0.48894 0.22394 0.18601 0.0
H1904 H 0.5388 0.27034 0.25015 0.0
H1905 H 0.5148 0.22098 0.29981 0.0
H1906 H 0.50477 0.2687 0.19054 0.0
H1907 H 0.49559 0.28619 0.2173 0.0
H1908 H 0.52204 0.28479 0.20992 0.0
H1909 H 0.48392 0.20634 0.28844 0.0
H1910 H 0.46599 0.22533 0.27868 0.0
H1911 H 0.47552 0.2091 0.25049 0.0
H1912 H 0.4306 0.27306 0.22543 0.0
H1913 H 0.45361 0.23232 0.15985 0.0
H1914 H 0.47433 0.28279 0.26228 0.0
H1915 H 0.46466 0.26189 0.28237 0.0
H1916 H 0.44784 0.28093 0.26909 0.0
H1917 H 0.50267 0.2327 0.1814 0.0
H1918 H 0.48443 0.21611 0.16527 0.0
H1919 H 0.49283 0.21263 0.20309 0.0
C1920 C 0.77381 0.51514 0.3118 0.0
C1921 C 0.76002 0.53049 0.30648 0.0
C1922 C 0.77459 0.49827 0.29328 0.0
C1923 C 0.76134 0.49681 0.26882 0.0
C1924 C 0.7475 0.51233 0.26319 0.0
C1925 C 0.74697 0.52895 0.28213 0.0
C1926 C 0.78947 0.48194 0.30002 0.0
C1927 C 0.73319 0.51134 0.23722 0.0
C1928 C 0.77332 0.46187 0.2047 0.0
C1929 C 0.7606 0.44572 0.21068 0.0
C1930 C 0.77395 0.4785 0.22368 0.0
C1931 C 0.76163 0.47891 0.24931 0.0
C1932 C 0.74905 0.4625 0.25577 0.0
C1933 C 0.74864 0.44613 0.23634 0.0
C1934 C 0.78749 0.49578 0.21602 0.0
C1935 C 0.73578 0.46237 0.28299 0.0
H1936 H 0.78393 0.51621 0.33058 0.0
H1937 H 0.73632 0.54078 0.27777 0.0
H1938 H 0.78148 0.46771 0.30423 0.0
H1939 H 0.79938 0.47952 0.28055 0.0
H1940 H 0.79888 0.48546 0.31971 0.0
H1941 H 0.72362 0.52485 0.23559 0.0
H1942 H 0.74163 0.50967 0.2161 0.0
H1943 H 0.72339 0.49807 0.23944 0.0
H1944 H 0.78261 0.46166 0.18492 0.0
H1945 H 0.73883 0.43367 0.24122 0.0
H1946 H 0.79771 0.49898 0.23488 0.0
H1947 H 0.77842 0.50941 0.2122 0.0
H1948 H 0.7966 0.49286 0.1958 0.0
H1949 H 0.74486 0.46483 0.30333 0.0
H1950 H 0.72746 0.44812 0.28546 0.0
H1951 H 0.72482 0.47477 0.28162 0.0
C1952 C 0.46729 0.76393 0.31154 0.0
C1953 C 0.44978 0.75425 0.30223 0.0
C1954 C 0.485 0.76251 0.29486 0.0
C1955 C 0.48516 0.75115 0.26829 0.0
C1956 C 0.46736 0.74194 0.25824 0.0
C1957 C 0.44989 0.7436 0.27532 0.0
C1958 C 0.50368 0.77261 0.3062 0.0
C1959 C 0.46692 0.72974 0.22995 0.0
C1960 C 0.5273 0.75716 0.21227 0.0
C1961 C 0.5393 0.74054 0.21877 0.0
C1962 C 0.50979 0.76102 0.22851 0.0
C1963 C 0.50415 0.74794 0.25178 0.0
C1964 C 0.51636 0.73132 0.25876 0.0
C1965 C 0.53378 0.72783 0.24219 0.0
C1966 C 0.49715 0.77889 0.22048 0.0
C1967 C 0.51084 0.71703 0.28345 0.0
H1968 H 0.46734 0.77223 0.33226 0.0
H1969 H 0.43641 0.73614 0.26787 0.0
H1970 H 0.51499 0.76117 0.31212 0.0
H1971 H 0.51029 0.78212 0.28854 0.0
H1972 H 0.50075 0.782 0.32612 0.0
H1973 H 0.45163 0.72449 0.22434 0.0
H1974 H 0.47273 0.73867 0.21103 0.0
H1975 H 0.47679 0.71654 0.23238 0.0
H1976 H 0.53147 0.76708 0.19425 0.0
H1977 H 0.54297 0.71498 0.24742 0.0
H1978 H 0.49485 0.78846 0.24034 0.0
H1979 H 0.48219 0.77387 0.21291 0.0
H1980 H 0.50402 0.78805 0.20257 0.0
H1981 H 0.50903 0.72527 0.30471 0.0
H1982 H 0.52223 0.70517 0.28663 0.0
H1983 H 0.49629 0.70985 0.27837 0.0
C1984 C 0.18168 0.1489 0.1868 0.0
C1985 C 0.18756 0.12891 0.18965 0.0
C1986 C 0.17017 0.15821 0.20878 0.0
C1987 C 0.16387 0.1471 0.23389 0.0
C1988 C 0.16836 0.12648 0.23574 0.0
C1989 C 0.18048 0.11767 0.21379 0.0
C1990 C 0.16606 0.18033 0.20613 0.0
C1991 C 0.16124 0.11398 0.26159 0.0
C1992 C 0.16095 0.17958 0.30226 0.0
C1993 C 0.141 0.18601 0.30137 0.0
C1994 C 0.16828 0.16586 0.28149 0.0
C1995 C 0.15522 0.15792 0.25972 0.0
C1996 C 0.13466 0.16291 0.26039 0.0
C1997 C 0.12781 0.17718 0.28097 0.0
C1998 C 0.19039 0.1612 0.28134 0.0
C1999 C 0.12013 0.15411 0.2383 0.0
H2000 H 0.18707 0.1577 0.16819 0.0
H2001 H 0.18477 0.10213 0.2159 0.0
H2002 H 0.14986 0.18335 0.20861 0.0
H2003 H 0.1739 0.18842 0.22427 0.0
H2004 H 0.17111 0.18654 0.18447 0.0
H2005 H 0.16206 0.09777 0.25651 0.0
H2006 H 0.17074 0.11697 0.28132 0.0
H2007 H 0.14562 0.11783 0.26761 0.0
H2008 H 0.17124 0.18623 0.31805 0.0
H2009 H 0.1123 0.18185 0.28045 0.0
H2010 H 0.19731 0.16746 0.26091 0.0
H2011 H 0.19287 0.14485 0.281 0.0
H2012 H 0.19823 0.16753 0.301 0.0
H2013 H 0.12189 0.16167 0.21649 0.0
H2014 H 0.10439 0.15599 0.24569 0.0
H2015 H 0.12315 0.13798 0.23486 0.0
C2016 C 0.87598 0.16381 0.2129 0.0
C2017 C 0.86841 0.16986 0.18522 0.0
C2018 C 0.86519 0.15044 0.23089 0.0
C2019 C 0.84625 0.14357 0.22123 0.0
C2020 C 0.83993 0.14753 0.19178 0.0
C2021 C 0.85124 0.16044 0.17398 0.0
C2022 C 0.87305 0.1453 0.2614 0.0
C2023 C 0.82 0.14025 0.18033 0.0
C2024 C 0.81021 0.1112 0.26582 0.0
C2025 C 0.79908 0.12588 0.28065 0.0
C2026 C 0.82656 0.11649 0.24772 0.0
C2027 C 0.83117 0.13695 0.24345 0.0
C2028 C 0.81999 0.15173 0.25867 0.0
C2029 C 0.80436 0.14598 0.27742 0.0
C2030 C 0.83842 0.10016 0.23282 0.0
C2031 C 0.82394 0.17378 0.25429 0.0
H2032 H 0.88954 0.17056 0.22147 0.0
H2033 H 0.84556 0.16452 0.15222 0.0
H2034 H 0.86582 0.15503 0.27825 0.0
H2035 H 0.8695 0.12958 0.26714 0.0
H2036 H 0.88948 0.14755 0.26282 0.0
H2037 H 0.81825 0.14284 0.15604 0.0
H2038 H 0.81821 0.12408 0.1848 0.0
H2039 H 0.80779 0.1482 0.19214 0.0
H2040 H 0.80626 0.09561 0.26853 0.0
H2041 H 0.79571 0.15738 0.28872 0.0
H2042 H 0.85402 0.10482 0.22808 0.0
H2043 H 0.83115 0.09611 0.21147 0.0
H2044 H 0.83876 0.08652 0.24689 0.0
H2045 H 0.83943 0.17745 0.26115 0.0
H2046 H 0.81352 0.1833 0.26729 0.0
H2047 H 0.82243 0.1777 0.23038 0.0
C2048 C 0.83408 0.80882 0.28211 0.0
C2049 C 0.85332 0.80182 0.27529 0.0
C2050 C 0.82389 0.82168 0.26286 0.0
C2051 C 0.83333 0.82816 0.23639 0.0
C2052 C 0.85341 0.82264 0.23065 0.0
C2053 C 0.86313 0.8093 0.25004 0.0
C2054 C 0.80242 0.827 0.26975 0.0
C2055 C 0.86421 0.82985 0.2032 0.0
C2056 C 0.79642 0.83519 0.17366 0.0
C2057 C 0.79182 0.85553 0.17616 0.0
C2058 C 0.81073 0.82632 0.19214 0.0
C2059 C 0.82109 0.83818 0.21319 0.0
C2060 C 0.81755 0.85901 0.21439 0.0
C2061 C 0.80269 0.86741 0.19615 0.0
C2062 C 0.81375 0.80399 0.19048 0.0
C2063 C 0.82878 0.87224 0.23581 0.0
H2064 H 0.8264 0.80334 0.30173 0.0
H2065 H 0.87809 0.80418 0.24479 0.0
H2066 H 0.80017 0.84336 0.26841 0.0
H2067 H 0.79243 0.81999 0.253 0.0
H2068 H 0.79775 0.82187 0.29222 0.0
H2069 H 0.88063 0.82773 0.20506 0.0
H2070 H 0.85886 0.82139 0.18351 0.0
H2071 H 0.86106 0.84588 0.19912 0.0
H2072 H 0.7881 0.82592 0.15825 0.0
H2073 H 0.79938 0.88321 0.19787 0.0
H2074 H 0.80867 0.79701 0.21158 0.0
H2075 H 0.82982 0.80042 0.18776 0.0
H2076 H 0.80535 0.79711 0.17176 0.0
H2077 H 0.82286 0.87006 0.25865 0.0
H2078 H 0.82726 0.88828 0.22996 0.0
H2079 H 0.84489 0.86829 0.23619 0.0
C2080 C 0.17336 0.88768 0.29353 0.0
C2081 C 0.18302 0.87406 0.31236 0.0
C2082 C 0.16057 0.88098 0.27077 0.0
C2083 C 0.15804 0.86021 0.26622 0.0
C2084 C 0.16728 0.84648 0.28581 0.0
C2085 C 0.1794 0.85359 0.30886 0.0
C2086 C 0.15039 0.89607 0.25099 0.0
C2087 C 0.16537 0.82419 0.2814 0.0
C2088 C 0.12014 0.83402 0.21722 0.0
C2089 C 0.13184 0.82968 0.19213 0.0
C2090 C 0.12783 0.84565 0.24063 0.0
C2091 C 0.14784 0.85251 0.23918 0.0
C2092 C 0.15922 0.84923 0.21308 0.0
C2093 C 0.15098 0.83811 0.18974 0.0
C2094 C 0.11499 0.84954 0.26763 0.0
C2095 C 0.18074 0.85593 0.21077 0.0
H2096 H 0.17594 0.90354 0.2964 0.0
H2097 H 0.18686 0.84298 0.3233 0.0
H2098 H 0.15798 0.89654 0.22906 0.0
H2099 H 0.13458 0.89179 0.24701 0.0
H2100 H 0.15079 0.9113 0.26076 0.0
H2101 H 0.17298 0.81556 0.29921 0.0
H2102 H 0.1494 0.81977 0.28094 0.0
H2103 H 0.17199 0.81991 0.25965 0.0
H2104 H 0.10524 0.82778 0.21904 0.0
H2105 H 0.16014 0.83494 0.1704 0.0
H2106 H 0.11699 0.86508 0.27564 0.0
H2107 H 0.11952 0.83939 0.28593 0.0
H2108 H 0.0989 0.84697 0.26287 0.0
H2109 H 0.18214 0.87196 0.2165 0.0
H2110 H 0.187 0.85358 0.18812 0.0
H2111 H 0.18998 0.84742 0.2269 0.0
C2112 C 0.87703 0.82982 0.70775 0.0
C2113 C 0.86161 0.82337 0.68891 0.0
C2114 C 0.87311 0.8432 0.73119 0.0
C2115 C 0.85324 0.8496 0.73641 0.0
C2116 C 0.83776 0.84347 0.71696 0.0
C2117 C 0.8422 0.8307 0.69324 0.0
C2118 C 0.89009 0.84998 0.75085 0.0
C2119 C 0.81626 0.84955 0.72205 0.0
C2120 C 0.83303 0.86081 0.81296 0.0
C2121 C 0.82831 0.88114 0.81037 0.0
C2122 C 0.84252 0.85058 0.78973 0.0
C2123 C 0.84792 0.86107 0.76359 0.0
C2124 C 0.84499 0.88198 0.76205 0.0
C2125 C 0.83491 0.89175 0.78531 0.0
C2126 C 0.84499 0.82822 0.79212 0.0
C2127 C 0.85128 0.89378 0.73502 0.0
H2128 H 0.89209 0.82432 0.7043 0.0
H2129 H 0.83019 0.82569 0.67885 0.0
H2130 H 0.88906 0.86625 0.7552 0.0
H2131 H 0.88921 0.84225 0.77264 0.0
H2132 H 0.90489 0.84667 0.74077 0.0
H2133 H 0.80608 0.8437 0.70457 0.0
H2134 H 0.81111 0.84391 0.74398 0.0
H2135 H 0.81496 0.86604 0.7225 0.0
H2136 H 0.82805 0.8525 0.83229 0.0
H2137 H 0.83157 0.90753 0.78338 0.0
H2138 H 0.86036 0.82372 0.78582 0.0
H2139 H 0.83455 0.82078 0.77644 0.0
H2140 H 0.84186 0.82265 0.81494 0.0
H2141 H 0.86617 0.88884 0.72702 0.0
H2142 H 0.85184 0.91005 0.73975 0.0
H2143 H 0.84043 0.89126 0.71673 0.0
C2144 C 0.18236 0.85713 0.73683 0.0
C2145 C 0.19095 0.84484 0.715 0.0
C2146 C 0.16744 0.84975 0.75601 0.0
C2147 C 0.16146 0.82951 0.75372 0.0
C2148 C 0.16975 0.81725 0.73123 0.0
C2149 C 0.18419 0.82512 0.71201 0.0
C2150 C 0.15851 0.8634 0.77918 0.0
C2151 C 0.16409 0.79549 0.72828 0.0
C2152 C 0.14459 0.7987 0.81938 0.0
C2153 C 0.12464 0.79463 0.81184 0.0
C2154 C 0.15641 0.81126 0.80173 0.0
C2155 C 0.14798 0.82032 0.7762 0.0
C2156 C 0.1274 0.8177 0.76994 0.0
C2157 C 0.11599 0.80468 0.78767 0.0
C2158 C 0.17835 0.8134 0.80902 0.0
C2159 C 0.11773 0.82761 0.74344 0.0
H2160 H 0.18739 0.87244 0.73908 0.0
H2161 H 0.19075 0.81548 0.69527 0.0
H2162 H 0.14199 0.86188 0.77956 0.0
H2163 H 0.1641 0.85915 0.80154 0.0
H2164 H 0.1624 0.87928 0.77512 0.0
H2165 H 0.17158 0.78815 0.70911 0.0
H2166 H 0.16823 0.78736 0.7489 0.0
H2167 H 0.1477 0.79398 0.72542 0.0
H2168 H 0.15141 0.79114 0.83814 0.0
H2169 H 0.10051 0.80185 0.78194 0.0
H2170 H 0.1829 0.8293 0.80851 0.0
H2171 H 0.18734 0.80542 0.79199 0.0
H2172 H 0.18209 0.80715 0.83125 0.0
H2173 H 0.12277 0.84333 0.74137 0.0
H2174 H 0.10116 0.82733 0.74497 0.0
H2175 H 0.12222 0.8197 0.7228 0.0
C2176 C 0.12391 0.17418 0.72577 0.0
C2177 C 0.13714 0.18423 0.70676 0.0
C2178 C 0.13102 0.15974 0.74598 0.0
C2179 C 0.15185 0.15604 0.74791 0.0
C2180 C 0.16514 0.1661 0.7285 0.0
C2181 C 0.15758 0.17978 0.70795 0.0
C2182 C 0.11624 0.14894 0.76556 0.0
C2183 C 0.18753 0.16308 0.73017 0.0
C2184 C 0.18024 0.14251 0.81698 0.0
C2185 C 0.18895 0.12435 0.80829 0.0
C2186 C 0.16625 0.15216 0.79884 0.0
C2187 C 0.16048 0.14322 0.77165 0.0
C2188 C 0.16712 0.12368 0.76478 0.0
C2189 C 0.18155 0.11453 0.783 0.0
C2190 C 0.15949 0.17294 0.80716 0.0
C2191 C 0.16033 0.1132 0.73683 0.0
H2192 H 0.10806 0.17748 0.72472 0.0
H2193 H 0.1679 0.18761 0.69345 0.0
H2194 H 0.12142 0.13366 0.77114 0.0
H2195 H 0.1143 0.15735 0.78664 0.0
H2196 H 0.10137 0.14792 0.75466 0.0
H2197 H 0.19575 0.17232 0.71368 0.0
H2198 H 0.193 0.16699 0.75276 0.0
H2199 H 0.19128 0.1472 0.72612 0.0
H2200 H 0.18546 0.15004 0.83687 0.0
H2201 H 0.18781 0.10026 0.77648 0.0
H2202 H 0.14309 0.17439 0.80457 0.0
H2203 H 0.16661 0.18394 0.79201 0.0
H2204 H 0.16353 0.17686 0.83044 0.0
H2205 H 0.14419 0.11592 0.73279 0.0
H2206 H 0.163 0.09686 0.73808 0.0
H2207 H 0.16872 0.11916 0.71746 0.0
C2208 C 0.88583 0.1847 0.76189 0.0
C2209 C 0.87163 0.1909 0.7829 0.0
C2210 C 0.88035 0.17208 0.7382 0.0
C2211 C 0.86011 0.16621 0.73507 0.0
C2212 C 0.84585 0.1722 0.75657 0.0
C2213 C 0.85185 0.18421 0.78037 0.0
C2214 C 0.89606 0.16544 0.71622 0.0
C2215 C 0.82401 0.16666 0.75381 0.0
C2216 C 0.83479 0.15658 0.66161 0.0
C2217 C 0.82962 0.13638 0.66449 0.0
C2218 C 0.84622 0.16622 0.68341 0.0
C2219 C 0.85308 0.15525 0.70831 0.0
C2220 C 0.84969 0.13441 0.70974 0.0
C2221 C 0.83771 0.12524 0.688 0.0
C2222 C 0.84916 0.18853 0.68122 0.0
C2223 C 0.85744 0.12208 0.73537 0.0
H2224 H 0.90118 0.18972 0.76393 0.0
H2225 H 0.84076 0.18903 0.79644 0.0
H2226 H 0.89447 0.14928 0.71131 0.0
H2227 H 0.89411 0.17361 0.69496 0.0
H2228 H 0.91142 0.1683 0.72456 0.0
H2229 H 0.81489 0.17251 0.77255 0.0
H2230 H 0.81786 0.17267 0.73268 0.0
H2231 H 0.82231 0.1502 0.75314 0.0
H2232 H 0.82869 0.16529 0.64341 0.0
H2233 H 0.83406 0.10953 0.69007 0.0
H2234 H 0.8649 0.1926 0.68589 0.0
H2235 H 0.83971 0.19605 0.69817 0.0
H2236 H 0.84503 0.19441 0.65893 0.0
H2237 H 0.87287 0.12663 0.74137 0.0
H2238 H 0.85736 0.10588 0.73007 0.0
H2239 H 0.84784 0.12452 0.75519 0.0
C2240 C 0.67482 0.62922 0.73168 0.0
C2241 C 0.68149 0.63934 0.70623 0.0
C2242 C 0.66464 0.63944 0.75443 0.0
C2243 C 0.66173 0.66031 0.75197 0.0
C2244 C 0.66767 0.67038 0.72573 0.0
C2245 C 0.6772 0.65972 0.70303 0.0
C2246 C 0.65783 0.62809 0.78161 0.0
C2247 C 0.66527 0.69271 0.72244 0.0
C2248 C 0.62942 0.69269 0.8018 0.0
C2249 C 0.64376 0.70036 0.82148 0.0
C2250 C 0.6347 0.67836 0.78033 0.0
C2251 C 0.65488 0.6722 0.77794 0.0
C2252 C 0.66922 0.67938 0.79851 0.0
C2253 C 0.6634 0.69314 0.82028 0.0
C2254 C 0.61888 0.67047 0.75947 0.0
C2255 C 0.691 0.67357 0.79632 0.0
H2256 H 0.67791 0.61342 0.73409 0.0
H2257 H 0.68234 0.66766 0.68344 0.0
H2258 H 0.66796 0.63138 0.80052 0.0
H2259 H 0.64256 0.63279 0.78825 0.0
H2260 H 0.65786 0.6117 0.77778 0.0
H2261 H 0.66976 0.69808 0.70002 0.0
H2262 H 0.64954 0.69713 0.72646 0.0
H2263 H 0.67461 0.70043 0.73932 0.0
H2264 H 0.61416 0.69808 0.80291 0.0
H2265 H 0.67455 0.69907 0.8354 0.0
H2266 H 0.62037 0.65407 0.7568 0.0
H2267 H 0.6208 0.67729 0.73716 0.0
H2268 H 0.60356 0.67392 0.7675 0.0
H2269 H 0.69259 0.6571 0.79639 0.0
H2270 H 0.70005 0.67978 0.81488 0.0
H2271 H 0.69728 0.6791 0.77498 0.0
C2272 C 0.31819 0.66174 0.78231 0.0
C2273 C 0.31297 0.64151 0.78426 0.0
C2274 C 0.33392 0.6681 0.76417 0.0
C2275 C 0.34515 0.65385 0.74801 0.0
C2276 C 0.34065 0.63326 0.75097 0.0
C2277 C 0.32433 0.62733 0.76872 0.0
C2278 C 0.33785 0.69025 0.76123 0.0
C2279 C 0.35265 0.61758 0.73481 0.0
C2280 C 0.36541 0.67749 0.67831 0.0
C2281 C 0.38372 0.68519 0.68841 0.0
C2282 C 0.35337 0.6657 0.69673 0.0
C2283 C 0.35998 0.66107 0.72583 0.0
C2284 C 0.37939 0.66692 0.735 0.0
C2285 C 0.39099 0.67914 0.71627 0.0
C2286 C 0.33273 0.65999 0.68606 0.0
C2287 C 0.38727 0.66156 0.76542 0.0
H2288 H 0.30945 0.67282 0.79416 0.0
H2289 H 0.32047 0.61166 0.77039 0.0
H2290 H 0.3536 0.69365 0.76701 0.0
H2291 H 0.33547 0.69498 0.73781 0.0
H2292 H 0.32797 0.69933 0.77578 0.0
H2293 H 0.35026 0.60249 0.74441 0.0
H2294 H 0.34812 0.61717 0.71107 0.0
H2295 H 0.36885 0.62114 0.73557 0.0
H2296 H 0.35976 0.68175 0.6566 0.0
H2297 H 0.40527 0.68471 0.72408 0.0
H2298 H 0.3214 0.66888 0.69831 0.0
H2299 H 0.32967 0.64403 0.69062 0.0
H2300 H 0.33075 0.66272 0.66184 0.0
H2301 H 0.38043 0.67152 0.78233 0.0
H2302 H 0.40376 0.66326 0.76669 0.0
H2303 H 0.38324 0.64598 0.7713 0.0
C2304 C 0.38106 0.30174 0.77956 0.0
C2305 C 0.37014 0.29163 0.80155 0.0
C2306 C 0.37191 0.31629 0.76158 0.0
C2307 C 0.35133 0.32053 0.76542 0.0
C2308 C 0.34052 0.31105 0.78851 0.0
C2309 C 0.35008 0.29684 0.80639 0.0
C2310 C 0.38401 0.32639 0.73756 0.0
C2311 C 0.31849 0.31494 0.79314 0.0
C2312 C 0.32426 0.36374 0.72798 0.0
C2313 C 0.3156 0.3541 0.70343 0.0
C2314 C 0.33678 0.35327 0.74774 0.0
C2315 C 0.34036 0.33267 0.74304 0.0
C2316 C 0.33205 0.32304 0.71789 0.0
C2317 C 0.31994 0.33388 0.69834 0.0
C2318 C 0.34571 0.36409 0.77404 0.0
C2319 C 0.33525 0.30102 0.71224 0.0
H2320 H 0.39662 0.29798 0.7759 0.0
H2321 H 0.34152 0.28921 0.82342 0.0
H2322 H 0.37948 0.32053 0.71547 0.0
H2323 H 0.38114 0.3427 0.73751 0.0
H2324 H 0.40031 0.32382 0.74039 0.0
H2325 H 0.31268 0.30769 0.81365 0.0
H2326 H 0.31555 0.3312 0.79458 0.0
H2327 H 0.30996 0.30913 0.7738 0.0
H2328 H 0.3211 0.37938 0.73194 0.0
H2329 H 0.31335 0.32626 0.67946 0.0
H2330 H 0.36197 0.361 0.77557 0.0
H2331 H 0.33875 0.35861 0.79491 0.0
H2332 H 0.34343 0.38049 0.77265 0.0
H2333 H 0.35145 0.29759 0.71145 0.0
H2334 H 0.32832 0.29597 0.69106 0.0
H2335 H 0.32871 0.29222 0.73078 0.0
C2336 C 0.65893 0.32556 0.6815 0.0
C2337 C 0.6403 0.31625 0.68505 0.0
C2338 C 0.66679 0.33795 0.70368 0.0
C2339 C 0.6555 0.34159 0.72976 0.0
C2340 C 0.63591 0.33374 0.73229 0.0
C2341 C 0.62863 0.32087 0.71006 0.0
C2342 C 0.6879 0.34566 0.70028 0.0
C2343 C 0.62313 0.33794 0.75926 0.0
C2344 C 0.6873 0.34704 0.79877 0.0
C2345 C 0.68967 0.36778 0.80063 0.0
C2346 C 0.6756 0.33841 0.77641 0.0
C2347 C 0.6655 0.35085 0.75586 0.0
C2348 C 0.66686 0.37187 0.75866 0.0
C2349 C 0.67927 0.38012 0.78075 0.0
C2350 C 0.67496 0.31592 0.77383 0.0
C2351 C 0.65574 0.38559 0.73782 0.0
H2352 H 0.66805 0.32215 0.6622 0.0
H2353 H 0.6141 0.31394 0.71276 0.0
H2354 H 0.68851 0.36192 0.70474 0.0
H2355 H 0.69773 0.33822 0.71681 0.0
H2356 H 0.69404 0.34285 0.67768 0.0
H2357 H 0.60717 0.33429 0.75516 0.0
H2358 H 0.62842 0.32879 0.77826 0.0
H2359 H 0.62432 0.35385 0.76588 0.0
H2360 H 0.69537 0.33743 0.81402 0.0
H2361 H 0.6809 0.39618 0.78237 0.0
H2362 H 0.6816 0.31124 0.75227 0.0
H2363 H 0.65928 0.31058 0.77416 0.0
H2364 H 0.68325 0.3084 0.79209 0.0
H2365 H 0.663 0.38543 0.71562 0.0
H2366 H 0.65555 0.40122 0.74607 0.0
H2367 H 0.64011 0.38043 0.73481 0.0
C2368 C 0.33198 0.3336 0.19189 0.0
C2369 C 0.3516 0.32628 0.19314 0.0
C2370 C 0.32407 0.34515 0.21501 0.0
C2371 C 0.33625 0.35001 0.23974 0.0
C2372 C 0.35652 0.3439 0.2402 0.0
C2373 C 0.3639 0.33181 0.21706 0.0
C2374 C 0.30227 0.35103 0.21383 0.0
C2375 C 0.37014 0.34938 0.26569 0.0
C2376 C 0.31106 0.38831 0.28924 0.0
C2377 C 0.30161 0.37591 0.31009 0.0
C2378 C 0.32394 0.38028 0.26758 0.0
C2379 C 0.32686 0.35937 0.26629 0.0
C2380 C 0.31824 0.34697 0.28834 0.0
C2381 C 0.30594 0.35543 0.31017 0.0
C2382 C 0.33349 0.39405 0.24512 0.0
C2383 C 0.32066 0.32455 0.28752 0.0
H2384 H 0.32235 0.32941 0.17351 0.0
H2385 H 0.37915 0.32638 0.21801 0.0
H2386 H 0.29405 0.34363 0.23224 0.0
H2387 H 0.30063 0.36736 0.21689 0.0
H2388 H 0.2951 0.34679 0.19243 0.0
H2389 H 0.38612 0.34687 0.26007 0.0
H2390 H 0.36807 0.36526 0.27205 0.0
H2391 H 0.36641 0.34015 0.28542 0.0
H2392 H 0.30799 0.4042 0.28932 0.0
H2393 H 0.29873 0.34574 0.32624 0.0
H2394 H 0.32544 0.39289 0.2236 0.0
H2395 H 0.34927 0.38974 0.24107 0.0
H2396 H 0.33302 0.40987 0.25252 0.0
H2397 H 0.31308 0.3185 0.26747 0.0
H2398 H 0.31422 0.3172 0.30751 0.0
H2399 H 0.33668 0.32047 0.28592 0.0
C2400 C 0.64855 0.30843 0.29404 0.0
C2401 C 0.62809 0.3048 0.28975 0.0
C2402 C 0.65949 0.32007 0.27398 0.0
C2403 C 0.6497 0.32867 0.2492 0.0
C2404 C 0.62884 0.32603 0.24554 0.0
C2405 C 0.61828 0.31391 0.26573 0.0
C2406 C 0.68177 0.32227 0.27854 0.0
C2407 C 0.61783 0.3354 0.21977 0.0
C2408 C 0.68263 0.36677 0.21065 0.0
C2409 C 0.69168 0.35496 0.18866 0.0
C2410 C 0.66762 0.3589 0.22914 0.0
C2411 C 0.66191 0.33866 0.22591 0.0
C2412 C 0.67022 0.32703 0.20269 0.0
C2413 C 0.68485 0.33538 0.1842 0.0
C2414 C 0.6587 0.3719 0.25315 0.0
C2415 C 0.66478 0.3053 0.19872 0.0
H2416 H 0.65631 0.30151 0.31254 0.0
H2417 H 0.60244 0.31132 0.26242 0.0
H2418 H 0.68987 0.31518 0.25974 0.0
H2419 H 0.686 0.33827 0.27886 0.0
H2420 H 0.68694 0.31529 0.29962 0.0
H2421 H 0.60136 0.33444 0.22253 0.0
H2422 H 0.62213 0.35132 0.21732 0.0
H2423 H 0.62198 0.32769 0.19881 0.0
H2424 H 0.68763 0.382 0.21397 0.0
H2425 H 0.69167 0.32615 0.16717 0.0
H2426 H 0.66498 0.36757 0.27508 0.0
H2427 H 0.64226 0.3698 0.25431 0.0
H2428 H 0.66195 0.38796 0.24939 0.0
H2429 H 0.67041 0.29659 0.21798 0.0
H2430 H 0.67122 0.29887 0.17803 0.0
H2431 H 0.64832 0.30344 0.19806 0.0
C2432 C 0.67921 0.60807 0.309 0.0
C2433 C 0.69178 0.62197 0.32294 0.0
C2434 C 0.66339 0.61443 0.29071 0.0
C2435 C 0.6607 0.63509 0.28537 0.0
C2436 C 0.67283 0.64915 0.3005 0.0
C2437 C 0.688 0.6424 0.31943 0.0
C2438 C 0.65021 0.59903 0.27603 0.0
C2439 C 0.67082 0.67131 0.295 0.0
C2440 C 0.64558 0.65434 0.20993 0.0
C2441 C 0.62748 0.66404 0.21634 0.0
C2442 C 0.65592 0.64371 0.23182 0.0
C2443 C 0.64767 0.64214 0.26072 0.0
C2444 C 0.62843 0.65007 0.26654 0.0
C2445 C 0.61863 0.66122 0.24435 0.0
C2446 C 0.67651 0.63574 0.22462 0.0
C2447 C 0.61875 0.64787 0.2967 0.0
H2448 H 0.6819 0.59225 0.31206 0.0
H2449 H 0.69767 0.65321 0.33018 0.0
H2450 H 0.63443 0.60412 0.27542 0.0
H2451 H 0.65516 0.59669 0.25272 0.0
H2452 H 0.65095 0.58445 0.28777 0.0
H2453 H 0.68073 0.68027 0.30967 0.0
H2454 H 0.67467 0.67468 0.27148 0.0
H2455 H 0.65517 0.67618 0.29865 0.0
H2456 H 0.65246 0.65613 0.18824 0.0
H2457 H 0.6045 0.66838 0.24938 0.0
H2458 H 0.6777 0.6198 0.23096 0.0
H2459 H 0.68787 0.64407 0.23765 0.0
H2460 H 0.68022 0.63716 0.20061 0.0
H2461 H 0.62157 0.6328 0.30606 0.0
H2462 H 0.60236 0.65041 0.29557 0.0
H2463 H 0.62522 0.65896 0.31228 0.0
C2464 C 0.31606 0.62689 0.21151 0.0
C2465 C 0.30653 0.64013 0.19195 0.0
C2466 C 0.32891 0.63402 0.23388 0.0
C2467 C 0.33165 0.65486 0.23727 0.0
C2468 C 0.32246 0.6682 0.21702 0.0
C2469 C 0.31026 0.66064 0.19438 0.0
C2470 C 0.33901 0.61934 0.25442 0.0
C2471 C 0.32461 0.69056 0.2202 0.0
C2472 C 0.33993 0.67887 0.31219 0.0
C2473 C 0.35918 0.68687 0.30881 0.0
C2474 C 0.33123 0.66727 0.28975 0.0
C2475 C 0.34225 0.66312 0.26358 0.0
C2476 C 0.36234 0.66958 0.2612 0.0
C2477 C 0.37051 0.68166 0.2837 0.0
C2478 C 0.30964 0.661 0.293 0.0
C2479 C 0.37479 0.66478 0.23411 0.0
H2480 H 0.31337 0.61099 0.20946 0.0
H2481 H 0.30288 0.67095 0.17937 0.0
H2482 H 0.35495 0.6234 0.25765 0.0
H2483 H 0.33171 0.61973 0.27658 0.0
H2484 H 0.33817 0.60382 0.24575 0.0
H2485 H 0.31689 0.69883 0.20211 0.0
H2486 H 0.31826 0.69542 0.24185 0.0
H2487 H 0.34062 0.69483 0.22006 0.0
H2488 H 0.33108 0.68274 0.33157 0.0
H2489 H 0.3855 0.68757 0.28114 0.0
H2490 H 0.3079 0.64488 0.28809 0.0
H2491 H 0.30034 0.66931 0.27672 0.0
H2492 H 0.30373 0.66395 0.3157 0.0
H2493 H 0.37254 0.64903 0.22719 0.0
H2494 H 0.39097 0.66732 0.23821 0.0
H2495 H 0.37009 0.67442 0.21529 0.0
loop_
_geom_bond_atom_site_label_1
_geom_bond_atom_site_label_2
_geom_bond_distance
_geom_bond_site_symmetry_2
_ccdc_geom_bond_type
Zn0 O3 2.031 . S
Zn0 O5 2.049 . S
Zn0 O10 2.067 . S
Zn1 O2 1.962 . S
Zn1 O4 1.986 . S
Zn1 O6 1.996 . S
Zn1 O9 1.943 . S
O2 Zn1 1.962 . S
O2 C7 1.254 . S
O3 Zn0 2.031 . S
O3 C7 1.269 . S
O4 Zn1 1.986 . S
O4 C11 1.262 . S
O5 Zn0 2.049 . S
O5 C13 1.260 . S
O6 Zn1 1.996 . S
O6 C13 1.257 . S
C7 O2 1.254 . S
C7 O3 1.269 . S
C8 O9 1.249 . S
C8 O10 1.270 . S
O9 Zn1 1.943 . S
O9 C8 1.249 . S
O10 Zn0 2.067 . S
O10 C8 1.270 . S
C11 O4 1.262 . S
C11 O12 1.232 . S
O12 C11 1.232 . S
C13 O5 1.260 . S
C13 O6 1.257 . S
Zn14 O17 2.031 . S
Zn14 O19 2.049 . S
Zn14 O24 2.067 . S
Zn15 O16 1.962 . S
Zn15 O18 1.986 . S
Zn15 O20 1.996 . S
Zn15 O23 1.943 . S
O16 Zn15 1.962 . S
O16 C21 1.254 . S
O17 Zn14 2.031 . S
O17 C21 1.269 . S
O18 Zn15 1.986 . S
O18 C25 1.262 . S
O19 Zn14 2.049 . S
O19 C27 1.260 . S
O20 Zn15 1.996 . S
O20 C27 1.257 . S
C21 O16 1.254 . S
C21 O17 1.269 . S
C22 O23 1.249 . S
C22 O24 1.270 . S
O23 Zn15 1.943 . S
O23 C22 1.249 . S
O24 Zn14 2.067 . S
O24 C22 1.270 . S
C25 O18 1.262 . S
C25 O26 1.232 . S
O26 C25 1.232 . S
C27 O19 1.260 . S
C27 O20 1.257 . S
Zn28 O31 2.031 . S
Zn28 O33 2.049 . S
Zn28 O38 2.067 . S
Zn29 O30 1.962 . S
Zn29 O32 1.986 . S
Zn29 O34 1.996 . S
Zn29 O37 1.943 . S
O30 Zn29 1.962 . S
O30 C35 1.254 . S
O31 Zn28 2.031 . S
O31 C35 1.269 . S
O32 Zn29 1.986 . S
O32 C39 1.262 . S
O33 Zn28 2.049 . S
O33 C41 1.260 . S
O34 Zn29 1.996 . S
O34 C41 1.257 . S
C35 O30 1.254 . S
C35 O31 1.269 . S
C36 O37 1.249 . S
C36 O38 1.270 . S
O37 Zn29 1.943 . S
O37 C36 1.249 . S
O38 Zn28 2.067 . S
O38 C36 1.270 . S
C39 O32 1.262 . S
C39 O40 1.232 . S
O40 C39 1.232 . S
C41 O33 1.260 . S
C41 O34 1.257 . S
Zn42 O45 2.031 . S
Zn42 O47 2.049 . S
Zn42 O52 2.067 . S
Zn43 O44 1.962 . S
Zn43 O46 1.986 . S
Zn43 O48 1.996 . S
Zn43 O51 1.943 . S
O44 Zn43 1.962 . S
O44 C49 1.254 . S
O45 Zn42 2.031 . S
O45 C49 1.269 . S
O46 Zn43 1.986 . S
O46 C53 1.262 . S
O47 Zn42 2.049 . S
O47 C55 1.260 . S
O48 Zn43 1.996 . S
O48 C55 1.257 . S
C49 O44 1.254 . S
C49 O45 1.269 . S
C50 O51 1.249 . S
C50 O52 1.270 . S
O51 Zn43 1.943 . S
O51 C50 1.249 . S
O52 Zn42 2.067 . S
O52 C50 1.270 . S
C53 O46 1.262 . S
C53 O54 1.232 . S
O54 C53 1.232 . S
C55 O47 1.260 . S
C55 O48 1.257 . S
Zn56 O59 2.031 . S
Zn56 O61 2.049 . S
Zn56 O66 2.067 . S
Zn57 O58 1.962 . S
Zn57 O60 1.986 . S
Zn57 O62 1.996 . S
Zn57 O65 1.943 . S
O58 Zn57 1.962 . S
O58 C63 1.254 . S
O59 Zn56 2.031 . S
O59 C63 1.269 . S
O60 Zn57 1.986 . S
O60 C67 1.262 . S
O61 Zn56 2.049 . S
O61 C69 1.260 . S
O62 Zn57 1.996 . S
O62 C69 1.257 . S
C63 O58 1.254 . S
C63 O59 1.269 . S
C64 O65 1.249 . S
C64 O66 1.270 . S
O65 Zn57 1.943 . S
O65 C64 1.249 . S
O66 Zn56 2.067 . S
O66 C64 1.270 . S
C67 O60 1.262 . S
C67 O68 1.232 . S
O68 C67 1.232 . S
C69 O61 1.260 . S
C69 O62 1.257 . S
Zn70 O73 2.031 . S
Zn70 O75 2.049 . S
Zn70 O80 2.067 . S
Zn71 O72 1.962 . S
Zn71 O74 1.986 . S
Zn71 O76 1.996 . S
Zn71 O79 1.943 . S
O72 Zn71 1.962 . S
O72 C77 1.254 . S
O73 Zn70 2.031 . S
O73 C77 1.269 . S
O74 Zn71 1.986 . S
O74 C81 1.262 . S
O75 Zn70 2.049 . S
O75 C83 1.260 . S
O76 Zn71 1.996 . S
O76 C83 1.257 . S
C77 O72 1.254 . S
C77 O73 1.269 . S
C78 O79 1.249 . S
C78 O80 1.270 . S
O79 Zn71 1.943 . S
O79 C78 1.249 . S
O80 Zn70 2.067 . S
O80 C78 1.270 . S
C81 O74 1.262 . S
C81 O82 1.232 . S
O82 C81 1.232 . S
C83 O75 1.260 . S
C83 O76 1.257 . S
Zn84 O87 2.031 . S
Zn84 O89 2.049 . S
Zn84 O94 2.067 . S
Zn85 O86 1.962 . S
Zn85 O88 1.986 . S
Zn85 O90 1.996 . S
Zn85 O93 1.943 . S
O86 Zn85 1.962 . S
O86 C91 1.254 . S
O87 Zn84 2.031 . S
O87 C91 1.269 . S
O88 Zn85 1.986 . S
O88 C95 1.262 . S
O89 Zn84 2.049 . S
O89 C97 1.260 . S
O90 Zn85 1.996 . S
O90 C97 1.257 . S
C91 O86 1.254 . S
C91 O87 1.269 . S
C92 O93 1.249 . S
C92 O94 1.270 . S
O93 Zn85 1.943 . S
O93 C92 1.249 . S
O94 Zn84 2.067 . S
O94 C92 1.270 . S
C95 O88 1.262 . S
C95 O96 1.232 . S
O96 C95 1.232 . S
C97 O89 1.260 . S
C97 O90 1.257 . S
Zn98 O101 2.031 . S
Zn98 O103 2.049 . S
Zn98 O108 2.067 . S
Zn99 O100 1.962 . S
Zn99 O102 1.986 . S
Zn99 O104 1.996 . S
Zn99 O107 1.943 . S
O100 Zn99 1.962 . S
O100 C105 1.254 . S
O101 Zn98 2.031 . S
O101 C105 1.269 . S
O102 Zn99 1.986 . S
O102 C109 1.262 . S
O103 Zn98 2.049 . S
O103 C111 1.260 . S
O104 Zn99 1.996 . S
O104 C111 1.257 . S
C105 O100 1.254 . S
C105 O101 1.269 . S
C106 O107 1.249 . S
C106 O108 1.270 . S
O107 Zn99 1.943 . S
O107 C106 1.249 . S
O108 Zn98 2.067 . S
O108 C106 1.270 . S
C109 O102 1.262 . S
C109 O110 1.232 . S
O110 C109 1.232 . S
C111 O103 1.260 . S
C111 O104 1.257 . S
Zn112 O115 2.031 . S
Zn112 O117 2.049 . S
Zn112 O122 2.067 . S
Zn113 O114 1.962 . S
Zn113 O116 1.986 . S
Zn113 O118 1.996 . S
Zn113 O121 1.943 . S
O114 Zn113 1.962 . S
O114 C119 1.254 . S
O115 Zn112 2.031 . S
O115 C119 1.269 . S
O116 Zn113 1.986 . S
O116 C123 1.262 . S
O117 Zn112 2.049 . S
O117 C125 1.260 . S
O118 Zn113 1.996 . S
O118 C125 1.257 . S
C119 O114 1.254 . S
C119 O115 1.269 . S
C120 O121 1.249 . S
C120 O122 1.270 . S
O121 Zn113 1.943 . S
O121 C120 1.249 . S
O122 Zn112 2.067 . S
O122 C120 1.270 . S
C123 O116 1.262 . S
C123 O124 1.232 . S
O124 C123 1.232 . S
C125 O117 1.260 . S
C125 O118 1.257 . S
Zn126 O129 2.031 . S
Zn126 O131 2.049 . S
Zn126 O136 2.067 . S
Zn127 O128 1.962 . S
Zn127 O130 1.986 . S
Zn127 O132 1.996 . S
Zn127 O135 1.943 . S
O128 Zn127 1.962 . S
O128 C133 1.254 . S
O129 Zn126 2.031 . S
O129 C133 1.269 . S
O130 Zn127 1.986 . S
O130 C137 1.262 . S
O131 Zn126 2.049 . S
O131 C139 1.260 . S
O132 Zn127 1.996 . S
O132 C139 1.257 . S
C133 O128 1.254 . S
C133 O129 1.269 . S
C134 O135 1.249 . S
C134 O136 1.270 . S
O135 Zn127 1.943 . S
O135 C134 1.249 . S
O136 Zn126 2.067 . S
O136 C134 1.270 . S
C137 O130 1.262 . S
C137 O138 1.232 . S
O138 C137 1.232 . S
C139 O131 1.260 . S
C139 O132 1.257 . S
Zn140 O143 2.031 . S
Zn140 O145 2.049 . S
Zn140 O150 2.067 . S
Zn141 O142 1.962 . S
Zn141 O144 1.986 . S
Zn141 O146 1.996 . S
Zn141 O149 1.943 . S
O142 Zn141 1.962 . S
O142 C147 1.254 . S
O143 Zn140 2.031 . S
O143 C147 1.269 . S
O144 Zn141 1.986 . S
O144 C151 1.262 . S
O145 Zn140 2.049 . S
O145 C153 1.260 . S
O146 Zn141 1.996 . S
O146 C153 1.257 . S
C147 O142 1.254 . S
C147 O143 1.269 . S
C148 O149 1.249 . S
C148 O150 1.270 . S
O149 Zn141 1.943 . S
O149 C148 1.249 . S
O150 Zn140 2.067 . S
O150 C148 1.270 . S
C151 O144 1.262 . S
C151 O152 1.232 . S
O152 C151 1.232 . S
C153 O145 1.260 . S
C153 O146 1.257 . S
Zn154 O157 2.031 . S
Zn154 O159 2.049 . S
Zn154 O164 2.067 . S
Zn155 O156 1.962 . S
Zn155 O158 1.986 . S
Zn155 O160 1.996 . S
Zn155 O163 1.943 . S
O156 Zn155 1.962 . S
O156 C161 1.254 . S
O157 Zn154 2.031 . S
O157 C161 1.269 . S
O158 Zn155 1.986 . S
O158 C165 1.262 . S
O159 Zn154 2.049 . S
O159 C167 1.260 . S
O160 Zn155 1.996 . S
O160 C167 1.257 . S
C161 O156 1.254 . S
C161 O157 1.269 . S
C162 O163 1.249 . S
C162 O164 1.270 . S
O163 Zn155 1.943 . S
O163 C162 1.249 . S
O164 Zn154 2.067 . S
O164 C162 1.270 . S
C165 O158 1.262 . S
C165 O166 1.232 . S
O166 C165 1.232 . S
C167 O159 1.260 . S
C167 O160 1.257 . S
Zn168 O171 2.031 . S
Zn168 O173 2.049 . S
Zn168 O178 2.067 . S
Zn169 O170 1.962 . S
Zn169 O172 1.986 . S
Zn169 O174 1.996 . S
Zn169 O177 1.943 . S
O170 Zn169 1.962 . S
O170 C175 1.254 . S
O171 Zn168 2.031 . S
O171 C175 1.269 . S
O172 Zn169 1.986 . S
O172 C179 1.262 . S
O173 Zn168 2.049 . S
O173 C181 1.260 . S
O174 Zn169 1.996 . S
O174 C181 1.257 . S
C175 O170 1.254 . S
C175 O171 1.269 . S
C176 O177 1.249 . S
C176 O178 1.270 . S
O177 Zn169 1.943 . S
O177 C176 1.249 . S
O178 Zn168 2.067 . S
O178 C176 1.270 . S
C179 O172 1.262 . S
C179 O180 1.232 . S
O180 C179 1.232 . S
C181 O173 1.260 . S
C181 O174 1.257 . S
Zn182 O185 2.031 . S
Zn182 O187 2.049 . S
Zn182 O192 2.067 . S
Zn183 O184 1.962 . S
Zn183 O186 1.986 . S
Zn183 O188 1.996 . S
Zn183 O191 1.943 . S
O184 Zn183 1.962 . S
O184 C189 1.254 . S
O185 Zn182 2.031 . S
O185 C189 1.269 . S
O186 Zn183 1.986 . S
O186 C193 1.262 . S
O187 Zn182 2.049 . S
O187 C195 1.260 . S
O188 Zn183 1.996 . S
O188 C195 1.257 . S
C189 O184 1.254 . S
C189 O185 1.269 . S
C190 O191 1.249 . S
C190 O192 1.270 . S
O191 Zn183 1.943 . S
O191 C190 1.249 . S
O192 Zn182 2.067 . S
O192 C190 1.270 . S
C193 O186 1.262 . S
C193 O194 1.232 . S
O194 C193 1.232 . S
C195 O187 1.260 . S
C195 O188 1.257 . S
Zn196 O199 2.031 . S
Zn196 O201 2.049 . S
Zn196 O206 2.067 . S
Zn197 O198 1.962 . S
Zn197 O200 1.986 . S
Zn197 O202 1.996 . S
Zn197 O205 1.943 . S
O198 Zn197 1.962 . S
O198 C203 1.254 . S
O199 Zn196 2.031 . S
O199 C203 1.269 . S
O200 Zn197 1.986 . S
O200 C207 1.262 . S
O201 Zn196 2.049 . S
O201 C209 1.260 . S
O202 Zn197 1.996 . S
O202 C209 1.257 . S
C203 O198 1.254 . S
C203 O199 1.269 . S
C204 O205 1.249 . S
C204 O206 1.270 . S
O205 Zn197 1.943 . S
O205 C204 1.249 . S
O206 Zn196 2.067 . S
O206 C204 1.270 . S
C207 O200 1.262 . S
C207 O208 1.232 . S
O208 C207 1.232 . S
C209 O201 1.260 . S
C209 O202 1.257 . S
Zn210 O213 2.031 . S
Zn210 O215 2.049 . S
Zn210 O220 2.067 . S
Zn211 O212 1.962 . S
Zn211 O214 1.986 . S
Zn211 O216 1.996 . S
Zn211 O219 1.943 . S
O212 Zn211 1.962 . S
O212 C217 1.254 . S
O213 Zn210 2.031 . S
O213 C217 1.269 . S
O214 Zn211 1.986 . S
O214 C221 1.262 . S
O215 Zn210 2.049 . S
O215 C223 1.260 . S
O216 Zn211 1.996 . S
O216 C223 1.257 . S
C217 O212 1.254 . S
C217 O213 1.269 . S
C218 O219 1.249 . S
C218 O220 1.270 . S
O219 Zn211 1.943 . S
O219 C218 1.249 . S
O220 Zn210 2.067 . S
O220 C218 1.270 . S
C221 O214 1.262 . S
C221 O222 1.232 . S
O222 C221 1.232 . S
C223 O215 1.260 . S
C223 O216 1.257 . S
Zn224 O227 2.031 . S
Zn224 O229 2.049 . S
Zn224 O234 2.067 . S
Zn225 O226 1.962 . S
Zn225 O228 1.986 . S
Zn225 O230 1.996 . S
Zn225 O233 1.943 . S
O226 Zn225 1.962 . S
O226 C231 1.254 . S
O227 Zn224 2.031 . S
O227 C231 1.269 . S
O228 Zn225 1.986 . S
O228 C235 1.262 . S
O229 Zn224 2.049 . S
O229 C237 1.260 . S
O230 Zn225 1.996 . S
O230 C237 1.257 . S
C231 O226 1.254 . S
C231 O227 1.269 . S
C232 O233 1.249 . S
C232 O234 1.270 . S
O233 Zn225 1.943 . S
O233 C232 1.249 . S
O234 Zn224 2.067 . S
O234 C232 1.270 . S
C235 O228 1.262 . S
C235 O236 1.232 . S
O236 C235 1.232 . S
C237 O229 1.260 . S
C237 O230 1.257 . S
Zn238 O241 2.031 . S
Zn238 O243 2.049 . S
Zn238 O248 2.067 . S
Zn239 O240 1.962 . S
Zn239 O242 1.986 . S
Zn239 O244 1.996 . S
Zn239 O247 1.943 . S
O240 Zn239 1.962 . S
O240 C245 1.254 . S
O241 Zn238 2.031 . S
O241 C245 1.269 . S
O242 Zn239 1.986 . S
O242 C249 1.262 . S
O243 Zn238 2.049 . S
O243 C251 1.260 . S
O244 Zn239 1.996 . S
O244 C251 1.257 . S
C245 O240 1.254 . S
C245 O241 1.269 . S
C246 O247 1.249 . S
C246 O248 1.270 . S
O247 Zn239 1.943 . S
O247 C246 1.249 . S
O248 Zn238 2.067 . S
O248 C246 1.270 . S
C249 O242 1.262 . S
C249 O250 1.232 . S
O250 C249 1.232 . S
C251 O243 1.260 . S
C251 O244 1.257 . S
Zn252 O255 2.031 . S
Zn252 O257 2.049 . S
Zn252 O262 2.067 . S
Zn253 O254 1.962 . S
Zn253 O256 1.986 . S
Zn253 O258 1.996 . S
Zn253 O261 1.943 . S
O254 Zn253 1.962 . S
O254 C259 1.254 . S
O255 Zn252 2.031 . S
O255 C259 1.269 . S
O256 Zn253 1.986 . S
O256 C263 1.262 . S
O257 Zn252 2.049 . S
O257 C265 1.260 . S
O258 Zn253 1.996 . S
O258 C265 1.257 . S
C259 O254 1.254 . S
C259 O255 1.269 . S
C260 O261 1.249 . S
C260 O262 1.270 . S
O261 Zn253 1.943 . S
O261 C260 1.249 . S
O262 Zn252 2.067 . S
O262 C260 1.270 . S
C263 O256 1.262 . S
C263 O264 1.232 . S
O264 C263 1.232 . S
C265 O257 1.260 . S
C265 O258 1.257 . S
Zn266 O269 2.031 . S
Zn266 O271 2.049 . S
Zn266 O276 2.067 . S
Zn267 O268 1.962 . S
Zn267 O270 1.986 . S
Zn267 O272 1.996 . S
Zn267 O275 1.943 . S
O268 Zn267 1.962 . S
O268 C273 1.254 . S
O269 Zn266 2.031 . S
O269 C273 1.269 . S
O270 Zn267 1.986 . S
O270 C277 1.262 . S
O271 Zn266 2.049 . S
O271 C279 1.260 . S
O272 Zn267 1.996 . S
O272 C279 1.257 . S
C273 O268 1.254 . S
C273 O269 1.269 . S
C274 O275 1.249 . S
C274 O276 1.270 . S
O275 Zn267 1.943 . S
O275 C274 1.249 . S
O276 Zn266 2.067 . S
O276 C274 1.270 . S
C277 O270 1.262 . S
C277 O278 1.232 . S
O278 C277 1.232 . S
C279 O271 1.260 . S
C279 O272 1.257 . S
Zn280 O283 2.031 . S
Zn280 O285 2.049 . S
Zn280 O290 2.067 . S
Zn281 O282 1.962 . S
Zn281 O284 1.986 . S
Zn281 O286 1.996 . S
Zn281 O289 1.943 . S
O282 Zn281 1.962 . S
O282 C287 1.254 . S
O283 Zn280 2.031 . S
O283 C287 1.269 . S
O284 Zn281 1.986 . S
O284 C291 1.262 . S
O285 Zn280 2.049 . S
O285 C293 1.260 . S
O286 Zn281 1.996 . S
O286 C293 1.257 . S
C287 O282 1.254 . S
C287 O283 1.269 . S
C288 O289 1.249 . S
C288 O290 1.270 . S
O289 Zn281 1.943 . S
O289 C288 1.249 . S
O290 Zn280 2.067 . S
O290 C288 1.270 . S
C291 O284 1.262 . S
C291 O292 1.232 . S
O292 C291 1.232 . S
C293 O285 1.260 . S
C293 O286 1.257 . S
Zn294 O297 2.031 . S
Zn294 O299 2.049 . S
Zn294 O304 2.067 . S
Zn295 O296 1.962 . S
Zn295 O298 1.986 . S
Zn295 O300 1.996 . S
Zn295 O303 1.943 . S
O296 Zn295 1.962 . S
O296 C301 1.254 . S
O297 Zn294 2.031 . S
O297 C301 1.269 . S
O298 Zn295 1.986 . S
O298 C305 1.262 . S
O299 Zn294 2.049 . S
O299 C307 1.260 . S
O300 Zn295 1.996 . S
O300 C307 1.257 . S
C301 O296 1.254 . S
C301 O297 1.269 . S
C302 O303 1.249 . S
C302 O304 1.270 . S
O303 Zn295 1.943 . S
O303 C302 1.249 . S
O304 Zn294 2.067 . S
O304 C302 1.270 . S
C305 O298 1.262 . S
C305 O306 1.232 . S
O306 C305 1.232 . S
C307 O299 1.260 . S
C307 O300 1.257 . S
Zn308 O311 2.031 . S
Zn308 O313 2.049 . S
Zn308 O318 2.067 . S
Zn309 O310 1.962 . S
Zn309 O312 1.986 . S
Zn309 O314 1.996 . S
Zn309 O317 1.943 . S
O310 Zn309 1.962 . S
O310 C315 1.254 . S
O311 Zn308 2.031 . S
O311 C315 1.269 . S
O312 Zn309 1.986 . S
O312 C319 1.262 . S
O313 Zn308 2.049 . S
O313 C321 1.260 . S
O314 Zn309 1.996 . S
O314 C321 1.257 . S
C315 O310 1.254 . S
C315 O311 1.269 . S
C316 O317 1.249 . S
C316 O318 1.270 . S
O317 Zn309 1.943 . S
O317 C316 1.249 . S
O318 Zn308 2.067 . S
O318 C316 1.270 . S
C319 O312 1.262 . S
C319 O320 1.232 . S
O320 C319 1.232 . S
C321 O313 1.260 . S
C321 O314 1.257 . S
Zn322 O325 2.031 . S
Zn322 O327 2.049 . S
Zn322 O332 2.067 . S
Zn323 O324 1.962 . S
Zn323 O326 1.986 . S
Zn323 O328 1.996 . S
Zn323 O331 1.943 . S
O324 Zn323 1.962 . S
O324 C329 1.254 . S
O325 Zn322 2.031 . S
O325 C329 1.269 . S
O326 Zn323 1.986 . S
O326 C333 1.262 . S
O327 Zn322 2.049 . S
O327 C335 1.260 . S
O328 Zn323 1.996 . S
O328 C335 1.257 . S
C329 O324 1.254 . S
C329 O325 1.269 . S
C330 O331 1.249 . S
C330 O332 1.270 . S
O331 Zn323 1.943 . S
O331 C330 1.249 . S
O332 Zn322 2.067 . S
O332 C330 1.270 . S
C333 O326 1.262 . S
C333 O334 1.232 . S
O334 C333 1.232 . S
C335 O327 1.260 . S
C335 O328 1.257 . S
Zn336 O339 2.031 . S
Zn336 O341 2.049 . S
Zn336 O346 2.067 . S
Zn337 O338 1.962 . S
Zn337 O340 1.986 . S
Zn337 O342 1.996 . S
Zn337 O345 1.943 . S
O338 Zn337 1.962 . S
O338 C343 1.254 . S
O339 Zn336 2.031 . S
O339 C343 1.269 . S
O340 Zn337 1.986 . S
O340 C347 1.262 . S
O341 Zn336 2.049 . S
O341 C349 1.260 . S
O342 Zn337 1.996 . S
O342 C349 1.257 . S
C343 O338 1.254 . S
C343 O339 1.269 . S
C344 O345 1.249 . S
C344 O346 1.270 . S
O345 Zn337 1.943 . S
O345 C344 1.249 . S
O346 Zn336 2.067 . S
O346 C344 1.270 . S
C347 O340 1.262 . S
C347 O348 1.232 . S
O348 C347 1.232 . S
C349 O341 1.260 . S
C349 O342 1.257 . S
Zn350 O353 2.031 . S
Zn350 O355 2.049 . S
Zn350 O360 2.067 . S
Zn351 O352 1.962 . S
Zn351 O354 1.986 . S
Zn351 O356 1.996 . S
Zn351 O359 1.943 . S
O352 Zn351 1.962 . S
O352 C357 1.254 . S
O353 Zn350 2.031 . S
O353 C357 1.269 . S
O354 Zn351 1.986 . S
O354 C361 1.262 . S
O355 Zn350 2.049 . S
O355 C363 1.260 . S
O356 Zn351 1.996 . S
O356 C363 1.257 . S
C357 O352 1.254 . S
C357 O353 1.269 . S
C358 O359 1.249 . S
C358 O360 1.270 . S
O359 Zn351 1.943 . S
O359 C358 1.249 . S
O360 Zn350 2.067 . S
O360 C358 1.270 . S
C361 O354 1.262 . S
C361 O362 1.232 . S
O362 C361 1.232 . S
C363 O355 1.260 . S
C363 O356 1.257 . S
Zn364 O367 2.031 . S
Zn364 O369 2.049 . S
Zn364 O374 2.067 . S
Zn365 O366 1.962 . S
Zn365 O368 1.986 . S
Zn365 O370 1.996 . S
Zn365 O373 1.943 . S
O366 Zn365 1.962 . S
O366 C371 1.254 . S
O367 Zn364 2.031 . S
O367 C371 1.269 . S
O368 Zn365 1.986 . S
O368 C375 1.262 . S
O369 Zn364 2.049 . S
O369 C377 1.260 . S
O370 Zn365 1.996 . S
O370 C377 1.257 . S
C371 O366 1.254 . S
C371 O367 1.269 . S
C372 O373 1.249 . S
C372 O374 1.270 . S
O373 Zn365 1.943 . S
O373 C372 1.249 . S
O374 Zn364 2.067 . S
O374 C372 1.270 . S
C375 O368 1.262 . S
C375 O376 1.232 . S
O376 C375 1.232 . S
C377 O369 1.260 . S
C377 O370 1.257 . S
Zn378 O381 2.031 . S
Zn378 O383 2.049 . S
Zn378 O388 2.067 . S
Zn379 O380 1.962 . S
Zn379 O382 1.986 . S
Zn379 O384 1.996 . S
Zn379 O387 1.943 . S
O380 Zn379 1.962 . S
O380 C385 1.254 . S
O381 Zn378 2.031 . S
O381 C385 1.269 . S
O382 Zn379 1.986 . S
O382 C389 1.262 . S
O383 Zn378 2.049 . S
O383 C391 1.260 . S
O384 Zn379 1.996 . S
O384 C391 1.257 . S
C385 O380 1.254 . S
C385 O381 1.269 . S
C386 O387 1.249 . S
C386 O388 1.270 . S
O387 Zn379 1.943 . S
O387 C386 1.249 . S
O388 Zn378 2.067 . S
O388 C386 1.270 . S
C389 O382 1.262 . S
C389 O390 1.232 . S
O390 C389 1.232 . S
C391 O383 1.260 . S
C391 O384 1.257 . S
Zn392 O395 2.031 . S
Zn392 O397 2.049 . S
Zn392 O402 2.067 . S
Zn393 O394 1.962 . S
Zn393 O396 1.986 . S
Zn393 O398 1.996 . S
Zn393 O401 1.943 . S
O394 Zn393 1.962 . S
O394 C399 1.254 . S
O395 Zn392 2.031 . S
O395 C399 1.269 . S
O396 Zn393 1.986 . S
O396 C403 1.262 . S
O397 Zn392 2.049 . S
O397 C405 1.260 . S
O398 Zn393 1.996 . S
O398 C405 1.257 . S
C399 O394 1.254 . S
C399 O395 1.269 . S
C400 O401 1.249 . S
C400 O402 1.270 . S
O401 Zn393 1.943 . S
O401 C400 1.249 . S
O402 Zn392 2.067 . S
O402 C400 1.270 . S
C403 O396 1.262 . S
C403 O404 1.232 . S
O404 C403 1.232 . S
C405 O397 1.260 . S
C405 O398 1.257 . S
Zn406 O409 2.031 . S
Zn406 O411 2.049 . S
Zn406 O416 2.067 . S
Zn407 O408 1.962 . S
Zn407 O410 1.986 . S
Zn407 O412 1.996 . S
Zn407 O415 1.943 . S
O408 Zn407 1.962 . S
O408 C413 1.254 . S
O409 Zn406 2.031 . S
O409 C413 1.269 . S
O410 Zn407 1.986 . S
O410 C417 1.262 . S
O411 Zn406 2.049 . S
O411 C419 1.260 . S
O412 Zn407 1.996 . S
O412 C419 1.257 . S
C413 O408 1.254 . S
C413 O409 1.269 . S
C414 O415 1.249 . S
C414 O416 1.270 . S
O415 Zn407 1.943 . S
O415 C414 1.249 . S
O416 Zn406 2.067 . S
O416 C414 1.270 . S
C417 O410 1.262 . S
C417 O418 1.232 . S
O418 C417 1.232 . S
C419 O411 1.260 . S
C419 O412 1.257 . S
Zn420 O423 2.031 . S
Zn420 O425 2.049 . S
Zn420 O430 2.067 . S
Zn421 O422 1.962 . S
Zn421 O424 1.986 . S
Zn421 O426 1.996 . S
Zn421 O429 1.943 . S
O422 Zn421 1.962 . S
O422 C427 1.254 . S
O423 Zn420 2.031 . S
O423 C427 1.269 . S
O424 Zn421 1.986 . S
O424 C431 1.262 . S
O425 Zn420 2.049 . S
O425 C433 1.260 . S
O426 Zn421 1.996 . S
O426 C433 1.257 . S
C427 O422 1.254 . S
C427 O423 1.269 . S
C428 O429 1.249 . S
C428 O430 1.270 . S
O429 Zn421 1.943 . S
O429 C428 1.249 . S
O430 Zn420 2.067 . S
O430 C428 1.270 . S
C431 O424 1.262 . S
C431 O432 1.232 . S
O432 C431 1.232 . S
C433 O425 1.260 . S
C433 O426 1.257 . S
Zn434 O437 2.031 . S
Zn434 O439 2.049 . S
Zn434 O444 2.067 . S
Zn435 O436 1.962 . S
Zn435 O438 1.986 . S
Zn435 O440 1.996 . S
Zn435 O443 1.943 . S
O436 Zn435 1.962 . S
O436 C441 1.254 . S
O437 Zn434 2.031 . S
O437 C441 1.269 . S
O438 Zn435 1.986 . S
O438 C445 1.262 . S
O439 Zn434 2.049 . S
O439 C447 1.260 . S
O440 Zn435 1.996 . S
O440 C447 1.257 . S
C441 O436 1.254 . S
C441 O437 1.269 . S
C442 O443 1.249 . S
C442 O444 1.270 . S
O443 Zn435 1.943 . S
O443 C442 1.249 . S
O444 Zn434 2.067 . S
O444 C442 1.270 . S
C445 O438 1.262 . S
C445 O446 1.232 . S
O446 C445 1.232 . S
C447 O439 1.260 . S
C447 O440 1.257 . S
C448 C449 1.391 . S
C448 C450 1.394 . S
C448 H464 0.931 . S
C449 C448 1.391 . S
C449 C453 1.376 . S
C450 C448 1.394 . S
C450 C451 1.369 . S
C450 C454 1.531 . S
C451 C450 1.369 . S
C451 C452 1.410 . S
C451 C459 1.503 . S
C452 C451 1.410 . S
C452 C453 1.392 . S
C452 C455 1.511 . S
C453 C449 1.376 . S
C453 C452 1.392 . S
C453 H465 0.929 . S
C454 C450 1.531 . S
C454 H466 0.960 . S
C454 H467 0.962 . S
C454 H468 0.960 . S
C455 C452 1.511 . S
C455 H469 0.961 . S
C455 H470 0.961 . S
C455 H471 0.961 . S
C456 C457 1.370 . S
C456 C458 1.363 . S
C456 H472 0.931 . S
C457 C456 1.370 . S
C457 C461 1.408 . S
C458 C456 1.363 . S
C458 C459 1.370 . S
C458 C462 1.524 . S
C459 C451 1.503 . S
C459 C458 1.370 . S
C459 C460 1.403 . S
C460 C459 1.403 . S
C460 C461 1.404 . S
C460 C463 1.539 . S
C461 C457 1.408 . S
C461 C460 1.404 . S
C461 H473 0.930 . S
C462 C458 1.524 . S
C462 H474 0.956 . S
C462 H475 0.961 . S
C462 H476 0.961 . S
C463 C460 1.539 . S
C463 H477 0.958 . S
C463 H478 0.961 . S
C463 H479 0.960 . S
H464 C448 0.931 . S
H465 C453 0.929 . S
H466 C454 0.960 . S
H467 C454 0.962 . S
H468 C454 0.960 . S
H469 C455 0.961 . S
H470 C455 0.961 . S
H471 C455 0.961 . S
H472 C456 0.931 . S
H473 C461 0.930 . S
H474 C462 0.956 . S
H475 C462 0.961 . S
H476 C462 0.961 . S
H477 C463 0.958 . S
H478 C463 0.961 . S
H479 C463 0.960 . S
C480 C481 1.391 . S
C480 C482 1.394 . S
C480 H496 0.931 . S
C481 C480 1.391 . S
C481 C485 1.376 . S
C482 C480 1.394 . S
C482 C483 1.369 . S
C482 C486 1.531 . S
C483 C482 1.369 . S
C483 C484 1.410 . S
C483 C491 1.503 . S
C484 C483 1.410 . S
C484 C485 1.392 . S
C484 C487 1.511 . S
C485 C481 1.376 . S
C485 C484 1.392 . S
C485 H497 0.929 . S
C486 C482 1.531 . S
C486 H498 0.960 . S
C486 H499 0.962 . S
C486 H500 0.960 . S
C487 C484 1.511 . S
C487 H501 0.961 . S
C487 H502 0.961 . S
C487 H503 0.961 . S
C488 C489 1.370 . S
C488 C490 1.363 . S
C488 H504 0.931 . S
C489 C488 1.370 . S
C489 C493 1.408 . S
C490 C488 1.363 . S
C490 C491 1.370 . S
C490 C494 1.524 . S
C491 C483 1.503 . S
C491 C490 1.370 . S
C491 C492 1.403 . S
C492 C491 1.403 . S
C492 C493 1.404 . S
C492 C495 1.539 . S
C493 C489 1.408 . S
C493 C492 1.404 . S
C493 H505 0.930 . S
C494 C490 1.524 . S
C494 H506 0.956 . S
C494 H507 0.961 . S
C494 H508 0.961 . S
C495 C492 1.539 . S
C495 H509 0.958 . S
C495 H510 0.961 . S
C495 H511 0.960 . S
H496 C480 0.931 . S
H497 C485 0.929 . S
H498 C486 0.960 . S
H499 C486 0.962 . S
H500 C486 0.960 . S
H501 C487 0.961 . S
H502 C487 0.961 . S
H503 C487 0.961 . S
H504 C488 0.931 . S
H505 C493 0.930 . S
H506 C494 0.956 . S
H507 C494 0.961 . S
H508 C494 0.961 . S
H509 C495 0.958 . S
H510 C495 0.961 . S
H511 C495 0.960 . S
C512 C513 1.391 . S
C512 C514 1.394 . S
C512 H528 0.931 . S
C513 C512 1.391 . S
C513 C517 1.376 . S
C514 C512 1.394 . S
C514 C515 1.369 . S
C514 C518 1.531 . S
C515 C514 1.369 . S
C515 C516 1.410 . S
C515 C523 1.503 . S
C516 C515 1.410 . S
C516 C517 1.392 . S
C516 C519 1.511 . S
C517 C513 1.376 . S
C517 C516 1.392 . S
C517 H529 0.929 . S
C518 C514 1.531 . S
C518 H530 0.960 . S
C518 H531 0.962 . S
C518 H532 0.960 . S
C519 C516 1.511 . S
C519 H533 0.961 . S
C519 H534 0.961 . S
C519 H535 0.961 . S
C520 C521 1.370 . S
C520 C522 1.363 . S
C520 H536 0.931 . S
C521 C520 1.370 . S
C521 C525 1.408 . S
C522 C520 1.363 . S
C522 C523 1.370 . S
C522 C526 1.524 . S
C523 C515 1.503 . S
C523 C522 1.370 . S
C523 C524 1.403 . S
C524 C523 1.403 . S
C524 C525 1.404 . S
C524 C527 1.539 . S
C525 C521 1.408 . S
C525 C524 1.404 . S
C525 H537 0.930 . S
C526 C522 1.524 . S
C526 H538 0.956 . S
C526 H539 0.961 . S
C526 H540 0.961 . S
C527 C524 1.539 . S
C527 H541 0.958 . S
C527 H542 0.961 . S
C527 H543 0.960 . S
H528 C512 0.931 . S
H529 C517 0.929 . S
H530 C518 0.960 . S
H531 C518 0.962 . S
H532 C518 0.960 . S
H533 C519 0.961 . S
H534 C519 0.961 . S
H535 C519 0.961 . S
H536 C520 0.931 . S
H537 C525 0.930 . S
H538 C526 0.956 . S
H539 C526 0.961 . S
H540 C526 0.961 . S
H541 C527 0.958 . S
H542 C527 0.961 . S
H543 C527 0.960 . S
C544 C545 1.391 . S
C544 C546 1.394 . S
C544 H560 0.931 . S
C545 C544 1.391 . S
C545 C549 1.376 . S
C546 C544 1.394 . S
C546 C547 1.369 . S
C546 C550 1.531 . S
C547 C546 1.369 . S
C547 C548 1.410 . S
C547 C555 1.503 . S
C548 C547 1.410 . S
C548 C549 1.392 . S
C548 C551 1.511 . S
C549 C545 1.376 . S
C549 C548 1.392 . S
C549 H561 0.929 . S
C550 C546 1.531 . S
C550 H562 0.960 . S
C550 H563 0.962 . S
C550 H564 0.960 . S
C551 C548 1.511 . S
C551 H565 0.961 . S
C551 H566 0.961 . S
C551 H567 0.961 . S
C552 C553 1.370 . S
C552 C554 1.363 . S
C552 H568 0.931 . S
C553 C552 1.370 . S
C553 C557 1.408 . S
C554 C552 1.363 . S
C554 C555 1.370 . S
C554 C558 1.524 . S
C555 C547 1.503 . S
C555 C554 1.370 . S
C555 C556 1.403 . S
C556 C555 1.403 . S
C556 C557 1.404 . S
C556 C559 1.539 . S
C557 C553 1.408 . S
C557 C556 1.404 . S
C557 H569 0.930 . S
C558 C554 1.524 . S
C558 H570 0.956 . S
C558 H571 0.961 . S
C558 H572 0.961 . S
C559 C556 1.539 . S
C559 H573 0.958 . S
C559 H574 0.961 . S
C559 H575 0.960 . S
H560 C544 0.931 . S
H561 C549 0.929 . S
H562 C550 0.960 . S
H563 C550 0.962 . S
H564 C550 0.960 . S
H565 C551 0.961 . S
H566 C551 0.961 . S
H567 C551 0.961 . S
H568 C552 0.931 . S
H569 C557 0.930 . S
H570 C558 0.956 . S
H571 C558 0.961 . S
H572 C558 0.961 . S
H573 C559 0.958 . S
H574 C559 0.961 . S
H575 C559 0.960 . S
C576 C577 1.391 . S
C576 C578 1.394 . S
C576 H592 0.931 . S
C577 C576 1.391 . S
C577 C581 1.376 . S
C578 C576 1.394 . S
C578 C579 1.369 . S
C578 C582 1.531 . S
C579 C578 1.369 . S
C579 C580 1.410 . S
C579 C587 1.503 . S
C580 C579 1.410 . S
C580 C581 1.392 . S
C580 C583 1.511 . S
C581 C577 1.376 . S
C581 C580 1.392 . S
C581 H593 0.929 . S
C582 C578 1.531 . S
C582 H594 0.960 . S
C582 H595 0.962 . S
C582 H596 0.960 . S
C583 C580 1.511 . S
C583 H597 0.961 . S
C583 H598 0.961 . S
C583 H599 0.961 . S
C584 C585 1.370 . S
C584 C586 1.363 . S
C584 H600 0.931 . S
C585 C584 1.370 . S
C585 C589 1.408 . S
C586 C584 1.363 . S
C586 C587 1.370 . S
C586 C590 1.524 . S
C587 C579 1.503 . S
C587 C586 1.370 . S
C587 C588 1.403 . S
C588 C587 1.403 . S
C588 C589 1.404 . S
C588 C591 1.539 . S
C589 C585 1.408 . S
C589 C588 1.404 . S
C589 H601 0.930 . S
C590 C586 1.524 . S
C590 H602 0.956 . S
C590 H603 0.961 . S
C590 H604 0.961 . S
C591 C588 1.539 . S
C591 H605 0.958 . S
C591 H606 0.961 . S
C591 H607 0.960 . S
H592 C576 0.931 . S
H593 C581 0.929 . S
H594 C582 0.960 . S
H595 C582 0.962 . S
H596 C582 0.960 . S
H597 C583 0.961 . S
H598 C583 0.961 . S
H599 C583 0.961 . S
H600 C584 0.931 . S
H601 C589 0.930 . S
H602 C590 0.956 . S
H603 C590 0.961 . S
H604 C590 0.961 . S
H605 C591 0.958 . S
H606 C591 0.961 . S
H607 C591 0.960 . S
C608 C609 1.391 . S
C608 C610 1.394 . S
C608 H624 0.931 . S
C609 C608 1.391 . S
C609 C613 1.376 . S
C610 C608 1.394 . S
C610 C611 1.369 . S
C610 C614 1.531 . S
C611 C610 1.369 . S
C611 C612 1.410 . S
C611 C619 1.503 . S
C612 C611 1.410 . S
C612 C613 1.392 . S
C612 C615 1.511 . S
C613 C609 1.376 . S
C613 C612 1.392 . S
C613 H625 0.929 . S
C614 C610 1.531 . S
C614 H626 0.960 . S
C614 H627 0.962 . S
C614 H628 0.960 . S
C615 C612 1.511 . S
C615 H629 0.961 . S
C615 H630 0.961 . S
C615 H631 0.961 . S
C616 C617 1.370 . S
C616 C618 1.363 . S
C616 H632 0.931 . S
C617 C616 1.370 . S
C617 C621 1.408 . S
C618 C616 1.363 . S
C618 C619 1.370 . S
C618 C622 1.524 . S
C619 C611 1.503 . S
C619 C618 1.370 . S
C619 C620 1.403 . S
C620 C619 1.403 . S
C620 C621 1.404 . S
C620 C623 1.539 . S
C621 C617 1.408 . S
C621 C620 1.404 . S
C621 H633 0.930 . S
C622 C618 1.524 . S
C622 H634 0.956 . S
C622 H635 0.961 . S
C622 H636 0.961 . S
C623 C620 1.539 . S
C623 H637 0.958 . S
C623 H638 0.961 . S
C623 H639 0.960 . S
H624 C608 0.931 . S
H625 C613 0.929 . S
H626 C614 0.960 . S
H627 C614 0.962 . S
H628 C614 0.960 . S
H629 C615 0.961 . S
H630 C615 0.961 . S
H631 C615 0.961 . S
H632 C616 0.931 . S
H633 C621 0.930 . S
H634 C622 0.956 . S
H635 C622 0.961 . S
H636 C622 0.961 . S
H637 C623 0.958 . S
H638 C623 0.961 . S
H639 C623 0.960 . S
C640 C641 1.391 . S
C640 C642 1.394 . S
C640 H656 0.931 . S
C641 C640 1.391 . S
C641 C645 1.376 . S
C642 C640 1.394 . S
C642 C643 1.369 . S
C642 C646 1.531 . S
C643 C642 1.369 . S
C643 C644 1.410 . S
C643 C651 1.503 . S
C644 C643 1.410 . S
C644 C645 1.392 . S
C644 C647 1.511 . S
C645 C641 1.376 . S
C645 C644 1.392 . S
C645 H657 0.929 . S
C646 C642 1.531 . S
C646 H658 0.960 . S
C646 H659 0.962 . S
C646 H660 0.960 . S
C647 C644 1.511 . S
C647 H661 0.961 . S
C647 H662 0.961 . S
C647 H663 0.961 . S
C648 C649 1.370 . S
C648 C650 1.363 . S
C648 H664 0.931 . S
C649 C648 1.370 . S
C649 C653 1.408 . S
C650 C648 1.363 . S
C650 C651 1.370 . S
C650 C654 1.524 . S
C651 C643 1.503 . S
C651 C650 1.370 . S
C651 C652 1.403 . S
C652 C651 1.403 . S
C652 C653 1.404 . S
C652 C655 1.539 . S
C653 C649 1.408 . S
C653 C652 1.404 . S
C653 H665 0.930 . S
C654 C650 1.524 . S
C654 H666 0.956 . S
C654 H667 0.961 . S
C654 H668 0.961 . S
C655 C652 1.539 . S
C655 H669 0.958 . S
C655 H670 0.961 . S
C655 H671 0.960 . S
H656 C640 0.931 . S
H657 C645 0.929 . S
H658 C646 0.960 . S
H659 C646 0.962 . S
H660 C646 0.960 . S
H661 C647 0.961 . S
H662 C647 0.961 . S
H663 C647 0.961 . S
H664 C648 0.931 . S
H665 C653 0.930 . S
H666 C654 0.956 . S
H667 C654 0.961 . S
H668 C654 0.961 . S
H669 C655 0.958 . S
H670 C655 0.961 . S
H671 C655 0.960 . S
C672 C673 1.391 . S
C672 C674 1.394 . S
C672 H688 0.931 . S
C673 C672 1.391 . S
C673 C677 1.376 . S
C674 C672 1.394 . S
C674 C675 1.369 . S
C674 C678 1.531 . S
C675 C674 1.369 . S
C675 C676 1.410 . S
C675 C683 1.503 . S
C676 C675 1.410 . S
C676 C677 1.392 . S
C676 C679 1.511 . S
C677 C673 1.376 . S
C677 C676 1.392 . S
C677 H689 0.929 . S
C678 C674 1.531 . S
C678 H690 0.960 . S
C678 H691 0.962 . S
C678 H692 0.960 . S
C679 C676 1.511 . S
C679 H693 0.961 . S
C679 H694 0.961 . S
C679 H695 0.961 . S
C680 C681 1.370 . S
C680 C682 1.363 . S
C680 H696 0.931 . S
C681 C680 1.370 . S
C681 C685 1.408 . S
C682 C680 1.363 . S
C682 C683 1.370 . S
C682 C686 1.524 . S
C683 C675 1.503 . S
C683 C682 1.370 . S
C683 C684 1.403 . S
C684 C683 1.403 . S
C684 C685 1.404 . S
C684 C687 1.539 . S
C685 C681 1.408 . S
C685 C684 1.404 . S
C685 H697 0.930 . S
C686 C682 1.524 . S
C686 H698 0.956 . S
C686 H699 0.961 . S
C686 H700 0.961 . S
C687 C684 1.539 . S
C687 H701 0.958 . S
C687 H702 0.961 . S
C687 H703 0.960 . S
H688 C672 0.931 . S
H689 C677 0.929 . S
H690 C678 0.960 . S
H691 C678 0.962 . S
H692 C678 0.960 . S
H693 C679 0.961 . S
H694 C679 0.961 . S
H695 C679 0.961 . S
H696 C680 0.931 . S
H697 C685 0.930 . S
H698 C686 0.956 . S
H699 C686 0.961 . S
H700 C686 0.961 . S
H701 C687 0.958 . S
H702 C687 0.961 . S
H703 C687 0.960 . S
C704 C705 1.391 . S
C704 C706 1.394 . S
C704 H720 0.931 . S
C705 C704 1.391 . S
C705 C709 1.376 . S
C706 C704 1.394 . S
C706 C707 1.369 . S
C706 C710 1.531 . S
C707 C706 1.369 . S
C707 C708 1.410 . S
C707 C715 1.503 . S
C708 C707 1.410 . S
C708 C709 1.392 . S
C708 C711 1.511 . S
C709 C705 1.376 . S
C709 C708 1.392 . S
C709 H721 0.929 . S
C710 C706 1.531 . S
C710 H722 0.960 . S
C710 H723 0.962 . S
C710 H724 0.960 . S
C711 C708 1.511 . S
C711 H725 0.961 . S
C711 H726 0.961 . S
C711 H727 0.961 . S
C712 C713 1.370 . S
C712 C714 1.363 . S
C712 H728 0.931 . S
C713 C712 1.370 . S
C713 C717 1.408 . S
C714 C712 1.363 . S
C714 C715 1.370 . S
C714 C718 1.524 . S
C715 C707 1.503 . S
C715 C714 1.370 . S
C715 C716 1.403 . S
C716 C715 1.403 . S
C716 C717 1.404 . S
C716 C719 1.539 . S
C717 C713 1.408 . S
C717 C716 1.404 . S
C717 H729 0.930 . S
C718 C714 1.524 . S
C718 H730 0.956 . S
C718 H731 0.961 . S
C718 H732 0.961 . S
C719 C716 1.539 . S
C719 H733 0.958 . S
C719 H734 0.961 . S
C719 H735 0.960 . S
H720 C704 0.931 . S
H721 C709 0.929 . S
H722 C710 0.960 . S
H723 C710 0.962 . S
H724 C710 0.960 . S
H725 C711 0.961 . S
H726 C711 0.961 . S
H727 C711 0.961 . S
H728 C712 0.931 . S
H729 C717 0.930 . S
H730 C718 0.956 . S
H731 C718 0.961 . S
H732 C718 0.961 . S
H733 C719 0.958 . S
H734 C719 0.961 . S
H735 C719 0.960 . S
C736 C737 1.391 . S
C736 C738 1.394 . S
C736 H752 0.931 . S
C737 C736 1.391 . S
C737 C741 1.376 . S
C738 C736 1.394 . S
C738 C739 1.369 . S
C738 C742 1.531 . S
C739 C738 1.369 . S
C739 C740 1.410 . S
C739 C747 1.503 . S
C740 C739 1.410 . S
C740 C741 1.392 . S
C740 C743 1.511 . S
C741 C737 1.376 . S
C741 C740 1.392 . S
C741 H753 0.929 . S
C742 C738 1.531 . S
C742 H754 0.960 . S
C742 H755 0.962 . S
C742 H756 0.960 . S
C743 C740 1.511 . S
C743 H757 0.961 . S
C743 H758 0.961 . S
C743 H759 0.961 . S
C744 C745 1.370 . S
C744 C746 1.363 . S
C744 H760 0.931 . S
C745 C744 1.370 . S
C745 C749 1.408 . S
C746 C744 1.363 . S
C746 C747 1.370 . S
C746 C750 1.524 . S
C747 C739 1.503 . S
C747 C746 1.370 . S
C747 C748 1.403 . S
C748 C747 1.403 . S
C748 C749 1.404 . S
C748 C751 1.539 . S
C749 C745 1.408 . S
C749 C748 1.404 . S
C749 H761 0.930 . S
C750 C746 1.524 . S
C750 H762 0.956 . S
C750 H763 0.961 . S
C750 H764 0.961 . S
C751 C748 1.539 . S
C751 H765 0.958 . S
C751 H766 0.961 . S
C751 H767 0.960 . S
H752 C736 0.931 . S
H753 C741 0.929 . S
H754 C742 0.960 . S
H755 C742 0.962 . S
H756 C742 0.960 . S
H757 C743 0.961 . S
H758 C743 0.961 . S
H759 C743 0.961 . S
H760 C744 0.931 . S
H761 C749 0.930 . S
H762 C750 0.956 . S
H763 C750 0.961 . S
H764 C750 0.961 . S
H765 C751 0.958 . S
H766 C751 0.961 . S
H767 C751 0.960 . S
C768 C769 1.391 . S
C768 C770 1.394 . S
C768 H784 0.931 . S
C769 C768 1.391 . S
C769 C773 1.376 . S
C770 C768 1.394 . S
C770 C771 1.369 . S
C770 C774 1.531 . S
C771 C770 1.369 . S
C771 C772 1.410 . S
C771 C779 1.503 . S
C772 C771 1.410 . S
C772 C773 1.392 . S
C772 C775 1.511 . S
C773 C769 1.376 . S
C773 C772 1.392 . S
C773 H785 0.929 . S
C774 C770 1.531 . S
C774 H786 0.960 . S
C774 H787 0.962 . S
C774 H788 0.960 . S
C775 C772 1.511 . S
C775 H789 0.961 . S
C775 H790 0.961 . S
C775 H791 0.961 . S
C776 C777 1.370 . S
C776 C778 1.363 . S
C776 H792 0.931 . S
C777 C776 1.370 . S
C777 C781 1.408 . S
C778 C776 1.363 . S
C778 C779 1.370 . S
C778 C782 1.524 . S
C779 C771 1.503 . S
C779 C778 1.370 . S
C779 C780 1.403 . S
C780 C779 1.403 . S
C780 C781 1.404 . S
C780 C783 1.539 . S
C781 C777 1.408 . S
C781 C780 1.404 . S
C781 H793 0.930 . S
C782 C778 1.524 . S
C782 H794 0.956 . S
C782 H795 0.961 . S
C782 H796 0.961 . S
C783 C780 1.539 . S
C783 H797 0.958 . S
C783 H798 0.961 . S
C783 H799 0.960 . S
H784 C768 0.931 . S
H785 C773 0.929 . S
H786 C774 0.960 . S
H787 C774 0.962 . S
H788 C774 0.960 . S
H789 C775 0.961 . S
H790 C775 0.961 . S
H791 C775 0.961 . S
H792 C776 0.931 . S
H793 C781 0.930 . S
H794 C782 0.956 . S
H795 C782 0.961 . S
H796 C782 0.961 . S
H797 C783 0.958 . S
H798 C783 0.961 . S
H799 C783 0.960 . S
C800 C801 1.391 . S
C800 C802 1.394 . S
C800 H816 0.931 . S
C801 C800 1.391 . S
C801 C805 1.376 . S
C802 C800 1.394 . S
C802 C803 1.369 . S
C802 C806 1.531 . S
C803 C802 1.369 . S
C803 C804 1.410 . S
C803 C811 1.503 . S
C804 C803 1.410 . S
C804 C805 1.392 . S
C804 C807 1.511 . S
C805 C801 1.376 . S
C805 C804 1.392 . S
C805 H817 0.929 . S
C806 C802 1.531 . S
C806 H818 0.960 . S
C806 H819 0.962 . S
C806 H820 0.960 . S
C807 C804 1.511 . S
C807 H821 0.961 . S
C807 H822 0.961 . S
C807 H823 0.961 . S
C808 C809 1.370 . S
C808 C810 1.363 . S
C808 H824 0.931 . S
C809 C808 1.370 . S
C809 C813 1.408 . S
C810 C808 1.363 . S
C810 C811 1.370 . S
C810 C814 1.524 . S
C811 C803 1.503 . S
C811 C810 1.370 . S
C811 C812 1.403 . S
C812 C811 1.403 . S
C812 C813 1.404 . S
C812 C815 1.539 . S
C813 C809 1.408 . S
C813 C812 1.404 . S
C813 H825 0.930 . S
C814 C810 1.524 . S
C814 H826 0.956 . S
C814 H827 0.961 . S
C814 H828 0.961 . S
C815 C812 1.539 . S
C815 H829 0.958 . S
C815 H830 0.961 . S
C815 H831 0.960 . S
H816 C800 0.931 . S
H817 C805 0.929 . S
H818 C806 0.960 . S
H819 C806 0.962 . S
H820 C806 0.960 . S
H821 C807 0.961 . S
H822 C807 0.961 . S
H823 C807 0.961 . S
H824 C808 0.931 . S
H825 C813 0.930 . S
H826 C814 0.956 . S
H827 C814 0.961 . S
H828 C814 0.961 . S
H829 C815 0.958 . S
H830 C815 0.961 . S
H831 C815 0.960 . S
C832 C833 1.391 . S
C832 C834 1.394 . S
C832 H848 0.931 . S
C833 C832 1.391 . S
C833 C837 1.376 . S
C834 C832 1.394 . S
C834 C835 1.369 . S
C834 C838 1.531 . S
C835 C834 1.369 . S
C835 C836 1.410 . S
C835 C843 1.503 . S
C836 C835 1.410 . S
C836 C837 1.392 . S
C836 C839 1.511 . S
C837 C833 1.376 . S
C837 C836 1.392 . S
C837 H849 0.929 . S
C838 C834 1.531 . S
C838 H850 0.960 . S
C838 H851 0.962 . S
C838 H852 0.960 . S
C839 C836 1.511 . S
C839 H853 0.961 . S
C839 H854 0.961 . S
C839 H855 0.961 . S
C840 C841 1.370 . S
C840 C842 1.363 . S
C840 H856 0.931 . S
C841 C840 1.370 . S
C841 C845 1.408 . S
C842 C840 1.363 . S
C842 C843 1.370 . S
C842 C846 1.524 . S
C843 C835 1.503 . S
C843 C842 1.370 . S
C843 C844 1.403 . S
C844 C843 1.403 . S
C844 C845 1.404 . S
C844 C847 1.539 . S
C845 C841 1.408 . S
C845 C844 1.404 . S
C845 H857 0.930 . S
C846 C842 1.524 . S
C846 H858 0.956 . S
C846 H859 0.961 . S
C846 H860 0.961 . S
C847 C844 1.539 . S
C847 H861 0.958 . S
C847 H862 0.961 . S
C847 H863 0.960 . S
H848 C832 0.931 . S
H849 C837 0.929 . S
H850 C838 0.960 . S
H851 C838 0.962 . S
H852 C838 0.960 . S
H853 C839 0.961 . S
H854 C839 0.961 . S
H855 C839 0.961 . S
H856 C840 0.931 . S
H857 C845 0.930 . S
H858 C846 0.956 . S
H859 C846 0.961 . S
H860 C846 0.961 . S
H861 C847 0.958 . S
H862 C847 0.961 . S
H863 C847 0.960 . S
C864 C865 1.391 . S
C864 C866 1.394 . S
C864 H880 0.931 . S
C865 C864 1.391 . S
C865 C869 1.376 . S
C866 C864 1.394 . S
C866 C867 1.369 . S
C866 C870 1.531 . S
C867 C866 1.369 . S
C867 C868 1.410 . S
C867 C875 1.503 . S
C868 C867 1.410 . S
C868 C869 1.392 . S
C868 C871 1.511 . S
C869 C865 1.376 . S
C869 C868 1.392 . S
C869 H881 0.929 . S
C870 C866 1.531 . S
C870 H882 0.960 . S
C870 H883 0.962 . S
C870 H884 0.960 . S
C871 C868 1.511 . S
C871 H885 0.961 . S
C871 H886 0.961 . S
C871 H887 0.961 . S
C872 C873 1.370 . S
C872 C874 1.363 . S
C872 H888 0.931 . S
C873 C872 1.370 . S
C873 C877 1.408 . S
C874 C872 1.363 . S
C874 C875 1.370 . S
C874 C878 1.524 . S
C875 C867 1.503 . S
C875 C874 1.370 . S
C875 C876 1.403 . S
C876 C875 1.403 . S
C876 C877 1.404 . S
C876 C879 1.539 . S
C877 C873 1.408 . S
C877 C876 1.404 . S
C877 H889 0.930 . S
C878 C874 1.524 . S
C878 H890 0.956 . S
C878 H891 0.961 . S
C878 H892 0.961 . S
C879 C876 1.539 . S
C879 H893 0.958 . S
C879 H894 0.961 . S
C879 H895 0.960 . S
H880 C864 0.931 . S
H881 C869 0.929 . S
H882 C870 0.960 . S
H883 C870 0.962 . S
H884 C870 0.960 . S
H885 C871 0.961 . S
H886 C871 0.961 . S
H887 C871 0.961 . S
H888 C872 0.931 . S
H889 C877 0.930 . S
H890 C878 0.956 . S
H891 C878 0.961 . S
H892 C878 0.961 . S
H893 C879 0.958 . S
H894 C879 0.961 . S
H895 C879 0.960 . S
C896 C897 1.391 . S
C896 C898 1.394 . S
C896 H912 0.931 . S
C897 C896 1.391 . S
C897 C901 1.376 . S
C898 C896 1.394 . S
C898 C899 1.369 . S
C898 C902 1.531 . S
C899 C898 1.369 . S
C899 C900 1.410 . S
C899 C907 1.503 . S
C900 C899 1.410 . S
C900 C901 1.392 . S
C900 C903 1.511 . S
C901 C897 1.376 . S
C901 C900 1.392 . S
C901 H913 0.929 . S
C902 C898 1.531 . S
C902 H914 0.960 . S
C902 H915 0.962 . S
C902 H916 0.960 . S
C903 C900 1.511 . S
C903 H917 0.961 . S
C903 H918 0.961 . S
C903 H919 0.961 . S
C904 C905 1.370 . S
C904 C906 1.363 . S
C904 H920 0.931 . S
C905 C904 1.370 . S
C905 C909 1.408 . S
C906 C904 1.363 . S
C906 C907 1.370 . S
C906 C910 1.524 . S
C907 C899 1.503 . S
C907 C906 1.370 . S
C907 C908 1.403 . S
C908 C907 1.403 . S
C908 C909 1.404 . S
C908 C911 1.539 . S
C909 C905 1.408 . S
C909 C908 1.404 . S
C909 H921 0.930 . S
C910 C906 1.524 . S
C910 H922 0.956 . S
C910 H923 0.961 . S
C910 H924 0.961 . S
C911 C908 1.539 . S
C911 H925 0.958 . S
C911 H926 0.961 . S
C911 H927 0.960 . S
H912 C896 0.931 . S
H913 C901 0.929 . S
H914 C902 0.960 . S
H915 C902 0.962 . S
H916 C902 0.960 . S
H917 C903 0.961 . S
H918 C903 0.961 . S
H919 C903 0.961 . S
H920 C904 0.931 . S
H921 C909 0.930 . S
H922 C910 0.956 . S
H923 C910 0.961 . S
H924 C910 0.961 . S
H925 C911 0.958 . S
H926 C911 0.961 . S
H927 C911 0.960 . S
C928 C929 1.391 . S
C928 C930 1.394 . S
C928 H944 0.931 . S
C929 C928 1.391 . S
C929 C933 1.376 . S
C930 C928 1.394 . S
C930 C931 1.369 . S
C930 C934 1.531 . S
C931 C930 1.369 . S
C931 C932 1.410 . S
C931 C939 1.503 . S
C932 C931 1.410 . S
C932 C933 1.392 . S
C932 C935 1.511 . S
C933 C929 1.376 . S
C933 C932 1.392 . S
C933 H945 0.929 . S
C934 C930 1.531 . S
C934 H946 0.960 . S
C934 H947 0.962 . S
C934 H948 0.960 . S
C935 C932 1.511 . S
C935 H949 0.961 . S
C935 H950 0.961 . S
C935 H951 0.961 . S
C936 C937 1.370 . S
C936 C938 1.363 . S
C936 H952 0.931 . S
C937 C936 1.370 . S
C937 C941 1.408 . S
C938 C936 1.363 . S
C938 C939 1.370 . S
C938 C942 1.524 . S
C939 C931 1.503 . S
C939 C938 1.370 . S
C939 C940 1.403 . S
C940 C939 1.403 . S
C940 C941 1.404 . S
C940 C943 1.539 . S
C941 C937 1.408 . S
C941 C940 1.404 . S
C941 H953 0.930 . S
C942 C938 1.524 . S
C942 H954 0.956 . S
C942 H955 0.961 . S
C942 H956 0.961 . S
C943 C940 1.539 . S
C943 H957 0.958 . S
C943 H958 0.961 . S
C943 H959 0.960 . S
H944 C928 0.931 . S
H945 C933 0.929 . S
H946 C934 0.960 . S
H947 C934 0.962 . S
H948 C934 0.960 . S
H949 C935 0.961 . S
H950 C935 0.961 . S
H951 C935 0.961 . S
H952 C936 0.931 . S
H953 C941 0.930 . S
H954 C942 0.956 . S
H955 C942 0.961 . S
H956 C942 0.961 . S
H957 C943 0.958 . S
H958 C943 0.961 . S
H959 C943 0.960 . S
C960 C961 1.391 . S
C960 C962 1.394 . S
C960 H976 0.931 . S
C961 C960 1.391 . S
C961 C965 1.376 . S
C962 C960 1.394 . S
C962 C963 1.369 . S
C962 C966 1.531 . S
C963 C962 1.369 . S
C963 C964 1.410 . S
C963 C971 1.503 1_554 S
C964 C963 1.410 . S
C964 C965 1.392 . S
C964 C967 1.511 . S
C965 C961 1.376 . S
C965 C964 1.392 . S
C965 H977 0.929 . S
C966 C962 1.531 . S
C966 H978 0.960 1_554 S
C966 H979 0.962 . S
C966 H980 0.960 . S
C967 C964 1.511 . S
C967 H981 0.961 . S
C967 H982 0.961 1_554 S
C967 H983 0.961 . S
C968 C969 1.370 . S
C968 C970 1.363 . S
C968 H984 0.931 . S
C969 C968 1.370 . S
C969 C973 1.408 . S
C970 C968 1.363 . S
C970 C971 1.370 . S
C970 C974 1.524 . S
C971 C963 1.503 1_556 S
C971 C970 1.370 . S
C971 C972 1.403 . S
C972 C971 1.403 . S
C972 C973 1.404 . S
C972 C975 1.539 . S
C973 C969 1.408 . S
C973 C972 1.404 . S
C973 H985 0.930 . S
C974 C970 1.524 . S
C974 H986 0.956 . S
C974 H987 0.961 1_556 S
C974 H988 0.961 . S
C975 C972 1.539 . S
C975 H989 0.958 . S
C975 H990 0.961 . S
C975 H991 0.971 . S
H976 C960 0.931 . S
H977 C965 0.929 . S
H978 C966 0.960 1_556 S
H979 C966 0.962 . S
H980 C966 0.960 . S
H981 C967 0.961 . S
H982 C967 0.961 1_556 S
H983 C967 0.961 . S
H984 C968 0.931 . S
H985 C973 0.930 . S
H986 C974 0.956 . S
H987 C974 0.961 1_554 S
H988 C974 0.961 . S
H989 C975 0.958 . S
H990 C975 0.961 . S
H991 C975 0.971 . S
C992 C993 1.391 . S
C992 C994 1.394 . S
C992 H1008 0.931 . S
C993 C992 1.391 . S
C993 C997 1.376 . S
C994 C992 1.394 . S
C994 C995 1.369 . S
C994 C998 1.531 . S
C995 C994 1.369 . S
C995 C996 1.410 . S
C995 C1003 1.503 1_556 S
C996 C995 1.410 . S
C996 C997 1.392 . S
C996 C999 1.511 . S
C997 C993 1.376 . S
C997 C996 1.392 . S
C997 H1009 0.929 . S
C998 C994 1.531 . S
C998 H1010 0.960 1_556 S
C998 H1011 0.962 . S
C998 H1012 0.960 . S
C999 C996 1.511 . S
C999 H1013 0.961 . S
C999 H1014 0.961 1_556 S
C999 H1015 0.961 . S
C1000 C1001 1.370 . S
C1000 C1002 1.363 . S
C1000 H1016 0.931 . S
C1001 C1000 1.370 . S
C1001 C1005 1.408 . S
C1002 C1000 1.363 . S
C1002 C1003 1.370 . S
C1002 C1006 1.524 . S
C1003 C995 1.503 1_554 S
C1003 C1002 1.370 . S
C1003 C1004 1.403 . S
C1004 C1003 1.403 . S
C1004 C1005 1.404 . S
C1004 C1007 1.539 . S
C1005 C1001 1.408 . S
C1005 C1004 1.404 . S
C1005 H1017 0.930 . S
C1006 C1002 1.524 . S
C1006 H1018 0.956 . S
C1006 H1019 0.961 1_554 S
C1006 H1020 0.961 . S
C1007 C1004 1.539 . S
C1007 H1021 0.958 . S
C1007 H1022 0.961 . S
C1007 H1023 0.971 . S
H1008 C992 0.931 . S
H1009 C997 0.929 . S
H1010 C998 0.960 1_554 S
H1011 C998 0.962 . S
H1012 C998 0.960 . S
H1013 C999 0.961 . S
H1014 C999 0.961 1_554 S
H1015 C999 0.961 . S
H1016 C1000 0.931 . S
H1017 C1005 0.930 . S
H1018 C1006 0.956 . S
H1019 C1006 0.961 1_556 S
H1020 C1006 0.961 . S
H1021 C1007 0.958 . S
H1022 C1007 0.961 . S
H1023 C1007 0.971 . S
C1024 C1025 1.391 . S
C1024 C1026 1.394 . S
C1024 H1040 0.931 . S
C1025 C1024 1.391 . S
C1025 C1029 1.376 . S
C1026 C1024 1.394 . S
C1026 C1027 1.369 . S
C1026 C1030 1.531 . S
C1027 C1026 1.369 . S
C1027 C1028 1.410 . S
C1027 C1035 1.503 1_556 S
C1028 C1027 1.410 . S
C1028 C1029 1.392 . S
C1028 C1031 1.511 . S
C1029 C1025 1.376 . S
C1029 C1028 1.392 . S
C1029 H1041 0.929 . S
C1030 C1026 1.531 . S
C1030 H1042 0.960 1_556 S
C1030 H1043 0.962 . S
C1030 H1044 0.960 . S
C1031 C1028 1.511 . S
C1031 H1045 0.961 . S
C1031 H1046 0.961 1_556 S
C1031 H1047 0.961 . S
C1032 C1033 1.370 . S
C1032 C1034 1.363 . S
C1032 H1048 0.931 . S
C1033 C1032 1.370 . S
C1033 C1037 1.408 . S
C1034 C1032 1.363 . S
C1034 C1035 1.370 . S
C1034 C1038 1.524 . S
C1035 C1027 1.503 1_554 S
C1035 C1034 1.370 . S
C1035 C1036 1.403 . S
C1036 C1035 1.403 . S
C1036 C1037 1.404 . S
C1036 C1039 1.539 . S
C1037 C1033 1.408 . S
C1037 C1036 1.404 . S
C1037 H1049 0.930 . S
C1038 C1034 1.524 . S
C1038 H1050 0.956 . S
C1038 H1051 0.961 1_554 S
C1038 H1052 0.961 . S
C1039 C1036 1.539 . S
C1039 H1053 0.958 . S
C1039 H1054 0.961 . S
C1039 H1055 0.971 . S
H1040 C1024 0.931 . S
H1041 C1029 0.929 . S
H1042 C1030 0.960 1_554 S
H1043 C1030 0.962 . S
H1044 C1030 0.960 . S
H1045 C1031 0.961 . S
H1046 C1031 0.961 1_554 S
H1047 C1031 0.961 . S
H1048 C1032 0.931 . S
H1049 C1037 0.930 . S
H1050 C1038 0.956 . S
H1051 C1038 0.961 1_556 S
H1052 C1038 0.961 . S
H1053 C1039 0.958 . S
H1054 C1039 0.961 . S
H1055 C1039 0.971 . S
C1056 C1057 1.391 . S
C1056 C1058 1.394 . S
C1056 H1072 0.931 . S
C1057 C1056 1.391 . S
C1057 C1061 1.376 . S
C1058 C1056 1.394 . S
C1058 C1059 1.369 . S
C1058 C1062 1.531 . S
C1059 C1058 1.369 . S
C1059 C1060 1.410 . S
C1059 C1067 1.503 1_556 S
C1060 C1059 1.410 . S
C1060 C1061 1.392 . S
C1060 C1063 1.511 . S
C1061 C1057 1.376 . S
C1061 C1060 1.392 . S
C1061 H1073 0.929 . S
C1062 C1058 1.531 . S
C1062 H1074 0.960 1_556 S
C1062 H1075 0.962 . S
C1062 H1076 0.960 . S
C1063 C1060 1.511 . S
C1063 H1077 0.961 . S
C1063 H1078 0.961 1_556 S
C1063 H1079 0.961 . S
C1064 C1065 1.370 . S
C1064 C1066 1.363 . S
C1064 H1080 0.931 . S
C1065 C1064 1.370 . S
C1065 C1069 1.408 . S
C1066 C1064 1.363 . S
C1066 C1067 1.370 . S
C1066 C1070 1.524 . S
C1067 C1059 1.503 1_554 S
C1067 C1066 1.370 . S
C1067 C1068 1.403 . S
C1068 C1067 1.403 . S
C1068 C1069 1.404 . S
C1068 C1071 1.539 . S
C1069 C1065 1.408 . S
C1069 C1068 1.404 . S
C1069 H1081 0.930 . S
C1070 C1066 1.524 . S
C1070 H1082 0.956 . S
C1070 H1083 0.961 1_554 S
C1070 H1084 0.961 . S
C1071 C1068 1.539 . S
C1071 H1085 0.958 . S
C1071 H1086 0.961 . S
C1071 H1087 0.971 . S
H1072 C1056 0.931 . S
H1073 C1061 0.929 . S
H1074 C1062 0.960 1_554 S
H1075 C1062 0.962 . S
H1076 C1062 0.960 . S
H1077 C1063 0.961 . S
H1078 C1063 0.961 1_554 S
H1079 C1063 0.961 . S
H1080 C1064 0.931 . S
H1081 C1069 0.930 . S
H1082 C1070 0.956 . S
H1083 C1070 0.961 1_556 S
H1084 C1070 0.961 . S
H1085 C1071 0.958 . S
H1086 C1071 0.961 . S
H1087 C1071 0.971 . S
C1088 C1089 1.391 . S
C1088 C1090 1.394 . S
C1088 H1104 0.931 . S
C1089 C1088 1.391 . S
C1089 C1093 1.376 . S
C1090 C1088 1.394 . S
C1090 C1091 1.369 . S
C1090 C1094 1.531 . S
C1091 C1090 1.369 . S
C1091 C1092 1.410 . S
C1091 C1099 1.503 . S
C1092 C1091 1.410 . S
C1092 C1093 1.392 . S
C1092 C1095 1.511 . S
C1093 C1089 1.376 . S
C1093 C1092 1.392 . S
C1093 H1105 0.929 . S
C1094 C1090 1.531 . S
C1094 H1106 0.960 . S
C1094 H1107 0.962 . S
C1094 H1108 0.960 . S
C1095 C1092 1.511 . S
C1095 H1109 0.961 . S
C1095 H1110 0.961 . S
C1095 H1111 0.961 . S
C1096 C1097 1.370 . S
C1096 C1098 1.363 . S
C1096 H1112 0.931 . S
C1097 C1096 1.370 . S
C1097 C1101 1.408 . S
C1098 C1096 1.363 . S
C1098 C1099 1.370 . S
C1098 C1102 1.524 . S
C1099 C1091 1.503 . S
C1099 C1098 1.370 . S
C1099 C1100 1.403 . S
C1100 C1099 1.403 . S
C1100 C1101 1.404 . S
C1100 C1103 1.539 . S
C1101 C1097 1.408 . S
C1101 C1100 1.404 . S
C1101 H1113 0.930 . S
C1102 C1098 1.524 . S
C1102 H1114 0.956 . S
C1102 H1115 0.961 . S
C1102 H1116 0.961 . S
C1103 C1100 1.539 . S
C1103 H1117 0.958 . S
C1103 H1118 0.961 . S
C1103 H1119 0.960 . S
H1104 C1088 0.931 . S
H1105 C1093 0.929 . S
H1106 C1094 0.960 . S
H1107 C1094 0.962 . S
H1108 C1094 0.960 . S
H1109 C1095 0.961 . S
H1110 C1095 0.961 . S
H1111 C1095 0.961 . S
H1112 C1096 0.931 . S
H1113 C1101 0.930 . S
H1114 C1102 0.956 . S
H1115 C1102 0.961 . S
H1116 C1102 0.961 . S
H1117 C1103 0.958 . S
H1118 C1103 0.961 . S
H1119 C1103 0.960 . S
C1120 C1121 1.391 . S
C1120 C1122 1.394 . S
C1120 H1136 0.931 . S
C1121 C1120 1.391 . S
C1121 C1125 1.376 . S
C1122 C1120 1.394 . S
C1122 C1123 1.369 . S
C1122 C1126 1.531 . S
C1123 C1122 1.369 . S
C1123 C1124 1.410 . S
C1123 C1131 1.503 . S
C1124 C1123 1.410 . S
C1124 C1125 1.392 . S
C1124 C1127 1.511 . S
C1125 C1121 1.376 . S
C1125 C1124 1.392 . S
C1125 H1137 0.929 . S
C1126 C1122 1.531 . S
C1126 H1138 0.960 . S
C1126 H1139 0.962 . S
C1126 H1140 0.960 . S
C1127 C1124 1.511 . S
C1127 H1141 0.961 . S
C1127 H1142 0.961 . S
C1127 H1143 0.961 . S
C1128 C1129 1.370 . S
C1128 C1130 1.363 . S
C1128 H1144 0.931 . S
C1129 C1128 1.370 . S
C1129 C1133 1.408 . S
C1130 C1128 1.363 . S
C1130 C1131 1.370 . S
C1130 C1134 1.524 . S
C1131 C1123 1.503 . S
C1131 C1130 1.370 . S
C1131 C1132 1.403 . S
C1132 C1131 1.403 . S
C1132 C1133 1.404 . S
C1132 C1135 1.539 . S
C1133 C1129 1.408 . S
C1133 C1132 1.404 . S
C1133 H1145 0.930 . S
C1134 C1130 1.524 . S
C1134 H1146 0.956 . S
C1134 H1147 0.961 . S
C1134 H1148 0.961 . S
C1135 C1132 1.539 . S
C1135 H1149 0.958 . S
C1135 H1150 0.961 . S
C1135 H1151 0.960 . S
H1136 C1120 0.931 . S
H1137 C1125 0.929 . S
H1138 C1126 0.960 . S
H1139 C1126 0.962 . S
H1140 C1126 0.960 . S
H1141 C1127 0.961 . S
H1142 C1127 0.961 . S
H1143 C1127 0.961 . S
H1144 C1128 0.931 . S
H1145 C1133 0.930 . S
H1146 C1134 0.956 . S
H1147 C1134 0.961 . S
H1148 C1134 0.961 . S
H1149 C1135 0.958 . S
H1150 C1135 0.961 . S
H1151 C1135 0.960 . S
C1152 C1153 1.391 . S
C1152 C1154 1.394 . S
C1152 H1168 0.931 . S
C1153 C1152 1.391 . S
C1153 C1157 1.376 . S
C1154 C1152 1.394 . S
C1154 C1155 1.369 . S
C1154 C1158 1.531 . S
C1155 C1154 1.369 . S
C1155 C1156 1.410 . S
C1155 C1163 1.503 . S
C1156 C1155 1.410 . S
C1156 C1157 1.392 . S
C1156 C1159 1.511 . S
C1157 C1153 1.376 . S
C1157 C1156 1.392 . S
C1157 H1169 0.929 . S
C1158 C1154 1.531 . S
C1158 H1170 0.960 . S
C1158 H1171 0.962 . S
C1158 H1172 0.960 . S
C1159 C1156 1.511 . S
C1159 H1173 0.961 . S
C1159 H1174 0.961 . S
C1159 H1175 0.961 . S
C1160 C1161 1.370 . S
C1160 C1162 1.363 . S
C1160 H1176 0.931 . S
C1161 C1160 1.370 . S
C1161 C1165 1.408 . S
C1162 C1160 1.363 . S
C1162 C1163 1.370 . S
C1162 C1166 1.524 . S
C1163 C1155 1.503 . S
C1163 C1162 1.370 . S
C1163 C1164 1.403 . S
C1164 C1163 1.403 . S
C1164 C1165 1.404 . S
C1164 C1167 1.539 . S
C1165 C1161 1.408 . S
C1165 C1164 1.404 . S
C1165 H1177 0.930 . S
C1166 C1162 1.524 . S
C1166 H1178 0.956 . S
C1166 H1179 0.961 . S
C1166 H1180 0.961 . S
C1167 C1164 1.539 . S
C1167 H1181 0.958 . S
C1167 H1182 0.961 . S
C1167 H1183 0.960 . S
H1168 C1152 0.931 . S
H1169 C1157 0.929 . S
H1170 C1158 0.960 . S
H1171 C1158 0.962 . S
H1172 C1158 0.960 . S
H1173 C1159 0.961 . S
H1174 C1159 0.961 . S
H1175 C1159 0.961 . S
H1176 C1160 0.931 . S
H1177 C1165 0.930 . S
H1178 C1166 0.956 . S
H1179 C1166 0.961 . S
H1180 C1166 0.961 . S
H1181 C1167 0.958 . S
H1182 C1167 0.961 . S
H1183 C1167 0.960 . S
C1184 C1185 1.391 . S
C1184 C1186 1.394 . S
C1184 H1200 0.931 . S
C1185 C1184 1.391 . S
C1185 C1189 1.376 . S
C1186 C1184 1.394 . S
C1186 C1187 1.369 . S
C1186 C1190 1.531 . S
C1187 C1186 1.369 . S
C1187 C1188 1.410 . S
C1187 C1195 1.503 . S
C1188 C1187 1.410 . S
C1188 C1189 1.392 . S
C1188 C1191 1.511 . S
C1189 C1185 1.376 . S
C1189 C1188 1.392 . S
C1189 H1201 0.929 . S
C1190 C1186 1.531 . S
C1190 H1202 0.960 . S
C1190 H1203 0.962 . S
C1190 H1204 0.960 . S
C1191 C1188 1.511 . S
C1191 H1205 0.961 . S
C1191 H1206 0.961 . S
C1191 H1207 0.961 . S
C1192 C1193 1.370 . S
C1192 C1194 1.363 . S
C1192 H1208 0.931 . S
C1193 C1192 1.370 . S
C1193 C1197 1.408 . S
C1194 C1192 1.363 . S
C1194 C1195 1.370 . S
C1194 C1198 1.524 . S
C1195 C1187 1.503 . S
C1195 C1194 1.370 . S
C1195 C1196 1.403 . S
C1196 C1195 1.403 . S
C1196 C1197 1.404 . S
C1196 C1199 1.539 . S
C1197 C1193 1.408 . S
C1197 C1196 1.404 . S
C1197 H1209 0.930 . S
C1198 C1194 1.524 . S
C1198 H1210 0.956 . S
C1198 H1211 0.961 . S
C1198 H1212 0.961 . S
C1199 C1196 1.539 . S
C1199 H1213 0.958 . S
C1199 H1214 0.961 . S
C1199 H1215 0.960 . S
H1200 C1184 0.931 . S
H1201 C1189 0.929 . S
H1202 C1190 0.960 . S
H1203 C1190 0.962 . S
H1204 C1190 0.960 . S
H1205 C1191 0.961 . S
H1206 C1191 0.961 . S
H1207 C1191 0.961 . S
H1208 C1192 0.931 . S
H1209 C1197 0.930 . S
H1210 C1198 0.956 . S
H1211 C1198 0.961 . S
H1212 C1198 0.961 . S
H1213 C1199 0.958 . S
H1214 C1199 0.961 . S
H1215 C1199 0.960 . S
C1216 C1217 1.391 . S
C1216 C1218 1.394 . S
C1216 H1232 0.931 . S
C1217 C1216 1.391 . S
C1217 C1221 1.376 . S
C1218 C1216 1.394 . S
C1218 C1219 1.369 . S
C1218 C1222 1.531 . S
C1219 C1218 1.369 . S
C1219 C1220 1.410 . S
C1219 C1227 1.503 . S
C1220 C1219 1.410 . S
C1220 C1221 1.392 . S
C1220 C1223 1.511 . S
C1221 C1217 1.376 . S
C1221 C1220 1.392 . S
C1221 H1233 0.929 . S
C1222 C1218 1.531 . S
C1222 H1234 0.960 . S
C1222 H1235 0.962 . S
C1222 H1236 0.960 . S
C1223 C1220 1.511 . S
C1223 H1237 0.961 . S
C1223 H1238 0.961 . S
C1223 H1239 0.961 . S
C1224 C1225 1.370 . S
C1224 C1226 1.363 . S
C1224 H1240 0.931 . S
C1225 C1224 1.370 . S
C1225 C1229 1.408 . S
C1226 C1224 1.363 . S
C1226 C1227 1.370 . S
C1226 C1230 1.524 . S
C1227 C1219 1.503 . S
C1227 C1226 1.370 . S
C1227 C1228 1.403 . S
C1228 C1227 1.403 . S
C1228 C1229 1.404 . S
C1228 C1231 1.539 . S
C1229 C1225 1.408 . S
C1229 C1228 1.404 . S
C1229 H1241 0.930 . S
C1230 C1226 1.524 . S
C1230 H1242 0.956 . S
C1230 H1243 0.961 . S
C1230 H1244 0.961 . S
C1231 C1228 1.539 . S
C1231 H1245 0.958 . S
C1231 H1246 0.961 . S
C1231 H1247 0.960 . S
H1232 C1216 0.931 . S
H1233 C1221 0.929 . S
H1234 C1222 0.960 . S
H1235 C1222 0.962 . S
H1236 C1222 0.960 . S
H1237 C1223 0.961 . S
H1238 C1223 0.961 . S
H1239 C1223 0.961 . S
H1240 C1224 0.931 . S
H1241 C1229 0.930 . S
H1242 C1230 0.956 . S
H1243 C1230 0.961 . S
H1244 C1230 0.961 . S
H1245 C1231 0.958 . S
H1246 C1231 0.961 . S
H1247 C1231 0.960 . S
C1248 C1249 1.391 . S
C1248 C1250 1.394 . S
C1248 H1264 0.931 . S
C1249 C1248 1.391 . S
C1249 C1253 1.376 . S
C1250 C1248 1.394 . S
C1250 C1251 1.369 . S
C1250 C1254 1.531 . S
C1251 C1250 1.369 . S
C1251 C1252 1.410 . S
C1251 C1259 1.503 . S
C1252 C1251 1.410 . S
C1252 C1253 1.392 . S
C1252 C1255 1.511 . S
C1253 C1249 1.376 . S
C1253 C1252 1.392 . S
C1253 H1265 0.929 . S
C1254 C1250 1.531 . S
C1254 H1266 0.960 . S
C1254 H1267 0.962 . S
C1254 H1268 0.960 . S
C1255 C1252 1.511 . S
C1255 H1269 0.961 . S
C1255 H1270 0.961 . S
C1255 H1271 0.961 . S
C1256 C1257 1.370 . S
C1256 C1258 1.363 . S
C1256 H1272 0.931 . S
C1257 C1256 1.370 . S
C1257 C1261 1.408 . S
C1258 C1256 1.363 . S
C1258 C1259 1.370 . S
C1258 C1262 1.524 . S
C1259 C1251 1.503 . S
C1259 C1258 1.370 . S
C1259 C1260 1.403 . S
C1260 C1259 1.403 . S
C1260 C1261 1.404 . S
C1260 C1263 1.539 . S
C1261 C1257 1.408 . S
C1261 C1260 1.404 . S
C1261 H1273 0.930 . S
C1262 C1258 1.524 . S
C1262 H1274 0.956 . S
C1262 H1275 0.961 . S
C1262 H1276 0.961 . S
C1263 C1260 1.539 . S
C1263 H1277 0.958 . S
C1263 H1278 0.961 . S
C1263 H1279 0.960 . S
H1264 C1248 0.931 . S
H1265 C1253 0.929 . S
H1266 C1254 0.960 . S
H1267 C1254 0.962 . S
H1268 C1254 0.960 . S
H1269 C1255 0.961 . S
H1270 C1255 0.961 . S
H1271 C1255 0.961 . S
H1272 C1256 0.931 . S
H1273 C1261 0.930 . S
H1274 C1262 0.956 . S
H1275 C1262 0.961 . S
H1276 C1262 0.961 . S
H1277 C1263 0.958 . S
H1278 C1263 0.961 . S
H1279 C1263 0.960 . S
C1280 C1281 1.391 . S
C1280 C1282 1.394 . S
C1280 H1296 0.931 . S
C1281 C1280 1.391 . S
C1281 C1285 1.376 . S
C1282 C1280 1.394 . S
C1282 C1283 1.369 . S
C1282 C1286 1.531 . S
C1283 C1282 1.369 . S
C1283 C1284 1.410 . S
C1283 C1291 1.503 . S
C1284 C1283 1.410 . S
C1284 C1285 1.392 . S
C1284 C1287 1.511 . S
C1285 C1281 1.376 . S
C1285 C1284 1.392 . S
C1285 H1297 0.929 . S
C1286 C1282 1.531 . S
C1286 H1298 0.960 . S
C1286 H1299 0.962 . S
C1286 H1300 0.960 . S
C1287 C1284 1.511 . S
C1287 H1301 0.961 . S
C1287 H1302 0.961 . S
C1287 H1303 0.961 . S
C1288 C1289 1.370 . S
C1288 C1290 1.363 . S
C1288 H1304 0.931 . S
C1289 C1288 1.370 . S
C1289 C1293 1.408 . S
C1290 C1288 1.363 . S
C1290 C1291 1.370 . S
C1290 C1294 1.524 . S
C1291 C1283 1.503 . S
C1291 C1290 1.370 . S
C1291 C1292 1.403 . S
C1292 C1291 1.403 . S
C1292 C1293 1.404 . S
C1292 C1295 1.539 . S
C1293 C1289 1.408 . S
C1293 C1292 1.404 . S
C1293 H1305 0.930 . S
C1294 C1290 1.524 . S
C1294 H1306 0.956 . S
C1294 H1307 0.961 . S
C1294 H1308 0.961 . S
C1295 C1292 1.539 . S
C1295 H1309 0.958 . S
C1295 H1310 0.961 . S
C1295 H1311 0.960 . S
H1296 C1280 0.931 . S
H1297 C1285 0.929 . S
H1298 C1286 0.960 . S
H1299 C1286 0.962 . S
H1300 C1286 0.960 . S
H1301 C1287 0.961 . S
H1302 C1287 0.961 . S
H1303 C1287 0.961 . S
H1304 C1288 0.931 . S
H1305 C1293 0.930 . S
H1306 C1294 0.956 . S
H1307 C1294 0.961 . S
H1308 C1294 0.961 . S
H1309 C1295 0.958 . S
H1310 C1295 0.961 . S
H1311 C1295 0.960 . S
C1312 C1313 1.391 . S
C1312 C1314 1.394 . S
C1312 H1328 0.931 . S
C1313 C1312 1.391 . S
C1313 C1317 1.376 . S
C1314 C1312 1.394 . S
C1314 C1315 1.369 . S
C1314 C1318 1.531 . S
C1315 C1314 1.369 . S
C1315 C1316 1.410 . S
C1315 C1323 1.503 . S
C1316 C1315 1.410 . S
C1316 C1317 1.392 . S
C1316 C1319 1.511 . S
C1317 C1313 1.376 . S
C1317 C1316 1.392 . S
C1317 H1329 0.929 . S
C1318 C1314 1.531 . S
C1318 H1330 0.960 . S
C1318 H1331 0.962 . S
C1318 H1332 0.960 . S
C1319 C1316 1.511 . S
C1319 H1333 0.961 . S
C1319 H1334 0.961 . S
C1319 H1335 0.961 . S
C1320 C1321 1.370 . S
C1320 C1322 1.363 . S
C1320 H1336 0.931 . S
C1321 C1320 1.370 . S
C1321 C1325 1.408 . S
C1322 C1320 1.363 . S
C1322 C1323 1.370 . S
C1322 C1326 1.524 . S
C1323 C1315 1.503 . S
C1323 C1322 1.370 . S
C1323 C1324 1.403 . S
C1324 C1323 1.403 . S
C1324 C1325 1.404 . S
C1324 C1327 1.539 . S
C1325 C1321 1.408 . S
C1325 C1324 1.404 . S
C1325 H1337 0.930 . S
C1326 C1322 1.524 . S
C1326 H1338 0.956 . S
C1326 H1339 0.961 . S
C1326 H1340 0.961 . S
C1327 C1324 1.539 . S
C1327 H1341 0.958 . S
C1327 H1342 0.961 . S
C1327 H1343 0.960 . S
H1328 C1312 0.931 . S
H1329 C1317 0.929 . S
H1330 C1318 0.960 . S
H1331 C1318 0.962 . S
H1332 C1318 0.960 . S
H1333 C1319 0.961 . S
H1334 C1319 0.961 . S
H1335 C1319 0.961 . S
H1336 C1320 0.931 . S
H1337 C1325 0.930 . S
H1338 C1326 0.956 . S
H1339 C1326 0.961 . S
H1340 C1326 0.961 . S
H1341 C1327 0.958 . S
H1342 C1327 0.961 . S
H1343 C1327 0.960 . S
C1344 C1345 1.391 . S
C1344 C1346 1.394 . S
C1344 H1360 0.931 . S
C1345 C1344 1.391 . S
C1345 C1349 1.376 . S
C1346 C1344 1.394 . S
C1346 C1347 1.369 . S
C1346 C1350 1.531 . S
C1347 C1346 1.369 . S
C1347 C1348 1.410 . S
C1347 C1355 1.503 1_556 S
C1348 C1347 1.410 . S
C1348 C1349 1.392 . S
C1348 C1351 1.511 . S
C1349 C1345 1.376 . S
C1349 C1348 1.392 . S
C1349 H1361 0.929 . S
C1350 C1346 1.531 . S
C1350 H1362 0.960 1_556 S
C1350 H1363 0.962 . S
C1350 H1364 0.960 . S
C1351 C1348 1.511 . S
C1351 H1365 0.961 . S
C1351 H1366 0.961 1_556 S
C1351 H1367 0.961 . S
C1352 C1353 1.370 . S
C1352 C1354 1.363 . S
C1352 H1368 0.931 . S
C1353 C1352 1.370 . S
C1353 C1357 1.408 . S
C1354 C1352 1.363 . S
C1354 C1355 1.370 . S
C1354 C1358 1.524 . S
C1355 C1347 1.503 1_554 S
C1355 C1354 1.370 . S
C1355 C1356 1.403 . S
C1356 C1355 1.403 . S
C1356 C1357 1.404 . S
C1356 C1359 1.539 . S
C1357 C1353 1.408 . S
C1357 C1356 1.404 . S
C1357 H1369 0.930 . S
C1358 C1354 1.524 . S
C1358 H1370 0.956 . S
C1358 H1371 0.961 1_554 S
C1358 H1372 0.961 . S
C1359 C1356 1.539 . S
C1359 H1373 0.958 . S
C1359 H1374 0.961 . S
C1359 H1375 0.971 . S
H1360 C1344 0.931 . S
H1361 C1349 0.929 . S
H1362 C1350 0.960 1_554 S
H1363 C1350 0.962 . S
H1364 C1350 0.960 . S
H1365 C1351 0.961 . S
H1366 C1351 0.961 1_554 S
H1367 C1351 0.961 . S
H1368 C1352 0.931 . S
H1369 C1357 0.930 . S
H1370 C1358 0.956 . S
H1371 C1358 0.961 1_556 S
H1372 C1358 0.961 . S
H1373 C1359 0.958 . S
H1374 C1359 0.961 . S
H1375 C1359 0.971 . S
C1376 C1377 1.391 . S
C1376 C1378 1.394 . S
C1376 H1392 0.931 . S
C1377 C1376 1.391 . S
C1377 C1381 1.376 . S
C1378 C1376 1.394 . S
C1378 C1379 1.369 . S
C1378 C1382 1.531 . S
C1379 C1378 1.369 . S
C1379 C1380 1.410 . S
C1379 C1387 1.503 1_554 S
C1380 C1379 1.410 . S
C1380 C1381 1.392 . S
C1380 C1383 1.511 . S
C1381 C1377 1.376 . S
C1381 C1380 1.392 . S
C1381 H1393 0.929 . S
C1382 C1378 1.531 . S
C1382 H1394 0.960 1_554 S
C1382 H1395 0.962 . S
C1382 H1396 0.960 . S
C1383 C1380 1.511 . S
C1383 H1397 0.961 . S
C1383 H1398 0.961 1_554 S
C1383 H1399 0.961 . S
C1384 C1385 1.370 . S
C1384 C1386 1.363 . S
C1384 H1400 0.931 . S
C1385 C1384 1.370 . S
C1385 C1389 1.408 . S
C1386 C1384 1.363 . S
C1386 C1387 1.370 . S
C1386 C1390 1.524 . S
C1387 C1379 1.503 1_556 S
C1387 C1386 1.370 . S
C1387 C1388 1.403 . S
C1388 C1387 1.403 . S
C1388 C1389 1.404 . S
C1388 C1391 1.539 . S
C1389 C1385 1.408 . S
C1389 C1388 1.404 . S
C1389 H1401 0.930 . S
C1390 C1386 1.524 . S
C1390 H1402 0.956 . S
C1390 H1403 0.961 1_556 S
C1390 H1404 0.961 . S
C1391 C1388 1.539 . S
C1391 H1405 0.958 . S
C1391 H1406 0.961 . S
C1391 H1407 0.971 . S
H1392 C1376 0.931 . S
H1393 C1381 0.929 . S
H1394 C1382 0.960 1_556 S
H1395 C1382 0.962 . S
H1396 C1382 0.960 . S
H1397 C1383 0.961 . S
H1398 C1383 0.961 1_556 S
H1399 C1383 0.961 . S
H1400 C1384 0.931 . S
H1401 C1389 0.930 . S
H1402 C1390 0.956 . S
H1403 C1390 0.961 1_554 S
H1404 C1390 0.961 . S
H1405 C1391 0.958 . S
H1406 C1391 0.961 . S
H1407 C1391 0.971 . S
C1408 C1409 1.391 . S
C1408 C1410 1.394 . S
C1408 H1424 0.931 . S
C1409 C1408 1.391 . S
C1409 C1413 1.376 . S
C1410 C1408 1.394 . S
C1410 C1411 1.369 . S
C1410 C1414 1.531 . S
C1411 C1410 1.369 . S
C1411 C1412 1.410 . S
C1411 C1419 1.503 1_554 S
C1412 C1411 1.410 . S
C1412 C1413 1.392 . S
C1412 C1415 1.511 . S
C1413 C1409 1.376 . S
C1413 C1412 1.392 . S
C1413 H1425 0.929 . S
C1414 C1410 1.531 . S
C1414 H1426 0.960 1_554 S
C1414 H1427 0.962 . S
C1414 H1428 0.960 . S
C1415 C1412 1.511 . S
C1415 H1429 0.961 . S
C1415 H1430 0.961 1_554 S
C1415 H1431 0.961 . S
C1416 C1417 1.370 . S
C1416 C1418 1.363 . S
C1416 H1432 0.931 . S
C1417 C1416 1.370 . S
C1417 C1421 1.408 . S
C1418 C1416 1.363 . S
C1418 C1419 1.370 . S
C1418 C1422 1.524 . S
C1419 C1411 1.503 1_556 S
C1419 C1418 1.370 . S
C1419 C1420 1.403 . S
C1420 C1419 1.403 . S
C1420 C1421 1.404 . S
C1420 C1423 1.539 . S
C1421 C1417 1.408 . S
C1421 C1420 1.404 . S
C1421 H1433 0.930 . S
C1422 C1418 1.524 . S
C1422 H1434 0.956 . S
C1422 H1435 0.961 1_556 S
C1422 H1436 0.961 . S
C1423 C1420 1.539 . S
C1423 H1437 0.958 . S
C1423 H1438 0.961 . S
C1423 H1439 0.971 . S
H1424 C1408 0.931 . S
H1425 C1413 0.929 . S
H1426 C1414 0.960 1_556 S
H1427 C1414 0.962 . S
H1428 C1414 0.960 . S
H1429 C1415 0.961 . S
H1430 C1415 0.961 1_556 S
H1431 C1415 0.961 . S
H1432 C1416 0.931 . S
H1433 C1421 0.930 . S
H1434 C1422 0.956 . S
H1435 C1422 0.961 1_554 S
H1436 C1422 0.961 . S
H1437 C1423 0.958 . S
H1438 C1423 0.961 . S
H1439 C1423 0.971 . S
C1440 C1441 1.391 . S
C1440 C1442 1.394 . S
C1440 H1456 0.931 . S
C1441 C1440 1.391 . S
C1441 C1445 1.376 . S
C1442 C1440 1.394 . S
C1442 C1443 1.369 . S
C1442 C1446 1.531 . S
C1443 C1442 1.369 . S
C1443 C1444 1.410 . S
C1443 C1451 1.503 1_556 S
C1444 C1443 1.410 . S
C1444 C1445 1.392 . S
C1444 C1447 1.511 . S
C1445 C1441 1.376 . S
C1445 C1444 1.392 . S
C1445 H1457 0.929 . S
C1446 C1442 1.531 . S
C1446 H1458 0.960 1_556 S
C1446 H1459 0.962 . S
C1446 H1460 0.960 . S
C1447 C1444 1.511 . S
C1447 H1461 0.961 . S
C1447 H1462 0.961 1_556 S
C1447 H1463 0.961 . S
C1448 C1449 1.370 . S
C1448 C1450 1.363 . S
C1448 H1464 0.931 . S
C1449 C1448 1.370 . S
C1449 C1453 1.408 . S
C1450 C1448 1.363 . S
C1450 C1451 1.370 . S
C1450 C1454 1.524 . S
C1451 C1443 1.503 1_554 S
C1451 C1450 1.370 . S
C1451 C1452 1.403 . S
C1452 C1451 1.403 . S
C1452 C1453 1.404 . S
C1452 C1455 1.539 . S
C1453 C1449 1.408 . S
C1453 C1452 1.404 . S
C1453 H1465 0.930 . S
C1454 C1450 1.524 . S
C1454 H1466 0.956 . S
C1454 H1467 0.961 1_554 S
C1454 H1468 0.961 . S
C1455 C1452 1.539 . S
C1455 H1469 0.958 . S
C1455 H1470 0.961 . S
C1455 H1471 0.971 . S
H1456 C1440 0.931 . S
H1457 C1445 0.929 . S
H1458 C1446 0.960 1_554 S
H1459 C1446 0.962 . S
H1460 C1446 0.960 . S
H1461 C1447 0.961 . S
H1462 C1447 0.961 1_554 S
H1463 C1447 0.961 . S
H1464 C1448 0.931 . S
H1465 C1453 0.930 . S
H1466 C1454 0.956 . S
H1467 C1454 0.961 1_556 S
H1468 C1454 0.961 . S
H1469 C1455 0.958 . S
H1470 C1455 0.961 . S
H1471 C1455 0.971 . S
C1472 C1473 1.391 . S
C1472 C1474 1.394 . S
C1472 H1488 0.931 . S
C1473 C1472 1.391 . S
C1473 C1477 1.376 . S
C1474 C1472 1.394 . S
C1474 C1475 1.369 . S
C1474 C1478 1.531 1_545 S
C1475 C1474 1.369 . S
C1475 C1476 1.410 . S
C1475 C1483 1.503 1_545 S
C1476 C1475 1.410 . S
C1476 C1477 1.392 . S
C1476 C1479 1.511 . S
C1477 C1473 1.376 . S
C1477 C1476 1.392 . S
C1477 H1489 0.929 . S
C1478 C1474 1.531 1_565 S
C1478 H1490 0.960 . S
C1478 H1491 0.962 . S
C1478 H1492 0.960 . S
C1479 C1476 1.511 . S
C1479 H1493 0.961 . S
C1479 H1494 0.961 . S
C1479 H1495 0.961 . S
C1480 C1481 1.370 . S
C1480 C1482 1.363 . S
C1480 H1496 0.931 . S
C1481 C1480 1.370 . S
C1481 C1485 1.408 . S
C1482 C1480 1.363 . S
C1482 C1483 1.370 . S
C1482 C1486 1.524 1_565 S
C1483 C1475 1.503 1_565 S
C1483 C1482 1.370 . S
C1483 C1484 1.403 . S
C1484 C1483 1.403 . S
C1484 C1485 1.404 . S
C1484 C1487 1.539 . S
C1485 C1481 1.408 . S
C1485 C1484 1.404 . S
C1485 H1497 0.930 . S
C1486 C1482 1.524 1_545 S
C1486 H1498 0.956 . S
C1486 H1499 0.961 . S
C1486 H1500 0.961 1_545 S
C1487 C1484 1.539 . S
C1487 H1501 0.958 . S
C1487 H1502 0.961 . S
C1487 H1503 0.960 . S
H1488 C1472 0.931 . S
H1489 C1477 0.929 . S
H1490 C1478 0.960 . S
H1491 C1478 0.962 . S
H1492 C1478 0.960 . S
H1493 C1479 0.961 . S
H1494 C1479 0.961 . S
H1495 C1479 0.961 . S
H1496 C1480 0.931 . S
H1497 C1485 0.930 . S
H1498 C1486 0.956 . S
H1499 C1486 0.961 . S
H1500 C1486 0.961 1_565 S
H1501 C1487 0.958 . S
H1502 C1487 0.961 . S
H1503 C1487 0.960 . S
C1504 C1505 1.391 . S
C1504 C1506 1.394 . S
C1504 H1520 0.931 . S
C1505 C1504 1.391 . S
C1505 C1509 1.376 . S
C1506 C1504 1.394 . S
C1506 C1507 1.369 . S
C1506 C1510 1.531 . S
C1507 C1506 1.369 . S
C1507 C1508 1.410 . S
C1507 C1515 1.503 1_655 S
C1508 C1507 1.410 . S
C1508 C1509 1.392 . S
C1508 C1511 1.511 1_655 S
C1509 C1505 1.376 . S
C1509 C1508 1.392 . S
C1509 H1521 0.929 . S
C1510 C1506 1.531 . S
C1510 H1522 0.960 . S
C1510 H1523 0.962 . S
C1510 H1524 0.960 . S
C1511 C1508 1.511 1_455 S
C1511 H1525 0.961 . S
C1511 H1526 0.961 . S
C1511 H1527 0.961 . S
C1512 C1513 1.370 . S
C1512 C1514 1.363 . S
C1512 H1528 0.931 . S
C1513 C1512 1.370 . S
C1513 C1517 1.408 . S
C1514 C1512 1.363 . S
C1514 C1515 1.370 . S
C1514 C1518 1.524 . S
C1515 C1507 1.503 1_455 S
C1515 C1514 1.370 . S
C1515 C1516 1.403 . S
C1516 C1515 1.403 . S
C1516 C1517 1.404 . S
C1516 C1519 1.539 . S
C1517 C1513 1.408 . S
C1517 C1516 1.404 . S
C1517 H1529 0.930 . S
C1518 C1514 1.524 . S
C1518 H1530 0.956 1_455 S
C1518 H1531 0.961 1_455 S
C1518 H1532 0.961 . S
C1519 C1516 1.539 . S
C1519 H1533 0.958 . S
C1519 H1534 0.961 . S
C1519 H1535 0.960 . S
H1520 C1504 0.931 . S
H1521 C1509 0.929 . S
H1522 C1510 0.960 . S
H1523 C1510 0.962 . S
H1524 C1510 0.960 . S
H1525 C1511 0.961 . S
H1526 C1511 0.961 . S
H1527 C1511 0.961 . S
H1528 C1512 0.931 . S
H1529 C1517 0.930 . S
H1530 C1518 0.956 1_655 S
H1531 C1518 0.961 1_655 S
H1532 C1518 0.961 . S
H1533 C1519 0.958 . S
H1534 C1519 0.961 . S
H1535 C1519 0.960 . S
C1536 C1537 1.391 . S
C1536 C1538 1.394 . S
C1536 H1552 0.931 . S
C1537 C1536 1.391 . S
C1537 C1541 1.376 . S
C1538 C1536 1.394 . S
C1538 C1539 1.369 . S
C1538 C1542 1.531 . S
C1539 C1538 1.369 . S
C1539 C1540 1.410 . S
C1539 C1547 1.503 1_545 S
C1540 C1539 1.410 . S
C1540 C1541 1.392 . S
C1540 C1543 1.511 . S
C1541 C1537 1.376 . S
C1541 C1540 1.392 . S
C1541 H1553 0.929 . S
C1542 C1538 1.531 . S
C1542 H1554 0.960 1_545 S
C1542 H1555 0.962 . S
C1542 H1556 0.960 . S
C1543 C1540 1.511 . S
C1543 H1557 0.961 . S
C1543 H1558 0.988 . S
C1543 H1559 0.961 . S
C1544 C1545 1.370 . S
C1544 C1546 1.363 . S
C1544 H1560 0.931 . S
C1545 C1544 1.370 . S
C1545 C1549 1.408 . S
C1546 C1544 1.363 . S
C1546 C1547 1.370 . S
C1546 C1550 1.524 1_565 S
C1547 C1539 1.503 1_565 S
C1547 C1546 1.370 . S
C1547 C1548 1.403 . S
C1548 C1547 1.403 . S
C1548 C1549 1.404 . S
C1548 C1551 1.539 . S
C1549 C1545 1.408 . S
C1549 C1548 1.404 . S
C1549 H1561 0.930 . S
C1550 C1546 1.524 1_545 S
C1550 H1562 0.956 . S
C1550 H1563 0.961 . S
C1550 H1564 0.961 . S
C1551 C1548 1.539 . S
C1551 H1565 0.958 . S
C1551 H1566 0.961 . S
C1551 H1567 0.960 . S
H1552 C1536 0.931 . S
H1553 C1541 0.929 . S
H1554 C1542 0.960 1_565 S
H1555 C1542 0.962 . S
H1556 C1542 0.960 . S
H1557 C1543 0.961 . S
H1558 C1543 0.988 . S
H1559 C1543 0.961 . S
H1560 C1544 0.931 . S
H1561 C1549 0.930 . S
H1562 C1550 0.956 . S
H1563 C1550 0.961 . S
H1564 C1550 0.961 . S
H1565 C1551 0.958 . S
H1566 C1551 0.961 . S
H1567 C1551 0.960 . S
C1568 C1569 1.391 . S
C1568 C1570 1.394 . S
C1568 H1584 0.931 . S
C1569 C1568 1.391 . S
C1569 C1573 1.376 . S
C1570 C1568 1.394 . S
C1570 C1571 1.369 . S
C1570 C1574 1.531 . S
C1571 C1570 1.369 . S
C1571 C1572 1.410 . S
C1571 C1579 1.503 1_455 S
C1572 C1571 1.410 . S
C1572 C1573 1.392 . S
C1572 C1575 1.511 . S
C1573 C1569 1.376 . S
C1573 C1572 1.392 . S
C1573 H1585 0.929 . S
C1574 C1570 1.531 . S
C1574 H1586 0.960 1_455 S
C1574 H1587 0.962 1_455 S
C1574 H1588 0.960 . S
C1575 C1572 1.511 . S
C1575 H1589 0.961 . S
C1575 H1590 0.961 . S
C1575 H1591 0.961 . S
C1576 C1577 1.370 . S
C1576 C1578 1.363 . S
C1576 H1592 0.931 . S
C1577 C1576 1.370 . S
C1577 C1581 1.408 . S
C1578 C1576 1.363 . S
C1578 C1579 1.370 . S
C1578 C1582 1.524 . S
C1579 C1571 1.503 1_655 S
C1579 C1578 1.370 . S
C1579 C1580 1.403 . S
C1580 C1579 1.403 . S
C1580 C1581 1.404 . S
C1580 C1583 1.539 1_655 S
C1581 C1577 1.408 . S
C1581 C1580 1.404 . S
C1581 H1593 0.930 . S
C1582 C1578 1.524 . S
C1582 H1594 0.956 . S
C1582 H1595 0.961 . S
C1582 H1596 0.961 . S
C1583 C1580 1.539 1_455 S
C1583 H1597 0.958 . S
C1583 H1598 0.961 . S
C1583 H1599 0.960 . S
H1584 C1568 0.931 . S
H1585 C1573 0.929 . S
H1586 C1574 0.960 1_655 S
H1587 C1574 0.962 1_655 S
H1588 C1574 0.960 . S
H1589 C1575 0.961 . S
H1590 C1575 0.961 . S
H1591 C1575 0.961 . S
H1592 C1576 0.931 . S
H1593 C1581 0.930 . S
H1594 C1582 0.956 . S
H1595 C1582 0.961 . S
H1596 C1582 0.961 . S
H1597 C1583 0.958 . S
H1598 C1583 0.961 . S
H1599 C1583 0.960 . S
C1600 C1601 1.391 . S
C1600 C1602 1.394 . S
C1600 H1616 0.931 . S
C1601 C1600 1.391 . S
C1601 C1605 1.376 . S
C1602 C1600 1.394 . S
C1602 C1603 1.369 . S
C1602 C1606 1.531 . S
C1603 C1602 1.369 . S
C1603 C1604 1.410 . S
C1603 C1611 1.503 1_565 S
C1604 C1603 1.410 . S
C1604 C1605 1.392 . S
C1604 C1607 1.511 1_565 S
C1605 C1601 1.376 . S
C1605 C1604 1.392 . S
C1605 H1617 0.929 . S
C1606 C1602 1.531 . S
C1606 H1618 0.960 . S
C1606 H1619 0.962 . S
C1606 H1620 0.960 . S
C1607 C1604 1.511 1_545 S
C1607 H1621 0.961 . S
C1607 H1622 0.961 . S
C1607 H1623 0.961 . S
C1608 C1609 1.370 . S
C1608 C1610 1.363 . S
C1608 H1624 0.931 . S
C1609 C1608 1.370 . S
C1609 C1613 1.408 . S
C1610 C1608 1.363 . S
C1610 C1611 1.370 . S
C1610 C1614 1.524 . S
C1611 C1603 1.503 1_545 S
C1611 C1610 1.370 . S
C1611 C1612 1.403 . S
C1612 C1611 1.403 . S
C1612 C1613 1.404 . S
C1612 C1615 1.539 . S
C1613 C1609 1.408 . S
C1613 C1612 1.404 . S
C1613 H1625 0.930 . S
C1614 C1610 1.524 . S
C1614 H1626 0.956 . S
C1614 H1627 0.961 . S
C1614 H1628 0.961 . S
C1615 C1612 1.539 . S
C1615 H1629 0.958 1_545 S
C1615 H1630 0.961 . S
C1615 H1631 0.960 1_545 S
H1616 C1600 0.931 . S
H1617 C1605 0.929 . S
H1618 C1606 0.960 . S
H1619 C1606 0.962 . S
H1620 C1606 0.960 . S
H1621 C1607 0.961 . S
H1622 C1607 0.961 . S
H1623 C1607 0.961 . S
H1624 C1608 0.931 . S
H1625 C1613 0.930 . S
H1626 C1614 0.956 . S
H1627 C1614 0.961 . S
H1628 C1614 0.961 . S
H1629 C1615 0.958 1_565 S
H1630 C1615 0.961 . S
H1631 C1615 0.960 1_565 S
C1632 C1633 1.391 . S
C1632 C1634 1.394 . S
C1632 H1648 0.931 . S
C1633 C1632 1.391 . S
C1633 C1637 1.376 . S
C1634 C1632 1.394 . S
C1634 C1635 1.369 . S
C1634 C1638 1.531 . S
C1635 C1634 1.369 . S
C1635 C1636 1.410 . S
C1635 C1643 1.503 1_655 S
C1636 C1635 1.410 . S
C1636 C1637 1.392 . S
C1636 C1639 1.511 1_655 S
C1637 C1633 1.376 . S
C1637 C1636 1.392 . S
C1637 H1649 0.929 . S
C1638 C1634 1.531 . S
C1638 H1650 0.960 . S
C1638 H1651 0.962 . S
C1638 H1652 0.960 . S
C1639 C1636 1.511 1_455 S
C1639 H1653 0.961 1_455 S
C1639 H1654 0.961 . S
C1639 H1655 0.961 . S
C1640 C1641 1.370 . S
C1640 C1642 1.363 . S
C1640 H1656 0.931 . S
C1641 C1640 1.370 . S
C1641 C1645 1.408 . S
C1642 C1640 1.363 . S
C1642 C1643 1.370 . S
C1642 C1646 1.524 1_455 S
C1643 C1635 1.503 1_455 S
C1643 C1642 1.370 . S
C1643 C1644 1.403 . S
C1644 C1643 1.403 . S
C1644 C1645 1.404 . S
C1644 C1647 1.539 . S
C1645 C1641 1.408 . S
C1645 C1644 1.404 . S
C1645 H1657 0.930 . S
C1646 C1642 1.524 1_655 S
C1646 H1658 0.956 . S
C1646 H1659 0.961 . S
C1646 H1660 0.961 . S
C1647 C1644 1.539 . S
C1647 H1661 0.958 . S
C1647 H1662 0.961 . S
C1647 H1663 0.960 . S
H1648 C1632 0.931 . S
H1649 C1637 0.929 . S
H1650 C1638 0.960 . S
H1651 C1638 0.962 . S
H1652 C1638 0.960 . S
H1653 C1639 0.961 1_655 S
H1654 C1639 0.961 . S
H1655 C1639 0.961 . S
H1656 C1640 0.931 . S
H1657 C1645 0.930 . S
H1658 C1646 0.956 . S
H1659 C1646 0.961 . S
H1660 C1646 0.961 . S
H1661 C1647 0.958 . S
H1662 C1647 0.961 . S
H1663 C1647 0.960 . S
C1664 C1665 1.391 . S
C1664 C1666 1.394 . S
C1664 H1680 0.931 . S
C1665 C1664 1.391 . S
C1665 C1669 1.376 . S
C1666 C1664 1.394 . S
C1666 C1667 1.369 . S
C1666 C1670 1.531 . S
C1667 C1666 1.369 . S
C1667 C1668 1.410 . S
C1667 C1675 1.503 1_565 S
C1668 C1667 1.410 . S
C1668 C1669 1.392 . S
C1668 C1671 1.511 . S
C1669 C1665 1.376 . S
C1669 C1668 1.392 . S
C1669 H1681 0.929 . S
C1670 C1666 1.531 . S
C1670 H1682 0.960 . S
C1670 H1683 0.962 . S
C1670 H1684 0.960 . S
C1671 C1668 1.511 . S
C1671 H1685 0.961 . S
C1671 H1686 0.961 1_565 S
C1671 H1687 0.961 . S
C1672 C1673 1.370 . S
C1672 C1674 1.363 . S
C1672 H1688 0.931 . S
C1673 C1672 1.370 . S
C1673 C1677 1.408 . S
C1674 C1672 1.363 . S
C1674 C1675 1.370 . S
C1674 C1678 1.524 . S
C1675 C1667 1.503 1_545 S
C1675 C1674 1.370 . S
C1675 C1676 1.403 . S
C1676 C1675 1.403 . S
C1676 C1677 1.404 . S
C1676 C1679 1.539 1_545 S
C1677 C1673 1.408 . S
C1677 C1676 1.404 . S
C1677 H1689 0.930 . S
C1678 C1674 1.524 . S
C1678 H1690 0.956 . S
C1678 H1691 0.961 . S
C1678 H1692 0.961 . S
C1679 C1676 1.539 1_565 S
C1679 H1693 0.958 . S
C1679 H1694 0.961 . S
C1679 H1695 0.960 . S
H1680 C1664 0.931 . S
H1681 C1669 0.929 . S
H1682 C1670 0.960 . S
H1683 C1670 0.962 . S
H1684 C1670 0.960 . S
H1685 C1671 0.961 . S
H1686 C1671 0.961 1_545 S
H1687 C1671 0.961 . S
H1688 C1672 0.931 . S
H1689 C1677 0.930 . S
H1690 C1678 0.956 . S
H1691 C1678 0.961 . S
H1692 C1678 0.961 . S
H1693 C1679 0.958 . S
H1694 C1679 0.961 . S
H1695 C1679 0.960 . S
C1696 C1697 1.391 . S
C1696 C1698 1.394 . S
C1696 H1712 0.931 . S
C1697 C1696 1.391 . S
C1697 C1701 1.376 . S
C1698 C1696 1.394 . S
C1698 C1699 1.369 . S
C1698 C1702 1.531 1_655 S
C1699 C1698 1.369 . S
C1699 C1700 1.410 . S
C1699 C1707 1.503 1_655 S
C1700 C1699 1.410 . S
C1700 C1701 1.392 . S
C1700 C1703 1.511 . S
C1701 C1697 1.376 . S
C1701 C1700 1.392 . S
C1701 H1713 0.929 . S
C1702 C1698 1.531 1_455 S
C1702 H1714 0.960 . S
C1702 H1715 0.962 . S
C1702 H1716 0.960 . S
C1703 C1700 1.511 . S
C1703 H1717 0.961 . S
C1703 H1718 0.961 . S
C1703 H1719 0.961 . S
C1704 C1705 1.370 . S
C1704 C1706 1.363 . S
C1704 H1720 0.931 . S
C1705 C1704 1.370 . S
C1705 C1709 1.408 . S
C1706 C1704 1.363 . S
C1706 C1707 1.370 . S
C1706 C1710 1.524 . S
C1707 C1699 1.503 1_455 S
C1707 C1706 1.370 . S
C1707 C1708 1.403 . S
C1708 C1707 1.403 . S
C1708 C1709 1.404 . S
C1708 C1711 1.539 . S
C1709 C1705 1.408 . S
C1709 C1708 1.404 . S
C1709 H1721 0.930 . S
C1710 C1706 1.524 . S
C1710 H1722 0.956 . S
C1710 H1723 0.961 1_455 S
C1710 H1724 0.961 . S
C1711 C1708 1.539 . S
C1711 H1725 0.958 . S
C1711 H1726 0.961 . S
C1711 H1727 0.926 1_455 S
H1712 C1696 0.931 . S
H1713 C1701 0.929 . S
H1714 C1702 0.960 . S
H1715 C1702 0.962 . S
H1716 C1702 0.960 . S
H1717 C1703 0.961 . S
H1718 C1703 0.961 . S
H1719 C1703 0.961 . S
H1720 C1704 0.931 . S
H1721 C1709 0.930 . S
H1722 C1710 0.956 . S
H1723 C1710 0.961 1_655 S
H1724 C1710 0.961 . S
H1725 C1711 0.958 . S
H1726 C1711 0.961 . S
H1727 C1711 0.926 1_655 S
C1728 C1729 1.391 . S
C1728 C1730 1.394 . S
C1728 H1744 0.931 . S
C1729 C1728 1.391 . S
C1729 C1733 1.376 . S
C1730 C1728 1.394 . S
C1730 C1731 1.369 . S
C1730 C1734 1.531 . S
C1731 C1730 1.369 . S
C1731 C1732 1.410 . S
C1731 C1739 1.503 . S
C1732 C1731 1.410 . S
C1732 C1733 1.392 . S
C1732 C1735 1.511 . S
C1733 C1729 1.376 . S
C1733 C1732 1.392 . S
C1733 H1745 0.929 . S
C1734 C1730 1.531 . S
C1734 H1746 0.960 . S
C1734 H1747 0.962 . S
C1734 H1748 0.960 . S
C1735 C1732 1.511 . S
C1735 H1749 0.961 . S
C1735 H1750 0.961 . S
C1735 H1751 0.961 . S
C1736 C1737 1.370 . S
C1736 C1738 1.363 . S
C1736 H1752 0.931 . S
C1737 C1736 1.370 . S
C1737 C1741 1.408 . S
C1738 C1736 1.363 . S
C1738 C1739 1.370 . S
C1738 C1742 1.524 . S
C1739 C1731 1.503 . S
C1739 C1738 1.370 . S
C1739 C1740 1.403 . S
C1740 C1739 1.403 . S
C1740 C1741 1.404 . S
C1740 C1743 1.539 . S
C1741 C1737 1.408 . S
C1741 C1740 1.404 . S
C1741 H1753 0.930 . S
C1742 C1738 1.524 . S
C1742 H1754 0.956 . S
C1742 H1755 0.961 . S
C1742 H1756 0.961 . S
C1743 C1740 1.539 . S
C1743 H1757 0.958 . S
C1743 H1758 0.961 . S
C1743 H1759 0.960 . S
H1744 C1728 0.931 . S
H1745 C1733 0.929 . S
H1746 C1734 0.960 . S
H1747 C1734 0.962 . S
H1748 C1734 0.960 . S
H1749 C1735 0.961 . S
H1750 C1735 0.961 . S
H1751 C1735 0.961 . S
H1752 C1736 0.931 . S
H1753 C1741 0.930 . S
H1754 C1742 0.956 . S
H1755 C1742 0.961 . S
H1756 C1742 0.961 . S
H1757 C1743 0.958 . S
H1758 C1743 0.961 . S
H1759 C1743 0.960 . S
C1760 C1761 1.391 . S
C1760 C1762 1.394 . S
C1760 H1776 0.931 . S
C1761 C1760 1.391 . S
C1761 C1765 1.376 . S
C1762 C1760 1.394 . S
C1762 C1763 1.369 . S
C1762 C1766 1.531 . S
C1763 C1762 1.369 . S
C1763 C1764 1.410 . S
C1763 C1771 1.503 . S
C1764 C1763 1.410 . S
C1764 C1765 1.392 . S
C1764 C1767 1.511 . S
C1765 C1761 1.376 . S
C1765 C1764 1.392 . S
C1765 H1777 0.929 . S
C1766 C1762 1.531 . S
C1766 H1778 0.960 . S
C1766 H1779 0.962 . S
C1766 H1780 0.960 . S
C1767 C1764 1.511 . S
C1767 H1781 0.961 . S
C1767 H1782 0.961 . S
C1767 H1783 0.961 . S
C1768 C1769 1.370 . S
C1768 C1770 1.363 . S
C1768 H1784 0.931 . S
C1769 C1768 1.370 . S
C1769 C1773 1.408 . S
C1770 C1768 1.363 . S
C1770 C1771 1.370 . S
C1770 C1774 1.524 . S
C1771 C1763 1.503 . S
C1771 C1770 1.370 . S
C1771 C1772 1.403 . S
C1772 C1771 1.403 . S
C1772 C1773 1.404 . S
C1772 C1775 1.539 . S
C1773 C1769 1.408 . S
C1773 C1772 1.404 . S
C1773 H1785 0.930 . S
C1774 C1770 1.524 . S
C1774 H1786 0.956 . S
C1774 H1787 0.961 . S
C1774 H1788 0.961 . S
C1775 C1772 1.539 . S
C1775 H1789 0.958 . S
C1775 H1790 0.961 . S
C1775 H1791 0.960 . S
H1776 C1760 0.931 . S
H1777 C1765 0.929 . S
H1778 C1766 0.960 . S
H1779 C1766 0.962 . S
H1780 C1766 0.960 . S
H1781 C1767 0.961 . S
H1782 C1767 0.961 . S
H1783 C1767 0.961 . S
H1784 C1768 0.931 . S
H1785 C1773 0.930 . S
H1786 C1774 0.956 . S
H1787 C1774 0.961 . S
H1788 C1774 0.961 . S
H1789 C1775 0.958 . S
H1790 C1775 0.961 . S
H1791 C1775 0.960 . S
C1792 C1793 1.391 . S
C1792 C1794 1.394 . S
C1792 H1808 0.931 . S
C1793 C1792 1.391 . S
C1793 C1797 1.376 . S
C1794 C1792 1.394 . S
C1794 C1795 1.369 . S
C1794 C1798 1.531 . S
C1795 C1794 1.369 . S
C1795 C1796 1.410 . S
C1795 C1803 1.503 . S
C1796 C1795 1.410 . S
C1796 C1797 1.392 . S
C1796 C1799 1.511 . S
C1797 C1793 1.376 . S
C1797 C1796 1.392 . S
C1797 H1809 0.929 . S
C1798 C1794 1.531 . S
C1798 H1810 0.960 . S
C1798 H1811 0.962 . S
C1798 H1812 0.960 . S
C1799 C1796 1.511 . S
C1799 H1813 0.961 . S
C1799 H1814 0.961 . S
C1799 H1815 0.961 . S
C1800 C1801 1.370 . S
C1800 C1802 1.363 . S
C1800 H1816 0.931 . S
C1801 C1800 1.370 . S
C1801 C1805 1.408 . S
C1802 C1800 1.363 . S
C1802 C1803 1.370 . S
C1802 C1806 1.524 . S
C1803 C1795 1.503 . S
C1803 C1802 1.370 . S
C1803 C1804 1.403 . S
C1804 C1803 1.403 . S
C1804 C1805 1.404 . S
C1804 C1807 1.539 . S
C1805 C1801 1.408 . S
C1805 C1804 1.404 . S
C1805 H1817 0.930 . S
C1806 C1802 1.524 . S
C1806 H1818 0.956 . S
C1806 H1819 0.961 . S
C1806 H1820 0.961 . S
C1807 C1804 1.539 . S
C1807 H1821 0.958 . S
C1807 H1822 0.961 . S
C1807 H1823 0.960 . S
H1808 C1792 0.931 . S
H1809 C1797 0.929 . S
H1810 C1798 0.960 . S
H1811 C1798 0.962 . S
H1812 C1798 0.960 . S
H1813 C1799 0.961 . S
H1814 C1799 0.961 . S
H1815 C1799 0.961 . S
H1816 C1800 0.931 . S
H1817 C1805 0.930 . S
H1818 C1806 0.956 . S
H1819 C1806 0.961 . S
H1820 C1806 0.961 . S
H1821 C1807 0.958 . S
H1822 C1807 0.961 . S
H1823 C1807 0.960 . S
C1824 C1825 1.391 . S
C1824 C1826 1.394 . S
C1824 H1840 0.931 . S
C1825 C1824 1.391 . S
C1825 C1829 1.376 . S
C1826 C1824 1.394 . S
C1826 C1827 1.369 . S
C1826 C1830 1.531 . S
C1827 C1826 1.369 . S
C1827 C1828 1.410 . S
C1827 C1835 1.503 . S
C1828 C1827 1.410 . S
C1828 C1829 1.392 . S
C1828 C1831 1.511 . S
C1829 C1825 1.376 . S
C1829 C1828 1.392 . S
C1829 H1841 0.929 . S
C1830 C1826 1.531 . S
C1830 H1842 0.960 . S
C1830 H1843 0.962 . S
C1830 H1844 0.960 . S
C1831 C1828 1.511 . S
C1831 H1845 0.961 . S
C1831 H1846 0.961 . S
C1831 H1847 0.961 . S
C1832 C1833 1.370 . S
C1832 C1834 1.363 . S
C1832 H1848 0.931 . S
C1833 C1832 1.370 . S
C1833 C1837 1.408 . S
C1834 C1832 1.363 . S
C1834 C1835 1.370 . S
C1834 C1838 1.524 . S
C1835 C1827 1.503 . S
C1835 C1834 1.370 . S
C1835 C1836 1.403 . S
C1836 C1835 1.403 . S
C1836 C1837 1.404 . S
C1836 C1839 1.539 . S
C1837 C1833 1.408 . S
C1837 C1836 1.404 . S
C1837 H1849 0.930 . S
C1838 C1834 1.524 . S
C1838 H1850 0.956 . S
C1838 H1851 0.961 . S
C1838 H1852 0.961 . S
C1839 C1836 1.539 . S
C1839 H1853 0.958 . S
C1839 H1854 0.961 . S
C1839 H1855 0.960 . S
H1840 C1824 0.931 . S
H1841 C1829 0.929 . S
H1842 C1830 0.960 . S
H1843 C1830 0.962 . S
H1844 C1830 0.960 . S
H1845 C1831 0.961 . S
H1846 C1831 0.961 . S
H1847 C1831 0.961 . S
H1848 C1832 0.931 . S
H1849 C1837 0.930 . S
H1850 C1838 0.956 . S
H1851 C1838 0.961 . S
H1852 C1838 0.961 . S
H1853 C1839 0.958 . S
H1854 C1839 0.961 . S
H1855 C1839 0.960 . S
C1856 C1857 1.391 . S
C1856 C1858 1.394 . S
C1856 H1872 0.931 . S
C1857 C1856 1.391 . S
C1857 C1861 1.376 . S
C1858 C1856 1.394 . S
C1858 C1859 1.369 . S
C1858 C1862 1.531 . S
C1859 C1858 1.369 . S
C1859 C1860 1.410 . S
C1859 C1867 1.503 . S
C1860 C1859 1.410 . S
C1860 C1861 1.392 . S
C1860 C1863 1.511 . S
C1861 C1857 1.376 . S
C1861 C1860 1.392 . S
C1861 H1873 0.929 . S
C1862 C1858 1.531 . S
C1862 H1874 0.960 . S
C1862 H1875 0.962 . S
C1862 H1876 0.960 . S
C1863 C1860 1.511 . S
C1863 H1877 0.961 . S
C1863 H1878 0.961 . S
C1863 H1879 0.961 . S
C1864 C1865 1.370 . S
C1864 C1866 1.363 . S
C1864 H1880 0.931 . S
C1865 C1864 1.370 . S
C1865 C1869 1.408 . S
C1866 C1864 1.363 . S
C1866 C1867 1.370 . S
C1866 C1870 1.524 . S
C1867 C1859 1.503 . S
C1867 C1866 1.370 . S
C1867 C1868 1.403 . S
C1868 C1867 1.403 . S
C1868 C1869 1.404 . S
C1868 C1871 1.539 . S
C1869 C1865 1.408 . S
C1869 C1868 1.404 . S
C1869 H1881 0.930 . S
C1870 C1866 1.524 . S
C1870 H1882 0.956 . S
C1870 H1883 0.961 . S
C1870 H1884 0.961 . S
C1871 C1868 1.539 . S
C1871 H1885 0.958 . S
C1871 H1886 0.961 . S
C1871 H1887 0.960 . S
H1872 C1856 0.931 . S
H1873 C1861 0.929 . S
H1874 C1862 0.960 . S
H1875 C1862 0.962 . S
H1876 C1862 0.960 . S
H1877 C1863 0.961 . S
H1878 C1863 0.961 . S
H1879 C1863 0.961 . S
H1880 C1864 0.931 . S
H1881 C1869 0.930 . S
H1882 C1870 0.956 . S
H1883 C1870 0.961 . S
H1884 C1870 0.961 . S
H1885 C1871 0.958 . S
H1886 C1871 0.961 . S
H1887 C1871 0.960 . S
C1888 C1889 1.391 . S
C1888 C1890 1.394 . S
C1888 H1904 0.931 . S
C1889 C1888 1.391 . S
C1889 C1893 1.376 . S
C1890 C1888 1.394 . S
C1890 C1891 1.369 . S
C1890 C1894 1.531 . S
C1891 C1890 1.369 . S
C1891 C1892 1.410 . S
C1891 C1899 1.503 . S
C1892 C1891 1.410 . S
C1892 C1893 1.392 . S
C1892 C1895 1.511 . S
C1893 C1889 1.376 . S
C1893 C1892 1.392 . S
C1893 H1905 0.929 . S
C1894 C1890 1.531 . S
C1894 H1906 0.960 . S
C1894 H1907 0.962 . S
C1894 H1908 0.960 . S
C1895 C1892 1.511 . S
C1895 H1909 0.961 . S
C1895 H1910 0.961 . S
C1895 H1911 0.961 . S
C1896 C1897 1.370 . S
C1896 C1898 1.363 . S
C1896 H1912 0.931 . S
C1897 C1896 1.370 . S
C1897 C1901 1.408 . S
C1898 C1896 1.363 . S
C1898 C1899 1.370 . S
C1898 C1902 1.524 . S
C1899 C1891 1.503 . S
C1899 C1898 1.370 . S
C1899 C1900 1.403 . S
C1900 C1899 1.403 . S
C1900 C1901 1.404 . S
C1900 C1903 1.539 . S
C1901 C1897 1.408 . S
C1901 C1900 1.404 . S
C1901 H1913 0.930 . S
C1902 C1898 1.524 . S
C1902 H1914 0.956 . S
C1902 H1915 0.961 . S
C1902 H1916 0.961 . S
C1903 C1900 1.539 . S
C1903 H1917 0.958 . S
C1903 H1918 0.961 . S
C1903 H1919 0.960 . S
H1904 C1888 0.931 . S
H1905 C1893 0.929 . S
H1906 C1894 0.960 . S
H1907 C1894 0.962 . S
H1908 C1894 0.960 . S
H1909 C1895 0.961 . S
H1910 C1895 0.961 . S
H1911 C1895 0.961 . S
H1912 C1896 0.931 . S
H1913 C1901 0.930 . S
H1914 C1902 0.956 . S
H1915 C1902 0.961 . S
H1916 C1902 0.961 . S
H1917 C1903 0.958 . S
H1918 C1903 0.961 . S
H1919 C1903 0.960 . S
C1920 C1921 1.391 . S
C1920 C1922 1.394 . S
C1920 H1936 0.931 . S
C1921 C1920 1.391 . S
C1921 C1925 1.376 . S
C1922 C1920 1.394 . S
C1922 C1923 1.369 . S
C1922 C1926 1.531 . S
C1923 C1922 1.369 . S
C1923 C1924 1.410 . S
C1923 C1931 1.503 . S
C1924 C1923 1.410 . S
C1924 C1925 1.392 . S
C1924 C1927 1.511 . S
C1925 C1921 1.376 . S
C1925 C1924 1.392 . S
C1925 H1937 0.929 . S
C1926 C1922 1.531 . S
C1926 H1938 0.960 . S
C1926 H1939 0.962 . S
C1926 H1940 0.960 . S
C1927 C1924 1.511 . S
C1927 H1941 0.961 . S
C1927 H1942 0.961 . S
C1927 H1943 0.961 . S
C1928 C1929 1.370 . S
C1928 C1930 1.363 . S
C1928 H1944 0.931 . S
C1929 C1928 1.370 . S
C1929 C1933 1.408 . S
C1930 C1928 1.363 . S
C1930 C1931 1.370 . S
C1930 C1934 1.524 . S
C1931 C1923 1.503 . S
C1931 C1930 1.370 . S
C1931 C1932 1.403 . S
C1932 C1931 1.403 . S
C1932 C1933 1.404 . S
C1932 C1935 1.539 . S
C1933 C1929 1.408 . S
C1933 C1932 1.404 . S
C1933 H1945 0.930 . S
C1934 C1930 1.524 . S
C1934 H1946 0.956 . S
C1934 H1947 0.961 . S
C1934 H1948 0.961 . S
C1935 C1932 1.539 . S
C1935 H1949 0.958 . S
C1935 H1950 0.961 . S
C1935 H1951 0.960 . S
H1936 C1920 0.931 . S
H1937 C1925 0.929 . S
H1938 C1926 0.960 . S
H1939 C1926 0.962 . S
H1940 C1926 0.960 . S
H1941 C1927 0.961 . S
H1942 C1927 0.961 . S
H1943 C1927 0.961 . S
H1944 C1928 0.931 . S
H1945 C1933 0.930 . S
H1946 C1934 0.956 . S
H1947 C1934 0.961 . S
H1948 C1934 0.961 . S
H1949 C1935 0.958 . S
H1950 C1935 0.961 . S
H1951 C1935 0.960 . S
C1952 C1953 1.391 . S
C1952 C1954 1.394 . S
C1952 H1968 0.931 . S
C1953 C1952 1.391 . S
C1953 C1957 1.376 . S
C1954 C1952 1.394 . S
C1954 C1955 1.369 . S
C1954 C1958 1.531 . S
C1955 C1954 1.369 . S
C1955 C1956 1.410 . S
C1955 C1963 1.503 . S
C1956 C1955 1.410 . S
C1956 C1957 1.392 . S
C1956 C1959 1.511 . S
C1957 C1953 1.376 . S
C1957 C1956 1.392 . S
C1957 H1969 0.929 . S
C1958 C1954 1.531 . S
C1958 H1970 0.960 . S
C1958 H1971 0.962 . S
C1958 H1972 0.960 . S
C1959 C1956 1.511 . S
C1959 H1973 0.961 . S
C1959 H1974 0.961 . S
C1959 H1975 0.961 . S
C1960 C1961 1.370 . S
C1960 C1962 1.363 . S
C1960 H1976 0.931 . S
C1961 C1960 1.370 . S
C1961 C1965 1.408 . S
C1962 C1960 1.363 . S
C1962 C1963 1.370 . S
C1962 C1966 1.524 . S
C1963 C1955 1.503 . S
C1963 C1962 1.370 . S
C1963 C1964 1.403 . S
C1964 C1963 1.403 . S
C1964 C1965 1.404 . S
C1964 C1967 1.539 . S
C1965 C1961 1.408 . S
C1965 C1964 1.404 . S
C1965 H1977 0.930 . S
C1966 C1962 1.524 . S
C1966 H1978 0.956 . S
C1966 H1979 0.961 . S
C1966 H1980 0.961 . S
C1967 C1964 1.539 . S
C1967 H1981 0.958 . S
C1967 H1982 0.961 . S
C1967 H1983 0.960 . S
H1968 C1952 0.931 . S
H1969 C1957 0.929 . S
H1970 C1958 0.960 . S
H1971 C1958 0.962 . S
H1972 C1958 0.960 . S
H1973 C1959 0.961 . S
H1974 C1959 0.961 . S
H1975 C1959 0.961 . S
H1976 C1960 0.931 . S
H1977 C1965 0.930 . S
H1978 C1966 0.956 . S
H1979 C1966 0.961 . S
H1980 C1966 0.961 . S
H1981 C1967 0.958 . S
H1982 C1967 0.961 . S
H1983 C1967 0.960 . S
C1984 C1985 1.391 . S
C1984 C1986 1.394 . S
C1984 H2000 0.931 . S
C1985 C1984 1.391 . S
C1985 C1989 1.376 . S
C1986 C1984 1.394 . S
C1986 C1987 1.369 . S
C1986 C1990 1.531 . S
C1987 C1986 1.369 . S
C1987 C1988 1.410 . S
C1987 C1995 1.503 . S
C1988 C1987 1.410 . S
C1988 C1989 1.392 . S
C1988 C1991 1.511 . S
C1989 C1985 1.376 . S
C1989 C1988 1.392 . S
C1989 H2001 0.929 . S
C1990 C1986 1.531 . S
C1990 H2002 0.960 . S
C1990 H2003 0.962 . S
C1990 H2004 0.960 . S
C1991 C1988 1.511 . S
C1991 H2005 0.961 . S
C1991 H2006 0.961 . S
C1991 H2007 0.961 . S
C1992 C1993 1.370 . S
C1992 C1994 1.363 . S
C1992 H2008 0.931 . S
C1993 C1992 1.370 . S
C1993 C1997 1.408 . S
C1994 C1992 1.363 . S
C1994 C1995 1.370 . S
C1994 C1998 1.524 . S
C1995 C1987 1.503 . S
C1995 C1994 1.370 . S
C1995 C1996 1.403 . S
C1996 C1995 1.403 . S
C1996 C1997 1.404 . S
C1996 C1999 1.539 . S
C1997 C1993 1.408 . S
C1997 C1996 1.404 . S
C1997 H2009 0.930 . S
C1998 C1994 1.524 . S
C1998 H2010 0.956 . S
C1998 H2011 0.961 . S
C1998 H2012 0.961 . S
C1999 C1996 1.539 . S
C1999 H2013 0.958 . S
C1999 H2014 0.961 . S
C1999 H2015 0.960 . S
H2000 C1984 0.931 . S
H2001 C1989 0.929 . S
H2002 C1990 0.960 . S
H2003 C1990 0.962 . S
H2004 C1990 0.960 . S
H2005 C1991 0.961 . S
H2006 C1991 0.961 . S
H2007 C1991 0.961 . S
H2008 C1992 0.931 . S
H2009 C1997 0.930 . S
H2010 C1998 0.956 . S
H2011 C1998 0.961 . S
H2012 C1998 0.961 . S
H2013 C1999 0.958 . S
H2014 C1999 0.961 . S
H2015 C1999 0.960 . S
C2016 C2017 1.391 . S
C2016 C2018 1.394 . S
C2016 H2032 0.931 . S
C2017 C2016 1.391 . S
C2017 C2021 1.376 . S
C2018 C2016 1.394 . S
C2018 C2019 1.369 . S
C2018 C2022 1.531 . S
C2019 C2018 1.369 . S
C2019 C2020 1.410 . S
C2019 C2027 1.503 . S
C2020 C2019 1.410 . S
C2020 C2021 1.392 . S
C2020 C2023 1.511 . S
C2021 C2017 1.376 . S
C2021 C2020 1.392 . S
C2021 H2033 0.929 . S
C2022 C2018 1.531 . S
C2022 H2034 0.960 . S
C2022 H2035 0.962 . S
C2022 H2036 0.960 . S
C2023 C2020 1.511 . S
C2023 H2037 0.961 . S
C2023 H2038 0.961 . S
C2023 H2039 0.961 . S
C2024 C2025 1.370 . S
C2024 C2026 1.363 . S
C2024 H2040 0.931 . S
C2025 C2024 1.370 . S
C2025 C2029 1.408 . S
C2026 C2024 1.363 . S
C2026 C2027 1.370 . S
C2026 C2030 1.524 . S
C2027 C2019 1.503 . S
C2027 C2026 1.370 . S
C2027 C2028 1.403 . S
C2028 C2027 1.403 . S
C2028 C2029 1.404 . S
C2028 C2031 1.539 . S
C2029 C2025 1.408 . S
C2029 C2028 1.404 . S
C2029 H2041 0.930 . S
C2030 C2026 1.524 . S
C2030 H2042 0.956 . S
C2030 H2043 0.961 . S
C2030 H2044 0.961 . S
C2031 C2028 1.539 . S
C2031 H2045 0.958 . S
C2031 H2046 0.961 . S
C2031 H2047 0.960 . S
H2032 C2016 0.931 . S
H2033 C2021 0.929 . S
H2034 C2022 0.960 . S
H2035 C2022 0.962 . S
H2036 C2022 0.960 . S
H2037 C2023 0.961 . S
H2038 C2023 0.961 . S
H2039 C2023 0.961 . S
H2040 C2024 0.931 . S
H2041 C2029 0.930 . S
H2042 C2030 0.956 . S
H2043 C2030 0.961 . S
H2044 C2030 0.961 . S
H2045 C2031 0.958 . S
H2046 C2031 0.961 . S
H2047 C2031 0.960 . S
C2048 C2049 1.391 . S
C2048 C2050 1.394 . S
C2048 H2064 0.931 . S
C2049 C2048 1.391 . S
C2049 C2053 1.376 . S
C2050 C2048 1.394 . S
C2050 C2051 1.369 . S
C2050 C2054 1.531 . S
C2051 C2050 1.369 . S
C2051 C2052 1.410 . S
C2051 C2059 1.503 . S
C2052 C2051 1.410 . S
C2052 C2053 1.392 . S
C2052 C2055 1.511 . S
C2053 C2049 1.376 . S
C2053 C2052 1.392 . S
C2053 H2065 0.929 . S
C2054 C2050 1.531 . S
C2054 H2066 0.960 . S
C2054 H2067 0.962 . S
C2054 H2068 0.960 . S
C2055 C2052 1.511 . S
C2055 H2069 0.961 . S
C2055 H2070 0.961 . S
C2055 H2071 0.961 . S
C2056 C2057 1.370 . S
C2056 C2058 1.363 . S
C2056 H2072 0.931 . S
C2057 C2056 1.370 . S
C2057 C2061 1.408 . S
C2058 C2056 1.363 . S
C2058 C2059 1.370 . S
C2058 C2062 1.524 . S
C2059 C2051 1.503 . S
C2059 C2058 1.370 . S
C2059 C2060 1.403 . S
C2060 C2059 1.403 . S
C2060 C2061 1.404 . S
C2060 C2063 1.539 . S
C2061 C2057 1.408 . S
C2061 C2060 1.404 . S
C2061 H2073 0.930 . S
C2062 C2058 1.524 . S
C2062 H2074 0.956 . S
C2062 H2075 0.961 . S
C2062 H2076 0.961 . S
C2063 C2060 1.539 . S
C2063 H2077 0.958 . S
C2063 H2078 0.961 . S
C2063 H2079 0.960 . S
H2064 C2048 0.931 . S
H2065 C2053 0.929 . S
H2066 C2054 0.960 . S
H2067 C2054 0.962 . S
H2068 C2054 0.960 . S
H2069 C2055 0.961 . S
H2070 C2055 0.961 . S
H2071 C2055 0.961 . S
H2072 C2056 0.931 . S
H2073 C2061 0.930 . S
H2074 C2062 0.956 . S
H2075 C2062 0.961 . S
H2076 C2062 0.961 . S
H2077 C2063 0.958 . S
H2078 C2063 0.961 . S
H2079 C2063 0.960 . S
C2080 C2081 1.391 . S
C2080 C2082 1.394 . S
C2080 H2096 0.931 . S
C2081 C2080 1.391 . S
C2081 C2085 1.376 . S
C2082 C2080 1.394 . S
C2082 C2083 1.369 . S
C2082 C2086 1.531 . S
C2083 C2082 1.369 . S
C2083 C2084 1.410 . S
C2083 C2091 1.503 . S
C2084 C2083 1.410 . S
C2084 C2085 1.392 . S
C2084 C2087 1.511 . S
C2085 C2081 1.376 . S
C2085 C2084 1.392 . S
C2085 H2097 0.929 . S
C2086 C2082 1.531 . S
C2086 H2098 0.960 . S
C2086 H2099 0.962 . S
C2086 H2100 0.960 . S
C2087 C2084 1.511 . S
C2087 H2101 0.961 . S
C2087 H2102 0.961 . S
C2087 H2103 0.961 . S
C2088 C2089 1.370 . S
C2088 C2090 1.363 . S
C2088 H2104 0.931 . S
C2089 C2088 1.370 . S
C2089 C2093 1.408 . S
C2090 C2088 1.363 . S
C2090 C2091 1.370 . S
C2090 C2094 1.524 . S
C2091 C2083 1.503 . S
C2091 C2090 1.370 . S
C2091 C2092 1.403 . S
C2092 C2091 1.403 . S
C2092 C2093 1.404 . S
C2092 C2095 1.539 . S
C2093 C2089 1.408 . S
C2093 C2092 1.404 . S
C2093 H2105 0.930 . S
C2094 C2090 1.524 . S
C2094 H2106 0.956 . S
C2094 H2107 0.961 . S
C2094 H2108 0.961 . S
C2095 C2092 1.539 . S
C2095 H2109 0.958 . S
C2095 H2110 0.961 . S
C2095 H2111 0.960 . S
H2096 C2080 0.931 . S
H2097 C2085 0.929 . S
H2098 C2086 0.960 . S
H2099 C2086 0.962 . S
H2100 C2086 0.960 . S
H2101 C2087 0.961 . S
H2102 C2087 0.961 . S
H2103 C2087 0.961 . S
H2104 C2088 0.931 . S
H2105 C2093 0.930 . S
H2106 C2094 0.956 . S
H2107 C2094 0.961 . S
H2108 C2094 0.961 . S
H2109 C2095 0.958 . S
H2110 C2095 0.961 . S
H2111 C2095 0.960 . S
C2112 C2113 1.391 . S
C2112 C2114 1.394 . S
C2112 H2128 0.931 . S
C2113 C2112 1.391 . S
C2113 C2117 1.376 . S
C2114 C2112 1.394 . S
C2114 C2115 1.369 . S
C2114 C2118 1.531 . S
C2115 C2114 1.369 . S
C2115 C2116 1.410 . S
C2115 C2123 1.503 . S
C2116 C2115 1.410 . S
C2116 C2117 1.392 . S
C2116 C2119 1.511 . S
C2117 C2113 1.376 . S
C2117 C2116 1.392 . S
C2117 H2129 0.929 . S
C2118 C2114 1.531 . S
C2118 H2130 0.960 . S
C2118 H2131 0.962 . S
C2118 H2132 0.960 . S
C2119 C2116 1.511 . S
C2119 H2133 0.961 . S
C2119 H2134 0.961 . S
C2119 H2135 0.961 . S
C2120 C2121 1.370 . S
C2120 C2122 1.363 . S
C2120 H2136 0.931 . S
C2121 C2120 1.370 . S
C2121 C2125 1.408 . S
C2122 C2120 1.363 . S
C2122 C2123 1.370 . S
C2122 C2126 1.524 . S
C2123 C2115 1.503 . S
C2123 C2122 1.370 . S
C2123 C2124 1.403 . S
C2124 C2123 1.403 . S
C2124 C2125 1.404 . S
C2124 C2127 1.539 . S
C2125 C2121 1.408 . S
C2125 C2124 1.404 . S
C2125 H2137 0.930 . S
C2126 C2122 1.524 . S
C2126 H2138 0.956 . S
C2126 H2139 0.961 . S
C2126 H2140 0.961 . S
C2127 C2124 1.539 . S
C2127 H2141 0.958 . S
C2127 H2142 0.961 . S
C2127 H2143 0.960 . S
H2128 C2112 0.931 . S
H2129 C2117 0.929 . S
H2130 C2118 0.960 . S
H2131 C2118 0.962 . S
H2132 C2118 0.960 . S
H2133 C2119 0.961 . S
H2134 C2119 0.961 . S
H2135 C2119 0.961 . S
H2136 C2120 0.931 . S
H2137 C2125 0.930 . S
H2138 C2126 0.956 . S
H2139 C2126 0.961 . S
H2140 C2126 0.961 . S
H2141 C2127 0.958 . S
H2142 C2127 0.961 . S
H2143 C2127 0.960 . S
C2144 C2145 1.391 . S
C2144 C2146 1.394 . S
C2144 H2160 0.931 . S
C2145 C2144 1.391 . S
C2145 C2149 1.376 . S
C2146 C2144 1.394 . S
C2146 C2147 1.369 . S
C2146 C2150 1.531 . S
C2147 C2146 1.369 . S
C2147 C2148 1.410 . S
C2147 C2155 1.503 . S
C2148 C2147 1.410 . S
C2148 C2149 1.392 . S
C2148 C2151 1.511 . S
C2149 C2145 1.376 . S
C2149 C2148 1.392 . S
C2149 H2161 0.929 . S
C2150 C2146 1.531 . S
C2150 H2162 0.960 . S
C2150 H2163 0.962 . S
C2150 H2164 0.960 . S
C2151 C2148 1.511 . S
C2151 H2165 0.961 . S
C2151 H2166 0.961 . S
C2151 H2167 0.961 . S
C2152 C2153 1.370 . S
C2152 C2154 1.363 . S
C2152 H2168 0.931 . S
C2153 C2152 1.370 . S
C2153 C2157 1.408 . S
C2154 C2152 1.363 . S
C2154 C2155 1.370 . S
C2154 C2158 1.524 . S
C2155 C2147 1.503 . S
C2155 C2154 1.370 . S
C2155 C2156 1.403 . S
C2156 C2155 1.403 . S
C2156 C2157 1.404 . S
C2156 C2159 1.539 . S
C2157 C2153 1.408 . S
C2157 C2156 1.404 . S
C2157 H2169 0.930 . S
C2158 C2154 1.524 . S
C2158 H2170 0.956 . S
C2158 H2171 0.961 . S
C2158 H2172 0.961 . S
C2159 C2156 1.539 . S
C2159 H2173 0.958 . S
C2159 H2174 0.961 . S
C2159 H2175 0.960 . S
H2160 C2144 0.931 . S
H2161 C2149 0.929 . S
H2162 C2150 0.960 . S
H2163 C2150 0.962 . S
H2164 C2150 0.960 . S
H2165 C2151 0.961 . S
H2166 C2151 0.961 . S
H2167 C2151 0.961 . S
H2168 C2152 0.931 . S
H2169 C2157 0.930 . S
H2170 C2158 0.956 . S
H2171 C2158 0.961 . S
H2172 C2158 0.961 . S
H2173 C2159 0.958 . S
H2174 C2159 0.961 . S
H2175 C2159 0.960 . S
C2176 C2177 1.391 . S
C2176 C2178 1.394 . S
C2176 H2192 0.931 . S
C2177 C2176 1.391 . S
C2177 C2181 1.376 . S
C2178 C2176 1.394 . S
C2178 C2179 1.369 . S
C2178 C2182 1.531 . S
C2179 C2178 1.369 . S
C2179 C2180 1.410 . S
C2179 C2187 1.503 . S
C2180 C2179 1.410 . S
C2180 C2181 1.392 . S
C2180 C2183 1.511 . S
C2181 C2177 1.376 . S
C2181 C2180 1.392 . S
C2181 H2193 0.929 . S
C2182 C2178 1.531 . S
C2182 H2194 0.960 . S
C2182 H2195 0.962 . S
C2182 H2196 0.960 . S
C2183 C2180 1.511 . S
C2183 H2197 0.961 . S
C2183 H2198 0.961 . S
C2183 H2199 0.961 . S
C2184 C2185 1.370 . S
C2184 C2186 1.363 . S
C2184 H2200 0.931 . S
C2185 C2184 1.370 . S
C2185 C2189 1.408 . S
C2186 C2184 1.363 . S
C2186 C2187 1.370 . S
C2186 C2190 1.524 . S
C2187 C2179 1.503 . S
C2187 C2186 1.370 . S
C2187 C2188 1.403 . S
C2188 C2187 1.403 . S
C2188 C2189 1.404 . S
C2188 C2191 1.539 . S
C2189 C2185 1.408 . S
C2189 C2188 1.404 . S
C2189 H2201 0.930 . S
C2190 C2186 1.524 . S
C2190 H2202 0.956 . S
C2190 H2203 0.961 . S
C2190 H2204 0.961 . S
C2191 C2188 1.539 . S
C2191 H2205 0.958 . S
C2191 H2206 0.961 . S
C2191 H2207 0.960 . S
H2192 C2176 0.931 . S
H2193 C2181 0.929 . S
H2194 C2182 0.960 . S
H2195 C2182 0.962 . S
H2196 C2182 0.960 . S
H2197 C2183 0.961 . S
H2198 C2183 0.961 . S
H2199 C2183 0.961 . S
H2200 C2184 0.931 . S
H2201 C2189 0.930 . S
H2202 C2190 0.956 . S
H2203 C2190 0.961 . S
H2204 C2190 0.961 . S
H2205 C2191 0.958 . S
H2206 C2191 0.961 . S
H2207 C2191 0.960 . S
C2208 C2209 1.391 . S
C2208 C2210 1.394 . S
C2208 H2224 0.931 . S
C2209 C2208 1.391 . S
C2209 C2213 1.376 . S
C2210 C2208 1.394 . S
C2210 C2211 1.369 . S
C2210 C2214 1.531 . S
C2211 C2210 1.369 . S
C2211 C2212 1.410 . S
C2211 C2219 1.503 . S
C2212 C2211 1.410 . S
C2212 C2213 1.392 . S
C2212 C2215 1.511 . S
C2213 C2209 1.376 . S
C2213 C2212 1.392 . S
C2213 H2225 0.929 . S
C2214 C2210 1.531 . S
C2214 H2226 0.960 . S
C2214 H2227 0.962 . S
C2214 H2228 0.960 . S
C2215 C2212 1.511 . S
C2215 H2229 0.961 . S
C2215 H2230 0.961 . S
C2215 H2231 0.961 . S
C2216 C2217 1.370 . S
C2216 C2218 1.363 . S
C2216 H2232 0.931 . S
C2217 C2216 1.370 . S
C2217 C2221 1.408 . S
C2218 C2216 1.363 . S
C2218 C2219 1.370 . S
C2218 C2222 1.524 . S
C2219 C2211 1.503 . S
C2219 C2218 1.370 . S
C2219 C2220 1.403 . S
C2220 C2219 1.403 . S
C2220 C2221 1.404 . S
C2220 C2223 1.539 . S
C2221 C2217 1.408 . S
C2221 C2220 1.404 . S
C2221 H2233 0.930 . S
C2222 C2218 1.524 . S
C2222 H2234 0.956 . S
C2222 H2235 0.961 . S
C2222 H2236 0.961 . S
C2223 C2220 1.539 . S
C2223 H2237 0.958 . S
C2223 H2238 0.961 . S
C2223 H2239 0.960 . S
H2224 C2208 0.931 . S
H2225 C2213 0.929 . S
H2226 C2214 0.960 . S
H2227 C2214 0.962 . S
H2228 C2214 0.960 . S
H2229 C2215 0.961 . S
H2230 C2215 0.961 . S
H2231 C2215 0.961 . S
H2232 C2216 0.931 . S
H2233 C2221 0.930 . S
H2234 C2222 0.956 . S
H2235 C2222 0.961 . S
H2236 C2222 0.961 . S
H2237 C2223 0.958 . S
H2238 C2223 0.961 . S
H2239 C2223 0.960 . S
C2240 C2241 1.391 . S
C2240 C2242 1.394 . S
C2240 H2256 0.931 . S
C2241 C2240 1.391 . S
C2241 C2245 1.376 . S
C2242 C2240 1.394 . S
C2242 C2243 1.369 . S
C2242 C2246 1.531 . S
C2243 C2242 1.369 . S
C2243 C2244 1.410 . S
C2243 C2251 1.503 . S
C2244 C2243 1.410 . S
C2244 C2245 1.392 . S
C2244 C2247 1.511 . S
C2245 C2241 1.376 . S
C2245 C2244 1.392 . S
C2245 H2257 0.929 . S
C2246 C2242 1.531 . S
C2246 H2258 0.960 . S
C2246 H2259 0.962 . S
C2246 H2260 0.960 . S
C2247 C2244 1.511 . S
C2247 H2261 0.961 . S
C2247 H2262 0.961 . S
C2247 H2263 0.961 . S
C2248 C2249 1.370 . S
C2248 C2250 1.363 . S
C2248 H2264 0.931 . S
C2249 C2248 1.370 . S
C2249 C2253 1.408 . S
C2250 C2248 1.363 . S
C2250 C2251 1.370 . S
C2250 C2254 1.524 . S
C2251 C2243 1.503 . S
C2251 C2250 1.370 . S
C2251 C2252 1.403 . S
C2252 C2251 1.403 . S
C2252 C2253 1.404 . S
C2252 C2255 1.539 . S
C2253 C2249 1.408 . S
C2253 C2252 1.404 . S
C2253 H2265 0.930 . S
C2254 C2250 1.524 . S
C2254 H2266 0.956 . S
C2254 H2267 0.961 . S
C2254 H2268 0.961 . S
C2255 C2252 1.539 . S
C2255 H2269 0.958 . S
C2255 H2270 0.961 . S
C2255 H2271 0.960 . S
H2256 C2240 0.931 . S
H2257 C2245 0.929 . S
H2258 C2246 0.960 . S
H2259 C2246 0.962 . S
H2260 C2246 0.960 . S
H2261 C2247 0.961 . S
H2262 C2247 0.961 . S
H2263 C2247 0.961 . S
H2264 C2248 0.931 . S
H2265 C2253 0.930 . S
H2266 C2254 0.956 . S
H2267 C2254 0.961 . S
H2268 C2254 0.961 . S
H2269 C2255 0.958 . S
H2270 C2255 0.961 . S
H2271 C2255 0.960 . S
C2272 C2273 1.391 . S
C2272 C2274 1.394 . S
C2272 H2288 0.931 . S
C2273 C2272 1.391 . S
C2273 C2277 1.376 . S
C2274 C2272 1.394 . S
C2274 C2275 1.369 . S
C2274 C2278 1.531 . S
C2275 C2274 1.369 . S
C2275 C2276 1.410 . S
C2275 C2283 1.503 . S
C2276 C2275 1.410 . S
C2276 C2277 1.392 . S
C2276 C2279 1.511 . S
C2277 C2273 1.376 . S
C2277 C2276 1.392 . S
C2277 H2289 0.929 . S
C2278 C2274 1.531 . S
C2278 H2290 0.960 . S
C2278 H2291 0.962 . S
C2278 H2292 0.960 . S
C2279 C2276 1.511 . S
C2279 H2293 0.961 . S
C2279 H2294 0.961 . S
C2279 H2295 0.961 . S
C2280 C2281 1.370 . S
C2280 C2282 1.363 . S
C2280 H2296 0.931 . S
C2281 C2280 1.370 . S
C2281 C2285 1.408 . S
C2282 C2280 1.363 . S
C2282 C2283 1.370 . S
C2282 C2286 1.524 . S
C2283 C2275 1.503 . S
C2283 C2282 1.370 . S
C2283 C2284 1.403 . S
C2284 C2283 1.403 . S
C2284 C2285 1.404 . S
C2284 C2287 1.539 . S
C2285 C2281 1.408 . S
C2285 C2284 1.404 . S
C2285 H2297 0.930 . S
C2286 C2282 1.524 . S
C2286 H2298 0.956 . S
C2286 H2299 0.961 . S
C2286 H2300 0.961 . S
C2287 C2284 1.539 . S
C2287 H2301 0.958 . S
C2287 H2302 0.961 . S
C2287 H2303 0.960 . S
H2288 C2272 0.931 . S
H2289 C2277 0.929 . S
H2290 C2278 0.960 . S
H2291 C2278 0.962 . S
H2292 C2278 0.960 . S
H2293 C2279 0.961 . S
H2294 C2279 0.961 . S
H2295 C2279 0.961 . S
H2296 C2280 0.931 . S
H2297 C2285 0.930 . S
H2298 C2286 0.956 . S
H2299 C2286 0.961 . S
H2300 C2286 0.961 . S
H2301 C2287 0.958 . S
H2302 C2287 0.961 . S
H2303 C2287 0.960 . S
C2304 C2305 1.391 . S
C2304 C2306 1.394 . S
C2304 H2320 0.931 . S
C2305 C2304 1.391 . S
C2305 C2309 1.376 . S
C2306 C2304 1.394 . S
C2306 C2307 1.369 . S
C2306 C2310 1.531 . S
C2307 C2306 1.369 . S
C2307 C2308 1.410 . S
C2307 C2315 1.503 . S
C2308 C2307 1.410 . S
C2308 C2309 1.392 . S
C2308 C2311 1.511 . S
C2309 C2305 1.376 . S
C2309 C2308 1.392 . S
C2309 H2321 0.929 . S
C2310 C2306 1.531 . S
C2310 H2322 0.960 . S
C2310 H2323 0.962 . S
C2310 H2324 0.960 . S
C2311 C2308 1.511 . S
C2311 H2325 0.961 . S
C2311 H2326 0.961 . S
C2311 H2327 0.961 . S
C2312 C2313 1.370 . S
C2312 C2314 1.363 . S
C2312 H2328 0.931 . S
C2313 C2312 1.370 . S
C2313 C2317 1.408 . S
C2314 C2312 1.363 . S
C2314 C2315 1.370 . S
C2314 C2318 1.524 . S
C2315 C2307 1.503 . S
C2315 C2314 1.370 . S
C2315 C2316 1.403 . S
C2316 C2315 1.403 . S
C2316 C2317 1.404 . S
C2316 C2319 1.539 . S
C2317 C2313 1.408 . S
C2317 C2316 1.404 . S
C2317 H2329 0.930 . S
C2318 C2314 1.524 . S
C2318 H2330 0.956 . S
C2318 H2331 0.961 . S
C2318 H2332 0.961 . S
C2319 C2316 1.539 . S
C2319 H2333 0.958 . S
C2319 H2334 0.961 . S
C2319 H2335 0.960 . S
H2320 C2304 0.931 . S
H2321 C2309 0.929 . S
H2322 C2310 0.960 . S
H2323 C2310 0.962 . S
H2324 C2310 0.960 . S
H2325 C2311 0.961 . S
H2326 C2311 0.961 . S
H2327 C2311 0.961 . S
H2328 C2312 0.931 . S
H2329 C2317 0.930 . S
H2330 C2318 0.956 . S
H2331 C2318 0.961 . S
H2332 C2318 0.961 . S
H2333 C2319 0.958 . S
H2334 C2319 0.961 . S
H2335 C2319 0.960 . S
C2336 C2337 1.391 . S
C2336 C2338 1.394 . S
C2336 H2352 0.931 . S
C2337 C2336 1.391 . S
C2337 C2341 1.376 . S
C2338 C2336 1.394 . S
C2338 C2339 1.369 . S
C2338 C2342 1.531 . S
C2339 C2338 1.369 . S
C2339 C2340 1.410 . S
C2339 C2347 1.503 . S
C2340 C2339 1.410 . S
C2340 C2341 1.392 . S
C2340 C2343 1.511 . S
C2341 C2337 1.376 . S
C2341 C2340 1.392 . S
C2341 H2353 0.929 . S
C2342 C2338 1.531 . S
C2342 H2354 0.960 . S
C2342 H2355 0.962 . S
C2342 H2356 0.960 . S
C2343 C2340 1.511 . S
C2343 H2357 0.961 . S
C2343 H2358 0.961 . S
C2343 H2359 0.961 . S
C2344 C2345 1.370 . S
C2344 C2346 1.363 . S
C2344 H2360 0.931 . S
C2345 C2344 1.370 . S
C2345 C2349 1.408 . S
C2346 C2344 1.363 . S
C2346 C2347 1.370 . S
C2346 C2350 1.524 . S
C2347 C2339 1.503 . S
C2347 C2346 1.370 . S
C2347 C2348 1.403 . S
C2348 C2347 1.403 . S
C2348 C2349 1.404 . S
C2348 C2351 1.539 . S
C2349 C2345 1.408 . S
C2349 C2348 1.404 . S
C2349 H2361 0.930 . S
C2350 C2346 1.524 . S
C2350 H2362 0.956 . S
C2350 H2363 0.961 . S
C2350 H2364 0.961 . S
C2351 C2348 1.539 . S
C2351 H2365 0.958 . S
C2351 H2366 0.961 . S
C2351 H2367 0.960 . S
H2352 C2336 0.931 . S
H2353 C2341 0.929 . S
H2354 C2342 0.960 . S
H2355 C2342 0.962 . S
H2356 C2342 0.960 . S
H2357 C2343 0.961 . S
H2358 C2343 0.961 . S
H2359 C2343 0.961 . S
H2360 C2344 0.931 . S
H2361 C2349 0.930 . S
H2362 C2350 0.956 . S
H2363 C2350 0.961 . S
H2364 C2350 0.961 . S
H2365 C2351 0.958 . S
H2366 C2351 0.961 . S
H2367 C2351 0.960 . S
C2368 C2369 1.391 . S
C2368 C2370 1.394 . S
C2368 H2384 0.931 . S
C2369 C2368 1.391 . S
C2369 C2373 1.376 . S
C2370 C2368 1.394 . S
C2370 C2371 1.369 . S
C2370 C2374 1.531 . S
C2371 C2370 1.369 . S
C2371 C2372 1.410 . S
C2371 C2379 1.503 . S
C2372 C2371 1.410 . S
C2372 C2373 1.392 . S
C2372 C2375 1.511 . S
C2373 C2369 1.376 . S
C2373 C2372 1.392 . S
C2373 H2385 0.929 . S
C2374 C2370 1.531 . S
C2374 H2386 0.960 . S
C2374 H2387 0.962 . S
C2374 H2388 0.960 . S
C2375 C2372 1.511 . S
C2375 H2389 0.961 . S
C2375 H2390 0.961 . S
C2375 H2391 0.961 . S
C2376 C2377 1.370 . S
C2376 C2378 1.363 . S
C2376 H2392 0.931 . S
C2377 C2376 1.370 . S
C2377 C2381 1.408 . S
C2378 C2376 1.363 . S
C2378 C2379 1.370 . S
C2378 C2382 1.524 . S
C2379 C2371 1.503 . S
C2379 C2378 1.370 . S
C2379 C2380 1.403 . S
C2380 C2379 1.403 . S
C2380 C2381 1.404 . S
C2380 C2383 1.539 . S
C2381 C2377 1.408 . S
C2381 C2380 1.404 . S
C2381 H2393 0.930 . S
C2382 C2378 1.524 . S
C2382 H2394 0.956 . S
C2382 H2395 0.961 . S
C2382 H2396 0.961 . S
C2383 C2380 1.539 . S
C2383 H2397 0.958 . S
C2383 H2398 0.961 . S
C2383 H2399 0.960 . S
H2384 C2368 0.931 . S
H2385 C2373 0.929 . S
H2386 C2374 0.960 . S
H2387 C2374 0.962 . S
H2388 C2374 0.960 . S
H2389 C2375 0.961 . S
H2390 C2375 0.961 . S
H2391 C2375 0.961 . S
H2392 C2376 0.931 . S
H2393 C2381 0.930 . S
H2394 C2382 0.956 . S
H2395 C2382 0.961 . S
H2396 C2382 0.961 . S
H2397 C2383 0.958 . S
H2398 C2383 0.961 . S
H2399 C2383 0.960 . S
C2400 C2401 1.391 . S
C2400 C2402 1.394 . S
C2400 H2416 0.931 . S
C2401 C2400 1.391 . S
C2401 C2405 1.376 . S
C2402 C2400 1.394 . S
C2402 C2403 1.369 . S
C2402 C2406 1.531 . S
C2403 C2402 1.369 . S
C2403 C2404 1.410 . S
C2403 C2411 1.503 . S
C2404 C2403 1.410 . S
C2404 C2405 1.392 . S
C2404 C2407 1.511 . S
C2405 C2401 1.376 . S
C2405 C2404 1.392 . S
C2405 H2417 0.929 . S
C2406 C2402 1.531 . S
C2406 H2418 0.960 . S
C2406 H2419 0.962 . S
C2406 H2420 0.960 . S
C2407 C2404 1.511 . S
C2407 H2421 0.961 . S
C2407 H2422 0.961 . S
C2407 H2423 0.961 . S
C2408 C2409 1.370 . S
C2408 C2410 1.363 . S
C2408 H2424 0.931 . S
C2409 C2408 1.370 . S
C2409 C2413 1.408 . S
C2410 C2408 1.363 . S
C2410 C2411 1.370 . S
C2410 C2414 1.524 . S
C2411 C2403 1.503 . S
C2411 C2410 1.370 . S
C2411 C2412 1.403 . S
C2412 C2411 1.403 . S
C2412 C2413 1.404 . S
C2412 C2415 1.539 . S
C2413 C2409 1.408 . S
C2413 C2412 1.404 . S
C2413 H2425 0.930 . S
C2414 C2410 1.524 . S
C2414 H2426 0.956 . S
C2414 H2427 0.961 . S
C2414 H2428 0.961 . S
C2415 C2412 1.539 . S
C2415 H2429 0.958 . S
C2415 H2430 0.961 . S
C2415 H2431 0.960 . S
H2416 C2400 0.931 . S
H2417 C2405 0.929 . S
H2418 C2406 0.960 . S
H2419 C2406 0.962 . S
H2420 C2406 0.960 . S
H2421 C2407 0.961 . S
H2422 C2407 0.961 . S
H2423 C2407 0.961 . S
H2424 C2408 0.931 . S
H2425 C2413 0.930 . S
H2426 C2414 0.956 . S
H2427 C2414 0.961 . S
H2428 C2414 0.961 . S
H2429 C2415 0.958 . S
H2430 C2415 0.961 . S
H2431 C2415 0.960 . S
C2432 C2433 1.391 . S
C2432 C2434 1.394 . S
C2432 H2448 0.931 . S
C2433 C2432 1.391 . S
C2433 C2437 1.376 . S
C2434 C2432 1.394 . S
C2434 C2435 1.369 . S
C2434 C2438 1.531 . S
C2435 C2434 1.369 . S
C2435 C2436 1.410 . S
C2435 C2443 1.503 . S
C2436 C2435 1.410 . S
C2436 C2437 1.392 . S
C2436 C2439 1.511 . S
C2437 C2433 1.376 . S
C2437 C2436 1.392 . S
C2437 H2449 0.929 . S
C2438 C2434 1.531 . S
C2438 H2450 0.960 . S
C2438 H2451 0.962 . S
C2438 H2452 0.960 . S
C2439 C2436 1.511 . S
C2439 H2453 0.961 . S
C2439 H2454 0.961 . S
C2439 H2455 0.961 . S
C2440 C2441 1.370 . S
C2440 C2442 1.363 . S
C2440 H2456 0.931 . S
C2441 C2440 1.370 . S
C2441 C2445 1.408 . S
C2442 C2440 1.363 . S
C2442 C2443 1.370 . S
C2442 C2446 1.524 . S
C2443 C2435 1.503 . S
C2443 C2442 1.370 . S
C2443 C2444 1.403 . S
C2444 C2443 1.403 . S
C2444 C2445 1.404 . S
C2444 C2447 1.539 . S
C2445 C2441 1.408 . S
C2445 C2444 1.404 . S
C2445 H2457 0.930 . S
C2446 C2442 1.524 . S
C2446 H2458 0.956 . S
C2446 H2459 0.961 . S
C2446 H2460 0.961 . S
C2447 C2444 1.539 . S
C2447 H2461 0.958 . S
C2447 H2462 0.961 . S
C2447 H2463 0.960 . S
H2448 C2432 0.931 . S
H2449 C2437 0.929 . S
H2450 C2438 0.960 . S
H2451 C2438 0.962 . S
H2452 C2438 0.960 . S
H2453 C2439 0.961 . S
H2454 C2439 0.961 . S
H2455 C2439 0.961 . S
H2456 C2440 0.931 . S
H2457 C2445 0.930 . S
H2458 C2446 0.956 . S
H2459 C2446 0.961 . S
H2460 C2446 0.961 . S
H2461 C2447 0.958 . S
H2462 C2447 0.961 . S
H2463 C2447 0.960 . S
C2464 C2465 1.391 . S
C2464 C2466 1.394 . S
C2464 H2480 0.931 . S
C2465 C2464 1.391 . S
C2465 C2469 1.376 . S
C2466 C2464 1.394 . S
C2466 C2467 1.369 . S
C2466 C2470 1.531 . S
C2467 C2466 1.369 . S
C2467 C2468 1.410 . S
C2467 C2475 1.503 . S
C2468 C2467 1.410 . S
C2468 C2469 1.392 . S
C2468 C2471 1.511 . S
C2469 C2465 1.376 . S
C2469 C2468 1.392 . S
C2469 H2481 0.929 . S
C2470 C2466 1.531 . S
C2470 H2482 0.960 . S
C2470 H2483 0.962 . S
C2470 H2484 0.960 . S
C2471 C2468 1.511 . S
C2471 H2485 0.961 . S
C2471 H2486 0.961 . S
C2471 H2487 0.961 . S
C2472 C2473 1.370 . S
C2472 C2474 1.363 . S
C2472 H2488 0.931 . S
C2473 C2472 1.370 . S
C2473 C2477 1.408 . S
C2474 C2472 1.363 . S
C2474 C2475 1.370 . S
C2474 C2478 1.524 . S
C2475 C2467 1.503 . S
C2475 C2474 1.370 . S
C2475 C2476 1.403 . S
C2476 C2475 1.403 . S
C2476 C2477 1.404 . S
C2476 C2479 1.539 . S
C2477 C2473 1.408 . S
C2477 C2476 1.404 . S
C2477 H2489 0.930 . S
C2478 C2474 1.524 . S
C2478 H2490 0.956 . S
C2478 H2491 0.961 . S
C2478 H2492 0.961 . S
C2479 C2476 1.539 . S
C2479 H2493 0.958 . S
C2479 H2494 0.961 . S
C2479 H2495 0.960 . S
H2480 C2464 0.931 . S
H2481 C2469 0.929 . S
H2482 C2470 0.960 . S
H2483 C2470 0.962 . S
H2484 C2470 0.960 . S
H2485 C2471 0.961 . S
H2486 C2471 0.961 . S
H2487 C2471 0.961 . S
H2488 C2472 0.931 . S
H2489 C2477 0.930 . S
H2490 C2478 0.956 . S
H2491 C2478 0.961 . S
H2492 C2478 0.961 . S
H2493 C2479 0.958 . S
H2494 C2479 0.961 . S
H2495 C2479 0.960 . S
C449 C414 1.283 . S
C457 C8 1.283 . S
C481 C22 1.271 . S
C489 C428 1.278 . S
C513 C442 1.288 . S
C521 C36 1.280 . S
C545 C400 1.311 . S
C553 C50 1.291 . S
C577 C64 1.234 . S
C585 C386 1.260 . S
C609 C344 1.310 . S
C617 C78 1.293 . S
C641 C92 1.311 . S
C649 C358 1.293 . S
C673 C372 1.242 . S
C681 C106 1.262 . S
C705 C120 1.309 . S
C713 C302 1.290 . S
C737 C134 1.244 . S
C745 C316 1.263 . S
C769 C330 1.233 . S
C777 C148 1.260 . S
C801 C162 1.291 . S
C809 C288 1.286 . S
C833 C274 1.250 . S
C841 C176 1.265 . S
C865 C232 1.301 . S
C873 C190 1.286 . S
C897 C204 1.256 . S
C905 C246 1.272 . S
C929 C218 1.282 . S
C937 C260 1.283 . S
C961 C7 1.439 . S
C969 C147 1.432 . S
C993 C161 1.435 . S
C1001 C21 1.432 . S
C1025 C119 1.440 . S
C1033 C35 1.433 . S
C1057 C133 1.410 . S
C1065 C49 1.420 . S
C1089 C63 1.408 . S
C1097 C203 1.421 . S
C1121 C217 1.409 . S
C1129 C77 1.420 . S
C1153 C175 1.440 . S
C1161 C91 1.433 . S
C1185 C189 1.416 . S
C1193 C105 1.422 . S
C1217 C231 1.409 . S
C1225 C371 1.421 . S
C1249 C385 1.405 . S
C1257 C245 1.419 . S
C1281 C343 1.439 . S
C1289 C259 1.432 . S
C1313 C273 1.438 . S
C1321 C357 1.433 . S
C1345 C287 1.439 . S
C1353 C427 1.433 . S
C1377 C441 1.439 . S
C1385 C301 1.433 . S
C1409 C399 1.439 . S
C1417 C315 1.433 . S
C1441 C329 1.433 . S
C1449 C413 1.431 . S
C1473 C11 1.262 . S
C1481 C67 1.270 . S
C1505 C25 1.257 . S
C1513 C81 1.268 . S
C1537 C95 1.254 . S
C1545 C39 1.272 . S
C1569 C53 1.275 . S
C1577 C109 1.264 . S
C1601 C123 1.272 . S
C1609 C179 1.268 . S
C1633 C193 1.257 . S
C1641 C137 1.272 . S
C1665 C207 1.275 . S
C1673 C151 1.264 . S
C1697 C165 1.259 . S
C1705 C221 1.266 . S
C1729 C235 1.256 . S
C1737 C291 1.272 . S
C1761 C305 1.270 . S
C1769 C249 1.267 . S
C1793 C263 1.269 . S
C1801 C319 1.263 . S
C1825 C333 1.253 . S
C1833 C277 1.271 . S
C1857 C403 1.253 . S
C1865 C347 1.271 . S
C1889 C361 1.264 . S
C1897 C417 1.271 . S
C1921 C375 1.253 . S
C1929 C431 1.269 . S
C1953 C389 1.266 . S
C1961 C445 1.263 . S
C1985 C13 1.367 . S
C1993 C83 1.414 . S
C2017 C27 1.409 . S
C2025 C97 1.377 . S
C2049 C111 1.421 . S
C2057 C41 1.404 . S
C2081 C69 1.437 . S
C2089 C55 1.388 . S
C2113 C195 1.361 . S
C2121 C125 1.410 . S
C2145 C209 1.414 . S
C2153 C139 1.411 . S
C2177 C223 1.365 . S
C2185 C153 1.411 . S
C2209 C167 1.376 . S
C2217 C181 1.413 . S
C2241 C237 1.407 . S
C2249 C307 1.377 . S
C2273 C321 1.347 . S
C2281 C251 1.405 . S
C2305 C335 1.415 . S
C2313 C265 1.377 . S
C2337 C279 1.398 . S
C2345 C293 1.412 . S
C2369 C419 1.433 . S
C2377 C349 1.387 . S
C2401 C363 1.435 . S
C2409 C433 1.389 . S
C2433 C377 1.347 . S
C2441 C447 1.397 . S
C2465 C405 1.354 . S
C2473 C391 1.407 . S
