# Generated by pormake.
# Topology wir, (6)-cn, num edge types: 1
# Building blocks:
#     Node 0, Type 0, BuildingBlock: BETDAH_clean_sbu_0, # of connection points: 6
#     Node 1, Type 0, BuildingBlock: BETDAH_clean_sbu_0, # of connection points: 6
#     Node 2, Type 0, BuildingBlock: BETDAH_clean_sbu_0, # of connection points: 6
#     Node 3, Type 0, BuildingBlock: BETDAH_clean_sbu_0, # of connection points: 6
#     Node 4, Type 0, BuildingBlock: BETDAH_clean_sbu_0, # of connection points: 6
#     Node 5, Type 0, BuildingBlock: BETDAH_clean_sbu_0, # of connection points: 6
#     Node 6, Type 0, BuildingBlock: BETDAH_clean_sbu_0, # of connection points: 6
#     Node 7, Type 0, BuildingBlock: BETDAH_clean_sbu_0, # of connection points: 6
#     Node 8, Type 0, BuildingBlock: BETDAH_clean_sbu_0, # of connection points: 6
#     Node 9, Type 0, BuildingBlock: BETDAH_clean_sbu_0, # of connection points: 6
#     Node 10, Type 0, BuildingBlock: BETDAH_clean_sbu_0, # of connection points: 6
#     Node 11, Type 0, BuildingBlock: BETDAH_clean_sbu_0, # of connection points: 6
#     Node 12, Type 0, BuildingBlock: BETDAH_clean_sbu_0, # of connection points: 6
#     Node 13, Type 0, BuildingBlock: BETDAH_clean_sbu_0, # of connection points: 6
#     Node 14, Type 0, BuildingBlock: BETDAH_clean_sbu_0, # of connection points: 6
#     Node 15, Type 0, BuildingBlock: BETDAH_clean_sbu_0, # of connection points: 6
#     Node 16, Type 0, BuildingBlock: BETDAH_clean_sbu_0, # of connection points: 6
#     Node 17, Type 0, BuildingBlock: BETDAH_clean_sbu_0, # of connection points: 6
#     Node 18, Type 0, BuildingBlock: BETDAH_clean_sbu_0, # of connection points: 6
#     Node 19, Type 0, BuildingBlock: BETDAH_clean_sbu_0, # of connection points: 6
#     Node 20, Type 0, BuildingBlock: BETDAH_clean_sbu_0, # of connection points: 6
#     Node 21, Type 0, BuildingBlock: BETDAH_clean_sbu_0, # of connection points: 6
#     Node 22, Type 0, BuildingBlock: BETDAH_clean_sbu_0, # of connection points: 6
#     Node 23, Type 0, BuildingBlock: BETDAH_clean_sbu_0, # of connection points: 6
#     Node 24, Type 0, BuildingBlock: BETDAH_clean_sbu_0, # of connection points: 6
#     Node 25, Type 0, BuildingBlock: BETDAH_clean_sbu_0, # of connection points: 6
#     Node 26, Type 0, BuildingBlock: BETDAH_clean_sbu_0, # of connection points: 6
#     Node 27, Type 0, BuildingBlock: BETDAH_clean_sbu_0, # of connection points: 6
#     Node 28, Type 0, BuildingBlock: BETDAH_clean_sbu_0, # of connection points: 6
#     Node 29, Type 0, BuildingBlock: BETDAH_clean_sbu_0, # of connection points: 6
#     Node 30, Type 0, BuildingBlock: BETDAH_clean_sbu_0, # of connection points: 6
#     Node 31, Type 0, BuildingBlock: BETDAH_clean_sbu_0, # of connection points: 6
#     Edge 32, Type (0, 0), BuildingBlock: OJICUG_clean_linker_0, # of connection points: 2
#     Edge 33, Type (0, 0), BuildingBlock: OJICUG_clean_linker_0, # of connection points: 2
#     Edge 34, Type (0, 0), BuildingBlock: OJICUG_clean_linker_0, # of connection points: 2
#     Edge 35, Type (0, 0), BuildingBlock: OJICUG_clean_linker_0, # of connection points: 2
#     Edge 36, Type (0, 0), BuildingBlock: OJICUG_clean_linker_0, # of connection points: 2
#     Edge 37, Type (0, 0), BuildingBlock: OJICUG_clean_linker_0, # of connection points: 2
#     Edge 38, Type (0, 0), BuildingBlock: OJICUG_clean_linker_0, # of connection points: 2
#     Edge 39, Type (0, 0), BuildingBlock: OJICUG_clean_linker_0, # of connection points: 2
#     Edge 40, Type (0, 0), BuildingBlock: OJICUG_clean_linker_0, # of connection points: 2
#     Edge 41, Type (0, 0), BuildingBlock: OJICUG_clean_linker_0, # of connection points: 2
#     Edge 42, Type (0, 0), BuildingBlock: OJICUG_clean_linker_0, # of connection points: 2
#     Edge 43, Type (0, 0), BuildingBlock: OJICUG_clean_linker_0, # of connection points: 2
#     Edge 44, Type (0, 0), BuildingBlock: OJICUG_clean_linker_0, # of connection points: 2
#     Edge 45, Type (0, 0), BuildingBlock: OJICUG_clean_linker_0, # of connection points: 2
#     Edge 46, Type (0, 0), BuildingBlock: OJICUG_clean_linker_0, # of connection points: 2
#     Edge 47, Type (0, 0), BuildingBlock: OJICUG_clean_linker_0, # of connection points: 2
#     Edge 48, Type (0, 0), BuildingBlock: OJICUG_clean_linker_0, # of connection points: 2
#     Edge 49, Type (0, 0), BuildingBlock: OJICUG_clean_linker_0, # of connection points: 2
#     Edge 50, Type (0, 0), BuildingBlock: OJICUG_clean_linker_0, # of connection points: 2
#     Edge 51, Type (0, 0), BuildingBlock: OJICUG_clean_linker_0, # of connection points: 2
#     Edge 52, Type (0, 0), BuildingBlock: OJICUG_clean_linker_0, # of connection points: 2
#     Edge 53, Type (0, 0), BuildingBlock: OJICUG_clean_linker_0, # of connection points: 2
#     Edge 54, Type (0, 0), BuildingBlock: OJICUG_clean_linker_0, # of connection points: 2
#     Edge 55, Type (0, 0), BuildingBlock: OJICUG_clean_linker_0, # of connection points: 2
#     Edge 56, Type (0, 0), BuildingBlock: OJICUG_clean_linker_0, # of connection points: 2
#     Edge 57, Type (0, 0), BuildingBlock: OJICUG_clean_linker_0, # of connection points: 2
#     Edge 58, Type (0, 0), BuildingBlock: OJICUG_clean_linker_0, # of connection points: 2
#     Edge 59, Type (0, 0), BuildingBlock: OJICUG_clean_linker_0, # of connection points: 2
#     Edge 60, Type (0, 0), BuildingBlock: OJICUG_clean_linker_0, # of connection points: 2
#     Edge 61, Type (0, 0), BuildingBlock: OJICUG_clean_linker_0, # of connection points: 2
#     Edge 62, Type (0, 0), BuildingBlock: OJICUG_clean_linker_0, # of connection points: 2
#     Edge 63, Type (0, 0), BuildingBlock: OJICUG_clean_linker_0, # of connection points: 2
#     Edge 64, Type (0, 0), BuildingBlock: OJICUG_clean_linker_0, # of connection points: 2
#     Edge 65, Type (0, 0), BuildingBlock: OJICUG_clean_linker_0, # of connection points: 2
#     Edge 66, Type (0, 0), BuildingBlock: OJICUG_clean_linker_0, # of connection points: 2
#     Edge 67, Type (0, 0), BuildingBlock: OJICUG_clean_linker_0, # of connection points: 2
#     Edge 68, Type (0, 0), BuildingBlock: OJICUG_clean_linker_0, # of connection points: 2
#     Edge 69, Type (0, 0), BuildingBlock: OJICUG_clean_linker_0, # of connection points: 2
#     Edge 70, Type (0, 0), BuildingBlock: OJICUG_clean_linker_0, # of connection points: 2
#     Edge 71, Type (0, 0), BuildingBlock: OJICUG_clean_linker_0, # of connection points: 2
#     Edge 72, Type (0, 0), BuildingBlock: OJICUG_clean_linker_0, # of connection points: 2
#     Edge 73, Type (0, 0), BuildingBlock: OJICUG_clean_linker_0, # of connection points: 2
#     Edge 74, Type (0, 0), BuildingBlock: OJICUG_clean_linker_0, # of connection points: 2
#     Edge 75, Type (0, 0), BuildingBlock: OJICUG_clean_linker_0, # of connection points: 2
#     Edge 76, Type (0, 0), BuildingBlock: OJICUG_clean_linker_0, # of connection points: 2
#     Edge 77, Type (0, 0), BuildingBlock: OJICUG_clean_linker_0, # of connection points: 2
#     Edge 78, Type (0, 0), BuildingBlock: OJICUG_clean_linker_0, # of connection points: 2
#     Edge 79, Type (0, 0), BuildingBlock: OJICUG_clean_linker_0, # of connection points: 2
#     Edge 80, Type (0, 0), BuildingBlock: OJICUG_clean_linker_0, # of connection points: 2
#     Edge 81, Type (0, 0), BuildingBlock: OJICUG_clean_linker_0, # of connection points: 2
#     Edge 82, Type (0, 0), BuildingBlock: OJICUG_clean_linker_0, # of connection points: 2
#     Edge 83, Type (0, 0), BuildingBlock: OJICUG_clean_linker_0, # of connection points: 2
#     Edge 84, Type (0, 0), BuildingBlock: OJICUG_clean_linker_0, # of connection points: 2
#     Edge 85, Type (0, 0), BuildingBlock: OJICUG_clean_linker_0, # of connection points: 2
#     Edge 86, Type (0, 0), BuildingBlock: OJICUG_clean_linker_0, # of connection points: 2
#     Edge 87, Type (0, 0), BuildingBlock: OJICUG_clean_linker_0, # of connection points: 2
#     Edge 88, Type (0, 0), BuildingBlock: OJICUG_clean_linker_0, # of connection points: 2
#     Edge 89, Type (0, 0), BuildingBlock: OJICUG_clean_linker_0, # of connection points: 2
#     Edge 90, Type (0, 0), BuildingBlock: OJICUG_clean_linker_0, # of connection points: 2
#     Edge 91, Type (0, 0), BuildingBlock: OJICUG_clean_linker_0, # of connection points: 2
#     Edge 92, Type (0, 0), BuildingBlock: OJICUG_clean_linker_0, # of connection points: 2
#     Edge 93, Type (0, 0), BuildingBlock: OJICUG_clean_linker_0, # of connection points: 2
#     Edge 94, Type (0, 0), BuildingBlock: OJICUG_clean_linker_0, # of connection points: 2
#     Edge 95, Type (0, 0), BuildingBlock: OJICUG_clean_linker_0, # of connection points: 2
#     Edge 96, Type (0, 0), BuildingBlock: OJICUG_clean_linker_0, # of connection points: 2
#     Edge 97, Type (0, 0), BuildingBlock: OJICUG_clean_linker_0, # of connection points: 2
#     Edge 98, Type (0, 0), BuildingBlock: OJICUG_clean_linker_0, # of connection points: 2
#     Edge 99, Type (0, 0), BuildingBlock: OJICUG_clean_linker_0, # of connection points: 2
#     Edge 100, Type (0, 0), BuildingBlock: OJICUG_clean_linker_0, # of connection points: 2
#     Edge 101, Type (0, 0), BuildingBlock: OJICUG_clean_linker_0, # of connection points: 2
#     Edge 102, Type (0, 0), BuildingBlock: OJICUG_clean_linker_0, # of connection points: 2
#     Edge 103, Type (0, 0), BuildingBlock: OJICUG_clean_linker_0, # of connection points: 2
#     Edge 104, Type (0, 0), BuildingBlock: OJICUG_clean_linker_0, # of connection points: 2
#     Edge 105, Type (0, 0), BuildingBlock: OJICUG_clean_linker_0, # of connection points: 2
#     Edge 106, Type (0, 0), BuildingBlock: OJICUG_clean_linker_0, # of connection points: 2
#     Edge 107, Type (0, 0), BuildingBlock: OJICUG_clean_linker_0, # of connection points: 2
#     Edge 108, Type (0, 0), BuildingBlock: OJICUG_clean_linker_0, # of connection points: 2
#     Edge 109, Type (0, 0), BuildingBlock: OJICUG_clean_linker_0, # of connection points: 2
#     Edge 110, Type (0, 0), BuildingBlock: OJICUG_clean_linker_0, # of connection points: 2
#     Edge 111, Type (0, 0), BuildingBlock: OJICUG_clean_linker_0, # of connection points: 2
#     Edge 112, Type (0, 0), BuildingBlock: OJICUG_clean_linker_0, # of connection points: 2
#     Edge 113, Type (0, 0), BuildingBlock: OJICUG_clean_linker_0, # of connection points: 2
#     Edge 114, Type (0, 0), BuildingBlock: OJICUG_clean_linker_0, # of connection points: 2
#     Edge 115, Type (0, 0), BuildingBlock: OJICUG_clean_linker_0, # of connection points: 2
#     Edge 116, Type (0, 0), BuildingBlock: OJICUG_clean_linker_0, # of connection points: 2
#     Edge 117, Type (0, 0), BuildingBlock: OJICUG_clean_linker_0, # of connection points: 2
#     Edge 118, Type (0, 0), BuildingBlock: OJICUG_clean_linker_0, # of connection points: 2
#     Edge 119, Type (0, 0), BuildingBlock: OJICUG_clean_linker_0, # of connection points: 2
#     Edge 120, Type (0, 0), BuildingBlock: OJICUG_clean_linker_0, # of connection points: 2
#     Edge 121, Type (0, 0), BuildingBlock: OJICUG_clean_linker_0, # of connection points: 2
#     Edge 122, Type (0, 0), BuildingBlock: OJICUG_clean_linker_0, # of connection points: 2
#     Edge 123, Type (0, 0), BuildingBlock: OJICUG_clean_linker_0, # of connection points: 2
#     Edge 124, Type (0, 0), BuildingBlock: OJICUG_clean_linker_0, # of connection points: 2
#     Edge 125, Type (0, 0), BuildingBlock: OJICUG_clean_linker_0, # of connection points: 2
#     Edge 126, Type (0, 0), BuildingBlock: OJICUG_clean_linker_0, # of connection points: 2
#     Edge 127, Type (0, 0), BuildingBlock: OJICUG_clean_linker_0, # of connection points: 2
# Relax obj value: 0.593
# Max RMSD: 0.211
# Mean RMSD: 0.211
data_MOF--net-wir--node1-BETDAH_clean_sbu_0--edge1-OJICUG_clean_linker_0
_symmetry_space_group_name_H-M    P1
_symmetry_Int_Tables_number       1
_symmetry_cell_setting            triclinic
loop_
_symmetry_equiv_pos_as_xyz
'x, y, z'
_cell_length_a     28.375349
_cell_length_b     28.574629
_cell_length_c     79.194454
_cell_angle_alpha  89.955496
_cell_angle_beta   89.975706
_cell_angle_gamma 89.996668
loop_
_atom_site_label
_atom_site_type_symbol
_atom_site_fract_x
_atom_site_fract_y
_atom_site_fract_z
_atom_type_partial_charge
Ho0 Ho 0.29394 0.27232 0.46079 0.0
Ho1 Ho 0.25798 0.21778 0.45546 0.0
C2 C 0.23273 0.25523 0.49055 0.0
C3 C 0.33637 0.34907 0.46724 0.0
C4 C 0.31129 0.39262 0.46373 0.0
C5 C 0.27677 0.39162 0.45094 0.0
C6 C 0.23704 0.41988 0.45209 0.0
C7 C 0.23117 0.4485 0.46618 0.0
C8 C 0.26931 0.45578 0.47723 0.0
C9 C 0.30917 0.42733 0.47616 0.0
C10 C 0.33372 0.20341 0.48816 0.0
C11 C 0.29901 0.26939 0.42125 0.0
C12 C 0.23797 0.136 0.44377 0.0
C13 C 0.20348 0.1238 0.4306 0.0
C14 C 0.20938 0.14026 0.41405 0.0
C15 C 0.17466 0.13276 0.40201 0.0
C16 C 0.13294 0.10859 0.40613 0.0
C17 C 0.12674 0.09243 0.42274 0.0
C18 C 0.16174 0.10002 0.43488 0.0
C19 C 0.17604 0.27189 0.45501 0.0
O20 O 0.24837 0.29173 0.48266 0.0
O21 O 0.23775 0.21533 0.4828 0.0
O22 O 0.31589 0.32442 0.47897 0.0
O23 O 0.34697 0.32391 0.45403 0.0
O24 O 0.32918 0.20637 0.47153 0.0
O25 O 0.32823 0.20761 0.47148 0.0
O26 O 0.26435 0.24209 0.42663 0.0
O27 O 0.32387 0.28416 0.43398 0.0
O28 O 0.21958 0.15272 0.45752 0.0
O29 O 0.27518 0.1596 0.43903 0.0
O30 O 0.18012 0.22927 0.46021 0.0
O31 O 0.21795 0.28595 0.45038 0.0
H32 H 0.2776 0.36539 0.44108 0.0
H33 H 0.20849 0.41478 0.44323 0.0
H34 H 0.26515 0.47786 0.48825 0.0
H35 H 0.33505 0.42836 0.4862 0.0
H36 H 0.24088 0.15897 0.4103 0.0
H37 H 0.18173 0.14433 0.38923 0.0
H38 H 0.09528 0.07332 0.42627 0.0
H39 H 0.15609 0.08758 0.44765 0.0
Ho40 Ho 0.1112 1.03587 0.70091 0.0
Ho41 Ho 0.16771 1.00169 0.69395 0.0
C42 C 0.1361 0.97626 0.73016 0.0
C43 C 1.03531 0.07895 0.70956 0.0
C44 C 0.98896 1.05658 0.70904 0.0
C45 C 0.9847 1.01586 0.69913 0.0
C46 C 0.95807 0.97824 0.70501 0.0
C47 C 0.9348 0.98189 0.72049 0.0
C48 C 0.93097 1.02582 0.72836 0.0
C49 C 0.95845 1.06318 0.72271 0.0
C50 C 0.18975 0.07537 0.72558 0.0
C51 C 0.1087 1.04444 0.66114 0.0
C52 C 0.24875 0.97749 0.68178 0.0
C53 C 0.25933 0.93391 0.6728 0.0
C54 C 0.30583 0.9201 0.66991 0.0
C55 C 0.31506 0.87939 0.66071 0.0
C56 C 0.27777 0.85154 0.65444 0.0
C57 C 0.23135 0.86356 0.65881 0.0
C58 C 0.22223 0.90489 0.66753 0.0
C59 C 0.11439 0.91857 0.69526 0.0
O60 O 0.0974 0.99075 0.72328 0.0
O61 O 0.17446 0.98155 0.72129 0.0
O62 O 1.06351 1.05923 0.72043 0.0
O63 O 1.05572 0.08565 0.695 0.0
O64 O 0.17951 0.07343 0.70921 0.0
O65 O 0.17823 0.0723 0.70925 0.0
O66 O 0.14331 1.01545 0.66541 0.0
O67 O 0.08907 1.06237 0.67451 0.0
O68 O 0.23708 0.97172 0.69746 0.0
O69 O 0.2203 1.00624 0.6741 0.0
O70 O 0.15766 0.92436 0.69963 0.0
O71 O 0.09893 0.95978 0.69065 0.0
H72 H 1.00783 1.01005 0.68845 0.0
H73 H 0.96104 0.94471 0.69875 0.0
H74 H 0.91299 1.02907 0.74038 0.0
H75 H 0.96129 0.09418 0.73051 0.0
H76 H 0.33488 0.94172 0.67413 0.0
H77 H 0.35135 0.87196 0.65745 0.0
H78 H 0.20182 0.84287 0.65443 0.0
H79 H 0.18598 0.91504 0.66957 0.0
Ho80 Ho 0.34592 0.85451 0.96135 0.0
Ho81 Ho 0.37887 0.91142 0.95543 0.0
C82 C 0.40538 0.87619 0.99093 0.0
C83 C 0.30433 0.7763 0.96735 0.0
C84 C 0.32649 0.73145 0.96291 0.0
C85 C 0.35924 0.73157 0.94951 0.0
C86 C 0.40088 0.70603 0.95086 0.0
C87 C 0.40887 0.67896 0.96525 0.0
C88 C 0.37138 0.67024 0.97645 0.0
C89 C 0.3303 0.69702 0.97542 0.0
C90 C 0.30318 0.92629 0.98794 0.0
C91 C 0.33942 0.85598 0.92157 0.0
C92 C 0.39623 0.99419 0.94402 0.0
C93 C 0.43195 1.00817 0.93149 0.0
C94 C 0.42842 0.99286 0.91473 0.0
C95 C 0.46441 1.00199 0.90331 0.0
C96 C 0.50507 1.02664 0.90829 0.0
C97 C 0.50884 1.04175 0.92512 0.0
C98 C 0.47255 1.03259 0.93662 0.0
C99 C 0.46426 0.8613 0.9551 0.0
O100 O 0.39143 0.83838 0.9835 0.0
O101 O 0.39863 0.9153 0.98281 0.0
O102 O 0.32739 0.79937 0.97892 0.0
O103 O 0.29281 0.80303 0.95465 0.0
O104 O 0.30706 0.92002 0.97136 0.0
O105 O 0.30813 0.91879 0.97135 0.0
O106 O 0.36942 0.8889 0.92648 0.0
O107 O 0.31925 0.83675 0.93458 0.0
O108 O 0.41333 0.97843 0.95812 0.0
O109 O 0.3611 0.9687 0.93863 0.0
O110 O 0.45766 0.90401 0.95979 0.0
O111 O 0.42279 0.84486 0.95081 0.0
H112 H 0.35691 0.75702 0.93944 0.0
H113 H 0.42929 0.71302 0.94206 0.0
H114 H 0.37705 0.64918 0.98767 0.0
H115 H 0.3055 0.69606 0.98583 0.0
H116 H 0.39785 0.97372 0.91034 0.0
H117 H 0.45923 0.9912 0.89033 0.0
H118 H 0.53943 1.06119 0.92931 0.0
H119 H 0.47635 1.04424 0.94956 0.0
Ho120 Ho 0.54415 0.09374 0.19905 0.0
Ho121 Ho 0.49035 0.1283 0.19262 0.0
C122 C 0.52484 0.15324 0.22839 0.0
C123 C 0.6195 1.0478 0.20652 0.0
C124 C 0.66648 1.06856 0.20712 0.0
C125 C 0.67105 0.11353 0.20001 0.0
C126 C 0.69365 0.14862 0.20915 0.0
C127 C 0.71276 0.13784 0.22494 0.0
C128 C 0.71915 0.09067 0.22951 0.0
C129 C 0.69555 1.05579 0.2206 0.0
C130 C 0.46907 1.05482 0.22542 0.0
C131 C 0.54599 0.0851 0.15948 0.0
C132 C 0.40514 0.14415 0.18301 0.0
C133 C 0.35979 0.14146 0.19159 0.0
C134 C 0.34904 0.1049 0.2028 0.0
C135 C 0.30238 0.09772 0.20772 0.0
C136 C 0.26661 0.1255 0.20056 0.0
C137 C 0.27949 0.16824 0.19296 0.0
C138 C 0.32591 0.17545 0.18804 0.0
C139 C 0.54118 0.21168 0.19361 0.0
O140 O 0.56271 0.13896 0.22091 0.0
O141 O 0.4855 0.14738 0.22013 0.0
O142 O 0.59129 1.06548 0.21783 0.0
O143 O 0.59985 1.04573 0.19167 0.0
O144 O 0.47621 1.05798 0.20883 0.0
O145 O 0.47759 1.05909 0.20885 0.0
O146 O 0.51576 0.1182 0.164 0.0
O147 O 0.56143 1.06316 0.17275 0.0
O148 O 0.42696 0.10482 0.17997 0.0
O149 O 0.4329 0.17635 0.18871 0.0
O150 O 0.49811 0.20532 0.19834 0.0
O151 O 0.5579 0.17058 0.1891 0.0
H152 H 0.64952 0.12383 0.18933 0.0
H153 H 0.68919 0.18472 0.20527 0.0
H154 H 0.73504 0.08177 0.24154 0.0
H155 H 0.69308 1.02112 0.22608 0.0
H156 H 0.37563 0.07973 0.20651 0.0
H157 H 0.29364 1.06582 0.21444 0.0
H158 H 0.25326 0.19207 0.18799 0.0
H159 H 0.33441 0.20535 0.18018 0.0
Ho160 Ho 0.29524 0.85195 0.29783 0.0
Ho161 Ho 0.26015 0.90754 0.30296 0.0
C162 C 0.23606 0.86694 0.26791 0.0
C163 C 0.33958 0.77475 0.29297 0.0
C164 C 0.31779 0.7298 0.29759 0.0
C165 C 0.28396 0.73043 0.31064 0.0
C166 C 0.24219 0.70527 0.30891 0.0
C167 C 0.23523 0.67794 0.29452 0.0
C168 C 0.27378 0.66829 0.28389 0.0
C169 C 0.31497 0.69481 0.28526 0.0
C170 C 0.3356 0.92402 0.27055 0.0
C171 C 0.29993 0.85498 0.33747 0.0
C172 C 0.23988 0.99095 0.31314 0.0
C173 C 0.20319 1.00599 0.32508 0.0
C174 C 0.2008 0.98623 0.34125 0.0
C175 C 0.16468 0.99849 0.35221 0.0
C176 C 0.12971 1.0308 0.34732 0.0
C177 C 0.13108 1.04921 0.33085 0.0
C178 C 0.16759 1.0369 0.31983 0.0
C179 C 0.17621 0.85539 0.30347 0.0
O180 O 0.25121 0.83067 0.27597 0.0
O181 O 0.24106 0.9072 0.27544 0.0
O182 O 0.31721 0.79656 0.2809 0.0
O183 O 0.34939 0.80259 0.30553 0.0
O184 O 0.33198 0.91809 0.28717 0.0
O185 O 0.33091 0.91679 0.28718 0.0
O186 O 0.26821 0.88579 0.33213 0.0
O187 O 0.3224 0.83713 0.32473 0.0
O188 O 0.22378 0.97319 0.29922 0.0
O189 O 0.275 0.96669 0.31925 0.0
O190 O 0.18184 0.89788 0.29834 0.0
O191 O 0.21801 0.8403 0.30805 0.0
H192 H 0.28559 0.75618 0.32062 0.0
H193 H 0.21306 0.71282 0.31733 0.0
H194 H 0.26901 0.64689 0.27272 0.0
H195 H 0.34064 0.69333 0.27515 0.0
H196 H 0.22721 0.96172 0.34562 0.0
H197 H 0.16601 0.98438 0.36489 0.0
H198 H 0.10481 0.07414 0.32667 0.0
H199 H 0.16818 1.05169 0.30722 0.0
Ho200 Ho 0.54083 1.03978 0.55943 0.0
Ho201 Ho 0.48222 1.00687 0.56688 0.0
C202 C 0.51539 0.97531 0.53144 0.0
C203 C 0.6169 0.08154 0.55004 0.0
C204 C 0.66301 1.05857 0.54989 0.0
C205 C 0.66795 1.01784 0.55977 0.0
C206 C 0.69212 0.97931 0.55331 0.0
C207 C 0.71199 0.98199 0.53721 0.0
C208 C 0.71593 1.02575 0.52921 0.0
C209 C 0.69123 1.06414 0.53553 0.0
C210 C 0.46294 0.07615 0.53424 0.0
C211 C 0.5399 1.05179 0.59938 0.0
C212 C 0.39914 0.98474 0.57735 0.0
C213 C 0.38393 0.93945 0.58435 0.0
C214 C 0.40687 0.92032 0.59842 0.0
C215 C 0.39241 0.87763 0.60507 0.0
C216 C 0.3546 0.85269 0.59779 0.0
C217 C 0.33497 0.8698 0.58266 0.0
C218 C 0.34914 0.91305 0.57612 0.0
C219 C 0.53437 0.92326 0.56672 0.0
O220 O 0.55411 0.99133 0.5379 0.0
O221 O 0.47699 0.98181 0.54015 0.0
O222 O 0.58748 1.06238 0.53949 0.0
O223 O 0.59788 0.0883 0.56484 0.0
O224 O 0.47288 0.07661 0.55063 0.0
O225 O 0.47411 0.0755 0.55059 0.0
O226 O 0.5033 1.02526 0.59526 0.0
O227 O 0.5626 1.06594 0.58598 0.0
O228 O 0.41115 0.98361 0.56156 0.0
O229 O 0.42854 1.00934 0.58636 0.0
O230 O 0.49029 0.92856 0.56351 0.0
O231 O 0.55126 0.96462 0.5702 0.0
H232 H 0.64672 1.01284 0.57101 0.0
H233 H 0.68956 0.94599 0.55973 0.0
H234 H 0.73151 1.02833 0.51674 0.0
H235 H 0.68796 0.09519 0.52775 0.0
H236 H 0.43517 0.93891 0.60468 0.0
H237 H 0.40878 0.86645 0.61673 0.0
H238 H 0.30667 0.8512 0.57642 0.0
H239 H 0.33228 0.92632 0.56481 0.0
Ho240 Ho 0.35723 0.2829 0.79689 0.0
Ho241 Ho 0.39349 0.22915 0.80221 0.0
C242 C 0.41542 0.26834 0.76658 0.0
C243 C 0.30834 0.35787 0.79252 0.0
C244 C 0.32518 0.40423 0.79775 0.0
C245 C 0.36007 0.40577 0.81041 0.0
C246 C 0.39831 0.43588 0.80865 0.0
C247 C 0.40074 0.46498 0.79451 0.0
C248 C 0.35971 0.47263 0.78491 0.0
C249 C 0.32218 0.44123 0.78622 0.0
C250 C 0.31727 0.21154 0.76982 0.0
C251 C 0.35226 0.28251 0.83628 0.0
C252 C 0.41382 0.14681 0.81346 0.0
C253 C 0.44912 0.13277 0.82607 0.0
C254 C 0.44856 0.15241 0.84228 0.0
C255 C 0.48276 0.14026 0.85401 0.0
C256 C 0.51867 0.10814 0.84989 0.0
C257 C 0.52055 0.09022 0.83337 0.0
C258 C 0.48596 0.1024 0.82157 0.0
C259 C 0.47671 0.28141 0.80234 0.0
O260 O 0.39803 0.30432 0.77425 0.0
O261 O 0.41296 0.22858 0.77466 0.0
O262 O 0.33367 0.33901 0.78054 0.0
O263 O 0.30017 0.32851 0.80477 0.0
O264 O 0.32241 0.21597 0.78641 0.0
O265 O 0.32331 0.21719 0.78645 0.0
O266 O 0.38605 0.2537 0.83113 0.0
O267 O 0.32826 0.29736 0.82346 0.0
O268 O 0.43134 0.1639 0.79963 0.0
O269 O 0.3777 0.17096 0.81884 0.0
O270 O 0.47149 0.23859 0.79755 0.0
O271 O 0.43477 0.29687 0.80669 0.0
H272 H 0.36269 0.3785 0.81982 0.0
H273 H 0.42929 0.43004 0.81638 0.0
H274 H 0.36077 0.4958 0.77407 0.0
H275 H 0.29532 0.44121 0.7765 0.0
H276 H 0.42114 0.17653 0.8461 0.0
H277 H 0.47902 0.15409 0.86666 0.0
H278 H 0.5477 1.06556 0.82974 0.0
H279 H 0.48767 0.08772 0.80897 0.0
Ho280 Ho 0.09973 0.10223 1.05836 0.0
Ho281 Ho 0.14694 0.12547 1.06845 0.0
C282 C 0.16406 0.15968 1.03436 0.0
C283 C 1.01959 0.07423 1.04633 0.0
C284 C 0.97522 0.10023 1.04697 0.0
C285 C 0.97193 0.13835 1.05815 0.0
C286 C 0.94611 0.17788 1.05353 0.0
C287 C 0.92368 0.17906 1.03784 0.0
C288 C 0.91875 0.13731 1.02859 0.0
C289 C 0.94502 0.09798 1.03306 0.0
C290 C 0.16966 1.05618 1.03286 0.0
C291 C 0.08265 0.09024 1.09794 0.0
C292 C 0.20661 0.10142 1.09128 0.0
C293 C 0.20044 0.0975 1.10969 0.0
C294 C 0.18922 1.0537 1.11678 0.0
C295 C 0.17814 1.04976 0.13384 0.0
C296 C 0.17933 0.08933 0.14428 0.0
C297 C 0.1901 0.13322 0.13715 0.0
C298 C 0.20033 0.13731 1.12001 0.0
C299 C 0.1076 0.21651 1.06641 0.0
O300 O 0.11903 0.14953 1.03601 0.0
O301 O 0.1898 0.15136 1.04753 0.0
O302 O 1.0517 0.09489 1.03734 0.0
O303 O 1.03625 1.06015 1.06073 0.0
O304 O 0.1618 1.05782 1.04934 0.0
O305 O 0.16029 1.05942 1.04943 0.0
O306 O 0.10476 0.12877 1.09394 0.0
O307 O 0.08081 1.06433 1.08426 0.0
O308 O 0.2063 0.1433 1.08452 0.0
O309 O 0.18133 0.07152 1.08276 0.0
O310 O 0.15229 0.20566 1.06562 0.0
O311 O 0.08475 0.1771 1.06799 0.0
H312 H 0.99458 0.14043 1.06913 0.0
H313 H 0.94904 0.2094 1.06099 0.0
H314 H 0.9016 0.13756 1.01637 0.0
H315 H 0.94705 1.06888 1.02432 0.0
H316 H 0.18847 1.02238 1.10908 0.0
H317 H 0.17006 1.01554 0.13897 0.0
H318 H 0.19268 0.16427 0.14493 0.0
H319 H 0.20832 0.17157 1.1149 0.0
Ho320 Ho 0.88194 0.9159 0.81495 0.0
Ho321 Ho 0.84807 0.85968 0.80786 0.0
C322 C 0.83886 0.85687 0.84765 0.0
C323 C 0.90611 0.99613 0.82732 0.0
C324 C 0.95084 1.00624 0.83582 0.0
C325 C 0.96611 1.05222 0.83816 0.0
C326 C 1.00878 1.06088 0.84641 0.0
C327 C 1.03734 1.02351 0.85215 0.0
C328 C 1.02343 0.97753 0.84835 0.0
C329 C 0.98005 0.96904 0.84075 0.0
C330 C 0.96597 0.8634 0.8137 0.0
C331 C 0.90886 0.88567 0.7789 0.0
C332 C 0.80686 0.78398 0.79831 0.0
C333 C 0.83135 0.7389 0.79773 0.0
C334 C 0.87194 0.7339 0.80783 0.0
C335 C 0.91086 0.70944 0.80169 0.0
C336 C 0.90883 0.68915 0.78568 0.0
C337 C 0.86546 0.68659 0.77716 0.0
C338 C 0.82668 0.71155 0.78318 0.0
C339 C 0.80761 0.93722 0.7832 0.0
O340 O 0.86821 0.89113 0.84342 0.0
O341 O 0.8206 0.83772 0.83423 0.0
O342 O 0.91054 0.98549 0.8115 0.0
O343 O 0.87807 0.96722 0.83512 0.0
O344 O 0.95992 0.9063 0.80927 0.0
O345 O 0.92455 0.84776 0.81821 0.0
O346 O 0.89498 0.84694 0.78576 0.0
O347 O 0.9025 0.92362 0.78771 0.0
O348 O 0.82461 0.81423 0.78777 0.0
O349 O 0.80039 0.802 0.81326 0.0
O350 O 0.80984 0.92737 0.79961 0.0
O351 O 0.81094 0.92614 0.79958 0.0
H352 H 0.94435 0.08135 0.83417 0.0
H353 H 1.01752 0.09688 0.84926 0.0
H354 H 1.04455 0.94786 0.85223 0.0
H355 H 0.96875 0.93319 0.83921 0.0
H356 H 0.87642 0.75472 0.81914 0.0
H357 H 0.94398 0.71139 0.80842 0.0
H358 H 0.8635 0.67098 0.76471 0.0
H359 H 0.79592 0.71514 0.77517 0.0
Ho360 Ho 0.98237 0.13127 0.55471 0.0
Ho361 Ho 1.03736 0.09724 0.54899 0.0
C362 C 1.03729 0.09056 0.58856 0.0
C363 C 0.89944 0.14908 0.56632 0.0
C364 C 0.88598 0.18447 0.57895 0.0
C365 C 0.90143 0.18033 0.59569 0.0
C366 C 0.89266 0.21585 0.60723 0.0
C367 C 0.86826 0.25664 0.60238 0.0
C368 C 0.85319 0.26108 0.58556 0.0
C369 C 0.86196 0.22526 0.57394 0.0
C370 C 1.03271 0.21551 0.55503 0.0
C371 C 1.02115 0.15749 0.51953 0.0
C372 C 0.11474 1.05285 0.54369 0.0
C373 C 0.1604 0.07343 0.54836 0.0
C374 C 0.16043 0.10703 0.5614 0.0
C375 C 0.18728 0.14757 0.55976 0.0
C376 C 0.21537 0.15358 0.54545 0.0
C377 C 0.22432 0.11492 0.53491 0.0
C378 C 0.19612 0.075 0.53618 0.0
C379 C 0.9642 1.05897 0.52175 0.0
O380 O 1.00685 0.12308 0.58361 0.0
O381 O 1.05344 1.06819 0.57554 0.0
O382 O 0.91517 0.16613 0.5522 0.0
O383 O 0.92486 0.11383 0.5716 0.0
O384 O 0.9894 0.20937 0.55062 0.0
O385 O 1.04969 0.17415 0.55899 0.0
O386 O 1.05795 0.14121 0.52709 0.0
O387 O 0.98103 0.15268 0.5274 0.0
O388 O 0.09291 0.07611 0.53184 0.0
O389 O 0.08683 1.04285 0.55627 0.0
O390 O 0.97061 1.06133 0.53836 0.0
O391 O 0.9719 1.06239 0.53837 0.0
H392 H 0.92034 0.14963 0.59998 0.0
H393 H 0.90343 0.21015 0.62018 0.0
H394 H 0.83397 0.2918 0.58146 0.0
H395 H 0.85026 0.22954 0.56101 0.0
H396 H 0.13404 0.10635 0.57124 0.0
H397 H 0.18017 0.17682 0.56808 0.0
H398 H 0.24633 0.11894 0.52381 0.0
H399 H 0.19709 1.04944 0.52608 0.0
Ho400 Ho 0.76325 0.2391 0.31866 0.0
Ho401 Ho 0.79109 0.28627 0.30942 0.0
C402 C 0.80384 0.29994 0.34864 0.0
C403 C 0.78192 0.17457 0.34022 0.0
C404 C 0.78642 0.17992 0.35866 0.0
C405 C 0.83121 0.18856 0.36565 0.0
C406 C 0.83589 0.20184 0.38246 0.0
C407 C 0.79605 0.20518 0.39286 0.0
C408 C 0.75126 0.19613 0.38592 0.0
C409 C 0.74646 0.18392 0.36897 0.0
C410 C 0.67485 0.28221 0.31782 0.0
C411 C 0.72363 0.24254 0.28413 0.0
C412 C 0.82699 0.36424 0.29883 0.0
C413 C 0.80181 0.4089 0.2985 0.0
C414 C 0.76107 0.41304 0.30855 0.0
C415 C 0.72242 0.43818 0.30257 0.0
C416 C 0.7249 0.45966 0.28676 0.0
C417 C 0.76874 0.46375 0.27861 0.0
C418 C 0.80718 0.43788 0.28439 0.0
C419 C 0.82647 0.2114 0.28295 0.0
O420 O 0.76358 0.28113 0.3443 0.0
O421 O 0.83072 0.29998 0.3352 0.0
O422 O 0.74001 0.17933 0.3335 0.0
O423 O 0.81422 0.1972 0.33184 0.0
O424 O 0.68307 0.23733 0.31659 0.0
O425 O 0.71559 0.30342 0.31925 0.0
O426 O 0.74007 0.28419 0.28758 0.0
O427 O 0.73151 0.21025 0.29541 0.0
O428 O 0.80848 0.33315 0.2889 0.0
O429 O 0.83574 0.34698 0.31369 0.0
O430 O 0.82867 0.22094 0.29933 0.0
O431 O 0.82714 0.22252 0.29935 0.0
H432 H 0.86275 0.18633 0.35797 0.0
H433 H 0.87082 0.20861 0.38739 0.0
H434 H 0.71986 0.19692 0.39369 0.0
H435 H 0.71147 0.17802 0.36395 0.0
H436 H 0.7564 0.39127 0.31963 0.0
H437 H 0.68904 0.4355 0.30908 0.0
H438 H 0.77114 0.48045 0.26634 0.0
H439 H 0.83825 0.43514 0.27649 0.0
Ho440 Ho 0.67155 0.99726 1.05304 0.0
Ho441 Ho 0.61669 1.0328 1.04759 0.0
C442 C 0.61736 1.03889 1.087 0.0
C443 C 0.75386 0.97513 1.06461 0.0
C444 C 0.76485 0.93589 1.07583 0.0
C445 C 0.8107 0.92827 1.08161 0.0
C446 C 0.81931 0.89314 1.09352 0.0
C447 C 0.78208 0.86508 1.09965 0.0
C448 C 0.73708 0.87031 1.09258 0.0
C449 C 0.7284 0.90599 1.08105 0.0
C450 C 0.61859 0.91493 1.05269 0.0
C451 C 0.63289 0.9742 1.01748 0.0
C452 C 0.53995 0.0785 1.04254 0.0
C453 C 0.49406 1.05881 1.04736 0.0
C454 C 0.49375 1.02467 1.06023 0.0
C455 C 0.46508 0.98536 1.05873 0.0
C456 C 0.43556 0.98107 1.04473 0.0
C457 C 0.42776 1.02026 1.03432 0.0
C458 C 0.45764 1.05897 1.03545 0.0
C459 C 0.68847 0.07179 1.02052 0.0
O460 O 0.64673 1.0055 1.08195 0.0
O461 O 0.60193 1.06218 1.07409 0.0
O462 O 0.73872 0.9627 1.04984 0.0
O463 O 0.72788 1.00808 1.07118 0.0
O464 O 0.66118 0.92039 1.04741 0.0
O465 O 0.60352 0.95613 1.05758 0.0
O466 O 0.59633 0.99119 1.02504 0.0
O467 O 0.67281 0.97701 1.02561 0.0
O468 O 0.56103 1.05481 1.03064 0.0
O469 O 0.56832 0.08796 1.05503 0.0
O470 O 0.68392 1.06767 1.03713 0.0
O471 O 0.68275 1.06679 1.03717 0.0
H472 H 0.83927 0.95082 1.07758 0.0
H473 H 0.85433 0.89061 1.09888 0.0
H474 H 0.70779 0.84921 1.09695 0.0
H475 H 0.69264 0.91156 1.07687 0.0
H476 H 0.52091 1.02393 1.0698 0.0
H477 H 0.47146 0.95559 1.06691 0.0
H478 H 0.40481 1.01748 1.02342 0.0
H479 H 0.45703 0.08491 1.02547 0.0
Ho480 Ho 0.89749 0.21761 0.94338 0.0
Ho481 Ho 0.85944 0.27051 0.94818 0.0
C482 C 0.85529 0.26862 0.90884 0.0
C483 C 0.92411 0.13511 0.93435 0.0
C484 C 0.96793 0.12181 0.92572 0.0
C485 C 0.98281 0.14617 0.91132 0.0
C486 C 1.02424 0.1335 0.90314 0.0
C487 C 1.0521 0.09616 0.9092 0.0
C488 C 1.03956 0.07534 0.9247 0.0
C489 C 0.99753 0.0877 0.93277 0.0
C490 C 0.97973 0.27096 0.94341 0.0
C491 C 0.91887 0.26279 0.9782 0.0
C492 C 0.8075 0.34216 0.95459 0.0
C493 C 0.82519 0.38978 0.95586 0.0
C494 C 0.87056 0.39838 0.94937 0.0
C495 C 0.90142 0.4271 0.95824 0.0
C496 C 0.88645 0.44709 0.97342 0.0
C497 C 0.83817 0.44739 0.97746 0.0
C498 C 0.80747 0.41809 0.96876 0.0
C499 C 0.82321 0.19605 0.97489 0.0
O500 O 0.88912 0.2401 0.91424 0.0
O501 O 0.83098 0.28418 0.92151 0.0
O502 O 0.93033 0.1515 0.94944 0.0
O503 O 0.89355 0.15966 0.92575 0.0
O504 O 0.97528 0.22781 0.94779 0.0
O505 O 0.93761 0.28646 0.93943 0.0
O506 O 0.90218 0.29721 0.96953 0.0
O507 O 0.91608 0.22173 0.97107 0.0
O508 O 0.82489 0.31511 0.96628 0.0
O509 O 0.8096 0.3231 0.93965 0.0
O510 O 0.82577 0.20256 0.95829 0.0
O511 O 0.82682 0.20391 0.95834 0.0
H512 H 0.96173 0.17414 0.90601 0.0
H513 H 1.03195 0.15082 0.8913 0.0
H514 H 1.06063 1.04743 0.93004 0.0
H515 H 0.98767 1.06996 0.94434 0.0
H516 H 0.88465 0.3771 0.93923 0.0
H517 H 0.93841 0.42703 0.95482 0.0
H518 H 0.82602 0.46367 0.98903 0.0
H519 H 0.77246 0.41215 0.97379 0.0
Ho520 Ho 0.65846 0.14257 0.70644 0.0
Ho521 Ho 0.602 0.10873 0.71178 0.0
C522 C 0.60545 0.10141 0.67223 0.0
C523 C 0.74246 0.16134 0.69586 0.0
C524 C 0.75799 0.19666 0.68355 0.0
C525 C 0.73909 0.19723 0.66721 0.0
C526 C 0.75229 0.23174 0.65581 0.0
C527 C 0.78471 0.26685 0.66041 0.0
C528 C 0.80209 0.26743 0.67704 0.0
C529 C 0.78887 0.23253 0.6885 0.0
C530 C 0.60725 0.22668 0.70606 0.0
C531 C 0.62014 0.16615 0.74201 0.0
C532 C 0.5238 1.06491 0.71647 0.0
C533 C 0.47831 0.08462 0.71105 0.0
C534 C 0.47863 0.11583 0.69724 0.0
C535 C 0.45212 0.15681 0.69791 0.0
C536 C 0.42408 0.16555 0.71206 0.0
C537 C 0.41413 0.12855 0.72326 0.0
C538 C 0.44209 0.08831 0.72299 0.0
C539 C 0.67273 1.06645 0.73886 0.0
O540 O 0.63695 0.13276 0.67731 0.0
O541 O 0.58668 0.0806 0.68514 0.0
O542 O 0.7249 0.17848 0.70965 0.0
O543 O 0.71761 0.12631 0.69013 0.0
O544 O 0.64981 0.22026 0.71126 0.0
O545 O 0.59135 0.18548 0.70142 0.0
O546 O 0.58296 0.15092 0.73436 0.0
O547 O 0.65998 0.16152 0.73396 0.0
O548 O 0.5444 0.08916 0.72833 0.0
O549 O 0.55296 1.05415 0.70435 0.0
O550 O 0.66812 0.07152 0.72227 0.0
O551 O 0.66695 0.07245 0.72224 0.0
H552 H 0.71464 0.17055 0.66304 0.0
H553 H 0.73893 0.22895 0.64304 0.0
H554 H 0.82703 0.29389 0.68101 0.0
H555 H 0.80303 0.23333 0.7012 0.0
H556 H 0.505 0.11323 0.68745 0.0
H557 H 0.45979 0.18462 0.68901 0.0
H558 H 0.3919 0.13451 0.73419 0.0
H559 H 0.44062 1.06447 0.73362 0.0
Ho560 Ho 0.7561 0.91132 0.44347 0.0
Ho561 Ho 0.79039 0.85726 0.45025 0.0
C562 C 0.799 0.85637 0.41046 0.0
C563 C 0.74118 0.99565 0.4334 0.0
C564 C 0.74269 1.04044 0.44218 0.0
C565 C 0.77832 1.05103 0.45387 0.0
C566 C 0.78469 0.09731 0.45902 0.0
C567 C 0.75758 0.13279 0.4514 0.0
C568 C 0.71472 0.11983 0.44372 0.0
C569 C 0.70828 0.07385 0.43852 0.0
C570 C 0.67258 0.86027 0.44466 0.0
C571 C 0.72969 0.88229 0.47943 0.0
C572 C 0.8316 0.78076 0.45898 0.0
C573 C 0.80653 0.73613 0.45956 0.0
C574 C 0.76591 0.73155 0.44947 0.0
C575 C 0.72739 0.70619 0.45538 0.0
C576 C 0.72953 0.68538 0.4713 0.0
C577 C 0.77304 0.68229 0.47972 0.0
C578 C 0.81153 0.70802 0.47391 0.0
C579 C 0.83073 0.93033 0.47643 0.0
O580 O 0.76467 0.88499 0.41505 0.0
O581 O 0.8222 0.84209 0.42373 0.0
O582 O 0.78118 0.97403 0.43096 0.0
O583 O 0.70803 0.96797 0.43848 0.0
O584 O 0.67859 0.90318 0.44929 0.0
O585 O 0.71385 0.84383 0.44017 0.0
O586 O 0.74381 0.84366 0.4725 0.0
O587 O 0.73599 0.92027 0.47062 0.0
O588 O 0.81505 0.81068 0.46983 0.0
O589 O 0.83706 0.79939 0.44408 0.0
O590 O 0.82727 0.92403 0.45985 0.0
O591 O 0.82611 0.92265 0.45984 0.0
H592 H 0.80352 1.02472 0.45778 0.0
H593 H 0.81628 0.10602 0.46602 0.0
H594 H 0.69078 0.14583 0.43868 0.0
H595 H 0.67875 1.06538 0.4304 0.0
H596 H 0.76133 0.75279 0.43824 0.0
H597 H 0.69429 0.70815 0.44866 0.0
H598 H 0.77515 0.66613 0.49209 0.0
H599 H 0.84242 0.71119 0.48187 0.0
Ho600 Ho 0.96733 0.9989 0.20559 0.0
Ho601 Ho 1.02256 1.03447 0.21052 0.0
C602 C 1.01765 1.04114 0.17099 0.0
C603 C 0.88316 0.97665 0.19609 0.0
C604 C 0.86781 0.93804 0.18527 0.0
C605 C 0.89651 0.92311 0.17194 0.0
C606 C 0.88174 0.88722 0.16138 0.0
C607 C 0.83806 0.86492 0.16403 0.0
C608 C 0.81169 0.8769 0.17848 0.0
C609 C 0.82629 0.91354 0.18894 0.0
C610 C 1.02187 0.91646 0.20503 0.0
C611 C 1.00702 0.97554 0.24064 0.0
C612 C 0.10022 0.07595 0.21676 0.0
C613 C 0.14355 1.05001 0.21333 0.0
C614 C 0.14183 1.01544 0.20065 0.0
C615 C 0.17017 0.9759 0.20173 0.0
C616 C 0.19981 0.97031 0.21562 0.0
C617 C 0.20742 1.00819 0.22664 0.0
C618 C 0.17883 1.04785 0.22564 0.0
C619 C 0.95236 0.07636 0.23756 0.0
O620 O 0.98826 1.00819 0.17639 0.0
O621 O 1.0355 1.06366 0.18373 0.0
O622 O 0.90145 0.96331 0.21029 0.0
O623 O 0.90775 1.00977 0.1889 0.0
O624 O 0.97901 0.9211 0.21017 0.0
O625 O 1.03596 0.95824 0.20044 0.0
O626 O 1.04347 0.9899 0.23237 0.0
O627 O 0.96656 0.98103 0.23317 0.0
O628 O 0.07508 1.05671 0.22865 0.0
O629 O 0.075 0.08634 0.20349 0.0
O630 O 0.95627 0.07097 0.22097 0.0
O631 O 0.95754 1.06997 0.22093 0.0
H632 H 0.92973 0.94019 0.16929 0.0
H633 H 0.90325 0.87974 0.15043 0.0
H634 H 0.77852 0.85976 0.1812 0.0
H635 H 0.80471 0.92341 0.19965 0.0
H636 H 0.11514 1.01626 0.19089 0.0
H637 H 0.16478 0.94754 0.1929 0.0
H638 H 0.23019 1.00417 0.23753 0.0
H639 H 0.18037 0.07372 0.23562 0.0
Ho640 Ho 0.78874 0.78424 0.95999 0.0
Ho641 Ho 0.75369 0.73074 0.95423 0.0
C642 C 0.73151 0.7642 0.99032 0.0
C643 C 0.83401 0.86107 0.96496 0.0
C644 C 0.81457 0.9066 0.9598 0.0
C645 C 0.78156 0.90675 0.94649 0.0
C646 C 0.74093 0.93386 0.94775 0.0
C647 C 0.73431 0.96188 0.96199 0.0
C648 C 0.77304 0.97123 0.97257 0.0
C649 C 0.81295 0.94268 0.97173 0.0
C650 C 0.83107 0.7124 0.9867 0.0
C651 C 0.79397 0.78524 0.92035 0.0
C652 C 0.73945 0.64675 0.94334 0.0
C653 C 0.75151 0.59826 0.94723 0.0
C654 C 0.79703 0.58535 0.9523 0.0
C655 C 0.81198 0.5392 0.95005 0.0
C656 C 0.78207 0.50674 0.942 0.0
C657 C 0.7338 0.5179 0.94063 0.0
C658 C 0.71882 0.56372 0.94302 0.0
C659 C 0.66968 0.78219 0.95482 0.0
O660 O 0.74749 0.80157 0.98308 0.0
O661 O 0.73505 0.72546 0.98171 0.0
O662 O 0.80951 0.84043 0.97677 0.0
O663 O 0.84426 0.8325 0.95267 0.0
O664 O 0.82548 0.71759 0.97013 0.0
O665 O 0.82446 0.71888 0.97009 0.0
O666 O 0.76033 0.75618 0.92541 0.0
O667 O 0.81782 0.79977 0.93331 0.0
O668 O 0.77331 0.67369 0.93784 0.0
O669 O 0.71155 0.66771 0.95387 0.0
O670 O 0.67577 0.73948 0.95968 0.0
O671 O 0.71126 0.79791 0.95016 0.0
H672 H 0.78247 0.88032 0.93675 0.0
H673 H 0.71174 0.92664 0.93932 0.0
H674 H 0.7687 0.99346 0.98355 0.0
H675 H 0.83818 0.94374 0.98199 0.0
H676 H 0.82224 0.61155 0.9563 0.0
H677 H 0.84868 0.531 0.95233 0.0
H678 H 0.7087 0.49382 0.93515 0.0
H679 H 0.68299 0.57303 0.93966 0.0
Ho680 Ho 0.61737 0.53401 0.19768 0.0
Ho681 Ho 0.67062 0.49775 0.19147 0.0
C682 C 0.63375 0.47595 0.22746 0.0
C683 C 0.54625 0.58665 0.20472 0.0
C684 C 0.49671 0.57411 0.20551 0.0
C685 C 0.4699 0.59564 0.21801 0.0
C686 C 0.43801 0.56901 0.22721 0.0
C687 C 0.43263 0.52076 0.22372 0.0
C688 C 0.45104 0.50322 0.20852 0.0
C689 C 0.48348 0.52986 0.19945 0.0
C690 C 0.69278 0.57221 0.2238 0.0
C691 C 0.61551 0.54081 0.15803 0.0
C692 C 0.75547 0.47607 0.18278 0.0
C693 C 0.79914 0.47153 0.19235 0.0
C694 C 0.81085 0.50302 0.20529 0.0
C695 C 0.85755 0.50573 0.21077 0.0
C696 C 0.89218 0.48044 0.20188 0.0
C697 C 0.8775 0.43946 0.19351 0.0
C698 C 0.83115 0.43651 0.18788 0.0
C699 C 0.61762 0.41587 0.19328 0.0
O700 O 0.59645 0.49105 0.21981 0.0
O701 O 0.67344 0.47999 0.2192 0.0
O702 O 0.57134 0.56508 0.2161 0.0
O703 O 0.56575 0.5856 0.18983 0.0
O704 O 0.68608 0.56853 0.20721 0.0
O705 O 0.68466 0.56744 0.20724 0.0
O706 O 0.64761 0.50954 0.16264 0.0
O707 O 0.59787 0.56135 0.1712 0.0
O708 O 0.73815 0.51807 0.18096 0.0
O709 O 0.72366 0.44546 0.18651 0.0
O710 O 0.66048 0.42177 0.19829 0.0
O711 O 0.602 0.45698 0.18824 0.0
H712 H 0.47935 0.6301 0.22263 0.0
H713 H 0.42384 0.58499 0.23848 0.0
H714 H 0.44546 0.46714 0.20486 0.0
H715 H 0.50347 0.51306 0.18948 0.0
H716 H 0.78546 0.52833 0.20985 0.0
H717 H 0.86745 0.53501 0.21867 0.0
H718 H 0.90288 0.41585 0.18787 0.0
H719 H 0.82165 0.40975 0.1788 0.0
Ho720 Ho 0.86035 0.3677 0.46044 0.0
Ho721 Ho 0.89797 0.41914 0.45497 0.0
C722 C 0.92101 0.38221 0.49035 0.0
C723 C 0.81503 0.29255 0.46678 0.0
C724 C 0.83894 0.24837 0.46327 0.0
C725 C 0.87395 0.24882 0.45062 0.0
C726 C 0.91343 0.22033 0.45206 0.0
C727 C 0.91826 0.19164 0.4662 0.0
C728 C 0.87944 0.18463 0.47698 0.0
C729 C 0.83999 0.21356 0.47568 0.0
C730 C 0.82266 0.43819 0.48781 0.0
C731 C 0.85418 0.36865 0.42102 0.0
C732 C 0.9153 0.50291 0.44448 0.0
C733 C 0.90341 0.55105 0.4489 0.0
C734 C 0.85786 0.56335 0.4541 0.0
C735 C 0.84246 0.60936 0.45202 0.0
C736 C 0.87187 0.64209 0.44383 0.0
C737 C 0.92046 0.63186 0.44285 0.0
C738 C 0.93591 0.58608 0.44502 0.0
C739 C 0.97857 0.36369 0.45491 0.0
O740 O 0.90397 0.34628 0.48254 0.0
O741 O 0.91787 0.42199 0.48238 0.0
O742 O 0.83594 0.31648 0.47859 0.0
O743 O 0.80551 0.31815 0.45356 0.0
O744 O 0.82756 0.43499 0.47119 0.0
O745 O 0.82849 0.43367 0.47113 0.0
O746 O 0.89091 0.39338 0.42625 0.0
O747 O 0.82828 0.35692 0.43389 0.0
O748 O 0.88123 0.47698 0.43854 0.0
O749 O 0.94225 0.48071 0.455 0.0
O750 O 0.97533 0.40652 0.45994 0.0
O751 O 0.93634 0.3502 0.45036 0.0
H752 H 0.87386 0.27502 0.44074 0.0
H753 H 0.94254 0.22534 0.44342 0.0
H754 H 0.8828 0.16244 0.48803 0.0
H755 H 0.81369 0.21287 0.4856 0.0
H756 H 0.83283 0.53675 0.4579 0.0
H757 H 0.80553 0.61681 0.45411 0.0
H758 H 0.94542 0.65642 0.43756 0.0
H759 H 0.97188 0.57725 0.44167 0.0
Ho760 Ho 1.04416 0.59904 0.70131 0.0
Ho761 Ho 0.98429 0.62986 0.69417 0.0
C762 C 1.01492 0.65953 0.72994 0.0
C763 C 0.12229 0.5609 0.71046 0.0
C764 C 0.1672 0.58621 0.71026 0.0
C765 C 0.17014 0.62612 0.69985 0.0
C766 C 0.19311 0.66614 0.70565 0.0
C767 C 0.21373 0.66589 0.72165 0.0
C768 C 0.21959 0.62315 0.73021 0.0
C769 C 0.19605 0.58324 0.72455 0.0
C770 C 0.96868 0.55495 0.72598 0.0
C771 C 1.04323 0.58798 0.66137 0.0
C772 C 0.9004 0.6506 0.68415 0.0
C773 C 0.88345 0.69628 0.67809 0.0
C774 C 0.9067 0.71922 0.66485 0.0
C775 C 0.89041 0.76214 0.65899 0.0
C776 C 0.8504 0.78348 0.66627 0.0
C777 C 0.83045 0.76267 0.68074 0.0
C778 C 0.84648 0.71917 0.68646 0.0
C779 C 1.0342 0.71561 0.69467 0.0
O780 O 1.05458 0.64708 0.72321 0.0
O781 O 0.97702 0.65086 0.72126 0.0
O782 O 0.0923 0.57875 0.72113 0.0
O783 O 0.10305 0.55283 0.69579 0.0
O784 O 0.97789 0.55807 0.70956 0.0
O785 O 0.97902 0.55913 0.70958 0.0
O786 O 1.00489 0.61175 0.6657 0.0
O787 O 1.06752 0.57562 0.67463 0.0
O788 O 0.91243 0.64974 0.69992 0.0
O789 O 0.93072 0.62863 0.67465 0.0
O790 O 0.99065 0.70846 0.69837 0.0
O791 O 1.0517 0.67482 0.69068 0.0
H792 H 0.14843 0.62917 0.68865 0.0
H793 H 0.18918 0.69862 0.69879 0.0
H794 H 0.23574 0.62243 0.74261 0.0
H795 H 0.1943 0.5529 0.73275 0.0
H796 H 0.93668 0.70342 0.65858 0.0
H797 H 0.90726 0.77628 0.64785 0.0
H798 H 0.80055 0.77851 0.68702 0.0
H799 H 0.82935 0.70294 0.6972 0.0
Ho800 Ho 0.79977 0.34825 0.79716 0.0
Ho801 Ho 0.77128 0.40007 0.80502 0.0
C802 C 0.73671 0.38399 0.76943 0.0
C803 C 0.83552 0.26772 0.79007 0.0
C804 C 0.81231 0.22424 0.79543 0.0
C805 C 0.7814 0.22699 0.80933 0.0
C806 C 0.73885 0.2027 0.80906 0.0
C807 C 0.72794 0.17479 0.79513 0.0
C808 C 0.76393 0.16298 0.78365 0.0
C809 C 0.8059 0.18854 0.78357 0.0
C810 C 0.83938 0.41972 0.7699 0.0
C811 C 0.81049 0.34013 0.83647 0.0
C812 C 0.78502 0.47131 0.82425 0.0
C813 C 0.79114 0.46998 0.84277 0.0
C814 C 0.83672 0.46418 0.8495 0.0
C815 C 0.84315 0.45363 0.86649 0.0
C816 C 0.80429 0.4502 0.87736 0.0
C817 C 0.75872 0.4571 0.87074 0.0
C818 C 0.75218 0.46659 0.85361 0.0
C819 C 0.68276 0.35798 0.80419 0.0
O820 O 0.75354 0.34383 0.77433 0.0
O821 O 0.74261 0.41933 0.77971 0.0
O822 O 0.81088 0.29191 0.77927 0.0
O823 O 0.85144 0.2939 0.80223 0.0
O824 O 0.83894 0.41206 0.78641 0.0
O825 O 0.83759 0.41065 0.78646 0.0
O826 O 0.77279 0.36367 0.83196 0.0
O827 O 0.8364 0.33361 0.8231 0.0
O828 O 0.7435 0.4612 0.81811 0.0
O829 O 0.81863 0.4502 0.81609 0.0
O830 O 0.69196 0.40187 0.80096 0.0
O831 O 0.72299 0.33699 0.80747 0.0
H832 H 0.78585 0.25368 0.81888 0.0
H833 H 0.71181 0.21184 0.81814 0.0
H834 H 0.75618 0.141 0.77284 0.0
H835 H 0.82933 0.18554 0.77282 0.0
H836 H 0.86761 0.46618 0.84148 0.0
H837 H 0.87867 0.44837 0.87112 0.0
H838 H 0.72799 0.45614 0.87885 0.0
H839 H 0.71664 0.47047 0.84883 0.0
Ho840 Ho 1.03715 0.53905 1.05788 0.0
Ho841 Ho 0.98895 0.51234 1.067 0.0
C842 C 0.99092 0.47416 1.03247 0.0
C843 C 0.11663 0.57219 1.04719 0.0
C844 C 0.16071 0.54562 1.04674 0.0
C845 C 0.16406 0.50526 1.05688 0.0
C846 C 0.18968 0.46669 1.05123 0.0
C847 C 0.21256 0.46878 1.03564 0.0
C848 C 0.21645 0.51192 1.0272 0.0
C849 C 0.19016 0.55028 1.03267 0.0
C850 C 0.96153 0.57764 1.03173 0.0
C851 C 1.05101 0.54987 1.09731 0.0
C852 C 0.92406 0.5304 1.08863 0.0
C853 C 0.92848 0.53054 1.10716 0.0
C854 C 0.9359 0.57333 1.11553 0.0
C855 C 0.94885 0.57416 0.13248 0.0
C856 C 0.95336 0.53225 0.14157 0.0
C857 C 0.94537 0.48946 0.13325 0.0
C858 C 0.93333 0.48859 1.1162 0.0
C859 C 1.03104 0.42317 1.06602 0.0
O860 O 1.03337 0.48893 1.03595 0.0
O861 O 0.95861 0.48285 1.0437 0.0
O862 O 0.08455 0.55507 1.03728 0.0
O863 O 0.09977 0.58134 1.06209 0.0
O864 O 0.97239 0.57917 1.04806 0.0
O865 O 0.97401 0.57748 1.04806 0.0
O866 O 1.03048 0.51078 1.09283 0.0
O867 O 1.05258 0.57679 1.08391 0.0
O868 O 0.92671 0.49008 1.08082 0.0
O869 O 0.94934 0.56272 1.08131 0.0
O870 O 0.98607 0.43243 1.06475 0.0
O871 O 1.05284 0.46341 1.06758 0.0
H872 H 0.14177 0.50105 1.06789 0.0
H873 H 0.18689 0.43379 1.05791 0.0
H874 H 0.23402 0.51394 1.01506 0.0
H875 H 0.18789 0.58098 1.02467 0.0
H876 H 0.9331 0.60627 1.10881 0.0
H877 H 0.95474 0.60764 0.13852 0.0
H878 H 0.94712 0.45655 0.14001 0.0
H879 H 0.92846 0.45504 1.11009 0.0
Ho880 Ho 0.8525 0.77765 0.29893 0.0
Ho881 Ho 0.88409 0.73114 0.30535 0.0
C882 C 0.91693 0.75602 0.27035 0.0
C883 C 0.80914 0.8558 0.29408 0.0
C884 C 0.83009 0.9005 0.29926 0.0
C885 C 0.86463 0.89896 0.31204 0.0
C886 C 0.90493 0.92651 0.31068 0.0
C887 C 0.90989 0.95646 0.29684 0.0
C888 C 0.87022 0.96644 0.28679 0.0
C889 C 0.83053 0.93765 0.28775 0.0
C890 C 0.81747 0.70842 0.26982 0.0
C891 C 0.84451 0.78504 0.3379 0.0
C892 C 0.87181 0.65944 0.32452 0.0
C893 C 0.86654 0.66006 0.34306 0.0
C894 C 0.82081 0.66204 0.34991 0.0
C895 C 0.81374 0.67417 0.36671 0.0
C896 C 0.85228 0.68238 0.3774 0.0
C897 C 0.89821 0.67837 0.37074 0.0
C898 C 0.90526 0.66784 0.3537 0.0
C899 C 0.97131 0.77464 0.30508 0.0
O900 O 0.89719 0.79329 0.27647 0.0
O901 O 0.91351 0.7181 0.27955 0.0
O902 O 0.83283 0.8346 0.28225 0.0
O903 O 0.79838 0.82742 0.30633 0.0
O904 O 0.81804 0.71327 0.28648 0.0
O905 O 0.81932 0.71482 0.28656 0.0
O906 O 0.88498 0.76964 0.33209 0.0
O907 O 0.81528 0.78435 0.32526 0.0
O908 O 0.91296 0.66976 0.31804 0.0
O909 O 0.83763 0.68109 0.31685 0.0
O910 O 0.96352 0.73038 0.3019 0.0
O911 O 0.9303 0.79485 0.3079 0.0
H912 H 0.8648 0.87111 0.32129 0.0
H913 H 0.93494 0.91859 0.31864 0.0
H914 H 0.87336 0.98991 0.27608 0.0
H915 H 0.8042 0.93974 0.27787 0.0
H916 H 0.7901 0.65662 0.34202 0.0
H917 H 0.77789 0.67741 0.37124 0.0
H918 H 0.92889 0.68297 0.37868 0.0
H919 H 0.9409 0.66697 0.34881 0.0
Ho920 Ho 0.62027 0.60669 0.55963 0.0
Ho921 Ho 0.67468 0.64305 0.56576 0.0
C922 C 0.63809 0.66817 0.53029 0.0
C923 C 0.54509 0.56236 0.55117 0.0
C924 C 0.49952 0.58593 0.55 0.0
C925 C 0.49381 0.62775 0.55919 0.0
C926 C 0.46745 0.66435 0.55244 0.0
C927 C 0.44654 0.659 0.53662 0.0
C928 C 0.44498 0.61455 0.52906 0.0
C929 C 0.47164 0.57796 0.53573 0.0
C930 C 0.69755 0.57113 0.53375 0.0
C931 C 0.61892 0.60036 0.59904 0.0
C932 C 0.75509 0.66781 0.57816 0.0
C933 C 0.76352 0.70963 0.58842 0.0
C934 C 0.80923 0.72399 0.59236 0.0
C935 C 0.81619 0.76319 0.60261 0.0
C936 C 0.7774 0.7889 0.6089 0.0
C937 C 0.73189 0.77642 0.60363 0.0
C938 C 0.72501 0.73665 0.59379 0.0
C939 C 0.62006 0.72426 0.565 0.0
O940 O 0.60112 0.65211 0.53786 0.0
O941 O 0.67782 0.66406 0.53842 0.0
O942 O 0.5752 0.57837 0.5402 0.0
O943 O 0.56331 0.55922 0.56625 0.0
O944 O 0.68887 0.57206 0.55024 0.0
O945 O 0.68749 0.57321 0.55021 0.0
O946 O 0.64684 0.63506 0.59416 0.0
O947 O 0.60559 0.57583 0.58606 0.0
O948 O 0.74233 0.67688 0.56279 0.0
O949 O 0.72861 0.63571 0.58504 0.0
O950 O 0.66313 0.71981 0.56012 0.0
O951 O 0.60551 0.68277 0.56964 0.0
H952 H 0.51494 0.63465 0.57031 0.0
H953 H 0.46866 0.69837 0.55843 0.0
H954 H 0.42881 0.61006 0.51676 0.0
H955 H 0.47575 0.54614 0.52844 0.0
H956 H 0.83936 0.70395 0.58807 0.0
H957 H 0.85182 0.77105 0.60658 0.0
H958 H 0.7013 0.79547 0.60807 0.0
H959 H 0.68936 0.72611 0.59089 0.0
Ho960 Ho 0.37938 0.40248 0.31928 0.0
Ho961 Ho 0.35544 0.35554 0.30901 0.0
C962 C 0.34457 0.33754 0.3485 0.0
C963 C 0.35607 0.46127 0.34232 0.0
C964 C 0.35488 0.45487 0.36077 0.0
C965 C 0.31181 0.44415 0.36868 0.0
C966 C 0.31045 0.43223 0.38572 0.0
C967 C 0.35199 0.43194 0.39531 0.0
C968 C 0.39512 0.44231 0.38736 0.0
C969 C 0.39659 0.45346 0.37024 0.0
C970 C 0.46993 0.36197 0.31768 0.0
C971 C 0.41588 0.41778 0.28536 0.0
C972 C 0.32615 0.27709 0.29636 0.0
C973 C 0.35203 0.23287 0.2963 0.0
C974 C 0.39175 0.22884 0.30684 0.0
C975 C 0.43042 0.20246 0.3016 0.0
C976 C 0.42901 0.17978 0.28601 0.0
C977 C 0.38606 0.17641 0.27725 0.0
C978 C 0.34763 0.20339 0.28231 0.0
C979 C 0.31216 0.4264 0.28345 0.0
O980 O 0.38324 0.35964 0.34449 0.0
O981 O 0.31793 0.33621 0.33494 0.0
O982 O 0.39734 0.46224 0.33488 0.0
O983 O 0.32558 0.43535 0.33427 0.0
O984 O 0.46004 0.40657 0.31694 0.0
O985 O 0.43001 0.33974 0.31896 0.0
O986 O 0.40533 0.3732 0.2872 0.0
O987 O 0.40682 0.44402 0.29831 0.0
O988 O 0.34681 0.30952 0.2876 0.0
O989 O 0.31281 0.29253 0.31102 0.0
O990 O 0.3124 0.41826 0.29993 0.0
O991 O 0.31398 0.41675 0.3 0.0
H992 H 0.27912 0.44428 0.36162 0.0
H993 H 0.27674 0.42446 0.39151 0.0
H994 H 0.42765 0.44371 0.39449 0.0
H995 H 0.43038 0.46094 0.36448 0.0
H996 H 0.39556 0.25108 0.31783 0.0
H997 H 0.46312 0.20458 0.30856 0.0
H998 H 0.38454 0.15889 0.26512 0.0
H999 H 0.31735 0.20612 0.27404 0.0
Ho1000 Ho 0.48816 0.62891 1.0523 0.0
Ho1001 Ho 0.54446 0.59583 1.04606 0.0
C1002 C 0.54422 0.58757 1.08566 0.0
C1003 C 0.40552 0.64563 1.06442 0.0
C1004 C 0.39214 0.68097 1.07708 0.0
C1005 C 0.40763 0.67675 1.09382 0.0
C1006 C 0.39907 0.71231 1.10536 0.0
C1007 C 0.37484 0.75323 1.10053 0.0
C1008 C 0.35962 0.75769 1.08373 0.0
C1009 C 0.36816 0.72182 1.07211 0.0
C1010 C 0.53852 0.71296 1.05277 0.0
C1011 C 0.52279 0.65677 1.01679 0.0
C1012 C 0.62273 0.55332 1.04019 0.0
C1013 C 0.66819 0.57368 1.04524 0.0
C1014 C 0.66798 0.60521 1.05894 0.0
C1015 C 0.69399 0.64647 1.05801 0.0
C1016 C 0.7214 0.65523 1.04371 0.0
C1017 C 0.73111 0.61826 1.03249 0.0
C1018 C 0.70372 0.57766 1.03306 0.0
C1019 C 0.47292 0.55639 1.01903 0.0
O1020 O 0.51317 0.61978 1.08101 0.0
O1021 O 0.56083 0.5661 1.0725 0.0
O1022 O 0.42037 0.6628 1.0502 0.0
O1023 O 0.43166 0.61076 1.06956 0.0
O1024 O 0.49531 0.7069 1.04825 0.0
O1025 O 0.55549 0.67174 1.05674 0.0
O1026 O 0.56072 0.64049 1.02372 0.0
O1027 O 0.48373 0.65143 1.02525 0.0
O1028 O 0.60073 0.57786 1.02873 0.0
O1029 O 0.59479 0.54142 1.05254 0.0
O1030 O 0.47806 0.55947 1.03565 0.0
O1031 O 0.47923 0.56041 1.03569 0.0
H1032 H 0.42648 0.64597 1.09809 0.0
H1033 H 0.40993 0.7066 1.11831 0.0
H1034 H 0.34052 0.78849 1.07964 0.0
H1035 H 0.35637 0.72617 1.0592 0.0
H1036 H 0.6419 0.60253 1.06884 0.0
H1037 H 0.68645 0.67432 1.06689 0.0
H1038 H 0.75274 0.62434 1.02142 0.0
H1039 H 0.70497 0.55365 1.02248 0.0
Ho1040 Ho 0.25448 0.73139 0.81516 0.0
Ho1041 Ho 0.28787 0.78885 0.80846 0.0
C1042 C 0.29551 0.7886 0.84844 0.0
C1043 C 0.23252 0.64858 0.82544 0.0
C1044 C 0.18828 0.63311 0.83339 0.0
C1045 C 0.17224 0.65418 0.8483 0.0
C1046 C 0.13057 0.63926 0.85583 0.0
C1047 C 0.10363 0.60291 0.84861 0.0
C1048 C 0.11757 0.58509 0.8328 0.0
C1049 C 0.15978 0.59971 0.82537 0.0
C1050 C 0.16946 0.78221 0.81468 0.0
C1051 C 0.22695 0.76486 0.77936 0.0
C1052 C 0.33072 0.865 0.80032 0.0
C1053 C 0.30782 0.91087 0.80111 0.0
C1054 C 0.2668 0.9143 0.81106 0.0
C1055 C 0.22817 0.93955 0.80513 0.0
C1056 C 0.23111 0.9622 0.78953 0.0
C1057 C 0.27535 0.96758 0.78176 0.0
C1058 C 0.31375 0.94146 0.78747 0.0
C1059 C 0.32912 0.71292 0.78338 0.0
O1060 O 0.26896 0.75248 0.8439 0.0
O1061 O 0.31159 0.81071 0.83525 0.0
O1062 O 0.22831 0.66185 0.80986 0.0
O1063 O 0.2594 0.67677 0.83411 0.0
O1064 O 0.17563 0.73867 0.81123 0.0
O1065 O 0.21092 0.79938 0.81836 0.0
O1066 O 0.24162 0.80312 0.78633 0.0
O1067 O 0.23331 0.72645 0.78792 0.0
O1068 O 0.31116 0.83738 0.78926 0.0
O1069 O 0.33753 0.84404 0.81475 0.0
O1070 O 0.32667 0.72196 0.79983 0.0
O1071 O 0.32556 0.72319 0.79979 0.0
H1072 H 0.19253 0.68128 0.8545 0.0
H1073 H 0.12183 0.65402 0.86801 0.0
H1074 H 0.09736 0.55783 0.82667 0.0
H1075 H 0.17065 0.58423 0.8135 0.0
H1076 H 0.26153 0.89127 0.82177 0.0
H1077 H 0.19449 0.93564 0.81138 0.0
H1078 H 0.27816 0.98526 0.76968 0.0
H1079 H 0.34503 0.93941 0.77965 0.0
Ho1080 Ho 0.1639 0.50265 0.55415 0.0
Ho1081 Ho 0.10847 0.53717 0.54873 0.0
C1082 C 0.1105 0.54264 0.58836 0.0
C1083 C 0.24989 0.48868 0.56364 0.0
C1084 C 0.29825 0.50103 0.55913 0.0
C1085 C 0.31058 0.54652 0.55416 0.0
C1086 C 0.35704 0.5617 0.5562 0.0
C1087 C 0.39018 0.53216 0.56413 0.0
C1088 C 0.37973 0.48397 0.56508 0.0
C1089 C 0.33363 0.4687 0.56286 0.0
C1090 C 0.11246 0.41907 0.55447 0.0
C1091 C 0.12532 0.4788 0.51882 0.0
C1092 C 1.031 0.58195 0.54381 0.0
C1093 C 0.98523 0.56206 0.54877 0.0
C1094 C 0.98516 0.52892 0.56198 0.0
C1095 C 0.95853 0.48819 0.56049 0.0
C1096 C 0.93076 0.48161 0.54613 0.0
C1097 C 0.92124 0.52015 0.53558 0.0
C1098 C 0.9493 0.56021 0.53668 0.0
C1099 C 0.18022 0.57794 0.52145 0.0
O1100 O 0.14151 0.51092 0.58322 0.0
O1101 O 0.09288 0.56465 0.5755 0.0
O1102 O 0.22323 0.52191 0.5697 0.0
O1103 O 0.22769 0.46127 0.55331 0.0
O1104 O 0.15527 0.42502 0.54941 0.0
O1105 O 0.09646 0.46042 0.55894 0.0
O1106 O 0.08831 0.49377 0.52663 0.0
O1107 O 0.16546 0.48391 0.52663 0.0
O1108 O 1.05209 0.55824 0.53191 0.0
O1109 O 1.05956 0.59186 0.5562 0.0
O1110 O 0.17506 0.57355 0.53807 0.0
O1111 O 0.17377 0.57252 0.53809 0.0
H1112 H 0.28376 0.57149 0.55047 0.0
H1113 H 0.36479 0.59836 0.55412 0.0
H1114 H 0.40447 0.45906 0.57029 0.0
H1115 H 0.3248 0.43287 0.56608 0.0
H1116 H 1.01148 0.52996 0.57183 0.0
H1117 H 0.9659 0.45913 0.56888 0.0
H1118 H 0.89926 0.51582 0.5245 0.0
H1119 H 0.94819 0.58552 0.5265 0.0
Ho1120 Ho 0.38571 0.72985 0.44338 0.0
Ho1121 Ho 0.35223 0.7859 0.45083 0.0
C1122 C 0.34281 0.78744 0.41077 0.0
C1123 C 0.40195 0.64529 0.43381 0.0
C1124 C 0.40533 0.60148 0.44321 0.0
C1125 C 0.37267 0.58967 0.45585 0.0
C1126 C 0.36992 0.5434 0.46145 0.0
C1127 C 0.3972 0.50908 0.45326 0.0
C1128 C 0.43811 0.52388 0.44471 0.0
C1129 C 0.44097 0.56984 0.43902 0.0
C1130 C 0.46939 0.78117 0.44462 0.0
C1131 C 0.4138 0.75864 0.47934 0.0
C1132 C 0.31143 0.862 0.46036 0.0
C1133 C 0.33586 0.90711 0.46099 0.0
C1134 C 0.37723 0.91162 0.45127 0.0
C1135 C 0.41641 0.93446 0.45798 0.0
C1136 C 0.41381 0.95348 0.47418 0.0
C1137 C 0.36974 0.95756 0.48217 0.0
C1138 C 0.33067 0.93426 0.47557 0.0
C1139 C 0.3126 0.70987 0.47642 0.0
O1140 O 0.37264 0.75376 0.41497 0.0
O1141 O 0.3241 0.80628 0.42423 0.0
O1142 O 0.43494 0.67509 0.4371 0.0
O1143 O 0.36046 0.66476 0.43267 0.0
O1144 O 0.46328 0.73821 0.44919 0.0
O1145 O 0.42814 0.79761 0.44013 0.0
O1146 O 0.40066 0.79785 0.47259 0.0
O1147 O 0.40624 0.7209 0.47052 0.0
O1148 O 0.3293 0.83177 0.47086 0.0
O1149 O 0.30496 0.84396 0.44542 0.0
O1150 O 0.31483 0.71846 0.4599 0.0
O1151 O 0.31603 0.71983 0.45993 0.0
H1152 H 0.34668 0.61474 0.46016 0.0
H1153 H 0.34003 0.5333 0.46915 0.0
H1154 H 0.46239 0.49884 0.43927 0.0
H1155 H 0.46837 0.57937 0.43012 0.0
H1156 H 0.382 0.89115 0.43988 0.0
H1157 H 0.44999 0.93176 0.4516 0.0
H1158 H 0.36723 0.97251 0.49471 0.0
H1159 H 0.29919 0.93125 0.48324 0.0
Ho1160 Ho 0.16926 0.63612 0.20489 0.0
Ho1161 Ho 0.11644 0.59935 0.20994 0.0
C1162 C 0.11907 0.59544 0.17035 0.0
C1163 C 0.25209 0.65737 0.19379 0.0
C1164 C 0.26656 0.69347 0.18161 0.0
C1165 C 0.24662 0.69489 0.16544 0.0
C1166 C 0.25937 0.72982 0.15413 0.0
C1167 C 0.29236 0.7645 0.15866 0.0
C1168 C 0.31048 0.76441 0.1752 0.0
C1169 C 0.29776 0.72907 0.18655 0.0
C1170 C 0.11396 0.71768 0.20479 0.0
C1171 C 0.13162 0.65871 0.24019 0.0
C1172 C 1.0402 0.55403 0.21518 0.0
C1173 C 0.99572 0.57707 0.21114 0.0
C1174 C 0.99679 0.61222 0.19863 0.0
C1175 C 0.96863 0.65175 0.20026 0.0
C1176 C 0.93972 0.65615 0.21441 0.0
C1177 C 0.93053 0.61654 0.22446 0.0
C1178 C 0.95967 0.57739 0.22318 0.0
C1179 C 0.18662 0.55989 0.23734 0.0
O1180 O 0.14499 0.63079 0.17593 0.0
O1181 O 0.10569 0.5697 0.18302 0.0
O1182 O 0.23479 0.6737 0.20776 0.0
O1183 O 0.22771 0.62203 0.188 0.0
O1184 O 0.15732 0.71369 0.20952 0.0
O1185 O 0.09984 0.67569 0.20044 0.0
O1186 O 0.09544 0.6414 0.23247 0.0
O1187 O 0.17164 0.65592 0.23222 0.0
O1188 O 1.06288 0.57503 0.22731 0.0
O1189 O 1.06729 0.5451 0.20228 0.0
O1190 O 0.18315 0.5647 0.22072 0.0
O1191 O 0.18177 0.56574 0.22066 0.0
H1192 H 0.22185 0.66847 0.16131 0.0
H1193 H 0.2453 0.72759 0.14145 0.0
H1194 H 0.33576 0.79058 0.17915 0.0
H1195 H 0.31267 0.72924 0.19915 0.0
H1196 H 1.02381 0.61258 0.18898 0.0
H1197 H 0.97537 0.68157 0.19216 0.0
H1198 H 0.90768 0.61936 0.23539 0.0
H1199 H 0.95821 0.55075 0.2329 0.0
Ho1200 Ho 0.2637 0.41011 0.94188 0.0
Ho1201 Ho 0.30032 0.35615 0.94823 0.0
C1202 C 0.30702 0.35388 0.90865 0.0
C1203 C 0.23745 0.49075 0.93036 0.0
C1204 C 0.19291 0.50173 0.92187 0.0
C1205 C 0.17846 0.54807 0.9198 0.0
C1206 C 0.1367 0.55796 0.91116 0.0
C1207 C 0.10839 0.52147 0.90465 0.0
C1208 C 0.12117 0.475 0.90821 0.0
C1209 C 0.16355 0.46527 0.91637 0.0
C1210 C 0.18132 0.35602 0.94319 0.0
C1211 C 0.2397 0.37413 0.97772 0.0
C1212 C 0.35125 0.28478 0.95606 0.0
C1213 C 0.33545 0.23651 0.95733 0.0
C1214 C 0.35342 0.20999 0.97061 0.0
C1215 C 0.32358 0.18007 0.97937 0.0
C1216 C 0.27563 0.1762 0.97471 0.0
C1217 C 0.26128 0.195 0.95916 0.0
C1218 C 0.29118 0.22533 0.95048 0.0
C1219 C 0.33756 0.43269 0.97356 0.0
O1220 O 0.27562 0.38595 0.9132 0.0
O1221 O 0.32778 0.33639 0.92183 0.0
O1222 O 0.2328 0.47838 0.94601 0.0
O1223 O 0.26596 0.46304 0.92222 0.0
O1224 O 0.18618 0.3992 0.94743 0.0
O1225 O 0.22314 0.34086 0.93882 0.0
O1226 O 0.25625 0.33708 0.97043 0.0
O1227 O 0.24324 0.41321 0.96929 0.0
O1228 O 0.33112 0.31174 0.9672 0.0
O1229 O 0.35112 0.30308 0.94099 0.0
O1230 O 0.33529 0.42468 0.95705 0.0
O1231 O 0.33425 0.42339 0.95708 0.0
H1232 H 0.20033 0.5766 0.92425 0.0
H1233 H 0.12875 0.59429 0.90854 0.0
H1234 H 0.10015 0.44603 0.90364 0.0
H1235 H 0.17414 0.42915 0.91779 0.0
H1236 H 0.38764 0.21809 0.97594 0.0
H1237 H 0.33686 0.16585 0.99109 0.0
H1238 H 0.22537 0.19099 0.95477 0.0
H1239 H 0.27695 0.24528 0.94001 0.0
Ho1240 Ho 0.48787 0.51905 0.70315 0.0
Ho1241 Ho 0.53429 0.54956 0.71004 0.0
C1242 C 0.54441 0.55687 0.67115 0.0
C1243 C 0.41838 0.53359 0.68294 0.0
C1244 C 0.42043 0.53885 0.6644 0.0
C1245 C 0.42382 0.58419 0.65755 0.0
C1246 C 0.43505 0.59085 0.64063 0.0
C1247 C 0.44114 0.55237 0.62987 0.0
C1248 C 0.43664 0.50689 0.63661 0.0
C1249 C 0.42684 0.50018 0.65374 0.0
C1250 C 0.52998 0.43166 0.70402 0.0
C1251 C 0.50679 0.48667 0.73857 0.0
C1252 C 0.61291 0.59249 0.71537 0.0
C1253 C 0.65833 0.57236 0.71041 0.0
C1254 C 0.65737 0.53675 0.69811 0.0
C1255 C 0.68515 0.49702 0.70021 0.0
C1256 C 0.71461 0.49386 0.71428 0.0
C1257 C 0.72469 0.53457 0.7236 0.0
C1258 C 0.6956 0.5737 0.72194 0.0
C1259 C 0.46535 0.58709 0.73848 0.0
O1260 O 0.52879 0.51674 0.67692 0.0
O1261 O 0.54268 0.58612 0.68369 0.0
O1262 O 0.42672 0.49239 0.68954 0.0
O1263 O 0.44064 0.56682 0.69084 0.0
O1264 O 0.48516 0.44017 0.70641 0.0
O1265 O 0.55152 0.47197 0.70162 0.0
O1266 O 0.54553 0.50568 0.73308 0.0
O1267 O 0.47014 0.49031 0.72864 0.0
O1268 O 0.5912 0.56837 0.72697 0.0
O1269 O 0.58494 0.60312 0.70296 0.0
O1270 O 0.46952 0.58494 0.72184 0.0
O1271 O 0.471 0.58373 0.72175 0.0
H1272 H 0.41956 0.61483 0.66546 0.0
H1273 H 0.43874 0.62632 0.636 0.0
H1274 H 0.43981 0.47633 0.62862 0.0
H1275 H 0.42499 0.46484 0.65864 0.0
H1276 H 0.62946 0.53533 0.68882 0.0
H1277 H 0.67727 0.46618 0.69277 0.0
H1278 H 0.74801 0.53277 0.73443 0.0
H1279 H 0.6973 0.601 0.73141 0.0
C1280 C 0.16766 0.41441 0.48285 0.0
C1281 C 0.18403 0.45292 0.47347 0.0
H1282 H 0.13254 0.39283 0.5054 0.0
C1283 C 0.16407 0.49704 0.47601 0.0
H1284 H 0.1832 0.38007 0.48114 0.0
C1285 C 0.13366 0.50388 0.48966 0.0
C1286 C 0.12531 0.46704 0.50101 0.0
H1287 H 0.17636 0.52688 0.46882 0.0
H1288 H 0.12316 0.53921 0.49287 0.0
C1289 C 0.13846 0.42153 0.4967 0.0
C1290 C 0.97102 0.93106 0.74173 0.0
C1291 C 0.93192 0.94059 0.7314 0.0
H1292 H 0.99405 0.9045 0.76561 0.0
C1293 C 0.88874 0.9189 0.73469 0.0
H1294 H 1.00466 0.94777 0.7393 0.0
C1295 C 0.88323 0.89272 0.74948 0.0
C1296 C 0.92053 0.88951 0.76108 0.0
H1297 H 0.85839 0.92602 0.7268 0.0
H1298 H 0.84836 0.8804 0.75287 0.0
C1299 C 0.96516 0.90615 0.75668 0.0
C1300 C 0.4807 0.63607 0.97457 0.0
C1301 C 0.45637 0.67821 0.97249 0.0
H1302 H 0.52793 0.59767 0.99047 0.0
C1303 C 0.47003 0.71778 0.98181 0.0
H1304 H 0.47054 0.60539 0.96743 0.0
C1305 C 0.5016 0.71313 0.99513 0.0
C1306 C 0.51987 0.66903 0.99901 0.0
H1307 H 0.45132 0.75064 0.98039 0.0
H1308 H 0.50584 0.74207 1.00384 0.0
C1309 C 0.51359 0.63189 0.98762 0.0
C1310 C 0.67731 0.1908 0.26613 0.0
C1311 C 0.70841 0.22858 0.26731 0.0
H1312 H 0.6549 0.13234 0.25153 0.0
C1313 C 0.7351 0.24202 0.25315 0.0
H1314 H 0.65621 0.18019 0.27689 0.0
C1315 C 0.73515 0.21392 0.23867 0.0
C1316 C 0.70877 0.1725 0.23853 0.0
H1317 H 0.75961 0.27102 0.25393 0.0
H1318 H 0.7583 0.22248 0.22824 0.0
C1319 C 0.67739 0.163 0.25181 0.0
C1320 C 0.17697 0.71803 0.27705 0.0
C1321 C 0.1886 0.67808 0.28653 0.0
H1322 H 0.14651 0.74319 0.25411 0.0
C1323 C 0.16464 0.63615 0.2836 0.0
H1324 H 0.19523 0.75081 0.27918 0.0
C1325 C 0.1354 0.63225 0.26946 0.0
C1326 C 0.13173 0.66987 0.25811 0.0
H1327 H 0.17289 0.60535 0.291 0.0
H1328 H 0.12212 0.59802 0.266 0.0
C1329 C 0.14882 0.71385 0.26277 0.0
C1330 C 0.67487 0.90811 0.50125 0.0
C1331 C 0.7175 0.8863 0.49722 0.0
H1332 H 0.6398 0.95526 0.51796 0.0
C1333 C 0.75433 0.88578 0.50906 0.0
H1334 H 0.64635 0.90926 0.49215 0.0
C1335 C 0.75129 0.91348 0.52359 0.0
C1336 C 0.71096 0.94052 0.52633 0.0
H1337 H 0.78766 0.86933 0.506 0.0
H1338 H 0.78177 0.91733 0.5317 0.0
C1339 C 0.67142 0.93473 0.51588 0.0
C1340 C 0.47985 0.43081 0.75993 0.0
C1341 C 0.50038 0.47396 0.7562 0.0
H1342 H 0.43342 0.39385 0.77634 0.0
C1343 C 0.49959 0.51003 0.76824 0.0
H1344 H 0.48012 0.40271 0.75074 0.0
C1345 C 0.47058 0.50607 0.78244 0.0
C1346 C 0.44487 0.46496 0.78493 0.0
H1347 H 0.51605 0.54338 0.76553 0.0
H1348 H 0.46474 0.53621 0.79045 0.0
C1349 C 0.45305 0.42597 0.7745 0.0
C1350 C 0.8832 0.24233 1.02198 0.0
C1351 C 0.92504 0.22242 1.02793 0.0
H1352 H 0.84928 0.27431 1.00079 0.0
C1353 C 0.96772 0.23215 1.01959 0.0
H1354 H 0.85011 0.23534 1.02832 0.0
C1355 C 0.96713 0.25277 1.00366 0.0
C1356 C 0.92413 0.26568 0.99646 0.0
H1357 H 1.00046 0.21699 1.02407 0.0
H1358 H 0.99916 0.25315 0.9962 0.0
C1359 C 0.88288 0.26458 1.00627 0.0
C1360 C 0.97502 0.643 0.77335 0.0
C1361 C 0.95188 0.68576 0.77553 0.0
H1362 H 1.01855 0.60226 0.75682 0.0
C1363 C 0.96321 0.7239 0.7651 0.0
H1364 H 0.96662 0.61339 0.78135 0.0
C1365 C 0.99182 0.71737 0.75102 0.0
C1366 C 1.01004 0.67296 0.74756 0.0
H1367 H 0.94553 0.75725 0.76671 0.0
H1368 H 0.99487 0.74533 0.74182 0.0
C1369 C 1.00484 0.63687 0.75946 0.0
C1370 C 0.17487 0.21173 0.52815 0.0
C1371 C 0.21566 0.19957 0.53723 0.0
H1372 H 0.14832 0.24167 0.50532 0.0
C1373 C 0.2582 0.22218 0.53367 0.0
H1374 H 0.14167 0.19434 0.53071 0.0
C1375 C 0.26134 0.25114 0.51949 0.0
C1376 C 0.22263 0.25525 0.50854 0.0
H1377 H 0.28981 0.21319 0.5406 0.0
H1378 H 0.29564 0.26393 0.51565 0.0
C1379 C 0.17846 0.23907 0.51368 0.0
C1380 C 0.65186 0.4229 0.2508 0.0
C1381 C 0.63477 0.46631 0.24548 0.0
H1382 H 0.69292 0.38678 0.26924 0.0
C1383 C 0.63537 0.50456 0.25661 0.0
H1384 H 0.65206 0.39326 0.24226 0.0
C1385 C 0.66006 0.50135 0.27184 0.0
C1386 C 0.68304 0.45962 0.27595 0.0
H1387 H 0.62262 0.5385 0.25254 0.0
H1388 H 0.66552 0.53248 0.27938 0.0
C1389 C 0.67532 0.41937 0.26616 0.0
C1390 C 0.38071 0.88509 1.02021 0.0
C1391 C 0.41768 0.87786 1.00873 0.0
H1392 H 0.35718 0.92588 1.0414 0.0
C1393 C 0.46326 0.89215 1.01289 0.0
H1394 H 0.34536 0.87373 1.0171 0.0
C1395 C 0.47025 0.92038 1.02695 0.0
C1396 C 0.43146 0.93518 1.03663 0.0
H1397 H 0.49205 0.88722 1.00406 0.0
H1398 H 0.50464 0.93617 1.02875 0.0
C1399 C 0.3873 0.91479 1.03401 0.0
C1400 C 0.91395 0.41909 1.00103 0.0
C1401 C 0.92026 0.44972 0.98734 0.0
H1402 H 0.93373 0.40205 1.02628 0.0
C1403 C 0.95861 0.48057 0.98717 0.0
H1404 H 0.88583 0.39339 1.00103 0.0
C1405 C 0.98698 0.48454 1.00155 0.0
C1406 C 0.97683 0.4575 1.01592 0.0
H1407 H 0.96468 0.50337 0.97646 0.0
H1408 H 1.0136 0.51171 1.00201 0.0
C1409 C 0.94189 0.42316 1.01527 0.0
C1410 C 0.46805 0.2238 0.72808 0.0
C1411 C 0.42601 0.21233 0.71963 0.0
H1412 H 0.49771 0.25296 0.75053 0.0
C1413 C 0.38444 0.23593 0.72375 0.0
H1414 H 0.50058 0.2057 0.72509 0.0
C1415 C 0.38333 0.26456 0.73805 0.0
C1416 C 0.42332 0.26779 0.74843 0.0
H1417 H 0.35195 0.22764 0.71725 0.0
H1418 H 0.34961 0.27763 0.74241 0.0
C1419 C 0.46659 0.25098 0.74263 0.0
C1420 C 0.67799 0.72508 0.49142 0.0
C1421 C 0.68717 0.68472 0.48184 0.0
H1422 H 0.65378 0.75124 0.5152 0.0
C1423 C 0.66544 0.64244 0.48609 0.0
H1424 H 0.69465 0.75807 0.48822 0.0
C1425 C 0.64062 0.63903 0.50128 0.0
C1426 C 0.6388 0.67759 0.51226 0.0
H1427 H 0.67223 0.61114 0.47878 0.0
H1428 H 0.62894 0.60484 0.50548 0.0
C1429 C 0.65452 0.72135 0.50678 0.0
C1430 C 0.17713 0.87697 0.24602 0.0
C1431 C 0.22362 0.8659 0.25015 0.0
H1432 H 0.13309 0.91977 0.23068 0.0
C1433 C 0.25993 0.87551 0.23862 0.0
H1434 H 0.14882 0.87 0.25487 0.0
C1435 C 0.2513 0.90521 0.22496 0.0
C1436 C 0.20606 0.92341 0.22266 0.0
H1437 H 0.29604 0.86666 0.24169 0.0
H1438 H 0.28057 0.91851 0.21761 0.0
C1439 C 0.16829 0.90561 0.2322 0.0
C1440 C 0.65138 0.92162 0.99419 0.0
C1441 C 0.63357 0.96476 0.99944 0.0
H1442 H 0.69698 0.88698 0.97687 0.0
C1443 C 0.63564 1.00345 0.98851 0.0
H1444 H 0.65028 0.89154 1.00253 0.0
C1445 C 0.66385 1.00141 0.97405 0.0
C1446 C 0.68828 0.9602 0.97038 0.0
H1447 H 0.62182 1.03704 0.99247 0.0
H1448 H 0.67101 1.03304 0.96697 0.0
C1449 C 0.67826 0.91922 0.97955 0.0
C1450 C 0.39472 0.48308 0.26673 0.0
C1451 C 0.41879 0.44049 0.26879 0.0
H1452 H 0.37301 0.53726 0.25022 0.0
C1453 C 0.44147 0.42029 0.25493 0.0
H1454 H 0.37581 0.49922 0.27709 0.0
C1455 C 0.44326 0.4447 0.23959 0.0
C1456 C 0.42018 0.48841 0.23774 0.0
H1457 H 0.45962 0.38712 0.2562 0.0
H1458 H 0.46495 0.43038 0.22961 0.0
C1459 C 0.3933 0.50531 0.25124 0.0
C1460 C 1.0138 0.13455 0.49006 0.0
C1461 C 1.02123 0.17052 0.50182 0.0
H1462 H 0.97337 0.11337 0.46843 0.0
C1463 C 1.00829 0.21634 0.49785 0.0
H1464 H 1.02394 0.09894 0.49304 0.0
C1465 C 0.98036 0.22457 0.48376 0.0
C1466 C 0.9649 0.18681 0.47383 0.0
H1467 H 1.01356 0.24435 0.50689 0.0
H1468 H 0.96502 0.25905 0.48219 0.0
C1469 C 0.98481 0.14256 0.47611 0.0
C1470 C 0.17103 0.71453 0.742 0.0
C1471 C 0.21149 0.70834 0.73201 0.0
H1472 H 0.14419 0.73948 0.76557 0.0
C1473 C 0.25186 0.73483 0.73531 0.0
H1474 H 0.13943 0.69433 0.73952 0.0
C1475 C 0.25399 0.76193 0.75 0.0
C1476 C 0.2161 0.76151 0.76143 0.0
H1477 H 0.28313 0.73059 0.72762 0.0
H1478 H 0.28737 0.77753 0.75353 0.0
C1479 C 0.17352 0.74058 0.7568 0.0
C1480 C 0.64027 0.21808 0.76522 0.0
C1481 C 0.6212 0.17537 0.76007 0.0
H1482 H 0.68964 0.25114 0.78156 0.0
C1483 C 0.62401 0.13636 0.77083 0.0
H1484 H 0.63863 0.24841 0.75701 0.0
C1485 C 0.6544 0.13741 0.78472 0.0
C1486 C 0.68032 0.17797 0.78803 0.0
H1487 H 0.60921 0.10309 0.76698 0.0
H1488 H 0.66211 0.10537 0.79147 0.0
C1489 C 0.66961 0.21945 0.77926 0.0
C1490 C 0.26605 0.38039 1.00705 0.0
C1491 C 0.22849 0.37581 0.99563 0.0
H1492 H 0.29042 0.41482 1.02954 0.0
C1493 C 0.18331 0.39023 1.00034 0.0
H1494 H 0.30132 0.36979 1.00344 0.0
C1495 C 0.17702 0.41488 1.01532 0.0
C1496 C 0.21617 0.42636 1.02535 0.0
H1497 H 0.15416 0.38749 0.99155 0.0
H1498 H 0.14285 0.43032 1.01788 0.0
C1499 C 0.26003 0.40628 1.02187 0.0
C1500 C 1.00402 1.00428 0.2696 0.0
C1501 C 1.00809 0.96585 0.25865 0.0
H1502 H 0.96796 1.03154 0.29135 0.0
C1503 C 0.99337 0.92165 0.26399 0.0
H1504 H 1.0154 1.03869 0.26555 0.0
C1505 C 0.96749 0.91745 0.27882 0.0
C1506 C 0.95549 0.95763 0.28814 0.0
H1507 H 0.99585 0.89179 0.2556 0.0
H1508 H 0.95081 0.88413 0.28153 0.0
C1509 C 0.97689 1.00038 0.28426 0.0
C1510 C 0.3996 0.72318 0.52348 0.0
C1511 C 0.44246 0.69978 0.52555 0.0
H1512 H 0.35777 0.76481 0.50666 0.0
C1513 C 0.48012 0.70895 0.51453 0.0
H1514 H 0.37046 0.7165 0.53198 0.0
C1515 C 0.47282 0.73571 0.5001 0.0
C1516 C 0.42816 0.7542 0.49686 0.0
H1517 H 0.5136 0.69115 0.5161 0.0
H1518 H 0.5003 0.73732 0.4906 0.0
C1519 C 0.39265 0.751 0.50916 0.0
C1520 C 0.49274 0.13313 0.27253 0.0
C1521 C 0.47215 0.17654 0.27593 0.0
H1522 H 0.5303 0.09241 0.25423 0.0
C1523 C 0.48363 0.21548 0.26589 0.0
H1524 H 0.48432 0.103 0.28026 0.0
C1525 C 0.50854 0.20932 0.25093 0.0
C1526 C 0.52329 0.16452 0.24628 0.0
H1527 H 0.46781 0.24931 0.26841 0.0
H1528 H 0.5111 0.23823 0.2421 0.0
C1529 C 0.51906 0.1273 0.25776 0.0
C1530 C 0.67766 0.71333 1.02745 0.0
C1531 C 0.71931 0.70207 1.03617 0.0
H1532 H 0.64873 0.745 1.00532 0.0
C1533 C 0.76057 0.7271 1.03281 0.0
H1534 H 0.64542 0.69408 1.02986 0.0
C1535 C 0.76187 0.75773 1.01904 0.0
C1536 C 0.7225 0.76147 1.00837 0.0
H1537 H 0.79275 0.71888 1.03951 0.0
H1538 H 0.79545 0.77235 1.01522 0.0
C1539 C 0.67934 0.7427 1.01347 0.0
C1540 C 0.16569 1.0026 0.77436 0.0
C1541 C 0.18995 0.9615 0.77837 0.0
H1542 H 0.12594 1.03856 0.75536 0.0
C1543 C 0.18338 0.92119 0.76848 0.0
H1544 H 0.17052 1.03389 0.78188 0.0
C1545 C 0.15907 0.92403 0.75327 0.0
C1546 C 0.13991 0.96678 0.74817 0.0
H1547 H 0.20205 0.88912 0.77146 0.0
H1548 H 0.15974 0.89442 0.74472 0.0
C1549 C 0.14009 1.00505 0.7593 0.0
C1550 C 0.9743 0.42539 0.529 0.0
C1551 C 0.93248 0.43589 0.53775 0.0
H1552 H 1.00351 0.39792 0.50618 0.0
C1553 C 0.89089 0.41245 0.53355 0.0
H1554 H 1.00682 0.44333 0.53208 0.0
C1555 C 0.88957 0.38473 0.51902 0.0
C1556 C 0.92931 0.38235 0.50847 0.0
H1557 H 0.85856 0.42002 0.54028 0.0
H1558 H 0.85586 0.37159 0.5147 0.0
C1559 C 0.9726 0.39922 0.51422 0.0
C1560 C 0.51196 0.99679 0.50151 0.0
C1561 C 0.51121 0.96138 0.51384 0.0
H1562 H 0.48013 1.02227 0.47863 0.0
C1563 C 0.48861 0.91898 0.51041 0.0
H1564 H 0.52876 1.03006 0.50413 0.0
C1565 C 0.46127 0.91457 0.49593 0.0
C1566 C 0.45576 0.95287 0.48499 0.0
H1567 H 0.48727 0.89157 0.51987 0.0
H1568 H 0.44009 0.8833 0.49432 0.0
C1569 C 0.4838 0.99268 0.48708 0.0
C1570 C 0.97433 0.73337 0.2489 0.0
C1571 C 0.93053 0.75276 0.25273 0.0
H1572 H 1.012 0.68851 0.23223 0.0
C1573 C 0.89463 0.75333 0.24052 0.0
H1574 H 1.0023 0.73275 0.25822 0.0
C1575 C 0.89938 0.72631 0.22594 0.0
C1576 C 0.94067 0.70067 0.22347 0.0
H1577 H 0.86063 0.76867 0.24338 0.0
H1578 H 0.86937 0.72121 0.2177 0.0
C1579 C 0.97969 0.70807 0.23408 0.0
C1580 C 0.254 0.13445 1.0011 0.0
C1581 C 0.24032 0.16363 0.9878 0.0
H1582 H 0.24392 0.11527 1.02661 0.0
C1583 C 0.19723 0.18843 0.98918 0.0
H1584 H 0.28548 0.11314 1.00034 0.0
C1585 C 0.17051 0.18631 1.00407 0.0
C1586 C 0.18792 0.16141 1.01793 0.0
H1587 H 0.18547 0.21177 0.97927 0.0
H1588 H 0.13812 0.20616 1.00509 0.0
C1589 C 0.22968 0.13541 1.0162 0.0
C1590 C 0.67523 0.44428 0.73508 0.0
C1591 C 0.71347 0.45027 0.72398 0.0
H1592 H 0.65296 0.41708 0.75894 0.0
C1593 C 0.75337 0.42198 0.72558 0.0
H1594 H 0.64402 0.46595 0.73392 0.0
C1595 C 0.7573 0.39211 0.7395 0.0
C1596 C 0.72242 0.39264 0.75209 0.0
H1597 H 0.78291 0.42619 0.71705 0.0
H1598 H 0.79012 0.37362 0.74155 0.0
C1599 C 0.68006 0.4162 0.74929 0.0
C1600 C 0.08308 0.26934 0.45351 0.0
C1601 C 0.12579 0.2961 0.45324 0.0
H1602 H 1.00641 0.26689 0.45334 0.0
C1603 C 0.11787 0.34509 0.45252 0.0
H1604 H 0.08553 0.23156 0.4541 0.0
C1605 C 1.0713 0.36566 0.45284 0.0
C1606 C 1.02858 0.33895 0.45316 0.0
H1607 H 0.14792 0.36806 0.45222 0.0
H1608 H 1.06892 0.40347 0.45289 0.0
C1609 C 1.03646 0.28987 0.45314 0.0
C1610 C 0.10431 0.77868 0.69275 0.0
C1611 C 1.05553 0.7674 0.69339 0.0
H1612 H 0.15975 0.83119 0.69295 0.0
C1613 C 1.02596 0.80821 0.69391 0.0
H1614 H 0.12949 0.7504 0.69241 0.0
C1615 C 1.04352 0.85598 0.69382 0.0
C1616 C 0.0924 0.86718 0.69358 0.0
H1617 H 0.98817 0.8033 0.69452 0.0
H1618 H 1.01832 0.88428 0.69444 0.0
C1619 C 0.1219 0.82637 0.69305 0.0
C1620 C 0.52815 0.79159 0.95314 0.0
C1621 C 0.51649 0.84004 0.95332 0.0
H1622 H 0.58133 0.73681 0.9539 0.0
C1623 C 0.5576 0.86949 0.95303 0.0
H1624 H 0.49977 0.76639 0.95317 0.0
C1625 C 0.60584 0.85223 0.95262 0.0
C1626 C 0.61751 0.80376 0.95321 0.0
H1627 H 0.55257 0.90705 0.95313 0.0
H1628 H 0.63419 0.87744 0.9522 0.0
C1629 C 0.57637 0.77435 0.95345 0.0
C1630 C 0.53152 0.30381 0.19194 0.0
C1631 C 0.56195 0.26356 0.19195 0.0
H1632 H 0.52208 0.37978 0.19189 0.0
C1633 C 0.61053 0.27571 0.19168 0.0
H1634 H 0.49381 0.29816 0.19231 0.0
C1635 C 0.62697 0.32381 0.19179 0.0
C1636 C 0.59656 0.36408 0.19174 0.0
H1637 H 0.63641 0.2479 0.1919 0.0
H1638 H 0.66469 0.32944 0.19203 0.0
C1639 C 0.54795 0.35194 0.19165 0.0
C1640 C 1.03498 0.84452 0.30582 0.0
C1641 C 1.02373 0.79595 0.30592 0.0
H1642 H 0.08751 0.89984 0.30464 0.0
C1643 C 1.0651 0.76689 0.30613 0.0
H1644 H 1.00639 0.86948 0.30595 0.0
C1645 C 0.11319 0.7847 0.30619 0.0
C1646 C 0.12435 0.8333 0.30539 0.0
H1647 H 1.06042 0.72929 0.30626 0.0
H1648 H 0.14182 0.7598 0.30652 0.0
C1649 C 0.08295 0.86226 0.30522 0.0
C1650 C 0.60646 0.86316 0.567 0.0
C1651 C 0.55741 0.87262 0.56784 0.0
H1652 H 0.66322 0.81247 0.56536 0.0
C1653 C 0.52899 0.83113 0.56846 0.0
H1654 H 0.63063 0.89228 0.56635 0.0
C1655 C 0.54796 0.78408 0.56825 0.0
C1656 C 0.59699 0.77468 0.56696 0.0
H1657 H 0.49106 0.83492 0.56901 0.0
H1658 H 0.52372 0.75493 0.56867 0.0
C1659 C 0.62536 0.81619 0.5664 0.0
C1660 C 0.61722 0.29047 0.80729 0.0
C1661 C 0.62977 0.33825 0.80493 0.0
H1662 H 0.56341 0.23638 0.8081 0.0
C1663 C 0.58931 0.36792 0.80266 0.0
H1664 H 0.64504 0.26532 0.8094 0.0
C1665 C 0.5408 0.3513 0.80261 0.0
C1666 C 0.52849 0.30319 0.80444 0.0
H1667 H 0.59507 0.40499 0.80075 0.0
H1668 H 0.51288 0.37648 0.80058 0.0
C1669 C 0.56897 0.27367 0.80672 0.0
C1670 C 0.11768 0.31002 1.06697 0.0
C1671 C 0.0877 0.2695 1.06678 0.0
H1672 H 0.12618 0.38608 1.06728 0.0
C1673 C 1.03897 0.2819 1.06657 0.0
H1674 H 0.15543 0.30463 1.06711 0.0
C1675 C 1.02186 0.32996 1.06638 0.0
C1676 C 1.05175 0.37051 1.06662 0.0
H1677 H 1.01338 0.25403 1.06643 0.0
H1678 H 0.9841 0.33526 1.06603 0.0
C1679 C 0.10055 0.35818 1.06702 0.0
C1680 C 0.07643 0.77526 0.81669 0.0
C1681 C 0.11773 0.80424 0.81588 0.0
H1682 H 0.99979 0.76834 0.81723 0.0
C1683 C 0.10687 0.85276 0.81495 0.0
H1684 H 0.08105 0.73769 0.81729 0.0
C1685 C 1.05898 0.87053 0.81453 0.0
C1686 C 1.01768 0.84157 0.81534 0.0
H1687 H 0.13557 0.87748 0.81406 0.0
H1688 H 1.05439 0.90802 0.81344 0.0
C1689 C 1.02853 0.79309 0.81664 0.0
C1690 C 0.10317 0.27871 0.55642 0.0
C1691 C 1.05436 0.26723 0.55657 0.0
H1692 H 0.15827 0.33149 0.55531 0.0
C1693 C 1.02471 0.30804 0.55693 0.0
H1694 H 0.12854 0.2505 0.55624 0.0
C1695 C 1.04209 0.3559 0.55711 0.0
C1696 C 0.09086 0.36737 0.55629 0.0
H1697 H 0.98688 0.30307 0.55703 0.0
H1698 H 1.01672 0.38409 0.55751 0.0
C1699 C 0.12049 0.32655 0.55597 0.0
C1700 C 0.61157 0.35236 0.31857 0.0
C1701 C 0.62264 0.30369 0.31834 0.0
H1702 H 0.55894 0.40793 0.3184 0.0
C1703 C 0.58142 0.2747 0.31816 0.0
H1704 H 0.64026 0.37713 0.31882 0.0
C1705 C 0.53356 0.29265 0.31824 0.0
C1706 C 0.52244 0.34127 0.31822 0.0
H1707 H 0.58602 0.2371 0.31797 0.0
H1708 H 0.50487 0.26788 0.31824 0.0
C1709 C 0.56363 0.37034 0.31839 0.0
C1710 C 0.6263 0.82305 1.05534 0.0
C1711 C 0.59673 0.86378 1.05462 0.0
H1712 H 0.63385 0.7471 1.05641 0.0
C1713 C 0.54791 0.85277 1.05427 0.0
H1714 H 0.66414 0.82792 1.05564 0.0
C1715 C 0.53042 0.80512 1.05391 0.0
C1716 C 0.56 0.76437 1.0545 0.0
H1717 H 0.52275 0.88114 1.05378 0.0
H1718 H 0.49265 0.80027 1.05306 0.0
C1719 C 0.60872 0.77543 1.05564 0.0
C1720 C 0.08829 0.36143 0.94171 0.0
C1721 C 0.13013 0.33308 0.94176 0.0
H1722 H 1.01148 0.36719 0.94178 0.0
C1723 C 0.12026 0.28431 0.94168 0.0
H1724 H 0.09224 0.39911 0.94189 0.0
C1725 C 1.0727 0.26573 0.94189 0.0
C1726 C 1.03084 0.29405 0.94186 0.0
H1727 H 0.14949 0.25996 0.94193 0.0
H1728 H 1.06878 0.22805 0.94221 0.0
C1729 C 1.0407 0.34284 0.9416 0.0
C1730 C 0.59878 0.36719 0.70594 0.0
C1731 C 0.55062 0.37931 0.70343 0.0
H1732 H 0.65271 0.31386 0.70895 0.0
C1733 C 0.52106 0.3389 0.70119 0.0
H1734 H 0.62402 0.39506 0.70785 0.0
C1735 C 0.53809 0.29081 0.70131 0.0
C1736 C 0.58614 0.2787 0.70428 0.0
H1737 H 0.48371 0.34439 0.69924 0.0
H1738 H 0.51294 0.26294 0.6993 0.0
C1739 C 0.61553 0.31918 0.70656 0.0
C1740 C 0.58007 0.86833 0.44279 0.0
C1741 C 0.62098 0.83883 0.44314 0.0
H1742 H 0.5036 0.87597 0.44231 0.0
C1743 C 0.60989 0.79039 0.4433 0.0
H1744 H 0.58504 0.9059 0.44278 0.0
C1745 C 0.56195 0.77307 0.44352 0.0
C1746 C 0.52104 0.80255 0.44315 0.0
H1747 H 0.6384 0.76543 0.44374 0.0
H1748 H 0.557 0.73554 0.4441 0.0
C1749 C 0.53213 0.85098 0.44255 0.0
C1750 C 0.09549 0.85716 0.20231 0.0
C1751 C 1.04617 0.86581 0.20337 0.0
H1752 H 0.15406 0.80799 0.20231 0.0
C1753 C 1.01921 0.82327 0.20403 0.0
H1754 H 0.11891 0.88674 0.20172 0.0
C1755 C 1.03963 0.77658 0.20366 0.0
C1756 C 0.08908 0.76803 0.20323 0.0
H1757 H 0.98123 0.82589 0.20492 0.0
H1758 H 1.01616 0.74694 0.20417 0.0
C1759 C 0.116 0.81055 0.20258 0.0
C1760 C 0.2782 0.27955 0.38836 0.0
C1761 C 0.30988 0.28476 0.40226 0.0
H1762 H 0.26246 0.29101 0.36168 0.0
C1763 C 0.35308 0.30697 0.39768 0.0
H1764 H 0.24437 0.26318 0.3906 0.0
C1765 C 0.36388 0.3227 0.38077 0.0
C1766 C 0.33215 0.31836 0.36691 0.0
H1767 H 0.37945 0.31225 0.40735 0.0
H1768 H 0.39776 0.33905 0.37862 0.0
C1769 C 0.28882 0.29593 0.37139 0.0
C1770 C 1.03718 0.10091 0.62227 0.0
C1771 C 1.05497 0.0794 0.60733 0.0
H1772 H 1.03838 0.10779 0.64966 0.0
C1773 C 0.09155 1.04609 0.6107 0.0
H1774 H 1.00942 0.12668 0.62106 0.0
C1775 C 0.10886 1.03516 0.62748 0.0
C1776 C 0.09096 1.05646 0.64244 0.0
H1777 H 0.10746 1.02797 0.60014 0.0
H1778 H 0.13661 1.00937 0.62867 0.0
C1779 C 1.05432 0.08976 0.63908 0.0
C1780 C 0.34799 0.86016 0.88787 0.0
C1781 C 0.32865 0.83926 0.90269 0.0
H1782 H 0.35367 0.86228 0.86046 0.0
C1783 C 0.29813 0.80062 0.89905 0.0
H1784 H 0.37158 0.88967 0.8893 0.0
C1785 C 0.28778 0.78427 0.88211 0.0
C1786 C 0.30695 0.80526 0.86728 0.0
H1787 H 0.28181 0.78233 0.9095 0.0
H1788 H 0.26417 0.75478 0.88069 0.0
C1789 C 0.33744 0.84395 0.87092 0.0
C1790 C 0.59726 1.0368 0.13735 0.0
C1791 C 0.56381 0.07316 0.14081 0.0
H1792 H 0.63971 0.99747 1.11924 0.0
C1793 C 0.54915 0.0975 1.126 0.0
H1794 H 0.6106 1.01636 0.14782 0.0
C1795 C 0.56642 0.08642 1.10925 0.0
C1796 C 0.59987 1.05013 1.10576 0.0
H1797 H 0.52396 0.12571 1.1273 0.0
H1798 H 0.55303 0.1069 1.09879 0.0
C1799 C 0.61452 1.02568 1.12056 0.0
C1800 C 0.35349 0.78618 0.37726 0.0
C1801 C 0.33127 0.80464 0.39197 0.0
H1802 H 0.36219 0.7861 0.34998 0.0
C1803 C 0.29797 0.84088 0.38817 0.0
H1804 H 0.37936 0.75866 0.37879 0.0
C1805 C 0.28772 0.85712 0.37116 0.0
C1806 C 0.31015 0.83864 0.35647 0.0
H1807 H 0.27929 0.85721 0.39853 0.0
H1808 H 0.26185 0.88462 0.36958 0.0
C1809 C 0.34341 0.80248 0.36031 0.0
C1810 C 0.61042 0.10822 0.63844 0.0
C1811 C 0.58936 0.08963 0.65336 0.0
H1812 H 0.61307 0.11188 0.61097 0.0
C1813 C 0.55105 1.05846 0.64988 0.0
H1814 H 0.63972 0.13221 0.63975 0.0
C1815 C 0.53511 1.04679 0.63303 0.0
C1816 C 0.55626 1.06508 0.61809 0.0
H1817 H 0.53268 1.04262 0.66042 0.0
H1818 H 0.50582 1.02277 0.63175 0.0
C1819 C 0.59466 0.09625 0.62154 0.0
C1820 C 0.36521 0.28459 0.8698 0.0
C1821 C 0.34136 0.30014 0.855 0.0
H1822 H 0.37409 0.28774 0.89707 0.0
C1823 C 0.30588 0.33454 0.85843 0.0
H1824 H 0.39274 0.25861 0.86851 0.0
C1825 C 0.29503 0.35189 0.87517 0.0
C1826 C 0.31871 0.33626 0.88998 0.0
H1827 H 0.28593 0.34862 0.84794 0.0
H1828 H 0.26748 0.37786 0.87645 0.0
C1829 C 0.35421 0.30183 0.88657 0.0
C1830 C 1.0696 0.10754 1.13052 0.0
C1831 C 1.06411 0.07703 1.11642 0.0
H1832 H 1.06085 0.12138 0.15731 0.0
C1833 C 1.04122 1.03398 1.12075 0.0
H1834 H 0.08637 0.14112 1.12853 0.0
C1835 C 1.02549 1.02254 0.13776 0.0
C1836 C 1.03191 1.05298 0.1519 0.0
H1837 H 1.03542 1.00847 1.11087 0.0
H1838 H 1.00877 0.98898 0.13984 0.0
C1839 C 1.05461 0.09588 0.14747 0.0
C1840 C 0.83896 0.83871 0.89807 0.0
C1841 C 0.80475 0.80311 0.90156 0.0
H1842 H 0.87609 0.88302 0.87998 0.0
C1843 C 0.78198 0.78631 0.88669 0.0
H1844 H 0.85807 0.85383 0.90856 0.0
C1845 C 0.79284 0.80342 0.86984 0.0
C1846 C 0.82702 0.8391 0.86637 0.0
H1847 H 0.75545 0.75934 0.88798 0.0
H1848 H 0.77386 0.78823 0.85934 0.0
C1849 C 0.84955 0.85604 0.88126 0.0
C1850 C 0.79745 0.33322 0.39774 0.0
C1851 C 0.84213 0.35275 0.40214 0.0
H1852 H 0.75061 0.30294 0.37894 0.0
C1853 C 0.87401 0.35486 0.38819 0.0
H1854 H 0.7708 0.3304 0.40746 0.0
C1855 C 0.86216 0.33833 0.37135 0.0
C1856 C 0.81737 0.31866 0.36703 0.0
H1857 H 0.90892 0.36895 0.39028 0.0
H1858 H 0.88876 0.34097 0.3616 0.0
C1859 C 0.78552 0.31715 0.38095 0.0
C1860 C 0.79298 0.3294 0.86921 0.0
C1861 C 0.82234 0.32112 0.85493 0.0
H1862 H 0.77917 0.32051 0.89599 0.0
C1863 C 0.86324 0.29383 0.85886 0.0
H1864 H 0.76107 0.3496 0.86749 0.0
C1865 C 0.87387 0.27643 0.87567 0.0
C1866 C 0.8445 0.28511 0.88997 0.0
H1867 H 0.88765 0.28567 0.84877 0.0
H1868 H 0.90581 0.25631 0.87745 0.0
C1869 C 0.80369 0.31228 0.88596 0.0
C1870 C 0.85504 0.81963 0.38697 0.0
C1871 C 0.81066 0.83946 0.39165 0.0
H1872 H 0.9006 0.78833 0.36788 0.0
C1873 C 0.77803 0.84115 0.37794 0.0
H1874 H 0.88231 0.81746 0.39648 0.0
C1875 C 0.78869 0.8238 0.36113 0.0
C1876 C 0.83306 0.80374 0.3565 0.0
H1877 H 0.74331 0.85552 0.38022 0.0
H1878 H 0.76148 0.8263 0.3516 0.0
C1879 C 0.86587 0.80269 0.37015 0.0
C1880 C 0.61456 0.53013 1.12443 0.0
C1881 C 0.59794 0.55265 0.13933 0.0
H1882 H 0.61218 0.52235 1.09711 0.0
C1883 C 0.56257 0.58724 0.136 0.0
H1884 H 0.6413 0.50332 1.12564 0.0
C1885 C 0.54533 0.59845 1.11924 0.0
C1886 C 0.56191 0.57588 1.10434 0.0
H1887 H 0.54767 0.60621 0.14655 0.0
H1888 H 0.51857 0.62525 1.11802 0.0
C1889 C 0.59729 0.54131 1.10767 0.0
C1890 C 0.099 0.54568 0.63903 0.0
C1891 C 1.05982 0.57574 0.64259 0.0
H1892 H 0.14498 0.51143 0.62069 0.0
C1893 C 1.03829 0.59406 0.62774 0.0
H1894 H 0.11775 0.53013 0.64953 0.0
C1895 C 1.05471 0.5835 0.61083 0.0
C1896 C 0.09376 0.55334 0.60724 0.0
H1897 H 1.00843 0.61733 0.62911 0.0
H1898 H 1.0361 0.59932 0.60035 0.0
C1899 C 0.1151 0.53466 0.62209 0.0
C1900 C 0.0828 0.54102 0.14657 0.0
C1901 C 0.10359 0.58463 0.15129 0.0
H1902 H 1.0517 0.49601 1.12742 0.0
C1903 C 0.10724 0.61663 0.13746 0.0
H1904 H 0.07893 0.5143 0.15615 0.0
C1905 C 0.09085 0.60591 1.12048 0.0
C1906 C 1.06977 0.56221 1.11586 0.0
H1907 H 0.12245 0.65077 0.13976 0.0
H1908 H 0.09471 0.63255 1.11085 0.0
C1909 C 1.06687 0.53021 1.12965 0.0
C1910 C 0.58599 0.61133 0.64826 0.0
C1911 C 0.56399 0.56799 0.6527 0.0
H1912 H 0.62012 0.65544 0.62936 0.0
C1913 C 0.56161 0.5358 0.63899 0.0
H1914 H 0.58946 0.63798 0.65789 0.0
C1915 C 0.57919 0.54625 0.62224 0.0
C1916 C 0.60127 0.58948 0.61777 0.0
H1917 H 0.54558 0.50193 0.64113 0.0
H1918 H 0.57561 0.5196 0.61262 0.0
C1919 C 0.60415 0.62157 0.63153 0.0
C1920 C 0.37477 0.17892 0.51701 0.0
C1921 C 0.36792 0.16965 0.49922 0.0
H1922 H 0.40607 0.16166 0.5416 0.0
C1923 C 0.39279 0.12877 0.49406 0.0
H1924 H 0.3581 0.20961 0.52224 0.0
C1925 C 0.42119 0.10051 0.50563 0.0
C1926 C 0.42803 0.10972 0.52341 0.0
H1927 H 0.39026 0.11792 0.48101 0.0
H1928 H 0.43851 1.07026 0.50037 0.0
C1929 C 0.40328 0.15068 0.52857 0.0
C1930 C 0.27411 0.18384 0.74151 0.0
C1931 C 0.28355 0.17556 0.75925 0.0
H1932 H 0.2412 0.16428 0.71738 0.0
C1933 C 0.26191 0.13306 0.76472 0.0
H1934 H 0.28811 0.2155 0.73601 0.0
C1935 C 0.23416 0.1027 0.75356 0.0
C1936 C 0.22461 0.11097 0.73584 0.0
H1937 H 0.26661 0.12245 0.77773 0.0
H1938 H 0.21969 0.07138 0.75912 0.0
C1939 C 0.2462 0.15353 0.73036 0.0
C1940 C 0.23653 0.98654 1.02806 0.0
C1941 C 0.20417 1.02109 1.02211 0.0
H1942 H 0.28887 0.9328 1.02291 0.0
C1943 C 0.20508 1.02347 1.00381 0.0
H1944 H 0.2394 0.98116 1.04155 0.0
C1945 C 0.23484 0.99495 0.99261 0.0
C1946 C 0.26738 0.96047 0.99858 0.0
H1947 H 0.18196 1.04862 0.99781 0.0
H1948 H 0.23214 1.00048 0.97913 0.0
C1949 C 0.26619 0.95803 1.01687 0.0
C1950 C 0.40381 0.99281 0.26565 0.0
C1951 C 0.37044 0.95908 0.25975 0.0
H1952 H 0.45737 1.04547 0.26043 0.0
C1953 C 0.3704 0.95794 0.24142 0.0
H1954 H 0.40772 0.99727 0.27914 0.0
C1955 C 0.39982 0.98682 0.23017 0.0
C1956 C 0.43317 1.02057 0.23609 0.0
H1957 H 0.347 0.93336 0.23539 0.0
H1958 H 0.39614 0.98217 0.21668 0.0
C1959 C 0.43323 1.02163 0.25441 0.0
C1960 C 0.73102 0.99641 0.77855 0.0
C1961 C 0.77216 0.97223 0.77288 0.0
H1962 H 0.67039 1.04074 0.77306 0.0
C1963 C 0.7793 0.97967 0.75496 0.0
H1964 H 0.72118 0.99326 0.79171 0.0
C1965 C 0.74931 1.00792 0.74382 0.0
C1966 C 0.70827 1.03221 0.74947 0.0
H1967 H 0.80935 0.96296 0.74921 0.0
H1968 H 0.75899 1.01079 0.73064 0.0
C1969 C 0.701 1.02473 0.76739 0.0
C1970 C 0.89521 0.99149 0.51675 0.0
C1971 C 0.92853 1.02529 0.51089 0.0
H1972 H 0.84239 0.93828 0.51139 0.0
C1973 C 0.92872 1.02696 0.49259 0.0
H1974 H 0.89162 0.98642 0.53023 0.0
C1975 C 0.89918 0.99862 0.48129 0.0
C1976 C 0.8658 0.96488 0.48716 0.0
H1977 H 0.95301 1.05085 0.48665 0.0
H1978 H 0.90296 1.00346 0.4678 0.0
C1979 C 0.86577 0.96308 0.50545 0.0
C1980 C 0.92419 0.11558 0.26643 0.0
C1981 C 0.91865 0.11203 0.2483 0.0
H1982 H 0.90447 0.14498 0.29107 0.0
C1983 C 0.88208 0.1425 0.24254 0.0
H1984 H 0.95135 0.09461 0.27222 0.0
C1985 C 0.85441 0.17266 0.25383 0.0
C1986 C 0.85986 0.17597 0.27198 0.0
H1987 H 0.87436 0.14337 0.22916 0.0
H1988 H 0.82797 0.19452 0.248 0.0
C1989 C 0.89657 0.1457 0.2777 0.0
C1990 C 0.76563 0.1289 1.01507 0.0
C1991 C 0.72448 0.10449 1.00964 0.0
H1992 H 0.82584 0.17313 1.00913 0.0
C1993 C 0.71722 0.11033 0.99167 0.0
H1994 H 0.7752 0.12715 1.02828 0.0
C1995 C 0.7474 0.1373 0.98022 0.0
C1996 C 0.78855 0.16168 0.98565 0.0
H1997 H 0.68645 0.09416 0.98621 0.0
H1998 H 0.73755 0.13948 0.96705 0.0
C1999 C 0.79574 0.15596 1.00362 0.0
C2000 C 0.89087 0.63584 0.9917 0.0
C2001 C 0.86619 0.67683 0.99724 0.0
H2002 H 0.9366 0.57619 0.99718 0.0
C2003 C 0.87423 0.68413 1.01514 0.0
H2004 H 0.88794 0.62597 0.97856 0.0
C2005 C 0.90292 0.65443 1.02634 0.0
C2006 C 0.92732 0.61331 1.02086 0.0
H2007 H 0.85824 0.71458 1.02081 0.0
H2008 H 0.90595 0.6644 1.03948 0.0
C2009 C 0.91963 0.60608 1.00292 0.0
C2010 C 0.75563 0.64602 0.22885 0.0
C2011 C 0.72716 0.60773 0.2345 0.0
H2012 H 0.80232 0.70464 0.23451 0.0
C2013 C 0.72938 0.6039 0.25273 0.0
H2014 H 0.75685 0.65329 0.21544 0.0
C2015 C 0.75643 0.63425 0.26415 0.0
C2016 C 0.78492 0.67249 0.25854 0.0
H2017 H 0.70918 0.57632 0.25854 0.0
H2018 H 0.75481 0.62717 0.27756 0.0
C2019 C 0.78282 0.67643 0.24028 0.0
C2020 C 0.78066 0.46397 0.51643 0.0
C2021 C 0.78976 0.47374 0.49879 0.0
H2022 H 0.74842 0.48174 0.54084 0.0
C2023 C 0.76855 0.51689 0.49382 0.0
H2024 H 0.79432 0.43166 0.52153 0.0
C2025 C 0.74143 0.54656 0.50538 0.0
C2026 C 0.73223 0.53674 0.52301 0.0
H2027 H 0.77299 0.52849 0.48092 0.0
H2028 H 0.7272 0.57854 0.50024 0.0
C2029 C 0.7534 0.49358 0.52798 0.0
C2030 C 0.90448 0.49039 0.76544 0.0
C2031 C 0.87408 0.45454 0.75923 0.0
H2032 H 0.95456 0.54647 0.76067 0.0
C2033 C 0.87585 0.45237 0.74096 0.0
H2034 H 0.90634 0.49578 0.77894 0.0
C2035 C 0.90447 0.48255 0.72998 0.0
C2036 C 0.9346 0.51864 0.73622 0.0
H2037 H 0.85473 0.42602 0.7348 0.0
H2038 H 0.90265 0.47719 0.71647 0.0
C2039 C 0.9329 0.52061 0.75448 0.0
C2040 C 0.28274 0.4625 0.25418 0.0
C2041 C 0.27829 0.46118 0.27242 0.0
H2042 H 0.2625 0.49019 0.2293 0.0
C2043 C 0.24287 0.49304 0.27801 0.0
H2044 H 0.30851 0.43949 0.24846 0.0
C2045 C 0.21542 0.52272 0.26651 0.0
C2046 C 0.2202 0.5246 0.24832 0.0
H2047 H 0.23582 0.49533 0.29141 0.0
H2048 H 0.18894 0.54466 0.27219 0.0
C2049 C 0.2555 0.49251 0.24271 0.0
C2050 C 0.39591 0.49942 1.01357 0.0
C2051 C 0.43723 0.5235 1.00812 0.0
H2052 H 0.33522 0.45593 1.00768 0.0
C2053 C 0.44449 0.51764 0.99014 0.0
H2054 H 0.38625 0.50139 1.02677 0.0
C2055 C 0.4142 0.4907 0.97873 0.0
C2056 C 0.37282 0.46668 0.98419 0.0
H2057 H 0.4752 0.53388 0.98461 0.0
H2058 H 0.424 0.48844 0.96555 0.0
C2059 C 0.36558 0.47264 1.00215 0.0
C2060 C 0.38947 0.64569 0.74376 0.0
C2061 C 0.42967 0.62018 0.74947 0.0
H2062 H 0.32973 0.69095 0.74917 0.0
C2063 C 0.43577 0.62562 0.76754 0.0
H2064 H 0.38076 0.64438 0.73046 0.0
C2065 C 0.40537 0.65334 0.77875 0.0
C2066 C 0.36507 0.67875 0.77299 0.0
H2067 H 0.46558 0.60841 0.77331 0.0
H2068 H 0.41417 0.65496 0.79203 0.0
C2069 C 0.3591 0.67321 0.75496 0.0
C2070 C 0.25257 0.64235 0.51651 0.0
C2071 C 0.21556 0.61251 0.51067 0.0
H2072 H 0.30838 0.69267 0.51126 0.0
C2073 C 0.21161 0.61552 0.49242 0.0
H2074 H 0.25949 0.64359 0.52994 0.0
C2075 C 0.24086 0.64456 0.48118 0.0
C2076 C 0.27787 0.67438 0.48703 0.0
H2077 H 0.18436 0.59504 0.48647 0.0
H2078 H 0.2338 0.64354 0.46776 0.0
C2079 C 0.28178 0.67141 0.50528 0.0
C2080 C 0.09751 0.1216 0.37774 0.0
C2081 C 0.10151 0.09337 0.39222 0.0
H2082 H 0.10366 0.12282 0.35098 0.0
C2083 C 0.09011 1.04568 0.39089 0.0
H2084 H 0.10326 0.15903 0.37854 0.0
C2085 C 0.08795 1.02498 0.37496 0.0
C2086 C 0.09934 1.0517 0.36059 0.0
H2087 H 0.09073 1.02301 0.40184 0.0
H2088 H 0.0862 0.98716 0.37421 0.0
C2089 C 0.09726 0.10071 0.36184 0.0
C2090 C 0.25844 0.82464 0.62552 0.0
C2091 C 0.2867 0.8195 0.64 0.0
H2092 H 0.2588 0.83672 0.59914 0.0
C2093 C 0.33112 0.79835 0.63809 0.0
H2094 H 0.22289 0.83818 0.62631 0.0
C2095 C 0.35184 0.79674 0.62208 0.0
C2096 C 0.32853 0.81819 0.60841 0.0
H2097 H 0.3527 0.79065 0.64903 0.0
H2098 H 0.38887 0.78789 0.62119 0.0
C2099 C 0.2794 0.82365 0.60963 0.0
C2100 C 0.54813 1.03753 0.86482 0.0
C2101 C 0.54618 0.08661 0.86383 0.0
H2102 H 0.53922 0.97826 0.88092 0.0
C2103 C 0.55448 0.11257 0.87862 0.0
H2104 H 0.54404 1.016 0.85367 0.0
C2105 C 0.54934 0.09097 0.89432 0.0
C2106 C 0.53813 1.04313 0.89507 0.0
H2107 H 0.55623 0.15043 0.87816 0.0
H2108 H 0.54654 0.11302 0.90539 0.0
C2109 C 0.54486 1.01575 0.88053 0.0
C2110 C 0.21029 1.05037 0.16969 0.0
C2111 C 0.1799 0.08401 0.16281 0.0
H2112 H 0.26137 1.03628 0.18841 0.0
C2113 C 0.16328 0.12025 0.17322 0.0
H2114 H 0.22277 1.02108 0.16225 0.0
C2115 C 0.1854 0.12894 0.18863 0.0
C2116 C 0.2248 0.10203 0.19332 0.0
H2117 H 0.1384 0.14573 0.16843 0.0
H2118 H 0.17706 0.16096 0.19531 0.0
C2119 C 0.23272 1.05934 0.18489 0.0
C2120 C 0.09466 0.07632 0.86693 0.0
C2121 C 1.07321 1.03213 0.86551 0.0
H2122 H 0.10984 0.13269 0.88378 0.0
C2123 C 1.07289 1.00308 0.87988 0.0
H2124 H 0.09908 0.09846 0.85594 0.0
C2125 C 0.07891 1.02282 0.89579 0.0
C2126 C 0.08412 0.07159 0.89719 0.0
H2127 H 1.05951 0.96766 0.8794 0.0
H2128 H 1.0695 1.0015 0.90657 0.0
C2129 C 0.10109 0.09586 0.88294 0.0
C2130 C 0.78138 0.30466 0.63204 0.0
C2131 C 0.80702 0.29511 0.64685 0.0
H2132 H 0.78163 0.2987 0.60522 0.0
C2133 C 0.85648 0.29684 0.64608 0.0
H2134 H 0.74326 0.30662 0.63237 0.0
C2135 C 0.87886 0.29463 0.63043 0.0
C2136 C 0.85166 0.28905 0.61573 0.0
H2137 H 0.87779 0.2918 0.65727 0.0
H2138 H 0.91658 0.28881 0.63012 0.0
C2139 C 0.80356 0.30055 0.61639 0.0
C2140 C 0.75668 0.211 0.43743 0.0
C2141 C 0.78265 0.17229 0.44326 0.0
H2142 H 0.74039 0.25266 0.41578 0.0
C2143 C 0.8255 0.16162 0.43512 0.0
H2144 H 0.72478 0.22169 0.44388 0.0
C2145 C 0.8348 0.17975 0.41922 0.0
C2146 C 0.80138 0.20861 0.41138 0.0
H2147 H 0.84824 0.13378 0.43955 0.0
H2148 H 0.86399 0.16489 0.41223 0.0
C2149 C 0.76554 0.22862 0.4213 0.0
C2150 C 0.84456 0.81831 0.1373 0.0
C2151 C 0.81601 0.83927 0.14974 0.0
H2152 H 0.85595 0.81019 1.11072 0.0
C2153 C 0.76891 0.84946 0.14566 0.0
H2154 H 0.88014 0.80726 0.14024 0.0
C2155 C 0.75477 0.85006 1.12886 0.0
C2156 C 0.7876 0.84057 1.11601 0.0
H2157 H 0.745 0.86428 0.15486 0.0
H2158 H 0.72065 0.86512 1.12601 0.0
C2159 C 0.83072 0.81977 1.12039 0.0
C2160 C 0.84229 0.48593 0.92045 0.0
C2161 C 0.80198 0.47271 0.92968 0.0
H2162 H 0.87417 0.48979 0.89625 0.0
C2163 C 0.77333 0.43692 0.92305 0.0
H2164 H 0.86674 0.51187 0.92515 0.0
C2165 C 0.7774 0.42449 0.90609 0.0
C2166 C 0.81125 0.44646 0.89585 0.0
H2167 H 0.74386 0.42331 0.93023 0.0
H2168 H 0.75099 0.40172 0.90063 0.0
C2169 C 0.84665 0.4732 0.90359 0.0
C2170 C 0.92823 0.56308 0.16926 0.0
C2171 C 0.95767 0.53293 0.16015 0.0
H2172 H 0.88542 0.57123 0.19084 0.0
C2173 C 0.98063 0.49639 0.16876 0.0
H2174 H 0.91088 0.59242 0.16323 0.0
C2175 C 0.96657 0.48443 0.1851 0.0
C2176 C 0.92814 0.50779 0.1925 0.0
H2177 H 1.00482 0.47348 0.16216 0.0
H2178 H 0.97994 0.45236 0.19061 0.0
C2179 C 0.91348 0.5506 0.18532 0.0
C2180 C 0.88004 0.70756 0.42294 0.0
C2181 C 0.85163 0.6731 0.43054 0.0
H2182 H 0.90434 0.73606 0.39957 0.0
C2183 C 0.81229 0.65674 0.42143 0.0
H2184 H 0.90856 0.72378 0.42988 0.0
C2185 C 0.80934 0.66435 0.40415 0.0
C2186 C 0.84496 0.68939 0.39578 0.0
H2187 H 0.78766 0.632 0.42681 0.0
H2188 H 0.78256 0.64534 0.39726 0.0
C2189 C 0.87768 0.71457 0.40552 0.0
C2190 C 0.82685 0.84192 0.62677 0.0
C2191 C 0.78378 0.81884 0.62405 0.0
H2192 H 0.88254 0.85341 0.64442 0.0
C2193 C 0.75483 0.81006 0.63813 0.0
H2194 H 0.84876 0.8522 0.61619 0.0
C2195 C 0.77451 0.81 0.65423 0.0
C2196 C 0.82316 0.818 0.65604 0.0
H2197 H 0.72018 0.7947 0.63671 0.0
H2198 H 0.75391 0.79441 0.66426 0.0
C2199 C 0.84617 0.84259 0.643 0.0
C2200 C 0.39799 0.43103 0.43918 0.0
C2201 C 0.37212 0.46958 0.44518 0.0
H2202 H 0.41175 0.38778 0.4177 0.0
C2203 C 0.32863 0.47999 0.43743 0.0
H2204 H 0.43076 0.42107 0.4452 0.0
C2205 C 0.31756 0.46072 0.42188 0.0
C2206 C 0.34978 0.43087 0.41392 0.0
H2207 H 0.30632 0.5081 0.44192 0.0
H2208 H 0.28756 0.47494 0.41516 0.0
C2209 C 0.3872 0.41212 0.42339 0.0
C2210 C 0.31071 0.79783 1.11461 0.0
C2211 C 0.35869 0.78588 1.11387 0.0
H2212 H 0.25073 0.80476 1.13069 0.0
C2213 C 0.38617 0.79144 1.1285 0.0
H2214 H 0.28862 0.79606 1.10348 0.0
C2215 C 0.36407 0.79411 0.14419 0.0
C2216 C 0.31459 0.79274 0.14507 0.0
H2217 H 0.42385 0.78532 1.12813 0.0
H2218 H 0.38556 0.78905 0.15533 0.0
C2219 C 0.28883 0.80242 1.1303 0.0
C2220 C 0.07617 0.52734 0.86022 0.0
C2221 C 1.07063 0.57621 0.85963 0.0
H2222 H 0.09202 0.46965 0.87602 0.0
C2223 C 1.05084 0.59829 0.87386 0.0
H2224 H 0.08819 0.50788 0.84932 0.0
C2225 C 1.05363 0.57614 0.88957 0.0
C2226 C 0.07484 0.53177 0.8907 0.0
H2227 H 1.04225 0.63522 0.87351 0.0
H2228 H 1.04698 0.59657 0.90084 0.0
C2229 C 0.07849 0.50505 0.87583 0.0
C2230 C 0.40767 0.59092 0.58642 0.0
C2231 C 0.42281 0.5518 0.57706 0.0
H2232 H 0.40048 0.62104 0.61073 0.0
C2233 C 0.45863 0.52361 0.584 0.0
H2234 H 0.38168 0.61508 0.58155 0.0
C2235 C 0.46914 0.52675 0.60118 0.0
C2236 C 0.44544 0.55943 0.61136 0.0
H2237 H 0.47375 0.49511 0.5768 0.0
H2238 H 0.49211 0.50071 0.60674 0.0
C2239 C 0.4185 0.59439 0.60348 0.0
loop_
_geom_bond_atom_site_label_1
_geom_bond_atom_site_label_2
_geom_bond_distance
_geom_bond_site_symmetry_2
_ccdc_geom_bond_type
Ho0 C3 2.811 . S
Ho0 O20 2.322 . S
Ho0 O22 2.378 . S
Ho0 O23 2.524 . S
Ho0 O24 2.381 . S
Ho0 O25 2.669 . S
Ho0 O27 2.346 . S
Ho0 O31 2.305 . S
Ho1 C12 2.811 . S
Ho1 O21 2.346 . S
Ho1 O25 2.305 . S
Ho1 O26 2.322 . S
Ho1 O28 2.378 . S
Ho1 O29 2.524 . S
Ho1 O30 2.381 . S
Ho1 O31 2.669 . S
C2 O20 1.259 . S
C2 O21 1.268 . S
C3 Ho0 2.811 . S
C3 C4 1.488 . S
C3 O22 1.215 . S
C3 O23 1.289 . S
C4 C3 1.488 . S
C4 C5 1.348 . S
C4 C9 1.413 . S
C5 C4 1.348 . S
C5 C6 1.442 . S
C5 H32 0.930 . S
C6 C5 1.442 . S
C6 C7 1.381 . S
C6 H33 0.931 . S
C7 C6 1.381 . S
C7 C8 1.321 . S
C8 C7 1.321 . S
C8 C9 1.403 . S
C8 H34 0.934 . S
C9 C4 1.413 . S
C9 C8 1.403 . S
C9 H35 0.930 . S
C10 O24 1.275 . S
C10 O25 1.256 . S
C11 O26 1.259 . S
C11 O27 1.268 . S
C12 Ho1 2.811 . S
C12 C13 1.488 . S
C12 O28 1.215 . S
C12 O29 1.289 . S
C13 C12 1.488 . S
C13 C14 1.348 . S
C13 C18 1.413 . S
C14 C13 1.348 . S
C14 C15 1.442 . S
C14 H36 0.930 . S
C15 C14 1.442 . S
C15 C16 1.381 . S
C15 H37 0.931 . S
C16 C15 1.381 . S
C16 C17 1.321 . S
C17 C16 1.321 . S
C17 C18 1.403 . S
C17 H38 0.934 . S
C18 C13 1.413 . S
C18 C17 1.403 . S
C18 H39 0.930 . S
C19 O30 1.275 . S
C19 O31 1.256 . S
O20 Ho0 2.322 . S
O20 C2 1.259 . S
O21 Ho1 2.346 . S
O21 C2 1.268 . S
O22 Ho0 2.378 . S
O22 C3 1.215 . S
O23 Ho0 2.524 . S
O23 C3 1.289 . S
O24 Ho0 2.381 . S
O24 C10 1.275 . S
O25 Ho0 2.669 . S
O25 Ho1 2.305 . S
O25 C10 1.256 . S
O26 Ho1 2.322 . S
O26 C11 1.259 . S
O27 Ho0 2.346 . S
O27 C11 1.268 . S
O28 Ho1 2.378 . S
O28 C12 1.215 . S
O29 Ho1 2.524 . S
O29 C12 1.289 . S
O30 Ho1 2.381 . S
O30 C19 1.275 . S
O31 Ho0 2.305 . S
O31 Ho1 2.669 . S
O31 C19 1.256 . S
H32 C5 0.930 . S
H33 C6 0.931 . S
H34 C8 0.934 . S
H35 C9 0.930 . S
H36 C14 0.930 . S
H37 C15 0.931 . S
H38 C17 0.934 . S
H39 C18 0.930 . S
Ho40 C43 2.811 . S
Ho40 O60 2.322 1_655 S
Ho40 O62 2.378 . S
Ho40 O63 2.524 . S
Ho40 O64 2.381 1_665 S
Ho40 O65 2.669 1_655 S
Ho40 O67 2.346 . S
Ho40 O71 2.305 1_655 S
Ho41 C52 2.811 . S
Ho41 O61 2.346 . S
Ho41 O65 2.305 . S
Ho41 O66 2.322 . S
Ho41 O68 2.378 . S
Ho41 O69 2.524 . S
Ho41 O70 2.381 . S
Ho41 O71 2.669 . S
C42 O60 1.259 . S
C42 O61 1.268 . S
C43 Ho40 2.811 . S
C43 C44 1.488 . S
C43 O62 1.215 . S
C43 O63 1.289 . S
C44 C43 1.488 . S
C44 C45 1.348 . S
C44 C49 1.413 . S
C45 C44 1.348 . S
C45 C46 1.442 . S
C45 H72 0.930 . S
C46 C45 1.442 . S
C46 C47 1.381 . S
C46 H73 0.931 . S
C47 C46 1.381 . S
C47 C48 1.321 . S
C48 C47 1.321 . S
C48 C49 1.403 . S
C48 H74 0.934 . S
C49 C44 1.413 . S
C49 C48 1.403 . S
C49 H75 0.930 . S
C50 O64 1.275 . S
C50 O65 1.256 1_545 S
C51 O66 1.259 . S
C51 O67 1.268 1_455 S
C52 Ho41 2.811 . S
C52 C53 1.488 . S
C52 O68 1.215 . S
C52 O69 1.289 . S
C53 C52 1.488 . S
C53 C54 1.348 1_565 S
C53 C58 1.413 . S
C54 C53 1.348 1_545 S
C54 C55 1.442 . S
C54 H76 0.930 . S
C55 C54 1.442 . S
C55 C56 1.381 1_545 S
C55 H77 0.931 . S
C56 C55 1.381 1_565 S
C56 C57 1.321 . S
C57 C56 1.321 . S
C57 C58 1.403 . S
C57 H78 0.934 . S
C58 C53 1.413 . S
C58 C57 1.403 . S
C58 H79 0.930 . S
C59 O70 1.275 . S
C59 O71 1.256 . S
O60 Ho40 2.322 1_455 S
O60 C42 1.259 . S
O61 Ho41 2.346 . S
O61 C42 1.268 . S
O62 Ho40 2.378 . S
O62 C43 1.215 . S
O63 Ho40 2.524 . S
O63 C43 1.289 . S
O64 Ho40 2.381 1_445 S
O64 C50 1.275 . S
O65 Ho40 2.669 1_455 S
O65 Ho41 2.305 . S
O65 C50 1.256 1_565 S
O66 Ho41 2.322 . S
O66 C51 1.259 . S
O67 Ho40 2.346 . S
O67 C51 1.268 1_655 S
O68 Ho41 2.378 . S
O68 C52 1.215 . S
O69 Ho41 2.524 . S
O69 C52 1.289 . S
O70 Ho41 2.381 . S
O70 C59 1.275 . S
O71 Ho40 2.305 1_455 S
O71 Ho41 2.669 . S
O71 C59 1.256 . S
H72 C45 0.930 . S
H73 C46 0.931 . S
H74 C48 0.934 . S
H75 C49 0.930 . S
H76 C54 0.930 . S
H77 C55 0.931 . S
H78 C57 0.934 . S
H79 C58 0.930 . S
Ho80 C83 2.811 . S
Ho80 O100 2.322 . S
Ho80 O102 2.378 . S
Ho80 O103 2.524 . S
Ho80 O104 2.381 . S
Ho80 O105 2.669 . S
Ho80 O107 2.346 . S
Ho80 O111 2.305 . S
Ho81 C92 2.811 . S
Ho81 O101 2.346 . S
Ho81 O105 2.305 . S
Ho81 O106 2.322 . S
Ho81 O108 2.378 . S
Ho81 O109 2.524 . S
Ho81 O110 2.381 . S
Ho81 O111 2.669 . S
C82 O100 1.259 . S
C82 O101 1.268 . S
C83 Ho80 2.811 . S
C83 C84 1.488 . S
C83 O102 1.215 . S
C83 O103 1.289 . S
C84 C83 1.488 . S
C84 C85 1.348 . S
C84 C89 1.413 . S
C85 C84 1.348 . S
C85 C86 1.442 . S
C85 H112 0.930 . S
C86 C85 1.442 . S
C86 C87 1.381 . S
C86 H113 0.931 . S
C87 C86 1.381 . S
C87 C88 1.321 . S
C88 C87 1.321 . S
C88 C89 1.403 . S
C88 H114 0.934 . S
C89 C84 1.413 . S
C89 C88 1.403 . S
C89 H115 0.930 . S
C90 O104 1.275 . S
C90 O105 1.256 . S
C91 O106 1.259 . S
C91 O107 1.268 . S
C92 Ho81 2.811 . S
C92 C93 1.488 . S
C92 O108 1.215 . S
C92 O109 1.289 . S
C93 C92 1.488 . S
C93 C94 1.348 . S
C93 C98 1.413 . S
C94 C93 1.348 . S
C94 C95 1.442 . S
C94 H116 0.930 . S
C95 C94 1.442 . S
C95 C96 1.381 . S
C95 H117 0.931 . S
C96 C95 1.381 . S
C96 C97 1.321 . S
C97 C96 1.321 . S
C97 C98 1.403 . S
C97 H118 0.934 . S
C98 C93 1.413 . S
C98 C97 1.403 . S
C98 H119 0.930 . S
C99 O110 1.275 . S
C99 O111 1.256 . S
O100 Ho80 2.322 . S
O100 C82 1.259 . S
O101 Ho81 2.346 . S
O101 C82 1.268 . S
O102 Ho80 2.378 . S
O102 C83 1.215 . S
O103 Ho80 2.524 . S
O103 C83 1.289 . S
O104 Ho80 2.381 . S
O104 C90 1.275 . S
O105 Ho80 2.669 . S
O105 Ho81 2.305 . S
O105 C90 1.256 . S
O106 Ho81 2.322 . S
O106 C91 1.259 . S
O107 Ho80 2.346 . S
O107 C91 1.268 . S
O108 Ho81 2.378 . S
O108 C92 1.215 . S
O109 Ho81 2.524 . S
O109 C92 1.289 . S
O110 Ho81 2.381 . S
O110 C99 1.275 . S
O111 Ho80 2.305 . S
O111 Ho81 2.669 . S
O111 C99 1.256 . S
H112 C85 0.930 . S
H113 C86 0.931 . S
H114 C88 0.934 . S
H115 C89 0.930 . S
H116 C94 0.930 . S
H117 C95 0.931 . S
H118 C97 0.934 . S
H119 C98 0.930 . S
Ho120 C123 2.811 . S
Ho120 O140 2.322 . S
Ho120 O142 2.378 . S
Ho120 O143 2.524 . S
Ho120 O144 2.381 1_545 S
Ho120 O145 2.669 . S
Ho120 O147 2.346 . S
Ho120 O151 2.305 . S
Ho121 C132 2.811 . S
Ho121 O141 2.346 . S
Ho121 O145 2.305 . S
Ho121 O146 2.322 . S
Ho121 O148 2.378 . S
Ho121 O149 2.524 . S
Ho121 O150 2.381 . S
Ho121 O151 2.669 . S
C122 O140 1.259 . S
C122 O141 1.268 . S
C123 Ho120 2.811 . S
C123 C124 1.488 . S
C123 O142 1.215 . S
C123 O143 1.289 . S
C124 C123 1.488 . S
C124 C125 1.348 . S
C124 C129 1.413 . S
C125 C124 1.348 . S
C125 C126 1.442 . S
C125 H152 0.930 . S
C126 C125 1.442 . S
C126 C127 1.381 . S
C126 H153 0.931 . S
C127 C126 1.381 . S
C127 C128 1.321 . S
C128 C127 1.321 . S
C128 C129 1.403 . S
C128 H154 0.934 . S
C129 C124 1.413 . S
C129 C128 1.403 . S
C129 H155 0.930 . S
C130 O144 1.275 . S
C130 O145 1.256 1_565 S
C131 O146 1.259 . S
C131 O147 1.268 . S
C132 Ho121 2.811 . S
C132 C133 1.488 . S
C132 O148 1.215 . S
C132 O149 1.289 . S
C133 C132 1.488 . S
C133 C134 1.348 1_545 S
C133 C138 1.413 . S
C134 C133 1.348 1_565 S
C134 C135 1.442 . S
C134 H156 0.930 . S
C135 C134 1.442 . S
C135 C136 1.381 1_565 S
C135 H157 0.931 . S
C136 C135 1.381 1_545 S
C136 C137 1.321 . S
C137 C136 1.321 . S
C137 C138 1.403 . S
C137 H158 0.934 . S
C138 C133 1.413 . S
C138 C137 1.403 . S
C138 H159 0.930 . S
C139 O150 1.275 . S
C139 O151 1.256 . S
O140 Ho120 2.322 . S
O140 C122 1.259 . S
O141 Ho121 2.346 . S
O141 C122 1.268 . S
O142 Ho120 2.378 . S
O142 C123 1.215 . S
O143 Ho120 2.524 . S
O143 C123 1.289 . S
O144 Ho120 2.381 1_565 S
O144 C130 1.275 . S
O145 Ho120 2.669 . S
O145 Ho121 2.305 . S
O145 C130 1.256 1_545 S
O146 Ho121 2.322 . S
O146 C131 1.259 . S
O147 Ho120 2.346 . S
O147 C131 1.268 . S
O148 Ho121 2.378 . S
O148 C132 1.215 . S
O149 Ho121 2.524 . S
O149 C132 1.289 . S
O150 Ho121 2.381 . S
O150 C139 1.275 . S
O151 Ho120 2.305 . S
O151 Ho121 2.669 . S
O151 C139 1.256 . S
H152 C125 0.930 . S
H153 C126 0.931 . S
H154 C128 0.934 . S
H155 C129 0.930 . S
H156 C134 0.930 . S
H157 C135 0.931 . S
H158 C137 0.934 . S
H159 C138 0.930 . S
Ho160 C163 2.811 . S
Ho160 O180 2.322 . S
Ho160 O182 2.378 . S
Ho160 O183 2.524 . S
Ho160 O184 2.381 . S
Ho160 O185 2.669 . S
Ho160 O187 2.346 . S
Ho160 O191 2.305 . S
Ho161 C172 2.811 . S
Ho161 O181 2.346 . S
Ho161 O185 2.305 . S
Ho161 O186 2.322 . S
Ho161 O188 2.378 . S
Ho161 O189 2.524 . S
Ho161 O190 2.381 . S
Ho161 O191 2.669 . S
C162 O180 1.259 . S
C162 O181 1.268 . S
C163 Ho160 2.811 . S
C163 C164 1.488 . S
C163 O182 1.215 . S
C163 O183 1.289 . S
C164 C163 1.488 . S
C164 C165 1.348 . S
C164 C169 1.413 . S
C165 C164 1.348 . S
C165 C166 1.442 . S
C165 H192 0.930 . S
C166 C165 1.442 . S
C166 C167 1.381 . S
C166 H193 0.931 . S
C167 C166 1.381 . S
C167 C168 1.321 . S
C168 C167 1.321 . S
C168 C169 1.403 . S
C168 H194 0.934 . S
C169 C164 1.413 . S
C169 C168 1.403 . S
C169 H195 0.930 . S
C170 O184 1.275 . S
C170 O185 1.256 . S
C171 O186 1.259 . S
C171 O187 1.268 . S
C172 Ho161 2.811 . S
C172 C173 1.488 . S
C172 O188 1.215 . S
C172 O189 1.289 . S
C173 C172 1.488 . S
C173 C174 1.348 . S
C173 C178 1.413 . S
C174 C173 1.348 . S
C174 C175 1.442 . S
C174 H196 0.930 . S
C175 C174 1.442 . S
C175 C176 1.381 . S
C175 H197 0.931 . S
C176 C175 1.381 . S
C176 C177 1.321 . S
C177 C176 1.321 . S
C177 C178 1.403 . S
C177 H198 0.934 . S
C178 C173 1.413 . S
C178 C177 1.403 . S
C178 H199 0.930 . S
C179 O190 1.275 . S
C179 O191 1.256 . S
O180 Ho160 2.322 . S
O180 C162 1.259 . S
O181 Ho161 2.346 . S
O181 C162 1.268 . S
O182 Ho160 2.378 . S
O182 C163 1.215 . S
O183 Ho160 2.524 . S
O183 C163 1.289 . S
O184 Ho160 2.381 . S
O184 C170 1.275 . S
O185 Ho160 2.669 . S
O185 Ho161 2.305 . S
O185 C170 1.256 . S
O186 Ho161 2.322 . S
O186 C171 1.259 . S
O187 Ho160 2.346 . S
O187 C171 1.268 . S
O188 Ho161 2.378 . S
O188 C172 1.215 . S
O189 Ho161 2.524 . S
O189 C172 1.289 . S
O190 Ho161 2.381 . S
O190 C179 1.275 . S
O191 Ho160 2.305 . S
O191 Ho161 2.669 . S
O191 C179 1.256 . S
H192 C165 0.930 . S
H193 C166 0.931 . S
H194 C168 0.934 . S
H195 C169 0.930 . S
H196 C174 0.930 . S
H197 C175 0.931 . S
H198 C177 0.934 . S
H199 C178 0.930 . S
Ho200 C203 2.811 . S
Ho200 O220 2.322 . S
Ho200 O222 2.378 . S
Ho200 O223 2.524 . S
Ho200 O224 2.381 1_565 S
Ho200 O225 2.669 . S
Ho200 O227 2.346 . S
Ho200 O231 2.305 . S
Ho201 C212 2.811 . S
Ho201 O221 2.346 . S
Ho201 O225 2.305 . S
Ho201 O226 2.322 . S
Ho201 O228 2.378 . S
Ho201 O229 2.524 . S
Ho201 O230 2.381 . S
Ho201 O231 2.669 . S
C202 O220 1.259 . S
C202 O221 1.268 . S
C203 Ho200 2.811 . S
C203 C204 1.488 . S
C203 O222 1.215 . S
C203 O223 1.289 . S
C204 C203 1.488 . S
C204 C205 1.348 . S
C204 C209 1.413 . S
C205 C204 1.348 . S
C205 C206 1.442 . S
C205 H232 0.930 . S
C206 C205 1.442 . S
C206 C207 1.381 . S
C206 H233 0.931 . S
C207 C206 1.381 . S
C207 C208 1.321 . S
C208 C207 1.321 . S
C208 C209 1.403 . S
C208 H234 0.934 . S
C209 C204 1.413 . S
C209 C208 1.403 . S
C209 H235 0.930 . S
C210 O224 1.275 . S
C210 O225 1.256 1_545 S
C211 O226 1.259 . S
C211 O227 1.268 . S
C212 Ho201 2.811 . S
C212 C213 1.488 . S
C212 O228 1.215 . S
C212 O229 1.289 . S
C213 C212 1.488 . S
C213 C214 1.348 1_565 S
C213 C218 1.413 . S
C214 C213 1.348 1_545 S
C214 C215 1.442 . S
C214 H236 0.930 . S
C215 C214 1.442 . S
C215 C216 1.381 1_545 S
C215 H237 0.931 . S
C216 C215 1.381 1_565 S
C216 C217 1.321 . S
C217 C216 1.321 . S
C217 C218 1.403 . S
C217 H238 0.934 . S
C218 C213 1.413 . S
C218 C217 1.403 . S
C218 H239 0.930 . S
C219 O230 1.275 . S
C219 O231 1.256 . S
O220 Ho200 2.322 . S
O220 C202 1.259 . S
O221 Ho201 2.346 . S
O221 C202 1.268 . S
O222 Ho200 2.378 . S
O222 C203 1.215 . S
O223 Ho200 2.524 . S
O223 C203 1.289 . S
O224 Ho200 2.381 1_545 S
O224 C210 1.275 . S
O225 Ho200 2.669 . S
O225 Ho201 2.305 . S
O225 C210 1.256 1_565 S
O226 Ho201 2.322 . S
O226 C211 1.259 . S
O227 Ho200 2.346 . S
O227 C211 1.268 . S
O228 Ho201 2.378 . S
O228 C212 1.215 . S
O229 Ho201 2.524 . S
O229 C212 1.289 . S
O230 Ho201 2.381 . S
O230 C219 1.275 . S
O231 Ho200 2.305 . S
O231 Ho201 2.669 . S
O231 C219 1.256 . S
H232 C205 0.930 . S
H233 C206 0.931 . S
H234 C208 0.934 . S
H235 C209 0.930 . S
H236 C214 0.930 . S
H237 C215 0.931 . S
H238 C217 0.934 . S
H239 C218 0.930 . S
Ho240 C243 2.811 . S
Ho240 O260 2.322 . S
Ho240 O262 2.378 . S
Ho240 O263 2.524 . S
Ho240 O264 2.381 . S
Ho240 O265 2.669 . S
Ho240 O267 2.346 . S
Ho240 O271 2.305 . S
Ho241 C252 2.811 . S
Ho241 O261 2.346 . S
Ho241 O265 2.305 . S
Ho241 O266 2.322 . S
Ho241 O268 2.378 . S
Ho241 O269 2.524 . S
Ho241 O270 2.381 . S
Ho241 O271 2.669 . S
C242 O260 1.259 . S
C242 O261 1.268 . S
C243 Ho240 2.811 . S
C243 C244 1.488 . S
C243 O262 1.215 . S
C243 O263 1.289 . S
C244 C243 1.488 . S
C244 C245 1.348 . S
C244 C249 1.413 . S
C245 C244 1.348 . S
C245 C246 1.442 . S
C245 H272 0.930 . S
C246 C245 1.442 . S
C246 C247 1.381 . S
C246 H273 0.931 . S
C247 C246 1.381 . S
C247 C248 1.321 . S
C248 C247 1.321 . S
C248 C249 1.403 . S
C248 H274 0.934 . S
C249 C244 1.413 . S
C249 C248 1.403 . S
C249 H275 0.930 . S
C250 O264 1.275 . S
C250 O265 1.256 . S
C251 O266 1.259 . S
C251 O267 1.268 . S
C252 Ho241 2.811 . S
C252 C253 1.488 . S
C252 O268 1.215 . S
C252 O269 1.289 . S
C253 C252 1.488 . S
C253 C254 1.348 . S
C253 C258 1.413 . S
C254 C253 1.348 . S
C254 C255 1.442 . S
C254 H276 0.930 . S
C255 C254 1.442 . S
C255 C256 1.381 . S
C255 H277 0.931 . S
C256 C255 1.381 . S
C256 C257 1.321 . S
C257 C256 1.321 . S
C257 C258 1.403 . S
C257 H278 0.934 . S
C258 C253 1.413 . S
C258 C257 1.403 . S
C258 H279 0.930 . S
C259 O270 1.275 . S
C259 O271 1.256 . S
O260 Ho240 2.322 . S
O260 C242 1.259 . S
O261 Ho241 2.346 . S
O261 C242 1.268 . S
O262 Ho240 2.378 . S
O262 C243 1.215 . S
O263 Ho240 2.524 . S
O263 C243 1.289 . S
O264 Ho240 2.381 . S
O264 C250 1.275 . S
O265 Ho240 2.669 . S
O265 Ho241 2.305 . S
O265 C250 1.256 . S
O266 Ho241 2.322 . S
O266 C251 1.259 . S
O267 Ho240 2.346 . S
O267 C251 1.268 . S
O268 Ho241 2.378 . S
O268 C252 1.215 . S
O269 Ho241 2.524 . S
O269 C252 1.289 . S
O270 Ho241 2.381 . S
O270 C259 1.275 . S
O271 Ho240 2.305 . S
O271 Ho241 2.669 . S
O271 C259 1.256 . S
H272 C245 0.930 . S
H273 C246 0.931 . S
H274 C248 0.934 . S
H275 C249 0.930 . S
H276 C254 0.930 . S
H277 C255 0.931 . S
H278 C257 0.934 . S
H279 C258 0.930 . S
Ho280 C283 2.811 . S
Ho280 O300 2.322 1_655 S
Ho280 O302 2.378 . S
Ho280 O303 2.524 . S
Ho280 O304 2.381 1_645 S
Ho280 O305 2.669 1_655 S
Ho280 O307 2.346 . S
Ho280 O311 2.305 1_655 S
Ho281 C292 2.811 . S
Ho281 O301 2.346 . S
Ho281 O305 2.305 . S
Ho281 O306 2.322 . S
Ho281 O308 2.378 . S
Ho281 O309 2.524 . S
Ho281 O310 2.381 . S
Ho281 O311 2.669 . S
C282 O300 1.259 . S
C282 O301 1.268 . S
C283 Ho280 2.811 . S
C283 C284 1.488 . S
C283 O302 1.215 . S
C283 O303 1.289 . S
C284 C283 1.488 . S
C284 C285 1.348 . S
C284 C289 1.413 . S
C285 C284 1.348 . S
C285 C286 1.442 . S
C285 H312 0.930 . S
C286 C285 1.442 . S
C286 C287 1.381 . S
C286 H313 0.931 . S
C287 C286 1.381 . S
C287 C288 1.321 . S
C288 C287 1.321 . S
C288 C289 1.403 . S
C288 H314 0.934 . S
C289 C284 1.413 . S
C289 C288 1.403 . S
C289 H315 0.930 . S
C290 O304 1.275 . S
C290 O305 1.256 1_565 S
C291 O306 1.259 . S
C291 O307 1.268 1_455 S
C292 Ho281 2.811 . S
C292 C293 1.488 . S
C292 O308 1.215 . S
C292 O309 1.289 . S
C293 C292 1.488 . S
C293 C294 1.348 1_545 S
C293 C298 1.413 . S
C294 C293 1.348 1_565 S
C294 C295 1.442 . S
C294 H316 0.930 . S
C295 C294 1.442 . S
C295 C296 1.381 1_565 S
C295 H317 0.931 . S
C296 C295 1.381 1_545 S
C296 C297 1.321 . S
C297 C296 1.321 . S
C297 C298 1.403 . S
C297 H318 0.934 . S
C298 C293 1.413 . S
C298 C297 1.403 . S
C298 H319 0.930 . S
C299 O310 1.275 . S
C299 O311 1.256 . S
O300 Ho280 2.322 1_455 S
O300 C282 1.259 . S
O301 Ho281 2.346 . S
O301 C282 1.268 . S
O302 Ho280 2.378 . S
O302 C283 1.215 . S
O303 Ho280 2.524 . S
O303 C283 1.289 . S
O304 Ho280 2.381 1_465 S
O304 C290 1.275 . S
O305 Ho280 2.669 1_455 S
O305 Ho281 2.305 . S
O305 C290 1.256 1_545 S
O306 Ho281 2.322 . S
O306 C291 1.259 . S
O307 Ho280 2.346 . S
O307 C291 1.268 1_655 S
O308 Ho281 2.378 . S
O308 C292 1.215 . S
O309 Ho281 2.524 . S
O309 C292 1.289 . S
O310 Ho281 2.381 . S
O310 C299 1.275 . S
O311 Ho280 2.305 1_455 S
O311 Ho281 2.669 . S
O311 C299 1.256 . S
H312 C285 0.930 . S
H313 C286 0.931 . S
H314 C288 0.934 . S
H315 C289 0.930 . S
H316 C294 0.930 . S
H317 C295 0.931 . S
H318 C297 0.934 . S
H319 C298 0.930 . S
Ho320 C323 2.811 . S
Ho320 O340 2.322 . S
Ho320 O342 2.378 . S
Ho320 O343 2.524 . S
Ho320 O344 2.381 . S
Ho320 O345 2.669 . S
Ho320 O347 2.346 . S
Ho320 O351 2.305 . S
Ho321 C332 2.811 . S
Ho321 O341 2.346 . S
Ho321 O345 2.305 . S
Ho321 O346 2.322 . S
Ho321 O348 2.378 . S
Ho321 O349 2.524 . S
Ho321 O350 2.381 . S
Ho321 O351 2.669 . S
C322 O340 1.259 . S
C322 O341 1.268 . S
C323 Ho320 2.811 . S
C323 C324 1.488 . S
C323 O342 1.215 . S
C323 O343 1.289 . S
C324 C323 1.488 . S
C324 C325 1.348 . S
C324 C329 1.413 . S
C325 C324 1.348 . S
C325 C326 1.442 . S
C325 H352 0.930 . S
C326 C325 1.442 . S
C326 C327 1.381 . S
C326 H353 0.931 . S
C327 C326 1.381 . S
C327 C328 1.321 . S
C328 C327 1.321 . S
C328 C329 1.403 . S
C328 H354 0.934 . S
C329 C324 1.413 . S
C329 C328 1.403 . S
C329 H355 0.930 . S
C330 O344 1.275 . S
C330 O345 1.256 . S
C331 O346 1.259 . S
C331 O347 1.268 . S
C332 Ho321 2.811 . S
C332 C333 1.488 . S
C332 O348 1.215 . S
C332 O349 1.289 . S
C333 C332 1.488 . S
C333 C334 1.348 . S
C333 C338 1.413 . S
C334 C333 1.348 . S
C334 C335 1.442 . S
C334 H356 0.930 . S
C335 C334 1.442 . S
C335 C336 1.381 . S
C335 H357 0.931 . S
C336 C335 1.381 . S
C336 C337 1.321 . S
C337 C336 1.321 . S
C337 C338 1.403 . S
C337 H358 0.934 . S
C338 C333 1.413 . S
C338 C337 1.403 . S
C338 H359 0.930 . S
C339 O350 1.275 . S
C339 O351 1.256 . S
O340 Ho320 2.322 . S
O340 C322 1.259 . S
O341 Ho321 2.346 . S
O341 C322 1.268 . S
O342 Ho320 2.378 . S
O342 C323 1.215 . S
O343 Ho320 2.524 . S
O343 C323 1.289 . S
O344 Ho320 2.381 . S
O344 C330 1.275 . S
O345 Ho320 2.669 . S
O345 Ho321 2.305 . S
O345 C330 1.256 . S
O346 Ho321 2.322 . S
O346 C331 1.259 . S
O347 Ho320 2.346 . S
O347 C331 1.268 . S
O348 Ho321 2.378 . S
O348 C332 1.215 . S
O349 Ho321 2.524 . S
O349 C332 1.289 . S
O350 Ho321 2.381 . S
O350 C339 1.275 . S
O351 Ho320 2.305 . S
O351 Ho321 2.669 . S
O351 C339 1.256 . S
H352 C325 0.930 . S
H353 C326 0.931 . S
H354 C328 0.934 . S
H355 C329 0.930 . S
H356 C334 0.930 . S
H357 C335 0.931 . S
H358 C337 0.934 . S
H359 C338 0.930 . S
Ho360 C363 2.811 . S
Ho360 O380 2.322 . S
Ho360 O382 2.378 . S
Ho360 O383 2.524 . S
Ho360 O384 2.381 . S
Ho360 O385 2.669 . S
Ho360 O387 2.346 . S
Ho360 O391 2.305 . S
Ho361 C372 2.811 . S
Ho361 O381 2.346 . S
Ho361 O385 2.305 1_455 S
Ho361 O386 2.322 1_455 S
Ho361 O388 2.378 . S
Ho361 O389 2.524 . S
Ho361 O390 2.381 1_445 S
Ho361 O391 2.669 1_455 S
C362 O380 1.259 . S
C362 O381 1.268 1_655 S
C363 Ho360 2.811 . S
C363 C364 1.488 . S
C363 O382 1.215 . S
C363 O383 1.289 . S
C364 C363 1.488 . S
C364 C365 1.348 1_545 S
C364 C369 1.413 . S
C365 C364 1.348 1_565 S
C365 C366 1.442 . S
C365 H392 0.930 . S
C366 C365 1.442 . S
C366 C367 1.381 1_565 S
C366 H393 0.931 . S
C367 C366 1.381 1_545 S
C367 C368 1.321 . S
C368 C367 1.321 . S
C368 C369 1.403 . S
C368 H394 0.934 . S
C369 C364 1.413 . S
C369 C368 1.403 . S
C369 H395 0.930 . S
C370 O384 1.275 . S
C370 O385 1.256 . S
C371 O386 1.259 . S
C371 O387 1.268 . S
C372 Ho361 2.811 . S
C372 C373 1.488 . S
C372 O388 1.215 . S
C372 O389 1.289 . S
C373 C372 1.488 . S
C373 C374 1.348 . S
C373 C378 1.413 . S
C374 C373 1.348 . S
C374 C375 1.442 . S
C374 H396 0.930 . S
C375 C374 1.442 . S
C375 C376 1.381 . S
C375 H397 0.931 . S
C376 C375 1.381 . S
C376 C377 1.321 . S
C377 C376 1.321 . S
C377 C378 1.403 . S
C377 H398 0.934 . S
C378 C373 1.413 . S
C378 C377 1.403 . S
C378 H399 0.930 . S
C379 O390 1.275 . S
C379 O391 1.256 1_565 S
O380 Ho360 2.322 . S
O380 C362 1.259 . S
O381 Ho361 2.346 . S
O381 C362 1.268 1_455 S
O382 Ho360 2.378 . S
O382 C363 1.215 . S
O383 Ho360 2.524 . S
O383 C363 1.289 . S
O384 Ho360 2.381 . S
O384 C370 1.275 . S
O385 Ho360 2.669 . S
O385 Ho361 2.305 1_655 S
O385 C370 1.256 . S
O386 Ho361 2.322 1_655 S
O386 C371 1.259 . S
O387 Ho360 2.346 . S
O387 C371 1.268 . S
O388 Ho361 2.378 . S
O388 C372 1.215 . S
O389 Ho361 2.524 . S
O389 C372 1.289 . S
O390 Ho361 2.381 1_665 S
O390 C379 1.275 . S
O391 Ho360 2.305 . S
O391 Ho361 2.669 1_655 S
O391 C379 1.256 1_545 S
H392 C365 0.930 . S
H393 C366 0.931 . S
H394 C368 0.934 . S
H395 C369 0.930 . S
H396 C374 0.930 . S
H397 C375 0.931 . S
H398 C377 0.934 . S
H399 C378 0.930 . S
Ho400 C403 2.811 . S
Ho400 O420 2.322 . S
Ho400 O422 2.378 . S
Ho400 O423 2.524 . S
Ho400 O424 2.381 . S
Ho400 O425 2.669 . S
Ho400 O427 2.346 . S
Ho400 O431 2.305 . S
Ho401 C412 2.811 . S
Ho401 O421 2.346 . S
Ho401 O425 2.305 . S
Ho401 O426 2.322 . S
Ho401 O428 2.378 . S
Ho401 O429 2.524 . S
Ho401 O430 2.381 . S
Ho401 O431 2.669 . S
C402 O420 1.259 . S
C402 O421 1.268 . S
C403 Ho400 2.811 . S
C403 C404 1.488 . S
C403 O422 1.215 . S
C403 O423 1.289 . S
C404 C403 1.488 . S
C404 C405 1.348 . S
C404 C409 1.413 . S
C405 C404 1.348 . S
C405 C406 1.442 . S
C405 H432 0.930 . S
C406 C405 1.442 . S
C406 C407 1.381 . S
C406 H433 0.931 . S
C407 C406 1.381 . S
C407 C408 1.321 . S
C408 C407 1.321 . S
C408 C409 1.403 . S
C408 H434 0.934 . S
C409 C404 1.413 . S
C409 C408 1.403 . S
C409 H435 0.930 . S
C410 O424 1.275 . S
C410 O425 1.256 . S
C411 O426 1.259 . S
C411 O427 1.268 . S
C412 Ho401 2.811 . S
C412 C413 1.488 . S
C412 O428 1.215 . S
C412 O429 1.289 . S
C413 C412 1.488 . S
C413 C414 1.348 . S
C413 C418 1.413 . S
C414 C413 1.348 . S
C414 C415 1.442 . S
C414 H436 0.930 . S
C415 C414 1.442 . S
C415 C416 1.381 . S
C415 H437 0.931 . S
C416 C415 1.381 . S
C416 C417 1.321 . S
C417 C416 1.321 . S
C417 C418 1.403 . S
C417 H438 0.934 . S
C418 C413 1.413 . S
C418 C417 1.403 . S
C418 H439 0.930 . S
C419 O430 1.275 . S
C419 O431 1.256 . S
O420 Ho400 2.322 . S
O420 C402 1.259 . S
O421 Ho401 2.346 . S
O421 C402 1.268 . S
O422 Ho400 2.378 . S
O422 C403 1.215 . S
O423 Ho400 2.524 . S
O423 C403 1.289 . S
O424 Ho400 2.381 . S
O424 C410 1.275 . S
O425 Ho400 2.669 . S
O425 Ho401 2.305 . S
O425 C410 1.256 . S
O426 Ho401 2.322 . S
O426 C411 1.259 . S
O427 Ho400 2.346 . S
O427 C411 1.268 . S
O428 Ho401 2.378 . S
O428 C412 1.215 . S
O429 Ho401 2.524 . S
O429 C412 1.289 . S
O430 Ho401 2.381 . S
O430 C419 1.275 . S
O431 Ho400 2.305 . S
O431 Ho401 2.669 . S
O431 C419 1.256 . S
H432 C405 0.930 . S
H433 C406 0.931 . S
H434 C408 0.934 . S
H435 C409 0.930 . S
H436 C414 0.930 . S
H437 C415 0.931 . S
H438 C417 0.934 . S
H439 C418 0.930 . S
Ho440 C443 2.811 . S
Ho440 O460 2.322 . S
Ho440 O462 2.378 . S
Ho440 O463 2.524 . S
Ho440 O464 2.381 . S
Ho440 O465 2.669 . S
Ho440 O467 2.346 . S
Ho440 O471 2.305 . S
Ho441 C452 2.811 . S
Ho441 O461 2.346 . S
Ho441 O465 2.305 . S
Ho441 O466 2.322 . S
Ho441 O468 2.378 . S
Ho441 O469 2.524 . S
Ho441 O470 2.381 1_565 S
Ho441 O471 2.669 . S
C442 O460 1.259 . S
C442 O461 1.268 . S
C443 Ho440 2.811 . S
C443 C444 1.488 . S
C443 O462 1.215 . S
C443 O463 1.289 . S
C444 C443 1.488 . S
C444 C445 1.348 1_565 S
C444 C449 1.413 . S
C445 C444 1.348 1_545 S
C445 C446 1.442 . S
C445 H472 0.930 . S
C446 C445 1.442 . S
C446 C447 1.381 1_545 S
C446 H473 0.931 . S
C447 C446 1.381 1_565 S
C447 C448 1.321 . S
C448 C447 1.321 . S
C448 C449 1.403 . S
C448 H474 0.934 . S
C449 C444 1.413 . S
C449 C448 1.403 . S
C449 H475 0.930 . S
C450 O464 1.275 . S
C450 O465 1.256 . S
C451 O466 1.259 . S
C451 O467 1.268 . S
C452 Ho441 2.811 . S
C452 C453 1.488 . S
C452 O468 1.215 . S
C452 O469 1.289 . S
C453 C452 1.488 . S
C453 C454 1.348 . S
C453 C458 1.413 . S
C454 C453 1.348 . S
C454 C455 1.442 . S
C454 H476 0.930 . S
C455 C454 1.442 . S
C455 C456 1.381 . S
C455 H477 0.931 . S
C456 C455 1.381 . S
C456 C457 1.321 . S
C457 C456 1.321 . S
C457 C458 1.403 . S
C457 H478 0.934 . S
C458 C453 1.413 . S
C458 C457 1.403 . S
C458 H479 0.930 . S
C459 O470 1.275 . S
C459 O471 1.256 1_545 S
O460 Ho440 2.322 . S
O460 C442 1.259 . S
O461 Ho441 2.346 . S
O461 C442 1.268 . S
O462 Ho440 2.378 . S
O462 C443 1.215 . S
O463 Ho440 2.524 . S
O463 C443 1.289 . S
O464 Ho440 2.381 . S
O464 C450 1.275 . S
O465 Ho440 2.669 . S
O465 Ho441 2.305 . S
O465 C450 1.256 . S
O466 Ho441 2.322 . S
O466 C451 1.259 . S
O467 Ho440 2.346 . S
O467 C451 1.268 . S
O468 Ho441 2.378 . S
O468 C452 1.215 . S
O469 Ho441 2.524 . S
O469 C452 1.289 . S
O470 Ho441 2.381 1_545 S
O470 C459 1.275 . S
O471 Ho440 2.305 . S
O471 Ho441 2.669 . S
O471 C459 1.256 1_565 S
H472 C445 0.930 . S
H473 C446 0.931 . S
H474 C448 0.934 . S
H475 C449 0.930 . S
H476 C454 0.930 . S
H477 C455 0.931 . S
H478 C457 0.934 . S
H479 C458 0.930 . S
Ho480 C483 2.811 . S
Ho480 O500 2.322 . S
Ho480 O502 2.378 . S
Ho480 O503 2.524 . S
Ho480 O504 2.381 . S
Ho480 O505 2.669 . S
Ho480 O507 2.346 . S
Ho480 O511 2.305 . S
Ho481 C492 2.811 . S
Ho481 O501 2.346 . S
Ho481 O505 2.305 . S
Ho481 O506 2.322 . S
Ho481 O508 2.378 . S
Ho481 O509 2.524 . S
Ho481 O510 2.381 . S
Ho481 O511 2.669 . S
C482 O500 1.259 . S
C482 O501 1.268 . S
C483 Ho480 2.811 . S
C483 C484 1.488 . S
C483 O502 1.215 . S
C483 O503 1.289 . S
C484 C483 1.488 . S
C484 C485 1.348 . S
C484 C489 1.413 . S
C485 C484 1.348 . S
C485 C486 1.442 . S
C485 H512 0.930 . S
C486 C485 1.442 . S
C486 C487 1.381 . S
C486 H513 0.931 . S
C487 C486 1.381 . S
C487 C488 1.321 . S
C488 C487 1.321 . S
C488 C489 1.403 . S
C488 H514 0.934 . S
C489 C484 1.413 . S
C489 C488 1.403 . S
C489 H515 0.930 . S
C490 O504 1.275 . S
C490 O505 1.256 . S
C491 O506 1.259 . S
C491 O507 1.268 . S
C492 Ho481 2.811 . S
C492 C493 1.488 . S
C492 O508 1.215 . S
C492 O509 1.289 . S
C493 C492 1.488 . S
C493 C494 1.348 . S
C493 C498 1.413 . S
C494 C493 1.348 . S
C494 C495 1.442 . S
C494 H516 0.930 . S
C495 C494 1.442 . S
C495 C496 1.381 . S
C495 H517 0.931 . S
C496 C495 1.381 . S
C496 C497 1.321 . S
C497 C496 1.321 . S
C497 C498 1.403 . S
C497 H518 0.934 . S
C498 C493 1.413 . S
C498 C497 1.403 . S
C498 H519 0.930 . S
C499 O510 1.275 . S
C499 O511 1.256 . S
O500 Ho480 2.322 . S
O500 C482 1.259 . S
O501 Ho481 2.346 . S
O501 C482 1.268 . S
O502 Ho480 2.378 . S
O502 C483 1.215 . S
O503 Ho480 2.524 . S
O503 C483 1.289 . S
O504 Ho480 2.381 . S
O504 C490 1.275 . S
O505 Ho480 2.669 . S
O505 Ho481 2.305 . S
O505 C490 1.256 . S
O506 Ho481 2.322 . S
O506 C491 1.259 . S
O507 Ho480 2.346 . S
O507 C491 1.268 . S
O508 Ho481 2.378 . S
O508 C492 1.215 . S
O509 Ho481 2.524 . S
O509 C492 1.289 . S
O510 Ho481 2.381 . S
O510 C499 1.275 . S
O511 Ho480 2.305 . S
O511 Ho481 2.669 . S
O511 C499 1.256 . S
H512 C485 0.930 . S
H513 C486 0.931 . S
H514 C488 0.934 . S
H515 C489 0.930 . S
H516 C494 0.930 . S
H517 C495 0.931 . S
H518 C497 0.934 . S
H519 C498 0.930 . S
Ho520 C523 2.811 . S
Ho520 O540 2.322 . S
Ho520 O542 2.378 . S
Ho520 O543 2.524 . S
Ho520 O544 2.381 . S
Ho520 O545 2.669 . S
Ho520 O547 2.346 . S
Ho520 O551 2.305 . S
Ho521 C532 2.811 . S
Ho521 O541 2.346 . S
Ho521 O545 2.305 . S
Ho521 O546 2.322 . S
Ho521 O548 2.378 . S
Ho521 O549 2.524 . S
Ho521 O550 2.381 1_545 S
Ho521 O551 2.669 . S
C522 O540 1.259 . S
C522 O541 1.268 . S
C523 Ho520 2.811 . S
C523 C524 1.488 . S
C523 O542 1.215 . S
C523 O543 1.289 . S
C524 C523 1.488 . S
C524 C525 1.348 1_545 S
C524 C529 1.413 . S
C525 C524 1.348 1_565 S
C525 C526 1.442 . S
C525 H552 0.930 . S
C526 C525 1.442 . S
C526 C527 1.381 1_565 S
C526 H553 0.931 . S
C527 C526 1.381 1_545 S
C527 C528 1.321 . S
C528 C527 1.321 . S
C528 C529 1.403 . S
C528 H554 0.934 . S
C529 C524 1.413 . S
C529 C528 1.403 . S
C529 H555 0.930 . S
C530 O544 1.275 . S
C530 O545 1.256 . S
C531 O546 1.259 . S
C531 O547 1.268 . S
C532 Ho521 2.811 . S
C532 C533 1.488 . S
C532 O548 1.215 . S
C532 O549 1.289 . S
C533 C532 1.488 . S
C533 C534 1.348 . S
C533 C538 1.413 . S
C534 C533 1.348 . S
C534 C535 1.442 . S
C534 H556 0.930 . S
C535 C534 1.442 . S
C535 C536 1.381 . S
C535 H557 0.931 . S
C536 C535 1.381 . S
C536 C537 1.321 . S
C537 C536 1.321 . S
C537 C538 1.403 . S
C537 H558 0.934 . S
C538 C533 1.413 . S
C538 C537 1.403 . S
C538 H559 0.930 . S
C539 O550 1.275 . S
C539 O551 1.256 1_565 S
O540 Ho520 2.322 . S
O540 C522 1.259 . S
O541 Ho521 2.346 . S
O541 C522 1.268 . S
O542 Ho520 2.378 . S
O542 C523 1.215 . S
O543 Ho520 2.524 . S
O543 C523 1.289 . S
O544 Ho520 2.381 . S
O544 C530 1.275 . S
O545 Ho520 2.669 . S
O545 Ho521 2.305 . S
O545 C530 1.256 . S
O546 Ho521 2.322 . S
O546 C531 1.259 . S
O547 Ho520 2.346 . S
O547 C531 1.268 . S
O548 Ho521 2.378 . S
O548 C532 1.215 . S
O549 Ho521 2.524 . S
O549 C532 1.289 . S
O550 Ho521 2.381 1_565 S
O550 C539 1.275 . S
O551 Ho520 2.305 . S
O551 Ho521 2.669 . S
O551 C539 1.256 1_545 S
H552 C525 0.930 . S
H553 C526 0.931 . S
H554 C528 0.934 . S
H555 C529 0.930 . S
H556 C534 0.930 . S
H557 C535 0.931 . S
H558 C537 0.934 . S
H559 C538 0.930 . S
Ho560 C563 2.811 . S
Ho560 O580 2.322 . S
Ho560 O582 2.378 . S
Ho560 O583 2.524 . S
Ho560 O584 2.381 . S
Ho560 O585 2.669 . S
Ho560 O587 2.346 . S
Ho560 O591 2.305 . S
Ho561 C572 2.811 . S
Ho561 O581 2.346 . S
Ho561 O585 2.305 . S
Ho561 O586 2.322 . S
Ho561 O588 2.378 . S
Ho561 O589 2.524 . S
Ho561 O590 2.381 . S
Ho561 O591 2.669 . S
C562 O580 1.259 . S
C562 O581 1.268 . S
C563 Ho560 2.811 . S
C563 C564 1.488 . S
C563 O582 1.215 . S
C563 O583 1.289 . S
C564 C563 1.488 . S
C564 C565 1.348 . S
C564 C569 1.413 . S
C565 C564 1.348 . S
C565 C566 1.442 . S
C565 H592 0.930 . S
C566 C565 1.442 . S
C566 C567 1.381 . S
C566 H593 0.931 . S
C567 C566 1.381 . S
C567 C568 1.321 . S
C568 C567 1.321 . S
C568 C569 1.403 . S
C568 H594 0.934 . S
C569 C564 1.413 . S
C569 C568 1.403 . S
C569 H595 0.930 . S
C570 O584 1.275 . S
C570 O585 1.256 . S
C571 O586 1.259 . S
C571 O587 1.268 . S
C572 Ho561 2.811 . S
C572 C573 1.488 . S
C572 O588 1.215 . S
C572 O589 1.289 . S
C573 C572 1.488 . S
C573 C574 1.348 . S
C573 C578 1.413 . S
C574 C573 1.348 . S
C574 C575 1.442 . S
C574 H596 0.930 . S
C575 C574 1.442 . S
C575 C576 1.381 . S
C575 H597 0.931 . S
C576 C575 1.381 . S
C576 C577 1.321 . S
C577 C576 1.321 . S
C577 C578 1.403 . S
C577 H598 0.934 . S
C578 C573 1.413 . S
C578 C577 1.403 . S
C578 H599 0.930 . S
C579 O590 1.275 . S
C579 O591 1.256 . S
O580 Ho560 2.322 . S
O580 C562 1.259 . S
O581 Ho561 2.346 . S
O581 C562 1.268 . S
O582 Ho560 2.378 . S
O582 C563 1.215 . S
O583 Ho560 2.524 . S
O583 C563 1.289 . S
O584 Ho560 2.381 . S
O584 C570 1.275 . S
O585 Ho560 2.669 . S
O585 Ho561 2.305 . S
O585 C570 1.256 . S
O586 Ho561 2.322 . S
O586 C571 1.259 . S
O587 Ho560 2.346 . S
O587 C571 1.268 . S
O588 Ho561 2.378 . S
O588 C572 1.215 . S
O589 Ho561 2.524 . S
O589 C572 1.289 . S
O590 Ho561 2.381 . S
O590 C579 1.275 . S
O591 Ho560 2.305 . S
O591 Ho561 2.669 . S
O591 C579 1.256 . S
H592 C565 0.930 . S
H593 C566 0.931 . S
H594 C568 0.934 . S
H595 C569 0.930 . S
H596 C574 0.930 . S
H597 C575 0.931 . S
H598 C577 0.934 . S
H599 C578 0.930 . S
Ho600 C603 2.811 . S
Ho600 O620 2.322 . S
Ho600 O622 2.378 . S
Ho600 O623 2.524 . S
Ho600 O624 2.381 . S
Ho600 O625 2.669 . S
Ho600 O627 2.346 . S
Ho600 O631 2.305 . S
Ho601 C612 2.811 . S
Ho601 O621 2.346 . S
Ho601 O625 2.305 1_455 S
Ho601 O626 2.322 1_455 S
Ho601 O628 2.378 . S
Ho601 O629 2.524 . S
Ho601 O630 2.381 1_465 S
Ho601 O631 2.669 1_455 S
C602 O620 1.259 . S
C602 O621 1.268 1_655 S
C603 Ho600 2.811 . S
C603 C604 1.488 . S
C603 O622 1.215 . S
C603 O623 1.289 . S
C604 C603 1.488 . S
C604 C605 1.348 1_565 S
C604 C609 1.413 . S
C605 C604 1.348 1_545 S
C605 C606 1.442 . S
C605 H632 0.930 . S
C606 C605 1.442 . S
C606 C607 1.381 1_545 S
C606 H633 0.931 . S
C607 C606 1.381 1_565 S
C607 C608 1.321 . S
C608 C607 1.321 . S
C608 C609 1.403 . S
C608 H634 0.934 . S
C609 C604 1.413 . S
C609 C608 1.403 . S
C609 H635 0.930 . S
C610 O624 1.275 . S
C610 O625 1.256 . S
C611 O626 1.259 . S
C611 O627 1.268 . S
C612 Ho601 2.811 . S
C612 C613 1.488 . S
C612 O628 1.215 . S
C612 O629 1.289 . S
C613 C612 1.488 . S
C613 C614 1.348 . S
C613 C618 1.413 . S
C614 C613 1.348 . S
C614 C615 1.442 . S
C614 H636 0.930 . S
C615 C614 1.442 . S
C615 C616 1.381 . S
C615 H637 0.931 . S
C616 C615 1.381 . S
C616 C617 1.321 . S
C617 C616 1.321 . S
C617 C618 1.403 . S
C617 H638 0.934 . S
C618 C613 1.413 . S
C618 C617 1.403 . S
C618 H639 0.930 . S
C619 O630 1.275 . S
C619 O631 1.256 1_545 S
O620 Ho600 2.322 . S
O620 C602 1.259 . S
O621 Ho601 2.346 . S
O621 C602 1.268 1_455 S
O622 Ho600 2.378 . S
O622 C603 1.215 . S
O623 Ho600 2.524 . S
O623 C603 1.289 . S
O624 Ho600 2.381 . S
O624 C610 1.275 . S
O625 Ho600 2.669 . S
O625 Ho601 2.305 1_655 S
O625 C610 1.256 . S
O626 Ho601 2.322 1_655 S
O626 C611 1.259 . S
O627 Ho600 2.346 . S
O627 C611 1.268 . S
O628 Ho601 2.378 . S
O628 C612 1.215 . S
O629 Ho601 2.524 . S
O629 C612 1.289 . S
O630 Ho601 2.381 1_645 S
O630 C619 1.275 . S
O631 Ho600 2.305 . S
O631 Ho601 2.669 1_655 S
O631 C619 1.256 1_565 S
H632 C605 0.930 . S
H633 C606 0.931 . S
H634 C608 0.934 . S
H635 C609 0.930 . S
H636 C614 0.930 . S
H637 C615 0.931 . S
H638 C617 0.934 . S
H639 C618 0.930 . S
Ho640 C643 2.811 . S
Ho640 O660 2.322 . S
Ho640 O662 2.378 . S
Ho640 O663 2.524 . S
Ho640 O664 2.381 . S
Ho640 O665 2.669 . S
Ho640 O667 2.346 . S
Ho640 O671 2.305 . S
Ho641 C652 2.811 . S
Ho641 O661 2.346 . S
Ho641 O665 2.305 . S
Ho641 O666 2.322 . S
Ho641 O668 2.378 . S
Ho641 O669 2.524 . S
Ho641 O670 2.381 . S
Ho641 O671 2.669 . S
C642 O660 1.259 . S
C642 O661 1.268 . S
C643 Ho640 2.811 . S
C643 C644 1.488 . S
C643 O662 1.215 . S
C643 O663 1.289 . S
C644 C643 1.488 . S
C644 C645 1.348 . S
C644 C649 1.413 . S
C645 C644 1.348 . S
C645 C646 1.442 . S
C645 H672 0.930 . S
C646 C645 1.442 . S
C646 C647 1.381 . S
C646 H673 0.931 . S
C647 C646 1.381 . S
C647 C648 1.321 . S
C648 C647 1.321 . S
C648 C649 1.403 . S
C648 H674 0.934 . S
C649 C644 1.413 . S
C649 C648 1.403 . S
C649 H675 0.930 . S
C650 O664 1.275 . S
C650 O665 1.256 . S
C651 O666 1.259 . S
C651 O667 1.268 . S
C652 Ho641 2.811 . S
C652 C653 1.488 . S
C652 O668 1.215 . S
C652 O669 1.289 . S
C653 C652 1.488 . S
C653 C654 1.348 . S
C653 C658 1.413 . S
C654 C653 1.348 . S
C654 C655 1.442 . S
C654 H676 0.930 . S
C655 C654 1.442 . S
C655 C656 1.381 . S
C655 H677 0.931 . S
C656 C655 1.381 . S
C656 C657 1.321 . S
C657 C656 1.321 . S
C657 C658 1.403 . S
C657 H678 0.934 . S
C658 C653 1.413 . S
C658 C657 1.403 . S
C658 H679 0.930 . S
C659 O670 1.275 . S
C659 O671 1.256 . S
O660 Ho640 2.322 . S
O660 C642 1.259 . S
O661 Ho641 2.346 . S
O661 C642 1.268 . S
O662 Ho640 2.378 . S
O662 C643 1.215 . S
O663 Ho640 2.524 . S
O663 C643 1.289 . S
O664 Ho640 2.381 . S
O664 C650 1.275 . S
O665 Ho640 2.669 . S
O665 Ho641 2.305 . S
O665 C650 1.256 . S
O666 Ho641 2.322 . S
O666 C651 1.259 . S
O667 Ho640 2.346 . S
O667 C651 1.268 . S
O668 Ho641 2.378 . S
O668 C652 1.215 . S
O669 Ho641 2.524 . S
O669 C652 1.289 . S
O670 Ho641 2.381 . S
O670 C659 1.275 . S
O671 Ho640 2.305 . S
O671 Ho641 2.669 . S
O671 C659 1.256 . S
H672 C645 0.930 . S
H673 C646 0.931 . S
H674 C648 0.934 . S
H675 C649 0.930 . S
H676 C654 0.930 . S
H677 C655 0.931 . S
H678 C657 0.934 . S
H679 C658 0.930 . S
Ho680 C683 2.811 . S
Ho680 O700 2.322 . S
Ho680 O702 2.378 . S
Ho680 O703 2.524 . S
Ho680 O704 2.381 . S
Ho680 O705 2.669 . S
Ho680 O707 2.346 . S
Ho680 O711 2.305 . S
Ho681 C692 2.811 . S
Ho681 O701 2.346 . S
Ho681 O705 2.305 . S
Ho681 O706 2.322 . S
Ho681 O708 2.378 . S
Ho681 O709 2.524 . S
Ho681 O710 2.381 . S
Ho681 O711 2.669 . S
C682 O700 1.259 . S
C682 O701 1.268 . S
C683 Ho680 2.811 . S
C683 C684 1.488 . S
C683 O702 1.215 . S
C683 O703 1.289 . S
C684 C683 1.488 . S
C684 C685 1.348 . S
C684 C689 1.413 . S
C685 C684 1.348 . S
C685 C686 1.442 . S
C685 H712 0.930 . S
C686 C685 1.442 . S
C686 C687 1.381 . S
C686 H713 0.931 . S
C687 C686 1.381 . S
C687 C688 1.321 . S
C688 C687 1.321 . S
C688 C689 1.403 . S
C688 H714 0.934 . S
C689 C684 1.413 . S
C689 C688 1.403 . S
C689 H715 0.930 . S
C690 O704 1.275 . S
C690 O705 1.256 . S
C691 O706 1.259 . S
C691 O707 1.268 . S
C692 Ho681 2.811 . S
C692 C693 1.488 . S
C692 O708 1.215 . S
C692 O709 1.289 . S
C693 C692 1.488 . S
C693 C694 1.348 . S
C693 C698 1.413 . S
C694 C693 1.348 . S
C694 C695 1.442 . S
C694 H716 0.930 . S
C695 C694 1.442 . S
C695 C696 1.381 . S
C695 H717 0.931 . S
C696 C695 1.381 . S
C696 C697 1.321 . S
C697 C696 1.321 . S
C697 C698 1.403 . S
C697 H718 0.934 . S
C698 C693 1.413 . S
C698 C697 1.403 . S
C698 H719 0.930 . S
C699 O710 1.275 . S
C699 O711 1.256 . S
O700 Ho680 2.322 . S
O700 C682 1.259 . S
O701 Ho681 2.346 . S
O701 C682 1.268 . S
O702 Ho680 2.378 . S
O702 C683 1.215 . S
O703 Ho680 2.524 . S
O703 C683 1.289 . S
O704 Ho680 2.381 . S
O704 C690 1.275 . S
O705 Ho680 2.669 . S
O705 Ho681 2.305 . S
O705 C690 1.256 . S
O706 Ho681 2.322 . S
O706 C691 1.259 . S
O707 Ho680 2.346 . S
O707 C691 1.268 . S
O708 Ho681 2.378 . S
O708 C692 1.215 . S
O709 Ho681 2.524 . S
O709 C692 1.289 . S
O710 Ho681 2.381 . S
O710 C699 1.275 . S
O711 Ho680 2.305 . S
O711 Ho681 2.669 . S
O711 C699 1.256 . S
H712 C685 0.930 . S
H713 C686 0.931 . S
H714 C688 0.934 . S
H715 C689 0.930 . S
H716 C694 0.930 . S
H717 C695 0.931 . S
H718 C697 0.934 . S
H719 C698 0.930 . S
Ho720 C723 2.811 . S
Ho720 O740 2.322 . S
Ho720 O742 2.378 . S
Ho720 O743 2.524 . S
Ho720 O744 2.381 . S
Ho720 O745 2.669 . S
Ho720 O747 2.346 . S
Ho720 O751 2.305 . S
Ho721 C732 2.811 . S
Ho721 O741 2.346 . S
Ho721 O745 2.305 . S
Ho721 O746 2.322 . S
Ho721 O748 2.378 . S
Ho721 O749 2.524 . S
Ho721 O750 2.381 . S
Ho721 O751 2.669 . S
C722 O740 1.259 . S
C722 O741 1.268 . S
C723 Ho720 2.811 . S
C723 C724 1.488 . S
C723 O742 1.215 . S
C723 O743 1.289 . S
C724 C723 1.488 . S
C724 C725 1.348 . S
C724 C729 1.413 . S
C725 C724 1.348 . S
C725 C726 1.442 . S
C725 H752 0.930 . S
C726 C725 1.442 . S
C726 C727 1.381 . S
C726 H753 0.931 . S
C727 C726 1.381 . S
C727 C728 1.321 . S
C728 C727 1.321 . S
C728 C729 1.403 . S
C728 H754 0.934 . S
C729 C724 1.413 . S
C729 C728 1.403 . S
C729 H755 0.930 . S
C730 O744 1.275 . S
C730 O745 1.256 . S
C731 O746 1.259 . S
C731 O747 1.268 . S
C732 Ho721 2.811 . S
C732 C733 1.488 . S
C732 O748 1.215 . S
C732 O749 1.289 . S
C733 C732 1.488 . S
C733 C734 1.348 . S
C733 C738 1.413 . S
C734 C733 1.348 . S
C734 C735 1.442 . S
C734 H756 0.930 . S
C735 C734 1.442 . S
C735 C736 1.381 . S
C735 H757 0.931 . S
C736 C735 1.381 . S
C736 C737 1.321 . S
C737 C736 1.321 . S
C737 C738 1.403 . S
C737 H758 0.934 . S
C738 C733 1.413 . S
C738 C737 1.403 . S
C738 H759 0.930 . S
C739 O750 1.275 . S
C739 O751 1.256 . S
O740 Ho720 2.322 . S
O740 C722 1.259 . S
O741 Ho721 2.346 . S
O741 C722 1.268 . S
O742 Ho720 2.378 . S
O742 C723 1.215 . S
O743 Ho720 2.524 . S
O743 C723 1.289 . S
O744 Ho720 2.381 . S
O744 C730 1.275 . S
O745 Ho720 2.669 . S
O745 Ho721 2.305 . S
O745 C730 1.256 . S
O746 Ho721 2.322 . S
O746 C731 1.259 . S
O747 Ho720 2.346 . S
O747 C731 1.268 . S
O748 Ho721 2.378 . S
O748 C732 1.215 . S
O749 Ho721 2.524 . S
O749 C732 1.289 . S
O750 Ho721 2.381 . S
O750 C739 1.275 . S
O751 Ho720 2.305 . S
O751 Ho721 2.669 . S
O751 C739 1.256 . S
H752 C725 0.930 . S
H753 C726 0.931 . S
H754 C728 0.934 . S
H755 C729 0.930 . S
H756 C734 0.930 . S
H757 C735 0.931 . S
H758 C737 0.934 . S
H759 C738 0.930 . S
Ho760 C763 2.811 . S
Ho760 O780 2.322 1_455 S
Ho760 O782 2.378 . S
Ho760 O783 2.524 . S
Ho760 O784 2.381 1_455 S
Ho760 O785 2.669 1_455 S
Ho760 O787 2.346 . S
Ho760 O791 2.305 1_455 S
Ho761 C772 2.811 . S
Ho761 O781 2.346 . S
Ho761 O785 2.305 . S
Ho761 O786 2.322 . S
Ho761 O788 2.378 . S
Ho761 O789 2.524 . S
Ho761 O790 2.381 . S
Ho761 O791 2.669 . S
C762 O780 1.259 . S
C762 O781 1.268 . S
C763 Ho760 2.811 . S
C763 C764 1.488 . S
C763 O782 1.215 . S
C763 O783 1.289 . S
C764 C763 1.488 . S
C764 C765 1.348 . S
C764 C769 1.413 . S
C765 C764 1.348 . S
C765 C766 1.442 . S
C765 H792 0.930 . S
C766 C765 1.442 . S
C766 C767 1.381 . S
C766 H793 0.931 . S
C767 C766 1.381 . S
C767 C768 1.321 . S
C768 C767 1.321 . S
C768 C769 1.403 . S
C768 H794 0.934 . S
C769 C764 1.413 . S
C769 C768 1.403 . S
C769 H795 0.930 . S
C770 O784 1.275 . S
C770 O785 1.256 . S
C771 O786 1.259 . S
C771 O787 1.268 1_655 S
C772 Ho761 2.811 . S
C772 C773 1.488 . S
C772 O788 1.215 . S
C772 O789 1.289 . S
C773 C772 1.488 . S
C773 C774 1.348 . S
C773 C778 1.413 . S
C774 C773 1.348 . S
C774 C775 1.442 . S
C774 H796 0.930 . S
C775 C774 1.442 . S
C775 C776 1.381 . S
C775 H797 0.931 . S
C776 C775 1.381 . S
C776 C777 1.321 . S
C777 C776 1.321 . S
C777 C778 1.403 . S
C777 H798 0.934 . S
C778 C773 1.413 . S
C778 C777 1.403 . S
C778 H799 0.930 . S
C779 O790 1.275 . S
C779 O791 1.256 . S
O780 Ho760 2.322 1_655 S
O780 C762 1.259 . S
O781 Ho761 2.346 . S
O781 C762 1.268 . S
O782 Ho760 2.378 . S
O782 C763 1.215 . S
O783 Ho760 2.524 . S
O783 C763 1.289 . S
O784 Ho760 2.381 1_655 S
O784 C770 1.275 . S
O785 Ho760 2.669 1_655 S
O785 Ho761 2.305 . S
O785 C770 1.256 . S
O786 Ho761 2.322 . S
O786 C771 1.259 . S
O787 Ho760 2.346 . S
O787 C771 1.268 1_455 S
O788 Ho761 2.378 . S
O788 C772 1.215 . S
O789 Ho761 2.524 . S
O789 C772 1.289 . S
O790 Ho761 2.381 . S
O790 C779 1.275 . S
O791 Ho760 2.305 1_655 S
O791 Ho761 2.669 . S
O791 C779 1.256 . S
H792 C765 0.930 . S
H793 C766 0.931 . S
H794 C768 0.934 . S
H795 C769 0.930 . S
H796 C774 0.930 . S
H797 C775 0.931 . S
H798 C777 0.934 . S
H799 C778 0.930 . S
Ho800 C803 2.811 . S
Ho800 O820 2.322 . S
Ho800 O822 2.378 . S
Ho800 O823 2.524 . S
Ho800 O824 2.381 . S
Ho800 O825 2.669 . S
Ho800 O827 2.346 . S
Ho800 O831 2.305 . S
Ho801 C812 2.811 . S
Ho801 O821 2.346 . S
Ho801 O825 2.305 . S
Ho801 O826 2.322 . S
Ho801 O828 2.378 . S
Ho801 O829 2.524 . S
Ho801 O830 2.381 . S
Ho801 O831 2.669 . S
C802 O820 1.259 . S
C802 O821 1.268 . S
C803 Ho800 2.811 . S
C803 C804 1.488 . S
C803 O822 1.215 . S
C803 O823 1.289 . S
C804 C803 1.488 . S
C804 C805 1.348 . S
C804 C809 1.413 . S
C805 C804 1.348 . S
C805 C806 1.442 . S
C805 H832 0.930 . S
C806 C805 1.442 . S
C806 C807 1.381 . S
C806 H833 0.931 . S
C807 C806 1.381 . S
C807 C808 1.321 . S
C808 C807 1.321 . S
C808 C809 1.403 . S
C808 H834 0.934 . S
C809 C804 1.413 . S
C809 C808 1.403 . S
C809 H835 0.930 . S
C810 O824 1.275 . S
C810 O825 1.256 . S
C811 O826 1.259 . S
C811 O827 1.268 . S
C812 Ho801 2.811 . S
C812 C813 1.488 . S
C812 O828 1.215 . S
C812 O829 1.289 . S
C813 C812 1.488 . S
C813 C814 1.348 . S
C813 C818 1.413 . S
C814 C813 1.348 . S
C814 C815 1.442 . S
C814 H836 0.930 . S
C815 C814 1.442 . S
C815 C816 1.381 . S
C815 H837 0.931 . S
C816 C815 1.381 . S
C816 C817 1.321 . S
C817 C816 1.321 . S
C817 C818 1.403 . S
C817 H838 0.934 . S
C818 C813 1.413 . S
C818 C817 1.403 . S
C818 H839 0.930 . S
C819 O830 1.275 . S
C819 O831 1.256 . S
O820 Ho800 2.322 . S
O820 C802 1.259 . S
O821 Ho801 2.346 . S
O821 C802 1.268 . S
O822 Ho800 2.378 . S
O822 C803 1.215 . S
O823 Ho800 2.524 . S
O823 C803 1.289 . S
O824 Ho800 2.381 . S
O824 C810 1.275 . S
O825 Ho800 2.669 . S
O825 Ho801 2.305 . S
O825 C810 1.256 . S
O826 Ho801 2.322 . S
O826 C811 1.259 . S
O827 Ho800 2.346 . S
O827 C811 1.268 . S
O828 Ho801 2.378 . S
O828 C812 1.215 . S
O829 Ho801 2.524 . S
O829 C812 1.289 . S
O830 Ho801 2.381 . S
O830 C819 1.275 . S
O831 Ho800 2.305 . S
O831 Ho801 2.669 . S
O831 C819 1.256 . S
H832 C805 0.930 . S
H833 C806 0.931 . S
H834 C808 0.934 . S
H835 C809 0.930 . S
H836 C814 0.930 . S
H837 C815 0.931 . S
H838 C817 0.934 . S
H839 C818 0.930 . S
Ho840 C843 2.811 . S
Ho840 O860 2.322 1_455 S
Ho840 O862 2.378 . S
Ho840 O863 2.524 . S
Ho840 O864 2.381 1_455 S
Ho840 O865 2.669 1_455 S
Ho840 O867 2.346 . S
Ho840 O871 2.305 1_455 S
Ho841 C852 2.811 . S
Ho841 O861 2.346 . S
Ho841 O865 2.305 . S
Ho841 O866 2.322 . S
Ho841 O868 2.378 . S
Ho841 O869 2.524 . S
Ho841 O870 2.381 . S
Ho841 O871 2.669 . S
C842 O860 1.259 . S
C842 O861 1.268 . S
C843 Ho840 2.811 . S
C843 C844 1.488 . S
C843 O862 1.215 . S
C843 O863 1.289 . S
C844 C843 1.488 . S
C844 C845 1.348 . S
C844 C849 1.413 . S
C845 C844 1.348 . S
C845 C846 1.442 . S
C845 H872 0.930 . S
C846 C845 1.442 . S
C846 C847 1.381 . S
C846 H873 0.931 . S
C847 C846 1.381 . S
C847 C848 1.321 . S
C848 C847 1.321 . S
C848 C849 1.403 . S
C848 H874 0.934 . S
C849 C844 1.413 . S
C849 C848 1.403 . S
C849 H875 0.930 . S
C850 O864 1.275 . S
C850 O865 1.256 . S
C851 O866 1.259 . S
C851 O867 1.268 1_655 S
C852 Ho841 2.811 . S
C852 C853 1.488 . S
C852 O868 1.215 . S
C852 O869 1.289 . S
C853 C852 1.488 . S
C853 C854 1.348 . S
C853 C858 1.413 . S
C854 C853 1.348 . S
C854 C855 1.442 . S
C854 H876 0.930 . S
C855 C854 1.442 . S
C855 C856 1.381 . S
C855 H877 0.931 . S
C856 C855 1.381 . S
C856 C857 1.321 . S
C857 C856 1.321 . S
C857 C858 1.403 . S
C857 H878 0.934 . S
C858 C853 1.413 . S
C858 C857 1.403 . S
C858 H879 0.930 . S
C859 O870 1.275 . S
C859 O871 1.256 . S
O860 Ho840 2.322 1_655 S
O860 C842 1.259 . S
O861 Ho841 2.346 . S
O861 C842 1.268 . S
O862 Ho840 2.378 . S
O862 C843 1.215 . S
O863 Ho840 2.524 . S
O863 C843 1.289 . S
O864 Ho840 2.381 1_655 S
O864 C850 1.275 . S
O865 Ho840 2.669 1_655 S
O865 Ho841 2.305 . S
O865 C850 1.256 . S
O866 Ho841 2.322 . S
O866 C851 1.259 . S
O867 Ho840 2.346 . S
O867 C851 1.268 1_455 S
O868 Ho841 2.378 . S
O868 C852 1.215 . S
O869 Ho841 2.524 . S
O869 C852 1.289 . S
O870 Ho841 2.381 . S
O870 C859 1.275 . S
O871 Ho840 2.305 1_655 S
O871 Ho841 2.669 . S
O871 C859 1.256 . S
H872 C845 0.930 . S
H873 C846 0.931 . S
H874 C848 0.934 . S
H875 C849 0.930 . S
H876 C854 0.930 . S
H877 C855 0.931 . S
H878 C857 0.934 . S
H879 C858 0.930 . S
Ho880 C883 2.811 . S
Ho880 O900 2.322 . S
Ho880 O902 2.378 . S
Ho880 O903 2.524 . S
Ho880 O904 2.381 . S
Ho880 O905 2.669 . S
Ho880 O907 2.346 . S
Ho880 O911 2.305 . S
Ho881 C892 2.811 . S
Ho881 O901 2.346 . S
Ho881 O905 2.305 . S
Ho881 O906 2.322 . S
Ho881 O908 2.378 . S
Ho881 O909 2.524 . S
Ho881 O910 2.381 . S
Ho881 O911 2.669 . S
C882 O900 1.259 . S
C882 O901 1.268 . S
C883 Ho880 2.811 . S
C883 C884 1.488 . S
C883 O902 1.215 . S
C883 O903 1.289 . S
C884 C883 1.488 . S
C884 C885 1.348 . S
C884 C889 1.413 . S
C885 C884 1.348 . S
C885 C886 1.442 . S
C885 H912 0.930 . S
C886 C885 1.442 . S
C886 C887 1.381 . S
C886 H913 0.931 . S
C887 C886 1.381 . S
C887 C888 1.321 . S
C888 C887 1.321 . S
C888 C889 1.403 . S
C888 H914 0.934 . S
C889 C884 1.413 . S
C889 C888 1.403 . S
C889 H915 0.930 . S
C890 O904 1.275 . S
C890 O905 1.256 . S
C891 O906 1.259 . S
C891 O907 1.268 . S
C892 Ho881 2.811 . S
C892 C893 1.488 . S
C892 O908 1.215 . S
C892 O909 1.289 . S
C893 C892 1.488 . S
C893 C894 1.348 . S
C893 C898 1.413 . S
C894 C893 1.348 . S
C894 C895 1.442 . S
C894 H916 0.930 . S
C895 C894 1.442 . S
C895 C896 1.381 . S
C895 H917 0.931 . S
C896 C895 1.381 . S
C896 C897 1.321 . S
C897 C896 1.321 . S
C897 C898 1.403 . S
C897 H918 0.934 . S
C898 C893 1.413 . S
C898 C897 1.403 . S
C898 H919 0.930 . S
C899 O910 1.275 . S
C899 O911 1.256 . S
O900 Ho880 2.322 . S
O900 C882 1.259 . S
O901 Ho881 2.346 . S
O901 C882 1.268 . S
O902 Ho880 2.378 . S
O902 C883 1.215 . S
O903 Ho880 2.524 . S
O903 C883 1.289 . S
O904 Ho880 2.381 . S
O904 C890 1.275 . S
O905 Ho880 2.669 . S
O905 Ho881 2.305 . S
O905 C890 1.256 . S
O906 Ho881 2.322 . S
O906 C891 1.259 . S
O907 Ho880 2.346 . S
O907 C891 1.268 . S
O908 Ho881 2.378 . S
O908 C892 1.215 . S
O909 Ho881 2.524 . S
O909 C892 1.289 . S
O910 Ho881 2.381 . S
O910 C899 1.275 . S
O911 Ho880 2.305 . S
O911 Ho881 2.669 . S
O911 C899 1.256 . S
H912 C885 0.930 . S
H913 C886 0.931 . S
H914 C888 0.934 . S
H915 C889 0.930 . S
H916 C894 0.930 . S
H917 C895 0.931 . S
H918 C897 0.934 . S
H919 C898 0.930 . S
Ho920 C923 2.811 . S
Ho920 O940 2.322 . S
Ho920 O942 2.378 . S
Ho920 O943 2.524 . S
Ho920 O944 2.381 . S
Ho920 O945 2.669 . S
Ho920 O947 2.346 . S
Ho920 O951 2.305 . S
Ho921 C932 2.811 . S
Ho921 O941 2.346 . S
Ho921 O945 2.305 . S
Ho921 O946 2.322 . S
Ho921 O948 2.378 . S
Ho921 O949 2.524 . S
Ho921 O950 2.381 . S
Ho921 O951 2.669 . S
C922 O940 1.259 . S
C922 O941 1.268 . S
C923 Ho920 2.811 . S
C923 C924 1.488 . S
C923 O942 1.215 . S
C923 O943 1.289 . S
C924 C923 1.488 . S
C924 C925 1.348 . S
C924 C929 1.413 . S
C925 C924 1.348 . S
C925 C926 1.442 . S
C925 H952 0.930 . S
C926 C925 1.442 . S
C926 C927 1.381 . S
C926 H953 0.931 . S
C927 C926 1.381 . S
C927 C928 1.321 . S
C928 C927 1.321 . S
C928 C929 1.403 . S
C928 H954 0.934 . S
C929 C924 1.413 . S
C929 C928 1.403 . S
C929 H955 0.930 . S
C930 O944 1.275 . S
C930 O945 1.256 . S
C931 O946 1.259 . S
C931 O947 1.268 . S
C932 Ho921 2.811 . S
C932 C933 1.488 . S
C932 O948 1.215 . S
C932 O949 1.289 . S
C933 C932 1.488 . S
C933 C934 1.348 . S
C933 C938 1.413 . S
C934 C933 1.348 . S
C934 C935 1.442 . S
C934 H956 0.930 . S
C935 C934 1.442 . S
C935 C936 1.381 . S
C935 H957 0.931 . S
C936 C935 1.381 . S
C936 C937 1.321 . S
C937 C936 1.321 . S
C937 C938 1.403 . S
C937 H958 0.934 . S
C938 C933 1.413 . S
C938 C937 1.403 . S
C938 H959 0.930 . S
C939 O950 1.275 . S
C939 O951 1.256 . S
O940 Ho920 2.322 . S
O940 C922 1.259 . S
O941 Ho921 2.346 . S
O941 C922 1.268 . S
O942 Ho920 2.378 . S
O942 C923 1.215 . S
O943 Ho920 2.524 . S
O943 C923 1.289 . S
O944 Ho920 2.381 . S
O944 C930 1.275 . S
O945 Ho920 2.669 . S
O945 Ho921 2.305 . S
O945 C930 1.256 . S
O946 Ho921 2.322 . S
O946 C931 1.259 . S
O947 Ho920 2.346 . S
O947 C931 1.268 . S
O948 Ho921 2.378 . S
O948 C932 1.215 . S
O949 Ho921 2.524 . S
O949 C932 1.289 . S
O950 Ho921 2.381 . S
O950 C939 1.275 . S
O951 Ho920 2.305 . S
O951 Ho921 2.669 . S
O951 C939 1.256 . S
H952 C925 0.930 . S
H953 C926 0.931 . S
H954 C928 0.934 . S
H955 C929 0.930 . S
H956 C934 0.930 . S
H957 C935 0.931 . S
H958 C937 0.934 . S
H959 C938 0.930 . S
Ho960 C963 2.811 . S
Ho960 O980 2.322 . S
Ho960 O982 2.378 . S
Ho960 O983 2.524 . S
Ho960 O984 2.381 . S
Ho960 O985 2.669 . S
Ho960 O987 2.346 . S
Ho960 O991 2.305 . S
Ho961 C972 2.811 . S
Ho961 O981 2.346 . S
Ho961 O985 2.305 . S
Ho961 O986 2.322 . S
Ho961 O988 2.378 . S
Ho961 O989 2.524 . S
Ho961 O990 2.381 . S
Ho961 O991 2.669 . S
C962 O980 1.259 . S
C962 O981 1.268 . S
C963 Ho960 2.811 . S
C963 C964 1.488 . S
C963 O982 1.215 . S
C963 O983 1.289 . S
C964 C963 1.488 . S
C964 C965 1.348 . S
C964 C969 1.413 . S
C965 C964 1.348 . S
C965 C966 1.442 . S
C965 H992 0.930 . S
C966 C965 1.442 . S
C966 C967 1.381 . S
C966 H993 0.931 . S
C967 C966 1.381 . S
C967 C968 1.321 . S
C968 C967 1.321 . S
C968 C969 1.403 . S
C968 H994 0.934 . S
C969 C964 1.413 . S
C969 C968 1.403 . S
C969 H995 0.930 . S
C970 O984 1.275 . S
C970 O985 1.256 . S
C971 O986 1.259 . S
C971 O987 1.268 . S
C972 Ho961 2.811 . S
C972 C973 1.488 . S
C972 O988 1.215 . S
C972 O989 1.289 . S
C973 C972 1.488 . S
C973 C974 1.348 . S
C973 C978 1.413 . S
C974 C973 1.348 . S
C974 C975 1.442 . S
C974 H996 0.930 . S
C975 C974 1.442 . S
C975 C976 1.381 . S
C975 H997 0.931 . S
C976 C975 1.381 . S
C976 C977 1.321 . S
C977 C976 1.321 . S
C977 C978 1.403 . S
C977 H998 0.934 . S
C978 C973 1.413 . S
C978 C977 1.403 . S
C978 H999 0.930 . S
C979 O990 1.275 . S
C979 O991 1.256 . S
O980 Ho960 2.322 . S
O980 C962 1.259 . S
O981 Ho961 2.346 . S
O981 C962 1.268 . S
O982 Ho960 2.378 . S
O982 C963 1.215 . S
O983 Ho960 2.524 . S
O983 C963 1.289 . S
O984 Ho960 2.381 . S
O984 C970 1.275 . S
O985 Ho960 2.669 . S
O985 Ho961 2.305 . S
O985 C970 1.256 . S
O986 Ho961 2.322 . S
O986 C971 1.259 . S
O987 Ho960 2.346 . S
O987 C971 1.268 . S
O988 Ho961 2.378 . S
O988 C972 1.215 . S
O989 Ho961 2.524 . S
O989 C972 1.289 . S
O990 Ho961 2.381 . S
O990 C979 1.275 . S
O991 Ho960 2.305 . S
O991 Ho961 2.669 . S
O991 C979 1.256 . S
H992 C965 0.930 . S
H993 C966 0.931 . S
H994 C968 0.934 . S
H995 C969 0.930 . S
H996 C974 0.930 . S
H997 C975 0.931 . S
H998 C977 0.934 . S
H999 C978 0.930 . S
Ho1000 C1003 2.811 . S
Ho1000 O1020 2.322 . S
Ho1000 O1022 2.378 . S
Ho1000 O1023 2.524 . S
Ho1000 O1024 2.381 . S
Ho1000 O1025 2.669 . S
Ho1000 O1027 2.346 . S
Ho1000 O1031 2.305 . S
Ho1001 C1012 2.811 . S
Ho1001 O1021 2.346 . S
Ho1001 O1025 2.305 . S
Ho1001 O1026 2.322 . S
Ho1001 O1028 2.378 . S
Ho1001 O1029 2.524 . S
Ho1001 O1030 2.381 . S
Ho1001 O1031 2.669 . S
C1002 O1020 1.259 . S
C1002 O1021 1.268 . S
C1003 Ho1000 2.811 . S
C1003 C1004 1.488 . S
C1003 O1022 1.215 . S
C1003 O1023 1.289 . S
C1004 C1003 1.488 . S
C1004 C1005 1.348 . S
C1004 C1009 1.413 . S
C1005 C1004 1.348 . S
C1005 C1006 1.442 . S
C1005 H1032 0.930 . S
C1006 C1005 1.442 . S
C1006 C1007 1.381 . S
C1006 H1033 0.931 . S
C1007 C1006 1.381 . S
C1007 C1008 1.321 . S
C1008 C1007 1.321 . S
C1008 C1009 1.403 . S
C1008 H1034 0.934 . S
C1009 C1004 1.413 . S
C1009 C1008 1.403 . S
C1009 H1035 0.930 . S
C1010 O1024 1.275 . S
C1010 O1025 1.256 . S
C1011 O1026 1.259 . S
C1011 O1027 1.268 . S
C1012 Ho1001 2.811 . S
C1012 C1013 1.488 . S
C1012 O1028 1.215 . S
C1012 O1029 1.289 . S
C1013 C1012 1.488 . S
C1013 C1014 1.348 . S
C1013 C1018 1.413 . S
C1014 C1013 1.348 . S
C1014 C1015 1.442 . S
C1014 H1036 0.930 . S
C1015 C1014 1.442 . S
C1015 C1016 1.381 . S
C1015 H1037 0.931 . S
C1016 C1015 1.381 . S
C1016 C1017 1.321 . S
C1017 C1016 1.321 . S
C1017 C1018 1.403 . S
C1017 H1038 0.934 . S
C1018 C1013 1.413 . S
C1018 C1017 1.403 . S
C1018 H1039 0.930 . S
C1019 O1030 1.275 . S
C1019 O1031 1.256 . S
O1020 Ho1000 2.322 . S
O1020 C1002 1.259 . S
O1021 Ho1001 2.346 . S
O1021 C1002 1.268 . S
O1022 Ho1000 2.378 . S
O1022 C1003 1.215 . S
O1023 Ho1000 2.524 . S
O1023 C1003 1.289 . S
O1024 Ho1000 2.381 . S
O1024 C1010 1.275 . S
O1025 Ho1000 2.669 . S
O1025 Ho1001 2.305 . S
O1025 C1010 1.256 . S
O1026 Ho1001 2.322 . S
O1026 C1011 1.259 . S
O1027 Ho1000 2.346 . S
O1027 C1011 1.268 . S
O1028 Ho1001 2.378 . S
O1028 C1012 1.215 . S
O1029 Ho1001 2.524 . S
O1029 C1012 1.289 . S
O1030 Ho1001 2.381 . S
O1030 C1019 1.275 . S
O1031 Ho1000 2.305 . S
O1031 Ho1001 2.669 . S
O1031 C1019 1.256 . S
H1032 C1005 0.930 . S
H1033 C1006 0.931 . S
H1034 C1008 0.934 . S
H1035 C1009 0.930 . S
H1036 C1014 0.930 . S
H1037 C1015 0.931 . S
H1038 C1017 0.934 . S
H1039 C1018 0.930 . S
Ho1040 C1043 2.811 . S
Ho1040 O1060 2.322 . S
Ho1040 O1062 2.378 . S
Ho1040 O1063 2.524 . S
Ho1040 O1064 2.381 . S
Ho1040 O1065 2.669 . S
Ho1040 O1067 2.346 . S
Ho1040 O1071 2.305 . S
Ho1041 C1052 2.811 . S
Ho1041 O1061 2.346 . S
Ho1041 O1065 2.305 . S
Ho1041 O1066 2.322 . S
Ho1041 O1068 2.378 . S
Ho1041 O1069 2.524 . S
Ho1041 O1070 2.381 . S
Ho1041 O1071 2.669 . S
C1042 O1060 1.259 . S
C1042 O1061 1.268 . S
C1043 Ho1040 2.811 . S
C1043 C1044 1.488 . S
C1043 O1062 1.215 . S
C1043 O1063 1.289 . S
C1044 C1043 1.488 . S
C1044 C1045 1.348 . S
C1044 C1049 1.413 . S
C1045 C1044 1.348 . S
C1045 C1046 1.442 . S
C1045 H1072 0.930 . S
C1046 C1045 1.442 . S
C1046 C1047 1.381 . S
C1046 H1073 0.931 . S
C1047 C1046 1.381 . S
C1047 C1048 1.321 . S
C1048 C1047 1.321 . S
C1048 C1049 1.403 . S
C1048 H1074 0.934 . S
C1049 C1044 1.413 . S
C1049 C1048 1.403 . S
C1049 H1075 0.930 . S
C1050 O1064 1.275 . S
C1050 O1065 1.256 . S
C1051 O1066 1.259 . S
C1051 O1067 1.268 . S
C1052 Ho1041 2.811 . S
C1052 C1053 1.488 . S
C1052 O1068 1.215 . S
C1052 O1069 1.289 . S
C1053 C1052 1.488 . S
C1053 C1054 1.348 . S
C1053 C1058 1.413 . S
C1054 C1053 1.348 . S
C1054 C1055 1.442 . S
C1054 H1076 0.930 . S
C1055 C1054 1.442 . S
C1055 C1056 1.381 . S
C1055 H1077 0.931 . S
C1056 C1055 1.381 . S
C1056 C1057 1.321 . S
C1057 C1056 1.321 . S
C1057 C1058 1.403 . S
C1057 H1078 0.934 . S
C1058 C1053 1.413 . S
C1058 C1057 1.403 . S
C1058 H1079 0.930 . S
C1059 O1070 1.275 . S
C1059 O1071 1.256 . S
O1060 Ho1040 2.322 . S
O1060 C1042 1.259 . S
O1061 Ho1041 2.346 . S
O1061 C1042 1.268 . S
O1062 Ho1040 2.378 . S
O1062 C1043 1.215 . S
O1063 Ho1040 2.524 . S
O1063 C1043 1.289 . S
O1064 Ho1040 2.381 . S
O1064 C1050 1.275 . S
O1065 Ho1040 2.669 . S
O1065 Ho1041 2.305 . S
O1065 C1050 1.256 . S
O1066 Ho1041 2.322 . S
O1066 C1051 1.259 . S
O1067 Ho1040 2.346 . S
O1067 C1051 1.268 . S
O1068 Ho1041 2.378 . S
O1068 C1052 1.215 . S
O1069 Ho1041 2.524 . S
O1069 C1052 1.289 . S
O1070 Ho1041 2.381 . S
O1070 C1059 1.275 . S
O1071 Ho1040 2.305 . S
O1071 Ho1041 2.669 . S
O1071 C1059 1.256 . S
H1072 C1045 0.930 . S
H1073 C1046 0.931 . S
H1074 C1048 0.934 . S
H1075 C1049 0.930 . S
H1076 C1054 0.930 . S
H1077 C1055 0.931 . S
H1078 C1057 0.934 . S
H1079 C1058 0.930 . S
Ho1080 C1083 2.811 . S
Ho1080 O1100 2.322 . S
Ho1080 O1102 2.378 . S
Ho1080 O1103 2.524 . S
Ho1080 O1104 2.381 . S
Ho1080 O1105 2.669 . S
Ho1080 O1107 2.346 . S
Ho1080 O1111 2.305 . S
Ho1081 C1092 2.811 . S
Ho1081 O1101 2.346 . S
Ho1081 O1105 2.305 1_655 S
Ho1081 O1106 2.322 1_655 S
Ho1081 O1108 2.378 . S
Ho1081 O1109 2.524 . S
Ho1081 O1110 2.381 1_655 S
Ho1081 O1111 2.669 1_655 S
C1082 O1100 1.259 . S
C1082 O1101 1.268 1_455 S
C1083 Ho1080 2.811 . S
C1083 C1084 1.488 . S
C1083 O1102 1.215 . S
C1083 O1103 1.289 . S
C1084 C1083 1.488 . S
C1084 C1085 1.348 . S
C1084 C1089 1.413 . S
C1085 C1084 1.348 . S
C1085 C1086 1.442 . S
C1085 H1112 0.930 . S
C1086 C1085 1.442 . S
C1086 C1087 1.381 . S
C1086 H1113 0.931 . S
C1087 C1086 1.381 . S
C1087 C1088 1.321 . S
C1088 C1087 1.321 . S
C1088 C1089 1.403 . S
C1088 H1114 0.934 . S
C1089 C1084 1.413 . S
C1089 C1088 1.403 . S
C1089 H1115 0.930 . S
C1090 O1104 1.275 . S
C1090 O1105 1.256 . S
C1091 O1106 1.259 . S
C1091 O1107 1.268 . S
C1092 Ho1081 2.811 . S
C1092 C1093 1.488 . S
C1092 O1108 1.215 . S
C1092 O1109 1.289 . S
C1093 C1092 1.488 . S
C1093 C1094 1.348 . S
C1093 C1098 1.413 . S
C1094 C1093 1.348 . S
C1094 C1095 1.442 . S
C1094 H1116 0.930 . S
C1095 C1094 1.442 . S
C1095 C1096 1.381 . S
C1095 H1117 0.931 . S
C1096 C1095 1.381 . S
C1096 C1097 1.321 . S
C1097 C1096 1.321 . S
C1097 C1098 1.403 . S
C1097 H1118 0.934 . S
C1098 C1093 1.413 . S
C1098 C1097 1.403 . S
C1098 H1119 0.930 . S
C1099 O1110 1.275 . S
C1099 O1111 1.256 . S
O1100 Ho1080 2.322 . S
O1100 C1082 1.259 . S
O1101 Ho1081 2.346 . S
O1101 C1082 1.268 1_655 S
O1102 Ho1080 2.378 . S
O1102 C1083 1.215 . S
O1103 Ho1080 2.524 . S
O1103 C1083 1.289 . S
O1104 Ho1080 2.381 . S
O1104 C1090 1.275 . S
O1105 Ho1080 2.669 . S
O1105 Ho1081 2.305 1_455 S
O1105 C1090 1.256 . S
O1106 Ho1081 2.322 1_455 S
O1106 C1091 1.259 . S
O1107 Ho1080 2.346 . S
O1107 C1091 1.268 . S
O1108 Ho1081 2.378 . S
O1108 C1092 1.215 . S
O1109 Ho1081 2.524 . S
O1109 C1092 1.289 . S
O1110 Ho1081 2.381 1_455 S
O1110 C1099 1.275 . S
O1111 Ho1080 2.305 . S
O1111 Ho1081 2.669 1_455 S
O1111 C1099 1.256 . S
H1112 C1085 0.930 . S
H1113 C1086 0.931 . S
H1114 C1088 0.934 . S
H1115 C1089 0.930 . S
H1116 C1094 0.930 . S
H1117 C1095 0.931 . S
H1118 C1097 0.934 . S
H1119 C1098 0.930 . S
Ho1120 C1123 2.811 . S
Ho1120 O1140 2.322 . S
Ho1120 O1142 2.378 . S
Ho1120 O1143 2.524 . S
Ho1120 O1144 2.381 . S
Ho1120 O1145 2.669 . S
Ho1120 O1147 2.346 . S
Ho1120 O1151 2.305 . S
Ho1121 C1132 2.811 . S
Ho1121 O1141 2.346 . S
Ho1121 O1145 2.305 . S
Ho1121 O1146 2.322 . S
Ho1121 O1148 2.378 . S
Ho1121 O1149 2.524 . S
Ho1121 O1150 2.381 . S
Ho1121 O1151 2.669 . S
C1122 O1140 1.259 . S
C1122 O1141 1.268 . S
C1123 Ho1120 2.811 . S
C1123 C1124 1.488 . S
C1123 O1142 1.215 . S
C1123 O1143 1.289 . S
C1124 C1123 1.488 . S
C1124 C1125 1.348 . S
C1124 C1129 1.413 . S
C1125 C1124 1.348 . S
C1125 C1126 1.442 . S
C1125 H1152 0.930 . S
C1126 C1125 1.442 . S
C1126 C1127 1.381 . S
C1126 H1153 0.931 . S
C1127 C1126 1.381 . S
C1127 C1128 1.321 . S
C1128 C1127 1.321 . S
C1128 C1129 1.403 . S
C1128 H1154 0.934 . S
C1129 C1124 1.413 . S
C1129 C1128 1.403 . S
C1129 H1155 0.930 . S
C1130 O1144 1.275 . S
C1130 O1145 1.256 . S
C1131 O1146 1.259 . S
C1131 O1147 1.268 . S
C1132 Ho1121 2.811 . S
C1132 C1133 1.488 . S
C1132 O1148 1.215 . S
C1132 O1149 1.289 . S
C1133 C1132 1.488 . S
C1133 C1134 1.348 . S
C1133 C1138 1.413 . S
C1134 C1133 1.348 . S
C1134 C1135 1.442 . S
C1134 H1156 0.930 . S
C1135 C1134 1.442 . S
C1135 C1136 1.381 . S
C1135 H1157 0.931 . S
C1136 C1135 1.381 . S
C1136 C1137 1.321 . S
C1137 C1136 1.321 . S
C1137 C1138 1.403 . S
C1137 H1158 0.934 . S
C1138 C1133 1.413 . S
C1138 C1137 1.403 . S
C1138 H1159 0.930 . S
C1139 O1150 1.275 . S
C1139 O1151 1.256 . S
O1140 Ho1120 2.322 . S
O1140 C1122 1.259 . S
O1141 Ho1121 2.346 . S
O1141 C1122 1.268 . S
O1142 Ho1120 2.378 . S
O1142 C1123 1.215 . S
O1143 Ho1120 2.524 . S
O1143 C1123 1.289 . S
O1144 Ho1120 2.381 . S
O1144 C1130 1.275 . S
O1145 Ho1120 2.669 . S
O1145 Ho1121 2.305 . S
O1145 C1130 1.256 . S
O1146 Ho1121 2.322 . S
O1146 C1131 1.259 . S
O1147 Ho1120 2.346 . S
O1147 C1131 1.268 . S
O1148 Ho1121 2.378 . S
O1148 C1132 1.215 . S
O1149 Ho1121 2.524 . S
O1149 C1132 1.289 . S
O1150 Ho1121 2.381 . S
O1150 C1139 1.275 . S
O1151 Ho1120 2.305 . S
O1151 Ho1121 2.669 . S
O1151 C1139 1.256 . S
H1152 C1125 0.930 . S
H1153 C1126 0.931 . S
H1154 C1128 0.934 . S
H1155 C1129 0.930 . S
H1156 C1134 0.930 . S
H1157 C1135 0.931 . S
H1158 C1137 0.934 . S
H1159 C1138 0.930 . S
Ho1160 C1163 2.811 . S
Ho1160 O1180 2.322 . S
Ho1160 O1182 2.378 . S
Ho1160 O1183 2.524 . S
Ho1160 O1184 2.381 . S
Ho1160 O1185 2.669 . S
Ho1160 O1187 2.346 . S
Ho1160 O1191 2.305 . S
Ho1161 C1172 2.811 . S
Ho1161 O1181 2.346 . S
Ho1161 O1185 2.305 1_655 S
Ho1161 O1186 2.322 1_655 S
Ho1161 O1188 2.378 . S
Ho1161 O1189 2.524 . S
Ho1161 O1190 2.381 1_655 S
Ho1161 O1191 2.669 1_655 S
C1162 O1180 1.259 . S
C1162 O1181 1.268 1_455 S
C1163 Ho1160 2.811 . S
C1163 C1164 1.488 . S
C1163 O1182 1.215 . S
C1163 O1183 1.289 . S
C1164 C1163 1.488 . S
C1164 C1165 1.348 . S
C1164 C1169 1.413 . S
C1165 C1164 1.348 . S
C1165 C1166 1.442 . S
C1165 H1192 0.930 . S
C1166 C1165 1.442 . S
C1166 C1167 1.381 . S
C1166 H1193 0.931 . S
C1167 C1166 1.381 . S
C1167 C1168 1.321 . S
C1168 C1167 1.321 . S
C1168 C1169 1.403 . S
C1168 H1194 0.934 . S
C1169 C1164 1.413 . S
C1169 C1168 1.403 . S
C1169 H1195 0.930 . S
C1170 O1184 1.275 . S
C1170 O1185 1.256 . S
C1171 O1186 1.259 . S
C1171 O1187 1.268 . S
C1172 Ho1161 2.811 . S
C1172 C1173 1.488 . S
C1172 O1188 1.215 . S
C1172 O1189 1.289 . S
C1173 C1172 1.488 . S
C1173 C1174 1.348 . S
C1173 C1178 1.413 . S
C1174 C1173 1.348 . S
C1174 C1175 1.442 . S
C1174 H1196 0.930 . S
C1175 C1174 1.442 . S
C1175 C1176 1.381 . S
C1175 H1197 0.931 . S
C1176 C1175 1.381 . S
C1176 C1177 1.321 . S
C1177 C1176 1.321 . S
C1177 C1178 1.403 . S
C1177 H1198 0.934 . S
C1178 C1173 1.413 . S
C1178 C1177 1.403 . S
C1178 H1199 0.930 . S
C1179 O1190 1.275 . S
C1179 O1191 1.256 . S
O1180 Ho1160 2.322 . S
O1180 C1162 1.259 . S
O1181 Ho1161 2.346 . S
O1181 C1162 1.268 1_655 S
O1182 Ho1160 2.378 . S
O1182 C1163 1.215 . S
O1183 Ho1160 2.524 . S
O1183 C1163 1.289 . S
O1184 Ho1160 2.381 . S
O1184 C1170 1.275 . S
O1185 Ho1160 2.669 . S
O1185 Ho1161 2.305 1_455 S
O1185 C1170 1.256 . S
O1186 Ho1161 2.322 1_455 S
O1186 C1171 1.259 . S
O1187 Ho1160 2.346 . S
O1187 C1171 1.268 . S
O1188 Ho1161 2.378 . S
O1188 C1172 1.215 . S
O1189 Ho1161 2.524 . S
O1189 C1172 1.289 . S
O1190 Ho1161 2.381 1_455 S
O1190 C1179 1.275 . S
O1191 Ho1160 2.305 . S
O1191 Ho1161 2.669 1_455 S
O1191 C1179 1.256 . S
H1192 C1165 0.930 . S
H1193 C1166 0.931 . S
H1194 C1168 0.934 . S
H1195 C1169 0.930 . S
H1196 C1174 0.930 . S
H1197 C1175 0.931 . S
H1198 C1177 0.934 . S
H1199 C1178 0.930 . S
Ho1200 C1203 2.811 . S
Ho1200 O1220 2.322 . S
Ho1200 O1222 2.378 . S
Ho1200 O1223 2.524 . S
Ho1200 O1224 2.381 . S
Ho1200 O1225 2.669 . S
Ho1200 O1227 2.346 . S
Ho1200 O1231 2.305 . S
Ho1201 C1212 2.811 . S
Ho1201 O1221 2.346 . S
Ho1201 O1225 2.305 . S
Ho1201 O1226 2.322 . S
Ho1201 O1228 2.378 . S
Ho1201 O1229 2.524 . S
Ho1201 O1230 2.381 . S
Ho1201 O1231 2.669 . S
C1202 O1220 1.259 . S
C1202 O1221 1.268 . S
C1203 Ho1200 2.811 . S
C1203 C1204 1.488 . S
C1203 O1222 1.215 . S
C1203 O1223 1.289 . S
C1204 C1203 1.488 . S
C1204 C1205 1.348 . S
C1204 C1209 1.413 . S
C1205 C1204 1.348 . S
C1205 C1206 1.442 . S
C1205 H1232 0.930 . S
C1206 C1205 1.442 . S
C1206 C1207 1.381 . S
C1206 H1233 0.931 . S
C1207 C1206 1.381 . S
C1207 C1208 1.321 . S
C1208 C1207 1.321 . S
C1208 C1209 1.403 . S
C1208 H1234 0.934 . S
C1209 C1204 1.413 . S
C1209 C1208 1.403 . S
C1209 H1235 0.930 . S
C1210 O1224 1.275 . S
C1210 O1225 1.256 . S
C1211 O1226 1.259 . S
C1211 O1227 1.268 . S
C1212 Ho1201 2.811 . S
C1212 C1213 1.488 . S
C1212 O1228 1.215 . S
C1212 O1229 1.289 . S
C1213 C1212 1.488 . S
C1213 C1214 1.348 . S
C1213 C1218 1.413 . S
C1214 C1213 1.348 . S
C1214 C1215 1.442 . S
C1214 H1236 0.930 . S
C1215 C1214 1.442 . S
C1215 C1216 1.381 . S
C1215 H1237 0.931 . S
C1216 C1215 1.381 . S
C1216 C1217 1.321 . S
C1217 C1216 1.321 . S
C1217 C1218 1.403 . S
C1217 H1238 0.934 . S
C1218 C1213 1.413 . S
C1218 C1217 1.403 . S
C1218 H1239 0.930 . S
C1219 O1230 1.275 . S
C1219 O1231 1.256 . S
O1220 Ho1200 2.322 . S
O1220 C1202 1.259 . S
O1221 Ho1201 2.346 . S
O1221 C1202 1.268 . S
O1222 Ho1200 2.378 . S
O1222 C1203 1.215 . S
O1223 Ho1200 2.524 . S
O1223 C1203 1.289 . S
O1224 Ho1200 2.381 . S
O1224 C1210 1.275 . S
O1225 Ho1200 2.669 . S
O1225 Ho1201 2.305 . S
O1225 C1210 1.256 . S
O1226 Ho1201 2.322 . S
O1226 C1211 1.259 . S
O1227 Ho1200 2.346 . S
O1227 C1211 1.268 . S
O1228 Ho1201 2.378 . S
O1228 C1212 1.215 . S
O1229 Ho1201 2.524 . S
O1229 C1212 1.289 . S
O1230 Ho1201 2.381 . S
O1230 C1219 1.275 . S
O1231 Ho1200 2.305 . S
O1231 Ho1201 2.669 . S
O1231 C1219 1.256 . S
H1232 C1205 0.930 . S
H1233 C1206 0.931 . S
H1234 C1208 0.934 . S
H1235 C1209 0.930 . S
H1236 C1214 0.930 . S
H1237 C1215 0.931 . S
H1238 C1217 0.934 . S
H1239 C1218 0.930 . S
Ho1240 C1243 2.811 . S
Ho1240 O1260 2.322 . S
Ho1240 O1262 2.378 . S
Ho1240 O1263 2.524 . S
Ho1240 O1264 2.381 . S
Ho1240 O1265 2.669 . S
Ho1240 O1267 2.346 . S
Ho1240 O1271 2.305 . S
Ho1241 C1252 2.811 . S
Ho1241 O1261 2.346 . S
Ho1241 O1265 2.305 . S
Ho1241 O1266 2.322 . S
Ho1241 O1268 2.378 . S
Ho1241 O1269 2.524 . S
Ho1241 O1270 2.381 . S
Ho1241 O1271 2.669 . S
C1242 O1260 1.259 . S
C1242 O1261 1.268 . S
C1243 Ho1240 2.811 . S
C1243 C1244 1.488 . S
C1243 O1262 1.215 . S
C1243 O1263 1.289 . S
C1244 C1243 1.488 . S
C1244 C1245 1.348 . S
C1244 C1249 1.413 . S
C1245 C1244 1.348 . S
C1245 C1246 1.442 . S
C1245 H1272 0.930 . S
C1246 C1245 1.442 . S
C1246 C1247 1.381 . S
C1246 H1273 0.931 . S
C1247 C1246 1.381 . S
C1247 C1248 1.321 . S
C1248 C1247 1.321 . S
C1248 C1249 1.403 . S
C1248 H1274 0.934 . S
C1249 C1244 1.413 . S
C1249 C1248 1.403 . S
C1249 H1275 0.930 . S
C1250 O1264 1.275 . S
C1250 O1265 1.256 . S
C1251 O1266 1.259 . S
C1251 O1267 1.268 . S
C1252 Ho1241 2.811 . S
C1252 C1253 1.488 . S
C1252 O1268 1.215 . S
C1252 O1269 1.289 . S
C1253 C1252 1.488 . S
C1253 C1254 1.348 . S
C1253 C1258 1.413 . S
C1254 C1253 1.348 . S
C1254 C1255 1.442 . S
C1254 H1276 0.930 . S
C1255 C1254 1.442 . S
C1255 C1256 1.381 . S
C1255 H1277 0.931 . S
C1256 C1255 1.381 . S
C1256 C1257 1.321 . S
C1257 C1256 1.321 . S
C1257 C1258 1.403 . S
C1257 H1278 0.934 . S
C1258 C1253 1.413 . S
C1258 C1257 1.403 . S
C1258 H1279 0.930 . S
C1259 O1270 1.275 . S
C1259 O1271 1.256 . S
O1260 Ho1240 2.322 . S
O1260 C1242 1.259 . S
O1261 Ho1241 2.346 . S
O1261 C1242 1.268 . S
O1262 Ho1240 2.378 . S
O1262 C1243 1.215 . S
O1263 Ho1240 2.524 . S
O1263 C1243 1.289 . S
O1264 Ho1240 2.381 . S
O1264 C1250 1.275 . S
O1265 Ho1240 2.669 . S
O1265 Ho1241 2.305 . S
O1265 C1250 1.256 . S
O1266 Ho1241 2.322 . S
O1266 C1251 1.259 . S
O1267 Ho1240 2.346 . S
O1267 C1251 1.268 . S
O1268 Ho1241 2.378 . S
O1268 C1252 1.215 . S
O1269 Ho1241 2.524 . S
O1269 C1252 1.289 . S
O1270 Ho1241 2.381 . S
O1270 C1259 1.275 . S
O1271 Ho1240 2.305 . S
O1271 Ho1241 2.669 . S
O1271 C1259 1.256 . S
H1272 C1245 0.930 . S
H1273 C1246 0.931 . S
H1274 C1248 0.934 . S
H1275 C1249 0.930 . S
H1276 C1254 0.930 . S
H1277 C1255 0.931 . S
H1278 C1257 0.934 . S
H1279 C1258 0.930 . S
C1280 C1281 1.387 . S
C1280 H1284 0.950 . S
C1280 C1289 1.390 . S
C1281 C1280 1.387 . S
C1281 C1283 1.387 . S
H1282 C1289 0.950 . S
C1283 C1281 1.387 . S
C1283 C1285 1.390 . S
C1283 H1287 0.950 . S
H1284 C1280 0.950 . S
C1285 C1283 1.390 . S
C1285 C1286 1.387 . S
C1285 H1288 0.950 . S
C1286 C1285 1.387 . S
C1286 C1289 1.387 . S
H1287 C1283 0.950 . S
H1288 C1285 0.950 . S
C1289 C1280 1.390 . S
C1289 H1282 0.950 . S
C1289 C1286 1.387 . S
C1290 C1291 1.387 . S
C1290 H1294 0.950 . S
C1290 C1299 1.390 . S
C1291 C1290 1.387 . S
C1291 C1293 1.387 . S
H1292 C1299 0.950 . S
C1293 C1291 1.387 . S
C1293 C1295 1.390 . S
C1293 H1297 0.950 . S
H1294 C1290 0.950 . S
C1295 C1293 1.390 . S
C1295 C1296 1.387 . S
C1295 H1298 0.950 . S
C1296 C1295 1.387 . S
C1296 C1299 1.387 . S
H1297 C1293 0.950 . S
H1298 C1295 0.950 . S
C1299 C1290 1.390 . S
C1299 H1292 0.950 . S
C1299 C1296 1.387 . S
C1300 C1301 1.387 . S
C1300 H1304 0.950 . S
C1300 C1309 1.390 . S
C1301 C1300 1.387 . S
C1301 C1303 1.387 . S
H1302 C1309 0.950 . S
C1303 C1301 1.387 . S
C1303 C1305 1.390 . S
C1303 H1307 0.950 . S
H1304 C1300 0.950 . S
C1305 C1303 1.390 . S
C1305 C1306 1.387 . S
C1305 H1308 0.950 . S
C1306 C1305 1.387 . S
C1306 C1309 1.387 . S
H1307 C1303 0.950 . S
H1308 C1305 0.950 . S
C1309 C1300 1.390 . S
C1309 H1302 0.950 . S
C1309 C1306 1.387 . S
C1310 C1311 1.387 . S
C1310 H1314 0.950 . S
C1310 C1319 1.390 . S
C1311 C1310 1.387 . S
C1311 C1313 1.387 . S
H1312 C1319 0.950 . S
C1313 C1311 1.387 . S
C1313 C1315 1.390 . S
C1313 H1317 0.950 . S
H1314 C1310 0.950 . S
C1315 C1313 1.390 . S
C1315 C1316 1.387 . S
C1315 H1318 0.950 . S
C1316 C1315 1.387 . S
C1316 C1319 1.387 . S
H1317 C1313 0.950 . S
H1318 C1315 0.950 . S
C1319 C1310 1.390 . S
C1319 H1312 0.950 . S
C1319 C1316 1.387 . S
C1320 C1321 1.387 . S
C1320 H1324 0.950 . S
C1320 C1329 1.390 . S
C1321 C1320 1.387 . S
C1321 C1323 1.387 . S
H1322 C1329 0.950 . S
C1323 C1321 1.387 . S
C1323 C1325 1.390 . S
C1323 H1327 0.950 . S
H1324 C1320 0.950 . S
C1325 C1323 1.390 . S
C1325 C1326 1.387 . S
C1325 H1328 0.950 . S
C1326 C1325 1.387 . S
C1326 C1329 1.387 . S
H1327 C1323 0.950 . S
H1328 C1325 0.950 . S
C1329 C1320 1.390 . S
C1329 H1322 0.950 . S
C1329 C1326 1.387 . S
C1330 C1331 1.387 . S
C1330 H1334 0.950 . S
C1330 C1339 1.390 . S
C1331 C1330 1.387 . S
C1331 C1333 1.387 . S
H1332 C1339 0.950 . S
C1333 C1331 1.387 . S
C1333 C1335 1.390 . S
C1333 H1337 0.950 . S
H1334 C1330 0.950 . S
C1335 C1333 1.390 . S
C1335 C1336 1.387 . S
C1335 H1338 0.950 . S
C1336 C1335 1.387 . S
C1336 C1339 1.387 . S
H1337 C1333 0.950 . S
H1338 C1335 0.950 . S
C1339 C1330 1.390 . S
C1339 H1332 0.950 . S
C1339 C1336 1.387 . S
C1340 C1341 1.387 . S
C1340 H1344 0.950 . S
C1340 C1349 1.390 . S
C1341 C1340 1.387 . S
C1341 C1343 1.387 . S
H1342 C1349 0.950 . S
C1343 C1341 1.387 . S
C1343 C1345 1.390 . S
C1343 H1347 0.950 . S
H1344 C1340 0.950 . S
C1345 C1343 1.390 . S
C1345 C1346 1.387 . S
C1345 H1348 0.950 . S
C1346 C1345 1.387 . S
C1346 C1349 1.387 . S
H1347 C1343 0.950 . S
H1348 C1345 0.950 . S
C1349 C1340 1.390 . S
C1349 H1342 0.950 . S
C1349 C1346 1.387 . S
C1350 C1351 1.387 . S
C1350 H1354 0.950 . S
C1350 C1359 1.390 . S
C1351 C1350 1.387 . S
C1351 C1353 1.387 . S
H1352 C1359 0.950 . S
C1353 C1351 1.387 . S
C1353 C1355 1.390 . S
C1353 H1357 0.950 . S
H1354 C1350 0.950 . S
C1355 C1353 1.390 . S
C1355 C1356 1.387 . S
C1355 H1358 0.950 . S
C1356 C1355 1.387 . S
C1356 C1359 1.387 . S
H1357 C1353 0.950 . S
H1358 C1355 0.950 . S
C1359 C1350 1.390 . S
C1359 H1352 0.950 . S
C1359 C1356 1.387 . S
C1360 C1361 1.387 . S
C1360 H1364 0.950 . S
C1360 C1369 1.390 . S
C1361 C1360 1.387 . S
C1361 C1363 1.387 . S
H1362 C1369 0.950 . S
C1363 C1361 1.387 . S
C1363 C1365 1.390 . S
C1363 H1367 0.950 . S
H1364 C1360 0.950 . S
C1365 C1363 1.390 . S
C1365 C1366 1.387 . S
C1365 H1368 0.950 . S
C1366 C1365 1.387 . S
C1366 C1369 1.387 . S
H1367 C1363 0.950 . S
H1368 C1365 0.950 . S
C1369 C1360 1.390 . S
C1369 H1362 0.950 . S
C1369 C1366 1.387 . S
C1370 C1371 1.387 . S
C1370 H1374 0.950 . S
C1370 C1379 1.390 . S
C1371 C1370 1.387 . S
C1371 C1373 1.387 . S
H1372 C1379 0.950 . S
C1373 C1371 1.387 . S
C1373 C1375 1.390 . S
C1373 H1377 0.950 . S
H1374 C1370 0.950 . S
C1375 C1373 1.390 . S
C1375 C1376 1.387 . S
C1375 H1378 0.950 . S
C1376 C1375 1.387 . S
C1376 C1379 1.387 . S
H1377 C1373 0.950 . S
H1378 C1375 0.950 . S
C1379 C1370 1.390 . S
C1379 H1372 0.950 . S
C1379 C1376 1.387 . S
C1380 C1381 1.387 . S
C1380 H1384 0.950 . S
C1380 C1389 1.390 . S
C1381 C1380 1.387 . S
C1381 C1383 1.387 . S
H1382 C1389 0.950 . S
C1383 C1381 1.387 . S
C1383 C1385 1.390 . S
C1383 H1387 0.950 . S
H1384 C1380 0.950 . S
C1385 C1383 1.390 . S
C1385 C1386 1.387 . S
C1385 H1388 0.950 . S
C1386 C1385 1.387 . S
C1386 C1389 1.387 . S
H1387 C1383 0.950 . S
H1388 C1385 0.950 . S
C1389 C1380 1.390 . S
C1389 H1382 0.950 . S
C1389 C1386 1.387 . S
C1390 C1391 1.387 . S
C1390 H1394 0.950 . S
C1390 C1399 1.390 . S
C1391 C1390 1.387 . S
C1391 C1393 1.387 . S
H1392 C1399 0.950 . S
C1393 C1391 1.387 . S
C1393 C1395 1.390 . S
C1393 H1397 0.950 . S
H1394 C1390 0.950 . S
C1395 C1393 1.390 . S
C1395 C1396 1.387 . S
C1395 H1398 0.950 . S
C1396 C1395 1.387 . S
C1396 C1399 1.387 . S
H1397 C1393 0.950 . S
H1398 C1395 0.950 . S
C1399 C1390 1.390 . S
C1399 H1392 0.950 . S
C1399 C1396 1.387 . S
C1400 C1401 1.387 . S
C1400 H1404 0.950 . S
C1400 C1409 1.390 . S
C1401 C1400 1.387 . S
C1401 C1403 1.387 . S
H1402 C1409 0.950 . S
C1403 C1401 1.387 . S
C1403 C1405 1.390 . S
C1403 H1407 0.950 . S
H1404 C1400 0.950 . S
C1405 C1403 1.390 . S
C1405 C1406 1.387 . S
C1405 H1408 0.950 . S
C1406 C1405 1.387 . S
C1406 C1409 1.387 . S
H1407 C1403 0.950 . S
H1408 C1405 0.950 . S
C1409 C1400 1.390 . S
C1409 H1402 0.950 . S
C1409 C1406 1.387 . S
C1410 C1411 1.387 . S
C1410 H1414 0.950 . S
C1410 C1419 1.390 . S
C1411 C1410 1.387 . S
C1411 C1413 1.387 . S
H1412 C1419 0.950 . S
C1413 C1411 1.387 . S
C1413 C1415 1.390 . S
C1413 H1417 0.950 . S
H1414 C1410 0.950 . S
C1415 C1413 1.390 . S
C1415 C1416 1.387 . S
C1415 H1418 0.950 . S
C1416 C1415 1.387 . S
C1416 C1419 1.387 . S
H1417 C1413 0.950 . S
H1418 C1415 0.950 . S
C1419 C1410 1.390 . S
C1419 H1412 0.950 . S
C1419 C1416 1.387 . S
C1420 C1421 1.387 . S
C1420 H1424 0.950 . S
C1420 C1429 1.390 . S
C1421 C1420 1.387 . S
C1421 C1423 1.387 . S
H1422 C1429 0.950 . S
C1423 C1421 1.387 . S
C1423 C1425 1.390 . S
C1423 H1427 0.950 . S
H1424 C1420 0.950 . S
C1425 C1423 1.390 . S
C1425 C1426 1.387 . S
C1425 H1428 0.950 . S
C1426 C1425 1.387 . S
C1426 C1429 1.387 . S
H1427 C1423 0.950 . S
H1428 C1425 0.950 . S
C1429 C1420 1.390 . S
C1429 H1422 0.950 . S
C1429 C1426 1.387 . S
C1430 C1431 1.387 . S
C1430 H1434 0.950 . S
C1430 C1439 1.390 . S
C1431 C1430 1.387 . S
C1431 C1433 1.387 . S
H1432 C1439 0.950 . S
C1433 C1431 1.387 . S
C1433 C1435 1.390 . S
C1433 H1437 0.950 . S
H1434 C1430 0.950 . S
C1435 C1433 1.390 . S
C1435 C1436 1.387 . S
C1435 H1438 0.950 . S
C1436 C1435 1.387 . S
C1436 C1439 1.387 . S
H1437 C1433 0.950 . S
H1438 C1435 0.950 . S
C1439 C1430 1.390 . S
C1439 H1432 0.950 . S
C1439 C1436 1.387 . S
C1440 C1441 1.387 . S
C1440 H1444 0.950 . S
C1440 C1449 1.390 . S
C1441 C1440 1.387 . S
C1441 C1443 1.387 . S
H1442 C1449 0.950 . S
C1443 C1441 1.387 . S
C1443 C1445 1.390 . S
C1443 H1447 0.950 . S
H1444 C1440 0.950 . S
C1445 C1443 1.390 . S
C1445 C1446 1.387 . S
C1445 H1448 0.950 . S
C1446 C1445 1.387 . S
C1446 C1449 1.387 . S
H1447 C1443 0.950 . S
H1448 C1445 0.950 . S
C1449 C1440 1.390 . S
C1449 H1442 0.950 . S
C1449 C1446 1.387 . S
C1450 C1451 1.387 . S
C1450 H1454 0.950 . S
C1450 C1459 1.390 . S
C1451 C1450 1.387 . S
C1451 C1453 1.387 . S
H1452 C1459 0.950 . S
C1453 C1451 1.387 . S
C1453 C1455 1.390 . S
C1453 H1457 0.950 . S
H1454 C1450 0.950 . S
C1455 C1453 1.390 . S
C1455 C1456 1.387 . S
C1455 H1458 0.950 . S
C1456 C1455 1.387 . S
C1456 C1459 1.387 . S
H1457 C1453 0.950 . S
H1458 C1455 0.950 . S
C1459 C1450 1.390 . S
C1459 H1452 0.950 . S
C1459 C1456 1.387 . S
C1460 C1461 1.387 . S
C1460 H1464 0.950 . S
C1460 C1469 1.390 . S
C1461 C1460 1.387 . S
C1461 C1463 1.387 . S
H1462 C1469 0.950 . S
C1463 C1461 1.387 . S
C1463 C1465 1.390 . S
C1463 H1467 0.950 . S
H1464 C1460 0.950 . S
C1465 C1463 1.390 . S
C1465 C1466 1.387 . S
C1465 H1468 0.950 . S
C1466 C1465 1.387 . S
C1466 C1469 1.387 . S
H1467 C1463 0.950 . S
H1468 C1465 0.950 . S
C1469 C1460 1.390 . S
C1469 H1462 0.950 . S
C1469 C1466 1.387 . S
C1470 C1471 1.387 . S
C1470 H1474 0.950 . S
C1470 C1479 1.390 . S
C1471 C1470 1.387 . S
C1471 C1473 1.387 . S
H1472 C1479 0.950 . S
C1473 C1471 1.387 . S
C1473 C1475 1.390 . S
C1473 H1477 0.950 . S
H1474 C1470 0.950 . S
C1475 C1473 1.390 . S
C1475 C1476 1.387 . S
C1475 H1478 0.950 . S
C1476 C1475 1.387 . S
C1476 C1479 1.387 . S
H1477 C1473 0.950 . S
H1478 C1475 0.950 . S
C1479 C1470 1.390 . S
C1479 H1472 0.950 . S
C1479 C1476 1.387 . S
C1480 C1481 1.387 . S
C1480 H1484 0.950 . S
C1480 C1489 1.390 . S
C1481 C1480 1.387 . S
C1481 C1483 1.387 . S
H1482 C1489 0.950 . S
C1483 C1481 1.387 . S
C1483 C1485 1.390 . S
C1483 H1487 0.950 . S
H1484 C1480 0.950 . S
C1485 C1483 1.390 . S
C1485 C1486 1.387 . S
C1485 H1488 0.950 . S
C1486 C1485 1.387 . S
C1486 C1489 1.387 . S
H1487 C1483 0.950 . S
H1488 C1485 0.950 . S
C1489 C1480 1.390 . S
C1489 H1482 0.950 . S
C1489 C1486 1.387 . S
C1490 C1491 1.387 . S
C1490 H1494 0.950 . S
C1490 C1499 1.390 . S
C1491 C1490 1.387 . S
C1491 C1493 1.387 . S
H1492 C1499 0.950 . S
C1493 C1491 1.387 . S
C1493 C1495 1.390 . S
C1493 H1497 0.950 . S
H1494 C1490 0.950 . S
C1495 C1493 1.390 . S
C1495 C1496 1.387 . S
C1495 H1498 0.950 . S
C1496 C1495 1.387 . S
C1496 C1499 1.387 . S
H1497 C1493 0.950 . S
H1498 C1495 0.950 . S
C1499 C1490 1.390 . S
C1499 H1492 0.950 . S
C1499 C1496 1.387 . S
C1500 C1501 1.387 . S
C1500 H1504 0.950 . S
C1500 C1509 1.390 . S
C1501 C1500 1.387 . S
C1501 C1503 1.387 . S
H1502 C1509 0.950 . S
C1503 C1501 1.387 . S
C1503 C1505 1.390 . S
C1503 H1507 0.950 . S
H1504 C1500 0.950 . S
C1505 C1503 1.390 . S
C1505 C1506 1.387 . S
C1505 H1508 0.950 . S
C1506 C1505 1.387 . S
C1506 C1509 1.387 . S
H1507 C1503 0.950 . S
H1508 C1505 0.950 . S
C1509 C1500 1.390 . S
C1509 H1502 0.950 . S
C1509 C1506 1.387 . S
C1510 C1511 1.387 . S
C1510 H1514 0.950 . S
C1510 C1519 1.390 . S
C1511 C1510 1.387 . S
C1511 C1513 1.387 . S
H1512 C1519 0.950 . S
C1513 C1511 1.387 . S
C1513 C1515 1.390 . S
C1513 H1517 0.950 . S
H1514 C1510 0.950 . S
C1515 C1513 1.390 . S
C1515 C1516 1.387 . S
C1515 H1518 0.950 . S
C1516 C1515 1.387 . S
C1516 C1519 1.387 . S
H1517 C1513 0.950 . S
H1518 C1515 0.950 . S
C1519 C1510 1.390 . S
C1519 H1512 0.950 . S
C1519 C1516 1.387 . S
C1520 C1521 1.387 . S
C1520 H1524 0.950 . S
C1520 C1529 1.390 . S
C1521 C1520 1.387 . S
C1521 C1523 1.387 . S
H1522 C1529 0.950 . S
C1523 C1521 1.387 . S
C1523 C1525 1.390 . S
C1523 H1527 0.950 . S
H1524 C1520 0.950 . S
C1525 C1523 1.390 . S
C1525 C1526 1.387 . S
C1525 H1528 0.950 . S
C1526 C1525 1.387 . S
C1526 C1529 1.387 . S
H1527 C1523 0.950 . S
H1528 C1525 0.950 . S
C1529 C1520 1.390 . S
C1529 H1522 0.950 . S
C1529 C1526 1.387 . S
C1530 C1531 1.387 . S
C1530 H1534 0.950 . S
C1530 C1539 1.390 . S
C1531 C1530 1.387 . S
C1531 C1533 1.387 . S
H1532 C1539 0.950 . S
C1533 C1531 1.387 . S
C1533 C1535 1.390 . S
C1533 H1537 0.950 . S
H1534 C1530 0.950 . S
C1535 C1533 1.390 . S
C1535 C1536 1.387 . S
C1535 H1538 0.950 . S
C1536 C1535 1.387 . S
C1536 C1539 1.387 . S
H1537 C1533 0.950 . S
H1538 C1535 0.950 . S
C1539 C1530 1.390 . S
C1539 H1532 0.950 . S
C1539 C1536 1.387 . S
C1540 C1541 1.387 . S
C1540 H1544 0.950 . S
C1540 C1549 1.390 . S
C1541 C1540 1.387 . S
C1541 C1543 1.387 . S
H1542 C1549 0.950 . S
C1543 C1541 1.387 . S
C1543 C1545 1.390 . S
C1543 H1547 0.950 . S
H1544 C1540 0.950 . S
C1545 C1543 1.390 . S
C1545 C1546 1.387 . S
C1545 H1548 0.950 . S
C1546 C1545 1.387 . S
C1546 C1549 1.387 . S
H1547 C1543 0.950 . S
H1548 C1545 0.950 . S
C1549 C1540 1.390 . S
C1549 H1542 0.950 . S
C1549 C1546 1.387 . S
C1550 C1551 1.387 . S
C1550 H1554 0.950 . S
C1550 C1559 1.390 . S
C1551 C1550 1.387 . S
C1551 C1553 1.387 . S
H1552 C1559 0.950 . S
C1553 C1551 1.387 . S
C1553 C1555 1.390 . S
C1553 H1557 0.950 . S
H1554 C1550 0.950 . S
C1555 C1553 1.390 . S
C1555 C1556 1.387 . S
C1555 H1558 0.950 . S
C1556 C1555 1.387 . S
C1556 C1559 1.387 . S
H1557 C1553 0.950 . S
H1558 C1555 0.950 . S
C1559 C1550 1.390 . S
C1559 H1552 0.950 . S
C1559 C1556 1.387 . S
C1560 C1561 1.387 . S
C1560 H1564 0.950 . S
C1560 C1569 1.390 . S
C1561 C1560 1.387 . S
C1561 C1563 1.387 . S
H1562 C1569 0.950 . S
C1563 C1561 1.387 . S
C1563 C1565 1.390 . S
C1563 H1567 0.950 . S
H1564 C1560 0.950 . S
C1565 C1563 1.390 . S
C1565 C1566 1.387 . S
C1565 H1568 0.950 . S
C1566 C1565 1.387 . S
C1566 C1569 1.387 . S
H1567 C1563 0.950 . S
H1568 C1565 0.950 . S
C1569 C1560 1.390 . S
C1569 H1562 0.950 . S
C1569 C1566 1.387 . S
C1570 C1571 1.387 . S
C1570 H1574 0.950 . S
C1570 C1579 1.390 . S
C1571 C1570 1.387 . S
C1571 C1573 1.387 . S
H1572 C1579 0.950 . S
C1573 C1571 1.387 . S
C1573 C1575 1.390 . S
C1573 H1577 0.950 . S
H1574 C1570 0.950 . S
C1575 C1573 1.390 . S
C1575 C1576 1.387 . S
C1575 H1578 0.950 . S
C1576 C1575 1.387 . S
C1576 C1579 1.387 . S
H1577 C1573 0.950 . S
H1578 C1575 0.950 . S
C1579 C1570 1.390 . S
C1579 H1572 0.950 . S
C1579 C1576 1.387 . S
C1580 C1581 1.387 . S
C1580 H1584 0.950 . S
C1580 C1589 1.390 . S
C1581 C1580 1.387 . S
C1581 C1583 1.387 . S
H1582 C1589 0.950 . S
C1583 C1581 1.387 . S
C1583 C1585 1.390 . S
C1583 H1587 0.950 . S
H1584 C1580 0.950 . S
C1585 C1583 1.390 . S
C1585 C1586 1.387 . S
C1585 H1588 0.950 . S
C1586 C1585 1.387 . S
C1586 C1589 1.387 . S
H1587 C1583 0.950 . S
H1588 C1585 0.950 . S
C1589 C1580 1.390 . S
C1589 H1582 0.950 . S
C1589 C1586 1.387 . S
C1590 C1591 1.387 . S
C1590 H1594 0.950 . S
C1590 C1599 1.390 . S
C1591 C1590 1.387 . S
C1591 C1593 1.387 . S
H1592 C1599 0.950 . S
C1593 C1591 1.387 . S
C1593 C1595 1.390 . S
C1593 H1597 0.950 . S
H1594 C1590 0.950 . S
C1595 C1593 1.390 . S
C1595 C1596 1.387 . S
C1595 H1598 0.950 . S
C1596 C1595 1.387 . S
C1596 C1599 1.387 . S
H1597 C1593 0.950 . S
H1598 C1595 0.950 . S
C1599 C1590 1.390 . S
C1599 H1592 0.950 . S
C1599 C1596 1.387 . S
C1600 C1601 1.387 . S
C1600 H1604 0.950 . S
C1600 C1609 1.390 1_455 S
C1601 C1600 1.387 . S
C1601 C1603 1.387 . S
H1602 C1609 0.950 . S
C1603 C1601 1.387 . S
C1603 C1605 1.390 1_455 S
C1603 H1607 0.950 . S
H1604 C1600 0.950 . S
C1605 C1603 1.390 1_655 S
C1605 C1606 1.387 . S
C1605 H1608 0.950 . S
C1606 C1605 1.387 . S
C1606 C1609 1.387 . S
H1607 C1603 0.950 . S
H1608 C1605 0.950 . S
C1609 C1600 1.390 1_655 S
C1609 H1602 0.950 . S
C1609 C1606 1.387 . S
C1610 C1611 1.388 . S
C1610 H1614 0.950 . S
C1610 C1619 1.390 1_455 S
C1611 C1610 1.388 . S
C1611 C1613 1.388 . S
H1612 C1619 0.950 . S
C1613 C1611 1.388 . S
C1613 C1615 1.390 1_455 S
C1613 H1617 0.950 . S
H1614 C1610 0.950 . S
C1615 C1613 1.390 1_655 S
C1615 C1616 1.388 . S
C1615 H1618 0.950 . S
C1616 C1615 1.388 . S
C1616 C1619 1.388 . S
H1617 C1613 0.950 . S
H1618 C1615 0.950 . S
C1619 C1610 1.390 1_655 S
C1619 H1612 0.950 . S
C1619 C1616 1.388 . S
C1620 C1621 1.387 . S
C1620 H1624 0.950 . S
C1620 C1629 1.390 . S
C1621 C1620 1.387 . S
C1621 C1623 1.387 . S
H1622 C1629 0.950 . S
C1623 C1621 1.387 . S
C1623 C1625 1.390 . S
C1623 H1627 0.950 . S
H1624 C1620 0.950 . S
C1625 C1623 1.390 . S
C1625 C1626 1.387 . S
C1625 H1628 0.950 . S
C1626 C1625 1.387 . S
C1626 C1629 1.387 . S
H1627 C1623 0.950 . S
H1628 C1625 0.950 . S
C1629 C1620 1.390 . S
C1629 H1622 0.950 . S
C1629 C1626 1.387 . S
C1630 C1631 1.387 . S
C1630 H1634 0.950 . S
C1630 C1639 1.390 . S
C1631 C1630 1.387 . S
C1631 C1633 1.387 . S
H1632 C1639 0.950 . S
C1633 C1631 1.387 . S
C1633 C1635 1.390 . S
C1633 H1637 0.950 . S
H1634 C1630 0.950 . S
C1635 C1633 1.390 . S
C1635 C1636 1.387 . S
C1635 H1638 0.950 . S
C1636 C1635 1.387 . S
C1636 C1639 1.387 . S
H1637 C1633 0.950 . S
H1638 C1635 0.950 . S
C1639 C1630 1.390 . S
C1639 H1632 0.950 . S
C1639 C1636 1.387 . S
C1640 C1641 1.387 . S
C1640 H1644 0.950 . S
C1640 C1649 1.390 1_655 S
C1641 C1640 1.387 . S
C1641 C1643 1.387 . S
H1642 C1649 0.950 . S
C1643 C1641 1.387 . S
C1643 C1645 1.390 1_655 S
C1643 H1647 0.950 . S
H1644 C1640 0.950 . S
C1645 C1643 1.390 1_455 S
C1645 C1646 1.387 . S
C1645 H1648 0.950 . S
C1646 C1645 1.387 . S
C1646 C1649 1.387 . S
H1647 C1643 0.950 . S
H1648 C1645 0.950 . S
C1649 C1640 1.390 1_455 S
C1649 H1642 0.950 . S
C1649 C1646 1.387 . S
C1650 C1651 1.387 . S
C1650 H1654 0.950 . S
C1650 C1659 1.390 . S
C1651 C1650 1.387 . S
C1651 C1653 1.387 . S
H1652 C1659 0.950 . S
C1653 C1651 1.387 . S
C1653 C1655 1.390 . S
C1653 H1657 0.950 . S
H1654 C1650 0.950 . S
C1655 C1653 1.390 . S
C1655 C1656 1.387 . S
C1655 H1658 0.950 . S
C1656 C1655 1.387 . S
C1656 C1659 1.387 . S
H1657 C1653 0.950 . S
H1658 C1655 0.950 . S
C1659 C1650 1.390 . S
C1659 H1652 0.950 . S
C1659 C1656 1.387 . S
C1660 C1661 1.387 . S
C1660 H1664 0.950 . S
C1660 C1669 1.390 . S
C1661 C1660 1.387 . S
C1661 C1663 1.387 . S
H1662 C1669 0.950 . S
C1663 C1661 1.387 . S
C1663 C1665 1.390 . S
C1663 H1667 0.950 . S
H1664 C1660 0.950 . S
C1665 C1663 1.390 . S
C1665 C1666 1.387 . S
C1665 H1668 0.950 . S
C1666 C1665 1.387 . S
C1666 C1669 1.387 . S
H1667 C1663 0.950 . S
H1668 C1665 0.950 . S
C1669 C1660 1.390 . S
C1669 H1662 0.950 . S
C1669 C1666 1.387 . S
C1670 C1671 1.388 . S
C1670 H1674 0.950 . S
C1670 C1679 1.389 1_655 S
C1671 C1670 1.388 . S
C1671 C1673 1.388 . S
H1672 C1679 0.950 . S
C1673 C1671 1.388 . S
C1673 C1675 1.389 1_655 S
C1673 H1677 0.950 . S
H1674 C1670 0.950 . S
C1675 C1673 1.389 1_455 S
C1675 C1676 1.388 . S
C1675 H1678 0.950 . S
C1676 C1675 1.388 . S
C1676 C1679 1.388 . S
H1677 C1673 0.950 . S
H1678 C1675 0.950 . S
C1679 C1670 1.389 1_455 S
C1679 H1672 0.950 . S
C1679 C1676 1.388 . S
C1680 C1681 1.387 . S
C1680 H1684 0.950 . S
C1680 C1689 1.390 1_455 S
C1681 C1680 1.387 . S
C1681 C1683 1.387 . S
H1682 C1689 0.950 . S
C1683 C1681 1.387 . S
C1683 C1685 1.390 1_455 S
C1683 H1687 0.950 . S
H1684 C1680 0.950 . S
C1685 C1683 1.390 1_655 S
C1685 C1686 1.387 . S
C1685 H1688 0.950 . S
C1686 C1685 1.387 . S
C1686 C1689 1.387 . S
H1687 C1683 0.950 . S
H1688 C1685 0.950 . S
C1689 C1680 1.390 1_655 S
C1689 H1682 0.950 . S
C1689 C1686 1.387 . S
C1690 C1691 1.388 . S
C1690 H1694 0.950 . S
C1690 C1699 1.390 1_455 S
C1691 C1690 1.388 . S
C1691 C1693 1.388 . S
H1692 C1699 0.950 . S
C1693 C1691 1.388 . S
C1693 C1695 1.390 1_455 S
C1693 H1697 0.950 . S
H1694 C1690 0.950 . S
C1695 C1693 1.390 1_655 S
C1695 C1696 1.388 . S
C1695 H1698 0.950 . S
C1696 C1695 1.388 . S
C1696 C1699 1.388 . S
H1697 C1693 0.950 . S
H1698 C1695 0.950 . S
C1699 C1690 1.390 1_655 S
C1699 H1692 0.950 . S
C1699 C1696 1.388 . S
C1700 C1701 1.387 . S
C1700 H1704 0.950 . S
C1700 C1709 1.390 . S
C1701 C1700 1.387 . S
C1701 C1703 1.387 . S
H1702 C1709 0.950 . S
C1703 C1701 1.387 . S
C1703 C1705 1.390 . S
C1703 H1707 0.950 . S
H1704 C1700 0.950 . S
C1705 C1703 1.390 . S
C1705 C1706 1.387 . S
C1705 H1708 0.950 . S
C1706 C1705 1.387 . S
C1706 C1709 1.387 . S
H1707 C1703 0.950 . S
H1708 C1705 0.950 . S
C1709 C1700 1.390 . S
C1709 H1702 0.950 . S
C1709 C1706 1.387 . S
C1710 C1711 1.387 . S
C1710 H1714 0.950 . S
C1710 C1719 1.390 . S
C1711 C1710 1.387 . S
C1711 C1713 1.387 . S
H1712 C1719 0.950 . S
C1713 C1711 1.387 . S
C1713 C1715 1.390 . S
C1713 H1717 0.950 . S
H1714 C1710 0.950 . S
C1715 C1713 1.390 . S
C1715 C1716 1.387 . S
C1715 H1718 0.950 . S
C1716 C1715 1.387 . S
C1716 C1719 1.387 . S
H1717 C1713 0.950 . S
H1718 C1715 0.950 . S
C1719 C1710 1.390 . S
C1719 H1712 0.950 . S
C1719 C1716 1.387 . S
C1720 C1721 1.387 . S
C1720 H1724 0.950 . S
C1720 C1729 1.390 1_455 S
C1721 C1720 1.387 . S
C1721 C1723 1.387 . S
H1722 C1729 0.950 . S
C1723 C1721 1.387 . S
C1723 C1725 1.390 1_455 S
C1723 H1727 0.950 . S
H1724 C1720 0.950 . S
C1725 C1723 1.390 1_655 S
C1725 C1726 1.387 . S
C1725 H1728 0.950 . S
C1726 C1725 1.387 . S
C1726 C1729 1.387 . S
H1727 C1723 0.950 . S
H1728 C1725 0.950 . S
C1729 C1720 1.390 1_655 S
C1729 H1722 0.950 . S
C1729 C1726 1.387 . S
C1730 C1731 1.387 . S
C1730 H1734 0.950 . S
C1730 C1739 1.390 . S
C1731 C1730 1.387 . S
C1731 C1733 1.387 . S
H1732 C1739 0.950 . S
C1733 C1731 1.387 . S
C1733 C1735 1.390 . S
C1733 H1737 0.950 . S
H1734 C1730 0.950 . S
C1735 C1733 1.390 . S
C1735 C1736 1.387 . S
C1735 H1738 0.950 . S
C1736 C1735 1.387 . S
C1736 C1739 1.387 . S
H1737 C1733 0.950 . S
H1738 C1735 0.950 . S
C1739 C1730 1.390 . S
C1739 H1732 0.950 . S
C1739 C1736 1.387 . S
C1740 C1741 1.387 . S
C1740 H1744 0.950 . S
C1740 C1749 1.390 . S
C1741 C1740 1.387 . S
C1741 C1743 1.387 . S
H1742 C1749 0.950 . S
C1743 C1741 1.387 . S
C1743 C1745 1.390 . S
C1743 H1747 0.950 . S
H1744 C1740 0.950 . S
C1745 C1743 1.390 . S
C1745 C1746 1.387 . S
C1745 H1748 0.950 . S
C1746 C1745 1.387 . S
C1746 C1749 1.387 . S
H1747 C1743 0.950 . S
H1748 C1745 0.950 . S
C1749 C1740 1.390 . S
C1749 H1742 0.950 . S
C1749 C1746 1.387 . S
C1750 C1751 1.388 . S
C1750 H1754 0.950 . S
C1750 C1759 1.389 1_455 S
C1751 C1750 1.388 . S
C1751 C1753 1.388 . S
H1752 C1759 0.950 . S
C1753 C1751 1.388 . S
C1753 C1755 1.389 1_455 S
C1753 H1757 0.950 . S
H1754 C1750 0.950 . S
C1755 C1753 1.389 1_655 S
C1755 C1756 1.388 . S
C1755 H1758 0.950 . S
C1756 C1755 1.388 . S
C1756 C1759 1.388 . S
H1757 C1753 0.950 . S
H1758 C1755 0.950 . S
C1759 C1750 1.389 1_655 S
C1759 H1752 0.950 . S
C1759 C1756 1.388 . S
C1760 C1761 1.387 . S
C1760 H1764 0.950 . S
C1760 C1769 1.390 . S
C1761 C1760 1.387 . S
C1761 C1763 1.387 . S
H1762 C1769 0.950 . S
C1763 C1761 1.387 . S
C1763 C1765 1.390 . S
C1763 H1767 0.950 . S
H1764 C1760 0.950 . S
C1765 C1763 1.390 . S
C1765 C1766 1.387 . S
C1765 H1768 0.950 . S
C1766 C1765 1.387 . S
C1766 C1769 1.387 . S
H1767 C1763 0.950 . S
H1768 C1765 0.950 . S
C1769 C1760 1.390 . S
C1769 H1762 0.950 . S
C1769 C1766 1.387 . S
C1770 C1771 1.387 1_545 S
C1770 H1774 0.950 . S
C1770 C1779 1.390 1_655 S
C1771 C1770 1.387 1_565 S
C1771 C1773 1.388 . S
H1772 C1779 0.950 . S
C1773 C1771 1.388 . S
C1773 C1775 1.390 1_655 S
C1773 H1777 0.950 . S
H1774 C1770 0.950 . S
C1775 C1773 1.390 1_455 S
C1775 C1776 1.387 1_565 S
C1775 H1778 0.950 . S
C1776 C1775 1.387 1_545 S
C1776 C1779 1.388 . S
H1777 C1773 0.950 . S
H1778 C1775 0.950 . S
C1779 C1770 1.390 1_455 S
C1779 H1772 0.950 . S
C1779 C1776 1.388 . S
C1780 C1781 1.387 . S
C1780 H1784 0.950 . S
C1780 C1789 1.390 . S
C1781 C1780 1.387 . S
C1781 C1783 1.387 . S
H1782 C1789 0.950 . S
C1783 C1781 1.387 . S
C1783 C1785 1.390 . S
C1783 H1787 0.950 . S
H1784 C1780 0.950 . S
C1785 C1783 1.390 . S
C1785 C1786 1.387 . S
C1785 H1788 0.950 . S
C1786 C1785 1.387 . S
C1786 C1789 1.387 . S
H1787 C1783 0.950 . S
H1788 C1785 0.950 . S
C1789 C1780 1.390 . S
C1789 H1782 0.950 . S
C1789 C1786 1.387 . S
C1790 C1791 1.387 . S
C1790 H1794 0.950 . S
C1790 C1799 1.390 1_554 S
C1791 C1790 1.387 . S
C1791 C1793 1.387 1_565 S
H1792 C1799 0.950 . S
C1793 C1791 1.387 1_545 S
C1793 C1795 1.390 1_554 S
C1793 H1797 0.950 . S
H1794 C1790 0.950 . S
C1795 C1793 1.390 1_556 S
C1795 C1796 1.387 . S
C1795 H1798 0.950 . S
C1796 C1795 1.387 . S
C1796 C1799 1.387 1_545 S
H1797 C1793 0.950 . S
H1798 C1795 0.950 . S
C1799 C1790 1.390 1_556 S
C1799 H1792 0.950 . S
C1799 C1796 1.387 1_565 S
C1800 C1801 1.387 . S
C1800 H1804 0.950 . S
C1800 C1809 1.390 . S
C1801 C1800 1.387 . S
C1801 C1803 1.387 . S
H1802 C1809 0.950 . S
C1803 C1801 1.387 . S
C1803 C1805 1.390 . S
C1803 H1807 0.950 . S
H1804 C1800 0.950 . S
C1805 C1803 1.390 . S
C1805 C1806 1.387 . S
C1805 H1808 0.950 . S
C1806 C1805 1.387 . S
C1806 C1809 1.387 . S
H1807 C1803 0.950 . S
H1808 C1805 0.950 . S
C1809 C1800 1.390 . S
C1809 H1802 0.950 . S
C1809 C1806 1.387 . S
C1810 C1811 1.387 1_545 S
C1810 H1814 0.950 . S
C1810 C1819 1.390 . S
C1811 C1810 1.387 1_565 S
C1811 C1813 1.387 . S
H1812 C1819 0.950 . S
C1813 C1811 1.387 . S
C1813 C1815 1.390 . S
C1813 H1817 0.950 . S
H1814 C1810 0.950 . S
C1815 C1813 1.390 . S
C1815 C1816 1.387 1_565 S
C1815 H1818 0.950 . S
C1816 C1815 1.387 1_545 S
C1816 C1819 1.387 . S
H1817 C1813 0.950 . S
H1818 C1815 0.950 . S
C1819 C1810 1.390 . S
C1819 H1812 0.950 . S
C1819 C1816 1.387 . S
C1820 C1821 1.387 . S
C1820 H1824 0.950 . S
C1820 C1829 1.390 . S
C1821 C1820 1.387 . S
C1821 C1823 1.387 . S
H1822 C1829 0.950 . S
C1823 C1821 1.387 . S
C1823 C1825 1.390 . S
C1823 H1827 0.950 . S
H1824 C1820 0.950 . S
C1825 C1823 1.390 . S
C1825 C1826 1.387 . S
C1825 H1828 0.950 . S
C1826 C1825 1.387 . S
C1826 C1829 1.387 . S
H1827 C1823 0.950 . S
H1828 C1825 0.950 . S
C1829 C1820 1.390 . S
C1829 H1822 0.950 . S
C1829 C1826 1.387 . S
C1830 C1831 1.386 1_645 S
C1830 H1834 0.950 . S
C1830 C1839 1.392 1_556 S
C1831 C1830 1.386 1_465 S
C1831 C1833 1.387 . S
H1832 C1839 0.950 . S
C1833 C1831 1.387 . S
C1833 C1835 1.392 1_556 S
C1833 H1837 0.950 . S
H1834 C1830 0.950 . S
C1835 C1833 1.392 1_554 S
C1835 C1836 1.386 1_465 S
C1835 H1838 0.950 . S
C1836 C1835 1.386 1_645 S
C1836 C1839 1.387 . S
H1837 C1833 0.950 . S
H1838 C1835 0.950 . S
C1839 C1830 1.392 1_554 S
C1839 H1832 0.950 . S
C1839 C1836 1.387 . S
C1840 C1841 1.387 . S
C1840 H1844 0.950 . S
C1840 C1849 1.390 . S
C1841 C1840 1.387 . S
C1841 C1843 1.387 . S
H1842 C1849 0.950 . S
C1843 C1841 1.387 . S
C1843 C1845 1.390 . S
C1843 H1847 0.950 . S
H1844 C1840 0.950 . S
C1845 C1843 1.390 . S
C1845 C1846 1.387 . S
C1845 H1848 0.950 . S
C1846 C1845 1.387 . S
C1846 C1849 1.387 . S
H1847 C1843 0.950 . S
H1848 C1845 0.950 . S
C1849 C1840 1.390 . S
C1849 H1842 0.950 . S
C1849 C1846 1.387 . S
C1850 C1851 1.387 . S
C1850 H1854 0.950 . S
C1850 C1859 1.390 . S
C1851 C1850 1.387 . S
C1851 C1853 1.387 . S
H1852 C1859 0.950 . S
C1853 C1851 1.387 . S
C1853 C1855 1.390 . S
C1853 H1857 0.950 . S
H1854 C1850 0.950 . S
C1855 C1853 1.390 . S
C1855 C1856 1.387 . S
C1855 H1858 0.950 . S
C1856 C1855 1.387 . S
C1856 C1859 1.387 . S
H1857 C1853 0.950 . S
H1858 C1855 0.950 . S
C1859 C1850 1.390 . S
C1859 H1852 0.950 . S
C1859 C1856 1.387 . S
C1860 C1861 1.387 . S
C1860 H1864 0.950 . S
C1860 C1869 1.390 . S
C1861 C1860 1.387 . S
C1861 C1863 1.387 . S
H1862 C1869 0.950 . S
C1863 C1861 1.387 . S
C1863 C1865 1.390 . S
C1863 H1867 0.950 . S
H1864 C1860 0.950 . S
C1865 C1863 1.390 . S
C1865 C1866 1.387 . S
C1865 H1868 0.950 . S
C1866 C1865 1.387 . S
C1866 C1869 1.387 . S
H1867 C1863 0.950 . S
H1868 C1865 0.950 . S
C1869 C1860 1.390 . S
C1869 H1862 0.950 . S
C1869 C1866 1.387 . S
C1870 C1871 1.387 . S
C1870 H1874 0.950 . S
C1870 C1879 1.390 . S
C1871 C1870 1.387 . S
C1871 C1873 1.387 . S
H1872 C1879 0.950 . S
C1873 C1871 1.387 . S
C1873 C1875 1.390 . S
C1873 H1877 0.950 . S
H1874 C1870 0.950 . S
C1875 C1873 1.390 . S
C1875 C1876 1.387 . S
C1875 H1878 0.950 . S
C1876 C1875 1.387 . S
C1876 C1879 1.387 . S
H1877 C1873 0.950 . S
H1878 C1875 0.950 . S
C1879 C1870 1.390 . S
C1879 H1872 0.950 . S
C1879 C1876 1.387 . S
C1880 C1881 1.387 . S
C1880 H1884 0.950 . S
C1880 C1889 1.390 1_554 S
C1881 C1880 1.387 . S
C1881 C1883 1.387 . S
H1882 C1889 0.950 . S
C1883 C1881 1.387 . S
C1883 C1885 1.390 1_554 S
C1883 H1887 0.950 . S
H1884 C1880 0.950 . S
C1885 C1883 1.390 1_556 S
C1885 C1886 1.387 . S
C1885 H1888 0.950 . S
C1886 C1885 1.387 . S
C1886 C1889 1.387 . S
H1887 C1883 0.950 . S
H1888 C1885 0.950 . S
C1889 C1880 1.390 1_556 S
C1889 H1882 0.950 . S
C1889 C1886 1.387 . S
C1890 C1891 1.387 . S
C1890 H1894 0.950 . S
C1890 C1899 1.390 . S
C1891 C1890 1.387 . S
C1891 C1893 1.387 1_655 S
H1892 C1899 0.950 . S
C1893 C1891 1.387 1_455 S
C1893 C1895 1.390 . S
C1893 H1897 0.950 . S
H1894 C1890 0.950 . S
C1895 C1893 1.390 . S
C1895 C1896 1.387 . S
C1895 H1898 0.950 . S
C1896 C1895 1.387 . S
C1896 C1899 1.387 1_455 S
H1897 C1893 0.950 . S
H1898 C1895 0.950 . S
C1899 C1890 1.390 . S
C1899 H1892 0.950 . S
C1899 C1896 1.387 1_655 S
C1900 C1901 1.387 . S
C1900 H1904 0.950 . S
C1900 C1909 1.391 1_554 S
C1901 C1900 1.387 . S
C1901 C1903 1.387 1_455 S
H1902 C1909 0.950 . S
C1903 C1901 1.387 1_655 S
C1903 C1905 1.391 1_554 S
C1903 H1907 0.950 . S
H1904 C1900 0.950 . S
C1905 C1903 1.391 1_556 S
C1905 C1906 1.387 . S
C1905 H1908 0.950 . S
C1906 C1905 1.387 . S
C1906 C1909 1.387 1_655 S
H1907 C1903 0.950 . S
H1908 C1905 0.950 . S
C1909 C1900 1.391 1_556 S
C1909 H1902 0.950 . S
C1909 C1906 1.387 1_455 S
C1910 C1911 1.387 . S
C1910 H1914 0.950 . S
C1910 C1919 1.390 . S
C1911 C1910 1.387 . S
C1911 C1913 1.387 . S
H1912 C1919 0.950 . S
C1913 C1911 1.387 . S
C1913 C1915 1.390 . S
C1913 H1917 0.950 . S
H1914 C1910 0.950 . S
C1915 C1913 1.390 . S
C1915 C1916 1.387 . S
C1915 H1918 0.950 . S
C1916 C1915 1.387 . S
C1916 C1919 1.387 . S
H1917 C1913 0.950 . S
H1918 C1915 0.950 . S
C1919 C1910 1.390 . S
C1919 H1912 0.950 . S
C1919 C1916 1.387 . S
C1920 C1921 1.387 . S
C1920 H1924 0.950 . S
C1920 C1929 1.390 . S
C1921 C1920 1.387 . S
C1921 C1923 1.387 . S
H1922 C1929 0.950 . S
C1923 C1921 1.387 . S
C1923 C1925 1.390 . S
C1923 H1927 0.950 . S
H1924 C1920 0.950 . S
C1925 C1923 1.390 . S
C1925 C1926 1.387 . S
C1925 H1928 0.950 . S
C1926 C1925 1.387 . S
C1926 C1929 1.387 . S
H1927 C1923 0.950 . S
H1928 C1925 0.950 . S
C1929 C1920 1.390 . S
C1929 H1922 0.950 . S
C1929 C1926 1.387 . S
C1930 C1931 1.387 . S
C1930 H1934 0.950 . S
C1930 C1939 1.390 . S
C1931 C1930 1.387 . S
C1931 C1933 1.387 . S
H1932 C1939 0.950 . S
C1933 C1931 1.387 . S
C1933 C1935 1.390 . S
C1933 H1937 0.950 . S
H1934 C1930 0.950 . S
C1935 C1933 1.390 . S
C1935 C1936 1.387 . S
C1935 H1938 0.950 . S
C1936 C1935 1.387 . S
C1936 C1939 1.387 . S
H1937 C1933 0.950 . S
H1938 C1935 0.950 . S
C1939 C1930 1.390 . S
C1939 H1932 0.950 . S
C1939 C1936 1.387 . S
C1940 C1941 1.387 . S
C1940 H1944 0.950 . S
C1940 C1949 1.390 . S
C1941 C1940 1.387 . S
C1941 C1943 1.387 . S
H1942 C1949 0.950 . S
C1943 C1941 1.387 . S
C1943 C1945 1.390 . S
C1943 H1947 0.950 . S
H1944 C1940 0.950 . S
C1945 C1943 1.390 . S
C1945 C1946 1.387 . S
C1945 H1948 0.950 . S
C1946 C1945 1.387 . S
C1946 C1949 1.387 . S
H1947 C1943 0.950 . S
H1948 C1945 0.950 . S
C1949 C1940 1.390 . S
C1949 H1942 0.950 . S
C1949 C1946 1.387 . S
C1950 C1951 1.387 . S
C1950 H1954 0.950 . S
C1950 C1959 1.390 . S
C1951 C1950 1.387 . S
C1951 C1953 1.387 . S
H1952 C1959 0.950 . S
C1953 C1951 1.387 . S
C1953 C1955 1.390 . S
C1953 H1957 0.950 . S
H1954 C1950 0.950 . S
C1955 C1953 1.390 . S
C1955 C1956 1.387 . S
C1955 H1958 0.950 . S
C1956 C1955 1.387 . S
C1956 C1959 1.387 . S
H1957 C1953 0.950 . S
H1958 C1955 0.950 . S
C1959 C1950 1.390 . S
C1959 H1952 0.950 . S
C1959 C1956 1.387 . S
C1960 C1961 1.387 . S
C1960 H1964 0.950 . S
C1960 C1969 1.390 . S
C1961 C1960 1.387 . S
C1961 C1963 1.387 . S
H1962 C1969 0.950 . S
C1963 C1961 1.387 . S
C1963 C1965 1.390 . S
C1963 H1967 0.950 . S
H1964 C1960 0.950 . S
C1965 C1963 1.390 . S
C1965 C1966 1.387 . S
C1965 H1968 0.950 . S
C1966 C1965 1.387 . S
C1966 C1969 1.387 . S
H1967 C1963 0.950 . S
H1968 C1965 0.950 . S
C1969 C1960 1.390 . S
C1969 H1962 0.950 . S
C1969 C1966 1.387 . S
C1970 C1971 1.387 . S
C1970 H1974 0.950 . S
C1970 C1979 1.390 . S
C1971 C1970 1.387 . S
C1971 C1973 1.387 . S
H1972 C1979 0.950 . S
C1973 C1971 1.387 . S
C1973 C1975 1.390 . S
C1973 H1977 0.950 . S
H1974 C1970 0.950 . S
C1975 C1973 1.390 . S
C1975 C1976 1.387 . S
C1975 H1978 0.950 . S
C1976 C1975 1.387 . S
C1976 C1979 1.387 . S
H1977 C1973 0.950 . S
H1978 C1975 0.950 . S
C1979 C1970 1.390 . S
C1979 H1972 0.950 . S
C1979 C1976 1.387 . S
C1980 C1981 1.387 . S
C1980 H1984 0.950 . S
C1980 C1989 1.390 . S
C1981 C1980 1.387 . S
C1981 C1983 1.387 . S
H1982 C1989 0.950 . S
C1983 C1981 1.387 . S
C1983 C1985 1.390 . S
C1983 H1987 0.950 . S
H1984 C1980 0.950 . S
C1985 C1983 1.390 . S
C1985 C1986 1.387 . S
C1985 H1988 0.950 . S
C1986 C1985 1.387 . S
C1986 C1989 1.387 . S
H1987 C1983 0.950 . S
H1988 C1985 0.950 . S
C1989 C1980 1.390 . S
C1989 H1982 0.950 . S
C1989 C1986 1.387 . S
C1990 C1991 1.387 . S
C1990 H1994 0.950 . S
C1990 C1999 1.390 . S
C1991 C1990 1.387 . S
C1991 C1993 1.387 . S
H1992 C1999 0.950 . S
C1993 C1991 1.387 . S
C1993 C1995 1.390 . S
C1993 H1997 0.950 . S
H1994 C1990 0.950 . S
C1995 C1993 1.390 . S
C1995 C1996 1.387 . S
C1995 H1998 0.950 . S
C1996 C1995 1.387 . S
C1996 C1999 1.387 . S
H1997 C1993 0.950 . S
H1998 C1995 0.950 . S
C1999 C1990 1.390 . S
C1999 H1992 0.950 . S
C1999 C1996 1.387 . S
C2000 C2001 1.387 . S
C2000 H2004 0.950 . S
C2000 C2009 1.390 . S
C2001 C2000 1.387 . S
C2001 C2003 1.387 . S
H2002 C2009 0.950 . S
C2003 C2001 1.387 . S
C2003 C2005 1.390 . S
C2003 H2007 0.950 . S
H2004 C2000 0.950 . S
C2005 C2003 1.390 . S
C2005 C2006 1.387 . S
C2005 H2008 0.950 . S
C2006 C2005 1.387 . S
C2006 C2009 1.387 . S
H2007 C2003 0.950 . S
H2008 C2005 0.950 . S
C2009 C2000 1.390 . S
C2009 H2002 0.950 . S
C2009 C2006 1.387 . S
C2010 C2011 1.387 . S
C2010 H2014 0.950 . S
C2010 C2019 1.390 . S
C2011 C2010 1.387 . S
C2011 C2013 1.387 . S
H2012 C2019 0.950 . S
C2013 C2011 1.387 . S
C2013 C2015 1.390 . S
C2013 H2017 0.950 . S
H2014 C2010 0.950 . S
C2015 C2013 1.390 . S
C2015 C2016 1.387 . S
C2015 H2018 0.950 . S
C2016 C2015 1.387 . S
C2016 C2019 1.387 . S
H2017 C2013 0.950 . S
H2018 C2015 0.950 . S
C2019 C2010 1.390 . S
C2019 H2012 0.950 . S
C2019 C2016 1.387 . S
C2020 C2021 1.387 . S
C2020 H2024 0.950 . S
C2020 C2029 1.390 . S
C2021 C2020 1.387 . S
C2021 C2023 1.387 . S
H2022 C2029 0.950 . S
C2023 C2021 1.387 . S
C2023 C2025 1.390 . S
C2023 H2027 0.950 . S
H2024 C2020 0.950 . S
C2025 C2023 1.390 . S
C2025 C2026 1.387 . S
C2025 H2028 0.950 . S
C2026 C2025 1.387 . S
C2026 C2029 1.387 . S
H2027 C2023 0.950 . S
H2028 C2025 0.950 . S
C2029 C2020 1.390 . S
C2029 H2022 0.950 . S
C2029 C2026 1.387 . S
C2030 C2031 1.387 . S
C2030 H2034 0.950 . S
C2030 C2039 1.390 . S
C2031 C2030 1.387 . S
C2031 C2033 1.387 . S
H2032 C2039 0.950 . S
C2033 C2031 1.387 . S
C2033 C2035 1.390 . S
C2033 H2037 0.950 . S
H2034 C2030 0.950 . S
C2035 C2033 1.390 . S
C2035 C2036 1.387 . S
C2035 H2038 0.950 . S
C2036 C2035 1.387 . S
C2036 C2039 1.387 . S
H2037 C2033 0.950 . S
H2038 C2035 0.950 . S
C2039 C2030 1.390 . S
C2039 H2032 0.950 . S
C2039 C2036 1.387 . S
C2040 C2041 1.387 . S
C2040 H2044 0.950 . S
C2040 C2049 1.390 . S
C2041 C2040 1.387 . S
C2041 C2043 1.387 . S
H2042 C2049 0.950 . S
C2043 C2041 1.387 . S
C2043 C2045 1.390 . S
C2043 H2047 0.950 . S
H2044 C2040 0.950 . S
C2045 C2043 1.390 . S
C2045 C2046 1.387 . S
C2045 H2048 0.950 . S
C2046 C2045 1.387 . S
C2046 C2049 1.387 . S
H2047 C2043 0.950 . S
H2048 C2045 0.950 . S
C2049 C2040 1.390 . S
C2049 H2042 0.950 . S
C2049 C2046 1.387 . S
C2050 C2051 1.387 . S
C2050 H2054 0.950 . S
C2050 C2059 1.390 . S
C2051 C2050 1.387 . S
C2051 C2053 1.387 . S
H2052 C2059 0.950 . S
C2053 C2051 1.387 . S
C2053 C2055 1.390 . S
C2053 H2057 0.950 . S
H2054 C2050 0.950 . S
C2055 C2053 1.390 . S
C2055 C2056 1.387 . S
C2055 H2058 0.950 . S
C2056 C2055 1.387 . S
C2056 C2059 1.387 . S
H2057 C2053 0.950 . S
H2058 C2055 0.950 . S
C2059 C2050 1.390 . S
C2059 H2052 0.950 . S
C2059 C2056 1.387 . S
C2060 C2061 1.387 . S
C2060 H2064 0.950 . S
C2060 C2069 1.390 . S
C2061 C2060 1.387 . S
C2061 C2063 1.387 . S
H2062 C2069 0.950 . S
C2063 C2061 1.387 . S
C2063 C2065 1.390 . S
C2063 H2067 0.950 . S
H2064 C2060 0.950 . S
C2065 C2063 1.390 . S
C2065 C2066 1.387 . S
C2065 H2068 0.950 . S
C2066 C2065 1.387 . S
C2066 C2069 1.387 . S
H2067 C2063 0.950 . S
H2068 C2065 0.950 . S
C2069 C2060 1.390 . S
C2069 H2062 0.950 . S
C2069 C2066 1.387 . S
C2070 C2071 1.387 . S
C2070 H2074 0.950 . S
C2070 C2079 1.390 . S
C2071 C2070 1.387 . S
C2071 C2073 1.387 . S
H2072 C2079 0.950 . S
C2073 C2071 1.387 . S
C2073 C2075 1.390 . S
C2073 H2077 0.950 . S
H2074 C2070 0.950 . S
C2075 C2073 1.390 . S
C2075 C2076 1.387 . S
C2075 H2078 0.950 . S
C2076 C2075 1.387 . S
C2076 C2079 1.387 . S
H2077 C2073 0.950 . S
H2078 C2075 0.950 . S
C2079 C2070 1.390 . S
C2079 H2072 0.950 . S
C2079 C2076 1.387 . S
C2080 C2081 1.387 . S
C2080 H2084 0.950 . S
C2080 C2089 1.390 1_545 S
C2081 C2080 1.387 . S
C2081 C2083 1.387 . S
H2082 C2089 0.950 . S
C2083 C2081 1.387 . S
C2083 C2085 1.390 1_545 S
C2083 H2087 0.950 . S
H2084 C2080 0.950 . S
C2085 C2083 1.390 1_565 S
C2085 C2086 1.387 . S
C2085 H2088 0.950 . S
C2086 C2085 1.387 . S
C2086 C2089 1.387 . S
H2087 C2083 0.950 . S
H2088 C2085 0.950 . S
C2089 C2080 1.390 1_565 S
C2089 H2082 0.950 . S
C2089 C2086 1.387 . S
C2090 C2091 1.387 . S
C2090 H2094 0.950 . S
C2090 C2099 1.390 . S
C2091 C2090 1.387 . S
C2091 C2093 1.387 1_565 S
H2092 C2099 0.950 . S
C2093 C2091 1.387 1_545 S
C2093 C2095 1.390 . S
C2093 H2097 0.950 . S
H2094 C2090 0.950 . S
C2095 C2093 1.390 . S
C2095 C2096 1.387 1_545 S
C2095 H2098 0.950 . S
C2096 C2095 1.387 1_565 S
C2096 C2099 1.387 . S
H2097 C2093 0.950 . S
H2098 C2095 0.950 . S
C2099 C2090 1.390 . S
C2099 H2092 0.950 . S
C2099 C2096 1.387 . S
C2100 C2101 1.387 . S
C2100 H2104 0.950 . S
C2100 C2109 1.390 1_545 S
C2101 C2100 1.387 . S
C2101 C2103 1.387 . S
H2102 C2109 0.950 . S
C2103 C2101 1.387 . S
C2103 C2105 1.390 1_545 S
C2103 H2107 0.950 . S
H2104 C2100 0.950 . S
C2105 C2103 1.390 1_565 S
C2105 C2106 1.387 . S
C2105 H2108 0.950 . S
C2106 C2105 1.387 . S
C2106 C2109 1.387 . S
H2107 C2103 0.950 . S
H2108 C2105 0.950 . S
C2109 C2100 1.390 1_565 S
C2109 H2102 0.950 . S
C2109 C2106 1.387 . S
C2110 C2111 1.387 . S
C2110 H2114 0.949 . S
C2110 C2119 1.389 1_556 S
C2111 C2110 1.387 . S
C2111 C2113 1.387 1_545 S
H2112 C2119 0.949 . S
C2113 C2111 1.387 1_565 S
C2113 C2115 1.389 1_556 S
C2113 H2117 0.949 . S
H2114 C2110 0.949 . S
C2115 C2113 1.389 1_554 S
C2115 C2116 1.387 1_565 S
C2115 H2118 0.949 . S
C2116 C2115 1.387 1_545 S
C2116 C2119 1.387 . S
H2117 C2113 0.949 . S
H2118 C2115 0.949 . S
C2119 C2110 1.389 1_554 S
C2119 H2112 0.949 . S
C2119 C2116 1.387 . S
C2120 C2121 1.387 . S
C2120 H2124 0.950 . S
C2120 C2129 1.390 1_565 S
C2121 C2120 1.387 . S
C2121 C2123 1.387 . S
H2122 C2129 0.950 . S
C2123 C2121 1.387 . S
C2123 C2125 1.390 1_565 S
C2123 H2127 0.950 . S
H2124 C2120 0.950 . S
C2125 C2123 1.390 1_545 S
C2125 C2126 1.387 . S
C2125 H2128 0.950 . S
C2126 C2125 1.387 . S
C2126 C2129 1.387 . S
H2127 C2123 0.950 . S
H2128 C2125 0.950 . S
C2129 C2120 1.390 1_545 S
C2129 H2122 0.950 . S
C2129 C2126 1.387 . S
C2130 C2131 1.387 1_565 S
C2130 H2134 0.950 . S
C2130 C2139 1.390 . S
C2131 C2130 1.387 1_545 S
C2131 C2133 1.387 . S
H2132 C2139 0.950 . S
C2133 C2131 1.387 . S
C2133 C2135 1.390 . S
C2133 H2137 0.950 . S
H2134 C2130 0.950 . S
C2135 C2133 1.390 . S
C2135 C2136 1.387 . S
C2135 H2138 0.950 . S
C2136 C2135 1.387 . S
C2136 C2139 1.387 1_545 S
H2137 C2133 0.950 . S
H2138 C2135 0.950 . S
C2139 C2130 1.390 . S
C2139 H2132 0.950 . S
C2139 C2136 1.387 1_565 S
C2140 C2141 1.387 . S
C2140 H2144 0.950 . S
C2140 C2149 1.390 1_565 S
C2141 C2140 1.387 . S
C2141 C2143 1.387 . S
H2142 C2149 0.950 . S
C2143 C2141 1.387 . S
C2143 C2145 1.390 1_565 S
C2143 H2147 0.950 . S
H2144 C2140 0.950 . S
C2145 C2143 1.390 1_545 S
C2145 C2146 1.387 . S
C2145 H2148 0.950 . S
C2146 C2145 1.387 . S
C2146 C2149 1.387 . S
H2147 C2143 0.950 . S
H2148 C2145 0.950 . S
C2149 C2140 1.390 1_545 S
C2149 H2142 0.950 . S
C2149 C2146 1.387 . S
C2150 C2151 1.387 1_545 S
C2150 H2154 0.949 . S
C2150 C2159 1.389 1_554 S
C2151 C2150 1.387 1_565 S
C2151 C2153 1.387 . S
H2152 C2159 0.949 . S
C2153 C2151 1.387 . S
C2153 C2155 1.389 1_554 S
C2153 H2157 0.949 . S
H2154 C2150 0.949 . S
C2155 C2153 1.389 1_556 S
C2155 C2156 1.387 . S
C2155 H2158 0.949 . S
C2156 C2155 1.387 . S
C2156 C2159 1.387 1_565 S
H2157 C2153 0.949 . S
H2158 C2155 0.949 . S
C2159 C2150 1.389 1_556 S
C2159 H2152 0.949 . S
C2159 C2156 1.387 1_545 S
C2160 C2161 1.387 . S
C2160 H2164 0.950 . S
C2160 C2169 1.390 . S
C2161 C2160 1.387 . S
C2161 C2163 1.387 . S
H2162 C2169 0.950 . S
C2163 C2161 1.387 . S
C2163 C2165 1.390 . S
C2163 H2167 0.950 . S
H2164 C2160 0.950 . S
C2165 C2163 1.390 . S
C2165 C2166 1.387 . S
C2165 H2168 0.950 . S
C2166 C2165 1.387 . S
C2166 C2169 1.387 . S
H2167 C2163 0.950 . S
H2168 C2165 0.950 . S
C2169 C2160 1.390 . S
C2169 H2162 0.950 . S
C2169 C2166 1.387 . S
C2170 C2171 1.387 . S
C2170 H2174 0.950 . S
C2170 C2179 1.390 1_556 S
C2171 C2170 1.387 . S
C2171 C2173 1.387 . S
H2172 C2179 0.950 . S
C2173 C2171 1.387 . S
C2173 C2175 1.390 1_556 S
C2173 H2177 0.950 . S
H2174 C2170 0.950 . S
C2175 C2173 1.390 1_554 S
C2175 C2176 1.387 . S
C2175 H2178 0.950 . S
C2176 C2175 1.387 . S
C2176 C2179 1.387 . S
H2177 C2173 0.950 . S
H2178 C2175 0.950 . S
C2179 C2170 1.390 1_554 S
C2179 H2172 0.950 . S
C2179 C2176 1.387 . S
C2180 C2181 1.387 . S
C2180 H2184 0.950 . S
C2180 C2189 1.390 . S
C2181 C2180 1.387 . S
C2181 C2183 1.387 . S
H2182 C2189 0.950 . S
C2183 C2181 1.387 . S
C2183 C2185 1.390 . S
C2183 H2187 0.950 . S
H2184 C2180 0.950 . S
C2185 C2183 1.390 . S
C2185 C2186 1.387 . S
C2185 H2188 0.950 . S
C2186 C2185 1.387 . S
C2186 C2189 1.387 . S
H2187 C2183 0.950 . S
H2188 C2185 0.950 . S
C2189 C2180 1.390 . S
C2189 H2182 0.950 . S
C2189 C2186 1.387 . S
C2190 C2191 1.387 . S
C2190 H2194 0.950 . S
C2190 C2199 1.390 . S
C2191 C2190 1.387 . S
C2191 C2193 1.387 . S
H2192 C2199 0.950 . S
C2193 C2191 1.387 . S
C2193 C2195 1.390 . S
C2193 H2197 0.950 . S
H2194 C2190 0.950 . S
C2195 C2193 1.390 . S
C2195 C2196 1.387 . S
C2195 H2198 0.950 . S
C2196 C2195 1.387 . S
C2196 C2199 1.387 . S
H2197 C2193 0.950 . S
H2198 C2195 0.950 . S
C2199 C2190 1.390 . S
C2199 H2192 0.950 . S
C2199 C2196 1.387 . S
C2200 C2201 1.387 . S
C2200 H2204 0.950 . S
C2200 C2209 1.390 . S
C2201 C2200 1.387 . S
C2201 C2203 1.387 . S
H2202 C2209 0.950 . S
C2203 C2201 1.387 . S
C2203 C2205 1.390 . S
C2203 H2207 0.950 . S
H2204 C2200 0.950 . S
C2205 C2203 1.390 . S
C2205 C2206 1.387 . S
C2205 H2208 0.950 . S
C2206 C2205 1.387 . S
C2206 C2209 1.387 . S
H2207 C2203 0.950 . S
H2208 C2205 0.950 . S
C2209 C2200 1.390 . S
C2209 H2202 0.950 . S
C2209 C2206 1.387 . S
C2210 C2211 1.387 . S
C2210 H2214 0.949 . S
C2210 C2219 1.389 1_556 S
C2211 C2210 1.387 . S
C2211 C2213 1.387 . S
H2212 C2219 0.949 . S
C2213 C2211 1.387 . S
C2213 C2215 1.389 1_556 S
C2213 H2217 0.949 . S
H2214 C2210 0.949 . S
C2215 C2213 1.389 1_554 S
C2215 C2216 1.387 . S
C2215 H2218 0.949 . S
C2216 C2215 1.387 . S
C2216 C2219 1.387 . S
H2217 C2213 0.949 . S
H2218 C2215 0.949 . S
C2219 C2210 1.389 1_554 S
C2219 H2212 0.949 . S
C2219 C2216 1.387 . S
C2220 C2221 1.387 . S
C2220 H2224 0.950 . S
C2220 C2229 1.390 . S
C2221 C2220 1.387 . S
C2221 C2223 1.387 . S
H2222 C2229 0.950 . S
C2223 C2221 1.387 . S
C2223 C2225 1.390 . S
C2223 H2227 0.950 . S
H2224 C2220 0.950 . S
C2225 C2223 1.390 . S
C2225 C2226 1.387 . S
C2225 H2228 0.950 . S
C2226 C2225 1.387 . S
C2226 C2229 1.387 . S
H2227 C2223 0.950 . S
H2228 C2225 0.950 . S
C2229 C2220 1.390 . S
C2229 H2222 0.950 . S
C2229 C2226 1.387 . S
C2230 C2231 1.387 . S
C2230 H2234 0.950 . S
C2230 C2239 1.390 . S
C2231 C2230 1.387 . S
C2231 C2233 1.387 . S
H2232 C2239 0.950 . S
C2233 C2231 1.387 . S
C2233 C2235 1.390 . S
C2233 H2237 0.950 . S
H2234 C2230 0.950 . S
C2235 C2233 1.390 . S
C2235 C2236 1.387 . S
C2235 H2238 0.950 . S
C2236 C2235 1.387 . S
C2236 C2239 1.387 . S
H2237 C2233 0.950 . S
H2238 C2235 0.950 . S
C2239 C2230 1.390 . S
C2239 H2232 0.950 . S
C2239 C2236 1.387 . S
C1281 C7 0.996 . S
C1286 C1091 0.950 . S
C1291 C47 0.997 . S
C1296 C331 0.951 . S
C1301 C87 1.003 . S
C1306 C1011 0.958 . S
C1311 C411 0.952 . S
C1316 C127 0.998 . S
C1321 C167 0.996 . S
C1326 C1171 0.950 . S
C1331 C571 0.950 . S
C1336 C207 0.996 . S
C1341 C1251 0.950 . S
C1346 C247 0.996 . S
C1351 C287 1.004 . S
C1356 C491 0.959 . S
C1361 C336 0.995 . S
C1366 C762 0.949 . S
C1371 C376 1.004 . S
C1376 C2 0.958 . S
C1381 C682 0.958 . S
C1386 C416 1.004 . S
C1391 C82 0.951 . S
C1396 C456 0.997 . S
C1401 C496 1.004 . S
C1406 C842 0.959 . S
C1411 C536 1.004 . S
C1416 C242 0.959 . S
C1421 C576 1.003 . S
C1426 C922 0.958 . S
C1431 C162 0.958 . S
C1436 C616 1.004 . S
C1441 C451 0.950 . S
C1446 C647 0.996 . S
C1451 C971 0.953 . S
C1456 C687 0.999 . S
C1461 C371 0.958 . S
C1466 C727 1.003 . S
C1471 C767 0.996 . S
C1476 C1051 0.950 . S
C1481 C531 0.953 . S
C1486 C807 0.999 . S
C1491 C1211 0.957 . S
C1496 C847 1.003 . S
C1501 C611 0.958 . S
C1506 C887 1.003 . S
C1511 C927 1.003 . S
C1516 C1131 0.958 . S
C1521 C976 0.996 . S
C1526 C122 0.950 . S
C1531 C1016 1.004 . S
C1536 C642 0.958 . S
C1541 C1056 0.995 . S
C1546 C42 0.949 . S
C1551 C1096 1.002 . S
C1556 C722 0.956 . S
C1561 C202 0.950 . S
C1566 C1136 0.996 . S
C1571 C882 0.958 . S
C1576 C1176 1.003 . S
C1581 C1216 1.001 . S
C1586 C282 0.955 . S
C1591 C1256 1.004 . S
C1596 C802 0.958 . S
C1601 C19 3.009 . S
C1606 C739 3.009 . S
C1611 C779 3.009 1_455 S
C1616 C59 3.009 1_655 S
C1621 C99 3.009 . S
C1626 C659 3.009 . S
C1631 C139 3.009 . S
C1636 C699 3.009 . S
C1641 C899 3.009 . S
C1646 C179 3.009 . S
C1651 C219 3.009 . S
C1656 C939 3.009 . S
C1661 C819 3.009 . S
C1666 C259 3.009 . S
C1671 C299 3.011 1_655 S
C1676 C859 3.011 1_455 S
C1681 C1050 3.009 . S
C1686 C330 3.009 . S
C1691 C370 3.009 1_455 S
C1696 C1090 3.009 1_655 S
C1701 C410 3.011 . S
C1706 C970 3.011 . S
C1711 C450 3.011 . S
C1716 C1010 3.011 . S
C1721 C1210 3.012 . S
C1726 C490 3.012 . S
C1731 C1250 3.009 . S
C1736 C530 3.009 . S
C1741 C570 3.011 . S
C1746 C1130 3.011 . S
C1751 C610 3.011 1_455 S
C1756 C1170 3.011 1_655 S
C1761 C11 3.544 . S
C1766 C962 3.544 . S
C1771 C362 3.544 1_565 S
C1776 C51 3.544 1_545 S
C1781 C91 3.543 . S
C1786 C1042 3.543 . S
C1791 C131 3.543 1_565 S
C1796 C442 3.543 1_545 S
C1801 C1122 3.543 . S
C1806 C171 3.543 . S
C1811 C522 3.544 1_565 S
C1816 C211 3.544 1_545 S
C1821 C251 3.544 . S
C1826 C1202 3.544 . S
C1831 C291 3.543 1_565 S
C1836 C602 3.543 1_545 S
C1841 C651 3.544 . S
C1846 C322 3.544 . S
C1851 C731 3.543 . S
C1856 C402 3.543 . S
C1861 C811 3.544 . S
C1866 C482 3.544 . S
C1871 C562 3.543 . S
C1876 C891 3.543 . S
C1881 C691 3.544 . S
C1886 C1002 3.544 . S
C1891 C771 3.544 . S
C1896 C1082 3.544 . S
C1901 C1162 3.543 . S
C1906 C851 3.543 . S
C1911 C1242 3.543 . S
C1916 C931 3.543 . S
C1921 C10 4.571 . S
C1926 C210 4.571 . S
C1931 C250 4.571 . S
C1936 C50 4.571 . S
C1941 C290 4.571 . S
C1946 C90 4.571 . S
C1951 C170 4.570 . S
C1956 C130 4.570 . S
C1961 C339 4.571 . S
C1966 C539 4.571 . S
C1971 C379 4.571 . S
C1976 C579 4.571 . S
C1981 C619 4.570 . S
C1986 C419 4.570 . S
C1991 C459 4.570 . S
C1996 C499 4.571 . S
C2001 C650 4.570 . S
C2006 C850 4.570 . S
C2011 C690 4.571 . S
C2016 C890 4.571 . S
C2021 C730 4.571 . S
C2026 C930 4.571 . S
C2031 C810 4.570 . S
C2036 C770 4.570 . S
C2041 C979 4.570 . S
C2046 C1179 4.570 . S
C2051 C1019 4.570 . S
C2056 C1219 4.570 . S
C2061 C1259 4.570 . S
C2066 C1059 4.570 . S
C2071 C1099 4.571 . S
C2076 C1139 4.571 . S
C2081 C16 0.708 . S
C2086 C176 0.708 . S
C2091 C56 0.708 . S
C2096 C216 0.708 . S
C2101 C256 0.717 . S
C2106 C96 0.717 . S
C2111 C296 0.751 . S
C2116 C136 0.751 . S
C2121 C327 0.717 . S
C2126 C487 0.717 . S
C2131 C527 0.708 . S
C2136 C367 0.708 . S
C2141 C567 0.717 . S
C2146 C407 0.717 . S
C2151 C607 0.751 . S
C2156 C447 0.751 . S
C2161 C656 0.717 . S
C2166 C816 0.717 . S
C2171 C856 0.751 . S
C2176 C696 0.751 . S
C2181 C736 0.708 . S
C2186 C896 0.708 . S
C2191 C936 0.717 . S
C2196 C776 0.717 . S
C2201 C1127 0.717 . S
C2206 C967 0.717 . S
C2211 C1007 0.751 . S
C2216 C1167 0.751 . S
C2221 C1047 0.717 . S
C2226 C1207 0.717 . S
C2231 C1087 0.708 . S
C2236 C1247 0.708 . S
