# Generated by pormake.
# Topology xfc, (7)-cn, num edge types: 1
# Building blocks:
#     Node 0, Type 0, BuildingBlock: NUHQUE_clean_sbu_2, # of connection points: 7
#     Node 1, Type 0, BuildingBlock: NUHQUE_clean_sbu_2, # of connection points: 7
#     Node 2, Type 0, BuildingBlock: NUHQUE_clean_sbu_2, # of connection points: 7
#     Node 3, Type 0, BuildingBlock: NUHQUE_clean_sbu_2, # of connection points: 7
#     Node 4, Type 0, BuildingBlock: NUHQUE_clean_sbu_2, # of connection points: 7
#     Node 5, Type 0, BuildingBlock: NUHQUE_clean_sbu_2, # of connection points: 7
#     Node 6, Type 0, BuildingBlock: NUHQUE_clean_sbu_2, # of connection points: 7
#     Node 7, Type 0, BuildingBlock: NUHQUE_clean_sbu_2, # of connection points: 7
#     Node 8, Type 0, BuildingBlock: NUHQUE_clean_sbu_2, # of connection points: 7
#     Node 9, Type 0, BuildingBlock: NUHQUE_clean_sbu_2, # of connection points: 7
#     Node 10, Type 0, BuildingBlock: NUHQUE_clean_sbu_2, # of connection points: 7
#     Node 11, Type 0, BuildingBlock: NUHQUE_clean_sbu_2, # of connection points: 7
#     Node 12, Type 0, BuildingBlock: NUHQUE_clean_sbu_2, # of connection points: 7
#     Node 13, Type 0, BuildingBlock: NUHQUE_clean_sbu_2, # of connection points: 7
#     Node 14, Type 0, BuildingBlock: NUHQUE_clean_sbu_2, # of connection points: 7
#     Node 15, Type 0, BuildingBlock: NUHQUE_clean_sbu_2, # of connection points: 7
#     Edge 16, Type (0, 0), BuildingBlock: TEMPAE_clean_linker_10, # of connection points: 2
#     Edge 17, Type (0, 0), BuildingBlock: TEMPAE_clean_linker_10, # of connection points: 2
#     Edge 18, Type (0, 0), BuildingBlock: TEMPAE_clean_linker_10, # of connection points: 2
#     Edge 19, Type (0, 0), BuildingBlock: TEMPAE_clean_linker_10, # of connection points: 2
#     Edge 20, Type (0, 0), BuildingBlock: TEMPAE_clean_linker_10, # of connection points: 2
#     Edge 21, Type (0, 0), BuildingBlock: TEMPAE_clean_linker_10, # of connection points: 2
#     Edge 22, Type (0, 0), BuildingBlock: TEMPAE_clean_linker_10, # of connection points: 2
#     Edge 23, Type (0, 0), BuildingBlock: TEMPAE_clean_linker_10, # of connection points: 2
#     Edge 24, Type (0, 0), BuildingBlock: TEMPAE_clean_linker_10, # of connection points: 2
#     Edge 25, Type (0, 0), BuildingBlock: TEMPAE_clean_linker_10, # of connection points: 2
#     Edge 26, Type (0, 0), BuildingBlock: TEMPAE_clean_linker_10, # of connection points: 2
#     Edge 27, Type (0, 0), BuildingBlock: TEMPAE_clean_linker_10, # of connection points: 2
#     Edge 28, Type (0, 0), BuildingBlock: TEMPAE_clean_linker_10, # of connection points: 2
#     Edge 29, Type (0, 0), BuildingBlock: TEMPAE_clean_linker_10, # of connection points: 2
#     Edge 30, Type (0, 0), BuildingBlock: TEMPAE_clean_linker_10, # of connection points: 2
#     Edge 31, Type (0, 0), BuildingBlock: TEMPAE_clean_linker_10, # of connection points: 2
#     Edge 32, Type (0, 0), BuildingBlock: TEMPAE_clean_linker_10, # of connection points: 2
#     Edge 33, Type (0, 0), BuildingBlock: TEMPAE_clean_linker_10, # of connection points: 2
#     Edge 34, Type (0, 0), BuildingBlock: TEMPAE_clean_linker_10, # of connection points: 2
#     Edge 35, Type (0, 0), BuildingBlock: TEMPAE_clean_linker_10, # of connection points: 2
#     Edge 36, Type (0, 0), BuildingBlock: TEMPAE_clean_linker_10, # of connection points: 2
#     Edge 37, Type (0, 0), BuildingBlock: TEMPAE_clean_linker_10, # of connection points: 2
#     Edge 38, Type (0, 0), BuildingBlock: TEMPAE_clean_linker_10, # of connection points: 2
#     Edge 39, Type (0, 0), BuildingBlock: TEMPAE_clean_linker_10, # of connection points: 2
#     Edge 40, Type (0, 0), BuildingBlock: TEMPAE_clean_linker_10, # of connection points: 2
#     Edge 41, Type (0, 0), BuildingBlock: TEMPAE_clean_linker_10, # of connection points: 2
#     Edge 42, Type (0, 0), BuildingBlock: TEMPAE_clean_linker_10, # of connection points: 2
#     Edge 43, Type (0, 0), BuildingBlock: TEMPAE_clean_linker_10, # of connection points: 2
#     Edge 44, Type (0, 0), BuildingBlock: TEMPAE_clean_linker_10, # of connection points: 2
#     Edge 45, Type (0, 0), BuildingBlock: TEMPAE_clean_linker_10, # of connection points: 2
#     Edge 46, Type (0, 0), BuildingBlock: TEMPAE_clean_linker_10, # of connection points: 2
#     Edge 47, Type (0, 0), BuildingBlock: TEMPAE_clean_linker_10, # of connection points: 2
#     Edge 48, Type (0, 0), BuildingBlock: TEMPAE_clean_linker_10, # of connection points: 2
#     Edge 49, Type (0, 0), BuildingBlock: TEMPAE_clean_linker_10, # of connection points: 2
#     Edge 50, Type (0, 0), BuildingBlock: TEMPAE_clean_linker_10, # of connection points: 2
#     Edge 51, Type (0, 0), BuildingBlock: TEMPAE_clean_linker_10, # of connection points: 2
#     Edge 52, Type (0, 0), BuildingBlock: TEMPAE_clean_linker_10, # of connection points: 2
#     Edge 53, Type (0, 0), BuildingBlock: TEMPAE_clean_linker_10, # of connection points: 2
#     Edge 54, Type (0, 0), BuildingBlock: TEMPAE_clean_linker_10, # of connection points: 2
#     Edge 55, Type (0, 0), BuildingBlock: TEMPAE_clean_linker_10, # of connection points: 2
#     Edge 56, Type (0, 0), BuildingBlock: TEMPAE_clean_linker_10, # of connection points: 2
#     Edge 57, Type (0, 0), BuildingBlock: TEMPAE_clean_linker_10, # of connection points: 2
#     Edge 58, Type (0, 0), BuildingBlock: TEMPAE_clean_linker_10, # of connection points: 2
#     Edge 59, Type (0, 0), BuildingBlock: TEMPAE_clean_linker_10, # of connection points: 2
#     Edge 60, Type (0, 0), BuildingBlock: TEMPAE_clean_linker_10, # of connection points: 2
#     Edge 61, Type (0, 0), BuildingBlock: TEMPAE_clean_linker_10, # of connection points: 2
#     Edge 62, Type (0, 0), BuildingBlock: TEMPAE_clean_linker_10, # of connection points: 2
#     Edge 63, Type (0, 0), BuildingBlock: TEMPAE_clean_linker_10, # of connection points: 2
#     Edge 64, Type (0, 0), BuildingBlock: TEMPAE_clean_linker_10, # of connection points: 2
#     Edge 65, Type (0, 0), BuildingBlock: TEMPAE_clean_linker_10, # of connection points: 2
#     Edge 66, Type (0, 0), BuildingBlock: TEMPAE_clean_linker_10, # of connection points: 2
#     Edge 67, Type (0, 0), BuildingBlock: TEMPAE_clean_linker_10, # of connection points: 2
#     Edge 68, Type (0, 0), BuildingBlock: TEMPAE_clean_linker_10, # of connection points: 2
#     Edge 69, Type (0, 0), BuildingBlock: TEMPAE_clean_linker_10, # of connection points: 2
#     Edge 70, Type (0, 0), BuildingBlock: TEMPAE_clean_linker_10, # of connection points: 2
#     Edge 71, Type (0, 0), BuildingBlock: TEMPAE_clean_linker_10, # of connection points: 2
# Relax obj value: 0.419
# Max RMSD: 0.229
# Mean RMSD: 0.229
data_MOF--net-xfc--node1-NUHQUE_clean_sbu_2--edge1-TEMPAE_clean_linker_10
_symmetry_space_group_name_H-M    P1
_symmetry_Int_Tables_number       1
_symmetry_cell_setting            triclinic
loop_
_symmetry_equiv_pos_as_xyz
'x, y, z'
_cell_length_a     38.068826
_cell_length_b     37.980494
_cell_length_c     47.700559
_cell_angle_alpha  90.033056
_cell_angle_beta   90.1182
_cell_angle_gamma 89.907501
loop_
_atom_site_label
_atom_site_type_symbol
_atom_site_fract_x
_atom_site_fract_y
_atom_site_fract_z
_atom_type_partial_charge
O0 O 0.08984 0.92231 0.176 0.0
Tb1 Tb 0.04445 0.94991 0.15988 0.0
Eu2 Eu 0.98168 0.99807 0.18551 0.0
C3 C 0.1029 0.93079 0.2007 0.0
O4 O 0.08457 0.95099 0.21753 0.0
C5 C 0.05481 0.02889 0.166 0.0
O6 O 0.93954 0.03913 0.18089 0.0
C7 C 0.99564 0.98053 0.23723 0.0
C8 C 0.90809 0.03151 0.17123 0.0
O9 O 0.89924 0.99841 0.1676 0.0
C10 C 0.96963 0.92076 0.1629 0.0
C11 C 0.98795 0.95318 0.25886 0.0
C12 C 0.01471 0.92969 0.26783 0.0
C13 C 0.00822 0.90473 0.28913 0.0
C14 C 0.97493 0.90378 0.30145 0.0
C15 C 0.94847 0.92727 0.29351 0.0
C16 C 0.95491 0.95204 0.27232 0.0
O17 O 0.06622 0.99882 0.17595 0.0
O18 O 0.02081 0.03399 0.16418 0.0
O19 O 0.06221 0.93972 0.11694 0.0
O20 O 0.02144 0.97722 0.12416 0.0
C21 C 0.0411 0.96253 0.10517 0.0
O22 O 0.9578 0.95321 0.16129 0.0
O23 O 0.00185 0.91475 0.17171 0.0
O24 O 0.97011 0.0022 0.23008 0.0
O25 O 0.01541 0.97132 0.21585 0.0
H26 H 0.04057 0.93102 0.25851 0.0
H27 H 0.96994 0.8857 0.3186 0.0
H28 H 0.93434 0.97049 0.26669 0.0
O29 O 0.24076 0.8382 0.41515 0.0
Tb30 Tb 0.24588 0.78684 0.39565 0.0
Eu31 Eu 0.22246 0.74521 0.46043 0.0
C32 C 0.21587 0.8599 0.40684 0.0
O33 O 0.18684 0.84647 0.39666 0.0
C34 C 0.17501 0.76449 0.41076 0.0
O35 O 0.20136 0.68996 0.45853 0.0
C36 C 0.23883 0.76936 0.50968 0.0
C37 C 0.16765 0.68496 0.45426 0.0
O38 O 0.146 0.7113 0.4589 0.0
C39 C 0.29607 0.73711 0.42593 0.0
C40 C 0.26396 0.76308 0.53307 0.0
C41 C 0.28199 0.79183 0.54538 0.0
C42 C 0.30382 0.78671 0.56899 0.0
C43 C 0.30791 0.75258 0.57961 0.0
C44 C 0.29019 0.724 0.56787 0.0
C45 C 0.26851 0.72904 0.54442 0.0
O46 O 0.20294 0.75061 0.39962 0.0
O47 O 0.17812 0.77325 0.43726 0.0
O48 O 0.23295 0.81063 0.35535 0.0
O49 O 0.27556 0.77449 0.35776 0.0
C50 C 0.25725 0.79457 0.3412 0.0
O51 O 0.2704 0.72112 0.43938 0.0
O52 O 0.29271 0.76959 0.41707 0.0
O53 O 0.21432 0.74537 0.50544 0.0
O54 O 0.25165 0.78262 0.48628 0.0
H55 H 0.27817 0.81816 0.53716 0.0
H56 H 0.32508 0.74803 0.59744 0.0
H57 H 0.25475 0.7067 0.53554 0.0
O58 O 0.41437 0.04711 0.67461 0.0
Tb59 Tb 0.46627 0.02575 0.66935 0.0
Eu60 Eu 0.53018 0.98155 0.70447 0.0
C61 C 0.39455 0.0409 0.69662 0.0
O62 O 0.40781 0.0272 0.71958 0.0
C63 C 0.4605 0.94893 0.68128 0.0
O64 O 0.57635 0.94489 0.69901 0.0
C65 C 0.5113 0.99517 0.75594 0.0
C66 C 0.60709 0.95621 0.69021 0.0
O67 O 0.61299 0.99023 0.68908 0.0
C68 C 0.53738 0.06057 0.68129 0.0
C69 C 0.51562 0.02031 0.77983 0.0
C70 C 0.48648 0.04039 0.78946 0.0
C71 C 0.48939 0.06199 0.81354 0.0
C72 C 0.52126 0.06203 0.82822 0.0
C73 C 0.55039 0.0431 0.81891 0.0
C74 C 0.54783 0.02242 0.79463 0.0
O75 O 0.44917 0.97898 0.69091 0.0
O76 O 0.49454 0.94398 0.68085 0.0
O77 O 0.4538 0.0359 0.62544 0.0
O78 O 0.49242 0.99724 0.63518 0.0
C79 C 0.4754 0.01285 0.61494 0.0
O80 O 0.5525 0.02946 0.68307 0.0
O81 O 0.50333 0.06442 0.6848 0.0
O82 O 0.53813 0.97484 0.74933 0.0
O83 O 0.49321 0.00571 0.73392 0.0
H84 H 0.4617 0.03911 0.77829 0.0
H85 H 0.52376 0.07708 0.84747 0.0
H86 H 0.57058 0.00761 0.78775 0.0
O87 O 0.22248 0.1318 0.93946 0.0
Tb88 Tb 0.24069 0.18503 0.93226 0.0
Eu89 Eu 0.27173 0.25938 0.95534 0.0
C90 C 0.24519 0.10561 0.93789 0.0
O91 O 0.27851 0.11219 0.94264 0.0
C92 C 0.31734 0.19742 0.93356 0.0
O93 O 0.29873 0.31061 0.94447 0.0
C94 C 0.26724 0.23885 1.00733 0.0
C95 C 0.28739 0.32778 0.92216 0.0
O96 O 0.25838 0.31701 0.90997 0.0
C97 C 0.19047 0.25041 0.93908 0.0
C98 C 0.24238 0.23927 0.03149 0.0
C99 C 0.2284 0.20735 0.04229 0.0
C100 C 0.20687 0.20754 0.06643 0.0
C101 C 0.19929 0.23984 0.07923 0.0
C102 C 0.21268 0.27145 0.06884 0.0
C103 C 0.23385 0.27126 0.04487 0.0
O104 O 0.29385 0.18073 0.94844 0.0
O105 O 0.31131 0.23071 0.92875 0.0
O106 O 0.24512 0.16202 0.89079 0.0
O107 O 0.25076 0.21749 0.89514 0.0
C108 C 0.25148 0.19118 0.8777 0.0
O109 O 0.21794 0.27131 0.93898 0.0
O110 O 0.19344 0.2159 0.94251 0.0
O111 O 0.28169 0.26892 0.99966 0.0
O112 O 0.25884 0.21867 0.98596 0.0
H113 H 0.23487 0.1825 0.03237 0.0
H114 H 0.1821 0.24058 0.09735 0.0
H115 H 0.24408 0.296 0.03709 0.0
O116 O 0.08949 0.06879 0.82872 0.0
Tb117 Tb 0.04378 0.04411 0.84649 0.0
Eu118 Eu 0.97761 0.99805 0.82719 0.0
C119 C 0.10229 0.05811 0.80451 0.0
O120 O 0.08415 0.03608 0.789 0.0
C121 C 0.05013 0.96437 0.84463 0.0
O122 O 0.93086 0.96706 0.84164 0.0
C123 C 0.98688 0.00705 0.77362 0.0
C124 C 0.92073 0.9733 0.86755 0.0
O125 O 0.93775 0.99706 0.88224 0.0
C126 C 0.97222 0.079 0.84369 0.0
C127 C 0.97877 0.03231 0.75061 0.0
C128 C 0.00669 0.04751 0.73512 0.0
C129 C -0.00023 0.07105 0.71286 0.0
C130 C 0.96482 0.08027 0.70741 0.0
C131 C 0.93692 0.06409 0.72123 0.0
C132 C 0.94372 0.04004 0.74287 0.0
O133 O 0.06203 0.99284 0.83237 0.0
O134 O 0.01617 0.96129 0.84842 0.0
O135 O 0.06355 0.05487 0.88883 0.0
O136 O 0.01871 0.02196 0.88345 0.0
C137 C 0.04031 0.03546 0.90168 0.0
O138 O 0.95894 0.04774 0.84797 0.0
O139 O 0.00415 0.08214 0.83379 0.0
O140 O 0.96088 0.98835 0.78415 0.0
O141 O 0.00949 0.0177 0.79273 0.0
H142 H 0.03357 0.04024 0.73993 0.0
H143 H 0.95883 0.09936 0.69117 0.0
H144 H 0.9219 0.0274 0.75336 0.0
O145 O 0.24577 0.87793 0.07172 0.0
Tb146 Tb 0.26201 0.82414 0.07849 0.0
Eu147 Eu 0.28705 0.74623 0.05304 0.0
C148 C 0.26831 0.90328 0.07724 0.0
O149 O 0.302 0.89582 0.07651 0.0
C150 C 0.33707 0.80631 0.07295 0.0
O151 O 0.3086 0.69168 0.06125 0.0
C152 C 0.27567 0.76552 1.00144 0.0
C153 C 0.29036 0.6682 0.07542 0.0
O154 O 0.25659 0.67336 0.07913 0.0
C155 C 0.20941 0.76209 0.07534 0.0
C156 C 0.24733 0.76266 0.97993 0.0
C157 C 0.23137 0.79325 0.9685 0.0
C158 C 0.20553 0.79037 0.94731 0.0
C159 C 0.19524 0.75682 0.93832 0.0
C160 C 0.21051 0.72638 0.94952 0.0
C161 C 0.23667 0.72934 0.97008 0.0
O162 O 0.31323 0.82408 0.05915 0.0
O163 O 0.33103 0.77277 0.07653 0.0
O164 O 0.26905 0.84478 0.12072 0.0
O165 O 0.27055 0.78937 0.1144 0.0
C166 C 0.27285 0.81445 0.13283 0.0
O167 O 0.23585 0.73988 0.07541 0.0
O168 O 0.21346 0.79573 0.06905 0.0
O169 O 0.29251 0.7364 1.00836 0.0
O170 O 0.26942 0.78611 0.02305 0.0
H171 H 0.23956 0.81908 0.97558 0.0
H172 H 0.17524 0.75434 0.9222 0.0
H173 H 0.24836 0.70557 0.97853 0.0
O174 O 0.42542 0.93202 0.33928 0.0
Tb175 Tb 0.47396 0.9566 0.35202 0.0
Eu176 Eu 0.53504 0.00645 0.32186 0.0
C177 C 0.40779 0.94358 0.31737 0.0
O178 O 0.42215 0.96639 0.30023 0.0
C179 C 0.46586 0.03581 0.34835 0.0
O180 O 0.58457 0.03823 0.32595 0.0
C181 C 0.51286 0.99478 0.27094 0.0
C182 C 0.58211 0.07255 0.32875 0.0
O183 O 0.55144 0.08757 0.32448 0.0
C184 C 0.54727 0.92665 0.33972 0.0
C185 C 0.51954 0.97333 0.24533 0.0
C186 C 0.49142 0.95481 0.23244 0.0
C187 C 0.49667 0.93619 0.20712 0.0
C188 C 0.52976 0.93786 0.19448 0.0
C189 C 0.55806 0.95481 0.20726 0.0
C190 C 0.5532 0.97232 0.23286 0.0
O191 O 0.45385 0.0067 0.33742 0.0
O192 O 0.49987 0.04083 0.34863 0.0
O193 O 0.45893 0.94102 0.39447 0.0
O194 O 0.49946 0.97898 0.38909 0.0
C195 C 0.48103 0.96158 0.40742 0.0
O196 O 0.56067 0.95851 0.34053 0.0
O197 O 0.51364 0.92173 0.33486 0.0
O198 O 0.53583 0.01941 0.27744 0.0
O199 O 0.50007 0.97851 0.29301 0.0
H200 H 0.46576 0.95475 0.24222 0.0
H201 H 0.53408 0.92505 0.17444 0.0
H202 H 0.57531 0.98536 0.2427 0.0
O203 O 0.24793 0.1902 0.58343 0.0
Tb204 Tb 0.23667 0.22411 0.61908 0.0
Eu205 Eu 0.22699 0.24316 0.55559 0.0
C206 C 0.24821 0.15585 0.58569 0.0
O207 O 0.24993 0.13637 0.56299 0.0
C208 C 0.16604 0.21685 0.59766 0.0
O209 O 0.20583 0.29702 0.56573 0.0
C210 C 0.23644 0.22703 0.50321 0.0
C211 C 0.17197 0.30289 0.56789 0.0
O212 O 0.14994 0.27886 0.55877 0.0
C213 C 0.28252 0.27902 0.59635 0.0
C214 C 0.26108 0.23211 0.47943 0.0
C215 C 0.28044 0.2031 0.46883 0.0
C216 C 0.30212 0.20691 0.44508 0.0
C217 C 0.30454 0.24007 0.43242 0.0
C218 C 0.28548 0.26883 0.44252 0.0
C219 C 0.2639 0.26505 0.46602 0.0
O220 O 0.18224 0.23667 0.6158 0.0
O221 O 0.18257 0.20904 0.57411 0.0
O222 O 0.22196 0.19612 0.65718 0.0
O223 O 0.27333 0.2178 0.65391 0.0
C224 C 0.25172 0.20084 0.67008 0.0
O225 O 0.28051 0.26075 0.57286 0.0
O226 O 0.25737 0.2758 0.61461 0.0
O227 O 0.21735 0.25415 0.51147 0.0
O228 O 0.24753 0.20718 0.52406 0.0
H229 H 0.27794 0.17747 0.4786 0.0
H230 H 0.32169 0.24379 0.41452 0.0
H231 H 0.2492 0.28761 0.47353 0.0
O232 O 0.75579 0.34117 0.60116 0.0
Tb233 Tb 0.75318 0.29312 0.62566 0.0
Eu234 Eu 0.77283 0.25034 0.56254 0.0
C235 C 0.78248 0.36284 0.60424 0.0
O236 O 0.812 0.35029 0.61432 0.0
C237 C 0.82272 0.26798 0.61058 0.0
O238 O 0.79117 0.19421 0.56671 0.0
C239 C 0.75737 0.27306 0.51271 0.0
C240 C 0.82431 0.18734 0.57222 0.0
O241 O 0.84797 0.21141 0.56648 0.0
C242 C 0.70031 0.24103 0.59973 0.0
C243 C 0.73289 0.267 0.4888 0.0
C244 C 0.71022 0.29435 0.47952 0.0
C245 C 0.68853 0.2896 0.45572 0.0
C246 C 0.69116 0.25787 0.44083 0.0
C247 C 0.71262 0.23038 0.45005 0.0
C248 C 0.73319 0.23468 0.47415 0.0
O249 O 0.79472 0.25514 0.62227 0.0
O250 O 0.81874 0.27714 0.58429 0.0
O251 O 0.77314 0.32102 0.66231 0.0
O252 O 0.72827 0.28829 0.66666 0.0
C253 C 0.75009 0.3088 0.67977 0.0
O254 O 0.72464 0.22689 0.58354 0.0
O255 O 0.70388 0.27224 0.61117 0.0
O256 O 0.78149 0.24877 0.51764 0.0
O257 O 0.74428 0.28723 0.53573 0.0
H258 H 0.70933 0.31901 0.49092 0.0
H259 H 0.67583 0.25401 0.42188 0.0
H260 H 0.74966 0.21308 0.4811 0.0
O261 O 0.78981 0.62793 0.05809 0.0
Tb262 Tb 0.76499 0.67315 0.07778 0.0
Eu263 Eu 0.72381 0.74469 0.06024 0.0
C264 C 0.77235 0.59845 0.05404 0.0
O265 O 0.73873 0.60023 0.04807 0.0
C266 C 0.68457 0.6763 0.07778 0.0
O267 O 0.70295 0.79961 0.06713 0.0
C268 C 0.74332 0.72712 0.00984 0.0
C269 C 0.67068 0.80376 0.07634 0.0
O270 O 0.64952 0.77647 0.07613 0.0
C271 C 0.80114 0.74477 0.08284 0.0
C272 C 0.77291 0.73568 0.99083 0.0
C273 C 0.79174 0.70856 0.97693 0.0
C274 C 0.82039 0.71677 0.95926 0.0
C275 C 0.83046 0.75213 0.95679 0.0
C276 C 0.81147 0.77914 0.9697 0.0
C277 C 0.78276 0.77095 0.98669 0.0
O278 O 0.71128 0.66196 0.06455 0.0
O279 O 0.68404 0.71044 0.08138 0.0
O280 O 0.77858 0.64721 0.11718 0.0
O281 O 0.74715 0.69354 0.11812 0.0
C282 C 0.76207 0.66935 0.13329 0.0
O283 O 0.77004 0.75846 0.087 0.0
O284 O 0.80427 0.71418 0.0701 0.0
O285 O 0.72019 0.75221 0.01504 0.0
O286 O 0.75169 0.70887 0.03221 0.0
H287 H 0.78366 0.68141 0.97946 0.0
H288 H 0.85279 0.75903 0.94385 0.0
H289 H 0.76832 0.7921 0.99671 0.0
O290 O 0.79308 0.3512 0.9655 0.0
Tb291 Tb 0.76998 0.30707 0.94351 0.0
Eu292 Eu 0.72441 0.2437 0.96574 0.0
C293 C 0.7756 0.37001 0.98414 0.0
O294 O 0.74529 0.35875 0.9936 0.0
C295 C 0.69044 0.30935 0.93723 0.0
O296 O 0.69843 0.19043 0.96435 0.0
C297 C 0.7408 0.27185 0.01407 0.0
C298 C 0.66571 0.18826 0.95565 0.0
O299 O 0.64682 0.21721 0.95472 0.0
C300 C 0.80294 0.23344 0.9458 0.0
C301 C 0.76655 0.26892 0.03754 0.0
C302 C 0.7847 0.29917 0.04743 0.0
C303 C 0.80781 0.29694 0.07067 0.0
C304 C 0.81257 0.26407 0.08355 0.0
C305 C 0.79526 0.23396 0.07375 0.0
C306 C 0.77259 0.23633 0.05065 0.0
O307 O 0.71629 0.32417 0.95093 0.0
O308 O 0.6885 0.27497 0.93734 0.0
O309 O 0.78531 0.33224 0.90456 0.0
O310 O 0.7575 0.28347 0.90301 0.0
C311 C 0.7716 0.30848 0.88827 0.0
O312 O 0.77116 0.22038 0.94417 0.0
O313 O 0.80756 0.26593 0.9546 0.0
O314 O 0.71696 0.24689 0.0111 0.0
O315 O 0.75321 0.28291 0.99004 0.0
H316 H 0.7803 0.32442 0.03748 0.0
H317 H 0.83068 0.26155 0.10102 0.0
H318 H 0.75938 0.21284 0.04321 0.0
O319 O 0.80857 0.67447 0.42411 0.0
Tb320 Tb 0.7776 0.70906 0.39692 0.0
Eu321 Eu 0.79185 0.76104 0.46058 0.0
C322 C 0.80827 0.63995 0.4231 0.0
O323 O 0.82935 0.62191 0.43952 0.0
C324 C 0.8416 0.7442 0.41265 0.0
O325 O 0.81596 0.81484 0.45485 0.0
C326 C 0.77969 0.74117 0.51184 0.0
C327 C 0.79829 0.84133 0.44386 0.0
O328 O 0.76383 0.84024 0.4436 0.0
C329 C 0.71917 0.7567 0.42204 0.0
C330 C 0.75297 0.744 0.53465 0.0
C331 C 0.73236 0.71452 0.54264 0.0
C332 C 0.70906 0.7167 0.56568 0.0
C333 C 0.70804 0.7481 0.5812 0.0
C334 C 0.72743 0.77757 0.57329 0.0
C335 C 0.74956 0.7757 0.54994 0.0
O336 O 0.81194 0.7534 0.40113 0.0
O337 O 0.83959 0.73727 0.43953 0.0
O338 O 0.76315 0.67467 0.36193 0.0
O339 O 0.79039 0.72208 0.35358 0.0
C340 C 0.77658 0.69425 0.34237 0.0
O341 O 0.74116 0.77482 0.43794 0.0
O342 O 0.72653 0.72546 0.41162 0.0
O343 O 0.79707 0.77 0.50526 0.0
O344 O 0.77241 0.72125 0.48991 0.0
H345 H 0.73432 0.69018 0.53089 0.0
H346 H 0.6915 0.75004 0.59962 0.0
H347 H 0.7646 0.79879 0.54421 0.0
O348 O 0.59127 0.44222 0.68013 0.0
Tb349 Tb 0.54375 0.46761 0.66574 0.0
Eu350 Eu 0.48323 0.51831 0.69473 0.0
C351 C 0.61022 0.45604 0.70046 0.0
O352 O 0.59638 0.47964 0.71724 0.0
C353 C 0.55268 0.54704 0.66863 0.0
O354 O 0.43776 0.55628 0.69233 0.0
C355 C 0.50617 0.50163 0.7447 0.0
C356 C 0.40588 0.54523 0.68622 0.0
O357 O 0.39906 0.5114 0.68747 0.0
C358 C 0.46799 0.44113 0.67193 0.0
C359 C 0.50168 0.47655 0.76849 0.0
C360 C 0.53174 0.46301 0.7825 0.0
C361 C 0.52811 0.44161 0.80653 0.0
C362 C 0.49434 0.43304 0.81577 0.0
C363 C 0.46441 0.44595 0.80226 0.0
C364 C 0.46795 0.46778 0.77865 0.0
O365 O 0.56479 0.51799 0.67962 0.0
O366 O 0.51869 0.55188 0.6679 0.0
O367 O 0.56012 0.45152 0.6237 0.0
O368 O 0.52157 0.49186 0.62822 0.0
C369 C 0.53986 0.47358 0.61035 0.0
O370 O 0.45692 0.47383 0.67231 0.0
O371 O 0.50069 0.4335 0.6787 0.0
O372 O 0.48103 0.52482 0.7401 0.0
O373 O 0.52015 0.48939 0.72146 0.0
H374 H 0.55778 0.47009 0.77531 0.0
H375 H 0.4912 0.41634 0.83406 0.0
H376 H 0.44462 0.47809 0.76848 0.0
O377 O 0.94678 0.58997 0.20741 0.0
Tb378 Tb 0.97176 0.56652 0.17069 0.0
Eu379 Eu 0.03312 0.51512 0.18546 0.0
C380 C 0.91301 0.58784 0.21234 0.0
O381 O 0.90045 0.59872 0.23646 0.0
C382 C 0.96072 0.48615 0.16123 0.0
O383 O 0.07857 0.47836 0.17891 0.0
C384 C 0.0161 0.52543 0.23772 0.0
C385 C 0.07304 0.44432 0.17726 0.0
O386 O 0.04169 0.43208 0.18327 0.0
C387 C 0.04842 0.5941 0.16963 0.0
C388 C 0.02299 0.54923 0.26197 0.0
C389 C 0.9968 0.57338 0.27088 0.0
C390 C 0.00241 0.59513 0.29444 0.0
C391 C 0.0338 0.59153 0.30942 0.0
C392 C 0.05982 0.56784 0.30117 0.0
C393 C 0.05462 0.54666 0.27747 0.0
O394 O 0.94696 0.51439 0.17312 0.0
O395 O 0.99501 0.48276 0.15985 0.0
O396 O 0.94962 0.58908 0.13232 0.0
O397 O 0.99399 0.55352 0.13067 0.0
C398 C 0.97195 0.57238 0.11597 0.0
O399 O 0.05955 0.5618 0.16579 0.0
O400 O 0.01701 0.59974 0.18006 0.0
O401 O 0.04136 0.50391 0.22978 0.0
O402 O 0.99818 0.53844 0.21653 0.0
H403 H 0.9722 0.57525 0.25955 0.0
H404 H 0.03804 0.60702 0.32827 0.0
H405 H 0.07494 0.52816 0.27142 0.0
O406 O 0.58212 0.55147 0.33367 0.0
Tb407 Tb 0.53445 0.52525 0.34652 0.0
Eu408 Eu 0.46607 0.4842 0.31615 0.0
C409 C 0.60879 0.5341 0.32287 0.0
O410 O 0.60524 0.50082 0.3161 0.0
C411 C 0.53092 0.44713 0.34127 0.0
O412 O 0.41374 0.45732 0.3178 0.0
C413 C 0.49114 0.4952 0.26616 0.0
C414 C 0.41305 0.4228 0.31754 0.0
O415 O 0.44213 0.40576 0.31143 0.0
C416 C 0.46178 0.56322 0.3393 0.0
C417 C 0.48617 0.51722 0.24077 0.0
C418 C 0.51598 0.5288 0.22571 0.0
C419 C 0.51206 0.54786 0.20053 0.0
C420 C 0.47811 0.5559 0.19113 0.0
C421 C 0.44839 0.54457 0.20564 0.0
C422 C 0.45227 0.52532 0.23056 0.0
O423 O 0.54488 0.47394 0.32836 0.0
O424 O 0.49681 0.44725 0.34389 0.0
O425 O 0.55876 0.53178 0.38773 0.0
O426 O 0.50942 0.5059 0.38479 0.0
C427 C 0.53417 0.51603 0.40183 0.0
O428 O 0.44512 0.53317 0.33626 0.0
O429 O 0.49608 0.56595 0.33605 0.0
O430 O 0.46684 0.47157 0.2717 0.0
O431 O 0.50346 0.51091 0.28871 0.0
H432 H 0.54207 0.52216 0.23318 0.0
H433 H 0.47457 0.57122 0.17212 0.0
H434 H 0.42913 0.5164 0.24166 0.0
O435 O 0.90184 0.45627 0.86034 0.0
Tb436 Tb 0.95523 0.4753 0.86457 0.0
Eu437 Eu 0.02956 0.49873 0.82703 0.0
C438 C 0.87667 0.4769 0.85084 0.0
O439 O 0.88461 0.5039 0.8351 0.0
C440 C 0.96705 0.547 0.8427 0.0
O441 O 0.08157 0.52451 0.83572 0.0
C442 C 0.01545 0.48516 0.7747 0.0
C443 C 0.09509 0.52024 0.8609 0.0
O444 O 0.07949 0.4985 0.87827 0.0
C445 C 0.02106 0.42337 0.86035 0.0
C446 C 0.01971 0.45698 0.75312 0.0
C447 C 0.99125 0.43454 0.74598 0.0
C448 C 0.99504 0.40868 0.72491 0.0
C449 C 0.02709 0.40609 0.7108 0.0
C450 C 0.05515 0.42826 0.71712 0.0
C451 C 0.0516 0.45377 0.73815 0.0
O452 O 0.95188 0.51786 0.83464 0.0
O453 O 0.00111 0.54545 0.84556 0.0
O454 O 0.93241 0.48825 0.90516 0.0
O455 O 0.98415 0.50572 0.89631 0.0
C456 C 0.95886 0.50623 0.91466 0.0
O457 O 0.04143 0.44843 0.85029 0.0
O458 O 0.98659 0.42681 0.86305 0.0
O459 O 0.04395 0.50186 0.78303 0.0
O460 O 0.99299 0.47945 0.79519 0.0
H461 H 0.96631 0.43718 0.7567 0.0
H462 H 0.03006 0.38722 0.69385 0.0
H463 H 0.07349 0.47112 0.74254 0.0
C464 C 0.06521 0.04098 0.95016 0.0
C465 C 0.04034 0.0265 0.93182 0.0
C466 C 0.06622 0.03098 0.97856 0.0
C467 C 0.04196 0.00572 0.98868 0.0
C468 C 0.01678 0.99113 0.97015 0.0
C469 C 0.0162 0.0018 0.942 0.0
C470 C 0.09321 0.04741 0.99773 0.0
C471 C 0.99056 0.96402 0.97999 0.0
C472 C 0.06251 0.95537 0.05586 0.0
C473 C 0.04127 0.97293 0.07532 0.0
C474 C 0.0632 0.96589 0.02759 0.0
C475 C 0.04243 0.99485 0.01872 0.0
C476 C 0.02124 0.01286 0.03844 0.0
C477 C 0.02081 0.00158 0.06645 0.0
C478 C 0.08588 0.94584 1.00716 0.0
C479 C 0.99895 0.04403 0.02995 0.0
H480 H 0.08399 0.05997 0.94229 0.0
H481 H 0.99705 0.99038 0.92782 0.0
H482 H 0.07987 0.06108 0.01531 0.0
H483 H 0.11013 0.02665 1.00703 0.0
H484 H 0.11019 0.06664 0.98664 0.0
H485 H 0.97281 0.95511 0.96289 0.0
H486 H 0.00459 0.94075 0.98856 0.0
H487 H 0.97432 0.97508 0.99717 0.0
H488 H 0.0785 0.93334 0.06271 0.0
H489 H 0.00458 0.01545 0.08151 0.0
H490 H 0.10463 0.96397 0.9968 0.0
H491 H 0.06922 0.93418 0.99046 0.0
H492 H 0.10097 0.92439 0.01748 0.0
H493 H 0.01569 0.06467 0.0204 0.0
H494 H 0.98461 0.05569 0.04797 0.0
H495 H 0.97951 0.03588 0.01385 0.0
C496 C 0.29188 0.78284 0.29806 0.0
C497 C 0.2625 0.79802 0.31087 0.0
C498 C 0.2967 0.7854 0.26901 0.0
C499 C 0.27115 0.80302 0.25258 0.0
C500 C 0.24164 0.8188 0.26555 0.0
C501 C 0.23781 0.81631 0.29467 0.0
C502 C 0.32892 0.76911 0.25587 0.0
C503 C 0.21379 0.83772 0.24865 0.0
C504 C 0.29123 0.83595 0.17956 0.0
C505 C 0.27607 0.80953 0.16311 0.0
C506 C 0.29114 0.83352 0.20883 0.0
C507 C 0.27475 0.8043 0.22171 0.0
C508 C 0.26023 0.77707 0.20504 0.0
C509 C 0.2615 0.77982 0.17579 0.0
C510 C 0.30743 0.86277 0.2259 0.0
C511 C 0.24198 0.74584 0.21808 0.0
H512 H 0.31113 0.76901 0.31074 0.0
H513 H 0.21519 0.82823 0.30471 0.0
H514 H 0.32101 0.74778 0.24127 0.0
H515 H 0.34322 0.78911 0.24337 0.0
H516 H 0.34716 0.75795 0.27177 0.0
H517 H 0.19243 0.84845 0.26202 0.0
H518 H 0.22572 0.85976 0.23678 0.0
H519 H 0.20208 0.81943 0.23309 0.0
H520 H 0.30266 0.85879 0.16948 0.0
H521 H 0.24956 0.75959 0.16286 0.0
H522 H 0.32408 0.85186 0.24293 0.0
H523 H 0.28639 0.87866 0.23584 0.0
H524 H 0.32373 0.88056 0.21283 0.0
H525 H 0.25989 0.73229 0.23295 0.0
H526 H 0.23294 0.72652 0.20213 0.0
H527 H 0.21885 0.75499 0.23021 0.0
C528 C 0.4602 0.94814 0.45593 0.0
C529 C 0.48299 0.96652 0.43815 0.0
C530 C 0.46025 0.95428 0.485 0.0
C531 C 0.48368 0.9794 0.49653 0.0
C532 C 0.50731 0.99742 0.47869 0.0
C533 C 0.50664 0.99078 0.4497 0.0
C534 C 0.43461 0.93454 0.50329 0.0
C535 C 0.53269 0.02438 0.49013 0.0
C536 C 0.45794 0.02316 0.56522 0.0
C537 C 0.47846 0.00468 0.58472 0.0
C538 C 0.45951 0.01526 0.53649 0.0
C539 C 0.48218 0.98817 0.527 0.0
C540 C 0.50313 0.96952 0.54663 0.0
C541 C 0.501 0.978 0.5753 0.0
C542 C 0.4367 0.03578 0.5163 0.0
C543 C 0.52762 0.9405 0.53734 0.0
H544 H 0.44184 0.92939 0.44705 0.0
H545 H 0.52429 0.00506 0.43601 0.0
H546 H 0.44879 0.92097 0.52053 0.0
H547 H 0.41599 0.95335 0.5131 0.0
H548 H 0.4193 0.9147 0.49131 0.0
H549 H 0.55062 0.03468 0.47373 0.0
H550 H 0.5179 0.0468 0.49925 0.0
H551 H 0.54871 0.01269 0.50721 0.0
H552 H 0.4404 0.04376 0.57244 0.0
H553 H 0.5168 0.96358 0.59036 0.0
H554 H 0.41875 0.01762 0.50504 0.0
H555 H 0.45329 0.04883 0.50029 0.0
H556 H 0.42068 0.05619 0.52702 0.0
H557 H 0.51241 0.91926 0.52697 0.0
H558 H 0.54258 0.92894 0.55513 0.0
H559 H 0.54654 0.95078 0.5217 0.0
C560 C 0.28893 0.2047 0.71283 0.0
C561 C 0.25804 0.19307 0.69981 0.0
C562 C 0.29281 0.20273 0.74202 0.0
C563 C 0.26512 0.18881 0.75831 0.0
C564 C 0.23496 0.17474 0.745 0.0
C565 C 0.23172 0.17717 0.71581 0.0
C566 C 0.32578 0.2169 0.75553 0.0
C567 C 0.2056 0.15823 0.76167 0.0
C568 C 0.27597 0.16473 0.83476 0.0
C569 C 0.25934 0.1932 0.84777 0.0
C570 C 0.27959 0.16352 0.80563 0.0
C571 C 0.2662 0.19155 0.78929 0.0
C572 C 0.25145 0.22151 0.80262 0.0
C573 C 0.24838 0.22206 0.8319 0.0
C574 C 0.29578 0.1312 0.79261 0.0
C575 C 0.23727 0.25213 0.78587 0.0
H576 H 0.30947 0.21666 0.70034 0.0
H577 H 0.20807 0.16767 0.70562 0.0
H578 H 0.3193 0.24053 0.7682 0.0
H579 H 0.33714 0.19702 0.77001 0.0
H580 H 0.34598 0.22422 0.7398 0.0
H581 H 0.18433 0.14777 0.74804 0.0
H582 H 0.2161 0.13634 0.77461 0.0
H583 H 0.19413 0.17797 0.77619 0.0
H584 H 0.2853 0.14284 0.84736 0.0
H585 H 0.23584 0.24419 0.84222 0.0
H586 H 0.31048 0.13763 0.77325 0.0
H587 H 0.27452 0.11241 0.78733 0.0
H588 H 0.31393 0.11781 0.80739 0.0
H589 H 0.25749 0.26183 0.77106 0.0
H590 H 0.22883 0.27434 0.79947 0.0
H591 H 0.21439 0.24334 0.77324 0.0
C592 C 0.75316 0.34148 0.84605 0.0
C593 C 0.76862 0.31151 0.85784 0.0
C594 C 0.74914 0.34447 0.81695 0.0
C595 C 0.76112 0.31683 0.7995 0.0
C596 C 0.77695 0.28654 0.81147 0.0
C597 C 0.78006 0.28404 0.84068 0.0
C598 C 0.73203 0.37704 0.80492 0.0
C599 C 0.79049 0.2568 0.79344 0.0
C600 C 0.72393 0.30119 0.72704 0.0
C601 C 0.75072 0.31468 0.71016 0.0
C602 C 0.72613 0.30344 0.7563 0.0
C603 C 0.75619 0.31885 0.76875 0.0
C604 C 0.78251 0.33402 0.75169 0.0
C605 C 0.77923 0.33204 0.72249 0.0
C606 C 0.69692 0.2882 0.77388 0.0
C607 C 0.81507 0.3505 0.76414 0.0
H608 H 0.74323 0.36208 0.85963 0.0
H609 H 0.79179 0.26084 0.85011 0.0
H610 H 0.75143 0.39188 0.79229 0.0
H611 H 0.7102 0.36964 0.79065 0.0
H612 H 0.72164 0.39476 0.82149 0.0
H613 H 0.80367 0.23595 0.80598 0.0
H614 H 0.76842 0.24472 0.78167 0.0
H615 H 0.80942 0.26707 0.7778 0.0
H616 H 0.7016 0.28823 0.71739 0.0
H617 H 0.79971 0.34285 0.70931 0.0
H618 H 0.68827 0.30758 0.78987 0.0
H619 H 0.70665 0.26461 0.78522 0.0
H620 H 0.67384 0.28044 0.76101 0.0
H621 H 0.80843 0.36757 0.78223 0.0
H622 H 0.82969 0.3664 0.74849 0.0
H623 H 0.83272 0.32936 0.77193 0.0
C624 C 0.73914 0.69027 0.17914 0.0
C625 C 0.76228 0.66874 0.16411 0.0
C626 C 0.74061 0.6918 0.20849 0.0
C627 C 0.76607 0.67156 0.22303 0.0
C628 C 0.7887 0.64885 0.20791 0.0
C629 C 0.78661 0.64788 0.17856 0.0
C630 C 0.71548 0.71571 0.22391 0.0
C631 C 0.81635 0.6267 0.2222 0.0
C632 C 0.79404 0.70844 0.29347 0.0
C633 C 0.77525 0.6871 0.31204 0.0
C634 C 0.79219 0.70287 0.26445 0.0
C635 C 0.77021 0.67594 0.2538 0.0
C636 C 0.75158 0.65397 0.27253 0.0
C637 C 0.75462 0.65969 0.30147 0.0
C638 C 0.81354 0.72593 0.24517 0.0
C639 C 0.72839 0.62458 0.26199 0.0
H640 H 0.72016 0.70628 0.16792 0.0
H641 H 0.80478 0.63154 0.16691 0.0
H642 H 0.70149 0.70075 0.24045 0.0
H643 H 0.73035 0.73708 0.23444 0.0
H644 H 0.69572 0.72782 0.20969 0.0
H645 H 0.82017 0.60155 0.21077 0.0
H646 H 0.84164 0.64119 0.22192 0.0
H647 H 0.80977 0.62055 0.24429 0.0
H648 H 0.81013 0.72962 0.30163 0.0
H649 H 0.74054 0.64293 0.3158 0.0
H650 H 0.79578 0.74118 0.23124 0.0
H651 H 0.83044 0.70932 0.23158 0.0
H652 H 0.83051 0.74466 0.25688 0.0
H653 H 0.70798 0.63532 0.24769 0.0
H654 H 0.7152 0.61026 0.27933 0.0
H655 H 0.74433 0.60553 0.24975 0.0
C656 C 0.56197 0.52357 0.44883 0.0
C657 C 0.53513 0.50924 0.43227 0.0
C658 C 0.56335 0.51719 0.4778 0.0
C659 C 0.53752 0.49559 0.49038 0.0
C660 C 0.51066 0.48063 0.47361 0.0
C661 C 0.50962 0.48789 0.44476 0.0
C662 C 0.59231 0.53374 0.495 0.0
C663 C 0.48301 0.45698 0.48616 0.0
C664 C 0.55764 0.45602 0.56193 0.0
C665 C 0.5389 0.47858 0.5797 0.0
C666 C 0.55734 0.46109 0.53275 0.0
C667 C 0.53801 0.48953 0.52121 0.0
C668 C 0.51919 0.51246 0.53917 0.0
C669 C 0.51968 0.50655 0.56819 0.0
C670 C 0.57729 0.43569 0.51431 0.0
C671 C 0.49878 0.54345 0.52776 0.0
H672 H 0.5818 0.54 0.43916 0.0
H673 H 0.48899 0.47656 0.43193 0.0
H674 H 0.58083 0.55085 0.51149 0.0
H675 H 0.60776 0.51296 0.50578 0.0
H676 H 0.61044 0.54978 0.48202 0.0
H677 H 0.4644 0.44677 0.47014 0.0
H678 H 0.49572 0.43429 0.49677 0.0
H679 H 0.46789 0.47159 0.50228 0.0
H680 H 0.57246 0.43432 0.57082 0.0
H681 H 0.50527 0.52411 0.58193 0.0
H682 H 0.59367 0.45008 0.49891 0.0
H683 H 0.55833 0.4194 0.50233 0.0
H684 H 0.5945 0.41782 0.52665 0.0
H685 H 0.51666 0.56119 0.51608 0.0
H686 H 0.48572 0.55888 0.54458 0.0
H687 H 0.47846 0.53417 0.51279 0.0
C688 C 0.98477 0.54021 0.07233 0.0
C689 C 0.97028 0.57 0.08519 0.0
C690 C 0.98245 0.53523 0.04338 0.0
C691 C 0.96599 0.56119 0.02661 0.0
C692 C 0.95227 0.59206 0.03934 0.0
C693 C 0.95411 0.59588 0.06871 0.0
C694 C 0.99655 0.50143 0.03092 0.0
C695 C 0.93494 0.62063 0.02224 0.0
C696 C 0.98806 0.54502 0.95028 0.0
C697 C 0.95933 0.52454 0.94195 0.0
C698 C 0.98916 0.56025 0.97716 0.0
C699 C 0.96129 0.55397 0.99619 0.0
C700 C 0.93133 0.53514 0.98713 0.0
C701 C 0.93062 0.52113 0.96 0.0
C702 C 0.02082 0.58157 0.98566 0.0
C703 C 0.90091 0.52789 1.00659 0.0
H704 H 0.99704 0.51999 0.08508 0.0
H705 H 0.94299 0.61897 0.0787 0.0
H706 H 0.97493 0.48673 0.02057 0.0
H707 H 0.01648 0.50737 0.01468 0.0
H708 H 0.00877 0.48403 0.04693 0.0
H709 H 0.93485 0.64619 0.03359 0.0
H710 H 0.94833 0.62419 1.00179 0.0
H711 H 0.90725 0.61327 0.018 0.0
H712 H 0.00993 0.54858 0.93604 0.0
H713 H 0.90786 0.50663 0.95321 0.0
H714 H 0.03737 0.56596 1.00025 0.0
H715 H 0.01255 0.60582 0.99687 0.0
H716 H 0.03708 0.58911 0.9673 0.0
H717 H 0.90969 0.51028 0.02381 0.0
H718 H 0.87847 0.51522 0.99561 0.0
H719 H 0.89154 0.5527 0.01629 0.0
C720 C 0.19253 0.17086 0.10847 0.0
C721 C 0.19144 0.17506 0.0792 0.0
C722 C 0.17195 0.1455 0.12215 0.0
C723 C 0.14999 0.12298 0.10625 0.0
C724 C 0.15062 0.12531 0.07651 0.0
C725 C 0.17122 0.15144 0.06333 0.0
C726 C 0.1723 0.14416 0.1538 0.0
C727 C 0.12833 0.10128 0.05868 0.0
C728 C 0.11396 0.04282 0.14517 0.0
C729 C 0.07971 0.05368 0.15202 0.0
C730 C 0.13664 0.06454 0.12952 0.0
C731 C 0.12529 0.09844 0.12103 0.0
C732 C 0.09091 0.10973 0.12819 0.0
C733 C 0.06849 0.08715 0.14329 0.0
C734 C 0.17275 0.05121 0.12186 0.0
C735 C 0.07786 0.14587 0.12006 0.0
H736 H 0.20841 0.18873 0.12089 0.0
H737 H 0.17005 0.15456 0.04076 0.0
H738 H 0.14596 0.15136 0.16194 0.0
H739 H 0.17813 0.11707 0.16113 0.0
H740 H 0.19198 0.16237 0.16305 0.0
H741 H 0.13493 0.10339 0.03606 0.0
H742 H 0.13166 0.07349 0.06535 0.0
H743 H 0.1002 0.10813 0.0614 0.0
H744 H 0.12284 0.01696 0.15156 0.0
H745 H 0.04209 0.09579 0.14829 0.0
H746 H 0.19312 0.06794 0.1318 0.0
H747 H 0.17661 0.05282 0.09884 0.0
H748 H 0.17708 0.02363 0.12855 0.0
H749 H 0.0951 0.1663 0.12942 0.0
H750 H 0.05046 0.1507 0.12705 0.0
H751 H 0.07903 0.14907 0.09697 0.0
C752 C 0.06836 0.89472 0.3097 0.0
C753 C 0.03597 0.8811 0.3009 0.0
C754 C 0.09143 0.87448 0.32634 0.0
C755 C 0.08194 0.83979 0.33438 0.0
C756 C 0.05022 0.82525 0.32409 0.0
C757 C 0.0278 0.84596 0.30743 0.0
C758 C 0.12547 0.89061 0.33606 0.0
C759 C 0.0391 0.78833 0.33171 0.0
C760 C 0.15267 0.77793 0.36249 0.0
C761 C 0.14859 0.78108 0.39172 0.0
C762 C 0.13136 0.79683 0.34368 0.0
C763 C 0.10458 0.81906 0.35416 0.0
C764 C 0.0993 0.82131 0.38359 0.0
C765 C 0.12132 0.80229 0.40201 0.0
C766 C 0.13796 0.79343 0.31258 0.0
C767 C 0.0709 0.84455 0.39562 0.0
H768 H 0.07483 0.92183 0.30489 0.0
H769 H 0.00297 0.83509 0.30042 0.0
H770 H 0.1268 0.89036 0.35931 0.0
H771 H 0.14779 0.87468 0.32815 0.0
H772 H 0.12871 0.91813 0.32865 0.0
H773 H 0.01506 0.78002 0.32027 0.0
H774 H 0.06046 0.76932 0.32706 0.0
H775 H 0.03383 0.78687 0.35455 0.0
H776 H 0.17339 0.76139 0.35415 0.0
H777 H 0.11786 0.80486 0.42447 0.0
H778 H 0.11403 0.78349 0.30191 0.0
H779 H 0.16014 0.77535 0.30781 0.0
H780 H 0.14394 0.81961 0.30348 0.0
H781 H 0.07574 0.87234 0.38958 0.0
H782 H 0.06962 0.84292 0.41885 0.0
H783 H 0.04497 0.83698 0.38684 0.0
C784 C 0.32222 0.81677 0.61326 0.0
C785 C 0.32216 0.81608 0.58381 0.0
C786 C 0.34409 0.83968 0.6283 0.0
C787 C 0.36604 0.86337 0.61366 0.0
C788 C 0.36452 0.86453 0.58393 0.0
C789 C 0.34269 0.84069 0.5693 0.0
C790 C 0.3445 0.83768 0.65993 0.0
C791 C 0.38676 0.89014 0.56758 0.0
C792 C 0.40232 0.93843 0.65803 0.0
C793 C 0.43639 0.92649 0.66439 0.0
C794 C 0.3796 0.91879 0.64084 0.0
C795 C 0.39098 0.88612 0.62979 0.0
C796 C 0.42533 0.87387 0.6361 0.0
C797 C 0.44768 0.89429 0.65315 0.0
C798 C 0.34351 0.93326 0.63431 0.0
C799 C 0.43825 0.83883 0.62527 0.0
H800 H 0.30585 0.79836 0.62465 0.0
H801 H 0.34283 0.84033 0.54658 0.0
H802 H 0.37126 0.83067 0.66736 0.0
H803 H 0.33784 0.86373 0.66902 0.0
H804 H 0.32569 0.81789 0.66815 0.0
H805 H 0.38066 0.88963 0.5448 0.0
H806 H 0.3827 0.9173 0.57555 0.0
H807 H 0.41496 0.88369 0.57049 0.0
H808 H 0.3934 0.96349 0.66624 0.0
H809 H 0.47397 0.88493 0.6578 0.0
H810 H 0.32305 0.91286 0.63728 0.0
H811 H 0.34253 0.94156 0.61202 0.0
H812 H 0.33679 0.95627 0.64763 0.0
H813 H 0.42144 0.81739 0.63356 0.0
H814 H 0.46592 0.83345 0.63139 0.0
H815 H 0.43625 0.83804 0.60207 0.0
C816 C 0.34438 0.18857 0.88625 0.0
C817 C 0.34055 0.17746 0.91417 0.0
C818 C 0.36484 0.16936 0.86705 0.0
C819 C 0.38344 0.13915 0.87622 0.0
C820 C 0.37951 0.12771 0.90438 0.0
C821 C 0.35754 0.14659 0.92284 0.0
C822 C 0.36647 0.18141 0.8369 0.0
C823 C 0.39904 0.09588 0.91517 0.0
C824 C 0.4255 0.07149 0.82677 0.0
C825 C 0.46 0.08417 0.82491 0.0
C826 C 0.39972 0.08987 0.84226 0.0
C827 C 0.40889 0.12106 0.85701 0.0
C828 C 0.4433 0.13463 0.85421 0.0
C829 C 0.46783 0.11679 0.8375 0.0
C830 C 0.36337 0.07446 0.84381 0.0
C831 C 0.45506 0.16684 0.87031 0.0
H832 H 0.33066 0.21196 0.87916 0.0
H833 H 0.35434 0.13771 0.94428 0.0
H834 H 0.39257 0.19301 0.83249 0.0
H835 H 0.36299 0.15871 0.82252 0.0
H836 H 0.34614 0.20155 0.83206 0.0
H837 H 0.39506 0.09177 0.938 0.0
H838 H 0.38994 0.07203 0.90388 0.0
H839 H 0.4276 0.09874 0.91109 0.0
H840 H 0.41891 0.04645 0.81721 0.0
H841 H 0.49402 0.12763 0.83548 0.0
H842 H 0.34331 0.09412 0.85013 0.0
H843 H 0.36342 0.05275 0.85936 0.0
H844 H 0.35567 0.06301 0.82327 0.0
H845 H 0.43943 0.19012 0.86389 0.0
H846 H 0.48331 0.17284 0.86703 0.0
H847 H 0.4506 0.16279 0.89307 0.0
C848 C 0.18812 0.82346 0.90417 0.0
C849 C 0.18876 0.82145 0.93356 0.0
C850 C 0.16704 0.84822 0.89012 0.0
C851 C 0.14577 0.8717 0.90573 0.0
C852 C 0.14763 0.87102 0.93547 0.0
C853 C 0.16913 0.84589 0.94905 0.0
C854 C 0.16644 0.84825 0.85846 0.0
C855 C 0.12583 0.89583 0.95298 0.0
C856 C 0.10939 0.95063 0.86534 0.0
C857 C 0.07499 0.93982 0.859 0.0
C858 C 0.13209 0.9295 0.88157 0.0
C859 C 0.12082 0.89592 0.89073 0.0
C860 C 0.08625 0.88466 0.88415 0.0
C861 C 0.06365 0.90689 0.86873 0.0
C862 C 0.16817 0.94315 0.88892 0.0
C863 C 0.07313 0.84902 0.89335 0.0
H864 H 0.20332 0.80464 0.89211 0.0
H865 H 0.16922 0.84421 0.97174 0.0
H866 H 0.13972 0.84141 0.85089 0.0
H867 H 0.17266 0.87492 0.85043 0.0
H868 H 0.18547 0.8292 0.8494 0.0
H869 H 0.13341 0.89491 0.97547 0.0
H870 H 0.12855 0.92328 0.94535 0.0
H871 H 0.09769 0.88862 0.95114 0.0
H872 H 0.11836 0.97609 0.85818 0.0
H873 H 0.03708 0.89838 0.86419 0.0
H874 H 0.18813 0.92916 0.87617 0.0
H875 H 0.1744 0.9381 0.91129 0.0
H876 H 0.17054 0.97184 0.88502 0.0
H877 H 0.08983 0.82804 0.88414 0.0
H878 H 0.04545 0.84433 0.88698 0.0
H879 H 0.07509 0.84664 0.91648 0.0
C880 C 0.47866 0.8834 0.17896 0.0
C881 C 0.46888 0.91461 0.19287 0.0
C882 C 0.45587 0.86629 0.16033 0.0
C883 C 0.42125 0.87906 0.15672 0.0
C884 C 0.40995 0.90855 0.1727 0.0
C885 C 0.43407 0.92639 0.1902 0.0
C886 C 0.46965 0.83561 0.14336 0.0
C887 C 0.3729 0.92234 0.17054 0.0
C888 C 0.376 0.85651 0.08743 0.0
C889 C 0.35902 0.82492 0.09406 0.0
C890 C 0.39588 0.87475 0.10772 0.0
C891 C 0.39771 0.86181 0.1356 0.0
C892 C 0.37938 0.83065 0.14263 0.0
C893 C 0.36102 0.81219 0.12168 0.0
C894 C 0.41553 0.90747 0.09917 0.0
C895 C 0.3791 0.81682 0.17231 0.0
H896 H 0.50501 0.87307 0.18165 0.0
H897 H 0.42598 0.95026 0.20086 0.0
H898 H 0.46706 0.84146 0.12065 0.0
H899 H 0.49767 0.82972 0.14797 0.0
H900 H 0.45398 0.81165 0.14764 0.0
H901 H 0.36508 0.93631 0.19003 0.0
H902 H 0.37126 0.94138 0.15296 0.0
H903 H 0.35381 0.90091 0.16641 0.0
H904 H 0.37424 0.86659 0.06622 0.0
H905 H 0.34738 0.78814 0.12718 0.0
H906 H 0.44393 0.90429 0.10388 0.0
H907 H 0.40593 0.93034 0.11144 0.0
H908 H 0.41241 0.91344 0.07651 0.0
H909 H 0.40555 0.80691 0.17804 0.0
H910 H 0.35995 0.79506 0.17512 0.0
H911 H 0.37252 0.83834 0.18718 0.0
C912 C 0.32369 0.17324 0.40338 0.0
C913 C 0.32245 0.17708 0.43266 0.0
C914 C 0.34665 0.14924 0.39057 0.0
C915 C 0.36869 0.12786 0.40738 0.0
C916 C 0.36629 0.13016 0.43703 0.0
C917 C 0.34325 0.15485 0.44934 0.0
C918 C 0.34811 0.14763 0.35895 0.0
C919 C 0.38877 0.10724 0.45569 0.0
C920 C 0.40738 0.0481 0.37016 0.0
C921 C 0.44135 0.05973 0.36341 0.0
C922 C 0.38403 0.06941 0.3854 0.0
C923 C 0.39447 0.10363 0.39365 0.0
C924 C 0.42878 0.11553 0.38701 0.0
C925 C 0.45192 0.09332 0.3722 0.0
C926 C 0.34799 0.05539 0.3923 0.0
C927 C 0.44081 0.15201 0.39508 0.0
H928 H 0.3072 0.18982 0.39033 0.0
H929 H 0.34254 0.15771 0.47194 0.0
H930 H 0.37488 0.15458 0.35168 0.0
H931 H 0.34259 0.12047 0.35162 0.0
H932 H 0.32898 0.16582 0.34889 0.0
H933 H 0.38209 0.11039 0.47821 0.0
H934 H 0.38565 0.07914 0.44983 0.0
H935 H 0.41686 0.11402 0.45278 0.0
H936 H 0.39904 0.02199 0.36383 0.0
H937 H 0.47815 0.10243 0.36722 0.0
H938 H 0.32793 0.06952 0.37969 0.0
H939 H 0.34176 0.05992 0.41472 0.0
H940 H 0.34576 0.0268 0.38783 0.0
H941 H 0.42395 0.17195 0.38463 0.0
H942 H 0.46857 0.15694 0.38916 0.0
H943 H 0.43804 0.15588 0.41802 0.0
C944 C 0.06024 0.09721 0.70446 0.0
C945 C 0.02766 0.0858 0.69408 0.0
C946 C 0.0839 0.11571 0.68711 0.0
C947 C 0.07421 0.12399 0.65909 0.0
C948 C 0.04214 0.11114 0.64825 0.0
C949 C 0.02001 0.0913 0.66551 0.0
C950 C 0.11865 0.12758 0.69911 0.0
C951 C 0.03 0.12016 0.61892 0.0
C952 C 0.11377 0.20719 0.62787 0.0
C953 C 0.13852 0.19351 0.60908 0.0
C954 C 0.09216 0.18487 0.64374 0.0
C955 C 0.09631 0.14787 0.64156 0.0
C956 C 0.12081 0.13389 0.62216 0.0
C957 C 0.14124 0.15691 0.6058 0.0
C958 C 0.06535 0.20095 0.66322 0.0
C959 C 0.12644 0.09467 0.61953 0.0
H960 H 0.06674 0.09291 0.72632 0.0
H961 H 0.99572 0.08127 0.65674 0.0
H962 H 0.14024 0.12237 0.68406 0.0
H963 H 0.11789 0.15638 0.70292 0.0
H964 H 0.12481 0.11421 0.71925 0.0
H965 H 0.00477 0.1072 0.61339 0.0
H966 H 0.02642 0.14908 0.61711 0.0
H967 H 0.05005 0.11235 0.60329 0.0
H968 H 0.11194 0.23549 0.63063 0.0
H969 H 0.16083 0.14626 0.59169 0.0
H970 H 0.0723 0.19479 0.68527 0.0
H971 H 0.03902 0.18951 0.6591 0.0
H972 H 0.06364 0.23001 0.66092 0.0
H973 H 0.1016 0.08148 0.6135 0.0
H974 H 0.13444 0.08368 0.64012 0.0
H975 H 0.14678 0.08794 0.60375 0.0
C976 C 0.88089 0.96183 0.90772 0.0
C977 C 0.89469 0.951 0.88184 0.0
C978 C 0.86139 0.93867 0.92437 0.0
C979 C 0.856 0.90382 0.91499 0.0
C980 C 0.86766 0.89355 0.88798 0.0
C981 C 0.88675 0.91743 0.87159 0.0
C982 C 0.84881 0.95081 0.95278 0.0
C983 C 0.86228 0.85652 0.87723 0.0
C984 C 0.85536 0.82691 0.96482 0.0
C985 C 0.82043 0.81583 0.96267 0.0
C986 C 0.8668 0.85719 0.95091 0.0
C987 C 0.84256 0.87673 0.93456 0.0
C988 C 0.80654 0.86756 0.93461 0.0
C989 C 0.79584 0.837 0.94871 0.0
C990 C 0.90538 0.86641 0.95176 0.0
C991 C 0.77986 0.88822 0.91791 0.0
H992 H 0.88657 0.98802 0.91556 0.0
H993 H 0.8973 0.90903 0.85158 0.0
H994 H 0.82182 0.9412 0.95697 0.0
H995 H 0.86625 0.93982 0.96927 0.0
H996 H 0.84905 0.97997 0.95464 0.0
H997 H 0.87001 0.85371 0.8549 0.0
H998 H 0.87824 0.83792 0.88993 0.0
H999 H 0.83438 0.84867 0.87943 0.0
H1000 H 0.87422 0.81049 0.97582 0.0
H1001 H 0.76883 0.82823 0.94698 0.0
H1002 H 0.90896 0.89473 0.95665 0.0
H1003 H 0.9172 0.86151 0.93087 0.0
H1004 H 0.91999 0.85063 0.96757 0.0
H1005 H 0.7842 0.91694 0.92031 0.0
H1006 H 0.75255 0.88193 0.92435 0.0
H1007 H 0.78271 0.88177 0.89534 0.0
C1008 C 0.86838 0.15185 0.59892 0.0
C1009 C 0.83317 0.15877 0.59228 0.0
C1010 C 0.8774 0.1306 0.6219 0.0
C1011 C 0.85052 0.11594 0.63881 0.0
C1012 C 0.81492 0.12093 0.63118 0.0
C1013 C 0.80665 0.14223 0.60794 0.0
C1014 C 0.91582 0.12555 0.629 0.0
C1015 C 0.78549 0.10576 0.64851 0.0
C1016 C 0.89054 0.04863 0.68746 0.0
C1017 C 0.90168 0.07058 0.70935 0.0
C1018 C 0.86997 0.06201 0.6654 0.0
C1019 C 0.86034 0.09804 0.66553 0.0
C1020 C 0.86704 0.11867 0.68973 0.0
C1021 C 0.88775 0.10463 0.71141 0.0
C1022 C 0.86278 0.03886 0.64035 0.0
C1023 C 0.85658 0.15698 0.69111 0.0
H1024 H 0.88901 0.16436 0.58689 0.0
H1025 H 0.77931 0.14748 0.6031 0.0
H1026 H 0.92187 0.13879 0.64919 0.0
H1027 H 0.92189 0.09716 0.63162 0.0
H1028 H 0.93342 0.13648 0.61264 0.0
H1029 H 0.76008 0.10608 0.63701 0.0
H1030 H 0.79148 0.07832 0.65492 0.0
H1031 H 0.78239 0.12158 0.66791 0.0
H1032 H 0.90167 0.02242 0.68569 0.0
H1033 H 0.8967 0.12171 0.7282 0.0
H1034 H 0.88252 0.04441 0.62385 0.0
H1035 H 0.83642 0.04428 0.63138 0.0
H1036 H 0.86456 0.01049 0.64586 0.0
H1037 H 0.87467 0.1727 0.67787 0.0
H1038 H 0.85788 0.16736 0.71287 0.0
H1039 H 0.82958 0.16087 0.68289 0.0
C1040 C 0.60552 0.12808 0.34947 0.0
C1041 C 0.61081 0.09264 0.3424 0.0
C1042 C 0.62943 0.14609 0.36661 0.0
C1043 C 0.65973 0.1284 0.37671 0.0
C1044 C 0.66641 0.09331 0.36824 0.0
C1045 C 0.64175 0.07574 0.35127 0.0
C1046 C 0.6213 0.18362 0.37502 0.0
C1047 C 0.6987 0.0738 0.37811 0.0
C1048 C 0.72216 0.19545 0.40682 0.0
C1049 C 0.7105 0.19679 0.43463 0.0
C1050 C 0.7088 0.17025 0.38812 0.0
C1051 C 0.68272 0.14649 0.39747 0.0
C1052 C 0.6739 0.14535 0.42632 0.0
C1053 C 0.68805 0.17058 0.44464 0.0
C1054 C 0.71965 0.17177 0.35774 0.0
C1055 C 0.64633 0.12038 0.43723 0.0
H1056 H 0.58183 0.14144 0.34263 0.0
H1057 H 0.64614 0.04838 0.34584 0.0
H1058 H 0.61756 0.18516 0.39806 0.0
H1059 H 0.64361 0.20109 0.36961 0.0
H1060 H 0.59725 0.19392 0.36463 0.0
H1061 H 0.70313 0.04922 0.36597 0.0
H1062 H 0.72236 0.09067 0.3764 0.0
H1063 H 0.69561 0.0667 0.40052 0.0
H1064 H 0.73931 0.21604 0.3991 0.0
H1065 H 0.67873 0.17203 0.46608 0.0
H1066 H 0.69929 0.18607 0.34555 0.0
H1067 H 0.72204 0.14493 0.34875 0.0
H1068 H 0.74504 0.18576 0.35509 0.0
H1069 H 0.61998 0.12959 0.43041 0.0
H1070 H 0.64658 0.11887 0.4605 0.0
H1071 H 0.65028 0.09356 0.42859 0.0
C1072 C 0.68615 0.86012 0.10117 0.0
C1073 C 0.66065 0.83581 0.0923 0.0
C1074 C 0.67775 0.88709 0.12031 0.0
C1075 C 0.64309 0.88971 0.13082 0.0
C1076 C 0.61688 0.86639 0.12073 0.0
C1077 C 0.62598 0.83983 0.10163 0.0
C1078 C 0.70639 0.91152 0.13029 0.0
C1079 C 0.57937 0.86843 0.13104 0.0
C1080 C 0.61302 0.92143 0.20154 0.0
C1081 C 0.59252 0.95036 0.19355 0.0
C1082 C 0.63372 0.90354 0.18176 0.0
C1083 C 0.63384 0.91513 0.15351 0.0
C1084 C 0.61766 0.94758 0.14659 0.0
C1085 C 0.59708 0.96486 0.16677 0.0
C1086 C 0.65124 0.86952 0.19027 0.0
C1087 C 0.61791 0.96149 0.11699 0.0
H1088 H 0.71307 0.85718 0.09416 0.0
H1089 H 0.60606 0.82135 0.09478 0.0
H1090 H 0.69665 0.93898 0.13194 0.0
H1091 H 0.71518 0.90326 0.15148 0.0
H1092 H 0.72951 0.911 0.11612 0.0
H1093 H 0.56193 0.8492 0.12034 0.0
H1094 H 0.57854 0.8632 0.15392 0.0
H1095 H 0.56863 0.89525 0.12759 0.0
H1096 H 0.60925 0.91003 0.22216 0.0
H1097 H 0.58098 0.98712 0.16054 0.0
H1098 H 0.67737 0.86688 0.18025 0.0
H1099 H 0.63486 0.84704 0.18318 0.0
H1100 H 0.65449 0.86765 0.21337 0.0
H1101 H 0.64381 0.95713 0.10695 0.0
H1102 H 0.61157 0.99005 0.11635 0.0
H1103 H 0.59787 0.94726 0.10442 0.0
C1104 C 0.81896 0.17284 0.07303 0.0
C1105 C 0.80214 0.19995 0.08766 0.0
C1106 C 0.83174 0.1431 0.08725 0.0
C1107 C 0.82697 0.14039 0.11664 0.0
C1108 C 0.80759 0.16655 0.13105 0.0
C1109 C 0.79577 0.1963 0.11641 0.0
C1110 C 0.85265 0.116 0.07118 0.0
C1111 C 0.80127 0.16426 0.16223 0.0
C1112 C 0.85128 0.05309 0.15067 0.0
C1113 C 0.88551 0.06006 0.16013 0.0
C1114 C 0.83131 0.07928 0.13721 0.0
C1115 C 0.84622 0.11293 0.13272 0.0
C1116 C 0.88037 0.12033 0.1429 0.0
C1117 C 0.89944 0.09394 0.15669 0.0
C1118 C 0.79467 0.07073 0.12718 0.0
C1119 C 0.89736 0.15581 0.13834 0.0
H1120 H 0.82403 0.17595 0.05081 0.0
H1121 H 0.7826 0.21738 0.1276 0.0
H1122 H 0.88069 0.11762 0.07746 0.0
H1123 H 0.84343 0.08906 0.07621 0.0
H1124 H 0.85083 0.12 0.04815 0.0
H1125 H 0.78127 0.1836 0.16937 0.0
H1126 H 0.79251 0.13742 0.16812 0.0
H1127 H 0.82616 0.16954 0.1736 0.0
H1128 H 0.84031 0.02699 0.15334 0.0
H1129 H 0.92589 0.09957 0.16382 0.0
H1130 H 0.79387 0.07115 0.10394 0.0
H1131 H 0.77582 0.09093 0.13471 0.0
H1132 H 0.78579 0.04443 0.13445 0.0
H1133 H 0.89954 0.16119 0.11554 0.0
H1134 H 0.92402 0.15738 0.14778 0.0
H1135 H 0.88086 0.17693 0.14755 0.0
C1136 C 0.5844 0.03274 0.86233 0.0
C1137 C 0.58303 0.0473 0.83535 0.0
C1138 C 0.60428 0.04876 0.88364 0.0
C1139 C 0.62285 0.08016 0.87775 0.0
C1140 C 0.62519 0.09209 0.84964 0.0
C1141 C 0.60517 0.07544 0.82872 0.0
C1142 C 0.6017 0.03458 0.9131 0.0
C1143 C 0.64506 0.12514 0.84227 0.0
C1144 C 0.61887 0.15526 0.93011 0.0
C1145 C 0.65349 0.15662 0.94012 0.0
C1146 C 0.60836 0.12955 0.91072 0.0
C1147 C 0.63304 0.10432 0.90107 0.0
C1148 C 0.66744 0.10409 0.91243 0.0
C1149 C 0.67729 0.13029 0.93182 0.0
C1150 C 0.57121 0.13061 0.89943 0.0
C1151 C 0.69441 0.07749 0.90299 0.0
H1152 H 0.56686 0.01125 0.86753 0.0
H1153 H 0.60367 0.08702 0.80797 0.0
H1154 H 0.62719 0.03693 0.92425 0.0
H1155 H 0.58198 0.05014 0.92493 0.0
H1156 H 0.59337 0.00656 0.91324 0.0
H1157 H 0.64943 0.12742 0.81932 0.0
H1158 H 0.62979 0.14844 0.84929 0.0
H1159 H 0.67085 0.12582 0.8531 0.0
H1160 H 0.60023 0.17531 0.9365 0.0
H1161 H 0.70416 0.13111 0.93935 0.0
H1162 H 0.55846 0.10458 0.90205 0.0
H1163 H 0.57164 0.13655 0.87665 0.0
H1164 H 0.55482 0.15081 0.91006 0.0
H1165 H 0.68275 0.0508 0.90154 0.0
H1166 H 0.71738 0.07653 0.91737 0.0
H1167 H 0.70392 0.08467 0.88178 0.0
C1168 C 0.70175 0.83744 0.578 0.0
C1169 C 0.72233 0.81043 0.58936 0.0
C1170 C 0.68788 0.86403 0.59524 0.0
C1171 C 0.69516 0.86359 0.62442 0.0
C1172 C 0.7185 0.83802 0.63544 0.0
C1173 C 0.7315 0.81146 0.6178 0.0
C1174 C 0.66297 0.89065 0.58264 0.0
C1175 C 0.7275 0.83698 0.66626 0.0
C1176 C 0.66462 0.94297 0.66676 0.0
C1177 C 0.63194 0.93131 0.67669 0.0
C1178 C 0.68619 0.92088 0.6505 0.0
C1179 C 0.67457 0.88652 0.64373 0.0
C1180 C 0.64221 0.87421 0.65456 0.0
C1181 C 0.62145 0.89664 0.67105 0.0
C1182 C 0.72081 0.93469 0.63981 0.0
C1183 C 0.62875 0.83777 0.64779 0.0
H1184 H 0.69428 0.83621 0.55607 0.0
H1185 H 0.7472 0.79027 0.62654 0.0
H1186 H 0.63582 0.88495 0.58975 0.0
H1187 H 0.66962 0.91761 0.58981 0.0
H1188 H 0.66336 0.89009 0.55935 0.0
H1189 H 0.75033 0.81955 0.67059 0.0
H1190 H 0.73346 0.86379 0.67419 0.0
H1191 H 0.70462 0.82698 0.6782 0.0
H1192 H 0.673 0.96969 0.67107 0.0
H1193 H 0.59626 0.88736 0.67855 0.0
H1194 H 0.71952 0.93775 0.6167 0.0
H1195 H 0.74221 0.91568 0.64443 0.0
H1196 H 0.72768 0.96056 0.6492 0.0
H1197 H 0.62488 0.83513 0.62481 0.0
H1198 H 0.60346 0.83193 0.65837 0.0
H1199 H 0.64831 0.81763 0.6542 0.0
C1200 C 0.8954 0.89564 0.30959 0.0
C1201 C 0.91551 0.92646 0.30978 0.0
C1202 C 0.87186 0.88831 0.33137 0.0
C1203 C 0.8686 0.91236 0.35396 0.0
C1204 C 0.88637 0.94509 0.35281 0.0
C1205 C 0.90976 0.95175 0.33065 0.0
C1206 C 0.85323 0.85321 0.33156 0.0
C1207 C 0.88342 0.97155 0.37628 0.0
C1208 C 0.79787 0.88773 0.40646 0.0
C1209 C 0.8169 0.86617 0.42502 0.0
C1210 C 0.81462 0.90498 0.38411 0.0
C1211 C 0.85122 0.90061 0.3803 0.0
C1212 C 0.87091 0.88122 0.40029 0.0
C1213 C 0.85353 0.86431 0.4224 0.0
C1214 C 0.79273 0.92569 0.36347 0.0
C1215 C 0.91009 0.87613 0.39719 0.0
H1216 H 0.90027 0.87595 0.29358 0.0
H1217 H 0.92579 0.97532 0.33099 0.0
H1218 H 0.86539 0.83586 0.3476 0.0
H1219 H 0.82518 0.85661 0.33719 0.0
H1220 H 0.8548 0.83972 0.31093 0.0
H1221 H 0.89289 0.99796 0.36978 0.0
H1222 H 0.85587 0.97389 0.3836 0.0
H1223 H 0.89955 0.96258 0.39432 0.0
H1224 H 0.76955 0.8895 0.40832 0.0
H1225 H 0.86853 0.84798 0.43672 0.0
H1226 H 0.78962 0.91019 0.3439 0.0
H1227 H 0.8059 0.95074 0.35786 0.0
H1228 H 0.76617 0.9317 0.37184 0.0
H1229 H 0.91547 0.85945 0.37857 0.0
H1230 H 0.922 0.86329 0.41585 0.0
H1231 H 0.92325 0.9018 0.39378 0.0
C1232 C 0.69667 0.65208 0.57559 0.0
C1233 C 0.68527 0.68724 0.5745 0.0
C1234 C 0.67572 0.62574 0.58813 0.0
C1235 C 0.64318 0.63502 0.6007 0.0
C1236 C 0.63099 0.67012 0.59848 0.0
C1237 C 0.65157 0.69531 0.58475 0.0
C1238 C 0.68929 0.58841 0.58879 0.0
C1239 C 0.59697 0.6817 0.61198 0.0
C1240 C 0.56945 0.57334 0.62268 0.0
C1241 C 0.57632 0.56893 0.65135 0.0
C1242 C 0.59256 0.5924 0.60544 0.0
C1243 C 0.62227 0.60911 0.61745 0.0
C1244 C 0.62959 0.60409 0.64638 0.0
C1245 C 0.60696 0.58332 0.66282 0.0
C1246 C 0.58519 0.59464 0.57438 0.0
C1247 C 0.66073 0.62153 0.66019 0.0
H1248 H 0.72247 0.6453 0.56766 0.0
H1249 H 0.64174 0.72203 0.58309 0.0
H1250 H 0.7049 0.58439 0.60819 0.0
H1251 H 0.66757 0.56894 0.58861 0.0
H1252 H 0.7068 0.5831 0.57067 0.0
H1253 H 0.59187 0.7103 0.60922 0.0
H1254 H 0.57458 0.66694 0.6029 0.0
H1255 H 0.59772 0.67584 0.63477 0.0
H1256 H 0.54632 0.5612 0.61361 0.0
H1257 H 0.61264 0.57919 0.68486 0.0
H1258 H 0.60926 0.58804 0.56235 0.0
H1259 H 0.57756 0.62189 0.56868 0.0
H1260 H 0.56377 0.57658 0.56779 0.0
H1261 H 0.68537 0.61207 0.65038 0.0
H1262 H 0.66205 0.61605 0.68304 0.0
H1263 H 0.65939 0.65046 0.65703 0.0
C1264 C 0.58402 0.40625 0.8119 0.0
C1265 C 0.55847 0.42853 0.82348 0.0
C1266 C 0.6081 0.38805 0.82924 0.0
C1267 C 0.6064 0.39208 0.85884 0.0
C1268 C 0.58187 0.4161 0.87036 0.0
C1269 C 0.55842 0.43401 0.8526 0.0
C1270 C 0.63401 0.3631 0.81589 0.0
C1271 C 0.57909 0.42153 0.90164 0.0
C1272 C 0.63655 0.31758 0.90721 0.0
C1273 C 0.66829 0.33075 0.91785 0.0
C1274 C 0.61647 0.33702 0.88773 0.0
C1275 C 0.62874 0.37012 0.87806 0.0
C1276 C 0.66131 0.38303 0.88814 0.0
C1277 C 0.68035 0.36353 0.90817 0.0
C1278 C 0.58189 0.32225 0.87766 0.0
C1279 C 0.67602 0.41759 0.87793 0.0
H1280 H 0.584 0.40161 0.78947 0.0
H1281 H 0.53878 0.4513 0.86166 0.0
H1282 H 0.65947 0.36314 0.82724 0.0
H1283 H 0.62335 0.33595 0.81673 0.0
H1284 H 0.63874 0.36985 0.79355 0.0
H1285 H 0.55957 0.44214 0.90721 0.0
H1286 H 0.57126 0.39649 0.91184 0.0
H1287 H 0.60497 0.42916 0.91043 0.0
H1288 H 0.62724 0.29215 0.9143 0.0
H1289 H 0.70522 0.37367 0.91576 0.0
H1290 H 0.58217 0.31963 0.8545 0.0
H1291 H 0.56025 0.34062 0.88312 0.0
H1292 H 0.57611 0.29609 0.88696 0.0
H1293 H 0.70434 0.42038 0.88305 0.0
H1294 H 0.66157 0.43962 0.88795 0.0
H1295 H 0.6727 0.4202 0.8549 0.0
C1296 C 0.90317 0.46676 0.13957 0.0
C1297 C 0.93782 0.45889 0.14754 0.0
C1298 C 0.88214 0.44213 0.12501 0.0
C1299 C 0.89552 0.40823 0.11879 0.0
C1300 C 0.93056 0.40008 0.12664 0.0
C1301 C 0.95129 0.42548 0.14063 0.0
C1302 C 0.84525 0.45212 0.11661 0.0
C1303 C 0.94608 0.36434 0.12048 0.0
C1304 C 0.82952 0.33301 0.1114 0.0
C1305 C 0.82747 0.32804 0.08222 0.0
C1306 C 0.85137 0.35886 0.12336 0.0
C1307 C 0.87199 0.3807 0.10587 0.0
C1308 C 0.86919 0.37675 0.0763 0.0
C1309 C 0.84694 0.35056 0.06484 0.0
C1310 C 0.85266 0.36247 0.15487 0.0
C1311 C 0.89007 0.39988 0.05679 0.0
H1312 H 0.89267 0.49249 0.14429 0.0
H1313 H 0.97809 0.41899 0.14637 0.0
H1314 H 0.83882 0.44256 0.09524 0.0
H1315 H 0.82636 0.43993 0.13136 0.0
H1316 H 0.84145 0.4809 0.11694 0.0
H1317 H 0.9741 0.36244 0.12687 0.0
H1318 H 0.931 0.34376 0.13173 0.0
H1319 H 0.94401 0.35853 0.09774 0.0
H1320 H 0.81422 0.31617 0.12505 0.0
H1321 H 0.84573 0.34691 0.04232 0.0
H1322 H 0.84468 0.38949 0.16106 0.0
H1323 H 0.87994 0.35838 0.16245 0.0
H1324 H 0.83521 0.34335 0.1656 0.0
H1325 H 0.88429 0.42802 0.06105 0.0
H1326 H 0.8843 0.39431 0.03438 0.0
H1327 H 0.91857 0.39586 0.06056 0.0
C1328 C 0.88792 0.69783 0.40429 0.0
C1329 C 0.86747 0.72593 0.3944 0.0
C1330 C 0.90858 0.67764 0.3858 0.0
C1331 C 0.90877 0.68571 0.35675 0.0
C1332 C 0.88891 0.71466 0.34683 0.0
C1333 C 0.86885 0.73456 0.36578 0.0
C1334 C 0.92987 0.64734 0.39729 0.0
C1335 C 0.88804 0.72402 0.31606 0.0
C1336 C 0.98767 0.6537 0.31538 0.0
C1337 C 0.97603 0.62106 0.30503 0.0
C1338 C 0.96587 0.67523 0.33171 0.0
C1339 C 0.93089 0.66471 0.33698 0.0
C1340 C 0.91786 0.63345 0.32438 0.0
C1341 C 0.94072 0.61174 0.30879 0.0
C1342 C 0.98098 0.70826 0.3446 0.0
C1343 C 0.88041 0.62176 0.32873 0.0
H1344 H 0.88697 0.6909 0.42631 0.0
H1345 H 0.85339 0.7565 0.35801 0.0
H1346 H 0.92093 0.62233 0.38762 0.0
H1347 H 0.95798 0.65075 0.3918 0.0
H1348 H 0.92761 0.64499 0.42043 0.0
H1349 H 0.87294 0.74853 0.31195 0.0
H1350 H 0.91508 0.72748 0.30791 0.0
H1351 H 0.87588 0.70215 0.30406 0.0
H1352 H 0.01469 0.66157 0.31193 0.0
H1353 H 0.93143 0.58665 0.3009 0.0
H1354 H 0.98006 0.70634 0.3678 0.0
H1355 H 0.96507 0.73151 0.33847 0.0
H1356 H 0.00865 0.71283 0.33822 0.0
H1357 H 0.87804 0.60979 0.34984 0.0
H1358 H 0.87228 0.60183 0.31295 0.0
H1359 H 0.86199 0.64441 0.32769 0.0
C1360 C 0.54353 0.42167 0.38859 0.0
C1361 C 0.55306 0.42582 0.3604 0.0
C1362 C 0.5654 0.40355 0.40753 0.0
C1363 C 0.59696 0.38792 0.39781 0.0
C1364 C 0.60653 0.39197 0.36923 0.0
C1365 C 0.58488 0.41159 0.35107 0.0
C1366 C 0.55509 0.40216 0.43806 0.0
C1367 C 0.6391 0.37461 0.35761 0.0
C1368 C 0.67112 0.35265 0.44434 0.0
C1369 C 0.6628 0.31667 0.44549 0.0
C1370 C 0.64882 0.37676 0.43037 0.0
C1371 C 0.6182 0.36441 0.41651 0.0
C1372 C 0.60874 0.32857 0.41909 0.0
C1373 C 0.63055 0.30552 0.43409 0.0
C1374 C 0.65846 0.41525 0.42978 0.0
C1375 C 0.57625 0.3141 0.40496 0.0
H1376 H 0.51933 0.43344 0.39603 0.0
H1377 H 0.5924 0.41511 0.32934 0.0
H1378 H 0.56021 0.37587 0.44732 0.0
H1379 H 0.57114 0.42158 0.4498 0.0
H1380 H 0.52695 0.40882 0.44116 0.0
H1381 H 0.64278 0.38016 0.33494 0.0
H1382 H 0.66267 0.38382 0.36913 0.0
H1383 H 0.63741 0.34566 0.36055 0.0
H1384 H 0.69563 0.36178 0.45333 0.0
H1385 H 0.62292 0.27814 0.4359 0.0
H1386 H 0.63547 0.43156 0.43586 0.0
H1387 H 0.66596 0.42302 0.4082 0.0
H1388 H 0.68069 0.42133 0.44411 0.0
H1389 H 0.55254 0.32784 0.41293 0.0
H1390 H 0.57299 0.28538 0.4085 0.0
H1391 H 0.57762 0.31892 0.38203 0.0
C1392 C 0.93317 0.39861 0.70783 0.0
C1393 C 0.96602 0.38498 0.71558 0.0
C1394 C 0.90896 0.37792 0.69265 0.0
C1395 C 0.91811 0.34307 0.68468 0.0
C1396 C 0.95025 0.32854 0.6941 0.0
C1397 C 0.97351 0.34947 0.70971 0.0
C1398 C 0.87445 0.39407 0.68378 0.0
C1399 C 0.9612 0.2916 0.6862 0.0
C1400 C 0.84723 0.28056 0.65828 0.0
C1401 C 0.84986 0.28427 0.62901 0.0
C1402 C 0.8691 0.2995 0.67659 0.0
C1403 C 0.89491 0.3223 0.66549 0.0
C1404 C 0.8989 0.32489 0.63597 0.0
C1405 C 0.8764 0.30578 0.61808 0.0
C1406 C 0.86432 0.29527 0.70784 0.0
C1407 C 0.92653 0.34842 0.62329 0.0
H1408 H 0.92721 0.42599 0.71215 0.0
H1409 H 0.99867 0.3386 0.716 0.0
H1410 H 0.87528 0.39984 0.661 0.0
H1411 H 0.85248 0.37547 0.6874 0.0
H1412 H 0.86888 0.41897 0.69517 0.0
H1413 H 0.98588 0.28338 0.69683 0.0
H1414 H 0.94025 0.27254 0.69155 0.0
H1415 H 0.9653 0.29008 0.6632 0.0
H1416 H 0.82723 0.26357 0.66706 0.0
H1417 H 0.87883 0.30861 0.59556 0.0
H1418 H 0.88693 0.28054 0.71669 0.0
H1419 H 0.83989 0.28076 0.71309 0.0
H1420 H 0.86364 0.32135 0.71829 0.0
H1421 H 0.92142 0.37618 0.62933 0.0
H1422 H 0.92708 0.34667 0.60005 0.0
H1423 H 0.95286 0.34126 0.63155 0.0
C1424 C 0.85109 0.69838 0.91504 0.0
C1425 C 0.83978 0.68978 0.94225 0.0
C1426 C 0.87332 0.67616 0.89968 0.0
C1427 C 0.88293 0.64291 0.91076 0.0
C1428 C 0.87068 0.63336 0.93788 0.0
C1429 C 0.84958 0.65701 0.95337 0.0
C1430 C 0.88673 0.68938 0.87179 0.0
C1431 C 0.88067 0.59887 0.95133 0.0
C1432 C 0.91073 0.57878 0.85322 0.0
C1433 C 0.94643 0.57345 0.85899 0.0
C1434 C 0.8896 0.60002 0.87052 0.0
C1435 C 0.90488 0.6182 0.8935 0.0
C1436 C 0.94147 0.61445 0.89856 0.0
C1437 C 0.9616 0.59173 0.88157 0.0
C1438 C 0.8509 0.60301 0.86385 0.0
C1439 C 0.9597 0.63427 0.92184 0.0
H1440 H 0.84316 0.72319 0.90573 0.0
H1441 H 0.84156 0.65016 0.97447 0.0
H1442 H 0.91075 0.67553 0.86462 0.0
H1443 H 0.86589 0.68617 0.85571 0.0
H1444 H 0.89266 0.71798 0.87304 0.0
H1445 H 0.85966 0.58955 0.96564 0.0
H1446 H 0.88634 0.57809 0.93564 0.0
H1447 H 0.90452 0.60287 0.96425 0.0
H1448 H 0.89917 0.56637 0.83502 0.0
H1449 H 0.98923 0.58798 0.88628 0.0
H1450 H 0.84612 0.62737 0.85164 0.0
H1451 H 0.83491 0.60435 0.88324 0.0
H1452 H 0.8416 0.58049 0.85097 0.0
H1453 H 0.94839 0.66098 0.92467 0.0
H1454 H 0.98832 0.63683 0.9178 0.0
H1455 H 0.95655 0.61962 0.94176 0.0
C1456 C 0.54063 0.55652 0.15387 0.0
C1457 C 0.54247 0.55959 0.18319 0.0
C1458 C 0.56517 0.57305 0.13643 0.0
C1459 C 0.59296 0.59259 0.1485 0.0
C1460 C 0.59662 0.59359 0.17811 0.0
C1461 C 0.57119 0.57722 0.19516 0.0
C1462 C 0.5603 0.57103 0.10503 0.0
C1463 C 0.62653 0.61326 0.19176 0.0
C1464 C 0.6676 0.61871 0.09956 0.0
C1465 C 0.65946 0.65397 0.09363 0.0
C1466 C 0.64674 0.59857 0.1178 0.0
C1467 C 0.61645 0.61384 0.13001 0.0
C1468 C 0.60752 0.64916 0.12348 0.0
C1469 C 0.62928 0.66886 0.10562 0.0
C1470 C 0.6578 0.56136 0.12465 0.0
C1471 C 0.57498 0.66622 0.13545 0.0
H1472 H 0.51899 0.5422 0.14445 0.0
H1473 H 0.57287 0.57966 0.21776 0.0
H1474 H 0.55504 0.59775 0.09658 0.0
H1475 H 0.58466 0.56123 0.09494 0.0
H1476 H 0.53821 0.55352 0.09895 0.0
H1477 H 0.62792 0.60839 0.21471 0.0
H1478 H 0.65191 0.60547 0.18216 0.0
H1479 H 0.62318 0.64194 0.18825 0.0
H1480 H 0.69096 0.60715 0.09062 0.0
H1481 H 0.62281 0.69612 0.10126 0.0
H1482 H 0.67897 0.55177 0.11058 0.0
H1483 H 0.6352 0.54305 0.12312 0.0
H1484 H 0.66758 0.56035 0.14656 0.0
H1485 H 0.55139 0.65082 0.1294 0.0
H1486 H 0.5715 0.69376 0.1281 0.0
H1487 H 0.57637 0.66629 0.15868 0.0
C1488 C 0.27296 0.30693 0.40167 0.0
C1489 C 0.28938 0.30252 0.42772 0.0
C1490 C 0.28547 0.33182 0.38243 0.0
C1491 C 0.31543 0.35205 0.38941 0.0
C1492 C 0.32968 0.35013 0.41686 0.0
C1493 C 0.31641 0.32525 0.43576 0.0
C1494 C 0.26901 0.33365 0.35367 0.0
C1495 C 0.3615 0.37138 0.42523 0.0
C1496 C 0.38578 0.36746 0.33502 0.0
C1497 C 0.38358 0.40394 0.33102 0.0
C1498 C 0.36248 0.35003 0.35293 0.0
C1499 C 0.33602 0.3695 0.36695 0.0
C1500 C 0.3318 0.40579 0.36122 0.0
C1501 C 0.35576 0.42267 0.34335 0.0
C1502 C 0.36773 0.31114 0.35828 0.0
C1503 C 0.30345 0.42726 0.37526 0.0
H1504 H 0.25227 0.28891 0.39548 0.0
H1505 H 0.32929 0.32132 0.45582 0.0
H1506 H 0.26804 0.36119 0.34596 0.0
H1507 H 0.28513 0.31816 0.33873 0.0
H1508 H 0.24198 0.32266 0.35362 0.0
H1509 H 0.3661 0.37074 0.44824 0.0
H1510 H 0.38509 0.3605 0.41465 0.0
H1511 H 0.35859 0.39918 0.41852 0.0
H1512 H 0.40697 0.35272 0.32538 0.0
H1513 H 0.35368 0.45086 0.34022 0.0
H1514 H 0.3428 0.29667 0.3549 0.0
H1515 H 0.37571 0.30696 0.38042 0.0
H1516 H 0.38818 0.29949 0.34449 0.0
H1517 H 0.27824 0.41265 0.37567 0.0
H1518 H 0.29924 0.4529 0.36456 0.0
H1519 H 0.31114 0.43257 0.3973 0.0
C1520 C 0.3987 0.58582 0.19857 0.0
C1521 C 0.41391 0.55297 0.19317 0.0
C1522 C 0.37372 0.60021 0.18012 0.0
C1523 C 0.36408 0.58129 0.15564 0.0
C1524 C 0.37711 0.54673 0.15154 0.0
C1525 C 0.40208 0.53304 0.17033 0.0
C1526 C 0.36027 0.63701 0.18546 0.0
C1527 C 0.36733 0.52552 0.12594 0.0
C1528 C 0.2901 0.62045 0.11174 0.0
C1529 C 0.30887 0.64131 0.0926 0.0
C1530 C 0.3076 0.59962 0.13175 0.0
C1531 C 0.34475 0.59963 0.13266 0.0
C1532 C 0.36382 0.61906 0.1124 0.0
C1533 C 0.34566 0.63958 0.09262 0.0
C1534 C 0.28634 0.57902 0.15276 0.0
C1535 C 0.4035 0.61957 0.11246 0.0
H1536 H 0.40849 0.60145 0.21594 0.0
H1537 H 0.41448 0.50791 0.16591 0.0
H1538 H 0.37261 0.65546 0.17038 0.0
H1539 H 0.33144 0.63833 0.18218 0.0
H1540 H 0.36636 0.64614 0.20706 0.0
H1541 H 0.37449 0.4973 0.12833 0.0
H1542 H 0.33876 0.52749 0.12159 0.0
H1543 H 0.38139 0.53613 0.10743 0.0
H1544 H 0.26164 0.6215 0.11193 0.0
H1545 H 0.36043 0.65546 0.07792 0.0
H1546 H 0.2893 0.59107 0.17383 0.0
H1547 H 0.29609 0.55154 0.15422 0.0
H1548 H 0.25795 0.57852 0.14731 0.0
H1549 H 0.41313 0.63196 0.1321 0.0
H1550 H 0.41438 0.63439 0.09439 0.0
H1551 H 0.41399 0.59232 0.11187 0.0
C1552 C 0.13162 0.57467 0.85665 0.0
C1553 C 0.12218 0.54456 0.87182 0.0
C1554 C 0.15128 0.60161 0.86929 0.0
C1555 C 0.16174 0.59821 0.89769 0.0
C1556 C 0.15488 0.56657 0.91228 0.0
C1557 C 0.13518 0.5401 0.89915 0.0
C1558 C 0.15841 0.63486 0.85295 0.0
C1559 C 0.16582 0.56176 0.94248 0.0
C1560 C 0.22306 0.66773 0.92771 0.0
C1561 C 0.19888 0.69163 0.93907 0.0
C1562 C 0.21154 0.63666 0.91461 0.0
C1563 C 0.17509 0.62943 0.91314 0.0
C1564 C 0.15077 0.65285 0.9257 0.0
C1565 C 0.16298 0.68373 0.9384 0.0
C1566 C 0.23818 0.61228 0.90146 0.0
C1567 C 0.11171 0.64582 0.92504 0.0
H1568 H 0.12189 0.57822 0.83547 0.0
H1569 H 0.12838 0.51667 0.91091 0.0
H1570 H 0.14159 0.65644 0.86111 0.0
H1571 H 0.18615 0.64313 0.85559 0.0
H1572 H 0.15285 0.63158 0.83023 0.0
H1573 H 0.16366 0.53388 0.94929 0.0
H1574 H 0.19324 0.57071 0.94577 0.0
H1575 H 0.14867 0.57804 0.95612 0.0
H1576 H 0.25082 0.67406 0.92809 0.0
H1577 H 0.14437 0.70216 0.94743 0.0
H1578 H 0.23497 0.61257 0.87834 0.0
H1579 H 0.23385 0.58482 0.90855 0.0
H1580 H 0.26558 0.62001 0.9066 0.0
H1581 H 0.10228 0.64548 0.90301 0.0
H1582 H 0.0965 0.66598 0.93677 0.0
H1583 H 0.10602 0.61959 0.93419 0.0
C1584 C 0.12408 0.33316 0.59434 0.0
C1585 C 0.15944 0.33174 0.58632 0.0
C1586 C 0.1129 0.35575 0.61582 0.0
C1587 C 0.13763 0.37779 0.62948 0.0
C1588 C 0.1729 0.37826 0.62021 0.0
C1589 C 0.18344 0.3551 0.5988 0.0
C1590 C 0.07495 0.3544 0.62503 0.0
C1591 C 0.19994 0.40166 0.63392 0.0
C1592 C 0.09 0.44355 0.67515 0.0
C1593 C 0.08708 0.42418 0.7 0.0
C1594 C 0.10988 0.43061 0.65258 0.0
C1595 C 0.12671 0.39746 0.65505 0.0
C1596 C 0.12715 0.38003 0.68131 0.0
C1597 C 0.10724 0.39366 0.70352 0.0
C1598 C 0.10943 0.45041 0.62518 0.0
C1599 C 0.14497 0.34479 0.68501 0.0
H1600 H 0.10533 0.3153 0.58483 0.0
H1601 H 0.21084 0.35431 0.59269 0.0
H1602 H 0.0734 0.34397 0.64673 0.0
H1603 H 0.06345 0.38125 0.62521 0.0
H1604 H 0.05866 0.33743 0.6112 0.0
H1605 H 0.2242 0.40378 0.62112 0.0
H1606 H 0.18919 0.42846 0.63749 0.0
H1607 H 0.20717 0.39063 0.65468 0.0
H1608 H 0.07392 0.46688 0.67234 0.0
H1609 H 0.10446 0.3785 0.72265 0.0
H1610 H 0.08981 0.43828 0.61092 0.0
H1611 H 0.13539 0.44901 0.61472 0.0
H1612 H 0.10219 0.47851 0.62824 0.0
H1613 H 0.12928 0.32417 0.67428 0.0
H1614 H 0.14756 0.33749 0.70748 0.0
H1615 H 0.17146 0.34491 0.6754 0.0
C1616 C 0.2806 0.68469 0.60847 0.0
C1617 C 0.29454 0.68949 0.58159 0.0
C1618 C 0.29306 0.65779 0.62601 0.0
C1619 C 0.32036 0.63551 0.61645 0.0
C1620 C 0.33235 0.63845 0.58841 0.0
C1621 C 0.31929 0.66557 0.57127 0.0
C1622 C 0.27931 0.65543 0.6556 0.0
C1623 C 0.36126 0.61506 0.57732 0.0
C1624 C 0.3894 0.605 0.66859 0.0
C1625 C 0.38093 0.56935 0.67194 0.0
C1626 C 0.36925 0.62694 0.65118 0.0
C1627 C 0.33983 0.61294 0.63675 0.0
C1628 C 0.33011 0.57742 0.64108 0.0
C1629 C 0.35076 0.55604 0.65866 0.0
C1630 C 0.38031 0.66483 0.64738 0.0
C1631 C 0.29882 0.56163 0.62624 0.0
H1632 H 0.26178 0.70364 0.61648 0.0
H1633 H 0.33042 0.66978 0.55063 0.0
H1634 H 0.27482 0.62762 0.66168 0.0
H1635 H 0.29908 0.66649 0.67028 0.0
H1636 H 0.25439 0.67034 0.65823 0.0
H1637 H 0.3641 0.61731 0.55422 0.0
H1638 H 0.38656 0.6226 0.58723 0.0
H1639 H 0.35617 0.58713 0.58273 0.0
H1640 H 0.41255 0.61556 0.67881 0.0
H1641 H 0.344 0.52849 0.66105 0.0
H1642 H 0.35807 0.68274 0.65219 0.0
H1643 H 0.38782 0.66942 0.62522 0.0
H1644 H 0.4029 0.67202 0.661 0.0
H1645 H 0.27527 0.57848 0.62916 0.0
H1646 H 0.29279 0.53467 0.63385 0.0
H1647 H 0.30408 0.56031 0.6034 0.0
C1648 C 0.1218 0.65464 0.42569 0.0
C1649 C 0.15611 0.65508 0.43642 0.0
C1650 C 0.11243 0.63195 0.40374 0.0
C1651 C 0.13784 0.60857 0.39247 0.0
C1652 C 0.17164 0.60671 0.4048 0.0
C1653 C 0.18047 0.63016 0.42654 0.0
C1654 C 0.07596 0.63487 0.3913 0.0
C1655 C 0.19924 0.58168 0.3939 0.0
C1656 C 0.09109 0.54672 0.34332 0.0
C1657 C 0.09175 0.56672 0.31866 0.0
C1658 C 0.11005 0.55753 0.36711 0.0
C1659 C 0.12948 0.58927 0.36609 0.0
C1660 C 0.13406 0.6066 0.34005 0.0
C1661 C 0.11517 0.59496 0.31654 0.0
C1662 C 0.10551 0.53755 0.39417 0.0
C1663 C 0.15482 0.64032 0.33784 0.0
H1664 H 0.10271 0.67358 0.43325 0.0
H1665 H 0.20703 0.6301 0.43478 0.0
H1666 H 0.07768 0.64492 0.36949 0.0
H1667 H 0.06332 0.60861 0.39039 0.0
H1668 H 0.05875 0.65288 0.40348 0.0
H1669 H 0.22034 0.57714 0.40962 0.0
H1670 H 0.18754 0.55597 0.38802 0.0
H1671 H 0.21143 0.59302 0.37484 0.0
H1672 H 0.07264 0.5251 0.34502 0.0
H1673 H 0.11526 0.61064 0.29754 0.0
H1674 H 0.08495 0.55057 0.40699 0.0
H1675 H 0.13022 0.53745 0.40656 0.0
H1676 H 0.09726 0.50993 0.39027 0.0
H1677 H 0.1395 0.66217 0.34733 0.0
H1678 H 0.16055 0.64725 0.31569 0.0
H1679 H 0.17997 0.63819 0.34947 0.0
C1680 C 0.13197 0.43485 0.1552 0.0
C1681 C 0.09961 0.42117 0.16409 0.0
C1682 C 0.15556 0.41418 0.13964 0.0
C1683 C 0.14645 0.37913 0.13278 0.0
C1684 C 0.11431 0.36487 0.14244 0.0
C1685 C 0.09136 0.38603 0.15805 0.0
C1686 C 0.18976 0.43009 0.12995 0.0
C1687 C 0.10369 0.3275 0.13564 0.0
C1688 C 0.18172 0.32919 0.07014 0.0
C1689 C 0.20318 0.30435 0.08343 0.0
C1690 C 0.16487 0.3556 0.08576 0.0
C1691 C 0.16997 0.35707 0.1152 0.0
C1692 C 0.19415 0.3339 0.12819 0.0
C1693 C 0.21032 0.30762 0.11213 0.0
C1694 C 0.13932 0.37987 0.07114 0.0
C1695 C 0.20071 0.33489 0.1594 0.0
H1696 H 0.13856 0.462 0.15978 0.0
H1697 H 0.06643 0.37525 0.16481 0.0
H1698 H 0.21215 0.41309 0.13624 0.0
H1699 H 0.18997 0.43171 0.10673 0.0
H1700 H 0.19398 0.45691 0.13861 0.0
H1701 H 0.07803 0.3203 0.14508 0.0
H1702 H 0.10179 0.32409 0.11258 0.0
H1703 H 0.12393 0.30882 0.14336 0.0
H1704 H 0.17606 0.32635 0.04796 0.0
H1705 H 0.22701 0.28827 0.12229 0.0
H1706 H 0.14331 0.40749 0.078 0.0
H1707 H 0.11208 0.37237 0.07681 0.0
H1708 H 0.1419 0.37858 0.04796 0.0
H1709 H 0.20442 0.36236 0.16673 0.0
H1710 H 0.22414 0.31913 0.16545 0.0
H1711 H 0.17754 0.32406 0.17051 0.0
C1712 C 0.4167 0.40274 0.81012 0.0
C1713 C 0.43005 0.43661 0.81447 0.0
C1714 C 0.39051 0.38897 0.82766 0.0
C1715 C 0.37766 0.40953 0.85026 0.0
C1716 C 0.38959 0.44461 0.85363 0.0
C1717 C 0.41582 0.45769 0.83572 0.0
C1718 C 0.37838 0.35156 0.82314 0.0
C1719 C 0.37646 0.46748 0.87727 0.0
C1720 C 0.29552 0.37367 0.88522 0.0
C1721 C 0.30977 0.35372 0.9073 0.0
C1722 C 0.31709 0.39346 0.86733 0.0
C1723 C 0.35389 0.39318 0.87144 0.0
C1724 C 0.36826 0.37474 0.89466 0.0
C1725 C 0.34601 0.35535 0.91239 0.0
C1726 C 0.30062 0.41311 0.84312 0.0
C1727 C 0.40739 0.37384 0.89985 0.0
H1728 H 0.42838 0.38623 0.79408 0.0
H1729 H 0.42686 0.48358 0.83947 0.0
H1730 H 0.38741 0.33489 0.84084 0.0
H1731 H 0.34927 0.35037 0.82266 0.0
H1732 H 0.38867 0.3402 0.80331 0.0
H1733 H 0.38464 0.49537 0.87477 0.0
H1734 H 0.34739 0.4664 0.87859 0.0
H1735 H 0.38707 0.45753 0.89745 0.0
H1736 H 0.26749 0.37277 0.88122 0.0
H1737 H 0.35727 0.33995 0.92931 0.0
H1738 H 0.30764 0.3999 0.82314 0.0
H1739 H 0.31088 0.4404 0.84208 0.0
H1740 H 0.27153 0.41417 0.84472 0.0
H1741 H 0.42054 0.35952 0.88251 0.0
H1742 H 0.41418 0.36065 0.91993 0.0
H1743 H 0.41816 0.40096 0.9002 0.0
C1744 C 0.27617 0.93767 0.12107 0.0
C1745 C 0.25591 0.93017 0.09714 0.0
C1746 C 0.25979 0.94699 0.14634 0.0
C1747 C 0.22276 0.9486 0.14726 0.0
C1748 C 0.20315 0.94753 0.12191 0.0
C1749 C 0.22022 0.93874 0.09699 0.0
C1750 C 0.28176 0.94993 0.17254 0.0
C1751 C 0.1635 0.94948 0.1214 0.0
C1752 C 0.15997 0.90264 0.19279 0.0
C1753 C 0.14118 0.93174 0.20241 0.0
C1754 C 0.19185 0.90746 0.17892 0.0
C1755 C 0.20388 0.9422 0.17388 0.0
C1756 C 0.18875 0.97061 0.18875 0.0
C1757 C 0.15744 0.96483 0.20342 0.0
C1758 C 0.20902 0.87594 0.16554 0.0
C1759 C 0.20265 0.0077 0.18671 0.0
H1760 H 0.30408 0.93186 0.12122 0.0
H1761 H 0.20472 0.93375 0.07828 0.0
H1762 H 0.26851 0.9657 0.189 0.0
H1763 H 0.28679 0.92317 0.18097 0.0
H1764 H 0.30747 0.96222 0.16772 0.0
H1765 H 0.15395 0.96091 0.10134 0.0
H1766 H 0.15267 0.92245 0.12314 0.0
H1767 H 0.15293 0.96529 0.13894 0.0
H1768 H 0.1477 0.87687 0.19279 0.0
H1769 H 0.14323 0.98728 0.21178 0.0
H1770 H 0.23762 0.88016 0.16339 0.0
H1771 H 0.19776 0.87181 0.14431 0.0
H1772 H 0.20442 0.8517 0.17804 0.0
H1773 H 0.18085 0.02646 0.18258 0.0
H1774 H 0.22308 0.01093 0.17039 0.0
H1775 H 0.21428 0.0151 0.20724 0.0
C1776 C 0.35495 0.90769 0.32391 0.0
C1777 C 0.36965 0.94057 0.31869 0.0
C1778 C 0.32113 0.90502 0.33493 0.0
C1779 C 0.30221 0.93615 0.34156 0.0
C1780 C 0.3156 0.96934 0.33356 0.0
C1781 C 0.34934 0.97114 0.32187 0.0
C1782 C 0.30732 0.86895 0.34216 0.0
C1783 C 0.29561 0.00287 0.33945 0.0
C1784 C 0.21682 0.904 0.36869 0.0
C1785 C 0.228 0.89383 0.39555 0.0
C1786 C 0.23896 0.9235 0.35121 0.0
C1787 C 0.27242 0.93332 0.36133 0.0
C1788 C 0.28033 0.92953 0.39025 0.0
C1789 C 0.25794 0.90946 0.40709 0.0
C1790 C 0.22889 0.92782 0.3208 0.0
C1791 C 0.3152 0.94099 0.40226 0.0
H1792 H 0.37091 0.88421 0.32135 0.0
H1793 H 0.3611 0.99664 0.31787 0.0
H1794 H 0.30801 0.86516 0.36522 0.0
H1795 H 0.27968 0.86643 0.33518 0.0
H1796 H 0.323 0.84761 0.33227 0.0
H1797 H 0.31034 0.02666 0.33278 0.0
H1798 H 0.27005 0.00235 0.32828 0.0
H1799 H 0.28979 0.00507 0.36217 0.0
H1800 H 0.19339 0.89249 0.35978 0.0
H1801 H 0.26616 0.90234 0.42813 0.0
H1802 H 0.23648 0.90373 0.30908 0.0
H1803 H 0.24229 0.95062 0.31107 0.0
H1804 H 0.20002 0.93118 0.31856 0.0
H1805 H 0.33549 0.92103 0.39701 0.0
H1806 H 0.31406 0.94353 0.42545 0.0
H1807 H 0.32357 0.96649 0.39323 0.0
C1808 C 0.28568 0.14735 0.62663 0.0
C1809 C 0.25429 0.13974 0.61295 0.0
C1810 C 0.2961 0.12808 0.65007 0.0
C1811 C 0.27467 0.09991 0.65954 0.0
C1812 C 0.24091 0.09502 0.64771 0.0
C1813 C 0.23136 0.11458 0.62393 0.0
C1814 C 0.33172 0.13582 0.66272 0.0
C1815 C 0.21563 0.06787 0.65872 0.0
C1816 C 0.34271 0.03329 0.66697 0.0
C1817 C 0.3566 0.04417 0.6927 0.0
C1818 C 0.31038 0.04598 0.65775 0.0
C1819 C 0.29243 0.07082 0.67456 0.0
C1820 C 0.30254 0.07535 0.70286 0.0
C1821 C 0.33535 0.06241 0.71172 0.0
C1822 C 0.2987 0.03743 0.62824 0.0
C1823 C 0.28097 0.09733 0.72256 0.0
H1824 H 0.30308 0.16716 0.61799 0.0
H1825 H 0.20676 0.10922 0.61337 0.0
H1826 H 0.32944 0.13937 0.6857 0.0
H1827 H 0.34987 0.11349 0.65875 0.0
H1828 H 0.34371 0.16004 0.65389 0.0
H1829 H 0.20855 0.04914 0.64175 0.0
H1830 H 0.22607 0.05305 0.67696 0.0
H1831 H 0.19104 0.08128 0.66525 0.0
H1832 H 0.35872 0.01772 0.65282 0.0
H1833 H 0.34552 0.06945 0.73221 0.0
H1834 H 0.30283 0.06064 0.6145 0.0
H1835 H 0.27033 0.03091 0.62793 0.0
H1836 H 0.31351 0.01485 0.61929 0.0
H1837 H 0.29362 0.12336 0.72532 0.0
H1838 H 0.27992 0.08433 0.74335 0.0
H1839 H 0.25375 0.1012 0.71474 0.0
C1840 C 0.26046 0.06694 0.89765 0.0
C1841 C 0.23613 0.07704 0.9183 0.0
C1842 C 0.24885 0.05349 0.87184 0.0
C1843 C 0.21243 0.05024 0.86699 0.0
C1844 C 0.18869 0.05404 0.88972 0.0
C1845 C 0.20091 0.06761 0.91517 0.0
C1846 C 0.27514 0.04784 0.84875 0.0
C1847 C 0.14958 0.04945 0.88616 0.0
C1848 C 0.15755 0.089 0.81124 0.0
C1849 C 0.14056 0.05836 0.80262 0.0
C1850 C 0.18642 0.08674 0.82921 0.0
C1851 C 0.19819 0.05309 0.8381 0.0
C1852 C 0.18664 0.02278 0.82357 0.0
C1853 C 0.15778 0.02589 0.80541 0.0
C1854 C 0.19943 0.12012 0.84265 0.0
C1855 C 0.20162 0.98669 0.82919 0.0
H1856 H 0.28802 0.07351 0.9001 0.0
H1857 H 0.1822 0.07461 0.93139 0.0
H1858 H 0.26528 0.02946 0.83247 0.0
H1859 H 0.28084 0.07348 0.83863 0.0
H1860 H 0.30001 0.03718 0.85746 0.0
H1861 H 0.13726 0.04077 0.90609 0.0
H1862 H 0.13773 0.07512 0.88024 0.0
H1863 H 0.14321 0.03011 0.86958 0.0
H1864 H 0.14477 0.11427 0.80812 0.0
H1865 H 0.14538 0.00218 0.79748 0.0
H1866 H 0.22685 0.11702 0.84986 0.0
H1867 H 0.18284 0.12639 0.86111 0.0
H1868 H 0.19776 0.14263 0.82785 0.0
H1869 H 0.21861 0.97914 0.81128 0.0
H1870 H 0.1803 0.96683 0.83039 0.0
H1871 H 0.21773 0.9855 0.84855 0.0
C1872 C 0.95481 0.10735 0.88801 0.0
C1873 C 0.95582 0.10857 0.85869 0.0
C1874 C 0.93412 0.13104 0.90334 0.0
C1875 C 0.91351 0.15627 0.8889 0.0
C1876 C 0.91604 0.15887 0.85927 0.0
C1877 C 0.93729 0.13486 0.84444 0.0
C1878 C 0.93243 0.12734 0.93483 0.0
C1879 C 0.89444 0.18533 0.8431 0.0
C1880 C 0.82618 0.17942 0.92244 0.0
C1881 C 0.83256 0.21301 0.93362 0.0
C1882 C 0.85225 0.16098 0.9078 0.0
C1883 C 0.88589 0.17621 0.9044 0.0
C1884 C 0.89294 0.2097 0.91624 0.0
C1885 C 0.86613 0.22779 0.93065 0.0
C1886 C 0.84355 0.12529 0.8956 0.0
C1887 C 0.92861 0.22657 0.91333 0.0
H1888 H 0.96914 0.08677 0.89893 0.0
H1889 H 0.93791 0.13544 0.82172 0.0
H1890 H 0.93465 0.15345 0.9451 0.0
H1891 H 0.90667 0.11602 0.94084 0.0
H1892 H 0.9535 0.10989 0.94308 0.0
H1893 H 0.90269 0.1871 0.82082 0.0
H1894 H 0.86636 0.17757 0.84374 0.0
H1895 H 0.89653 0.21179 0.8528 0.0
H1896 H 0.80039 0.16768 0.92453 0.0
H1897 H 0.8713 0.25378 0.93908 0.0
H1898 H 0.86133 0.105 0.90451 0.0
H1899 H 0.84768 0.12555 0.87258 0.0
H1900 H 0.81599 0.11734 0.89981 0.0
H1901 H 0.94917 0.20887 0.92197 0.0
H1902 H 0.93018 0.25233 0.9243 0.0
H1903 H 0.93472 0.23065 0.89084 0.0
C1904 C 0.65368 0.22655 0.63461 0.0
C1905 C 0.67063 0.2188 0.6092 0.0
C1906 C 0.62985 0.20285 0.64664 0.0
C1907 C 0.62211 0.17094 0.63264 0.0
C1908 C 0.6375 0.1639 0.60619 0.0
C1909 C 0.6619 0.18774 0.59492 0.0
C1910 C 0.61453 0.21109 0.67509 0.0
C1911 C 0.62926 0.13053 0.59029 0.0
C1912 C 0.59502 0.0908 0.67498 0.0
C1913 C 0.55848 0.09075 0.67136 0.0
C1914 C 0.6159 0.11726 0.66305 0.0
C1915 C 0.59991 0.14387 0.64656 0.0
C1916 C 0.56295 0.14426 0.64318 0.0
C1917 C 0.54263 0.11789 0.65588 0.0
C1918 C 0.65515 0.11637 0.66771 0.0
C1919 C 0.54502 0.17181 0.62535 0.0
H1920 H 0.66043 0.25032 0.64598 0.0
H1921 H 0.67477 0.18162 0.57526 0.0
H1922 H 0.58552 0.20862 0.6746 0.0
H1923 H 0.6245 0.1918 0.69067 0.0
H1924 H 0.62141 0.238 0.68239 0.0
H1925 H 0.6404 0.13074 0.56878 0.0
H1926 H 0.64022 0.10756 0.60173 0.0
H1927 H 0.60042 0.12672 0.58881 0.0
H1928 H 0.60737 0.06992 0.68697 0.0
H1929 H 0.51443 0.1177 0.65268 0.0
H1930 H 0.66422 0.14192 0.67637 0.0
H1931 H 0.6688 0.11236 0.64743 0.0
H1932 H 0.66323 0.09502 0.68229 0.0
H1933 H 0.55184 0.19856 0.63291 0.0
H1934 H 0.51598 0.16901 0.62543 0.0
H1935 H 0.55443 0.16971 0.60341 0.0
C1936 C 0.67409 0.80435 0.42617 0.0
C1937 C 0.68717 0.77488 0.41187 0.0
C1938 C 0.64812 0.82583 0.41411 0.0
C1939 C 0.63546 0.81804 0.38686 0.0
C1940 C 0.6472 0.78729 0.37294 0.0
C1941 C 0.67267 0.76587 0.38575 0.0
C1942 C 0.63563 0.85792 0.42994 0.0
C1943 C 0.63472 0.7783 0.34374 0.0
C1944 C 0.55432 0.86733 0.36166 0.0
C1945 C 0.56942 0.89652 0.34833 0.0
C1946 C 0.57543 0.84107 0.37383 0.0
C1947 C 0.61244 0.84377 0.37207 0.0
C1948 C 0.62773 0.87227 0.35735 0.0
C1949 C 0.60604 0.89851 0.34594 0.0
C1950 C 0.55818 0.81145 0.38976 0.0
C1951 C 0.66709 0.87569 0.35446 0.0
H1952 H 0.68503 0.81135 0.44642 0.0
H1953 H 0.68282 0.7433 0.37442 0.0
H1954 H 0.64558 0.88204 0.41954 0.0
H1955 H 0.60651 0.85933 0.42973 0.0
H1956 H 0.64483 0.85797 0.45206 0.0
H1957 H 0.6434 0.75164 0.33706 0.0
H1958 H 0.60566 0.77962 0.34245 0.0
H1959 H 0.64528 0.79787 0.3287 0.0
H1960 H 0.52603 0.86589 0.36386 0.0
H1961 H 0.61778 0.92097 0.33555 0.0
H1962 H 0.56465 0.81383 0.41237 0.0
H1963 H 0.56838 0.78563 0.38254 0.0
H1964 H 0.52915 0.81164 0.38737 0.0
H1965 H 0.67907 0.88028 0.37537 0.0
H1966 H 0.67464 0.89775 0.34043 0.0
H1967 H 0.67844 0.85092 0.34606 0.0
C1968 C 0.95776 0.85609 0.15581 0.0
C1969 C 0.94759 0.89137 0.1522 0.0
C1970 C 0.93742 0.82839 0.14474 0.0
C1971 C 0.90643 0.83617 0.12941 0.0
C1972 C 0.89632 0.87174 0.12548 0.0
C1973 C 0.91682 0.89878 0.13705 0.0
C1974 C 0.9488 0.79082 0.14974 0.0
C1975 C 0.86361 0.8813 0.10916 0.0
C1976 C 0.86127 0.77144 0.07996 0.0
C1977 C 0.83157 0.76261 0.09567 0.0
C1978 C 0.88705 0.7941 0.09114 0.0
C1979 C 0.88316 0.80747 0.11879 0.0
C1980 C 0.85437 0.79636 0.13528 0.0
C1981 C 0.82875 0.77447 0.12339 0.0
C1982 C 0.91713 0.80558 0.07277 0.0
C1983 C 0.84942 0.80924 0.16498 0.0
H1984 H 0.98152 0.85009 0.16742 0.0
H1985 H 0.90885 0.9259 0.13387 0.0
H1986 H 0.92847 0.77684 0.16209 0.0
H1987 H 0.95144 0.77672 0.12948 0.0
H1988 H 0.97419 0.78916 0.16119 0.0
H1989 H 0.86043 0.91022 0.10668 0.0
H1990 H 0.86443 0.8691 0.08803 0.0
H1991 H 0.84008 0.87087 0.12001 0.0
H1992 H 0.86324 0.76243 0.05844 0.0
H1993 H 0.80581 0.76736 0.13559 0.0
H1994 H 0.94242 0.80341 0.08422 0.0
H1995 H 0.91357 0.83366 0.06698 0.0
H1996 H 0.91879 0.78977 0.05321 0.0
H1997 H 0.87426 0.80678 0.17703 0.0
H1998 H 0.82851 0.79448 0.17614 0.0
H1999 H 0.84211 0.83753 0.16471 0.0
C2000 C 0.6638 0.48744 0.6861 0.0
C2001 C 0.64803 0.45635 0.69569 0.0
C2002 C 0.69518 0.48618 0.67075 0.0
C2003 C 0.71077 0.45306 0.66528 0.0
C2004 C 0.69705 0.42235 0.67826 0.0
C2005 C 0.6655 0.42438 0.69304 0.0
C2006 C 0.70911 0.51982 0.65823 0.0
C2007 C 0.71339 0.38654 0.67406 0.0
C2008 C 0.74171 0.41333 0.59977 0.0
C2009 C 0.77363 0.4 0.60982 0.0
C2010 C 0.72276 0.4378 0.6157 0.0
C2011 C 0.73626 0.4483 0.64211 0.0
C2012 C 0.77185 0.44156 0.6486 0.0
C2013 C 0.79047 0.41736 0.63211 0.0
C2014 C 0.68575 0.44684 0.60685 0.0
C2015 C 0.7882 0.45465 0.67543 0.0
H2016 H 0.64985 0.51226 0.68801 0.0
H2017 H 0.65297 0.40053 0.70052 0.0
H2018 H 0.7371 0.51758 0.65203 0.0
H2019 H 0.69334 0.52668 0.63941 0.0
H2020 H 0.70624 0.54189 0.67335 0.0
H2021 H 0.70055 0.36612 0.68715 0.0
H2022 H 0.71099 0.37848 0.65178 0.0
H2023 H 0.7417 0.38736 0.6795 0.0
H2024 H 0.72931 0.40105 0.58176 0.0
H2025 H 0.81593 0.40834 0.63934 0.0
H2026 H 0.67971 0.47477 0.61164 0.0
H2027 H 0.66694 0.43016 0.61863 0.0
H2028 H 0.68158 0.44223 0.58409 0.0
H2029 H 0.77593 0.47967 0.68246 0.0
H2030 H 0.81689 0.45871 0.67275 0.0
H2031 H 0.7845 0.43464 0.69212 0.0
C2032 C 0.75631 0.43059 0.97507 0.0
C2033 C 0.78309 0.40783 0.98407 0.0
C2034 C 0.76397 0.45773 0.9561 0.0
C2035 C 0.79886 0.46128 0.9464 0.0
C2036 C 0.82646 0.44366 0.96085 0.0
C2037 C 0.81802 0.41771 0.98042 0.0
C2038 C 0.73397 0.47755 0.94274 0.0
C2039 C 0.86439 0.44576 0.9519 0.0
C2040 C 0.82544 0.44858 0.87221 0.0
C2041 C 0.84517 0.47889 0.86817 0.0
C2042 C 0.80493 0.44488 0.89627 0.0
C2043 C 0.80522 0.47176 0.9169 0.0
C2044 C 0.82068 0.50455 0.9107 0.0
C2045 C 0.84095 0.5077 0.8863 0.0
C2046 C 0.78753 0.41003 0.90146 0.0
C2047 C 0.8206 0.53406 0.93175 0.0
H2048 H 0.72907 0.42372 0.97879 0.0
H2049 H 0.83869 0.40069 0.98839 0.0
H2050 H 0.74277 0.50272 0.93333 0.0
H2051 H 0.72213 0.46113 0.92597 0.0
H2052 H 0.71316 0.48305 0.95844 0.0
H2053 H 0.88143 0.44944 0.9706 0.0
H2054 H 0.87216 0.42044 0.942 0.0
H2055 H 0.86956 0.46705 0.93675 0.0
H2056 H 0.82876 0.42652 0.85799 0.0
H2057 H 0.85684 0.53101 0.88336 0.0
H2058 H 0.76037 0.41373 0.9092 0.0
H2059 H 0.80257 0.39553 0.9177 0.0
H2060 H 0.78677 0.3939 0.88212 0.0
H2061 H 0.79552 0.53497 0.94353 0.0
H2062 H 0.82485 0.55986 0.9214 0.0
H2063 H 0.84209 0.52955 0.94709 0.0
C2064 C 0.86868 0.54787 0.19128 0.0
C2065 C 0.8892 0.57819 0.18979 0.0
C2066 C 0.84612 0.5388 0.16914 0.0
C2067 C 0.84445 0.56088 0.14506 0.0
C2068 C 0.86418 0.5927 0.1446 0.0
C2069 C 0.88648 0.60061 0.1669 0.0
C2070 C 0.82419 0.50603 0.1726 0.0
C2071 C 0.86243 0.61902 0.12082 0.0
C2072 C 0.81883 0.5579 0.0697 0.0
C2073 C 0.78424 0.56964 0.07206 0.0
C2074 C 0.8378 0.54827 0.0937 0.0
C2075 C 0.82187 0.5525 0.12052 0.0
C2076 C 0.78511 0.55859 0.12213 0.0
C2077 C 0.76647 0.56533 0.09743 0.0
C2078 C 0.87602 0.53857 0.08995 0.0
C2079 C 0.76548 0.56237 0.14955 0.0
H2080 H 0.87042 0.53113 0.20965 0.0
H2081 H 0.90186 0.62465 0.16649 0.0
H2082 H 0.80667 0.50939 0.191 0.0
H2083 H 0.80772 0.49975 0.15416 0.0
H2084 H 0.84147 0.48319 0.1773 0.0
H2085 H 0.866 0.64633 0.12868 0.0
H2086 H 0.88412 0.6136 0.10593 0.0
H2087 H 0.83735 0.61797 0.10914 0.0
H2088 H 0.83227 0.56028 0.04976 0.0
H2089 H 0.73926 0.57325 0.0989 0.0
H2090 H 0.87772 0.51292 0.07885 0.0
H2091 H 0.89075 0.53647 0.1099 0.0
H2092 H 0.88915 0.55822 0.07634 0.0
H2093 H 0.75366 0.5366 0.15503 0.0
H2094 H 0.74357 0.58162 0.14767 0.0
H2095 H 0.78241 0.57081 0.16719 0.0
C2096 C 0.6719 0.52651 0.33409 0.0
C2097 C 0.64404 0.54883 0.32685 0.0
C2098 C 0.70213 0.53992 0.347 0.0
C2099 C 0.70499 0.57673 0.35152 0.0
C2100 C 0.67815 0.59959 0.34147 0.0
C2101 C 0.64806 0.58522 0.32923 0.0
C2102 C 0.72938 0.51415 0.35762 0.0
C2103 C 0.67875 0.63907 0.34535 0.0
C2104 C 0.7488 0.61718 0.41489 0.0
C2105 C 0.78312 0.62149 0.40545 0.0
C2106 C 0.72369 0.60079 0.39796 0.0
C2107 C 0.73284 0.59052 0.37028 0.0
C2108 C 0.76819 0.59367 0.36114 0.0
C2109 C 0.79317 0.60849 0.37928 0.0
C2110 C 0.68735 0.59496 0.40978 0.0
C2111 C 0.78027 0.58221 0.33242 0.0
H2112 H 0.66881 0.49824 0.33211 0.0
H2113 H 0.62656 0.60249 0.32327 0.0
H2114 H 0.75111 0.51249 0.34224 0.0
H2115 H 0.74054 0.52244 0.37809 0.0
H2116 H 0.71836 0.48726 0.36007 0.0
H2117 H 0.67685 0.65206 0.32455 0.0
H2118 H 0.65526 0.64747 0.35742 0.0
H2119 H 0.70238 0.64887 0.35627 0.0
H2120 H 0.74163 0.62658 0.43559 0.0
H2121 H 0.82014 0.61149 0.37247 0.0
H2122 H 0.67603 0.56969 0.40237 0.0
H2123 H 0.66978 0.61662 0.40291 0.0
H2124 H 0.68762 0.59483 0.43308 0.0
H2125 H 0.79553 0.55742 0.33445 0.0
H2126 H 0.79839 0.6021 0.32341 0.0
H2127 H 0.75836 0.57786 0.31748 0.0
C2128 C 0.34528 0.72738 0.39212 0.0
C2129 C 0.32635 0.7161 0.41571 0.0
C2130 C 0.37003 0.70536 0.37913 0.0
C2131 C 0.37672 0.67156 0.3904 0.0
C2132 C 0.35934 0.6609 0.41524 0.0
C2133 C 0.33405 0.68313 0.42741 0.0
C2134 C 0.38741 0.71749 0.35239 0.0
C2135 C 0.36633 0.62536 0.42829 0.0
C2136 C 0.40529 0.59617 0.34336 0.0
C2137 C 0.44135 0.594 0.34912 0.0
C2138 C 0.3843 0.62221 0.35581 0.0
C2139 C 0.39957 0.6462 0.37503 0.0
C2140 C 0.43619 0.64484 0.38027 0.0
C2141 C 0.45674 0.61894 0.36701 0.0
C2142 C 0.34552 0.62329 0.34908 0.0
C2143 C 0.45336 0.6696 0.40091 0.0
H2144 H 0.33948 0.75276 0.38281 0.0
H2145 H 0.31971 0.67432 0.44571 0.0
H2146 H 0.41631 0.71419 0.35383 0.0
H2147 H 0.37817 0.70103 0.33463 0.0
H2148 H 0.38146 0.74549 0.34755 0.0
H2149 H 0.35365 0.62262 0.44913 0.0
H2150 H 0.35615 0.60433 0.41434 0.0
H2151 H 0.39501 0.62102 0.43073 0.0
H2152 H 0.39332 0.57701 0.32946 0.0
H2153 H 0.48453 0.61706 0.37182 0.0
H2154 H 0.33764 0.65025 0.34267 0.0
H2155 H 0.33016 0.61648 0.36806 0.0
H2156 H 0.3383 0.60465 0.33207 0.0
H2157 H 0.44676 0.6973 0.39575 0.0
H2158 H 0.4824 0.66668 0.40127 0.0
H2159 H 0.44314 0.66432 0.42226 0.0
C2160 C 0.10577 0.61972 0.15386 0.0
C2161 C 0.0699 0.6242 0.15951 0.0
C2162 C 0.12557 0.64665 0.14132 0.0
C2163 C 0.10901 0.67873 0.13367 0.0
C2164 C 0.07302 0.6838 0.14002 0.0
C2165 C 0.05398 0.6566 0.15305 0.0
C2166 C 0.16406 0.64033 0.13549 0.0
C2167 C 0.05425 0.71735 0.13196 0.0
C2168 C 0.1718 0.75382 0.11694 0.0
C2169 C 0.1767 0.74918 0.08808 0.0
C2170 C 0.14838 0.73234 0.13198 0.0
C2171 C 0.12913 0.7059 0.11766 0.0
C2172 C 0.13216 0.70304 0.08811 0.0
C2173 C 0.15638 0.72432 0.07375 0.0
C2174 C 0.14663 0.73599 0.16346 0.0
C2175 C 0.11176 0.67571 0.07188 0.0
H2176 H 0.11832 0.59485 0.15886 0.0
H2177 H 0.02619 0.66023 0.15708 0.0
H2178 H 0.16859 0.6397 0.11252 0.0
H2179 H 0.18007 0.66218 0.14417 0.0
H2180 H 0.1736 0.61514 0.14459 0.0
H2181 H 0.02693 0.71826 0.14008 0.0
H2182 H 0.06875 0.74057 0.14001 0.0
H2183 H 0.05335 0.71964 0.10878 0.0
H2184 H 0.18842 0.77227 0.12815 0.0
H2185 H 0.16092 0.72012 0.05155 0.0
H2186 H 0.1601 0.71321 0.17335 0.0
H2187 H 0.11897 0.73581 0.17072 0.0
H2188 H 0.15947 0.76052 0.17094 0.0
H2189 H 0.12231 0.64914 0.0767 0.0
H2190 H 0.11344 0.67996 0.04888 0.0
H2191 H 0.08371 0.67602 0.07814 0.0
C2192 C 0.13335 0.2534 0.91256 0.0
C2193 C 0.15608 0.26728 0.93291 0.0
C2194 C 0.10594 0.27407 0.90113 0.0
C2195 C 0.10104 0.30924 0.91051 0.0
C2196 C 0.12211 0.32206 0.93279 0.0
C2197 C 0.14945 0.3011 0.94349 0.0
C2198 C 0.08414 0.25922 0.8775 0.0
C2199 C 0.11771 0.35906 0.94388 0.0
C2200 C 0.07314 0.38294 0.8613 0.0
C2201 C 0.03886 0.39058 0.87033 0.0
C2202 C 0.0927 0.35523 0.87307 0.0
C2203 C 0.07793 0.33446 0.8947 0.0
C2204 C 0.04265 0.34072 0.90291 0.0
C2205 C 0.0235 0.36864 0.89058 0.0
C2206 C 0.12999 0.34942 0.8633 0.0
C2207 C 0.02576 0.31922 0.92577 0.0
H2208 H 0.13862 0.22746 0.90403 0.0
H2209 H 0.16693 0.31195 0.95926 0.0
H2210 H 0.05604 0.26619 0.88014 0.0
H2211 H 0.09305 0.27076 0.85737 0.0
H2212 H 0.08661 0.23012 0.87608 0.0
H2213 H 0.13287 0.36343 0.9635 0.0
H2214 H 0.12694 0.37815 0.92792 0.0
H2215 H 0.08962 0.36479 0.94802 0.0
H2216 H 0.08522 0.39933 0.84543 0.0
H2217 H 0.99709 0.37425 0.89778 0.0
H2218 H 0.13433 0.32126 0.85813 0.0
H2219 H 0.14853 0.35643 0.88039 0.0
H2220 H 0.13649 0.36552 0.84458 0.0
H2221 H 0.03086 0.29074 0.92252 0.0
H2222 H 0.99693 0.32359 0.92681 0.0
H2223 H 0.03741 0.32656 0.94629 0.0
C2224 C 0.3213 0.30139 0.63425 0.0
C2225 C 0.3148 0.29762 0.6054 0.0
C2226 C 0.3497 0.32109 0.64422 0.0
C2227 C 0.3722 0.33796 0.62492 0.0
C2228 C 0.36692 0.33291 0.59571 0.0
C2229 C 0.33829 0.31252 0.58624 0.0
C2230 C 0.35434 0.32543 0.67552 0.0
C2231 C 0.39038 0.35052 0.5745 0.0
C2232 C 0.40971 0.42351 0.65254 0.0
C2233 C 0.44387 0.4138 0.66065 0.0
C2234 C 0.38677 0.39935 0.64006 0.0
C2235 C 0.39799 0.36428 0.63557 0.0
C2236 C 0.43244 0.35413 0.64357 0.0
C2237 C 0.45504 0.37905 0.65602 0.0
C2238 C 0.3502 0.41134 0.63208 0.0
C2239 C 0.44522 0.3169 0.63928 0.0
H2240 H 0.30371 0.28935 0.64928 0.0
H2241 H 0.3335 0.30949 0.56396 0.0
H2242 H 0.38204 0.32053 0.68164 0.0
H2243 H 0.34786 0.35289 0.68158 0.0
H2244 H 0.3372 0.30735 0.68763 0.0
H2245 H 0.38572 0.34051 0.55293 0.0
H2246 H 0.38544 0.37932 0.57468 0.0
H2247 H 0.41841 0.34642 0.58002 0.0
H2248 H 0.40071 0.45027 0.65577 0.0
H2249 H 0.48146 0.37136 0.66193 0.0
H2250 H 0.33048 0.39686 0.64469 0.0
H2251 H 0.34493 0.40533 0.6097 0.0
H2252 H 0.34625 0.44001 0.63549 0.0
H2253 H 0.42936 0.29857 0.65217 0.0
H2254 H 0.47332 0.31368 0.64506 0.0
H2255 H 0.4417 0.30902 0.61705 0.0
loop_
_geom_bond_atom_site_label_1
_geom_bond_atom_site_label_2
_geom_bond_distance
_geom_bond_site_symmetry_2
_ccdc_geom_bond_type
O0 Tb1 2.292 1_565 S
O0 C3 1.258 . S
Tb1 O0 2.292 1_545 S
Tb1 O17 2.326 . S
Tb1 O19 2.500 . S
Tb1 O20 2.473 . S
Tb1 O23 2.324 1_455 S
Eu2 O6 2.292 . S
Eu2 C7 2.852 . S
Eu2 O18 2.324 1_655 S
Eu2 O22 2.326 . S
Eu2 O24 2.500 . S
Eu2 O25 2.473 1_655 S
C3 O0 1.258 . S
C3 O4 1.239 1_565 S
O4 C3 1.239 1_545 S
C5 O17 1.242 . S
C5 O18 1.258 . S
O6 Eu2 2.292 . S
O6 C8 1.255 . S
C7 Eu2 2.852 . S
C7 C11 1.503 . S
C7 O24 1.273 . S
C7 O25 1.257 1_655 S
C8 O6 1.255 . S
C8 O9 1.247 . S
O9 C8 1.247 . S
C10 O22 1.242 . S
C10 O23 1.258 . S
C11 C7 1.503 . S
C11 C12 1.379 1_655 S
C11 C16 1.392 . S
C12 C11 1.379 1_455 S
C12 C13 1.404 . S
C12 H26 0.929 . S
C13 C12 1.404 . S
C13 C14 1.389 1_455 S
C14 C13 1.389 1_655 S
C14 C15 1.399 . S
C14 H27 0.931 1_545 S
C15 C14 1.399 . S
C15 C16 1.390 . S
C16 C11 1.392 . S
C16 C15 1.390 . S
C16 H28 0.929 . S
O17 Tb1 2.326 . S
O17 C5 1.242 . S
O18 Eu2 2.324 1_455 S
O18 C5 1.258 . S
O19 Tb1 2.500 . S
O19 C21 1.273 . S
O20 Tb1 2.473 . S
O20 C21 1.257 . S
C21 O19 1.273 . S
C21 O20 1.257 . S
O22 Eu2 2.326 . S
O22 C10 1.242 . S
O23 Tb1 2.324 1_655 S
O23 C10 1.258 . S
O24 Eu2 2.500 . S
O24 C7 1.273 . S
O25 Eu2 2.473 1_455 S
O25 C7 1.257 1_455 S
H26 C12 0.929 . S
H27 C14 0.931 1_565 S
H28 C16 0.929 . S
O29 Tb30 2.292 . S
O29 C32 1.255 . S
Tb30 O29 2.292 . S
Tb30 O46 2.326 . S
Tb30 O48 2.500 . S
Tb30 O49 2.473 . S
Tb30 O52 2.324 . S
Eu31 O35 2.292 . S
Eu31 C36 2.852 . S
Eu31 O47 2.324 . S
Eu31 O51 2.326 . S
Eu31 O53 2.500 . S
Eu31 O54 2.473 . S
C32 O29 1.255 . S
C32 O33 1.247 . S
O33 C32 1.247 . S
C34 O46 1.242 . S
C34 O47 1.258 . S
O35 Eu31 2.292 . S
O35 C37 1.255 . S
C36 Eu31 2.852 . S
C36 C40 1.503 . S
C36 O53 1.273 . S
C36 O54 1.257 . S
C37 O35 1.255 . S
C37 O38 1.247 . S
O38 C37 1.247 . S
C39 O51 1.242 . S
C39 O52 1.258 . S
C40 C36 1.503 . S
C40 C41 1.379 . S
C40 C45 1.392 . S
C41 C40 1.379 . S
C41 C42 1.404 . S
C41 H55 0.929 . S
C42 C41 1.404 . S
C42 C43 1.389 . S
C43 C42 1.389 . S
C43 C44 1.399 . S
C43 H56 0.931 . S
C44 C43 1.399 . S
C44 C45 1.390 . S
C45 C40 1.392 . S
C45 C44 1.390 . S
C45 H57 0.929 . S
O46 Tb30 2.326 . S
O46 C34 1.242 . S
O47 Eu31 2.324 . S
O47 C34 1.258 . S
O48 Tb30 2.500 . S
O48 C50 1.273 . S
O49 Tb30 2.473 . S
O49 C50 1.257 . S
C50 O48 1.273 . S
C50 O49 1.257 . S
O51 Eu31 2.326 . S
O51 C39 1.242 . S
O52 Tb30 2.324 . S
O52 C39 1.258 . S
O53 Eu31 2.500 . S
O53 C36 1.273 . S
O54 Eu31 2.473 . S
O54 C36 1.257 . S
H55 C41 0.929 . S
H56 C43 0.931 . S
H57 C45 0.929 . S
O58 Tb59 2.292 1_545 S
O58 C61 1.258 . S
Tb59 O58 2.292 1_565 S
Tb59 O75 2.326 . S
Tb59 O77 2.500 . S
Tb59 O78 2.473 . S
Tb59 O81 2.324 . S
Eu60 O64 2.292 . S
Eu60 C65 2.852 . S
Eu60 O76 2.324 . S
Eu60 O80 2.326 . S
Eu60 O82 2.500 . S
Eu60 O83 2.473 . S
C61 O58 1.258 . S
C61 O62 1.239 1_545 S
O62 C61 1.239 1_565 S
C63 O75 1.242 . S
C63 O76 1.258 . S
O64 Eu60 2.292 . S
O64 C66 1.255 . S
C65 Eu60 2.852 . S
C65 C69 1.503 . S
C65 O82 1.273 . S
C65 O83 1.257 . S
C66 O64 1.255 . S
C66 O67 1.247 . S
O67 C66 1.247 . S
C68 O80 1.242 . S
C68 O81 1.258 . S
C69 C65 1.503 . S
C69 C70 1.379 . S
C69 C74 1.392 . S
C70 C69 1.379 . S
C70 C71 1.404 . S
C70 H84 0.929 . S
C71 C70 1.404 . S
C71 C72 1.389 . S
C72 C71 1.389 . S
C72 C73 1.399 . S
C72 H85 0.931 1_565 S
C73 C72 1.399 . S
C73 C74 1.390 . S
C74 C69 1.392 . S
C74 C73 1.390 . S
C74 H86 0.929 . S
O75 Tb59 2.326 . S
O75 C63 1.242 . S
O76 Eu60 2.324 . S
O76 C63 1.258 . S
O77 Tb59 2.500 . S
O77 C79 1.273 . S
O78 Tb59 2.473 . S
O78 C79 1.257 . S
C79 O77 1.273 . S
C79 O78 1.257 . S
O80 Eu60 2.326 . S
O80 C68 1.242 . S
O81 Tb59 2.324 . S
O81 C68 1.258 . S
O82 Eu60 2.500 . S
O82 C65 1.273 . S
O83 Eu60 2.473 . S
O83 C65 1.257 . S
H84 C70 0.929 . S
H85 C72 0.931 1_545 S
H86 C74 0.929 . S
O87 Tb88 2.292 . S
O87 C90 1.255 . S
Tb88 O87 2.292 . S
Tb88 O104 2.326 . S
Tb88 O106 2.500 . S
Tb88 O107 2.473 . S
Tb88 O110 2.324 . S
Eu89 O93 2.292 . S
Eu89 C94 2.852 . S
Eu89 O105 2.324 . S
Eu89 O109 2.326 . S
Eu89 O111 2.500 . S
Eu89 O112 2.473 . S
C90 O87 1.255 . S
C90 O91 1.247 . S
O91 C90 1.247 . S
C92 O104 1.242 . S
C92 O105 1.258 . S
O93 Eu89 2.292 . S
O93 C95 1.255 . S
C94 Eu89 2.852 . S
C94 C98 1.503 1_556 S
C94 O111 1.273 . S
C94 O112 1.257 . S
C95 O93 1.255 . S
C95 O96 1.247 . S
O96 C95 1.247 . S
C97 O109 1.242 . S
C97 O110 1.258 . S
C98 C94 1.503 1_554 S
C98 C99 1.379 . S
C98 C103 1.392 . S
C99 C98 1.379 . S
C99 C100 1.404 . S
C99 H113 0.929 . S
C100 C99 1.404 . S
C100 C101 1.389 . S
C101 C100 1.389 . S
C101 C102 1.399 . S
C101 H114 0.931 . S
C102 C101 1.399 . S
C102 C103 1.390 . S
C103 C98 1.392 . S
C103 C102 1.390 . S
C103 H115 0.929 . S
O104 Tb88 2.326 . S
O104 C92 1.242 . S
O105 Eu89 2.324 . S
O105 C92 1.258 . S
O106 Tb88 2.500 . S
O106 C108 1.273 . S
O107 Tb88 2.473 . S
O107 C108 1.257 . S
C108 O106 1.273 . S
C108 O107 1.257 . S
O109 Eu89 2.326 . S
O109 C97 1.242 . S
O110 Tb88 2.324 . S
O110 C97 1.258 . S
O111 Eu89 2.500 . S
O111 C94 1.273 . S
O112 Eu89 2.473 . S
O112 C94 1.257 . S
H113 C99 0.929 . S
H114 C101 0.931 . S
H115 C103 0.929 . S
O116 Tb117 2.292 1_545 S
O116 C119 1.258 . S
Tb117 O116 2.292 1_565 S
Tb117 O133 2.326 . S
Tb117 O135 2.500 . S
Tb117 O136 2.473 . S
Tb117 O139 2.324 1_455 S
Eu118 O122 2.292 . S
Eu118 C123 2.852 . S
Eu118 O134 2.324 1_655 S
Eu118 O138 2.326 . S
Eu118 O140 2.500 . S
Eu118 O141 2.473 1_655 S
C119 O116 1.258 . S
C119 O120 1.239 1_545 S
O120 C119 1.239 1_565 S
C121 O133 1.242 . S
C121 O134 1.258 . S
O122 Eu118 2.292 . S
O122 C124 1.255 . S
C123 Eu118 2.852 . S
C123 C127 1.503 . S
C123 O140 1.273 . S
C123 O141 1.257 1_655 S
C124 O122 1.255 . S
C124 O125 1.247 . S
O125 C124 1.247 . S
C126 O138 1.242 . S
C126 O139 1.258 . S
C127 C123 1.503 . S
C127 C128 1.379 1_655 S
C127 C132 1.392 . S
C128 C127 1.379 1_455 S
C128 C129 1.404 . S
C128 H142 0.929 . S
C129 C128 1.404 . S
C129 C130 1.389 1_455 S
C130 C129 1.389 1_655 S
C130 C131 1.399 . S
C130 H143 0.931 1_565 S
C131 C130 1.399 . S
C131 C132 1.390 . S
C132 C127 1.392 . S
C132 C131 1.390 . S
C132 H144 0.929 . S
O133 Tb117 2.326 . S
O133 C121 1.242 . S
O134 Eu118 2.324 1_455 S
O134 C121 1.258 . S
O135 Tb117 2.500 . S
O135 C137 1.273 . S
O136 Tb117 2.473 . S
O136 C137 1.257 . S
C137 O135 1.273 . S
C137 O136 1.257 . S
O138 Eu118 2.326 . S
O138 C126 1.242 . S
O139 Tb117 2.324 1_655 S
O139 C126 1.258 . S
O140 Eu118 2.500 . S
O140 C123 1.273 . S
O141 Eu118 2.473 1_455 S
O141 C123 1.257 1_455 S
H142 C128 0.929 . S
H143 C130 0.931 1_545 S
H144 C132 0.929 . S
O145 Tb146 2.292 . S
O145 C148 1.255 . S
Tb146 O145 2.292 . S
Tb146 O162 2.326 . S
Tb146 O164 2.500 . S
Tb146 O165 2.473 . S
Tb146 O168 2.324 . S
Eu147 O151 2.292 . S
Eu147 C152 2.852 . S
Eu147 O163 2.324 . S
Eu147 O167 2.326 . S
Eu147 O169 2.500 . S
Eu147 O170 2.473 . S
C148 O145 1.255 . S
C148 O149 1.247 . S
O149 C148 1.247 . S
C150 O162 1.242 . S
C150 O163 1.258 . S
O151 Eu147 2.292 . S
O151 C153 1.255 . S
C152 Eu147 2.852 . S
C152 C156 1.503 1_554 S
C152 O169 1.273 . S
C152 O170 1.257 . S
C153 O151 1.255 . S
C153 O154 1.247 . S
O154 C153 1.247 . S
C155 O167 1.242 . S
C155 O168 1.258 . S
C156 C152 1.503 1_556 S
C156 C157 1.379 . S
C156 C161 1.392 . S
C157 C156 1.379 . S
C157 C158 1.404 . S
C157 H171 0.929 . S
C158 C157 1.404 . S
C158 C159 1.389 . S
C159 C158 1.389 . S
C159 C160 1.399 . S
C159 H172 0.931 . S
C160 C159 1.399 . S
C160 C161 1.390 . S
C161 C156 1.392 . S
C161 C160 1.390 . S
C161 H173 0.929 . S
O162 Tb146 2.326 . S
O162 C150 1.242 . S
O163 Eu147 2.324 . S
O163 C150 1.258 . S
O164 Tb146 2.500 . S
O164 C166 1.273 . S
O165 Tb146 2.473 . S
O165 C166 1.257 . S
C166 O164 1.273 . S
C166 O165 1.257 . S
O167 Eu147 2.326 . S
O167 C155 1.242 . S
O168 Tb146 2.324 . S
O168 C155 1.258 . S
O169 Eu147 2.500 . S
O169 C152 1.273 . S
O170 Eu147 2.473 . S
O170 C152 1.257 . S
H171 C157 0.929 . S
H172 C159 0.931 . S
H173 C161 0.929 . S
O174 Tb175 2.292 1_565 S
O174 C177 1.258 . S
Tb175 O174 2.292 1_545 S
Tb175 O191 2.326 . S
Tb175 O193 2.500 . S
Tb175 O194 2.473 . S
Tb175 O197 2.324 . S
Eu176 O180 2.292 . S
Eu176 C181 2.852 . S
Eu176 O192 2.324 . S
Eu176 O196 2.326 . S
Eu176 O198 2.500 . S
Eu176 O199 2.473 . S
C177 O174 1.258 . S
C177 O178 1.239 1_565 S
O178 C177 1.239 1_545 S
C179 O191 1.242 . S
C179 O192 1.258 . S
O180 Eu176 2.292 . S
O180 C182 1.255 . S
C181 Eu176 2.852 . S
C181 C185 1.503 . S
C181 O198 1.273 . S
C181 O199 1.257 . S
C182 O180 1.255 . S
C182 O183 1.247 . S
O183 C182 1.247 . S
C184 O196 1.242 . S
C184 O197 1.258 . S
C185 C181 1.503 . S
C185 C186 1.379 . S
C185 C190 1.392 . S
C186 C185 1.379 . S
C186 C187 1.404 . S
C186 H200 0.929 . S
C187 C186 1.404 . S
C187 C188 1.389 . S
C188 C187 1.389 . S
C188 C189 1.399 . S
C188 H201 0.931 1_545 S
C189 C188 1.399 . S
C189 C190 1.390 . S
C190 C185 1.392 . S
C190 C189 1.390 . S
C190 H202 0.929 . S
O191 Tb175 2.326 . S
O191 C179 1.242 . S
O192 Eu176 2.324 . S
O192 C179 1.258 . S
O193 Tb175 2.500 . S
O193 C195 1.273 . S
O194 Tb175 2.473 . S
O194 C195 1.257 . S
C195 O193 1.273 . S
C195 O194 1.257 . S
O196 Eu176 2.326 . S
O196 C184 1.242 . S
O197 Tb175 2.324 . S
O197 C184 1.258 . S
O198 Eu176 2.500 . S
O198 C181 1.273 . S
O199 Eu176 2.473 . S
O199 C181 1.257 . S
H200 C186 0.929 . S
H201 C188 0.931 1_565 S
H202 C190 0.929 . S
O203 Tb204 2.292 . S
O203 C206 1.255 . S
Tb204 O203 2.292 . S
Tb204 O220 2.326 . S
Tb204 O222 2.500 . S
Tb204 O223 2.473 . S
Tb204 O226 2.324 . S
Eu205 O209 2.292 . S
Eu205 C210 2.852 . S
Eu205 O221 2.324 . S
Eu205 O225 2.326 . S
Eu205 O227 2.500 . S
Eu205 O228 2.473 . S
C206 O203 1.255 . S
C206 O207 1.247 . S
O207 C206 1.247 . S
C208 O220 1.242 . S
C208 O221 1.258 . S
O209 Eu205 2.292 . S
O209 C211 1.255 . S
C210 Eu205 2.852 . S
C210 C214 1.503 . S
C210 O227 1.273 . S
C210 O228 1.257 . S
C211 O209 1.255 . S
C211 O212 1.247 . S
O212 C211 1.247 . S
C213 O225 1.242 . S
C213 O226 1.258 . S
C214 C210 1.503 . S
C214 C215 1.379 . S
C214 C219 1.392 . S
C215 C214 1.379 . S
C215 C216 1.404 . S
C215 H229 0.929 . S
C216 C215 1.404 . S
C216 C217 1.389 . S
C217 C216 1.389 . S
C217 C218 1.399 . S
C217 H230 0.931 . S
C218 C217 1.399 . S
C218 C219 1.390 . S
C219 C214 1.392 . S
C219 C218 1.390 . S
C219 H231 0.929 . S
O220 Tb204 2.326 . S
O220 C208 1.242 . S
O221 Eu205 2.324 . S
O221 C208 1.258 . S
O222 Tb204 2.500 . S
O222 C224 1.273 . S
O223 Tb204 2.473 . S
O223 C224 1.257 . S
C224 O222 1.273 . S
C224 O223 1.257 . S
O225 Eu205 2.326 . S
O225 C213 1.242 . S
O226 Tb204 2.324 . S
O226 C213 1.258 . S
O227 Eu205 2.500 . S
O227 C210 1.273 . S
O228 Eu205 2.473 . S
O228 C210 1.257 . S
H229 C215 0.929 . S
H230 C217 0.931 . S
H231 C219 0.929 . S
O232 Tb233 2.292 . S
O232 C235 1.255 . S
Tb233 O232 2.292 . S
Tb233 O249 2.326 . S
Tb233 O251 2.500 . S
Tb233 O252 2.473 . S
Tb233 O255 2.324 . S
Eu234 O238 2.292 . S
Eu234 C239 2.852 . S
Eu234 O250 2.324 . S
Eu234 O254 2.326 . S
Eu234 O256 2.500 . S
Eu234 O257 2.473 . S
C235 O232 1.255 . S
C235 O236 1.247 . S
O236 C235 1.247 . S
C237 O249 1.242 . S
C237 O250 1.258 . S
O238 Eu234 2.292 . S
O238 C240 1.255 . S
C239 Eu234 2.852 . S
C239 C243 1.503 . S
C239 O256 1.273 . S
C239 O257 1.257 . S
C240 O238 1.255 . S
C240 O241 1.247 . S
O241 C240 1.247 . S
C242 O254 1.242 . S
C242 O255 1.258 . S
C243 C239 1.503 . S
C243 C244 1.379 . S
C243 C248 1.392 . S
C244 C243 1.379 . S
C244 C245 1.404 . S
C244 H258 0.929 . S
C245 C244 1.404 . S
C245 C246 1.389 . S
C246 C245 1.389 . S
C246 C247 1.399 . S
C246 H259 0.931 . S
C247 C246 1.399 . S
C247 C248 1.390 . S
C248 C243 1.392 . S
C248 C247 1.390 . S
C248 H260 0.929 . S
O249 Tb233 2.326 . S
O249 C237 1.242 . S
O250 Eu234 2.324 . S
O250 C237 1.258 . S
O251 Tb233 2.500 . S
O251 C253 1.273 . S
O252 Tb233 2.473 . S
O252 C253 1.257 . S
C253 O251 1.273 . S
C253 O252 1.257 . S
O254 Eu234 2.326 . S
O254 C242 1.242 . S
O255 Tb233 2.324 . S
O255 C242 1.258 . S
O256 Eu234 2.500 . S
O256 C239 1.273 . S
O257 Eu234 2.473 . S
O257 C239 1.257 . S
H258 C244 0.929 . S
H259 C246 0.931 . S
H260 C248 0.929 . S
O261 Tb262 2.292 . S
O261 C264 1.255 . S
Tb262 O261 2.292 . S
Tb262 O278 2.326 . S
Tb262 O280 2.500 . S
Tb262 O281 2.473 . S
Tb262 O284 2.324 . S
Eu263 O267 2.292 . S
Eu263 C268 2.852 . S
Eu263 O279 2.324 . S
Eu263 O283 2.326 . S
Eu263 O285 2.500 . S
Eu263 O286 2.473 . S
C264 O261 1.255 . S
C264 O265 1.247 . S
O265 C264 1.247 . S
C266 O278 1.242 . S
C266 O279 1.258 . S
O267 Eu263 2.292 . S
O267 C269 1.255 . S
C268 Eu263 2.852 . S
C268 C272 1.503 1_554 S
C268 O285 1.273 . S
C268 O286 1.257 . S
C269 O267 1.255 . S
C269 O270 1.247 . S
O270 C269 1.247 . S
C271 O283 1.242 . S
C271 O284 1.258 . S
C272 C268 1.503 1_556 S
C272 C273 1.379 . S
C272 C277 1.392 . S
C273 C272 1.379 . S
C273 C274 1.404 . S
C273 H287 0.929 . S
C274 C273 1.404 . S
C274 C275 1.389 . S
C275 C274 1.389 . S
C275 C276 1.399 . S
C275 H288 0.931 . S
C276 C275 1.399 . S
C276 C277 1.390 . S
C277 C272 1.392 . S
C277 C276 1.390 . S
C277 H289 0.929 . S
O278 Tb262 2.326 . S
O278 C266 1.242 . S
O279 Eu263 2.324 . S
O279 C266 1.258 . S
O280 Tb262 2.500 . S
O280 C282 1.273 . S
O281 Tb262 2.473 . S
O281 C282 1.257 . S
C282 O280 1.273 . S
C282 O281 1.257 . S
O283 Eu263 2.326 . S
O283 C271 1.242 . S
O284 Tb262 2.324 . S
O284 C271 1.258 . S
O285 Eu263 2.500 . S
O285 C268 1.273 . S
O286 Eu263 2.473 . S
O286 C268 1.257 . S
H287 C273 0.929 . S
H288 C275 0.931 . S
H289 C277 0.929 . S
O290 Tb291 2.292 . S
O290 C293 1.255 . S
Tb291 O290 2.292 . S
Tb291 O307 2.326 . S
Tb291 O309 2.500 . S
Tb291 O310 2.473 . S
Tb291 O313 2.324 . S
Eu292 O296 2.292 . S
Eu292 C297 2.852 . S
Eu292 O308 2.324 . S
Eu292 O312 2.326 . S
Eu292 O314 2.500 . S
Eu292 O315 2.473 . S
C293 O290 1.255 . S
C293 O294 1.247 . S
O294 C293 1.247 . S
C295 O307 1.242 . S
C295 O308 1.258 . S
O296 Eu292 2.292 . S
O296 C298 1.255 . S
C297 Eu292 2.852 . S
C297 C301 1.503 1_556 S
C297 O314 1.273 . S
C297 O315 1.257 . S
C298 O296 1.255 . S
C298 O299 1.247 . S
O299 C298 1.247 . S
C300 O312 1.242 . S
C300 O313 1.258 . S
C301 C297 1.503 1_554 S
C301 C302 1.379 . S
C301 C306 1.392 . S
C302 C301 1.379 . S
C302 C303 1.404 . S
C302 H316 0.929 . S
C303 C302 1.404 . S
C303 C304 1.389 . S
C304 C303 1.389 . S
C304 C305 1.399 . S
C304 H317 0.931 . S
C305 C304 1.399 . S
C305 C306 1.390 . S
C306 C301 1.392 . S
C306 C305 1.390 . S
C306 H318 0.929 . S
O307 Tb291 2.326 . S
O307 C295 1.242 . S
O308 Eu292 2.324 . S
O308 C295 1.258 . S
O309 Tb291 2.500 . S
O309 C311 1.273 . S
O310 Tb291 2.473 . S
O310 C311 1.257 . S
C311 O309 1.273 . S
C311 O310 1.257 . S
O312 Eu292 2.326 . S
O312 C300 1.242 . S
O313 Tb291 2.324 . S
O313 C300 1.258 . S
O314 Eu292 2.500 . S
O314 C297 1.273 . S
O315 Eu292 2.473 . S
O315 C297 1.257 . S
H316 C302 0.929 . S
H317 C304 0.931 . S
H318 C306 0.929 . S
O319 Tb320 2.292 . S
O319 C322 1.255 . S
Tb320 O319 2.292 . S
Tb320 O336 2.326 . S
Tb320 O338 2.500 . S
Tb320 O339 2.473 . S
Tb320 O342 2.324 . S
Eu321 O325 2.292 . S
Eu321 C326 2.852 . S
Eu321 O337 2.324 . S
Eu321 O341 2.326 . S
Eu321 O343 2.500 . S
Eu321 O344 2.473 . S
C322 O319 1.255 . S
C322 O323 1.247 . S
O323 C322 1.247 . S
C324 O336 1.242 . S
C324 O337 1.258 . S
O325 Eu321 2.292 . S
O325 C327 1.255 . S
C326 Eu321 2.852 . S
C326 C330 1.503 . S
C326 O343 1.273 . S
C326 O344 1.257 . S
C327 O325 1.255 . S
C327 O328 1.247 . S
O328 C327 1.247 . S
C329 O341 1.242 . S
C329 O342 1.258 . S
C330 C326 1.503 . S
C330 C331 1.379 . S
C330 C335 1.392 . S
C331 C330 1.379 . S
C331 C332 1.404 . S
C331 H345 0.929 . S
C332 C331 1.404 . S
C332 C333 1.389 . S
C333 C332 1.389 . S
C333 C334 1.399 . S
C333 H346 0.931 . S
C334 C333 1.399 . S
C334 C335 1.390 . S
C335 C330 1.392 . S
C335 C334 1.390 . S
C335 H347 0.929 . S
O336 Tb320 2.326 . S
O336 C324 1.242 . S
O337 Eu321 2.324 . S
O337 C324 1.258 . S
O338 Tb320 2.500 . S
O338 C340 1.273 . S
O339 Tb320 2.473 . S
O339 C340 1.257 . S
C340 O338 1.273 . S
C340 O339 1.257 . S
O341 Eu321 2.326 . S
O341 C329 1.242 . S
O342 Tb320 2.324 . S
O342 C329 1.258 . S
O343 Eu321 2.500 . S
O343 C326 1.273 . S
O344 Eu321 2.473 . S
O344 C326 1.257 . S
H345 C331 0.929 . S
H346 C333 0.931 . S
H347 C335 0.929 . S
O348 Tb349 2.292 . S
O348 C351 1.255 . S
Tb349 O348 2.292 . S
Tb349 O365 2.326 . S
Tb349 O367 2.500 . S
Tb349 O368 2.473 . S
Tb349 O371 2.324 . S
Eu350 O354 2.292 . S
Eu350 C355 2.852 . S
Eu350 O366 2.324 . S
Eu350 O370 2.326 . S
Eu350 O372 2.500 . S
Eu350 O373 2.473 . S
C351 O348 1.255 . S
C351 O352 1.247 . S
O352 C351 1.247 . S
C353 O365 1.242 . S
C353 O366 1.258 . S
O354 Eu350 2.292 . S
O354 C356 1.255 . S
C355 Eu350 2.852 . S
C355 C359 1.503 . S
C355 O372 1.273 . S
C355 O373 1.257 . S
C356 O354 1.255 . S
C356 O357 1.247 . S
O357 C356 1.247 . S
C358 O370 1.242 . S
C358 O371 1.258 . S
C359 C355 1.503 . S
C359 C360 1.379 . S
C359 C364 1.392 . S
C360 C359 1.379 . S
C360 C361 1.404 . S
C360 H374 0.929 . S
C361 C360 1.404 . S
C361 C362 1.389 . S
C362 C361 1.389 . S
C362 C363 1.399 . S
C362 H375 0.931 . S
C363 C362 1.399 . S
C363 C364 1.390 . S
C364 C359 1.392 . S
C364 C363 1.390 . S
C364 H376 0.929 . S
O365 Tb349 2.326 . S
O365 C353 1.242 . S
O366 Eu350 2.324 . S
O366 C353 1.258 . S
O367 Tb349 2.500 . S
O367 C369 1.273 . S
O368 Tb349 2.473 . S
O368 C369 1.257 . S
C369 O367 1.273 . S
C369 O368 1.257 . S
O370 Eu350 2.326 . S
O370 C358 1.242 . S
O371 Tb349 2.324 . S
O371 C358 1.258 . S
O372 Eu350 2.500 . S
O372 C355 1.273 . S
O373 Eu350 2.473 . S
O373 C355 1.257 . S
H374 C360 0.929 . S
H375 C362 0.931 . S
H376 C364 0.929 . S
O377 Tb378 2.292 . S
O377 C380 1.255 . S
Tb378 O377 2.292 . S
Tb378 O394 2.326 . S
Tb378 O396 2.500 . S
Tb378 O397 2.473 1_655 S
Tb378 O400 2.324 1_655 S
Eu379 O383 2.292 . S
Eu379 C384 2.852 . S
Eu379 O395 2.324 1_455 S
Eu379 O399 2.326 . S
Eu379 O401 2.500 . S
Eu379 O402 2.473 1_455 S
C380 O377 1.255 . S
C380 O381 1.247 . S
O381 C380 1.247 . S
C382 O394 1.242 . S
C382 O395 1.258 . S
O383 Eu379 2.292 . S
O383 C385 1.255 . S
C384 Eu379 2.852 . S
C384 C388 1.503 . S
C384 O401 1.273 . S
C384 O402 1.257 1_455 S
C385 O383 1.255 . S
C385 O386 1.247 . S
O386 C385 1.247 . S
C387 O399 1.242 . S
C387 O400 1.258 . S
C388 C384 1.503 . S
C388 C389 1.379 1_455 S
C388 C393 1.392 . S
C389 C388 1.379 1_655 S
C389 C390 1.404 . S
C389 H403 0.929 . S
C390 C389 1.404 . S
C390 C391 1.389 1_655 S
C391 C390 1.389 1_455 S
C391 C392 1.399 . S
C391 H404 0.931 . S
C392 C391 1.399 . S
C392 C393 1.390 . S
C393 C388 1.392 . S
C393 C392 1.390 . S
C393 H405 0.929 . S
O394 Tb378 2.326 . S
O394 C382 1.242 . S
O395 Eu379 2.324 1_655 S
O395 C382 1.258 . S
O396 Tb378 2.500 . S
O396 C398 1.273 . S
O397 Tb378 2.473 1_455 S
O397 C398 1.257 1_455 S
C398 O396 1.273 . S
C398 O397 1.257 1_655 S
O399 Eu379 2.326 . S
O399 C387 1.242 . S
O400 Tb378 2.324 1_455 S
O400 C387 1.258 . S
O401 Eu379 2.500 . S
O401 C384 1.273 . S
O402 Eu379 2.473 1_655 S
O402 C384 1.257 1_655 S
H403 C389 0.929 . S
H404 C391 0.931 . S
H405 C393 0.929 . S
O406 Tb407 2.292 . S
O406 C409 1.255 . S
Tb407 O406 2.292 . S
Tb407 O423 2.326 . S
Tb407 O425 2.500 . S
Tb407 O426 2.473 . S
Tb407 O429 2.324 . S
Eu408 O412 2.292 . S
Eu408 C413 2.852 . S
Eu408 O424 2.324 . S
Eu408 O428 2.326 . S
Eu408 O430 2.500 . S
Eu408 O431 2.473 . S
C409 O406 1.255 . S
C409 O410 1.247 . S
O410 C409 1.247 . S
C411 O423 1.242 . S
C411 O424 1.258 . S
O412 Eu408 2.292 . S
O412 C414 1.255 . S
C413 Eu408 2.852 . S
C413 C417 1.503 . S
C413 O430 1.273 . S
C413 O431 1.257 . S
C414 O412 1.255 . S
C414 O415 1.247 . S
O415 C414 1.247 . S
C416 O428 1.242 . S
C416 O429 1.258 . S
C417 C413 1.503 . S
C417 C418 1.379 . S
C417 C422 1.392 . S
C418 C417 1.379 . S
C418 C419 1.404 . S
C418 H432 0.929 . S
C419 C418 1.404 . S
C419 C420 1.389 . S
C420 C419 1.389 . S
C420 C421 1.399 . S
C420 H433 0.931 . S
C421 C420 1.399 . S
C421 C422 1.390 . S
C422 C417 1.392 . S
C422 C421 1.390 . S
C422 H434 0.929 . S
O423 Tb407 2.326 . S
O423 C411 1.242 . S
O424 Eu408 2.324 . S
O424 C411 1.258 . S
O425 Tb407 2.500 . S
O425 C427 1.273 . S
O426 Tb407 2.473 . S
O426 C427 1.257 . S
C427 O425 1.273 . S
C427 O426 1.257 . S
O428 Eu408 2.326 . S
O428 C416 1.242 . S
O429 Tb407 2.324 . S
O429 C416 1.258 . S
O430 Eu408 2.500 . S
O430 C413 1.273 . S
O431 Eu408 2.473 . S
O431 C413 1.257 . S
H432 C418 0.929 . S
H433 C420 0.931 . S
H434 C422 0.929 . S
O435 Tb436 2.292 . S
O435 C438 1.255 . S
Tb436 O435 2.292 . S
Tb436 O452 2.326 . S
Tb436 O454 2.500 . S
Tb436 O455 2.473 1_655 S
Tb436 O458 2.324 1_655 S
Eu437 O441 2.292 . S
Eu437 C442 2.852 . S
Eu437 O453 2.324 1_455 S
Eu437 O457 2.326 . S
Eu437 O459 2.500 . S
Eu437 O460 2.473 1_455 S
C438 O435 1.255 . S
C438 O439 1.247 . S
O439 C438 1.247 . S
C440 O452 1.242 . S
C440 O453 1.258 . S
O441 Eu437 2.292 . S
O441 C443 1.255 . S
C442 Eu437 2.852 . S
C442 C446 1.503 . S
C442 O459 1.273 . S
C442 O460 1.257 1_455 S
C443 O441 1.255 . S
C443 O444 1.247 . S
O444 C443 1.247 . S
C445 O457 1.242 . S
C445 O458 1.258 . S
C446 C442 1.503 . S
C446 C447 1.379 1_455 S
C446 C451 1.392 . S
C447 C446 1.379 1_655 S
C447 C448 1.404 . S
C447 H461 0.929 . S
C448 C447 1.404 . S
C448 C449 1.389 1_655 S
C449 C448 1.389 1_455 S
C449 C450 1.399 . S
C449 H462 0.931 . S
C450 C449 1.399 . S
C450 C451 1.390 . S
C451 C446 1.392 . S
C451 C450 1.390 . S
C451 H463 0.929 . S
O452 Tb436 2.326 . S
O452 C440 1.242 . S
O453 Eu437 2.324 1_655 S
O453 C440 1.258 . S
O454 Tb436 2.500 . S
O454 C456 1.273 . S
O455 Tb436 2.473 1_455 S
O455 C456 1.257 1_455 S
C456 O454 1.273 . S
C456 O455 1.257 1_655 S
O457 Eu437 2.326 . S
O457 C445 1.242 . S
O458 Tb436 2.324 1_455 S
O458 C445 1.258 . S
O459 Eu437 2.500 . S
O459 C442 1.273 . S
O460 Eu437 2.473 1_655 S
O460 C442 1.257 1_655 S
H461 C447 0.929 . S
H462 C449 0.931 . S
H463 C451 0.929 . S
C464 C465 1.391 . S
C464 C466 1.394 1_565 S
C464 H480 0.931 . S
C465 C464 1.391 . S
C465 C469 1.376 . S
C466 C464 1.394 1_545 S
C466 C467 1.369 1_545 S
C466 C470 1.531 . S
C467 C466 1.369 1_565 S
C467 C468 1.403 1_455 S
C467 C475 1.503 1_566 S
C468 C467 1.403 1_655 S
C468 C469 1.392 1_655 S
C468 C471 1.518 1_556 S
C469 C465 1.376 . S
C469 C468 1.392 1_455 S
C469 H481 0.929 1_455 S
C470 C466 1.531 . S
C470 H482 0.960 . S
C470 H483 0.962 . S
C470 H484 0.960 . S
C471 C468 1.518 1_554 S
C471 H485 0.960 1_554 S
C471 H486 0.961 . S
C471 H487 0.961 1_554 S
C472 C473 1.370 . S
C472 C474 1.368 . S
C472 H488 0.931 . S
C473 C472 1.370 . S
C473 C477 1.408 . S
C474 C472 1.368 . S
C474 C475 1.374 . S
C474 C478 1.516 1_545 S
C475 C467 1.503 1_544 S
C475 C474 1.374 . S
C475 C476 1.403 . S
C476 C475 1.403 . S
C476 C477 1.404 . S
C476 C479 1.539 1_454 S
C477 C473 1.408 . S
C477 C476 1.404 . S
C477 H489 0.930 1_455 S
C478 C474 1.516 1_565 S
C478 H490 0.956 . S
C478 H491 0.961 . S
C478 H492 0.961 . S
C479 C476 1.539 1_656 S
C479 H493 0.958 . S
C479 H494 0.961 1_556 S
C479 H495 0.960 . S
H480 C464 0.931 . S
H481 C469 0.929 1_655 S
H482 C470 0.960 . S
H483 C470 0.962 . S
H484 C470 0.960 . S
H485 C471 0.960 1_556 S
H486 C471 0.961 . S
H487 C471 0.961 1_556 S
H488 C472 0.931 . S
H489 C477 0.930 1_655 S
H490 C478 0.956 . S
H491 C478 0.961 . S
H492 C478 0.961 . S
H493 C479 0.958 . S
H494 C479 0.961 1_554 S
H495 C479 0.960 . S
C496 C497 1.391 . S
C496 C498 1.394 . S
C496 H512 0.931 . S
C497 C496 1.391 . S
C497 C501 1.376 . S
C498 C496 1.394 . S
C498 C499 1.369 . S
C498 C502 1.531 . S
C499 C498 1.369 . S
C499 C500 1.410 . S
C499 C507 1.503 . S
C500 C499 1.410 . S
C500 C501 1.392 . S
C500 C503 1.511 . S
C501 C497 1.376 . S
C501 C500 1.392 . S
C501 H513 0.929 . S
C502 C498 1.531 . S
C502 H514 0.960 . S
C502 H515 0.962 . S
C502 H516 0.960 . S
C503 C500 1.511 . S
C503 H517 0.961 . S
C503 H518 0.961 . S
C503 H519 0.961 . S
C504 C505 1.370 . S
C504 C506 1.363 . S
C504 H520 0.931 . S
C505 C504 1.370 . S
C505 C509 1.408 . S
C506 C504 1.363 . S
C506 C507 1.370 . S
C506 C510 1.524 . S
C507 C499 1.503 . S
C507 C506 1.370 . S
C507 C508 1.403 . S
C508 C507 1.403 . S
C508 C509 1.404 . S
C508 C511 1.539 . S
C509 C505 1.408 . S
C509 C508 1.404 . S
C509 H521 0.930 . S
C510 C506 1.524 . S
C510 H522 0.956 . S
C510 H523 0.961 . S
C510 H524 0.961 . S
C511 C508 1.539 . S
C511 H525 0.958 . S
C511 H526 0.961 . S
C511 H527 0.960 . S
H512 C496 0.931 . S
H513 C501 0.929 . S
H514 C502 0.960 . S
H515 C502 0.962 . S
H516 C502 0.960 . S
H517 C503 0.961 . S
H518 C503 0.961 . S
H519 C503 0.961 . S
H520 C504 0.931 . S
H521 C509 0.930 . S
H522 C510 0.956 . S
H523 C510 0.961 . S
H524 C510 0.961 . S
H525 C511 0.958 . S
H526 C511 0.961 . S
H527 C511 0.960 . S
C528 C529 1.391 . S
C528 C530 1.394 1_545 S
C528 H544 0.931 1_545 S
C529 C528 1.391 . S
C529 C533 1.376 . S
C530 C528 1.394 1_565 S
C530 C531 1.369 1_565 S
C530 C534 1.531 . S
C531 C530 1.369 1_545 S
C531 C532 1.410 . S
C531 C539 1.503 1_545 S
C532 C531 1.410 . S
C532 C533 1.392 . S
C532 C535 1.511 . S
C533 C529 1.376 . S
C533 C532 1.392 . S
C533 H545 0.929 . S
C534 C530 1.531 . S
C534 H546 0.960 . S
C534 H547 0.962 . S
C534 H548 0.960 . S
C535 C532 1.511 . S
C535 H549 0.961 . S
C535 H550 0.961 . S
C535 H551 0.961 . S
C536 C537 1.370 . S
C536 C538 1.363 . S
C536 H552 0.931 . S
C537 C536 1.370 . S
C537 C541 1.408 . S
C538 C536 1.363 . S
C538 C539 1.370 . S
C538 C542 1.524 . S
C539 C531 1.503 1_565 S
C539 C538 1.370 . S
C539 C540 1.403 . S
C540 C539 1.403 . S
C540 C541 1.404 . S
C540 C543 1.539 . S
C541 C537 1.408 . S
C541 C540 1.404 . S
C541 H553 0.930 . S
C542 C538 1.524 . S
C542 H554 0.956 . S
C542 H555 0.961 1_565 S
C542 H556 0.961 . S
C543 C540 1.539 . S
C543 H557 0.958 . S
C543 H558 0.961 . S
C543 H559 0.960 1_565 S
H544 C528 0.931 1_565 S
H545 C533 0.929 . S
H546 C534 0.960 . S
H547 C534 0.962 . S
H548 C534 0.960 . S
H549 C535 0.961 . S
H550 C535 0.961 . S
H551 C535 0.961 . S
H552 C536 0.931 . S
H553 C541 0.930 . S
H554 C542 0.956 . S
H555 C542 0.961 1_545 S
H556 C542 0.961 . S
H557 C543 0.958 . S
H558 C543 0.961 . S
H559 C543 0.960 1_545 S
C560 C561 1.391 . S
C560 C562 1.394 . S
C560 H576 0.931 . S
C561 C560 1.391 . S
C561 C565 1.376 . S
C562 C560 1.394 . S
C562 C563 1.369 . S
C562 C566 1.531 . S
C563 C562 1.369 . S
C563 C564 1.410 . S
C563 C571 1.503 . S
C564 C563 1.410 . S
C564 C565 1.392 . S
C564 C567 1.511 . S
C565 C561 1.376 . S
C565 C564 1.392 . S
C565 H577 0.929 . S
C566 C562 1.531 . S
C566 H578 0.960 . S
C566 H579 0.962 . S
C566 H580 0.960 . S
C567 C564 1.511 . S
C567 H581 0.961 . S
C567 H582 0.961 . S
C567 H583 0.961 . S
C568 C569 1.370 . S
C568 C570 1.363 . S
C568 H584 0.931 . S
C569 C568 1.370 . S
C569 C573 1.408 . S
C570 C568 1.363 . S
C570 C571 1.370 . S
C570 C574 1.524 . S
C571 C563 1.503 . S
C571 C570 1.370 . S
C571 C572 1.403 . S
C572 C571 1.403 . S
C572 C573 1.404 . S
C572 C575 1.539 . S
C573 C569 1.408 . S
C573 C572 1.404 . S
C573 H585 0.930 . S
C574 C570 1.524 . S
C574 H586 0.956 . S
C574 H587 0.961 . S
C574 H588 0.961 . S
C575 C572 1.539 . S
C575 H589 0.958 . S
C575 H590 0.961 . S
C575 H591 0.960 . S
H576 C560 0.931 . S
H577 C565 0.929 . S
H578 C566 0.960 . S
H579 C566 0.962 . S
H580 C566 0.960 . S
H581 C567 0.961 . S
H582 C567 0.961 . S
H583 C567 0.961 . S
H584 C568 0.931 . S
H585 C573 0.930 . S
H586 C574 0.956 . S
H587 C574 0.961 . S
H588 C574 0.961 . S
H589 C575 0.958 . S
H590 C575 0.961 . S
H591 C575 0.960 . S
C592 C593 1.391 . S
C592 C594 1.394 . S
C592 H608 0.931 . S
C593 C592 1.391 . S
C593 C597 1.376 . S
C594 C592 1.394 . S
C594 C595 1.369 . S
C594 C598 1.531 . S
C595 C594 1.369 . S
C595 C596 1.410 . S
C595 C603 1.503 . S
C596 C595 1.410 . S
C596 C597 1.392 . S
C596 C599 1.511 . S
C597 C593 1.376 . S
C597 C596 1.392 . S
C597 H609 0.929 . S
C598 C594 1.531 . S
C598 H610 0.960 . S
C598 H611 0.962 . S
C598 H612 0.960 . S
C599 C596 1.511 . S
C599 H613 0.961 . S
C599 H614 0.961 . S
C599 H615 0.961 . S
C600 C601 1.370 . S
C600 C602 1.363 . S
C600 H616 0.931 . S
C601 C600 1.370 . S
C601 C605 1.408 . S
C602 C600 1.363 . S
C602 C603 1.370 . S
C602 C606 1.524 . S
C603 C595 1.503 . S
C603 C602 1.370 . S
C603 C604 1.403 . S
C604 C603 1.403 . S
C604 C605 1.404 . S
C604 C607 1.539 . S
C605 C601 1.408 . S
C605 C604 1.404 . S
C605 H617 0.930 . S
C606 C602 1.524 . S
C606 H618 0.956 . S
C606 H619 0.961 . S
C606 H620 0.961 . S
C607 C604 1.539 . S
C607 H621 0.958 . S
C607 H622 0.961 . S
C607 H623 0.960 . S
H608 C592 0.931 . S
H609 C597 0.929 . S
H610 C598 0.960 . S
H611 C598 0.962 . S
H612 C598 0.960 . S
H613 C599 0.961 . S
H614 C599 0.961 . S
H615 C599 0.961 . S
H616 C600 0.931 . S
H617 C605 0.930 . S
H618 C606 0.956 . S
H619 C606 0.961 . S
H620 C606 0.961 . S
H621 C607 0.958 . S
H622 C607 0.961 . S
H623 C607 0.960 . S
C624 C625 1.391 . S
C624 C626 1.394 . S
C624 H640 0.931 . S
C625 C624 1.391 . S
C625 C629 1.376 . S
C626 C624 1.394 . S
C626 C627 1.369 . S
C626 C630 1.531 . S
C627 C626 1.369 . S
C627 C628 1.410 . S
C627 C635 1.503 . S
C628 C627 1.410 . S
C628 C629 1.392 . S
C628 C631 1.511 . S
C629 C625 1.376 . S
C629 C628 1.392 . S
C629 H641 0.929 . S
C630 C626 1.531 . S
C630 H642 0.960 . S
C630 H643 0.962 . S
C630 H644 0.960 . S
C631 C628 1.511 . S
C631 H645 0.961 . S
C631 H646 0.961 . S
C631 H647 0.961 . S
C632 C633 1.370 . S
C632 C634 1.363 . S
C632 H648 0.931 . S
C633 C632 1.370 . S
C633 C637 1.408 . S
C634 C632 1.363 . S
C634 C635 1.370 . S
C634 C638 1.524 . S
C635 C627 1.503 . S
C635 C634 1.370 . S
C635 C636 1.403 . S
C636 C635 1.403 . S
C636 C637 1.404 . S
C636 C639 1.539 . S
C637 C633 1.408 . S
C637 C636 1.404 . S
C637 H649 0.930 . S
C638 C634 1.524 . S
C638 H650 0.956 . S
C638 H651 0.961 . S
C638 H652 0.961 . S
C639 C636 1.539 . S
C639 H653 0.958 . S
C639 H654 0.961 . S
C639 H655 0.960 . S
H640 C624 0.931 . S
H641 C629 0.929 . S
H642 C630 0.960 . S
H643 C630 0.962 . S
H644 C630 0.960 . S
H645 C631 0.961 . S
H646 C631 0.961 . S
H647 C631 0.961 . S
H648 C632 0.931 . S
H649 C637 0.930 . S
H650 C638 0.956 . S
H651 C638 0.961 . S
H652 C638 0.961 . S
H653 C639 0.958 . S
H654 C639 0.961 . S
H655 C639 0.960 . S
C656 C657 1.391 . S
C656 C658 1.394 . S
C656 H672 0.931 . S
C657 C656 1.391 . S
C657 C661 1.376 . S
C658 C656 1.394 . S
C658 C659 1.369 . S
C658 C662 1.531 . S
C659 C658 1.369 . S
C659 C660 1.410 . S
C659 C667 1.503 . S
C660 C659 1.410 . S
C660 C661 1.392 . S
C660 C663 1.511 . S
C661 C657 1.376 . S
C661 C660 1.392 . S
C661 H673 0.929 . S
C662 C658 1.531 . S
C662 H674 0.960 . S
C662 H675 0.962 . S
C662 H676 0.960 . S
C663 C660 1.511 . S
C663 H677 0.961 . S
C663 H678 0.961 . S
C663 H679 0.961 . S
C664 C665 1.370 . S
C664 C666 1.363 . S
C664 H680 0.931 . S
C665 C664 1.370 . S
C665 C669 1.408 . S
C666 C664 1.363 . S
C666 C667 1.370 . S
C666 C670 1.524 . S
C667 C659 1.503 . S
C667 C666 1.370 . S
C667 C668 1.403 . S
C668 C667 1.403 . S
C668 C669 1.404 . S
C668 C671 1.539 . S
C669 C665 1.408 . S
C669 C668 1.404 . S
C669 H681 0.930 . S
C670 C666 1.524 . S
C670 H682 0.956 . S
C670 H683 0.961 . S
C670 H684 0.961 . S
C671 C668 1.539 . S
C671 H685 0.958 . S
C671 H686 0.961 . S
C671 H687 0.960 . S
H672 C656 0.931 . S
H673 C661 0.929 . S
H674 C662 0.960 . S
H675 C662 0.962 . S
H676 C662 0.960 . S
H677 C663 0.961 . S
H678 C663 0.961 . S
H679 C663 0.961 . S
H680 C664 0.931 . S
H681 C669 0.930 . S
H682 C670 0.956 . S
H683 C670 0.961 . S
H684 C670 0.961 . S
H685 C671 0.958 . S
H686 C671 0.961 . S
H687 C671 0.960 . S
C688 C689 1.391 1_455 S
C688 C690 1.394 . S
C688 H704 0.931 . S
C689 C688 1.391 1_655 S
C689 C693 1.376 . S
C690 C688 1.394 . S
C690 C691 1.369 1_455 S
C690 C694 1.531 1_554 S
C691 C690 1.369 1_655 S
C691 C692 1.410 . S
C691 C699 1.503 1_554 S
C692 C691 1.410 . S
C692 C693 1.392 . S
C692 C695 1.511 . S
C693 C689 1.376 . S
C693 C692 1.392 . S
C693 H705 0.929 . S
C694 C690 1.531 1_556 S
C694 H706 0.960 . S
C694 H707 0.962 . S
C694 H708 0.960 . S
C695 C692 1.511 . S
C695 H709 0.961 . S
C695 H710 0.961 . S
C695 H711 0.961 . S
C696 C697 1.370 . S
C696 C698 1.363 . S
C696 H712 0.931 1_655 S
C697 C696 1.370 . S
C697 C701 1.408 . S
C698 C696 1.363 . S
C698 C699 1.370 . S
C698 C702 1.524 1_656 S
C699 C691 1.503 1_556 S
C699 C698 1.370 . S
C699 C700 1.403 . S
C700 C699 1.403 . S
C700 C701 1.404 . S
C700 C703 1.539 . S
C701 C697 1.408 . S
C701 C700 1.404 . S
C701 H713 0.930 . S
C702 C698 1.524 1_454 S
C702 H714 0.956 . S
C702 H715 0.961 1_455 S
C702 H716 0.961 . S
C703 C700 1.539 . S
C703 H717 0.958 . S
C703 H718 0.961 . S
C703 H719 0.960 . S
H704 C688 0.931 . S
H705 C693 0.929 . S
H706 C694 0.960 . S
H707 C694 0.962 . S
H708 C694 0.960 . S
H709 C695 0.961 . S
H710 C695 0.961 . S
H711 C695 0.961 . S
H712 C696 0.931 1_455 S
H713 C701 0.930 . S
H714 C702 0.956 . S
H715 C702 0.961 1_655 S
H716 C702 0.961 . S
H717 C703 0.958 . S
H718 C703 0.961 . S
H719 C703 0.960 . S
C720 C721 1.391 . S
C720 C722 1.394 . S
C720 H736 0.931 . S
C721 C720 1.391 . S
C721 C725 1.376 . S
C722 C720 1.394 . S
C722 C723 1.369 . S
C722 C726 1.531 . S
C723 C722 1.369 . S
C723 C724 1.410 . S
C723 C731 1.503 . S
C724 C723 1.410 . S
C724 C725 1.392 . S
C724 C727 1.511 . S
C725 C721 1.376 . S
C725 C724 1.392 . S
C725 H737 0.929 . S
C726 C722 1.531 . S
C726 H738 0.960 . S
C726 H739 0.962 . S
C726 H740 0.960 . S
C727 C724 1.511 . S
C727 H741 0.961 . S
C727 H742 0.961 . S
C727 H743 0.961 . S
C728 C729 1.370 . S
C728 C730 1.363 . S
C728 H744 0.931 . S
C729 C728 1.370 . S
C729 C733 1.408 . S
C730 C728 1.363 . S
C730 C731 1.370 . S
C730 C734 1.524 . S
C731 C723 1.503 . S
C731 C730 1.370 . S
C731 C732 1.403 . S
C732 C731 1.403 . S
C732 C733 1.404 . S
C732 C735 1.539 . S
C733 C729 1.408 . S
C733 C732 1.404 . S
C733 H745 0.930 . S
C734 C730 1.524 . S
C734 H746 0.956 . S
C734 H747 0.961 . S
C734 H748 0.961 . S
C735 C732 1.539 . S
C735 H749 0.958 . S
C735 H750 0.961 . S
C735 H751 0.960 . S
H736 C720 0.931 . S
H737 C725 0.929 . S
H738 C726 0.960 . S
H739 C726 0.962 . S
H740 C726 0.960 . S
H741 C727 0.961 . S
H742 C727 0.961 . S
H743 C727 0.961 . S
H744 C728 0.931 . S
H745 C733 0.930 . S
H746 C734 0.956 . S
H747 C734 0.961 . S
H748 C734 0.961 . S
H749 C735 0.958 . S
H750 C735 0.961 . S
H751 C735 0.960 . S
C752 C753 1.391 . S
C752 C754 1.394 . S
C752 H768 0.931 1_565 S
C753 C752 1.391 . S
C753 C757 1.376 . S
C754 C752 1.394 . S
C754 C755 1.369 . S
C754 C758 1.531 . S
C755 C754 1.369 . S
C755 C756 1.410 . S
C755 C763 1.503 . S
C756 C755 1.410 . S
C756 C757 1.392 . S
C756 C759 1.511 . S
C757 C753 1.376 . S
C757 C756 1.392 . S
C757 H769 0.929 . S
C758 C754 1.531 . S
C758 H770 0.960 . S
C758 H771 0.962 . S
C758 H772 0.960 . S
C759 C756 1.511 . S
C759 H773 0.961 . S
C759 H774 0.961 . S
C759 H775 0.961 . S
C760 C761 1.370 . S
C760 C762 1.363 . S
C760 H776 0.931 . S
C761 C760 1.370 . S
C761 C765 1.408 . S
C762 C760 1.363 . S
C762 C763 1.370 . S
C762 C766 1.524 . S
C763 C755 1.503 . S
C763 C762 1.370 . S
C763 C764 1.403 . S
C764 C763 1.403 . S
C764 C765 1.404 . S
C764 C767 1.539 . S
C765 C761 1.408 . S
C765 C764 1.404 . S
C765 H777 0.930 . S
C766 C762 1.524 . S
C766 H778 0.956 . S
C766 H779 0.961 . S
C766 H780 0.961 . S
C767 C764 1.539 . S
C767 H781 0.958 . S
C767 H782 0.961 . S
C767 H783 0.960 . S
H768 C752 0.931 1_545 S
H769 C757 0.929 . S
H770 C758 0.960 . S
H771 C758 0.962 . S
H772 C758 0.960 . S
H773 C759 0.961 . S
H774 C759 0.961 . S
H775 C759 0.961 . S
H776 C760 0.931 . S
H777 C765 0.930 . S
H778 C766 0.956 . S
H779 C766 0.961 . S
H780 C766 0.961 . S
H781 C767 0.958 . S
H782 C767 0.961 . S
H783 C767 0.960 . S
C784 C785 1.391 . S
C784 C786 1.394 . S
C784 H800 0.931 . S
C785 C784 1.391 . S
C785 C789 1.376 . S
C786 C784 1.394 . S
C786 C787 1.369 . S
C786 C790 1.531 . S
C787 C786 1.369 . S
C787 C788 1.410 . S
C787 C795 1.503 . S
C788 C787 1.410 . S
C788 C789 1.392 . S
C788 C791 1.511 . S
C789 C785 1.376 . S
C789 C788 1.392 . S
C789 H801 0.929 . S
C790 C786 1.531 . S
C790 H802 0.960 . S
C790 H803 0.962 . S
C790 H804 0.960 . S
C791 C788 1.511 . S
C791 H805 0.961 . S
C791 H806 0.961 . S
C791 H807 0.961 . S
C792 C793 1.370 . S
C792 C794 1.363 . S
C792 H808 0.931 . S
C793 C792 1.370 . S
C793 C797 1.408 . S
C794 C792 1.363 . S
C794 C795 1.370 . S
C794 C798 1.524 . S
C795 C787 1.503 . S
C795 C794 1.370 . S
C795 C796 1.403 . S
C796 C795 1.403 . S
C796 C797 1.404 . S
C796 C799 1.539 . S
C797 C793 1.408 . S
C797 C796 1.404 . S
C797 H809 0.930 . S
C798 C794 1.524 . S
C798 H810 0.956 . S
C798 H811 0.961 . S
C798 H812 0.961 . S
C799 C796 1.539 . S
C799 H813 0.958 . S
C799 H814 0.961 . S
C799 H815 0.960 . S
H800 C784 0.931 . S
H801 C789 0.929 . S
H802 C790 0.960 . S
H803 C790 0.962 . S
H804 C790 0.960 . S
H805 C791 0.961 . S
H806 C791 0.961 . S
H807 C791 0.961 . S
H808 C792 0.931 . S
H809 C797 0.930 . S
H810 C798 0.956 . S
H811 C798 0.961 . S
H812 C798 0.961 . S
H813 C799 0.958 . S
H814 C799 0.961 . S
H815 C799 0.960 . S
C816 C817 1.391 . S
C816 C818 1.394 . S
C816 H832 0.931 . S
C817 C816 1.391 . S
C817 C821 1.376 . S
C818 C816 1.394 . S
C818 C819 1.369 . S
C818 C822 1.531 . S
C819 C818 1.369 . S
C819 C820 1.410 . S
C819 C827 1.503 . S
C820 C819 1.410 . S
C820 C821 1.392 . S
C820 C823 1.511 . S
C821 C817 1.376 . S
C821 C820 1.392 . S
C821 H833 0.929 . S
C822 C818 1.531 . S
C822 H834 0.960 . S
C822 H835 0.962 . S
C822 H836 0.960 . S
C823 C820 1.511 . S
C823 H837 0.961 . S
C823 H838 0.961 . S
C823 H839 0.961 . S
C824 C825 1.370 . S
C824 C826 1.363 . S
C824 H840 0.931 . S
C825 C824 1.370 . S
C825 C829 1.408 . S
C826 C824 1.363 . S
C826 C827 1.370 . S
C826 C830 1.524 . S
C827 C819 1.503 . S
C827 C826 1.370 . S
C827 C828 1.403 . S
C828 C827 1.403 . S
C828 C829 1.404 . S
C828 C831 1.539 . S
C829 C825 1.408 . S
C829 C828 1.404 . S
C829 H841 0.930 . S
C830 C826 1.524 . S
C830 H842 0.956 . S
C830 H843 0.961 . S
C830 H844 0.961 . S
C831 C828 1.539 . S
C831 H845 0.958 . S
C831 H846 0.961 . S
C831 H847 0.960 . S
H832 C816 0.931 . S
H833 C821 0.929 . S
H834 C822 0.960 . S
H835 C822 0.962 . S
H836 C822 0.960 . S
H837 C823 0.961 . S
H838 C823 0.961 . S
H839 C823 0.961 . S
H840 C824 0.931 . S
H841 C829 0.930 . S
H842 C830 0.956 . S
H843 C830 0.961 . S
H844 C830 0.961 . S
H845 C831 0.958 . S
H846 C831 0.961 . S
H847 C831 0.960 . S
C848 C849 1.391 . S
C848 C850 1.394 . S
C848 H864 0.931 . S
C849 C848 1.391 . S
C849 C853 1.376 . S
C850 C848 1.394 . S
C850 C851 1.369 . S
C850 C854 1.531 . S
C851 C850 1.369 . S
C851 C852 1.410 . S
C851 C859 1.503 . S
C852 C851 1.410 . S
C852 C853 1.392 . S
C852 C855 1.511 . S
C853 C849 1.376 . S
C853 C852 1.392 . S
C853 H865 0.929 . S
C854 C850 1.531 . S
C854 H866 0.960 . S
C854 H867 0.962 . S
C854 H868 0.960 . S
C855 C852 1.511 . S
C855 H869 0.961 . S
C855 H870 0.961 . S
C855 H871 0.961 . S
C856 C857 1.370 . S
C856 C858 1.363 . S
C856 H872 0.931 . S
C857 C856 1.370 . S
C857 C861 1.408 . S
C858 C856 1.363 . S
C858 C859 1.370 . S
C858 C862 1.524 . S
C859 C851 1.503 . S
C859 C858 1.370 . S
C859 C860 1.403 . S
C860 C859 1.403 . S
C860 C861 1.404 . S
C860 C863 1.539 . S
C861 C857 1.408 . S
C861 C860 1.404 . S
C861 H873 0.930 . S
C862 C858 1.524 . S
C862 H874 0.956 . S
C862 H875 0.961 . S
C862 H876 0.961 . S
C863 C860 1.539 . S
C863 H877 0.958 . S
C863 H878 0.961 . S
C863 H879 0.960 . S
H864 C848 0.931 . S
H865 C853 0.929 . S
H866 C854 0.960 . S
H867 C854 0.962 . S
H868 C854 0.960 . S
H869 C855 0.961 . S
H870 C855 0.961 . S
H871 C855 0.961 . S
H872 C856 0.931 . S
H873 C861 0.930 . S
H874 C862 0.956 . S
H875 C862 0.961 . S
H876 C862 0.961 . S
H877 C863 0.958 . S
H878 C863 0.961 . S
H879 C863 0.960 . S
C880 C881 1.391 . S
C880 C882 1.394 . S
C880 H896 0.931 . S
C881 C880 1.391 . S
C881 C885 1.376 . S
C882 C880 1.394 . S
C882 C883 1.369 . S
C882 C886 1.531 . S
C883 C882 1.369 . S
C883 C884 1.410 . S
C883 C891 1.503 . S
C884 C883 1.410 . S
C884 C885 1.392 . S
C884 C887 1.511 . S
C885 C881 1.376 . S
C885 C884 1.392 . S
C885 H897 0.929 . S
C886 C882 1.531 . S
C886 H898 0.960 . S
C886 H899 0.962 . S
C886 H900 0.960 . S
C887 C884 1.511 . S
C887 H901 0.961 . S
C887 H902 0.961 . S
C887 H903 0.961 . S
C888 C889 1.370 . S
C888 C890 1.363 . S
C888 H904 0.931 . S
C889 C888 1.370 . S
C889 C893 1.408 . S
C890 C888 1.363 . S
C890 C891 1.370 . S
C890 C894 1.524 . S
C891 C883 1.503 . S
C891 C890 1.370 . S
C891 C892 1.403 . S
C892 C891 1.403 . S
C892 C893 1.404 . S
C892 C895 1.539 . S
C893 C889 1.408 . S
C893 C892 1.404 . S
C893 H905 0.930 . S
C894 C890 1.524 . S
C894 H906 0.956 . S
C894 H907 0.961 . S
C894 H908 0.961 . S
C895 C892 1.539 . S
C895 H909 0.958 . S
C895 H910 0.961 . S
C895 H911 0.960 . S
H896 C880 0.931 . S
H897 C885 0.929 . S
H898 C886 0.960 . S
H899 C886 0.962 . S
H900 C886 0.960 . S
H901 C887 0.961 . S
H902 C887 0.961 . S
H903 C887 0.961 . S
H904 C888 0.931 . S
H905 C893 0.930 . S
H906 C894 0.956 . S
H907 C894 0.961 . S
H908 C894 0.961 . S
H909 C895 0.958 . S
H910 C895 0.961 . S
H911 C895 0.960 . S
C912 C913 1.391 . S
C912 C914 1.394 . S
C912 H928 0.931 . S
C913 C912 1.391 . S
C913 C917 1.376 . S
C914 C912 1.394 . S
C914 C915 1.369 . S
C914 C918 1.531 . S
C915 C914 1.369 . S
C915 C916 1.410 . S
C915 C923 1.503 . S
C916 C915 1.410 . S
C916 C917 1.392 . S
C916 C919 1.511 . S
C917 C913 1.376 . S
C917 C916 1.392 . S
C917 H929 0.929 . S
C918 C914 1.531 . S
C918 H930 0.960 . S
C918 H931 0.962 . S
C918 H932 0.960 . S
C919 C916 1.511 . S
C919 H933 0.961 . S
C919 H934 0.961 . S
C919 H935 0.961 . S
C920 C921 1.370 . S
C920 C922 1.363 . S
C920 H936 0.931 . S
C921 C920 1.370 . S
C921 C925 1.408 . S
C922 C920 1.363 . S
C922 C923 1.370 . S
C922 C926 1.524 . S
C923 C915 1.503 . S
C923 C922 1.370 . S
C923 C924 1.403 . S
C924 C923 1.403 . S
C924 C925 1.404 . S
C924 C927 1.539 . S
C925 C921 1.408 . S
C925 C924 1.404 . S
C925 H937 0.930 . S
C926 C922 1.524 . S
C926 H938 0.956 . S
C926 H939 0.961 . S
C926 H940 0.961 . S
C927 C924 1.539 . S
C927 H941 0.958 . S
C927 H942 0.961 . S
C927 H943 0.960 . S
H928 C912 0.931 . S
H929 C917 0.929 . S
H930 C918 0.960 . S
H931 C918 0.962 . S
H932 C918 0.960 . S
H933 C919 0.961 . S
H934 C919 0.961 . S
H935 C919 0.961 . S
H936 C920 0.931 . S
H937 C925 0.930 . S
H938 C926 0.956 . S
H939 C926 0.961 . S
H940 C926 0.961 . S
H941 C927 0.958 . S
H942 C927 0.961 . S
H943 C927 0.960 . S
C944 C945 1.391 . S
C944 C946 1.394 . S
C944 H960 0.931 . S
C945 C944 1.391 . S
C945 C949 1.376 . S
C946 C944 1.394 . S
C946 C947 1.369 . S
C946 C950 1.531 . S
C947 C946 1.369 . S
C947 C948 1.410 . S
C947 C955 1.503 . S
C948 C947 1.410 . S
C948 C949 1.392 . S
C948 C951 1.511 . S
C949 C945 1.376 . S
C949 C948 1.392 . S
C949 H961 0.929 1_545 S
C950 C946 1.531 . S
C950 H962 0.960 . S
C950 H963 0.962 . S
C950 H964 0.960 . S
C951 C948 1.511 . S
C951 H965 0.961 . S
C951 H966 0.961 . S
C951 H967 0.961 . S
C952 C953 1.370 . S
C952 C954 1.363 . S
C952 H968 0.931 . S
C953 C952 1.370 . S
C953 C957 1.408 . S
C954 C952 1.363 . S
C954 C955 1.370 . S
C954 C958 1.524 . S
C955 C947 1.503 . S
C955 C954 1.370 . S
C955 C956 1.403 . S
C956 C955 1.403 . S
C956 C957 1.404 . S
C956 C959 1.539 . S
C957 C953 1.408 . S
C957 C956 1.404 . S
C957 H969 0.930 . S
C958 C954 1.524 . S
C958 H970 0.956 . S
C958 H971 0.961 . S
C958 H972 0.961 . S
C959 C956 1.539 . S
C959 H973 0.958 . S
C959 H974 0.961 . S
C959 H975 0.960 . S
H960 C944 0.931 . S
H961 C949 0.929 1_565 S
H962 C950 0.960 . S
H963 C950 0.962 . S
H964 C950 0.960 . S
H965 C951 0.961 . S
H966 C951 0.961 . S
H967 C951 0.961 . S
H968 C952 0.931 . S
H969 C957 0.930 . S
H970 C958 0.956 . S
H971 C958 0.961 . S
H972 C958 0.961 . S
H973 C959 0.958 . S
H974 C959 0.961 . S
H975 C959 0.960 . S
C976 C977 1.391 . S
C976 C978 1.394 . S
C976 H992 0.931 . S
C977 C976 1.391 . S
C977 C981 1.376 . S
C978 C976 1.394 . S
C978 C979 1.369 . S
C978 C982 1.531 . S
C979 C978 1.369 . S
C979 C980 1.410 . S
C979 C987 1.503 . S
C980 C979 1.410 . S
C980 C981 1.392 . S
C980 C983 1.511 . S
C981 C977 1.376 . S
C981 C980 1.392 . S
C981 H993 0.929 . S
C982 C978 1.531 . S
C982 H994 0.960 . S
C982 H995 0.962 . S
C982 H996 0.960 . S
C983 C980 1.511 . S
C983 H997 0.961 . S
C983 H998 0.961 . S
C983 H999 0.961 . S
C984 C985 1.370 . S
C984 C986 1.363 . S
C984 H1000 0.931 . S
C985 C984 1.370 . S
C985 C989 1.408 . S
C986 C984 1.363 . S
C986 C987 1.370 . S
C986 C990 1.524 . S
C987 C979 1.503 . S
C987 C986 1.370 . S
C987 C988 1.403 . S
C988 C987 1.403 . S
C988 C989 1.404 . S
C988 C991 1.539 . S
C989 C985 1.408 . S
C989 C988 1.404 . S
C989 H1001 0.930 . S
C990 C986 1.524 . S
C990 H1002 0.956 . S
C990 H1003 0.961 . S
C990 H1004 0.961 . S
C991 C988 1.539 . S
C991 H1005 0.958 . S
C991 H1006 0.961 . S
C991 H1007 0.960 . S
H992 C976 0.931 . S
H993 C981 0.929 . S
H994 C982 0.960 . S
H995 C982 0.962 . S
H996 C982 0.960 . S
H997 C983 0.961 . S
H998 C983 0.961 . S
H999 C983 0.961 . S
H1000 C984 0.931 . S
H1001 C989 0.930 . S
H1002 C990 0.956 . S
H1003 C990 0.961 . S
H1004 C990 0.961 . S
H1005 C991 0.958 . S
H1006 C991 0.961 . S
H1007 C991 0.960 . S
C1008 C1009 1.391 . S
C1008 C1010 1.394 . S
C1008 H1024 0.931 . S
C1009 C1008 1.391 . S
C1009 C1013 1.376 . S
C1010 C1008 1.394 . S
C1010 C1011 1.369 . S
C1010 C1014 1.531 . S
C1011 C1010 1.369 . S
C1011 C1012 1.410 . S
C1011 C1019 1.503 . S
C1012 C1011 1.410 . S
C1012 C1013 1.392 . S
C1012 C1015 1.511 . S
C1013 C1009 1.376 . S
C1013 C1012 1.392 . S
C1013 H1025 0.929 . S
C1014 C1010 1.531 . S
C1014 H1026 0.960 . S
C1014 H1027 0.962 . S
C1014 H1028 0.960 . S
C1015 C1012 1.511 . S
C1015 H1029 0.961 . S
C1015 H1030 0.961 . S
C1015 H1031 0.961 . S
C1016 C1017 1.370 . S
C1016 C1018 1.363 1_565 S
C1016 H1032 0.931 . S
C1017 C1016 1.370 . S
C1017 C1021 1.408 1_565 S
C1018 C1016 1.363 1_545 S
C1018 C1019 1.370 . S
C1018 C1022 1.524 . S
C1019 C1011 1.503 . S
C1019 C1018 1.370 . S
C1019 C1020 1.403 . S
C1020 C1019 1.403 . S
C1020 C1021 1.404 . S
C1020 C1023 1.539 . S
C1021 C1017 1.408 1_545 S
C1021 C1020 1.404 . S
C1021 H1033 0.930 1_545 S
C1022 C1018 1.524 . S
C1022 H1034 0.956 . S
C1022 H1035 0.961 . S
C1022 H1036 0.961 . S
C1023 C1020 1.539 . S
C1023 H1037 0.958 . S
C1023 H1038 0.961 . S
C1023 H1039 0.960 . S
H1024 C1008 0.931 . S
H1025 C1013 0.929 . S
H1026 C1014 0.960 . S
H1027 C1014 0.962 . S
H1028 C1014 0.960 . S
H1029 C1015 0.961 . S
H1030 C1015 0.961 . S
H1031 C1015 0.961 . S
H1032 C1016 0.931 . S
H1033 C1021 0.930 1_565 S
H1034 C1022 0.956 . S
H1035 C1022 0.961 . S
H1036 C1022 0.961 . S
H1037 C1023 0.958 . S
H1038 C1023 0.961 . S
H1039 C1023 0.960 . S
C1040 C1041 1.391 . S
C1040 C1042 1.394 . S
C1040 H1056 0.931 . S
C1041 C1040 1.391 . S
C1041 C1045 1.376 . S
C1042 C1040 1.394 . S
C1042 C1043 1.369 . S
C1042 C1046 1.531 . S
C1043 C1042 1.369 . S
C1043 C1044 1.410 . S
C1043 C1051 1.503 . S
C1044 C1043 1.410 . S
C1044 C1045 1.392 . S
C1044 C1047 1.511 . S
C1045 C1041 1.376 . S
C1045 C1044 1.392 . S
C1045 H1057 0.929 . S
C1046 C1042 1.531 . S
C1046 H1058 0.960 . S
C1046 H1059 0.962 . S
C1046 H1060 0.960 . S
C1047 C1044 1.511 . S
C1047 H1061 0.961 . S
C1047 H1062 0.961 . S
C1047 H1063 0.961 . S
C1048 C1049 1.370 . S
C1048 C1050 1.363 . S
C1048 H1064 0.931 . S
C1049 C1048 1.370 . S
C1049 C1053 1.408 . S
C1050 C1048 1.363 . S
C1050 C1051 1.370 . S
C1050 C1054 1.524 . S
C1051 C1043 1.503 . S
C1051 C1050 1.370 . S
C1051 C1052 1.403 . S
C1052 C1051 1.403 . S
C1052 C1053 1.404 . S
C1052 C1055 1.539 . S
C1053 C1049 1.408 . S
C1053 C1052 1.404 . S
C1053 H1065 0.930 . S
C1054 C1050 1.524 . S
C1054 H1066 0.956 . S
C1054 H1067 0.961 . S
C1054 H1068 0.961 . S
C1055 C1052 1.539 . S
C1055 H1069 0.958 . S
C1055 H1070 0.961 . S
C1055 H1071 0.960 . S
H1056 C1040 0.931 . S
H1057 C1045 0.929 . S
H1058 C1046 0.960 . S
H1059 C1046 0.962 . S
H1060 C1046 0.960 . S
H1061 C1047 0.961 . S
H1062 C1047 0.961 . S
H1063 C1047 0.961 . S
H1064 C1048 0.931 . S
H1065 C1053 0.930 . S
H1066 C1054 0.956 . S
H1067 C1054 0.961 . S
H1068 C1054 0.961 . S
H1069 C1055 0.958 . S
H1070 C1055 0.961 . S
H1071 C1055 0.960 . S
C1072 C1073 1.391 . S
C1072 C1074 1.394 . S
C1072 H1088 0.931 . S
C1073 C1072 1.391 . S
C1073 C1077 1.376 . S
C1074 C1072 1.394 . S
C1074 C1075 1.369 . S
C1074 C1078 1.531 . S
C1075 C1074 1.369 . S
C1075 C1076 1.410 . S
C1075 C1083 1.503 . S
C1076 C1075 1.410 . S
C1076 C1077 1.392 . S
C1076 C1079 1.511 . S
C1077 C1073 1.376 . S
C1077 C1076 1.392 . S
C1077 H1089 0.929 . S
C1078 C1074 1.531 . S
C1078 H1090 0.960 . S
C1078 H1091 0.962 . S
C1078 H1092 0.960 . S
C1079 C1076 1.511 . S
C1079 H1093 0.961 . S
C1079 H1094 0.961 . S
C1079 H1095 0.961 . S
C1080 C1081 1.370 1_565 S
C1080 C1082 1.363 . S
C1080 H1096 0.931 . S
C1081 C1080 1.370 1_545 S
C1081 C1085 1.408 . S
C1082 C1080 1.363 . S
C1082 C1083 1.370 . S
C1082 C1086 1.524 . S
C1083 C1075 1.503 . S
C1083 C1082 1.370 . S
C1083 C1084 1.384 1_565 S
C1084 C1083 1.384 1_545 S
C1084 C1085 1.418 . S
C1084 C1087 1.545 . S
C1085 C1081 1.408 . S
C1085 C1084 1.418 . S
C1085 H1097 0.930 . S
C1086 C1082 1.524 . S
C1086 H1098 0.956 . S
C1086 H1099 0.961 . S
C1086 H1100 0.961 . S
C1087 C1084 1.545 . S
C1087 H1101 0.958 . S
C1087 H1102 0.961 . S
C1087 H1103 0.960 1_545 S
H1088 C1072 0.931 . S
H1089 C1077 0.929 . S
H1090 C1078 0.960 . S
H1091 C1078 0.962 . S
H1092 C1078 0.960 . S
H1093 C1079 0.961 . S
H1094 C1079 0.961 . S
H1095 C1079 0.961 . S
H1096 C1080 0.931 . S
H1097 C1085 0.930 . S
H1098 C1086 0.956 . S
H1099 C1086 0.961 . S
H1100 C1086 0.961 . S
H1101 C1087 0.958 . S
H1102 C1087 0.961 . S
H1103 C1087 0.960 1_565 S
C1104 C1105 1.391 . S
C1104 C1106 1.394 . S
C1104 H1120 0.931 . S
C1105 C1104 1.391 . S
C1105 C1109 1.376 . S
C1106 C1104 1.394 . S
C1106 C1107 1.369 . S
C1106 C1110 1.531 . S
C1107 C1106 1.369 . S
C1107 C1108 1.410 . S
C1107 C1115 1.503 . S
C1108 C1107 1.410 . S
C1108 C1109 1.392 . S
C1108 C1111 1.511 . S
C1109 C1105 1.376 . S
C1109 C1108 1.392 . S
C1109 H1121 0.929 . S
C1110 C1106 1.531 . S
C1110 H1122 0.960 . S
C1110 H1123 0.962 . S
C1110 H1124 0.960 . S
C1111 C1108 1.511 . S
C1111 H1125 0.961 . S
C1111 H1126 0.961 . S
C1111 H1127 0.961 . S
C1112 C1113 1.370 . S
C1112 C1114 1.363 . S
C1112 H1128 0.931 . S
C1113 C1112 1.370 . S
C1113 C1117 1.408 . S
C1114 C1112 1.363 . S
C1114 C1115 1.370 . S
C1114 C1118 1.524 . S
C1115 C1107 1.503 . S
C1115 C1114 1.370 . S
C1115 C1116 1.403 . S
C1116 C1115 1.403 . S
C1116 C1117 1.404 . S
C1116 C1119 1.539 . S
C1117 C1113 1.408 . S
C1117 C1116 1.404 . S
C1117 H1129 0.930 . S
C1118 C1114 1.524 . S
C1118 H1130 0.956 . S
C1118 H1131 0.961 . S
C1118 H1132 0.961 . S
C1119 C1116 1.539 . S
C1119 H1133 0.958 . S
C1119 H1134 0.961 . S
C1119 H1135 0.960 . S
H1120 C1104 0.931 . S
H1121 C1109 0.929 . S
H1122 C1110 0.960 . S
H1123 C1110 0.962 . S
H1124 C1110 0.960 . S
H1125 C1111 0.961 . S
H1126 C1111 0.961 . S
H1127 C1111 0.961 . S
H1128 C1112 0.931 . S
H1129 C1117 0.930 . S
H1130 C1118 0.956 . S
H1131 C1118 0.961 . S
H1132 C1118 0.961 . S
H1133 C1119 0.958 . S
H1134 C1119 0.961 . S
H1135 C1119 0.960 . S
C1136 C1137 1.391 . S
C1136 C1138 1.394 1_565 S
C1136 H1152 0.931 . S
C1137 C1136 1.391 . S
C1137 C1141 1.376 1_565 S
C1138 C1136 1.394 1_545 S
C1138 C1139 1.369 . S
C1138 C1142 1.531 . S
C1139 C1138 1.369 . S
C1139 C1140 1.410 . S
C1139 C1147 1.503 . S
C1140 C1139 1.410 . S
C1140 C1141 1.392 . S
C1140 C1143 1.511 . S
C1141 C1137 1.376 1_545 S
C1141 C1140 1.392 . S
C1141 H1153 0.929 . S
C1142 C1138 1.531 . S
C1142 H1154 0.960 . S
C1142 H1155 0.962 . S
C1142 H1156 0.960 1_545 S
C1143 C1140 1.511 . S
C1143 H1157 0.961 . S
C1143 H1158 0.961 . S
C1143 H1159 0.961 . S
C1144 C1145 1.370 . S
C1144 C1146 1.363 . S
C1144 H1160 0.931 . S
C1145 C1144 1.370 . S
C1145 C1149 1.408 . S
C1146 C1144 1.363 . S
C1146 C1147 1.370 . S
C1146 C1150 1.524 . S
C1147 C1139 1.503 . S
C1147 C1146 1.370 . S
C1147 C1148 1.403 . S
C1148 C1147 1.403 . S
C1148 C1149 1.404 . S
C1148 C1151 1.539 . S
C1149 C1145 1.408 . S
C1149 C1148 1.404 . S
C1149 H1161 0.930 . S
C1150 C1146 1.524 . S
C1150 H1162 0.956 . S
C1150 H1163 0.961 . S
C1150 H1164 0.961 . S
C1151 C1148 1.539 . S
C1151 H1165 0.958 . S
C1151 H1166 0.961 . S
C1151 H1167 0.960 . S
H1152 C1136 0.931 . S
H1153 C1141 0.929 . S
H1154 C1142 0.960 . S
H1155 C1142 0.962 . S
H1156 C1142 0.960 1_565 S
H1157 C1143 0.961 . S
H1158 C1143 0.961 . S
H1159 C1143 0.961 . S
H1160 C1144 0.931 . S
H1161 C1149 0.930 . S
H1162 C1150 0.956 . S
H1163 C1150 0.961 . S
H1164 C1150 0.961 . S
H1165 C1151 0.958 . S
H1166 C1151 0.961 . S
H1167 C1151 0.960 . S
C1168 C1169 1.391 . S
C1168 C1170 1.394 . S
C1168 H1184 0.931 . S
C1169 C1168 1.391 . S
C1169 C1173 1.376 . S
C1170 C1168 1.394 . S
C1170 C1171 1.369 . S
C1170 C1174 1.531 . S
C1171 C1170 1.369 . S
C1171 C1172 1.410 . S
C1171 C1179 1.503 . S
C1172 C1171 1.410 . S
C1172 C1173 1.392 . S
C1172 C1175 1.511 . S
C1173 C1169 1.376 . S
C1173 C1172 1.392 . S
C1173 H1185 0.929 . S
C1174 C1170 1.531 . S
C1174 H1186 0.960 . S
C1174 H1187 0.962 . S
C1174 H1188 0.960 . S
C1175 C1172 1.511 . S
C1175 H1189 0.961 . S
C1175 H1190 0.961 . S
C1175 H1191 0.961 . S
C1176 C1177 1.370 . S
C1176 C1178 1.363 . S
C1176 H1192 0.931 . S
C1177 C1176 1.370 . S
C1177 C1181 1.408 . S
C1178 C1176 1.363 . S
C1178 C1179 1.370 . S
C1178 C1182 1.524 . S
C1179 C1171 1.503 . S
C1179 C1178 1.370 . S
C1179 C1180 1.403 . S
C1180 C1179 1.403 . S
C1180 C1181 1.404 . S
C1180 C1183 1.539 . S
C1181 C1177 1.408 . S
C1181 C1180 1.404 . S
C1181 H1193 0.930 . S
C1182 C1178 1.524 . S
C1182 H1194 0.956 . S
C1182 H1195 0.961 . S
C1182 H1196 0.961 . S
C1183 C1180 1.539 . S
C1183 H1197 0.958 . S
C1183 H1198 0.961 . S
C1183 H1199 0.960 . S
H1184 C1168 0.931 . S
H1185 C1173 0.929 . S
H1186 C1174 0.960 . S
H1187 C1174 0.962 . S
H1188 C1174 0.960 . S
H1189 C1175 0.961 . S
H1190 C1175 0.961 . S
H1191 C1175 0.961 . S
H1192 C1176 0.931 . S
H1193 C1181 0.930 . S
H1194 C1182 0.956 . S
H1195 C1182 0.961 . S
H1196 C1182 0.961 . S
H1197 C1183 0.958 . S
H1198 C1183 0.961 . S
H1199 C1183 0.960 . S
C1200 C1201 1.391 1_565 S
C1200 C1202 1.394 . S
C1200 H1216 0.931 1_565 S
C1201 C1200 1.391 1_545 S
C1201 C1205 1.376 1_545 S
C1202 C1200 1.394 . S
C1202 C1203 1.369 . S
C1202 C1206 1.531 . S
C1203 C1202 1.369 . S
C1203 C1204 1.410 . S
C1203 C1211 1.503 . S
C1204 C1203 1.410 . S
C1204 C1205 1.392 . S
C1204 C1207 1.511 . S
C1205 C1201 1.376 1_565 S
C1205 C1204 1.392 . S
C1205 H1217 0.929 1_565 S
C1206 C1202 1.531 . S
C1206 H1218 0.960 . S
C1206 H1219 0.962 . S
C1206 H1220 0.960 . S
C1207 C1204 1.511 . S
C1207 H1221 0.961 . S
C1207 H1222 0.961 . S
C1207 H1223 0.961 . S
C1208 C1209 1.370 . S
C1208 C1210 1.363 . S
C1208 H1224 0.931 . S
C1209 C1208 1.370 . S
C1209 C1213 1.408 . S
C1210 C1208 1.363 . S
C1210 C1211 1.370 . S
C1210 C1214 1.524 . S
C1211 C1203 1.503 . S
C1211 C1210 1.370 . S
C1211 C1212 1.403 . S
C1212 C1211 1.403 . S
C1212 C1213 1.404 . S
C1212 C1215 1.539 . S
C1213 C1209 1.408 . S
C1213 C1212 1.404 . S
C1213 H1225 0.930 . S
C1214 C1210 1.524 . S
C1214 H1226 0.956 . S
C1214 H1227 0.961 . S
C1214 H1228 0.961 . S
C1215 C1212 1.539 . S
C1215 H1229 0.958 . S
C1215 H1230 0.961 . S
C1215 H1231 0.960 . S
H1216 C1200 0.931 1_545 S
H1217 C1205 0.929 1_545 S
H1218 C1206 0.960 . S
H1219 C1206 0.962 . S
H1220 C1206 0.960 . S
H1221 C1207 0.961 . S
H1222 C1207 0.961 . S
H1223 C1207 0.961 . S
H1224 C1208 0.931 . S
H1225 C1213 0.930 . S
H1226 C1214 0.956 . S
H1227 C1214 0.961 . S
H1228 C1214 0.961 . S
H1229 C1215 0.958 . S
H1230 C1215 0.961 . S
H1231 C1215 0.960 . S
C1232 C1233 1.391 . S
C1232 C1234 1.394 . S
C1232 H1248 0.931 . S
C1233 C1232 1.391 . S
C1233 C1237 1.376 . S
C1234 C1232 1.394 . S
C1234 C1235 1.369 . S
C1234 C1238 1.531 . S
C1235 C1234 1.369 . S
C1235 C1236 1.410 . S
C1235 C1243 1.503 . S
C1236 C1235 1.410 . S
C1236 C1237 1.392 . S
C1236 C1239 1.511 . S
C1237 C1233 1.376 . S
C1237 C1236 1.392 . S
C1237 H1249 0.929 . S
C1238 C1234 1.531 . S
C1238 H1250 0.960 . S
C1238 H1251 0.962 . S
C1238 H1252 0.960 . S
C1239 C1236 1.511 . S
C1239 H1253 0.961 . S
C1239 H1254 0.961 . S
C1239 H1255 0.961 . S
C1240 C1241 1.370 . S
C1240 C1242 1.363 . S
C1240 H1256 0.931 . S
C1241 C1240 1.370 . S
C1241 C1245 1.408 . S
C1242 C1240 1.363 . S
C1242 C1243 1.370 . S
C1242 C1246 1.524 . S
C1243 C1235 1.503 . S
C1243 C1242 1.370 . S
C1243 C1244 1.403 . S
C1244 C1243 1.403 . S
C1244 C1245 1.404 . S
C1244 C1247 1.539 . S
C1245 C1241 1.408 . S
C1245 C1244 1.404 . S
C1245 H1257 0.930 . S
C1246 C1242 1.524 . S
C1246 H1258 0.956 . S
C1246 H1259 0.961 . S
C1246 H1260 0.961 . S
C1247 C1244 1.539 . S
C1247 H1261 0.958 . S
C1247 H1262 0.961 . S
C1247 H1263 0.960 . S
H1248 C1232 0.931 . S
H1249 C1237 0.929 . S
H1250 C1238 0.960 . S
H1251 C1238 0.962 . S
H1252 C1238 0.960 . S
H1253 C1239 0.961 . S
H1254 C1239 0.961 . S
H1255 C1239 0.961 . S
H1256 C1240 0.931 . S
H1257 C1245 0.930 . S
H1258 C1246 0.956 . S
H1259 C1246 0.961 . S
H1260 C1246 0.961 . S
H1261 C1247 0.958 . S
H1262 C1247 0.961 . S
H1263 C1247 0.960 . S
C1264 C1265 1.391 . S
C1264 C1266 1.394 . S
C1264 H1280 0.931 . S
C1265 C1264 1.391 . S
C1265 C1269 1.376 . S
C1266 C1264 1.394 . S
C1266 C1267 1.369 . S
C1266 C1270 1.531 . S
C1267 C1266 1.369 . S
C1267 C1268 1.410 . S
C1267 C1275 1.503 . S
C1268 C1267 1.410 . S
C1268 C1269 1.392 . S
C1268 C1271 1.511 . S
C1269 C1265 1.376 . S
C1269 C1268 1.392 . S
C1269 H1281 0.929 . S
C1270 C1266 1.531 . S
C1270 H1282 0.960 . S
C1270 H1283 0.962 . S
C1270 H1284 0.960 . S
C1271 C1268 1.511 . S
C1271 H1285 0.961 . S
C1271 H1286 0.961 . S
C1271 H1287 0.961 . S
C1272 C1273 1.370 . S
C1272 C1274 1.363 . S
C1272 H1288 0.931 . S
C1273 C1272 1.370 . S
C1273 C1277 1.408 . S
C1274 C1272 1.363 . S
C1274 C1275 1.370 . S
C1274 C1278 1.524 . S
C1275 C1267 1.503 . S
C1275 C1274 1.370 . S
C1275 C1276 1.403 . S
C1276 C1275 1.403 . S
C1276 C1277 1.404 . S
C1276 C1279 1.539 . S
C1277 C1273 1.408 . S
C1277 C1276 1.404 . S
C1277 H1289 0.930 . S
C1278 C1274 1.524 . S
C1278 H1290 0.956 . S
C1278 H1291 0.961 . S
C1278 H1292 0.961 . S
C1279 C1276 1.539 . S
C1279 H1293 0.958 . S
C1279 H1294 0.961 . S
C1279 H1295 0.960 . S
H1280 C1264 0.931 . S
H1281 C1269 0.929 . S
H1282 C1270 0.960 . S
H1283 C1270 0.962 . S
H1284 C1270 0.960 . S
H1285 C1271 0.961 . S
H1286 C1271 0.961 . S
H1287 C1271 0.961 . S
H1288 C1272 0.931 . S
H1289 C1277 0.930 . S
H1290 C1278 0.956 . S
H1291 C1278 0.961 . S
H1292 C1278 0.961 . S
H1293 C1279 0.958 . S
H1294 C1279 0.961 . S
H1295 C1279 0.960 . S
C1296 C1297 1.391 . S
C1296 C1298 1.394 . S
C1296 H1312 0.931 . S
C1297 C1296 1.391 . S
C1297 C1301 1.376 . S
C1298 C1296 1.394 . S
C1298 C1299 1.369 . S
C1298 C1302 1.531 . S
C1299 C1298 1.369 . S
C1299 C1300 1.410 . S
C1299 C1307 1.503 . S
C1300 C1299 1.410 . S
C1300 C1301 1.392 . S
C1300 C1303 1.511 . S
C1301 C1297 1.376 . S
C1301 C1300 1.392 . S
C1301 H1313 0.929 . S
C1302 C1298 1.531 . S
C1302 H1314 0.960 . S
C1302 H1315 0.962 . S
C1302 H1316 0.960 . S
C1303 C1300 1.511 . S
C1303 H1317 0.961 . S
C1303 H1318 0.961 . S
C1303 H1319 0.961 . S
C1304 C1305 1.370 . S
C1304 C1306 1.363 . S
C1304 H1320 0.931 . S
C1305 C1304 1.370 . S
C1305 C1309 1.408 . S
C1306 C1304 1.363 . S
C1306 C1307 1.370 . S
C1306 C1310 1.524 . S
C1307 C1299 1.503 . S
C1307 C1306 1.370 . S
C1307 C1308 1.403 . S
C1308 C1307 1.403 . S
C1308 C1309 1.404 . S
C1308 C1311 1.539 . S
C1309 C1305 1.408 . S
C1309 C1308 1.404 . S
C1309 H1321 0.930 . S
C1310 C1306 1.524 . S
C1310 H1322 0.956 . S
C1310 H1323 0.961 . S
C1310 H1324 0.961 . S
C1311 C1308 1.539 . S
C1311 H1325 0.958 . S
C1311 H1326 0.961 . S
C1311 H1327 0.960 . S
H1312 C1296 0.931 . S
H1313 C1301 0.929 . S
H1314 C1302 0.960 . S
H1315 C1302 0.962 . S
H1316 C1302 0.960 . S
H1317 C1303 0.961 . S
H1318 C1303 0.961 . S
H1319 C1303 0.961 . S
H1320 C1304 0.931 . S
H1321 C1309 0.930 . S
H1322 C1310 0.956 . S
H1323 C1310 0.961 . S
H1324 C1310 0.961 . S
H1325 C1311 0.958 . S
H1326 C1311 0.961 . S
H1327 C1311 0.960 . S
C1328 C1329 1.391 . S
C1328 C1330 1.394 . S
C1328 H1344 0.931 . S
C1329 C1328 1.391 . S
C1329 C1333 1.376 . S
C1330 C1328 1.394 . S
C1330 C1331 1.369 . S
C1330 C1334 1.531 . S
C1331 C1330 1.369 . S
C1331 C1332 1.410 . S
C1331 C1339 1.503 . S
C1332 C1331 1.410 . S
C1332 C1333 1.392 . S
C1332 C1335 1.511 . S
C1333 C1329 1.376 . S
C1333 C1332 1.392 . S
C1333 H1345 0.929 . S
C1334 C1330 1.531 . S
C1334 H1346 0.960 . S
C1334 H1347 0.962 . S
C1334 H1348 0.960 . S
C1335 C1332 1.511 . S
C1335 H1349 0.961 . S
C1335 H1350 0.961 . S
C1335 H1351 0.961 . S
C1336 C1337 1.370 . S
C1336 C1338 1.363 . S
C1336 H1352 0.931 . S
C1337 C1336 1.370 . S
C1337 C1341 1.408 . S
C1338 C1336 1.363 . S
C1338 C1339 1.370 . S
C1338 C1342 1.524 . S
C1339 C1331 1.503 . S
C1339 C1338 1.370 . S
C1339 C1340 1.403 . S
C1340 C1339 1.403 . S
C1340 C1341 1.404 . S
C1340 C1343 1.539 . S
C1341 C1337 1.408 . S
C1341 C1340 1.404 . S
C1341 H1353 0.930 . S
C1342 C1338 1.524 . S
C1342 H1354 0.956 . S
C1342 H1355 0.961 . S
C1342 H1356 0.961 . S
C1343 C1340 1.539 . S
C1343 H1357 0.958 . S
C1343 H1358 0.961 . S
C1343 H1359 0.960 . S
H1344 C1328 0.931 . S
H1345 C1333 0.929 . S
H1346 C1334 0.960 . S
H1347 C1334 0.962 . S
H1348 C1334 0.960 . S
H1349 C1335 0.961 . S
H1350 C1335 0.961 . S
H1351 C1335 0.961 . S
H1352 C1336 0.931 . S
H1353 C1341 0.930 . S
H1354 C1342 0.956 . S
H1355 C1342 0.961 . S
H1356 C1342 0.961 . S
H1357 C1343 0.958 . S
H1358 C1343 0.961 . S
H1359 C1343 0.960 . S
C1360 C1361 1.391 . S
C1360 C1362 1.394 . S
C1360 H1376 0.931 . S
C1361 C1360 1.391 . S
C1361 C1365 1.376 . S
C1362 C1360 1.394 . S
C1362 C1363 1.369 . S
C1362 C1366 1.531 . S
C1363 C1362 1.369 . S
C1363 C1364 1.410 . S
C1363 C1371 1.503 . S
C1364 C1363 1.410 . S
C1364 C1365 1.392 . S
C1364 C1367 1.511 . S
C1365 C1361 1.376 . S
C1365 C1364 1.392 . S
C1365 H1377 0.929 . S
C1366 C1362 1.531 . S
C1366 H1378 0.960 . S
C1366 H1379 0.962 . S
C1366 H1380 0.960 . S
C1367 C1364 1.511 . S
C1367 H1381 0.961 . S
C1367 H1382 0.961 . S
C1367 H1383 0.961 . S
C1368 C1369 1.370 . S
C1368 C1370 1.363 . S
C1368 H1384 0.931 . S
C1369 C1368 1.370 . S
C1369 C1373 1.408 . S
C1370 C1368 1.363 . S
C1370 C1371 1.370 . S
C1370 C1374 1.524 . S
C1371 C1363 1.503 . S
C1371 C1370 1.370 . S
C1371 C1372 1.403 . S
C1372 C1371 1.403 . S
C1372 C1373 1.404 . S
C1372 C1375 1.539 . S
C1373 C1369 1.408 . S
C1373 C1372 1.404 . S
C1373 H1385 0.930 . S
C1374 C1370 1.524 . S
C1374 H1386 0.956 . S
C1374 H1387 0.961 . S
C1374 H1388 0.961 . S
C1375 C1372 1.539 . S
C1375 H1389 0.958 . S
C1375 H1390 0.961 . S
C1375 H1391 0.960 . S
H1376 C1360 0.931 . S
H1377 C1365 0.929 . S
H1378 C1366 0.960 . S
H1379 C1366 0.962 . S
H1380 C1366 0.960 . S
H1381 C1367 0.961 . S
H1382 C1367 0.961 . S
H1383 C1367 0.961 . S
H1384 C1368 0.931 . S
H1385 C1373 0.930 . S
H1386 C1374 0.956 . S
H1387 C1374 0.961 . S
H1388 C1374 0.961 . S
H1389 C1375 0.958 . S
H1390 C1375 0.961 . S
H1391 C1375 0.960 . S
C1392 C1393 1.391 . S
C1392 C1394 1.394 . S
C1392 H1408 0.931 . S
C1393 C1392 1.391 . S
C1393 C1397 1.376 . S
C1394 C1392 1.394 . S
C1394 C1395 1.369 . S
C1394 C1398 1.531 . S
C1395 C1394 1.369 . S
C1395 C1396 1.410 . S
C1395 C1403 1.503 . S
C1396 C1395 1.410 . S
C1396 C1397 1.392 . S
C1396 C1399 1.511 . S
C1397 C1393 1.376 . S
C1397 C1396 1.392 . S
C1397 H1409 0.929 . S
C1398 C1394 1.531 . S
C1398 H1410 0.960 . S
C1398 H1411 0.962 . S
C1398 H1412 0.960 . S
C1399 C1396 1.511 . S
C1399 H1413 0.961 . S
C1399 H1414 0.961 . S
C1399 H1415 0.961 . S
C1400 C1401 1.370 . S
C1400 C1402 1.363 . S
C1400 H1416 0.931 . S
C1401 C1400 1.370 . S
C1401 C1405 1.408 . S
C1402 C1400 1.363 . S
C1402 C1403 1.370 . S
C1402 C1406 1.524 . S
C1403 C1395 1.503 . S
C1403 C1402 1.370 . S
C1403 C1404 1.403 . S
C1404 C1403 1.403 . S
C1404 C1405 1.404 . S
C1404 C1407 1.539 . S
C1405 C1401 1.408 . S
C1405 C1404 1.404 . S
C1405 H1417 0.930 . S
C1406 C1402 1.524 . S
C1406 H1418 0.956 . S
C1406 H1419 0.961 . S
C1406 H1420 0.961 . S
C1407 C1404 1.539 . S
C1407 H1421 0.958 . S
C1407 H1422 0.961 . S
C1407 H1423 0.960 . S
H1408 C1392 0.931 . S
H1409 C1397 0.929 . S
H1410 C1398 0.960 . S
H1411 C1398 0.962 . S
H1412 C1398 0.960 . S
H1413 C1399 0.961 . S
H1414 C1399 0.961 . S
H1415 C1399 0.961 . S
H1416 C1400 0.931 . S
H1417 C1405 0.930 . S
H1418 C1406 0.956 . S
H1419 C1406 0.961 . S
H1420 C1406 0.961 . S
H1421 C1407 0.958 . S
H1422 C1407 0.961 . S
H1423 C1407 0.960 . S
C1424 C1425 1.391 . S
C1424 C1426 1.394 . S
C1424 H1440 0.931 . S
C1425 C1424 1.391 . S
C1425 C1429 1.376 . S
C1426 C1424 1.394 . S
C1426 C1427 1.369 . S
C1426 C1430 1.531 . S
C1427 C1426 1.369 . S
C1427 C1428 1.410 . S
C1427 C1435 1.503 . S
C1428 C1427 1.410 . S
C1428 C1429 1.392 . S
C1428 C1431 1.511 . S
C1429 C1425 1.376 . S
C1429 C1428 1.392 . S
C1429 H1441 0.929 . S
C1430 C1426 1.531 . S
C1430 H1442 0.960 . S
C1430 H1443 0.962 . S
C1430 H1444 0.960 . S
C1431 C1428 1.511 . S
C1431 H1445 0.961 . S
C1431 H1446 0.961 . S
C1431 H1447 0.961 . S
C1432 C1433 1.370 . S
C1432 C1434 1.363 . S
C1432 H1448 0.931 . S
C1433 C1432 1.370 . S
C1433 C1437 1.408 . S
C1434 C1432 1.363 . S
C1434 C1435 1.370 . S
C1434 C1438 1.524 . S
C1435 C1427 1.503 . S
C1435 C1434 1.370 . S
C1435 C1436 1.403 . S
C1436 C1435 1.403 . S
C1436 C1437 1.404 . S
C1436 C1439 1.539 . S
C1437 C1433 1.408 . S
C1437 C1436 1.404 . S
C1437 H1449 0.930 . S
C1438 C1434 1.524 . S
C1438 H1450 0.956 . S
C1438 H1451 0.961 . S
C1438 H1452 0.961 . S
C1439 C1436 1.539 . S
C1439 H1453 0.958 . S
C1439 H1454 0.961 . S
C1439 H1455 0.960 . S
H1440 C1424 0.931 . S
H1441 C1429 0.929 . S
H1442 C1430 0.960 . S
H1443 C1430 0.962 . S
H1444 C1430 0.960 . S
H1445 C1431 0.961 . S
H1446 C1431 0.961 . S
H1447 C1431 0.961 . S
H1448 C1432 0.931 . S
H1449 C1437 0.930 . S
H1450 C1438 0.956 . S
H1451 C1438 0.961 . S
H1452 C1438 0.961 . S
H1453 C1439 0.958 . S
H1454 C1439 0.961 . S
H1455 C1439 0.960 . S
C1456 C1457 1.391 . S
C1456 C1458 1.394 . S
C1456 H1472 0.931 . S
C1457 C1456 1.391 . S
C1457 C1461 1.376 . S
C1458 C1456 1.394 . S
C1458 C1459 1.369 . S
C1458 C1462 1.531 . S
C1459 C1458 1.369 . S
C1459 C1460 1.410 . S
C1459 C1467 1.503 . S
C1460 C1459 1.410 . S
C1460 C1461 1.392 . S
C1460 C1463 1.511 . S
C1461 C1457 1.376 . S
C1461 C1460 1.392 . S
C1461 H1473 0.929 . S
C1462 C1458 1.531 . S
C1462 H1474 0.960 . S
C1462 H1475 0.962 . S
C1462 H1476 0.960 . S
C1463 C1460 1.511 . S
C1463 H1477 0.961 . S
C1463 H1478 0.961 . S
C1463 H1479 0.961 . S
C1464 C1465 1.370 . S
C1464 C1466 1.363 . S
C1464 H1480 0.931 . S
C1465 C1464 1.370 . S
C1465 C1469 1.408 . S
C1466 C1464 1.363 . S
C1466 C1467 1.370 . S
C1466 C1470 1.524 . S
C1467 C1459 1.503 . S
C1467 C1466 1.370 . S
C1467 C1468 1.403 . S
C1468 C1467 1.403 . S
C1468 C1469 1.404 . S
C1468 C1471 1.539 . S
C1469 C1465 1.408 . S
C1469 C1468 1.404 . S
C1469 H1481 0.930 . S
C1470 C1466 1.524 . S
C1470 H1482 0.956 . S
C1470 H1483 0.961 . S
C1470 H1484 0.961 . S
C1471 C1468 1.539 . S
C1471 H1485 0.958 . S
C1471 H1486 0.961 . S
C1471 H1487 0.960 . S
H1472 C1456 0.931 . S
H1473 C1461 0.929 . S
H1474 C1462 0.960 . S
H1475 C1462 0.962 . S
H1476 C1462 0.960 . S
H1477 C1463 0.961 . S
H1478 C1463 0.961 . S
H1479 C1463 0.961 . S
H1480 C1464 0.931 . S
H1481 C1469 0.930 . S
H1482 C1470 0.956 . S
H1483 C1470 0.961 . S
H1484 C1470 0.961 . S
H1485 C1471 0.958 . S
H1486 C1471 0.961 . S
H1487 C1471 0.960 . S
C1488 C1489 1.391 . S
C1488 C1490 1.394 . S
C1488 H1504 0.931 . S
C1489 C1488 1.391 . S
C1489 C1493 1.376 . S
C1490 C1488 1.394 . S
C1490 C1491 1.369 . S
C1490 C1494 1.531 . S
C1491 C1490 1.369 . S
C1491 C1492 1.410 . S
C1491 C1499 1.503 . S
C1492 C1491 1.410 . S
C1492 C1493 1.392 . S
C1492 C1495 1.511 . S
C1493 C1489 1.376 . S
C1493 C1492 1.392 . S
C1493 H1505 0.929 . S
C1494 C1490 1.531 . S
C1494 H1506 0.960 . S
C1494 H1507 0.962 . S
C1494 H1508 0.960 . S
C1495 C1492 1.511 . S
C1495 H1509 0.961 . S
C1495 H1510 0.961 . S
C1495 H1511 0.961 . S
C1496 C1497 1.370 . S
C1496 C1498 1.363 . S
C1496 H1512 0.931 . S
C1497 C1496 1.370 . S
C1497 C1501 1.408 . S
C1498 C1496 1.363 . S
C1498 C1499 1.370 . S
C1498 C1502 1.524 . S
C1499 C1491 1.503 . S
C1499 C1498 1.370 . S
C1499 C1500 1.403 . S
C1500 C1499 1.403 . S
C1500 C1501 1.404 . S
C1500 C1503 1.539 . S
C1501 C1497 1.408 . S
C1501 C1500 1.404 . S
C1501 H1513 0.930 . S
C1502 C1498 1.524 . S
C1502 H1514 0.956 . S
C1502 H1515 0.961 . S
C1502 H1516 0.961 . S
C1503 C1500 1.539 . S
C1503 H1517 0.958 . S
C1503 H1518 0.961 . S
C1503 H1519 0.960 . S
H1504 C1488 0.931 . S
H1505 C1493 0.929 . S
H1506 C1494 0.960 . S
H1507 C1494 0.962 . S
H1508 C1494 0.960 . S
H1509 C1495 0.961 . S
H1510 C1495 0.961 . S
H1511 C1495 0.961 . S
H1512 C1496 0.931 . S
H1513 C1501 0.930 . S
H1514 C1502 0.956 . S
H1515 C1502 0.961 . S
H1516 C1502 0.961 . S
H1517 C1503 0.958 . S
H1518 C1503 0.961 . S
H1519 C1503 0.960 . S
C1520 C1521 1.391 . S
C1520 C1522 1.394 . S
C1520 H1536 0.931 . S
C1521 C1520 1.391 . S
C1521 C1525 1.376 . S
C1522 C1520 1.394 . S
C1522 C1523 1.369 . S
C1522 C1526 1.531 . S
C1523 C1522 1.369 . S
C1523 C1524 1.410 . S
C1523 C1531 1.503 . S
C1524 C1523 1.410 . S
C1524 C1525 1.392 . S
C1524 C1527 1.511 . S
C1525 C1521 1.376 . S
C1525 C1524 1.392 . S
C1525 H1537 0.929 . S
C1526 C1522 1.531 . S
C1526 H1538 0.960 . S
C1526 H1539 0.962 . S
C1526 H1540 0.960 . S
C1527 C1524 1.511 . S
C1527 H1541 0.961 . S
C1527 H1542 0.961 . S
C1527 H1543 0.961 . S
C1528 C1529 1.370 . S
C1528 C1530 1.363 . S
C1528 H1544 0.931 . S
C1529 C1528 1.370 . S
C1529 C1533 1.408 . S
C1530 C1528 1.363 . S
C1530 C1531 1.370 . S
C1530 C1534 1.524 . S
C1531 C1523 1.503 . S
C1531 C1530 1.370 . S
C1531 C1532 1.403 . S
C1532 C1531 1.403 . S
C1532 C1533 1.404 . S
C1532 C1535 1.539 . S
C1533 C1529 1.408 . S
C1533 C1532 1.404 . S
C1533 H1545 0.930 . S
C1534 C1530 1.524 . S
C1534 H1546 0.956 . S
C1534 H1547 0.961 . S
C1534 H1548 0.961 . S
C1535 C1532 1.539 . S
C1535 H1549 0.958 . S
C1535 H1550 0.961 . S
C1535 H1551 0.960 . S
H1536 C1520 0.931 . S
H1537 C1525 0.929 . S
H1538 C1526 0.960 . S
H1539 C1526 0.962 . S
H1540 C1526 0.960 . S
H1541 C1527 0.961 . S
H1542 C1527 0.961 . S
H1543 C1527 0.961 . S
H1544 C1528 0.931 . S
H1545 C1533 0.930 . S
H1546 C1534 0.956 . S
H1547 C1534 0.961 . S
H1548 C1534 0.961 . S
H1549 C1535 0.958 . S
H1550 C1535 0.961 . S
H1551 C1535 0.960 . S
C1552 C1553 1.391 . S
C1552 C1554 1.394 . S
C1552 H1568 0.931 . S
C1553 C1552 1.391 . S
C1553 C1557 1.376 . S
C1554 C1552 1.394 . S
C1554 C1555 1.369 . S
C1554 C1558 1.531 . S
C1555 C1554 1.369 . S
C1555 C1556 1.410 . S
C1555 C1563 1.503 . S
C1556 C1555 1.410 . S
C1556 C1557 1.392 . S
C1556 C1559 1.511 . S
C1557 C1553 1.376 . S
C1557 C1556 1.392 . S
C1557 H1569 0.929 . S
C1558 C1554 1.531 . S
C1558 H1570 0.960 . S
C1558 H1571 0.962 . S
C1558 H1572 0.960 . S
C1559 C1556 1.511 . S
C1559 H1573 0.961 . S
C1559 H1574 0.961 . S
C1559 H1575 0.961 . S
C1560 C1561 1.370 . S
C1560 C1562 1.363 . S
C1560 H1576 0.931 . S
C1561 C1560 1.370 . S
C1561 C1565 1.408 . S
C1562 C1560 1.363 . S
C1562 C1563 1.370 . S
C1562 C1566 1.524 . S
C1563 C1555 1.503 . S
C1563 C1562 1.370 . S
C1563 C1564 1.403 . S
C1564 C1563 1.403 . S
C1564 C1565 1.404 . S
C1564 C1567 1.539 . S
C1565 C1561 1.408 . S
C1565 C1564 1.404 . S
C1565 H1577 0.930 . S
C1566 C1562 1.524 . S
C1566 H1578 0.956 . S
C1566 H1579 0.961 . S
C1566 H1580 0.961 . S
C1567 C1564 1.539 . S
C1567 H1581 0.958 . S
C1567 H1582 0.961 . S
C1567 H1583 0.960 . S
H1568 C1552 0.931 . S
H1569 C1557 0.929 . S
H1570 C1558 0.960 . S
H1571 C1558 0.962 . S
H1572 C1558 0.960 . S
H1573 C1559 0.961 . S
H1574 C1559 0.961 . S
H1575 C1559 0.961 . S
H1576 C1560 0.931 . S
H1577 C1565 0.930 . S
H1578 C1566 0.956 . S
H1579 C1566 0.961 . S
H1580 C1566 0.961 . S
H1581 C1567 0.958 . S
H1582 C1567 0.961 . S
H1583 C1567 0.960 . S
C1584 C1585 1.391 . S
C1584 C1586 1.394 . S
C1584 H1600 0.931 . S
C1585 C1584 1.391 . S
C1585 C1589 1.376 . S
C1586 C1584 1.394 . S
C1586 C1587 1.369 . S
C1586 C1590 1.531 . S
C1587 C1586 1.369 . S
C1587 C1588 1.410 . S
C1587 C1595 1.503 . S
C1588 C1587 1.410 . S
C1588 C1589 1.392 . S
C1588 C1591 1.511 . S
C1589 C1585 1.376 . S
C1589 C1588 1.392 . S
C1589 H1601 0.929 . S
C1590 C1586 1.531 . S
C1590 H1602 0.960 . S
C1590 H1603 0.962 . S
C1590 H1604 0.960 . S
C1591 C1588 1.511 . S
C1591 H1605 0.961 . S
C1591 H1606 0.961 . S
C1591 H1607 0.961 . S
C1592 C1593 1.370 . S
C1592 C1594 1.363 . S
C1592 H1608 0.931 . S
C1593 C1592 1.370 . S
C1593 C1597 1.408 . S
C1594 C1592 1.363 . S
C1594 C1595 1.370 . S
C1594 C1598 1.524 . S
C1595 C1587 1.503 . S
C1595 C1594 1.370 . S
C1595 C1596 1.403 . S
C1596 C1595 1.403 . S
C1596 C1597 1.404 . S
C1596 C1599 1.539 . S
C1597 C1593 1.408 . S
C1597 C1596 1.404 . S
C1597 H1609 0.930 . S
C1598 C1594 1.524 . S
C1598 H1610 0.956 . S
C1598 H1611 0.961 . S
C1598 H1612 0.961 . S
C1599 C1596 1.539 . S
C1599 H1613 0.958 . S
C1599 H1614 0.961 . S
C1599 H1615 0.960 . S
H1600 C1584 0.931 . S
H1601 C1589 0.929 . S
H1602 C1590 0.960 . S
H1603 C1590 0.962 . S
H1604 C1590 0.960 . S
H1605 C1591 0.961 . S
H1606 C1591 0.961 . S
H1607 C1591 0.961 . S
H1608 C1592 0.931 . S
H1609 C1597 0.930 . S
H1610 C1598 0.956 . S
H1611 C1598 0.961 . S
H1612 C1598 0.961 . S
H1613 C1599 0.958 . S
H1614 C1599 0.961 . S
H1615 C1599 0.960 . S
C1616 C1617 1.391 . S
C1616 C1618 1.394 . S
C1616 H1632 0.931 . S
C1617 C1616 1.391 . S
C1617 C1621 1.376 . S
C1618 C1616 1.394 . S
C1618 C1619 1.369 . S
C1618 C1622 1.531 . S
C1619 C1618 1.369 . S
C1619 C1620 1.410 . S
C1619 C1627 1.503 . S
C1620 C1619 1.410 . S
C1620 C1621 1.392 . S
C1620 C1623 1.511 . S
C1621 C1617 1.376 . S
C1621 C1620 1.392 . S
C1621 H1633 0.929 . S
C1622 C1618 1.531 . S
C1622 H1634 0.960 . S
C1622 H1635 0.962 . S
C1622 H1636 0.960 . S
C1623 C1620 1.511 . S
C1623 H1637 0.961 . S
C1623 H1638 0.961 . S
C1623 H1639 0.961 . S
C1624 C1625 1.370 . S
C1624 C1626 1.363 . S
C1624 H1640 0.931 . S
C1625 C1624 1.370 . S
C1625 C1629 1.408 . S
C1626 C1624 1.363 . S
C1626 C1627 1.370 . S
C1626 C1630 1.524 . S
C1627 C1619 1.503 . S
C1627 C1626 1.370 . S
C1627 C1628 1.403 . S
C1628 C1627 1.403 . S
C1628 C1629 1.404 . S
C1628 C1631 1.539 . S
C1629 C1625 1.408 . S
C1629 C1628 1.404 . S
C1629 H1641 0.930 . S
C1630 C1626 1.524 . S
C1630 H1642 0.956 . S
C1630 H1643 0.961 . S
C1630 H1644 0.961 . S
C1631 C1628 1.539 . S
C1631 H1645 0.958 . S
C1631 H1646 0.961 . S
C1631 H1647 0.960 . S
H1632 C1616 0.931 . S
H1633 C1621 0.929 . S
H1634 C1622 0.960 . S
H1635 C1622 0.962 . S
H1636 C1622 0.960 . S
H1637 C1623 0.961 . S
H1638 C1623 0.961 . S
H1639 C1623 0.961 . S
H1640 C1624 0.931 . S
H1641 C1629 0.930 . S
H1642 C1630 0.956 . S
H1643 C1630 0.961 . S
H1644 C1630 0.961 . S
H1645 C1631 0.958 . S
H1646 C1631 0.961 . S
H1647 C1631 0.960 . S
C1648 C1649 1.391 . S
C1648 C1650 1.394 . S
C1648 H1664 0.931 . S
C1649 C1648 1.391 . S
C1649 C1653 1.376 . S
C1650 C1648 1.394 . S
C1650 C1651 1.369 . S
C1650 C1654 1.531 . S
C1651 C1650 1.369 . S
C1651 C1652 1.410 . S
C1651 C1659 1.503 . S
C1652 C1651 1.410 . S
C1652 C1653 1.392 . S
C1652 C1655 1.511 . S
C1653 C1649 1.376 . S
C1653 C1652 1.392 . S
C1653 H1665 0.929 . S
C1654 C1650 1.531 . S
C1654 H1666 0.960 . S
C1654 H1667 0.962 . S
C1654 H1668 0.960 . S
C1655 C1652 1.511 . S
C1655 H1669 0.961 . S
C1655 H1670 0.961 . S
C1655 H1671 0.961 . S
C1656 C1657 1.370 . S
C1656 C1658 1.363 . S
C1656 H1672 0.931 . S
C1657 C1656 1.370 . S
C1657 C1661 1.408 . S
C1658 C1656 1.363 . S
C1658 C1659 1.370 . S
C1658 C1662 1.524 . S
C1659 C1651 1.503 . S
C1659 C1658 1.370 . S
C1659 C1660 1.403 . S
C1660 C1659 1.403 . S
C1660 C1661 1.404 . S
C1660 C1663 1.539 . S
C1661 C1657 1.408 . S
C1661 C1660 1.404 . S
C1661 H1673 0.930 . S
C1662 C1658 1.524 . S
C1662 H1674 0.956 . S
C1662 H1675 0.961 . S
C1662 H1676 0.961 . S
C1663 C1660 1.539 . S
C1663 H1677 0.958 . S
C1663 H1678 0.961 . S
C1663 H1679 0.960 . S
H1664 C1648 0.931 . S
H1665 C1653 0.929 . S
H1666 C1654 0.960 . S
H1667 C1654 0.962 . S
H1668 C1654 0.960 . S
H1669 C1655 0.961 . S
H1670 C1655 0.961 . S
H1671 C1655 0.961 . S
H1672 C1656 0.931 . S
H1673 C1661 0.930 . S
H1674 C1662 0.956 . S
H1675 C1662 0.961 . S
H1676 C1662 0.961 . S
H1677 C1663 0.958 . S
H1678 C1663 0.961 . S
H1679 C1663 0.960 . S
C1680 C1681 1.391 . S
C1680 C1682 1.394 . S
C1680 H1696 0.931 . S
C1681 C1680 1.391 . S
C1681 C1685 1.376 . S
C1682 C1680 1.394 . S
C1682 C1683 1.369 . S
C1682 C1686 1.531 . S
C1683 C1682 1.369 . S
C1683 C1684 1.410 . S
C1683 C1691 1.503 . S
C1684 C1683 1.410 . S
C1684 C1685 1.392 . S
C1684 C1687 1.511 . S
C1685 C1681 1.376 . S
C1685 C1684 1.392 . S
C1685 H1697 0.929 . S
C1686 C1682 1.531 . S
C1686 H1698 0.960 . S
C1686 H1699 0.962 . S
C1686 H1700 0.960 . S
C1687 C1684 1.511 . S
C1687 H1701 0.961 . S
C1687 H1702 0.961 . S
C1687 H1703 0.961 . S
C1688 C1689 1.370 . S
C1688 C1690 1.363 . S
C1688 H1704 0.931 . S
C1689 C1688 1.370 . S
C1689 C1693 1.408 . S
C1690 C1688 1.363 . S
C1690 C1691 1.370 . S
C1690 C1694 1.524 . S
C1691 C1683 1.503 . S
C1691 C1690 1.370 . S
C1691 C1692 1.403 . S
C1692 C1691 1.403 . S
C1692 C1693 1.404 . S
C1692 C1695 1.539 . S
C1693 C1689 1.408 . S
C1693 C1692 1.404 . S
C1693 H1705 0.930 . S
C1694 C1690 1.524 . S
C1694 H1706 0.956 . S
C1694 H1707 0.961 . S
C1694 H1708 0.961 . S
C1695 C1692 1.539 . S
C1695 H1709 0.958 . S
C1695 H1710 0.961 . S
C1695 H1711 0.960 . S
H1696 C1680 0.931 . S
H1697 C1685 0.929 . S
H1698 C1686 0.960 . S
H1699 C1686 0.962 . S
H1700 C1686 0.960 . S
H1701 C1687 0.961 . S
H1702 C1687 0.961 . S
H1703 C1687 0.961 . S
H1704 C1688 0.931 . S
H1705 C1693 0.930 . S
H1706 C1694 0.956 . S
H1707 C1694 0.961 . S
H1708 C1694 0.961 . S
H1709 C1695 0.958 . S
H1710 C1695 0.961 . S
H1711 C1695 0.960 . S
C1712 C1713 1.391 . S
C1712 C1714 1.394 . S
C1712 H1728 0.931 . S
C1713 C1712 1.391 . S
C1713 C1717 1.376 . S
C1714 C1712 1.394 . S
C1714 C1715 1.369 . S
C1714 C1718 1.531 . S
C1715 C1714 1.369 . S
C1715 C1716 1.410 . S
C1715 C1723 1.503 . S
C1716 C1715 1.410 . S
C1716 C1717 1.392 . S
C1716 C1719 1.511 . S
C1717 C1713 1.376 . S
C1717 C1716 1.392 . S
C1717 H1729 0.929 . S
C1718 C1714 1.531 . S
C1718 H1730 0.960 . S
C1718 H1731 0.962 . S
C1718 H1732 0.960 . S
C1719 C1716 1.511 . S
C1719 H1733 0.961 . S
C1719 H1734 0.961 . S
C1719 H1735 0.961 . S
C1720 C1721 1.370 . S
C1720 C1722 1.363 . S
C1720 H1736 0.931 . S
C1721 C1720 1.370 . S
C1721 C1725 1.408 . S
C1722 C1720 1.363 . S
C1722 C1723 1.370 . S
C1722 C1726 1.524 . S
C1723 C1715 1.503 . S
C1723 C1722 1.370 . S
C1723 C1724 1.403 . S
C1724 C1723 1.403 . S
C1724 C1725 1.404 . S
C1724 C1727 1.539 . S
C1725 C1721 1.408 . S
C1725 C1724 1.404 . S
C1725 H1737 0.930 . S
C1726 C1722 1.524 . S
C1726 H1738 0.956 . S
C1726 H1739 0.961 . S
C1726 H1740 0.961 . S
C1727 C1724 1.539 . S
C1727 H1741 0.958 . S
C1727 H1742 0.961 . S
C1727 H1743 0.960 . S
H1728 C1712 0.931 . S
H1729 C1717 0.929 . S
H1730 C1718 0.960 . S
H1731 C1718 0.962 . S
H1732 C1718 0.960 . S
H1733 C1719 0.961 . S
H1734 C1719 0.961 . S
H1735 C1719 0.961 . S
H1736 C1720 0.931 . S
H1737 C1725 0.930 . S
H1738 C1726 0.956 . S
H1739 C1726 0.961 . S
H1740 C1726 0.961 . S
H1741 C1727 0.958 . S
H1742 C1727 0.961 . S
H1743 C1727 0.960 . S
C1744 C1745 1.391 . S
C1744 C1746 1.394 . S
C1744 H1760 0.931 . S
C1745 C1744 1.391 . S
C1745 C1749 1.376 . S
C1746 C1744 1.394 . S
C1746 C1747 1.369 . S
C1746 C1750 1.531 . S
C1747 C1746 1.369 . S
C1747 C1748 1.410 . S
C1747 C1755 1.503 . S
C1748 C1747 1.410 . S
C1748 C1749 1.392 . S
C1748 C1751 1.511 . S
C1749 C1745 1.376 . S
C1749 C1748 1.392 . S
C1749 H1761 0.929 . S
C1750 C1746 1.531 . S
C1750 H1762 0.960 . S
C1750 H1763 0.962 . S
C1750 H1764 0.960 . S
C1751 C1748 1.511 . S
C1751 H1765 0.961 . S
C1751 H1766 0.961 . S
C1751 H1767 0.961 . S
C1752 C1753 1.370 . S
C1752 C1754 1.363 . S
C1752 H1768 0.931 . S
C1753 C1752 1.370 . S
C1753 C1757 1.408 1_565 S
C1754 C1752 1.363 . S
C1754 C1755 1.370 . S
C1754 C1758 1.524 . S
C1755 C1747 1.503 . S
C1755 C1754 1.370 . S
C1755 C1756 1.403 . S
C1756 C1755 1.403 . S
C1756 C1757 1.404 1_565 S
C1756 C1759 1.539 . S
C1757 C1753 1.408 1_545 S
C1757 C1756 1.404 1_545 S
C1757 H1769 0.930 . S
C1758 C1754 1.524 . S
C1758 H1770 0.956 . S
C1758 H1771 0.961 . S
C1758 H1772 0.961 . S
C1759 C1756 1.539 . S
C1759 H1773 0.958 1_565 S
C1759 H1774 0.961 1_565 S
C1759 H1775 0.960 . S
H1760 C1744 0.931 . S
H1761 C1749 0.929 . S
H1762 C1750 0.960 . S
H1763 C1750 0.962 . S
H1764 C1750 0.960 . S
H1765 C1751 0.961 . S
H1766 C1751 0.961 . S
H1767 C1751 0.961 . S
H1768 C1752 0.931 . S
H1769 C1757 0.930 . S
H1770 C1758 0.956 . S
H1771 C1758 0.961 . S
H1772 C1758 0.961 . S
H1773 C1759 0.958 1_545 S
H1774 C1759 0.961 1_545 S
H1775 C1759 0.960 . S
C1776 C1777 1.391 . S
C1776 C1778 1.394 . S
C1776 H1792 0.931 . S
C1777 C1776 1.391 . S
C1777 C1781 1.376 1_565 S
C1778 C1776 1.394 . S
C1778 C1779 1.369 . S
C1778 C1782 1.531 . S
C1779 C1778 1.369 . S
C1779 C1780 1.410 . S
C1779 C1787 1.503 . S
C1780 C1779 1.410 . S
C1780 C1781 1.392 1_565 S
C1780 C1783 1.511 1_565 S
C1781 C1777 1.376 1_545 S
C1781 C1780 1.392 1_545 S
C1781 H1793 0.929 . S
C1782 C1778 1.531 . S
C1782 H1794 0.960 . S
C1782 H1795 0.962 . S
C1782 H1796 0.960 . S
C1783 C1780 1.511 1_545 S
C1783 H1797 0.961 . S
C1783 H1798 0.961 1_545 S
C1783 H1799 0.961 . S
C1784 C1785 1.370 . S
C1784 C1786 1.363 . S
C1784 H1800 0.931 . S
C1785 C1784 1.370 . S
C1785 C1789 1.408 . S
C1786 C1784 1.363 . S
C1786 C1787 1.370 . S
C1786 C1790 1.524 . S
C1787 C1779 1.503 . S
C1787 C1786 1.370 . S
C1787 C1788 1.403 . S
C1788 C1787 1.403 . S
C1788 C1789 1.404 . S
C1788 C1791 1.539 . S
C1789 C1785 1.408 . S
C1789 C1788 1.404 . S
C1789 H1801 0.930 . S
C1790 C1786 1.524 . S
C1790 H1802 0.956 . S
C1790 H1803 0.961 . S
C1790 H1804 0.961 . S
C1791 C1788 1.539 . S
C1791 H1805 0.958 . S
C1791 H1806 0.961 . S
C1791 H1807 0.960 . S
H1792 C1776 0.931 . S
H1793 C1781 0.929 . S
H1794 C1782 0.960 . S
H1795 C1782 0.962 . S
H1796 C1782 0.960 . S
H1797 C1783 0.961 . S
H1798 C1783 0.961 1_565 S
H1799 C1783 0.961 . S
H1800 C1784 0.931 . S
H1801 C1789 0.930 . S
H1802 C1790 0.956 . S
H1803 C1790 0.961 . S
H1804 C1790 0.961 . S
H1805 C1791 0.958 . S
H1806 C1791 0.961 . S
H1807 C1791 0.960 . S
C1808 C1809 1.391 . S
C1808 C1810 1.394 . S
C1808 H1824 0.931 . S
C1809 C1808 1.391 . S
C1809 C1813 1.376 . S
C1810 C1808 1.394 . S
C1810 C1811 1.369 . S
C1810 C1814 1.531 . S
C1811 C1810 1.369 . S
C1811 C1812 1.410 . S
C1811 C1819 1.503 . S
C1812 C1811 1.410 . S
C1812 C1813 1.392 . S
C1812 C1815 1.511 . S
C1813 C1809 1.376 . S
C1813 C1812 1.392 . S
C1813 H1825 0.929 . S
C1814 C1810 1.531 . S
C1814 H1826 0.960 . S
C1814 H1827 0.962 . S
C1814 H1828 0.960 . S
C1815 C1812 1.511 . S
C1815 H1829 0.961 . S
C1815 H1830 0.961 . S
C1815 H1831 0.961 . S
C1816 C1817 1.370 1_565 S
C1816 C1818 1.363 1_565 S
C1816 H1832 0.931 . S
C1817 C1816 1.370 1_545 S
C1817 C1821 1.408 . S
C1818 C1816 1.363 1_545 S
C1818 C1819 1.370 . S
C1818 C1822 1.524 . S
C1819 C1811 1.503 . S
C1819 C1818 1.370 . S
C1819 C1820 1.403 . S
C1820 C1819 1.403 . S
C1820 C1821 1.404 . S
C1820 C1823 1.539 . S
C1821 C1817 1.408 . S
C1821 C1820 1.404 . S
C1821 H1833 0.930 . S
C1822 C1818 1.524 . S
C1822 H1834 0.956 . S
C1822 H1835 0.961 . S
C1822 H1836 0.961 1_545 S
C1823 C1820 1.539 . S
C1823 H1837 0.958 . S
C1823 H1838 0.961 . S
C1823 H1839 0.960 . S
H1824 C1808 0.931 . S
H1825 C1813 0.929 . S
H1826 C1814 0.960 . S
H1827 C1814 0.962 . S
H1828 C1814 0.960 . S
H1829 C1815 0.961 . S
H1830 C1815 0.961 . S
H1831 C1815 0.961 . S
H1832 C1816 0.931 . S
H1833 C1821 0.930 . S
H1834 C1822 0.956 . S
H1835 C1822 0.961 . S
H1836 C1822 0.961 1_565 S
H1837 C1823 0.958 . S
H1838 C1823 0.961 . S
H1839 C1823 0.960 . S
C1840 C1841 1.391 . S
C1840 C1842 1.394 . S
C1840 H1856 0.931 . S
C1841 C1840 1.391 . S
C1841 C1845 1.376 . S
C1842 C1840 1.394 . S
C1842 C1843 1.369 . S
C1842 C1846 1.531 . S
C1843 C1842 1.369 . S
C1843 C1844 1.410 . S
C1843 C1851 1.503 . S
C1844 C1843 1.410 . S
C1844 C1845 1.392 . S
C1844 C1847 1.511 . S
C1845 C1841 1.376 . S
C1845 C1844 1.392 . S
C1845 H1857 0.929 . S
C1846 C1842 1.531 . S
C1846 H1858 0.960 . S
C1846 H1859 0.962 . S
C1846 H1860 0.960 . S
C1847 C1844 1.511 . S
C1847 H1861 0.961 . S
C1847 H1862 0.961 . S
C1847 H1863 0.961 . S
C1848 C1849 1.370 . S
C1848 C1850 1.363 . S
C1848 H1864 0.931 . S
C1849 C1848 1.370 . S
C1849 C1853 1.408 1_545 S
C1850 C1848 1.363 . S
C1850 C1851 1.370 . S
C1850 C1854 1.524 . S
C1851 C1843 1.503 . S
C1851 C1850 1.370 . S
C1851 C1852 1.403 . S
C1852 C1851 1.403 . S
C1852 C1853 1.404 1_545 S
C1852 C1855 1.539 . S
C1853 C1849 1.408 1_565 S
C1853 C1852 1.404 1_565 S
C1853 H1865 0.930 . S
C1854 C1850 1.524 . S
C1854 H1866 0.956 . S
C1854 H1867 0.961 . S
C1854 H1868 0.961 . S
C1855 C1852 1.539 . S
C1855 H1869 0.958 . S
C1855 H1870 0.961 1_545 S
C1855 H1871 0.960 . S
H1856 C1840 0.931 . S
H1857 C1845 0.929 . S
H1858 C1846 0.960 . S
H1859 C1846 0.962 . S
H1860 C1846 0.960 . S
H1861 C1847 0.961 . S
H1862 C1847 0.961 . S
H1863 C1847 0.961 . S
H1864 C1848 0.931 . S
H1865 C1853 0.930 . S
H1866 C1854 0.956 . S
H1867 C1854 0.961 . S
H1868 C1854 0.961 . S
H1869 C1855 0.958 . S
H1870 C1855 0.961 1_565 S
H1871 C1855 0.960 . S
C1872 C1873 1.391 . S
C1872 C1874 1.394 . S
C1872 H1888 0.931 . S
C1873 C1872 1.391 . S
C1873 C1877 1.376 . S
C1874 C1872 1.394 . S
C1874 C1875 1.369 . S
C1874 C1878 1.531 . S
C1875 C1874 1.369 . S
C1875 C1876 1.410 . S
C1875 C1883 1.503 . S
C1876 C1875 1.410 . S
C1876 C1877 1.392 . S
C1876 C1879 1.511 . S
C1877 C1873 1.376 . S
C1877 C1876 1.392 . S
C1877 H1889 0.929 . S
C1878 C1874 1.531 . S
C1878 H1890 0.960 . S
C1878 H1891 0.962 . S
C1878 H1892 0.960 . S
C1879 C1876 1.511 . S
C1879 H1893 0.961 . S
C1879 H1894 0.961 . S
C1879 H1895 0.961 . S
C1880 C1881 1.370 . S
C1880 C1882 1.363 . S
C1880 H1896 0.931 . S
C1881 C1880 1.370 . S
C1881 C1885 1.408 . S
C1882 C1880 1.363 . S
C1882 C1883 1.370 . S
C1882 C1886 1.524 . S
C1883 C1875 1.503 . S
C1883 C1882 1.370 . S
C1883 C1884 1.403 . S
C1884 C1883 1.403 . S
C1884 C1885 1.404 . S
C1884 C1887 1.539 . S
C1885 C1881 1.408 . S
C1885 C1884 1.404 . S
C1885 H1897 0.930 . S
C1886 C1882 1.524 . S
C1886 H1898 0.956 . S
C1886 H1899 0.961 . S
C1886 H1900 0.961 . S
C1887 C1884 1.539 . S
C1887 H1901 0.958 . S
C1887 H1902 0.961 . S
C1887 H1903 0.960 . S
H1888 C1872 0.931 . S
H1889 C1877 0.929 . S
H1890 C1878 0.960 . S
H1891 C1878 0.962 . S
H1892 C1878 0.960 . S
H1893 C1879 0.961 . S
H1894 C1879 0.961 . S
H1895 C1879 0.961 . S
H1896 C1880 0.931 . S
H1897 C1885 0.930 . S
H1898 C1886 0.956 . S
H1899 C1886 0.961 . S
H1900 C1886 0.961 . S
H1901 C1887 0.958 . S
H1902 C1887 0.961 . S
H1903 C1887 0.960 . S
C1904 C1905 1.391 . S
C1904 C1906 1.394 . S
C1904 H1920 0.931 . S
C1905 C1904 1.391 . S
C1905 C1909 1.376 . S
C1906 C1904 1.394 . S
C1906 C1907 1.369 . S
C1906 C1910 1.531 . S
C1907 C1906 1.369 . S
C1907 C1908 1.410 . S
C1907 C1915 1.503 . S
C1908 C1907 1.410 . S
C1908 C1909 1.392 . S
C1908 C1911 1.511 . S
C1909 C1905 1.376 . S
C1909 C1908 1.392 . S
C1909 H1921 0.929 . S
C1910 C1906 1.531 . S
C1910 H1922 0.960 . S
C1910 H1923 0.962 . S
C1910 H1924 0.960 . S
C1911 C1908 1.511 . S
C1911 H1925 0.961 . S
C1911 H1926 0.961 . S
C1911 H1927 0.961 . S
C1912 C1913 1.370 . S
C1912 C1914 1.363 . S
C1912 H1928 0.931 . S
C1913 C1912 1.370 . S
C1913 C1917 1.408 . S
C1914 C1912 1.363 . S
C1914 C1915 1.370 . S
C1914 C1918 1.524 . S
C1915 C1907 1.503 . S
C1915 C1914 1.370 . S
C1915 C1916 1.403 . S
C1916 C1915 1.403 . S
C1916 C1917 1.404 . S
C1916 C1919 1.539 . S
C1917 C1913 1.408 . S
C1917 C1916 1.404 . S
C1917 H1929 0.930 . S
C1918 C1914 1.524 . S
C1918 H1930 0.956 . S
C1918 H1931 0.961 . S
C1918 H1932 0.961 . S
C1919 C1916 1.539 . S
C1919 H1933 0.958 . S
C1919 H1934 0.961 . S
C1919 H1935 0.960 . S
H1920 C1904 0.931 . S
H1921 C1909 0.929 . S
H1922 C1910 0.960 . S
H1923 C1910 0.962 . S
H1924 C1910 0.960 . S
H1925 C1911 0.961 . S
H1926 C1911 0.961 . S
H1927 C1911 0.961 . S
H1928 C1912 0.931 . S
H1929 C1917 0.930 . S
H1930 C1918 0.956 . S
H1931 C1918 0.961 . S
H1932 C1918 0.961 . S
H1933 C1919 0.958 . S
H1934 C1919 0.961 . S
H1935 C1919 0.960 . S
C1936 C1937 1.391 . S
C1936 C1938 1.394 . S
C1936 H1952 0.931 . S
C1937 C1936 1.391 . S
C1937 C1941 1.376 . S
C1938 C1936 1.394 . S
C1938 C1939 1.369 . S
C1938 C1942 1.531 . S
C1939 C1938 1.369 . S
C1939 C1940 1.410 . S
C1939 C1947 1.503 . S
C1940 C1939 1.410 . S
C1940 C1941 1.392 . S
C1940 C1943 1.511 . S
C1941 C1937 1.376 . S
C1941 C1940 1.392 . S
C1941 H1953 0.929 . S
C1942 C1938 1.531 . S
C1942 H1954 0.960 . S
C1942 H1955 0.962 . S
C1942 H1956 0.960 . S
C1943 C1940 1.511 . S
C1943 H1957 0.961 . S
C1943 H1958 0.961 . S
C1943 H1959 0.961 . S
C1944 C1945 1.370 . S
C1944 C1946 1.363 . S
C1944 H1960 0.931 . S
C1945 C1944 1.370 . S
C1945 C1949 1.408 . S
C1946 C1944 1.363 . S
C1946 C1947 1.370 . S
C1946 C1950 1.524 . S
C1947 C1939 1.503 . S
C1947 C1946 1.370 . S
C1947 C1948 1.403 . S
C1948 C1947 1.403 . S
C1948 C1949 1.404 . S
C1948 C1951 1.539 . S
C1949 C1945 1.408 . S
C1949 C1948 1.404 . S
C1949 H1961 0.930 . S
C1950 C1946 1.524 . S
C1950 H1962 0.956 . S
C1950 H1963 0.961 . S
C1950 H1964 0.961 . S
C1951 C1948 1.539 . S
C1951 H1965 0.958 . S
C1951 H1966 0.961 . S
C1951 H1967 0.960 . S
H1952 C1936 0.931 . S
H1953 C1941 0.929 . S
H1954 C1942 0.960 . S
H1955 C1942 0.962 . S
H1956 C1942 0.960 . S
H1957 C1943 0.961 . S
H1958 C1943 0.961 . S
H1959 C1943 0.961 . S
H1960 C1944 0.931 . S
H1961 C1949 0.930 . S
H1962 C1950 0.956 . S
H1963 C1950 0.961 . S
H1964 C1950 0.961 . S
H1965 C1951 0.958 . S
H1966 C1951 0.961 . S
H1967 C1951 0.960 . S
C1968 C1969 1.391 . S
C1968 C1970 1.394 . S
C1968 H1984 0.931 . S
C1969 C1968 1.391 . S
C1969 C1973 1.376 . S
C1970 C1968 1.394 . S
C1970 C1971 1.369 . S
C1970 C1974 1.531 . S
C1971 C1970 1.369 . S
C1971 C1972 1.410 . S
C1971 C1979 1.503 . S
C1972 C1971 1.410 . S
C1972 C1973 1.392 . S
C1972 C1975 1.511 . S
C1973 C1969 1.376 . S
C1973 C1972 1.392 . S
C1973 H1985 0.929 1_565 S
C1974 C1970 1.531 . S
C1974 H1986 0.960 . S
C1974 H1987 0.962 . S
C1974 H1988 0.960 . S
C1975 C1972 1.511 . S
C1975 H1989 0.984 . S
C1975 H1990 0.961 . S
C1975 H1991 0.961 . S
C1976 C1977 1.370 . S
C1976 C1978 1.363 . S
C1976 H1992 0.931 . S
C1977 C1976 1.370 . S
C1977 C1981 1.408 . S
C1978 C1976 1.363 . S
C1978 C1979 1.370 . S
C1978 C1982 1.524 . S
C1979 C1971 1.503 . S
C1979 C1978 1.370 . S
C1979 C1980 1.403 . S
C1980 C1979 1.403 . S
C1980 C1981 1.404 . S
C1980 C1983 1.539 . S
C1981 C1977 1.408 . S
C1981 C1980 1.404 . S
C1981 H1993 0.930 . S
C1982 C1978 1.524 . S
C1982 H1994 0.956 . S
C1982 H1995 0.961 . S
C1982 H1996 0.961 . S
C1983 C1980 1.539 . S
C1983 H1997 0.958 . S
C1983 H1998 0.961 . S
C1983 H1999 0.960 . S
H1984 C1968 0.931 . S
H1985 C1973 0.929 1_545 S
H1986 C1974 0.960 . S
H1987 C1974 0.962 . S
H1988 C1974 0.960 . S
H1989 C1975 0.984 . S
H1990 C1975 0.961 . S
H1991 C1975 0.961 . S
H1992 C1976 0.931 . S
H1993 C1981 0.930 . S
H1994 C1982 0.956 . S
H1995 C1982 0.961 . S
H1996 C1982 0.961 . S
H1997 C1983 0.958 . S
H1998 C1983 0.961 . S
H1999 C1983 0.960 . S
C2000 C2001 1.391 . S
C2000 C2002 1.394 . S
C2000 H2016 0.931 . S
C2001 C2000 1.391 . S
C2001 C2005 1.376 . S
C2002 C2000 1.394 . S
C2002 C2003 1.369 . S
C2002 C2006 1.531 . S
C2003 C2002 1.369 . S
C2003 C2004 1.410 . S
C2003 C2011 1.503 . S
C2004 C2003 1.410 . S
C2004 C2005 1.392 . S
C2004 C2007 1.511 . S
C2005 C2001 1.376 . S
C2005 C2004 1.392 . S
C2005 H2017 0.929 . S
C2006 C2002 1.531 . S
C2006 H2018 0.960 . S
C2006 H2019 0.962 . S
C2006 H2020 0.960 . S
C2007 C2004 1.511 . S
C2007 H2021 0.961 . S
C2007 H2022 0.961 . S
C2007 H2023 0.961 . S
C2008 C2009 1.370 . S
C2008 C2010 1.363 . S
C2008 H2024 0.931 . S
C2009 C2008 1.370 . S
C2009 C2013 1.408 . S
C2010 C2008 1.363 . S
C2010 C2011 1.370 . S
C2010 C2014 1.524 . S
C2011 C2003 1.503 . S
C2011 C2010 1.370 . S
C2011 C2012 1.403 . S
C2012 C2011 1.403 . S
C2012 C2013 1.404 . S
C2012 C2015 1.539 . S
C2013 C2009 1.408 . S
C2013 C2012 1.404 . S
C2013 H2025 0.930 . S
C2014 C2010 1.524 . S
C2014 H2026 0.956 . S
C2014 H2027 0.961 . S
C2014 H2028 0.961 . S
C2015 C2012 1.539 . S
C2015 H2029 0.958 . S
C2015 H2030 0.961 . S
C2015 H2031 0.960 . S
H2016 C2000 0.931 . S
H2017 C2005 0.929 . S
H2018 C2006 0.960 . S
H2019 C2006 0.962 . S
H2020 C2006 0.960 . S
H2021 C2007 0.961 . S
H2022 C2007 0.961 . S
H2023 C2007 0.961 . S
H2024 C2008 0.931 . S
H2025 C2013 0.930 . S
H2026 C2014 0.956 . S
H2027 C2014 0.961 . S
H2028 C2014 0.961 . S
H2029 C2015 0.958 . S
H2030 C2015 0.961 . S
H2031 C2015 0.960 . S
C2032 C2033 1.391 . S
C2032 C2034 1.394 . S
C2032 H2048 0.931 . S
C2033 C2032 1.391 . S
C2033 C2037 1.376 . S
C2034 C2032 1.394 . S
C2034 C2035 1.369 . S
C2034 C2038 1.531 . S
C2035 C2034 1.369 . S
C2035 C2036 1.410 . S
C2035 C2043 1.503 . S
C2036 C2035 1.410 . S
C2036 C2037 1.392 . S
C2036 C2039 1.511 . S
C2037 C2033 1.376 . S
C2037 C2036 1.392 . S
C2037 H2049 0.929 . S
C2038 C2034 1.531 . S
C2038 H2050 0.960 . S
C2038 H2051 0.962 . S
C2038 H2052 0.960 . S
C2039 C2036 1.511 . S
C2039 H2053 0.961 . S
C2039 H2054 0.961 . S
C2039 H2055 0.961 . S
C2040 C2041 1.370 . S
C2040 C2042 1.363 . S
C2040 H2056 0.931 . S
C2041 C2040 1.370 . S
C2041 C2045 1.408 . S
C2042 C2040 1.363 . S
C2042 C2043 1.370 . S
C2042 C2046 1.524 . S
C2043 C2035 1.503 . S
C2043 C2042 1.370 . S
C2043 C2044 1.403 . S
C2044 C2043 1.403 . S
C2044 C2045 1.404 . S
C2044 C2047 1.539 . S
C2045 C2041 1.408 . S
C2045 C2044 1.404 . S
C2045 H2057 0.930 . S
C2046 C2042 1.524 . S
C2046 H2058 0.956 . S
C2046 H2059 0.961 . S
C2046 H2060 0.961 . S
C2047 C2044 1.539 . S
C2047 H2061 0.958 . S
C2047 H2062 0.961 . S
C2047 H2063 0.960 . S
H2048 C2032 0.931 . S
H2049 C2037 0.929 . S
H2050 C2038 0.960 . S
H2051 C2038 0.962 . S
H2052 C2038 0.960 . S
H2053 C2039 0.961 . S
H2054 C2039 0.961 . S
H2055 C2039 0.961 . S
H2056 C2040 0.931 . S
H2057 C2045 0.930 . S
H2058 C2046 0.956 . S
H2059 C2046 0.961 . S
H2060 C2046 0.961 . S
H2061 C2047 0.958 . S
H2062 C2047 0.961 . S
H2063 C2047 0.960 . S
C2064 C2065 1.391 . S
C2064 C2066 1.394 . S
C2064 H2080 0.931 . S
C2065 C2064 1.391 . S
C2065 C2069 1.376 . S
C2066 C2064 1.394 . S
C2066 C2067 1.369 . S
C2066 C2070 1.531 . S
C2067 C2066 1.369 . S
C2067 C2068 1.410 . S
C2067 C2075 1.503 . S
C2068 C2067 1.410 . S
C2068 C2069 1.392 . S
C2068 C2071 1.511 . S
C2069 C2065 1.376 . S
C2069 C2068 1.392 . S
C2069 H2081 0.929 . S
C2070 C2066 1.531 . S
C2070 H2082 0.960 . S
C2070 H2083 0.962 . S
C2070 H2084 0.960 . S
C2071 C2068 1.511 . S
C2071 H2085 0.961 . S
C2071 H2086 0.961 . S
C2071 H2087 0.961 . S
C2072 C2073 1.370 . S
C2072 C2074 1.363 . S
C2072 H2088 0.931 . S
C2073 C2072 1.370 . S
C2073 C2077 1.408 . S
C2074 C2072 1.363 . S
C2074 C2075 1.370 . S
C2074 C2078 1.524 . S
C2075 C2067 1.503 . S
C2075 C2074 1.370 . S
C2075 C2076 1.403 . S
C2076 C2075 1.403 . S
C2076 C2077 1.404 . S
C2076 C2079 1.539 . S
C2077 C2073 1.408 . S
C2077 C2076 1.404 . S
C2077 H2089 0.930 . S
C2078 C2074 1.524 . S
C2078 H2090 0.956 . S
C2078 H2091 0.961 . S
C2078 H2092 0.961 . S
C2079 C2076 1.539 . S
C2079 H2093 0.958 . S
C2079 H2094 0.961 . S
C2079 H2095 0.960 . S
H2080 C2064 0.931 . S
H2081 C2069 0.929 . S
H2082 C2070 0.960 . S
H2083 C2070 0.962 . S
H2084 C2070 0.960 . S
H2085 C2071 0.961 . S
H2086 C2071 0.961 . S
H2087 C2071 0.961 . S
H2088 C2072 0.931 . S
H2089 C2077 0.930 . S
H2090 C2078 0.956 . S
H2091 C2078 0.961 . S
H2092 C2078 0.961 . S
H2093 C2079 0.958 . S
H2094 C2079 0.961 . S
H2095 C2079 0.960 . S
C2096 C2097 1.391 . S
C2096 C2098 1.394 . S
C2096 H2112 0.931 . S
C2097 C2096 1.391 . S
C2097 C2101 1.376 . S
C2098 C2096 1.394 . S
C2098 C2099 1.369 . S
C2098 C2102 1.531 . S
C2099 C2098 1.369 . S
C2099 C2100 1.410 . S
C2099 C2107 1.503 . S
C2100 C2099 1.410 . S
C2100 C2101 1.392 . S
C2100 C2103 1.511 . S
C2101 C2097 1.376 . S
C2101 C2100 1.392 . S
C2101 H2113 0.929 . S
C2102 C2098 1.531 . S
C2102 H2114 0.960 . S
C2102 H2115 0.962 . S
C2102 H2116 0.960 . S
C2103 C2100 1.511 . S
C2103 H2117 0.961 . S
C2103 H2118 0.961 . S
C2103 H2119 0.961 . S
C2104 C2105 1.370 . S
C2104 C2106 1.363 . S
C2104 H2120 0.931 . S
C2105 C2104 1.370 . S
C2105 C2109 1.408 . S
C2106 C2104 1.363 . S
C2106 C2107 1.370 . S
C2106 C2110 1.524 . S
C2107 C2099 1.503 . S
C2107 C2106 1.370 . S
C2107 C2108 1.403 . S
C2108 C2107 1.403 . S
C2108 C2109 1.404 . S
C2108 C2111 1.539 . S
C2109 C2105 1.408 . S
C2109 C2108 1.404 . S
C2109 H2121 0.930 . S
C2110 C2106 1.524 . S
C2110 H2122 0.956 . S
C2110 H2123 0.961 . S
C2110 H2124 0.961 . S
C2111 C2108 1.539 . S
C2111 H2125 0.958 . S
C2111 H2126 0.961 . S
C2111 H2127 0.960 . S
H2112 C2096 0.931 . S
H2113 C2101 0.929 . S
H2114 C2102 0.960 . S
H2115 C2102 0.962 . S
H2116 C2102 0.960 . S
H2117 C2103 0.961 . S
H2118 C2103 0.961 . S
H2119 C2103 0.961 . S
H2120 C2104 0.931 . S
H2121 C2109 0.930 . S
H2122 C2110 0.956 . S
H2123 C2110 0.961 . S
H2124 C2110 0.961 . S
H2125 C2111 0.958 . S
H2126 C2111 0.961 . S
H2127 C2111 0.960 . S
C2128 C2129 1.391 . S
C2128 C2130 1.394 . S
C2128 H2144 0.931 . S
C2129 C2128 1.391 . S
C2129 C2133 1.376 . S
C2130 C2128 1.394 . S
C2130 C2131 1.369 . S
C2130 C2134 1.531 . S
C2131 C2130 1.369 . S
C2131 C2132 1.410 . S
C2131 C2139 1.503 . S
C2132 C2131 1.410 . S
C2132 C2133 1.392 . S
C2132 C2135 1.511 . S
C2133 C2129 1.376 . S
C2133 C2132 1.392 . S
C2133 H2145 0.929 . S
C2134 C2130 1.531 . S
C2134 H2146 0.960 . S
C2134 H2147 0.962 . S
C2134 H2148 0.960 . S
C2135 C2132 1.511 . S
C2135 H2149 0.961 . S
C2135 H2150 0.961 . S
C2135 H2151 0.961 . S
C2136 C2137 1.370 . S
C2136 C2138 1.363 . S
C2136 H2152 0.931 . S
C2137 C2136 1.370 . S
C2137 C2141 1.408 . S
C2138 C2136 1.363 . S
C2138 C2139 1.370 . S
C2138 C2142 1.524 . S
C2139 C2131 1.503 . S
C2139 C2138 1.370 . S
C2139 C2140 1.403 . S
C2140 C2139 1.403 . S
C2140 C2141 1.404 . S
C2140 C2143 1.539 . S
C2141 C2137 1.408 . S
C2141 C2140 1.404 . S
C2141 H2153 0.930 . S
C2142 C2138 1.524 . S
C2142 H2154 0.956 . S
C2142 H2155 0.961 . S
C2142 H2156 0.961 . S
C2143 C2140 1.539 . S
C2143 H2157 0.958 . S
C2143 H2158 0.961 . S
C2143 H2159 0.960 . S
H2144 C2128 0.931 . S
H2145 C2133 0.929 . S
H2146 C2134 0.960 . S
H2147 C2134 0.962 . S
H2148 C2134 0.960 . S
H2149 C2135 0.961 . S
H2150 C2135 0.961 . S
H2151 C2135 0.961 . S
H2152 C2136 0.931 . S
H2153 C2141 0.930 . S
H2154 C2142 0.956 . S
H2155 C2142 0.961 . S
H2156 C2142 0.961 . S
H2157 C2143 0.958 . S
H2158 C2143 0.961 . S
H2159 C2143 0.960 . S
C2160 C2161 1.391 . S
C2160 C2162 1.394 . S
C2160 H2176 0.931 . S
C2161 C2160 1.391 . S
C2161 C2165 1.376 . S
C2162 C2160 1.394 . S
C2162 C2163 1.369 . S
C2162 C2166 1.531 . S
C2163 C2162 1.369 . S
C2163 C2164 1.410 . S
C2163 C2171 1.503 . S
C2164 C2163 1.410 . S
C2164 C2165 1.392 . S
C2164 C2167 1.511 . S
C2165 C2161 1.376 . S
C2165 C2164 1.392 . S
C2165 H2177 0.929 . S
C2166 C2162 1.531 . S
C2166 H2178 0.960 . S
C2166 H2179 0.962 . S
C2166 H2180 0.960 . S
C2167 C2164 1.511 . S
C2167 H2181 0.961 . S
C2167 H2182 0.961 . S
C2167 H2183 0.961 . S
C2168 C2169 1.370 . S
C2168 C2170 1.363 . S
C2168 H2184 0.931 . S
C2169 C2168 1.370 . S
C2169 C2173 1.408 . S
C2170 C2168 1.363 . S
C2170 C2171 1.370 . S
C2170 C2174 1.524 . S
C2171 C2163 1.503 . S
C2171 C2170 1.370 . S
C2171 C2172 1.403 . S
C2172 C2171 1.403 . S
C2172 C2173 1.404 . S
C2172 C2175 1.539 . S
C2173 C2169 1.408 . S
C2173 C2172 1.404 . S
C2173 H2185 0.930 . S
C2174 C2170 1.524 . S
C2174 H2186 0.956 . S
C2174 H2187 0.961 . S
C2174 H2188 0.961 . S
C2175 C2172 1.539 . S
C2175 H2189 0.958 . S
C2175 H2190 0.961 . S
C2175 H2191 0.960 . S
H2176 C2160 0.931 . S
H2177 C2165 0.929 . S
H2178 C2166 0.960 . S
H2179 C2166 0.962 . S
H2180 C2166 0.960 . S
H2181 C2167 0.961 . S
H2182 C2167 0.961 . S
H2183 C2167 0.961 . S
H2184 C2168 0.931 . S
H2185 C2173 0.930 . S
H2186 C2174 0.956 . S
H2187 C2174 0.961 . S
H2188 C2174 0.961 . S
H2189 C2175 0.958 . S
H2190 C2175 0.961 . S
H2191 C2175 0.960 . S
C2192 C2193 1.391 . S
C2192 C2194 1.394 . S
C2192 H2208 0.931 . S
C2193 C2192 1.391 . S
C2193 C2197 1.376 . S
C2194 C2192 1.394 . S
C2194 C2195 1.369 . S
C2194 C2198 1.531 . S
C2195 C2194 1.369 . S
C2195 C2196 1.410 . S
C2195 C2203 1.503 . S
C2196 C2195 1.410 . S
C2196 C2197 1.392 . S
C2196 C2199 1.511 . S
C2197 C2193 1.376 . S
C2197 C2196 1.392 . S
C2197 H2209 0.929 . S
C2198 C2194 1.531 . S
C2198 H2210 0.960 . S
C2198 H2211 0.962 . S
C2198 H2212 0.960 . S
C2199 C2196 1.511 . S
C2199 H2213 0.961 . S
C2199 H2214 0.961 . S
C2199 H2215 0.961 . S
C2200 C2201 1.370 . S
C2200 C2202 1.363 . S
C2200 H2216 0.931 . S
C2201 C2200 1.370 . S
C2201 C2205 1.408 . S
C2202 C2200 1.363 . S
C2202 C2203 1.370 . S
C2202 C2206 1.524 . S
C2203 C2195 1.503 . S
C2203 C2202 1.370 . S
C2203 C2204 1.403 . S
C2204 C2203 1.403 . S
C2204 C2205 1.404 . S
C2204 C2207 1.539 . S
C2205 C2201 1.408 . S
C2205 C2204 1.404 . S
C2205 H2217 0.930 . S
C2206 C2202 1.524 . S
C2206 H2218 0.956 . S
C2206 H2219 0.961 . S
C2206 H2220 0.961 . S
C2207 C2204 1.539 . S
C2207 H2221 0.958 . S
C2207 H2222 0.961 . S
C2207 H2223 0.960 . S
H2208 C2192 0.931 . S
H2209 C2197 0.929 . S
H2210 C2198 0.960 . S
H2211 C2198 0.962 . S
H2212 C2198 0.960 . S
H2213 C2199 0.961 . S
H2214 C2199 0.961 . S
H2215 C2199 0.961 . S
H2216 C2200 0.931 . S
H2217 C2205 0.930 . S
H2218 C2206 0.956 . S
H2219 C2206 0.961 . S
H2220 C2206 0.961 . S
H2221 C2207 0.958 . S
H2222 C2207 0.961 . S
H2223 C2207 0.960 . S
C2224 C2225 1.391 . S
C2224 C2226 1.394 . S
C2224 H2240 0.931 . S
C2225 C2224 1.391 . S
C2225 C2229 1.376 . S
C2226 C2224 1.394 . S
C2226 C2227 1.369 . S
C2226 C2230 1.531 . S
C2227 C2226 1.369 . S
C2227 C2228 1.410 . S
C2227 C2235 1.503 . S
C2228 C2227 1.410 . S
C2228 C2229 1.392 . S
C2228 C2231 1.511 . S
C2229 C2225 1.376 . S
C2229 C2228 1.392 . S
C2229 H2241 0.929 . S
C2230 C2226 1.531 . S
C2230 H2242 0.960 . S
C2230 H2243 0.962 . S
C2230 H2244 0.960 . S
C2231 C2228 1.511 . S
C2231 H2245 0.961 . S
C2231 H2246 0.961 . S
C2231 H2247 0.961 . S
C2232 C2233 1.370 . S
C2232 C2234 1.363 . S
C2232 H2248 0.931 . S
C2233 C2232 1.370 . S
C2233 C2237 1.408 . S
C2234 C2232 1.363 . S
C2234 C2235 1.370 . S
C2234 C2238 1.524 . S
C2235 C2227 1.503 . S
C2235 C2234 1.370 . S
C2235 C2236 1.403 . S
C2236 C2235 1.403 . S
C2236 C2237 1.404 . S
C2236 C2239 1.539 . S
C2237 C2233 1.408 . S
C2237 C2236 1.404 . S
C2237 H2249 0.930 . S
C2238 C2234 1.524 . S
C2238 H2250 0.956 . S
C2238 H2251 0.961 . S
C2238 H2252 0.961 . S
C2239 C2236 1.539 . S
C2239 H2253 0.958 . S
C2239 H2254 0.961 . S
C2239 H2255 0.960 . S
H2240 C2224 0.931 . S
H2241 C2229 0.929 . S
H2242 C2230 0.960 . S
H2243 C2230 0.962 . S
H2244 C2230 0.960 . S
H2245 C2231 0.961 . S
H2246 C2231 0.961 . S
H2247 C2231 0.961 . S
H2248 C2232 0.931 . S
H2249 C2237 0.930 . S
H2250 C2238 0.956 . S
H2251 C2238 0.961 . S
H2252 C2238 0.961 . S
H2253 C2239 0.958 . S
H2254 C2239 0.961 . S
H2255 C2239 0.960 . S
C465 C137 1.471 . S
C473 C21 1.526 . S
C497 C50 1.507 . S
C505 C166 1.511 . S
C529 C195 1.506 . S
C537 C79 1.511 . S
C561 C224 1.539 . S
C569 C108 1.497 . S
C593 C311 1.460 . S
C601 C253 1.532 . S
C625 C282 1.558 . S
C633 C340 1.491 . S
C657 C427 1.499 . S
C665 C369 1.514 . S
C689 C398 1.550 . S
C697 C456 1.495 . S
C721 C100 1.902 . S
C729 C5 1.945 . S
C753 C13 1.902 1_565 S
C761 C34 1.946 . S
C785 C42 1.908 . S
C793 C63 1.941 . S
C817 C92 1.943 . S
C825 C71 1.920 1_545 S
C849 C158 1.908 . S
C857 C121 1.941 . S
C881 C187 1.925 1_565 S
C889 C150 1.937 . S
C913 C216 1.904 . S
C921 C179 1.943 . S
C945 C129 1.948 1_545 S
C953 C208 1.947 . S
C977 C124 1.233 . S
C985 C276 1.287 . S
C1009 C240 1.149 . S
C1017 C131 1.279 . S
C1041 C182 1.141 . S
C1049 C247 1.276 . S
C1073 C269 1.252 . S
C1081 C189 1.274 . S
C1105 C305 1.247 . S
C1113 C8 1.210 . S
C1137 C73 1.315 . S
C1145 C298 1.201 . S
C1169 C334 1.228 . S
C1177 C66 1.200 . S
C1201 C15 1.223 . S
C1209 C327 1.168 . S
C1233 C332 1.909 . S
C1241 C353 1.953 . S
C1265 C361 1.942 . S
C1273 C295 1.951 . S
C1297 C382 1.921 . S
C1305 C303 1.935 . S
C1329 C324 1.957 . S
C1337 C390 1.935 . S
C1361 C411 1.943 . S
C1369 C245 1.920 . S
C1393 C448 1.902 . S
C1401 C237 1.949 . S
C1425 C274 1.907 . S
C1433 C440 1.941 . S
C1457 C419 1.901 . S
C1465 C266 1.948 . S
C1489 C218 1.306 . S
C1497 C414 1.213 . S
C1521 C421 1.234 . S
C1529 C153 1.164 . S
C1553 C443 1.164 . S
C1561 C160 1.247 . S
C1585 C211 1.128 . S
C1593 C450 1.270 . S
C1617 C44 1.286 . S
C1625 C356 1.217 . S
C1649 C37 1.139 . S
C1657 C392 1.275 . S
C1681 C385 1.251 . S
C1689 C102 1.278 . S
C1713 C363 1.237 . S
C1721 C95 1.164 . S
C1745 C148 0.740 . S
C1753 C3 0.713 . S
C1777 C177 0.676 . S
C1785 C32 0.704 . S
C1809 C206 0.666 . S
C1817 C61 0.710 . S
C1841 C90 0.762 . S
C1849 C119 0.738 . S
C1873 C126 3.054 1_545 S
C1881 C300 3.070 . S
C1905 C242 3.073 . S
C1913 C68 3.066 1_545 S
C1937 C329 3.049 . S
C1945 C184 3.078 1_565 S
C1969 C10 3.087 1_565 S
C1977 C271 3.070 . S
C2001 C351 0.768 . S
C2009 C235 0.731 . S
C2033 C293 0.753 . S
C2041 C438 0.715 . S
C2065 C380 0.690 . S
C2073 C264 0.688 . S
C2097 C409 0.726 . S
C2105 C322 0.701 . S
C2129 C39 3.064 . S
C2137 C416 3.067 . S
C2161 C387 3.064 . S
C2169 C155 3.083 . S
C2193 C97 3.082 . S
C2201 C445 3.068 . S
C2225 C213 3.050 . S
C2233 C358 3.073 . S
