# Generated by pormake.
# Topology smm, (6)-cn, num edge types: 1
# Building blocks:
#     Node 0, Type 0, BuildingBlock: BETDEL_clean_sbu_0, # of connection points: 6
#     Node 1, Type 0, BuildingBlock: BETDEL_clean_sbu_0, # of connection points: 6
#     Node 2, Type 0, BuildingBlock: BETDEL_clean_sbu_0, # of connection points: 6
#     Node 3, Type 0, BuildingBlock: BETDEL_clean_sbu_0, # of connection points: 6
#     Node 4, Type 0, BuildingBlock: BETDEL_clean_sbu_0, # of connection points: 6
#     Node 5, Type 0, BuildingBlock: BETDEL_clean_sbu_0, # of connection points: 6
#     Node 6, Type 0, BuildingBlock: BETDEL_clean_sbu_0, # of connection points: 6
#     Node 7, Type 0, BuildingBlock: BETDEL_clean_sbu_0, # of connection points: 6
#     Node 8, Type 0, BuildingBlock: BETDEL_clean_sbu_0, # of connection points: 6
#     Edge 9, Type (0, 0), BuildingBlock: AJUNOK_clean_linker_0, # of connection points: 2
#     Edge 10, Type (0, 0), BuildingBlock: AJUNOK_clean_linker_0, # of connection points: 2
#     Edge 11, Type (0, 0), BuildingBlock: AJUNOK_clean_linker_0, # of connection points: 2
#     Edge 12, Type (0, 0), BuildingBlock: AJUNOK_clean_linker_0, # of connection points: 2
#     Edge 13, Type (0, 0), BuildingBlock: AJUNOK_clean_linker_0, # of connection points: 2
#     Edge 14, Type (0, 0), BuildingBlock: AJUNOK_clean_linker_0, # of connection points: 2
#     Edge 15, Type (0, 0), BuildingBlock: AJUNOK_clean_linker_0, # of connection points: 2
#     Edge 16, Type (0, 0), BuildingBlock: AJUNOK_clean_linker_0, # of connection points: 2
#     Edge 17, Type (0, 0), BuildingBlock: AJUNOK_clean_linker_0, # of connection points: 2
#     Edge 18, Type (0, 0), BuildingBlock: AJUNOK_clean_linker_0, # of connection points: 2
#     Edge 19, Type (0, 0), BuildingBlock: AJUNOK_clean_linker_0, # of connection points: 2
#     Edge 20, Type (0, 0), BuildingBlock: AJUNOK_clean_linker_0, # of connection points: 2
#     Edge 21, Type (0, 0), BuildingBlock: AJUNOK_clean_linker_0, # of connection points: 2
#     Edge 22, Type (0, 0), BuildingBlock: AJUNOK_clean_linker_0, # of connection points: 2
#     Edge 23, Type (0, 0), BuildingBlock: AJUNOK_clean_linker_0, # of connection points: 2
#     Edge 24, Type (0, 0), BuildingBlock: AJUNOK_clean_linker_0, # of connection points: 2
#     Edge 25, Type (0, 0), BuildingBlock: AJUNOK_clean_linker_0, # of connection points: 2
#     Edge 26, Type (0, 0), BuildingBlock: AJUNOK_clean_linker_0, # of connection points: 2
#     Edge 27, Type (0, 0), BuildingBlock: AJUNOK_clean_linker_0, # of connection points: 2
#     Edge 28, Type (0, 0), BuildingBlock: AJUNOK_clean_linker_0, # of connection points: 2
#     Edge 29, Type (0, 0), BuildingBlock: AJUNOK_clean_linker_0, # of connection points: 2
#     Edge 30, Type (0, 0), BuildingBlock: AJUNOK_clean_linker_0, # of connection points: 2
#     Edge 31, Type (0, 0), BuildingBlock: AJUNOK_clean_linker_0, # of connection points: 2
#     Edge 32, Type (0, 0), BuildingBlock: AJUNOK_clean_linker_0, # of connection points: 2
#     Edge 33, Type (0, 0), BuildingBlock: AJUNOK_clean_linker_0, # of connection points: 2
#     Edge 34, Type (0, 0), BuildingBlock: AJUNOK_clean_linker_0, # of connection points: 2
#     Edge 35, Type (0, 0), BuildingBlock: AJUNOK_clean_linker_0, # of connection points: 2
# Relax obj value: 0.060
# Max RMSD: 0.134
# Mean RMSD: 0.134
data_MOF--net-smm--node1-BETDEL_clean_sbu_0--edge1-AJUNOK_clean_linker_0
_symmetry_space_group_name_H-M    P1
_symmetry_Int_Tables_number       1
_symmetry_cell_setting            triclinic
loop_
_symmetry_equiv_pos_as_xyz
'x, y, z'
_cell_length_a     43.006738
_cell_length_b     42.922947
_cell_length_c     10.366171
_cell_angle_alpha  90.15594
_cell_angle_beta   89.82513
_cell_angle_gamma 120.04944
loop_
_atom_site_label
_atom_site_type_symbol
_atom_site_fract_x
_atom_site_fract_y
_atom_site_fract_z
_atom_type_partial_charge
Dy0 Dy 0.06253 0.22904 -0.01219 0.0
C1 C 0.95396 0.08105 0.06782 0.0
C2 C 0.10505 0.29538 0.87975 0.0
Dy3 Dy 1.00061 0.15275 0.0231 0.0
O4 O 0.11156 0.28449 -0.01208 0.0
O5 O 0.07538 0.26993 0.83072 0.0
O6 O 0.08195 0.23218 0.18984 0.0
O7 O 1.02692 0.19977 0.14911 0.0
C8 C 0.05076 0.20802 0.23418 0.0
C9 C 1.01649 0.17567 0.77726 0.0
O10 O 0.97228 0.18229 0.08383 0.0
O11 O 1.01373 0.23624 -0.01056 0.0
O12 O 0.94864 0.10113 -0.01183 0.0
O13 O 0.98423 0.10066 0.12743 0.0
O14 O 0.98422 0.15452 0.81846 0.0
O15 O 0.03842 0.18158 0.86646 0.0
O16 O 0.09294 0.19951 0.96783 0.0
O17 O 0.04878 0.14659 0.06048 0.0
C18 C 0.98173 0.21515 0.04274 0.0
C19 C 0.08235 0.16765 0.02104 0.0
Dy20 Dy 0.82956 0.84415 0.97618 0.0
C21 C 0.97864 0.88669 0.04963 0.0
C22 C 0.75992 0.81808 0.8978 0.0
Dy23 Dy 0.90713 0.86039 0.00038 0.0
O24 O 0.76987 0.80879 0.00189 0.0
O25 O 0.78818 0.84237 0.83721 0.0
O26 O 0.82924 0.86251 0.17774 0.0
O27 O 0.86153 0.84001 0.13216 0.0
C28 C 0.85425 0.8563 0.21796 0.0
C29 C 0.88139 0.84836 0.7586 0.0
O30 O 0.87778 0.80276 0.06118 0.0
O31 O 0.82643 0.79034 0.94955 0.0
O32 O 0.95993 0.86266 0.96325 0.0
O33 O 0.95783 0.8953 0.11239 0.0
O34 O 0.90589 0.84155 0.79764 0.0
O35 O 0.87523 0.86518 0.84532 0.0
O36 O 0.85632 0.90433 0.97351 0.0
O37 O 0.91305 0.91484 0.0307 0.0
C38 C 0.84618 0.77929 0.0113 0.0
C39 C 0.89 0.92626 0.00986 0.0
Dy40 Dy 0.21426 0.99676 0.97792 0.0
C41 C 0.17488 0.10528 0.06274 0.0
C42 C 0.23764 0.9533 0.87367 0.0
Dy43 Dy 0.20063 0.05938 0.01409 0.0
O44 O 0.22046 0.94758 0.98232 0.0
O45 O 0.24177 0.98265 0.82181 0.0
O46 O 0.19829 0.97824 0.18252 0.0
O47 O 0.22124 0.03298 0.13731 0.0
C48 C 0.20577 1.00982 0.22452 0.0
C49 C 0.20801 0.04432 0.76795 0.0
O50 O 0.25876 0.08785 0.06933 0.0
O51 O 0.27052 0.04551 0.97742 0.0
O52 O 0.19986 0.11082 0.98036 0.0
O53 O 0.16514 0.07529 0.12322 0.0
O54 O 0.21873 0.07634 0.81137 0.0
O55 O 0.1917 0.02163 0.8557 0.0
O56 O 0.15423 0.96652 0.95961 0.0
O57 O 0.1465 1.01133 0.05288 0.0
C58 C 0.2818 0.0779 0.02865 0.0
C59 C 0.13357 0.97758 0.01498 0.0
Dy60 Dy 0.73205 0.56633 0.31164 0.0
C61 C 0.63216 0.4159 0.36587 0.0
C62 C 0.77298 0.63183 0.19613 0.0
Dy63 Dy 0.67109 0.4892 0.34458 0.0
O64 O 0.78066 0.62217 0.30488 0.0
O65 O 0.74316 0.60565 0.15122 0.0
O66 O 0.75033 0.57064 0.51722 0.0
O67 O 0.69614 0.53643 0.46977 0.0
C68 C 0.71906 0.54565 0.55853 0.0
C69 C 0.68454 0.51374 0.10157 0.0
O70 O 0.63851 0.51573 0.38459 0.0
O71 O 0.68265 0.57247 0.31524 0.0
O72 O 0.66152 0.43428 0.30087 0.0
O73 O 0.62367 0.43774 0.42323 0.0
O74 O 0.65266 0.49225 0.14602 0.0
O75 O 0.70761 0.51954 0.18679 0.0
O76 O 0.76191 0.53611 0.29555 0.0
O77 O 0.71987 0.48827 0.41564 0.0
C78 C 0.64923 0.54972 0.35425 0.0
C79 C 0.75237 0.50659 0.364 0.0
Dy80 Dy 0.49585 0.17929 0.31507 0.0
C81 C 0.64287 0.21503 0.39351 0.0
C82 C 0.43001 0.15524 0.2036 0.0
Dy83 Dy 0.57156 0.19087 0.34736 0.0
O84 O 0.43948 0.17063 0.31623 0.0
O85 O 0.4567 0.15363 0.15211 0.0
O86 O 0.49429 0.19587 0.51964 0.0
O87 O 0.52481 0.17162 0.4724 0.0
C88 C 0.51786 0.18758 0.56032 0.0
C89 C 0.54812 0.18277 0.10348 0.0
O90 O 0.54085 0.13256 0.40064 0.0
O91 O 0.48658 0.1224 0.31707 0.0
O92 O 0.62351 0.19206 0.30526 0.0
O93 O 0.62267 0.22355 0.46107 0.0
O94 O 0.56873 0.1712 0.14602 0.0
O95 O 0.54293 0.2001 0.19094 0.0
O96 O 0.52602 0.23944 0.29968 0.0
O97 O 0.58025 0.24655 0.37372 0.0
C98 C 0.5073 0.11026 0.36388 0.0
C99 C 0.55937 0.25987 0.34206 0.0
Dy100 Dy 0.87924 0.3284 0.3227 0.0
C101 C 0.83867 0.43704 0.39554 0.0
C102 C 0.90475 0.28678 0.21748 0.0
Dy103 Dy 0.86388 0.39044 0.35047 0.0
O104 O 0.88796 0.28052 0.32733 0.0
O105 O 0.90716 0.31539 0.16625 0.0
O106 O 0.86256 0.30965 0.52552 0.0
O107 O 0.88336 0.36424 0.48064 0.0
C108 C 0.86725 0.34044 0.56574 0.0
C109 C 0.87445 0.37535 0.10745 0.0
O110 O 0.92143 0.41889 0.41532 0.0
O111 O 0.93499 0.3774 0.32742 0.0
O112 O 0.86502 0.44303 0.3192 0.0
O113 O 0.8269 0.406 0.45078 0.0
O114 O 0.88252 0.40711 0.14665 0.0
O115 O 0.85757 0.3529 0.19515 0.0
O116 O 0.81937 0.29725 0.30001 0.0
O117 O 0.80952 0.34183 0.38362 0.0
C118 C 0.94528 0.40945 0.37943 0.0
C119 C 0.79763 0.30799 0.34817 0.0
Dy120 Dy 0.39427 0.89502 0.64476 0.0
C121 C 0.28702 0.74641 0.72806 0.0
C122 C 0.43466 0.96144 0.53505 0.0
Dy123 Dy 0.3333 0.81797 0.6803 0.0
O124 O 0.44266 0.95103 0.64146 0.0
O125 O 0.40487 0.93546 0.48896 0.0
O126 O 0.41343 0.89808 0.84882 0.0
O127 O 0.35892 0.86498 0.80459 0.0
C128 C 0.38225 0.8732 0.8911 0.0
C129 C 0.34753 0.84073 0.43423 0.0
O130 O 0.30415 0.84693 0.73918 0.0
O131 O 0.34508 0.90152 0.64774 0.0
O132 O 0.28137 0.76621 0.64824 0.0
O133 O 0.31755 0.76618 0.78594 0.0
O134 O 0.3158 0.81859 0.4777 0.0
O135 O 0.37026 0.84762 0.5217 0.0
O136 O 0.425 0.86605 0.61666 0.0
O137 O 0.38236 0.8129 0.7135 0.0
C138 C 0.31318 0.87991 0.70079 0.0
C139 C 0.41535 0.83432 0.66935 0.0
Dy140 Dy 0.1617 0.50978 0.6468 0.0
C141 C 0.31077 0.55539 0.7263 0.0
C142 C 0.09443 0.48543 0.54686 0.0
Dy143 Dy 0.23861 0.52546 0.67943 0.0
O144 O 0.10622 0.50305 0.65446 0.0
O145 O 0.11952 0.48129 0.49375 0.0
O146 O 0.15908 0.52608 0.85095 0.0
O147 O 0.1919 0.50439 0.8052 0.0
C148 C 0.18389 0.51972 0.89215 0.0
C149 C 0.21583 0.51724 0.43415 0.0
O150 O 0.21016 0.46757 0.73859 0.0
O151 O 0.15536 0.45391 0.64958 0.0
O152 O 0.28981 0.56575 0.7769 0.0
O153 O 0.29174 0.52707 0.65583 0.0
O154 O 0.23804 0.50771 0.47647 0.0
O155 O 0.20889 0.53308 0.52227 0.0
O156 O 0.19058 0.5699 0.62697 0.0
O157 O 0.24322 0.57885 0.72071 0.0
C158 C 0.17711 0.44363 0.70136 0.0
C159 C 0.22218 0.59125 0.68157 0.0
Dy160 Dy 0.54579 0.66194 0.63015 0.0
C161 C 0.50989 0.77397 0.68917 0.0
C162 C 0.56996 0.61985 0.51904 0.0
Dy163 Dy 0.53552 0.72727 0.65862 0.0
O164 O 0.5528 0.61306 0.6284 0.0
O165 O 0.5733 0.64924 0.47054 0.0
O166 O 0.52777 0.64369 0.83296 0.0
O167 O 0.55286 0.69867 0.78642 0.0
C168 C 0.53628 0.67577 0.87362 0.0
C169 C 0.54534 0.71117 0.41776 0.0
O170 O 0.59339 0.75558 0.71428 0.0
O171 O 0.60311 0.70906 0.65021 0.0
O172 O 0.52767 0.7725 0.59065 0.0
O173 O 0.50756 0.75088 0.77529 0.0
O174 O 0.55839 0.74363 0.46106 0.0
O175 O 0.52657 0.68887 0.50361 0.0
O176 O 0.48556 0.63318 0.61243 0.0
O177 O 0.48031 0.68081 0.69236 0.0
C178 C 0.61521 0.7428 0.68996 0.0
C179 C 0.46578 0.64662 0.65825 0.0
C180 C 0.11186 0.343 0.72526 0.0
C181 C 0.12605 0.33226 0.8267 0.0
C182 C 0.12928 0.37877 0.68196 0.0
C183 C 0.16182 0.40514 0.73729 0.0
H184 H 0.08645 0.32391 0.68168 0.0
H185 H 0.11666 0.38592 0.60638 0.0
S186 S 0.21152 0.38996 -0.00042 0.0
N187 N 0.17543 0.3502 0.97678 0.0
N188 N 0.2085 0.41722 0.89487 0.0
C189 C 0.17712 0.39427 0.83497 0.0
C190 C 0.15914 0.3579 0.87988 0.0
C191 C 0.71495 0.80958 0.72688 0.0
C192 C 0.72252 0.80044 0.84877 0.0
C193 C 0.68007 0.79099 0.67464 0.0
C194 C 0.65184 0.76268 0.74272 0.0
H195 H 0.73618 0.83088 0.67067 0.0
H196 H 0.67525 0.79851 0.58029 0.0
S197 S 0.65634 0.73038 0.06917 0.0
N198 N 0.69789 0.76258 0.03889 0.0
N199 N 0.63281 0.72778 0.93999 0.0
C200 C 0.65875 0.75397 0.86553 0.0
C201 C 0.69399 0.77286 0.91892 0.0
C202 C 0.27784 0.94522 0.71924 0.0
C203 C 0.25342 0.93191 0.82284 0.0
C204 C 0.29598 0.92746 0.67727 0.0
C205 C 0.29013 0.89541 0.73615 0.0
H206 H 0.28392 0.97022 0.67267 0.0
H207 H 0.31535 0.93944 0.5997 0.0
S208 S 0.22687 0.84813 0.00624 0.0
N209 N 0.22296 0.88392 0.97957 0.0
N210 N 0.25655 0.85023 0.90009 0.0
C211 C 0.26454 0.881 0.8364 0.0
C212 C 0.24637 0.89934 0.87998 0.0
C213 C 0.36655 0.14267 0.21073 0.0
C214 C 0.39332 0.13845 0.14862 0.0
C215 C 0.33084 0.12432 0.16728 0.0
C216 C 0.32045 0.10067 0.06103 0.0
H217 H 0.37302 0.15962 0.29546 0.0
H218 H 0.31101 0.1276 0.22094 0.0
S219 S 0.38091 0.08237 0.85877 0.0
N220 N 0.40748 0.11069 0.97016 0.0
N221 N 0.34041 0.07586 0.88991 0.0
C222 C 0.34724 0.0972 -0.00461 0.0
C223 C 0.38366 0.11619 0.03873 0.0
C224 C 0.91799 0.23619 0.22813 0.0
C225 C 0.92155 0.26662 0.16379 0.0
C226 C 0.93619 0.21859 0.18465 0.0
C227 C 0.95898 0.23103 0.076 0.0
H228 H 0.90168 0.22637 0.31451 0.0
H229 H 0.93351 0.19599 0.2399 0.0
S230 S 0.97497 0.30772 0.86673 0.0
N231 N 0.94758 0.30688 0.98035 0.0
N232 N 0.98205 0.27418 0.89999 0.0
C233 C 0.9617 0.26063 0.00814 0.0
C234 C 0.94292 0.27831 0.05162 0.0
C235 C 0.84339 0.73003 0.14867 0.0
C236 C 0.82985 0.74052 0.04409 0.0
C237 C 0.82539 0.69455 0.19495 0.0
C238 C 0.79332 0.66811 0.13782 0.0
H239 H 0.86729 0.74965 0.19913 0.0
H240 H 0.8362 0.68808 0.27831 0.0
S241 S 0.74839 0.68048 0.85332 0.0
N242 N 0.78364 0.72068 0.87886 0.0
N243 N 0.75006 0.65407 0.96522 0.0
C244 C 0.7804 0.6777 0.02927 0.0
C245 C 0.79859 0.71388 0.98259 0.0
C246 C 0.04584 0.44493 0.39458 0.0
C247 C 0.05713 0.46943 0.498 0.0
C248 C 1.0099 0.42668 0.35405 0.0
C249 C 0.98381 0.43249 0.41428 0.0
H250 H 0.06468 0.43891 0.34685 0.0
H251 H 1.0024 0.40732 0.27632 0.0
S252 S 1.0002 0.49586 0.68468 0.0
N253 N 0.03985 0.49992 0.65611 0.0
N254 N 0.97242 0.466 0.5795 0.0
C255 C 0.99511 0.4581 0.51452 0.0
C256 C 0.03171 0.47643 0.55656 0.0
C257 C 0.58175 0.56818 0.52581 0.0
C258 C 0.58687 0.59973 0.46525 0.0
C259 C 0.60044 0.55083 0.48448 0.0
C260 C 0.62534 0.56469 0.38213 0.0
H261 H 0.56391 0.55732 0.6081 0.0
H262 H 0.59659 0.5274 0.53717 0.0
S263 S 0.64598 0.64454 0.18328 0.0
N264 N 0.61658 0.64244 0.29082 0.0
N265 N 0.65197 0.61026 0.21495 0.0
C266 C 0.62952 0.59531 0.31735 0.0
C267 C 0.61022 0.61271 0.35837 0.0
C268 C 0.50485 0.06005 0.4945 0.0
C269 C 0.4906 0.07139 0.39481 0.0
C270 C 0.48705 0.02422 0.53717 0.0
C271 C 0.45457 0.99827 0.48082 0.0
H272 H 0.52921 0.07925 0.54372 0.0
H273 H 0.49845 1.01701 0.61684 0.0
S274 S 0.40771 1.01318 0.20831 0.0
N275 N 0.44321 0.05311 0.23524 0.0
N276 N 0.41006 0.98579 0.31428 0.0
C277 C 0.44087 1.00883 0.37721 0.0
C278 C 0.45879 0.04537 0.33457 0.0
C279 C 0.12221 0.1107 0.13286 0.0
C280 C 0.1546 0.12485 0.0636 0.0
C281 C 0.09947 0.12514 0.1197 0.0
C282 C 0.10824 0.15449 0.0372 0.0
H283 H 0.11365 0.08744 0.19445 0.0
H284 H 0.07452 0.11274 0.17365 0.0
S285 S 0.1913 0.20283 0.84023 0.0
N286 N 0.19528 0.17095 0.91402 0.0
N287 N 0.15271 0.19825 0.88971 0.0
C288 C 0.1413 0.16982 0.97118 0.0
C289 C 0.16442 0.15496 0.98426 0.0
C290 C 0.93344 0.98513 0.11098 0.0
C291 C 0.90312 0.96514 0.03198 0.0
C292 C 0.94835 0.0223 0.12815 0.0
C293 C 0.9338 0.04116 0.06623 0.0
H294 H 0.94625 0.97211 0.15885 0.0
H295 H 0.97235 0.03652 0.18646 0.0
S296 S 0.85311 1.00145 0.85638 0.0
N297 N 0.85781 0.96687 0.89739 0.0
N298 N 0.88612 0.0369 0.92854 0.0
C299 C 0.90265 0.02143 -0.00885 0.0
C300 C 0.88723 0.98339 0.97439 0.0
C301 C 0.03848 0.89966 0.96404 0.0
C302 C 1.01842 0.90674 0.05515 0.0
C303 C 0.07595 0.92187 0.95425 0.0
C304 C 0.09463 0.95213 0.03451 0.0
H305 H 1.02503 0.87757 0.89651 0.0
H306 H 0.09011 0.91608 0.87996 0.0
S307 S 0.05508 0.97966 0.29988 0.0
N308 N 1.02042 0.94414 0.23488 0.0
N309 N 0.09054 0.9858 0.217 0.0
C310 C 0.07503 0.95834 0.13048 0.0
C311 C 0.03701 0.93565 0.14075 0.0
C312 C 0.76752 0.46249 0.46208 0.0
C313 C 0.77741 0.49233 0.3807 0.0
C314 C 0.78847 0.44594 0.47108 0.0
C315 C 0.82023 0.45844 0.39908 0.0
H316 H 0.74282 0.45107 0.51737 0.0
H317 H 0.77898 0.42237 0.53178 0.0
S318 S 0.86 0.53729 0.17954 0.0
N319 N 0.82269 0.53502 0.23269 0.0
N320 N 0.86195 0.50383 0.24972 0.0
C321 C 0.83142 0.48918 0.32176 0.0
C322 C 0.81007 0.50613 0.31256 0.0
C323 C 0.62939 0.35815 0.31669 0.0
C324 C 0.61209 0.37608 0.36634 0.0
C325 C 0.61174 0.32067 0.30838 0.0
C326 C 0.5758 0.29942 0.34726 0.0
H327 H 0.65701 0.37318 0.28391 0.0
H328 H 0.62641 0.30823 0.27013 0.0
S329 S 0.51842 0.33271 0.48749 0.0
N330 N 0.55711 0.36968 0.4582 0.0
N331 N 0.5235 0.2987 0.44022 0.0
C332 C 0.55795 0.31676 0.39707 0.0
C333 C 0.57624 0.35523 0.40758 0.0
C334 C 0.70114 0.26717 0.46557 0.0
C335 C 0.68271 0.23518 0.39391 0.0
C336 C 0.73829 0.29007 0.45125 0.0
C337 C 0.75867 0.28182 0.36542 0.0
H338 H 0.68659 0.27537 0.52966 0.0
H339 H 0.751 0.31475 0.50702 0.0
S340 S 0.7235 0.19972 0.16234 0.0
N341 N 0.6878 0.1953 0.23904 0.0
N342 N 0.75767 0.23813 0.21303 0.0
C343 C 0.7408 0.24905 0.29745 0.0
C344 C 0.70283 0.22582 0.31143 0.0
C345 C 0.46438 0.78689 0.78907 0.0
C346 C 0.48904 0.79301 0.68934 0.0
C347 C 0.44094 0.80075 0.78248 0.0
C348 C 0.44162 0.82163 0.6768 0.0
H349 H 0.46236 0.77035 0.87098 0.0
H350 H 0.42195 0.79483 0.86042 0.0
S351 S 0.50073 0.84515 0.3897 0.0
N352 N 0.51249 0.82128 0.48099 0.0
N353 N 0.46884 0.8476 0.47015 0.0
C354 C 0.46665 0.82862 0.57789 0.0
C355 C 0.49025 0.81423 0.58378 0.0
C356 C 0.26533 0.6505 0.78136 0.0
C357 C 0.23543 0.6303 0.70058 0.0
C358 C 0.28052 0.68778 0.79544 0.0
C359 C 0.26661 0.70655 0.72903 0.0
H360 H 0.27773 0.63762 0.83279 0.0
H361 H 0.30422 0.70213 0.85511 0.0
S362 S 0.18697 0.66645 0.51394 0.0
N363 N 0.19109 0.63188 0.55981 0.0
N364 N 0.21983 0.70208 0.58588 0.0
C365 C 0.2358 0.68667 0.65247 0.0
C366 C 0.22017 0.64853 0.63838 0.0
C367 C 0.4092 0.58558 0.66234 0.0
C368 C 0.42615 0.62328 0.67605 0.0
C369 C 0.37194 0.56347 0.68207 0.0
C370 C 0.35039 0.57817 0.71843 0.0
H371 H 0.42475 0.573 0.63594 0.0
H372 H 0.35989 0.53469 0.6682 0.0
S373 S 0.38055 0.67516 0.75926 0.0
N374 N 0.41738 0.67421 0.72213 0.0
N375 N 0.34825 0.63269 0.76218 0.0
C376 C 0.36687 0.61567 0.73258 0.0
C377 C 0.40448 0.6382 0.71053 0.0
C378 C 0.99887 0.17285 0.54675 0.0
C379 C 1.02617 0.18458 0.63998 0.0
C380 C 1.00707 0.18011 0.41546 0.0
C381 C 0.04289 0.19958 0.37266 0.0
H382 H 0.97088 0.15784 0.57521 0.0
H383 H 0.98512 0.17062 0.3473 0.0
S384 S 0.12435 0.23581 0.57778 0.0
N385 N 0.09051 0.21615 0.68026 0.0
N386 N 0.10596 0.23004 0.43369 0.0
C387 C 0.07048 0.21135 0.46478 0.0
C388 C 0.06211 0.20384 0.59846 0.0
C389 C 0.90249 0.86885 0.53454 0.0
C390 C 0.87393 0.84977 0.6213 0.0
C391 C 0.89597 0.87082 0.40311 0.0
C392 C 0.86074 0.85396 0.35545 0.0
H393 H 0.92998 0.88261 0.56876 0.0
H394 H 0.91852 0.88597 0.33889 0.0
S395 S 0.77743 0.79596 0.53926 0.0
N396 N 0.80977 0.8102 0.64784 0.0
N397 N 0.79731 0.81485 0.40161 0.0
C398 C 0.8321 0.83398 0.44051 0.0
C399 C 0.83877 0.83164 0.57364 0.0
C400 C 0.19513 1.00027 0.58859 0.0
C401 C 0.20704 0.03576 0.6293 0.0
C402 C 0.19428 0.99193 0.4571 0.0
C403 C 0.20509 1.01876 0.36198 0.0
H404 H 0.18666 0.97884 0.65871 0.0
H405 H 0.18541 0.96434 0.43003 0.0
S406 S 0.23603 0.1154 0.41783 0.0
N407 N 0.22854 0.09768 0.56355 0.0
N408 N 0.22616 0.08183 0.31753 0.0
C409 C 0.21616 0.05414 0.40147 0.0
C410 C 0.21738 0.0627 0.53492 0.0
C411 C 0.73691 0.55064 0.79029 0.0
C412 C 0.70975 0.53695 0.69614 0.0
C413 C 0.72858 0.54334 0.92169 0.0
C414 C 0.69277 0.52233 0.96341 0.0
H415 H 0.76483 0.56706 0.76238 0.0
H416 H 0.75035 0.55413 -0.00912 0.0
S417 S 0.61171 0.48032 0.7554 0.0
N418 N 0.64561 0.50119 0.654 0.0
N419 N 0.62993 0.48817 0.90026 0.0
C420 C 0.66537 0.50871 0.8703 0.0
C421 C 0.67386 0.51579 0.73676 0.0
C422 C 0.51318 0.20074 0.79275 0.0
C423 C 0.52668 0.18709 0.69785 0.0
C424 C 0.52004 0.19917 0.92422 0.0
C425 C 0.54038 0.18364 0.96518 0.0
H426 H 0.49709 0.2126 0.76545 0.0
H427 H 0.50932 0.21016 -0.00594 0.0
S428 S 0.58253 0.14483 0.75491 0.0
N429 N 0.56228 0.15859 0.6543 0.0
N430 N 0.57425 0.15467 0.90028 0.0
C431 C 0.55408 0.16999 0.8712 0.0
C432 C 0.54751 0.17202 0.73775 0.0
C433 C 0.89243 0.34573 0.78534 0.0
C434 C 0.86832 0.34907 0.70325 0.0
C435 C 0.89437 0.35446 0.91662 0.0
C436 C 0.87177 0.36592 0.96999 0.0
H437 H 0.9103 0.33703 0.74731 0.0
H438 H 0.91432 0.35305 0.9757 0.0
S439 S 0.80379 0.37848 0.79542 0.0
N440 N 0.8215 0.36455 0.68352 0.0
N441 N 0.82471 0.38033 0.93125 0.0
C442 C 0.84756 0.36936 0.88878 0.0
C443 C 0.84594 0.36092 0.75497 0.0
C444 C 0.39128 0.87336 0.25577 0.0
C445 C 0.35616 0.84837 0.29568 0.0
C446 C 0.39974 0.88093 0.12441 0.0
C447 C 0.37344 0.86352 0.02859 0.0
H448 H 0.41232 0.88737 0.32642 0.0
H449 H 0.42698 0.9008 0.09799 0.0
S450 S 0.27823 0.79342 0.0823 0.0
N451 N 0.29535 0.80493 0.2285 0.0
N452 N 0.31144 0.81846 0.98273 0.0
C453 C 0.33851 0.83772 0.06734 0.0
C454 C 0.32981 0.83034 0.20065 0.0
C455 C 0.17586 0.52925 0.12528 0.0
C456 C 0.1936 0.52072 0.02921 0.0
C457 C 0.18328 0.52828 0.25649 0.0
C458 C 0.20848 0.5185 0.29581 0.0
H459 H 0.15578 0.53629 0.0992 0.0
H460 H 0.16896 0.53492 0.32746 0.0
S461 S 0.26446 0.49685 0.08134 0.0
N462 N 0.23927 0.50473 0.98219 0.0
N463 N 0.2526 0.50204 0.22782 0.0
C464 C 0.22693 0.51067 0.20045 0.0
C465 C 0.21966 0.51204 0.06729 0.0
C466 C 0.52681 0.66655 0.23756 0.0
C467 C 0.5439 0.70255 0.2793 0.0
C468 C 0.52397 0.65803 0.10579 0.0
C469 C 0.5378 0.68523 0.01147 0.0
H470 H 0.51554 0.64479 0.30704 0.0
H471 H 0.51095 0.62996 0.07778 0.0
S472 S 0.58441 0.78377 0.07095 0.0
N473 N 0.57497 0.76561 0.21604 0.0
N474 N 0.56843 0.7496 0.96942 0.0
C475 C 0.55453 0.7213 0.05225 0.0
C476 C 0.55797 0.72997 0.18599 0.0
loop_
_geom_bond_atom_site_label_1
_geom_bond_atom_site_label_2
_geom_bond_distance
_geom_bond_site_symmetry_2
_ccdc_geom_bond_type
Dy0 O4 2.398 . S
Dy0 O5 2.491 1_554 S
Dy0 O6 2.403 . S
Dy0 O7 2.664 . S
Dy0 O11 2.326 . S
Dy0 O15 2.310 1_554 S
Dy0 O16 2.351 . S
C1 O12 1.185 1_554 S
C1 O13 1.355 . S
C2 O4 1.185 1_556 S
C2 O5 1.355 . S
Dy3 O7 2.310 1_655 S
Dy3 O10 2.351 . S
Dy3 O12 2.398 1_554 S
Dy3 O13 2.491 . S
Dy3 O14 2.403 1_554 S
Dy3 O15 2.664 1_654 S
Dy3 O17 2.326 1_654 S
O4 Dy0 2.398 . S
O4 C2 1.185 1_554 S
O5 Dy0 2.491 1_556 S
O5 C2 1.355 . S
O6 Dy0 2.403 . S
O6 C8 1.254 . S
O7 Dy0 2.664 . S
O7 Dy3 2.310 1_455 S
O7 C8 1.268 . S
C8 O6 1.254 . S
C8 O7 1.268 . S
C9 O14 1.254 . S
C9 O15 1.268 1_655 S
O10 Dy3 2.351 . S
O10 C18 1.249 . S
O11 Dy0 2.326 . S
O11 C18 1.267 1_455 S
O12 C1 1.185 1_556 S
O12 Dy3 2.398 1_556 S
O13 C1 1.355 . S
O13 Dy3 2.491 . S
O14 Dy3 2.403 1_556 S
O14 C9 1.254 . S
O15 Dy0 2.310 1_556 S
O15 Dy3 2.664 1_456 S
O15 C9 1.268 1_455 S
O16 Dy0 2.351 . S
O16 C19 1.249 1_554 S
O17 Dy3 2.326 1_456 S
O17 C19 1.267 . S
C18 O10 1.249 . S
C18 O11 1.267 1_655 S
C19 O16 1.249 1_556 S
C19 O17 1.267 . S
Dy20 O24 2.398 . S
Dy20 O25 2.491 1_554 S
Dy20 O26 2.403 . S
Dy20 O27 2.664 . S
Dy20 O31 2.326 . S
Dy20 O35 2.310 1_554 S
Dy20 O36 2.351 . S
C21 O32 1.185 1_554 S
C21 O33 1.355 . S
C22 O24 1.185 1_556 S
C22 O25 1.355 . S
Dy23 O27 2.310 . S
Dy23 O30 2.351 . S
Dy23 O32 2.398 1_554 S
Dy23 O33 2.491 . S
Dy23 O34 2.403 1_554 S
Dy23 O35 2.664 1_554 S
Dy23 O37 2.326 1_554 S
O24 Dy20 2.398 . S
O24 C22 1.185 1_554 S
O25 Dy20 2.491 1_556 S
O25 C22 1.355 . S
O26 Dy20 2.403 . S
O26 C28 1.254 . S
O27 Dy20 2.664 . S
O27 Dy23 2.310 . S
O27 C28 1.268 . S
C28 O26 1.254 . S
C28 O27 1.268 . S
C29 O34 1.254 . S
C29 O35 1.268 . S
O30 Dy23 2.351 . S
O30 C38 1.249 . S
O31 Dy20 2.326 . S
O31 C38 1.267 . S
O32 C21 1.185 1_556 S
O32 Dy23 2.398 1_556 S
O33 C21 1.355 . S
O33 Dy23 2.491 . S
O34 Dy23 2.403 1_556 S
O34 C29 1.254 . S
O35 Dy20 2.310 1_556 S
O35 Dy23 2.664 1_556 S
O35 C29 1.268 . S
O36 Dy20 2.351 . S
O36 C39 1.249 1_554 S
O37 Dy23 2.326 1_556 S
O37 C39 1.267 . S
C38 O30 1.249 . S
C38 O31 1.267 . S
C39 O36 1.249 1_556 S
C39 O37 1.267 . S
Dy40 O44 2.398 . S
Dy40 O45 2.491 1_554 S
Dy40 O46 2.403 . S
Dy40 O47 2.664 1_565 S
Dy40 O51 2.326 1_565 S
Dy40 O55 2.310 1_564 S
Dy40 O56 2.351 . S
C41 O52 1.185 1_554 S
C41 O53 1.355 . S
C42 O44 1.185 1_556 S
C42 O45 1.355 . S
Dy43 O47 2.310 . S
Dy43 O50 2.351 . S
Dy43 O52 2.398 1_554 S
Dy43 O53 2.491 . S
Dy43 O54 2.403 1_554 S
Dy43 O55 2.664 1_554 S
Dy43 O57 2.326 1_544 S
O44 Dy40 2.398 . S
O44 C42 1.185 1_554 S
O45 Dy40 2.491 1_556 S
O45 C42 1.355 . S
O46 Dy40 2.403 . S
O46 C48 1.254 . S
O47 Dy40 2.664 1_545 S
O47 Dy43 2.310 . S
O47 C48 1.268 1_545 S
C48 O46 1.254 . S
C48 O47 1.268 1_565 S
C49 O54 1.254 . S
C49 O55 1.268 . S
O50 Dy43 2.351 . S
O50 C58 1.249 . S
O51 Dy40 2.326 1_545 S
O51 C58 1.267 . S
O52 C41 1.185 1_556 S
O52 Dy43 2.398 1_556 S
O53 C41 1.355 . S
O53 Dy43 2.491 . S
O54 Dy43 2.403 1_556 S
O54 C49 1.254 . S
O55 Dy40 2.310 1_546 S
O55 Dy43 2.664 1_556 S
O55 C49 1.268 . S
O56 Dy40 2.351 . S
O56 C59 1.249 1_554 S
O57 Dy43 2.326 1_566 S
O57 C59 1.267 . S
C58 O50 1.249 . S
C58 O51 1.267 . S
C59 O56 1.249 1_556 S
C59 O57 1.267 . S
Dy60 O64 2.398 . S
Dy60 O65 2.491 . S
Dy60 O66 2.403 . S
Dy60 O67 2.664 . S
Dy60 O71 2.326 . S
Dy60 O75 2.310 . S
Dy60 O76 2.351 . S
C61 O72 1.185 . S
C61 O73 1.355 . S
C62 O64 1.185 . S
C62 O65 1.355 . S
Dy63 O67 2.310 . S
Dy63 O70 2.351 . S
Dy63 O72 2.398 . S
Dy63 O73 2.491 . S
Dy63 O74 2.403 . S
Dy63 O75 2.664 . S
Dy63 O77 2.326 . S
O64 Dy60 2.398 . S
O64 C62 1.185 . S
O65 Dy60 2.491 . S
O65 C62 1.355 . S
O66 Dy60 2.403 . S
O66 C68 1.254 . S
O67 Dy60 2.664 . S
O67 Dy63 2.310 . S
O67 C68 1.268 . S
C68 O66 1.254 . S
C68 O67 1.268 . S
C69 O74 1.254 . S
C69 O75 1.268 . S
O70 Dy63 2.351 . S
O70 C78 1.249 . S
O71 Dy60 2.326 . S
O71 C78 1.267 . S
O72 C61 1.185 . S
O72 Dy63 2.398 . S
O73 C61 1.355 . S
O73 Dy63 2.491 . S
O74 Dy63 2.403 . S
O74 C69 1.254 . S
O75 Dy60 2.310 . S
O75 Dy63 2.664 . S
O75 C69 1.268 . S
O76 Dy60 2.351 . S
O76 C79 1.249 . S
O77 Dy63 2.326 . S
O77 C79 1.267 . S
C78 O70 1.249 . S
C78 O71 1.267 . S
C79 O76 1.249 . S
C79 O77 1.267 . S
Dy80 O84 2.398 . S
Dy80 O85 2.491 . S
Dy80 O86 2.403 . S
Dy80 O87 2.664 . S
Dy80 O91 2.326 . S
Dy80 O95 2.310 . S
Dy80 O96 2.351 . S
C81 O92 1.185 . S
C81 O93 1.355 . S
C82 O84 1.185 . S
C82 O85 1.355 . S
Dy83 O87 2.310 . S
Dy83 O90 2.351 . S
Dy83 O92 2.398 . S
Dy83 O93 2.491 . S
Dy83 O94 2.403 . S
Dy83 O95 2.664 . S
Dy83 O97 2.326 . S
O84 Dy80 2.398 . S
O84 C82 1.185 . S
O85 Dy80 2.491 . S
O85 C82 1.355 . S
O86 Dy80 2.403 . S
O86 C88 1.254 . S
O87 Dy80 2.664 . S
O87 Dy83 2.310 . S
O87 C88 1.268 . S
C88 O86 1.254 . S
C88 O87 1.268 . S
C89 O94 1.254 . S
C89 O95 1.268 . S
O90 Dy83 2.351 . S
O90 C98 1.249 . S
O91 Dy80 2.326 . S
O91 C98 1.267 . S
O92 C81 1.185 . S
O92 Dy83 2.398 . S
O93 C81 1.355 . S
O93 Dy83 2.491 . S
O94 Dy83 2.403 . S
O94 C89 1.254 . S
O95 Dy80 2.310 . S
O95 Dy83 2.664 . S
O95 C89 1.268 . S
O96 Dy80 2.351 . S
O96 C99 1.249 . S
O97 Dy83 2.326 . S
O97 C99 1.267 . S
C98 O90 1.249 . S
C98 O91 1.267 . S
C99 O96 1.249 . S
C99 O97 1.267 . S
Dy100 O104 2.398 . S
Dy100 O105 2.491 . S
Dy100 O106 2.403 . S
Dy100 O107 2.664 . S
Dy100 O111 2.326 . S
Dy100 O115 2.310 . S
Dy100 O116 2.351 . S
C101 O112 1.185 . S
C101 O113 1.355 . S
C102 O104 1.185 . S
C102 O105 1.355 . S
Dy103 O107 2.310 . S
Dy103 O110 2.351 . S
Dy103 O112 2.398 . S
Dy103 O113 2.491 . S
Dy103 O114 2.403 . S
Dy103 O115 2.664 . S
Dy103 O117 2.326 . S
O104 Dy100 2.398 . S
O104 C102 1.185 . S
O105 Dy100 2.491 . S
O105 C102 1.355 . S
O106 Dy100 2.403 . S
O106 C108 1.254 . S
O107 Dy100 2.664 . S
O107 Dy103 2.310 . S
O107 C108 1.268 . S
C108 O106 1.254 . S
C108 O107 1.268 . S
C109 O114 1.254 . S
C109 O115 1.268 . S
O110 Dy103 2.351 . S
O110 C118 1.249 . S
O111 Dy100 2.326 . S
O111 C118 1.267 . S
O112 C101 1.185 . S
O112 Dy103 2.398 . S
O113 C101 1.355 . S
O113 Dy103 2.491 . S
O114 Dy103 2.403 . S
O114 C109 1.254 . S
O115 Dy100 2.310 . S
O115 Dy103 2.664 . S
O115 C109 1.268 . S
O116 Dy100 2.351 . S
O116 C119 1.249 . S
O117 Dy103 2.326 . S
O117 C119 1.267 . S
C118 O110 1.249 . S
C118 O111 1.267 . S
C119 O116 1.249 . S
C119 O117 1.267 . S
Dy120 O124 2.398 . S
Dy120 O125 2.491 . S
Dy120 O126 2.403 . S
Dy120 O127 2.664 . S
Dy120 O131 2.326 . S
Dy120 O135 2.310 . S
Dy120 O136 2.351 . S
C121 O132 1.185 . S
C121 O133 1.355 . S
C122 O124 1.185 . S
C122 O125 1.355 . S
Dy123 O127 2.310 . S
Dy123 O130 2.351 . S
Dy123 O132 2.398 . S
Dy123 O133 2.491 . S
Dy123 O134 2.403 . S
Dy123 O135 2.664 . S
Dy123 O137 2.326 . S
O124 Dy120 2.398 . S
O124 C122 1.185 . S
O125 Dy120 2.491 . S
O125 C122 1.355 . S
O126 Dy120 2.403 . S
O126 C128 1.254 . S
O127 Dy120 2.664 . S
O127 Dy123 2.310 . S
O127 C128 1.268 . S
C128 O126 1.254 . S
C128 O127 1.268 . S
C129 O134 1.254 . S
C129 O135 1.268 . S
O130 Dy123 2.351 . S
O130 C138 1.249 . S
O131 Dy120 2.326 . S
O131 C138 1.267 . S
O132 C121 1.185 . S
O132 Dy123 2.398 . S
O133 C121 1.355 . S
O133 Dy123 2.491 . S
O134 Dy123 2.403 . S
O134 C129 1.254 . S
O135 Dy120 2.310 . S
O135 Dy123 2.664 . S
O135 C129 1.268 . S
O136 Dy120 2.351 . S
O136 C139 1.249 . S
O137 Dy123 2.326 . S
O137 C139 1.267 . S
C138 O130 1.249 . S
C138 O131 1.267 . S
C139 O136 1.249 . S
C139 O137 1.267 . S
Dy140 O144 2.398 . S
Dy140 O145 2.491 . S
Dy140 O146 2.403 . S
Dy140 O147 2.664 . S
Dy140 O151 2.326 . S
Dy140 O155 2.310 . S
Dy140 O156 2.351 . S
C141 O152 1.185 . S
C141 O153 1.355 . S
C142 O144 1.185 . S
C142 O145 1.355 . S
Dy143 O147 2.310 . S
Dy143 O150 2.351 . S
Dy143 O152 2.398 . S
Dy143 O153 2.491 . S
Dy143 O154 2.403 . S
Dy143 O155 2.664 . S
Dy143 O157 2.326 . S
O144 Dy140 2.398 . S
O144 C142 1.185 . S
O145 Dy140 2.491 . S
O145 C142 1.355 . S
O146 Dy140 2.403 . S
O146 C148 1.254 . S
O147 Dy140 2.664 . S
O147 Dy143 2.310 . S
O147 C148 1.268 . S
C148 O146 1.254 . S
C148 O147 1.268 . S
C149 O154 1.254 . S
C149 O155 1.268 . S
O150 Dy143 2.351 . S
O150 C158 1.249 . S
O151 Dy140 2.326 . S
O151 C158 1.267 . S
O152 C141 1.185 . S
O152 Dy143 2.398 . S
O153 C141 1.355 . S
O153 Dy143 2.491 . S
O154 Dy143 2.403 . S
O154 C149 1.254 . S
O155 Dy140 2.310 . S
O155 Dy143 2.664 . S
O155 C149 1.268 . S
O156 Dy140 2.351 . S
O156 C159 1.249 . S
O157 Dy143 2.326 . S
O157 C159 1.267 . S
C158 O150 1.249 . S
C158 O151 1.267 . S
C159 O156 1.249 . S
C159 O157 1.267 . S
Dy160 O164 2.398 . S
Dy160 O165 2.491 . S
Dy160 O166 2.403 . S
Dy160 O167 2.664 . S
Dy160 O171 2.326 . S
Dy160 O175 2.310 . S
Dy160 O176 2.351 . S
C161 O172 1.185 . S
C161 O173 1.355 . S
C162 O164 1.185 . S
C162 O165 1.355 . S
Dy163 O167 2.310 . S
Dy163 O170 2.351 . S
Dy163 O172 2.398 . S
Dy163 O173 2.491 . S
Dy163 O174 2.403 . S
Dy163 O175 2.664 . S
Dy163 O177 2.326 . S
O164 Dy160 2.398 . S
O164 C162 1.185 . S
O165 Dy160 2.491 . S
O165 C162 1.355 . S
O166 Dy160 2.403 . S
O166 C168 1.254 . S
O167 Dy160 2.664 . S
O167 Dy163 2.310 . S
O167 C168 1.268 . S
C168 O166 1.254 . S
C168 O167 1.268 . S
C169 O174 1.254 . S
C169 O175 1.268 . S
O170 Dy163 2.351 . S
O170 C178 1.249 . S
O171 Dy160 2.326 . S
O171 C178 1.267 . S
O172 C161 1.185 . S
O172 Dy163 2.398 . S
O173 C161 1.355 . S
O173 Dy163 2.491 . S
O174 Dy163 2.403 . S
O174 C169 1.254 . S
O175 Dy160 2.310 . S
O175 Dy163 2.664 . S
O175 C169 1.268 . S
O176 Dy160 2.351 . S
O176 C179 1.249 . S
O177 Dy163 2.326 . S
O177 C179 1.267 . S
C178 O170 1.249 . S
C178 O171 1.267 . S
C179 O176 1.249 . S
C179 O177 1.267 . S
C180 C181 1.369 . S
C180 C182 1.419 . S
C180 H184 0.930 . S
C181 C180 1.369 . S
C181 C190 1.429 . S
C182 C180 1.419 . S
C182 C183 1.363 . S
C182 H185 0.929 . S
C183 C182 1.363 . S
C183 C189 1.428 . S
H184 C180 0.930 . S
H185 C182 0.929 . S
S186 N187 1.613 . S
S186 N188 1.610 1_554 S
N187 S186 1.613 . S
N187 C190 1.350 1_554 S
N188 S186 1.610 1_556 S
N188 C189 1.351 . S
C189 C183 1.428 . S
C189 N188 1.351 . S
C189 C190 1.434 . S
C190 C181 1.429 . S
C190 N187 1.350 1_556 S
C190 C189 1.434 . S
C191 C192 1.369 . S
C191 C193 1.419 . S
C191 H195 0.930 . S
C192 C191 1.369 . S
C192 C201 1.429 . S
C193 C191 1.419 . S
C193 C194 1.363 . S
C193 H196 0.929 . S
C194 C193 1.363 . S
C194 C200 1.428 . S
H195 C191 0.930 . S
H196 C193 0.929 . S
S197 N198 1.613 . S
S197 N199 1.610 1_554 S
N198 S197 1.613 . S
N198 C201 1.350 1_554 S
N199 S197 1.610 1_556 S
N199 C200 1.351 . S
C200 C194 1.428 . S
C200 N199 1.351 . S
C200 C201 1.434 . S
C201 C192 1.429 . S
C201 N198 1.350 1_556 S
C201 C200 1.434 . S
C202 C203 1.369 . S
C202 C204 1.419 . S
C202 H206 0.930 . S
C203 C202 1.369 . S
C203 C212 1.429 . S
C204 C202 1.419 . S
C204 C205 1.363 . S
C204 H207 0.929 . S
C205 C204 1.363 . S
C205 C211 1.428 . S
H206 C202 0.930 . S
H207 C204 0.929 . S
S208 N209 1.613 . S
S208 N210 1.610 1_554 S
N209 S208 1.613 . S
N209 C212 1.350 1_554 S
N210 S208 1.610 1_556 S
N210 C211 1.351 . S
C211 C205 1.428 . S
C211 N210 1.351 . S
C211 C212 1.434 . S
C212 C203 1.429 . S
C212 N209 1.350 1_556 S
C212 C211 1.434 . S
C213 C214 1.369 . S
C213 C215 1.419 . S
C213 H217 0.930 . S
C214 C213 1.369 . S
C214 C223 1.429 . S
C215 C213 1.419 . S
C215 C216 1.363 . S
C215 H218 0.929 . S
C216 C215 1.363 . S
C216 C222 1.428 . S
H217 C213 0.930 . S
H218 C215 0.929 . S
S219 N220 1.613 1_556 S
S219 N221 1.610 . S
N220 S219 1.613 1_554 S
N220 C223 1.350 . S
N221 S219 1.610 . S
N221 C222 1.351 1_556 S
C222 C216 1.428 . S
C222 N221 1.351 1_554 S
C222 C223 1.434 . S
C223 C214 1.429 . S
C223 N220 1.350 . S
C223 C222 1.434 . S
C224 C225 1.369 . S
C224 C226 1.419 . S
C224 H228 0.930 . S
C225 C224 1.369 . S
C225 C234 1.429 . S
C226 C224 1.419 . S
C226 C227 1.363 . S
C226 H229 0.929 . S
C227 C226 1.363 . S
C227 C233 1.428 . S
H228 C224 0.930 . S
H229 C226 0.929 . S
S230 N231 1.613 1_556 S
S230 N232 1.610 . S
N231 S230 1.613 1_554 S
N231 C234 1.350 . S
N232 S230 1.610 . S
N232 C233 1.351 1_556 S
C233 C227 1.428 . S
C233 N232 1.351 1_554 S
C233 C234 1.434 . S
C234 C225 1.429 . S
C234 N231 1.350 . S
C234 C233 1.434 . S
C235 C236 1.369 . S
C235 C237 1.419 . S
C235 H239 0.930 . S
C236 C235 1.369 . S
C236 C245 1.429 . S
C237 C235 1.419 . S
C237 C238 1.363 . S
C237 H240 0.929 . S
C238 C237 1.363 . S
C238 C244 1.428 . S
H239 C235 0.930 . S
H240 C237 0.929 . S
S241 N242 1.613 . S
S241 N243 1.610 1_556 S
N242 S241 1.613 . S
N242 C245 1.350 1_556 S
N243 S241 1.610 1_554 S
N243 C244 1.351 . S
C244 C238 1.428 . S
C244 N243 1.351 . S
C244 C245 1.434 . S
C245 C236 1.429 . S
C245 N242 1.350 1_554 S
C245 C244 1.434 . S
C246 C247 1.369 1_655 S
C246 C248 1.419 . S
C246 H250 0.930 . S
C247 C246 1.369 1_455 S
C247 C256 1.429 . S
C248 C246 1.419 . S
C248 C249 1.363 . S
C248 H251 0.929 . S
C249 C248 1.363 . S
C249 C255 1.428 . S
H250 C246 0.930 . S
H251 C248 0.929 . S
S252 N253 1.613 1_655 S
S252 N254 1.610 . S
N253 S252 1.613 1_455 S
N253 C256 1.350 . S
N254 S252 1.610 . S
N254 C255 1.351 . S
C255 C249 1.428 . S
C255 N254 1.351 . S
C255 C256 1.434 1_655 S
C256 C247 1.429 . S
C256 N253 1.350 . S
C256 C255 1.434 1_455 S
C257 C258 1.369 . S
C257 C259 1.419 . S
C257 H261 0.930 . S
C258 C257 1.369 . S
C258 C267 1.429 . S
C259 C257 1.419 . S
C259 C260 1.363 . S
C259 H262 0.929 . S
C260 C259 1.363 . S
C260 C266 1.428 . S
H261 C257 0.930 . S
H262 C259 0.929 . S
S263 N264 1.613 . S
S263 N265 1.610 . S
N264 S263 1.613 . S
N264 C267 1.350 . S
N265 S263 1.610 . S
N265 C266 1.351 . S
C266 C260 1.428 . S
C266 N265 1.351 . S
C266 C267 1.434 . S
C267 C258 1.429 . S
C267 N264 1.350 . S
C267 C266 1.434 . S
C268 C269 1.369 . S
C268 C270 1.419 . S
C268 H272 0.930 . S
C269 C268 1.369 . S
C269 C278 1.429 . S
C270 C268 1.419 . S
C270 C271 1.363 1_545 S
C270 H273 0.929 . S
C271 C270 1.363 1_565 S
C271 C277 1.428 . S
H272 C268 0.930 . S
H273 C270 0.929 . S
S274 N275 1.613 1_565 S
S274 N276 1.610 . S
N275 S274 1.613 1_545 S
N275 C278 1.350 . S
N276 S274 1.610 . S
N276 C277 1.351 . S
C277 C271 1.428 . S
C277 N276 1.351 . S
C277 C278 1.434 1_565 S
C278 C269 1.429 . S
C278 N275 1.350 . S
C278 C277 1.434 1_545 S
C279 C280 1.369 . S
C279 C281 1.419 . S
C279 H283 0.930 . S
C280 C279 1.369 . S
C280 C289 1.429 1_554 S
C281 C279 1.419 . S
C281 C282 1.363 . S
C281 H284 0.929 . S
C282 C281 1.363 . S
C282 C288 1.428 1_554 S
H283 C279 0.930 . S
H284 C281 0.929 . S
S285 N286 1.613 . S
S285 N287 1.610 . S
N286 S285 1.613 . S
N286 C289 1.350 . S
N287 S285 1.610 . S
N287 C288 1.351 . S
C288 C282 1.428 1_556 S
C288 N287 1.351 . S
C288 C289 1.434 . S
C289 C280 1.429 1_556 S
C289 N286 1.350 . S
C289 C288 1.434 . S
C290 C291 1.369 . S
C290 C292 1.419 . S
C290 H294 0.930 . S
C291 C290 1.369 . S
C291 C300 1.429 1_554 S
C292 C290 1.419 . S
C292 C293 1.363 1_565 S
C292 H295 0.929 1_565 S
C293 C292 1.363 1_545 S
C293 C299 1.428 1_554 S
H294 C290 0.930 . S
H295 C292 0.929 1_545 S
S296 N297 1.613 . S
S296 N298 1.610 1_565 S
N297 S296 1.613 . S
N297 C300 1.350 . S
N298 S296 1.610 1_545 S
N298 C299 1.351 . S
C299 C293 1.428 1_556 S
C299 N298 1.351 . S
C299 C300 1.434 1_545 S
C300 C291 1.429 1_556 S
C300 N297 1.350 . S
C300 C299 1.434 1_565 S
C301 C302 1.369 1_456 S
C301 C303 1.419 . S
C301 H305 0.930 1_455 S
C302 C301 1.369 1_654 S
C302 C311 1.429 1_655 S
C303 C301 1.419 . S
C303 C304 1.363 1_556 S
C303 H306 0.929 . S
C304 C303 1.363 1_554 S
C304 C310 1.428 . S
H305 C301 0.930 1_655 S
H306 C303 0.929 . S
S307 N308 1.613 . S
S307 N309 1.610 . S
N308 S307 1.613 . S
N308 C311 1.350 . S
N309 S307 1.610 . S
N309 C310 1.351 . S
C310 C304 1.428 . S
C310 N309 1.351 . S
C310 C311 1.434 . S
C311 C302 1.429 1_455 S
C311 N308 1.350 . S
C311 C310 1.434 . S
C312 C313 1.369 . S
C312 C314 1.419 . S
C312 H316 0.930 . S
C313 C312 1.369 . S
C313 C322 1.429 . S
C314 C312 1.419 . S
C314 C315 1.363 . S
C314 H317 0.929 . S
C315 C314 1.363 . S
C315 C321 1.428 . S
H316 C312 0.930 . S
H317 C314 0.929 . S
S318 N319 1.613 . S
S318 N320 1.610 . S
N319 S318 1.613 . S
N319 C322 1.350 . S
N320 S318 1.610 . S
N320 C321 1.351 . S
C321 C315 1.428 . S
C321 N320 1.351 . S
C321 C322 1.434 . S
C322 C313 1.429 . S
C322 N319 1.350 . S
C322 C321 1.434 . S
C323 C324 1.369 . S
C323 C325 1.419 . S
C323 H327 0.930 . S
C324 C323 1.369 . S
C324 C333 1.429 . S
C325 C323 1.419 . S
C325 C326 1.363 . S
C325 H328 0.929 . S
C326 C325 1.363 . S
C326 C332 1.428 . S
H327 C323 0.930 . S
H328 C325 0.929 . S
S329 N330 1.613 . S
S329 N331 1.610 . S
N330 S329 1.613 . S
N330 C333 1.350 . S
N331 S329 1.610 . S
N331 C332 1.351 . S
C332 C326 1.428 . S
C332 N331 1.351 . S
C332 C333 1.434 . S
C333 C324 1.429 . S
C333 N330 1.350 . S
C333 C332 1.434 . S
C334 C335 1.369 . S
C334 C336 1.419 . S
C334 H338 0.930 . S
C335 C334 1.369 . S
C335 C344 1.429 . S
C336 C334 1.419 . S
C336 C337 1.363 . S
C336 H339 0.929 . S
C337 C336 1.363 . S
C337 C343 1.428 . S
H338 C334 0.930 . S
H339 C336 0.929 . S
S340 N341 1.613 . S
S340 N342 1.610 . S
N341 S340 1.613 . S
N341 C344 1.350 . S
N342 S340 1.610 . S
N342 C343 1.351 . S
C343 C337 1.428 . S
C343 N342 1.351 . S
C343 C344 1.434 . S
C344 C335 1.429 . S
C344 N341 1.350 . S
C344 C343 1.434 . S
C345 C346 1.369 . S
C345 C347 1.419 . S
C345 H349 0.930 . S
C346 C345 1.369 . S
C346 C355 1.429 . S
C347 C345 1.419 . S
C347 C348 1.363 . S
C347 H350 0.929 . S
C348 C347 1.363 . S
C348 C354 1.428 . S
H349 C345 0.930 . S
H350 C347 0.929 . S
S351 N352 1.613 . S
S351 N353 1.610 . S
N352 S351 1.613 . S
N352 C355 1.350 . S
N353 S351 1.610 . S
N353 C354 1.351 . S
C354 C348 1.428 . S
C354 N353 1.351 . S
C354 C355 1.434 . S
C355 C346 1.429 . S
C355 N352 1.350 . S
C355 C354 1.434 . S
C356 C357 1.369 . S
C356 C358 1.419 . S
C356 H360 0.930 . S
C357 C356 1.369 . S
C357 C366 1.429 . S
C358 C356 1.419 . S
C358 C359 1.363 . S
C358 H361 0.929 . S
C359 C358 1.363 . S
C359 C365 1.428 . S
H360 C356 0.930 . S
H361 C358 0.929 . S
S362 N363 1.613 . S
S362 N364 1.610 . S
N363 S362 1.613 . S
N363 C366 1.350 . S
N364 S362 1.610 . S
N364 C365 1.351 . S
C365 C359 1.428 . S
C365 N364 1.351 . S
C365 C366 1.434 . S
C366 C357 1.429 . S
C366 N363 1.350 . S
C366 C365 1.434 . S
C367 C368 1.369 . S
C367 C369 1.419 . S
C367 H371 0.930 . S
C368 C367 1.369 . S
C368 C377 1.429 . S
C369 C367 1.419 . S
C369 C370 1.363 . S
C369 H372 0.929 . S
C370 C369 1.363 . S
C370 C376 1.428 . S
H371 C367 0.930 . S
H372 C369 0.929 . S
S373 N374 1.613 . S
S373 N375 1.610 . S
N374 S373 1.613 . S
N374 C377 1.350 . S
N375 S373 1.610 . S
N375 C376 1.351 . S
C376 C370 1.428 . S
C376 N375 1.351 . S
C376 C377 1.434 . S
C377 C368 1.429 . S
C377 N374 1.350 . S
C377 C376 1.434 . S
C378 C379 1.358 1_655 S
C378 C380 1.419 . S
C378 H382 0.930 . S
C379 C378 1.358 1_455 S
C379 C388 1.447 . S
C380 C378 1.419 . S
C380 C381 1.363 1_655 S
C380 H383 0.929 . S
C381 C380 1.363 1_455 S
C381 C387 1.428 . S
H382 C378 0.930 . S
H383 C380 0.929 . S
S384 N385 1.613 . S
S384 N386 1.610 . S
N385 S384 1.613 . S
N385 C388 1.350 . S
N386 S384 1.610 . S
N386 C387 1.351 . S
C387 C381 1.428 . S
C387 N386 1.351 . S
C387 C388 1.434 . S
C388 C379 1.447 . S
C388 N385 1.350 . S
C388 C387 1.434 . S
C389 C390 1.369 . S
C389 C391 1.419 . S
C389 H393 0.930 . S
C390 C389 1.369 . S
C390 C399 1.429 . S
C391 C389 1.419 . S
C391 C392 1.363 . S
C391 H394 0.929 . S
C392 C391 1.363 . S
C392 C398 1.428 . S
H393 C389 0.930 . S
H394 C391 0.929 . S
S395 N396 1.613 . S
S395 N397 1.610 . S
N396 S395 1.613 . S
N396 C399 1.350 . S
N397 S395 1.610 . S
N397 C398 1.351 . S
C398 C392 1.428 . S
C398 N397 1.351 . S
C398 C399 1.434 . S
C399 C390 1.429 . S
C399 N396 1.350 . S
C399 C398 1.434 . S
C400 C401 1.379 . S
C400 C402 1.417 1_545 S
C400 H404 0.921 1_545 S
C401 C400 1.379 . S
C401 C410 1.429 . S
C402 C400 1.417 1_565 S
C402 C403 1.363 . S
C402 H405 0.929 . S
C403 C402 1.363 . S
C403 C409 1.428 1_565 S
H404 C400 0.921 1_565 S
H405 C402 0.929 . S
S406 N407 1.613 . S
S406 N408 1.610 . S
N407 S406 1.613 . S
N407 C410 1.350 . S
N408 S406 1.610 . S
N408 C409 1.351 . S
C409 C403 1.428 1_545 S
C409 N408 1.351 . S
C409 C410 1.434 . S
C410 C401 1.429 . S
C410 N407 1.350 . S
C410 C409 1.434 . S
C411 C412 1.369 . S
C411 C413 1.419 . S
C411 H415 0.930 . S
C412 C411 1.369 . S
C412 C421 1.429 . S
C413 C411 1.419 . S
C413 C414 1.363 . S
C413 H416 0.929 . S
C414 C413 1.363 . S
C414 C420 1.428 . S
H415 C411 0.930 . S
H416 C413 0.929 . S
S417 N418 1.613 . S
S417 N419 1.610 . S
N418 S417 1.613 . S
N418 C421 1.350 . S
N419 S417 1.610 . S
N419 C420 1.351 . S
C420 C414 1.428 . S
C420 N419 1.351 . S
C420 C421 1.434 . S
C421 C412 1.429 . S
C421 N418 1.350 . S
C421 C420 1.434 . S
C422 C423 1.369 . S
C422 C424 1.419 . S
C422 H426 0.930 . S
C423 C422 1.369 . S
C423 C432 1.429 . S
C424 C422 1.419 . S
C424 C425 1.363 . S
C424 H427 0.929 . S
C425 C424 1.363 . S
C425 C431 1.428 . S
H426 C422 0.930 . S
H427 C424 0.929 . S
S428 N429 1.613 . S
S428 N430 1.610 . S
N429 S428 1.613 . S
N429 C432 1.350 . S
N430 S428 1.610 . S
N430 C431 1.351 . S
C431 C425 1.428 . S
C431 N430 1.351 . S
C431 C432 1.434 . S
C432 C423 1.429 . S
C432 N429 1.350 . S
C432 C431 1.434 . S
C433 C434 1.369 . S
C433 C435 1.419 . S
C433 H437 0.930 . S
C434 C433 1.369 . S
C434 C443 1.429 . S
C435 C433 1.419 . S
C435 C436 1.363 . S
C435 H438 0.929 . S
C436 C435 1.363 . S
C436 C442 1.428 . S
H437 C433 0.930 . S
H438 C435 0.929 . S
S439 N440 1.613 . S
S439 N441 1.610 . S
N440 S439 1.613 . S
N440 C443 1.350 . S
N441 S439 1.610 . S
N441 C442 1.351 . S
C442 C436 1.428 . S
C442 N441 1.351 . S
C442 C443 1.434 . S
C443 C434 1.429 . S
C443 N440 1.350 . S
C443 C442 1.434 . S
C444 C445 1.369 . S
C444 C446 1.419 . S
C444 H448 0.930 . S
C445 C444 1.369 . S
C445 C454 1.429 . S
C446 C444 1.419 . S
C446 C447 1.363 . S
C446 H449 0.929 . S
C447 C446 1.363 . S
C447 C453 1.428 . S
H448 C444 0.930 . S
H449 C446 0.929 . S
S450 N451 1.613 . S
S450 N452 1.610 . S
N451 S450 1.613 . S
N451 C454 1.350 . S
N452 S450 1.610 . S
N452 C453 1.351 . S
C453 C447 1.428 . S
C453 N452 1.351 . S
C453 C454 1.434 . S
C454 C445 1.429 . S
C454 N451 1.350 . S
C454 C453 1.434 . S
C455 C456 1.369 . S
C455 C457 1.419 . S
C455 H459 0.930 . S
C456 C455 1.369 . S
C456 C465 1.429 . S
C457 C455 1.419 . S
C457 C458 1.363 . S
C457 H460 0.929 . S
C458 C457 1.363 . S
C458 C464 1.428 . S
H459 C455 0.930 . S
H460 C457 0.929 . S
S461 N462 1.613 . S
S461 N463 1.610 . S
N462 S461 1.613 . S
N462 C465 1.350 . S
N463 S461 1.610 . S
N463 C464 1.351 . S
C464 C458 1.428 . S
C464 N463 1.351 . S
C464 C465 1.434 . S
C465 C456 1.429 . S
C465 N462 1.350 . S
C465 C464 1.434 . S
C466 C467 1.369 . S
C466 C468 1.419 . S
C466 H470 0.930 . S
C467 C466 1.369 . S
C467 C476 1.429 . S
C468 C466 1.419 . S
C468 C469 1.363 . S
C468 H471 0.929 . S
C469 C468 1.363 . S
C469 C475 1.428 . S
H470 C466 0.930 . S
H471 C468 0.929 . S
S472 N473 1.613 . S
S472 N474 1.610 . S
N473 S472 1.613 . S
N473 C476 1.350 . S
N474 S472 1.610 . S
N474 C475 1.351 . S
C475 C469 1.428 . S
C475 N474 1.351 . S
C475 C476 1.434 . S
C476 C467 1.429 . S
C476 N473 1.350 . S
C476 C475 1.434 . S
C181 C2 1.775 . S
C183 C158 1.697 . S
C192 C22 1.775 . S
C194 C178 1.698 . S
C203 C42 1.775 . S
C205 C138 1.698 . S
C214 C82 1.769 . S
C216 C58 1.705 . S
C225 C102 1.767 . S
C227 C18 1.704 . S
C236 C38 1.707 . S
C238 C62 1.769 . S
C247 C142 1.769 . S
C249 C118 1.701 . S
C258 C162 1.771 . S
C260 C78 1.703 . S
C269 C98 1.706 . S
C271 C122 1.770 . S
C280 C41 1.513 . S
C282 C19 1.543 1_554 S
C291 C39 1.543 1_554 S
C293 C1 1.515 . S
C302 C21 1.520 . S
C304 C59 1.545 1_554 S
C313 C79 1.543 . S
C315 C101 1.515 . S
C324 C61 1.518 . S
C326 C99 1.545 . S
C335 C81 1.517 . S
C337 C119 1.544 . S
C346 C161 1.516 . S
C348 C139 1.544 . S
C357 C159 1.543 . S
C359 C121 1.515 . S
C368 C179 1.545 . S
C370 C141 1.519 . S
C379 C9 1.146 1_455 S
C381 C8 1.145 . S
C390 C29 1.152 . S
C392 C28 1.145 . S
C401 C49 1.145 . S
C403 C48 1.151 . S
C412 C68 1.144 . S
C414 C69 1.151 1_556 S
C423 C88 1.144 . S
C425 C89 1.151 1_556 S
C434 C108 1.153 . S
C436 C109 1.145 1_556 S
C445 C129 1.144 . S
C447 C128 1.151 1_554 S
C456 C148 1.150 1_554 S
C458 C149 1.147 . S
C467 C169 1.144 . S
C469 C168 1.152 1_554 S
