# Generated by pormake.
# Topology wjh, (4)-cn, num edge types: 1
# Building blocks:
#     Node 0, Type 0, BuildingBlock: QUQFOY_clean_sbu_1, # of connection points: 4
#     Node 1, Type 0, BuildingBlock: QUQFOY_clean_sbu_1, # of connection points: 4
#     Node 2, Type 0, BuildingBlock: QUQFOY_clean_sbu_1, # of connection points: 4
#     Node 3, Type 0, BuildingBlock: QUQFOY_clean_sbu_1, # of connection points: 4
#     Node 4, Type 0, BuildingBlock: QUQFOY_clean_sbu_1, # of connection points: 4
#     Node 5, Type 0, BuildingBlock: QUQFOY_clean_sbu_1, # of connection points: 4
#     Node 6, Type 0, BuildingBlock: QUQFOY_clean_sbu_1, # of connection points: 4
#     Node 7, Type 0, BuildingBlock: QUQFOY_clean_sbu_1, # of connection points: 4
#     Node 8, Type 0, BuildingBlock: QUQFOY_clean_sbu_1, # of connection points: 4
#     Node 9, Type 0, BuildingBlock: QUQFOY_clean_sbu_1, # of connection points: 4
#     Node 10, Type 0, BuildingBlock: QUQFOY_clean_sbu_1, # of connection points: 4
#     Node 11, Type 0, BuildingBlock: QUQFOY_clean_sbu_1, # of connection points: 4
#     Edge 12, Type (0, 0), BuildingBlock: AJUNOK_clean_linker_0, # of connection points: 2
#     Edge 13, Type (0, 0), BuildingBlock: AJUNOK_clean_linker_0, # of connection points: 2
#     Edge 14, Type (0, 0), BuildingBlock: AJUNOK_clean_linker_0, # of connection points: 2
#     Edge 15, Type (0, 0), BuildingBlock: AJUNOK_clean_linker_0, # of connection points: 2
#     Edge 16, Type (0, 0), BuildingBlock: AJUNOK_clean_linker_0, # of connection points: 2
#     Edge 17, Type (0, 0), BuildingBlock: AJUNOK_clean_linker_0, # of connection points: 2
#     Edge 18, Type (0, 0), BuildingBlock: AJUNOK_clean_linker_0, # of connection points: 2
#     Edge 19, Type (0, 0), BuildingBlock: AJUNOK_clean_linker_0, # of connection points: 2
#     Edge 20, Type (0, 0), BuildingBlock: AJUNOK_clean_linker_0, # of connection points: 2
#     Edge 21, Type (0, 0), BuildingBlock: AJUNOK_clean_linker_0, # of connection points: 2
#     Edge 22, Type (0, 0), BuildingBlock: AJUNOK_clean_linker_0, # of connection points: 2
#     Edge 23, Type (0, 0), BuildingBlock: AJUNOK_clean_linker_0, # of connection points: 2
#     Edge 24, Type (0, 0), BuildingBlock: AJUNOK_clean_linker_0, # of connection points: 2
#     Edge 25, Type (0, 0), BuildingBlock: AJUNOK_clean_linker_0, # of connection points: 2
#     Edge 26, Type (0, 0), BuildingBlock: AJUNOK_clean_linker_0, # of connection points: 2
#     Edge 27, Type (0, 0), BuildingBlock: AJUNOK_clean_linker_0, # of connection points: 2
#     Edge 28, Type (0, 0), BuildingBlock: AJUNOK_clean_linker_0, # of connection points: 2
#     Edge 29, Type (0, 0), BuildingBlock: AJUNOK_clean_linker_0, # of connection points: 2
#     Edge 30, Type (0, 0), BuildingBlock: AJUNOK_clean_linker_0, # of connection points: 2
#     Edge 31, Type (0, 0), BuildingBlock: AJUNOK_clean_linker_0, # of connection points: 2
#     Edge 32, Type (0, 0), BuildingBlock: AJUNOK_clean_linker_0, # of connection points: 2
#     Edge 33, Type (0, 0), BuildingBlock: AJUNOK_clean_linker_0, # of connection points: 2
#     Edge 34, Type (0, 0), BuildingBlock: AJUNOK_clean_linker_0, # of connection points: 2
#     Edge 35, Type (0, 0), BuildingBlock: AJUNOK_clean_linker_0, # of connection points: 2
# Relax obj value: 0.026
# Max RMSD: 0.074
# Mean RMSD: 0.074
data_MOF--net-wjh--node1-QUQFOY_clean_sbu_1--edge1-AJUNOK_clean_linker_0
_symmetry_space_group_name_H-M    P1
_symmetry_Int_Tables_number       1
_symmetry_cell_setting            triclinic
loop_
_symmetry_equiv_pos_as_xyz
'x, y, z'
_cell_length_a     47.224791
_cell_length_b     47.216025
_cell_length_c     20.58997
_cell_angle_alpha  90.042725
_cell_angle_beta   89.923754
_cell_angle_gamma 119.99509
loop_
_atom_site_label
_atom_site_type_symbol
_atom_site_fract_x
_atom_site_fract_y
_atom_site_fract_z
_atom_type_partial_charge
O0 O 0.50286 0.08762 0.07088 0.0
Cd1 Cd 0.53833 0.13652 0.06527 0.0
Cd2 Cd 0.48948 0.13812 0.13894 0.0
O3 O 0.46058 0.09032 0.10926 0.0
O4 O 0.56988 0.13738 0.99888 0.0
O5 O 0.54064 0.16139 0.98337 0.0
C6 C 0.56133 0.15349 0.961 0.0
C7 C 0.47198 0.17605 0.1479 0.0
C8 C 0.47278 0.07366 0.08678 0.0
C9 C 0.55343 0.15492 0.20406 0.0
O10 O 0.52333 0.14598 0.20905 0.0
O11 O 0.56593 0.15632 0.14856 0.0
O12 O 0.4614 0.1515 0.1869 0.0
O13 O 0.49024 0.17743 0.09978 0.0
O14 O 0.41709 0.5004 0.26221 0.0
Cd15 Cd 0.40054 0.53345 0.25796 0.0
Cd16 Cd 0.35156 0.48319 0.31886 0.0
O17 O 0.37026 0.45549 0.28103 0.0
O18 O 0.43058 0.5674 0.19421 0.0
O19 O 0.37811 0.5342 0.175 0.0
C20 C 0.40633 0.55677 0.1544 0.0
C21 C 0.29923 0.47466 0.31195 0.0
C22 C 0.40055 0.46942 0.2674 0.0
C23 C 0.39253 0.54199 0.39803 0.0
O24 O 0.375 0.51105 0.39835 0.0
O25 O 0.40259 0.55723 0.34433 0.0
O26 O 0.30524 0.45543 0.34638 0.0
O27 O 0.32231 0.49642 0.27585 0.0
O28 O 0.91602 0.41751 0.40889 0.0
Cd29 Cd 0.86666 0.40175 0.41051 0.0
Cd30 Cd 0.86941 0.35366 0.47646 0.0
O31 O 0.91541 0.37219 0.43651 0.0
O32 O 0.86247 0.4317 0.3472 0.0
O33 O 0.84104 0.37879 0.3298 0.0
C34 C 0.84728 0.4071 0.30866 0.0
C35 C 0.82707 0.3002 0.47498 0.0
C36 C 0.93092 0.40157 0.41645 0.0
C37 C 0.85323 0.39729 0.55231 0.0
O38 O 0.86545 0.3787 0.55367 0.0
O39 O 0.84801 0.40696 0.49824 0.0
O40 O 0.85305 0.30837 0.50875 0.0
O41 O 0.82652 0.32186 0.43737 0.0
O42 O 0.50441 0.91735 0.58673 0.0
Cd43 Cd 0.46981 0.86817 0.58078 0.0
Cd44 Cd 0.51952 0.86722 0.64893 0.0
O45 O 0.54776 0.91507 0.61912 0.0
O46 O 0.4375 0.86665 0.51563 0.0
O47 O 0.46831 0.84452 0.49766 0.0
C48 C 0.44698 0.85177 0.47638 0.0
C49 C 0.53628 0.82863 0.6484 0.0
C50 C 0.53484 0.93155 0.59956 0.0
C51 C 0.45665 0.84866 0.71954 0.0
O52 O 0.48707 0.85881 0.7226 0.0
O53 O 0.44331 0.84688 0.66487 0.0
O54 O 0.54815 0.85242 0.68947 0.0
O55 O 0.51678 0.82827 0.60397 0.0
O56 O 0.58945 0.5033 0.76159 0.0
Cd57 Cd 0.60579 0.47006 0.75736 0.0
Cd58 Cd 0.655 0.52057 0.81826 0.0
O59 O 0.63633 0.5482 0.78013 0.0
O60 O 0.57471 0.43541 0.696 0.0
O61 O 0.62691 0.46799 0.67322 0.0
C62 C 0.59838 0.4451 0.65492 0.0
C63 C 0.70746 0.52935 0.81248 0.0
C64 C 0.60604 0.53429 0.76667 0.0
C65 C 0.61399 0.46189 0.89761 0.0
O66 O 0.63142 0.49284 0.89786 0.0
O67 O 0.60401 0.44661 0.84395 0.0
O68 O 0.70116 0.54857 0.84633 0.0
O69 O 0.68462 0.50745 0.77622 0.0
O70 O 0.08767 0.58693 0.91039 0.0
Cd71 Cd 0.13642 0.60105 0.89741 0.0
Cd72 Cd 0.13963 0.65256 0.96918 0.0
O73 O 0.091 0.63285 0.94506 0.0
O74 O 0.13595 0.56987 0.83042 0.0
O75 O 0.15877 0.62288 0.81295 0.0
C76 C 0.15082 0.59419 0.79113 0.0
C77 C 0.17695 0.7084 0.97292 0.0
C78 C 0.07401 0.6032 0.9272 0.0
C79 C 0.1585 0.60661 0.03361 0.0
O80 O 0.14954 0.62776 0.03893 0.0
O81 O 0.15878 0.59479 0.97823 0.0
O82 O 0.15374 0.69472 1.01499 0.0
O83 O 0.17745 0.69074 0.92541 0.0
O84 O 0.91669 0.5025 0.93816 0.0
Cd85 Cd 0.86721 0.46891 0.93807 0.0
Cd86 Cd 0.87037 0.51901 0.86922 0.0
O87 O 0.91641 0.54707 0.90809 0.0
O88 O 0.86364 0.43445 0.99984 0.0
O89 O 0.84185 0.46534 1.02018 0.0
C90 C 0.84808 0.44297 0.03935 0.0
C91 C 0.82693 0.52833 0.87094 0.0
C92 C 0.93185 0.53323 0.92865 0.0
C93 C 0.85411 0.45868 0.79618 0.0
O94 O 0.86675 0.48952 0.79324 0.0
O95 O 0.84814 0.44444 0.85111 0.0
O96 O 0.85254 0.54658 0.83642 0.0
O97 O 0.82756 0.50707 0.90966 0.0
O98 O 0.41731 0.91704 0.09588 0.0
Cd99 Cd 0.40338 0.86802 0.10279 0.0
Cd100 Cd 0.35158 0.86664 0.03384 0.0
O101 O 0.37156 0.91458 0.06343 0.0
O102 O 0.4354 0.86732 0.16587 0.0
O103 O 0.38271 0.84458 0.18718 0.0
C104 C 0.41168 0.85203 0.20629 0.0
C105 C 0.296 0.82937 1.02661 0.0
C106 C 0.40103 0.93114 0.08262 0.0
C107 C 0.39618 0.8478 0.96435 0.0
O108 O 0.37587 0.85786 0.96139 0.0
O109 O 0.40838 0.84662 1.01868 0.0
O110 O 0.30988 0.85405 0.9879 0.0
O111 O 0.31305 0.82765 0.07392 0.0
O112 O 0.50343 0.4161 0.27483 0.0
Cd113 Cd 0.53936 0.40334 0.28057 0.0
Cd114 Cd 0.49088 0.35237 0.2066 0.0
O115 O 0.46175 0.3713 0.23449 0.0
O116 O 0.57064 0.43452 0.34667 0.0
O117 O 0.54207 0.38129 0.36293 0.0
C118 C 0.5624 0.41006 0.38497 0.0
C119 C 0.47321 0.29677 0.20196 0.0
C120 C 0.47354 0.39994 0.25781 0.0
C121 C 0.55497 0.39977 0.14176 0.0
O122 O 0.52508 0.37802 0.13665 0.0
O123 O 0.5671 0.41142 0.1972 0.0
O124 O 0.46306 0.3102 0.16068 0.0
O125 O 0.4916 0.31452 0.2491 0.0
O126 O 0.08755 0.50339 0.40736 0.0
Cd127 Cd 0.13703 0.53614 0.4163 0.0
Cd128 Cd 0.13627 0.48568 0.35645 0.0
O129 O 0.08932 0.45811 0.39178 0.0
O130 O 0.13962 0.57026 0.47814 0.0
O131 O 0.15836 0.53709 0.50213 0.0
C132 C 0.15263 0.55998 0.52014 0.0
C133 C 0.17924 0.47587 0.36386 0.0
C134 C 0.073 0.47243 0.40185 0.0
C135 C 0.15569 0.54507 0.27764 0.0
O136 O 0.14187 0.51409 0.27709 0.0
O137 O 0.16051 0.5602 0.33137 0.0
O138 O 0.15407 0.4573 0.32865 0.0
O139 O 0.17825 0.49766 0.40044 0.0
O140 O 0.58932 0.08808 0.58738 0.0
Cd141 Cd 0.60515 0.13755 0.58924 0.0
Cd142 Cd 0.65474 0.13651 0.52789 0.0
O143 O 0.6362 0.09039 0.56701 0.0
O144 O 0.57397 0.1411 0.65037 0.0
O145 O 0.62633 0.16155 0.67254 0.0
C146 C 0.5977 0.15558 0.69105 0.0
C147 C 0.70778 0.17951 0.53275 0.0
C148 C 0.60611 0.0739 0.58214 0.0
C149 C 0.61295 0.15318 0.44836 0.0
O150 O 0.63104 0.1404 0.44829 0.0
O151 O 0.60263 0.15822 0.50191 0.0
O152 O 0.70072 0.15374 0.49909 0.0
O153 O 0.68522 0.17945 0.56858 0.0
O154 O 0.50339 0.58795 0.77528 0.0
Cd155 Cd 0.46716 0.60035 0.78099 0.0
Cd156 Cd 0.51613 0.6516 0.70571 0.0
O157 O 0.54505 0.63256 0.73409 0.0
O158 O 0.4353 0.56803 0.84495 0.0
O159 O 0.46313 0.62098 0.86455 0.0
C160 C 0.44255 0.59184 0.88443 0.0
C161 C 0.53429 0.70718 0.69696 0.0
C162 C 0.53326 0.60401 0.75789 0.0
C163 C 0.45181 0.60401 0.6419 0.0
O164 O 0.48172 0.62564 0.63652 0.0
O165 O 0.43969 0.59248 0.69743 0.0
O166 O 0.54411 0.69285 0.65707 0.0
O167 O 0.51632 0.69053 0.74554 0.0
C168 C 0.55891 0.1623 0.3244 0.0
C169 C 0.57254 0.16048 0.26463 0.0
C170 C 0.57317 0.16182 0.38364 0.0
C171 C 0.60157 0.15931 0.38562 0.0
H172 H 0.53624 0.16282 0.32574 0.0
H173 H 0.56087 0.16178 0.42811 0.0
S174 S 0.64988 0.15908 0.2432 0.0
N175 N 0.61826 0.15992 0.21129 0.0
N176 N 0.64515 0.15906 0.32265 0.0
C177 C 0.6168 0.15985 0.32631 0.0
C178 C 0.60232 0.16049 0.26584 0.0
C179 C 0.43158 0.59095 0.46252 0.0
C180 C 0.40363 0.5597 0.46068 0.0
C181 C 0.44577 0.60588 0.5217 0.0
C182 C 0.43254 0.59028 0.58153 0.0
H183 H 0.44363 0.60333 0.41799 0.0
H184 H 0.46815 0.62934 0.52024 0.0
S185 S 0.35624 0.51064 0.60333 0.0
N186 N 0.36073 0.51539 0.52387 0.0
N187 N 0.38752 0.54348 0.63509 0.0
C188 C 0.40312 0.56017 0.58046 0.0
C189 C 0.38869 0.54486 0.52007 0.0
C190 C 0.85021 0.45534 0.67512 0.0
C191 C 0.84865 0.4401 0.73493 0.0
C192 C 0.84972 0.44046 0.61596 0.0
C193 C 0.848 0.4099 0.61429 0.0
H194 H 0.85288 0.47949 0.67384 0.0
H195 H 0.85237 0.45379 0.57144 0.0
S196 S 0.83903 0.35768 0.75647 0.0
N197 N 0.84193 0.39113 0.78831 0.0
N198 N 0.84121 0.36325 0.67708 0.0
C199 C 0.84442 0.39347 0.67345 0.0
C200 C 0.84464 0.40851 0.73376 0.0
C201 C 0.45393 0.84475 0.8408 0.0
C202 C 0.438 0.84209 0.78126 0.0
C203 C 0.43932 0.84428 0.90033 0.0
C204 C 0.40821 0.84124 0.9028 0.0
H205 H 0.47858 0.8487 0.84164 0.0
H206 H 0.45335 0.84823 0.94437 0.0
S207 S 0.35351 0.82734 0.76217 0.0
N208 N 0.38744 0.83184 0.7294 0.0
N209 N 0.35993 0.83085 0.8413 0.0
C210 C 0.39087 0.83586 0.84412 0.0
C211 C 0.40575 0.83628 0.78338 0.0
C212 C 0.56085 0.39798 1.02144 0.0
C213 C 0.57417 0.41353 0.08123 0.0
C214 C 0.57497 0.41295 0.96221 0.0
C215 C 0.60292 0.44419 0.96026 0.0
H216 H 0.53846 0.37454 1.02007 0.0
H217 H 0.56285 0.40059 0.91772 0.0
S218 S 0.65054 0.49314 0.10269 0.0
N219 N 0.6193 0.46029 0.13459 0.0
N220 N 0.64592 0.48844 1.02324 0.0
C221 C 0.61795 0.45899 1.01957 0.0
C222 C 0.6036 0.44364 0.08003 0.0
C223 C 0.16615 0.59417 0.213 0.0
C224 C 0.16287 0.56293 0.21508 0.0
C225 C 0.16694 0.60903 0.15369 0.0
C226 C 0.16465 0.59336 0.09399 0.0
H227 H 0.16629 0.60654 0.25743 0.0
H228 H 0.16785 0.63241 0.15493 0.0
S229 S 0.1617 0.51384 0.07289 0.0
N230 N 0.16181 0.51867 0.15232 0.0
N231 N 0.16321 0.54661 0.04084 0.0
C232 C 0.16416 0.56333 0.09532 0.0
C233 C 0.16323 0.54811 0.15585 0.0
C234 C 0.46592 0.2525 0.12596 0.0
C235 C 0.46757 0.26343 0.19028 0.0
C236 C 0.46609 0.22347 0.11241 0.0
C237 C 0.46691 0.20385 0.16275 0.0
H238 H 0.46632 0.26738 0.08553 0.0
H239 H 0.46642 0.21678 0.06218 0.0
S240 S 0.4687 0.22026 0.33958 0.0
N241 N 0.46849 0.25165 0.30474 0.0
N242 N 0.46759 0.19647 0.27965 0.0
C243 C 0.46671 0.21358 0.22738 0.0
C244 C 0.46738 0.24356 0.24107 0.0
C245 C 0.23875 0.44559 0.33105 0.0
C246 C 0.26842 0.47494 0.32166 0.0
C247 C 0.20982 0.44588 0.34568 0.0
C248 C 0.21002 0.47553 0.35429 0.0
H249 H 0.23787 0.4223 0.32653 0.0
H250 H 0.18723 0.42281 0.35081 0.0
S251 S 0.28155 0.55897 0.33668 0.0
N252 N 0.29622 0.53434 0.32207 0.0
N253 N 0.24226 0.53488 0.35206 0.0
C254 C 0.23963 0.50498 0.34602 0.0
C255 C 0.26874 0.50468 0.32906 0.0
C256 C 0.73886 0.2393 0.51281 0.0
C257 C 0.73908 0.20992 0.52203 0.0
C258 C 0.76729 0.26803 0.49466 0.0
C259 C 0.79714 0.26862 0.48684 0.0
H260 H 0.71632 0.2399 0.51783 0.0
H261 H 0.76603 0.29016 0.48826 0.0
S262 S 0.81087 0.1984 0.50673 0.0
N263 N 0.77144 0.18296 0.52137 0.0
N264 N 0.82546 0.23759 0.49079 0.0
C265 C 0.79787 0.23958 0.49702 0.0
C266 C 0.76865 0.21003 0.5136 0.0
C267 C 0.54403 0.79109 0.72168 0.0
C268 C 0.54115 0.80033 0.65806 0.0
C269 C 0.54296 0.76136 0.73399 0.0
C270 C 0.54003 0.74033 0.68295 0.0
H271 H 0.54526 0.80604 0.76272 0.0
H272 H 0.54365 0.75444 0.78386 0.0
S273 S 0.53424 0.75443 0.50727 0.0
N274 N 0.53668 0.78683 0.54335 0.0
N275 N 0.53596 0.73154 0.56602 0.0
C276 C 0.53896 0.75014 0.61882 0.0
C277 C 0.53917 0.77999 0.60648 0.0
C278 C 0.76799 0.55844 0.83062 0.0
C279 C 0.73815 0.52905 0.82351 0.0
C280 C 0.79679 0.55822 0.84673 0.0
C281 C 0.79629 0.52867 0.85915 0.0
H282 H 0.76909 0.58169 0.82322 0.0
H283 H 0.81951 0.58128 0.85013 0.0
S284 S 0.72409 0.44523 0.84906 0.0
N285 N 0.70979 0.46974 0.83038 0.0
N286 N 0.76349 0.46938 0.86319 0.0
C287 C 0.76648 0.49922 0.85323 0.0
C288 C 0.7375 0.49939 0.83475 0.0
C289 C 0.21327 0.75327 0.04842 0.0
C290 C 0.20448 0.74188 0.9842 0.0
C291 C 0.24238 0.78237 0.06197 0.0
C292 C 0.2632 0.80162 1.01168 0.0
H293 H 0.1985 0.7387 0.08889 0.0
H294 H 0.24904 0.7894 0.11218 0.0
S295 S 0.25018 0.78392 0.83505 0.0
N296 N 0.21821 0.75286 0.86981 0.0
N297 N 0.27233 0.80814 0.89493 0.0
C298 C 0.25381 0.79145 0.94708 0.0
C299 C 0.2246 0.76141 0.9334 0.0
C300 C 0.61069 0.16033 0.80982 0.0
C301 C 0.59124 0.16131 0.75914 0.0
C302 C 0.6016 0.15935 0.87514 0.0
C303 C 0.57307 0.16 0.89255 0.0
H304 H 0.63211 0.15838 0.79898 0.0
H305 H 0.61654 0.15698 0.91223 0.0
S306 S 0.51588 0.16664 0.77847 0.0
N307 N 0.54357 0.16564 0.73097 0.0
N308 N 0.52695 0.1646 0.85358 0.0
C309 C 0.55463 0.16326 0.84251 0.0
C310 C 0.56357 0.16366 0.7759 0.0
C311 C 0.449 0.60595 1.00298 0.0
C312 C 0.42991 0.58529 0.9522 0.0
C313 C 0.44034 0.59729 0.06834 0.0
C314 C 0.41189 0.56797 0.08554 0.0
H315 H 0.47177 0.62811 0.99236 0.0
H316 H 0.45668 0.61323 0.10569 0.0
S317 S 0.35148 0.50732 0.97054 0.0
N318 N 0.37988 0.53551 0.92339 0.0
N319 N 0.36322 0.51963 0.04581 0.0
C320 C 0.39147 0.54819 0.03509 0.0
C321 C 0.4006 0.55672 0.96858 0.0
C322 C 0.84086 0.44992 0.15779 0.0
C323 C 0.84124 0.43017 0.10696 0.0
C324 C 0.84097 0.44133 0.22311 0.0
C325 C 0.84079 0.41235 0.24025 0.0
H326 H 0.8425 0.47316 0.14722 0.0
H327 H 0.84247 0.45821 0.26043 0.0
S328 S 0.83733 0.35009 0.12527 0.0
N329 N 0.83843 0.3789 0.07812 0.0
N330 N 0.83789 0.36243 0.20056 0.0
C331 C 0.83873 0.39124 0.18984 0.0
C332 C 0.83919 0.40026 0.12333 0.0
C333 C 0.40696 0.84638 0.39043 0.0
C334 C 0.43572 0.84615 0.40761 0.0
C335 C 0.39821 0.8461 0.3251 0.0
C336 C 0.41824 0.84631 0.27426 0.0
H337 H 0.39151 0.84778 0.42776 0.0
H338 H 0.3765 0.84754 0.31448 0.0
S339 S 0.4946 0.84277 0.29271 0.0
N340 N 0.48284 0.84342 0.36798 0.0
N341 N 0.46685 0.84372 0.24551 0.0
C342 C 0.44626 0.84454 0.29068 0.0
C343 C 0.45485 0.84421 0.35722 0.0
C344 C 0.61119 0.45349 0.53599 0.0
C345 C 0.59196 0.43293 0.58681 0.0
C346 C 0.60222 0.44518 0.4707 0.0
C347 C 0.57403 0.41566 0.45347 0.0
H348 H 0.63235 0.47706 0.54666 0.0
H349 H 0.61698 0.46255 0.43349 0.0
S350 S 0.5175 0.35149 0.56803 0.0
N351 N 0.54484 0.38054 0.61533 0.0
N352 N 0.52846 0.36458 0.49283 0.0
C353 C 0.5558 0.3939 0.5037 0.0
C354 C 0.56461 0.40263 0.57026 0.0
C355 C 0.15616 0.55107 0.6392 0.0
C356 C 0.15748 0.57171 0.58858 0.0
C357 C 0.15527 0.55916 0.70459 0.0
C358 C 0.15631 0.58852 0.7222 0.0
H359 H 0.15414 0.52769 0.62828 0.0
H360 H 0.15288 0.5418 0.74159 0.0
S361 S 0.16339 0.65267 0.60834 0.0
N362 N 0.16215 0.62392 0.5607 0.0
N363 N 0.16122 0.63941 0.68338 0.0
C364 C 0.15958 0.61026 0.67218 0.0
C365 C 0.15993 0.60177 0.60551 0.0
C366 C 0.46943 0.01937 0.08093 0.0
C367 C 0.45311 0.03742 0.08414 0.0
C368 C 0.45227 0.98522 0.08159 0.0
C369 C 0.41792 0.9674 0.08459 0.0
H370 H 0.49588 0.03168 0.07885 0.0
H371 H 0.46623 0.97273 0.0789 0.0
S372 S 0.36321 1.00266 0.09304 0.0
N373 N 0.40041 0.03484 0.09046 0.0
N374 N 0.36799 0.97033 0.09051 0.0
C375 C 0.4011 0.98499 0.08725 0.0
C376 C 0.41871 0.02001 0.08742 0.0
C377 C 0.46946 0.45035 0.26825 0.0
C378 C 0.45353 0.41616 0.26093 0.0
C379 C 0.45205 0.46707 0.26896 0.0
C380 C 0.41778 0.45042 0.26316 0.0
H381 H 0.49582 0.4646 0.27278 0.0
H382 H 0.46574 0.49338 0.27502 0.0
S383 S 0.36403 0.36081 0.24294 0.0
N384 N 0.40129 0.36608 0.24733 0.0
N385 N 0.36837 0.39763 0.24966 0.0
C386 C 0.40134 0.41618 0.25601 0.0
C387 C 0.41924 0.39906 0.25458 0.0
C388 C 0.01965 0.42155 0.42619 0.0
C389 C 0.03683 0.45371 0.40217 0.0
C390 C 0.98529 0.40433 0.42889 0.0
C391 C 0.96695 0.41855 0.40687 0.0
H392 H 0.03283 0.40996 0.44469 0.0
H393 H 0.97313 0.38004 0.44987 0.0
S394 S 1.00061 0.50055 0.33066 0.0
N395 N 0.03308 0.49795 0.35032 0.0
N396 N 0.96889 0.4657 0.35418 0.0
C397 C 0.984 0.45015 0.37969 0.0
C398 C 0.01883 0.4677 0.3777 0.0
C399 C 0.53791 0.98571 0.59382 0.0
C400 C 0.55434 0.96777 0.59532 0.0
C401 C 0.555 0.01984 0.59104 0.0
C402 C 0.58939 0.03774 0.58891 0.0
H403 H 0.51145 0.97337 0.59531 0.0
H404 H 0.54088 0.03218 0.58963 0.0
S405 S 0.64434 1.0026 0.59188 0.0
N406 N 0.60715 0.97045 0.59508 0.0
N407 N 0.63943 0.03485 0.58899 0.0
C408 C 0.60629 0.0202 0.59055 0.0
C409 C 0.58876 0.98522 0.59402 0.0
C410 C 0.55465 0.53683 0.76994 0.0
C411 C 0.58886 0.55334 0.76272 0.0
C412 C 0.53731 0.55362 0.7695 0.0
C413 C 0.55324 0.58775 0.76103 0.0
H414 H 0.54097 0.51057 0.77691 0.0
H415 H 0.51099 0.53946 0.77511 0.0
S416 S 0.64259 0.64273 0.7392 0.0
N417 N 0.63821 0.60592 0.74674 0.0
N418 N 0.60543 0.63761 0.74489 0.0
C419 C 0.58747 0.60471 0.75334 0.0
C420 C 0.6053 0.58751 0.7545 0.0
C421 C 0.02047 0.60184 0.91392 0.0
C422 C 0.03797 0.58617 0.93153 0.0
C423 C 0.98609 0.58496 0.91517 0.0
C424 C 0.96808 0.552 0.93515 0.0
H425 H 0.03338 0.62695 0.89716 0.0
H426 H 0.97361 0.59763 0.89881 0.0
S427 S 1.00316 0.5018 0.99553 0.0
N428 N 0.03523 0.53713 0.97541 0.0
N429 N 0.97103 0.50562 0.97936 0.0
C430 C 0.98562 0.53678 0.95634 0.0
C431 C 0.02044 0.55379 0.95406 0.0
loop_
_geom_bond_atom_site_label_1
_geom_bond_atom_site_label_2
_geom_bond_distance
_geom_bond_site_symmetry_2
_ccdc_geom_bond_type
O0 Cd1 2.223 . S
O0 C8 1.315 . S
Cd1 O0 2.223 . S
Cd1 O4 2.297 1_554 S
Cd1 O5 2.439 1_554 S
Cd1 O11 2.240 . S
Cd2 O3 2.240 . S
Cd2 O10 2.223 . S
Cd2 O12 2.297 . S
Cd2 O13 2.439 . S
O3 Cd2 2.240 . S
O3 C8 1.279 . S
O4 Cd1 2.297 1_556 S
O4 C6 1.247 . S
O5 Cd1 2.439 1_556 S
O5 C6 1.208 . S
C6 O4 1.247 . S
C6 O5 1.208 . S
C7 O12 1.247 . S
C7 O13 1.208 . S
C8 O0 1.315 . S
C8 O3 1.279 . S
C9 O10 1.315 . S
C9 O11 1.279 . S
O10 Cd2 2.223 . S
O10 C9 1.315 . S
O11 Cd1 2.240 . S
O11 C9 1.279 . S
O12 Cd2 2.297 . S
O12 C7 1.247 . S
O13 Cd2 2.439 . S
O13 C7 1.208 . S
O14 Cd15 2.223 . S
O14 C22 1.315 . S
Cd15 O14 2.223 . S
Cd15 O18 2.297 . S
Cd15 O19 2.439 . S
Cd15 O25 2.240 . S
Cd16 O17 2.240 . S
Cd16 O24 2.223 . S
Cd16 O26 2.297 . S
Cd16 O27 2.439 . S
O17 Cd16 2.240 . S
O17 C22 1.279 . S
O18 Cd15 2.297 . S
O18 C20 1.247 . S
O19 Cd15 2.439 . S
O19 C20 1.208 . S
C20 O18 1.247 . S
C20 O19 1.208 . S
C21 O26 1.247 . S
C21 O27 1.208 . S
C22 O14 1.315 . S
C22 O17 1.279 . S
C23 O24 1.315 . S
C23 O25 1.279 . S
O24 Cd16 2.223 . S
O24 C23 1.315 . S
O25 Cd15 2.240 . S
O25 C23 1.279 . S
O26 Cd16 2.297 . S
O26 C21 1.247 . S
O27 Cd16 2.439 . S
O27 C21 1.208 . S
O28 Cd29 2.223 . S
O28 C36 1.315 . S
Cd29 O28 2.223 . S
Cd29 O32 2.297 . S
Cd29 O33 2.439 . S
Cd29 O39 2.240 . S
Cd30 O31 2.240 . S
Cd30 O38 2.223 . S
Cd30 O40 2.297 . S
Cd30 O41 2.439 . S
O31 Cd30 2.240 . S
O31 C36 1.279 . S
O32 Cd29 2.297 . S
O32 C34 1.247 . S
O33 Cd29 2.439 . S
O33 C34 1.208 . S
C34 O32 1.247 . S
C34 O33 1.208 . S
C35 O40 1.247 . S
C35 O41 1.208 . S
C36 O28 1.315 . S
C36 O31 1.279 . S
C37 O38 1.315 . S
C37 O39 1.279 . S
O38 Cd30 2.223 . S
O38 C37 1.315 . S
O39 Cd29 2.240 . S
O39 C37 1.279 . S
O40 Cd30 2.297 . S
O40 C35 1.247 . S
O41 Cd30 2.439 . S
O41 C35 1.208 . S
O42 Cd43 2.223 . S
O42 C50 1.315 . S
Cd43 O42 2.223 . S
Cd43 O46 2.297 . S
Cd43 O47 2.439 . S
Cd43 O53 2.240 . S
Cd44 O45 2.240 . S
Cd44 O52 2.223 . S
Cd44 O54 2.297 . S
Cd44 O55 2.439 . S
O45 Cd44 2.240 . S
O45 C50 1.279 . S
O46 Cd43 2.297 . S
O46 C48 1.247 . S
O47 Cd43 2.439 . S
O47 C48 1.208 . S
C48 O46 1.247 . S
C48 O47 1.208 . S
C49 O54 1.247 . S
C49 O55 1.208 . S
C50 O42 1.315 . S
C50 O45 1.279 . S
C51 O52 1.315 . S
C51 O53 1.279 . S
O52 Cd44 2.223 . S
O52 C51 1.315 . S
O53 Cd43 2.240 . S
O53 C51 1.279 . S
O54 Cd44 2.297 . S
O54 C49 1.247 . S
O55 Cd44 2.439 . S
O55 C49 1.208 . S
O56 Cd57 2.223 . S
O56 C64 1.315 . S
Cd57 O56 2.223 . S
Cd57 O60 2.297 . S
Cd57 O61 2.439 . S
Cd57 O67 2.240 . S
Cd58 O59 2.240 . S
Cd58 O66 2.223 . S
Cd58 O68 2.297 . S
Cd58 O69 2.439 . S
O59 Cd58 2.240 . S
O59 C64 1.279 . S
O60 Cd57 2.297 . S
O60 C62 1.247 . S
O61 Cd57 2.439 . S
O61 C62 1.208 . S
C62 O60 1.247 . S
C62 O61 1.208 . S
C63 O68 1.247 . S
C63 O69 1.208 . S
C64 O56 1.315 . S
C64 O59 1.279 . S
C65 O66 1.315 . S
C65 O67 1.279 . S
O66 Cd58 2.223 . S
O66 C65 1.315 . S
O67 Cd57 2.240 . S
O67 C65 1.279 . S
O68 Cd58 2.297 . S
O68 C63 1.247 . S
O69 Cd58 2.439 . S
O69 C63 1.208 . S
O70 Cd71 2.223 . S
O70 C78 1.315 . S
Cd71 O70 2.223 . S
Cd71 O74 2.297 . S
Cd71 O75 2.439 . S
Cd71 O81 2.240 . S
Cd72 O73 2.240 . S
Cd72 O80 2.223 1_556 S
Cd72 O82 2.297 . S
Cd72 O83 2.439 . S
O73 Cd72 2.240 . S
O73 C78 1.279 . S
O74 Cd71 2.297 . S
O74 C76 1.247 . S
O75 Cd71 2.439 . S
O75 C76 1.208 . S
C76 O74 1.247 . S
C76 O75 1.208 . S
C77 O82 1.247 . S
C77 O83 1.208 . S
C78 O70 1.315 . S
C78 O73 1.279 . S
C79 O80 1.315 . S
C79 O81 1.279 1_554 S
O80 Cd72 2.223 1_554 S
O80 C79 1.315 . S
O81 Cd71 2.240 . S
O81 C79 1.279 1_556 S
O82 Cd72 2.297 . S
O82 C77 1.247 . S
O83 Cd72 2.439 . S
O83 C77 1.208 . S
O84 Cd85 2.223 . S
O84 C92 1.315 . S
Cd85 O84 2.223 . S
Cd85 O88 2.297 1_556 S
Cd85 O89 2.439 . S
Cd85 O95 2.240 . S
Cd86 O87 2.240 . S
Cd86 O94 2.223 . S
Cd86 O96 2.297 . S
Cd86 O97 2.439 . S
O87 Cd86 2.240 . S
O87 C92 1.279 . S
O88 Cd85 2.297 1_554 S
O88 C90 1.247 . S
O89 Cd85 2.439 . S
O89 C90 1.208 1_556 S
C90 O88 1.247 . S
C90 O89 1.208 1_554 S
C91 O96 1.247 . S
C91 O97 1.208 . S
C92 O84 1.315 . S
C92 O87 1.279 . S
C93 O94 1.315 . S
C93 O95 1.279 . S
O94 Cd86 2.223 . S
O94 C93 1.315 . S
O95 Cd85 2.240 . S
O95 C93 1.279 . S
O96 Cd86 2.297 . S
O96 C91 1.247 . S
O97 Cd86 2.439 . S
O97 C91 1.208 . S
O98 Cd99 2.223 . S
O98 C106 1.315 . S
Cd99 O98 2.223 . S
Cd99 O102 2.297 . S
Cd99 O103 2.439 . S
Cd99 O109 2.240 1_554 S
Cd100 O101 2.242 . S
Cd100 O108 2.221 1_554 S
Cd100 O110 2.296 1_554 S
Cd100 O111 2.440 . S
O101 Cd100 2.242 . S
O101 C106 1.279 . S
O102 Cd99 2.297 . S
O102 C104 1.247 . S
O103 Cd99 2.439 . S
O103 C104 1.208 . S
C104 O102 1.247 . S
C104 O103 1.208 . S
C105 O110 1.247 1_554 S
C105 O111 1.208 . S
C106 O98 1.315 . S
C106 O101 1.279 . S
C107 O108 1.315 . S
C107 O109 1.279 . S
O108 Cd100 2.221 1_556 S
O108 C107 1.315 . S
O109 Cd99 2.240 1_556 S
O109 C107 1.279 . S
O110 Cd100 2.296 1_556 S
O110 C105 1.247 1_556 S
O111 Cd100 2.440 . S
O111 C105 1.208 . S
O112 Cd113 2.223 . S
O112 C120 1.315 . S
Cd113 O112 2.223 . S
Cd113 O116 2.297 . S
Cd113 O117 2.439 . S
Cd113 O123 2.240 . S
Cd114 O115 2.240 . S
Cd114 O122 2.223 . S
Cd114 O124 2.297 . S
Cd114 O125 2.439 . S
O115 Cd114 2.240 . S
O115 C120 1.279 . S
O116 Cd113 2.297 . S
O116 C118 1.247 . S
O117 Cd113 2.439 . S
O117 C118 1.208 . S
C118 O116 1.247 . S
C118 O117 1.208 . S
C119 O124 1.247 . S
C119 O125 1.208 . S
C120 O112 1.315 . S
C120 O115 1.279 . S
C121 O122 1.315 . S
C121 O123 1.279 . S
O122 Cd114 2.223 . S
O122 C121 1.315 . S
O123 Cd113 2.240 . S
O123 C121 1.279 . S
O124 Cd114 2.297 . S
O124 C119 1.247 . S
O125 Cd114 2.439 . S
O125 C119 1.208 . S
O126 Cd127 2.223 . S
O126 C134 1.315 . S
Cd127 O126 2.223 . S
Cd127 O130 2.297 . S
Cd127 O131 2.439 . S
Cd127 O137 2.240 . S
Cd128 O129 2.240 . S
Cd128 O136 2.223 . S
Cd128 O138 2.297 . S
Cd128 O139 2.439 . S
O129 Cd128 2.240 . S
O129 C134 1.279 . S
O130 Cd127 2.297 . S
O130 C132 1.247 . S
O131 Cd127 2.439 . S
O131 C132 1.208 . S
C132 O130 1.247 . S
C132 O131 1.208 . S
C133 O138 1.247 . S
C133 O139 1.208 . S
C134 O126 1.315 . S
C134 O129 1.279 . S
C135 O136 1.315 . S
C135 O137 1.279 . S
O136 Cd128 2.223 . S
O136 C135 1.315 . S
O137 Cd127 2.240 . S
O137 C135 1.279 . S
O138 Cd128 2.297 . S
O138 C133 1.247 . S
O139 Cd128 2.439 . S
O139 C133 1.208 . S
O140 Cd141 2.223 . S
O140 C148 1.315 . S
Cd141 O140 2.223 . S
Cd141 O144 2.297 . S
Cd141 O145 2.439 . S
Cd141 O151 2.240 . S
Cd142 O143 2.240 . S
Cd142 O150 2.223 . S
Cd142 O152 2.297 . S
Cd142 O153 2.439 . S
O143 Cd142 2.240 . S
O143 C148 1.279 . S
O144 Cd141 2.297 . S
O144 C146 1.247 . S
O145 Cd141 2.439 . S
O145 C146 1.208 . S
C146 O144 1.247 . S
C146 O145 1.208 . S
C147 O152 1.247 . S
C147 O153 1.208 . S
C148 O140 1.315 . S
C148 O143 1.279 . S
C149 O150 1.315 . S
C149 O151 1.279 . S
O150 Cd142 2.223 . S
O150 C149 1.315 . S
O151 Cd141 2.240 . S
O151 C149 1.279 . S
O152 Cd142 2.297 . S
O152 C147 1.247 . S
O153 Cd142 2.439 . S
O153 C147 1.208 . S
O154 Cd155 2.223 . S
O154 C162 1.315 . S
Cd155 O154 2.223 . S
Cd155 O158 2.297 . S
Cd155 O159 2.439 . S
Cd155 O165 2.240 . S
Cd156 O157 2.240 . S
Cd156 O164 2.223 . S
Cd156 O166 2.297 . S
Cd156 O167 2.439 . S
O157 Cd156 2.240 . S
O157 C162 1.279 . S
O158 Cd155 2.297 . S
O158 C160 1.247 . S
O159 Cd155 2.439 . S
O159 C160 1.208 . S
C160 O158 1.247 . S
C160 O159 1.208 . S
C161 O166 1.247 . S
C161 O167 1.208 . S
C162 O154 1.315 . S
C162 O157 1.279 . S
C163 O164 1.315 . S
C163 O165 1.279 . S
O164 Cd156 2.223 . S
O164 C163 1.315 . S
O165 Cd155 2.240 . S
O165 C163 1.279 . S
O166 Cd156 2.297 . S
O166 C161 1.247 . S
O167 Cd156 2.439 . S
O167 C161 1.208 . S
C168 C169 1.369 . S
C168 C170 1.419 . S
C168 H172 0.930 . S
C169 C168 1.369 . S
C169 C178 1.429 . S
C170 C168 1.419 . S
C170 C171 1.363 . S
C170 H173 0.929 . S
C171 C170 1.363 . S
C171 C177 1.428 . S
H172 C168 0.930 . S
H173 C170 0.929 . S
S174 N175 1.613 . S
S174 N176 1.610 . S
N175 S174 1.613 . S
N175 C178 1.350 . S
N176 S174 1.610 . S
N176 C177 1.351 . S
C177 C171 1.428 . S
C177 N176 1.351 . S
C177 C178 1.434 . S
C178 C169 1.429 . S
C178 N175 1.350 . S
C178 C177 1.434 . S
C179 C180 1.369 . S
C179 C181 1.419 . S
C179 H183 0.930 . S
C180 C179 1.369 . S
C180 C189 1.429 . S
C181 C179 1.419 . S
C181 C182 1.363 . S
C181 H184 0.929 . S
C182 C181 1.363 . S
C182 C188 1.428 . S
H183 C179 0.930 . S
H184 C181 0.929 . S
S185 N186 1.613 . S
S185 N187 1.610 . S
N186 S185 1.613 . S
N186 C189 1.350 . S
N187 S185 1.610 . S
N187 C188 1.351 . S
C188 C182 1.428 . S
C188 N187 1.351 . S
C188 C189 1.434 . S
C189 C180 1.429 . S
C189 N186 1.350 . S
C189 C188 1.434 . S
C190 C191 1.369 . S
C190 C192 1.419 . S
C190 H194 0.930 . S
C191 C190 1.369 . S
C191 C200 1.429 . S
C192 C190 1.419 . S
C192 C193 1.363 . S
C192 H195 0.929 . S
C193 C192 1.363 . S
C193 C199 1.428 . S
H194 C190 0.930 . S
H195 C192 0.929 . S
S196 N197 1.613 . S
S196 N198 1.610 . S
N197 S196 1.613 . S
N197 C200 1.350 . S
N198 S196 1.610 . S
N198 C199 1.351 . S
C199 C193 1.428 . S
C199 N198 1.351 . S
C199 C200 1.434 . S
C200 C191 1.429 . S
C200 N197 1.350 . S
C200 C199 1.434 . S
C201 C202 1.369 . S
C201 C203 1.419 . S
C201 H205 0.930 . S
C202 C201 1.369 . S
C202 C211 1.429 . S
C203 C201 1.419 . S
C203 C204 1.363 . S
C203 H206 0.929 . S
C204 C203 1.363 . S
C204 C210 1.428 . S
H205 C201 0.930 . S
H206 C203 0.929 . S
S207 N208 1.613 . S
S207 N209 1.610 . S
N208 S207 1.613 . S
N208 C211 1.350 . S
N209 S207 1.610 . S
N209 C210 1.351 . S
C210 C204 1.428 . S
C210 N209 1.351 . S
C210 C211 1.434 . S
C211 C202 1.429 . S
C211 N208 1.350 . S
C211 C210 1.434 . S
C212 C213 1.369 1_556 S
C212 C214 1.419 . S
C212 H216 0.930 . S
C213 C212 1.369 1_554 S
C213 C222 1.429 . S
C214 C212 1.419 . S
C214 C215 1.363 . S
C214 H217 0.929 . S
C215 C214 1.363 . S
C215 C221 1.428 . S
H216 C212 0.930 . S
H217 C214 0.929 . S
S218 N219 1.613 . S
S218 N220 1.610 1_554 S
N219 S218 1.613 . S
N219 C222 1.350 . S
N220 S218 1.610 1_556 S
N220 C221 1.351 . S
C221 C215 1.428 . S
C221 N220 1.351 . S
C221 C222 1.434 1_556 S
C222 C213 1.429 . S
C222 N219 1.350 . S
C222 C221 1.434 1_554 S
C223 C224 1.369 . S
C223 C225 1.419 . S
C223 H227 0.930 . S
C224 C223 1.369 . S
C224 C233 1.429 . S
C225 C223 1.419 . S
C225 C226 1.363 . S
C225 H228 0.929 . S
C226 C225 1.363 . S
C226 C232 1.428 . S
H227 C223 0.930 . S
H228 C225 0.929 . S
S229 N230 1.613 . S
S229 N231 1.610 . S
N230 S229 1.613 . S
N230 C233 1.350 . S
N231 S229 1.610 . S
N231 C232 1.351 . S
C232 C226 1.428 . S
C232 N231 1.351 . S
C232 C233 1.434 . S
C233 C224 1.429 . S
C233 N230 1.350 . S
C233 C232 1.434 . S
C234 C235 1.369 . S
C234 C236 1.419 . S
C234 H238 0.930 . S
C235 C234 1.369 . S
C235 C244 1.429 . S
C236 C234 1.419 . S
C236 C237 1.363 . S
C236 H239 0.929 . S
C237 C236 1.363 . S
C237 C243 1.428 . S
H238 C234 0.930 . S
H239 C236 0.929 . S
S240 N241 1.613 . S
S240 N242 1.610 . S
N241 S240 1.613 . S
N241 C244 1.350 . S
N242 S240 1.610 . S
N242 C243 1.351 . S
C243 C237 1.428 . S
C243 N242 1.351 . S
C243 C244 1.434 . S
C244 C235 1.429 . S
C244 N241 1.350 . S
C244 C243 1.434 . S
C245 C246 1.369 . S
C245 C247 1.419 . S
C245 H249 0.930 . S
C246 C245 1.369 . S
C246 C255 1.429 . S
C247 C245 1.419 . S
C247 C248 1.363 . S
C247 H250 0.929 . S
C248 C247 1.363 . S
C248 C254 1.428 . S
H249 C245 0.930 . S
H250 C247 0.929 . S
S251 N252 1.613 . S
S251 N253 1.610 . S
N252 S251 1.613 . S
N252 C255 1.350 . S
N253 S251 1.610 . S
N253 C254 1.351 . S
C254 C248 1.428 . S
C254 N253 1.351 . S
C254 C255 1.434 . S
C255 C246 1.429 . S
C255 N252 1.350 . S
C255 C254 1.434 . S
C256 C257 1.369 . S
C256 C258 1.419 . S
C256 H260 0.930 . S
C257 C256 1.369 . S
C257 C266 1.429 . S
C258 C256 1.419 . S
C258 C259 1.363 . S
C258 H261 0.929 . S
C259 C258 1.363 . S
C259 C265 1.428 . S
H260 C256 0.930 . S
H261 C258 0.929 . S
S262 N263 1.613 . S
S262 N264 1.610 . S
N263 S262 1.613 . S
N263 C266 1.350 . S
N264 S262 1.610 . S
N264 C265 1.351 . S
C265 C259 1.428 . S
C265 N264 1.351 . S
C265 C266 1.434 . S
C266 C257 1.429 . S
C266 N263 1.350 . S
C266 C265 1.434 . S
C267 C268 1.369 . S
C267 C269 1.419 . S
C267 H271 0.930 . S
C268 C267 1.369 . S
C268 C277 1.429 . S
C269 C267 1.419 . S
C269 C270 1.363 . S
C269 H272 0.929 . S
C270 C269 1.363 . S
C270 C276 1.428 . S
H271 C267 0.930 . S
H272 C269 0.929 . S
S273 N274 1.613 . S
S273 N275 1.610 . S
N274 S273 1.613 . S
N274 C277 1.350 . S
N275 S273 1.610 . S
N275 C276 1.351 . S
C276 C270 1.428 . S
C276 N275 1.351 . S
C276 C277 1.434 . S
C277 C268 1.429 . S
C277 N274 1.350 . S
C277 C276 1.434 . S
C278 C279 1.369 . S
C278 C280 1.419 . S
C278 H282 0.930 . S
C279 C278 1.369 . S
C279 C288 1.429 . S
C280 C278 1.419 . S
C280 C281 1.363 . S
C280 H283 0.929 . S
C281 C280 1.363 . S
C281 C287 1.428 . S
H282 C278 0.930 . S
H283 C280 0.929 . S
S284 N285 1.613 . S
S284 N286 1.610 . S
N285 S284 1.613 . S
N285 C288 1.350 . S
N286 S284 1.610 . S
N286 C287 1.351 . S
C287 C281 1.428 . S
C287 N286 1.351 . S
C287 C288 1.434 . S
C288 C279 1.429 . S
C288 N285 1.350 . S
C288 C287 1.434 . S
C289 C290 1.369 1_554 S
C289 C291 1.419 . S
C289 H293 0.930 . S
C290 C289 1.369 1_556 S
C290 C299 1.429 . S
C291 C289 1.419 . S
C291 C292 1.363 1_554 S
C291 H294 0.929 . S
C292 C291 1.363 1_556 S
C292 C298 1.428 . S
H293 C289 0.930 . S
H294 C291 0.929 . S
S295 N296 1.613 . S
S295 N297 1.610 . S
N296 S295 1.613 . S
N296 C299 1.350 . S
N297 S295 1.610 . S
N297 C298 1.351 . S
C298 C292 1.428 . S
C298 N297 1.351 . S
C298 C299 1.434 . S
C299 C290 1.429 . S
C299 N296 1.350 . S
C299 C298 1.434 . S
C300 C301 1.369 . S
C300 C302 1.419 . S
C300 H304 0.930 . S
C301 C300 1.369 . S
C301 C310 1.429 . S
C302 C300 1.419 . S
C302 C303 1.363 . S
C302 H305 0.929 . S
C303 C302 1.363 . S
C303 C309 1.428 . S
H304 C300 0.930 . S
H305 C302 0.929 . S
S306 N307 1.613 . S
S306 N308 1.610 . S
N307 S306 1.613 . S
N307 C310 1.350 . S
N308 S306 1.610 . S
N308 C309 1.351 . S
C309 C303 1.428 . S
C309 N308 1.351 . S
C309 C310 1.434 . S
C310 C301 1.429 . S
C310 N307 1.350 . S
C310 C309 1.434 . S
C311 C312 1.369 . S
C311 C313 1.419 1_556 S
C311 H315 0.930 . S
C312 C311 1.369 . S
C312 C321 1.429 . S
C313 C311 1.419 1_554 S
C313 C314 1.363 . S
C313 H316 0.929 . S
C314 C313 1.363 . S
C314 C320 1.428 1_554 S
H315 C311 0.930 . S
H316 C313 0.929 . S
S317 N318 1.613 . S
S317 N319 1.610 . S
N318 S317 1.613 . S
N318 C321 1.350 . S
N319 S317 1.610 . S
N319 C320 1.351 . S
C320 C314 1.428 1_556 S
C320 N319 1.351 . S
C320 C321 1.434 . S
C321 C312 1.429 . S
C321 N318 1.350 . S
C321 C320 1.434 . S
C322 C323 1.369 . S
C322 C324 1.419 . S
C322 H326 0.930 . S
C323 C322 1.369 . S
C323 C332 1.429 . S
C324 C322 1.419 . S
C324 C325 1.363 . S
C324 H327 0.929 . S
C325 C324 1.363 . S
C325 C331 1.428 . S
H326 C322 0.930 . S
H327 C324 0.929 . S
S328 N329 1.613 . S
S328 N330 1.610 . S
N329 S328 1.613 . S
N329 C332 1.350 . S
N330 S328 1.610 . S
N330 C331 1.351 . S
C331 C325 1.428 . S
C331 N330 1.351 . S
C331 C332 1.434 . S
C332 C323 1.429 . S
C332 N329 1.350 . S
C332 C331 1.434 . S
C333 C334 1.369 . S
C333 C335 1.419 . S
C333 H337 0.930 . S
C334 C333 1.369 . S
C334 C343 1.429 . S
C335 C333 1.419 . S
C335 C336 1.363 . S
C335 H338 0.929 . S
C336 C335 1.363 . S
C336 C342 1.428 . S
H337 C333 0.930 . S
H338 C335 0.929 . S
S339 N340 1.613 . S
S339 N341 1.610 . S
N340 S339 1.613 . S
N340 C343 1.350 . S
N341 S339 1.610 . S
N341 C342 1.351 . S
C342 C336 1.428 . S
C342 N341 1.351 . S
C342 C343 1.434 . S
C343 C334 1.429 . S
C343 N340 1.350 . S
C343 C342 1.434 . S
C344 C345 1.369 . S
C344 C346 1.419 . S
C344 H348 0.930 . S
C345 C344 1.369 . S
C345 C354 1.429 . S
C346 C344 1.419 . S
C346 C347 1.363 . S
C346 H349 0.929 . S
C347 C346 1.363 . S
C347 C353 1.428 . S
H348 C344 0.930 . S
H349 C346 0.929 . S
S350 N351 1.613 . S
S350 N352 1.610 . S
N351 S350 1.613 . S
N351 C354 1.350 . S
N352 S350 1.610 . S
N352 C353 1.351 . S
C353 C347 1.428 . S
C353 N352 1.351 . S
C353 C354 1.434 . S
C354 C345 1.429 . S
C354 N351 1.350 . S
C354 C353 1.434 . S
C355 C356 1.369 . S
C355 C357 1.419 . S
C355 H359 0.930 . S
C356 C355 1.369 . S
C356 C365 1.429 . S
C357 C355 1.419 . S
C357 C358 1.363 . S
C357 H360 0.929 . S
C358 C357 1.363 . S
C358 C364 1.428 . S
H359 C355 0.930 . S
H360 C357 0.929 . S
S361 N362 1.613 . S
S361 N363 1.610 . S
N362 S361 1.613 . S
N362 C365 1.350 . S
N363 S361 1.610 . S
N363 C364 1.351 . S
C364 C358 1.428 . S
C364 N363 1.351 . S
C364 C365 1.434 . S
C365 C356 1.429 . S
C365 N362 1.350 . S
C365 C364 1.434 . S
C366 C367 1.369 . S
C366 C368 1.419 1_545 S
C366 H370 0.930 . S
C367 C366 1.369 . S
C367 C376 1.429 . S
C368 C366 1.419 1_565 S
C368 C369 1.363 . S
C368 H371 0.929 1_554 S
C369 C368 1.363 . S
C369 C375 1.428 . S
H370 C366 0.930 . S
H371 C368 0.929 1_556 S
S372 N373 1.613 1_565 S
S372 N374 1.610 . S
N373 S372 1.613 1_545 S
N373 C376 1.350 . S
N374 S372 1.610 . S
N374 C375 1.351 . S
C375 C369 1.428 . S
C375 N374 1.351 . S
C375 C376 1.434 1_565 S
C376 C367 1.429 . S
C376 N373 1.350 . S
C376 C375 1.434 1_545 S
C377 C378 1.369 . S
C377 C379 1.419 . S
C377 H381 0.930 . S
C378 C377 1.369 . S
C378 C387 1.429 . S
C379 C377 1.419 . S
C379 C380 1.363 . S
C379 H382 0.929 . S
C380 C379 1.363 . S
C380 C386 1.428 . S
H381 C377 0.930 . S
H382 C379 0.929 . S
S383 N384 1.613 . S
S383 N385 1.610 . S
N384 S383 1.613 . S
N384 C387 1.350 . S
N385 S383 1.610 . S
N385 C386 1.351 . S
C386 C380 1.428 . S
C386 N385 1.351 . S
C386 C387 1.434 . S
C387 C378 1.429 . S
C387 N384 1.350 . S
C387 C386 1.434 . S
C388 C389 1.369 . S
C388 C390 1.419 1_455 S
C388 H392 0.930 . S
C389 C388 1.369 . S
C389 C398 1.429 . S
C390 C388 1.419 1_655 S
C390 C391 1.363 . S
C390 H393 0.929 . S
C391 C390 1.363 . S
C391 C397 1.428 . S
H392 C388 0.930 . S
H393 C390 0.929 . S
S394 N395 1.613 1_655 S
S394 N396 1.610 . S
N395 S394 1.613 1_455 S
N395 C398 1.350 . S
N396 S394 1.610 . S
N396 C397 1.351 . S
C397 C391 1.428 . S
C397 N396 1.351 . S
C397 C398 1.434 1_655 S
C398 C389 1.429 . S
C398 N395 1.350 . S
C398 C397 1.434 1_455 S
C399 C400 1.369 . S
C399 C401 1.419 1_565 S
C399 H403 0.930 . S
C400 C399 1.369 . S
C400 C409 1.429 . S
C401 C399 1.419 1_545 S
C401 C402 1.363 . S
C401 H404 0.929 . S
C402 C401 1.363 . S
C402 C408 1.428 . S
H403 C399 0.930 . S
H404 C401 0.929 . S
S405 N406 1.613 . S
S405 N407 1.610 1_565 S
N406 S405 1.613 . S
N406 C409 1.350 . S
N407 S405 1.610 1_545 S
N407 C408 1.351 . S
C408 C402 1.428 . S
C408 N407 1.351 . S
C408 C409 1.434 1_545 S
C409 C400 1.429 . S
C409 N406 1.350 . S
C409 C408 1.434 1_565 S
C410 C411 1.369 . S
C410 C412 1.419 . S
C410 H414 0.930 . S
C411 C410 1.369 . S
C411 C420 1.429 . S
C412 C410 1.419 . S
C412 C413 1.363 . S
C412 H415 0.929 . S
C413 C412 1.363 . S
C413 C419 1.428 . S
H414 C410 0.930 . S
H415 C412 0.929 . S
S416 N417 1.613 . S
S416 N418 1.610 . S
N417 S416 1.613 . S
N417 C420 1.350 . S
N418 S416 1.610 . S
N418 C419 1.351 . S
C419 C413 1.428 . S
C419 N418 1.351 . S
C419 C420 1.434 . S
C420 C411 1.429 . S
C420 N417 1.350 . S
C420 C419 1.434 . S
C421 C422 1.369 . S
C421 C423 1.419 1_455 S
C421 H425 0.930 . S
C422 C421 1.369 . S
C422 C431 1.429 . S
C423 C421 1.419 1_655 S
C423 C424 1.363 . S
C423 H426 0.929 . S
C424 C423 1.363 . S
C424 C430 1.428 . S
H425 C421 0.930 . S
H426 C423 0.929 . S
S427 N428 1.613 1_655 S
S427 N429 1.610 1_554 S
N428 S427 1.613 1_455 S
N428 C431 1.350 1_554 S
N429 S427 1.610 1_556 S
N429 C430 1.351 . S
C430 C424 1.428 . S
C430 N429 1.351 . S
C430 C431 1.434 1_655 S
C431 C422 1.429 . S
C431 N428 1.350 1_556 S
C431 C430 1.434 1_455 S
C169 C9 1.674 . S
C171 C149 1.670 . S
C180 C23 1.670 . S
C182 C163 1.674 . S
C191 C93 1.673 . S
C193 C37 1.670 . S
C202 C51 1.673 . S
C204 C107 1.670 . S
C213 C121 1.674 . S
C215 C65 1.671 . S
C224 C135 1.670 . S
C226 C79 1.673 . S
C235 C119 1.429 . S
C237 C7 1.425 . S
C246 C21 1.429 . S
C248 C133 1.428 . S
C257 C147 1.426 . S
C259 C35 1.425 . S
C268 C49 1.430 . S
C270 C161 1.428 . S
C279 C63 1.426 . S
C281 C91 1.429 . S
C290 C77 1.428 . S
C292 C105 1.425 1_556 S
C301 C146 1.356 . S
C303 C6 1.357 . S
C312 C160 1.351 . S
C314 C20 1.358 . S
C323 C90 1.352 . S
C325 C34 1.358 . S
C334 C48 1.359 . S
C336 C104 1.352 . S
C345 C62 1.352 . S
C347 C118 1.358 . S
C356 C132 1.354 . S
C358 C76 1.358 . S
C367 C8 1.344 . S
C369 C106 1.338 . S
C378 C120 1.345 . S
C380 C22 1.340 . S
C389 C134 1.337 . S
C391 C36 1.335 . S
C400 C50 1.340 . S
C402 C148 1.344 . S
C411 C64 1.339 . S
C413 C162 1.343 . S
C422 C78 1.338 . S
C424 C92 1.335 . S
