# Generated by pormake.
# Topology upa, (4)-cn, num edge types: 1
# Building blocks:
#     Node 0, Type 0, BuildingBlock: GALJAG_clean_sbu_0, # of connection points: 4
#     Node 1, Type 0, BuildingBlock: GALJAG_clean_sbu_0, # of connection points: 4
#     Node 2, Type 0, BuildingBlock: GALJAG_clean_sbu_0, # of connection points: 4
#     Node 3, Type 0, BuildingBlock: GALJAG_clean_sbu_0, # of connection points: 4
#     Node 4, Type 0, BuildingBlock: GALJAG_clean_sbu_0, # of connection points: 4
#     Node 5, Type 0, BuildingBlock: GALJAG_clean_sbu_0, # of connection points: 4
#     Node 6, Type 0, BuildingBlock: GALJAG_clean_sbu_0, # of connection points: 4
#     Node 7, Type 0, BuildingBlock: GALJAG_clean_sbu_0, # of connection points: 4
#     Edge 8, Type (0, 0), BuildingBlock: XIVTED_clean_linker_0, # of connection points: 2
#     Edge 9, Type (0, 0), BuildingBlock: XIVTED_clean_linker_0, # of connection points: 2
#     Edge 10, Type (0, 0), BuildingBlock: XIVTED_clean_linker_0, # of connection points: 2
#     Edge 11, Type (0, 0), BuildingBlock: XIVTED_clean_linker_0, # of connection points: 2
#     Edge 12, Type (0, 0), BuildingBlock: XIVTED_clean_linker_0, # of connection points: 2
#     Edge 13, Type (0, 0), BuildingBlock: XIVTED_clean_linker_0, # of connection points: 2
#     Edge 14, Type (0, 0), BuildingBlock: XIVTED_clean_linker_0, # of connection points: 2
#     Edge 15, Type (0, 0), BuildingBlock: XIVTED_clean_linker_0, # of connection points: 2
#     Edge 16, Type (0, 0), BuildingBlock: XIVTED_clean_linker_0, # of connection points: 2
#     Edge 17, Type (0, 0), BuildingBlock: XIVTED_clean_linker_0, # of connection points: 2
#     Edge 18, Type (0, 0), BuildingBlock: XIVTED_clean_linker_0, # of connection points: 2
#     Edge 19, Type (0, 0), BuildingBlock: XIVTED_clean_linker_0, # of connection points: 2
#     Edge 20, Type (0, 0), BuildingBlock: XIVTED_clean_linker_0, # of connection points: 2
#     Edge 21, Type (0, 0), BuildingBlock: XIVTED_clean_linker_0, # of connection points: 2
#     Edge 22, Type (0, 0), BuildingBlock: XIVTED_clean_linker_0, # of connection points: 2
#     Edge 23, Type (0, 0), BuildingBlock: XIVTED_clean_linker_0, # of connection points: 2
# Relax obj value: 0.230
# Max RMSD: 0.125
# Mean RMSD: 0.125
data_MOF--net-upa--node1-GALJAG_clean_sbu_0--edge1-XIVTED_clean_linker_0
_symmetry_space_group_name_H-M    P1
_symmetry_Int_Tables_number       1
_symmetry_cell_setting            triclinic
loop_
_symmetry_equiv_pos_as_xyz
'x, y, z'
_cell_length_a     26.807401
_cell_length_b     26.826746
_cell_length_c     42.759414
_cell_angle_alpha  89.997545
_cell_angle_beta   90.065754
_cell_angle_gamma 90.055272
loop_
_atom_site_label
_atom_site_type_symbol
_atom_site_fract_x
_atom_site_fract_y
_atom_site_fract_z
_atom_type_partial_charge
In0 In 0.20301 0.20961 0.32674 0.0
O1 O 0.21174 0.25876 0.36998 0.0
O2 O 0.23646 0.18342 0.3728 0.0
C3 C 0.13031 0.26843 0.30268 0.0
C4 C 0.29405 0.21161 0.29944 0.0
C5 C 0.14436 0.12793 0.32419 0.0
O6 O 0.1355 0.2604 0.33152 0.0
O7 O 0.16464 0.25051 0.28593 0.0
O8 O 0.1671 0.1442 0.30047 0.0
O9 O 0.15423 0.15056 0.34924 0.0
C10 C 0.23063 0.22464 0.38662 0.0
O11 O 0.26862 0.17218 0.30182 0.0
O12 O 0.27293 0.25024 0.30989 0.0
In13 In 0.29108 0.69391 0.83028 0.0
O14 O 0.3278 0.7647 0.81173 0.0
O15 O 0.25126 0.75284 0.80069 0.0
C16 C 0.37134 0.63383 0.83437 0.0
C17 C 0.26964 0.72637 0.88852 0.0
C18 C 0.23909 0.62119 0.80125 0.0
O19 O 0.36979 0.66966 0.81522 0.0
O20 O 0.33414 0.6305 0.85213 0.0
O21 O 0.23418 0.63077 0.82999 0.0
O22 O 0.26703 0.65101 0.78656 0.0
C23 C 0.28904 0.78085 0.79837 0.0
O24 O 0.23696 0.70697 0.871 0.0
O25 O 0.3123 0.73025 0.87638 0.0
In26 In 0.81395 0.80265 0.32462 0.0
O27 O 0.73626 0.83639 0.31812 0.0
O28 O 0.75225 0.76851 0.29451 0.0
C29 C 0.85724 0.892 0.31363 0.0
C30 C 0.806 0.77751 0.38555 0.0
C31 C 0.88768 0.74281 0.30312 0.0
O32 O 0.83303 0.88279 0.3382 0.0
O33 O 0.85614 0.85763 0.29362 0.0
O34 O 0.88222 0.75338 0.3316 0.0
O35 O 0.8534 0.75893 0.2856 0.0
C36 C 0.72091 0.80247 0.30007 0.0
O37 O 0.77781 0.75841 0.36505 0.0
O38 O 0.8374 0.80827 0.37519 0.0
In39 In 0.70135 0.29643 0.8234 0.0
O40 O 0.66052 0.22771 0.80467 0.0
O41 O 0.73894 0.232 0.79763 0.0
C42 C 0.62792 0.36429 0.82656 0.0
C43 C 0.71419 0.2721 0.88422 0.0
C44 C 0.75332 0.36106 0.78793 0.0
O45 O 0.62092 0.32196 0.8142 0.0
O46 O 0.67073 0.3711 0.83795 0.0
O47 O 0.76682 0.35001 0.81548 0.0
O48 O 0.71678 0.33609 0.77773 0.0
C49 C 0.69922 0.20739 0.79378 0.0
O50 O 0.75106 0.28078 0.86658 0.0
O51 O 0.67238 0.27455 0.8709 0.0
In52 In 0.70279 0.29672 0.17889 0.0
O53 O 0.77572 0.33693 0.19106 0.0
O54 O 0.76766 0.26173 0.20582 0.0
C55 C 0.63756 0.3726 0.17948 0.0
C56 C 0.71815 0.28111 0.11719 0.0
C57 C 0.63926 0.24503 0.21544 0.0
O58 O 0.68164 0.37799 0.18965 0.0
O59 O 0.62771 0.33017 0.1685 0.0
O60 O 0.6489 0.23165 0.18768 0.0
O61 O 0.66522 0.2811 0.22525 0.0
C62 C 0.79482 0.30015 0.205 0.0
O63 O 0.71902 0.24534 0.13646 0.0
O64 O 0.71098 0.32325 0.12922 0.0
In65 In 0.19666 0.19467 0.67658 0.0
O66 O 0.16255 0.26846 0.69189 0.0
O67 O 0.23598 0.25251 0.70773 0.0
C68 C 0.10876 0.14648 0.68216 0.0
C69 C 0.22419 0.22184 0.61819 0.0
C70 C 0.24653 0.11271 0.69576 0.0
O71 O 0.13316 0.16113 0.70566 0.0
O72 O 0.12687 0.15946 0.65624 0.0
O73 O 0.22771 0.11708 0.66886 0.0
O74 O 0.24361 0.15144 0.71255 0.0
C75 C 0.20004 0.28295 0.7072 0.0
O76 O 0.25398 0.20025 0.63666 0.0
O77 O 0.18171 0.23055 0.62947 0.0
In78 In 0.31221 0.71439 0.17741 0.0
O79 O 0.2412 0.67515 0.19319 0.0
O80 O 0.25159 0.75043 0.2075 0.0
C81 C 0.37445 0.63573 0.17457 0.0
C82 C 0.28126 0.73567 0.11876 0.0
C83 C 0.38153 0.76875 0.20791 0.0
O84 O 0.3372 0.63622 0.1926 0.0
O85 O 0.37855 0.67342 0.15726 0.0
O86 O 0.37222 0.77449 0.17916 0.0
O87 O 0.353 0.73855 0.22183 0.0
C88 C 0.22407 0.71215 0.20785 0.0
O89 O 0.29857 0.7688 0.13678 0.0
O90 O 0.27899 0.69267 0.13052 0.0
In91 In 0.79763 0.79733 0.67818 0.0
O92 O 0.83122 0.7333 0.70676 0.0
O93 O 0.75537 0.72722 0.69298 0.0
C94 C 0.88076 0.85271 0.68566 0.0
C95 C 0.79031 0.77007 0.61771 0.0
C96 C 0.73768 0.87358 0.6956 0.0
O97 O 0.85463 0.83891 0.70863 0.0
O98 O 0.86693 0.83547 0.65965 0.0
O99 O 0.75426 0.86837 0.66825 0.0
O100 O 0.74751 0.83774 0.71374 0.0
C101 C 0.79212 0.70711 0.70644 0.0
O102 O 0.753 0.78566 0.63294 0.0
O103 O 0.83031 0.7674 0.63323 0.0
H104 H 0.08334 0.09712 0.37118 0.0
H105 H 0.91938 0.91534 0.26506 0.0
H106 H 0.11148 0.07633 0.27268 0.0
H107 H 0.87723 0.96268 0.35779 0.0
H108 H 0.98964 0.97362 0.26659 0.0
H109 H 0.00951 0.04458 0.36673 0.0
C110 C 0.07432 0.08095 0.34865 0.0
C111 C 0.10369 0.09095 0.32227 0.0
C112 C 0.9646 0.97174 0.28641 0.0
C113 C 0.01862 0.03122 0.3169 0.0
C114 C 0.92428 0.93876 0.28547 0.0
C115 C 0.89257 0.93404 0.31141 0.0
C116 C 0.97343 0.99976 0.3136 0.0
C117 C 0.9008 0.96506 0.33729 0.0
C118 C 0.03183 0.05133 0.34607 0.0
C119 C 0.08995 0.06933 0.29363 0.0
N120 N 0.94077 0.99616 0.33787 0.0
N121 N 0.04833 0.04042 0.29169 0.0
H122 H 0.36441 0.53986 0.85727 0.0
H123 H 0.64488 0.46384 0.82922 0.0
H124 H 0.46587 0.63934 0.80987 0.0
H125 H 0.5261 0.35553 0.82392 0.0
H126 H 0.58274 0.53067 0.83028 0.0
H127 H 0.42666 0.47356 0.85396 0.0
C128 C 0.40005 0.54788 0.84644 0.0
C129 C 0.41027 0.59516 0.83394 0.0
C130 C 0.57038 0.49228 0.82879 0.0
C131 C 0.48136 0.51961 0.83022 0.0
C132 C 0.60564 0.45419 0.82837 0.0
C133 C 0.59036 0.40422 0.82664 0.0
C134 C 0.51955 0.48019 0.82822 0.0
C135 C 0.53923 0.39364 0.82526 0.0
C136 C 0.43525 0.50992 0.84433 0.0
C137 C 0.45671 0.60337 0.81982 0.0
N138 N 0.50547 0.43141 0.82647 0.0
N139 N 0.4909 0.56596 0.81857 0.0
H140 H 0.53749 0.3593 0.18063 0.0
H141 H 0.46936 0.64206 0.15277 0.0
H142 H 0.65032 0.47409 0.18158 0.0
H143 H 0.36751 0.54144 0.19886 0.0
H144 H 0.53468 0.57868 0.15614 0.0
H145 H 0.47294 0.42357 0.18084 0.0
C146 C 0.54862 0.39815 0.18088 0.0
C147 C 0.59918 0.41164 0.18092 0.0
C148 C 0.49805 0.57057 0.16553 0.0
C149 C 0.52568 0.48501 0.1808 0.0
C150 C 0.46067 0.60643 0.16338 0.0
C151 C 0.41296 0.59669 0.17541 0.0
C152 C 0.48733 0.52436 0.17924 0.0
C153 C 0.40381 0.55025 0.18925 0.0
C154 C 0.5118 0.43467 0.18117 0.0
C155 C 0.61168 0.46233 0.18155 0.0
N156 N 0.44063 0.51549 0.19056 0.0
N157 N 0.57504 0.49739 0.18108 0.0
H158 H 0.05517 0.10669 0.63425 0.0
H159 H 0.91093 0.90497 0.73766 0.0
H160 H 0.07217 0.09995 0.73455 0.0
H161 H 0.93484 0.89263 0.63815 0.0
H162 H 0.96349 0.98006 0.73824 0.0
H163 H 1.00058 0.03417 0.63643 0.0
C164 C 0.04673 0.09043 0.65682 0.0
C165 C 0.06841 0.10921 0.68424 0.0
C166 C 0.9575 0.96053 0.71639 0.0
C167 C 0.00658 0.02548 0.68686 0.0
C168 C 0.92788 0.91756 0.71607 0.0
C169 C 0.91856 0.89258 0.68781 0.0
C170 C 0.97725 0.97873 0.68819 0.0
C171 C 0.94101 0.91069 0.66047 0.0
C172 C 0.01595 0.04868 0.65802 0.0
C173 C 0.05616 0.08659 0.71285 0.0
N174 N 0.96891 0.95284 0.66131 0.0
N175 N 0.02622 0.0456 0.71343 0.0
H176 H 0.28119 0.16135 0.42547 0.0
H177 H 0.17706 0.28668 0.57921 0.0
H178 H 0.20252 0.30156 0.42466 0.0
H179 H 0.29591 0.1785 0.58152 0.0
H180 H 0.18739 0.29398 0.52264 0.0
H181 H 0.28887 0.16746 0.4824 0.0
C182 C 0.26606 0.19372 0.43725 0.0
C183 C 0.24085 0.23084 0.42037 0.0
C184 C 0.21177 0.26918 0.53552 0.0
C185 C 0.24895 0.23775 0.48547 0.0
C186 C 0.20584 0.26497 0.56781 0.0
C187 C 0.23553 0.23176 0.58498 0.0
C188 C 0.24694 0.23919 0.52015 0.0
C189 C 0.27232 0.20459 0.5691 0.0
C190 C 0.27057 0.19724 0.46973 0.0
C191 C 0.22211 0.27204 0.43678 0.0
N192 N 0.27646 0.20828 0.53745 0.0
N193 N 0.22592 0.27404 0.46847 0.0
H194 H 0.19343 0.69461 0.92614 0.0
H195 H 0.31152 0.81298 0.08146 0.0
H196 H 0.32618 0.78563 0.92637 0.0
H197 H 0.22329 0.67843 0.08067 0.0
H198 H 0.30007 0.81992 0.02463 0.0
H199 H 0.18714 0.70547 0.98298 0.0
C200 C 0.22065 0.71767 0.93806 0.0
C201 C 0.26067 0.73885 0.92166 0.0
C202 C 0.28266 0.78933 0.03704 0.0
C203 C 0.25362 0.7515 0.98639 0.0
C204 C 0.28897 0.78549 0.06942 0.0
C205 C 0.26873 0.7448 0.08564 0.0
C206 C 0.25533 0.75263 0.02099 0.0
C207 C 0.23995 0.7101 0.06894 0.0
C208 C 0.21719 0.72362 0.97046 0.0
C209 C 0.29502 0.76826 0.93824 0.0
N210 N 0.23427 0.71466 0.0375 0.0
N211 N 0.29088 0.77352 0.96973 0.0
H212 H 0.70976 0.77224 0.57771 0.0
H213 H 0.88076 0.78375 0.42781 0.0
H214 H 0.86852 0.74599 0.58026 0.0
H215 H 0.72477 0.7464 0.41977 0.0
H216 H 0.87543 0.77298 0.48427 0.0
H217 H 0.71203 0.76501 0.52038 0.0
C218 C 0.7449 0.76435 0.56627 0.0
C219 C 0.7891 0.76014 0.58372 0.0
C220 C 0.8424 0.76655 0.47022 0.0
C221 C 0.79199 0.75245 0.51851 0.0
C222 C 0.8454 0.77286 0.438 0.0
C223 C 0.80311 0.76603 0.41921 0.0
C224 C 0.79646 0.75438 0.48398 0.0
C225 C 0.75824 0.75179 0.43355 0.0
C226 C 0.74613 0.76014 0.53363 0.0
C227 C 0.83359 0.74983 0.56776 0.0
N228 N 0.75583 0.74714 0.46527 0.0
N229 N 0.83398 0.74698 0.53609 0.0
H230 H 0.79764 0.25121 0.92009 0.0
H231 H 0.67591 0.34119 0.07428 0.0
H232 H 0.63901 0.27691 0.92621 0.0
H233 H 0.76532 0.20811 0.08225 0.0
H234 H 0.67735 0.33281 0.01752 0.0
H235 H 0.80116 0.24705 0.97786 0.0
C236 C 0.76366 0.25546 0.9335 0.0
C237 C 0.718 0.26466 0.9184 0.0
C238 C 0.69677 0.30553 0.03171 0.0
C239 C 0.72206 0.26085 0.98365 0.0
C240 C 0.69617 0.31031 0.06404 0.0
C241 C 0.72042 0.27515 0.08292 0.0
C242 C 0.72282 0.26603 0.01797 0.0
C243 C 0.74592 0.23574 0.06838 0.0
C244 C 0.7657 0.25284 0.96626 0.0
C245 C 0.67501 0.26984 0.9368 0.0
N246 N 0.74692 0.23238 0.03651 0.0
N247 N 0.67825 0.26874 0.96841 0.0
H248 H 0.60467 0.27955 0.27122 0.0
H249 H 0.34171 0.13966 0.26496 0.0
H250 H 0.56893 0.17574 0.1974 0.0
H251 H 0.36432 0.28415 0.30694 0.0
H252 H 0.42883 0.14069 0.24692 0.0
H253 H 0.52141 0.26757 0.2929 0.0
C254 C 0.57973 0.25333 0.25993 0.0
C255 C 0.59377 0.22883 0.2323 0.0
C256 C 0.41456 0.17207 0.26008 0.0
C257 C 0.49796 0.21543 0.25694 0.0
C258 C 0.36497 0.17157 0.27034 0.0
C259 C 0.34574 0.21205 0.2873 0.0
C260 C 0.44528 0.21284 0.26746 0.0
C261 C 0.37748 0.25236 0.29372 0.0
C262 C 0.53199 0.24693 0.27218 0.0
C263 C 0.55965 0.19541 0.21871 0.0
N264 N 0.4257 0.25159 0.28397 0.0
N265 N 0.5131 0.1899 0.23106 0.0
H266 H 0.35202 0.86019 0.80596 0.0
H267 H 0.23103 0.02171 0.6694 0.0
H268 H 0.22318 0.81179 0.75358 0.0
H269 H 0.29622 0.09173 0.75062 0.0
H270 H 0.2451 0.94017 0.69326 0.0
H271 H 0.34758 0.94145 0.77953 0.0
C272 C 0.32305 0.86656 0.78874 0.0
C273 C 0.28779 0.82934 0.78195 0.0
C274 C 0.25679 0.97338 0.70569 0.0
C275 C 0.28316 0.9215 0.75144 0.0
C276 C 0.2492 0.01995 0.69202 0.0
C277 C 0.2624 0.06365 0.7081 0.0
C278 C 0.27852 0.97028 0.73546 0.0
C279 C 0.28545 0.05897 0.73746 0.0
C280 C 0.32049 0.91289 0.77382 0.0
C281 C 0.25091 0.83956 0.75958 0.0
N282 N 0.29282 0.01302 0.75025 0.0
N283 N 0.24974 0.88458 0.74497 0.0
H284 H 0.69099 0.75995 0.24531 0.0
H285 H 0.40332 0.77969 0.27024 0.0
H286 H 0.63624 0.84539 0.32349 0.0
H287 H 0.46694 0.79599 0.17818 0.0
H288 H 0.48641 0.7942 0.29305 0.0
H289 H 0.6069 0.76063 0.2226 0.0
C290 C 0.6612 0.77874 0.25769 0.0
C291 C 0.6704 0.80269 0.28626 0.0
C292 C 0.48178 0.79544 0.26789 0.0
C293 C 0.5744 0.80293 0.26073 0.0
C294 C 0.43453 0.78732 0.2549 0.0
C295 C 0.42828 0.78688 0.22231 0.0
C296 C 0.52305 0.80147 0.24808 0.0
C297 C 0.47003 0.79644 0.20343 0.0
C298 C 0.61346 0.77941 0.24465 0.0
C299 C 0.63058 0.82669 0.30133 0.0
N300 N 0.51584 0.80233 0.21656 0.0
N301 N 0.584 0.82564 0.28859 0.0
H302 H 0.63296 0.13092 0.80229 0.0
H303 H 0.743 0.96303 0.66587 0.0
H304 H 0.76335 0.17277 0.74942 0.0
H305 H 0.69201 0.89526 0.75163 0.0
H306 H 0.72836 0.04529 0.68863 0.0
H307 H 0.63422 0.04862 0.77673 0.0
C308 C 0.66154 0.12289 0.78513 0.0
C309 C 0.69826 0.15845 0.77798 0.0
C310 C 0.71964 0.01234 0.70223 0.0
C311 C 0.69905 0.06555 0.74836 0.0
C312 C 0.72751 0.96536 0.68921 0.0
C313 C 0.71887 0.92217 0.70696 0.0
C314 C 0.70204 0.01627 0.73297 0.0
C315 C 0.69922 0.92763 0.7372 0.0
C316 C 0.66227 0.07607 0.77071 0.0
C317 C 0.73459 0.14624 0.75571 0.0
N318 N 0.69152 0.97395 0.74935 0.0
N319 N 0.73385 0.10093 0.74149 0.0
H320 H 0.04207 0.28011 0.33312 0.0
H321 H 0.87506 0.35701 0.18763 0.0
H322 H 0.1094 0.2962 0.24204 0.0
H323 H 0.82803 0.24741 0.25526 0.0
H324 H 0.95862 0.3575 0.2118 0.0
H325 H 0.96001 0.29318 0.30953 0.0
C326 C 0.03979 0.28765 0.30827 0.0
C327 C 0.08268 0.28685 0.28947 0.0
C328 C 0.92978 0.33363 0.22131 0.0
C329 C 0.98882 0.30191 0.2625 0.0
C330 C 0.88227 0.33339 0.20768 0.0
C331 C 0.84484 0.30194 0.21947 0.0
C332 C 0.93914 0.30343 0.24745 0.0
C333 C 0.85599 0.27192 0.24537 0.0
C334 C 0.99289 0.29463 0.29485 0.0
C335 C 0.07726 0.29645 0.25735 0.0
N336 N 0.90202 0.27372 0.25869 0.0
N337 N 0.03104 0.30351 0.24478 0.0
H338 H 0.25487 0.31161 0.75817 0.0
H339 H 0.21992 0.59968 0.7397 0.0
H340 H 0.14998 0.36693 0.68998 0.0
H341 H 0.22391 0.53347 0.83159 0.0
H342 H 0.20582 0.51639 0.71714 0.0
H343 H 0.25765 0.39499 0.7821 0.0
C344 C 0.23252 0.34131 0.74827 0.0
C345 C 0.20203 0.33251 0.72219 0.0
C346 C 0.20911 0.52043 0.74227 0.0
C347 C 0.20583 0.42756 0.74887 0.0
C348 C 0.21698 0.56776 0.75511 0.0
C349 C 0.22256 0.57341 0.78754 0.0
C350 C 0.20866 0.47852 0.76194 0.0
C351 C 0.21912 0.53079 0.8065 0.0
C352 C 0.23391 0.38861 0.76197 0.0
C353 C 0.17371 0.37222 0.71022 0.0
N354 N 0.21331 0.48499 0.79338 0.0
N355 N 0.17678 0.41828 0.72339 0.0
H356 H 0.19275 0.76883 0.25703 0.0
H357 H 0.90825 0.70769 0.24417 0.0
H358 H 0.14421 0.65276 0.19416 0.0
H359 H 0.97663 0.73796 0.33359 0.0
H360 H 0.99165 0.69354 0.22194 0.0
H361 H 0.1105 0.76699 0.28216 0.0
C362 C 0.16475 0.74299 0.24856 0.0
C363 C 0.17511 0.71088 0.22357 0.0
C364 C 0.98809 0.70242 0.24655 0.0
C365 C 0.08116 0.70913 0.25174 0.0
C366 C 0.94066 0.71032 0.25924 0.0
C367 C 0.93556 0.72402 0.29074 0.0
C368 C 0.03047 0.70973 0.26533 0.0
C369 C 0.9788 0.72732 0.30921 0.0
C370 C 0.11807 0.74173 0.26298 0.0
C371 C 0.13762 0.67795 0.21349 0.0
N372 N 0.0245 0.72125 0.29608 0.0
N373 N 0.09194 0.67837 0.22733 0.0
H374 H 0.72151 0.3967 0.73172 0.0
H375 H 0.86001 0.65995 0.74438 0.0
H376 H 0.82186 0.43076 0.80778 0.0
H377 H 0.72116 0.63644 0.69544 0.0
H378 H 0.85778 0.57266 0.76192 0.0
H379 H 0.73478 0.48022 0.71081 0.0
C380 C 0.74722 0.42137 0.7437 0.0
C381 C 0.77035 0.40677 0.7717 0.0
C382 C 0.82787 0.58677 0.74736 0.0
C383 C 0.78516 0.50292 0.748 0.0
C384 C 0.82904 0.63648 0.73741 0.0
C385 C 0.79052 0.6555 0.7186 0.0
C386 C 0.78842 0.55575 0.73789 0.0
C387 C 0.75141 0.62346 0.71012 0.0
C388 C 0.75437 0.46926 0.73188 0.0
C389 C 0.80323 0.4405 0.78616 0.0
N390 N 0.75151 0.57517 0.71968 0.0
N391 N 0.8094 0.48723 0.77427 0.0
loop_
_geom_bond_atom_site_label_1
_geom_bond_atom_site_label_2
_geom_bond_distance
_geom_bond_site_symmetry_2
_ccdc_geom_bond_type
In0 O1 2.294 . S
In0 O2 2.326 . S
In0 O6 2.266 . S
In0 O7 2.326 . S
In0 O8 2.266 . S
In0 O9 2.326 . S
In0 O11 2.294 . S
In0 O12 2.326 . S
O1 In0 2.294 . S
O1 C10 1.240 . S
O2 In0 2.326 . S
O2 C10 1.252 . S
C3 O6 1.252 . S
C3 O7 1.260 . S
C4 O11 1.240 . S
C4 O12 1.252 . S
C5 O8 1.252 . S
C5 O9 1.260 . S
O6 In0 2.266 . S
O6 C3 1.252 . S
O7 In0 2.326 . S
O7 C3 1.260 . S
O8 In0 2.266 . S
O8 C5 1.252 . S
O9 In0 2.326 . S
O9 C5 1.260 . S
C10 O1 1.240 . S
C10 O2 1.252 . S
O11 In0 2.294 . S
O11 C4 1.240 . S
O12 In0 2.326 . S
O12 C4 1.252 . S
In13 O14 2.294 . S
In13 O15 2.326 . S
In13 O19 2.266 . S
In13 O20 2.326 . S
In13 O21 2.266 . S
In13 O22 2.326 . S
In13 O24 2.294 . S
In13 O25 2.326 . S
O14 In13 2.294 . S
O14 C23 1.240 . S
O15 In13 2.326 . S
O15 C23 1.252 . S
C16 O19 1.252 . S
C16 O20 1.260 . S
C17 O24 1.240 . S
C17 O25 1.252 . S
C18 O21 1.252 . S
C18 O22 1.260 . S
O19 In13 2.266 . S
O19 C16 1.252 . S
O20 In13 2.326 . S
O20 C16 1.260 . S
O21 In13 2.266 . S
O21 C18 1.252 . S
O22 In13 2.326 . S
O22 C18 1.260 . S
C23 O14 1.240 . S
C23 O15 1.252 . S
O24 In13 2.294 . S
O24 C17 1.240 . S
O25 In13 2.326 . S
O25 C17 1.252 . S
In26 O27 2.294 . S
In26 O28 2.326 . S
In26 O32 2.266 . S
In26 O33 2.326 . S
In26 O34 2.266 . S
In26 O35 2.326 . S
In26 O37 2.294 . S
In26 O38 2.326 . S
O27 In26 2.294 . S
O27 C36 1.240 . S
O28 In26 2.326 . S
O28 C36 1.252 . S
C29 O32 1.252 . S
C29 O33 1.260 . S
C30 O37 1.240 . S
C30 O38 1.252 . S
C31 O34 1.252 . S
C31 O35 1.260 . S
O32 In26 2.266 . S
O32 C29 1.252 . S
O33 In26 2.326 . S
O33 C29 1.260 . S
O34 In26 2.266 . S
O34 C31 1.252 . S
O35 In26 2.326 . S
O35 C31 1.260 . S
C36 O27 1.240 . S
C36 O28 1.252 . S
O37 In26 2.294 . S
O37 C30 1.240 . S
O38 In26 2.326 . S
O38 C30 1.252 . S
In39 O40 2.294 . S
In39 O41 2.326 . S
In39 O45 2.266 . S
In39 O46 2.326 . S
In39 O47 2.266 . S
In39 O48 2.326 . S
In39 O50 2.294 . S
In39 O51 2.326 . S
O40 In39 2.294 . S
O40 C49 1.240 . S
O41 In39 2.326 . S
O41 C49 1.252 . S
C42 O45 1.252 . S
C42 O46 1.260 . S
C43 O50 1.240 . S
C43 O51 1.252 . S
C44 O47 1.252 . S
C44 O48 1.260 . S
O45 In39 2.266 . S
O45 C42 1.252 . S
O46 In39 2.326 . S
O46 C42 1.260 . S
O47 In39 2.266 . S
O47 C44 1.252 . S
O48 In39 2.326 . S
O48 C44 1.260 . S
C49 O40 1.240 . S
C49 O41 1.252 . S
O50 In39 2.294 . S
O50 C43 1.240 . S
O51 In39 2.326 . S
O51 C43 1.252 . S
In52 O53 2.294 . S
In52 O54 2.326 . S
In52 O58 2.266 . S
In52 O59 2.326 . S
In52 O60 2.266 . S
In52 O61 2.326 . S
In52 O63 2.294 . S
In52 O64 2.326 . S
O53 In52 2.294 . S
O53 C62 1.240 . S
O54 In52 2.326 . S
O54 C62 1.252 . S
C55 O58 1.252 . S
C55 O59 1.260 . S
C56 O63 1.240 . S
C56 O64 1.252 . S
C57 O60 1.252 . S
C57 O61 1.260 . S
O58 In52 2.266 . S
O58 C55 1.252 . S
O59 In52 2.326 . S
O59 C55 1.260 . S
O60 In52 2.266 . S
O60 C57 1.252 . S
O61 In52 2.326 . S
O61 C57 1.260 . S
C62 O53 1.240 . S
C62 O54 1.252 . S
O63 In52 2.294 . S
O63 C56 1.240 . S
O64 In52 2.326 . S
O64 C56 1.252 . S
In65 O66 2.294 . S
In65 O67 2.326 . S
In65 O71 2.266 . S
In65 O72 2.326 . S
In65 O73 2.266 . S
In65 O74 2.326 . S
In65 O76 2.294 . S
In65 O77 2.326 . S
O66 In65 2.294 . S
O66 C75 1.240 . S
O67 In65 2.326 . S
O67 C75 1.252 . S
C68 O71 1.252 . S
C68 O72 1.260 . S
C69 O76 1.240 . S
C69 O77 1.252 . S
C70 O73 1.252 . S
C70 O74 1.260 . S
O71 In65 2.266 . S
O71 C68 1.252 . S
O72 In65 2.326 . S
O72 C68 1.260 . S
O73 In65 2.266 . S
O73 C70 1.252 . S
O74 In65 2.326 . S
O74 C70 1.260 . S
C75 O66 1.240 . S
C75 O67 1.252 . S
O76 In65 2.294 . S
O76 C69 1.240 . S
O77 In65 2.326 . S
O77 C69 1.252 . S
In78 O79 2.294 . S
In78 O80 2.326 . S
In78 O84 2.266 . S
In78 O85 2.326 . S
In78 O86 2.266 . S
In78 O87 2.326 . S
In78 O89 2.294 . S
In78 O90 2.326 . S
O79 In78 2.294 . S
O79 C88 1.240 . S
O80 In78 2.326 . S
O80 C88 1.252 . S
C81 O84 1.252 . S
C81 O85 1.260 . S
C82 O89 1.240 . S
C82 O90 1.252 . S
C83 O86 1.252 . S
C83 O87 1.260 . S
O84 In78 2.266 . S
O84 C81 1.252 . S
O85 In78 2.326 . S
O85 C81 1.260 . S
O86 In78 2.266 . S
O86 C83 1.252 . S
O87 In78 2.326 . S
O87 C83 1.260 . S
C88 O79 1.240 . S
C88 O80 1.252 . S
O89 In78 2.294 . S
O89 C82 1.240 . S
O90 In78 2.326 . S
O90 C82 1.252 . S
In91 O92 2.294 . S
In91 O93 2.326 . S
In91 O97 2.266 . S
In91 O98 2.326 . S
In91 O99 2.266 . S
In91 O100 2.326 . S
In91 O102 2.294 . S
In91 O103 2.326 . S
O92 In91 2.294 . S
O92 C101 1.240 . S
O93 In91 2.326 . S
O93 C101 1.252 . S
C94 O97 1.252 . S
C94 O98 1.260 . S
C95 O102 1.240 . S
C95 O103 1.252 . S
C96 O99 1.252 . S
C96 O100 1.260 . S
O97 In91 2.266 . S
O97 C94 1.252 . S
O98 In91 2.326 . S
O98 C94 1.260 . S
O99 In91 2.266 . S
O99 C96 1.252 . S
O100 In91 2.326 . S
O100 C96 1.260 . S
C101 O92 1.240 . S
C101 O93 1.252 . S
O102 In91 2.294 . S
O102 C95 1.240 . S
O103 In91 2.326 . S
O103 C95 1.252 . S
H104 C110 0.930 . S
H105 C114 0.930 . S
H106 C119 0.929 . S
H107 C117 0.929 . S
H108 C112 0.929 . S
H109 C118 0.929 . S
C110 H104 0.930 . S
C110 C111 1.367 . S
C110 C118 1.378 1_455 S
C111 C110 1.367 . S
C111 C119 1.433 . S
C112 H108 0.929 . S
C112 C114 1.378 1_455 S
C112 C116 1.350 1_455 S
C113 C116 1.463 1_445 S
C113 C118 1.350 1_455 S
C113 N121 1.427 . S
C114 H105 0.930 . S
C114 C112 1.378 1_655 S
C114 C115 1.367 . S
C115 C114 1.367 . S
C115 C117 1.433 . S
C116 C112 1.350 1_655 S
C116 C113 1.463 1_665 S
C116 N120 1.427 . S
C117 H107 0.929 . S
C117 C115 1.433 . S
C117 N120 1.384 . S
C118 H109 0.929 . S
C118 C110 1.378 1_655 S
C118 C113 1.350 1_655 S
C119 H106 0.929 . S
C119 C111 1.433 . S
C119 N121 1.384 . S
N120 C116 1.427 . S
N120 C117 1.384 . S
N121 C113 1.427 . S
N121 C119 1.384 . S
H122 C128 0.930 . S
H123 C132 0.930 . S
H124 C137 0.929 . S
H125 C135 0.929 . S
H126 C130 0.929 . S
H127 C136 0.929 . S
C128 H122 0.930 . S
C128 C129 1.367 . S
C128 C136 1.378 . S
C129 C128 1.367 . S
C129 C137 1.433 . S
C130 H126 0.929 . S
C130 C132 1.378 . S
C130 C134 1.350 . S
C131 C134 1.463 . S
C131 C136 1.350 . S
C131 N139 1.427 . S
C132 H123 0.930 . S
C132 C130 1.378 . S
C132 C133 1.367 . S
C133 C132 1.367 . S
C133 C135 1.433 . S
C134 C130 1.350 . S
C134 C131 1.463 . S
C134 N138 1.427 . S
C135 H125 0.929 . S
C135 C133 1.433 . S
C135 N138 1.384 . S
C136 H127 0.929 . S
C136 C128 1.378 . S
C136 C131 1.350 . S
C137 H124 0.929 . S
C137 C129 1.433 . S
C137 N139 1.384 . S
N138 C134 1.427 . S
N138 C135 1.384 . S
N139 C131 1.427 . S
N139 C137 1.384 . S
H140 C146 0.930 . S
H141 C150 0.930 . S
H142 C155 0.929 . S
H143 C153 0.929 . S
H144 C148 0.929 . S
H145 C154 0.929 . S
C146 H140 0.930 . S
C146 C147 1.367 . S
C146 C154 1.378 . S
C147 C146 1.367 . S
C147 C155 1.433 . S
C148 H144 0.929 . S
C148 C150 1.378 . S
C148 C152 1.350 . S
C149 C152 1.463 . S
C149 C154 1.350 . S
C149 N157 1.427 . S
C150 H141 0.930 . S
C150 C148 1.378 . S
C150 C151 1.367 . S
C151 C150 1.367 . S
C151 C153 1.433 . S
C152 C148 1.350 . S
C152 C149 1.463 . S
C152 N156 1.427 . S
C153 H143 0.929 . S
C153 C151 1.433 . S
C153 N156 1.384 . S
C154 H145 0.929 . S
C154 C146 1.378 . S
C154 C149 1.350 . S
C155 H142 0.929 . S
C155 C147 1.433 . S
C155 N157 1.384 . S
N156 C152 1.427 . S
N156 C153 1.384 . S
N157 C149 1.427 . S
N157 C155 1.384 . S
H158 C164 0.930 . S
H159 C168 0.930 . S
H160 C173 0.929 . S
H161 C171 0.929 . S
H162 C166 0.929 1_545 S
H163 C172 0.929 1_565 S
C164 H158 0.930 . S
C164 C165 1.367 . S
C164 C172 1.378 . S
C165 C164 1.367 . S
C165 C173 1.433 . S
C166 H162 0.929 1_565 S
C166 C168 1.378 . S
C166 C170 1.350 . S
C167 C170 1.463 1_445 S
C167 C172 1.350 . S
C167 N175 1.427 . S
C168 H159 0.930 . S
C168 C166 1.378 . S
C168 C169 1.367 . S
C169 C168 1.367 . S
C169 C171 1.433 . S
C170 C166 1.350 . S
C170 C167 1.463 1_665 S
C170 N174 1.427 . S
C171 H161 0.929 . S
C171 C169 1.433 . S
C171 N174 1.384 . S
C172 H163 0.929 1_545 S
C172 C164 1.378 . S
C172 C167 1.350 . S
C173 H160 0.929 . S
C173 C165 1.433 . S
C173 N175 1.384 . S
N174 C170 1.427 . S
N174 C171 1.384 . S
N175 C167 1.427 . S
N175 C173 1.384 . S
H176 C182 0.930 . S
H177 C186 0.930 . S
H178 C191 0.929 . S
H179 C189 0.929 . S
H180 C184 0.929 . S
H181 C190 0.929 . S
C182 H176 0.930 . S
C182 C183 1.367 . S
C182 C190 1.378 . S
C183 C182 1.367 . S
C183 C191 1.433 . S
C184 H180 0.929 . S
C184 C186 1.378 . S
C184 C188 1.350 . S
C185 C188 1.463 . S
C185 C190 1.350 . S
C185 N193 1.427 . S
C186 H177 0.930 . S
C186 C184 1.378 . S
C186 C187 1.367 . S
C187 C186 1.367 . S
C187 C189 1.433 . S
C188 C184 1.350 . S
C188 C185 1.463 . S
C188 N192 1.427 . S
C189 H179 0.929 . S
C189 C187 1.433 . S
C189 N192 1.384 . S
C190 H181 0.929 . S
C190 C182 1.378 . S
C190 C185 1.350 . S
C191 H178 0.929 . S
C191 C183 1.433 . S
C191 N193 1.384 . S
N192 C188 1.427 . S
N192 C189 1.384 . S
N193 C185 1.427 . S
N193 C191 1.384 . S
H194 C200 0.930 . S
H195 C204 0.930 . S
H196 C209 0.929 . S
H197 C207 0.929 . S
H198 C202 0.929 . S
H199 C208 0.929 . S
C200 H194 0.930 . S
C200 C201 1.367 . S
C200 C208 1.378 . S
C201 C200 1.367 . S
C201 C209 1.433 . S
C202 H198 0.929 . S
C202 C204 1.378 . S
C202 C206 1.350 . S
C203 C206 1.463 1_556 S
C203 C208 1.350 . S
C203 N211 1.427 . S
C204 H195 0.930 . S
C204 C202 1.378 . S
C204 C205 1.367 . S
C205 C204 1.367 . S
C205 C207 1.433 . S
C206 C202 1.350 . S
C206 C203 1.463 1_554 S
C206 N210 1.427 . S
C207 H197 0.929 . S
C207 C205 1.433 . S
C207 N210 1.384 . S
C208 H199 0.929 . S
C208 C200 1.378 . S
C208 C203 1.350 . S
C209 H196 0.929 . S
C209 C201 1.433 . S
C209 N211 1.384 . S
N210 C206 1.427 . S
N210 C207 1.384 . S
N211 C203 1.427 . S
N211 C209 1.384 . S
H212 C218 0.930 . S
H213 C222 0.930 . S
H214 C227 0.929 . S
H215 C225 0.929 . S
H216 C220 0.929 . S
H217 C226 0.929 . S
C218 H212 0.930 . S
C218 C219 1.367 . S
C218 C226 1.378 . S
C219 C218 1.367 . S
C219 C227 1.433 . S
C220 H216 0.929 . S
C220 C222 1.378 . S
C220 C224 1.350 . S
C221 C224 1.463 . S
C221 C226 1.350 . S
C221 N229 1.427 . S
C222 H213 0.930 . S
C222 C220 1.378 . S
C222 C223 1.367 . S
C223 C222 1.367 . S
C223 C225 1.433 . S
C224 C220 1.350 . S
C224 C221 1.463 . S
C224 N228 1.427 . S
C225 H215 0.929 . S
C225 C223 1.433 . S
C225 N228 1.384 . S
C226 H217 0.929 . S
C226 C218 1.378 . S
C226 C221 1.350 . S
C227 H214 0.929 . S
C227 C219 1.433 . S
C227 N229 1.384 . S
N228 C224 1.427 . S
N228 C225 1.384 . S
N229 C221 1.427 . S
N229 C227 1.384 . S
H230 C236 0.930 . S
H231 C240 0.930 . S
H232 C245 0.929 . S
H233 C243 0.929 . S
H234 C238 0.929 . S
H235 C244 0.929 . S
C236 H230 0.930 . S
C236 C237 1.367 . S
C236 C244 1.378 . S
C237 C236 1.367 . S
C237 C245 1.433 . S
C238 H234 0.929 . S
C238 C240 1.378 . S
C238 C242 1.350 . S
C239 C242 1.463 1_556 S
C239 C244 1.350 . S
C239 N247 1.427 . S
C240 H231 0.930 . S
C240 C238 1.378 . S
C240 C241 1.367 . S
C241 C240 1.367 . S
C241 C243 1.433 . S
C242 C238 1.350 . S
C242 C239 1.463 1_554 S
C242 N246 1.427 . S
C243 H233 0.929 . S
C243 C241 1.433 . S
C243 N246 1.384 . S
C244 H235 0.929 . S
C244 C236 1.378 . S
C244 C239 1.350 . S
C245 H232 0.929 . S
C245 C237 1.433 . S
C245 N247 1.384 . S
N246 C242 1.427 . S
N246 C243 1.384 . S
N247 C239 1.427 . S
N247 C245 1.384 . S
H248 C254 0.930 . S
H249 C258 0.930 . S
H250 C263 0.929 . S
H251 C261 0.929 . S
H252 C256 0.929 . S
H253 C262 0.929 . S
C254 H248 0.930 . S
C254 C255 1.367 . S
C254 C262 1.378 . S
C255 C254 1.367 . S
C255 C263 1.433 . S
C256 H252 0.929 . S
C256 C258 1.378 . S
C256 C260 1.350 . S
C257 C260 1.463 . S
C257 C262 1.350 . S
C257 N265 1.427 . S
C258 H249 0.930 . S
C258 C256 1.378 . S
C258 C259 1.367 . S
C259 C258 1.367 . S
C259 C261 1.433 . S
C260 C256 1.350 . S
C260 C257 1.463 . S
C260 N264 1.427 . S
C261 H251 0.929 . S
C261 C259 1.433 . S
C261 N264 1.384 . S
C262 H253 0.929 . S
C262 C254 1.378 . S
C262 C257 1.350 . S
C263 H250 0.929 . S
C263 C255 1.433 . S
C263 N265 1.384 . S
N264 C260 1.427 . S
N264 C261 1.384 . S
N265 C257 1.427 . S
N265 C263 1.384 . S
H266 C272 0.930 . S
H267 C276 0.930 . S
H268 C281 0.929 . S
H269 C279 0.929 1_545 S
H270 C274 0.929 . S
H271 C280 0.929 . S
C272 H266 0.930 . S
C272 C273 1.367 . S
C272 C280 1.378 . S
C273 C272 1.367 . S
C273 C281 1.433 . S
C274 H270 0.929 . S
C274 C276 1.378 . S
C274 C278 1.350 . S
C275 C278 1.463 . S
C275 C280 1.350 . S
C275 N283 1.427 . S
C276 H267 0.930 . S
C276 C274 1.378 . S
C276 C277 1.367 1_565 S
C277 C276 1.367 1_545 S
C277 C279 1.433 1_545 S
C278 C274 1.350 . S
C278 C275 1.463 . S
C278 N282 1.427 . S
C279 H269 0.929 1_565 S
C279 C277 1.433 1_565 S
C279 N282 1.384 . S
C280 H271 0.929 . S
C280 C272 1.378 . S
C280 C275 1.350 . S
C281 H268 0.929 . S
C281 C273 1.433 . S
C281 N283 1.384 . S
N282 C278 1.427 . S
N282 C279 1.384 . S
N283 C275 1.427 . S
N283 C281 1.384 . S
H284 C290 0.930 . S
H285 C294 0.930 . S
H286 C299 0.929 . S
H287 C297 0.929 . S
H288 C292 0.929 . S
H289 C298 0.929 . S
C290 H284 0.930 . S
C290 C291 1.367 . S
C290 C298 1.378 . S
C291 C290 1.367 . S
C291 C299 1.433 . S
C292 H288 0.929 . S
C292 C294 1.378 . S
C292 C296 1.350 . S
C293 C296 1.463 . S
C293 C298 1.350 . S
C293 N301 1.427 . S
C294 H285 0.930 . S
C294 C292 1.378 . S
C294 C295 1.367 . S
C295 C294 1.367 . S
C295 C297 1.433 . S
C296 C292 1.350 . S
C296 C293 1.463 . S
C296 N300 1.427 . S
C297 H287 0.929 . S
C297 C295 1.433 . S
C297 N300 1.384 . S
C298 H289 0.929 . S
C298 C290 1.378 . S
C298 C293 1.350 . S
C299 H286 0.929 . S
C299 C291 1.433 . S
C299 N301 1.384 . S
N300 C296 1.427 . S
N300 C297 1.384 . S
N301 C293 1.427 . S
N301 C299 1.384 . S
H302 C308 0.930 . S
H303 C312 0.930 . S
H304 C317 0.929 . S
H305 C315 0.929 1_565 S
H306 C310 0.929 . S
H307 C316 0.929 . S
C308 H302 0.930 . S
C308 C309 1.367 . S
C308 C316 1.378 . S
C309 C308 1.367 . S
C309 C317 1.433 . S
C310 H306 0.929 . S
C310 C312 1.378 . S
C310 C314 1.350 . S
C311 C314 1.463 . S
C311 C316 1.350 . S
C311 N319 1.427 . S
C312 H303 0.930 . S
C312 C310 1.378 . S
C312 C313 1.367 1_545 S
C313 C312 1.367 1_565 S
C313 C315 1.433 1_565 S
C314 C310 1.350 . S
C314 C311 1.463 . S
C314 N318 1.427 . S
C315 H305 0.929 1_545 S
C315 C313 1.433 1_545 S
C315 N318 1.384 . S
C316 H307 0.929 . S
C316 C308 1.378 . S
C316 C311 1.350 . S
C317 H304 0.929 . S
C317 C309 1.433 . S
C317 N319 1.384 . S
N318 C314 1.427 . S
N318 C315 1.384 . S
N319 C311 1.427 . S
N319 C317 1.384 . S
H320 C326 0.930 . S
H321 C330 0.930 . S
H322 C335 0.929 1_455 S
H323 C333 0.929 . S
H324 C328 0.929 . S
H325 C334 0.929 . S
C326 H320 0.930 . S
C326 C327 1.367 1_655 S
C326 C334 1.378 . S
C327 C326 1.367 1_455 S
C327 C335 1.433 1_455 S
C328 H324 0.929 . S
C328 C330 1.378 . S
C328 C332 1.350 . S
C329 C332 1.463 . S
C329 C334 1.350 . S
C329 N337 1.427 . S
C330 H321 0.930 . S
C330 C328 1.378 . S
C330 C331 1.367 . S
C331 C330 1.367 . S
C331 C333 1.433 . S
C332 C328 1.350 . S
C332 C329 1.463 . S
C332 N336 1.427 . S
C333 H323 0.929 . S
C333 C331 1.433 . S
C333 N336 1.384 . S
C334 H325 0.929 . S
C334 C326 1.378 . S
C334 C329 1.350 . S
C335 H322 0.929 1_655 S
C335 C327 1.433 1_655 S
C335 N337 1.384 . S
N336 C332 1.427 . S
N336 C333 1.384 . S
N337 C329 1.427 . S
N337 C335 1.384 . S
H338 C344 0.930 . S
H339 C348 0.930 . S
H340 C353 0.929 . S
H341 C351 0.929 . S
H342 C346 0.929 . S
H343 C352 0.929 . S
C344 H338 0.930 . S
C344 C345 1.367 . S
C344 C352 1.378 . S
C345 C344 1.367 . S
C345 C353 1.433 . S
C346 H342 0.929 . S
C346 C348 1.378 . S
C346 C350 1.350 . S
C347 C350 1.463 . S
C347 C352 1.350 . S
C347 N355 1.427 . S
C348 H339 0.930 . S
C348 C346 1.378 . S
C348 C349 1.367 . S
C349 C348 1.367 . S
C349 C351 1.433 . S
C350 C346 1.350 . S
C350 C347 1.463 . S
C350 N354 1.427 . S
C351 H341 0.929 . S
C351 C349 1.433 . S
C351 N354 1.384 . S
C352 H343 0.929 . S
C352 C344 1.378 . S
C352 C347 1.350 . S
C353 H340 0.929 . S
C353 C345 1.433 . S
C353 N355 1.384 . S
N354 C350 1.427 . S
N354 C351 1.384 . S
N355 C347 1.427 . S
N355 C353 1.384 . S
H356 C362 0.930 . S
H357 C366 0.930 1_655 S
H358 C371 0.929 . S
H359 C369 0.929 . S
H360 C364 0.929 . S
H361 C370 0.929 . S
C362 H356 0.930 . S
C362 C363 1.367 . S
C362 C370 1.378 . S
C363 C362 1.367 . S
C363 C371 1.433 . S
C364 H360 0.929 . S
C364 C366 1.378 . S
C364 C368 1.350 . S
C365 C368 1.463 . S
C365 C370 1.350 . S
C365 N373 1.427 . S
C366 H357 0.930 1_455 S
C366 C364 1.378 . S
C366 C367 1.367 1_455 S
C367 C366 1.367 1_655 S
C367 C369 1.433 1_655 S
C368 C364 1.350 . S
C368 C365 1.463 . S
C368 N372 1.427 . S
C369 H359 0.929 . S
C369 C367 1.433 1_455 S
C369 N372 1.384 . S
C370 H361 0.929 . S
C370 C362 1.378 . S
C370 C365 1.350 . S
C371 H358 0.929 . S
C371 C363 1.433 . S
C371 N373 1.384 . S
N372 C368 1.427 . S
N372 C369 1.384 . S
N373 C365 1.427 . S
N373 C371 1.384 . S
H374 C380 0.930 . S
H375 C384 0.930 . S
H376 C389 0.929 . S
H377 C387 0.929 . S
H378 C382 0.929 . S
H379 C388 0.929 . S
C380 H374 0.930 . S
C380 C381 1.367 . S
C380 C388 1.378 . S
C381 C380 1.367 . S
C381 C389 1.433 . S
C382 H378 0.929 . S
C382 C384 1.378 . S
C382 C386 1.350 . S
C383 C386 1.463 . S
C383 C388 1.350 . S
C383 N391 1.427 . S
C384 H375 0.930 . S
C384 C382 1.378 . S
C384 C385 1.367 . S
C385 C384 1.367 . S
C385 C387 1.433 . S
C386 C382 1.350 . S
C386 C383 1.463 . S
C386 N390 1.427 . S
C387 H377 0.929 . S
C387 C385 1.433 . S
C387 N390 1.384 . S
C388 H379 0.929 . S
C388 C380 1.378 . S
C388 C383 1.350 . S
C389 H376 0.929 . S
C389 C381 1.433 . S
C389 N391 1.384 . S
N390 C386 1.427 . S
N390 C387 1.384 . S
N391 C383 1.427 . S
N391 C389 1.384 . S
C111 C5 0.831 . S
C115 C29 0.832 . S
C129 C16 0.831 . S
C133 C42 0.831 . S
C147 C55 0.832 . S
C151 C81 0.831 . S
C165 C68 0.831 . S
C169 C94 0.833 . S
C183 C10 1.500 . S
C187 C69 1.492 . S
C201 C17 1.495 . S
C205 C82 1.499 . S
C219 C95 1.500 . S
C223 C30 1.492 . S
C237 C43 1.500 . S
C241 C56 1.492 . S
C255 C57 1.710 . S
C259 C4 1.739 . S
C273 C23 1.736 . S
C277 C70 1.704 . S
C291 C36 1.741 . S
C295 C83 1.713 . S
C309 C49 1.736 . S
C313 C96 1.703 . S
C327 C3 1.702 . S
C331 C62 1.735 . S
C345 C75 1.741 . S
C349 C18 1.712 . S
C363 C88 1.743 . S
C367 C31 1.715 . S
C381 C44 1.706 . S
C385 C101 1.736 . S
