# Generated by pormake.
# Topology ulj, (4)-cn, num edge types: 1
# Building blocks:
#     Node 0, Type 0, BuildingBlock: NAWXER_clean_sbu_0, # of connection points: 4
#     Node 1, Type 0, BuildingBlock: NAWXER_clean_sbu_0, # of connection points: 4
#     Node 2, Type 0, BuildingBlock: NAWXER_clean_sbu_0, # of connection points: 4
#     Node 3, Type 0, BuildingBlock: NAWXER_clean_sbu_0, # of connection points: 4
#     Node 4, Type 0, BuildingBlock: NAWXER_clean_sbu_0, # of connection points: 4
#     Node 5, Type 0, BuildingBlock: NAWXER_clean_sbu_0, # of connection points: 4
#     Node 6, Type 0, BuildingBlock: NAWXER_clean_sbu_0, # of connection points: 4
#     Node 7, Type 0, BuildingBlock: NAWXER_clean_sbu_0, # of connection points: 4
#     Node 8, Type 0, BuildingBlock: NAWXER_clean_sbu_0, # of connection points: 4
#     Node 9, Type 0, BuildingBlock: NAWXER_clean_sbu_0, # of connection points: 4
#     Node 10, Type 0, BuildingBlock: NAWXER_clean_sbu_0, # of connection points: 4
#     Node 11, Type 0, BuildingBlock: NAWXER_clean_sbu_0, # of connection points: 4
#     Node 12, Type 0, BuildingBlock: NAWXER_clean_sbu_0, # of connection points: 4
#     Node 13, Type 0, BuildingBlock: NAWXER_clean_sbu_0, # of connection points: 4
#     Node 14, Type 0, BuildingBlock: NAWXER_clean_sbu_0, # of connection points: 4
#     Node 15, Type 0, BuildingBlock: NAWXER_clean_sbu_0, # of connection points: 4
#     Node 16, Type 0, BuildingBlock: NAWXER_clean_sbu_0, # of connection points: 4
#     Node 17, Type 0, BuildingBlock: NAWXER_clean_sbu_0, # of connection points: 4
#     Node 18, Type 0, BuildingBlock: NAWXER_clean_sbu_0, # of connection points: 4
#     Node 19, Type 0, BuildingBlock: NAWXER_clean_sbu_0, # of connection points: 4
#     Node 20, Type 0, BuildingBlock: NAWXER_clean_sbu_0, # of connection points: 4
#     Node 21, Type 0, BuildingBlock: NAWXER_clean_sbu_0, # of connection points: 4
#     Node 22, Type 0, BuildingBlock: NAWXER_clean_sbu_0, # of connection points: 4
#     Node 23, Type 0, BuildingBlock: NAWXER_clean_sbu_0, # of connection points: 4
#     Node 24, Type 0, BuildingBlock: NAWXER_clean_sbu_0, # of connection points: 4
#     Node 25, Type 0, BuildingBlock: NAWXER_clean_sbu_0, # of connection points: 4
#     Node 26, Type 0, BuildingBlock: NAWXER_clean_sbu_0, # of connection points: 4
#     Node 27, Type 0, BuildingBlock: NAWXER_clean_sbu_0, # of connection points: 4
#     Node 28, Type 0, BuildingBlock: NAWXER_clean_sbu_0, # of connection points: 4
#     Node 29, Type 0, BuildingBlock: NAWXER_clean_sbu_0, # of connection points: 4
#     Node 30, Type 0, BuildingBlock: NAWXER_clean_sbu_0, # of connection points: 4
#     Node 31, Type 0, BuildingBlock: NAWXER_clean_sbu_0, # of connection points: 4
#     Node 32, Type 0, BuildingBlock: NAWXER_clean_sbu_0, # of connection points: 4
#     Node 33, Type 0, BuildingBlock: NAWXER_clean_sbu_0, # of connection points: 4
#     Node 34, Type 0, BuildingBlock: NAWXER_clean_sbu_0, # of connection points: 4
#     Node 35, Type 0, BuildingBlock: NAWXER_clean_sbu_0, # of connection points: 4
#     Node 36, Type 0, BuildingBlock: NAWXER_clean_sbu_0, # of connection points: 4
#     Node 37, Type 0, BuildingBlock: NAWXER_clean_sbu_0, # of connection points: 4
#     Node 38, Type 0, BuildingBlock: NAWXER_clean_sbu_0, # of connection points: 4
#     Node 39, Type 0, BuildingBlock: NAWXER_clean_sbu_0, # of connection points: 4
#     Node 40, Type 0, BuildingBlock: NAWXER_clean_sbu_0, # of connection points: 4
#     Node 41, Type 0, BuildingBlock: NAWXER_clean_sbu_0, # of connection points: 4
#     Node 42, Type 0, BuildingBlock: NAWXER_clean_sbu_0, # of connection points: 4
#     Node 43, Type 0, BuildingBlock: NAWXER_clean_sbu_0, # of connection points: 4
#     Node 44, Type 0, BuildingBlock: NAWXER_clean_sbu_0, # of connection points: 4
#     Node 45, Type 0, BuildingBlock: NAWXER_clean_sbu_0, # of connection points: 4
#     Node 46, Type 0, BuildingBlock: NAWXER_clean_sbu_0, # of connection points: 4
#     Node 47, Type 0, BuildingBlock: NAWXER_clean_sbu_0, # of connection points: 4
#     Edge 48, Type (0, 0), BuildingBlock: KIFKEQ_clean_linker_1, # of connection points: 2
#     Edge 49, Type (0, 0), BuildingBlock: KIFKEQ_clean_linker_1, # of connection points: 2
#     Edge 50, Type (0, 0), BuildingBlock: KIFKEQ_clean_linker_1, # of connection points: 2
#     Edge 51, Type (0, 0), BuildingBlock: KIFKEQ_clean_linker_1, # of connection points: 2
#     Edge 52, Type (0, 0), BuildingBlock: KIFKEQ_clean_linker_1, # of connection points: 2
#     Edge 53, Type (0, 0), BuildingBlock: KIFKEQ_clean_linker_1, # of connection points: 2
#     Edge 54, Type (0, 0), BuildingBlock: KIFKEQ_clean_linker_1, # of connection points: 2
#     Edge 55, Type (0, 0), BuildingBlock: KIFKEQ_clean_linker_1, # of connection points: 2
#     Edge 56, Type (0, 0), BuildingBlock: KIFKEQ_clean_linker_1, # of connection points: 2
#     Edge 57, Type (0, 0), BuildingBlock: KIFKEQ_clean_linker_1, # of connection points: 2
#     Edge 58, Type (0, 0), BuildingBlock: KIFKEQ_clean_linker_1, # of connection points: 2
#     Edge 59, Type (0, 0), BuildingBlock: KIFKEQ_clean_linker_1, # of connection points: 2
#     Edge 60, Type (0, 0), BuildingBlock: KIFKEQ_clean_linker_1, # of connection points: 2
#     Edge 61, Type (0, 0), BuildingBlock: KIFKEQ_clean_linker_1, # of connection points: 2
#     Edge 62, Type (0, 0), BuildingBlock: KIFKEQ_clean_linker_1, # of connection points: 2
#     Edge 63, Type (0, 0), BuildingBlock: KIFKEQ_clean_linker_1, # of connection points: 2
#     Edge 64, Type (0, 0), BuildingBlock: KIFKEQ_clean_linker_1, # of connection points: 2
#     Edge 65, Type (0, 0), BuildingBlock: KIFKEQ_clean_linker_1, # of connection points: 2
#     Edge 66, Type (0, 0), BuildingBlock: KIFKEQ_clean_linker_1, # of connection points: 2
#     Edge 67, Type (0, 0), BuildingBlock: KIFKEQ_clean_linker_1, # of connection points: 2
#     Edge 68, Type (0, 0), BuildingBlock: KIFKEQ_clean_linker_1, # of connection points: 2
#     Edge 69, Type (0, 0), BuildingBlock: KIFKEQ_clean_linker_1, # of connection points: 2
#     Edge 70, Type (0, 0), BuildingBlock: KIFKEQ_clean_linker_1, # of connection points: 2
#     Edge 71, Type (0, 0), BuildingBlock: KIFKEQ_clean_linker_1, # of connection points: 2
#     Edge 72, Type (0, 0), BuildingBlock: KIFKEQ_clean_linker_1, # of connection points: 2
#     Edge 73, Type (0, 0), BuildingBlock: KIFKEQ_clean_linker_1, # of connection points: 2
#     Edge 74, Type (0, 0), BuildingBlock: KIFKEQ_clean_linker_1, # of connection points: 2
#     Edge 75, Type (0, 0), BuildingBlock: KIFKEQ_clean_linker_1, # of connection points: 2
#     Edge 76, Type (0, 0), BuildingBlock: KIFKEQ_clean_linker_1, # of connection points: 2
#     Edge 77, Type (0, 0), BuildingBlock: KIFKEQ_clean_linker_1, # of connection points: 2
#     Edge 78, Type (0, 0), BuildingBlock: KIFKEQ_clean_linker_1, # of connection points: 2
#     Edge 79, Type (0, 0), BuildingBlock: KIFKEQ_clean_linker_1, # of connection points: 2
#     Edge 80, Type (0, 0), BuildingBlock: KIFKEQ_clean_linker_1, # of connection points: 2
#     Edge 81, Type (0, 0), BuildingBlock: KIFKEQ_clean_linker_1, # of connection points: 2
#     Edge 82, Type (0, 0), BuildingBlock: KIFKEQ_clean_linker_1, # of connection points: 2
#     Edge 83, Type (0, 0), BuildingBlock: KIFKEQ_clean_linker_1, # of connection points: 2
#     Edge 84, Type (0, 0), BuildingBlock: KIFKEQ_clean_linker_1, # of connection points: 2
#     Edge 85, Type (0, 0), BuildingBlock: KIFKEQ_clean_linker_1, # of connection points: 2
#     Edge 86, Type (0, 0), BuildingBlock: KIFKEQ_clean_linker_1, # of connection points: 2
#     Edge 87, Type (0, 0), BuildingBlock: KIFKEQ_clean_linker_1, # of connection points: 2
#     Edge 88, Type (0, 0), BuildingBlock: KIFKEQ_clean_linker_1, # of connection points: 2
#     Edge 89, Type (0, 0), BuildingBlock: KIFKEQ_clean_linker_1, # of connection points: 2
#     Edge 90, Type (0, 0), BuildingBlock: KIFKEQ_clean_linker_1, # of connection points: 2
#     Edge 91, Type (0, 0), BuildingBlock: KIFKEQ_clean_linker_1, # of connection points: 2
#     Edge 92, Type (0, 0), BuildingBlock: KIFKEQ_clean_linker_1, # of connection points: 2
#     Edge 93, Type (0, 0), BuildingBlock: KIFKEQ_clean_linker_1, # of connection points: 2
#     Edge 94, Type (0, 0), BuildingBlock: KIFKEQ_clean_linker_1, # of connection points: 2
#     Edge 95, Type (0, 0), BuildingBlock: KIFKEQ_clean_linker_1, # of connection points: 2
#     Edge 96, Type (0, 0), BuildingBlock: KIFKEQ_clean_linker_1, # of connection points: 2
#     Edge 97, Type (0, 0), BuildingBlock: KIFKEQ_clean_linker_1, # of connection points: 2
#     Edge 98, Type (0, 0), BuildingBlock: KIFKEQ_clean_linker_1, # of connection points: 2
#     Edge 99, Type (0, 0), BuildingBlock: KIFKEQ_clean_linker_1, # of connection points: 2
#     Edge 100, Type (0, 0), BuildingBlock: KIFKEQ_clean_linker_1, # of connection points: 2
#     Edge 101, Type (0, 0), BuildingBlock: KIFKEQ_clean_linker_1, # of connection points: 2
#     Edge 102, Type (0, 0), BuildingBlock: KIFKEQ_clean_linker_1, # of connection points: 2
#     Edge 103, Type (0, 0), BuildingBlock: KIFKEQ_clean_linker_1, # of connection points: 2
#     Edge 104, Type (0, 0), BuildingBlock: KIFKEQ_clean_linker_1, # of connection points: 2
#     Edge 105, Type (0, 0), BuildingBlock: KIFKEQ_clean_linker_1, # of connection points: 2
#     Edge 106, Type (0, 0), BuildingBlock: KIFKEQ_clean_linker_1, # of connection points: 2
#     Edge 107, Type (0, 0), BuildingBlock: KIFKEQ_clean_linker_1, # of connection points: 2
#     Edge 108, Type (0, 0), BuildingBlock: KIFKEQ_clean_linker_1, # of connection points: 2
#     Edge 109, Type (0, 0), BuildingBlock: KIFKEQ_clean_linker_1, # of connection points: 2
#     Edge 110, Type (0, 0), BuildingBlock: KIFKEQ_clean_linker_1, # of connection points: 2
#     Edge 111, Type (0, 0), BuildingBlock: KIFKEQ_clean_linker_1, # of connection points: 2
#     Edge 112, Type (0, 0), BuildingBlock: KIFKEQ_clean_linker_1, # of connection points: 2
#     Edge 113, Type (0, 0), BuildingBlock: KIFKEQ_clean_linker_1, # of connection points: 2
#     Edge 114, Type (0, 0), BuildingBlock: KIFKEQ_clean_linker_1, # of connection points: 2
#     Edge 115, Type (0, 0), BuildingBlock: KIFKEQ_clean_linker_1, # of connection points: 2
#     Edge 116, Type (0, 0), BuildingBlock: KIFKEQ_clean_linker_1, # of connection points: 2
#     Edge 117, Type (0, 0), BuildingBlock: KIFKEQ_clean_linker_1, # of connection points: 2
#     Edge 118, Type (0, 0), BuildingBlock: KIFKEQ_clean_linker_1, # of connection points: 2
#     Edge 119, Type (0, 0), BuildingBlock: KIFKEQ_clean_linker_1, # of connection points: 2
#     Edge 120, Type (0, 0), BuildingBlock: KIFKEQ_clean_linker_1, # of connection points: 2
#     Edge 121, Type (0, 0), BuildingBlock: KIFKEQ_clean_linker_1, # of connection points: 2
#     Edge 122, Type (0, 0), BuildingBlock: KIFKEQ_clean_linker_1, # of connection points: 2
#     Edge 123, Type (0, 0), BuildingBlock: KIFKEQ_clean_linker_1, # of connection points: 2
#     Edge 124, Type (0, 0), BuildingBlock: KIFKEQ_clean_linker_1, # of connection points: 2
#     Edge 125, Type (0, 0), BuildingBlock: KIFKEQ_clean_linker_1, # of connection points: 2
#     Edge 126, Type (0, 0), BuildingBlock: KIFKEQ_clean_linker_1, # of connection points: 2
#     Edge 127, Type (0, 0), BuildingBlock: KIFKEQ_clean_linker_1, # of connection points: 2
#     Edge 128, Type (0, 0), BuildingBlock: KIFKEQ_clean_linker_1, # of connection points: 2
#     Edge 129, Type (0, 0), BuildingBlock: KIFKEQ_clean_linker_1, # of connection points: 2
#     Edge 130, Type (0, 0), BuildingBlock: KIFKEQ_clean_linker_1, # of connection points: 2
#     Edge 131, Type (0, 0), BuildingBlock: KIFKEQ_clean_linker_1, # of connection points: 2
#     Edge 132, Type (0, 0), BuildingBlock: KIFKEQ_clean_linker_1, # of connection points: 2
#     Edge 133, Type (0, 0), BuildingBlock: KIFKEQ_clean_linker_1, # of connection points: 2
#     Edge 134, Type (0, 0), BuildingBlock: KIFKEQ_clean_linker_1, # of connection points: 2
#     Edge 135, Type (0, 0), BuildingBlock: KIFKEQ_clean_linker_1, # of connection points: 2
#     Edge 136, Type (0, 0), BuildingBlock: KIFKEQ_clean_linker_1, # of connection points: 2
#     Edge 137, Type (0, 0), BuildingBlock: KIFKEQ_clean_linker_1, # of connection points: 2
#     Edge 138, Type (0, 0), BuildingBlock: KIFKEQ_clean_linker_1, # of connection points: 2
#     Edge 139, Type (0, 0), BuildingBlock: KIFKEQ_clean_linker_1, # of connection points: 2
#     Edge 140, Type (0, 0), BuildingBlock: KIFKEQ_clean_linker_1, # of connection points: 2
#     Edge 141, Type (0, 0), BuildingBlock: KIFKEQ_clean_linker_1, # of connection points: 2
#     Edge 142, Type (0, 0), BuildingBlock: KIFKEQ_clean_linker_1, # of connection points: 2
#     Edge 143, Type (0, 0), BuildingBlock: KIFKEQ_clean_linker_1, # of connection points: 2
# Relax obj value: 0.095
# Max RMSD: 0.223
# Mean RMSD: 0.216
data_MOF--net-ulj--node1-NAWXER_clean_sbu_0--edge1-KIFKEQ_clean_linker_1
_symmetry_space_group_name_H-M    P1
_symmetry_Int_Tables_number       1
_symmetry_cell_setting            triclinic
loop_
_symmetry_equiv_pos_as_xyz
'x, y, z'
_cell_length_a     66.198647
_cell_length_b     66.212356
_cell_length_c     66.224729
_cell_angle_alpha  90.014908
_cell_angle_beta   90.088462
_cell_angle_gamma 90.06504
loop_
_atom_site_label
_atom_site_type_symbol
_atom_site_fract_x
_atom_site_fract_y
_atom_site_fract_z
_atom_type_partial_charge
C0 C 0.15958 0.27253 0.30258 0.0
C1 C 0.12706 0.23075 0.35322 0.0
O2 O 0.16753 0.27485 0.32012 0.0
Zn3 Zn 0.16382 0.26229 0.35002 0.0
O4 O 0.1454 0.25982 0.30007 0.0
Zn5 Zn 0.14395 0.251 0.32757 0.0
O6 O 0.1341 0.2777 0.34275 0.0
O7 O 0.15704 0.28607 0.36552 0.0
O8 O 0.12321 0.23208 0.33448 0.0
O9 O 0.14183 0.24081 0.36076 0.0
O10 O 0.18953 0.24919 0.3547 0.0
O11 O 0.17157 0.23466 0.33069 0.0
C12 C 0.14029 0.28954 0.35677 0.0
C13 C 0.18773 0.23554 0.34133 0.0
C14 C 0.5257 0.61884 0.90273 0.0
C15 C 0.47768 0.56733 0.92286 0.0
O16 O 0.52209 0.60185 0.89463 0.0
Zn17 Zn 0.5018 0.59301 0.91317 0.0
O18 O 0.51606 0.62404 0.9187 0.0
Zn19 Zn 0.49308 0.61104 0.93767 0.0
O20 O 0.50578 0.60868 0.96343 0.0
O21 O 0.51839 0.58767 0.94089 0.0
O22 O 0.47752 0.58258 0.93482 0.0
O23 O 0.48976 0.5671 0.90799 0.0
O24 O 0.47685 0.61345 0.90741 0.0
O25 O 0.47144 0.63 0.9358 0.0
C26 C 0.51811 0.59473 0.95894 0.0
C27 C 0.4668 0.6266 0.91751 0.0
C28 C 0.8853 0.20699 0.32286 0.0
C29 C 0.83404 0.25817 0.3095 0.0
O30 O 0.8899 0.21807 0.30766 0.0
Zn31 Zn 0.87672 0.24293 0.29149 0.0
O32 O 0.86893 0.21028 0.33227 0.0
Zn33 Zn 0.85951 0.23269 0.31639 0.0
O34 O 0.852 0.21899 0.28796 0.0
O35 O 0.87226 0.23178 0.26485 0.0
O36 O 0.83416 0.24515 0.3236 0.0
O37 O 0.84876 0.25877 0.29692 0.0
O38 O 0.89645 0.26422 0.2948 0.0
O39 O 0.88075 0.25642 0.3231 0.0
C40 C 0.85787 0.21994 0.26954 0.0
C41 C 0.89376 0.26717 0.31358 0.0
C42 C 0.51479 0.92041 0.93175 0.0
C43 C 0.46282 0.87045 0.91985 0.0
O44 O 0.50008 0.92075 0.91944 0.0
Zn45 Zn 0.48895 0.89549 0.9272 0.0
O46 O 0.51714 0.90509 0.94349 0.0
Zn47 Zn 0.50132 0.87635 0.94857 0.0
O48 O 0.52183 0.85727 0.94259 0.0
O49 O 0.51203 0.87481 0.91602 0.0
O50 O 0.47528 0.86394 0.93319 0.0
O51 O 0.4649 0.8882 0.91307 0.0
O52 O 0.48005 0.90174 0.95821 0.0
O53 O 0.49378 0.87749 0.97639 0.0
C54 C 0.52337 0.86118 0.92391 0.0
C55 C 0.48322 0.89339 0.97543 0.0
C56 C 0.11928 0.71146 0.15269 0.0
C57 C 0.16491 0.76555 0.17304 0.0
O58 O 0.11285 0.7209 0.16833 0.0
Zn59 Zn 0.12286 0.74544 0.18704 0.0
O60 O 0.1357 0.71697 0.14447 0.0
Zn61 Zn 0.14201 0.73884 0.16251 0.0
O62 O 0.14932 0.72362 0.19044 0.0
O63 O 0.12646 0.73281 0.21283 0.0
O64 O 0.16649 0.75404 0.15776 0.0
O65 O 0.14962 0.76374 0.18478 0.0
O66 O 0.10204 0.76538 0.18485 0.0
O67 O 0.11895 0.76112 0.15642 0.0
C68 C 0.14217 0.72274 0.20842 0.0
C69 C 0.10499 0.77 0.16649 0.0
C70 C 0.02653 0.61102 0.08748 0.0
C71 C 0.97318 0.58926 0.0429 0.0
O72 O 0.024 0.61361 0.06871 0.0
Zn73 Zn -0.00068 0.59934 0.06586 0.0
O74 O 0.01382 0.60016 0.09733 0.0
Zn75 Zn 0.98653 0.58343 0.08961 0.0
O76 O 0.99344 0.55562 0.09492 0.0
O77 O 0.00761 0.56776 0.06736 0.0
O78 O 0.97057 0.58155 0.06054 0.0
O79 O 0.98793 0.6011 0.03987 0.0
O80 O 0.978 0.61632 0.08385 0.0
O81 O 0.96683 0.59534 0.10714 0.0
C82 C 0.00418 0.55289 0.0793 0.0
C83 C 0.9667 0.61278 0.09918 0.0
C84 C 0.82597 0.73139 0.16963 0.0
C85 C 0.87342 0.78402 0.15045 0.0
O86 O 0.84155 0.73173 0.18118 0.0
Zn87 Zn 0.8688 0.7495 0.18411 0.0
O88 O 0.82438 0.74404 0.15531 0.0
Zn89 Zn 0.84971 0.75751 0.16007 0.0
O90 O 0.87188 0.73427 0.15329 0.0
O91 O 0.88941 0.72962 0.18127 0.0
O92 O 0.85674 0.7793 0.14223 0.0
O93 O 0.87955 0.7741 0.16592 0.0
O94 O 0.86601 0.76156 0.21026 0.0
O95 O 0.84357 0.77266 0.1883 0.0
C96 C 0.88601 0.72511 0.16295 0.0
C97 C 0.85098 0.77273 0.20622 0.0
C98 C 0.97015 0.88226 0.08732 0.0
C99 C 0.02245 0.91031 0.04503 0.0
O100 O 0.97395 0.8794 0.06879 0.0
Zn101 Zn 0.99691 0.89643 0.06706 0.0
O102 O 0.98131 0.89442 0.09759 0.0
Zn103 Zn 0.00769 0.91323 0.09138 0.0
O104 O 0.99828 0.9402 0.09701 0.0
O105 O 0.98414 0.92631 0.0702 0.0
O106 O 0.024 0.91754 0.063 0.0
O107 O 0.00897 0.89724 0.04128 0.0
O108 O 0.01897 0.88105 0.08539 0.0
O109 O 0.02725 0.90221 0.10979 0.0
C110 C 0.9861 0.9414 0.08223 0.0
C111 C 0.02908 0.88508 0.10142 0.0
C112 C 0.30285 0.15955 0.28041 0.0
C113 C 0.34585 0.12348 0.23327 0.0
O114 O 0.32046 0.16766 0.27919 0.0
Zn115 Zn 0.34825 0.16202 0.26264 0.0
O116 O 0.29873 0.14413 0.26975 0.0
Zn117 Zn 0.32418 0.14206 0.25644 0.0
O118 O 0.34365 0.13343 0.28088 0.0
O119 O 0.36757 0.15665 0.28369 0.0
O120 O 0.32731 0.12063 0.23719 0.0
O121 O 0.35533 0.13817 0.24164 0.0
O122 O 0.35155 0.18639 0.247 0.0
O123 O 0.32475 0.16869 0.23816 0.0
C124 C 0.35955 0.14026 0.2896 0.0
C125 C 0.33593 0.18435 0.23604 0.0
C126 C 0.37578 0.39279 0.97058 0.0
C127 C 0.42977 0.41589 0.01528 0.0
O128 O 0.39333 0.38537 0.97284 0.0
Zn129 Zn 0.40336 0.40477 0.99223 0.0
O130 O 0.37101 0.4089 0.98019 0.0
Zn131 Zn 0.38519 0.42921 0.00115 0.0
O132 O 0.38604 0.45426 0.98708 0.0
O133 O 0.40762 0.43206 0.97493 0.0
O134 O 0.41416 0.42732 0.0158 0.0
O135 O 0.43021 0.40089 0.00332 0.0
O136 O 0.38402 0.39961 0.01831 0.0
O137 O 0.36786 0.42833 0.02389 0.0
C138 C 0.3999 0.44982 0.97466 0.0
C139 C 0.37154 0.41017 0.02874 0.0
C140 C 0.67081 0.37871 0.2242 0.0
C141 C 0.71542 0.34358 0.27073 0.0
O142 O 0.66148 0.36467 0.23378 0.0
Zn143 Zn 0.66879 0.34266 0.25686 0.0
O144 O 0.68926 0.38221 0.22816 0.0
Zn145 Zn 0.69257 0.36182 0.24841 0.0
O146 O 0.68947 0.33433 0.231 0.0
O147 O 0.66315 0.31782 0.24315 0.0
O148 O 0.71891 0.35912 0.26008 0.0
O149 O 0.69755 0.33602 0.27096 0.0
O150 O 0.6513 0.34965 0.27881 0.0
O151 O 0.67443 0.37284 0.27289 0.0
C152 C 0.6776 0.31898 0.2306 0.0
C153 C 0.65911 0.36664 0.28299 0.0
C154 C 0.55218 0.07898 0.00715 0.0
C155 C 0.61137 0.10172 0.96992 0.0
O156 O 0.55392 0.09435 0.99582 0.0
Zn157 Zn 0.58175 0.08996 0.98868 0.0
O158 O 0.56745 0.0673 0.00984 0.0
Zn159 Zn 0.5986 0.06571 -0.00052 0.0
O160 O 0.61346 0.06681 0.02392 0.0
O161 O 0.59742 0.09518 0.01719 0.0
O162 O 0.61508 0.08538 0.9796 0.0
O163 O 0.59393 0.10955 0.97091 0.0
O164 O 0.57933 0.06207 0.97119 0.0
O165 O 0.59991 0.04054 0.98612 0.0
C166 C 0.60898 0.08476 0.02879 0.0
C167 C 0.58732 0.04441 0.97224 0.0
C168 C 0.32227 0.89086 0.26895 0.0
C169 C 0.27675 0.85408 0.22462 0.0
O170 O 0.33196 0.87839 0.25769 0.0
Zn171 Zn 0.32432 0.85661 0.23436 0.0
O172 O 0.30327 0.89259 0.26709 0.0
Zn173 Zn 0.29976 0.87301 0.24616 0.0
O174 O 0.30704 0.84549 0.26186 0.0
O175 O 0.33263 0.83112 0.24605 0.0
O176 O 0.27266 0.86813 0.237 0.0
O177 O 0.29516 0.84853 0.22227 0.0
O178 O 0.33856 0.86632 0.21092 0.0
O179 O 0.31375 0.88647 0.22013 0.0
C180 C 0.31973 0.83098 0.26024 0.0
C181 C 0.32829 0.88226 0.20807 0.0
C182 C 0.13259 0.41828 0.03184 0.0
C183 C 0.09621 0.45174 0.97727 0.0
O184 O 0.11705 0.40846 0.02566 0.0
Zn185 Zn 0.09285 0.41196 0.00441 0.0
O186 O 0.13658 0.43562 0.02459 0.0
Zn187 Zn 0.11464 0.43626 0.00529 0.0
O188 O 0.08936 0.44033 0.0243 0.0
O189 O 0.06843 0.41458 0.0208 0.0
O190 O 0.11158 0.45876 0.98644 0.0
O191 O 0.08845 0.43492 0.9827 0.0
O192 O 0.09706 0.38889 0.98681 0.0
O193 O 0.12199 0.41123 0.9861 0.0
C194 C 0.07283 0.43145 0.02888 0.0
C195 C 0.11432 0.3944 0.98033 0.0
C196 C 0.67181 0.61571 0.27834 0.0
C197 C 0.71472 0.64787 0.22854 0.0
O198 O 0.66203 0.62909 0.26826 0.0
Zn199 Zn 0.66859 0.64993 0.24381 0.0
O200 O 0.69022 0.61239 0.2742 0.0
Zn201 Zn 0.69271 0.63156 0.25282 0.0
O202 O 0.69023 0.66005 0.26847 0.0
O203 O 0.66367 0.67586 0.25606 0.0
O204 O 0.71876 0.63366 0.24073 0.0
O205 O 0.69675 0.65515 0.22791 0.0
O206 O 0.65031 0.6415 0.22293 0.0
O207 O 0.67394 0.61895 0.22929 0.0
C208 C 0.67854 0.67549 0.2682 0.0
C209 C 0.6582 0.62442 0.21936 0.0
C210 C 0.90472 0.04775 0.97166 0.0
C211 C 0.85544 0.07804 0.01747 0.0
O212 O 0.91118 0.06295 0.98171 0.0
Zn213 Zn 0.90131 0.08433 0.00324 0.0
O214 O 0.8865 0.04186 0.97357 0.0
Zn215 Zn 0.87906 0.06179 0.99408 0.0
O216 O 0.87914 0.0888 0.97692 0.0
O217 O 0.90239 0.10989 0.98852 0.0
O218 O 0.85228 0.0626 0.00643 0.0
O219 O 0.8728 0.08657 0.01731 0.0
O220 O 0.91951 0.07824 0.02556 0.0
O221 O 0.89803 0.05355 0.01877 0.0
C222 C 0.88833 0.10577 0.97605 0.0
C223 C 0.9127 0.06063 0.02927 0.0
C224 C 0.23289 0.33516 0.18667 0.0
C225 C 0.28477 0.35386 0.13865 0.0
O226 O 0.23261 0.32389 0.17094 0.0
Zn227 Zn 0.24915 0.32123 0.14332 0.0
O228 O 0.24571 0.34937 0.18806 0.0
Zn229 Zn 0.25872 0.34485 0.16248 0.0
O230 O 0.23627 0.35325 0.14041 0.0
O231 O 0.22872 0.32561 0.12331 0.0
O232 O 0.28063 0.36237 0.15532 0.0
O233 O 0.2744 0.33863 0.13262 0.0
O234 O 0.26044 0.29469 0.14517 0.0
O235 O 0.2734 0.31608 0.16725 0.0
C236 C 0.22615 0.34433 0.12649 0.0
C237 C 0.27259 0.29828 0.15959 0.0
C238 C 0.27278 0.71587 0.34578 0.0
C239 C 0.22553 0.67157 0.38012 0.0
O240 O 0.27361 0.69788 0.33859 0.0
Zn241 Zn 0.25905 0.66922 0.34487 0.0
O242 O 0.26128 0.71953 0.36064 0.0
Zn243 Zn 0.24993 0.69313 0.36355 0.0
O244 O 0.27418 0.67498 0.37555 0.0
O245 O 0.28081 0.65178 0.35261 0.0
O246 O 0.2289 0.69021 0.38311 0.0
O247 O 0.23572 0.66193 0.36675 0.0
O248 O 0.24555 0.66352 0.31961 0.0
O249 O 0.23309 0.68968 0.33599 0.0
C250 C 0.28445 0.65961 0.36973 0.0
C251 C 0.23284 0.67785 0.32067 0.0
C252 C 0.92567 0.46538 0.8682 0.0
C253 C 0.93108 0.51518 0.92119 0.0
O254 O 0.91951 0.46469 0.88627 0.0
Zn255 Zn 0.93043 0.48995 0.89533 0.0
O256 O 0.93723 0.4799 0.86266 0.0
Zn257 Zn 0.95035 0.50589 0.87722 0.0
O258 O 0.97891 0.50122 0.8788 0.0
O259 O 0.96195 0.48459 0.90201 0.0
O260 O 0.94242 0.5198 0.90613 0.0
O261 O 0.92121 0.49872 0.9211 0.0
O262 O 0.91697 0.51289 0.87538 0.0
O263 O 0.9428 0.52659 0.85927 0.0
C264 C 0.97886 0.49004 0.8943 0.0
C265 C 0.92394 0.52577 0.86259 0.0
C266 C 0.76984 0.83052 0.31997 0.0
C267 C 0.71787 0.85226 0.36699 0.0
O268 O 0.7689 0.81934 0.33574 0.0
Zn269 Zn 0.75183 0.81793 0.36323 0.0
O270 O 0.75806 0.84558 0.31834 0.0
Zn271 Zn 0.74388 0.84156 0.3435 0.0
O272 O 0.7664 0.84923 0.36585 0.0
O273 O 0.77235 0.82146 0.38334 0.0
O274 O 0.72255 0.8601 0.35014 0.0
O275 O 0.72738 0.83666 0.37341 0.0
O276 O 0.7396 0.7919 0.36156 0.0
O277 O 0.72854 0.81296 0.33822 0.0
C278 C 0.77593 0.83997 0.37994 0.0
C279 C 0.7285 0.79531 0.34629 0.0
C280 C 0.60319 0.52624 0.38046 0.0
C281 C 0.57957 0.47828 0.43108 0.0
O282 O 0.6106 0.52273 0.39781 0.0
Zn283 Zn 0.59154 0.50226 0.40583 0.0
O284 O 0.58749 0.51646 0.37461 0.0
Zn285 Zn 0.56791 0.49341 0.38643 0.0
O286 O 0.54214 0.50616 0.38705 0.0
O287 O 0.56364 0.51899 0.40914 0.0
O288 O 0.5687 0.47821 0.41505 0.0
O289 O 0.59472 0.49004 0.43219 0.0
O290 O 0.59852 0.47759 0.38559 0.0
O291 O 0.571 0.47179 0.36767 0.0
C292 C 0.54601 0.5187 0.40102 0.0
C293 C 0.58919 0.4675 0.37188 0.0
C294 C 0.26696 0.67522 0.67483 0.0
C295 C 0.22007 0.65255 0.62278 0.0
O296 O 0.26749 0.68637 0.659 0.0
Zn297 Zn 0.25323 0.68732 0.62982 0.0
O298 O 0.25522 0.66003 0.67527 0.0
Zn299 Zn 0.24363 0.66377 0.64875 0.0
O300 O 0.26854 0.65645 0.62892 0.0
O301 O 0.27568 0.68441 0.61214 0.0
O302 O 0.22294 0.64522 0.64026 0.0
O303 O 0.23033 0.66799 0.61712 0.0
O304 O 0.24051 0.71307 0.62978 0.0
O305 O 0.22754 0.69209 0.65217 0.0
C306 C 0.27934 0.66602 0.61598 0.0
C307 C 0.22799 0.7096 0.64384 0.0
C308 C 0.91185 0.46829 0.62069 0.0
C309 C 0.95403 0.51906 0.58929 0.0
O310 O 0.93021 0.47269 0.62403 0.0
Zn311 Zn 0.93211 0.4944 0.60532 0.0
O312 O 0.90172 0.47864 0.60776 0.0
Zn313 Zn 0.90778 0.50414 0.58779 0.0
O314 O 0.90212 0.49327 0.56146 0.0
O315 O 0.92807 0.47894 0.57684 0.0
O316 O 0.93587 0.52026 0.58251 0.0
O317 O 0.95821 0.50617 0.6028 0.0
O318 O 0.9139 0.51763 0.61916 0.0
O319 O 0.88941 0.52415 0.59748 0.0
C320 C 0.91609 0.48017 0.56164 0.0
C321 C 0.89783 0.52735 0.61439 0.0
C322 C 0.09832 0.03425 0.59816 0.0
C323 C 0.05695 0.978 0.57758 0.0
O324 O 0.07954 0.03127 0.60003 0.0
Zn325 Zn 0.0782 0.00576 0.58677 0.0
O326 O 0.10907 0.02147 0.58835 0.0
Zn327 Zn 0.10305 0.99371 0.57201 0.0
O328 O 0.10882 0.0002 0.54423 0.0
O329 O 0.08 0.0129 0.55494 0.0
O330 O 0.07479 0.97611 0.57009 0.0
O331 O 0.05286 0.99306 0.58866 0.0
O332 O 0.09662 0.98545 0.60477 0.0
O333 O 0.12151 0.97559 0.58489 0.0
C334 C 0.09266 0.00982 0.54062 0.0
C335 C 0.11278 0.97513 0.60193 0.0
C336 C 0.67398 0.72885 0.82624 0.0
C337 C 0.62486 0.77947 0.84621 0.0
O338 O 0.65822 0.72859 0.81497 0.0
Zn339 Zn 0.63066 0.74556 0.81204 0.0
O340 O 0.67555 0.7419 0.84022 0.0
Zn341 Zn 0.64975 0.75461 0.83572 0.0
O342 O 0.62828 0.7308 0.84292 0.0
O343 O 0.6108 0.72501 0.81507 0.0
O344 O 0.6421 0.77585 0.8538 0.0
O345 O 0.61891 0.76941 0.83073 0.0
O346 O 0.63295 0.75729 0.78578 0.0
O347 O 0.65472 0.77007 0.80755 0.0
C348 C 0.61437 0.72104 0.83349 0.0
C349 C 0.64729 0.7694 0.78967 0.0
C350 C 0.98407 0.08388 0.4362 0.0
C351 C 0.0349 0.13545 0.42177 0.0
O352 O 0.9932 0.08164 0.41932 0.0
Zn353 Zn 0.01595 0.09559 0.40159 0.0
O354 O 0.98852 0.09881 0.44751 0.0
Zn355 Zn 0.00891 0.1106 0.42986 0.0
O356 O 0.99136 0.1198 0.40485 0.0
O357 O 0.00086 0.1036 0.37737 0.0
O358 O 0.02303 0.13537 0.43686 0.0
O359 O 0.03358 0.12168 0.40825 0.0
O360 O 0.03621 0.07417 0.40134 0.0
O361 O 0.03212 0.08848 0.4313 0.0
C362 C 0.98936 0.1164 0.38594 0.0
C363 C 0.04106 0.0757 0.4199 0.0
C364 C 0.36163 0.71472 0.85264 0.0
C365 C 0.31375 0.76708 0.83326 0.0
O366 O 0.36801 0.72566 0.83801 0.0
Zn367 Zn 0.35754 0.75064 0.82041 0.0
O368 O 0.34426 0.71807 0.86007 0.0
Zn369 Zn 0.33731 0.74065 0.84294 0.0
O370 O 0.33309 0.72707 0.81362 0.0
O371 O 0.35632 0.73989 0.79354 0.0
O372 O 0.31145 0.75368 0.84679 0.0
O373 O 0.33 0.76753 0.82277 0.0
O374 O 0.37746 0.77082 0.82575 0.0
O375 O 0.35887 0.76351 0.85242 0.0
C376 C 0.34133 0.7282 0.79614 0.0
C377 C 0.37329 0.7736 0.84425 0.0
C378 C 0.01207 0.43133 0.41341 0.0
C379 C 0.9696 0.37622 0.38927 0.0
O380 O 3e-05 0.43159 0.39845 0.0
Zn381 Zn 0.9899 0.40446 0.4023 0.0
O382 O 0.01299 0.41571 0.42484 0.0
Zn383 Zn 0.99872 0.38636 0.42656 0.0
O384 O 0.0216 0.36938 0.42632 0.0
O385 O 0.01733 0.38645 0.39796 0.0
O386 O 0.97879 0.37158 0.40568 0.0
O387 O 0.97149 0.39392 0.38219 0.0
O388 O 0.972 0.40839 0.42942 0.0
O389 O 0.98469 0.38698 0.45148 0.0
C390 C 0.02759 0.37392 0.4087 0.0
C391 C 0.97205 0.40068 0.44721 0.0
C392 C 0.64861 0.22695 0.72053 0.0
C393 C 0.61551 0.27482 0.67582 0.0
O394 O 0.65595 0.22597 0.70263 0.0
Zn395 Zn 0.65057 0.24087 0.67411 0.0
O396 O 0.63411 0.23893 0.72408 0.0
Zn397 Zn 0.63163 0.25029 0.69758 0.0
O398 O 0.6196 0.22619 0.67913 0.0
O399 O 0.64278 0.21943 0.65626 0.0
O400 O 0.61188 0.27102 0.69425 0.0
O401 O 0.6293 0.26481 0.66655 0.0
O402 O 0.6763 0.25342 0.66917 0.0
O403 O 0.65936 0.26719 0.69436 0.0
C404 C 0.6255 0.21596 0.66376 0.0
C405 C 0.67501 0.26668 0.68296 0.0
C406 C 0.52433 0.1289 0.59025 0.0
C407 C 0.4766 0.0967 0.54464 0.0
O408 O 0.52088 0.13267 0.57177 0.0
Zn409 Zn 0.49981 0.11324 0.56785 0.0
O410 O 0.51408 0.11508 0.59922 0.0
Zn411 Zn 0.49023 0.09403 0.59128 0.0
O412 O 0.5029 0.06815 0.59592 0.0
O413 O 0.51577 0.08513 0.57033 0.0
O414 O 0.4755 0.08912 0.56245 0.0
O415 O 0.48857 0.1113 0.5413 0.0
O416 O 0.47565 0.12499 0.58599 0.0
O417 O 0.46859 0.10192 0.60893 0.0
C418 C 0.5155 0.06932 0.5815 0.0
C419 C 0.46524 0.11917 0.60125 0.0
C420 C 0.31892 0.2306 0.67734 0.0
C421 C 0.3679 0.28184 0.65865 0.0
O422 O 0.3345 0.23029 0.68888 0.0
Zn423 Zn 0.36211 0.24743 0.69225 0.0
O424 O 0.31764 0.2437 0.66339 0.0
Zn425 Zn 0.34324 0.25642 0.66849 0.0
O426 O 0.36457 0.23263 0.6613 0.0
O427 O 0.38219 0.22697 0.68902 0.0
O428 O 0.35111 0.27761 0.65043 0.0
O429 O 0.37369 0.27206 0.67434 0.0
O430 O 0.35937 0.25855 0.7187 0.0
O431 O 0.33749 0.27132 0.69706 0.0
C432 C 0.3785 0.22288 0.67066 0.0
C433 C 0.34472 0.27033 0.71503 0.0
C434 C 0.5215 0.40188 0.54818 0.0
C435 C 0.47111 0.37143 0.5918 0.0
O436 O 0.50927 0.38759 0.54441 0.0
Zn437 Zn 0.49666 0.38632 0.57043 0.0
O438 O 0.52195 0.40959 0.56596 0.0
Zn439 Zn 0.50631 0.40512 0.59418 0.0
O440 O 0.52725 0.39654 0.61241 0.0
O441 O 0.51967 0.37353 0.58954 0.0
O442 O 0.48173 0.38455 0.6014 0.0
O443 O 0.47459 0.36795 0.57328 0.0
O444 O 0.48137 0.41487 0.57262 0.0
O445 O 0.4946 0.43153 0.59835 0.0
C446 C 0.52999 0.37906 0.60501 0.0
C447 C 0.48208 0.43065 0.58382 0.0
C448 C 0.78548 0.64494 0.76891 0.0
C449 C 0.82983 0.61242 0.72071 0.0
O450 O 0.80342 0.65224 0.76987 0.0
Zn451 Zn 0.83191 0.64697 0.75487 0.0
O452 O 0.78167 0.63064 0.75673 0.0
Zn453 Zn 0.80808 0.62844 0.74527 0.0
O454 O 0.82637 0.61609 0.76939 0.0
O455 O 0.84925 0.63933 0.77644 0.0
O456 O 0.81115 0.60945 0.72379 0.0
O457 O 0.83945 0.62556 0.73125 0.0
O458 O 0.83732 0.67263 0.74237 0.0
O459 O 0.81105 0.65665 0.72949 0.0
C460 C 0.8416 0.62209 0.77985 0.0
C461 C 0.8228 0.67205 0.72984 0.0
C462 C 0.87711 0.90965 0.47024 0.0
C463 C 0.93011 0.9259 0.51787 0.0
O464 O 0.89437 0.90182 0.47274 0.0
Zn465 Zn 0.90338 0.91854 0.49435 0.0
O466 O 0.87175 0.92472 0.48117 0.0
Zn467 Zn 0.88543 0.94158 0.50568 0.0
O468 O 0.88664 0.96856 0.49605 0.0
O469 O 0.90871 0.9484 0.48142 0.0
O470 O 0.91494 0.93784 0.51991 0.0
O471 O 0.92945 0.91198 0.50472 0.0
O472 O 0.88376 0.90995 0.51913 0.0
O473 O 0.86728 0.9376 0.52751 0.0
C474 C 0.9012 0.96614 0.48389 0.0
C475 C 0.8708 0.91901 0.53033 0.0
C476 C 0.17487 0.82828 0.71894 0.0
C477 C 0.15483 0.8761 0.77032 0.0
O478 O 0.18754 0.84287 0.72053 0.0
Zn479 Zn 0.19067 0.86998 0.73817 0.0
O480 O 0.15927 0.82808 0.73004 0.0
Zn481 Zn 0.16499 0.85262 0.74441 0.0
O482 O 0.16075 0.87582 0.72184 0.0
O483 O 0.19038 0.89063 0.71788 0.0
O484 O 0.14604 0.86009 0.76448 0.0
O485 O 0.17146 0.88159 0.76199 0.0
O486 O 0.2158 0.86549 0.75164 0.0
O487 O 0.19164 0.84496 0.76193 0.0
C488 C 0.17188 0.88905 0.7131 0.0
C489 C 0.21001 0.85112 0.76292 0.0
C490 C 0.12772 0.58679 0.521 0.0
C491 C 0.09383 0.5451 0.47121 0.0
O492 O 0.13084 0.56847 0.51635 0.0
Zn493 Zn 0.11111 0.56664 0.49543 0.0
O494 O 0.11415 0.59688 0.51146 0.0
Zn495 Zn 0.09283 0.59103 0.48708 0.0
O496 O 0.06699 0.59593 0.49952 0.0
O497 O 0.08324 0.56963 0.51205 0.0
O498 O 0.08686 0.56318 0.47082 0.0
O499 O 0.10826 0.54082 0.48308 0.0
O500 O 0.12361 0.58556 0.47208 0.0
O501 O 0.10147 0.60991 0.46687 0.0
C502 C 0.06783 0.58135 0.51193 0.0
C503 C 0.11833 0.60176 0.46287 0.0
C504 C 0.84291 0.38206 0.77273 0.0
C505 C 0.79163 0.35068 0.73044 0.0
O506 O 0.84976 0.36665 0.76322 0.0
Zn507 Zn 0.83869 0.34508 0.74155 0.0
O508 O 0.8247 0.38751 0.77011 0.0
Zn509 Zn 0.81722 0.36673 0.75128 0.0
O510 O 0.8186 0.33965 0.76892 0.0
O511 O 0.8419 0.31979 0.75582 0.0
O512 O 0.78978 0.36597 0.74189 0.0
O513 O 0.80881 0.34187 0.72887 0.0
O514 O 0.85531 0.35043 0.71816 0.0
O515 O 0.83392 0.37501 0.72496 0.0
C516 C 0.82842 0.32297 0.7691 0.0
C517 C 0.848 0.36766 0.71393 0.0
C518 C 0.62836 0.91533 0.47209 0.0
C519 C 0.59446 0.95489 0.52339 0.0
O520 O 0.63082 0.93379 0.4766 0.0
Zn521 Zn 0.61154 0.93471 0.49811 0.0
O522 O 0.61546 0.90463 0.48181 0.0
Zn523 Zn 0.59395 0.90947 0.50586 0.0
O524 O 0.5685 0.90394 0.49292 0.0
O525 O 0.58343 0.93168 0.48202 0.0
O526 O 0.58751 0.93678 0.52284 0.0
O527 O 0.60873 0.95992 0.51164 0.0
O528 O 0.62433 0.91569 0.52116 0.0
O529 O 0.60283 0.89057 0.52581 0.0
C530 C 0.56853 0.91928 0.48141 0.0
C531 C 0.61935 0.89929 0.53017 0.0
C532 C 0.20307 0.14487 0.72391 0.0
C533 C 0.15226 0.10918 0.76308 0.0
O534 O 0.18562 0.15324 0.72258 0.0
Zn535 Zn 0.15559 0.14822 0.73465 0.0
O536 O 0.20529 0.12897 0.73443 0.0
Zn537 Zn 0.17773 0.12673 0.7429 0.0
O538 O 0.16245 0.12053 0.71503 0.0
O539 O 0.13928 0.14413 0.71078 0.0
O540 O 0.17051 0.10429 0.75992 0.0
O541 O 0.14506 0.1251 0.75475 0.0
O542 O 0.15153 0.17242 0.75044 0.0
O543 O 0.17552 0.15261 0.76239 0.0
C544 C 0.14809 0.12826 0.70461 0.0
C545 C 0.16514 0.16891 0.76355 0.0
C546 C 0.38514 0.60107 0.52921 0.0
C547 C 0.43413 0.58206 0.47849 0.0
O548 O 0.40187 0.60943 0.52503 0.0
Zn549 Zn 0.40968 0.59125 0.50401 0.0
O550 O 0.37938 0.58538 0.51939 0.0
Zn551 Zn 0.39086 0.56745 0.49479 0.0
O552 O 0.39337 0.54103 0.5061 0.0
O553 O 0.41469 0.56288 0.51953 0.0
O554 O 0.41848 0.57065 0.47804 0.0
O555 O 0.43548 0.59601 0.49157 0.0
O556 O 0.38825 0.5986 0.48028 0.0
O557 O 0.37079 0.57084 0.47429 0.0
C558 C 0.40745 0.5449 0.51853 0.0
C559 C 0.37432 0.58929 0.47046 0.0
C560 C 0.7237 0.83458 0.61962 0.0
C561 C 0.77199 0.79076 0.65228 0.0
O562 O 0.73365 0.84424 0.63322 0.0
Zn563 Zn 0.75723 0.83686 0.65494 0.0
O564 O 0.72744 0.8161 0.61625 0.0
Zn565 Zn 0.74828 0.81327 0.63575 0.0
O566 O 0.73136 0.81597 0.66334 0.0
O567 O 0.74437 0.84147 0.68056 0.0
O568 O 0.76032 0.78718 0.6375 0.0
O569 O 0.77232 0.80846 0.66015 0.0
O570 O 0.77876 0.85475 0.64765 0.0
O571 O 0.7722 0.83198 0.62422 0.0
C572 C 0.73147 0.82735 0.67901 0.0
C573 C 0.78243 0.84725 0.6304 0.0
C574 C 0.78572 0.16136 0.8837 0.0
C575 C 0.73211 0.17363 0.83466 0.0
O576 O 0.77489 0.17667 0.88851 0.0
Zn577 Zn 0.74881 0.192 0.87654 0.0
O578 O 0.78113 0.15109 0.86816 0.0
Zn579 Zn 0.75832 0.16688 0.8595 0.0
O580 O 0.77195 0.19537 0.85134 0.0
O581 O 0.75935 0.21859 0.87161 0.0
O582 O 0.74533 0.15973 0.83429 0.0
O583 O 0.7318 0.18622 0.84937 0.0
O584 O 0.72841 0.18933 0.89689 0.0
O585 O 0.73535 0.1604 0.88182 0.0
C586 C 0.77098 0.21384 0.85713 0.0
C587 C 0.7252 0.17054 0.89485 0.0
C588 C 0.39615 0.97009 0.37664 0.0
C589 C 0.42091 0.01455 0.42976 0.0
O590 O 0.38848 0.9736 0.39384 0.0
Zn591 Zn 0.40906 0.99167 0.4037 0.0
O592 O 0.41298 0.97835 0.3718 0.0
Zn593 Zn 0.43402 -0.00107 0.38557 0.0
O594 O 0.4584 0.98385 0.38702 0.0
O595 O 0.43545 0.97305 0.40857 0.0
O596 O 0.43258 0.01429 0.41431 0.0
O597 O 0.40539 0.00326 0.43022 0.0
O598 O 0.40548 0.01774 0.38415 0.0
O599 O 0.43427 0.02139 0.36764 0.0
C600 C 0.45327 0.97188 0.40105 0.0
C601 C 0.41648 0.02739 0.37143 0.0
C602 C 0.25906 0.31856 0.82933 0.0
C603 C 0.2077 0.33066 0.8805 0.0
O604 O 0.2602 0.30608 0.84411 0.0
Zn605 Zn 0.24401 0.29986 0.87167 0.0
O606 O 0.24527 0.33189 0.82908 0.0
Zn607 Zn 0.23328 0.32455 0.8546 0.0
O608 O 0.25719 0.33145 0.87607 0.0
O609 O 0.26491 0.30291 0.89147 0.0
O610 O 0.21049 0.34005 0.86402 0.0
O611 O 0.21917 0.31573 0.88503 0.0
O612 O 0.23332 0.27312 0.86725 0.0
O613 O 0.21997 0.29594 0.84704 0.0
C614 C 0.26787 0.32171 0.88904 0.0
C615 C 0.2213 0.27756 0.85297 0.0
C616 C 0.0768 0.02595 0.86455 0.0
C617 C 0.06952 0.98197 0.92252 0.0
O618 O 0.08298 0.02845 0.88251 0.0
Zn619 Zn 0.07173 0.00442 0.89384 0.0
O620 O 0.06536 0.01084 0.86035 0.0
Zn621 Zn 0.05233 0.98596 0.87717 0.0
O622 O 0.02365 0.99022 0.87732 0.0
O623 O 0.0401 0.01123 0.89718 0.0
O624 O 0.05904 0.97575 0.90743 0.0
O625 O 0.07933 0.99839 0.92126 0.0
O626 O 0.08611 0.9802 0.87649 0.0
O627 O 0.06093 0.96331 0.86226 0.0
C628 C 0.02336 0.00447 0.89006 0.0
C629 C 0.0797 0.96557 0.86542 0.0
C630 C 0.75732 0.1529 0.10498 0.0
C631 C 0.72059 0.20177 0.14524 0.0
O632 O 0.75016 0.14484 0.12107 0.0
Zn633 Zn 0.73272 0.15462 0.14673 0.0
O634 O 0.7546 0.17159 0.10174 0.0
Zn635 Zn 0.73913 0.17746 0.12533 0.0
O636 O 0.76057 0.17505 0.14951 0.0
O637 O 0.75084 0.15005 0.16923 0.0
O638 O 0.72943 0.20445 0.12845 0.0
O639 O 0.72072 0.18421 0.15348 0.0
O640 O 0.70854 0.13831 0.14433 0.0
O641 O 0.71187 0.16098 0.12015 0.0
C642 C 0.76331 0.16411 0.16525 0.0
C643 C 0.70188 0.14656 0.12833 0.0
C644 C 0.38428 0.98166 0.11182 0.0
C645 C 0.43047 0.03022 0.08047 0.0
O646 O 0.40137 0.98333 0.12076 0.0
Zn647 Zn 0.42915 -0.00042 0.11775 0.0
O648 O 0.38042 0.99198 0.09606 0.0
Zn649 Zn 0.40618 0.00614 0.09536 0.0
O650 O 0.42587 0.98197 0.08808 0.0
O651 O 0.44872 0.9783 0.11221 0.0
O652 O 0.41275 0.02599 0.07427 0.0
O653 O 0.43743 0.02142 0.09618 0.0
O654 O 0.43003 0.01507 0.14261 0.0
O655 O 0.40444 0.0233 0.12267 0.0
C656 C 0.44127 0.97286 0.09535 0.0
C657 C 0.41417 0.02538 0.13929 0.0
C658 C 0.54414 0.47499 0.0958 0.0
C659 C 0.58834 0.52313 0.12936 0.0
O660 O 0.54034 0.48707 0.11016 0.0
Zn661 Zn 0.56676 0.49857 0.11294 0.0
O662 O 0.56216 0.47401 0.08874 0.0
Zn663 Zn 0.5906 0.4891 0.09434 0.0
O664 O 0.60839 0.46773 0.10265 0.0
O665 O 0.58503 0.47469 0.1253 0.0
O666 O 0.59782 0.51312 0.1157 0.0
O667 O 0.56982 0.51939 0.13263 0.0
O668 O 0.57025 0.51517 0.08524 0.0
O669 O 0.59564 0.50154 0.06846 0.0
C670 C 0.60054 0.46445 0.11982 0.0
C671 C 0.58171 0.51466 0.06966 0.0
H672 H 0.19545 0.31849 0.18465 0.0
H673 H 0.24011 0.34054 0.22677 0.0
H674 H 0.17488 0.30637 0.21258 0.0
H675 H 0.22038 0.32727 0.25473 0.0
H676 H 0.17767 0.30942 0.3036 0.0
H677 H 0.19239 0.32799 0.27549 0.0
H678 H 0.17499 0.27968 0.23494 0.0
H679 H 0.15919 0.26194 0.26288 0.0
C680 C 0.20079 0.3208 0.19995 0.0
C681 C 0.21936 0.33034 0.20361 0.0
C682 C 0.18912 0.31368 0.21598 0.0
C683 C 0.19605 0.31546 0.23601 0.0
C684 C 0.21432 0.32581 0.23962 0.0
C685 C 0.22574 0.33337 0.22358 0.0
C686 C 0.17684 0.30295 0.28859 0.0
C687 C 0.16739 0.28423 0.28537 0.0
C688 C 0.18538 0.31351 0.27247 0.0
C689 C 0.1851 0.30535 0.25285 0.0
C690 C 0.17523 0.28674 0.24968 0.0
C691 C 0.16627 0.27643 0.26573 0.0
H692 H 0.58339 0.5067 0.02934 0.0
H693 H 0.57048 0.55386 0.07234 0.0
H694 H 0.57064 0.52792 0.00209 0.0
H695 H 0.55917 0.57579 0.04511 0.0
H696 H 0.51231 0.59635 -0.00052 0.0
H697 H 0.5308 0.57864 0.02554 0.0
H698 H 0.5721 0.55547 0.98054 0.0
H699 H 0.55255 0.57235 0.95422 0.0
C700 C 0.5784 0.52189 0.03281 0.0
C701 C 0.57765 0.52862 0.05287 0.0
C702 C 0.57115 0.53415 0.0172 0.0
C703 C 0.56347 0.55356 0.02133 0.0
C704 C 0.56426 0.56073 0.04134 0.0
C705 C 0.57094 0.54827 0.05696 0.0
C706 C 0.52546 0.58765 0.99517 0.0
C707 C 0.53092 0.58566 0.9748 0.0
C708 C 0.53625 0.57756 0.01018 0.0
C709 C 0.5531 0.56555 0.0053 0.0
C710 C 0.55902 0.56423 0.98491 0.0
C711 C 0.54792 0.57402 0.96981 0.0
H712 H 0.86658 0.21674 0.22914 0.0
H713 H 0.82413 0.19687 0.2745 0.0
H714 H 0.84645 0.19998 0.20314 0.0
H715 H 0.80374 0.18082 0.24861 0.0
H716 H 0.77457 0.1442 0.19987 0.0
H717 H 0.80022 0.15455 0.22432 0.0
H718 H 0.81494 0.20603 0.187 0.0
H719 H 0.78997 0.19536 0.1624 0.0
C720 C 0.85304 0.20871 0.23359 0.0
C721 C 0.8469 0.20829 0.25388 0.0
C722 C 0.84143 0.19918 0.21868 0.0
C723 C 0.82335 0.18916 0.22372 0.0
C724 C 0.81768 0.18813 0.24414 0.0
C725 C 0.82933 0.19751 0.25902 0.0
C726 C 0.7835 0.15755 0.19678 0.0
C727 C 0.7801 0.16902 0.17925 0.0
C728 C 0.79813 0.16356 0.21084 0.0
C729 C 0.80959 0.18123 0.20774 0.0
C730 C 0.80666 0.19221 0.18982 0.0
C731 C 0.79216 0.18615 0.17574 0.0
H732 H 0.4761 0.93341 0.98147 0.0
H733 H 0.47604 0.87576 0.01202 0.0
H734 H 0.46855 0.95031 0.01344 0.0
H735 H 0.46792 0.89274 0.04392 0.0
H736 H 0.42406 0.93799 0.08312 0.0
H737 H 0.43534 0.91663 0.05509 0.0
H738 H 0.4894 0.95267 0.04963 0.0
H739 H 0.47838 0.97364 0.07817 0.0
C740 C 0.47418 0.92434 0.99495 0.0
C741 C 0.47655 0.90327 0.99426 0.0
C742 C 0.47012 0.93402 0.01324 0.0
C743 C 0.46795 0.92278 0.03108 0.0
C744 C 0.4697 0.90168 0.03034 0.0
C745 C 0.47424 0.89202 0.01212 0.0
C746 C 0.43875 0.94074 0.07646 0.0
C747 C 0.45059 0.95712 0.08292 0.0
C748 C 0.44511 0.92865 0.0604 0.0
C749 C 0.46312 0.93318 0.05021 0.0
C750 C 0.47544 0.94897 0.05731 0.0
C751 C 0.46929 0.96076 0.07372 0.0
H752 H 0.20366 0.70669 0.31944 0.0
H753 H 0.2283 0.65703 0.28502 0.0
H754 H 0.18026 0.71402 0.29226 0.0
H755 H 0.20435 0.66417 0.25777 0.0
H756 H 0.17896 0.70435 0.20533 0.0
H757 H 0.19941 0.69055 0.23259 0.0
H758 H 0.15084 0.70173 0.27465 0.0
H759 H 0.13057 0.71606 0.24747 0.0
C760 C 0.20395 0.69717 0.30614 0.0
C761 C 0.21795 0.68134 0.30436 0.0
C762 C 0.19036 0.70127 0.2906 0.0
C763 C 0.19035 0.68963 0.27287 0.0
C764 C 0.20409 0.67352 0.27119 0.0
C765 C 0.21775 0.66939 0.28681 0.0
C766 C 0.17251 0.70359 0.22033 0.0
C767 C 0.15324 0.71158 0.22429 0.0
C768 C 0.18421 0.69556 0.23595 0.0
C769 C 0.17686 0.69527 0.25585 0.0
C770 C 0.1571 0.70212 0.25955 0.0
C771 C 0.14544 0.71025 0.24396 0.0
H772 H 0.9398 0.56453 0.04287 0.0
H773 H 0.97898 0.59871 0.00345 0.0
H774 H 0.92343 0.54946 0.01342 0.0
H775 H 0.96374 0.58299 0.97441 0.0
H776 H 0.93443 0.55608 0.92225 0.0
H777 H 0.93791 0.57739 0.95205 0.0
H778 H 0.93184 0.5246 0.99014 0.0
H779 H 0.92685 0.50377 0.96033 0.0
C780 C 0.94474 0.569 0.02794 0.0
C781 C 0.96085 0.5826 0.02551 0.0
C782 C 0.93549 0.56025 0.01104 0.0
C783 C 0.9424 0.56471 0.99142 0.0
C784 C 0.95769 0.57929 0.98912 0.0
C785 C 0.96665 0.58823 0.00591 0.0
C786 C 0.93346 0.5492 0.93706 0.0
C787 C 0.93066 0.52832 0.93907 0.0
C788 C 0.93556 0.56135 0.95416 0.0
C789 C 0.93563 0.55273 0.97361 0.0
C790 C 0.93167 0.53192 0.97553 0.0
C791 C 0.92898 0.51989 0.95842 0.0
H792 H 0.86462 0.77921 0.24466 0.0
H793 H 0.81541 0.79354 0.20419 0.0
H794 H 0.8471 0.79635 0.27205 0.0
H795 H 0.79763 0.81017 0.23171 0.0
H796 H 0.77481 0.84904 0.28316 0.0
H797 H 0.79656 0.83813 0.25542 0.0
H798 H 0.81789 0.78839 0.2919 0.0
H799 H 0.79672 0.79948 0.31956 0.0
C800 C 0.85012 0.78611 0.24157 0.0
C801 C 0.84131 0.78482 0.2223 0.0
C802 C 0.84003 0.79587 0.25729 0.0
C803 C 0.82085 0.80444 0.25414 0.0
C804 C 0.81245 0.80391 0.23463 0.0
C805 C 0.8226 0.79425 0.21887 0.0
C806 C 0.78434 0.83593 0.2853 0.0
C807 C 0.78396 0.82509 0.30354 0.0
C808 C 0.79672 0.82962 0.26938 0.0
C809 C 0.80896 0.81238 0.27142 0.0
C810 C 0.80893 0.80192 0.28988 0.0
C811 C 0.79662 0.80821 0.30573 0.0
H812 H 0.06904 0.94129 0.92663 0.0
H813 H 0.06891 0.99666 0.96095 0.0
H814 H 0.06361 0.92201 0.95744 0.0
H815 H 0.06197 0.97764 0.99172 0.0
H816 H 0.05276 0.93882 0.04641 0.0
H817 H 0.06972 0.95462 0.01766 0.0
H818 H 0.03548 0.91647 0.97704 0.0
H819 H 0.01962 0.90024 0.00541 0.0
C820 C 0.06793 0.94929 0.94087 0.0
C821 C 0.06913 0.9704 0.94148 0.0
C822 C 0.06466 0.93829 0.95852 0.0
C823 C 0.06179 0.94824 0.9771 0.0
C824 C 0.06422 0.96938 0.9778 0.0
C825 C 0.06807 0.98033 0.96016 0.0
C826 C 0.04924 0.93358 0.03132 0.0
C827 C 0.03475 0.91836 0.02822 0.0
C828 C 0.05883 0.94273 0.01482 0.0
C829 C 0.05397 0.93694 0.99492 0.0
C830 C 0.04004 0.92115 0.99203 0.0
C831 C 0.03071 0.9119 0.00841 0.0
H832 H 0.26689 0.14291 0.29178 0.0
H833 H 0.30329 0.19672 0.29841 0.0
H834 H 0.23969 0.15897 0.31054 0.0
H835 H 0.27581 0.21307 0.31656 0.0
H836 H 0.22609 0.23525 0.35736 0.0
H837 H 0.25472 0.21479 0.34621 0.0
H838 H 0.21614 0.18487 0.30278 0.0
H839 H 0.18768 0.20469 0.31422 0.0
C840 C 0.26911 0.15815 0.29732 0.0
C841 C 0.28715 0.16863 0.2934 0.0
C842 C 0.25349 0.16739 0.30802 0.0
C843 C 0.25544 0.18742 0.31486 0.0
C844 C 0.27384 0.19757 0.31171 0.0
C845 C 0.28956 0.18824 0.30116 0.0
C846 C 0.22369 0.22404 0.34569 0.0
C847 C 0.20463 0.2217 0.3366 0.0
C848 C 0.24012 0.21242 0.3392 0.0
C849 C 0.23778 0.19824 0.32352 0.0
C850 C 0.2185 0.1954 0.31507 0.0
C851 C 0.20215 0.20693 0.32156 0.0
H852 H 0.47521 0.53138 0.90232 0.0
H853 H 0.44953 0.56419 0.95254 0.0
H854 H 0.45388 0.50232 0.91049 0.0
H855 H 0.42872 0.53526 0.96086 0.0
H856 H 0.38383 0.48675 0.96621 0.0
H857 H 0.40054 0.51499 0.9496 0.0
H858 H 0.45241 0.47728 0.93765 0.0
H859 H 0.43545 0.44886 0.95377 0.0
C860 C 0.46495 0.53244 0.915 0.0
C861 C 0.46414 0.55005 0.92685 0.0
C862 C 0.4528 0.5158 0.9197 0.0
C863 C 0.43956 0.51652 0.93627 0.0
C864 C 0.43846 0.53432 0.94777 0.0
C865 C 0.45057 0.55087 0.9431 0.0
C866 C 0.39864 0.48438 0.95969 0.0
C867 C 0.40847 0.46569 0.96157 0.0
C868 C 0.40824 0.50057 0.95026 0.0
C869 C 0.42794 0.49846 0.94267 0.0
C870 C 0.4372 0.47937 0.94327 0.0
C871 C 0.42751 0.4631 0.95259 0.0
H872 H 0.79908 0.26045 0.33177 0.0
H873 H 0.83014 0.28787 0.28136 0.0
H874 H 0.7703 0.2829 0.32607 0.0
H875 H 0.80145 0.3098 0.27547 0.0
H876 H 0.75411 0.35699 0.27605 0.0
H877 H 0.78284 0.33791 0.28884 0.0
H878 H 0.74369 0.2871 0.30097 0.0
H879 H 0.71485 0.30638 0.2887 0.0
C880 C 0.79982 0.2713 0.31956 0.0
C881 C 0.81689 0.27231 0.30699 0.0
C882 C 0.7833 0.2841 0.31625 0.0
C883 C 0.78357 0.2982 0.30035 0.0
C884 C 0.80084 0.29941 0.28808 0.0
C885 C 0.81727 0.28666 0.29137 0.0
C886 C 0.75157 0.34187 0.28175 0.0
C887 C 0.73223 0.33313 0.28113 0.0
C888 C 0.76806 0.33089 0.28898 0.0
C889 C 0.76563 0.31086 0.29563 0.0
C890 C 0.74609 0.30252 0.29608 0.0
C891 C 0.72956 0.31356 0.28895 0.0
H892 H 0.51485 0.9544 0.90829 0.0
H893 H 0.54542 0.92639 0.95874 0.0
H894 H 0.53523 0.98476 0.91283 0.0
H895 H 0.56538 0.95682 0.96356 0.0
H896 H 0.6063 0.00884 0.96445 0.0
H897 H 0.59126 0.97849 0.95006 0.0
H898 H 0.53637 0.01158 0.93768 0.0
H899 H 0.55167 0.04208 0.95155 0.0
C900 C 0.52603 0.95465 0.92025 0.0
C901 C 0.52841 0.93804 0.93327 0.0
C902 C 0.53765 0.97208 0.92287 0.0
C903 C 0.55189 0.97326 0.93858 0.0
C904 C 0.55478 0.95634 0.9511 0.0
C905 C 0.54321 0.93891 0.94845 0.0
C906 C 0.5912 0.00974 0.95818 0.0
C907 C 0.58003 0.02773 0.95938 0.0
C908 C 0.58254 0.99233 0.95006 0.0
C909 C 0.56247 0.9925 0.94315 0.0
C910 C 0.5519 0.01093 0.94281 0.0
C911 C 0.56065 0.02843 0.95078 0.0
H912 H 0.19971 0.77408 0.15208 0.0
H913 H 0.16607 0.7908 0.20542 0.0
H914 H 0.22649 0.79765 0.16176 0.0
H915 H 0.19285 0.81372 0.21529 0.0
H916 H 0.27976 0.81968 0.20208 0.0
H917 H 0.25241 0.80001 0.18732 0.0
H918 H 0.20941 0.84477 0.20739 0.0
H919 H 0.23673 0.86414 0.22274 0.0
C920 C 0.19798 0.78282 0.1658 0.0
C921 C 0.18078 0.7805 0.178 0.0
C922 C 0.21336 0.79625 0.17139 0.0
C923 C 0.21183 0.8076 0.1893 0.0
C924 C 0.19441 0.80553 0.20122 0.0
C925 C 0.17908 0.79221 0.19562 0.0
C926 C 0.2645 0.82544 0.20317 0.0
C927 C 0.26039 0.84335 0.2138 0.0
C928 C 0.24881 0.81421 0.19457 0.0
C929 C 0.22868 0.82071 0.19631 0.0
C930 C 0.22471 0.83913 0.20612 0.0
C931 C 0.24037 0.85028 0.21485 0.0
H932 H 0.03326 0.43888 0.02078 0.0
H933 H 0.08057 0.45067 0.06407 0.0
H934 H 0.01323 0.46645 0.03531 0.0
H935 H 0.06039 0.47775 0.07893 0.0
H936 H 0.01179 0.52121 0.10486 0.0
H937 H 0.02475 0.48764 0.09582 0.0
H938 H 0.02551 0.50496 0.03302 0.0
H939 H 0.01315 0.53848 0.04198 0.0
C940 C 0.0389 0.4467 0.03401 0.0
C941 C 0.05835 0.44267 0.04141 0.0
C942 C 0.02757 0.46257 0.04218 0.0
C943 C 0.03538 0.47426 0.05812 0.0
C944 C 0.05399 0.46889 0.06674 0.0
C945 C 0.06549 0.45339 0.05828 0.0
C946 C 0.01469 0.51777 0.08914 0.0
C947 C 0.01168 0.53251 0.07414 0.0
C948 C 0.022 0.4986 0.08399 0.0
C949 C 0.02586 0.49369 0.06372 0.0
C950 C 0.02235 0.50826 0.04872 0.0
C951 C 0.01552 0.52752 0.05389 0.0
H952 H 0.82967 0.69284 0.18294 0.0
H953 H 0.78548 0.73761 0.16613 0.0
H954 H 0.8028 0.67 0.1933 0.0
H955 H 0.7585 0.71559 0.17796 0.0
H956 H 0.71135 0.66977 0.19365 0.0
H957 H 0.73823 0.68743 0.17567 0.0
H958 H 0.78142 0.666 0.21989 0.0
H959 H 0.75488 0.64741 0.23674 0.0
C960 C 0.81413 0.69774 0.18149 0.0
C961 C 0.80959 0.71696 0.17387 0.0
C962 C 0.79868 0.68476 0.18762 0.0
C963 C 0.77834 0.69098 0.18693 0.0
C964 C 0.77386 0.71003 0.17854 0.0
C965 C 0.78932 0.72277 0.17185 0.0
C966 C 0.72669 0.66863 0.19924 0.0
C967 C 0.73103 0.65722 0.21656 0.0
C968 C 0.74211 0.6789 0.18906 0.0
C969 C 0.76214 0.67836 0.19629 0.0
C970 C 0.7664 0.66652 0.21345 0.0
C971 C 0.7511 0.65591 0.22329 0.0
H972 H 0.95232 0.06062 0.04166 0.0
H973 H 0.89558 0.02929 0.04913 0.0
H974 H 0.96985 0.03264 0.05846 0.0
H975 H 0.91293 0.00166 0.066 0.0
H976 H 0.95379 0.94602 0.05732 0.0
H977 H 0.93575 0.9769 0.04925 0.0
H978 H 0.97423 0.01038 0.09 0.0
H979 H 0.99249 0.97919 0.09819 0.0
C980 C 0.94353 0.04812 0.04751 0.0
C981 C 0.92265 0.04697 0.04383 0.0
C982 C 0.95355 0.0321 0.05708 0.0
C983 C 0.94278 0.01479 0.06312 0.0
C984 C 0.92167 0.0146 0.06109 0.0
C985 C 0.91173 0.03048 0.05152 0.0
C986 C 0.95836 0.9599 0.06471 0.0
C987 C 0.97457 0.96014 0.0784 0.0
C988 C 0.94791 0.97759 0.06019 0.0
C989 C 0.95348 0.99605 0.06912 0.0
C990 C 0.96964 0.99637 0.0829 0.0
C991 C 0.97999 0.97852 0.08764 0.0
H992 H 0.27709 0.25976 0.14535 0.0
H993 H 0.29634 0.29971 0.19331 0.0
H994 H 0.2955 0.23207 0.16112 0.0
H995 H 0.31422 0.27193 0.20935 0.0
H996 H 0.30307 0.18437 0.21128 0.0
H997 H 0.29043 0.21191 0.19076 0.0
H998 H 0.34199 0.2483 0.20765 0.0
H999 H 0.35447 0.22074 0.22878 0.0
C1000 C 0.28532 0.26266 0.1592 0.0
C1001 C 0.28508 0.28188 0.16818 0.0
C1002 C 0.29581 0.24677 0.16828 0.0
C1003 C 0.3062 0.24973 0.18659 0.0
C1004 C 0.30659 0.26916 0.19513 0.0
C1005 C 0.29619 0.28507 0.18601 0.0
C1006 C 0.31187 0.19814 0.21049 0.0
C1007 C 0.3297 0.20041 0.22182 0.0
C1008 C 0.30468 0.21392 0.19856 0.0
C1009 C 0.31516 0.23236 0.19759 0.0
C1010 C 0.33342 0.23438 0.2083 0.0
C1011 C 0.34063 0.21856 0.22031 0.0
H1012 H 0.31254 0.83275 0.3004 0.0
H1013 H 0.32333 0.79083 0.25179 0.0
H1014 H 0.30557 0.80479 0.32318 0.0
H1015 H 0.31483 0.76271 0.27402 0.0
H1016 H 0.30486 0.71355 0.31972 0.0
H1017 H 0.32055 0.74116 0.30098 0.0
H1018 H 0.27934 0.78326 0.3292 0.0
H1019 H 0.26478 0.75601 0.34863 0.0
C1020 C 0.31347 0.81745 0.29466 0.0
C1021 C 0.31835 0.81388 0.27439 0.0
C1022 C 0.30926 0.80139 0.30763 0.0
C1023 C 0.3091 0.78136 0.30045 0.0
C1024 C 0.31494 0.77781 0.28028 0.0
C1025 C 0.31974 0.79392 0.26745 0.0
C1026 C 0.29945 0.7288 0.3221 0.0
C1027 C 0.28361 0.73261 0.33566 0.0
C1028 C 0.30833 0.74465 0.31124 0.0
C1029 C 0.30127 0.7646 0.31341 0.0
C1030 C 0.28565 0.7683 0.32734 0.0
C1031 C 0.27711 0.75258 0.33846 0.0
H1032 H 0.01694 0.48999 0.87829 0.0
H1033 H 0.98418 0.48011 0.9338 0.0
H1034 H 0.04891 0.48465 0.8963 0.0
H1035 H 0.01605 0.47524 0.95173 0.0
H1036 H 0.07573 0.48674 0.98183 0.0
H1037 H 0.04826 0.49829 0.9598 0.0
H1038 H 0.06395 0.45253 0.91614 0.0
H1039 H 0.09101 0.44072 0.93842 0.0
C1040 C 0.01658 0.48663 0.89429 0.0
C1041 C 0.99807 0.48531 0.90462 0.0
C1042 C 0.03483 0.48369 0.90456 0.0
C1043 C 0.03488 0.47989 0.92541 0.0
C1044 C 0.0164 0.47851 0.93571 0.0
C1045 C 0.99817 0.48102 0.92539 0.0
C1046 C 0.07387 0.47984 0.96711 0.0
C1047 C 0.08557 0.46311 0.96157 0.0
C1048 C 0.05803 0.48623 0.95466 0.0
C1049 C 0.05396 0.47614 0.93641 0.0
C1050 C 0.06688 0.46061 0.93007 0.0
C1051 C 0.08242 0.45396 0.94271 0.0
H1052 H 0.70885 0.79522 0.30989 0.0
H1053 H 0.72236 0.75742 0.36135 0.0
H1054 H 0.6942 0.76624 0.29246 0.0
H1055 H 0.70727 0.72861 0.34413 0.0
H1056 H 0.70888 0.67888 0.29582 0.0
H1057 H 0.7179 0.70811 0.31601 0.0
H1058 H 0.66731 0.741 0.29116 0.0
H1059 H 0.65844 0.71169 0.27049 0.0
C1060 C 0.70833 0.78083 0.31765 0.0
C1061 C 0.71701 0.77857 0.3369 0.0
C1062 C 0.69984 0.76423 0.30768 0.0
C1063 C 0.69979 0.74505 0.3168 0.0
C1064 C 0.70746 0.74308 0.33652 0.0
C1065 C 0.71602 0.75963 0.34643 0.0
C1066 C 0.69955 0.69226 0.29473 0.0
C1067 C 0.68298 0.69296 0.28146 0.0
C1068 C 0.70464 0.70901 0.30646 0.0
C1069 C 0.6933 0.7269 0.30527 0.0
C1070 C 0.67646 0.7275 0.29229 0.0
C1071 C 0.67133 0.71068 0.28053 0.0
H1072 H 0.43144 0.56994 0.4395 0.0
H1073 H 0.47439 0.58468 0.48629 0.0
H1074 H 0.45883 0.55893 0.41765 0.0
H1075 H 0.50178 0.57224 0.46522 0.0
H1076 H 0.54998 0.55408 0.42194 0.0
H1077 H 0.52317 0.57377 0.43773 0.0
H1078 H 0.47901 0.53102 0.41519 0.0
H1079 H 0.50558 0.51239 0.39848 0.0
C1080 C 0.44683 0.57085 0.44503 0.0
C1081 C 0.45088 0.57797 0.46455 0.0
C1082 C 0.46254 0.56437 0.43262 0.0
C1083 C 0.4826 0.56421 0.43973 0.0
C1084 C 0.48665 0.57229 0.45902 0.0
C1085 C 0.47094 0.57933 0.4712 0.0
C1086 C 0.53446 0.54918 0.42014 0.0
C1087 C 0.52984 0.5317 0.40904 0.0
C1088 C 0.51908 0.56036 0.42931 0.0
C1089 C 0.49881 0.55401 0.42794 0.0
C1090 C 0.49429 0.53677 0.41631 0.0
C1091 C 0.50958 0.52591 0.4068 0.0
H1092 H 0.20505 0.70974 0.67812 0.0
H1093 H 0.22252 0.74703 0.6275 0.0
H1094 H 0.18885 0.73875 0.69385 0.0
H1095 H 0.20589 0.77591 0.643 0.0
H1096 H 0.20617 0.82505 0.69254 0.0
H1097 H 0.21524 0.79613 0.67199 0.0
H1098 H 0.1622 0.76431 0.69286 0.0
H1099 H 0.15326 0.79328 0.71389 0.0
C1100 C 0.20503 0.72401 0.67013 0.0
C1101 C 0.21535 0.72618 0.65173 0.0
C1102 C 0.19565 0.74062 0.6791 0.0
C1103 C 0.19632 0.75969 0.66978 0.0
C1104 C 0.20547 0.7615 0.65073 0.0
C1105 C 0.21494 0.74493 0.64183 0.0
C1106 C 0.19629 0.81199 0.69263 0.0
C1107 C 0.17909 0.8114 0.70499 0.0
C1108 C 0.20141 0.79545 0.68069 0.0
C1109 C 0.18943 0.77792 0.68079 0.0
C1110 C 0.17183 0.77755 0.69263 0.0
C1111 C 0.16667 0.79416 0.70459 0.0
H1112 H 0.06974 0.56774 0.55045 0.0
H1113 H 0.02765 0.58471 0.5037 0.0
H1114 H 0.0419 0.55651 0.57161 0.0
H1115 H -0.00027 0.57204 0.52406 0.0
H1116 H 0.95076 0.55429 0.5677 0.0
H1117 H 0.97798 0.57314 0.55142 0.0
H1118 H 0.02106 0.5291 0.57327 0.0
H1119 H 0.99422 0.51131 0.59041 0.0
C1120 C 0.05444 0.56907 0.54477 0.0
C1121 C 0.05077 0.57693 0.52547 0.0
C1122 C 0.03845 0.56244 0.55678 0.0
C1123 C 0.01845 0.56286 0.54946 0.0
C1124 C 0.0148 0.5716 0.5304 0.0
C1125 C 0.0308 0.57879 0.51863 0.0
C1126 C 0.96614 0.5489 0.56921 0.0
C1127 C 0.97037 0.53137 0.58037 0.0
C1128 C 0.98175 0.5596 0.55975 0.0
C1129 C 0.00187 0.55275 0.56093 0.0
C1130 C 0.00596 0.53529 0.57236 0.0
C1131 C 0.99047 0.52491 0.58211 0.0
H1132 H 0.937 0.95515 0.54602 0.0
H1133 H 0.96546 0.90448 0.51635 0.0
H1134 H 0.96865 0.96321 0.5627 0.0
H1135 H 0.99719 0.91233 0.53349 0.0
H1136 H 0.05324 0.95548 0.54317 0.0
H1137 H 0.02255 0.93893 0.53099 0.0
H1138 H 0.9929 0.95255 0.58748 0.0
H1139 H 0.02329 0.9696 0.5993 0.0
C1140 C 0.94992 0.9455 0.54333 0.0
C1141 C 0.94873 0.92927 0.52974 0.0
C1142 C 0.96808 0.95003 0.55303 0.0
C1143 C 0.98548 0.93839 0.54944 0.0
C1144 C 0.98411 0.9217 0.53641 0.0
C1145 C 0.96591 0.91716 0.52667 0.0
C1146 C 0.04032 0.95445 0.55314 0.0
C1147 C 0.04049 0.96408 0.57202 0.0
C1148 C 0.02274 0.94495 0.5462 0.0
C1149 C 0.00515 0.94479 0.55813 0.0
C1150 C 0.00602 0.95289 0.57772 0.0
C1151 C 0.02345 0.96255 0.58453 0.0
H1152 H 0.73786 0.83041 0.71951 0.0
H1153 H 0.69264 0.81508 0.67511 0.0
H1154 H 0.71549 0.81895 0.74634 0.0
H1155 H 0.66953 0.80506 0.70184 0.0
H1156 H 0.64656 0.76129 0.7495 0.0
H1157 H 0.66531 0.77811 0.72303 0.0
H1158 H 0.68708 0.82209 0.76631 0.0
H1159 H 0.66924 0.8042 0.7931 0.0
C1160 C 0.72287 0.82509 0.7156 0.0
C1161 C 0.717 0.82334 0.69533 0.0
C1162 C 0.70994 0.81862 0.73097 0.0
C1163 C 0.69068 0.81076 0.72635 0.0
C1164 C 0.68444 0.81036 0.70602 0.0
C1165 C 0.69758 0.81627 0.69068 0.0
C1166 C 0.65516 0.7747 0.7533 0.0
C1167 C 0.65655 0.78137 0.77335 0.0
C1168 C 0.66586 0.7845 0.73806 0.0
C1169 C 0.67786 0.80155 0.7424 0.0
C1170 C 0.67842 0.80878 0.7624 0.0
C1171 C 0.66806 0.79864 0.77775 0.0
H1172 H 0.03637 0.03544 0.42496 0.0
H1173 H 0.07597 0.08534 0.43863 0.0
H1174 H 0.05195 0.01572 0.45217 0.0
H1175 H 0.09193 0.06553 0.46543 0.0
H1176 H 0.11907 0.01876 0.51006 0.0
H1177 H 0.11073 0.03099 0.47602 0.0
H1178 H 0.04726 0.02758 0.4904 0.0
H1179 H 0.0555 0.01594 0.52438 0.0
C1180 C 0.04918 0.04171 0.43302 0.0
C1181 C 0.0552 0.06174 0.42965 0.0
C1182 C 0.05792 0.03056 0.4487 0.0
C1183 C 0.073 0.03921 0.46094 0.0
C1184 C 0.08045 0.05846 0.45611 0.0
C1185 C 0.07142 0.06975 0.44074 0.0
C1186 C 0.10336 0.02054 0.50586 0.0
C1187 C 0.08792 0.01662 0.5199 0.0
C1188 C 0.09862 0.02745 0.48642 0.0
C1189 C 0.07837 0.02995 0.48057 0.0
C1190 C 0.06298 0.02545 0.49444 0.0
C1191 C 0.06771 0.01904 0.51395 0.0
H1192 H 0.30617 0.70655 0.79526 0.0
H1193 H 0.35641 0.72482 0.75786 0.0
H1194 H 0.28968 0.69164 0.76594 0.0
H1195 H 0.34017 0.70939 0.72863 0.0
H1196 H 0.29225 0.70746 0.67862 0.0
H1197 H 0.31158 0.71773 0.70802 0.0
H1198 H 0.2901 0.66537 0.74053 0.0
H1199 H 0.27019 0.65529 0.71107 0.0
C1200 C 0.31387 0.70707 0.78085 0.0
C1201 C 0.33251 0.71708 0.77885 0.0
C1202 C 0.30445 0.69841 0.76404 0.0
C1203 C 0.3135 0.69947 0.74488 0.0
C1204 C 0.33259 0.70865 0.7431 0.0
C1205 C 0.34196 0.71741 0.75987 0.0
C1206 C 0.2917 0.69802 0.69197 0.0
C1207 C 0.27958 0.68059 0.69251 0.0
C1208 C 0.30295 0.70385 0.70881 0.0
C1209 C 0.30247 0.69235 0.72664 0.0
C1210 C 0.29064 0.67468 0.72709 0.0
C1211 C 0.27931 0.66885 0.71019 0.0
H1212 H 0.93892 0.42538 0.44355 0.0
H1213 H 0.97684 0.39566 0.48755 0.0
H1214 H 0.92072 0.4423 0.47079 0.0
H1215 H 0.95989 0.41331 0.51442 0.0
H1216 H 0.92419 0.44017 0.56276 0.0
H1217 H 0.93256 0.41823 0.53451 0.0
H1218 H 0.92484 0.46856 0.49347 0.0
H1219 H 0.91477 0.48985 0.52175 0.0
C1220 C 0.94327 0.42238 0.45903 0.0
C1221 C 0.95932 0.40922 0.46339 0.0
C1222 C 0.93298 0.4322 0.47467 0.0
C1223 C 0.93882 0.42936 0.49495 0.0
C1224 C 0.9545 0.41566 0.49916 0.0
C1225 C 0.96442 0.40557 0.48364 0.0
C1226 C 0.92396 0.44634 0.5476 0.0
C1227 C 0.91907 0.46664 0.54433 0.0
C1228 C 0.92893 0.43386 0.53139 0.0
C1229 C 0.92991 0.44164 0.51161 0.0
C1230 C 0.92409 0.46185 0.50835 0.0
C1231 C 0.91846 0.47416 0.52456 0.0
H1232 H 0.6721 0.19301 0.71816 0.0
H1233 H 0.647 0.23557 0.76061 0.0
H1234 H 0.68994 0.17611 0.74563 0.0
H1235 H 0.6657 0.21979 0.78775 0.0
H1236 H 0.6928 0.18466 0.83711 0.0
H1237 H 0.6702 0.19355 0.80952 0.0
H1238 H 0.71751 0.1796 0.76666 0.0
H1239 H 0.73939 0.16923 0.79441 0.0
C1240 C 0.67039 0.19872 0.73339 0.0
C1241 C 0.65814 0.21559 0.73724 0.0
C1242 C 0.68076 0.18915 0.74915 0.0
C1243 C 0.67947 0.19653 0.76908 0.0
C1244 C 0.66683 0.21323 0.77283 0.0
C1245 C 0.65615 0.22246 0.75717 0.0
C1246 C 0.69813 0.18313 0.82172 0.0
C1247 C 0.7178 0.17636 0.81783 0.0
C1248 C 0.68529 0.18845 0.80586 0.0
C1249 C 0.69205 0.18781 0.7857 0.0
C1250 C 0.71154 0.18015 0.78185 0.0
C1251 C 0.72419 0.17426 0.79776 0.0
H1252 H 0.43576 0.05253 0.42747 0.0
H1253 H 0.41698 0.00705 0.47009 0.0
H1254 H 0.44587 0.07454 0.45506 0.0
H1255 H 0.4286 0.02826 0.49792 0.0
H1256 H 0.44203 0.07404 0.54626 0.0
H1257 H 0.42563 0.05608 0.51853 0.0
H1258 H 0.47144 0.07845 0.47761 0.0
H1259 H 0.48668 0.09735 0.50494 0.0
C1260 C 0.43393 0.04724 0.44285 0.0
C1261 C 0.42574 0.02811 0.44672 0.0
C1262 C 0.4399 0.05976 0.45872 0.0
C1263 C 0.43849 0.05317 0.4789 0.0
C1264 C 0.42974 0.03411 0.4827 0.0
C1265 C 0.42319 0.02182 0.46677 0.0
C1266 C 0.4483 0.07532 0.53121 0.0
C1267 C 0.46557 0.08715 0.52773 0.0
C1268 C 0.43904 0.06486 0.51531 0.0
C1269 C 0.44715 0.06561 0.49566 0.0
C1270 C 0.46431 0.07776 0.49229 0.0
C1271 C 0.47322 0.08857 0.50805 0.0
H1272 H 0.31967 0.30319 0.71276 0.0
H1273 H 0.34705 0.26184 0.75508 0.0
H1274 H 0.30105 0.31905 0.74031 0.0
H1275 H 0.32769 0.27656 0.78225 0.0
H1276 H 0.29893 0.30988 0.8317 0.0
H1277 H 0.32194 0.30258 0.80405 0.0
H1278 H 0.27367 0.31364 0.76128 0.0
H1279 H 0.25126 0.32247 0.7891 0.0
C1280 C 0.32174 0.29755 0.72797 0.0
C1281 C 0.33482 0.28129 0.73176 0.0
C1282 C 0.31094 0.30651 0.74377 0.0
C1283 C 0.31268 0.29912 0.76365 0.0
C1284 C 0.32618 0.28311 0.76736 0.0
C1285 C 0.33725 0.27449 0.75168 0.0
C1286 C 0.29344 0.31109 0.81632 0.0
C1287 C 0.27336 0.31659 0.81246 0.0
C1288 C 0.30654 0.30671 0.80043 0.0
C1289 C 0.29966 0.30701 0.78029 0.0
C1290 C 0.2797 0.3134 0.77648 0.0
C1291 C 0.26676 0.31837 0.79241 0.0
H1292 H 0.54763 0.45246 0.4331 0.0
H1293 H 0.59834 0.47446 0.46796 0.0
H1294 H 0.53654 0.43247 0.46163 0.0
H1295 H 0.58742 0.45386 0.4966 0.0
H1296 H 0.54368 0.43672 0.5492 0.0
H1297 H 0.5602 0.45355 0.52099 0.0
H1298 H 0.54423 0.40366 0.482 0.0
H1299 H 0.52718 0.38713 0.51006 0.0
C1300 C 0.55659 0.45285 0.44679 0.0
C1301 C 0.57384 0.46516 0.44826 0.0
C1302 C 0.5503 0.4412 0.46315 0.0
C1303 C 0.56112 0.44146 0.48142 0.0
C1304 C 0.57863 0.45346 0.4828 0.0
C1305 C 0.58494 0.46519 0.46637 0.0
C1306 C 0.54393 0.42921 0.53467 0.0
C1307 C 0.53389 0.4107 0.53181 0.0
C1308 C 0.5535 0.43882 0.5185 0.0
C1309 C 0.55334 0.43008 0.49915 0.0
C1310 C 0.54426 0.41102 0.4966 0.0
C1311 C 0.53457 0.40149 0.51272 0.0
H1312 H 0.71448 0.73533 0.82962 0.0
H1313 H 0.67035 0.69011 0.81355 0.0
H1314 H 0.74149 0.71318 0.81815 0.0
H1315 H 0.69724 0.66723 0.80348 0.0
H1316 H 0.74537 0.64438 0.76028 0.0
H1317 H 0.71872 0.66315 0.77678 0.0
H1318 H 0.76157 0.68486 0.82124 0.0
H1319 H 0.78854 0.66699 0.80368 0.0
C1320 C 0.71066 0.72039 0.82413 0.0
C1321 C 0.69041 0.71447 0.82221 0.0
C1322 C 0.72613 0.70759 0.81764 0.0
C1323 C 0.72166 0.68839 0.80956 0.0
C1324 C 0.70134 0.68209 0.80896 0.0
C1325 C 0.68589 0.69511 0.8149 0.0
C1326 C 0.74904 0.65298 0.77372 0.0
C1327 C 0.76903 0.65431 0.78063 0.0
C1328 C 0.73369 0.66369 0.78334 0.0
C1329 C 0.73785 0.67566 0.80045 0.0
C1330 C 0.75779 0.67621 0.80788 0.0
C1331 C 0.77325 0.66583 0.79794 0.0
H1332 H 0.89124 0.00584 0.48919 0.0
H1333 H 0.93321 0.96694 0.45784 0.0
H1334 H 0.9095 0.03542 0.47701 0.0
H1335 H 0.9515 0.99653 0.44584 0.0
H1336 H 0.96932 0.05333 0.41314 0.0
H1337 H 0.94743 0.02577 0.42332 0.0
H1338 H 0.94328 0.05116 0.48324 0.0
H1339 H 0.96523 0.07915 0.47297 0.0
C1340 C 0.90422 0.00358 0.47951 0.0
C1341 C 0.91078 0.984 0.47448 0.0
C1342 C 0.91476 0.02054 0.4727 0.0
C1343 C 0.93198 0.0183 0.46059 0.0
C1344 C 0.93816 0.99875 0.45502 0.0
C1345 C 0.92769 0.98178 0.46191 0.0
C1346 C 0.96368 0.0532 0.42848 0.0
C1347 C 0.96919 0.06837 0.44233 0.0
C1348 C 0.95118 0.03731 0.4343 0.0
C1349 C 0.94384 0.03617 0.45411 0.0
C1350 C 0.94866 0.05172 0.46781 0.0
C1351 C 0.96125 0.0677 0.46197 0.0
H1352 H 0.25094 0.85119 0.75987 0.0
H1353 H 0.20206 0.82771 0.79605 0.0
H1354 H 0.27502 0.83231 0.77988 0.0
H1355 H 0.22633 0.80959 0.81708 0.0
H1356 H 0.27327 0.75973 0.83164 0.0
H1357 H 0.24748 0.78156 0.81694 0.0
H1358 H 0.29202 0.82894 0.80993 0.0
H1359 H 0.31787 0.80647 0.82324 0.0
C1360 C 0.24539 0.84229 0.77242 0.0
C1361 C 0.22462 0.84087 0.77634 0.0
C1362 C 0.25924 0.83154 0.78409 0.0
C1363 C 0.25275 0.81939 0.8003 0.0
C1364 C 0.23194 0.81848 0.80456 0.0
C1365 C 0.21801 0.82896 0.79259 0.0
C1366 C 0.27735 0.77495 0.82724 0.0
C1367 C 0.2975 0.78141 0.82834 0.0
C1368 C 0.26258 0.78754 0.81885 0.0
C1369 C 0.26765 0.80699 0.81181 0.0
C1370 C 0.28762 0.81387 0.81448 0.0
C1371 C 0.30242 0.80111 0.82233 0.0
H1372 H 0.096 0.50478 0.47811 0.0
H1373 H 0.06887 0.54869 0.43827 0.0
H1374 H 0.07712 0.47813 0.46184 0.0
H1375 H 0.05072 0.52165 0.42084 0.0
H1376 H 0.00264 0.47148 0.41245 0.0
H1377 H 0.02368 0.49949 0.42415 0.0
H1378 H 0.07299 0.45781 0.43438 0.0
H1379 H 0.05133 0.42992 0.42425 0.0
C1380 C 0.08635 0.50868 0.46548 0.0
C1381 C 0.08393 0.52885 0.45949 0.0
C1382 C 0.07555 0.49329 0.45596 0.0
C1383 C 0.06235 0.49755 0.43983 0.0
C1384 C 0.06044 0.51775 0.43339 0.0
C1385 C 0.07098 0.53326 0.44325 0.0
C1386 C 0.01804 0.46848 0.41709 0.0
C1387 C 0.02534 0.44863 0.41777 0.0
C1388 C 0.0302 0.48452 0.42369 0.0
C1389 C 0.05005 0.481 0.43061 0.0
C1390 C 0.05762 0.46114 0.42992 0.0
C1391 C 0.04529 0.44513 0.42393 0.0
H1392 H 0.79071 0.32912 0.69543 0.0
H1393 H 0.75258 0.35191 0.74303 0.0
H1394 H 0.76198 0.31133 0.68079 0.0
H1395 H 0.72417 0.33307 0.72943 0.0
H1396 H 0.67225 0.30501 0.69737 0.0
H1397 H 0.69976 0.32807 0.70545 0.0
H1398 H 0.74287 0.28292 0.68612 0.0
H1399 H 0.71519 0.26064 0.67671 0.0
C1400 C 0.77611 0.33034 0.70271 0.0
C1401 C 0.77383 0.34185 0.72035 0.0
C1402 C 0.75966 0.31997 0.69446 0.0
C1403 C 0.74066 0.32042 0.704 0.0
C1404 C 0.73835 0.33253 0.72135 0.0
C1405 C 0.75469 0.3433 0.72928 0.0
C1406 C 0.68764 0.30021 0.69463 0.0
C1407 C 0.69165 0.28106 0.68651 0.0
C1408 C 0.70347 0.31334 0.69942 0.0
C1409 C 0.72371 0.3074 0.69673 0.0
C1410 C 0.72758 0.28831 0.68812 0.0
C1411 C 0.71171 0.27541 0.68284 0.0
H1412 H 0.60979 0.99163 0.53388 0.0
H1413 H 0.55791 0.95296 0.54253 0.0
H1414 H 0.59268 0.01872 0.55184 0.0
H1415 H 0.54048 0.98033 0.55995 0.0
H1416 H 0.51712 0.03169 0.59905 0.0
H1417 H 0.53824 0.00315 0.58879 0.0
H1418 H 0.56526 0.04018 0.54234 0.0
H1419 H 0.54476 0.06852 0.5528 0.0
C1420 C 0.59477 0.98887 0.53975 0.0
C1421 C 0.58508 0.97027 0.53654 0.0
C1422 C 0.58493 0.00442 0.54998 0.0
C1423 C 0.56508 0.00181 0.55703 0.0
C1424 C 0.55581 0.98281 0.55483 0.0
C1425 C 0.56576 0.96715 0.54474 0.0
C1426 C 0.52779 0.03375 0.58684 0.0
C1427 C 0.5292 0.05235 0.5767 0.0
C1428 C 0.5398 0.01739 0.58089 0.0
C1429 C 0.55347 0.01938 0.56476 0.0
C1430 C 0.55518 0.03816 0.55506 0.0
C1431 C 0.54325 0.05442 0.56096 0.0
H1432 H 0.32183 0.19225 0.69158 0.0
H1433 H 0.27871 0.23668 0.67135 0.0
H1434 H 0.2944 0.16916 0.69972 0.0
H1435 H 0.25111 0.21438 0.68085 0.0
H1436 H 0.20352 0.16758 0.68966 0.0
H1437 H 0.23198 0.18603 0.67541 0.0
H1438 H 0.27017 0.16389 0.72369 0.0
H1439 H 0.24204 0.14438 0.73684 0.0
C1440 C 0.30641 0.19706 0.68896 0.0
C1441 C 0.30233 0.21622 0.68091 0.0
C1442 C 0.29063 0.18391 0.69378 0.0
C1443 C 0.27036 0.18986 0.69124 0.0
C1444 C 0.26641 0.20898 0.68273 0.0
C1445 C 0.28223 0.2219 0.67739 0.0
C1446 C 0.21814 0.16647 0.69696 0.0
C1447 C 0.22063 0.1546 0.71433 0.0
C1448 C 0.23444 0.1772 0.68894 0.0
C1449 C 0.25349 0.17675 0.69844 0.0
C1450 C 0.25596 0.16442 0.71561 0.0
C1451 C 0.23978 0.15328 0.7233 0.0
H1452 H 0.49141 0.47071 0.58613 0.0
H1453 H 0.44364 0.42944 0.56985 0.0
H1454 H 0.47193 0.49876 0.57236 0.0
H1455 H 0.42341 0.45746 0.55745 0.0
H1456 H 0.40581 0.50458 0.51113 0.0
H1457 H 0.42248 0.47769 0.52943 0.0
H1458 H 0.445 0.52112 0.57287 0.0
H1459 H 0.4292 0.54826 0.55358 0.0
C1460 C 0.47646 0.46778 0.58013 0.0
C1461 C 0.46907 0.44796 0.57882 0.0
C1462 C 0.4652 0.48386 0.57229 0.0
C1463 C 0.44612 0.48046 0.5634 0.0
C1464 C 0.43827 0.46068 0.56348 0.0
C1465 C 0.44975 0.4446 0.57079 0.0
C1466 C 0.41419 0.50837 0.52468 0.0
C1467 C 0.41625 0.52853 0.53088 0.0
C1468 C 0.42367 0.49288 0.53536 0.0
C1469 C 0.43512 0.49706 0.55282 0.0
C1470 C 0.43665 0.51726 0.55934 0.0
C1471 C 0.42748 0.53284 0.54837 0.0
H1472 H 0.79311 0.67494 0.70157 0.0
H1473 H 0.84319 0.70809 0.72738 0.0
H1474 H 0.78435 0.70396 0.68107 0.0
H1475 H 0.83463 0.73719 0.70633 0.0
H1476 H 0.79208 0.7908 0.68835 0.0
H1477 H 0.80754 0.76201 0.70524 0.0
H1478 H 0.79483 0.72469 0.65319 0.0
H1479 H 0.77883 0.75331 0.63655 0.0
C1480 C 0.80244 0.68834 0.70267 0.0
C1481 C 0.81876 0.68925 0.71622 0.0
C1482 C 0.79752 0.70496 0.69076 0.0
C1483 C 0.80882 0.72289 0.69203 0.0
C1484 C 0.82552 0.72364 0.70516 0.0
C1485 C 0.83046 0.70696 0.71714 0.0
C1486 C 0.79286 0.77652 0.68039 0.0
C1487 C 0.78395 0.77423 0.66125 0.0
C1488 C 0.80183 0.76005 0.69003 0.0
C1489 C 0.80218 0.741 0.68065 0.0
C1490 C 0.7944 0.73907 0.66099 0.0
C1491 C 0.78531 0.75548 0.65142 0.0
H1492 H 0.84601 0.28584 0.77513 0.0
H1493 H 0.79834 0.32465 0.79696 0.0
H1494 H 0.83507 0.25945 0.79852 0.0
H1495 H 0.78707 0.29829 0.81961 0.0
H1496 H 0.77723 0.25312 0.86833 0.0
H1497 H 0.79431 0.27948 0.84914 0.0
H1498 H 0.80737 0.23644 0.80184 0.0
H1499 H 0.791 0.21 0.82136 0.0
C1500 C 0.83328 0.28878 0.78496 0.0
C1501 C 0.82301 0.30732 0.78411 0.0
C1502 C 0.82694 0.27363 0.79828 0.0
C1503 C 0.81015 0.2767 0.81095 0.0
C1504 C 0.80026 0.29546 0.81038 0.0
C1505 C 0.80665 0.31057 0.79722 0.0
C1506 C 0.78394 0.24927 0.85393 0.0
C1507 C 0.7826 0.22953 0.84629 0.0
C1508 C 0.79366 0.26438 0.84288 0.0
C1509 C 0.80206 0.26016 0.82382 0.0
C1510 C 0.80131 0.24023 0.81654 0.0
C1511 C 0.79177 0.22507 0.82769 0.0
H1512 H 0.56606 0.94861 0.45282 0.0
H1513 H 0.53236 0.89908 0.47881 0.0
H1514 H 0.53749 0.9569 0.43147 0.0
H1515 H 0.50362 0.90729 0.457 0.0
H1516 H 0.48999 0.96172 0.38557 0.0
H1517 H 0.51756 0.94482 0.40307 0.0
H1518 H 0.47897 0.93523 0.45475 0.0
H1519 H 0.45119 0.95174 0.43704 0.0
C1520 C 0.55261 0.93933 0.45383 0.0
C1521 C 0.55144 0.92326 0.46761 0.0
C1522 C 0.53627 0.94397 0.44142 0.0
C1523 C 0.51833 0.93267 0.44245 0.0
C1524 C 0.51724 0.91632 0.45594 0.0
C1525 C 0.53369 0.91159 0.46837 0.0
C1526 C 0.48726 0.95565 0.40051 0.0
C1527 C 0.46853 0.95836 0.41007 0.0
C1528 C 0.50308 0.94604 0.41055 0.0
C1529 C 0.50055 0.93906 0.43043 0.0
C1530 C 0.48137 0.9404 0.43942 0.0
C1531 C 0.46547 0.94992 0.4293 0.0
H1532 H 0.21695 0.23781 0.86364 0.0
H1533 H 0.19958 0.28124 0.81815 0.0
H1534 H 0.20013 0.21116 0.84452 0.0
H1535 H 0.18347 0.2546 0.79871 0.0
H1536 H 0.14611 0.20485 0.77171 0.0
H1537 H 0.15664 0.23075 0.79582 0.0
H1538 H 0.20667 0.19311 0.81433 0.0
H1539 H 0.1958 0.16715 0.79094 0.0
C1540 C 0.20948 0.24168 0.84961 0.0
C1541 C 0.20975 0.26161 0.84235 0.0
C1542 C 0.19991 0.22639 0.83858 0.0
C1543 C 0.19057 0.23066 0.81995 0.0
C1544 C 0.19025 0.25075 0.8131 0.0
C1545 C 0.19965 0.26604 0.8242 0.0
C1546 C 0.15918 0.20203 0.78115 0.0
C1547 C 0.17016 0.18398 0.7793 0.0
C1548 C 0.1653 0.21692 0.79488 0.0
C1549 C 0.18259 0.2141 0.80697 0.0
C1550 C 0.19312 0.19574 0.80554 0.0
C1551 C 0.18694 0.18086 0.79195 0.0
H1552 H 0.98555 0.98832 0.88459 0.0
H1553 H 0.01738 0.03683 0.91466 0.0
H1554 H 0.95482 0.99697 0.9032 0.0
H1555 H 0.98674 0.04559 0.93282 0.0
H1556 H 0.94237 0.0378 0.9822 0.0
H1557 H 0.96962 0.02704 0.96022 0.0
H1558 H 0.92805 0.02405 0.90994 0.0
H1559 H 0.90033 0.03458 0.93244 0.0
C1560 C 0.98589 0.00107 0.89484 0.0
C1561 C 0.00398 0.01171 0.89841 0.0
C1562 C 0.96828 0.006 0.90545 0.0
C1563 C 0.96854 0.02163 0.91977 0.0
C1564 C 0.98626 0.03311 0.92225 0.0
C1565 C 0.00379 0.02817 0.91175 0.0
C1566 C 0.93897 0.03447 0.96653 0.0
C1567 C 0.91938 0.03712 0.9589 0.0
C1568 C 0.95459 0.02851 0.9539 0.0
C1569 C 0.95107 0.02531 0.93325 0.0
C1570 C 0.93117 0.02658 0.9258 0.0
C1571 C 0.91534 0.03246 0.93862 0.0
H1572 H 0.70251 0.20149 0.18224 0.0
H1573 H 0.71724 0.24086 0.1323 0.0
H1574 H 0.68983 0.23027 0.20118 0.0
H1575 H 0.70409 0.26962 0.15113 0.0
H1576 H 0.70769 0.31658 0.20267 0.0
H1577 H 0.71551 0.28844 0.18049 0.0
H1578 H 0.66362 0.25594 0.2031 0.0
H1579 H 0.65598 0.28402 0.22571 0.0
C1580 C 0.70277 0.21624 0.17517 0.0
C1581 C 0.71108 0.21892 0.15584 0.0
C1582 C 0.69537 0.23272 0.18599 0.0
C1583 C 0.69606 0.25224 0.17769 0.0
C1584 C 0.70364 0.2548 0.15804 0.0
C1585 C 0.71109 0.23832 0.14723 0.0
C1586 C 0.69783 0.30352 0.20282 0.0
C1587 C 0.6813 0.30247 0.21607 0.0
C1588 C 0.70223 0.28743 0.18998 0.0
C1589 C 0.69019 0.26995 0.19005 0.0
C1590 C 0.67331 0.26912 0.20288 0.0
C1591 C 0.6689 0.28523 0.21577 0.0
H1592 H 0.54597 0.05329 0.03855 0.0
H1593 H 0.5145 0.09417 0.99856 0.0
H1594 H 0.51431 0.04546 0.05544 0.0
H1595 H 0.48254 0.08606 0.01555 0.0
H1596 H 0.4312 0.03814 0.03962 0.0
H1597 H 0.45969 0.05293 0.02092 0.0
H1598 H 0.48973 0.06629 0.07724 0.0
H1599 H 0.46159 0.05172 0.09577 0.0
C1600 C 0.53229 0.06061 0.03334 0.0
C1601 C 0.53278 0.07442 0.01727 0.0
C1602 C 0.51416 0.0562 0.04309 0.0
C1603 C 0.49602 0.0653 0.03689 0.0
C1604 C 0.49634 0.07887 0.02061 0.0
C1605 C 0.51462 0.08355 0.01099 0.0
C1606 C 0.4436 0.04486 0.04794 0.0
C1607 C 0.44433 0.04352 0.06912 0.0
C1608 C 0.4599 0.05324 0.03727 0.0
C1609 C 0.47705 0.06033 0.04768 0.0
C1610 C 0.47687 0.06057 0.06885 0.0
C1611 C 0.46071 0.05229 0.07944 0.0
H1612 H 0.54695 0.44097 0.07241 0.0
H1613 H 0.504 0.48333 0.09697 0.0
H1614 H 0.51966 0.42351 0.05473 0.0
H1615 H 0.47703 0.46695 0.07846 0.0
H1616 H 0.42809 0.42903 0.05386 0.0
H1617 H 0.45589 0.43994 0.07526 0.0
H1618 H 0.49801 0.4259 0.02733 0.0
H1619 H 0.47005 0.41352 0.00662 0.0
C1620 C 0.53166 0.44652 0.07403 0.0
C1621 C 0.5276 0.46346 0.08615 0.0
C1622 C 0.516 0.43664 0.06375 0.0
C1623 C 0.49597 0.44373 0.06503 0.0
C1624 C 0.49204 0.4606 0.07739 0.0
C1625 C 0.50759 0.47016 0.08797 0.0
C1626 C 0.44337 0.42803 0.04808 0.0
C1627 C 0.44699 0.42058 0.02861 0.0
C1628 C 0.45934 0.43448 0.06025 0.0
C1629 C 0.47933 0.4343 0.05299 0.0
C1630 C 0.48295 0.42613 0.03364 0.0
C1631 C 0.46693 0.41912 0.02167 0.0
H1632 H 0.1078 0.3044 0.33667 0.0
H1633 H 0.14287 0.31249 0.39119 0.0
H1634 H 0.0829 0.32823 0.34896 0.0
H1635 H 0.11792 0.33684 0.40341 0.0
H1636 H 0.05308 0.34832 0.42838 0.0
H1637 H 0.0831 0.33196 0.41523 0.0
H1638 H 0.07522 0.36304 0.3584 0.0
H1639 H 0.0448 0.37926 0.37148 0.0
C1640 C 0.11037 0.31155 0.35116 0.0
C1641 C 0.12712 0.30633 0.36313 0.0
C1642 C 0.09617 0.32538 0.35811 0.0
C1643 C 0.09837 0.33429 0.37721 0.0
C1644 C 0.11573 0.32998 0.38872 0.0
C1645 C 0.13004 0.31614 0.3817 0.0
C1646 C 0.05777 0.3518 0.41311 0.0
C1647 C 0.0464 0.36489 0.40087 0.0
C1648 C 0.07515 0.34259 0.40566 0.0
C1649 C 0.08154 0.34623 0.3858 0.0
C1650 C 0.07054 0.35982 0.37373 0.0
C1651 C 0.05313 0.36909 0.38121 0.0
H1652 H 0.61606 0.71048 0.8734 0.0
H1653 H 0.5858 0.69606 0.81731 0.0
H1654 H 0.59598 0.68484 0.8907 0.0
H1655 H 0.56564 0.67069 0.83465 0.0
H1656 H 0.54684 0.61368 0.86769 0.0
H1657 H 0.56956 0.63767 0.85145 0.0
H1658 H 0.56016 0.67986 0.90029 0.0
H1659 H 0.53764 0.65581 0.9167 0.0
C1660 C 0.60516 0.70184 0.86476 0.0
C1661 C 0.6025 0.70533 0.84399 0.0
C1662 C 0.59362 0.68723 0.87469 0.0
C1663 C 0.57927 0.67576 0.86401 0.0
C1664 C 0.57677 0.67911 0.84322 0.0
C1665 C 0.58823 0.69376 0.83332 0.0
C1666 C 0.54972 0.62801 0.87505 0.0
C1667 C 0.54035 0.63288 0.89344 0.0
C1668 C 0.56265 0.64178 0.86568 0.0
C1669 C 0.56654 0.66067 0.87455 0.0
C1670 C 0.55759 0.66534 0.89319 0.0
C1671 C 0.5446 0.6516 0.90252 0.0
H1672 H 0.92298 0.1983 0.30824 0.0
H1673 H 0.87938 0.17937 0.35294 0.0
H1674 H 0.94727 0.17404 0.32167 0.0
H1675 H 0.90349 0.15488 0.36602 0.0
H1676 H 0.96012 0.13984 0.40221 0.0
H1677 H 0.9344 0.15926 0.38519 0.0
H1678 H 0.95587 0.13776 0.3275 0.0
H1679 H 0.98228 0.11818 0.34478 0.0
C1680 C 0.91847 0.18878 0.32075 0.0
C1681 C 0.89934 0.19099 0.32973 0.0
C1682 C 0.93235 0.17476 0.32833 0.0
C1683 C 0.92738 0.16268 0.34503 0.0
C1684 C 0.9079 0.16423 0.35335 0.0
C1685 C 0.89407 0.17825 0.34584 0.0
C1686 C 0.95945 0.13909 0.38588 0.0
C1687 C 0.97337 0.12746 0.37485 0.0
C1688 C 0.94449 0.15014 0.37612 0.0
C1689 C 0.94294 0.14993 0.355 0.0
C1690 C 0.95674 0.13824 0.34382 0.0
C1691 C 0.97179 0.12699 0.35368 0.0
H1692 H 0.43654 0.87906 0.88931 0.0
H1693 H 0.45399 0.83131 0.93028 0.0
H1694 H 0.4136 0.856 0.87214 0.0
H1695 H 0.4309 0.80819 0.91293 0.0
H1696 H 0.37349 0.77839 0.88533 0.0
H1697 H 0.39358 0.80232 0.90515 0.0
H1698 H 0.41985 0.82566 0.85026 0.0
H1699 H 0.3999 0.80187 0.83047 0.0
C1700 C 0.43534 0.8637 0.89482 0.0
C1701 C 0.44724 0.85698 0.91108 0.0
C1702 C 0.42226 0.85048 0.88488 0.0
C1703 C 0.42064 0.83027 0.89106 0.0
C1704 C 0.43181 0.82373 0.9079 0.0
C1705 C 0.44506 0.83695 0.91778 0.0
C1706 C 0.3835 0.78869 0.8775 0.0
C1707 C 0.3851 0.78825 0.85632 0.0
C1708 C 0.39505 0.80229 0.88886 0.0
C1709 C 0.40819 0.81588 0.87923 0.0
C1710 C 0.40965 0.81553 0.85807 0.0
C1711 C 0.39831 0.80181 0.84675 0.0
H1712 H 0.12983 0.68593 0.12195 0.0
H1713 H 0.08212 0.69822 0.16468 0.0
H1714 H 0.10983 0.6585 0.10759 0.0
H1715 H 0.06194 0.67124 0.14999 0.0
H1716 H 0.05611 0.63387 0.07035 0.0
H1717 H 0.08004 0.65593 0.08718 0.0
H1718 H 0.0585 0.63522 0.14517 0.0
H1719 H 0.03397 0.6134 0.1282 0.0
C1720 C 0.11509 0.68279 0.12828 0.0
C1721 C 0.10751 0.69437 0.14435 0.0
C1722 C 0.1036 0.66709 0.12003 0.0
C1723 C 0.08424 0.6627 0.1276 0.0
C1724 C 0.0769 0.67399 0.14399 0.0
C1725 C 0.08841 0.68961 0.15229 0.0
C1726 C 0.0566 0.63379 0.0867 0.0
C1727 C 0.04296 0.62202 0.09794 0.0
C1728 C 0.07047 0.64637 0.09637 0.0
C1729 C 0.07112 0.64747 0.11754 0.0
C1730 C 0.05815 0.63496 0.12882 0.0
C1731 C 0.04421 0.62235 0.11911 0.0
H1732 H 0.91346 0.6998 0.18042 0.0
H1733 H 0.88541 0.71383 0.12313 0.0
H1734 H 0.93244 0.67265 0.16449 0.0
H1735 H 0.90443 0.68651 0.10723 0.0
H1736 H 0.94484 0.61189 0.13415 0.0
H1737 H 0.92508 0.63913 0.14904 0.0
H1738 H 0.94035 0.67783 0.09884 0.0
H1739 H 0.96007 0.65055 0.08383 0.0
C1740 C 0.91136 0.69713 0.16442 0.0
C1741 C 0.8979 0.70898 0.15305 0.0
C1742 C 0.92214 0.68148 0.15533 0.0
C1743 C 0.91984 0.6774 0.13464 0.0
C1744 C 0.9066 0.6894 0.12318 0.0
C1745 C 0.89566 0.70498 0.13232 0.0
C1746 C 0.94393 0.62616 0.12622 0.0
C1747 C 0.95408 0.62906 0.10783 0.0
C1748 C 0.9327 0.6418 0.13482 0.0
C1749 C 0.93125 0.66063 0.12514 0.0
C1750 C 0.94108 0.66343 0.10656 0.0
C1751 C 0.95245 0.64783 0.09803 0.0
H1752 H 0.90998 0.79728 0.16427 0.0
H1753 H 0.8652 0.80827 0.11798 0.0
H1754 H 0.93152 0.82323 0.14968 0.0
H1755 H 0.88664 0.83457 0.10363 0.0
H1756 H 0.9431 0.85704 0.06919 0.0
H1757 H 0.91834 0.83528 0.08526 0.0
H1758 H 0.93494 0.85946 0.14359 0.0
H1759 H 0.96016 0.88107 0.12748 0.0
C1760 C 0.90463 0.80537 0.15109 0.0
C1761 C 0.88594 0.80058 0.14218 0.0
C1762 C 0.91692 0.82038 0.14283 0.0
C1763 C 0.91081 0.83095 0.12548 0.0
C1764 C 0.89189 0.82652 0.11686 0.0
C1765 C 0.87958 0.81149 0.12513 0.0
C1766 C 0.94138 0.85789 0.08543 0.0
C1767 C 0.95373 0.87069 0.09708 0.0
C1768 C 0.92705 0.8455 0.09463 0.0
C1769 C 0.92471 0.84559 0.11571 0.0
C1770 C 0.93658 0.85887 0.12733 0.0
C1771 C 0.95093 0.87134 0.1181 0.0
H1772 H 0.03199 0.87658 0.14131 0.0
H1773 H 0.05333 0.85762 0.08286 0.0
H1774 H 0.04932 0.84837 0.15702 0.0
H1775 H 0.07244 0.8304 0.09853 0.0
H1776 H 0.08989 0.77174 0.12829 0.0
H1777 H 0.07144 0.79947 0.11273 0.0
H1778 H 0.0781 0.83421 0.16782 0.0
H1779 H 0.09471 0.80564 0.18365 0.0
C1780 C 0.0409 0.86659 0.13192 0.0
C1781 C 0.04141 0.86922 0.11093 0.0
C1782 C 0.05101 0.85041 0.14091 0.0
C1783 C 0.06248 0.83683 0.12919 0.0
C1784 C 0.06341 0.84002 0.10815 0.0
C1785 C 0.05269 0.8558 0.0991 0.0
C1786 C 0.0871 0.78529 0.13702 0.0
C1787 C 0.09346 0.78655 0.15717 0.0
C1788 C 0.07675 0.80137 0.12806 0.0
C1789 C 0.07318 0.8194 0.13885 0.0
C1790 C 0.07991 0.82056 0.15903 0.0
C1791 C 0.08961 0.80421 0.16816 0.0
H1792 H 0.34123 0.12247 0.32141 0.0
H1793 H 0.39901 0.12982 0.29239 0.0
H1794 H 0.35567 0.09752 0.34423 0.0
H1795 H 0.41328 0.10364 0.31388 0.0
H1796 H 0.43751 0.06084 0.36031 0.0
H1797 H 0.42442 0.09118 0.34415 0.0
H1798 H 0.36473 0.06432 0.34294 0.0
H1799 H 0.37771 0.03487 0.36049 0.0
C1800 C 0.35712 0.11878 0.32011 0.0
C1801 C 0.36909 0.12795 0.3053 0.0
C1802 C 0.36537 0.10427 0.33295 0.0
C1803 C 0.38559 0.09808 0.33069 0.0
C1804 C 0.39775 0.10807 0.31636 0.0
C1805 C 0.38961 0.12306 0.30395 0.0
C1806 C 0.42157 0.0616 0.35664 0.0
C1807 C 0.40858 0.04559 0.36153 0.0
C1808 C 0.41404 0.07894 0.34729 0.0
C1809 C 0.39346 0.08036 0.34211 0.0
C1810 C 0.38054 0.06417 0.34709 0.0
C1811 C 0.38798 0.04712 0.35696 0.0
H1812 H 0.33772 0.40583 0.96161 0.0
H1813 H 0.37928 0.35683 0.95028 0.0
H1814 H 0.31199 0.38868 0.94168 0.0
H1815 H 0.35351 0.33978 0.93003 0.0
H1816 H 0.29442 0.30539 0.91624 0.0
H1817 H 0.32089 0.3227 0.93518 0.0
H1818 H 0.30429 0.37907 0.90688 0.0
H1819 H 0.27764 0.36185 0.88814 0.0
C1820 C 0.34144 0.39146 0.95475 0.0
C1821 C 0.36057 0.38269 0.95758 0.0
C1822 C 0.32669 0.38168 0.94322 0.0
C1823 C 0.33068 0.36286 0.93428 0.0
C1824 C 0.34989 0.35416 0.93693 0.0
C1825 C 0.36469 0.36399 0.94842 0.0
C1826 C 0.29638 0.32148 0.91407 0.0
C1827 C 0.28385 0.33224 0.90071 0.0
C1828 C 0.31166 0.33137 0.92482 0.0
C1829 C 0.31473 0.35226 0.92252 0.0
C1830 C 0.30219 0.36301 0.90916 0.0
C1831 C 0.28695 0.35311 0.89836 0.0
H1832 H 0.67302 0.40304 0.29652 0.0
H1833 H 0.62447 0.36005 0.30448 0.0
H1834 H 0.65641 0.42615 0.31978 0.0
H1835 H 0.608 0.38314 0.32797 0.0
H1836 H 0.62887 0.45643 0.37486 0.0
H1837 H 0.64642 0.43048 0.35548 0.0
H1838 H 0.59086 0.4161 0.32433 0.0
H1839 H 0.57325 0.44181 0.3438 0.0
C1840 C 0.65893 0.39841 0.30342 0.0
C1841 C 0.64999 0.37977 0.29854 0.0
C1842 C 0.64948 0.41161 0.31684 0.0
C1843 C 0.63086 0.40648 0.32561 0.0
C1844 C 0.62222 0.38759 0.32123 0.0
C1845 C 0.63172 0.37433 0.30786 0.0
C1846 C 0.62037 0.44764 0.36397 0.0
C1847 C 0.59969 0.45124 0.3608 0.0
C1848 C 0.63044 0.43284 0.35284 0.0
C1849 C 0.62001 0.42128 0.33839 0.0
C1850 C 0.59925 0.42459 0.33553 0.0
C1851 C 0.5892 0.43944 0.34659 0.0
H1852 H 0.64077 0.08402 0.94737 0.0
H1853 H 0.61868 0.14197 0.96705 0.0
H1854 H 0.66784 0.10052 0.9288 0.0
H1855 H 0.64669 0.15861 0.95021 0.0
H1856 H 0.6886 0.18611 0.90441 0.0
H1857 H 0.66074 0.16938 0.92135 0.0
H1858 H 0.69803 0.11627 0.92964 0.0
H1859 H 0.72511 0.13265 0.91093 0.0
C1860 C 0.6419 0.10034 0.94784 0.0
C1861 C 0.62761 0.11176 0.95846 0.0
C1862 C 0.65759 0.10988 0.93739 0.0
C1863 C 0.65979 0.13107 0.9379 0.0
C1864 C 0.64544 0.14238 0.94884 0.0
C1865 C 0.62938 0.13285 0.95869 0.0
C1866 C 0.69075 0.17086 0.90993 0.0
C1867 C 0.70896 0.16066 0.90643 0.0
C1868 C 0.6748 0.16122 0.91983 0.0
C1869 C 0.67687 0.14132 0.92712 0.0
C1870 C 0.69543 0.13135 0.92391 0.0
C1871 C 0.71114 0.14079 0.91338 0.0
H1872 H 0.30853 0.91687 0.19732 0.0
H1873 H 0.35875 0.87887 0.18031 0.0
H1874 H 0.3173 0.94051 0.17053 0.0
H1875 H 0.36773 0.90272 0.15377 0.0
H1876 H 0.37513 0.9433 0.10058 0.0
H1877 H 0.35794 0.91807 0.12158 0.0
H1878 H 0.3448 0.96432 0.16573 0.0
H1879 H 0.36171 0.98927 0.1446 0.0
C1880 C 0.3214 0.9135 0.18783 0.0
C1881 C 0.33307 0.89606 0.19111 0.0
C1882 C 0.32642 0.92707 0.17247 0.0
C1883 C 0.34323 0.92354 0.16002 0.0
C1884 C 0.35451 0.90577 0.16289 0.0
C1885 C 0.34948 0.89218 0.17825 0.0
C1886 C 0.36778 0.94808 0.11438 0.0
C1887 C 0.36929 0.96816 0.1209 0.0
C1888 C 0.35822 0.93366 0.12654 0.0
C1889 C 0.35014 0.93914 0.14542 0.0
C1890 C 0.35061 0.95959 0.1512 0.0
C1891 C 0.36022 0.97392 0.13911 0.0
H1892 H 0.22928 0.38361 0.11483 0.0
H1893 H 0.19102 0.33106 0.10993 0.0
H1894 H 0.20694 0.4021 0.09215 0.0
H1895 H 0.16777 0.34979 0.08859 0.0
H1896 H 0.14158 0.37866 0.03346 0.0
H1897 H 0.16423 0.36152 0.05648 0.0
H1898 H 0.17656 0.41829 0.08658 0.0
H1899 H 0.15482 0.43562 0.06224 0.0
C1900 C 0.21585 0.37617 0.10913 0.0
C1901 C 0.21192 0.35589 0.11391 0.0
C1902 C 0.20293 0.38679 0.09624 0.0
C1903 C 0.18551 0.37748 0.08825 0.0
C1904 C 0.1813 0.35736 0.09381 0.0
C1905 C 0.19452 0.34661 0.10621 0.0
C1906 C 0.14915 0.38745 0.04503 0.0
C1907 C 0.14641 0.40841 0.0462 0.0
C1908 C 0.16205 0.3776 0.05841 0.0
C1909 C 0.17211 0.38836 0.07375 0.0
C1910 C 0.16933 0.40946 0.07487 0.0
C1911 C 0.15679 0.41943 0.06103 0.0
H1912 H 0.62343 0.63005 0.1977 0.0
H1913 H 0.67175 0.58727 0.20745 0.0
H1914 H 0.60707 0.60633 0.17472 0.0
H1915 H 0.65522 0.56349 0.18466 0.0
H1916 H 0.62851 0.53305 0.1285 0.0
H1917 H 0.64595 0.55841 0.14888 0.0
H1918 H 0.58962 0.57369 0.17792 0.0
H1919 H 0.57215 0.54859 0.15745 0.0
C1920 C 0.63062 0.61564 0.19488 0.0
C1921 C 0.64886 0.61053 0.20449 0.0
C1922 C 0.62117 0.60201 0.1818 0.0
C1923 C 0.62979 0.583 0.17796 0.0
C1924 C 0.64829 0.57809 0.18716 0.0
C1925 C 0.6577 0.59169 0.20031 0.0
C1926 C 0.61984 0.54188 0.13917 0.0
C1927 C 0.59894 0.53877 0.14136 0.0
C1928 C 0.62985 0.55634 0.15091 0.0
C1929 C 0.61916 0.56806 0.165 0.0
C1930 C 0.59824 0.56509 0.16701 0.0
C1931 C 0.58825 0.55059 0.15536 0.0
H1932 H 0.77573 0.16559 0.07042 0.0
H1933 H 0.76516 0.11228 0.10663 0.0
H1934 H 0.79713 0.14598 0.04792 0.0
H1935 H 0.7868 0.09269 0.08401 0.0
H1936 H 0.81736 0.06329 0.02644 0.0
H1937 H 0.79109 0.08036 0.04645 0.0
H1938 H 0.83128 0.13091 0.05579 0.0
H1939 H 0.85712 0.11427 0.03624 0.0
C1940 C 0.77782 0.14966 0.07351 0.0
C1941 C 0.76899 0.14057 0.0905 0.0
C1942 C 0.79006 0.13844 0.0606 0.0
C1943 C 0.79372 0.11788 0.06436 0.0
C1944 C 0.78413 0.10849 0.08074 0.0
C1945 C 0.7719 0.11976 0.09376 0.0
C1946 C 0.8205 0.07803 0.03282 0.0
C1947 C 0.83932 0.08739 0.02973 0.0
C1948 C 0.80553 0.08774 0.04425 0.0
C1949 C 0.80913 0.10704 0.0524 0.0
C1950 C 0.82796 0.11622 0.04938 0.0
C1951 C 0.84284 0.10653 0.03827 0.0
H1952 H 0.35636 0.37228 0.03234 0.0
H1953 H 0.36425 0.42829 0.06465 0.0
H1954 H 0.3372 0.35856 0.06048 0.0
H1955 H 0.34669 0.4142 0.09367 0.0
H1956 H 0.29266 0.39322 0.13071 0.0
H1957 H 0.3153 0.40653 0.10511 0.0
H1958 H 0.33609 0.34583 0.09233 0.0
H1959 H 0.312 0.33265 0.11676 0.0
C1960 C 0.35431 0.38145 0.04573 0.0
C1961 C 0.3615 0.40133 0.04637 0.0
C1962 C 0.3435 0.37357 0.06201 0.0
C1963 C 0.34022 0.38523 0.07953 0.0
C1964 C 0.34832 0.4049 0.08033 0.0
C1965 C 0.35854 0.41297 0.06379 0.0
C1966 C 0.30228 0.38285 0.12252 0.0
C1967 C 0.30061 0.36199 0.12551 0.0
C1968 C 0.3154 0.39043 0.10788 0.0
C1969 C 0.32756 0.3773 0.09635 0.0
C1970 C 0.32659 0.35643 0.10035 0.0
C1971 C 0.31299 0.34884 0.11452 0.0
H1972 H 0.29669 0.67315 0.4068 0.0
H1973 H 0.30634 0.62513 0.36365 0.0
H1974 H 0.31955 0.65653 0.43043 0.0
H1975 H 0.32936 0.60866 0.38723 0.0
H1976 H 0.34598 0.57337 0.44498 0.0
H1977 H 0.32573 0.59106 0.41988 0.0
H1978 H 0.3554 0.6471 0.43538 0.0
H1979 H 0.37559 0.62944 0.46071 0.0
C1980 C 0.30384 0.65916 0.40226 0.0
C1981 C 0.2996 0.65041 0.38338 0.0
C1982 C 0.31702 0.6497 0.41577 0.0
C1983 C 0.32616 0.63123 0.41073 0.0
C1984 C 0.32232 0.62274 0.39165 0.0
C1985 C 0.30922 0.63225 0.3781 0.0
C1986 C 0.34825 0.58945 0.44303 0.0
C1987 C 0.36237 0.6 0.45489 0.0
C1988 C 0.33673 0.59956 0.42853 0.0
C1989 C 0.339 0.62046 0.42563 0.0
C1990 C 0.3532 0.63101 0.4374 0.0
C1991 C 0.36482 0.62087 0.45184 0.0
H1992 H 0.92146 0.47138 0.82775 0.0
H1993 H 0.91039 0.42767 0.8749 0.0
H1994 H 0.90246 0.4504 0.80393 0.0
H1995 H 0.89182 0.40649 0.85085 0.0
H1996 H 0.87656 0.3684 0.79215 0.0
H1997 H 0.89897 0.38747 0.81467 0.0
H1998 H 0.86233 0.44063 0.8061 0.0
H1999 H 0.83959 0.42153 0.78401 0.0
C2000 C 0.91542 0.45706 0.83289 0.0
C2001 C 0.91736 0.45115 0.85318 0.0
C2002 C 0.90445 0.44518 0.81931 0.0
C2003 C 0.89565 0.42698 0.82568 0.0
C2004 C 0.89854 0.42048 0.84564 0.0
C2005 C 0.90913 0.43257 0.85935 0.0
C2006 C 0.8733 0.38416 0.7951 0.0
C2007 C 0.85632 0.3935 0.7864 0.0
C2008 C 0.88608 0.395 0.80797 0.0
C2009 C 0.88237 0.41547 0.81192 0.0
C2010 C 0.86554 0.42488 0.80309 0.0
C2011 C 0.8525 0.41393 0.7906 0.0
H2012 H 0.63987 0.93275 0.43676 0.0
H2013 H 0.64348 0.87731 0.47072 0.0
H2014 H 0.65901 0.9174 0.40941 0.0
H2015 H 0.66411 0.86234 0.44438 0.0
H2016 H 0.68946 0.83328 0.38954 0.0
H2017 H 0.66589 0.84848 0.41322 0.0
H2018 H 0.69001 0.90759 0.39877 0.0
H2019 H 0.71216 0.89226 0.37384 0.0
C2020 C 0.64505 0.91732 0.43841 0.0
C2021 C 0.64025 0.90616 0.45575 0.0
C2022 C 0.65617 0.90851 0.42281 0.0
C2023 C 0.66331 0.88852 0.42449 0.0
C2024 C 0.65854 0.87752 0.44209 0.0
C2025 C 0.64687 0.88614 0.45737 0.0
C2026 C 0.68937 0.84955 0.39127 0.0
C2027 C 0.7025 0.86165 0.37992 0.0
C2028 C 0.67605 0.85832 0.40504 0.0
C2029 C 0.6761 0.87936 0.40834 0.0
C2030 C 0.68911 0.89142 0.39655 0.0
C2031 C 0.70195 0.88267 0.38229 0.0
H2032 H 0.58951 0.53873 0.34366 0.0
H2033 H 0.63855 0.54713 0.38603 0.0
H2034 H 0.60598 0.56155 0.32006 0.0
H2035 H 0.65492 0.57025 0.3624 0.0
H2036 H 0.68863 0.58775 0.30362 0.0
H2037 H 0.67175 0.56756 0.3293 0.0
H2038 H 0.61528 0.59719 0.31554 0.0
H2039 H 0.6321 0.61725 0.28962 0.0
C2040 C 0.60374 0.54557 0.34803 0.0
C2041 C 0.61276 0.54103 0.36671 0.0
C2042 C 0.6131 0.55877 0.33453 0.0
C2043 C 0.63176 0.56769 0.33935 0.0
C2044 C 0.64065 0.56343 0.35817 0.0
C2045 C 0.63122 0.55027 0.37174 0.0
C2046 C 0.67263 0.59003 0.3061 0.0
C2047 C 0.66169 0.60404 0.29448 0.0
C2048 C 0.66299 0.57856 0.32093 0.0
C2049 C 0.64218 0.58077 0.32444 0.0
C2050 C 0.63129 0.59499 0.31303 0.0
C2051 C 0.64095 0.60653 0.29824 0.0
H2052 H 0.12765 0.62652 0.5324 0.0
H2053 H 0.15548 0.56903 0.54584 0.0
H2054 H 0.14875 0.64264 0.55802 0.0
H2055 H 0.17666 0.58521 0.57124 0.0
H2056 H 0.20843 0.66634 0.58572 0.0
H2057 H 0.18503 0.65058 0.56207 0.0
H2058 H 0.1746 0.60215 0.6045 0.0
H2059 H 0.19822 0.61781 0.62816 0.0
C2060 C 0.1382 0.61731 0.54085 0.0
C2061 C 0.13993 0.5965 0.53702 0.0
C2062 C 0.15035 0.62657 0.55545 0.0
C2063 C 0.16438 0.6152 0.56661 0.0
C2064 C 0.16583 0.59434 0.56305 0.0
C2065 C 0.15378 0.5851 0.54839 0.0
C2066 C 0.20111 0.65237 0.59007 0.0
C2067 C 0.20526 0.64329 0.60881 0.0
C2068 C 0.18759 0.64341 0.57655 0.0
C2069 C 0.17798 0.62513 0.58143 0.0
C2070 C 0.18194 0.61615 0.60025 0.0
C2071 C 0.1954 0.62516 0.61383 0.0
H2072 H 0.86765 0.59646 0.72207 0.0
H2073 H 0.81553 0.60305 0.68355 0.0
H2074 H 0.88431 0.57627 0.69624 0.0
H2075 H 0.83261 0.58457 0.6569 0.0
H2076 H 0.85784 0.53313 0.62051 0.0
H2077 H 0.84183 0.55366 0.6462 0.0
H2078 H 0.90068 0.57432 0.6662 0.0
H2079 H 0.91655 0.55217 0.64147 0.0
C2080 C 0.85994 0.59381 0.70786 0.0
C2081 C 0.8403 0.60105 0.70478 0.0
C2082 C 0.86953 0.5824 0.69291 0.0
C2083 C 0.85989 0.57855 0.67429 0.0
C2084 C 0.8404 0.58652 0.67114 0.0
C2085 C 0.8306 0.59731 0.68634 0.0
C2086 C 0.86729 0.54215 0.63039 0.0
C2087 C 0.88838 0.54112 0.62905 0.0
C2088 C 0.85812 0.55412 0.64509 0.0
C2089 C 0.86983 0.56592 0.65843 0.0
C2090 C 0.89105 0.56519 0.65664 0.0
C2091 C 0.90021 0.55266 0.64232 0.0
H2092 H 0.18966 0.90051 0.67806 0.0
H2093 H 0.13481 0.90665 0.71249 0.0
H2094 H 0.17516 0.92068 0.65106 0.0
H2095 H 0.12073 0.92847 0.68648 0.0
H2096 H 0.09239 0.95208 0.62907 0.0
H2097 H 0.10652 0.93092 0.65559 0.0
H2098 H 0.16657 0.95142 0.63951 0.0
H2099 H 0.15229 0.97092 0.6119 0.0
C2100 C 0.17458 0.90657 0.67994 0.0
C2101 C 0.1633 0.90206 0.69725 0.0
C2102 C 0.16625 0.91833 0.66453 0.0
C2103 C 0.14666 0.92649 0.66638 0.0
C2104 C 0.1356 0.92218 0.68406 0.0
C2105 C 0.14371 0.90982 0.69914 0.0
C2106 C 0.10861 0.95188 0.63126 0.0
C2107 C 0.1213 0.96294 0.61845 0.0
C2108 C 0.11679 0.9399 0.64662 0.0
C2109 C 0.13784 0.93927 0.64994 0.0
C2110 C 0.15039 0.95088 0.63725 0.0
C2111 C 0.14224 0.96227 0.62148 0.0
H2112 H 0.58696 0.79042 0.83399 0.0
H2113 H 0.63153 0.80152 0.8805 0.0
H2114 H 0.56291 0.81165 0.85199 0.0
H2115 H 0.60753 0.82296 0.8983 0.0
H2116 H 0.55101 0.83361 0.93686 0.0
H2117 H 0.57622 0.81591 0.91699 0.0
H2118 H 0.5557 0.84669 0.86325 0.0
H2119 H 0.53014 0.86437 0.88317 0.0
C2120 C 0.59173 0.79761 0.84791 0.0
C2121 C 0.6111 0.79412 0.85592 0.0
C2122 C 0.57797 0.80985 0.85815 0.0
C2123 C 0.58328 0.81881 0.87665 0.0
C2124 C 0.60291 0.81598 0.88424 0.0
C2125 C 0.61669 0.80379 0.87397 0.0
C2126 C 0.55183 0.83665 0.92081 0.0
C2127 C 0.53853 0.85039 0.91159 0.0
C2128 C 0.56641 0.82662 0.90946 0.0
C2129 C 0.56805 0.83003 0.88859 0.0
C2130 C 0.55472 0.8437 0.8793 0.0
C2131 C 0.54013 0.85384 0.89071 0.0
H2132 H 0.02841 0.17603 0.42119 0.0
H2133 H 0.07459 0.13064 0.41429 0.0
H2134 H 0.0516 0.20159 0.40746 0.0
H2135 H 0.0979 0.15618 0.40125 0.0
H2136 H 0.13694 0.21354 0.38941 0.0
H2137 H 0.11529 0.19251 0.41092 0.0
H2138 H 0.06613 0.19986 0.36871 0.0
H2139 H 0.08779 0.22034 0.34695 0.0
C2140 C 0.04376 0.17175 0.41751 0.0
C2141 C 0.04986 0.15152 0.4188 0.0
C2142 C 0.05692 0.18626 0.40955 0.0
C2143 C 0.07645 0.18074 0.40331 0.0
C2144 C 0.08299 0.1608 0.40612 0.0
C2145 C 0.06969 0.14624 0.41355 0.0
C2146 C 0.12148 0.2107 0.38479 0.0
C2147 C 0.11407 0.21838 0.36643 0.0
C2148 C 0.10914 0.19877 0.39711 0.0
C2149 C 0.08906 0.19484 0.39152 0.0
C2150 C 0.0815 0.20296 0.37345 0.0
C2151 C 0.09395 0.21445 0.36092 0.0
H2152 H 0.45375 0.624 0.8784 0.0
H2153 H 0.44155 0.65418 0.93498 0.0
H2154 H 0.4265 0.64295 0.86243 0.0
H2155 H 0.41452 0.67329 0.91889 0.0
H2156 H 0.3973 0.7013 0.83732 0.0
H2157 H 0.4213 0.67835 0.85291 0.0
H2158 H 0.3807 0.66984 0.90322 0.0
H2159 H 0.35662 0.69316 0.88767 0.0
C2160 C 0.44525 0.63463 0.88744 0.0
C2161 C 0.44992 0.63768 0.90793 0.0
C2162 C 0.42967 0.64552 0.87827 0.0
C2163 C 0.41839 0.65963 0.88939 0.0
C2164 C 0.42277 0.66235 0.90998 0.0
C2165 C 0.43839 0.65151 0.91915 0.0
C2166 C 0.39335 0.69442 0.85162 0.0
C2167 C 0.37509 0.69916 0.86133 0.0
C2168 C 0.40708 0.68114 0.86049 0.0
C2169 C 0.40292 0.67233 0.87932 0.0
C2170 C 0.3844 0.67659 0.88879 0.0
C2171 C 0.37057 0.68983 0.87983 0.0
H2172 H 0.96195 0.33745 0.40104 0.0
H2173 H 0.95062 0.37965 0.35256 0.0
H2174 H 0.94394 0.31129 0.3825 0.0
H2175 H 0.93228 0.35343 0.3341 0.0
H2176 H 0.89211 0.27611 0.35376 0.0
H2177 H 0.90977 0.3028 0.37181 0.0
H2178 H 0.93876 0.32126 0.3164 0.0
H2179 H 0.92078 0.29462 0.29816 0.0
C2180 C 0.95549 0.34121 0.38649 0.0
C2181 C 0.95772 0.36068 0.37831 0.0
C2182 C 0.94508 0.3262 0.37588 0.0
C2183 C 0.93667 0.33026 0.35681 0.0
C2184 C 0.93879 0.34976 0.34866 0.0
C2185 C 0.94916 0.36482 0.35931 0.0
C2186 C 0.90226 0.28581 0.34537 0.0
C2187 C 0.90505 0.28317 0.32449 0.0
C2188 C 0.91247 0.30108 0.35577 0.0
C2189 C 0.92571 0.31416 0.34557 0.0
C2190 C 0.92849 0.31157 0.32467 0.0
C2191 C 0.91831 0.29622 0.31424 0.0
H2192 H 0.58798 0.2042 0.67645 0.0
H2193 H 0.63177 0.19439 0.6291 0.0
H2194 H 0.56422 0.18205 0.65903 0.0
H2195 H 0.60805 0.17208 0.61183 0.0
H2196 H 0.53337 0.12697 0.63054 0.0
H2197 H 0.55874 0.14646 0.64895 0.0
H2198 H 0.57577 0.17652 0.59366 0.0
H2199 H 0.55061 0.15696 0.5752 0.0
C2200 C 0.59263 0.19715 0.66245 0.0
C2201 C 0.61175 0.20116 0.65412 0.0
C2202 C 0.57904 0.18438 0.65252 0.0
C2203 C 0.58422 0.17541 0.634 0.0
C2204 C 0.60352 0.179 0.62594 0.0
C2205 C 0.61715 0.19169 0.63591 0.0
C2206 C 0.54258 0.13768 0.62229 0.0
C2207 C 0.53994 0.14043 0.6014 0.0
C2208 C 0.55705 0.1489 0.63287 0.0
C2209 C 0.56927 0.16301 0.62276 0.0
C2210 C 0.56677 0.16558 0.60184 0.0
C2211 C 0.55224 0.15446 0.59129 0.0
H2212 H 0.40683 0.19753 0.68673 0.0
H2213 H 0.37619 0.21195 0.63088 0.0
H2214 H 0.42615 0.17148 0.66939 0.0
H2215 H 0.39541 0.1857 0.61361 0.0
H2216 H 0.44404 0.11403 0.63636 0.0
H2217 H 0.42168 0.1383 0.65278 0.0
H2218 H 0.43086 0.18011 0.60358 0.0
H2219 H 0.45297 0.15586 0.58706 0.0
C2220 C 0.40415 0.1951 0.67077 0.0
C2221 C 0.39003 0.20688 0.66017 0.0
C2222 C 0.41511 0.18006 0.66088 0.0
C2223 C 0.41226 0.17651 0.64015 0.0
C2224 C 0.39806 0.1882 0.62956 0.0
C2225 C 0.38701 0.20319 0.63948 0.0
C2226 C 0.44112 0.12831 0.62894 0.0
C2227 C 0.45036 0.13305 0.61045 0.0
C2228 C 0.42842 0.14225 0.63841 0.0
C2229 C 0.42461 0.16115 0.62952 0.0
C2230 C 0.43336 0.16561 0.61073 0.0
C2231 C 0.44612 0.15174 0.60132 0.0
H2232 H 0.47221 0.35584 0.62972 0.0
H2233 H 0.43396 0.36184 0.57733 0.0
H2234 H 0.44668 0.33511 0.64611 0.0
H2235 H 0.40751 0.34275 0.59419 0.0
H2236 H 0.37306 0.2892 0.61874 0.0
H2237 H 0.39752 0.31149 0.60306 0.0
H2238 H 0.41674 0.33186 0.66224 0.0
H2239 H 0.39335 0.30804 0.67771 0.0
C2240 C 0.45808 0.35301 0.62192 0.0
C2241 C 0.45504 0.36021 0.60226 0.0
C2242 C 0.44329 0.34126 0.63136 0.0
C2243 C 0.42482 0.337 0.62157 0.0
C2244 C 0.42164 0.34503 0.6021 0.0
C2245 C 0.43671 0.35618 0.59244 0.0
C2246 C 0.38248 0.29857 0.62833 0.0
C2247 C 0.38139 0.29692 0.64939 0.0
C2248 C 0.39647 0.31154 0.61936 0.0
C2249 C 0.40933 0.3237 0.63125 0.0
C2250 C 0.4076 0.32247 0.65245 0.0
C2251 C 0.39404 0.30897 0.6614 0.0
H2252 H 0.54091 0.34163 0.5916 0.0
H2253 H 0.55119 0.384 0.64022 0.0
H2254 H 0.56251 0.31708 0.60845 0.0
H2255 H 0.57301 0.35944 0.65696 0.0
H2256 H 0.58764 0.30074 0.69171 0.0
H2257 H 0.56829 0.32662 0.67412 0.0
H2258 H 0.59803 0.31104 0.61825 0.0
H2259 H 0.61729 0.28495 0.63579 0.0
C2260 C 0.54792 0.34579 0.60579 0.0
C2261 C 0.54425 0.36475 0.6146 0.0
C2262 C 0.56039 0.33174 0.61539 0.0
C2263 C 0.5694 0.3363 0.63407 0.0
C2264 C 0.56607 0.35541 0.6427 0.0
C2265 C 0.55367 0.36951 0.63304 0.0
C2266 C 0.59009 0.30283 0.67568 0.0
C2267 C 0.60397 0.29072 0.66514 0.0
C2268 C 0.57911 0.31777 0.66563 0.0
C2269 C 0.58167 0.3209 0.64481 0.0
C2270 C 0.5956 0.30886 0.63427 0.0
C2271 C 0.60669 0.29397 0.64434 0.0
H2272 H 0.88245 0.52721 0.86349 0.0
H2273 H 0.93482 0.55633 0.8375 0.0
H2274 H 0.86051 0.55113 0.84568 0.0
H2275 H 0.91307 0.57981 0.81977 0.0
H2276 H 0.87217 0.63112 0.80593 0.0
H2277 H 0.89034 0.60805 0.82798 0.0
H2278 H 0.85088 0.55934 0.80975 0.0
H2279 H 0.83238 0.58254 0.7878 0.0
C2280 C 0.88927 0.53867 0.85402 0.0
C2281 C 0.91037 0.53989 0.85193 0.0
C2282 C 0.87672 0.55229 0.84381 0.0
C2283 C 0.88511 0.56743 0.83152 0.0
C2284 C 0.90618 0.56856 0.82945 0.0
C2285 C 0.91864 0.55496 0.8395 0.0
C2286 C 0.86719 0.61556 0.80676 0.0
C2287 C 0.85101 0.60859 0.7949 0.0
C2288 C 0.87764 0.60234 0.81936 0.0
C2289 C 0.87219 0.58185 0.82034 0.0
C2290 C 0.85535 0.57508 0.80933 0.0
C2291 C 0.84484 0.58834 0.7967 0.0
H2292 H 0.87186 0.86979 0.46375 0.0
H2293 H 0.84989 0.92823 0.44534 0.0
H2294 H 0.84731 0.85345 0.44211 0.0
H2295 H 0.82633 0.91207 0.42198 0.0
H2296 H 0.77275 0.8775 0.39618 0.0
H2297 H 0.79707 0.89472 0.41783 0.0
H2298 H 0.83833 0.84445 0.41073 0.0
H2299 H 0.81306 0.82673 0.39082 0.0
C2300 C 0.86198 0.87913 0.45464 0.0
C2301 C 0.86275 0.90022 0.45611 0.0
C2302 C 0.84795 0.86977 0.442 0.0
C2303 C 0.83475 0.88129 0.42991 0.0
C2304 C 0.83584 0.90255 0.43124 0.0
C2305 C 0.84948 0.9119 0.44447 0.0
C2306 C 0.78704 0.87023 0.39942 0.0
C2307 C 0.79105 0.85078 0.39211 0.0
C2308 C 0.80113 0.88015 0.41168 0.0
C2309 C 0.81984 0.87107 0.41632 0.0
C2310 C 0.82395 0.8518 0.40822 0.0
C2311 C 0.80957 0.84164 0.3966 0.0
H2312 H 0.17305 0.90455 0.79422 0.0
H2313 H 0.11568 0.87576 0.78226 0.0
H2314 H 0.15729 0.92509 0.8205 0.0
H2315 H 0.09975 0.89681 0.80749 0.0
H2316 H 0.07582 0.92516 0.86201 0.0
H2317 H 0.09637 0.90241 0.84184 0.0
H2318 H 0.13503 0.95246 0.82517 0.0
H2319 H 0.11507 0.97485 0.84665 0.0
C2320 C 0.15706 0.9027 0.79717 0.0
C2321 C 0.14559 0.88853 0.78628 0.0
C2322 C 0.14801 0.91451 0.81215 0.0
C2323 C 0.12725 0.91255 0.81629 0.0
C2324 C 0.11587 0.89839 0.80522 0.0
C2325 C 0.12497 0.8864 0.79057 0.0
C2326 C 0.08898 0.93113 0.85433 0.0
C2327 C 0.09386 0.95167 0.85566 0.0
C2328 C 0.10065 0.91818 0.8426 0.0
C2329 C 0.11709 0.92566 0.8314 0.0
C2330 C 0.12258 0.94611 0.83364 0.0
C2331 C 0.11115 0.95897 0.84587 0.0
H2332 H 0.14472 0.58399 0.43683 0.0
H2333 H 0.12433 0.64198 0.4582 0.0
H2334 H 0.16955 0.60055 0.41535 0.0
H2335 H 0.15018 0.65865 0.43833 0.0
H2336 H 0.18887 0.68649 0.39048 0.0
H2337 H 0.16177 0.66927 0.40824 0.0
H2338 H 0.19983 0.61642 0.41447 0.0
H2339 H 0.22607 0.63329 0.39502 0.0
C2340 C 0.14568 0.60032 0.43694 0.0
C2341 C 0.13257 0.61174 0.449 0.0
C2342 C 0.16009 0.60989 0.42483 0.0
C2343 C 0.16221 0.63109 0.42504 0.0
C2344 C 0.14889 0.6424 0.4372 0.0
C2345 C 0.13407 0.63286 0.44876 0.0
C2346 C 0.1913 0.67116 0.39565 0.0
C2347 C 0.20949 0.66119 0.39149 0.0
C2348 C 0.17583 0.66125 0.406 0.0
C2349 C 0.17843 0.64134 0.41309 0.0
C2350 C 0.19687 0.63151 0.40896 0.0
C2351 C 0.21208 0.64123 0.39799 0.0
H2352 H 0.83258 0.4026 0.6988 0.0
H2353 H 0.88198 0.36063 0.69128 0.0
H2354 H 0.84768 0.42498 0.67401 0.0
H2355 H 0.89699 0.38306 0.66607 0.0
H2356 H 0.92949 0.44281 0.64789 0.0
H2357 H 0.91339 0.41642 0.66772 0.0
H2358 H 0.85645 0.42896 0.63837 0.0
H2359 H 0.8725 0.45567 0.61868 0.0
C2360 C 0.84654 0.398 0.69165 0.0
C2361 C 0.85619 0.37991 0.69716 0.0
C2362 C 0.85512 0.41079 0.67729 0.0
C2363 C 0.87357 0.40584 0.66813 0.0
C2364 C 0.88287 0.38738 0.67306 0.0
C2365 C 0.87422 0.3745 0.6874 0.0
C2366 C 0.91356 0.43988 0.64555 0.0
C2367 C 0.90223 0.45149 0.63184 0.0
C2368 C 0.90438 0.42461 0.6568 0.0
C2369 C 0.88364 0.42061 0.65463 0.0
C2370 C 0.87241 0.43184 0.64052 0.0
C2371 C 0.88162 0.4471 0.62922 0.0
H2372 H 0.62648 0.85943 0.53605 0.0
H2373 H 0.64373 0.91869 0.55696 0.0
H2374 H 0.65148 0.84424 0.55815 0.0
H2375 H 0.66766 0.90361 0.5805 0.0
H2376 H 0.72416 0.87265 0.60427 0.0
H2377 H 0.69844 0.8885 0.58326 0.0
H2378 H 0.66069 0.83541 0.58988 0.0
H2379 H 0.68729 0.81918 0.60929 0.0
C2380 C 0.63537 0.86915 0.54579 0.0
C2381 C 0.63328 0.89017 0.54485 0.0
C2382 C 0.64965 0.86046 0.55864 0.0
C2383 C 0.66174 0.8726 0.57131 0.0
C2384 C 0.65908 0.89371 0.5707 0.0
C2385 C 0.64523 0.9024 0.55737 0.0
C2386 C 0.71031 0.86449 0.60113 0.0
C2387 C 0.70768 0.84471 0.60813 0.0
C2388 C 0.69544 0.87359 0.58923 0.0
C2389 C 0.67734 0.86328 0.58464 0.0
C2390 C 0.67457 0.84369 0.59245 0.0
C2391 C 0.68972 0.83439 0.60375 0.0
H2392 H 0.13514 0.03476 0.61624 0.0
H2393 H 0.08246 0.07144 0.60528 0.0
H2394 H 0.14792 0.05986 0.63974 0.0
H2395 H 0.09584 0.09749 0.62757 0.0
H2396 H 0.10989 0.1242 0.68986 0.0
H2397 H 0.09912 0.10366 0.66134 0.0
H2398 H 0.16168 0.09037 0.64768 0.0
H2399 H 0.17207 0.10962 0.67723 0.0
C2400 C 0.12665 0.04858 0.61837 0.0
C2401 C 0.10779 0.05114 0.60911 0.0
C2402 C 0.134 0.06311 0.63182 0.0
C2403 C 0.12286 0.0808 0.6359 0.0
C2404 C 0.1046 0.08388 0.6254 0.0
C2405 C 0.09701 0.06907 0.61241 0.0
C2406 C 0.12126 0.117 0.68058 0.0
C2407 C 0.14174 0.11824 0.6858 0.0
C2408 C 0.11516 0.1053 0.66408 0.0
C2409 C 0.12948 0.09505 0.65211 0.0
C2410 C 0.15011 0.09744 0.65678 0.0
C2411 C 0.15613 0.10863 0.67362 0.0
H2412 H 0.36037 0.58151 0.55548 0.0
H2413 H 0.37936 0.64087 0.53655 0.0
H2414 H 0.33651 0.59653 0.57906 0.0
H2415 H 0.35442 0.65607 0.55862 0.0
H2416 H 0.31651 0.68106 0.60794 0.0
H2417 H 0.34391 0.66461 0.58992 0.0
H2418 H 0.30596 0.61198 0.58097 0.0
H2419 H 0.27941 0.62799 0.60066 0.0
C2420 C 0.35931 0.59781 0.55637 0.0
C2421 C 0.37166 0.61008 0.54433 0.0
C2422 C 0.34549 0.60648 0.56972 0.0
C2423 C 0.34323 0.62762 0.57077 0.0
C2424 C 0.35588 0.6398 0.55874 0.0
C2425 C 0.37014 0.63112 0.54591 0.0
C2426 C 0.31424 0.66588 0.60224 0.0
C2427 C 0.29595 0.65575 0.60555 0.0
C2428 C 0.32985 0.65646 0.59173 0.0
C2429 C 0.32725 0.63695 0.58363 0.0
C2430 C 0.30885 0.62681 0.58722 0.0
C2431 C 0.2935 0.63601 0.59835 0.0
H2432 H 0.87231 0.87856 0.53886 0.0
H2433 H 0.84437 0.93442 0.5578 0.0
H2434 H 0.85303 0.86031 0.56447 0.0
H2435 H 0.825 0.91618 0.58307 0.0
H2436 H 0.79399 0.8347 0.59289 0.0
H2437 H 0.81721 0.85145 0.56983 0.0
H2438 H 0.82896 0.89732 0.61475 0.0
H2439 H 0.80548 0.88076 0.63778 0.0
C2440 C 0.86213 0.88695 0.54851 0.0
C2441 C 0.8598 0.90792 0.54625 0.0
C2442 C 0.85105 0.87649 0.56311 0.0
C2443 C 0.83753 0.88683 0.57577 0.0
C2444 C 0.83551 0.90784 0.57373 0.0
C2445 C 0.8465 0.91826 0.55913 0.0
C2446 C 0.80164 0.84827 0.59794 0.0
C2447 C 0.79776 0.8565 0.61711 0.0
C2448 C 0.81505 0.85778 0.58476 0.0
C2449 C 0.82482 0.87574 0.59046 0.0
C2450 C 0.82142 0.88364 0.60986 0.0
C2451 C 0.80805 0.8741 0.62306 0.0
H2452 H 0.86528 0.13836 0.98412 0.0
H2453 H 0.89236 0.10474 0.93552 0.0
H2454 H 0.84234 0.15454 0.96028 0.0
H2455 H 0.87027 0.12162 0.91129 0.0
H2456 H 0.80736 0.12628 0.88284 0.0
H2457 H 0.83598 0.11698 0.90383 0.0
H2458 H 0.83394 0.17548 0.93281 0.0
H2459 H 0.80467 0.18441 0.91231 0.0
C2460 C 0.86703 0.13532 0.96813 0.0
C2461 C 0.88069 0.1206 0.96152 0.0
C2462 C 0.85381 0.14448 0.95442 0.0
C2463 C 0.85411 0.1391 0.93383 0.0
C2464 C 0.8692 0.12574 0.92708 0.0
C2465 C 0.88215 0.11635 0.94085 0.0
C2466 C 0.81307 0.13718 0.89363 0.0
C2467 C 0.80362 0.15599 0.89602 0.0
C2468 C 0.82968 0.13195 0.90557 0.0
C2469 C 0.83747 0.14551 0.92003 0.0
C2470 C 0.82826 0.16454 0.92205 0.0
C2471 C 0.81147 0.16968 0.91027 0.0
H2472 H 0.30837 0.90117 0.30606 0.0
H2473 H 0.36043 0.90626 0.26734 0.0
H2474 H 0.32636 0.91876 0.33279 0.0
H2475 H 0.37806 0.92545 0.29333 0.0
H2476 H 0.41247 0.94494 0.34859 0.0
H2477 H 0.39479 0.92496 0.32326 0.0
H2478 H 0.33777 0.94865 0.34477 0.0
H2479 H 0.35557 0.96713 0.37106 0.0
C2480 C 0.3236 0.90644 0.30319 0.0
C2481 C 0.33303 0.90242 0.28468 0.0
C2482 C 0.33394 0.9167 0.31848 0.0
C2483 C 0.3538 0.92376 0.31542 0.0
C2484 C 0.36304 0.91992 0.29662 0.0
C2485 C 0.35288 0.90909 0.28157 0.0
C2486 C 0.39613 0.94561 0.34795 0.0
C2487 C 0.38535 0.95744 0.36181 0.0
C2488 C 0.38593 0.93434 0.33327 0.0
C2489 C 0.3647 0.93515 0.33166 0.0
C2490 C 0.35402 0.94712 0.34564 0.0
C2491 C 0.36421 0.95788 0.36071 0.0
H2492 H 0.20413 0.32037 0.92014 0.0
H2493 H 0.17547 0.35562 0.87325 0.0
H2494 H 0.17959 0.33293 0.94456 0.0
H2495 H 0.15068 0.36792 0.89781 0.0
H2496 H 0.10082 0.37132 0.94861 0.0
H2497 H 0.12187 0.35336 0.92374 0.0
H2498 H 0.17542 0.37098 0.95661 0.0
H2499 H 0.15465 0.38918 0.98092 0.0
C2500 C 0.19243 0.33057 0.91497 0.0
C2501 C 0.19185 0.33716 0.8948 0.0
C2502 C 0.1784 0.33772 0.92896 0.0
C2503 C 0.16329 0.35132 0.923 0.0
C2504 C 0.16211 0.35728 0.90269 0.0
C2505 C 0.17638 0.35039 0.88872 0.0
C2506 C 0.11706 0.37106 0.95056 0.0
C2507 C 0.12618 0.38162 0.96657 0.0
C2508 C 0.12905 0.36095 0.93635 0.0
C2509 C 0.1502 0.36083 0.93836 0.0
C2510 C 0.15915 0.37074 0.95482 0.0
C2511 C 0.14728 0.38119 0.96865 0.0
H2512 H 0.08112 0.01687 0.82464 0.0
H2513 H 0.09032 0.06469 0.86809 0.0
H2514 H 0.09806 0.0372 0.7988 0.0
H2515 H 0.10684 0.08512 0.84212 0.0
H2516 H 0.11824 0.12117 0.78286 0.0
H2517 H 0.0977 0.10147 0.8064 0.0
H2518 H 0.13649 0.04995 0.79727 0.0
H2519 H 0.15735 0.06972 0.77402 0.0
C2520 C 0.08637 0.03187 0.82854 0.0
C2521 C 0.08443 0.03922 0.84836 0.0
C2522 C 0.09617 0.0434 0.81382 0.0
C2523 C 0.10377 0.06264 0.81856 0.0
C2524 C 0.10101 0.07036 0.8381 0.0
C2525 C 0.09161 0.05867 0.85293 0.0
C2526 C 0.12233 0.10561 0.78579 0.0
C2527 C 0.13943 0.09699 0.77666 0.0
C2528 C 0.1106 0.09439 0.79928 0.0
C2529 C 0.11552 0.07423 0.80354 0.0
C2530 C 0.13232 0.06544 0.79407 0.0
C2531 C 0.1443 0.07678 0.78089 0.0
H2532 H 0.6035 0.12294 0.04383 0.0
H2533 H 0.63477 0.06683 0.0554 0.0
H2534 H 0.62139 0.13859 0.07207 0.0
H2535 H 0.65296 0.08254 0.08306 0.0
H2536 H 0.67999 0.11228 0.13668 0.0
H2537 H 0.65285 0.09774 0.1162 0.0
H2538 H 0.65591 0.14904 0.07597 0.0
H2539 H 0.68238 0.1637 0.09655 0.0
C2540 C 0.61403 0.1139 0.0525 0.0
C2541 C 0.61795 0.09375 0.04718 0.0
C2542 C 0.6243 0.12286 0.06865 0.0
C2543 C 0.63874 0.11187 0.07972 0.0
C2544 C 0.64179 0.09141 0.07505 0.0
C2545 C 0.63149 0.08244 0.059 0.0
C2546 C 0.67453 0.12061 0.12371 0.0
C2547 C 0.68354 0.13897 0.11806 0.0
C2548 C 0.65907 0.11225 0.11192 0.0
C2549 C 0.65235 0.12213 0.09433 0.0
C2550 C 0.66053 0.1411 0.0895 0.0
C2551 C 0.67591 0.14942 0.10123 0.0
H2552 H 0.37601 0.025 0.15289 0.0
H2553 H 0.43299 0.05569 0.16025 0.0
H2554 H 0.36026 0.04805 0.17658 0.0
H2555 H 0.41698 0.08012 0.18287 0.0
H2556 H 0.38543 0.11238 0.23494 0.0
H2557 H 0.40274 0.08783 0.21369 0.0
H2558 H 0.34795 0.07999 0.17873 0.0
H2559 H 0.3305 0.10329 0.20099 0.0
C2560 C 0.38511 0.03686 0.15961 0.0
C2561 C 0.40563 0.03867 0.15484 0.0
C2562 C 0.37605 0.05029 0.173 0.0
C2563 C 0.38713 0.06638 0.18144 0.0
C2564 C 0.40792 0.06788 0.17691 0.0
C2565 C 0.41714 0.05397 0.16391 0.0
C2566 C 0.37718 0.10533 0.22267 0.0
C2567 C 0.35662 0.10958 0.21964 0.0
C2568 C 0.38711 0.09132 0.21038 0.0
C2569 C 0.37681 0.08162 0.19447 0.0
C2570 C 0.35633 0.08652 0.19116 0.0
C2571 C 0.3463 0.10007 0.20379 0.0
H2572 H 0.68668 0.40738 0.19905 0.0
H2573 H 0.63092 0.37663 0.21358 0.0
H2574 H 0.66916 0.42673 0.17308 0.0
H2575 H 0.6135 0.39586 0.18743 0.0
H2576 H 0.63595 0.44363 0.11522 0.0
H2577 H 0.6526 0.4219 0.13991 0.0
H2578 H 0.6032 0.43114 0.18141 0.0
H2579 H 0.58643 0.45266 0.15672 0.0
C2580 C 0.6707 0.40471 0.19669 0.0
C2581 C 0.66019 0.3905 0.20844 0.0
C2582 C 0.66071 0.41569 0.18169 0.0
C2583 C 0.63997 0.41278 0.17817 0.0
C2584 C 0.62945 0.39856 0.1899 0.0
C2585 C 0.63946 0.3875 0.20484 0.0
C2586 C 0.62854 0.44086 0.12953 0.0
C2587 C 0.60989 0.44994 0.13402 0.0
C2588 C 0.63815 0.42853 0.14372 0.0
C2589 C 0.62927 0.42492 0.16265 0.0
C2590 C 0.61035 0.43351 0.1669 0.0
C2591 C 0.60079 0.44591 0.15277 0.0
loop_
_geom_bond_atom_site_label_1
_geom_bond_atom_site_label_2
_geom_bond_distance
_geom_bond_site_symmetry_2
_ccdc_geom_bond_type
C0 O2 1.247 . S
C0 O4 1.258 . S
C1 O8 1.247 . S
C1 O9 1.258 . S
O2 C0 1.247 . S
O2 Zn3 2.028 . S
Zn3 O2 2.028 . S
Zn3 O7 2.035 . S
Zn3 O9 2.035 . S
Zn3 O10 2.028 . S
O4 C0 1.258 . S
O4 Zn5 2.035 . S
Zn5 O4 2.035 . S
Zn5 O6 2.028 . S
Zn5 O8 2.028 . S
Zn5 O11 2.035 . S
O6 Zn5 2.028 . S
O6 C12 1.247 . S
O7 Zn3 2.035 . S
O7 C12 1.258 . S
O8 C1 1.247 . S
O8 Zn5 2.028 . S
O9 C1 1.258 . S
O9 Zn3 2.035 . S
O10 Zn3 2.028 . S
O10 C13 1.247 . S
O11 Zn5 2.035 . S
O11 C13 1.258 . S
C12 O6 1.247 . S
C12 O7 1.258 . S
C13 O10 1.247 . S
C13 O11 1.258 . S
C14 O16 1.247 . S
C14 O18 1.258 . S
C15 O22 1.247 . S
C15 O23 1.258 . S
O16 C14 1.247 . S
O16 Zn17 2.028 . S
Zn17 O16 2.028 . S
Zn17 O21 2.035 . S
Zn17 O23 2.035 . S
Zn17 O24 2.028 . S
O18 C14 1.258 . S
O18 Zn19 2.035 . S
Zn19 O18 2.035 . S
Zn19 O20 2.028 . S
Zn19 O22 2.028 . S
Zn19 O25 2.035 . S
O20 Zn19 2.028 . S
O20 C26 1.247 . S
O21 Zn17 2.035 . S
O21 C26 1.258 . S
O22 C15 1.247 . S
O22 Zn19 2.028 . S
O23 C15 1.258 . S
O23 Zn17 2.035 . S
O24 Zn17 2.028 . S
O24 C27 1.247 . S
O25 Zn19 2.035 . S
O25 C27 1.258 . S
C26 O20 1.247 . S
C26 O21 1.258 . S
C27 O24 1.247 . S
C27 O25 1.258 . S
C28 O30 1.247 . S
C28 O32 1.258 . S
C29 O36 1.247 . S
C29 O37 1.258 . S
O30 C28 1.247 . S
O30 Zn31 2.028 . S
Zn31 O30 2.028 . S
Zn31 O35 2.035 . S
Zn31 O37 2.035 . S
Zn31 O38 2.028 . S
O32 C28 1.258 . S
O32 Zn33 2.035 . S
Zn33 O32 2.035 . S
Zn33 O34 2.028 . S
Zn33 O36 2.028 . S
Zn33 O39 2.035 . S
O34 Zn33 2.028 . S
O34 C40 1.247 . S
O35 Zn31 2.035 . S
O35 C40 1.258 . S
O36 C29 1.247 . S
O36 Zn33 2.028 . S
O37 C29 1.258 . S
O37 Zn31 2.035 . S
O38 Zn31 2.028 . S
O38 C41 1.247 . S
O39 Zn33 2.035 . S
O39 C41 1.258 . S
C40 O34 1.247 . S
C40 O35 1.258 . S
C41 O38 1.247 . S
C41 O39 1.258 . S
C42 O44 1.247 . S
C42 O46 1.258 . S
C43 O50 1.247 . S
C43 O51 1.258 . S
O44 C42 1.247 . S
O44 Zn45 2.028 . S
Zn45 O44 2.028 . S
Zn45 O49 2.035 . S
Zn45 O51 2.035 . S
Zn45 O52 2.028 . S
O46 C42 1.258 . S
O46 Zn47 2.035 . S
Zn47 O46 2.035 . S
Zn47 O48 2.028 . S
Zn47 O50 2.028 . S
Zn47 O53 2.035 . S
O48 Zn47 2.028 . S
O48 C54 1.247 . S
O49 Zn45 2.035 . S
O49 C54 1.258 . S
O50 C43 1.247 . S
O50 Zn47 2.028 . S
O51 C43 1.258 . S
O51 Zn45 2.035 . S
O52 Zn45 2.028 . S
O52 C55 1.247 . S
O53 Zn47 2.035 . S
O53 C55 1.258 . S
C54 O48 1.247 . S
C54 O49 1.258 . S
C55 O52 1.247 . S
C55 O53 1.258 . S
C56 O58 1.247 . S
C56 O60 1.258 . S
C57 O64 1.247 . S
C57 O65 1.258 . S
O58 C56 1.247 . S
O58 Zn59 2.028 . S
Zn59 O58 2.028 . S
Zn59 O63 2.035 . S
Zn59 O65 2.035 . S
Zn59 O66 2.028 . S
O60 C56 1.258 . S
O60 Zn61 2.035 . S
Zn61 O60 2.035 . S
Zn61 O62 2.028 . S
Zn61 O64 2.028 . S
Zn61 O67 2.035 . S
O62 Zn61 2.028 . S
O62 C68 1.247 . S
O63 Zn59 2.035 . S
O63 C68 1.258 . S
O64 C57 1.247 . S
O64 Zn61 2.028 . S
O65 C57 1.258 . S
O65 Zn59 2.035 . S
O66 Zn59 2.028 . S
O66 C69 1.247 . S
O67 Zn61 2.035 . S
O67 C69 1.258 . S
C68 O62 1.247 . S
C68 O63 1.258 . S
C69 O66 1.247 . S
C69 O67 1.258 . S
C70 O72 1.247 . S
C70 O74 1.258 . S
C71 O78 1.247 . S
C71 O79 1.258 . S
O72 C70 1.247 . S
O72 Zn73 2.028 . S
Zn73 O72 2.028 . S
Zn73 O77 2.035 . S
Zn73 O79 2.035 1_455 S
Zn73 O80 2.028 1_455 S
O74 C70 1.258 . S
O74 Zn75 2.035 1_455 S
Zn75 O74 2.035 1_655 S
Zn75 O76 2.028 1_655 S
Zn75 O78 2.028 . S
Zn75 O81 2.035 . S
O76 Zn75 2.028 1_455 S
O76 C82 1.247 . S
O77 Zn73 2.035 . S
O77 C82 1.258 . S
O78 C71 1.247 . S
O78 Zn75 2.028 . S
O79 C71 1.258 . S
O79 Zn73 2.035 1_655 S
O80 Zn73 2.028 1_655 S
O80 C83 1.247 . S
O81 Zn75 2.035 . S
O81 C83 1.258 . S
C82 O76 1.247 . S
C82 O77 1.258 . S
C83 O80 1.247 . S
C83 O81 1.258 . S
C84 O86 1.247 . S
C84 O88 1.258 . S
C85 O92 1.247 . S
C85 O93 1.258 . S
O86 C84 1.247 . S
O86 Zn87 2.028 . S
Zn87 O86 2.028 . S
Zn87 O91 2.035 . S
Zn87 O93 2.035 . S
Zn87 O94 2.028 . S
O88 C84 1.258 . S
O88 Zn89 2.035 . S
Zn89 O88 2.035 . S
Zn89 O90 2.028 . S
Zn89 O92 2.028 . S
Zn89 O95 2.035 . S
O90 Zn89 2.028 . S
O90 C96 1.247 . S
O91 Zn87 2.035 . S
O91 C96 1.258 . S
O92 C85 1.247 . S
O92 Zn89 2.028 . S
O93 C85 1.258 . S
O93 Zn87 2.035 . S
O94 Zn87 2.028 . S
O94 C97 1.247 . S
O95 Zn89 2.035 . S
O95 C97 1.258 . S
C96 O90 1.247 . S
C96 O91 1.258 . S
C97 O94 1.247 . S
C97 O95 1.258 . S
C98 O100 1.247 . S
C98 O102 1.258 . S
C99 O106 1.247 . S
C99 O107 1.258 . S
O100 C98 1.247 . S
O100 Zn101 2.028 . S
Zn101 O100 2.028 . S
Zn101 O105 2.035 . S
Zn101 O107 2.035 1_655 S
Zn101 O108 2.028 1_655 S
O102 C98 1.258 . S
O102 Zn103 2.035 1_655 S
Zn103 O102 2.035 1_455 S
Zn103 O104 2.028 1_455 S
Zn103 O106 2.028 . S
Zn103 O109 2.035 . S
O104 Zn103 2.028 1_655 S
O104 C110 1.247 . S
O105 Zn101 2.035 . S
O105 C110 1.258 . S
O106 C99 1.247 . S
O106 Zn103 2.028 . S
O107 C99 1.258 . S
O107 Zn101 2.035 1_455 S
O108 Zn101 2.028 1_455 S
O108 C111 1.247 . S
O109 Zn103 2.035 . S
O109 C111 1.258 . S
C110 O104 1.247 . S
C110 O105 1.258 . S
C111 O108 1.247 . S
C111 O109 1.258 . S
C112 O114 1.247 . S
C112 O116 1.258 . S
C113 O120 1.247 . S
C113 O121 1.258 . S
O114 C112 1.247 . S
O114 Zn115 2.028 . S
Zn115 O114 2.028 . S
Zn115 O119 2.035 . S
Zn115 O121 2.035 . S
Zn115 O122 2.028 . S
O116 C112 1.258 . S
O116 Zn117 2.035 . S
Zn117 O116 2.035 . S
Zn117 O118 2.028 . S
Zn117 O120 2.028 . S
Zn117 O123 2.035 . S
O118 Zn117 2.028 . S
O118 C124 1.247 . S
O119 Zn115 2.035 . S
O119 C124 1.258 . S
O120 C113 1.247 . S
O120 Zn117 2.028 . S
O121 C113 1.258 . S
O121 Zn115 2.035 . S
O122 Zn115 2.028 . S
O122 C125 1.247 . S
O123 Zn117 2.035 . S
O123 C125 1.258 . S
C124 O118 1.247 . S
C124 O119 1.258 . S
C125 O122 1.247 . S
C125 O123 1.258 . S
C126 O128 1.247 . S
C126 O130 1.258 . S
C127 O134 1.247 . S
C127 O135 1.258 . S
O128 C126 1.247 . S
O128 Zn129 2.028 . S
Zn129 O128 2.028 . S
Zn129 O133 2.035 . S
Zn129 O135 2.035 1_556 S
Zn129 O136 2.028 1_556 S
O130 C126 1.258 . S
O130 Zn131 2.035 1_556 S
Zn131 O130 2.035 1_554 S
Zn131 O132 2.028 1_554 S
Zn131 O134 2.028 . S
Zn131 O137 2.035 . S
O132 Zn131 2.028 1_556 S
O132 C138 1.247 . S
O133 Zn129 2.035 . S
O133 C138 1.258 . S
O134 C127 1.247 . S
O134 Zn131 2.028 . S
O135 C127 1.258 . S
O135 Zn129 2.035 1_554 S
O136 Zn129 2.028 1_554 S
O136 C139 1.247 . S
O137 Zn131 2.035 . S
O137 C139 1.258 . S
C138 O132 1.247 . S
C138 O133 1.258 . S
C139 O136 1.247 . S
C139 O137 1.258 . S
C140 O142 1.247 . S
C140 O144 1.258 . S
C141 O148 1.247 . S
C141 O149 1.258 . S
O142 C140 1.247 . S
O142 Zn143 2.028 . S
Zn143 O142 2.028 . S
Zn143 O147 2.035 . S
Zn143 O149 2.035 . S
Zn143 O150 2.028 . S
O144 C140 1.258 . S
O144 Zn145 2.035 . S
Zn145 O144 2.035 . S
Zn145 O146 2.028 . S
Zn145 O148 2.028 . S
Zn145 O151 2.035 . S
O146 Zn145 2.028 . S
O146 C152 1.247 . S
O147 Zn143 2.035 . S
O147 C152 1.258 . S
O148 C141 1.247 . S
O148 Zn145 2.028 . S
O149 C141 1.258 . S
O149 Zn143 2.035 . S
O150 Zn143 2.028 . S
O150 C153 1.247 . S
O151 Zn145 2.035 . S
O151 C153 1.258 . S
C152 O146 1.247 . S
C152 O147 1.258 . S
C153 O150 1.247 . S
C153 O151 1.258 . S
C154 O156 1.247 . S
C154 O158 1.258 . S
C155 O162 1.247 . S
C155 O163 1.258 . S
O156 C154 1.247 . S
O156 Zn157 2.028 1_554 S
Zn157 O156 2.028 1_556 S
Zn157 O161 2.035 1_556 S
Zn157 O163 2.035 . S
Zn157 O164 2.028 . S
O158 C154 1.258 . S
O158 Zn159 2.035 . S
Zn159 O158 2.035 . S
Zn159 O160 2.028 . S
Zn159 O162 2.028 1_554 S
Zn159 O165 2.035 1_554 S
O160 Zn159 2.028 . S
O160 C166 1.247 . S
O161 Zn157 2.035 1_554 S
O161 C166 1.258 . S
O162 C155 1.247 . S
O162 Zn159 2.028 1_556 S
O163 C155 1.258 . S
O163 Zn157 2.035 . S
O164 Zn157 2.028 . S
O164 C167 1.247 . S
O165 Zn159 2.035 1_556 S
O165 C167 1.258 . S
C166 O160 1.247 . S
C166 O161 1.258 . S
C167 O164 1.247 . S
C167 O165 1.258 . S
C168 O170 1.247 . S
C168 O172 1.258 . S
C169 O176 1.247 . S
C169 O177 1.258 . S
O170 C168 1.247 . S
O170 Zn171 2.028 . S
Zn171 O170 2.028 . S
Zn171 O175 2.035 . S
Zn171 O177 2.035 . S
Zn171 O178 2.028 . S
O172 C168 1.258 . S
O172 Zn173 2.035 . S
Zn173 O172 2.035 . S
Zn173 O174 2.028 . S
Zn173 O176 2.028 . S
Zn173 O179 2.035 . S
O174 Zn173 2.028 . S
O174 C180 1.247 . S
O175 Zn171 2.035 . S
O175 C180 1.258 . S
O176 C169 1.247 . S
O176 Zn173 2.028 . S
O177 C169 1.258 . S
O177 Zn171 2.035 . S
O178 Zn171 2.028 . S
O178 C181 1.247 . S
O179 Zn173 2.035 . S
O179 C181 1.258 . S
C180 O174 1.247 . S
C180 O175 1.258 . S
C181 O178 1.247 . S
C181 O179 1.258 . S
C182 O184 1.247 . S
C182 O186 1.258 . S
C183 O190 1.247 . S
C183 O191 1.258 . S
O184 C182 1.247 . S
O184 Zn185 2.028 . S
Zn185 O184 2.028 . S
Zn185 O189 2.035 . S
Zn185 O191 2.035 1_554 S
Zn185 O192 2.028 1_554 S
O186 C182 1.258 . S
O186 Zn187 2.035 1_554 S
Zn187 O186 2.035 1_556 S
Zn187 O188 2.028 1_556 S
Zn187 O190 2.028 . S
Zn187 O193 2.035 . S
O188 Zn187 2.028 1_554 S
O188 C194 1.247 . S
O189 Zn185 2.035 . S
O189 C194 1.258 . S
O190 C183 1.247 . S
O190 Zn187 2.028 . S
O191 C183 1.258 . S
O191 Zn185 2.035 1_556 S
O192 Zn185 2.028 1_556 S
O192 C195 1.247 . S
O193 Zn187 2.035 . S
O193 C195 1.258 . S
C194 O188 1.247 . S
C194 O189 1.258 . S
C195 O192 1.247 . S
C195 O193 1.258 . S
C196 O198 1.247 . S
C196 O200 1.258 . S
C197 O204 1.247 . S
C197 O205 1.258 . S
O198 C196 1.247 . S
O198 Zn199 2.028 . S
Zn199 O198 2.028 . S
Zn199 O203 2.035 . S
Zn199 O205 2.035 . S
Zn199 O206 2.028 . S
O200 C196 1.258 . S
O200 Zn201 2.035 . S
Zn201 O200 2.035 . S
Zn201 O202 2.028 . S
Zn201 O204 2.028 . S
Zn201 O207 2.035 . S
O202 Zn201 2.028 . S
O202 C208 1.247 . S
O203 Zn199 2.035 . S
O203 C208 1.258 . S
O204 C197 1.247 . S
O204 Zn201 2.028 . S
O205 C197 1.258 . S
O205 Zn199 2.035 . S
O206 Zn199 2.028 . S
O206 C209 1.247 . S
O207 Zn201 2.035 . S
O207 C209 1.258 . S
C208 O202 1.247 . S
C208 O203 1.258 . S
C209 O206 1.247 . S
C209 O207 1.258 . S
C210 O212 1.247 . S
C210 O214 1.258 . S
C211 O218 1.247 . S
C211 O219 1.258 . S
O212 C210 1.247 . S
O212 Zn213 2.028 1_556 S
Zn213 O212 2.028 1_554 S
Zn213 O217 2.035 1_554 S
Zn213 O219 2.035 . S
Zn213 O220 2.028 . S
O214 C210 1.258 . S
O214 Zn215 2.035 . S
Zn215 O214 2.035 . S
Zn215 O216 2.028 . S
Zn215 O218 2.028 1_556 S
Zn215 O221 2.035 1_556 S
O216 Zn215 2.028 . S
O216 C222 1.247 . S
O217 Zn213 2.035 1_556 S
O217 C222 1.258 . S
O218 C211 1.247 . S
O218 Zn215 2.028 1_554 S
O219 C211 1.258 . S
O219 Zn213 2.035 . S
O220 Zn213 2.028 . S
O220 C223 1.247 . S
O221 Zn215 2.035 1_554 S
O221 C223 1.258 . S
C222 O216 1.247 . S
C222 O217 1.258 . S
C223 O220 1.247 . S
C223 O221 1.258 . S
C224 O226 1.247 . S
C224 O228 1.258 . S
C225 O232 1.247 . S
C225 O233 1.258 . S
O226 C224 1.247 . S
O226 Zn227 2.028 . S
Zn227 O226 2.028 . S
Zn227 O231 2.035 . S
Zn227 O233 2.035 . S
Zn227 O234 2.028 . S
O228 C224 1.258 . S
O228 Zn229 2.035 . S
Zn229 O228 2.035 . S
Zn229 O230 2.028 . S
Zn229 O232 2.028 . S
Zn229 O235 2.035 . S
O230 Zn229 2.028 . S
O230 C236 1.247 . S
O231 Zn227 2.035 . S
O231 C236 1.258 . S
O232 C225 1.247 . S
O232 Zn229 2.028 . S
O233 C225 1.258 . S
O233 Zn227 2.035 . S
O234 Zn227 2.028 . S
O234 C237 1.247 . S
O235 Zn229 2.035 . S
O235 C237 1.258 . S
C236 O230 1.247 . S
C236 O231 1.258 . S
C237 O234 1.247 . S
C237 O235 1.258 . S
C238 O240 1.247 . S
C238 O242 1.258 . S
C239 O246 1.247 . S
C239 O247 1.258 . S
O240 C238 1.247 . S
O240 Zn241 2.028 . S
Zn241 O240 2.028 . S
Zn241 O245 2.035 . S
Zn241 O247 2.035 . S
Zn241 O248 2.028 . S
O242 C238 1.258 . S
O242 Zn243 2.035 . S
Zn243 O242 2.035 . S
Zn243 O244 2.028 . S
Zn243 O246 2.028 . S
Zn243 O249 2.035 . S
O244 Zn243 2.028 . S
O244 C250 1.247 . S
O245 Zn241 2.035 . S
O245 C250 1.258 . S
O246 C239 1.247 . S
O246 Zn243 2.028 . S
O247 C239 1.258 . S
O247 Zn241 2.035 . S
O248 Zn241 2.028 . S
O248 C251 1.247 . S
O249 Zn243 2.035 . S
O249 C251 1.258 . S
C250 O244 1.247 . S
C250 O245 1.258 . S
C251 O248 1.247 . S
C251 O249 1.258 . S
C252 O254 1.247 . S
C252 O256 1.258 . S
C253 O260 1.247 . S
C253 O261 1.258 . S
O254 C252 1.247 . S
O254 Zn255 2.028 . S
Zn255 O254 2.028 . S
Zn255 O259 2.035 . S
Zn255 O261 2.035 . S
Zn255 O262 2.028 . S
O256 C252 1.258 . S
O256 Zn257 2.035 . S
Zn257 O256 2.035 . S
Zn257 O258 2.028 . S
Zn257 O260 2.028 . S
Zn257 O263 2.035 . S
O258 Zn257 2.028 . S
O258 C264 1.247 . S
O259 Zn255 2.035 . S
O259 C264 1.258 . S
O260 C253 1.247 . S
O260 Zn257 2.028 . S
O261 C253 1.258 . S
O261 Zn255 2.035 . S
O262 Zn255 2.028 . S
O262 C265 1.247 . S
O263 Zn257 2.035 . S
O263 C265 1.258 . S
C264 O258 1.247 . S
C264 O259 1.258 . S
C265 O262 1.247 . S
C265 O263 1.258 . S
C266 O268 1.247 . S
C266 O270 1.258 . S
C267 O274 1.247 . S
C267 O275 1.258 . S
O268 C266 1.247 . S
O268 Zn269 2.028 . S
Zn269 O268 2.028 . S
Zn269 O273 2.035 . S
Zn269 O275 2.035 . S
Zn269 O276 2.028 . S
O270 C266 1.258 . S
O270 Zn271 2.035 . S
Zn271 O270 2.035 . S
Zn271 O272 2.028 . S
Zn271 O274 2.028 . S
Zn271 O277 2.035 . S
O272 Zn271 2.028 . S
O272 C278 1.247 . S
O273 Zn269 2.035 . S
O273 C278 1.258 . S
O274 C267 1.247 . S
O274 Zn271 2.028 . S
O275 C267 1.258 . S
O275 Zn269 2.035 . S
O276 Zn269 2.028 . S
O276 C279 1.247 . S
O277 Zn271 2.035 . S
O277 C279 1.258 . S
C278 O272 1.247 . S
C278 O273 1.258 . S
C279 O276 1.247 . S
C279 O277 1.258 . S
C280 O282 1.247 . S
C280 O284 1.258 . S
C281 O288 1.247 . S
C281 O289 1.258 . S
O282 C280 1.247 . S
O282 Zn283 2.028 . S
Zn283 O282 2.028 . S
Zn283 O287 2.035 . S
Zn283 O289 2.035 . S
Zn283 O290 2.028 . S
O284 C280 1.258 . S
O284 Zn285 2.035 . S
Zn285 O284 2.035 . S
Zn285 O286 2.028 . S
Zn285 O288 2.028 . S
Zn285 O291 2.035 . S
O286 Zn285 2.028 . S
O286 C292 1.247 . S
O287 Zn283 2.035 . S
O287 C292 1.258 . S
O288 C281 1.247 . S
O288 Zn285 2.028 . S
O289 C281 1.258 . S
O289 Zn283 2.035 . S
O290 Zn283 2.028 . S
O290 C293 1.247 . S
O291 Zn285 2.035 . S
O291 C293 1.258 . S
C292 O286 1.247 . S
C292 O287 1.258 . S
C293 O290 1.247 . S
C293 O291 1.258 . S
C294 O296 1.247 . S
C294 O298 1.258 . S
C295 O302 1.247 . S
C295 O303 1.258 . S
O296 C294 1.247 . S
O296 Zn297 2.028 . S
Zn297 O296 2.028 . S
Zn297 O301 2.035 . S
Zn297 O303 2.035 . S
Zn297 O304 2.028 . S
O298 C294 1.258 . S
O298 Zn299 2.035 . S
Zn299 O298 2.035 . S
Zn299 O300 2.028 . S
Zn299 O302 2.028 . S
Zn299 O305 2.035 . S
O300 Zn299 2.028 . S
O300 C306 1.247 . S
O301 Zn297 2.035 . S
O301 C306 1.258 . S
O302 C295 1.247 . S
O302 Zn299 2.028 . S
O303 C295 1.258 . S
O303 Zn297 2.035 . S
O304 Zn297 2.028 . S
O304 C307 1.247 . S
O305 Zn299 2.035 . S
O305 C307 1.258 . S
C306 O300 1.247 . S
C306 O301 1.258 . S
C307 O304 1.247 . S
C307 O305 1.258 . S
C308 O310 1.247 . S
C308 O312 1.258 . S
C309 O316 1.247 . S
C309 O317 1.258 . S
O310 C308 1.247 . S
O310 Zn311 2.028 . S
Zn311 O310 2.028 . S
Zn311 O315 2.035 . S
Zn311 O317 2.035 . S
Zn311 O318 2.028 . S
O312 C308 1.258 . S
O312 Zn313 2.035 . S
Zn313 O312 2.035 . S
Zn313 O314 2.028 . S
Zn313 O316 2.028 . S
Zn313 O319 2.035 . S
O314 Zn313 2.028 . S
O314 C320 1.247 . S
O315 Zn311 2.035 . S
O315 C320 1.258 . S
O316 C309 1.247 . S
O316 Zn313 2.028 . S
O317 C309 1.258 . S
O317 Zn311 2.035 . S
O318 Zn311 2.028 . S
O318 C321 1.247 . S
O319 Zn313 2.035 . S
O319 C321 1.258 . S
C320 O314 1.247 . S
C320 O315 1.258 . S
C321 O318 1.247 . S
C321 O319 1.258 . S
C322 O324 1.247 . S
C322 O326 1.258 . S
C323 O330 1.247 . S
C323 O331 1.258 . S
O324 C322 1.247 . S
O324 Zn325 2.028 . S
Zn325 O324 2.028 . S
Zn325 O329 2.035 . S
Zn325 O331 2.035 1_545 S
Zn325 O332 2.028 1_545 S
O326 C322 1.258 . S
O326 Zn327 2.035 1_545 S
Zn327 O326 2.035 1_565 S
Zn327 O328 2.028 1_565 S
Zn327 O330 2.028 . S
Zn327 O333 2.035 . S
O328 Zn327 2.028 1_545 S
O328 C334 1.247 . S
O329 Zn325 2.035 . S
O329 C334 1.258 . S
O330 C323 1.247 . S
O330 Zn327 2.028 . S
O331 C323 1.258 . S
O331 Zn325 2.035 1_565 S
O332 Zn325 2.028 1_565 S
O332 C335 1.247 . S
O333 Zn327 2.035 . S
O333 C335 1.258 . S
C334 O328 1.247 . S
C334 O329 1.258 . S
C335 O332 1.247 . S
C335 O333 1.258 . S
C336 O338 1.247 . S
C336 O340 1.258 . S
C337 O344 1.247 . S
C337 O345 1.258 . S
O338 C336 1.247 . S
O338 Zn339 2.028 . S
Zn339 O338 2.028 . S
Zn339 O343 2.035 . S
Zn339 O345 2.035 . S
Zn339 O346 2.028 . S
O340 C336 1.258 . S
O340 Zn341 2.035 . S
Zn341 O340 2.035 . S
Zn341 O342 2.028 . S
Zn341 O344 2.028 . S
Zn341 O347 2.035 . S
O342 Zn341 2.028 . S
O342 C348 1.247 . S
O343 Zn339 2.035 . S
O343 C348 1.258 . S
O344 C337 1.247 . S
O344 Zn341 2.028 . S
O345 C337 1.258 . S
O345 Zn339 2.035 . S
O346 Zn339 2.028 . S
O346 C349 1.247 . S
O347 Zn341 2.035 . S
O347 C349 1.258 . S
C348 O342 1.247 . S
C348 O343 1.258 . S
C349 O346 1.247 . S
C349 O347 1.258 . S
C350 O352 1.247 . S
C350 O354 1.258 . S
C351 O358 1.247 . S
C351 O359 1.258 . S
O352 C350 1.247 . S
O352 Zn353 2.028 1_655 S
Zn353 O352 2.028 1_455 S
Zn353 O357 2.035 1_455 S
Zn353 O359 2.035 . S
Zn353 O360 2.028 . S
O354 C350 1.258 . S
O354 Zn355 2.035 . S
Zn355 O354 2.035 . S
Zn355 O356 2.028 . S
Zn355 O358 2.028 1_655 S
Zn355 O361 2.035 1_655 S
O356 Zn355 2.028 . S
O356 C362 1.247 . S
O357 Zn353 2.035 1_655 S
O357 C362 1.258 . S
O358 C351 1.247 . S
O358 Zn355 2.028 1_455 S
O359 C351 1.258 . S
O359 Zn353 2.035 . S
O360 Zn353 2.028 . S
O360 C363 1.247 . S
O361 Zn355 2.035 1_455 S
O361 C363 1.258 . S
C362 O356 1.247 . S
C362 O357 1.258 . S
C363 O360 1.247 . S
C363 O361 1.258 . S
C364 O366 1.247 . S
C364 O368 1.258 . S
C365 O372 1.247 . S
C365 O373 1.258 . S
O366 C364 1.247 . S
O366 Zn367 2.028 . S
Zn367 O366 2.028 . S
Zn367 O371 2.035 . S
Zn367 O373 2.035 . S
Zn367 O374 2.028 . S
O368 C364 1.258 . S
O368 Zn369 2.035 . S
Zn369 O368 2.035 . S
Zn369 O370 2.028 . S
Zn369 O372 2.028 . S
Zn369 O375 2.035 . S
O370 Zn369 2.028 . S
O370 C376 1.247 . S
O371 Zn367 2.035 . S
O371 C376 1.258 . S
O372 C365 1.247 . S
O372 Zn369 2.028 . S
O373 C365 1.258 . S
O373 Zn367 2.035 . S
O374 Zn367 2.028 . S
O374 C377 1.247 . S
O375 Zn369 2.035 . S
O375 C377 1.258 . S
C376 O370 1.247 . S
C376 O371 1.258 . S
C377 O374 1.247 . S
C377 O375 1.258 . S
C378 O380 1.247 . S
C378 O382 1.258 . S
C379 O386 1.247 . S
C379 O387 1.258 . S
O380 C378 1.247 . S
O380 Zn381 2.028 1_455 S
Zn381 O380 2.028 1_655 S
Zn381 O385 2.035 1_655 S
Zn381 O387 2.035 . S
Zn381 O388 2.028 . S
O382 C378 1.258 . S
O382 Zn383 2.035 . S
Zn383 O382 2.035 . S
Zn383 O384 2.028 . S
Zn383 O386 2.028 1_455 S
Zn383 O389 2.035 1_455 S
O384 Zn383 2.028 . S
O384 C390 1.247 . S
O385 Zn381 2.035 1_455 S
O385 C390 1.258 . S
O386 C379 1.247 . S
O386 Zn383 2.028 1_655 S
O387 C379 1.258 . S
O387 Zn381 2.035 . S
O388 Zn381 2.028 . S
O388 C391 1.247 . S
O389 Zn383 2.035 1_655 S
O389 C391 1.258 . S
C390 O384 1.247 . S
C390 O385 1.258 . S
C391 O388 1.247 . S
C391 O389 1.258 . S
C392 O394 1.247 . S
C392 O396 1.258 . S
C393 O400 1.247 . S
C393 O401 1.258 . S
O394 C392 1.247 . S
O394 Zn395 2.028 . S
Zn395 O394 2.028 . S
Zn395 O399 2.035 . S
Zn395 O401 2.035 . S
Zn395 O402 2.028 . S
O396 C392 1.258 . S
O396 Zn397 2.035 . S
Zn397 O396 2.035 . S
Zn397 O398 2.028 . S
Zn397 O400 2.028 . S
Zn397 O403 2.035 . S
O398 Zn397 2.028 . S
O398 C404 1.247 . S
O399 Zn395 2.035 . S
O399 C404 1.258 . S
O400 C393 1.247 . S
O400 Zn397 2.028 . S
O401 C393 1.258 . S
O401 Zn395 2.035 . S
O402 Zn395 2.028 . S
O402 C405 1.247 . S
O403 Zn397 2.035 . S
O403 C405 1.258 . S
C404 O398 1.247 . S
C404 O399 1.258 . S
C405 O402 1.247 . S
C405 O403 1.258 . S
C406 O408 1.247 . S
C406 O410 1.258 . S
C407 O414 1.247 . S
C407 O415 1.258 . S
O408 C406 1.247 . S
O408 Zn409 2.028 . S
Zn409 O408 2.028 . S
Zn409 O413 2.035 . S
Zn409 O415 2.035 . S
Zn409 O416 2.028 . S
O410 C406 1.258 . S
O410 Zn411 2.035 . S
Zn411 O410 2.035 . S
Zn411 O412 2.028 . S
Zn411 O414 2.028 . S
Zn411 O417 2.035 . S
O412 Zn411 2.028 . S
O412 C418 1.247 . S
O413 Zn409 2.035 . S
O413 C418 1.258 . S
O414 C407 1.247 . S
O414 Zn411 2.028 . S
O415 C407 1.258 . S
O415 Zn409 2.035 . S
O416 Zn409 2.028 . S
O416 C419 1.247 . S
O417 Zn411 2.035 . S
O417 C419 1.258 . S
C418 O412 1.247 . S
C418 O413 1.258 . S
C419 O416 1.247 . S
C419 O417 1.258 . S
C420 O422 1.247 . S
C420 O424 1.258 . S
C421 O428 1.247 . S
C421 O429 1.258 . S
O422 C420 1.247 . S
O422 Zn423 2.028 . S
Zn423 O422 2.028 . S
Zn423 O427 2.035 . S
Zn423 O429 2.035 . S
Zn423 O430 2.028 . S
O424 C420 1.258 . S
O424 Zn425 2.035 . S
Zn425 O424 2.035 . S
Zn425 O426 2.028 . S
Zn425 O428 2.028 . S
Zn425 O431 2.035 . S
O426 Zn425 2.028 . S
O426 C432 1.247 . S
O427 Zn423 2.035 . S
O427 C432 1.258 . S
O428 C421 1.247 . S
O428 Zn425 2.028 . S
O429 C421 1.258 . S
O429 Zn423 2.035 . S
O430 Zn423 2.028 . S
O430 C433 1.247 . S
O431 Zn425 2.035 . S
O431 C433 1.258 . S
C432 O426 1.247 . S
C432 O427 1.258 . S
C433 O430 1.247 . S
C433 O431 1.258 . S
C434 O436 1.247 . S
C434 O438 1.258 . S
C435 O442 1.247 . S
C435 O443 1.258 . S
O436 C434 1.247 . S
O436 Zn437 2.028 . S
Zn437 O436 2.028 . S
Zn437 O441 2.035 . S
Zn437 O443 2.035 . S
Zn437 O444 2.028 . S
O438 C434 1.258 . S
O438 Zn439 2.035 . S
Zn439 O438 2.035 . S
Zn439 O440 2.028 . S
Zn439 O442 2.028 . S
Zn439 O445 2.035 . S
O440 Zn439 2.028 . S
O440 C446 1.247 . S
O441 Zn437 2.035 . S
O441 C446 1.258 . S
O442 C435 1.247 . S
O442 Zn439 2.028 . S
O443 C435 1.258 . S
O443 Zn437 2.035 . S
O444 Zn437 2.028 . S
O444 C447 1.247 . S
O445 Zn439 2.035 . S
O445 C447 1.258 . S
C446 O440 1.247 . S
C446 O441 1.258 . S
C447 O444 1.247 . S
C447 O445 1.258 . S
C448 O450 1.247 . S
C448 O452 1.258 . S
C449 O456 1.247 . S
C449 O457 1.258 . S
O450 C448 1.247 . S
O450 Zn451 2.028 . S
Zn451 O450 2.028 . S
Zn451 O455 2.035 . S
Zn451 O457 2.035 . S
Zn451 O458 2.028 . S
O452 C448 1.258 . S
O452 Zn453 2.035 . S
Zn453 O452 2.035 . S
Zn453 O454 2.028 . S
Zn453 O456 2.028 . S
Zn453 O459 2.035 . S
O454 Zn453 2.028 . S
O454 C460 1.247 . S
O455 Zn451 2.035 . S
O455 C460 1.258 . S
O456 C449 1.247 . S
O456 Zn453 2.028 . S
O457 C449 1.258 . S
O457 Zn451 2.035 . S
O458 Zn451 2.028 . S
O458 C461 1.247 . S
O459 Zn453 2.035 . S
O459 C461 1.258 . S
C460 O454 1.247 . S
C460 O455 1.258 . S
C461 O458 1.247 . S
C461 O459 1.258 . S
C462 O464 1.247 . S
C462 O466 1.258 . S
C463 O470 1.247 . S
C463 O471 1.258 . S
O464 C462 1.247 . S
O464 Zn465 2.028 . S
Zn465 O464 2.028 . S
Zn465 O469 2.035 . S
Zn465 O471 2.035 . S
Zn465 O472 2.028 . S
O466 C462 1.258 . S
O466 Zn467 2.035 . S
Zn467 O466 2.035 . S
Zn467 O468 2.028 . S
Zn467 O470 2.028 . S
Zn467 O473 2.035 . S
O468 Zn467 2.028 . S
O468 C474 1.247 . S
O469 Zn465 2.035 . S
O469 C474 1.258 . S
O470 C463 1.247 . S
O470 Zn467 2.028 . S
O471 C463 1.258 . S
O471 Zn465 2.035 . S
O472 Zn465 2.028 . S
O472 C475 1.247 . S
O473 Zn467 2.035 . S
O473 C475 1.258 . S
C474 O468 1.247 . S
C474 O469 1.258 . S
C475 O472 1.247 . S
C475 O473 1.258 . S
C476 O478 1.247 . S
C476 O480 1.258 . S
C477 O484 1.247 . S
C477 O485 1.258 . S
O478 C476 1.247 . S
O478 Zn479 2.028 . S
Zn479 O478 2.028 . S
Zn479 O483 2.035 . S
Zn479 O485 2.035 . S
Zn479 O486 2.028 . S
O480 C476 1.258 . S
O480 Zn481 2.035 . S
Zn481 O480 2.035 . S
Zn481 O482 2.028 . S
Zn481 O484 2.028 . S
Zn481 O487 2.035 . S
O482 Zn481 2.028 . S
O482 C488 1.247 . S
O483 Zn479 2.035 . S
O483 C488 1.258 . S
O484 C477 1.247 . S
O484 Zn481 2.028 . S
O485 C477 1.258 . S
O485 Zn479 2.035 . S
O486 Zn479 2.028 . S
O486 C489 1.247 . S
O487 Zn481 2.035 . S
O487 C489 1.258 . S
C488 O482 1.247 . S
C488 O483 1.258 . S
C489 O486 1.247 . S
C489 O487 1.258 . S
C490 O492 1.247 . S
C490 O494 1.258 . S
C491 O498 1.247 . S
C491 O499 1.258 . S
O492 C490 1.247 . S
O492 Zn493 2.028 . S
Zn493 O492 2.028 . S
Zn493 O497 2.035 . S
Zn493 O499 2.035 . S
Zn493 O500 2.028 . S
O494 C490 1.258 . S
O494 Zn495 2.035 . S
Zn495 O494 2.035 . S
Zn495 O496 2.028 . S
Zn495 O498 2.028 . S
Zn495 O501 2.035 . S
O496 Zn495 2.028 . S
O496 C502 1.247 . S
O497 Zn493 2.035 . S
O497 C502 1.258 . S
O498 C491 1.247 . S
O498 Zn495 2.028 . S
O499 C491 1.258 . S
O499 Zn493 2.035 . S
O500 Zn493 2.028 . S
O500 C503 1.247 . S
O501 Zn495 2.035 . S
O501 C503 1.258 . S
C502 O496 1.247 . S
C502 O497 1.258 . S
C503 O500 1.247 . S
C503 O501 1.258 . S
C504 O506 1.247 . S
C504 O508 1.258 . S
C505 O512 1.247 . S
C505 O513 1.258 . S
O506 C504 1.247 . S
O506 Zn507 2.028 . S
Zn507 O506 2.028 . S
Zn507 O511 2.035 . S
Zn507 O513 2.035 . S
Zn507 O514 2.028 . S
O508 C504 1.258 . S
O508 Zn509 2.035 . S
Zn509 O508 2.035 . S
Zn509 O510 2.028 . S
Zn509 O512 2.028 . S
Zn509 O515 2.035 . S
O510 Zn509 2.028 . S
O510 C516 1.247 . S
O511 Zn507 2.035 . S
O511 C516 1.258 . S
O512 C505 1.247 . S
O512 Zn509 2.028 . S
O513 C505 1.258 . S
O513 Zn507 2.035 . S
O514 Zn507 2.028 . S
O514 C517 1.247 . S
O515 Zn509 2.035 . S
O515 C517 1.258 . S
C516 O510 1.247 . S
C516 O511 1.258 . S
C517 O514 1.247 . S
C517 O515 1.258 . S
C518 O520 1.247 . S
C518 O522 1.258 . S
C519 O526 1.247 . S
C519 O527 1.258 . S
O520 C518 1.247 . S
O520 Zn521 2.028 . S
Zn521 O520 2.028 . S
Zn521 O525 2.035 . S
Zn521 O527 2.035 . S
Zn521 O528 2.028 . S
O522 C518 1.258 . S
O522 Zn523 2.035 . S
Zn523 O522 2.035 . S
Zn523 O524 2.028 . S
Zn523 O526 2.028 . S
Zn523 O529 2.035 . S
O524 Zn523 2.028 . S
O524 C530 1.247 . S
O525 Zn521 2.035 . S
O525 C530 1.258 . S
O526 C519 1.247 . S
O526 Zn523 2.028 . S
O527 C519 1.258 . S
O527 Zn521 2.035 . S
O528 Zn521 2.028 . S
O528 C531 1.247 . S
O529 Zn523 2.035 . S
O529 C531 1.258 . S
C530 O524 1.247 . S
C530 O525 1.258 . S
C531 O528 1.247 . S
C531 O529 1.258 . S
C532 O534 1.247 . S
C532 O536 1.258 . S
C533 O540 1.247 . S
C533 O541 1.258 . S
O534 C532 1.247 . S
O534 Zn535 2.028 . S
Zn535 O534 2.028 . S
Zn535 O539 2.035 . S
Zn535 O541 2.035 . S
Zn535 O542 2.028 . S
O536 C532 1.258 . S
O536 Zn537 2.035 . S
Zn537 O536 2.035 . S
Zn537 O538 2.028 . S
Zn537 O540 2.028 . S
Zn537 O543 2.035 . S
O538 Zn537 2.028 . S
O538 C544 1.247 . S
O539 Zn535 2.035 . S
O539 C544 1.258 . S
O540 C533 1.247 . S
O540 Zn537 2.028 . S
O541 C533 1.258 . S
O541 Zn535 2.035 . S
O542 Zn535 2.028 . S
O542 C545 1.247 . S
O543 Zn537 2.035 . S
O543 C545 1.258 . S
C544 O538 1.247 . S
C544 O539 1.258 . S
C545 O542 1.247 . S
C545 O543 1.258 . S
C546 O548 1.247 . S
C546 O550 1.258 . S
C547 O554 1.247 . S
C547 O555 1.258 . S
O548 C546 1.247 . S
O548 Zn549 2.028 . S
Zn549 O548 2.028 . S
Zn549 O553 2.035 . S
Zn549 O555 2.035 . S
Zn549 O556 2.028 . S
O550 C546 1.258 . S
O550 Zn551 2.035 . S
Zn551 O550 2.035 . S
Zn551 O552 2.028 . S
Zn551 O554 2.028 . S
Zn551 O557 2.035 . S
O552 Zn551 2.028 . S
O552 C558 1.247 . S
O553 Zn549 2.035 . S
O553 C558 1.258 . S
O554 C547 1.247 . S
O554 Zn551 2.028 . S
O555 C547 1.258 . S
O555 Zn549 2.035 . S
O556 Zn549 2.028 . S
O556 C559 1.247 . S
O557 Zn551 2.035 . S
O557 C559 1.258 . S
C558 O552 1.247 . S
C558 O553 1.258 . S
C559 O556 1.247 . S
C559 O557 1.258 . S
C560 O562 1.247 . S
C560 O564 1.258 . S
C561 O568 1.247 . S
C561 O569 1.258 . S
O562 C560 1.247 . S
O562 Zn563 2.028 . S
Zn563 O562 2.028 . S
Zn563 O567 2.035 . S
Zn563 O569 2.035 . S
Zn563 O570 2.028 . S
O564 C560 1.258 . S
O564 Zn565 2.035 . S
Zn565 O564 2.035 . S
Zn565 O566 2.028 . S
Zn565 O568 2.028 . S
Zn565 O571 2.035 . S
O566 Zn565 2.028 . S
O566 C572 1.247 . S
O567 Zn563 2.035 . S
O567 C572 1.258 . S
O568 C561 1.247 . S
O568 Zn565 2.028 . S
O569 C561 1.258 . S
O569 Zn563 2.035 . S
O570 Zn563 2.028 . S
O570 C573 1.247 . S
O571 Zn565 2.035 . S
O571 C573 1.258 . S
C572 O566 1.247 . S
C572 O567 1.258 . S
C573 O570 1.247 . S
C573 O571 1.258 . S
C574 O576 1.247 . S
C574 O578 1.258 . S
C575 O582 1.247 . S
C575 O583 1.258 . S
O576 C574 1.247 . S
O576 Zn577 2.028 . S
Zn577 O576 2.028 . S
Zn577 O581 2.035 . S
Zn577 O583 2.035 . S
Zn577 O584 2.028 . S
O578 C574 1.258 . S
O578 Zn579 2.035 . S
Zn579 O578 2.035 . S
Zn579 O580 2.028 . S
Zn579 O582 2.028 . S
Zn579 O585 2.035 . S
O580 Zn579 2.028 . S
O580 C586 1.247 . S
O581 Zn577 2.035 . S
O581 C586 1.258 . S
O582 C575 1.247 . S
O582 Zn579 2.028 . S
O583 C575 1.258 . S
O583 Zn577 2.035 . S
O584 Zn577 2.028 . S
O584 C587 1.247 . S
O585 Zn579 2.035 . S
O585 C587 1.258 . S
C586 O580 1.247 . S
C586 O581 1.258 . S
C587 O584 1.247 . S
C587 O585 1.258 . S
C588 O590 1.247 . S
C588 O592 1.258 . S
C589 O596 1.247 . S
C589 O597 1.258 . S
O590 C588 1.247 . S
O590 Zn591 2.028 . S
Zn591 O590 2.028 . S
Zn591 O595 2.035 . S
Zn591 O597 2.035 1_565 S
Zn591 O598 2.028 1_565 S
O592 C588 1.258 . S
O592 Zn593 2.035 1_565 S
Zn593 O592 2.035 1_545 S
Zn593 O594 2.028 1_545 S
Zn593 O596 2.028 . S
Zn593 O599 2.035 . S
O594 Zn593 2.028 1_565 S
O594 C600 1.247 . S
O595 Zn591 2.035 . S
O595 C600 1.258 . S
O596 C589 1.247 . S
O596 Zn593 2.028 . S
O597 C589 1.258 . S
O597 Zn591 2.035 1_545 S
O598 Zn591 2.028 1_545 S
O598 C601 1.247 . S
O599 Zn593 2.035 . S
O599 C601 1.258 . S
C600 O594 1.247 . S
C600 O595 1.258 . S
C601 O598 1.247 . S
C601 O599 1.258 . S
C602 O604 1.247 . S
C602 O606 1.258 . S
C603 O610 1.247 . S
C603 O611 1.258 . S
O604 C602 1.247 . S
O604 Zn605 2.028 . S
Zn605 O604 2.028 . S
Zn605 O609 2.035 . S
Zn605 O611 2.035 . S
Zn605 O612 2.028 . S
O606 C602 1.258 . S
O606 Zn607 2.035 . S
Zn607 O606 2.035 . S
Zn607 O608 2.028 . S
Zn607 O610 2.028 . S
Zn607 O613 2.035 . S
O608 Zn607 2.028 . S
O608 C614 1.247 . S
O609 Zn605 2.035 . S
O609 C614 1.258 . S
O610 C603 1.247 . S
O610 Zn607 2.028 . S
O611 C603 1.258 . S
O611 Zn605 2.035 . S
O612 Zn605 2.028 . S
O612 C615 1.247 . S
O613 Zn607 2.035 . S
O613 C615 1.258 . S
C614 O608 1.247 . S
C614 O609 1.258 . S
C615 O612 1.247 . S
C615 O613 1.258 . S
C616 O618 1.247 . S
C616 O620 1.258 . S
C617 O624 1.247 . S
C617 O625 1.258 . S
O618 C616 1.247 . S
O618 Zn619 2.028 . S
Zn619 O618 2.028 . S
Zn619 O623 2.035 . S
Zn619 O625 2.035 1_545 S
Zn619 O626 2.028 1_545 S
O620 C616 1.258 . S
O620 Zn621 2.035 1_545 S
Zn621 O620 2.035 1_565 S
Zn621 O622 2.028 1_565 S
Zn621 O624 2.028 . S
Zn621 O627 2.035 . S
O622 Zn621 2.028 1_545 S
O622 C628 1.247 . S
O623 Zn619 2.035 . S
O623 C628 1.258 . S
O624 C617 1.247 . S
O624 Zn621 2.028 . S
O625 C617 1.258 . S
O625 Zn619 2.035 1_565 S
O626 Zn619 2.028 1_565 S
O626 C629 1.247 . S
O627 Zn621 2.035 . S
O627 C629 1.258 . S
C628 O622 1.247 . S
C628 O623 1.258 . S
C629 O626 1.247 . S
C629 O627 1.258 . S
C630 O632 1.247 . S
C630 O634 1.258 . S
C631 O638 1.247 . S
C631 O639 1.258 . S
O632 C630 1.247 . S
O632 Zn633 2.028 . S
Zn633 O632 2.028 . S
Zn633 O637 2.035 . S
Zn633 O639 2.035 . S
Zn633 O640 2.028 . S
O634 C630 1.258 . S
O634 Zn635 2.035 . S
Zn635 O634 2.035 . S
Zn635 O636 2.028 . S
Zn635 O638 2.028 . S
Zn635 O641 2.035 . S
O636 Zn635 2.028 . S
O636 C642 1.247 . S
O637 Zn633 2.035 . S
O637 C642 1.258 . S
O638 C631 1.247 . S
O638 Zn635 2.028 . S
O639 C631 1.258 . S
O639 Zn633 2.035 . S
O640 Zn633 2.028 . S
O640 C643 1.247 . S
O641 Zn635 2.035 . S
O641 C643 1.258 . S
C642 O636 1.247 . S
C642 O637 1.258 . S
C643 O640 1.247 . S
C643 O641 1.258 . S
C644 O646 1.247 . S
C644 O648 1.258 . S
C645 O652 1.247 . S
C645 O653 1.258 . S
O646 C644 1.247 . S
O646 Zn647 2.028 . S
Zn647 O646 2.028 . S
Zn647 O651 2.035 . S
Zn647 O653 2.035 1_565 S
Zn647 O654 2.028 1_565 S
O648 C644 1.258 . S
O648 Zn649 2.035 1_565 S
Zn649 O648 2.035 1_545 S
Zn649 O650 2.028 1_545 S
Zn649 O652 2.028 . S
Zn649 O655 2.035 . S
O650 Zn649 2.028 1_565 S
O650 C656 1.247 . S
O651 Zn647 2.035 . S
O651 C656 1.258 . S
O652 C645 1.247 . S
O652 Zn649 2.028 . S
O653 C645 1.258 . S
O653 Zn647 2.035 1_545 S
O654 Zn647 2.028 1_545 S
O654 C657 1.247 . S
O655 Zn649 2.035 . S
O655 C657 1.258 . S
C656 O650 1.247 . S
C656 O651 1.258 . S
C657 O654 1.247 . S
C657 O655 1.258 . S
C658 O660 1.247 . S
C658 O662 1.258 . S
C659 O666 1.247 . S
C659 O667 1.258 . S
O660 C658 1.247 . S
O660 Zn661 2.028 . S
Zn661 O660 2.028 . S
Zn661 O665 2.035 . S
Zn661 O667 2.035 . S
Zn661 O668 2.028 . S
O662 C658 1.258 . S
O662 Zn663 2.035 . S
Zn663 O662 2.035 . S
Zn663 O664 2.028 . S
Zn663 O666 2.028 . S
Zn663 O669 2.035 . S
O664 Zn663 2.028 . S
O664 C670 1.247 . S
O665 Zn661 2.035 . S
O665 C670 1.258 . S
O666 C659 1.247 . S
O666 Zn663 2.028 . S
O667 C659 1.258 . S
O667 Zn661 2.035 . S
O668 Zn661 2.028 . S
O668 C671 1.247 . S
O669 Zn663 2.035 . S
O669 C671 1.258 . S
C670 O664 1.247 . S
C670 O665 1.258 . S
C671 O668 1.247 . S
C671 O669 1.258 . S
H672 C680 0.950 . S
H673 C685 0.950 . S
H674 C682 0.950 . S
H675 C684 0.950 . S
H676 C686 0.950 . S
H677 C688 0.950 . S
H678 C690 0.950 . S
H679 C691 0.950 . S
C680 H672 0.950 . S
C680 C681 1.386 . S
C680 C682 1.391 . S
C681 C680 1.386 . S
C681 C685 1.393 . S
C682 H674 0.950 . S
C682 C680 1.391 . S
C682 C683 1.400 . S
C683 C682 1.400 . S
C683 C684 1.398 . S
C683 C689 1.491 . S
C684 H675 0.950 . S
C684 C683 1.398 . S
C684 C685 1.391 . S
C685 H673 0.950 . S
C685 C681 1.393 . S
C685 C684 1.391 . S
C686 H676 0.950 . S
C686 C687 1.386 . S
C686 C688 1.391 . S
C687 C686 1.386 . S
C687 C691 1.393 . S
C688 H677 0.950 . S
C688 C686 1.391 . S
C688 C689 1.400 . S
C689 C683 1.491 . S
C689 C688 1.400 . S
C689 C690 1.398 . S
C690 H678 0.950 . S
C690 C689 1.398 . S
C690 C691 1.391 . S
C691 H679 0.950 . S
C691 C687 1.393 . S
C691 C690 1.391 . S
H692 C700 0.950 . S
H693 C705 0.950 . S
H694 C702 0.947 1_556 S
H695 C704 0.950 . S
H696 C706 0.950 . S
H697 C708 0.950 . S
H698 C710 0.950 . S
H699 C711 0.950 . S
C700 H692 0.950 . S
C700 C701 1.386 . S
C700 C702 1.391 . S
C701 C700 1.386 . S
C701 C705 1.393 . S
C702 H694 0.947 1_554 S
C702 C700 1.391 . S
C702 C703 1.400 . S
C703 C702 1.400 . S
C703 C704 1.398 . S
C703 C709 1.491 1_554 S
C704 H695 0.950 . S
C704 C703 1.398 . S
C704 C705 1.391 . S
C705 H693 0.950 . S
C705 C701 1.393 . S
C705 C704 1.391 . S
C706 H696 0.950 . S
C706 C707 1.386 . S
C706 C708 1.391 . S
C707 C706 1.386 . S
C707 C711 1.393 . S
C708 H697 0.950 . S
C708 C706 1.391 . S
C708 C709 1.400 . S
C709 C703 1.491 1_556 S
C709 C708 1.400 . S
C709 C710 1.398 . S
C710 H698 0.950 . S
C710 C709 1.398 . S
C710 C711 1.391 . S
C711 H699 0.950 . S
C711 C707 1.393 . S
C711 C710 1.391 . S
H712 C720 0.950 . S
H713 C725 0.950 . S
H714 C722 0.950 . S
H715 C724 0.950 . S
H716 C726 0.950 . S
H717 C728 0.950 . S
H718 C730 0.950 . S
H719 C731 0.950 . S
C720 H712 0.950 . S
C720 C721 1.386 . S
C720 C722 1.391 . S
C721 C720 1.386 . S
C721 C725 1.393 . S
C722 H714 0.950 . S
C722 C720 1.391 . S
C722 C723 1.400 . S
C723 C722 1.400 . S
C723 C724 1.398 . S
C723 C729 1.491 . S
C724 H715 0.950 . S
C724 C723 1.398 . S
C724 C725 1.391 . S
C725 H713 0.950 . S
C725 C721 1.393 . S
C725 C724 1.391 . S
C726 H716 0.950 . S
C726 C727 1.386 . S
C726 C728 1.391 . S
C727 C726 1.386 . S
C727 C731 1.393 . S
C728 H717 0.950 . S
C728 C726 1.391 . S
C728 C729 1.400 . S
C729 C723 1.491 . S
C729 C728 1.400 . S
C729 C730 1.398 . S
C730 H718 0.950 . S
C730 C729 1.398 . S
C730 C731 1.391 . S
C731 H719 0.950 . S
C731 C727 1.393 . S
C731 C730 1.391 . S
H732 C740 0.950 . S
H733 C745 0.950 . S
H734 C742 0.950 . S
H735 C744 0.950 . S
H736 C746 0.950 . S
H737 C748 0.950 . S
H738 C750 0.950 . S
H739 C751 0.950 . S
C740 H732 0.950 . S
C740 C741 1.386 . S
C740 C742 1.391 . S
C741 C740 1.386 . S
C741 C745 1.393 . S
C742 H734 0.950 . S
C742 C740 1.391 . S
C742 C743 1.400 . S
C743 C742 1.400 . S
C743 C744 1.398 . S
C743 C749 1.491 1_556 S
C744 H735 0.950 . S
C744 C743 1.398 . S
C744 C745 1.391 . S
C745 H733 0.950 . S
C745 C741 1.393 . S
C745 C744 1.391 . S
C746 H736 0.950 . S
C746 C747 1.386 . S
C746 C748 1.391 . S
C747 C746 1.386 . S
C747 C751 1.393 . S
C748 H737 0.950 . S
C748 C746 1.391 . S
C748 C749 1.400 . S
C749 C743 1.491 1_554 S
C749 C748 1.400 . S
C749 C750 1.398 . S
C750 H738 0.950 . S
C750 C749 1.398 . S
C750 C751 1.391 . S
C751 H739 0.950 . S
C751 C747 1.393 . S
C751 C750 1.391 . S
H752 C760 0.950 . S
H753 C765 0.950 . S
H754 C762 0.950 . S
H755 C764 0.950 . S
H756 C766 0.950 . S
H757 C768 0.950 . S
H758 C770 0.950 . S
H759 C771 0.950 . S
C760 H752 0.950 . S
C760 C761 1.386 . S
C760 C762 1.391 . S
C761 C760 1.386 . S
C761 C765 1.393 . S
C762 H754 0.950 . S
C762 C760 1.391 . S
C762 C763 1.400 . S
C763 C762 1.400 . S
C763 C764 1.398 . S
C763 C769 1.491 . S
C764 H755 0.950 . S
C764 C763 1.398 . S
C764 C765 1.391 . S
C765 H753 0.950 . S
C765 C761 1.393 . S
C765 C764 1.391 . S
C766 H756 0.950 . S
C766 C767 1.386 . S
C766 C768 1.391 . S
C767 C766 1.386 . S
C767 C771 1.393 . S
C768 H757 0.950 . S
C768 C766 1.391 . S
C768 C769 1.400 . S
C769 C763 1.491 . S
C769 C768 1.400 . S
C769 C770 1.398 . S
C770 H758 0.950 . S
C770 C769 1.398 . S
C770 C771 1.391 . S
C771 H759 0.950 . S
C771 C767 1.393 . S
C771 C770 1.391 . S
H772 C780 0.950 . S
H773 C785 0.950 . S
H774 C782 0.950 . S
H775 C784 0.950 . S
H776 C786 0.950 . S
H777 C788 0.950 . S
H778 C790 0.950 . S
H779 C791 0.950 . S
C780 H772 0.950 . S
C780 C781 1.386 . S
C780 C782 1.391 . S
C781 C780 1.386 . S
C781 C785 1.393 . S
C782 H774 0.950 . S
C782 C780 1.391 . S
C782 C783 1.400 . S
C783 C782 1.400 . S
C783 C784 1.398 . S
C783 C789 1.491 1_554 S
C784 H775 0.950 . S
C784 C783 1.398 . S
C784 C785 1.391 . S
C785 H773 0.950 . S
C785 C781 1.393 . S
C785 C784 1.391 . S
C786 H776 0.950 . S
C786 C787 1.386 . S
C786 C788 1.391 . S
C787 C786 1.386 . S
C787 C791 1.393 . S
C788 H777 0.950 . S
C788 C786 1.391 . S
C788 C789 1.400 . S
C789 C783 1.491 1_556 S
C789 C788 1.400 . S
C789 C790 1.398 . S
C790 H778 0.950 . S
C790 C789 1.398 . S
C790 C791 1.391 . S
C791 H779 0.950 . S
C791 C787 1.393 . S
C791 C790 1.391 . S
H792 C800 0.950 . S
H793 C805 0.950 . S
H794 C802 0.950 . S
H795 C804 0.950 . S
H796 C806 0.950 . S
H797 C808 0.950 . S
H798 C810 0.950 . S
H799 C811 0.950 . S
C800 H792 0.950 . S
C800 C801 1.386 . S
C800 C802 1.391 . S
C801 C800 1.386 . S
C801 C805 1.393 . S
C802 H794 0.950 . S
C802 C800 1.391 . S
C802 C803 1.400 . S
C803 C802 1.400 . S
C803 C804 1.398 . S
C803 C809 1.491 . S
C804 H795 0.950 . S
C804 C803 1.398 . S
C804 C805 1.391 . S
C805 H793 0.950 . S
C805 C801 1.393 . S
C805 C804 1.391 . S
C806 H796 0.950 . S
C806 C807 1.386 . S
C806 C808 1.391 . S
C807 C806 1.386 . S
C807 C811 1.393 . S
C808 H797 0.950 . S
C808 C806 1.391 . S
C808 C809 1.400 . S
C809 C803 1.491 . S
C809 C808 1.400 . S
C809 C810 1.398 . S
C810 H798 0.950 . S
C810 C809 1.398 . S
C810 C811 1.391 . S
C811 H799 0.950 . S
C811 C807 1.393 . S
C811 C810 1.391 . S
H812 C820 0.950 . S
H813 C825 0.950 . S
H814 C822 0.950 . S
H815 C824 0.992 . S
H816 C826 0.950 . S
H817 C828 0.950 . S
H818 C830 0.950 . S
H819 C831 0.950 . S
C820 H812 0.950 . S
C820 C821 1.386 . S
C820 C822 1.391 . S
C821 C820 1.386 . S
C821 C825 1.393 . S
C822 H814 0.950 . S
C822 C820 1.391 . S
C822 C823 1.400 . S
C823 C822 1.400 . S
C823 C824 1.398 . S
C823 C829 1.491 1_556 S
C824 H815 0.992 . S
C824 C823 1.398 . S
C824 C825 1.391 . S
C825 H813 0.950 . S
C825 C821 1.393 . S
C825 C824 1.391 . S
C826 H816 0.950 . S
C826 C827 1.386 . S
C826 C828 1.391 . S
C827 C826 1.386 . S
C827 C831 1.393 . S
C828 H817 0.950 . S
C828 C826 1.391 . S
C828 C829 1.400 . S
C829 C823 1.491 1_554 S
C829 C828 1.400 . S
C829 C830 1.398 . S
C830 H818 0.950 . S
C830 C829 1.398 . S
C830 C831 1.391 . S
C831 H819 0.950 . S
C831 C827 1.393 . S
C831 C830 1.391 . S
H832 C840 0.950 . S
H833 C845 0.950 . S
H834 C842 0.950 . S
H835 C844 0.950 . S
H836 C846 0.950 . S
H837 C848 0.950 . S
H838 C850 0.950 . S
H839 C851 0.950 . S
C840 H832 0.950 . S
C840 C841 1.386 . S
C840 C842 1.391 . S
C841 C840 1.386 . S
C841 C845 1.393 . S
C842 H834 0.950 . S
C842 C840 1.391 . S
C842 C843 1.400 . S
C843 C842 1.400 . S
C843 C844 1.398 . S
C843 C849 1.491 . S
C844 H835 0.950 . S
C844 C843 1.398 . S
C844 C845 1.391 . S
C845 H833 0.950 . S
C845 C841 1.393 . S
C845 C844 1.391 . S
C846 H836 0.950 . S
C846 C847 1.386 . S
C846 C848 1.391 . S
C847 C846 1.386 . S
C847 C851 1.393 . S
C848 H837 0.950 . S
C848 C846 1.391 . S
C848 C849 1.400 . S
C849 C843 1.491 . S
C849 C848 1.400 . S
C849 C850 1.398 . S
C850 H838 0.950 . S
C850 C849 1.398 . S
C850 C851 1.391 . S
C851 H839 0.950 . S
C851 C847 1.393 . S
C851 C850 1.391 . S
H852 C860 0.950 . S
H853 C865 0.950 . S
H854 C862 0.950 . S
H855 C864 0.950 . S
H856 C866 0.950 . S
H857 C868 0.950 . S
H858 C870 0.950 . S
H859 C871 0.950 . S
C860 H852 0.950 . S
C860 C861 1.386 . S
C860 C862 1.391 . S
C861 C860 1.386 . S
C861 C865 1.393 . S
C862 H854 0.950 . S
C862 C860 1.391 . S
C862 C863 1.400 . S
C863 C862 1.400 . S
C863 C864 1.398 . S
C863 C869 1.491 . S
C864 H855 0.950 . S
C864 C863 1.398 . S
C864 C865 1.391 . S
C865 H853 0.950 . S
C865 C861 1.393 . S
C865 C864 1.391 . S
C866 H856 0.950 . S
C866 C867 1.386 . S
C866 C868 1.391 . S
C867 C866 1.386 . S
C867 C871 1.393 . S
C868 H857 0.950 . S
C868 C866 1.391 . S
C868 C869 1.400 . S
C869 C863 1.491 . S
C869 C868 1.400 . S
C869 C870 1.398 . S
C870 H858 0.950 . S
C870 C869 1.398 . S
C870 C871 1.391 . S
C871 H859 0.950 . S
C871 C867 1.393 . S
C871 C870 1.391 . S
H872 C880 0.950 . S
H873 C885 0.950 . S
H874 C882 0.950 . S
H875 C884 0.950 . S
H876 C886 0.950 . S
H877 C888 0.950 . S
H878 C890 0.950 . S
H879 C891 0.950 . S
C880 H872 0.950 . S
C880 C881 1.386 . S
C880 C882 1.391 . S
C881 C880 1.386 . S
C881 C885 1.393 . S
C882 H874 0.950 . S
C882 C880 1.391 . S
C882 C883 1.400 . S
C883 C882 1.400 . S
C883 C884 1.398 . S
C883 C889 1.491 . S
C884 H875 0.950 . S
C884 C883 1.398 . S
C884 C885 1.391 . S
C885 H873 0.950 . S
C885 C881 1.393 . S
C885 C884 1.391 . S
C886 H876 0.950 . S
C886 C887 1.386 . S
C886 C888 1.391 . S
C887 C886 1.386 . S
C887 C891 1.393 . S
C888 H877 0.950 . S
C888 C886 1.391 . S
C888 C889 1.400 . S
C889 C883 1.491 . S
C889 C888 1.400 . S
C889 C890 1.398 . S
C890 H878 0.950 . S
C890 C889 1.398 . S
C890 C891 1.391 . S
C891 H879 0.950 . S
C891 C887 1.393 . S
C891 C890 1.391 . S
H892 C900 0.950 . S
H893 C905 0.950 . S
H894 C902 0.950 1_545 S
H895 C904 0.950 . S
H896 C906 0.950 . S
H897 C908 0.950 . S
H898 C910 0.950 . S
H899 C911 0.950 . S
C900 H892 0.950 . S
C900 C901 1.386 . S
C900 C902 1.391 . S
C901 C900 1.386 . S
C901 C905 1.393 . S
C902 H894 0.950 1_565 S
C902 C900 1.391 . S
C902 C903 1.400 . S
C903 C902 1.400 . S
C903 C904 1.398 . S
C903 C909 1.491 1_565 S
C904 H895 0.950 . S
C904 C903 1.398 . S
C904 C905 1.391 . S
C905 H893 0.950 . S
C905 C901 1.393 . S
C905 C904 1.391 . S
C906 H896 0.950 . S
C906 C907 1.386 . S
C906 C908 1.391 . S
C907 C906 1.386 . S
C907 C911 1.393 . S
C908 H897 0.950 . S
C908 C906 1.391 . S
C908 C909 1.400 . S
C909 C903 1.491 1_545 S
C909 C908 1.400 . S
C909 C910 1.398 . S
C910 H898 0.950 . S
C910 C909 1.398 . S
C910 C911 1.391 . S
C911 H899 0.950 . S
C911 C907 1.393 . S
C911 C910 1.391 . S
H912 C920 0.950 . S
H913 C925 0.950 . S
H914 C922 0.950 . S
H915 C924 0.950 . S
H916 C926 0.950 . S
H917 C928 0.950 . S
H918 C930 0.950 . S
H919 C931 0.950 . S
C920 H912 0.950 . S
C920 C921 1.386 . S
C920 C922 1.391 . S
C921 C920 1.386 . S
C921 C925 1.393 . S
C922 H914 0.950 . S
C922 C920 1.391 . S
C922 C923 1.400 . S
C923 C922 1.400 . S
C923 C924 1.398 . S
C923 C929 1.491 . S
C924 H915 0.950 . S
C924 C923 1.398 . S
C924 C925 1.391 . S
C925 H913 0.950 . S
C925 C921 1.393 . S
C925 C924 1.391 . S
C926 H916 0.950 . S
C926 C927 1.386 . S
C926 C928 1.391 . S
C927 C926 1.386 . S
C927 C931 1.393 . S
C928 H917 0.950 . S
C928 C926 1.391 . S
C928 C929 1.400 . S
C929 C923 1.491 . S
C929 C928 1.400 . S
C929 C930 1.398 . S
C930 H918 0.950 . S
C930 C929 1.398 . S
C930 C931 1.391 . S
C931 H919 0.950 . S
C931 C927 1.393 . S
C931 C930 1.391 . S
H932 C940 0.950 . S
H933 C945 0.950 . S
H934 C942 0.950 . S
H935 C944 0.950 . S
H936 C946 0.950 . S
H937 C948 0.950 . S
H938 C950 0.950 . S
H939 C951 0.950 . S
C940 H932 0.950 . S
C940 C941 1.386 . S
C940 C942 1.391 . S
C941 C940 1.386 . S
C941 C945 1.393 . S
C942 H934 0.950 . S
C942 C940 1.391 . S
C942 C943 1.400 . S
C943 C942 1.400 . S
C943 C944 1.398 . S
C943 C949 1.491 . S
C944 H935 0.950 . S
C944 C943 1.398 . S
C944 C945 1.391 . S
C945 H933 0.950 . S
C945 C941 1.393 . S
C945 C944 1.391 . S
C946 H936 0.950 . S
C946 C947 1.386 . S
C946 C948 1.391 . S
C947 C946 1.386 . S
C947 C951 1.393 . S
C948 H937 0.950 . S
C948 C946 1.391 . S
C948 C949 1.400 . S
C949 C943 1.491 . S
C949 C948 1.400 . S
C949 C950 1.398 . S
C950 H938 0.950 . S
C950 C949 1.398 . S
C950 C951 1.391 . S
C951 H939 0.950 . S
C951 C947 1.393 . S
C951 C950 1.391 . S
H952 C960 0.950 . S
H953 C965 0.950 . S
H954 C962 0.950 . S
H955 C964 0.950 . S
H956 C966 0.950 . S
H957 C968 0.950 . S
H958 C970 0.950 . S
H959 C971 0.950 . S
C960 H952 0.950 . S
C960 C961 1.386 . S
C960 C962 1.391 . S
C961 C960 1.386 . S
C961 C965 1.393 . S
C962 H954 0.950 . S
C962 C960 1.391 . S
C962 C963 1.400 . S
C963 C962 1.400 . S
C963 C964 1.398 . S
C963 C969 1.491 . S
C964 H955 0.950 . S
C964 C963 1.398 . S
C964 C965 1.391 . S
C965 H953 0.950 . S
C965 C961 1.393 . S
C965 C964 1.391 . S
C966 H956 0.950 . S
C966 C967 1.386 . S
C966 C968 1.391 . S
C967 C966 1.386 . S
C967 C971 1.393 . S
C968 H957 0.950 . S
C968 C966 1.391 . S
C968 C969 1.400 . S
C969 C963 1.491 . S
C969 C968 1.400 . S
C969 C970 1.398 . S
C970 H958 0.950 . S
C970 C969 1.398 . S
C970 C971 1.391 . S
C971 H959 0.950 . S
C971 C967 1.393 . S
C971 C970 1.391 . S
H972 C980 0.950 . S
H973 C985 0.950 . S
H974 C982 0.950 . S
H975 C984 0.950 . S
H976 C986 0.950 . S
H977 C988 0.950 . S
H978 C990 0.931 1_545 S
H979 C991 0.950 . S
C980 H972 0.950 . S
C980 C981 1.386 . S
C980 C982 1.391 . S
C981 C980 1.386 . S
C981 C985 1.393 . S
C982 H974 0.950 . S
C982 C980 1.391 . S
C982 C983 1.400 . S
C983 C982 1.400 . S
C983 C984 1.398 . S
C983 C989 1.491 1_545 S
C984 H975 0.950 . S
C984 C983 1.398 . S
C984 C985 1.391 . S
C985 H973 0.950 . S
C985 C981 1.393 . S
C985 C984 1.391 . S
C986 H976 0.950 . S
C986 C987 1.386 . S
C986 C988 1.391 . S
C987 C986 1.386 . S
C987 C991 1.393 . S
C988 H977 0.950 . S
C988 C986 1.391 . S
C988 C989 1.400 . S
C989 C983 1.491 1_565 S
C989 C988 1.400 . S
C989 C990 1.398 . S
C990 H978 0.931 1_565 S
C990 C989 1.398 . S
C990 C991 1.391 . S
C991 H979 0.950 . S
C991 C987 1.393 . S
C991 C990 1.391 . S
H992 C1000 0.950 . S
H993 C1005 0.950 . S
H994 C1002 0.950 . S
H995 C1004 0.950 . S
H996 C1006 0.950 . S
H997 C1008 0.950 . S
H998 C1010 0.950 . S
H999 C1011 0.950 . S
C1000 H992 0.950 . S
C1000 C1001 1.386 . S
C1000 C1002 1.391 . S
C1001 C1000 1.386 . S
C1001 C1005 1.393 . S
C1002 H994 0.950 . S
C1002 C1000 1.391 . S
C1002 C1003 1.400 . S
C1003 C1002 1.400 . S
C1003 C1004 1.398 . S
C1003 C1009 1.491 . S
C1004 H995 0.950 . S
C1004 C1003 1.398 . S
C1004 C1005 1.391 . S
C1005 H993 0.950 . S
C1005 C1001 1.393 . S
C1005 C1004 1.391 . S
C1006 H996 0.950 . S
C1006 C1007 1.386 . S
C1006 C1008 1.391 . S
C1007 C1006 1.386 . S
C1007 C1011 1.393 . S
C1008 H997 0.950 . S
C1008 C1006 1.391 . S
C1008 C1009 1.400 . S
C1009 C1003 1.491 . S
C1009 C1008 1.400 . S
C1009 C1010 1.398 . S
C1010 H998 0.950 . S
C1010 C1009 1.398 . S
C1010 C1011 1.391 . S
C1011 H999 0.950 . S
C1011 C1007 1.393 . S
C1011 C1010 1.391 . S
H1012 C1020 0.950 . S
H1013 C1025 0.950 . S
H1014 C1022 0.950 . S
H1015 C1024 0.950 . S
H1016 C1026 0.950 . S
H1017 C1028 0.950 . S
H1018 C1030 0.950 . S
H1019 C1031 0.950 . S
C1020 H1012 0.950 . S
C1020 C1021 1.386 . S
C1020 C1022 1.391 . S
C1021 C1020 1.386 . S
C1021 C1025 1.393 . S
C1022 H1014 0.950 . S
C1022 C1020 1.391 . S
C1022 C1023 1.400 . S
C1023 C1022 1.400 . S
C1023 C1024 1.398 . S
C1023 C1029 1.491 . S
C1024 H1015 0.950 . S
C1024 C1023 1.398 . S
C1024 C1025 1.391 . S
C1025 H1013 0.950 . S
C1025 C1021 1.393 . S
C1025 C1024 1.391 . S
C1026 H1016 0.950 . S
C1026 C1027 1.386 . S
C1026 C1028 1.391 . S
C1027 C1026 1.386 . S
C1027 C1031 1.393 . S
C1028 H1017 0.950 . S
C1028 C1026 1.391 . S
C1028 C1029 1.400 . S
C1029 C1023 1.491 . S
C1029 C1028 1.400 . S
C1029 C1030 1.398 . S
C1030 H1018 0.950 . S
C1030 C1029 1.398 . S
C1030 C1031 1.391 . S
C1031 H1019 0.950 . S
C1031 C1027 1.393 . S
C1031 C1030 1.391 . S
H1032 C1040 0.950 . S
H1033 C1045 0.950 . S
H1034 C1042 0.950 . S
H1035 C1044 0.950 . S
H1036 C1046 0.950 . S
H1037 C1048 0.950 . S
H1038 C1050 0.950 . S
H1039 C1051 0.950 . S
C1040 H1032 0.950 . S
C1040 C1041 1.386 . S
C1040 C1042 1.391 . S
C1041 C1040 1.386 . S
C1041 C1045 1.393 . S
C1042 H1034 0.950 . S
C1042 C1040 1.391 . S
C1042 C1043 1.400 . S
C1043 C1042 1.400 . S
C1043 C1044 1.398 . S
C1043 C1049 1.491 1_655 S
C1044 H1035 0.950 . S
C1044 C1043 1.398 . S
C1044 C1045 1.391 . S
C1045 H1033 0.950 . S
C1045 C1041 1.393 . S
C1045 C1044 1.391 . S
C1046 H1036 0.950 . S
C1046 C1047 1.386 . S
C1046 C1048 1.391 . S
C1047 C1046 1.386 . S
C1047 C1051 1.393 . S
C1048 H1037 0.950 . S
C1048 C1046 1.391 . S
C1048 C1049 1.400 . S
C1049 C1043 1.491 1_455 S
C1049 C1048 1.400 . S
C1049 C1050 1.398 . S
C1050 H1038 0.950 . S
C1050 C1049 1.398 . S
C1050 C1051 1.391 . S
C1051 H1039 0.950 . S
C1051 C1047 1.393 . S
C1051 C1050 1.391 . S
H1052 C1060 0.950 . S
H1053 C1065 0.950 . S
H1054 C1062 0.950 . S
H1055 C1064 0.950 . S
H1056 C1066 0.950 . S
H1057 C1068 0.950 . S
H1058 C1070 0.950 . S
H1059 C1071 0.950 . S
C1060 H1052 0.950 . S
C1060 C1061 1.386 . S
C1060 C1062 1.391 . S
C1061 C1060 1.386 . S
C1061 C1065 1.393 . S
C1062 H1054 0.950 . S
C1062 C1060 1.391 . S
C1062 C1063 1.400 . S
C1063 C1062 1.400 . S
C1063 C1064 1.398 . S
C1063 C1069 1.491 . S
C1064 H1055 0.950 . S
C1064 C1063 1.398 . S
C1064 C1065 1.391 . S
C1065 H1053 0.950 . S
C1065 C1061 1.393 . S
C1065 C1064 1.391 . S
C1066 H1056 0.950 . S
C1066 C1067 1.386 . S
C1066 C1068 1.391 . S
C1067 C1066 1.386 . S
C1067 C1071 1.393 . S
C1068 H1057 0.950 . S
C1068 C1066 1.391 . S
C1068 C1069 1.400 . S
C1069 C1063 1.491 . S
C1069 C1068 1.400 . S
C1069 C1070 1.398 . S
C1070 H1058 0.950 . S
C1070 C1069 1.398 . S
C1070 C1071 1.391 . S
C1071 H1059 0.950 . S
C1071 C1067 1.393 . S
C1071 C1070 1.391 . S
H1072 C1080 0.950 . S
H1073 C1085 0.950 . S
H1074 C1082 0.950 . S
H1075 C1084 0.950 . S
H1076 C1086 0.950 . S
H1077 C1088 0.950 . S
H1078 C1090 0.950 . S
H1079 C1091 0.950 . S
C1080 H1072 0.950 . S
C1080 C1081 1.386 . S
C1080 C1082 1.391 . S
C1081 C1080 1.386 . S
C1081 C1085 1.393 . S
C1082 H1074 0.950 . S
C1082 C1080 1.391 . S
C1082 C1083 1.400 . S
C1083 C1082 1.400 . S
C1083 C1084 1.398 . S
C1083 C1089 1.491 . S
C1084 H1075 0.950 . S
C1084 C1083 1.398 . S
C1084 C1085 1.391 . S
C1085 H1073 0.950 . S
C1085 C1081 1.393 . S
C1085 C1084 1.391 . S
C1086 H1076 0.950 . S
C1086 C1087 1.386 . S
C1086 C1088 1.391 . S
C1087 C1086 1.386 . S
C1087 C1091 1.393 . S
C1088 H1077 0.950 . S
C1088 C1086 1.391 . S
C1088 C1089 1.400 . S
C1089 C1083 1.491 . S
C1089 C1088 1.400 . S
C1089 C1090 1.398 . S
C1090 H1078 0.950 . S
C1090 C1089 1.398 . S
C1090 C1091 1.391 . S
C1091 H1079 0.950 . S
C1091 C1087 1.393 . S
C1091 C1090 1.391 . S
H1092 C1100 0.950 . S
H1093 C1105 0.950 . S
H1094 C1102 0.950 . S
H1095 C1104 0.950 . S
H1096 C1106 0.950 . S
H1097 C1108 0.950 . S
H1098 C1110 0.950 . S
H1099 C1111 0.950 . S
C1100 H1092 0.950 . S
C1100 C1101 1.386 . S
C1100 C1102 1.391 . S
C1101 C1100 1.386 . S
C1101 C1105 1.393 . S
C1102 H1094 0.950 . S
C1102 C1100 1.391 . S
C1102 C1103 1.400 . S
C1103 C1102 1.400 . S
C1103 C1104 1.398 . S
C1103 C1109 1.491 . S
C1104 H1095 0.950 . S
C1104 C1103 1.398 . S
C1104 C1105 1.391 . S
C1105 H1093 0.950 . S
C1105 C1101 1.393 . S
C1105 C1104 1.391 . S
C1106 H1096 0.950 . S
C1106 C1107 1.386 . S
C1106 C1108 1.391 . S
C1107 C1106 1.386 . S
C1107 C1111 1.393 . S
C1108 H1097 0.950 . S
C1108 C1106 1.391 . S
C1108 C1109 1.400 . S
C1109 C1103 1.491 . S
C1109 C1108 1.400 . S
C1109 C1110 1.398 . S
C1110 H1098 0.950 . S
C1110 C1109 1.398 . S
C1110 C1111 1.391 . S
C1111 H1099 0.950 . S
C1111 C1107 1.393 . S
C1111 C1110 1.391 . S
H1112 C1120 0.950 . S
H1113 C1125 0.950 . S
H1114 C1122 0.950 . S
H1115 C1124 0.950 1_655 S
H1116 C1126 0.950 . S
H1117 C1128 0.950 . S
H1118 C1130 0.950 . S
H1119 C1131 0.950 . S
C1120 H1112 0.950 . S
C1120 C1121 1.386 . S
C1120 C1122 1.391 . S
C1121 C1120 1.386 . S
C1121 C1125 1.393 . S
C1122 H1114 0.950 . S
C1122 C1120 1.391 . S
C1122 C1123 1.400 . S
C1123 C1122 1.400 . S
C1123 C1124 1.398 . S
C1123 C1129 1.491 1_455 S
C1124 H1115 0.950 1_455 S
C1124 C1123 1.398 . S
C1124 C1125 1.391 . S
C1125 H1113 0.950 . S
C1125 C1121 1.393 . S
C1125 C1124 1.391 . S
C1126 H1116 0.950 . S
C1126 C1127 1.386 . S
C1126 C1128 1.391 . S
C1127 C1126 1.386 . S
C1127 C1131 1.393 . S
C1128 H1117 0.950 . S
C1128 C1126 1.391 . S
C1128 C1129 1.400 . S
C1129 C1123 1.491 1_655 S
C1129 C1128 1.400 . S
C1129 C1130 1.398 . S
C1130 H1118 0.950 . S
C1130 C1129 1.398 . S
C1130 C1131 1.391 . S
C1131 H1119 0.950 . S
C1131 C1127 1.393 . S
C1131 C1130 1.391 . S
H1132 C1140 0.950 . S
H1133 C1145 0.950 . S
H1134 C1142 0.950 . S
H1135 C1144 0.950 . S
H1136 C1146 0.950 . S
H1137 C1148 0.950 . S
H1138 C1150 0.950 . S
H1139 C1151 0.950 . S
C1140 H1132 0.950 . S
C1140 C1141 1.386 . S
C1140 C1142 1.391 . S
C1141 C1140 1.386 . S
C1141 C1145 1.393 . S
C1142 H1134 0.950 . S
C1142 C1140 1.391 . S
C1142 C1143 1.400 . S
C1143 C1142 1.400 . S
C1143 C1144 1.398 . S
C1143 C1149 1.491 1_655 S
C1144 H1135 0.950 . S
C1144 C1143 1.398 . S
C1144 C1145 1.391 . S
C1145 H1133 0.950 . S
C1145 C1141 1.393 . S
C1145 C1144 1.391 . S
C1146 H1136 0.950 . S
C1146 C1147 1.386 . S
C1146 C1148 1.391 . S
C1147 C1146 1.386 . S
C1147 C1151 1.393 . S
C1148 H1137 0.950 . S
C1148 C1146 1.391 . S
C1148 C1149 1.400 . S
C1149 C1143 1.491 1_455 S
C1149 C1148 1.400 . S
C1149 C1150 1.398 . S
C1150 H1138 0.950 . S
C1150 C1149 1.398 . S
C1150 C1151 1.391 . S
C1151 H1139 0.950 . S
C1151 C1147 1.393 . S
C1151 C1150 1.391 . S
H1152 C1160 0.950 . S
H1153 C1165 0.950 . S
H1154 C1162 0.950 . S
H1155 C1164 0.950 . S
H1156 C1166 0.950 . S
H1157 C1168 0.950 . S
H1158 C1170 0.950 . S
H1159 C1171 0.950 . S
C1160 H1152 0.950 . S
C1160 C1161 1.386 . S
C1160 C1162 1.391 . S
C1161 C1160 1.386 . S
C1161 C1165 1.393 . S
C1162 H1154 0.950 . S
C1162 C1160 1.391 . S
C1162 C1163 1.400 . S
C1163 C1162 1.400 . S
C1163 C1164 1.398 . S
C1163 C1169 1.491 . S
C1164 H1155 0.950 . S
C1164 C1163 1.398 . S
C1164 C1165 1.391 . S
C1165 H1153 0.950 . S
C1165 C1161 1.393 . S
C1165 C1164 1.391 . S
C1166 H1156 0.950 . S
C1166 C1167 1.386 . S
C1166 C1168 1.391 . S
C1167 C1166 1.386 . S
C1167 C1171 1.393 . S
C1168 H1157 0.950 . S
C1168 C1166 1.391 . S
C1168 C1169 1.400 . S
C1169 C1163 1.491 . S
C1169 C1168 1.400 . S
C1169 C1170 1.398 . S
C1170 H1158 0.950 . S
C1170 C1169 1.398 . S
C1170 C1171 1.391 . S
C1171 H1159 0.950 . S
C1171 C1167 1.393 . S
C1171 C1170 1.391 . S
H1172 C1180 0.950 . S
H1173 C1185 0.950 . S
H1174 C1182 0.950 . S
H1175 C1184 0.950 . S
H1176 C1186 0.950 . S
H1177 C1188 0.950 . S
H1178 C1190 0.950 . S
H1179 C1191 0.950 . S
C1180 H1172 0.950 . S
C1180 C1181 1.386 . S
C1180 C1182 1.391 . S
C1181 C1180 1.386 . S
C1181 C1185 1.393 . S
C1182 H1174 0.950 . S
C1182 C1180 1.391 . S
C1182 C1183 1.400 . S
C1183 C1182 1.400 . S
C1183 C1184 1.398 . S
C1183 C1189 1.491 . S
C1184 H1175 0.950 . S
C1184 C1183 1.398 . S
C1184 C1185 1.391 . S
C1185 H1173 0.950 . S
C1185 C1181 1.393 . S
C1185 C1184 1.391 . S
C1186 H1176 0.950 . S
C1186 C1187 1.386 . S
C1186 C1188 1.391 . S
C1187 C1186 1.386 . S
C1187 C1191 1.393 . S
C1188 H1177 0.950 . S
C1188 C1186 1.391 . S
C1188 C1189 1.400 . S
C1189 C1183 1.491 . S
C1189 C1188 1.400 . S
C1189 C1190 1.398 . S
C1190 H1178 0.950 . S
C1190 C1189 1.398 . S
C1190 C1191 1.391 . S
C1191 H1179 0.950 . S
C1191 C1187 1.393 . S
C1191 C1190 1.391 . S
H1192 C1200 0.950 . S
H1193 C1205 0.950 . S
H1194 C1202 0.950 . S
H1195 C1204 0.950 . S
H1196 C1206 0.950 . S
H1197 C1208 0.950 . S
H1198 C1210 0.950 . S
H1199 C1211 0.950 . S
C1200 H1192 0.950 . S
C1200 C1201 1.386 . S
C1200 C1202 1.391 . S
C1201 C1200 1.386 . S
C1201 C1205 1.393 . S
C1202 H1194 0.950 . S
C1202 C1200 1.391 . S
C1202 C1203 1.400 . S
C1203 C1202 1.400 . S
C1203 C1204 1.398 . S
C1203 C1209 1.491 . S
C1204 H1195 0.950 . S
C1204 C1203 1.398 . S
C1204 C1205 1.391 . S
C1205 H1193 0.950 . S
C1205 C1201 1.393 . S
C1205 C1204 1.391 . S
C1206 H1196 0.950 . S
C1206 C1207 1.386 . S
C1206 C1208 1.391 . S
C1207 C1206 1.386 . S
C1207 C1211 1.393 . S
C1208 H1197 0.950 . S
C1208 C1206 1.391 . S
C1208 C1209 1.400 . S
C1209 C1203 1.491 . S
C1209 C1208 1.400 . S
C1209 C1210 1.398 . S
C1210 H1198 0.950 . S
C1210 C1209 1.398 . S
C1210 C1211 1.391 . S
C1211 H1199 0.950 . S
C1211 C1207 1.393 . S
C1211 C1210 1.391 . S
H1212 C1220 0.950 . S
H1213 C1225 0.950 . S
H1214 C1222 0.950 . S
H1215 C1224 0.950 . S
H1216 C1226 0.950 . S
H1217 C1228 0.950 . S
H1218 C1230 0.950 . S
H1219 C1231 0.950 . S
C1220 H1212 0.950 . S
C1220 C1221 1.386 . S
C1220 C1222 1.391 . S
C1221 C1220 1.386 . S
C1221 C1225 1.393 . S
C1222 H1214 0.950 . S
C1222 C1220 1.391 . S
C1222 C1223 1.400 . S
C1223 C1222 1.400 . S
C1223 C1224 1.398 . S
C1223 C1229 1.491 . S
C1224 H1215 0.950 . S
C1224 C1223 1.398 . S
C1224 C1225 1.391 . S
C1225 H1213 0.950 . S
C1225 C1221 1.393 . S
C1225 C1224 1.391 . S
C1226 H1216 0.950 . S
C1226 C1227 1.386 . S
C1226 C1228 1.391 . S
C1227 C1226 1.386 . S
C1227 C1231 1.393 . S
C1228 H1217 0.950 . S
C1228 C1226 1.391 . S
C1228 C1229 1.400 . S
C1229 C1223 1.491 . S
C1229 C1228 1.400 . S
C1229 C1230 1.398 . S
C1230 H1218 0.950 . S
C1230 C1229 1.398 . S
C1230 C1231 1.391 . S
C1231 H1219 0.950 . S
C1231 C1227 1.393 . S
C1231 C1230 1.391 . S
H1232 C1240 0.950 . S
H1233 C1245 0.950 . S
H1234 C1242 0.950 . S
H1235 C1244 0.950 . S
H1236 C1246 0.950 . S
H1237 C1248 0.950 . S
H1238 C1250 0.950 . S
H1239 C1251 0.950 . S
C1240 H1232 0.950 . S
C1240 C1241 1.386 . S
C1240 C1242 1.391 . S
C1241 C1240 1.386 . S
C1241 C1245 1.393 . S
C1242 H1234 0.950 . S
C1242 C1240 1.391 . S
C1242 C1243 1.400 . S
C1243 C1242 1.400 . S
C1243 C1244 1.398 . S
C1243 C1249 1.491 . S
C1244 H1235 0.950 . S
C1244 C1243 1.398 . S
C1244 C1245 1.391 . S
C1245 H1233 0.950 . S
C1245 C1241 1.393 . S
C1245 C1244 1.391 . S
C1246 H1236 0.950 . S
C1246 C1247 1.386 . S
C1246 C1248 1.391 . S
C1247 C1246 1.386 . S
C1247 C1251 1.393 . S
C1248 H1237 0.950 . S
C1248 C1246 1.391 . S
C1248 C1249 1.400 . S
C1249 C1243 1.491 . S
C1249 C1248 1.400 . S
C1249 C1250 1.398 . S
C1250 H1238 0.950 . S
C1250 C1249 1.398 . S
C1250 C1251 1.391 . S
C1251 H1239 0.950 . S
C1251 C1247 1.393 . S
C1251 C1250 1.391 . S
H1252 C1260 0.950 . S
H1253 C1265 0.950 . S
H1254 C1262 0.950 . S
H1255 C1264 0.950 . S
H1256 C1266 0.950 . S
H1257 C1268 0.950 . S
H1258 C1270 0.950 . S
H1259 C1271 0.950 . S
C1260 H1252 0.950 . S
C1260 C1261 1.386 . S
C1260 C1262 1.391 . S
C1261 C1260 1.386 . S
C1261 C1265 1.393 . S
C1262 H1254 0.950 . S
C1262 C1260 1.391 . S
C1262 C1263 1.400 . S
C1263 C1262 1.400 . S
C1263 C1264 1.398 . S
C1263 C1269 1.491 . S
C1264 H1255 0.950 . S
C1264 C1263 1.398 . S
C1264 C1265 1.391 . S
C1265 H1253 0.950 . S
C1265 C1261 1.393 . S
C1265 C1264 1.391 . S
C1266 H1256 0.950 . S
C1266 C1267 1.386 . S
C1266 C1268 1.391 . S
C1267 C1266 1.386 . S
C1267 C1271 1.393 . S
C1268 H1257 0.950 . S
C1268 C1266 1.391 . S
C1268 C1269 1.400 . S
C1269 C1263 1.491 . S
C1269 C1268 1.400 . S
C1269 C1270 1.398 . S
C1270 H1258 0.950 . S
C1270 C1269 1.398 . S
C1270 C1271 1.391 . S
C1271 H1259 0.950 . S
C1271 C1267 1.393 . S
C1271 C1270 1.391 . S
H1272 C1280 0.950 . S
H1273 C1285 0.950 . S
H1274 C1282 0.950 . S
H1275 C1284 0.950 . S
H1276 C1286 0.950 . S
H1277 C1288 0.950 . S
H1278 C1290 0.950 . S
H1279 C1291 0.950 . S
C1280 H1272 0.950 . S
C1280 C1281 1.386 . S
C1280 C1282 1.391 . S
C1281 C1280 1.386 . S
C1281 C1285 1.393 . S
C1282 H1274 0.950 . S
C1282 C1280 1.391 . S
C1282 C1283 1.400 . S
C1283 C1282 1.400 . S
C1283 C1284 1.398 . S
C1283 C1289 1.491 . S
C1284 H1275 0.950 . S
C1284 C1283 1.398 . S
C1284 C1285 1.391 . S
C1285 H1273 0.950 . S
C1285 C1281 1.393 . S
C1285 C1284 1.391 . S
C1286 H1276 0.950 . S
C1286 C1287 1.386 . S
C1286 C1288 1.391 . S
C1287 C1286 1.386 . S
C1287 C1291 1.393 . S
C1288 H1277 0.950 . S
C1288 C1286 1.391 . S
C1288 C1289 1.400 . S
C1289 C1283 1.491 . S
C1289 C1288 1.400 . S
C1289 C1290 1.398 . S
C1290 H1278 0.950 . S
C1290 C1289 1.398 . S
C1290 C1291 1.391 . S
C1291 H1279 0.950 . S
C1291 C1287 1.393 . S
C1291 C1290 1.391 . S
H1292 C1300 0.950 . S
H1293 C1305 0.950 . S
H1294 C1302 0.950 . S
H1295 C1304 0.950 . S
H1296 C1306 0.950 . S
H1297 C1308 0.950 . S
H1298 C1310 0.950 . S
H1299 C1311 0.950 . S
C1300 H1292 0.950 . S
C1300 C1301 1.386 . S
C1300 C1302 1.391 . S
C1301 C1300 1.386 . S
C1301 C1305 1.393 . S
C1302 H1294 0.950 . S
C1302 C1300 1.391 . S
C1302 C1303 1.400 . S
C1303 C1302 1.400 . S
C1303 C1304 1.398 . S
C1303 C1309 1.491 . S
C1304 H1295 0.950 . S
C1304 C1303 1.398 . S
C1304 C1305 1.391 . S
C1305 H1293 0.950 . S
C1305 C1301 1.393 . S
C1305 C1304 1.391 . S
C1306 H1296 0.950 . S
C1306 C1307 1.386 . S
C1306 C1308 1.391 . S
C1307 C1306 1.386 . S
C1307 C1311 1.393 . S
C1308 H1297 0.950 . S
C1308 C1306 1.391 . S
C1308 C1309 1.400 . S
C1309 C1303 1.491 . S
C1309 C1308 1.400 . S
C1309 C1310 1.398 . S
C1310 H1298 0.950 . S
C1310 C1309 1.398 . S
C1310 C1311 1.391 . S
C1311 H1299 0.950 . S
C1311 C1307 1.393 . S
C1311 C1310 1.391 . S
H1312 C1320 0.950 . S
H1313 C1325 0.950 . S
H1314 C1322 0.950 . S
H1315 C1324 0.950 . S
H1316 C1326 0.950 . S
H1317 C1328 0.950 . S
H1318 C1330 0.950 . S
H1319 C1331 0.950 . S
C1320 H1312 0.950 . S
C1320 C1321 1.386 . S
C1320 C1322 1.391 . S
C1321 C1320 1.386 . S
C1321 C1325 1.393 . S
C1322 H1314 0.950 . S
C1322 C1320 1.391 . S
C1322 C1323 1.400 . S
C1323 C1322 1.400 . S
C1323 C1324 1.398 . S
C1323 C1329 1.491 . S
C1324 H1315 0.950 . S
C1324 C1323 1.398 . S
C1324 C1325 1.391 . S
C1325 H1313 0.950 . S
C1325 C1321 1.393 . S
C1325 C1324 1.391 . S
C1326 H1316 0.950 . S
C1326 C1327 1.386 . S
C1326 C1328 1.391 . S
C1327 C1326 1.386 . S
C1327 C1331 1.393 . S
C1328 H1317 0.950 . S
C1328 C1326 1.391 . S
C1328 C1329 1.400 . S
C1329 C1323 1.491 . S
C1329 C1328 1.400 . S
C1329 C1330 1.398 . S
C1330 H1318 0.950 . S
C1330 C1329 1.398 . S
C1330 C1331 1.391 . S
C1331 H1319 0.950 . S
C1331 C1327 1.393 . S
C1331 C1330 1.391 . S
H1332 C1340 0.950 . S
H1333 C1345 0.950 . S
H1334 C1342 0.950 . S
H1335 C1344 0.950 . S
H1336 C1346 0.950 . S
H1337 C1348 0.950 . S
H1338 C1350 0.950 . S
H1339 C1351 0.950 . S
C1340 H1332 0.950 . S
C1340 C1341 1.386 . S
C1340 C1342 1.391 . S
C1341 C1340 1.386 . S
C1341 C1345 1.393 . S
C1342 H1334 0.950 . S
C1342 C1340 1.391 . S
C1342 C1343 1.400 . S
C1343 C1342 1.400 . S
C1343 C1344 1.398 . S
C1343 C1349 1.491 1_565 S
C1344 H1335 0.950 . S
C1344 C1343 1.398 . S
C1344 C1345 1.391 . S
C1345 H1333 0.950 . S
C1345 C1341 1.393 . S
C1345 C1344 1.391 . S
C1346 H1336 0.950 . S
C1346 C1347 1.386 . S
C1346 C1348 1.391 . S
C1347 C1346 1.386 . S
C1347 C1351 1.393 . S
C1348 H1337 0.950 . S
C1348 C1346 1.391 . S
C1348 C1349 1.400 . S
C1349 C1343 1.491 1_545 S
C1349 C1348 1.400 . S
C1349 C1350 1.398 . S
C1350 H1338 0.950 . S
C1350 C1349 1.398 . S
C1350 C1351 1.391 . S
C1351 H1339 0.950 . S
C1351 C1347 1.393 . S
C1351 C1350 1.391 . S
H1352 C1360 0.950 . S
H1353 C1365 0.950 . S
H1354 C1362 0.950 . S
H1355 C1364 0.950 . S
H1356 C1366 0.950 . S
H1357 C1368 0.950 . S
H1358 C1370 0.950 . S
H1359 C1371 0.950 . S
C1360 H1352 0.950 . S
C1360 C1361 1.386 . S
C1360 C1362 1.391 . S
C1361 C1360 1.386 . S
C1361 C1365 1.393 . S
C1362 H1354 0.950 . S
C1362 C1360 1.391 . S
C1362 C1363 1.400 . S
C1363 C1362 1.400 . S
C1363 C1364 1.398 . S
C1363 C1369 1.491 . S
C1364 H1355 0.950 . S
C1364 C1363 1.398 . S
C1364 C1365 1.391 . S
C1365 H1353 0.950 . S
C1365 C1361 1.393 . S
C1365 C1364 1.391 . S
C1366 H1356 0.950 . S
C1366 C1367 1.386 . S
C1366 C1368 1.391 . S
C1367 C1366 1.386 . S
C1367 C1371 1.393 . S
C1368 H1357 0.950 . S
C1368 C1366 1.391 . S
C1368 C1369 1.400 . S
C1369 C1363 1.491 . S
C1369 C1368 1.400 . S
C1369 C1370 1.398 . S
C1370 H1358 0.950 . S
C1370 C1369 1.398 . S
C1370 C1371 1.391 . S
C1371 H1359 0.950 . S
C1371 C1367 1.393 . S
C1371 C1370 1.391 . S
H1372 C1380 0.950 . S
H1373 C1385 0.950 . S
H1374 C1382 0.950 . S
H1375 C1384 0.950 . S
H1376 C1386 0.950 . S
H1377 C1388 0.950 . S
H1378 C1390 0.950 . S
H1379 C1391 0.950 . S
C1380 H1372 0.950 . S
C1380 C1381 1.386 . S
C1380 C1382 1.391 . S
C1381 C1380 1.386 . S
C1381 C1385 1.393 . S
C1382 H1374 0.950 . S
C1382 C1380 1.391 . S
C1382 C1383 1.400 . S
C1383 C1382 1.400 . S
C1383 C1384 1.398 . S
C1383 C1389 1.491 . S
C1384 H1375 0.950 . S
C1384 C1383 1.398 . S
C1384 C1385 1.391 . S
C1385 H1373 0.950 . S
C1385 C1381 1.393 . S
C1385 C1384 1.391 . S
C1386 H1376 0.950 . S
C1386 C1387 1.386 . S
C1386 C1388 1.391 . S
C1387 C1386 1.386 . S
C1387 C1391 1.393 . S
C1388 H1377 0.950 . S
C1388 C1386 1.391 . S
C1388 C1389 1.400 . S
C1389 C1383 1.491 . S
C1389 C1388 1.400 . S
C1389 C1390 1.398 . S
C1390 H1378 0.950 . S
C1390 C1389 1.398 . S
C1390 C1391 1.391 . S
C1391 H1379 0.950 . S
C1391 C1387 1.393 . S
C1391 C1390 1.391 . S
H1392 C1400 0.950 . S
H1393 C1405 0.950 . S
H1394 C1402 0.950 . S
H1395 C1404 0.950 . S
H1396 C1406 0.950 . S
H1397 C1408 0.950 . S
H1398 C1410 0.950 . S
H1399 C1411 0.950 . S
C1400 H1392 0.950 . S
C1400 C1401 1.386 . S
C1400 C1402 1.391 . S
C1401 C1400 1.386 . S
C1401 C1405 1.393 . S
C1402 H1394 0.950 . S
C1402 C1400 1.391 . S
C1402 C1403 1.400 . S
C1403 C1402 1.400 . S
C1403 C1404 1.398 . S
C1403 C1409 1.491 . S
C1404 H1395 0.950 . S
C1404 C1403 1.398 . S
C1404 C1405 1.391 . S
C1405 H1393 0.950 . S
C1405 C1401 1.393 . S
C1405 C1404 1.391 . S
C1406 H1396 0.950 . S
C1406 C1407 1.386 . S
C1406 C1408 1.391 . S
C1407 C1406 1.386 . S
C1407 C1411 1.393 . S
C1408 H1397 0.950 . S
C1408 C1406 1.391 . S
C1408 C1409 1.400 . S
C1409 C1403 1.491 . S
C1409 C1408 1.400 . S
C1409 C1410 1.398 . S
C1410 H1398 0.950 . S
C1410 C1409 1.398 . S
C1410 C1411 1.391 . S
C1411 H1399 0.950 . S
C1411 C1407 1.393 . S
C1411 C1410 1.391 . S
H1412 C1420 0.950 . S
H1413 C1425 0.950 . S
H1414 C1422 0.950 . S
H1415 C1424 0.950 . S
H1416 C1426 0.950 . S
H1417 C1428 0.950 . S
H1418 C1430 0.950 . S
H1419 C1431 0.950 . S
C1420 H1412 0.950 . S
C1420 C1421 1.386 . S
C1420 C1422 1.391 . S
C1421 C1420 1.386 . S
C1421 C1425 1.393 . S
C1422 H1414 0.950 . S
C1422 C1420 1.391 . S
C1422 C1423 1.400 . S
C1423 C1422 1.400 . S
C1423 C1424 1.398 . S
C1423 C1429 1.491 1_565 S
C1424 H1415 0.950 . S
C1424 C1423 1.398 . S
C1424 C1425 1.391 . S
C1425 H1413 0.950 . S
C1425 C1421 1.393 . S
C1425 C1424 1.391 . S
C1426 H1416 0.950 . S
C1426 C1427 1.386 . S
C1426 C1428 1.391 . S
C1427 C1426 1.386 . S
C1427 C1431 1.393 . S
C1428 H1417 0.950 . S
C1428 C1426 1.391 . S
C1428 C1429 1.400 . S
C1429 C1423 1.491 1_545 S
C1429 C1428 1.400 . S
C1429 C1430 1.398 . S
C1430 H1418 0.950 . S
C1430 C1429 1.398 . S
C1430 C1431 1.391 . S
C1431 H1419 0.950 . S
C1431 C1427 1.393 . S
C1431 C1430 1.391 . S
H1432 C1440 0.950 . S
H1433 C1445 0.950 . S
H1434 C1442 0.950 . S
H1435 C1444 0.950 . S
H1436 C1446 0.950 . S
H1437 C1448 0.950 . S
H1438 C1450 0.950 . S
H1439 C1451 0.950 . S
C1440 H1432 0.950 . S
C1440 C1441 1.386 . S
C1440 C1442 1.391 . S
C1441 C1440 1.386 . S
C1441 C1445 1.393 . S
C1442 H1434 0.950 . S
C1442 C1440 1.391 . S
C1442 C1443 1.400 . S
C1443 C1442 1.400 . S
C1443 C1444 1.398 . S
C1443 C1449 1.491 . S
C1444 H1435 0.950 . S
C1444 C1443 1.398 . S
C1444 C1445 1.391 . S
C1445 H1433 0.950 . S
C1445 C1441 1.393 . S
C1445 C1444 1.391 . S
C1446 H1436 0.950 . S
C1446 C1447 1.386 . S
C1446 C1448 1.391 . S
C1447 C1446 1.386 . S
C1447 C1451 1.393 . S
C1448 H1437 0.950 . S
C1448 C1446 1.391 . S
C1448 C1449 1.400 . S
C1449 C1443 1.491 . S
C1449 C1448 1.400 . S
C1449 C1450 1.398 . S
C1450 H1438 0.950 . S
C1450 C1449 1.398 . S
C1450 C1451 1.391 . S
C1451 H1439 0.950 . S
C1451 C1447 1.393 . S
C1451 C1450 1.391 . S
H1452 C1460 0.950 . S
H1453 C1465 0.950 . S
H1454 C1462 0.950 . S
H1455 C1464 0.950 . S
H1456 C1466 0.950 . S
H1457 C1468 0.950 . S
H1458 C1470 0.950 . S
H1459 C1471 0.950 . S
C1460 H1452 0.950 . S
C1460 C1461 1.386 . S
C1460 C1462 1.391 . S
C1461 C1460 1.386 . S
C1461 C1465 1.393 . S
C1462 H1454 0.950 . S
C1462 C1460 1.391 . S
C1462 C1463 1.400 . S
C1463 C1462 1.400 . S
C1463 C1464 1.398 . S
C1463 C1469 1.491 . S
C1464 H1455 0.950 . S
C1464 C1463 1.398 . S
C1464 C1465 1.391 . S
C1465 H1453 0.950 . S
C1465 C1461 1.393 . S
C1465 C1464 1.391 . S
C1466 H1456 0.950 . S
C1466 C1467 1.386 . S
C1466 C1468 1.391 . S
C1467 C1466 1.386 . S
C1467 C1471 1.393 . S
C1468 H1457 0.950 . S
C1468 C1466 1.391 . S
C1468 C1469 1.400 . S
C1469 C1463 1.491 . S
C1469 C1468 1.400 . S
C1469 C1470 1.398 . S
C1470 H1458 0.950 . S
C1470 C1469 1.398 . S
C1470 C1471 1.391 . S
C1471 H1459 0.950 . S
C1471 C1467 1.393 . S
C1471 C1470 1.391 . S
H1472 C1480 0.950 . S
H1473 C1485 0.950 . S
H1474 C1482 0.950 . S
H1475 C1484 0.950 . S
H1476 C1486 0.950 . S
H1477 C1488 0.950 . S
H1478 C1490 0.950 . S
H1479 C1491 0.950 . S
C1480 H1472 0.950 . S
C1480 C1481 1.386 . S
C1480 C1482 1.391 . S
C1481 C1480 1.386 . S
C1481 C1485 1.393 . S
C1482 H1474 0.950 . S
C1482 C1480 1.391 . S
C1482 C1483 1.400 . S
C1483 C1482 1.400 . S
C1483 C1484 1.398 . S
C1483 C1489 1.491 . S
C1484 H1475 0.950 . S
C1484 C1483 1.398 . S
C1484 C1485 1.391 . S
C1485 H1473 0.950 . S
C1485 C1481 1.393 . S
C1485 C1484 1.391 . S
C1486 H1476 0.950 . S
C1486 C1487 1.386 . S
C1486 C1488 1.391 . S
C1487 C1486 1.386 . S
C1487 C1491 1.393 . S
C1488 H1477 0.950 . S
C1488 C1486 1.391 . S
C1488 C1489 1.400 . S
C1489 C1483 1.491 . S
C1489 C1488 1.400 . S
C1489 C1490 1.398 . S
C1490 H1478 0.950 . S
C1490 C1489 1.398 . S
C1490 C1491 1.391 . S
C1491 H1479 0.950 . S
C1491 C1487 1.393 . S
C1491 C1490 1.391 . S
H1492 C1500 0.950 . S
H1493 C1505 0.950 . S
H1494 C1502 0.950 . S
H1495 C1504 0.950 . S
H1496 C1506 0.950 . S
H1497 C1508 0.950 . S
H1498 C1510 0.950 . S
H1499 C1511 0.950 . S
C1500 H1492 0.950 . S
C1500 C1501 1.386 . S
C1500 C1502 1.391 . S
C1501 C1500 1.386 . S
C1501 C1505 1.393 . S
C1502 H1494 0.950 . S
C1502 C1500 1.391 . S
C1502 C1503 1.400 . S
C1503 C1502 1.400 . S
C1503 C1504 1.398 . S
C1503 C1509 1.491 . S
C1504 H1495 0.950 . S
C1504 C1503 1.398 . S
C1504 C1505 1.391 . S
C1505 H1493 0.950 . S
C1505 C1501 1.393 . S
C1505 C1504 1.391 . S
C1506 H1496 0.950 . S
C1506 C1507 1.386 . S
C1506 C1508 1.391 . S
C1507 C1506 1.386 . S
C1507 C1511 1.393 . S
C1508 H1497 0.950 . S
C1508 C1506 1.391 . S
C1508 C1509 1.400 . S
C1509 C1503 1.491 . S
C1509 C1508 1.400 . S
C1509 C1510 1.398 . S
C1510 H1498 0.950 . S
C1510 C1509 1.398 . S
C1510 C1511 1.391 . S
C1511 H1499 0.950 . S
C1511 C1507 1.393 . S
C1511 C1510 1.391 . S
H1512 C1520 0.950 . S
H1513 C1525 0.950 . S
H1514 C1522 0.950 . S
H1515 C1524 0.950 . S
H1516 C1526 0.950 . S
H1517 C1528 0.950 . S
H1518 C1530 0.950 . S
H1519 C1531 0.950 . S
C1520 H1512 0.950 . S
C1520 C1521 1.386 . S
C1520 C1522 1.391 . S
C1521 C1520 1.386 . S
C1521 C1525 1.393 . S
C1522 H1514 0.950 . S
C1522 C1520 1.391 . S
C1522 C1523 1.400 . S
C1523 C1522 1.400 . S
C1523 C1524 1.398 . S
C1523 C1529 1.491 . S
C1524 H1515 0.950 . S
C1524 C1523 1.398 . S
C1524 C1525 1.391 . S
C1525 H1513 0.950 . S
C1525 C1521 1.393 . S
C1525 C1524 1.391 . S
C1526 H1516 0.950 . S
C1526 C1527 1.386 . S
C1526 C1528 1.391 . S
C1527 C1526 1.386 . S
C1527 C1531 1.393 . S
C1528 H1517 0.950 . S
C1528 C1526 1.391 . S
C1528 C1529 1.400 . S
C1529 C1523 1.491 . S
C1529 C1528 1.400 . S
C1529 C1530 1.398 . S
C1530 H1518 0.950 . S
C1530 C1529 1.398 . S
C1530 C1531 1.391 . S
C1531 H1519 0.950 . S
C1531 C1527 1.393 . S
C1531 C1530 1.391 . S
H1532 C1540 0.950 . S
H1533 C1545 0.950 . S
H1534 C1542 0.950 . S
H1535 C1544 0.950 . S
H1536 C1546 0.950 . S
H1537 C1548 0.950 . S
H1538 C1550 0.950 . S
H1539 C1551 0.950 . S
C1540 H1532 0.950 . S
C1540 C1541 1.386 . S
C1540 C1542 1.391 . S
C1541 C1540 1.386 . S
C1541 C1545 1.393 . S
C1542 H1534 0.950 . S
C1542 C1540 1.391 . S
C1542 C1543 1.400 . S
C1543 C1542 1.400 . S
C1543 C1544 1.398 . S
C1543 C1549 1.491 . S
C1544 H1535 0.950 . S
C1544 C1543 1.398 . S
C1544 C1545 1.391 . S
C1545 H1533 0.950 . S
C1545 C1541 1.393 . S
C1545 C1544 1.391 . S
C1546 H1536 0.950 . S
C1546 C1547 1.386 . S
C1546 C1548 1.391 . S
C1547 C1546 1.386 . S
C1547 C1551 1.393 . S
C1548 H1537 0.950 . S
C1548 C1546 1.391 . S
C1548 C1549 1.400 . S
C1549 C1543 1.491 . S
C1549 C1548 1.400 . S
C1549 C1550 1.398 . S
C1550 H1538 0.950 . S
C1550 C1549 1.398 . S
C1550 C1551 1.391 . S
C1551 H1539 0.950 . S
C1551 C1547 1.393 . S
C1551 C1550 1.391 . S
H1552 C1560 0.950 . S
H1553 C1565 0.950 . S
H1554 C1562 0.950 . S
H1555 C1564 0.950 . S
H1556 C1566 0.950 . S
H1557 C1568 0.950 . S
H1558 C1570 0.950 . S
H1559 C1571 0.950 . S
C1560 H1552 0.950 . S
C1560 C1561 1.386 . S
C1560 C1562 1.391 . S
C1561 C1560 1.386 . S
C1561 C1565 1.393 . S
C1562 H1554 0.950 . S
C1562 C1560 1.391 . S
C1562 C1563 1.400 . S
C1563 C1562 1.400 . S
C1563 C1564 1.398 . S
C1563 C1569 1.491 1_455 S
C1564 H1555 0.950 . S
C1564 C1563 1.398 . S
C1564 C1565 1.391 . S
C1565 H1553 0.950 . S
C1565 C1561 1.393 . S
C1565 C1564 1.391 . S
C1566 H1556 0.950 . S
C1566 C1567 1.386 . S
C1566 C1568 1.391 . S
C1567 C1566 1.386 . S
C1567 C1571 1.393 . S
C1568 H1557 0.950 . S
C1568 C1566 1.391 . S
C1568 C1569 1.400 . S
C1569 C1563 1.491 1_655 S
C1569 C1568 1.400 . S
C1569 C1570 1.398 . S
C1570 H1558 0.950 . S
C1570 C1569 1.398 . S
C1570 C1571 1.391 . S
C1571 H1559 0.950 . S
C1571 C1567 1.393 . S
C1571 C1570 1.391 . S
H1572 C1580 0.950 . S
H1573 C1585 0.950 . S
H1574 C1582 0.950 . S
H1575 C1584 0.950 . S
H1576 C1586 0.950 . S
H1577 C1588 0.950 . S
H1578 C1590 0.950 . S
H1579 C1591 0.950 . S
C1580 H1572 0.950 . S
C1580 C1581 1.386 . S
C1580 C1582 1.391 . S
C1581 C1580 1.386 . S
C1581 C1585 1.393 . S
C1582 H1574 0.950 . S
C1582 C1580 1.391 . S
C1582 C1583 1.400 . S
C1583 C1582 1.400 . S
C1583 C1584 1.398 . S
C1583 C1589 1.491 . S
C1584 H1575 0.950 . S
C1584 C1583 1.398 . S
C1584 C1585 1.391 . S
C1585 H1573 0.950 . S
C1585 C1581 1.393 . S
C1585 C1584 1.391 . S
C1586 H1576 0.950 . S
C1586 C1587 1.386 . S
C1586 C1588 1.391 . S
C1587 C1586 1.386 . S
C1587 C1591 1.393 . S
C1588 H1577 0.950 . S
C1588 C1586 1.391 . S
C1588 C1589 1.400 . S
C1589 C1583 1.491 . S
C1589 C1588 1.400 . S
C1589 C1590 1.398 . S
C1590 H1578 0.950 . S
C1590 C1589 1.398 . S
C1590 C1591 1.391 . S
C1591 H1579 0.950 . S
C1591 C1587 1.393 . S
C1591 C1590 1.391 . S
H1592 C1600 0.950 . S
H1593 C1605 0.950 . S
H1594 C1602 0.950 . S
H1595 C1604 0.950 . S
H1596 C1606 0.950 . S
H1597 C1608 0.950 . S
H1598 C1610 0.950 . S
H1599 C1611 0.950 . S
C1600 H1592 0.950 . S
C1600 C1601 1.386 . S
C1600 C1602 1.391 . S
C1601 C1600 1.386 . S
C1601 C1605 1.393 . S
C1602 H1594 0.950 . S
C1602 C1600 1.391 . S
C1602 C1603 1.400 . S
C1603 C1602 1.400 . S
C1603 C1604 1.398 . S
C1603 C1609 1.491 . S
C1604 H1595 0.950 . S
C1604 C1603 1.398 . S
C1604 C1605 1.391 . S
C1605 H1593 0.950 . S
C1605 C1601 1.393 . S
C1605 C1604 1.391 . S
C1606 H1596 0.950 . S
C1606 C1607 1.386 . S
C1606 C1608 1.391 . S
C1607 C1606 1.386 . S
C1607 C1611 1.393 . S
C1608 H1597 0.950 . S
C1608 C1606 1.391 . S
C1608 C1609 1.400 . S
C1609 C1603 1.491 . S
C1609 C1608 1.400 . S
C1609 C1610 1.398 . S
C1610 H1598 0.950 . S
C1610 C1609 1.398 . S
C1610 C1611 1.391 . S
C1611 H1599 0.950 . S
C1611 C1607 1.393 . S
C1611 C1610 1.391 . S
H1612 C1620 0.950 . S
H1613 C1625 0.950 . S
H1614 C1622 0.950 . S
H1615 C1624 0.950 . S
H1616 C1626 0.950 . S
H1617 C1628 0.950 . S
H1618 C1630 0.950 . S
H1619 C1631 0.950 . S
C1620 H1612 0.950 . S
C1620 C1621 1.386 . S
C1620 C1622 1.391 . S
C1621 C1620 1.386 . S
C1621 C1625 1.393 . S
C1622 H1614 0.950 . S
C1622 C1620 1.391 . S
C1622 C1623 1.400 . S
C1623 C1622 1.400 . S
C1623 C1624 1.398 . S
C1623 C1629 1.491 . S
C1624 H1615 0.950 . S
C1624 C1623 1.398 . S
C1624 C1625 1.391 . S
C1625 H1613 0.950 . S
C1625 C1621 1.393 . S
C1625 C1624 1.391 . S
C1626 H1616 0.950 . S
C1626 C1627 1.386 . S
C1626 C1628 1.391 . S
C1627 C1626 1.386 . S
C1627 C1631 1.393 . S
C1628 H1617 0.950 . S
C1628 C1626 1.391 . S
C1628 C1629 1.400 . S
C1629 C1623 1.491 . S
C1629 C1628 1.400 . S
C1629 C1630 1.398 . S
C1630 H1618 0.950 . S
C1630 C1629 1.398 . S
C1630 C1631 1.391 . S
C1631 H1619 0.950 . S
C1631 C1627 1.393 . S
C1631 C1630 1.391 . S
H1632 C1640 0.950 . S
H1633 C1645 0.950 . S
H1634 C1642 0.950 . S
H1635 C1644 0.950 . S
H1636 C1646 0.950 . S
H1637 C1648 0.950 . S
H1638 C1650 0.950 . S
H1639 C1651 0.950 . S
C1640 H1632 0.950 . S
C1640 C1641 1.386 . S
C1640 C1642 1.391 . S
C1641 C1640 1.386 . S
C1641 C1645 1.393 . S
C1642 H1634 0.950 . S
C1642 C1640 1.391 . S
C1642 C1643 1.400 . S
C1643 C1642 1.400 . S
C1643 C1644 1.398 . S
C1643 C1649 1.491 . S
C1644 H1635 0.950 . S
C1644 C1643 1.398 . S
C1644 C1645 1.391 . S
C1645 H1633 0.950 . S
C1645 C1641 1.393 . S
C1645 C1644 1.391 . S
C1646 H1636 0.950 . S
C1646 C1647 1.386 . S
C1646 C1648 1.391 . S
C1647 C1646 1.386 . S
C1647 C1651 1.393 . S
C1648 H1637 0.950 . S
C1648 C1646 1.391 . S
C1648 C1649 1.400 . S
C1649 C1643 1.491 . S
C1649 C1648 1.400 . S
C1649 C1650 1.398 . S
C1650 H1638 0.950 . S
C1650 C1649 1.398 . S
C1650 C1651 1.391 . S
C1651 H1639 0.950 . S
C1651 C1647 1.393 . S
C1651 C1650 1.391 . S
H1652 C1660 0.950 . S
H1653 C1665 0.950 . S
H1654 C1662 0.950 . S
H1655 C1664 0.950 . S
H1656 C1666 0.950 . S
H1657 C1668 0.950 . S
H1658 C1670 0.950 . S
H1659 C1671 0.950 . S
C1660 H1652 0.950 . S
C1660 C1661 1.386 . S
C1660 C1662 1.391 . S
C1661 C1660 1.386 . S
C1661 C1665 1.393 . S
C1662 H1654 0.950 . S
C1662 C1660 1.391 . S
C1662 C1663 1.400 . S
C1663 C1662 1.400 . S
C1663 C1664 1.398 . S
C1663 C1669 1.491 . S
C1664 H1655 0.950 . S
C1664 C1663 1.398 . S
C1664 C1665 1.391 . S
C1665 H1653 0.950 . S
C1665 C1661 1.393 . S
C1665 C1664 1.391 . S
C1666 H1656 0.950 . S
C1666 C1667 1.386 . S
C1666 C1668 1.391 . S
C1667 C1666 1.386 . S
C1667 C1671 1.393 . S
C1668 H1657 0.950 . S
C1668 C1666 1.391 . S
C1668 C1669 1.400 . S
C1669 C1663 1.491 . S
C1669 C1668 1.400 . S
C1669 C1670 1.398 . S
C1670 H1658 0.950 . S
C1670 C1669 1.398 . S
C1670 C1671 1.391 . S
C1671 H1659 0.950 . S
C1671 C1667 1.393 . S
C1671 C1670 1.391 . S
H1672 C1680 0.950 . S
H1673 C1685 0.950 . S
H1674 C1682 0.950 . S
H1675 C1684 0.950 . S
H1676 C1686 0.950 . S
H1677 C1688 0.950 . S
H1678 C1690 0.950 . S
H1679 C1691 0.950 . S
C1680 H1672 0.950 . S
C1680 C1681 1.386 . S
C1680 C1682 1.391 . S
C1681 C1680 1.386 . S
C1681 C1685 1.393 . S
C1682 H1674 0.950 . S
C1682 C1680 1.391 . S
C1682 C1683 1.400 . S
C1683 C1682 1.400 . S
C1683 C1684 1.398 . S
C1683 C1689 1.491 . S
C1684 H1675 0.950 . S
C1684 C1683 1.398 . S
C1684 C1685 1.391 . S
C1685 H1673 0.950 . S
C1685 C1681 1.393 . S
C1685 C1684 1.391 . S
C1686 H1676 0.950 . S
C1686 C1687 1.386 . S
C1686 C1688 1.391 . S
C1687 C1686 1.386 . S
C1687 C1691 1.393 . S
C1688 H1677 0.950 . S
C1688 C1686 1.391 . S
C1688 C1689 1.400 . S
C1689 C1683 1.491 . S
C1689 C1688 1.400 . S
C1689 C1690 1.398 . S
C1690 H1678 0.950 . S
C1690 C1689 1.398 . S
C1690 C1691 1.391 . S
C1691 H1679 0.950 . S
C1691 C1687 1.393 . S
C1691 C1690 1.391 . S
H1692 C1700 0.950 . S
H1693 C1705 0.950 . S
H1694 C1702 0.950 . S
H1695 C1704 0.950 . S
H1696 C1706 0.950 . S
H1697 C1708 0.950 . S
H1698 C1710 0.950 . S
H1699 C1711 0.950 . S
C1700 H1692 0.950 . S
C1700 C1701 1.386 . S
C1700 C1702 1.391 . S
C1701 C1700 1.386 . S
C1701 C1705 1.393 . S
C1702 H1694 0.950 . S
C1702 C1700 1.391 . S
C1702 C1703 1.400 . S
C1703 C1702 1.400 . S
C1703 C1704 1.398 . S
C1703 C1709 1.491 . S
C1704 H1695 0.950 . S
C1704 C1703 1.398 . S
C1704 C1705 1.391 . S
C1705 H1693 0.950 . S
C1705 C1701 1.393 . S
C1705 C1704 1.391 . S
C1706 H1696 0.950 . S
C1706 C1707 1.386 . S
C1706 C1708 1.391 . S
C1707 C1706 1.386 . S
C1707 C1711 1.393 . S
C1708 H1697 0.950 . S
C1708 C1706 1.391 . S
C1708 C1709 1.400 . S
C1709 C1703 1.491 . S
C1709 C1708 1.400 . S
C1709 C1710 1.398 . S
C1710 H1698 0.950 . S
C1710 C1709 1.398 . S
C1710 C1711 1.391 . S
C1711 H1699 0.950 . S
C1711 C1707 1.393 . S
C1711 C1710 1.391 . S
H1712 C1720 0.950 . S
H1713 C1725 0.950 . S
H1714 C1722 0.950 . S
H1715 C1724 0.950 . S
H1716 C1726 0.950 . S
H1717 C1728 0.950 . S
H1718 C1730 0.950 . S
H1719 C1731 0.950 . S
C1720 H1712 0.950 . S
C1720 C1721 1.386 . S
C1720 C1722 1.391 . S
C1721 C1720 1.386 . S
C1721 C1725 1.393 . S
C1722 H1714 0.950 . S
C1722 C1720 1.391 . S
C1722 C1723 1.400 . S
C1723 C1722 1.400 . S
C1723 C1724 1.398 . S
C1723 C1729 1.491 . S
C1724 H1715 0.950 . S
C1724 C1723 1.398 . S
C1724 C1725 1.391 . S
C1725 H1713 0.950 . S
C1725 C1721 1.393 . S
C1725 C1724 1.391 . S
C1726 H1716 0.950 . S
C1726 C1727 1.386 . S
C1726 C1728 1.391 . S
C1727 C1726 1.386 . S
C1727 C1731 1.393 . S
C1728 H1717 0.950 . S
C1728 C1726 1.391 . S
C1728 C1729 1.400 . S
C1729 C1723 1.491 . S
C1729 C1728 1.400 . S
C1729 C1730 1.398 . S
C1730 H1718 0.950 . S
C1730 C1729 1.398 . S
C1730 C1731 1.391 . S
C1731 H1719 0.950 . S
C1731 C1727 1.393 . S
C1731 C1730 1.391 . S
H1732 C1740 0.950 . S
H1733 C1745 0.950 . S
H1734 C1742 0.950 . S
H1735 C1744 0.950 . S
H1736 C1746 0.950 . S
H1737 C1748 0.950 . S
H1738 C1750 0.950 . S
H1739 C1751 0.950 . S
C1740 H1732 0.950 . S
C1740 C1741 1.386 . S
C1740 C1742 1.391 . S
C1741 C1740 1.386 . S
C1741 C1745 1.393 . S
C1742 H1734 0.950 . S
C1742 C1740 1.391 . S
C1742 C1743 1.400 . S
C1743 C1742 1.400 . S
C1743 C1744 1.398 . S
C1743 C1749 1.491 . S
C1744 H1735 0.950 . S
C1744 C1743 1.398 . S
C1744 C1745 1.391 . S
C1745 H1733 0.950 . S
C1745 C1741 1.393 . S
C1745 C1744 1.391 . S
C1746 H1736 0.950 . S
C1746 C1747 1.386 . S
C1746 C1748 1.391 . S
C1747 C1746 1.386 . S
C1747 C1751 1.393 . S
C1748 H1737 0.950 . S
C1748 C1746 1.391 . S
C1748 C1749 1.400 . S
C1749 C1743 1.491 . S
C1749 C1748 1.400 . S
C1749 C1750 1.398 . S
C1750 H1738 0.950 . S
C1750 C1749 1.398 . S
C1750 C1751 1.391 . S
C1751 H1739 0.950 . S
C1751 C1747 1.393 . S
C1751 C1750 1.391 . S
H1752 C1760 0.950 . S
H1753 C1765 0.950 . S
H1754 C1762 0.950 . S
H1755 C1764 0.950 . S
H1756 C1766 0.950 . S
H1757 C1768 0.950 . S
H1758 C1770 0.950 . S
H1759 C1771 0.950 . S
C1760 H1752 0.950 . S
C1760 C1761 1.386 . S
C1760 C1762 1.391 . S
C1761 C1760 1.386 . S
C1761 C1765 1.393 . S
C1762 H1754 0.950 . S
C1762 C1760 1.391 . S
C1762 C1763 1.400 . S
C1763 C1762 1.400 . S
C1763 C1764 1.398 . S
C1763 C1769 1.491 . S
C1764 H1755 0.950 . S
C1764 C1763 1.398 . S
C1764 C1765 1.391 . S
C1765 H1753 0.950 . S
C1765 C1761 1.393 . S
C1765 C1764 1.391 . S
C1766 H1756 0.950 . S
C1766 C1767 1.386 . S
C1766 C1768 1.391 . S
C1767 C1766 1.386 . S
C1767 C1771 1.393 . S
C1768 H1757 0.950 . S
C1768 C1766 1.391 . S
C1768 C1769 1.400 . S
C1769 C1763 1.491 . S
C1769 C1768 1.400 . S
C1769 C1770 1.398 . S
C1770 H1758 0.950 . S
C1770 C1769 1.398 . S
C1770 C1771 1.391 . S
C1771 H1759 0.950 . S
C1771 C1767 1.393 . S
C1771 C1770 1.391 . S
H1772 C1780 0.950 . S
H1773 C1785 0.950 . S
H1774 C1782 0.950 . S
H1775 C1784 0.950 . S
H1776 C1786 0.950 . S
H1777 C1788 0.950 . S
H1778 C1790 0.950 . S
H1779 C1791 0.950 . S
C1780 H1772 0.950 . S
C1780 C1781 1.386 . S
C1780 C1782 1.391 . S
C1781 C1780 1.386 . S
C1781 C1785 1.393 . S
C1782 H1774 0.950 . S
C1782 C1780 1.391 . S
C1782 C1783 1.400 . S
C1783 C1782 1.400 . S
C1783 C1784 1.398 . S
C1783 C1789 1.491 . S
C1784 H1775 0.950 . S
C1784 C1783 1.398 . S
C1784 C1785 1.391 . S
C1785 H1773 0.950 . S
C1785 C1781 1.393 . S
C1785 C1784 1.391 . S
C1786 H1776 0.950 . S
C1786 C1787 1.386 . S
C1786 C1788 1.391 . S
C1787 C1786 1.386 . S
C1787 C1791 1.393 . S
C1788 H1777 0.950 . S
C1788 C1786 1.391 . S
C1788 C1789 1.400 . S
C1789 C1783 1.491 . S
C1789 C1788 1.400 . S
C1789 C1790 1.398 . S
C1790 H1778 0.950 . S
C1790 C1789 1.398 . S
C1790 C1791 1.391 . S
C1791 H1779 0.950 . S
C1791 C1787 1.393 . S
C1791 C1790 1.391 . S
H1792 C1800 0.950 . S
H1793 C1805 0.950 . S
H1794 C1802 0.950 . S
H1795 C1804 0.950 . S
H1796 C1806 0.950 . S
H1797 C1808 0.950 . S
H1798 C1810 0.950 . S
H1799 C1811 0.950 . S
C1800 H1792 0.950 . S
C1800 C1801 1.386 . S
C1800 C1802 1.391 . S
C1801 C1800 1.386 . S
C1801 C1805 1.393 . S
C1802 H1794 0.950 . S
C1802 C1800 1.391 . S
C1802 C1803 1.400 . S
C1803 C1802 1.400 . S
C1803 C1804 1.398 . S
C1803 C1809 1.491 . S
C1804 H1795 0.950 . S
C1804 C1803 1.398 . S
C1804 C1805 1.391 . S
C1805 H1793 0.950 . S
C1805 C1801 1.393 . S
C1805 C1804 1.391 . S
C1806 H1796 0.950 . S
C1806 C1807 1.386 . S
C1806 C1808 1.391 . S
C1807 C1806 1.386 . S
C1807 C1811 1.393 . S
C1808 H1797 0.950 . S
C1808 C1806 1.391 . S
C1808 C1809 1.400 . S
C1809 C1803 1.491 . S
C1809 C1808 1.400 . S
C1809 C1810 1.398 . S
C1810 H1798 0.950 . S
C1810 C1809 1.398 . S
C1810 C1811 1.391 . S
C1811 H1799 0.950 . S
C1811 C1807 1.393 . S
C1811 C1810 1.391 . S
H1812 C1820 0.950 . S
H1813 C1825 0.950 . S
H1814 C1822 0.950 . S
H1815 C1824 0.950 . S
H1816 C1826 0.950 . S
H1817 C1828 0.950 . S
H1818 C1830 0.950 . S
H1819 C1831 0.950 . S
C1820 H1812 0.950 . S
C1820 C1821 1.386 . S
C1820 C1822 1.391 . S
C1821 C1820 1.386 . S
C1821 C1825 1.393 . S
C1822 H1814 0.950 . S
C1822 C1820 1.391 . S
C1822 C1823 1.400 . S
C1823 C1822 1.400 . S
C1823 C1824 1.398 . S
C1823 C1829 1.491 . S
C1824 H1815 0.950 . S
C1824 C1823 1.398 . S
C1824 C1825 1.391 . S
C1825 H1813 0.950 . S
C1825 C1821 1.393 . S
C1825 C1824 1.391 . S
C1826 H1816 0.950 . S
C1826 C1827 1.386 . S
C1826 C1828 1.391 . S
C1827 C1826 1.386 . S
C1827 C1831 1.393 . S
C1828 H1817 0.950 . S
C1828 C1826 1.391 . S
C1828 C1829 1.400 . S
C1829 C1823 1.491 . S
C1829 C1828 1.400 . S
C1829 C1830 1.398 . S
C1830 H1818 0.950 . S
C1830 C1829 1.398 . S
C1830 C1831 1.391 . S
C1831 H1819 0.950 . S
C1831 C1827 1.393 . S
C1831 C1830 1.391 . S
H1832 C1840 0.950 . S
H1833 C1845 0.950 . S
H1834 C1842 0.950 . S
H1835 C1844 0.950 . S
H1836 C1846 0.950 . S
H1837 C1848 0.950 . S
H1838 C1850 0.950 . S
H1839 C1851 0.950 . S
C1840 H1832 0.950 . S
C1840 C1841 1.386 . S
C1840 C1842 1.391 . S
C1841 C1840 1.386 . S
C1841 C1845 1.393 . S
C1842 H1834 0.950 . S
C1842 C1840 1.391 . S
C1842 C1843 1.400 . S
C1843 C1842 1.400 . S
C1843 C1844 1.398 . S
C1843 C1849 1.491 . S
C1844 H1835 0.950 . S
C1844 C1843 1.398 . S
C1844 C1845 1.391 . S
C1845 H1833 0.950 . S
C1845 C1841 1.393 . S
C1845 C1844 1.391 . S
C1846 H1836 0.950 . S
C1846 C1847 1.386 . S
C1846 C1848 1.391 . S
C1847 C1846 1.386 . S
C1847 C1851 1.393 . S
C1848 H1837 0.950 . S
C1848 C1846 1.391 . S
C1848 C1849 1.400 . S
C1849 C1843 1.491 . S
C1849 C1848 1.400 . S
C1849 C1850 1.398 . S
C1850 H1838 0.950 . S
C1850 C1849 1.398 . S
C1850 C1851 1.391 . S
C1851 H1839 0.950 . S
C1851 C1847 1.393 . S
C1851 C1850 1.391 . S
H1852 C1860 0.950 . S
H1853 C1865 0.950 . S
H1854 C1862 0.950 . S
H1855 C1864 0.950 . S
H1856 C1866 0.950 . S
H1857 C1868 0.950 . S
H1858 C1870 0.950 . S
H1859 C1871 0.950 . S
C1860 H1852 0.950 . S
C1860 C1861 1.386 . S
C1860 C1862 1.391 . S
C1861 C1860 1.386 . S
C1861 C1865 1.393 . S
C1862 H1854 0.950 . S
C1862 C1860 1.391 . S
C1862 C1863 1.400 . S
C1863 C1862 1.400 . S
C1863 C1864 1.398 . S
C1863 C1869 1.491 . S
C1864 H1855 0.950 . S
C1864 C1863 1.398 . S
C1864 C1865 1.391 . S
C1865 H1853 0.950 . S
C1865 C1861 1.393 . S
C1865 C1864 1.391 . S
C1866 H1856 0.950 . S
C1866 C1867 1.386 . S
C1866 C1868 1.391 . S
C1867 C1866 1.386 . S
C1867 C1871 1.393 . S
C1868 H1857 0.950 . S
C1868 C1866 1.391 . S
C1868 C1869 1.400 . S
C1869 C1863 1.491 . S
C1869 C1868 1.400 . S
C1869 C1870 1.398 . S
C1870 H1858 0.950 . S
C1870 C1869 1.398 . S
C1870 C1871 1.391 . S
C1871 H1859 0.950 . S
C1871 C1867 1.393 . S
C1871 C1870 1.391 . S
H1872 C1880 0.950 . S
H1873 C1885 0.950 . S
H1874 C1882 0.950 . S
H1875 C1884 0.950 . S
H1876 C1886 0.950 . S
H1877 C1888 0.950 . S
H1878 C1890 0.950 . S
H1879 C1891 0.950 . S
C1880 H1872 0.950 . S
C1880 C1881 1.386 . S
C1880 C1882 1.391 . S
C1881 C1880 1.386 . S
C1881 C1885 1.393 . S
C1882 H1874 0.950 . S
C1882 C1880 1.391 . S
C1882 C1883 1.400 . S
C1883 C1882 1.400 . S
C1883 C1884 1.398 . S
C1883 C1889 1.491 . S
C1884 H1875 0.950 . S
C1884 C1883 1.398 . S
C1884 C1885 1.391 . S
C1885 H1873 0.950 . S
C1885 C1881 1.393 . S
C1885 C1884 1.391 . S
C1886 H1876 0.950 . S
C1886 C1887 1.386 . S
C1886 C1888 1.391 . S
C1887 C1886 1.386 . S
C1887 C1891 1.393 . S
C1888 H1877 0.950 . S
C1888 C1886 1.391 . S
C1888 C1889 1.400 . S
C1889 C1883 1.491 . S
C1889 C1888 1.400 . S
C1889 C1890 1.398 . S
C1890 H1878 0.950 . S
C1890 C1889 1.398 . S
C1890 C1891 1.391 . S
C1891 H1879 0.950 . S
C1891 C1887 1.393 . S
C1891 C1890 1.391 . S
H1892 C1900 0.950 . S
H1893 C1905 0.950 . S
H1894 C1902 0.950 . S
H1895 C1904 0.950 . S
H1896 C1906 0.950 . S
H1897 C1908 0.950 . S
H1898 C1910 0.950 . S
H1899 C1911 0.950 . S
C1900 H1892 0.950 . S
C1900 C1901 1.386 . S
C1900 C1902 1.391 . S
C1901 C1900 1.386 . S
C1901 C1905 1.393 . S
C1902 H1894 0.950 . S
C1902 C1900 1.391 . S
C1902 C1903 1.400 . S
C1903 C1902 1.400 . S
C1903 C1904 1.398 . S
C1903 C1909 1.491 . S
C1904 H1895 0.950 . S
C1904 C1903 1.398 . S
C1904 C1905 1.391 . S
C1905 H1893 0.950 . S
C1905 C1901 1.393 . S
C1905 C1904 1.391 . S
C1906 H1896 0.950 . S
C1906 C1907 1.386 . S
C1906 C1908 1.391 . S
C1907 C1906 1.386 . S
C1907 C1911 1.393 . S
C1908 H1897 0.950 . S
C1908 C1906 1.391 . S
C1908 C1909 1.400 . S
C1909 C1903 1.491 . S
C1909 C1908 1.400 . S
C1909 C1910 1.398 . S
C1910 H1898 0.950 . S
C1910 C1909 1.398 . S
C1910 C1911 1.391 . S
C1911 H1899 0.950 . S
C1911 C1907 1.393 . S
C1911 C1910 1.391 . S
H1912 C1920 0.950 . S
H1913 C1925 0.950 . S
H1914 C1922 0.950 . S
H1915 C1924 0.950 . S
H1916 C1926 0.950 . S
H1917 C1928 0.950 . S
H1918 C1930 0.950 . S
H1919 C1931 0.950 . S
C1920 H1912 0.950 . S
C1920 C1921 1.386 . S
C1920 C1922 1.391 . S
C1921 C1920 1.386 . S
C1921 C1925 1.393 . S
C1922 H1914 0.950 . S
C1922 C1920 1.391 . S
C1922 C1923 1.400 . S
C1923 C1922 1.400 . S
C1923 C1924 1.398 . S
C1923 C1929 1.491 . S
C1924 H1915 0.950 . S
C1924 C1923 1.398 . S
C1924 C1925 1.391 . S
C1925 H1913 0.950 . S
C1925 C1921 1.393 . S
C1925 C1924 1.391 . S
C1926 H1916 0.950 . S
C1926 C1927 1.386 . S
C1926 C1928 1.391 . S
C1927 C1926 1.386 . S
C1927 C1931 1.393 . S
C1928 H1917 0.950 . S
C1928 C1926 1.391 . S
C1928 C1929 1.400 . S
C1929 C1923 1.491 . S
C1929 C1928 1.400 . S
C1929 C1930 1.398 . S
C1930 H1918 0.950 . S
C1930 C1929 1.398 . S
C1930 C1931 1.391 . S
C1931 H1919 0.950 . S
C1931 C1927 1.393 . S
C1931 C1930 1.391 . S
H1932 C1940 0.950 . S
H1933 C1945 0.950 . S
H1934 C1942 0.950 . S
H1935 C1944 0.950 . S
H1936 C1946 0.950 . S
H1937 C1948 0.950 . S
H1938 C1950 0.950 . S
H1939 C1951 0.950 . S
C1940 H1932 0.950 . S
C1940 C1941 1.386 . S
C1940 C1942 1.391 . S
C1941 C1940 1.386 . S
C1941 C1945 1.393 . S
C1942 H1934 0.950 . S
C1942 C1940 1.391 . S
C1942 C1943 1.400 . S
C1943 C1942 1.400 . S
C1943 C1944 1.398 . S
C1943 C1949 1.491 . S
C1944 H1935 0.950 . S
C1944 C1943 1.398 . S
C1944 C1945 1.391 . S
C1945 H1933 0.950 . S
C1945 C1941 1.393 . S
C1945 C1944 1.391 . S
C1946 H1936 0.950 . S
C1946 C1947 1.386 . S
C1946 C1948 1.391 . S
C1947 C1946 1.386 . S
C1947 C1951 1.393 . S
C1948 H1937 0.950 . S
C1948 C1946 1.391 . S
C1948 C1949 1.400 . S
C1949 C1943 1.491 . S
C1949 C1948 1.400 . S
C1949 C1950 1.398 . S
C1950 H1938 0.950 . S
C1950 C1949 1.398 . S
C1950 C1951 1.391 . S
C1951 H1939 0.950 . S
C1951 C1947 1.393 . S
C1951 C1950 1.391 . S
H1952 C1960 0.950 . S
H1953 C1965 0.950 . S
H1954 C1962 0.950 . S
H1955 C1964 0.950 . S
H1956 C1966 0.950 . S
H1957 C1968 0.950 . S
H1958 C1970 0.950 . S
H1959 C1971 0.950 . S
C1960 H1952 0.950 . S
C1960 C1961 1.386 . S
C1960 C1962 1.391 . S
C1961 C1960 1.386 . S
C1961 C1965 1.393 . S
C1962 H1954 0.950 . S
C1962 C1960 1.391 . S
C1962 C1963 1.400 . S
C1963 C1962 1.400 . S
C1963 C1964 1.398 . S
C1963 C1969 1.491 . S
C1964 H1955 0.950 . S
C1964 C1963 1.398 . S
C1964 C1965 1.391 . S
C1965 H1953 0.950 . S
C1965 C1961 1.393 . S
C1965 C1964 1.391 . S
C1966 H1956 0.950 . S
C1966 C1967 1.386 . S
C1966 C1968 1.391 . S
C1967 C1966 1.386 . S
C1967 C1971 1.393 . S
C1968 H1957 0.950 . S
C1968 C1966 1.391 . S
C1968 C1969 1.400 . S
C1969 C1963 1.491 . S
C1969 C1968 1.400 . S
C1969 C1970 1.398 . S
C1970 H1958 0.950 . S
C1970 C1969 1.398 . S
C1970 C1971 1.391 . S
C1971 H1959 0.950 . S
C1971 C1967 1.393 . S
C1971 C1970 1.391 . S
H1972 C1980 0.950 . S
H1973 C1985 0.950 . S
H1974 C1982 0.950 . S
H1975 C1984 0.950 . S
H1976 C1986 0.950 . S
H1977 C1988 0.950 . S
H1978 C1990 0.950 . S
H1979 C1991 0.950 . S
C1980 H1972 0.950 . S
C1980 C1981 1.386 . S
C1980 C1982 1.391 . S
C1981 C1980 1.386 . S
C1981 C1985 1.393 . S
C1982 H1974 0.950 . S
C1982 C1980 1.391 . S
C1982 C1983 1.400 . S
C1983 C1982 1.400 . S
C1983 C1984 1.398 . S
C1983 C1989 1.491 . S
C1984 H1975 0.950 . S
C1984 C1983 1.398 . S
C1984 C1985 1.391 . S
C1985 H1973 0.950 . S
C1985 C1981 1.393 . S
C1985 C1984 1.391 . S
C1986 H1976 0.950 . S
C1986 C1987 1.386 . S
C1986 C1988 1.391 . S
C1987 C1986 1.386 . S
C1987 C1991 1.393 . S
C1988 H1977 0.950 . S
C1988 C1986 1.391 . S
C1988 C1989 1.400 . S
C1989 C1983 1.491 . S
C1989 C1988 1.400 . S
C1989 C1990 1.398 . S
C1990 H1978 0.950 . S
C1990 C1989 1.398 . S
C1990 C1991 1.391 . S
C1991 H1979 0.950 . S
C1991 C1987 1.393 . S
C1991 C1990 1.391 . S
H1992 C2000 0.950 . S
H1993 C2005 0.950 . S
H1994 C2002 0.950 . S
H1995 C2004 0.950 . S
H1996 C2006 0.950 . S
H1997 C2008 0.950 . S
H1998 C2010 0.950 . S
H1999 C2011 0.950 . S
C2000 H1992 0.950 . S
C2000 C2001 1.386 . S
C2000 C2002 1.391 . S
C2001 C2000 1.386 . S
C2001 C2005 1.393 . S
C2002 H1994 0.950 . S
C2002 C2000 1.391 . S
C2002 C2003 1.400 . S
C2003 C2002 1.400 . S
C2003 C2004 1.398 . S
C2003 C2009 1.491 . S
C2004 H1995 0.950 . S
C2004 C2003 1.398 . S
C2004 C2005 1.391 . S
C2005 H1993 0.950 . S
C2005 C2001 1.393 . S
C2005 C2004 1.391 . S
C2006 H1996 0.950 . S
C2006 C2007 1.386 . S
C2006 C2008 1.391 . S
C2007 C2006 1.386 . S
C2007 C2011 1.393 . S
C2008 H1997 0.950 . S
C2008 C2006 1.391 . S
C2008 C2009 1.400 . S
C2009 C2003 1.491 . S
C2009 C2008 1.400 . S
C2009 C2010 1.398 . S
C2010 H1998 0.950 . S
C2010 C2009 1.398 . S
C2010 C2011 1.391 . S
C2011 H1999 0.950 . S
C2011 C2007 1.393 . S
C2011 C2010 1.391 . S
H2012 C2020 0.950 . S
H2013 C2025 0.950 . S
H2014 C2022 0.950 . S
H2015 C2024 0.950 . S
H2016 C2026 0.950 . S
H2017 C2028 0.950 . S
H2018 C2030 0.950 . S
H2019 C2031 0.950 . S
C2020 H2012 0.950 . S
C2020 C2021 1.386 . S
C2020 C2022 1.391 . S
C2021 C2020 1.386 . S
C2021 C2025 1.393 . S
C2022 H2014 0.950 . S
C2022 C2020 1.391 . S
C2022 C2023 1.400 . S
C2023 C2022 1.400 . S
C2023 C2024 1.398 . S
C2023 C2029 1.491 . S
C2024 H2015 0.950 . S
C2024 C2023 1.398 . S
C2024 C2025 1.391 . S
C2025 H2013 0.950 . S
C2025 C2021 1.393 . S
C2025 C2024 1.391 . S
C2026 H2016 0.950 . S
C2026 C2027 1.386 . S
C2026 C2028 1.391 . S
C2027 C2026 1.386 . S
C2027 C2031 1.393 . S
C2028 H2017 0.950 . S
C2028 C2026 1.391 . S
C2028 C2029 1.400 . S
C2029 C2023 1.491 . S
C2029 C2028 1.400 . S
C2029 C2030 1.398 . S
C2030 H2018 0.950 . S
C2030 C2029 1.398 . S
C2030 C2031 1.391 . S
C2031 H2019 0.950 . S
C2031 C2027 1.393 . S
C2031 C2030 1.391 . S
H2032 C2040 0.950 . S
H2033 C2045 0.950 . S
H2034 C2042 0.950 . S
H2035 C2044 0.950 . S
H2036 C2046 0.950 . S
H2037 C2048 0.950 . S
H2038 C2050 0.950 . S
H2039 C2051 0.950 . S
C2040 H2032 0.950 . S
C2040 C2041 1.386 . S
C2040 C2042 1.391 . S
C2041 C2040 1.386 . S
C2041 C2045 1.393 . S
C2042 H2034 0.950 . S
C2042 C2040 1.391 . S
C2042 C2043 1.400 . S
C2043 C2042 1.400 . S
C2043 C2044 1.398 . S
C2043 C2049 1.491 . S
C2044 H2035 0.950 . S
C2044 C2043 1.398 . S
C2044 C2045 1.391 . S
C2045 H2033 0.950 . S
C2045 C2041 1.393 . S
C2045 C2044 1.391 . S
C2046 H2036 0.950 . S
C2046 C2047 1.386 . S
C2046 C2048 1.391 . S
C2047 C2046 1.386 . S
C2047 C2051 1.393 . S
C2048 H2037 0.950 . S
C2048 C2046 1.391 . S
C2048 C2049 1.400 . S
C2049 C2043 1.491 . S
C2049 C2048 1.400 . S
C2049 C2050 1.398 . S
C2050 H2038 0.950 . S
C2050 C2049 1.398 . S
C2050 C2051 1.391 . S
C2051 H2039 0.950 . S
C2051 C2047 1.393 . S
C2051 C2050 1.391 . S
H2052 C2060 0.950 . S
H2053 C2065 0.950 . S
H2054 C2062 0.950 . S
H2055 C2064 0.950 . S
H2056 C2066 0.950 . S
H2057 C2068 0.950 . S
H2058 C2070 0.950 . S
H2059 C2071 0.950 . S
C2060 H2052 0.950 . S
C2060 C2061 1.386 . S
C2060 C2062 1.391 . S
C2061 C2060 1.386 . S
C2061 C2065 1.393 . S
C2062 H2054 0.950 . S
C2062 C2060 1.391 . S
C2062 C2063 1.400 . S
C2063 C2062 1.400 . S
C2063 C2064 1.398 . S
C2063 C2069 1.491 . S
C2064 H2055 0.950 . S
C2064 C2063 1.398 . S
C2064 C2065 1.391 . S
C2065 H2053 0.950 . S
C2065 C2061 1.393 . S
C2065 C2064 1.391 . S
C2066 H2056 0.950 . S
C2066 C2067 1.386 . S
C2066 C2068 1.391 . S
C2067 C2066 1.386 . S
C2067 C2071 1.393 . S
C2068 H2057 0.950 . S
C2068 C2066 1.391 . S
C2068 C2069 1.400 . S
C2069 C2063 1.491 . S
C2069 C2068 1.400 . S
C2069 C2070 1.398 . S
C2070 H2058 0.950 . S
C2070 C2069 1.398 . S
C2070 C2071 1.391 . S
C2071 H2059 0.950 . S
C2071 C2067 1.393 . S
C2071 C2070 1.391 . S
H2072 C2080 0.950 . S
H2073 C2085 0.950 . S
H2074 C2082 0.950 . S
H2075 C2084 0.950 . S
H2076 C2086 0.950 . S
H2077 C2088 0.950 . S
H2078 C2090 0.950 . S
H2079 C2091 0.950 . S
C2080 H2072 0.950 . S
C2080 C2081 1.386 . S
C2080 C2082 1.391 . S
C2081 C2080 1.386 . S
C2081 C2085 1.393 . S
C2082 H2074 0.950 . S
C2082 C2080 1.391 . S
C2082 C2083 1.400 . S
C2083 C2082 1.400 . S
C2083 C2084 1.398 . S
C2083 C2089 1.491 . S
C2084 H2075 0.950 . S
C2084 C2083 1.398 . S
C2084 C2085 1.391 . S
C2085 H2073 0.950 . S
C2085 C2081 1.393 . S
C2085 C2084 1.391 . S
C2086 H2076 0.950 . S
C2086 C2087 1.386 . S
C2086 C2088 1.391 . S
C2087 C2086 1.386 . S
C2087 C2091 1.393 . S
C2088 H2077 0.950 . S
C2088 C2086 1.391 . S
C2088 C2089 1.400 . S
C2089 C2083 1.491 . S
C2089 C2088 1.400 . S
C2089 C2090 1.398 . S
C2090 H2078 0.950 . S
C2090 C2089 1.398 . S
C2090 C2091 1.391 . S
C2091 H2079 0.950 . S
C2091 C2087 1.393 . S
C2091 C2090 1.391 . S
H2092 C2100 0.950 . S
H2093 C2105 0.950 . S
H2094 C2102 0.950 . S
H2095 C2104 0.950 . S
H2096 C2106 0.950 . S
H2097 C2108 0.950 . S
H2098 C2110 0.950 . S
H2099 C2111 0.950 . S
C2100 H2092 0.950 . S
C2100 C2101 1.386 . S
C2100 C2102 1.391 . S
C2101 C2100 1.386 . S
C2101 C2105 1.393 . S
C2102 H2094 0.950 . S
C2102 C2100 1.391 . S
C2102 C2103 1.400 . S
C2103 C2102 1.400 . S
C2103 C2104 1.398 . S
C2103 C2109 1.491 . S
C2104 H2095 0.950 . S
C2104 C2103 1.398 . S
C2104 C2105 1.391 . S
C2105 H2093 0.950 . S
C2105 C2101 1.393 . S
C2105 C2104 1.391 . S
C2106 H2096 0.950 . S
C2106 C2107 1.386 . S
C2106 C2108 1.391 . S
C2107 C2106 1.386 . S
C2107 C2111 1.393 . S
C2108 H2097 0.950 . S
C2108 C2106 1.391 . S
C2108 C2109 1.400 . S
C2109 C2103 1.491 . S
C2109 C2108 1.400 . S
C2109 C2110 1.398 . S
C2110 H2098 0.950 . S
C2110 C2109 1.398 . S
C2110 C2111 1.391 . S
C2111 H2099 0.950 . S
C2111 C2107 1.393 . S
C2111 C2110 1.391 . S
H2112 C2120 0.950 . S
H2113 C2125 0.950 . S
H2114 C2122 0.950 . S
H2115 C2124 0.950 . S
H2116 C2126 0.950 . S
H2117 C2128 0.950 . S
H2118 C2130 0.950 . S
H2119 C2131 0.950 . S
C2120 H2112 0.950 . S
C2120 C2121 1.386 . S
C2120 C2122 1.391 . S
C2121 C2120 1.386 . S
C2121 C2125 1.393 . S
C2122 H2114 0.950 . S
C2122 C2120 1.391 . S
C2122 C2123 1.400 . S
C2123 C2122 1.400 . S
C2123 C2124 1.398 . S
C2123 C2129 1.491 . S
C2124 H2115 0.950 . S
C2124 C2123 1.398 . S
C2124 C2125 1.391 . S
C2125 H2113 0.950 . S
C2125 C2121 1.393 . S
C2125 C2124 1.391 . S
C2126 H2116 0.950 . S
C2126 C2127 1.386 . S
C2126 C2128 1.391 . S
C2127 C2126 1.386 . S
C2127 C2131 1.393 . S
C2128 H2117 0.950 . S
C2128 C2126 1.391 . S
C2128 C2129 1.400 . S
C2129 C2123 1.491 . S
C2129 C2128 1.400 . S
C2129 C2130 1.398 . S
C2130 H2118 0.950 . S
C2130 C2129 1.398 . S
C2130 C2131 1.391 . S
C2131 H2119 0.950 . S
C2131 C2127 1.393 . S
C2131 C2130 1.391 . S
H2132 C2140 0.950 . S
H2133 C2145 0.950 . S
H2134 C2142 0.950 . S
H2135 C2144 0.950 . S
H2136 C2146 0.950 . S
H2137 C2148 0.950 . S
H2138 C2150 0.950 . S
H2139 C2151 0.950 . S
C2140 H2132 0.950 . S
C2140 C2141 1.386 . S
C2140 C2142 1.391 . S
C2141 C2140 1.386 . S
C2141 C2145 1.393 . S
C2142 H2134 0.950 . S
C2142 C2140 1.391 . S
C2142 C2143 1.400 . S
C2143 C2142 1.400 . S
C2143 C2144 1.398 . S
C2143 C2149 1.491 . S
C2144 H2135 0.950 . S
C2144 C2143 1.398 . S
C2144 C2145 1.391 . S
C2145 H2133 0.950 . S
C2145 C2141 1.393 . S
C2145 C2144 1.391 . S
C2146 H2136 0.950 . S
C2146 C2147 1.386 . S
C2146 C2148 1.391 . S
C2147 C2146 1.386 . S
C2147 C2151 1.393 . S
C2148 H2137 0.950 . S
C2148 C2146 1.391 . S
C2148 C2149 1.400 . S
C2149 C2143 1.491 . S
C2149 C2148 1.400 . S
C2149 C2150 1.398 . S
C2150 H2138 0.950 . S
C2150 C2149 1.398 . S
C2150 C2151 1.391 . S
C2151 H2139 0.950 . S
C2151 C2147 1.393 . S
C2151 C2150 1.391 . S
H2152 C2160 0.950 . S
H2153 C2165 0.950 . S
H2154 C2162 0.950 . S
H2155 C2164 0.950 . S
H2156 C2166 0.950 . S
H2157 C2168 0.950 . S
H2158 C2170 0.950 . S
H2159 C2171 0.950 . S
C2160 H2152 0.950 . S
C2160 C2161 1.386 . S
C2160 C2162 1.391 . S
C2161 C2160 1.386 . S
C2161 C2165 1.393 . S
C2162 H2154 0.950 . S
C2162 C2160 1.391 . S
C2162 C2163 1.400 . S
C2163 C2162 1.400 . S
C2163 C2164 1.398 . S
C2163 C2169 1.491 . S
C2164 H2155 0.950 . S
C2164 C2163 1.398 . S
C2164 C2165 1.391 . S
C2165 H2153 0.950 . S
C2165 C2161 1.393 . S
C2165 C2164 1.391 . S
C2166 H2156 0.950 . S
C2166 C2167 1.386 . S
C2166 C2168 1.391 . S
C2167 C2166 1.386 . S
C2167 C2171 1.393 . S
C2168 H2157 0.950 . S
C2168 C2166 1.391 . S
C2168 C2169 1.400 . S
C2169 C2163 1.491 . S
C2169 C2168 1.400 . S
C2169 C2170 1.398 . S
C2170 H2158 0.950 . S
C2170 C2169 1.398 . S
C2170 C2171 1.391 . S
C2171 H2159 0.950 . S
C2171 C2167 1.393 . S
C2171 C2170 1.391 . S
H2172 C2180 0.950 . S
H2173 C2185 0.950 . S
H2174 C2182 0.950 . S
H2175 C2184 0.950 . S
H2176 C2186 0.950 . S
H2177 C2188 0.950 . S
H2178 C2190 0.950 . S
H2179 C2191 0.950 . S
C2180 H2172 0.950 . S
C2180 C2181 1.386 . S
C2180 C2182 1.391 . S
C2181 C2180 1.386 . S
C2181 C2185 1.393 . S
C2182 H2174 0.950 . S
C2182 C2180 1.391 . S
C2182 C2183 1.400 . S
C2183 C2182 1.400 . S
C2183 C2184 1.398 . S
C2183 C2189 1.491 . S
C2184 H2175 0.950 . S
C2184 C2183 1.398 . S
C2184 C2185 1.391 . S
C2185 H2173 0.950 . S
C2185 C2181 1.393 . S
C2185 C2184 1.391 . S
C2186 H2176 0.950 . S
C2186 C2187 1.386 . S
C2186 C2188 1.391 . S
C2187 C2186 1.386 . S
C2187 C2191 1.393 . S
C2188 H2177 0.950 . S
C2188 C2186 1.391 . S
C2188 C2189 1.400 . S
C2189 C2183 1.491 . S
C2189 C2188 1.400 . S
C2189 C2190 1.398 . S
C2190 H2178 0.950 . S
C2190 C2189 1.398 . S
C2190 C2191 1.391 . S
C2191 H2179 0.950 . S
C2191 C2187 1.393 . S
C2191 C2190 1.391 . S
H2192 C2200 0.950 . S
H2193 C2205 0.950 . S
H2194 C2202 0.950 . S
H2195 C2204 0.950 . S
H2196 C2206 0.950 . S
H2197 C2208 0.950 . S
H2198 C2210 0.950 . S
H2199 C2211 0.950 . S
C2200 H2192 0.950 . S
C2200 C2201 1.386 . S
C2200 C2202 1.391 . S
C2201 C2200 1.386 . S
C2201 C2205 1.393 . S
C2202 H2194 0.950 . S
C2202 C2200 1.391 . S
C2202 C2203 1.400 . S
C2203 C2202 1.400 . S
C2203 C2204 1.398 . S
C2203 C2209 1.491 . S
C2204 H2195 0.950 . S
C2204 C2203 1.398 . S
C2204 C2205 1.391 . S
C2205 H2193 0.950 . S
C2205 C2201 1.393 . S
C2205 C2204 1.391 . S
C2206 H2196 0.950 . S
C2206 C2207 1.386 . S
C2206 C2208 1.391 . S
C2207 C2206 1.386 . S
C2207 C2211 1.393 . S
C2208 H2197 0.950 . S
C2208 C2206 1.391 . S
C2208 C2209 1.400 . S
C2209 C2203 1.491 . S
C2209 C2208 1.400 . S
C2209 C2210 1.398 . S
C2210 H2198 0.950 . S
C2210 C2209 1.398 . S
C2210 C2211 1.391 . S
C2211 H2199 0.950 . S
C2211 C2207 1.393 . S
C2211 C2210 1.391 . S
H2212 C2220 0.950 . S
H2213 C2225 0.950 . S
H2214 C2222 0.950 . S
H2215 C2224 0.950 . S
H2216 C2226 0.950 . S
H2217 C2228 0.950 . S
H2218 C2230 0.950 . S
H2219 C2231 0.950 . S
C2220 H2212 0.950 . S
C2220 C2221 1.386 . S
C2220 C2222 1.391 . S
C2221 C2220 1.386 . S
C2221 C2225 1.393 . S
C2222 H2214 0.950 . S
C2222 C2220 1.391 . S
C2222 C2223 1.400 . S
C2223 C2222 1.400 . S
C2223 C2224 1.398 . S
C2223 C2229 1.491 . S
C2224 H2215 0.950 . S
C2224 C2223 1.398 . S
C2224 C2225 1.391 . S
C2225 H2213 0.950 . S
C2225 C2221 1.393 . S
C2225 C2224 1.391 . S
C2226 H2216 0.950 . S
C2226 C2227 1.386 . S
C2226 C2228 1.391 . S
C2227 C2226 1.386 . S
C2227 C2231 1.393 . S
C2228 H2217 0.950 . S
C2228 C2226 1.391 . S
C2228 C2229 1.400 . S
C2229 C2223 1.491 . S
C2229 C2228 1.400 . S
C2229 C2230 1.398 . S
C2230 H2218 0.950 . S
C2230 C2229 1.398 . S
C2230 C2231 1.391 . S
C2231 H2219 0.950 . S
C2231 C2227 1.393 . S
C2231 C2230 1.391 . S
H2232 C2240 0.950 . S
H2233 C2245 0.950 . S
H2234 C2242 0.950 . S
H2235 C2244 0.950 . S
H2236 C2246 0.950 . S
H2237 C2248 0.950 . S
H2238 C2250 0.950 . S
H2239 C2251 0.950 . S
C2240 H2232 0.950 . S
C2240 C2241 1.386 . S
C2240 C2242 1.391 . S
C2241 C2240 1.386 . S
C2241 C2245 1.393 . S
C2242 H2234 0.950 . S
C2242 C2240 1.391 . S
C2242 C2243 1.400 . S
C2243 C2242 1.400 . S
C2243 C2244 1.398 . S
C2243 C2249 1.491 . S
C2244 H2235 0.950 . S
C2244 C2243 1.398 . S
C2244 C2245 1.391 . S
C2245 H2233 0.950 . S
C2245 C2241 1.393 . S
C2245 C2244 1.391 . S
C2246 H2236 0.950 . S
C2246 C2247 1.386 . S
C2246 C2248 1.391 . S
C2247 C2246 1.386 . S
C2247 C2251 1.393 . S
C2248 H2237 0.950 . S
C2248 C2246 1.391 . S
C2248 C2249 1.400 . S
C2249 C2243 1.491 . S
C2249 C2248 1.400 . S
C2249 C2250 1.398 . S
C2250 H2238 0.950 . S
C2250 C2249 1.398 . S
C2250 C2251 1.391 . S
C2251 H2239 0.950 . S
C2251 C2247 1.393 . S
C2251 C2250 1.391 . S
H2252 C2260 0.950 . S
H2253 C2265 0.950 . S
H2254 C2262 0.950 . S
H2255 C2264 0.950 . S
H2256 C2266 0.950 . S
H2257 C2268 0.950 . S
H2258 C2270 0.950 . S
H2259 C2271 0.950 . S
C2260 H2252 0.950 . S
C2260 C2261 1.386 . S
C2260 C2262 1.391 . S
C2261 C2260 1.386 . S
C2261 C2265 1.393 . S
C2262 H2254 0.950 . S
C2262 C2260 1.391 . S
C2262 C2263 1.400 . S
C2263 C2262 1.400 . S
C2263 C2264 1.398 . S
C2263 C2269 1.491 . S
C2264 H2255 0.950 . S
C2264 C2263 1.398 . S
C2264 C2265 1.391 . S
C2265 H2253 0.950 . S
C2265 C2261 1.393 . S
C2265 C2264 1.391 . S
C2266 H2256 0.950 . S
C2266 C2267 1.386 . S
C2266 C2268 1.391 . S
C2267 C2266 1.386 . S
C2267 C2271 1.393 . S
C2268 H2257 0.950 . S
C2268 C2266 1.391 . S
C2268 C2269 1.400 . S
C2269 C2263 1.491 . S
C2269 C2268 1.400 . S
C2269 C2270 1.398 . S
C2270 H2258 0.950 . S
C2270 C2269 1.398 . S
C2270 C2271 1.391 . S
C2271 H2259 0.950 . S
C2271 C2267 1.393 . S
C2271 C2270 1.391 . S
H2272 C2280 0.950 . S
H2273 C2285 0.950 . S
H2274 C2282 0.950 . S
H2275 C2284 0.950 . S
H2276 C2286 0.950 . S
H2277 C2288 0.950 . S
H2278 C2290 0.950 . S
H2279 C2291 0.950 . S
C2280 H2272 0.950 . S
C2280 C2281 1.386 . S
C2280 C2282 1.391 . S
C2281 C2280 1.386 . S
C2281 C2285 1.393 . S
C2282 H2274 0.950 . S
C2282 C2280 1.391 . S
C2282 C2283 1.400 . S
C2283 C2282 1.400 . S
C2283 C2284 1.398 . S
C2283 C2289 1.491 . S
C2284 H2275 0.950 . S
C2284 C2283 1.398 . S
C2284 C2285 1.391 . S
C2285 H2273 0.950 . S
C2285 C2281 1.393 . S
C2285 C2284 1.391 . S
C2286 H2276 0.950 . S
C2286 C2287 1.386 . S
C2286 C2288 1.391 . S
C2287 C2286 1.386 . S
C2287 C2291 1.393 . S
C2288 H2277 0.950 . S
C2288 C2286 1.391 . S
C2288 C2289 1.400 . S
C2289 C2283 1.491 . S
C2289 C2288 1.400 . S
C2289 C2290 1.398 . S
C2290 H2278 0.950 . S
C2290 C2289 1.398 . S
C2290 C2291 1.391 . S
C2291 H2279 0.950 . S
C2291 C2287 1.393 . S
C2291 C2290 1.391 . S
H2292 C2300 0.950 . S
H2293 C2305 0.950 . S
H2294 C2302 0.950 . S
H2295 C2304 0.950 . S
H2296 C2306 0.950 . S
H2297 C2308 0.950 . S
H2298 C2310 0.950 . S
H2299 C2311 0.950 . S
C2300 H2292 0.950 . S
C2300 C2301 1.386 . S
C2300 C2302 1.391 . S
C2301 C2300 1.386 . S
C2301 C2305 1.393 . S
C2302 H2294 0.950 . S
C2302 C2300 1.391 . S
C2302 C2303 1.400 . S
C2303 C2302 1.400 . S
C2303 C2304 1.398 . S
C2303 C2309 1.491 . S
C2304 H2295 0.950 . S
C2304 C2303 1.398 . S
C2304 C2305 1.391 . S
C2305 H2293 0.950 . S
C2305 C2301 1.393 . S
C2305 C2304 1.391 . S
C2306 H2296 0.950 . S
C2306 C2307 1.386 . S
C2306 C2308 1.391 . S
C2307 C2306 1.386 . S
C2307 C2311 1.393 . S
C2308 H2297 0.950 . S
C2308 C2306 1.391 . S
C2308 C2309 1.400 . S
C2309 C2303 1.491 . S
C2309 C2308 1.400 . S
C2309 C2310 1.398 . S
C2310 H2298 0.950 . S
C2310 C2309 1.398 . S
C2310 C2311 1.391 . S
C2311 H2299 0.950 . S
C2311 C2307 1.393 . S
C2311 C2310 1.391 . S
H2312 C2320 0.950 . S
H2313 C2325 0.950 . S
H2314 C2322 0.950 . S
H2315 C2324 0.950 . S
H2316 C2326 0.950 . S
H2317 C2328 0.950 . S
H2318 C2330 0.950 . S
H2319 C2331 0.950 . S
C2320 H2312 0.950 . S
C2320 C2321 1.386 . S
C2320 C2322 1.391 . S
C2321 C2320 1.386 . S
C2321 C2325 1.393 . S
C2322 H2314 0.950 . S
C2322 C2320 1.391 . S
C2322 C2323 1.400 . S
C2323 C2322 1.400 . S
C2323 C2324 1.398 . S
C2323 C2329 1.491 . S
C2324 H2315 0.950 . S
C2324 C2323 1.398 . S
C2324 C2325 1.391 . S
C2325 H2313 0.950 . S
C2325 C2321 1.393 . S
C2325 C2324 1.391 . S
C2326 H2316 0.950 . S
C2326 C2327 1.386 . S
C2326 C2328 1.391 . S
C2327 C2326 1.386 . S
C2327 C2331 1.393 . S
C2328 H2317 0.950 . S
C2328 C2326 1.391 . S
C2328 C2329 1.400 . S
C2329 C2323 1.491 . S
C2329 C2328 1.400 . S
C2329 C2330 1.398 . S
C2330 H2318 0.950 . S
C2330 C2329 1.398 . S
C2330 C2331 1.391 . S
C2331 H2319 0.950 . S
C2331 C2327 1.393 . S
C2331 C2330 1.391 . S
H2332 C2340 0.950 . S
H2333 C2345 0.950 . S
H2334 C2342 0.950 . S
H2335 C2344 0.950 . S
H2336 C2346 0.950 . S
H2337 C2348 0.950 . S
H2338 C2350 0.950 . S
H2339 C2351 0.950 . S
C2340 H2332 0.950 . S
C2340 C2341 1.386 . S
C2340 C2342 1.391 . S
C2341 C2340 1.386 . S
C2341 C2345 1.393 . S
C2342 H2334 0.950 . S
C2342 C2340 1.391 . S
C2342 C2343 1.400 . S
C2343 C2342 1.400 . S
C2343 C2344 1.398 . S
C2343 C2349 1.491 . S
C2344 H2335 0.950 . S
C2344 C2343 1.398 . S
C2344 C2345 1.391 . S
C2345 H2333 0.950 . S
C2345 C2341 1.393 . S
C2345 C2344 1.391 . S
C2346 H2336 0.950 . S
C2346 C2347 1.386 . S
C2346 C2348 1.391 . S
C2347 C2346 1.386 . S
C2347 C2351 1.393 . S
C2348 H2337 0.950 . S
C2348 C2346 1.391 . S
C2348 C2349 1.400 . S
C2349 C2343 1.491 . S
C2349 C2348 1.400 . S
C2349 C2350 1.398 . S
C2350 H2338 0.950 . S
C2350 C2349 1.398 . S
C2350 C2351 1.391 . S
C2351 H2339 0.950 . S
C2351 C2347 1.393 . S
C2351 C2350 1.391 . S
H2352 C2360 0.950 . S
H2353 C2365 0.950 . S
H2354 C2362 0.950 . S
H2355 C2364 0.950 . S
H2356 C2366 0.950 . S
H2357 C2368 0.950 . S
H2358 C2370 0.950 . S
H2359 C2371 0.950 . S
C2360 H2352 0.950 . S
C2360 C2361 1.386 . S
C2360 C2362 1.391 . S
C2361 C2360 1.386 . S
C2361 C2365 1.393 . S
C2362 H2354 0.950 . S
C2362 C2360 1.391 . S
C2362 C2363 1.400 . S
C2363 C2362 1.400 . S
C2363 C2364 1.398 . S
C2363 C2369 1.491 . S
C2364 H2355 0.950 . S
C2364 C2363 1.398 . S
C2364 C2365 1.391 . S
C2365 H2353 0.950 . S
C2365 C2361 1.393 . S
C2365 C2364 1.391 . S
C2366 H2356 0.950 . S
C2366 C2367 1.386 . S
C2366 C2368 1.391 . S
C2367 C2366 1.386 . S
C2367 C2371 1.393 . S
C2368 H2357 0.950 . S
C2368 C2366 1.391 . S
C2368 C2369 1.400 . S
C2369 C2363 1.491 . S
C2369 C2368 1.400 . S
C2369 C2370 1.398 . S
C2370 H2358 0.950 . S
C2370 C2369 1.398 . S
C2370 C2371 1.391 . S
C2371 H2359 0.950 . S
C2371 C2367 1.393 . S
C2371 C2370 1.391 . S
H2372 C2380 0.950 . S
H2373 C2385 0.950 . S
H2374 C2382 0.950 . S
H2375 C2384 0.950 . S
H2376 C2386 0.950 . S
H2377 C2388 0.950 . S
H2378 C2390 0.950 . S
H2379 C2391 0.950 . S
C2380 H2372 0.950 . S
C2380 C2381 1.386 . S
C2380 C2382 1.391 . S
C2381 C2380 1.386 . S
C2381 C2385 1.393 . S
C2382 H2374 0.950 . S
C2382 C2380 1.391 . S
C2382 C2383 1.400 . S
C2383 C2382 1.400 . S
C2383 C2384 1.398 . S
C2383 C2389 1.491 . S
C2384 H2375 0.950 . S
C2384 C2383 1.398 . S
C2384 C2385 1.391 . S
C2385 H2373 0.950 . S
C2385 C2381 1.393 . S
C2385 C2384 1.391 . S
C2386 H2376 0.950 . S
C2386 C2387 1.386 . S
C2386 C2388 1.391 . S
C2387 C2386 1.386 . S
C2387 C2391 1.393 . S
C2388 H2377 0.950 . S
C2388 C2386 1.391 . S
C2388 C2389 1.400 . S
C2389 C2383 1.491 . S
C2389 C2388 1.400 . S
C2389 C2390 1.398 . S
C2390 H2378 0.950 . S
C2390 C2389 1.398 . S
C2390 C2391 1.391 . S
C2391 H2379 0.950 . S
C2391 C2387 1.393 . S
C2391 C2390 1.391 . S
H2392 C2400 0.950 . S
H2393 C2405 0.950 . S
H2394 C2402 0.950 . S
H2395 C2404 0.950 . S
H2396 C2406 0.950 . S
H2397 C2408 0.950 . S
H2398 C2410 0.950 . S
H2399 C2411 0.950 . S
C2400 H2392 0.950 . S
C2400 C2401 1.386 . S
C2400 C2402 1.391 . S
C2401 C2400 1.386 . S
C2401 C2405 1.393 . S
C2402 H2394 0.950 . S
C2402 C2400 1.391 . S
C2402 C2403 1.400 . S
C2403 C2402 1.400 . S
C2403 C2404 1.398 . S
C2403 C2409 1.491 . S
C2404 H2395 0.950 . S
C2404 C2403 1.398 . S
C2404 C2405 1.391 . S
C2405 H2393 0.950 . S
C2405 C2401 1.393 . S
C2405 C2404 1.391 . S
C2406 H2396 0.950 . S
C2406 C2407 1.386 . S
C2406 C2408 1.391 . S
C2407 C2406 1.386 . S
C2407 C2411 1.393 . S
C2408 H2397 0.950 . S
C2408 C2406 1.391 . S
C2408 C2409 1.400 . S
C2409 C2403 1.491 . S
C2409 C2408 1.400 . S
C2409 C2410 1.398 . S
C2410 H2398 0.950 . S
C2410 C2409 1.398 . S
C2410 C2411 1.391 . S
C2411 H2399 0.950 . S
C2411 C2407 1.393 . S
C2411 C2410 1.391 . S
H2412 C2420 0.950 . S
H2413 C2425 0.950 . S
H2414 C2422 0.950 . S
H2415 C2424 0.950 . S
H2416 C2426 0.950 . S
H2417 C2428 0.950 . S
H2418 C2430 0.950 . S
H2419 C2431 0.950 . S
C2420 H2412 0.950 . S
C2420 C2421 1.386 . S
C2420 C2422 1.391 . S
C2421 C2420 1.386 . S
C2421 C2425 1.393 . S
C2422 H2414 0.950 . S
C2422 C2420 1.391 . S
C2422 C2423 1.400 . S
C2423 C2422 1.400 . S
C2423 C2424 1.398 . S
C2423 C2429 1.491 . S
C2424 H2415 0.950 . S
C2424 C2423 1.398 . S
C2424 C2425 1.391 . S
C2425 H2413 0.950 . S
C2425 C2421 1.393 . S
C2425 C2424 1.391 . S
C2426 H2416 0.950 . S
C2426 C2427 1.386 . S
C2426 C2428 1.391 . S
C2427 C2426 1.386 . S
C2427 C2431 1.393 . S
C2428 H2417 0.950 . S
C2428 C2426 1.391 . S
C2428 C2429 1.400 . S
C2429 C2423 1.491 . S
C2429 C2428 1.400 . S
C2429 C2430 1.398 . S
C2430 H2418 0.950 . S
C2430 C2429 1.398 . S
C2430 C2431 1.391 . S
C2431 H2419 0.950 . S
C2431 C2427 1.393 . S
C2431 C2430 1.391 . S
H2432 C2440 0.950 . S
H2433 C2445 0.950 . S
H2434 C2442 0.950 . S
H2435 C2444 0.950 . S
H2436 C2446 0.950 . S
H2437 C2448 0.950 . S
H2438 C2450 0.950 . S
H2439 C2451 0.950 . S
C2440 H2432 0.950 . S
C2440 C2441 1.386 . S
C2440 C2442 1.391 . S
C2441 C2440 1.386 . S
C2441 C2445 1.393 . S
C2442 H2434 0.950 . S
C2442 C2440 1.391 . S
C2442 C2443 1.400 . S
C2443 C2442 1.400 . S
C2443 C2444 1.398 . S
C2443 C2449 1.491 . S
C2444 H2435 0.950 . S
C2444 C2443 1.398 . S
C2444 C2445 1.391 . S
C2445 H2433 0.950 . S
C2445 C2441 1.393 . S
C2445 C2444 1.391 . S
C2446 H2436 0.950 . S
C2446 C2447 1.386 . S
C2446 C2448 1.391 . S
C2447 C2446 1.386 . S
C2447 C2451 1.393 . S
C2448 H2437 0.950 . S
C2448 C2446 1.391 . S
C2448 C2449 1.400 . S
C2449 C2443 1.491 . S
C2449 C2448 1.400 . S
C2449 C2450 1.398 . S
C2450 H2438 0.950 . S
C2450 C2449 1.398 . S
C2450 C2451 1.391 . S
C2451 H2439 0.950 . S
C2451 C2447 1.393 . S
C2451 C2450 1.391 . S
H2452 C2460 0.950 . S
H2453 C2465 0.950 . S
H2454 C2462 0.950 . S
H2455 C2464 0.950 . S
H2456 C2466 0.950 . S
H2457 C2468 0.950 . S
H2458 C2470 0.950 . S
H2459 C2471 0.950 . S
C2460 H2452 0.950 . S
C2460 C2461 1.386 . S
C2460 C2462 1.391 . S
C2461 C2460 1.386 . S
C2461 C2465 1.393 . S
C2462 H2454 0.950 . S
C2462 C2460 1.391 . S
C2462 C2463 1.400 . S
C2463 C2462 1.400 . S
C2463 C2464 1.398 . S
C2463 C2469 1.491 . S
C2464 H2455 0.950 . S
C2464 C2463 1.398 . S
C2464 C2465 1.391 . S
C2465 H2453 0.950 . S
C2465 C2461 1.393 . S
C2465 C2464 1.391 . S
C2466 H2456 0.950 . S
C2466 C2467 1.386 . S
C2466 C2468 1.391 . S
C2467 C2466 1.386 . S
C2467 C2471 1.393 . S
C2468 H2457 0.950 . S
C2468 C2466 1.391 . S
C2468 C2469 1.400 . S
C2469 C2463 1.491 . S
C2469 C2468 1.400 . S
C2469 C2470 1.398 . S
C2470 H2458 0.950 . S
C2470 C2469 1.398 . S
C2470 C2471 1.391 . S
C2471 H2459 0.950 . S
C2471 C2467 1.393 . S
C2471 C2470 1.391 . S
H2472 C2480 0.950 . S
H2473 C2485 0.950 . S
H2474 C2482 0.950 . S
H2475 C2484 0.950 . S
H2476 C2486 0.950 . S
H2477 C2488 0.950 . S
H2478 C2490 0.950 . S
H2479 C2491 0.950 . S
C2480 H2472 0.950 . S
C2480 C2481 1.386 . S
C2480 C2482 1.391 . S
C2481 C2480 1.386 . S
C2481 C2485 1.393 . S
C2482 H2474 0.950 . S
C2482 C2480 1.391 . S
C2482 C2483 1.400 . S
C2483 C2482 1.400 . S
C2483 C2484 1.398 . S
C2483 C2489 1.491 . S
C2484 H2475 0.950 . S
C2484 C2483 1.398 . S
C2484 C2485 1.391 . S
C2485 H2473 0.950 . S
C2485 C2481 1.393 . S
C2485 C2484 1.391 . S
C2486 H2476 0.950 . S
C2486 C2487 1.386 . S
C2486 C2488 1.391 . S
C2487 C2486 1.386 . S
C2487 C2491 1.393 . S
C2488 H2477 0.950 . S
C2488 C2486 1.391 . S
C2488 C2489 1.400 . S
C2489 C2483 1.491 . S
C2489 C2488 1.400 . S
C2489 C2490 1.398 . S
C2490 H2478 0.950 . S
C2490 C2489 1.398 . S
C2490 C2491 1.391 . S
C2491 H2479 0.950 . S
C2491 C2487 1.393 . S
C2491 C2490 1.391 . S
H2492 C2500 0.950 . S
H2493 C2505 0.950 . S
H2494 C2502 0.950 . S
H2495 C2504 0.950 . S
H2496 C2506 0.950 . S
H2497 C2508 0.950 . S
H2498 C2510 0.950 . S
H2499 C2511 0.950 . S
C2500 H2492 0.950 . S
C2500 C2501 1.386 . S
C2500 C2502 1.391 . S
C2501 C2500 1.386 . S
C2501 C2505 1.393 . S
C2502 H2494 0.950 . S
C2502 C2500 1.391 . S
C2502 C2503 1.400 . S
C2503 C2502 1.400 . S
C2503 C2504 1.398 . S
C2503 C2509 1.491 . S
C2504 H2495 0.950 . S
C2504 C2503 1.398 . S
C2504 C2505 1.391 . S
C2505 H2493 0.950 . S
C2505 C2501 1.393 . S
C2505 C2504 1.391 . S
C2506 H2496 0.950 . S
C2506 C2507 1.386 . S
C2506 C2508 1.391 . S
C2507 C2506 1.386 . S
C2507 C2511 1.393 . S
C2508 H2497 0.950 . S
C2508 C2506 1.391 . S
C2508 C2509 1.400 . S
C2509 C2503 1.491 . S
C2509 C2508 1.400 . S
C2509 C2510 1.398 . S
C2510 H2498 0.950 . S
C2510 C2509 1.398 . S
C2510 C2511 1.391 . S
C2511 H2499 0.950 . S
C2511 C2507 1.393 . S
C2511 C2510 1.391 . S
H2512 C2520 0.950 . S
H2513 C2525 0.950 . S
H2514 C2522 0.950 . S
H2515 C2524 0.950 . S
H2516 C2526 0.950 . S
H2517 C2528 0.950 . S
H2518 C2530 0.950 . S
H2519 C2531 0.950 . S
C2520 H2512 0.950 . S
C2520 C2521 1.386 . S
C2520 C2522 1.391 . S
C2521 C2520 1.386 . S
C2521 C2525 1.393 . S
C2522 H2514 0.950 . S
C2522 C2520 1.391 . S
C2522 C2523 1.400 . S
C2523 C2522 1.400 . S
C2523 C2524 1.398 . S
C2523 C2529 1.491 . S
C2524 H2515 0.950 . S
C2524 C2523 1.398 . S
C2524 C2525 1.391 . S
C2525 H2513 0.950 . S
C2525 C2521 1.393 . S
C2525 C2524 1.391 . S
C2526 H2516 0.950 . S
C2526 C2527 1.386 . S
C2526 C2528 1.391 . S
C2527 C2526 1.386 . S
C2527 C2531 1.393 . S
C2528 H2517 0.950 . S
C2528 C2526 1.391 . S
C2528 C2529 1.400 . S
C2529 C2523 1.491 . S
C2529 C2528 1.400 . S
C2529 C2530 1.398 . S
C2530 H2518 0.950 . S
C2530 C2529 1.398 . S
C2530 C2531 1.391 . S
C2531 H2519 0.950 . S
C2531 C2527 1.393 . S
C2531 C2530 1.391 . S
H2532 C2540 0.950 . S
H2533 C2545 0.950 . S
H2534 C2542 0.950 . S
H2535 C2544 0.950 . S
H2536 C2546 0.950 . S
H2537 C2548 0.950 . S
H2538 C2550 0.950 . S
H2539 C2551 0.950 . S
C2540 H2532 0.950 . S
C2540 C2541 1.386 . S
C2540 C2542 1.391 . S
C2541 C2540 1.386 . S
C2541 C2545 1.393 . S
C2542 H2534 0.950 . S
C2542 C2540 1.391 . S
C2542 C2543 1.400 . S
C2543 C2542 1.400 . S
C2543 C2544 1.398 . S
C2543 C2549 1.491 . S
C2544 H2535 0.950 . S
C2544 C2543 1.398 . S
C2544 C2545 1.391 . S
C2545 H2533 0.950 . S
C2545 C2541 1.393 . S
C2545 C2544 1.391 . S
C2546 H2536 0.950 . S
C2546 C2547 1.386 . S
C2546 C2548 1.391 . S
C2547 C2546 1.386 . S
C2547 C2551 1.393 . S
C2548 H2537 0.950 . S
C2548 C2546 1.391 . S
C2548 C2549 1.400 . S
C2549 C2543 1.491 . S
C2549 C2548 1.400 . S
C2549 C2550 1.398 . S
C2550 H2538 0.950 . S
C2550 C2549 1.398 . S
C2550 C2551 1.391 . S
C2551 H2539 0.950 . S
C2551 C2547 1.393 . S
C2551 C2550 1.391 . S
H2552 C2560 0.950 . S
H2553 C2565 0.950 . S
H2554 C2562 0.950 . S
H2555 C2564 0.950 . S
H2556 C2566 0.950 . S
H2557 C2568 0.950 . S
H2558 C2570 0.950 . S
H2559 C2571 0.950 . S
C2560 H2552 0.950 . S
C2560 C2561 1.386 . S
C2560 C2562 1.391 . S
C2561 C2560 1.386 . S
C2561 C2565 1.393 . S
C2562 H2554 0.950 . S
C2562 C2560 1.391 . S
C2562 C2563 1.400 . S
C2563 C2562 1.400 . S
C2563 C2564 1.398 . S
C2563 C2569 1.491 . S
C2564 H2555 0.950 . S
C2564 C2563 1.398 . S
C2564 C2565 1.391 . S
C2565 H2553 0.950 . S
C2565 C2561 1.393 . S
C2565 C2564 1.391 . S
C2566 H2556 0.950 . S
C2566 C2567 1.386 . S
C2566 C2568 1.391 . S
C2567 C2566 1.386 . S
C2567 C2571 1.393 . S
C2568 H2557 0.950 . S
C2568 C2566 1.391 . S
C2568 C2569 1.400 . S
C2569 C2563 1.491 . S
C2569 C2568 1.400 . S
C2569 C2570 1.398 . S
C2570 H2558 0.950 . S
C2570 C2569 1.398 . S
C2570 C2571 1.391 . S
C2571 H2559 0.950 . S
C2571 C2567 1.393 . S
C2571 C2570 1.391 . S
H2572 C2580 0.950 . S
H2573 C2585 0.950 . S
H2574 C2582 0.950 . S
H2575 C2584 0.950 . S
H2576 C2586 0.950 . S
H2577 C2588 0.950 . S
H2578 C2590 0.950 . S
H2579 C2591 0.950 . S
C2580 H2572 0.950 . S
C2580 C2581 1.386 . S
C2580 C2582 1.391 . S
C2581 C2580 1.386 . S
C2581 C2585 1.393 . S
C2582 H2574 0.950 . S
C2582 C2580 1.391 . S
C2582 C2583 1.400 . S
C2583 C2582 1.400 . S
C2583 C2584 1.398 . S
C2583 C2589 1.491 . S
C2584 H2575 0.950 . S
C2584 C2583 1.398 . S
C2584 C2585 1.391 . S
C2585 H2573 0.950 . S
C2585 C2581 1.393 . S
C2585 C2584 1.391 . S
C2586 H2576 0.950 . S
C2586 C2587 1.386 . S
C2586 C2588 1.391 . S
C2587 C2586 1.386 . S
C2587 C2591 1.393 . S
C2588 H2577 0.950 . S
C2588 C2586 1.391 . S
C2588 C2589 1.400 . S
C2589 C2583 1.491 . S
C2589 C2588 1.400 . S
C2589 C2590 1.398 . S
C2590 H2578 0.950 . S
C2590 C2589 1.398 . S
C2590 C2591 1.391 . S
C2591 H2579 0.950 . S
C2591 C2587 1.393 . S
C2591 C2590 1.391 . S
C681 C224 1.468 . S
C687 C0 1.433 . S
C701 C671 1.507 . S
C707 C26 1.471 . S
C721 C40 1.468 . S
C727 C642 1.491 . S
C741 C55 1.440 . S
C747 C656 1.461 . S
C761 C251 1.515 . S
C767 C68 1.487 . S
C781 C71 1.512 . S
C787 C253 1.535 . S
C801 C97 1.508 . S
C807 C266 1.534 . S
C821 C617 1.484 . S
C827 C99 1.457 . S
C841 C112 1.449 . S
C847 C13 1.473 . S
C861 C15 1.513 . S
C867 C138 1.494 . S
C881 C29 1.456 . S
C887 C141 1.415 . S
C901 C42 1.529 . S
C907 C167 1.510 . S
C921 C57 1.496 . S
C927 C169 1.470 . S
C941 C194 1.443 . S
C947 C82 1.462 . S
C961 C84 1.465 . S
C967 C197 1.428 . S
C981 C223 1.452 . S
C987 C110 1.473 . S
C1001 C237 1.454 . S
C1007 C125 1.481 . S
C1021 C180 1.450 . S
C1027 C238 1.417 . S
C1041 C264 1.415 . S
C1047 C183 1.449 . S
C1061 C279 1.448 . S
C1067 C208 1.493 . S
C1081 C547 1.501 . S
C1087 C292 1.463 . S
C1101 C307 1.429 . S
C1107 C476 1.471 . S
C1121 C502 1.516 . S
C1127 C309 1.480 . S
C1141 C463 1.528 . S
C1147 C323 1.495 . S
C1161 C572 1.516 . S
C1167 C349 1.476 . S
C1181 C363 1.439 . S
C1187 C334 1.464 . S
C1201 C376 1.452 . S
C1207 C294 1.495 . S
C1221 C391 1.477 . S
C1227 C320 1.508 . S
C1241 C392 1.427 . S
C1247 C575 1.465 . S
C1261 C589 1.446 . S
C1267 C407 1.409 . S
C1281 C433 1.428 . S
C1287 C602 1.463 . S
C1301 C281 1.498 . S
C1307 C434 1.456 . S
C1321 C336 1.518 . S
C1327 C448 1.489 . S
C1341 C474 1.422 . S
C1347 C350 1.458 . S
C1361 C489 1.495 . S
C1367 C365 1.527 . S
C1381 C491 1.416 . S
C1387 C378 1.444 . S
C1401 C505 1.448 . S
C1407 C405 1.492 . S
C1421 C519 1.468 . S
C1427 C418 1.509 . S
C1441 C420 1.514 . S
C1447 C532 1.483 . S
C1461 C447 1.492 . S
C1467 C558 1.459 . S
C1481 C461 1.509 . S
C1487 C561 1.480 . S
C1501 C516 1.532 . S
C1507 C586 1.494 . S
C1521 C530 1.518 . S
C1527 C600 1.496 . S
C1541 C615 1.469 . S
C1547 C545 1.493 . S
C1561 C628 1.439 . S
C1567 C210 1.473 . S
C1581 C631 1.476 . S
C1587 C152 1.519 . S
C1601 C154 1.454 . S
C1607 C645 1.424 . S
C1621 C658 1.397 . S
C1627 C127 1.431 . S
C1641 C12 1.562 . S
C1647 C390 1.523 . S
C1661 C348 1.739 . S
C1667 C14 1.767 . S
C1681 C28 1.518 . S
C1687 C362 1.478 . S
C1701 C43 1.752 . S
C1707 C377 1.709 . S
C1721 C56 1.611 . S
C1727 C70 1.570 . S
C1741 C96 1.834 . S
C1747 C83 1.873 . S
C1761 C85 1.571 . S
C1767 C98 1.529 . S
C1781 C111 1.862 . S
C1787 C69 1.833 . S
C1801 C124 1.565 . S
C1807 C601 1.532 . S
C1821 C126 1.816 . S
C1827 C614 1.796 . S
C1841 C153 1.745 . S
C1847 C293 1.717 . S
C1861 C155 1.865 . S
C1867 C587 1.836 . S
C1881 C181 1.521 . S
C1887 C644 1.487 . S
C1901 C236 1.769 . S
C1907 C182 1.806 . S
C1921 C209 1.695 . S
C1927 C659 1.665 . S
C1941 C630 1.825 . S
C1947 C211 1.863 . S
C1961 C139 1.537 . S
C1967 C225 1.561 . S
C1981 C250 1.742 . S
C1987 C559 1.702 . S
C2001 C252 1.750 . S
C2007 C504 1.712 . S
C2021 C518 1.740 . S
C2027 C267 1.781 . S
C2041 C280 1.713 . S
C2047 C196 1.686 . S
C2061 C490 1.651 . S
C2067 C295 1.695 . S
C2081 C449 1.724 . S
C2087 C321 1.762 . S
C2101 C488 1.849 . S
C2107 C335 1.879 . S
C2121 C337 1.743 . S
C2127 C54 1.700 . S
C2141 C351 1.809 . S
C2147 C1 1.777 . S
C2161 C27 1.741 . S
C2167 C364 1.781 . S
C2181 C379 1.814 . S
C2187 C41 1.781 . S
C2201 C404 1.699 . S
C2207 C406 1.670 . S
C2221 C432 1.655 . S
C2227 C419 1.696 . S
C2241 C435 1.714 . S
C2247 C421 1.747 . S
C2261 C446 1.714 . S
C2267 C393 1.684 . S
C2281 C265 1.698 . S
C2287 C460 1.740 . S
C2301 C462 1.759 . S
C2307 C278 1.726 . S
C2321 C477 1.573 . S
C2327 C629 1.537 . S
C2341 C503 1.693 . S
C2347 C239 1.657 . S
C2361 C517 1.786 . S
C2367 C308 1.743 . S
C2381 C531 1.770 . S
C2387 C560 1.735 . S
C2401 C322 1.584 . S
C2407 C544 1.612 . S
C2421 C546 1.707 . S
C2427 C306 1.670 . S
C2441 C475 1.698 . S
C2447 C573 1.737 . S
C2461 C222 1.543 . S
C2467 C574 1.568 . S
C2481 C168 1.788 . S
C2487 C588 1.825 . S
C2501 C603 1.520 . S
C2507 C195 1.486 . S
C2521 C616 1.855 . S
C2527 C533 1.825 . S
C2541 C166 1.577 . S
C2547 C643 1.609 . S
C2561 C657 1.810 . S
C2567 C113 1.783 . S
C2581 C140 1.654 . S
C2587 C670 1.696 . S
