# Generated by pormake.
# Topology why, (6)-cn, num edge types: 1
# Building blocks:
#     Node 0, Type 0, BuildingBlock: PAMTOO_clean_sbu_0, # of connection points: 6
#     Node 1, Type 0, BuildingBlock: PAMTOO_clean_sbu_0, # of connection points: 6
#     Node 2, Type 0, BuildingBlock: PAMTOO_clean_sbu_0, # of connection points: 6
#     Node 3, Type 0, BuildingBlock: PAMTOO_clean_sbu_0, # of connection points: 6
#     Node 4, Type 0, BuildingBlock: PAMTOO_clean_sbu_0, # of connection points: 6
#     Node 5, Type 0, BuildingBlock: PAMTOO_clean_sbu_0, # of connection points: 6
#     Node 6, Type 0, BuildingBlock: PAMTOO_clean_sbu_0, # of connection points: 6
#     Node 7, Type 0, BuildingBlock: PAMTOO_clean_sbu_0, # of connection points: 6
#     Node 8, Type 0, BuildingBlock: PAMTOO_clean_sbu_0, # of connection points: 6
#     Node 9, Type 0, BuildingBlock: PAMTOO_clean_sbu_0, # of connection points: 6
#     Node 10, Type 0, BuildingBlock: PAMTOO_clean_sbu_0, # of connection points: 6
#     Node 11, Type 0, BuildingBlock: PAMTOO_clean_sbu_0, # of connection points: 6
#     Node 12, Type 0, BuildingBlock: PAMTOO_clean_sbu_0, # of connection points: 6
#     Node 13, Type 0, BuildingBlock: PAMTOO_clean_sbu_0, # of connection points: 6
#     Node 14, Type 0, BuildingBlock: PAMTOO_clean_sbu_0, # of connection points: 6
#     Node 15, Type 0, BuildingBlock: PAMTOO_clean_sbu_0, # of connection points: 6
#     Edge 16, Type (0, 0), BuildingBlock: XUDNAN_clean_linker_2, # of connection points: 2
#     Edge 17, Type (0, 0), BuildingBlock: XUDNAN_clean_linker_2, # of connection points: 2
#     Edge 18, Type (0, 0), BuildingBlock: XUDNAN_clean_linker_2, # of connection points: 2
#     Edge 19, Type (0, 0), BuildingBlock: XUDNAN_clean_linker_2, # of connection points: 2
#     Edge 20, Type (0, 0), BuildingBlock: XUDNAN_clean_linker_2, # of connection points: 2
#     Edge 21, Type (0, 0), BuildingBlock: XUDNAN_clean_linker_2, # of connection points: 2
#     Edge 22, Type (0, 0), BuildingBlock: XUDNAN_clean_linker_2, # of connection points: 2
#     Edge 23, Type (0, 0), BuildingBlock: XUDNAN_clean_linker_2, # of connection points: 2
#     Edge 24, Type (0, 0), BuildingBlock: XUDNAN_clean_linker_2, # of connection points: 2
#     Edge 25, Type (0, 0), BuildingBlock: XUDNAN_clean_linker_2, # of connection points: 2
#     Edge 26, Type (0, 0), BuildingBlock: XUDNAN_clean_linker_2, # of connection points: 2
#     Edge 27, Type (0, 0), BuildingBlock: XUDNAN_clean_linker_2, # of connection points: 2
#     Edge 28, Type (0, 0), BuildingBlock: XUDNAN_clean_linker_2, # of connection points: 2
#     Edge 29, Type (0, 0), BuildingBlock: XUDNAN_clean_linker_2, # of connection points: 2
#     Edge 30, Type (0, 0), BuildingBlock: XUDNAN_clean_linker_2, # of connection points: 2
#     Edge 31, Type (0, 0), BuildingBlock: XUDNAN_clean_linker_2, # of connection points: 2
#     Edge 32, Type (0, 0), BuildingBlock: XUDNAN_clean_linker_2, # of connection points: 2
#     Edge 33, Type (0, 0), BuildingBlock: XUDNAN_clean_linker_2, # of connection points: 2
#     Edge 34, Type (0, 0), BuildingBlock: XUDNAN_clean_linker_2, # of connection points: 2
#     Edge 35, Type (0, 0), BuildingBlock: XUDNAN_clean_linker_2, # of connection points: 2
#     Edge 36, Type (0, 0), BuildingBlock: XUDNAN_clean_linker_2, # of connection points: 2
#     Edge 37, Type (0, 0), BuildingBlock: XUDNAN_clean_linker_2, # of connection points: 2
#     Edge 38, Type (0, 0), BuildingBlock: XUDNAN_clean_linker_2, # of connection points: 2
#     Edge 39, Type (0, 0), BuildingBlock: XUDNAN_clean_linker_2, # of connection points: 2
#     Edge 40, Type (0, 0), BuildingBlock: XUDNAN_clean_linker_2, # of connection points: 2
#     Edge 41, Type (0, 0), BuildingBlock: XUDNAN_clean_linker_2, # of connection points: 2
#     Edge 42, Type (0, 0), BuildingBlock: XUDNAN_clean_linker_2, # of connection points: 2
#     Edge 43, Type (0, 0), BuildingBlock: XUDNAN_clean_linker_2, # of connection points: 2
#     Edge 44, Type (0, 0), BuildingBlock: XUDNAN_clean_linker_2, # of connection points: 2
#     Edge 45, Type (0, 0), BuildingBlock: XUDNAN_clean_linker_2, # of connection points: 2
#     Edge 46, Type (0, 0), BuildingBlock: XUDNAN_clean_linker_2, # of connection points: 2
#     Edge 47, Type (0, 0), BuildingBlock: XUDNAN_clean_linker_2, # of connection points: 2
#     Edge 48, Type (0, 0), BuildingBlock: XUDNAN_clean_linker_2, # of connection points: 2
#     Edge 49, Type (0, 0), BuildingBlock: XUDNAN_clean_linker_2, # of connection points: 2
#     Edge 50, Type (0, 0), BuildingBlock: XUDNAN_clean_linker_2, # of connection points: 2
#     Edge 51, Type (0, 0), BuildingBlock: XUDNAN_clean_linker_2, # of connection points: 2
#     Edge 52, Type (0, 0), BuildingBlock: XUDNAN_clean_linker_2, # of connection points: 2
#     Edge 53, Type (0, 0), BuildingBlock: XUDNAN_clean_linker_2, # of connection points: 2
#     Edge 54, Type (0, 0), BuildingBlock: XUDNAN_clean_linker_2, # of connection points: 2
#     Edge 55, Type (0, 0), BuildingBlock: XUDNAN_clean_linker_2, # of connection points: 2
#     Edge 56, Type (0, 0), BuildingBlock: XUDNAN_clean_linker_2, # of connection points: 2
#     Edge 57, Type (0, 0), BuildingBlock: XUDNAN_clean_linker_2, # of connection points: 2
#     Edge 58, Type (0, 0), BuildingBlock: XUDNAN_clean_linker_2, # of connection points: 2
#     Edge 59, Type (0, 0), BuildingBlock: XUDNAN_clean_linker_2, # of connection points: 2
#     Edge 60, Type (0, 0), BuildingBlock: XUDNAN_clean_linker_2, # of connection points: 2
#     Edge 61, Type (0, 0), BuildingBlock: XUDNAN_clean_linker_2, # of connection points: 2
#     Edge 62, Type (0, 0), BuildingBlock: XUDNAN_clean_linker_2, # of connection points: 2
#     Edge 63, Type (0, 0), BuildingBlock: XUDNAN_clean_linker_2, # of connection points: 2
# Relax obj value: 0.362
# Max RMSD: 0.212
# Mean RMSD: 0.212
data_MOF--net-why--node1-PAMTOO_clean_sbu_0--edge1-XUDNAN_clean_linker_2
_symmetry_space_group_name_H-M    P1
_symmetry_Int_Tables_number       1
_symmetry_cell_setting            triclinic
loop_
_symmetry_equiv_pos_as_xyz
'x, y, z'
_cell_length_a     46.910492
_cell_length_b     47.62005
_cell_length_c     40.333979
_cell_angle_alpha  89.927903
_cell_angle_beta   90.135885
_cell_angle_gamma 89.535561
loop_
_atom_site_label
_atom_site_type_symbol
_atom_site_fract_x
_atom_site_fract_y
_atom_site_fract_z
_atom_type_partial_charge
Dy0 Dy 0.47505 0.25972 0.09945 0.0
Dy1 Dy 0.51866 0.22453 0.05496 0.0
C2 C 0.4975 0.19737 0.12587 0.0
O3 O 0.51413 0.28798 0.09904 0.0
O4 O 0.54792 0.25959 0.07507 0.0
O5 O 0.46865 0.28207 0.14536 0.0
O6 O 0.43323 0.27571 0.11159 0.0
O7 O 0.50695 0.26029 0.02164 0.0
O8 O 0.48151 0.28903 0.0571 0.0
O9 O 0.47728 0.22369 0.02471 0.0
O10 O 0.44433 0.24118 0.06133 0.0
O11 O 0.52664 0.18842 0.02401 0.0
O12 O 0.56107 0.21664 0.03614 0.0
C13 C 0.54062 0.28405 0.08857 0.0
O14 O 0.48487 0.22163 0.13166 0.0
O15 O 0.51075 0.19346 0.09748 0.0
C16 C 0.42472 0.27074 0.16874 0.0
C17 C 0.39534 0.2471 0.2225 0.0
C18 C 0.40506 0.27499 0.22387 0.0
C19 C 0.41961 0.28669 0.19719 0.0
C20 C 0.4156 0.24269 0.16744 0.0
C21 C 0.40073 0.23103 0.19404 0.0
C22 C 0.44107 0.28293 0.14143 0.0
C23 C 0.49358 0.28397 0.02833 0.0
C24 C 0.45054 0.23067 0.03187 0.0
C25 C 0.56092 0.19702 0.98282 0.0
C26 C 0.57835 0.20201 0.91643 0.0
C27 C 0.59627 0.18916 0.94008 0.0
C28 C 0.58758 0.18664 0.97301 0.0
C29 C 0.54278 0.20963 0.95925 0.0
C30 C 0.55137 0.21194 0.92619 0.0
C31 C 0.55284 0.19564 0.01789 0.0
H32 H 0.40063 0.2881 0.24521 0.0
H33 H 0.42679 0.30822 0.19872 0.0
H34 H 0.41987 0.22986 0.14582 0.0
H35 H 0.39335 0.20958 0.19236 0.0
H36 H 0.61708 0.18113 0.93311 0.0
H37 H 0.60183 0.17694 0.99091 0.0
H38 H 0.52218 0.21803 0.9665 0.0
H39 H 0.53731 0.22219 0.90849 0.0
Dy40 Dy 0.71523 0.71566 0.35106 0.0
Dy41 Dy 0.75387 0.74877 0.30012 0.0
C42 C 0.77906 0.73352 0.37474 0.0
O43 O 0.69615 0.75954 0.35531 0.0
O44 O 0.71769 0.78094 0.31137 0.0
O45 O 0.67383 0.7049 0.36985 0.0
O46 O 0.71181 0.6869 0.39239 0.0
O47 O 0.71513 0.74243 0.26927 0.0
O48 O 0.691 0.71222 0.30354 0.0
O49 O 0.75309 0.7052 0.27588 0.0
O50 O 0.73417 0.68027 0.3192 0.0
O51 O 0.78406 0.75103 0.26 0.0
O52 O 0.77354 0.78838 0.28825 0.0
C53 C 0.69758 0.78087 0.3345 0.0
O54 O 0.7524 0.72919 0.38327 0.0
O55 O 0.78478 0.73816 0.34318 0.0
C56 C 0.67365 0.70086 0.42743 0.0
C57 C 0.6509 0.72213 0.48692 0.0
C58 C 0.68017 0.72448 0.48034 0.0
C59 C 0.69145 0.71418 0.45062 0.0
C60 C 0.64446 0.69872 0.43394 0.0
C61 C 0.63317 0.70931 0.46331 0.0
C62 C 0.6844 0.69134 0.39512 0.0
C63 C 0.69374 0.72558 0.27523 0.0
C64 C 0.74484 0.68098 0.28872 0.0
C65 C 0.78353 0.79372 0.23125 0.0
C66 C 0.77784 0.81949 0.16882 0.0
C67 C 0.75384 0.8159 0.18915 0.0
C68 C 0.75664 0.8029 0.22012 0.0
C69 C 0.80754 0.79787 0.21137 0.0
C70 C 0.80473 0.81062 0.18036 0.0
C71 C 0.78671 0.77815 0.26242 0.0
H72 H 0.6943 0.73399 0.49832 0.0
H73 H 0.71401 0.71659 0.44585 0.0
H74 H 0.63034 0.68884 0.41621 0.0
H75 H 0.61065 0.7065 0.46809 0.0
H76 H 0.73286 0.82234 0.18068 0.0
H77 H 0.73781 0.79952 0.23506 0.0
H78 H 0.82841 0.79078 0.21957 0.0
H79 H 0.82359 0.8134 0.16529 0.0
Dy80 Dy 0.26482 0.95334 0.60025 0.0
Dy81 Dy 0.22075 0.98819 0.55547 0.0
C82 C 0.24246 1.01627 0.62585 0.0
O83 O 0.22532 0.92521 0.60075 0.0
O84 O 0.19176 0.9522 0.57392 0.0
O85 O 0.27046 0.93179 0.64688 0.0
O86 O 0.30635 0.93705 0.61364 0.0
O87 O 0.23246 0.95203 0.52301 0.0
O88 O 0.25842 0.92364 0.55858 0.0
O89 O 0.26268 0.99005 0.52594 0.0
O90 O 0.29557 0.96957 0.56079 0.0
O91 O 0.21312 1.0239 0.52354 0.0
O92 O 0.17851 0.99605 0.53582 0.0
C93 C 0.19907 0.92827 0.58881 0.0
O94 O 0.25808 0.99343 0.62987 0.0
O95 O 0.226 1.01854 0.59941 0.0
C96 C 0.31427 0.94343 0.67125 0.0
C97 C 0.3426 0.96866 0.72506 0.0
C98 C 0.32185 0.94803 0.73048 0.0
C99 C 0.30793 0.93547 0.70384 0.0
C100 C 0.3346 0.96452 0.66574 0.0
C101 C 0.34881 0.97686 0.69244 0.0
C102 C 0.29813 0.93088 0.64366 0.0
C103 C 0.24598 0.92846 0.52995 0.0
C104 C 0.28929 0.9816 0.53209 0.0
C105 C 0.17996 1.01364 0.48159 0.0
C106 C 0.16398 1.00399 0.41524 0.0
C107 C 0.19001 0.99345 0.42758 0.0
C108 C 0.19788 0.99814 0.46049 0.0
C109 C 0.15442 1.02493 0.46921 0.0
C110 C 0.14647 1.02019 0.43626 0.0
C111 C 0.18704 1.0165 0.51688 0.0
H112 H 0.31715 0.94076 0.75532 0.0
H113 H 0.29222 0.91943 0.70871 0.0
H114 H 0.33965 0.97143 0.64086 0.0
H115 H 0.36491 0.99253 0.68764 0.0
H116 H 0.20412 0.98126 0.41189 0.0
H117 H 0.21772 0.98921 0.46964 0.0
H118 H 0.14028 1.03678 0.48525 0.0
H119 H 0.12613 1.02829 0.42763 0.0
Dy120 Dy 1.0205 0.4946 0.84389 0.0
Dy121 Dy 0.97869 0.45778 0.80106 0.0
C122 C 0.9574 0.47706 0.87375 0.0
O123 O 1.04656 0.45388 0.84092 0.0
O124 O 1.01079 0.42537 0.82262 0.0
O125 O 1.05716 0.50007 0.87553 0.0
O126 O 1.02651 0.53399 0.86921 0.0
O127 O 1.01799 0.45812 0.77026 0.0
O128 O 1.04333 0.49361 0.79525 0.0
O129 O 0.97956 0.49928 0.77217 0.0
O130 O 1.0047 0.52791 0.80699 0.0
O131 O 0.94597 0.45439 0.76359 0.0
O132 O 0.96012 0.41738 0.79019 0.0
C133 C 1.03762 0.42857 0.83278 0.0
O134 O 0.98476 0.48138 0.87942 0.0
O135 O 0.94943 0.47133 0.84332 0.0
C136 C 1.04428 0.52637 0.92254 0.0
C137 C 1.03508 0.5318 0.99107 0.0
C138 C 1.02889 0.50644 0.97502 0.0
C139 C 1.03327 0.50381 0.94091 0.0
C140 C 1.05013 0.55175 0.93838 0.0
C141 C 1.0456 0.55446 0.97236 0.0
C142 C 1.04784 0.52418 0.88656 0.0
C143 C 1.03957 0.4755 0.77106 0.0
C144 C 0.99052 0.52424 0.77897 0.0
C145 C 0.9479 0.41243 0.73359 0.0
C146 C 0.95327 0.389 0.66982 0.0
C147 C 0.92654 0.39807 0.68153 0.0
C148 C 0.92389 0.40964 0.71318 0.0
C149 C 0.9746 0.40308 0.72222 0.0
C150 C 0.97723 0.39127 0.69064 0.0
C151 C 0.94512 0.42714 0.76542 0.0
H152 H 1.02091 0.48868 0.98888 0.0
H153 H 1.02815 0.48414 0.92891 0.0
H154 H 1.05831 0.56942 0.92449 0.0
H155 H 1.05123 0.57407 0.98419 0.0
H156 H 0.90769 0.39632 0.66612 0.0
H157 H 0.90317 0.41694 0.7215 0.0
H158 H 0.99349 0.40544 0.73745 0.0
H159 H 0.99813 0.38471 0.68212 0.0
Dy160 Dy 0.7212 0.99085 0.94357 0.0
Dy161 Dy 0.76385 0.95868 0.89617 0.0
C162 C 0.75018 0.93177 0.96723 0.0
O163 O 0.76255 0.99127 0.97359 0.0
O164 O 0.795 0.97593 0.9352 0.0
O165 O 0.71384 1.02448 0.97838 0.0
O166 O 0.6786 0.99905 0.96204 0.0
O167 O 0.74303 0.99204 0.86367 0.0
O168 O 0.731 1.02353 0.90287 0.0
O169 O 0.72527 0.92991 0.89411 0.0
O170 O 0.69203 0.95597 0.92239 0.0
O171 O 0.77805 0.92423 0.86566 0.0
O172 O 0.80108 0.96354 0.86537 0.0
C173 C 0.78926 0.98528 0.9654 0.0
O174 O 0.73192 0.9523 0.97311 0.0
O175 O 0.76562 0.93062 0.94014 0.0
C176 C 0.67938 1.01282 0.01805 0.0
C177 C 0.66335 1.00222 0.08426 0.0
C178 C 0.68816 0.98986 0.071 0.0
C179 C 0.69607 0.99509 0.0382 0.0
C180 C 0.65484 1.02546 0.03117 0.0
C181 C 0.64687 1.02023 0.06401 0.0
C182 C 0.68736 1.0177 0.98329 0.0
C183 C 0.73682 1.01813 0.87157 0.0
C184 C 0.69918 0.93257 0.9063 0.0
C185 C 0.79469 0.94079 0.81457 0.0
C186 C 0.79007 0.94193 0.74509 0.0
C187 C 0.7657 0.94559 0.76479 0.0
C188 C 0.76803 0.94522 0.79934 0.0
C189 C 0.8191 0.93798 0.79507 0.0
C190 C 0.81684 0.93855 0.7606 0.0
C191 C 0.7971 0.93948 0.85074 0.0
H192 H 0.70151 0.97614 0.08594 0.0
H193 H 0.71518 0.98518 0.02852 0.0
H194 H 0.64167 1.03911 0.01591 0.0
H195 H 0.6274 1.02973 0.07323 0.0
H196 H 0.74487 0.94813 0.75349 0.0
H197 H 0.74897 0.94783 0.81416 0.0
H198 H 0.83981 0.93478 0.80647 0.0
H199 H 0.83595 0.93504 0.7461 0.0
Dy200 Dy 0.48672 0.46427 0.69152 0.0
Dy201 Dy 0.5215 0.49956 0.64016 0.0
C202 C 0.54726 0.48936 0.71389 0.0
O203 O 0.48778 0.50655 0.71852 0.0
O204 O 0.50045 0.53262 0.67353 0.0
O205 O 0.45536 0.4601 0.73009 0.0
O206 O 0.4721 0.42298 0.70576 0.0
O207 O 0.48709 0.47928 0.60907 0.0
O208 O 0.45456 0.47504 0.64957 0.0
O209 O 0.5457 0.45812 0.63551 0.0
O210 O 0.52305 0.43345 0.67649 0.0
O211 O 0.51618 0.52985 0.60089 0.0
O212 O 0.55862 0.51634 0.61576 0.0
C213 C 0.49288 0.53131 0.70509 0.0
O214 O 0.52595 0.4727 0.72109 0.0
O215 O 0.54897 0.50253 0.68532 0.0
C216 C 0.46296 0.42002 0.76294 0.0
C217 C 0.47312 0.39614 0.82572 0.0
C218 C 0.48817 0.42004 0.81557 0.0
C219 C 0.48323 0.43181 0.78436 0.0
C220 C 0.44823 0.39594 0.77272 0.0
C221 C 0.45332 0.38401 0.80388 0.0
C222 C 0.45717 0.43277 0.73046 0.0
C223 C 0.46021 0.47683 0.6176 0.0
C224 C 0.54398 0.43545 0.65441 0.0
C225 C 0.55065 0.5646 0.60486 0.0
C226 C 0.55996 0.62209 0.616 0.0
C227 C 0.54759 0.61287 0.58618 0.0
C228 C 0.54304 0.58437 0.58066 0.0
C229 C 0.56237 0.57376 0.63508 0.0
C230 C 0.56731 0.60231 0.64045 0.0
C231 C 0.5434 0.535 0.5997 0.0
H232 H 0.50381 0.42959 0.83174 0.0
H233 H 0.49505 0.45025 0.77706 0.0
H234 H 0.43262 0.38654 0.7564 0.0
H235 H 0.4413 0.3657 0.8112 0.0
H236 H 0.54235 0.62763 0.56659 0.0
H237 H 0.53351 0.57774 0.55748 0.0
H238 H 0.56771 0.5589 0.65453 0.0
H239 H 0.5771 0.60893 0.66347 0.0
Dy240 Dy 1.01912 0.22674 0.4413 0.0
Dy241 Dy 0.97556 0.25696 0.39284 0.0
C242 C 0.98913 0.28499 0.464 0.0
O243 O 0.97635 0.22375 0.46879 0.0
O244 O 0.94373 0.24162 0.43169 0.0
O245 O 1.02634 0.19053 0.47243 0.0
O246 O 1.0603 0.22032 0.46405 0.0
O247 O 0.98069 0.21378 0.36817 0.0
O248 O 1.01845 0.1969 0.39734 0.0
O249 O 1.01459 0.28616 0.39242 0.0
O250 O 1.04804 0.26202 0.42272 0.0
O251 O 0.9723 0.27503 0.34391 0.0
O252 O 0.93513 0.27333 0.37582 0.0
C253 C 0.94964 0.23087 0.46123 0.0
O254 O 1.00584 0.26362 0.47156 0.0
O255 O 0.97624 0.2873 0.43509 0.0
C256 C 1.05834 0.19886 0.51611 0.0
C257 C 1.07386 0.20345 0.58295 0.0
C258 C 1.04745 0.2141 0.57211 0.0
C259 C 1.03979 0.21198 0.5387 0.0
C260 C 1.0842 0.18743 0.52716 0.0
C261 C 1.09195 0.18974 0.56036 0.0
C262 C 1.05193 0.19843 0.48068 0.0
C263 C 1.00016 0.19412 0.37282 0.0
C264 C 1.04054 0.28466 0.40569 0.0
C265 C 0.92862 0.2647 0.3189 0.0
C266 C 0.89761 0.24035 0.26673 0.0
C267 C 0.90287 0.22506 0.29592 0.0
C268 C 0.91848 0.23709 0.32177 0.0
C269 C 0.92407 0.27967 0.28956 0.0
C270 C 0.9087 0.26765 0.26369 0.0
C271 C 0.94467 0.27776 0.34592 0.0
H272 H 1.03335 0.22495 0.58913 0.0
H273 H 1.01979 0.22114 0.53036 0.0
H274 H 1.09871 0.17732 0.50994 0.0
H275 H 1.11236 0.18127 0.56834 0.0
H276 H 0.89449 0.20409 0.29894 0.0
H277 H 0.92225 0.22503 0.34418 0.0
H278 H 0.93198 0.30087 0.28686 0.0
H279 H 0.90445 0.28026 0.24183 0.0
Dy280 Dy 0.25692 0.75051 0.19386 0.0
Dy281 Dy 0.2233 0.7169 0.13896 0.0
C282 C 0.19565 0.72653 0.21235 0.0
O283 O 0.2559 0.70747 0.2193 0.0
O284 O 0.23818 0.68253 0.17543 0.0
O285 O 0.28731 0.75337 0.23369 0.0
O286 O 0.27198 0.79125 0.20939 0.0
O287 O 0.26344 0.72759 0.10955 0.0
O288 O 0.29008 0.74144 0.15357 0.0
O289 O 0.20243 0.76038 0.13411 0.0
O290 O 0.22046 0.78153 0.1804 0.0
O291 O 0.22012 0.67928 0.10927 0.0
O292 O 0.18807 0.71209 0.10504 0.0
C293 C 0.24783 0.68328 0.20641 0.0
O294 O 0.21748 0.74164 0.2216 0.0
O295 O 0.19402 0.71495 0.18282 0.0
C296 C 0.27959 0.79295 0.26685 0.0
C297 C 0.26792 0.81598 0.32935 0.0
C298 C 0.25323 0.79213 0.31848 0.0
C299 C 0.25891 0.78078 0.28734 0.0
C300 C 0.29403 0.81693 0.27742 0.0
C301 C 0.28818 0.82846 0.30848 0.0
C302 C 0.28605 0.78071 0.23447 0.0
C303 C 0.28839 0.73457 0.12191 0.0
C304 C 0.20179 0.78134 0.15566 0.0
C305 C 0.17234 0.6652 0.10777 0.0
C306 C 0.13201 0.62463 0.12609 0.0
C307 C 0.15494 0.61748 0.10524 0.0
C308 C 0.17489 0.63762 0.09612 0.0
C309 C 0.14987 0.6722 0.12941 0.0
C310 C 0.12974 0.65213 0.13827 0.0
C311 C 0.19442 0.68582 0.09947 0.0
H312 H 0.23729 0.78237 0.33399 0.0
H313 H 0.24731 0.76238 0.27936 0.0
H314 H 0.30995 0.82658 0.26177 0.0
H315 H 0.29989 0.84676 0.31648 0.0
H316 H 0.15682 0.59657 0.09487 0.0
H317 H 0.19226 0.63169 0.07983 0.0
H318 H 0.1477 0.69321 0.13938 0.0
H319 H 1.11214 0.65817 0.15415 0.0
Dy320 Dy 0.98363 0.75444 0.59772 0.0
Dy321 Dy 1.01751 0.71605 0.54756 0.0
C322 C 0.9991 0.69031 0.61931 0.0
O323 O 1.02527 0.77892 0.59497 0.0
O324 O 1.05227 0.74635 0.56726 0.0
O325 O 0.94781 0.75867 0.6308 0.0
O326 O 0.97763 0.79287 0.62533 0.0
O327 O 1.01705 0.75691 0.52198 0.0
O328 O 0.97808 0.77557 0.54809 0.0
O329 O 0.97366 0.71856 0.52152 0.0
O330 O 0.9481 0.73706 0.56461 0.0
O331 O 1.019 0.68859 0.50532 0.0
O332 O 1.05658 0.69359 0.53591 0.0
C333 C 1.04998 0.77135 0.58204 0.0
O334 O 0.99729 0.71648 0.63005 0.0
O335 O 1.00226 0.68618 0.58734 0.0
C336 C 0.9292 0.80467 0.62848 0.0
C337 C 0.8853 0.84318 0.61334 0.0
C338 C 0.9042 0.84817 0.63984 0.0
C339 C 0.92594 0.82907 0.64732 0.0
C340 C 0.91077 0.79979 0.60155 0.0
C341 C 0.88878 0.81881 0.59422 0.0
C342 C 0.95271 0.78521 0.63607 0.0
C343 C 0.99578 0.77473 0.52288 0.0
C344 C 0.94885 0.72663 0.53412 0.0
C345 C 1.06276 0.68593 0.47843 0.0
C346 C 1.08792 0.69112 0.41556 0.0
C347 C 1.08163 0.71517 0.43449 0.0
C348 C 1.06898 0.71259 0.46567 0.0
C349 C 1.06982 0.66191 0.46014 0.0
C350 C 1.08231 0.66446 0.42893 0.0
C351 C 1.04602 0.68294 0.50878 0.0
H352 H 0.90162 0.86646 0.65555 0.0
H353 H 0.94011 0.83327 0.66795 0.0
H354 H 0.91325 0.78123 0.5863 0.0
H355 H 0.87443 0.81442 0.57383 0.0
H356 H 1.08551 0.73597 0.42467 0.0
H357 H 1.06325 0.73136 0.47936 0.0
H358 H 1.0649 0.6412 0.46959 0.0
H359 H 1.08728 0.64558 0.41507 0.0
Dy360 Dy 0.21904 0.213 0.85237 0.0
Dy361 Dy 0.25138 0.25016 0.79893 0.0
C362 C 0.28357 0.2331 0.86986 0.0
O363 O 0.1912 0.25245 0.84991 0.0
O364 O 0.21759 0.28213 0.81784 0.0
O365 O 0.20427 0.17274 0.8694 0.0
O366 O 0.19641 0.21004 0.89886 0.0
O367 O 0.21098 0.24253 0.77244 0.0
O368 O 0.18809 0.21408 0.80994 0.0
O369 O 0.24802 0.20743 0.77257 0.0
O370 O 0.23957 0.18032 0.81825 0.0
O371 O 0.28212 0.25259 0.75941 0.0
O372 O 0.2649 0.2907 0.7809 0.0
C373 C 0.19421 0.27717 0.83537 0.0
O374 O 0.25903 0.22449 0.88175 0.0
O375 O 0.28504 0.24117 0.8386 0.0
C376 C 0.15872 0.17854 0.89274 0.0
C377 C 1.09924 0.17116 0.89144 0.0
C378 C 0.11386 0.17447 0.92176 0.0
C379 C 0.14332 0.17822 0.92236 0.0
C380 C 0.1442 0.1756 0.8624 0.0
C381 C 0.11473 0.17189 0.86174 0.0
C382 C 0.18947 0.184 0.89336 0.0
C383 C 0.18917 0.22729 0.78134 0.0
C384 C 0.24477 0.18229 0.78604 0.0
C385 C 0.27339 0.29054 0.72366 0.0
C386 C 0.259 0.3132 0.66137 0.0
C387 C 0.24425 0.28992 0.6739 0.0
C388 C 0.25136 0.27872 0.70483 0.0
C389 C 0.28855 0.31336 0.71105 0.0
C390 C 0.28144 0.32462 0.68009 0.0
C391 C 0.27985 0.27978 0.75689 0.0
H392 H 1.10267 0.17327 0.94517 0.0
H393 H 0.1541 0.18073 0.94595 0.0
H394 H 0.15565 0.17603 0.83914 0.0
H395 H 1.10409 0.16931 0.83808 0.0
H396 H 0.22711 0.28047 0.65987 0.0
H397 H 0.23949 0.26101 0.71422 0.0
H398 H 0.30553 0.32277 0.72539 0.0
H399 H 0.29292 0.3428 0.67129 0.0
Dy400 Dy 0.75884 0.45229 0.10174 0.0
Dy401 Dy 0.72486 0.4934 0.05285 0.0
C402 C 0.74277 0.51647 0.12685 0.0
O403 O 0.71719 0.42841 0.09621 0.0
O404 O 0.6902 0.46309 0.0721 0.0
O405 O 0.79697 0.42969 0.11605 0.0
O406 O 0.76002 0.42993 0.14834 0.0
O407 O 0.72916 0.45525 0.02143 0.0
O408 O 0.75299 0.42541 0.05724 0.0
O409 O 0.76818 0.48851 0.02671 0.0
O410 O 0.79431 0.4715 0.07041 0.0
O411 O 0.72358 0.52597 0.01538 0.0
O412 O 0.68448 0.5111 0.03727 0.0
C413 C 0.69238 0.43731 0.08479 0.0
O414 O 0.74862 0.49006 0.13438 0.0
O415 O 0.73617 0.52293 0.09593 0.0
C416 C 0.78462 0.38719 0.14249 0.0
C417 C 0.78446 0.32815 0.14553 0.0
C418 C 0.78047 0.34429 0.17437 0.0
C419 C 0.78063 0.37355 0.17285 0.0
C420 C 0.78738 0.37116 0.11336 0.0
C421 C 0.78757 0.34184 0.11493 0.0
C422 C 0.78441 0.41805 0.14137 0.0
C423 C 0.74094 0.43088 0.02854 0.0
C424 C 0.79308 0.48066 0.03935 0.0
C425 C 0.68328 0.52354 0.9807 0.0
C426 C 0.65986 0.51894 0.91651 0.0
C427 C 0.66484 0.49479 0.93585 0.0
C428 C 0.67661 0.49706 0.96763 0.0
C429 C 0.6783 0.54764 0.96154 0.0
C430 C 0.66675 0.54538 0.92969 0.0
C431 C 0.69585 0.52628 0.01396 0.0
H432 H 0.77864 0.3343 0.19842 0.0
H433 H 0.77806 0.38554 0.19548 0.0
H434 H 0.78983 0.38124 0.08946 0.0
H435 H 0.79087 0.32986 0.09243 0.0
H436 H 0.66007 0.47413 0.92619 0.0
H437 H 0.68057 0.47816 0.98196 0.0
H438 H 0.68339 0.56822 0.97121 0.0
H439 H 0.66291 0.56436 0.91549 0.0
Dy440 Dy 0.51977 0.99768 0.35249 0.0
Dy441 Dy 0.48742 0.96369 0.29741 0.0
C442 C 0.45473 0.97959 0.36756 0.0
O443 O 0.5448 0.95633 0.35405 0.0
O444 O 0.52091 0.93071 0.31488 0.0
O445 O 0.54815 1.0011 0.39447 0.0
O446 O 0.52558 1.03781 0.37625 0.0
O447 O 0.53069 0.96601 0.27567 0.0
O448 O 0.55114 0.99875 0.3103 0.0
O449 O 0.49056 1.00635 0.27149 0.0
O450 O 0.50351 1.03187 0.31693 0.0
O451 O 0.46428 0.9607 0.25139 0.0
O452 O 0.46523 0.92544 0.28557 0.0
C453 C 0.54227 0.93302 0.33643 0.0
O454 O 0.48003 0.98366 0.38056 0.0
O455 O 0.45301 0.97584 0.33521 0.0
C456 C 0.53078 1.03363 0.43367 0.0
C457 C 0.51196 1.04724 0.49787 0.0
C458 C 0.50489 1.02126 0.48374 0.0
C459 C 0.51407 1.01458 0.45171 0.0
C460 C 0.53718 1.05976 0.44735 0.0
C461 C 0.52789 1.06653 0.47913 0.0
C462 C 0.54083 1.02709 0.40015 0.0
C463 C 0.55168 0.9827 0.28372 0.0
C464 C 0.49634 1.03085 0.28513 0.0
C465 C 0.46558 0.91589 0.22795 0.0
C466 C 0.48257 0.88528 0.17167 0.0
C467 C 0.46011 0.90496 0.16963 0.0
C468 C 0.45164 0.92002 0.19757 0.0
C469 C 0.4877 0.89596 0.23032 0.0
C470 C 0.49597 0.88063 0.20246 0.0
C471 C 0.45839 0.93428 0.25589 0.0
H472 H 0.4928 1.006 0.49769 0.0
H473 H 0.50851 0.9944 0.44127 0.0
H474 H 0.54978 1.07479 0.43364 0.0
H475 H 0.53435 1.08644 0.48957 0.0
H476 H 0.44963 0.90939 0.14623 0.0
H477 H 0.43474 0.93556 0.19524 0.0
H478 H 0.49897 0.89258 0.25348 0.0
H479 H 0.51301 0.86529 0.20502 0.0
Dy480 Dy 0.22364 0.49506 0.44124 0.0
Dy481 Dy 0.25807 0.45331 0.39467 0.0
C482 C 0.23785 0.43295 0.46708 0.0
O483 O 0.26679 0.48883 0.46841 0.0
O484 O 0.29338 0.47395 0.42446 0.0
O485 O 0.22368 0.52643 0.47984 0.0
O486 O 0.18404 0.51476 0.45646 0.0
O487 O 0.24976 0.49137 0.36109 0.0
O488 O 0.23491 0.52437 0.39814 0.0
O489 O 0.21613 0.42984 0.40022 0.0
O490 O 0.18861 0.46596 0.41976 0.0
O491 O 0.29599 0.43022 0.38101 0.0
O492 O 0.25866 0.42951 0.34916 0.0
C493 C 0.29199 0.48201 0.45581 0.0
O494 O 0.22152 0.45526 0.46966 0.0
O495 O 0.25566 0.42926 0.44237 0.0
C496 C 0.1835 0.52172 0.51397 0.0
C497 C 0.15645 0.50643 0.57351 0.0
C498 C 0.18068 0.49167 0.56247 0.0
C499 C 0.19403 0.49919 0.53297 0.0
C500 C 0.15988 0.5371 0.52531 0.0
C501 C 0.14648 0.52958 0.55498 0.0
C502 C 0.19595 0.52762 0.48132 0.0
C503 C 0.24303 0.51778 0.36783 0.0
C504 C 0.19088 0.43956 0.40897 0.0
C505 C 0.28374 0.38705 0.35593 0.0
C506 C 0.28518 0.32798 0.35385 0.0
C507 C 0.29022 0.3421 0.3838 0.0
C508 C 0.28927 0.37143 0.38492 0.0
C509 C 0.27767 0.37294 0.32636 0.0
C510 C 0.27828 0.34368 0.32533 0.0
C511 C 0.28321 0.41794 0.35626 0.0
H512 H 0.18912 0.474 0.57643 0.0
H513 H 0.21226 0.48702 0.52469 0.0
H514 H 0.15137 0.55443 0.51082 0.0
H515 H 0.1277 0.54119 0.56275 0.0
H516 H 0.29578 0.33047 0.40603 0.0
H517 H 0.29341 0.38184 0.40829 0.0
H518 H 0.27301 0.38459 0.30387 0.0
H519 H 0.27493 0.33342 0.3017 0.0
Dy520 Dy 0.98897 0.95953 0.19605 0.0
Dy521 Dy 1.02193 0.99906 0.14654 0.0
C522 C 1.05193 0.97907 0.21544 0.0
O523 O 0.99182 1.0004 0.22523 0.0
O524 O 1.00432 1.03109 0.18425 0.0
O525 O 0.96078 0.95558 0.23765 0.0
O526 O 0.96966 0.91939 0.20647 0.0
O527 O 0.98129 0.99075 0.11656 0.0
O528 O 0.95548 0.97047 0.15719 0.0
O529 O 1.04807 0.95797 0.1429 0.0
O530 O 1.0235 0.92856 0.17754 0.0
O531 O 1.0448 1.0041 0.10059 0.0
O532 O 1.03643 1.04016 0.13178 0.0
C533 C 0.99704 1.02638 0.21548 0.0
O534 O 1.03068 0.96214 0.22179 0.0
O535 O 1.05245 0.9959 0.18949 0.0
C536 C 0.95716 0.91095 0.26216 0.0
C537 C 0.95609 0.87644 0.31842 0.0
C538 C 0.97558 0.89862 0.31647 0.0
C539 C 0.97621 0.91575 0.28837 0.0
C540 C 0.93748 0.88911 0.26428 0.0
C541 C 0.93697 0.8719 0.29219 0.0
C542 C 0.95666 0.92887 0.23279 0.0
C543 C 0.95688 0.98081 0.12703 0.0
C544 C 1.04557 0.93318 0.15776 0.0
C545 C 1.03151 1.04654 0.07455 0.0
C546 C 1.0062 1.07685 0.02208 0.0
C547 C 0.99622 1.05005 0.03036 0.0
C548 C 1.00873 1.03503 0.05647 0.0
C549 C 1.04113 1.07343 0.06674 0.0
C550 C 1.02869 1.08843 0.04072 0.0
C551 C 1.04434 1.03141 0.10265 0.0
H552 H 0.99079 0.90222 0.33623 0.0
H553 H 0.99157 0.93259 0.28705 0.0
H554 H 0.92251 0.88534 0.24428 0.0
H555 H 0.9217 0.85498 0.29325 0.0
H556 H 0.9791 1.04055 0.01636 0.0
H557 H 1.00077 1.01434 0.06224 0.0
H558 H 1.0585 1.08271 0.08057 0.0
H559 H 1.03748 0.10871 0.03444 0.0
Dy560 Dy 0.52365 0.71708 0.93636 0.0
Dy561 Dy 0.48278 0.75936 0.89733 0.0
C562 C 0.50873 0.77634 0.96905 0.0
O563 O 0.48291 0.7199 0.96813 0.0
O564 O 0.45054 0.7389 0.93185 0.0
O565 O 0.5285 0.68301 0.97136 0.0
O566 O 0.56531 0.69898 0.9455 0.0
O567 O 0.4885 0.72244 0.86107 0.0
O568 O 0.50986 0.68927 0.89361 0.0
O569 O 0.52412 0.78467 0.90008 0.0
O570 O 0.5549 0.74895 0.91344 0.0
O571 O 0.44241 0.78043 0.88921 0.0
O572 O 0.47727 0.7862 0.85468 0.0
C573 C 0.45633 0.72791 0.96121 0.0
O574 O 0.5257 0.75441 0.96875 0.0
O575 O 0.48944 0.7811 0.94597 0.0
C576 C 0.57119 0.68517 0.00121 0.0
C577 C 0.59505 0.68933 0.06506 0.0
C578 C 0.58976 0.71363 0.04612 0.0
C579 C 0.57781 0.71156 0.01448 0.0
C580 C 0.57705 0.66086 0.01965 0.0
C581 C 0.58889 0.66291 0.05136 0.0
C582 C 0.55619 0.68296 0.96939 0.0
C583 C 0.4978 0.69632 0.86537 0.0
C584 C 0.55047 0.77577 0.90543 0.0
C585 C 0.44872 0.82587 0.86777 0.0
C586 C 0.44034 0.8844 0.87103 0.0
C587 C 0.46805 0.8731 0.86981 0.0
C588 C 0.47225 0.84403 0.86845 0.0
C589 C 0.42115 0.8371 0.87043 0.0
C590 C 0.41698 0.86608 0.87217 0.0
C591 C 0.45243 0.79526 0.86478 0.0
H592 H 0.59399 0.73427 0.05617 0.0
H593 H 0.57316 0.73061 0.00071 0.0
H594 H 0.57192 0.64035 0.0098 0.0
H595 H 0.59303 0.64383 0.06527 0.0
H596 H 0.48637 0.88678 0.86871 0.0
H597 H 0.49383 0.83587 0.8671 0.0
H598 H 0.40277 0.82347 0.8703 0.0
H599 H 0.39533 0.87416 0.87237 0.0
Dy600 Dy 0.75169 0.2499 0.69534 0.0
Dy601 Dy 0.71685 0.21607 0.64095 0.0
C602 C 0.68943 0.2281 0.71395 0.0
O603 O 0.75093 0.20674 0.72072 0.0
O604 O 0.72996 0.1821 0.67856 0.0
O605 O 0.78286 0.25268 0.73445 0.0
O606 O 0.7661 0.29063 0.71164 0.0
O607 O 0.75778 0.22413 0.61164 0.0
O608 O 0.78404 0.24228 0.65394 0.0
O609 O 0.69762 0.26004 0.63531 0.0
O610 O 0.7154 0.2811 0.6818 0.0
O611 O 0.70949 0.17672 0.61573 0.0
O612 O 0.68391 0.21335 0.60369 0.0
C613 C 0.74102 0.18281 0.70887 0.0
O614 O 0.7128 0.2405 0.72369 0.0
O615 O 0.68626 0.21809 0.68378 0.0
C616 C 0.77456 0.2915 0.76891 0.0
C617 C 0.76163 0.3145 0.83119 0.0
C618 C 0.74866 0.28952 0.82084 0.0
C619 C 0.75495 0.27819 0.78983 0.0
C620 C 0.78753 0.3164 0.77911 0.0
C621 C 0.78109 0.32788 0.81004 0.0
C622 C 0.78087 0.27996 0.73609 0.0
C623 C 0.78237 0.23333 0.623 0.0
C624 C 0.6971 0.2811 0.65669 0.0
C625 C 0.66019 0.17014 0.60997 0.0
C626 C 0.61218 0.13844 0.62782 0.0
C627 C 0.63513 0.12583 0.61088 0.0
C628 C 0.65888 0.14157 0.60197 0.0
C629 C 0.63758 0.18263 0.62769 0.0
C630 C 0.61366 0.16695 0.63626 0.0
C631 C 0.68608 0.18609 0.60209 0.0
H632 H 0.73343 0.27895 0.83657 0.0
H633 H 0.74448 0.25906 0.78217 0.0
H634 H 0.8026 0.32696 0.76314 0.0
H635 H 0.7916 0.34701 0.81761 0.0
H636 H 0.63425 1.10401 0.60341 0.0
H637 H 0.67622 0.13146 0.58874 0.0
H638 H 0.63827 0.20452 0.63485 0.0
H639 H 0.59617 0.17715 0.6491 0.0
H640 H 0.60231 0.28805 0.08548 0.0
H641 H 0.52582 0.33953 0.09245 0.0
H642 H 0.55502 0.38209 0.09163 0.0
H643 H 0.646 0.33326 0.13969 0.0
H644 H 0.67843 0.32851 0.11641 0.0
H645 H 0.65187 0.30136 0.11658 0.0
H646 H 0.65003 0.30274 0.05261 0.0
H647 H 0.67652 0.32996 0.05228 0.0
H648 H 0.64276 0.33556 0.0318 0.0
H649 H 0.59268 0.42104 0.08758 0.0
H650 H 0.6351 0.45151 0.08562 0.0
H651 H 0.6896 0.37757 0.08571 0.0
C652 C 0.59163 0.30824 0.08696 0.0
C653 C 0.56101 0.30958 0.08919 0.0
C654 C 0.54874 0.33701 0.09107 0.0
C655 C 0.56536 0.36172 0.09044 0.0
C656 C 0.59506 0.35972 0.08836 0.0
C657 C 0.60825 0.33364 0.08707 0.0
C658 C 0.64083 0.3379 0.08598 0.0
C659 C 0.65513 0.32445 0.11648 0.0
C660 C 0.65327 0.32581 0.05375 0.0
C661 C 0.64373 0.37017 0.08676 0.0
C662 C 0.61688 0.38224 0.08767 0.0
C663 C 0.61373 0.41158 0.08723 0.0
C664 C 0.63821 0.42896 0.08606 0.0
C665 C 0.66632 0.41762 0.08596 0.0
C666 C 0.66874 0.38745 0.08633 0.0
H667 H 0.6607 0.80904 0.28797 0.0
H668 H 0.68403 0.80831 0.39195 0.0
H669 H 0.64824 0.8455 0.40286 0.0
H670 H 0.64427 0.88516 0.28077 0.0
H671 H 0.61364 0.88054 0.25435 0.0
H672 H 0.64238 0.85517 0.25363 0.0
H673 H 0.60674 0.81559 0.26651 0.0
H674 H 0.57795 0.84088 0.26737 0.0
H675 H 0.58429 0.81833 0.30259 0.0
H676 H 0.60999 0.88479 0.40301 0.0
H677 H 0.57136 0.91931 0.39327 0.0
H678 H 0.5666 0.89326 0.29049 0.0
C679 C 0.65866 0.81705 0.31296 0.0
C680 C 0.67635 0.80563 0.339 0.0
C681 C 0.67164 0.81648 0.37135 0.0
C682 C 0.65107 0.83781 0.37784 0.0
C683 C 0.63407 0.84841 0.352 0.0
C684 C 0.63736 0.8382 0.32014 0.0
C685 C 0.61496 0.85246 0.29738 0.0
C686 C 0.62969 0.86932 0.26989 0.0
C687 C 0.59479 0.83051 0.28257 0.0
C688 C 0.59879 0.87225 0.32127 0.0
C689 C 0.61063 0.86971 0.35257 0.0
C690 C 0.60054 0.88652 0.37858 0.0
C691 C 0.57827 0.9063 0.37276 0.0
C692 C 0.56496 0.90949 0.34124 0.0
C693 C 0.57556 0.89162 0.31516 0.0
H694 H 0.13732 0.92276 0.58568 0.0
H695 H 0.21495 0.87294 0.59194 0.0
H696 H 0.18669 0.8297 0.59028 0.0
H697 H 1.09507 0.87567 0.63937 0.0
H698 H 1.06235 0.88016 0.61637 0.0
H699 H 1.08835 0.90783 0.61694 0.0
H700 H 1.0897 0.90756 0.55296 0.0
H701 H 1.06375 0.87984 0.55223 0.0
H702 H 1.09743 0.87523 0.53145 0.0
H703 H 0.14953 0.78975 0.58504 0.0
H704 H 1.1077 0.75847 0.58238 0.0
H705 H 1.0518 0.83132 0.58471 0.0
C706 C 0.14847 0.9028 0.58683 0.0
C707 C 0.17916 0.90218 0.58907 0.0
C708 C 0.19198 0.87496 0.59054 0.0
C709 C 0.17588 0.84985 0.58943 0.0
C710 C 0.1461 0.85115 0.58734 0.0
C711 C 0.13237 0.87699 0.58656 0.0
C712 C 1.09986 0.87201 0.58555 0.0
C713 C 1.08555 0.88468 0.61639 0.0
C714 C 1.08691 0.88441 0.55365 0.0
C715 C 1.09755 0.83963 0.5857 0.0
C716 C 0.12466 0.82811 0.58625 0.0
C717 C 0.12831 0.79881 0.58504 0.0
C718 C 1.10413 0.78095 0.58348 0.0
C719 C 1.07575 0.79165 0.58381 0.0
C720 C 1.07283 0.82182 0.585 0.0
H721 H 1.09833 0.42512 0.82723 0.0
H722 H 1.02424 0.3728 0.84201 0.0
H723 H 1.05557 0.33089 0.84494 0.0
H724 H 0.13622 0.3745 0.77387 0.0
H725 H 0.17119 0.38262 0.7896 0.0
H726 H 0.14341 0.40901 0.78999 0.0
H727 H 0.15059 0.41559 0.85298 0.0
H728 H 0.17835 0.38918 0.85279 0.0
H729 H 0.14825 0.3856 0.88013 0.0
H730 H 1.09543 0.29359 0.84821 0.0
H731 H 0.13861 0.26418 0.84705 0.0
H732 H 0.18954 0.33767 0.8257 0.0
C733 C 1.08863 0.40487 0.83137 0.0
C734 C 1.05814 0.40296 0.83489 0.0
C735 C 1.04702 0.37556 0.83945 0.0
C736 C 1.06489 0.35136 0.84119 0.0
C737 C 1.09451 0.35398 0.8377 0.0
C738 C 1.10638 0.38005 0.83243 0.0
C739 C 0.13894 0.37649 0.82803 0.0
C740 C 0.14798 0.38624 0.79331 0.0
C741 C 0.15499 0.39269 0.85509 0.0
C742 C 0.14359 0.34452 0.83207 0.0
C743 C 0.11746 0.33219 0.83795 0.0
C744 C 0.11582 0.30325 0.84344 0.0
C745 C 0.14092 0.28651 0.84287 0.0
C746 C 0.16839 0.29784 0.83641 0.0
C747 C 0.16935 0.3277 0.83069 0.0
H748 H 0.63825 0.92645 0.91758 0.0
H749 H 0.71348 0.87869 0.88916 0.0
H750 H 0.6849 0.83584 0.8863 0.0
H751 H 0.60501 0.87119 0.96742 0.0
H752 H 0.56907 0.87844 0.95383 0.0
H753 H 0.59504 0.90614 0.95436 0.0
H754 H 0.58537 0.91593 0.89235 0.0
H755 H 0.55933 0.88828 0.89168 0.0
H756 H 0.58863 0.88768 0.86284 0.0
H757 H 0.64842 0.79575 0.8889 0.0
H758 H 0.60706 0.76404 0.89219 0.0
H759 H 0.55237 0.83529 0.91459 0.0
C760 C 0.64877 0.90706 0.91056 0.0
C761 C 0.67891 0.90692 0.90351 0.0
C762 C 0.69093 0.88041 0.89453 0.0
C763 C 0.67467 0.85549 0.89294 0.0
C764 C 0.64549 0.85631 0.89994 0.0
C765 C 0.63243 0.8815 0.9082 0.0
C766 C 0.60032 0.87613 0.91368 0.0
C767 C 0.59186 0.88342 0.94945 0.0
C768 C 0.58234 0.89302 0.88865 0.0
C769 C 0.59756 0.84425 0.90736 0.0
C770 C 0.62413 0.83331 0.89988 0.0
C771 C 0.62755 0.80438 0.89438 0.0
C772 C 0.60366 0.78627 0.89633 0.0
C773 C 0.57574 0.79649 0.90315 0.0
C774 C 0.57301 0.8263 0.90869 0.0
H775 H 0.57238 0.3997 0.70168 0.0
H776 H 0.56802 0.41712 0.59632 0.0
H777 H 0.60503 0.38095 0.58624 0.0
H778 H 0.65 0.38974 0.70365 0.0
H779 H 0.64971 0.36208 0.73419 0.0
H780 H 0.6216 0.38811 0.73361 0.0
H781 H 0.58409 0.34893 0.72904 0.0
H782 H 0.6121 0.32278 0.72969 0.0
H783 H 0.58677 0.32358 0.69601 0.0
H784 H 0.64243 0.3407 0.58664 0.0
H785 H 0.67848 0.30375 0.5978 0.0
H786 H 0.66432 0.31332 0.70332 0.0
C787 C 0.57892 0.39568 0.6764 0.0
C788 C 0.56623 0.41157 0.64969 0.0
C789 C 0.57659 0.40562 0.61732 0.0
C790 C 0.59787 0.38487 0.61131 0.0
C791 C 0.6099 0.36985 0.63787 0.0
C792 C 0.60103 0.3752 0.66994 0.0
C793 C 0.61875 0.3568 0.69403 0.0
C794 C 0.63603 0.37528 0.71779 0.0
C795 C 0.59926 0.33684 0.71335 0.0
C796 C 0.63867 0.3402 0.67062 0.0
C797 C 0.63278 0.34795 0.63825 0.0
C798 C 0.64726 0.3349 0.612 0.0
C799 C 0.66797 0.31369 0.61864 0.0
C800 C 0.67532 0.30534 0.65144 0.0
C801 C 0.66016 0.31923 0.67783 0.0
H802 H 1.10117 0.29046 0.41583 0.0
H803 H 1.02556 0.3393 0.39146 0.0
H804 H 1.0543 0.38238 0.39062 0.0
H805 H 0.13575 0.34304 0.46798 0.0
H806 H 0.17131 0.33607 0.45312 0.0
H807 H 0.14506 0.30861 0.45268 0.0
H808 H 0.1532 0.30145 0.38994 0.0
H809 H 0.17956 0.32879 0.39025 0.0
H810 H 0.14966 0.33099 0.36219 0.0
H811 H 1.09169 0.42251 0.39543 0.0
H812 H 0.13384 0.45338 0.39933 0.0
H813 H 0.18764 0.38025 0.41551 0.0
C814 C 1.09058 0.31015 0.41013 0.0
C815 C 1.06037 0.31063 0.40362 0.0
C816 C 1.04821 0.33745 0.39631 0.0
C817 C 1.06456 0.36244 0.39594 0.0
C818 C 1.09391 0.36125 0.40244 0.0
C819 C 1.10697 0.33566 0.40891 0.0
C820 C 0.1392 0.34041 0.41391 0.0
C821 C 0.14837 0.33149 0.44901 0.0
C822 C 0.15643 0.32445 0.38751 0.0
C823 C 0.14215 0.37244 0.40938 0.0
C824 C 0.11557 0.38406 0.4033 0.0
C825 C 1.11254 0.4133 0.39976 0.0
C826 C 0.13685 0.43093 0.4021 0.0
C827 C 0.16475 0.41989 0.40726 0.0
C828 C 0.16702 0.38987 0.41095 0.0
H829 H 0.16477 0.80864 0.20223 0.0
H830 H 0.18687 0.80882 0.09803 0.0
H831 H 0.15111 0.84638 0.08795 0.0
H832 H 1.08802 0.81832 0.18816 0.0
H833 H 1.08226 0.84024 0.22396 0.0
H834 H 1.11086 0.81473 0.22395 0.0
H835 H 0.14687 0.8538 0.23747 0.0
H836 H 0.11838 0.87945 0.23749 0.0
H837 H 0.14881 0.88423 0.21095 0.0
H838 H 1.11326 0.88688 0.08919 0.0
H839 H 1.07486 0.92147 0.10028 0.0
H840 H 1.0709 0.89283 0.20213 0.0
C841 C 0.16238 0.8168 0.17731 0.0
C842 C 0.17976 0.80553 0.151 0.0
C843 C 0.17466 0.81674 0.11882 0.0
C844 C 0.15414 0.83833 0.11283 0.0
C845 C 0.1375 0.84883 0.13899 0.0
C846 C 0.14106 0.83809 0.17062 0.0
C847 C 0.11902 0.85212 0.19386 0.0
C848 C 1.09884 0.83003 0.20835 0.0
C849 C 0.13417 0.86835 0.2216 0.0
C850 C 1.10275 0.87245 0.17057 0.0
C851 C 0.11424 0.87047 0.13911 0.0
C852 C 1.10405 0.88808 0.11372 0.0
C853 C 1.08193 0.90791 0.1203 0.0
C854 C 1.06881 0.91029 0.15194 0.0
C855 C 1.07966 0.89178 0.17738 0.0
H856 H 0.29224 0.23192 0.94043 0.0
H857 H 0.33857 0.23299 0.84746 0.0
H858 H 0.38394 0.23145 0.87811 0.0
H859 H 0.34278 0.27728 0.985 0.0
H860 H 0.33967 0.25908 0.02402 0.0
H861 H 0.31021 0.25944 0.99524 0.0
H862 H 0.30946 0.20521 0.99594 0.0
H863 H 0.33898 0.2047 0.02464 0.0
H864 H 0.34149 0.18583 0.98603 0.0
H865 H 0.42562 0.22838 0.91854 0.0
H866 H 0.45968 0.22765 0.96498 0.0
H867 H 0.38938 0.23173 0.03462 0.0
C868 C 0.31191 0.23178 0.92646 0.0
C869 C 0.3111 0.23248 0.89084 0.0
C870 C 0.33784 0.23253 0.87428 0.0
C871 C 0.36406 0.23156 0.89167 0.0
C872 C 0.36413 0.23089 0.92633 0.0
C873 C 0.33877 0.23133 0.94372 0.0
C874 C 0.34541 0.23145 0.98117 0.0
C875 C 0.33382 0.25842 0.99732 0.0
C876 C 0.33309 0.20524 0.99794 0.0
C877 C 0.37826 0.23076 0.982 0.0
C878 C 0.3884 0.23018 0.94986 0.0
C879 C 0.41772 0.2289 0.94372 0.0
C880 C 0.43712 0.22833 0.97063 0.0
C881 C 0.4279 0.22942 0.00419 0.0
C882 C 0.39766 0.23077 0.00962 0.0
H883 H 0.73945 0.57691 0.12461 0.0
H884 H 0.74786 0.50745 0.19381 0.0
H885 H 0.74958 0.54082 0.24019 0.0
H886 H 0.78752 0.62441 0.16874 0.0
H887 H 0.76679 0.65574 0.16071 0.0
H888 H 0.76549 0.6267 0.13213 0.0
H889 H 0.71075 0.62541 0.13795 0.0
H890 H 0.71184 0.65422 0.16688 0.0
H891 H 0.69512 0.62177 0.17852 0.0
H892 H 0.74933 0.58192 0.28107 0.0
H893 H 0.74894 0.62675 0.31175 0.0
H894 H 0.74305 0.67221 0.21875 0.0
C895 C 0.74159 0.56863 0.1495 0.0
C896 C 0.74344 0.53877 0.15473 0.0
C897 C 0.74638 0.52965 0.18821 0.0
C898 C 0.74736 0.54869 0.21513 0.0
C899 C 0.7456 0.57759 0.20919 0.0
C900 C 0.74287 0.58767 0.17716 0.0
C901 C 0.74181 0.62005 0.17817 0.0
C902 C 0.7669 0.63246 0.15877 0.0
C903 C 0.71318 0.63101 0.16455 0.0
C904 C 0.74457 0.62644 0.2155 0.0
C905 C 0.74641 0.60145 0.23283 0.0
C906 C 0.74812 0.60152 0.26751 0.0
C907 C 0.74791 0.62736 0.28493 0.0
C908 C 0.74645 0.65366 0.26831 0.0
C909 C 0.74482 0.65285 0.23271 0.0
H910 H 0.44658 0.97783 0.43819 0.0
H911 H 0.39929 0.98313 0.34579 0.0
H912 H 0.35431 0.98517 0.37707 0.0
H913 H 0.39465 0.9329 0.48089 0.0
H914 H 0.39903 0.9493 0.5208 0.0
H915 H 0.4281 0.94895 0.49164 0.0
H916 H 0.43121 1.00295 0.49521 0.0
H917 H 0.40212 1.00349 0.52436 0.0
H918 H 0.3999 1.02402 0.48686 0.0
H919 H 0.31298 0.98785 0.41846 0.0
H920 H 0.27954 0.98785 0.4654 0.0
H921 H 0.35058 0.97803 0.53364 0.0
C922 C 0.42679 0.97943 0.42444 0.0
C923 C 0.42727 0.98038 0.38877 0.0
C924 C 0.40033 0.98231 0.3726 0.0
C925 C 0.37432 0.98356 0.39037 0.0
C926 C 0.37459 0.9826 0.42507 0.0
C927 C 0.40013 0.98029 0.44206 0.0
C928 C 0.39391 0.97888 0.47958 0.0
C929 C 0.40457 0.95084 0.49409 0.0
C930 C 0.40761 1.00381 0.49757 0.0
C931 C 0.36108 0.98088 0.48096 0.0
C932 C 0.35057 0.98328 0.44902 0.0
C933 C 0.3212 0.98595 0.44346 0.0
C934 C 0.30213 0.98607 0.47068 0.0
C935 C 0.31168 0.98318 0.50404 0.0
C936 C 0.34199 0.98041 0.50886 0.0
H937 H 1.01353 0.67904 0.68807 0.0
H938 H 0.97519 0.641 0.60121 0.0
H939 H 0.96839 0.59717 0.63218 0.0
H940 H 1.05159 0.6148 0.71456 0.0
H941 H 1.04667 0.62059 0.75833 0.0
H942 H 1.0479 0.65007 0.73029 0.0
H943 H 0.99888 0.66718 0.75171 0.0
H944 H 0.99753 0.63769 0.77975 0.0
H945 H 0.96896 0.64367 0.75056 0.0
H946 H 0.96501 0.55625 0.67199 0.0
H947 H 0.96727 0.52113 0.71662 0.0
H948 H 1.00961 0.58147 0.78011 0.0
C949 C 1.00344 0.6616 0.67564 0.0
C950 C 0.99476 0.66429 0.64155 0.0
C951 C 0.98216 0.64024 0.62681 0.0
C952 C 0.97809 0.61492 0.64441 0.0
C953 C 0.98695 0.61285 0.67741 0.0
C954 C 0.99959 0.63542 0.69301 0.0
C955 C 1.00801 0.62653 0.72856 0.0
C956 C 1.04048 0.6281 0.73321 0.0
C957 C 0.99242 0.64487 0.75417 0.0
C958 C 0.99783 0.59582 0.73041 0.0
C959 C 0.98566 0.58865 0.70042 0.0
C960 C 0.97455 0.5618 0.69552 0.0
C961 C 0.97589 0.54176 0.72141 0.0
C962 C 0.98843 0.54781 0.75271 0.0
C963 C 0.99962 0.57565 0.75693 0.0
H964 H 0.85065 0.98745 0.96216 0.0
H965 H 0.78072 0.98345 0.03227 0.0
H966 H 0.815 0.98189 0.07836 0.0
H967 H 0.89998 0.94174 0.00769 0.0
H968 H 0.93145 0.96188 0.99892 0.0
H969 H 0.90182 0.96253 0.97038 0.0
H970 H 0.89945 1.01663 0.97446 0.0
H971 H 0.92915 1.01608 0.00292 0.0
H972 H 0.89614 1.03296 0.01458 0.0
H973 H 0.85665 0.97885 0.1183 0.0
H974 H 0.90197 0.97759 0.14893 0.0
H975 H 0.94823 0.98655 0.05649 0.0
C976 C 0.8425 0.98643 0.98721 0.0
C977 C 0.81224 0.9858 0.99284 0.0
C978 C 0.80323 0.98437 0.02646 0.0
C979 C 0.82278 0.98332 0.05318 0.0
C980 C 0.85206 0.98408 0.04689 0.0
C981 C 0.86207 0.98594 0.01477 0.0
C982 C 0.89495 0.987 0.01564 0.0
C983 C 0.90781 0.96179 0.99704 0.0
C984 C 0.90555 1.01482 0.00102 0.0
C985 C 0.9017 0.98518 0.05305 0.0
C986 C 0.87639 0.98328 0.07034 0.0
C987 C 0.8765 0.98055 0.10485 0.0
C988 C 0.90271 0.97978 0.12222 0.0
C989 C 0.92943 0.98205 0.10586 0.0
C990 C 0.92858 0.98496 0.07036 0.0
H991 H 0.50572 0.63694 0.86635 0.0
H992 H 0.48386 0.70529 0.79958 0.0
H993 H 0.48013 0.67151 0.75339 0.0
H994 H 0.54747 0.59542 0.80727 0.0
H995 H 0.53476 0.5619 0.82149 0.0
H996 H 0.53634 0.59117 0.84972 0.0
H997 H 0.48284 0.58548 0.86288 0.0
H998 H 0.48114 0.55611 0.83481 0.0
H999 H 0.45725 0.58562 0.82945 0.0
H1000 H 0.48054 0.62979 0.71245 0.0
H1001 H 0.48199 0.58473 0.68226 0.0
H1002 H 0.50047 0.54102 0.77426 0.0
C1003 C 0.50014 0.64491 0.84203 0.0
C1004 C 0.4952 0.67449 0.83728 0.0
C1005 C 0.4878 0.68326 0.80464 0.0
C1006 C 0.48566 0.664 0.77793 0.0
C1007 C 0.49063 0.6353 0.78346 0.0
C1008 C 0.49751 0.62568 0.81484 0.0
C1009 C 0.50118 0.59351 0.81393 0.0
C1010 C 0.53175 0.585 0.8237 0.0
C1011 C 0.4793 0.57934 0.83663 0.0
C1012 C 0.4953 0.58656 0.77731 0.0
C1013 C 0.48959 0.61116 0.76019 0.0
C1014 C 0.48466 0.61052 0.72593 0.0
C1015 C 0.48551 0.58454 0.70881 0.0
C1016 C 0.49076 0.55863 0.72538 0.0
C1017 C 0.49568 0.56001 0.76048 0.0
H1018 H 0.79095 0.23153 0.55219 0.0
H1019 H 0.83748 0.23354 0.64525 0.0
H1020 H 0.88278 0.23212 0.61473 0.0
H1021 H 0.84068 0.1855 0.50718 0.0
H1022 H 0.83795 0.20411 0.46834 0.0
H1023 H 0.80846 0.20453 0.49693 0.0
H1024 H 0.8087 0.25876 0.49699 0.0
H1025 H 0.83814 0.25848 0.46834 0.0
H1026 H 0.84112 0.27695 0.50716 0.0
H1027 H 0.92448 0.22922 0.57445 0.0
H1028 H 0.95854 0.22851 0.52824 0.0
H1029 H 0.88822 0.23152 0.45815 0.0
C1030 C 0.81064 0.23159 0.56622 0.0
C1031 C 0.80985 0.23254 0.60188 0.0
C1032 C 0.83667 0.23288 0.61843 0.0
C1033 C 0.86287 0.23199 0.60111 0.0
C1034 C 0.86292 0.2311 0.56645 0.0
C1035 C 0.83752 0.23123 0.549 0.0
C1036 C 0.84418 0.23118 0.51153 0.0
C1037 C 0.83209 0.20476 0.49501 0.0
C1038 C 0.83232 0.25793 0.49502 0.0
C1039 C 0.87707 0.23078 0.51078 0.0
C1040 C 0.88722 0.23047 0.54298 0.0
C1041 C 0.91656 0.2295 0.54923 0.0
C1042 C 0.93598 0.22894 0.52242 0.0
C1043 C 0.92682 0.22971 0.48877 0.0
C1044 C 0.89651 0.23079 0.4832 0.0
H1045 H 0.23998 0.57813 0.37002 0.0
H1046 H 0.2491 0.50895 0.30086 0.0
H1047 H 0.25136 0.5426 0.25456 0.0
H1048 H 0.19655 0.62372 0.31567 0.0
H1049 H 0.21348 0.65589 0.32804 0.0
H1050 H 0.21188 0.62675 0.35654 0.0
H1051 H 0.26662 0.62775 0.36322 0.0
H1052 H 0.26835 0.65696 0.33484 0.0
H1053 H 0.28889 0.62554 0.32693 0.0
H1054 H 0.25136 0.58411 0.21378 0.0
H1055 H 0.25152 0.62911 0.1834 0.0
H1056 H 0.24513 0.67406 0.27653 0.0
C1057 C 0.24238 0.56996 0.34515 0.0
C1058 C 0.24424 0.5401 0.33988 0.0
C1059 C 0.24759 0.53114 0.30645 0.0
C1060 C 0.24887 0.55035 0.27961 0.0
C1061 C 0.24707 0.57926 0.2856 0.0
C1062 C 0.24406 0.58917 0.31761 0.0
C1063 C 0.24322 0.62157 0.31678 0.0
C1064 C 0.21458 0.63263 0.33007 0.0
C1065 C 0.26826 0.63367 0.33664 0.0
C1066 C 0.24629 0.62823 0.27953 0.0
C1067 C 0.24817 0.60331 0.26211 0.0
C1068 C 0.25015 0.60362 0.22745 0.0
C1069 C 0.25023 0.62959 0.21019 0.0
C1070 C 0.24881 0.65584 0.2269 0.0
C1071 C 0.24686 0.65478 0.26247 0.0
H1072 H 0.84058 0.73209 0.3709 0.0
H1073 H 0.77131 0.73352 0.44205 0.0
H1074 H 0.80601 0.73161 0.48771 0.0
H1075 H 0.88632 0.68341 0.41762 0.0
H1076 H 0.91935 0.7005 0.40756 0.0
H1077 H 0.88948 0.70286 0.37944 0.0
H1078 H 0.89167 0.75715 0.38135 0.0
H1079 H 0.92183 0.75457 0.40893 0.0
H1080 H 0.89086 0.77469 0.42093 0.0
H1081 H 0.8483 0.73018 0.52754 0.0
H1082 H 0.89407 0.7281 0.55746 0.0
H1083 H 0.93901 0.72528 0.46364 0.0
C1084 C 0.83264 0.73217 0.39607 0.0
C1085 C 0.80238 0.73311 0.40204 0.0
C1086 C 0.79375 0.73286 0.43586 0.0
C1087 C 0.81357 0.73178 0.46238 0.0
C1088 C 0.84281 0.73074 0.45574 0.0
C1089 C 0.85249 0.73085 0.42339 0.0
C1090 C 0.88539 0.72908 0.42376 0.0
C1091 C 0.89575 0.70237 0.40603 0.0
C1092 C 0.89818 0.75545 0.40779 0.0
C1093 C 0.89251 0.7278 0.46113 0.0
C1094 C 0.8674 0.72906 0.47893 0.0
C1095 C 0.86797 0.72901 0.51363 0.0
C1096 C 0.89442 0.72775 0.53062 0.0
C1097 C 0.92093 0.72615 0.51366 0.0
C1098 C 0.91957 0.72607 0.47798 0.0
H1099 H 0.23193 0.17217 0.71764 0.0
H1100 H 0.26165 0.1298 0.8066 0.0
H1101 H 0.26417 1.0851 0.77585 0.0
H1102 H 0.18703 0.11408 0.68921 0.0
H1103 H 0.19426 0.11932 0.64577 0.0
H1104 H 0.19585 0.14855 0.67408 0.0
H1105 H 0.24728 0.15861 0.65508 0.0
H1106 H 0.24589 0.12928 0.62691 0.0
H1107 H 0.27388 0.13113 0.65751 0.0
H1108 H 0.26475 1.04399 0.73521 0.0
H1109 H 0.26078 1.00985 0.68985 0.0
H1110 H 0.22747 1.07531 0.62519 0.0
C1111 C 0.2393 0.15356 0.73061 0.0
C1112 C 0.24703 0.15525 0.7651 0.0
C1113 C 0.25578 0.12979 0.78061 0.0
C1114 C 0.25729 1.10401 0.76314 0.0
C1115 C 0.24952 1.10303 0.72961 0.0
C1116 C 0.24041 0.12709 0.71344 0.0
C1117 C 0.23221 0.11954 0.67746 0.0
C1118 C 0.20045 0.12575 0.67125 0.0
C1119 C 0.25093 0.1356 0.65277 0.0
C1120 C 0.23841 1.08768 0.67587 0.0
C1121 C 0.2486 1.07888 0.7064 0.0
C1122 C 0.25659 1.05083 0.71138 0.0
C1123 C 0.25424 1.03134 0.68505 0.0
C1124 C 0.24358 1.03905 0.6532 0.0
C1125 C 0.23543 1.06805 0.64893 0.0
H1126 H 0.80124 0.48089 0.9691 0.0
H1127 H 0.84861 0.48169 0.06152 0.0
H1128 H 0.89373 0.48138 0.03019 0.0
H1129 H 0.84999 0.43346 0.92586 0.0
H1130 H 0.8466 0.45057 0.88613 0.0
H1131 H 0.81767 0.45221 0.91541 0.0
H1132 H 0.81789 0.50627 0.91257 0.0
H1133 H 0.84681 0.50493 0.88325 0.0
H1134 H 0.85045 0.52484 0.92098 0.0
H1135 H 0.93531 0.48149 0.98827 0.0
H1136 H 0.96837 0.47992 0.94085 0.0
H1137 H 0.89635 0.47664 0.87336 0.0
C1138 C 0.82108 0.48133 0.98284 0.0
C1139 C 0.82065 0.48169 0.01849 0.0
C1140 C 0.84761 0.48159 0.0347 0.0
C1141 C 0.87367 0.48141 0.01689 0.0
C1142 C 0.87334 0.48095 0.98216 0.0
C1143 C 0.84769 0.48073 0.9652 0.0
C1144 C 0.85365 0.47927 0.92768 0.0
C1145 C 0.84124 0.45226 0.91289 0.0
C1146 C 0.84147 0.50538 0.91007 0.0
C1147 C 0.88648 0.47884 0.92617 0.0
C1148 C 0.89729 0.48003 0.95805 0.0
C1149 C 0.92682 0.48042 0.96333 0.0
C1150 C 0.94569 0.47952 0.93588 0.0
C1151 C 0.93571 0.47797 0.90259 0.0
C1152 C 0.90528 0.47761 0.89809 0.0
H1153 H 0.49855 1.04048 0.21502 0.0
H1154 H 0.49187 1.08477 0.30862 0.0
H1155 H 0.49121 0.1299 0.27868 0.0
H1156 H 0.54546 1.09113 0.17465 0.0
H1157 H 0.52911 1.08828 0.13436 0.0
H1158 H 0.5281 1.05897 0.1626 0.0
H1159 H 0.47328 1.05798 0.15783 0.0
H1160 H 0.4742 1.08737 0.12965 0.0
H1161 H 0.45295 1.08934 0.16676 0.0
H1162 H 0.49022 0.17154 0.23858 0.0
H1163 H 0.49164 0.20559 0.19263 0.0
H1164 H 0.50194 0.13721 0.12261 0.0
C1165 C 0.4967 1.05964 0.22927 0.0
C1166 C 0.49498 1.05834 0.26485 0.0
C1167 C 0.4931 1.08444 0.28182 0.0
C1168 C 0.4927 0.1105 0.26483 0.0
C1169 C 0.4945 0.11104 0.2302 0.0
C1170 C 0.49665 1.0863 0.21246 0.0
C1171 C 0.49889 1.09331 0.17521 0.0
C1172 C 0.52709 1.08224 0.16087 0.0
C1173 C 0.47331 1.08128 0.15623 0.0
C1174 C 0.49804 0.12566 0.17488 0.0
C1175 C 0.49507 0.13525 0.20703 0.0
C1176 C 0.4928 0.16405 0.21344 0.0
C1177 C 0.49363 0.18346 0.18683 0.0
C1178 C 0.49726 0.1748 0.15335 0.0
C1179 C 0.49958 0.14509 0.14762 0.0
H1180 H 0.30091 0.48329 0.52647 0.0
H1181 H 0.34711 0.48067 0.43345 0.0
H1182 H 0.39246 0.47876 0.46413 0.0
H1183 H 0.35283 0.52625 0.57232 0.0
H1184 H 0.34926 0.50743 0.61087 0.0
H1185 H 0.31978 0.5091 0.58215 0.0
H1186 H 0.31752 0.45487 0.58122 0.0
H1187 H 0.34689 0.45317 0.6101 0.0
H1188 H 0.34913 0.43492 0.57108 0.0
H1189 H 0.43415 0.47691 0.50444 0.0
H1190 H 0.4684 0.47543 0.5505 0.0
H1191 H 0.39854 0.47841 0.62083 0.0
C1192 C 0.32056 0.48262 0.51248 0.0
C1193 C 0.31965 0.48244 0.47678 0.0
C1194 C 0.34639 0.481 0.46027 0.0
C1195 C 0.37262 0.47986 0.4777 0.0
C1196 C 0.37276 0.47992 0.5124 0.0
C1197 C 0.34745 0.48123 0.5298 0.0
C1198 C 0.3542 0.48048 0.5673 0.0
C1199 C 0.34336 0.50742 0.58417 0.0
C1200 C 0.34114 0.45431 0.58338 0.0
C1201 C 0.3871 0.47884 0.56816 0.0
C1202 C 0.39709 0.47851 0.53594 0.0
C1203 C 0.42636 0.47716 0.52968 0.0
C1204 C 0.44592 0.4763 0.55644 0.0
C1205 C 0.43701 0.4767 0.59016 0.0
C1206 C 0.4067 0.4779 0.59577 0.0
H1207 H 0.98379 0.18302 0.30518 0.0
H1208 H 1.01839 0.14228 0.39289 0.0
H1209 H 1.0201 1.09725 0.36304 0.0
H1210 H 0.94116 0.12406 0.27494 0.0
H1211 H 0.94948 0.1292 0.23176 0.0
H1212 H 0.94967 0.15863 0.25984 0.0
H1213 H 1.00144 0.16969 0.24295 0.0
H1214 H 1.00139 0.1403 0.21481 0.0
H1215 H 1.02847 0.14272 0.24642 0.0
H1216 H 1.01629 1.05505 0.32491 0.0
H1217 H 1.01244 1.02031 0.28011 0.0
H1218 H 0.9846 1.08594 0.21241 0.0
C1219 C 0.99167 0.16462 0.31817 0.0
C1220 C 1.00081 0.16687 0.35214 0.0
C1221 C 1.01125 0.14185 0.36735 0.0
C1222 C 1.01223 0.11584 0.35044 0.0
C1223 C 1.00322 0.11434 0.31741 0.0
C1224 C 0.99355 0.13813 0.30108 0.0
C1225 C 0.98651 0.13036 0.26483 0.0
C1226 C 0.95482 0.13591 0.2574 0.0
C1227 C 1.00558 0.14675 0.24082 0.0
C1228 C 0.99345 1.09863 0.26355 0.0
C1229 C 1.00266 1.09001 0.29454 0.0
C1230 C 1.00933 1.06179 0.30054 0.0
C1231 C 1.00689 1.04195 0.27465 0.0
C1232 C 0.99818 1.04965 0.24206 0.0
C1233 C 0.99152 1.07885 0.23664 0.0
H1234 H 0.29757 0.73542 0.05125 0.0
H1235 H 0.34329 0.73069 0.14474 0.0
H1236 H 0.38872 0.72762 0.11457 0.0
H1237 H 0.34426 0.68832 0.00405 0.0
H1238 H 0.34318 0.70866 0.96634 0.0
H1239 H 0.31355 0.70994 0.9947 0.0
H1240 H 0.31768 0.76392 0.99798 0.0
H1241 H 0.34726 0.76278 0.96954 0.0
H1242 H 0.35127 0.77934 0.00942 0.0
H1243 H 0.43061 0.72347 0.07432 0.0
H1244 H 0.46487 0.72223 0.02819 0.0
H1245 H 0.39525 0.73271 0.95814 0.0
C1246 C 0.31711 0.7337 0.06545 0.0
C1247 C 0.31604 0.73322 0.10111 0.0
C1248 C 0.34269 0.7312 0.11791 0.0
C1249 C 0.36897 0.72934 0.10079 0.0
C1250 C 0.36928 0.72985 0.06611 0.0
C1251 C 0.34407 0.73234 0.04848 0.0
C1252 C 0.35099 0.73337 0.01112 0.0
C1253 C 0.33716 0.7086 0.99297 0.0
C1254 C 0.34121 0.76153 0.99612 0.0
C1255 C 0.38379 0.73073 0.01058 0.0
C1256 C 0.39368 0.7285 0.04278 0.0
C1257 C 0.42289 0.72529 0.0491 0.0
C1258 C 0.44242 0.72445 0.02236 0.0
C1259 C 0.4335 0.72714 0.98876 0.0
C1260 C 0.40335 0.73046 0.98315 0.0
H1261 H 0.74558 0.17394 0.77925 0.0
H1262 H 0.73594 0.12866 0.68669 0.0
H1263 H 0.73367 1.08412 0.71757 0.0
H1264 H 0.78902 0.11972 0.82227 0.0
H1265 H 0.7722 0.12476 0.86198 0.0
H1266 H 0.77412 0.15352 0.83298 0.0
H1267 H 0.71977 0.15975 0.83619 0.0
H1268 H 0.71725 0.13077 0.86478 0.0
H1269 H 0.69684 0.13058 0.82684 0.0
H1270 H 0.73296 1.04303 0.75825 0.0
H1271 H 0.73243 1.00956 0.80471 0.0
H1272 H 0.74021 1.0786 0.87416 0.0
C1273 C 0.74332 0.15464 0.76538 0.0
C1274 C 0.74128 0.15554 0.72976 0.0
C1275 C 0.73774 0.12933 0.71345 0.0
C1276 C 0.7364 1.10358 0.73099 0.0
C1277 C 0.73829 1.10344 0.76563 0.0
C1278 C 0.74159 0.12829 0.78282 0.0
C1279 C 0.74238 0.12178 0.82033 0.0
C1280 C 0.77114 0.13047 0.83528 0.0
C1281 C 0.71756 0.1366 0.8381 0.0
C1282 C 0.73896 1.08957 0.82146 0.0
C1283 C 0.73689 1.07962 0.78936 0.0
C1284 C 0.7344 1.05081 0.78339 0.0
C1285 C 0.73411 1.03172 0.81033 0.0
C1286 C 0.73594 1.0407 0.84391 0.0
C1287 C 0.7383 1.07049 0.84922 0.0
H1288 H 0.62943 0.22293 0.89721 0.0
H1289 H 0.55015 0.19015 0.85838 0.0
H1290 H 0.56876 0.19495 0.80111 0.0
H1291 H 0.64147 0.27389 0.83188 0.0
H1292 H 0.67952 0.26838 0.83217 0.0
H1293 H 0.65932 0.26344 0.86962 0.0
H1294 H 0.67953 0.21293 0.87516 0.0
H1295 H 0.69974 0.2173 0.83767 0.0
H1296 H 0.67512 0.18858 0.8414 0.0
H1297 H 0.59824 0.20055 0.74805 0.0
H1298 H 0.63471 0.20839 0.70465 0.0
H1299 H 0.69321 0.23835 0.7801 0.0
C1300 C 0.61596 0.21681 0.87664 0.0
C1301 C 0.58849 0.20599 0.88206 0.0
C1302 C 0.57127 0.19857 0.85459 0.0
C1303 C 0.58168 0.20117 0.82207 0.0
C1304 C 0.60913 0.21157 0.81763 0.0
C1305 C 0.62585 0.21952 0.84426 0.0
C1306 C 0.65473 0.2296 0.83325 0.0
C1307 C 0.65899 0.26067 0.84226 0.0
C1308 C 0.6787 0.21099 0.84772 0.0
C1309 C 0.65192 0.22571 0.79628 0.0
C1310 C 0.62556 0.2153 0.78753 0.0
C1311 C 0.61883 0.209 0.75464 0.0
C1312 C 0.63966 0.21346 0.73018 0.0
C1313 C 0.66675 0.22419 0.73888 0.0
C1314 C 0.67266 0.23046 0.77239 0.0
H1315 H 0.74899 0.86742 0.15016 0.0
H1316 H 0.80017 0.79856 0.11166 0.0
H1317 H 0.79673 0.81884 0.05543 0.0
H1318 H 0.70163 0.8751 0.0789 0.0
H1319 H 0.70059 0.9129 0.08119 0.0
H1320 H 0.70585 0.89242 0.11832 0.0
H1321 H 0.75238 0.9195 0.13066 0.0
H1322 H 0.74718 0.94003 0.09359 0.0
H1323 H 0.77997 0.92071 0.09964 0.0
H1324 H 0.7894 0.84704 0.0042 0.0
H1325 H 0.77905 0.88204 0.96066 0.0
H1326 H 0.73258 0.93286 0.03213 0.0
C1327 C 0.75915 0.8565 0.12976 0.0
C1328 C 0.77486 0.83146 0.13512 0.0
C1329 C 0.78826 0.81791 0.10803 0.0
C1330 C 0.78629 0.82916 0.07603 0.0
C1331 C 0.77088 0.85399 0.07159 0.0
C1332 C 0.75756 0.86757 0.09764 0.0
C1333 C 0.74337 0.89462 0.0862 0.0
C1334 C 0.71093 0.89368 0.09146 0.0
C1335 C 0.75652 0.92022 0.10355 0.0
C1336 C 0.75084 0.89403 0.0497 0.0
C1337 C 0.76667 0.87038 0.04184 0.0
C1338 C 0.77688 0.86558 0.00996 0.0
C1339 C 0.77094 0.88562 0.98543 0.0
C1340 C 0.75493 0.91014 0.99294 0.0
C1341 C 0.74459 0.91419 0.02549 0.0
H1342 H 1.07287 1.02361 0.2498 0.0
H1343 H 1.08265 0.93395 0.23556 0.0
H1344 H 0.11795 0.93195 0.28108 0.0
H1345 H 0.1481 1.03836 0.27759 0.0
H1346 H 0.13605 1.06337 0.30809 0.0
H1347 H 0.11617 1.05876 0.2702 0.0
H1348 H 1.07104 1.0489 0.3044 0.0
H1349 H 1.09047 1.05263 0.34257 0.0
H1350 H 1.0712 1.02076 0.33437 0.0
H1351 H 0.14738 0.93853 0.3316 0.0
H1352 H 0.1675 0.95261 0.38548 0.0
H1353 H 0.13733 1.03795 0.36914 0.0
C1354 C 1.08338 1.00385 0.25558 0.0
C1355 C 1.07582 0.979 0.2389 0.0
C1356 C 1.08874 0.95318 0.24786 0.0
C1357 C 1.10879 0.9519 0.27358 0.0
C1358 C 0.11535 0.97662 0.29028 0.0
C1359 C 1.10304 1.00215 0.28171 0.0
C1360 C 1.11101 1.02482 0.30631 0.0
C1361 C 0.12891 1.04768 0.28954 0.0
C1362 C 1.08434 1.03749 0.32291 0.0
C1363 C 0.12878 1.00783 0.33065 0.0
C1364 C 0.13155 0.98024 0.32048 0.0
C1365 C 0.14579 0.96017 0.33958 0.0
C1366 C 0.15725 0.96841 0.37011 0.0
C1367 C 0.15415 0.99642 0.38143 0.0
C1368 C 0.14003 1.0164 0.36114 0.0
H1369 H 1.00429 0.28226 0.52951 0.0
H1370 H 0.95915 0.33454 0.45796 0.0
H1371 H 0.94584 0.36737 0.50281 0.0
H1372 H 0.95407 0.28974 0.59415 0.0
H1373 H 0.98033 0.29029 0.62684 0.0
H1374 H 0.98771 0.27176 0.58889 0.0
H1375 H 1.03364 0.30067 0.58069 0.0
H1376 H 1.02664 0.31926 0.61871 0.0
H1377 H 1.03158 0.3385 0.58066 0.0
H1378 H 0.93572 0.39331 0.55584 0.0
H1379 H 0.93078 0.41134 0.61298 0.0
H1380 H 0.98248 0.34193 0.64956 0.0
C1381 C 0.99196 0.30082 0.52306 0.0
C1382 C 0.9829 0.30591 0.49012 0.0
C1383 C 0.96642 0.33023 0.48297 0.0
C1384 C 0.95873 0.34899 0.50828 0.0
C1385 C 0.96771 0.34309 0.54053 0.0
C1386 C 0.98406 0.31966 0.54794 0.0
C1387 C 0.99022 0.31761 0.58472 0.0
C1388 C 0.97731 0.29076 0.59952 0.0
C1389 C 1.02244 0.31911 0.59159 0.0
C1390 C 0.97483 0.34365 0.59691 0.0
C1391 C 0.96189 0.358 0.57104 0.0
C1392 C 0.94584 0.38232 0.57627 0.0
C1393 C 0.94301 0.3923 0.60879 0.0
C1394 C 0.95626 0.37803 0.63562 0.0
C1395 C 0.9724 0.35343 0.62947 0.0
H1396 H 0.63947 1.03766 0.13076 0.0
H1397 H 0.66507 0.95089 0.11491 0.0
H1398 H 0.64598 0.93832 0.1697 0.0
H1399 H 0.65194 1.03847 0.22261 0.0
H1400 H 0.62102 1.06033 0.22975 0.0
H1401 H 0.64075 1.0636 0.19165 0.0
H1402 H 0.59453 1.05498 0.15817 0.0
H1403 H 0.57484 1.05139 0.19612 0.0
H1404 H 0.57427 1.02361 0.16581 0.0
H1405 H 0.61772 0.93352 0.22116 0.0
H1406 H 0.58221 0.93705 0.26598 0.0
H1407 H 0.57537 1.02678 0.2504 0.0
C1408 C 0.64143 1.01609 0.13902 0.0
C1409 C 0.65396 0.99531 0.11852 0.0
C1410 C 0.65609 0.96732 0.13031 0.0
C1411 C 0.64525 0.95994 0.16144 0.0
C1412 C 0.63262 0.98083 0.18074 0.0
C1413 C 0.63082 1.00838 0.17014 0.0
C1414 C 0.61399 1.02623 0.19443 0.0
C1415 C 0.63307 1.04847 0.21057 0.0
C1416 C 0.58787 1.03984 0.17758 0.0
C1417 C 0.60525 1.00412 0.21939 0.0
C1418 C 0.61669 0.97814 0.21125 0.0
C1419 C 0.60928 0.95384 0.2283 0.0
C1420 C 0.58912 0.956 0.25371 0.0
C1421 C 0.57677 0.98223 0.262 0.0
C1422 C 0.58542 1.0067 0.24523 0.0
H1423 H 0.48064 0.34088 0.84312 0.0
H1424 H 0.47515 0.42495 0.88411 0.0
H1425 H 0.48092 0.40547 0.94055 0.0
H1426 H 0.44157 0.30631 0.90718 0.0
H1427 H 0.46356 0.2751 0.90696 0.0
H1428 H 0.45954 0.29567 0.86972 0.0
H1429 H 0.51448 0.30048 0.86581 0.0
H1430 H 0.51859 0.27993 0.90307 0.0
H1431 H 0.534 0.31441 0.90058 0.0
H1432 H 0.48457 0.37675 0.9925 0.0
H1433 H 0.48867 0.34069 0.03648 0.0
H1434 H 0.49354 0.2756 0.96144 0.0
C1435 C 0.48064 0.35514 0.86401 0.0
C1436 C 0.47745 0.3844 0.85936 0.0
C1437 C 0.47784 0.40249 0.8872 0.0
C1438 C 0.48097 0.39162 0.9193 0.0
C1439 C 0.48392 0.36267 0.92306 0.0
C1440 C 0.48401 0.34467 0.89619 0.0
C1441 C 0.48757 0.31439 0.90707 0.0
C1442 C 0.46151 0.29685 0.89714 0.0
C1443 C 0.51531 0.30156 0.89332 0.0
C1444 C 0.48921 0.31821 0.94425 0.0
C1445 C 0.48689 0.34619 0.95298 0.0
C1446 C 0.48666 0.35479 0.98599 0.0
C1447 C 0.48887 0.33421 0.01075 0.0
C1448 C 0.49159 0.30549 0.00224 0.0
C1449 C 0.4919 0.29748 0.96858 0.0
H1450 H 0.19006 0.24136 0.71622 0.0
H1451 H 0.13544 0.20598 0.79201 0.0
H1452 H 1.09751 0.19931 0.74995 0.0
H1453 H 0.13466 0.27769 0.66879 0.0
H1454 H 0.15184 0.26968 0.62997 0.0
H1455 H 0.17288 0.27393 0.66702 0.0
H1456 H 0.19531 0.22446 0.6578 0.0
H1457 H 0.17414 0.22014 0.62097 0.0
H1458 H 0.17227 0.19452 0.65379 0.0
H1459 H 1.06658 0.19459 0.69805 0.0
H1460 H 1.04691 0.18989 0.64107 0.0
H1461 H 0.12329 0.2276 0.60118 0.0
C1462 C 0.17001 0.23263 0.72429 0.0
C1463 C 0.16565 0.22427 0.7574 0.0
C1464 C 0.13922 0.21246 0.76668 0.0
C1465 C 0.11753 0.20876 0.74303 0.0
C1466 C 0.12276 0.21703 0.71042 0.0
C1467 C 0.14843 0.22869 0.70117 0.0
C1468 C 0.14984 0.23413 0.66439 0.0
C1469 C 0.15245 0.26573 0.65713 0.0
C1470 C 0.17433 0.2173 0.64832 0.0
C1471 C 0.12112 0.22317 0.65408 0.0
C1472 C 1.10551 0.21377 0.68088 0.0
C1473 C 1.07855 0.20204 0.67694 0.0
C1474 C 1.06754 0.19949 0.64466 0.0
C1475 C 1.0838 0.20823 0.61708 0.0
C1476 C 1.11061 0.22059 0.62199 0.0
H1477 H 0.24453 0.93632 0.46315 0.0
H1478 H 0.25157 0.87189 0.539 0.0
H1479 H 0.25535 0.83552 0.49548 0.0
H1480 H 0.20372 0.89599 0.4032 0.0
H1481 H 0.2225 0.91048 0.36828 0.0
H1482 H 0.2182 0.93086 0.40554 0.0
H1483 H 0.27296 0.93734 0.40892 0.0
H1484 H 0.27747 0.91675 0.37188 0.0
H1485 H 0.29591 0.9068 0.4094 0.0
H1486 H 0.25922 0.80656 0.44392 0.0
H1487 H 0.26594 0.78705 0.38766 0.0
H1488 H 0.25818 0.87079 0.34593 0.0
C1489 C 0.24648 0.91451 0.47056 0.0
C1490 C 0.24759 0.90674 0.50427 0.0
C1491 C 0.25075 0.87814 0.51318 0.0
C1492 C 0.25276 0.85739 0.48871 0.0
C1493 C 0.25179 0.86576 0.45562 0.0
C1494 C 0.24891 0.89364 0.44652 0.0
C1495 C 0.2502 0.89727 0.40933 0.0
C1496 C 0.22197 0.90935 0.39579 0.0
C1497 C 0.27565 0.91561 0.39931 0.0
C1498 C 0.25449 0.86706 0.39891 0.0
C1499 C 0.25498 0.84918 0.42594 0.0
C1500 C 0.25881 0.8203 0.42253 0.0
C1501 C 0.2625 0.80943 0.39058 0.0
C1502 C 0.26261 0.82749 0.36269 0.0
C1503 C 0.25839 0.85661 0.36695 0.0
H1504 H 0.13091 0.72531 0.39428 0.0
H1505 H 1.0707 0.66294 0.36009 0.0
H1506 H 1.08987 0.66708 0.3033 0.0
H1507 H 0.1288 0.76942 0.32065 0.0
H1508 H 0.16637 0.77698 0.32239 0.0
H1509 H 0.14709 0.76987 0.36001 0.0
H1510 H 0.18302 0.73002 0.37434 0.0
H1511 H 0.2023 0.73688 0.33671 0.0
H1512 H 0.18907 0.70215 0.34492 0.0
H1513 H 0.11648 0.67718 0.25054 0.0
H1514 H 0.14995 0.69108 0.20638 0.0
H1515 H 0.19219 0.74709 0.27547 0.0
C1516 C 0.12156 0.71277 0.37475 0.0
C1517 C 1.09935 0.69381 0.38152 0.0
C1518 C 1.08795 0.67739 0.35545 0.0
C1519 C 1.09854 0.67974 0.32311 0.0
C1520 C 0.12049 0.69861 0.31728 0.0
C1521 C 0.13193 0.71478 0.34239 0.0
C1522 C 0.15616 0.73263 0.32986 0.0
C1523 C 0.14917 0.76409 0.33344 0.0
C1524 C 0.1843 0.72495 0.3475 0.0
C1525 C 0.15663 0.72384 0.29385 0.0
C1526 C 0.13582 0.70434 0.28699 0.0
C1527 C 0.13276 0.69258 0.25555 0.0
C1528 C 0.15182 0.70067 0.23061 0.0
C1529 C 0.17367 0.72023 0.23738 0.0
C1530 C 0.17569 0.73218 0.26934 0.0
H1531 H 0.29308 0.33314 0.61145 0.0
H1532 H 0.20458 0.3241 0.64057 0.0
H1533 H 0.18941 0.34989 0.59043 0.0
H1534 H 0.28734 0.40225 0.58292 0.0
H1535 H 0.31138 0.39798 0.54848 0.0
H1536 H 0.31532 0.37611 0.58462 0.0
H1537 H 0.31155 0.33161 0.5479 0.0
H1538 H 0.30766 0.35344 0.5116 0.0
H1539 H 0.28114 0.32745 0.52098 0.0
H1540 H 0.18412 0.38156 0.5418 0.0
H1541 H 0.18899 0.41528 0.4956 0.0
H1542 H 0.28063 0.4026 0.4964 0.0
C1543 C 0.2705 0.33632 0.60704 0.0
C1544 C 0.24999 0.32654 0.62982 0.0
C1545 C 0.22063 0.33103 0.6232 0.0
C1546 C 0.21182 0.34574 0.59486 0.0
C1547 C 0.2326 0.35553 0.57324 0.0
C1548 C 0.26132 0.35081 0.57876 0.0
C1549 C 0.27933 0.3649 0.55253 0.0
C1550 C 0.29952 0.38659 0.56808 0.0
C1551 C 0.2959 0.34304 0.53204 0.0
C1552 C 0.25626 0.379 0.53202 0.0
C1553 C 0.22945 0.37324 0.54438 0.0
C1554 C 0.20492 0.38579 0.53147 0.0
C1555 C 0.20789 0.40497 0.50542 0.0
C1556 C 0.23513 0.41111 0.49247 0.0
C1557 C 0.25954 0.39764 0.5055 0.0
H1558 H 0.54894 0.46973 0.77805 0.0
H1559 H 0.5943 0.52278 0.70848 0.0
H1560 H 0.62872 0.53491 0.75234 0.0
H1561 H 0.55623 0.51463 0.84774 0.0
H1562 H 0.56089 0.48647 0.87721 0.0
H1563 H 0.54056 0.48082 0.83993 0.0
H1564 H 0.57318 0.43864 0.82488 0.0
H1565 H 0.59369 0.4441 0.86211 0.0
H1566 H 0.61119 0.44351 0.82238 0.0
H1567 H 0.65699 0.54298 0.80417 0.0
H1568 H 0.67784 0.54561 0.86037 0.0
H1569 H 0.61428 0.48733 0.89625 0.0
C1570 C 0.56627 0.48365 0.77186 0.0
C1571 C 0.56893 0.4952 0.7397 0.0
C1572 C 0.59182 0.51356 0.73285 0.0
C1573 C 0.6115 0.52061 0.75762 0.0
C1574 C 0.60808 0.5091 0.7891 0.0
C1575 C 0.58612 0.49093 0.79628 0.0
C1576 C 0.58681 0.48207 0.83238 0.0
C1577 C 0.5595 0.49157 0.85037 0.0
C1578 C 0.59151 0.45019 0.83561 0.0
C1579 C 0.61256 0.49819 0.84439 0.0
C1580 C 0.62448 0.51367 0.81902 0.0
C1581 C 0.64794 0.53087 0.82421 0.0
C1582 C 0.65953 0.53234 0.85622 0.0
C1583 C 0.6477 0.51666 0.88262 0.0
C1584 C 0.624 0.49926 0.87645 0.0
H1585 H 0.46557 0.80433 -5e-05 0.0
H1586 H 0.55707 0.79051 0.00194 0.0
H1587 H 0.56067 0.81915 0.05281 0.0
H1588 H 0.46513 0.87621 0.03321 0.0
H1589 H 0.43362 0.87024 0.05764 0.0
H1590 H 0.43879 0.85146 0.01933 0.0
H1591 H 0.43312 0.80422 0.05058 0.0
H1592 H 0.42816 0.82278 0.089 0.0
H1593 H 0.45588 0.79652 0.08555 0.0
H1594 H 0.55403 0.84718 0.10443 0.0
H1595 H 0.53761 0.87225 0.15437 0.0
H1596 H 0.44994 0.86462 0.12073 0.0
C1597 C 0.4864 0.808 0.01069 0.0
C1598 C 0.5111 0.79568 0.99706 0.0
C1599 C 0.53796 0.80002 0.01216 0.0
C1600 C 0.54021 0.81626 0.04091 0.0
C1601 C 0.51535 0.82766 0.05426 0.0
C1602 C 0.48895 0.82371 0.03972 0.0
C1603 C 0.46533 0.83632 0.0605 0.0
C1604 C 0.44981 0.85997 0.04154 0.0
C1605 C 0.44441 0.8136 0.07209 0.0
C1606 C 0.48258 0.84778 0.0891 0.0
C1607 C 0.51139 0.84282 0.08484 0.0
C1608 C 0.53152 0.8512 0.10812 0.0
C1609 C 0.52195 0.86516 0.13655 0.0
C1610 C 0.49246 0.87029 0.14161 0.0
C1611 C 0.47263 0.86139 0.11746 0.0
H1612 H 0.13377 0.53804 0.62444 0.0
H1613 H 0.14333 0.45238 0.58913 0.0
H1614 H 0.1169 0.43522 0.63769 0.0
H1615 H 0.14102 0.52205 0.71228 0.0
H1616 H 0.11455 0.5475 0.72487 0.0
H1617 H 0.13511 0.5533 0.68784 0.0
H1618 H 1.0885 0.55849 0.65364 0.0
H1619 H 1.06786 0.55283 0.69059 0.0
H1620 H 1.06251 0.53082 0.65483 0.0
H1621 H 1.08723 0.42738 0.68753 0.0
H1622 H 1.05652 0.42928 0.73711 0.0
H1623 H 1.06699 0.51964 0.74179 0.0
C1624 C 0.13029 0.51569 0.627 0.0
C1625 C 0.14081 0.49651 0.60315 0.0
C1626 C 0.13591 0.4674 0.60738 0.0
C1627 C 0.12081 0.45745 0.63479 0.0
C1628 C 1.11082 0.47685 0.65785 0.0
C1629 C 0.11535 0.50534 0.65439 0.0
C1630 C 1.10179 0.52164 0.68262 0.0
C1631 C 0.12448 0.53703 0.70312 0.0
C1632 C 1.0788 0.54215 0.66964 0.0
C1633 C 1.08869 0.49784 0.70219 0.0
C1634 C 1.09415 0.47221 0.68735 0.0
C1635 C 1.08306 0.44726 0.69964 0.0
C1636 C 1.06564 0.44855 0.7277 0.0
C1637 C 1.05977 0.47454 0.7433 0.0
C1638 C 1.07173 0.49945 0.73065 0.0
H1639 H 0.95748 0.88904 0.38484 0.0
H1640 H 0.95764 0.81965 0.31512 0.0
H1641 H 0.96348 0.78624 0.36131 0.0
H1642 H 1.01033 0.86335 0.43732 0.0
H1643 H 0.99426 0.87466 0.47566 0.0
H1644 H 0.98663 0.89336 0.43782 0.0
H1645 H 0.93251 0.8858 0.44647 0.0
H1646 H 0.93995 0.86725 0.48457 0.0
H1647 H 0.91926 0.85072 0.45245 0.0
H1648 H 0.97719 0.76175 0.41173 0.0
H1649 H 0.99215 0.74535 0.46669 0.0
H1650 H 0.97971 0.82914 0.50669 0.0
C1651 C 0.95833 0.86676 0.37952 0.0
C1652 C 0.95705 0.85677 0.34658 0.0
C1653 C 0.95823 0.82758 0.34028 0.0
C1654 C 0.9616 0.8085 0.36628 0.0
C1655 C 0.96336 0.819 0.39838 0.0
C1656 C 0.96128 0.84732 0.40533 0.0
C1657 C 0.96508 0.85283 0.44213 0.0
C1658 C 0.99059 0.87219 0.44859 0.0
C1659 C 0.93755 0.86486 0.4573 0.0
C1660 C 0.97094 0.82326 0.45441 0.0
C1661 C 0.96981 0.80423 0.42853 0.0
C1662 C 0.97733 0.7762 0.43241 0.0
C1663 C 0.986 0.76719 0.46367 0.0
C1664 C 0.98669 0.78601 0.49079 0.0
C1665 C 0.97877 0.81436 0.48634 0.0
H1666 H 0.6382 0.72273 0.08815 0.0
H1667 H 0.57604 0.66123 0.11967 0.0
H1668 H 0.5933 0.66538 0.1773 0.0
H1669 H 0.69451 0.69951 0.14149 0.0
H1670 H 0.70751 0.73426 0.15013 0.0
H1671 H 0.68987 0.72716 0.11137 0.0
H1672 H 0.65358 0.76722 0.12275 0.0
H1673 H 0.67113 0.77461 0.16152 0.0
H1674 H 0.63351 0.76716 0.16082 0.0
H1675 H 0.61716 0.67599 0.23114 0.0
H1676 H 0.64784 0.69052 0.27758 0.0
H1677 H 0.69463 0.74521 0.2111 0.0
C1678 C 0.62811 0.7103 0.10725 0.0
C1679 C 0.60582 0.69162 0.09949 0.0
C1680 C 0.59338 0.67541 0.12504 0.0
C1681 C 0.60288 0.67778 0.15785 0.0
C1682 C 0.62482 0.69643 0.16467 0.0
C1683 C 0.63739 0.71233 0.14012 0.0
C1684 C 0.66113 0.73023 0.15401 0.0
C1685 C 0.68996 0.7223 0.13833 0.0
C1686 C 0.65442 0.76167 0.14951 0.0
C1687 C 0.65999 0.72178 0.19017 0.0
C1688 C 0.63877 0.70242 0.19579 0.0
C1689 C 0.63383 0.69119 0.22711 0.0
C1690 C 0.65136 0.69964 0.25334 0.0
C1691 C 0.67365 0.71905 0.24807 0.0
C1692 C 0.6777 0.73047 0.21606 0.0
H1693 H 0.73709 0.43729 0.96146 0.0
H1694 H 0.7449 0.37435 0.03899 0.0
H1695 H 0.74714 0.33707 0.99655 0.0
H1696 H 0.6947 0.39546 0.90322 0.0
H1697 H 0.71314 0.40908 0.86757 0.0
H1698 H 0.7091 0.43043 0.90416 0.0
H1699 H 0.76388 0.43703 0.90675 0.0
H1700 H 0.7681 0.41567 0.87031 0.0
H1701 H 0.78689 0.40652 0.90788 0.0
H1702 H 0.75135 0.30711 0.94589 0.0
H1703 H 0.75932 0.28663 0.89036 0.0
H1704 H 0.74985 0.36932 0.84617 0.0
C1705 C 0.73874 0.41561 0.96949 0.0
C1706 C 0.7407 0.4086 0.00339 0.0
C1707 C 0.74345 0.3801 0.01304 0.0
C1708 C 0.74456 0.3588 0.98917 0.0
C1709 C 0.74301 0.36645 0.95587 0.0
C1710 C 0.74023 0.39416 0.94602 0.0
C1711 C 0.74121 0.39696 0.9087 0.0
C1712 C 0.71285 0.40867 0.89512 0.0
C1713 C 0.76653 0.41511 0.89779 0.0
C1714 C 0.74553 0.36654 0.89914 0.0
C1715 C 0.7461 0.34923 0.92666 0.0
C1716 C 0.7507 0.32038 0.92411 0.0
C1717 C 0.75513 0.30895 0.89253 0.0
C1718 C 0.75521 0.32644 0.86412 0.0
C1719 C 0.75006 0.35553 0.86754 0.0
H1720 H 0.4052 0.2503 0.28851 0.0
H1721 H 0.34361 0.22199 0.21647 0.0
H1722 H 0.30648 0.22206 0.25916 0.0
H1723 H 0.36166 0.22108 0.36919 0.0
H1724 H 0.3731 0.25192 0.39121 0.0
H1725 H 0.39703 0.23451 0.36277 0.0
H1726 H 0.40405 0.28137 0.33161 0.0
H1727 H 0.38044 0.29863 0.35952 0.0
H1728 H 0.37326 0.29995 0.31555 0.0
H1729 H 0.27467 0.24524 0.29679 0.0
H1730 H 0.25394 0.28721 0.32297 0.0
H1731 H 0.33346 0.30229 0.37382 0.0
C1732 C 0.38416 0.24258 0.2826 0.0
C1733 C 0.37704 0.23647 0.24947 0.0
C1734 C 0.34953 0.22655 0.24186 0.0
C1735 C 0.32826 0.2265 0.26614 0.0
C1736 C 0.33495 0.23614 0.29792 0.0
C1737 C 0.36267 0.2431 0.30659 0.0
C1738 C 0.36335 0.25936 0.33885 0.0
C1739 C 0.37443 0.24059 0.36718 0.0
C1740 C 0.38124 0.28642 0.33611 0.0
C1741 C 0.33183 0.26544 0.34312 0.0
C1742 C 0.31564 0.2501 0.32081 0.0
C1743 C 0.28692 0.25654 0.31513 0.0
C1744 C 0.27525 0.28054 0.33001 0.0
C1745 C 0.29232 0.29784 0.35021 0.0
C1746 C 0.31998 0.28885 0.35903 0.0
H1747 H 0.67203 0.70541 0.54583 0.0
H1748 H 0.60221 0.75158 0.50136 0.0
H1749 H 0.57346 0.7443 0.55133 0.0
H1750 H 0.64245 0.6538 0.56614 0.0
H1751 H 0.65664 0.64546 0.60665 0.0
H1752 H 0.67653 0.66719 0.57946 0.0
H1753 H 0.6781 0.70626 0.62371 0.0
H1754 H 0.65811 0.68424 0.65154 0.0
H1755 H 0.64553 0.71918 0.64198 0.0
H1756 H 0.54694 0.71485 0.58766 0.0
H1757 H 0.52777 0.66936 0.6052 0.0
H1758 H 0.61264 0.64042 0.62991 0.0
C1759 C 0.65144 0.71564 0.54792 0.0
C1760 C 0.63914 0.72875 0.52 0.0
C1761 C 0.61191 0.74137 0.52265 0.0
C1762 C 0.5955 0.73743 0.55115 0.0
C1763 C 0.60671 0.72101 0.57685 0.0
C1764 C 0.63467 0.71117 0.57611 0.0
C1765 C 0.63947 0.6885 0.60201 0.0
C1766 C 0.65455 0.66222 0.58762 0.0
C1767 C 0.65629 0.70026 0.63157 0.0
C1768 C 0.60891 0.68289 0.6119 0.0
C1769 C 0.59058 0.70328 0.5992 0.0
C1770 C 0.56108 0.69942 0.5988 0.0
C1771 C 0.55028 0.67343 0.60865 0.0
C1772 C 0.56894 0.65165 0.61877 0.0
C1773 C 0.59814 0.65722 0.62299 0.0
H1774 H 0.39994 0.96874 0.72808 0.0
H1775 H 0.32468 0.98732 0.78574 0.0
H1776 H 0.35308 0.98503 0.83696 0.0
H1777 H 0.42083 0.91757 0.7651 0.0
H1778 H 0.45901 0.92191 0.76601 0.0
H1779 H 0.43848 0.93963 0.73518 0.0
H1780 H 0.45889 0.98727 0.75403 0.0
H1781 H 0.47986 0.9694 0.78526 0.0
H1782 H 0.45626 0.99777 0.79683 0.0
H1783 H 0.38098 0.96144 0.87857 0.0
H1784 H 0.40377 0.91992 0.90373 0.0
H1785 H 0.46304 0.91535 0.82208 0.0
C1786 C 0.39008 0.97423 0.75143 0.0
C1787 C 0.36033 0.9781 0.75321 0.0
C1788 C 0.34755 0.98431 0.78402 0.0
C1789 C 0.36366 0.98325 0.81324 0.0
C1790 C 0.39254 0.97612 0.81121 0.0
C1791 C 0.40594 0.97254 0.78083 0.0
C1792 C 0.43472 0.95825 0.78502 0.0
C1793 C 0.43837 0.93283 0.76151 0.0
C1794 C 0.45886 0.97945 0.78 0.0
C1795 C 0.43287 0.94958 0.82109 0.0
C1796 C 0.40942 0.96183 0.8364 0.0
C1797 C 0.39992 0.95256 0.86731 0.0
C1798 C 0.4129 0.92883 0.88147 0.0
C1799 C 0.43504 0.91458 0.86461 0.0
C1800 C 0.44659 0.92645 0.83565 0.0
H1801 H 1.07647 0.63454 0.11424 0.0
H1802 H 0.13554 0.56942 0.14465 0.0
H1803 H 1.10028 0.53349 0.13049 0.0
H1804 H 1.00479 0.58736 0.12669 0.0
H1805 H 0.99038 0.60426 0.09026 0.0
H1806 H 1.01131 0.6241 0.11945 0.0
H1807 H 1.04449 0.63941 0.07184 0.0
H1808 H 1.02409 0.61971 0.04296 0.0
H1809 H 1.06186 0.61291 0.04685 0.0
H1810 H 1.07202 0.50702 0.09254 0.0
H1811 H 1.05655 0.49473 0.03636 0.0
H1812 H 1.01328 0.5748 0.02722 0.0
C1813 C 1.08095 0.61274 0.11999 0.0
C1814 C 1.10846 0.60457 0.13038 0.0
C1815 C 0.11443 0.57598 0.13673 0.0
C1816 C 1.09435 0.55545 0.12893 0.0
C1817 C 1.06842 0.56387 0.11479 0.0
C1818 C 1.06127 0.59208 0.11126 0.0
C1819 C 1.03624 0.59592 0.08779 0.0
C1820 C 1.00907 0.60333 0.10722 0.0
C1821 C 1.04212 0.61822 0.06078 0.0
C1822 C 1.03438 0.56652 0.07376 0.0
C1823 C 1.05146 0.54786 0.09146 0.0
C1824 C 1.05782 0.5211 0.07924 0.0
C1825 C 1.04893 0.5142 0.04714 0.0
C1826 C 1.03407 0.53412 0.0276 0.0
C1827 C 1.02464 0.55942 0.04209 0.0
H1828 H 0.82348 0.96417 0.69719 0.0
H1829 H 0.75258 0.90835 0.71242 0.0
H1830 H 0.76127 0.88675 0.65826 0.0
H1831 H 0.82267 0.95824 0.59597 0.0
H1832 H 0.86106 0.95922 0.59724 0.0
H1833 H 0.84041 0.9807 0.62529 0.0
H1834 H 0.86798 0.95908 0.67477 0.0
H1835 H 0.88827 0.93767 0.64728 0.0
H1836 H 0.86831 0.92143 0.68024 0.0
H1837 H 0.78864 0.85821 0.62097 0.0
H1838 H 0.82958 0.82829 0.60663 0.0
H1839 H 0.88516 0.90005 0.61201 0.0
C1840 C 0.80893 0.94849 0.6879 0.0
C1841 C 0.78772 0.93765 0.70885 0.0
C1842 C 0.76887 0.91714 0.69659 0.0
C1843 C 0.77371 0.90473 0.66566 0.0
C1844 C 0.79729 0.91324 0.64721 0.0
C1845 C 0.81413 0.93551 0.65737 0.0
C1846 C 0.84194 0.93612 0.63836 0.0
C1847 C 0.84147 0.95998 0.61268 0.0
C1848 C 0.86809 0.93863 0.66158 0.0
C1849 C 0.8406 0.90786 0.6213 0.0
C1850 C 0.81386 0.89595 0.6246 0.0
C1851 C 0.80925 0.8677 0.61708 0.0
C1852 C 0.8327 0.85072 0.60893 0.0
C1853 C 0.86042 0.86205 0.60865 0.0
C1854 C 0.86397 0.89123 0.61209 0.0
H1855 H 0.8299 0.30008 0.1218 0.0
H1856 H 0.75327 0.2891 0.17925 0.0
H1857 H 0.773 0.24558 0.20303 0.0
H1858 H 0.8533 0.21697 0.12319 0.0
H1859 H 0.88976 0.22827 0.12663 0.0
H1860 H 0.86507 0.24731 0.10042 0.0
H1861 H 0.87736 0.29307 0.13143 0.0
H1862 H 0.90156 0.2744 0.15754 0.0
H1863 H 0.87297 0.2946 0.17588 0.0
H1864 H 0.80562 0.21989 0.23741 0.0
H1865 H 0.84531 0.21742 0.27689 0.0
H1866 H 0.90377 0.24241 0.19991 0.0
C1867 C 0.81667 0.28724 0.13758 0.0
C1868 C 0.79028 0.29772 0.14883 0.0
C1869 C 0.77359 0.28125 0.17032 0.0
C1870 C 0.78466 0.25635 0.18379 0.0
C1871 C 0.81243 0.2482 0.17547 0.0
C1872 C 0.828 0.26275 0.15187 0.0
C1873 C 0.85933 0.25475 0.15351 0.0
C1874 C 0.86732 0.23568 0.1242 0.0
C1875 C 0.87886 0.28075 0.15476 0.0
C1876 C 0.85972 0.23823 0.18562 0.0
C1877 C 0.83228 0.23275 0.19649 0.0
C1878 C 0.82713 0.22312 0.22865 0.0
C1879 C 0.84991 0.22172 0.25109 0.0
C1880 C 0.87742 0.23014 0.24128 0.0
C1881 C 0.88274 0.23591 0.2076 0.0
H1882 H 1.05716 0.19407 0.92905 0.0
H1883 H 1.07329 0.13012 0.85541 0.0
H1884 H 1.02924 0.10641 0.87092 0.0
H1885 H 1.04852 0.1577 0.988 0.0
H1886 H 1.01913 0.17382 0.00988 0.0
H1887 H 1.03944 0.19426 0.98171 0.0
H1888 H 0.99376 0.20723 0.9491 0.0
H1889 H 0.97303 0.1866 0.97766 0.0
H1890 H 0.97078 0.18 0.93375 0.0
H1891 H 1.00195 1.07916 0.90857 0.0
H1892 H 0.99733 1.05382 0.961 0.0
H1893 H 0.99499 0.13249 0.01421 0.0
C1894 C 1.05033 0.17586 0.91522 0.0
C1895 C 1.06867 0.16363 0.8916 0.0
C1896 C 1.05949 0.13997 0.87354 0.0
C1897 C 1.03428 0.12636 0.88224 0.0
C1898 C 1.01842 0.13671 0.9089 0.0
C1899 C 1.02554 0.1617 0.92447 0.0
C1900 C 1.0102 0.16466 0.95733 0.0
C1901 C 1.03057 0.173 0.98584 0.0
C1902 C 0.98547 0.18587 0.95425 0.0
C1903 C 0.99887 0.13513 0.96111 0.0
C1904 C 1.00166 0.12009 0.93182 0.0
C1905 C 0.99872 1.09091 0.9312 0.0
C1906 C 0.99606 1.07653 0.96129 0.0
C1907 C 0.99642 1.09139 0.99156 0.0
C1908 C 0.9949 0.12095 0.99111 0.0
H1909 H 0.55974 0.15487 0.60847 0.0
H1910 H 0.60556 1.08591 0.65403 0.0
H1911 H 0.56567 1.05441 0.64189 0.0
H1912 H 0.48062 0.12095 0.62119 0.0
H1913 H 0.47098 0.13537 0.58134 0.0
H1914 H 0.49343 0.15504 0.60914 0.0
H1915 H 0.53111 0.15944 0.56289 0.0
H1916 H 0.50913 0.13998 0.53541 0.0
H1917 H 0.54507 0.12801 0.54362 0.0
H1918 H 0.53549 1.02834 0.60569 0.0
H1919 H 0.5224 1.0123 0.55013 0.0
H1920 H 0.4926 1.09576 0.5252 0.0
C1921 C 0.56026 0.13355 0.61778 0.0
C1922 C 0.58544 0.12267 0.63206 0.0
C1923 C 0.58629 1.09455 0.64309 0.0
C1924 C 0.56352 1.07659 0.63647 0.0
C1925 C 0.54007 1.08705 0.6188 0.0
C1926 C 0.53788 0.11528 0.61037 0.0
C1927 C 0.51499 0.12003 0.58432 0.0
C1928 C 0.48843 0.13364 0.59995 0.0
C1929 C 0.5258 0.13782 0.55485 0.0
C1930 C 0.50902 1.0899 0.57467 0.0
C1931 C 0.52186 1.07119 0.59661 0.0
C1932 C 0.52457 1.04267 0.58904 0.0
C1933 C 0.51697 1.0336 0.55726 0.0
C1934 C 0.50698 1.05309 0.53344 0.0
C1935 C 0.50029 1.08072 0.54334 0.0
loop_
_geom_bond_atom_site_label_1
_geom_bond_atom_site_label_2
_geom_bond_distance
_geom_bond_site_symmetry_2
_ccdc_geom_bond_type
Dy0 O3 2.307 . S
Dy0 O5 2.395 . S
Dy0 O6 2.379 . S
Dy0 O8 2.339 . S
Dy0 O10 2.298 . S
Dy0 O14 2.275 . S
Dy0 C22 2.738 . S
Dy1 O4 2.298 1_556 S
Dy1 O7 2.275 . S
Dy1 O9 2.307 1_556 S
Dy1 O11 2.395 . S
Dy1 O12 2.379 . S
Dy1 O15 2.339 1_556 S
Dy1 C31 2.738 . S
C2 O14 1.254 . S
C2 O15 1.257 . S
O3 Dy0 2.307 . S
O3 C13 1.266 . S
O4 Dy1 2.298 1_554 S
O4 C13 1.236 . S
O5 Dy0 2.395 . S
O5 C22 1.255 . S
O6 Dy0 2.379 . S
O6 C22 1.249 . S
O7 Dy1 2.275 . S
O7 C23 1.254 . S
O8 Dy0 2.339 . S
O8 C23 1.257 1_554 S
O9 Dy1 2.307 1_554 S
O9 C24 1.266 . S
O10 Dy0 2.298 . S
O10 C24 1.236 . S
O11 Dy1 2.395 . S
O11 C31 1.255 . S
O12 Dy1 2.379 . S
O12 C31 1.249 . S
C13 O3 1.266 . S
C13 O4 1.236 . S
O14 Dy0 2.275 . S
O14 C2 1.254 . S
O15 Dy1 2.339 1_554 S
O15 C2 1.257 . S
C16 C19 1.344 . S
C16 C20 1.328 . S
C16 C22 1.516 . S
C17 C18 1.304 . S
C17 C21 1.323 . S
C18 C17 1.304 . S
C18 C19 1.371 . S
C18 H32 0.930 . S
C19 C16 1.344 . S
C19 C18 1.371 . S
C19 H33 0.931 . S
C20 C16 1.328 . S
C20 C21 1.433 . S
C20 H34 0.931 . S
C21 C17 1.323 . S
C21 C20 1.433 . S
C21 H35 0.933 . S
C22 Dy0 2.738 . S
C22 O5 1.255 . S
C22 O6 1.249 . S
C22 C16 1.516 . S
C23 O7 1.254 . S
C23 O8 1.257 1_556 S
C24 O9 1.266 . S
C24 O10 1.236 . S
C25 C28 1.344 . S
C25 C29 1.328 . S
C25 C31 1.516 . S
C26 C27 1.304 . S
C26 C30 1.323 . S
C27 C26 1.304 . S
C27 C28 1.371 . S
C27 H36 0.930 . S
C28 C25 1.344 . S
C28 C27 1.371 . S
C28 H37 0.931 . S
C29 C25 1.328 . S
C29 C30 1.433 . S
C29 H38 0.931 . S
C30 C26 1.323 . S
C30 C29 1.433 . S
C30 H39 0.933 . S
C31 Dy1 2.738 . S
C31 O11 1.255 . S
C31 O12 1.249 . S
C31 C25 1.516 . S
H32 C18 0.930 . S
H33 C19 0.931 . S
H34 C20 0.931 . S
H35 C21 0.933 . S
H36 C27 0.930 . S
H37 C28 0.931 . S
H38 C29 0.931 . S
H39 C30 0.933 . S
Dy40 O43 2.307 . S
Dy40 O45 2.395 . S
Dy40 O46 2.379 . S
Dy40 O48 2.339 . S
Dy40 O50 2.298 . S
Dy40 O54 2.275 . S
Dy40 C62 2.738 . S
Dy41 O44 2.298 . S
Dy41 O47 2.275 . S
Dy41 O49 2.307 . S
Dy41 O51 2.395 . S
Dy41 O52 2.379 . S
Dy41 O55 2.339 . S
Dy41 C71 2.738 . S
C42 O54 1.254 . S
C42 O55 1.257 . S
O43 Dy40 2.307 . S
O43 C53 1.266 . S
O44 Dy41 2.298 . S
O44 C53 1.236 . S
O45 Dy40 2.395 . S
O45 C62 1.255 . S
O46 Dy40 2.379 . S
O46 C62 1.249 . S
O47 Dy41 2.275 . S
O47 C63 1.254 . S
O48 Dy40 2.339 . S
O48 C63 1.257 . S
O49 Dy41 2.307 . S
O49 C64 1.266 . S
O50 Dy40 2.298 . S
O50 C64 1.236 . S
O51 Dy41 2.395 . S
O51 C71 1.255 . S
O52 Dy41 2.379 . S
O52 C71 1.249 . S
C53 O43 1.266 . S
C53 O44 1.236 . S
O54 Dy40 2.275 . S
O54 C42 1.254 . S
O55 Dy41 2.339 . S
O55 C42 1.257 . S
C56 C59 1.344 . S
C56 C60 1.328 . S
C56 C62 1.516 . S
C57 C58 1.304 . S
C57 C61 1.323 . S
C58 C57 1.304 . S
C58 C59 1.371 . S
C58 H72 0.930 . S
C59 C56 1.344 . S
C59 C58 1.371 . S
C59 H73 0.931 . S
C60 C56 1.328 . S
C60 C61 1.433 . S
C60 H74 0.931 . S
C61 C57 1.323 . S
C61 C60 1.433 . S
C61 H75 0.933 . S
C62 Dy40 2.738 . S
C62 O45 1.255 . S
C62 O46 1.249 . S
C62 C56 1.516 . S
C63 O47 1.254 . S
C63 O48 1.257 . S
C64 O49 1.266 . S
C64 O50 1.236 . S
C65 C68 1.344 . S
C65 C69 1.328 . S
C65 C71 1.516 . S
C66 C67 1.304 . S
C66 C70 1.323 . S
C67 C66 1.304 . S
C67 C68 1.371 . S
C67 H76 0.930 . S
C68 C65 1.344 . S
C68 C67 1.371 . S
C68 H77 0.931 . S
C69 C65 1.328 . S
C69 C70 1.433 . S
C69 H78 0.931 . S
C70 C66 1.323 . S
C70 C69 1.433 . S
C70 H79 0.933 . S
C71 Dy41 2.738 . S
C71 O51 1.255 . S
C71 O52 1.249 . S
C71 C65 1.516 . S
H72 C58 0.930 . S
H73 C59 0.931 . S
H74 C60 0.931 . S
H75 C61 0.933 . S
H76 C67 0.930 . S
H77 C68 0.931 . S
H78 C69 0.931 . S
H79 C70 0.933 . S
Dy80 O83 2.307 . S
Dy80 O85 2.395 . S
Dy80 O86 2.379 . S
Dy80 O88 2.339 . S
Dy80 O90 2.298 . S
Dy80 O94 2.275 . S
Dy80 C102 2.738 . S
Dy81 O84 2.298 . S
Dy81 O87 2.275 . S
Dy81 O89 2.307 . S
Dy81 O91 2.395 . S
Dy81 O92 2.379 . S
Dy81 O95 2.339 . S
Dy81 C111 2.738 . S
C82 O94 1.254 . S
C82 O95 1.257 . S
O83 Dy80 2.307 . S
O83 C93 1.266 . S
O84 Dy81 2.298 . S
O84 C93 1.236 . S
O85 Dy80 2.395 . S
O85 C102 1.255 . S
O86 Dy80 2.379 . S
O86 C102 1.249 . S
O87 Dy81 2.275 . S
O87 C103 1.254 . S
O88 Dy80 2.339 . S
O88 C103 1.257 . S
O89 Dy81 2.307 . S
O89 C104 1.266 . S
O90 Dy80 2.298 . S
O90 C104 1.236 . S
O91 Dy81 2.395 . S
O91 C111 1.255 . S
O92 Dy81 2.379 . S
O92 C111 1.249 . S
C93 O83 1.266 . S
C93 O84 1.236 . S
O94 Dy80 2.275 . S
O94 C82 1.254 . S
O95 Dy81 2.339 . S
O95 C82 1.257 . S
C96 C99 1.344 . S
C96 C100 1.328 . S
C96 C102 1.516 . S
C97 C98 1.304 . S
C97 C101 1.323 . S
C98 C97 1.304 . S
C98 C99 1.371 . S
C98 H112 0.930 . S
C99 C96 1.344 . S
C99 C98 1.371 . S
C99 H113 0.931 . S
C100 C96 1.328 . S
C100 C101 1.433 . S
C100 H114 0.931 . S
C101 C97 1.323 . S
C101 C100 1.433 . S
C101 H115 0.933 . S
C102 Dy80 2.738 . S
C102 O85 1.255 . S
C102 O86 1.249 . S
C102 C96 1.516 . S
C103 O87 1.254 . S
C103 O88 1.257 . S
C104 O89 1.266 . S
C104 O90 1.236 . S
C105 C108 1.344 . S
C105 C109 1.328 . S
C105 C111 1.516 . S
C106 C107 1.304 . S
C106 C110 1.323 . S
C107 C106 1.304 . S
C107 C108 1.371 . S
C107 H116 0.930 . S
C108 C105 1.344 . S
C108 C107 1.371 . S
C108 H117 0.931 . S
C109 C105 1.328 . S
C109 C110 1.433 . S
C109 H118 0.931 . S
C110 C106 1.323 . S
C110 C109 1.433 . S
C110 H119 0.933 . S
C111 Dy81 2.738 . S
C111 O91 1.255 . S
C111 O92 1.249 . S
C111 C105 1.516 . S
H112 C98 0.930 . S
H113 C99 0.931 . S
H114 C100 0.931 . S
H115 C101 0.933 . S
H116 C107 0.930 . S
H117 C108 0.931 . S
H118 C109 0.931 . S
H119 C110 0.933 . S
Dy120 O123 2.307 . S
Dy120 O125 2.395 . S
Dy120 O126 2.379 . S
Dy120 O128 2.339 . S
Dy120 O130 2.298 . S
Dy120 O134 2.275 . S
Dy120 C142 2.738 . S
Dy121 O124 2.298 . S
Dy121 O127 2.275 . S
Dy121 O129 2.307 . S
Dy121 O131 2.395 . S
Dy121 O132 2.379 . S
Dy121 O135 2.339 . S
Dy121 C151 2.738 . S
C122 O134 1.254 . S
C122 O135 1.257 . S
O123 Dy120 2.307 . S
O123 C133 1.266 . S
O124 Dy121 2.298 . S
O124 C133 1.236 . S
O125 Dy120 2.395 . S
O125 C142 1.255 . S
O126 Dy120 2.379 . S
O126 C142 1.249 . S
O127 Dy121 2.275 . S
O127 C143 1.254 . S
O128 Dy120 2.339 . S
O128 C143 1.257 . S
O129 Dy121 2.307 . S
O129 C144 1.266 . S
O130 Dy120 2.298 . S
O130 C144 1.236 . S
O131 Dy121 2.395 . S
O131 C151 1.255 . S
O132 Dy121 2.379 . S
O132 C151 1.249 . S
C133 O123 1.266 . S
C133 O124 1.236 . S
O134 Dy120 2.275 . S
O134 C122 1.254 . S
O135 Dy121 2.339 . S
O135 C122 1.257 . S
C136 C139 1.344 . S
C136 C140 1.328 . S
C136 C142 1.516 . S
C137 C138 1.304 . S
C137 C141 1.323 . S
C138 C137 1.304 . S
C138 C139 1.371 . S
C138 H152 0.930 . S
C139 C136 1.344 . S
C139 C138 1.371 . S
C139 H153 0.931 . S
C140 C136 1.328 . S
C140 C141 1.433 . S
C140 H154 0.931 . S
C141 C137 1.323 . S
C141 C140 1.433 . S
C141 H155 0.933 . S
C142 Dy120 2.738 . S
C142 O125 1.255 . S
C142 O126 1.249 . S
C142 C136 1.516 . S
C143 O127 1.254 . S
C143 O128 1.257 . S
C144 O129 1.266 . S
C144 O130 1.236 . S
C145 C148 1.344 . S
C145 C149 1.328 . S
C145 C151 1.516 . S
C146 C147 1.304 . S
C146 C150 1.323 . S
C147 C146 1.304 . S
C147 C148 1.371 . S
C147 H156 0.930 . S
C148 C145 1.344 . S
C148 C147 1.371 . S
C148 H157 0.931 . S
C149 C145 1.328 . S
C149 C150 1.433 . S
C149 H158 0.931 . S
C150 C146 1.323 . S
C150 C149 1.433 . S
C150 H159 0.933 . S
C151 Dy121 2.738 . S
C151 O131 1.255 . S
C151 O132 1.249 . S
C151 C145 1.516 . S
H152 C138 0.930 . S
H153 C139 0.931 . S
H154 C140 0.931 . S
H155 C141 0.933 . S
H156 C147 0.930 . S
H157 C148 0.931 . S
H158 C149 0.931 . S
H159 C150 0.933 . S
Dy160 O163 2.307 1_554 S
Dy160 O165 2.395 . S
Dy160 O166 2.379 . S
Dy160 O168 2.339 1_554 S
Dy160 O170 2.298 1_554 S
Dy160 O174 2.275 . S
Dy160 C182 2.738 . S
Dy161 O164 2.298 . S
Dy161 O167 2.275 . S
Dy161 O169 2.307 . S
Dy161 O171 2.395 . S
Dy161 O172 2.379 . S
Dy161 O175 2.339 . S
Dy161 C191 2.738 . S
C162 O174 1.254 . S
C162 O175 1.257 1_554 S
O163 Dy160 2.307 1_556 S
O163 C173 1.266 . S
O164 Dy161 2.298 . S
O164 C173 1.236 . S
O165 Dy160 2.395 . S
O165 C182 1.255 . S
O166 Dy160 2.379 . S
O166 C182 1.249 . S
O167 Dy161 2.275 . S
O167 C183 1.254 . S
O168 Dy160 2.339 1_556 S
O168 C183 1.257 . S
O169 Dy161 2.307 . S
O169 C184 1.266 . S
O170 Dy160 2.298 1_556 S
O170 C184 1.236 . S
O171 Dy161 2.395 . S
O171 C191 1.255 . S
O172 Dy161 2.379 . S
O172 C191 1.249 . S
C173 O163 1.266 . S
C173 O164 1.236 . S
O174 Dy160 2.275 . S
O174 C162 1.254 . S
O175 Dy161 2.339 . S
O175 C162 1.257 1_556 S
C176 C179 1.344 . S
C176 C180 1.328 . S
C176 C182 1.516 . S
C177 C178 1.304 . S
C177 C181 1.323 . S
C178 C177 1.304 . S
C178 C179 1.371 . S
C178 H192 0.930 . S
C179 C176 1.344 . S
C179 C178 1.371 . S
C179 H193 0.931 . S
C180 C176 1.328 . S
C180 C181 1.433 . S
C180 H194 0.931 . S
C181 C177 1.323 . S
C181 C180 1.433 . S
C181 H195 0.933 . S
C182 Dy160 2.738 . S
C182 O165 1.255 . S
C182 O166 1.249 . S
C182 C176 1.516 . S
C183 O167 1.254 . S
C183 O168 1.257 . S
C184 O169 1.266 . S
C184 O170 1.236 . S
C185 C188 1.344 . S
C185 C189 1.328 . S
C185 C191 1.516 . S
C186 C187 1.304 . S
C186 C190 1.323 . S
C187 C186 1.304 . S
C187 C188 1.371 . S
C187 H196 0.930 . S
C188 C185 1.344 . S
C188 C187 1.371 . S
C188 H197 0.931 . S
C189 C185 1.328 . S
C189 C190 1.433 . S
C189 H198 0.931 . S
C190 C186 1.323 . S
C190 C189 1.433 . S
C190 H199 0.933 . S
C191 Dy161 2.738 . S
C191 O171 1.255 . S
C191 O172 1.249 . S
C191 C185 1.516 . S
H192 C178 0.930 . S
H193 C179 0.931 . S
H194 C180 0.931 . S
H195 C181 0.933 . S
H196 C187 0.930 . S
H197 C188 0.931 . S
H198 C189 0.931 . S
H199 C190 0.933 . S
Dy200 O203 2.307 . S
Dy200 O205 2.395 . S
Dy200 O206 2.379 . S
Dy200 O208 2.339 . S
Dy200 O210 2.298 . S
Dy200 O214 2.275 . S
Dy200 C222 2.738 . S
Dy201 O204 2.298 . S
Dy201 O207 2.275 . S
Dy201 O209 2.307 . S
Dy201 O211 2.395 . S
Dy201 O212 2.379 . S
Dy201 O215 2.339 . S
Dy201 C231 2.738 . S
C202 O214 1.254 . S
C202 O215 1.257 . S
O203 Dy200 2.307 . S
O203 C213 1.266 . S
O204 Dy201 2.298 . S
O204 C213 1.236 . S
O205 Dy200 2.395 . S
O205 C222 1.255 . S
O206 Dy200 2.379 . S
O206 C222 1.249 . S
O207 Dy201 2.275 . S
O207 C223 1.254 . S
O208 Dy200 2.339 . S
O208 C223 1.257 . S
O209 Dy201 2.307 . S
O209 C224 1.266 . S
O210 Dy200 2.298 . S
O210 C224 1.236 . S
O211 Dy201 2.395 . S
O211 C231 1.255 . S
O212 Dy201 2.379 . S
O212 C231 1.249 . S
C213 O203 1.266 . S
C213 O204 1.236 . S
O214 Dy200 2.275 . S
O214 C202 1.254 . S
O215 Dy201 2.339 . S
O215 C202 1.257 . S
C216 C219 1.344 . S
C216 C220 1.328 . S
C216 C222 1.516 . S
C217 C218 1.304 . S
C217 C221 1.323 . S
C218 C217 1.304 . S
C218 C219 1.371 . S
C218 H232 0.930 . S
C219 C216 1.344 . S
C219 C218 1.371 . S
C219 H233 0.931 . S
C220 C216 1.328 . S
C220 C221 1.433 . S
C220 H234 0.931 . S
C221 C217 1.323 . S
C221 C220 1.433 . S
C221 H235 0.933 . S
C222 Dy200 2.738 . S
C222 O205 1.255 . S
C222 O206 1.249 . S
C222 C216 1.516 . S
C223 O207 1.254 . S
C223 O208 1.257 . S
C224 O209 1.266 . S
C224 O210 1.236 . S
C225 C228 1.344 . S
C225 C229 1.328 . S
C225 C231 1.516 . S
C226 C227 1.304 . S
C226 C230 1.323 . S
C227 C226 1.304 . S
C227 C228 1.371 . S
C227 H236 0.930 . S
C228 C225 1.344 . S
C228 C227 1.371 . S
C228 H237 0.931 . S
C229 C225 1.328 . S
C229 C230 1.433 . S
C229 H238 0.931 . S
C230 C226 1.323 . S
C230 C229 1.433 . S
C230 H239 0.933 . S
C231 Dy201 2.738 . S
C231 O211 1.255 . S
C231 O212 1.249 . S
C231 C225 1.516 . S
H232 C218 0.930 . S
H233 C219 0.931 . S
H234 C220 0.931 . S
H235 C221 0.933 . S
H236 C227 0.930 . S
H237 C228 0.931 . S
H238 C229 0.931 . S
H239 C230 0.933 . S
Dy240 O243 2.307 . S
Dy240 O245 2.395 . S
Dy240 O246 2.379 . S
Dy240 O248 2.339 . S
Dy240 O250 2.298 . S
Dy240 O254 2.275 . S
Dy240 C262 2.738 . S
Dy241 O244 2.298 . S
Dy241 O247 2.275 . S
Dy241 O249 2.307 . S
Dy241 O251 2.395 . S
Dy241 O252 2.379 . S
Dy241 O255 2.339 . S
Dy241 C271 2.738 . S
C242 O254 1.254 . S
C242 O255 1.257 . S
O243 Dy240 2.307 . S
O243 C253 1.266 . S
O244 Dy241 2.298 . S
O244 C253 1.236 . S
O245 Dy240 2.395 . S
O245 C262 1.255 . S
O246 Dy240 2.379 . S
O246 C262 1.249 . S
O247 Dy241 2.275 . S
O247 C263 1.254 . S
O248 Dy240 2.339 . S
O248 C263 1.257 . S
O249 Dy241 2.307 . S
O249 C264 1.266 . S
O250 Dy240 2.298 . S
O250 C264 1.236 . S
O251 Dy241 2.395 . S
O251 C271 1.255 . S
O252 Dy241 2.379 . S
O252 C271 1.249 . S
C253 O243 1.266 . S
C253 O244 1.236 . S
O254 Dy240 2.275 . S
O254 C242 1.254 . S
O255 Dy241 2.339 . S
O255 C242 1.257 . S
C256 C259 1.344 . S
C256 C260 1.328 . S
C256 C262 1.516 . S
C257 C258 1.304 . S
C257 C261 1.323 . S
C258 C257 1.304 . S
C258 C259 1.371 . S
C258 H272 0.930 . S
C259 C256 1.344 . S
C259 C258 1.371 . S
C259 H273 0.931 . S
C260 C256 1.328 . S
C260 C261 1.433 . S
C260 H274 0.931 . S
C261 C257 1.323 . S
C261 C260 1.433 . S
C261 H275 0.933 . S
C262 Dy240 2.738 . S
C262 O245 1.255 . S
C262 O246 1.249 . S
C262 C256 1.516 . S
C263 O247 1.254 . S
C263 O248 1.257 . S
C264 O249 1.266 . S
C264 O250 1.236 . S
C265 C268 1.344 . S
C265 C269 1.328 . S
C265 C271 1.516 . S
C266 C267 1.304 . S
C266 C270 1.323 . S
C267 C266 1.304 . S
C267 C268 1.371 . S
C267 H276 0.930 . S
C268 C265 1.344 . S
C268 C267 1.371 . S
C268 H277 0.931 . S
C269 C265 1.328 . S
C269 C270 1.433 . S
C269 H278 0.931 . S
C270 C266 1.323 . S
C270 C269 1.433 . S
C270 H279 0.933 . S
C271 Dy241 2.738 . S
C271 O251 1.255 . S
C271 O252 1.249 . S
C271 C265 1.516 . S
H272 C258 0.930 . S
H273 C259 0.931 . S
H274 C260 0.931 . S
H275 C261 0.933 . S
H276 C267 0.930 . S
H277 C268 0.931 . S
H278 C269 0.931 . S
H279 C270 0.933 . S
Dy280 O283 2.307 . S
Dy280 O285 2.395 . S
Dy280 O286 2.379 . S
Dy280 O288 2.339 . S
Dy280 O290 2.298 . S
Dy280 O294 2.275 . S
Dy280 C302 2.738 . S
Dy281 O284 2.298 . S
Dy281 O287 2.275 . S
Dy281 O289 2.307 . S
Dy281 O291 2.395 . S
Dy281 O292 2.379 . S
Dy281 O295 2.339 . S
Dy281 C311 2.738 . S
C282 O294 1.254 . S
C282 O295 1.257 . S
O283 Dy280 2.307 . S
O283 C293 1.266 . S
O284 Dy281 2.298 . S
O284 C293 1.236 . S
O285 Dy280 2.395 . S
O285 C302 1.255 . S
O286 Dy280 2.379 . S
O286 C302 1.249 . S
O287 Dy281 2.275 . S
O287 C303 1.254 . S
O288 Dy280 2.339 . S
O288 C303 1.257 . S
O289 Dy281 2.307 . S
O289 C304 1.266 . S
O290 Dy280 2.298 . S
O290 C304 1.236 . S
O291 Dy281 2.395 . S
O291 C311 1.255 . S
O292 Dy281 2.379 . S
O292 C311 1.249 . S
C293 O283 1.266 . S
C293 O284 1.236 . S
O294 Dy280 2.275 . S
O294 C282 1.254 . S
O295 Dy281 2.339 . S
O295 C282 1.257 . S
C296 C299 1.344 . S
C296 C300 1.328 . S
C296 C302 1.516 . S
C297 C298 1.304 . S
C297 C301 1.323 . S
C298 C297 1.304 . S
C298 C299 1.371 . S
C298 H312 0.930 . S
C299 C296 1.344 . S
C299 C298 1.371 . S
C299 H313 0.931 . S
C300 C296 1.328 . S
C300 C301 1.433 . S
C300 H314 0.931 . S
C301 C297 1.323 . S
C301 C300 1.433 . S
C301 H315 0.933 . S
C302 Dy280 2.738 . S
C302 O285 1.255 . S
C302 O286 1.249 . S
C302 C296 1.516 . S
C303 O287 1.254 . S
C303 O288 1.257 . S
C304 O289 1.266 . S
C304 O290 1.236 . S
C305 C308 1.344 . S
C305 C309 1.328 . S
C305 C311 1.516 . S
C306 C307 1.304 . S
C306 C310 1.323 . S
C307 C306 1.304 . S
C307 C308 1.371 . S
C307 H316 0.930 . S
C308 C305 1.344 . S
C308 C307 1.371 . S
C308 H317 0.931 . S
C309 C305 1.328 . S
C309 C310 1.433 . S
C309 H318 0.931 . S
C310 C306 1.323 . S
C310 C309 1.433 . S
C310 H319 0.933 . S
C311 Dy281 2.738 . S
C311 O291 1.255 . S
C311 O292 1.249 . S
C311 C305 1.516 . S
H312 C298 0.930 . S
H313 C299 0.931 . S
H314 C300 0.931 . S
H315 C301 0.933 . S
H316 C307 0.930 . S
H317 C308 0.931 . S
H318 C309 0.931 . S
H319 C310 0.933 . S
Dy320 O323 2.307 . S
Dy320 O325 2.395 . S
Dy320 O326 2.379 . S
Dy320 O328 2.339 . S
Dy320 O330 2.298 . S
Dy320 O334 2.275 . S
Dy320 C342 2.738 . S
Dy321 O324 2.298 . S
Dy321 O327 2.275 . S
Dy321 O329 2.307 . S
Dy321 O331 2.395 . S
Dy321 O332 2.379 . S
Dy321 O335 2.339 . S
Dy321 C351 2.738 . S
C322 O334 1.254 . S
C322 O335 1.257 . S
O323 Dy320 2.307 . S
O323 C333 1.266 . S
O324 Dy321 2.298 . S
O324 C333 1.236 . S
O325 Dy320 2.395 . S
O325 C342 1.255 . S
O326 Dy320 2.379 . S
O326 C342 1.249 . S
O327 Dy321 2.275 . S
O327 C343 1.254 . S
O328 Dy320 2.339 . S
O328 C343 1.257 . S
O329 Dy321 2.307 . S
O329 C344 1.266 . S
O330 Dy320 2.298 . S
O330 C344 1.236 . S
O331 Dy321 2.395 . S
O331 C351 1.255 . S
O332 Dy321 2.379 . S
O332 C351 1.249 . S
C333 O323 1.266 . S
C333 O324 1.236 . S
O334 Dy320 2.275 . S
O334 C322 1.254 . S
O335 Dy321 2.339 . S
O335 C322 1.257 . S
C336 C339 1.344 . S
C336 C340 1.328 . S
C336 C342 1.516 . S
C337 C338 1.304 . S
C337 C341 1.323 . S
C338 C337 1.304 . S
C338 C339 1.371 . S
C338 H352 0.930 . S
C339 C336 1.344 . S
C339 C338 1.371 . S
C339 H353 0.931 . S
C340 C336 1.328 . S
C340 C341 1.433 . S
C340 H354 0.931 . S
C341 C337 1.323 . S
C341 C340 1.433 . S
C341 H355 0.933 . S
C342 Dy320 2.738 . S
C342 O325 1.255 . S
C342 O326 1.249 . S
C342 C336 1.516 . S
C343 O327 1.254 . S
C343 O328 1.257 . S
C344 O329 1.266 . S
C344 O330 1.236 . S
C345 C348 1.344 . S
C345 C349 1.328 . S
C345 C351 1.516 . S
C346 C347 1.304 . S
C346 C350 1.323 . S
C347 C346 1.304 . S
C347 C348 1.371 . S
C347 H356 0.930 . S
C348 C345 1.344 . S
C348 C347 1.371 . S
C348 H357 0.931 . S
C349 C345 1.328 . S
C349 C350 1.433 . S
C349 H358 0.931 . S
C350 C346 1.323 . S
C350 C349 1.433 . S
C350 H359 0.933 . S
C351 Dy321 2.738 . S
C351 O331 1.255 . S
C351 O332 1.249 . S
C351 C345 1.516 . S
H352 C338 0.930 . S
H353 C339 0.931 . S
H354 C340 0.931 . S
H355 C341 0.933 . S
H356 C347 0.930 . S
H357 C348 0.931 . S
H358 C349 0.931 . S
H359 C350 0.933 . S
Dy360 O363 2.307 . S
Dy360 O365 2.395 . S
Dy360 O366 2.379 . S
Dy360 O368 2.339 . S
Dy360 O370 2.298 . S
Dy360 O374 2.275 . S
Dy360 C382 2.738 . S
Dy361 O364 2.298 . S
Dy361 O367 2.275 . S
Dy361 O369 2.307 . S
Dy361 O371 2.395 . S
Dy361 O372 2.379 . S
Dy361 O375 2.339 . S
Dy361 C391 2.738 . S
C362 O374 1.254 . S
C362 O375 1.257 . S
O363 Dy360 2.307 . S
O363 C373 1.266 . S
O364 Dy361 2.298 . S
O364 C373 1.236 . S
O365 Dy360 2.395 . S
O365 C382 1.255 . S
O366 Dy360 2.379 . S
O366 C382 1.249 . S
O367 Dy361 2.275 . S
O367 C383 1.254 . S
O368 Dy360 2.339 . S
O368 C383 1.257 . S
O369 Dy361 2.307 . S
O369 C384 1.266 . S
O370 Dy360 2.298 . S
O370 C384 1.236 . S
O371 Dy361 2.395 . S
O371 C391 1.255 . S
O372 Dy361 2.379 . S
O372 C391 1.249 . S
C373 O363 1.266 . S
C373 O364 1.236 . S
O374 Dy360 2.275 . S
O374 C362 1.254 . S
O375 Dy361 2.339 . S
O375 C362 1.257 . S
C376 C379 1.344 . S
C376 C380 1.328 . S
C376 C382 1.516 . S
C377 C378 1.304 . S
C377 C381 1.323 . S
C378 C377 1.304 . S
C378 C379 1.371 . S
C378 H392 0.930 . S
C379 C376 1.344 . S
C379 C378 1.371 . S
C379 H393 0.931 . S
C380 C376 1.328 . S
C380 C381 1.433 . S
C380 H394 0.931 . S
C381 C377 1.323 . S
C381 C380 1.433 . S
C381 H395 0.933 . S
C382 Dy360 2.738 . S
C382 O365 1.255 . S
C382 O366 1.249 . S
C382 C376 1.516 . S
C383 O367 1.254 . S
C383 O368 1.257 . S
C384 O369 1.266 . S
C384 O370 1.236 . S
C385 C388 1.344 . S
C385 C389 1.328 . S
C385 C391 1.516 . S
C386 C387 1.304 . S
C386 C390 1.323 . S
C387 C386 1.304 . S
C387 C388 1.371 . S
C387 H396 0.930 . S
C388 C385 1.344 . S
C388 C387 1.371 . S
C388 H397 0.931 . S
C389 C385 1.328 . S
C389 C390 1.433 . S
C389 H398 0.931 . S
C390 C386 1.323 . S
C390 C389 1.433 . S
C390 H399 0.933 . S
C391 Dy361 2.738 . S
C391 O371 1.255 . S
C391 O372 1.249 . S
C391 C385 1.516 . S
H392 C378 0.930 . S
H393 C379 0.931 . S
H394 C380 0.931 . S
H395 C381 0.933 . S
H396 C387 0.930 . S
H397 C388 0.931 . S
H398 C389 0.931 . S
H399 C390 0.933 . S
Dy400 O403 2.307 . S
Dy400 O405 2.395 . S
Dy400 O406 2.379 . S
Dy400 O408 2.339 . S
Dy400 O410 2.298 . S
Dy400 O414 2.275 . S
Dy400 C422 2.738 . S
Dy401 O404 2.298 1_556 S
Dy401 O407 2.275 . S
Dy401 O409 2.307 1_556 S
Dy401 O411 2.395 . S
Dy401 O412 2.379 . S
Dy401 O415 2.339 1_556 S
Dy401 C431 2.738 . S
C402 O414 1.254 . S
C402 O415 1.257 . S
O403 Dy400 2.307 . S
O403 C413 1.266 . S
O404 Dy401 2.298 1_554 S
O404 C413 1.236 . S
O405 Dy400 2.395 . S
O405 C422 1.255 . S
O406 Dy400 2.379 . S
O406 C422 1.249 . S
O407 Dy401 2.275 . S
O407 C423 1.254 . S
O408 Dy400 2.339 . S
O408 C423 1.257 1_554 S
O409 Dy401 2.307 1_554 S
O409 C424 1.266 . S
O410 Dy400 2.298 . S
O410 C424 1.236 . S
O411 Dy401 2.395 . S
O411 C431 1.255 . S
O412 Dy401 2.379 . S
O412 C431 1.249 . S
C413 O403 1.266 . S
C413 O404 1.236 . S
O414 Dy400 2.275 . S
O414 C402 1.254 . S
O415 Dy401 2.339 1_554 S
O415 C402 1.257 . S
C416 C419 1.344 . S
C416 C420 1.328 . S
C416 C422 1.516 . S
C417 C418 1.304 . S
C417 C421 1.323 . S
C418 C417 1.304 . S
C418 C419 1.371 . S
C418 H432 0.930 . S
C419 C416 1.344 . S
C419 C418 1.371 . S
C419 H433 0.931 . S
C420 C416 1.328 . S
C420 C421 1.433 . S
C420 H434 0.931 . S
C421 C417 1.323 . S
C421 C420 1.433 . S
C421 H435 0.933 . S
C422 Dy400 2.738 . S
C422 O405 1.255 . S
C422 O406 1.249 . S
C422 C416 1.516 . S
C423 O407 1.254 . S
C423 O408 1.257 1_556 S
C424 O409 1.266 . S
C424 O410 1.236 . S
C425 C428 1.344 . S
C425 C429 1.328 . S
C425 C431 1.516 . S
C426 C427 1.304 . S
C426 C430 1.323 . S
C427 C426 1.304 . S
C427 C428 1.371 . S
C427 H436 0.930 . S
C428 C425 1.344 . S
C428 C427 1.371 . S
C428 H437 0.931 . S
C429 C425 1.328 . S
C429 C430 1.433 . S
C429 H438 0.931 . S
C430 C426 1.323 . S
C430 C429 1.433 . S
C430 H439 0.933 . S
C431 Dy401 2.738 . S
C431 O411 1.255 . S
C431 O412 1.249 . S
C431 C425 1.516 . S
H432 C418 0.930 . S
H433 C419 0.931 . S
H434 C420 0.931 . S
H435 C421 0.933 . S
H436 C427 0.930 . S
H437 C428 0.931 . S
H438 C429 0.931 . S
H439 C430 0.933 . S
Dy440 O443 2.307 . S
Dy440 O445 2.395 . S
Dy440 O446 2.379 . S
Dy440 O448 2.339 . S
Dy440 O450 2.298 . S
Dy440 O454 2.275 . S
Dy440 C462 2.738 . S
Dy441 O444 2.298 . S
Dy441 O447 2.275 . S
Dy441 O449 2.307 . S
Dy441 O451 2.395 . S
Dy441 O452 2.379 . S
Dy441 O455 2.339 . S
Dy441 C471 2.738 . S
C442 O454 1.254 . S
C442 O455 1.257 . S
O443 Dy440 2.307 . S
O443 C453 1.266 . S
O444 Dy441 2.298 . S
O444 C453 1.236 . S
O445 Dy440 2.395 . S
O445 C462 1.255 . S
O446 Dy440 2.379 . S
O446 C462 1.249 . S
O447 Dy441 2.275 . S
O447 C463 1.254 . S
O448 Dy440 2.339 . S
O448 C463 1.257 . S
O449 Dy441 2.307 . S
O449 C464 1.266 . S
O450 Dy440 2.298 . S
O450 C464 1.236 . S
O451 Dy441 2.395 . S
O451 C471 1.255 . S
O452 Dy441 2.379 . S
O452 C471 1.249 . S
C453 O443 1.266 . S
C453 O444 1.236 . S
O454 Dy440 2.275 . S
O454 C442 1.254 . S
O455 Dy441 2.339 . S
O455 C442 1.257 . S
C456 C459 1.344 . S
C456 C460 1.328 . S
C456 C462 1.516 . S
C457 C458 1.304 . S
C457 C461 1.323 . S
C458 C457 1.304 . S
C458 C459 1.371 . S
C458 H472 0.930 . S
C459 C456 1.344 . S
C459 C458 1.371 . S
C459 H473 0.931 . S
C460 C456 1.328 . S
C460 C461 1.433 . S
C460 H474 0.931 . S
C461 C457 1.323 . S
C461 C460 1.433 . S
C461 H475 0.933 . S
C462 Dy440 2.738 . S
C462 O445 1.255 . S
C462 O446 1.249 . S
C462 C456 1.516 . S
C463 O447 1.254 . S
C463 O448 1.257 . S
C464 O449 1.266 . S
C464 O450 1.236 . S
C465 C468 1.344 . S
C465 C469 1.328 . S
C465 C471 1.516 . S
C466 C467 1.304 . S
C466 C470 1.323 . S
C467 C466 1.304 . S
C467 C468 1.371 . S
C467 H476 0.930 . S
C468 C465 1.344 . S
C468 C467 1.371 . S
C468 H477 0.931 . S
C469 C465 1.328 . S
C469 C470 1.433 . S
C469 H478 0.931 . S
C470 C466 1.323 . S
C470 C469 1.433 . S
C470 H479 0.933 . S
C471 Dy441 2.738 . S
C471 O451 1.255 . S
C471 O452 1.249 . S
C471 C465 1.516 . S
H472 C458 0.930 . S
H473 C459 0.931 . S
H474 C460 0.931 . S
H475 C461 0.933 . S
H476 C467 0.930 . S
H477 C468 0.931 . S
H478 C469 0.931 . S
H479 C470 0.933 . S
Dy480 O483 2.307 . S
Dy480 O485 2.395 . S
Dy480 O486 2.379 . S
Dy480 O488 2.339 . S
Dy480 O490 2.298 . S
Dy480 O494 2.275 . S
Dy480 C502 2.738 . S
Dy481 O484 2.298 . S
Dy481 O487 2.275 . S
Dy481 O489 2.307 . S
Dy481 O491 2.395 . S
Dy481 O492 2.379 . S
Dy481 O495 2.339 . S
Dy481 C511 2.738 . S
C482 O494 1.254 . S
C482 O495 1.257 . S
O483 Dy480 2.307 . S
O483 C493 1.266 . S
O484 Dy481 2.298 . S
O484 C493 1.236 . S
O485 Dy480 2.395 . S
O485 C502 1.255 . S
O486 Dy480 2.379 . S
O486 C502 1.249 . S
O487 Dy481 2.275 . S
O487 C503 1.254 . S
O488 Dy480 2.339 . S
O488 C503 1.257 . S
O489 Dy481 2.307 . S
O489 C504 1.266 . S
O490 Dy480 2.298 . S
O490 C504 1.236 . S
O491 Dy481 2.395 . S
O491 C511 1.255 . S
O492 Dy481 2.379 . S
O492 C511 1.249 . S
C493 O483 1.266 . S
C493 O484 1.236 . S
O494 Dy480 2.275 . S
O494 C482 1.254 . S
O495 Dy481 2.339 . S
O495 C482 1.257 . S
C496 C499 1.344 . S
C496 C500 1.328 . S
C496 C502 1.516 . S
C497 C498 1.304 . S
C497 C501 1.323 . S
C498 C497 1.304 . S
C498 C499 1.371 . S
C498 H512 0.930 . S
C499 C496 1.344 . S
C499 C498 1.371 . S
C499 H513 0.931 . S
C500 C496 1.328 . S
C500 C501 1.433 . S
C500 H514 0.931 . S
C501 C497 1.323 . S
C501 C500 1.433 . S
C501 H515 0.933 . S
C502 Dy480 2.738 . S
C502 O485 1.255 . S
C502 O486 1.249 . S
C502 C496 1.516 . S
C503 O487 1.254 . S
C503 O488 1.257 . S
C504 O489 1.266 . S
C504 O490 1.236 . S
C505 C508 1.344 . S
C505 C509 1.328 . S
C505 C511 1.516 . S
C506 C507 1.304 . S
C506 C510 1.323 . S
C507 C506 1.304 . S
C507 C508 1.371 . S
C507 H516 0.930 . S
C508 C505 1.344 . S
C508 C507 1.371 . S
C508 H517 0.931 . S
C509 C505 1.328 . S
C509 C510 1.433 . S
C509 H518 0.931 . S
C510 C506 1.323 . S
C510 C509 1.433 . S
C510 H519 0.933 . S
C511 Dy481 2.738 . S
C511 O491 1.255 . S
C511 O492 1.249 . S
C511 C505 1.516 . S
H512 C498 0.930 . S
H513 C499 0.931 . S
H514 C500 0.931 . S
H515 C501 0.933 . S
H516 C507 0.930 . S
H517 C508 0.931 . S
H518 C509 0.931 . S
H519 C510 0.933 . S
Dy520 O523 2.307 . S
Dy520 O525 2.395 . S
Dy520 O526 2.379 . S
Dy520 O528 2.339 . S
Dy520 O530 2.298 . S
Dy520 O534 2.275 . S
Dy520 C542 2.738 . S
Dy521 O524 2.298 . S
Dy521 O527 2.275 . S
Dy521 O529 2.307 . S
Dy521 O531 2.395 . S
Dy521 O532 2.379 . S
Dy521 O535 2.339 . S
Dy521 C551 2.738 . S
C522 O534 1.254 . S
C522 O535 1.257 . S
O523 Dy520 2.307 . S
O523 C533 1.266 . S
O524 Dy521 2.298 . S
O524 C533 1.236 . S
O525 Dy520 2.395 . S
O525 C542 1.255 . S
O526 Dy520 2.379 . S
O526 C542 1.249 . S
O527 Dy521 2.275 . S
O527 C543 1.254 . S
O528 Dy520 2.339 . S
O528 C543 1.257 . S
O529 Dy521 2.307 . S
O529 C544 1.266 . S
O530 Dy520 2.298 . S
O530 C544 1.236 . S
O531 Dy521 2.395 . S
O531 C551 1.255 . S
O532 Dy521 2.379 . S
O532 C551 1.249 . S
C533 O523 1.266 . S
C533 O524 1.236 . S
O534 Dy520 2.275 . S
O534 C522 1.254 . S
O535 Dy521 2.339 . S
O535 C522 1.257 . S
C536 C539 1.344 . S
C536 C540 1.328 . S
C536 C542 1.516 . S
C537 C538 1.304 . S
C537 C541 1.323 . S
C538 C537 1.304 . S
C538 C539 1.371 . S
C538 H552 0.930 . S
C539 C536 1.344 . S
C539 C538 1.371 . S
C539 H553 0.931 . S
C540 C536 1.328 . S
C540 C541 1.433 . S
C540 H554 0.931 . S
C541 C537 1.323 . S
C541 C540 1.433 . S
C541 H555 0.933 . S
C542 Dy520 2.738 . S
C542 O525 1.255 . S
C542 O526 1.249 . S
C542 C536 1.516 . S
C543 O527 1.254 . S
C543 O528 1.257 . S
C544 O529 1.266 . S
C544 O530 1.236 . S
C545 C548 1.344 . S
C545 C549 1.328 . S
C545 C551 1.516 . S
C546 C547 1.304 . S
C546 C550 1.323 . S
C547 C546 1.304 . S
C547 C548 1.371 . S
C547 H556 0.930 . S
C548 C545 1.344 . S
C548 C547 1.371 . S
C548 H557 0.931 . S
C549 C545 1.328 . S
C549 C550 1.433 . S
C549 H558 0.931 . S
C550 C546 1.323 . S
C550 C549 1.433 . S
C550 H559 0.933 . S
C551 Dy521 2.738 . S
C551 O531 1.255 . S
C551 O532 1.249 . S
C551 C545 1.516 . S
H552 C538 0.930 . S
H553 C539 0.931 . S
H554 C540 0.931 . S
H555 C541 0.933 . S
H556 C547 0.930 . S
H557 C548 0.931 . S
H558 C549 0.931 . S
H559 C550 0.933 . S
Dy560 O563 2.307 1_554 S
Dy560 O565 2.395 . S
Dy560 O566 2.379 . S
Dy560 O568 2.339 1_554 S
Dy560 O570 2.298 1_554 S
Dy560 O574 2.275 . S
Dy560 C582 2.738 . S
Dy561 O564 2.298 . S
Dy561 O567 2.275 . S
Dy561 O569 2.307 . S
Dy561 O571 2.395 . S
Dy561 O572 2.379 . S
Dy561 O575 2.339 . S
Dy561 C591 2.738 . S
C562 O574 1.254 . S
C562 O575 1.257 1_554 S
O563 Dy560 2.307 1_556 S
O563 C573 1.266 . S
O564 Dy561 2.298 . S
O564 C573 1.236 . S
O565 Dy560 2.395 . S
O565 C582 1.255 . S
O566 Dy560 2.379 . S
O566 C582 1.249 . S
O567 Dy561 2.275 . S
O567 C583 1.254 . S
O568 Dy560 2.339 1_556 S
O568 C583 1.257 . S
O569 Dy561 2.307 . S
O569 C584 1.266 . S
O570 Dy560 2.298 1_556 S
O570 C584 1.236 . S
O571 Dy561 2.395 . S
O571 C591 1.255 . S
O572 Dy561 2.379 . S
O572 C591 1.249 . S
C573 O563 1.266 . S
C573 O564 1.236 . S
O574 Dy560 2.275 . S
O574 C562 1.254 . S
O575 Dy561 2.339 . S
O575 C562 1.257 1_556 S
C576 C579 1.344 . S
C576 C580 1.328 . S
C576 C582 1.516 . S
C577 C578 1.304 . S
C577 C581 1.323 . S
C578 C577 1.304 . S
C578 C579 1.371 . S
C578 H592 0.930 . S
C579 C576 1.344 . S
C579 C578 1.371 . S
C579 H593 0.931 . S
C580 C576 1.328 . S
C580 C581 1.433 . S
C580 H594 0.931 . S
C581 C577 1.323 . S
C581 C580 1.433 . S
C581 H595 0.933 . S
C582 Dy560 2.738 . S
C582 O565 1.255 . S
C582 O566 1.249 . S
C582 C576 1.516 . S
C583 O567 1.254 . S
C583 O568 1.257 . S
C584 O569 1.266 . S
C584 O570 1.236 . S
C585 C588 1.344 . S
C585 C589 1.328 . S
C585 C591 1.516 . S
C586 C587 1.304 . S
C586 C590 1.323 . S
C587 C586 1.304 . S
C587 C588 1.371 . S
C587 H596 0.930 . S
C588 C585 1.344 . S
C588 C587 1.371 . S
C588 H597 0.931 . S
C589 C585 1.328 . S
C589 C590 1.433 . S
C589 H598 0.931 . S
C590 C586 1.323 . S
C590 C589 1.433 . S
C590 H599 0.933 . S
C591 Dy561 2.738 . S
C591 O571 1.255 . S
C591 O572 1.249 . S
C591 C585 1.516 . S
H592 C578 0.930 . S
H593 C579 0.931 . S
H594 C580 0.931 . S
H595 C581 0.933 . S
H596 C587 0.930 . S
H597 C588 0.931 . S
H598 C589 0.931 . S
H599 C590 0.933 . S
Dy600 O603 2.307 . S
Dy600 O605 2.395 . S
Dy600 O606 2.379 . S
Dy600 O608 2.339 . S
Dy600 O610 2.298 . S
Dy600 O614 2.275 . S
Dy600 C622 2.738 . S
Dy601 O604 2.298 . S
Dy601 O607 2.275 . S
Dy601 O609 2.307 . S
Dy601 O611 2.395 . S
Dy601 O612 2.379 . S
Dy601 O615 2.339 . S
Dy601 C631 2.738 . S
C602 O614 1.254 . S
C602 O615 1.257 . S
O603 Dy600 2.307 . S
O603 C613 1.266 . S
O604 Dy601 2.298 . S
O604 C613 1.236 . S
O605 Dy600 2.395 . S
O605 C622 1.255 . S
O606 Dy600 2.379 . S
O606 C622 1.249 . S
O607 Dy601 2.275 . S
O607 C623 1.254 . S
O608 Dy600 2.339 . S
O608 C623 1.257 . S
O609 Dy601 2.307 . S
O609 C624 1.266 . S
O610 Dy600 2.298 . S
O610 C624 1.236 . S
O611 Dy601 2.395 . S
O611 C631 1.255 . S
O612 Dy601 2.379 . S
O612 C631 1.249 . S
C613 O603 1.266 . S
C613 O604 1.236 . S
O614 Dy600 2.275 . S
O614 C602 1.254 . S
O615 Dy601 2.339 . S
O615 C602 1.257 . S
C616 C619 1.344 . S
C616 C620 1.328 . S
C616 C622 1.516 . S
C617 C618 1.304 . S
C617 C621 1.323 . S
C618 C617 1.304 . S
C618 C619 1.371 . S
C618 H632 0.930 . S
C619 C616 1.344 . S
C619 C618 1.371 . S
C619 H633 0.931 . S
C620 C616 1.328 . S
C620 C621 1.433 . S
C620 H634 0.931 . S
C621 C617 1.323 . S
C621 C620 1.433 . S
C621 H635 0.933 . S
C622 Dy600 2.738 . S
C622 O605 1.255 . S
C622 O606 1.249 . S
C622 C616 1.516 . S
C623 O607 1.254 . S
C623 O608 1.257 . S
C624 O609 1.266 . S
C624 O610 1.236 . S
C625 C628 1.344 . S
C625 C629 1.328 . S
C625 C631 1.516 . S
C626 C627 1.304 . S
C626 C630 1.323 . S
C627 C626 1.304 . S
C627 C628 1.371 . S
C627 H636 0.930 . S
C628 C625 1.344 . S
C628 C627 1.371 . S
C628 H637 0.931 . S
C629 C625 1.328 . S
C629 C630 1.433 . S
C629 H638 0.931 . S
C630 C626 1.323 . S
C630 C629 1.433 . S
C630 H639 0.933 . S
C631 Dy601 2.738 . S
C631 O611 1.255 . S
C631 O612 1.249 . S
C631 C625 1.516 . S
H632 C618 0.930 . S
H633 C619 0.931 . S
H634 C620 0.931 . S
H635 C621 0.933 . S
H636 C627 0.930 . S
H637 C628 0.931 . S
H638 C629 0.931 . S
H639 C630 0.933 . S
H640 C652 0.930 . S
H641 C654 0.930 1_556 S
H642 C655 0.930 1_556 S
H643 C659 0.959 . S
H644 C659 0.959 . S
H645 C659 0.961 . S
H646 C660 0.960 . S
H647 C660 0.961 . S
H648 C660 0.959 . S
H649 C663 0.929 1_556 S
H650 C664 0.931 1_556 S
H651 C666 0.930 . S
C652 H640 0.930 . S
C652 C653 1.399 . S
C652 C657 1.399 . S
C653 C652 1.399 . S
C653 C654 1.376 . S
C654 H641 0.930 1_554 S
C654 C653 1.376 . S
C654 C655 1.388 . S
C655 H642 0.930 1_554 S
C655 C654 1.388 . S
C655 C656 1.390 . S
C656 C655 1.390 . S
C656 C657 1.394 . S
C656 C662 1.465 . S
C657 C652 1.399 . S
C657 C656 1.394 . S
C657 C658 1.516 . S
C658 C657 1.516 . S
C658 C659 1.502 . S
C658 C660 1.561 . S
C658 C661 1.526 . S
C659 H643 0.959 . S
C659 H644 0.959 . S
C659 H645 0.961 . S
C659 C658 1.502 . S
C660 H646 0.960 . S
C660 H647 0.961 . S
C660 H648 0.959 . S
C660 C658 1.561 . S
C661 C658 1.526 . S
C661 C662 1.396 . S
C661 C666 1.390 . S
C662 C656 1.465 . S
C662 C661 1.396 . S
C662 C663 1.399 . S
C663 H649 0.929 1_554 S
C663 C662 1.399 . S
C663 C664 1.385 . S
C664 H650 0.931 1_554 S
C664 C663 1.385 . S
C664 C665 1.389 . S
C665 C664 1.389 . S
C665 C666 1.387 . S
C666 H651 0.930 . S
C666 C661 1.390 . S
C666 C665 1.387 . S
H667 C679 0.930 . S
H668 C681 0.930 . S
H669 C682 0.930 . S
H670 C686 0.959 . S
H671 C686 0.959 . S
H672 C686 0.961 . S
H673 C687 0.960 . S
H674 C687 0.961 . S
H675 C687 0.959 . S
H676 C690 0.929 . S
H677 C691 0.931 . S
H678 C693 0.930 . S
C679 H667 0.930 . S
C679 C680 1.399 . S
C679 C684 1.399 . S
C680 C679 1.399 . S
C680 C681 1.376 . S
C681 H668 0.930 . S
C681 C680 1.376 . S
C681 C682 1.388 . S
C682 H669 0.930 . S
C682 C681 1.388 . S
C682 C683 1.390 . S
C683 C682 1.390 . S
C683 C684 1.394 . S
C683 C689 1.465 . S
C684 C679 1.399 . S
C684 C683 1.394 . S
C684 C685 1.516 . S
C685 C684 1.516 . S
C685 C686 1.502 . S
C685 C687 1.561 . S
C685 C688 1.526 . S
C686 H670 0.959 . S
C686 H671 0.959 . S
C686 H672 0.961 . S
C686 C685 1.502 . S
C687 H673 0.960 . S
C687 H674 0.961 . S
C687 H675 0.959 . S
C687 C685 1.561 . S
C688 C685 1.526 . S
C688 C689 1.396 . S
C688 C693 1.390 . S
C689 C683 1.465 . S
C689 C688 1.396 . S
C689 C690 1.399 . S
C690 H676 0.929 . S
C690 C689 1.399 . S
C690 C691 1.385 . S
C691 H677 0.931 . S
C691 C690 1.385 . S
C691 C692 1.389 . S
C692 C691 1.389 . S
C692 C693 1.387 . S
C693 H678 0.930 . S
C693 C688 1.390 . S
C693 C692 1.387 . S
H694 C706 0.930 . S
H695 C708 0.930 . S
H696 C709 0.930 . S
H697 C713 0.959 . S
H698 C713 0.959 . S
H699 C713 0.961 . S
H700 C714 0.960 . S
H701 C714 0.961 . S
H702 C714 0.959 . S
H703 C717 0.940 . S
H704 C718 0.931 . S
H705 C720 0.930 . S
C706 H694 0.930 . S
C706 C707 1.399 . S
C706 C711 1.399 . S
C707 C706 1.399 . S
C707 C708 1.376 . S
C708 H695 0.930 . S
C708 C707 1.376 . S
C708 C709 1.388 . S
C709 H696 0.930 . S
C709 C708 1.388 . S
C709 C710 1.390 . S
C710 C709 1.390 . S
C710 C711 1.394 . S
C710 C716 1.465 1_455 S
C711 C706 1.399 . S
C711 C710 1.394 . S
C711 C712 1.516 1_455 S
C712 C711 1.516 1_655 S
C712 C713 1.502 . S
C712 C714 1.561 . S
C712 C715 1.526 . S
C713 H697 0.959 . S
C713 H698 0.959 . S
C713 H699 0.961 . S
C713 C712 1.502 . S
C714 H700 0.960 . S
C714 H701 0.961 . S
C714 H702 0.959 . S
C714 C712 1.561 . S
C715 C712 1.526 . S
C715 C716 1.396 . S
C715 C720 1.390 . S
C716 C710 1.465 1_655 S
C716 C715 1.396 . S
C716 C717 1.398 1_655 S
C717 H703 0.940 . S
C717 C716 1.398 1_455 S
C717 C718 1.375 1_455 S
C718 H704 0.931 . S
C718 C717 1.375 1_655 S
C718 C719 1.389 . S
C719 C718 1.389 . S
C719 C720 1.387 . S
C720 H705 0.930 . S
C720 C715 1.390 . S
C720 C719 1.387 . S
H721 C733 0.930 . S
H722 C735 0.930 . S
H723 C736 0.930 . S
H724 C740 0.959 . S
H725 C740 0.959 . S
H726 C740 0.961 . S
H727 C741 0.960 1_655 S
H728 C741 0.961 . S
H729 C741 0.959 1_655 S
H730 C744 0.929 1_655 S
H731 C745 0.931 . S
H732 C747 0.930 . S
C733 H721 0.930 . S
C733 C734 1.399 . S
C733 C738 1.399 . S
C734 C733 1.399 . S
C734 C735 1.376 . S
C735 H722 0.930 . S
C735 C734 1.376 . S
C735 C736 1.388 . S
C736 H723 0.930 . S
C736 C735 1.388 . S
C736 C737 1.390 . S
C737 C736 1.390 . S
C737 C738 1.394 . S
C737 C743 1.465 1_655 S
C738 C733 1.399 . S
C738 C737 1.394 . S
C738 C739 1.516 1_655 S
C739 C738 1.516 1_455 S
C739 C740 1.502 . S
C739 C741 1.561 . S
C739 C742 1.526 . S
C740 H724 0.959 . S
C740 H725 0.959 . S
C740 H726 0.961 . S
C740 C739 1.502 . S
C741 H727 0.960 1_455 S
C741 H728 0.961 . S
C741 H729 0.959 1_455 S
C741 C739 1.561 . S
C742 C739 1.526 . S
C742 C743 1.396 . S
C742 C747 1.390 . S
C743 C737 1.465 1_455 S
C743 C742 1.396 . S
C743 C744 1.399 . S
C744 H730 0.929 1_455 S
C744 C743 1.399 . S
C744 C745 1.385 . S
C745 H731 0.931 . S
C745 C744 1.385 . S
C745 C746 1.389 . S
C746 C745 1.389 . S
C746 C747 1.387 . S
C747 H732 0.930 . S
C747 C742 1.390 . S
C747 C746 1.387 . S
H748 C760 0.930 . S
H749 C762 0.930 . S
H750 C763 0.930 . S
H751 C767 0.959 1_556 S
H752 C767 0.959 . S
H753 C767 0.961 . S
H754 C768 0.960 . S
H755 C768 0.961 . S
H756 C768 0.959 . S
H757 C771 0.929 . S
H758 C772 0.931 . S
H759 C774 0.930 . S
C760 H748 0.930 . S
C760 C761 1.399 . S
C760 C765 1.399 . S
C761 C760 1.399 . S
C761 C762 1.376 . S
C762 H749 0.930 . S
C762 C761 1.376 . S
C762 C763 1.388 . S
C763 H750 0.930 . S
C763 C762 1.388 . S
C763 C764 1.390 . S
C764 C763 1.390 . S
C764 C765 1.394 . S
C764 C770 1.465 . S
C765 C760 1.399 . S
C765 C764 1.394 . S
C765 C766 1.516 . S
C766 C765 1.516 . S
C766 C767 1.502 1_556 S
C766 C768 1.561 1_556 S
C766 C769 1.526 . S
C767 H751 0.959 1_554 S
C767 H752 0.959 . S
C767 H753 0.961 . S
C767 C766 1.502 1_554 S
C768 H754 0.960 . S
C768 H755 0.961 . S
C768 H756 0.959 . S
C768 C766 1.561 1_554 S
C769 C766 1.526 . S
C769 C770 1.396 . S
C769 C774 1.390 . S
C770 C764 1.465 . S
C770 C769 1.396 . S
C770 C771 1.399 . S
C771 H757 0.929 . S
C771 C770 1.399 . S
C771 C772 1.385 . S
C772 H758 0.931 . S
C772 C771 1.385 . S
C772 C773 1.389 . S
C773 C772 1.389 . S
C773 C774 1.387 . S
C774 H759 0.930 . S
C774 C769 1.390 . S
C774 C773 1.387 . S
H775 C787 0.930 . S
H776 C789 0.930 . S
H777 C790 0.930 . S
H778 C794 0.959 . S
H779 C794 0.959 . S
H780 C794 0.961 . S
H781 C795 0.960 . S
H782 C795 0.961 . S
H783 C795 0.959 . S
H784 C798 0.929 . S
H785 C799 0.931 . S
H786 C801 0.930 . S
C787 H775 0.930 . S
C787 C788 1.399 . S
C787 C792 1.399 . S
C788 C787 1.399 . S
C788 C789 1.376 . S
C789 H776 0.930 . S
C789 C788 1.376 . S
C789 C790 1.388 . S
C790 H777 0.930 . S
C790 C789 1.388 . S
C790 C791 1.390 . S
C791 C790 1.390 . S
C791 C792 1.394 . S
C791 C797 1.465 . S
C792 C787 1.399 . S
C792 C791 1.394 . S
C792 C793 1.516 . S
C793 C792 1.516 . S
C793 C794 1.502 . S
C793 C795 1.561 . S
C793 C796 1.526 . S
C794 H778 0.959 . S
C794 H779 0.959 . S
C794 H780 0.961 . S
C794 C793 1.502 . S
C795 H781 0.960 . S
C795 H782 0.961 . S
C795 H783 0.959 . S
C795 C793 1.561 . S
C796 C793 1.526 . S
C796 C797 1.396 . S
C796 C801 1.390 . S
C797 C791 1.465 . S
C797 C796 1.396 . S
C797 C798 1.399 . S
C798 H784 0.929 . S
C798 C797 1.399 . S
C798 C799 1.385 . S
C799 H785 0.931 . S
C799 C798 1.385 . S
C799 C800 1.389 . S
C800 C799 1.389 . S
C800 C801 1.387 . S
C801 H786 0.930 . S
C801 C796 1.390 . S
C801 C800 1.387 . S
H802 C814 0.930 . S
H803 C816 0.930 . S
H804 C817 0.930 . S
H805 C821 0.959 . S
H806 C821 0.959 . S
H807 C821 0.961 . S
H808 C822 0.960 . S
H809 C822 0.961 . S
H810 C822 0.959 . S
H811 C825 0.929 . S
H812 C826 0.931 . S
H813 C828 0.930 . S
C814 H802 0.930 . S
C814 C815 1.399 . S
C814 C819 1.399 . S
C815 C814 1.399 . S
C815 C816 1.376 . S
C816 H803 0.930 . S
C816 C815 1.376 . S
C816 C817 1.388 . S
C817 H804 0.930 . S
C817 C816 1.388 . S
C817 C818 1.390 . S
C818 C817 1.390 . S
C818 C819 1.394 . S
C818 C824 1.465 1_655 S
C819 C814 1.399 . S
C819 C818 1.394 . S
C819 C820 1.516 1_655 S
C820 C819 1.516 1_455 S
C820 C821 1.502 . S
C820 C822 1.561 1_455 S
C820 C823 1.526 . S
C821 H805 0.959 . S
C821 H806 0.959 . S
C821 H807 0.961 . S
C821 C820 1.502 . S
C822 H808 0.960 . S
C822 H809 0.961 . S
C822 H810 0.959 . S
C822 C820 1.561 1_655 S
C823 C820 1.526 . S
C823 C824 1.396 . S
C823 C828 1.390 . S
C824 C818 1.465 1_455 S
C824 C823 1.396 . S
C824 C825 1.399 . S
C825 H811 0.929 . S
C825 C824 1.399 . S
C825 C826 1.385 . S
C826 H812 0.931 . S
C826 C825 1.385 . S
C826 C827 1.389 . S
C827 C826 1.389 . S
C827 C828 1.387 . S
C828 H813 0.930 . S
C828 C823 1.390 . S
C828 C827 1.387 . S
H829 C841 0.930 . S
H830 C843 0.930 . S
H831 C844 0.930 . S
H832 C848 0.959 . S
H833 C848 0.959 . S
H834 C848 0.961 . S
H835 C849 0.960 . S
H836 C849 0.961 1_655 S
H837 C849 0.959 . S
H838 C852 0.929 . S
H839 C853 0.931 . S
H840 C855 0.930 . S
C841 H829 0.930 . S
C841 C842 1.399 . S
C841 C846 1.399 . S
C842 C841 1.399 . S
C842 C843 1.376 . S
C843 H830 0.930 . S
C843 C842 1.376 . S
C843 C844 1.388 . S
C844 H831 0.930 . S
C844 C843 1.388 . S
C844 C845 1.390 . S
C845 C844 1.390 . S
C845 C846 1.394 . S
C845 C851 1.465 1_455 S
C846 C841 1.399 . S
C846 C845 1.394 . S
C846 C847 1.516 1_455 S
C847 C846 1.516 1_655 S
C847 C848 1.502 . S
C847 C849 1.561 1_655 S
C847 C850 1.526 . S
C848 H832 0.959 . S
C848 H833 0.959 . S
C848 H834 0.961 . S
C848 C847 1.502 . S
C849 H835 0.960 . S
C849 H836 0.961 1_455 S
C849 H837 0.959 . S
C849 C847 1.561 1_455 S
C850 C847 1.526 . S
C850 C851 1.396 . S
C850 C855 1.390 . S
C851 C845 1.465 1_655 S
C851 C850 1.396 . S
C851 C852 1.399 . S
C852 H838 0.929 . S
C852 C851 1.399 . S
C852 C853 1.385 . S
C853 H839 0.931 . S
C853 C852 1.385 . S
C853 C854 1.389 . S
C854 C853 1.389 . S
C854 C855 1.387 . S
C855 H840 0.930 . S
C855 C850 1.390 . S
C855 C854 1.387 . S
H856 C868 0.930 . S
H857 C870 0.930 . S
H858 C871 0.930 . S
H859 C875 0.959 . S
H860 C875 0.959 . S
H861 C875 0.961 . S
H862 C876 0.960 . S
H863 C876 0.961 . S
H864 C876 0.959 . S
H865 C879 0.929 . S
H866 C880 0.931 . S
H867 C882 0.930 . S
C868 H856 0.930 . S
C868 C869 1.399 . S
C868 C873 1.399 . S
C869 C868 1.399 . S
C869 C870 1.376 . S
C870 H857 0.930 . S
C870 C869 1.376 . S
C870 C871 1.388 . S
C871 H858 0.930 . S
C871 C870 1.388 . S
C871 C872 1.390 . S
C872 C871 1.390 . S
C872 C873 1.394 . S
C872 C878 1.465 . S
C873 C868 1.399 . S
C873 C872 1.394 . S
C873 C874 1.516 . S
C874 C873 1.516 . S
C874 C875 1.502 . S
C874 C876 1.561 . S
C874 C877 1.526 . S
C875 H859 0.959 . S
C875 H860 0.959 . S
C875 H861 0.961 . S
C875 C874 1.502 . S
C876 H862 0.960 . S
C876 H863 0.961 . S
C876 H864 0.959 . S
C876 C874 1.561 . S
C877 C874 1.526 . S
C877 C878 1.396 . S
C877 C882 1.390 . S
C878 C872 1.465 . S
C878 C877 1.396 . S
C878 C879 1.399 . S
C879 H865 0.929 . S
C879 C878 1.399 . S
C879 C880 1.385 . S
C880 H866 0.931 . S
C880 C879 1.385 . S
C880 C881 1.389 . S
C881 C880 1.389 . S
C881 C882 1.387 . S
C882 H867 0.930 . S
C882 C877 1.390 . S
C882 C881 1.387 . S
H883 C895 0.930 . S
H884 C897 0.930 . S
H885 C898 0.930 . S
H886 C902 0.959 . S
H887 C902 0.959 . S
H888 C902 0.961 . S
H889 C903 0.960 . S
H890 C903 0.961 . S
H891 C903 0.959 . S
H892 C906 0.929 . S
H893 C907 0.931 . S
H894 C909 0.930 . S
C895 H883 0.930 . S
C895 C896 1.399 . S
C895 C900 1.399 . S
C896 C895 1.399 . S
C896 C897 1.376 . S
C897 H884 0.930 . S
C897 C896 1.376 . S
C897 C898 1.388 . S
C898 H885 0.930 . S
C898 C897 1.388 . S
C898 C899 1.390 . S
C899 C898 1.390 . S
C899 C900 1.394 . S
C899 C905 1.465 . S
C900 C895 1.399 . S
C900 C899 1.394 . S
C900 C901 1.516 . S
C901 C900 1.516 . S
C901 C902 1.502 . S
C901 C903 1.561 . S
C901 C904 1.526 . S
C902 H886 0.959 . S
C902 H887 0.959 . S
C902 H888 0.961 . S
C902 C901 1.502 . S
C903 H889 0.960 . S
C903 H890 0.961 . S
C903 H891 0.959 . S
C903 C901 1.561 . S
C904 C901 1.526 . S
C904 C905 1.396 . S
C904 C909 1.390 . S
C905 C899 1.465 . S
C905 C904 1.396 . S
C905 C906 1.399 . S
C906 H892 0.929 . S
C906 C905 1.399 . S
C906 C907 1.385 . S
C907 H893 0.931 . S
C907 C906 1.385 . S
C907 C908 1.389 . S
C908 C907 1.389 . S
C908 C909 1.387 . S
C909 H894 0.930 . S
C909 C904 1.390 . S
C909 C908 1.387 . S
H910 C922 0.930 . S
H911 C924 0.930 . S
H912 C925 0.930 . S
H913 C929 0.959 . S
H914 C929 0.959 . S
H915 C929 0.961 . S
H916 C930 0.960 . S
H917 C930 0.961 . S
H918 C930 0.959 . S
H919 C933 0.929 . S
H920 C934 0.931 . S
H921 C936 0.930 . S
C922 H910 0.930 . S
C922 C923 1.399 . S
C922 C927 1.399 . S
C923 C922 1.399 . S
C923 C924 1.376 . S
C924 H911 0.930 . S
C924 C923 1.376 . S
C924 C925 1.388 . S
C925 H912 0.930 . S
C925 C924 1.388 . S
C925 C926 1.390 . S
C926 C925 1.390 . S
C926 C927 1.394 . S
C926 C932 1.465 . S
C927 C922 1.399 . S
C927 C926 1.394 . S
C927 C928 1.516 . S
C928 C927 1.516 . S
C928 C929 1.502 . S
C928 C930 1.561 . S
C928 C931 1.526 . S
C929 H913 0.959 . S
C929 H914 0.959 . S
C929 H915 0.961 . S
C929 C928 1.502 . S
C930 H916 0.960 . S
C930 H917 0.961 . S
C930 H918 0.959 . S
C930 C928 1.561 . S
C931 C928 1.526 . S
C931 C932 1.396 . S
C931 C936 1.390 . S
C932 C926 1.465 . S
C932 C931 1.396 . S
C932 C933 1.399 . S
C933 H919 0.929 . S
C933 C932 1.399 . S
C933 C934 1.385 . S
C934 H920 0.931 . S
C934 C933 1.385 . S
C934 C935 1.389 . S
C935 C934 1.389 . S
C935 C936 1.387 . S
C936 H921 0.930 . S
C936 C931 1.390 . S
C936 C935 1.387 . S
H937 C949 0.930 . S
H938 C951 0.930 . S
H939 C952 0.930 . S
H940 C956 0.959 . S
H941 C956 0.959 . S
H942 C956 0.961 . S
H943 C957 0.960 . S
H944 C957 0.961 . S
H945 C957 0.959 . S
H946 C960 0.929 . S
H947 C961 0.931 . S
H948 C963 0.930 . S
C949 H937 0.930 . S
C949 C950 1.399 . S
C949 C954 1.399 . S
C950 C949 1.399 . S
C950 C951 1.376 . S
C951 H938 0.930 . S
C951 C950 1.376 . S
C951 C952 1.388 . S
C952 H939 0.930 . S
C952 C951 1.388 . S
C952 C953 1.390 . S
C953 C952 1.390 . S
C953 C954 1.394 . S
C953 C959 1.465 . S
C954 C949 1.399 . S
C954 C953 1.394 . S
C954 C955 1.516 . S
C955 C954 1.516 . S
C955 C956 1.502 . S
C955 C957 1.561 . S
C955 C958 1.526 . S
C956 H940 0.959 . S
C956 H941 0.959 . S
C956 H942 0.961 . S
C956 C955 1.502 . S
C957 H943 0.960 . S
C957 H944 0.961 . S
C957 H945 0.959 . S
C957 C955 1.561 . S
C958 C955 1.526 . S
C958 C959 1.396 . S
C958 C963 1.390 . S
C959 C953 1.465 . S
C959 C958 1.396 . S
C959 C960 1.399 . S
C960 H946 0.929 . S
C960 C959 1.399 . S
C960 C961 1.385 . S
C961 H947 0.931 . S
C961 C960 1.385 . S
C961 C962 1.389 . S
C962 C961 1.389 . S
C962 C963 1.387 . S
C963 H948 0.930 . S
C963 C958 1.390 . S
C963 C962 1.387 . S
H964 C976 0.930 . S
H965 C978 0.930 . S
H966 C979 0.930 . S
H967 C983 0.959 . S
H968 C983 0.959 . S
H969 C983 0.961 . S
H970 C984 0.960 . S
H971 C984 0.961 . S
H972 C984 0.959 . S
H973 C987 0.929 . S
H974 C988 0.931 . S
H975 C990 0.930 . S
C976 H964 0.930 . S
C976 C977 1.399 . S
C976 C981 1.399 . S
C977 C976 1.399 . S
C977 C978 1.376 . S
C978 H965 0.930 . S
C978 C977 1.376 . S
C978 C979 1.388 . S
C979 H966 0.930 . S
C979 C978 1.388 . S
C979 C980 1.390 . S
C980 C979 1.390 . S
C980 C981 1.394 . S
C980 C986 1.465 . S
C981 C976 1.399 . S
C981 C980 1.394 . S
C981 C982 1.516 . S
C982 C981 1.516 . S
C982 C983 1.502 . S
C982 C984 1.561 . S
C982 C985 1.526 . S
C983 H967 0.959 . S
C983 H968 0.959 . S
C983 H969 0.961 . S
C983 C982 1.502 . S
C984 H970 0.960 . S
C984 H971 0.961 . S
C984 H972 0.959 . S
C984 C982 1.561 . S
C985 C982 1.526 . S
C985 C986 1.396 . S
C985 C990 1.390 . S
C986 C980 1.465 . S
C986 C985 1.396 . S
C986 C987 1.399 . S
C987 H973 0.929 . S
C987 C986 1.399 . S
C987 C988 1.385 . S
C988 H974 0.931 . S
C988 C987 1.385 . S
C988 C989 1.389 . S
C989 C988 1.389 . S
C989 C990 1.387 . S
C990 H975 0.930 . S
C990 C985 1.390 . S
C990 C989 1.387 . S
H991 C1003 0.930 . S
H992 C1005 0.930 . S
H993 C1006 0.930 . S
H994 C1010 0.959 . S
H995 C1010 0.959 . S
H996 C1010 0.961 . S
H997 C1011 0.960 . S
H998 C1011 0.961 . S
H999 C1011 0.959 . S
H1000 C1014 0.929 . S
H1001 C1015 0.931 . S
H1002 C1017 0.930 . S
C1003 H991 0.930 . S
C1003 C1004 1.399 . S
C1003 C1008 1.399 . S
C1004 C1003 1.399 . S
C1004 C1005 1.376 . S
C1005 H992 0.930 . S
C1005 C1004 1.376 . S
C1005 C1006 1.388 . S
C1006 H993 0.930 . S
C1006 C1005 1.388 . S
C1006 C1007 1.390 . S
C1007 C1006 1.390 . S
C1007 C1008 1.394 . S
C1007 C1013 1.465 . S
C1008 C1003 1.399 . S
C1008 C1007 1.394 . S
C1008 C1009 1.516 . S
C1009 C1008 1.516 . S
C1009 C1010 1.502 . S
C1009 C1011 1.561 . S
C1009 C1012 1.526 . S
C1010 H994 0.959 . S
C1010 H995 0.959 . S
C1010 H996 0.961 . S
C1010 C1009 1.502 . S
C1011 H997 0.960 . S
C1011 H998 0.961 . S
C1011 H999 0.959 . S
C1011 C1009 1.561 . S
C1012 C1009 1.526 . S
C1012 C1013 1.396 . S
C1012 C1017 1.390 . S
C1013 C1007 1.465 . S
C1013 C1012 1.396 . S
C1013 C1014 1.399 . S
C1014 H1000 0.929 . S
C1014 C1013 1.399 . S
C1014 C1015 1.385 . S
C1015 H1001 0.931 . S
C1015 C1014 1.385 . S
C1015 C1016 1.389 . S
C1016 C1015 1.389 . S
C1016 C1017 1.387 . S
C1017 H1002 0.930 . S
C1017 C1012 1.390 . S
C1017 C1016 1.387 . S
H1018 C1030 0.930 . S
H1019 C1032 0.930 . S
H1020 C1033 0.930 . S
H1021 C1037 0.959 . S
H1022 C1037 0.959 . S
H1023 C1037 0.961 . S
H1024 C1038 0.960 . S
H1025 C1038 0.961 . S
H1026 C1038 0.959 . S
H1027 C1041 0.929 . S
H1028 C1042 0.931 . S
H1029 C1044 0.930 . S
C1030 H1018 0.930 . S
C1030 C1031 1.399 . S
C1030 C1035 1.399 . S
C1031 C1030 1.399 . S
C1031 C1032 1.376 . S
C1032 H1019 0.930 . S
C1032 C1031 1.376 . S
C1032 C1033 1.388 . S
C1033 H1020 0.930 . S
C1033 C1032 1.388 . S
C1033 C1034 1.390 . S
C1034 C1033 1.390 . S
C1034 C1035 1.394 . S
C1034 C1040 1.465 . S
C1035 C1030 1.399 . S
C1035 C1034 1.394 . S
C1035 C1036 1.516 . S
C1036 C1035 1.516 . S
C1036 C1037 1.502 . S
C1036 C1038 1.561 . S
C1036 C1039 1.526 . S
C1037 H1021 0.959 . S
C1037 H1022 0.959 . S
C1037 H1023 0.961 . S
C1037 C1036 1.502 . S
C1038 H1024 0.960 . S
C1038 H1025 0.961 . S
C1038 H1026 0.959 . S
C1038 C1036 1.561 . S
C1039 C1036 1.526 . S
C1039 C1040 1.396 . S
C1039 C1044 1.390 . S
C1040 C1034 1.465 . S
C1040 C1039 1.396 . S
C1040 C1041 1.399 . S
C1041 H1027 0.929 . S
C1041 C1040 1.399 . S
C1041 C1042 1.385 . S
C1042 H1028 0.931 . S
C1042 C1041 1.385 . S
C1042 C1043 1.389 . S
C1043 C1042 1.389 . S
C1043 C1044 1.387 . S
C1044 H1029 0.930 . S
C1044 C1039 1.390 . S
C1044 C1043 1.387 . S
H1045 C1057 0.930 . S
H1046 C1059 0.930 . S
H1047 C1060 0.930 . S
H1048 C1064 0.959 . S
H1049 C1064 0.959 . S
H1050 C1064 0.961 . S
H1051 C1065 0.960 . S
H1052 C1065 0.961 . S
H1053 C1065 0.959 . S
H1054 C1068 0.929 . S
H1055 C1069 0.931 . S
H1056 C1071 0.930 . S
C1057 H1045 0.930 . S
C1057 C1058 1.399 . S
C1057 C1062 1.399 . S
C1058 C1057 1.399 . S
C1058 C1059 1.376 . S
C1059 H1046 0.930 . S
C1059 C1058 1.376 . S
C1059 C1060 1.388 . S
C1060 H1047 0.930 . S
C1060 C1059 1.388 . S
C1060 C1061 1.390 . S
C1061 C1060 1.390 . S
C1061 C1062 1.394 . S
C1061 C1067 1.465 . S
C1062 C1057 1.399 . S
C1062 C1061 1.394 . S
C1062 C1063 1.516 . S
C1063 C1062 1.516 . S
C1063 C1064 1.502 . S
C1063 C1065 1.561 . S
C1063 C1066 1.526 . S
C1064 H1048 0.959 . S
C1064 H1049 0.959 . S
C1064 H1050 0.961 . S
C1064 C1063 1.502 . S
C1065 H1051 0.960 . S
C1065 H1052 0.961 . S
C1065 H1053 0.959 . S
C1065 C1063 1.561 . S
C1066 C1063 1.526 . S
C1066 C1067 1.396 . S
C1066 C1071 1.390 . S
C1067 C1061 1.465 . S
C1067 C1066 1.396 . S
C1067 C1068 1.399 . S
C1068 H1054 0.929 . S
C1068 C1067 1.399 . S
C1068 C1069 1.385 . S
C1069 H1055 0.931 . S
C1069 C1068 1.385 . S
C1069 C1070 1.389 . S
C1070 C1069 1.389 . S
C1070 C1071 1.387 . S
C1071 H1056 0.930 . S
C1071 C1066 1.390 . S
C1071 C1070 1.387 . S
H1072 C1084 0.930 . S
H1073 C1086 0.930 . S
H1074 C1087 0.930 . S
H1075 C1091 0.959 . S
H1076 C1091 0.959 . S
H1077 C1091 0.961 . S
H1078 C1092 0.960 . S
H1079 C1092 0.961 . S
H1080 C1092 0.959 . S
H1081 C1095 0.929 . S
H1082 C1096 0.931 . S
H1083 C1098 0.930 . S
C1084 H1072 0.930 . S
C1084 C1085 1.399 . S
C1084 C1089 1.399 . S
C1085 C1084 1.399 . S
C1085 C1086 1.376 . S
C1086 H1073 0.930 . S
C1086 C1085 1.376 . S
C1086 C1087 1.388 . S
C1087 H1074 0.930 . S
C1087 C1086 1.388 . S
C1087 C1088 1.390 . S
C1088 C1087 1.390 . S
C1088 C1089 1.394 . S
C1088 C1094 1.465 . S
C1089 C1084 1.399 . S
C1089 C1088 1.394 . S
C1089 C1090 1.516 . S
C1090 C1089 1.516 . S
C1090 C1091 1.502 . S
C1090 C1092 1.561 . S
C1090 C1093 1.526 . S
C1091 H1075 0.959 . S
C1091 H1076 0.959 . S
C1091 H1077 0.961 . S
C1091 C1090 1.502 . S
C1092 H1078 0.960 . S
C1092 H1079 0.961 . S
C1092 H1080 0.959 . S
C1092 C1090 1.561 . S
C1093 C1090 1.526 . S
C1093 C1094 1.396 . S
C1093 C1098 1.390 . S
C1094 C1088 1.465 . S
C1094 C1093 1.396 . S
C1094 C1095 1.399 . S
C1095 H1081 0.929 . S
C1095 C1094 1.399 . S
C1095 C1096 1.385 . S
C1096 H1082 0.931 . S
C1096 C1095 1.385 . S
C1096 C1097 1.389 . S
C1097 C1096 1.389 . S
C1097 C1098 1.387 . S
C1098 H1083 0.930 . S
C1098 C1093 1.390 . S
C1098 C1097 1.387 . S
H1099 C1111 0.930 . S
H1100 C1113 0.930 . S
H1101 C1114 0.930 . S
H1102 C1118 0.959 1_565 S
H1103 C1118 0.959 1_565 S
H1104 C1118 0.961 . S
H1105 C1119 0.960 . S
H1106 C1119 0.961 . S
H1107 C1119 0.959 . S
H1108 C1122 0.929 . S
H1109 C1123 0.931 . S
H1110 C1125 0.930 . S
C1111 H1099 0.930 . S
C1111 C1112 1.399 . S
C1111 C1116 1.399 . S
C1112 C1111 1.399 . S
C1112 C1113 1.376 . S
C1113 H1100 0.930 . S
C1113 C1112 1.376 . S
C1113 C1114 1.388 1_545 S
C1114 H1101 0.930 . S
C1114 C1113 1.388 1_565 S
C1114 C1115 1.390 . S
C1115 C1114 1.390 . S
C1115 C1116 1.394 1_565 S
C1115 C1121 1.465 . S
C1116 C1111 1.399 . S
C1116 C1115 1.394 1_545 S
C1116 C1117 1.516 1_545 S
C1117 C1116 1.516 1_565 S
C1117 C1118 1.502 1_565 S
C1117 C1119 1.561 1_565 S
C1117 C1120 1.526 . S
C1118 H1102 0.959 1_545 S
C1118 H1103 0.959 1_545 S
C1118 H1104 0.961 . S
C1118 C1117 1.502 1_545 S
C1119 H1105 0.960 . S
C1119 H1106 0.961 . S
C1119 H1107 0.959 . S
C1119 C1117 1.561 1_545 S
C1120 C1117 1.526 . S
C1120 C1121 1.396 . S
C1120 C1125 1.390 . S
C1121 C1115 1.465 . S
C1121 C1120 1.396 . S
C1121 C1122 1.399 . S
C1122 H1108 0.929 . S
C1122 C1121 1.399 . S
C1122 C1123 1.385 . S
C1123 H1109 0.931 . S
C1123 C1122 1.385 . S
C1123 C1124 1.389 . S
C1124 C1123 1.389 . S
C1124 C1125 1.387 . S
C1125 H1110 0.930 . S
C1125 C1120 1.390 . S
C1125 C1124 1.387 . S
H1126 C1138 0.930 . S
H1127 C1140 0.930 . S
H1128 C1141 0.930 . S
H1129 C1145 0.959 . S
H1130 C1145 0.959 . S
H1131 C1145 0.961 . S
H1132 C1146 0.960 . S
H1133 C1146 0.961 . S
H1134 C1146 0.959 . S
H1135 C1149 0.929 . S
H1136 C1150 0.931 . S
H1137 C1152 0.930 . S
C1138 H1126 0.930 . S
C1138 C1139 1.399 . S
C1138 C1143 1.399 . S
C1139 C1138 1.399 . S
C1139 C1140 1.376 . S
C1140 H1127 0.930 . S
C1140 C1139 1.376 . S
C1140 C1141 1.388 . S
C1141 H1128 0.930 . S
C1141 C1140 1.388 . S
C1141 C1142 1.390 . S
C1142 C1141 1.390 . S
C1142 C1143 1.394 . S
C1142 C1148 1.465 . S
C1143 C1138 1.399 . S
C1143 C1142 1.394 . S
C1143 C1144 1.516 . S
C1144 C1143 1.516 . S
C1144 C1145 1.502 . S
C1144 C1146 1.561 . S
C1144 C1147 1.526 . S
C1145 H1129 0.959 . S
C1145 H1130 0.959 . S
C1145 H1131 0.961 . S
C1145 C1144 1.502 . S
C1146 H1132 0.960 . S
C1146 H1133 0.961 . S
C1146 H1134 0.959 . S
C1146 C1144 1.561 . S
C1147 C1144 1.526 . S
C1147 C1148 1.396 . S
C1147 C1152 1.390 . S
C1148 C1142 1.465 . S
C1148 C1147 1.396 . S
C1148 C1149 1.399 . S
C1149 H1135 0.929 . S
C1149 C1148 1.399 . S
C1149 C1150 1.385 . S
C1150 H1136 0.931 . S
C1150 C1149 1.385 . S
C1150 C1151 1.389 . S
C1151 C1150 1.389 . S
C1151 C1152 1.387 . S
C1152 H1137 0.930 . S
C1152 C1147 1.390 . S
C1152 C1151 1.387 . S
H1153 C1165 0.930 . S
H1154 C1167 0.930 . S
H1155 C1168 0.930 . S
H1156 C1172 0.959 1_545 S
H1157 C1172 0.959 1_545 S
H1158 C1172 0.961 . S
H1159 C1173 0.960 . S
H1160 C1173 0.961 . S
H1161 C1173 0.959 . S
H1162 C1176 0.929 . S
H1163 C1177 0.931 . S
H1164 C1179 0.930 . S
C1165 H1153 0.930 . S
C1165 C1166 1.399 . S
C1165 C1170 1.399 . S
C1166 C1165 1.399 . S
C1166 C1167 1.376 . S
C1167 H1154 0.930 . S
C1167 C1166 1.376 . S
C1167 C1168 1.388 1_565 S
C1168 H1155 0.930 . S
C1168 C1167 1.388 1_545 S
C1168 C1169 1.390 . S
C1169 C1168 1.390 . S
C1169 C1170 1.394 1_545 S
C1169 C1175 1.465 . S
C1170 C1165 1.399 . S
C1170 C1169 1.394 1_565 S
C1170 C1171 1.516 1_565 S
C1171 C1170 1.516 1_545 S
C1171 C1172 1.502 1_545 S
C1171 C1173 1.561 1_545 S
C1171 C1174 1.526 . S
C1172 H1156 0.959 1_565 S
C1172 H1157 0.959 1_565 S
C1172 H1158 0.961 . S
C1172 C1171 1.502 1_565 S
C1173 H1159 0.960 . S
C1173 H1160 0.961 . S
C1173 H1161 0.959 . S
C1173 C1171 1.561 1_565 S
C1174 C1171 1.526 . S
C1174 C1175 1.396 . S
C1174 C1179 1.390 . S
C1175 C1169 1.465 . S
C1175 C1174 1.396 . S
C1175 C1176 1.399 . S
C1176 H1162 0.929 . S
C1176 C1175 1.399 . S
C1176 C1177 1.385 . S
C1177 H1163 0.931 . S
C1177 C1176 1.385 . S
C1177 C1178 1.389 . S
C1178 C1177 1.389 . S
C1178 C1179 1.387 . S
C1179 H1164 0.930 . S
C1179 C1174 1.390 . S
C1179 C1178 1.387 . S
H1180 C1192 0.930 . S
H1181 C1194 0.930 . S
H1182 C1195 0.930 . S
H1183 C1199 0.959 . S
H1184 C1199 0.959 . S
H1185 C1199 0.961 . S
H1186 C1200 0.960 . S
H1187 C1200 0.961 . S
H1188 C1200 0.959 . S
H1189 C1203 0.929 . S
H1190 C1204 0.931 . S
H1191 C1206 0.930 . S
C1192 H1180 0.930 . S
C1192 C1193 1.399 . S
C1192 C1197 1.399 . S
C1193 C1192 1.399 . S
C1193 C1194 1.376 . S
C1194 H1181 0.930 . S
C1194 C1193 1.376 . S
C1194 C1195 1.388 . S
C1195 H1182 0.930 . S
C1195 C1194 1.388 . S
C1195 C1196 1.390 . S
C1196 C1195 1.390 . S
C1196 C1197 1.394 . S
C1196 C1202 1.465 . S
C1197 C1192 1.399 . S
C1197 C1196 1.394 . S
C1197 C1198 1.516 . S
C1198 C1197 1.516 . S
C1198 C1199 1.502 . S
C1198 C1200 1.561 . S
C1198 C1201 1.526 . S
C1199 H1183 0.959 . S
C1199 H1184 0.959 . S
C1199 H1185 0.961 . S
C1199 C1198 1.502 . S
C1200 H1186 0.960 . S
C1200 H1187 0.961 . S
C1200 H1188 0.959 . S
C1200 C1198 1.561 . S
C1201 C1198 1.526 . S
C1201 C1202 1.396 . S
C1201 C1206 1.390 . S
C1202 C1196 1.465 . S
C1202 C1201 1.396 . S
C1202 C1203 1.399 . S
C1203 H1189 0.929 . S
C1203 C1202 1.399 . S
C1203 C1204 1.385 . S
C1204 H1190 0.931 . S
C1204 C1203 1.385 . S
C1204 C1205 1.389 . S
C1205 C1204 1.389 . S
C1205 C1206 1.387 . S
C1206 H1191 0.930 . S
C1206 C1201 1.390 . S
C1206 C1205 1.387 . S
H1207 C1219 0.930 . S
H1208 C1221 0.930 . S
H1209 C1222 0.930 . S
H1210 C1226 0.959 . S
H1211 C1226 0.959 . S
H1212 C1226 0.961 . S
H1213 C1227 0.960 . S
H1214 C1227 0.961 . S
H1215 C1227 0.959 . S
H1216 C1230 0.930 1_545 S
H1217 C1231 0.931 . S
H1218 C1233 0.930 . S
C1219 H1207 0.930 . S
C1219 C1220 1.399 . S
C1219 C1224 1.399 . S
C1220 C1219 1.399 . S
C1220 C1221 1.376 . S
C1221 H1208 0.930 . S
C1221 C1220 1.376 . S
C1221 C1222 1.388 . S
C1222 H1209 0.930 . S
C1222 C1221 1.388 . S
C1222 C1223 1.390 . S
C1223 C1222 1.390 . S
C1223 C1224 1.394 . S
C1223 C1229 1.465 . S
C1224 C1219 1.399 . S
C1224 C1223 1.394 . S
C1224 C1225 1.516 . S
C1225 C1224 1.516 . S
C1225 C1226 1.502 . S
C1225 C1227 1.561 . S
C1225 C1228 1.526 . S
C1226 H1210 0.959 . S
C1226 H1211 0.959 . S
C1226 H1212 0.961 . S
C1226 C1225 1.502 . S
C1227 H1213 0.960 . S
C1227 H1214 0.961 . S
C1227 H1215 0.959 . S
C1227 C1225 1.561 . S
C1228 C1225 1.526 . S
C1228 C1229 1.396 . S
C1228 C1233 1.390 1_545 S
C1229 C1223 1.465 . S
C1229 C1228 1.396 . S
C1229 C1230 1.399 1_545 S
C1230 H1216 0.930 1_565 S
C1230 C1229 1.399 1_565 S
C1230 C1231 1.385 . S
C1231 H1217 0.931 . S
C1231 C1230 1.385 . S
C1231 C1232 1.389 . S
C1232 C1231 1.389 . S
C1232 C1233 1.387 . S
C1233 H1218 0.930 . S
C1233 C1228 1.390 1_565 S
C1233 C1232 1.387 . S
H1234 C1246 0.930 . S
H1235 C1248 0.930 . S
H1236 C1249 0.930 . S
H1237 C1253 0.959 . S
H1238 C1253 0.959 . S
H1239 C1253 0.961 . S
H1240 C1254 0.960 . S
H1241 C1254 0.961 . S
H1242 C1254 0.959 . S
H1243 C1257 0.929 . S
H1244 C1258 0.931 . S
H1245 C1260 0.930 . S
C1246 H1234 0.930 . S
C1246 C1247 1.399 . S
C1246 C1251 1.399 . S
C1247 C1246 1.399 . S
C1247 C1248 1.376 . S
C1248 H1235 0.930 . S
C1248 C1247 1.376 . S
C1248 C1249 1.388 . S
C1249 H1236 0.930 . S
C1249 C1248 1.388 . S
C1249 C1250 1.390 . S
C1250 C1249 1.390 . S
C1250 C1251 1.394 . S
C1250 C1256 1.465 . S
C1251 C1246 1.399 . S
C1251 C1250 1.394 . S
C1251 C1252 1.516 . S
C1252 C1251 1.516 . S
C1252 C1253 1.502 . S
C1252 C1254 1.561 . S
C1252 C1255 1.526 . S
C1253 H1237 0.959 . S
C1253 H1238 0.959 . S
C1253 H1239 0.961 . S
C1253 C1252 1.502 . S
C1254 H1240 0.960 . S
C1254 H1241 0.961 . S
C1254 H1242 0.959 . S
C1254 C1252 1.561 . S
C1255 C1252 1.526 . S
C1255 C1256 1.396 . S
C1255 C1260 1.390 . S
C1256 C1250 1.465 . S
C1256 C1255 1.396 . S
C1256 C1257 1.399 . S
C1257 H1243 0.929 . S
C1257 C1256 1.399 . S
C1257 C1258 1.385 . S
C1258 H1244 0.931 . S
C1258 C1257 1.385 . S
C1258 C1259 1.389 . S
C1259 C1258 1.389 . S
C1259 C1260 1.387 . S
C1260 H1245 0.930 . S
C1260 C1255 1.390 . S
C1260 C1259 1.387 . S
H1261 C1273 0.930 . S
H1262 C1275 0.930 . S
H1263 C1276 0.930 . S
H1264 C1280 0.959 1_565 S
H1265 C1280 0.959 . S
H1266 C1280 0.961 . S
H1267 C1281 0.960 . S
H1268 C1281 0.961 . S
H1269 C1281 0.947 1_565 S
H1270 C1284 0.929 . S
H1271 C1285 0.931 . S
H1272 C1287 0.930 . S
C1273 H1261 0.930 . S
C1273 C1274 1.399 . S
C1273 C1278 1.399 . S
C1274 C1273 1.399 . S
C1274 C1275 1.376 . S
C1275 H1262 0.930 . S
C1275 C1274 1.376 . S
C1275 C1276 1.388 1_545 S
C1276 H1263 0.930 . S
C1276 C1275 1.388 1_565 S
C1276 C1277 1.390 . S
C1277 C1276 1.390 . S
C1277 C1278 1.394 1_565 S
C1277 C1283 1.465 . S
C1278 C1273 1.399 . S
C1278 C1277 1.394 1_545 S
C1278 C1279 1.516 1_545 S
C1279 C1278 1.516 1_565 S
C1279 C1280 1.502 1_565 S
C1279 C1281 1.561 1_565 S
C1279 C1282 1.526 . S
C1280 H1264 0.959 1_545 S
C1280 H1265 0.959 . S
C1280 H1266 0.961 . S
C1280 C1279 1.502 1_545 S
C1281 H1267 0.960 . S
C1281 H1268 0.961 . S
C1281 H1269 0.947 1_545 S
C1281 C1279 1.561 1_545 S
C1282 C1279 1.526 . S
C1282 C1283 1.396 . S
C1282 C1287 1.390 . S
C1283 C1277 1.465 . S
C1283 C1282 1.396 . S
C1283 C1284 1.399 . S
C1284 H1270 0.929 . S
C1284 C1283 1.399 . S
C1284 C1285 1.385 . S
C1285 H1271 0.931 . S
C1285 C1284 1.385 . S
C1285 C1286 1.389 . S
C1286 C1285 1.389 . S
C1286 C1287 1.387 . S
C1287 H1272 0.930 . S
C1287 C1282 1.390 . S
C1287 C1286 1.387 . S
H1288 C1300 0.930 . S
H1289 C1302 0.930 . S
H1290 C1303 0.930 . S
H1291 C1307 0.959 . S
H1292 C1307 0.959 . S
H1293 C1307 0.961 . S
H1294 C1308 0.960 . S
H1295 C1308 0.961 . S
H1296 C1308 0.959 . S
H1297 C1311 0.929 . S
H1298 C1312 0.931 . S
H1299 C1314 0.930 . S
C1300 H1288 0.930 . S
C1300 C1301 1.399 . S
C1300 C1305 1.399 . S
C1301 C1300 1.399 . S
C1301 C1302 1.376 . S
C1302 H1289 0.930 . S
C1302 C1301 1.376 . S
C1302 C1303 1.388 . S
C1303 H1290 0.930 . S
C1303 C1302 1.388 . S
C1303 C1304 1.390 . S
C1304 C1303 1.390 . S
C1304 C1305 1.394 . S
C1304 C1310 1.465 . S
C1305 C1300 1.399 . S
C1305 C1304 1.394 . S
C1305 C1306 1.516 . S
C1306 C1305 1.516 . S
C1306 C1307 1.502 . S
C1306 C1308 1.561 . S
C1306 C1309 1.526 . S
C1307 H1291 0.959 . S
C1307 H1292 0.959 . S
C1307 H1293 0.961 . S
C1307 C1306 1.502 . S
C1308 H1294 0.960 . S
C1308 H1295 0.961 . S
C1308 H1296 0.959 . S
C1308 C1306 1.561 . S
C1309 C1306 1.526 . S
C1309 C1310 1.396 . S
C1309 C1314 1.390 . S
C1310 C1304 1.465 . S
C1310 C1309 1.396 . S
C1310 C1311 1.399 . S
C1311 H1297 0.929 . S
C1311 C1310 1.399 . S
C1311 C1312 1.385 . S
C1312 H1298 0.931 . S
C1312 C1311 1.385 . S
C1312 C1313 1.389 . S
C1313 C1312 1.389 . S
C1313 C1314 1.387 . S
C1314 H1299 0.930 . S
C1314 C1309 1.390 . S
C1314 C1313 1.387 . S
H1315 C1327 0.930 . S
H1316 C1329 0.930 . S
H1317 C1330 0.930 . S
H1318 C1334 0.959 . S
H1319 C1334 0.959 . S
H1320 C1334 0.961 . S
H1321 C1335 0.960 . S
H1322 C1335 0.961 . S
H1323 C1335 0.959 . S
H1324 C1338 0.929 . S
H1325 C1339 0.931 . S
H1326 C1341 0.930 . S
C1327 H1315 0.930 . S
C1327 C1328 1.399 . S
C1327 C1332 1.399 . S
C1328 C1327 1.399 . S
C1328 C1329 1.376 . S
C1329 H1316 0.930 . S
C1329 C1328 1.376 . S
C1329 C1330 1.388 . S
C1330 H1317 0.930 . S
C1330 C1329 1.388 . S
C1330 C1331 1.390 . S
C1331 C1330 1.390 . S
C1331 C1332 1.394 . S
C1331 C1337 1.465 . S
C1332 C1327 1.399 . S
C1332 C1331 1.394 . S
C1332 C1333 1.516 . S
C1333 C1332 1.516 . S
C1333 C1334 1.502 . S
C1333 C1335 1.561 . S
C1333 C1336 1.526 . S
C1334 H1318 0.959 . S
C1334 H1319 0.959 . S
C1334 H1320 0.961 . S
C1334 C1333 1.502 . S
C1335 H1321 0.960 . S
C1335 H1322 0.961 . S
C1335 H1323 0.959 . S
C1335 C1333 1.561 . S
C1336 C1333 1.526 . S
C1336 C1337 1.396 . S
C1336 C1341 1.390 . S
C1337 C1331 1.465 . S
C1337 C1336 1.396 . S
C1337 C1338 1.399 . S
C1338 H1324 0.929 . S
C1338 C1337 1.399 . S
C1338 C1339 1.385 1_554 S
C1339 H1325 0.931 . S
C1339 C1338 1.385 1_556 S
C1339 C1340 1.389 1_556 S
C1340 C1339 1.389 1_554 S
C1340 C1341 1.387 . S
C1341 H1326 0.930 . S
C1341 C1336 1.390 . S
C1341 C1340 1.387 . S
H1342 C1354 0.930 . S
H1343 C1356 0.930 . S
H1344 C1357 0.930 . S
H1345 C1361 0.981 . S
H1346 C1361 0.977 . S
H1347 C1361 0.950 1_655 S
H1348 C1362 0.960 . S
H1349 C1362 0.961 . S
H1350 C1362 0.959 . S
H1351 C1365 0.929 . S
H1352 C1366 0.931 . S
H1353 C1368 0.930 . S
C1354 H1342 0.930 . S
C1354 C1355 1.399 . S
C1354 C1359 1.399 . S
C1355 C1354 1.399 . S
C1355 C1356 1.376 . S
C1356 H1343 0.930 . S
C1356 C1355 1.376 . S
C1356 C1357 1.388 . S
C1357 H1344 0.930 . S
C1357 C1356 1.388 . S
C1357 C1358 1.390 . S
C1358 C1357 1.390 . S
C1358 C1359 1.394 . S
C1358 C1364 1.465 . S
C1359 C1354 1.399 . S
C1359 C1358 1.394 . S
C1359 C1360 1.516 . S
C1360 C1359 1.516 . S
C1360 C1361 1.475 1_655 S
C1360 C1362 1.561 . S
C1360 C1363 1.526 . S
C1361 H1345 0.981 . S
C1361 H1346 0.977 . S
C1361 H1347 0.950 1_455 S
C1361 C1360 1.475 1_455 S
C1362 H1348 0.960 . S
C1362 H1349 0.961 . S
C1362 H1350 0.959 . S
C1362 C1360 1.561 . S
C1363 C1360 1.526 . S
C1363 C1364 1.396 . S
C1363 C1368 1.390 1_655 S
C1364 C1358 1.465 . S
C1364 C1363 1.396 . S
C1364 C1365 1.399 . S
C1365 H1351 0.929 . S
C1365 C1364 1.399 . S
C1365 C1366 1.385 . S
C1366 H1352 0.931 . S
C1366 C1365 1.385 . S
C1366 C1367 1.389 1_655 S
C1367 C1366 1.389 1_455 S
C1367 C1368 1.387 . S
C1368 H1353 0.930 . S
C1368 C1363 1.390 1_455 S
C1368 C1367 1.387 . S
H1369 C1381 0.930 . S
H1370 C1383 0.930 . S
H1371 C1384 0.930 . S
H1372 C1388 0.959 . S
H1373 C1388 0.959 . S
H1374 C1388 0.961 . S
H1375 C1389 0.960 . S
H1376 C1389 0.961 . S
H1377 C1389 0.959 . S
H1378 C1392 0.929 . S
H1379 C1393 0.931 . S
H1380 C1395 0.930 . S
C1381 H1369 0.930 . S
C1381 C1382 1.399 . S
C1381 C1386 1.399 . S
C1382 C1381 1.399 . S
C1382 C1383 1.376 . S
C1383 H1370 0.930 . S
C1383 C1382 1.376 . S
C1383 C1384 1.388 . S
C1384 H1371 0.930 . S
C1384 C1383 1.388 . S
C1384 C1385 1.390 . S
C1385 C1384 1.390 . S
C1385 C1386 1.394 . S
C1385 C1391 1.465 . S
C1386 C1381 1.399 . S
C1386 C1385 1.394 . S
C1386 C1387 1.516 . S
C1387 C1386 1.516 . S
C1387 C1388 1.502 . S
C1387 C1389 1.561 . S
C1387 C1390 1.526 . S
C1388 H1372 0.959 . S
C1388 H1373 0.959 . S
C1388 H1374 0.961 . S
C1388 C1387 1.502 . S
C1389 H1375 0.960 . S
C1389 H1376 0.961 . S
C1389 H1377 0.959 . S
C1389 C1387 1.561 . S
C1390 C1387 1.526 . S
C1390 C1391 1.396 . S
C1390 C1395 1.390 . S
C1391 C1385 1.465 . S
C1391 C1390 1.396 . S
C1391 C1392 1.399 . S
C1392 H1378 0.929 . S
C1392 C1391 1.399 . S
C1392 C1393 1.385 . S
C1393 H1379 0.931 . S
C1393 C1392 1.385 . S
C1393 C1394 1.389 . S
C1394 C1393 1.389 . S
C1394 C1395 1.387 . S
C1395 H1380 0.930 . S
C1395 C1390 1.390 . S
C1395 C1394 1.387 . S
H1396 C1408 0.930 . S
H1397 C1410 0.930 . S
H1398 C1411 0.930 . S
H1399 C1415 0.959 . S
H1400 C1415 0.959 . S
H1401 C1415 0.961 . S
H1402 C1416 0.960 . S
H1403 C1416 0.961 . S
H1404 C1416 0.959 . S
H1405 C1419 0.929 . S
H1406 C1420 0.931 . S
H1407 C1422 0.930 . S
C1408 H1396 0.930 . S
C1408 C1409 1.399 . S
C1408 C1413 1.399 . S
C1409 C1408 1.399 . S
C1409 C1410 1.376 . S
C1410 H1397 0.930 . S
C1410 C1409 1.376 . S
C1410 C1411 1.388 . S
C1411 H1398 0.930 . S
C1411 C1410 1.388 . S
C1411 C1412 1.390 . S
C1412 C1411 1.390 . S
C1412 C1413 1.394 . S
C1412 C1418 1.465 . S
C1413 C1408 1.399 . S
C1413 C1412 1.394 . S
C1413 C1414 1.516 . S
C1414 C1413 1.516 . S
C1414 C1415 1.502 . S
C1414 C1416 1.561 . S
C1414 C1417 1.526 . S
C1415 H1399 0.959 . S
C1415 H1400 0.959 . S
C1415 H1401 0.961 . S
C1415 C1414 1.502 . S
C1416 H1402 0.960 . S
C1416 H1403 0.961 . S
C1416 H1404 0.959 . S
C1416 C1414 1.561 . S
C1417 C1414 1.526 . S
C1417 C1418 1.396 . S
C1417 C1422 1.390 . S
C1418 C1412 1.465 . S
C1418 C1417 1.396 . S
C1418 C1419 1.399 . S
C1419 H1405 0.929 . S
C1419 C1418 1.399 . S
C1419 C1420 1.385 . S
C1420 H1406 0.931 . S
C1420 C1419 1.385 . S
C1420 C1421 1.389 . S
C1421 C1420 1.389 . S
C1421 C1422 1.387 . S
C1422 H1407 0.930 . S
C1422 C1417 1.390 . S
C1422 C1421 1.387 . S
H1423 C1435 0.930 . S
H1424 C1437 0.930 . S
H1425 C1438 0.930 . S
H1426 C1442 0.959 . S
H1427 C1442 0.959 . S
H1428 C1442 0.961 . S
H1429 C1443 0.960 . S
H1430 C1443 0.961 . S
H1431 C1443 0.959 . S
H1432 C1446 0.929 . S
H1433 C1447 0.931 1_554 S
H1434 C1449 0.930 . S
C1435 H1423 0.930 . S
C1435 C1436 1.399 . S
C1435 C1440 1.399 . S
C1436 C1435 1.399 . S
C1436 C1437 1.376 . S
C1437 H1424 0.930 . S
C1437 C1436 1.376 . S
C1437 C1438 1.388 . S
C1438 H1425 0.930 . S
C1438 C1437 1.388 . S
C1438 C1439 1.390 . S
C1439 C1438 1.390 . S
C1439 C1440 1.394 . S
C1439 C1445 1.465 . S
C1440 C1435 1.399 . S
C1440 C1439 1.394 . S
C1440 C1441 1.516 . S
C1441 C1440 1.516 . S
C1441 C1442 1.502 . S
C1441 C1443 1.561 . S
C1441 C1444 1.526 . S
C1442 H1426 0.959 . S
C1442 H1427 0.959 . S
C1442 H1428 0.961 . S
C1442 C1441 1.502 . S
C1443 H1429 0.960 . S
C1443 H1430 0.961 . S
C1443 H1431 0.959 . S
C1443 C1441 1.561 . S
C1444 C1441 1.526 . S
C1444 C1445 1.396 . S
C1444 C1449 1.390 . S
C1445 C1439 1.465 . S
C1445 C1444 1.396 . S
C1445 C1446 1.399 . S
C1446 H1432 0.929 . S
C1446 C1445 1.399 . S
C1446 C1447 1.385 . S
C1447 H1433 0.931 1_556 S
C1447 C1446 1.385 . S
C1447 C1448 1.389 . S
C1448 C1447 1.389 . S
C1448 C1449 1.387 . S
C1449 H1434 0.930 . S
C1449 C1444 1.390 . S
C1449 C1448 1.387 . S
H1450 C1462 0.930 . S
H1451 C1464 0.930 . S
H1452 C1465 0.930 . S
H1453 C1469 0.959 . S
H1454 C1469 0.959 . S
H1455 C1469 0.961 . S
H1456 C1470 0.960 . S
H1457 C1470 0.961 . S
H1458 C1470 0.959 . S
H1459 C1473 0.929 . S
H1460 C1474 0.931 . S
H1461 C1476 0.930 . S
C1462 H1450 0.930 . S
C1462 C1463 1.399 . S
C1462 C1467 1.399 . S
C1463 C1462 1.399 . S
C1463 C1464 1.376 . S
C1464 H1451 0.930 . S
C1464 C1463 1.376 . S
C1464 C1465 1.388 . S
C1465 H1452 0.930 . S
C1465 C1464 1.388 . S
C1465 C1466 1.390 . S
C1466 C1465 1.390 . S
C1466 C1467 1.394 . S
C1466 C1472 1.465 . S
C1467 C1462 1.399 . S
C1467 C1466 1.394 . S
C1467 C1468 1.516 . S
C1468 C1467 1.516 . S
C1468 C1469 1.502 . S
C1468 C1470 1.561 . S
C1468 C1471 1.526 . S
C1469 H1453 0.959 . S
C1469 H1454 0.959 . S
C1469 H1455 0.961 . S
C1469 C1468 1.502 . S
C1470 H1456 0.960 . S
C1470 H1457 0.961 . S
C1470 H1458 0.959 . S
C1470 C1468 1.561 . S
C1471 C1468 1.526 . S
C1471 C1472 1.396 . S
C1471 C1476 1.390 . S
C1472 C1466 1.465 . S
C1472 C1471 1.396 . S
C1472 C1473 1.399 1_455 S
C1473 H1459 0.929 . S
C1473 C1472 1.399 1_655 S
C1473 C1474 1.385 . S
C1474 H1460 0.931 . S
C1474 C1473 1.385 . S
C1474 C1475 1.389 . S
C1475 C1474 1.389 . S
C1475 C1476 1.387 1_655 S
C1476 H1461 0.930 . S
C1476 C1471 1.390 . S
C1476 C1475 1.387 1_455 S
H1477 C1489 0.930 . S
H1478 C1491 0.930 . S
H1479 C1492 0.930 . S
H1480 C1496 0.959 . S
H1481 C1496 0.959 . S
H1482 C1496 0.961 . S
H1483 C1497 0.960 . S
H1484 C1497 0.961 . S
H1485 C1497 0.959 . S
H1486 C1500 0.929 . S
H1487 C1501 0.931 . S
H1488 C1503 0.930 . S
C1489 H1477 0.930 . S
C1489 C1490 1.399 . S
C1489 C1494 1.399 . S
C1490 C1489 1.399 . S
C1490 C1491 1.376 . S
C1491 H1478 0.930 . S
C1491 C1490 1.376 . S
C1491 C1492 1.388 . S
C1492 H1479 0.930 . S
C1492 C1491 1.388 . S
C1492 C1493 1.390 . S
C1493 C1492 1.390 . S
C1493 C1494 1.394 . S
C1493 C1499 1.465 . S
C1494 C1489 1.399 . S
C1494 C1493 1.394 . S
C1494 C1495 1.516 . S
C1495 C1494 1.516 . S
C1495 C1496 1.502 . S
C1495 C1497 1.561 . S
C1495 C1498 1.526 . S
C1496 H1480 0.959 . S
C1496 H1481 0.959 . S
C1496 H1482 0.961 . S
C1496 C1495 1.502 . S
C1497 H1483 0.960 . S
C1497 H1484 0.961 . S
C1497 H1485 0.959 . S
C1497 C1495 1.561 . S
C1498 C1495 1.526 . S
C1498 C1499 1.396 . S
C1498 C1503 1.390 . S
C1499 C1493 1.465 . S
C1499 C1498 1.396 . S
C1499 C1500 1.399 . S
C1500 H1486 0.929 . S
C1500 C1499 1.399 . S
C1500 C1501 1.385 . S
C1501 H1487 0.931 . S
C1501 C1500 1.385 . S
C1501 C1502 1.389 . S
C1502 C1501 1.389 . S
C1502 C1503 1.387 . S
C1503 H1488 0.930 . S
C1503 C1498 1.390 . S
C1503 C1502 1.387 . S
H1504 C1516 0.930 . S
H1505 C1518 0.930 . S
H1506 C1519 0.930 . S
H1507 C1523 0.959 . S
H1508 C1523 0.959 . S
H1509 C1523 0.961 . S
H1510 C1524 0.960 . S
H1511 C1524 0.961 . S
H1512 C1524 0.959 . S
H1513 C1527 0.929 . S
H1514 C1528 0.931 . S
H1515 C1530 0.930 . S
C1516 H1504 0.930 . S
C1516 C1517 1.399 1_455 S
C1516 C1521 1.399 . S
C1517 C1516 1.399 1_655 S
C1517 C1518 1.376 . S
C1518 H1505 0.930 . S
C1518 C1517 1.376 . S
C1518 C1519 1.388 1_655 S
C1519 H1506 0.930 . S
C1519 C1518 1.388 1_455 S
C1519 C1520 1.390 . S
C1520 C1519 1.390 . S
C1520 C1521 1.394 . S
C1520 C1526 1.465 . S
C1521 C1516 1.399 . S
C1521 C1520 1.394 . S
C1521 C1522 1.516 . S
C1522 C1521 1.516 . S
C1522 C1523 1.502 . S
C1522 C1524 1.561 . S
C1522 C1525 1.526 . S
C1523 H1507 0.959 . S
C1523 H1508 0.959 . S
C1523 H1509 0.961 . S
C1523 C1522 1.502 . S
C1524 H1510 0.960 . S
C1524 H1511 0.961 . S
C1524 H1512 0.959 . S
C1524 C1522 1.561 . S
C1525 C1522 1.526 . S
C1525 C1526 1.396 . S
C1525 C1530 1.390 . S
C1526 C1520 1.465 . S
C1526 C1525 1.396 . S
C1526 C1527 1.399 . S
C1527 H1513 0.929 . S
C1527 C1526 1.399 . S
C1527 C1528 1.385 . S
C1528 H1514 0.931 . S
C1528 C1527 1.385 . S
C1528 C1529 1.389 . S
C1529 C1528 1.389 . S
C1529 C1530 1.387 . S
C1530 H1515 0.930 . S
C1530 C1525 1.390 . S
C1530 C1529 1.387 . S
H1531 C1543 0.930 . S
H1532 C1545 0.930 . S
H1533 C1546 0.930 . S
H1534 C1550 0.959 . S
H1535 C1550 0.959 . S
H1536 C1550 0.961 . S
H1537 C1551 0.960 . S
H1538 C1551 0.961 . S
H1539 C1551 0.959 . S
H1540 C1554 0.929 . S
H1541 C1555 0.931 . S
H1542 C1557 0.930 . S
C1543 H1531 0.930 . S
C1543 C1544 1.399 . S
C1543 C1548 1.399 . S
C1544 C1543 1.399 . S
C1544 C1545 1.376 . S
C1545 H1532 0.930 . S
C1545 C1544 1.376 . S
C1545 C1546 1.388 . S
C1546 H1533 0.930 . S
C1546 C1545 1.388 . S
C1546 C1547 1.390 . S
C1547 C1546 1.390 . S
C1547 C1548 1.394 . S
C1547 C1553 1.465 . S
C1548 C1543 1.399 . S
C1548 C1547 1.394 . S
C1548 C1549 1.516 . S
C1549 C1548 1.516 . S
C1549 C1550 1.502 . S
C1549 C1551 1.561 . S
C1549 C1552 1.526 . S
C1550 H1534 0.959 . S
C1550 H1535 0.959 . S
C1550 H1536 0.961 . S
C1550 C1549 1.502 . S
C1551 H1537 0.960 . S
C1551 H1538 0.961 . S
C1551 H1539 0.959 . S
C1551 C1549 1.561 . S
C1552 C1549 1.526 . S
C1552 C1553 1.396 . S
C1552 C1557 1.390 . S
C1553 C1547 1.465 . S
C1553 C1552 1.396 . S
C1553 C1554 1.399 . S
C1554 H1540 0.929 . S
C1554 C1553 1.399 . S
C1554 C1555 1.385 . S
C1555 H1541 0.931 . S
C1555 C1554 1.385 . S
C1555 C1556 1.389 . S
C1556 C1555 1.389 . S
C1556 C1557 1.387 . S
C1557 H1542 0.930 . S
C1557 C1552 1.390 . S
C1557 C1556 1.387 . S
H1558 C1570 0.930 . S
H1559 C1572 0.930 . S
H1560 C1573 0.930 . S
H1561 C1577 0.959 . S
H1562 C1577 0.959 . S
H1563 C1577 0.961 . S
H1564 C1578 0.960 . S
H1565 C1578 0.961 . S
H1566 C1578 0.959 . S
H1567 C1581 0.929 . S
H1568 C1582 0.931 . S
H1569 C1584 0.930 . S
C1570 H1558 0.930 . S
C1570 C1571 1.399 . S
C1570 C1575 1.399 . S
C1571 C1570 1.399 . S
C1571 C1572 1.376 . S
C1572 H1559 0.930 . S
C1572 C1571 1.376 . S
C1572 C1573 1.388 . S
C1573 H1560 0.930 . S
C1573 C1572 1.388 . S
C1573 C1574 1.390 . S
C1574 C1573 1.390 . S
C1574 C1575 1.394 . S
C1574 C1580 1.465 . S
C1575 C1570 1.399 . S
C1575 C1574 1.394 . S
C1575 C1576 1.516 . S
C1576 C1575 1.516 . S
C1576 C1577 1.502 . S
C1576 C1578 1.561 . S
C1576 C1579 1.526 . S
C1577 H1561 0.959 . S
C1577 H1562 0.959 . S
C1577 H1563 0.961 . S
C1577 C1576 1.502 . S
C1578 H1564 0.960 . S
C1578 H1565 0.961 . S
C1578 H1566 0.959 . S
C1578 C1576 1.561 . S
C1579 C1576 1.526 . S
C1579 C1580 1.396 . S
C1579 C1584 1.390 . S
C1580 C1574 1.465 . S
C1580 C1579 1.396 . S
C1580 C1581 1.399 . S
C1581 H1567 0.929 . S
C1581 C1580 1.399 . S
C1581 C1582 1.385 . S
C1582 H1568 0.931 . S
C1582 C1581 1.385 . S
C1582 C1583 1.389 . S
C1583 C1582 1.389 . S
C1583 C1584 1.387 . S
C1584 H1569 0.930 . S
C1584 C1579 1.390 . S
C1584 C1583 1.387 . S
H1585 C1597 0.930 1_556 S
H1586 C1599 0.930 . S
H1587 C1600 0.930 . S
H1588 C1604 0.959 . S
H1589 C1604 0.959 . S
H1590 C1604 0.961 . S
H1591 C1605 0.960 . S
H1592 C1605 0.961 . S
H1593 C1605 0.959 . S
H1594 C1608 0.929 . S
H1595 C1609 0.931 . S
H1596 C1611 0.930 . S
C1597 H1585 0.930 1_554 S
C1597 C1598 1.399 . S
C1597 C1602 1.399 . S
C1598 C1597 1.399 . S
C1598 C1599 1.376 . S
C1599 H1586 0.930 . S
C1599 C1598 1.376 . S
C1599 C1600 1.388 . S
C1600 H1587 0.930 . S
C1600 C1599 1.388 . S
C1600 C1601 1.390 . S
C1601 C1600 1.390 . S
C1601 C1602 1.394 . S
C1601 C1607 1.465 . S
C1602 C1597 1.399 . S
C1602 C1601 1.394 . S
C1602 C1603 1.516 . S
C1603 C1602 1.516 . S
C1603 C1604 1.502 . S
C1603 C1605 1.561 . S
C1603 C1606 1.526 . S
C1604 H1588 0.959 . S
C1604 H1589 0.959 . S
C1604 H1590 0.961 . S
C1604 C1603 1.502 . S
C1605 H1591 0.960 . S
C1605 H1592 0.961 . S
C1605 H1593 0.959 . S
C1605 C1603 1.561 . S
C1606 C1603 1.526 . S
C1606 C1607 1.396 . S
C1606 C1611 1.390 . S
C1607 C1601 1.465 . S
C1607 C1606 1.396 . S
C1607 C1608 1.399 . S
C1608 H1594 0.929 . S
C1608 C1607 1.399 . S
C1608 C1609 1.385 . S
C1609 H1595 0.931 . S
C1609 C1608 1.385 . S
C1609 C1610 1.389 . S
C1610 C1609 1.389 . S
C1610 C1611 1.387 . S
C1611 H1596 0.930 . S
C1611 C1606 1.390 . S
C1611 C1610 1.387 . S
H1612 C1624 0.930 . S
H1613 C1626 0.930 . S
H1614 C1627 0.930 . S
H1615 C1631 0.959 . S
H1616 C1631 0.959 . S
H1617 C1631 0.961 . S
H1618 C1632 0.960 1_455 S
H1619 C1632 0.961 . S
H1620 C1632 0.959 . S
H1621 C1635 0.929 . S
H1622 C1636 0.931 . S
H1623 C1638 0.930 . S
C1624 H1612 0.930 . S
C1624 C1625 1.399 . S
C1624 C1629 1.399 1_455 S
C1625 C1624 1.399 . S
C1625 C1626 1.376 1_455 S
C1626 H1613 0.930 . S
C1626 C1625 1.376 1_655 S
C1626 C1627 1.388 . S
C1627 H1614 0.930 . S
C1627 C1626 1.388 . S
C1627 C1628 1.390 . S
C1628 C1627 1.390 . S
C1628 C1629 1.394 . S
C1628 C1634 1.465 . S
C1629 C1624 1.399 1_655 S
C1629 C1628 1.394 . S
C1629 C1630 1.516 . S
C1630 C1629 1.516 . S
C1630 C1631 1.502 1_655 S
C1630 C1632 1.561 . S
C1630 C1633 1.526 . S
C1631 H1615 0.959 . S
C1631 H1616 0.959 . S
C1631 H1617 0.961 . S
C1631 C1630 1.502 1_455 S
C1632 H1618 0.960 1_655 S
C1632 H1619 0.961 . S
C1632 H1620 0.959 . S
C1632 C1630 1.561 . S
C1633 C1630 1.526 . S
C1633 C1634 1.396 . S
C1633 C1638 1.390 . S
C1634 C1628 1.465 . S
C1634 C1633 1.396 . S
C1634 C1635 1.399 . S
C1635 H1621 0.929 . S
C1635 C1634 1.399 . S
C1635 C1636 1.385 . S
C1636 H1622 0.931 . S
C1636 C1635 1.385 . S
C1636 C1637 1.389 . S
C1637 C1636 1.389 . S
C1637 C1638 1.387 . S
C1638 H1623 0.930 . S
C1638 C1633 1.390 . S
C1638 C1637 1.387 . S
H1639 C1651 0.930 . S
H1640 C1653 0.930 . S
H1641 C1654 0.930 . S
H1642 C1658 0.959 . S
H1643 C1658 0.959 . S
H1644 C1658 0.961 . S
H1645 C1659 0.960 . S
H1646 C1659 0.961 . S
H1647 C1659 0.959 . S
H1648 C1662 0.929 . S
H1649 C1663 0.931 . S
H1650 C1665 0.930 . S
C1651 H1639 0.930 . S
C1651 C1652 1.399 . S
C1651 C1656 1.399 . S
C1652 C1651 1.399 . S
C1652 C1653 1.376 . S
C1653 H1640 0.930 . S
C1653 C1652 1.376 . S
C1653 C1654 1.388 . S
C1654 H1641 0.930 . S
C1654 C1653 1.388 . S
C1654 C1655 1.390 . S
C1655 C1654 1.390 . S
C1655 C1656 1.394 . S
C1655 C1661 1.465 . S
C1656 C1651 1.399 . S
C1656 C1655 1.394 . S
C1656 C1657 1.516 . S
C1657 C1656 1.516 . S
C1657 C1658 1.502 . S
C1657 C1659 1.561 . S
C1657 C1660 1.526 . S
C1658 H1642 0.959 . S
C1658 H1643 0.959 . S
C1658 H1644 0.961 . S
C1658 C1657 1.502 . S
C1659 H1645 0.960 . S
C1659 H1646 0.961 . S
C1659 H1647 0.959 . S
C1659 C1657 1.561 . S
C1660 C1657 1.526 . S
C1660 C1661 1.396 . S
C1660 C1665 1.390 . S
C1661 C1655 1.465 . S
C1661 C1660 1.396 . S
C1661 C1662 1.399 . S
C1662 H1648 0.929 . S
C1662 C1661 1.399 . S
C1662 C1663 1.385 . S
C1663 H1649 0.931 . S
C1663 C1662 1.385 . S
C1663 C1664 1.389 . S
C1664 C1663 1.389 . S
C1664 C1665 1.387 . S
C1665 H1650 0.930 . S
C1665 C1660 1.390 . S
C1665 C1664 1.387 . S
H1666 C1678 0.930 . S
H1667 C1680 0.930 . S
H1668 C1681 0.930 . S
H1669 C1685 0.959 . S
H1670 C1685 0.959 . S
H1671 C1685 0.961 . S
H1672 C1686 0.960 . S
H1673 C1686 0.961 . S
H1674 C1686 0.959 . S
H1675 C1689 0.929 . S
H1676 C1690 0.931 . S
H1677 C1692 0.930 . S
C1678 H1666 0.930 . S
C1678 C1679 1.399 . S
C1678 C1683 1.399 . S
C1679 C1678 1.399 . S
C1679 C1680 1.376 . S
C1680 H1667 0.930 . S
C1680 C1679 1.376 . S
C1680 C1681 1.388 . S
C1681 H1668 0.930 . S
C1681 C1680 1.388 . S
C1681 C1682 1.390 . S
C1682 C1681 1.390 . S
C1682 C1683 1.394 . S
C1682 C1688 1.465 . S
C1683 C1678 1.399 . S
C1683 C1682 1.394 . S
C1683 C1684 1.516 . S
C1684 C1683 1.516 . S
C1684 C1685 1.502 . S
C1684 C1686 1.561 . S
C1684 C1687 1.526 . S
C1685 H1669 0.959 . S
C1685 H1670 0.959 . S
C1685 H1671 0.961 . S
C1685 C1684 1.502 . S
C1686 H1672 0.960 . S
C1686 H1673 0.961 . S
C1686 H1674 0.959 . S
C1686 C1684 1.561 . S
C1687 C1684 1.526 . S
C1687 C1688 1.396 . S
C1687 C1692 1.390 . S
C1688 C1682 1.465 . S
C1688 C1687 1.396 . S
C1688 C1689 1.399 . S
C1689 H1675 0.929 . S
C1689 C1688 1.399 . S
C1689 C1690 1.385 . S
C1690 H1676 0.931 . S
C1690 C1689 1.385 . S
C1690 C1691 1.389 . S
C1691 C1690 1.389 . S
C1691 C1692 1.387 . S
C1692 H1677 0.930 . S
C1692 C1687 1.390 . S
C1692 C1691 1.387 . S
H1693 C1705 0.930 . S
H1694 C1707 0.930 . S
H1695 C1708 0.930 . S
H1696 C1712 0.959 . S
H1697 C1712 0.959 . S
H1698 C1712 0.961 . S
H1699 C1713 0.960 . S
H1700 C1713 0.961 . S
H1701 C1713 0.959 . S
H1702 C1716 0.929 . S
H1703 C1717 0.931 . S
H1704 C1719 0.930 . S
C1705 H1693 0.930 . S
C1705 C1706 1.399 . S
C1705 C1710 1.399 . S
C1706 C1705 1.399 . S
C1706 C1707 1.376 1_556 S
C1707 H1694 0.930 . S
C1707 C1706 1.376 1_554 S
C1707 C1708 1.388 1_554 S
C1708 H1695 0.930 . S
C1708 C1707 1.388 1_556 S
C1708 C1709 1.390 . S
C1709 C1708 1.390 . S
C1709 C1710 1.394 . S
C1709 C1715 1.465 . S
C1710 C1705 1.399 . S
C1710 C1709 1.394 . S
C1710 C1711 1.516 . S
C1711 C1710 1.516 . S
C1711 C1712 1.502 . S
C1711 C1713 1.561 . S
C1711 C1714 1.526 . S
C1712 H1696 0.959 . S
C1712 H1697 0.959 . S
C1712 H1698 0.961 . S
C1712 C1711 1.502 . S
C1713 H1699 0.960 . S
C1713 H1700 0.961 . S
C1713 H1701 0.959 . S
C1713 C1711 1.561 . S
C1714 C1711 1.526 . S
C1714 C1715 1.396 . S
C1714 C1719 1.390 . S
C1715 C1709 1.465 . S
C1715 C1714 1.396 . S
C1715 C1716 1.399 . S
C1716 H1702 0.929 . S
C1716 C1715 1.399 . S
C1716 C1717 1.385 . S
C1717 H1703 0.931 . S
C1717 C1716 1.385 . S
C1717 C1718 1.389 . S
C1718 C1717 1.389 . S
C1718 C1719 1.387 . S
C1719 H1704 0.930 . S
C1719 C1714 1.390 . S
C1719 C1718 1.387 . S
H1720 C1732 0.930 . S
H1721 C1734 0.930 . S
H1722 C1735 0.930 . S
H1723 C1739 0.959 . S
H1724 C1739 0.959 . S
H1725 C1739 0.961 . S
H1726 C1740 0.960 . S
H1727 C1740 0.961 . S
H1728 C1740 0.959 . S
H1729 C1743 0.929 . S
H1730 C1744 0.931 . S
H1731 C1746 0.930 . S
C1732 H1720 0.930 . S
C1732 C1733 1.399 . S
C1732 C1737 1.399 . S
C1733 C1732 1.399 . S
C1733 C1734 1.376 . S
C1734 H1721 0.930 . S
C1734 C1733 1.376 . S
C1734 C1735 1.388 . S
C1735 H1722 0.930 . S
C1735 C1734 1.388 . S
C1735 C1736 1.390 . S
C1736 C1735 1.390 . S
C1736 C1737 1.394 . S
C1736 C1742 1.465 . S
C1737 C1732 1.399 . S
C1737 C1736 1.394 . S
C1737 C1738 1.516 . S
C1738 C1737 1.516 . S
C1738 C1739 1.502 . S
C1738 C1740 1.561 . S
C1738 C1741 1.526 . S
C1739 H1723 0.959 . S
C1739 H1724 0.959 . S
C1739 H1725 0.961 . S
C1739 C1738 1.502 . S
C1740 H1726 0.960 . S
C1740 H1727 0.961 . S
C1740 H1728 0.959 . S
C1740 C1738 1.561 . S
C1741 C1738 1.526 . S
C1741 C1742 1.396 . S
C1741 C1746 1.390 . S
C1742 C1736 1.465 . S
C1742 C1741 1.396 . S
C1742 C1743 1.399 . S
C1743 H1729 0.929 . S
C1743 C1742 1.399 . S
C1743 C1744 1.385 . S
C1744 H1730 0.931 . S
C1744 C1743 1.385 . S
C1744 C1745 1.389 . S
C1745 C1744 1.389 . S
C1745 C1746 1.387 . S
C1746 H1731 0.930 . S
C1746 C1741 1.390 . S
C1746 C1745 1.387 . S
H1747 C1759 0.930 . S
H1748 C1761 0.930 . S
H1749 C1762 0.930 . S
H1750 C1766 0.959 . S
H1751 C1766 0.959 . S
H1752 C1766 0.961 . S
H1753 C1767 0.960 . S
H1754 C1767 0.961 . S
H1755 C1767 0.959 . S
H1756 C1770 0.929 . S
H1757 C1771 0.931 . S
H1758 C1773 0.930 . S
C1759 H1747 0.930 . S
C1759 C1760 1.399 . S
C1759 C1764 1.399 . S
C1760 C1759 1.399 . S
C1760 C1761 1.376 . S
C1761 H1748 0.930 . S
C1761 C1760 1.376 . S
C1761 C1762 1.388 . S
C1762 H1749 0.930 . S
C1762 C1761 1.388 . S
C1762 C1763 1.390 . S
C1763 C1762 1.390 . S
C1763 C1764 1.394 . S
C1763 C1769 1.465 . S
C1764 C1759 1.399 . S
C1764 C1763 1.394 . S
C1764 C1765 1.516 . S
C1765 C1764 1.516 . S
C1765 C1766 1.502 . S
C1765 C1767 1.561 . S
C1765 C1768 1.526 . S
C1766 H1750 0.959 . S
C1766 H1751 0.959 . S
C1766 H1752 0.961 . S
C1766 C1765 1.502 . S
C1767 H1753 0.960 . S
C1767 H1754 0.961 . S
C1767 H1755 0.959 . S
C1767 C1765 1.561 . S
C1768 C1765 1.526 . S
C1768 C1769 1.396 . S
C1768 C1773 1.390 . S
C1769 C1763 1.465 . S
C1769 C1768 1.396 . S
C1769 C1770 1.399 . S
C1770 H1756 0.929 . S
C1770 C1769 1.399 . S
C1770 C1771 1.385 . S
C1771 H1757 0.931 . S
C1771 C1770 1.385 . S
C1771 C1772 1.389 . S
C1772 C1771 1.389 . S
C1772 C1773 1.387 . S
C1773 H1758 0.930 . S
C1773 C1768 1.390 . S
C1773 C1772 1.387 . S
H1774 C1786 0.930 . S
H1775 C1788 0.930 . S
H1776 C1789 0.930 . S
H1777 C1793 0.959 . S
H1778 C1793 0.959 . S
H1779 C1793 0.961 . S
H1780 C1794 0.960 . S
H1781 C1794 0.961 . S
H1782 C1794 0.959 . S
H1783 C1797 0.929 . S
H1784 C1798 0.931 . S
H1785 C1800 0.930 . S
C1786 H1774 0.930 . S
C1786 C1787 1.399 . S
C1786 C1791 1.399 . S
C1787 C1786 1.399 . S
C1787 C1788 1.376 . S
C1788 H1775 0.930 . S
C1788 C1787 1.376 . S
C1788 C1789 1.388 . S
C1789 H1776 0.930 . S
C1789 C1788 1.388 . S
C1789 C1790 1.390 . S
C1790 C1789 1.390 . S
C1790 C1791 1.394 . S
C1790 C1796 1.465 . S
C1791 C1786 1.399 . S
C1791 C1790 1.394 . S
C1791 C1792 1.516 . S
C1792 C1791 1.516 . S
C1792 C1793 1.502 . S
C1792 C1794 1.561 . S
C1792 C1795 1.526 . S
C1793 H1777 0.959 . S
C1793 H1778 0.959 . S
C1793 H1779 0.961 . S
C1793 C1792 1.502 . S
C1794 H1780 0.960 . S
C1794 H1781 0.961 . S
C1794 H1782 0.959 . S
C1794 C1792 1.561 . S
C1795 C1792 1.526 . S
C1795 C1796 1.396 . S
C1795 C1800 1.390 . S
C1796 C1790 1.465 . S
C1796 C1795 1.396 . S
C1796 C1797 1.399 . S
C1797 H1783 0.929 . S
C1797 C1796 1.399 . S
C1797 C1798 1.385 . S
C1798 H1784 0.931 . S
C1798 C1797 1.385 . S
C1798 C1799 1.389 . S
C1799 C1798 1.389 . S
C1799 C1800 1.387 . S
C1800 H1785 0.930 . S
C1800 C1795 1.390 . S
C1800 C1799 1.387 . S
H1801 C1813 0.930 . S
H1802 C1815 0.930 . S
H1803 C1816 0.930 . S
H1804 C1820 0.959 . S
H1805 C1820 0.959 . S
H1806 C1820 0.961 . S
H1807 C1821 0.960 . S
H1808 C1821 0.961 1_655 S
H1809 C1821 0.959 . S
H1810 C1824 0.929 . S
H1811 C1825 0.931 . S
H1812 C1827 0.930 . S
C1813 H1801 0.930 . S
C1813 C1814 1.399 . S
C1813 C1818 1.399 . S
C1814 C1813 1.399 . S
C1814 C1815 1.376 . S
C1815 H1802 0.930 . S
C1815 C1814 1.376 . S
C1815 C1816 1.388 . S
C1816 H1803 0.930 . S
C1816 C1815 1.388 . S
C1816 C1817 1.390 . S
C1817 C1816 1.390 . S
C1817 C1818 1.394 . S
C1817 C1823 1.465 1_454 S
C1818 C1813 1.399 . S
C1818 C1817 1.394 . S
C1818 C1819 1.516 1_455 S
C1819 C1818 1.516 1_655 S
C1819 C1820 1.502 . S
C1819 C1821 1.561 1_654 S
C1819 C1822 1.526 1_554 S
C1820 H1804 0.959 . S
C1820 H1805 0.959 . S
C1820 H1806 0.961 . S
C1820 C1819 1.502 . S
C1821 H1807 0.960 . S
C1821 H1808 0.961 1_455 S
C1821 H1809 0.959 . S
C1821 C1819 1.561 1_456 S
C1822 C1819 1.526 1_556 S
C1822 C1823 1.396 . S
C1822 C1827 1.390 . S
C1823 C1817 1.465 1_656 S
C1823 C1822 1.396 . S
C1823 C1824 1.399 . S
C1824 H1810 0.929 . S
C1824 C1823 1.399 . S
C1824 C1825 1.385 . S
C1825 H1811 0.931 . S
C1825 C1824 1.385 . S
C1825 C1826 1.389 . S
C1826 C1825 1.389 . S
C1826 C1827 1.387 . S
C1827 H1812 0.930 . S
C1827 C1822 1.390 . S
C1827 C1826 1.387 . S
H1828 C1840 0.930 . S
H1829 C1842 0.930 . S
H1830 C1843 0.930 . S
H1831 C1847 0.959 . S
H1832 C1847 0.959 . S
H1833 C1847 0.961 . S
H1834 C1848 0.960 . S
H1835 C1848 0.961 . S
H1836 C1848 0.959 . S
H1837 C1851 0.929 . S
H1838 C1852 0.931 . S
H1839 C1854 0.930 . S
C1840 H1828 0.930 . S
C1840 C1841 1.399 . S
C1840 C1845 1.399 . S
C1841 C1840 1.399 . S
C1841 C1842 1.376 . S
C1842 H1829 0.930 . S
C1842 C1841 1.376 . S
C1842 C1843 1.388 . S
C1843 H1830 0.930 . S
C1843 C1842 1.388 . S
C1843 C1844 1.390 . S
C1844 C1843 1.390 . S
C1844 C1845 1.394 . S
C1844 C1850 1.465 . S
C1845 C1840 1.399 . S
C1845 C1844 1.394 . S
C1845 C1846 1.516 . S
C1846 C1845 1.516 . S
C1846 C1847 1.502 . S
C1846 C1848 1.561 . S
C1846 C1849 1.526 . S
C1847 H1831 0.959 . S
C1847 H1832 0.959 . S
C1847 H1833 0.961 . S
C1847 C1846 1.502 . S
C1848 H1834 0.960 . S
C1848 H1835 0.961 . S
C1848 H1836 0.959 . S
C1848 C1846 1.561 . S
C1849 C1846 1.526 . S
C1849 C1850 1.396 . S
C1849 C1854 1.390 . S
C1850 C1844 1.465 . S
C1850 C1849 1.396 . S
C1850 C1851 1.399 . S
C1851 H1837 0.929 . S
C1851 C1850 1.399 . S
C1851 C1852 1.385 . S
C1852 H1838 0.931 . S
C1852 C1851 1.385 . S
C1852 C1853 1.389 . S
C1853 C1852 1.389 . S
C1853 C1854 1.387 . S
C1854 H1839 0.930 . S
C1854 C1849 1.390 . S
C1854 C1853 1.387 . S
H1855 C1867 0.930 . S
H1856 C1869 0.930 . S
H1857 C1870 0.930 . S
H1858 C1874 0.959 . S
H1859 C1874 0.959 . S
H1860 C1874 0.961 . S
H1861 C1875 0.960 . S
H1862 C1875 0.961 . S
H1863 C1875 0.959 . S
H1864 C1878 0.929 . S
H1865 C1879 0.931 . S
H1866 C1881 0.930 . S
C1867 H1855 0.930 . S
C1867 C1868 1.399 . S
C1867 C1872 1.399 . S
C1868 C1867 1.399 . S
C1868 C1869 1.376 . S
C1869 H1856 0.930 . S
C1869 C1868 1.376 . S
C1869 C1870 1.388 . S
C1870 H1857 0.930 . S
C1870 C1869 1.388 . S
C1870 C1871 1.390 . S
C1871 C1870 1.390 . S
C1871 C1872 1.394 . S
C1871 C1877 1.465 . S
C1872 C1867 1.399 . S
C1872 C1871 1.394 . S
C1872 C1873 1.516 . S
C1873 C1872 1.516 . S
C1873 C1874 1.502 . S
C1873 C1875 1.561 . S
C1873 C1876 1.526 . S
C1874 H1858 0.959 . S
C1874 H1859 0.959 . S
C1874 H1860 0.961 . S
C1874 C1873 1.502 . S
C1875 H1861 0.960 . S
C1875 H1862 0.961 . S
C1875 H1863 0.959 . S
C1875 C1873 1.561 . S
C1876 C1873 1.526 . S
C1876 C1877 1.396 . S
C1876 C1881 1.390 . S
C1877 C1871 1.465 . S
C1877 C1876 1.396 . S
C1877 C1878 1.399 . S
C1878 H1864 0.929 . S
C1878 C1877 1.399 . S
C1878 C1879 1.385 . S
C1879 H1865 0.931 . S
C1879 C1878 1.385 . S
C1879 C1880 1.389 . S
C1880 C1879 1.389 . S
C1880 C1881 1.387 . S
C1881 H1866 0.930 . S
C1881 C1876 1.390 . S
C1881 C1880 1.387 . S
H1882 C1894 0.930 . S
H1883 C1896 0.930 . S
H1884 C1897 0.930 . S
H1885 C1901 0.959 . S
H1886 C1901 0.959 . S
H1887 C1901 0.961 . S
H1888 C1902 0.947 1_455 S
H1889 C1902 0.961 1_554 S
H1890 C1902 0.959 . S
H1891 C1905 0.936 . S
H1892 C1906 0.931 . S
H1893 C1908 0.930 . S
C1894 H1882 0.930 . S
C1894 C1895 1.399 . S
C1894 C1899 1.399 . S
C1895 C1894 1.399 . S
C1895 C1896 1.376 1_545 S
C1896 H1883 0.930 . S
C1896 C1895 1.376 1_565 S
C1896 C1897 1.388 . S
C1897 H1884 0.930 . S
C1897 C1896 1.388 . S
C1897 C1898 1.390 . S
C1898 C1897 1.390 . S
C1898 C1899 1.394 1_565 S
C1898 C1904 1.465 1_456 S
C1899 C1894 1.399 . S
C1899 C1898 1.394 1_545 S
C1899 C1900 1.516 1_556 S
C1900 C1899 1.516 1_554 S
C1900 C1901 1.502 . S
C1900 C1902 1.561 1_454 S
C1900 C1903 1.526 1_455 S
C1901 H1885 0.959 . S
C1901 H1886 0.959 . S
C1901 H1887 0.961 . S
C1901 C1900 1.502 . S
C1902 H1888 0.947 1_655 S
C1902 H1889 0.961 1_556 S
C1902 H1890 0.959 . S
C1902 C1900 1.561 1_656 S
C1903 C1900 1.526 1_655 S
C1903 C1904 1.396 1_545 S
C1903 C1908 1.390 . S
C1904 C1898 1.465 1_654 S
C1904 C1903 1.396 1_565 S
C1904 C1905 1.399 . S
C1905 H1891 0.936 . S
C1905 C1904 1.399 . S
C1905 C1906 1.385 . S
C1906 H1892 0.931 . S
C1906 C1905 1.385 . S
C1906 C1907 1.389 . S
C1907 C1906 1.389 . S
C1907 C1908 1.387 1_565 S
C1908 H1893 0.930 . S
C1908 C1903 1.390 . S
C1908 C1907 1.387 1_545 S
H1909 C1921 0.930 . S
H1910 C1923 0.930 . S
H1911 C1924 0.930 . S
H1912 C1928 0.959 . S
H1913 C1928 0.959 . S
H1914 C1928 0.961 . S
H1915 C1929 0.960 . S
H1916 C1929 0.961 . S
H1917 C1929 0.959 . S
H1918 C1932 0.929 . S
H1919 C1933 0.931 . S
H1920 C1935 0.930 . S
C1921 H1909 0.930 . S
C1921 C1922 1.399 . S
C1921 C1926 1.399 . S
C1922 C1921 1.399 . S
C1922 C1923 1.376 1_545 S
C1923 H1910 0.930 . S
C1923 C1922 1.376 1_565 S
C1923 C1924 1.388 . S
C1924 H1911 0.930 . S
C1924 C1923 1.388 . S
C1924 C1925 1.390 . S
C1925 C1924 1.390 . S
C1925 C1926 1.394 1_565 S
C1925 C1931 1.465 . S
C1926 C1921 1.399 . S
C1926 C1925 1.394 1_545 S
C1926 C1927 1.516 . S
C1927 C1926 1.516 . S
C1927 C1928 1.502 . S
C1927 C1929 1.561 . S
C1927 C1930 1.526 . S
C1928 H1912 0.959 . S
C1928 H1913 0.959 . S
C1928 H1914 0.961 . S
C1928 C1927 1.502 . S
C1929 H1915 0.960 . S
C1929 H1916 0.961 . S
C1929 H1917 0.959 . S
C1929 C1927 1.561 . S
C1930 C1927 1.526 . S
C1930 C1931 1.396 1_545 S
C1930 C1935 1.390 . S
C1931 C1925 1.465 . S
C1931 C1930 1.396 1_565 S
C1931 C1932 1.399 . S
C1932 H1918 0.929 . S
C1932 C1931 1.399 . S
C1932 C1933 1.385 . S
C1933 H1919 0.931 . S
C1933 C1932 1.385 . S
C1933 C1934 1.389 . S
C1934 C1933 1.389 . S
C1934 C1935 1.387 1_565 S
C1935 H1920 0.930 . S
C1935 C1930 1.390 . S
C1935 C1934 1.387 1_545 S
C653 C13 3.144 . S
C665 C413 3.125 . S
C680 C53 3.130 . S
C692 C453 3.143 . S
C707 C93 3.124 . S
C719 C333 3.145 . S
C734 C133 3.147 . S
C746 C373 3.123 . S
C761 C184 3.148 . S
C773 C584 3.132 . S
C788 C224 3.150 . S
C800 C624 3.123 . S
C815 C264 3.123 . S
C827 C504 3.138 . S
C842 C304 3.149 . S
C854 C544 3.131 . S
C869 C362 3.678 . S
C881 C24 3.629 1_556 S
C896 C402 3.692 . S
C908 C64 3.649 . S
C923 C442 3.678 . S
C935 C104 3.627 . S
C950 C322 3.688 . S
C962 C144 3.636 . S
C977 C173 3.627 1_554 S
C989 C543 3.681 . S
C1004 C583 3.700 . S
C1016 C213 3.650 . S
C1031 C623 3.679 . S
C1043 C253 3.631 . S
C1058 C503 3.704 . S
C1070 C293 3.657 . S
C1085 C42 3.705 . S
C1097 C344 3.661 . S
C1112 C384 3.661 . S
C1124 C82 3.705 . S
C1139 C424 3.648 1_556 S
C1151 C122 3.692 . S
C1166 C464 3.661 . S
C1178 C2 3.705 . S
C1193 C493 3.661 . S
C1205 C223 3.704 . S
C1220 C263 3.688 . S
C1232 C533 3.634 . S
C1247 C303 3.690 . S
C1259 C573 3.649 1_554 S
C1274 C613 3.648 . S
C1286 C183 3.700 . S
C1301 C26 0.565 . S
C1313 C602 0.189 . S
C1328 C66 0.527 . S
C1340 C162 0.203 . S
C1355 C522 0.402 . S
C1367 C106 0.377 . S
C1382 C242 0.389 . S
C1394 C146 0.398 . S
C1409 C177 0.524 . S
C1421 C463 0.351 . S
C1436 C217 0.279 . S
C1448 C23 0.392 . S
C1463 C383 0.404 . S
C1475 C257 0.281 . S
C1490 C103 0.216 . S
C1502 C297 0.439 . S
C1517 C346 0.557 . S
C1529 C282 0.162 . S
C1544 C386 0.311 . S
C1556 C482 0.426 . S
C1571 C202 0.165 . S
C1583 C426 0.550 . S
C1598 C562 0.254 . S
C1610 C466 0.533 . S
C1625 C497 0.523 . S
C1637 C143 0.352 . S
C1652 C537 0.566 . S
C1664 C343 0.270 . S
C1679 C577 0.457 . S
C1691 C63 0.201 . S
C1706 C423 0.230 . S
C1718 C617 0.425 . S
C1733 C17 1.445 . S
C1745 C506 1.515 . S
C1760 C57 1.436 . S
C1772 C226 1.529 . S
C1787 C97 1.528 . S
C1799 C586 1.454 . S
C1814 C306 1.530 . S
C1826 C137 1.437 . S
C1841 C186 1.439 . S
C1853 C337 1.524 . S
C1868 C417 1.441 . S
C1880 C266 1.534 . S
C1895 C377 1.510 . S
C1907 C546 1.450 . S
C1922 C626 1.529 . S
C1934 C457 1.437 . S
