# Generated by pormake.
# Topology snw, (6)-cn, num edge types: 1
# Building blocks:
#     Node 0, Type 0, BuildingBlock: IZENUY_clean_sbu_0, # of connection points: 6
#     Node 1, Type 0, BuildingBlock: IZENUY_clean_sbu_0, # of connection points: 6
#     Node 2, Type 0, BuildingBlock: IZENUY_clean_sbu_0, # of connection points: 6
#     Node 3, Type 0, BuildingBlock: IZENUY_clean_sbu_0, # of connection points: 6
#     Node 4, Type 0, BuildingBlock: IZENUY_clean_sbu_0, # of connection points: 6
#     Node 5, Type 0, BuildingBlock: IZENUY_clean_sbu_0, # of connection points: 6
#     Node 6, Type 0, BuildingBlock: IZENUY_clean_sbu_0, # of connection points: 6
#     Node 7, Type 0, BuildingBlock: IZENUY_clean_sbu_0, # of connection points: 6
#     Edge 8, Type (0, 0), BuildingBlock: TEMPAE_clean_linker_10, # of connection points: 2
#     Edge 9, Type (0, 0), BuildingBlock: TEMPAE_clean_linker_10, # of connection points: 2
#     Edge 10, Type (0, 0), BuildingBlock: TEMPAE_clean_linker_10, # of connection points: 2
#     Edge 11, Type (0, 0), BuildingBlock: TEMPAE_clean_linker_10, # of connection points: 2
#     Edge 12, Type (0, 0), BuildingBlock: TEMPAE_clean_linker_10, # of connection points: 2
#     Edge 13, Type (0, 0), BuildingBlock: TEMPAE_clean_linker_10, # of connection points: 2
#     Edge 14, Type (0, 0), BuildingBlock: TEMPAE_clean_linker_10, # of connection points: 2
#     Edge 15, Type (0, 0), BuildingBlock: TEMPAE_clean_linker_10, # of connection points: 2
#     Edge 16, Type (0, 0), BuildingBlock: TEMPAE_clean_linker_10, # of connection points: 2
#     Edge 17, Type (0, 0), BuildingBlock: TEMPAE_clean_linker_10, # of connection points: 2
#     Edge 18, Type (0, 0), BuildingBlock: TEMPAE_clean_linker_10, # of connection points: 2
#     Edge 19, Type (0, 0), BuildingBlock: TEMPAE_clean_linker_10, # of connection points: 2
#     Edge 20, Type (0, 0), BuildingBlock: TEMPAE_clean_linker_10, # of connection points: 2
#     Edge 21, Type (0, 0), BuildingBlock: TEMPAE_clean_linker_10, # of connection points: 2
#     Edge 22, Type (0, 0), BuildingBlock: TEMPAE_clean_linker_10, # of connection points: 2
#     Edge 23, Type (0, 0), BuildingBlock: TEMPAE_clean_linker_10, # of connection points: 2
#     Edge 24, Type (0, 0), BuildingBlock: TEMPAE_clean_linker_10, # of connection points: 2
#     Edge 25, Type (0, 0), BuildingBlock: TEMPAE_clean_linker_10, # of connection points: 2
#     Edge 26, Type (0, 0), BuildingBlock: TEMPAE_clean_linker_10, # of connection points: 2
#     Edge 27, Type (0, 0), BuildingBlock: TEMPAE_clean_linker_10, # of connection points: 2
#     Edge 28, Type (0, 0), BuildingBlock: TEMPAE_clean_linker_10, # of connection points: 2
#     Edge 29, Type (0, 0), BuildingBlock: TEMPAE_clean_linker_10, # of connection points: 2
#     Edge 30, Type (0, 0), BuildingBlock: TEMPAE_clean_linker_10, # of connection points: 2
#     Edge 31, Type (0, 0), BuildingBlock: TEMPAE_clean_linker_10, # of connection points: 2
# Relax obj value: 0.015
# Max RMSD: 0.047
# Mean RMSD: 0.047
data_MOF--net-snw--node1-IZENUY_clean_sbu_0--edge1-TEMPAE_clean_linker_10
_symmetry_space_group_name_H-M    P1
_symmetry_Int_Tables_number       1
_symmetry_cell_setting            triclinic
loop_
_symmetry_equiv_pos_as_xyz
'x, y, z'
_cell_length_a     20.638328
_cell_length_b     20.630241
_cell_length_c     75.268152
_cell_angle_alpha  89.995399
_cell_angle_beta   90.019083
_cell_angle_gamma 89.932732
loop_
_atom_site_label
_atom_site_type_symbol
_atom_site_fract_x
_atom_site_fract_y
_atom_site_fract_z
_atom_type_partial_charge
Fe0 Fe 0.01129 0.26101 0.12305 0.0
Fe1 Fe 0.08806 0.26187 0.08815 0.0
O2 O 0.01273 0.26011 0.0995 0.0
Fe3 Fe 0.93871 0.25786 0.08741 0.0
O4 O 0.91078 0.33329 0.09734 0.0
O5 O 0.93558 0.30672 0.1248 0.0
O6 O 0.05276 0.33813 0.12385 0.0
C7 C 0.10674 0.34951 0.11671 0.0
C8 C 0.91638 0.17249 0.11628 0.0
O9 O 0.129 0.31253 0.10474 0.0
C10 C 0.01233 0.17388 0.0678 0.0
O11 O 0.08676 0.21549 0.12584 0.0
O12 O 0.1155 0.18766 0.09878 0.0
O13 O 0.89547 0.20898 0.104 0.0
O14 O 0.96973 0.18399 0.12377 0.0
C15 C 0.0167 0.34351 0.06716 0.0
O16 O 0.06063 0.21121 0.06953 0.0
O17 O 0.96093 0.18271 0.07655 0.0
C18 C 0.11721 0.17861 0.11535 0.0
O19 O 0.06639 0.3364 0.07671 0.0
O20 O 0.96876 0.3057 0.06857 0.0
C21 C 0.9072 0.34344 0.11384 0.0
Fe22 Fe 0.01185 0.83216 0.33762 0.0
Fe23 Fe 0.0134 0.75755 0.37284 0.0
O24 O 0.01343 0.75769 0.34935 0.0
Fe25 Fe 0.01505 0.68331 0.33757 0.0
O26 O 0.09095 0.70464 0.32688 0.0
O27 O 0.05989 0.80222 0.31873 0.0
O28 O 0.08747 0.85827 0.34765 0.0
C29 C 0.0976 0.86097 0.36417 0.0
C30 C 0.92877 0.76108 0.31729 0.0
O31 O 0.06043 0.8324 0.37501 0.0
C32 C 0.92909 0.65437 0.36403 0.0
O33 O 0.96374 0.87572 0.35439 0.0
O34 O 0.93703 0.80047 0.37366 0.0
O35 O 0.96733 0.71344 0.31863 0.0
O36 O 0.9361 0.81088 0.32682 0.0
C37 C 0.0995 0.66009 0.36663 0.0
O38 O 0.96632 0.68268 0.37491 0.0
O39 O 0.93929 0.65725 0.34751 0.0
C40 C 0.92721 0.85503 0.36666 0.0
O41 O 0.0898 0.71463 0.37364 0.0
O42 O 0.06287 0.6395 0.35437 0.0
C43 C 0.09849 0.75459 0.31741 0.0
Fe44 Fe 0.58902 0.75658 0.5878 0.0
Fe45 Fe 0.44021 0.75901 0.58781 0.0
O46 O 0.51463 0.75772 0.59956 0.0
Fe47 Fe 0.51465 0.75758 0.62305 0.0
O48 O 0.5893 0.80493 0.6252 0.0
O49 O 0.61476 0.83232 0.59784 0.0
O50 O 0.55874 0.80453 0.56891 0.0
C51 C 0.51083 0.84277 0.56759 0.0
C52 C 0.6124 0.67181 0.61681 0.0
O53 O 0.46107 0.835 0.5771 0.0
C54 C 0.41175 0.67289 0.61428 0.0
O55 O 0.56811 0.68075 0.57701 0.0
O56 O 0.47044 0.71136 0.56886 0.0
O57 O 0.55786 0.68135 0.62382 0.0
O58 O 0.6329 0.70859 0.60456 0.0
C59 C 0.41688 0.8434 0.61688 0.0
O60 O 0.41453 0.68311 0.59776 0.0
O61 O 0.44001 0.71019 0.62515 0.0
C62 C 0.51834 0.67314 0.56749 0.0
O63 O 0.39635 0.80673 0.60461 0.0
O64 O 0.47144 0.8338 0.62388 0.0
C65 C 0.61758 0.84233 0.61436 0.0
Fe66 Fe 0.51384 0.33423 0.83789 0.0
Fe67 Fe 0.51402 0.26038 0.87322 0.0
O68 O 0.51474 0.25998 0.84973 0.0
Fe69 Fe 0.51629 0.18535 0.83807 0.0
O70 O 0.59241 0.2061 0.82742 0.0
O71 O 0.56206 0.30369 0.8191 0.0
O72 O 0.58936 0.36012 0.84802 0.0
C73 C 0.5989 0.36328 0.86456 0.0
C74 C 0.43069 0.26317 0.81758 0.0
O75 O 0.56123 0.33516 0.87536 0.0
C76 C 0.42967 0.15721 0.86445 0.0
O77 O 0.46558 0.37837 0.85451 0.0
O78 O 0.43774 0.30353 0.87377 0.0
O79 O 0.4689 0.21528 0.81904 0.0
O80 O 0.43824 0.31315 0.82702 0.0
C81 C 0.60009 0.16259 0.86734 0.0
O82 O 0.4667 0.18569 0.87535 0.0
O83 O 0.44027 0.15971 0.84795 0.0
C84 C 0.42839 0.35799 0.86667 0.0
O85 O 0.59022 0.21725 0.87426 0.0
O86 O 0.56379 0.14182 0.85501 0.0
C87 C 0.60026 0.25573 0.81786 0.0
Fe88 Fe 0.08953 0.76059 0.94839 0.0
Fe89 Fe 0.94042 0.75925 0.94885 0.0
O90 O 0.01458 0.76003 0.93688 0.0
Fe91 Fe 0.01366 0.76063 0.91338 0.0
O92 O 0.0881 0.7131 0.91087 0.0
O93 O 0.11498 0.68534 0.93808 0.0
O94 O 0.06024 0.71125 0.96708 0.0
C95 C 0.01175 0.67394 0.96852 0.0
C96 C 0.11184 0.8461 0.91943 0.0
O97 O 0.96085 0.68331 0.95957 0.0
C98 C 0.91176 0.84589 0.92252 0.0
O99 O 0.06909 0.8361 0.95952 0.0
O100 O 0.97147 0.80598 0.9678 0.0
O101 O 0.05708 0.83671 0.91252 0.0
O102 O 0.1326 0.80936 0.93167 0.0
C103 C 0.9158 0.67526 0.91972 0.0
O104 O 0.91507 0.83552 0.93902 0.0
O105 O 0.93908 0.80828 0.91156 0.0
C106 C 0.01956 0.84372 0.96911 0.0
O107 O 0.89577 0.71199 0.93206 0.0
O108 O 0.97022 0.6846 0.91262 0.0
C109 C 0.11701 0.6756 0.92156 0.0
Fe110 Fe 0.51105 0.68496 0.19774 0.0
Fe111 Fe 0.51566 0.83401 0.19813 0.0
O112 O 0.51283 0.75991 0.18618 0.0
Fe113 Fe 0.51174 0.76072 0.16265 0.0
O114 O 0.43473 0.71911 0.16204 0.0
O115 O 0.46109 0.64313 0.18114 0.0
O116 O 0.43634 0.70685 0.20892 0.0
C117 C 0.42932 0.75658 0.21848 0.0
C118 C 0.59468 0.65549 0.1707 0.0
O119 O 0.46761 0.8043 0.21705 0.0
C120 C 0.60033 0.85593 0.16911 0.0
O121 O 0.56056 0.71332 0.21653 0.0
O122 O 0.59125 0.8113 0.20876 0.0
O123 O 0.55754 0.68526 0.1601 0.0
O124 O 0.58562 0.65758 0.18727 0.0
C125 C 0.42968 0.86536 0.1718 0.0
O126 O 0.56425 0.87698 0.18145 0.0
O127 O 0.58865 0.80245 0.16172 0.0
C128 C 0.59886 0.76098 0.21805 0.0
O129 O 0.44029 0.86224 0.18829 0.0
O130 O 0.46575 0.83631 0.1608 0.0
C131 C 0.42366 0.66517 0.16924 0.0
Fe132 Fe 0.58806 0.25889 0.44817 0.0
Fe133 Fe 0.43929 0.2568 0.4482 0.0
O134 O 0.51363 0.2577 0.43643 0.0
Fe135 Fe 0.51352 0.25742 0.41294 0.0
O136 O 0.58803 0.20975 0.41086 0.0
O137 O 0.61363 0.18288 0.43826 0.0
O138 O 0.55781 0.21141 0.46714 0.0
C139 C 0.50998 0.17321 0.4685 0.0
C140 C 0.61155 0.34294 0.41901 0.0
O141 O 0.46018 0.1809 0.45899 0.0
C142 C 0.41092 0.34264 0.42165 0.0
O143 O 0.56723 0.33501 0.45884 0.0
O144 O 0.46969 0.30464 0.46708 0.0
O145 O 0.55691 0.33349 0.41204 0.0
O146 O 0.63198 0.30637 0.43133 0.0
C147 C 0.41552 0.17207 0.4192 0.0
O148 O 0.41372 0.33263 0.43817 0.0
O149 O 0.43896 0.30502 0.41081 0.0
C150 C 0.51754 0.34286 0.46837 0.0
O151 O 0.3952 0.20897 0.43146 0.0
O152 O 0.47012 0.18132 0.4122 0.0
C153 C 0.6162 0.17243 0.42176 0.0
Fe154 Fe 0.01369 0.18335 0.69844 0.0
Fe155 Fe 0.01602 0.33219 0.69837 0.0
O156 O 0.01478 0.2577 0.68665 0.0
Fe157 Fe 0.01464 0.25758 0.66316 0.0
O158 O 0.93852 0.21429 0.66238 0.0
O159 O 0.96582 0.13933 0.68169 0.0
O160 O 0.93784 0.20441 0.7092 0.0
C161 C 0.93024 0.25423 0.71871 0.0
C162 C 0.09957 0.15477 0.67193 0.0
O163 O 0.96847 0.30204 0.71733 0.0
C164 C 0.10024 0.35551 0.66925 0.0
O165 O 0.06156 0.2137 0.71732 0.0
O166 O 0.09204 0.31125 0.70907 0.0
O167 O 0.06214 0.18294 0.66106 0.0
O168 O 0.08944 0.15753 0.68844 0.0
C169 C 0.9298 0.36046 0.67191 0.0
O170 O 0.06361 0.37603 0.68154 0.0
O171 O 0.09076 0.30086 0.66229 0.0
C172 C 0.09985 0.26151 0.7186 0.0
O173 O 0.94011 0.35786 0.68842 0.0
O174 O 0.96712 0.3322 0.66104 0.0
C175 C 0.92909 0.15973 0.6694 0.0
C176 C 0.04341 0.45351 0.05539 0.0
C177 C 0.01722 0.39172 0.05269 0.0
C178 C 0.04228 0.50012 0.04176 0.0
C179 C 0.01657 0.48351 0.0249 0.0
C180 C 0.99158 0.42047 0.02203 0.0
C181 C 0.99113 0.37573 0.03607 0.0
C182 C 0.06753 0.56741 0.0455 0.0
C183 C 0.96576 0.40011 1.00411 0.0
C184 C 0.95777 0.61497 0.99334 0.0
C185 C 0.01217 0.62392 0.9825 0.0
C186 C 0.95901 0.57031 1.00742 0.0
C187 C 0.01517 0.53213 1.01028 0.0
C188 C 0.06969 0.54001 0.99905 0.0
C189 C 0.06795 0.58678 0.9855 0.0
C190 C 0.90065 0.56479 0.01942 0.0
C191 C 0.1296 0.49871 1.00126 0.0
H192 H 0.06323 0.46586 0.06829 0.0
H193 H 0.97153 0.32759 0.03395 0.0
H194 H 0.10854 0.57866 0.03651 0.0
H195 H 0.02897 0.6037 0.04286 0.0
H196 H 0.08419 0.57304 0.05945 0.0
H197 H 0.9512 0.34829 1.00384 0.0
H198 H 0.92312 0.43013 1.00052 0.0
H199 H 1.00313 0.40815 0.99374 0.0
H200 H 0.91495 0.6444 0.99115 0.0
H201 H 0.1099 0.59368 0.97703 0.0
H202 H 0.9152 0.57344 0.03342 0.0
H203 H 0.8804 0.51509 0.01872 0.0
H204 H 0.86188 0.59983 1.01584 0.0
H205 H 0.15142 0.50719 1.01452 0.0
H206 H 0.1667 0.50903 0.99095 0.0
H207 H 0.11648 0.44662 1.00053 0.0
C208 C 0.70046 0.80401 0.23196 0.0
C209 C 0.64807 0.76078 0.23239 0.0
C210 C 0.74661 0.80497 0.24568 0.0
C211 C 0.73954 0.7625 0.26034 0.0
C212 C 0.68652 0.71909 0.26091 0.0
C213 C 0.6418 0.71833 0.24686 0.0
C214 C 0.80314 0.85114 0.24445 0.0
C215 C 0.67676 0.67369 0.27642 0.0
C216 C 0.8866 0.71936 0.28833 0.0
C217 C 0.87982 0.76136 0.30288 0.0
C218 C 0.8418 0.71989 0.2743 0.0
C219 C 0.78815 0.76261 0.27497 0.0
C220 C 0.78062 0.80473 0.2897 0.0
C221 C 0.82689 0.80401 0.30341 0.0
C222 C 0.8521 0.67495 0.25872 0.0
C223 C 0.72344 0.85018 0.29103 0.0
H224 H 0.70573 0.83675 0.22078 0.0
H225 H 0.60112 0.68519 0.24738 0.0
H226 H 0.80302 0.88448 0.25601 0.0
H227 H 0.84935 0.82363 0.24487 0.0
H228 H 0.80203 0.8805 0.23208 0.0
H229 H 0.63207 0.64413 0.27506 0.0
H230 H 0.71884 0.64048 0.27763 0.0
H231 H 0.67376 0.70181 0.28896 0.0
H232 H 0.92767 0.68663 0.28773 0.0
H233 H 0.82122 0.83637 0.31465 0.0
H234 H 0.85457 0.70336 0.24622 0.0
H235 H 0.81051 0.64123 0.25748 0.0
H236 H 0.89723 0.64592 0.26 0.0
H237 H 0.72298 0.88373 0.27952 0.0
H238 H 0.72424 0.87931 0.30345 0.0
H239 H 0.67763 0.82211 0.2906 0.0
C240 C 0.56201 0.57163 0.5536 0.0
C241 C 0.51895 0.62424 0.55307 0.0
C242 C 0.56306 0.52538 0.53989 0.0
C243 C 0.52086 0.53261 0.52517 0.0
C244 C 0.4778 0.586 0.52449 0.0
C245 C 0.47694 0.63079 0.53851 0.0
C246 C 0.60886 0.46848 0.54123 0.0
C247 C 0.43272 0.59596 0.50891 0.0
C248 C 0.5615 0.44431 0.48219 0.0
C249 C 0.5183 0.39192 0.48275 0.0
C250 C 0.56279 0.49063 0.49588 0.0
C251 C 0.52069 0.48371 0.51061 0.0
C252 C 0.47743 0.43059 0.51133 0.0
C253 C 0.47634 0.38571 0.49732 0.0
C254 C 0.60879 0.54725 0.4945 0.0
C255 C 0.43242 0.42097 0.52692 0.0
H256 H 0.59439 0.56616 0.56484 0.0
H257 H 0.44393 0.67164 0.53792 0.0
H258 H 0.58104 0.42249 0.54093 0.0
H259 H 0.64209 0.46794 0.52965 0.0
H260 H 0.6383 0.46971 0.55359 0.0
H261 H 0.40368 0.64111 0.51014 0.0
H262 H 0.46099 0.59819 0.49639 0.0
H263 H 0.39905 0.5543 0.50777 0.0
H264 H 0.59384 0.44952 0.47093 0.0
H265 H 0.4432 0.34505 0.49795 0.0
H266 H 0.64219 0.54757 0.50605 0.0
H267 H 0.58116 0.59341 0.49482 0.0
H268 H 0.63806 0.54585 0.48212 0.0
H269 H 0.46078 0.41851 0.53943 0.0
H270 H 0.40313 0.37605 0.5257 0.0
H271 H 0.39898 0.46289 0.52808 0.0
C272 C 0.64309 0.29669 0.7889 0.0
C273 C 0.64934 0.2548 0.80349 0.0
C274 C 0.68795 0.29548 0.7749 0.0
C275 C 0.74111 0.25216 0.77564 0.0
C276 C 0.74807 0.2101 0.7904 0.0
C277 C 0.70175 0.21152 0.80408 0.0
C278 C 0.67828 0.34042 0.75927 0.0
C279 C 0.80473 0.16403 0.7918 0.0
C280 C 0.82892 0.21063 0.73265 0.0
C281 C 0.88143 0.25369 0.73314 0.0
C282 C 0.78277 0.20961 0.74638 0.0
C283 C 0.78998 0.25186 0.76108 0.0
C284 C 0.84327 0.29492 0.76173 0.0
C285 C 0.88797 0.29573 0.74769 0.0
C286 C 0.72597 0.16381 0.74506 0.0
C287 C 0.8532 0.34006 0.77729 0.0
H288 H 0.6024 0.32989 0.78825 0.0
H289 H 0.707 0.17922 0.81536 0.0
H290 H 0.72013 0.37383 0.7581 0.0
H291 H 0.67585 0.31199 0.74678 0.0
H292 H 0.63333 0.36978 0.76048 0.0
H293 H 0.80336 0.13482 0.8042 0.0
H294 H 0.80509 0.13057 0.78027 0.0
H295 H 0.85084 0.19162 0.79147 0.0
H296 H 0.82346 0.17821 0.72141 0.0
H297 H 0.92874 0.32875 0.74826 0.0
H298 H 0.67995 0.19167 0.74534 0.0
H299 H 0.72549 0.13065 0.75666 0.0
H300 H 0.72724 0.13428 0.73272 0.0
H301 H 0.81153 0.37381 0.77842 0.0
H302 H 0.8983 0.36904 0.77605 0.0
H303 H 0.85547 0.31183 0.78983 0.0
C304 C 0.32914 0.30652 0.80365 0.0
C305 C 0.38175 0.26346 0.80317 0.0
C306 C 0.28282 0.30731 0.78996 0.0
C307 C 0.28995 0.26484 0.7753 0.0
C308 C 0.34331 0.22174 0.77467 0.0
C309 C 0.38819 0.22115 0.78868 0.0
C310 C 0.22595 0.35317 0.79126 0.0
C311 C 0.35316 0.17637 0.75915 0.0
C312 C 0.14285 0.22031 0.74754 0.0
C313 C 0.14903 0.26218 0.73295 0.0
C314 C 0.18784 0.22138 0.76152 0.0
C315 C 0.24104 0.26452 0.76075 0.0
C316 C 0.24795 0.30651 0.74598 0.0
C317 C 0.20152 0.30524 0.73232 0.0
C318 C 0.17824 0.17652 0.77716 0.0
C319 C 0.30465 0.35238 0.74454 0.0
H320 H 0.32373 0.33913 0.81485 0.0
H321 H 0.42903 0.18812 0.78812 0.0
H322 H 0.22542 0.38629 0.77965 0.0
H323 H 0.17996 0.32536 0.79098 0.0
H324 H 0.22719 0.38276 0.80359 0.0
H325 H 0.39824 0.14726 0.76043 0.0
H326 H 0.31146 0.14275 0.75805 0.0
H327 H 0.35544 0.20445 0.74659 0.0
H328 H 0.10211 0.18728 0.74821 0.0
H329 H 0.20671 0.33751 0.72104 0.0
H330 H 0.17579 0.20503 0.78964 0.0
H331 H 0.22013 0.14308 0.77835 0.0
H332 H 0.13332 0.14722 0.77596 0.0
H333 H 0.30503 0.38599 0.75604 0.0
H334 H 0.3033 0.38146 0.73212 0.0
H335 H 0.35074 0.32466 0.74491 0.0
C336 C 0.38703 0.79796 0.24749 0.0
C337 C 0.38046 0.75615 0.2329 0.0
C338 C 0.34231 0.79692 0.26154 0.0
C339 C 0.28901 0.75386 0.26083 0.0
C340 C 0.28174 0.71193 0.24606 0.0
C341 C 0.32788 0.71318 0.23235 0.0
C342 C 0.35226 0.84173 0.27717 0.0
C343 C 0.22494 0.66615 0.24469 0.0
C344 C 0.20053 0.71162 0.30365 0.0
C345 C 0.14782 0.75455 0.30311 0.0
C346 C 0.24713 0.71109 0.29004 0.0
C347 C 0.24019 0.75371 0.2754 0.0
C348 C 0.18681 0.79677 0.27472 0.0
C349 C 0.14165 0.79708 0.28865 0.0
C350 C 0.304 0.66524 0.29137 0.0
C351 C 0.17714 0.84228 0.25922 0.0
H352 H 0.42785 0.83091 0.2481 0.0
H353 H 0.32237 0.68095 0.22107 0.0
H354 H 0.31049 0.87532 0.27838 0.0
H355 H 0.35474 0.81321 0.28965 0.0
H356 H 0.39726 0.87088 0.27593 0.0
H357 H 0.2261 0.63699 0.23228 0.0
H358 H 0.22461 0.63262 0.25621 0.0
H359 H 0.17891 0.69397 0.24507 0.0
H360 H 0.20574 0.67887 0.31483 0.0
H361 H 0.10077 0.83005 0.28805 0.0
H362 H 0.35 0.69302 0.29105 0.0
H363 H 0.30442 0.63196 0.2798 0.0
H364 H 0.30281 0.63582 0.30373 0.0
H365 H 0.21904 0.87566 0.25812 0.0
H366 H 0.13224 0.87165 0.26052 0.0
H367 H 0.17462 0.81427 0.24666 0.0
C368 C 0.46639 0.07176 0.48239 0.0
C369 C 0.50942 0.12429 0.48292 0.0
C370 C 0.46539 0.02548 0.49609 0.0
C371 C 0.50761 0.0326 0.51081 0.0
C372 C 0.55066 0.0859 0.51149 0.0
C373 C 0.55146 0.13072 0.49747 0.0
C374 C 0.4196 0.96867 0.49475 0.0
C375 C 0.59576 0.09573 0.52706 0.0
C376 C 0.46693 0.94435 0.55378 0.0
C377 C 0.51012 0.89185 0.55322 0.0
C378 C 0.46567 0.9907 0.5401 0.0
C379 C 0.50779 0.98369 0.52536 0.0
C380 C 0.55104 0.93046 0.52465 0.0
C381 C 0.55209 0.88556 0.53865 0.0
C382 C 0.41969 0.04745 0.54148 0.0
C383 C 0.59605 0.92074 0.50905 0.0
H384 H 0.43399 0.06637 0.47115 0.0
H385 H 0.58446 0.17151 0.49806 0.0
H386 H 0.44743 0.92262 0.49505 0.0
H387 H 0.38636 0.9682 0.50633 0.0
H388 H 0.39016 0.96996 0.48239 0.0
H389 H 0.62481 0.14081 0.52582 0.0
H390 H 0.56751 0.09804 0.53959 0.0
H391 H 0.62942 0.05399 0.5282 0.0
H392 H 0.43458 0.94963 0.56503 0.0
H393 H 0.58522 0.8448 0.53803 0.0
H394 H 0.38628 0.04785 0.52993 0.0
H395 H 0.44733 0.09354 0.54115 0.0
H396 H 0.39043 0.04612 0.55386 0.0
H397 H 0.56769 0.91834 0.49654 0.0
H398 H 0.62535 0.87576 0.51028 0.0
H399 H 0.62948 0.96259 0.5079 0.0
C400 C 0.06963 0.08706 0.05094 0.0
C401 C 0.01367 0.12413 0.05375 0.0
C402 C 0.07206 0.04042 0.03736 0.0
C403 C 0.0181 0.03261 0.02592 0.0
C404 C 0.96183 0.07083 0.02856 0.0
C405 C 0.95988 0.11533 0.04266 0.0
C406 C 0.13202 0.99906 0.03539 0.0
C407 C 0.90407 0.0654 1.01633 0.0
C408 C 0.04735 0.95344 0.98093 0.0
C409 C 0.02061 0.89186 0.98359 0.0
C410 C 0.04628 1.00011 0.99454 0.0
C411 C 0.02 0.98378 1.01135 0.0
C412 C 0.99457 0.92092 1.0142 0.0
C413 C 0.99413 0.87612 1.00018 0.0
C414 C 0.07202 0.06722 0.99082 0.0
C415 C 0.96808 0.90085 0.03208 0.0
H416 H 0.11112 0.09386 0.05959 0.0
H417 H 0.91693 0.14472 0.04471 0.0
H418 H 0.11884 0.94699 0.03617 0.0
H419 H 0.15426 1.00718 0.02216 0.0
H420 H 0.1688 0.0096 0.04577 0.0
H421 H 0.86531 0.10073 0.0197 0.0
H422 H 0.91936 0.07367 1.00238 0.0
H423 H 0.8835 0.01583 1.01704 0.0
H424 H 0.06745 0.96561 0.96805 0.0
H425 H 0.97408 0.82816 1.00229 0.0
H426 H 0.11251 0.07852 0.99999 0.0
H427 H 0.03343 0.10369 0.99322 0.0
H428 H 0.08954 0.07252 0.97694 0.0
H429 H 1.00501 0.90913 0.04255 0.0
H430 H 0.95355 0.84902 0.03237 0.0
H431 H 0.92525 0.93089 0.03548 0.0
C432 C 0.3728 0.97217 0.17079 0.0
C433 C 0.37862 0.90824 0.16478 0.0
C434 C 0.32913 0.01529 0.16265 0.0
C435 C 0.28898 0.99307 0.14862 0.0
C436 C 0.29295 0.92761 0.14307 0.0
C437 C 0.33866 0.88632 0.151 0.0
C438 C 0.32753 0.08511 0.16864 0.0
C439 C 0.24947 0.90133 0.12864 0.0
C440 C 0.14019 0.09506 0.13834 0.0
C441 C 0.1597 0.12824 0.123 0.0
C442 C 0.18103 0.04955 0.14652 0.0
C443 C 0.24376 0.03861 0.13953 0.0
C444 C 0.26357 0.07184 0.12396 0.0
C445 C 0.2208 0.11555 0.1157 0.0
C446 C 0.15716 0.0135 0.16271 0.0
C447 C 0.33058 0.0626 0.11632 0.0
H448 H 0.4044 0.98915 0.18131 0.0
H449 H 0.3432 0.83665 0.14643 0.0
H450 H 0.3397 0.11733 0.15731 0.0
H451 H 0.27809 0.0983 0.17314 0.0
H452 H 0.3621 0.09473 0.17965 0.0
H453 H 0.25514 0.84815 0.12687 0.0
H454 H 0.19801 0.91197 0.13179 0.0
H455 H 0.26068 0.92545 0.11584 0.0
H456 H 0.09264 0.10455 0.1439 0.0
H457 H 0.23607 0.14166 0.10392 0.0
H458 H 0.18681 0.02683 0.17444 0.0
H459 H 0.16262 0.96047 0.16071 0.0
H460 H 0.10555 0.02425 0.16571 0.0
H461 H 0.36753 0.07552 0.12643 0.0
H462 H 0.33875 0.09267 0.10428 0.0
H463 H 0.33833 0.01099 0.11279 0.0
C464 C 0.1753 0.89004 0.38821 0.0
C465 C 0.14958 0.90276 0.37131 0.0
C466 C 0.22188 0.93098 0.39579 0.0
C467 C 0.24233 0.98672 0.3864 0.0
C468 C 0.21756 0.99913 0.36916 0.0
C469 C 0.17189 0.95655 0.36173 0.0
C470 C 0.24813 0.91531 0.41403 0.0
C471 C 0.23765 0.05853 0.35883 0.0
C472 C 0.30449 0.12767 0.41396 0.0
C473 C 0.37162 0.12313 0.41135 0.0
C474 C 0.26193 0.08389 0.40578 0.0
C475 C 0.28717 0.03362 0.39499 0.0
C476 C 0.35497 0.028 0.39257 0.0
C477 C 0.39638 0.07317 0.40067 0.0
C478 C 0.18986 0.09191 0.40851 0.0
C479 C 0.38373 0.97428 0.38145 0.0
H480 H 0.15877 0.84799 0.39556 0.0
H481 H 0.15198 0.96663 0.34869 0.0
H482 H 0.30189 0.91502 0.41381 0.0
H483 H 0.23285 0.95324 0.4236 0.0
H484 H 0.23097 0.86757 0.41897 0.0
H485 H 0.2158 0.05991 0.34535 0.0
H486 H 0.22265 0.10279 0.36614 0.0
H487 H 0.29114 0.06017 0.3575 0.0
H488 H 0.28497 0.16643 0.42208 0.0
H489 H 0.44827 0.06921 0.39868 0.0
H490 H 0.16953 0.04775 0.41478 0.0
H491 H 0.16537 0.09806 0.39549 0.0
H492 H 0.17802 0.13431 0.41702 0.0
H493 H 0.3684 0.9265 0.38674 0.0
H494 H 0.43752 0.97595 0.38117 0.0
H495 H 0.36549 0.97768 0.36762 0.0
C496 C 0.17411 0.05937 0.67441 0.0
C497 C 0.15178 0.1132 0.66484 0.0
C498 C 0.21988 0.01683 0.66699 0.0
C499 C 0.24466 0.02937 0.64978 0.0
C500 C 0.22427 0.08522 0.6404 0.0
C501 C 0.17761 0.12612 0.64798 0.0
C502 C 0.23994 0.9573 0.67729 0.0
C503 C 0.25057 0.10097 0.62218 0.0
C504 C 0.39826 0.94227 0.63544 0.0
C505 C 0.37323 0.89251 0.62475 0.0
C506 C 0.35707 0.98761 0.64356 0.0
C507 C 0.28926 0.98235 0.64116 0.0
C508 C 0.26375 0.93232 0.63035 0.0
C509 C 0.30609 0.88835 0.62215 0.0
C510 C 0.38606 0.04108 0.65471 0.0
C511 C 0.19164 0.92473 0.62763 0.0
H512 H 0.1541 0.04919 0.68743 0.0
H513 H 0.16103 0.16824 0.64064 0.0
H514 H 0.2247 0.91314 0.66998 0.0
H515 H 0.29344 0.95536 0.67857 0.0
H516 H 0.21827 0.95598 0.69079 0.0
H517 H 0.23363 0.14891 0.6173 0.0
H518 H 0.30433 0.10087 0.6224 0.0
H519 H 0.23506 0.0633 0.61257 0.0
H520 H 0.45017 0.94592 0.63741 0.0
H521 H 0.2864 0.84975 0.61401 0.0
H522 H 0.36788 0.03769 0.66854 0.0
H523 H 0.37085 0.08899 0.64945 0.0
H524 H 0.43985 0.03913 0.65497 0.0
H525 H 0.16719 0.91863 0.64065 0.0
H526 H 0.1796 0.88247 0.6191 0.0
H527 H 0.17142 0.96907 0.62138 0.0
C528 C 0.1305 0.94485 0.90077 0.0
C529 C 0.15547 0.89518 0.91152 0.0
C530 C 0.17172 0.99012 0.89264 0.0
C531 C 0.23954 0.98489 0.8951 0.0
C532 C 0.26498 0.93491 0.90595 0.0
C533 C 0.22262 0.89103 0.91416 0.0
C534 C 0.14275 0.04351 0.88143 0.0
C535 C 0.33708 0.92731 0.90874 0.0
C536 C 0.35522 0.06177 0.86193 0.0
C537 C 0.37737 0.11564 0.87151 0.0
C538 C 0.30934 0.01931 0.86931 0.0
C539 C 0.28422 0.03191 0.88649 0.0
C540 C 0.30444 0.08779 0.89587 0.0
C541 C 0.35122 0.12861 0.88833 0.0
C542 C 0.28953 0.95976 0.85901 0.0
C543 C 0.27782 0.10367 0.91405 0.0
H544 H 0.0786 0.94851 0.89875 0.0
H545 H 0.24233 0.85251 0.92234 0.0
H546 H 0.15775 0.09146 0.88669 0.0
H547 H 0.16113 0.04004 0.86762 0.0
H548 H 0.08897 0.04153 0.88111 0.0
H549 H 0.34909 0.88507 0.91729 0.0
H550 H 0.36169 0.92116 0.89575 0.0
H551 H 0.35712 0.97165 0.915 0.0
H552 H 0.37544 0.05151 0.84894 0.0
H553 H 0.36761 0.17074 0.89568 0.0
H554 H 0.23604 0.95785 0.85767 0.0
H555 H 0.30475 0.91562 0.86634 0.0
H556 H 0.31138 0.9584 0.84553 0.0
H557 H 0.22407 0.10358 0.91376 0.0
H558 H 0.2946 0.15162 0.91893 0.0
H559 H 0.29325 0.06604 0.9237 0.0
C560 C 0.81647 0.92052 0.92515 0.0
C561 C 0.87031 0.89843 0.91556 0.0
C562 C 0.77381 0.96629 0.91777 0.0
C563 C 0.78625 0.99132 0.90057 0.0
C564 C 0.84218 0.97128 0.89119 0.0
C565 C 0.88319 0.92461 0.89873 0.0
C566 C 0.7142 0.98598 0.92806 0.0
C567 C 0.85786 0.99785 0.873 0.0
C568 C 0.64529 0.05196 0.87278 0.0
C569 C 0.64913 0.11916 0.87534 0.0
C570 C 0.68926 0.00985 0.88108 0.0
C571 C 0.73898 0.03566 0.89194 0.0
C572 C 0.74388 0.10353 0.89432 0.0
C573 C 0.69853 0.14448 0.8861 0.0
C574 C 0.68208 0.93766 0.87838 0.0
C575 C 0.79702 0.13283 0.90552 0.0
H576 H 0.80632 0.90022 0.93814 0.0
H577 H 0.92532 0.90822 0.89138 0.0
H578 H 0.71184 0.0395 0.92931 0.0
H579 H 0.67016 0.97033 0.92077 0.0
H580 H 0.71311 0.96438 0.94158 0.0
H581 H 0.90596 0.98134 0.86814 0.0
H582 H 0.82041 0.98206 0.86335 0.0
H583 H 0.85729 0.05162 0.87323 0.0
H584 H 0.60695 0.03204 0.8646 0.0
H585 H 0.70194 0.19644 0.88804 0.0
H586 H 0.67617 0.91318 0.8914 0.0
H587 H 0.7265 0.9177 0.87213 0.0
H588 H 0.63989 0.92537 0.86985 0.0
H589 H 0.79371 0.11447 0.91934 0.0
H590 H 0.79463 0.18663 0.90582 0.0
H591 H 0.84506 0.11807 0.90027 0.0
C592 C 0.88444 0.04877 0.66416 0.0
C593 C 0.88006 0.11593 0.66156 0.0
C594 C 0.84056 1.00632 0.65598 0.0
C595 C 0.79035 0.0317 0.6452 0.0
C596 C 0.78487 0.09954 0.64279 0.0
C597 C 0.83014 0.14084 0.65088 0.0
C598 C 0.84843 0.93419 0.65871 0.0
C599 C 0.73122 0.12846 0.63167 0.0
C600 C 0.71311 0.91663 0.61193 0.0
C601 C 0.65934 0.89433 0.6215 0.0
C602 C 0.75573 0.96225 0.61936 0.0
C603 C 0.74337 0.98697 0.6366 0.0
C604 C 0.68764 0.96656 0.64599 0.0
C605 C 0.64666 0.92003 0.6384 0.0
C606 C 0.81514 0.98228 0.60904 0.0
C607 C 0.67202 0.99279 0.66423 0.0
H608 H 0.92316 0.02914 0.67228 0.0
H609 H 0.8263 0.19277 0.6489 0.0
H610 H 0.80425 0.91392 0.66498 0.0
H611 H 0.85451 0.90972 0.64569 0.0
H612 H 0.8908 0.92223 0.66721 0.0
H613 H 0.73298 0.18227 0.6314 0.0
H614 H 0.73456 0.11027 0.61783 0.0
H615 H 0.68343 0.11319 0.63695 0.0
H616 H 0.72316 0.89673 0.59888 0.0
H617 H 0.60462 0.90349 0.64575 0.0
H618 H 0.85936 0.96714 0.61634 0.0
H619 H 0.81689 0.03579 0.60772 0.0
H620 H 0.81646 0.96049 0.59555 0.0
H621 H 0.70988 0.97735 0.6738 0.0
H622 H 0.62424 0.97573 0.66915 0.0
H623 H 0.67187 0.04657 0.66402 0.0
C624 C 0.82859 0.87342 0.38532 0.0
C625 C 0.87803 0.89855 0.37455 0.0
C626 C 0.78326 0.91453 0.39348 0.0
C627 C 0.7882 0.98236 0.39102 0.0
C628 C 0.8379 0.00796 0.38013 0.0
C629 C 0.88186 0.9657 0.3719 0.0
C630 C 0.73014 0.88544 0.40472 0.0
C631 C 0.84514 0.08011 0.37734 0.0
C632 C 0.64437 0.09381 0.3979 0.0
C633 C 0.65759 0.12001 0.4147 0.0
C634 C 0.68516 0.04702 0.39034 0.0
C635 C 0.7412 0.02689 0.39966 0.0
C636 C 0.75401 0.05201 0.41683 0.0
C637 C 0.71158 0.0979 0.42424 0.0
C638 C 0.66912 0.02036 0.37217 0.0
C639 C 0.81375 0.03223 0.42707 0.0
H640 H 0.8252 0.82149 0.38734 0.0
H641 H 0.92022 0.98548 0.3637 0.0
H642 H 0.73374 0.90378 0.41854 0.0
H643 H 0.68209 0.90041 0.39952 0.0
H644 H 0.73232 0.83164 0.40502 0.0
H645 H 0.88717 0.09222 0.36874 0.0
H646 H 0.80062 0.10008 0.37114 0.0
H647 H 0.85139 0.10473 0.39033 0.0
H648 H 0.60213 0.11021 0.3906 0.0
H649 H 0.72199 0.1182 0.43721 0.0
H650 H 0.66949 0.96659 0.37244 0.0
H651 H 0.70648 0.03593 0.36248 0.0
H652 H 0.62101 0.03701 0.36735 0.0
H653 H 0.81592 0.97873 0.42838 0.0
H654 H 0.81519 0.05402 0.44056 0.0
H655 H 0.85771 0.0476 0.41971 0.0
C656 C 0.69221 0.87599 0.14809 0.0
C657 C 0.6522 0.8979 0.16193 0.0
C658 C 0.73904 0.91674 0.14051 0.0
C659 C 0.74584 0.98085 0.14692 0.0
C660 C 0.70689 1.00267 0.16119 0.0
C661 C 0.66064 0.96089 0.16855 0.0
C662 C 0.78007 0.89174 0.12538 0.0
C663 C 0.71287 0.07076 0.16838 0.0
C664 C 0.89634 0.0799 0.13708 0.0
C665 C 0.87439 0.1204 0.12334 0.0
C666 C 0.85559 0.0329 0.14458 0.0
C667 C 0.79144 0.02641 0.1382 0.0
C668 C 0.76959 0.0658 0.12401 0.0
C669 C 0.81137 0.11224 0.11673 0.0
C670 C 0.88063 0.99141 0.15963 0.0
C671 C 0.70144 0.06017 0.11685 0.0
H672 H 0.68641 0.82721 0.14298 0.0
H673 H 0.63022 0.97817 0.17929 0.0
H674 H 0.7689 0.91937 0.11311 0.0
H675 H 0.83221 0.89915 0.12833 0.0
H676 H 0.77174 0.83942 0.12275 0.0
H677 H 0.68087 0.07927 0.18002 0.0
H678 H 0.76367 0.08054 0.17238 0.0
H679 H 0.70009 0.10622 0.15786 0.0
H680 H 0.94514 0.08547 0.14218 0.0
H681 H 0.79406 0.14304 0.10607 0.0
H682 H 0.87299 0.93935 0.1566 0.0
H683 H 0.85321 1.00242 0.17194 0.0
H684 H 0.93299 0.9995 0.16223 0.0
H685 H 0.6914 0.00943 0.11283 0.0
H686 H 0.69297 0.09233 0.10524 0.0
H687 H 0.66615 0.07301 0.1274 0.0
C688 C 0.85533 0.45594 0.67435 0.0
C689 C 0.87755 0.402 0.66481 0.0
C690 C 0.80957 0.49847 0.66692 0.0
C691 C 0.7847 0.48584 0.64971 0.0
C692 C 0.80497 0.42989 0.64037 0.0
C693 C 0.85162 0.38899 0.64796 0.0
C694 C 0.78962 0.5581 0.67718 0.0
C695 C 0.77857 0.41403 0.62216 0.0
C696 C 0.63108 0.57294 0.63537 0.0
C697 C 0.65607 0.62265 0.62466 0.0
C698 C 0.67228 0.52762 0.6435 0.0
C699 C 0.74008 0.53283 0.64108 0.0
C700 C 0.76555 0.58278 0.63024 0.0
C701 C 0.7232 0.62674 0.62203 0.0
C702 C 0.64333 0.47423 0.65468 0.0
C703 C 0.83766 0.59029 0.62749 0.0
H704 H 0.87542 0.4662 0.68736 0.0
H705 H 0.86811 0.3468 0.64065 0.0
H706 H 0.80486 0.60218 0.66984 0.0
H707 H 0.73613 0.5601 0.67848 0.0
H708 H 0.81137 0.5595 0.69068 0.0
H709 H 0.79545 0.36605 0.6173 0.0
H710 H 0.72482 0.41418 0.62239 0.0
H711 H 0.79406 0.45163 0.61253 0.0
H712 H 0.57917 0.56934 0.63736 0.0
H713 H 0.74287 0.6653 0.61388 0.0
H714 H 0.66155 0.47773 0.66851 0.0
H715 H 0.65851 0.42628 0.64945 0.0
H716 H 0.58953 0.4762 0.65495 0.0
H717 H 0.86218 0.5965 0.64051 0.0
H718 H 0.84967 0.63246 0.61893 0.0
H719 H 0.85781 0.54589 0.62128 0.0
C720 C 0.80466 0.63112 0.91442 0.0
C721 C 0.87181 0.62636 0.9119 0.0
C722 C 0.76211 0.58732 0.90624 0.0
C723 C 0.78739 0.5368 0.89554 0.0
C724 C 0.8552 0.53096 0.89322 0.0
C725 C 0.89659 0.57616 0.9013 0.0
C726 C 0.69002 0.59559 0.90886 0.0
C727 C 0.88401 0.47697 0.8822 0.0
C728 C 0.67575 0.39301 0.88874 0.0
C729 C 0.65057 0.40532 0.87176 0.0
C730 C 0.72198 0.43422 0.89638 0.0
C731 C 0.74261 0.48982 0.88695 0.0
C732 C 0.71834 0.50186 0.86965 0.0
C733 C 0.67302 0.45901 0.86217 0.0
C734 C 0.74774 0.41892 0.91469 0.0
C735 C 0.73861 0.56111 0.85928 0.0
H736 H 0.78514 0.67008 0.92248 0.0
H737 H 0.9485 0.57202 0.89938 0.0
H738 H 0.66578 0.60157 0.8958 0.0
H739 H 0.66945 0.55159 0.91517 0.0
H740 H 0.67815 0.63817 0.9173 0.0
H741 H 0.93782 0.47849 0.88199 0.0
H742 H 0.86848 0.42932 0.88754 0.0
H743 H 0.86602 0.48016 0.86834 0.0
H744 H 0.65909 0.35105 0.89611 0.0
H745 H 0.6535 0.46879 0.84906 0.0
H746 H 0.73233 0.45711 0.92417 0.0
H747 H 0.8015 0.41849 0.91457 0.0
H748 H 0.73035 0.37133 0.91968 0.0
H749 H 0.72357 0.60548 0.86653 0.0
H750 H 0.71695 0.56233 0.84577 0.0
H751 H 0.79212 0.56266 0.858 0.0
C752 C 0.68084 0.63424 0.14837 0.0
C753 C 0.64522 0.61312 0.16312 0.0
C754 C 0.72628 0.59352 0.14012 0.0
C755 C 0.7345 0.52933 0.14638 0.0
C756 C 0.69869 0.50787 0.16135 0.0
C757 C 0.65518 0.5505 0.16974 0.0
C758 C 0.76513 0.6191 0.12464 0.0
C759 C 0.70495 0.43933 0.16817 0.0
C760 C 0.80191 0.40347 0.11429 0.0
C761 C 0.86469 0.39477 0.12092 0.0
C762 C 0.75889 0.44717 0.12246 0.0
C763 C 0.78009 0.4844 0.1372 0.0
C764 C 0.84453 0.47766 0.14339 0.0
C765 C 0.88565 0.43204 0.13538 0.0
C766 C 0.69013 0.45183 0.11573 0.0
C767 C 0.86983 0.51799 0.15863 0.0
H768 H 0.67327 0.68293 0.14333 0.0
H769 H 0.62704 0.53403 0.18103 0.0
H770 H 0.81766 0.61176 0.12709 0.0
H771 H 0.75261 0.5919 0.11241 0.0
H772 H 0.75622 0.67149 0.12222 0.0
H773 H 0.67294 0.42995 0.17975 0.0
H774 H 0.6925 0.40458 0.15745 0.0
H775 H 0.75575 0.42945 0.17215 0.0
H776 H 0.7856 0.37402 0.10323 0.0
H777 H 0.93445 0.4254 0.14042 0.0
H778 H 0.67892 0.5024 0.11178 0.0
H779 H 0.65595 0.43854 0.12651 0.0
H780 H 0.68128 0.41957 0.10416 0.0
H781 H 0.86087 0.5702 0.15604 0.0
H782 H 0.92256 0.51066 0.16085 0.0
H783 H 0.84371 0.50522 0.17101 0.0
C784 C 0.85124 0.62516 0.388 0.0
C785 C 0.87705 0.61255 0.37111 0.0
C786 C 0.80467 0.58414 0.39554 0.0
C787 C 0.7843 0.52844 0.38612 0.0
C788 C 0.80913 0.51616 0.36889 0.0
C789 C 0.85481 0.55881 0.3615 0.0
C790 C 0.77835 0.59968 0.41378 0.0
C791 C 0.78915 0.45679 0.35853 0.0
C792 C 0.72249 0.38736 0.41367 0.0
C793 C 0.65534 0.39181 0.41109 0.0
C794 C 0.76494 0.43117 0.40547 0.0
C795 C 0.73958 0.48139 0.39468 0.0
C796 C 0.67176 0.48689 0.39227 0.0
C797 C 0.63046 0.44169 0.40039 0.0
C798 C 0.83704 0.42325 0.4082 0.0
C799 C 0.64287 0.54056 0.38115 0.0
H800 H 0.86773 0.66717 0.39538 0.0
H801 H 0.87478 0.54883 0.34846 0.0
H802 H 0.72459 0.59979 0.41354 0.0
H803 H 0.79376 0.56176 0.42334 0.0
H804 H 0.79536 0.64745 0.41873 0.0
H805 H 0.81094 0.45558 0.34504 0.0
H806 H 0.8043 0.41252 0.36581 0.0
H807 H 0.73566 0.45502 0.3572 0.0
H808 H 0.74211 0.34866 0.42181 0.0
H809 H 0.57855 0.44558 0.39842 0.0
H810 H 0.8573 0.4674 0.4145 0.0
H811 H 0.86151 0.4173 0.39517 0.0
H812 H 0.84899 0.38079 0.41667 0.0
H813 H 0.65802 0.58837 0.38647 0.0
H814 H 0.58908 0.53872 0.38085 0.0
H815 H 0.66118 0.5373 0.36733 0.0
C816 C 0.38072 0.41886 0.39736 0.0
C817 C 0.36941 0.39492 0.41452 0.0
C818 C 0.33979 0.46553 0.38979 0.0
C819 C 0.28558 0.488 0.39951 0.0
C820 C 0.27474 0.46523 0.41702 0.0
C821 C 0.31723 0.41929 0.42439 0.0
C822 C 0.35368 0.48958 0.37122 0.0
C823 C 0.217 0.48761 0.4277 0.0
C824 C 0.19973 0.6417 0.38462 0.0
C825 C 0.14849 0.61644 0.37452 0.0
C826 C 0.24516 0.60053 0.39273 0.0
C827 C 0.23835 0.53257 0.39096 0.0
C828 C 0.18666 0.50685 0.3808 0.0
C829 C 0.14273 0.54912 0.37256 0.0
C830 C 0.30045 0.6297 0.40314 0.0
C831 C 0.17732 0.4346 0.3788 0.0
H832 H 0.42156 0.40077 0.38977 0.0
H833 H 0.30827 0.40084 0.43765 0.0
H834 H 0.3145 0.47383 0.36211 0.0
H835 H 0.35465 0.54334 0.371 0.0
H836 H 0.40059 0.47113 0.36603 0.0
H837 H 0.21707 0.46749 0.44139 0.0
H838 H 0.21621 0.54128 0.42853 0.0
H839 H 0.17166 0.47241 0.42096 0.0
H840 H 0.20453 0.69375 0.38609 0.0
H841 H 0.10288 0.52932 0.36491 0.0
H842 H 0.34739 0.61316 0.39755 0.0
H843 H 0.29855 0.61294 0.41713 0.0
H844 H 0.29939 0.68354 0.40301 0.0
H845 H 0.22038 0.41277 0.37232 0.0
H846 H 0.13375 0.42246 0.3708 0.0
H847 H 0.17247 0.41178 0.39209 0.0
C848 C 0.21068 0.41142 0.11711 0.0
C849 C 0.14793 0.40219 0.1238 0.0
C850 C 0.25201 0.45814 0.12443 0.0
C851 C 0.23001 0.49674 0.13876 0.0
C852 C 0.16604 0.48933 0.14519 0.0
C853 C 0.1257 0.44206 0.13764 0.0
C854 C 0.31994 0.46479 0.11719 0.0
C855 C 0.14085 0.52998 0.16038 0.0
C856 C 0.36227 0.56085 0.16884 0.0
C857 C 0.37077 0.62394 0.1623 0.0
C858 C 0.31521 0.51963 0.16163 0.0
C859 C 0.27551 0.54212 0.14758 0.0
C860 C 0.28216 0.60644 0.14133 0.0
C861 C 0.3298 0.64663 0.14876 0.0
C862 C 0.3094 0.45131 0.16867 0.0
C863 C 0.24035 0.63216 0.12644 0.0
H864 H 0.22818 0.38121 0.10635 0.0
H865 H 0.07709 0.43565 0.1428 0.0
H866 H 0.32942 0.51582 0.11335 0.0
H867 H 0.35559 0.4517 0.12763 0.0
H868 H 0.32843 0.43333 0.10544 0.0
H869 H 0.08845 0.52178 0.16289 0.0
H870 H 0.1681 0.51819 0.17267 0.0
H871 H 0.14859 0.58221 0.1576 0.0
H872 H 0.39336 0.543 0.17937 0.0
H873 H 0.33559 0.69552 0.14373 0.0
H874 H 0.32224 0.41624 0.15806 0.0
H875 H 0.25865 0.44125 0.17265 0.0
H876 H 0.34149 0.44251 0.18028 0.0
H877 H 0.25161 0.60573 0.11398 0.0
H878 H 0.24795 0.68479 0.12412 0.0
H879 H 0.18839 0.62381 0.12942 0.0
C880 C 0.14602 0.59889 0.89728 0.0
C881 C 0.15855 0.6237 0.91428 0.0
C882 C 0.18676 0.55221 0.88963 0.0
C883 C 0.24203 0.53079 0.89909 0.0
C884 C 0.25421 0.55462 0.91642 0.0
C885 C 0.21186 0.60039 0.9239 0.0
C886 C 0.17141 0.5269 0.87128 0.0
C887 C 0.31315 0.53346 0.92681 0.0
C888 C 0.32845 0.37683 0.88473 0.0
C889 C 0.37902 0.40177 0.87434 0.0
C890 C 0.28291 0.41817 0.89271 0.0
C891 C 0.28885 0.48602 0.89047 0.0
C892 C 0.33965 0.51143 0.87993 0.0
C893 C 0.38378 0.46895 0.87186 0.0
C894 C 0.2286 0.38931 0.90356 0.0
C895 C 0.348 0.58358 0.87741 0.0
H896 H 0.10431 0.61618 0.8899 0.0
H897 H 0.22173 0.61956 0.93703 0.0
H898 H 0.20965 0.54233 0.86183 0.0
H899 H 0.17082 0.47313 0.87132 0.0
H900 H 0.12391 0.54468 0.86631 0.0
H901 H 0.31431 0.55466 0.94038 0.0
H902 H 0.31436 0.47988 0.92796 0.0
H903 H 0.3577 0.54838 0.91965 0.0
H904 H 0.32435 0.32488 0.8866 0.0
H905 H 0.42302 0.48855 0.86394 0.0
H906 H 0.18113 0.40543 0.89821 0.0
H907 H 0.23166 0.4067 0.91748 0.0
H908 H 0.22984 0.33546 0.90361 0.0
H909 H 0.30407 0.60446 0.87112 0.0
H910 H 0.39061 0.59549 0.86901 0.0
H911 H 0.35397 0.60753 0.89051 0.0
C912 C 0.14499 0.4664 0.66398 0.0
C913 C 0.14923 0.39923 0.66136 0.0
C914 C 0.18888 0.50879 0.65579 0.0
C915 C 0.23896 0.48334 0.64498 0.0
C916 C 0.24427 0.4155 0.64254 0.0
C917 C 0.19899 0.37426 0.65065 0.0
C918 C 0.18118 0.58092 0.65854 0.0
C919 C 0.29778 0.38652 0.6314 0.0
C920 C 0.31621 0.59862 0.61177 0.0
C921 C 0.37003 0.62078 0.62136 0.0
C922 C 0.2736 0.55294 0.61918 0.0
C923 C 0.286 0.52801 0.63639 0.0
C924 C 0.3418 0.54826 0.64579 0.0
C925 C 0.38278 0.59486 0.63823 0.0
C926 C 0.21413 0.53309 0.60885 0.0
C927 C 0.35747 0.52182 0.66401 0.0
H928 H 0.10639 0.48608 0.67212 0.0
H929 H 0.20272 0.32233 0.64866 0.0
H930 H 0.22543 0.60104 0.66482 0.0
H931 H 0.17515 0.60549 0.64552 0.0
H932 H 0.13886 0.59294 0.66705 0.0
H933 H 0.29585 0.33271 0.6311 0.0
H934 H 0.29444 0.40486 0.61757 0.0
H935 H 0.34564 0.40159 0.63669 0.0
H936 H 0.30612 0.61869 0.59875 0.0
H937 H 0.42485 0.61128 0.64559 0.0
H938 H 0.16996 0.54832 0.61615 0.0
H939 H 0.21224 0.47958 0.60752 0.0
H940 H 0.21283 0.55493 0.59536 0.0
H941 H 0.31971 0.5373 0.67361 0.0
H942 H 0.40532 0.5387 0.66893 0.0
H943 H 0.35745 0.46805 0.66377 0.0
loop_
_geom_bond_atom_site_label_1
_geom_bond_atom_site_label_2
_geom_bond_distance
_geom_bond_site_symmetry_2
_ccdc_geom_bond_type
Fe0 O2 1.918 . S
Fe0 O5 1.997 1_455 S
Fe0 O6 2.002 . S
Fe0 O11 1.976 . S
Fe0 O14 1.996 1_455 S
Fe1 O2 1.918 . S
Fe1 O9 1.997 . S
Fe1 O12 1.996 . S
Fe1 O16 1.976 . S
Fe1 O19 2.002 . S
O2 Fe0 1.918 . S
O2 Fe1 1.918 . S
O2 Fe3 1.918 1_455 S
Fe3 O2 1.918 1_655 S
Fe3 O4 2.002 . S
Fe3 O13 1.976 . S
Fe3 O17 1.996 . S
Fe3 O20 1.997 . S
O4 Fe3 2.002 . S
O4 C21 1.295 . S
O5 Fe0 1.997 1_655 S
O5 C21 1.235 . S
O6 Fe0 2.002 . S
O6 C7 1.295 . S
C7 O6 1.295 . S
C7 O9 1.235 . S
C8 O13 1.287 . S
C8 O14 1.255 . S
O9 Fe1 1.997 . S
O9 C7 1.235 . S
C10 O16 1.287 . S
C10 O17 1.255 1_455 S
O11 Fe0 1.976 . S
O11 C18 1.287 . S
O12 Fe1 1.996 . S
O12 C18 1.255 . S
O13 Fe3 1.976 . S
O13 C8 1.287 . S
O14 Fe0 1.996 1_655 S
O14 C8 1.255 . S
C15 O19 1.295 . S
C15 O20 1.235 1_455 S
O16 Fe1 1.976 . S
O16 C10 1.287 . S
O17 Fe3 1.996 . S
O17 C10 1.255 1_655 S
C18 O11 1.287 . S
C18 O12 1.255 . S
O19 Fe1 2.002 . S
O19 C15 1.295 . S
O20 Fe3 1.997 . S
O20 C15 1.235 1_655 S
C21 O4 1.295 . S
C21 O5 1.235 . S
Fe22 O24 1.918 . S
Fe22 O27 1.997 . S
Fe22 O28 2.002 . S
Fe22 O33 1.976 1_455 S
Fe22 O36 1.996 1_455 S
Fe23 O24 1.918 . S
Fe23 O31 1.997 . S
Fe23 O34 1.996 1_455 S
Fe23 O38 1.976 1_455 S
Fe23 O41 2.002 . S
O24 Fe22 1.918 . S
O24 Fe23 1.918 . S
O24 Fe25 1.918 . S
Fe25 O24 1.918 . S
Fe25 O26 2.002 . S
Fe25 O35 1.976 1_455 S
Fe25 O39 1.996 1_455 S
Fe25 O42 1.997 . S
O26 Fe25 2.002 . S
O26 C43 1.295 . S
O27 Fe22 1.997 . S
O27 C43 1.235 . S
O28 Fe22 2.002 . S
O28 C29 1.295 . S
C29 O28 1.295 . S
C29 O31 1.235 . S
C30 O35 1.287 . S
C30 O36 1.255 . S
O31 Fe23 1.997 . S
O31 C29 1.235 . S
C32 O38 1.287 . S
C32 O39 1.255 . S
O33 Fe22 1.976 1_655 S
O33 C40 1.287 . S
O34 Fe23 1.996 1_655 S
O34 C40 1.255 . S
O35 Fe25 1.976 1_655 S
O35 C30 1.287 . S
O36 Fe22 1.996 1_655 S
O36 C30 1.255 . S
C37 O41 1.295 . S
C37 O42 1.235 . S
O38 Fe23 1.976 1_655 S
O38 C32 1.287 . S
O39 Fe25 1.996 1_655 S
O39 C32 1.255 . S
C40 O33 1.287 . S
C40 O34 1.255 . S
O41 Fe23 2.002 . S
O41 C37 1.295 . S
O42 Fe25 1.997 . S
O42 C37 1.235 . S
C43 O26 1.295 . S
C43 O27 1.235 . S
Fe44 O46 1.918 . S
Fe44 O49 1.997 . S
Fe44 O50 2.002 . S
Fe44 O55 1.976 . S
Fe44 O58 1.996 . S
Fe45 O46 1.918 . S
Fe45 O53 1.997 . S
Fe45 O56 1.996 . S
Fe45 O60 1.976 . S
Fe45 O63 2.002 . S
O46 Fe44 1.918 . S
O46 Fe45 1.918 . S
O46 Fe47 1.918 . S
Fe47 O46 1.918 . S
Fe47 O48 2.002 . S
Fe47 O57 1.976 . S
Fe47 O61 1.996 . S
Fe47 O64 1.997 . S
O48 Fe47 2.002 . S
O48 C65 1.295 . S
O49 Fe44 1.997 . S
O49 C65 1.235 . S
O50 Fe44 2.002 . S
O50 C51 1.295 . S
C51 O50 1.295 . S
C51 O53 1.235 . S
C52 O57 1.287 . S
C52 O58 1.255 . S
O53 Fe45 1.997 . S
O53 C51 1.235 . S
C54 O60 1.287 . S
C54 O61 1.255 . S
O55 Fe44 1.976 . S
O55 C62 1.287 . S
O56 Fe45 1.996 . S
O56 C62 1.255 . S
O57 Fe47 1.976 . S
O57 C52 1.287 . S
O58 Fe44 1.996 . S
O58 C52 1.255 . S
C59 O63 1.295 . S
C59 O64 1.235 . S
O60 Fe45 1.976 . S
O60 C54 1.287 . S
O61 Fe47 1.996 . S
O61 C54 1.255 . S
C62 O55 1.287 . S
C62 O56 1.255 . S
O63 Fe45 2.002 . S
O63 C59 1.295 . S
O64 Fe47 1.997 . S
O64 C59 1.235 . S
C65 O48 1.295 . S
C65 O49 1.235 . S
Fe66 O68 1.918 . S
Fe66 O71 1.997 . S
Fe66 O72 2.002 . S
Fe66 O77 1.976 . S
Fe66 O80 1.996 . S
Fe67 O68 1.918 . S
Fe67 O75 1.997 . S
Fe67 O78 1.996 . S
Fe67 O82 1.976 . S
Fe67 O85 2.002 . S
O68 Fe66 1.918 . S
O68 Fe67 1.918 . S
O68 Fe69 1.918 . S
Fe69 O68 1.918 . S
Fe69 O70 2.002 . S
Fe69 O79 1.976 . S
Fe69 O83 1.996 . S
Fe69 O86 1.997 . S
O70 Fe69 2.002 . S
O70 C87 1.295 . S
O71 Fe66 1.997 . S
O71 C87 1.235 . S
O72 Fe66 2.002 . S
O72 C73 1.295 . S
C73 O72 1.295 . S
C73 O75 1.235 . S
C74 O79 1.287 . S
C74 O80 1.255 . S
O75 Fe67 1.997 . S
O75 C73 1.235 . S
C76 O82 1.287 . S
C76 O83 1.255 . S
O77 Fe66 1.976 . S
O77 C84 1.287 . S
O78 Fe67 1.996 . S
O78 C84 1.255 . S
O79 Fe69 1.976 . S
O79 C74 1.287 . S
O80 Fe66 1.996 . S
O80 C74 1.255 . S
C81 O85 1.295 . S
C81 O86 1.235 . S
O82 Fe67 1.976 . S
O82 C76 1.287 . S
O83 Fe69 1.996 . S
O83 C76 1.255 . S
C84 O77 1.287 . S
C84 O78 1.255 . S
O85 Fe67 2.002 . S
O85 C81 1.295 . S
O86 Fe69 1.997 . S
O86 C81 1.235 . S
C87 O70 1.295 . S
C87 O71 1.235 . S
Fe88 O90 1.918 . S
Fe88 O93 1.997 . S
Fe88 O94 2.002 . S
Fe88 O99 1.976 . S
Fe88 O102 1.996 . S
Fe89 O90 1.918 1_655 S
Fe89 O97 1.997 . S
Fe89 O100 1.996 . S
Fe89 O104 1.976 . S
Fe89 O107 2.002 . S
O90 Fe88 1.918 . S
O90 Fe89 1.918 1_455 S
O90 Fe91 1.918 . S
Fe91 O90 1.918 . S
Fe91 O92 2.002 . S
Fe91 O101 1.976 . S
Fe91 O105 1.996 1_455 S
Fe91 O108 1.997 1_455 S
O92 Fe91 2.002 . S
O92 C109 1.295 . S
O93 Fe88 1.997 . S
O93 C109 1.235 . S
O94 Fe88 2.002 . S
O94 C95 1.295 . S
C95 O94 1.295 . S
C95 O97 1.235 1_455 S
C96 O101 1.287 . S
C96 O102 1.255 . S
O97 Fe89 1.997 . S
O97 C95 1.235 1_655 S
C98 O104 1.287 . S
C98 O105 1.255 . S
O99 Fe88 1.976 . S
O99 C106 1.287 . S
O100 Fe89 1.996 . S
O100 C106 1.255 1_655 S
O101 Fe91 1.976 . S
O101 C96 1.287 . S
O102 Fe88 1.996 . S
O102 C96 1.255 . S
C103 O107 1.295 . S
C103 O108 1.235 . S
O104 Fe89 1.976 . S
O104 C98 1.287 . S
O105 Fe91 1.996 1_655 S
O105 C98 1.255 . S
C106 O99 1.287 . S
C106 O100 1.255 1_455 S
O107 Fe89 2.002 . S
O107 C103 1.295 . S
O108 Fe91 1.997 1_655 S
O108 C103 1.235 . S
C109 O92 1.295 . S
C109 O93 1.235 . S
Fe110 O112 1.918 . S
Fe110 O115 1.997 . S
Fe110 O116 2.002 . S
Fe110 O121 1.976 . S
Fe110 O124 1.996 . S
Fe111 O112 1.918 . S
Fe111 O119 1.997 . S
Fe111 O122 1.996 . S
Fe111 O126 1.976 . S
Fe111 O129 2.002 . S
O112 Fe110 1.918 . S
O112 Fe111 1.918 . S
O112 Fe113 1.918 . S
Fe113 O112 1.918 . S
Fe113 O114 2.002 . S
Fe113 O123 1.976 . S
Fe113 O127 1.996 . S
Fe113 O130 1.997 . S
O114 Fe113 2.002 . S
O114 C131 1.295 . S
O115 Fe110 1.997 . S
O115 C131 1.235 . S
O116 Fe110 2.002 . S
O116 C117 1.295 . S
C117 O116 1.295 . S
C117 O119 1.235 . S
C118 O123 1.287 . S
C118 O124 1.255 . S
O119 Fe111 1.997 . S
O119 C117 1.235 . S
C120 O126 1.287 . S
C120 O127 1.255 . S
O121 Fe110 1.976 . S
O121 C128 1.287 . S
O122 Fe111 1.996 . S
O122 C128 1.255 . S
O123 Fe113 1.976 . S
O123 C118 1.287 . S
O124 Fe110 1.996 . S
O124 C118 1.255 . S
C125 O129 1.295 . S
C125 O130 1.235 . S
O126 Fe111 1.976 . S
O126 C120 1.287 . S
O127 Fe113 1.996 . S
O127 C120 1.255 . S
C128 O121 1.287 . S
C128 O122 1.255 . S
O129 Fe111 2.002 . S
O129 C125 1.295 . S
O130 Fe113 1.997 . S
O130 C125 1.235 . S
C131 O114 1.295 . S
C131 O115 1.235 . S
Fe132 O134 1.918 . S
Fe132 O137 1.997 . S
Fe132 O138 2.002 . S
Fe132 O143 1.976 . S
Fe132 O146 1.996 . S
Fe133 O134 1.918 . S
Fe133 O141 1.997 . S
Fe133 O144 1.996 . S
Fe133 O148 1.976 . S
Fe133 O151 2.002 . S
O134 Fe132 1.918 . S
O134 Fe133 1.918 . S
O134 Fe135 1.918 . S
Fe135 O134 1.918 . S
Fe135 O136 2.002 . S
Fe135 O145 1.976 . S
Fe135 O149 1.996 . S
Fe135 O152 1.997 . S
O136 Fe135 2.002 . S
O136 C153 1.295 . S
O137 Fe132 1.997 . S
O137 C153 1.235 . S
O138 Fe132 2.002 . S
O138 C139 1.295 . S
C139 O138 1.295 . S
C139 O141 1.235 . S
C140 O145 1.287 . S
C140 O146 1.255 . S
O141 Fe133 1.997 . S
O141 C139 1.235 . S
C142 O148 1.287 . S
C142 O149 1.255 . S
O143 Fe132 1.976 . S
O143 C150 1.287 . S
O144 Fe133 1.996 . S
O144 C150 1.255 . S
O145 Fe135 1.976 . S
O145 C140 1.287 . S
O146 Fe132 1.996 . S
O146 C140 1.255 . S
C147 O151 1.295 . S
C147 O152 1.235 . S
O148 Fe133 1.976 . S
O148 C142 1.287 . S
O149 Fe135 1.996 . S
O149 C142 1.255 . S
C150 O143 1.287 . S
C150 O144 1.255 . S
O151 Fe133 2.002 . S
O151 C147 1.295 . S
O152 Fe135 1.997 . S
O152 C147 1.235 . S
C153 O136 1.295 . S
C153 O137 1.235 . S
Fe154 O156 1.918 . S
Fe154 O159 1.997 1_455 S
Fe154 O160 2.002 1_455 S
Fe154 O165 1.976 . S
Fe154 O168 1.996 . S
Fe155 O156 1.918 . S
Fe155 O163 1.997 1_455 S
Fe155 O166 1.996 . S
Fe155 O170 1.976 . S
Fe155 O173 2.002 1_455 S
O156 Fe154 1.918 . S
O156 Fe155 1.918 . S
O156 Fe157 1.918 . S
Fe157 O156 1.918 . S
Fe157 O158 2.002 1_455 S
Fe157 O167 1.976 . S
Fe157 O171 1.996 . S
Fe157 O174 1.997 1_455 S
O158 Fe157 2.002 1_655 S
O158 C175 1.295 . S
O159 Fe154 1.997 1_655 S
O159 C175 1.235 . S
O160 Fe154 2.002 1_655 S
O160 C161 1.295 . S
C161 O160 1.295 . S
C161 O163 1.235 . S
C162 O167 1.287 . S
C162 O168 1.255 . S
O163 Fe155 1.997 1_655 S
O163 C161 1.235 . S
C164 O170 1.287 . S
C164 O171 1.255 . S
O165 Fe154 1.976 . S
O165 C172 1.287 . S
O166 Fe155 1.996 . S
O166 C172 1.255 . S
O167 Fe157 1.976 . S
O167 C162 1.287 . S
O168 Fe154 1.996 . S
O168 C162 1.255 . S
C169 O173 1.295 . S
C169 O174 1.235 . S
O170 Fe155 1.976 . S
O170 C164 1.287 . S
O171 Fe157 1.996 . S
O171 C164 1.255 . S
C172 O165 1.287 . S
C172 O166 1.255 . S
O173 Fe155 2.002 1_655 S
O173 C169 1.295 . S
O174 Fe157 1.997 1_655 S
O174 C169 1.235 . S
C175 O158 1.295 . S
C175 O159 1.235 . S
C176 C177 1.391 . S
C176 C178 1.394 . S
C176 H192 0.931 . S
C177 C176 1.391 . S
C177 C181 1.376 . S
C178 C176 1.394 . S
C178 C179 1.369 . S
C178 C182 1.531 . S
C179 C178 1.369 . S
C179 C180 1.410 . S
C179 C187 1.503 1_554 S
C180 C179 1.410 . S
C180 C181 1.392 . S
C180 C183 1.511 1_454 S
C181 C177 1.376 . S
C181 C180 1.392 . S
C181 H193 0.929 1_455 S
C182 C178 1.531 . S
C182 H194 0.960 . S
C182 H195 0.962 . S
C182 H196 0.960 . S
C183 C180 1.511 1_656 S
C183 H197 0.961 . S
C183 H198 0.961 . S
C183 H199 0.961 1_655 S
C184 C185 1.370 1_655 S
C184 C186 1.363 . S
C184 H200 0.931 . S
C185 C184 1.370 1_455 S
C185 C189 1.408 . S
C186 C184 1.363 . S
C186 C187 1.370 1_655 S
C186 C190 1.524 . S
C187 C179 1.503 1_556 S
C187 C186 1.370 1_455 S
C187 C188 1.403 . S
C188 C187 1.403 . S
C188 C189 1.404 . S
C188 C191 1.539 . S
C189 C185 1.408 . S
C189 C188 1.404 . S
C189 H201 0.930 . S
C190 C186 1.524 . S
C190 H202 0.956 1_556 S
C190 H203 0.961 . S
C190 H204 0.961 . S
C191 C188 1.539 . S
C191 H205 0.958 . S
C191 H206 0.961 . S
C191 H207 0.960 . S
H192 C176 0.931 . S
H193 C181 0.929 1_655 S
H194 C182 0.960 . S
H195 C182 0.962 . S
H196 C182 0.960 . S
H197 C183 0.961 . S
H198 C183 0.961 . S
H199 C183 0.961 1_455 S
H200 C184 0.931 . S
H201 C189 0.930 . S
H202 C190 0.956 1_554 S
H203 C190 0.961 . S
H204 C190 0.961 . S
H205 C191 0.958 . S
H206 C191 0.961 . S
H207 C191 0.960 . S
C208 C209 1.391 . S
C208 C210 1.394 . S
C208 H224 0.931 . S
C209 C208 1.391 . S
C209 C213 1.376 . S
C210 C208 1.394 . S
C210 C211 1.369 . S
C210 C214 1.531 . S
C211 C210 1.369 . S
C211 C212 1.410 . S
C211 C219 1.503 . S
C212 C211 1.410 . S
C212 C213 1.392 . S
C212 C215 1.511 . S
C213 C209 1.376 . S
C213 C212 1.392 . S
C213 H225 0.929 . S
C214 C210 1.531 . S
C214 H226 0.960 . S
C214 H227 0.962 . S
C214 H228 0.960 . S
C215 C212 1.511 . S
C215 H229 0.961 . S
C215 H230 0.961 . S
C215 H231 0.961 . S
C216 C217 1.370 . S
C216 C218 1.363 . S
C216 H232 0.931 . S
C217 C216 1.370 . S
C217 C221 1.408 . S
C218 C216 1.363 . S
C218 C219 1.370 . S
C218 C222 1.524 . S
C219 C211 1.503 . S
C219 C218 1.370 . S
C219 C220 1.403 . S
C220 C219 1.403 . S
C220 C221 1.404 . S
C220 C223 1.539 . S
C221 C217 1.408 . S
C221 C220 1.404 . S
C221 H233 0.930 . S
C222 C218 1.524 . S
C222 H234 0.956 . S
C222 H235 0.961 . S
C222 H236 0.961 . S
C223 C220 1.539 . S
C223 H237 0.958 . S
C223 H238 0.961 . S
C223 H239 0.960 . S
H224 C208 0.931 . S
H225 C213 0.929 . S
H226 C214 0.960 . S
H227 C214 0.962 . S
H228 C214 0.960 . S
H229 C215 0.961 . S
H230 C215 0.961 . S
H231 C215 0.961 . S
H232 C216 0.931 . S
H233 C221 0.930 . S
H234 C222 0.956 . S
H235 C222 0.961 . S
H236 C222 0.961 . S
H237 C223 0.958 . S
H238 C223 0.961 . S
H239 C223 0.960 . S
C240 C241 1.391 . S
C240 C242 1.394 . S
C240 H256 0.931 . S
C241 C240 1.391 . S
C241 C245 1.376 . S
C242 C240 1.394 . S
C242 C243 1.369 . S
C242 C246 1.531 . S
C243 C242 1.369 . S
C243 C244 1.410 . S
C243 C251 1.503 . S
C244 C243 1.410 . S
C244 C245 1.392 . S
C244 C247 1.511 . S
C245 C241 1.376 . S
C245 C244 1.392 . S
C245 H257 0.929 . S
C246 C242 1.531 . S
C246 H258 0.960 . S
C246 H259 0.962 . S
C246 H260 0.960 . S
C247 C244 1.511 . S
C247 H261 0.961 . S
C247 H262 0.961 . S
C247 H263 0.961 . S
C248 C249 1.370 . S
C248 C250 1.363 . S
C248 H264 0.931 . S
C249 C248 1.370 . S
C249 C253 1.408 . S
C250 C248 1.363 . S
C250 C251 1.370 . S
C250 C254 1.524 . S
C251 C243 1.503 . S
C251 C250 1.370 . S
C251 C252 1.403 . S
C252 C251 1.403 . S
C252 C253 1.404 . S
C252 C255 1.539 . S
C253 C249 1.408 . S
C253 C252 1.404 . S
C253 H265 0.930 . S
C254 C250 1.524 . S
C254 H266 0.956 . S
C254 H267 0.961 . S
C254 H268 0.961 . S
C255 C252 1.539 . S
C255 H269 0.958 . S
C255 H270 0.961 . S
C255 H271 0.960 . S
H256 C240 0.931 . S
H257 C245 0.929 . S
H258 C246 0.960 . S
H259 C246 0.962 . S
H260 C246 0.960 . S
H261 C247 0.961 . S
H262 C247 0.961 . S
H263 C247 0.961 . S
H264 C248 0.931 . S
H265 C253 0.930 . S
H266 C254 0.956 . S
H267 C254 0.961 . S
H268 C254 0.961 . S
H269 C255 0.958 . S
H270 C255 0.961 . S
H271 C255 0.960 . S
C272 C273 1.391 . S
C272 C274 1.394 . S
C272 H288 0.931 . S
C273 C272 1.391 . S
C273 C277 1.376 . S
C274 C272 1.394 . S
C274 C275 1.369 . S
C274 C278 1.531 . S
C275 C274 1.369 . S
C275 C276 1.410 . S
C275 C283 1.503 . S
C276 C275 1.410 . S
C276 C277 1.392 . S
C276 C279 1.511 . S
C277 C273 1.376 . S
C277 C276 1.392 . S
C277 H289 0.929 . S
C278 C274 1.531 . S
C278 H290 0.960 . S
C278 H291 0.962 . S
C278 H292 0.960 . S
C279 C276 1.511 . S
C279 H293 0.961 . S
C279 H294 0.961 . S
C279 H295 0.961 . S
C280 C281 1.370 . S
C280 C282 1.363 . S
C280 H296 0.931 . S
C281 C280 1.370 . S
C281 C285 1.408 . S
C282 C280 1.363 . S
C282 C283 1.370 . S
C282 C286 1.524 . S
C283 C275 1.503 . S
C283 C282 1.370 . S
C283 C284 1.403 . S
C284 C283 1.403 . S
C284 C285 1.404 . S
C284 C287 1.539 . S
C285 C281 1.408 . S
C285 C284 1.404 . S
C285 H297 0.930 . S
C286 C282 1.524 . S
C286 H298 0.956 . S
C286 H299 0.961 . S
C286 H300 0.961 . S
C287 C284 1.539 . S
C287 H301 0.958 . S
C287 H302 0.961 . S
C287 H303 0.960 . S
H288 C272 0.931 . S
H289 C277 0.929 . S
H290 C278 0.960 . S
H291 C278 0.962 . S
H292 C278 0.960 . S
H293 C279 0.961 . S
H294 C279 0.961 . S
H295 C279 0.961 . S
H296 C280 0.931 . S
H297 C285 0.930 . S
H298 C286 0.956 . S
H299 C286 0.961 . S
H300 C286 0.961 . S
H301 C287 0.958 . S
H302 C287 0.961 . S
H303 C287 0.960 . S
C304 C305 1.391 . S
C304 C306 1.394 . S
C304 H320 0.931 . S
C305 C304 1.391 . S
C305 C309 1.376 . S
C306 C304 1.394 . S
C306 C307 1.369 . S
C306 C310 1.531 . S
C307 C306 1.369 . S
C307 C308 1.410 . S
C307 C315 1.503 . S
C308 C307 1.410 . S
C308 C309 1.392 . S
C308 C311 1.511 . S
C309 C305 1.376 . S
C309 C308 1.392 . S
C309 H321 0.929 . S
C310 C306 1.531 . S
C310 H322 0.960 . S
C310 H323 0.962 . S
C310 H324 0.960 . S
C311 C308 1.511 . S
C311 H325 0.961 . S
C311 H326 0.961 . S
C311 H327 0.961 . S
C312 C313 1.370 . S
C312 C314 1.363 . S
C312 H328 0.931 . S
C313 C312 1.370 . S
C313 C317 1.408 . S
C314 C312 1.363 . S
C314 C315 1.370 . S
C314 C318 1.524 . S
C315 C307 1.503 . S
C315 C314 1.370 . S
C315 C316 1.403 . S
C316 C315 1.403 . S
C316 C317 1.404 . S
C316 C319 1.539 . S
C317 C313 1.408 . S
C317 C316 1.404 . S
C317 H329 0.930 . S
C318 C314 1.524 . S
C318 H330 0.956 . S
C318 H331 0.961 . S
C318 H332 0.961 . S
C319 C316 1.539 . S
C319 H333 0.958 . S
C319 H334 0.961 . S
C319 H335 0.960 . S
H320 C304 0.931 . S
H321 C309 0.929 . S
H322 C310 0.960 . S
H323 C310 0.962 . S
H324 C310 0.960 . S
H325 C311 0.961 . S
H326 C311 0.961 . S
H327 C311 0.961 . S
H328 C312 0.931 . S
H329 C317 0.930 . S
H330 C318 0.956 . S
H331 C318 0.961 . S
H332 C318 0.961 . S
H333 C319 0.958 . S
H334 C319 0.961 . S
H335 C319 0.960 . S
C336 C337 1.391 . S
C336 C338 1.394 . S
C336 H352 0.931 . S
C337 C336 1.391 . S
C337 C341 1.376 . S
C338 C336 1.394 . S
C338 C339 1.369 . S
C338 C342 1.531 . S
C339 C338 1.369 . S
C339 C340 1.410 . S
C339 C347 1.503 . S
C340 C339 1.410 . S
C340 C341 1.392 . S
C340 C343 1.511 . S
C341 C337 1.376 . S
C341 C340 1.392 . S
C341 H353 0.929 . S
C342 C338 1.531 . S
C342 H354 0.960 . S
C342 H355 0.962 . S
C342 H356 0.960 . S
C343 C340 1.511 . S
C343 H357 0.961 . S
C343 H358 0.961 . S
C343 H359 0.961 . S
C344 C345 1.370 . S
C344 C346 1.363 . S
C344 H360 0.931 . S
C345 C344 1.370 . S
C345 C349 1.408 . S
C346 C344 1.363 . S
C346 C347 1.370 . S
C346 C350 1.524 . S
C347 C339 1.503 . S
C347 C346 1.370 . S
C347 C348 1.403 . S
C348 C347 1.403 . S
C348 C349 1.404 . S
C348 C351 1.539 . S
C349 C345 1.408 . S
C349 C348 1.404 . S
C349 H361 0.930 . S
C350 C346 1.524 . S
C350 H362 0.956 . S
C350 H363 0.961 . S
C350 H364 0.961 . S
C351 C348 1.539 . S
C351 H365 0.958 . S
C351 H366 0.961 . S
C351 H367 0.960 . S
H352 C336 0.931 . S
H353 C341 0.929 . S
H354 C342 0.960 . S
H355 C342 0.962 . S
H356 C342 0.960 . S
H357 C343 0.961 . S
H358 C343 0.961 . S
H359 C343 0.961 . S
H360 C344 0.931 . S
H361 C349 0.930 . S
H362 C350 0.956 . S
H363 C350 0.961 . S
H364 C350 0.961 . S
H365 C351 0.958 . S
H366 C351 0.961 . S
H367 C351 0.960 . S
C368 C369 1.391 . S
C368 C370 1.394 . S
C368 H384 0.931 . S
C369 C368 1.391 . S
C369 C373 1.376 . S
C370 C368 1.394 . S
C370 C371 1.369 . S
C370 C374 1.531 1_545 S
C371 C370 1.369 . S
C371 C372 1.410 . S
C371 C379 1.503 1_545 S
C372 C371 1.410 . S
C372 C373 1.392 . S
C372 C375 1.511 . S
C373 C369 1.376 . S
C373 C372 1.392 . S
C373 H385 0.929 . S
C374 C370 1.531 1_565 S
C374 H386 0.960 . S
C374 H387 0.962 . S
C374 H388 0.960 . S
C375 C372 1.511 . S
C375 H389 0.961 . S
C375 H390 0.961 . S
C375 H391 0.961 . S
C376 C377 1.370 . S
C376 C378 1.363 . S
C376 H392 0.931 . S
C377 C376 1.370 . S
C377 C381 1.408 . S
C378 C376 1.363 . S
C378 C379 1.370 . S
C378 C382 1.524 1_565 S
C379 C371 1.503 1_565 S
C379 C378 1.370 . S
C379 C380 1.403 . S
C380 C379 1.403 . S
C380 C381 1.404 . S
C380 C383 1.539 . S
C381 C377 1.408 . S
C381 C380 1.404 . S
C381 H393 0.930 . S
C382 C378 1.524 1_545 S
C382 H394 0.956 . S
C382 H395 0.961 . S
C382 H396 0.961 . S
C383 C380 1.539 . S
C383 H397 0.958 . S
C383 H398 0.961 . S
C383 H399 0.960 . S
H384 C368 0.931 . S
H385 C373 0.929 . S
H386 C374 0.960 . S
H387 C374 0.962 . S
H388 C374 0.960 . S
H389 C375 0.961 . S
H390 C375 0.961 . S
H391 C375 0.961 . S
H392 C376 0.931 . S
H393 C381 0.930 . S
H394 C382 0.956 . S
H395 C382 0.961 . S
H396 C382 0.961 . S
H397 C383 0.958 . S
H398 C383 0.961 . S
H399 C383 0.960 . S
C400 C401 1.391 . S
C400 C402 1.394 . S
C400 H416 0.931 . S
C401 C400 1.391 . S
C401 C405 1.376 1_455 S
C402 C400 1.394 . S
C402 C403 1.369 1_455 S
C402 C406 1.531 1_545 S
C403 C402 1.369 1_655 S
C403 C404 1.410 . S
C403 C411 1.503 1_544 S
C404 C403 1.410 . S
C404 C405 1.392 . S
C404 C407 1.511 1_554 S
C405 C401 1.376 1_655 S
C405 C404 1.392 . S
C405 H417 0.929 . S
C406 C402 1.531 1_565 S
C406 H418 0.960 . S
C406 H419 0.962 . S
C406 H420 0.960 . S
C407 C404 1.511 1_556 S
C407 H421 0.961 . S
C407 H422 0.961 . S
C407 H423 0.961 . S
C408 C409 1.370 . S
C408 C410 1.363 . S
C408 H424 0.931 . S
C409 C408 1.370 . S
C409 C413 1.408 1_455 S
C410 C408 1.363 . S
C410 C411 1.370 1_455 S
C410 C414 1.524 1_565 S
C411 C403 1.503 1_566 S
C411 C410 1.370 1_655 S
C411 C412 1.403 . S
C412 C411 1.403 . S
C412 C413 1.404 . S
C412 C415 1.539 1_556 S
C413 C409 1.408 1_655 S
C413 C412 1.404 . S
C413 H425 0.930 . S
C414 C410 1.524 1_545 S
C414 H426 0.956 . S
C414 H427 0.961 . S
C414 H428 0.961 . S
C415 C412 1.539 1_554 S
C415 H429 0.958 . S
C415 H430 0.961 1_554 S
C415 H431 0.960 . S
H416 C400 0.931 . S
H417 C405 0.929 . S
H418 C406 0.960 . S
H419 C406 0.962 . S
H420 C406 0.960 . S
H421 C407 0.961 . S
H422 C407 0.961 . S
H423 C407 0.961 . S
H424 C408 0.931 . S
H425 C413 0.930 . S
H426 C414 0.956 . S
H427 C414 0.961 . S
H428 C414 0.961 . S
H429 C415 0.958 . S
H430 C415 0.961 1_556 S
H431 C415 0.960 . S
C432 C433 1.391 . S
C432 C434 1.394 . S
C432 H448 0.931 . S
C433 C432 1.391 . S
C433 C437 1.376 . S
C434 C432 1.394 . S
C434 C435 1.369 . S
C434 C438 1.531 1_565 S
C435 C434 1.369 . S
C435 C436 1.410 . S
C435 C443 1.503 1_565 S
C436 C435 1.410 . S
C436 C437 1.392 . S
C436 C439 1.511 . S
C437 C433 1.376 . S
C437 C436 1.392 . S
C437 H449 0.929 . S
C438 C434 1.531 1_545 S
C438 H450 0.960 . S
C438 H451 0.962 . S
C438 H452 0.960 . S
C439 C436 1.511 . S
C439 H453 0.961 . S
C439 H454 0.961 . S
C439 H455 0.961 . S
C440 C441 1.370 . S
C440 C442 1.363 . S
C440 H456 0.931 . S
C441 C440 1.370 . S
C441 C445 1.408 . S
C442 C440 1.363 . S
C442 C443 1.370 . S
C442 C446 1.524 . S
C443 C435 1.503 1_545 S
C443 C442 1.370 . S
C443 C444 1.403 . S
C444 C443 1.403 . S
C444 C445 1.404 . S
C444 C447 1.539 1_545 S
C445 C441 1.408 . S
C445 C444 1.404 . S
C445 H457 0.930 . S
C446 C442 1.524 . S
C446 H458 0.956 . S
C446 H459 0.961 . S
C446 H460 0.961 . S
C447 C444 1.539 1_565 S
C447 H461 0.958 1_565 S
C447 H462 0.961 . S
C447 H463 0.960 . S
H448 C432 0.931 . S
H449 C437 0.929 . S
H450 C438 0.960 . S
H451 C438 0.962 . S
H452 C438 0.960 . S
H453 C439 0.961 . S
H454 C439 0.961 . S
H455 C439 0.961 . S
H456 C440 0.931 . S
H457 C445 0.930 . S
H458 C446 0.956 . S
H459 C446 0.961 . S
H460 C446 0.961 . S
H461 C447 0.958 1_545 S
H462 C447 0.961 . S
H463 C447 0.960 . S
C464 C465 1.391 . S
C464 C466 1.394 . S
C464 H480 0.931 . S
C465 C464 1.391 . S
C465 C469 1.376 . S
C466 C464 1.394 . S
C466 C467 1.369 . S
C466 C470 1.531 . S
C467 C466 1.369 . S
C467 C468 1.410 1_565 S
C467 C475 1.503 1_565 S
C468 C467 1.410 1_545 S
C468 C469 1.392 1_545 S
C468 C471 1.511 . S
C469 C465 1.376 . S
C469 C468 1.392 1_565 S
C469 H481 0.929 . S
C470 C466 1.531 . S
C470 H482 0.960 . S
C470 H483 0.962 . S
C470 H484 0.960 . S
C471 C468 1.511 . S
C471 H485 0.961 . S
C471 H486 0.961 . S
C471 H487 0.961 . S
C472 C473 1.370 . S
C472 C474 1.363 . S
C472 H488 0.931 . S
C473 C472 1.370 . S
C473 C477 1.408 . S
C474 C472 1.363 . S
C474 C475 1.370 . S
C474 C478 1.524 1_545 S
C475 C467 1.503 1_545 S
C475 C474 1.370 . S
C475 C476 1.403 . S
C476 C475 1.403 . S
C476 C477 1.404 . S
C476 C479 1.539 . S
C477 C473 1.408 . S
C477 C476 1.404 . S
C477 H489 0.930 . S
C478 C474 1.524 1_565 S
C478 H490 0.956 . S
C478 H491 0.961 . S
C478 H492 0.961 . S
C479 C476 1.539 . S
C479 H493 0.958 . S
C479 H494 0.961 . S
C479 H495 0.960 . S
H480 C464 0.931 . S
H481 C469 0.929 . S
H482 C470 0.960 . S
H483 C470 0.962 . S
H484 C470 0.960 . S
H485 C471 0.961 . S
H486 C471 0.961 . S
H487 C471 0.961 . S
H488 C472 0.931 . S
H489 C477 0.930 . S
H490 C478 0.956 . S
H491 C478 0.961 . S
H492 C478 0.961 . S
H493 C479 0.958 . S
H494 C479 0.961 . S
H495 C479 0.960 . S
C496 C497 1.391 . S
C496 C498 1.394 . S
C496 H512 0.931 . S
C497 C496 1.391 . S
C497 C501 1.376 . S
C498 C496 1.394 . S
C498 C499 1.369 . S
C498 C502 1.531 1_545 S
C499 C498 1.369 . S
C499 C500 1.410 . S
C499 C507 1.503 1_545 S
C500 C499 1.410 . S
C500 C501 1.392 . S
C500 C503 1.511 . S
C501 C497 1.376 . S
C501 C500 1.392 . S
C501 H513 0.929 . S
C502 C498 1.531 1_565 S
C502 H514 0.960 . S
C502 H515 0.962 1_565 S
C502 H516 0.960 . S
C503 C500 1.511 . S
C503 H517 0.961 . S
C503 H518 0.961 . S
C503 H519 0.961 1_545 S
C504 C505 1.370 . S
C504 C506 1.363 . S
C504 H520 0.931 . S
C505 C504 1.370 . S
C505 C509 1.408 . S
C506 C504 1.363 . S
C506 C507 1.370 . S
C506 C510 1.524 1_565 S
C507 C499 1.503 1_565 S
C507 C506 1.370 . S
C507 C508 1.403 . S
C508 C507 1.403 . S
C508 C509 1.404 . S
C508 C511 1.539 . S
C509 C505 1.408 . S
C509 C508 1.404 . S
C509 H521 0.930 . S
C510 C506 1.524 1_545 S
C510 H522 0.956 . S
C510 H523 0.961 . S
C510 H524 0.961 . S
C511 C508 1.539 . S
C511 H525 0.958 . S
C511 H526 0.961 . S
C511 H527 0.960 . S
H512 C496 0.931 . S
H513 C501 0.929 . S
H514 C502 0.960 . S
H515 C502 0.962 1_545 S
H516 C502 0.960 . S
H517 C503 0.961 . S
H518 C503 0.961 . S
H519 C503 0.961 1_565 S
H520 C504 0.931 . S
H521 C509 0.930 . S
H522 C510 0.956 . S
H523 C510 0.961 . S
H524 C510 0.961 . S
H525 C511 0.958 . S
H526 C511 0.961 . S
H527 C511 0.960 . S
C528 C529 1.391 . S
C528 C530 1.394 . S
C528 H544 0.931 . S
C529 C528 1.391 . S
C529 C533 1.376 . S
C530 C528 1.394 . S
C530 C531 1.369 . S
C530 C534 1.531 . S
C531 C530 1.369 . S
C531 C532 1.410 . S
C531 C539 1.503 1_565 S
C532 C531 1.410 . S
C532 C533 1.392 . S
C532 C535 1.511 . S
C533 C529 1.376 . S
C533 C532 1.392 . S
C533 H545 0.929 . S
C534 C530 1.531 . S
C534 H546 0.960 1_565 S
C534 H547 0.962 . S
C534 H548 0.960 . S
C535 C532 1.511 . S
C535 H549 0.961 . S
C535 H550 0.961 . S
C535 H551 0.961 1_565 S
C536 C537 1.370 . S
C536 C538 1.363 1_545 S
C536 H552 0.931 . S
C537 C536 1.370 . S
C537 C541 1.408 . S
C538 C536 1.363 1_565 S
C538 C539 1.370 1_565 S
C538 C542 1.524 . S
C539 C531 1.503 1_545 S
C539 C538 1.370 1_545 S
C539 C540 1.403 . S
C540 C539 1.403 . S
C540 C541 1.404 . S
C540 C543 1.539 . S
C541 C537 1.408 . S
C541 C540 1.404 . S
C541 H553 0.930 . S
C542 C538 1.524 . S
C542 H554 0.956 . S
C542 H555 0.961 . S
C542 H556 0.961 . S
C543 C540 1.539 . S
C543 H557 0.958 . S
C543 H558 0.961 . S
C543 H559 0.960 . S
H544 C528 0.931 . S
H545 C533 0.929 . S
H546 C534 0.960 1_545 S
H547 C534 0.962 . S
H548 C534 0.960 . S
H549 C535 0.961 . S
H550 C535 0.961 . S
H551 C535 0.961 1_545 S
H552 C536 0.931 . S
H553 C541 0.930 . S
H554 C542 0.956 . S
H555 C542 0.961 . S
H556 C542 0.961 . S
H557 C543 0.958 . S
H558 C543 0.961 . S
H559 C543 0.960 . S
C560 C561 1.391 . S
C560 C562 1.394 . S
C560 H576 0.931 . S
C561 C560 1.391 . S
C561 C565 1.376 . S
C562 C560 1.394 . S
C562 C563 1.369 . S
C562 C566 1.531 1_565 S
C563 C562 1.369 . S
C563 C564 1.410 . S
C563 C571 1.503 1_565 S
C564 C563 1.410 . S
C564 C565 1.392 . S
C564 C567 1.511 . S
C565 C561 1.376 . S
C565 C564 1.392 . S
C565 H577 0.929 . S
C566 C562 1.531 1_545 S
C566 H578 0.960 . S
C566 H579 0.962 . S
C566 H580 0.960 . S
C567 C564 1.511 . S
C567 H581 0.961 . S
C567 H582 0.961 . S
C567 H583 0.961 . S
C568 C569 1.370 . S
C568 C570 1.363 . S
C568 H584 0.931 . S
C569 C568 1.370 . S
C569 C573 1.408 . S
C570 C568 1.363 . S
C570 C571 1.370 . S
C570 C574 1.524 1_545 S
C571 C563 1.503 1_545 S
C571 C570 1.370 . S
C571 C572 1.403 . S
C572 C571 1.403 . S
C572 C573 1.404 . S
C572 C575 1.539 . S
C573 C569 1.408 . S
C573 C572 1.404 . S
C573 H585 0.930 . S
C574 C570 1.524 1_565 S
C574 H586 0.956 . S
C574 H587 0.961 . S
C574 H588 0.961 . S
C575 C572 1.539 . S
C575 H589 0.958 . S
C575 H590 0.961 . S
C575 H591 0.960 . S
H576 C560 0.931 . S
H577 C565 0.929 . S
H578 C566 0.960 . S
H579 C566 0.962 . S
H580 C566 0.960 . S
H581 C567 0.961 . S
H582 C567 0.961 . S
H583 C567 0.961 . S
H584 C568 0.931 . S
H585 C573 0.930 . S
H586 C574 0.956 . S
H587 C574 0.961 . S
H588 C574 0.961 . S
H589 C575 0.958 . S
H590 C575 0.961 . S
H591 C575 0.960 . S
C592 C593 1.391 . S
C592 C594 1.394 1_545 S
C592 H608 0.931 . S
C593 C592 1.391 . S
C593 C597 1.376 . S
C594 C592 1.394 1_565 S
C594 C595 1.369 1_565 S
C594 C598 1.531 . S
C595 C594 1.369 1_545 S
C595 C596 1.410 . S
C595 C603 1.503 1_545 S
C596 C595 1.410 . S
C596 C597 1.392 . S
C596 C599 1.511 . S
C597 C593 1.376 . S
C597 C596 1.392 . S
C597 H609 0.929 . S
C598 C594 1.531 . S
C598 H610 0.960 . S
C598 H611 0.962 . S
C598 H612 0.960 . S
C599 C596 1.511 . S
C599 H613 0.961 . S
C599 H614 0.961 . S
C599 H615 0.961 . S
C600 C601 1.370 . S
C600 C602 1.363 . S
C600 H616 0.931 . S
C601 C600 1.370 . S
C601 C605 1.408 . S
C602 C600 1.363 . S
C602 C603 1.370 . S
C602 C606 1.524 1_565 S
C603 C595 1.503 1_565 S
C603 C602 1.370 . S
C603 C604 1.403 . S
C604 C603 1.403 . S
C604 C605 1.404 . S
C604 C607 1.539 . S
C605 C601 1.408 . S
C605 C604 1.404 . S
C605 H617 0.930 . S
C606 C602 1.524 1_545 S
C606 H618 0.956 . S
C606 H619 0.961 . S
C606 H620 0.961 . S
C607 C604 1.539 . S
C607 H621 0.958 . S
C607 H622 0.961 . S
C607 H623 0.960 . S
H608 C592 0.931 . S
H609 C597 0.929 . S
H610 C598 0.960 . S
H611 C598 0.962 . S
H612 C598 0.960 . S
H613 C599 0.961 . S
H614 C599 0.961 . S
H615 C599 0.961 . S
H616 C600 0.931 . S
H617 C605 0.930 . S
H618 C606 0.956 . S
H619 C606 0.961 . S
H620 C606 0.961 . S
H621 C607 0.958 . S
H622 C607 0.961 . S
H623 C607 0.960 . S
C624 C625 1.391 . S
C624 C626 1.394 . S
C624 H640 0.931 . S
C625 C624 1.391 . S
C625 C629 1.376 . S
C626 C624 1.394 . S
C626 C627 1.369 . S
C626 C630 1.531 . S
C627 C626 1.369 . S
C627 C628 1.404 1_565 S
C627 C635 1.503 1_565 S
C628 C627 1.404 1_545 S
C628 C629 1.382 1_545 S
C628 C631 1.526 . S
C629 C625 1.376 . S
C629 C628 1.382 1_565 S
C629 H641 0.929 . S
C630 C626 1.531 . S
C630 H642 0.960 . S
C630 H643 0.962 . S
C630 H644 0.960 . S
C631 C628 1.526 . S
C631 H645 0.961 . S
C631 H646 0.961 . S
C631 H647 0.961 . S
C632 C633 1.370 . S
C632 C634 1.363 . S
C632 H648 0.931 . S
C633 C632 1.370 . S
C633 C637 1.408 . S
C634 C632 1.363 . S
C634 C635 1.370 . S
C634 C638 1.524 . S
C635 C627 1.503 1_545 S
C635 C634 1.370 . S
C635 C636 1.403 . S
C636 C635 1.403 . S
C636 C637 1.404 . S
C636 C639 1.539 1_545 S
C637 C633 1.408 . S
C637 C636 1.404 . S
C637 H649 0.930 . S
C638 C634 1.524 . S
C638 H650 0.956 . S
C638 H651 0.961 . S
C638 H652 0.961 . S
C639 C636 1.539 1_565 S
C639 H653 0.958 . S
C639 H654 0.961 1_565 S
C639 H655 0.960 . S
H640 C624 0.931 . S
H641 C629 0.929 . S
H642 C630 0.960 . S
H643 C630 0.962 . S
H644 C630 0.960 . S
H645 C631 0.961 . S
H646 C631 0.961 . S
H647 C631 0.961 . S
H648 C632 0.931 . S
H649 C637 0.930 . S
H650 C638 0.956 . S
H651 C638 0.961 . S
H652 C638 0.961 . S
H653 C639 0.958 . S
H654 C639 0.961 1_545 S
H655 C639 0.960 . S
C656 C657 1.391 . S
C656 C658 1.394 . S
C656 H672 0.931 . S
C657 C656 1.391 . S
C657 C661 1.376 . S
C658 C656 1.394 . S
C658 C659 1.369 . S
C658 C662 1.531 1_565 S
C659 C658 1.369 . S
C659 C660 1.410 . S
C659 C667 1.503 1_565 S
C660 C659 1.410 . S
C660 C661 1.392 . S
C660 C663 1.511 . S
C661 C657 1.376 . S
C661 C660 1.392 . S
C661 H673 0.929 . S
C662 C658 1.531 1_545 S
C662 H674 0.960 . S
C662 H675 0.962 1_545 S
C662 H676 0.960 . S
C663 C660 1.511 . S
C663 H677 0.961 . S
C663 H678 0.961 1_565 S
C663 H679 0.961 1_565 S
C664 C665 1.370 . S
C664 C666 1.363 . S
C664 H680 0.931 . S
C665 C664 1.370 . S
C665 C669 1.408 . S
C666 C664 1.363 . S
C666 C667 1.370 . S
C666 C670 1.524 1_545 S
C667 C659 1.503 1_545 S
C667 C666 1.370 . S
C667 C668 1.403 . S
C668 C667 1.403 . S
C668 C669 1.404 . S
C668 C671 1.539 . S
C669 C665 1.408 . S
C669 C668 1.404 . S
C669 H681 0.930 . S
C670 C666 1.524 1_565 S
C670 H682 0.956 . S
C670 H683 0.961 . S
C670 H684 0.961 . S
C671 C668 1.539 . S
C671 H685 0.958 . S
C671 H686 0.961 . S
C671 H687 0.960 . S
H672 C656 0.931 . S
H673 C661 0.929 . S
H674 C662 0.960 . S
H675 C662 0.962 1_565 S
H676 C662 0.960 . S
H677 C663 0.961 . S
H678 C663 0.961 1_545 S
H679 C663 0.961 1_545 S
H680 C664 0.931 . S
H681 C669 0.930 . S
H682 C670 0.956 . S
H683 C670 0.961 . S
H684 C670 0.961 . S
H685 C671 0.958 . S
H686 C671 0.961 . S
H687 C671 0.960 . S
C688 C689 1.391 . S
C688 C690 1.394 . S
C688 H704 0.931 . S
C689 C688 1.391 . S
C689 C693 1.376 . S
C690 C688 1.394 . S
C690 C691 1.369 . S
C690 C694 1.531 . S
C691 C690 1.369 . S
C691 C692 1.410 . S
C691 C699 1.503 . S
C692 C691 1.410 . S
C692 C693 1.392 . S
C692 C695 1.511 . S
C693 C689 1.376 . S
C693 C692 1.392 . S
C693 H705 0.929 . S
C694 C690 1.531 . S
C694 H706 0.960 . S
C694 H707 0.962 . S
C694 H708 0.960 . S
C695 C692 1.511 . S
C695 H709 0.961 . S
C695 H710 0.961 . S
C695 H711 0.961 . S
C696 C697 1.370 . S
C696 C698 1.363 . S
C696 H712 0.931 . S
C697 C696 1.370 . S
C697 C701 1.408 . S
C698 C696 1.363 . S
C698 C699 1.370 . S
C698 C702 1.524 . S
C699 C691 1.503 . S
C699 C698 1.370 . S
C699 C700 1.403 . S
C700 C699 1.403 . S
C700 C701 1.404 . S
C700 C703 1.539 . S
C701 C697 1.408 . S
C701 C700 1.404 . S
C701 H713 0.930 . S
C702 C698 1.524 . S
C702 H714 0.956 . S
C702 H715 0.961 . S
C702 H716 0.961 . S
C703 C700 1.539 . S
C703 H717 0.958 . S
C703 H718 0.961 . S
C703 H719 0.960 . S
H704 C688 0.931 . S
H705 C693 0.929 . S
H706 C694 0.960 . S
H707 C694 0.962 . S
H708 C694 0.960 . S
H709 C695 0.961 . S
H710 C695 0.961 . S
H711 C695 0.961 . S
H712 C696 0.931 . S
H713 C701 0.930 . S
H714 C702 0.956 . S
H715 C702 0.961 . S
H716 C702 0.961 . S
H717 C703 0.958 . S
H718 C703 0.961 . S
H719 C703 0.960 . S
C720 C721 1.391 . S
C720 C722 1.394 . S
C720 H736 0.931 . S
C721 C720 1.391 . S
C721 C725 1.376 . S
C722 C720 1.394 . S
C722 C723 1.369 . S
C722 C726 1.531 . S
C723 C722 1.369 . S
C723 C724 1.410 . S
C723 C731 1.503 . S
C724 C723 1.410 . S
C724 C725 1.392 . S
C724 C727 1.511 . S
C725 C721 1.376 . S
C725 C724 1.392 . S
C725 H737 0.929 . S
C726 C722 1.531 . S
C726 H738 0.960 . S
C726 H739 0.962 . S
C726 H740 0.960 . S
C727 C724 1.511 . S
C727 H741 0.961 . S
C727 H742 0.961 . S
C727 H743 0.961 . S
C728 C729 1.370 . S
C728 C730 1.363 . S
C728 H744 0.931 . S
C729 C728 1.370 . S
C729 C733 1.408 . S
C730 C728 1.363 . S
C730 C731 1.370 . S
C730 C734 1.524 . S
C731 C723 1.503 . S
C731 C730 1.370 . S
C731 C732 1.403 . S
C732 C731 1.403 . S
C732 C733 1.404 . S
C732 C735 1.539 . S
C733 C729 1.408 . S
C733 C732 1.404 . S
C733 H745 0.930 . S
C734 C730 1.524 . S
C734 H746 0.956 . S
C734 H747 0.961 . S
C734 H748 0.961 . S
C735 C732 1.539 . S
C735 H749 0.958 . S
C735 H750 0.961 . S
C735 H751 0.960 . S
H736 C720 0.931 . S
H737 C725 0.929 . S
H738 C726 0.960 . S
H739 C726 0.962 . S
H740 C726 0.960 . S
H741 C727 0.961 . S
H742 C727 0.961 . S
H743 C727 0.961 . S
H744 C728 0.931 . S
H745 C733 0.930 . S
H746 C734 0.956 . S
H747 C734 0.961 . S
H748 C734 0.961 . S
H749 C735 0.958 . S
H750 C735 0.961 . S
H751 C735 0.960 . S
C752 C753 1.391 . S
C752 C754 1.394 . S
C752 H768 0.931 . S
C753 C752 1.391 . S
C753 C757 1.376 . S
C754 C752 1.394 . S
C754 C755 1.369 . S
C754 C758 1.531 . S
C755 C754 1.369 . S
C755 C756 1.410 . S
C755 C763 1.503 . S
C756 C755 1.410 . S
C756 C757 1.392 . S
C756 C759 1.511 . S
C757 C753 1.376 . S
C757 C756 1.392 . S
C757 H769 0.929 . S
C758 C754 1.531 . S
C758 H770 0.960 . S
C758 H771 0.962 . S
C758 H772 0.960 . S
C759 C756 1.511 . S
C759 H773 0.961 . S
C759 H774 0.961 . S
C759 H775 0.961 . S
C760 C761 1.370 . S
C760 C762 1.363 . S
C760 H776 0.931 . S
C761 C760 1.370 . S
C761 C765 1.408 . S
C762 C760 1.363 . S
C762 C763 1.370 . S
C762 C766 1.524 . S
C763 C755 1.503 . S
C763 C762 1.370 . S
C763 C764 1.403 . S
C764 C763 1.403 . S
C764 C765 1.404 . S
C764 C767 1.539 . S
C765 C761 1.408 . S
C765 C764 1.404 . S
C765 H777 0.930 . S
C766 C762 1.524 . S
C766 H778 0.956 . S
C766 H779 0.961 . S
C766 H780 0.961 . S
C767 C764 1.539 . S
C767 H781 0.958 . S
C767 H782 0.961 . S
C767 H783 0.960 . S
H768 C752 0.931 . S
H769 C757 0.929 . S
H770 C758 0.960 . S
H771 C758 0.962 . S
H772 C758 0.960 . S
H773 C759 0.961 . S
H774 C759 0.961 . S
H775 C759 0.961 . S
H776 C760 0.931 . S
H777 C765 0.930 . S
H778 C766 0.956 . S
H779 C766 0.961 . S
H780 C766 0.961 . S
H781 C767 0.958 . S
H782 C767 0.961 . S
H783 C767 0.960 . S
C784 C785 1.391 . S
C784 C786 1.394 . S
C784 H800 0.931 . S
C785 C784 1.391 . S
C785 C789 1.376 . S
C786 C784 1.394 . S
C786 C787 1.369 . S
C786 C790 1.531 . S
C787 C786 1.369 . S
C787 C788 1.410 . S
C787 C795 1.503 . S
C788 C787 1.410 . S
C788 C789 1.392 . S
C788 C791 1.511 . S
C789 C785 1.376 . S
C789 C788 1.392 . S
C789 H801 0.929 . S
C790 C786 1.531 . S
C790 H802 0.960 . S
C790 H803 0.962 . S
C790 H804 0.960 . S
C791 C788 1.511 . S
C791 H805 0.961 . S
C791 H806 0.961 . S
C791 H807 0.961 . S
C792 C793 1.370 . S
C792 C794 1.363 . S
C792 H808 0.931 . S
C793 C792 1.370 . S
C793 C797 1.408 . S
C794 C792 1.363 . S
C794 C795 1.370 . S
C794 C798 1.524 . S
C795 C787 1.503 . S
C795 C794 1.370 . S
C795 C796 1.403 . S
C796 C795 1.403 . S
C796 C797 1.404 . S
C796 C799 1.539 . S
C797 C793 1.408 . S
C797 C796 1.404 . S
C797 H809 0.930 . S
C798 C794 1.524 . S
C798 H810 0.956 . S
C798 H811 0.961 . S
C798 H812 0.961 . S
C799 C796 1.539 . S
C799 H813 0.958 . S
C799 H814 0.961 . S
C799 H815 0.960 . S
H800 C784 0.931 . S
H801 C789 0.929 . S
H802 C790 0.960 . S
H803 C790 0.962 . S
H804 C790 0.960 . S
H805 C791 0.961 . S
H806 C791 0.961 . S
H807 C791 0.961 . S
H808 C792 0.931 . S
H809 C797 0.930 . S
H810 C798 0.956 . S
H811 C798 0.961 . S
H812 C798 0.961 . S
H813 C799 0.958 . S
H814 C799 0.961 . S
H815 C799 0.960 . S
C816 C817 1.391 . S
C816 C818 1.394 . S
C816 H832 0.931 . S
C817 C816 1.391 . S
C817 C821 1.376 . S
C818 C816 1.394 . S
C818 C819 1.369 . S
C818 C822 1.531 . S
C819 C818 1.369 . S
C819 C820 1.410 . S
C819 C827 1.503 . S
C820 C819 1.410 . S
C820 C821 1.392 . S
C820 C823 1.511 . S
C821 C817 1.376 . S
C821 C820 1.392 . S
C821 H833 0.929 . S
C822 C818 1.531 . S
C822 H834 0.960 . S
C822 H835 0.962 . S
C822 H836 0.960 . S
C823 C820 1.511 . S
C823 H837 0.961 . S
C823 H838 0.961 . S
C823 H839 0.961 . S
C824 C825 1.370 . S
C824 C826 1.363 . S
C824 H840 0.931 . S
C825 C824 1.370 . S
C825 C829 1.408 . S
C826 C824 1.363 . S
C826 C827 1.370 . S
C826 C830 1.524 . S
C827 C819 1.503 . S
C827 C826 1.370 . S
C827 C828 1.403 . S
C828 C827 1.403 . S
C828 C829 1.404 . S
C828 C831 1.539 . S
C829 C825 1.408 . S
C829 C828 1.404 . S
C829 H841 0.930 . S
C830 C826 1.524 . S
C830 H842 0.956 . S
C830 H843 0.961 . S
C830 H844 0.961 . S
C831 C828 1.539 . S
C831 H845 0.958 . S
C831 H846 0.961 . S
C831 H847 0.960 . S
H832 C816 0.931 . S
H833 C821 0.929 . S
H834 C822 0.960 . S
H835 C822 0.962 . S
H836 C822 0.960 . S
H837 C823 0.961 . S
H838 C823 0.961 . S
H839 C823 0.961 . S
H840 C824 0.931 . S
H841 C829 0.930 . S
H842 C830 0.956 . S
H843 C830 0.961 . S
H844 C830 0.961 . S
H845 C831 0.958 . S
H846 C831 0.961 . S
H847 C831 0.960 . S
C848 C849 1.391 . S
C848 C850 1.394 . S
C848 H864 0.931 . S
C849 C848 1.391 . S
C849 C853 1.376 . S
C850 C848 1.394 . S
C850 C851 1.369 . S
C850 C854 1.531 . S
C851 C850 1.369 . S
C851 C852 1.410 . S
C851 C859 1.503 . S
C852 C851 1.410 . S
C852 C853 1.392 . S
C852 C855 1.511 . S
C853 C849 1.376 . S
C853 C852 1.392 . S
C853 H865 0.929 . S
C854 C850 1.531 . S
C854 H866 0.960 . S
C854 H867 0.962 . S
C854 H868 0.960 . S
C855 C852 1.511 . S
C855 H869 0.961 . S
C855 H870 0.961 . S
C855 H871 0.961 . S
C856 C857 1.370 . S
C856 C858 1.363 . S
C856 H872 0.931 . S
C857 C856 1.370 . S
C857 C861 1.408 . S
C858 C856 1.363 . S
C858 C859 1.370 . S
C858 C862 1.524 . S
C859 C851 1.503 . S
C859 C858 1.370 . S
C859 C860 1.403 . S
C860 C859 1.403 . S
C860 C861 1.404 . S
C860 C863 1.539 . S
C861 C857 1.408 . S
C861 C860 1.404 . S
C861 H873 0.930 . S
C862 C858 1.524 . S
C862 H874 0.956 . S
C862 H875 0.961 . S
C862 H876 0.961 . S
C863 C860 1.539 . S
C863 H877 0.958 . S
C863 H878 0.961 . S
C863 H879 0.960 . S
H864 C848 0.931 . S
H865 C853 0.929 . S
H866 C854 0.960 . S
H867 C854 0.962 . S
H868 C854 0.960 . S
H869 C855 0.961 . S
H870 C855 0.961 . S
H871 C855 0.961 . S
H872 C856 0.931 . S
H873 C861 0.930 . S
H874 C862 0.956 . S
H875 C862 0.961 . S
H876 C862 0.961 . S
H877 C863 0.958 . S
H878 C863 0.961 . S
H879 C863 0.960 . S
C880 C881 1.391 . S
C880 C882 1.394 . S
C880 H896 0.931 . S
C881 C880 1.391 . S
C881 C885 1.376 . S
C882 C880 1.394 . S
C882 C883 1.369 . S
C882 C886 1.531 . S
C883 C882 1.369 . S
C883 C884 1.410 . S
C883 C891 1.503 . S
C884 C883 1.410 . S
C884 C885 1.392 . S
C884 C887 1.511 . S
C885 C881 1.376 . S
C885 C884 1.392 . S
C885 H897 0.929 . S
C886 C882 1.531 . S
C886 H898 0.960 . S
C886 H899 0.962 . S
C886 H900 0.960 . S
C887 C884 1.511 . S
C887 H901 0.961 . S
C887 H902 0.961 . S
C887 H903 0.961 . S
C888 C889 1.370 . S
C888 C890 1.363 . S
C888 H904 0.931 . S
C889 C888 1.370 . S
C889 C893 1.408 . S
C890 C888 1.363 . S
C890 C891 1.370 . S
C890 C894 1.524 . S
C891 C883 1.503 . S
C891 C890 1.370 . S
C891 C892 1.403 . S
C892 C891 1.403 . S
C892 C893 1.404 . S
C892 C895 1.539 . S
C893 C889 1.408 . S
C893 C892 1.404 . S
C893 H905 0.930 . S
C894 C890 1.524 . S
C894 H906 0.956 . S
C894 H907 0.961 . S
C894 H908 0.961 . S
C895 C892 1.539 . S
C895 H909 0.958 . S
C895 H910 0.961 . S
C895 H911 0.960 . S
H896 C880 0.931 . S
H897 C885 0.929 . S
H898 C886 0.960 . S
H899 C886 0.962 . S
H900 C886 0.960 . S
H901 C887 0.961 . S
H902 C887 0.961 . S
H903 C887 0.961 . S
H904 C888 0.931 . S
H905 C893 0.930 . S
H906 C894 0.956 . S
H907 C894 0.961 . S
H908 C894 0.961 . S
H909 C895 0.958 . S
H910 C895 0.961 . S
H911 C895 0.960 . S
C912 C913 1.391 . S
C912 C914 1.394 . S
C912 H928 0.931 . S
C913 C912 1.391 . S
C913 C917 1.376 . S
C914 C912 1.394 . S
C914 C915 1.369 . S
C914 C918 1.531 . S
C915 C914 1.369 . S
C915 C916 1.410 . S
C915 C923 1.503 . S
C916 C915 1.410 . S
C916 C917 1.392 . S
C916 C919 1.511 . S
C917 C913 1.376 . S
C917 C916 1.392 . S
C917 H929 0.929 . S
C918 C914 1.531 . S
C918 H930 0.960 . S
C918 H931 0.962 . S
C918 H932 0.960 . S
C919 C916 1.511 . S
C919 H933 0.961 . S
C919 H934 0.961 . S
C919 H935 0.961 . S
C920 C921 1.370 . S
C920 C922 1.363 . S
C920 H936 0.931 . S
C921 C920 1.370 . S
C921 C925 1.408 . S
C922 C920 1.363 . S
C922 C923 1.370 . S
C922 C926 1.524 . S
C923 C915 1.503 . S
C923 C922 1.370 . S
C923 C924 1.403 . S
C924 C923 1.403 . S
C924 C925 1.404 . S
C924 C927 1.539 . S
C925 C921 1.408 . S
C925 C924 1.404 . S
C925 H937 0.930 . S
C926 C922 1.524 . S
C926 H938 0.956 . S
C926 H939 0.961 . S
C926 H940 0.961 . S
C927 C924 1.539 . S
C927 H941 0.958 . S
C927 H942 0.961 . S
C927 H943 0.960 . S
H928 C912 0.931 . S
H929 C917 0.929 . S
H930 C918 0.960 . S
H931 C918 0.962 . S
H932 C918 0.960 . S
H933 C919 0.961 . S
H934 C919 0.961 . S
H935 C919 0.961 . S
H936 C920 0.931 . S
H937 C925 0.930 . S
H938 C926 0.956 . S
H939 C926 0.961 . S
H940 C926 0.961 . S
H941 C927 0.958 . S
H942 C927 0.961 . S
H943 C927 0.960 . S
C177 C15 1.623 . S
C185 C95 1.633 . S
C209 C128 1.527 . S
C217 C30 1.534 . S
C241 C62 1.530 . S
C249 C150 1.532 . S
C273 C87 1.633 . S
C281 C161 1.629 . S
C305 C74 1.527 . S
C313 C172 1.534 . S
C337 C117 1.638 . S
C345 C43 1.628 . S
C369 C139 1.636 . S
C377 C51 1.628 . S
C401 C10 1.529 . S
C409 C106 1.532 . S
C433 C125 1.382 . S
C441 C18 1.399 . S
C465 C29 1.451 . S
C473 C147 1.447 . S
C497 C162 1.392 . S
C505 C59 1.384 . S
C529 C96 1.338 . S
C537 C76 1.338 . S
C561 C98 1.393 . S
C569 C81 1.394 . S
C593 C175 1.453 . S
C601 C65 1.445 . S
C625 C40 1.387 . S
C633 C153 1.391 . S
C657 C120 1.333 . S
C665 C8 1.334 . S
C689 C169 1.372 . S
C697 C52 1.397 . S
C721 C103 1.451 . S
C729 C73 1.455 . S
C753 C118 1.396 . S
C761 C21 1.387 . S
C785 C32 1.335 . S
C793 C140 1.339 . S
C817 C142 1.396 . S
C825 C37 1.383 . S
C849 C7 1.458 . S
C857 C131 1.451 . S
C881 C109 1.379 . S
C889 C84 1.394 . S
C913 C164 1.338 . S
C921 C54 1.334 . S
