# Generated by pormake.
# Topology lcy-e, (6)-cn, num edge types: 1
# Building blocks:
#     Node 0, Type 0, BuildingBlock: JUFBIX_clean_sbu_0, # of connection points: 6
#     Node 1, Type 0, BuildingBlock: JUFBIX_clean_sbu_0, # of connection points: 6
#     Node 2, Type 0, BuildingBlock: JUFBIX_clean_sbu_0, # of connection points: 6
#     Node 3, Type 0, BuildingBlock: JUFBIX_clean_sbu_0, # of connection points: 6
#     Node 4, Type 0, BuildingBlock: JUFBIX_clean_sbu_0, # of connection points: 6
#     Node 5, Type 0, BuildingBlock: JUFBIX_clean_sbu_0, # of connection points: 6
#     Node 6, Type 0, BuildingBlock: JUFBIX_clean_sbu_0, # of connection points: 6
#     Node 7, Type 0, BuildingBlock: JUFBIX_clean_sbu_0, # of connection points: 6
#     Node 8, Type 0, BuildingBlock: JUFBIX_clean_sbu_0, # of connection points: 6
#     Node 9, Type 0, BuildingBlock: JUFBIX_clean_sbu_0, # of connection points: 6
#     Node 10, Type 0, BuildingBlock: JUFBIX_clean_sbu_0, # of connection points: 6
#     Node 11, Type 0, BuildingBlock: JUFBIX_clean_sbu_0, # of connection points: 6
#     Edge 12, Type (0, 0), BuildingBlock: XUDNAN_clean_linker_2, # of connection points: 2
#     Edge 13, Type (0, 0), BuildingBlock: XUDNAN_clean_linker_2, # of connection points: 2
#     Edge 14, Type (0, 0), BuildingBlock: XUDNAN_clean_linker_2, # of connection points: 2
#     Edge 15, Type (0, 0), BuildingBlock: XUDNAN_clean_linker_2, # of connection points: 2
#     Edge 16, Type (0, 0), BuildingBlock: XUDNAN_clean_linker_2, # of connection points: 2
#     Edge 17, Type (0, 0), BuildingBlock: XUDNAN_clean_linker_2, # of connection points: 2
#     Edge 18, Type (0, 0), BuildingBlock: XUDNAN_clean_linker_2, # of connection points: 2
#     Edge 19, Type (0, 0), BuildingBlock: XUDNAN_clean_linker_2, # of connection points: 2
#     Edge 20, Type (0, 0), BuildingBlock: XUDNAN_clean_linker_2, # of connection points: 2
#     Edge 21, Type (0, 0), BuildingBlock: XUDNAN_clean_linker_2, # of connection points: 2
#     Edge 22, Type (0, 0), BuildingBlock: XUDNAN_clean_linker_2, # of connection points: 2
#     Edge 23, Type (0, 0), BuildingBlock: XUDNAN_clean_linker_2, # of connection points: 2
#     Edge 24, Type (0, 0), BuildingBlock: XUDNAN_clean_linker_2, # of connection points: 2
#     Edge 25, Type (0, 0), BuildingBlock: XUDNAN_clean_linker_2, # of connection points: 2
#     Edge 26, Type (0, 0), BuildingBlock: XUDNAN_clean_linker_2, # of connection points: 2
#     Edge 27, Type (0, 0), BuildingBlock: XUDNAN_clean_linker_2, # of connection points: 2
#     Edge 28, Type (0, 0), BuildingBlock: XUDNAN_clean_linker_2, # of connection points: 2
#     Edge 29, Type (0, 0), BuildingBlock: XUDNAN_clean_linker_2, # of connection points: 2
#     Edge 30, Type (0, 0), BuildingBlock: XUDNAN_clean_linker_2, # of connection points: 2
#     Edge 31, Type (0, 0), BuildingBlock: XUDNAN_clean_linker_2, # of connection points: 2
#     Edge 32, Type (0, 0), BuildingBlock: XUDNAN_clean_linker_2, # of connection points: 2
#     Edge 33, Type (0, 0), BuildingBlock: XUDNAN_clean_linker_2, # of connection points: 2
#     Edge 34, Type (0, 0), BuildingBlock: XUDNAN_clean_linker_2, # of connection points: 2
#     Edge 35, Type (0, 0), BuildingBlock: XUDNAN_clean_linker_2, # of connection points: 2
#     Edge 36, Type (0, 0), BuildingBlock: XUDNAN_clean_linker_2, # of connection points: 2
#     Edge 37, Type (0, 0), BuildingBlock: XUDNAN_clean_linker_2, # of connection points: 2
#     Edge 38, Type (0, 0), BuildingBlock: XUDNAN_clean_linker_2, # of connection points: 2
#     Edge 39, Type (0, 0), BuildingBlock: XUDNAN_clean_linker_2, # of connection points: 2
#     Edge 40, Type (0, 0), BuildingBlock: XUDNAN_clean_linker_2, # of connection points: 2
#     Edge 41, Type (0, 0), BuildingBlock: XUDNAN_clean_linker_2, # of connection points: 2
#     Edge 42, Type (0, 0), BuildingBlock: XUDNAN_clean_linker_2, # of connection points: 2
#     Edge 43, Type (0, 0), BuildingBlock: XUDNAN_clean_linker_2, # of connection points: 2
#     Edge 44, Type (0, 0), BuildingBlock: XUDNAN_clean_linker_2, # of connection points: 2
#     Edge 45, Type (0, 0), BuildingBlock: XUDNAN_clean_linker_2, # of connection points: 2
#     Edge 46, Type (0, 0), BuildingBlock: XUDNAN_clean_linker_2, # of connection points: 2
#     Edge 47, Type (0, 0), BuildingBlock: XUDNAN_clean_linker_2, # of connection points: 2
# Relax obj value: 0.479
# Max RMSD: 0.346
# Mean RMSD: 0.290
data_MOF--net-lcy-e--node1-JUFBIX_clean_sbu_0--edge1-XUDNAN_clean_linker_2
_symmetry_space_group_name_H-M    P1
_symmetry_Int_Tables_number       1
_symmetry_cell_setting            triclinic
loop_
_symmetry_equiv_pos_as_xyz
'x, y, z'
_cell_length_a     36.728885
_cell_length_b     39.242763
_cell_length_c     36.486198
_cell_angle_alpha  87.852083
_cell_angle_beta   89.950443
_cell_angle_gamma 83.134793
loop_
_atom_site_label
_atom_site_type_symbol
_atom_site_fract_x
_atom_site_fract_y
_atom_site_fract_z
_atom_type_partial_charge
Co0 Co 0.17496 0.21139 0.45756 0.0
C1 C 0.10294 0.21603 0.48595 0.0
Co2 Co 0.14193 0.17262 0.43672 0.0
C3 C 0.18268 0.27982 0.4737 0.0
C4 C 0.2343 0.24888 0.4814 0.0
N5 N 0.19892 0.24724 0.47254 0.0
N6 N 0.20618 0.30188 0.48289 0.0
C7 C 0.23889 0.28264 0.48766 0.0
H8 H 0.15422 0.28745 0.46647 0.0
H9 H 0.25543 0.22715 0.48244 0.0
C10 C 0.21512 0.16794 0.41032 0.0
N11 N 0.11692 0.13718 0.42075 0.0
C12 C 0.08253 0.13842 0.40708 0.0
C13 C 0.13038 0.10371 0.42076 0.0
N14 N 0.07391 0.10695 0.39859 0.0
C15 C 0.10418 0.08517 0.40734 0.0
C16 C 0.13732 0.22933 0.39076 0.0
O17 O 0.21708 0.1936 0.43019 0.0
O18 O 0.18493 0.15486 0.4092 0.0
O19 O 0.12503 0.20054 0.39499 0.0
O20 O 0.15793 0.23878 0.41543 0.0
O21 O 0.0994 0.19087 0.46555 0.0
H22 H 0.15752 0.09337 0.43021 0.0
H23 H 0.06438 0.1621 0.40334 0.0
O24 O 0.13298 0.22895 0.48535 0.0
O25 O 0.19211 0.1834 0.49927 0.0
O26 O 0.15952 0.14495 0.47773 0.0
C27 C 0.18123 0.15383 0.50168 0.0
H28 H 0.26422 0.29226 0.49501 0.0
H29 H 0.10724 0.05759 0.40502 0.0
Co30 Co 0.04261 0.85411 0.69778 0.0
C31 C 0.98618 0.89985 0.7254 0.0
Co32 Co 0.05037 0.90832 0.68696 0.0
C33 C 0.05901 0.78314 0.71824 0.0
C34 C 1.00426 0.79413 0.69756 0.0
N35 N 0.03481 0.80877 0.70423 0.0
N36 N 0.04465 0.7531 0.72175 0.0
C37 C 0.01017 0.75992 0.70844 0.0
H38 H 0.08628 0.78694 0.72718 0.0
H39 H 0.97885 0.80777 0.68706 0.0
C40 C 0.10482 0.86126 0.65878 0.0
N41 N 0.05991 0.95345 0.68075 0.0
C42 C 0.08261 0.96577 0.65581 0.0
C43 C 0.0536 0.97837 0.70525 0.0
N44 N 0.09174 0.99681 0.66435 0.0
C45 C 0.07302 0.00512 0.69516 0.0
C46 C 0.0851 0.87802 0.75155 0.0
O47 O 0.08578 0.83987 0.67361 0.0
O48 O 0.09453 0.89316 0.66053 0.0
O49 O 0.07844 0.90522 0.73145 0.0
O50 O 0.06998 0.85176 0.74331 0.0
O51 O 0.00547 0.9226 0.71298 0.0
H52 H 0.03827 0.97613 0.73037 0.0
H53 H 0.09368 0.95152 0.63271 0.0
O54 O 0.99819 0.86834 0.72229 0.0
O55 O 0.01678 0.85662 0.6519 0.0
O56 O 0.02314 0.91112 0.64208 0.0
C57 C 0.01137 0.88385 0.63156 0.0
H58 H 0.98968 0.74225 0.70922 0.0
H59 H 0.07511 0.02779 0.71066 0.0
Co60 Co 0.32988 0.77543 0.97542 0.0
C61 C 0.39918 0.76982 0.00831 0.0
Co62 Co 0.36707 0.8116 0.95147 0.0
C63 C 0.30526 0.70799 0.9925 0.0
C64 C 0.27092 0.7488 0.01693 0.0
N65 N 0.30071 0.74269 0.99541 0.0
N66 N 0.27974 0.6924 0.0115 0.0
C67 C 0.2582 0.71812 0.02697 0.0
H68 H 0.32733 0.69425 0.97734 0.0
H69 H 0.2591 0.77398 0.02495 0.0
C70 C 0.29599 0.8182 0.92009 0.0
N71 N 0.39641 0.84387 0.93177 0.0
C72 C 0.43333 0.84228 0.9282 0.0
C73 C 0.38372 0.87627 0.92069 0.0
N74 N 0.44412 0.87248 0.91541 0.0
C75 C 0.41266 0.89374 0.91069 0.0
C76 C 0.37117 0.7516 0.91534 0.0
O77 O 0.29057 0.79462 0.94374 0.0
O78 O 0.3274 0.82902 0.91852 0.0
O79 O 0.38498 0.77966 0.91698 0.0
O80 O 0.34659 0.74475 0.93815 0.0
O81 O 0.40502 0.79397 0.98552 0.0
H82 H 0.3552 0.887 0.9211 0.0
H83 H 0.45184 0.8195 0.9355 0.0
O84 O 0.36905 0.75693 1.00676 0.0
O85 O 0.31429 0.80801 0.0127 0.0
O86 O 0.34958 0.84293 0.98571 0.0
C87 C 0.32766 0.83658 0.01109 0.0
H88 H 0.23458 0.71501 0.04399 0.0
H89 H 0.41049 0.92057 0.90204 0.0
Co90 Co 0.49102 0.1303 0.2156 0.0
C91 C 0.52376 0.06105 0.22796 0.0
Co92 Co 0.46341 0.08983 0.19007 0.0
C93 C 0.51105 0.18251 0.26299 0.0
C94 C 0.5569 0.15858 0.23343 0.0
N95 N 0.52025 0.15976 0.23666 0.0
N96 N 0.54059 0.19512 0.27696 0.0
C97 C 0.56945 0.18018 0.25805 0.0
H98 H 0.4833 0.18853 0.27271 0.0
H99 H 0.57373 0.14144 0.21601 0.0
C100 C 0.43399 0.16046 0.176 0.0
N101 N 0.43061 0.06119 0.17133 0.0
C102 C 0.43144 0.03413 0.14895 0.0
C103 C 0.3946 0.06892 0.17911 0.0
N104 N 0.39723 0.0255 0.14289 0.0
C105 C 0.37444 0.04726 0.16216 0.0
C106 C 0.43698 0.11 0.26074 0.0
O107 O 0.46005 0.16768 0.19585 0.0
O108 O 0.43067 0.12905 0.17084 0.0
O109 O 0.43634 0.08944 0.2349 0.0
O110 O 0.46052 0.13122 0.25928 0.0
O111 O 0.4979 0.05191 0.20847 0.0
H112 H 0.38308 0.09 0.19538 0.0
H113 H 0.4561 0.02207 0.13626 0.0
O114 O 0.5231 0.09254 0.23532 0.0
O115 O 0.5202 0.12937 0.17082 0.0
O116 O 0.4908 0.09002 0.14614 0.0
C117 C 0.51576 0.10993 0.14419 0.0
H118 H 0.59799 0.18276 0.26309 0.0
H119 H 0.34488 0.04796 0.16317 0.0
Co120 Co 0.67898 0.33061 0.52168 0.0
C121 C 0.61621 0.31207 0.4905 0.0
Co122 Co 0.62941 0.34645 0.5537 0.0
C123 C 0.74704 0.29084 0.50698 0.0
C124 C 0.72602 0.31948 0.45905 0.0
N125 N 0.72074 0.31582 0.49549 0.0
N126 N 0.76687 0.27694 0.47905 0.0
C127 C 0.75435 0.29549 0.44886 0.0
H128 H 0.74861 0.27972 0.5346 0.0
H129 H 0.70763 0.33535 0.44052 0.0
C130 C 0.69349 0.3653 0.58305 0.0
N131 N 0.58779 0.36005 0.5799 0.0
C132 C 0.55444 0.37206 0.56633 0.0
C133 C 0.58336 0.35786 0.61657 0.0
N134 N 0.52924 0.37739 0.59302 0.0
C135 C 0.54736 0.36865 0.62474 0.0
C136 C 0.66193 0.28238 0.57636 0.0
O137 O 0.70742 0.35078 0.555 0.0
O138 O 0.6592 0.36601 0.58883 0.0
O139 O 0.63467 0.30462 0.58136 0.0
O140 O 0.68468 0.28828 0.55133 0.0
O141 O 0.60035 0.32661 0.51781 0.0
H142 H 0.6048 0.3485 0.63601 0.0
H143 H 0.5489 0.37708 0.53737 0.0
O144 O 0.65073 0.31058 0.4878 0.0
O145 O 0.67243 0.37273 0.49313 0.0
O146 O 0.62399 0.38892 0.52648 0.0
C147 C 0.64594 0.39519 0.50088 0.0
H148 H 0.76143 0.28895 0.42096 0.0
H149 H 0.5354 0.3696 0.65186 0.0
Co150 Co 0.98033 0.38091 0.74167 0.0
C151 C 0.98376 0.32037 0.70146 0.0
Co152 Co 0.95542 0.33834 0.7699 0.0
C153 C 0.03043 0.43135 0.72978 0.0
C154 C 1.00064 0.42263 0.68117 0.0
N155 N 1.00408 0.41358 0.71713 0.0
N156 N 0.04392 0.45065 0.70292 0.0
C157 C 0.02529 0.44529 0.67232 0.0
H158 H 0.04088 0.42879 0.75762 0.0
H159 H 0.98237 0.41238 0.66234 0.0
C160 C 0.95273 0.40128 0.80778 0.0
N161 N 0.92892 0.30629 0.7951 0.0
C162 C 0.93095 0.27142 0.79784 0.0
C163 C 0.89772 0.31724 0.81301 0.0
N164 N 0.90196 0.26084 0.81641 0.0
C165 C 0.88132 0.28973 0.82593 0.0
C166 C 0.02695 0.33797 0.78985 0.0
O167 O 0.9685 0.41156 0.77931 0.0
O168 O 0.94476 0.37045 0.80965 0.0
O169 O 0.99978 0.32083 0.79397 0.0
O170 O 0.02441 0.36385 0.76745 0.0
O171 O 0.96698 0.30768 0.72862 0.0
H172 H 0.8865 0.34383 0.8153 0.0
H173 H 0.95215 0.25428 0.78512 0.0
O174 O 0.99233 0.35064 0.70324 0.0
O175 O 0.93561 0.39787 0.71702 0.0
O176 O 0.91126 0.35653 0.74651 0.0
C177 C 0.90785 0.38264 0.7248 0.0
H178 H 0.03001 0.45617 0.64526 0.0
H179 H 0.85558 0.29082 0.8406 0.0
Co180 Co 0.93645 0.65138 1.00689 0.0
C181 C 0.87005 0.68563 0.98285 0.0
Co182 Co 0.889 0.63442 0.03533 0.0
C183 C 1.00117 0.64852 0.96333 0.0
C184 C 0.98402 0.69965 0.98003 0.0
N185 N 0.9762 0.66707 0.98397 0.0
N186 N 0.02348 0.66828 0.94544 0.0
C187 C 0.01302 0.70049 0.95634 0.0
H188 H 1.00154 0.62128 0.95956 0.0
H189 H 0.96801 0.72168 0.99139 0.0
C190 C 0.956 0.6041 0.06226 0.0
N191 N 0.85083 0.61629 0.05757 0.0
C192 C 0.81826 0.63138 0.0692 0.0
C193 C 0.84962 0.58221 0.06312 0.0
N194 N 0.79676 0.60781 0.08103 0.0
C195 C 0.8163 0.57693 0.07741 0.0
C196 C 0.91277 0.59492 0.97488 0.0
O197 O 0.96863 0.62243 0.03715 0.0
O198 O 0.92162 0.6048 0.06568 0.0
O199 O 0.88926 0.59973 1.0001 0.0
O200 O 0.93676 0.61554 0.97161 0.0
O201 O 0.8564 0.66534 1.00562 0.0
H202 H 0.87145 0.56238 0.05658 0.0
H203 H 0.81016 0.65885 0.06816 0.0
O204 O 0.9044 0.68166 0.97714 0.0
O205 O 0.93537 0.68678 0.04206 0.0
O206 O 0.88817 0.66907 0.07068 0.0
C207 C 0.91143 0.6905 0.06737 0.0
H208 H 0.02304 0.72355 0.94518 0.0
H209 H 0.80714 0.55239 0.08488 0.0
Co210 Co 0.52763 0.61831 0.28131 0.0
C211 C 0.51155 0.68062 0.24216 0.0
Co212 Co 0.55469 0.66035 0.30323 0.0
C213 C 0.49633 0.55581 0.27758 0.0
C214 C 0.51124 0.57391 0.2242 0.0
N215 N 0.50942 0.58238 0.25969 0.0
N216 N 0.49052 0.53077 0.25487 0.0
C217 C 0.49961 0.54206 0.22115 0.0
H218 H 0.4923 0.55435 0.30697 0.0
H219 H 0.52135 0.58944 0.2022 0.0
C220 C 0.57152 0.59669 0.3407 0.0
N221 N 0.57335 0.69509 0.32779 0.0
C222 C 0.59243 0.72133 0.31764 0.0
C223 C 0.5688 0.69774 0.36437 0.0
N224 N 0.59903 0.74029 0.34662 0.0
C225 C 0.58427 0.72537 0.37587 0.0
C226 C 0.4852 0.65039 0.33225 0.0
O227 O 0.5508 0.5869 0.31661 0.0
O228 O 0.57681 0.62808 0.34042 0.0
O229 O 0.51172 0.66824 0.3317 0.0
O230 O 0.48589 0.62528 0.31132 0.0
O231 O 0.53278 0.69188 0.2654 0.0
H232 H 0.55515 0.68042 0.38187 0.0
H233 H 0.60092 0.72661 0.28979 0.0
O234 O 0.50479 0.64961 0.24543 0.0
O235 O 0.56884 0.6116 0.25165 0.0
O236 O 0.59714 0.65248 0.27401 0.0
C237 C 0.59599 0.62871 0.25145 0.0
H238 H 0.4976 0.52846 0.1961 0.0
H239 H 0.58526 0.73356 0.40384 0.0
Co240 Co 0.22729 0.41847 0.15002 0.0
C241 C 0.23375 0.45754 0.0856 0.0
Co242 Co 0.19704 0.40047 0.10365 0.0
C243 C 0.27976 0.41316 0.20862 0.0
C244 C 0.25119 0.46388 0.20213 0.0
N245 N 0.25352 0.43228 0.1885 0.0
N246 N 0.29443 0.43167 0.23396 0.0
C247 C 0.27628 0.4636 0.23001 0.0
H248 H 0.28893 0.38647 0.20382 0.0
H249 H 0.23352 0.48605 0.19145 0.0
C250 C 0.18933 0.36442 0.17045 0.0
N251 N 0.16892 0.38597 0.06605 0.0
C252 C 0.17685 0.37849 0.03075 0.0
C253 C 0.13405 0.37899 0.07075 0.0
N254 N 0.1482 0.36706 0.01377 0.0
C255 C 0.12137 0.36726 0.0388 0.0
C256 C 0.26626 0.36594 0.11078 0.0
O257 O 0.21082 0.38493 0.1812 0.0
O258 O 0.17974 0.36592 0.13683 0.0
O259 O 0.23742 0.3684 0.09113 0.0
O260 O 0.268 0.38656 0.13662 0.0
O261 O 0.21445 0.43623 0.07155 0.0
H262 H 0.11894 0.38168 0.09615 0.0
H263 H 0.20321 0.38057 0.01811 0.0
O264 O 0.24338 0.45318 0.11904 0.0
O265 O 0.18663 0.44942 0.16329 0.0
O266 O 0.15685 0.43194 0.11683 0.0
C267 C 0.15772 0.45059 0.14431 0.0
H268 H 0.28267 0.48591 0.24417 0.0
H269 H 0.09466 0.35907 0.0343 0.0
Co270 Co 0.73219 0.01142 0.90417 0.0
C271 C 0.75401 0.99534 0.83319 0.0
Co272 Co 0.70006 0.04292 0.8611 0.0
C273 C 0.75744 0.94655 0.93719 0.0
C274 C 0.7815 0.98523 0.96517 0.0
N275 N 0.75771 0.98088 0.93803 0.0
N276 N 0.77955 0.92925 0.96259 0.0
C277 C 0.79525 0.95332 0.98022 0.0
H278 H 0.7425 0.93405 0.91709 0.0
H279 H 0.78899 0.0098 0.97293 0.0
C280 C 0.67904 0.05823 0.9336 0.0
N281 N 0.67503 0.07184 0.82555 0.0
C282 C 0.68985 0.08822 0.79699 0.0
C283 C 0.63868 0.08157 0.82273 0.0
N284 N 0.66427 0.10792 0.77639 0.0
C285 C 0.63198 0.10372 0.79261 0.0
C286 C 0.66723 0.98561 0.88115 0.0
O287 O 0.70524 0.03499 0.94197 0.0
O288 O 0.67233 0.06646 0.89986 0.0
O289 O 0.66363 0.01147 0.85881 0.0
O290 O 0.69494 0.98138 0.9023 0.0
O291 O 0.72887 0.01903 0.82312 0.0
H292 H 0.61838 0.07317 0.84141 0.0
H293 H 0.71904 0.08616 0.79189 0.0
O294 O 0.75867 0.98775 0.86697 0.0
O295 O 0.7694 0.04264 0.90506 0.0
O296 O 0.73575 0.07379 0.86363 0.0
C297 C 0.76452 0.0691 0.88336 0.0
H298 H 0.81518 0.9482 1.00218 0.0
H299 H 0.60529 0.11548 0.78327 0.0
Co300 Co 0.80848 0.96161 0.37332 0.0
C301 C 0.77363 0.96913 0.30544 0.0
Co302 Co 0.83676 0.92835 0.33193 0.0
C303 C 0.80343 0.01115 0.42723 0.0
C304 C 0.74961 1.00149 0.41157 0.0
N305 N 0.78541 0.99006 0.40758 0.0
N306 N 0.78076 0.03665 0.44157 0.0
C307 C 0.74667 0.03029 0.43248 0.0
H308 H 0.83302 0.00982 0.42779 0.0
H309 H 0.72749 0.99187 0.3971 0.0
C310 C 0.86902 0.92103 0.40216 0.0
N311 N 0.86246 0.90039 0.29767 0.0
C312 C 0.85186 0.882 0.2696 0.0
C313 C 0.89944 0.89632 0.2962 0.0
N314 N 0.88101 0.86713 0.25078 0.0
C315 C 0.9108 0.87619 0.26751 0.0
C316 C 0.86349 0.99185 0.33739 0.0
O317 O 0.84317 0.94415 0.40907 0.0
O318 O 0.87134 0.90915 0.37008 0.0
O319 O 0.86822 0.96377 0.32076 0.0
O320 O 0.83766 0.99635 0.36023 0.0
O321 O 0.80027 0.94761 0.29497 0.0
H322 H 0.91716 0.908 0.3144 0.0
H323 H 0.82352 0.88059 0.26231 0.0
O324 O 0.77362 0.97914 0.33807 0.0
O325 O 0.77902 0.92681 0.38576 0.0
O326 O 0.80586 0.89408 0.34347 0.0
C327 C 0.78131 0.89933 0.36796 0.0
H328 H 0.72175 0.04729 0.43698 0.0
H329 H 0.93889 0.86921 0.25906 0.0
Co330 Co 0.26244 0.59457 0.56359 0.0
C331 C 0.24136 0.57883 0.63579 0.0
Co332 Co 0.29961 0.60634 0.60781 0.0
C333 C 0.22903 0.55442 0.51193 0.0
C334 C 0.19194 0.59745 0.52759 0.0
N335 N 0.2273 0.58363 0.53054 0.0
N336 N 0.19609 0.54837 0.4991 0.0
C337 C 0.17271 0.57583 0.50836 0.0
H338 H 0.25319 0.53588 0.51115 0.0
H339 H 0.18004 0.61995 0.5415 0.0
C340 C 0.31996 0.62073 0.53441 0.0
N341 N 0.33535 0.61565 0.64022 0.0
C342 C 0.33298 0.63178 0.67229 0.0
C343 C 0.37156 0.60651 0.63522 0.0
N344 N 0.36641 0.63308 0.68731 0.0
C345 C 0.39065 0.6171 0.66403 0.0
C346 C 0.31436 0.54022 0.58325 0.0
O347 O 0.29118 0.60824 0.52544 0.0
O348 O 0.32816 0.62242 0.56812 0.0
O349 O 0.32408 0.56193 0.60479 0.0
O350 O 0.28734 0.54891 0.56204 0.0
O351 O 0.27041 0.59006 0.64674 0.0
H352 H 0.38338 0.59287 0.612 0.0
H353 H 0.30733 0.64278 0.68398 0.0
O354 O 0.23361 0.58029 0.60186 0.0
O355 O 0.23892 0.64072 0.56585 0.0
O356 O 0.27517 0.65076 0.61116 0.0
C357 C 0.24923 0.66115 0.589 0.0
H358 H 0.1433 0.57883 0.50431 0.0
H359 H 0.4201 0.61298 0.6677 0.0
H360 H 0.25068 0.3511 0.46689 0.0
H361 H 0.14161 0.33543 0.5044 0.0
H362 H 0.12477 0.39808 0.50576 0.0
H363 H 0.26093 0.42256 0.52251 0.0
H364 H 0.28539 0.44476 0.48808 0.0
H365 H 0.28817 0.39865 0.48883 0.0
H366 H 0.26595 0.40172 0.42115 0.0
H367 H 0.26255 0.44793 0.42051 0.0
H368 H 0.22321 0.42707 0.40882 0.0
H369 H 0.12077 0.46193 0.50656 0.0
H370 H 0.13109 0.52246 0.51008 0.0
H371 H 0.24155 0.49738 0.46857 0.0
C372 C 0.22336 0.36091 0.47554 0.0
C373 C 0.19738 0.33844 0.48533 0.0
C374 C 0.16176 0.35222 0.49626 0.0
C375 C 0.15193 0.38774 0.49712 0.0
C376 C 0.17795 0.40921 0.48675 0.0
C377 C 0.21298 0.39639 0.47629 0.0
C378 C 0.23604 0.42515 0.46762 0.0
C379 C 0.2696 0.42262 0.49329 0.0
C380 C 0.2476 0.42548 0.42711 0.0
C381 C 0.20869 0.456 0.47558 0.0
C382 C 0.1753 0.44626 0.48636 0.0
C383 C 0.14661 0.47 0.49761 0.0
C384 C 0.15266 0.50451 0.49918 0.0
C385 C 0.18719 0.51496 0.4896 0.0
C386 C 0.21491 0.49037 0.47628 0.0
H387 H 0.80988 0.02147 0.79632 0.0
H388 H 0.75932 0.92848 0.8169 0.0
H389 H 0.8124 0.89454 0.78872 0.0
H390 H 0.85715 0.99557 0.70801 0.0
H391 H 0.89724 0.01537 0.71956 0.0
H392 H 0.85276 0.03293 0.7357 0.0
H393 H 0.87755 0.02776 0.80229 0.0
H394 H 0.92184 0.0095 0.78655 0.0
H395 H 0.89776 0.98654 0.82068 0.0
H396 H 0.87337 0.86998 0.76619 0.0
H397 H 0.9368 0.85604 0.74527 0.0
H398 H 0.95006 0.96465 0.739 0.0
C399 C 0.80933 0.99421 0.79308 0.0
C400 C 0.77994 0.9776 0.80734 0.0
C401 C 0.78099 0.94166 0.80486 0.0
C402 C 0.81118 0.9222 0.78923 0.0
C403 C 0.84032 0.93907 0.7765 0.0
C404 C 0.83956 0.97431 0.77773 0.0
C405 C 0.87589 0.98551 0.76486 0.0
C406 C 0.87042 0.00872 0.72995 0.0
C407 C 0.89433 1.00338 0.79542 0.0
C408 C 0.89733 0.951 0.75687 0.0
C409 C 0.87613 0.92467 0.7638 0.0
C410 C 0.89007 0.89041 0.76016 0.0
C411 C 0.92636 0.88276 0.74845 0.0
C412 C 0.94866 0.90919 0.74034 0.0
C413 C 0.93381 0.94383 0.74482 0.0
H414 H 0.25873 0.65709 0.07187 0.0
H415 H 0.29181 0.64518 0.95869 0.0
H416 H 0.28233 0.58357 0.96375 0.0
H417 H 0.30375 0.57549 0.10546 0.0
H418 H 0.26843 0.56863 0.13832 0.0
H419 H 0.27662 0.61168 0.12493 0.0
H420 H 0.2083 0.62613 0.10588 0.0
H421 H 0.20008 0.58307 0.11923 0.0
H422 H 0.18884 0.59977 0.07344 0.0
H423 H 0.26546 0.52248 0.98152 0.0
H424 H 0.25051 0.46806 0.01209 0.0
H425 H 0.23352 0.52028 0.11434 0.0
C426 C 0.26383 0.64155 0.0481 0.0
C427 C 0.27578 0.65607 0.01477 0.0
C428 C 0.2828 0.63463 0.98451 0.0
C429 C 0.27724 0.59964 0.98711 0.0
C430 C 0.26515 0.58618 0.02037 0.0
C431 C 0.25907 0.60653 0.05046 0.0
C432 C 0.24774 0.58584 0.08358 0.0
C433 C 0.27581 0.58539 0.11491 0.0
C434 C 0.20894 0.59954 0.09626 0.0
C435 C 0.24833 0.55068 0.0676 0.0
C436 C 0.25778 0.55128 0.03094 0.0
C437 C 0.2585 0.52178 0.01034 0.0
C438 C 0.24988 0.49098 0.02782 0.0
C439 C 0.24149 0.48974 0.06569 0.0
C440 C 0.24058 0.52017 0.0855 0.0
H441 H 0.57549 0.07161 0.27828 0.0
H442 H 0.55089 0.99931 0.19753 0.0
H443 H 0.61372 0.96844 0.20556 0.0
H444 H 0.6653 0.07907 0.24961 0.0
H445 H 0.68309 0.08266 0.29515 0.0
H446 H 0.63554 0.09672 0.28525 0.0
H447 H 0.61567 0.05636 0.3375 0.0
H448 H 0.66316 0.04281 0.34815 0.0
H449 H 0.63293 0.01135 0.33829 0.0
H450 H 0.68281 0.94735 0.22153 0.0
H451 H 0.7458 0.93575 0.24775 0.0
H452 H 0.72303 0.02441 0.31511 0.0
C453 C 0.58286 0.04882 0.26275 0.0
C454 C 0.5579 0.03774 0.23752 0.0
C455 C 0.56914 0.008 0.21754 0.0
C456 C 0.605 0.99055 0.22164 0.0
C457 C 0.62935 1.00313 0.24583 0.0
C458 C 0.6183 0.03141 0.26635 0.0
C459 C 0.64924 0.04076 0.28991 0.0
C460 C 0.65884 0.07694 0.27933 0.0
C461 C 0.63968 0.03761 0.33088 0.0
C462 C 0.67972 0.01341 0.27961 0.0
C463 C 0.6681 0.99183 0.25412 0.0
C464 C 0.69198 0.96427 0.24142 0.0
C465 C 0.72794 0.95807 0.2561 0.0
C466 C 0.73968 0.97933 0.28323 0.0
C467 C 0.71523 0.00776 0.2942 0.0
H468 H 0.73666 0.22382 0.50961 0.0
H469 H 0.82882 0.2503 0.44506 0.0
H470 H 0.84893 0.18826 0.43722 0.0
H471 H 0.78059 0.14071 0.55279 0.0
H472 H 0.73892 0.12114 0.54815 0.0
H473 H 0.73671 0.16651 0.55532 0.0
H474 H 0.697 0.17964 0.49702 0.0
H475 H 0.69902 0.13455 0.48918 0.0
H476 H 0.71384 0.16317 0.45392 0.0
H477 H 0.85354 0.12486 0.42975 0.0
H478 H 0.84076 0.06618 0.41901 0.0
H479 H 0.74348 0.0815 0.48681 0.0
C480 C 0.76208 0.21648 0.49535 0.0
C481 C 0.78205 0.24155 0.4789 0.0
C482 C 0.81385 0.23122 0.45847 0.0
C483 C 0.82538 0.19619 0.45405 0.0
C484 C 0.80453 0.1721 0.47008 0.0
C485 C 0.77346 0.18189 0.49028 0.0
C486 C 0.75256 0.15181 0.49985 0.0
C487 C 0.75221 0.1446 0.54152 0.0
C488 C 0.71331 0.15766 0.48402 0.0
C489 C 0.77594 0.12362 0.48072 0.0
C490 C 0.80626 0.13565 0.46451 0.0
C491 C 0.83036 0.115 0.44298 0.0
C492 C 0.82286 0.0815 0.4372 0.0
C493 C 0.79119 0.06901 0.45249 0.0
C494 C 0.76798 0.09025 0.47513 0.0
H495 H 0.09908 0.44755 0.65477 0.0
H496 H 0.05981 0.49412 0.7552 0.0
H497 H 0.11255 0.52855 0.75473 0.0
H498 H 0.19805 0.44398 0.67574 0.0
H499 H 0.20885 0.45296 0.62842 0.0
H500 H 0.17053 0.42987 0.63968 0.0
H501 H 0.12736 0.47476 0.6012 0.0
H502 H 0.16551 0.4977 0.58974 0.0
H503 H 0.12551 0.51962 0.61103 0.0
H504 H 0.1661 0.56334 0.73731 0.0
H505 H 0.21379 0.59343 0.70517 0.0
H506 H 0.2174 0.52019 0.61896 0.0
C507 C 0.10188 0.46476 0.67684 0.0
C508 C 0.07555 0.46866 0.70478 0.0
C509 C 0.08002 0.49097 0.73359 0.0
C510 C 0.10982 0.51046 0.73353 0.0
C511 C 0.13512 0.50649 0.70493 0.0
C512 C 0.13151 0.48372 0.67743 0.0
C513 C 0.16071 0.48509 0.6486 0.0
C514 C 0.18604 0.45095 0.64811 0.0
C515 C 0.14375 0.4949 0.61043 0.0
C516 C 0.18042 0.51332 0.66311 0.0
C517 C 0.16588 0.52532 0.6958 0.0
C518 C 0.17816 0.55363 0.71213 0.0
C519 C 0.20524 0.5705 0.69391 0.0
C520 C 0.219 0.55895 0.6598 0.0
C521 C 0.20728 0.52942 0.64515 0.0
H522 H 0.8449 0.88942 0.97098 0.0
H523 H 0.72775 0.88619 0.96324 0.0
H524 H 0.73763 0.82264 0.96454 0.0
H525 H 0.87028 0.82096 0.91151 0.0
H526 H 0.91077 0.80364 0.93696 0.0
H527 H 0.89455 0.84874 0.93828 0.0
H528 H 0.89107 0.84433 0.0094 0.0
H529 H 0.90828 0.79948 0.00808 0.0
H530 H 0.86572 0.81252 0.03103 0.0
H531 H 0.76067 0.75903 0.9681 0.0
H532 H 0.79538 0.70076 0.9734 0.0
H533 H 0.89729 0.74639 0.97265 0.0
C534 C 0.82143 0.87519 0.97031 0.0
C535 C 0.78556 0.89247 0.9674 0.0
C536 C 0.75541 0.8732 0.96561 0.0
C537 C 0.76077 0.8372 0.96627 0.0
C538 C 0.79654 0.82084 0.96823 0.0
C539 C 0.82637 0.8392 0.97025 0.0
C540 C 0.86202 0.81546 0.97089 0.0
C541 C 0.88579 0.82264 0.93741 0.0
C542 C 0.88299 0.81811 1.00699 0.0
C543 C 0.84759 0.78101 0.96877 0.0
C544 C 0.80976 0.78451 0.96771 0.0
C545 C 0.79035 0.75597 0.96832 0.0
C546 C 0.81019 0.723 0.97103 0.0
C547 C 0.84897 0.71899 0.97225 0.0
C548 C 0.8677 0.74848 0.97032 0.0
H549 H 0.43902 0.52358 0.30572 0.0
H550 H 0.50544 0.46917 0.22379 0.0
H551 H 0.46867 0.42082 0.23045 0.0
H552 H 0.40819 0.4397 0.35759 0.0
H553 H 0.36351 0.46312 0.36405 0.0
H554 H 0.404 0.48482 0.36674 0.0
H555 H 0.37682 0.52971 0.31753 0.0
H556 H 0.33672 0.50848 0.31471 0.0
H557 H 0.36288 0.51542 0.27379 0.0
H558 H 0.41571 0.3905 0.22865 0.0
H559 H 0.35185 0.38657 0.21267 0.0
H560 H 0.31581 0.45868 0.29584 0.0
C561 C 0.44691 0.50054 0.29084 0.0
C562 C 0.47481 0.49988 0.2643 0.0
C563 C 0.48391 0.47009 0.24413 0.0
C564 C 0.46348 0.44231 0.24824 0.0
C565 C 0.43406 0.44471 0.27266 0.0
C566 C 0.42607 0.47304 0.29415 0.0
C567 C 0.38828 0.47384 0.31096 0.0
C568 C 0.39119 0.46481 0.35228 0.0
C569 C 0.36485 0.50889 0.3037 0.0
C570 C 0.37406 0.44517 0.29062 0.0
C571 C 0.40174 0.42699 0.27092 0.0
C572 C 0.39407 0.40382 0.24471 0.0
C573 C 0.35743 0.40171 0.23574 0.0
C574 C 0.32898 0.4231 0.25259 0.0
C575 C 0.33735 0.44243 0.28255 0.0
H576 H 0.59706 0.22938 0.29774 0.0
H577 H 0.48783 0.20795 0.32961 0.0
H578 H 0.49309 0.23925 0.3862 0.0
H579 H 0.63626 0.21409 0.38525 0.0
H580 H 0.66609 0.24725 0.38041 0.0
H581 H 0.65191 0.22668 0.34047 0.0
H582 H 0.62628 0.286 0.31126 0.0
H583 H 0.64051 0.30676 0.35114 0.0
H584 H 0.59337 0.31399 0.33619 0.0
H585 H 0.51237 0.27042 0.44218 0.0
H586 H 0.54455 0.2971 0.49149 0.0
H587 H 0.64145 0.29448 0.42303 0.0
C588 C 0.57405 0.23122 0.31634 0.0
C589 C 0.54205 0.21595 0.30875 0.0
C590 C 0.51257 0.21962 0.33411 0.0
C591 C 0.51532 0.2373 0.36661 0.0
C592 C 0.54769 0.25122 0.37351 0.0
C593 C 0.57648 0.24836 0.34896 0.0
C594 C 0.60921 0.26363 0.3635 0.0
C595 C 0.64283 0.23628 0.36766 0.0
C596 C 0.61783 0.29443 0.33907 0.0
C597 C 0.59465 0.27498 0.40038 0.0
C598 C 0.55898 0.2681 0.40567 0.0
C599 C 0.54028 0.27602 0.43821 0.0
C600 C 0.55871 0.29113 0.46606 0.0
C601 C 0.59554 0.29763 0.46122 0.0
C602 C 0.61338 0.28963 0.42777 0.0
H603 H 0.09031 0.19501 0.5569 0.0
H604 H 0.05248 0.27183 0.4732 0.0
H605 H 0.01209 0.30292 0.51854 0.0
H606 H 0.99745 0.20061 0.61062 0.0
H607 H 0.02345 0.19144 0.65243 0.0
H608 H 0.04044 0.17394 0.60988 0.0
H609 H 0.10131 0.20326 0.62389 0.0
H610 H 0.07991 0.2217 0.66405 0.0
H611 H 0.09644 0.24905 0.62854 0.0
H612 H 0.98117 0.32899 0.5742 0.0
H613 H 0.96298 0.34886 0.63559 0.0
H614 H 0.02023 0.25565 0.68545 0.0
C615 C 0.07223 0.21753 0.54801 0.0
C616 C 0.0735 0.23035 0.5112 0.0
C617 C 0.05105 0.26098 0.50083 0.0
C618 C 0.02813 0.27885 0.52652 0.0
C619 C 0.02781 0.26582 0.56272 0.0
C620 C 0.04893 0.2356 0.57347 0.0
C621 C 0.04537 0.22866 0.61473 0.0
C622 C 0.02561 0.19676 0.62242 0.0
C623 C 0.08297 0.22545 0.63393 0.0
C624 C 0.02105 0.26071 0.62589 0.0
C625 C 0.01046 0.28129 0.59518 0.0
C626 C 0.98894 0.31276 0.59824 0.0
C627 C 0.97864 0.3238 0.63334 0.0
C628 C 0.98961 0.30365 0.66543 0.0
C629 C 0.01061 0.27127 0.66152 0.0
H630 H 0.09149 0.75314 0.77854 0.0
H631 H 0.02711 0.68773 0.71935 0.0
H632 H 0.03523 0.64453 0.77043 0.0
H633 H 0.14972 0.68407 0.83989 0.0
H634 H 0.14329 0.71323 0.87703 0.0
H635 H 0.14692 0.72962 0.83052 0.0
H636 H 0.08161 0.76799 0.83757 0.0
H637 H 0.08244 0.75153 0.88403 0.0
H638 H 0.04433 0.74643 0.85447 0.0
H639 H 0.03098 0.61998 0.83277 0.0
H640 H 0.01223 0.61909 0.89714 0.0
H641 H 0.07933 0.69962 0.91858 0.0
C642 C 0.08081 0.72895 0.7753 0.0
C643 C 0.05843 0.72397 0.74508 0.0
C644 C 0.04415 0.69223 0.74243 0.0
C645 C 0.04895 0.66741 0.77127 0.0
C646 C 0.06815 0.6747 0.80251 0.0
C647 C 0.0842 0.70475 0.80443 0.0
C648 C 0.09431 0.71156 0.84339 0.0
C649 C 0.13605 0.70949 0.84801 0.0
C650 C 0.0746 0.74637 0.85556 0.0
C651 C 0.07948 0.68197 0.86355 0.0
C652 C 0.06543 0.66031 0.83951 0.0
C653 C 0.04304 0.63596 0.8518 0.0
C654 C 0.03251 0.63561 0.88871 0.0
C655 C 0.04413 0.65973 0.91282 0.0
C656 C 0.07029 0.68092 0.90066 0.0
H657 H 0.46012 0.66548 0.19338 0.0
H658 H 0.53197 0.74239 0.21573 0.0
H659 H 0.51333 0.77275 0.15662 0.0
H660 H 0.47758 0.66079 0.09823 0.0
H661 H 0.43108 0.65541 0.08618 0.0
H662 H 0.44897 0.64078 0.13071 0.0
H663 H 0.39557 0.678 0.16204 0.0
H664 H 0.37717 0.69223 0.1176 0.0
H665 H 0.38708 0.72328 0.15022 0.0
H666 H 0.48776 0.79332 0.09293 0.0
H667 H 0.45374 0.8049 0.03433 0.0
H668 H 0.39951 0.71378 0.05514 0.0
C669 C 0.47172 0.68894 0.18617 0.0
C670 C 0.49749 0.70159 0.20931 0.0
C671 C 0.51196 0.73235 0.19864 0.0
C672 C 0.50173 0.74961 0.16498 0.0
C673 C 0.47692 0.73584 0.14242 0.0
C674 C 0.46182 0.70639 0.15292 0.0
C675 C 0.43572 0.69665 0.1241 0.0
C676 C 0.44916 0.66132 0.10892 0.0
C677 C 0.39657 0.69762 0.13941 0.0
C678 C 0.43843 0.72515 0.09553 0.0
C679 C 0.46244 0.74747 0.10634 0.0
C680 C 0.46897 0.77592 0.08427 0.0
C681 C 0.44976 0.78213 0.05084 0.0
C682 C 0.42415 0.7601 0.03993 0.0
C683 C 0.41905 0.731 0.06248 0.0
H684 H 0.16705 0.28784 0.37207 0.0
H685 H 0.10014 0.2147 0.32859 0.0
H686 H 0.10328 0.24271 0.26682 0.0
H687 H 0.13187 0.36246 0.3133 0.0
H688 H 0.17663 0.37668 0.3093 0.0
H689 H 0.16462 0.35348 0.35021 0.0
H690 H 0.2218 0.30899 0.34169 0.0
H691 H 0.23368 0.33164 0.30047 0.0
H692 H 0.22762 0.28678 0.29933 0.0
H693 H 0.11886 0.27686 0.20803 0.0
H694 H 0.1435 0.31429 0.1599 0.0
H695 H 0.2017 0.36184 0.24391 0.0
C696 C 0.15218 0.27814 0.34986 0.0
C697 C 0.13309 0.24921 0.35531 0.0
C698 C 0.11463 0.23708 0.3252 0.0
C699 C 0.1164 0.25274 0.28997 0.0
C700 C 0.13673 0.28047 0.28536 0.0
C701 C 0.154 0.29313 0.31472 0.0
C702 C 0.17628 0.32147 0.30268 0.0
C703 C 0.16145 0.35554 0.31988 0.0
C704 C 0.21726 0.31161 0.31156 0.0
C705 C 0.16928 0.32266 0.26185 0.0
C706 C 0.14625 0.29911 0.25212 0.0
C707 C 0.13674 0.2955 0.21548 0.0
C708 C 0.15095 0.31673 0.18831 0.0
C709 C 0.17464 0.34093 0.19801 0.0
C710 C 0.18375 0.34362 0.23534 0.0
H711 H 0.97337 0.93753 0.59144 0.0
H712 H 0.00818 0.82803 0.58978 0.0
H713 H 0.97922 0.82597 0.52891 0.0
H714 H 0.88508 0.93344 0.55156 0.0
H715 H 0.88429 0.97361 0.52577 0.0
H716 H 0.90997 0.96678 0.56795 0.0
H717 H 0.96853 0.98091 0.53372 0.0
H718 H 0.943 0.98758 0.49138 0.0
H719 H 0.98378 0.95708 0.49412 0.0
H720 H 0.94675 0.8362 0.46703 0.0
H721 H 0.9074 0.85676 0.41343 0.0
H722 H 0.89037 0.95831 0.45796 0.0
C723 C 0.97508 0.91319 0.57813 0.0
C724 C 0.99324 0.88297 0.59529 0.0
C725 C 0.99437 0.8515 0.57721 0.0
C726 C 0.97818 0.85011 0.5425 0.0
C727 C 0.96049 0.88033 0.52629 0.0
C728 C 0.95842 0.9112 0.54376 0.0
C729 C 0.93581 0.93953 0.52151 0.0
C730 C 0.90177 0.95419 0.54297 0.0
C731 C 0.95918 0.96795 0.50947 0.0
C732 C 0.92533 0.91976 0.48898 0.0
C733 C 0.94036 0.88579 0.49181 0.0
C734 C 0.93471 0.86274 0.46464 0.0
C735 C 0.91251 0.87461 0.43423 0.0
C736 C 0.89569 0.90897 0.4317 0.0
C737 C 0.90265 0.93177 0.45931 0.0
H738 H 0.32319 0.6424 0.74762 0.0
H739 H 0.42911 0.65982 0.70252 0.0
H740 H 0.44449 0.68645 0.75955 0.0
H741 H 0.3064 0.72183 0.79126 0.0
H742 H 0.28428 0.70462 0.83075 0.0
H743 H 0.28274 0.68443 0.7874 0.0
H744 H 0.31072 0.6265 0.81807 0.0
H745 H 0.3127 0.64667 0.86148 0.0
H746 H 0.35367 0.62423 0.84245 0.0
H747 H 0.44663 0.71534 0.81859 0.0
H748 H 0.43457 0.74587 0.87613 0.0
H749 H 0.32806 0.70878 0.88396 0.0
C750 C 0.34962 0.65176 0.74979 0.0
C751 C 0.37506 0.64873 0.72071 0.0
C752 C 0.40944 0.66122 0.72467 0.0
C753 C 0.41844 0.67647 0.75693 0.0
C754 C 0.39283 0.67891 0.78508 0.0
C755 C 0.35911 0.66697 0.78191 0.0
C756 C 0.33587 0.6744 0.81562 0.0
C757 C 0.30024 0.69771 0.80565 0.0
C758 C 0.32778 0.64095 0.83558 0.0
C759 C 0.36158 0.69303 0.8378 0.0
C760 C 0.39436 0.69516 0.81974 0.0
C761 C 0.42135 0.71341 0.83336 0.0
C762 C 0.41429 0.73063 0.86597 0.0
C763 C 0.38066 0.72922 0.88455 0.0
C764 C 0.35438 0.70952 0.87073 0.0
H765 H 0.54949 0.05395 0.10989 0.0
H766 H 0.53748 0.16519 0.10576 0.0
H767 H 0.577 0.1646 0.05049 0.0
H768 H 0.64563 0.04421 0.08541 0.0
H769 H 0.64271 0.00633 0.05962 0.0
H770 H 0.61198 0.01582 0.09738 0.0
H771 H 0.55632 0.01346 0.05436 0.0
H772 H 0.58687 0.00406 0.01646 0.0
H773 H 0.55182 0.04034 0.01305 0.0
H774 H 0.61499 0.15114 0.99257 0.0
H775 H 0.65482 0.12624 0.94281 0.0
H776 H 0.64805 0.02417 0.98975 0.0
C777 C 0.55508 0.07816 0.09716 0.0
C778 C 0.54005 0.10968 0.11167 0.0
C779 C 0.54862 0.14082 0.09489 0.0
C780 C 0.57092 0.14069 0.06346 0.0
C781 C 0.58526 0.10915 0.04968 0.0
C782 C 0.57823 0.07845 0.06651 0.0
C783 C 0.59869 0.04806 0.04772 0.0
C784 C 0.6264 0.02739 0.07411 0.0
C785 C 0.57182 0.02514 0.03196 0.0
C786 C 0.61798 0.06635 0.01739 0.0
C787 C 0.6094 0.10157 0.01851 0.0
C788 C 0.62234 0.12363 0.99186 0.0
C789 C 0.64483 0.10933 0.96367 0.0
C790 C 0.65496 0.07344 0.96289 0.0
C791 C 0.64133 0.0518 0.99018 0.0
H792 H 0.61747 0.26372 0.63196 0.0
H793 H 0.72052 0.23142 0.57795 0.0
H794 H 0.73206 0.18237 0.62282 0.0
H795 H 0.64935 0.24449 0.72292 0.0
H796 H 0.60716 0.23002 0.73895 0.0
H797 H 0.60637 0.26138 0.70157 0.0
H798 H 0.57281 0.22234 0.66069 0.0
H799 H 0.57336 0.19088 0.698 0.0
H800 H 0.59269 0.1787 0.6543 0.0
H801 H 0.73293 0.13767 0.67536 0.0
H802 H 0.7227 0.10094 0.7299 0.0
H803 H 0.6195 0.16373 0.74949 0.0
C804 C 0.6423 0.24614 0.62916 0.0
C805 C 0.668 0.25135 0.6012 0.0
C806 C 0.70028 0.22784 0.59889 0.0
C807 C 0.70709 0.19993 0.62431 0.0
C808 C 0.68132 0.19582 0.65176 0.0
C809 C 0.64951 0.21826 0.65419 0.0
C810 C 0.6266 0.20886 0.68674 0.0
C811 C 0.62213 0.23791 0.71416 0.0
C812 C 0.58915 0.19964 0.67417 0.0
C813 C 0.65047 0.1776 0.70241 0.0
C814 C 0.68193 0.17045 0.68191 0.0
C815 C 0.70834 0.14305 0.69153 0.0
C816 C 0.70237 0.12243 0.72278 0.0
C817 C 0.67022 0.12923 0.74421 0.0
C818 C 0.64408 0.15732 0.73361 0.0
H819 H 0.13636 0.40541 0.95122 0.0
H820 H 0.15053 0.30129 0.99615 0.0
H821 H 0.13092 0.28019 0.93704 0.0
H822 H 0.05615 0.40009 0.90777 0.0
H823 H 0.06389 0.42647 0.86769 0.0
H824 H 0.087 0.43242 0.90989 0.0
H825 H 0.14986 0.42282 0.87716 0.0
H826 H 0.12679 0.41703 0.83463 0.0
H827 H 0.16175 0.38433 0.85214 0.0
H828 H 0.09733 0.27231 0.87917 0.0
H829 H 0.05525 0.27798 0.82576 0.0
H830 H 0.06502 0.38693 0.81638 0.0
C831 C 0.13712 0.37807 0.94766 0.0
C832 C 0.14598 0.35467 0.97748 0.0
C833 C 0.14482 0.31923 0.97301 0.0
C834 C 0.13362 0.30715 0.93964 0.0
C835 C 0.12375 0.33093 0.91095 0.0
C836 C 0.12588 0.36568 0.91441 0.0
C837 C 0.10931 0.38629 0.88123 0.0
C838 C 0.0772 0.41285 0.89232 0.0
C839 C 0.13869 0.40364 0.86003 0.0
C840 C 0.09604 0.35796 0.85947 0.0
C841 C 0.10492 0.32616 0.87688 0.0
C842 C 0.09127 0.29686 0.8646 0.0
C843 C 0.06739 0.30026 0.83427 0.0
C844 C 0.05772 0.33265 0.81635 0.0
C845 C 0.07313 0.36157 0.82859 0.0
H846 H 0.85022 0.80867 0.23793 0.0
H847 H 0.91605 0.88278 0.18928 0.0
H848 H 0.92818 0.84669 0.13562 0.0
H849 H 0.90706 0.73549 0.21277 0.0
H850 H 0.8712 0.70969 0.20244 0.0
H851 H 0.86311 0.74312 0.23497 0.0
H852 H 0.80677 0.77096 0.19746 0.0
H853 H 0.81437 0.73727 0.16508 0.0
H854 H 0.81191 0.78159 0.14938 0.0
H855 H 0.93908 0.80058 0.09106 0.0
H856 H 0.9448 0.74828 0.05529 0.0
H857 H 0.87174 0.70252 0.13121 0.0
C858 C 0.86609 0.81764 0.2153 0.0
C859 C 0.8819 0.84868 0.21734 0.0
C860 C 0.90355 0.85922 0.18789 0.0
C861 C 0.9106 0.83888 0.15741 0.0
C862 C 0.8958 0.80788 0.15665 0.0
C863 C 0.87361 0.79734 0.18449 0.0
C864 C 0.86323 0.76173 0.17756 0.0
C865 C 0.87698 0.736 0.2088 0.0
C866 C 0.82159 0.76297 0.17203 0.0
C867 C 0.88382 0.75374 0.14211 0.0
C868 C 0.90226 0.78087 0.13059 0.0
C869 C 0.92449 0.77927 0.09959 0.0
C870 C 0.92779 0.74927 0.07958 0.0
C871 C 0.90888 0.72114 0.09042 0.0
C872 C 0.8865 0.72357 0.12214 0.0
H873 H 0.33139 0.59585 0.46644 0.0
H874 H 0.36152 0.67344 0.5385 0.0
H875 H 0.40077 0.69482 0.48975 0.0
H876 H 0.41966 0.57483 0.43127 0.0
H877 H 0.40455 0.56687 0.3857 0.0
H878 H 0.3752 0.56095 0.42429 0.0
H879 H 0.32368 0.6031 0.39309 0.0
H880 H 0.35321 0.60934 0.35454 0.0
H881 H 0.33278 0.6458 0.37909 0.0
H882 H 0.43845 0.70567 0.43533 0.0
H883 H 0.47919 0.70087 0.38186 0.0
H884 H 0.42726 0.61382 0.34628 0.0
C885 C 0.34583 0.61771 0.47162 0.0
C886 C 0.34335 0.6334 0.5058 0.0
C887 C 0.36322 0.66127 0.51229 0.0
C888 C 0.38519 0.67373 0.48473 0.0
C889 C 0.38708 0.6577 0.45122 0.0
C890 C 0.36839 0.62998 0.44472 0.0
C891 C 0.37842 0.6149 0.40798 0.0
C892 C 0.39549 0.57717 0.41261 0.0
C893 C 0.34502 0.61852 0.38215 0.0
C894 C 0.40639 0.63801 0.39523 0.0
C895 C 0.41023 0.66302 0.42019 0.0
C896 C 0.43559 0.68639 0.41543 0.0
C897 C 0.4586 0.6834 0.38495 0.0
C898 C 0.45643 0.65685 0.36002 0.0
C899 C 0.4293 0.63452 0.36471 0.0
H900 H 0.27672 0.19837 0.38935 0.0
H901 H 0.22756 0.10348 0.38363 0.0
H902 H 0.28156 0.07754 0.34989 0.0
H903 H 0.31423 0.19557 0.29802 0.0
H904 H 0.35535 0.21357 0.30996 0.0
H905 H 0.31386 0.2242 0.33556 0.0
H906 H 0.34837 0.20335 0.39565 0.0
H907 H 0.38989 0.19234 0.37013 0.0
H908 H 0.37194 0.16034 0.39941 0.0
H909 H 0.33998 0.06179 0.31619 0.0
H910 H 0.3963 0.05868 0.27934 0.0
H911 H 0.40858 0.16407 0.30397 0.0
C912 C 0.27747 0.17204 0.38121 0.0
C913 C 0.24782 0.15288 0.38945 0.0
C914 C 0.24973 0.11872 0.37773 0.0
C915 C 0.28046 0.10368 0.35869 0.0
C916 C 0.30917 0.12313 0.35112 0.0
C917 C 0.30786 0.15671 0.36157 0.0
C918 C 0.34163 0.17244 0.34791 0.0
C919 C 0.3306 0.20326 0.32128 0.0
C920 C 0.3643 0.18272 0.38021 0.0
C921 C 0.36207 0.14244 0.32813 0.0
C922 C 0.34286 0.11421 0.33077 0.0
C923 C 0.35528 0.0837 0.31405 0.0
C924 C 0.3875 0.08217 0.29322 0.0
C925 C 0.4073 0.11096 0.28888 0.0
C926 C 0.39464 0.14136 0.3073 0.0
H927 H 0.1539 0.16109 0.56954 0.0
H928 H 0.2231 0.09237 0.50202 0.0
H929 H 0.21816 0.04462 0.54705 0.0
H930 H 0.17684 0.11536 0.66442 0.0
H931 H 0.12919 0.12338 0.67699 0.0
H932 H 0.14941 0.15391 0.6476 0.0
H933 H 0.09902 0.1491 0.59848 0.0
H934 H 0.07898 0.11928 0.62841 0.0
H935 H 0.09206 0.10765 0.58242 0.0
H936 H 0.19235 1.00259 0.5885 0.0
H937 H 0.15029 0.97015 0.6243 0.0
H938 H 0.09427 0.06546 0.66323 0.0
C939 C 0.17001 0.1365 0.56583 0.0
C940 C 0.18999 0.1304 0.53337 0.0
C941 C 0.20883 0.09755 0.52759 0.0
C942 C 0.20599 0.07031 0.55297 0.0
C943 C 0.18391 0.07643 0.58372 0.0
C944 C 0.16659 0.1089 0.59052 0.0
C945 C 0.13831 0.10738 0.62058 0.0
C946 C 0.14909 0.12611 0.65441 0.0
C947 C 0.09979 0.12164 0.60663 0.0
C948 C 0.1409 0.06911 0.62822 0.0
C949 C 0.16787 0.05169 0.60725 0.0
C950 C 0.17181 0.01602 0.60574 0.0
C951 C 0.14731 0.99783 0.6257 0.0
C952 C 0.11876 0.01534 0.64646 0.0
C953 C 0.11628 0.05134 0.64834 0.0
H954 H 0.11608 0.8213 0.79376 0.0
H955 H 0.12156 0.93037 0.77394 0.0
H956 H 0.17558 0.92694 0.81442 0.0
H957 H 0.14574 0.81825 0.89156 0.0
H958 H 0.17096 0.77621 0.88736 0.0
H959 H 0.13134 0.78931 0.85908 0.0
H960 H 0.17208 0.77576 0.8002 0.0
H961 H 0.21042 0.76291 0.83055 0.0
H962 H 0.21344 0.79574 0.79517 0.0
H963 H 0.23255 0.91091 0.85334 0.0
H964 H 0.28374 0.88442 0.89297 0.0
H965 H 0.24029 0.78655 0.89058 0.0
C966 C 0.12813 0.84463 0.79854 0.0
C967 C 0.11416 0.87619 0.78057 0.0
C968 C 0.13136 0.9059 0.78733 0.0
C969 C 0.1623 0.90421 0.81024 0.0
C970 C 0.17592 0.87266 0.8267 0.0
C971 C 0.15909 0.84349 0.82166 0.0
C972 C 0.17977 0.81272 0.84227 0.0
C973 C 0.15554 0.79824 0.87187 0.0
C974 C 0.19481 0.78512 0.8155 0.0
C975 C 0.21062 0.82909 0.85962 0.0
C976 C 0.20816 0.86364 0.84993 0.0
C977 C 0.23439 0.88395 0.86145 0.0
C978 C 0.26347 0.86866 0.88387 0.0
C979 C 0.26583 0.83354 0.89521 0.0
C980 C 0.23895 0.81358 0.8828 0.0
H981 H 0.42293 0.95741 0.13738 0.0
H982 H 0.34151 0.03844 0.09531 0.0
H983 H 0.30885 0.99588 0.06516 0.0
H984 H 0.42457 0.90651 0.05409 0.0
H985 H 0.43136 0.86609 0.07975 0.0
H986 H 0.44824 0.90339 0.09759 0.0
H987 H 0.41165 0.89444 0.15734 0.0
H988 H 0.39357 0.85796 0.13879 0.0
H989 H 0.36276 0.89351 0.15477 0.0
H990 H 0.28353 0.94548 0.04134 0.0
H991 H 0.27515 0.89083 0.01274 0.0
H992 H 0.37258 0.84151 0.06833 0.0
C993 C 0.39878 0.96606 0.12103 0.0
C994 C 0.38449 1.00115 0.11886 0.0
C995 C 0.35263 0.0116 0.09749 0.0
C996 C 0.3337 0.98763 0.08057 0.0
C997 C 0.34716 0.95311 0.08487 0.0
C998 C 0.37954 0.94226 0.1035 0.0
C999 C 0.3887 0.90358 0.10195 0.0
C1000 C 0.42538 0.89436 0.08215 0.0
C1001 C 0.38919 0.88637 0.14052 0.0
C1002 C 0.35649 0.8947 0.07954 0.0
C1003 C 0.3325 0.92365 0.07065 0.0
C1004 C 0.30182 0.92247 0.04841 0.0
C1005 C 0.29679 0.89124 0.03283 0.0
C1006 C 0.32232 0.86185 0.0396 0.0
C1007 C 0.3517 0.8633 0.06429 0.0
H1008 H 0.88997 0.39297 0.65263 0.0
H1009 H 0.84443 0.39459 0.76207 0.0
H1010 H 0.78174 0.40167 0.73614 0.0
H1011 H 0.81225 0.45097 0.60441 0.0
H1012 H 0.81572 0.42443 0.565 0.0
H1013 H 0.85611 0.4291 0.59153 0.0
H1014 H 0.86874 0.36291 0.60049 0.0
H1015 H 0.82838 0.35804 0.57442 0.0
H1016 H 0.8337 0.33957 0.62036 0.0
H1017 H 0.72525 0.39816 0.69934 0.0
H1018 H 0.68007 0.38213 0.65471 0.0
H1019 H 0.76272 0.38002 0.56952 0.0
C1020 C 0.86664 0.39659 0.67086 0.0
C1021 C 0.87158 0.3942 0.70913 0.0
C1022 C 0.84079 0.39709 0.73257 0.0
C1023 C 0.80518 0.4012 0.71811 0.0
C1024 C 0.80095 0.40205 0.68014 0.0
C1025 C 0.83088 0.39994 0.65678 0.0
C1026 C 0.81933 0.39557 0.61762 0.0
C1027 C 0.82626 0.42689 0.5932 0.0
C1028 C 0.83867 0.36204 0.60237 0.0
C1029 C 0.77871 0.39389 0.62292 0.0
C1030 C 0.76838 0.39859 0.65894 0.0
C1031 C 0.73281 0.39515 0.67087 0.0
C1032 C 0.70734 0.386 0.64542 0.0
C1033 C 0.71794 0.37982 0.60878 0.0
C1034 C 0.75377 0.38473 0.59737 0.0
H1035 H 0.98205 0.46098 0.8205 0.0
H1036 H 0.90147 0.39706 0.86209 0.0
H1037 H 0.88246 0.44001 0.90853 0.0
H1038 H 0.00797 0.48968 0.90985 0.0
H1039 H 0.01432 0.53218 0.89248 0.0
H1040 H 0.02186 0.49622 0.86297 0.0
H1041 H 0.97535 0.52766 0.81615 0.0
H1042 H 0.96749 0.56359 0.84562 0.0
H1043 H 0.92946 0.54233 0.83087 0.0
H1044 H 0.86996 0.49122 0.94804 0.0
H1045 H 0.86809 0.54438 0.98191 0.0
H1046 H 0.9586 0.57489 0.91668 0.0
C1047 C 0.96048 0.45592 0.83949 0.0
C1048 C 0.94306 0.42564 0.83753 0.0
C1049 C 0.91526 0.41991 0.86311 0.0
C1050 C 0.90419 0.44427 0.88947 0.0
C1051 C 0.92152 0.47404 0.89025 0.0
C1052 C 0.94945 0.47975 0.86629 0.0
C1053 C 0.96396 0.51364 0.87337 0.0
C1054 C 1.00442 0.50756 0.88539 0.0
C1055 C 0.95874 0.53826 0.83948 0.0
C1056 C 0.93933 0.52648 0.90467 0.0
C1057 C 0.91501 0.50322 0.91379 0.0
C1058 C 0.88905 0.50946 0.94128 0.0
C1059 C 0.88815 0.53995 0.96031 0.0
C1060 C 0.91318 0.56406 0.95211 0.0
C1061 C 0.93905 0.55713 0.92367 0.0
H1062 H 0.77325 0.65322 0.132 0.0
H1063 H 0.74062 0.57357 0.06447 0.0
H1064 H 0.68266 0.57419 0.09867 0.0
H1065 H 0.7448 0.62075 0.21308 0.0
H1066 H 0.72754 0.66066 0.23334 0.0
H1067 H 0.76302 0.65993 0.19927 0.0
H1068 H 0.7233 0.70589 0.15916 0.0
H1069 H 0.68794 0.70753 0.19357 0.0
H1070 H 0.6773 0.69896 0.14684 0.0
H1071 H 0.63581 0.57539 0.14523 0.0
H1072 H 0.59564 0.58217 0.19851 0.0
H1073 H 0.6568 0.66214 0.23741 0.0
C1074 C 0.75301 0.63711 0.12364 0.0
C1075 C 0.76075 0.61347 0.09576 0.0
C1076 C 0.73466 0.59177 0.08588 0.0
C1077 C 0.70183 0.59204 0.10502 0.0
C1078 C 0.69573 0.61432 0.13373 0.0
C1079 C 0.7201 0.63695 0.14274 0.0
C1080 C 0.70828 0.65562 0.17719 0.0
C1081 C 0.73767 0.64881 0.20749 0.0
C1082 C 0.69862 0.6943 0.16867 0.0
C1083 C 0.67445 0.63868 0.18688 0.0
C1084 C 0.66779 0.61518 0.16116 0.0
C1085 C 0.64002 0.59432 0.16512 0.0
C1086 C 0.61759 0.59821 0.19576 0.0
C1087 C 0.62295 0.62293 0.222 0.0
C1088 C 0.65198 0.64324 0.21766 0.0
H1089 H 0.62896 0.40885 0.42869 0.0
H1090 H 0.65008 0.45692 0.53017 0.0
H1091 H 0.638 0.51438 0.49895 0.0
H1092 H 0.66547 0.47076 0.36501 0.0
H1093 H 0.62936 0.46935 0.33186 0.0
H1094 H 0.64377 0.43218 0.36113 0.0
H1095 H 0.57688 0.43124 0.38349 0.0
H1096 H 0.56231 0.46839 0.35437 0.0
H1097 H 0.55292 0.46914 0.40285 0.0
H1098 H 0.62199 0.5666 0.45676 0.0
H1099 H 0.59802 0.60954 0.40849 0.0
H1100 H 0.58281 0.52703 0.33618 0.0
C1101 C 0.63173 0.43157 0.44395 0.0
C1102 C 0.64109 0.42885 0.48146 0.0
C1103 C 0.64334 0.45884 0.5012 0.0
C1104 C 0.63662 0.49144 0.48371 0.0
C1105 C 0.62706 0.49346 0.44665 0.0
C1106 C 0.62422 0.46432 0.4271 0.0
C1107 C 0.61026 0.4736 0.38855 0.0
C1108 C 0.63893 0.46071 0.35995 0.0
C1109 C 0.57341 0.45978 0.38195 0.0
C1110 C 0.60556 0.51242 0.38953 0.0
C1111 C 0.61594 0.52343 0.42305 0.0
C1112 C 0.61381 0.55827 0.43038 0.0
C1113 C 0.60027 0.58247 0.40283 0.0
C1114 C 0.58848 0.57159 0.36873 0.0
C1115 C 0.59149 0.53611 0.36207 0.0
H1116 H 0.32714 0.34906 0.15418 0.0
H1117 H 0.26769 0.31336 0.06315 0.0
H1118 H 0.30665 0.25758 0.06777 0.0
H1119 H 0.41844 0.30278 0.13231 0.0
H1120 H 0.42936 0.29371 0.18011 0.0
H1121 H 0.40006 0.33221 0.16636 0.0
H1122 H 0.35007 0.31478 0.21087 0.0
H1123 H 0.37877 0.27597 0.22442 0.0
H1124 H 0.33336 0.27372 0.20673 0.0
H1125 H 0.34609 0.20314 0.08794 0.0
H1126 H 0.38779 0.15612 0.11789 0.0
H1127 H 0.42216 0.22777 0.19487 0.0
C1128 C 0.323 0.32995 0.13443 0.0
C1129 C 0.29438 0.33572 0.10818 0.0
C1130 C 0.28957 0.30971 0.08331 0.0
C1131 C 0.31148 0.27785 0.08582 0.0
C1132 C 0.33832 0.27249 0.11311 0.0
C1133 C 0.3446 0.29804 0.13655 0.0
C1134 C 0.37362 0.28513 0.1649 0.0
C1135 C 0.40738 0.30461 0.16064 0.0
C1136 C 0.358 0.28755 0.20403 0.0
C1137 C 0.38215 0.24811 0.1542 0.0
C1138 C 0.36147 0.24129 0.12431 0.0
C1139 C 0.36292 0.20832 0.11094 0.0
C1140 C 0.38648 0.18174 0.12826 0.0
C1141 C 0.40843 0.18834 0.15848 0.0
C1142 C 0.40612 0.22202 0.17149 0.0
H1143 H 0.83576 0.24081 0.80398 0.0
H1144 H 0.94413 0.20467 0.84592 0.0
H1145 H 0.92176 0.15007 0.86818 0.0
H1146 H 0.78594 0.20992 0.87628 0.0
H1147 H 0.74928 0.19812 0.84838 0.0
H1148 H 0.77494 0.23216 0.83284 0.0
H1149 H 0.79127 0.20091 0.77258 0.0
H1150 H 0.76504 0.16707 0.78764 0.0
H1151 H 0.81239 0.15698 0.77482 0.0
H1152 H 0.8839 0.10107 0.89103 0.0
H1153 H 0.83736 0.06157 0.90585 0.0
H1154 H 0.755 0.13184 0.84787 0.0
C1155 C 0.85496 0.22103 0.81714 0.0
C1156 C 0.89171 0.22676 0.8231 0.0
C1157 C 0.91605 0.20048 0.84062 0.0
C1158 C 0.90341 0.1696 0.8536 0.0
C1159 C 0.86647 0.16533 0.84839 0.0
C1160 C 0.84289 0.19026 0.82986 0.0
C1161 C 0.80433 0.18043 0.82835 0.0
C1162 C 0.77703 0.20672 0.84762 0.0
C1163 C 0.79258 0.17608 0.78848 0.0
C1164 C 0.80944 0.14636 0.84957 0.0
C1165 C 0.84534 0.13781 0.86103 0.0
C1166 C 0.85583 0.10755 0.88185 0.0
C1167 C 0.82916 0.08537 0.89044 0.0
C1168 C 0.79242 0.09352 0.87817 0.0
C1169 C 0.78276 0.12464 0.85774 0.0
H1170 H 0.15011 0.51696 0.12337 0.0
H1171 H 0.09442 0.43791 0.17694 0.0
H1172 H 0.03571 0.47599 0.17284 0.0
H1173 H 0.08644 0.59587 0.156 0.0
H1174 H 0.0898 0.61682 0.11151 0.0
H1175 H 0.12836 0.58881 0.13019 0.0
H1176 H 0.13016 0.5538 0.07139 0.0
H1177 H 0.09112 0.58078 0.05298 0.0
H1178 H 0.0899 0.53506 0.05798 0.0
H1179 H 0.98275 0.51569 0.15037 0.0
H1180 H 0.93925 0.55414 0.11164 0.0
H1181 H 0.02937 0.60594 0.06926 0.0
C1182 C 0.12578 0.50876 0.13612 0.0
C1183 C 0.12629 0.4754 0.15147 0.0
C1184 C 0.09414 0.46403 0.1661 0.0
C1185 C 0.06087 0.48546 0.16388 0.0
C1186 C 0.0606 0.51784 0.1467 0.0
C1187 C 0.09236 0.52963 0.13336 0.0
C1188 C 0.08396 0.56207 0.10973 0.0
C1189 C 0.09796 0.59271 0.12797 0.0
C1190 C 0.09969 0.55761 0.07074 0.0
C1191 C 0.04259 0.56525 0.10969 0.0
C1192 C 0.02959 0.54023 0.13208 0.0
C1193 C 0.99247 0.53597 0.1335 0.0
C1194 C 0.96804 0.55771 0.11123 0.0
C1195 C 0.98109 0.58282 0.08746 0.0
C1196 C 0.01867 0.58698 0.0873 0.0
H1197 H 0.77393 0.84075 0.33068 0.0
H1198 H 0.72151 0.90786 0.41241 0.0
H1199 H 0.66741 0.8766 0.41137 0.0
H1200 H 0.69385 0.83311 0.27815 0.0
H1201 H 0.70559 0.78828 0.26916 0.0
H1202 H 0.7413 0.81507 0.27645 0.0
H1203 H 0.76846 0.77386 0.32926 0.0
H1204 H 0.73339 0.74652 0.32158 0.0
H1205 H 0.73925 0.76275 0.36649 0.0
H1206 H 0.61825 0.84095 0.39983 0.0
H1207 H 0.57958 0.79597 0.3857 0.0
H1208 H 0.66317 0.75019 0.31264 0.0
C1209 C 0.75132 0.84849 0.34881 0.0
C1210 C 0.75198 0.87681 0.37162 0.0
C1211 C 0.72175 0.88623 0.39479 0.0
C1212 C 0.69073 0.86882 0.39418 0.0
C1213 C 0.69043 0.84192 0.37047 0.0
C1214 C 0.7201 0.83123 0.34875 0.0
C1215 C 0.71271 0.80088 0.32646 0.0
C1216 C 0.7134 0.80989 0.2851 0.0
C1217 C 0.74007 0.76912 0.33657 0.0
C1218 C 0.67424 0.79623 0.33922 0.0
C1219 C 0.66192 0.82059 0.36422 0.0
C1220 C 0.62761 0.8216 0.38047 0.0
C1221 C 0.60585 0.79607 0.37223 0.0
C1222 C 0.61855 0.76974 0.34823 0.0
C1223 C 0.65272 0.77038 0.33064 0.0
H1224 H 0.48848 0.41624 0.64098 0.0
H1225 H 0.48507 0.37166 0.53434 0.0
H1226 H 0.42268 0.40184 0.52408 0.0
H1227 H 0.38835 0.41774 0.66303 0.0
H1228 H 0.38767 0.45843 0.68453 0.0
H1229 H 0.42872 0.4282 0.6861 0.0
H1230 H 0.46562 0.47484 0.65737 0.0
H1231 H 0.42486 0.50504 0.65568 0.0
H1232 H 0.45056 0.49599 0.61436 0.0
H1233 H 0.36443 0.44331 0.52218 0.0
H1234 H 0.31825 0.49435 0.52767 0.0
H1235 H 0.36082 0.51059 0.63565 0.0
C1236 C 0.47412 0.4118 0.61606 0.0
C1237 C 0.4915 0.39155 0.58856 0.0
C1238 C 0.47228 0.38731 0.55569 0.0
C1239 C 0.43671 0.40403 0.5498 0.0
C1240 C 0.4207 0.42461 0.57718 0.0
C1241 C 0.43884 0.42837 0.60975 0.0
C1242 C 0.41801 0.45517 0.63288 0.0
C1243 C 0.4049 0.4389 0.66876 0.0
C1244 C 0.44113 0.48448 0.64047 0.0
C1245 C 0.38621 0.46709 0.60755 0.0
C1246 C 0.38758 0.44872 0.57589 0.0
C1247 C 0.3627 0.45746 0.54714 0.0
C1248 C 0.33658 0.48642 0.55046 0.0
C1249 C 0.33621 0.50634 0.58201 0.0
C1250 C 0.36046 0.49573 0.61125 0.0
H1251 H 0.24669 0.70282 0.64691 0.0
H1252 H 0.21273 0.69986 0.5334 0.0
H1253 H 0.18406 0.76011 0.53576 0.0
H1254 H 0.16531 0.74454 0.67683 0.0
H1255 H 0.18566 0.76888 0.7106 0.0
H1256 H 0.20915 0.72864 0.69702 0.0
H1257 H 0.26604 0.75937 0.68006 0.0
H1258 H 0.24194 0.79996 0.69273 0.0
H1259 H 0.26131 0.79536 0.64751 0.0
H1260 H 0.15276 0.81731 0.5526 0.0
H1261 H 0.11275 0.86153 0.58508 0.0
H1262 H 0.16567 0.82642 0.6877 0.0
C1263 C 0.23393 0.71514 0.6223 0.0
C1264 C 0.23215 0.69698 0.58987 0.0
C1265 C 0.21436 0.71349 0.55851 0.0
C1266 C 0.19848 0.74779 0.55947 0.0
C1267 C 0.20063 0.76505 0.59201 0.0
C1268 C 0.2175 0.74904 0.62301 0.0
C1269 C 0.21112 0.77096 0.65613 0.0
C1270 C 0.19163 0.75215 0.68691 0.0
C1271 C 0.24726 0.78207 0.6699 0.0
C1272 C 0.18652 0.80116 0.63936 0.0
C1273 C 0.18184 0.79793 0.60204 0.0
C1274 C 0.15692 0.82065 0.58154 0.0
C1275 C 0.1346 0.84594 0.60005 0.0
C1276 C 0.1372 0.84769 0.6385 0.0
C1277 C 0.16453 0.82625 0.65803 0.0
H1278 H 0.46523 0.9283 0.8769 0.0
H1279 H 0.50798 0.8379 0.94291 0.0
H1280 H 0.57011 0.85511 0.93721 0.0
H1281 H 0.54322 0.93043 0.8158 0.0
H1282 H 0.54043 0.97663 0.81454 0.0
H1283 H 0.49956 0.95599 0.82145 0.0
H1284 H 0.48627 0.98845 0.88145 0.0
H1285 H 0.52701 0.00924 0.87467 0.0
H1286 H 0.52092 0.98514 0.9168 0.0
H1287 H 0.62729 0.88401 0.92775 0.0
H1288 H 0.67478 0.92224 0.91561 0.0
H1289 H 0.59522 0.99465 0.85643 0.0
C1290 C 0.48744 0.91192 0.89025 0.0
C1291 C 0.48112 0.88151 0.91043 0.0
C1292 C 0.51162 0.86098 0.92692 0.0
C1293 C 0.54719 0.87067 0.92396 0.0
C1294 C 0.55214 0.90097 0.90435 0.0
C1295 C 0.5231 0.92128 0.88773 0.0
C1296 C 0.53557 0.95339 0.86955 0.0
C1297 C 0.52932 0.95414 0.82786 0.0
C1298 C 0.5163 0.98597 0.88664 0.0
C1299 C 0.57617 0.94818 0.87887 0.0
C1300 C 0.58513 0.91766 0.89883 0.0
C1301 C 0.62058 0.90779 0.91188 0.0
C1302 C 0.64743 0.92978 0.90482 0.0
C1303 C 0.63895 0.96145 0.8848 0.0
C1304 C 0.60281 0.97044 0.87128 0.0
H1305 H 0.93803 0.97943 0.3288 0.0
H1306 H 0.84946 0.06068 0.3455 0.0
H1307 H 0.89446 0.1009 0.35746 0.0
H1308 H 0.9908 0.99928 0.40094 0.0
H1309 H 0.03481 0.98933 0.37945 0.0
H1310 H 0.99642 0.96842 0.36538 0.0
H1311 H 1.00459 0.98952 0.29809 0.0
H1312 H 0.04351 0.01006 0.31179 0.0
H1313 H 0.00571 0.03466 0.28771 0.0
H1314 H 0.9485 0.1301 0.37562 0.0
H1315 H 0.00728 0.14653 0.39686 0.0
H1316 H 0.0613 0.04639 0.36842 0.0
C1317 C 0.92824 0.00609 0.33325 0.0
C1318 C 0.89028 0.01718 0.33537 0.0
C1319 C 0.87844 0.05186 0.34309 0.0
C1320 C 0.90381 0.07487 0.35002 0.0
C1321 C 0.94105 0.06286 0.34918 0.0
C1322 C 0.95331 0.02937 0.34066 0.0
C1323 C 0.99457 0.02205 0.34538 0.0
C1324 C 1.00472 0.99307 0.37452 0.0
C1325 C 0.01319 0.01358 0.30854 0.0
C1326 C 1.00343 0.05636 0.35856 0.0
C1327 C 0.97224 0.07961 0.36029 0.0
C1328 C 0.97325 0.11229 0.37372 0.0
C1329 C 0.00699 0.12144 0.38572 0.0
C1330 C 0.0395 0.098 0.38443 0.0
C1331 C 0.03736 0.06512 0.37017 0.0
loop_
_geom_bond_atom_site_label_1
_geom_bond_atom_site_label_2
_geom_bond_distance
_geom_bond_site_symmetry_2
_ccdc_geom_bond_type
Co0 N5 2.057 . S
Co0 O17 2.021 . S
Co0 O20 2.062 . S
Co0 O24 2.117 . S
Co0 O25 2.020 . S
C1 O21 1.259 . S
C1 O24 1.258 . S
Co2 N11 2.057 . S
Co2 O18 2.117 . S
Co2 O19 2.020 . S
Co2 O21 2.021 . S
Co2 O26 2.062 . S
C3 N5 1.316 . S
C3 N6 1.347 . S
C3 H8 0.931 . S
C4 N5 1.375 . S
C4 C7 1.350 . S
C4 H9 0.930 . S
N5 Co0 2.057 . S
N5 C3 1.316 . S
N5 C4 1.375 . S
N6 C3 1.347 . S
N6 C7 1.373 . S
C7 C4 1.350 . S
C7 N6 1.373 . S
C7 H28 0.931 . S
H8 C3 0.931 . S
H9 C4 0.930 . S
C10 O17 1.259 . S
C10 O18 1.258 . S
N11 Co2 2.057 . S
N11 C12 1.316 . S
N11 C13 1.375 . S
C12 N11 1.316 . S
C12 N14 1.347 . S
C12 H23 0.931 . S
C13 N11 1.375 . S
C13 C15 1.350 . S
C13 H22 0.930 . S
N14 C12 1.347 . S
N14 C15 1.373 . S
C15 C13 1.350 . S
C15 N14 1.373 . S
C15 H29 0.931 . S
C16 O19 1.256 . S
C16 O20 1.255 . S
O17 Co0 2.021 . S
O17 C10 1.259 . S
O18 Co2 2.117 . S
O18 C10 1.258 . S
O19 Co2 2.020 . S
O19 C16 1.256 . S
O20 Co0 2.062 . S
O20 C16 1.255 . S
O21 C1 1.259 . S
O21 Co2 2.021 . S
H22 C13 0.930 . S
H23 C12 0.931 . S
O24 Co0 2.117 . S
O24 C1 1.258 . S
O25 Co0 2.020 . S
O25 C27 1.256 . S
O26 Co2 2.062 . S
O26 C27 1.255 . S
C27 O25 1.256 . S
C27 O26 1.255 . S
H28 C7 0.931 . S
H29 C15 0.931 . S
Co30 N35 2.057 . S
Co30 O47 2.021 . S
Co30 O50 2.062 . S
Co30 O54 2.117 . S
Co30 O55 2.020 . S
C31 O51 1.259 . S
C31 O54 1.258 . S
Co32 N41 2.057 . S
Co32 O48 2.117 . S
Co32 O49 2.020 . S
Co32 O51 2.021 . S
Co32 O56 2.062 . S
C33 N35 1.316 . S
C33 N36 1.347 . S
C33 H38 0.931 . S
C34 N35 1.375 . S
C34 C37 1.350 1_455 S
C34 H39 0.930 1_455 S
N35 Co30 2.057 . S
N35 C33 1.316 . S
N35 C34 1.375 . S
N36 C33 1.347 . S
N36 C37 1.373 1_455 S
C37 C34 1.350 1_655 S
C37 N36 1.373 1_655 S
C37 H58 0.931 . S
H38 C33 0.931 . S
H39 C34 0.930 1_655 S
C40 O47 1.259 . S
C40 O48 1.258 . S
N41 Co32 2.057 . S
N41 C42 1.316 . S
N41 C43 1.375 . S
C42 N41 1.316 . S
C42 N44 1.347 . S
C42 H53 0.931 . S
C43 N41 1.375 . S
C43 C45 1.350 . S
C43 H52 0.930 . S
N44 C42 1.347 . S
N44 C45 1.373 . S
C45 C43 1.350 . S
C45 N44 1.373 . S
C45 H59 0.931 . S
C46 O49 1.256 . S
C46 O50 1.255 . S
O47 Co30 2.021 . S
O47 C40 1.259 . S
O48 Co32 2.117 . S
O48 C40 1.258 . S
O49 Co32 2.020 . S
O49 C46 1.256 . S
O50 Co30 2.062 . S
O50 C46 1.255 . S
O51 C31 1.259 . S
O51 Co32 2.021 . S
H52 C43 0.930 . S
H53 C42 0.931 . S
O54 Co30 2.117 . S
O54 C31 1.258 . S
O55 Co30 2.020 . S
O55 C57 1.256 . S
O56 Co32 2.062 . S
O56 C57 1.255 . S
C57 O55 1.256 . S
C57 O56 1.255 . S
H58 C37 0.931 . S
H59 C45 0.931 . S
Co60 N65 2.057 . S
Co60 O77 2.021 . S
Co60 O80 2.062 . S
Co60 O84 2.117 . S
Co60 O85 2.000 1_556 S
C61 O81 1.259 . S
C61 O84 1.258 . S
Co62 N71 2.057 . S
Co62 O78 2.117 . S
Co62 O79 2.020 . S
Co62 O81 2.021 . S
Co62 O86 2.062 . S
C63 N65 1.316 . S
C63 N66 1.347 1_556 S
C63 H68 0.931 . S
C64 N65 1.375 1_554 S
C64 C67 1.350 . S
C64 H69 0.930 . S
N65 Co60 2.057 . S
N65 C63 1.316 . S
N65 C64 1.375 1_556 S
N66 C63 1.347 1_554 S
N66 C67 1.373 . S
C67 C64 1.350 . S
C67 N66 1.373 . S
C67 H88 0.931 . S
H68 C63 0.931 . S
H69 C64 0.930 . S
C70 O77 1.259 . S
C70 O78 1.258 . S
N71 Co62 2.057 . S
N71 C72 1.316 . S
N71 C73 1.375 . S
C72 N71 1.316 . S
C72 N74 1.347 . S
C72 H83 0.931 . S
C73 N71 1.375 . S
C73 C75 1.350 . S
C73 H82 0.930 . S
N74 C72 1.347 . S
N74 C75 1.373 . S
C75 C73 1.350 . S
C75 N74 1.373 . S
C75 H89 0.931 . S
C76 O79 1.256 . S
C76 O80 1.255 . S
O77 Co60 2.021 . S
O77 C70 1.259 . S
O78 Co62 2.117 . S
O78 C70 1.258 . S
O79 Co62 2.020 . S
O79 C76 1.256 . S
O80 Co60 2.062 . S
O80 C76 1.255 . S
O81 C61 1.259 . S
O81 Co62 2.021 . S
H82 C73 0.930 . S
H83 C72 0.931 . S
O84 Co60 2.117 . S
O84 C61 1.258 . S
O85 Co60 2.000 1_554 S
O85 C87 1.255 1_554 S
O86 Co62 2.062 . S
O86 C87 1.255 . S
C87 O85 1.255 1_556 S
C87 O86 1.255 . S
H88 C67 0.931 . S
H89 C75 0.931 . S
Co90 N95 2.057 . S
Co90 O107 2.021 . S
Co90 O110 2.062 . S
Co90 O114 2.117 . S
Co90 O115 2.020 . S
C91 O111 1.259 . S
C91 O114 1.258 . S
Co92 N101 2.057 . S
Co92 O108 2.117 . S
Co92 O109 2.020 . S
Co92 O111 2.021 . S
Co92 O116 2.062 . S
C93 N95 1.316 . S
C93 N96 1.347 . S
C93 H98 0.931 . S
C94 N95 1.375 . S
C94 C97 1.350 . S
C94 H99 0.930 . S
N95 Co90 2.057 . S
N95 C93 1.316 . S
N95 C94 1.375 . S
N96 C93 1.347 . S
N96 C97 1.373 . S
C97 C94 1.350 . S
C97 N96 1.373 . S
C97 H118 0.931 . S
H98 C93 0.931 . S
H99 C94 0.930 . S
C100 O107 1.259 . S
C100 O108 1.258 . S
N101 Co92 2.057 . S
N101 C102 1.316 . S
N101 C103 1.375 . S
C102 N101 1.316 . S
C102 N104 1.347 . S
C102 H113 0.931 . S
C103 N101 1.375 . S
C103 C105 1.350 . S
C103 H112 0.930 . S
N104 C102 1.347 . S
N104 C105 1.373 . S
C105 C103 1.350 . S
C105 N104 1.373 . S
C105 H119 0.931 . S
C106 O109 1.256 . S
C106 O110 1.255 . S
O107 Co90 2.021 . S
O107 C100 1.259 . S
O108 Co92 2.117 . S
O108 C100 1.258 . S
O109 Co92 2.020 . S
O109 C106 1.256 . S
O110 Co90 2.062 . S
O110 C106 1.255 . S
O111 C91 1.259 . S
O111 Co92 2.021 . S
H112 C103 0.930 . S
H113 C102 0.931 . S
O114 Co90 2.117 . S
O114 C91 1.258 . S
O115 Co90 2.020 . S
O115 C117 1.256 . S
O116 Co92 2.062 . S
O116 C117 1.255 . S
C117 O115 1.256 . S
C117 O116 1.255 . S
H118 C97 0.931 . S
H119 C105 0.931 . S
Co120 N125 2.057 . S
Co120 O137 2.021 . S
Co120 O140 2.062 . S
Co120 O144 2.117 . S
Co120 O145 2.020 . S
C121 O141 1.259 . S
C121 O144 1.258 . S
Co122 N131 2.057 . S
Co122 O138 2.117 . S
Co122 O139 2.020 . S
Co122 O141 2.021 . S
Co122 O146 2.062 . S
C123 N125 1.316 . S
C123 N126 1.347 . S
C123 H128 0.931 . S
C124 N125 1.375 . S
C124 C127 1.350 . S
C124 H129 0.930 . S
N125 Co120 2.057 . S
N125 C123 1.316 . S
N125 C124 1.375 . S
N126 C123 1.347 . S
N126 C127 1.373 . S
C127 C124 1.350 . S
C127 N126 1.373 . S
C127 H148 0.931 . S
H128 C123 0.931 . S
H129 C124 0.930 . S
C130 O137 1.259 . S
C130 O138 1.258 . S
N131 Co122 2.057 . S
N131 C132 1.316 . S
N131 C133 1.375 . S
C132 N131 1.316 . S
C132 N134 1.347 . S
C132 H143 0.931 . S
C133 N131 1.375 . S
C133 C135 1.350 . S
C133 H142 0.930 . S
N134 C132 1.347 . S
N134 C135 1.373 . S
C135 C133 1.350 . S
C135 N134 1.373 . S
C135 H149 0.931 . S
C136 O139 1.256 . S
C136 O140 1.255 . S
O137 Co120 2.021 . S
O137 C130 1.259 . S
O138 Co122 2.117 . S
O138 C130 1.258 . S
O139 Co122 2.020 . S
O139 C136 1.256 . S
O140 Co120 2.062 . S
O140 C136 1.255 . S
O141 C121 1.259 . S
O141 Co122 2.021 . S
H142 C133 0.930 . S
H143 C132 0.931 . S
O144 Co120 2.117 . S
O144 C121 1.258 . S
O145 Co120 2.020 . S
O145 C147 1.256 . S
O146 Co122 2.062 . S
O146 C147 1.255 . S
C147 O145 1.256 . S
C147 O146 1.255 . S
H148 C127 0.931 . S
H149 C135 0.931 . S
Co150 N155 2.057 . S
Co150 O167 2.021 . S
Co150 O170 2.062 . S
Co150 O174 2.117 . S
Co150 O175 2.020 . S
C151 O171 1.259 . S
C151 O174 1.258 . S
Co152 N161 2.057 . S
Co152 O168 2.117 . S
Co152 O169 2.020 . S
Co152 O171 2.021 . S
Co152 O176 2.062 . S
C153 N155 1.316 . S
C153 N156 1.347 1_655 S
C153 H158 0.931 . S
C154 N155 1.375 1_455 S
C154 C157 1.350 . S
C154 H159 0.930 . S
N155 Co150 2.057 . S
N155 C153 1.316 . S
N155 C154 1.375 1_655 S
N156 C153 1.347 1_455 S
N156 C157 1.373 . S
C157 C154 1.350 . S
C157 N156 1.373 . S
C157 H178 0.931 . S
H158 C153 0.931 . S
H159 C154 0.930 . S
C160 O167 1.259 . S
C160 O168 1.258 . S
N161 Co152 2.057 . S
N161 C162 1.316 . S
N161 C163 1.375 . S
C162 N161 1.316 . S
C162 N164 1.347 . S
C162 H173 0.931 . S
C163 N161 1.375 . S
C163 C165 1.350 . S
C163 H172 0.930 . S
N164 C162 1.347 . S
N164 C165 1.373 . S
C165 C163 1.350 . S
C165 N164 1.373 . S
C165 H179 0.931 . S
C166 O169 1.256 . S
C166 O170 1.255 . S
O167 Co150 2.021 . S
O167 C160 1.259 . S
O168 Co152 2.117 . S
O168 C160 1.258 . S
O169 Co152 2.020 . S
O169 C166 1.256 . S
O170 Co150 2.062 . S
O170 C166 1.255 . S
O171 C151 1.259 . S
O171 Co152 2.021 . S
H172 C163 0.930 . S
H173 C162 0.931 . S
O174 Co150 2.117 . S
O174 C151 1.258 . S
O175 Co150 2.020 . S
O175 C177 1.256 . S
O176 Co152 2.062 . S
O176 C177 1.255 . S
C177 O175 1.256 . S
C177 O176 1.255 . S
H178 C157 0.931 . S
H179 C165 0.931 . S
Co180 N185 2.057 1_554 S
Co180 O197 2.021 . S
Co180 O200 2.062 1_554 S
Co180 O204 2.117 . S
Co180 O205 2.020 . S
C181 O201 1.259 . S
C181 O204 1.258 . S
Co182 N191 2.057 . S
Co182 O198 2.117 . S
Co182 O199 2.020 . S
Co182 O201 2.021 . S
Co182 O206 2.062 . S
C183 N185 1.316 . S
C183 N186 1.347 . S
C183 H188 0.931 . S
C184 N185 1.375 . S
C184 C187 1.350 . S
C184 H189 0.930 . S
N185 Co180 2.057 1_556 S
N185 C183 1.316 . S
N185 C184 1.375 . S
N186 C183 1.347 . S
N186 C187 1.373 . S
C187 C184 1.350 . S
C187 N186 1.373 . S
C187 H208 0.931 . S
H188 C183 0.931 . S
H189 C184 0.930 . S
C190 O197 1.259 . S
C190 O198 1.258 . S
N191 Co182 2.057 . S
N191 C192 1.316 . S
N191 C193 1.375 . S
C192 N191 1.316 . S
C192 N194 1.347 . S
C192 H203 0.931 . S
C193 N191 1.375 . S
C193 C195 1.350 . S
C193 H202 0.930 . S
N194 C192 1.347 . S
N194 C195 1.373 . S
C195 C193 1.350 . S
C195 N194 1.373 . S
C195 H209 0.931 . S
C196 O199 1.256 1_556 S
C196 O200 1.255 . S
O197 Co180 2.021 . S
O197 C190 1.259 . S
O198 Co182 2.117 . S
O198 C190 1.258 . S
O199 Co182 2.020 . S
O199 C196 1.256 1_554 S
O200 Co180 2.062 1_556 S
O200 C196 1.255 . S
O201 C181 1.259 . S
O201 Co182 2.021 . S
H202 C193 0.930 . S
H203 C192 0.931 . S
O204 Co180 2.117 . S
O204 C181 1.258 . S
O205 Co180 2.020 . S
O205 C207 1.256 . S
O206 Co182 2.062 . S
O206 C207 1.255 . S
C207 O205 1.256 . S
C207 O206 1.255 . S
H208 C187 0.931 . S
H209 C195 0.931 . S
Co210 N215 2.057 . S
Co210 O227 2.021 . S
Co210 O230 2.062 . S
Co210 O234 2.117 . S
Co210 O235 2.020 . S
C211 O231 1.259 . S
C211 O234 1.258 . S
Co212 N221 2.057 . S
Co212 O228 2.117 . S
Co212 O229 2.020 . S
Co212 O231 2.021 . S
Co212 O236 2.062 . S
C213 N215 1.316 . S
C213 N216 1.347 . S
C213 H218 0.931 . S
C214 N215 1.375 . S
C214 C217 1.350 . S
C214 H219 0.930 . S
N215 Co210 2.057 . S
N215 C213 1.316 . S
N215 C214 1.375 . S
N216 C213 1.347 . S
N216 C217 1.373 . S
C217 C214 1.350 . S
C217 N216 1.373 . S
C217 H238 0.931 . S
H218 C213 0.931 . S
H219 C214 0.930 . S
C220 O227 1.259 . S
C220 O228 1.258 . S
N221 Co212 2.057 . S
N221 C222 1.316 . S
N221 C223 1.375 . S
C222 N221 1.316 . S
C222 N224 1.347 . S
C222 H233 0.931 . S
C223 N221 1.375 . S
C223 C225 1.350 . S
C223 H232 0.930 . S
N224 C222 1.347 . S
N224 C225 1.373 . S
C225 C223 1.350 . S
C225 N224 1.373 . S
C225 H239 0.931 . S
C226 O229 1.256 . S
C226 O230 1.255 . S
O227 Co210 2.021 . S
O227 C220 1.259 . S
O228 Co212 2.117 . S
O228 C220 1.258 . S
O229 Co212 2.020 . S
O229 C226 1.256 . S
O230 Co210 2.062 . S
O230 C226 1.255 . S
O231 C211 1.259 . S
O231 Co212 2.021 . S
H232 C223 0.930 . S
H233 C222 0.931 . S
O234 Co210 2.117 . S
O234 C211 1.258 . S
O235 Co210 2.020 . S
O235 C237 1.256 . S
O236 Co212 2.062 . S
O236 C237 1.255 . S
C237 O235 1.256 . S
C237 O236 1.255 . S
H238 C217 0.931 . S
H239 C225 0.931 . S
Co240 N245 2.057 . S
Co240 O257 2.021 . S
Co240 O260 2.062 . S
Co240 O264 2.117 . S
Co240 O265 2.020 . S
C241 O261 1.259 . S
C241 O264 1.258 . S
Co242 N251 2.057 . S
Co242 O258 2.117 . S
Co242 O259 2.020 . S
Co242 O261 2.021 . S
Co242 O266 2.062 . S
C243 N245 1.316 . S
C243 N246 1.347 . S
C243 H248 0.931 . S
C244 N245 1.375 . S
C244 C247 1.350 . S
C244 H249 0.930 . S
N245 Co240 2.057 . S
N245 C243 1.316 . S
N245 C244 1.375 . S
N246 C243 1.347 . S
N246 C247 1.373 . S
C247 C244 1.350 . S
C247 N246 1.373 . S
C247 H268 0.931 . S
H248 C243 0.931 . S
H249 C244 0.930 . S
C250 O257 1.259 . S
C250 O258 1.258 . S
N251 Co242 2.057 . S
N251 C252 1.316 . S
N251 C253 1.375 . S
C252 N251 1.316 . S
C252 N254 1.347 1_554 S
C252 H263 0.931 1_554 S
C253 N251 1.375 . S
C253 C255 1.350 . S
C253 H262 0.930 . S
N254 C252 1.347 1_556 S
N254 C255 1.373 1_556 S
C255 C253 1.350 . S
C255 N254 1.373 1_554 S
C255 H269 0.931 . S
C256 O259 1.256 . S
C256 O260 1.255 . S
O257 Co240 2.021 . S
O257 C250 1.259 . S
O258 Co242 2.117 . S
O258 C250 1.258 . S
O259 Co242 2.020 . S
O259 C256 1.256 . S
O260 Co240 2.062 . S
O260 C256 1.255 . S
O261 C241 1.259 . S
O261 Co242 2.021 . S
H262 C253 0.930 . S
H263 C252 0.931 1_556 S
O264 Co240 2.117 . S
O264 C241 1.258 . S
O265 Co240 2.020 . S
O265 C267 1.256 . S
O266 Co242 2.062 . S
O266 C267 1.255 . S
C267 O265 1.256 . S
C267 O266 1.255 . S
H268 C247 0.931 . S
H269 C255 0.931 . S
Co270 N275 2.057 1_545 S
Co270 O287 2.021 . S
Co270 O290 2.062 1_545 S
Co270 O294 2.117 1_545 S
Co270 O295 2.020 . S
C271 O291 1.259 . S
C271 O294 1.258 1_545 S
Co272 N281 2.057 . S
Co272 O288 2.117 . S
Co272 O289 2.020 . S
Co272 O291 2.021 . S
Co272 O296 2.062 . S
C273 N275 1.316 . S
C273 N276 1.347 . S
C273 H278 0.931 . S
C274 N275 1.375 . S
C274 C277 1.350 . S
C274 H279 0.930 . S
N275 Co270 2.057 1_565 S
N275 C273 1.316 . S
N275 C274 1.375 . S
N276 C273 1.347 . S
N276 C277 1.373 . S
C277 C274 1.350 . S
C277 N276 1.373 . S
C277 H298 0.931 . S
H278 C273 0.931 . S
H279 C274 0.930 . S
C280 O287 1.259 . S
C280 O288 1.258 . S
N281 Co272 2.057 . S
N281 C282 1.316 . S
N281 C283 1.375 . S
C282 N281 1.316 . S
C282 N284 1.347 . S
C282 H293 0.931 . S
C283 N281 1.375 . S
C283 C285 1.350 . S
C283 H292 0.930 . S
N284 C282 1.347 . S
N284 C285 1.373 . S
C285 C283 1.350 . S
C285 N284 1.373 . S
C285 H299 0.931 . S
C286 O289 1.256 1_565 S
C286 O290 1.255 . S
O287 Co270 2.021 . S
O287 C280 1.259 . S
O288 Co272 2.117 . S
O288 C280 1.258 . S
O289 Co272 2.020 . S
O289 C286 1.256 1_545 S
O290 Co270 2.062 1_565 S
O290 C286 1.255 . S
O291 C271 1.259 . S
O291 Co272 2.021 . S
H292 C283 0.930 . S
H293 C282 0.931 . S
O294 Co270 2.117 1_565 S
O294 C271 1.258 1_565 S
O295 Co270 2.020 . S
O295 C297 1.256 . S
O296 Co272 2.062 . S
O296 C297 1.255 . S
C297 O295 1.256 . S
C297 O296 1.255 . S
H298 C277 0.931 . S
H299 C285 0.931 . S
Co300 N305 2.057 . S
Co300 O317 2.021 . S
Co300 O320 2.062 . S
Co300 O324 2.117 . S
Co300 O325 2.020 . S
C301 O321 1.259 . S
C301 O324 1.258 . S
Co302 N311 2.057 . S
Co302 O318 2.117 . S
Co302 O319 2.020 . S
Co302 O321 2.021 . S
Co302 O326 2.062 . S
C303 N305 1.316 . S
C303 N306 1.347 1_565 S
C303 H308 0.931 . S
C304 N305 1.360 1_545 S
C304 C307 1.369 . S
C304 H309 0.926 1_545 S
N305 Co300 2.057 . S
N305 C303 1.316 . S
N305 C304 1.360 1_565 S
N306 C303 1.347 1_545 S
N306 C307 1.373 . S
C307 C304 1.369 . S
C307 N306 1.373 . S
C307 H328 0.931 . S
H308 C303 0.931 . S
H309 C304 0.926 1_565 S
C310 O317 1.259 . S
C310 O318 1.258 . S
N311 Co302 2.057 . S
N311 C312 1.316 . S
N311 C313 1.375 . S
C312 N311 1.316 . S
C312 N314 1.347 . S
C312 H323 0.931 . S
C313 N311 1.375 . S
C313 C315 1.350 . S
C313 H322 0.930 . S
N314 C312 1.347 . S
N314 C315 1.373 . S
C315 C313 1.350 . S
C315 N314 1.373 . S
C315 H329 0.931 . S
C316 O319 1.256 . S
C316 O320 1.255 . S
O317 Co300 2.021 . S
O317 C310 1.259 . S
O318 Co302 2.117 . S
O318 C310 1.258 . S
O319 Co302 2.020 . S
O319 C316 1.256 . S
O320 Co300 2.062 . S
O320 C316 1.255 . S
O321 C301 1.259 . S
O321 Co302 2.021 . S
H322 C313 0.930 . S
H323 C312 0.931 . S
O324 Co300 2.117 . S
O324 C301 1.258 . S
O325 Co300 2.020 . S
O325 C327 1.256 . S
O326 Co302 2.062 . S
O326 C327 1.255 . S
C327 O325 1.256 . S
C327 O326 1.255 . S
H328 C307 0.931 . S
H329 C315 0.931 . S
Co330 N335 2.057 . S
Co330 O347 2.021 . S
Co330 O350 2.062 . S
Co330 O354 2.117 . S
Co330 O355 2.020 . S
C331 O351 1.259 . S
C331 O354 1.258 . S
Co332 N341 2.057 . S
Co332 O348 2.117 . S
Co332 O349 2.020 . S
Co332 O351 2.021 . S
Co332 O356 2.062 . S
C333 N335 1.316 . S
C333 N336 1.347 . S
C333 H338 0.931 . S
C334 N335 1.375 . S
C334 C337 1.350 . S
C334 H339 0.930 . S
N335 Co330 2.057 . S
N335 C333 1.316 . S
N335 C334 1.375 . S
N336 C333 1.347 . S
N336 C337 1.373 . S
C337 C334 1.350 . S
C337 N336 1.373 . S
C337 H358 0.931 . S
H338 C333 0.931 . S
H339 C334 0.930 . S
C340 O347 1.259 . S
C340 O348 1.258 . S
N341 Co332 2.057 . S
N341 C342 1.316 . S
N341 C343 1.375 . S
C342 N341 1.316 . S
C342 N344 1.347 . S
C342 H353 0.931 . S
C343 N341 1.375 . S
C343 C345 1.350 . S
C343 H352 0.930 . S
N344 C342 1.347 . S
N344 C345 1.373 . S
C345 C343 1.350 . S
C345 N344 1.373 . S
C345 H359 0.931 . S
C346 O349 1.256 . S
C346 O350 1.255 . S
O347 Co330 2.021 . S
O347 C340 1.259 . S
O348 Co332 2.117 . S
O348 C340 1.258 . S
O349 Co332 2.020 . S
O349 C346 1.256 . S
O350 Co330 2.062 . S
O350 C346 1.255 . S
O351 C331 1.259 . S
O351 Co332 2.021 . S
H352 C343 0.930 . S
H353 C342 0.931 . S
O354 Co330 2.117 . S
O354 C331 1.258 . S
O355 Co330 2.020 . S
O355 C357 1.256 . S
O356 Co332 2.062 . S
O356 C357 1.255 . S
C357 O355 1.256 . S
C357 O356 1.255 . S
H358 C337 0.931 . S
H359 C345 0.931 . S
H360 C372 0.930 . S
H361 C374 0.930 . S
H362 C375 0.930 . S
H363 C379 0.959 . S
H364 C379 0.959 . S
H365 C379 0.961 . S
H366 C380 0.960 . S
H367 C380 0.961 . S
H368 C380 0.959 . S
H369 C383 0.929 . S
H370 C384 0.931 . S
H371 C386 0.930 . S
C372 H360 0.930 . S
C372 C373 1.399 . S
C372 C377 1.399 . S
C373 C372 1.399 . S
C373 C374 1.376 . S
C374 H361 0.930 . S
C374 C373 1.376 . S
C374 C375 1.388 . S
C375 H362 0.930 . S
C375 C374 1.388 . S
C375 C376 1.390 . S
C376 C375 1.390 . S
C376 C377 1.394 . S
C376 C382 1.465 . S
C377 C372 1.399 . S
C377 C376 1.394 . S
C377 C378 1.516 . S
C378 C377 1.516 . S
C378 C379 1.502 . S
C378 C380 1.561 . S
C378 C381 1.526 . S
C379 H363 0.959 . S
C379 H364 0.959 . S
C379 H365 0.961 . S
C379 C378 1.502 . S
C380 H366 0.960 . S
C380 H367 0.961 . S
C380 H368 0.959 . S
C380 C378 1.561 . S
C381 C378 1.526 . S
C381 C382 1.396 . S
C381 C386 1.390 . S
C382 C376 1.465 . S
C382 C381 1.396 . S
C382 C383 1.399 . S
C383 H369 0.929 . S
C383 C382 1.399 . S
C383 C384 1.385 . S
C384 H370 0.931 . S
C384 C383 1.385 . S
C384 C385 1.389 . S
C385 C384 1.389 . S
C385 C386 1.387 . S
C386 H371 0.930 . S
C386 C381 1.390 . S
C386 C385 1.387 . S
H387 C399 0.930 1_545 S
H388 C401 0.930 . S
H389 C402 0.930 . S
H390 C406 0.959 1_565 S
H391 C406 0.959 . S
H392 C406 0.961 . S
H393 C407 0.960 . S
H394 C407 0.961 . S
H395 C407 0.959 . S
H396 C410 0.929 . S
H397 C411 0.931 . S
H398 C413 0.930 . S
C399 H387 0.930 1_565 S
C399 C400 1.399 . S
C399 C404 1.399 . S
C400 C399 1.399 . S
C400 C401 1.376 . S
C401 H388 0.930 . S
C401 C400 1.376 . S
C401 C402 1.388 . S
C402 H389 0.930 . S
C402 C401 1.388 . S
C402 C403 1.390 . S
C403 C402 1.390 . S
C403 C404 1.394 . S
C403 C409 1.465 . S
C404 C399 1.399 . S
C404 C403 1.394 . S
C404 C405 1.516 . S
C405 C404 1.516 . S
C405 C406 1.502 1_565 S
C405 C407 1.561 1_565 S
C405 C408 1.526 . S
C406 H390 0.959 1_545 S
C406 H391 0.959 . S
C406 H392 0.961 . S
C406 C405 1.502 1_545 S
C407 H393 0.960 . S
C407 H394 0.961 . S
C407 H395 0.959 . S
C407 C405 1.561 1_545 S
C408 C405 1.526 . S
C408 C409 1.396 . S
C408 C413 1.390 . S
C409 C403 1.465 . S
C409 C408 1.396 . S
C409 C410 1.399 . S
C410 H396 0.929 . S
C410 C409 1.399 . S
C410 C411 1.385 . S
C411 H397 0.931 . S
C411 C410 1.385 . S
C411 C412 1.389 . S
C412 C411 1.389 . S
C412 C413 1.387 . S
C413 H398 0.930 . S
C413 C408 1.390 . S
C413 C412 1.387 . S
H414 C426 0.930 . S
H415 C428 0.930 . S
H416 C429 0.930 . S
H417 C433 0.959 . S
H418 C433 0.959 . S
H419 C433 0.961 . S
H420 C434 0.960 . S
H421 C434 0.961 . S
H422 C434 0.959 . S
H423 C437 0.929 . S
H424 C438 0.931 . S
H425 C440 0.930 . S
C426 H414 0.930 . S
C426 C427 1.399 . S
C426 C431 1.399 . S
C427 C426 1.399 . S
C427 C428 1.376 1_554 S
C428 H415 0.930 . S
C428 C427 1.376 1_556 S
C428 C429 1.388 . S
C429 H416 0.930 . S
C429 C428 1.388 . S
C429 C430 1.390 1_556 S
C430 C429 1.390 1_554 S
C430 C431 1.394 . S
C430 C436 1.465 . S
C431 C426 1.399 . S
C431 C430 1.394 . S
C431 C432 1.516 . S
C432 C431 1.516 . S
C432 C433 1.502 . S
C432 C434 1.561 . S
C432 C435 1.526 . S
C433 H417 0.959 . S
C433 H418 0.959 . S
C433 H419 0.961 . S
C433 C432 1.502 . S
C434 H420 0.960 . S
C434 H421 0.961 . S
C434 H422 0.959 . S
C434 C432 1.561 . S
C435 C432 1.526 . S
C435 C436 1.396 . S
C435 C440 1.390 . S
C436 C430 1.465 . S
C436 C435 1.396 . S
C436 C437 1.399 1_554 S
C437 H423 0.929 . S
C437 C436 1.399 1_556 S
C437 C438 1.385 . S
C438 H424 0.931 . S
C438 C437 1.385 . S
C438 C439 1.389 1_556 S
C439 C438 1.389 1_554 S
C439 C440 1.387 . S
C440 H425 0.930 . S
C440 C435 1.390 . S
C440 C439 1.387 . S
H441 C453 0.930 1_565 S
H442 C455 0.930 . S
H443 C456 0.930 . S
H444 C460 0.959 . S
H445 C460 0.959 . S
H446 C460 0.961 . S
H447 C461 0.960 . S
H448 C461 0.961 . S
H449 C461 0.959 . S
H450 C464 0.929 . S
H451 C465 0.931 . S
H452 C467 0.930 . S
C453 H441 0.930 1_545 S
C453 C454 1.399 . S
C453 C458 1.399 . S
C454 C453 1.399 . S
C454 C455 1.376 . S
C455 H442 0.930 . S
C455 C454 1.376 . S
C455 C456 1.388 . S
C456 H443 0.930 . S
C456 C455 1.388 . S
C456 C457 1.390 . S
C457 C456 1.390 . S
C457 C458 1.394 . S
C457 C463 1.465 . S
C458 C453 1.399 . S
C458 C457 1.394 . S
C458 C459 1.516 1_545 S
C459 C458 1.516 1_565 S
C459 C460 1.502 . S
C459 C461 1.561 . S
C459 C462 1.526 . S
C460 H444 0.959 . S
C460 H445 0.959 . S
C460 H446 0.961 . S
C460 C459 1.502 . S
C461 H447 0.960 . S
C461 H448 0.961 . S
C461 H449 0.959 . S
C461 C459 1.561 . S
C462 C459 1.526 . S
C462 C463 1.396 1_565 S
C462 C467 1.390 . S
C463 C457 1.465 . S
C463 C462 1.396 1_545 S
C463 C464 1.399 . S
C464 H450 0.929 . S
C464 C463 1.399 . S
C464 C465 1.385 . S
C465 H451 0.931 . S
C465 C464 1.385 . S
C465 C466 1.389 1_545 S
C466 C465 1.389 1_565 S
C466 C467 1.387 . S
C467 H452 0.930 . S
C467 C462 1.390 . S
C467 C466 1.387 . S
H468 C480 0.930 . S
H469 C482 0.930 . S
H470 C483 0.930 . S
H471 C487 0.959 . S
H472 C487 0.959 . S
H473 C487 0.961 . S
H474 C488 0.960 . S
H475 C488 0.961 . S
H476 C488 0.959 . S
H477 C491 0.929 . S
H478 C492 0.931 . S
H479 C494 0.930 . S
C480 H468 0.930 . S
C480 C481 1.399 . S
C480 C485 1.399 . S
C481 C480 1.399 . S
C481 C482 1.376 . S
C482 H469 0.930 . S
C482 C481 1.376 . S
C482 C483 1.388 . S
C483 H470 0.930 . S
C483 C482 1.388 . S
C483 C484 1.390 . S
C484 C483 1.390 . S
C484 C485 1.394 . S
C484 C490 1.465 . S
C485 C480 1.399 . S
C485 C484 1.394 . S
C485 C486 1.516 . S
C486 C485 1.516 . S
C486 C487 1.502 . S
C486 C488 1.561 . S
C486 C489 1.526 . S
C487 H471 0.959 . S
C487 H472 0.959 . S
C487 H473 0.961 . S
C487 C486 1.502 . S
C488 H474 0.960 . S
C488 H475 0.961 . S
C488 H476 0.959 . S
C488 C486 1.561 . S
C489 C486 1.526 . S
C489 C490 1.396 . S
C489 C494 1.390 . S
C490 C484 1.465 . S
C490 C489 1.396 . S
C490 C491 1.399 . S
C491 H477 0.929 . S
C491 C490 1.399 . S
C491 C492 1.385 . S
C492 H478 0.931 . S
C492 C491 1.385 . S
C492 C493 1.389 . S
C493 C492 1.389 . S
C493 C494 1.387 . S
C494 H479 0.930 . S
C494 C489 1.390 . S
C494 C493 1.387 . S
H495 C507 0.930 . S
H496 C509 0.930 . S
H497 C510 0.930 . S
H498 C514 0.959 . S
H499 C514 0.959 . S
H500 C514 0.961 . S
H501 C515 0.960 . S
H502 C515 0.961 . S
H503 C515 0.959 . S
H504 C518 0.929 . S
H505 C519 0.931 . S
H506 C521 0.930 . S
C507 H495 0.930 . S
C507 C508 1.399 . S
C507 C512 1.399 . S
C508 C507 1.399 . S
C508 C509 1.376 . S
C509 H496 0.930 . S
C509 C508 1.376 . S
C509 C510 1.388 . S
C510 H497 0.930 . S
C510 C509 1.388 . S
C510 C511 1.390 . S
C511 C510 1.390 . S
C511 C512 1.394 . S
C511 C517 1.465 . S
C512 C507 1.399 . S
C512 C511 1.394 . S
C512 C513 1.516 . S
C513 C512 1.516 . S
C513 C514 1.502 . S
C513 C515 1.561 . S
C513 C516 1.526 . S
C514 H498 0.959 . S
C514 H499 0.959 . S
C514 H500 0.961 . S
C514 C513 1.502 . S
C515 H501 0.960 . S
C515 H502 0.961 . S
C515 H503 0.959 . S
C515 C513 1.561 . S
C516 C513 1.526 . S
C516 C517 1.396 . S
C516 C521 1.390 . S
C517 C511 1.465 . S
C517 C516 1.396 . S
C517 C518 1.399 . S
C518 H504 0.929 . S
C518 C517 1.399 . S
C518 C519 1.385 . S
C519 H505 0.931 . S
C519 C518 1.385 . S
C519 C520 1.389 . S
C520 C519 1.389 . S
C520 C521 1.387 . S
C521 H506 0.930 . S
C521 C516 1.390 . S
C521 C520 1.387 . S
H522 C534 0.930 . S
H523 C536 0.930 . S
H524 C537 0.930 . S
H525 C541 0.959 . S
H526 C541 0.959 . S
H527 C541 0.961 . S
H528 C542 0.960 . S
H529 C542 0.961 . S
H530 C542 0.959 . S
H531 C545 0.929 . S
H532 C546 0.931 . S
H533 C548 0.930 . S
C534 H522 0.930 . S
C534 C535 1.399 1_554 S
C534 C539 1.399 . S
C535 C534 1.399 1_556 S
C535 C536 1.376 . S
C536 H523 0.930 . S
C536 C535 1.376 . S
C536 C537 1.388 . S
C537 H524 0.930 . S
C537 C536 1.388 . S
C537 C538 1.390 . S
C538 C537 1.390 . S
C538 C539 1.394 1_556 S
C538 C544 1.465 . S
C539 C534 1.399 . S
C539 C538 1.394 1_554 S
C539 C540 1.516 . S
C540 C539 1.516 . S
C540 C541 1.502 . S
C540 C542 1.561 . S
C540 C543 1.526 . S
C541 H525 0.959 . S
C541 H526 0.959 . S
C541 H527 0.961 . S
C541 C540 1.502 . S
C542 H528 0.960 . S
C542 H529 0.961 . S
C542 H530 0.959 . S
C542 C540 1.561 . S
C543 C540 1.526 . S
C543 C544 1.396 1_554 S
C543 C548 1.390 . S
C544 C538 1.465 . S
C544 C543 1.396 1_556 S
C544 C545 1.399 . S
C545 H531 0.929 . S
C545 C544 1.399 . S
C545 C546 1.385 . S
C546 H532 0.931 . S
C546 C545 1.385 . S
C546 C547 1.389 . S
C547 C546 1.389 . S
C547 C548 1.387 1_556 S
C548 H533 0.930 . S
C548 C543 1.390 . S
C548 C547 1.387 1_554 S
H549 C561 0.930 . S
H550 C563 0.930 . S
H551 C564 0.930 . S
H552 C568 0.959 . S
H553 C568 0.959 . S
H554 C568 0.961 . S
H555 C569 0.960 . S
H556 C569 0.961 . S
H557 C569 0.959 . S
H558 C572 0.929 . S
H559 C573 0.931 . S
H560 C575 0.930 . S
C561 H549 0.930 . S
C561 C562 1.399 . S
C561 C566 1.399 . S
C562 C561 1.399 . S
C562 C563 1.376 . S
C563 H550 0.930 . S
C563 C562 1.376 . S
C563 C564 1.388 . S
C564 H551 0.930 . S
C564 C563 1.388 . S
C564 C565 1.390 . S
C565 C564 1.390 . S
C565 C566 1.394 . S
C565 C571 1.465 . S
C566 C561 1.399 . S
C566 C565 1.394 . S
C566 C567 1.516 . S
C567 C566 1.516 . S
C567 C568 1.502 . S
C567 C569 1.561 . S
C567 C570 1.526 . S
C568 H552 0.959 . S
C568 H553 0.959 . S
C568 H554 0.961 . S
C568 C567 1.502 . S
C569 H555 0.960 . S
C569 H556 0.961 . S
C569 H557 0.959 . S
C569 C567 1.561 . S
C570 C567 1.526 . S
C570 C571 1.396 . S
C570 C575 1.390 . S
C571 C565 1.465 . S
C571 C570 1.396 . S
C571 C572 1.399 . S
C572 H558 0.929 . S
C572 C571 1.399 . S
C572 C573 1.385 . S
C573 H559 0.931 . S
C573 C572 1.385 . S
C573 C574 1.389 . S
C574 C573 1.389 . S
C574 C575 1.387 . S
C575 H560 0.930 . S
C575 C570 1.390 . S
C575 C574 1.387 . S
H576 C588 0.930 . S
H577 C590 0.930 . S
H578 C591 0.930 . S
H579 C595 0.959 . S
H580 C595 0.959 . S
H581 C595 0.961 . S
H582 C596 0.960 . S
H583 C596 0.961 . S
H584 C596 0.959 . S
H585 C599 0.929 . S
H586 C600 0.931 . S
H587 C602 0.930 . S
C588 H576 0.930 . S
C588 C589 1.399 . S
C588 C593 1.399 . S
C589 C588 1.399 . S
C589 C590 1.376 . S
C590 H577 0.930 . S
C590 C589 1.376 . S
C590 C591 1.388 . S
C591 H578 0.930 . S
C591 C590 1.388 . S
C591 C592 1.390 . S
C592 C591 1.390 . S
C592 C593 1.394 . S
C592 C598 1.465 . S
C593 C588 1.399 . S
C593 C592 1.394 . S
C593 C594 1.516 . S
C594 C593 1.516 . S
C594 C595 1.502 . S
C594 C596 1.561 . S
C594 C597 1.526 . S
C595 H579 0.959 . S
C595 H580 0.959 . S
C595 H581 0.961 . S
C595 C594 1.502 . S
C596 H582 0.960 . S
C596 H583 0.961 . S
C596 H584 0.959 . S
C596 C594 1.561 . S
C597 C594 1.526 . S
C597 C598 1.396 . S
C597 C602 1.390 . S
C598 C592 1.465 . S
C598 C597 1.396 . S
C598 C599 1.399 . S
C599 H585 0.929 . S
C599 C598 1.399 . S
C599 C600 1.385 . S
C600 H586 0.931 . S
C600 C599 1.385 . S
C600 C601 1.389 . S
C601 C600 1.389 . S
C601 C602 1.387 . S
C602 H587 0.930 . S
C602 C597 1.390 . S
C602 C601 1.387 . S
H603 C615 0.930 . S
H604 C617 0.930 . S
H605 C618 0.930 . S
H606 C622 0.959 . S
H607 C622 0.959 . S
H608 C622 0.961 . S
H609 C623 0.960 . S
H610 C623 0.961 . S
H611 C623 0.959 . S
H612 C626 0.929 . S
H613 C627 0.931 . S
H614 C629 0.930 . S
C615 H603 0.930 . S
C615 C616 1.399 . S
C615 C620 1.399 . S
C616 C615 1.399 . S
C616 C617 1.376 . S
C617 H604 0.930 . S
C617 C616 1.376 . S
C617 C618 1.388 . S
C618 H605 0.930 . S
C618 C617 1.388 . S
C618 C619 1.390 . S
C619 C618 1.390 . S
C619 C620 1.394 . S
C619 C625 1.465 . S
C620 C615 1.399 . S
C620 C619 1.394 . S
C620 C621 1.516 . S
C621 C620 1.516 . S
C621 C622 1.502 1_455 S
C621 C623 1.561 . S
C621 C624 1.526 . S
C622 H606 0.959 . S
C622 H607 0.959 . S
C622 H608 0.961 . S
C622 C621 1.502 1_655 S
C623 H609 0.960 . S
C623 H610 0.961 . S
C623 H611 0.959 . S
C623 C621 1.561 . S
C624 C621 1.526 . S
C624 C625 1.396 . S
C624 C629 1.390 1_455 S
C625 C619 1.465 . S
C625 C624 1.396 . S
C625 C626 1.399 . S
C626 H612 0.929 . S
C626 C625 1.399 . S
C626 C627 1.385 . S
C627 H613 0.931 . S
C627 C626 1.385 . S
C627 C628 1.389 1_455 S
C628 C627 1.389 1_655 S
C628 C629 1.387 . S
C629 H614 0.930 . S
C629 C624 1.390 1_655 S
C629 C628 1.387 . S
H630 C642 0.930 . S
H631 C644 0.930 . S
H632 C645 0.930 . S
H633 C649 0.959 . S
H634 C649 0.959 . S
H635 C649 0.961 . S
H636 C650 0.960 . S
H637 C650 0.961 . S
H638 C650 0.959 1_655 S
H639 C653 0.929 . S
H640 C654 0.931 . S
H641 C656 0.930 . S
C642 H630 0.930 . S
C642 C643 1.399 . S
C642 C647 1.399 . S
C643 C642 1.399 . S
C643 C644 1.376 1_455 S
C644 H631 0.930 . S
C644 C643 1.376 1_655 S
C644 C645 1.388 . S
C645 H632 0.930 . S
C645 C644 1.388 . S
C645 C646 1.390 1_655 S
C646 C645 1.390 1_455 S
C646 C647 1.394 . S
C646 C652 1.465 1_455 S
C647 C642 1.399 . S
C647 C646 1.394 . S
C647 C648 1.516 . S
C648 C647 1.516 . S
C648 C649 1.502 . S
C648 C650 1.561 . S
C648 C651 1.526 . S
C649 H633 0.959 . S
C649 H634 0.959 . S
C649 H635 0.961 . S
C649 C648 1.502 . S
C650 H636 0.960 . S
C650 H637 0.961 . S
C650 H638 0.959 1_455 S
C650 C648 1.561 . S
C651 C648 1.526 . S
C651 C652 1.396 1_455 S
C651 C656 1.390 . S
C652 C646 1.465 1_655 S
C652 C651 1.396 1_655 S
C652 C653 1.399 . S
C653 H639 0.929 . S
C653 C652 1.399 . S
C653 C654 1.385 . S
C654 H640 0.931 . S
C654 C653 1.385 . S
C654 C655 1.389 1_655 S
C655 C654 1.389 1_455 S
C655 C656 1.387 . S
C656 H641 0.930 . S
C656 C651 1.390 . S
C656 C655 1.387 . S
H657 C669 0.930 . S
H658 C671 0.930 . S
H659 C672 0.930 . S
H660 C676 0.959 . S
H661 C676 0.959 . S
H662 C676 0.961 . S
H663 C677 0.960 . S
H664 C677 0.961 . S
H665 C677 0.959 . S
H666 C680 0.929 . S
H667 C681 0.931 . S
H668 C683 0.930 . S
C669 H657 0.930 . S
C669 C670 1.399 . S
C669 C674 1.399 . S
C670 C669 1.399 . S
C670 C671 1.376 . S
C671 H658 0.930 . S
C671 C670 1.376 . S
C671 C672 1.388 . S
C672 H659 0.930 . S
C672 C671 1.388 . S
C672 C673 1.390 . S
C673 C672 1.390 . S
C673 C674 1.394 . S
C673 C679 1.465 . S
C674 C669 1.399 . S
C674 C673 1.394 . S
C674 C675 1.516 . S
C675 C674 1.516 . S
C675 C676 1.502 . S
C675 C677 1.561 . S
C675 C678 1.526 . S
C676 H660 0.959 . S
C676 H661 0.959 . S
C676 H662 0.961 . S
C676 C675 1.502 . S
C677 H663 0.960 . S
C677 H664 0.961 . S
C677 H665 0.959 . S
C677 C675 1.561 . S
C678 C675 1.526 . S
C678 C679 1.396 . S
C678 C683 1.390 . S
C679 C673 1.465 . S
C679 C678 1.396 . S
C679 C680 1.399 . S
C680 H666 0.929 . S
C680 C679 1.399 . S
C680 C681 1.385 . S
C681 H667 0.931 . S
C681 C680 1.385 . S
C681 C682 1.389 . S
C682 C681 1.389 . S
C682 C683 1.387 . S
C683 H668 0.930 . S
C683 C678 1.390 . S
C683 C682 1.387 . S
H684 C696 0.930 . S
H685 C698 0.930 . S
H686 C699 0.930 . S
H687 C703 0.959 . S
H688 C703 0.959 . S
H689 C703 0.961 . S
H690 C704 0.960 . S
H691 C704 0.961 . S
H692 C704 0.959 . S
H693 C707 0.929 . S
H694 C708 0.931 . S
H695 C710 0.930 . S
C696 H684 0.930 . S
C696 C697 1.399 . S
C696 C701 1.399 . S
C697 C696 1.399 . S
C697 C698 1.376 . S
C698 H685 0.930 . S
C698 C697 1.376 . S
C698 C699 1.388 . S
C699 H686 0.930 . S
C699 C698 1.388 . S
C699 C700 1.390 . S
C700 C699 1.390 . S
C700 C701 1.394 . S
C700 C706 1.465 . S
C701 C696 1.399 . S
C701 C700 1.394 . S
C701 C702 1.516 . S
C702 C701 1.516 . S
C702 C703 1.502 . S
C702 C704 1.561 . S
C702 C705 1.526 . S
C703 H687 0.959 . S
C703 H688 0.959 . S
C703 H689 0.961 . S
C703 C702 1.502 . S
C704 H690 0.960 . S
C704 H691 0.961 . S
C704 H692 0.959 . S
C704 C702 1.561 . S
C705 C702 1.526 . S
C705 C706 1.396 . S
C705 C710 1.390 . S
C706 C700 1.465 . S
C706 C705 1.396 . S
C706 C707 1.399 . S
C707 H693 0.929 . S
C707 C706 1.399 . S
C707 C708 1.385 . S
C708 H694 0.931 . S
C708 C707 1.385 . S
C708 C709 1.389 . S
C709 C708 1.389 . S
C709 C710 1.387 . S
C710 H695 0.930 . S
C710 C705 1.390 . S
C710 C709 1.387 . S
H711 C723 0.930 . S
H712 C725 0.930 1_455 S
H713 C726 0.930 . S
H714 C730 0.959 . S
H715 C730 0.959 . S
H716 C730 0.961 . S
H717 C731 0.960 1_455 S
H718 C731 0.961 . S
H719 C731 0.959 1_455 S
H720 C734 0.929 . S
H721 C735 0.931 . S
H722 C737 0.930 . S
C723 H711 0.930 . S
C723 C724 1.399 1_655 S
C723 C728 1.399 . S
C724 C723 1.399 1_455 S
C724 C725 1.376 1_455 S
C725 H712 0.930 1_655 S
C725 C724 1.376 1_655 S
C725 C726 1.388 . S
C726 H713 0.930 . S
C726 C725 1.388 . S
C726 C727 1.390 . S
C727 C726 1.390 . S
C727 C728 1.394 . S
C727 C733 1.465 . S
C728 C723 1.399 . S
C728 C727 1.394 . S
C728 C729 1.516 . S
C729 C728 1.516 . S
C729 C730 1.502 . S
C729 C731 1.561 . S
C729 C732 1.526 . S
C730 H714 0.959 . S
C730 H715 0.959 . S
C730 H716 0.961 . S
C730 C729 1.502 . S
C731 H717 0.960 1_655 S
C731 H718 0.961 . S
C731 H719 0.959 1_655 S
C731 C729 1.561 . S
C732 C729 1.526 . S
C732 C733 1.396 . S
C732 C737 1.390 . S
C733 C727 1.465 . S
C733 C732 1.396 . S
C733 C734 1.399 . S
C734 H720 0.929 . S
C734 C733 1.399 . S
C734 C735 1.385 . S
C735 H721 0.931 . S
C735 C734 1.385 . S
C735 C736 1.389 . S
C736 C735 1.389 . S
C736 C737 1.387 . S
C737 H722 0.930 . S
C737 C732 1.390 . S
C737 C736 1.387 . S
H738 C750 0.930 . S
H739 C752 0.930 . S
H740 C753 0.930 . S
H741 C757 0.959 . S
H742 C757 0.959 . S
H743 C757 0.961 . S
H744 C758 0.960 . S
H745 C758 0.961 . S
H746 C758 0.959 . S
H747 C761 0.929 . S
H748 C762 0.931 . S
H749 C764 0.930 . S
C750 H738 0.930 . S
C750 C751 1.399 . S
C750 C755 1.399 . S
C751 C750 1.399 . S
C751 C752 1.376 . S
C752 H739 0.930 . S
C752 C751 1.376 . S
C752 C753 1.388 . S
C753 H740 0.930 . S
C753 C752 1.388 . S
C753 C754 1.390 . S
C754 C753 1.390 . S
C754 C755 1.394 . S
C754 C760 1.465 . S
C755 C750 1.399 . S
C755 C754 1.394 . S
C755 C756 1.516 . S
C756 C755 1.516 . S
C756 C757 1.502 . S
C756 C758 1.561 . S
C756 C759 1.526 . S
C757 H741 0.959 . S
C757 H742 0.959 . S
C757 H743 0.961 . S
C757 C756 1.502 . S
C758 H744 0.960 . S
C758 H745 0.961 . S
C758 H746 0.959 . S
C758 C756 1.561 . S
C759 C756 1.526 . S
C759 C760 1.396 . S
C759 C764 1.390 . S
C760 C754 1.465 . S
C760 C759 1.396 . S
C760 C761 1.399 . S
C761 H747 0.929 . S
C761 C760 1.399 . S
C761 C762 1.385 . S
C762 H748 0.931 . S
C762 C761 1.385 . S
C762 C763 1.389 . S
C763 C762 1.389 . S
C763 C764 1.387 . S
C764 H749 0.930 . S
C764 C759 1.390 . S
C764 C763 1.387 . S
H765 C777 0.930 . S
H766 C779 0.930 . S
H767 C780 0.930 . S
H768 C784 0.959 . S
H769 C784 0.959 . S
H770 C784 0.961 . S
H771 C785 0.960 . S
H772 C785 0.961 . S
H773 C785 0.959 . S
H774 C788 0.929 . S
H775 C789 0.931 . S
H776 C791 0.930 . S
C777 H765 0.930 . S
C777 C778 1.399 . S
C777 C782 1.399 . S
C778 C777 1.399 . S
C778 C779 1.376 . S
C779 H766 0.930 . S
C779 C778 1.376 . S
C779 C780 1.388 . S
C780 H767 0.930 . S
C780 C779 1.388 . S
C780 C781 1.390 . S
C781 C780 1.390 . S
C781 C782 1.394 . S
C781 C787 1.465 1_554 S
C782 C777 1.399 . S
C782 C781 1.394 . S
C782 C783 1.516 . S
C783 C782 1.516 . S
C783 C784 1.502 . S
C783 C785 1.561 . S
C783 C786 1.526 . S
C784 H768 0.959 . S
C784 H769 0.959 . S
C784 H770 0.961 . S
C784 C783 1.502 . S
C785 H771 0.960 . S
C785 H772 0.961 . S
C785 H773 0.959 . S
C785 C783 1.561 . S
C786 C783 1.526 . S
C786 C787 1.396 1_554 S
C786 C791 1.390 1_554 S
C787 C781 1.465 1_556 S
C787 C786 1.396 1_556 S
C787 C788 1.399 . S
C788 H774 0.929 . S
C788 C787 1.399 . S
C788 C789 1.385 . S
C789 H775 0.931 . S
C789 C788 1.385 . S
C789 C790 1.389 . S
C790 C789 1.389 . S
C790 C791 1.387 . S
C791 H776 0.930 . S
C791 C786 1.390 1_556 S
C791 C790 1.387 . S
H792 C804 0.930 . S
H793 C806 0.930 . S
H794 C807 0.930 . S
H795 C811 0.959 . S
H796 C811 0.959 . S
H797 C811 0.961 . S
H798 C812 0.960 . S
H799 C812 0.961 . S
H800 C812 0.959 . S
H801 C815 0.929 . S
H802 C816 0.931 . S
H803 C818 0.930 . S
C804 H792 0.930 . S
C804 C805 1.399 . S
C804 C809 1.399 . S
C805 C804 1.399 . S
C805 C806 1.376 . S
C806 H793 0.930 . S
C806 C805 1.376 . S
C806 C807 1.388 . S
C807 H794 0.930 . S
C807 C806 1.388 . S
C807 C808 1.390 . S
C808 C807 1.390 . S
C808 C809 1.394 . S
C808 C814 1.465 . S
C809 C804 1.399 . S
C809 C808 1.394 . S
C809 C810 1.516 . S
C810 C809 1.516 . S
C810 C811 1.502 . S
C810 C812 1.561 . S
C810 C813 1.526 . S
C811 H795 0.959 . S
C811 H796 0.959 . S
C811 H797 0.961 . S
C811 C810 1.502 . S
C812 H798 0.960 . S
C812 H799 0.961 . S
C812 H800 0.959 . S
C812 C810 1.561 . S
C813 C810 1.526 . S
C813 C814 1.396 . S
C813 C818 1.390 . S
C814 C808 1.465 . S
C814 C813 1.396 . S
C814 C815 1.399 . S
C815 H801 0.929 . S
C815 C814 1.399 . S
C815 C816 1.385 . S
C816 H802 0.931 . S
C816 C815 1.385 . S
C816 C817 1.389 . S
C817 C816 1.389 . S
C817 C818 1.387 . S
C818 H803 0.930 . S
C818 C813 1.390 . S
C818 C817 1.387 . S
H819 C831 0.930 . S
H820 C833 0.930 . S
H821 C834 0.930 . S
H822 C838 0.959 . S
H823 C838 0.959 . S
H824 C838 0.961 . S
H825 C839 0.960 . S
H826 C839 0.961 . S
H827 C839 0.959 . S
H828 C842 0.929 . S
H829 C843 0.931 . S
H830 C845 0.930 . S
C831 H819 0.930 . S
C831 C832 1.399 . S
C831 C836 1.399 . S
C832 C831 1.399 . S
C832 C833 1.376 . S
C833 H820 0.930 . S
C833 C832 1.376 . S
C833 C834 1.388 . S
C834 H821 0.930 . S
C834 C833 1.388 . S
C834 C835 1.390 . S
C835 C834 1.390 . S
C835 C836 1.394 . S
C835 C841 1.465 . S
C836 C831 1.399 . S
C836 C835 1.394 . S
C836 C837 1.516 . S
C837 C836 1.516 . S
C837 C838 1.502 . S
C837 C839 1.561 . S
C837 C840 1.526 . S
C838 H822 0.959 . S
C838 H823 0.959 . S
C838 H824 0.961 . S
C838 C837 1.502 . S
C839 H825 0.960 . S
C839 H826 0.961 . S
C839 H827 0.959 . S
C839 C837 1.561 . S
C840 C837 1.526 . S
C840 C841 1.396 . S
C840 C845 1.390 . S
C841 C835 1.465 . S
C841 C840 1.396 . S
C841 C842 1.399 . S
C842 H828 0.929 . S
C842 C841 1.399 . S
C842 C843 1.385 . S
C843 H829 0.931 . S
C843 C842 1.385 . S
C843 C844 1.389 . S
C844 C843 1.389 . S
C844 C845 1.387 . S
C845 H830 0.930 . S
C845 C840 1.390 . S
C845 C844 1.387 . S
H846 C858 0.930 . S
H847 C860 0.930 . S
H848 C861 0.930 . S
H849 C865 0.959 . S
H850 C865 0.959 . S
H851 C865 0.961 . S
H852 C866 0.960 . S
H853 C866 0.961 . S
H854 C866 0.959 . S
H855 C869 0.929 . S
H856 C870 0.931 . S
H857 C872 0.930 . S
C858 H846 0.930 . S
C858 C859 1.399 . S
C858 C863 1.399 . S
C859 C858 1.399 . S
C859 C860 1.376 . S
C860 H847 0.930 . S
C860 C859 1.376 . S
C860 C861 1.388 . S
C861 H848 0.930 . S
C861 C860 1.388 . S
C861 C862 1.390 . S
C862 C861 1.390 . S
C862 C863 1.394 . S
C862 C868 1.465 . S
C863 C858 1.399 . S
C863 C862 1.394 . S
C863 C864 1.516 . S
C864 C863 1.516 . S
C864 C865 1.502 . S
C864 C866 1.561 . S
C864 C867 1.526 . S
C865 H849 0.959 . S
C865 H850 0.959 . S
C865 H851 0.961 . S
C865 C864 1.502 . S
C866 H852 0.960 . S
C866 H853 0.961 . S
C866 H854 0.959 . S
C866 C864 1.561 . S
C867 C864 1.526 . S
C867 C868 1.396 . S
C867 C872 1.390 . S
C868 C862 1.465 . S
C868 C867 1.396 . S
C868 C869 1.399 . S
C869 H855 0.929 . S
C869 C868 1.399 . S
C869 C870 1.385 . S
C870 H856 0.931 . S
C870 C869 1.385 . S
C870 C871 1.389 . S
C871 C870 1.389 . S
C871 C872 1.387 . S
C872 H857 0.930 . S
C872 C867 1.390 . S
C872 C871 1.387 . S
H873 C885 0.930 . S
H874 C887 0.930 . S
H875 C888 0.930 . S
H876 C892 0.959 . S
H877 C892 0.959 . S
H878 C892 0.961 . S
H879 C893 0.960 . S
H880 C893 0.961 . S
H881 C893 0.959 . S
H882 C896 0.929 . S
H883 C897 0.931 . S
H884 C899 0.930 . S
C885 H873 0.930 . S
C885 C886 1.399 . S
C885 C890 1.399 . S
C886 C885 1.399 . S
C886 C887 1.376 . S
C887 H874 0.930 . S
C887 C886 1.376 . S
C887 C888 1.388 . S
C888 H875 0.930 . S
C888 C887 1.388 . S
C888 C889 1.390 . S
C889 C888 1.390 . S
C889 C890 1.394 . S
C889 C895 1.465 . S
C890 C885 1.399 . S
C890 C889 1.394 . S
C890 C891 1.516 . S
C891 C890 1.516 . S
C891 C892 1.502 . S
C891 C893 1.561 . S
C891 C894 1.526 . S
C892 H876 0.959 . S
C892 H877 0.959 . S
C892 H878 0.961 . S
C892 C891 1.502 . S
C893 H879 0.960 . S
C893 H880 0.961 . S
C893 H881 0.959 . S
C893 C891 1.561 . S
C894 C891 1.526 . S
C894 C895 1.396 . S
C894 C899 1.390 . S
C895 C889 1.465 . S
C895 C894 1.396 . S
C895 C896 1.399 . S
C896 H882 0.929 . S
C896 C895 1.399 . S
C896 C897 1.385 . S
C897 H883 0.931 . S
C897 C896 1.385 . S
C897 C898 1.389 . S
C898 C897 1.389 . S
C898 C899 1.387 . S
C899 H884 0.930 . S
C899 C894 1.390 . S
C899 C898 1.387 . S
H900 C912 0.930 . S
H901 C914 0.930 . S
H902 C915 0.930 . S
H903 C919 0.959 . S
H904 C919 0.959 . S
H905 C919 0.961 . S
H906 C920 0.960 . S
H907 C920 0.961 . S
H908 C920 0.959 . S
H909 C923 0.929 . S
H910 C924 0.931 . S
H911 C926 0.930 . S
C912 H900 0.930 . S
C912 C913 1.399 . S
C912 C917 1.399 . S
C913 C912 1.399 . S
C913 C914 1.376 . S
C914 H901 0.930 . S
C914 C913 1.376 . S
C914 C915 1.388 . S
C915 H902 0.930 . S
C915 C914 1.388 . S
C915 C916 1.390 . S
C916 C915 1.390 . S
C916 C917 1.394 . S
C916 C922 1.465 . S
C917 C912 1.399 . S
C917 C916 1.394 . S
C917 C918 1.516 . S
C918 C917 1.516 . S
C918 C919 1.502 . S
C918 C920 1.561 . S
C918 C921 1.526 . S
C919 H903 0.959 . S
C919 H904 0.959 . S
C919 H905 0.961 . S
C919 C918 1.502 . S
C920 H906 0.960 . S
C920 H907 0.961 . S
C920 H908 0.959 . S
C920 C918 1.561 . S
C921 C918 1.526 . S
C921 C922 1.396 . S
C921 C926 1.390 . S
C922 C916 1.465 . S
C922 C921 1.396 . S
C922 C923 1.399 . S
C923 H909 0.929 . S
C923 C922 1.399 . S
C923 C924 1.385 . S
C924 H910 0.931 . S
C924 C923 1.385 . S
C924 C925 1.389 . S
C925 C924 1.389 . S
C925 C926 1.387 . S
C926 H911 0.930 . S
C926 C921 1.390 . S
C926 C925 1.387 . S
H927 C939 0.930 . S
H928 C941 0.930 . S
H929 C942 0.930 . S
H930 C946 0.959 . S
H931 C946 0.959 . S
H932 C946 0.961 . S
H933 C947 0.960 . S
H934 C947 0.961 . S
H935 C947 0.959 . S
H936 C950 0.929 . S
H937 C951 0.931 . S
H938 C953 0.930 . S
C939 H927 0.930 . S
C939 C940 1.399 . S
C939 C944 1.399 . S
C940 C939 1.399 . S
C940 C941 1.376 . S
C941 H928 0.930 . S
C941 C940 1.376 . S
C941 C942 1.388 . S
C942 H929 0.930 . S
C942 C941 1.388 . S
C942 C943 1.390 . S
C943 C942 1.390 . S
C943 C944 1.394 . S
C943 C949 1.465 . S
C944 C939 1.399 . S
C944 C943 1.394 . S
C944 C945 1.516 . S
C945 C944 1.516 . S
C945 C946 1.502 . S
C945 C947 1.561 . S
C945 C948 1.526 . S
C946 H930 0.959 . S
C946 H931 0.959 . S
C946 H932 0.961 . S
C946 C945 1.502 . S
C947 H933 0.960 . S
C947 H934 0.961 . S
C947 H935 0.959 . S
C947 C945 1.561 . S
C948 C945 1.526 . S
C948 C949 1.396 . S
C948 C953 1.390 . S
C949 C943 1.465 . S
C949 C948 1.396 . S
C949 C950 1.399 . S
C950 H936 0.929 . S
C950 C949 1.399 . S
C950 C951 1.385 1_545 S
C951 H937 0.931 . S
C951 C950 1.385 1_565 S
C951 C952 1.389 . S
C952 C951 1.389 . S
C952 C953 1.387 1_565 S
C953 H938 0.930 . S
C953 C948 1.390 . S
C953 C952 1.387 1_545 S
H954 C966 0.930 . S
H955 C968 0.930 . S
H956 C969 0.930 . S
H957 C973 0.959 . S
H958 C973 0.959 . S
H959 C973 0.961 . S
H960 C974 0.960 . S
H961 C974 0.961 . S
H962 C974 0.959 . S
H963 C977 0.929 . S
H964 C978 0.931 . S
H965 C980 0.930 . S
C966 H954 0.930 . S
C966 C967 1.399 . S
C966 C971 1.399 . S
C967 C966 1.399 . S
C967 C968 1.376 . S
C968 H955 0.930 . S
C968 C967 1.376 . S
C968 C969 1.388 . S
C969 H956 0.930 . S
C969 C968 1.388 . S
C969 C970 1.390 . S
C970 C969 1.390 . S
C970 C971 1.394 . S
C970 C976 1.465 . S
C971 C966 1.399 . S
C971 C970 1.394 . S
C971 C972 1.516 . S
C972 C971 1.516 . S
C972 C973 1.502 . S
C972 C974 1.561 . S
C972 C975 1.526 . S
C973 H957 0.959 . S
C973 H958 0.959 . S
C973 H959 0.961 . S
C973 C972 1.502 . S
C974 H960 0.960 . S
C974 H961 0.961 . S
C974 H962 0.959 . S
C974 C972 1.561 . S
C975 C972 1.526 . S
C975 C976 1.396 . S
C975 C980 1.390 . S
C976 C970 1.465 . S
C976 C975 1.396 . S
C976 C977 1.399 . S
C977 H963 0.929 . S
C977 C976 1.399 . S
C977 C978 1.385 . S
C978 H964 0.931 . S
C978 C977 1.385 . S
C978 C979 1.389 . S
C979 C978 1.389 . S
C979 C980 1.387 . S
C980 H965 0.930 . S
C980 C975 1.390 . S
C980 C979 1.387 . S
H981 C993 0.930 . S
H982 C995 0.930 . S
H983 C996 0.930 . S
H984 C1000 0.959 . S
H985 C1000 0.959 . S
H986 C1000 0.961 . S
H987 C1001 0.960 . S
H988 C1001 0.961 . S
H989 C1001 0.959 . S
H990 C1004 0.929 . S
H991 C1005 0.931 . S
H992 C1007 0.930 . S
C993 H981 0.930 . S
C993 C994 1.399 1_565 S
C993 C998 1.399 . S
C994 C993 1.399 1_545 S
C994 C995 1.376 . S
C995 H982 0.930 . S
C995 C994 1.376 . S
C995 C996 1.388 1_545 S
C996 H983 0.930 . S
C996 C995 1.388 1_565 S
C996 C997 1.390 . S
C997 C996 1.390 . S
C997 C998 1.394 . S
C997 C1003 1.465 . S
C998 C993 1.399 . S
C998 C997 1.394 . S
C998 C999 1.516 . S
C999 C998 1.516 . S
C999 C1000 1.502 . S
C999 C1001 1.561 . S
C999 C1002 1.526 . S
C1000 H984 0.959 . S
C1000 H985 0.959 . S
C1000 H986 0.961 . S
C1000 C999 1.502 . S
C1001 H987 0.960 . S
C1001 H988 0.961 . S
C1001 H989 0.959 . S
C1001 C999 1.561 . S
C1002 C999 1.526 . S
C1002 C1003 1.396 . S
C1002 C1007 1.390 . S
C1003 C997 1.465 . S
C1003 C1002 1.396 . S
C1003 C1004 1.399 1_554 S
C1004 H990 0.929 . S
C1004 C1003 1.399 1_556 S
C1004 C1005 1.385 . S
C1005 H991 0.931 . S
C1005 C1004 1.385 . S
C1005 C1006 1.389 1_556 S
C1006 C1005 1.389 1_554 S
C1006 C1007 1.387 . S
C1007 H992 0.930 . S
C1007 C1002 1.390 . S
C1007 C1006 1.387 . S
H1008 C1020 0.930 . S
H1009 C1022 0.930 . S
H1010 C1023 0.930 . S
H1011 C1027 0.959 . S
H1012 C1027 0.959 . S
H1013 C1027 0.961 . S
H1014 C1028 0.960 . S
H1015 C1028 0.961 . S
H1016 C1028 0.959 . S
H1017 C1031 0.929 . S
H1018 C1032 0.931 . S
H1019 C1034 0.930 . S
C1020 H1008 0.930 . S
C1020 C1021 1.399 . S
C1020 C1025 1.399 . S
C1021 C1020 1.399 . S
C1021 C1022 1.376 . S
C1022 H1009 0.930 . S
C1022 C1021 1.376 . S
C1022 C1023 1.388 . S
C1023 H1010 0.930 . S
C1023 C1022 1.388 . S
C1023 C1024 1.390 . S
C1024 C1023 1.390 . S
C1024 C1025 1.394 . S
C1024 C1030 1.465 . S
C1025 C1020 1.399 . S
C1025 C1024 1.394 . S
C1025 C1026 1.516 . S
C1026 C1025 1.516 . S
C1026 C1027 1.502 . S
C1026 C1028 1.561 . S
C1026 C1029 1.526 . S
C1027 H1011 0.959 . S
C1027 H1012 0.959 . S
C1027 H1013 0.961 . S
C1027 C1026 1.502 . S
C1028 H1014 0.960 . S
C1028 H1015 0.961 . S
C1028 H1016 0.959 . S
C1028 C1026 1.561 . S
C1029 C1026 1.526 . S
C1029 C1030 1.396 . S
C1029 C1034 1.390 . S
C1030 C1024 1.465 . S
C1030 C1029 1.396 . S
C1030 C1031 1.399 . S
C1031 H1017 0.929 . S
C1031 C1030 1.399 . S
C1031 C1032 1.385 . S
C1032 H1018 0.931 . S
C1032 C1031 1.385 . S
C1032 C1033 1.389 . S
C1033 C1032 1.389 . S
C1033 C1034 1.387 . S
C1034 H1019 0.930 . S
C1034 C1029 1.390 . S
C1034 C1033 1.387 . S
H1035 C1047 0.930 . S
H1036 C1049 0.930 . S
H1037 C1050 0.930 . S
H1038 C1054 0.959 . S
H1039 C1054 0.959 . S
H1040 C1054 0.961 . S
H1041 C1055 0.960 . S
H1042 C1055 0.961 . S
H1043 C1055 0.959 . S
H1044 C1058 0.929 . S
H1045 C1059 0.931 . S
H1046 C1061 0.930 . S
C1047 H1035 0.930 . S
C1047 C1048 1.399 . S
C1047 C1052 1.399 . S
C1048 C1047 1.399 . S
C1048 C1049 1.376 . S
C1049 H1036 0.930 . S
C1049 C1048 1.376 . S
C1049 C1050 1.388 . S
C1050 H1037 0.930 . S
C1050 C1049 1.388 . S
C1050 C1051 1.390 . S
C1051 C1050 1.390 . S
C1051 C1052 1.394 . S
C1051 C1057 1.465 . S
C1052 C1047 1.399 . S
C1052 C1051 1.394 . S
C1052 C1053 1.516 . S
C1053 C1052 1.516 . S
C1053 C1054 1.502 . S
C1053 C1055 1.561 . S
C1053 C1056 1.526 . S
C1054 H1038 0.959 . S
C1054 H1039 0.959 . S
C1054 H1040 0.961 . S
C1054 C1053 1.502 . S
C1055 H1041 0.960 . S
C1055 H1042 0.961 . S
C1055 H1043 0.959 . S
C1055 C1053 1.561 . S
C1056 C1053 1.526 . S
C1056 C1057 1.396 . S
C1056 C1061 1.390 . S
C1057 C1051 1.465 . S
C1057 C1056 1.396 . S
C1057 C1058 1.399 . S
C1058 H1044 0.929 . S
C1058 C1057 1.399 . S
C1058 C1059 1.385 . S
C1059 H1045 0.931 . S
C1059 C1058 1.385 . S
C1059 C1060 1.389 . S
C1060 C1059 1.389 . S
C1060 C1061 1.387 . S
C1061 H1046 0.930 . S
C1061 C1056 1.390 . S
C1061 C1060 1.387 . S
H1062 C1074 0.930 . S
H1063 C1076 0.930 . S
H1064 C1077 0.930 . S
H1065 C1081 0.959 . S
H1066 C1081 0.959 . S
H1067 C1081 0.961 . S
H1068 C1082 0.960 . S
H1069 C1082 0.961 . S
H1070 C1082 0.959 . S
H1071 C1085 0.929 . S
H1072 C1086 0.931 . S
H1073 C1088 0.930 . S
C1074 H1062 0.930 . S
C1074 C1075 1.399 . S
C1074 C1079 1.399 . S
C1075 C1074 1.399 . S
C1075 C1076 1.376 . S
C1076 H1063 0.930 . S
C1076 C1075 1.376 . S
C1076 C1077 1.388 . S
C1077 H1064 0.930 . S
C1077 C1076 1.388 . S
C1077 C1078 1.390 . S
C1078 C1077 1.390 . S
C1078 C1079 1.394 . S
C1078 C1084 1.465 . S
C1079 C1074 1.399 . S
C1079 C1078 1.394 . S
C1079 C1080 1.516 . S
C1080 C1079 1.516 . S
C1080 C1081 1.502 . S
C1080 C1082 1.561 . S
C1080 C1083 1.526 . S
C1081 H1065 0.959 . S
C1081 H1066 0.959 . S
C1081 H1067 0.961 . S
C1081 C1080 1.502 . S
C1082 H1068 0.960 . S
C1082 H1069 0.961 . S
C1082 H1070 0.959 . S
C1082 C1080 1.561 . S
C1083 C1080 1.526 . S
C1083 C1084 1.396 . S
C1083 C1088 1.390 . S
C1084 C1078 1.465 . S
C1084 C1083 1.396 . S
C1084 C1085 1.399 . S
C1085 H1071 0.929 . S
C1085 C1084 1.399 . S
C1085 C1086 1.385 . S
C1086 H1072 0.931 . S
C1086 C1085 1.385 . S
C1086 C1087 1.389 . S
C1087 C1086 1.389 . S
C1087 C1088 1.387 . S
C1088 H1073 0.930 . S
C1088 C1083 1.390 . S
C1088 C1087 1.387 . S
H1089 C1101 0.930 . S
H1090 C1103 0.930 . S
H1091 C1104 0.930 . S
H1092 C1108 0.959 . S
H1093 C1108 0.959 . S
H1094 C1108 0.961 . S
H1095 C1109 0.960 . S
H1096 C1109 0.961 . S
H1097 C1109 0.959 . S
H1098 C1112 0.929 . S
H1099 C1113 0.931 . S
H1100 C1115 0.930 . S
C1101 H1089 0.930 . S
C1101 C1102 1.399 . S
C1101 C1106 1.399 . S
C1102 C1101 1.399 . S
C1102 C1103 1.376 . S
C1103 H1090 0.930 . S
C1103 C1102 1.376 . S
C1103 C1104 1.388 . S
C1104 H1091 0.930 . S
C1104 C1103 1.388 . S
C1104 C1105 1.390 . S
C1105 C1104 1.390 . S
C1105 C1106 1.394 . S
C1105 C1111 1.465 . S
C1106 C1101 1.399 . S
C1106 C1105 1.394 . S
C1106 C1107 1.516 . S
C1107 C1106 1.516 . S
C1107 C1108 1.502 . S
C1107 C1109 1.561 . S
C1107 C1110 1.526 . S
C1108 H1092 0.959 . S
C1108 H1093 0.959 . S
C1108 H1094 0.961 . S
C1108 C1107 1.502 . S
C1109 H1095 0.960 . S
C1109 H1096 0.961 . S
C1109 H1097 0.959 . S
C1109 C1107 1.561 . S
C1110 C1107 1.526 . S
C1110 C1111 1.396 . S
C1110 C1115 1.390 . S
C1111 C1105 1.465 . S
C1111 C1110 1.396 . S
C1111 C1112 1.399 . S
C1112 H1098 0.929 . S
C1112 C1111 1.399 . S
C1112 C1113 1.385 . S
C1113 H1099 0.931 . S
C1113 C1112 1.385 . S
C1113 C1114 1.389 . S
C1114 C1113 1.389 . S
C1114 C1115 1.387 . S
C1115 H1100 0.930 . S
C1115 C1110 1.390 . S
C1115 C1114 1.387 . S
H1116 C1128 0.930 . S
H1117 C1130 0.930 . S
H1118 C1131 0.930 . S
H1119 C1135 0.959 . S
H1120 C1135 0.959 . S
H1121 C1135 0.961 . S
H1122 C1136 0.960 . S
H1123 C1136 0.961 . S
H1124 C1136 0.959 . S
H1125 C1139 0.929 . S
H1126 C1140 0.931 . S
H1127 C1142 0.930 . S
C1128 H1116 0.930 . S
C1128 C1129 1.399 . S
C1128 C1133 1.399 . S
C1129 C1128 1.399 . S
C1129 C1130 1.376 . S
C1130 H1117 0.930 . S
C1130 C1129 1.376 . S
C1130 C1131 1.388 . S
C1131 H1118 0.930 . S
C1131 C1130 1.388 . S
C1131 C1132 1.390 . S
C1132 C1131 1.390 . S
C1132 C1133 1.394 . S
C1132 C1138 1.465 . S
C1133 C1128 1.399 . S
C1133 C1132 1.394 . S
C1133 C1134 1.516 . S
C1134 C1133 1.516 . S
C1134 C1135 1.502 . S
C1134 C1136 1.561 . S
C1134 C1137 1.526 . S
C1135 H1119 0.959 . S
C1135 H1120 0.959 . S
C1135 H1121 0.961 . S
C1135 C1134 1.502 . S
C1136 H1122 0.960 . S
C1136 H1123 0.961 . S
C1136 H1124 0.959 . S
C1136 C1134 1.561 . S
C1137 C1134 1.526 . S
C1137 C1138 1.396 . S
C1137 C1142 1.390 . S
C1138 C1132 1.465 . S
C1138 C1137 1.396 . S
C1138 C1139 1.399 . S
C1139 H1125 0.929 . S
C1139 C1138 1.399 . S
C1139 C1140 1.385 . S
C1140 H1126 0.931 . S
C1140 C1139 1.385 . S
C1140 C1141 1.389 . S
C1141 C1140 1.389 . S
C1141 C1142 1.387 . S
C1142 H1127 0.930 . S
C1142 C1137 1.390 . S
C1142 C1141 1.387 . S
H1143 C1155 0.930 . S
H1144 C1157 0.930 . S
H1145 C1158 0.930 . S
H1146 C1162 0.959 . S
H1147 C1162 0.959 . S
H1148 C1162 0.961 . S
H1149 C1163 0.960 . S
H1150 C1163 0.961 . S
H1151 C1163 0.959 . S
H1152 C1166 0.929 . S
H1153 C1167 0.931 . S
H1154 C1169 0.930 . S
C1155 H1143 0.930 . S
C1155 C1156 1.399 . S
C1155 C1160 1.399 . S
C1156 C1155 1.399 . S
C1156 C1157 1.376 . S
C1157 H1144 0.930 . S
C1157 C1156 1.376 . S
C1157 C1158 1.388 . S
C1158 H1145 0.930 . S
C1158 C1157 1.388 . S
C1158 C1159 1.390 . S
C1159 C1158 1.390 . S
C1159 C1160 1.394 . S
C1159 C1165 1.465 . S
C1160 C1155 1.399 . S
C1160 C1159 1.394 . S
C1160 C1161 1.516 . S
C1161 C1160 1.516 . S
C1161 C1162 1.502 . S
C1161 C1163 1.561 . S
C1161 C1164 1.526 . S
C1162 H1146 0.959 . S
C1162 H1147 0.959 . S
C1162 H1148 0.961 . S
C1162 C1161 1.502 . S
C1163 H1149 0.960 . S
C1163 H1150 0.961 . S
C1163 H1151 0.959 . S
C1163 C1161 1.561 . S
C1164 C1161 1.526 . S
C1164 C1165 1.396 . S
C1164 C1169 1.390 . S
C1165 C1159 1.465 . S
C1165 C1164 1.396 . S
C1165 C1166 1.399 . S
C1166 H1152 0.929 . S
C1166 C1165 1.399 . S
C1166 C1167 1.385 . S
C1167 H1153 0.931 . S
C1167 C1166 1.385 . S
C1167 C1168 1.389 . S
C1168 C1167 1.389 . S
C1168 C1169 1.387 . S
C1169 H1154 0.930 . S
C1169 C1164 1.390 . S
C1169 C1168 1.387 . S
H1170 C1182 0.930 . S
H1171 C1184 0.930 . S
H1172 C1185 0.930 . S
H1173 C1189 0.959 . S
H1174 C1189 0.959 1_556 S
H1175 C1189 0.961 . S
H1176 C1190 0.960 . S
H1177 C1190 0.961 . S
H1178 C1190 0.959 . S
H1179 C1193 0.929 . S
H1180 C1194 0.931 . S
H1181 C1196 0.930 . S
C1182 H1170 0.930 . S
C1182 C1183 1.399 . S
C1182 C1187 1.399 . S
C1183 C1182 1.399 . S
C1183 C1184 1.376 . S
C1184 H1171 0.930 . S
C1184 C1183 1.376 . S
C1184 C1185 1.388 . S
C1185 H1172 0.930 . S
C1185 C1184 1.388 . S
C1185 C1186 1.390 . S
C1186 C1185 1.390 . S
C1186 C1187 1.394 . S
C1186 C1192 1.465 . S
C1187 C1182 1.399 . S
C1187 C1186 1.394 . S
C1187 C1188 1.516 . S
C1188 C1187 1.516 . S
C1188 C1189 1.502 . S
C1188 C1190 1.561 . S
C1188 C1191 1.526 . S
C1189 H1173 0.959 . S
C1189 H1174 0.959 1_554 S
C1189 H1175 0.961 . S
C1189 C1188 1.502 . S
C1190 H1176 0.960 . S
C1190 H1177 0.961 . S
C1190 H1178 0.959 . S
C1190 C1188 1.561 . S
C1191 C1188 1.526 . S
C1191 C1192 1.396 . S
C1191 C1196 1.390 1_455 S
C1192 C1186 1.465 . S
C1192 C1191 1.396 . S
C1192 C1193 1.399 1_455 S
C1193 H1179 0.929 . S
C1193 C1192 1.399 1_655 S
C1193 C1194 1.385 . S
C1194 H1180 0.931 . S
C1194 C1193 1.385 . S
C1194 C1195 1.389 . S
C1195 C1194 1.389 . S
C1195 C1196 1.387 . S
C1196 H1181 0.930 . S
C1196 C1191 1.390 1_655 S
C1196 C1195 1.387 . S
H1197 C1209 0.930 . S
H1198 C1211 0.930 . S
H1199 C1212 0.930 . S
H1200 C1216 0.959 . S
H1201 C1216 0.959 . S
H1202 C1216 0.961 . S
H1203 C1217 0.960 . S
H1204 C1217 0.961 . S
H1205 C1217 0.959 . S
H1206 C1220 0.929 . S
H1207 C1221 0.931 . S
H1208 C1223 0.930 . S
C1209 H1197 0.930 . S
C1209 C1210 1.399 . S
C1209 C1214 1.399 . S
C1210 C1209 1.399 . S
C1210 C1211 1.376 . S
C1211 H1198 0.930 . S
C1211 C1210 1.376 . S
C1211 C1212 1.388 . S
C1212 H1199 0.930 . S
C1212 C1211 1.388 . S
C1212 C1213 1.390 . S
C1213 C1212 1.390 . S
C1213 C1214 1.394 . S
C1213 C1219 1.465 . S
C1214 C1209 1.399 . S
C1214 C1213 1.394 . S
C1214 C1215 1.516 . S
C1215 C1214 1.516 . S
C1215 C1216 1.502 . S
C1215 C1217 1.561 . S
C1215 C1218 1.526 . S
C1216 H1200 0.959 . S
C1216 H1201 0.959 . S
C1216 H1202 0.961 . S
C1216 C1215 1.502 . S
C1217 H1203 0.960 . S
C1217 H1204 0.961 . S
C1217 H1205 0.959 . S
C1217 C1215 1.561 . S
C1218 C1215 1.526 . S
C1218 C1219 1.396 . S
C1218 C1223 1.390 . S
C1219 C1213 1.465 . S
C1219 C1218 1.396 . S
C1219 C1220 1.399 . S
C1220 H1206 0.929 . S
C1220 C1219 1.399 . S
C1220 C1221 1.385 . S
C1221 H1207 0.931 . S
C1221 C1220 1.385 . S
C1221 C1222 1.389 . S
C1222 C1221 1.389 . S
C1222 C1223 1.387 . S
C1223 H1208 0.930 . S
C1223 C1218 1.390 . S
C1223 C1222 1.387 . S
H1224 C1236 0.930 . S
H1225 C1238 0.930 . S
H1226 C1239 0.930 . S
H1227 C1243 0.959 . S
H1228 C1243 0.959 . S
H1229 C1243 0.961 . S
H1230 C1244 0.960 . S
H1231 C1244 0.961 . S
H1232 C1244 0.959 . S
H1233 C1247 0.929 . S
H1234 C1248 0.931 . S
H1235 C1250 0.930 . S
C1236 H1224 0.930 . S
C1236 C1237 1.399 . S
C1236 C1241 1.399 . S
C1237 C1236 1.399 . S
C1237 C1238 1.376 . S
C1238 H1225 0.930 . S
C1238 C1237 1.376 . S
C1238 C1239 1.388 . S
C1239 H1226 0.930 . S
C1239 C1238 1.388 . S
C1239 C1240 1.390 . S
C1240 C1239 1.390 . S
C1240 C1241 1.394 . S
C1240 C1246 1.465 . S
C1241 C1236 1.399 . S
C1241 C1240 1.394 . S
C1241 C1242 1.516 . S
C1242 C1241 1.516 . S
C1242 C1243 1.502 . S
C1242 C1244 1.561 . S
C1242 C1245 1.526 . S
C1243 H1227 0.959 . S
C1243 H1228 0.959 . S
C1243 H1229 0.961 . S
C1243 C1242 1.502 . S
C1244 H1230 0.960 . S
C1244 H1231 0.961 . S
C1244 H1232 0.959 . S
C1244 C1242 1.561 . S
C1245 C1242 1.526 . S
C1245 C1246 1.396 . S
C1245 C1250 1.390 . S
C1246 C1240 1.465 . S
C1246 C1245 1.396 . S
C1246 C1247 1.399 . S
C1247 H1233 0.929 . S
C1247 C1246 1.399 . S
C1247 C1248 1.385 . S
C1248 H1234 0.931 . S
C1248 C1247 1.385 . S
C1248 C1249 1.389 . S
C1249 C1248 1.389 . S
C1249 C1250 1.387 . S
C1250 H1235 0.930 . S
C1250 C1245 1.390 . S
C1250 C1249 1.387 . S
H1251 C1263 0.930 . S
H1252 C1265 0.930 . S
H1253 C1266 0.930 . S
H1254 C1270 0.959 . S
H1255 C1270 0.959 . S
H1256 C1270 0.961 . S
H1257 C1271 0.960 . S
H1258 C1271 0.961 . S
H1259 C1271 0.959 . S
H1260 C1274 0.929 . S
H1261 C1275 0.931 . S
H1262 C1277 0.930 . S
C1263 H1251 0.930 . S
C1263 C1264 1.399 . S
C1263 C1268 1.399 . S
C1264 C1263 1.399 . S
C1264 C1265 1.376 . S
C1265 H1252 0.930 . S
C1265 C1264 1.376 . S
C1265 C1266 1.388 . S
C1266 H1253 0.930 . S
C1266 C1265 1.388 . S
C1266 C1267 1.390 . S
C1267 C1266 1.390 . S
C1267 C1268 1.394 . S
C1267 C1273 1.465 . S
C1268 C1263 1.399 . S
C1268 C1267 1.394 . S
C1268 C1269 1.516 . S
C1269 C1268 1.516 . S
C1269 C1270 1.502 . S
C1269 C1271 1.561 . S
C1269 C1272 1.526 . S
C1270 H1254 0.959 . S
C1270 H1255 0.959 . S
C1270 H1256 0.961 . S
C1270 C1269 1.502 . S
C1271 H1257 0.960 . S
C1271 H1258 0.961 . S
C1271 H1259 0.959 . S
C1271 C1269 1.561 . S
C1272 C1269 1.526 . S
C1272 C1273 1.396 . S
C1272 C1277 1.390 . S
C1273 C1267 1.465 . S
C1273 C1272 1.396 . S
C1273 C1274 1.399 . S
C1274 H1260 0.929 . S
C1274 C1273 1.399 . S
C1274 C1275 1.385 . S
C1275 H1261 0.931 . S
C1275 C1274 1.385 . S
C1275 C1276 1.389 . S
C1276 C1275 1.389 . S
C1276 C1277 1.387 . S
C1277 H1262 0.930 . S
C1277 C1272 1.390 . S
C1277 C1276 1.387 . S
H1278 C1290 0.930 . S
H1279 C1292 0.930 . S
H1280 C1293 0.930 . S
H1281 C1297 0.959 . S
H1282 C1297 0.959 . S
H1283 C1297 0.961 . S
H1284 C1298 0.960 . S
H1285 C1298 0.961 . S
H1286 C1298 0.959 . S
H1287 C1301 0.929 . S
H1288 C1302 0.931 . S
H1289 C1304 0.930 . S
C1290 H1278 0.930 . S
C1290 C1291 1.399 . S
C1290 C1295 1.399 . S
C1291 C1290 1.399 . S
C1291 C1292 1.376 . S
C1292 H1279 0.930 . S
C1292 C1291 1.376 . S
C1292 C1293 1.388 . S
C1293 H1280 0.930 . S
C1293 C1292 1.388 . S
C1293 C1294 1.390 . S
C1294 C1293 1.390 . S
C1294 C1295 1.394 . S
C1294 C1300 1.465 . S
C1295 C1290 1.399 . S
C1295 C1294 1.394 . S
C1295 C1296 1.516 . S
C1296 C1295 1.516 . S
C1296 C1297 1.502 . S
C1296 C1298 1.561 . S
C1296 C1299 1.526 . S
C1297 H1281 0.959 . S
C1297 H1282 0.959 . S
C1297 H1283 0.961 . S
C1297 C1296 1.502 . S
C1298 H1284 0.960 . S
C1298 H1285 0.961 . S
C1298 H1286 0.959 . S
C1298 C1296 1.561 . S
C1299 C1296 1.526 . S
C1299 C1300 1.396 . S
C1299 C1304 1.390 . S
C1300 C1294 1.465 . S
C1300 C1299 1.396 . S
C1300 C1301 1.399 . S
C1301 H1287 0.929 . S
C1301 C1300 1.399 . S
C1301 C1302 1.385 . S
C1302 H1288 0.931 . S
C1302 C1301 1.385 . S
C1302 C1303 1.389 . S
C1303 C1302 1.389 . S
C1303 C1304 1.387 . S
C1304 H1289 0.930 . S
C1304 C1299 1.390 . S
C1304 C1303 1.387 . S
H1305 C1317 0.930 . S
H1306 C1319 0.930 1_565 S
H1307 C1320 0.930 . S
H1308 C1324 0.959 1_465 S
H1309 C1324 0.959 1_455 S
H1310 C1324 0.961 1_565 S
H1311 C1325 0.960 . S
H1312 C1325 0.961 . S
H1313 C1325 0.959 . S
H1314 C1328 0.929 . S
H1315 C1329 0.931 . S
H1316 C1331 0.930 . S
C1317 H1305 0.930 . S
C1317 C1318 1.399 . S
C1317 C1322 1.399 1_565 S
C1318 C1317 1.399 . S
C1318 C1319 1.376 1_565 S
C1319 H1306 0.930 1_545 S
C1319 C1318 1.376 1_545 S
C1319 C1320 1.388 . S
C1320 H1307 0.930 . S
C1320 C1319 1.388 . S
C1320 C1321 1.390 . S
C1321 C1320 1.390 . S
C1321 C1322 1.394 . S
C1321 C1327 1.465 . S
C1322 C1317 1.399 1_545 S
C1322 C1321 1.394 . S
C1322 C1323 1.516 . S
C1323 C1322 1.516 . S
C1323 C1324 1.502 . S
C1323 C1325 1.561 . S
C1323 C1326 1.526 . S
C1324 H1308 0.959 1_645 S
C1324 H1309 0.959 1_655 S
C1324 H1310 0.961 1_545 S
C1324 C1323 1.502 . S
C1325 H1311 0.960 . S
C1325 H1312 0.961 . S
C1325 H1313 0.959 . S
C1325 C1323 1.561 . S
C1326 C1323 1.526 . S
C1326 C1327 1.396 . S
C1326 C1331 1.390 1_655 S
C1327 C1321 1.465 . S
C1327 C1326 1.396 . S
C1327 C1328 1.399 . S
C1328 H1314 0.929 . S
C1328 C1327 1.399 . S
C1328 C1329 1.385 1_655 S
C1329 H1315 0.931 . S
C1329 C1328 1.385 1_455 S
C1329 C1330 1.389 . S
C1330 C1329 1.389 . S
C1330 C1331 1.387 . S
C1331 H1316 0.930 . S
C1331 C1326 1.390 1_455 S
C1331 C1330 1.387 . S
C373 N6 1.212 . S
C385 N336 1.195 . S
C400 C271 2.137 1_565 S
C412 C31 2.142 1_655 S
C427 N66 1.883 . S
C439 C241 1.976 . S
C454 C91 2.121 . S
C466 C301 2.144 . S
C481 N126 0.944 . S
C493 N306 0.977 . S
C508 N156 1.472 . S
C520 C331 1.530 . S
C535 N276 1.572 . S
C547 C181 1.723 1_556 S
C562 N216 0.800 . S
C574 N246 0.772 . S
C589 N96 1.448 . S
C601 C121 1.540 . S
C616 C1 2.279 . S
C628 C151 2.319 . S
C643 N36 0.660 . S
C655 N186 0.629 1_455 S
C670 C211 2.214 . S
C682 C61 2.223 1_554 S
C697 C16 1.046 . S
C709 C250 1.115 . S
C724 C57 1.394 . S
C736 C310 1.385 . S
C751 N344 0.807 . S
C763 C76 0.790 . S
C778 C117 1.684 . S
C790 C280 1.714 . S
C805 C136 0.862 . S
C817 N284 0.845 . S
C832 N254 0.888 . S
C844 C166 0.902 1_455 S
C859 N314 1.067 . S
C871 C207 1.038 . S
C886 C340 1.152 . S
C898 C226 1.148 . S
C913 C10 1.574 . S
C925 C106 1.541 . S
C940 C27 0.881 . S
C952 N44 0.933 . S
C967 C46 1.637 . S
C979 C70 1.642 . S
C994 N104 1.125 . S
C1006 C87 1.091 1_554 S
C1021 C177 1.164 . S
C1033 C130 1.208 . S
C1048 C160 1.602 . S
C1060 C196 1.603 . S
C1075 N194 0.872 . S
C1087 C237 0.866 . S
C1102 C147 1.091 . S
C1114 C220 1.113 . S
C1129 C256 1.337 . S
C1141 C100 1.350 . S
C1156 N164 1.299 . S
C1168 C297 1.339 . S
C1183 C267 1.018 . S
C1195 C190 1.015 . S
C1210 C327 1.099 . S
C1222 N224 1.111 . S
C1237 N134 0.481 . S
C1249 C346 0.424 . S
C1264 C357 0.865 . S
C1276 C40 0.841 . S
C1291 N74 1.150 . S
C1303 C286 1.182 . S
C1318 C316 1.109 . S
C1330 N14 1.128 . S
