# Generated by pormake.
# Topology unb, (4)-cn, num edge types: 1
# Building blocks:
#     Node 0, Type 0, BuildingBlock: TATPOV_clean_sbu_0, # of connection points: 4
#     Node 1, Type 0, BuildingBlock: TATPOV_clean_sbu_0, # of connection points: 4
#     Node 2, Type 0, BuildingBlock: TATPOV_clean_sbu_0, # of connection points: 4
#     Node 3, Type 0, BuildingBlock: TATPOV_clean_sbu_0, # of connection points: 4
#     Node 4, Type 0, BuildingBlock: TATPOV_clean_sbu_0, # of connection points: 4
#     Node 5, Type 0, BuildingBlock: TATPOV_clean_sbu_0, # of connection points: 4
#     Node 6, Type 0, BuildingBlock: TATPOV_clean_sbu_0, # of connection points: 4
#     Node 7, Type 0, BuildingBlock: TATPOV_clean_sbu_0, # of connection points: 4
#     Node 8, Type 0, BuildingBlock: TATPOV_clean_sbu_0, # of connection points: 4
#     Node 9, Type 0, BuildingBlock: TATPOV_clean_sbu_0, # of connection points: 4
#     Node 10, Type 0, BuildingBlock: TATPOV_clean_sbu_0, # of connection points: 4
#     Node 11, Type 0, BuildingBlock: TATPOV_clean_sbu_0, # of connection points: 4
#     Node 12, Type 0, BuildingBlock: TATPOV_clean_sbu_0, # of connection points: 4
#     Node 13, Type 0, BuildingBlock: TATPOV_clean_sbu_0, # of connection points: 4
#     Node 14, Type 0, BuildingBlock: TATPOV_clean_sbu_0, # of connection points: 4
#     Node 15, Type 0, BuildingBlock: TATPOV_clean_sbu_0, # of connection points: 4
#     Node 16, Type 0, BuildingBlock: TATPOV_clean_sbu_0, # of connection points: 4
#     Node 17, Type 0, BuildingBlock: TATPOV_clean_sbu_0, # of connection points: 4
#     Edge 18, Type (0, 0), BuildingBlock: XUDNAN_clean_linker_2, # of connection points: 2
#     Edge 19, Type (0, 0), BuildingBlock: XUDNAN_clean_linker_2, # of connection points: 2
#     Edge 20, Type (0, 0), BuildingBlock: XUDNAN_clean_linker_2, # of connection points: 2
#     Edge 21, Type (0, 0), BuildingBlock: XUDNAN_clean_linker_2, # of connection points: 2
#     Edge 22, Type (0, 0), BuildingBlock: XUDNAN_clean_linker_2, # of connection points: 2
#     Edge 23, Type (0, 0), BuildingBlock: XUDNAN_clean_linker_2, # of connection points: 2
#     Edge 24, Type (0, 0), BuildingBlock: XUDNAN_clean_linker_2, # of connection points: 2
#     Edge 25, Type (0, 0), BuildingBlock: XUDNAN_clean_linker_2, # of connection points: 2
#     Edge 26, Type (0, 0), BuildingBlock: XUDNAN_clean_linker_2, # of connection points: 2
#     Edge 27, Type (0, 0), BuildingBlock: XUDNAN_clean_linker_2, # of connection points: 2
#     Edge 28, Type (0, 0), BuildingBlock: XUDNAN_clean_linker_2, # of connection points: 2
#     Edge 29, Type (0, 0), BuildingBlock: XUDNAN_clean_linker_2, # of connection points: 2
#     Edge 30, Type (0, 0), BuildingBlock: XUDNAN_clean_linker_2, # of connection points: 2
#     Edge 31, Type (0, 0), BuildingBlock: XUDNAN_clean_linker_2, # of connection points: 2
#     Edge 32, Type (0, 0), BuildingBlock: XUDNAN_clean_linker_2, # of connection points: 2
#     Edge 33, Type (0, 0), BuildingBlock: XUDNAN_clean_linker_2, # of connection points: 2
#     Edge 34, Type (0, 0), BuildingBlock: XUDNAN_clean_linker_2, # of connection points: 2
#     Edge 35, Type (0, 0), BuildingBlock: XUDNAN_clean_linker_2, # of connection points: 2
#     Edge 36, Type (0, 0), BuildingBlock: XUDNAN_clean_linker_2, # of connection points: 2
#     Edge 37, Type (0, 0), BuildingBlock: XUDNAN_clean_linker_2, # of connection points: 2
#     Edge 38, Type (0, 0), BuildingBlock: XUDNAN_clean_linker_2, # of connection points: 2
#     Edge 39, Type (0, 0), BuildingBlock: XUDNAN_clean_linker_2, # of connection points: 2
#     Edge 40, Type (0, 0), BuildingBlock: XUDNAN_clean_linker_2, # of connection points: 2
#     Edge 41, Type (0, 0), BuildingBlock: XUDNAN_clean_linker_2, # of connection points: 2
#     Edge 42, Type (0, 0), BuildingBlock: XUDNAN_clean_linker_2, # of connection points: 2
#     Edge 43, Type (0, 0), BuildingBlock: XUDNAN_clean_linker_2, # of connection points: 2
#     Edge 44, Type (0, 0), BuildingBlock: XUDNAN_clean_linker_2, # of connection points: 2
#     Edge 45, Type (0, 0), BuildingBlock: XUDNAN_clean_linker_2, # of connection points: 2
#     Edge 46, Type (0, 0), BuildingBlock: XUDNAN_clean_linker_2, # of connection points: 2
#     Edge 47, Type (0, 0), BuildingBlock: XUDNAN_clean_linker_2, # of connection points: 2
#     Edge 48, Type (0, 0), BuildingBlock: XUDNAN_clean_linker_2, # of connection points: 2
#     Edge 49, Type (0, 0), BuildingBlock: XUDNAN_clean_linker_2, # of connection points: 2
#     Edge 50, Type (0, 0), BuildingBlock: XUDNAN_clean_linker_2, # of connection points: 2
#     Edge 51, Type (0, 0), BuildingBlock: XUDNAN_clean_linker_2, # of connection points: 2
#     Edge 52, Type (0, 0), BuildingBlock: XUDNAN_clean_linker_2, # of connection points: 2
#     Edge 53, Type (0, 0), BuildingBlock: XUDNAN_clean_linker_2, # of connection points: 2
# Relax obj value: 0.021
# Max RMSD: 0.033
# Mean RMSD: 0.033
data_MOF--net-unb--node1-TATPOV_clean_sbu_0--edge1-XUDNAN_clean_linker_2
_symmetry_space_group_name_H-M    P1
_symmetry_Int_Tables_number       1
_symmetry_cell_setting            triclinic
loop_
_symmetry_equiv_pos_as_xyz
'x, y, z'
_cell_length_a     66.409491
_cell_length_b     66.345624
_cell_length_c     24.706473
_cell_angle_alpha  89.952304
_cell_angle_beta   90.032518
_cell_angle_gamma 120.00057
loop_
_atom_site_label
_atom_site_type_symbol
_atom_site_fract_x
_atom_site_fract_y
_atom_site_fract_z
_atom_type_partial_charge
Zn0 Zn 0.14195 0.27814 0.95659 0.0
Zn1 Zn 0.14616 0.28874 0.05283 0.0
O2 O 0.10975 0.26896 0.04152 0.0
O3 O 0.10831 0.26638 0.95259 0.0
O4 O 0.15143 0.29888 0.13307 0.0
O5 O 0.15428 0.25696 0.9583 0.0
O6 O 0.16407 0.2699 0.04174 0.0
C7 C 0.09801 0.2629 0.99744 0.0
C8 C 0.16786 0.32553 0.96252 0.0
O9 O 0.16128 0.32075 0.01171 0.0
O10 O 0.16303 0.3093 0.9294 0.0
C11 C 0.15039 0.31651 0.15012 0.0
O12 O 0.14478 0.32806 0.11584 0.0
C13 C 0.1649 0.25811 1.00154 0.0
Zn14 Zn 0.72863 0.87022 0.93332 0.0
Zn15 Zn 0.71333 0.85084 0.02118 0.0
O16 O 0.7312 0.83421 0.99356 0.0
O17 O 0.74895 0.85653 0.92338 0.0
O18 O 0.70029 0.8365 0.09623 0.0
O19 O 0.74202 0.90258 0.95497 0.0
O20 O 0.73601 0.88699 0.03616 0.0
C21 C 0.74542 0.83981 0.95396 0.0
C22 C 0.68126 0.84386 0.92354 0.0
O23 O 0.68343 0.84061 0.97372 0.0
O24 O 0.69912 0.85617 0.89538 0.0
C25 C 0.68214 0.83546 0.11678 0.0
O26 O 0.67127 0.84415 0.0894 0.0
C27 C 0.74478 0.905 1.00546 0.0
Zn28 Zn 0.09741 0.88887 0.06358 0.0
Zn29 Zn 0.11061 0.8667 0.11944 0.0
O30 O 0.13183 0.90299 0.13364 0.0
O31 O 0.11493 0.92021 0.09358 0.0
O32 O 0.12025 0.8511 0.17851 0.0
O33 O 0.06405 0.87105 0.07675 0.0
O34 O 0.07369 0.84684 0.11294 0.0
C35 C 0.13126 0.92151 0.12214 0.0
C36 C 0.11955 0.86796 1.00198 0.0
O37 O 0.12172 0.86074 0.04825 0.0
O38 O 0.11005 0.88038 0.99785 0.0
C39 C 0.12758 0.86042 0.22485 0.0
O40 O 0.1283 0.88017 0.23561 0.0
C41 C 0.05806 0.85114 0.09543 0.0
Zn42 Zn 0.24395 0.13098 0.10016 0.0
Zn43 Zn 0.26357 0.13422 1.00629 0.0
O44 O 0.24375 0.09824 0.02088 0.0
O45 O 0.22528 0.09665 0.09631 0.0
O46 O 0.27797 0.13772 0.93084 0.0
O47 O 0.23014 0.15018 0.08063 0.0
O48 O 0.24629 0.15353 1.00086 0.0
C49 C 0.2293 0.08643 0.05829 0.0
C50 C 0.29329 0.1526 0.10792 0.0
O51 O 0.29197 0.14945 0.05691 0.0
O52 O 0.27503 0.14606 0.13555 0.0
C53 C 0.29737 0.1385 0.92339 0.0
O54 O 0.30816 0.13603 0.96522 0.0
C55 C 0.23426 0.1584 0.03325 0.0
Zn56 Zn 0.89781 0.10927 0.04841 0.0
Zn57 Zn 0.88045 0.11513 0.9614 0.0
O58 O 0.91697 0.13828 0.96188 0.0
O59 O 0.93077 0.13065 0.03513 0.0
O60 O 0.86979 0.12218 0.88843 0.0
O61 O 0.8843 0.07553 0.03866 0.0
O62 O 0.86672 0.07881 0.9664 0.0
C63 C 0.93417 0.14248 0.99266 0.0
C64 C 0.86572 0.12469 0.07008 0.0
O65 O 0.86346 0.12355 0.01874 0.0
O66 O 0.88011 0.12019 0.09268 0.0
C67 C 0.87929 0.14357 0.87502 0.0
O68 O 0.89455 0.15924 0.90819 0.0
C69 C 0.86999 0.0661 1.00039 0.0
Zn70 Zn 0.88477 0.78833 0.87651 0.0
Zn71 Zn 0.86958 0.751 0.8397 0.0
O72 O 0.84721 0.76487 0.82967 0.0
O73 O 0.86693 0.80221 0.84683 0.0
O74 O 0.86234 0.72839 0.77594 0.0
O75 O 0.91846 0.80404 0.86425 0.0
O76 O 0.90554 0.76661 0.86089 0.0
C77 C 0.84812 0.78453 0.83292 0.0
C78 C 0.86096 0.74665 0.95084 0.0
O79 O 0.85635 0.73408 0.9086 0.0
O80 O 0.87256 0.76874 0.94717 0.0
C81 C 0.85466 0.70661 0.78054 0.0
O82 O 0.85176 0.69756 0.8292 0.0
C83 C 0.92231 0.78732 0.86894 0.0
Zn84 Zn 0.8036 0.5884 0.23134 0.0
Zn85 Zn 0.8052 0.59999 0.32508 0.0
O86 O 0.76952 0.57712 0.31109 0.0
O87 O 0.77191 0.56131 0.23497 0.0
O88 O 0.80888 0.61001 0.40557 0.0
O89 O 0.83098 0.58438 0.22988 0.0
O90 O 0.82556 0.5837 0.31778 0.0
C91 C 0.75969 0.56235 0.27283 0.0
C92 C 0.81331 0.63355 0.23161 0.0
O93 O 0.81645 0.63101 0.28155 0.0
O94 O 0.80595 0.61643 0.19994 0.0
C95 C 0.81564 0.63081 0.42105 0.0
O96 O 0.81977 0.64679 0.38447 0.0
C97 C 0.83546 0.58044 0.27697 0.0
Zn98 Zn 0.45616 0.20684 0.44572 0.0
Zn99 Zn 0.42032 0.19218 0.49332 0.0
O100 O 0.42965 0.16622 0.48013 0.0
O101 O 0.4672 0.18549 0.46739 0.0
O102 O 0.39596 0.18164 0.55357 0.0
O103 O 0.47509 0.23959 0.46634 0.0
O104 O 0.44 0.22904 0.49519 0.0
C105 C 0.44862 0.16625 0.47138 0.0
C106 C 0.41342 0.19242 0.37966 0.0
O107 O 0.40317 0.18848 0.42516 0.0
O108 O 0.43507 0.19935 0.37765 0.0
C109 C 0.39907 0.17814 0.6028 0.0
O110 O 0.41937 0.18108 0.61758 0.0
C111 C 0.46067 0.24512 0.4837 0.0
Zn112 Zn 0.77278 0.18464 0.39024 0.0
Zn113 Zn 0.78904 0.17749 0.46262 0.0
O114 O 0.80763 0.21441 0.45051 0.0
O115 O 0.79885 0.21364 0.36459 0.0
O116 O 0.80214 0.17088 0.53212 0.0
O117 O 0.74796 0.1869 0.42987 0.0
O118 O 0.75214 0.15982 0.46884 0.0
C119 C 0.81064 0.2249 0.40506 0.0
C120 C 0.78329 0.15209 0.35974 0.0
O121 O 0.79674 0.16178 0.40011 0.0
O122 O 0.76643 0.15553 0.35199 0.0
C123 C 0.82414 0.18195 0.53833 0.0
O124 O 0.83696 0.19677 0.5005 0.0
C125 C 0.7389 0.16776 0.45471 0.0
Zn126 Zn 0.86908 0.41892 0.32084 0.0
Zn127 Zn 0.90854 0.43882 0.27718 0.0
O128 O 0.89435 0.40254 0.27909 0.0
O129 O 0.85682 0.38707 0.29192 0.0
O130 O 0.93605 0.44995 0.2241 0.0
O131 O 0.85793 0.43994 0.29559 0.0
O132 O 0.89167 0.45692 0.25406 0.0
C133 C 0.87417 0.38454 0.28334 0.0
C134 C 0.90771 0.4417 0.39613 0.0
O135 O 0.92016 0.45007 0.35372 0.0
O136 O 0.88623 0.42695 0.3925 0.0
C137 C 0.94339 0.46777 0.19347 0.0
O138 O 0.93419 0.4812 0.19807 0.0
C139 C 0.87271 0.45632 0.26649 0.0
Zn140 Zn 0.55712 0.44411 0.36703 0.0
Zn141 Zn 0.53628 0.44549 0.28267 0.0
O142 O 0.57264 0.46704 0.2703 0.0
O143 O 0.58868 0.46766 0.34876 0.0
O144 O 0.52186 0.45053 0.21357 0.0
O145 O 0.54603 0.41044 0.35789 0.0
O146 O 0.52331 0.4098 0.29214 0.0
C147 C 0.59065 0.47465 0.3006 0.0
C148 C 0.52409 0.45602 0.39538 0.0
O149 O 0.52104 0.45447 0.34423 0.0
O150 O 0.53957 0.4528 0.41646 0.0
C151 C 0.52286 0.47018 0.20958 0.0
O152 O 0.53294 0.48535 0.24881 0.0
C153 C 0.52962 0.39906 0.3249 0.0
Zn154 Zn 0.55393 0.10463 0.28583 0.0
Zn155 Zn 0.54037 0.06733 0.25106 0.0
O156 O 0.514 0.076 0.26107 0.0
O157 O 0.53121 0.114 0.26179 0.0
O158 O 0.53104 0.04528 0.18608 0.0
O159 O 0.58734 0.12364 0.26812 0.0
O160 O 0.57699 0.08705 0.25596 0.0
C161 C 0.51268 0.09454 0.2625 0.0
C162 C 0.54073 0.06375 0.36203 0.0
O163 O 0.53624 0.05092 0.32031 0.0
O164 O 0.54709 0.08524 0.35705 0.0
C165 C 0.52717 0.02445 0.18807 0.0
O166 O 0.52963 0.01622 0.23445 0.0
C167 C 0.59298 0.10814 0.26341 0.0
Zn168 Zn 0.46517 0.91482 0.6365 0.0
Zn169 Zn 0.46997 0.92371 0.72928 0.0
O170 O 0.43482 0.91295 0.71251 0.0
O171 O 0.43773 0.91836 0.62459 0.0
O172 O 0.47493 0.93088 0.81047 0.0
O173 O 0.46084 0.88312 0.6406 0.0
O174 O 0.48104 0.89943 0.71396 0.0
C175 C 0.42591 0.91406 0.66736 0.0
C176 C 0.50286 0.95831 0.64906 0.0
O177 O 0.49232 0.95541 0.69391 0.0
O178 O 0.49647 0.94116 0.61765 0.0
C179 C 0.47831 0.95029 0.82885 0.0
O180 O 0.47744 0.96519 0.79521 0.0
C181 C 0.47392 0.88344 0.678 0.0
Zn182 Zn 0.0508 0.5483 0.65899 0.0
Zn183 Zn 0.04659 0.53704 0.75655 0.0
O184 O 0.06324 0.51979 0.72681 0.0
O185 O 0.05932 0.52415 0.63965 0.0
O186 O 0.0385 0.52824 0.83666 0.0
O187 O 0.07479 0.58089 0.66812 0.0
O188 O 0.06946 0.57335 0.7555 0.0
C189 C 0.06532 0.51539 0.67743 0.0
C190 C 0.00521 0.52812 0.68153 0.0
O191 O 0.01316 0.52336 0.72368 0.0
O192 O 0.01916 0.5421 0.64697 0.0
C193 C 0.03489 0.50898 0.85655 0.0
O194 O 0.03815 0.49472 0.82576 0.0
C195 C 0.07923 0.58775 0.71651 0.0
Zn196 Zn 0.43894 0.51591 0.68449 0.0
Zn197 Zn 0.44802 0.5117 0.7699 0.0
O198 O 0.47016 0.54666 0.74681 0.0
O199 O 0.47152 0.53853 0.66161 0.0
O200 O 0.45711 0.50848 0.84798 0.0
O201 O 0.41735 0.52729 0.70582 0.0
O202 O 0.41248 0.50157 0.76731 0.0
C203 C 0.47963 0.55288 0.70011 0.0
C204 C 0.4403 0.47715 0.68427 0.0
O205 O 0.45392 0.48939 0.72237 0.0
O206 O 0.42544 0.48217 0.66719 0.0
C207 C 0.46007 0.49189 0.86454 0.0
O208 O 0.45636 0.47507 0.83086 0.0
C209 C 0.40427 0.51218 0.73981 0.0
Zn210 Zn 0.52142 0.74123 0.57971 0.0
Zn211 Zn 0.55723 0.75815 0.52856 0.0
O212 O 0.54234 0.72133 0.53424 0.0
O213 O 0.5071 0.70798 0.56615 0.0
O214 O 0.57963 0.76961 0.46327 0.0
O215 O 0.50538 0.75799 0.55653 0.0
O216 O 0.54121 0.77875 0.52737 0.0
C217 C 0.52291 0.7042 0.55004 0.0
C218 C 0.56517 0.7652 0.64332 0.0
O219 O 0.57556 0.76941 0.59779 0.0
O220 O 0.54311 0.75384 0.64548 0.0
C221 C 0.59778 0.76775 0.45979 0.0
O222 O 0.60267 0.75784 0.49979 0.0
C223 C 0.52158 0.77699 0.53844 0.0
Zn224 Zn 0.21822 0.79623 0.72089 0.0
Zn225 Zn 0.20433 0.79925 0.63015 0.0
O226 O 0.24102 0.8213 0.62766 0.0
O227 O 0.25067 0.81979 0.71208 0.0
O228 O 0.19258 0.80163 0.55436 0.0
O229 O 0.20967 0.76356 0.71826 0.0
O230 O 0.19119 0.76315 0.64405 0.0
C231 C 0.2565 0.82787 0.6649 0.0
C232 C 0.18654 0.81161 0.73183 0.0
O233 O 0.18798 0.81183 0.68034 0.0
O234 O 0.19757 0.80444 0.75994 0.0
C235 C 0.19106 0.81948 0.54168 0.0
O236 O 0.19787 0.83644 0.57706 0.0
C237 C 0.19574 0.75226 0.68061 0.0
Zn238 Zn 0.21931 0.47792 0.6145 0.0
Zn239 Zn 0.20176 0.44144 0.56273 0.0
O240 O 0.18146 0.45789 0.55694 0.0
O241 O 0.20238 0.49323 0.58944 0.0
O242 O 0.19105 0.41784 0.49981 0.0
O243 O 0.25286 0.49155 0.60008 0.0
O244 O 0.23809 0.45633 0.56681 0.0
C245 C 0.18364 0.47768 0.56869 0.0
C246 C 0.19606 0.43489 0.67925 0.0
O247 O 0.19226 0.42426 0.63412 0.0
O248 O 0.20633 0.45694 0.68086 0.0
C249 C 0.19405 0.40031 0.50025 0.0
O250 O 0.20385 0.39694 0.54286 0.0
C251 C 0.25576 0.47535 0.58232 0.0
H252 H 0.1767 0.40358 0.40042 0.0
H253 H 0.19612 0.36023 0.49286 0.0
H254 H 0.1861 0.33367 0.41503 0.0
H255 H 0.12783 0.35633 0.32935 0.0
H256 H 0.13364 0.37232 0.26683 0.0
H257 H 0.14165 0.38763 0.33044 0.0
H258 H 0.18417 0.41241 0.29719 0.0
H259 H 0.17629 0.39717 0.23352 0.0
H260 H 0.19945 0.39805 0.27342 0.0
H261 H 0.17481 0.31203 0.32585 0.0
H262 H 0.16342 0.2974 0.23238 0.0
H263 H 0.15138 0.35465 0.19735 0.0
C264 C 0.17871 0.38843 0.40446 0.0
C265 C 0.18721 0.38408 0.45313 0.0
C266 C 0.18967 0.36406 0.45629 0.0
C267 C 0.18398 0.34879 0.41219 0.0
C268 C 0.1758 0.35364 0.36482 0.0
C269 C 0.17314 0.37297 0.36064 0.0
C270 C 0.16446 0.3744 0.30467 0.0
C271 C 0.14047 0.37255 0.30805 0.0
C272 C 0.18215 0.39684 0.27548 0.0
C273 C 0.16283 0.35301 0.278 0.0
C274 C 0.16937 0.34121 0.31346 0.0
C275 C 0.16959 0.32111 0.29781 0.0
C276 C 0.16307 0.3129 0.24453 0.0
C277 C 0.15643 0.32476 0.20722 0.0
C278 C 0.15626 0.34505 0.22468 0.0
H279 H 0.59377 0.79009 0.36894 0.0
H280 H 0.63736 0.7657 0.44104 0.0
H281 H 0.66353 0.78032 0.36209 0.0
H282 H 0.59931 0.7758 0.23082 0.0
H283 H 0.6001 0.80125 0.20263 0.0
H284 H 0.58474 0.78893 0.26493 0.0
H285 H 0.60917 0.82873 0.31256 0.0
H286 H 0.62461 0.84117 0.2504 0.0
H287 H 0.64046 0.84283 0.31106 0.0
H288 H 0.68521 0.7976 0.27456 0.0
H289 H 0.70047 0.81616 0.18571 0.0
H290 H 0.64305 0.82951 0.17018 0.0
C291 C 0.6088 0.78781 0.36817 0.0
C292 C 0.6134 0.77667 0.41154 0.0
C293 C 0.63335 0.77412 0.40861 0.0
C294 C 0.64838 0.78239 0.3638 0.0
C295 C 0.64336 0.79325 0.32187 0.0
C296 C 0.62406 0.79599 0.32363 0.0
C297 C 0.62267 0.80833 0.27313 0.0
C298 C 0.60038 0.79264 0.24098 0.0
C299 C 0.62433 0.83165 0.28767 0.0
C300 C 0.64417 0.81207 0.24277 0.0
C301 C 0.65587 0.80324 0.27159 0.0
C302 C 0.67617 0.80458 0.25169 0.0
C303 C 0.68473 0.81518 0.20107 0.0
C304 C 0.67306 0.82437 0.17065 0.0
C305 C 0.65248 0.82273 0.19219 0.0
H306 H 0.18344 0.85441 0.507 0.0
H307 H 0.17587 0.78834 0.45648 0.0
H308 H 0.15878 0.7913 0.3697 0.0
H309 H 0.13004 0.84567 0.45019 0.0
H310 H 0.14198 0.87567 0.43045 0.0
H311 H 0.15388 0.86836 0.48773 0.0
H312 H 0.19484 0.89019 0.44423 0.0
H313 H 0.18309 0.89761 0.38686 0.0
H314 H 0.199 0.88247 0.37688 0.0
H315 H 0.14218 0.80193 0.28732 0.0
H316 H 0.12788 0.81901 0.21857 0.0
H317 H 0.14622 0.87773 0.32489 0.0
C318 C 0.17829 0.84054 0.47775 0.0
C319 C 0.1811 0.82113 0.48877 0.0
C320 C 0.17396 0.8034 0.44915 0.0
C321 C 0.16421 0.80494 0.39968 0.0
C322 C 0.16164 0.8243 0.39031 0.0
C323 C 0.1685 0.84177 0.42841 0.0
C324 C 0.16377 0.8607 0.40906 0.0
C325 C 0.14638 0.86271 0.44659 0.0
C326 C 0.18653 0.88412 0.40395 0.0
C327 C 0.15316 0.85124 0.35404 0.0
C328 C 0.15207 0.83024 0.34374 0.0
C329 C 0.14297 0.81836 0.29516 0.0
C330 C 0.13487 0.8282 0.25628 0.0
C331 C 0.13583 0.84972 0.2661 0.0
C332 C 0.14512 0.86124 0.31588 0.0
H333 H 0.39976 0.16886 0.71129 0.0
H334 H 0.35543 0.17204 0.58638 0.0
H335 H 0.32429 0.1615 0.65392 0.0
H336 H 0.35438 0.11967 0.78377 0.0
H337 H 0.36674 0.13097 0.84939 0.0
H338 H 0.38535 0.1384 0.79098 0.0
H339 H 0.40197 0.18223 0.81107 0.0
H340 H 0.38342 0.17494 0.86951 0.0
H341 H 0.38236 0.19348 0.81756 0.0
H342 H 0.29811 0.15146 0.73643 0.0
H343 H 0.27922 0.14249 0.82639 0.0
H344 H 0.34058 0.14551 0.89673 0.0
C345 C 0.38349 0.16727 0.69797 0.0
C346 C 0.38012 0.17131 0.64331 0.0
C347 C 0.3585 0.16904 0.62788 0.0
C348 C 0.34067 0.16305 0.66601 0.0
C349 C 0.34462 0.15929 0.71955 0.0
C350 C 0.36549 0.16126 0.73547 0.0
C351 C 0.36543 0.15653 0.79555 0.0
C352 C 0.36813 0.13512 0.80549 0.0
C353 C 0.38442 0.17808 0.82515 0.0
C354 C 0.34133 0.15172 0.81106 0.0
C355 C 0.32957 0.15337 0.76669 0.0
C356 C 0.30716 0.15003 0.77138 0.0
C357 C 0.29655 0.14494 0.8227 0.0
C358 C 0.30831 0.14319 0.86879 0.0
C359 C 0.33098 0.14656 0.86244 0.0
H360 H 0.80599 0.1467 0.61643 0.0
H361 H 0.86855 0.21063 0.57127 0.0
H362 H 0.88882 0.20684 0.65039 0.0
H363 H 0.81245 0.15549 0.76165 0.0
H364 H 0.80228 0.12538 0.77751 0.0
H365 H 0.79213 0.13287 0.71729 0.0
H366 H 0.80603 0.1097 0.65919 0.0
H367 H 0.81629 0.1022 0.71923 0.0
H368 H 0.83589 0.11652 0.6636 0.0
H369 H 0.90239 0.19748 0.73468 0.0
H370 H 0.90906 0.18224 0.81939 0.0
H371 H 0.83903 0.12294 0.81152 0.0
C372 C 0.82392 0.1599 0.62337 0.0
C373 C 0.8356 0.17903 0.58735 0.0
C374 C 0.85915 0.1958 0.59784 0.0
C375 C 0.87087 0.19383 0.64286 0.0
C376 C 0.85901 0.17485 0.67726 0.0
C377 C 0.83612 0.15806 0.6682 0.0
C378 C 0.82779 0.13929 0.71181 0.0
C379 C 0.80746 0.1382 0.74397 0.0
C380 C 0.8211 0.11552 0.68696 0.0
C381 C 0.84954 0.14834 0.74677 0.0
C382 C 0.86722 0.16896 0.72587 0.0
C383 C 0.88874 0.18127 0.75128 0.0
C384 C 0.89234 0.17246 0.79957 0.0
C385 C 0.87467 0.15133 0.82215 0.0
C386 C 0.85299 0.13897 0.79494 0.0
H387 H 0.8543 0.71844 0.67329 0.0
H388 H 0.8402 0.66001 0.77716 0.0
H389 H 0.82852 0.63424 0.69733 0.0
H390 H 0.80621 0.68659 0.58255 0.0
H391 H 0.82205 0.70226 0.52312 0.0
H392 H 0.82967 0.71623 0.58833 0.0
H393 H 0.87213 0.72537 0.57552 0.0
H394 H 0.86466 0.7115 0.51019 0.0
H395 H 0.87771 0.702 0.5607 0.0
H396 H 0.81802 0.61451 0.60526 0.0
H397 H 0.8101 0.60287 0.50898 0.0
H398 H 0.83077 0.67404 0.4655 0.0
C399 C 0.84886 0.70025 0.67931 0.0
C400 C 0.84825 0.69134 0.73179 0.0
C401 C 0.84086 0.66735 0.73759 0.0
C402 C 0.83416 0.65252 0.69239 0.0
C403 C 0.83485 0.66182 0.64136 0.0
C404 C 0.84203 0.68515 0.63459 0.0
C405 C 0.84101 0.69074 0.57543 0.0
C406 C 0.8237 0.69947 0.56687 0.0
C407 C 0.86533 0.70845 0.55422 0.0
C408 C 0.83222 0.66697 0.54999 0.0
C409 C 0.82873 0.65049 0.58865 0.0
C410 C 0.82069 0.6273 0.57468 0.0
C411 C 0.8162 0.62083 0.51982 0.0
C412 C 0.81975 0.63746 0.47939 0.0
C413 C 0.82781 0.66081 0.49516 0.0
H414 H 0.96045 0.50281 0.11732 0.0
H415 H 0.96483 0.44258 0.16911 0.0
H416 H 0.99085 0.44825 0.09201 0.0
H417 H 0.95795 0.49193 0.97727 0.0
H418 H 0.97528 0.52205 0.95781 0.0
H419 H 0.95856 0.51442 0.01934 0.0
H420 H -0.0042 0.54139 0.07388 0.0
H421 H 0.01266 0.54916 0.01243 0.0
H422 H 0.0207 0.53745 0.06893 0.0
H423 H 0.014 0.4587 1.00516 0.0
H424 H 0.03292 0.47338 0.91657 0.0
H425 H 0.0141 0.52728 0.92158 0.0
C426 C 0.96713 0.49098 0.11303 0.0
C427 C 0.96057 0.47225 0.14964 0.0
C428 C 0.9696 0.45709 0.14194 0.0
C429 C 0.98443 0.46019 0.09818 0.0
C430 C 0.99023 0.47861 0.06247 0.0
C431 C 0.98197 0.49384 0.06961 0.0
C432 C 0.99006 0.51165 0.02418 0.0
C433 C 0.96922 0.50989 0.9928 0.0
C434 C 0.00574 0.53638 0.04618 0.0
C435 C 0.00381 0.50381 0.98977 0.0
C436 C 0.00377 0.48478 0.01273 0.0
C437 C 0.01435 0.47375 0.98718 0.0
C438 C 0.02504 0.48222 0.93672 0.0
C439 C 0.0252 0.50161 0.91209 0.0
C440 C 0.01463 0.51266 0.93957 0.0
H441 H 0.50529 0.4462 0.11273 0.0
H442 H 0.51807 0.50846 0.19927 0.0
H443 H 0.50262 0.52002 0.12224 0.0
H444 H 0.52167 0.47308 0.98137 0.0
H445 H 0.49956 0.44821 0.94533 0.0
H446 H 0.51093 0.44418 0.00805 0.0
H447 H 0.46924 0.42164 0.0474 0.0
H448 H 0.45775 0.42563 0.98477 0.0
H449 H 0.45145 0.43512 0.04763 0.0
H450 H 0.48632 0.52551 0.03549 0.0
H451 H 0.47092 0.52466 0.94402 0.0
H452 H 0.4688 0.45928 0.91192 0.0
C453 C 0.50471 0.46218 0.11557 0.0
C454 C 0.51293 0.47636 0.16242 0.0
C455 C 0.51197 0.49724 0.16408 0.0
C456 C 0.50315 0.504 0.12045 0.0
C457 C 0.49531 0.48977 0.07492 0.0
C458 C 0.49601 0.46931 0.07199 0.0
C459 C 0.48692 0.45755 0.01756 0.0
C460 C 0.50591 0.45565 0.98623 0.0
C461 C 0.46504 0.43356 0.02479 0.0
C462 C 0.48114 0.47465 0.99052 0.0
C463 C 0.48604 0.49305 0.02448 0.0
C464 C 0.48237 0.51115 0.00853 0.0
C465 C 0.47359 0.51051 0.95641 0.0
C466 C 0.46857 0.49194 0.9205 0.0
C467 C 0.47236 0.47374 0.93823 0.0
H468 H 0.51862 0.03522 0.08577 0.0
H469 H 0.51832 0.97955 0.17891 0.0
H470 H 0.5053 0.95434 0.09805 0.0
H471 H 0.46751 -0.00118 1.00652 0.0
H472 H 0.47884 0.01582 0.94567 0.0
H473 H 0.48819 0.02953 0.01088 0.0
H474 H 0.53114 0.04467 0.98427 0.0
H475 H 0.52193 0.03106 0.91895 0.0
H476 H 0.53982 0.02432 0.96155 0.0
H477 H 0.49243 0.93508 1.00612 0.0
H478 H 0.4811 0.92365 0.91078 0.0
H479 H 0.48953 0.99175 0.87806 0.0
C480 C 0.51585 0.01774 0.08924 0.0
C481 C 0.51955 0.00944 0.13893 0.0
C482 C 0.51564 0.98639 0.14148 0.0
C483 C 0.50822 0.97189 0.09569 0.0
C484 C 0.5047 0.98061 0.04745 0.0
C485 C 0.50839 0.00301 0.04393 0.0
C486 C 0.50339 0.00816 0.98725 0.0
C487 C 0.48329 0.01338 0.98763 0.0
C488 C 0.52538 0.02824 0.96149 0.0
C489 C 0.49636 0.98521 0.95942 0.0
C490 C 0.49721 0.96952 0.9948 0.0
C491 C 0.49167 0.94724 0.97811 0.0
C492 C 0.48523 0.94088 0.92383 0.0
C493 C 0.48434 0.95673 0.88675 0.0
C494 C 0.48991 0.97914 0.90523 0.0
H495 H 0.196 0.34166 0.87615 0.0
H496 H 0.16159 0.36163 0.99589 0.0
H497 H 0.16869 0.39532 0.93875 0.0
H498 H 0.23805 0.40174 0.82175 0.0
H499 H 0.23408 0.39018 0.75413 0.0
H500 H 0.23243 0.37249 0.81124 0.0
H501 H 0.19173 0.34061 0.77858 0.0
H502 H 0.19272 0.35842 0.72275 0.0
H503 H 0.16899 0.34768 0.77029 0.0
H504 H 0.17395 0.42275 0.86085 0.0
H505 H 0.17841 0.44221 0.77221 0.0
H506 H 0.20471 0.40012 0.70183 0.0
C507 C 0.19086 0.35372 0.89149 0.0
C508 C 0.17836 0.34922 0.94031 0.0
C509 C 0.17156 0.36508 0.95894 0.0
C510 C 0.17537 0.38411 0.92651 0.0
C511 C 0.18607 0.38689 0.87619 0.0
C512 C 0.19406 0.37227 0.85931 0.0
C513 C 0.20187 0.3765 0.80095 0.0
C514 C 0.22817 0.38579 0.79679 0.0
C515 C 0.18799 0.3545 0.76615 0.0
C516 C 0.196 0.39501 0.78649 0.0
C517 C 0.18752 0.40132 0.83058 0.0
C518 C 0.18072 0.41802 0.82629 0.0
C519 C 0.18307 0.42878 0.77589 0.0
C520 C 0.1914 0.42216 0.73044 0.0
C521 C 0.19779 0.40502 0.73584 0.0
H522 H 0.60817 0.80325 0.65495 0.0
H523 H 0.55171 0.74778 0.74554 0.0
H524 H 0.57364 0.76377 0.83071 0.0
H525 H 0.65452 0.80592 0.73038 0.0
H526 H 0.67212 0.83716 0.72628 0.0
H527 H 0.65143 0.82132 0.67375 0.0
H528 H 0.63232 0.84677 0.6886 0.0
H529 H 0.6528 0.86247 0.7418 0.0
H530 H 0.62202 0.8484 0.75504 0.0
H531 H 0.60362 0.78477 0.90542 0.0
H532 H 0.63883 0.80864 0.9612 0.0
H533 H 0.67308 0.8514 0.82044 0.0
C534 C 0.60046 0.79443 0.69268 0.0
C535 C 0.57842 0.77424 0.69382 0.0
C536 C 0.56868 0.76332 0.74399 0.0
C537 C 0.58094 0.7723 0.79251 0.0
C538 C 0.60265 0.79241 0.79006 0.0
C539 C 0.61219 0.80339 0.74136 0.0
C540 C 0.63582 0.82456 0.74914 0.0
C541 C 0.65457 0.82207 0.71808 0.0
C542 C 0.63571 0.84686 0.73268 0.0
C543 C 0.63842 0.82343 0.80958 0.0
C544 C 0.61918 0.80489 0.83285 0.0
C545 C 0.61865 0.79958 0.88778 0.0
C546 C 0.63864 0.81324 0.91921 0.0
C547 C 0.65867 0.83187 0.89526 0.0
C548 C 0.65806 0.83735 0.84025 0.0
H549 H 0.13731 0.83882 0.99513 0.0
H550 H 0.11941 0.88207 0.89757 0.0
H551 H 0.1322 0.87044 0.81533 0.0
H552 H 0.18852 0.85145 0.92472 0.0
H553 H 0.18399 0.82241 0.93131 0.0
H554 H 0.17242 0.83351 0.98144 0.0
H555 H 0.13118 0.7981 0.96572 0.0
H556 H 0.14263 0.78698 0.91521 0.0
H557 H 0.11907 0.79198 0.89841 0.0
H558 H 0.14851 0.85483 0.74381 0.0
H559 H 0.16815 0.83776 0.69104 0.0
H560 H 0.17419 0.8049 0.8374 0.0
C561 C 0.13601 0.84584 0.95653 0.0
C562 C 0.1274 0.86135 0.95277 0.0
C563 C 0.12597 0.87013 0.9014 0.0
C564 C 0.13311 0.86357 0.85443 0.0
C565 C 0.14147 0.84816 0.85964 0.0
C566 C 0.14293 0.83945 0.90948 0.0
C567 C 0.15315 0.82373 0.90481 0.0
C568 C 0.17587 0.83336 0.93748 0.0
C569 C 0.13545 0.79872 0.92204 0.0
C570 C 0.15764 0.82529 0.84471 0.0
C571 C 0.15066 0.83926 0.81898 0.0
C572 C 0.15391 0.84373 0.76348 0.0
C573 C 0.165 0.83396 0.73385 0.0
C574 C 0.17275 0.82012 0.7602 0.0
C575 C 0.16856 0.81548 0.81603 0.0
H576 H 0.36994 0.18626 0.37158 0.0
H577 H 0.4269 0.19153 0.27476 0.0
H578 H 0.40354 0.18517 0.19168 0.0
H579 H 0.32493 0.14096 0.29936 0.0
H580 H 0.30519 0.15201 0.30655 0.0
H581 H 0.32721 0.15869 0.35688 0.0
H582 H 0.34263 0.20281 0.34308 0.0
H583 H 0.32067 0.19625 0.29245 0.0
H584 H 0.3509 0.21521 0.27626 0.0
H585 H 0.37222 0.17531 0.1199 0.0
H586 H 0.336 0.16247 0.06727 0.0
H587 H 0.30116 0.16497 0.21363 0.0
C588 C 0.37763 0.18623 0.33296 0.0
C589 C 0.40016 0.18931 0.32954 0.0
C590 C 0.40962 0.18924 0.27817 0.0
C591 C 0.39653 0.1857 0.23084 0.0
C592 C 0.37422 0.18256 0.23582 0.0
C593 C 0.36497 0.18293 0.28569 0.0
C594 C 0.34036 0.17818 0.28102 0.0
C595 C 0.32344 0.15615 0.31281 0.0
C596 C 0.33855 0.19938 0.29927 0.0
C597 C 0.33689 0.17447 0.22081 0.0
C598 C 0.35657 0.17722 0.19506 0.0
C599 C 0.3568 0.17337 0.13959 0.0
C600 C 0.33619 0.16612 0.11005 0.0
C601 C 0.31578 0.16271 0.13639 0.0
C602 C 0.31645 0.16745 0.19217 0.0
H603 H 0.87378 0.14057 0.17359 0.0
H604 H 0.82226 0.11714 0.04533 0.0
H605 H 0.79398 0.11795 0.1093 0.0
H606 H 0.83567 0.10825 0.28099 0.0
H607 H 0.84996 0.131 0.33059 0.0
H608 H 0.86628 0.12893 0.2748 0.0
H609 H 0.8796 0.17146 0.24667 0.0
H610 H 0.86386 0.17385 0.30323 0.0
H611 H 0.85809 0.18004 0.23577 0.0
H612 H 0.77114 0.11971 0.18814 0.0
H613 H 0.75716 0.12896 0.27159 0.0
H614 H 0.82418 0.15187 0.34753 0.0
C615 C 0.85661 0.13582 0.15878 0.0
C616 C 0.85009 0.12872 0.1047 0.0
C617 C 0.82759 0.12279 0.0866 0.0
C618 C 0.81137 0.12293 0.12274 0.0
C619 C 0.81814 0.12921 0.17639 0.0
C620 C 0.84037 0.13603 0.19402 0.0
C621 C 0.84359 0.14286 0.2531 0.0
C622 C 0.8492 0.1268 0.28684 0.0
C623 C 0.86239 0.16858 0.26008 0.0
C624 C 0.81966 0.1389 0.26609 0.0
C625 C 0.80514 0.13068 0.22152 0.0
C626 C 0.78236 0.12622 0.22324 0.0
C627 C 0.77456 0.13142 0.27096 0.0
C628 C 0.78965 0.14123 0.316 0.0
C629 C 0.81218 0.14419 0.31404 0.0
H630 H 0.82348 0.70458 0.97381 0.0
H631 H 0.88221 0.76414 0.04803 0.0
H632 H 0.87204 0.74385 0.13642 0.0
H633 H 0.78397 0.68813 0.09536 0.0
H634 H 0.77175 0.6576 0.08073 0.0
H635 H 0.78146 0.67847 0.02623 0.0
H636 H 0.80831 0.66329 0.99133 0.0
H637 H 0.79862 0.64241 0.04529 0.0
H638 H 0.82923 0.66265 0.03683 0.0
H639 H 0.85949 0.71406 0.21193 0.0
H640 H 0.84551 0.67786 0.26587 0.0
H641 H 0.79369 0.63962 0.14284 0.0
C642 C 0.83386 0.71351 0.00898 0.0
C643 C 0.85359 0.73576 1.0044 0.0
C644 C 0.86688 0.74704 0.05104 0.0
C645 C 0.86119 0.73572 0.10137 0.0
C646 C 0.84183 0.71345 0.1044 0.0
C647 C 0.82815 0.70268 0.05946 0.0
C648 C 0.80956 0.67804 0.0717 0.0
C649 C 0.78524 0.67542 0.06832 0.0
C650 C 0.81158 0.6606 0.0341 0.0
C651 C 0.81584 0.67607 0.12939 0.0
C652 C 0.8342 0.6967 0.14825 0.0
C653 C 0.84469 0.69797 0.19822 0.0
C654 C 0.83667 0.67741 0.22865 0.0
C655 C 0.81862 0.65608 0.20827 0.0
C656 C 0.80751 0.65576 0.15941 0.0
H657 H 0.93285 0.48689 0.42547 0.0
H658 H 0.90282 0.41662 0.48739 0.0
H659 H 0.91745 0.43214 0.57922 0.0
H660 H 0.98362 0.51198 0.49742 0.0
H661 H 0.98439 0.53918 0.50911 0.0
H662 H 0.9692 0.52181 0.45147 0.0
H663 H 0.93195 0.52184 0.48344 0.0
H664 H 0.94705 0.53865 0.54237 0.0
H665 H 0.92049 0.51123 0.55008 0.0
H666 H 0.94115 0.45545 0.6588 0.0
H667 H 0.97348 0.48399 0.71548 0.0
H668 H 0.98307 0.53909 0.60582 0.0
C669 C 0.92937 0.47486 0.45857 0.0
C670 C 0.91726 0.4507 0.44983 0.0
C671 C 0.91242 0.43527 0.49376 0.0
C672 C 0.92037 0.44391 0.54595 0.0
C673 C 0.93225 0.46796 0.55353 0.0
C674 C 0.93647 0.48318 0.51102 0.0
C675 C 0.95092 0.50819 0.52867 0.0
C676 C 0.97336 0.52101 0.49471 0.0
C677 C 0.93675 0.52071 0.52598 0.0
C678 C 0.95583 0.5047 0.58665 0.0
C679 C 0.94451 0.4814 0.60082 0.0
C680 C 0.94956 0.47379 0.64897 0.0
C681 C 0.96784 0.49015 0.68129 0.0
C682 C 0.98077 0.51368 0.66474 0.0
C683 C 0.97328 0.52121 0.61957 0.0
H684 H 0.4821 0.47906 0.67569 0.0
H685 H 0.41227 0.44536 0.60933 0.0
H686 H 0.42618 0.43498 0.5274 0.0
H687 H 0.5097 0.50606 0.56355 0.0
H688 H 0.53491 0.50271 0.57 0.0
H689 H 0.51925 0.50257 0.62944 0.0
H690 H 0.51268 0.46214 0.65806 0.0
H691 H 0.52937 0.46259 0.60012 0.0
H692 H 0.50039 0.43845 0.61028 0.0
H693 H 0.44903 0.43647 0.44549 0.0
H694 H 0.47816 0.44113 0.37667 0.0
H695 H 0.53274 0.47372 0.49709 0.0
C696 C 0.46949 0.46835 0.64534 0.0
C697 C 0.44618 0.46311 0.64859 0.0
C698 C 0.43025 0.44954 0.60748 0.0
C699 C 0.43801 0.44371 0.56061 0.0
C700 C 0.4616 0.45119 0.55625 0.0
C701 C 0.47698 0.46245 0.59828 0.0
C702 C 0.50174 0.47041 0.5816 0.0
C703 C 0.51729 0.49701 0.58645 0.0
C704 C 0.51162 0.45762 0.61445 0.0
C705 C 0.49795 0.46279 0.52312 0.0
C706 C 0.47472 0.45176 0.50913 0.0
C707 C 0.46723 0.44457 0.45623 0.0
C708 C 0.48389 0.44767 0.41724 0.0
C709 C 0.50759 0.45775 0.43179 0.0
C710 C 0.51468 0.46585 0.48504 0.0
H711 H 0.53156 0.96869 0.56338 0.0
H712 H 0.50839 9e-05 0.68378 0.0
H713 H 0.52347 0.03545 0.62749 0.0
H714 H 0.58263 0.02559 0.50502 0.0
H715 H 0.57534 0.01318 0.4381 0.0
H716 H 0.57127 0.99482 0.49574 0.0
H717 H 0.52827 0.96843 0.46759 0.0
H718 H 0.5318 0.98697 0.41133 0.0
H719 H 0.50967 0.98088 0.46121 0.0
H720 H 0.53111 0.06214 0.54922 0.0
H721 H 0.53289 0.07878 0.4585 0.0
H722 H 0.54755 0.02781 0.38716 0.0
C723 C 0.53074 0.98349 0.57916 0.0
C724 C 0.51876 0.9817 0.6276 0.0
C725 C 0.51771 0.00122 0.64691 0.0
C726 C 0.52619 0.02136 0.61506 0.0
C727 C 0.53584 0.02165 0.56468 0.0
C728 C 0.53862 0.00335 0.54736 0.0
C729 C 0.54519 0.00562 0.48816 0.0
C730 C 0.57009 0.01008 0.48137 0.0
C731 C 0.52768 0.98422 0.45522 0.0
C732 C 0.54375 0.02694 0.47369 0.0
C733 C 0.5392 0.03647 0.51857 0.0
C734 C 0.53524 0.05516 0.51408 0.0
C735 C 0.53606 0.06433 0.46247 0.0
C736 C 0.54011 0.05433 0.41615 0.0
C737 C 0.54425 0.03562 0.42203 0.0
H738 H 0.17079 0.23237 0.08186 0.0
H739 H 0.19168 0.25909 0.91889 0.0
H740 H 0.21267 0.23744 0.90971 0.0
H741 H 0.22454 0.23157 0.11828 0.0
H742 H 0.20887 0.20465 0.15529 0.0
H743 H 0.1975 0.22423 0.15125 0.0
H744 H 0.15885 0.19082 0.11276 0.0
H745 H 0.17021 0.17125 0.11598 0.0
H746 H 0.15943 0.17568 0.05274 0.0
H747 H 0.22908 0.21087 0.91507 0.0
H748 H 0.24127 0.18214 0.93718 0.0
H749 H 0.20897 0.17185 0.09535 0.0
C750 C 0.18031 0.23407 0.04494 0.0
C751 C 0.17977 0.24746 1.00122 0.0
C752 C 0.19191 0.24887 0.95288 0.0
C753 C 0.2039 0.23667 0.94722 0.0
C754 C 0.20353 0.223 0.99021 0.0
C755 C 0.19221 0.2217 0.0383 0.0
C756 C 0.19348 0.20462 0.07687 0.0
C757 C 0.2069 0.21701 0.12847 0.0
C758 C 0.16904 0.1844 0.09035 0.0
C759 C 0.207 0.19646 0.04266 0.0
C760 C 0.21272 0.20733 0.99291 0.0
C761 C 0.22485 0.20231 0.9541 0.0
C762 C 0.2316 0.1859 0.96685 0.0
C763 C 0.22611 0.17471 0.01787 0.0
C764 C 0.2135 0.18006 0.05591 0.0
H765 H 0.82777 0.03913 0.9493 0.0
H766 H 0.87679 0.0353 0.0593 0.0
H767 H 0.84786 0.99476 0.0812 0.0
H768 H 0.77695 0.00535 0.0275 0.0
H769 H 0.7584 0.99028 0.9708 0.0
H770 H 0.78305 0.01904 0.96185 0.0
H771 H 0.79921 0.00416 0.88578 0.0
H772 H 0.77419 0.97558 0.89322 0.0
H773 H 0.803 0.9795 0.89869 0.0
H774 H 0.81289 0.95521 0.09554 0.0
H775 H 0.77727 0.91674 0.08547 0.0
H776 H 0.75141 0.94594 0.96553 0.0
C777 C 0.83262 0.0296 0.97696 0.0
C778 C 0.85454 0.04051 1.0027 0.0
C779 C 0.86007 0.02741 0.03911 0.0
C780 C 0.84369 0.0044 0.0523 0.0
C781 C 0.82184 0.99456 0.02846 0.0
C782 C 0.81646 0.00648 0.99046 0.0
C783 C 0.79194 0.99149 0.96944 0.0
C784 C 0.77669 0.00219 0.98324 0.0
C785 C 0.7921 0.98743 0.90816 0.0
C786 C 0.78451 0.96934 1.00137 0.0
C787 C 0.80183 0.97159 0.03598 0.0
C788 C 0.79916 0.9532 0.06859 0.0
C789 C 0.77875 0.93151 0.06329 0.0
C790 C 0.76159 0.92848 0.02513 0.0
C791 C 0.76417 0.94789 0.99554 0.0
H792 H 0.94787 0.82387 0.93482 0.0
H793 H 0.94251 0.75945 0.87854 0.0
H794 H 0.97396 0.76537 0.94273 0.0
H795 H 0.0083 0.85666 0.95449 0.0
H796 H 0.00564 0.87065 0.01439 0.0
H797 H 0.98356 0.86065 0.96307 0.0
H798 H 0.95259 0.8364 0.03592 0.0
H799 H 0.97482 0.84572 0.08709 0.0
H800 H 0.9556 0.81511 0.07504 0.0
H801 H 0.00872 0.78113 0.01087 0.0
H802 H 0.04311 0.8055 0.0683 0.0
H803 H 0.0202 0.85584 0.08603 0.0
C804 C 0.95344 0.81106 0.93495 0.0
C805 C 0.94307 0.79145 0.90051 0.0
C806 C 0.95052 0.77485 0.90377 0.0
C807 C 0.96816 0.77796 0.94055 0.0
C808 C 0.97755 0.79733 0.9749 0.0
C809 C 0.97021 0.81346 0.97225 0.0
C810 C 0.98249 0.83275 0.01301 0.0
C811 C -0.00421 0.85657 0.98454 0.0
C812 C 0.96535 0.83246 0.05526 0.0
C813 C -0.00122 0.82569 0.03796 0.0
C814 C -0.00425 0.80517 0.01601 0.0
C815 C 0.01084 0.79691 0.02904 0.0
C816 C 0.03018 0.8107 0.06245 0.0
C817 C 0.03418 0.83246 0.08219 0.0
C818 C 0.01737 0.8391 0.07243 0.0
H819 H 0.84389 0.82288 0.81754 0.0
H820 H 0.80447 0.74977 0.86032 0.0
H821 H 0.77267 0.75536 0.89478 0.0
H822 H 0.83195 0.84392 0.93026 0.0
H823 H 0.82934 0.86692 0.89819 0.0
H824 H 0.84711 0.8566 0.86784 0.0
H825 H 0.82376 0.84733 0.77834 0.0
H826 H 0.8064 0.85841 0.80769 0.0
H827 H 0.79253 0.82942 0.7799 0.0
H828 H 0.74839 0.77091 0.93956 0.0
H829 H 0.73067 0.79358 0.97467 0.0
H830 H 0.78624 0.85591 0.90058 0.0
C831 C 0.82815 0.80783 0.83201 0.0
C832 C 0.8266 0.78589 0.83593 0.0
C833 C 0.80588 0.76668 0.85603 0.0
C834 C 0.78783 0.76975 0.87633 0.0
C835 C 0.79062 0.79203 0.87521 0.0
C836 C 0.80999 0.81057 0.85198 0.0
C837 C 0.80956 0.83301 0.85828 0.0
C838 C 0.83075 0.85117 0.89057 0.0
C839 C 0.80796 0.8426 0.80275 0.0
C840 C 0.78735 0.82439 0.89018 0.0
C841 C 0.7766 0.80075 0.89985 0.0
C842 C 0.75645 0.78935 0.93128 0.0
C843 C 0.74666 0.80238 0.95165 0.0
C844 C 0.75704 0.82644 0.94012 0.0
C845 C 0.77778 0.83748 0.90963 0.0
H846 H 0.13084 0.96084 0.14875 0.0
H847 H 0.17684 0.9347 0.10624 0.0
H848 H 0.20802 0.97482 0.08495 0.0
H849 H 0.14524 -0.00062 0.04669 0.0
H850 H 0.14418 0.02213 0.08414 0.0
H851 H 0.12697 0.99236 0.10571 0.0
H852 H 0.14589 0.00263 0.20088 0.0
H853 H 0.16249 0.03268 0.18048 0.0
H854 H 0.17713 0.01808 0.20686 0.0
H855 H 0.23137 0.01707 0.05207 0.0
H856 H 0.2478 0.05895 0.02983 0.0
H857 H 0.18631 0.05657 0.09667 0.0
C858 C 0.14786 0.96375 0.13758 0.0
C859 C 0.15161 0.94483 0.12983 0.0
C860 C 0.17386 0.94909 0.11371 0.0
C861 C 0.19153 0.97178 0.10075 0.0
C862 C 0.18672 0.98992 0.10525 0.0
C863 C 0.16566 0.9862 0.12515 0.0
C864 C 0.16421 0.00822 0.12379 0.0
C865 C 0.14395 0.00533 0.08795 0.0
C866 C 0.16233 0.01586 0.18143 0.0
C867 C 0.18741 0.02477 0.09843 0.0
C868 C 0.20018 0.01399 0.08758 0.0
C869 C 0.22168 0.02577 0.06138 0.0
C870 C 0.23073 0.0494 0.04814 0.0
C871 C 0.21829 0.06088 0.06158 0.0
C872 C 0.19623 0.04821 0.08615 0.0
H873 H 0.97297 0.15524 0.05365 0.0
H874 H 0.94872 0.17544 0.91147 0.0
H875 H 0.98754 0.21076 0.90258 0.0
H876 H 0.00765 0.21259 0.10877 0.0
H877 H 0.03014 0.2072 0.133 0.0
H878 H 0.00059 0.18357 0.12805 0.0
H879 H 0.01385 0.16056 0.06713 0.0
H880 H 0.04345 0.1839 0.07274 0.0
H881 H 0.0305 0.17411 1.0069 0.0
H882 H 0.02913 0.24324 0.90869 0.0
H883 H 0.07114 0.26896 0.92456 0.0
H884 H 0.06753 0.22808 0.065 0.0
C885 C 0.97573 0.16697 0.02034 0.0
C886 C 0.95776 0.16252 0.9831 0.0
C887 C 0.96223 0.1784 0.94027 0.0
C888 C 0.98415 0.19857 0.93521 0.0
C889 C 0.00125 0.20261 0.9735 0.0
C890 C -0.00269 0.18714 0.01499 0.0
C891 C 0.01865 0.19515 0.05026 0.0
C892 C 0.01397 0.19991 0.10847 0.0
C893 C 0.02711 0.17738 0.04915 0.0
C894 C 0.03549 0.21748 0.02169 0.0
C895 C 0.02503 0.22153 0.97774 0.0
C896 C 0.03739 0.24035 0.94325 0.0
C897 C 0.0612 0.2549 0.95273 0.0
C898 C 0.0724 0.25064 0.99646 0.0
C899 C 0.05924 0.23208 0.03226 0.0
H900 H 0.82377 0.54108 0.3342 0.0
H901 H 0.87547 0.59121 0.22463 0.0
H902 H 0.89139 0.56498 0.21032 0.0
H903 H 0.85994 0.51709 0.39116 0.0
H904 H 0.83526 0.488 0.39263 0.0
H905 H 0.83114 0.51264 0.40168 0.0
H906 H 0.8016 0.49771 0.32244 0.0
H907 H 0.80622 0.4735 0.31188 0.0
H908 H 0.81061 0.49317 0.25693 0.0
H909 H 0.89883 0.53143 0.20031 0.0
H910 H 0.89937 0.4944 0.20194 0.0
H911 H 0.84088 0.46547 0.31309 0.0
C912 C 0.83916 0.54696 0.3094 0.0
C913 C 0.84885 0.56835 0.28161 0.0
C914 C 0.86822 0.57506 0.24717 0.0
C915 C 0.87723 0.56021 0.23848 0.0
C916 C 0.86649 0.53863 0.26415 0.0
C917 C 0.84807 0.53212 0.29949 0.0
C918 C 0.8383 0.50721 0.31806 0.0
C919 C 0.84136 0.50618 0.37953 0.0
C920 C 0.81267 0.49202 0.30131 0.0
C921 C 0.85379 0.50063 0.28694 0.0
C922 C 0.87006 0.51899 0.25641 0.0
C923 C 0.88624 0.51695 0.22435 0.0
C924 C 0.88629 0.4958 0.22512 0.0
C925 C 0.87009 0.47694 0.25724 0.0
C926 C 0.85335 0.47938 0.28748 0.0
H927 H 0.54381 0.37025 0.36611 0.0
H928 H 0.48254 0.37159 0.31063 0.0
H929 H 0.45754 0.33327 0.35392 0.0
H930 H 0.52011 0.30717 0.35054 0.0
H931 H 0.53524 0.30596 0.40995 0.0
H932 H 0.54739 0.33211 0.36987 0.0
H933 H 0.5493 0.35524 0.45616 0.0
H934 H 0.53616 0.32898 0.49598 0.0
H935 H 0.52303 0.34707 0.49367 0.0
H936 H 0.43947 0.29631 0.41163 0.0
H937 H 0.42989 0.26002 0.46033 0.0
H938 H 0.50343 0.28402 0.47845 0.0
C939 C 0.52513 0.36215 0.36155 0.0
C940 C 0.5151 0.37379 0.33471 0.0
C941 C 0.49059 0.36277 0.33014 0.0
C942 C 0.47627 0.3412 0.35542 0.0
C943 C 0.4868 0.33092 0.38461 0.0
C944 C 0.51069 0.34076 0.38637 0.0
C945 C 0.51786 0.32642 0.42029 0.0
C946 C 0.53091 0.31737 0.38559 0.0
C947 C 0.53245 0.34027 0.46943 0.0
C948 C 0.49428 0.30693 0.43766 0.0
C949 C 0.47654 0.30992 0.41737 0.0
C950 C 0.45324 0.29378 0.42751 0.0
C951 C 0.44796 0.27337 0.45606 0.0
C952 C 0.46592 0.26924 0.47348 0.0
C953 C 0.48933 0.28679 0.46619 0.0
H954 H 0.62736 0.14922 0.30493 0.0
H955 H 0.61001 0.07798 0.27301 0.0
H956 H 0.64328 0.08385 0.32956 0.0
H957 H 0.69009 0.17491 0.30688 0.0
H958 H 0.6933 0.19472 0.36048 0.0
H959 H 0.66933 0.1847 0.31404 0.0
H960 H 0.64103 0.17038 0.39585 0.0
H961 H 0.66492 0.17945 0.44234 0.0
H962 H 0.64146 0.14969 0.44249 0.0
H963 H 0.67831 0.0977 0.39311 0.0
H964 H 0.71509 0.12012 0.44394 0.0
H965 H 0.70659 0.18077 0.43905 0.0
C966 C 0.63081 0.13495 0.30848 0.0
C967 C 0.61604 0.11316 0.28406 0.0
C968 C 0.62116 0.09494 0.29072 0.0
C969 C 0.63985 0.09801 0.32344 0.0
C970 C 0.65315 0.11933 0.34952 0.0
C971 C 0.64903 0.13757 0.34155 0.0
C972 C 0.66558 0.15872 0.37418 0.0
C973 C 0.68046 0.17948 0.33667 0.0
C974 C 0.65245 0.16491 0.41619 0.0
C975 C 0.67995 0.14971 0.40132 0.0
C976 C 0.67248 0.1269 0.38711 0.0
C977 C 0.68418 0.11551 0.40476 0.0
C978 C 0.70489 0.12828 0.4345 0.0
C979 C 0.71366 0.15218 0.44588 0.0
C980 C 0.70018 0.16245 0.43173 0.0
H981 H 0.49848 0.12549 0.23978 0.0
H982 H 0.48057 0.06356 0.33318 0.0
H983 H 0.45491 0.07132 0.39107 0.0
H984 H 0.50656 0.16008 0.34004 0.0
H985 H 0.49434 0.17661 0.31145 0.0
H986 H 0.50519 0.16271 0.26764 0.0
H987 H 0.46536 0.14034 0.21917 0.0
H988 H 0.45438 0.15464 0.26213 0.0
H989 H 0.43932 0.12332 0.25835 0.0
H990 H 0.44026 0.09193 0.45331 0.0
H991 H 0.43512 0.12119 0.50568 0.0
H992 H 0.46163 0.16829 0.36915 0.0
C993 C 0.48806 0.11286 0.27039 0.0
C994 C 0.4913 0.09387 0.28168 0.0
C995 C 0.47794 0.07797 0.32306 0.0
C996 C 0.46342 0.08235 0.35649 0.0
C997 C 0.46196 0.10231 0.34694 0.0
C998 C 0.47335 0.11687 0.30354 0.0
C999 C 0.47161 0.1387 0.30563 0.0
C1000 C 0.49586 0.16079 0.30628 0.0
C1001 C 0.45678 0.13927 0.25853 0.0
C1002 C 0.45921 0.13509 0.35903 0.0
C1003 C 0.45327 0.11387 0.38216 0.0
C1004 C 0.44418 0.10828 0.43477 0.0
C1005 C 0.44139 0.12493 0.46439 0.0
C1006 C 0.44806 0.14684 0.44123 0.0
C1007 C 0.45635 0.15154 0.38757 0.0
H1008 H 0.79685 0.25203 0.3573 0.0
H1009 H 0.85655 0.25446 0.43472 0.0
H1010 H 0.88111 0.29563 0.40438 0.0
H1011 H 0.82554 0.28412 0.24092 0.0
H1012 H 0.80888 0.29874 0.23645 0.0
H1013 H 0.79624 0.27028 0.26674 0.0
H1014 H 0.78764 0.28571 0.35514 0.0
H1015 H 0.79952 0.31399 0.32444 0.0
H1016 H 0.81087 0.31081 0.38817 0.0
H1017 H 0.89896 0.33648 0.35986 0.0
H1018 H 0.90692 0.37404 0.32002 0.0
H1019 H 0.83466 0.34274 0.2718 0.0
C1020 C 0.81505 0.26136 0.36873 0.0
C1021 C 0.8249 0.2503 0.3985 0.0
C1022 C 0.84871 0.26288 0.41261 0.0
C1023 C 0.86275 0.28609 0.39489 0.0
C1024 C 0.85254 0.29617 0.36344 0.0
C1025 C 0.82908 0.28419 0.35153 0.0
C1026 C 0.82186 0.2985 0.31782 0.0
C1027 C 0.81259 0.28723 0.2622 0.0
C1028 C 0.80393 0.3025 0.34822 0.0
C1029 C 0.8449 0.32067 0.31254 0.0
C1030 C 0.86254 0.31906 0.33839 0.0
C1031 C 0.88524 0.33784 0.33957 0.0
C1032 C 0.88967 0.35903 0.31617 0.0
C1033 C 0.87141 0.36126 0.29252 0.0
C1034 C 0.84901 0.34153 0.28914 0.0
H1035 H 0.62673 0.50709 0.35925 0.0
H1036 H 0.60806 0.47718 0.19844 0.0
H1037 H 0.64977 0.49797 0.17288 0.0
H1038 H 0.67686 0.56436 0.31706 0.0
H1039 H 0.69312 0.56595 0.37692 0.0
H1040 H 0.66182 0.55128 0.37932 0.0
H1041 H 0.6611 0.51426 0.41542 0.0
H1042 H 0.6923 0.52854 0.4119 0.0
H1043 H 0.67485 0.50145 0.37668 0.0
H1044 H 0.69319 0.51689 0.1703 0.0
H1045 H 0.73539 0.53735 0.18475 0.0
H1046 H 0.72593 0.55616 0.34734 0.0
C1047 C 0.63139 0.50543 0.31813 0.0
C1048 C 0.6143 0.49059 0.28062 0.0
C1049 C 0.62093 0.48871 0.22739 0.0
C1050 C 0.64454 0.5003 0.21279 0.0
C1051 C 0.66104 0.51394 0.25172 0.0
C1052 C 0.65472 0.51702 0.3029 0.0
C1053 C 0.67579 0.53171 0.33806 0.0
C1054 C 0.67697 0.55469 0.35375 0.0
C1055 C 0.67601 0.51817 0.38848 0.0
C1056 C 0.69507 0.5358 0.29928 0.0
C1057 C 0.68614 0.52537 0.24978 0.0
C1058 C 0.70038 0.5255 0.20848 0.0
C1059 C 0.72438 0.53704 0.21744 0.0
C1060 C 0.73407 0.54849 0.26728 0.0
C1061 C 0.71911 0.54772 0.30879 0.0
H1062 H 0.48204 0.78 0.54033 0.0
H1063 H 0.55683 0.82089 0.56101 0.0
H1064 H 0.55251 0.85191 0.60507 0.0
H1065 H 0.47323 0.83048 0.51448 0.0
H1066 H 0.44579 0.81656 0.54971 0.0
H1067 H 0.45555 0.79919 0.51478 0.0
H1068 H 0.45077 0.77654 0.60385 0.0
H1069 H 0.44198 0.7945 0.63963 0.0
H1070 H 0.4664 0.7922 0.6635 0.0
H1071 H 0.53931 0.87588 0.65865 0.0
H1072 H 0.51913 0.89556 0.69677 0.0
H1073 H 0.45335 0.83943 0.63805 0.0
C1074 C 0.49757 0.79586 0.55226 0.0
C1075 C 0.51976 0.79806 0.54702 0.0
C1076 C 0.53967 0.81896 0.56379 0.0
C1077 C 0.53736 0.83653 0.58967 0.0
C1078 C 0.51507 0.83308 0.59749 0.0
C1079 C 0.4956 0.81365 0.57752 0.0
C1080 C 0.4736 0.81404 0.59128 0.0
C1081 C 0.46133 0.81515 0.53949 0.0
C1082 C 0.45724 0.79307 0.62666 0.0
C1083 C 0.48368 0.83651 0.62298 0.0
C1084 C 0.50759 0.84711 0.62688 0.0
C1085 C 0.52061 0.86786 0.65532 0.0
C1086 C 0.50898 0.87872 0.67765 0.0
C1087 C 0.48471 0.86889 0.67066 0.0
C1088 C 0.4719 0.84719 0.64439 0.0
H1089 H 0.15508 0.72053 0.62891 0.0
H1090 H 0.20636 0.72597 0.74615 0.0
H1091 H 0.18092 0.68515 0.77213 0.0
H1092 H 0.10535 0.68492 0.70582 0.0
H1093 H 0.08801 0.66686 0.65053 0.0
H1094 H 0.11064 0.69635 0.63785 0.0
H1095 H 0.12995 0.68203 0.56835 0.0
H1096 H 0.10698 0.65256 0.57963 0.0
H1097 H 0.13689 0.66004 0.58813 0.0
H1098 H 0.14838 0.645 0.7928 0.0
H1099 H 0.11398 0.60523 0.79217 0.0
H1100 H 0.08493 0.62499 0.65887 0.0
C1101 C 0.16122 0.71296 0.65894 0.0
C1102 C 0.18264 0.72659 0.68574 0.0
C1103 C 0.18993 0.71599 0.72522 0.0
C1104 C 0.17556 0.69281 0.74062 0.0
C1105 C 0.15404 0.68022 0.71562 0.0
C1106 C 0.14715 0.68963 0.6745 0.0
C1107 C 0.12324 0.67203 0.65381 0.0
C1108 C 0.10579 0.68056 0.66254 0.0
C1109 C 0.12434 0.66632 0.59394 0.0
C1110 C 0.1178 0.65151 0.69016 0.0
C1111 C 0.13563 0.65669 0.72614 0.0
C1112 C 0.13435 0.6406 0.76448 0.0
C1113 C 0.11469 0.61821 0.76437 0.0
C1114 C 0.09693 0.61222 0.72566 0.0
C1115 C 0.09832 0.62924 0.689 0.0
H1116 H 0.3822 0.53562 0.70985 0.0
H1117 H 0.36999 0.46663 0.74835 0.0
H1118 H 0.33104 0.44933 0.70618 0.0
H1119 H 0.32107 0.52217 0.73075 0.0
H1120 H 0.32332 0.54117 0.67603 0.0
H1121 H 0.34868 0.54748 0.7152 0.0
H1122 H 0.36992 0.54848 0.62637 0.0
H1123 H 0.34431 0.54116 0.58716 0.0
H1124 H 0.3576 0.52325 0.58302 0.0
H1125 H 0.2957 0.43971 0.64827 0.0
H1126 H 0.26271 0.4385 0.59912 0.0
H1127 H 0.29821 0.51398 0.60002 0.0
C1128 C 0.37095 0.5169 0.71133 0.0
C1129 C 0.379 0.50246 0.73276 0.0
C1130 C 0.36398 0.47803 0.73314 0.0
C1131 C 0.34199 0.46805 0.70845 0.0
C1132 C 0.33524 0.48279 0.68439 0.0
C1133 C 0.34897 0.50672 0.6873 0.0
C1134 C 0.33794 0.51876 0.65774 0.0
C1135 C 0.33241 0.53324 0.69729 0.0
C1136 C 0.35337 0.5338 0.6108 0.0
C1137 C 0.31601 0.49788 0.63689 0.0
C1138 C 0.31487 0.47728 0.65204 0.0
C1139 C 0.29631 0.45574 0.63672 0.0
C1140 C 0.2778 0.45524 0.60797 0.0
C1141 C 0.27789 0.47616 0.5955 0.0
C1142 C 0.29768 0.49771 0.60859 0.0
H1143 H 0.17901 0.50855 0.63166 0.0
H1144 H 0.14121 0.45253 0.51687 0.0
H1145 H 0.10544 0.45444 0.53568 0.0
H1146 H 0.1342 0.48788 0.72908 0.0
H1147 H 0.14055 0.51647 0.75016 0.0
H1148 H 0.1634 0.51218 0.72381 0.0
H1149 H 0.17299 0.54367 0.65038 0.0
H1150 H 0.15059 0.54849 0.67738 0.0
H1151 H 0.15012 0.54134 0.60685 0.0
H1152 H 0.07413 0.46364 0.56703 0.0
H1153 H 0.05037 0.47906 0.60745 0.0
H1154 H 0.10839 0.52537 0.70897 0.0
C1155 C 0.16341 0.49698 0.60929 0.0
C1156 C 0.16302 0.48067 0.57186 0.0
C1157 C 0.14197 0.46541 0.545 0.0
C1158 C 0.12159 0.46627 0.55578 0.0
C1159 C 0.12253 0.48213 0.59434 0.0
C1160 C 0.14296 0.49715 0.62067 0.0
C1161 C 0.13944 0.51182 0.66225 0.0
C1162 C 0.14471 0.50677 0.71971 0.0
C1163 C 0.15415 0.53786 0.64836 0.0
C1164 C 0.1138 0.50302 0.65492 0.0
C1165 C 0.10432 0.48601 0.61532 0.0
C1166 C 0.08129 0.47661 0.59872 0.0
C1167 C 0.06789 0.48531 0.6221 0.0
C1168 C 0.07743 0.50278 0.66242 0.0
C1169 C 0.10047 0.51134 0.6798 0.0
H1170 H 0.47258 0.58857 0.7236 0.0
H1171 H 0.51874 0.57129 0.63792 0.0
H1172 H 0.53683 0.60947 0.59123 0.0
H1173 H 0.45963 0.61059 0.61302 0.0
H1174 H 0.45734 0.63326 0.64766 0.0
H1175 H 0.45182 0.60743 0.68367 0.0
H1176 H 0.48324 0.63212 0.75496 0.0
H1177 H 0.48834 0.65815 0.72022 0.0
H1178 H 0.51217 0.65308 0.73288 0.0
H1179 H 0.54728 0.64876 0.54761 0.0
H1180 H 0.54911 0.68492 0.51335 0.0
H1181 H 0.49227 0.67245 0.62064 0.0
C1182 C 0.48734 0.5934 0.69724 0.0
C1183 C 0.49491 0.57748 0.68572 0.0
C1184 C 0.51328 0.58368 0.64841 0.0
C1185 C 0.52349 0.60522 0.62142 0.0
C1186 C 0.51478 0.6201 0.63152 0.0
C1187 C 0.49716 0.61444 0.66884 0.0
C1188 C 0.48875 0.63179 0.66764 0.0
C1189 C 0.46286 0.62005 0.65206 0.0
C1190 C 0.49342 0.64454 0.72215 0.0
C1191 C 0.50407 0.64787 0.62339 0.0
C1192 C 0.5193 0.64126 0.6035 0.0
C1193 C 0.53537 0.65405 0.56292 0.0
C1194 C 0.53617 0.67442 0.54331 0.0
C1195 C 0.52057 0.68133 0.56336 0.0
C1196 C 0.50417 0.66752 0.60331 0.0
H1197 H 0.29203 0.83929 0.73514 0.0
H1198 H 0.27753 0.85404 0.57301 0.0
H1199 H 0.3197 0.88166 0.56003 0.0
H1200 H 0.33879 0.89751 0.76801 0.0
H1201 H 0.35497 0.88669 0.80446 0.0
H1202 H 0.32368 0.86979 0.80207 0.0
H1203 H 0.32593 0.83463 0.76346 0.0
H1204 H 0.35714 0.85132 0.76615 0.0
H1205 H 0.34275 0.83841 0.70318 0.0
H1206 H 0.36362 0.90591 0.56416 0.0
H1207 H 0.4055 0.92231 0.58096 0.0
H1208 H 0.39048 0.89082 0.74069 0.0
C1209 C 0.29752 0.84847 0.69692 0.0
C1210 C 0.28141 0.84459 0.65507 0.0
C1211 C 0.28954 0.85677 0.6056 0.0
C1212 C 0.31341 0.87256 0.5981 0.0
C1213 C 0.32873 0.87591 0.64052 0.0
C1214 C 0.32104 0.86407 0.68883 0.0
C1215 C 0.34095 0.86935 0.72692 0.0
C1216 C 0.3395 0.88157 0.77841 0.0
C1217 C 0.34173 0.84711 0.74069 0.0
C1218 C 0.3613 0.88571 0.6921 0.0
C1219 C 0.35389 0.88955 0.64273 0.0
C1220 C 0.36956 0.90313 0.60277 0.0
C1221 C 0.39334 0.91236 0.6128 0.0
C1222 C 0.40127 0.90783 0.66226 0.0
C1223 C 0.385 0.89487 0.7029 0.0
loop_
_geom_bond_atom_site_label_1
_geom_bond_atom_site_label_2
_geom_bond_distance
_geom_bond_site_symmetry_2
_ccdc_geom_bond_type
Zn0 O3 2.031 . S
Zn0 O5 2.049 . S
Zn0 O10 2.067 . S
Zn1 O2 1.962 . S
Zn1 O4 1.986 . S
Zn1 O6 1.996 . S
Zn1 O9 1.943 . S
O2 Zn1 1.962 . S
O2 C7 1.254 . S
O3 Zn0 2.031 . S
O3 C7 1.269 1_556 S
O4 Zn1 1.986 . S
O4 C11 1.262 . S
O5 Zn0 2.049 . S
O5 C13 1.260 1_556 S
O6 Zn1 1.996 . S
O6 C13 1.257 . S
C7 O2 1.254 . S
C7 O3 1.269 1_554 S
C8 O9 1.249 1_556 S
C8 O10 1.270 . S
O9 Zn1 1.943 . S
O9 C8 1.249 1_554 S
O10 Zn0 2.067 . S
O10 C8 1.270 . S
C11 O4 1.262 . S
C11 O12 1.232 . S
O12 C11 1.232 . S
C13 O5 1.260 1_554 S
C13 O6 1.257 . S
Zn14 O17 2.031 . S
Zn14 O19 2.049 . S
Zn14 O24 2.067 . S
Zn15 O16 1.962 . S
Zn15 O18 1.986 . S
Zn15 O20 1.996 . S
Zn15 O23 1.943 . S
O16 Zn15 1.962 . S
O16 C21 1.254 . S
O17 Zn14 2.031 . S
O17 C21 1.269 1_556 S
O18 Zn15 1.986 . S
O18 C25 1.262 . S
O19 Zn14 2.049 . S
O19 C27 1.260 1_556 S
O20 Zn15 1.996 . S
O20 C27 1.257 . S
C21 O16 1.254 . S
C21 O17 1.269 1_554 S
C22 O23 1.249 1_556 S
C22 O24 1.270 . S
O23 Zn15 1.943 . S
O23 C22 1.249 1_554 S
O24 Zn14 2.067 . S
O24 C22 1.270 . S
C25 O18 1.262 . S
C25 O26 1.232 . S
O26 C25 1.232 . S
C27 O19 1.260 1_554 S
C27 O20 1.257 . S
Zn28 O31 2.031 . S
Zn28 O33 2.049 . S
Zn28 O38 2.067 . S
Zn29 O30 1.962 . S
Zn29 O32 1.986 . S
Zn29 O34 1.996 . S
Zn29 O37 1.943 . S
O30 Zn29 1.962 . S
O30 C35 1.254 . S
O31 Zn28 2.031 . S
O31 C35 1.269 1_556 S
O32 Zn29 1.986 . S
O32 C39 1.262 . S
O33 Zn28 2.049 . S
O33 C41 1.260 1_556 S
O34 Zn29 1.996 . S
O34 C41 1.257 . S
C35 O30 1.254 . S
C35 O31 1.269 1_554 S
C36 O37 1.249 1_556 S
C36 O38 1.270 . S
O37 Zn29 1.943 . S
O37 C36 1.249 1_554 S
O38 Zn28 2.067 . S
O38 C36 1.270 . S
C39 O32 1.262 . S
C39 O40 1.232 . S
O40 C39 1.232 . S
C41 O33 1.260 1_554 S
C41 O34 1.257 . S
Zn42 O45 2.031 . S
Zn42 O47 2.049 . S
Zn42 O52 2.067 . S
Zn43 O44 1.962 . S
Zn43 O46 1.986 . S
Zn43 O48 1.996 . S
Zn43 O51 1.943 . S
O44 Zn43 1.962 . S
O44 C49 1.254 . S
O45 Zn42 2.031 . S
O45 C49 1.269 1_554 S
O46 Zn43 1.986 . S
O46 C53 1.262 . S
O47 Zn42 2.049 . S
O47 C55 1.260 1_554 S
O48 Zn43 1.996 . S
O48 C55 1.257 . S
C49 O44 1.254 . S
C49 O45 1.269 1_556 S
C50 O51 1.249 1_554 S
C50 O52 1.270 . S
O51 Zn43 1.943 . S
O51 C50 1.249 1_556 S
O52 Zn42 2.067 . S
O52 C50 1.270 . S
C53 O46 1.262 . S
C53 O54 1.232 . S
O54 C53 1.232 . S
C55 O47 1.260 1_556 S
C55 O48 1.257 . S
Zn56 O59 2.031 . S
Zn56 O61 2.049 . S
Zn56 O66 2.067 . S
Zn57 O58 1.962 . S
Zn57 O60 1.986 . S
Zn57 O62 1.996 . S
Zn57 O65 1.943 . S
O58 Zn57 1.962 . S
O58 C63 1.254 . S
O59 Zn56 2.031 . S
O59 C63 1.269 1_554 S
O60 Zn57 1.986 . S
O60 C67 1.262 . S
O61 Zn56 2.049 . S
O61 C69 1.260 1_554 S
O62 Zn57 1.996 . S
O62 C69 1.257 . S
C63 O58 1.254 . S
C63 O59 1.269 1_556 S
C64 O65 1.249 1_554 S
C64 O66 1.270 . S
O65 Zn57 1.943 . S
O65 C64 1.249 1_556 S
O66 Zn56 2.067 . S
O66 C64 1.270 . S
C67 O60 1.262 . S
C67 O68 1.232 . S
O68 C67 1.232 . S
C69 O61 1.260 1_556 S
C69 O62 1.257 . S
Zn70 O73 2.031 . S
Zn70 O75 2.049 . S
Zn70 O80 2.067 . S
Zn71 O72 1.962 . S
Zn71 O74 1.986 . S
Zn71 O76 1.996 . S
Zn71 O79 1.943 . S
O72 Zn71 1.962 . S
O72 C77 1.254 . S
O73 Zn70 2.031 . S
O73 C77 1.269 1_554 S
O74 Zn71 1.986 . S
O74 C81 1.262 . S
O75 Zn70 2.049 . S
O75 C83 1.260 1_554 S
O76 Zn71 1.996 . S
O76 C83 1.257 . S
C77 O72 1.254 . S
C77 O73 1.269 1_556 S
C78 O79 1.249 1_554 S
C78 O80 1.270 . S
O79 Zn71 1.943 . S
O79 C78 1.249 1_556 S
O80 Zn70 2.067 . S
O80 C78 1.270 . S
C81 O74 1.262 . S
C81 O82 1.232 . S
O82 C81 1.232 . S
C83 O75 1.260 1_556 S
C83 O76 1.257 . S
Zn84 O87 2.031 . S
Zn84 O89 2.049 . S
Zn84 O94 2.067 . S
Zn85 O86 1.962 . S
Zn85 O88 1.986 . S
Zn85 O90 1.996 . S
Zn85 O93 1.943 . S
O86 Zn85 1.962 . S
O86 C91 1.254 . S
O87 Zn84 2.031 . S
O87 C91 1.269 . S
O88 Zn85 1.986 . S
O88 C95 1.262 . S
O89 Zn84 2.049 . S
O89 C97 1.260 . S
O90 Zn85 1.996 . S
O90 C97 1.257 . S
C91 O86 1.254 . S
C91 O87 1.269 . S
C92 O93 1.249 . S
C92 O94 1.270 . S
O93 Zn85 1.943 . S
O93 C92 1.249 . S
O94 Zn84 2.067 . S
O94 C92 1.270 . S
C95 O88 1.262 . S
C95 O96 1.232 . S
O96 C95 1.232 . S
C97 O89 1.260 . S
C97 O90 1.257 . S
Zn98 O101 2.031 . S
Zn98 O103 2.049 . S
Zn98 O108 2.067 . S
Zn99 O100 1.962 . S
Zn99 O102 1.986 . S
Zn99 O104 1.996 . S
Zn99 O107 1.943 . S
O100 Zn99 1.962 . S
O100 C105 1.254 . S
O101 Zn98 2.031 . S
O101 C105 1.269 . S
O102 Zn99 1.986 . S
O102 C109 1.262 . S
O103 Zn98 2.049 . S
O103 C111 1.260 . S
O104 Zn99 1.996 . S
O104 C111 1.257 . S
C105 O100 1.254 . S
C105 O101 1.269 . S
C106 O107 1.249 . S
C106 O108 1.270 . S
O107 Zn99 1.943 . S
O107 C106 1.249 . S
O108 Zn98 2.067 . S
O108 C106 1.270 . S
C109 O102 1.262 . S
C109 O110 1.232 . S
O110 C109 1.232 . S
C111 O103 1.260 . S
C111 O104 1.257 . S
Zn112 O115 2.031 . S
Zn112 O117 2.049 . S
Zn112 O122 2.067 . S
Zn113 O114 1.962 . S
Zn113 O116 1.986 . S
Zn113 O118 1.996 . S
Zn113 O121 1.943 . S
O114 Zn113 1.962 . S
O114 C119 1.254 . S
O115 Zn112 2.031 . S
O115 C119 1.269 . S
O116 Zn113 1.986 . S
O116 C123 1.262 . S
O117 Zn112 2.049 . S
O117 C125 1.260 . S
O118 Zn113 1.996 . S
O118 C125 1.257 . S
C119 O114 1.254 . S
C119 O115 1.269 . S
C120 O121 1.249 . S
C120 O122 1.270 . S
O121 Zn113 1.943 . S
O121 C120 1.249 . S
O122 Zn112 2.067 . S
O122 C120 1.270 . S
C123 O116 1.262 . S
C123 O124 1.232 . S
O124 C123 1.232 . S
C125 O117 1.260 . S
C125 O118 1.257 . S
Zn126 O129 2.031 . S
Zn126 O131 2.049 . S
Zn126 O136 2.067 . S
Zn127 O128 1.962 . S
Zn127 O130 1.986 . S
Zn127 O132 1.996 . S
Zn127 O135 1.943 . S
O128 Zn127 1.962 . S
O128 C133 1.254 . S
O129 Zn126 2.031 . S
O129 C133 1.269 . S
O130 Zn127 1.986 . S
O130 C137 1.262 . S
O131 Zn126 2.049 . S
O131 C139 1.260 . S
O132 Zn127 1.996 . S
O132 C139 1.257 . S
C133 O128 1.254 . S
C133 O129 1.269 . S
C134 O135 1.249 . S
C134 O136 1.270 . S
O135 Zn127 1.943 . S
O135 C134 1.249 . S
O136 Zn126 2.067 . S
O136 C134 1.270 . S
C137 O130 1.262 . S
C137 O138 1.232 . S
O138 C137 1.232 . S
C139 O131 1.260 . S
C139 O132 1.257 . S
Zn140 O143 2.031 . S
Zn140 O145 2.049 . S
Zn140 O150 2.067 . S
Zn141 O142 1.962 . S
Zn141 O144 1.986 . S
Zn141 O146 1.996 . S
Zn141 O149 1.943 . S
O142 Zn141 1.962 . S
O142 C147 1.254 . S
O143 Zn140 2.031 . S
O143 C147 1.269 . S
O144 Zn141 1.986 . S
O144 C151 1.262 . S
O145 Zn140 2.049 . S
O145 C153 1.260 . S
O146 Zn141 1.996 . S
O146 C153 1.257 . S
C147 O142 1.254 . S
C147 O143 1.269 . S
C148 O149 1.249 . S
C148 O150 1.270 . S
O149 Zn141 1.943 . S
O149 C148 1.249 . S
O150 Zn140 2.067 . S
O150 C148 1.270 . S
C151 O144 1.262 . S
C151 O152 1.232 . S
O152 C151 1.232 . S
C153 O145 1.260 . S
C153 O146 1.257 . S
Zn154 O157 2.031 . S
Zn154 O159 2.049 . S
Zn154 O164 2.067 . S
Zn155 O156 1.962 . S
Zn155 O158 1.986 . S
Zn155 O160 1.996 . S
Zn155 O163 1.943 . S
O156 Zn155 1.962 . S
O156 C161 1.254 . S
O157 Zn154 2.031 . S
O157 C161 1.269 . S
O158 Zn155 1.986 . S
O158 C165 1.262 . S
O159 Zn154 2.049 . S
O159 C167 1.260 . S
O160 Zn155 1.996 . S
O160 C167 1.257 . S
C161 O156 1.254 . S
C161 O157 1.269 . S
C162 O163 1.249 . S
C162 O164 1.270 . S
O163 Zn155 1.943 . S
O163 C162 1.249 . S
O164 Zn154 2.067 . S
O164 C162 1.270 . S
C165 O158 1.262 . S
C165 O166 1.232 . S
O166 C165 1.232 . S
C167 O159 1.260 . S
C167 O160 1.257 . S
Zn168 O171 2.031 . S
Zn168 O173 2.049 . S
Zn168 O178 2.067 . S
Zn169 O170 1.962 . S
Zn169 O172 1.986 . S
Zn169 O174 1.996 . S
Zn169 O177 1.943 . S
O170 Zn169 1.962 . S
O170 C175 1.254 . S
O171 Zn168 2.031 . S
O171 C175 1.269 . S
O172 Zn169 1.986 . S
O172 C179 1.262 . S
O173 Zn168 2.049 . S
O173 C181 1.260 . S
O174 Zn169 1.996 . S
O174 C181 1.257 . S
C175 O170 1.254 . S
C175 O171 1.269 . S
C176 O177 1.249 . S
C176 O178 1.270 . S
O177 Zn169 1.943 . S
O177 C176 1.249 . S
O178 Zn168 2.067 . S
O178 C176 1.270 . S
C179 O172 1.262 . S
C179 O180 1.232 . S
O180 C179 1.232 . S
C181 O173 1.260 . S
C181 O174 1.257 . S
Zn182 O185 2.031 . S
Zn182 O187 2.049 . S
Zn182 O192 2.067 . S
Zn183 O184 1.962 . S
Zn183 O186 1.986 . S
Zn183 O188 1.996 . S
Zn183 O191 1.943 . S
O184 Zn183 1.962 . S
O184 C189 1.254 . S
O185 Zn182 2.031 . S
O185 C189 1.269 . S
O186 Zn183 1.986 . S
O186 C193 1.262 . S
O187 Zn182 2.049 . S
O187 C195 1.260 . S
O188 Zn183 1.996 . S
O188 C195 1.257 . S
C189 O184 1.254 . S
C189 O185 1.269 . S
C190 O191 1.249 . S
C190 O192 1.270 . S
O191 Zn183 1.943 . S
O191 C190 1.249 . S
O192 Zn182 2.067 . S
O192 C190 1.270 . S
C193 O186 1.262 . S
C193 O194 1.232 . S
O194 C193 1.232 . S
C195 O187 1.260 . S
C195 O188 1.257 . S
Zn196 O199 2.031 . S
Zn196 O201 2.049 . S
Zn196 O206 2.067 . S
Zn197 O198 1.962 . S
Zn197 O200 1.986 . S
Zn197 O202 1.996 . S
Zn197 O205 1.943 . S
O198 Zn197 1.962 . S
O198 C203 1.254 . S
O199 Zn196 2.031 . S
O199 C203 1.269 . S
O200 Zn197 1.986 . S
O200 C207 1.262 . S
O201 Zn196 2.049 . S
O201 C209 1.260 . S
O202 Zn197 1.996 . S
O202 C209 1.257 . S
C203 O198 1.254 . S
C203 O199 1.269 . S
C204 O205 1.249 . S
C204 O206 1.270 . S
O205 Zn197 1.943 . S
O205 C204 1.249 . S
O206 Zn196 2.067 . S
O206 C204 1.270 . S
C207 O200 1.262 . S
C207 O208 1.232 . S
O208 C207 1.232 . S
C209 O201 1.260 . S
C209 O202 1.257 . S
Zn210 O213 2.031 . S
Zn210 O215 2.049 . S
Zn210 O220 2.067 . S
Zn211 O212 1.962 . S
Zn211 O214 1.986 . S
Zn211 O216 1.996 . S
Zn211 O219 1.943 . S
O212 Zn211 1.962 . S
O212 C217 1.254 . S
O213 Zn210 2.031 . S
O213 C217 1.269 . S
O214 Zn211 1.986 . S
O214 C221 1.262 . S
O215 Zn210 2.049 . S
O215 C223 1.260 . S
O216 Zn211 1.996 . S
O216 C223 1.257 . S
C217 O212 1.254 . S
C217 O213 1.269 . S
C218 O219 1.249 . S
C218 O220 1.270 . S
O219 Zn211 1.943 . S
O219 C218 1.249 . S
O220 Zn210 2.067 . S
O220 C218 1.270 . S
C221 O214 1.262 . S
C221 O222 1.232 . S
O222 C221 1.232 . S
C223 O215 1.260 . S
C223 O216 1.257 . S
Zn224 O227 2.031 . S
Zn224 O229 2.049 . S
Zn224 O234 2.067 . S
Zn225 O226 1.962 . S
Zn225 O228 1.986 . S
Zn225 O230 1.996 . S
Zn225 O233 1.943 . S
O226 Zn225 1.962 . S
O226 C231 1.254 . S
O227 Zn224 2.031 . S
O227 C231 1.269 . S
O228 Zn225 1.986 . S
O228 C235 1.262 . S
O229 Zn224 2.049 . S
O229 C237 1.260 . S
O230 Zn225 1.996 . S
O230 C237 1.257 . S
C231 O226 1.254 . S
C231 O227 1.269 . S
C232 O233 1.249 . S
C232 O234 1.270 . S
O233 Zn225 1.943 . S
O233 C232 1.249 . S
O234 Zn224 2.067 . S
O234 C232 1.270 . S
C235 O228 1.262 . S
C235 O236 1.232 . S
O236 C235 1.232 . S
C237 O229 1.260 . S
C237 O230 1.257 . S
Zn238 O241 2.031 . S
Zn238 O243 2.049 . S
Zn238 O248 2.067 . S
Zn239 O240 1.962 . S
Zn239 O242 1.986 . S
Zn239 O244 1.996 . S
Zn239 O247 1.943 . S
O240 Zn239 1.962 . S
O240 C245 1.254 . S
O241 Zn238 2.031 . S
O241 C245 1.269 . S
O242 Zn239 1.986 . S
O242 C249 1.262 . S
O243 Zn238 2.049 . S
O243 C251 1.260 . S
O244 Zn239 1.996 . S
O244 C251 1.257 . S
C245 O240 1.254 . S
C245 O241 1.269 . S
C246 O247 1.249 . S
C246 O248 1.270 . S
O247 Zn239 1.943 . S
O247 C246 1.249 . S
O248 Zn238 2.067 . S
O248 C246 1.270 . S
C249 O242 1.262 . S
C249 O250 1.232 . S
O250 C249 1.232 . S
C251 O243 1.260 . S
C251 O244 1.257 . S
H252 C264 0.930 . S
H253 C266 0.930 . S
H254 C267 0.930 . S
H255 C271 0.959 . S
H256 C271 0.959 . S
H257 C271 0.961 . S
H258 C272 0.960 . S
H259 C272 0.961 . S
H260 C272 0.959 . S
H261 C275 0.929 . S
H262 C276 0.931 . S
H263 C278 0.930 . S
C264 H252 0.930 . S
C264 C265 1.399 . S
C264 C269 1.399 . S
C265 C264 1.399 . S
C265 C266 1.376 . S
C266 H253 0.930 . S
C266 C265 1.376 . S
C266 C267 1.388 . S
C267 H254 0.930 . S
C267 C266 1.388 . S
C267 C268 1.390 . S
C268 C267 1.390 . S
C268 C269 1.394 . S
C268 C274 1.465 . S
C269 C264 1.399 . S
C269 C268 1.394 . S
C269 C270 1.516 . S
C270 C269 1.516 . S
C270 C271 1.502 . S
C270 C272 1.561 . S
C270 C273 1.526 . S
C271 H255 0.959 . S
C271 H256 0.959 . S
C271 H257 0.961 . S
C271 C270 1.502 . S
C272 H258 0.960 . S
C272 H259 0.961 . S
C272 H260 0.959 . S
C272 C270 1.561 . S
C273 C270 1.526 . S
C273 C274 1.396 . S
C273 C278 1.390 . S
C274 C268 1.465 . S
C274 C273 1.396 . S
C274 C275 1.399 . S
C275 H261 0.929 . S
C275 C274 1.399 . S
C275 C276 1.385 . S
C276 H262 0.931 . S
C276 C275 1.385 . S
C276 C277 1.389 . S
C277 C276 1.389 . S
C277 C278 1.387 . S
C278 H263 0.930 . S
C278 C273 1.390 . S
C278 C277 1.387 . S
H279 C291 0.930 . S
H280 C293 0.930 . S
H281 C294 0.930 . S
H282 C298 0.959 . S
H283 C298 0.959 . S
H284 C298 0.961 . S
H285 C299 0.960 . S
H286 C299 0.961 . S
H287 C299 0.959 . S
H288 C302 0.929 . S
H289 C303 0.931 . S
H290 C305 0.930 . S
C291 H279 0.930 . S
C291 C292 1.399 . S
C291 C296 1.399 . S
C292 C291 1.399 . S
C292 C293 1.376 . S
C293 H280 0.930 . S
C293 C292 1.376 . S
C293 C294 1.388 . S
C294 H281 0.930 . S
C294 C293 1.388 . S
C294 C295 1.390 . S
C295 C294 1.390 . S
C295 C296 1.394 . S
C295 C301 1.465 . S
C296 C291 1.399 . S
C296 C295 1.394 . S
C296 C297 1.516 . S
C297 C296 1.516 . S
C297 C298 1.502 . S
C297 C299 1.561 . S
C297 C300 1.526 . S
C298 H282 0.959 . S
C298 H283 0.959 . S
C298 H284 0.961 . S
C298 C297 1.502 . S
C299 H285 0.960 . S
C299 H286 0.961 . S
C299 H287 0.959 . S
C299 C297 1.561 . S
C300 C297 1.526 . S
C300 C301 1.396 . S
C300 C305 1.390 . S
C301 C295 1.465 . S
C301 C300 1.396 . S
C301 C302 1.399 . S
C302 H288 0.929 . S
C302 C301 1.399 . S
C302 C303 1.385 . S
C303 H289 0.931 . S
C303 C302 1.385 . S
C303 C304 1.389 . S
C304 C303 1.389 . S
C304 C305 1.387 . S
C305 H290 0.930 . S
C305 C300 1.390 . S
C305 C304 1.387 . S
H306 C318 0.930 . S
H307 C320 0.930 . S
H308 C321 0.930 . S
H309 C325 0.959 . S
H310 C325 0.959 . S
H311 C325 0.961 . S
H312 C326 0.960 . S
H313 C326 0.961 . S
H314 C326 0.959 . S
H315 C329 0.929 . S
H316 C330 0.931 . S
H317 C332 0.930 . S
C318 H306 0.930 . S
C318 C319 1.399 . S
C318 C323 1.399 . S
C319 C318 1.399 . S
C319 C320 1.376 . S
C320 H307 0.930 . S
C320 C319 1.376 . S
C320 C321 1.388 . S
C321 H308 0.930 . S
C321 C320 1.388 . S
C321 C322 1.390 . S
C322 C321 1.390 . S
C322 C323 1.394 . S
C322 C328 1.465 . S
C323 C318 1.399 . S
C323 C322 1.394 . S
C323 C324 1.516 . S
C324 C323 1.516 . S
C324 C325 1.502 . S
C324 C326 1.561 . S
C324 C327 1.526 . S
C325 H309 0.959 . S
C325 H310 0.959 . S
C325 H311 0.961 . S
C325 C324 1.502 . S
C326 H312 0.960 . S
C326 H313 0.961 . S
C326 H314 0.959 . S
C326 C324 1.561 . S
C327 C324 1.526 . S
C327 C328 1.396 . S
C327 C332 1.390 . S
C328 C322 1.465 . S
C328 C327 1.396 . S
C328 C329 1.399 . S
C329 H315 0.929 . S
C329 C328 1.399 . S
C329 C330 1.385 . S
C330 H316 0.931 . S
C330 C329 1.385 . S
C330 C331 1.389 . S
C331 C330 1.389 . S
C331 C332 1.387 . S
C332 H317 0.930 . S
C332 C327 1.390 . S
C332 C331 1.387 . S
H333 C345 0.930 . S
H334 C347 0.930 . S
H335 C348 0.930 . S
H336 C352 0.959 . S
H337 C352 0.959 . S
H338 C352 0.961 . S
H339 C353 0.960 . S
H340 C353 0.961 . S
H341 C353 0.959 . S
H342 C356 0.929 . S
H343 C357 0.931 . S
H344 C359 0.930 . S
C345 H333 0.930 . S
C345 C346 1.399 . S
C345 C350 1.399 . S
C346 C345 1.399 . S
C346 C347 1.376 . S
C347 H334 0.930 . S
C347 C346 1.376 . S
C347 C348 1.388 . S
C348 H335 0.930 . S
C348 C347 1.388 . S
C348 C349 1.390 . S
C349 C348 1.390 . S
C349 C350 1.394 . S
C349 C355 1.465 . S
C350 C345 1.399 . S
C350 C349 1.394 . S
C350 C351 1.516 . S
C351 C350 1.516 . S
C351 C352 1.502 . S
C351 C353 1.561 . S
C351 C354 1.526 . S
C352 H336 0.959 . S
C352 H337 0.959 . S
C352 H338 0.961 . S
C352 C351 1.502 . S
C353 H339 0.960 . S
C353 H340 0.961 . S
C353 H341 0.959 . S
C353 C351 1.561 . S
C354 C351 1.526 . S
C354 C355 1.396 . S
C354 C359 1.390 . S
C355 C349 1.465 . S
C355 C354 1.396 . S
C355 C356 1.399 . S
C356 H342 0.929 . S
C356 C355 1.399 . S
C356 C357 1.385 . S
C357 H343 0.931 . S
C357 C356 1.385 . S
C357 C358 1.389 . S
C358 C357 1.389 . S
C358 C359 1.387 . S
C359 H344 0.930 . S
C359 C354 1.390 . S
C359 C358 1.387 . S
H360 C372 0.930 . S
H361 C374 0.930 . S
H362 C375 0.930 . S
H363 C379 0.959 . S
H364 C379 0.959 . S
H365 C379 0.961 . S
H366 C380 0.960 . S
H367 C380 0.961 . S
H368 C380 0.959 . S
H369 C383 0.929 . S
H370 C384 0.931 . S
H371 C386 0.930 . S
C372 H360 0.930 . S
C372 C373 1.399 . S
C372 C377 1.399 . S
C373 C372 1.399 . S
C373 C374 1.376 . S
C374 H361 0.930 . S
C374 C373 1.376 . S
C374 C375 1.388 . S
C375 H362 0.930 . S
C375 C374 1.388 . S
C375 C376 1.390 . S
C376 C375 1.390 . S
C376 C377 1.394 . S
C376 C382 1.465 . S
C377 C372 1.399 . S
C377 C376 1.394 . S
C377 C378 1.516 . S
C378 C377 1.516 . S
C378 C379 1.502 . S
C378 C380 1.561 . S
C378 C381 1.526 . S
C379 H363 0.959 . S
C379 H364 0.959 . S
C379 H365 0.961 . S
C379 C378 1.502 . S
C380 H366 0.960 . S
C380 H367 0.961 . S
C380 H368 0.959 . S
C380 C378 1.561 . S
C381 C378 1.526 . S
C381 C382 1.396 . S
C381 C386 1.390 . S
C382 C376 1.465 . S
C382 C381 1.396 . S
C382 C383 1.399 . S
C383 H369 0.929 . S
C383 C382 1.399 . S
C383 C384 1.385 . S
C384 H370 0.931 . S
C384 C383 1.385 . S
C384 C385 1.389 . S
C385 C384 1.389 . S
C385 C386 1.387 . S
C386 H371 0.930 . S
C386 C381 1.390 . S
C386 C385 1.387 . S
H387 C399 0.930 . S
H388 C401 0.930 . S
H389 C402 0.930 . S
H390 C406 0.959 . S
H391 C406 0.959 . S
H392 C406 0.961 . S
H393 C407 0.960 . S
H394 C407 0.961 . S
H395 C407 0.959 . S
H396 C410 0.929 . S
H397 C411 0.931 . S
H398 C413 0.930 . S
C399 H387 0.930 . S
C399 C400 1.399 . S
C399 C404 1.399 . S
C400 C399 1.399 . S
C400 C401 1.376 . S
C401 H388 0.930 . S
C401 C400 1.376 . S
C401 C402 1.388 . S
C402 H389 0.930 . S
C402 C401 1.388 . S
C402 C403 1.390 . S
C403 C402 1.390 . S
C403 C404 1.394 . S
C403 C409 1.465 . S
C404 C399 1.399 . S
C404 C403 1.394 . S
C404 C405 1.516 . S
C405 C404 1.516 . S
C405 C406 1.502 . S
C405 C407 1.561 . S
C405 C408 1.526 . S
C406 H390 0.959 . S
C406 H391 0.959 . S
C406 H392 0.961 . S
C406 C405 1.502 . S
C407 H393 0.960 . S
C407 H394 0.961 . S
C407 H395 0.959 . S
C407 C405 1.561 . S
C408 C405 1.526 . S
C408 C409 1.396 . S
C408 C413 1.390 . S
C409 C403 1.465 . S
C409 C408 1.396 . S
C409 C410 1.399 . S
C410 H396 0.929 . S
C410 C409 1.399 . S
C410 C411 1.385 . S
C411 H397 0.931 . S
C411 C410 1.385 . S
C411 C412 1.389 . S
C412 C411 1.389 . S
C412 C413 1.387 . S
C413 H398 0.930 . S
C413 C408 1.390 . S
C413 C412 1.387 . S
H414 C426 0.930 . S
H415 C428 0.930 . S
H416 C429 0.930 . S
H417 C433 0.959 . S
H418 C433 0.959 . S
H419 C433 0.961 . S
H420 C434 0.960 . S
H421 C434 0.961 . S
H422 C434 0.959 . S
H423 C437 0.929 . S
H424 C438 0.931 . S
H425 C440 0.930 . S
C426 H414 0.930 . S
C426 C427 1.399 . S
C426 C431 1.399 . S
C427 C426 1.399 . S
C427 C428 1.376 . S
C428 H415 0.930 . S
C428 C427 1.376 . S
C428 C429 1.388 . S
C429 H416 0.930 . S
C429 C428 1.388 . S
C429 C430 1.390 . S
C430 C429 1.390 . S
C430 C431 1.394 . S
C430 C436 1.449 1_654 S
C431 C426 1.399 . S
C431 C430 1.394 . S
C431 C432 1.516 1_655 S
C432 C431 1.516 1_455 S
C432 C433 1.502 . S
C432 C434 1.561 . S
C432 C435 1.526 1_554 S
C433 H417 0.959 . S
C433 H418 0.959 . S
C433 H419 0.961 . S
C433 C432 1.502 . S
C434 H420 0.960 . S
C434 H421 0.961 . S
C434 H422 0.959 . S
C434 C432 1.561 . S
C435 C432 1.526 1_556 S
C435 C436 1.409 . S
C435 C440 1.390 . S
C436 C430 1.449 1_456 S
C436 C435 1.409 . S
C436 C437 1.405 1_455 S
C437 H423 0.929 . S
C437 C436 1.405 1_655 S
C437 C438 1.385 1_655 S
C438 H424 0.931 . S
C438 C437 1.385 1_455 S
C438 C439 1.389 . S
C439 C438 1.389 . S
C439 C440 1.387 . S
C440 H425 0.930 . S
C440 C435 1.390 . S
C440 C439 1.387 . S
H441 C453 0.930 . S
H442 C455 0.930 . S
H443 C456 0.930 . S
H444 C460 0.959 . S
H445 C460 0.959 . S
H446 C460 0.961 . S
H447 C461 0.960 1_554 S
H448 C461 0.961 . S
H449 C461 0.959 1_554 S
H450 C464 0.929 . S
H451 C465 0.931 . S
H452 C467 0.930 . S
C453 H441 0.930 . S
C453 C454 1.399 . S
C453 C458 1.399 . S
C454 C453 1.399 . S
C454 C455 1.376 . S
C455 H442 0.930 . S
C455 C454 1.376 . S
C455 C456 1.388 . S
C456 H443 0.930 . S
C456 C455 1.388 . S
C456 C457 1.390 . S
C457 C456 1.390 . S
C457 C458 1.394 . S
C457 C463 1.465 1_554 S
C458 C453 1.399 . S
C458 C457 1.394 . S
C458 C459 1.516 1_554 S
C459 C458 1.516 1_556 S
C459 C460 1.502 . S
C459 C461 1.561 . S
C459 C462 1.526 . S
C460 H444 0.959 . S
C460 H445 0.959 . S
C460 H446 0.961 . S
C460 C459 1.502 . S
C461 H447 0.960 1_556 S
C461 H448 0.961 . S
C461 H449 0.959 1_556 S
C461 C459 1.561 . S
C462 C459 1.526 . S
C462 C463 1.396 . S
C462 C467 1.390 . S
C463 C457 1.465 1_556 S
C463 C462 1.396 . S
C463 C464 1.399 . S
C464 H450 0.929 . S
C464 C463 1.399 . S
C464 C465 1.385 . S
C465 H451 0.931 . S
C465 C464 1.385 . S
C465 C466 1.389 . S
C466 C465 1.389 . S
C466 C467 1.387 . S
C467 H452 0.930 . S
C467 C462 1.390 . S
C467 C466 1.387 . S
H468 C480 0.930 . S
H469 C482 0.930 . S
H470 C483 0.930 . S
H471 C487 0.959 . S
H472 C487 0.959 . S
H473 C487 0.961 . S
H474 C488 0.960 . S
H475 C488 0.961 . S
H476 C488 0.959 . S
H477 C491 0.929 1_554 S
H478 C492 0.931 . S
H479 C494 0.930 . S
C480 H468 0.930 . S
C480 C481 1.399 . S
C480 C485 1.399 . S
C481 C480 1.399 . S
C481 C482 1.376 . S
C482 H469 0.930 . S
C482 C481 1.376 . S
C482 C483 1.388 1_545 S
C483 H470 0.930 . S
C483 C482 1.388 1_565 S
C483 C484 1.390 . S
C484 C483 1.390 . S
C484 C485 1.394 1_565 S
C484 C490 1.465 1_554 S
C485 C480 1.399 . S
C485 C484 1.394 1_545 S
C485 C486 1.516 1_554 S
C486 C485 1.516 1_556 S
C486 C487 1.502 . S
C486 C488 1.561 . S
C486 C489 1.526 1_545 S
C487 H471 0.959 . S
C487 H472 0.959 . S
C487 H473 0.961 . S
C487 C486 1.502 . S
C488 H474 0.960 . S
C488 H475 0.961 . S
C488 H476 0.959 . S
C488 C486 1.561 . S
C489 C486 1.526 1_565 S
C489 C490 1.396 . S
C489 C494 1.390 . S
C490 C484 1.465 1_556 S
C490 C489 1.396 . S
C490 C491 1.399 . S
C491 H477 0.929 1_556 S
C491 C490 1.399 . S
C491 C492 1.385 . S
C492 H478 0.931 . S
C492 C491 1.385 . S
C492 C493 1.389 . S
C493 C492 1.389 . S
C493 C494 1.387 . S
C494 H479 0.930 . S
C494 C489 1.390 . S
C494 C493 1.387 . S
H495 C507 0.930 . S
H496 C509 0.930 . S
H497 C510 0.930 . S
H498 C514 0.959 . S
H499 C514 0.959 . S
H500 C514 0.961 . S
H501 C515 0.960 . S
H502 C515 0.961 . S
H503 C515 0.959 . S
H504 C518 0.929 . S
H505 C519 0.931 . S
H506 C521 0.930 . S
C507 H495 0.930 . S
C507 C508 1.399 . S
C507 C512 1.399 . S
C508 C507 1.399 . S
C508 C509 1.376 . S
C509 H496 0.930 . S
C509 C508 1.376 . S
C509 C510 1.388 . S
C510 H497 0.930 . S
C510 C509 1.388 . S
C510 C511 1.390 . S
C511 C510 1.390 . S
C511 C512 1.394 . S
C511 C517 1.465 . S
C512 C507 1.399 . S
C512 C511 1.394 . S
C512 C513 1.516 . S
C513 C512 1.516 . S
C513 C514 1.502 . S
C513 C515 1.561 . S
C513 C516 1.526 . S
C514 H498 0.959 . S
C514 H499 0.959 . S
C514 H500 0.961 . S
C514 C513 1.502 . S
C515 H501 0.960 . S
C515 H502 0.961 . S
C515 H503 0.959 . S
C515 C513 1.561 . S
C516 C513 1.526 . S
C516 C517 1.396 . S
C516 C521 1.390 . S
C517 C511 1.465 . S
C517 C516 1.396 . S
C517 C518 1.399 . S
C518 H504 0.929 . S
C518 C517 1.399 . S
C518 C519 1.385 . S
C519 H505 0.931 . S
C519 C518 1.385 . S
C519 C520 1.389 . S
C520 C519 1.389 . S
C520 C521 1.387 . S
C521 H506 0.930 . S
C521 C516 1.390 . S
C521 C520 1.387 . S
H522 C534 0.930 . S
H523 C536 0.930 . S
H524 C537 0.930 . S
H525 C541 0.959 . S
H526 C541 0.959 . S
H527 C541 0.961 . S
H528 C542 0.960 . S
H529 C542 0.961 . S
H530 C542 0.959 . S
H531 C545 0.929 . S
H532 C546 0.931 . S
H533 C548 0.930 . S
C534 H522 0.930 . S
C534 C535 1.399 . S
C534 C539 1.399 . S
C535 C534 1.399 . S
C535 C536 1.376 . S
C536 H523 0.930 . S
C536 C535 1.376 . S
C536 C537 1.388 . S
C537 H524 0.930 . S
C537 C536 1.388 . S
C537 C538 1.390 . S
C538 C537 1.390 . S
C538 C539 1.394 . S
C538 C544 1.465 . S
C539 C534 1.399 . S
C539 C538 1.394 . S
C539 C540 1.516 . S
C540 C539 1.516 . S
C540 C541 1.502 . S
C540 C542 1.561 . S
C540 C543 1.526 . S
C541 H525 0.959 . S
C541 H526 0.959 . S
C541 H527 0.961 . S
C541 C540 1.502 . S
C542 H528 0.960 . S
C542 H529 0.961 . S
C542 H530 0.959 . S
C542 C540 1.561 . S
C543 C540 1.526 . S
C543 C544 1.396 . S
C543 C548 1.390 . S
C544 C538 1.465 . S
C544 C543 1.396 . S
C544 C545 1.399 . S
C545 H531 0.929 . S
C545 C544 1.399 . S
C545 C546 1.385 . S
C546 H532 0.931 . S
C546 C545 1.385 . S
C546 C547 1.389 . S
C547 C546 1.389 . S
C547 C548 1.387 . S
C548 H533 0.930 . S
C548 C543 1.390 . S
C548 C547 1.387 . S
H549 C561 0.930 . S
H550 C563 0.930 . S
H551 C564 0.930 . S
H552 C568 0.959 . S
H553 C568 0.959 . S
H554 C568 0.961 . S
H555 C569 0.960 . S
H556 C569 0.961 . S
H557 C569 0.959 . S
H558 C572 0.929 . S
H559 C573 0.931 . S
H560 C575 0.930 . S
C561 H549 0.930 . S
C561 C562 1.399 . S
C561 C566 1.399 . S
C562 C561 1.399 . S
C562 C563 1.376 . S
C563 H550 0.930 . S
C563 C562 1.376 . S
C563 C564 1.388 . S
C564 H551 0.930 . S
C564 C563 1.388 . S
C564 C565 1.390 . S
C565 C564 1.390 . S
C565 C566 1.394 . S
C565 C571 1.465 . S
C566 C561 1.399 . S
C566 C565 1.394 . S
C566 C567 1.516 . S
C567 C566 1.516 . S
C567 C568 1.502 . S
C567 C569 1.561 . S
C567 C570 1.526 . S
C568 H552 0.959 . S
C568 H553 0.959 . S
C568 H554 0.961 . S
C568 C567 1.502 . S
C569 H555 0.960 . S
C569 H556 0.961 . S
C569 H557 0.959 . S
C569 C567 1.561 . S
C570 C567 1.526 . S
C570 C571 1.396 . S
C570 C575 1.390 . S
C571 C565 1.465 . S
C571 C570 1.396 . S
C571 C572 1.399 . S
C572 H558 0.929 . S
C572 C571 1.399 . S
C572 C573 1.385 . S
C573 H559 0.931 . S
C573 C572 1.385 . S
C573 C574 1.389 . S
C574 C573 1.389 . S
C574 C575 1.387 . S
C575 H560 0.930 . S
C575 C570 1.390 . S
C575 C574 1.387 . S
H576 C588 0.930 . S
H577 C590 0.930 . S
H578 C591 0.930 . S
H579 C595 0.959 . S
H580 C595 0.959 . S
H581 C595 0.961 . S
H582 C596 0.960 . S
H583 C596 0.961 . S
H584 C596 0.959 . S
H585 C599 0.929 . S
H586 C600 0.931 . S
H587 C602 0.930 . S
C588 H576 0.930 . S
C588 C589 1.399 . S
C588 C593 1.399 . S
C589 C588 1.399 . S
C589 C590 1.376 . S
C590 H577 0.930 . S
C590 C589 1.376 . S
C590 C591 1.388 . S
C591 H578 0.930 . S
C591 C590 1.388 . S
C591 C592 1.390 . S
C592 C591 1.390 . S
C592 C593 1.394 . S
C592 C598 1.465 . S
C593 C588 1.399 . S
C593 C592 1.394 . S
C593 C594 1.516 . S
C594 C593 1.516 . S
C594 C595 1.502 . S
C594 C596 1.561 . S
C594 C597 1.526 . S
C595 H579 0.959 . S
C595 H580 0.959 . S
C595 H581 0.961 . S
C595 C594 1.502 . S
C596 H582 0.960 . S
C596 H583 0.961 . S
C596 H584 0.959 . S
C596 C594 1.561 . S
C597 C594 1.526 . S
C597 C598 1.396 . S
C597 C602 1.390 . S
C598 C592 1.465 . S
C598 C597 1.396 . S
C598 C599 1.399 . S
C599 H585 0.929 . S
C599 C598 1.399 . S
C599 C600 1.385 . S
C600 H586 0.931 . S
C600 C599 1.385 . S
C600 C601 1.389 . S
C601 C600 1.389 . S
C601 C602 1.387 . S
C602 H587 0.930 . S
C602 C597 1.390 . S
C602 C601 1.387 . S
H603 C615 0.930 . S
H604 C617 0.930 . S
H605 C618 0.930 . S
H606 C622 0.959 . S
H607 C622 0.959 . S
H608 C622 0.961 . S
H609 C623 0.960 . S
H610 C623 0.961 . S
H611 C623 0.959 . S
H612 C626 0.929 . S
H613 C627 0.931 . S
H614 C629 0.930 . S
C615 H603 0.930 . S
C615 C616 1.399 . S
C615 C620 1.399 . S
C616 C615 1.399 . S
C616 C617 1.376 . S
C617 H604 0.930 . S
C617 C616 1.376 . S
C617 C618 1.388 . S
C618 H605 0.930 . S
C618 C617 1.388 . S
C618 C619 1.390 . S
C619 C618 1.390 . S
C619 C620 1.394 . S
C619 C625 1.465 . S
C620 C615 1.399 . S
C620 C619 1.394 . S
C620 C621 1.516 . S
C621 C620 1.516 . S
C621 C622 1.502 . S
C621 C623 1.561 . S
C621 C624 1.526 . S
C622 H606 0.959 . S
C622 H607 0.959 . S
C622 H608 0.961 . S
C622 C621 1.502 . S
C623 H609 0.960 . S
C623 H610 0.961 . S
C623 H611 0.959 . S
C623 C621 1.561 . S
C624 C621 1.526 . S
C624 C625 1.396 . S
C624 C629 1.390 . S
C625 C619 1.465 . S
C625 C624 1.396 . S
C625 C626 1.399 . S
C626 H612 0.929 . S
C626 C625 1.399 . S
C626 C627 1.385 . S
C627 H613 0.931 . S
C627 C626 1.385 . S
C627 C628 1.389 . S
C628 C627 1.389 . S
C628 C629 1.387 . S
C629 H614 0.930 . S
C629 C624 1.390 . S
C629 C628 1.387 . S
H630 C642 0.930 . S
H631 C644 0.930 . S
H632 C645 0.930 . S
H633 C649 0.959 . S
H634 C649 0.959 . S
H635 C649 0.961 . S
H636 C650 0.960 . S
H637 C650 0.961 . S
H638 C650 0.959 . S
H639 C653 0.929 . S
H640 C654 0.931 . S
H641 C656 0.930 . S
C642 H630 0.930 . S
C642 C643 1.399 . S
C642 C647 1.399 . S
C643 C642 1.399 . S
C643 C644 1.376 . S
C644 H631 0.930 . S
C644 C643 1.376 . S
C644 C645 1.388 . S
C645 H632 0.930 . S
C645 C644 1.388 . S
C645 C646 1.390 . S
C646 C645 1.390 . S
C646 C647 1.394 . S
C646 C652 1.465 . S
C647 C642 1.399 . S
C647 C646 1.394 . S
C647 C648 1.516 . S
C648 C647 1.516 . S
C648 C649 1.502 . S
C648 C650 1.561 . S
C648 C651 1.526 . S
C649 H633 0.959 . S
C649 H634 0.959 . S
C649 H635 0.961 . S
C649 C648 1.502 . S
C650 H636 0.960 . S
C650 H637 0.961 . S
C650 H638 0.959 . S
C650 C648 1.561 . S
C651 C648 1.526 . S
C651 C652 1.396 . S
C651 C656 1.390 . S
C652 C646 1.465 . S
C652 C651 1.396 . S
C652 C653 1.399 . S
C653 H639 0.929 . S
C653 C652 1.399 . S
C653 C654 1.385 . S
C654 H640 0.931 . S
C654 C653 1.385 . S
C654 C655 1.389 . S
C655 C654 1.389 . S
C655 C656 1.387 . S
C656 H641 0.930 . S
C656 C651 1.390 . S
C656 C655 1.387 . S
H657 C669 0.930 . S
H658 C671 0.930 . S
H659 C672 0.930 . S
H660 C676 0.959 . S
H661 C676 0.959 . S
H662 C676 0.961 . S
H663 C677 0.960 . S
H664 C677 0.961 1_455 S
H665 C677 0.959 . S
H666 C680 0.929 1_655 S
H667 C681 0.931 . S
H668 C683 0.930 . S
C669 H657 0.930 . S
C669 C670 1.399 . S
C669 C674 1.399 . S
C670 C669 1.399 . S
C670 C671 1.376 . S
C671 H658 0.930 . S
C671 C670 1.376 . S
C671 C672 1.388 . S
C672 H659 0.930 . S
C672 C671 1.388 . S
C672 C673 1.390 . S
C673 C672 1.390 . S
C673 C674 1.394 . S
C673 C679 1.437 1_655 S
C674 C669 1.399 . S
C674 C673 1.394 . S
C674 C675 1.516 1_655 S
C675 C674 1.516 1_455 S
C675 C676 1.502 . S
C675 C677 1.561 1_455 S
C675 C678 1.526 . S
C676 H660 0.959 . S
C676 H661 0.959 . S
C676 H662 0.961 . S
C676 C675 1.502 . S
C677 H663 0.960 . S
C677 H664 0.961 1_655 S
C677 H665 0.959 . S
C677 C675 1.561 1_655 S
C678 C675 1.526 . S
C678 C679 1.403 . S
C678 C683 1.390 . S
C679 C673 1.437 1_455 S
C679 C678 1.403 . S
C679 C680 1.421 . S
C680 H666 0.929 1_455 S
C680 C679 1.421 . S
C680 C681 1.385 . S
C681 H667 0.931 . S
C681 C680 1.385 . S
C681 C682 1.389 . S
C682 C681 1.389 . S
C682 C683 1.387 . S
C683 H668 0.930 . S
C683 C678 1.390 . S
C683 C682 1.387 . S
H684 C696 0.930 . S
H685 C698 0.930 . S
H686 C699 0.930 . S
H687 C703 0.959 . S
H688 C703 0.959 . S
H689 C703 0.961 . S
H690 C704 0.960 . S
H691 C704 0.961 . S
H692 C704 0.959 . S
H693 C707 0.929 . S
H694 C708 0.931 . S
H695 C710 0.930 . S
C696 H684 0.930 . S
C696 C697 1.399 . S
C696 C701 1.399 . S
C697 C696 1.399 . S
C697 C698 1.376 . S
C698 H685 0.930 . S
C698 C697 1.376 . S
C698 C699 1.388 . S
C699 H686 0.930 . S
C699 C698 1.388 . S
C699 C700 1.390 . S
C700 C699 1.390 . S
C700 C701 1.394 . S
C700 C706 1.465 . S
C701 C696 1.399 . S
C701 C700 1.394 . S
C701 C702 1.516 . S
C702 C701 1.516 . S
C702 C703 1.502 . S
C702 C704 1.561 . S
C702 C705 1.526 . S
C703 H687 0.959 . S
C703 H688 0.959 . S
C703 H689 0.961 . S
C703 C702 1.502 . S
C704 H690 0.960 . S
C704 H691 0.961 . S
C704 H692 0.959 . S
C704 C702 1.561 . S
C705 C702 1.526 . S
C705 C706 1.396 . S
C705 C710 1.390 . S
C706 C700 1.465 . S
C706 C705 1.396 . S
C706 C707 1.399 . S
C707 H693 0.929 . S
C707 C706 1.399 . S
C707 C708 1.385 . S
C708 H694 0.931 . S
C708 C707 1.385 . S
C708 C709 1.389 . S
C709 C708 1.389 . S
C709 C710 1.387 . S
C710 H695 0.930 . S
C710 C705 1.390 . S
C710 C709 1.387 . S
H711 C723 0.930 . S
H712 C725 0.930 . S
H713 C726 0.988 . S
H714 C730 0.959 . S
H715 C730 0.959 . S
H716 C730 0.961 . S
H717 C731 0.960 . S
H718 C731 0.961 . S
H719 C731 0.959 . S
H720 C734 0.929 . S
H721 C735 0.931 . S
H722 C737 0.930 . S
C723 H711 0.930 . S
C723 C724 1.399 . S
C723 C728 1.399 . S
C724 C723 1.399 . S
C724 C725 1.376 . S
C725 H712 0.930 . S
C725 C724 1.376 . S
C725 C726 1.349 1_565 S
C726 H713 0.988 . S
C726 C725 1.349 1_545 S
C726 C727 1.372 1_545 S
C727 C726 1.372 1_565 S
C727 C728 1.394 . S
C727 C733 1.465 1_565 S
C728 C723 1.399 . S
C728 C727 1.394 . S
C728 C729 1.516 . S
C729 C728 1.516 . S
C729 C730 1.502 . S
C729 C731 1.561 . S
C729 C732 1.526 1_565 S
C730 H714 0.959 . S
C730 H715 0.959 . S
C730 H716 0.961 . S
C730 C729 1.502 . S
C731 H717 0.960 . S
C731 H718 0.961 . S
C731 H719 0.959 . S
C731 C729 1.561 . S
C732 C729 1.526 1_545 S
C732 C733 1.396 . S
C732 C737 1.390 . S
C733 C727 1.465 1_545 S
C733 C732 1.396 . S
C733 C734 1.399 . S
C734 H720 0.929 . S
C734 C733 1.399 . S
C734 C735 1.385 . S
C735 H721 0.931 . S
C735 C734 1.385 . S
C735 C736 1.389 . S
C736 C735 1.389 . S
C736 C737 1.387 . S
C737 H722 0.930 . S
C737 C732 1.390 . S
C737 C736 1.387 . S
H738 C750 0.930 . S
H739 C752 0.930 . S
H740 C753 0.930 . S
H741 C757 0.959 . S
H742 C757 0.959 . S
H743 C757 0.961 . S
H744 C758 0.960 . S
H745 C758 0.961 . S
H746 C758 0.959 . S
H747 C761 0.929 . S
H748 C762 0.931 . S
H749 C764 0.930 . S
C750 H738 0.930 . S
C750 C751 1.399 . S
C750 C755 1.399 . S
C751 C750 1.399 . S
C751 C752 1.376 1_554 S
C752 H739 0.930 . S
C752 C751 1.376 1_556 S
C752 C753 1.388 . S
C753 H740 0.930 . S
C753 C752 1.388 . S
C753 C754 1.390 . S
C754 C753 1.390 . S
C754 C755 1.394 1_556 S
C754 C760 1.465 . S
C755 C750 1.399 . S
C755 C754 1.394 1_554 S
C755 C756 1.516 . S
C756 C755 1.516 . S
C756 C757 1.502 . S
C756 C758 1.561 . S
C756 C759 1.526 . S
C757 H741 0.959 . S
C757 H742 0.959 . S
C757 H743 0.961 . S
C757 C756 1.502 . S
C758 H744 0.960 . S
C758 H745 0.961 . S
C758 H746 0.959 . S
C758 C756 1.561 . S
C759 C756 1.526 . S
C759 C760 1.396 1_554 S
C759 C764 1.390 . S
C760 C754 1.465 . S
C760 C759 1.396 1_556 S
C760 C761 1.399 . S
C761 H747 0.929 . S
C761 C760 1.399 . S
C761 C762 1.385 . S
C762 H748 0.931 . S
C762 C761 1.385 . S
C762 C763 1.389 . S
C763 C762 1.389 . S
C763 C764 1.387 1_556 S
C764 H749 0.930 . S
C764 C759 1.390 . S
C764 C763 1.387 1_554 S
H765 C777 0.930 . S
H766 C779 0.930 . S
H767 C780 0.930 . S
H768 C784 0.959 . S
H769 C784 0.959 . S
H770 C784 0.961 1_545 S
H771 C785 0.977 . S
H772 C785 0.961 . S
H773 C785 0.959 . S
H774 C788 0.929 . S
H775 C789 0.931 . S
H776 C791 0.930 . S
C777 H765 0.930 . S
C777 C778 1.399 . S
C777 C782 1.399 . S
C778 C777 1.399 . S
C778 C779 1.376 1_556 S
C779 H766 0.930 . S
C779 C778 1.376 1_554 S
C779 C780 1.388 . S
C780 H767 0.930 . S
C780 C779 1.388 . S
C780 C781 1.390 . S
C781 C780 1.390 . S
C781 C782 1.394 1_554 S
C781 C787 1.465 1_545 S
C782 C777 1.399 . S
C782 C781 1.394 1_556 S
C782 C783 1.516 1_545 S
C783 C782 1.516 1_565 S
C783 C784 1.502 . S
C783 C785 1.561 . S
C783 C786 1.526 . S
C784 H768 0.959 . S
C784 H769 0.959 . S
C784 H770 0.961 1_565 S
C784 C783 1.502 . S
C785 H771 0.977 . S
C785 H772 0.961 . S
C785 H773 0.959 . S
C785 C783 1.561 . S
C786 C783 1.526 . S
C786 C787 1.396 1_556 S
C786 C791 1.390 . S
C787 C781 1.465 1_565 S
C787 C786 1.396 1_554 S
C787 C788 1.399 . S
C788 H774 0.929 . S
C788 C787 1.399 . S
C788 C789 1.385 . S
C789 H775 0.931 . S
C789 C788 1.385 . S
C789 C790 1.389 . S
C790 C789 1.389 . S
C790 C791 1.387 1_554 S
C791 H776 0.930 . S
C791 C786 1.390 . S
C791 C790 1.387 1_556 S
H792 C804 0.930 . S
H793 C806 0.930 . S
H794 C807 0.930 . S
H795 C811 0.959 . S
H796 C811 0.956 . S
H797 C811 0.961 . S
H798 C812 0.960 . S
H799 C812 0.961 . S
H800 C812 0.959 . S
H801 C815 0.929 . S
H802 C816 0.931 . S
H803 C818 0.930 . S
C804 H792 0.930 . S
C804 C805 1.399 1_554 S
C804 C809 1.399 . S
C805 C804 1.399 1_556 S
C805 C806 1.376 . S
C806 H793 0.930 . S
C806 C805 1.376 . S
C806 C807 1.388 . S
C807 H794 0.930 . S
C807 C806 1.388 . S
C807 C808 1.390 . S
C808 C807 1.390 . S
C808 C809 1.394 1_556 S
C808 C814 1.465 1_655 S
C809 C804 1.399 . S
C809 C808 1.394 1_554 S
C809 C810 1.516 . S
C810 C809 1.516 . S
C810 C811 1.502 . S
C810 C812 1.561 . S
C810 C813 1.526 1_655 S
C811 H795 0.959 . S
C811 H796 0.956 . S
C811 H797 0.961 . S
C811 C810 1.502 . S
C812 H798 0.960 . S
C812 H799 0.961 . S
C812 H800 0.959 . S
C812 C810 1.561 . S
C813 C810 1.526 1_455 S
C813 C814 1.396 1_554 S
C813 C818 1.390 . S
C814 C808 1.465 1_455 S
C814 C813 1.396 1_556 S
C814 C815 1.399 . S
C815 H801 0.929 . S
C815 C814 1.399 . S
C815 C816 1.385 . S
C816 H802 0.931 . S
C816 C815 1.385 . S
C816 C817 1.389 1_556 S
C817 C816 1.389 1_554 S
C817 C818 1.387 . S
C818 H803 0.930 . S
C818 C813 1.390 . S
C818 C817 1.387 . S
H819 C831 0.930 . S
H820 C833 0.930 . S
H821 C834 0.930 . S
H822 C838 0.959 . S
H823 C838 0.959 . S
H824 C838 0.961 . S
H825 C839 0.960 . S
H826 C839 0.961 . S
H827 C839 0.959 . S
H828 C842 0.929 . S
H829 C843 0.931 . S
H830 C845 0.930 . S
C831 H819 0.930 . S
C831 C832 1.399 . S
C831 C836 1.399 . S
C832 C831 1.399 . S
C832 C833 1.376 1_556 S
C833 H820 0.930 . S
C833 C832 1.376 1_554 S
C833 C834 1.388 . S
C834 H821 0.930 . S
C834 C833 1.388 . S
C834 C835 1.390 . S
C835 C834 1.390 . S
C835 C836 1.394 1_554 S
C835 C841 1.465 . S
C836 C831 1.399 . S
C836 C835 1.394 1_556 S
C836 C837 1.516 . S
C837 C836 1.516 . S
C837 C838 1.502 . S
C837 C839 1.561 . S
C837 C840 1.526 . S
C838 H822 0.959 . S
C838 H823 0.959 . S
C838 H824 0.961 . S
C838 C837 1.502 . S
C839 H825 0.960 . S
C839 H826 0.961 . S
C839 H827 0.959 . S
C839 C837 1.561 . S
C840 C837 1.526 . S
C840 C841 1.396 1_556 S
C840 C845 1.390 . S
C841 C835 1.465 . S
C841 C840 1.396 1_554 S
C841 C842 1.399 . S
C842 H828 0.929 . S
C842 C841 1.399 . S
C842 C843 1.385 . S
C843 H829 0.931 . S
C843 C842 1.385 . S
C843 C844 1.389 . S
C844 C843 1.389 . S
C844 C845 1.387 1_554 S
C845 H830 0.930 . S
C845 C840 1.390 . S
C845 C844 1.387 1_556 S
H846 C858 0.930 . S
H847 C860 0.930 . S
H848 C861 0.930 . S
H849 C865 0.959 . S
H850 C865 0.959 . S
H851 C865 0.961 1_565 S
H852 C866 0.960 1_565 S
H853 C866 0.961 . S
H854 C866 0.959 . S
H855 C869 0.929 . S
H856 C870 0.931 . S
H857 C872 0.930 . S
C858 H846 0.930 . S
C858 C859 1.399 . S
C858 C863 1.399 . S
C859 C858 1.399 . S
C859 C860 1.376 1_554 S
C860 H847 0.930 . S
C860 C859 1.376 1_556 S
C860 C861 1.388 . S
C861 H848 0.930 . S
C861 C860 1.388 . S
C861 C862 1.390 . S
C862 C861 1.390 . S
C862 C863 1.394 1_556 S
C862 C868 1.465 1_565 S
C863 C858 1.399 . S
C863 C862 1.394 1_554 S
C863 C864 1.516 1_565 S
C864 C863 1.516 1_545 S
C864 C865 1.502 . S
C864 C866 1.561 . S
C864 C867 1.526 . S
C865 H849 0.959 . S
C865 H850 0.959 . S
C865 H851 0.961 1_545 S
C865 C864 1.502 . S
C866 H852 0.960 1_545 S
C866 H853 0.961 . S
C866 H854 0.959 . S
C866 C864 1.561 . S
C867 C864 1.526 . S
C867 C868 1.396 1_554 S
C867 C872 1.390 . S
C868 C862 1.465 1_545 S
C868 C867 1.396 1_556 S
C868 C869 1.399 . S
C869 H855 0.929 . S
C869 C868 1.399 . S
C869 C870 1.385 . S
C870 H856 0.931 . S
C870 C869 1.385 . S
C870 C871 1.389 . S
C871 C870 1.389 . S
C871 C872 1.387 1_556 S
C872 H857 0.930 . S
C872 C867 1.390 . S
C872 C871 1.387 1_554 S
H873 C885 0.930 . S
H874 C887 0.930 . S
H875 C888 0.930 . S
H876 C892 0.959 . S
H877 C892 0.959 . S
H878 C892 0.961 1_655 S
H879 C893 0.960 1_655 S
H880 C893 0.961 . S
H881 C893 0.959 . S
H882 C896 0.929 . S
H883 C897 0.931 . S
H884 C899 0.930 . S
C885 H873 0.930 . S
C885 C886 1.399 . S
C885 C890 1.399 . S
C886 C885 1.399 . S
C886 C887 1.376 1_556 S
C887 H874 0.930 . S
C887 C886 1.376 1_554 S
C887 C888 1.388 . S
C888 H875 0.930 . S
C888 C887 1.388 . S
C888 C889 1.390 . S
C889 C888 1.390 . S
C889 C890 1.394 1_554 S
C889 C895 1.465 1_655 S
C890 C885 1.399 . S
C890 C889 1.394 1_556 S
C890 C891 1.516 1_655 S
C891 C890 1.516 1_455 S
C891 C892 1.502 . S
C891 C893 1.561 . S
C891 C894 1.526 . S
C892 H876 0.959 . S
C892 H877 0.959 . S
C892 H878 0.961 1_455 S
C892 C891 1.502 . S
C893 H879 0.960 1_455 S
C893 H880 0.961 . S
C893 H881 0.959 . S
C893 C891 1.561 . S
C894 C891 1.526 . S
C894 C895 1.396 1_556 S
C894 C899 1.390 . S
C895 C889 1.465 1_455 S
C895 C894 1.396 1_554 S
C895 C896 1.399 . S
C896 H882 0.929 . S
C896 C895 1.399 . S
C896 C897 1.385 . S
C897 H883 0.931 . S
C897 C896 1.385 . S
C897 C898 1.389 . S
C898 C897 1.389 . S
C898 C899 1.387 1_554 S
C899 H884 0.930 . S
C899 C894 1.390 . S
C899 C898 1.387 1_556 S
H900 C912 0.930 . S
H901 C914 0.930 . S
H902 C915 0.930 . S
H903 C919 0.959 . S
H904 C919 0.959 . S
H905 C919 0.961 . S
H906 C920 0.960 . S
H907 C920 0.961 . S
H908 C920 0.959 . S
H909 C923 0.929 . S
H910 C924 0.931 . S
H911 C926 0.930 . S
C912 H900 0.930 . S
C912 C913 1.399 . S
C912 C917 1.399 . S
C913 C912 1.399 . S
C913 C914 1.376 . S
C914 H901 0.930 . S
C914 C913 1.376 . S
C914 C915 1.388 . S
C915 H902 0.930 . S
C915 C914 1.388 . S
C915 C916 1.390 . S
C916 C915 1.390 . S
C916 C917 1.394 . S
C916 C922 1.465 . S
C917 C912 1.399 . S
C917 C916 1.394 . S
C917 C918 1.516 . S
C918 C917 1.516 . S
C918 C919 1.502 . S
C918 C920 1.561 . S
C918 C921 1.526 . S
C919 H903 0.959 . S
C919 H904 0.959 . S
C919 H905 0.961 . S
C919 C918 1.502 . S
C920 H906 0.960 . S
C920 H907 0.961 . S
C920 H908 0.959 . S
C920 C918 1.561 . S
C921 C918 1.526 . S
C921 C922 1.396 . S
C921 C926 1.390 . S
C922 C916 1.465 . S
C922 C921 1.396 . S
C922 C923 1.399 . S
C923 H909 0.929 . S
C923 C922 1.399 . S
C923 C924 1.385 . S
C924 H910 0.931 . S
C924 C923 1.385 . S
C924 C925 1.389 . S
C925 C924 1.389 . S
C925 C926 1.387 . S
C926 H911 0.930 . S
C926 C921 1.390 . S
C926 C925 1.387 . S
H927 C939 0.930 . S
H928 C941 0.930 . S
H929 C942 0.930 . S
H930 C946 0.959 . S
H931 C946 0.959 . S
H932 C946 0.961 . S
H933 C947 0.960 . S
H934 C947 0.961 . S
H935 C947 0.959 . S
H936 C950 0.929 . S
H937 C951 0.931 . S
H938 C953 0.930 . S
C939 H927 0.930 . S
C939 C940 1.399 . S
C939 C944 1.399 . S
C940 C939 1.399 . S
C940 C941 1.376 . S
C941 H928 0.930 . S
C941 C940 1.376 . S
C941 C942 1.388 . S
C942 H929 0.930 . S
C942 C941 1.388 . S
C942 C943 1.390 . S
C943 C942 1.390 . S
C943 C944 1.394 . S
C943 C949 1.465 . S
C944 C939 1.399 . S
C944 C943 1.394 . S
C944 C945 1.516 . S
C945 C944 1.516 . S
C945 C946 1.502 . S
C945 C947 1.561 . S
C945 C948 1.526 . S
C946 H930 0.959 . S
C946 H931 0.959 . S
C946 H932 0.961 . S
C946 C945 1.502 . S
C947 H933 0.960 . S
C947 H934 0.961 . S
C947 H935 0.959 . S
C947 C945 1.561 . S
C948 C945 1.526 . S
C948 C949 1.396 . S
C948 C953 1.390 . S
C949 C943 1.465 . S
C949 C948 1.396 . S
C949 C950 1.399 . S
C950 H936 0.929 . S
C950 C949 1.399 . S
C950 C951 1.385 . S
C951 H937 0.931 . S
C951 C950 1.385 . S
C951 C952 1.389 . S
C952 C951 1.389 . S
C952 C953 1.387 . S
C953 H938 0.930 . S
C953 C948 1.390 . S
C953 C952 1.387 . S
H954 C966 0.930 . S
H955 C968 0.930 . S
H956 C969 0.930 . S
H957 C973 0.959 . S
H958 C973 0.959 . S
H959 C973 0.961 . S
H960 C974 0.960 . S
H961 C974 0.961 . S
H962 C974 0.959 . S
H963 C977 0.929 . S
H964 C978 0.931 . S
H965 C980 0.930 . S
C966 H954 0.930 . S
C966 C967 1.399 . S
C966 C971 1.399 . S
C967 C966 1.399 . S
C967 C968 1.376 . S
C968 H955 0.930 . S
C968 C967 1.376 . S
C968 C969 1.388 . S
C969 H956 0.930 . S
C969 C968 1.388 . S
C969 C970 1.390 . S
C970 C969 1.390 . S
C970 C971 1.394 . S
C970 C976 1.465 . S
C971 C966 1.399 . S
C971 C970 1.394 . S
C971 C972 1.516 . S
C972 C971 1.516 . S
C972 C973 1.502 . S
C972 C974 1.561 . S
C972 C975 1.526 . S
C973 H957 0.959 . S
C973 H958 0.959 . S
C973 H959 0.961 . S
C973 C972 1.502 . S
C974 H960 0.960 . S
C974 H961 0.961 . S
C974 H962 0.959 . S
C974 C972 1.561 . S
C975 C972 1.526 . S
C975 C976 1.396 . S
C975 C980 1.390 . S
C976 C970 1.465 . S
C976 C975 1.396 . S
C976 C977 1.399 . S
C977 H963 0.929 . S
C977 C976 1.399 . S
C977 C978 1.385 . S
C978 H964 0.931 . S
C978 C977 1.385 . S
C978 C979 1.389 . S
C979 C978 1.389 . S
C979 C980 1.387 . S
C980 H965 0.930 . S
C980 C975 1.390 . S
C980 C979 1.387 . S
H981 C993 0.930 . S
H982 C995 0.930 . S
H983 C996 0.930 . S
H984 C1000 0.959 . S
H985 C1000 0.959 . S
H986 C1000 0.961 . S
H987 C1001 0.960 . S
H988 C1001 0.961 . S
H989 C1001 0.959 . S
H990 C1004 0.929 . S
H991 C1005 0.931 . S
H992 C1007 0.930 . S
C993 H981 0.930 . S
C993 C994 1.399 . S
C993 C998 1.399 . S
C994 C993 1.399 . S
C994 C995 1.376 . S
C995 H982 0.930 . S
C995 C994 1.376 . S
C995 C996 1.388 . S
C996 H983 0.930 . S
C996 C995 1.388 . S
C996 C997 1.390 . S
C997 C996 1.390 . S
C997 C998 1.394 . S
C997 C1003 1.465 . S
C998 C993 1.399 . S
C998 C997 1.394 . S
C998 C999 1.516 . S
C999 C998 1.516 . S
C999 C1000 1.502 . S
C999 C1001 1.561 . S
C999 C1002 1.526 . S
C1000 H984 0.959 . S
C1000 H985 0.959 . S
C1000 H986 0.961 . S
C1000 C999 1.502 . S
C1001 H987 0.960 . S
C1001 H988 0.961 . S
C1001 H989 0.959 . S
C1001 C999 1.561 . S
C1002 C999 1.526 . S
C1002 C1003 1.396 . S
C1002 C1007 1.390 . S
C1003 C997 1.465 . S
C1003 C1002 1.396 . S
C1003 C1004 1.399 . S
C1004 H990 0.929 . S
C1004 C1003 1.399 . S
C1004 C1005 1.385 . S
C1005 H991 0.931 . S
C1005 C1004 1.385 . S
C1005 C1006 1.389 . S
C1006 C1005 1.389 . S
C1006 C1007 1.387 . S
C1007 H992 0.930 . S
C1007 C1002 1.390 . S
C1007 C1006 1.387 . S
H1008 C1020 0.930 . S
H1009 C1022 0.930 . S
H1010 C1023 0.930 . S
H1011 C1027 0.959 . S
H1012 C1027 0.959 . S
H1013 C1027 0.961 . S
H1014 C1028 0.960 . S
H1015 C1028 0.961 . S
H1016 C1028 0.959 . S
H1017 C1031 0.929 . S
H1018 C1032 0.931 . S
H1019 C1034 0.930 . S
C1020 H1008 0.930 . S
C1020 C1021 1.399 . S
C1020 C1025 1.399 . S
C1021 C1020 1.399 . S
C1021 C1022 1.376 . S
C1022 H1009 0.930 . S
C1022 C1021 1.376 . S
C1022 C1023 1.388 . S
C1023 H1010 0.930 . S
C1023 C1022 1.388 . S
C1023 C1024 1.390 . S
C1024 C1023 1.390 . S
C1024 C1025 1.394 . S
C1024 C1030 1.465 . S
C1025 C1020 1.399 . S
C1025 C1024 1.394 . S
C1025 C1026 1.516 . S
C1026 C1025 1.516 . S
C1026 C1027 1.502 . S
C1026 C1028 1.561 . S
C1026 C1029 1.526 . S
C1027 H1011 0.959 . S
C1027 H1012 0.959 . S
C1027 H1013 0.961 . S
C1027 C1026 1.502 . S
C1028 H1014 0.960 . S
C1028 H1015 0.961 . S
C1028 H1016 0.959 . S
C1028 C1026 1.561 . S
C1029 C1026 1.526 . S
C1029 C1030 1.396 . S
C1029 C1034 1.390 . S
C1030 C1024 1.465 . S
C1030 C1029 1.396 . S
C1030 C1031 1.399 . S
C1031 H1017 0.929 . S
C1031 C1030 1.399 . S
C1031 C1032 1.385 . S
C1032 H1018 0.931 . S
C1032 C1031 1.385 . S
C1032 C1033 1.389 . S
C1033 C1032 1.389 . S
C1033 C1034 1.387 . S
C1034 H1019 0.930 . S
C1034 C1029 1.390 . S
C1034 C1033 1.387 . S
H1035 C1047 0.930 . S
H1036 C1049 0.930 . S
H1037 C1050 0.930 . S
H1038 C1054 0.959 . S
H1039 C1054 0.959 . S
H1040 C1054 0.961 . S
H1041 C1055 0.960 . S
H1042 C1055 0.961 . S
H1043 C1055 0.959 . S
H1044 C1058 0.929 . S
H1045 C1059 0.931 . S
H1046 C1061 0.930 . S
C1047 H1035 0.930 . S
C1047 C1048 1.399 . S
C1047 C1052 1.399 . S
C1048 C1047 1.399 . S
C1048 C1049 1.376 . S
C1049 H1036 0.930 . S
C1049 C1048 1.376 . S
C1049 C1050 1.388 . S
C1050 H1037 0.930 . S
C1050 C1049 1.388 . S
C1050 C1051 1.390 . S
C1051 C1050 1.390 . S
C1051 C1052 1.394 . S
C1051 C1057 1.465 . S
C1052 C1047 1.399 . S
C1052 C1051 1.394 . S
C1052 C1053 1.516 . S
C1053 C1052 1.516 . S
C1053 C1054 1.502 . S
C1053 C1055 1.561 . S
C1053 C1056 1.526 . S
C1054 H1038 0.959 . S
C1054 H1039 0.959 . S
C1054 H1040 0.961 . S
C1054 C1053 1.502 . S
C1055 H1041 0.960 . S
C1055 H1042 0.961 . S
C1055 H1043 0.959 . S
C1055 C1053 1.561 . S
C1056 C1053 1.526 . S
C1056 C1057 1.396 . S
C1056 C1061 1.390 . S
C1057 C1051 1.465 . S
C1057 C1056 1.396 . S
C1057 C1058 1.399 . S
C1058 H1044 0.929 . S
C1058 C1057 1.399 . S
C1058 C1059 1.385 . S
C1059 H1045 0.931 . S
C1059 C1058 1.385 . S
C1059 C1060 1.389 . S
C1060 C1059 1.389 . S
C1060 C1061 1.387 . S
C1061 H1046 0.930 . S
C1061 C1056 1.390 . S
C1061 C1060 1.387 . S
H1062 C1074 0.930 . S
H1063 C1076 0.930 . S
H1064 C1077 0.930 . S
H1065 C1081 0.959 . S
H1066 C1081 0.959 . S
H1067 C1081 0.961 . S
H1068 C1082 0.960 . S
H1069 C1082 0.961 . S
H1070 C1082 0.959 . S
H1071 C1085 0.929 . S
H1072 C1086 0.931 . S
H1073 C1088 0.930 . S
C1074 H1062 0.930 . S
C1074 C1075 1.399 . S
C1074 C1079 1.399 . S
C1075 C1074 1.399 . S
C1075 C1076 1.376 . S
C1076 H1063 0.930 . S
C1076 C1075 1.376 . S
C1076 C1077 1.388 . S
C1077 H1064 0.930 . S
C1077 C1076 1.388 . S
C1077 C1078 1.390 . S
C1078 C1077 1.390 . S
C1078 C1079 1.394 . S
C1078 C1084 1.465 . S
C1079 C1074 1.399 . S
C1079 C1078 1.394 . S
C1079 C1080 1.516 . S
C1080 C1079 1.516 . S
C1080 C1081 1.502 . S
C1080 C1082 1.561 . S
C1080 C1083 1.526 . S
C1081 H1065 0.959 . S
C1081 H1066 0.959 . S
C1081 H1067 0.961 . S
C1081 C1080 1.502 . S
C1082 H1068 0.960 . S
C1082 H1069 0.961 . S
C1082 H1070 0.959 . S
C1082 C1080 1.561 . S
C1083 C1080 1.526 . S
C1083 C1084 1.396 . S
C1083 C1088 1.390 . S
C1084 C1078 1.465 . S
C1084 C1083 1.396 . S
C1084 C1085 1.399 . S
C1085 H1071 0.929 . S
C1085 C1084 1.399 . S
C1085 C1086 1.385 . S
C1086 H1072 0.931 . S
C1086 C1085 1.385 . S
C1086 C1087 1.389 . S
C1087 C1086 1.389 . S
C1087 C1088 1.387 . S
C1088 H1073 0.930 . S
C1088 C1083 1.390 . S
C1088 C1087 1.387 . S
H1089 C1101 0.930 . S
H1090 C1103 0.930 . S
H1091 C1104 0.930 . S
H1092 C1108 0.959 . S
H1093 C1108 0.959 . S
H1094 C1108 0.961 . S
H1095 C1109 0.960 . S
H1096 C1109 0.961 . S
H1097 C1109 0.959 . S
H1098 C1112 0.929 . S
H1099 C1113 0.931 . S
H1100 C1115 0.930 . S
C1101 H1089 0.930 . S
C1101 C1102 1.399 . S
C1101 C1106 1.399 . S
C1102 C1101 1.399 . S
C1102 C1103 1.376 . S
C1103 H1090 0.930 . S
C1103 C1102 1.376 . S
C1103 C1104 1.388 . S
C1104 H1091 0.930 . S
C1104 C1103 1.388 . S
C1104 C1105 1.390 . S
C1105 C1104 1.390 . S
C1105 C1106 1.394 . S
C1105 C1111 1.465 . S
C1106 C1101 1.399 . S
C1106 C1105 1.394 . S
C1106 C1107 1.516 . S
C1107 C1106 1.516 . S
C1107 C1108 1.502 . S
C1107 C1109 1.561 . S
C1107 C1110 1.526 . S
C1108 H1092 0.959 . S
C1108 H1093 0.959 . S
C1108 H1094 0.961 . S
C1108 C1107 1.502 . S
C1109 H1095 0.960 . S
C1109 H1096 0.961 . S
C1109 H1097 0.959 . S
C1109 C1107 1.561 . S
C1110 C1107 1.526 . S
C1110 C1111 1.396 . S
C1110 C1115 1.390 . S
C1111 C1105 1.465 . S
C1111 C1110 1.396 . S
C1111 C1112 1.399 . S
C1112 H1098 0.929 . S
C1112 C1111 1.399 . S
C1112 C1113 1.385 . S
C1113 H1099 0.931 . S
C1113 C1112 1.385 . S
C1113 C1114 1.389 . S
C1114 C1113 1.389 . S
C1114 C1115 1.387 . S
C1115 H1100 0.930 . S
C1115 C1110 1.390 . S
C1115 C1114 1.387 . S
H1116 C1128 0.930 . S
H1117 C1130 0.930 . S
H1118 C1131 0.930 . S
H1119 C1135 0.959 . S
H1120 C1135 0.959 . S
H1121 C1135 0.961 . S
H1122 C1136 0.960 . S
H1123 C1136 0.961 . S
H1124 C1136 0.959 . S
H1125 C1139 0.929 . S
H1126 C1140 0.931 . S
H1127 C1142 0.930 . S
C1128 H1116 0.930 . S
C1128 C1129 1.399 . S
C1128 C1133 1.399 . S
C1129 C1128 1.399 . S
C1129 C1130 1.376 . S
C1130 H1117 0.930 . S
C1130 C1129 1.376 . S
C1130 C1131 1.388 . S
C1131 H1118 0.930 . S
C1131 C1130 1.388 . S
C1131 C1132 1.390 . S
C1132 C1131 1.390 . S
C1132 C1133 1.394 . S
C1132 C1138 1.465 . S
C1133 C1128 1.399 . S
C1133 C1132 1.394 . S
C1133 C1134 1.516 . S
C1134 C1133 1.516 . S
C1134 C1135 1.502 . S
C1134 C1136 1.561 . S
C1134 C1137 1.526 . S
C1135 H1119 0.959 . S
C1135 H1120 0.959 . S
C1135 H1121 0.961 . S
C1135 C1134 1.502 . S
C1136 H1122 0.960 . S
C1136 H1123 0.961 . S
C1136 H1124 0.959 . S
C1136 C1134 1.561 . S
C1137 C1134 1.526 . S
C1137 C1138 1.396 . S
C1137 C1142 1.390 . S
C1138 C1132 1.465 . S
C1138 C1137 1.396 . S
C1138 C1139 1.399 . S
C1139 H1125 0.929 . S
C1139 C1138 1.399 . S
C1139 C1140 1.385 . S
C1140 H1126 0.931 . S
C1140 C1139 1.385 . S
C1140 C1141 1.389 . S
C1141 C1140 1.389 . S
C1141 C1142 1.387 . S
C1142 H1127 0.930 . S
C1142 C1137 1.390 . S
C1142 C1141 1.387 . S
H1143 C1155 0.930 . S
H1144 C1157 0.930 . S
H1145 C1158 0.930 . S
H1146 C1162 0.959 . S
H1147 C1162 0.959 . S
H1148 C1162 0.961 . S
H1149 C1163 0.960 . S
H1150 C1163 0.961 . S
H1151 C1163 0.959 . S
H1152 C1166 0.929 . S
H1153 C1167 0.931 . S
H1154 C1169 0.930 . S
C1155 H1143 0.930 . S
C1155 C1156 1.399 . S
C1155 C1160 1.399 . S
C1156 C1155 1.399 . S
C1156 C1157 1.376 . S
C1157 H1144 0.930 . S
C1157 C1156 1.376 . S
C1157 C1158 1.388 . S
C1158 H1145 0.930 . S
C1158 C1157 1.388 . S
C1158 C1159 1.390 . S
C1159 C1158 1.390 . S
C1159 C1160 1.394 . S
C1159 C1165 1.465 . S
C1160 C1155 1.399 . S
C1160 C1159 1.394 . S
C1160 C1161 1.516 . S
C1161 C1160 1.516 . S
C1161 C1162 1.502 . S
C1161 C1163 1.561 . S
C1161 C1164 1.526 . S
C1162 H1146 0.959 . S
C1162 H1147 0.959 . S
C1162 H1148 0.961 . S
C1162 C1161 1.502 . S
C1163 H1149 0.960 . S
C1163 H1150 0.961 . S
C1163 H1151 0.959 . S
C1163 C1161 1.561 . S
C1164 C1161 1.526 . S
C1164 C1165 1.396 . S
C1164 C1169 1.390 . S
C1165 C1159 1.465 . S
C1165 C1164 1.396 . S
C1165 C1166 1.399 . S
C1166 H1152 0.929 . S
C1166 C1165 1.399 . S
C1166 C1167 1.385 . S
C1167 H1153 0.931 . S
C1167 C1166 1.385 . S
C1167 C1168 1.389 . S
C1168 C1167 1.389 . S
C1168 C1169 1.387 . S
C1169 H1154 0.930 . S
C1169 C1164 1.390 . S
C1169 C1168 1.387 . S
H1170 C1182 0.930 . S
H1171 C1184 0.930 . S
H1172 C1185 0.930 . S
H1173 C1189 0.959 . S
H1174 C1189 0.959 . S
H1175 C1189 0.961 . S
H1176 C1190 0.960 . S
H1177 C1190 0.961 . S
H1178 C1190 0.959 . S
H1179 C1193 0.929 . S
H1180 C1194 0.931 . S
H1181 C1196 0.930 . S
C1182 H1170 0.930 . S
C1182 C1183 1.399 . S
C1182 C1187 1.399 . S
C1183 C1182 1.399 . S
C1183 C1184 1.376 . S
C1184 H1171 0.930 . S
C1184 C1183 1.376 . S
C1184 C1185 1.388 . S
C1185 H1172 0.930 . S
C1185 C1184 1.388 . S
C1185 C1186 1.390 . S
C1186 C1185 1.390 . S
C1186 C1187 1.394 . S
C1186 C1192 1.465 . S
C1187 C1182 1.399 . S
C1187 C1186 1.394 . S
C1187 C1188 1.516 . S
C1188 C1187 1.516 . S
C1188 C1189 1.502 . S
C1188 C1190 1.561 . S
C1188 C1191 1.526 . S
C1189 H1173 0.959 . S
C1189 H1174 0.959 . S
C1189 H1175 0.961 . S
C1189 C1188 1.502 . S
C1190 H1176 0.960 . S
C1190 H1177 0.961 . S
C1190 H1178 0.959 . S
C1190 C1188 1.561 . S
C1191 C1188 1.526 . S
C1191 C1192 1.396 . S
C1191 C1196 1.390 . S
C1192 C1186 1.465 . S
C1192 C1191 1.396 . S
C1192 C1193 1.399 . S
C1193 H1179 0.929 . S
C1193 C1192 1.399 . S
C1193 C1194 1.385 . S
C1194 H1180 0.931 . S
C1194 C1193 1.385 . S
C1194 C1195 1.389 . S
C1195 C1194 1.389 . S
C1195 C1196 1.387 . S
C1196 H1181 0.930 . S
C1196 C1191 1.390 . S
C1196 C1195 1.387 . S
H1197 C1209 0.930 . S
H1198 C1211 0.930 . S
H1199 C1212 0.930 . S
H1200 C1216 0.959 . S
H1201 C1216 0.959 . S
H1202 C1216 0.961 . S
H1203 C1217 0.960 . S
H1204 C1217 0.961 . S
H1205 C1217 0.959 . S
H1206 C1220 0.929 . S
H1207 C1221 0.931 . S
H1208 C1223 0.930 . S
C1209 H1197 0.930 . S
C1209 C1210 1.399 . S
C1209 C1214 1.399 . S
C1210 C1209 1.399 . S
C1210 C1211 1.376 . S
C1211 H1198 0.930 . S
C1211 C1210 1.376 . S
C1211 C1212 1.388 . S
C1212 H1199 0.930 . S
C1212 C1211 1.388 . S
C1212 C1213 1.390 . S
C1213 C1212 1.390 . S
C1213 C1214 1.394 . S
C1213 C1219 1.465 . S
C1214 C1209 1.399 . S
C1214 C1213 1.394 . S
C1214 C1215 1.516 . S
C1215 C1214 1.516 . S
C1215 C1216 1.502 . S
C1215 C1217 1.561 . S
C1215 C1218 1.526 . S
C1216 H1200 0.959 . S
C1216 H1201 0.959 . S
C1216 H1202 0.961 . S
C1216 C1215 1.502 . S
C1217 H1203 0.960 . S
C1217 H1204 0.961 . S
C1217 H1205 0.959 . S
C1217 C1215 1.561 . S
C1218 C1215 1.526 . S
C1218 C1219 1.396 . S
C1218 C1223 1.390 . S
C1219 C1213 1.465 . S
C1219 C1218 1.396 . S
C1219 C1220 1.399 . S
C1220 H1206 0.929 . S
C1220 C1219 1.399 . S
C1220 C1221 1.385 . S
C1221 H1207 0.931 . S
C1221 C1220 1.385 . S
C1221 C1222 1.389 . S
C1222 C1221 1.389 . S
C1222 C1223 1.387 . S
C1223 H1208 0.930 . S
C1223 C1218 1.390 . S
C1223 C1222 1.387 . S
C265 C249 1.667 . S
C277 C11 1.667 . S
C292 C221 1.651 . S
C304 C25 1.652 . S
C319 C235 1.664 . S
C331 C39 1.663 . S
C346 C109 1.663 . S
C358 C53 1.662 . S
C373 C123 1.647 . S
C385 C67 1.647 . S
C400 C81 1.668 . S
C412 C95 1.668 . S
C427 C137 1.648 . S
C439 C193 1.648 . S
C454 C151 1.653 . S
C466 C207 1.654 . S
C481 C165 1.665 . S
C493 C179 1.666 . S
C508 C8 1.055 . S
C520 C246 1.123 . S
C535 C218 1.079 . S
C547 C22 1.147 . S
C562 C36 1.076 . S
C574 C232 1.147 . S
C589 C106 1.129 . S
C601 C50 1.125 . S
C616 C64 1.082 . S
C628 C120 1.073 . S
C643 C78 1.055 . S
C655 C92 1.116 . S
C670 C134 1.091 . S
C682 C190 1.147 . S
C697 C204 1.063 . S
C709 C148 1.094 . S
C724 C176 1.145 . S
C736 C162 1.101 . S
C751 C13 1.333 . S
C763 C55 1.427 . S
C778 C69 1.335 . S
C790 C27 1.420 . S
C805 C83 1.449 . S
C817 C41 1.353 . S
C832 C77 1.465 . S
C844 C21 1.478 . S
C859 C35 1.459 . S
C871 C49 1.479 . S
C886 C63 1.459 . S
C898 C7 1.479 . S
C913 C97 1.349 . S
C925 C139 1.448 . S
C940 C153 1.407 . S
C952 C111 1.418 . S
C967 C167 1.332 . S
C979 C125 1.436 . S
C994 C161 1.477 . S
C1006 C105 1.470 . S
C1021 C119 1.458 . S
C1033 C133 1.442 . S
C1048 C147 1.454 . S
C1060 C91 1.443 . S
C1075 C223 1.431 . S
C1087 C181 1.391 . S
C1102 C237 1.336 . S
C1114 C195 1.419 . S
C1129 C209 1.368 . S
C1141 C251 1.444 . S
C1156 C245 1.452 . S
C1168 C189 1.444 . S
C1183 C203 1.444 . S
C1195 C217 1.470 . S
C1210 C231 1.444 . S
C1222 C175 1.469 . S
