# Generated by pormake.
# Topology acs-a, (4)-cn, num edge types: 1
# Building blocks:
#     Node 0, Type 0, BuildingBlock: GALJAG_clean_sbu_0, # of connection points: 4
#     Node 1, Type 0, BuildingBlock: GALJAG_clean_sbu_0, # of connection points: 4
#     Node 2, Type 0, BuildingBlock: GALJAG_clean_sbu_0, # of connection points: 4
#     Node 3, Type 0, BuildingBlock: GALJAG_clean_sbu_0, # of connection points: 4
#     Node 4, Type 0, BuildingBlock: GALJAG_clean_sbu_0, # of connection points: 4
#     Node 5, Type 0, BuildingBlock: GALJAG_clean_sbu_0, # of connection points: 4
#     Node 6, Type 0, BuildingBlock: GALJAG_clean_sbu_0, # of connection points: 4
#     Node 7, Type 0, BuildingBlock: GALJAG_clean_sbu_0, # of connection points: 4
#     Node 8, Type 0, BuildingBlock: GALJAG_clean_sbu_0, # of connection points: 4
#     Node 9, Type 0, BuildingBlock: GALJAG_clean_sbu_0, # of connection points: 4
#     Node 10, Type 0, BuildingBlock: GALJAG_clean_sbu_0, # of connection points: 4
#     Node 11, Type 0, BuildingBlock: GALJAG_clean_sbu_0, # of connection points: 4
#     Edge 12, Type (0, 0), BuildingBlock: EYOCIG_clean_linker_4, # of connection points: 2
#     Edge 13, Type (0, 0), BuildingBlock: EYOCIG_clean_linker_4, # of connection points: 2
#     Edge 14, Type (0, 0), BuildingBlock: EYOCIG_clean_linker_4, # of connection points: 2
#     Edge 15, Type (0, 0), BuildingBlock: EYOCIG_clean_linker_4, # of connection points: 2
#     Edge 16, Type (0, 0), BuildingBlock: EYOCIG_clean_linker_4, # of connection points: 2
#     Edge 17, Type (0, 0), BuildingBlock: EYOCIG_clean_linker_4, # of connection points: 2
#     Edge 18, Type (0, 0), BuildingBlock: EYOCIG_clean_linker_4, # of connection points: 2
#     Edge 19, Type (0, 0), BuildingBlock: EYOCIG_clean_linker_4, # of connection points: 2
#     Edge 20, Type (0, 0), BuildingBlock: EYOCIG_clean_linker_4, # of connection points: 2
#     Edge 21, Type (0, 0), BuildingBlock: EYOCIG_clean_linker_4, # of connection points: 2
#     Edge 22, Type (0, 0), BuildingBlock: EYOCIG_clean_linker_4, # of connection points: 2
#     Edge 23, Type (0, 0), BuildingBlock: EYOCIG_clean_linker_4, # of connection points: 2
#     Edge 24, Type (0, 0), BuildingBlock: EYOCIG_clean_linker_4, # of connection points: 2
#     Edge 25, Type (0, 0), BuildingBlock: EYOCIG_clean_linker_4, # of connection points: 2
#     Edge 26, Type (0, 0), BuildingBlock: EYOCIG_clean_linker_4, # of connection points: 2
#     Edge 27, Type (0, 0), BuildingBlock: EYOCIG_clean_linker_4, # of connection points: 2
#     Edge 28, Type (0, 0), BuildingBlock: EYOCIG_clean_linker_4, # of connection points: 2
#     Edge 29, Type (0, 0), BuildingBlock: EYOCIG_clean_linker_4, # of connection points: 2
#     Edge 30, Type (0, 0), BuildingBlock: EYOCIG_clean_linker_4, # of connection points: 2
#     Edge 31, Type (0, 0), BuildingBlock: EYOCIG_clean_linker_4, # of connection points: 2
#     Edge 32, Type (0, 0), BuildingBlock: EYOCIG_clean_linker_4, # of connection points: 2
#     Edge 33, Type (0, 0), BuildingBlock: EYOCIG_clean_linker_4, # of connection points: 2
#     Edge 34, Type (0, 0), BuildingBlock: EYOCIG_clean_linker_4, # of connection points: 2
#     Edge 35, Type (0, 0), BuildingBlock: EYOCIG_clean_linker_4, # of connection points: 2
# Relax obj value: 0.468
# Max RMSD: 0.203
# Mean RMSD: 0.201
data_MOF--net-acs-a--node1-GALJAG_clean_sbu_0--edge1-EYOCIG_clean_linker_4
_symmetry_space_group_name_H-M    P1
_symmetry_Int_Tables_number       1
_symmetry_cell_setting            triclinic
loop_
_symmetry_equiv_pos_as_xyz
'x, y, z'
_cell_length_a     42.712787
_cell_length_b     42.765091
_cell_length_c     23.432031
_cell_angle_alpha  90.028534
_cell_angle_beta   90.068523
_cell_angle_gamma 119.94736
loop_
_atom_site_label
_atom_site_type_symbol
_atom_site_fract_x
_atom_site_fract_y
_atom_site_fract_z
_atom_type_partial_charge
In0 In 0.54669 0.13508 0.00497 0.0
O1 O 0.56695 0.13488 0.09436 0.0
O2 O 0.51064 0.11582 0.0845 0.0
C3 C 0.61376 0.17786 0.96486 0.0
C4 C 0.51952 0.06529 0.97885 0.0
C5 C 0.52059 0.17851 0.97482 0.0
O6 O 0.60604 0.17444 0.0171 0.0
O7 O 0.58795 0.1584 0.9316 0.0
O8 O 0.51432 0.15121 0.94553 0.0
O9 O 0.53857 0.18307 0.01977 0.0
C10 C 0.53632 0.12139 0.11738 0.0
O11 O 0.50148 0.08104 0.97247 0.0
O12 O 0.55211 0.08533 0.99263 0.0
In13 In 0.38763 0.55721 0.49197 0.0
O14 O 0.40714 0.57717 0.58178 0.0
O15 O 0.37006 0.52095 0.5712 0.0
C16 C 0.41283 0.6247 0.45301 0.0
C17 C 0.43038 0.52941 0.46942 0.0
C18 C 0.31833 0.53198 0.46022 0.0
O19 O 0.4077 0.61648 0.50505 0.0
O20 O 0.40689 0.59916 0.41943 0.0
O21 O 0.33969 0.52637 0.43048 0.0
O22 O 0.33131 0.54877 0.50622 0.0
C23 C 0.38988 0.54647 0.60446 0.0
O24 O 0.39664 0.51151 0.46206 0.0
O25 O 0.44285 0.5622 0.48156 0.0
In26 In 0.80665 0.39915 0.00539 0.0
O27 O 0.86117 0.40805 0.97541 0.0
O28 O 0.85621 0.45433 0.99244 0.0
C29 C 0.76276 0.32988 0.97478 0.0
C30 C 0.82 0.40221 0.11786 0.0
C31 C 0.76412 0.42362 0.96472 0.0
O32 O 0.79007 0.3508 0.94548 0.0
O33 O 0.75848 0.34325 0.01997 0.0
O34 O 0.76759 0.41954 0.01707 0.0
O35 O 0.78347 0.41701 0.93166 0.0
C36 C 0.87662 0.44187 0.98071 0.0
O37 O 0.80652 0.41936 0.09477 0.0
O38 O 0.82568 0.38219 0.08502 0.0
In39 In 0.38492 0.81821 0.49249 0.0
O40 O 0.43057 0.87289 0.46278 0.0
O41 O 0.38002 0.8685 0.48339 0.0
C42 C 0.41017 0.77416 0.4614 0.0
C43 C 0.39604 0.83082 0.60488 0.0
C44 C 0.31737 0.77615 0.45308 0.0
O45 O 0.41587 0.80106 0.43152 0.0
O46 O 0.39318 0.77033 0.50714 0.0
O47 O 0.32547 0.77958 0.50522 0.0
O48 O 0.34306 0.79536 0.41955 0.0
C49 C 0.4128 0.88876 0.4711 0.0
O50 O 0.3652 0.81734 0.58243 0.0
O51 O 0.42152 0.83675 0.57142 0.0
In52 In 0.54222 0.39418 0.0048 0.0
O53 O 0.52226 0.37407 0.09423 0.0
O54 O 0.55982 0.43022 0.08433 0.0
C55 C 0.51702 0.32699 0.96472 0.0
C56 C 0.49992 0.42212 0.98072 0.0
C57 C 0.61144 0.41941 0.97377 0.0
O58 O 0.52179 0.33485 0.01693 0.0
O59 O 0.52336 0.35276 0.93149 0.0
O60 O 0.59027 0.42547 0.94434 0.0
O61 O 0.59831 0.40205 0.01921 0.0
C62 C 0.53975 0.40467 0.11724 0.0
O63 O 0.53371 0.43997 0.9743 0.0
O64 O 0.4872 0.38938 0.99327 0.0
In65 In 0.12401 0.55465 0.49228 0.0
O66 O 0.06944 0.546 0.46201 0.0
O67 O 0.07356 0.49969 0.48239 0.0
C68 C 0.16798 0.624 0.46199 0.0
C69 C 0.11102 0.55225 0.60474 0.0
C70 C 0.16625 0.52957 0.45192 0.0
O71 O 0.14097 0.60294 0.43206 0.0
O72 O 0.17195 0.61069 0.50749 0.0
O73 O 0.1632 0.53432 0.50415 0.0
O74 O 0.14659 0.53578 0.41882 0.0
C75 C 0.05341 0.51236 0.46994 0.0
O76 O 0.1243 0.53484 0.58189 0.0
O77 O 0.10552 0.57229 0.57169 0.0
In78 In 0.80687 0.39593 0.51129 0.0
O79 O 0.86148 0.4416 0.54163 0.0
O80 O 0.85747 0.39141 0.51982 0.0
C81 C 0.76308 0.42141 0.54282 0.0
C82 C 0.81949 0.40688 0.39884 0.0
C83 C 0.76488 0.32854 0.55098 0.0
O84 O 0.79016 0.42714 0.57242 0.0
O85 O 0.75892 0.40426 0.49711 0.0
O86 O 0.76758 0.33659 0.4989 0.0
O87 O 0.78472 0.35419 0.58424 0.0
C88 C 0.87757 0.4241 0.53279 0.0
O89 O 0.8063 0.37615 0.42135 0.0
O90 O 0.82507 0.43229 0.43225 0.0
In91 In 0.38789 0.81762 0.99803 0.0
O92 O 0.39682 0.87204 0.0287 0.0
O93 O 0.44309 0.86748 0.00939 0.0
C94 C 0.31856 0.77433 0.02916 0.0
C95 C 0.39064 0.83072 0.88563 0.0
C96 C 0.41295 0.77534 0.03765 0.0
O97 O 0.33996 0.80135 0.05872 0.0
O98 O 0.33155 0.76997 0.98364 0.0
O99 O 0.40766 0.77814 0.98556 0.0
O100 O 0.40709 0.79509 0.07099 0.0
C101 C 0.43059 0.8877 0.02212 0.0
O102 O 0.40774 0.81714 0.90862 0.0
O103 O 0.37079 0.83659 0.91852 0.0
In104 In 0.54649 0.39875 0.51061 0.0
O105 O 0.5009 0.40812 0.54005 0.0
O106 O 0.55146 0.454 0.51899 0.0
C107 C 0.52132 0.3295 0.54152 0.0
C108 C 0.53547 0.4001 0.39817 0.0
C109 C 0.61384 0.42428 0.55101 0.0
O110 O 0.51531 0.3506 0.57124 0.0
O111 O 0.53855 0.34275 0.49603 0.0
O112 O 0.60601 0.41944 0.49878 0.0
O113 O 0.58796 0.4179 0.5841 0.0
C114 C 0.51872 0.44169 0.53137 0.0
O115 O 0.56632 0.41729 0.42062 0.0
O116 O 0.50994 0.38078 0.43166 0.0
In117 In 0.12437 0.55852 0.99802 0.0
O118 O 0.07052 0.51351 0.03126 0.0
O119 O 0.0743 0.56358 0.00907 0.0
C120 C 0.16811 0.53281 0.02861 0.0
C121 C 0.11044 0.54729 0.88569 0.0
C122 C 0.16661 0.62581 0.03784 0.0
O123 O 0.14076 0.52652 0.05778 0.0
O124 O 0.17262 0.5507 0.98367 0.0
O125 O 0.16365 0.6178 0.9857 0.0
O126 O 0.14703 0.60015 0.07108 0.0
C127 C 0.05449 0.5312 0.0238 0.0
O128 O 0.12411 0.57807 0.9082 0.0
O129 O 0.10479 0.52187 0.91906 0.0
In130 In 0.54401 0.13493 0.51069 0.0
O131 O 0.5248 0.13526 0.42064 0.0
O132 O 0.56182 0.11601 0.43187 0.0
C133 C 0.51874 0.17732 0.54943 0.0
C134 C 0.50122 0.06455 0.53337 0.0
C135 C 0.61328 0.17887 0.54238 0.0
O136 O 0.52379 0.17406 0.49741 0.0
O137 O 0.52477 0.15783 0.58311 0.0
O138 O 0.59198 0.15194 0.57209 0.0
O139 O 0.60026 0.18273 0.49646 0.0
C140 C 0.54211 0.12172 0.3983 0.0
O141 O 0.5349 0.08036 0.54138 0.0
O142 O 0.48878 0.08482 0.52053 0.0
In143 In 0.38409 0.55408 0.99774 0.0
O144 O 0.42893 0.54493 0.03152 0.0
O145 O 0.37885 0.49892 0.00836 0.0
C146 C 0.40991 0.62351 0.02796 0.0
C147 C 0.39526 0.55148 0.88544 0.0
C148 C 0.31684 0.52926 0.03773 0.0
O149 O 0.41646 0.60261 0.05708 0.0
O150 O 0.39172 0.60999 0.98324 0.0
O151 O 0.32466 0.53388 0.98553 0.0
O152 O 0.34268 0.53563 0.07099 0.0
C153 C 0.41117 0.51129 0.02363 0.0
O154 O 0.36443 0.53449 0.90783 0.0
O155 O 0.42076 0.57109 0.91892 0.0
C156 C 0.53532 0.10938 0.28773 0.0
C157 C 0.53976 0.1142 0.33841 0.0
C158 C 0.53166 0.1093 0.22797 0.0
C159 C 0.53173 0.11405 0.17733 0.0
C160 C 0.39694 0.54126 0.71505 0.0
C161 C 0.39243 0.54158 0.66439 0.0
C162 C 0.40053 0.54469 0.77483 0.0
C163 C 0.40026 0.5491 0.82552 0.0
C164 C 0.83189 0.40924 0.22854 0.0
C165 C 0.82721 0.40479 0.17786 0.0
C166 C 0.83173 0.41253 0.28832 0.0
C167 C 0.82688 0.41198 0.33896 0.0
C168 C 0.39795 0.84282 0.77513 0.0
C169 C 0.39334 0.83807 0.82573 0.0
C170 C 0.40153 0.84284 0.71544 0.0
C171 C 0.40116 0.83816 0.66477 0.0
C172 C 0.52978 0.40645 0.28761 0.0
C173 C 0.53033 0.40228 0.33828 0.0
C174 C 0.53303 0.40976 0.22786 0.0
C175 C 0.53736 0.40942 0.1772 0.0
C176 C 0.09858 0.54526 0.71525 0.0
C177 C 0.10354 0.54969 0.66463 0.0
C178 C 0.09835 0.54184 0.77504 0.0
C179 C 0.10307 0.54224 0.82574 0.0
C180 C 0.48766 -0.00507 0.99292 0.0
C181 C 0.50217 0.02707 0.98648 0.0
C182 C 0.46909 0.95789 0.0061 0.0
C183 C 0.45147 0.92583 0.01343 0.0
C184 C 0.4683 0.49746 0.49093 0.0
C185 C 0.45084 0.51189 0.48105 0.0
C186 C 0.48661 0.47925 0.50822 0.0
C187 C 0.50108 0.46193 0.51887 0.0
C188 C -0.01597 0.49895 0.00962 0.0
C189 C 0.0162 0.5135 0.01618 0.0
C190 C 0.94692 0.48051 0.99651 0.0
C191 C 0.91479 0.46303 0.98935 0.0
C192 C 0.46346 -0.0052 0.51169 0.0
C193 C 0.48092 0.02662 0.52169 0.0
C194 C 0.4451 0.95835 0.49427 0.0
C195 C 0.43052 0.92659 0.48362 0.0
C196 C 0.44328 0.47291 0.00985 0.0
C197 C 0.4288 0.49061 0.01624 0.0
C198 C 0.46176 0.45428 0.99674 0.0
C199 C 0.47923 0.43963 0.9894 0.0
C200 C 0.94726 0.45679 0.50993 0.0
C201 C 0.91546 0.44211 0.52048 0.0
C202 C -0.01631 0.47511 0.49238 0.0
C203 C 0.0155 0.49237 0.48202 0.0
C204 C 0.50613 0.22956 0.94611 0.0
C205 C 0.51149 0.20493 0.9559 0.0
C206 C 0.5056 0.26221 0.94115 0.0
C207 C 0.51033 0.29235 0.94549 0.0
C208 C 0.25296 0.51848 0.43174 0.0
C209 C 0.28289 0.52339 0.44109 0.0
C210 C 0.21979 0.51826 0.42765 0.0
C211 C 0.19433 0.52298 0.43253 0.0
C212 C 0.71115 0.26466 0.94599 0.0
C213 C 0.73603 0.29451 0.95574 0.0
C214 C 0.67838 0.23157 0.94123 0.0
C215 C 0.64829 0.20606 0.94572 0.0
C216 C 0.42398 0.72247 0.43367 0.0
C217 C 0.41893 0.7474 0.44272 0.0
C218 C 0.42429 0.68963 0.42963 0.0
C219 C 0.41953 0.65946 0.43422 0.0
C220 C 0.67687 0.4335 0.9451 0.0
C221 C 0.6469 0.42828 0.9548 0.0
C222 C 0.71016 0.43417 0.9405 0.0
C223 C 0.73579 0.42974 0.94524 0.0
C224 C 0.2196 0.68946 0.43428 0.0
C225 C 0.19473 0.65951 0.44348 0.0
C226 C 0.2524 0.7226 0.42989 0.0
C227 C 0.2826 0.74802 0.43427 0.0
C228 C 0.71163 0.4355 0.57112 0.0
C229 C 0.73649 0.43034 0.5618 0.0
C230 C 0.67879 0.43586 0.57526 0.0
C231 C 0.64857 0.43103 0.57045 0.0
C232 C 0.25299 0.72339 0.05753 0.0
C233 C 0.28303 0.74801 0.04813 0.0
C234 C 0.21981 0.69068 0.06182 0.0
C235 C 0.19448 0.66051 0.05709 0.0
C236 C 0.50729 0.23088 0.57276 0.0
C237 C 0.51207 0.20546 0.56811 0.0
C238 C 0.50756 0.26402 0.56892 0.0
C239 C 0.51254 0.29398 0.56005 0.0
C240 C 0.21927 0.51836 0.057 0.0
C241 C 0.19455 0.52367 0.04746 0.0
C242 C 0.25201 0.51788 0.06153 0.0
C243 C 0.28219 0.52263 0.05693 0.0
C244 C 0.67862 0.23066 0.5708 0.0
C245 C 0.64871 0.20566 0.56149 0.0
C246 C 0.7117 0.26358 0.57492 0.0
C247 C 0.73703 0.29378 0.57018 0.0
C248 C 0.42436 0.68904 0.05631 0.0
C249 C 0.41906 0.65906 0.04674 0.0
C250 C 0.42477 0.72217 0.06108 0.0
C251 C 0.4199 0.74752 0.05674 0.0
loop_
_geom_bond_atom_site_label_1
_geom_bond_atom_site_label_2
_geom_bond_distance
_geom_bond_site_symmetry_2
_ccdc_geom_bond_type
In0 O1 2.296 . S
In0 O2 2.328 . S
In0 O6 2.266 1_554 S
In0 O7 2.324 1_554 S
In0 O8 2.265 1_554 S
In0 O9 2.326 . S
In0 O11 2.293 1_554 S
In0 O12 2.326 . S
O1 In0 2.296 . S
O1 C10 1.240 . S
O2 In0 2.328 . S
O2 C10 1.252 . S
C3 O6 1.252 . S
C3 O7 1.260 . S
C4 O11 1.240 . S
C4 O12 1.252 1_556 S
C5 O8 1.252 . S
C5 O9 1.260 1_556 S
O6 In0 2.266 1_556 S
O6 C3 1.252 . S
O7 In0 2.324 1_556 S
O7 C3 1.260 . S
O8 In0 2.265 1_556 S
O8 C5 1.252 . S
O9 In0 2.326 . S
O9 C5 1.260 1_554 S
C10 O1 1.240 . S
C10 O2 1.252 . S
O11 In0 2.293 1_556 S
O11 C4 1.240 . S
O12 In0 2.326 . S
O12 C4 1.252 1_554 S
In13 O14 2.294 . S
In13 O15 2.326 . S
In13 O19 2.266 . S
In13 O20 2.326 . S
In13 O21 2.266 . S
In13 O22 2.326 . S
In13 O24 2.294 . S
In13 O25 2.326 . S
O14 In13 2.294 . S
O14 C23 1.240 . S
O15 In13 2.326 . S
O15 C23 1.252 . S
C16 O19 1.252 . S
C16 O20 1.260 . S
C17 O24 1.240 . S
C17 O25 1.252 . S
C18 O21 1.252 . S
C18 O22 1.260 . S
O19 In13 2.266 . S
O19 C16 1.252 . S
O20 In13 2.326 . S
O20 C16 1.260 . S
O21 In13 2.266 . S
O21 C18 1.252 . S
O22 In13 2.326 . S
O22 C18 1.260 . S
C23 O14 1.240 . S
C23 O15 1.252 . S
O24 In13 2.294 . S
O24 C17 1.240 . S
O25 In13 2.326 . S
O25 C17 1.252 . S
In26 O27 2.293 1_554 S
In26 O28 2.326 . S
In26 O32 2.265 1_554 S
In26 O33 2.326 . S
In26 O34 2.266 1_554 S
In26 O35 2.324 1_554 S
In26 O37 2.296 . S
In26 O38 2.328 . S
O27 In26 2.293 1_556 S
O27 C36 1.240 . S
O28 In26 2.326 . S
O28 C36 1.252 1_554 S
C29 O32 1.252 . S
C29 O33 1.260 1_556 S
C30 O37 1.240 . S
C30 O38 1.252 . S
C31 O34 1.252 . S
C31 O35 1.260 . S
O32 In26 2.265 1_556 S
O32 C29 1.252 . S
O33 In26 2.326 . S
O33 C29 1.260 1_554 S
O34 In26 2.266 1_556 S
O34 C31 1.252 . S
O35 In26 2.324 1_556 S
O35 C31 1.260 . S
C36 O27 1.240 . S
C36 O28 1.252 1_556 S
O37 In26 2.296 . S
O37 C30 1.240 . S
O38 In26 2.328 . S
O38 C30 1.252 . S
In39 O40 2.294 . S
In39 O41 2.326 . S
In39 O45 2.266 . S
In39 O46 2.326 . S
In39 O47 2.266 . S
In39 O48 2.326 . S
In39 O50 2.294 . S
In39 O51 2.326 . S
O40 In39 2.294 . S
O40 C49 1.240 . S
O41 In39 2.326 . S
O41 C49 1.252 . S
C42 O45 1.252 . S
C42 O46 1.260 . S
C43 O50 1.240 . S
C43 O51 1.252 . S
C44 O47 1.252 . S
C44 O48 1.260 . S
O45 In39 2.266 . S
O45 C42 1.252 . S
O46 In39 2.326 . S
O46 C42 1.260 . S
O47 In39 2.266 . S
O47 C44 1.252 . S
O48 In39 2.326 . S
O48 C44 1.260 . S
C49 O40 1.240 . S
C49 O41 1.252 . S
O50 In39 2.294 . S
O50 C43 1.240 . S
O51 In39 2.326 . S
O51 C43 1.252 . S
In52 O53 2.296 . S
In52 O54 2.328 . S
In52 O58 2.266 1_554 S
In52 O59 2.324 1_554 S
In52 O60 2.265 1_554 S
In52 O61 2.326 . S
In52 O63 2.293 1_554 S
In52 O64 2.326 . S
O53 In52 2.296 . S
O53 C62 1.240 . S
O54 In52 2.328 . S
O54 C62 1.252 . S
C55 O58 1.252 . S
C55 O59 1.260 . S
C56 O63 1.240 . S
C56 O64 1.252 1_556 S
C57 O60 1.252 . S
C57 O61 1.260 1_556 S
O58 In52 2.266 1_556 S
O58 C55 1.252 . S
O59 In52 2.324 1_556 S
O59 C55 1.260 . S
O60 In52 2.265 1_556 S
O60 C57 1.252 . S
O61 In52 2.326 . S
O61 C57 1.260 1_554 S
C62 O53 1.240 . S
C62 O54 1.252 . S
O63 In52 2.293 1_556 S
O63 C56 1.240 . S
O64 In52 2.326 . S
O64 C56 1.252 1_554 S
In65 O66 2.294 . S
In65 O67 2.326 . S
In65 O71 2.266 . S
In65 O72 2.326 . S
In65 O73 2.266 . S
In65 O74 2.326 . S
In65 O76 2.294 . S
In65 O77 2.326 . S
O66 In65 2.294 . S
O66 C75 1.240 . S
O67 In65 2.326 . S
O67 C75 1.252 . S
C68 O71 1.252 . S
C68 O72 1.260 . S
C69 O76 1.240 . S
C69 O77 1.252 . S
C70 O73 1.252 . S
C70 O74 1.260 . S
O71 In65 2.266 . S
O71 C68 1.252 . S
O72 In65 2.326 . S
O72 C68 1.260 . S
O73 In65 2.266 . S
O73 C70 1.252 . S
O74 In65 2.326 . S
O74 C70 1.260 . S
C75 O66 1.240 . S
C75 O67 1.252 . S
O76 In65 2.294 . S
O76 C69 1.240 . S
O77 In65 2.326 . S
O77 C69 1.252 . S
In78 O79 2.294 . S
In78 O80 2.326 . S
In78 O84 2.266 . S
In78 O85 2.326 . S
In78 O86 2.266 . S
In78 O87 2.326 . S
In78 O89 2.294 . S
In78 O90 2.326 . S
O79 In78 2.294 . S
O79 C88 1.240 . S
O80 In78 2.326 . S
O80 C88 1.252 . S
C81 O84 1.252 . S
C81 O85 1.260 . S
C82 O89 1.240 . S
C82 O90 1.252 . S
C83 O86 1.252 . S
C83 O87 1.260 . S
O84 In78 2.266 . S
O84 C81 1.252 . S
O85 In78 2.326 . S
O85 C81 1.260 . S
O86 In78 2.266 . S
O86 C83 1.252 . S
O87 In78 2.326 . S
O87 C83 1.260 . S
C88 O79 1.240 . S
C88 O80 1.252 . S
O89 In78 2.294 . S
O89 C82 1.240 . S
O90 In78 2.326 . S
O90 C82 1.252 . S
In91 O92 2.293 1_556 S
In91 O93 2.326 . S
In91 O97 2.265 1_556 S
In91 O98 2.326 . S
In91 O99 2.266 1_556 S
In91 O100 2.324 1_556 S
In91 O102 2.296 . S
In91 O103 2.328 . S
O92 In91 2.293 1_554 S
O92 C101 1.240 . S
O93 In91 2.326 . S
O93 C101 1.252 1_556 S
C94 O97 1.252 . S
C94 O98 1.260 1_554 S
C95 O102 1.240 . S
C95 O103 1.252 . S
C96 O99 1.252 . S
C96 O100 1.260 . S
O97 In91 2.265 1_554 S
O97 C94 1.252 . S
O98 In91 2.326 . S
O98 C94 1.260 1_556 S
O99 In91 2.266 1_554 S
O99 C96 1.252 . S
O100 In91 2.324 1_554 S
O100 C96 1.260 . S
C101 O92 1.240 . S
C101 O93 1.252 1_554 S
O102 In91 2.296 . S
O102 C95 1.240 . S
O103 In91 2.328 . S
O103 C95 1.252 . S
In104 O105 2.294 . S
In104 O106 2.326 . S
In104 O110 2.266 . S
In104 O111 2.326 . S
In104 O112 2.266 . S
In104 O113 2.326 . S
In104 O115 2.294 . S
In104 O116 2.326 . S
O105 In104 2.294 . S
O105 C114 1.240 . S
O106 In104 2.326 . S
O106 C114 1.252 . S
C107 O110 1.252 . S
C107 O111 1.260 . S
C108 O115 1.240 . S
C108 O116 1.252 . S
C109 O112 1.252 . S
C109 O113 1.260 . S
O110 In104 2.266 . S
O110 C107 1.252 . S
O111 In104 2.326 . S
O111 C107 1.260 . S
O112 In104 2.266 . S
O112 C109 1.252 . S
O113 In104 2.326 . S
O113 C109 1.260 . S
C114 O105 1.240 . S
C114 O106 1.252 . S
O115 In104 2.294 . S
O115 C108 1.240 . S
O116 In104 2.326 . S
O116 C108 1.252 . S
In117 O118 2.293 1_556 S
In117 O119 2.326 . S
In117 O123 2.265 1_556 S
In117 O124 2.326 . S
In117 O125 2.266 1_556 S
In117 O126 2.324 1_556 S
In117 O128 2.296 . S
In117 O129 2.328 . S
O118 In117 2.293 1_554 S
O118 C127 1.240 . S
O119 In117 2.326 . S
O119 C127 1.252 1_556 S
C120 O123 1.252 . S
C120 O124 1.260 1_554 S
C121 O128 1.240 . S
C121 O129 1.252 . S
C122 O125 1.252 . S
C122 O126 1.260 . S
O123 In117 2.265 1_554 S
O123 C120 1.252 . S
O124 In117 2.326 . S
O124 C120 1.260 1_556 S
O125 In117 2.266 1_554 S
O125 C122 1.252 . S
O126 In117 2.324 1_554 S
O126 C122 1.260 . S
C127 O118 1.240 . S
C127 O119 1.252 1_554 S
O128 In117 2.296 . S
O128 C121 1.240 . S
O129 In117 2.328 . S
O129 C121 1.252 . S
In130 O131 2.294 . S
In130 O132 2.326 . S
In130 O136 2.266 . S
In130 O137 2.326 . S
In130 O138 2.266 . S
In130 O139 2.326 . S
In130 O141 2.294 . S
In130 O142 2.326 . S
O131 In130 2.294 . S
O131 C140 1.240 . S
O132 In130 2.326 . S
O132 C140 1.252 . S
C133 O136 1.252 . S
C133 O137 1.260 . S
C134 O141 1.240 . S
C134 O142 1.252 . S
C135 O138 1.252 . S
C135 O139 1.260 . S
O136 In130 2.266 . S
O136 C133 1.252 . S
O137 In130 2.326 . S
O137 C133 1.260 . S
O138 In130 2.266 . S
O138 C135 1.252 . S
O139 In130 2.326 . S
O139 C135 1.260 . S
C140 O131 1.240 . S
C140 O132 1.252 . S
O141 In130 2.294 . S
O141 C134 1.240 . S
O142 In130 2.326 . S
O142 C134 1.252 . S
In143 O144 2.293 1_556 S
In143 O145 2.326 . S
In143 O149 2.265 1_556 S
In143 O150 2.326 . S
In143 O151 2.266 1_556 S
In143 O152 2.324 1_556 S
In143 O154 2.296 . S
In143 O155 2.328 . S
O144 In143 2.293 1_554 S
O144 C153 1.240 . S
O145 In143 2.326 . S
O145 C153 1.252 1_556 S
C146 O149 1.252 . S
C146 O150 1.260 1_554 S
C147 O154 1.240 . S
C147 O155 1.252 . S
C148 O151 1.252 . S
C148 O152 1.260 . S
O149 In143 2.265 1_554 S
O149 C146 1.252 . S
O150 In143 2.326 . S
O150 C146 1.260 1_556 S
O151 In143 2.266 1_554 S
O151 C148 1.252 . S
O152 In143 2.324 1_554 S
O152 C148 1.260 . S
C153 O144 1.240 . S
C153 O145 1.252 1_554 S
O154 In143 2.296 . S
O154 C147 1.240 . S
O155 In143 2.328 . S
O155 C147 1.252 . S
C156 C157 1.170 . S
C156 C158 1.380 . S
C157 C156 1.170 . S
C158 C156 1.380 . S
C158 C159 1.170 . S
C159 C158 1.170 . S
C160 C161 1.170 . S
C160 C162 1.380 . S
C161 C160 1.170 . S
C162 C160 1.380 . S
C162 C163 1.170 . S
C163 C162 1.170 . S
C164 C165 1.170 . S
C164 C166 1.380 . S
C165 C164 1.170 . S
C166 C164 1.380 . S
C166 C167 1.170 . S
C167 C166 1.170 . S
C168 C169 1.170 . S
C168 C170 1.380 . S
C169 C168 1.170 . S
C170 C168 1.380 . S
C170 C171 1.170 . S
C171 C170 1.170 . S
C172 C173 1.170 . S
C172 C174 1.380 . S
C173 C172 1.170 . S
C174 C172 1.380 . S
C174 C175 1.170 . S
C175 C174 1.170 . S
C176 C177 1.170 . S
C176 C178 1.380 . S
C177 C176 1.170 . S
C178 C176 1.380 . S
C178 C179 1.170 . S
C179 C178 1.170 . S
C180 C181 1.170 . S
C180 C182 1.380 1_546 S
C181 C180 1.170 . S
C182 C180 1.380 1_564 S
C182 C183 1.170 . S
C183 C182 1.170 . S
C184 C185 1.170 . S
C184 C186 1.380 . S
C185 C184 1.170 . S
C186 C184 1.380 . S
C186 C187 1.170 . S
C187 C186 1.170 . S
C188 C189 1.170 . S
C188 C190 1.380 1_454 S
C189 C188 1.170 . S
C190 C188 1.380 1_656 S
C190 C191 1.170 . S
C191 C190 1.170 . S
C192 C193 1.170 . S
C192 C194 1.380 1_545 S
C193 C192 1.170 . S
C194 C192 1.380 1_565 S
C194 C195 1.170 . S
C195 C194 1.170 . S
C196 C197 1.170 . S
C196 C198 1.380 1_554 S
C197 C196 1.170 . S
C198 C196 1.380 1_556 S
C198 C199 1.170 . S
C199 C198 1.170 . S
C200 C201 1.170 . S
C200 C202 1.380 1_655 S
C201 C200 1.170 . S
C202 C200 1.380 1_455 S
C202 C203 1.170 . S
C203 C202 1.170 . S
C204 C205 1.170 . S
C204 C206 1.380 . S
C205 C204 1.170 . S
C206 C204 1.380 . S
C206 C207 1.170 . S
C207 C206 1.170 . S
C208 C209 1.170 . S
C208 C210 1.380 . S
C209 C208 1.170 . S
C210 C208 1.380 . S
C210 C211 1.170 . S
C211 C210 1.170 . S
C212 C213 1.170 . S
C212 C214 1.380 . S
C213 C212 1.170 . S
C214 C212 1.380 . S
C214 C215 1.170 . S
C215 C214 1.170 . S
C216 C217 1.170 . S
C216 C218 1.380 . S
C217 C216 1.170 . S
C218 C216 1.380 . S
C218 C219 1.170 . S
C219 C218 1.170 . S
C220 C221 1.170 . S
C220 C222 1.380 . S
C221 C220 1.170 . S
C222 C220 1.380 . S
C222 C223 1.170 . S
C223 C222 1.170 . S
C224 C225 1.170 . S
C224 C226 1.380 . S
C225 C224 1.170 . S
C226 C224 1.380 . S
C226 C227 1.170 . S
C227 C226 1.170 . S
C228 C229 1.170 . S
C228 C230 1.380 . S
C229 C228 1.170 . S
C230 C228 1.380 . S
C230 C231 1.170 . S
C231 C230 1.170 . S
C232 C233 1.170 . S
C232 C234 1.380 . S
C233 C232 1.170 . S
C234 C232 1.380 . S
C234 C235 1.170 . S
C235 C234 1.170 . S
C236 C237 1.170 . S
C236 C238 1.380 . S
C237 C236 1.170 . S
C238 C236 1.380 . S
C238 C239 1.170 . S
C239 C238 1.170 . S
C240 C241 1.170 . S
C240 C242 1.380 . S
C241 C240 1.170 . S
C242 C240 1.380 . S
C242 C243 1.170 . S
C243 C242 1.170 . S
C244 C245 1.170 . S
C244 C246 1.380 . S
C245 C244 1.170 . S
C246 C244 1.380 . S
C246 C247 1.170 . S
C247 C246 1.170 . S
C248 C249 1.170 . S
C248 C250 1.380 . S
C249 C248 1.170 . S
C250 C248 1.380 . S
C250 C251 1.170 . S
C251 C250 1.170 . S
C157 C140 1.696 . S
C159 C10 1.682 . S
C161 C23 1.680 . S
C163 C147 1.694 . S
C165 C30 1.675 . S
C167 C82 1.696 . S
C169 C95 1.671 . S
C171 C43 1.693 . S
C173 C108 1.693 . S
C175 C62 1.670 . S
C177 C69 1.688 . S
C179 C121 1.689 . S
C181 C4 1.242 . S
C183 C101 1.187 . S
C185 C17 1.283 . S
C187 C114 1.220 . S
C189 C127 1.243 . S
C191 C36 1.186 . S
C193 C134 1.282 . S
C195 C49 1.225 . S
C197 C153 1.242 . S
C199 C56 1.184 . S
C201 C88 1.256 . S
C203 C75 1.255 . S
C205 C5 1.372 . S
C207 C55 1.291 . S
C209 C18 1.402 . S
C211 C70 1.316 . S
C213 C29 1.356 . S
C215 C3 1.236 . S
C217 C42 1.397 . S
C219 C16 1.280 . S
C221 C57 1.356 . S
C223 C31 1.235 . S
C225 C68 1.393 . S
C227 C44 1.269 . S
C229 C81 1.406 . S
C231 C109 1.323 . S
C233 C94 1.371 . S
C235 C122 1.292 . S
C237 C133 1.267 . S
C239 C107 1.391 . S
C241 C120 1.372 . S
C243 C148 1.293 . S
C245 C135 1.404 . S
C247 C83 1.320 . S
C249 C146 1.369 . S
C251 C96 1.278 . S
