# Generated by pormake.
# Topology tzs, (4)-cn, num edge types: 1
# Building blocks:
#     Node 0, Type 0, BuildingBlock: ICAMEG_clean_sbu_1, # of connection points: 4
#     Node 1, Type 0, BuildingBlock: ICAMEG_clean_sbu_1, # of connection points: 4
#     Node 2, Type 0, BuildingBlock: ICAMEG_clean_sbu_1, # of connection points: 4
#     Node 3, Type 0, BuildingBlock: ICAMEG_clean_sbu_1, # of connection points: 4
#     Node 4, Type 0, BuildingBlock: ICAMEG_clean_sbu_1, # of connection points: 4
#     Node 5, Type 0, BuildingBlock: ICAMEG_clean_sbu_1, # of connection points: 4
#     Node 6, Type 0, BuildingBlock: ICAMEG_clean_sbu_1, # of connection points: 4
#     Node 7, Type 0, BuildingBlock: ICAMEG_clean_sbu_1, # of connection points: 4
#     Node 8, Type 0, BuildingBlock: ICAMEG_clean_sbu_1, # of connection points: 4
#     Node 9, Type 0, BuildingBlock: ICAMEG_clean_sbu_1, # of connection points: 4
#     Node 10, Type 0, BuildingBlock: ICAMEG_clean_sbu_1, # of connection points: 4
#     Node 11, Type 0, BuildingBlock: ICAMEG_clean_sbu_1, # of connection points: 4
#     Node 12, Type 0, BuildingBlock: ICAMEG_clean_sbu_1, # of connection points: 4
#     Node 13, Type 0, BuildingBlock: ICAMEG_clean_sbu_1, # of connection points: 4
#     Node 14, Type 0, BuildingBlock: ICAMEG_clean_sbu_1, # of connection points: 4
#     Node 15, Type 0, BuildingBlock: ICAMEG_clean_sbu_1, # of connection points: 4
#     Edge 16, Type (0, 0), BuildingBlock: ZUJKAS_clean_linker_0, # of connection points: 2
#     Edge 17, Type (0, 0), BuildingBlock: ZUJKAS_clean_linker_0, # of connection points: 2
#     Edge 18, Type (0, 0), BuildingBlock: ZUJKAS_clean_linker_0, # of connection points: 2
#     Edge 19, Type (0, 0), BuildingBlock: ZUJKAS_clean_linker_0, # of connection points: 2
#     Edge 20, Type (0, 0), BuildingBlock: ZUJKAS_clean_linker_0, # of connection points: 2
#     Edge 21, Type (0, 0), BuildingBlock: ZUJKAS_clean_linker_0, # of connection points: 2
#     Edge 22, Type (0, 0), BuildingBlock: ZUJKAS_clean_linker_0, # of connection points: 2
#     Edge 23, Type (0, 0), BuildingBlock: ZUJKAS_clean_linker_0, # of connection points: 2
#     Edge 24, Type (0, 0), BuildingBlock: ZUJKAS_clean_linker_0, # of connection points: 2
#     Edge 25, Type (0, 0), BuildingBlock: ZUJKAS_clean_linker_0, # of connection points: 2
#     Edge 26, Type (0, 0), BuildingBlock: ZUJKAS_clean_linker_0, # of connection points: 2
#     Edge 27, Type (0, 0), BuildingBlock: ZUJKAS_clean_linker_0, # of connection points: 2
#     Edge 28, Type (0, 0), BuildingBlock: ZUJKAS_clean_linker_0, # of connection points: 2
#     Edge 29, Type (0, 0), BuildingBlock: ZUJKAS_clean_linker_0, # of connection points: 2
#     Edge 30, Type (0, 0), BuildingBlock: ZUJKAS_clean_linker_0, # of connection points: 2
#     Edge 31, Type (0, 0), BuildingBlock: ZUJKAS_clean_linker_0, # of connection points: 2
#     Edge 32, Type (0, 0), BuildingBlock: ZUJKAS_clean_linker_0, # of connection points: 2
#     Edge 33, Type (0, 0), BuildingBlock: ZUJKAS_clean_linker_0, # of connection points: 2
#     Edge 34, Type (0, 0), BuildingBlock: ZUJKAS_clean_linker_0, # of connection points: 2
#     Edge 35, Type (0, 0), BuildingBlock: ZUJKAS_clean_linker_0, # of connection points: 2
#     Edge 36, Type (0, 0), BuildingBlock: ZUJKAS_clean_linker_0, # of connection points: 2
#     Edge 37, Type (0, 0), BuildingBlock: ZUJKAS_clean_linker_0, # of connection points: 2
#     Edge 38, Type (0, 0), BuildingBlock: ZUJKAS_clean_linker_0, # of connection points: 2
#     Edge 39, Type (0, 0), BuildingBlock: ZUJKAS_clean_linker_0, # of connection points: 2
#     Edge 40, Type (0, 0), BuildingBlock: ZUJKAS_clean_linker_0, # of connection points: 2
#     Edge 41, Type (0, 0), BuildingBlock: ZUJKAS_clean_linker_0, # of connection points: 2
#     Edge 42, Type (0, 0), BuildingBlock: ZUJKAS_clean_linker_0, # of connection points: 2
#     Edge 43, Type (0, 0), BuildingBlock: ZUJKAS_clean_linker_0, # of connection points: 2
#     Edge 44, Type (0, 0), BuildingBlock: ZUJKAS_clean_linker_0, # of connection points: 2
#     Edge 45, Type (0, 0), BuildingBlock: ZUJKAS_clean_linker_0, # of connection points: 2
#     Edge 46, Type (0, 0), BuildingBlock: ZUJKAS_clean_linker_0, # of connection points: 2
#     Edge 47, Type (0, 0), BuildingBlock: ZUJKAS_clean_linker_0, # of connection points: 2
# Relax obj value: 0.146
# Max RMSD: 0.174
# Mean RMSD: 0.174
data_MOF--net-tzs--node1-ICAMEG_clean_sbu_1--edge1-ZUJKAS_clean_linker_0
_symmetry_space_group_name_H-M    P1
_symmetry_Int_Tables_number       1
_symmetry_cell_setting            triclinic
loop_
_symmetry_equiv_pos_as_xyz
'x, y, z'
_cell_length_a     63.936309
_cell_length_b     63.95214
_cell_length_c     56.883024
_cell_angle_alpha  90.034616
_cell_angle_beta   89.981731
_cell_angle_gamma 90.010898
loop_
_atom_site_label
_atom_site_type_symbol
_atom_site_fract_x
_atom_site_fract_y
_atom_site_fract_z
_atom_type_partial_charge
Co0 Co 0.13617 0.38029 0.16861 0.0
Co1 Co 0.15334 0.35241 0.21567 0.0
O2 O 0.15373 0.35791 0.18172 0.0
C3 C 0.13961 0.34764 0.1298 0.0
O4 O 0.14963 0.33448 0.14345 0.0
C5 C 0.19858 0.34922 0.22664 0.0
O6 O 0.19628 0.36571 0.24014 0.0
O7 O 0.16244 0.38183 0.22124 0.0
O8 O 0.139 0.39731 0.19798 0.0
H9 H 0.13749 0.37017 0.29986 0.0
H10 H 0.17526 0.36598 0.14449 0.0
O11 O 0.13268 0.36487 0.13797 0.0
H12 H 0.18282 0.44226 0.15305 0.0
H13 H 0.1095 0.42862 0.10537 0.0
H14 H 0.10135 0.4059 0.18768 0.0
H15 H 0.15129 0.4244 0.16766 0.0
H16 H 0.13247 0.40139 0.12186 0.0
O17 O 0.18333 0.34281 0.21405 0.0
H18 H 0.13771 0.37587 0.25699 0.0
H19 H 0.16894 0.31798 0.24672 0.0
H20 H 0.07819 0.43331 0.17194 0.0
H21 H 0.20682 0.38324 0.1293 0.0
H22 H 0.08218 0.44486 0.13049 0.0
H23 H 0.21083 0.42169 0.13353 0.0
O24 O 0.11091 0.36627 0.18182 0.0
H25 H 0.15649 0.28263 0.1752 0.0
H26 H 0.11938 0.32488 0.23454 0.0
H27 H 0.10747 0.28897 0.22631 0.0
H28 H 0.12611 0.26754 0.1965 0.0
H29 H 0.16774 0.31872 0.1838 0.0
H30 H 0.16916 0.3117 0.28948 0.0
H31 H 0.15331 0.3379 0.31637 0.0
O32 O 0.12319 0.36116 0.21821 0.0
C33 C 0.15281 0.39806 0.2141 0.0
C34 C 0.14444 0.35864 0.28833 0.0
C35 C 0.16222 0.32583 0.2825 0.0
N36 N 0.15332 0.34729 0.24935 0.0
C37 C 0.1446 0.36178 0.26403 0.0
C38 C 0.16207 0.32948 0.2583 0.0
C39 C 0.15332 0.34053 0.29758 0.0
C40 C 0.17657 0.38271 0.14603 0.0
N41 N 0.16105 0.39415 0.15641 0.0
C42 C 0.19463 0.39241 0.13755 0.0
C43 C 0.1969 0.41397 0.13997 0.0
C44 C 0.18119 0.42552 0.1509 0.0
C45 C 0.16333 0.41529 0.15913 0.0
C46 C 0.10761 0.42373 0.12345 0.0
C47 C 0.10326 0.41086 0.16965 0.0
C48 C 0.12052 0.40824 0.13288 0.0
N49 N 0.11832 0.40206 0.15576 0.0
C50 C 0.09006 0.42638 0.16082 0.0
C51 C 0.0923 0.43284 0.13757 0.0
C52 C 0.10802 0.36271 0.20368 0.0
C53 C 0.14824 0.2918 0.18823 0.0
C54 C 0.12747 0.31575 0.22139 0.0
C55 C 0.12071 0.29537 0.21688 0.0
C56 C 0.13118 0.28336 0.20017 0.0
N57 N 0.14422 0.32394 0.2096 0.0
C58 C 0.15456 0.31224 0.1932 0.0
Co59 Co 0.62177 0.13331 0.17182 0.0
Co60 Co 0.65321 0.1482 0.21768 0.0
O61 O 0.64567 0.14957 0.18414 0.0
C62 C 0.65287 0.13565 0.13126 0.0
O63 O 0.66736 0.14415 0.14451 0.0
C64 C 0.66263 0.1932 0.20348 0.0
O65 O 0.65711 0.19013 0.18154 0.0
O66 O 0.62429 0.157 0.22621 0.0
O67 O 0.6065 0.1358 0.20231 0.0
H68 H 0.64102 0.12703 0.30162 0.0
H69 H 0.63629 0.17153 0.14619 0.0
O70 O 0.63545 0.12998 0.14011 0.0
H71 H 0.56183 0.18386 0.16355 0.0
H72 H 0.56905 0.11142 0.1107 0.0
H73 H 0.59482 0.09964 0.19128 0.0
H74 H 0.5788 0.15106 0.17566 0.0
H75 H 0.59841 0.13216 0.1263 0.0
O76 O 0.66169 0.17849 0.21854 0.0
H77 H 0.63302 0.12896 0.25926 0.0
H78 H 0.68791 0.16494 0.24756 0.0
H79 H 0.5653 0.07868 0.17643 0.0
H80 H 0.61987 0.20435 0.13342 0.0
H81 H 0.55222 0.08449 0.13584 0.0
H82 H 0.58235 0.21078 0.14213 0.0
O83 O 0.63489 0.1069 0.18317 0.0
H84 H 0.72027 0.15186 0.17112 0.0
H85 H 0.68293 0.1158 0.23505 0.0
H86 H 0.71844 0.1044 0.22438 0.0
H87 H 0.73746 0.12256 0.19224 0.0
H88 H 0.68467 0.16242 0.18211 0.0
H89 H 0.69634 0.16362 0.28983 0.0
H90 H 0.67287 0.14446 0.31716 0.0
O91 O 0.64518 0.11777 0.21886 0.0
C92 C 0.60736 0.14831 0.21966 0.0
C93 C 0.6514 0.13538 0.28988 0.0
C94 C 0.68243 0.15594 0.28326 0.0
N95 N 0.66005 0.14691 0.25091 0.0
C96 C 0.64699 0.13647 0.26586 0.0
C97 C 0.67753 0.15669 0.25935 0.0
C98 C 0.66926 0.14518 0.29859 0.0
C99 C 0.61995 0.17396 0.1498 0.0
N100 N 0.60857 0.15915 0.16146 0.0
C101 C 0.61072 0.1927 0.14263 0.0
C102 C 0.58969 0.19631 0.14755 0.0
C103 C 0.57817 0.18123 0.15956 0.0
C104 C 0.58792 0.16267 0.16643 0.0
C105 C 0.57463 0.10871 0.1284 0.0
C106 C 0.58924 0.10229 0.17362 0.0
C107 C 0.59133 0.12034 0.13731 0.0
N108 N 0.59842 0.11708 0.15969 0.0
C109 C 0.57251 0.09036 0.16529 0.0
C110 C 0.56518 0.09362 0.14252 0.0
C111 C 0.64074 0.10322 0.20426 0.0
C112 C 0.71218 0.14384 0.18519 0.0
C113 C 0.69093 0.12363 0.22089 0.0
C114 C 0.71113 0.11718 0.21501 0.0
C115 C 0.7218 0.12738 0.19701 0.0
N116 N 0.68155 0.13983 0.20928 0.0
C117 C 0.69196 0.14985 0.19159 0.0
Co118 Co 0.86989 0.62386 0.1716 0.0
Co119 Co 0.8544 0.65024 0.22059 0.0
O120 O 0.85294 0.64615 0.18627 0.0
C121 C 0.86578 0.65735 0.13366 0.0
O122 O 0.85552 0.67014 0.14756 0.0
C123 C 0.80929 0.66148 0.20811 0.0
O124 O 0.81161 0.65692 0.18577 0.0
O125 O 0.84494 0.62089 0.22503 0.0
O126 O 0.86772 0.60604 0.20047 0.0
H127 H 0.87398 0.62877 0.30265 0.0
H128 H 0.83058 0.63901 0.14851 0.0
O129 O 0.87284 0.64004 0.14142 0.0
H130 H 0.82204 0.56279 0.15607 0.0
H131 H 0.89407 0.57697 0.10569 0.0
H132 H 0.9049 0.59731 0.18842 0.0
H133 H 0.85416 0.57999 0.17002 0.0
H134 H 0.87197 0.60403 0.12399 0.0
O135 O 0.82442 0.65947 0.22248 0.0
H136 H 0.87226 0.62517 0.25953 0.0
H137 H 0.83894 0.68246 0.25453 0.0
H138 H 0.92721 0.57004 0.17085 0.0
H139 H 0.79841 0.62245 0.13403 0.0
H140 H 0.92187 0.55969 0.12919 0.0
H141 H 0.79389 0.58402 0.13778 0.0
O142 O 0.89577 0.63722 0.18421 0.0
H143 H 0.85228 0.7216 0.1833 0.0
H144 H 0.88838 0.67671 0.24084 0.0
H145 H 0.90067 0.71278 0.23463 0.0
H146 H 0.88253 0.73556 0.20576 0.0
H147 H 0.84067 0.68539 0.18987 0.0
H148 H 0.84013 0.68657 0.2976 0.0
H149 H 0.85784 0.65965 0.32197 0.0
O150 O 0.88455 0.64135 0.22112 0.0
C151 C 0.85413 0.60482 0.21681 0.0
C152 C 0.86628 0.64064 0.29222 0.0
C153 C 0.84726 0.67306 0.28939 0.0
N154 N 0.85566 0.65366 0.25448 0.0
C155 C 0.8653 0.63871 0.26778 0.0
C156 C 0.84659 0.67062 0.265 0.0
C157 C 0.8572 0.65796 0.30305 0.0
C158 C 0.82902 0.62232 0.14994 0.0
N159 N 0.84454 0.61056 0.1598 0.0
C160 C 0.81063 0.61299 0.14182 0.0
C161 C 0.80808 0.59145 0.14396 0.0
C162 C 0.82386 0.57954 0.15421 0.0
C163 C 0.84203 0.58941 0.16211 0.0
C164 C 0.89655 0.58133 0.12386 0.0
C165 C 0.90241 0.59287 0.17031 0.0
C166 C 0.88413 0.59671 0.13431 0.0
N167 N 0.88707 0.60223 0.15731 0.0
C168 C 0.91512 0.57742 0.16044 0.0
C169 C 0.91213 0.57164 0.13706 0.0
C170 C 0.89929 0.64024 0.20604 0.0
C171 C 0.86025 0.71187 0.19603 0.0
C172 C 0.88039 0.68647 0.22819 0.0
C173 C 0.88742 0.70692 0.22479 0.0
C174 C 0.87724 0.71968 0.2086 0.0
N175 N 0.86361 0.67892 0.21591 0.0
C176 C 0.85365 0.69134 0.19991 0.0
Co177 Co 0.38543 0.87174 0.16948 0.0
Co178 Co 0.35362 0.85333 0.21255 0.0
O179 O 0.36244 0.85326 0.1795 0.0
C180 C 0.35547 0.87072 0.12816 0.0
O181 O 0.33938 0.86733 0.14197 0.0
C182 C 0.35152 0.8083 0.22414 0.0
O183 O 0.36606 0.81204 0.23989 0.0
O184 O 0.38276 0.8455 0.22164 0.0
O185 O 0.39898 0.87033 0.20114 0.0
H186 H 0.36214 0.87058 0.29818 0.0
H187 H 0.37541 0.83319 0.14277 0.0
O188 O 0.3736 0.87367 0.13684 0.0
H189 H 0.44973 0.82625 0.16438 0.0
H190 H 0.44031 0.89892 0.11364 0.0
H191 H 0.40698 0.90813 0.19112 0.0
H192 H 0.42976 0.85762 0.17582 0.0
H193 H 0.41213 0.87524 0.12649 0.0
O194 O 0.34579 0.82283 0.21012 0.0
H195 H 0.37208 0.87031 0.25627 0.0
H196 H 0.31716 0.83609 0.23938 0.0
H197 H 0.43522 0.93203 0.17907 0.0
H198 H 0.3949 0.80172 0.13073 0.0
H199 H 0.45211 0.92752 0.14007 0.0
H200 H 0.43234 0.79808 0.14161 0.0
O201 O 0.36898 0.89648 0.18021 0.0
H202 H 0.28841 0.84638 0.16394 0.0
H203 H 0.32276 0.88596 0.22755 0.0
H204 H 0.28727 0.8959 0.21491 0.0
H205 H 0.26981 0.876 0.18294 0.0
H206 H 0.32405 0.83715 0.17689 0.0
H207 H 0.30667 0.83591 0.2811 0.0
H208 H 0.32923 0.85328 0.31082 0.0
O209 O 0.36057 0.88394 0.21576 0.0
C210 C 0.39904 0.85605 0.21667 0.0
C211 C 0.35218 0.86297 0.28539 0.0
C212 C 0.32105 0.84351 0.27581 0.0
N213 N 0.34523 0.85322 0.24539 0.0
C214 C 0.35773 0.86277 0.26164 0.0
C215 C 0.32708 0.84366 0.25221 0.0
C216 C 0.33371 0.85326 0.29248 0.0
C217 C 0.39173 0.83184 0.14739 0.0
N218 N 0.40142 0.84734 0.15983 0.0
C219 C 0.40268 0.81393 0.1406 0.0
C220 C 0.42367 0.81189 0.14673 0.0
C221 C 0.43344 0.8277 0.15951 0.0
C222 C 0.42202 0.84541 0.16596 0.0
C223 C 0.43304 0.90108 0.13066 0.0
C224 C 0.41421 0.90603 0.17412 0.0
C225 C 0.41698 0.88779 0.13798 0.0
N226 N 0.40781 0.89031 0.15951 0.0
C227 C 0.43021 0.91964 0.16739 0.0
C228 C 0.43967 0.91711 0.1455 0.0
C229 C 0.36314 0.89921 0.20151 0.0
C230 C 0.29584 0.85515 0.17791 0.0
C231 C 0.31537 0.87733 0.21348 0.0
C232 C 0.29522 0.88298 0.20647 0.0
C233 C 0.28542 0.87179 0.18856 0.0
N234 N 0.32549 0.86097 0.20296 0.0
C235 C 0.31598 0.84994 0.18538 0.0
Co236 Co 0.13454 0.62383 0.34153 0.0
Co237 Co 0.15234 0.65241 0.29519 0.0
O238 O 0.15244 0.64622 0.32897 0.0
C239 C 0.13781 0.65608 0.38077 0.0
O240 O 0.14784 0.66936 0.36728 0.0
C241 C 0.19743 0.65505 0.28389 0.0
O242 O 0.19423 0.63951 0.26921 0.0
O243 O 0.16094 0.62297 0.28891 0.0
O244 O 0.13743 0.6072 0.31187 0.0
H245 H 0.13642 0.63684 0.21048 0.0
H246 H 0.17347 0.63748 0.36638 0.0
O247 O 0.13096 0.63888 0.37241 0.0
H248 H 0.18063 0.56132 0.35626 0.0
H249 H 0.107 0.57487 0.40371 0.0
H250 H 0.09967 0.59874 0.32171 0.0
H251 H 0.14932 0.5796 0.34175 0.0
H252 H 0.13031 0.60215 0.38788 0.0
O253 O 0.18257 0.66127 0.2972 0.0
H254 H 0.13647 0.63014 0.25317 0.0
H255 H 0.16872 0.68723 0.26516 0.0
H256 H 0.07618 0.57129 0.33678 0.0
H257 H 0.20481 0.61978 0.38147 0.0
H258 H 0.07975 0.55917 0.37806 0.0
H259 H 0.20862 0.58139 0.37646 0.0
O260 O 0.10947 0.6382 0.32834 0.0
H261 H 0.15686 0.72133 0.33733 0.0
H262 H 0.11887 0.68091 0.2771 0.0
H263 H 0.10763 0.71686 0.28626 0.0
H264 H 0.12672 0.73737 0.31652 0.0
H265 H 0.16742 0.68521 0.32782 0.0
H266 H 0.16907 0.69451 0.2226 0.0
H267 H 0.15281 0.66923 0.19494 0.0
O268 O 0.12206 0.64426 0.29225 0.0
C269 C 0.15125 0.60667 0.29575 0.0
C270 C 0.14354 0.64798 0.22235 0.0
C271 C 0.16186 0.68035 0.22916 0.0
N272 N 0.15254 0.65828 0.26166 0.0
C273 C 0.14361 0.64428 0.24655 0.0
C274 C 0.16162 0.67614 0.25324 0.0
C275 C 0.15274 0.66616 0.21365 0.0
C276 C 0.1747 0.62077 0.36448 0.0
N277 N 0.15919 0.60961 0.3537 0.0
C278 C 0.19263 0.61082 0.37291 0.0
C279 C 0.19478 0.5893 0.37005 0.0
C280 C 0.17909 0.57803 0.35874 0.0
C281 C 0.16136 0.5885 0.35057 0.0
C282 C 0.10529 0.58002 0.38569 0.0
C283 C 0.10139 0.59352 0.33967 0.0
C284 C 0.11839 0.59553 0.37664 0.0
N285 N 0.11641 0.60203 0.35384 0.0
C286 C 0.08801 0.57798 0.34812 0.0
C287 C 0.09002 0.57121 0.37129 0.0
C288 C 0.10677 0.64227 0.30656 0.0
C289 C 0.14842 0.71256 0.32411 0.0
C290 C 0.12715 0.68963 0.29046 0.0
C291 C 0.12077 0.71004 0.29548 0.0
C292 C 0.1315 0.72154 0.31244 0.0
N293 N 0.14377 0.68092 0.30198 0.0
C294 C 0.15436 0.69211 0.31861 0.0
Co295 Co 0.37929 0.13282 0.34237 0.0
Co296 Co 0.35398 0.15054 0.29372 0.0
O297 O 0.35738 0.15049 0.32813 0.0
C298 C 0.34537 0.13648 0.37981 0.0
O299 O 0.3328 0.1468 0.36576 0.0
C300 C 0.34178 0.19455 0.30914 0.0
O301 O 0.34475 0.1904 0.33147 0.0
O302 O 0.38348 0.15999 0.29063 0.0
O303 O 0.39754 0.13574 0.31388 0.0
H304 H 0.37709 0.13421 0.21129 0.0
H305 H 0.36438 0.17163 0.3668 0.0
O306 O 0.36266 0.1292 0.3722 0.0
H307 H 0.44085 0.17912 0.36111 0.0
H308 H 0.42502 0.10576 0.40782 0.0
H309 H 0.40555 0.09803 0.3244 0.0
H310 H 0.42339 0.14776 0.34555 0.0
H311 H 0.39851 0.12885 0.39012 0.0
O312 O 0.34497 0.18071 0.29342 0.0
H313 H 0.37973 0.13406 0.25454 0.0
H314 H 0.32277 0.16792 0.25982 0.0
H315 H 0.43229 0.07476 0.34135 0.0
H316 H 0.3812 0.20301 0.38293 0.0
H317 H 0.4422 0.07853 0.38336 0.0
H318 H 0.41976 0.20702 0.38012 0.0
O319 O 0.36571 0.10766 0.32828 0.0
H320 H 0.28164 0.15052 0.32913 0.0
H321 H 0.32797 0.1179 0.27038 0.0
H322 H 0.29179 0.10529 0.27455 0.0
H323 H 0.26827 0.12169 0.30402 0.0
H324 H 0.31792 0.16244 0.32459 0.0
H325 H 0.31963 0.16861 0.21662 0.0
H326 H 0.34687 0.15157 0.19205 0.0
O327 O 0.36269 0.12033 0.29181 0.0
C328 C 0.39929 0.15019 0.29859 0.0
C329 C 0.36509 0.14163 0.22181 0.0
C330 C 0.33285 0.16096 0.2248 0.0
N331 N 0.35135 0.15082 0.25971 0.0
C332 C 0.36648 0.14155 0.24631 0.0
C333 C 0.33475 0.16057 0.24925 0.0
C334 C 0.34814 0.15139 0.21102 0.0
C335 C 0.38111 0.17296 0.36575 0.0
N336 N 0.39279 0.15756 0.35549 0.0
C337 C 0.39059 0.19091 0.37482 0.0
C338 C 0.41221 0.19317 0.37321 0.0
C339 C 0.42404 0.17753 0.36256 0.0
C340 C 0.41402 0.15978 0.35374 0.0
C341 C 0.42084 0.10396 0.38949 0.0
C342 C 0.40979 0.09984 0.34267 0.0
C343 C 0.40576 0.11693 0.37938 0.0
N344 N 0.40048 0.11485 0.3562 0.0
C345 C 0.42494 0.08658 0.35218 0.0
C346 C 0.43048 0.0887 0.37576 0.0
C347 C 0.36314 0.10501 0.30621 0.0
C348 C 0.29168 0.14334 0.31611 0.0
C349 C 0.3179 0.12516 0.28327 0.0
C350 C 0.29739 0.11794 0.28553 0.0
C351 C 0.2842 0.12714 0.30206 0.0
N352 N 0.32512 0.14121 0.29699 0.0
C353 C 0.3123 0.15015 0.31335 0.0
Co354 Co 0.8725 0.37897 0.33952 0.0
Co355 Co 0.85566 0.34984 0.29328 0.0
O356 O 0.8552 0.35606 0.32707 0.0
C357 C 0.86918 0.34736 0.37938 0.0
O358 O 0.85931 0.33375 0.36614 0.0
C359 C 0.81031 0.34621 0.28276 0.0
O360 O 0.81229 0.36276 0.2693 0.0
O361 O 0.84621 0.37901 0.28701 0.0
O362 O 0.86967 0.39518 0.30961 0.0
H363 H 0.87132 0.36607 0.20868 0.0
H364 H 0.83342 0.36493 0.36387 0.0
O365 O 0.87603 0.3644 0.37066 0.0
H366 H 0.82518 0.44086 0.35272 0.0
H367 H 0.8984 0.42926 0.4013 0.0
H368 H 0.90714 0.40446 0.3198 0.0
H369 H 0.85699 0.42295 0.33899 0.0
H370 H 0.87582 0.40131 0.3856 0.0
O371 O 0.82576 0.3399 0.29511 0.0
H372 H 0.87108 0.37261 0.25141 0.0
H373 H 0.8404 0.31464 0.26307 0.0
H374 H 0.92989 0.43257 0.33475 0.0
H375 H 0.80158 0.38227 0.37819 0.0
H376 H 0.92561 0.44517 0.37578 0.0
H377 H 0.79722 0.42054 0.37265 0.0
O378 O 0.89792 0.36487 0.32683 0.0
H379 H 0.85338 0.28093 0.33557 0.0
H380 H 0.88988 0.32231 0.27503 0.0
H381 H 0.90223 0.28673 0.28418 0.0
H382 H 0.8839 0.26575 0.3146 0.0
H383 H 0.84169 0.31669 0.32604 0.0
H384 H 0.84017 0.30753 0.22047 0.0
H385 H 0.85577 0.33333 0.19295 0.0
O386 O 0.88573 0.35887 0.29055 0.0
C387 C 0.85572 0.39547 0.29365 0.0
C388 C 0.86448 0.3547 0.22049 0.0
C389 C 0.84699 0.32185 0.2271 0.0
N390 N 0.85573 0.34404 0.25974 0.0
C391 C 0.8643 0.35832 0.24471 0.0
C392 C 0.84713 0.32599 0.25121 0.0
C393 C 0.85575 0.33634 0.21168 0.0
C394 C 0.83197 0.3816 0.36177 0.0
N395 N 0.84745 0.39291 0.35116 0.0
C396 C 0.81374 0.39134 0.36976 0.0
C397 C 0.81128 0.4128 0.3666 0.0
C398 C 0.82696 0.42421 0.35544 0.0
C399 C 0.84498 0.41394 0.34773 0.0
C400 C 0.90042 0.42391 0.38339 0.0
C401 C 0.9051 0.40987 0.33765 0.0
C402 C 0.88773 0.40802 0.37442 0.0
N403 N 0.89009 0.40126 0.35175 0.0
C404 C 0.91807 0.42579 0.34603 0.0
C405 C 0.91567 0.43284 0.36906 0.0
C406 C 0.90088 0.3609 0.30506 0.0
C407 C 0.8615 0.28992 0.32227 0.0
C408 C 0.88192 0.31337 0.28844 0.0
C409 C 0.88893 0.29318 0.29346 0.0
C410 C 0.87863 0.28141 0.31052 0.0
N411 N 0.8651 0.32161 0.30005 0.0
C412 C 0.85493 0.31016 0.31678 0.0
Co413 Co 0.61645 0.86361 0.33136 0.0
Co414 Co 0.65422 0.85342 0.29017 0.0
O415 O 0.64206 0.84871 0.32146 0.0
C416 C 0.64377 0.86617 0.37444 0.0
O417 O 0.66005 0.87118 0.36152 0.0
C418 C 0.66067 0.80667 0.29844 0.0
O419 O 0.6506 0.80669 0.31853 0.0
O420 O 0.62693 0.84583 0.27548 0.0
O421 O 0.6055 0.86431 0.29856 0.0
H422 H 0.65389 0.88346 0.2086 0.0
H423 H 0.62821 0.82445 0.35597 0.0
O424 O 0.62602 0.86319 0.3649 0.0
H425 H 0.55837 0.81092 0.32249 0.0
H426 H 0.55585 0.87845 0.38552 0.0
H427 H 0.59104 0.89841 0.31174 0.0
H428 H 0.57538 0.84516 0.31715 0.0
H429 H 0.58754 0.85988 0.3724 0.0
O430 O 0.66298 0.82345 0.28669 0.0
H431 H 0.64004 0.87712 0.24844 0.0
H432 H 0.69292 0.83966 0.26483 0.0
H433 H 0.55931 0.91728 0.32411 0.0
H434 H 0.61161 0.79006 0.36201 0.0
H435 H 0.54149 0.90737 0.36127 0.0
H436 H 0.57647 0.78309 0.34511 0.0
O437 O 0.63018 0.89122 0.32572 0.0
H438 H 0.71265 0.84359 0.34834 0.0
H439 H 0.68644 0.88665 0.28291 0.0
H440 H 0.71974 0.89602 0.30195 0.0
H441 H 0.73313 0.87434 0.33489 0.0
H442 H 0.67927 0.83505 0.32903 0.0
H443 H 0.70719 0.84537 0.22508 0.0
H444 H 0.68769 0.8675 0.19669 0.0
O445 O 0.64632 0.88381 0.29167 0.0
C446 C 0.60915 0.85375 0.28009 0.0
C447 C 0.66257 0.87384 0.22084 0.0
C448 C 0.69246 0.85243 0.23008 0.0
N449 N 0.66572 0.85818 0.25902 0.0
C450 C 0.65483 0.87025 0.24344 0.0
C451 C 0.68426 0.8492 0.25254 0.0
C452 C 0.68152 0.86486 0.21416 0.0
C453 C 0.61286 0.82159 0.34869 0.0
N454 N 0.60285 0.83679 0.33616 0.0
C455 C 0.60356 0.80206 0.35212 0.0
C456 C 0.58385 0.79815 0.34261 0.0
C457 C 0.5737 0.81375 0.3299 0.0
C458 C 0.58347 0.83309 0.32685 0.0
C459 C 0.56353 0.883 0.36935 0.0
C460 C 0.58346 0.89402 0.32798 0.0
C461 C 0.58158 0.87262 0.3619 0.0
N462 N 0.59135 0.87821 0.34146 0.0
C463 C 0.56545 0.90476 0.33487 0.0
C464 C 0.55546 0.8992 0.35573 0.0
C465 C 0.63924 0.89687 0.30672 0.0
C466 C 0.70702 0.85313 0.33397 0.0
C467 C 0.69201 0.87729 0.29736 0.0
C468 C 0.71096 0.88259 0.308 0.0
C469 C 0.71848 0.87041 0.32645 0.0
N470 N 0.68085 0.8603 0.30477 0.0
C471 C 0.68814 0.8483 0.32287 0.0
Co472 Co 0.88113 0.63374 0.84343 0.0
Co473 Co 0.8514 0.65131 0.7978 0.0
O474 O 0.8586 0.65173 0.83133 0.0
C475 C 0.84973 0.63766 0.88344 0.0
O476 O 0.83595 0.64687 0.86986 0.0
C477 C 0.84935 0.69622 0.78566 0.0
O478 O 0.86442 0.69248 0.77055 0.0
O479 O 0.88084 0.65925 0.79031 0.0
O480 O 0.89695 0.63594 0.81317 0.0
H481 H 0.86419 0.63367 0.71293 0.0
H482 H 0.86854 0.67301 0.86821 0.0
O483 O 0.86689 0.63088 0.87492 0.0
H484 H 0.94442 0.67955 0.85494 0.0
H485 H 0.93154 0.60672 0.9044 0.0
H486 H 0.90537 0.59834 0.82342 0.0
H487 H 0.92549 0.64813 0.8418 0.0
H488 H 0.90406 0.63003 0.88907 0.0
O489 O 0.84324 0.68174 0.79953 0.0
H490 H 0.8721 0.63428 0.75536 0.0
H491 H 0.81609 0.66797 0.7687 0.0
H492 H 0.93299 0.57483 0.83799 0.0
H493 H 0.88692 0.70448 0.882 0.0
H494 H 0.94627 0.57893 0.87876 0.0
H495 H 0.92515 0.70797 0.87537 0.0
O496 O 0.86619 0.6086 0.83115 0.0
H497 H 0.78389 0.65811 0.84235 0.0
H498 H 0.82151 0.61834 0.78131 0.0
H499 H 0.7856 0.60812 0.79199 0.0
H500 H 0.76648 0.62812 0.82266 0.0
H501 H 0.81997 0.66762 0.83134 0.0
H502 H 0.80761 0.66779 0.72641 0.0
H503 H 0.83174 0.65052 0.69821 0.0
O504 O 0.85881 0.62082 0.79519 0.0
C505 C 0.89723 0.64957 0.79687 0.0
C506 C 0.85354 0.64124 0.72505 0.0
C507 C 0.82179 0.66038 0.73261 0.0
N508 N 0.84458 0.65111 0.7645 0.0
C509 C 0.85794 0.64162 0.74909 0.0
C510 C 0.82668 0.66044 0.75653 0.0
C511 C 0.83534 0.65069 0.7168 0.0
C512 C 0.88519 0.67413 0.8656 0.0
N513 N 0.89592 0.65842 0.85465 0.0
C514 C 0.89552 0.69212 0.87331 0.0
C515 C 0.91696 0.69409 0.86955 0.0
C516 C 0.92778 0.67816 0.8581 0.0
C517 C 0.91694 0.66038 0.8507 0.0
C518 C 0.92588 0.60477 0.88661 0.0
C519 C 0.91107 0.60029 0.84116 0.0
C520 C 0.91024 0.61787 0.87785 0.0
N521 N 0.90308 0.61559 0.85534 0.0
C522 C 0.92672 0.5869 0.84932 0.0
C523 C 0.93415 0.58919 0.87221 0.0
C524 C 0.86129 0.60569 0.80961 0.0
C525 C 0.79205 0.64927 0.82897 0.0
C526 C 0.81343 0.62697 0.79488 0.0
C527 C 0.79303 0.62118 0.80075 0.0
C528 C 0.7823 0.63242 0.81793 0.0
N529 N 0.82291 0.64349 0.8058 0.0
C530 C 0.81247 0.6546 0.82263 0.0
Co531 Co 0.37098 0.8813 0.83887 0.0
Co532 Co 0.35398 0.85359 0.79152 0.0
O533 O 0.35366 0.85858 0.8257 0.0
C534 C 0.36784 0.84889 0.87805 0.0
O535 O 0.35825 0.83532 0.8645 0.0
C536 C 0.30981 0.84197 0.80701 0.0
O537 O 0.31372 0.84593 0.82921 0.0
O538 O 0.34443 0.88285 0.78653 0.0
O539 O 0.36828 0.89814 0.80933 0.0
H540 H 0.37118 0.87283 0.70809 0.0
H541 H 0.33238 0.86706 0.86398 0.0
O542 O 0.37442 0.86617 0.86968 0.0
H543 H 0.32352 0.94293 0.85306 0.0
H544 H 0.39658 0.93058 0.90182 0.0
H545 H 0.40588 0.9069 0.81998 0.0
H546 H 0.35531 0.92525 0.83895 0.0
H547 H 0.37397 0.90301 0.88536 0.0
O548 O 0.32383 0.84445 0.79132 0.0
H549 H 0.37083 0.87751 0.75113 0.0
H550 H 0.33709 0.82074 0.75926 0.0
H551 H 0.42869 0.93465 0.83569 0.0
H552 H 0.30055 0.88415 0.8787 0.0
H553 H 0.42412 0.94667 0.8769 0.0
H554 H 0.29587 0.92239 0.87325 0.0
O555 O 0.39642 0.86737 0.82596 0.0
H556 H 0.35379 0.78299 0.83104 0.0
H557 H 0.38704 0.82671 0.77028 0.0
H558 H 0.39971 0.79083 0.77672 0.0
H559 H 0.383 0.76862 0.80721 0.0
H560 H 0.34181 0.81896 0.82424 0.0
H561 H 0.3369 0.81556 0.7163 0.0
H562 H 0.35412 0.84166 0.69041 0.0
O563 O 0.38419 0.86234 0.78956 0.0
C564 C 0.3541 0.89906 0.79365 0.0
C565 C 0.36367 0.86131 0.71919 0.0
C566 C 0.34441 0.82918 0.7238 0.0
N567 N 0.3541 0.84935 0.75772 0.0
C568 C 0.36347 0.86385 0.74358 0.0
C569 C 0.34452 0.83224 0.74811 0.0
C570 C 0.35409 0.84383 0.70928 0.0
C571 C 0.33072 0.88369 0.86177 0.0
N572 N 0.34595 0.89507 0.85083 0.0
C573 C 0.31253 0.8933 0.87005 0.0
C574 C 0.3099 0.91474 0.86696 0.0
C575 C 0.32539 0.92627 0.85564 0.0
C576 C 0.34338 0.91613 0.84764 0.0
C577 C 0.39873 0.92547 0.88384 0.0
C578 C 0.40374 0.91206 0.83791 0.0
C579 C 0.38603 0.90979 0.87444 0.0
N580 N 0.38856 0.90332 0.85169 0.0
C581 C 0.41673 0.92777 0.84672 0.0
C582 C 0.41417 0.9345 0.86984 0.0
C583 C 0.39935 0.86378 0.80411 0.0
C584 C 0.36111 0.79245 0.81758 0.0
C585 C 0.37964 0.81721 0.78361 0.0
C586 C 0.3869 0.79686 0.78715 0.0
C587 C 0.37752 0.78442 0.80425 0.0
N588 N 0.36338 0.82497 0.79661 0.0
C589 C 0.35427 0.81288 0.81354 0.0
Co590 Co 0.12346 0.3713 0.84146 0.0
Co591 Co 0.15083 0.35457 0.79382 0.0
O592 O 0.14585 0.35404 0.82786 0.0
C593 C 0.15653 0.36788 0.87979 0.0
O594 O 0.1696 0.35794 0.86594 0.0
C595 C 0.1545 0.30933 0.78281 0.0
O596 O 0.13764 0.31126 0.76981 0.0
O597 O 0.12144 0.34509 0.78881 0.0
O598 O 0.10607 0.36836 0.81239 0.0
H599 H 0.13153 0.37022 0.71004 0.0
H600 H 0.13849 0.33218 0.86496 0.0
O601 O 0.13925 0.37487 0.87183 0.0
H602 H 0.06213 0.32408 0.85809 0.0
H603 H 0.07572 0.39727 0.90572 0.0
H604 H 0.0972 0.40587 0.82303 0.0
H605 H 0.07949 0.35579 0.84327 0.0
H606 H 0.10298 0.37465 0.88862 0.0
O607 O 0.16089 0.32473 0.79518 0.0
H608 H 0.12652 0.36993 0.75303 0.0
H609 H 0.18499 0.33946 0.76202 0.0
H610 H 0.06973 0.42867 0.83937 0.0
H611 H 0.12173 0.30045 0.88034 0.0
H612 H 0.05881 0.42445 0.88101 0.0
H613 H 0.08325 0.29616 0.87697 0.0
O614 O 0.13704 0.39673 0.8281 0.0
H615 H 0.22123 0.3524 0.83295 0.0
H616 H 0.17764 0.38885 0.77441 0.0
H617 H 0.2135 0.40126 0.78196 0.0
H618 H 0.2356 0.38295 0.81137 0.0
H619 H 0.18517 0.34065 0.82504 0.0
H620 H 0.19057 0.3393 0.71914 0.0
H621 H 0.16374 0.35481 0.69282 0.0
O622 O 0.14165 0.3846 0.79155 0.0
C623 C 0.10521 0.35454 0.79628 0.0
C624 C 0.14334 0.36342 0.72132 0.0
C625 C 0.17647 0.34607 0.72642 0.0
N626 N 0.15543 0.35468 0.76004 0.0
C627 C 0.14059 0.36321 0.74568 0.0
C628 C 0.1732 0.34617 0.75069 0.0
C629 C 0.16141 0.35477 0.71167 0.0
C630 C 0.12174 0.33077 0.8638 0.0
N631 N 0.11002 0.34625 0.8538 0.0
C632 C 0.11233 0.3126 0.87239 0.0
C633 C 0.09074 0.31018 0.87044 0.0
C634 C 0.07889 0.32584 0.85987 0.0
C635 C 0.08885 0.3438 0.85153 0.0
C636 C 0.08034 0.39926 0.88755 0.0
C637 C 0.09251 0.40387 0.84113 0.0
C638 C 0.09584 0.38655 0.87778 0.0
N639 N 0.10167 0.38888 0.85479 0.0
C640 C 0.07696 0.41686 0.85031 0.0
C641 C 0.07085 0.4145 0.87367 0.0
C642 C 0.14025 0.39972 0.80618 0.0
C643 C 0.21176 0.36051 0.82009 0.0
C644 C 0.18706 0.3809 0.78739 0.0
C645 C 0.20741 0.38795 0.79151 0.0
C646 C 0.21981 0.37766 0.80799 0.0
N647 N 0.17927 0.36406 0.79934 0.0
C648 C 0.19134 0.35391 0.81551 0.0
Co649 Co 0.63256 0.12299 0.84144 0.0
Co650 Co 0.65101 0.15142 0.79533 0.0
O651 O 0.65072 0.14526 0.82912 0.0
C652 C 0.63577 0.15518 0.88072 0.0
O653 O 0.64596 0.16839 0.8673 0.0
C654 C 0.69625 0.15404 0.7847 0.0
O655 O 0.69333 0.1384 0.77009 0.0
O656 O 0.65957 0.12193 0.78922 0.0
O657 O 0.63566 0.10635 0.81181 0.0
H658 H 0.63608 0.13576 0.71041 0.0
H659 H 0.67138 0.13638 0.86672 0.0
O660 O 0.6288 0.13806 0.87229 0.0
H661 H 0.67804 0.06015 0.85682 0.0
H662 H 0.60406 0.07421 0.90324 0.0
H663 H 0.59774 0.09814 0.82117 0.0
H664 H 0.64702 0.07866 0.84189 0.0
H665 H 0.62771 0.10135 0.88773 0.0
O666 O 0.68122 0.16021 0.79779 0.0
H667 H 0.63555 0.12915 0.75311 0.0
H668 H 0.66786 0.18614 0.76549 0.0
H669 H 0.57392 0.07084 0.83592 0.0
H670 H 0.70242 0.11845 0.88225 0.0
H671 H 0.57699 0.05868 0.87724 0.0
H672 H 0.70597 0.08003 0.87735 0.0
O673 O 0.60772 0.13755 0.82793 0.0
H674 H 0.65529 0.22038 0.83741 0.0
H675 H 0.61789 0.18003 0.77666 0.0
H676 H 0.6067 0.21604 0.78556 0.0
H677 H 0.62549 0.23652 0.81608 0.0
H678 H 0.6658 0.1842 0.82816 0.0
H679 H 0.66881 0.19333 0.72292 0.0
H680 H 0.65281 0.16804 0.69506 0.0
O681 O 0.62074 0.14338 0.79199 0.0
C682 C 0.64968 0.1057 0.7959 0.0
C683 C 0.64309 0.1469 0.72237 0.0
C684 C 0.66145 0.17921 0.72939 0.0
N685 N 0.65163 0.15724 0.7618 0.0
C686 C 0.64283 0.14324 0.74658 0.0
C687 C 0.66087 0.17505 0.75348 0.0
C688 C 0.65248 0.16502 0.71377 0.0
C689 C 0.67249 0.11966 0.86487 0.0
N690 N 0.657 0.1086 0.85392 0.0
C691 C 0.69025 0.10958 0.87355 0.0
C692 C 0.69226 0.08803 0.87075 0.0
C693 C 0.6766 0.07688 0.85926 0.0
C694 C 0.65904 0.08748 0.85085 0.0
C695 C 0.60257 0.07937 0.8852 0.0
C696 C 0.59924 0.09291 0.83915 0.0
C697 C 0.61586 0.0948 0.87634 0.0
N698 N 0.61417 0.10132 0.85352 0.0
C699 C 0.58568 0.07745 0.84741 0.0
C700 C 0.5874 0.07066 0.8706 0.0
C701 C 0.60528 0.14162 0.80611 0.0
C702 C 0.64697 0.21162 0.82408 0.0
C703 C 0.62603 0.18873 0.79014 0.0
C704 C 0.61968 0.20918 0.79501 0.0
C705 C 0.63024 0.22066 0.81212 0.0
N706 N 0.64246 0.17996 0.80195 0.0
C707 C 0.65288 0.19114 0.81873 0.0
Co708 Co 0.88065 0.37302 0.66912 0.0
Co709 Co 0.8508 0.35489 0.71441 0.0
O710 O 0.85806 0.35494 0.6809 0.0
C711 C 0.84923 0.36975 0.62913 0.0
O712 O 0.83552 0.36017 0.64249 0.0
C713 C 0.84874 0.30973 0.7255 0.0
O714 O 0.86389 0.31313 0.74061 0.0
O715 O 0.88019 0.34682 0.72184 0.0
O716 O 0.89648 0.3703 0.69929 0.0
H717 H 0.86335 0.37118 0.79966 0.0
H718 H 0.86788 0.33418 0.64359 0.0
O719 O 0.86638 0.37644 0.63776 0.0
H720 H 0.94374 0.32718 0.65655 0.0
H721 H 0.93104 0.4008 0.60853 0.0
H722 H 0.90509 0.40799 0.68976 0.0
H723 H 0.92492 0.3584 0.67049 0.0
H724 H 0.90348 0.37737 0.62348 0.0
O725 O 0.8426 0.3245 0.71205 0.0
H726 H 0.87136 0.37129 0.75724 0.0
H727 H 0.81543 0.33773 0.74307 0.0
H728 H 0.9328 0.43161 0.67557 0.0
H729 H 0.88614 0.30291 0.62905 0.0
H730 H 0.94597 0.42811 0.63468 0.0
H731 H 0.92437 0.2992 0.6355 0.0
O732 O 0.86583 0.39802 0.6819 0.0
H733 H 0.78335 0.34882 0.66963 0.0
H734 H 0.82094 0.38765 0.73144 0.0
H735 H 0.78506 0.39809 0.72089 0.0
H736 H 0.76597 0.37856 0.68983 0.0
H737 H 0.81938 0.3391 0.68052 0.0
H738 H 0.80686 0.33717 0.78533 0.0
H739 H 0.8309 0.35401 0.81395 0.0
O740 O 0.85825 0.38534 0.71762 0.0
C741 C 0.89661 0.35658 0.71551 0.0
C742 C 0.85274 0.3638 0.78736 0.0
C743 C 0.82104 0.34472 0.77932 0.0
N744 N 0.84388 0.35457 0.74768 0.0
C745 C 0.8572 0.36383 0.76332 0.0
C746 C 0.82599 0.34508 0.75541 0.0
C747 C 0.83453 0.35416 0.79537 0.0
C748 C 0.88453 0.33297 0.64613 0.0
N749 N 0.89532 0.34846 0.65739 0.0
C750 C 0.89479 0.31509 0.638 0.0
C751 C 0.91623 0.31299 0.64166 0.0
C752 C 0.9271 0.32869 0.65346 0.0
C753 C 0.91633 0.34636 0.6613 0.0
C754 C 0.92543 0.40248 0.62638 0.0
C755 C 0.91076 0.4063 0.67197 0.0
C756 C 0.90976 0.38931 0.63493 0.0
N757 N 0.90266 0.39126 0.65751 0.0
C758 C 0.92644 0.41975 0.66402 0.0
C759 C 0.93381 0.41779 0.64107 0.0
C760 C 0.86087 0.40065 0.70347 0.0
C761 C 0.7915 0.35746 0.68319 0.0
C762 C 0.81287 0.37923 0.71771 0.0
C763 C 0.79249 0.38514 0.71191 0.0
C764 C 0.78177 0.37416 0.69451 0.0
N765 N 0.82234 0.36286 0.7065 0.0
C766 C 0.8119 0.352 0.68946 0.0
Co767 Co 0.63344 0.8812 0.66572 0.0
Co768 Co 0.65126 0.85203 0.7116 0.0
O769 O 0.65139 0.85869 0.67791 0.0
C770 C 0.63666 0.84945 0.62593 0.0
O771 O 0.64636 0.83583 0.63927 0.0
C772 C 0.69631 0.84954 0.72302 0.0
O773 O 0.69298 0.86492 0.73786 0.0
O774 O 0.65967 0.88144 0.71845 0.0
O775 O 0.63617 0.8974 0.69568 0.0
H776 H 0.63502 0.86631 0.79653 0.0
H777 H 0.67231 0.86799 0.64053 0.0
O778 O 0.63 0.86662 0.63454 0.0
H779 H 0.67957 0.94396 0.65236 0.0
H780 H 0.60612 0.93114 0.60445 0.0
H781 H 0.59837 0.90582 0.68585 0.0
H782 H 0.64824 0.92544 0.66649 0.0
H783 H 0.62942 0.90367 0.61984 0.0
O784 O 0.68155 0.84337 0.70954 0.0
H785 H 0.63514 0.87361 0.75396 0.0
H786 H 0.66774 0.81689 0.74104 0.0
H787 H 0.57489 0.93345 0.67122 0.0
H788 H 0.70368 0.88595 0.62579 0.0
H789 H 0.57867 0.9463 0.63025 0.0
H790 H 0.70752 0.92424 0.63167 0.0
O791 O 0.60836 0.86657 0.67859 0.0
H792 H 0.65632 0.78373 0.66828 0.0
H793 H 0.61788 0.82309 0.72905 0.0
H794 H 0.60689 0.78719 0.71924 0.0
H795 H 0.62621 0.76722 0.6887 0.0
H796 H 0.66662 0.81979 0.67844 0.0
H797 H 0.66802 0.80902 0.78347 0.0
H798 H 0.65155 0.83382 0.81154 0.0
O799 O 0.62092 0.85997 0.71457 0.0
C800 C 0.64989 0.89778 0.7119 0.0
C801 C 0.64223 0.85538 0.78448 0.0
C802 C 0.66075 0.82322 0.77715 0.0
N803 N 0.65139 0.84569 0.74502 0.0
C804 C 0.64234 0.85943 0.76035 0.0
C805 C 0.66054 0.82777 0.75314 0.0
C806 C 0.65151 0.83714 0.79288 0.0
C807 C 0.67358 0.88467 0.64282 0.0
N808 N 0.6581 0.89565 0.65388 0.0
C809 C 0.69151 0.89476 0.63458 0.0
C810 C 0.69369 0.91623 0.63793 0.0
C811 C 0.67801 0.9273 0.64951 0.0
C812 C 0.66028 0.91669 0.65747 0.0
C813 C 0.60431 0.92567 0.62234 0.0
C814 C 0.60018 0.91135 0.66802 0.0
C815 C 0.6174 0.91005 0.63113 0.0
N816 N 0.61531 0.90313 0.65376 0.0
C817 C 0.58681 0.92699 0.65982 0.0
C818 C 0.58893 0.93418 0.63683 0.0
C819 C 0.60564 0.86217 0.70029 0.0
C820 C 0.64778 0.79227 0.68162 0.0
C821 C 0.62625 0.8146 0.71558 0.0
C822 C 0.62002 0.79423 0.71018 0.0
C823 C 0.63088 0.78302 0.69307 0.0
N824 N 0.64286 0.82357 0.70427 0.0
C825 C 0.65357 0.81268 0.68748 0.0
Co826 Co 0.1228 0.63508 0.67038 0.0
Co827 Co 0.15098 0.65222 0.71723 0.0
O828 O 0.14528 0.65263 0.68332 0.0
C829 C 0.15509 0.63868 0.6312 0.0
O830 O 0.16835 0.64871 0.64472 0.0
C831 C 0.1544 0.69748 0.72816 0.0
O832 O 0.13798 0.69529 0.74182 0.0
O833 O 0.12158 0.66138 0.72299 0.0
O834 O 0.10603 0.63783 0.69994 0.0
H835 H 0.13368 0.63637 0.80152 0.0
H836 H 0.13686 0.67429 0.64636 0.0
O837 O 0.13797 0.63166 0.63955 0.0
H838 H 0.06061 0.68164 0.65569 0.0
H839 H 0.07396 0.60842 0.60756 0.0
H840 H 0.09736 0.60021 0.68961 0.0
H841 H 0.07863 0.65005 0.6698 0.0
H842 H 0.10131 0.63141 0.62383 0.0
O843 O 0.16065 0.68218 0.71554 0.0
H844 H 0.12773 0.63662 0.75869 0.0
H845 H 0.18562 0.66778 0.74806 0.0
H846 H 0.06984 0.57704 0.67409 0.0
H847 H 0.11942 0.70591 0.63163 0.0
H848 H 0.05794 0.58106 0.63278 0.0
H849 H 0.081 0.70982 0.63626 0.0
O850 O 0.13695 0.60983 0.68339 0.0
H851 H 0.22052 0.65522 0.67622 0.0
H852 H 0.17858 0.61827 0.73592 0.0
H853 H 0.21443 0.6063 0.72742 0.0
H854 H 0.2357 0.62486 0.69743 0.0
H855 H 0.1845 0.66652 0.68508 0.0
H856 H 0.19215 0.66798 0.79076 0.0
H857 H 0.16609 0.65214 0.81782 0.0
O858 O 0.14219 0.62208 0.71979 0.0
C859 C 0.1053 0.65175 0.71594 0.0
C860 C 0.14516 0.64331 0.78991 0.0
C861 C 0.17797 0.66105 0.78388 0.0
N862 N 0.15629 0.6522 0.75087 0.0
C863 C 0.14187 0.6435 0.76564 0.0
C864 C 0.17417 0.66093 0.75971 0.0
C865 C 0.16334 0.65217 0.79905 0.0
C866 C 0.12013 0.67555 0.64806 0.0
N867 N 0.1088 0.65994 0.6584 0.0
C868 C 0.11033 0.69365 0.63984 0.0
C869 C 0.08879 0.69585 0.64249 0.0
C870 C 0.07734 0.68005 0.65337 0.0
C871 C 0.08766 0.66216 0.66131 0.0
C872 C 0.079 0.60652 0.62559 0.0
C873 C 0.09225 0.60213 0.67164 0.0
C874 C 0.09456 0.61943 0.63489 0.0
N875 N 0.10093 0.61721 0.6577 0.0
C876 C 0.07667 0.58893 0.66294 0.0
C877 C 0.07001 0.59118 0.63975 0.0
C878 C 0.14059 0.60692 0.70523 0.0
C879 C 0.21141 0.647 0.68933 0.0
C880 C 0.18764 0.62632 0.72269 0.0
C881 C 0.20798 0.61953 0.71803 0.0
C882 C 0.21991 0.62996 0.70122 0.0
N883 N 0.1794 0.64306 0.71094 0.0
C884 C 0.19102 0.65335 0.69445 0.0
Co885 Co 0.37038 0.12547 0.66805 0.0
Co886 Co 0.35366 0.15277 0.71585 0.0
O887 O 0.35312 0.14803 0.68164 0.0
C888 C 0.36658 0.15809 0.62921 0.0
O889 O 0.3567 0.17132 0.64292 0.0
C890 C 0.30943 0.16452 0.70081 0.0
O891 O 0.31319 0.16064 0.67856 0.0
O892 O 0.34415 0.12347 0.72063 0.0
O893 O 0.36781 0.10833 0.69741 0.0
H894 H 0.37132 0.13294 0.79897 0.0
H895 H 0.33143 0.13982 0.64358 0.0
O896 O 0.37365 0.14094 0.63741 0.0
H897 H 0.32312 0.06378 0.65336 0.0
H898 H 0.39587 0.07708 0.60418 0.0
H899 H 0.40527 0.09958 0.68642 0.0
H900 H 0.35491 0.08148 0.66744 0.0
H901 H 0.37332 0.10444 0.62117 0.0
O902 O 0.32353 0.16192 0.71636 0.0
H903 H 0.37074 0.12857 0.7559 0.0
H904 H 0.33694 0.18537 0.74854 0.0
H905 H 0.42802 0.07203 0.67018 0.0
H906 H 0.29962 0.12273 0.6289 0.0
H907 H 0.4234 0.06059 0.62877 0.0
H908 H 0.29521 0.08439 0.63377 0.0
O909 O 0.39589 0.13928 0.68095 0.0
H910 H 0.35324 0.22367 0.67702 0.0
H911 H 0.38683 0.17951 0.73709 0.0
H912 H 0.39945 0.21545 0.73092 0.0
H913 H 0.38257 0.23788 0.70077 0.0
H914 H 0.34131 0.18764 0.68356 0.0
H915 H 0.33697 0.19024 0.79154 0.0
H916 H 0.35435 0.16396 0.81706 0.0
O917 O 0.38386 0.14399 0.71749 0.0
C918 C 0.35374 0.10731 0.71324 0.0
C919 C 0.36375 0.14453 0.78803 0.0
C920 C 0.34445 0.17668 0.78386 0.0
N921 N 0.35397 0.15676 0.74969 0.0
C922 C 0.36342 0.14216 0.76362 0.0
C923 C 0.34444 0.1738 0.75952 0.0
C924 C 0.35421 0.16193 0.79817 0.0
C925 C 0.32991 0.12317 0.64552 0.0
N926 N 0.3453 0.11175 0.65611 0.0
C927 C 0.31172 0.11354 0.63727 0.0
C928 C 0.30924 0.09205 0.64004 0.0
C929 C 0.32489 0.08048 0.65102 0.0
C930 C 0.34287 0.09064 0.659 0.0
C931 C 0.39804 0.08192 0.62225 0.0
C932 C 0.4031 0.09467 0.66841 0.0
C933 C 0.38537 0.09748 0.63195 0.0
N934 N 0.38792 0.10361 0.65481 0.0
C935 C 0.41606 0.07907 0.6593 0.0
C936 C 0.41347 0.07267 0.63606 0.0
C937 C 0.39894 0.14265 0.70282 0.0
C938 C 0.36064 0.21411 0.69032 0.0
C939 C 0.37936 0.1891 0.72391 0.0
C940 C 0.38659 0.20948 0.72052 0.0
C941 C 0.37711 0.22206 0.70362 0.0
N942 N 0.36304 0.18142 0.71095 0.0
C943 C 0.35383 0.19364 0.69422 0.0
H944 H 0.34902 0.2169 0.2694 0.0
H945 H 0.32915 0.24679 0.2546 0.0
H946 H 0.28975 0.24455 0.31622 0.0
H947 H 0.31063 0.21566 0.33175 0.0
H948 H 0.29228 0.24845 0.2407 0.0
H949 H 0.2965 0.30528 0.3134 0.0
H950 H 0.31261 0.28217 0.3128 0.0
H951 H 0.28621 0.28102 0.32399 0.0
C952 C 0.33648 0.22325 0.28006 0.0
C953 C 0.33154 0.21421 0.30186 0.0
C954 C 0.32502 0.24025 0.27154 0.0
C955 C 0.30801 0.24829 0.28435 0.0
C956 C 0.30319 0.2393 0.30629 0.0
H957 H 0.20057 0.30698 0.22042 0.0
H958 H 0.22834 0.2835 0.23301 0.0
C959 C 0.31508 0.22267 0.31515 0.0
C960 C 0.29434 0.26478 0.27382 0.0
H961 H 0.26799 0.30993 0.28616 0.0
C962 C 0.28728 0.26206 0.25059 0.0
C963 C 0.28798 0.28286 0.28634 0.0
C964 C 0.29644 0.28811 0.31039 0.0
C965 C 0.27369 0.27644 0.23986 0.0
C966 C 0.26598 0.29359 0.25306 0.0
C967 C 0.27355 0.29668 0.27603 0.0
C968 C 0.24961 0.30808 0.24382 0.0
C969 C 0.26813 0.27317 0.21434 0.0
C970 C 0.25186 0.32987 0.24614 0.0
C971 C 0.23561 0.34337 0.23963 0.0
C972 C 0.2169 0.3354 0.23028 0.0
C973 C 0.21494 0.31368 0.22715 0.0
C974 C 0.23094 0.30018 0.23424 0.0
H975 H 0.28097 0.26507 0.20481 0.0
H976 H 0.25406 0.26306 0.21315 0.0
H977 H 0.26487 0.2882 0.20529 0.0
H978 H 0.26604 0.33645 0.2535 0.0
H979 H 0.23753 0.36003 0.24237 0.0
H980 H 0.8091 0.30379 0.2874 0.0
H981 H 0.78147 0.28024 0.27439 0.0
H982 H 0.74221 0.33323 0.25826 0.0
H983 H 0.77062 0.35691 0.26951 0.0
H984 H 0.74499 0.27069 0.28593 0.0
H985 H 0.73845 0.30526 0.19709 0.0
H986 H 0.75843 0.31319 0.21753 0.0
H987 H 0.73241 0.32396 0.21953 0.0
C988 C 0.79453 0.31045 0.28122 0.0
C989 C 0.79212 0.33222 0.2792 0.0
C990 C 0.77869 0.29694 0.27373 0.0
C991 C 0.75986 0.30485 0.26455 0.0
C992 C 0.75685 0.32664 0.26425 0.0
H993 H 0.65751 0.21515 0.2439 0.0
H994 H 0.67908 0.24403 0.25837 0.0
C995 C 0.77298 0.34019 0.27103 0.0
C996 C 0.74371 0.29018 0.2551 0.0
H997 H 0.71293 0.27993 0.20728 0.0
C998 C 0.73807 0.27272 0.26867 0.0
C999 C 0.73486 0.29246 0.23236 0.0
C1000 C 0.74152 0.30959 0.2157 0.0
C1001 C 0.72415 0.25747 0.2602 0.0
C1002 C 0.7145 0.2603 0.23796 0.0
C1003 C 0.72001 0.27784 0.22445 0.0
C1004 C 0.69949 0.24477 0.22795 0.0
C1005 C 0.72083 0.23804 0.27483 0.0
C1006 C 0.70253 0.23669 0.20517 0.0
C1007 C 0.68953 0.22084 0.19644 0.0
C1008 C 0.67351 0.21256 0.21049 0.0
C1009 C 0.66985 0.22125 0.23279 0.0
C1010 C 0.68239 0.23753 0.2412 0.0
H1011 H 0.7342 0.23521 0.28688 0.0
H1012 H 0.70664 0.24005 0.28584 0.0
H1013 H 0.71879 0.22397 0.26362 0.0
H1014 H 0.71546 0.24205 0.19445 0.0
H1015 H 0.6928 0.21423 0.17929 0.0
H1016 H 0.78018 0.68406 0.1832 0.0
H1017 H 0.75155 0.70522 0.19949 0.0
H1018 H 0.76603 0.68258 0.26901 0.0
H1019 H 0.79491 0.66208 0.25305 0.0
H1020 H 0.71606 0.69757 0.22532 0.0
H1021 H 0.77174 0.74479 0.27798 0.0
H1022 H 0.78028 0.72669 0.25565 0.0
H1023 H 0.77311 0.71738 0.2844 0.0
C1024 C 0.77705 0.6834 0.2019 0.0
C1025 C 0.78996 0.67162 0.21687 0.0
C1026 C 0.76073 0.69553 0.21121 0.0
C1027 C 0.757 0.69594 0.23558 0.0
C1028 C 0.769 0.68305 0.25027 0.0
H1029 H 0.67358 0.77219 0.32347 0.0
H1030 H 0.6951 0.74304 0.30886 0.0
C1031 C 0.78542 0.67121 0.24107 0.0
C1032 C 0.74126 0.71047 0.24583 0.0
H1033 H 0.73572 0.75083 0.28482 0.0
C1034 C 0.72036 0.7092 0.23832 0.0
C1035 C 0.74687 0.72575 0.26277 0.0
C1036 C 0.76924 0.72892 0.27051 0.0
C1037 C 0.70496 0.72269 0.24741 0.0
C1038 C 0.71061 0.73784 0.26437 0.0
C1039 C 0.7314 0.73898 0.27206 0.0
C1040 C 0.69568 0.75392 0.27286 0.0
C1041 C 0.68274 0.7207 0.23883 0.0
C1042 C 0.68883 0.76956 0.25744 0.0
C1043 C 0.67682 0.78623 0.26573 0.0
C1044 C 0.67127 0.78759 0.28964 0.0
C1045 C 0.67747 0.77149 0.30495 0.0
C1046 C 0.68979 0.75489 0.29665 0.0
H1047 H 0.67993 0.70544 0.23002 0.0
H1048 H 0.67154 0.72243 0.25363 0.0
H1049 H 0.6795 0.73333 0.22596 0.0
H1050 H 0.69345 0.76929 0.23912 0.0
H1051 H 0.67227 0.79835 0.25345 0.0
H1052 H 0.36098 0.77264 0.24833 0.0
H1053 H 0.33759 0.74351 0.2575 0.0
H1054 H 0.28895 0.77215 0.21601 0.0
H1055 H 0.31243 0.80097 0.20621 0.0
H1056 H 0.30237 0.74556 0.2818 0.0
H1057 H 0.28421 0.71284 0.19414 0.0
H1058 H 0.30529 0.73114 0.19878 0.0
H1059 H 0.27881 0.74031 0.19563 0.0
C1060 C 0.34546 0.77249 0.24069 0.0
C1061 C 0.33863 0.7891 0.22644 0.0
C1062 C 0.33206 0.75585 0.24604 0.0
C1063 C 0.31151 0.75547 0.23732 0.0
C1064 C 0.30486 0.77175 0.22251 0.0
H1065 H 0.2041 0.69486 0.30004 0.0
H1066 H 0.23298 0.71816 0.28995 0.0
C1067 C 0.31833 0.78829 0.21695 0.0
C1068 C 0.29661 0.73898 0.24521 0.0
H1069 H 0.26119 0.70303 0.22551 0.0
C1070 C 0.29353 0.73611 0.26946 0.0
C1071 C 0.28522 0.72642 0.2292 0.0
C1072 C 0.2887 0.72766 0.203 0.0
C1073 C 0.27906 0.72147 0.27812 0.0
C1074 C 0.26688 0.70969 0.2621 0.0
C1075 C 0.27035 0.71216 0.23785 0.0
C1076 C 0.25018 0.69501 0.26996 0.0
C1077 C 0.27717 0.71863 0.30437 0.0
C1078 C 0.25005 0.67421 0.26202 0.0
C1079 C 0.23339 0.6609 0.26754 0.0
C1080 C 0.21649 0.66807 0.28117 0.0
C1081 C 0.21699 0.6887 0.2898 0.0
C1082 C 0.23356 0.70207 0.28407 0.0
H1083 H 0.29176 0.72336 0.31354 0.0
H1084 H 0.26432 0.72868 0.31106 0.0
H1085 H 0.2736 0.70215 0.30899 0.0
H1086 H 0.26265 0.66839 0.2511 0.0
H1087 H 0.23348 0.64513 0.26056 0.0
H1088 H 0.73227 0.85946 0.74648 0.0
H1089 H 0.76133 0.83618 0.75622 0.0
H1090 H 0.73183 0.7864 0.71721 0.0
H1091 H 0.70306 0.80974 0.70685 0.0
H1092 H 0.75945 0.80169 0.78192 0.0
H1093 H 0.79082 0.7808 0.69439 0.0
H1094 H 0.7727 0.8021 0.6986 0.0
H1095 H 0.76333 0.7756 0.69658 0.0
C1096 C 0.7322 0.8437 0.73951 0.0
C1097 C 0.71537 0.83652 0.72578 0.0
C1098 C 0.74879 0.83036 0.74519 0.0
C1099 C 0.74893 0.80954 0.73731 0.0
C1100 C 0.73241 0.80251 0.72306 0.0
H1101 H 0.80993 0.70369 0.8026 0.0
H1102 H 0.78668 0.73248 0.7921 0.0
C1103 C 0.7159 0.8159 0.71717 0.0
C1104 C 0.76548 0.79482 0.74545 0.0
H1105 H 0.801 0.7587 0.72641 0.0
C1106 C 0.76869 0.79246 0.76975 0.0
C1107 C 0.77776 0.78292 0.72965 0.0
C1108 C 0.77615 0.78563 0.70336 0.0
C1109 C 0.7834 0.77818 0.77867 0.0
C1110 C 0.79489 0.76549 0.76288 0.0
C1111 C 0.79208 0.76825 0.73857 0.0
C1112 C 0.80961 0.74896 0.77108 0.0
C1113 C 0.7866 0.77705 0.80492 0.0
C1114 C 0.83028 0.74847 0.76272 0.0
C1115 C 0.84356 0.73186 0.76848 0.0
C1116 C 0.83648 0.71537 0.78277 0.0
C1117 C 0.81602 0.71627 0.79184 0.0
C1118 C 0.80268 0.73279 0.78588 0.0
H1119 H 0.78208 0.79193 0.81364 0.0
H1120 H 0.77659 0.76446 0.81224 0.0
H1121 H 0.80314 0.77353 0.80937 0.0
H1122 H 0.836 0.76073 0.75126 0.0
H1123 H 0.8592 0.73164 0.76115 0.0
H1124 H 0.1438 0.73661 0.74356 0.0
H1125 H 0.16754 0.7652 0.75408 0.0
H1126 H 0.22028 0.72709 0.73383 0.0
H1127 H 0.19662 0.69926 0.72179 0.0
H1128 H 0.19426 0.76777 0.78639 0.0
H1129 H 0.23871 0.77911 0.70448 0.0
H1130 H 0.21556 0.76308 0.70546 0.0
H1131 H 0.24072 0.75237 0.71339 0.0
C1132 C 0.16044 0.73462 0.74075 0.0
C1133 C 0.1683 0.71578 0.73159 0.0
C1134 C 0.17404 0.75091 0.74691 0.0
C1135 C 0.19582 0.74858 0.74446 0.0
C1136 C 0.2036 0.72976 0.73514 0.0
H1137 H 0.2887 0.81139 0.83052 0.0
H1138 H 0.25977 0.79015 0.81563 0.0
C1139 C 0.19001 0.71372 0.72837 0.0
C1140 C 0.21043 0.76508 0.75325 0.0
H1141 H 0.25559 0.791 0.73999 0.0
C1142 C 0.20748 0.7731 0.77604 0.0
C1143 C 0.22753 0.77249 0.73976 0.0
C1144 C 0.23064 0.76647 0.71434 0.0
C1145 C 0.22139 0.7877 0.78593 0.0
C1146 C 0.23944 0.79377 0.77315 0.0
C1147 C 0.24202 0.78624 0.75009 0.0
C1148 C 0.25601 0.80763 0.78324 0.0
C1149 C 0.21625 0.79667 0.80978 0.0
C1150 C 0.26408 0.82431 0.76991 0.0
C1151 C 0.28113 0.83594 0.77807 0.0
C1152 C 0.29016 0.83153 0.80001 0.0
C1153 C 0.28169 0.81542 0.81379 0.0
C1154 C 0.26503 0.80334 0.8053 0.0
H1155 H 0.19909 0.79684 0.81286 0.0
H1156 H 0.22335 0.7867 0.8236 0.0
H1157 H 0.22225 0.81287 0.81175 0.0
H1158 H 0.25753 0.82804 0.75287 0.0
H1159 H 0.28749 0.84819 0.76703 0.0
H1160 H 0.19692 0.30841 0.78768 0.0
H1161 H 0.22083 0.28132 0.77409 0.0
H1162 H 0.16834 0.24207 0.75589 0.0
H1163 H 0.14428 0.26992 0.76789 0.0
H1164 H 0.23035 0.24447 0.7848 0.0
H1165 H 0.19731 0.2403 0.69502 0.0
H1166 H 0.18899 0.25968 0.71601 0.0
H1167 H 0.17829 0.23359 0.71687 0.0
C1168 C 0.19043 0.29395 0.78095 0.0
C1169 C 0.16868 0.29139 0.77862 0.0
C1170 C 0.20416 0.27843 0.77311 0.0
C1171 C 0.1965 0.25978 0.76321 0.0
C1172 C 0.17473 0.2566 0.76248 0.0
H1173 H 0.28681 0.15832 0.74061 0.0
H1174 H 0.25772 0.17948 0.7553 0.0
C1175 C 0.16097 0.27241 0.76968 0.0
C1176 C 0.21142 0.244 0.7535 0.0
H1177 H 0.22272 0.21474 0.70476 0.0
C1178 C 0.22867 0.23805 0.76725 0.0
C1179 C 0.20959 0.23582 0.73039 0.0
C1180 C 0.19268 0.24285 0.71364 0.0
C1181 C 0.24414 0.22446 0.75861 0.0
C1182 C 0.24178 0.21548 0.73595 0.0
C1183 C 0.22446 0.2213 0.72224 0.0
C1184 C 0.25756 0.20084 0.72574 0.0
C1185 C 0.2633 0.22075 0.77358 0.0
C1186 C 0.26609 0.20462 0.70332 0.0
C1187 C 0.28209 0.1919 0.69443 0.0
C1188 C 0.29009 0.1754 0.70797 0.0
C1189 C 0.28097 0.17105 0.7299 0.0
C1190 C 0.26456 0.18334 0.73845 0.0
H1191 H 0.26584 0.23374 0.78625 0.0
H1192 H 0.26113 0.20622 0.78395 0.0
H1193 H 0.27759 0.21912 0.76265 0.0
H1194 H 0.26093 0.21789 0.69301 0.0
H1195 H 0.28899 0.1957 0.67757 0.0
H1196 H 0.70222 0.19392 0.80097 0.0
H1197 H 0.73042 0.21793 0.79046 0.0
H1198 H 0.76108 0.16877 0.75162 0.0
H1199 H 0.73258 0.14479 0.76146 0.0
H1200 H 0.77182 0.21923 0.79707 0.0
H1201 H 0.75535 0.21296 0.70162 0.0
H1202 H 0.7382 0.20211 0.72364 0.0
H1203 H 0.76153 0.18834 0.71504 0.0
C1204 C 0.7151 0.18808 0.79047 0.0
C1205 C 0.71503 0.16744 0.78188 0.0
C1206 C 0.7312 0.20189 0.78439 0.0
C1207 C 0.74762 0.19535 0.76971 0.0
C1208 C 0.74827 0.17438 0.76236 0.0
H1209 H 0.85866 0.27356 0.74856 0.0
H1210 H 0.83526 0.24451 0.75811 0.0
C1211 C 0.73206 0.16062 0.76821 0.0
C1212 C 0.76365 0.21065 0.76165 0.0
H1213 H 0.78521 0.23264 0.7125 0.0
C1214 C 0.77478 0.22212 0.77858 0.0
C1215 C 0.76724 0.21474 0.7375 0.0
C1216 C 0.75482 0.20406 0.71839 0.0
C1217 C 0.78939 0.2375 0.77207 0.0
C1218 C 0.79349 0.24111 0.74792 0.0
C1219 C 0.78231 0.22967 0.73099 0.0
C1220 C 0.8085 0.25742 0.73989 0.0
C1221 C 0.79972 0.25022 0.79118 0.0
C1222 C 0.80169 0.2737 0.72519 0.0
C1223 C 0.81518 0.29012 0.71927 0.0
C1224 C 0.83575 0.29063 0.72805 0.0
C1225 C 0.84287 0.27374 0.74169 0.0
C1226 C 0.82943 0.25721 0.74737 0.0
H1227 H 0.79076 0.24956 0.80791 0.0
H1228 H 0.81557 0.24387 0.79463 0.0
H1229 H 0.80133 0.26686 0.78588 0.0
H1230 H 0.78567 0.27415 0.71903 0.0
H1231 H 0.80914 0.3029 0.70879 0.0
H1232 H 0.18296 0.34286 0.90558 0.0
H1233 H 0.18172 0.33675 0.94815 0.0
H1234 H 0.13427 0.38421 0.95517 0.0
H1235 H 0.1353 0.39036 0.91286 0.0
H1236 H 0.18635 0.36344 0.98865 0.0
H1237 H 0.10618 0.33097 0.98141 0.0
H1238 H 0.12289 0.3348 0.95618 0.0
H1239 H 0.109 0.35654 0.96877 0.0
C1240 C 0.17257 0.3523 0.91624 0.0
C1241 C 0.15906 0.36694 0.90573 0.0
C1242 C 0.17181 0.3487 0.94056 0.0
C1243 C 0.15751 0.35964 0.95473 0.0
C1244 C 0.14505 0.37522 0.94449 0.0
H1245 H 0.11692 0.36918 0.0972 0.0
H1246 H 0.12188 0.36956 0.05468 0.0
C1247 C 0.14576 0.3788 0.92028 0.0
C1248 C 0.15489 0.35436 0.98001 0.0
H1249 H 0.11845 0.33828 0.0201 0.0
C1250 C 0.17161 0.3577 0.99554 0.0
C1251 C 0.13565 0.34675 0.98891 0.0
C1252 C 0.11745 0.34185 0.97295 0.0
C1253 C 0.16929 0.35457 0.0199 0.0
C1254 C 0.14984 0.34755 0.02887 0.0
C1255 C 0.13334 0.34365 0.01322 0.0
C1256 C 0.14583 0.34567 0.05454 0.0
C1257 C 0.18738 0.35967 0.03595 0.0
C1258 C 0.15709 0.33154 0.06858 0.0
C1259 C 0.15423 0.33121 0.09304 0.0
C1260 C 0.14007 0.34506 0.10385 0.0
C1261 C 0.12806 0.35839 0.08953 0.0
C1262 C 0.13088 0.35865 0.06517 0.0
H1263 H 0.19976 0.36874 0.02679 0.0
H1264 H 0.18195 0.36876 0.05143 0.0
H1265 H 0.19443 0.34491 0.04244 0.0
H1266 H 0.16841 0.32108 0.06069 0.0
H1267 H 0.16375 0.32077 0.10351 0.0
H1268 H 0.66003 0.18161 0.90737 0.0
H1269 H 0.66437 0.1811 0.95022 0.0
H1270 H 0.61722 0.13315 0.95563 0.0
H1271 H 0.61266 0.13364 0.91302 0.0
H1272 H 0.61421 0.16555 0.99031 0.0
H1273 H 0.69434 0.13199 0.98424 0.0
H1274 H 0.68968 0.15567 0.96803 0.0
H1275 H 0.67647 0.13204 0.95967 0.0
C1276 C 0.65031 0.17123 0.91771 0.0
C1277 C 0.63608 0.15758 0.9067 0.0
C1278 C 0.65297 0.17081 0.94218 0.0
C1279 C 0.64141 0.15678 0.95607 0.0
C1280 C 0.62643 0.14397 0.94525 0.0
H1281 H 0.62862 0.11522 0.09916 0.0
H1282 H 0.62716 0.12097 0.0568 0.0
C1283 C 0.62383 0.1443 0.92086 0.0
C1284 C 0.6452 0.15487 0.98177 0.0
H1285 H 0.68095 0.13797 0.02225 0.0
C1286 C 0.62884 0.15963 0.99731 0.0
C1287 C 0.66432 0.14718 0.99087 0.0
C1288 C 0.68222 0.14125 0.97491 0.0
C1289 C 0.63101 0.1568 0.02168 0.0
C1290 C 0.64989 0.14849 0.03076 0.0
C1291 C 0.66646 0.14423 0.01528 0.0
C1292 C 0.65236 0.14353 0.05617 0.0
C1293 C 0.61305 0.16287 0.03751 0.0
C1294 C 0.66784 0.15338 0.06977 0.0
C1295 C 0.6689 0.14993 0.09411 0.0
C1296 C 0.65448 0.13655 0.10522 0.0
C1297 C 0.63981 0.12582 0.09126 0.0
C1298 C 0.63884 0.1292 0.06702 0.0
H1299 H 0.60255 0.1744 0.02892 0.0
H1300 H 0.60365 0.14876 0.04163 0.0
H1301 H 0.61879 0.16963 0.0543 0.0
H1302 H 0.6786 0.16433 0.06172 0.0
H1303 H 0.68036 0.15849 0.10431 0.0
H1304 H 0.87337 0.61746 0.91634 0.0
H1305 H 0.87405 0.62354 0.95867 0.0
H1306 H 0.82302 0.6672 0.95207 0.0
H1307 H 0.8221 0.66108 0.90955 0.0
H1308 H 0.88223 0.66199 0.97946 0.0
H1309 H 0.80493 0.63153 0.00824 0.0
H1310 H 0.81616 0.62516 0.98 0.0
H1311 H 0.80418 0.65022 0.98468 0.0
C1312 C 0.86202 0.62811 0.92387 0.0
C1313 C 0.8477 0.63881 0.90945 0.0
C1314 C 0.86248 0.6316 0.94812 0.0
C1315 C 0.84857 0.64578 0.95862 0.0
C1316 C 0.83371 0.65594 0.94445 0.0
H1317 H 0.84039 0.6831 0.10747 0.0
H1318 H 0.83644 0.68322 0.06452 0.0
C1319 C 0.8332 0.65242 0.92011 0.0
C1320 C 0.85071 0.65083 0.98406 0.0
H1321 H 0.82575 0.64801 0.03713 0.0
C1322 C 0.86985 0.65898 0.99205 0.0
C1323 C 0.8345 0.64711 1.00048 0.0
C1324 C 0.81382 0.63787 0.99305 0.0
C1325 C 0.87332 0.66323 0.01597 0.0
C1326 C 0.85734 0.65892 0.03249 0.0
C1327 C 0.83798 0.65136 0.02445 0.0
C1328 C 0.86097 0.66058 0.05827 0.0
C1329 C 0.89409 0.67229 0.02335 0.0
C1330 C 0.87623 0.64805 0.069 0.0
C1331 C 0.87855 0.64799 0.09342 0.0
C1332 C 0.86559 0.6604 0.10777 0.0
C1333 C 0.85078 0.67353 0.09696 0.0
C1334 C 0.8484 0.6735 0.07242 0.0
H1335 H 0.90186 0.68058 0.00857 0.0
H1336 H 0.89223 0.68334 0.03826 0.0
H1337 H 0.90457 0.65942 0.02904 0.0
H1338 H 0.88587 0.63768 0.05854 0.0
H1339 H 0.89006 0.63762 0.10112 0.0
H1340 H 0.32066 0.8604 0.10179 0.0
H1341 H 0.31933 0.85353 0.05923 0.0
H1342 H 0.38487 0.86834 0.05352 0.0
H1343 H 0.38635 0.87551 0.09546 0.0
H1344 H 0.33486 0.88311 0.0192 0.0
H1345 H 0.37546 0.80648 0.02557 0.0
H1346 H 0.36127 0.81789 0.04991 0.0
H1347 H 0.38673 0.82757 0.04228 0.0
C1348 C 0.33472 0.86241 0.09143 0.0
C1349 C 0.35363 0.8684 0.1022 0.0
C1350 C 0.33395 0.8584 0.06714 0.0
C1351 C 0.3521 0.86011 0.05335 0.0
C1352 C 0.37077 0.86664 0.06391 0.0
H1353 H 0.38807 0.87286 0.91062 0.0
H1354 H 0.38237 0.87364 0.95299 0.0
C1355 C 0.37153 0.8708 0.08798 0.0
C1356 C 0.35193 0.85518 0.02785 0.0
H1357 H 0.37286 0.82157 0.98739 0.0
C1358 C 0.34285 0.86949 0.01223 0.0
C1359 C 0.36235 0.83737 0.01882 0.0
C1360 C 0.37191 0.8213 0.03495 0.0
C1361 C 0.34476 0.86694 0.98777 0.0
C1362 C 0.35608 0.84969 0.97875 0.0
C1363 C 0.36429 0.83484 0.99435 0.0
C1364 C 0.36067 0.84773 0.95325 0.0
C1365 C 0.3351 0.88299 0.97167 0.0
C1366 C 0.35098 0.83232 0.93943 0.0
C1367 C 0.35415 0.83183 0.91501 0.0
C1368 C 0.36717 0.8467 0.90408 0.0
C1369 C 0.37775 0.86131 0.91831 0.0
C1370 C 0.37448 0.86184 0.94257 0.0
H1371 H 0.32323 0.89267 0.9809 0.0
H1372 H 0.34753 0.89354 0.96498 0.0
H1373 H 0.32762 0.87531 0.9563 0.0
H1374 H 0.34038 0.82117 0.94742 0.0
H1375 H 0.34573 0.8204 0.90463 0.0
H1376 H 0.13324 0.61609 0.59873 0.0
H1377 H 0.1323 0.62132 0.55627 0.0
H1378 H 0.18025 0.66846 0.56207 0.0
H1379 H 0.18144 0.66319 0.60472 0.0
H1380 H 0.12145 0.6588 0.53505 0.0
H1381 H 0.20058 0.6335 0.50626 0.0
H1382 H 0.18992 0.62671 0.53465 0.0
H1383 H 0.20015 0.65247 0.52957 0.0
C1384 C 0.1439 0.62731 0.59099 0.0
C1385 C 0.1574 0.63925 0.60521 0.0
C1386 C 0.14329 0.63032 0.56667 0.0
C1387 C 0.15622 0.64525 0.55592 0.0
C1388 C 0.17035 0.65661 0.56989 0.0
H1389 H 0.16156 0.68303 0.40735 0.0
H1390 H 0.16557 0.68298 0.45025 0.0
C1391 C 0.17102 0.65357 0.59431 0.0
C1392 C 0.15366 0.64984 0.53043 0.0
H1393 H 0.17865 0.64842 0.47732 0.0
C1394 C 0.13398 0.65656 0.52244 0.0
C1395 C 0.17005 0.64712 0.51399 0.0
C1396 C 0.19134 0.6394 0.52142 0.0
C1397 C 0.13018 0.6604 0.49851 0.0
C1398 C 0.14639 0.65714 0.48198 0.0
C1399 C 0.16624 0.65096 0.49 0.0
C1400 C 0.14268 0.65864 0.45622 0.0
C1401 C 0.10881 0.66796 0.49113 0.0
C1402 C 0.1283 0.64517 0.44534 0.0
C1403 C 0.12594 0.6452 0.42092 0.0
C1404 C 0.13798 0.65863 0.40673 0.0
C1405 C 0.1519 0.67262 0.41772 0.0
C1406 C 0.15432 0.67251 0.44223 0.0
H1407 H 0.10044 0.67563 0.50593 0.0
H1408 H 0.10991 0.67917 0.47628 0.0
H1409 H 0.0993 0.65439 0.48534 0.0
H1410 H 0.11939 0.63409 0.45568 0.0
H1411 H 0.11511 0.63418 0.4131 0.0
H1412 H 0.34136 0.18416 0.60315 0.0
H1413 H 0.33482 0.18223 0.56067 0.0
H1414 H 0.38197 0.13443 0.55409 0.0
H1415 H 0.38861 0.1362 0.59628 0.0
H1416 H 0.36175 0.18582 0.51958 0.0
H1417 H 0.32779 0.10647 0.52923 0.0
H1418 H 0.33185 0.12374 0.55394 0.0
H1419 H 0.3534 0.10926 0.5418 0.0
C1420 C 0.35065 0.17356 0.59259 0.0
C1421 C 0.36536 0.16018 0.60321 0.0
C1422 C 0.3468 0.17239 0.56833 0.0
C1423 C 0.35754 0.15782 0.55433 0.0
C1424 C 0.37316 0.14545 0.56464 0.0
H1425 H 0.36556 0.11345 0.41321 0.0
H1426 H 0.36588 0.11932 0.45558 0.0
C1427 C 0.37701 0.14658 0.58879 0.0
C1428 C 0.35202 0.15478 0.52916 0.0
H1429 H 0.335 0.1178 0.49019 0.0
C1430 C 0.35565 0.17106 0.51314 0.0
C1431 C 0.34398 0.13552 0.52083 0.0
C1432 C 0.33882 0.11779 0.53734 0.0
C1433 C 0.3524 0.16825 0.48885 0.0
C1434 C 0.34493 0.14876 0.48045 0.0
C1435 C 0.34072 0.13272 0.49661 0.0
C1436 C 0.34293 0.14416 0.45489 0.0
C1437 C 0.35791 0.18583 0.47229 0.0
C1438 C 0.32928 0.1556 0.44041 0.0
C1439 C 0.32901 0.15224 0.41603 0.0
C1440 C 0.34239 0.13736 0.40571 0.0
C1441 C 0.35514 0.12514 0.42049 0.0
C1442 C 0.35536 0.12848 0.44477 0.0
H1443 H 0.36741 0.19812 0.48104 0.0
H1444 H 0.36673 0.17983 0.45687 0.0
H1445 H 0.34331 0.19319 0.46576 0.0
H1446 H 0.31921 0.16748 0.4479 0.0
H1447 H 0.31903 0.16195 0.40521 0.0
H1448 H 0.89168 0.36985 0.41135 0.0
H1449 H 0.88626 0.37171 0.45375 0.0
H1450 H 0.83909 0.32371 0.44898 0.0
H1451 H 0.84457 0.32157 0.40641 0.0
H1452 H 0.84886 0.38315 0.47445 0.0
H1453 H 0.8735 0.30457 0.50554 0.0
H1454 H 0.88044 0.3145 0.47687 0.0
H1455 H 0.85461 0.30449 0.48216 0.0
C1456 C 0.88043 0.35936 0.41933 0.0
C1457 C 0.86854 0.34557 0.40541 0.0
C1458 C 0.8773 0.3605 0.4436 0.0
C1459 C 0.8623 0.34784 0.45461 0.0
C1460 C 0.85099 0.33341 0.44097 0.0
H1461 H 0.82237 0.34597 0.6025 0.0
H1462 H 0.8231 0.34115 0.55971 0.0
C1463 C 0.85416 0.3322 0.4166 0.0
C1464 C 0.85755 0.35099 0.47999 0.0
H1465 H 0.85824 0.3271 0.53373 0.0
C1466 C 0.8509 0.37087 0.4874 0.0
C1467 C 0.86001 0.33493 0.49687 0.0
C1468 C 0.86769 0.31345 0.49009 0.0
C1469 C 0.84685 0.3752 0.51119 0.0
C1470 C 0.8498 0.3593 0.52814 0.0
C1471 C 0.85594 0.33926 0.52071 0.0
C1472 C 0.84793 0.36352 0.55377 0.0
C1473 C 0.83939 0.39676 0.51795 0.0
C1474 C 0.86144 0.37788 0.56461 0.0
C1475 C 0.86104 0.38069 0.58897 0.0
C1476 C 0.84716 0.36914 0.60312 0.0
C1477 C 0.83312 0.35526 0.59215 0.0
C1478 C 0.83362 0.35237 0.56771 0.0
H1479 H 0.83211 0.40498 0.50282 0.0
H1480 H 0.82787 0.39602 0.53255 0.0
H1481 H 0.85295 0.4062 0.52392 0.0
H1482 H 0.87284 0.38642 0.5543 0.0
H1483 H 0.87211 0.39147 0.59679 0.0
H1484 H 0.65885 0.82134 0.59903 0.0
H1485 H 0.66331 0.82182 0.55617 0.0
H1486 H 0.62002 0.87328 0.55116 0.0
H1487 H 0.6155 0.87299 0.59372 0.0
H1488 H 0.63494 0.81824 0.51838 0.0
H1489 H 0.67292 0.89607 0.5191 0.0
H1490 H 0.66935 0.8807 0.54541 0.0
H1491 H 0.64806 0.89587 0.53377 0.0
C1492 C 0.65004 0.83256 0.58878 0.0
C1493 C 0.63698 0.84727 0.59991 0.0
C1494 C 0.6527 0.83288 0.56429 0.0
C1495 C 0.64243 0.84796 0.55053 0.0
C1496 C 0.62855 0.86188 0.56147 0.0
H1497 H 0.61257 0.85647 0.40524 0.0
H1498 H 0.61491 0.85087 0.44735 0.0
C1499 C 0.62588 0.86158 0.58585 0.0
C1500 C 0.64624 0.84943 0.52478 0.0
H1501 H 0.66107 0.88362 0.48169 0.0
C1502 C 0.64087 0.83244 0.51038 0.0
C1503 C 0.65441 0.8678 0.51433 0.0
C1504 C 0.66173 0.88608 0.52895 0.0
C1505 C 0.64242 0.83374 0.48575 0.0
C1506 C 0.64922 0.85264 0.47523 0.0
C1507 C 0.65564 0.86922 0.4897 0.0
C1508 C 0.6483 0.85601 0.44936 0.0
C1509 C 0.63657 0.81488 0.47122 0.0
C1510 C 0.66621 0.86151 0.4364 0.0
C1511 C 0.66492 0.86495 0.41204 0.0
C1512 C 0.64564 0.86312 0.40029 0.0
C1513 C 0.62774 0.85793 0.41352 0.0
C1514 C 0.62905 0.85452 0.43769 0.0
H1515 H 0.63836 0.80018 0.48143 0.0
H1516 H 0.61992 0.81616 0.46589 0.0
H1517 H 0.64628 0.8138 0.45508 0.0
H1518 H 0.68121 0.86297 0.44509 0.0
H1519 H 0.679 0.86895 0.40244 0.0
H1520 H 0.18573 0.59475 0.26995 0.0
H1521 H 0.19417 0.5593 0.25614 0.0
H1522 H 0.13552 0.53685 0.28385 0.0
H1523 H 0.12715 0.57175 0.29781 0.0
H1524 H 0.16995 0.51248 0.29708 0.0
H1525 H 0.16807 0.52729 0.20055 0.0
H1526 H 0.18496 0.54348 0.21812 0.0
H1527 H 0.15713 0.54552 0.22143 0.0
C1528 C 0.17455 0.58229 0.27277 0.0
C1529 C 0.15578 0.58609 0.28497 0.0
C1530 C 0.1794 0.56206 0.26494 0.0
C1531 C 0.16546 0.54546 0.26901 0.0
C1532 C 0.14657 0.54939 0.28069 0.0
H1533 H 0.12878 0.43295 0.21098 0.0
H1534 H 0.13668 0.4679 0.22502 0.0
C1535 C 0.14178 0.56943 0.28857 0.0
C1536 C 0.17012 0.52379 0.26144 0.0
H1537 H 0.17132 0.4925 0.21288 0.0
C1538 C 0.17067 0.50807 0.27868 0.0
C1539 C 0.17105 0.51818 0.23744 0.0
C1540 C 0.17017 0.53441 0.21821 0.0
C1541 C 0.17073 0.4868 0.27253 0.0
C1542 C 0.17058 0.48118 0.24851 0.0
C1543 C 0.17145 0.49692 0.2313 0.0
C1544 C 0.16629 0.45948 0.24078 0.0
C1545 C 0.16947 0.47056 0.29171 0.0
C1546 C 0.18021 0.44296 0.24532 0.0
C1547 C 0.17562 0.42268 0.23742 0.0
C1548 C 0.15716 0.41875 0.22471 0.0
C1549 C 0.1432 0.43536 0.22061 0.0
C1550 C 0.14772 0.45543 0.22854 0.0
H1551 H 0.16687 0.47765 0.30931 0.0
H1552 H 0.1566 0.45936 0.28808 0.0
H1553 H 0.18432 0.46159 0.29227 0.0
H1554 H 0.19473 0.44582 0.25456 0.0
H1555 H 0.18677 0.41026 0.24066 0.0
H1556 H 0.57227 0.12454 0.2195 0.0
H1557 H 0.53777 0.13384 0.23395 0.0
H1558 H 0.56204 0.19185 0.26135 0.0
H1559 H 0.59714 0.18256 0.24679 0.0
H1560 H 0.5335 0.16987 0.29202 0.0
H1561 H 0.50105 0.17912 0.2026 0.0
H1562 H 0.51488 0.15487 0.20579 0.0
H1563 H 0.52883 0.17921 0.20848 0.0
C1564 C 0.57042 0.13925 0.22872 0.0
C1565 C 0.58742 0.15294 0.23177 0.0
C1566 C 0.55062 0.14459 0.23683 0.0
C1567 C 0.54726 0.16378 0.24807 0.0
C1568 C 0.56433 0.17708 0.25238 0.0
H1569 H 0.41211 0.18387 0.27203 0.0
H1570 H 0.44815 0.19266 0.26059 0.0
C1571 C 0.58434 0.1717 0.24422 0.0
C1572 C 0.52573 0.16941 0.2552 0.0
H1573 H 0.47607 0.17063 0.23329 0.0
C1574 C 0.52096 0.17058 0.27921 0.0
C1575 C 0.50944 0.17084 0.23844 0.0
C1576 C 0.51382 0.17118 0.21238 0.0
C1577 C 0.50011 0.17119 0.28691 0.0
C1578 C 0.48375 0.17018 0.27016 0.0
C1579 C 0.4886 0.17103 0.24614 0.0
C1580 C 0.46193 0.16548 0.27712 0.0
C1581 C 0.49578 0.17207 0.31297 0.0
C1582 C 0.45771 0.14699 0.28944 0.0
C1583 C 0.43733 0.1419 0.29581 0.0
C1584 C 0.42056 0.15512 0.28987 0.0
C1585 C 0.42467 0.17337 0.27687 0.0
C1586 C 0.44524 0.17848 0.27047 0.0
H1587 H 0.50859 0.18025 0.32245 0.0
H1588 H 0.48078 0.18015 0.31676 0.0
H1589 H 0.49485 0.15591 0.31999 0.0
H1590 H 0.47025 0.13635 0.29405 0.0
H1591 H 0.43478 0.12758 0.30558 0.0
H1592 H 0.82094 0.59261 0.24448 0.0
H1593 H 0.81254 0.55687 0.25731 0.0
H1594 H 0.86847 0.53415 0.22345 0.0
H1595 H 0.87679 0.56932 0.21043 0.0
H1596 H 0.83276 0.51046 0.21301 0.0
H1597 H 0.84236 0.52356 0.30931 0.0
H1598 H 0.82435 0.5402 0.29384 0.0
H1599 H 0.85185 0.54205 0.28787 0.0
C1600 C 0.83153 0.57999 0.24001 0.0
C1601 C 0.84954 0.58383 0.22647 0.0
C1602 C 0.82669 0.55961 0.2473 0.0
C1603 C 0.83991 0.54289 0.24131 0.0
C1604 C 0.85798 0.5468 0.2281 0.0
H1605 H 0.88052 0.42984 0.29322 0.0
H1606 H 0.87176 0.46482 0.27984 0.0
C1607 C 0.86275 0.56699 0.22077 0.0
C1608 C 0.83551 0.52115 0.24877 0.0
H1609 H 0.83804 0.48904 0.29653 0.0
C1610 C 0.83347 0.50574 0.2313 0.0
C1611 C 0.83644 0.51513 0.27265 0.0
C1612 C 0.83898 0.531 0.29208 0.0
C1613 C 0.83379 0.48437 0.23695 0.0
C1614 C 0.83589 0.47836 0.26072 0.0
C1615 C 0.83644 0.49378 0.27831 0.0
C1616 C 0.84084 0.45657 0.2675 0.0
C1617 C 0.83337 0.46843 0.21739 0.0
C1618 C 0.82648 0.44015 0.26451 0.0
C1619 C 0.83155 0.41988 0.272 0.0
C1620 C 0.85095 0.4159 0.28277 0.0
C1621 C 0.8654 0.43235 0.28512 0.0
C1622 C 0.86039 0.45241 0.27756 0.0
H1623 H 0.83424 0.4758 0.19974 0.0
H1624 H 0.84662 0.45733 0.21927 0.0
H1625 H 0.81864 0.45929 0.21842 0.0
H1626 H 0.81122 0.4431 0.25695 0.0
H1627 H 0.82004 0.40756 0.2702 0.0
H1628 H 0.58105 0.88201 0.26485 0.0
H1629 H 0.54589 0.87454 0.25028 0.0
H1630 H 0.56011 0.80863 0.24896 0.0
H1631 H 0.59566 0.81615 0.26336 0.0
H1632 H 0.52981 0.84904 0.20911 0.0
H1633 H 0.51059 0.81879 0.29855 0.0
H1634 H 0.53304 0.83535 0.29357 0.0
H1635 H 0.53325 0.80884 0.28337 0.0
C1636 C 0.57693 0.86601 0.26055 0.0
C1637 C 0.59103 0.84966 0.26492 0.0
C1638 C 0.55685 0.86175 0.25239 0.0
C1639 C 0.55041 0.84104 0.24883 0.0
C1640 C 0.56486 0.82471 0.2517 0.0
H1641 H 0.41482 0.81785 0.22936 0.0
H1642 H 0.45184 0.81007 0.23761 0.0
C1643 C 0.58517 0.82902 0.2596 0.0
C1644 C 0.52801 0.83693 0.24432 0.0
H1645 H 0.48245 0.8258 0.27317 0.0
C1646 C 0.51948 0.84347 0.22288 0.0
C1647 C 0.51462 0.82972 0.2624 0.0
C1648 C 0.52318 0.82279 0.28586 0.0
C1649 C 0.49778 0.84396 0.21943 0.0
C1650 C 0.48432 0.83815 0.23808 0.0
C1651 C 0.49285 0.83032 0.25899 0.0
C1652 C 0.4616 0.84246 0.23686 0.0
C1653 C 0.48941 0.85152 0.19613 0.0
C1654 C 0.45481 0.86322 0.23505 0.0
C1655 C 0.4339 0.86765 0.23044 0.0
C1656 C 0.41931 0.8514 0.22782 0.0
C1657 C 0.42574 0.83065 0.23158 0.0
C1658 C 0.44685 0.82619 0.23606 0.0
H1659 H 0.50095 0.8491 0.18178 0.0
H1660 H 0.47465 0.84339 0.19147 0.0
H1661 H 0.48611 0.86853 0.19733 0.0
H1662 H 0.46591 0.876 0.23608 0.0
H1663 H 0.42934 0.88379 0.22767 0.0
H1664 H 0.87225 0.56844 0.83088 0.0
H1665 H 0.8719 0.53335 0.81325 0.0
H1666 H 0.84735 0.55899 0.74888 0.0
H1667 H 0.84778 0.59385 0.76602 0.0
H1668 H 0.82636 0.5215 0.76634 0.0
H1669 H 0.91283 0.5135 0.7594 0.0
H1670 H 0.90249 0.52102 0.78761 0.0
H1671 H 0.90014 0.53852 0.76312 0.0
C1672 C 0.86664 0.56659 0.81304 0.0
C1673 C 0.86 0.58406 0.79996 0.0
C1674 C 0.86658 0.54655 0.80294 0.0
C1675 C 0.85977 0.54361 0.77967 0.0
C1676 C 0.85271 0.56089 0.76683 0.0
H1677 H 0.87216 0.43804 0.68279 0.0
H1678 H 0.87165 0.47299 0.70077 0.0
C1679 C 0.85294 0.58087 0.77676 0.0
C1680 C 0.85995 0.52261 0.76845 0.0
H1681 H 0.89248 0.48469 0.74695 0.0
C1682 C 0.8408 0.51341 0.76217 0.0
C1683 C 0.87883 0.51225 0.7627 0.0
C1684 C 0.8998 0.5218 0.76836 0.0
C1685 C 0.84003 0.49399 0.75061 0.0
C1686 C 0.85889 0.4835 0.74515 0.0
C1687 C 0.87805 0.49279 0.75115 0.0
C1688 C 0.85892 0.4625 0.73397 0.0
C1689 C 0.81907 0.48486 0.74408 0.0
C1690 C 0.85202 0.44508 0.7467 0.0
C1691 C 0.8524 0.42517 0.7366 0.0
C1692 C 0.85958 0.42217 0.7134 0.0
C1693 C 0.86636 0.43974 0.70058 0.0
C1694 C 0.86616 0.45971 0.71085 0.0
H1695 H 0.80631 0.49661 0.74536 0.0
H1696 H 0.81944 0.47852 0.7259 0.0
H1697 H 0.81536 0.47176 0.75617 0.0
H1698 H 0.84658 0.44685 0.76463 0.0
H1699 H 0.84722 0.41208 0.74718 0.0
H1700 H 0.59451 0.85588 0.74614 0.0
H1701 H 0.5596 0.85576 0.76324 0.0
H1702 H 0.53272 0.86625 0.6948 0.0
H1703 H 0.56785 0.86658 0.67729 0.0
H1704 H 0.52861 0.88997 0.75951 0.0
H1705 H 0.50124 0.81384 0.72341 0.0
H1706 H 0.52865 0.82043 0.72568 0.0
H1707 H 0.5129 0.83196 0.70304 0.0
C1708 C 0.58126 0.85808 0.73455 0.0
C1709 C 0.5841 0.86119 0.71022 0.0
C1710 C 0.56127 0.85804 0.74446 0.0
C1711 C 0.54357 0.86087 0.73031 0.0
C1712 C 0.5462 0.86383 0.706 0.0
H1713 H 0.41078 0.86062 0.75799 0.0
H1714 H 0.44574 0.86033 0.74131 0.0
C1715 C 0.56629 0.86402 0.69603 0.0
C1716 C 0.52248 0.86114 0.74128 0.0
H1717 H 0.47706 0.83333 0.74572 0.0
C1718 C 0.5173 0.87761 0.75653 0.0
C1719 C 0.50782 0.84498 0.73737 0.0
C1720 C 0.51285 0.82667 0.72162 0.0
C1721 C 0.49765 0.87858 0.76764 0.0
C1722 C 0.48299 0.8623 0.76392 0.0
C1723 C 0.48828 0.84578 0.74869 0.0
C1724 C 0.46173 0.86249 0.77473 0.0
C1725 C 0.49261 0.89738 0.78266 0.0
C1726 C 0.45889 0.8636 0.79924 0.0
C1727 C 0.43871 0.86398 0.80898 0.0
C1728 C 0.42096 0.86296 0.79439 0.0
C1729 C 0.42396 0.86146 0.7699 0.0
C1730 C 0.44404 0.86125 0.76024 0.0
H1731 H 0.50296 0.91084 0.77852 0.0
H1732 H 0.4761 0.90233 0.78026 0.0
H1733 H 0.49495 0.89331 0.80143 0.0
H1734 H 0.47228 0.86405 0.81088 0.0
H1735 H 0.43702 0.86503 0.82789 0.0
H1736 H 0.14336 0.4114 0.76012 0.0
H1737 H 0.14371 0.44658 0.74379 0.0
H1738 H 0.13881 0.47258 0.81348 0.0
H1739 H 0.13835 0.43719 0.83023 0.0
H1740 H 0.11163 0.47875 0.75035 0.0
H1741 H 0.19047 0.50244 0.78207 0.0
H1742 H 0.18252 0.47539 0.78007 0.0
H1743 H 0.17289 0.49151 0.80351 0.0
C1744 C 0.14242 0.42452 0.77213 0.0
C1745 C 0.1409 0.42136 0.7966 0.0
C1746 C 0.14259 0.44466 0.76267 0.0
C1747 C 0.14144 0.46218 0.77739 0.0
C1748 C 0.13995 0.45923 0.80182 0.0
H1749 H 0.14526 0.59533 0.75116 0.0
H1750 H 0.14508 0.56029 0.76771 0.0
C1751 C 0.13964 0.439 0.81136 0.0
C1752 C 0.1415 0.48346 0.76693 0.0
H1753 H 0.17089 0.52779 0.76158 0.0
C1754 C 0.12456 0.48951 0.75278 0.0
C1755 C 0.15841 0.49741 0.77012 0.0
C1756 C 0.17722 0.49143 0.78462 0.0
C1757 C 0.1239 0.50931 0.74205 0.0
C1758 C 0.14094 0.52323 0.74501 0.0
C1759 C 0.15788 0.51712 0.75919 0.0
C1760 C 0.14119 0.54451 0.73435 0.0
C1761 C 0.10469 0.5153 0.7282 0.0
C1762 C 0.13935 0.54744 0.70992 0.0
C1763 C 0.13928 0.56764 0.70028 0.0
C1764 C 0.14132 0.5853 0.71488 0.0
C1765 C 0.14362 0.5822 0.73927 0.0
C1766 C 0.14355 0.5621 0.74884 0.0
H1767 H 0.091 0.50547 0.73296 0.0
H1768 H 0.10055 0.53197 0.7311 0.0
H1769 H 0.10783 0.51303 0.70918 0.0
H1770 H 0.13802 0.53411 0.69828 0.0
H1771 H 0.13759 0.5694 0.68145 0.0
H1772 H 0.43652 0.14027 0.6789 0.0
H1773 H 0.47191 0.14039 0.69588 0.0
H1774 H 0.44566 0.14636 0.76532 0.0
H1775 H 0.41057 0.14642 0.74882 0.0
H1776 H 0.49012 0.17335 0.7289 0.0
H1777 H 0.48545 0.09347 0.7671 0.0
H1778 H 0.469 0.10186 0.74305 0.0
H1779 H 0.46345 0.11035 0.77248 0.0
C1780 C 0.43829 0.14167 0.69777 0.0
C1781 C 0.4206 0.14329 0.71242 0.0
C1782 C 0.4585 0.14173 0.70743 0.0
C1783 C 0.46135 0.14314 0.73188 0.0
C1784 C 0.4438 0.14499 0.74645 0.0
H1785 H 0.56721 0.1381 0.82872 0.0
H1786 H 0.53225 0.13941 0.81093 0.0
C1787 C 0.4237 0.14509 0.73688 0.0
C1788 C 0.48259 0.14288 0.74244 0.0
H1789 H 0.51465 0.11405 0.77791 0.0
C1790 C 0.49559 0.16034 0.73946 0.0
C1791 C 0.48953 0.12601 0.75649 0.0
C1792 C 0.47625 0.10675 0.75993 0.0
C1793 C 0.51525 0.16154 0.7505 0.0
C1794 C 0.52232 0.14456 0.76441 0.0
C1795 C 0.50926 0.12709 0.76734 0.0
C1796 C 0.54346 0.14432 0.77544 0.0
C1797 C 0.52796 0.18127 0.74767 0.0
C1798 C 0.5614 0.14641 0.76145 0.0
C1799 C 0.5813 0.14584 0.77154 0.0
C1800 C 0.58386 0.14287 0.79593 0.0
C1801 C 0.56586 0.14056 0.80995 0.0
C1802 C 0.54587 0.14124 0.79978 0.0
H1803 H 0.51791 0.19484 0.74311 0.0
H1804 H 0.53675 0.18502 0.76396 0.0
H1805 H 0.53936 0.17909 0.73315 0.0
H1806 H 0.56005 0.1482 0.74258 0.0
H1807 H 0.5947 0.14749 0.76005 0.0
H1808 H 0.68393 0.09371 0.76972 0.0
H1809 H 0.6921 0.05828 0.75563 0.0
H1810 H 0.6337 0.03592 0.78408 0.0
H1811 H 0.62558 0.07078 0.7983 0.0
H1812 H 0.66829 0.01127 0.79652 0.0
H1813 H 0.66494 0.02682 0.70018 0.0
H1814 H 0.68213 0.04282 0.7176 0.0
H1815 H 0.65436 0.04491 0.72144 0.0
C1816 C 0.67275 0.08127 0.77267 0.0
C1817 C 0.65411 0.0851 0.78512 0.0
C1818 C 0.67745 0.06105 0.76467 0.0
C1819 C 0.6635 0.04449 0.76885 0.0
C1820 C 0.64477 0.04843 0.78083 0.0
H1821 H 0.62547 0.93247 0.71043 0.0
H1822 H 0.63349 0.96725 0.725 0.0
C1823 C 0.64012 0.06845 0.78886 0.0
C1824 C 0.66794 0.02285 0.761 0.0
H1825 H 0.6681 0.99192 0.71213 0.0
C1826 C 0.66868 0.007 0.77807 0.0
C1827 C 0.66842 0.01741 0.73692 0.0
C1828 C 0.66732 0.03379 0.71788 0.0
C1829 C 0.66852 0.98578 0.77172 0.0
C1830 C 0.66792 0.98034 0.74766 0.0
C1831 C 0.66857 0.9962 0.73058 0.0
C1832 C 0.66345 0.95871 0.73982 0.0
C1833 C 0.66753 0.96938 0.79076 0.0
C1834 C 0.67751 0.94218 0.74369 0.0
C1835 C 0.67286 0.92202 0.73549 0.0
C1836 C 0.65419 0.91822 0.72312 0.0
C1837 C 0.64005 0.9348 0.71977 0.0
C1838 C 0.64464 0.95476 0.72801 0.0
H1839 H 0.66535 0.97635 0.80849 0.0
H1840 H 0.6545 0.95831 0.78734 0.0
H1841 H 0.68231 0.96029 0.79083 0.0
H1842 H 0.69222 0.94496 0.7526 0.0
H1843 H 0.68415 0.90962 0.73814 0.0
H1844 H 0.93248 0.62593 0.79907 0.0
H1845 H 0.9674 0.63504 0.78577 0.0
H1846 H 0.94408 0.69287 0.757 0.0
H1847 H 0.90861 0.6838 0.77033 0.0
H1848 H 0.97212 0.67149 0.72723 0.0
H1849 H 0.00514 0.67903 0.81653 0.0
H1850 H 0.99139 0.65478 0.81304 0.0
H1851 H 0.97731 0.6791 0.81095 0.0
C1852 C 0.93463 0.64059 0.78984 0.0
C1853 C 0.91773 0.65424 0.78595 0.0
C1854 C 0.9547 0.64584 0.78243 0.0
C1855 C 0.95844 0.66491 0.77107 0.0
C1856 C 0.94153 0.67822 0.7661 0.0
H1857 H 0.09348 0.68525 0.74356 0.0
H1858 H 0.05783 0.69371 0.75693 0.0
C1859 C 0.92128 0.67294 0.77356 0.0
C1860 C 0.98008 0.67024 0.76398 0.0
H1861 H 0.02994 0.67069 0.78547 0.0
C1862 C 0.98474 0.67185 0.73997 0.0
C1863 C 0.99651 0.67121 0.78064 0.0
C1864 C 0.99231 0.67117 0.80674 0.0
C1865 C 0.00554 0.67246 0.73211 0.0
C1866 C 0.02199 0.67105 0.74869 0.0
C1867 C 0.01731 0.67141 0.77276 0.0
C1868 C 0.04369 0.66628 0.74131 0.0
C1869 C 0.00971 0.67372 0.70605 0.0
C1870 C 0.04757 0.64773 0.72897 0.0
C1871 C 0.0677 0.64283 0.72153 0.0
C1872 C 0.08456 0.65632 0.72635 0.0
C1873 C 0.08084 0.67455 0.73956 0.0
C1874 C 0.06051 0.67947 0.74707 0.0
H1875 H 0.99677 0.68185 0.69676 0.0
H1876 H 0.0246 0.68204 0.70233 0.0
H1877 H 0.01085 0.65766 0.69875 0.0
H1878 H 0.03494 0.637 0.72499 0.0
H1879 H 0.06995 0.62851 0.71167 0.0
H1880 H 0.37652 0.07171 0.70808 0.0
H1881 H 0.36784 0.0367 0.7213 0.0
H1882 H 0.3116 0.05996 0.754 0.0
H1883 H 0.3203 0.09556 0.74084 0.0
H1884 H 0.33378 0.03235 0.78223 0.0
H1885 H 0.32324 0.99836 0.69384 0.0
H1886 H 0.34768 0.01199 0.69587 0.0
H1887 H 0.32353 0.02625 0.69897 0.0
C1888 C 0.36226 0.06952 0.71806 0.0
C1889 C 0.349 0.08646 0.72322 0.0
C1890 C 0.35724 0.0494 0.72544 0.0
C1891 C 0.33876 0.04563 0.73799 0.0
C1892 C 0.32577 0.06253 0.74397 0.0
H1893 H 0.3202 0.91079 0.76678 0.0
H1894 H 0.31139 0.94637 0.75365 0.0
C1895 C 0.33083 0.08284 0.73658 0.0
C1896 C 0.33389 0.02401 0.74554 0.0
H1897 H 0.33317 0.97393 0.72472 0.0
C1898 C 0.33313 0.0196 0.76967 0.0
C1899 C 0.33252 0.00739 0.72915 0.0
C1900 C 0.33154 0.01127 0.70301 0.0
C1901 C 0.33295 0.9989 0.77782 0.0
C1902 C 0.33398 0.98228 0.7614 0.0
C1903 C 0.33278 0.98669 0.7373 0.0
C1904 C 0.33894 0.96065 0.76884 0.0
C1905 C 0.33246 0.99502 0.80397 0.0
C1906 C 0.35766 0.95686 0.7809 0.0
C1907 C 0.36274 0.93675 0.78825 0.0
C1908 C 0.34929 0.91985 0.78356 0.0
C1909 C 0.33087 0.92348 0.77066 0.0
C1910 C 0.32576 0.94378 0.76329 0.0
H1911 H 0.32439 0.00796 0.81335 0.0
H1912 H 0.32446 0.98007 0.80821 0.0
H1913 H 0.34873 0.99423 0.81071 0.0
H1914 H 0.36839 0.96953 0.78469 0.0
H1915 H 0.37719 0.93455 0.79788 0.0
H1916 H 0.09323 0.3212 0.76855 0.0
H1917 H 0.05765 0.3131 0.75481 0.0
H1918 H 0.03488 0.3696 0.78737 0.0
H1919 H 0.06984 0.37764 0.80124 0.0
H1920 H 0.01082 0.334 0.79792 0.0
H1921 H 0.02519 0.34289 0.70176 0.0
H1922 H 0.04159 0.32505 0.7178 0.0
H1923 H 0.0434 0.35259 0.72342 0.0
C1924 C 0.08065 0.33197 0.77254 0.0
C1925 C 0.08441 0.35005 0.78599 0.0
C1926 C 0.06035 0.32731 0.76472 0.0
C1927 C 0.04365 0.34076 0.77012 0.0
C1928 C 0.0475 0.35892 0.78319 0.0
H1929 H 0.93099 0.38146 0.71594 0.0
H1930 H 0.9659 0.37288 0.72979 0.0
C1931 C 0.06759 0.36353 0.79101 0.0
C1932 C 0.02197 0.33649 0.76231 0.0
H1933 H 0.99044 0.33918 0.71406 0.0
C1934 C 0.00632 0.33468 0.77955 0.0
C1935 C 0.01624 0.33742 0.73835 0.0
C1936 C 0.03239 0.3397 0.71917 0.0
C1937 C 0.98502 0.33519 0.77358 0.0
C1938 C 0.9793 0.33725 0.74971 0.0
C1939 C 0.99494 0.33762 0.73236 0.0
C1940 C 0.95756 0.34213 0.74256 0.0
C1941 C 0.96886 0.33501 0.79291 0.0
C1942 C 0.94111 0.32782 0.74561 0.0
C1943 C 0.92088 0.33279 0.73786 0.0
C1944 C 0.91697 0.35204 0.72675 0.0
C1945 C 0.93344 0.36645 0.72433 0.0
C1946 C 0.95347 0.36154 0.73213 0.0
H1947 H 0.97604 0.33616 0.81065 0.0
H1948 H 0.95772 0.34818 0.79065 0.0
H1949 H 0.95979 0.32023 0.79202 0.0
H1950 H 0.944 0.31266 0.75343 0.0
H1951 H 0.90856 0.32129 0.73972 0.0
H1952 H 0.36177 0.09415 0.25981 0.0
H1953 H 0.36082 0.05942 0.24262 0.0
H1954 H 0.36121 0.03199 0.31183 0.0
H1955 H 0.36273 0.06705 0.32945 0.0
H1956 H 0.38824 0.01224 0.28212 0.0
H1957 H 0.31165 0.02053 0.23777 0.0
H1958 H 0.32955 0.04086 0.22965 0.0
H1959 H 0.32069 0.03888 0.25962 0.0
C1960 C 0.36154 0.08082 0.27155 0.0
C1961 C 0.36216 0.08352 0.29614 0.0
C1962 C 0.36083 0.06088 0.26159 0.0
C1963 C 0.36042 0.04303 0.27587 0.0
C1964 C 0.3613 0.04555 0.30043 0.0
H1965 H 0.35284 0.91036 0.24642 0.0
H1966 H 0.35236 0.94516 0.26375 0.0
C1967 C 0.36213 0.0656 0.31049 0.0
C1968 C 0.35981 0.02184 0.26495 0.0
H1969 H 0.33276 0.99158 0.22568 0.0
C1970 C 0.376 0.00768 0.26995 0.0
C1971 C 0.34386 0.01584 0.24899 0.0
C1972 C 0.32535 0.02975 0.24386 0.0
C1973 C 0.3769 0.98794 0.25908 0.0
C1974 C 0.36118 0.98215 0.24285 0.0
C1975 C 0.34493 0.99619 0.23792 0.0
C1976 C 0.36089 0.96114 0.23171 0.0
C1977 C 0.39481 0.97344 0.26475 0.0
C1978 C 0.36542 0.95859 0.2077 0.0
C1979 C 0.3658 0.93856 0.19759 0.0
C1980 C 0.36145 0.92075 0.2113 0.0
C1981 C 0.35636 0.92359 0.23522 0.0
C1982 C 0.35613 0.94351 0.24527 0.0
H1983 H 0.4076 0.98158 0.2743 0.0
H1984 H 0.38902 0.96048 0.27598 0.0
H1985 H 0.40127 0.96645 0.24841 0.0
H1986 H 0.36905 0.97207 0.19691 0.0
H1987 H 0.3698 0.937 0.17917 0.0
H1988 H 0.91254 0.35608 0.25915 0.0
H1989 H 0.94769 0.35614 0.24266 0.0
H1990 H 0.97371 0.36448 0.31191 0.0
H1991 H 0.93835 0.36458 0.32881 0.0
H1992 H 0.979 0.38975 0.24802 0.0
H1993 H 0.00493 0.3125 0.28229 0.0
H1994 H 0.97765 0.31951 0.27984 0.0
H1995 H 0.99329 0.3303 0.30303 0.0
C1996 C 0.92566 0.35785 0.27104 0.0
C1997 C 0.92252 0.36027 0.29542 0.0
C1998 C 0.94578 0.35792 0.26149 0.0
C1999 C 0.96329 0.36018 0.27604 0.0
C2000 C 0.96036 0.3625 0.30039 0.0
H2001 H 0.09648 0.35896 0.24973 0.0
H2002 H 0.06143 0.35881 0.26628 0.0
C2003 C 0.94015 0.36258 0.31001 0.0
C2004 C 0.98454 0.36044 0.26549 0.0
H2005 H 0.02966 0.33217 0.26096 0.0
C2006 C 0.99012 0.37718 0.25082 0.0
C2007 C 0.99895 0.34402 0.26918 0.0
C2008 C 0.99348 0.32544 0.2843 0.0
C2009 C 0.0099 0.37814 0.24004 0.0
C2010 C 0.02429 0.36158 0.2435 0.0
C2011 C 0.01863 0.34482 0.25819 0.0
C2012 C 0.04559 0.36165 0.23284 0.0
C2013 C 0.01538 0.39717 0.22563 0.0
C2014 C 0.04851 0.36306 0.20837 0.0
C2015 C 0.06871 0.36333 0.19873 0.0
C2016 C 0.0864 0.36192 0.21336 0.0
C2017 C 0.08332 0.3601 0.23781 0.0
C2018 C 0.06321 0.35998 0.24739 0.0
H2019 H 0.0052 0.4107 0.23004 0.0
H2020 H 0.03194 0.40182 0.22835 0.0
H2021 H 0.01315 0.39355 0.20672 0.0
H2022 H 0.03516 0.36385 0.1967 0.0
H2023 H 0.07046 0.36464 0.17985 0.0
H2024 H 0.61249 0.9287 0.31989 0.0
H2025 H 0.60995 0.96349 0.30207 0.0
H2026 H 0.66586 0.95119 0.26191 0.0
H2027 H 0.6673 0.9161 0.27788 0.0
H2028 H 0.63057 0.99714 0.30012 0.0
H2029 H 0.62983 0.96742 0.20933 0.0
H2030 H 0.62831 0.95015 0.23428 0.0
H2031 H 0.65336 0.959 0.22345 0.0
C2032 C 0.6242 0.9334 0.30722 0.0
C2033 C 0.63984 0.91933 0.29997 0.0
C2034 C 0.62275 0.95335 0.29702 0.0
C2035 C 0.6372 0.95977 0.27977 0.0
C2036 C 0.65385 0.94636 0.27418 0.0
H2037 H 0.66167 0.08798 0.24239 0.0
H2038 H 0.65984 0.05333 0.25945 0.0
C2039 C 0.65489 0.9263 0.28373 0.0
C2040 C 0.63513 0.9804 0.26765 0.0
H2041 H 0.63908 0.00378 0.21378 0.0
C2042 C 0.63216 0.99852 0.2812 0.0
C2043 C 0.63643 0.98238 0.24283 0.0
C2044 C 0.63688 0.96365 0.22667 0.0
C2045 C 0.63145 0.01847 0.27084 0.0
C2046 C 0.63496 0.02058 0.24629 0.0
C2047 C 0.63692 0.0024 0.23263 0.0
C2048 C 0.63711 0.04141 0.23459 0.0
C2049 C 0.62649 0.03694 0.28641 0.0
C2050 C 0.62632 0.04604 0.21364 0.0
C2051 C 0.62824 0.06575 0.20299 0.0
C2052 C 0.64067 0.0814 0.21335 0.0
C2053 C 0.6519 0.07647 0.23388 0.0
C2054 C 0.65052 0.05665 0.24402 0.0
H2055 H 0.61646 0.0322 0.30145 0.0
H2056 H 0.64124 0.04329 0.29382 0.0
H2057 H 0.61835 0.04953 0.27658 0.0
H2058 H 0.61606 0.03454 0.20573 0.0
H2059 H 0.61943 0.06891 0.18715 0.0
H2060 H 0.09562 0.648 0.26063 0.0
H2061 H 0.06068 0.64812 0.24361 0.0
H2062 H 0.03386 0.63842 0.31226 0.0
H2063 H 0.06901 0.63816 0.32967 0.0
H2064 H 0.02968 0.61461 0.24709 0.0
H2065 H 0.0024 0.69041 0.28401 0.0
H2066 H 0.02977 0.68361 0.28206 0.0
H2067 H 0.01368 0.67217 0.30447 0.0
C2068 C 0.08237 0.64598 0.27227 0.0
C2069 C 0.08523 0.64313 0.29664 0.0
C2070 C 0.06236 0.64601 0.26242 0.0
C2071 C 0.04467 0.64342 0.27665 0.0
C2072 C 0.04733 0.64068 0.30099 0.0
H2073 H 0.9118 0.64248 0.25183 0.0
H2074 H 0.94711 0.64292 0.26744 0.0
C2075 C 0.06743 0.64051 0.31091 0.0
C2076 C 0.02354 0.64321 0.26578 0.0
H2077 H 0.97786 0.67069 0.26236 0.0
C2078 C 0.01832 0.62687 0.25037 0.0
C2079 C 0.00882 0.65925 0.27005 0.0
C2080 C 0.01388 0.67748 0.2859 0.0
C2081 C 0.99856 0.62585 0.23954 0.0
C2082 C 0.9838 0.64194 0.24374 0.0
C2083 C 0.98916 0.65838 0.25904 0.0
C2084 C 0.96233 0.64155 0.23352 0.0
C2085 C 0.99347 0.60719 0.22433 0.0
C2086 C 0.95895 0.6408 0.20908 0.0
C2087 C 0.93854 0.64036 0.19994 0.0
C2088 C 0.92114 0.64094 0.21508 0.0
C2089 C 0.9247 0.642 0.23951 0.0
C2090 C 0.94498 0.64229 0.24856 0.0
H2091 H 0.00413 0.59384 0.22789 0.0
H2092 H 0.97711 0.60193 0.22715 0.0
H2093 H 0.99527 0.61157 0.20557 0.0
H2094 H 0.97207 0.6407 0.19705 0.0
H2095 H 0.93641 0.63963 0.18107 0.0
loop_
_geom_bond_atom_site_label_1
_geom_bond_atom_site_label_2
_geom_bond_distance
_geom_bond_site_symmetry_2
_ccdc_geom_bond_type
Co0 O2 2.143 . S
Co0 O8 2.074 . S
Co0 O11 2.093 . S
Co0 O24 2.097 . S
Co0 N41 2.151 . S
Co0 N49 2.214 . S
Co1 O2 2.160 . S
Co1 O7 2.058 . S
Co1 O17 2.057 . S
Co1 O32 2.037 . S
Co1 N36 2.145 . S
Co1 N57 2.257 . S
O2 Co0 2.143 . S
O2 Co1 2.160 . S
C3 O4 1.278 . S
C3 O11 1.224 . S
O4 C3 1.278 . S
C5 O6 1.245 . S
C5 O17 1.232 . S
O6 C5 1.245 . S
O7 Co1 2.058 . S
O7 C33 1.269 . S
O8 Co0 2.074 . S
O8 C33 1.257 . S
H9 C34 0.930 . S
H10 C40 0.930 . S
O11 Co0 2.093 . S
O11 C3 1.224 . S
H12 C44 0.929 . S
H13 C46 0.930 . S
H14 C47 0.930 . S
H15 C45 0.929 . S
H16 C48 0.928 . S
O17 Co1 2.057 . S
O17 C5 1.232 . S
H18 C37 0.929 . S
H19 C38 0.929 . S
H20 C50 0.931 . S
H21 C42 0.929 . S
H22 C51 0.930 . S
H23 C43 0.931 . S
O24 Co0 2.097 . S
O24 C52 1.214 . S
H25 C53 0.929 . S
H26 C54 0.929 . S
H27 C55 0.930 . S
H28 C56 0.929 . S
H29 C58 0.930 . S
H30 C35 0.930 . S
H31 C39 0.930 . S
O32 Co1 2.037 . S
O32 C52 1.234 . S
C33 O7 1.269 . S
C33 O8 1.257 . S
C34 H9 0.930 . S
C34 C37 1.388 . S
C34 C39 1.418 . S
C35 H30 0.930 . S
C35 C38 1.404 . S
C35 C39 1.353 . S
N36 Co1 2.145 . S
N36 C37 1.397 . S
N36 C38 1.334 . S
C37 H18 0.929 . S
C37 C34 1.388 . S
C37 N36 1.397 . S
C38 H19 0.929 . S
C38 C35 1.404 . S
C38 N36 1.334 . S
C39 H31 0.930 . S
C39 C34 1.418 . S
C39 C35 1.353 . S
C40 H10 0.930 . S
C40 N41 1.330 . S
C40 C42 1.446 . S
N41 Co0 2.151 . S
N41 C40 1.330 . S
N41 C45 1.418 . S
C42 H21 0.929 . S
C42 C40 1.446 . S
C42 C43 1.332 . S
C43 H23 0.931 . S
C43 C42 1.332 . S
C43 C44 1.267 . S
C44 H12 0.929 . S
C44 C43 1.267 . S
C44 C45 1.251 . S
C45 H15 0.929 . S
C45 N41 1.418 . S
C45 C44 1.251 . S
C46 H13 0.930 . S
C46 C48 1.406 . S
C46 C51 1.261 . S
C47 H14 0.930 . S
C47 N49 1.325 . S
C47 C50 1.357 . S
C48 H16 0.928 . S
C48 C46 1.406 . S
C48 N49 1.261 . S
N49 Co0 2.214 . S
N49 C47 1.325 . S
N49 C48 1.261 . S
C50 H20 0.931 . S
C50 C47 1.357 . S
C50 C51 1.312 . S
C51 H22 0.930 . S
C51 C46 1.261 . S
C51 C50 1.312 . S
C52 O24 1.214 . S
C52 O32 1.234 . S
C53 H25 0.929 . S
C53 C56 1.391 . S
C53 C58 1.391 . S
C54 H26 0.929 . S
C54 C55 1.390 . S
C54 N57 1.391 . S
C55 H27 0.930 . S
C55 C54 1.390 . S
C55 C56 1.392 . S
C56 H28 0.929 . S
C56 C53 1.391 . S
C56 C55 1.392 . S
N57 Co1 2.257 . S
N57 C54 1.391 . S
N57 C58 1.388 . S
C58 H29 0.930 . S
C58 C53 1.391 . S
C58 N57 1.388 . S
Co59 O61 2.143 . S
Co59 O67 2.074 . S
Co59 O70 2.093 . S
Co59 O83 2.097 . S
Co59 N100 2.151 . S
Co59 N108 2.214 . S
Co60 O61 2.160 . S
Co60 O66 2.058 . S
Co60 O76 2.057 . S
Co60 O91 2.037 . S
Co60 N95 2.145 . S
Co60 N116 2.257 . S
O61 Co59 2.143 . S
O61 Co60 2.160 . S
C62 O63 1.278 . S
C62 O70 1.224 . S
O63 C62 1.278 . S
C64 O65 1.245 . S
C64 O76 1.232 . S
O65 C64 1.245 . S
O66 Co60 2.058 . S
O66 C92 1.269 . S
O67 Co59 2.074 . S
O67 C92 1.257 . S
H68 C93 0.930 . S
H69 C99 0.930 . S
O70 Co59 2.093 . S
O70 C62 1.224 . S
H71 C103 0.929 . S
H72 C105 0.930 . S
H73 C106 0.930 . S
H74 C104 0.929 . S
H75 C107 0.928 . S
O76 Co60 2.057 . S
O76 C64 1.232 . S
H77 C96 0.929 . S
H78 C97 0.929 . S
H79 C109 0.931 . S
H80 C101 0.929 . S
H81 C110 0.930 . S
H82 C102 0.931 . S
O83 Co59 2.097 . S
O83 C111 1.214 . S
H84 C112 0.929 . S
H85 C113 0.929 . S
H86 C114 0.930 . S
H87 C115 0.929 . S
H88 C117 0.930 . S
H89 C94 0.930 . S
H90 C98 0.930 . S
O91 Co60 2.037 . S
O91 C111 1.234 . S
C92 O66 1.269 . S
C92 O67 1.257 . S
C93 H68 0.930 . S
C93 C96 1.388 . S
C93 C98 1.418 . S
C94 H89 0.930 . S
C94 C97 1.404 . S
C94 C98 1.353 . S
N95 Co60 2.145 . S
N95 C96 1.397 . S
N95 C97 1.334 . S
C96 H77 0.929 . S
C96 C93 1.388 . S
C96 N95 1.397 . S
C97 H78 0.929 . S
C97 C94 1.404 . S
C97 N95 1.334 . S
C98 H90 0.930 . S
C98 C93 1.418 . S
C98 C94 1.353 . S
C99 H69 0.930 . S
C99 N100 1.330 . S
C99 C101 1.446 . S
N100 Co59 2.151 . S
N100 C99 1.330 . S
N100 C104 1.418 . S
C101 H80 0.929 . S
C101 C99 1.446 . S
C101 C102 1.332 . S
C102 H82 0.931 . S
C102 C101 1.332 . S
C102 C103 1.267 . S
C103 H71 0.929 . S
C103 C102 1.267 . S
C103 C104 1.251 . S
C104 H74 0.929 . S
C104 N100 1.418 . S
C104 C103 1.251 . S
C105 H72 0.930 . S
C105 C107 1.406 . S
C105 C110 1.261 . S
C106 H73 0.930 . S
C106 N108 1.325 . S
C106 C109 1.357 . S
C107 H75 0.928 . S
C107 C105 1.406 . S
C107 N108 1.261 . S
N108 Co59 2.214 . S
N108 C106 1.325 . S
N108 C107 1.261 . S
C109 H79 0.931 . S
C109 C106 1.357 . S
C109 C110 1.312 . S
C110 H81 0.930 . S
C110 C105 1.261 . S
C110 C109 1.312 . S
C111 O83 1.214 . S
C111 O91 1.234 . S
C112 H84 0.929 . S
C112 C115 1.391 . S
C112 C117 1.391 . S
C113 H85 0.929 . S
C113 C114 1.390 . S
C113 N116 1.391 . S
C114 H86 0.930 . S
C114 C113 1.390 . S
C114 C115 1.392 . S
C115 H87 0.929 . S
C115 C112 1.391 . S
C115 C114 1.392 . S
N116 Co60 2.257 . S
N116 C113 1.391 . S
N116 C117 1.388 . S
C117 H88 0.930 . S
C117 C112 1.391 . S
C117 N116 1.388 . S
Co118 O120 2.143 . S
Co118 O126 2.074 . S
Co118 O129 2.093 . S
Co118 O142 2.097 . S
Co118 N159 2.151 . S
Co118 N167 2.214 . S
Co119 O120 2.160 . S
Co119 O125 2.058 . S
Co119 O135 2.057 . S
Co119 O150 2.037 . S
Co119 N154 2.145 . S
Co119 N175 2.257 . S
O120 Co118 2.143 . S
O120 Co119 2.160 . S
C121 O122 1.278 . S
C121 O129 1.224 . S
O122 C121 1.278 . S
C123 O124 1.245 . S
C123 O135 1.232 . S
O124 C123 1.245 . S
O125 Co119 2.058 . S
O125 C151 1.269 . S
O126 Co118 2.074 . S
O126 C151 1.257 . S
H127 C152 0.930 . S
H128 C158 0.930 . S
O129 Co118 2.093 . S
O129 C121 1.224 . S
H130 C162 0.929 . S
H131 C164 0.930 . S
H132 C165 0.930 . S
H133 C163 0.929 . S
H134 C166 0.928 . S
O135 Co119 2.057 . S
O135 C123 1.232 . S
H136 C155 0.929 . S
H137 C156 0.929 . S
H138 C168 0.931 . S
H139 C160 0.929 . S
H140 C169 0.930 . S
H141 C161 0.931 . S
O142 Co118 2.097 . S
O142 C170 1.214 . S
H143 C171 0.929 . S
H144 C172 0.929 . S
H145 C173 0.930 . S
H146 C174 0.929 . S
H147 C176 0.930 . S
H148 C153 0.930 . S
H149 C157 0.930 . S
O150 Co119 2.037 . S
O150 C170 1.234 . S
C151 O125 1.269 . S
C151 O126 1.257 . S
C152 H127 0.930 . S
C152 C155 1.388 . S
C152 C157 1.418 . S
C153 H148 0.930 . S
C153 C156 1.404 . S
C153 C157 1.353 . S
N154 Co119 2.145 . S
N154 C155 1.397 . S
N154 C156 1.334 . S
C155 H136 0.929 . S
C155 C152 1.388 . S
C155 N154 1.397 . S
C156 H137 0.929 . S
C156 C153 1.404 . S
C156 N154 1.334 . S
C157 H149 0.930 . S
C157 C152 1.418 . S
C157 C153 1.353 . S
C158 H128 0.930 . S
C158 N159 1.330 . S
C158 C160 1.446 . S
N159 Co118 2.151 . S
N159 C158 1.330 . S
N159 C163 1.418 . S
C160 H139 0.929 . S
C160 C158 1.446 . S
C160 C161 1.332 . S
C161 H141 0.931 . S
C161 C160 1.332 . S
C161 C162 1.267 . S
C162 H130 0.929 . S
C162 C161 1.267 . S
C162 C163 1.251 . S
C163 H133 0.929 . S
C163 N159 1.418 . S
C163 C162 1.251 . S
C164 H131 0.930 . S
C164 C166 1.406 . S
C164 C169 1.261 . S
C165 H132 0.930 . S
C165 N167 1.325 . S
C165 C168 1.357 . S
C166 H134 0.928 . S
C166 C164 1.406 . S
C166 N167 1.261 . S
N167 Co118 2.214 . S
N167 C165 1.325 . S
N167 C166 1.261 . S
C168 H138 0.931 . S
C168 C165 1.357 . S
C168 C169 1.312 . S
C169 H140 0.930 . S
C169 C164 1.261 . S
C169 C168 1.312 . S
C170 O142 1.214 . S
C170 O150 1.234 . S
C171 H143 0.929 . S
C171 C174 1.391 . S
C171 C176 1.391 . S
C172 H144 0.929 . S
C172 C173 1.390 . S
C172 N175 1.391 . S
C173 H145 0.930 . S
C173 C172 1.390 . S
C173 C174 1.392 . S
C174 H146 0.929 . S
C174 C171 1.391 . S
C174 C173 1.392 . S
N175 Co119 2.257 . S
N175 C172 1.391 . S
N175 C176 1.388 . S
C176 H147 0.930 . S
C176 C171 1.391 . S
C176 N175 1.388 . S
Co177 O179 2.143 . S
Co177 O185 2.074 . S
Co177 O188 2.093 . S
Co177 O201 2.097 . S
Co177 N218 2.151 . S
Co177 N226 2.214 . S
Co178 O179 2.160 . S
Co178 O184 2.058 . S
Co178 O194 2.057 . S
Co178 O209 2.037 . S
Co178 N213 2.145 . S
Co178 N234 2.257 . S
O179 Co177 2.143 . S
O179 Co178 2.160 . S
C180 O181 1.278 . S
C180 O188 1.224 . S
O181 C180 1.278 . S
C182 O183 1.245 . S
C182 O194 1.232 . S
O183 C182 1.245 . S
O184 Co178 2.058 . S
O184 C210 1.269 . S
O185 Co177 2.074 . S
O185 C210 1.257 . S
H186 C211 0.930 . S
H187 C217 0.930 . S
O188 Co177 2.093 . S
O188 C180 1.224 . S
H189 C221 0.929 . S
H190 C223 0.930 . S
H191 C224 0.930 . S
H192 C222 0.929 . S
H193 C225 0.928 . S
O194 Co178 2.057 . S
O194 C182 1.232 . S
H195 C214 0.929 . S
H196 C215 0.929 . S
H197 C227 0.931 . S
H198 C219 0.929 . S
H199 C228 0.930 . S
H200 C220 0.931 . S
O201 Co177 2.097 . S
O201 C229 1.214 . S
H202 C230 0.929 . S
H203 C231 0.929 . S
H204 C232 0.930 . S
H205 C233 0.929 . S
H206 C235 0.930 . S
H207 C212 0.930 . S
H208 C216 0.930 . S
O209 Co178 2.037 . S
O209 C229 1.234 . S
C210 O184 1.269 . S
C210 O185 1.257 . S
C211 H186 0.930 . S
C211 C214 1.388 . S
C211 C216 1.418 . S
C212 H207 0.930 . S
C212 C215 1.404 . S
C212 C216 1.353 . S
N213 Co178 2.145 . S
N213 C214 1.397 . S
N213 C215 1.334 . S
C214 H195 0.929 . S
C214 C211 1.388 . S
C214 N213 1.397 . S
C215 H196 0.929 . S
C215 C212 1.404 . S
C215 N213 1.334 . S
C216 H208 0.930 . S
C216 C211 1.418 . S
C216 C212 1.353 . S
C217 H187 0.930 . S
C217 N218 1.330 . S
C217 C219 1.446 . S
N218 Co177 2.151 . S
N218 C217 1.330 . S
N218 C222 1.418 . S
C219 H198 0.929 . S
C219 C217 1.446 . S
C219 C220 1.332 . S
C220 H200 0.931 . S
C220 C219 1.332 . S
C220 C221 1.267 . S
C221 H189 0.929 . S
C221 C220 1.267 . S
C221 C222 1.251 . S
C222 H192 0.929 . S
C222 N218 1.418 . S
C222 C221 1.251 . S
C223 H190 0.930 . S
C223 C225 1.406 . S
C223 C228 1.261 . S
C224 H191 0.930 . S
C224 N226 1.325 . S
C224 C227 1.357 . S
C225 H193 0.928 . S
C225 C223 1.406 . S
C225 N226 1.261 . S
N226 Co177 2.214 . S
N226 C224 1.325 . S
N226 C225 1.261 . S
C227 H197 0.931 . S
C227 C224 1.357 . S
C227 C228 1.312 . S
C228 H199 0.930 . S
C228 C223 1.261 . S
C228 C227 1.312 . S
C229 O201 1.214 . S
C229 O209 1.234 . S
C230 H202 0.929 . S
C230 C233 1.391 . S
C230 C235 1.391 . S
C231 H203 0.929 . S
C231 C232 1.390 . S
C231 N234 1.391 . S
C232 H204 0.930 . S
C232 C231 1.390 . S
C232 C233 1.392 . S
C233 H205 0.929 . S
C233 C230 1.391 . S
C233 C232 1.392 . S
N234 Co178 2.257 . S
N234 C231 1.391 . S
N234 C235 1.388 . S
C235 H206 0.930 . S
C235 C230 1.391 . S
C235 N234 1.388 . S
Co236 O238 2.143 . S
Co236 O244 2.074 . S
Co236 O247 2.093 . S
Co236 O260 2.097 . S
Co236 N277 2.151 . S
Co236 N285 2.214 . S
Co237 O238 2.160 . S
Co237 O243 2.058 . S
Co237 O253 2.057 . S
Co237 O268 2.037 . S
Co237 N272 2.145 . S
Co237 N293 2.257 . S
O238 Co236 2.143 . S
O238 Co237 2.160 . S
C239 O240 1.278 . S
C239 O247 1.224 . S
O240 C239 1.278 . S
C241 O242 1.245 . S
C241 O253 1.232 . S
O242 C241 1.245 . S
O243 Co237 2.058 . S
O243 C269 1.269 . S
O244 Co236 2.074 . S
O244 C269 1.257 . S
H245 C270 0.930 . S
H246 C276 0.930 . S
O247 Co236 2.093 . S
O247 C239 1.224 . S
H248 C280 0.929 . S
H249 C282 0.930 . S
H250 C283 0.930 . S
H251 C281 0.929 . S
H252 C284 0.928 . S
O253 Co237 2.057 . S
O253 C241 1.232 . S
H254 C273 0.929 . S
H255 C274 0.929 . S
H256 C286 0.931 . S
H257 C278 0.929 . S
H258 C287 0.930 . S
H259 C279 0.931 . S
O260 Co236 2.097 . S
O260 C288 1.214 . S
H261 C289 0.929 . S
H262 C290 0.929 . S
H263 C291 0.930 . S
H264 C292 0.929 . S
H265 C294 0.930 . S
H266 C271 0.930 . S
H267 C275 0.930 . S
O268 Co237 2.037 . S
O268 C288 1.234 . S
C269 O243 1.269 . S
C269 O244 1.257 . S
C270 H245 0.930 . S
C270 C273 1.388 . S
C270 C275 1.418 . S
C271 H266 0.930 . S
C271 C274 1.404 . S
C271 C275 1.353 . S
N272 Co237 2.145 . S
N272 C273 1.397 . S
N272 C274 1.334 . S
C273 H254 0.929 . S
C273 C270 1.388 . S
C273 N272 1.397 . S
C274 H255 0.929 . S
C274 C271 1.404 . S
C274 N272 1.334 . S
C275 H267 0.930 . S
C275 C270 1.418 . S
C275 C271 1.353 . S
C276 H246 0.930 . S
C276 N277 1.330 . S
C276 C278 1.446 . S
N277 Co236 2.151 . S
N277 C276 1.330 . S
N277 C281 1.418 . S
C278 H257 0.929 . S
C278 C276 1.446 . S
C278 C279 1.332 . S
C279 H259 0.931 . S
C279 C278 1.332 . S
C279 C280 1.267 . S
C280 H248 0.929 . S
C280 C279 1.267 . S
C280 C281 1.251 . S
C281 H251 0.929 . S
C281 N277 1.418 . S
C281 C280 1.251 . S
C282 H249 0.930 . S
C282 C284 1.406 . S
C282 C287 1.261 . S
C283 H250 0.930 . S
C283 N285 1.325 . S
C283 C286 1.357 . S
C284 H252 0.928 . S
C284 C282 1.406 . S
C284 N285 1.261 . S
N285 Co236 2.214 . S
N285 C283 1.325 . S
N285 C284 1.261 . S
C286 H256 0.931 . S
C286 C283 1.357 . S
C286 C287 1.312 . S
C287 H258 0.930 . S
C287 C282 1.261 . S
C287 C286 1.312 . S
C288 O260 1.214 . S
C288 O268 1.234 . S
C289 H261 0.929 . S
C289 C292 1.391 . S
C289 C294 1.391 . S
C290 H262 0.929 . S
C290 C291 1.390 . S
C290 N293 1.391 . S
C291 H263 0.930 . S
C291 C290 1.390 . S
C291 C292 1.392 . S
C292 H264 0.929 . S
C292 C289 1.391 . S
C292 C291 1.392 . S
N293 Co237 2.257 . S
N293 C290 1.391 . S
N293 C294 1.388 . S
C294 H265 0.930 . S
C294 C289 1.391 . S
C294 N293 1.388 . S
Co295 O297 2.143 . S
Co295 O303 2.074 . S
Co295 O306 2.093 . S
Co295 O319 2.097 . S
Co295 N336 2.151 . S
Co295 N344 2.214 . S
Co296 O297 2.160 . S
Co296 O302 2.058 . S
Co296 O312 2.057 . S
Co296 O327 2.037 . S
Co296 N331 2.145 . S
Co296 N352 2.257 . S
O297 Co295 2.143 . S
O297 Co296 2.160 . S
C298 O299 1.278 . S
C298 O306 1.224 . S
O299 C298 1.278 . S
C300 O301 1.245 . S
C300 O312 1.232 . S
O301 C300 1.245 . S
O302 Co296 2.058 . S
O302 C328 1.269 . S
O303 Co295 2.074 . S
O303 C328 1.257 . S
H304 C329 0.930 . S
H305 C335 0.930 . S
O306 Co295 2.093 . S
O306 C298 1.224 . S
H307 C339 0.929 . S
H308 C341 0.930 . S
H309 C342 0.930 . S
H310 C340 0.929 . S
H311 C343 0.928 . S
O312 Co296 2.057 . S
O312 C300 1.232 . S
H313 C332 0.929 . S
H314 C333 0.929 . S
H315 C345 0.931 . S
H316 C337 0.929 . S
H317 C346 0.930 . S
H318 C338 0.931 . S
O319 Co295 2.097 . S
O319 C347 1.214 . S
H320 C348 0.929 . S
H321 C349 0.929 . S
H322 C350 0.930 . S
H323 C351 0.929 . S
H324 C353 0.930 . S
H325 C330 0.930 . S
H326 C334 0.930 . S
O327 Co296 2.037 . S
O327 C347 1.234 . S
C328 O302 1.269 . S
C328 O303 1.257 . S
C329 H304 0.930 . S
C329 C332 1.388 . S
C329 C334 1.418 . S
C330 H325 0.930 . S
C330 C333 1.404 . S
C330 C334 1.353 . S
N331 Co296 2.145 . S
N331 C332 1.397 . S
N331 C333 1.334 . S
C332 H313 0.929 . S
C332 C329 1.388 . S
C332 N331 1.397 . S
C333 H314 0.929 . S
C333 C330 1.404 . S
C333 N331 1.334 . S
C334 H326 0.930 . S
C334 C329 1.418 . S
C334 C330 1.353 . S
C335 H305 0.930 . S
C335 N336 1.330 . S
C335 C337 1.446 . S
N336 Co295 2.151 . S
N336 C335 1.330 . S
N336 C340 1.418 . S
C337 H316 0.929 . S
C337 C335 1.446 . S
C337 C338 1.332 . S
C338 H318 0.931 . S
C338 C337 1.332 . S
C338 C339 1.267 . S
C339 H307 0.929 . S
C339 C338 1.267 . S
C339 C340 1.251 . S
C340 H310 0.929 . S
C340 N336 1.418 . S
C340 C339 1.251 . S
C341 H308 0.930 . S
C341 C343 1.406 . S
C341 C346 1.261 . S
C342 H309 0.930 . S
C342 N344 1.325 . S
C342 C345 1.357 . S
C343 H311 0.928 . S
C343 C341 1.406 . S
C343 N344 1.261 . S
N344 Co295 2.214 . S
N344 C342 1.325 . S
N344 C343 1.261 . S
C345 H315 0.931 . S
C345 C342 1.357 . S
C345 C346 1.312 . S
C346 H317 0.930 . S
C346 C341 1.261 . S
C346 C345 1.312 . S
C347 O319 1.214 . S
C347 O327 1.234 . S
C348 H320 0.929 . S
C348 C351 1.391 . S
C348 C353 1.391 . S
C349 H321 0.929 . S
C349 C350 1.390 . S
C349 N352 1.391 . S
C350 H322 0.930 . S
C350 C349 1.390 . S
C350 C351 1.392 . S
C351 H323 0.929 . S
C351 C348 1.391 . S
C351 C350 1.392 . S
N352 Co296 2.257 . S
N352 C349 1.391 . S
N352 C353 1.388 . S
C353 H324 0.930 . S
C353 C348 1.391 . S
C353 N352 1.388 . S
Co354 O356 2.143 . S
Co354 O362 2.074 . S
Co354 O365 2.093 . S
Co354 O378 2.097 . S
Co354 N395 2.151 . S
Co354 N403 2.214 . S
Co355 O356 2.160 . S
Co355 O361 2.058 . S
Co355 O371 2.057 . S
Co355 O386 2.037 . S
Co355 N390 2.145 . S
Co355 N411 2.257 . S
O356 Co354 2.143 . S
O356 Co355 2.160 . S
C357 O358 1.278 . S
C357 O365 1.224 . S
O358 C357 1.278 . S
C359 O360 1.245 . S
C359 O371 1.232 . S
O360 C359 1.245 . S
O361 Co355 2.058 . S
O361 C387 1.269 . S
O362 Co354 2.074 . S
O362 C387 1.257 . S
H363 C388 0.930 . S
H364 C394 0.930 . S
O365 Co354 2.093 . S
O365 C357 1.224 . S
H366 C398 0.929 . S
H367 C400 0.930 . S
H368 C401 0.930 . S
H369 C399 0.929 . S
H370 C402 0.928 . S
O371 Co355 2.057 . S
O371 C359 1.232 . S
H372 C391 0.929 . S
H373 C392 0.929 . S
H374 C404 0.931 . S
H375 C396 0.929 . S
H376 C405 0.930 . S
H377 C397 0.931 . S
O378 Co354 2.097 . S
O378 C406 1.214 . S
H379 C407 0.929 . S
H380 C408 0.929 . S
H381 C409 0.930 . S
H382 C410 0.929 . S
H383 C412 0.930 . S
H384 C389 0.930 . S
H385 C393 0.930 . S
O386 Co355 2.037 . S
O386 C406 1.234 . S
C387 O361 1.269 . S
C387 O362 1.257 . S
C388 H363 0.930 . S
C388 C391 1.388 . S
C388 C393 1.418 . S
C389 H384 0.930 . S
C389 C392 1.404 . S
C389 C393 1.353 . S
N390 Co355 2.145 . S
N390 C391 1.397 . S
N390 C392 1.334 . S
C391 H372 0.929 . S
C391 C388 1.388 . S
C391 N390 1.397 . S
C392 H373 0.929 . S
C392 C389 1.404 . S
C392 N390 1.334 . S
C393 H385 0.930 . S
C393 C388 1.418 . S
C393 C389 1.353 . S
C394 H364 0.930 . S
C394 N395 1.330 . S
C394 C396 1.446 . S
N395 Co354 2.151 . S
N395 C394 1.330 . S
N395 C399 1.418 . S
C396 H375 0.929 . S
C396 C394 1.446 . S
C396 C397 1.332 . S
C397 H377 0.931 . S
C397 C396 1.332 . S
C397 C398 1.267 . S
C398 H366 0.929 . S
C398 C397 1.267 . S
C398 C399 1.251 . S
C399 H369 0.929 . S
C399 N395 1.418 . S
C399 C398 1.251 . S
C400 H367 0.930 . S
C400 C402 1.406 . S
C400 C405 1.261 . S
C401 H368 0.930 . S
C401 N403 1.325 . S
C401 C404 1.357 . S
C402 H370 0.928 . S
C402 C400 1.406 . S
C402 N403 1.261 . S
N403 Co354 2.214 . S
N403 C401 1.325 . S
N403 C402 1.261 . S
C404 H374 0.931 . S
C404 C401 1.357 . S
C404 C405 1.312 . S
C405 H376 0.930 . S
C405 C400 1.261 . S
C405 C404 1.312 . S
C406 O378 1.214 . S
C406 O386 1.234 . S
C407 H379 0.929 . S
C407 C410 1.391 . S
C407 C412 1.391 . S
C408 H380 0.929 . S
C408 C409 1.390 . S
C408 N411 1.391 . S
C409 H381 0.930 . S
C409 C408 1.390 . S
C409 C410 1.392 . S
C410 H382 0.929 . S
C410 C407 1.391 . S
C410 C409 1.392 . S
N411 Co355 2.257 . S
N411 C408 1.391 . S
N411 C412 1.388 . S
C412 H383 0.930 . S
C412 C407 1.391 . S
C412 N411 1.388 . S
Co413 O415 2.143 . S
Co413 O421 2.074 . S
Co413 O424 2.093 . S
Co413 O437 2.097 . S
Co413 N454 2.151 . S
Co413 N462 2.214 . S
Co414 O415 2.160 . S
Co414 O420 2.058 . S
Co414 O430 2.057 . S
Co414 O445 2.037 . S
Co414 N449 2.145 . S
Co414 N470 2.257 . S
O415 Co413 2.143 . S
O415 Co414 2.160 . S
C416 O417 1.278 . S
C416 O424 1.224 . S
O417 C416 1.278 . S
C418 O419 1.245 . S
C418 O430 1.232 . S
O419 C418 1.245 . S
O420 Co414 2.058 . S
O420 C446 1.269 . S
O421 Co413 2.074 . S
O421 C446 1.257 . S
H422 C447 0.930 . S
H423 C453 0.930 . S
O424 Co413 2.093 . S
O424 C416 1.224 . S
H425 C457 0.929 . S
H426 C459 0.930 . S
H427 C460 0.930 . S
H428 C458 0.929 . S
H429 C461 0.928 . S
O430 Co414 2.057 . S
O430 C418 1.232 . S
H431 C450 0.929 . S
H432 C451 0.929 . S
H433 C463 0.931 . S
H434 C455 0.929 . S
H435 C464 0.930 . S
H436 C456 0.931 . S
O437 Co413 2.097 . S
O437 C465 1.214 . S
H438 C466 0.929 . S
H439 C467 0.929 . S
H440 C468 0.930 . S
H441 C469 0.929 . S
H442 C471 0.930 . S
H443 C448 0.930 . S
H444 C452 0.930 . S
O445 Co414 2.037 . S
O445 C465 1.234 . S
C446 O420 1.269 . S
C446 O421 1.257 . S
C447 H422 0.930 . S
C447 C450 1.388 . S
C447 C452 1.418 . S
C448 H443 0.930 . S
C448 C451 1.404 . S
C448 C452 1.353 . S
N449 Co414 2.145 . S
N449 C450 1.397 . S
N449 C451 1.334 . S
C450 H431 0.929 . S
C450 C447 1.388 . S
C450 N449 1.397 . S
C451 H432 0.929 . S
C451 C448 1.404 . S
C451 N449 1.334 . S
C452 H444 0.930 . S
C452 C447 1.418 . S
C452 C448 1.353 . S
C453 H423 0.930 . S
C453 N454 1.330 . S
C453 C455 1.446 . S
N454 Co413 2.151 . S
N454 C453 1.330 . S
N454 C458 1.418 . S
C455 H434 0.929 . S
C455 C453 1.446 . S
C455 C456 1.332 . S
C456 H436 0.931 . S
C456 C455 1.332 . S
C456 C457 1.267 . S
C457 H425 0.929 . S
C457 C456 1.267 . S
C457 C458 1.251 . S
C458 H428 0.929 . S
C458 N454 1.418 . S
C458 C457 1.251 . S
C459 H426 0.930 . S
C459 C461 1.406 . S
C459 C464 1.261 . S
C460 H427 0.930 . S
C460 N462 1.325 . S
C460 C463 1.357 . S
C461 H429 0.928 . S
C461 C459 1.406 . S
C461 N462 1.261 . S
N462 Co413 2.214 . S
N462 C460 1.325 . S
N462 C461 1.261 . S
C463 H433 0.931 . S
C463 C460 1.357 . S
C463 C464 1.312 . S
C464 H435 0.930 . S
C464 C459 1.261 . S
C464 C463 1.312 . S
C465 O437 1.214 . S
C465 O445 1.234 . S
C466 H438 0.929 . S
C466 C469 1.391 . S
C466 C471 1.391 . S
C467 H439 0.929 . S
C467 C468 1.390 . S
C467 N470 1.391 . S
C468 H440 0.930 . S
C468 C467 1.390 . S
C468 C469 1.392 . S
C469 H441 0.929 . S
C469 C466 1.391 . S
C469 C468 1.392 . S
N470 Co414 2.257 . S
N470 C467 1.391 . S
N470 C471 1.388 . S
C471 H442 0.930 . S
C471 C466 1.391 . S
C471 N470 1.388 . S
Co472 O474 2.143 . S
Co472 O480 2.074 . S
Co472 O483 2.093 . S
Co472 O496 2.097 . S
Co472 N513 2.151 . S
Co472 N521 2.214 . S
Co473 O474 2.160 . S
Co473 O479 2.058 . S
Co473 O489 2.057 . S
Co473 O504 2.037 . S
Co473 N508 2.145 . S
Co473 N529 2.257 . S
O474 Co472 2.143 . S
O474 Co473 2.160 . S
C475 O476 1.278 . S
C475 O483 1.224 . S
O476 C475 1.278 . S
C477 O478 1.245 . S
C477 O489 1.232 . S
O478 C477 1.245 . S
O479 Co473 2.058 . S
O479 C505 1.269 . S
O480 Co472 2.074 . S
O480 C505 1.257 . S
H481 C506 0.930 . S
H482 C512 0.930 . S
O483 Co472 2.093 . S
O483 C475 1.224 . S
H484 C516 0.929 . S
H485 C518 0.930 . S
H486 C519 0.930 . S
H487 C517 0.929 . S
H488 C520 0.928 . S
O489 Co473 2.057 . S
O489 C477 1.232 . S
H490 C509 0.929 . S
H491 C510 0.929 . S
H492 C522 0.931 . S
H493 C514 0.929 . S
H494 C523 0.930 . S
H495 C515 0.931 . S
O496 Co472 2.097 . S
O496 C524 1.214 . S
H497 C525 0.929 . S
H498 C526 0.929 . S
H499 C527 0.930 . S
H500 C528 0.929 . S
H501 C530 0.930 . S
H502 C507 0.930 . S
H503 C511 0.930 . S
O504 Co473 2.037 . S
O504 C524 1.234 . S
C505 O479 1.269 . S
C505 O480 1.257 . S
C506 H481 0.930 . S
C506 C509 1.388 . S
C506 C511 1.418 . S
C507 H502 0.930 . S
C507 C510 1.404 . S
C507 C511 1.353 . S
N508 Co473 2.145 . S
N508 C509 1.397 . S
N508 C510 1.334 . S
C509 H490 0.929 . S
C509 C506 1.388 . S
C509 N508 1.397 . S
C510 H491 0.929 . S
C510 C507 1.404 . S
C510 N508 1.334 . S
C511 H503 0.930 . S
C511 C506 1.418 . S
C511 C507 1.353 . S
C512 H482 0.930 . S
C512 N513 1.330 . S
C512 C514 1.446 . S
N513 Co472 2.151 . S
N513 C512 1.330 . S
N513 C517 1.418 . S
C514 H493 0.929 . S
C514 C512 1.446 . S
C514 C515 1.332 . S
C515 H495 0.931 . S
C515 C514 1.332 . S
C515 C516 1.267 . S
C516 H484 0.929 . S
C516 C515 1.267 . S
C516 C517 1.251 . S
C517 H487 0.929 . S
C517 N513 1.418 . S
C517 C516 1.251 . S
C518 H485 0.930 . S
C518 C520 1.406 . S
C518 C523 1.261 . S
C519 H486 0.930 . S
C519 N521 1.325 . S
C519 C522 1.357 . S
C520 H488 0.928 . S
C520 C518 1.406 . S
C520 N521 1.261 . S
N521 Co472 2.214 . S
N521 C519 1.325 . S
N521 C520 1.261 . S
C522 H492 0.931 . S
C522 C519 1.357 . S
C522 C523 1.312 . S
C523 H494 0.930 . S
C523 C518 1.261 . S
C523 C522 1.312 . S
C524 O496 1.214 . S
C524 O504 1.234 . S
C525 H497 0.929 . S
C525 C528 1.391 . S
C525 C530 1.391 . S
C526 H498 0.929 . S
C526 C527 1.390 . S
C526 N529 1.391 . S
C527 H499 0.930 . S
C527 C526 1.390 . S
C527 C528 1.392 . S
C528 H500 0.929 . S
C528 C525 1.391 . S
C528 C527 1.392 . S
N529 Co473 2.257 . S
N529 C526 1.391 . S
N529 C530 1.388 . S
C530 H501 0.930 . S
C530 C525 1.391 . S
C530 N529 1.388 . S
Co531 O533 2.143 . S
Co531 O539 2.074 . S
Co531 O542 2.093 . S
Co531 O555 2.097 . S
Co531 N572 2.151 . S
Co531 N580 2.214 . S
Co532 O533 2.160 . S
Co532 O538 2.058 . S
Co532 O548 2.057 . S
Co532 O563 2.037 . S
Co532 N567 2.145 . S
Co532 N588 2.257 . S
O533 Co531 2.143 . S
O533 Co532 2.160 . S
C534 O535 1.278 . S
C534 O542 1.224 . S
O535 C534 1.278 . S
C536 O537 1.245 . S
C536 O548 1.232 . S
O537 C536 1.245 . S
O538 Co532 2.058 . S
O538 C564 1.269 . S
O539 Co531 2.074 . S
O539 C564 1.257 . S
H540 C565 0.930 . S
H541 C571 0.930 . S
O542 Co531 2.093 . S
O542 C534 1.224 . S
H543 C575 0.929 . S
H544 C577 0.930 . S
H545 C578 0.930 . S
H546 C576 0.929 . S
H547 C579 0.928 . S
O548 Co532 2.057 . S
O548 C536 1.232 . S
H549 C568 0.929 . S
H550 C569 0.929 . S
H551 C581 0.931 . S
H552 C573 0.929 . S
H553 C582 0.930 . S
H554 C574 0.931 . S
O555 Co531 2.097 . S
O555 C583 1.214 . S
H556 C584 0.929 . S
H557 C585 0.929 . S
H558 C586 0.930 . S
H559 C587 0.929 . S
H560 C589 0.930 . S
H561 C566 0.930 . S
H562 C570 0.930 . S
O563 Co532 2.037 . S
O563 C583 1.234 . S
C564 O538 1.269 . S
C564 O539 1.257 . S
C565 H540 0.930 . S
C565 C568 1.388 . S
C565 C570 1.418 . S
C566 H561 0.930 . S
C566 C569 1.404 . S
C566 C570 1.353 . S
N567 Co532 2.145 . S
N567 C568 1.397 . S
N567 C569 1.334 . S
C568 H549 0.929 . S
C568 C565 1.388 . S
C568 N567 1.397 . S
C569 H550 0.929 . S
C569 C566 1.404 . S
C569 N567 1.334 . S
C570 H562 0.930 . S
C570 C565 1.418 . S
C570 C566 1.353 . S
C571 H541 0.930 . S
C571 N572 1.330 . S
C571 C573 1.446 . S
N572 Co531 2.151 . S
N572 C571 1.330 . S
N572 C576 1.418 . S
C573 H552 0.929 . S
C573 C571 1.446 . S
C573 C574 1.332 . S
C574 H554 0.931 . S
C574 C573 1.332 . S
C574 C575 1.267 . S
C575 H543 0.929 . S
C575 C574 1.267 . S
C575 C576 1.251 . S
C576 H546 0.929 . S
C576 N572 1.418 . S
C576 C575 1.251 . S
C577 H544 0.930 . S
C577 C579 1.406 . S
C577 C582 1.261 . S
C578 H545 0.930 . S
C578 N580 1.325 . S
C578 C581 1.357 . S
C579 H547 0.928 . S
C579 C577 1.406 . S
C579 N580 1.261 . S
N580 Co531 2.214 . S
N580 C578 1.325 . S
N580 C579 1.261 . S
C581 H551 0.931 . S
C581 C578 1.357 . S
C581 C582 1.312 . S
C582 H553 0.930 . S
C582 C577 1.261 . S
C582 C581 1.312 . S
C583 O555 1.214 . S
C583 O563 1.234 . S
C584 H556 0.929 . S
C584 C587 1.391 . S
C584 C589 1.391 . S
C585 H557 0.929 . S
C585 C586 1.390 . S
C585 N588 1.391 . S
C586 H558 0.930 . S
C586 C585 1.390 . S
C586 C587 1.392 . S
C587 H559 0.929 . S
C587 C584 1.391 . S
C587 C586 1.392 . S
N588 Co532 2.257 . S
N588 C585 1.391 . S
N588 C589 1.388 . S
C589 H560 0.930 . S
C589 C584 1.391 . S
C589 N588 1.388 . S
Co590 O592 2.143 . S
Co590 O598 2.074 . S
Co590 O601 2.093 . S
Co590 O614 2.097 . S
Co590 N631 2.151 . S
Co590 N639 2.214 . S
Co591 O592 2.160 . S
Co591 O597 2.058 . S
Co591 O607 2.057 . S
Co591 O622 2.037 . S
Co591 N626 2.145 . S
Co591 N647 2.257 . S
O592 Co590 2.143 . S
O592 Co591 2.160 . S
C593 O594 1.278 . S
C593 O601 1.224 . S
O594 C593 1.278 . S
C595 O596 1.245 . S
C595 O607 1.232 . S
O596 C595 1.245 . S
O597 Co591 2.058 . S
O597 C623 1.269 . S
O598 Co590 2.074 . S
O598 C623 1.257 . S
H599 C624 0.930 . S
H600 C630 0.930 . S
O601 Co590 2.093 . S
O601 C593 1.224 . S
H602 C634 0.929 . S
H603 C636 0.930 . S
H604 C637 0.930 . S
H605 C635 0.929 . S
H606 C638 0.928 . S
O607 Co591 2.057 . S
O607 C595 1.232 . S
H608 C627 0.929 . S
H609 C628 0.929 . S
H610 C640 0.931 . S
H611 C632 0.929 . S
H612 C641 0.930 . S
H613 C633 0.931 . S
O614 Co590 2.097 . S
O614 C642 1.214 . S
H615 C643 0.929 . S
H616 C644 0.929 . S
H617 C645 0.930 . S
H618 C646 0.929 . S
H619 C648 0.930 . S
H620 C625 0.930 . S
H621 C629 0.930 . S
O622 Co591 2.037 . S
O622 C642 1.234 . S
C623 O597 1.269 . S
C623 O598 1.257 . S
C624 H599 0.930 . S
C624 C627 1.388 . S
C624 C629 1.418 . S
C625 H620 0.930 . S
C625 C628 1.404 . S
C625 C629 1.353 . S
N626 Co591 2.145 . S
N626 C627 1.397 . S
N626 C628 1.334 . S
C627 H608 0.929 . S
C627 C624 1.388 . S
C627 N626 1.397 . S
C628 H609 0.929 . S
C628 C625 1.404 . S
C628 N626 1.334 . S
C629 H621 0.930 . S
C629 C624 1.418 . S
C629 C625 1.353 . S
C630 H600 0.930 . S
C630 N631 1.330 . S
C630 C632 1.446 . S
N631 Co590 2.151 . S
N631 C630 1.330 . S
N631 C635 1.418 . S
C632 H611 0.929 . S
C632 C630 1.446 . S
C632 C633 1.332 . S
C633 H613 0.931 . S
C633 C632 1.332 . S
C633 C634 1.267 . S
C634 H602 0.929 . S
C634 C633 1.267 . S
C634 C635 1.251 . S
C635 H605 0.929 . S
C635 N631 1.418 . S
C635 C634 1.251 . S
C636 H603 0.930 . S
C636 C638 1.406 . S
C636 C641 1.261 . S
C637 H604 0.930 . S
C637 N639 1.325 . S
C637 C640 1.357 . S
C638 H606 0.928 . S
C638 C636 1.406 . S
C638 N639 1.261 . S
N639 Co590 2.214 . S
N639 C637 1.325 . S
N639 C638 1.261 . S
C640 H610 0.931 . S
C640 C637 1.357 . S
C640 C641 1.312 . S
C641 H612 0.930 . S
C641 C636 1.261 . S
C641 C640 1.312 . S
C642 O614 1.214 . S
C642 O622 1.234 . S
C643 H615 0.929 . S
C643 C646 1.391 . S
C643 C648 1.391 . S
C644 H616 0.929 . S
C644 C645 1.390 . S
C644 N647 1.391 . S
C645 H617 0.930 . S
C645 C644 1.390 . S
C645 C646 1.392 . S
C646 H618 0.929 . S
C646 C643 1.391 . S
C646 C645 1.392 . S
N647 Co591 2.257 . S
N647 C644 1.391 . S
N647 C648 1.388 . S
C648 H619 0.930 . S
C648 C643 1.391 . S
C648 N647 1.388 . S
Co649 O651 2.143 . S
Co649 O657 2.074 . S
Co649 O660 2.093 . S
Co649 O673 2.097 . S
Co649 N690 2.151 . S
Co649 N698 2.214 . S
Co650 O651 2.160 . S
Co650 O656 2.058 . S
Co650 O666 2.057 . S
Co650 O681 2.037 . S
Co650 N685 2.145 . S
Co650 N706 2.257 . S
O651 Co649 2.143 . S
O651 Co650 2.160 . S
C652 O653 1.278 . S
C652 O660 1.224 . S
O653 C652 1.278 . S
C654 O655 1.245 . S
C654 O666 1.232 . S
O655 C654 1.245 . S
O656 Co650 2.058 . S
O656 C682 1.269 . S
O657 Co649 2.074 . S
O657 C682 1.257 . S
H658 C683 0.930 . S
H659 C689 0.930 . S
O660 Co649 2.093 . S
O660 C652 1.224 . S
H661 C693 0.929 . S
H662 C695 0.930 . S
H663 C696 0.930 . S
H664 C694 0.929 . S
H665 C697 0.928 . S
O666 Co650 2.057 . S
O666 C654 1.232 . S
H667 C686 0.929 . S
H668 C687 0.929 . S
H669 C699 0.931 . S
H670 C691 0.929 . S
H671 C700 0.930 . S
H672 C692 0.931 . S
O673 Co649 2.097 . S
O673 C701 1.214 . S
H674 C702 0.929 . S
H675 C703 0.929 . S
H676 C704 0.930 . S
H677 C705 0.929 . S
H678 C707 0.930 . S
H679 C684 0.930 . S
H680 C688 0.930 . S
O681 Co650 2.037 . S
O681 C701 1.234 . S
C682 O656 1.269 . S
C682 O657 1.257 . S
C683 H658 0.930 . S
C683 C686 1.388 . S
C683 C688 1.418 . S
C684 H679 0.930 . S
C684 C687 1.404 . S
C684 C688 1.353 . S
N685 Co650 2.145 . S
N685 C686 1.397 . S
N685 C687 1.334 . S
C686 H667 0.929 . S
C686 C683 1.388 . S
C686 N685 1.397 . S
C687 H668 0.929 . S
C687 C684 1.404 . S
C687 N685 1.334 . S
C688 H680 0.930 . S
C688 C683 1.418 . S
C688 C684 1.353 . S
C689 H659 0.930 . S
C689 N690 1.330 . S
C689 C691 1.446 . S
N690 Co649 2.151 . S
N690 C689 1.330 . S
N690 C694 1.418 . S
C691 H670 0.929 . S
C691 C689 1.446 . S
C691 C692 1.332 . S
C692 H672 0.931 . S
C692 C691 1.332 . S
C692 C693 1.267 . S
C693 H661 0.929 . S
C693 C692 1.267 . S
C693 C694 1.251 . S
C694 H664 0.929 . S
C694 N690 1.418 . S
C694 C693 1.251 . S
C695 H662 0.930 . S
C695 C697 1.406 . S
C695 C700 1.261 . S
C696 H663 0.930 . S
C696 N698 1.325 . S
C696 C699 1.357 . S
C697 H665 0.928 . S
C697 C695 1.406 . S
C697 N698 1.261 . S
N698 Co649 2.214 . S
N698 C696 1.325 . S
N698 C697 1.261 . S
C699 H669 0.931 . S
C699 C696 1.357 . S
C699 C700 1.312 . S
C700 H671 0.930 . S
C700 C695 1.261 . S
C700 C699 1.312 . S
C701 O673 1.214 . S
C701 O681 1.234 . S
C702 H674 0.929 . S
C702 C705 1.391 . S
C702 C707 1.391 . S
C703 H675 0.929 . S
C703 C704 1.390 . S
C703 N706 1.391 . S
C704 H676 0.930 . S
C704 C703 1.390 . S
C704 C705 1.392 . S
C705 H677 0.929 . S
C705 C702 1.391 . S
C705 C704 1.392 . S
N706 Co650 2.257 . S
N706 C703 1.391 . S
N706 C707 1.388 . S
C707 H678 0.930 . S
C707 C702 1.391 . S
C707 N706 1.388 . S
Co708 O710 2.143 . S
Co708 O716 2.074 . S
Co708 O719 2.093 . S
Co708 O732 2.097 . S
Co708 N749 2.151 . S
Co708 N757 2.214 . S
Co709 O710 2.160 . S
Co709 O715 2.058 . S
Co709 O725 2.057 . S
Co709 O740 2.037 . S
Co709 N744 2.145 . S
Co709 N765 2.257 . S
O710 Co708 2.143 . S
O710 Co709 2.160 . S
C711 O712 1.278 . S
C711 O719 1.224 . S
O712 C711 1.278 . S
C713 O714 1.245 . S
C713 O725 1.232 . S
O714 C713 1.245 . S
O715 Co709 2.058 . S
O715 C741 1.269 . S
O716 Co708 2.074 . S
O716 C741 1.257 . S
H717 C742 0.930 . S
H718 C748 0.930 . S
O719 Co708 2.093 . S
O719 C711 1.224 . S
H720 C752 0.929 . S
H721 C754 0.930 . S
H722 C755 0.930 . S
H723 C753 0.929 . S
H724 C756 0.928 . S
O725 Co709 2.057 . S
O725 C713 1.232 . S
H726 C745 0.929 . S
H727 C746 0.929 . S
H728 C758 0.931 . S
H729 C750 0.929 . S
H730 C759 0.930 . S
H731 C751 0.931 . S
O732 Co708 2.097 . S
O732 C760 1.214 . S
H733 C761 0.929 . S
H734 C762 0.929 . S
H735 C763 0.930 . S
H736 C764 0.929 . S
H737 C766 0.930 . S
H738 C743 0.930 . S
H739 C747 0.930 . S
O740 Co709 2.037 . S
O740 C760 1.234 . S
C741 O715 1.269 . S
C741 O716 1.257 . S
C742 H717 0.930 . S
C742 C745 1.388 . S
C742 C747 1.418 . S
C743 H738 0.930 . S
C743 C746 1.404 . S
C743 C747 1.353 . S
N744 Co709 2.145 . S
N744 C745 1.397 . S
N744 C746 1.334 . S
C745 H726 0.929 . S
C745 C742 1.388 . S
C745 N744 1.397 . S
C746 H727 0.929 . S
C746 C743 1.404 . S
C746 N744 1.334 . S
C747 H739 0.930 . S
C747 C742 1.418 . S
C747 C743 1.353 . S
C748 H718 0.930 . S
C748 N749 1.330 . S
C748 C750 1.446 . S
N749 Co708 2.151 . S
N749 C748 1.330 . S
N749 C753 1.418 . S
C750 H729 0.929 . S
C750 C748 1.446 . S
C750 C751 1.332 . S
C751 H731 0.931 . S
C751 C750 1.332 . S
C751 C752 1.267 . S
C752 H720 0.929 . S
C752 C751 1.267 . S
C752 C753 1.251 . S
C753 H723 0.929 . S
C753 N749 1.418 . S
C753 C752 1.251 . S
C754 H721 0.930 . S
C754 C756 1.406 . S
C754 C759 1.261 . S
C755 H722 0.930 . S
C755 N757 1.325 . S
C755 C758 1.357 . S
C756 H724 0.928 . S
C756 C754 1.406 . S
C756 N757 1.261 . S
N757 Co708 2.214 . S
N757 C755 1.325 . S
N757 C756 1.261 . S
C758 H728 0.931 . S
C758 C755 1.357 . S
C758 C759 1.312 . S
C759 H730 0.930 . S
C759 C754 1.261 . S
C759 C758 1.312 . S
C760 O732 1.214 . S
C760 O740 1.234 . S
C761 H733 0.929 . S
C761 C764 1.391 . S
C761 C766 1.391 . S
C762 H734 0.929 . S
C762 C763 1.390 . S
C762 N765 1.391 . S
C763 H735 0.930 . S
C763 C762 1.390 . S
C763 C764 1.392 . S
C764 H736 0.929 . S
C764 C761 1.391 . S
C764 C763 1.392 . S
N765 Co709 2.257 . S
N765 C762 1.391 . S
N765 C766 1.388 . S
C766 H737 0.930 . S
C766 C761 1.391 . S
C766 N765 1.388 . S
Co767 O769 2.143 . S
Co767 O775 2.074 . S
Co767 O778 2.093 . S
Co767 O791 2.097 . S
Co767 N808 2.151 . S
Co767 N816 2.214 . S
Co768 O769 2.160 . S
Co768 O774 2.058 . S
Co768 O784 2.057 . S
Co768 O799 2.037 . S
Co768 N803 2.145 . S
Co768 N824 2.257 . S
O769 Co767 2.143 . S
O769 Co768 2.160 . S
C770 O771 1.278 . S
C770 O778 1.224 . S
O771 C770 1.278 . S
C772 O773 1.245 . S
C772 O784 1.232 . S
O773 C772 1.245 . S
O774 Co768 2.058 . S
O774 C800 1.269 . S
O775 Co767 2.074 . S
O775 C800 1.257 . S
H776 C801 0.930 . S
H777 C807 0.930 . S
O778 Co767 2.093 . S
O778 C770 1.224 . S
H779 C811 0.929 . S
H780 C813 0.930 . S
H781 C814 0.930 . S
H782 C812 0.929 . S
H783 C815 0.928 . S
O784 Co768 2.057 . S
O784 C772 1.232 . S
H785 C804 0.929 . S
H786 C805 0.929 . S
H787 C817 0.931 . S
H788 C809 0.929 . S
H789 C818 0.930 . S
H790 C810 0.931 . S
O791 Co767 2.097 . S
O791 C819 1.214 . S
H792 C820 0.929 . S
H793 C821 0.929 . S
H794 C822 0.930 . S
H795 C823 0.929 . S
H796 C825 0.930 . S
H797 C802 0.930 . S
H798 C806 0.930 . S
O799 Co768 2.037 . S
O799 C819 1.234 . S
C800 O774 1.269 . S
C800 O775 1.257 . S
C801 H776 0.930 . S
C801 C804 1.388 . S
C801 C806 1.418 . S
C802 H797 0.930 . S
C802 C805 1.404 . S
C802 C806 1.353 . S
N803 Co768 2.145 . S
N803 C804 1.397 . S
N803 C805 1.334 . S
C804 H785 0.929 . S
C804 C801 1.388 . S
C804 N803 1.397 . S
C805 H786 0.929 . S
C805 C802 1.404 . S
C805 N803 1.334 . S
C806 H798 0.930 . S
C806 C801 1.418 . S
C806 C802 1.353 . S
C807 H777 0.930 . S
C807 N808 1.330 . S
C807 C809 1.446 . S
N808 Co767 2.151 . S
N808 C807 1.330 . S
N808 C812 1.418 . S
C809 H788 0.929 . S
C809 C807 1.446 . S
C809 C810 1.332 . S
C810 H790 0.931 . S
C810 C809 1.332 . S
C810 C811 1.267 . S
C811 H779 0.929 . S
C811 C810 1.267 . S
C811 C812 1.251 . S
C812 H782 0.929 . S
C812 N808 1.418 . S
C812 C811 1.251 . S
C813 H780 0.930 . S
C813 C815 1.406 . S
C813 C818 1.261 . S
C814 H781 0.930 . S
C814 N816 1.325 . S
C814 C817 1.357 . S
C815 H783 0.928 . S
C815 C813 1.406 . S
C815 N816 1.261 . S
N816 Co767 2.214 . S
N816 C814 1.325 . S
N816 C815 1.261 . S
C817 H787 0.931 . S
C817 C814 1.357 . S
C817 C818 1.312 . S
C818 H789 0.930 . S
C818 C813 1.261 . S
C818 C817 1.312 . S
C819 O791 1.214 . S
C819 O799 1.234 . S
C820 H792 0.929 . S
C820 C823 1.391 . S
C820 C825 1.391 . S
C821 H793 0.929 . S
C821 C822 1.390 . S
C821 N824 1.391 . S
C822 H794 0.930 . S
C822 C821 1.390 . S
C822 C823 1.392 . S
C823 H795 0.929 . S
C823 C820 1.391 . S
C823 C822 1.392 . S
N824 Co768 2.257 . S
N824 C821 1.391 . S
N824 C825 1.388 . S
C825 H796 0.930 . S
C825 C820 1.391 . S
C825 N824 1.388 . S
Co826 O828 2.143 . S
Co826 O834 2.074 . S
Co826 O837 2.093 . S
Co826 O850 2.097 . S
Co826 N867 2.151 . S
Co826 N875 2.214 . S
Co827 O828 2.160 . S
Co827 O833 2.058 . S
Co827 O843 2.057 . S
Co827 O858 2.037 . S
Co827 N862 2.145 . S
Co827 N883 2.257 . S
O828 Co826 2.143 . S
O828 Co827 2.160 . S
C829 O830 1.278 . S
C829 O837 1.224 . S
O830 C829 1.278 . S
C831 O832 1.245 . S
C831 O843 1.232 . S
O832 C831 1.245 . S
O833 Co827 2.058 . S
O833 C859 1.269 . S
O834 Co826 2.074 . S
O834 C859 1.257 . S
H835 C860 0.930 . S
H836 C866 0.930 . S
O837 Co826 2.093 . S
O837 C829 1.224 . S
H838 C870 0.929 . S
H839 C872 0.930 . S
H840 C873 0.930 . S
H841 C871 0.929 . S
H842 C874 0.928 . S
O843 Co827 2.057 . S
O843 C831 1.232 . S
H844 C863 0.929 . S
H845 C864 0.929 . S
H846 C876 0.931 . S
H847 C868 0.929 . S
H848 C877 0.930 . S
H849 C869 0.931 . S
O850 Co826 2.097 . S
O850 C878 1.214 . S
H851 C879 0.929 . S
H852 C880 0.929 . S
H853 C881 0.930 . S
H854 C882 0.929 . S
H855 C884 0.930 . S
H856 C861 0.930 . S
H857 C865 0.930 . S
O858 Co827 2.037 . S
O858 C878 1.234 . S
C859 O833 1.269 . S
C859 O834 1.257 . S
C860 H835 0.930 . S
C860 C863 1.388 . S
C860 C865 1.418 . S
C861 H856 0.930 . S
C861 C864 1.404 . S
C861 C865 1.353 . S
N862 Co827 2.145 . S
N862 C863 1.397 . S
N862 C864 1.334 . S
C863 H844 0.929 . S
C863 C860 1.388 . S
C863 N862 1.397 . S
C864 H845 0.929 . S
C864 C861 1.404 . S
C864 N862 1.334 . S
C865 H857 0.930 . S
C865 C860 1.418 . S
C865 C861 1.353 . S
C866 H836 0.930 . S
C866 N867 1.330 . S
C866 C868 1.446 . S
N867 Co826 2.151 . S
N867 C866 1.330 . S
N867 C871 1.418 . S
C868 H847 0.929 . S
C868 C866 1.446 . S
C868 C869 1.332 . S
C869 H849 0.931 . S
C869 C868 1.332 . S
C869 C870 1.267 . S
C870 H838 0.929 . S
C870 C869 1.267 . S
C870 C871 1.251 . S
C871 H841 0.929 . S
C871 N867 1.418 . S
C871 C870 1.251 . S
C872 H839 0.930 . S
C872 C874 1.406 . S
C872 C877 1.261 . S
C873 H840 0.930 . S
C873 N875 1.325 . S
C873 C876 1.357 . S
C874 H842 0.928 . S
C874 C872 1.406 . S
C874 N875 1.261 . S
N875 Co826 2.214 . S
N875 C873 1.325 . S
N875 C874 1.261 . S
C876 H846 0.931 . S
C876 C873 1.357 . S
C876 C877 1.312 . S
C877 H848 0.930 . S
C877 C872 1.261 . S
C877 C876 1.312 . S
C878 O850 1.214 . S
C878 O858 1.234 . S
C879 H851 0.929 . S
C879 C882 1.391 . S
C879 C884 1.391 . S
C880 H852 0.929 . S
C880 C881 1.390 . S
C880 N883 1.391 . S
C881 H853 0.930 . S
C881 C880 1.390 . S
C881 C882 1.392 . S
C882 H854 0.929 . S
C882 C879 1.391 . S
C882 C881 1.392 . S
N883 Co827 2.257 . S
N883 C880 1.391 . S
N883 C884 1.388 . S
C884 H855 0.930 . S
C884 C879 1.391 . S
C884 N883 1.388 . S
Co885 O887 2.143 . S
Co885 O893 2.074 . S
Co885 O896 2.093 . S
Co885 O909 2.097 . S
Co885 N926 2.151 . S
Co885 N934 2.214 . S
Co886 O887 2.160 . S
Co886 O892 2.058 . S
Co886 O902 2.057 . S
Co886 O917 2.037 . S
Co886 N921 2.145 . S
Co886 N942 2.257 . S
O887 Co885 2.143 . S
O887 Co886 2.160 . S
C888 O889 1.278 . S
C888 O896 1.224 . S
O889 C888 1.278 . S
C890 O891 1.245 . S
C890 O902 1.232 . S
O891 C890 1.245 . S
O892 Co886 2.058 . S
O892 C918 1.269 . S
O893 Co885 2.074 . S
O893 C918 1.257 . S
H894 C919 0.930 . S
H895 C925 0.930 . S
O896 Co885 2.093 . S
O896 C888 1.224 . S
H897 C929 0.929 . S
H898 C931 0.930 . S
H899 C932 0.930 . S
H900 C930 0.929 . S
H901 C933 0.928 . S
O902 Co886 2.057 . S
O902 C890 1.232 . S
H903 C922 0.929 . S
H904 C923 0.929 . S
H905 C935 0.931 . S
H906 C927 0.929 . S
H907 C936 0.930 . S
H908 C928 0.931 . S
O909 Co885 2.097 . S
O909 C937 1.214 . S
H910 C938 0.929 . S
H911 C939 0.929 . S
H912 C940 0.930 . S
H913 C941 0.929 . S
H914 C943 0.930 . S
H915 C920 0.930 . S
H916 C924 0.930 . S
O917 Co886 2.037 . S
O917 C937 1.234 . S
C918 O892 1.269 . S
C918 O893 1.257 . S
C919 H894 0.930 . S
C919 C922 1.388 . S
C919 C924 1.418 . S
C920 H915 0.930 . S
C920 C923 1.404 . S
C920 C924 1.353 . S
N921 Co886 2.145 . S
N921 C922 1.397 . S
N921 C923 1.334 . S
C922 H903 0.929 . S
C922 C919 1.388 . S
C922 N921 1.397 . S
C923 H904 0.929 . S
C923 C920 1.404 . S
C923 N921 1.334 . S
C924 H916 0.930 . S
C924 C919 1.418 . S
C924 C920 1.353 . S
C925 H895 0.930 . S
C925 N926 1.330 . S
C925 C927 1.446 . S
N926 Co885 2.151 . S
N926 C925 1.330 . S
N926 C930 1.418 . S
C927 H906 0.929 . S
C927 C925 1.446 . S
C927 C928 1.332 . S
C928 H908 0.931 . S
C928 C927 1.332 . S
C928 C929 1.267 . S
C929 H897 0.929 . S
C929 C928 1.267 . S
C929 C930 1.251 . S
C930 H900 0.929 . S
C930 N926 1.418 . S
C930 C929 1.251 . S
C931 H898 0.930 . S
C931 C933 1.406 . S
C931 C936 1.261 . S
C932 H899 0.930 . S
C932 N934 1.325 . S
C932 C935 1.357 . S
C933 H901 0.928 . S
C933 C931 1.406 . S
C933 N934 1.261 . S
N934 Co885 2.214 . S
N934 C932 1.325 . S
N934 C933 1.261 . S
C935 H905 0.931 . S
C935 C932 1.357 . S
C935 C936 1.312 . S
C936 H907 0.930 . S
C936 C931 1.261 . S
C936 C935 1.312 . S
C937 O909 1.214 . S
C937 O917 1.234 . S
C938 H910 0.929 . S
C938 C941 1.391 . S
C938 C943 1.391 . S
C939 H911 0.929 . S
C939 C940 1.390 . S
C939 N942 1.391 . S
C940 H912 0.930 . S
C940 C939 1.390 . S
C940 C941 1.392 . S
C941 H913 0.929 . S
C941 C938 1.391 . S
C941 C940 1.392 . S
N942 Co886 2.257 . S
N942 C939 1.391 . S
N942 C943 1.388 . S
C943 H914 0.930 . S
C943 C938 1.391 . S
C943 N942 1.388 . S
H944 C952 0.929 . S
H945 C954 0.930 . S
H946 C956 0.930 . S
H947 C959 0.929 . S
H948 C962 0.930 . S
H949 C964 0.960 . S
H950 C964 0.960 . S
H951 C964 0.960 . S
C952 H944 0.929 . S
C952 C953 1.377 . S
C952 C954 1.384 . S
C953 C952 1.377 . S
C953 C959 1.390 . S
C954 H945 0.930 . S
C954 C952 1.384 . S
C954 C955 1.372 . S
C955 C954 1.372 . S
C955 C956 1.400 . S
C955 C960 1.490 . S
C956 H946 0.930 . S
C956 C955 1.400 . S
C956 C959 1.386 . S
H957 C973 0.930 . S
H958 C974 0.931 . S
C959 H947 0.929 . S
C959 C953 1.390 . S
C959 C956 1.386 . S
C960 C955 1.490 . S
C960 C962 1.395 . S
C960 C963 1.403 . S
H961 C967 0.930 . S
C962 H948 0.930 . S
C962 C960 1.395 . S
C962 C965 1.403 . S
C963 C960 1.403 . S
C963 C964 1.524 . S
C963 C967 1.400 . S
C964 H949 0.960 . S
C964 H950 0.960 . S
C964 H951 0.960 . S
C964 C963 1.524 . S
C965 C962 1.403 . S
C965 C966 1.392 . S
C965 C969 1.495 . S
C966 C965 1.392 . S
C966 C967 1.385 . S
C966 C968 1.478 . S
C967 H961 0.930 . S
C967 C963 1.400 . S
C967 C966 1.385 . S
C968 C966 1.478 . S
C968 C970 1.381 . S
C968 C974 1.383 . S
C969 C965 1.495 . S
C969 H975 0.959 . S
C969 H976 0.961 . S
C969 H977 0.960 . S
C970 C968 1.381 . S
C970 C971 1.394 . S
C970 H978 0.930 . S
C971 C970 1.394 . S
C971 C972 1.383 . S
C971 H979 0.929 . S
C972 C971 1.383 . S
C972 C973 1.377 . S
C973 H957 0.930 . S
C973 C972 1.377 . S
C973 C974 1.379 . S
C974 H958 0.931 . S
C974 C968 1.383 . S
C974 C973 1.379 . S
H975 C969 0.959 . S
H976 C969 0.961 . S
H977 C969 0.960 . S
H978 C970 0.930 . S
H979 C971 0.929 . S
H980 C988 0.929 . S
H981 C990 0.930 . S
H982 C992 0.930 . S
H983 C995 0.929 . S
H984 C998 0.930 . S
H985 C1000 0.960 . S
H986 C1000 0.960 . S
H987 C1000 0.960 . S
C988 H980 0.929 . S
C988 C989 1.377 . S
C988 C990 1.384 . S
C989 C988 1.377 . S
C989 C995 1.390 . S
C990 H981 0.930 . S
C990 C988 1.384 . S
C990 C991 1.372 . S
C991 C990 1.372 . S
C991 C992 1.400 . S
C991 C996 1.490 . S
C992 H982 0.930 . S
C992 C991 1.400 . S
C992 C995 1.386 . S
H993 C1009 0.930 . S
H994 C1010 0.931 . S
C995 H983 0.929 . S
C995 C989 1.390 . S
C995 C992 1.386 . S
C996 C991 1.490 . S
C996 C998 1.395 . S
C996 C999 1.403 . S
H997 C1003 0.930 . S
C998 H984 0.930 . S
C998 C996 1.395 . S
C998 C1001 1.403 . S
C999 C996 1.403 . S
C999 C1000 1.524 . S
C999 C1003 1.400 . S
C1000 H985 0.960 . S
C1000 H986 0.960 . S
C1000 H987 0.960 . S
C1000 C999 1.524 . S
C1001 C998 1.403 . S
C1001 C1002 1.392 . S
C1001 C1005 1.495 . S
C1002 C1001 1.392 . S
C1002 C1003 1.385 . S
C1002 C1004 1.478 . S
C1003 H997 0.930 . S
C1003 C999 1.400 . S
C1003 C1002 1.385 . S
C1004 C1002 1.478 . S
C1004 C1006 1.381 . S
C1004 C1010 1.383 . S
C1005 C1001 1.495 . S
C1005 H1011 0.959 . S
C1005 H1012 0.961 . S
C1005 H1013 0.960 . S
C1006 C1004 1.381 . S
C1006 C1007 1.394 . S
C1006 H1014 0.930 . S
C1007 C1006 1.394 . S
C1007 C1008 1.383 . S
C1007 H1015 0.929 . S
C1008 C1007 1.383 . S
C1008 C1009 1.377 . S
C1009 H993 0.930 . S
C1009 C1008 1.377 . S
C1009 C1010 1.379 . S
C1010 H994 0.931 . S
C1010 C1004 1.383 . S
C1010 C1009 1.379 . S
H1011 C1005 0.959 . S
H1012 C1005 0.961 . S
H1013 C1005 0.960 . S
H1014 C1006 0.930 . S
H1015 C1007 0.929 . S
H1016 C1024 0.929 . S
H1017 C1026 0.930 . S
H1018 C1028 0.930 . S
H1019 C1031 0.929 . S
H1020 C1034 0.930 . S
H1021 C1036 0.960 . S
H1022 C1036 0.960 . S
H1023 C1036 0.960 . S
C1024 H1016 0.929 . S
C1024 C1025 1.377 . S
C1024 C1026 1.384 . S
C1025 C1024 1.377 . S
C1025 C1031 1.390 . S
C1026 H1017 0.930 . S
C1026 C1024 1.384 . S
C1026 C1027 1.372 . S
C1027 C1026 1.372 . S
C1027 C1028 1.400 . S
C1027 C1032 1.490 . S
C1028 H1018 0.930 . S
C1028 C1027 1.400 . S
C1028 C1031 1.386 . S
H1029 C1045 0.930 . S
H1030 C1046 0.931 . S
C1031 H1019 0.929 . S
C1031 C1025 1.390 . S
C1031 C1028 1.386 . S
C1032 C1027 1.490 . S
C1032 C1034 1.395 . S
C1032 C1035 1.403 . S
H1033 C1039 0.930 . S
C1034 H1020 0.930 . S
C1034 C1032 1.395 . S
C1034 C1037 1.403 . S
C1035 C1032 1.403 . S
C1035 C1036 1.524 . S
C1035 C1039 1.400 . S
C1036 H1021 0.960 . S
C1036 H1022 0.960 . S
C1036 H1023 0.960 . S
C1036 C1035 1.524 . S
C1037 C1034 1.403 . S
C1037 C1038 1.392 . S
C1037 C1041 1.495 . S
C1038 C1037 1.392 . S
C1038 C1039 1.385 . S
C1038 C1040 1.478 . S
C1039 H1033 0.930 . S
C1039 C1035 1.400 . S
C1039 C1038 1.385 . S
C1040 C1038 1.478 . S
C1040 C1042 1.381 . S
C1040 C1046 1.383 . S
C1041 C1037 1.495 . S
C1041 H1047 0.959 . S
C1041 H1048 0.961 . S
C1041 H1049 0.960 . S
C1042 C1040 1.381 . S
C1042 C1043 1.394 . S
C1042 H1050 0.930 . S
C1043 C1042 1.394 . S
C1043 C1044 1.383 . S
C1043 H1051 0.929 . S
C1044 C1043 1.383 . S
C1044 C1045 1.377 . S
C1045 H1029 0.930 . S
C1045 C1044 1.377 . S
C1045 C1046 1.379 . S
C1046 H1030 0.931 . S
C1046 C1040 1.383 . S
C1046 C1045 1.379 . S
H1047 C1041 0.959 . S
H1048 C1041 0.961 . S
H1049 C1041 0.960 . S
H1050 C1042 0.930 . S
H1051 C1043 0.929 . S
H1052 C1060 0.929 . S
H1053 C1062 0.930 . S
H1054 C1064 0.930 . S
H1055 C1067 0.929 . S
H1056 C1070 0.930 . S
H1057 C1072 0.960 . S
H1058 C1072 0.960 . S
H1059 C1072 0.960 . S
C1060 H1052 0.929 . S
C1060 C1061 1.377 . S
C1060 C1062 1.384 . S
C1061 C1060 1.377 . S
C1061 C1067 1.390 . S
C1062 H1053 0.930 . S
C1062 C1060 1.384 . S
C1062 C1063 1.372 . S
C1063 C1062 1.372 . S
C1063 C1064 1.400 . S
C1063 C1068 1.490 . S
C1064 H1054 0.930 . S
C1064 C1063 1.400 . S
C1064 C1067 1.386 . S
H1065 C1081 0.930 . S
H1066 C1082 0.931 . S
C1067 H1055 0.929 . S
C1067 C1061 1.390 . S
C1067 C1064 1.386 . S
C1068 C1063 1.490 . S
C1068 C1070 1.395 . S
C1068 C1071 1.403 . S
H1069 C1075 0.930 . S
C1070 H1056 0.930 . S
C1070 C1068 1.395 . S
C1070 C1073 1.403 . S
C1071 C1068 1.403 . S
C1071 C1072 1.524 . S
C1071 C1075 1.400 . S
C1072 H1057 0.960 . S
C1072 H1058 0.960 . S
C1072 H1059 0.960 . S
C1072 C1071 1.524 . S
C1073 C1070 1.403 . S
C1073 C1074 1.392 . S
C1073 C1077 1.495 . S
C1074 C1073 1.392 . S
C1074 C1075 1.385 . S
C1074 C1076 1.478 . S
C1075 H1069 0.930 . S
C1075 C1071 1.400 . S
C1075 C1074 1.385 . S
C1076 C1074 1.478 . S
C1076 C1078 1.381 . S
C1076 C1082 1.383 . S
C1077 C1073 1.495 . S
C1077 H1083 0.959 . S
C1077 H1084 0.961 . S
C1077 H1085 0.960 . S
C1078 C1076 1.381 . S
C1078 C1079 1.394 . S
C1078 H1086 0.930 . S
C1079 C1078 1.394 . S
C1079 C1080 1.383 . S
C1079 H1087 0.929 . S
C1080 C1079 1.383 . S
C1080 C1081 1.377 . S
C1081 H1065 0.930 . S
C1081 C1080 1.377 . S
C1081 C1082 1.379 . S
C1082 H1066 0.931 . S
C1082 C1076 1.383 . S
C1082 C1081 1.379 . S
H1083 C1077 0.959 . S
H1084 C1077 0.961 . S
H1085 C1077 0.960 . S
H1086 C1078 0.930 . S
H1087 C1079 0.929 . S
H1088 C1096 0.929 . S
H1089 C1098 0.930 . S
H1090 C1100 0.930 . S
H1091 C1103 0.929 . S
H1092 C1106 0.930 . S
H1093 C1108 0.960 . S
H1094 C1108 0.960 . S
H1095 C1108 0.960 . S
C1096 H1088 0.929 . S
C1096 C1097 1.377 . S
C1096 C1098 1.384 . S
C1097 C1096 1.377 . S
C1097 C1103 1.390 . S
C1098 H1089 0.930 . S
C1098 C1096 1.384 . S
C1098 C1099 1.372 . S
C1099 C1098 1.372 . S
C1099 C1100 1.400 . S
C1099 C1104 1.490 . S
C1100 H1090 0.930 . S
C1100 C1099 1.400 . S
C1100 C1103 1.386 . S
H1101 C1117 0.930 . S
H1102 C1118 0.931 . S
C1103 H1091 0.929 . S
C1103 C1097 1.390 . S
C1103 C1100 1.386 . S
C1104 C1099 1.490 . S
C1104 C1106 1.395 . S
C1104 C1107 1.403 . S
H1105 C1111 0.930 . S
C1106 H1092 0.930 . S
C1106 C1104 1.395 . S
C1106 C1109 1.403 . S
C1107 C1104 1.403 . S
C1107 C1108 1.524 . S
C1107 C1111 1.400 . S
C1108 H1093 0.960 . S
C1108 H1094 0.960 . S
C1108 H1095 0.960 . S
C1108 C1107 1.524 . S
C1109 C1106 1.403 . S
C1109 C1110 1.392 . S
C1109 C1113 1.495 . S
C1110 C1109 1.392 . S
C1110 C1111 1.385 . S
C1110 C1112 1.478 . S
C1111 H1105 0.930 . S
C1111 C1107 1.400 . S
C1111 C1110 1.385 . S
C1112 C1110 1.478 . S
C1112 C1114 1.381 . S
C1112 C1118 1.383 . S
C1113 C1109 1.495 . S
C1113 H1119 0.959 . S
C1113 H1120 0.961 . S
C1113 H1121 0.960 . S
C1114 C1112 1.381 . S
C1114 C1115 1.394 . S
C1114 H1122 0.930 . S
C1115 C1114 1.394 . S
C1115 C1116 1.383 . S
C1115 H1123 0.929 . S
C1116 C1115 1.383 . S
C1116 C1117 1.377 . S
C1117 H1101 0.930 . S
C1117 C1116 1.377 . S
C1117 C1118 1.379 . S
C1118 H1102 0.931 . S
C1118 C1112 1.383 . S
C1118 C1117 1.379 . S
H1119 C1113 0.959 . S
H1120 C1113 0.961 . S
H1121 C1113 0.960 . S
H1122 C1114 0.930 . S
H1123 C1115 0.929 . S
H1124 C1132 0.929 . S
H1125 C1134 0.930 . S
H1126 C1136 0.930 . S
H1127 C1139 0.929 . S
H1128 C1142 0.930 . S
H1129 C1144 0.960 . S
H1130 C1144 0.960 . S
H1131 C1144 0.960 . S
C1132 H1124 0.929 . S
C1132 C1133 1.377 . S
C1132 C1134 1.384 . S
C1133 C1132 1.377 . S
C1133 C1139 1.390 . S
C1134 H1125 0.930 . S
C1134 C1132 1.384 . S
C1134 C1135 1.372 . S
C1135 C1134 1.372 . S
C1135 C1136 1.400 . S
C1135 C1140 1.490 . S
C1136 H1126 0.930 . S
C1136 C1135 1.400 . S
C1136 C1139 1.386 . S
H1137 C1153 0.930 . S
H1138 C1154 0.931 . S
C1139 H1127 0.929 . S
C1139 C1133 1.390 . S
C1139 C1136 1.386 . S
C1140 C1135 1.490 . S
C1140 C1142 1.395 . S
C1140 C1143 1.403 . S
H1141 C1147 0.930 . S
C1142 H1128 0.930 . S
C1142 C1140 1.395 . S
C1142 C1145 1.403 . S
C1143 C1140 1.403 . S
C1143 C1144 1.524 . S
C1143 C1147 1.400 . S
C1144 H1129 0.960 . S
C1144 H1130 0.960 . S
C1144 H1131 0.960 . S
C1144 C1143 1.524 . S
C1145 C1142 1.403 . S
C1145 C1146 1.392 . S
C1145 C1149 1.495 . S
C1146 C1145 1.392 . S
C1146 C1147 1.385 . S
C1146 C1148 1.478 . S
C1147 H1141 0.930 . S
C1147 C1143 1.400 . S
C1147 C1146 1.385 . S
C1148 C1146 1.478 . S
C1148 C1150 1.381 . S
C1148 C1154 1.383 . S
C1149 C1145 1.495 . S
C1149 H1155 0.959 . S
C1149 H1156 0.961 . S
C1149 H1157 0.960 . S
C1150 C1148 1.381 . S
C1150 C1151 1.394 . S
C1150 H1158 0.930 . S
C1151 C1150 1.394 . S
C1151 C1152 1.383 . S
C1151 H1159 0.929 . S
C1152 C1151 1.383 . S
C1152 C1153 1.377 . S
C1153 H1137 0.930 . S
C1153 C1152 1.377 . S
C1153 C1154 1.379 . S
C1154 H1138 0.931 . S
C1154 C1148 1.383 . S
C1154 C1153 1.379 . S
H1155 C1149 0.959 . S
H1156 C1149 0.961 . S
H1157 C1149 0.960 . S
H1158 C1150 0.930 . S
H1159 C1151 0.929 . S
H1160 C1168 0.929 . S
H1161 C1170 0.930 . S
H1162 C1172 0.930 . S
H1163 C1175 0.929 . S
H1164 C1178 0.930 . S
H1165 C1180 0.960 . S
H1166 C1180 0.960 . S
H1167 C1180 0.960 . S
C1168 H1160 0.929 . S
C1168 C1169 1.377 . S
C1168 C1170 1.384 . S
C1169 C1168 1.377 . S
C1169 C1175 1.390 . S
C1170 H1161 0.930 . S
C1170 C1168 1.384 . S
C1170 C1171 1.372 . S
C1171 C1170 1.372 . S
C1171 C1172 1.400 . S
C1171 C1176 1.490 . S
C1172 H1162 0.930 . S
C1172 C1171 1.400 . S
C1172 C1175 1.386 . S
H1173 C1189 0.930 . S
H1174 C1190 0.931 . S
C1175 H1163 0.929 . S
C1175 C1169 1.390 . S
C1175 C1172 1.386 . S
C1176 C1171 1.490 . S
C1176 C1178 1.395 . S
C1176 C1179 1.403 . S
H1177 C1183 0.930 . S
C1178 H1164 0.930 . S
C1178 C1176 1.395 . S
C1178 C1181 1.403 . S
C1179 C1176 1.403 . S
C1179 C1180 1.524 . S
C1179 C1183 1.400 . S
C1180 H1165 0.960 . S
C1180 H1166 0.960 . S
C1180 H1167 0.960 . S
C1180 C1179 1.524 . S
C1181 C1178 1.403 . S
C1181 C1182 1.392 . S
C1181 C1185 1.495 . S
C1182 C1181 1.392 . S
C1182 C1183 1.385 . S
C1182 C1184 1.478 . S
C1183 H1177 0.930 . S
C1183 C1179 1.400 . S
C1183 C1182 1.385 . S
C1184 C1182 1.478 . S
C1184 C1186 1.381 . S
C1184 C1190 1.383 . S
C1185 C1181 1.495 . S
C1185 H1191 0.959 . S
C1185 H1192 0.961 . S
C1185 H1193 0.960 . S
C1186 C1184 1.381 . S
C1186 C1187 1.394 . S
C1186 H1194 0.930 . S
C1187 C1186 1.394 . S
C1187 C1188 1.383 . S
C1187 H1195 0.929 . S
C1188 C1187 1.383 . S
C1188 C1189 1.377 . S
C1189 H1173 0.930 . S
C1189 C1188 1.377 . S
C1189 C1190 1.379 . S
C1190 H1174 0.931 . S
C1190 C1184 1.383 . S
C1190 C1189 1.379 . S
H1191 C1185 0.959 . S
H1192 C1185 0.961 . S
H1193 C1185 0.960 . S
H1194 C1186 0.930 . S
H1195 C1187 0.929 . S
H1196 C1204 0.929 . S
H1197 C1206 0.930 . S
H1198 C1208 0.930 . S
H1199 C1211 0.929 . S
H1200 C1214 0.930 . S
H1201 C1216 0.960 . S
H1202 C1216 0.960 . S
H1203 C1216 0.960 . S
C1204 H1196 0.929 . S
C1204 C1205 1.377 . S
C1204 C1206 1.384 . S
C1205 C1204 1.377 . S
C1205 C1211 1.390 . S
C1206 H1197 0.930 . S
C1206 C1204 1.384 . S
C1206 C1207 1.372 . S
C1207 C1206 1.372 . S
C1207 C1208 1.400 . S
C1207 C1212 1.490 . S
C1208 H1198 0.930 . S
C1208 C1207 1.400 . S
C1208 C1211 1.386 . S
H1209 C1225 0.930 . S
H1210 C1226 0.931 . S
C1211 H1199 0.929 . S
C1211 C1205 1.390 . S
C1211 C1208 1.386 . S
C1212 C1207 1.490 . S
C1212 C1214 1.395 . S
C1212 C1215 1.403 . S
H1213 C1219 0.930 . S
C1214 H1200 0.930 . S
C1214 C1212 1.395 . S
C1214 C1217 1.403 . S
C1215 C1212 1.403 . S
C1215 C1216 1.524 . S
C1215 C1219 1.400 . S
C1216 H1201 0.960 . S
C1216 H1202 0.960 . S
C1216 H1203 0.960 . S
C1216 C1215 1.524 . S
C1217 C1214 1.403 . S
C1217 C1218 1.392 . S
C1217 C1221 1.495 . S
C1218 C1217 1.392 . S
C1218 C1219 1.385 . S
C1218 C1220 1.478 . S
C1219 H1213 0.930 . S
C1219 C1215 1.400 . S
C1219 C1218 1.385 . S
C1220 C1218 1.478 . S
C1220 C1222 1.381 . S
C1220 C1226 1.383 . S
C1221 C1217 1.495 . S
C1221 H1227 0.959 . S
C1221 H1228 0.961 . S
C1221 H1229 0.960 . S
C1222 C1220 1.381 . S
C1222 C1223 1.394 . S
C1222 H1230 0.930 . S
C1223 C1222 1.394 . S
C1223 C1224 1.383 . S
C1223 H1231 0.929 . S
C1224 C1223 1.383 . S
C1224 C1225 1.377 . S
C1225 H1209 0.930 . S
C1225 C1224 1.377 . S
C1225 C1226 1.379 . S
C1226 H1210 0.931 . S
C1226 C1220 1.383 . S
C1226 C1225 1.379 . S
H1227 C1221 0.959 . S
H1228 C1221 0.961 . S
H1229 C1221 0.960 . S
H1230 C1222 0.930 . S
H1231 C1223 0.929 . S
H1232 C1240 0.929 . S
H1233 C1242 0.930 . S
H1234 C1244 0.930 . S
H1235 C1247 0.929 . S
H1236 C1250 0.930 . S
H1237 C1252 0.960 . S
H1238 C1252 0.960 . S
H1239 C1252 0.960 . S
C1240 H1232 0.929 . S
C1240 C1241 1.377 . S
C1240 C1242 1.384 . S
C1241 C1240 1.377 . S
C1241 C1247 1.390 . S
C1242 H1233 0.930 . S
C1242 C1240 1.384 . S
C1242 C1243 1.372 . S
C1243 C1242 1.372 . S
C1243 C1244 1.400 . S
C1243 C1248 1.490 . S
C1244 H1234 0.930 . S
C1244 C1243 1.400 . S
C1244 C1247 1.386 . S
H1245 C1261 0.930 . S
H1246 C1262 0.931 . S
C1247 H1235 0.929 . S
C1247 C1241 1.390 . S
C1247 C1244 1.386 . S
C1248 C1243 1.490 . S
C1248 C1250 1.395 . S
C1248 C1251 1.403 . S
H1249 C1255 0.930 . S
C1250 H1236 0.930 . S
C1250 C1248 1.395 . S
C1250 C1253 1.403 1_556 S
C1251 C1248 1.403 . S
C1251 C1252 1.524 . S
C1251 C1255 1.400 1_556 S
C1252 H1237 0.960 . S
C1252 H1238 0.960 . S
C1252 H1239 0.960 . S
C1252 C1251 1.524 . S
C1253 C1250 1.403 1_554 S
C1253 C1254 1.392 . S
C1253 C1257 1.495 . S
C1254 C1253 1.392 . S
C1254 C1255 1.385 . S
C1254 C1256 1.478 . S
C1255 H1249 0.930 . S
C1255 C1251 1.400 1_554 S
C1255 C1254 1.385 . S
C1256 C1254 1.478 . S
C1256 C1258 1.381 . S
C1256 C1262 1.383 . S
C1257 C1253 1.495 . S
C1257 H1263 0.959 . S
C1257 H1264 0.961 . S
C1257 H1265 0.960 . S
C1258 C1256 1.381 . S
C1258 C1259 1.394 . S
C1258 H1266 0.930 . S
C1259 C1258 1.394 . S
C1259 C1260 1.383 . S
C1259 H1267 0.929 . S
C1260 C1259 1.383 . S
C1260 C1261 1.377 . S
C1261 H1245 0.930 . S
C1261 C1260 1.377 . S
C1261 C1262 1.379 . S
C1262 H1246 0.931 . S
C1262 C1256 1.383 . S
C1262 C1261 1.379 . S
H1263 C1257 0.959 . S
H1264 C1257 0.961 . S
H1265 C1257 0.960 . S
H1266 C1258 0.930 . S
H1267 C1259 0.929 . S
H1268 C1276 0.929 . S
H1269 C1278 0.930 . S
H1270 C1280 0.930 . S
H1271 C1283 0.929 . S
H1272 C1286 0.930 . S
H1273 C1288 0.960 . S
H1274 C1288 0.960 . S
H1275 C1288 0.960 . S
C1276 H1268 0.929 . S
C1276 C1277 1.377 . S
C1276 C1278 1.384 . S
C1277 C1276 1.377 . S
C1277 C1283 1.390 . S
C1278 H1269 0.930 . S
C1278 C1276 1.384 . S
C1278 C1279 1.372 . S
C1279 C1278 1.372 . S
C1279 C1280 1.400 . S
C1279 C1284 1.490 . S
C1280 H1270 0.930 . S
C1280 C1279 1.400 . S
C1280 C1283 1.386 . S
H1281 C1297 0.930 . S
H1282 C1298 0.931 . S
C1283 H1271 0.929 . S
C1283 C1277 1.390 . S
C1283 C1280 1.386 . S
C1284 C1279 1.490 . S
C1284 C1286 1.395 . S
C1284 C1287 1.403 . S
H1285 C1291 0.930 . S
C1286 H1272 0.930 . S
C1286 C1284 1.395 . S
C1286 C1289 1.403 1_556 S
C1287 C1284 1.403 . S
C1287 C1288 1.524 . S
C1287 C1291 1.400 1_556 S
C1288 H1273 0.960 . S
C1288 H1274 0.960 . S
C1288 H1275 0.960 . S
C1288 C1287 1.524 . S
C1289 C1286 1.403 1_554 S
C1289 C1290 1.392 . S
C1289 C1293 1.495 . S
C1290 C1289 1.392 . S
C1290 C1291 1.385 . S
C1290 C1292 1.478 . S
C1291 H1285 0.930 . S
C1291 C1287 1.400 1_554 S
C1291 C1290 1.385 . S
C1292 C1290 1.478 . S
C1292 C1294 1.381 . S
C1292 C1298 1.383 . S
C1293 C1289 1.495 . S
C1293 H1299 0.959 . S
C1293 H1300 0.961 . S
C1293 H1301 0.960 . S
C1294 C1292 1.381 . S
C1294 C1295 1.394 . S
C1294 H1302 0.930 . S
C1295 C1294 1.394 . S
C1295 C1296 1.383 . S
C1295 H1303 0.929 . S
C1296 C1295 1.383 . S
C1296 C1297 1.377 . S
C1297 H1281 0.930 . S
C1297 C1296 1.377 . S
C1297 C1298 1.379 . S
C1298 H1282 0.931 . S
C1298 C1292 1.383 . S
C1298 C1297 1.379 . S
H1299 C1293 0.959 . S
H1300 C1293 0.961 . S
H1301 C1293 0.960 . S
H1302 C1294 0.930 . S
H1303 C1295 0.929 . S
H1304 C1312 0.929 . S
H1305 C1314 0.930 . S
H1306 C1316 0.930 . S
H1307 C1319 0.929 . S
H1308 C1322 0.930 . S
H1309 C1324 0.960 . S
H1310 C1324 0.960 . S
H1311 C1324 0.960 . S
C1312 H1304 0.929 . S
C1312 C1313 1.377 . S
C1312 C1314 1.384 . S
C1313 C1312 1.377 . S
C1313 C1319 1.390 . S
C1314 H1305 0.930 . S
C1314 C1312 1.384 . S
C1314 C1315 1.372 . S
C1315 C1314 1.372 . S
C1315 C1316 1.400 . S
C1315 C1320 1.490 . S
C1316 H1306 0.930 . S
C1316 C1315 1.400 . S
C1316 C1319 1.386 . S
H1317 C1333 0.930 . S
H1318 C1334 0.931 . S
C1319 H1307 0.929 . S
C1319 C1313 1.390 . S
C1319 C1316 1.386 . S
C1320 C1315 1.490 . S
C1320 C1322 1.395 . S
C1320 C1323 1.403 . S
H1321 C1327 0.930 . S
C1322 H1308 0.930 . S
C1322 C1320 1.395 . S
C1322 C1325 1.403 1_556 S
C1323 C1320 1.403 . S
C1323 C1324 1.524 . S
C1323 C1327 1.400 1_556 S
C1324 H1309 0.960 . S
C1324 H1310 0.960 . S
C1324 H1311 0.960 . S
C1324 C1323 1.524 . S
C1325 C1322 1.403 1_554 S
C1325 C1326 1.392 . S
C1325 C1329 1.495 . S
C1326 C1325 1.392 . S
C1326 C1327 1.385 . S
C1326 C1328 1.478 . S
C1327 H1321 0.930 . S
C1327 C1323 1.400 1_554 S
C1327 C1326 1.385 . S
C1328 C1326 1.478 . S
C1328 C1330 1.381 . S
C1328 C1334 1.383 . S
C1329 C1325 1.495 . S
C1329 H1335 0.959 . S
C1329 H1336 0.961 . S
C1329 H1337 0.960 . S
C1330 C1328 1.381 . S
C1330 C1331 1.394 . S
C1330 H1338 0.930 . S
C1331 C1330 1.394 . S
C1331 C1332 1.383 . S
C1331 H1339 0.929 . S
C1332 C1331 1.383 . S
C1332 C1333 1.377 . S
C1333 H1317 0.930 . S
C1333 C1332 1.377 . S
C1333 C1334 1.379 . S
C1334 H1318 0.931 . S
C1334 C1328 1.383 . S
C1334 C1333 1.379 . S
H1335 C1329 0.959 . S
H1336 C1329 0.961 . S
H1337 C1329 0.960 . S
H1338 C1330 0.930 . S
H1339 C1331 0.929 . S
H1340 C1348 0.929 . S
H1341 C1350 0.930 . S
H1342 C1352 0.930 . S
H1343 C1355 0.929 . S
H1344 C1358 0.930 . S
H1345 C1360 0.960 . S
H1346 C1360 0.960 . S
H1347 C1360 0.960 . S
C1348 H1340 0.929 . S
C1348 C1349 1.377 . S
C1348 C1350 1.384 . S
C1349 C1348 1.377 . S
C1349 C1355 1.390 . S
C1350 H1341 0.930 . S
C1350 C1348 1.384 . S
C1350 C1351 1.372 . S
C1351 C1350 1.372 . S
C1351 C1352 1.400 . S
C1351 C1356 1.490 . S
C1352 H1342 0.930 . S
C1352 C1351 1.400 . S
C1352 C1355 1.386 . S
H1353 C1369 0.930 . S
H1354 C1370 0.931 . S
C1355 H1343 0.929 . S
C1355 C1349 1.390 . S
C1355 C1352 1.386 . S
C1356 C1351 1.490 . S
C1356 C1358 1.395 . S
C1356 C1359 1.403 . S
H1357 C1363 0.930 . S
C1358 H1344 0.930 . S
C1358 C1356 1.395 . S
C1358 C1361 1.403 1_554 S
C1359 C1356 1.403 . S
C1359 C1360 1.524 . S
C1359 C1363 1.400 1_554 S
C1360 H1345 0.960 . S
C1360 H1346 0.960 . S
C1360 H1347 0.960 . S
C1360 C1359 1.524 . S
C1361 C1358 1.403 1_556 S
C1361 C1362 1.392 . S
C1361 C1365 1.495 . S
C1362 C1361 1.392 . S
C1362 C1363 1.385 . S
C1362 C1364 1.478 . S
C1363 H1357 0.930 . S
C1363 C1359 1.400 1_556 S
C1363 C1362 1.385 . S
C1364 C1362 1.478 . S
C1364 C1366 1.381 . S
C1364 C1370 1.383 . S
C1365 C1361 1.495 . S
C1365 H1371 0.959 . S
C1365 H1372 0.961 . S
C1365 H1373 0.960 . S
C1366 C1364 1.381 . S
C1366 C1367 1.394 . S
C1366 H1374 0.930 . S
C1367 C1366 1.394 . S
C1367 C1368 1.383 . S
C1367 H1375 0.929 . S
C1368 C1367 1.383 . S
C1368 C1369 1.377 . S
C1369 H1353 0.930 . S
C1369 C1368 1.377 . S
C1369 C1370 1.379 . S
C1370 H1354 0.931 . S
C1370 C1364 1.383 . S
C1370 C1369 1.379 . S
H1371 C1365 0.959 . S
H1372 C1365 0.961 . S
H1373 C1365 0.960 . S
H1374 C1366 0.930 . S
H1375 C1367 0.929 . S
H1376 C1384 0.929 . S
H1377 C1386 0.930 . S
H1378 C1388 0.930 . S
H1379 C1391 0.929 . S
H1380 C1394 0.930 . S
H1381 C1396 0.960 . S
H1382 C1396 0.960 . S
H1383 C1396 0.960 . S
C1384 H1376 0.929 . S
C1384 C1385 1.377 . S
C1384 C1386 1.384 . S
C1385 C1384 1.377 . S
C1385 C1391 1.390 . S
C1386 H1377 0.930 . S
C1386 C1384 1.384 . S
C1386 C1387 1.372 . S
C1387 C1386 1.372 . S
C1387 C1388 1.400 . S
C1387 C1392 1.490 . S
C1388 H1378 0.930 . S
C1388 C1387 1.400 . S
C1388 C1391 1.386 . S
H1389 C1405 0.930 . S
H1390 C1406 0.931 . S
C1391 H1379 0.929 . S
C1391 C1385 1.390 . S
C1391 C1388 1.386 . S
C1392 C1387 1.490 . S
C1392 C1394 1.395 . S
C1392 C1395 1.403 . S
H1393 C1399 0.930 . S
C1394 H1380 0.930 . S
C1394 C1392 1.395 . S
C1394 C1397 1.403 . S
C1395 C1392 1.403 . S
C1395 C1396 1.524 . S
C1395 C1399 1.400 . S
C1396 H1381 0.960 . S
C1396 H1382 0.960 . S
C1396 H1383 0.960 . S
C1396 C1395 1.524 . S
C1397 C1394 1.403 . S
C1397 C1398 1.392 . S
C1397 C1401 1.495 . S
C1398 C1397 1.392 . S
C1398 C1399 1.385 . S
C1398 C1400 1.478 . S
C1399 H1393 0.930 . S
C1399 C1395 1.400 . S
C1399 C1398 1.385 . S
C1400 C1398 1.478 . S
C1400 C1402 1.381 . S
C1400 C1406 1.383 . S
C1401 C1397 1.495 . S
C1401 H1407 0.959 . S
C1401 H1408 0.961 . S
C1401 H1409 0.960 . S
C1402 C1400 1.381 . S
C1402 C1403 1.394 . S
C1402 H1410 0.930 . S
C1403 C1402 1.394 . S
C1403 C1404 1.383 . S
C1403 H1411 0.929 . S
C1404 C1403 1.383 . S
C1404 C1405 1.377 . S
C1405 H1389 0.930 . S
C1405 C1404 1.377 . S
C1405 C1406 1.379 . S
C1406 H1390 0.931 . S
C1406 C1400 1.383 . S
C1406 C1405 1.379 . S
H1407 C1401 0.959 . S
H1408 C1401 0.961 . S
H1409 C1401 0.960 . S
H1410 C1402 0.930 . S
H1411 C1403 0.929 . S
H1412 C1420 0.929 . S
H1413 C1422 0.930 . S
H1414 C1424 0.930 . S
H1415 C1427 0.929 . S
H1416 C1430 0.930 . S
H1417 C1432 0.960 . S
H1418 C1432 0.960 . S
H1419 C1432 0.960 . S
C1420 H1412 0.929 . S
C1420 C1421 1.377 . S
C1420 C1422 1.384 . S
C1421 C1420 1.377 . S
C1421 C1427 1.390 . S
C1422 H1413 0.930 . S
C1422 C1420 1.384 . S
C1422 C1423 1.372 . S
C1423 C1422 1.372 . S
C1423 C1424 1.400 . S
C1423 C1428 1.490 . S
C1424 H1414 0.930 . S
C1424 C1423 1.400 . S
C1424 C1427 1.386 . S
H1425 C1441 0.930 . S
H1426 C1442 0.931 . S
C1427 H1415 0.929 . S
C1427 C1421 1.390 . S
C1427 C1424 1.386 . S
C1428 C1423 1.490 . S
C1428 C1430 1.395 . S
C1428 C1431 1.403 . S
H1429 C1435 0.930 . S
C1430 H1416 0.930 . S
C1430 C1428 1.395 . S
C1430 C1433 1.403 . S
C1431 C1428 1.403 . S
C1431 C1432 1.524 . S
C1431 C1435 1.400 . S
C1432 H1417 0.960 . S
C1432 H1418 0.960 . S
C1432 H1419 0.960 . S
C1432 C1431 1.524 . S
C1433 C1430 1.403 . S
C1433 C1434 1.392 . S
C1433 C1437 1.495 . S
C1434 C1433 1.392 . S
C1434 C1435 1.385 . S
C1434 C1436 1.478 . S
C1435 H1429 0.930 . S
C1435 C1431 1.400 . S
C1435 C1434 1.385 . S
C1436 C1434 1.478 . S
C1436 C1438 1.381 . S
C1436 C1442 1.383 . S
C1437 C1433 1.495 . S
C1437 H1443 0.959 . S
C1437 H1444 0.961 . S
C1437 H1445 0.960 . S
C1438 C1436 1.381 . S
C1438 C1439 1.394 . S
C1438 H1446 0.930 . S
C1439 C1438 1.394 . S
C1439 C1440 1.383 . S
C1439 H1447 0.929 . S
C1440 C1439 1.383 . S
C1440 C1441 1.377 . S
C1441 H1425 0.930 . S
C1441 C1440 1.377 . S
C1441 C1442 1.379 . S
C1442 H1426 0.931 . S
C1442 C1436 1.383 . S
C1442 C1441 1.379 . S
H1443 C1437 0.959 . S
H1444 C1437 0.961 . S
H1445 C1437 0.960 . S
H1446 C1438 0.930 . S
H1447 C1439 0.929 . S
H1448 C1456 0.929 . S
H1449 C1458 0.930 . S
H1450 C1460 0.930 . S
H1451 C1463 0.929 . S
H1452 C1466 0.930 . S
H1453 C1468 0.960 . S
H1454 C1468 0.960 . S
H1455 C1468 0.960 . S
C1456 H1448 0.929 . S
C1456 C1457 1.377 . S
C1456 C1458 1.384 . S
C1457 C1456 1.377 . S
C1457 C1463 1.390 . S
C1458 H1449 0.930 . S
C1458 C1456 1.384 . S
C1458 C1459 1.372 . S
C1459 C1458 1.372 . S
C1459 C1460 1.400 . S
C1459 C1464 1.490 . S
C1460 H1450 0.930 . S
C1460 C1459 1.400 . S
C1460 C1463 1.386 . S
H1461 C1477 0.930 . S
H1462 C1478 0.931 . S
C1463 H1451 0.929 . S
C1463 C1457 1.390 . S
C1463 C1460 1.386 . S
C1464 C1459 1.490 . S
C1464 C1466 1.395 . S
C1464 C1467 1.403 . S
H1465 C1471 0.930 . S
C1466 H1452 0.930 . S
C1466 C1464 1.395 . S
C1466 C1469 1.403 . S
C1467 C1464 1.403 . S
C1467 C1468 1.524 . S
C1467 C1471 1.400 . S
C1468 H1453 0.960 . S
C1468 H1454 0.960 . S
C1468 H1455 0.960 . S
C1468 C1467 1.524 . S
C1469 C1466 1.403 . S
C1469 C1470 1.392 . S
C1469 C1473 1.495 . S
C1470 C1469 1.392 . S
C1470 C1471 1.385 . S
C1470 C1472 1.478 . S
C1471 H1465 0.930 . S
C1471 C1467 1.400 . S
C1471 C1470 1.385 . S
C1472 C1470 1.478 . S
C1472 C1474 1.381 . S
C1472 C1478 1.383 . S
C1473 C1469 1.495 . S
C1473 H1479 0.959 . S
C1473 H1480 0.961 . S
C1473 H1481 0.960 . S
C1474 C1472 1.381 . S
C1474 C1475 1.394 . S
C1474 H1482 0.930 . S
C1475 C1474 1.394 . S
C1475 C1476 1.383 . S
C1475 H1483 0.929 . S
C1476 C1475 1.383 . S
C1476 C1477 1.377 . S
C1477 H1461 0.930 . S
C1477 C1476 1.377 . S
C1477 C1478 1.379 . S
C1478 H1462 0.931 . S
C1478 C1472 1.383 . S
C1478 C1477 1.379 . S
H1479 C1473 0.959 . S
H1480 C1473 0.961 . S
H1481 C1473 0.960 . S
H1482 C1474 0.930 . S
H1483 C1475 0.929 . S
H1484 C1492 0.929 . S
H1485 C1494 0.930 . S
H1486 C1496 0.930 . S
H1487 C1499 0.929 . S
H1488 C1502 0.930 . S
H1489 C1504 0.960 . S
H1490 C1504 0.960 . S
H1491 C1504 0.960 . S
C1492 H1484 0.929 . S
C1492 C1493 1.377 . S
C1492 C1494 1.384 . S
C1493 C1492 1.377 . S
C1493 C1499 1.390 . S
C1494 H1485 0.930 . S
C1494 C1492 1.384 . S
C1494 C1495 1.372 . S
C1495 C1494 1.372 . S
C1495 C1496 1.400 . S
C1495 C1500 1.490 . S
C1496 H1486 0.930 . S
C1496 C1495 1.400 . S
C1496 C1499 1.386 . S
H1497 C1513 0.930 . S
H1498 C1514 0.931 . S
C1499 H1487 0.929 . S
C1499 C1493 1.390 . S
C1499 C1496 1.386 . S
C1500 C1495 1.490 . S
C1500 C1502 1.395 . S
C1500 C1503 1.403 . S
H1501 C1507 0.930 . S
C1502 H1488 0.930 . S
C1502 C1500 1.395 . S
C1502 C1505 1.403 . S
C1503 C1500 1.403 . S
C1503 C1504 1.524 . S
C1503 C1507 1.400 . S
C1504 H1489 0.960 . S
C1504 H1490 0.960 . S
C1504 H1491 0.960 . S
C1504 C1503 1.524 . S
C1505 C1502 1.403 . S
C1505 C1506 1.392 . S
C1505 C1509 1.495 . S
C1506 C1505 1.392 . S
C1506 C1507 1.385 . S
C1506 C1508 1.478 . S
C1507 H1501 0.930 . S
C1507 C1503 1.400 . S
C1507 C1506 1.385 . S
C1508 C1506 1.478 . S
C1508 C1510 1.381 . S
C1508 C1514 1.383 . S
C1509 C1505 1.495 . S
C1509 H1515 0.959 . S
C1509 H1516 0.961 . S
C1509 H1517 0.960 . S
C1510 C1508 1.381 . S
C1510 C1511 1.394 . S
C1510 H1518 0.930 . S
C1511 C1510 1.394 . S
C1511 C1512 1.383 . S
C1511 H1519 0.929 . S
C1512 C1511 1.383 . S
C1512 C1513 1.377 . S
C1513 H1497 0.930 . S
C1513 C1512 1.377 . S
C1513 C1514 1.379 . S
C1514 H1498 0.931 . S
C1514 C1508 1.383 . S
C1514 C1513 1.379 . S
H1515 C1509 0.959 . S
H1516 C1509 0.961 . S
H1517 C1509 0.960 . S
H1518 C1510 0.930 . S
H1519 C1511 0.929 . S
H1520 C1528 0.929 . S
H1521 C1530 0.930 . S
H1522 C1532 0.930 . S
H1523 C1535 0.929 . S
H1524 C1538 0.930 . S
H1525 C1540 0.960 . S
H1526 C1540 0.960 . S
H1527 C1540 0.960 . S
C1528 H1520 0.929 . S
C1528 C1529 1.377 . S
C1528 C1530 1.384 . S
C1529 C1528 1.377 . S
C1529 C1535 1.390 . S
C1530 H1521 0.930 . S
C1530 C1528 1.384 . S
C1530 C1531 1.372 . S
C1531 C1530 1.372 . S
C1531 C1532 1.400 . S
C1531 C1536 1.490 . S
C1532 H1522 0.930 . S
C1532 C1531 1.400 . S
C1532 C1535 1.386 . S
H1533 C1549 0.930 . S
H1534 C1550 0.931 . S
C1535 H1523 0.929 . S
C1535 C1529 1.390 . S
C1535 C1532 1.386 . S
C1536 C1531 1.490 . S
C1536 C1538 1.395 . S
C1536 C1539 1.403 . S
H1537 C1543 0.930 . S
C1538 H1524 0.930 . S
C1538 C1536 1.395 . S
C1538 C1541 1.403 . S
C1539 C1536 1.403 . S
C1539 C1540 1.524 . S
C1539 C1543 1.400 . S
C1540 H1525 0.960 . S
C1540 H1526 0.960 . S
C1540 H1527 0.960 . S
C1540 C1539 1.524 . S
C1541 C1538 1.403 . S
C1541 C1542 1.392 . S
C1541 C1545 1.495 . S
C1542 C1541 1.392 . S
C1542 C1543 1.385 . S
C1542 C1544 1.478 . S
C1543 H1537 0.930 . S
C1543 C1539 1.400 . S
C1543 C1542 1.385 . S
C1544 C1542 1.478 . S
C1544 C1546 1.381 . S
C1544 C1550 1.383 . S
C1545 C1541 1.495 . S
C1545 H1551 0.959 . S
C1545 H1552 0.961 . S
C1545 H1553 0.960 . S
C1546 C1544 1.381 . S
C1546 C1547 1.394 . S
C1546 H1554 0.930 . S
C1547 C1546 1.394 . S
C1547 C1548 1.383 . S
C1547 H1555 0.929 . S
C1548 C1547 1.383 . S
C1548 C1549 1.377 . S
C1549 H1533 0.930 . S
C1549 C1548 1.377 . S
C1549 C1550 1.379 . S
C1550 H1534 0.931 . S
C1550 C1544 1.383 . S
C1550 C1549 1.379 . S
H1551 C1545 0.959 . S
H1552 C1545 0.961 . S
H1553 C1545 0.960 . S
H1554 C1546 0.930 . S
H1555 C1547 0.929 . S
H1556 C1564 0.929 . S
H1557 C1566 0.930 . S
H1558 C1568 0.930 . S
H1559 C1571 0.929 . S
H1560 C1574 0.930 . S
H1561 C1576 0.960 . S
H1562 C1576 0.960 . S
H1563 C1576 0.960 . S
C1564 H1556 0.929 . S
C1564 C1565 1.377 . S
C1564 C1566 1.384 . S
C1565 C1564 1.377 . S
C1565 C1571 1.390 . S
C1566 H1557 0.930 . S
C1566 C1564 1.384 . S
C1566 C1567 1.372 . S
C1567 C1566 1.372 . S
C1567 C1568 1.400 . S
C1567 C1572 1.490 . S
C1568 H1558 0.930 . S
C1568 C1567 1.400 . S
C1568 C1571 1.386 . S
H1569 C1585 0.930 . S
H1570 C1586 0.931 . S
C1571 H1559 0.929 . S
C1571 C1565 1.390 . S
C1571 C1568 1.386 . S
C1572 C1567 1.490 . S
C1572 C1574 1.395 . S
C1572 C1575 1.403 . S
H1573 C1579 0.930 . S
C1574 H1560 0.930 . S
C1574 C1572 1.395 . S
C1574 C1577 1.403 . S
C1575 C1572 1.403 . S
C1575 C1576 1.524 . S
C1575 C1579 1.400 . S
C1576 H1561 0.960 . S
C1576 H1562 0.960 . S
C1576 H1563 0.960 . S
C1576 C1575 1.524 . S
C1577 C1574 1.403 . S
C1577 C1578 1.392 . S
C1577 C1581 1.495 . S
C1578 C1577 1.392 . S
C1578 C1579 1.385 . S
C1578 C1580 1.478 . S
C1579 H1573 0.930 . S
C1579 C1575 1.400 . S
C1579 C1578 1.385 . S
C1580 C1578 1.478 . S
C1580 C1582 1.381 . S
C1580 C1586 1.383 . S
C1581 C1577 1.495 . S
C1581 H1587 0.959 . S
C1581 H1588 0.961 . S
C1581 H1589 0.960 . S
C1582 C1580 1.381 . S
C1582 C1583 1.394 . S
C1582 H1590 0.930 . S
C1583 C1582 1.394 . S
C1583 C1584 1.383 . S
C1583 H1591 0.929 . S
C1584 C1583 1.383 . S
C1584 C1585 1.377 . S
C1585 H1569 0.930 . S
C1585 C1584 1.377 . S
C1585 C1586 1.379 . S
C1586 H1570 0.931 . S
C1586 C1580 1.383 . S
C1586 C1585 1.379 . S
H1587 C1581 0.959 . S
H1588 C1581 0.961 . S
H1589 C1581 0.960 . S
H1590 C1582 0.930 . S
H1591 C1583 0.929 . S
H1592 C1600 0.929 . S
H1593 C1602 0.930 . S
H1594 C1604 0.930 . S
H1595 C1607 0.929 . S
H1596 C1610 0.930 . S
H1597 C1612 0.960 . S
H1598 C1612 0.960 . S
H1599 C1612 0.960 . S
C1600 H1592 0.929 . S
C1600 C1601 1.377 . S
C1600 C1602 1.384 . S
C1601 C1600 1.377 . S
C1601 C1607 1.390 . S
C1602 H1593 0.930 . S
C1602 C1600 1.384 . S
C1602 C1603 1.372 . S
C1603 C1602 1.372 . S
C1603 C1604 1.400 . S
C1603 C1608 1.490 . S
C1604 H1594 0.930 . S
C1604 C1603 1.400 . S
C1604 C1607 1.386 . S
H1605 C1621 0.930 . S
H1606 C1622 0.931 . S
C1607 H1595 0.929 . S
C1607 C1601 1.390 . S
C1607 C1604 1.386 . S
C1608 C1603 1.490 . S
C1608 C1610 1.395 . S
C1608 C1611 1.403 . S
H1609 C1615 0.930 . S
C1610 H1596 0.930 . S
C1610 C1608 1.395 . S
C1610 C1613 1.403 . S
C1611 C1608 1.403 . S
C1611 C1612 1.524 . S
C1611 C1615 1.400 . S
C1612 H1597 0.960 . S
C1612 H1598 0.960 . S
C1612 H1599 0.960 . S
C1612 C1611 1.524 . S
C1613 C1610 1.403 . S
C1613 C1614 1.392 . S
C1613 C1617 1.495 . S
C1614 C1613 1.392 . S
C1614 C1615 1.385 . S
C1614 C1616 1.478 . S
C1615 H1609 0.930 . S
C1615 C1611 1.400 . S
C1615 C1614 1.385 . S
C1616 C1614 1.478 . S
C1616 C1618 1.381 . S
C1616 C1622 1.383 . S
C1617 C1613 1.495 . S
C1617 H1623 0.959 . S
C1617 H1624 0.961 . S
C1617 H1625 0.960 . S
C1618 C1616 1.381 . S
C1618 C1619 1.394 . S
C1618 H1626 0.930 . S
C1619 C1618 1.394 . S
C1619 C1620 1.383 . S
C1619 H1627 0.929 . S
C1620 C1619 1.383 . S
C1620 C1621 1.377 . S
C1621 H1605 0.930 . S
C1621 C1620 1.377 . S
C1621 C1622 1.379 . S
C1622 H1606 0.931 . S
C1622 C1616 1.383 . S
C1622 C1621 1.379 . S
H1623 C1617 0.959 . S
H1624 C1617 0.961 . S
H1625 C1617 0.960 . S
H1626 C1618 0.930 . S
H1627 C1619 0.929 . S
H1628 C1636 0.929 . S
H1629 C1638 0.930 . S
H1630 C1640 0.930 . S
H1631 C1643 0.929 . S
H1632 C1646 0.930 . S
H1633 C1648 0.960 . S
H1634 C1648 0.960 . S
H1635 C1648 0.960 . S
C1636 H1628 0.929 . S
C1636 C1637 1.377 . S
C1636 C1638 1.384 . S
C1637 C1636 1.377 . S
C1637 C1643 1.390 . S
C1638 H1629 0.930 . S
C1638 C1636 1.384 . S
C1638 C1639 1.372 . S
C1639 C1638 1.372 . S
C1639 C1640 1.400 . S
C1639 C1644 1.490 . S
C1640 H1630 0.930 . S
C1640 C1639 1.400 . S
C1640 C1643 1.386 . S
H1641 C1657 0.930 . S
H1642 C1658 0.931 . S
C1643 H1631 0.929 . S
C1643 C1637 1.390 . S
C1643 C1640 1.386 . S
C1644 C1639 1.490 . S
C1644 C1646 1.395 . S
C1644 C1647 1.403 . S
H1645 C1651 0.930 . S
C1646 H1632 0.930 . S
C1646 C1644 1.395 . S
C1646 C1649 1.403 . S
C1647 C1644 1.403 . S
C1647 C1648 1.524 . S
C1647 C1651 1.400 . S
C1648 H1633 0.960 . S
C1648 H1634 0.960 . S
C1648 H1635 0.960 . S
C1648 C1647 1.524 . S
C1649 C1646 1.403 . S
C1649 C1650 1.392 . S
C1649 C1653 1.495 . S
C1650 C1649 1.392 . S
C1650 C1651 1.385 . S
C1650 C1652 1.478 . S
C1651 H1645 0.930 . S
C1651 C1647 1.400 . S
C1651 C1650 1.385 . S
C1652 C1650 1.478 . S
C1652 C1654 1.381 . S
C1652 C1658 1.383 . S
C1653 C1649 1.495 . S
C1653 H1659 0.959 . S
C1653 H1660 0.961 . S
C1653 H1661 0.960 . S
C1654 C1652 1.381 . S
C1654 C1655 1.394 . S
C1654 H1662 0.930 . S
C1655 C1654 1.394 . S
C1655 C1656 1.383 . S
C1655 H1663 0.929 . S
C1656 C1655 1.383 . S
C1656 C1657 1.377 . S
C1657 H1641 0.930 . S
C1657 C1656 1.377 . S
C1657 C1658 1.379 . S
C1658 H1642 0.931 . S
C1658 C1652 1.383 . S
C1658 C1657 1.379 . S
H1659 C1653 0.959 . S
H1660 C1653 0.961 . S
H1661 C1653 0.960 . S
H1662 C1654 0.930 . S
H1663 C1655 0.929 . S
H1664 C1672 0.929 . S
H1665 C1674 0.930 . S
H1666 C1676 0.930 . S
H1667 C1679 0.929 . S
H1668 C1682 0.930 . S
H1669 C1684 0.960 . S
H1670 C1684 0.960 . S
H1671 C1684 0.960 . S
C1672 H1664 0.929 . S
C1672 C1673 1.377 . S
C1672 C1674 1.384 . S
C1673 C1672 1.377 . S
C1673 C1679 1.390 . S
C1674 H1665 0.930 . S
C1674 C1672 1.384 . S
C1674 C1675 1.372 . S
C1675 C1674 1.372 . S
C1675 C1676 1.400 . S
C1675 C1680 1.490 . S
C1676 H1666 0.930 . S
C1676 C1675 1.400 . S
C1676 C1679 1.386 . S
H1677 C1693 0.930 . S
H1678 C1694 0.931 . S
C1679 H1667 0.929 . S
C1679 C1673 1.390 . S
C1679 C1676 1.386 . S
C1680 C1675 1.490 . S
C1680 C1682 1.395 . S
C1680 C1683 1.403 . S
H1681 C1687 0.930 . S
C1682 H1668 0.930 . S
C1682 C1680 1.395 . S
C1682 C1685 1.403 . S
C1683 C1680 1.403 . S
C1683 C1684 1.524 . S
C1683 C1687 1.400 . S
C1684 H1669 0.960 . S
C1684 H1670 0.960 . S
C1684 H1671 0.960 . S
C1684 C1683 1.524 . S
C1685 C1682 1.403 . S
C1685 C1686 1.392 . S
C1685 C1689 1.495 . S
C1686 C1685 1.392 . S
C1686 C1687 1.385 . S
C1686 C1688 1.478 . S
C1687 H1681 0.930 . S
C1687 C1683 1.400 . S
C1687 C1686 1.385 . S
C1688 C1686 1.478 . S
C1688 C1690 1.381 . S
C1688 C1694 1.383 . S
C1689 C1685 1.495 . S
C1689 H1695 0.959 . S
C1689 H1696 0.961 . S
C1689 H1697 0.960 . S
C1690 C1688 1.381 . S
C1690 C1691 1.394 . S
C1690 H1698 0.930 . S
C1691 C1690 1.394 . S
C1691 C1692 1.383 . S
C1691 H1699 0.929 . S
C1692 C1691 1.383 . S
C1692 C1693 1.377 . S
C1693 H1677 0.930 . S
C1693 C1692 1.377 . S
C1693 C1694 1.379 . S
C1694 H1678 0.931 . S
C1694 C1688 1.383 . S
C1694 C1693 1.379 . S
H1695 C1689 0.959 . S
H1696 C1689 0.961 . S
H1697 C1689 0.960 . S
H1698 C1690 0.930 . S
H1699 C1691 0.929 . S
H1700 C1708 0.929 . S
H1701 C1710 0.930 . S
H1702 C1712 0.930 . S
H1703 C1715 0.929 . S
H1704 C1718 0.930 . S
H1705 C1720 0.960 . S
H1706 C1720 0.960 . S
H1707 C1720 0.960 . S
C1708 H1700 0.929 . S
C1708 C1709 1.377 . S
C1708 C1710 1.384 . S
C1709 C1708 1.377 . S
C1709 C1715 1.390 . S
C1710 H1701 0.930 . S
C1710 C1708 1.384 . S
C1710 C1711 1.372 . S
C1711 C1710 1.372 . S
C1711 C1712 1.400 . S
C1711 C1716 1.490 . S
C1712 H1702 0.930 . S
C1712 C1711 1.400 . S
C1712 C1715 1.386 . S
H1713 C1729 0.930 . S
H1714 C1730 0.931 . S
C1715 H1703 0.929 . S
C1715 C1709 1.390 . S
C1715 C1712 1.386 . S
C1716 C1711 1.490 . S
C1716 C1718 1.395 . S
C1716 C1719 1.403 . S
H1717 C1723 0.930 . S
C1718 H1704 0.930 . S
C1718 C1716 1.395 . S
C1718 C1721 1.403 . S
C1719 C1716 1.403 . S
C1719 C1720 1.524 . S
C1719 C1723 1.400 . S
C1720 H1705 0.960 . S
C1720 H1706 0.960 . S
C1720 H1707 0.960 . S
C1720 C1719 1.524 . S
C1721 C1718 1.403 . S
C1721 C1722 1.392 . S
C1721 C1725 1.495 . S
C1722 C1721 1.392 . S
C1722 C1723 1.385 . S
C1722 C1724 1.478 . S
C1723 H1717 0.930 . S
C1723 C1719 1.400 . S
C1723 C1722 1.385 . S
C1724 C1722 1.478 . S
C1724 C1726 1.381 . S
C1724 C1730 1.383 . S
C1725 C1721 1.495 . S
C1725 H1731 0.959 . S
C1725 H1732 0.961 . S
C1725 H1733 0.960 . S
C1726 C1724 1.381 . S
C1726 C1727 1.394 . S
C1726 H1734 0.930 . S
C1727 C1726 1.394 . S
C1727 C1728 1.383 . S
C1727 H1735 0.929 . S
C1728 C1727 1.383 . S
C1728 C1729 1.377 . S
C1729 H1713 0.930 . S
C1729 C1728 1.377 . S
C1729 C1730 1.379 . S
C1730 H1714 0.931 . S
C1730 C1724 1.383 . S
C1730 C1729 1.379 . S
H1731 C1725 0.959 . S
H1732 C1725 0.961 . S
H1733 C1725 0.960 . S
H1734 C1726 0.930 . S
H1735 C1727 0.929 . S
H1736 C1744 0.929 . S
H1737 C1746 0.930 . S
H1738 C1748 0.930 . S
H1739 C1751 0.929 . S
H1740 C1754 0.930 . S
H1741 C1756 0.960 . S
H1742 C1756 0.960 . S
H1743 C1756 0.960 . S
C1744 H1736 0.929 . S
C1744 C1745 1.377 . S
C1744 C1746 1.384 . S
C1745 C1744 1.377 . S
C1745 C1751 1.390 . S
C1746 H1737 0.930 . S
C1746 C1744 1.384 . S
C1746 C1747 1.372 . S
C1747 C1746 1.372 . S
C1747 C1748 1.400 . S
C1747 C1752 1.490 . S
C1748 H1738 0.930 . S
C1748 C1747 1.400 . S
C1748 C1751 1.386 . S
H1749 C1765 0.930 . S
H1750 C1766 0.931 . S
C1751 H1739 0.929 . S
C1751 C1745 1.390 . S
C1751 C1748 1.386 . S
C1752 C1747 1.490 . S
C1752 C1754 1.395 . S
C1752 C1755 1.403 . S
H1753 C1759 0.930 . S
C1754 H1740 0.930 . S
C1754 C1752 1.395 . S
C1754 C1757 1.403 . S
C1755 C1752 1.403 . S
C1755 C1756 1.524 . S
C1755 C1759 1.400 . S
C1756 H1741 0.960 . S
C1756 H1742 0.960 . S
C1756 H1743 0.960 . S
C1756 C1755 1.524 . S
C1757 C1754 1.403 . S
C1757 C1758 1.392 . S
C1757 C1761 1.495 . S
C1758 C1757 1.392 . S
C1758 C1759 1.385 . S
C1758 C1760 1.478 . S
C1759 H1753 0.930 . S
C1759 C1755 1.400 . S
C1759 C1758 1.385 . S
C1760 C1758 1.478 . S
C1760 C1762 1.381 . S
C1760 C1766 1.383 . S
C1761 C1757 1.495 . S
C1761 H1767 0.959 . S
C1761 H1768 0.961 . S
C1761 H1769 0.960 . S
C1762 C1760 1.381 . S
C1762 C1763 1.394 . S
C1762 H1770 0.930 . S
C1763 C1762 1.394 . S
C1763 C1764 1.383 . S
C1763 H1771 0.929 . S
C1764 C1763 1.383 . S
C1764 C1765 1.377 . S
C1765 H1749 0.930 . S
C1765 C1764 1.377 . S
C1765 C1766 1.379 . S
C1766 H1750 0.931 . S
C1766 C1760 1.383 . S
C1766 C1765 1.379 . S
H1767 C1761 0.959 . S
H1768 C1761 0.961 . S
H1769 C1761 0.960 . S
H1770 C1762 0.930 . S
H1771 C1763 0.929 . S
H1772 C1780 0.929 . S
H1773 C1782 0.930 . S
H1774 C1784 0.930 . S
H1775 C1787 0.929 . S
H1776 C1790 0.930 . S
H1777 C1792 0.960 . S
H1778 C1792 0.960 . S
H1779 C1792 0.960 . S
C1780 H1772 0.929 . S
C1780 C1781 1.377 . S
C1780 C1782 1.384 . S
C1781 C1780 1.377 . S
C1781 C1787 1.390 . S
C1782 H1773 0.930 . S
C1782 C1780 1.384 . S
C1782 C1783 1.372 . S
C1783 C1782 1.372 . S
C1783 C1784 1.400 . S
C1783 C1788 1.490 . S
C1784 H1774 0.930 . S
C1784 C1783 1.400 . S
C1784 C1787 1.386 . S
H1785 C1801 0.930 . S
H1786 C1802 0.931 . S
C1787 H1775 0.929 . S
C1787 C1781 1.390 . S
C1787 C1784 1.386 . S
C1788 C1783 1.490 . S
C1788 C1790 1.395 . S
C1788 C1791 1.403 . S
H1789 C1795 0.930 . S
C1790 H1776 0.930 . S
C1790 C1788 1.395 . S
C1790 C1793 1.403 . S
C1791 C1788 1.403 . S
C1791 C1792 1.524 . S
C1791 C1795 1.400 . S
C1792 H1777 0.960 . S
C1792 H1778 0.960 . S
C1792 H1779 0.960 . S
C1792 C1791 1.524 . S
C1793 C1790 1.403 . S
C1793 C1794 1.392 . S
C1793 C1797 1.495 . S
C1794 C1793 1.392 . S
C1794 C1795 1.385 . S
C1794 C1796 1.478 . S
C1795 H1789 0.930 . S
C1795 C1791 1.400 . S
C1795 C1794 1.385 . S
C1796 C1794 1.478 . S
C1796 C1798 1.381 . S
C1796 C1802 1.383 . S
C1797 C1793 1.495 . S
C1797 H1803 0.959 . S
C1797 H1804 0.961 . S
C1797 H1805 0.960 . S
C1798 C1796 1.381 . S
C1798 C1799 1.394 . S
C1798 H1806 0.930 . S
C1799 C1798 1.394 . S
C1799 C1800 1.383 . S
C1799 H1807 0.929 . S
C1800 C1799 1.383 . S
C1800 C1801 1.377 . S
C1801 H1785 0.930 . S
C1801 C1800 1.377 . S
C1801 C1802 1.379 . S
C1802 H1786 0.931 . S
C1802 C1796 1.383 . S
C1802 C1801 1.379 . S
H1803 C1797 0.959 . S
H1804 C1797 0.961 . S
H1805 C1797 0.960 . S
H1806 C1798 0.930 . S
H1807 C1799 0.929 . S
H1808 C1816 0.929 . S
H1809 C1818 0.930 . S
H1810 C1820 0.930 . S
H1811 C1823 0.929 . S
H1812 C1826 0.930 . S
H1813 C1828 0.960 . S
H1814 C1828 0.960 . S
H1815 C1828 0.960 . S
C1816 H1808 0.929 . S
C1816 C1817 1.377 . S
C1816 C1818 1.384 . S
C1817 C1816 1.377 . S
C1817 C1823 1.390 . S
C1818 H1809 0.930 . S
C1818 C1816 1.384 . S
C1818 C1819 1.372 . S
C1819 C1818 1.372 . S
C1819 C1820 1.400 . S
C1819 C1824 1.490 . S
C1820 H1810 0.930 . S
C1820 C1819 1.400 . S
C1820 C1823 1.386 . S
H1821 C1837 0.930 . S
H1822 C1838 0.931 . S
C1823 H1811 0.929 . S
C1823 C1817 1.390 . S
C1823 C1820 1.386 . S
C1824 C1819 1.490 . S
C1824 C1826 1.395 . S
C1824 C1827 1.403 . S
H1825 C1831 0.930 . S
C1826 H1812 0.930 . S
C1826 C1824 1.395 . S
C1826 C1829 1.403 1_545 S
C1827 C1824 1.403 . S
C1827 C1828 1.524 . S
C1827 C1831 1.400 1_545 S
C1828 H1813 0.960 . S
C1828 H1814 0.960 . S
C1828 H1815 0.960 . S
C1828 C1827 1.524 . S
C1829 C1826 1.403 1_565 S
C1829 C1830 1.392 . S
C1829 C1833 1.495 . S
C1830 C1829 1.392 . S
C1830 C1831 1.385 . S
C1830 C1832 1.478 . S
C1831 H1825 0.930 . S
C1831 C1827 1.400 1_565 S
C1831 C1830 1.385 . S
C1832 C1830 1.478 . S
C1832 C1834 1.381 . S
C1832 C1838 1.383 . S
C1833 C1829 1.495 . S
C1833 H1839 0.959 . S
C1833 H1840 0.961 . S
C1833 H1841 0.960 . S
C1834 C1832 1.381 . S
C1834 C1835 1.394 . S
C1834 H1842 0.930 . S
C1835 C1834 1.394 . S
C1835 C1836 1.383 . S
C1835 H1843 0.929 . S
C1836 C1835 1.383 . S
C1836 C1837 1.377 . S
C1837 H1821 0.930 . S
C1837 C1836 1.377 . S
C1837 C1838 1.379 . S
C1838 H1822 0.931 . S
C1838 C1832 1.383 . S
C1838 C1837 1.379 . S
H1839 C1833 0.959 . S
H1840 C1833 0.961 . S
H1841 C1833 0.960 . S
H1842 C1834 0.930 . S
H1843 C1835 0.929 . S
H1844 C1852 0.929 . S
H1845 C1854 0.930 . S
H1846 C1856 0.930 . S
H1847 C1859 0.929 . S
H1848 C1862 0.930 . S
H1849 C1864 0.960 . S
H1850 C1864 0.960 . S
H1851 C1864 0.960 . S
C1852 H1844 0.929 . S
C1852 C1853 1.377 . S
C1852 C1854 1.384 . S
C1853 C1852 1.377 . S
C1853 C1859 1.390 . S
C1854 H1845 0.930 . S
C1854 C1852 1.384 . S
C1854 C1855 1.372 . S
C1855 C1854 1.372 . S
C1855 C1856 1.400 . S
C1855 C1860 1.490 . S
C1856 H1846 0.930 . S
C1856 C1855 1.400 . S
C1856 C1859 1.386 . S
H1857 C1873 0.930 . S
H1858 C1874 0.931 . S
C1859 H1847 0.929 . S
C1859 C1853 1.390 . S
C1859 C1856 1.386 . S
C1860 C1855 1.490 . S
C1860 C1862 1.395 . S
C1860 C1863 1.403 . S
H1861 C1867 0.930 . S
C1862 H1848 0.930 . S
C1862 C1860 1.395 . S
C1862 C1865 1.403 1_655 S
C1863 C1860 1.403 . S
C1863 C1864 1.524 . S
C1863 C1867 1.400 1_655 S
C1864 H1849 0.960 . S
C1864 H1850 0.960 . S
C1864 H1851 0.960 . S
C1864 C1863 1.524 . S
C1865 C1862 1.403 1_455 S
C1865 C1866 1.392 . S
C1865 C1869 1.495 . S
C1866 C1865 1.392 . S
C1866 C1867 1.385 . S
C1866 C1868 1.478 . S
C1867 H1861 0.930 . S
C1867 C1863 1.400 1_455 S
C1867 C1866 1.385 . S
C1868 C1866 1.478 . S
C1868 C1870 1.381 . S
C1868 C1874 1.383 . S
C1869 C1865 1.495 . S
C1869 H1875 0.959 . S
C1869 H1876 0.961 . S
C1869 H1877 0.960 . S
C1870 C1868 1.381 . S
C1870 C1871 1.394 . S
C1870 H1878 0.930 . S
C1871 C1870 1.394 . S
C1871 C1872 1.383 . S
C1871 H1879 0.929 . S
C1872 C1871 1.383 . S
C1872 C1873 1.377 . S
C1873 H1857 0.930 . S
C1873 C1872 1.377 . S
C1873 C1874 1.379 . S
C1874 H1858 0.931 . S
C1874 C1868 1.383 . S
C1874 C1873 1.379 . S
H1875 C1869 0.959 . S
H1876 C1869 0.961 . S
H1877 C1869 0.960 . S
H1878 C1870 0.930 . S
H1879 C1871 0.929 . S
H1880 C1888 0.929 . S
H1881 C1890 0.930 . S
H1882 C1892 0.930 . S
H1883 C1895 0.929 . S
H1884 C1898 0.930 . S
H1885 C1900 0.960 1_565 S
H1886 C1900 0.960 . S
H1887 C1900 0.960 . S
C1888 H1880 0.929 . S
C1888 C1889 1.377 . S
C1888 C1890 1.384 . S
C1889 C1888 1.377 . S
C1889 C1895 1.390 . S
C1890 H1881 0.930 . S
C1890 C1888 1.384 . S
C1890 C1891 1.372 . S
C1891 C1890 1.372 . S
C1891 C1892 1.400 . S
C1891 C1896 1.490 . S
C1892 H1882 0.930 . S
C1892 C1891 1.400 . S
C1892 C1895 1.386 . S
H1893 C1909 0.930 . S
H1894 C1910 0.931 . S
C1895 H1883 0.929 . S
C1895 C1889 1.390 . S
C1895 C1892 1.386 . S
C1896 C1891 1.490 . S
C1896 C1898 1.395 . S
C1896 C1899 1.403 . S
H1897 C1903 0.930 . S
C1898 H1884 0.930 . S
C1898 C1896 1.395 . S
C1898 C1901 1.403 1_545 S
C1899 C1896 1.403 . S
C1899 C1900 1.524 . S
C1899 C1903 1.400 1_545 S
C1900 H1885 0.960 1_545 S
C1900 H1886 0.960 . S
C1900 H1887 0.960 . S
C1900 C1899 1.524 . S
C1901 C1898 1.403 1_565 S
C1901 C1902 1.392 . S
C1901 C1905 1.495 . S
C1902 C1901 1.392 . S
C1902 C1903 1.385 . S
C1902 C1904 1.478 . S
C1903 H1897 0.930 . S
C1903 C1899 1.400 1_565 S
C1903 C1902 1.385 . S
C1904 C1902 1.478 . S
C1904 C1906 1.381 . S
C1904 C1910 1.383 . S
C1905 C1901 1.495 . S
C1905 H1911 0.959 1_565 S
C1905 H1912 0.961 . S
C1905 H1913 0.960 . S
C1906 C1904 1.381 . S
C1906 C1907 1.394 . S
C1906 H1914 0.930 . S
C1907 C1906 1.394 . S
C1907 C1908 1.383 . S
C1907 H1915 0.929 . S
C1908 C1907 1.383 . S
C1908 C1909 1.377 . S
C1909 H1893 0.930 . S
C1909 C1908 1.377 . S
C1909 C1910 1.379 . S
C1910 H1894 0.931 . S
C1910 C1904 1.383 . S
C1910 C1909 1.379 . S
H1911 C1905 0.959 1_545 S
H1912 C1905 0.961 . S
H1913 C1905 0.960 . S
H1914 C1906 0.930 . S
H1915 C1907 0.929 . S
H1916 C1924 0.929 . S
H1917 C1926 0.930 . S
H1918 C1928 0.930 . S
H1919 C1931 0.929 . S
H1920 C1934 0.930 . S
H1921 C1936 0.960 . S
H1922 C1936 0.960 . S
H1923 C1936 0.960 . S
C1924 H1916 0.929 . S
C1924 C1925 1.377 . S
C1924 C1926 1.384 . S
C1925 C1924 1.377 . S
C1925 C1931 1.390 . S
C1926 H1917 0.930 . S
C1926 C1924 1.384 . S
C1926 C1927 1.372 . S
C1927 C1926 1.372 . S
C1927 C1928 1.400 . S
C1927 C1932 1.490 . S
C1928 H1918 0.930 . S
C1928 C1927 1.400 . S
C1928 C1931 1.386 . S
H1929 C1945 0.930 . S
H1930 C1946 0.931 . S
C1931 H1919 0.929 . S
C1931 C1925 1.390 . S
C1931 C1928 1.386 . S
C1932 C1927 1.490 . S
C1932 C1934 1.395 . S
C1932 C1935 1.403 . S
H1933 C1939 0.930 . S
C1934 H1920 0.930 . S
C1934 C1932 1.395 . S
C1934 C1937 1.403 1_455 S
C1935 C1932 1.403 . S
C1935 C1936 1.524 . S
C1935 C1939 1.400 1_455 S
C1936 H1921 0.960 . S
C1936 H1922 0.960 . S
C1936 H1923 0.960 . S
C1936 C1935 1.524 . S
C1937 C1934 1.403 1_655 S
C1937 C1938 1.392 . S
C1937 C1941 1.495 . S
C1938 C1937 1.392 . S
C1938 C1939 1.385 . S
C1938 C1940 1.478 . S
C1939 H1933 0.930 . S
C1939 C1935 1.400 1_655 S
C1939 C1938 1.385 . S
C1940 C1938 1.478 . S
C1940 C1942 1.381 . S
C1940 C1946 1.383 . S
C1941 C1937 1.495 . S
C1941 H1947 0.959 . S
C1941 H1948 0.961 . S
C1941 H1949 0.960 . S
C1942 C1940 1.381 . S
C1942 C1943 1.394 . S
C1942 H1950 0.930 . S
C1943 C1942 1.394 . S
C1943 C1944 1.383 . S
C1943 H1951 0.929 . S
C1944 C1943 1.383 . S
C1944 C1945 1.377 . S
C1945 H1929 0.930 . S
C1945 C1944 1.377 . S
C1945 C1946 1.379 . S
C1946 H1930 0.931 . S
C1946 C1940 1.383 . S
C1946 C1945 1.379 . S
H1947 C1941 0.959 . S
H1948 C1941 0.961 . S
H1949 C1941 0.960 . S
H1950 C1942 0.930 . S
H1951 C1943 0.929 . S
H1952 C1960 0.929 . S
H1953 C1962 0.930 . S
H1954 C1964 0.930 . S
H1955 C1967 0.929 . S
H1956 C1970 0.930 . S
H1957 C1972 0.960 . S
H1958 C1972 0.960 . S
H1959 C1972 0.960 . S
C1960 H1952 0.929 . S
C1960 C1961 1.377 . S
C1960 C1962 1.384 . S
C1961 C1960 1.377 . S
C1961 C1967 1.390 . S
C1962 H1953 0.930 . S
C1962 C1960 1.384 . S
C1962 C1963 1.372 . S
C1963 C1962 1.372 . S
C1963 C1964 1.400 . S
C1963 C1968 1.490 . S
C1964 H1954 0.930 . S
C1964 C1963 1.400 . S
C1964 C1967 1.386 . S
H1965 C1981 0.930 . S
H1966 C1982 0.931 . S
C1967 H1955 0.929 . S
C1967 C1961 1.390 . S
C1967 C1964 1.386 . S
C1968 C1963 1.490 . S
C1968 C1970 1.395 . S
C1968 C1971 1.403 . S
H1969 C1975 0.930 . S
C1970 H1956 0.930 . S
C1970 C1968 1.395 . S
C1970 C1973 1.403 1_545 S
C1971 C1968 1.403 . S
C1971 C1972 1.524 . S
C1971 C1975 1.400 1_545 S
C1972 H1957 0.960 . S
C1972 H1958 0.960 . S
C1972 H1959 0.960 . S
C1972 C1971 1.524 . S
C1973 C1970 1.403 1_565 S
C1973 C1974 1.392 . S
C1973 C1977 1.495 . S
C1974 C1973 1.392 . S
C1974 C1975 1.385 . S
C1974 C1976 1.478 . S
C1975 H1969 0.930 . S
C1975 C1971 1.400 1_565 S
C1975 C1974 1.385 . S
C1976 C1974 1.478 . S
C1976 C1978 1.381 . S
C1976 C1982 1.383 . S
C1977 C1973 1.495 . S
C1977 H1983 0.959 . S
C1977 H1984 0.961 . S
C1977 H1985 0.960 . S
C1978 C1976 1.381 . S
C1978 C1979 1.394 . S
C1978 H1986 0.930 . S
C1979 C1978 1.394 . S
C1979 C1980 1.383 . S
C1979 H1987 0.929 . S
C1980 C1979 1.383 . S
C1980 C1981 1.377 . S
C1981 H1965 0.930 . S
C1981 C1980 1.377 . S
C1981 C1982 1.379 . S
C1982 H1966 0.931 . S
C1982 C1976 1.383 . S
C1982 C1981 1.379 . S
H1983 C1977 0.959 . S
H1984 C1977 0.961 . S
H1985 C1977 0.960 . S
H1986 C1978 0.930 . S
H1987 C1979 0.929 . S
H1988 C1996 0.929 . S
H1989 C1998 0.930 . S
H1990 C2000 0.930 . S
H1991 C2003 0.929 . S
H1992 C2006 0.930 . S
H1993 C2008 0.960 1_455 S
H1994 C2008 0.960 . S
H1995 C2008 0.960 . S
C1996 H1988 0.929 . S
C1996 C1997 1.377 . S
C1996 C1998 1.384 . S
C1997 C1996 1.377 . S
C1997 C2003 1.390 . S
C1998 H1989 0.930 . S
C1998 C1996 1.384 . S
C1998 C1999 1.372 . S
C1999 C1998 1.372 . S
C1999 C2000 1.400 . S
C1999 C2004 1.490 . S
C2000 H1990 0.930 . S
C2000 C1999 1.400 . S
C2000 C2003 1.386 . S
H2001 C2017 0.930 . S
H2002 C2018 0.931 . S
C2003 H1991 0.929 . S
C2003 C1997 1.390 . S
C2003 C2000 1.386 . S
C2004 C1999 1.490 . S
C2004 C2006 1.395 . S
C2004 C2007 1.403 . S
H2005 C2011 0.930 . S
C2006 H1992 0.930 . S
C2006 C2004 1.395 . S
C2006 C2009 1.403 1_655 S
C2007 C2004 1.403 . S
C2007 C2008 1.524 . S
C2007 C2011 1.400 1_655 S
C2008 H1993 0.960 1_655 S
C2008 H1994 0.960 . S
C2008 H1995 0.960 . S
C2008 C2007 1.524 . S
C2009 C2006 1.403 1_455 S
C2009 C2010 1.392 . S
C2009 C2013 1.495 . S
C2010 C2009 1.392 . S
C2010 C2011 1.385 . S
C2010 C2012 1.478 . S
C2011 H2005 0.930 . S
C2011 C2007 1.400 1_455 S
C2011 C2010 1.385 . S
C2012 C2010 1.478 . S
C2012 C2014 1.381 . S
C2012 C2018 1.383 . S
C2013 C2009 1.495 . S
C2013 H2019 0.959 1_455 S
C2013 H2020 0.961 . S
C2013 H2021 0.960 . S
C2014 C2012 1.381 . S
C2014 C2015 1.394 . S
C2014 H2022 0.930 . S
C2015 C2014 1.394 . S
C2015 C2016 1.383 . S
C2015 H2023 0.929 . S
C2016 C2015 1.383 . S
C2016 C2017 1.377 . S
C2017 H2001 0.930 . S
C2017 C2016 1.377 . S
C2017 C2018 1.379 . S
C2018 H2002 0.931 . S
C2018 C2012 1.383 . S
C2018 C2017 1.379 . S
H2019 C2013 0.959 1_655 S
H2020 C2013 0.961 . S
H2021 C2013 0.960 . S
H2022 C2014 0.930 . S
H2023 C2015 0.929 . S
H2024 C2032 0.929 . S
H2025 C2034 0.930 . S
H2026 C2036 0.930 . S
H2027 C2039 0.929 . S
H2028 C2042 0.930 . S
H2029 C2044 0.960 . S
H2030 C2044 0.960 . S
H2031 C2044 0.960 . S
C2032 H2024 0.929 . S
C2032 C2033 1.377 . S
C2032 C2034 1.384 . S
C2033 C2032 1.377 . S
C2033 C2039 1.390 . S
C2034 H2025 0.930 . S
C2034 C2032 1.384 . S
C2034 C2035 1.372 . S
C2035 C2034 1.372 . S
C2035 C2036 1.400 . S
C2035 C2040 1.490 . S
C2036 H2026 0.930 . S
C2036 C2035 1.400 . S
C2036 C2039 1.386 . S
H2037 C2053 0.930 . S
H2038 C2054 0.931 . S
C2039 H2027 0.929 . S
C2039 C2033 1.390 . S
C2039 C2036 1.386 . S
C2040 C2035 1.490 . S
C2040 C2042 1.395 . S
C2040 C2043 1.403 . S
H2041 C2047 0.930 . S
C2042 H2028 0.930 . S
C2042 C2040 1.395 . S
C2042 C2045 1.403 1_565 S
C2043 C2040 1.403 . S
C2043 C2044 1.524 . S
C2043 C2047 1.400 1_565 S
C2044 H2029 0.960 . S
C2044 H2030 0.960 . S
C2044 H2031 0.960 . S
C2044 C2043 1.524 . S
C2045 C2042 1.403 1_545 S
C2045 C2046 1.392 . S
C2045 C2049 1.495 . S
C2046 C2045 1.392 . S
C2046 C2047 1.385 . S
C2046 C2048 1.478 . S
C2047 H2041 0.930 . S
C2047 C2043 1.400 1_545 S
C2047 C2046 1.385 . S
C2048 C2046 1.478 . S
C2048 C2050 1.381 . S
C2048 C2054 1.383 . S
C2049 C2045 1.495 . S
C2049 H2055 0.959 . S
C2049 H2056 0.961 . S
C2049 H2057 0.960 . S
C2050 C2048 1.381 . S
C2050 C2051 1.394 . S
C2050 H2058 0.930 . S
C2051 C2050 1.394 . S
C2051 C2052 1.383 . S
C2051 H2059 0.929 . S
C2052 C2051 1.383 . S
C2052 C2053 1.377 . S
C2053 H2037 0.930 . S
C2053 C2052 1.377 . S
C2053 C2054 1.379 . S
C2054 H2038 0.931 . S
C2054 C2048 1.383 . S
C2054 C2053 1.379 . S
H2055 C2049 0.959 . S
H2056 C2049 0.961 . S
H2057 C2049 0.960 . S
H2058 C2050 0.930 . S
H2059 C2051 0.929 . S
H2060 C2068 0.929 . S
H2061 C2070 0.930 . S
H2062 C2072 0.930 . S
H2063 C2075 0.929 . S
H2064 C2078 0.930 . S
H2065 C2080 0.960 . S
H2066 C2080 0.960 . S
H2067 C2080 0.960 . S
C2068 H2060 0.929 . S
C2068 C2069 1.377 . S
C2068 C2070 1.384 . S
C2069 C2068 1.377 . S
C2069 C2075 1.390 . S
C2070 H2061 0.930 . S
C2070 C2068 1.384 . S
C2070 C2071 1.372 . S
C2071 C2070 1.372 . S
C2071 C2072 1.400 . S
C2071 C2076 1.490 . S
C2072 H2062 0.930 . S
C2072 C2071 1.400 . S
C2072 C2075 1.386 . S
H2073 C2089 0.930 . S
H2074 C2090 0.931 . S
C2075 H2063 0.929 . S
C2075 C2069 1.390 . S
C2075 C2072 1.386 . S
C2076 C2071 1.490 . S
C2076 C2078 1.395 . S
C2076 C2079 1.403 . S
H2077 C2083 0.930 . S
C2078 H2064 0.930 . S
C2078 C2076 1.395 . S
C2078 C2081 1.403 1_455 S
C2079 C2076 1.403 . S
C2079 C2080 1.524 . S
C2079 C2083 1.400 1_455 S
C2080 H2065 0.960 . S
C2080 H2066 0.960 . S
C2080 H2067 0.960 . S
C2080 C2079 1.524 . S
C2081 C2078 1.403 1_655 S
C2081 C2082 1.392 . S
C2081 C2085 1.495 . S
C2082 C2081 1.392 . S
C2082 C2083 1.385 . S
C2082 C2084 1.478 . S
C2083 H2077 0.930 . S
C2083 C2079 1.400 1_655 S
C2083 C2082 1.385 . S
C2084 C2082 1.478 . S
C2084 C2086 1.381 . S
C2084 C2090 1.383 . S
C2085 C2081 1.495 . S
C2085 H2091 0.959 . S
C2085 H2092 0.961 . S
C2085 H2093 0.960 . S
C2086 C2084 1.381 . S
C2086 C2087 1.394 . S
C2086 H2094 0.930 . S
C2087 C2086 1.394 . S
C2087 C2088 1.383 . S
C2087 H2095 0.929 . S
C2088 C2087 1.383 . S
C2088 C2089 1.377 . S
C2089 H2073 0.930 . S
C2089 C2088 1.377 . S
C2089 C2090 1.379 . S
C2090 H2074 0.931 . S
C2090 C2084 1.383 . S
C2090 C2089 1.379 . S
H2091 C2085 0.959 . S
H2092 C2085 0.961 . S
H2093 C2085 0.960 . S
H2094 C2086 0.930 . S
H2095 C2087 0.929 . S
C953 C300 1.676 . S
C972 C5 1.675 . S
C989 C359 1.674 . S
C1008 C64 1.664 . S
C1025 C123 1.675 . S
C1044 C418 1.674 . S
C1061 C182 1.677 . S
C1080 C241 1.680 . S
C1097 C772 1.677 . S
C1116 C477 1.681 . S
C1133 C831 1.677 . S
C1152 C536 1.679 . S
C1169 C595 1.674 . S
C1188 C890 1.664 . S
C1205 C654 1.673 . S
C1224 C713 1.664 . S
C1241 C593 1.566 . S
C1260 C3 1.562 . S
C1277 C652 1.567 . S
C1296 C62 1.550 . S
C1313 C475 1.562 . S
C1332 C121 1.563 . S
C1349 C180 1.567 . S
C1368 C534 1.549 . S
C1385 C829 1.563 . S
C1404 C239 1.556 . S
C1421 C888 1.565 . S
C1440 C298 1.568 . S
C1457 C357 1.562 . S
C1476 C711 1.558 . S
C1493 C770 1.567 . S
C1512 C416 1.552 . S
C1529 C269 0.492 . S
C1548 C33 0.531 . S
C1565 C92 0.476 . S
C1584 C328 0.462 . S
C1601 C151 0.487 . S
C1620 C387 0.515 . S
C1637 C446 0.475 . S
C1656 C210 0.447 . S
C1673 C524 2.464 . S
C1692 C760 2.458 . S
C1709 C819 2.462 . S
C1728 C583 2.461 . S
C1745 C642 2.462 . S
C1764 C878 2.461 . S
C1781 C937 2.463 . S
C1800 C701 2.453 . S
C1817 C682 0.487 . S
C1836 C800 0.489 . S
C1853 C505 0.479 . S
C1872 C859 0.453 . S
C1889 C918 0.480 . S
C1908 C564 0.482 . S
C1925 C623 0.490 . S
C1944 C741 0.525 . S
C1961 C347 2.462 . S
C1980 C229 2.459 . S
C1997 C406 2.462 . S
C2016 C52 2.464 . S
C2033 C465 2.463 . S
C2052 C111 2.456 . S
C2069 C288 2.462 . S
C2088 C170 2.463 . S
