# Generated by pormake.
# Topology ilc, (8)-cn, num edge types: 1
# Building blocks:
#     Node 0, Type 0, BuildingBlock: HISSIN_clean_sbu_1, # of connection points: 8
#     Node 1, Type 0, BuildingBlock: HISSIN_clean_sbu_1, # of connection points: 8
#     Node 2, Type 0, BuildingBlock: HISSIN_clean_sbu_1, # of connection points: 8
#     Edge 3, Type (0, 0), BuildingBlock: ZUJKAS_clean_linker_0, # of connection points: 2
#     Edge 4, Type (0, 0), BuildingBlock: ZUJKAS_clean_linker_0, # of connection points: 2
#     Edge 5, Type (0, 0), BuildingBlock: ZUJKAS_clean_linker_0, # of connection points: 2
#     Edge 6, Type (0, 0), BuildingBlock: ZUJKAS_clean_linker_0, # of connection points: 2
#     Edge 7, Type (0, 0), BuildingBlock: ZUJKAS_clean_linker_0, # of connection points: 2
#     Edge 8, Type (0, 0), BuildingBlock: ZUJKAS_clean_linker_0, # of connection points: 2
#     Edge 9, Type (0, 0), BuildingBlock: ZUJKAS_clean_linker_0, # of connection points: 2
#     Edge 10, Type (0, 0), BuildingBlock: ZUJKAS_clean_linker_0, # of connection points: 2
#     Edge 11, Type (0, 0), BuildingBlock: ZUJKAS_clean_linker_0, # of connection points: 2
#     Edge 12, Type (0, 0), BuildingBlock: ZUJKAS_clean_linker_0, # of connection points: 2
#     Edge 13, Type (0, 0), BuildingBlock: ZUJKAS_clean_linker_0, # of connection points: 2
#     Edge 14, Type (0, 0), BuildingBlock: ZUJKAS_clean_linker_0, # of connection points: 2
# Relax obj value: 0.144
# Max RMSD: 0.201
# Mean RMSD: 0.201
data_MOF--net-ilc--node1-HISSIN_clean_sbu_1--edge1-ZUJKAS_clean_linker_0
_symmetry_space_group_name_H-M    P1
_symmetry_Int_Tables_number       1
_symmetry_cell_setting            triclinic
loop_
_symmetry_equiv_pos_as_xyz
'x, y, z'
_cell_length_a     27.626206
_cell_length_b     38.157913
_cell_length_c     23.75359
_cell_angle_alpha  100.40626
_cell_angle_beta   78.343889
_cell_angle_gamma 139.93469
loop_
_atom_site_label
_atom_site_type_symbol
_atom_site_fract_x
_atom_site_fract_y
_atom_site_fract_z
_atom_type_partial_charge
Eu0 Eu 0.95778 0.95769 0.9659 0.0
C1 C 0.12452 0.0634 0.922 0.0
O2 O 0.91042 0.88251 0.91343 0.0
C3 C 0.16475 0.0283 0.12299 0.0
C4 C 0.19738 1.00898 0.20912 0.0
C5 C 0.19108 0.06106 0.17438 0.0
C6 C 0.20792 0.05163 0.21745 0.0
C7 C 0.15287 0.98464 0.11616 0.0
C8 C 0.1695 0.97516 0.15941 0.0
Eu9 Eu 0.09471 0.06687 0.05503 0.0
O10 O 0.91586 0.93084 0.0575 0.0
O11 O 0.13844 0.13883 0.11242 0.0
O12 O 0.12338 0.09049 0.96375 0.0
O13 O 0.97874 0.01409 0.1017 0.0
C14 C 0.11484 0.15793 0.10915 0.0
O15 O 0.06815 0.13554 0.07087 0.0
O16 O 0.0849 1.00465 0.0594 0.0
C17 C 0.15358 0.04112 0.07518 0.0
C18 C 0.93596 0.86464 0.91578 0.0
O19 O 0.98771 0.89027 0.95053 0.0
O20 O 0.1908 0.09146 0.0746 0.0
O21 O 0.07712 1.01109 0.9258 0.0
C22 C 0.91161 0.98958 0.93402 0.0
O23 O 0.96559 0.01932 0.96802 0.0
C24 C 0.93019 0.01681 0.88331 0.0
C25 C 0.97305 0.07316 0.7891 0.0
C26 C 0.97027 0.01938 0.83342 0.0
C27 C 0.99065 0.04663 0.78525 0.0
C28 C 0.90809 0.04022 0.88434 0.0
C29 C 0.93 0.06875 0.83696 0.0
C30 C 0.92392 0.9606 0.10216 0.0
O31 O 0.87686 0.93973 0.92446 0.0
H32 H 0.20727 1.0 0.24317 0.0
H33 H 0.19891 0.09396 0.18083 0.0
H34 H 0.13169 0.95868 0.07734 0.0
H35 H 0.99119 0.09669 0.75379 0.0
H36 H 0.98412 0.99927 0.8322 0.0
H37 H 0.87482 0.03667 0.92172 0.0
Eu38 Eu 0.64756 0.3167 0.25786 0.0
C39 C 0.8204 0.40986 0.29488 0.0
O40 O 0.60228 0.24567 0.19772 0.0
C41 C 0.73761 0.29272 0.50462 0.0
C42 C 0.67266 0.22386 0.59365 0.0
C43 C 0.67683 0.27543 0.54235 0.0
C44 C 0.64371 0.24047 0.58616 0.0
C45 C 0.76849 0.27738 0.51373 0.0
C46 C 0.73588 0.2428 0.55869 0.0
Eu47 Eu 0.7761 0.39249 0.42404 0.0
O48 O 0.57354 0.27709 0.34109 0.0
O49 O 0.79171 0.44636 0.49795 0.0
O50 O 0.85512 0.43477 0.34207 0.0
O51 O 0.67267 0.35406 0.38765 0.0
C52 C 0.76707 0.46514 0.49697 0.0
O53 O 0.73248 0.45142 0.45286 0.0
O54 O 0.71494 0.30977 0.42828 0.0
C55 C 0.76643 0.32485 0.45481 0.0
C56 C 0.62791 0.22741 0.19659 0.0
O57 O 0.67992 0.25162 0.23035 0.0
O58 O 0.82635 0.37809 0.4604 0.0
O59 O 0.74893 0.36226 0.30244 0.0
C60 C 0.6345 0.36963 0.22319 0.0
O61 O 0.68719 0.37476 0.20014 0.0
C62 C 0.5856 0.35402 0.18332 0.0
C63 C 0.48845 0.32104 0.10931 0.0
C64 C 0.53621 0.30203 0.1559 0.0
C65 C 0.48818 0.28551 0.11806 0.0
C66 C 0.5869 0.38989 0.17295 0.0
C67 C 0.53787 0.37335 0.13585 0.0
C68 C 0.60413 0.30296 0.38994 0.0
O69 O 0.5978 0.34217 0.27043 0.0
H70 H 0.64832 0.19844 0.6293 0.0
H71 H 0.65523 0.28904 0.53765 0.0
H72 H 0.81673 0.29167 0.48582 0.0
H73 H 0.45445 0.30971 0.07777 0.0
H74 H 0.53675 0.275 0.16282 0.0
H75 H 0.62582 0.43033 0.19345 0.0
Eu76 Eu 0.22999 0.61147 0.59627 0.0
C77 C 0.40742 0.71651 0.61598 0.0
O78 O 0.21642 0.55594 0.5271 0.0
C79 C 0.47504 0.68641 0.81511 0.0
C80 C 0.5691 0.71925 0.89256 0.0
C81 C 0.51436 0.73438 0.84942 0.0
C82 C 0.56063 0.75063 0.88908 0.0
C83 C 0.48196 0.6543 0.82049 0.0
C84 C 0.52942 0.67079 0.8593 0.0
Eu85 Eu 0.38249 0.70576 0.7506 0.0
O86 O 0.16022 0.57408 0.68221 0.0
O87 O 0.41025 0.76839 0.81678 0.0
O88 O 0.43903 0.74506 0.66411 0.0
O89 O 0.27332 0.64506 0.71115 0.0
C90 C 0.37401 0.77897 0.822 0.0
O91 O 0.32062 0.75202 0.78843 0.0
O92 O 0.36147 0.64989 0.79653 0.0
C93 C 0.4263 0.66993 0.77426 0.0
C94 C 0.2436 0.53962 0.53144 0.0
O95 O 0.27794 0.5557 0.5769 0.0
O96 O 0.46172 0.705 0.7343 0.0
O97 O 0.34757 0.66304 0.61804 0.0
C98 C 0.21698 0.66325 0.55711 0.0
O99 O 0.27389 0.68748 0.58477 0.0
C100 C 0.23687 0.68734 0.50287 0.0
C101 C 0.27727 0.73464 0.40033 0.0
C102 C 0.29945 0.70706 0.46551 0.0
C103 C 0.31997 0.73118 0.41478 0.0
C104 C 0.19388 0.69107 0.48815 0.0
C105 C 0.21415 0.71461 0.43638 0.0
C106 C 0.20136 0.60147 0.72582 0.0
O107 O 0.16371 0.60982 0.55628 0.0
H108 H 0.60139 0.72984 0.92524 0.0
H109 H 0.50692 0.75807 0.84653 0.0
H110 H 0.4501 0.61651 0.79511 0.0
H111 H 0.29346 0.75325 0.36061 0.0
H112 H 0.33225 0.70391 0.47593 0.0
H113 H 0.14547 0.676 0.51663 0.0
H114 H 0.08829 0.04186 0.768 0.0
H115 H 0.16236 0.05605 0.67816 0.0
H116 H 0.05457 0.06733 0.58809 0.0
H117 H 0.97628 0.0489 0.67526 0.0
H118 H 0.10343 0.99713 0.55524 0.0
H119 H 0.30307 0.21944 0.57282 0.0
H120 H 0.25134 0.1772 0.63456 0.0
H121 H 0.20603 0.17966 0.59351 0.0
C122 C 0.08008 0.0473 0.72928 0.0
C123 C 0.02949 0.04788 0.73032 0.0
C124 C 0.12319 0.05594 0.67806 0.0
C125 C 0.11687 0.06586 0.6276 0.0
C126 C 0.0624 0.06203 0.62738 0.0
H127 H 0.13833 0.07095 0.28718 0.0
H128 H 0.14299 0.08941 0.39129 0.0
C129 C 1.01832 0.05217 0.67775 0.0
C130 C 0.16537 0.07982 0.57384 0.0
H131 H 0.28241 0.17917 0.4757 0.0
C132 C 0.14494 0.03735 0.53826 0.0
C133 C 0.21973 0.13248 0.55228 0.0
C134 C 0.24706 0.18005 0.59045 0.0
C135 C 0.17173 0.04497 0.47971 0.0
C136 C 0.21921 0.09609 0.45671 0.0
C137 C 0.24503 0.13985 0.49344 0.0
C138 C 0.23292 0.10157 0.39392 0.0
C139 C 0.14421 0.99721 0.44168 0.0
C140 C 0.28528 0.10585 0.36102 0.0
C141 C 0.28342 0.09608 0.30149 0.0
C142 C 0.22829 0.08101 0.27439 0.0
C143 C 0.18156 0.0827 0.30677 0.0
C144 C 0.18389 0.09291 0.36628 0.0
H145 H 0.10789 0.96028 0.46643 0.0
H146 H 0.11147 0.98734 0.40867 0.0
H147 H 0.19327 1.00799 0.41874 0.0
H148 H 0.32337 0.11245 0.38178 0.0
H149 H 0.32064 0.0956 0.27732 0.0
H150 H 0.66072 0.30811 0.66609 0.0
H151 H 0.57923 0.28133 0.75521 0.0
H152 H 0.41164 0.11334 0.69228 0.0
H153 H 0.49697 0.14013 0.60471 0.0
H154 H 0.45282 0.23736 0.79425 0.0
H155 H 0.44536 0.09295 0.82899 0.0
H156 H 0.50085 0.13662 0.76886 0.0
H157 H 0.40017 0.07567 0.76814 0.0
C158 C 0.60565 0.26569 0.67088 0.0
C159 C 0.58497 0.226 0.6294 0.0
C160 C 0.55901 0.25022 0.72184 0.0
C161 C 0.49038 0.19485 0.73162 0.0
C162 C 0.46587 0.15588 0.68702 0.0
H163 H 0.34444 0.20894 0.08558 0.0
H164 H 0.30694 0.15777 0.99284 0.0
C165 C 0.51375 0.17124 0.63664 0.0
C166 C 0.44958 0.17897 0.79028 0.0
H167 H 0.39866 0.11081 0.90574 0.0
C168 C 0.43899 0.20862 0.81827 0.0
C169 C 0.43214 0.14156 0.82176 0.0
C170 C 0.4457 0.11019 0.79568 0.0
C171 C 0.41733 0.20543 0.87739 0.0
C172 C 0.40419 0.17044 0.90946 0.0
C173 C 0.40806 0.13706 0.88075 0.0
C174 C 0.40663 0.17895 0.97256 0.0
C175 C 0.41591 0.24351 0.9055 0.0
C176 C 0.47035 0.2021 0.99437 0.0
C177 C 0.49161 0.23091 0.04718 0.0
C178 C 0.44948 0.23707 0.07857 0.0
C179 C 0.3789 0.20592 0.06132 0.0
C180 C 0.35737 0.1767 0.00847 0.0
H181 H 0.438 0.27326 0.8753 0.0
H182 H 0.35686 0.2194 0.92155 0.0
H183 H 0.45052 0.26691 0.94248 0.0
H184 H 0.50877 0.20371 0.96766 0.0
H185 H 0.54592 0.25396 0.05944 0.0
H186 H 0.69812 0.82976 0.93355 0.0
H187 H 0.7185 0.8702 0.03142 0.0
H188 H 0.5029 0.80529 0.04709 0.0
H189 H 0.48232 0.76522 0.95031 0.0
H190 H 0.60617 0.89932 0.1172 0.0
H191 H 0.57885 0.74139 0.13838 0.0
H192 H 0.6551 0.79524 0.08998 0.0
H193 H 0.55945 0.7461 0.07396 0.0
C194 C 0.65658 0.8261 0.95715 0.0
C195 C 0.58746 0.79278 0.93509 0.0
C196 C 0.66832 0.8492 0.01298 0.0
C197 C 0.6109 0.83891 0.04701 0.0
C198 C 0.54759 0.81318 0.02168 0.0
H199 H 0.32169 0.67643 0.32699 0.0
H200 H 0.41876 0.71683 0.2457 0.0
C201 C 0.53592 0.7903 0.96603 0.0
C202 C 0.60649 0.84267 0.11051 0.0
H203 H 0.55471 0.7705 0.22137 0.0
C204 C 0.59664 0.87227 0.14063 0.0
C205 C 0.59335 0.80667 0.14035 0.0
C206 C 0.59671 0.77021 0.10935 0.0
C207 C 0.56593 0.86246 0.1984 0.0
C208 C 0.5485 0.82393 0.22744 0.0
C209 C 0.56744 0.79956 0.19897 0.0
C210 C 0.49714 0.79979 0.28166 0.0
C211 C 0.54564 0.88942 0.22527 0.0
C212 C 0.50961 0.83219 0.33023 0.0
C213 C 0.45398 0.80888 0.3767 0.0
C214 C 0.38547 0.75283 0.37527 0.0
C215 C 0.37491 0.7197 0.329 0.0
C216 C 0.43037 0.74298 0.28258 0.0
H217 H 0.54981 0.90962 0.19305 0.0
H218 H 0.48715 0.85924 0.24693 0.0
H219 H 0.5852 0.92116 0.25765 0.0
H220 H 0.56054 0.87573 0.33131 0.0
H221 H 0.46247 0.83499 0.41208 0.0
H222 H 0.10146 0.6458 0.36613 0.0
H223 H 0.06498 0.67034 0.3109 0.0
H224 H 0.20667 0.82547 0.40462 0.0
H225 H 0.24144 0.80028 0.46056 0.0
H226 H 0.07878 0.78594 0.38008 0.0
H227 H 0.2187 0.7771 0.18403 0.0
H228 H 0.14099 0.71412 0.22016 0.0
H229 H 0.22516 0.77161 0.25532 0.0
C230 C 0.12194 0.68406 0.37651 0.0
C231 C 0.17308 0.72084 0.41817 0.0
C232 C 0.10226 0.69849 0.34428 0.0
C233 C 0.13463 0.75035 0.35254 0.0
C234 C 0.18118 0.78534 0.39726 0.0
H235 H 0.27295 0.97897 0.14803 0.0
H236 H 0.25273 0.91295 0.18672 0.0
C237 C 0.20046 0.77078 0.42965 0.0
C238 C 0.1257 0.77041 0.31212 0.0
H239 H 0.17018 0.80552 0.17265 0.0
C240 C 0.09772 0.78951 0.33456 0.0
C241 C 0.15181 0.77599 0.25282 0.0
C242 C 0.1865 0.75912 0.22654 0.0
C243 C 0.09677 0.81517 0.29989 0.0
C244 C 0.12265 0.82061 0.24056 0.0
C245 C 0.14908 0.80042 0.2178 0.0
C246 C 0.13133 0.85307 0.2036 0.0
C247 C 0.07211 0.83901 0.32794 0.0
C248 C 0.06932 0.83961 0.19591 0.0
C249 C 0.0809 0.87729 0.17325 0.0
C250 C 0.15453 0.92859 0.15752 0.0
C251 C 0.21557 0.93932 0.15903 0.0
C252 C 0.20404 0.9018 0.18173 0.0
H253 H 0.06885 0.84114 0.37563 0.0
H254 H 0.11173 0.88069 0.31312 0.0
H255 H 1.01519 0.81309 0.31596 0.0
H256 H 1.01254 0.80172 0.21131 0.0
H257 H 0.03314 0.86848 0.1734 0.0
H258 H 0.2952 0.50021 0.52753 0.0
H259 H 0.28128 0.44008 0.45343 0.0
H260 H 0.15899 0.436 0.35907 0.0
H261 H 0.17361 0.49687 0.43264 0.0
H262 H 0.15037 0.33609 0.4188 0.0
H263 H 0.31663 0.47247 0.23499 0.0
H264 H 0.3207 0.49677 0.30855 0.0
H265 H 0.24294 0.46252 0.26985 0.0
C266 C 0.26569 0.48683 0.49087 0.0
C267 C 0.23566 0.50352 0.48602 0.0
C268 C 0.25778 0.45241 0.44852 0.0
C269 C 0.22009 0.43412 0.40021 0.0
C270 C 0.18977 0.45052 0.39529 0.0
H271 H 0.07385 0.20481 0.11379 0.0
H272 H 0.10326 0.27299 0.18427 0.0
C273 C 0.19772 0.48504 0.43764 0.0
C274 C 0.20992 0.39616 0.35631 0.0
H275 H 0.24416 0.38003 0.21303 0.0
C276 C 0.17138 0.34587 0.37389 0.0
C277 C 0.2374 0.40895 0.29769 0.0
C278 C 0.28236 0.46331 0.27659 0.0
C279 C 0.15786 0.30749 0.3343 0.0
C280 C 0.18461 0.32004 0.27559 0.0
C281 C 0.2237 0.37049 0.25804 0.0
C282 C 0.17026 0.28051 0.2315 0.0
C283 C 0.11309 0.25316 0.35536 0.0
C284 C 0.19949 0.26286 0.23387 0.0
C285 C 0.18274 0.22375 0.19356 0.0
C286 C 0.13662 0.20171 0.14999 0.0
C287 C 0.10925 0.22068 0.14687 0.0
C288 C 0.12609 0.25976 0.1871 0.0
H289 H 0.08234 0.24524 0.39859 0.0
H290 H 0.07157 0.21946 0.32493 0.0
H291 H 0.15221 0.25274 0.35837 0.0
H292 H 0.23489 0.27908 0.26714 0.0
H293 H 0.20516 0.21034 0.19701 0.0
H294 H 0.3723 0.66767 0.50779 0.0
H295 H 0.45309 0.70819 0.41724 0.0
H296 H 0.62549 0.86253 0.50765 0.0
H297 H 0.54321 0.82337 0.59743 0.0
H298 H 0.62219 0.87931 0.40804 0.0
H299 H 0.62347 0.73245 0.37355 0.0
H300 H 0.53058 0.69979 0.37611 0.0
H301 H 0.58132 0.73629 0.43905 0.0
C302 C 0.42693 0.71046 0.50826 0.0
C303 C 0.45141 0.74213 0.56001 0.0
C304 C 0.47352 0.73342 0.4565 0.0
C305 C 0.54663 0.78794 0.45586 0.0
C306 C 0.56971 0.82022 0.50702 0.0
H307 H 0.94375 1.00622 0.2102 0.0
H308 H 0.85368 0.96356 0.2958 0.0
C309 C 0.5225 0.79768 0.55846 0.0
C310 C 0.60021 0.81122 0.40264 0.0
H311 H 0.68589 0.793 0.2992 0.0
C312 C 0.63591 0.86033 0.3841 0.0
C313 C 0.61896 0.78685 0.37175 0.0
C314 C 0.58721 0.73628 0.39142 0.0
C315 C 0.68805 0.88494 0.33481 0.0
C316 C 0.70676 0.86054 0.30397 0.0
C317 C 0.67119 0.81149 0.32253 0.0
C318 C 0.76368 0.88548 0.25275 0.0
C319 C 0.72128 0.93622 0.31561 0.0
C320 C 0.74584 0.85465 0.20098 0.0
C321 C 0.79828 0.87855 0.15211 0.0
C322 C 0.8695 0.93382 0.15419 0.0
C323 C 0.88848 0.96393 0.20672 0.0
C324 C 0.83659 0.93975 0.25565 0.0
H325 H 0.68819 0.94239 0.33555 0.0
H326 H 0.77905 0.97213 0.3291 0.0
H327 H 0.72461 0.93535 0.26808 0.0
H328 H 0.69095 0.81218 0.19824 0.0
H329 H 0.78261 0.8541 0.1125 0.0
H330 H 0.66349 0.14108 0.5683 0.0
H331 H 0.70246 0.11642 0.61899 0.0
H332 H 0.91832 0.28613 0.63695 0.0
H333 H 0.87862 0.31103 0.58683 0.0
H334 H 0.81921 0.13211 0.60466 0.0
H335 H 0.83526 0.24129 0.80407 0.0
H336 H 0.79434 0.22878 0.74222 0.0
H337 H 0.89527 0.28278 0.74259 0.0
C338 C 0.72006 0.173 0.58168 0.0
C339 C 0.76805 0.22796 0.57366 0.0
C340 C 0.74212 0.15892 0.61098 0.0
C341 C 0.81251 0.19947 0.63324 0.0
C342 C 0.86298 0.2542 0.62141 0.0
H343 H 1.01689 0.17494 0.83114 0.0
H344 H 0.98501 0.20802 0.78713 0.0
C345 C 0.84086 0.26837 0.59189 0.0
C346 C 0.83056 0.18403 0.67103 0.0
H347 H 0.8664 0.1989 0.80845 0.0
C348 C 0.82957 0.14677 0.64918 0.0
C349 C 0.84352 0.20281 0.72939 0.0
C350 C 0.84158 0.24075 0.75631 0.0
C351 C 0.84188 0.12826 0.6837 0.0
C352 C 0.85438 0.14678 0.74205 0.0
C353 C 0.85622 0.18446 0.76387 0.0
C354 C 0.86847 0.12871 0.77996 0.0
C355 C 0.84255 0.08955 0.65722 0.0
C356 C 0.81228 0.07377 0.79392 0.0
C357 C 0.83017 0.05497 0.81993 0.0
C358 C 0.9045 0.09088 0.83231 0.0
C359 C 0.95886 0.14667 0.82299 0.0
C360 C 0.94088 0.16547 0.7973 0.0
H361 H 0.84731 0.0879 0.60946 0.0
H362 H 0.89022 0.10169 0.67065 0.0
H363 H 0.78915 0.04794 0.67224 0.0
H364 H 0.75578 0.04482 0.78145 0.0
H365 H 0.7877 0.01167 0.82555 0.0
H366 H 0.71534 0.50525 0.50989 0.0
H367 H 0.73946 0.56922 0.58464 0.0
H368 H 0.87025 0.57334 0.66536 0.0
H369 H 0.84673 0.5094 0.59043 0.0
H370 H 0.70685 0.56081 0.7067 0.0
H371 H 1.01493 0.7354 0.6406 0.0
H372 H 0.95012 0.67511 0.59482 0.0
H373 H 0.98083 0.67407 0.65368 0.0
C374 C 0.74923 0.51965 0.54352 0.0
C375 C 0.77955 0.5024 0.54385 0.0
C376 C 0.76279 0.55617 0.58634 0.0
C377 C 0.80746 0.57666 0.6302 0.0
C378 C 0.83662 0.55875 0.6314 0.0
H379 H 0.981 0.82025 0.90868 0.0
H380 H 0.94467 0.74769 0.84232 0.0
C381 C 0.82282 0.52199 0.58866 0.0
C382 C 0.82399 0.61715 0.67419 0.0
H383 H 0.96777 0.74878 0.72508 0.0
C384 C 0.76385 0.60196 0.71073 0.0
C385 C 0.89837 0.67084 0.67935 0.0
C386 C 0.96485 0.69022 0.63979 0.0
C387 C 0.77626 0.63871 0.75292 0.0
C388 C 0.8507 0.69249 0.75797 0.0
C389 C 0.91075 0.70758 0.72137 0.0
C390 C 0.86807 0.73394 0.80086 0.0
C391 C 0.70987 0.61919 0.79273 0.0
C392 C 0.83698 0.75047 0.79996 0.0
C393 C 0.85757 0.79203 0.83809 0.0
C394 C 0.9102 0.81826 0.8776 0.0
C395 C 0.94038 0.80107 0.87887 0.0
C396 C 0.91971 0.75954 0.84086 0.0
H397 H 0.66036 0.57399 0.7924 0.0
H398 H 0.72517 0.63491 0.83751 0.0
H399 H 0.69265 0.63439 0.77866 0.0
H400 H 0.79828 0.73226 0.76876 0.0
H401 H 0.83335 0.80429 0.83578 0.0
H402 H 0.64804 0.34292 0.49889 0.0
H403 H 0.56871 0.30182 0.58976 0.0
H404 H 0.37414 0.16804 0.49614 0.0
H405 H 0.45391 0.20682 0.40582 0.0
H406 H 0.46265 0.28354 0.63904 0.0
H407 H 0.33747 0.0806 0.59906 0.0
H408 H 0.4118 0.13469 0.55027 0.0
H409 H 0.31461 0.09314 0.5463 0.0
C410 C 0.58862 0.30424 0.49779 0.0
C411 C 0.55777 0.27755 0.4452 0.0
C412 C 0.54305 0.28087 0.54978 0.0
C413 C 0.46529 0.23097 0.55015 0.0
C414 C 0.43413 0.2053 0.49744 0.0
H415 H 0.16274 0.13842 0.86441 0.0
H416 H 0.24271 0.17868 0.77371 0.0
C417 C 0.47999 0.2278 0.44561 0.0
C418 C 0.41657 0.20719 0.60557 0.0
H419 H 0.27863 0.08939 0.67769 0.0
C420 C 0.42295 0.24116 0.64784 0.0
C421 C 0.36462 0.15192 0.6173 0.0
C422 C 0.35732 0.11326 0.57595 0.0
C423 C 0.37947 0.22183 0.70139 0.0
C424 C 0.3253 0.1659 0.71248 0.0
C425 C 0.31922 0.13208 0.6699 0.0
C426 C 0.27539 0.14131 0.76776 0.0
C427 C 0.39461 0.26269 0.74519 0.0
C428 C 0.26203 0.10365 0.79343 0.0
C429 C 0.2132 0.07853 0.84367 0.0
C430 C 0.17775 0.09126 0.87012 0.0
C431 C 0.19116 0.12909 0.84537 0.0
C432 C 0.23779 0.15268 0.79379 0.0
H433 H 0.45467 0.30386 0.73963 0.0
H434 H 0.35945 0.2659 0.73869 0.0
H435 H 0.3818 0.25126 0.78995 0.0
H436 H 0.28944 0.0935 0.77473 0.0
H437 H 0.20375 0.04952 0.86217 0.0
H438 H 0.42071 0.35344 0.13071 0.0
H439 H 0.42415 0.40658 0.08183 0.0
H440 H 0.66713 0.53146 0.05247 0.0
H441 H 0.66382 0.47765 0.10025 0.0
H442 H 0.49461 0.51093 0.09717 0.0
H443 H 0.60347 0.48657 0.88938 0.0
H444 H 0.56731 0.44802 0.95121 0.0
H445 H 0.66081 0.51771 0.94733 0.0
C446 C 0.47499 0.39267 0.11465 0.0
C447 C 0.54198 0.41121 0.11881 0.0
C448 C 0.47687 0.42294 0.08667 0.0
C449 C 0.54569 0.47226 0.06216 0.0
C450 C 0.61323 0.49284 0.06989 0.0
H451 H 0.65369 0.69908 0.86571 0.0
H452 H 0.65674 0.64819 0.91131 0.0
C453 C 0.61141 0.4625 0.09795 0.0
C454 C 0.5458 0.50054 0.02653 0.0
H455 H 0.58851 0.53988 0.88984 0.0
C456 C 0.5152 0.51731 0.05186 0.0
C457 C 0.57216 0.50842 0.96723 0.0
C458 C 0.60219 0.48885 0.93688 0.0
C459 C 0.51125 0.54245 0.01975 0.0
C460 C 0.53749 0.55023 0.96051 0.0
C461 C 0.5684 0.53374 0.93518 0.0
C462 C 0.53516 0.57698 0.92487 0.0
C463 C 0.48013 0.56132 0.04966 0.0
C464 C 0.4658 0.55266 0.91481 0.0
C465 C 0.46389 0.58155 0.88853 0.0
C466 C 0.53138 0.63524 0.87206 0.0
C467 C 0.60082 0.65781 0.87819 0.0
C468 C 0.60266 0.62886 0.90429 0.0
H469 H 0.47692 0.5625 0.09724 0.0
H470 H 0.51555 0.60252 0.0361 0.0
H471 H 0.42223 0.5328 0.03769 0.0
H472 H 0.41311 0.51228 0.92967 0.0
H473 H 0.40966 0.56336 0.8848 0.0
H474 H 0.48381 0.84401 0.89608 0.0
H475 H 0.52071 0.91707 0.96218 0.0
H476 H 0.34907 0.8848 0.90824 0.0
H477 H 0.31128 0.8114 0.84248 0.0
H478 H 0.5739 1.00996 0.93244 0.0
H479 H 0.31281 0.89051 0.08374 0.0
H480 H 0.3319 0.85929 0.03482 0.0
H481 H 0.29753 0.8782 0.00928 0.0
C482 C 0.45342 0.8521 0.89859 0.0
C483 C 0.39456 0.8218 0.8639 0.0
C484 C 0.47461 0.89389 0.93643 0.0
C485 C 0.43703 0.90597 0.94075 0.0
C486 C 0.37786 0.87552 0.90655 0.0
H487 H 0.51466 0.16371 0.12563 0.0
H488 H 0.46761 0.08585 0.06267 0.0
C489 C 0.35668 0.83376 0.86865 0.0
C490 C 0.46274 0.9525 0.97845 0.0
H491 H 0.40588 0.98686 0.09272 0.0
C492 C 0.53726 1.00485 0.96766 0.0
C493 C 0.41469 0.94585 0.02414 0.0
C494 C 0.33497 0.89041 0.03918 0.0
C495 C 0.56489 0.05075 1.00091 0.0
C496 C 0.51711 0.04409 0.04684 0.0
C497 C 0.44235 0.99185 0.05741 0.0
C498 C 0.5447 0.09074 0.0854 0.0
C499 C 0.64474 0.10618 0.98604 0.0
C500 C 0.60285 0.11878 0.1196 0.0
C501 C 0.62969 0.16307 0.15559 0.0
C502 C 0.59881 0.18024 0.15829 0.0
C503 C 0.53991 0.1517 0.12441 0.0
C504 C 0.51285 0.10715 0.0885 0.0
H505 H 0.66687 0.10618 0.94143 0.0
H506 H 0.648 0.13742 0.99064 0.0
H507 H 0.68205 0.11815 0.01588 0.0
H508 H 0.62736 0.10624 0.11861 0.0
H509 H 0.6748 0.18388 0.18126 0.0
H510 H 0.05827 0.50462 0.76067 0.0
H511 H 0.99806 0.47679 0.85887 0.0
H512 H 0.20597 0.63034 0.92501 0.0
H513 H 0.2671 0.65804 0.82641 0.0
H514 H 0.13652 0.5434 0.98531 0.0
H515 H 0.92855 0.53133 0.96205 0.0
H516 H 0.92576 0.49024 0.90849 0.0
H517 H 1.0093 0.5632 0.91008 0.0
C518 C 0.09142 0.53245 0.79606 0.0
C519 C 0.16752 0.5837 0.78571 0.0
C520 C 0.05666 0.51662 0.85225 0.0
C521 C 0.09684 0.55196 0.89939 0.0
C522 C 0.17359 0.60255 0.88931 0.0
H523 H 0.95999 0.51427 0.27114 0.0
H524 H 0.0293 0.5518 0.17638 0.0
C525 C 0.20859 0.61831 0.83294 0.0
C526 C 0.0585 0.5357 0.95899 0.0
H527 H 0.90562 0.4914 0.04495 0.0
C528 C 0.08652 0.53259 0.99856 0.0
C529 C 0.9933 0.52174 0.97639 0.0
C530 C 0.96286 0.52729 0.93722 0.0
C531 C 0.04961 0.51404 0.05425 0.0
C532 C 0.98341 0.49882 0.07106 0.0
C533 C 0.95615 0.50284 0.03189 0.0
C534 C 0.94046 0.47718 0.12857 0.0
C535 C 0.08032 0.50921 0.0941 0.0
C536 C 0.86669 0.42328 0.13314 0.0
C537 C 0.82694 0.40179 0.18719 0.0
C538 C 0.85979 0.43403 0.23773 0.0
C539 C 0.93303 0.48842 0.23301 0.0
C540 C 0.9729 0.50984 0.17892 0.0
H541 H 0.12189 0.5116 0.07082 0.0
H542 H 0.10911 0.54299 0.12725 0.0
H543 H 0.03384 0.47017 0.1165 0.0
H544 H 0.84055 0.39737 0.09485 0.0
H545 H 0.77125 0.3595 0.18935 0.0
loop_
_geom_bond_atom_site_label_1
_geom_bond_atom_site_label_2
_geom_bond_distance
_geom_bond_site_symmetry_2
_ccdc_geom_bond_type
Eu0 O2 2.323 . S
Eu0 O10 2.328 1_556 S
Eu0 O21 2.316 1_655 S
Eu0 C22 2.837 . S
Eu0 O23 2.488 . S
Eu0 O31 2.461 . S
C1 O12 1.251 . S
C1 O21 1.237 1_545 S
O2 Eu0 2.323 . S
O2 C18 1.279 . S
C3 C5 1.383 . S
C3 C7 1.388 1_545 S
C3 C17 1.491 . S
C4 C6 1.403 . S
C4 C8 1.385 . S
C4 H32 0.931 . S
C5 C3 1.383 . S
C5 C6 1.393 1_545 S
C5 H33 0.930 . S
C6 C4 1.403 . S
C6 C5 1.393 1_565 S
C7 C3 1.388 1_565 S
C7 C8 1.394 . S
C7 H34 0.930 . S
C8 C4 1.385 . S
C8 C7 1.394 . S
Eu9 O11 2.323 . S
Eu9 O12 2.328 1_554 S
Eu9 O13 2.316 1_455 S
Eu9 O16 2.488 . S
Eu9 C17 2.837 . S
Eu9 O20 2.461 . S
O10 Eu0 2.328 1_554 S
O10 C30 1.251 . S
O11 Eu9 2.323 . S
O11 C14 1.279 . S
O12 C1 1.251 . S
O12 Eu9 2.328 1_556 S
O13 Eu9 2.316 1_655 S
O13 C30 1.237 1_545 S
C14 O11 1.279 . S
C14 O15 1.244 . S
O15 C14 1.244 . S
O16 Eu9 2.488 . S
O16 C17 1.271 . S
C17 C3 1.491 . S
C17 Eu9 2.837 . S
C17 O16 1.271 . S
C17 O20 1.261 . S
C18 O2 1.279 . S
C18 O19 1.244 . S
O19 C18 1.244 . S
O20 Eu9 2.461 . S
O20 C17 1.261 . S
O21 Eu0 2.316 1_455 S
O21 C1 1.237 1_565 S
C22 Eu0 2.837 . S
C22 O23 1.271 . S
C22 C24 1.491 . S
C22 O31 1.261 . S
O23 Eu0 2.488 . S
O23 C22 1.271 . S
C24 C22 1.491 . S
C24 C26 1.383 . S
C24 C28 1.388 1_565 S
C25 C27 1.403 . S
C25 C29 1.385 . S
C25 H35 0.931 . S
C26 C24 1.383 . S
C26 C27 1.393 1_565 S
C26 H36 0.930 . S
C27 C25 1.403 . S
C27 C26 1.393 1_545 S
C28 C24 1.388 1_545 S
C28 C29 1.394 . S
C28 H37 0.930 . S
C29 C25 1.385 . S
C29 C28 1.394 . S
C30 O10 1.251 . S
C30 O13 1.237 1_565 S
O31 Eu0 2.461 . S
O31 C22 1.261 . S
H32 C4 0.931 . S
H33 C5 0.930 . S
H34 C7 0.930 . S
H35 C25 0.931 . S
H36 C26 0.930 . S
H37 C28 0.930 . S
Eu38 O40 2.323 . S
Eu38 O48 2.328 . S
Eu38 O59 2.316 . S
Eu38 C60 2.837 . S
Eu38 O61 2.488 . S
Eu38 O69 2.461 . S
C39 O50 1.251 . S
C39 O59 1.237 . S
O40 Eu38 2.323 . S
O40 C56 1.279 . S
C41 C43 1.383 . S
C41 C45 1.388 . S
C41 C55 1.491 . S
C42 C44 1.403 . S
C42 C46 1.385 . S
C42 H70 0.931 . S
C43 C41 1.383 . S
C43 C44 1.393 . S
C43 H71 0.930 . S
C44 C42 1.403 . S
C44 C43 1.393 . S
C45 C41 1.388 . S
C45 C46 1.394 . S
C45 H72 0.930 . S
C46 C42 1.385 . S
C46 C45 1.394 . S
Eu47 O49 2.323 . S
Eu47 O50 2.328 . S
Eu47 O51 2.316 . S
Eu47 O54 2.488 . S
Eu47 C55 2.837 . S
Eu47 O58 2.461 . S
O48 Eu38 2.328 . S
O48 C68 1.251 . S
O49 Eu47 2.323 . S
O49 C52 1.279 . S
O50 C39 1.251 . S
O50 Eu47 2.328 . S
O51 Eu47 2.316 . S
O51 C68 1.237 . S
C52 O49 1.279 . S
C52 O53 1.244 . S
O53 C52 1.244 . S
O54 Eu47 2.488 . S
O54 C55 1.271 . S
C55 C41 1.491 . S
C55 Eu47 2.837 . S
C55 O54 1.271 . S
C55 O58 1.261 . S
C56 O40 1.279 . S
C56 O57 1.244 . S
O57 C56 1.244 . S
O58 Eu47 2.461 . S
O58 C55 1.261 . S
O59 Eu38 2.316 . S
O59 C39 1.237 . S
C60 Eu38 2.837 . S
C60 O61 1.271 . S
C60 C62 1.491 . S
C60 O69 1.261 . S
O61 Eu38 2.488 . S
O61 C60 1.271 . S
C62 C60 1.491 . S
C62 C64 1.383 . S
C62 C66 1.388 . S
C63 C65 1.403 . S
C63 C67 1.385 . S
C63 H73 0.931 . S
C64 C62 1.383 . S
C64 C65 1.393 . S
C64 H74 0.930 . S
C65 C63 1.403 . S
C65 C64 1.393 . S
C66 C62 1.388 . S
C66 C67 1.394 . S
C66 H75 0.930 . S
C67 C63 1.385 . S
C67 C66 1.394 . S
C68 O48 1.251 . S
C68 O51 1.237 . S
O69 Eu38 2.461 . S
O69 C60 1.261 . S
H70 C42 0.931 . S
H71 C43 0.930 . S
H72 C45 0.930 . S
H73 C63 0.931 . S
H74 C64 0.930 . S
H75 C66 0.930 . S
Eu76 O78 2.323 . S
Eu76 O86 2.328 . S
Eu76 O97 2.316 . S
Eu76 C98 2.837 . S
Eu76 O99 2.488 . S
Eu76 O107 2.461 . S
C77 O88 1.251 . S
C77 O97 1.237 . S
O78 Eu76 2.323 . S
O78 C94 1.279 . S
C79 C81 1.383 . S
C79 C83 1.388 . S
C79 C93 1.491 . S
C80 C82 1.403 . S
C80 C84 1.385 . S
C80 H108 0.931 . S
C81 C79 1.383 . S
C81 C82 1.393 . S
C81 H109 0.930 . S
C82 C80 1.403 . S
C82 C81 1.393 . S
C83 C79 1.388 . S
C83 C84 1.394 . S
C83 H110 0.930 . S
C84 C80 1.385 . S
C84 C83 1.394 . S
Eu85 O87 2.323 . S
Eu85 O88 2.328 . S
Eu85 O89 2.316 . S
Eu85 O92 2.488 . S
Eu85 C93 2.837 . S
Eu85 O96 2.461 . S
O86 Eu76 2.328 . S
O86 C106 1.251 . S
O87 Eu85 2.323 . S
O87 C90 1.279 . S
O88 C77 1.251 . S
O88 Eu85 2.328 . S
O89 Eu85 2.316 . S
O89 C106 1.237 . S
C90 O87 1.279 . S
C90 O91 1.244 . S
O91 C90 1.244 . S
O92 Eu85 2.488 . S
O92 C93 1.271 . S
C93 C79 1.491 . S
C93 Eu85 2.837 . S
C93 O92 1.271 . S
C93 O96 1.261 . S
C94 O78 1.279 . S
C94 O95 1.244 . S
O95 C94 1.244 . S
O96 Eu85 2.461 . S
O96 C93 1.261 . S
O97 Eu76 2.316 . S
O97 C77 1.237 . S
C98 Eu76 2.837 . S
C98 O99 1.271 . S
C98 C100 1.491 . S
C98 O107 1.261 . S
O99 Eu76 2.488 . S
O99 C98 1.271 . S
C100 C98 1.491 . S
C100 C102 1.383 . S
C100 C104 1.388 . S
C101 C103 1.403 . S
C101 C105 1.385 . S
C101 H111 0.931 . S
C102 C100 1.383 . S
C102 C103 1.393 . S
C102 H112 0.930 . S
C103 C101 1.403 . S
C103 C102 1.393 . S
C104 C100 1.388 . S
C104 C105 1.394 . S
C104 H113 0.930 . S
C105 C101 1.385 . S
C105 C104 1.394 . S
C106 O86 1.251 . S
C106 O89 1.237 . S
O107 Eu76 2.461 . S
O107 C98 1.261 . S
H108 C80 0.931 . S
H109 C81 0.930 . S
H110 C83 0.930 . S
H111 C101 0.931 . S
H112 C102 0.930 . S
H113 C104 0.930 . S
H114 C122 0.929 . S
H115 C124 0.930 . S
H116 C126 0.930 . S
H117 C129 0.929 . S
H118 C132 0.930 . S
H119 C134 0.960 . S
H120 C134 0.960 . S
H121 C134 0.960 . S
C122 H114 0.929 . S
C122 C123 1.377 1_565 S
C122 C124 1.384 . S
C123 C122 1.377 1_545 S
C123 C129 1.390 . S
C124 H115 0.930 . S
C124 C122 1.384 . S
C124 C125 1.372 1_565 S
C125 C124 1.372 1_545 S
C125 C126 1.400 . S
C125 C130 1.490 1_545 S
C126 H116 0.930 . S
C126 C125 1.400 . S
C126 C129 1.386 . S
H127 C143 0.926 1_545 S
H128 C144 0.931 1_655 S
C129 H117 0.929 . S
C129 C123 1.390 . S
C129 C126 1.386 . S
C130 C125 1.490 1_565 S
C130 C132 1.394 . S
C130 C133 1.403 1_665 S
H131 C137 0.930 . S
C132 H118 0.930 . S
C132 C130 1.394 . S
C132 C135 1.403 . S
C133 C130 1.403 1_445 S
C133 C134 1.524 . S
C133 C137 1.400 . S
C134 H119 0.960 . S
C134 H120 0.960 . S
C134 H121 0.960 . S
C134 C133 1.524 . S
C135 C132 1.403 . S
C135 C136 1.392 1_655 S
C135 C139 1.495 . S
C136 C135 1.392 1_455 S
C136 C137 1.385 1_565 S
C136 C138 1.478 . S
C137 H131 0.930 . S
C137 C133 1.400 . S
C137 C136 1.385 1_545 S
C138 C136 1.478 . S
C138 C140 1.381 . S
C138 C144 1.383 . S
C139 C135 1.495 . S
C139 H145 0.959 . S
C139 H146 0.961 . S
C139 H147 0.960 . S
C140 C138 1.381 . S
C140 C141 1.394 . S
C140 H148 0.930 . S
C141 C140 1.394 . S
C141 C142 1.383 . S
C141 H149 0.929 . S
C142 C141 1.383 . S
C142 C143 1.377 . S
C143 H127 0.926 1_565 S
C143 C142 1.377 . S
C143 C144 1.379 . S
C144 H128 0.931 1_455 S
C144 C138 1.383 . S
C144 C143 1.379 . S
H145 C139 0.959 . S
H146 C139 0.961 . S
H147 C139 0.960 . S
H148 C140 0.930 . S
H149 C141 0.929 . S
H150 C158 0.929 . S
H151 C160 0.930 . S
H152 C162 0.930 . S
H153 C165 0.929 . S
H154 C168 0.930 . S
H155 C170 0.960 . S
H156 C170 0.960 . S
H157 C170 0.960 . S
C158 H150 0.929 . S
C158 C159 1.377 . S
C158 C160 1.384 . S
C159 C158 1.377 . S
C159 C165 1.390 . S
C160 H151 0.930 . S
C160 C158 1.384 . S
C160 C161 1.372 . S
C161 C160 1.372 . S
C161 C162 1.400 . S
C161 C166 1.490 . S
C162 H152 0.930 . S
C162 C161 1.400 . S
C162 C165 1.386 . S
H163 C179 0.930 . S
H164 C180 0.931 . S
C165 H153 0.929 . S
C165 C159 1.390 . S
C165 C162 1.386 . S
C166 C161 1.490 . S
C166 C168 1.395 . S
C166 C169 1.403 . S
H167 C173 0.930 . S
C168 H154 0.930 . S
C168 C166 1.395 . S
C168 C171 1.403 . S
C169 C166 1.403 . S
C169 C170 1.524 . S
C169 C173 1.400 . S
C170 H155 0.960 . S
C170 H156 0.960 . S
C170 H157 0.960 . S
C170 C169 1.524 . S
C171 C168 1.403 . S
C171 C172 1.392 . S
C171 C175 1.495 . S
C172 C171 1.392 . S
C172 C173 1.385 . S
C172 C174 1.478 . S
C173 H167 0.930 . S
C173 C169 1.400 . S
C173 C172 1.385 . S
C174 C172 1.478 . S
C174 C176 1.381 . S
C174 C180 1.383 . S
C175 C171 1.495 . S
C175 H181 0.959 . S
C175 H182 0.961 . S
C175 H183 0.960 . S
C176 C174 1.381 . S
C176 C177 1.394 1_556 S
C176 H184 0.930 . S
C177 C176 1.394 1_554 S
C177 C178 1.383 . S
C177 H185 0.929 . S
C178 C177 1.383 . S
C178 C179 1.377 . S
C179 H163 0.930 . S
C179 C178 1.377 . S
C179 C180 1.379 1_554 S
C180 H164 0.931 . S
C180 C174 1.383 . S
C180 C179 1.379 1_556 S
H181 C175 0.959 . S
H182 C175 0.961 . S
H183 C175 0.960 . S
H184 C176 0.930 . S
H185 C177 0.929 . S
H186 C194 0.929 . S
H187 C196 0.930 . S
H188 C198 0.930 . S
H189 C201 0.929 . S
H190 C204 0.930 . S
H191 C206 0.960 . S
H192 C206 0.960 . S
H193 C206 0.960 . S
C194 H186 0.929 . S
C194 C195 1.377 . S
C194 C196 1.384 1_556 S
C195 C194 1.377 . S
C195 C201 1.390 . S
C196 H187 0.930 . S
C196 C194 1.384 1_554 S
C196 C197 1.372 . S
C197 C196 1.372 . S
C197 C198 1.400 . S
C197 C202 1.490 . S
C198 H188 0.930 . S
C198 C197 1.400 . S
C198 C201 1.386 1_554 S
H199 C215 0.930 . S
H200 C216 0.931 . S
C201 H189 0.929 . S
C201 C195 1.390 . S
C201 C198 1.386 1_556 S
C202 C197 1.490 . S
C202 C204 1.395 . S
C202 C205 1.403 . S
H203 C209 0.930 . S
C204 H190 0.930 . S
C204 C202 1.395 . S
C204 C207 1.403 . S
C205 C202 1.403 . S
C205 C206 1.524 . S
C205 C209 1.400 . S
C206 H191 0.960 . S
C206 H192 0.960 . S
C206 H193 0.960 . S
C206 C205 1.524 . S
C207 C204 1.403 . S
C207 C208 1.392 . S
C207 C211 1.495 . S
C208 C207 1.392 . S
C208 C209 1.385 . S
C208 C210 1.478 . S
C209 H203 0.930 . S
C209 C205 1.400 . S
C209 C208 1.385 . S
C210 C208 1.478 . S
C210 C212 1.381 . S
C210 C216 1.383 . S
C211 C207 1.495 . S
C211 H217 0.959 . S
C211 H218 0.961 . S
C211 H219 0.960 . S
C212 C210 1.381 . S
C212 C213 1.394 . S
C212 H220 0.930 . S
C213 C212 1.394 . S
C213 C214 1.383 . S
C213 H221 0.929 . S
C214 C213 1.383 . S
C214 C215 1.377 . S
C215 H199 0.930 . S
C215 C214 1.377 . S
C215 C216 1.379 . S
C216 H200 0.931 . S
C216 C210 1.383 . S
C216 C215 1.379 . S
H217 C211 0.959 . S
H218 C211 0.961 . S
H219 C211 0.960 . S
H220 C212 0.930 . S
H221 C213 0.929 . S
H222 C230 0.929 . S
H223 C232 0.930 . S
H224 C234 0.930 . S
H225 C237 0.929 . S
H226 C240 0.930 . S
H227 C242 0.960 . S
H228 C242 0.960 . S
H229 C242 0.960 . S
C230 H222 0.929 . S
C230 C231 1.377 . S
C230 C232 1.384 . S
C231 C230 1.377 . S
C231 C237 1.390 . S
C232 H223 0.930 . S
C232 C230 1.384 . S
C232 C233 1.372 . S
C233 C232 1.372 . S
C233 C234 1.400 . S
C233 C238 1.490 . S
C234 H224 0.930 . S
C234 C233 1.400 . S
C234 C237 1.386 . S
H235 C251 0.930 . S
H236 C252 0.931 . S
C237 H225 0.929 . S
C237 C231 1.390 . S
C237 C234 1.386 . S
C238 C233 1.490 . S
C238 C240 1.395 . S
C238 C241 1.403 . S
H239 C245 0.930 . S
C240 H226 0.930 . S
C240 C238 1.395 . S
C240 C243 1.403 . S
C241 C238 1.403 . S
C241 C242 1.524 . S
C241 C245 1.400 . S
C242 H227 0.960 . S
C242 H228 0.960 . S
C242 H229 0.960 . S
C242 C241 1.524 . S
C243 C240 1.403 . S
C243 C244 1.392 . S
C243 C247 1.495 . S
C244 C243 1.392 . S
C244 C245 1.385 . S
C244 C246 1.478 . S
C245 H239 0.930 . S
C245 C241 1.400 . S
C245 C244 1.385 . S
C246 C244 1.478 . S
C246 C248 1.381 . S
C246 C252 1.383 . S
C247 C243 1.495 . S
C247 H253 0.959 1_455 S
C247 H254 0.961 . S
C247 H255 0.960 1_455 S
C248 C246 1.381 . S
C248 C249 1.394 . S
C248 H256 0.930 . S
C249 C248 1.394 . S
C249 C250 1.383 . S
C249 H257 0.929 . S
C250 C249 1.383 . S
C250 C251 1.377 . S
C251 H235 0.930 . S
C251 C250 1.377 . S
C251 C252 1.379 . S
C252 H236 0.931 . S
C252 C246 1.383 . S
C252 C251 1.379 . S
H253 C247 0.959 1_655 S
H254 C247 0.961 . S
H255 C247 0.960 1_655 S
H256 C248 0.930 . S
H257 C249 0.929 . S
H258 C266 0.929 . S
H259 C268 0.930 . S
H260 C270 0.930 . S
H261 C273 0.929 . S
H262 C276 0.930 . S
H263 C278 0.960 . S
H264 C278 0.960 . S
H265 C278 0.960 . S
C266 H258 0.929 . S
C266 C267 1.377 . S
C266 C268 1.384 . S
C267 C266 1.377 . S
C267 C273 1.390 . S
C268 H259 0.930 . S
C268 C266 1.384 . S
C268 C269 1.372 . S
C269 C268 1.372 . S
C269 C270 1.400 . S
C269 C274 1.490 . S
C270 H260 0.930 . S
C270 C269 1.400 . S
C270 C273 1.386 . S
H271 C287 0.930 1_655 S
H272 C288 0.931 . S
C273 H261 0.929 . S
C273 C267 1.390 . S
C273 C270 1.386 . S
C274 C269 1.490 . S
C274 C276 1.395 . S
C274 C277 1.403 . S
H275 C281 0.930 . S
C276 H262 0.930 . S
C276 C274 1.395 . S
C276 C279 1.403 . S
C277 C274 1.403 . S
C277 C278 1.524 . S
C277 C281 1.400 . S
C278 H263 0.960 . S
C278 H264 0.960 . S
C278 H265 0.960 . S
C278 C277 1.524 . S
C279 C276 1.403 . S
C279 C280 1.392 . S
C279 C283 1.495 . S
C280 C279 1.392 . S
C280 C281 1.385 . S
C280 C282 1.478 . S
C281 H275 0.930 . S
C281 C277 1.400 . S
C281 C280 1.385 . S
C282 C280 1.478 . S
C282 C284 1.381 . S
C282 C288 1.383 . S
C283 C279 1.495 . S
C283 H289 0.959 . S
C283 H290 0.961 . S
C283 H291 0.960 . S
C284 C282 1.381 . S
C284 C285 1.394 . S
C284 H292 0.930 . S
C285 C284 1.394 . S
C285 C286 1.383 . S
C285 H293 0.929 . S
C286 C285 1.383 . S
C286 C287 1.377 . S
C287 H271 0.930 1_455 S
C287 C286 1.377 . S
C287 C288 1.379 . S
C288 H272 0.931 . S
C288 C282 1.383 . S
C288 C287 1.379 . S
H289 C283 0.959 . S
H290 C283 0.961 . S
H291 C283 0.960 . S
H292 C284 0.930 . S
H293 C285 0.929 . S
H294 C302 0.929 . S
H295 C304 0.930 . S
H296 C306 0.930 . S
H297 C309 0.929 . S
H298 C312 0.930 . S
H299 C314 0.960 . S
H300 C314 0.960 . S
H301 C314 0.960 . S
C302 H294 0.929 . S
C302 C303 1.377 . S
C302 C304 1.384 . S
C303 C302 1.377 . S
C303 C309 1.390 . S
C304 H295 0.930 . S
C304 C302 1.384 . S
C304 C305 1.372 . S
C305 C304 1.372 . S
C305 C306 1.400 . S
C305 C310 1.490 . S
C306 H296 0.930 . S
C306 C305 1.400 . S
C306 C309 1.386 . S
H307 C323 0.930 . S
H308 C324 0.931 . S
C309 H297 0.929 . S
C309 C303 1.390 . S
C309 C306 1.386 . S
C310 C305 1.490 . S
C310 C312 1.395 . S
C310 C313 1.403 . S
H311 C317 0.930 . S
C312 H298 0.930 . S
C312 C310 1.395 . S
C312 C315 1.403 . S
C313 C310 1.403 . S
C313 C314 1.524 . S
C313 C317 1.400 . S
C314 H299 0.960 . S
C314 H300 0.960 . S
C314 H301 0.960 . S
C314 C313 1.524 . S
C315 C312 1.403 . S
C315 C316 1.392 . S
C315 C319 1.495 . S
C316 C315 1.392 . S
C316 C317 1.385 . S
C316 C318 1.478 . S
C317 H311 0.930 . S
C317 C313 1.400 . S
C317 C316 1.385 . S
C318 C316 1.478 . S
C318 C320 1.381 . S
C318 C324 1.383 . S
C319 C315 1.495 . S
C319 H325 0.959 . S
C319 H326 0.961 . S
C319 H327 0.960 . S
C320 C318 1.381 . S
C320 C321 1.394 . S
C320 H328 0.930 . S
C321 C320 1.394 . S
C321 C322 1.383 . S
C321 H329 0.929 . S
C322 C321 1.383 . S
C322 C323 1.377 . S
C323 H307 0.930 . S
C323 C322 1.377 . S
C323 C324 1.379 . S
C324 H308 0.931 . S
C324 C318 1.383 . S
C324 C323 1.379 . S
H325 C319 0.959 . S
H326 C319 0.961 . S
H327 C319 0.960 . S
H328 C320 0.930 . S
H329 C321 0.929 . S
H330 C338 0.929 . S
H331 C340 0.930 . S
H332 C342 0.930 . S
H333 C345 0.929 . S
H334 C348 0.930 . S
H335 C350 0.960 . S
H336 C350 0.960 . S
H337 C350 0.960 . S
C338 H330 0.929 . S
C338 C339 1.377 . S
C338 C340 1.384 . S
C339 C338 1.377 . S
C339 C345 1.390 . S
C340 H331 0.930 . S
C340 C338 1.384 . S
C340 C341 1.372 . S
C341 C340 1.372 . S
C341 C342 1.400 . S
C341 C346 1.490 . S
C342 H332 0.930 . S
C342 C341 1.400 . S
C342 C345 1.386 . S
H343 C359 0.930 1_455 S
H344 C360 0.931 . S
C345 H333 0.929 . S
C345 C339 1.390 . S
C345 C342 1.386 . S
C346 C341 1.490 . S
C346 C348 1.395 . S
C346 C349 1.403 . S
H347 C353 0.930 . S
C348 H334 0.930 . S
C348 C346 1.395 . S
C348 C351 1.403 . S
C349 C346 1.403 . S
C349 C350 1.524 . S
C349 C353 1.400 . S
C350 H335 0.960 . S
C350 H336 0.960 . S
C350 H337 0.960 . S
C350 C349 1.524 . S
C351 C348 1.403 . S
C351 C352 1.392 . S
C351 C355 1.495 . S
C352 C351 1.392 . S
C352 C353 1.385 . S
C352 C354 1.478 . S
C353 H347 0.930 . S
C353 C349 1.400 . S
C353 C352 1.385 . S
C354 C352 1.478 . S
C354 C356 1.381 . S
C354 C360 1.383 . S
C355 C351 1.495 . S
C355 H361 0.959 . S
C355 H362 0.961 . S
C355 H363 0.960 . S
C356 C354 1.381 . S
C356 C357 1.394 . S
C356 H364 0.930 . S
C357 C356 1.394 . S
C357 C358 1.383 . S
C357 H365 0.929 . S
C358 C357 1.383 . S
C358 C359 1.377 . S
C359 H343 0.930 1_655 S
C359 C358 1.377 . S
C359 C360 1.379 . S
C360 H344 0.931 . S
C360 C354 1.383 . S
C360 C359 1.379 . S
H361 C355 0.959 . S
H362 C355 0.961 . S
H363 C355 0.960 . S
H364 C356 0.930 . S
H365 C357 0.929 . S
H366 C374 0.929 . S
H367 C376 0.930 . S
H368 C378 0.930 . S
H369 C381 0.929 . S
H370 C384 0.930 . S
H371 C386 0.960 . S
H372 C386 0.960 . S
H373 C386 0.960 . S
C374 H366 0.929 . S
C374 C375 1.377 . S
C374 C376 1.384 . S
C375 C374 1.377 . S
C375 C381 1.390 . S
C376 H367 0.930 . S
C376 C374 1.384 . S
C376 C377 1.372 . S
C377 C376 1.372 . S
C377 C378 1.400 . S
C377 C382 1.490 . S
C378 H368 0.930 . S
C378 C377 1.400 . S
C378 C381 1.386 . S
H379 C395 0.930 . S
H380 C396 0.931 . S
C381 H369 0.929 . S
C381 C375 1.390 . S
C381 C378 1.386 . S
C382 C377 1.490 . S
C382 C384 1.395 . S
C382 C385 1.403 . S
H383 C389 0.930 . S
C384 H370 0.930 . S
C384 C382 1.395 . S
C384 C387 1.403 . S
C385 C382 1.403 . S
C385 C386 1.524 . S
C385 C389 1.400 . S
C386 H371 0.960 . S
C386 H372 0.960 . S
C386 H373 0.960 . S
C386 C385 1.524 . S
C387 C384 1.403 . S
C387 C388 1.392 . S
C387 C391 1.495 . S
C388 C387 1.392 . S
C388 C389 1.385 . S
C388 C390 1.478 . S
C389 H383 0.930 . S
C389 C385 1.400 . S
C389 C388 1.385 . S
C390 C388 1.478 . S
C390 C392 1.381 . S
C390 C396 1.383 . S
C391 C387 1.495 . S
C391 H397 0.959 . S
C391 H398 0.961 . S
C391 H399 0.960 . S
C392 C390 1.381 . S
C392 C393 1.394 . S
C392 H400 0.930 . S
C393 C392 1.394 . S
C393 C394 1.383 . S
C393 H401 0.929 . S
C394 C393 1.383 . S
C394 C395 1.377 . S
C395 H379 0.930 . S
C395 C394 1.377 . S
C395 C396 1.379 . S
C396 H380 0.931 . S
C396 C390 1.383 . S
C396 C395 1.379 . S
H397 C391 0.959 . S
H398 C391 0.961 . S
H399 C391 0.960 . S
H400 C392 0.930 . S
H401 C393 0.929 . S
H402 C410 0.929 . S
H403 C412 0.930 . S
H404 C414 0.930 . S
H405 C417 0.929 . S
H406 C420 0.930 . S
H407 C422 0.960 . S
H408 C422 0.960 . S
H409 C422 0.960 . S
C410 H402 0.929 . S
C410 C411 1.377 . S
C410 C412 1.384 . S
C411 C410 1.377 . S
C411 C417 1.390 . S
C412 H403 0.930 . S
C412 C410 1.384 . S
C412 C413 1.372 . S
C413 C412 1.372 . S
C413 C414 1.400 . S
C413 C418 1.490 . S
C414 H404 0.930 . S
C414 C413 1.400 . S
C414 C417 1.386 . S
H415 C431 0.930 . S
H416 C432 0.931 . S
C417 H405 0.929 . S
C417 C411 1.390 . S
C417 C414 1.386 . S
C418 C413 1.490 . S
C418 C420 1.395 . S
C418 C421 1.403 . S
H419 C425 0.930 . S
C420 H406 0.930 . S
C420 C418 1.395 . S
C420 C423 1.403 . S
C421 C418 1.403 . S
C421 C422 1.524 . S
C421 C425 1.400 . S
C422 H407 0.960 . S
C422 H408 0.960 . S
C422 H409 0.960 . S
C422 C421 1.524 . S
C423 C420 1.403 . S
C423 C424 1.392 . S
C423 C427 1.495 . S
C424 C423 1.392 . S
C424 C425 1.385 . S
C424 C426 1.478 . S
C425 H419 0.930 . S
C425 C421 1.400 . S
C425 C424 1.385 . S
C426 C424 1.478 . S
C426 C428 1.381 . S
C426 C432 1.383 . S
C427 C423 1.495 . S
C427 H433 0.959 . S
C427 H434 0.961 . S
C427 H435 0.960 . S
C428 C426 1.381 . S
C428 C429 1.394 . S
C428 H436 0.930 . S
C429 C428 1.394 . S
C429 C430 1.383 . S
C429 H437 0.929 . S
C430 C429 1.383 . S
C430 C431 1.377 . S
C431 H415 0.930 . S
C431 C430 1.377 . S
C431 C432 1.379 . S
C432 H416 0.931 . S
C432 C426 1.383 . S
C432 C431 1.379 . S
H433 C427 0.959 . S
H434 C427 0.961 . S
H435 C427 0.960 . S
H436 C428 0.930 . S
H437 C429 0.929 . S
H438 C446 0.929 . S
H439 C448 0.930 . S
H440 C450 0.930 . S
H441 C453 0.929 . S
H442 C456 0.930 . S
H443 C458 0.960 . S
H444 C458 0.960 . S
H445 C458 0.960 . S
C446 H438 0.929 . S
C446 C447 1.377 . S
C446 C448 1.384 . S
C447 C446 1.377 . S
C447 C453 1.390 . S
C448 H439 0.930 . S
C448 C446 1.384 . S
C448 C449 1.372 . S
C449 C448 1.372 . S
C449 C450 1.400 . S
C449 C454 1.490 . S
C450 H440 0.930 . S
C450 C449 1.400 . S
C450 C453 1.386 . S
H451 C467 0.930 . S
H452 C468 0.931 . S
C453 H441 0.929 . S
C453 C447 1.390 . S
C453 C450 1.386 . S
C454 C449 1.490 . S
C454 C456 1.395 . S
C454 C457 1.403 1_554 S
H455 C461 0.930 . S
C456 H442 0.930 . S
C456 C454 1.395 . S
C456 C459 1.403 . S
C457 C454 1.403 1_556 S
C457 C458 1.524 . S
C457 C461 1.400 . S
C458 H443 0.960 . S
C458 H444 0.960 . S
C458 H445 0.960 . S
C458 C457 1.524 . S
C459 C456 1.403 . S
C459 C460 1.392 1_554 S
C459 C463 1.495 . S
C460 C459 1.392 1_556 S
C460 C461 1.385 . S
C460 C462 1.478 . S
C461 H455 0.930 . S
C461 C457 1.400 . S
C461 C460 1.385 . S
C462 C460 1.478 . S
C462 C464 1.381 . S
C462 C468 1.383 . S
C463 C459 1.495 . S
C463 H469 0.959 . S
C463 H470 0.961 . S
C463 H471 0.960 . S
C464 C462 1.381 . S
C464 C465 1.394 . S
C464 H472 0.930 . S
C465 C464 1.394 . S
C465 C466 1.383 . S
C465 H473 0.929 . S
C466 C465 1.383 . S
C466 C467 1.377 . S
C467 H451 0.930 . S
C467 C466 1.377 . S
C467 C468 1.379 . S
C468 H452 0.931 . S
C468 C462 1.383 . S
C468 C467 1.379 . S
H469 C463 0.959 . S
H470 C463 0.961 . S
H471 C463 0.960 . S
H472 C464 0.930 . S
H473 C465 0.929 . S
H474 C482 0.929 . S
H475 C484 0.930 . S
H476 C486 0.930 . S
H477 C489 0.929 . S
H478 C492 0.930 . S
H479 C494 0.960 . S
H480 C494 0.960 . S
H481 C494 0.960 . S
C482 H474 0.929 . S
C482 C483 1.377 . S
C482 C484 1.384 . S
C483 C482 1.377 . S
C483 C489 1.390 . S
C484 H475 0.930 . S
C484 C482 1.384 . S
C484 C485 1.372 . S
C485 C484 1.372 . S
C485 C486 1.400 . S
C485 C490 1.490 . S
C486 H476 0.930 . S
C486 C485 1.400 . S
C486 C489 1.386 . S
H487 C503 0.930 . S
H488 C504 0.931 . S
C489 H477 0.929 . S
C489 C483 1.390 . S
C489 C486 1.386 . S
C490 C485 1.490 . S
C490 C492 1.395 1_565 S
C490 C493 1.403 1_556 S
H491 C497 0.925 1_565 S
C492 H478 0.930 . S
C492 C490 1.395 1_545 S
C492 C495 1.403 . S
C493 C490 1.403 1_554 S
C493 C494 1.524 . S
C493 C497 1.387 1_565 S
C494 H479 0.960 . S
C494 H480 0.960 . S
C494 H481 0.960 . S
C494 C493 1.524 . S
C495 C492 1.403 . S
C495 C496 1.392 1_556 S
C495 C499 1.495 . S
C496 C495 1.392 1_554 S
C496 C497 1.403 . S
C496 C498 1.478 . S
C497 H491 0.925 1_545 S
C497 C493 1.387 1_545 S
C497 C496 1.403 . S
C498 C496 1.478 . S
C498 C500 1.381 . S
C498 C504 1.383 . S
C499 C495 1.495 . S
C499 H505 0.959 . S
C499 H506 0.961 . S
C499 H507 0.960 . S
C500 C498 1.381 . S
C500 C501 1.394 . S
C500 H508 0.930 . S
C501 C500 1.394 . S
C501 C502 1.383 . S
C501 H509 0.929 . S
C502 C501 1.383 . S
C502 C503 1.377 . S
C503 H487 0.930 . S
C503 C502 1.377 . S
C503 C504 1.379 . S
C504 H488 0.931 . S
C504 C498 1.383 . S
C504 C503 1.379 . S
H505 C499 0.959 . S
H506 C499 0.961 . S
H507 C499 0.960 . S
H508 C500 0.930 . S
H509 C501 0.929 . S
H510 C518 0.929 . S
H511 C520 0.930 . S
H512 C522 0.930 . S
H513 C525 0.929 . S
H514 C528 0.930 . S
H515 C530 0.960 . S
H516 C530 0.960 . S
H517 C530 0.960 . S
C518 H510 0.929 . S
C518 C519 1.377 . S
C518 C520 1.384 . S
C519 C518 1.377 . S
C519 C525 1.390 . S
C520 H511 0.930 . S
C520 C518 1.384 . S
C520 C521 1.372 . S
C521 C520 1.372 . S
C521 C522 1.400 . S
C521 C526 1.490 . S
C522 H512 0.930 . S
C522 C521 1.400 . S
C522 C525 1.386 . S
H523 C539 0.930 . S
H524 C540 0.931 . S
C525 H513 0.929 . S
C525 C519 1.390 . S
C525 C522 1.386 . S
C526 C521 1.490 . S
C526 C528 1.395 . S
C526 C529 1.403 1_455 S
H527 C533 0.930 . S
C528 H514 0.930 . S
C528 C526 1.395 . S
C528 C531 1.403 1_556 S
C529 C526 1.403 1_655 S
C529 C530 1.524 . S
C529 C533 1.400 1_556 S
C530 H515 0.960 . S
C530 H516 0.960 . S
C530 H517 0.960 . S
C530 C529 1.524 . S
C531 C528 1.403 1_554 S
C531 C532 1.392 1_455 S
C531 C535 1.495 . S
C532 C531 1.392 1_655 S
C532 C533 1.385 . S
C532 C534 1.478 . S
C533 H527 0.930 . S
C533 C529 1.400 1_554 S
C533 C532 1.385 . S
C534 C532 1.478 . S
C534 C536 1.381 . S
C534 C540 1.383 . S
C535 C531 1.495 . S
C535 H541 0.959 . S
C535 H542 0.961 . S
C535 H543 0.960 . S
C536 C534 1.381 . S
C536 C537 1.394 . S
C536 H544 0.930 . S
C537 C536 1.394 . S
C537 C538 1.383 . S
C537 H545 0.929 . S
C538 C537 1.383 . S
C538 C539 1.377 . S
C539 H523 0.930 . S
C539 C538 1.377 . S
C539 C540 1.379 . S
C540 H524 0.931 . S
C540 C534 1.383 . S
C540 C539 1.379 . S
H541 C535 0.959 . S
H542 C535 0.961 . S
H543 C535 0.960 . S
H544 C536 0.930 . S
H545 C537 0.929 . S
C123 C27 0.315 . S
C142 C6 0.312 . S
C159 C44 0.326 . S
C178 C65 0.285 . S
C195 C82 0.336 . S
C214 C103 0.335 . S
C231 C105 2.627 . S
C250 C8 2.619 . S
C267 C94 1.169 . S
C286 C14 1.170 . S
C303 C77 1.422 . S
C322 C30 1.414 . S
C339 C46 2.630 . S
C358 C29 2.603 . S
C375 C52 1.151 . S
C394 C18 1.129 . S
C411 C68 1.418 . S
C430 C1 1.414 . S
C447 C67 2.627 . S
C466 C84 2.611 . S
C483 C90 1.154 . S
C502 C56 1.176 . S
C519 C106 1.419 . S
C538 C39 1.422 . S
