# Generated by pormake.
# Topology wmv, (6)-cn, num edge types: 1
# Building blocks:
#     Node 0, Type 0, BuildingBlock: IZENUY_clean_sbu_0, # of connection points: 6
#     Node 1, Type 0, BuildingBlock: IZENUY_clean_sbu_0, # of connection points: 6
#     Node 2, Type 0, BuildingBlock: IZENUY_clean_sbu_0, # of connection points: 6
#     Node 3, Type 0, BuildingBlock: IZENUY_clean_sbu_0, # of connection points: 6
#     Node 4, Type 0, BuildingBlock: IZENUY_clean_sbu_0, # of connection points: 6
#     Node 5, Type 0, BuildingBlock: IZENUY_clean_sbu_0, # of connection points: 6
#     Node 6, Type 0, BuildingBlock: IZENUY_clean_sbu_0, # of connection points: 6
#     Node 7, Type 0, BuildingBlock: IZENUY_clean_sbu_0, # of connection points: 6
#     Node 8, Type 0, BuildingBlock: IZENUY_clean_sbu_0, # of connection points: 6
#     Node 9, Type 0, BuildingBlock: IZENUY_clean_sbu_0, # of connection points: 6
#     Node 10, Type 0, BuildingBlock: IZENUY_clean_sbu_0, # of connection points: 6
#     Node 11, Type 0, BuildingBlock: IZENUY_clean_sbu_0, # of connection points: 6
#     Node 12, Type 0, BuildingBlock: IZENUY_clean_sbu_0, # of connection points: 6
#     Node 13, Type 0, BuildingBlock: IZENUY_clean_sbu_0, # of connection points: 6
#     Node 14, Type 0, BuildingBlock: IZENUY_clean_sbu_0, # of connection points: 6
#     Node 15, Type 0, BuildingBlock: IZENUY_clean_sbu_0, # of connection points: 6
#     Node 16, Type 0, BuildingBlock: IZENUY_clean_sbu_0, # of connection points: 6
#     Node 17, Type 0, BuildingBlock: IZENUY_clean_sbu_0, # of connection points: 6
#     Node 18, Type 0, BuildingBlock: IZENUY_clean_sbu_0, # of connection points: 6
#     Node 19, Type 0, BuildingBlock: IZENUY_clean_sbu_0, # of connection points: 6
#     Node 20, Type 0, BuildingBlock: IZENUY_clean_sbu_0, # of connection points: 6
#     Node 21, Type 0, BuildingBlock: IZENUY_clean_sbu_0, # of connection points: 6
#     Node 22, Type 0, BuildingBlock: IZENUY_clean_sbu_0, # of connection points: 6
#     Node 23, Type 0, BuildingBlock: IZENUY_clean_sbu_0, # of connection points: 6
#     Node 24, Type 0, BuildingBlock: IZENUY_clean_sbu_0, # of connection points: 6
#     Node 25, Type 0, BuildingBlock: IZENUY_clean_sbu_0, # of connection points: 6
#     Node 26, Type 0, BuildingBlock: IZENUY_clean_sbu_0, # of connection points: 6
#     Node 27, Type 0, BuildingBlock: IZENUY_clean_sbu_0, # of connection points: 6
#     Node 28, Type 0, BuildingBlock: IZENUY_clean_sbu_0, # of connection points: 6
#     Node 29, Type 0, BuildingBlock: IZENUY_clean_sbu_0, # of connection points: 6
#     Node 30, Type 0, BuildingBlock: IZENUY_clean_sbu_0, # of connection points: 6
#     Node 31, Type 0, BuildingBlock: IZENUY_clean_sbu_0, # of connection points: 6
#     Node 32, Type 0, BuildingBlock: IZENUY_clean_sbu_0, # of connection points: 6
#     Node 33, Type 0, BuildingBlock: IZENUY_clean_sbu_0, # of connection points: 6
#     Node 34, Type 0, BuildingBlock: IZENUY_clean_sbu_0, # of connection points: 6
#     Node 35, Type 0, BuildingBlock: IZENUY_clean_sbu_0, # of connection points: 6
#     Edge 36, Type (0, 0), BuildingBlock: XIVTED_clean_linker_0, # of connection points: 2
#     Edge 37, Type (0, 0), BuildingBlock: XIVTED_clean_linker_0, # of connection points: 2
#     Edge 38, Type (0, 0), BuildingBlock: XIVTED_clean_linker_0, # of connection points: 2
#     Edge 39, Type (0, 0), BuildingBlock: XIVTED_clean_linker_0, # of connection points: 2
#     Edge 40, Type (0, 0), BuildingBlock: XIVTED_clean_linker_0, # of connection points: 2
#     Edge 41, Type (0, 0), BuildingBlock: XIVTED_clean_linker_0, # of connection points: 2
#     Edge 42, Type (0, 0), BuildingBlock: XIVTED_clean_linker_0, # of connection points: 2
#     Edge 43, Type (0, 0), BuildingBlock: XIVTED_clean_linker_0, # of connection points: 2
#     Edge 44, Type (0, 0), BuildingBlock: XIVTED_clean_linker_0, # of connection points: 2
#     Edge 45, Type (0, 0), BuildingBlock: XIVTED_clean_linker_0, # of connection points: 2
#     Edge 46, Type (0, 0), BuildingBlock: XIVTED_clean_linker_0, # of connection points: 2
#     Edge 47, Type (0, 0), BuildingBlock: XIVTED_clean_linker_0, # of connection points: 2
#     Edge 48, Type (0, 0), BuildingBlock: XIVTED_clean_linker_0, # of connection points: 2
#     Edge 49, Type (0, 0), BuildingBlock: XIVTED_clean_linker_0, # of connection points: 2
#     Edge 50, Type (0, 0), BuildingBlock: XIVTED_clean_linker_0, # of connection points: 2
#     Edge 51, Type (0, 0), BuildingBlock: XIVTED_clean_linker_0, # of connection points: 2
#     Edge 52, Type (0, 0), BuildingBlock: XIVTED_clean_linker_0, # of connection points: 2
#     Edge 53, Type (0, 0), BuildingBlock: XIVTED_clean_linker_0, # of connection points: 2
#     Edge 54, Type (0, 0), BuildingBlock: XIVTED_clean_linker_0, # of connection points: 2
#     Edge 55, Type (0, 0), BuildingBlock: XIVTED_clean_linker_0, # of connection points: 2
#     Edge 56, Type (0, 0), BuildingBlock: XIVTED_clean_linker_0, # of connection points: 2
#     Edge 57, Type (0, 0), BuildingBlock: XIVTED_clean_linker_0, # of connection points: 2
#     Edge 58, Type (0, 0), BuildingBlock: XIVTED_clean_linker_0, # of connection points: 2
#     Edge 59, Type (0, 0), BuildingBlock: XIVTED_clean_linker_0, # of connection points: 2
#     Edge 60, Type (0, 0), BuildingBlock: XIVTED_clean_linker_0, # of connection points: 2
#     Edge 61, Type (0, 0), BuildingBlock: XIVTED_clean_linker_0, # of connection points: 2
#     Edge 62, Type (0, 0), BuildingBlock: XIVTED_clean_linker_0, # of connection points: 2
#     Edge 63, Type (0, 0), BuildingBlock: XIVTED_clean_linker_0, # of connection points: 2
#     Edge 64, Type (0, 0), BuildingBlock: XIVTED_clean_linker_0, # of connection points: 2
#     Edge 65, Type (0, 0), BuildingBlock: XIVTED_clean_linker_0, # of connection points: 2
#     Edge 66, Type (0, 0), BuildingBlock: XIVTED_clean_linker_0, # of connection points: 2
#     Edge 67, Type (0, 0), BuildingBlock: XIVTED_clean_linker_0, # of connection points: 2
#     Edge 68, Type (0, 0), BuildingBlock: XIVTED_clean_linker_0, # of connection points: 2
#     Edge 69, Type (0, 0), BuildingBlock: XIVTED_clean_linker_0, # of connection points: 2
#     Edge 70, Type (0, 0), BuildingBlock: XIVTED_clean_linker_0, # of connection points: 2
#     Edge 71, Type (0, 0), BuildingBlock: XIVTED_clean_linker_0, # of connection points: 2
#     Edge 72, Type (0, 0), BuildingBlock: XIVTED_clean_linker_0, # of connection points: 2
#     Edge 73, Type (0, 0), BuildingBlock: XIVTED_clean_linker_0, # of connection points: 2
#     Edge 74, Type (0, 0), BuildingBlock: XIVTED_clean_linker_0, # of connection points: 2
#     Edge 75, Type (0, 0), BuildingBlock: XIVTED_clean_linker_0, # of connection points: 2
#     Edge 76, Type (0, 0), BuildingBlock: XIVTED_clean_linker_0, # of connection points: 2
#     Edge 77, Type (0, 0), BuildingBlock: XIVTED_clean_linker_0, # of connection points: 2
#     Edge 78, Type (0, 0), BuildingBlock: XIVTED_clean_linker_0, # of connection points: 2
#     Edge 79, Type (0, 0), BuildingBlock: XIVTED_clean_linker_0, # of connection points: 2
#     Edge 80, Type (0, 0), BuildingBlock: XIVTED_clean_linker_0, # of connection points: 2
#     Edge 81, Type (0, 0), BuildingBlock: XIVTED_clean_linker_0, # of connection points: 2
#     Edge 82, Type (0, 0), BuildingBlock: XIVTED_clean_linker_0, # of connection points: 2
#     Edge 83, Type (0, 0), BuildingBlock: XIVTED_clean_linker_0, # of connection points: 2
#     Edge 84, Type (0, 0), BuildingBlock: XIVTED_clean_linker_0, # of connection points: 2
#     Edge 85, Type (0, 0), BuildingBlock: XIVTED_clean_linker_0, # of connection points: 2
#     Edge 86, Type (0, 0), BuildingBlock: XIVTED_clean_linker_0, # of connection points: 2
#     Edge 87, Type (0, 0), BuildingBlock: XIVTED_clean_linker_0, # of connection points: 2
#     Edge 88, Type (0, 0), BuildingBlock: XIVTED_clean_linker_0, # of connection points: 2
#     Edge 89, Type (0, 0), BuildingBlock: XIVTED_clean_linker_0, # of connection points: 2
#     Edge 90, Type (0, 0), BuildingBlock: XIVTED_clean_linker_0, # of connection points: 2
#     Edge 91, Type (0, 0), BuildingBlock: XIVTED_clean_linker_0, # of connection points: 2
#     Edge 92, Type (0, 0), BuildingBlock: XIVTED_clean_linker_0, # of connection points: 2
#     Edge 93, Type (0, 0), BuildingBlock: XIVTED_clean_linker_0, # of connection points: 2
#     Edge 94, Type (0, 0), BuildingBlock: XIVTED_clean_linker_0, # of connection points: 2
#     Edge 95, Type (0, 0), BuildingBlock: XIVTED_clean_linker_0, # of connection points: 2
#     Edge 96, Type (0, 0), BuildingBlock: XIVTED_clean_linker_0, # of connection points: 2
#     Edge 97, Type (0, 0), BuildingBlock: XIVTED_clean_linker_0, # of connection points: 2
#     Edge 98, Type (0, 0), BuildingBlock: XIVTED_clean_linker_0, # of connection points: 2
#     Edge 99, Type (0, 0), BuildingBlock: XIVTED_clean_linker_0, # of connection points: 2
#     Edge 100, Type (0, 0), BuildingBlock: XIVTED_clean_linker_0, # of connection points: 2
#     Edge 101, Type (0, 0), BuildingBlock: XIVTED_clean_linker_0, # of connection points: 2
#     Edge 102, Type (0, 0), BuildingBlock: XIVTED_clean_linker_0, # of connection points: 2
#     Edge 103, Type (0, 0), BuildingBlock: XIVTED_clean_linker_0, # of connection points: 2
#     Edge 104, Type (0, 0), BuildingBlock: XIVTED_clean_linker_0, # of connection points: 2
#     Edge 105, Type (0, 0), BuildingBlock: XIVTED_clean_linker_0, # of connection points: 2
#     Edge 106, Type (0, 0), BuildingBlock: XIVTED_clean_linker_0, # of connection points: 2
#     Edge 107, Type (0, 0), BuildingBlock: XIVTED_clean_linker_0, # of connection points: 2
#     Edge 108, Type (0, 0), BuildingBlock: XIVTED_clean_linker_0, # of connection points: 2
#     Edge 109, Type (0, 0), BuildingBlock: XIVTED_clean_linker_0, # of connection points: 2
#     Edge 110, Type (0, 0), BuildingBlock: XIVTED_clean_linker_0, # of connection points: 2
#     Edge 111, Type (0, 0), BuildingBlock: XIVTED_clean_linker_0, # of connection points: 2
#     Edge 112, Type (0, 0), BuildingBlock: XIVTED_clean_linker_0, # of connection points: 2
#     Edge 113, Type (0, 0), BuildingBlock: XIVTED_clean_linker_0, # of connection points: 2
#     Edge 114, Type (0, 0), BuildingBlock: XIVTED_clean_linker_0, # of connection points: 2
#     Edge 115, Type (0, 0), BuildingBlock: XIVTED_clean_linker_0, # of connection points: 2
#     Edge 116, Type (0, 0), BuildingBlock: XIVTED_clean_linker_0, # of connection points: 2
#     Edge 117, Type (0, 0), BuildingBlock: XIVTED_clean_linker_0, # of connection points: 2
#     Edge 118, Type (0, 0), BuildingBlock: XIVTED_clean_linker_0, # of connection points: 2
#     Edge 119, Type (0, 0), BuildingBlock: XIVTED_clean_linker_0, # of connection points: 2
#     Edge 120, Type (0, 0), BuildingBlock: XIVTED_clean_linker_0, # of connection points: 2
#     Edge 121, Type (0, 0), BuildingBlock: XIVTED_clean_linker_0, # of connection points: 2
#     Edge 122, Type (0, 0), BuildingBlock: XIVTED_clean_linker_0, # of connection points: 2
#     Edge 123, Type (0, 0), BuildingBlock: XIVTED_clean_linker_0, # of connection points: 2
#     Edge 124, Type (0, 0), BuildingBlock: XIVTED_clean_linker_0, # of connection points: 2
#     Edge 125, Type (0, 0), BuildingBlock: XIVTED_clean_linker_0, # of connection points: 2
#     Edge 126, Type (0, 0), BuildingBlock: XIVTED_clean_linker_0, # of connection points: 2
#     Edge 127, Type (0, 0), BuildingBlock: XIVTED_clean_linker_0, # of connection points: 2
#     Edge 128, Type (0, 0), BuildingBlock: XIVTED_clean_linker_0, # of connection points: 2
#     Edge 129, Type (0, 0), BuildingBlock: XIVTED_clean_linker_0, # of connection points: 2
#     Edge 130, Type (0, 0), BuildingBlock: XIVTED_clean_linker_0, # of connection points: 2
#     Edge 131, Type (0, 0), BuildingBlock: XIVTED_clean_linker_0, # of connection points: 2
#     Edge 132, Type (0, 0), BuildingBlock: XIVTED_clean_linker_0, # of connection points: 2
#     Edge 133, Type (0, 0), BuildingBlock: XIVTED_clean_linker_0, # of connection points: 2
#     Edge 134, Type (0, 0), BuildingBlock: XIVTED_clean_linker_0, # of connection points: 2
#     Edge 135, Type (0, 0), BuildingBlock: XIVTED_clean_linker_0, # of connection points: 2
#     Edge 136, Type (0, 0), BuildingBlock: XIVTED_clean_linker_0, # of connection points: 2
#     Edge 137, Type (0, 0), BuildingBlock: XIVTED_clean_linker_0, # of connection points: 2
#     Edge 138, Type (0, 0), BuildingBlock: XIVTED_clean_linker_0, # of connection points: 2
#     Edge 139, Type (0, 0), BuildingBlock: XIVTED_clean_linker_0, # of connection points: 2
#     Edge 140, Type (0, 0), BuildingBlock: XIVTED_clean_linker_0, # of connection points: 2
#     Edge 141, Type (0, 0), BuildingBlock: XIVTED_clean_linker_0, # of connection points: 2
#     Edge 142, Type (0, 0), BuildingBlock: XIVTED_clean_linker_0, # of connection points: 2
#     Edge 143, Type (0, 0), BuildingBlock: XIVTED_clean_linker_0, # of connection points: 2
# Relax obj value: 0.278
# Max RMSD: 0.282
# Mean RMSD: 0.282
data_MOF--net-wmv--node1-IZENUY_clean_sbu_0--edge1-XIVTED_clean_linker_0
_symmetry_space_group_name_H-M    P1
_symmetry_Int_Tables_number       1
_symmetry_cell_setting            triclinic
loop_
_symmetry_equiv_pos_as_xyz
'x, y, z'
_cell_length_a     79.591528
_cell_length_b     79.712547
_cell_length_c     29.405922
_cell_angle_alpha  89.959444
_cell_angle_beta   90.038507
_cell_angle_gamma 120.01893
loop_
_atom_site_label
_atom_site_type_symbol
_atom_site_fract_x
_atom_site_fract_y
_atom_site_fract_z
_atom_type_partial_charge
Fe0 Fe 0.07368 0.23107 0.0387 0.0
Fe1 Fe 0.11399 0.23511 0.05203 0.0
O2 O 0.08843 0.22171 0.05899 0.0
Fe3 Fe 0.07802 0.19894 0.08724 0.0
O4 O 0.05492 0.18769 0.0563 0.0
O5 O 0.05839 0.20939 0.00574 0.0
O6 O 0.08804 0.24109 0.98631 0.0
C7 C 0.10136 0.23895 0.96816 0.0
C8 C 0.05836 0.21557 0.12617 0.0
O9 O 0.11163 0.23401 0.99103 0.0
C10 C 0.11124 0.22255 0.13923 0.0
O11 O 0.08742 0.25401 0.06931 0.0
O12 O 0.11629 0.25895 0.0526 0.0
O13 O 0.06838 0.20747 0.13118 0.0
O14 O 0.05703 0.22226 0.08792 0.0
C15 C 0.10524 0.19668 0.03608 0.0
O16 O 0.11767 0.23711 0.11334 0.0
O17 O 0.09889 0.20592 0.12472 0.0
C18 C 0.10547 0.26526 0.06594 0.0
O19 O 0.11686 0.21382 0.04883 0.0
O20 O 0.08734 0.18893 0.0448 0.0
C21 C 0.04947 0.19224 0.02034 0.0
Fe22 Fe 0.8131 0.88135 0.09222 0.0
Fe23 Fe 0.7834 0.84665 0.03567 0.0
O24 O 0.79081 0.8694 0.0618 0.0
Fe25 Fe 0.77586 0.87994 0.05723 0.0
O26 O 0.79513 0.90173 0.03141 0.0
O27 O 0.8187 0.90614 0.07772 0.0
O28 O 0.82715 0.88196 0.04269 0.0
C29 C 0.82421 0.8669 0.02179 0.0
C30 C 0.78941 0.88782 0.14872 0.0
O31 O 0.80808 0.85135 0.02508 0.0
C32 C 0.7476 0.84214 0.06641 0.0
O33 O 0.81126 0.85871 0.11242 0.0
O34 O 0.78237 0.83547 0.09051 0.0
O35 O 0.78135 0.89061 0.11465 0.0
O36 O 0.80107 0.88158 0.14414 0.0
C37 C 0.77542 0.86547 0.96875 0.0
O38 O 0.75715 0.83744 0.04023 0.0
O39 O 0.75527 0.85896 0.08271 0.0
C40 C 0.7969 0.8417 0.11665 0.0
O41 O 0.78428 0.85665 0.97988 0.0
O42 O 0.76792 0.87119 -0.00126 0.0
C43 C 0.81185 0.91238 0.04751 0.0
Fe44 Fe 0.13963 0.93892 0.08157 0.0
Fe45 Fe 0.17397 0.93937 0.0334 0.0
O46 O 0.15047 0.92618 0.05768 0.0
Fe47 Fe 0.13804 0.90052 0.05835 0.0
O48 O 0.11738 0.89884 0.02814 0.0
O49 O 0.11441 0.92037 0.06838 0.0
O50 O 0.14056 0.95065 0.02771 0.0
C51 C 0.15642 0.9616 0.00777 0.0
C52 C 0.13058 0.91067 0.14562 0.0
O53 O 0.17118 0.95989 0.01539 0.0
C54 C 0.17484 0.90746 0.07388 0.0
O55 O 0.16272 0.95961 0.10009 0.0
O56 O 0.18451 0.95082 0.08787 0.0
O57 O 0.12668 0.89826 0.11441 0.0
O58 O 0.13833 0.92846 0.13665 0.0
C59 C 0.1548 0.91076 0.9704 0.0
O60 O 0.18124 0.92134 0.04592 0.0
O61 O 0.15767 0.89988 0.08833 0.0
C62 C 0.17887 0.96087 0.10917 0.0
O63 O 0.16471 0.92872 0.97819 0.0
O64 O 0.14725 0.89857 0.00249 0.0
C65 C 0.10746 0.90626 0.04094 0.0
Fe66 Fe 0.23296 0.06721 0.4503 0.0
Fe67 Fe 0.23763 0.10737 0.43304 0.0
O68 O 0.2239 0.08185 0.42797 0.0
Fe69 Fe 0.2011 0.07084 0.40004 0.0
O70 O 0.18848 0.05731 0.45069 0.0
O71 O 0.2088 0.04666 0.46365 0.0
O72 O 0.23323 0.07592 0.50746 0.0
C73 C 0.24141 0.09355 0.51884 0.0
C74 C 0.21828 0.04968 0.36857 0.0
O75 O 0.24748 0.10684 0.48911 0.0
C76 C 0.22321 0.10124 0.3432 0.0
O77 O 0.25883 0.0852 0.4417 0.0
O78 O 0.25819 0.10857 0.40376 0.0
O79 O 0.20322 0.05053 0.37809 0.0
O80 O 0.23307 0.05764 0.39395 0.0
C81 C 0.20138 0.10193 0.44777 0.0
O82 O 0.2301 0.11225 0.3775 0.0
O83 O 0.21235 0.08324 0.34783 0.0
C84 C 0.26714 0.10011 0.41663 0.0
O85 O 0.21823 0.10821 0.4631 0.0
O86 O 0.1949 0.08947 0.4162 0.0
C87 C 0.19255 0.04566 0.47026 0.0
Fe88 Fe 0.94699 0.1719 0.45949 0.0
Fe89 Fe 0.90676 0.13886 0.43219 0.0
O90 O 0.93228 0.14911 0.43308 0.0
Fe91 Fe 0.94332 0.13691 0.40727 0.0
O92 O 0.95474 0.13615 0.46008 0.0
O93 O 0.96637 0.16694 0.47571 0.0
O94 O 0.93594 0.16223 0.51415 0.0
C95 C 0.9179 0.15374 0.52158 0.0
C96 C 0.96754 0.17612 0.38223 0.0
O97 O 0.90575 0.14791 0.4891 0.0
C98 C 0.91542 0.13082 0.34406 0.0
O99 O 0.93038 0.18126 0.44944 0.0
O100 O 0.9084 0.15989 0.40382 0.0
O101 O 0.96502 0.15933 0.38933 0.0
O102 O 0.95877 0.18267 0.40559 0.0
C103 C 0.9092 0.10619 0.44733 0.0
O104 O 0.90339 0.12783 0.37557 0.0
O105 O 0.93306 0.13701 0.35262 0.0
C106 C 0.9169 0.17661 0.42086 0.0
O107 O 0.903 0.11714 0.46035 0.0
O108 O 0.92343 0.11226 0.42025 0.0
C109 C 0.96648 0.15123 0.48145 0.0
Fe110 Fe 0.88166 0.77837 0.44161 0.0
Fe111 Fe 0.8809 0.81436 0.40624 0.0
O112 O 0.86924 0.79145 0.43361 0.0
Fe113 Fe 0.84497 0.7817 0.45258 0.0
O114 O 0.85234 0.78189 0.51079 0.0
O115 O 0.87069 0.76885 0.49775 0.0
O116 O 0.9013 0.79823 0.47206 0.0
C117 C 0.91171 0.81508 0.45675 0.0
C118 C 0.84552 0.74797 0.42342 0.0
O119 O 0.90562 0.82143 0.42518 0.0
C120 C 0.84315 0.79607 0.36979 0.0
O121 O 0.8946 0.78575 0.38645 0.0
O122 O 0.88369 0.80364 0.35526 0.0
O123 O 0.83805 0.75613 0.44575 0.0
O124 O 0.86313 0.75721 0.41226 0.0
C125 C 0.8618 0.82187 0.47231 0.0
O126 O 0.85859 0.81138 0.38077 0.0
O127 O 0.83634 0.78117 0.39475 0.0
C128 C 0.89103 0.7929 0.35166 0.0
O129 O 0.87828 0.82652 0.456 0.0
O130 O 0.84727 0.80536 0.46391 0.0
C131 C 0.86194 0.77424 0.52504 0.0
Fe132 Fe 0.93767 0.81202 0.88963 0.0
Fe133 Fe 0.90266 0.77921 0.93722 0.0
O134 O 0.92797 0.79206 0.92749 0.0
Fe135 Fe 0.94323 0.78483 0.95484 0.0
O136 O 0.95849 0.80873 0.97952 0.0
O137 O 0.96132 0.82547 0.91793 0.0
O138 O 0.92898 0.82509 0.92479 0.0
C139 C 0.9111 0.81818 0.93273 0.0
C140 C 0.95772 0.79387 0.86405 0.0
O141 O 0.89941 0.8002 0.9285 0.0
C142 C 0.91155 0.74905 0.93793 0.0
O143 O 0.91605 0.80209 0.85315 0.0
O144 O 0.89781 0.77226 0.87764 0.0
O145 O 0.95957 0.79056 0.90552 0.0
O146 O 0.94667 0.80023 0.85239 0.0
C147 C 0.9166 0.78199 0.0235 0.0
O148 O 0.90079 0.75584 0.94859 0.0
O149 O 0.92951 0.76019 0.93243 0.0
C150 C 0.90311 0.78465 0.84616 0.0
O151 O 0.90629 0.78542 0.99663 0.0
O152 O 0.92934 0.77816 0.00872 0.0
C153 C 0.96748 0.82411 0.95661 0.0
Fe154 Fe 0.23369 0.16574 0.95259 0.0
Fe155 Fe 0.20459 0.13207 0.89297 0.0
O156 O 0.22609 0.14306 0.92614 0.0
Fe157 Fe 0.2402 0.13171 0.93272 0.0
O158 O 0.24716 0.14003 0.99185 0.0
O159 O 0.23111 0.15515 0.0083 0.0
O160 O 0.20915 0.16187 0.95935 0.0
C161 C 0.19264 0.14668 0.96104 0.0
C162 C 0.26945 0.16911 0.92629 0.0
O163 O 0.18965 0.13153 0.9405 0.0
C164 C 0.22893 0.12521 0.84006 0.0
O165 O 0.2365 0.17748 0.89782 0.0
O166 O 0.20781 0.15525 0.87216 0.0
O167 O 0.26159 0.15243 0.90915 0.0
O168 O 0.25981 0.17402 0.95156 0.0
C169 C 0.20393 0.09985 0.93744 0.0
O170 O 0.21782 0.13215 0.84312 0.0
O171 O 0.23543 0.12118 0.87518 0.0
C172 C 0.22297 0.17176 0.86892 0.0
O173 O 0.19782 0.10685 0.90719 0.0
O174 O 0.22008 0.1102 0.95644 0.0
C175 C 0.23937 0.14591 0.0207 0.0
Fe176 Fe 0.87895 0.07854 0.88511 0.0
Fe177 Fe 0.88052 0.11365 0.93067 0.0
O178 O 0.86895 0.08819 0.92367 0.0
Fe179 Fe 0.84768 0.07274 0.95507 0.0
O180 O 0.85842 0.05932 0.9796 0.0
O181 O 0.87121 0.05595 0.91666 0.0
O182 O 0.902 0.08941 0.91635 0.0
C183 C 0.91233 0.10753 0.92197 0.0
C184 C 0.8401 0.05599 0.86655 0.0
O185 O 0.90495 0.11826 0.91755 0.0
C186 C 0.84084 0.10251 0.93711 0.0
O187 O 0.88782 0.09901 0.84549 0.0
O188 O 0.87621 0.11707 0.87169 0.0
O189 O 0.83626 0.0549 0.90873 0.0
O190 O 0.85691 0.06739 0.8517 0.0
C191 C 0.87286 0.10107 0.01863 0.0
O192 O 0.85849 0.11418 0.94563 0.0
O193 O 0.83485 0.08467 0.93305 0.0
C194 C 0.8819 0.11091 0.83901 0.0
O195 O 0.88544 0.1114 0.98943 0.0
O196 O 0.8559 0.08803 0.00676 0.0
C197 C 0.86505 0.05056 0.9567 0.0
Fe198 Fe 0.81037 0.94093 0.59264 0.0
Fe199 Fe 0.7747 0.90455 0.55464 0.0
O200 O 0.78814 0.93 0.56222 0.0
Fe201 Fe 0.77922 0.94465 0.53931 0.0
O202 O 0.80318 0.96585 0.53067 0.0
O203 O 0.82394 0.95598 0.54424 0.0
O204 O 0.81764 0.92325 0.57485 0.0
C205 C 0.81142 0.91051 0.54382 0.0
C206 C 0.79144 0.96086 0.62323 0.0
O207 O 0.79478 0.90425 0.52707 0.0
C208 C 0.74477 0.91139 0.56856 0.0
O209 O 0.79844 0.92719 0.64306 0.0
O210 O 0.781 0.8987 0.61063 0.0
O211 O 0.77734 0.95308 0.59567 0.0
O212 O 0.8068 0.96012 0.61674 0.0
C213 C 0.77342 0.9199 0.46884 0.0
O214 O 0.75353 0.90284 0.58193 0.0
O215 O 0.7533 0.92617 0.54329 0.0
C216 C 0.78767 0.9091 0.64591 0.0
O217 O 0.76615 0.90597 0.49707 0.0
O218 O 0.78112 0.93724 0.48221 0.0
C219 C 0.81984 0.96778 0.52567 0.0
Fe220 Fe 0.07875 0.87795 0.60975 0.0
Fe221 Fe 0.11341 0.88041 0.55953 0.0
O222 O 0.08807 0.86832 0.56935 0.0
Fe223 Fe 0.07243 0.84683 0.5389 0.0
O224 O 0.05815 0.85704 0.51644 0.0
O225 O 0.05564 0.86987 0.58035 0.0
O226 O 0.08859 0.90093 0.57891 0.0
C227 C 0.10655 0.91157 0.57171 0.0
C228 C 0.05686 0.83919 0.62875 0.0
O229 O 0.11769 0.90458 0.57365 0.0
C230 C 0.10322 0.84113 0.55314 0.0
O231 O 0.09993 0.88715 0.64731 0.0
O232 O 0.11815 0.87634 0.61768 0.0
O233 O 0.05533 0.83527 0.58659 0.0
O234 O 0.06853 0.85598 0.64308 0.0
C235 C 0.09929 0.87213 0.47298 0.0
O236 O 0.11424 0.85874 0.54321 0.0
O237 O 0.08532 0.83464 0.55912 0.0
C238 C 0.1123 0.88167 0.65164 0.0
O239 O 0.10979 0.88504 0.50138 0.0
O240 O 0.08684 0.85512 0.48588 0.0
C241 C 0.04975 0.86373 0.54055 0.0
Fe242 Fe 0.13446 0.20237 0.6051 0.0
Fe243 Fe 0.13325 0.2352 0.55521 0.0
O244 O 0.14516 0.222 0.56651 0.0
Fe245 Fe 0.16755 0.22858 0.5395 0.0
O246 O 0.15812 0.20456 0.51522 0.0
O247 O 0.1438 0.1881 0.57702 0.0
O248 O 0.11246 0.18952 0.57062 0.0
C249 C 0.10186 0.1968 0.56262 0.0
C250 C 0.17267 0.21954 0.63045 0.0
O251 O 0.10877 0.21491 0.56523 0.0
C252 C 0.17259 0.26465 0.55477 0.0
O253 O 0.12358 0.21332 0.64096 0.0
O254 O 0.1357 0.24296 0.61416 0.0
O255 O 0.17781 0.22245 0.58897 0.0
O256 O 0.15538 0.21388 0.64197 0.0
C257 C 0.14398 0.23087 0.47001 0.0
O258 O 0.15522 0.25806 0.54246 0.0
O259 O 0.17903 0.25328 0.56176 0.0
C260 C 0.12845 0.23096 0.6464 0.0
O261 O 0.13028 0.22794 0.49643 0.0
O262 O 0.16071 0.23548 0.48531 0.0
C263 C 0.15092 0.18908 0.53796 0.0
Fe264 Fe 0.74444 0.53695 0.42942 0.0
Fe265 Fe 0.74227 0.56884 0.37609 0.0
O266 O 0.75625 0.55936 0.39992 0.0
Fe267 Fe 0.78184 0.57223 0.39444 0.0
O268 O 0.78181 0.55194 0.36684 0.0
O269 O 0.76238 0.52956 0.41483 0.0
O270 O 0.7305 0.52396 0.37928 0.0
C271 C 0.71895 0.52827 0.35996 0.0
C272 C 0.77525 0.55891 0.4856 0.0
O273 O 0.72109 0.54504 0.36469 0.0
C274 C 0.77592 0.60281 0.40702 0.0
O275 O 0.72457 0.54024 0.45022 0.0
O276 O 0.73294 0.57018 0.43186 0.0
O277 O 0.78634 0.56532 0.45123 0.0
O278 O 0.75713 0.54853 0.48108 0.0
C279 C 0.76813 0.57519 0.30759 0.0
O280 O 0.76089 0.59445 0.38244 0.0
O281 O 0.78408 0.59374 0.4211 0.0
C282 C 0.72362 0.55544 0.45681 0.0
O283 O 0.7506 0.56782 0.3194 0.0
O284 O 0.78159 0.5812 0.33698 0.0
C285 C 0.77496 0.53527 0.3835 0.0
Fe286 Fe 0.47636 0.20951 0.43735 0.0
Fe287 Fe 0.44808 0.1768 0.37455 0.0
O288 O 0.45592 0.19953 0.40075 0.0
Fe289 Fe 0.44343 0.21236 0.39052 0.0
O290 O 0.46513 0.23301 0.36809 0.0
O291 O 0.48416 0.23504 0.42436 0.0
O292 O 0.4923 0.21022 0.39234 0.0
C293 C 0.48928 0.19541 0.37013 0.0
C294 C 0.45147 0.21704 0.48479 0.0
O295 O 0.47264 0.18027 0.36955 0.0
C296 C 0.41258 0.17555 0.3966 0.0
O297 O 0.47233 0.18604 0.45762 0.0
O298 O 0.44406 0.16461 0.42913 0.0
O299 O 0.44754 0.22287 0.44829 0.0
O300 O 0.46161 0.20898 0.48431 0.0
C301 C 0.44457 0.19735 0.30427 0.0
O302 O 0.42205 0.16933 0.3745 0.0
O303 O 0.42086 0.19262 0.41176 0.0
C304 C 0.45702 0.16968 0.45917 0.0
O305 O 0.45187 0.18752 0.31861 0.0
O306 O 0.43702 0.20406 0.33133 0.0
C307 C 0.48066 0.24246 0.39011 0.0
Fe308 Fe 0.80318 0.27257 0.4237 0.0
Fe309 Fe 0.83758 0.27766 0.36667 0.0
O310 O 0.81488 0.26229 0.39257 0.0
Fe311 Fe 0.80411 0.23681 0.38771 0.0
O312 O 0.7824 0.23462 0.36217 0.0
O313 O 0.77823 0.25304 0.411 0.0
O314 O 0.80192 0.2857 0.37426 0.0
C315 C 0.81688 0.29775 0.35268 0.0
C316 C 0.79762 0.24271 0.47952 0.0
O317 O 0.83264 0.29751 0.35623 0.0
C318 C 0.84189 0.24616 0.3965 0.0
O319 O 0.82587 0.29366 0.44267 0.0
O320 O 0.84886 0.28765 0.42149 0.0
O321 O 0.79341 0.23164 0.44528 0.0
O322 O 0.80411 0.26062 0.47484 0.0
C323 C 0.81882 0.25107 0.29967 0.0
O324 O 0.84673 0.26062 0.37093 0.0
O325 O 0.82504 0.23697 0.41285 0.0
C326 C 0.84272 0.29598 0.44757 0.0
O327 O 0.8275 0.26865 0.31123 0.0
O328 O 0.81288 0.23766 0.32919 0.0
C329 C 0.77172 0.2402 0.38023 0.0
Fe330 Fe 0.90165 0.40113 0.79009 0.0
Fe331 Fe 0.90747 0.44148 0.76931 0.0
O332 O 0.89275 0.41593 0.76746 0.0
Fe333 Fe 0.86925 0.4049 0.74283 0.0
O334 O 0.8577 0.392 0.79485 0.0
O335 O 0.87764 0.38086 0.8052 0.0
O336 O 0.90289 0.41076 0.84664 0.0
C337 C 0.91176 0.42863 0.85619 0.0
C338 C 0.88565 0.38312 0.70968 0.0
O339 O 0.91779 0.44144 0.82519 0.0
C340 C 0.88994 0.43434 0.68186 0.0
O341 O 0.9275 0.41849 0.78016 0.0
O342 O 0.92709 0.44113 0.73905 0.0
O343 O 0.87084 0.38434 0.72013 0.0
O344 O 0.90076 0.3909 0.73414 0.0
C345 C 0.872 0.43786 0.78773 0.0
O346 O 0.89947 0.44581 0.71391 0.0
O347 O 0.87881 0.41656 0.68906 0.0
C348 C 0.93593 0.43282 0.75361 0.0
O349 O 0.88931 0.44418 0.79977 0.0
O350 O 0.86375 0.42382 0.76024 0.0
C351 C 0.8616 0.38004 0.81306 0.0
Fe352 Fe 0.61571 0.50122 0.79115 0.0
Fe353 Fe 0.57473 0.46668 0.77589 0.0
O354 O 0.60014 0.47793 0.76715 0.0
Fe355 Fe 0.61021 0.46618 0.73495 0.0
O356 O 0.6257 0.46719 0.78163 0.0
O357 O 0.63671 0.49781 0.79779 0.0
O358 O 0.60848 0.49154 0.84816 0.0
C359 C 0.59118 0.48232 0.86225 0.0
C360 C 0.63069 0.50532 0.70566 0.0
O361 O 0.577 0.47592 0.83463 0.0
C362 C 0.57797 0.45778 0.68336 0.0
O363 O 0.59784 0.50956 0.78982 0.0
O364 O 0.5736 0.48686 0.75147 0.0
O365 O 0.62936 0.48886 0.71027 0.0
O366 O 0.62384 0.51188 0.73501 0.0
C367 C 0.57953 0.43494 0.78395 0.0
O368 O 0.56803 0.4555 0.71891 0.0
O369 O 0.59597 0.46424 0.68535 0.0
C370 C 0.58248 0.50383 0.7668 0.0
O371 O 0.57353 0.44547 0.80093 0.0
O372 O 0.59242 0.44137 0.75324 0.0
C373 C 0.63808 0.48271 0.80046 0.0
Fe374 Fe 0.51104 0.10967 0.78461 0.0
Fe375 Fe 0.54571 0.10349 0.76924 0.0
O376 O 0.53388 0.11687 0.75892 0.0
Fe377 Fe 0.54514 0.13727 0.72257 0.0
O378 O 0.53546 0.15094 0.75165 0.0
O379 O 0.51986 0.1333 0.81112 0.0
O380 O 0.51723 0.10186 0.83829 0.0
C381 C 0.53373 0.10606 0.85434 0.0
C382 C 0.5072 0.12065 0.69452 0.0
O383 O 0.5478 0.10953 0.82863 0.0
C384 C 0.55159 0.10949 0.67875 0.0
O385 O 0.49997 0.08535 0.75992 0.0
O386 O 0.52367 0.08042 0.77909 0.0
O387 O 0.52468 0.12666 0.684 0.0
O388 O 0.50142 0.11656 0.7354 0.0
C389 C 0.57723 0.14196 0.76645 0.0
O390 O 0.54404 0.0969 0.70966 0.0
O391 O 0.55645 0.12701 0.68597 0.0
C392 C 0.50664 0.07406 0.76463 0.0
O393 O 0.57036 0.12393 0.76184 0.0
O394 O 0.5667 0.14937 0.75889 0.0
C395 C 0.52739 0.14918 0.78978 0.0
Fe396 Fe 0.60795 0.11343 0.28447 0.0
Fe397 Fe 0.60295 0.14365 0.22987 0.0
O398 O 0.5929 0.12209 0.2625 0.0
Fe399 Fe 0.56749 0.10924 0.27198 0.0
O400 O 0.57092 0.11221 0.33267 0.0
O401 O 0.59435 0.10493 0.33807 0.0
O402 O 0.62385 0.13618 0.31373 0.0
C403 C 0.63281 0.15247 0.29448 0.0
C404 C 0.57566 0.07864 0.26262 0.0
O405 O 0.62666 0.15542 0.25753 0.0
C406 C 0.56867 0.11909 0.18302 0.0
O407 O 0.62389 0.12075 0.23408 0.0
O408 O 0.61126 0.13317 0.18723 0.0
O409 O 0.56505 0.08533 0.27526 0.0
O410 O 0.59368 0.08969 0.25762 0.0
C411 C 0.57709 0.14853 0.27941 0.0
O412 O 0.5814 0.13597 0.19483 0.0
O413 O 0.56262 0.10528 0.21108 0.0
C414 C 0.62177 0.12572 0.19436 0.0
O415 O 0.5949 0.15538 0.27081 0.0
O416 O 0.56501 0.13089 0.27141 0.0
C417 C 0.58138 0.10765 0.35601 0.0
Fe418 Fe 0.89926 0.4979 0.28721 0.0
Fe419 Fe 0.87216 0.46618 0.21973 0.0
O420 O 0.8919 0.47573 0.25816 0.0
Fe421 Fe 0.90434 0.4628 0.26744 0.0
O422 O 0.89717 0.45936 0.32624 0.0
O423 O 0.90555 0.48978 0.34033 0.0
O424 O 0.87528 0.48913 0.31167 0.0
C425 C 0.85978 0.4826 0.28906 0.0
C426 C 0.93486 0.50165 0.26971 0.0
O427 O 0.85851 0.4757 0.24967 0.0
C428 C 0.90011 0.46001 0.17576 0.0
O429 O 0.89386 0.50942 0.23906 0.0
O430 O 0.88417 0.48755 0.18448 0.0
O431 O 0.92774 0.48409 0.28086 0.0
O432 O 0.92398 0.50882 0.265 0.0
C433 C 0.86544 0.43262 0.25986 0.0
O434 O 0.88258 0.45552 0.18175 0.0
O435 O 0.91198 0.46557 0.20846 0.0
C436 C 0.89069 0.5048 0.19731 0.0
O437 O 0.85874 0.44379 0.2527 0.0
O438 O 0.88342 0.43884 0.25616 0.0
C439 C 0.90035 0.4727 0.35399 0.0
Fe440 Fe 0.51344 0.40079 0.29029 0.0
Fe441 Fe 0.54972 0.40677 0.23884 0.0
O442 O 0.53709 0.41658 0.26824 0.0
Fe443 Fe 0.54776 0.44194 0.27609 0.0
O444 O 0.5375 0.43965 0.33388 0.0
O445 O 0.52218 0.40826 0.34773 0.0
O446 O 0.51725 0.38017 0.2992 0.0
C447 C 0.53256 0.37934 0.30477 0.0
C448 C 0.51035 0.43305 0.26139 0.0
O449 O 0.54832 0.39186 0.28706 0.0
C450 C 0.55841 0.43846 0.18527 0.0
O451 O 0.50384 0.3924 0.23336 0.0
O452 O 0.5276 0.38717 0.2132 0.0
O453 O 0.52769 0.44233 0.24848 0.0
O454 O 0.50465 0.41826 0.28635 0.0
C455 C 0.57986 0.43802 0.28879 0.0
O456 O 0.55214 0.42055 0.18813 0.0
O457 O 0.55989 0.44852 0.22007 0.0
C458 C 0.51118 0.38566 0.20577 0.0
O459 O 0.57409 0.42501 0.25853 0.0
O460 O 0.56883 0.44379 0.30389 0.0
C461 C 0.53122 0.42555 0.36171 0.0
Fe462 Fe 0.4805 0.27093 0.9237 0.0
Fe463 Fe 0.44291 0.23457 0.89238 0.0
O464 O 0.45753 0.26009 0.89631 0.0
Fe465 Fe 0.44909 0.27502 0.87269 0.0
O466 O 0.47327 0.29535 0.86033 0.0
O467 O 0.49317 0.28433 0.87262 0.0
O468 O 0.48622 0.252 0.90761 0.0
C469 C 0.47883 0.23852 0.87848 0.0
C470 C 0.46403 0.29356 0.95273 0.0
O471 O 0.46187 0.23234 0.86384 0.0
C472 C 0.41424 0.2432 0.90558 0.0
O473 O 0.46983 0.25876 0.97656 0.0
O474 O 0.44975 0.22979 0.94857 0.0
O475 O 0.4489 0.28487 0.92854 0.0
O476 O 0.47862 0.29151 0.9455 0.0
C477 C 0.44022 0.24839 0.8052 0.0
O478 O 0.42259 0.23451 0.92071 0.0
O479 O 0.42313 0.25757 0.87945 0.0
C480 C 0.45843 0.24087 0.98186 0.0
O481 O 0.43371 0.23516 0.83526 0.0
O482 O 0.44909 0.26607 0.81618 0.0
C483 C 0.48951 0.29644 0.85401 0.0
Fe484 Fe 0.73647 0.17733 0.86619 0.0
Fe485 Fe 0.74174 0.21095 0.92818 0.0
O486 O 0.75167 0.1995 0.8949 0.0
Fe487 Fe 0.77719 0.21044 0.89113 0.0
O488 O 0.77629 0.21351 0.83081 0.0
O489 O 0.75254 0.18383 0.8159 0.0
O490 O 0.72364 0.18745 0.83597 0.0
C491 C 0.71494 0.19524 0.85445 0.0
C492 C 0.7657 0.17096 0.895 0.0
O493 O 0.71974 0.2026 0.89372 0.0
C494 C 0.77344 0.21543 0.98084 0.0
O495 O 0.71798 0.16755 0.91157 0.0
O496 O 0.72981 0.19006 0.96487 0.0
O497 O 0.77766 0.18805 0.88329 0.0
O498 O 0.74774 0.16492 0.89425 0.0
C499 C 0.77168 0.24293 0.89027 0.0
O500 O 0.76164 0.22102 0.96975 0.0
O501 O 0.77923 0.20779 0.95188 0.0
C502 C 0.71856 0.17282 0.95256 0.0
O503 O 0.75342 0.23298 0.89357 0.0
O504 O 0.78198 0.23526 0.89786 0.0
C505 C 0.76639 0.20016 0.80279 0.0
Fe506 Fe 0.8088 0.53856 0.93149 0.0
Fe507 Fe 0.80494 0.57256 0.89467 0.0
O508 O 0.8185 0.56059 0.90064 0.0
Fe509 Fe 0.84191 0.57068 0.87609 0.0
O510 O 0.84022 0.5472 0.86604 0.0
O511 O 0.81008 0.52541 0.88219 0.0
O512 O 0.7832 0.53009 0.91711 0.0
C513 C 0.77572 0.53502 0.88551 0.0
C514 C 0.84814 0.55892 0.95827 0.0
O515 O 0.78491 0.55161 0.86793 0.0
C516 C 0.84117 0.60404 0.90661 0.0
O517 O 0.8074 0.55033 0.98244 0.0
O518 O 0.79375 0.56575 0.95166 0.0
O519 O 0.85311 0.57307 0.93161 0.0
O520 O 0.83244 0.54312 0.95239 0.0
C521 C 0.82134 0.57541 0.80758 0.0
O522 O 0.82394 0.59453 0.92073 0.0
O523 O 0.84801 0.59612 0.88118 0.0
C524 C 0.799 0.56008 0.98639 0.0
O525 O 0.81378 0.58133 0.83685 0.0
O526 O 0.83203 0.56868 0.81956 0.0
C527 C 0.82593 0.53013 0.86235 0.0
Fe528 Fe 0.41101 0.86559 0.76792 0.0
Fe529 Fe 0.40611 0.89359 0.70396 0.0
O530 O 0.4211 0.88638 0.73269 0.0
Fe531 Fe 0.44657 0.90003 0.72664 0.0
O532 O 0.45056 0.87948 0.73507 0.0
O533 O 0.42137 0.85402 0.73304 0.0
O534 O 0.38831 0.852 0.73563 0.0
C535 C 0.38334 0.85412 0.69612 0.0
C536 C 0.44382 0.893 0.81715 0.0
O537 O 0.39235 0.87024 0.67611 0.0
C538 C 0.43649 0.92934 0.72659 0.0
O539 O 0.40032 0.87587 0.80455 0.0
O540 O 0.38831 0.88621 0.75072 0.0
O541 O 0.44961 0.9059 0.78681 0.0
O542 O 0.43162 0.8755 0.80779 0.0
C543 C 0.4346 0.89822 0.63886 0.0
O544 O 0.41848 0.91778 0.72938 0.0
O545 O 0.44779 0.92315 0.71631 0.0
C546 C 0.38928 0.88211 0.79206 0.0
O547 O 0.42149 0.90177 0.65232 0.0
O548 O 0.44457 0.8948 0.6668 0.0
C549 C 0.43947 0.8616 0.72762 0.0
Fe550 Fe 0.14808 0.54501 0.75345 0.0
Fe551 Fe 0.11557 0.50811 0.70917 0.0
O552 O 0.12428 0.53196 0.7305 0.0
Fe553 Fe 0.10905 0.54228 0.7294 0.0
O554 O 0.12656 0.56332 0.69821 0.0
O555 O 0.15283 0.56915 0.73557 0.0
O556 O 0.15918 0.54348 0.70073 0.0
C557 C 0.15532 0.52749 0.68329 0.0
C558 C 0.12739 0.55326 0.8158 0.0
O559 O 0.13956 0.51221 0.69265 0.0
C560 C 0.08128 0.50501 0.7469 0.0
O561 O 0.14732 0.52329 0.7765 0.0
O562 O 0.11738 0.4995 0.76537 0.0
O563 O 0.11731 0.55478 0.78442 0.0
O564 O 0.13901 0.54726 0.80777 0.0
C565 C 0.10408 0.52434 0.64314 0.0
O566 O 0.08974 0.49914 0.72048 0.0
O567 O 0.08993 0.52225 0.76066 0.0
C568 C 0.13285 0.5073 0.78855 0.0
O569 O 0.11337 0.51575 0.65259 0.0
O570 O 0.09843 0.53155 0.67399 0.0
C571 C 0.14389 0.57467 0.70947 0.0
Fe572 Fe 0.46908 0.60222 0.75437 0.0
Fe573 Fe 0.50536 0.60543 0.70931 0.0
O574 O 0.48155 0.59085 0.73169 0.0
Fe575 Fe 0.47067 0.56526 0.73196 0.0
O576 O 0.44957 0.56191 0.70114 0.0
O577 O 0.44463 0.583 0.73802 0.0
O578 O 0.47037 0.61422 0.7009 0.0
C579 C 0.48628 0.62598 0.68243 0.0
C580 C 0.46073 0.57384 0.81832 0.0
O581 O 0.50154 0.62538 0.69153 0.0
C582 C 0.50798 0.57439 0.74938 0.0
O583 O 0.49122 0.62323 0.77571 0.0
O584 O 0.5145 0.61639 0.76481 0.0
O585 O 0.45856 0.56183 0.78741 0.0
O586 O 0.46712 0.59145 0.80936 0.0
C587 C 0.48824 0.57712 0.64481 0.0
O588 O 0.51397 0.58838 0.7218 0.0
O589 O 0.4907 0.56604 0.76303 0.0
C590 C 0.50715 0.62455 0.78759 0.0
O591 O 0.49725 0.59507 0.65338 0.0
O592 O 0.4809 0.56456 0.67634 0.0
C593 C 0.43867 0.56845 0.71212 0.0
Fe594 Fe 0.56846 0.73192 0.12796 0.0
Fe595 Fe 0.57409 0.77211 0.10629 0.0
O596 O 0.55962 0.74651 0.10438 0.0
Fe597 Fe 0.53636 0.73518 0.07863 0.0
O598 O 0.52442 0.72275 0.1309 0.0
O599 O 0.54433 0.71166 0.143 0.0
O600 O 0.56917 0.74151 0.18356 0.0
C601 C 0.57792 0.75923 0.19397 0.0
C602 C 0.5525 0.71232 0.04995 0.0
O603 O 0.58388 0.77235 0.16357 0.0
C604 C 0.55774 0.76423 0.01749 0.0
O605 O 0.59437 0.74939 0.11911 0.0
O606 O 0.59422 0.77203 0.07747 0.0
O607 O 0.53794 0.71426 0.0584 0.0
O608 O 0.56799 0.72143 0.0726 0.0
C609 C 0.53834 0.76831 0.12086 0.0
O610 O 0.5665 0.776 0.04973 0.0
O611 O 0.54661 0.74644 0.02492 0.0
C612 C 0.6029 0.76364 0.09243 0.0
O613 O 0.55539 0.77462 0.13491 0.0
O614 O 0.53065 0.75424 0.09333 0.0
C615 C 0.52828 0.71095 0.15031 0.0
Fe616 Fe 0.27493 0.82786 0.11898 0.0
Fe617 Fe 0.23508 0.79194 0.10039 0.0
O618 O 0.26067 0.80446 0.09469 0.0
Fe619 Fe 0.27149 0.79316 0.06413 0.0
O620 O 0.29407 0.80395 0.097 0.0
O621 O 0.29007 0.82082 0.15054 0.0
O622 O 0.25967 0.82182 0.17043 0.0
C623 C 0.24658 0.80561 0.18607 0.0
C624 C 0.29187 0.83064 0.03205 0.0
O625 O 0.23724 0.79105 0.16074 0.0
C626 C 0.23841 0.78491 0.01211 0.0
O627 O 0.26142 0.83764 0.08976 0.0
O628 O 0.2326 0.81339 0.10504 0.0
O629 O 0.28184 0.81277 0.02342 0.0
O630 O 0.29235 0.83728 0.07154 0.0
C631 C 0.24347 0.76156 0.10801 0.0
O632 O 0.23191 0.79241 0.03961 0.0
O633 O 0.25113 0.78071 0.02448 0.0
C634 C 0.24338 0.83078 0.09343 0.0
O635 O 0.23204 0.76763 0.09777 0.0
O636 O 0.26156 0.77242 0.10302 0.0
C637 C 0.29933 0.81325 0.13397 0.0
Fe638 Fe 0.17883 0.44476 0.12794 0.0
Fe639 Fe 0.21376 0.43914 0.11014 0.0
O640 O 0.20247 0.4534 0.10584 0.0
Fe641 Fe 0.21466 0.47638 0.07892 0.0
O642 O 0.21417 0.48881 0.13031 0.0
O643 O 0.18303 0.46901 0.14255 0.0
O644 O 0.18702 0.44388 0.18445 0.0
C645 C 0.19595 0.43522 0.19606 0.0
C646 C 0.17587 0.46077 0.04914 0.0
O647 O 0.20352 0.42935 0.16668 0.0
C648 C 0.22218 0.45421 0.02048 0.0
O649 O 0.17025 0.41886 0.11868 0.0
O650 O 0.19397 0.4189 0.08093 0.0
O651 O 0.19241 0.47515 0.05783 0.0
O652 O 0.16928 0.44533 0.07193 0.0
C653 C 0.24532 0.47497 0.12491 0.0
O654 O 0.22586 0.44655 0.0541 0.0
O655 O 0.21543 0.46537 0.02623 0.0
C656 C 0.17652 0.41032 0.09357 0.0
O657 O 0.23449 0.45814 0.13997 0.0
O658 O 0.23937 0.48188 0.09425 0.0
C659 C 0.19847 0.48501 0.14967 0.0
Fe660 Fe 0.2756 0.44374 0.628 0.0
Fe661 Fe 0.27033 0.47242 0.56696 0.0
O662 O 0.26045 0.45121 0.60091 0.0
Fe663 Fe 0.23498 0.43726 0.6071 0.0
O664 O 0.23706 0.44184 0.66722 0.0
O665 O 0.26037 0.435 0.67988 0.0
O666 O 0.28945 0.46671 0.65705 0.0
C667 C 0.29833 0.48304 0.638 0.0
C668 C 0.2453 0.40833 0.60275 0.0
O669 O 0.29295 0.48579 0.59959 0.0
C670 C 0.23758 0.44529 0.51712 0.0
O671 O 0.29326 0.45161 0.58084 0.0
O672 O 0.28131 0.46283 0.52901 0.0
O673 O 0.23393 0.4141 0.61536 0.0
O674 O 0.26329 0.41994 0.60098 0.0
C675 C 0.24148 0.47565 0.60728 0.0
O676 O 0.24977 0.4627 0.52716 0.0
O677 O 0.23188 0.43206 0.54662 0.0
C678 C 0.2923 0.45634 0.54007 0.0
O679 O 0.25965 0.48346 0.60269 0.0
O680 O 0.23071 0.45767 0.60054 0.0
C681 C 0.24722 0.43832 0.69434 0.0
Fe682 Fe 0.56397 0.82803 0.62393 0.0
Fe683 Fe 0.53692 0.79454 0.55981 0.0
O684 O 0.55743 0.80587 0.59596 0.0
Fe685 Fe 0.57165 0.79476 0.60364 0.0
O686 O 0.56535 0.79107 0.66286 0.0
O687 O 0.57168 0.82095 0.67677 0.0
O688 O 0.54036 0.81817 0.65035 0.0
C689 C 0.5242 0.81015 0.63031 0.0
C690 C 0.60031 0.83426 0.60538 0.0
O691 O 0.52233 0.80269 0.59133 0.0
C692 C 0.56592 0.79097 0.51275 0.0
O693 O 0.55692 0.83827 0.5759 0.0
O694 O 0.54673 0.81546 0.52333 0.0
O695 O 0.59431 0.81689 0.61622 0.0
O696 O 0.58845 0.84017 0.59985 0.0
C697 C 0.53378 0.76234 0.59894 0.0
O698 O 0.54811 0.7849 0.52081 0.0
O699 O 0.57844 0.79817 0.544 0.0
C700 C 0.55294 0.83282 0.53475 0.0
O701 O 0.52566 0.77237 0.59402 0.0
O702 O 0.55189 0.77003 0.59345 0.0
C703 C 0.56799 0.80427 0.69059 0.0
Fe704 Fe 0.17859 0.73757 0.61896 0.0
Fe705 Fe 0.21367 0.74195 0.56388 0.0
O706 O 0.20197 0.75226 0.59468 0.0
Fe707 Fe 0.21406 0.7778 0.60101 0.0
O708 O 0.21527 0.77524 0.66115 0.0
O709 O 0.18446 0.75274 0.67054 0.0
O710 O 0.18615 0.72286 0.6504 0.0
C711 C 0.19425 0.7141 0.63394 0.0
C712 C 0.17519 0.76867 0.59192 0.0
O713 O 0.20353 0.71952 0.59696 0.0
C714 C 0.22026 0.77436 0.51222 0.0
O715 O 0.16941 0.72011 0.57156 0.0
O716 O 0.19396 0.73111 0.52342 0.0
O717 O 0.19217 0.77955 0.60638 0.0
O718 O 0.16843 0.75065 0.58948 0.0
C719 C 0.24522 0.77045 0.60705 0.0
O720 O 0.22539 0.76231 0.52424 0.0
O721 O 0.21326 0.78113 0.54041 0.0
C722 C 0.17613 0.7207 0.53209 0.0
O723 O 0.23458 0.75236 0.60237 0.0
O724 O 0.23867 0.78154 0.59738 0.0
C725 C 0.20098 0.76498 0.68659 0.0
Fe726 Fe 0.14286 0.59851 0.27817 0.0
Fe727 Fe 0.10987 0.56299 0.23208 0.0
O728 O 0.12292 0.58841 0.24028 0.0
Fe729 Fe 0.11587 0.60331 0.21053 0.0
O730 O 0.13972 0.61762 0.18502 0.0
O731 O 0.15709 0.62112 0.24619 0.0
O732 O 0.15554 0.58841 0.2464 0.0
C733 C 0.14832 0.57042 0.24071 0.0
C734 C 0.12568 0.62004 0.29892 0.0
O735 O 0.13025 0.5592 0.24423 0.0
C736 C 0.08007 0.57223 0.23 0.0
O737 O 0.13184 0.57792 0.3176 0.0
O738 O 0.1023 0.55881 0.29106 0.0
O739 O 0.12215 0.62093 0.2572 0.0
O740 O 0.13175 0.60906 0.31259 0.0
C741 C 0.11389 0.57628 0.1451 0.0
O742 O 0.0868 0.56153 0.21825 0.0
O743 O 0.09126 0.59026 0.23396 0.0
C744 C 0.11416 0.56529 0.32374 0.0
O745 O 0.11701 0.56615 0.17318 0.0
O746 O 0.10883 0.58829 0.15846 0.0
C747 C 0.15561 0.62626 0.20634 0.0
Fe748 Fe 0.41301 0.54241 0.28204 0.0
Fe749 Fe 0.44791 0.54457 0.23351 0.0
O750 O 0.42253 0.53249 0.2429 0.0
Fe751 Fe 0.40705 0.51069 0.21334 0.0
O752 O 0.39267 0.52049 0.1894 0.0
O753 O 0.3899 0.53393 0.25202 0.0
O754 O 0.42292 0.56516 0.25011 0.0
C755 C 0.44093 0.5758 0.24345 0.0
C756 C 0.39132 0.50378 0.30296 0.0
O757 O 0.45205 0.5688 0.24619 0.0
C758 C 0.43792 0.5053 0.2292 0.0
O759 O 0.43409 0.55199 0.32004 0.0
O760 O 0.45247 0.54099 0.29225 0.0
O761 O 0.38989 0.49944 0.26106 0.0
O762 O 0.40276 0.52076 0.31652 0.0
C763 C 0.4339 0.53557 0.14689 0.0
O764 O 0.44894 0.52283 0.21867 0.0
O765 O 0.42003 0.49885 0.23511 0.0
C766 C 0.44646 0.54657 0.32549 0.0
O767 O 0.44441 0.5487 0.17485 0.0
O768 O 0.42156 0.51861 0.16039 0.0
C769 C 0.38404 0.52721 0.21254 0.0
Fe770 Fe 0.47124 0.86668 0.25238 0.0
Fe771 Fe 0.47154 0.90402 0.22249 0.0
O772 O 0.48316 0.89004 0.22705 0.0
Fe773 Fe 0.5072 0.89956 0.20667 0.0
O774 O 0.50462 0.8759 0.19391 0.0
O775 O 0.47359 0.8551 0.20115 0.0
O776 O 0.44652 0.86021 0.2339 0.0
C777 C 0.44019 0.868 0.20641 0.0
C778 C 0.5095 0.88425 0.28736 0.0
O779 O 0.45092 0.88509 0.19282 0.0
C780 C 0.50833 0.93352 0.23918 0.0
O781 O 0.46848 0.87647 0.30499 0.0
O782 O 0.4593 0.89649 0.27817 0.0
O783 O 0.51606 0.89954 0.26384 0.0
O784 O 0.49368 0.86917 0.27681 0.0
C785 C 0.48963 0.90762 0.1369 0.0
O786 O 0.49097 0.92446 0.25214 0.0
O787 O 0.51486 0.92527 0.21411 0.0
C788 C 0.46182 0.88768 0.31108 0.0
O789 O 0.48189 0.91362 0.16572 0.0
O790 O 0.49922 0.89971 0.14943 0.0
C791 C 0.49001 0.85955 0.18502 0.0
H792 H 0.13857 0.21096 0.98908 0.0
H793 H 0.15316 0.12359 0.94432 0.0
H794 H 0.09204 0.15715 0.04199 0.0
H795 H 0.19489 0.1747 0.01689 0.0
H796 H 0.1281 0.13243 0.96076 0.0
H797 H 0.15708 0.19493 0.97294 0.0
C798 C 0.1321 0.19565 0.99666 0.0
C799 C 0.1139 0.18546 0.01775 0.0
C800 C 0.14269 0.14135 0.97372 0.0
C801 C 0.13512 0.16708 -0.00083 0.0
C802 C 0.15696 0.13635 0.96455 0.0
C803 C 0.17626 0.14864 0.97854 0.0
C804 C 0.14801 0.15881 0.99631 0.0
C805 C 0.18035 0.16499 0.0046 0.0
C806 C 0.1427 0.18657 0.98753 0.0
C807 C 0.10609 0.16552 0.02596 0.0
N808 N 0.16648 0.16979 0.01178 0.0
N809 N 0.1169 0.15692 0.01713 0.0
H810 H 0.8587 0.03611 0.04411 0.0
H811 H 0.81129 0.92759 0.96492 0.0
H812 H 0.86268 0.02098 0.90519 0.0
H813 H 0.83667 0.94404 0.09862 0.0
H814 H 0.82733 0.96187 0.94361 0.0
H815 H 0.84835 1.00262 0.0669 0.0
C816 C 0.85768 0.02586 0.01855 0.0
C817 C 0.86159 0.0314 0.97266 0.0
C818 C 0.82954 0.95797 0.97748 0.0
C819 C 0.84931 0.99308 -0.00167 0.0
C820 C 0.82034 0.93844 0.98969 0.0
C821 C 0.8227 0.93299 0.03355 0.0
C822 C 0.84075 0.97224 0.0097 0.0
C823 C 0.8346 0.94765 0.06434 0.0
C824 C 0.8518 0.00679 0.03158 0.0
C825 C 0.85995 0.01746 0.94097 0.0
N826 N 0.84297 0.96665 0.05207 0.0
N827 N 0.85364 0.99891 0.95426 0.0
H828 H 0.07705 0.90271 0.09193 0.0
H829 H 0.99698 0.8488 0.90116 0.0
H830 H 0.09054 0.88742 0.96179 0.0
H831 H 0.98379 0.83278 0.04236 0.0
H832 H 0.03093 0.87038 0.92163 0.0
H833 H 0.04232 0.88412 0.07261 0.0
C834 C 0.07272 0.89569 0.05905 0.0
C835 C 0.08666 0.8966 0.02834 0.0
C836 C 0.02054 0.8623 0.94815 0.0
C837 C 0.04717 0.87564 0.00604 0.0
C838 C 1.00112 0.85008 0.93664 0.0
C839 C 0.98746 0.83894 0.97015 0.0
C840 C 0.02638 0.86377 0.99363 0.0
C841 C 0.99383 0.84107 0.01547 0.0
C842 C 0.05295 0.885 0.04828 0.0
C843 C 0.08025 0.88704 0.98645 0.0
N844 N 0.01285 0.85331 0.02597 0.0
N845 N 0.06099 0.87708 0.97639 0.0
H846 H 0.1573 0.18066 0.45119 0.0
H847 H 0.20178 0.11702 0.53114 0.0
H848 H 0.15272 0.16177 0.59051 0.0
H849 H 0.17671 0.10916 0.39732 0.0
H850 H 0.18634 0.1358 0.55285 0.0
H851 H 0.16666 0.15672 0.42906 0.0
C852 C 0.15803 0.17134 0.47699 0.0
C853 C 0.15422 0.17322 0.52276 0.0
C854 C 0.18403 0.12977 0.51891 0.0
C855 C 0.16531 0.14623 0.49786 0.0
C856 C 0.19286 0.1191 0.5065 0.0
C857 C 0.19046 0.1115 0.46244 0.0
C858 C 0.17316 0.13333 0.48667 0.0
C859 C 0.17878 0.11466 0.43175 0.0
C860 C 0.16332 0.15768 0.46434 0.0
C861 C 0.15542 0.16077 0.55481 0.0
N862 N 0.17081 0.12562 0.4442 0.0
N863 N 0.16116 0.14804 0.54187 0.0
H864 H 0.87284 0.08703 0.4831 0.0
H865 H 0.85998 0.98488 0.53125 0.0
H866 H 0.91931 0.07776 0.43881 0.0
H867 H 0.81445 0.99313 0.47523 0.0
H868 H 0.88376 0.0186 0.50993 0.0
H869 H 0.85284 0.05251 0.4975 0.0
C870 C 0.87895 0.07778 0.4767 0.0
C871 C 0.89778 0.08535 0.4593 0.0
C872 C 0.86857 0.01276 0.50182 0.0
C873 C 0.87478 0.04564 0.47608 0.0
C874 C 0.85503 0.99357 0.51378 0.0
C875 C 0.83513 0.98627 0.5058 0.0
C876 C 0.86198 0.02457 0.48258 0.0
C877 C 0.82954 0.99819 0.483 0.0
C878 C 0.86744 0.05804 0.4847 0.0
C879 C 0.90481 0.0725 0.45187 0.0
N880 N 0.84281 0.01679 0.47303 0.0
N881 N 0.8933 0.05317 0.46047 0.0
H882 H 0.92701 0.81501 0.53972 0.0
H883 H 0.03426 0.85753 0.45419 0.0
H884 H 0.94321 0.83943 0.40512 0.0
H885 H 0.02133 0.86269 0.59432 0.0
H886 H 1.00088 0.84876 0.43372 0.0
H887 H 0.96145 0.8301 0.55968 0.0
C888 C 0.93784 0.82375 0.51458 0.0
C889 C 0.93229 0.82606 0.47081 0.0
C890 C 1.00552 0.8521 0.4688 0.0
C891 C 0.97164 0.8429 0.49296 0.0
C892 C 0.02452 0.85706 0.48051 0.0
C893 C 0.03062 0.86084 0.52603 0.0
C894 C 0.99246 0.85044 0.50302 0.0
C895 C 0.01734 0.85999 0.55877 0.0
C896 C 0.95746 0.83237 0.52596 0.0
C897 C 0.94691 0.83746 0.43939 0.0
N898 N 0.99884 0.85459 0.54674 0.0
N899 N 0.96595 0.84521 0.45082 0.0
H900 H 0.88135 0.81571 0.88396 0.0
H901 H 0.86283 0.88525 0.04657 0.0
H902 H 0.92102 0.84894 0.99125 0.0
H903 H 0.82216 0.84534 0.94868 0.0
H904 H 0.88738 0.87759 0.01839 0.0
H905 H 0.86304 0.83211 0.89805 0.0
C906 C 0.88634 0.82672 0.9102 0.0
C907 C 0.9026 0.83089 0.93674 0.0
C908 C 0.87319 0.8708 0.0026 0.0
C909 C 0.88135 0.84952 0.95403 0.0
C910 C 0.85924 0.87529 0.01839 0.0
C911 C 0.84042 0.86583 1e-05 0.0
C912 C 0.86824 0.85693 0.96799 0.0
C913 C 0.83644 0.85286 0.96402 0.0
C914 C 0.87584 0.83606 0.91837 0.0
C915 C 0.90855 0.84537 0.97005 0.0
N916 N 0.85015 0.84873 0.94947 0.0
N917 N 0.89771 0.85399 0.97832 0.0
H918 H 0.18733 0.98612 0.95606 0.0
H919 H 0.16535 0.07202 0.9238 0.0
H920 H 0.13328 0.97851 0.00848 0.0
H921 H 0.2204 0.07927 0.96751 0.0
H922 H 0.15078 0.03657 0.93367 0.0
H923 H 0.1967 0.01912 0.93425 0.0
C924 C 0.17723 0.99124 0.96224 0.0
C925 C 0.15965 0.97961 0.98505 0.0
C926 C 0.16602 0.04609 0.94109 0.0
C927 C 0.17039 0.01751 0.95993 0.0
C928 C 0.17431 0.06621 0.93552 0.0
C929 C 0.19409 0.07864 0.94509 0.0
C930 C 0.1778 0.03851 0.95478 0.0
C931 C 0.20508 0.07036 0.96007 0.0
C932 C 0.18265 0.01011 0.9499 0.0
C933 C 0.14705 0.98703 0.99136 0.0
N934 N 0.19685 0.05089 0.96395 0.0
N935 N 0.15277 0.00568 0.97938 0.0
H936 H 0.03177 0.19717 0.94547 0.0
H937 H 0.93364 0.0944 0.9691 0.0
H938 H 0.02461 0.15437 0.0454 0.0
H939 H 0.93943 0.14289 0.8913 0.0
H940 H 0.96849 0.11345 0.98799 0.0
H941 H 0.9996 0.17467 0.91559 0.0
C942 C 0.02354 0.18298 0.96092 0.0
C943 C 0.03091 0.17782 -0.00156 0.0
C944 C 0.96212 0.11977 0.96635 0.0
C945 C 0.99381 0.15186 0.96433 0.0
C946 C 0.9423 0.10887 0.95536 0.0
C947 C 0.93361 0.11713 0.92892 0.0
C948 C 0.97326 0.13892 0.95023 0.0
C949 C 0.94545 0.13601 0.91224 0.0
C950 C 1.0051 0.17011 0.94386 0.0
C951 C 0.01951 0.15909 0.01667 0.0
N952 N 0.96455 0.14622 0.92326 0.0
N953 N 1.00148 0.14686 -0.00028 0.0
H954 H 0.82947 0.81534 0.51774 0.0
H955 H 0.84952 0.92085 0.56292 0.0
H956 H 0.88488 0.86202 0.47233 0.0
H957 H 0.79723 0.8761 0.49955 0.0
H958 H 0.86481 0.90082 0.55009 0.0
H959 H 0.81959 0.83884 0.5366 0.0
C960 C 0.83972 0.83058 0.51234 0.0
C961 C 0.85791 0.83665 0.49245 0.0
C962 C 0.85007 0.89565 0.5388 0.0
C963 C 0.84657 0.86365 0.51448 0.0
C964 C 0.84134 0.90698 0.54604 0.0
C965 C 0.82202 0.90014 0.53247 0.0
C966 C 0.83915 0.87724 0.51911 0.0
C967 C 0.81211 0.88206 0.51071 0.0
C968 C 0.83401 0.84395 0.52304 0.0
C969 C 0.87066 0.85669 0.4872 0.0
N970 N 0.82067 0.87117 0.50539 0.0
N971 N 0.86467 0.86957 0.49775 0.0
H972 H 0.15287 0.02653 0.45762 0.0
H973 H 0.13935 0.93826 0.61292 0.0
H974 H 0.19776 0.02548 0.53766 0.0
H975 H 0.0949 0.93311 0.52069 0.0
H976 H 0.15812 0.97275 0.59682 0.0
H977 H 0.12911 0.995 0.49035 0.0
C978 C 0.15764 0.01988 0.48276 0.0
C979 C 0.17735 0.02852 0.49466 0.0
C980 C 0.14418 0.96424 0.58031 0.0
C981 C 0.15037 0.99261 0.53199 0.0
C982 C 0.13343 0.94452 0.58962 0.0
C983 C 0.11566 0.93283 0.56773 0.0
C984 C 0.13737 0.97244 0.54811 0.0
C985 C 0.10856 0.94169 0.53823 0.0
C986 C 0.14411 1.00185 0.50119 0.0
C987 C 0.18277 0.01924 0.52713 0.0
N988 N 0.11962 0.96099 0.52861 0.0
N989 N 0.16942 1.0018 0.54436 0.0
H990 H 0.98596 0.17364 0.55373 0.0
H991 H 0.07949 0.16345 0.51271 0.0
H992 H 0.9857 0.13152 0.46138 0.0
H993 H 0.07586 0.20285 0.60716 0.0
H994 H 0.04405 0.14758 0.50127 0.0
H995 H 0.01739 0.1803 0.58249 0.0
C996 C 0.99242 0.16554 0.5401 0.0
C997 C 0.98331 0.15213 0.50499 0.0
C998 C 0.05102 0.15948 0.52508 0.0
C999 C 0.01971 0.16007 0.53671 0.0
C1000 C 0.07118 0.16845 0.53169 0.0
C1001 C 0.08054 0.18461 0.56036 0.0
C1002 C 0.04037 0.16676 0.54762 0.0
C1003 C 0.06922 0.19062 0.58412 0.0
C1004 C 0.01043 0.16937 0.55638 0.0
C1005 C 0.99227 0.14197 0.4886 0.0
N1006 N 0.04984 0.18183 0.57695 0.0
N1007 N 0.01019 0.14641 0.50399 0.0
H1008 H 0.78255 0.5117 0.43735 0.0
H1009 H 0.83125 0.48286 0.23808 0.0
H1010 H 0.78839 0.53297 0.30003 0.0
H1011 H 0.85289 0.49107 0.37572 0.0
H1012 H 0.80815 0.49281 0.26179 0.0
H1013 H 0.8013 0.49595 0.41604 0.0
C1014 C 0.78745 0.51272 0.40256 0.0
C1015 C 0.78395 0.52363 0.37034 0.0
C1016 C 0.81781 0.49222 0.28687 0.0
C1017 C 0.8051 0.50561 0.34589 0.0
C1018 C 0.83095 0.48643 0.2735 0.0
C1019 C 0.84416 0.48623 0.30492 0.0
C1020 C 0.81756 0.49754 0.33217 0.0
C1021 C 0.84307 0.49114 0.35031 0.0
C1022 C 0.79824 0.50389 0.3906 0.0
C1023 C 0.79083 0.52473 0.32589 0.0
N1024 N 0.83 0.49662 0.36262 0.0
N1025 N 0.80101 0.51579 0.31494 0.0
H1026 H 0.54538 0.35658 0.26693 0.0
H1027 H 0.49804 0.27215 0.45111 0.0
H1028 H 0.51437 0.36062 0.38262 0.0
H1029 H 0.49068 0.26015 0.30725 0.0
H1030 H 0.51476 0.30706 0.43409 0.0
H1031 H 0.53614 0.32336 0.29004 0.0
C1032 C 0.53715 0.35067 0.29794 0.0
C1033 C 0.53064 0.36126 0.32311 0.0
C1034 C 0.50975 0.29672 0.40639 0.0
C1035 C 0.52027 0.32365 0.34965 0.0
C1036 C 0.50034 0.27689 0.41598 0.0
C1037 C 0.49297 0.26334 0.38045 0.0
C1038 C 0.51226 0.30297 0.361 0.0
C1039 C 0.4961 0.27019 0.33553 0.0
C1040 C 0.53177 0.33174 0.3108 0.0
C1041 C 0.51967 0.35286 0.36248 0.0
N1042 N 0.50558 0.28956 0.32702 0.0
N1043 N 0.51482 0.33451 0.37465 0.0
H1044 H 0.66086 0.18204 0.24492 0.0
H1045 H 0.74097 0.22998 0.43779 0.0
H1046 H 0.64985 0.15659 0.37903 0.0
H1047 H 0.75493 0.22571 0.29815 0.0
H1048 H 0.70624 0.20936 0.41957 0.0
H1049 H 0.69415 0.20475 0.2673 0.0
C1050 C 0.66533 0.18136 0.27936 0.0
C1051 C 0.65248 0.16728 0.31013 0.0
C1052 C 0.71697 0.21311 0.39302 0.0
C1053 C 0.69074 0.19351 0.33589 0.0
C1054 C 0.7367 0.22497 0.4032 0.0
C1055 C 0.75078 0.22957 0.36931 0.0
C1056 C 0.71136 0.20631 0.34843 0.0
C1057 C 0.74453 0.22249 0.32522 0.0
C1058 C 0.6844 0.1943 0.29193 0.0
C1059 C 0.65928 0.16713 0.35418 0.0
N1060 N 0.72529 0.21134 0.31598 0.0
N1061 N 0.67799 0.18011 0.36586 0.0
H1062 H 0.83358 0.42818 0.77786 0.0
H1063 H 0.85837 0.53597 0.81809 0.0
H1064 H 0.88911 0.47371 0.82609 0.0
H1065 H 0.80256 0.49007 0.86387 0.0
H1066 H 0.8676 0.51201 0.79954 0.0
H1067 H 0.81987 0.44943 0.79258 0.0
C1068 C 0.84283 0.44251 0.79181 0.0
C1069 C 0.86257 0.44919 0.80054 0.0
C1070 C 0.85327 0.50717 0.8133 0.0
C1071 C 0.84715 0.47345 0.81607 0.0
C1072 C 0.8479 0.52082 0.82376 0.0
C1073 C 0.82975 0.5151 0.84346 0.0
C1074 C 0.84038 0.48753 0.82189 0.0
C1075 C 0.81676 0.49514 0.84915 0.0
C1076 C 0.83499 0.45455 0.80014 0.0
C1077 C 0.87386 0.46787 0.81869 0.0
N1078 N 0.82238 0.48199 0.83869 0.0
N1079 N 0.86606 0.47938 0.82521 0.0
H1080 H 0.52949 0.31193 0.85812 0.0
H1081 H 0.54674 0.41567 0.83497 0.0
H1082 H 0.48529 0.32303 0.80552 0.0
H1083 H 0.58804 0.40633 0.76001 0.0
H1084 H 0.527 0.38093 0.84678 0.0
H1085 H 0.55418 0.34564 0.83906 0.0
C1086 C 0.52501 0.32122 0.84169 0.0
C1087 C 0.50522 0.31472 0.83414 0.0
C1088 C 0.54049 0.38654 0.82812 0.0
C1089 C 0.53311 0.35298 0.81354 0.0
C1090 C 0.55187 0.4064 0.82144 0.0
C1091 C 0.56905 0.41402 0.79591 0.0
C1092 C 0.54637 0.37407 0.80999 0.0
C1093 C 0.57483 0.40106 0.77955 0.0
C1094 C 0.53907 0.3404 0.83101 0.0
C1095 C 0.50027 0.32743 0.81282 0.0
N1096 N 0.56346 0.3816 0.78681 0.0
N1097 N 0.51403 0.34601 0.80425 0.0
H1098 H 0.60438 0.13664 0.7248 0.0
H1099 H 0.69068 0.20776 0.887 0.0
H1100 H 0.59844 0.17452 0.81976 0.0
H1101 H 0.69708 0.17614 0.77559 0.0
H1102 H 0.65809 0.19838 0.8597 0.0
H1103 H 0.6391 0.15328 0.73942 0.0
C1104 C 0.61049 0.14865 0.74853 0.0
C1105 C 0.59852 0.15412 0.77142 0.0
C1106 C 0.66674 0.19375 0.84087 0.0
C1107 C 0.63847 0.17318 0.78902 0.0
C1108 C 0.6854 0.19911 0.85638 0.0
C1109 C 0.69665 0.19254 0.83393 0.0
C1110 C 0.65917 0.18161 0.80277 0.0
C1111 C 0.68897 0.18144 0.79433 0.0
C1112 C 0.63037 0.15819 0.75683 0.0
C1113 C 0.60721 0.16989 0.80142 0.0
N1114 N 0.67068 0.17615 0.78044 0.0
N1115 N 0.62667 0.1787 0.80996 0.0
H1116 H 0.55112 0.15072 0.22536 0.0
H1117 H 0.52716 0.21281 0.39975 0.0
H1118 H 0.58449 0.1752 0.34747 0.0
H1119 H 0.48851 0.17493 0.29598 0.0
H1120 H 0.55241 0.20606 0.37224 0.0
H1121 H 0.53282 0.16703 0.2412 0.0
C1122 C 0.55476 0.15985 0.25525 0.0
C1123 C 0.56915 0.16154 0.28543 0.0
C1124 C 0.53849 0.1995 0.35517 0.0
C1125 C 0.54793 0.17992 0.3045 0.0
C1126 C 0.52415 0.20342 0.37061 0.0
C1127 C 0.5057 0.19425 0.35026 0.0
C1128 C 0.53435 0.18659 0.31878 0.0
C1129 C 0.50247 0.18212 0.31291 0.0
C1130 C 0.54427 0.1691 0.2644 0.0
C1131 C 0.57346 0.1736 0.32348 0.0
N1132 N 0.51659 0.17859 0.29856 0.0
N1133 N 0.56263 0.18215 0.33243 0.0
H1134 H 0.83581 0.31462 0.27485 0.0
H1135 H 0.83326 0.41255 0.3151 0.0
H1136 H 0.80052 0.31961 0.37905 0.0
H1137 H 0.86892 0.40468 0.21694 0.0
H1138 H 0.81652 0.37743 0.33137 0.0
H1139 H 0.84306 0.34599 0.24473 0.0
C1140 C 0.8293 0.32224 0.29087 0.0
C1141 C 0.81763 0.31458 0.32952 0.0
C1142 C 0.82777 0.38339 0.30571 0.0
C1143 C 0.82636 0.35098 0.29613 0.0
C1144 C 0.83721 0.40336 0.29627 0.0
C1145 C 0.85256 0.41147 0.26493 0.0
C1146 C 0.83371 0.3716 0.28325 0.0
C1147 C 0.8573 0.39903 0.24174 0.0
C1148 C 0.8335 0.34022 0.27383 0.0
C1149 C 0.80953 0.32502 0.34899 0.0
N1150 N 0.84803 0.37985 0.25155 0.0
N1151 N 0.81433 0.3429 0.33258 0.0
H1152 H 0.59834 0.47165 0.33695 0.0
H1153 H 0.70317 0.48829 0.36065 0.0
H1154 H 0.60891 0.42951 0.27032 0.0
H1155 H 0.69148 0.53329 0.31755 0.0
H1156 H 0.6692 0.46399 0.34248 0.0
H1157 H 0.63299 0.49187 0.3502 0.0
C1158 C 0.60788 0.46647 0.32557 0.0
C1159 C 0.60064 0.44889 0.30196 0.0
C1160 C 0.67434 0.47921 0.33651 0.0
C1161 C 0.64047 0.47211 0.31746 0.0
C1162 C 0.69366 0.49305 0.34668 0.0
C1163 C 0.70015 0.51292 0.34134 0.0
C1164 C 0.66156 0.48544 0.3219 0.0
C1165 C 0.68715 0.51823 0.32305 0.0
C1166 C 0.62768 0.47811 0.33297 0.0
C1167 C 0.61389 0.44303 0.2883 0.0
N1168 N 0.66846 0.50464 0.31489 0.0
N1169 N 0.63328 0.45466 0.29623 0.0
H1170 H 0.5269 0.17706 0.73714 0.0
H1171 H 0.50255 0.23086 0.9314 0.0
H1172 H 0.51855 0.15653 0.87574 0.0
H1173 H 0.47777 0.22167 0.79697 0.0
H1174 H 0.51645 0.2103 0.91153 0.0
H1175 H 0.51712 0.20045 0.75914 0.0
C1176 C 0.52333 0.17766 0.77243 0.0
C1177 C 0.52353 0.16473 0.80468 0.0
C1178 C 0.5081 0.21298 0.88641 0.0
C1179 C 0.51243 0.1917 0.82993 0.0
C1180 C 0.50032 0.2248 0.8975 0.0
C1181 C 0.48903 0.22798 0.86568 0.0
C1182 C 0.50499 0.20476 0.84285 0.0
C1183 C 0.48636 0.21956 0.82247 0.0
C1184 C 0.51762 0.19095 0.78478 0.0
C1185 C 0.51854 0.16615 0.84978 0.0
N1186 N 0.49438 0.20845 0.81221 0.0
N1187 N 0.51324 0.17945 0.86117 0.0
H1188 H 0.86593 0.35886 0.87927 0.0
H1189 H 0.76054 0.26625 0.84426 0.0
H1190 H 0.82229 0.36082 0.79618 0.0
H1191 H 0.80608 0.26831 0.92796 0.0
H1192 H 0.78055 0.30164 0.83305 0.0
H1193 H 0.84184 0.32674 0.90553 0.0
C1194 C 0.85114 0.3526 0.86712 0.0
C1195 C 0.84613 0.36244 0.83534 0.0
C1196 C 0.78598 0.29429 0.85426 0.0
C1197 C 0.81839 0.32526 0.86424 0.0
C1198 C 0.77458 0.27415 0.86069 0.0
C1199 C 0.78183 0.2643 0.88634 0.0
C1200 C 0.80458 0.30447 0.87406 0.0
C1201 C 0.80006 0.2752 0.90705 0.0
C1202 C 0.83735 0.33419 0.88196 0.0
C1203 C 0.82672 0.3537 0.82083 0.0
N1204 N 0.81077 0.29456 0.90023 0.0
N1205 N 0.81359 0.33541 0.83479 0.0
H1206 H 0.7456 0.51387 0.94361 0.0
H1207 H 0.66216 0.47304 0.75638 0.0
H1208 H 0.75857 0.52889 0.80204 0.0
H1209 H 0.65638 0.49832 0.88067 0.0
H1210 H 0.6957 0.48265 0.778 0.0
H1211 H 0.71073 0.49733 0.92541 0.0
C1212 C 0.7411 0.51328 0.90859 0.0
C1213 C 0.75492 0.52274 0.87422 0.0
C1214 C 0.68689 0.48568 0.80087 0.0
C1215 C 0.71531 0.50366 0.8533 0.0
C1216 C 0.66777 0.48007 0.78883 0.0
C1217 C 0.65655 0.48482 0.81702 0.0
C1218 C 0.69456 0.49561 0.84187 0.0
C1219 C 0.6646 0.49434 0.85822 0.0
C1220 C 0.72128 0.50398 0.89836 0.0
C1221 C 0.74834 0.5218 0.82948 0.0
N1222 N 0.68313 0.49939 0.86954 0.0
N1223 N 0.72899 0.51236 0.82023 0.0
H1224 H 0.47154 0.86548 0.76879 0.0
H1225 H 0.48902 0.80088 0.59152 0.0
H1226 H 0.42837 0.83084 0.66881 0.0
H1227 H 0.52293 0.8248 0.71354 0.0
H1228 H 0.46546 0.80964 0.62007 0.0
H1229 H 0.48943 0.84902 0.75029 0.0
C1230 C 0.46573 0.85421 0.74314 0.0
C1231 C 0.44852 0.84956 0.7201 0.0
C1232 C 0.47791 0.81268 0.64083 0.0
C1233 C 0.46918 0.83078 0.69796 0.0
C1234 C 0.49138 0.80767 0.6246 0.0
C1235 C 0.50819 0.81235 0.64984 0.0
C1236 C 0.48136 0.82254 0.68242 0.0
C1237 C 0.51038 0.82111 0.69252 0.0
C1238 C 0.47594 0.84476 0.73262 0.0
C1239 C 0.44157 0.83477 0.6874 0.0
N1240 N 0.4973 0.82611 0.7071 0.0
N1241 N 0.45211 0.82608 0.6767 0.0
H1242 H 0.12488 0.59378 0.68541 0.0
H1243 H 0.2147 0.69496 0.62421 0.0
H1244 H 0.18255 0.60311 0.70788 0.0
H1245 H 0.16286 0.68945 0.68517 0.0
H1246 H 0.20366 0.6611 0.64481 0.0
H1247 H 0.13866 0.62841 0.67245 0.0
C1248 C 0.14049 0.60307 0.68712 0.0
C1249 C 0.15259 0.59548 0.69771 0.0
C1250 C 0.19491 0.66748 0.6542 0.0
C1251 C 0.16842 0.63527 0.68282 0.0
C1252 C 0.20117 0.68675 0.64256 0.0
C1253 C 0.18967 0.69506 0.65297 0.0
C1254 C 0.1768 0.65634 0.67521 0.0
C1255 C 0.17225 0.68373 0.67665 0.0
C1256 C 0.1483 0.62287 0.68017 0.0
C1257 C 0.17271 0.60835 0.69986 0.0
N1258 N 0.16619 0.66486 0.68622 0.0
N1259 N 0.18005 0.62766 0.6921 0.0
H1260 H 0.31954 0.52203 0.61853 0.0
H1261 H 0.41786 0.52999 0.69237 0.0
H1262 H 0.32154 0.47709 0.69627 0.0
H1263 H 0.41189 0.58069 0.70565 0.0
H1264 H 0.38302 0.51043 0.67879 0.0
H1265 H 0.35376 0.54425 0.63825 0.0
C1266 C 0.32704 0.51693 0.6403 0.0
C1267 C 0.31764 0.49764 0.65572 0.0
C1268 C 0.38936 0.52585 0.68459 0.0
C1269 C 0.35671 0.52271 0.67695 0.0
C1270 C 0.40926 0.53708 0.69191 0.0
C1271 C 0.41781 0.55703 0.70017 0.0
C1272 C 0.37788 0.53464 0.68445 0.0
C1273 C 0.40585 0.56534 0.69954 0.0
C1274 C 0.34652 0.5296 0.65142 0.0
C1275 C 0.32811 0.49181 0.68371 0.0
N1276 N 0.38644 0.55412 0.69143 0.0
N1277 N 0.34715 0.50417 0.69269 0.0
H1278 H 0.5221 0.86565 0.13913 0.0
H1279 H 0.49966 0.75763 0.11118 0.0
H1280 H 0.46704 0.81943 0.18748 0.0
H1281 H 0.5552 0.80533 0.15237 0.0
H1282 H 0.48532 0.77859 0.12194 0.0
H1283 H 0.53204 0.84204 0.12208 0.0
C1284 C 0.51193 0.85047 0.14553 0.0
C1285 C 0.49381 0.84459 0.16559 0.0
C1286 C 0.5006 0.78427 0.12879 0.0
C1287 C 0.50525 0.81742 0.14596 0.0
C1288 C 0.50879 0.77239 0.12272 0.0
C1289 C 0.52868 0.77971 0.13089 0.0
C1290 C 0.51255 0.80367 0.1418 0.0
C1291 C 0.53982 0.79896 0.14577 0.0
C1292 C 0.51769 0.83703 0.13597 0.0
C1293 C 0.48118 0.82462 0.17231 0.0
N1294 N 0.53166 0.81028 0.15016 0.0
N1295 N 0.48721 0.81168 0.16287 0.0
H1296 H 0.21508 0.73286 0.05898 0.0
H1297 H 0.19049 0.65165 0.24651 0.0
H1298 H 0.25157 0.74262 0.17579 0.0
H1299 H 0.15781 0.6426 0.12276 0.0
H1300 H 0.21503 0.68353 0.21833 0.0
H1301 H 0.19637 0.69862 0.07823 0.0
C1302 C 0.21931 0.72766 0.08845 0.0
C1303 C 0.23482 0.74055 0.11598 0.0
C1304 C 0.20261 0.67446 0.19714 0.0
C1305 C 0.21309 0.70126 0.13905 0.0
C1306 C 0.18857 0.65621 0.21315 0.0
C1307 C 0.17187 0.64443 0.18723 0.0
C1308 C 0.19995 0.68104 0.15491 0.0
C1309 C 0.17029 0.65117 0.14423 0.0
C1310 C 0.20859 0.70808 0.09951 0.0
C1311 C 0.23974 0.73308 0.15364 0.0
N1312 N 0.18401 0.66905 0.12971 0.0
N1313 N 0.2287 0.71392 0.16455 0.0
H1314 H 0.36908 0.52107 0.12571 0.0
H1315 H 0.26053 0.47344 0.20698 0.0
H1316 H 0.35451 0.52409 0.26568 0.0
H1317 H 0.27704 0.5001 0.07457 0.0
H1318 H 0.29492 0.48898 0.22791 0.0
H1319 H 0.33542 0.51078 0.10415 0.0
C1320 C 0.3589 0.51982 0.15177 0.0
C1321 C 0.36466 0.5235 0.19755 0.0
C1322 C 0.29099 0.49157 0.19443 0.0
C1323 C 0.32616 0.51129 0.17329 0.0
C1324 C 0.27141 0.48267 0.18244 0.0
C1325 C 0.26595 0.48554 0.13905 0.0
C1326 C 0.30527 0.50299 0.16239 0.0
C1327 C 0.28064 0.49764 0.10851 0.0
C1328 C 0.33974 0.51397 0.13945 0.0
C1329 C 0.35081 0.52156 0.22994 0.0
N1330 N 0.29967 0.50571 0.12051 0.0
N1331 N 0.33217 0.5153 0.21731 0.0
H1332 H 0.15061 0.50279 0.615 0.0
H1333 H 0.2542 0.51091 0.65093 0.0
H1334 H 0.19454 0.54627 0.70148 0.0
H1335 H 0.20674 0.46713 0.57223 0.0
H1336 H 0.23538 0.52762 0.66163 0.0
H1337 H 0.17393 0.49362 0.58907 0.0
C1338 C 0.16534 0.51066 0.62786 0.0
C1339 C 0.17063 0.52523 0.66051 0.0
C1340 C 0.22926 0.51446 0.64166 0.0
C1341 C 0.19742 0.51437 0.63217 0.0
C1342 C 0.23999 0.50497 0.63554 0.0
C1343 C 0.23189 0.48744 0.61138 0.0
C1344 C 0.21049 0.5064 0.62294 0.0
C1345 C 0.21344 0.48038 0.59196 0.0
C1346 C 0.17867 0.50536 0.61329 0.0
C1347 C 0.18993 0.535 0.67605 0.0
N1348 N 0.20342 0.48979 0.59834 0.0
N1349 N 0.20258 0.52916 0.66235 0.0
H1350 H 0.49882 0.73914 0.64305 0.0
H1351 H 0.51215 0.64666 0.61627 0.0
H1352 H 0.54303 0.73687 0.56299 0.0
H1353 H 0.46587 0.64509 0.69574 0.0
H1354 H 0.5202 0.67849 0.58778 0.0
H1355 H 0.48332 0.70382 0.65526 0.0
C1356 C 0.50506 0.73119 0.62755 0.0
C1357 C 0.5224 0.74097 0.60268 0.0
C1358 C 0.5081 0.67118 0.61101 0.0
C1359 C 0.50489 0.70086 0.61619 0.0
C1360 C 0.50347 0.65293 0.62713 0.0
C1361 C 0.48843 0.64329 0.6586 0.0
C1362 C 0.49789 0.68015 0.62711 0.0
C1363 C 0.47758 0.65205 0.6714 0.0
C1364 C 0.49628 0.71109 0.63457 0.0
C1365 C 0.52991 0.73002 0.58323 0.0
N1366 N 0.48274 0.67017 0.65623 0.0
N1367 N 0.52121 0.71069 0.59064 0.0
H1368 H 0.36694 0.85418 0.61416 0.0
H1369 H 0.2649 0.75803 0.6629 0.0
H1370 H 0.35701 0.81892 0.73369 0.0
H1371 H 0.27361 0.8036 0.57002 0.0
H1372 H 0.29997 0.77604 0.68045 0.0
H1373 H 0.33426 0.83125 0.58804 0.0
C1374 C 0.35801 0.8415 0.63471 0.0
C1375 C 0.36473 0.83869 0.67658 0.0
C1376 C 0.29415 0.78192 0.65592 0.0
C1377 C 0.32703 0.81232 0.64683 0.0
C1378 C 0.27421 0.77163 0.6458 0.0
C1379 C 0.26634 0.77945 0.61536 0.0
C1380 C 0.3062 0.79989 0.63473 0.0
C1381 C 0.279 0.79715 0.59419 0.0
C1382 C 0.33928 0.82841 0.61981 0.0
C1383 C 0.35242 0.8218 0.70139 0.0
N1384 N 0.2982 0.80673 0.60429 0.0
N1385 N 0.3341 0.80935 0.68639 0.0
H1386 H 0.14276 0.53829 0.28421 0.0
H1387 H 0.21836 0.52436 0.13335 0.0
H1388 H 0.18151 0.5818 0.18956 0.0
H1389 H 0.17389 0.48056 0.2183 0.0
H1390 H 0.21004 0.54814 0.16322 0.0
H1391 H 0.15914 0.51996 0.27091 0.0
C1392 C 0.15493 0.54408 0.26087 0.0
C1393 C 0.16066 0.56146 0.23752 0.0
C1394 C 0.20237 0.53341 0.17585 0.0
C1395 C 0.17937 0.54023 0.22123 0.0
C1396 C 0.2072 0.51988 0.15911 0.0
C1397 C 0.19668 0.50044 0.1732 0.0
C1398 C 0.18706 0.52741 0.20711 0.0
C1399 C 0.18224 0.49535 0.20621 0.0
C1400 C 0.16429 0.53358 0.25321 0.0
C1401 C 0.17666 0.56843 0.20815 0.0
N1402 N 0.17779 0.50868 0.22173 0.0
N1403 N 0.1853 0.5576 0.20018 0.0
H1404 H 0.47322 0.60206 0.28705 0.0
H1405 H 0.48872 0.69223 0.1362 0.0
H1406 H 0.43007 0.59793 0.19196 0.0
H1407 H 0.53281 0.68995 0.21687 0.0
H1408 H 0.4646 0.66032 0.16649 0.0
H1409 H 0.49226 0.63669 0.27291 0.0
C1410 C 0.46764 0.60856 0.2635 0.0
C1411 C 0.45016 0.59711 0.24026 0.0
C1412 C 0.47949 0.66699 0.17804 0.0
C1413 C 0.4722 0.63693 0.22298 0.0
C1414 C 0.49323 0.68524 0.16106 0.0
C1415 C 0.51283 0.69368 0.17386 0.0
C1416 C 0.48542 0.65729 0.20834 0.0
C1417 C 0.51791 0.68391 0.20578 0.0
C1418 C 0.47856 0.62837 0.25532 0.0
C1419 C 0.4435 0.60631 0.21053 0.0
N1420 N 0.50436 0.66626 0.22163 0.0
N1421 N 0.45471 0.62571 0.20211 0.0
H1422 H 0.41977 0.88551 0.18137 0.0
H1423 H 0.3195 0.79376 0.12468 0.0
H1424 H 0.41241 0.82898 0.20837 0.0
H1425 H 0.32364 0.84515 0.18426 0.0
H1426 H 0.35364 0.80573 0.14509 0.0
H1427 H 0.38492 0.87068 0.16951 0.0
C1428 C 0.41087 0.86992 0.18431 0.0
C1429 C 0.41912 0.85847 0.19577 0.0
C1430 C 0.34691 0.81417 0.15425 0.0
C1431 C 0.37899 0.84139 0.18206 0.0
C1432 C 0.32747 0.80738 0.14269 0.0
C1433 C 0.31866 0.81846 0.1528 0.0
C1434 C 0.35774 0.8324 0.17482 0.0
C1435 C 0.32973 0.83605 0.17601 0.0
C1436 C 0.39092 0.8615 0.17798 0.0
C1437 C 0.40668 0.83834 0.19958 0.0
N1438 N 0.34875 0.84262 0.18546 0.0
N1439 N 0.3872 0.83038 0.1923 0.0
H1440 H 0.13643 0.25415 0.92614 0.0
H1441 H 0.09396 0.21205 0.68997 0.0
H1442 H 0.07564 0.23215 0.89937 0.0
H1443 H 0.15119 0.26212 0.70018 0.0
H1444 H 0.08672 0.21843 0.76681 0.0
H1445 H 0.14258 0.25677 0.84417 0.0
C1446 C 0.12442 0.25009 0.90291 0.0
C1447 C 0.10548 0.24278 0.9193 0.0
C1448 C 0.10072 0.22826 0.75192 0.0
C1449 C 0.11237 0.24546 0.82593 0.0
C1450 C 0.10486 0.22458 0.7083 0.0
C1451 C 0.12319 0.23658 0.68919 0.0
C1452 C 0.11523 0.24365 0.777 0.0
C1453 C 0.13688 0.25263 0.71399 0.0
C1454 C 0.12797 0.25172 0.85627 0.0
C1455 C 0.09045 0.23785 0.88794 0.0
N1456 N 0.13278 0.25548 0.75724 0.0
N1457 N 0.09414 0.23889 0.84258 0.0
H1458 H 0.76348 0.88938 0.93257 0.0
H1459 H 0.7823 0.87357 0.6726 0.0
H1460 H 0.78401 0.8505 0.89381 0.0
H1461 H 0.78252 0.92444 0.72306 0.0
H1462 H 0.77677 0.8607 0.75082 0.0
H1463 H 0.76392 0.89796 0.85273 0.0
C1464 C 0.76785 0.88245 0.90726 0.0
C1465 C 0.77382 0.86927 0.92003 0.0
C1466 C 0.77798 0.87465 0.74455 0.0
C1467 C 0.7744 0.87911 0.82838 0.0
C1468 C 0.78105 0.88194 0.70006 0.0
C1469 C 0.78318 0.90023 0.69164 0.0
C1470 C 0.77662 0.8856 0.78038 0.0
C1471 C 0.78141 0.91049 0.72827 0.0
C1472 C 0.76819 0.88744 0.86167 0.0
C1473 C 0.77941 0.86082 0.88556 0.0
N1474 N 0.77822 0.90305 0.77093 0.0
N1475 N 0.77961 0.86593 0.84128 0.0
H1476 H 0.12627 0.87584 0.93932 0.0
H1477 H 0.15063 0.89766 0.67559 0.0
H1478 H 0.17512 0.92971 0.89361 0.0
H1479 H 0.09256 0.86871 0.73004 0.0
H1480 H 0.16349 0.90269 0.75394 0.0
H1481 H 0.11781 0.866 0.86012 0.0
C1482 C 0.13545 0.88545 0.91268 0.0
C1483 C 0.15131 0.90372 0.92302 0.0
C1484 C 0.14795 0.89498 0.74839 0.0
C1485 C 0.14174 0.89243 0.83261 0.0
C1486 C 0.14066 0.89204 0.704 0.0
C1487 C 0.12057 0.88285 0.69686 0.0
C1488 C 0.13497 0.88814 0.78518 0.0
C1489 C 0.10814 0.87595 0.73445 0.0
C1490 C 0.13055 0.87983 0.86758 0.0
C1491 C 0.16264 0.91559 0.88704 0.0
N1492 N 0.11554 0.87869 0.77706 0.0
N1493 N 0.15757 0.90977 0.84323 0.0
H1494 H 0.25289 0.12926 0.55432 0.0
H1495 H 0.23838 0.09767 0.81525 0.0
H1496 H 0.23422 0.07033 0.59424 0.0
H1497 H 0.22982 0.14316 0.76097 0.0
H1498 H 0.2442 0.09026 0.73747 0.0
H1499 H 0.25247 0.13754 0.6338 0.0
C1500 C 0.24896 0.11809 0.57981 0.0
C1501 C 0.24344 0.09901 0.56747 0.0
C1502 C 0.24115 0.10192 0.74289 0.0
C1503 C 0.24291 0.10849 0.6587 0.0
C1504 C 0.23791 0.10619 0.78708 0.0
C1505 C 0.2335 0.12097 0.79438 0.0
C1506 C 0.2404 0.11283 0.70624 0.0
C1507 C 0.233 0.13155 0.7568 0.0
C1508 C 0.24863 0.12284 0.62518 0.0
C1509 C 0.23846 0.08519 0.6022 0.0
N1510 N 0.23647 0.12731 0.71442 0.0
N1511 N 0.23824 0.09018 0.64638 0.0
H1512 H 0.86794 0.09049 0.76176 0.0
H1513 H 0.93743 0.17283 0.5989 0.0
H1514 H 0.90042 0.14894 0.81253 0.0
H1515 H 0.88205 0.12676 0.55169 0.0
H1516 H 0.92593 0.16434 0.67756 0.0
H1517 H 0.87433 0.10303 0.68393 0.0
C1518 C 0.87617 0.10601 0.7563 0.0
C1519 C 0.8836 0.11877 0.79314 0.0
C1520 C 0.91624 0.15636 0.64983 0.0
C1521 C 0.89148 0.13313 0.70474 0.0
C1522 C 0.9228 0.16109 0.60507 0.0
C1523 C 0.9107 0.15039 0.56881 0.0
C1524 C 0.89768 0.14054 0.65818 0.0
C1525 C 0.89185 0.13539 0.57864 0.0
C1526 C 0.87978 0.11315 0.71207 0.0
C1527 C 0.89434 0.13873 0.78469 0.0
N1528 N 0.88604 0.13068 0.62244 0.0
N1529 N 0.89832 0.14535 0.74111 0.0
H1530 H 0.88986 0.75135 0.79622 0.0
H1531 H 0.8523 0.79099 0.59347 0.0
H1532 H 0.89307 0.80698 0.79692 0.0
H1533 H 0.87515 0.75272 0.56959 0.0
H1534 H 0.85849 0.79051 0.67462 0.0
H1535 H 0.87604 0.74563 0.71888 0.0
C1536 C 0.88733 0.76216 0.78036 0.0
C1537 C 0.8927 0.7797 0.8025 0.0
C1538 C 0.86193 0.78205 0.65161 0.0
C1539 C 0.87685 0.77323 0.71528 0.0
C1540 C 0.85834 0.78224 0.60531 0.0
C1541 C 0.86342 0.77205 0.57458 0.0
C1542 C 0.87046 0.77144 0.66748 0.0
C1543 C 0.87121 0.76096 0.59203 0.0
C1544 C 0.87958 0.75895 0.73638 0.0
C1545 C 0.88929 0.79335 0.78066 0.0
N1546 N 0.8746 0.76102 0.6374 0.0
N1547 N 0.88157 0.78983 0.73826 0.0
H1548 H 0.91949 0.78511 0.32133 0.0
H1549 H 0.88517 0.78062 0.06323 0.0
H1550 H 0.87081 0.79051 0.2764 0.0
H1551 H 0.93835 0.7812 0.09615 0.0
H1552 H 0.87858 0.78068 0.14334 0.0
H1553 H 0.92566 0.78026 0.24132 0.0
C1554 C 0.91008 0.78515 0.29477 0.0
C1555 C 0.89484 0.78858 0.30526 0.0
C1556 C 0.89173 0.78079 0.13339 0.0
C1557 C 0.90163 0.78295 0.21471 0.0
C1558 C 0.89553 0.78077 0.08737 0.0
C1559 C 0.91246 0.78111 0.07278 0.0
C1560 C 0.90499 0.78131 0.16568 0.0
C1561 C 0.92515 0.78102 0.10597 0.0
C1562 C 0.91362 0.78246 0.24928 0.0
C1563 C 0.883 0.78841 0.2698 0.0
N1564 N 0.92124 0.78128 0.15106 0.0
N1565 N 0.88668 0.78572 0.22638 0.0
H1566 H 0.2316 0.16237 0.0938 0.0
H1567 H 0.22508 0.08331 0.26682 0.0
H1568 H 0.2483 0.12011 0.05896 0.0
H1569 H 0.23158 0.13747 0.31403 0.0
H1570 H 0.2314 0.09584 0.18942 0.0
H1571 H 0.22981 0.15312 0.17391 0.0
C1572 C 0.23506 0.15128 0.10301 0.0
C1573 C 0.24003 0.14193 0.06959 0.0
C1574 C 0.23154 0.10506 0.21665 0.0
C1575 C 0.23775 0.13118 0.16088 0.0
C1576 C 0.22775 0.09784 0.2608 0.0
C1577 C 0.22757 0.1093 0.29675 0.0
C1578 C 0.2349 0.1238 0.20809 0.0
C1579 C 0.23154 0.12818 0.28716 0.0
C1580 C 0.23408 0.14607 0.14872 0.0
C1581 C 0.24442 0.12772 0.08351 0.0
N1582 N 0.23483 0.1348 0.24351 0.0
N1583 N 0.24295 0.12262 0.128 0.0
H1584 H 0.9377 0.13994 0.26771 0.0
H1585 H 0.84913 0.08623 0.09383 0.0
H1586 H 0.87792 0.11135 0.31163 0.0
H1587 H 0.9086 0.12502 0.05442 0.0
H1588 H 0.85893 0.09326 0.17396 0.0
H1589 H 0.92683 0.13243 0.18932 0.0
C1590 C 0.92225 0.13203 0.26091 0.0
C1591 C 0.90871 0.12624 0.2964 0.0
C1592 C 0.86975 0.10024 0.14762 0.0
C1593 C 0.8961 0.11759 0.20623 0.0
C1594 C 0.86419 0.09623 0.10195 0.0
C1595 C 0.87804 0.10509 0.0673 0.0
C1596 C 0.8893 0.11305 0.15853 0.0
C1597 C 0.89736 0.1179 0.07982 0.0
C1598 C 0.91604 0.12779 0.21601 0.0
C1599 C 0.88887 0.11611 0.28532 0.0
N1600 N 0.90238 0.12142 0.12428 0.0
N1601 N 0.88314 0.11205 0.24113 0.0
H1602 H 0.81666 0.90646 0.21416 0.0
H1603 H 0.74748 0.88781 0.42018 0.0
H1604 H 0.75549 0.88172 0.18752 0.0
H1605 H 0.8005 0.94262 0.40637 0.0
H1606 H 0.75037 0.88068 0.33995 0.0
H1607 H 0.81166 0.91522 0.29091 0.0
C1608 C 0.80218 0.90286 0.22457 0.0
C1609 C 0.78646 0.89343 0.19459 0.0
C1610 C 0.7612 0.89432 0.35458 0.0
C1611 C 0.78063 0.90298 0.28234 0.0
C1612 C 0.75961 0.89838 0.40019 0.0
C1613 C 0.77373 0.91587 0.41981 0.0
C1614 C 0.77736 0.90756 0.32911 0.0
C1615 C 0.7892 0.92905 0.39247 0.0
C1616 C 0.79937 0.90793 0.26815 0.0
C1617 C 0.76798 0.88912 0.20965 0.0
N1618 N 0.79079 0.92449 0.34875 0.0
N1619 N 0.76549 0.89369 0.25285 0.0
H1620 H 0.08502 0.84737 0.39948 0.0
H1621 H 0.13906 0.93372 0.22028 0.0
H1622 H 0.12163 0.90767 0.43476 0.0
H1623 H 0.11008 0.87352 0.18018 0.0
H1624 H 0.13067 0.92386 0.29881 0.0
H1625 H 0.09197 0.85611 0.31879 0.0
C1626 C 0.09447 0.86241 0.39033 0.0
C1627 C 0.10283 0.87679 0.42399 0.0
C1628 C 0.12611 0.91274 0.27298 0.0
C1629 C 0.11075 0.88683 0.3321 0.0
C1630 C 0.13087 0.91837 0.22792 0.0
C1631 C 0.12526 0.90443 0.19341 0.0
C1632 C 0.11559 0.89297 0.28403 0.0
C1633 C 0.11472 0.88476 0.2057 0.0
C1634 C 0.09846 0.86737 0.34433 0.0
C1635 C 0.11495 0.89604 0.41016 0.0
N1636 N 0.11019 0.87959 0.2501 0.0
N1637 N 0.11851 0.90046 0.36542 0.0
H1638 H 0.10943 0.20986 0.42748 0.0
H1639 H 0.14339 0.25296 0.18002 0.0
H1640 H 0.17006 0.24932 0.40031 0.0
H1641 H 0.09436 0.19621 0.20684 0.0
H1642 H 0.15283 0.25523 0.26066 0.0
H1643 H 0.10273 0.20821 0.34638 0.0
C1644 C 0.12136 0.21822 0.40436 0.0
C1645 C 0.14033 0.22975 0.4206 0.0
C1646 C 0.14013 0.24227 0.24848 0.0
C1647 C 0.13271 0.22801 0.32752 0.0
C1648 C 0.1347 0.24099 0.20269 0.0
C1649 C 0.11809 0.22436 0.18667 0.0
C1650 C 0.12859 0.22699 0.27826 0.0
C1651 C 0.10734 0.20926 0.21748 0.0
C1652 C 0.11753 0.2172 0.35805 0.0
C1653 C 0.15524 0.24018 0.38903 0.0
N1654 N 0.11268 0.21103 0.26172 0.0
N1655 N 0.15109 0.23921 0.34379 0.0
H1656 H 0.81774 0.56101 0.06421 0.0
H1657 H 0.74458 0.56869 0.2333 0.0
H1658 H 0.77114 0.56883 0.01396 0.0
H1659 H 0.80298 0.58381 0.27061 0.0
H1660 H 0.75256 0.56711 0.15341 0.0
H1661 H 0.81094 0.56724 0.14104 0.0
C1662 C 0.80603 0.56403 0.06938 0.0
C1663 C 0.79491 0.5643 0.03266 0.0
C1664 C 0.76364 0.57101 0.17913 0.0
C1665 C 0.787 0.57141 0.12087 0.0
C1666 C 0.75912 0.57189 0.2247 0.0
C1667 C 0.77312 0.57631 0.25878 0.0
C1668 C 0.78216 0.57425 0.1678 0.0
C1669 C 0.79172 0.58034 0.24562 0.0
C1670 C 0.80225 0.56772 0.11326 0.0
C1671 C 0.78005 0.56849 0.04137 0.0
N1672 N 0.79561 0.57899 0.2013 0.0
N1673 N 0.77636 0.57169 0.08479 0.0
H1674 H 0.48648 0.25017 0.04549 0.0
H1675 H 0.41837 0.2023 0.25403 0.0
H1676 H 0.42512 0.21319 0.02227 0.0
H1677 H 0.47211 0.20165 0.24334 0.0
H1678 H 0.42095 0.21092 0.17295 0.0
H1679 H 0.48226 0.23739 0.12313 0.0
C1680 C 0.47214 0.23933 0.05683 0.0
C1681 C 0.45611 0.23263 0.02771 0.0
C1682 C 0.43202 0.20869 0.18847 0.0
C1683 C 0.45117 0.2184 0.11619 0.0
C1684 C 0.43062 0.20388 0.23454 0.0
C1685 C 0.44504 0.20125 0.25517 0.0
C1686 C 0.44824 0.21147 0.16356 0.0
C1687 C 0.46063 0.20343 0.22855 0.0
C1688 C 0.46977 0.23202 0.10086 0.0
C1689 C 0.43782 0.21856 0.0438 0.0
N1690 N 0.462 0.20873 0.18421 0.0
N1691 N 0.43576 0.21208 0.0874 0.0
H1692 H 0.78776 0.19659 0.03214 0.0
H1693 H 0.82412 0.27555 0.22955 0.0
H1694 H 0.77992 0.24639 0.03174 0.0
H1695 H 0.80579 0.21566 0.25848 0.0
H1696 H 0.81563 0.26713 0.15004 0.0
H1697 H 0.80151 0.20546 0.10941 0.0
C1698 C 0.78909 0.20943 0.04819 0.0
C1699 C 0.78259 0.22071 0.02595 0.0
C1700 C 0.81361 0.25587 0.17376 0.0
C1701 C 0.79843 0.23099 0.11293 0.0
C1702 C 0.81853 0.26065 0.21914 0.0
C1703 C 0.81549 0.24623 0.25084 0.0
C1704 C 0.80575 0.23658 0.15973 0.0
C1705 C 0.80819 0.22717 0.23521 0.0
C1706 C 0.79683 0.21441 0.09208 0.0
C1707 C 0.78455 0.23718 0.04798 0.0
N1708 N 0.80348 0.22285 0.19059 0.0
N1709 N 0.79236 0.24186 0.09017 0.0
H1710 H 0.91996 0.46385 0.88858 0.0
H1711 H 0.92117 0.44261 0.15203 0.0
H1712 H 0.90997 0.40791 0.93291 0.0
H1713 H 0.89183 0.47112 0.09648 0.0
H1714 H 0.92758 0.43592 0.07377 0.0
H1715 H 0.92081 0.4732 0.96789 0.0
C1716 C 0.91831 0.45364 0.91497 0.0
C1717 C 0.91473 0.43499 0.90412 0.0
C1718 C 0.91996 0.44384 0.07907 0.0
C1719 C 0.91588 0.44576 0.99477 0.0
C1720 C 0.91642 0.44773 0.12336 0.0
C1721 C 0.90597 0.45739 0.13024 0.0
C1722 C 0.9135 0.45024 0.04205 0.0
C1723 C 0.8999 0.4636 0.09234 0.0
C1724 C 0.91874 0.459 0.96013 0.0
C1725 C 0.9126 0.42237 0.93986 0.0
N1726 N 0.90385 0.46002 0.04981 0.0
N1727 N 0.91316 0.42797 0.98382 0.0
H1728 H 0.58127 0.43298 0.12594 0.0
H1729 H 0.5591 0.47654 0.91051 0.0
H1730 H 0.55071 0.46449 0.14218 0.0
H1731 H 0.61453 0.47978 0.9266 0.0
H1732 H 0.5525 0.46844 0.99175 0.0
H1733 H 0.59058 0.44612 0.04885 0.0
C1734 C 0.57665 0.4428 0.11328 0.0
C1735 C 0.56533 0.44779 0.14041 0.0
C1736 C 0.56617 0.47115 0.97744 0.0
C1737 C 0.57544 0.4624 0.05192 0.0
C1738 C 0.56992 0.47568 0.93116 0.0
C1739 C 0.5874 0.47886 0.91177 0.0
C1740 C 0.57975 0.46922 0.00409 0.0
C1741 C 0.60091 0.47756 0.94014 0.0
C1742 C 0.58199 0.45031 0.06943 0.0
C1743 C 0.55963 0.46049 0.12238 0.0
N1744 N 0.59667 0.47254 0.98464 0.0
N1745 N 0.56449 0.46715 0.07886 0.0
H1746 H 0.58279 0.14543 0.11506 0.0
H1747 H 0.50662 0.08784 0.92241 0.0
H1748 H 0.53749 0.08681 0.14378 0.0
H1749 H 0.56795 0.12537 0.89872 0.0
H1750 H 0.51322 0.08971 0.00493 0.0
H1751 H 0.5724 0.14125 0.03663 0.0
C1752 C 0.57051 0.13166 0.10506 0.0
C1753 C 0.56106 0.11638 0.13617 0.0
C1754 C 0.52511 0.09737 0.98132 0.0
C1755 C 0.54914 0.11159 0.04566 0.0
C1756 C 0.5214 0.09643 0.93452 0.0
C1757 C 0.53678 0.10648 0.90383 0.0
C1758 C 0.54422 0.10881 0.99696 0.0
C1759 C 0.55566 0.11733 0.92108 0.0
C1760 C 0.56466 0.1293 0.06008 0.0
C1761 C 0.54522 0.09891 0.12078 0.0
N1762 N 0.5588 0.11833 0.96644 0.0
N1763 N 0.53969 0.09694 0.07627 0.0
H1764 H 0.52889 0.07918 0.62306 0.0
H1765 H 0.60734 0.1142 0.42387 0.0
H1766 H 0.58616 0.12905 0.63571 0.0
H1767 H 0.54657 0.09311 0.39895 0.0
H1768 H 0.6007 0.11056 0.50599 0.0
H1769 H 0.53658 0.07491 0.54424 0.0
C1770 C 0.54321 0.08888 0.60951 0.0
C1771 C 0.5569 0.10456 0.6352 0.0
C1772 C 0.58884 0.1065 0.48232 0.0
C1773 C 0.56577 0.09969 0.54656 0.0
C1774 C 0.59259 0.10856 0.43572 0.0
C1775 C 0.5775 0.1042 0.40495 0.0
C1776 C 0.56983 0.0996 0.49785 0.0
C1777 C 0.55863 0.09692 0.4218 0.0
C1778 C 0.54753 0.08652 0.56477 0.0
C1779 C 0.57521 0.1169 0.61645 0.0
N1780 N 0.5553 0.09484 0.46725 0.0
N1781 N 0.57914 0.11424 0.57306 0.0
H1782 H 0.91324 0.47144 0.64848 0.0
H1783 H 0.88189 0.43701 0.39236 0.0
H1784 H 0.86949 0.41379 0.60787 0.0
H1785 H 0.91468 0.49771 0.42739 0.0
H1786 H 0.87915 0.42877 0.47229 0.0
H1787 H 0.91563 0.48201 0.5689 0.0
C1788 C 0.90411 0.46105 0.62303 0.0
C1789 C 0.89126 0.44165 0.63492 0.0
C1790 C 0.88693 0.44393 0.46277 0.0
C1791 C 0.894 0.45358 0.54432 0.0
C1792 C 0.8886 0.44867 0.41694 0.0
C1793 C 0.89864 0.4681 0.40307 0.0
C1794 C 0.89547 0.45868 0.49544 0.0
C1795 C 0.90681 0.48254 0.43667 0.0
C1796 C 0.90547 0.46709 0.57773 0.0
C1797 C 0.87975 0.42883 0.60053 0.0
N1798 N 0.90515 0.47753 0.48148 0.0
N1799 N 0.88148 0.435 0.557 0.0
H1800 H 0.53395 0.40183 0.42418 0.0
H1801 H 0.55084 0.46528 0.64536 0.0
H1802 H 0.53803 0.4577 0.41178 0.0
H1803 H 0.58385 0.4369 0.61892 0.0
H1804 H 0.53757 0.45713 0.56733 0.0
H1805 H 0.54351 0.40885 0.5041 0.0
C1806 C 0.53654 0.41546 0.43843 0.0
C1807 C 0.5352 0.42922 0.41116 0.0
C1808 C 0.54761 0.45261 0.57896 0.0
C1809 C 0.54591 0.43716 0.50288 0.0
C1810 C 0.55504 0.4571 0.62337 0.0
C1811 C 0.56841 0.4517 0.63843 0.0
C1812 C 0.55316 0.44215 0.55025 0.0
C1813 C 0.5736 0.44134 0.60853 0.0
C1814 C 0.5421 0.41946 0.48395 0.0
C1815 C 0.53895 0.44672 0.43152 0.0
N1816 N 0.56584 0.43675 0.56607 0.0
N1817 N 0.54406 0.45018 0.47631 0.0
H1818 H 0.44646 0.24752 0.51001 0.0
H1819 H 0.42514 0.21213 0.76897 0.0
H1820 H 0.44333 0.19524 0.56076 0.0
H1821 H 0.44898 0.27212 0.73053 0.0
H1822 H 0.42396 0.20366 0.68898 0.0
H1823 H 0.43998 0.25465 0.58746 0.0
C1824 C 0.44413 0.23744 0.53729 0.0
C1825 C 0.44563 0.22089 0.52932 0.0
C1826 C 0.42929 0.21865 0.69804 0.0
C1827 C 0.43808 0.22877 0.61704 0.0
C1828 C 0.42991 0.22351 0.74372 0.0
C1829 C 0.43739 0.24291 0.75658 0.0
C1830 C 0.43611 0.23325 0.66484 0.0
C1831 C 0.44329 0.257 0.72218 0.0
C1832 C 0.44053 0.24154 0.58132 0.0
C1833 C 0.44255 0.20829 0.56567 0.0
N1834 N 0.44265 0.25191 0.6778 0.0
N1835 N 0.43895 0.2125 0.60791 0.0
H1836 H 0.74661 0.17806 0.72799 0.0
H1837 H 0.81531 0.26201 0.55657 0.0
H1838 H 0.79849 0.23085 0.76659 0.0
H1839 H 0.77208 0.20549 0.50847 0.0
H1840 H 0.80869 0.25001 0.63406 0.0
H1841 H 0.75508 0.18676 0.6476 0.0
C1842 C 0.75984 0.19133 0.71965 0.0
C1843 C 0.77174 0.20384 0.75413 0.0
C1844 C 0.80066 0.24011 0.60673 0.0
C1845 C 0.78139 0.21384 0.66276 0.0
C1846 C 0.80439 0.247 0.56239 0.0
C1847 C 0.7941 0.23476 0.52609 0.0
C1848 C 0.78633 0.22083 0.61525 0.0
C1849 C 0.7803 0.21538 0.53562 0.0
C1850 C 0.76464 0.19627 0.67384 0.0
C1851 C 0.78871 0.22083 0.74137 0.0
N1852 N 0.77664 0.20902 0.57949 0.0
N1853 N 0.79291 0.22535 0.6969 0.0
H1854 H 0.7567 0.55856 0.56328 0.0
H1855 H 0.83893 0.56969 0.73335 0.0
H1856 H 0.81214 0.56887 0.51388 0.0
H1857 H 0.79376 0.58207 0.77052 0.0
H1858 H 0.82914 0.56753 0.65346 0.0
H1859 H 0.76949 0.56482 0.64046 0.0
C1860 C 0.77159 0.56211 0.56871 0.0
C1861 C 0.78335 0.56308 0.53213 0.0
C1862 C 0.82156 0.57095 0.67915 0.0
C1863 C 0.79809 0.57025 0.62069 0.0
C1864 C 0.82711 0.57216 0.72472 0.0
C1865 C 0.81712 0.57603 0.75875 0.0
C1866 C 0.80573 0.57329 0.66775 0.0
C1867 C 0.80191 0.57909 0.74555 0.0
C1868 C 0.77892 0.56581 0.61279 0.0
C1869 C 0.8026 0.56798 0.54117 0.0
N1870 N 0.79656 0.57744 0.70122 0.0
N1871 N 0.80935 0.5712 0.58473 0.0
H1872 H 0.4633 0.89383 0.60103 0.0
H1873 H 0.44015 0.90391 0.34142 0.0
H1874 H 0.41636 0.90379 0.56495 0.0
H1875 H 0.47332 0.87787 0.38843 0.0
H1876 H 0.43354 0.90807 0.42134 0.0
H1877 H 0.46995 0.89277 0.52124 0.0
C1878 C 0.45437 0.89586 0.57632 0.0
C1879 C 0.43912 0.89876 0.5899 0.0
C1880 C 0.44221 0.90142 0.4138 0.0
C1881 C 0.44668 0.89741 0.49759 0.0
C1882 C 0.44601 0.89908 0.36838 0.0
C1883 C 0.45719 0.89041 0.3582 0.0
C1884 C 0.44994 0.89532 0.44887 0.0
C1885 C 0.46447 0.88445 0.3944 0.0
C1886 C 0.45817 0.89519 0.53055 0.0
C1887 C 0.42821 0.90144 0.55597 0.0
N1888 N 0.46075 0.88706 0.43787 0.0
N1889 N 0.43216 0.90062 0.51117 0.0
H1890 H 0.12137 0.58581 0.4009 0.0
H1891 H 0.1056 0.50459 0.56809 0.0
H1892 H 0.09374 0.52724 0.35027 0.0
H1893 H 0.09408 0.54989 0.60912 0.0
H1894 H 0.10341 0.51234 0.4882 0.0
H1895 H 0.11408 0.5733 0.4786 0.0
C1896 C 0.11355 0.57028 0.40635 0.0
C1897 C 0.10804 0.55747 0.36961 0.0
C1898 C 0.10099 0.52025 0.51489 0.0
C1899 C 0.10017 0.54313 0.45789 0.0
C1900 C 0.10234 0.51594 0.56034 0.0
C1901 C 0.10019 0.52673 0.59523 0.0
C1902 C 0.09798 0.53574 0.50464 0.0
C1903 C 0.09589 0.54123 0.58335 0.0
C1904 C 0.10935 0.56317 0.45049 0.0
C1905 C 0.09805 0.53748 0.37806 0.0
N1906 N 0.09531 0.54556 0.53901 0.0
N1907 N 0.09474 0.53084 0.42166 0.0
H1908 H 0.42595 0.53328 0.40269 0.0
H1909 H 0.50858 0.59745 0.56929 0.0
H1910 H 0.48461 0.56337 0.352 0.0
H1911 H 0.46136 0.54184 0.61157 0.0
H1912 H 0.50049 0.58733 0.48964 0.0
H1913 H 0.43843 0.53811 0.48035 0.0
C1914 C 0.44149 0.54068 0.4081 0.0
C1915 C 0.45432 0.54786 0.37129 0.0
C1916 C 0.49221 0.57727 0.51652 0.0
C1917 C 0.46868 0.55395 0.45972 0.0
C1918 C 0.49672 0.58304 0.56186 0.0
C1919 C 0.48552 0.57051 0.59708 0.0
C1920 C 0.47612 0.5591 0.50658 0.0
C1921 C 0.47037 0.55198 0.58556 0.0
C1922 C 0.44859 0.54339 0.45226 0.0
C1923 C 0.47433 0.55752 0.37978 0.0
N1924 N 0.46587 0.54697 0.54127 0.0
N1925 N 0.48098 0.56067 0.42342 0.0
H1926 H 0.59802 0.81397 0.46116 0.0
H1927 H 0.56622 0.73455 0.26616 0.0
H1928 H 0.54573 0.75814 0.46394 0.0
H1929 H 0.59588 0.79558 0.23321 0.0
H1930 H 0.56675 0.7426 0.34598 0.0
H1931 H 0.60469 0.8068 0.3837 0.0
C1932 C 0.58815 0.80015 0.44564 0.0
C1933 C 0.57127 0.78663 0.46842 0.0
C1934 C 0.57333 0.75423 0.3213 0.0
C1935 C 0.5789 0.77832 0.38146 0.0
C1936 C 0.57309 0.74969 0.27566 0.0
C1937 C 0.58075 0.76442 0.24272 0.0
C1938 C 0.58138 0.77364 0.3344 0.0
C1939 C 0.58962 0.78377 0.25743 0.0
C1940 C 0.5919 0.79614 0.40168 0.0
C1941 C 0.55881 0.76898 0.44717 0.0
N1942 N 0.58956 0.78786 0.30237 0.0
N1943 N 0.56291 0.76531 0.40492 0.0
H1944 H 0.21725 0.75241 0.44037 0.0
H1945 H 0.26344 0.83228 0.25536 0.0
H1946 H 0.22928 0.80986 0.4766 0.0
H1947 H 0.21698 0.77417 0.22659 0.0
H1948 H 0.25527 0.82633 0.33677 0.0
H1949 H 0.22207 0.76181 0.36086 0.0
C1950 C 0.22095 0.76705 0.43142 0.0
C1951 C 0.22294 0.78044 0.4647 0.0
C1952 C 0.24678 0.81513 0.31217 0.0
C1953 C 0.22858 0.79129 0.37407 0.0
C1954 C 0.25146 0.81842 0.266 0.0
C1955 C 0.24115 0.80355 0.23434 0.0
C1956 C 0.23194 0.79684 0.3261 0.0
C1957 C 0.22562 0.78594 0.24975 0.0
C1958 C 0.22356 0.77236 0.38614 0.0
C1959 C 0.2276 0.79919 0.45151 0.0
N1960 N 0.22168 0.783 0.29459 0.0
N1961 N 0.23054 0.80424 0.40679 0.0
H1962 H 0.22852 0.46856 0.46882 0.0
H1963 H 0.21075 0.41418 0.23649 0.0
H1964 H 0.22534 0.41295 0.46422 0.0
H1965 H 0.18631 0.45057 0.26727 0.0
H1966 H 0.21776 0.41378 0.31769 0.0
H1967 H 0.21494 0.46306 0.39234 0.0
C1968 C 0.22486 0.45514 0.45162 0.0
C1969 C 0.22809 0.44121 0.47247 0.0
C1970 C 0.21057 0.42156 0.30651 0.0
C1971 C 0.21279 0.43492 0.38494 0.0
C1972 C 0.20663 0.42186 0.26028 0.0
C1973 C 0.19811 0.43259 0.245 0.0
C1974 C 0.20626 0.43235 0.33722 0.0
C1975 C 0.193 0.4422 0.27735 0.0
C1976 C 0.21701 0.45195 0.40816 0.0
C1977 C 0.22298 0.42398 0.44904 0.0
N1978 N 0.19742 0.44208 0.32179 0.0
N1979 N 0.21582 0.42141 0.40597 0.0
H1980 H 0.26768 0.43546 0.76731 0.0
H1981 H 0.2075 0.46045 0.94342 0.0
H1982 H 0.21729 0.44009 0.73381 0.0
H1983 H 0.24503 0.43933 0.98996 0.0
H1984 H 0.21318 0.45473 0.86568 0.0
H1985 H 0.26144 0.43775 0.8485 0.0
C1986 C 0.25524 0.43675 0.77693 0.0
C1987 C 0.24311 0.43777 0.7436 0.0
C1988 C 0.22018 0.45125 0.89271 0.0
C1989 C 0.23606 0.44054 0.83578 0.0
C1990 C 0.21704 0.45465 0.93729 0.0
C1991 C 0.2259 0.45048 0.97335 0.0
C1992 C 0.23244 0.44374 0.88356 0.0
C1993 C 0.23793 0.44276 0.96309 0.0
C1994 C 0.25171 0.43806 0.82317 0.0
C1995 C 0.22721 0.43944 0.75802 0.0
N1996 N 0.24098 0.43974 0.91894 0.0
N1997 N 0.22427 0.44091 0.8028 0.0
H1998 H 0.5449 0.74218 0.94125 0.0
H1999 H 0.57673 0.829 0.76424 0.0
H2000 H 0.57524 0.80191 0.98513 0.0
H2001 H 0.55804 0.76957 0.72914 0.0
H2002 H 0.57489 0.82028 0.84526 0.0
H2003 H 0.54785 0.75284 0.86324 0.0
C2004 C 0.55219 0.75761 0.93454 0.0
C2005 C 0.5598 0.77116 0.96999 0.0
C2006 C 0.5713 0.80927 0.81958 0.0
C2007 C 0.56334 0.78358 0.87974 0.0
C2008 C 0.57231 0.8142 0.77345 0.0
C2009 C 0.56756 0.80002 0.73974 0.0
C2010 C 0.56533 0.79003 0.83175 0.0
C2011 C 0.56192 0.78107 0.75363 0.0
C2012 C 0.55394 0.76371 0.88973 0.0
C2013 C 0.56918 0.79097 0.95882 0.0
N2014 N 0.56092 0.77668 0.79834 0.0
N2015 N 0.57066 0.79662 0.91451 0.0
H2016 H 0.25145 0.77149 0.94411 0.0
H2017 H 0.17438 0.75676 0.75547 0.0
H2018 H 0.20728 0.78622 0.97495 0.0
H2019 H 0.23509 0.77757 0.72936 0.0
H2020 H 0.18143 0.75997 0.83789 0.0
H2021 H 0.23997 0.76477 0.86623 0.0
C2022 C 0.23922 0.77319 0.93463 0.0
C2023 C 0.23044 0.77965 0.96591 0.0
C2024 C 0.19307 0.76385 0.81373 0.0
C2025 C 0.2173 0.77197 0.87669 0.0
C2026 C 0.1891 0.762 0.76706 0.0
C2027 C 0.20422 0.76705 0.73583 0.0
C2028 C 0.21209 0.77022 0.82847 0.0
C2029 C 0.22304 0.77373 0.75225 0.0
C2030 C 0.23273 0.76938 0.89014 0.0
C2031 C 0.21456 0.78146 0.95162 0.0
N2032 N 0.2264 0.77498 0.79742 0.0
N2033 N 0.20848 0.77769 0.90766 0.0
H2034 H 0.13013 0.55683 0.1064 0.0
H2035 H 0.10394 0.5667 0.84989 0.0
H2036 H 0.10155 0.5891 0.07207 0.0
H2037 H 0.14703 0.55172 0.89003 0.0
H2038 H 0.10047 0.57315 0.93008 0.0
H2039 H 0.13351 0.55231 0.02606 0.0
C2040 C 0.12447 0.56292 0.08193 0.0
C2041 C 0.11549 0.57333 0.09605 0.0
C2042 C 0.11073 0.56855 0.92103 0.0
C2043 C 0.11943 0.56824 0.00348 0.0
C2044 C 0.11272 0.56486 0.87537 0.0
C2045 C 0.1257 0.55851 0.86315 0.0
C2046 C 0.12165 0.56566 0.95445 0.0
C2047 C 0.13672 0.55641 0.89762 0.0
C2048 C 0.12652 0.56041 0.03594 0.0
C2049 C 0.10858 0.58099 0.06262 0.0
N2050 N 0.13434 0.55984 0.94155 0.0
N2051 N 0.11063 0.57822 0.01771 0.0
H2052 H 0.4653 0.5963 0.89225 0.0
H2053 H 0.42008 0.51033 0.07411 0.0
H2054 H 0.44436 0.53679 0.8537 0.0
H2055 H 0.45469 0.57108 0.1075 0.0
H2056 H 0.42572 0.51883 0.99299 0.0
H2057 H 0.45804 0.58634 0.97097 0.0
C2058 C 0.45912 0.58108 0.90023 0.0
C2059 C 0.45552 0.56738 0.86609 0.0
C2060 C 0.43208 0.53023 0.01823 0.0
C2061 C 0.44713 0.55581 0.95703 0.0
C2062 C 0.42885 0.52541 0.06446 0.0
C2063 C 0.437 0.54001 0.0977 0.0
C2064 C 0.44332 0.54976 0.00536 0.0
C2065 C 0.44821 0.5593 0.08323 0.0
C2066 C 0.45501 0.5754 0.94542 0.0
C2067 C 0.44742 0.54785 0.87889 0.0
N2068 N 0.45097 0.56358 0.03829 0.0
N2069 N 0.44348 0.54262 0.92346 0.0
H2070 H 0.49758 0.88994 0.06775 0.0
H2071 H 0.45749 0.9267 0.86569 0.0
H2072 H 0.47472 0.92807 0.09375 0.0
H2073 H 0.45127 0.86977 0.87073 0.0
H2074 H 0.47144 0.93302 0.94293 0.0
H2075 H 0.48888 0.88865 0.98789 0.0
C2076 C 0.49101 0.89831 0.05662 0.0
C2077 C 0.48671 0.90901 0.08767 0.0
C2078 C 0.46709 0.91923 0.92679 0.0
C2079 C 0.47677 0.90753 0.9961 0.0
C2080 C 0.45925 0.91565 0.8829 0.0
C2081 C 0.45315 0.89766 0.86218 0.0
C2082 C 0.46926 0.90487 0.9492 0.0
C2083 C 0.45562 0.88376 0.88576 0.0
C2084 C 0.48597 0.89745 0.01104 0.0
C2085 C 0.47815 0.91951 0.07105 0.0
N2086 N 0.46357 0.88769 0.92793 0.0
N2087 N 0.47337 0.91847 0.02626 0.0
H2088 H 0.02534 0.21874 0.12719 0.0
H2089 H 1.0049 0.18507 0.38584 0.0
H2090 H 0.06536 0.21263 0.21527 0.0
H2091 H 0.96499 0.19463 0.30629 0.0
H2092 H 0.02912 0.20002 0.32604 0.0
H2093 H 1.00478 0.21449 0.19356 0.0
C2094 C 0.02994 0.2168 0.1605 0.0
C2095 C 0.04688 0.21565 0.16561 0.0
C2096 C 0.01523 0.19921 0.32166 0.0
C2097 C 0.02358 0.21084 0.24132 0.0
C2098 C 1.00146 0.19075 0.35595 0.0
C2099 C 0.98307 0.18873 0.35075 0.0
C2100 C 0.0104 0.20522 0.28119 0.0
C2101 C 0.97915 0.19614 0.31145 0.0
C2102 C 0.01821 0.21436 0.19831 0.0
C2103 C 0.05221 0.2132 0.20953 0.0
N2104 N 0.99262 0.20379 0.27761 0.0
N2105 N 0.04054 0.21071 0.24545 0.0
H2106 H 0.82662 0.83485 0.11361 0.0
H2107 H 0.80374 0.77979 0.3529 0.0
H2108 H 0.77366 0.81862 0.18635 0.0
H2109 H 0.86022 0.8143 0.29217 0.0
H2110 H 0.78908 0.78572 0.28491 0.0
H2111 H 0.83511 0.81801 0.17018 0.0
C2112 C 0.81663 0.82741 0.14131 0.0
C2113 C 0.79956 0.82823 0.14582 0.0
C2114 C 0.80463 0.79166 0.28642 0.0
C2115 C 0.80941 0.8094 0.21158 0.0
C2116 C 0.81295 0.78822 0.32493 0.0
C2117 C 0.83319 0.79667 0.32804 0.0
C2118 C 0.81672 0.80322 0.25086 0.0
C2119 C 0.84456 0.80759 0.29123 0.0
C2120 C 0.82149 0.81786 0.17369 0.0
C2121 C 0.78699 0.81827 0.18199 0.0
N2122 N 0.83619 0.81055 0.25439 0.0
N2123 N 0.79233 0.8095 0.21422 0.0
H2124 H 0.20002 0.95894 0.1812 0.0
H2125 H 0.20131 0.04968 0.28988 0.0
H2126 H 0.18653 0.99777 0.10882 0.0
H2127 H 0.2339 0.02592 0.35231 0.0
H2128 H 0.19748 0.03097 0.22205 0.0
H2129 H 0.2148 0.98328 0.24237 0.0
C2130 C 0.20073 0.9728 0.17763 0.0
C2131 C 0.1919 0.97637 0.14044 0.0
C2132 C 0.20569 0.02989 0.25014 0.0
C2133 C 0.20837 1.00389 0.2097 0.0
C2134 C 0.20784 0.04059 0.28904 0.0
C2135 C 0.21788 0.0393 0.32673 0.0
C2136 C 0.21314 0.01723 0.24897 0.0
C2137 C 0.22606 0.02728 0.32378 0.0
C2138 C 0.20905 0.98661 0.21249 0.0
C2139 C 0.19297 0.99439 0.13733 0.0
N2140 N 0.22319 0.01635 0.2857 0.0
N2141 N 0.20081 0.00734 0.17169 0.0
H2142 H 0.01903 0.81178 0.61208 0.0
H2143 H 0.99314 0.79664 0.87717 0.0
H2144 H 0.06152 0.83595 0.71953 0.0
H2145 H 0.95271 0.79073 0.77191 0.0
H2146 H 0.0171 0.80183 0.81847 0.0
H2147 H 0.99368 0.79473 0.66939 0.0
C2148 C 0.0231 0.81305 0.64762 0.0
C2149 C 0.04234 0.82546 0.66122 0.0
C2150 C 1.00286 0.79906 0.80828 0.0
C2151 C 0.0135 0.80616 0.72669 0.0
C2152 C 0.98915 0.79601 0.84172 0.0
C2153 C 0.97101 0.79354 0.82938 0.0
C2154 C 0.99831 0.79945 0.76225 0.0
C2155 C 0.96664 0.79288 0.78291 0.0
C2156 C 0.00862 0.80345 0.68028 0.0
C2157 C 0.0468 0.82671 0.70772 0.0
N2158 N 0.98025 0.796 0.75104 0.0
N2159 N 0.03246 0.81735 0.73884 0.0
H2160 H 0.17188 0.22544 0.72138 0.0
H2161 H 0.23403 0.17588 0.78046 0.0
H2162 H 0.20312 0.21289 0.6198 0.0
H2163 H 0.21034 0.19726 0.88157 0.0
H2164 H 0.22675 0.19315 0.72154 0.0
H2165 H 0.18953 0.21929 0.78075 0.0
C2166 C 0.18271 0.22168 0.7116 0.0
C2167 C 0.18589 0.21945 0.66564 0.0
C2168 C 0.22355 0.19447 0.7567 0.0
C2169 C 0.20595 0.21202 0.73352 0.0
C2170 C 0.22778 0.18469 0.79022 0.0
C2171 C 0.22288 0.18539 0.8356 0.0
C2172 C 0.21401 0.20464 0.76879 0.0
C2173 C 0.2145 0.19663 0.84682 0.0
C2174 C 0.19281 0.21817 0.74552 0.0
C2175 C 0.20021 0.21473 0.65485 0.0
N2176 N 0.21009 0.20564 0.81354 0.0
N2177 N 0.20946 0.21081 0.68859 0.0
H2178 H 0.78322 0.99049 0.6231 0.0
H2179 H 0.81488 0.0177 0.88295 0.0
H2180 H 0.80052 0.95829 0.71017 0.0
H2181 H 0.83391 0.06111 0.77769 0.0
H2182 H 0.79681 0.99262 0.82559 0.0
H2183 H 0.78962 0.0134 0.68617 0.0
C2184 C 0.78772 0.9879 0.6559 0.0
C2185 C 0.79126 0.9725 0.66184 0.0
C2186 C 0.80456 0.00771 0.81541 0.0
C2187 C 0.79822 0.99814 0.73345 0.0
C2188 C 0.81475 0.02199 0.84804 0.0
C2189 C 0.826 0.04142 0.8348 0.0
C2190 C 0.80534 0.013 0.76956 0.0
C2191 C 0.82555 0.04622 0.78904 0.0
C2192 C 0.79145 1.00096 0.69159 0.0
C2193 C 0.79745 0.9699 0.70455 0.0
N2194 N 0.81548 0.03208 0.75789 0.0
N2195 N 0.80074 0.98259 0.73876 0.0
H2196 H 0.62432 0.49362 0.61864 0.0
H2197 H 0.72711 0.577 0.53281 0.0
H2198 H 0.66134 0.5428 0.70237 0.0
H2199 H 0.68558 0.52947 0.4509 0.0
H2200 H 0.70198 0.56835 0.59159 0.0
H2201 H 0.64481 0.50988 0.55331 0.0
C2202 C 0.63669 0.50805 0.62293 0.0
C2203 C 0.64127 0.51689 0.66572 0.0
C2204 C 0.69826 0.56013 0.56026 0.0
C2205 C 0.66529 0.5355 0.59134 0.0
C2206 C 0.71254 0.56515 0.52673 0.0
C2207 C 0.70829 0.55385 0.48732 0.0
C2208 C 0.67978 0.54373 0.55396 0.0
C2209 C 0.68937 0.53846 0.48104 0.0
C2210 C 0.64844 0.51737 0.58566 0.0
C2211 C 0.65738 0.5356 0.66969 0.0
N2212 N 0.67591 0.53375 0.51414 0.0
N2213 N 0.6691 0.54419 0.63303 0.0
H2214 H 0.47211 0.11893 0.70657 0.0
H2215 H 0.44501 0.16495 0.5468 0.0
H2216 H 0.51267 0.12415 0.60244 0.0
H2217 H 0.46944 0.14403 0.44652 0.0
H2218 H 0.45219 0.14787 0.60586 0.0
H2219 H 0.4536 0.12512 0.64928 0.0
C2220 C 0.47704 0.12121 0.6716 0.0
C2221 C 0.49422 0.12143 0.6595 0.0
C2222 C 0.4553 0.14627 0.57086 0.0
C2223 C 0.47339 0.12905 0.59391 0.0
C2224 C 0.4512 0.15607 0.53719 0.0
C2225 C 0.45638 0.15554 0.49199 0.0
C2226 C 0.46496 0.13616 0.55907 0.0
C2227 C 0.46494 0.14442 0.48107 0.0
C2228 C 0.46657 0.12498 0.63894 0.0
C2229 C 0.49974 0.12423 0.61355 0.0
N2230 N 0.46926 0.13541 0.51452 0.0
N2231 N 0.48947 0.12809 0.58258 0.0
H2232 H 0.85065 0.3329 0.44725 0.0
H2233 H 0.90116 0.35941 0.69228 0.0
H2234 H 0.86416 0.29383 0.51835 0.0
H2235 H 0.86777 0.38275 0.63205 0.0
H2236 H 0.89598 0.34 0.62259 0.0
H2237 H 0.86657 0.35682 0.50721 0.0
C2238 C 0.85736 0.32957 0.47526 0.0
C2239 C 0.85604 0.31145 0.47831 0.0
C2240 C 0.89005 0.34959 0.62471 0.0
C2241 C 0.87372 0.33843 0.54786 0.0
C2242 C 0.89301 0.36064 0.66423 0.0
C2243 C 0.88465 0.37247 0.6679 0.0
C2244 C 0.87911 0.35092 0.58873 0.0
C2245 C 0.87424 0.37362 0.63082 0.0
C2246 C 0.86635 0.34315 0.50958 0.0
C2247 C 0.86499 0.30776 0.51504 0.0
N2248 N 0.87178 0.36301 0.59297 0.0
N2249 N 0.8732 0.32106 0.5491 0.0
H2250 H 0.61418 0.12394 0.1036 0.0
H2251 H 0.68215 0.14202 0.93611 0.0
H2252 H 0.65728 0.12814 0.19918 0.0
H2253 H 0.72203 0.17373 0.04466 0.0
H2254 H 0.65673 0.12422 0.99287 0.0
H2255 H 0.63672 0.12965 0.04145 0.0
C2256 C 0.62827 0.12564 0.11137 0.0
C2257 C 0.63395 0.12572 0.15658 0.0
C2258 C 0.67108 0.13501 0.00418 0.0
C2259 C 0.65981 0.13218 0.08562 0.0
C2260 C 0.68562 0.14501 0.97188 0.0
C2261 C 0.70407 0.15962 0.98577 0.0
C2262 C 0.67514 0.13966 0.05051 0.0
C2263 C 0.70786 0.16284 0.03252 0.0
C2264 C 0.64107 0.12871 0.0758 0.0
C2265 C 0.65233 0.12796 0.16479 0.0
N2266 N 0.69348 0.15304 0.06321 0.0
N2267 N 0.66479 0.13156 0.12967 0.0
H2268 H 0.89905 0.5058 0.10752 0.0
H2269 H 0.85406 0.57213 0.04542 0.0
H2270 H 0.88432 0.53541 0.20876 0.0
H2271 H 0.87196 0.54428 0.94689 0.0
H2272 H 0.87038 0.564 0.10529 0.0
H2273 H 0.89477 0.52474 0.04833 0.0
C2274 C 0.89518 0.51653 0.11729 0.0
C2275 C 0.89178 0.51887 0.16301 0.0
C2276 C 0.8712 0.56012 0.07042 0.0
C2277 C 0.88647 0.54044 0.09523 0.0
C2278 C 0.86203 0.56489 0.03632 0.0
C2279 C 0.86195 0.55901 0.99142 0.0
C2280 C 0.88005 0.54916 0.05934 0.0
C2281 C 0.87198 0.54924 0.98118 0.0
C2282 C 0.89273 0.52737 0.08347 0.0
C2283 C 0.88704 0.53315 0.17386 0.0
N2284 N 0.88044 0.54444 0.01496 0.0
N2285 N 0.88416 0.54316 0.1401 0.0
H2286 H 0.47235 0.35825 0.1961 0.0
H2287 H 0.49333 0.33037 0.94974 0.0
H2288 H 0.52633 0.38861 0.12263 0.0
H2289 H 0.44146 0.29254 0.02489 0.0
H2290 H 0.5018 0.35543 0.00681 0.0
H2291 H 0.45738 0.33741 0.12889 0.0
C2292 C 0.48087 0.36076 0.16553 0.0
C2293 C 0.50061 0.37494 0.16481 0.0
C2294 C 0.48843 0.34177 0.01087 0.0
C2295 C 0.48377 0.35148 0.08853 0.0
C2296 C 0.48359 0.3275 0.97818 0.0
C2297 C 0.46681 0.30941 0.98307 0.0
C2298 C 0.47665 0.33783 0.0495 0.0
C2299 C 0.45455 0.30639 0.02018 0.0
C2300 C 0.4724 0.34886 0.12741 0.0
C2301 C 0.51112 0.37764 0.1247 0.0
N2302 N 0.45989 0.32039 0.05263 0.0
N2303 N 0.50262 0.36598 0.0884 0.0
H2304 H 0.35163 0.87267 0.77704 0.0
H2305 H 0.32689 0.8639 0.04263 0.0
H2306 H 0.39453 0.88895 0.88298 0.0
H2307 H 0.28687 0.82638 0.94026 0.0
H2308 H 0.35055 0.88192 0.98255 0.0
H2309 H 0.3267 0.86468 0.83547 0.0
C2310 C 0.35587 0.87508 0.81251 0.0
C2311 C 0.37506 0.88125 0.8254 0.0
C2312 C 0.33644 0.86995 0.97333 0.0
C2313 C 0.34681 0.87223 0.89193 0.0
C2314 C 0.32294 0.85973 0.00747 0.0
C2315 C 0.30504 0.84348 0.99633 0.0
C2316 C 0.33184 0.86404 0.92784 0.0
C2317 C 0.30064 0.83865 0.95028 0.0
C2318 C 0.34166 0.8704 0.84575 0.0
C2319 C 0.37981 0.88399 0.87179 0.0
N2320 N 0.31401 0.84881 0.91769 0.0
N2321 N 0.36575 0.87932 0.90346 0.0
H2322 H 0.15198 0.43657 0.9816 0.0
H2323 H 0.15314 0.52598 0.86274 0.0
H2324 H 0.1719 0.49225 0.04432 0.0
H2325 H 0.11697 0.46833 0.80979 0.0
H2326 H 0.15866 0.51247 0.93084 0.0
H2327 H 0.13696 0.44589 0.92036 0.0
C2328 C 0.15274 0.45051 0.98299 0.0
C2329 C 0.16339 0.46383 0.01737 0.0
C2330 C 0.14935 0.50261 0.90476 0.0
C2331 C 0.14659 0.47454 0.94821 0.0
C2332 C 0.14627 0.51038 0.86565 0.0
C2333 C 0.13472 0.49826 0.83051 0.0
C2334 C 0.14124 0.48247 0.90872 0.0
C2335 C 0.12603 0.47812 0.83625 0.0
C2336 C 0.14427 0.45584 0.94812 0.0
C2337 C 0.1641 0.48172 0.01787 0.0
N2338 N 0.12974 0.47079 0.8745 0.0
N2339 N 0.15601 0.48659 0.98364 0.0
H2340 H 0.52173 0.67629 0.0477 0.0
H2341 H 0.54633 0.6455 0.8093 0.0
H2342 H 0.57634 0.71311 0.98103 0.0
H2343 H 0.48924 0.62886 0.86023 0.0
H2344 H 0.56047 0.6651 0.87885 0.0
H2345 H 0.51314 0.65244 0.98754 0.0
C2346 C 0.53204 0.67918 0.02055 0.0
C2347 C 0.5496 0.69672 0.0187 0.0
C2348 C 0.54487 0.65697 0.87462 0.0
C2349 C 0.53968 0.66972 0.94908 0.0
C2350 C 0.53683 0.64582 0.8352 0.0
C2351 C 0.51662 0.63575 0.82896 0.0
C2352 C 0.53248 0.65743 0.90802 0.0
C2353 C 0.50489 0.63656 0.86338 0.0
C2354 C 0.52712 0.66561 0.98617 0.0
C2355 C 0.56261 0.6997 0.98327 0.0
N2356 N 0.51298 0.64715 0.90127 0.0
N2357 N 0.55723 0.68642 0.94907 0.0
H2358 H 0.35359 0.47583 0.28736 0.0
H2359 H 0.32836 0.46053 0.55303 0.0
H2360 H 0.39639 0.50121 0.39384 0.0
H2361 H 0.28744 0.4536 0.44813 0.0
H2362 H 0.35256 0.46662 0.49401 0.0
H2363 H 0.32857 0.45863 0.34529 0.0
C2364 C 0.3578 0.47736 0.32282 0.0
C2365 C 0.37702 0.49014 0.33596 0.0
C2366 C 0.33817 0.46345 0.484 0.0
C2367 C 0.34856 0.47067 0.40216 0.0
C2368 C 0.32434 0.45988 0.5176 0.0
C2369 C 0.30598 0.45684 0.50541 0.0
C2370 C 0.33347 0.46371 0.43801 0.0
C2371 C 0.30154 0.4562 0.45899 0.0
C2372 C 0.34351 0.46768 0.35585 0.0
C2373 C 0.38167 0.49172 0.3824 0.0
N2374 N 0.31523 0.45975 0.42699 0.0
N2375 N 0.36752 0.48226 0.41388 0.0
H2376 H 0.52306 0.90383 0.36783 0.0
H2377 H 0.56052 0.83193 0.44548 0.0
H2378 H 0.52309 0.8594 0.28458 0.0
H2379 H 0.54618 0.8635 0.54213 0.0
H2380 H 0.55517 0.84902 0.38367 0.0
H2381 H 0.53899 0.8957 0.42923 0.0
C2382 C 0.52689 0.89272 0.36222 0.0
C2383 C 0.52189 0.88224 0.3214 0.0
C2384 C 0.55339 0.85243 0.41835 0.0
C2385 C 0.53987 0.87292 0.39065 0.0
C2386 C 0.55649 0.8427 0.45369 0.0
C2387 C 0.55346 0.84608 0.49893 0.0
C2388 C 0.54696 0.86554 0.42805 0.0
C2389 C 0.54856 0.86043 0.50765 0.0
C2390 C 0.53582 0.88801 0.39718 0.0
C2391 C 0.52677 0.86778 0.31569 0.0
N2392 N 0.54512 0.86944 0.47238 0.0
N2393 N 0.53543 0.86352 0.34994 0.0
H2394 H 0.1802 0.72574 0.44031 0.0
H2395 H 0.11746 0.6149 0.38936 0.0
H2396 H 0.14367 0.68498 0.54263 0.0
H2397 H 0.13563 0.65773 0.28295 0.0
H2398 H 0.12493 0.64019 0.44575 0.0
H2399 H 0.16255 0.70147 0.3817 0.0
C2400 C 0.16827 0.71174 0.45034 0.0
C2401 C 0.16353 0.70725 0.49639 0.0
C2402 C 0.1269 0.64403 0.41003 0.0
C2403 C 0.14343 0.67933 0.42959 0.0
C2404 C 0.12268 0.6296 0.37787 0.0
C2405 C 0.12612 0.6343 0.33156 0.0
C2406 C 0.13508 0.66337 0.39585 0.0
C2407 C 0.13277 0.65352 0.31837 0.0
C2408 C 0.15814 0.69792 0.41686 0.0
C2409 C 0.14782 0.68899 0.50751 0.0
N2410 N 0.13744 0.66746 0.35047 0.0
N2411 N 0.13857 0.67554 0.47439 0.0
H2412 H 0.08838 0.2868 0.09267 0.0
H2413 H 0.18592 0.38721 0.04391 0.0
H2414 H 0.14317 0.29258 0.05184 0.0
H2415 H 0.13929 0.38508 0.12343 0.0
H2416 H 0.16751 0.35215 0.0367 0.0
H2417 H 0.10433 0.32247 0.09693 0.0
C2418 C 0.10369 0.29547 0.08481 0.0
C2419 C 0.11438 0.28658 0.07183 0.0
C2420 C 0.16122 0.35931 0.05566 0.0
C2421 C 0.13252 0.32717 0.07586 0.0
C2422 C 0.17173 0.37941 0.05962 0.0
C2423 C 0.16429 0.38919 0.08475 0.0
C2424 C 0.14303 0.34871 0.07682 0.0
C2425 C 0.14567 0.37816 0.10396 0.0
C2426 C 0.11275 0.31579 0.08715 0.0
C2427 C 0.1342 0.2986 0.06196 0.0
N2428 N 0.1357 0.35847 0.09982 0.0
N2429 N 0.1425 0.31813 0.06396 0.0
H2430 H 0.72496 0.83737 0.14084 0.0
H2431 H 0.62436 0.78252 0.01718 0.0
H2432 H 0.72214 0.81739 0.00329 0.0
H2433 H 0.62977 0.7667 0.15443 0.0
H2434 H 0.66 0.80035 0.01068 0.0
H2435 H 0.68951 0.81646 0.14684 0.0
C2436 C 0.71688 0.82854 0.11204 0.0
C2437 C 0.72645 0.82898 0.07164 0.0
C2438 C 0.6533 0.79281 0.042 0.0
C2439 C 0.6861 0.80561 0.07783 0.0
C2440 C 0.63305 0.78268 0.04573 0.0
C2441 C 0.62416 0.773 0.08624 0.0
C2442 C 0.66466 0.79381 0.07957 0.0
C2443 C 0.63607 0.77377 0.12241 0.0
C2444 C 0.69674 0.81662 0.11552 0.0
C2445 C 0.71531 0.8173 0.0352 0.0
N2446 N 0.65573 0.78426 0.11851 0.0
N2447 N 0.69568 0.8063 0.03889 0.0
H2448 H 0.26042 0.86941 0.06797 0.0
H2449 H 0.16394 0.87398 0.12166 0.0
H2450 H 0.20615 0.82094 0.11321 0.0
H2451 H 0.21209 0.91889 0.04659 0.0
H2452 H 0.1816 0.85641 0.12819 0.0
H2453 H 0.24494 0.88952 0.06713 0.0
C2454 C 0.24531 0.86298 0.07759 0.0
C2455 C 0.23461 0.84341 0.09053 0.0
C2456 C 0.18837 0.87016 0.11045 0.0
C2457 C 0.21695 0.86633 0.09032 0.0
C2458 C 0.17831 0.88028 0.10694 0.0
C2459 C 0.18642 0.89789 0.08316 0.0
C2460 C 0.20675 0.87767 0.09021 0.0
C2461 C 0.20518 0.9053 0.06496 0.0
C2462 C 0.2365 0.87446 0.07719 0.0
C2463 C 0.21506 0.83589 0.1028 0.0
N2464 N 0.21467 0.89511 0.06863 0.0
N2465 N 0.20695 0.84734 0.10252 0.0
H2466 H 0.38702 0.18817 0.41333 0.0
H2467 H 0.29152 0.0852 0.42843 0.0
H2468 H 0.38916 0.13603 0.38647 0.0
H2469 H 0.29139 0.13722 0.38806 0.0
H2470 H 0.32713 0.10286 0.42224 0.0
H2471 H 0.35171 0.16906 0.41521 0.0
C2472 C 0.38008 0.17266 0.40811 0.0
C2473 C 0.39112 0.16371 0.39966 0.0
C2474 C 0.3192 0.11027 0.4144 0.0
C2475 C 0.35052 0.14169 0.40196 0.0
C2476 C 0.29892 0.10025 0.41794 0.0
C2477 C 0.2884 0.10973 0.40887 0.0
C2478 C 0.32901 0.13 0.40268 0.0
C2479 C 0.29879 0.12925 0.39536 0.0
C2480 C 0.35989 0.16178 0.40888 0.0
C2481 C 0.38122 0.14354 0.39291 0.0
N2482 N 0.31847 0.13876 0.39323 0.0
N2483 N 0.36144 0.13315 0.3945 0.0
H2484 H 0.86591 0.24541 0.33154 0.0
H2485 H 0.915 0.20039 0.48448 0.0
H2486 H 0.84677 0.22763 0.46941 0.0
H2487 H 0.89836 0.18069 0.34645 0.0
H2488 H 0.89763 0.21847 0.47885 0.0
H2489 H 0.88546 0.22946 0.33613 0.0
C2490 C 0.86605 0.23839 0.36298 0.0
C2491 C 0.85477 0.23784 0.40025 0.0
C2492 C 0.89797 0.21032 0.44975 0.0
C2493 C 0.87723 0.21993 0.40573 0.0
C2494 C 0.90798 0.20014 0.45271 0.0
C2495 C 0.90814 0.18907 0.41576 0.0
C2496 C 0.8885 0.20985 0.40919 0.0
C2497 C 0.89856 0.18905 0.37566 0.0
C2498 C 0.87707 0.22921 0.36537 0.0
C2499 C 0.85526 0.22833 0.43996 0.0
N2500 N 0.88922 0.19941 0.37327 0.0
N2501 N 0.86647 0.21988 0.44184 0.0
H2502 H 0.80613 0.72357 0.42859 0.0
H2503 H 0.81373 0.62765 0.43087 0.0
H2504 H 0.85978 0.72373 0.40571 0.0
H2505 H 0.76052 0.62657 0.39583 0.0
H2506 H 0.83035 0.66303 0.43323 0.0
H2507 H 0.78864 0.68804 0.42591 0.0
C2508 C 0.81421 0.71616 0.42266 0.0
C2509 C 0.83446 0.72666 0.4173 0.0
C2510 C 0.81503 0.65503 0.42514 0.0
C2511 C 0.8146 0.6861 0.41523 0.0
C2512 C 0.80548 0.63482 0.42417 0.0
C2513 C 0.78569 0.62411 0.413 0.0
C2514 C 0.80469 0.66463 0.41558 0.0
C2515 C 0.7758 0.63426 0.40439 0.0
C2516 C 0.80422 0.69591 0.42119 0.0
C2517 C 0.84418 0.71628 0.40977 0.0
N2518 N 0.78539 0.65396 0.40596 0.0
N2519 N 0.83419 0.69659 0.40942 0.0
H2520 H 0.83043 0.62635 0.95571 0.0
H2521 H 0.92744 0.72742 0.90535 0.0
H2522 H 0.87812 0.63014 0.87752 0.0
H2523 H 0.87532 0.72177 0.96516 0.0
H2524 H 0.91134 0.69187 0.90048 0.0
H2525 H 0.84853 0.66137 0.96579 0.0
C2526 C 0.84475 0.63452 0.94078 0.0
C2527 C 0.85265 0.62522 0.9154 0.0
C2528 C 0.90351 0.69849 0.91475 0.0
C2529 C 0.87357 0.66558 0.92677 0.0
C2530 C 0.9127 0.71876 0.91762 0.0
C2531 C 0.90273 0.72766 0.93549 0.0
C2532 C 0.8843 0.68709 0.93022 0.0
C2533 C 0.88361 0.71567 0.95082 0.0
C2534 C 0.8551 0.65458 0.94649 0.0
C2535 C 0.87138 0.63667 0.89715 0.0
N2536 N 0.87509 0.69612 0.94783 0.0
N2537 N 0.88117 0.65625 0.90303 0.0
H2538 H 0.29414 0.19186 0.99298 0.0
H2539 H 0.38876 0.2424 0.84275 0.0
H2540 H 0.29304 0.17436 0.85374 0.0
H2541 H 0.39136 0.22295 0.97818 0.0
H2542 H 0.35325 0.22504 0.84775 0.0
H2543 H 0.32976 0.21089 0.98944 0.0
C2544 C 0.3014 0.19224 0.96152 0.0
C2545 C 0.29072 0.18159 0.92351 0.0
C2546 C 0.36166 0.22474 0.87642 0.0
C2547 C 0.33115 0.20345 0.9192 0.0
C2548 C 0.38186 0.23472 0.87381 0.0
C2549 C 0.39297 0.23411 0.91021 0.0
C2550 C 0.35253 0.21454 0.91614 0.0
C2551 C 0.38328 0.22373 0.94941 0.0
C2552 C 0.32164 0.20295 0.9597 0.0
C2553 C 0.3008 0.18237 0.88374 0.0
N2554 N 0.36355 0.21445 0.95154 0.0
N2555 N 0.32049 0.19329 0.88243 0.0
H2556 H 0.79815 0.1819 0.94345 0.0
H2557 H 0.80298 0.08493 0.90498 0.0
H2558 H 0.7516 0.13187 0.87769 0.0
H2559 H 0.8477 0.13769 0.96637 0.0
H2560 H 0.78214 0.09963 0.90003 0.0
H2561 H 0.81435 0.16362 0.95881 0.0
C2562 C 0.79127 0.16693 0.93245 0.0
C2563 C 0.77362 0.15845 0.90883 0.0
C2564 C 0.79647 0.10785 0.91483 0.0
C2565 C 0.79238 0.13728 0.92566 0.0
C2566 C 0.80836 0.09949 0.91771 0.0
C2567 C 0.82722 0.11014 0.93574 0.0
C2568 C 0.80352 0.12691 0.9304 0.0
C2569 C 0.83341 0.12893 0.95172 0.0
C2570 C 0.80056 0.15645 0.94119 0.0
C2571 C 0.76523 0.13891 0.89597 0.0
N2572 N 0.82167 0.13664 0.94854 0.0
N2573 N 0.77484 0.129 0.904 0.0
H2574 H 0.71875 0.92148 0.534 0.0
H2575 H 0.62807 0.82865 0.64379 0.0
H2576 H 0.72258 0.88081 0.62441 0.0
H2577 H 0.62114 0.87027 0.56403 0.0
H2578 H 0.66294 0.84893 0.63845 0.0
H2579 H 0.68348 0.90446 0.54604 0.0
C2580 C 0.71224 0.9091 0.55663 0.0
C2581 C 0.72368 0.90246 0.57787 0.0
C2582 C 0.65392 0.85379 0.62217 0.0
C2583 C 0.68339 0.88297 0.59163 0.0
C2584 C 0.6339 0.84213 0.6251 0.0
C2585 C 0.62158 0.84766 0.60399 0.0
C2586 C 0.66198 0.87118 0.59752 0.0
C2587 C 0.6301 0.86546 0.58078 0.0
C2588 C 0.6921 0.8994 0.56342 0.0
C2589 C 0.71442 0.88638 0.60689 0.0
N2590 N 0.64983 0.87654 0.57777 0.0
N2591 N 0.6949 0.87719 0.61264 0.0
H2592 H 0.18819 0.80567 0.5662 0.0
H2593 H 0.08639 0.80258 0.58003 0.0
H2594 H 0.13509 0.75219 0.59275 0.0
H2595 H 0.13985 0.8505 0.52937 0.0
H2596 H 0.10266 0.78319 0.58553 0.0
H2597 H 0.16961 0.82173 0.55335 0.0
C2598 C 0.17253 0.79726 0.56923 0.0
C2599 C 0.16321 0.77758 0.58089 0.0
C2600 C 0.11068 0.79791 0.57292 0.0
C2601 C 0.14158 0.79606 0.56634 0.0
C2602 C 0.10142 0.80898 0.56978 0.0
C2603 C 0.11177 0.82829 0.55457 0.0
C2604 C 0.13037 0.8063 0.56086 0.0
C2605 C 0.13123 0.8358 0.54172 0.0
C2606 C 0.16186 0.80645 0.56173 0.0
C2607 C 0.14284 0.7674 0.58378 0.0
N2608 N 0.13981 0.82487 0.54538 0.0
N2609 N 0.13266 0.77682 0.57701 0.0
H2610 H 0.26271 0.38558 0.60429 0.0
H2611 H 0.16407 0.29189 0.52608 0.0
H2612 H 0.20852 0.38362 0.57633 0.0
H2613 H 0.21011 0.2863 0.58886 0.0
H2614 H 0.18332 0.32665 0.53366 0.0
H2615 H 0.24659 0.35036 0.58947 0.0
C2616 C 0.24753 0.3778 0.59479 0.0
C2617 C 0.23689 0.3875 0.59192 0.0
C2618 C 0.18933 0.31793 0.54588 0.0
C2619 C 0.21858 0.3476 0.57466 0.0
C2620 C 0.1783 0.29795 0.54152 0.0
C2621 C 0.18534 0.28601 0.55736 0.0
C2622 C 0.20767 0.32635 0.56645 0.0
C2623 C 0.20407 0.29494 0.57642 0.0
C2624 C 0.23835 0.35776 0.58656 0.0
C2625 C 0.21727 0.37677 0.57952 0.0
N2626 N 0.21459 0.31465 0.58075 0.0
N2627 N 0.20884 0.35752 0.57139 0.0
H2628 H 0.96084 0.47033 0.72861 0.0
H2629 H 0.05806 0.46565 0.73675 0.0
H2630 H 0.95977 0.41754 0.76726 0.0
H2631 H 0.05587 0.51733 0.76922 0.0
H2632 H 0.02239 0.44712 0.737 0.0
H2633 H 0.99626 0.48723 0.72946 0.0
C2634 C 0.96803 0.46219 0.7366 0.0
C2635 C 0.95728 0.44246 0.74799 0.0
C2636 C 0.0298 0.46248 0.74446 0.0
C2637 C 0.99789 0.46183 0.74914 0.0
C2638 C 0.0501 0.47305 0.74444 0.0
C2639 C 0.05998 0.49307 0.75306 0.0
C2640 C 0.01936 0.47212 0.75202 0.0
C2641 C 0.04893 0.50192 0.76266 0.0
C2642 C 0.98825 0.47192 0.73753 0.0
C2643 C 0.96748 0.43276 0.7584 0.0
N2644 N 0.02924 0.49145 0.76128 0.0
N2645 N 0.98725 0.44254 0.75862 0.0
H2646 H 0.59864 0.54333 0.77763 0.0
H2647 H 0.49617 0.53822 0.78326 0.0
H2648 H 0.5442 0.49112 0.75158 0.0
H2649 H 0.54723 0.58983 0.73599 0.0
H2650 H 0.51519 0.52199 0.78909 0.0
H2651 H 0.58138 0.56181 0.77711 0.0
C2652 C 0.58312 0.53578 0.77171 0.0
C2653 C 0.57287 0.51566 0.76443 0.0
C2654 C 0.52225 0.53692 0.77776 0.0
C2655 C 0.55313 0.53653 0.76501 0.0
C2656 C 0.51145 0.54627 0.77473 0.0
C2657 C 0.52007 0.56541 0.75876 0.0
C2658 C 0.54192 0.54681 0.76546 0.0
C2659 C 0.53997 0.57502 0.74814 0.0
C2660 C 0.57333 0.54631 0.77141 0.0
C2661 C 0.55277 0.5066 0.757 0.0
N2662 N 0.55026 0.56562 0.75165 0.0
N2663 N 0.54357 0.51706 0.7579 0.0
H2664 H 0.52018 0.04993 0.7457 0.0
H2665 H 0.4181 0.95078 0.74274 0.0
H2666 H 0.46639 0.05007 0.76253 0.0
H2667 H 0.47453 0.95672 0.72159 0.0
H2668 H 0.43392 0.9864 0.7497 0.0
H2669 H 0.50224 0.0153 0.73551 0.0
C2670 C 0.50449 0.04263 0.74731 0.0
C2671 C 0.49483 0.05297 0.75551 0.0
C2672 C 0.44271 0.97978 0.74342 0.0
C2673 C 0.47382 0.01267 0.74377 0.0
C2674 C 0.43372 0.95948 0.73954 0.0
C2675 C 0.44495 0.95064 0.73152 0.0
C2676 C 0.46301 0.99116 0.73928 0.0
C2677 C 0.46513 0.96267 0.72768 0.0
C2678 C 0.49416 0.02271 0.74136 0.0
C2679 C 0.47441 0.04263 0.75637 0.0
N2680 N 0.47337 0.98211 0.73159 0.0
N2681 N 0.46452 0.02294 0.75093 0.0
H2682 H 0.53821 0.05159 0.28107 0.0
H2683 H 0.54576 0.95889 0.21162 0.0
H2684 H 0.59225 0.05668 0.23625 0.0
H2685 H 0.49755 0.95671 0.28414 0.0
H2686 H 0.56323 0.99433 0.21812 0.0
H2687 H 0.52317 0.01668 0.27847 0.0
C2688 C 0.54698 0.0454 0.27049 0.0
C2689 C 0.56663 0.05725 0.25887 0.0
C2690 C 0.5489 0.98604 0.23288 0.0
C2691 C 0.54921 0.01676 0.25594 0.0
C2692 C 0.5389 0.96581 0.22928 0.0
C2693 C 0.52004 0.95474 0.24707 0.0
C2694 C 0.53992 0.99528 0.25412 0.0
C2695 C 0.51197 0.96455 0.26965 0.0
C2696 C 0.53833 0.02534 0.26925 0.0
C2697 C 0.57709 0.04816 0.2455 0.0
N2698 N 0.52187 0.98419 0.27216 0.0
N2699 N 0.56823 0.02841 0.24427 0.0
H2700 H 0.95772 0.54125 0.25365 0.0
H2701 H 0.05407 0.53379 0.23436 0.0
H2702 H 0.9611 0.48938 0.27423 0.0
H2703 H 0.05719 0.5894 0.24043 0.0
H2704 H 0.01934 0.51791 0.24409 0.0
H2705 H 0.99333 0.55973 0.24465 0.0
C2706 C 0.96587 0.53376 0.25638 0.0
C2707 C 0.9563 0.51368 0.26474 0.0
C2708 C 0.02748 0.5336 0.24341 0.0
C2709 C 0.99686 0.53465 0.25427 0.0
C2710 C 0.04746 0.54275 0.23765 0.0
C2711 C 0.05872 0.56304 0.23638 0.0
C2712 C 0.01831 0.54465 0.2479 0.0
C2713 C 0.0491 0.57372 0.24121 0.0
C2714 C 0.98617 0.54432 0.25132 0.0
C2715 C 0.96766 0.50477 0.26791 0.0
N2716 N 0.02939 0.56439 0.24662 0.0
N2717 N 0.98717 0.51526 0.26257 0.0
H2718 H 0.42283 0.46888 0.26803 0.0
H2719 H 0.5172 0.46227 0.20271 0.0
H2720 H 0.47227 0.51222 0.19342 0.0
H2721 H 0.47437 0.42266 0.29781 0.0
H2722 H 0.49798 0.47785 0.19151 0.0
H2723 H 0.43875 0.44917 0.27265 0.0
C2724 C 0.43691 0.47417 0.25235 0.0
C2725 C 0.44627 0.4923 0.23057 0.0
C2726 C 0.49268 0.46572 0.21478 0.0
C2727 C 0.46443 0.46989 0.23552 0.0
C2728 C 0.50368 0.45676 0.22119 0.0
C2729 C 0.49755 0.44124 0.25171 0.0
C2730 C 0.47532 0.45925 0.23908 0.0
C2731 C 0.47972 0.43465 0.27413 0.0
C2732 C 0.44599 0.46296 0.25512 0.0
C2733 C 0.46452 0.49846 0.21094 0.0
N2734 N 0.46928 0.44379 0.26765 0.0
N2735 N 0.47294 0.48733 0.21393 0.0
loop_
_geom_bond_atom_site_label_1
_geom_bond_atom_site_label_2
_geom_bond_distance
_geom_bond_site_symmetry_2
_ccdc_geom_bond_type
Fe0 O2 1.918 . S
Fe0 O5 1.997 . S
Fe0 O6 2.002 1_554 S
Fe0 O11 1.976 . S
Fe0 O14 1.996 . S
Fe1 O2 1.918 . S
Fe1 O9 1.997 . S
Fe1 O12 1.996 . S
Fe1 O16 1.976 . S
Fe1 O19 2.002 . S
O2 Fe0 1.918 . S
O2 Fe1 1.918 . S
O2 Fe3 1.918 . S
Fe3 O2 1.918 . S
Fe3 O4 2.002 . S
Fe3 O13 1.976 . S
Fe3 O17 1.996 . S
Fe3 O20 1.997 . S
O4 Fe3 2.002 . S
O4 C21 1.295 . S
O5 Fe0 1.997 . S
O5 C21 1.235 . S
O6 Fe0 2.002 1_556 S
O6 C7 1.295 . S
C7 O6 1.295 . S
C7 O9 1.235 1_556 S
C8 O13 1.287 . S
C8 O14 1.255 . S
O9 Fe1 1.997 . S
O9 C7 1.235 1_554 S
C10 O16 1.287 . S
C10 O17 1.255 . S
O11 Fe0 1.976 . S
O11 C18 1.287 . S
O12 Fe1 1.996 . S
O12 C18 1.255 . S
O13 Fe3 1.976 . S
O13 C8 1.287 . S
O14 Fe0 1.996 . S
O14 C8 1.255 . S
C15 O19 1.295 . S
C15 O20 1.235 . S
O16 Fe1 1.976 . S
O16 C10 1.287 . S
O17 Fe3 1.996 . S
O17 C10 1.255 . S
C18 O11 1.287 . S
C18 O12 1.255 . S
O19 Fe1 2.002 . S
O19 C15 1.295 . S
O20 Fe3 1.997 . S
O20 C15 1.235 . S
C21 O4 1.295 . S
C21 O5 1.235 . S
Fe22 O24 1.918 . S
Fe22 O27 1.997 . S
Fe22 O28 2.002 . S
Fe22 O33 1.976 . S
Fe22 O36 1.996 . S
Fe23 O24 1.918 . S
Fe23 O31 1.997 . S
Fe23 O34 1.996 . S
Fe23 O38 1.976 . S
Fe23 O41 2.002 1_554 S
O24 Fe22 1.918 . S
O24 Fe23 1.918 . S
O24 Fe25 1.918 . S
Fe25 O24 1.918 . S
Fe25 O26 2.002 . S
Fe25 O35 1.976 . S
Fe25 O39 1.996 . S
Fe25 O42 1.997 . S
O26 Fe25 2.002 . S
O26 C43 1.295 . S
O27 Fe22 1.997 . S
O27 C43 1.235 . S
O28 Fe22 2.002 . S
O28 C29 1.295 . S
C29 O28 1.295 . S
C29 O31 1.235 . S
C30 O35 1.287 . S
C30 O36 1.255 . S
O31 Fe23 1.997 . S
O31 C29 1.235 . S
C32 O38 1.287 . S
C32 O39 1.255 . S
O33 Fe22 1.976 . S
O33 C40 1.287 . S
O34 Fe23 1.996 . S
O34 C40 1.255 . S
O35 Fe25 1.976 . S
O35 C30 1.287 . S
O36 Fe22 1.996 . S
O36 C30 1.255 . S
C37 O41 1.295 . S
C37 O42 1.235 1_556 S
O38 Fe23 1.976 . S
O38 C32 1.287 . S
O39 Fe25 1.996 . S
O39 C32 1.255 . S
C40 O33 1.287 . S
C40 O34 1.255 . S
O41 Fe23 2.002 1_556 S
O41 C37 1.295 . S
O42 Fe25 1.997 . S
O42 C37 1.235 1_554 S
C43 O26 1.295 . S
C43 O27 1.235 . S
Fe44 O46 1.918 . S
Fe44 O49 1.997 . S
Fe44 O50 2.002 . S
Fe44 O55 1.976 . S
Fe44 O58 1.996 . S
Fe45 O46 1.918 . S
Fe45 O53 1.997 . S
Fe45 O56 1.996 . S
Fe45 O60 1.976 . S
Fe45 O63 2.002 1_554 S
O46 Fe44 1.918 . S
O46 Fe45 1.918 . S
O46 Fe47 1.918 . S
Fe47 O46 1.918 . S
Fe47 O48 2.002 . S
Fe47 O57 1.976 . S
Fe47 O61 1.996 . S
Fe47 O64 1.997 . S
O48 Fe47 2.002 . S
O48 C65 1.295 . S
O49 Fe44 1.997 . S
O49 C65 1.235 . S
O50 Fe44 2.002 . S
O50 C51 1.295 . S
C51 O50 1.295 . S
C51 O53 1.235 . S
C52 O57 1.287 . S
C52 O58 1.255 . S
O53 Fe45 1.997 . S
O53 C51 1.235 . S
C54 O60 1.287 . S
C54 O61 1.255 . S
O55 Fe44 1.976 . S
O55 C62 1.287 . S
O56 Fe45 1.996 . S
O56 C62 1.255 . S
O57 Fe47 1.976 . S
O57 C52 1.287 . S
O58 Fe44 1.996 . S
O58 C52 1.255 . S
C59 O63 1.295 . S
C59 O64 1.235 1_556 S
O60 Fe45 1.976 . S
O60 C54 1.287 . S
O61 Fe47 1.996 . S
O61 C54 1.255 . S
C62 O55 1.287 . S
C62 O56 1.255 . S
O63 Fe45 2.002 1_556 S
O63 C59 1.295 . S
O64 Fe47 1.997 . S
O64 C59 1.235 1_554 S
C65 O48 1.295 . S
C65 O49 1.235 . S
Fe66 O68 1.918 . S
Fe66 O71 1.997 . S
Fe66 O72 2.002 . S
Fe66 O77 1.976 . S
Fe66 O80 1.996 . S
Fe67 O68 1.918 . S
Fe67 O75 1.997 . S
Fe67 O78 1.996 . S
Fe67 O82 1.976 . S
Fe67 O85 2.002 . S
O68 Fe66 1.918 . S
O68 Fe67 1.918 . S
O68 Fe69 1.918 . S
Fe69 O68 1.918 . S
Fe69 O70 2.002 . S
Fe69 O79 1.976 . S
Fe69 O83 1.996 . S
Fe69 O86 1.997 . S
O70 Fe69 2.002 . S
O70 C87 1.295 . S
O71 Fe66 1.997 . S
O71 C87 1.235 . S
O72 Fe66 2.002 . S
O72 C73 1.295 . S
C73 O72 1.295 . S
C73 O75 1.235 . S
C74 O79 1.287 . S
C74 O80 1.255 . S
O75 Fe67 1.997 . S
O75 C73 1.235 . S
C76 O82 1.287 . S
C76 O83 1.255 . S
O77 Fe66 1.976 . S
O77 C84 1.287 . S
O78 Fe67 1.996 . S
O78 C84 1.255 . S
O79 Fe69 1.976 . S
O79 C74 1.287 . S
O80 Fe66 1.996 . S
O80 C74 1.255 . S
C81 O85 1.295 . S
C81 O86 1.235 . S
O82 Fe67 1.976 . S
O82 C76 1.287 . S
O83 Fe69 1.996 . S
O83 C76 1.255 . S
C84 O77 1.287 . S
C84 O78 1.255 . S
O85 Fe67 2.002 . S
O85 C81 1.295 . S
O86 Fe69 1.997 . S
O86 C81 1.235 . S
C87 O70 1.295 . S
C87 O71 1.235 . S
Fe88 O90 1.918 . S
Fe88 O93 1.997 . S
Fe88 O94 2.002 . S
Fe88 O99 1.976 . S
Fe88 O102 1.996 . S
Fe89 O90 1.918 . S
Fe89 O97 1.997 . S
Fe89 O100 1.996 . S
Fe89 O104 1.976 . S
Fe89 O107 2.002 . S
O90 Fe88 1.918 . S
O90 Fe89 1.918 . S
O90 Fe91 1.918 . S
Fe91 O90 1.918 . S
Fe91 O92 2.002 . S
Fe91 O101 1.976 . S
Fe91 O105 1.996 . S
Fe91 O108 1.997 . S
O92 Fe91 2.002 . S
O92 C109 1.295 . S
O93 Fe88 1.997 . S
O93 C109 1.235 . S
O94 Fe88 2.002 . S
O94 C95 1.295 . S
C95 O94 1.295 . S
C95 O97 1.235 . S
C96 O101 1.287 . S
C96 O102 1.255 . S
O97 Fe89 1.997 . S
O97 C95 1.235 . S
C98 O104 1.287 . S
C98 O105 1.255 . S
O99 Fe88 1.976 . S
O99 C106 1.287 . S
O100 Fe89 1.996 . S
O100 C106 1.255 . S
O101 Fe91 1.976 . S
O101 C96 1.287 . S
O102 Fe88 1.996 . S
O102 C96 1.255 . S
C103 O107 1.295 . S
C103 O108 1.235 . S
O104 Fe89 1.976 . S
O104 C98 1.287 . S
O105 Fe91 1.996 . S
O105 C98 1.255 . S
C106 O99 1.287 . S
C106 O100 1.255 . S
O107 Fe89 2.002 . S
O107 C103 1.295 . S
O108 Fe91 1.997 . S
O108 C103 1.235 . S
C109 O92 1.295 . S
C109 O93 1.235 . S
Fe110 O112 1.918 . S
Fe110 O115 1.997 . S
Fe110 O116 2.002 . S
Fe110 O121 1.976 . S
Fe110 O124 1.996 . S
Fe111 O112 1.918 . S
Fe111 O119 1.997 . S
Fe111 O122 1.996 . S
Fe111 O126 1.976 . S
Fe111 O129 2.002 . S
O112 Fe110 1.918 . S
O112 Fe111 1.918 . S
O112 Fe113 1.918 . S
Fe113 O112 1.918 . S
Fe113 O114 2.002 . S
Fe113 O123 1.976 . S
Fe113 O127 1.996 . S
Fe113 O130 1.997 . S
O114 Fe113 2.002 . S
O114 C131 1.295 . S
O115 Fe110 1.997 . S
O115 C131 1.235 . S
O116 Fe110 2.002 . S
O116 C117 1.295 . S
C117 O116 1.295 . S
C117 O119 1.235 . S
C118 O123 1.287 . S
C118 O124 1.255 . S
O119 Fe111 1.997 . S
O119 C117 1.235 . S
C120 O126 1.287 . S
C120 O127 1.255 . S
O121 Fe110 1.976 . S
O121 C128 1.287 . S
O122 Fe111 1.996 . S
O122 C128 1.255 . S
O123 Fe113 1.976 . S
O123 C118 1.287 . S
O124 Fe110 1.996 . S
O124 C118 1.255 . S
C125 O129 1.295 . S
C125 O130 1.235 . S
O126 Fe111 1.976 . S
O126 C120 1.287 . S
O127 Fe113 1.996 . S
O127 C120 1.255 . S
C128 O121 1.287 . S
C128 O122 1.255 . S
O129 Fe111 2.002 . S
O129 C125 1.295 . S
O130 Fe113 1.997 . S
O130 C125 1.235 . S
C131 O114 1.295 . S
C131 O115 1.235 . S
Fe132 O134 1.918 . S
Fe132 O137 1.997 . S
Fe132 O138 2.002 . S
Fe132 O143 1.976 . S
Fe132 O146 1.996 . S
Fe133 O134 1.918 . S
Fe133 O141 1.997 . S
Fe133 O144 1.996 . S
Fe133 O148 1.976 . S
Fe133 O151 2.002 . S
O134 Fe132 1.918 . S
O134 Fe133 1.918 . S
O134 Fe135 1.918 . S
Fe135 O134 1.918 . S
Fe135 O136 2.002 . S
Fe135 O145 1.976 . S
Fe135 O149 1.996 . S
Fe135 O152 1.997 1_556 S
O136 Fe135 2.002 . S
O136 C153 1.295 . S
O137 Fe132 1.997 . S
O137 C153 1.235 . S
O138 Fe132 2.002 . S
O138 C139 1.295 . S
C139 O138 1.295 . S
C139 O141 1.235 . S
C140 O145 1.287 . S
C140 O146 1.255 . S
O141 Fe133 1.997 . S
O141 C139 1.235 . S
C142 O148 1.287 . S
C142 O149 1.255 . S
O143 Fe132 1.976 . S
O143 C150 1.287 . S
O144 Fe133 1.996 . S
O144 C150 1.255 . S
O145 Fe135 1.976 . S
O145 C140 1.287 . S
O146 Fe132 1.996 . S
O146 C140 1.255 . S
C147 O151 1.295 1_554 S
C147 O152 1.235 . S
O148 Fe133 1.976 . S
O148 C142 1.287 . S
O149 Fe135 1.996 . S
O149 C142 1.255 . S
C150 O143 1.287 . S
C150 O144 1.255 . S
O151 Fe133 2.002 . S
O151 C147 1.295 1_556 S
O152 Fe135 1.997 1_554 S
O152 C147 1.235 . S
C153 O136 1.295 . S
C153 O137 1.235 . S
Fe154 O156 1.918 . S
Fe154 O159 1.997 1_556 S
Fe154 O160 2.002 . S
Fe154 O165 1.976 . S
Fe154 O168 1.996 . S
Fe155 O156 1.918 . S
Fe155 O163 1.997 . S
Fe155 O166 1.996 . S
Fe155 O170 1.976 . S
Fe155 O173 2.002 . S
O156 Fe154 1.918 . S
O156 Fe155 1.918 . S
O156 Fe157 1.918 . S
Fe157 O156 1.918 . S
Fe157 O158 2.002 . S
Fe157 O167 1.976 . S
Fe157 O171 1.996 . S
Fe157 O174 1.997 . S
O158 Fe157 2.002 . S
O158 C175 1.295 1_556 S
O159 Fe154 1.997 1_554 S
O159 C175 1.235 . S
O160 Fe154 2.002 . S
O160 C161 1.295 . S
C161 O160 1.295 . S
C161 O163 1.235 . S
C162 O167 1.287 . S
C162 O168 1.255 . S
O163 Fe155 1.997 . S
O163 C161 1.235 . S
C164 O170 1.287 . S
C164 O171 1.255 . S
O165 Fe154 1.976 . S
O165 C172 1.287 . S
O166 Fe155 1.996 . S
O166 C172 1.255 . S
O167 Fe157 1.976 . S
O167 C162 1.287 . S
O168 Fe154 1.996 . S
O168 C162 1.255 . S
C169 O173 1.295 . S
C169 O174 1.235 . S
O170 Fe155 1.976 . S
O170 C164 1.287 . S
O171 Fe157 1.996 . S
O171 C164 1.255 . S
C172 O165 1.287 . S
C172 O166 1.255 . S
O173 Fe155 2.002 . S
O173 C169 1.295 . S
O174 Fe157 1.997 . S
O174 C169 1.235 . S
C175 O158 1.295 1_554 S
C175 O159 1.235 . S
Fe176 O178 1.918 . S
Fe176 O181 1.997 . S
Fe176 O182 2.002 . S
Fe176 O187 1.976 . S
Fe176 O190 1.996 . S
Fe177 O178 1.918 . S
Fe177 O185 1.997 . S
Fe177 O188 1.996 . S
Fe177 O192 1.976 . S
Fe177 O195 2.002 . S
O178 Fe176 1.918 . S
O178 Fe177 1.918 . S
O178 Fe179 1.918 . S
Fe179 O178 1.918 . S
Fe179 O180 2.002 . S
Fe179 O189 1.976 . S
Fe179 O193 1.996 . S
Fe179 O196 1.997 1_556 S
O180 Fe179 2.002 . S
O180 C197 1.295 . S
O181 Fe176 1.997 . S
O181 C197 1.235 . S
O182 Fe176 2.002 . S
O182 C183 1.295 . S
C183 O182 1.295 . S
C183 O185 1.235 . S
C184 O189 1.287 . S
C184 O190 1.255 . S
O185 Fe177 1.997 . S
O185 C183 1.235 . S
C186 O192 1.287 . S
C186 O193 1.255 . S
O187 Fe176 1.976 . S
O187 C194 1.287 . S
O188 Fe177 1.996 . S
O188 C194 1.255 . S
O189 Fe179 1.976 . S
O189 C184 1.287 . S
O190 Fe176 1.996 . S
O190 C184 1.255 . S
C191 O195 1.295 1_554 S
C191 O196 1.235 . S
O192 Fe177 1.976 . S
O192 C186 1.287 . S
O193 Fe179 1.996 . S
O193 C186 1.255 . S
C194 O187 1.287 . S
C194 O188 1.255 . S
O195 Fe177 2.002 . S
O195 C191 1.295 1_556 S
O196 Fe179 1.997 1_554 S
O196 C191 1.235 . S
C197 O180 1.295 . S
C197 O181 1.235 . S
Fe198 O200 1.918 . S
Fe198 O203 1.997 . S
Fe198 O204 2.002 . S
Fe198 O209 1.976 . S
Fe198 O212 1.996 . S
Fe199 O200 1.918 . S
Fe199 O207 1.997 . S
Fe199 O210 1.996 . S
Fe199 O214 1.976 . S
Fe199 O217 2.002 . S
O200 Fe198 1.918 . S
O200 Fe199 1.918 . S
O200 Fe201 1.918 . S
Fe201 O200 1.918 . S
Fe201 O202 2.002 . S
Fe201 O211 1.976 . S
Fe201 O215 1.996 . S
Fe201 O218 1.997 . S
O202 Fe201 2.002 . S
O202 C219 1.295 . S
O203 Fe198 1.997 . S
O203 C219 1.235 . S
O204 Fe198 2.002 . S
O204 C205 1.295 . S
C205 O204 1.295 . S
C205 O207 1.235 . S
C206 O211 1.287 . S
C206 O212 1.255 . S
O207 Fe199 1.997 . S
O207 C205 1.235 . S
C208 O214 1.287 . S
C208 O215 1.255 . S
O209 Fe198 1.976 . S
O209 C216 1.287 . S
O210 Fe199 1.996 . S
O210 C216 1.255 . S
O211 Fe201 1.976 . S
O211 C206 1.287 . S
O212 Fe198 1.996 . S
O212 C206 1.255 . S
C213 O217 1.295 . S
C213 O218 1.235 . S
O214 Fe199 1.976 . S
O214 C208 1.287 . S
O215 Fe201 1.996 . S
O215 C208 1.255 . S
C216 O209 1.287 . S
C216 O210 1.255 . S
O217 Fe199 2.002 . S
O217 C213 1.295 . S
O218 Fe201 1.997 . S
O218 C213 1.235 . S
C219 O202 1.295 . S
C219 O203 1.235 . S
Fe220 O222 1.918 . S
Fe220 O225 1.997 . S
Fe220 O226 2.002 . S
Fe220 O231 1.976 . S
Fe220 O234 1.996 . S
Fe221 O222 1.918 . S
Fe221 O229 1.997 . S
Fe221 O232 1.996 . S
Fe221 O236 1.976 . S
Fe221 O239 2.002 . S
O222 Fe220 1.918 . S
O222 Fe221 1.918 . S
O222 Fe223 1.918 . S
Fe223 O222 1.918 . S
Fe223 O224 2.002 . S
Fe223 O233 1.976 . S
Fe223 O237 1.996 . S
Fe223 O240 1.997 . S
O224 Fe223 2.002 . S
O224 C241 1.295 . S
O225 Fe220 1.997 . S
O225 C241 1.235 . S
O226 Fe220 2.002 . S
O226 C227 1.295 . S
C227 O226 1.295 . S
C227 O229 1.235 . S
C228 O233 1.287 . S
C228 O234 1.255 . S
O229 Fe221 1.997 . S
O229 C227 1.235 . S
C230 O236 1.287 . S
C230 O237 1.255 . S
O231 Fe220 1.976 . S
O231 C238 1.287 . S
O232 Fe221 1.996 . S
O232 C238 1.255 . S
O233 Fe223 1.976 . S
O233 C228 1.287 . S
O234 Fe220 1.996 . S
O234 C228 1.255 . S
C235 O239 1.295 . S
C235 O240 1.235 . S
O236 Fe221 1.976 . S
O236 C230 1.287 . S
O237 Fe223 1.996 . S
O237 C230 1.255 . S
C238 O231 1.287 . S
C238 O232 1.255 . S
O239 Fe221 2.002 . S
O239 C235 1.295 . S
O240 Fe223 1.997 . S
O240 C235 1.235 . S
C241 O224 1.295 . S
C241 O225 1.235 . S
Fe242 O244 1.918 . S
Fe242 O247 1.997 . S
Fe242 O248 2.002 . S
Fe242 O253 1.976 . S
Fe242 O256 1.996 . S
Fe243 O244 1.918 . S
Fe243 O251 1.997 . S
Fe243 O254 1.996 . S
Fe243 O258 1.976 . S
Fe243 O261 2.002 . S
O244 Fe242 1.918 . S
O244 Fe243 1.918 . S
O244 Fe245 1.918 . S
Fe245 O244 1.918 . S
Fe245 O246 2.002 . S
Fe245 O255 1.976 . S
Fe245 O259 1.996 . S
Fe245 O262 1.997 . S
O246 Fe245 2.002 . S
O246 C263 1.295 . S
O247 Fe242 1.997 . S
O247 C263 1.235 . S
O248 Fe242 2.002 . S
O248 C249 1.295 . S
C249 O248 1.295 . S
C249 O251 1.235 . S
C250 O255 1.287 . S
C250 O256 1.255 . S
O251 Fe243 1.997 . S
O251 C249 1.235 . S
C252 O258 1.287 . S
C252 O259 1.255 . S
O253 Fe242 1.976 . S
O253 C260 1.287 . S
O254 Fe243 1.996 . S
O254 C260 1.255 . S
O255 Fe245 1.976 . S
O255 C250 1.287 . S
O256 Fe242 1.996 . S
O256 C250 1.255 . S
C257 O261 1.295 . S
C257 O262 1.235 . S
O258 Fe243 1.976 . S
O258 C252 1.287 . S
O259 Fe245 1.996 . S
O259 C252 1.255 . S
C260 O253 1.287 . S
C260 O254 1.255 . S
O261 Fe243 2.002 . S
O261 C257 1.295 . S
O262 Fe245 1.997 . S
O262 C257 1.235 . S
C263 O246 1.295 . S
C263 O247 1.235 . S
Fe264 O266 1.918 . S
Fe264 O269 1.997 . S
Fe264 O270 2.002 . S
Fe264 O275 1.976 . S
Fe264 O278 1.996 . S
Fe265 O266 1.918 . S
Fe265 O273 1.997 . S
Fe265 O276 1.996 . S
Fe265 O280 1.976 . S
Fe265 O283 2.002 . S
O266 Fe264 1.918 . S
O266 Fe265 1.918 . S
O266 Fe267 1.918 . S
Fe267 O266 1.918 . S
Fe267 O268 2.002 . S
Fe267 O277 1.976 . S
Fe267 O281 1.996 . S
Fe267 O284 1.997 . S
O268 Fe267 2.002 . S
O268 C285 1.295 . S
O269 Fe264 1.997 . S
O269 C285 1.235 . S
O270 Fe264 2.002 . S
O270 C271 1.295 . S
C271 O270 1.295 . S
C271 O273 1.235 . S
C272 O277 1.287 . S
C272 O278 1.255 . S
O273 Fe265 1.997 . S
O273 C271 1.235 . S
C274 O280 1.287 . S
C274 O281 1.255 . S
O275 Fe264 1.976 . S
O275 C282 1.287 . S
O276 Fe265 1.996 . S
O276 C282 1.255 . S
O277 Fe267 1.976 . S
O277 C272 1.287 . S
O278 Fe264 1.996 . S
O278 C272 1.255 . S
C279 O283 1.295 . S
C279 O284 1.235 . S
O280 Fe265 1.976 . S
O280 C274 1.287 . S
O281 Fe267 1.996 . S
O281 C274 1.255 . S
C282 O275 1.287 . S
C282 O276 1.255 . S
O283 Fe265 2.002 . S
O283 C279 1.295 . S
O284 Fe267 1.997 . S
O284 C279 1.235 . S
C285 O268 1.295 . S
C285 O269 1.235 . S
Fe286 O288 1.918 . S
Fe286 O291 1.997 . S
Fe286 O292 2.002 . S
Fe286 O297 1.976 . S
Fe286 O300 1.996 . S
Fe287 O288 1.918 . S
Fe287 O295 1.997 . S
Fe287 O298 1.996 . S
Fe287 O302 1.976 . S
Fe287 O305 2.002 . S
O288 Fe286 1.918 . S
O288 Fe287 1.918 . S
O288 Fe289 1.918 . S
Fe289 O288 1.918 . S
Fe289 O290 2.002 . S
Fe289 O299 1.976 . S
Fe289 O303 1.996 . S
Fe289 O306 1.997 . S
O290 Fe289 2.002 . S
O290 C307 1.295 . S
O291 Fe286 1.997 . S
O291 C307 1.235 . S
O292 Fe286 2.002 . S
O292 C293 1.295 . S
C293 O292 1.295 . S
C293 O295 1.235 . S
C294 O299 1.287 . S
C294 O300 1.255 . S
O295 Fe287 1.997 . S
O295 C293 1.235 . S
C296 O302 1.287 . S
C296 O303 1.255 . S
O297 Fe286 1.976 . S
O297 C304 1.287 . S
O298 Fe287 1.996 . S
O298 C304 1.255 . S
O299 Fe289 1.976 . S
O299 C294 1.287 . S
O300 Fe286 1.996 . S
O300 C294 1.255 . S
C301 O305 1.295 . S
C301 O306 1.235 . S
O302 Fe287 1.976 . S
O302 C296 1.287 . S
O303 Fe289 1.996 . S
O303 C296 1.255 . S
C304 O297 1.287 . S
C304 O298 1.255 . S
O305 Fe287 2.002 . S
O305 C301 1.295 . S
O306 Fe289 1.997 . S
O306 C301 1.235 . S
C307 O290 1.295 . S
C307 O291 1.235 . S
Fe308 O310 1.918 . S
Fe308 O313 1.997 . S
Fe308 O314 2.002 . S
Fe308 O319 1.976 . S
Fe308 O322 1.996 . S
Fe309 O310 1.918 . S
Fe309 O317 1.997 . S
Fe309 O320 1.996 . S
Fe309 O324 1.976 . S
Fe309 O327 2.002 . S
O310 Fe308 1.918 . S
O310 Fe309 1.918 . S
O310 Fe311 1.918 . S
Fe311 O310 1.918 . S
Fe311 O312 2.002 . S
Fe311 O321 1.976 . S
Fe311 O325 1.996 . S
Fe311 O328 1.997 . S
O312 Fe311 2.002 . S
O312 C329 1.295 . S
O313 Fe308 1.997 . S
O313 C329 1.235 . S
O314 Fe308 2.002 . S
O314 C315 1.295 . S
C315 O314 1.295 . S
C315 O317 1.235 . S
C316 O321 1.287 . S
C316 O322 1.255 . S
O317 Fe309 1.997 . S
O317 C315 1.235 . S
C318 O324 1.287 . S
C318 O325 1.255 . S
O319 Fe308 1.976 . S
O319 C326 1.287 . S
O320 Fe309 1.996 . S
O320 C326 1.255 . S
O321 Fe311 1.976 . S
O321 C316 1.287 . S
O322 Fe308 1.996 . S
O322 C316 1.255 . S
C323 O327 1.295 . S
C323 O328 1.235 . S
O324 Fe309 1.976 . S
O324 C318 1.287 . S
O325 Fe311 1.996 . S
O325 C318 1.255 . S
C326 O319 1.287 . S
C326 O320 1.255 . S
O327 Fe309 2.002 . S
O327 C323 1.295 . S
O328 Fe311 1.997 . S
O328 C323 1.235 . S
C329 O312 1.295 . S
C329 O313 1.235 . S
Fe330 O332 1.918 . S
Fe330 O335 1.997 . S
Fe330 O336 2.002 . S
Fe330 O341 1.976 . S
Fe330 O344 1.996 . S
Fe331 O332 1.918 . S
Fe331 O339 1.997 . S
Fe331 O342 1.996 . S
Fe331 O346 1.976 . S
Fe331 O349 2.002 . S
O332 Fe330 1.918 . S
O332 Fe331 1.918 . S
O332 Fe333 1.918 . S
Fe333 O332 1.918 . S
Fe333 O334 2.002 . S
Fe333 O343 1.976 . S
Fe333 O347 1.996 . S
Fe333 O350 1.997 . S
O334 Fe333 2.002 . S
O334 C351 1.295 . S
O335 Fe330 1.997 . S
O335 C351 1.235 . S
O336 Fe330 2.002 . S
O336 C337 1.295 . S
C337 O336 1.295 . S
C337 O339 1.235 . S
C338 O343 1.287 . S
C338 O344 1.255 . S
O339 Fe331 1.997 . S
O339 C337 1.235 . S
C340 O346 1.287 . S
C340 O347 1.255 . S
O341 Fe330 1.976 . S
O341 C348 1.287 . S
O342 Fe331 1.996 . S
O342 C348 1.255 . S
O343 Fe333 1.976 . S
O343 C338 1.287 . S
O344 Fe330 1.996 . S
O344 C338 1.255 . S
C345 O349 1.295 . S
C345 O350 1.235 . S
O346 Fe331 1.976 . S
O346 C340 1.287 . S
O347 Fe333 1.996 . S
O347 C340 1.255 . S
C348 O341 1.287 . S
C348 O342 1.255 . S
O349 Fe331 2.002 . S
O349 C345 1.295 . S
O350 Fe333 1.997 . S
O350 C345 1.235 . S
C351 O334 1.295 . S
C351 O335 1.235 . S
Fe352 O354 1.918 . S
Fe352 O357 1.997 . S
Fe352 O358 2.002 . S
Fe352 O363 1.976 . S
Fe352 O366 1.996 . S
Fe353 O354 1.918 . S
Fe353 O361 1.997 . S
Fe353 O364 1.996 . S
Fe353 O368 1.976 . S
Fe353 O371 2.002 . S
O354 Fe352 1.918 . S
O354 Fe353 1.918 . S
O354 Fe355 1.918 . S
Fe355 O354 1.918 . S
Fe355 O356 2.002 . S
Fe355 O365 1.976 . S
Fe355 O369 1.996 . S
Fe355 O372 1.997 . S
O356 Fe355 2.002 . S
O356 C373 1.295 . S
O357 Fe352 1.997 . S
O357 C373 1.235 . S
O358 Fe352 2.002 . S
O358 C359 1.295 . S
C359 O358 1.295 . S
C359 O361 1.235 . S
C360 O365 1.287 . S
C360 O366 1.255 . S
O361 Fe353 1.997 . S
O361 C359 1.235 . S
C362 O368 1.287 . S
C362 O369 1.255 . S
O363 Fe352 1.976 . S
O363 C370 1.287 . S
O364 Fe353 1.996 . S
O364 C370 1.255 . S
O365 Fe355 1.976 . S
O365 C360 1.287 . S
O366 Fe352 1.996 . S
O366 C360 1.255 . S
C367 O371 1.295 . S
C367 O372 1.235 . S
O368 Fe353 1.976 . S
O368 C362 1.287 . S
O369 Fe355 1.996 . S
O369 C362 1.255 . S
C370 O363 1.287 . S
C370 O364 1.255 . S
O371 Fe353 2.002 . S
O371 C367 1.295 . S
O372 Fe355 1.997 . S
O372 C367 1.235 . S
C373 O356 1.295 . S
C373 O357 1.235 . S
Fe374 O376 1.918 . S
Fe374 O379 1.997 . S
Fe374 O380 2.002 . S
Fe374 O385 1.976 . S
Fe374 O388 1.996 . S
Fe375 O376 1.918 . S
Fe375 O383 1.997 . S
Fe375 O386 1.996 . S
Fe375 O390 1.976 . S
Fe375 O393 2.002 . S
O376 Fe374 1.918 . S
O376 Fe375 1.918 . S
O376 Fe377 1.918 . S
Fe377 O376 1.918 . S
Fe377 O378 2.002 . S
Fe377 O387 1.976 . S
Fe377 O391 1.996 . S
Fe377 O394 1.997 . S
O378 Fe377 2.002 . S
O378 C395 1.295 . S
O379 Fe374 1.997 . S
O379 C395 1.235 . S
O380 Fe374 2.002 . S
O380 C381 1.295 . S
C381 O380 1.295 . S
C381 O383 1.235 . S
C382 O387 1.287 . S
C382 O388 1.255 . S
O383 Fe375 1.997 . S
O383 C381 1.235 . S
C384 O390 1.287 . S
C384 O391 1.255 . S
O385 Fe374 1.976 . S
O385 C392 1.287 . S
O386 Fe375 1.996 . S
O386 C392 1.255 . S
O387 Fe377 1.976 . S
O387 C382 1.287 . S
O388 Fe374 1.996 . S
O388 C382 1.255 . S
C389 O393 1.295 . S
C389 O394 1.235 . S
O390 Fe375 1.976 . S
O390 C384 1.287 . S
O391 Fe377 1.996 . S
O391 C384 1.255 . S
C392 O385 1.287 . S
C392 O386 1.255 . S
O393 Fe375 2.002 . S
O393 C389 1.295 . S
O394 Fe377 1.997 . S
O394 C389 1.235 . S
C395 O378 1.295 . S
C395 O379 1.235 . S
Fe396 O398 1.918 . S
Fe396 O401 1.997 . S
Fe396 O402 2.002 . S
Fe396 O407 1.976 . S
Fe396 O410 1.996 . S
Fe397 O398 1.918 . S
Fe397 O405 1.997 . S
Fe397 O408 1.996 . S
Fe397 O412 1.976 . S
Fe397 O415 2.002 . S
O398 Fe396 1.918 . S
O398 Fe397 1.918 . S
O398 Fe399 1.918 . S
Fe399 O398 1.918 . S
Fe399 O400 2.002 . S
Fe399 O409 1.976 . S
Fe399 O413 1.996 . S
Fe399 O416 1.997 . S
O400 Fe399 2.002 . S
O400 C417 1.295 . S
O401 Fe396 1.997 . S
O401 C417 1.235 . S
O402 Fe396 2.002 . S
O402 C403 1.295 . S
C403 O402 1.295 . S
C403 O405 1.235 . S
C404 O409 1.287 . S
C404 O410 1.255 . S
O405 Fe397 1.997 . S
O405 C403 1.235 . S
C406 O412 1.287 . S
C406 O413 1.255 . S
O407 Fe396 1.976 . S
O407 C414 1.287 . S
O408 Fe397 1.996 . S
O408 C414 1.255 . S
O409 Fe399 1.976 . S
O409 C404 1.287 . S
O410 Fe396 1.996 . S
O410 C404 1.255 . S
C411 O415 1.295 . S
C411 O416 1.235 . S
O412 Fe397 1.976 . S
O412 C406 1.287 . S
O413 Fe399 1.996 . S
O413 C406 1.255 . S
C414 O407 1.287 . S
C414 O408 1.255 . S
O415 Fe397 2.002 . S
O415 C411 1.295 . S
O416 Fe399 1.997 . S
O416 C411 1.235 . S
C417 O400 1.295 . S
C417 O401 1.235 . S
Fe418 O420 1.918 . S
Fe418 O423 1.997 . S
Fe418 O424 2.002 . S
Fe418 O429 1.976 . S
Fe418 O432 1.996 . S
Fe419 O420 1.918 . S
Fe419 O427 1.997 . S
Fe419 O430 1.996 . S
Fe419 O434 1.976 . S
Fe419 O437 2.002 . S
O420 Fe418 1.918 . S
O420 Fe419 1.918 . S
O420 Fe421 1.918 . S
Fe421 O420 1.918 . S
Fe421 O422 2.002 . S
Fe421 O431 1.976 . S
Fe421 O435 1.996 . S
Fe421 O438 1.997 . S
O422 Fe421 2.002 . S
O422 C439 1.295 . S
O423 Fe418 1.997 . S
O423 C439 1.235 . S
O424 Fe418 2.002 . S
O424 C425 1.295 . S
C425 O424 1.295 . S
C425 O427 1.235 . S
C426 O431 1.287 . S
C426 O432 1.255 . S
O427 Fe419 1.997 . S
O427 C425 1.235 . S
C428 O434 1.287 . S
C428 O435 1.255 . S
O429 Fe418 1.976 . S
O429 C436 1.287 . S
O430 Fe419 1.996 . S
O430 C436 1.255 . S
O431 Fe421 1.976 . S
O431 C426 1.287 . S
O432 Fe418 1.996 . S
O432 C426 1.255 . S
C433 O437 1.295 . S
C433 O438 1.235 . S
O434 Fe419 1.976 . S
O434 C428 1.287 . S
O435 Fe421 1.996 . S
O435 C428 1.255 . S
C436 O429 1.287 . S
C436 O430 1.255 . S
O437 Fe419 2.002 . S
O437 C433 1.295 . S
O438 Fe421 1.997 . S
O438 C433 1.235 . S
C439 O422 1.295 . S
C439 O423 1.235 . S
Fe440 O442 1.918 . S
Fe440 O445 1.997 . S
Fe440 O446 2.002 . S
Fe440 O451 1.976 . S
Fe440 O454 1.996 . S
Fe441 O442 1.918 . S
Fe441 O449 1.997 . S
Fe441 O452 1.996 . S
Fe441 O456 1.976 . S
Fe441 O459 2.002 . S
O442 Fe440 1.918 . S
O442 Fe441 1.918 . S
O442 Fe443 1.918 . S
Fe443 O442 1.918 . S
Fe443 O444 2.002 . S
Fe443 O453 1.976 . S
Fe443 O457 1.996 . S
Fe443 O460 1.997 . S
O444 Fe443 2.002 . S
O444 C461 1.295 . S
O445 Fe440 1.997 . S
O445 C461 1.235 . S
O446 Fe440 2.002 . S
O446 C447 1.295 . S
C447 O446 1.295 . S
C447 O449 1.235 . S
C448 O453 1.287 . S
C448 O454 1.255 . S
O449 Fe441 1.997 . S
O449 C447 1.235 . S
C450 O456 1.287 . S
C450 O457 1.255 . S
O451 Fe440 1.976 . S
O451 C458 1.287 . S
O452 Fe441 1.996 . S
O452 C458 1.255 . S
O453 Fe443 1.976 . S
O453 C448 1.287 . S
O454 Fe440 1.996 . S
O454 C448 1.255 . S
C455 O459 1.295 . S
C455 O460 1.235 . S
O456 Fe441 1.976 . S
O456 C450 1.287 . S
O457 Fe443 1.996 . S
O457 C450 1.255 . S
C458 O451 1.287 . S
C458 O452 1.255 . S
O459 Fe441 2.002 . S
O459 C455 1.295 . S
O460 Fe443 1.997 . S
O460 C455 1.235 . S
C461 O444 1.295 . S
C461 O445 1.235 . S
Fe462 O464 1.918 . S
Fe462 O467 1.997 . S
Fe462 O468 2.002 . S
Fe462 O473 1.976 . S
Fe462 O476 1.996 . S
Fe463 O464 1.918 . S
Fe463 O471 1.997 . S
Fe463 O474 1.996 . S
Fe463 O478 1.976 . S
Fe463 O481 2.002 . S
O464 Fe462 1.918 . S
O464 Fe463 1.918 . S
O464 Fe465 1.918 . S
Fe465 O464 1.918 . S
Fe465 O466 2.002 . S
Fe465 O475 1.976 . S
Fe465 O479 1.996 . S
Fe465 O482 1.997 . S
O466 Fe465 2.002 . S
O466 C483 1.295 . S
O467 Fe462 1.997 . S
O467 C483 1.235 . S
O468 Fe462 2.002 . S
O468 C469 1.295 . S
C469 O468 1.295 . S
C469 O471 1.235 . S
C470 O475 1.287 . S
C470 O476 1.255 . S
O471 Fe463 1.997 . S
O471 C469 1.235 . S
C472 O478 1.287 . S
C472 O479 1.255 . S
O473 Fe462 1.976 . S
O473 C480 1.287 1_556 S
O474 Fe463 1.996 . S
O474 C480 1.255 1_556 S
O475 Fe465 1.976 . S
O475 C470 1.287 . S
O476 Fe462 1.996 . S
O476 C470 1.255 . S
C477 O481 1.295 . S
C477 O482 1.235 . S
O478 Fe463 1.976 . S
O478 C472 1.287 . S
O479 Fe465 1.996 . S
O479 C472 1.255 . S
C480 O473 1.287 1_554 S
C480 O474 1.255 1_554 S
O481 Fe463 2.002 . S
O481 C477 1.295 . S
O482 Fe465 1.997 . S
O482 C477 1.235 . S
C483 O466 1.295 . S
C483 O467 1.235 . S
Fe484 O486 1.918 . S
Fe484 O489 1.997 . S
Fe484 O490 2.002 . S
Fe484 O495 1.976 . S
Fe484 O498 1.996 . S
Fe485 O486 1.918 . S
Fe485 O493 1.997 . S
Fe485 O496 1.996 . S
Fe485 O500 1.976 . S
Fe485 O503 2.002 . S
O486 Fe484 1.918 . S
O486 Fe485 1.918 . S
O486 Fe487 1.918 . S
Fe487 O486 1.918 . S
Fe487 O488 2.002 . S
Fe487 O497 1.976 . S
Fe487 O501 1.996 . S
Fe487 O504 1.997 . S
O488 Fe487 2.002 . S
O488 C505 1.295 . S
O489 Fe484 1.997 . S
O489 C505 1.235 . S
O490 Fe484 2.002 . S
O490 C491 1.295 . S
C491 O490 1.295 . S
C491 O493 1.235 . S
C492 O497 1.287 . S
C492 O498 1.255 . S
O493 Fe485 1.997 . S
O493 C491 1.235 . S
C494 O500 1.287 1_554 S
C494 O501 1.255 1_554 S
O495 Fe484 1.976 . S
O495 C502 1.287 . S
O496 Fe485 1.996 . S
O496 C502 1.255 . S
O497 Fe487 1.976 . S
O497 C492 1.287 . S
O498 Fe484 1.996 . S
O498 C492 1.255 . S
C499 O503 1.295 . S
C499 O504 1.235 . S
O500 Fe485 1.976 . S
O500 C494 1.287 1_556 S
O501 Fe487 1.996 . S
O501 C494 1.255 1_556 S
C502 O495 1.287 . S
C502 O496 1.255 . S
O503 Fe485 2.002 . S
O503 C499 1.295 . S
O504 Fe487 1.997 . S
O504 C499 1.235 . S
C505 O488 1.295 . S
C505 O489 1.235 . S
Fe506 O508 1.918 . S
Fe506 O511 1.997 . S
Fe506 O512 2.002 . S
Fe506 O517 1.976 . S
Fe506 O520 1.996 . S
Fe507 O508 1.918 . S
Fe507 O515 1.997 . S
Fe507 O518 1.996 . S
Fe507 O522 1.976 . S
Fe507 O525 2.002 . S
O508 Fe506 1.918 . S
O508 Fe507 1.918 . S
O508 Fe509 1.918 . S
Fe509 O508 1.918 . S
Fe509 O510 2.002 . S
Fe509 O519 1.976 . S
Fe509 O523 1.996 . S
Fe509 O526 1.997 . S
O510 Fe509 2.002 . S
O510 C527 1.295 . S
O511 Fe506 1.997 . S
O511 C527 1.235 . S
O512 Fe506 2.002 . S
O512 C513 1.295 . S
C513 O512 1.295 . S
C513 O515 1.235 . S
C514 O519 1.287 . S
C514 O520 1.255 . S
O515 Fe507 1.997 . S
O515 C513 1.235 . S
C516 O522 1.287 . S
C516 O523 1.255 . S
O517 Fe506 1.976 . S
O517 C524 1.287 1_556 S
O518 Fe507 1.996 . S
O518 C524 1.255 1_556 S
O519 Fe509 1.976 . S
O519 C514 1.287 . S
O520 Fe506 1.996 . S
O520 C514 1.255 . S
C521 O525 1.295 . S
C521 O526 1.235 . S
O522 Fe507 1.976 . S
O522 C516 1.287 . S
O523 Fe509 1.996 . S
O523 C516 1.255 . S
C524 O517 1.287 1_554 S
C524 O518 1.255 1_554 S
O525 Fe507 2.002 . S
O525 C521 1.295 . S
O526 Fe509 1.997 . S
O526 C521 1.235 . S
C527 O510 1.295 . S
C527 O511 1.235 . S
Fe528 O530 1.918 . S
Fe528 O533 1.997 . S
Fe528 O534 2.002 . S
Fe528 O539 1.976 . S
Fe528 O542 1.996 . S
Fe529 O530 1.918 . S
Fe529 O537 1.997 . S
Fe529 O540 1.996 . S
Fe529 O544 1.976 . S
Fe529 O547 2.002 . S
O530 Fe528 1.918 . S
O530 Fe529 1.918 . S
O530 Fe531 1.918 . S
Fe531 O530 1.918 . S
Fe531 O532 2.002 . S
Fe531 O541 1.976 . S
Fe531 O545 1.996 . S
Fe531 O548 1.997 . S
O532 Fe531 2.002 . S
O532 C549 1.295 . S
O533 Fe528 1.997 . S
O533 C549 1.235 . S
O534 Fe528 2.002 . S
O534 C535 1.295 . S
C535 O534 1.295 . S
C535 O537 1.235 . S
C536 O541 1.287 . S
C536 O542 1.255 . S
O537 Fe529 1.997 . S
O537 C535 1.235 . S
C538 O544 1.287 . S
C538 O545 1.255 . S
O539 Fe528 1.976 . S
O539 C546 1.287 . S
O540 Fe529 1.996 . S
O540 C546 1.255 . S
O541 Fe531 1.976 . S
O541 C536 1.287 . S
O542 Fe528 1.996 . S
O542 C536 1.255 . S
C543 O547 1.295 . S
C543 O548 1.235 . S
O544 Fe529 1.976 . S
O544 C538 1.287 . S
O545 Fe531 1.996 . S
O545 C538 1.255 . S
C546 O539 1.287 . S
C546 O540 1.255 . S
O547 Fe529 2.002 . S
O547 C543 1.295 . S
O548 Fe531 1.997 . S
O548 C543 1.235 . S
C549 O532 1.295 . S
C549 O533 1.235 . S
Fe550 O552 1.918 . S
Fe550 O555 1.997 . S
Fe550 O556 2.002 . S
Fe550 O561 1.976 . S
Fe550 O564 1.996 . S
Fe551 O552 1.918 . S
Fe551 O559 1.997 . S
Fe551 O562 1.996 . S
Fe551 O566 1.976 . S
Fe551 O569 2.002 . S
O552 Fe550 1.918 . S
O552 Fe551 1.918 . S
O552 Fe553 1.918 . S
Fe553 O552 1.918 . S
Fe553 O554 2.002 . S
Fe553 O563 1.976 . S
Fe553 O567 1.996 . S
Fe553 O570 1.997 . S
O554 Fe553 2.002 . S
O554 C571 1.295 . S
O555 Fe550 1.997 . S
O555 C571 1.235 . S
O556 Fe550 2.002 . S
O556 C557 1.295 . S
C557 O556 1.295 . S
C557 O559 1.235 . S
C558 O563 1.287 . S
C558 O564 1.255 . S
O559 Fe551 1.997 . S
O559 C557 1.235 . S
C560 O566 1.287 . S
C560 O567 1.255 . S
O561 Fe550 1.976 . S
O561 C568 1.287 . S
O562 Fe551 1.996 . S
O562 C568 1.255 . S
O563 Fe553 1.976 . S
O563 C558 1.287 . S
O564 Fe550 1.996 . S
O564 C558 1.255 . S
C565 O569 1.295 . S
C565 O570 1.235 . S
O566 Fe551 1.976 . S
O566 C560 1.287 . S
O567 Fe553 1.996 . S
O567 C560 1.255 . S
C568 O561 1.287 . S
C568 O562 1.255 . S
O569 Fe551 2.002 . S
O569 C565 1.295 . S
O570 Fe553 1.997 . S
O570 C565 1.235 . S
C571 O554 1.295 . S
C571 O555 1.235 . S
Fe572 O574 1.918 . S
Fe572 O577 1.997 . S
Fe572 O578 2.002 . S
Fe572 O583 1.976 . S
Fe572 O586 1.996 . S
Fe573 O574 1.918 . S
Fe573 O581 1.997 . S
Fe573 O584 1.996 . S
Fe573 O588 1.976 . S
Fe573 O591 2.002 . S
O574 Fe572 1.918 . S
O574 Fe573 1.918 . S
O574 Fe575 1.918 . S
Fe575 O574 1.918 . S
Fe575 O576 2.002 . S
Fe575 O585 1.976 . S
Fe575 O589 1.996 . S
Fe575 O592 1.997 . S
O576 Fe575 2.002 . S
O576 C593 1.295 . S
O577 Fe572 1.997 . S
O577 C593 1.235 . S
O578 Fe572 2.002 . S
O578 C579 1.295 . S
C579 O578 1.295 . S
C579 O581 1.235 . S
C580 O585 1.287 . S
C580 O586 1.255 . S
O581 Fe573 1.997 . S
O581 C579 1.235 . S
C582 O588 1.287 . S
C582 O589 1.255 . S
O583 Fe572 1.976 . S
O583 C590 1.287 . S
O584 Fe573 1.996 . S
O584 C590 1.255 . S
O585 Fe575 1.976 . S
O585 C580 1.287 . S
O586 Fe572 1.996 . S
O586 C580 1.255 . S
C587 O591 1.295 . S
C587 O592 1.235 . S
O588 Fe573 1.976 . S
O588 C582 1.287 . S
O589 Fe575 1.996 . S
O589 C582 1.255 . S
C590 O583 1.287 . S
C590 O584 1.255 . S
O591 Fe573 2.002 . S
O591 C587 1.295 . S
O592 Fe575 1.997 . S
O592 C587 1.235 . S
C593 O576 1.295 . S
C593 O577 1.235 . S
Fe594 O596 1.918 . S
Fe594 O599 1.997 . S
Fe594 O600 2.002 . S
Fe594 O605 1.976 . S
Fe594 O608 1.996 . S
Fe595 O596 1.918 . S
Fe595 O603 1.997 . S
Fe595 O606 1.996 . S
Fe595 O610 1.976 . S
Fe595 O613 2.002 . S
O596 Fe594 1.918 . S
O596 Fe595 1.918 . S
O596 Fe597 1.918 . S
Fe597 O596 1.918 . S
Fe597 O598 2.002 . S
Fe597 O607 1.976 . S
Fe597 O611 1.983 1_554 S
Fe597 O614 1.997 . S
O598 Fe597 2.002 . S
O598 C615 1.295 . S
O599 Fe594 1.997 . S
O599 C615 1.235 . S
O600 Fe594 2.002 . S
O600 C601 1.295 . S
C601 O600 1.295 . S
C601 O603 1.235 . S
C602 O607 1.287 . S
C602 O608 1.255 . S
O603 Fe595 1.997 . S
O603 C601 1.235 . S
C604 O610 1.287 1_556 S
C604 O611 1.255 . S
O605 Fe594 1.976 . S
O605 C612 1.287 . S
O606 Fe595 1.996 . S
O606 C612 1.255 . S
O607 Fe597 1.976 . S
O607 C602 1.287 . S
O608 Fe594 1.996 . S
O608 C602 1.255 . S
C609 O613 1.295 . S
C609 O614 1.235 . S
O610 Fe595 1.976 . S
O610 C604 1.287 1_554 S
O611 Fe597 1.983 1_556 S
O611 C604 1.255 . S
C612 O605 1.287 . S
C612 O606 1.255 . S
O613 Fe595 2.002 . S
O613 C609 1.295 . S
O614 Fe597 1.997 . S
O614 C609 1.235 . S
C615 O598 1.295 . S
C615 O599 1.235 . S
Fe616 O618 1.918 . S
Fe616 O621 1.997 . S
Fe616 O622 2.002 . S
Fe616 O627 1.976 . S
Fe616 O630 1.996 . S
Fe617 O618 1.918 . S
Fe617 O625 1.997 . S
Fe617 O628 1.996 . S
Fe617 O632 1.976 . S
Fe617 O635 2.002 . S
O618 Fe616 1.918 . S
O618 Fe617 1.918 . S
O618 Fe619 1.918 . S
Fe619 O618 1.918 . S
Fe619 O620 2.002 . S
Fe619 O629 1.976 . S
Fe619 O633 1.983 1_554 S
Fe619 O636 1.997 . S
O620 Fe619 2.002 . S
O620 C637 1.295 . S
O621 Fe616 1.997 . S
O621 C637 1.235 . S
O622 Fe616 2.002 . S
O622 C623 1.295 . S
C623 O622 1.295 . S
C623 O625 1.235 . S
C624 O629 1.287 . S
C624 O630 1.255 . S
O625 Fe617 1.997 . S
O625 C623 1.235 . S
C626 O632 1.287 1_556 S
C626 O633 1.255 . S
O627 Fe616 1.976 . S
O627 C634 1.287 . S
O628 Fe617 1.996 . S
O628 C634 1.255 . S
O629 Fe619 1.976 . S
O629 C624 1.287 . S
O630 Fe616 1.996 . S
O630 C624 1.255 . S
C631 O635 1.295 . S
C631 O636 1.235 . S
O632 Fe617 1.976 . S
O632 C626 1.287 1_554 S
O633 Fe619 1.983 1_556 S
O633 C626 1.255 . S
C634 O627 1.287 . S
C634 O628 1.255 . S
O635 Fe617 2.002 . S
O635 C631 1.295 . S
O636 Fe619 1.997 . S
O636 C631 1.235 . S
C637 O620 1.295 . S
C637 O621 1.235 . S
Fe638 O640 1.918 . S
Fe638 O643 1.997 . S
Fe638 O644 2.002 . S
Fe638 O649 1.976 . S
Fe638 O652 1.996 . S
Fe639 O640 1.918 . S
Fe639 O647 1.997 . S
Fe639 O650 1.996 . S
Fe639 O654 1.976 . S
Fe639 O657 2.002 . S
O640 Fe638 1.918 . S
O640 Fe639 1.918 . S
O640 Fe641 1.918 . S
Fe641 O640 1.918 . S
Fe641 O642 2.002 . S
Fe641 O651 1.976 . S
Fe641 O655 1.984 1_554 S
Fe641 O658 1.997 . S
O642 Fe641 2.002 . S
O642 C659 1.295 . S
O643 Fe638 1.997 . S
O643 C659 1.235 . S
O644 Fe638 2.002 . S
O644 C645 1.295 . S
C645 O644 1.295 . S
C645 O647 1.235 . S
C646 O651 1.287 . S
C646 O652 1.255 . S
O647 Fe639 1.997 . S
O647 C645 1.235 . S
C648 O654 1.287 1_556 S
C648 O655 1.255 . S
O649 Fe638 1.976 . S
O649 C656 1.287 . S
O650 Fe639 1.996 . S
O650 C656 1.255 . S
O651 Fe641 1.976 . S
O651 C646 1.287 . S
O652 Fe638 1.996 . S
O652 C646 1.255 . S
C653 O657 1.295 . S
C653 O658 1.235 . S
O654 Fe639 1.976 . S
O654 C648 1.287 1_554 S
O655 Fe641 1.984 1_556 S
O655 C648 1.255 . S
C656 O649 1.287 . S
C656 O650 1.255 . S
O657 Fe639 2.002 . S
O657 C653 1.295 . S
O658 Fe641 1.997 . S
O658 C653 1.235 . S
C659 O642 1.295 . S
C659 O643 1.235 . S
Fe660 O662 1.918 . S
Fe660 O665 1.997 . S
Fe660 O666 2.002 . S
Fe660 O671 1.976 . S
Fe660 O674 1.996 . S
Fe661 O662 1.918 . S
Fe661 O669 1.997 . S
Fe661 O672 1.996 . S
Fe661 O676 1.976 . S
Fe661 O679 2.002 . S
O662 Fe660 1.918 . S
O662 Fe661 1.918 . S
O662 Fe663 1.918 . S
Fe663 O662 1.918 . S
Fe663 O664 2.002 . S
Fe663 O673 1.976 . S
Fe663 O677 1.996 . S
Fe663 O680 1.997 . S
O664 Fe663 2.002 . S
O664 C681 1.295 . S
O665 Fe660 1.997 . S
O665 C681 1.235 . S
O666 Fe660 2.002 . S
O666 C667 1.295 . S
C667 O666 1.295 . S
C667 O669 1.235 . S
C668 O673 1.287 . S
C668 O674 1.255 . S
O669 Fe661 1.997 . S
O669 C667 1.235 . S
C670 O676 1.287 . S
C670 O677 1.255 . S
O671 Fe660 1.976 . S
O671 C678 1.287 . S
O672 Fe661 1.996 . S
O672 C678 1.255 . S
O673 Fe663 1.976 . S
O673 C668 1.287 . S
O674 Fe660 1.996 . S
O674 C668 1.255 . S
C675 O679 1.295 . S
C675 O680 1.235 . S
O676 Fe661 1.976 . S
O676 C670 1.287 . S
O677 Fe663 1.996 . S
O677 C670 1.255 . S
C678 O671 1.287 . S
C678 O672 1.255 . S
O679 Fe661 2.002 . S
O679 C675 1.295 . S
O680 Fe663 1.997 . S
O680 C675 1.235 . S
C681 O664 1.295 . S
C681 O665 1.235 . S
Fe682 O684 1.918 . S
Fe682 O687 1.997 . S
Fe682 O688 2.002 . S
Fe682 O693 1.976 . S
Fe682 O696 1.996 . S
Fe683 O684 1.918 . S
Fe683 O691 1.997 . S
Fe683 O694 1.996 . S
Fe683 O698 1.976 . S
Fe683 O701 2.002 . S
O684 Fe682 1.918 . S
O684 Fe683 1.918 . S
O684 Fe685 1.918 . S
Fe685 O684 1.918 . S
Fe685 O686 2.002 . S
Fe685 O695 1.976 . S
Fe685 O699 1.996 . S
Fe685 O702 1.997 . S
O686 Fe685 2.002 . S
O686 C703 1.295 . S
O687 Fe682 1.997 . S
O687 C703 1.235 . S
O688 Fe682 2.002 . S
O688 C689 1.295 . S
C689 O688 1.295 . S
C689 O691 1.235 . S
C690 O695 1.287 . S
C690 O696 1.255 . S
O691 Fe683 1.997 . S
O691 C689 1.235 . S
C692 O698 1.287 . S
C692 O699 1.255 . S
O693 Fe682 1.976 . S
O693 C700 1.287 . S
O694 Fe683 1.996 . S
O694 C700 1.255 . S
O695 Fe685 1.976 . S
O695 C690 1.287 . S
O696 Fe682 1.996 . S
O696 C690 1.255 . S
C697 O701 1.295 . S
C697 O702 1.235 . S
O698 Fe683 1.976 . S
O698 C692 1.287 . S
O699 Fe685 1.996 . S
O699 C692 1.255 . S
C700 O693 1.287 . S
C700 O694 1.255 . S
O701 Fe683 2.002 . S
O701 C697 1.295 . S
O702 Fe685 1.997 . S
O702 C697 1.235 . S
C703 O686 1.295 . S
C703 O687 1.235 . S
Fe704 O706 1.918 . S
Fe704 O709 1.997 . S
Fe704 O710 2.002 . S
Fe704 O715 1.976 . S
Fe704 O718 1.996 . S
Fe705 O706 1.918 . S
Fe705 O713 1.997 . S
Fe705 O716 1.996 . S
Fe705 O720 1.976 . S
Fe705 O723 2.002 . S
O706 Fe704 1.918 . S
O706 Fe705 1.918 . S
O706 Fe707 1.918 . S
Fe707 O706 1.918 . S
Fe707 O708 2.002 . S
Fe707 O717 1.976 . S
Fe707 O721 1.996 . S
Fe707 O724 1.997 . S
O708 Fe707 2.002 . S
O708 C725 1.295 . S
O709 Fe704 1.997 . S
O709 C725 1.235 . S
O710 Fe704 2.002 . S
O710 C711 1.295 . S
C711 O710 1.295 . S
C711 O713 1.235 . S
C712 O717 1.287 . S
C712 O718 1.255 . S
O713 Fe705 1.997 . S
O713 C711 1.235 . S
C714 O720 1.287 . S
C714 O721 1.255 . S
O715 Fe704 1.976 . S
O715 C722 1.287 . S
O716 Fe705 1.996 . S
O716 C722 1.255 . S
O717 Fe707 1.976 . S
O717 C712 1.287 . S
O718 Fe704 1.996 . S
O718 C712 1.255 . S
C719 O723 1.295 . S
C719 O724 1.235 . S
O720 Fe705 1.976 . S
O720 C714 1.287 . S
O721 Fe707 1.996 . S
O721 C714 1.255 . S
C722 O715 1.287 . S
C722 O716 1.255 . S
O723 Fe705 2.002 . S
O723 C719 1.295 . S
O724 Fe707 1.997 . S
O724 C719 1.235 . S
C725 O708 1.295 . S
C725 O709 1.235 . S
Fe726 O728 1.918 . S
Fe726 O731 1.997 . S
Fe726 O732 2.002 . S
Fe726 O737 1.976 . S
Fe726 O740 1.996 . S
Fe727 O728 1.918 . S
Fe727 O735 1.997 . S
Fe727 O738 1.996 . S
Fe727 O742 1.976 . S
Fe727 O745 2.002 . S
O728 Fe726 1.918 . S
O728 Fe727 1.918 . S
O728 Fe729 1.918 . S
Fe729 O728 1.918 . S
Fe729 O730 2.002 . S
Fe729 O739 1.976 . S
Fe729 O743 1.996 . S
Fe729 O746 1.997 . S
O730 Fe729 2.002 . S
O730 C747 1.295 . S
O731 Fe726 1.997 . S
O731 C747 1.235 . S
O732 Fe726 2.002 . S
O732 C733 1.295 . S
C733 O732 1.295 . S
C733 O735 1.235 . S
C734 O739 1.287 . S
C734 O740 1.255 . S
O735 Fe727 1.997 . S
O735 C733 1.235 . S
C736 O742 1.287 . S
C736 O743 1.255 . S
O737 Fe726 1.976 . S
O737 C744 1.287 . S
O738 Fe727 1.996 . S
O738 C744 1.255 . S
O739 Fe729 1.976 . S
O739 C734 1.287 . S
O740 Fe726 1.996 . S
O740 C734 1.255 . S
C741 O745 1.295 . S
C741 O746 1.235 . S
O742 Fe727 1.976 . S
O742 C736 1.287 . S
O743 Fe729 1.996 . S
O743 C736 1.255 . S
C744 O737 1.287 . S
C744 O738 1.255 . S
O745 Fe727 2.002 . S
O745 C741 1.295 . S
O746 Fe729 1.997 . S
O746 C741 1.235 . S
C747 O730 1.295 . S
C747 O731 1.235 . S
Fe748 O750 1.918 . S
Fe748 O753 1.997 . S
Fe748 O754 2.002 . S
Fe748 O759 1.976 . S
Fe748 O762 1.996 . S
Fe749 O750 1.918 . S
Fe749 O757 1.997 . S
Fe749 O760 1.996 . S
Fe749 O764 1.976 . S
Fe749 O767 2.002 . S
O750 Fe748 1.918 . S
O750 Fe749 1.918 . S
O750 Fe751 1.918 . S
Fe751 O750 1.918 . S
Fe751 O752 2.002 . S
Fe751 O761 1.976 . S
Fe751 O765 1.996 . S
Fe751 O768 1.997 . S
O752 Fe751 2.002 . S
O752 C769 1.295 . S
O753 Fe748 1.997 . S
O753 C769 1.235 . S
O754 Fe748 2.002 . S
O754 C755 1.295 . S
C755 O754 1.295 . S
C755 O757 1.235 . S
C756 O761 1.287 . S
C756 O762 1.255 . S
O757 Fe749 1.997 . S
O757 C755 1.235 . S
C758 O764 1.287 . S
C758 O765 1.255 . S
O759 Fe748 1.976 . S
O759 C766 1.287 . S
O760 Fe749 1.996 . S
O760 C766 1.255 . S
O761 Fe751 1.976 . S
O761 C756 1.287 . S
O762 Fe748 1.996 . S
O762 C756 1.255 . S
C763 O767 1.295 . S
C763 O768 1.235 . S
O764 Fe749 1.976 . S
O764 C758 1.287 . S
O765 Fe751 1.996 . S
O765 C758 1.255 . S
C766 O759 1.287 . S
C766 O760 1.255 . S
O767 Fe749 2.002 . S
O767 C763 1.295 . S
O768 Fe751 1.997 . S
O768 C763 1.235 . S
C769 O752 1.295 . S
C769 O753 1.235 . S
Fe770 O772 1.918 . S
Fe770 O775 1.997 . S
Fe770 O776 2.002 . S
Fe770 O781 1.976 . S
Fe770 O784 1.996 . S
Fe771 O772 1.918 . S
Fe771 O779 1.997 . S
Fe771 O782 1.996 . S
Fe771 O786 1.976 . S
Fe771 O789 2.002 . S
O772 Fe770 1.918 . S
O772 Fe771 1.918 . S
O772 Fe773 1.918 . S
Fe773 O772 1.918 . S
Fe773 O774 2.002 . S
Fe773 O783 1.976 . S
Fe773 O787 1.996 . S
Fe773 O790 1.997 . S
O774 Fe773 2.002 . S
O774 C791 1.295 . S
O775 Fe770 1.997 . S
O775 C791 1.235 . S
O776 Fe770 2.002 . S
O776 C777 1.295 . S
C777 O776 1.295 . S
C777 O779 1.235 . S
C778 O783 1.287 . S
C778 O784 1.255 . S
O779 Fe771 1.997 . S
O779 C777 1.235 . S
C780 O786 1.287 . S
C780 O787 1.255 . S
O781 Fe770 1.976 . S
O781 C788 1.287 . S
O782 Fe771 1.996 . S
O782 C788 1.255 . S
O783 Fe773 1.976 . S
O783 C778 1.287 . S
O784 Fe770 1.996 . S
O784 C778 1.255 . S
C785 O789 1.295 . S
C785 O790 1.235 . S
O786 Fe771 1.976 . S
O786 C780 1.287 . S
O787 Fe773 1.996 . S
O787 C780 1.255 . S
C788 O781 1.287 . S
C788 O782 1.255 . S
O789 Fe771 2.002 . S
O789 C785 1.295 . S
O790 Fe773 1.997 . S
O790 C785 1.235 . S
C791 O774 1.295 . S
C791 O775 1.235 . S
H792 C798 0.930 1_556 S
H793 C802 0.930 . S
H794 C807 0.929 . S
H795 C805 0.929 . S
H796 C800 0.929 . S
H797 C806 0.929 . S
C798 H792 0.930 1_554 S
C798 C799 1.367 . S
C798 C806 1.378 1_554 S
C799 C798 1.367 . S
C799 C807 1.433 . S
C800 H796 0.929 . S
C800 C802 1.378 . S
C800 C804 1.350 . S
C801 C804 1.463 . S
C801 C806 1.350 1_554 S
C801 N809 1.427 . S
C802 H793 0.930 . S
C802 C800 1.378 . S
C802 C803 1.367 1_554 S
C803 C802 1.367 1_556 S
C803 C805 1.433 . S
C804 C800 1.350 . S
C804 C801 1.463 . S
C804 N808 1.427 1_554 S
C805 H795 0.929 . S
C805 C803 1.433 . S
C805 N808 1.384 . S
C806 H797 0.929 . S
C806 C798 1.378 1_556 S
C806 C801 1.350 1_556 S
C807 H794 0.929 . S
C807 C799 1.433 . S
C807 N809 1.384 . S
N808 C804 1.427 1_556 S
N808 C805 1.384 . S
N809 C801 1.427 . S
N809 C807 1.384 . S
H810 C816 0.930 . S
H811 C820 0.930 1_556 S
H812 C825 0.929 . S
H813 C823 0.929 . S
H814 C818 0.929 . S
H815 C824 0.929 . S
C816 H810 0.930 . S
C816 C817 1.367 1_554 S
C816 C824 1.378 1_545 S
C817 C816 1.367 1_556 S
C817 C825 1.433 . S
C818 H814 0.929 . S
C818 C820 1.378 1_556 S
C818 C822 1.350 1_556 S
C819 C822 1.463 . S
C819 C824 1.350 . S
C819 N827 1.427 1_554 S
C820 H811 0.930 1_554 S
C820 C818 1.378 1_554 S
C820 C821 1.367 . S
C821 C820 1.367 . S
C821 C823 1.433 . S
C822 C818 1.350 1_554 S
C822 C819 1.463 . S
C822 N826 1.427 . S
C823 H813 0.929 . S
C823 C821 1.433 . S
C823 N826 1.384 . S
C824 H815 0.929 . S
C824 C816 1.378 1_565 S
C824 C819 1.350 . S
C825 H812 0.929 . S
C825 C817 1.433 . S
C825 N827 1.384 1_545 S
N826 C822 1.427 . S
N826 C823 1.384 . S
N827 C819 1.427 1_556 S
N827 C825 1.384 1_565 S
H828 C834 0.930 . S
H829 C838 0.930 . S
H830 C843 0.929 1_556 S
H831 C841 0.929 . S
H832 C836 0.929 . S
H833 C842 0.929 . S
C834 H828 0.930 . S
C834 C835 1.367 . S
C834 C842 1.378 . S
C835 C834 1.367 . S
C835 C843 1.433 . S
C836 H832 0.929 . S
C836 C838 1.378 1_455 S
C836 C840 1.350 1_556 S
C837 C840 1.463 . S
C837 C842 1.350 . S
C837 N845 1.427 1_554 S
C838 H829 0.930 . S
C838 C836 1.378 1_655 S
C838 C839 1.367 . S
C839 C838 1.367 . S
C839 C841 1.433 1_556 S
C840 C836 1.350 1_554 S
C840 C837 1.463 . S
C840 N844 1.427 . S
C841 H831 0.929 . S
C841 C839 1.433 1_554 S
C841 N844 1.384 1_655 S
C842 H833 0.929 . S
C842 C834 1.378 . S
C842 C837 1.350 . S
C843 H830 0.929 1_554 S
C843 C835 1.433 . S
C843 N845 1.384 1_554 S
N844 C840 1.427 . S
N844 C841 1.384 1_455 S
N845 C837 1.427 1_556 S
N845 C843 1.384 1_556 S
H846 C852 0.930 . S
H847 C856 0.930 . S
H848 C861 0.929 . S
H849 C859 0.929 . S
H850 C854 0.929 . S
H851 C860 0.929 . S
C852 H846 0.930 . S
C852 C853 1.367 . S
C852 C860 1.378 . S
C853 C852 1.367 . S
C853 C861 1.433 . S
C854 H850 0.929 . S
C854 C856 1.378 . S
C854 C858 1.350 . S
C855 C858 1.463 . S
C855 C860 1.350 . S
C855 N863 1.427 . S
C856 H847 0.930 . S
C856 C854 1.378 . S
C856 C857 1.367 . S
C857 C856 1.367 . S
C857 C859 1.433 . S
C858 C854 1.350 . S
C858 C855 1.463 . S
C858 N862 1.427 . S
C859 H849 0.929 . S
C859 C857 1.433 . S
C859 N862 1.384 . S
C860 H851 0.929 . S
C860 C852 1.378 . S
C860 C855 1.350 . S
C861 H848 0.929 . S
C861 C853 1.433 . S
C861 N863 1.384 . S
N862 C858 1.427 . S
N862 C859 1.384 . S
N863 C855 1.427 . S
N863 C861 1.384 . S
H864 C870 0.930 . S
H865 C874 0.930 . S
H866 C879 0.929 . S
H867 C877 0.929 . S
H868 C872 0.929 . S
H869 C878 0.929 . S
C870 H864 0.930 . S
C870 C871 1.367 . S
C870 C878 1.378 . S
C871 C870 1.367 . S
C871 C879 1.433 . S
C872 H868 0.929 . S
C872 C874 1.378 1_545 S
C872 C876 1.350 . S
C873 C876 1.463 . S
C873 C878 1.350 . S
C873 N881 1.427 . S
C874 H865 0.930 . S
C874 C872 1.378 1_565 S
C874 C875 1.367 . S
C875 C874 1.367 . S
C875 C877 1.433 . S
C876 C872 1.350 . S
C876 C873 1.463 . S
C876 N880 1.427 . S
C877 H867 0.929 . S
C877 C875 1.433 . S
C877 N880 1.384 1_565 S
C878 H869 0.929 . S
C878 C870 1.378 . S
C878 C873 1.350 . S
C879 H866 0.929 . S
C879 C871 1.433 . S
C879 N881 1.384 . S
N880 C876 1.427 . S
N880 C877 1.384 1_545 S
N881 C873 1.427 . S
N881 C879 1.384 . S
H882 C888 0.930 . S
H883 C892 0.930 . S
H884 C897 0.929 . S
H885 C895 0.929 . S
H886 C890 0.929 . S
H887 C896 0.929 . S
C888 H882 0.930 . S
C888 C889 1.367 . S
C888 C896 1.378 . S
C889 C888 1.367 . S
C889 C897 1.433 . S
C890 H886 0.929 . S
C890 C892 1.378 1_655 S
C890 C894 1.350 . S
C891 C894 1.463 . S
C891 C896 1.350 . S
C891 N899 1.427 . S
C892 H883 0.930 . S
C892 C890 1.378 1_455 S
C892 C893 1.367 . S
C893 C892 1.367 . S
C893 C895 1.433 . S
C894 C890 1.350 . S
C894 C891 1.463 . S
C894 N898 1.427 . S
C895 H885 0.929 . S
C895 C893 1.433 . S
C895 N898 1.384 1_455 S
C896 H887 0.929 . S
C896 C888 1.378 . S
C896 C891 1.350 . S
C897 H884 0.929 . S
C897 C889 1.433 . S
C897 N899 1.384 . S
N898 C894 1.427 . S
N898 C895 1.384 1_655 S
N899 C891 1.427 . S
N899 C897 1.384 . S
H900 C906 0.930 . S
H901 C910 0.930 . S
H902 C915 0.929 1_554 S
H903 C913 0.929 . S
H904 C908 0.929 . S
H905 C914 0.929 . S
C906 H900 0.930 . S
C906 C907 1.367 . S
C906 C914 1.378 . S
C907 C906 1.367 . S
C907 C915 1.433 . S
C908 H904 0.929 . S
C908 C910 1.378 . S
C908 C912 1.350 1_554 S
C909 C912 1.463 . S
C909 C914 1.350 . S
C909 N917 1.427 1_556 S
C910 H901 0.930 . S
C910 C908 1.378 . S
C910 C911 1.367 . S
C911 C910 1.367 . S
C911 C913 1.433 1_554 S
C912 C908 1.350 1_556 S
C912 C909 1.463 . S
C912 N916 1.427 . S
C913 H903 0.929 . S
C913 C911 1.433 1_556 S
C913 N916 1.384 . S
C914 H905 0.929 . S
C914 C906 1.378 . S
C914 C909 1.350 . S
C915 H902 0.929 1_556 S
C915 C907 1.433 . S
C915 N917 1.384 1_556 S
N916 C912 1.427 . S
N916 C913 1.384 . S
N917 C909 1.427 1_554 S
N917 C915 1.384 1_554 S
H918 C924 0.930 . S
H919 C928 0.930 . S
H920 C933 0.929 . S
H921 C931 0.929 1_554 S
H922 C926 0.929 . S
H923 C932 0.929 . S
C924 H918 0.930 . S
C924 C925 1.367 . S
C924 C932 1.378 1_565 S
C925 C924 1.367 . S
C925 C933 1.433 1_554 S
C926 H922 0.929 . S
C926 C928 1.378 . S
C926 C930 1.350 . S
C927 C930 1.463 . S
C927 C932 1.350 1_556 S
C927 N935 1.427 . S
C928 H919 0.930 . S
C928 C926 1.378 . S
C928 C929 1.367 . S
C929 C928 1.367 . S
C929 C931 1.433 . S
C930 C926 1.350 . S
C930 C927 1.463 . S
C930 N934 1.427 1_556 S
C931 H921 0.929 1_556 S
C931 C929 1.433 . S
C931 N934 1.384 1_556 S
C932 H923 0.929 . S
C932 C924 1.378 1_545 S
C932 C927 1.350 1_554 S
C933 H920 0.929 . S
C933 C925 1.433 1_556 S
C933 N935 1.384 1_565 S
N934 C930 1.427 1_554 S
N934 C931 1.384 1_554 S
N935 C927 1.427 . S
N935 C933 1.384 1_545 S
H936 C942 0.930 . S
H937 C946 0.930 1_554 S
H938 C951 0.929 . S
H939 C949 0.929 . S
H940 C944 0.929 . S
H941 C950 0.929 . S
C942 H936 0.930 . S
C942 C943 1.367 1_556 S
C942 C950 1.378 1_455 S
C943 C942 1.367 1_554 S
C943 C951 1.433 . S
C944 H940 0.929 . S
C944 C946 1.378 1_554 S
C944 C948 1.350 1_554 S
C945 C948 1.463 . S
C945 C950 1.350 . S
C945 N953 1.427 1_556 S
C946 H937 0.930 1_556 S
C946 C944 1.378 1_556 S
C946 C947 1.367 . S
C947 C946 1.367 . S
C947 C949 1.433 . S
C948 C944 1.350 1_556 S
C948 C945 1.463 . S
C948 N952 1.427 . S
C949 H939 0.929 . S
C949 C947 1.433 . S
C949 N952 1.384 . S
C950 H941 0.929 . S
C950 C942 1.378 1_655 S
C950 C945 1.350 . S
C951 H938 0.929 . S
C951 C943 1.433 . S
C951 N953 1.384 1_455 S
N952 C948 1.427 . S
N952 C949 1.384 . S
N953 C945 1.427 1_554 S
N953 C951 1.384 1_655 S
H954 C960 0.930 . S
H955 C964 0.930 . S
H956 C969 0.929 . S
H957 C967 0.929 . S
H958 C962 0.929 . S
H959 C968 0.929 . S
C960 H954 0.930 . S
C960 C961 1.367 . S
C960 C968 1.378 . S
C961 C960 1.367 . S
C961 C969 1.433 . S
C962 H958 0.929 . S
C962 C964 1.378 . S
C962 C966 1.350 . S
C963 C966 1.463 . S
C963 C968 1.350 . S
C963 N971 1.427 . S
C964 H955 0.930 . S
C964 C962 1.378 . S
C964 C965 1.367 . S
C965 C964 1.367 . S
C965 C967 1.433 . S
C966 C962 1.350 . S
C966 C963 1.463 . S
C966 N970 1.427 . S
C967 H957 0.929 . S
C967 C965 1.433 . S
C967 N970 1.384 . S
C968 H959 0.929 . S
C968 C960 1.378 . S
C968 C963 1.350 . S
C969 H956 0.929 . S
C969 C961 1.433 . S
C969 N971 1.384 . S
N970 C966 1.427 . S
N970 C967 1.384 . S
N971 C963 1.427 . S
N971 C969 1.384 . S
H972 C978 0.930 . S
H973 C982 0.930 . S
H974 C987 0.929 . S
H975 C985 0.929 . S
H976 C980 0.929 . S
H977 C986 0.929 . S
C978 H972 0.930 . S
C978 C979 1.367 . S
C978 C986 1.378 1_545 S
C979 C978 1.367 . S
C979 C987 1.433 . S
C980 H976 0.929 . S
C980 C982 1.378 . S
C980 C984 1.350 . S
C981 C984 1.463 . S
C981 C986 1.350 . S
C981 N989 1.427 . S
C982 H973 0.930 . S
C982 C980 1.378 . S
C982 C983 1.367 . S
C983 C982 1.367 . S
C983 C985 1.433 . S
C984 C980 1.350 . S
C984 C981 1.463 . S
C984 N988 1.427 . S
C985 H975 0.929 . S
C985 C983 1.433 . S
C985 N988 1.384 . S
C986 H977 0.929 . S
C986 C978 1.378 1_565 S
C986 C981 1.350 . S
C987 H974 0.929 . S
C987 C979 1.433 . S
C987 N989 1.384 1_545 S
N988 C984 1.427 . S
N988 C985 1.384 . S
N989 C981 1.427 . S
N989 C987 1.384 1_565 S
H990 C996 0.930 . S
H991 C1000 0.930 . S
H992 C1005 0.929 . S
H993 C1003 0.929 . S
H994 C998 0.929 . S
H995 C1004 0.929 . S
C996 H990 0.930 . S
C996 C997 1.367 . S
C996 C1004 1.378 1_655 S
C997 C996 1.367 . S
C997 C1005 1.433 . S
C998 H994 0.929 . S
C998 C1000 1.378 . S
C998 C1002 1.350 . S
C999 C1002 1.463 . S
C999 C1004 1.350 . S
C999 N1007 1.427 . S
C1000 H991 0.930 . S
C1000 C998 1.378 . S
C1000 C1001 1.367 . S
C1001 C1000 1.367 . S
C1001 C1003 1.433 . S
C1002 C998 1.350 . S
C1002 C999 1.463 . S
C1002 N1006 1.427 . S
C1003 H993 0.929 . S
C1003 C1001 1.433 . S
C1003 N1006 1.384 . S
C1004 H995 0.929 . S
C1004 C996 1.378 1_455 S
C1004 C999 1.350 . S
C1005 H992 0.929 . S
C1005 C997 1.433 . S
C1005 N1007 1.384 1_655 S
N1006 C1002 1.427 . S
N1006 C1003 1.384 . S
N1007 C999 1.427 . S
N1007 C1005 1.384 1_455 S
H1008 C1014 0.930 . S
H1009 C1018 0.930 . S
H1010 C1023 0.929 . S
H1011 C1021 0.929 . S
H1012 C1016 0.929 . S
H1013 C1022 0.929 . S
C1014 H1008 0.930 . S
C1014 C1015 1.367 . S
C1014 C1022 1.378 . S
C1015 C1014 1.367 . S
C1015 C1023 1.433 . S
C1016 H1012 0.929 . S
C1016 C1018 1.378 . S
C1016 C1020 1.350 . S
C1017 C1020 1.463 . S
C1017 C1022 1.350 . S
C1017 N1025 1.427 . S
C1018 H1009 0.930 . S
C1018 C1016 1.378 . S
C1018 C1019 1.367 . S
C1019 C1018 1.367 . S
C1019 C1021 1.433 . S
C1020 C1016 1.350 . S
C1020 C1017 1.463 . S
C1020 N1024 1.427 . S
C1021 H1011 0.929 . S
C1021 C1019 1.433 . S
C1021 N1024 1.384 . S
C1022 H1013 0.929 . S
C1022 C1014 1.378 . S
C1022 C1017 1.350 . S
C1023 H1010 0.929 . S
C1023 C1015 1.433 . S
C1023 N1025 1.384 . S
N1024 C1020 1.427 . S
N1024 C1021 1.384 . S
N1025 C1017 1.427 . S
N1025 C1023 1.384 . S
H1026 C1032 0.930 . S
H1027 C1036 0.930 . S
H1028 C1041 0.929 . S
H1029 C1039 0.929 . S
H1030 C1034 0.929 . S
H1031 C1040 0.929 . S
C1032 H1026 0.930 . S
C1032 C1033 1.367 . S
C1032 C1040 1.378 . S
C1033 C1032 1.367 . S
C1033 C1041 1.433 . S
C1034 H1030 0.929 . S
C1034 C1036 1.378 . S
C1034 C1038 1.350 . S
C1035 C1038 1.463 . S
C1035 C1040 1.350 . S
C1035 N1043 1.427 . S
C1036 H1027 0.930 . S
C1036 C1034 1.378 . S
C1036 C1037 1.367 . S
C1037 C1036 1.367 . S
C1037 C1039 1.433 . S
C1038 C1034 1.350 . S
C1038 C1035 1.463 . S
C1038 N1042 1.427 . S
C1039 H1029 0.929 . S
C1039 C1037 1.433 . S
C1039 N1042 1.384 . S
C1040 H1031 0.929 . S
C1040 C1032 1.378 . S
C1040 C1035 1.350 . S
C1041 H1028 0.929 . S
C1041 C1033 1.433 . S
C1041 N1043 1.384 . S
N1042 C1038 1.427 . S
N1042 C1039 1.384 . S
N1043 C1035 1.427 . S
N1043 C1041 1.384 . S
H1044 C1050 0.930 . S
H1045 C1054 0.930 . S
H1046 C1059 0.929 . S
H1047 C1057 0.929 . S
H1048 C1052 0.929 . S
H1049 C1058 0.929 . S
C1050 H1044 0.930 . S
C1050 C1051 1.367 . S
C1050 C1058 1.378 . S
C1051 C1050 1.367 . S
C1051 C1059 1.433 . S
C1052 H1048 0.929 . S
C1052 C1054 1.378 . S
C1052 C1056 1.350 . S
C1053 C1056 1.463 . S
C1053 C1058 1.350 . S
C1053 N1061 1.427 . S
C1054 H1045 0.930 . S
C1054 C1052 1.378 . S
C1054 C1055 1.367 . S
C1055 C1054 1.367 . S
C1055 C1057 1.433 . S
C1056 C1052 1.350 . S
C1056 C1053 1.463 . S
C1056 N1060 1.427 . S
C1057 H1047 0.929 . S
C1057 C1055 1.433 . S
C1057 N1060 1.384 . S
C1058 H1049 0.929 . S
C1058 C1050 1.378 . S
C1058 C1053 1.350 . S
C1059 H1046 0.929 . S
C1059 C1051 1.433 . S
C1059 N1061 1.384 . S
N1060 C1056 1.427 . S
N1060 C1057 1.384 . S
N1061 C1053 1.427 . S
N1061 C1059 1.384 . S
H1062 C1068 0.930 . S
H1063 C1072 0.930 . S
H1064 C1077 0.929 . S
H1065 C1075 0.929 . S
H1066 C1070 0.929 . S
H1067 C1076 0.929 . S
C1068 H1062 0.930 . S
C1068 C1069 1.367 . S
C1068 C1076 1.378 . S
C1069 C1068 1.367 . S
C1069 C1077 1.433 . S
C1070 H1066 0.929 . S
C1070 C1072 1.378 . S
C1070 C1074 1.350 . S
C1071 C1074 1.463 . S
C1071 C1076 1.350 . S
C1071 N1079 1.427 . S
C1072 H1063 0.930 . S
C1072 C1070 1.378 . S
C1072 C1073 1.367 . S
C1073 C1072 1.367 . S
C1073 C1075 1.433 . S
C1074 C1070 1.350 . S
C1074 C1071 1.463 . S
C1074 N1078 1.427 . S
C1075 H1065 0.929 . S
C1075 C1073 1.433 . S
C1075 N1078 1.384 . S
C1076 H1067 0.929 . S
C1076 C1068 1.378 . S
C1076 C1071 1.350 . S
C1077 H1064 0.929 . S
C1077 C1069 1.433 . S
C1077 N1079 1.384 . S
N1078 C1074 1.427 . S
N1078 C1075 1.384 . S
N1079 C1071 1.427 . S
N1079 C1077 1.384 . S
H1080 C1086 0.930 . S
H1081 C1090 0.930 . S
H1082 C1095 0.929 . S
H1083 C1093 0.929 . S
H1084 C1088 0.929 . S
H1085 C1094 0.929 . S
C1086 H1080 0.930 . S
C1086 C1087 1.367 . S
C1086 C1094 1.378 . S
C1087 C1086 1.367 . S
C1087 C1095 1.433 . S
C1088 H1084 0.929 . S
C1088 C1090 1.378 . S
C1088 C1092 1.350 . S
C1089 C1092 1.463 . S
C1089 C1094 1.350 . S
C1089 N1097 1.427 . S
C1090 H1081 0.930 . S
C1090 C1088 1.378 . S
C1090 C1091 1.367 . S
C1091 C1090 1.367 . S
C1091 C1093 1.433 . S
C1092 C1088 1.350 . S
C1092 C1089 1.463 . S
C1092 N1096 1.427 . S
C1093 H1083 0.929 . S
C1093 C1091 1.433 . S
C1093 N1096 1.384 . S
C1094 H1085 0.929 . S
C1094 C1086 1.378 . S
C1094 C1089 1.350 . S
C1095 H1082 0.929 . S
C1095 C1087 1.433 . S
C1095 N1097 1.384 . S
N1096 C1092 1.427 . S
N1096 C1093 1.384 . S
N1097 C1089 1.427 . S
N1097 C1095 1.384 . S
H1098 C1104 0.930 . S
H1099 C1108 0.930 . S
H1100 C1113 0.929 . S
H1101 C1111 0.929 . S
H1102 C1106 0.929 . S
H1103 C1112 0.929 . S
C1104 H1098 0.930 . S
C1104 C1105 1.367 . S
C1104 C1112 1.378 . S
C1105 C1104 1.367 . S
C1105 C1113 1.433 . S
C1106 H1102 0.929 . S
C1106 C1108 1.378 . S
C1106 C1110 1.350 . S
C1107 C1110 1.463 . S
C1107 C1112 1.350 . S
C1107 N1115 1.427 . S
C1108 H1099 0.930 . S
C1108 C1106 1.378 . S
C1108 C1109 1.367 . S
C1109 C1108 1.367 . S
C1109 C1111 1.433 . S
C1110 C1106 1.350 . S
C1110 C1107 1.463 . S
C1110 N1114 1.427 . S
C1111 H1101 0.929 . S
C1111 C1109 1.433 . S
C1111 N1114 1.384 . S
C1112 H1103 0.929 . S
C1112 C1104 1.378 . S
C1112 C1107 1.350 . S
C1113 H1100 0.929 . S
C1113 C1105 1.433 . S
C1113 N1115 1.384 . S
N1114 C1110 1.427 . S
N1114 C1111 1.384 . S
N1115 C1107 1.427 . S
N1115 C1113 1.384 . S
H1116 C1122 0.930 . S
H1117 C1126 0.930 . S
H1118 C1131 0.929 . S
H1119 C1129 0.929 . S
H1120 C1124 0.929 . S
H1121 C1130 0.929 . S
C1122 H1116 0.930 . S
C1122 C1123 1.367 . S
C1122 C1130 1.378 . S
C1123 C1122 1.367 . S
C1123 C1131 1.433 . S
C1124 H1120 0.929 . S
C1124 C1126 1.378 . S
C1124 C1128 1.350 . S
C1125 C1128 1.463 . S
C1125 C1130 1.350 . S
C1125 N1133 1.427 . S
C1126 H1117 0.930 . S
C1126 C1124 1.378 . S
C1126 C1127 1.367 . S
C1127 C1126 1.367 . S
C1127 C1129 1.433 . S
C1128 C1124 1.350 . S
C1128 C1125 1.463 . S
C1128 N1132 1.427 . S
C1129 H1119 0.929 . S
C1129 C1127 1.433 . S
C1129 N1132 1.384 . S
C1130 H1121 0.929 . S
C1130 C1122 1.378 . S
C1130 C1125 1.350 . S
C1131 H1118 0.929 . S
C1131 C1123 1.433 . S
C1131 N1133 1.384 . S
N1132 C1128 1.427 . S
N1132 C1129 1.384 . S
N1133 C1125 1.427 . S
N1133 C1131 1.384 . S
H1134 C1140 0.930 . S
H1135 C1144 0.930 . S
H1136 C1149 0.929 . S
H1137 C1147 0.929 . S
H1138 C1142 0.929 . S
H1139 C1148 0.929 . S
C1140 H1134 0.930 . S
C1140 C1141 1.367 . S
C1140 C1148 1.378 . S
C1141 C1140 1.367 . S
C1141 C1149 1.433 . S
C1142 H1138 0.929 . S
C1142 C1144 1.378 . S
C1142 C1146 1.350 . S
C1143 C1146 1.463 . S
C1143 C1148 1.350 . S
C1143 N1151 1.427 . S
C1144 H1135 0.930 . S
C1144 C1142 1.378 . S
C1144 C1145 1.367 . S
C1145 C1144 1.367 . S
C1145 C1147 1.433 . S
C1146 C1142 1.350 . S
C1146 C1143 1.463 . S
C1146 N1150 1.427 . S
C1147 H1137 0.929 . S
C1147 C1145 1.433 . S
C1147 N1150 1.384 . S
C1148 H1139 0.929 . S
C1148 C1140 1.378 . S
C1148 C1143 1.350 . S
C1149 H1136 0.929 . S
C1149 C1141 1.433 . S
C1149 N1151 1.384 . S
N1150 C1146 1.427 . S
N1150 C1147 1.384 . S
N1151 C1143 1.427 . S
N1151 C1149 1.384 . S
H1152 C1158 0.930 . S
H1153 C1162 0.930 . S
H1154 C1167 0.929 . S
H1155 C1165 0.929 . S
H1156 C1160 0.929 . S
H1157 C1166 0.929 . S
C1158 H1152 0.930 . S
C1158 C1159 1.367 . S
C1158 C1166 1.378 . S
C1159 C1158 1.367 . S
C1159 C1167 1.433 . S
C1160 H1156 0.929 . S
C1160 C1162 1.378 . S
C1160 C1164 1.350 . S
C1161 C1164 1.463 . S
C1161 C1166 1.350 . S
C1161 N1169 1.427 . S
C1162 H1153 0.930 . S
C1162 C1160 1.378 . S
C1162 C1163 1.367 . S
C1163 C1162 1.367 . S
C1163 C1165 1.433 . S
C1164 C1160 1.350 . S
C1164 C1161 1.463 . S
C1164 N1168 1.427 . S
C1165 H1155 0.929 . S
C1165 C1163 1.433 . S
C1165 N1168 1.384 . S
C1166 H1157 0.929 . S
C1166 C1158 1.378 . S
C1166 C1161 1.350 . S
C1167 H1154 0.929 . S
C1167 C1159 1.433 . S
C1167 N1169 1.384 . S
N1168 C1164 1.427 . S
N1168 C1165 1.384 . S
N1169 C1161 1.427 . S
N1169 C1167 1.384 . S
H1170 C1176 0.930 . S
H1171 C1180 0.930 . S
H1172 C1185 0.929 . S
H1173 C1183 0.929 . S
H1174 C1178 0.929 . S
H1175 C1184 0.929 . S
C1176 H1170 0.930 . S
C1176 C1177 1.367 . S
C1176 C1184 1.378 . S
C1177 C1176 1.367 . S
C1177 C1185 1.433 . S
C1178 H1174 0.929 . S
C1178 C1180 1.378 . S
C1178 C1182 1.350 . S
C1179 C1182 1.463 . S
C1179 C1184 1.350 . S
C1179 N1187 1.427 . S
C1180 H1171 0.930 . S
C1180 C1178 1.378 . S
C1180 C1181 1.367 . S
C1181 C1180 1.367 . S
C1181 C1183 1.433 . S
C1182 C1178 1.350 . S
C1182 C1179 1.463 . S
C1182 N1186 1.427 . S
C1183 H1173 0.929 . S
C1183 C1181 1.433 . S
C1183 N1186 1.384 . S
C1184 H1175 0.929 . S
C1184 C1176 1.378 . S
C1184 C1179 1.350 . S
C1185 H1172 0.929 . S
C1185 C1177 1.433 . S
C1185 N1187 1.384 . S
N1186 C1182 1.427 . S
N1186 C1183 1.384 . S
N1187 C1179 1.427 . S
N1187 C1185 1.384 . S
H1188 C1194 0.930 . S
H1189 C1198 0.930 . S
H1190 C1203 0.929 . S
H1191 C1201 0.929 . S
H1192 C1196 0.929 . S
H1193 C1202 0.929 . S
C1194 H1188 0.930 . S
C1194 C1195 1.367 . S
C1194 C1202 1.378 . S
C1195 C1194 1.367 . S
C1195 C1203 1.433 . S
C1196 H1192 0.929 . S
C1196 C1198 1.378 . S
C1196 C1200 1.350 . S
C1197 C1200 1.463 . S
C1197 C1202 1.350 . S
C1197 N1205 1.427 . S
C1198 H1189 0.930 . S
C1198 C1196 1.378 . S
C1198 C1199 1.367 . S
C1199 C1198 1.367 . S
C1199 C1201 1.433 . S
C1200 C1196 1.350 . S
C1200 C1197 1.463 . S
C1200 N1204 1.427 . S
C1201 H1191 0.929 . S
C1201 C1199 1.433 . S
C1201 N1204 1.384 . S
C1202 H1193 0.929 . S
C1202 C1194 1.378 . S
C1202 C1197 1.350 . S
C1203 H1190 0.929 . S
C1203 C1195 1.433 . S
C1203 N1205 1.384 . S
N1204 C1200 1.427 . S
N1204 C1201 1.384 . S
N1205 C1197 1.427 . S
N1205 C1203 1.384 . S
H1206 C1212 0.930 . S
H1207 C1216 0.930 . S
H1208 C1221 0.929 . S
H1209 C1219 0.929 . S
H1210 C1214 0.929 . S
H1211 C1220 0.929 . S
C1212 H1206 0.930 . S
C1212 C1213 1.367 . S
C1212 C1220 1.378 . S
C1213 C1212 1.367 . S
C1213 C1221 1.433 . S
C1214 H1210 0.929 . S
C1214 C1216 1.378 . S
C1214 C1218 1.350 . S
C1215 C1218 1.463 . S
C1215 C1220 1.350 . S
C1215 N1223 1.427 . S
C1216 H1207 0.930 . S
C1216 C1214 1.378 . S
C1216 C1217 1.367 . S
C1217 C1216 1.367 . S
C1217 C1219 1.433 . S
C1218 C1214 1.350 . S
C1218 C1215 1.463 . S
C1218 N1222 1.427 . S
C1219 H1209 0.929 . S
C1219 C1217 1.433 . S
C1219 N1222 1.384 . S
C1220 H1211 0.929 . S
C1220 C1212 1.378 . S
C1220 C1215 1.350 . S
C1221 H1208 0.929 . S
C1221 C1213 1.433 . S
C1221 N1223 1.384 . S
N1222 C1218 1.427 . S
N1222 C1219 1.384 . S
N1223 C1215 1.427 . S
N1223 C1221 1.384 . S
H1224 C1230 0.930 . S
H1225 C1234 0.930 . S
H1226 C1239 0.929 . S
H1227 C1237 0.929 . S
H1228 C1232 0.929 . S
H1229 C1238 0.929 . S
C1230 H1224 0.930 . S
C1230 C1231 1.367 . S
C1230 C1238 1.378 . S
C1231 C1230 1.367 . S
C1231 C1239 1.433 . S
C1232 H1228 0.929 . S
C1232 C1234 1.378 . S
C1232 C1236 1.350 . S
C1233 C1236 1.463 . S
C1233 C1238 1.350 . S
C1233 N1241 1.427 . S
C1234 H1225 0.930 . S
C1234 C1232 1.378 . S
C1234 C1235 1.367 . S
C1235 C1234 1.367 . S
C1235 C1237 1.433 . S
C1236 C1232 1.350 . S
C1236 C1233 1.463 . S
C1236 N1240 1.427 . S
C1237 H1227 0.929 . S
C1237 C1235 1.433 . S
C1237 N1240 1.384 . S
C1238 H1229 0.929 . S
C1238 C1230 1.378 . S
C1238 C1233 1.350 . S
C1239 H1226 0.929 . S
C1239 C1231 1.433 . S
C1239 N1241 1.384 . S
N1240 C1236 1.427 . S
N1240 C1237 1.384 . S
N1241 C1233 1.427 . S
N1241 C1239 1.384 . S
H1242 C1248 0.930 . S
H1243 C1252 0.930 . S
H1244 C1257 0.929 . S
H1245 C1255 0.929 . S
H1246 C1250 0.929 . S
H1247 C1256 0.929 . S
C1248 H1242 0.930 . S
C1248 C1249 1.367 . S
C1248 C1256 1.378 . S
C1249 C1248 1.367 . S
C1249 C1257 1.433 . S
C1250 H1246 0.929 . S
C1250 C1252 1.378 . S
C1250 C1254 1.350 . S
C1251 C1254 1.463 . S
C1251 C1256 1.350 . S
C1251 N1259 1.427 . S
C1252 H1243 0.930 . S
C1252 C1250 1.378 . S
C1252 C1253 1.367 . S
C1253 C1252 1.367 . S
C1253 C1255 1.433 . S
C1254 C1250 1.350 . S
C1254 C1251 1.463 . S
C1254 N1258 1.427 . S
C1255 H1245 0.929 . S
C1255 C1253 1.433 . S
C1255 N1258 1.384 . S
C1256 H1247 0.929 . S
C1256 C1248 1.378 . S
C1256 C1251 1.350 . S
C1257 H1244 0.929 . S
C1257 C1249 1.433 . S
C1257 N1259 1.384 . S
N1258 C1254 1.427 . S
N1258 C1255 1.384 . S
N1259 C1251 1.427 . S
N1259 C1257 1.384 . S
H1260 C1266 0.930 . S
H1261 C1270 0.930 . S
H1262 C1275 0.929 . S
H1263 C1273 0.929 . S
H1264 C1268 0.929 . S
H1265 C1274 0.929 . S
C1266 H1260 0.930 . S
C1266 C1267 1.367 . S
C1266 C1274 1.378 . S
C1267 C1266 1.367 . S
C1267 C1275 1.433 . S
C1268 H1264 0.929 . S
C1268 C1270 1.378 . S
C1268 C1272 1.350 . S
C1269 C1272 1.463 . S
C1269 C1274 1.350 . S
C1269 N1277 1.427 . S
C1270 H1261 0.930 . S
C1270 C1268 1.378 . S
C1270 C1271 1.367 . S
C1271 C1270 1.367 . S
C1271 C1273 1.433 . S
C1272 C1268 1.350 . S
C1272 C1269 1.463 . S
C1272 N1276 1.427 . S
C1273 H1263 0.929 . S
C1273 C1271 1.433 . S
C1273 N1276 1.384 . S
C1274 H1265 0.929 . S
C1274 C1266 1.378 . S
C1274 C1269 1.350 . S
C1275 H1262 0.929 . S
C1275 C1267 1.433 . S
C1275 N1277 1.384 . S
N1276 C1272 1.427 . S
N1276 C1273 1.384 . S
N1277 C1269 1.427 . S
N1277 C1275 1.384 . S
H1278 C1284 0.930 . S
H1279 C1288 0.930 . S
H1280 C1293 0.929 . S
H1281 C1291 0.929 . S
H1282 C1286 0.929 . S
H1283 C1292 0.929 . S
C1284 H1278 0.930 . S
C1284 C1285 1.367 . S
C1284 C1292 1.378 . S
C1285 C1284 1.367 . S
C1285 C1293 1.433 . S
C1286 H1282 0.929 . S
C1286 C1288 1.378 . S
C1286 C1290 1.350 . S
C1287 C1290 1.463 . S
C1287 C1292 1.350 . S
C1287 N1295 1.427 . S
C1288 H1279 0.930 . S
C1288 C1286 1.378 . S
C1288 C1289 1.367 . S
C1289 C1288 1.367 . S
C1289 C1291 1.433 . S
C1290 C1286 1.350 . S
C1290 C1287 1.463 . S
C1290 N1294 1.427 . S
C1291 H1281 0.929 . S
C1291 C1289 1.433 . S
C1291 N1294 1.384 . S
C1292 H1283 0.929 . S
C1292 C1284 1.378 . S
C1292 C1287 1.350 . S
C1293 H1280 0.929 . S
C1293 C1285 1.433 . S
C1293 N1295 1.384 . S
N1294 C1290 1.427 . S
N1294 C1291 1.384 . S
N1295 C1287 1.427 . S
N1295 C1293 1.384 . S
H1296 C1302 0.930 . S
H1297 C1306 0.930 . S
H1298 C1311 0.929 . S
H1299 C1309 0.929 . S
H1300 C1304 0.929 . S
H1301 C1310 0.929 . S
C1302 H1296 0.930 . S
C1302 C1303 1.367 . S
C1302 C1310 1.378 . S
C1303 C1302 1.367 . S
C1303 C1311 1.433 . S
C1304 H1300 0.929 . S
C1304 C1306 1.378 . S
C1304 C1308 1.350 . S
C1305 C1308 1.463 . S
C1305 C1310 1.350 . S
C1305 N1313 1.427 . S
C1306 H1297 0.930 . S
C1306 C1304 1.378 . S
C1306 C1307 1.367 . S
C1307 C1306 1.367 . S
C1307 C1309 1.433 . S
C1308 C1304 1.350 . S
C1308 C1305 1.463 . S
C1308 N1312 1.427 . S
C1309 H1299 0.929 . S
C1309 C1307 1.433 . S
C1309 N1312 1.384 . S
C1310 H1301 0.929 . S
C1310 C1302 1.378 . S
C1310 C1305 1.350 . S
C1311 H1298 0.929 . S
C1311 C1303 1.433 . S
C1311 N1313 1.384 . S
N1312 C1308 1.427 . S
N1312 C1309 1.384 . S
N1313 C1305 1.427 . S
N1313 C1311 1.384 . S
H1314 C1320 0.930 . S
H1315 C1324 0.930 . S
H1316 C1329 0.929 . S
H1317 C1327 0.929 . S
H1318 C1322 0.929 . S
H1319 C1328 0.929 . S
C1320 H1314 0.930 . S
C1320 C1321 1.367 . S
C1320 C1328 1.378 . S
C1321 C1320 1.367 . S
C1321 C1329 1.433 . S
C1322 H1318 0.929 . S
C1322 C1324 1.378 . S
C1322 C1326 1.350 . S
C1323 C1326 1.463 . S
C1323 C1328 1.350 . S
C1323 N1331 1.427 . S
C1324 H1315 0.930 . S
C1324 C1322 1.378 . S
C1324 C1325 1.367 . S
C1325 C1324 1.367 . S
C1325 C1327 1.433 . S
C1326 C1322 1.350 . S
C1326 C1323 1.463 . S
C1326 N1330 1.427 . S
C1327 H1317 0.929 . S
C1327 C1325 1.433 . S
C1327 N1330 1.384 . S
C1328 H1319 0.929 . S
C1328 C1320 1.378 . S
C1328 C1323 1.350 . S
C1329 H1316 0.929 . S
C1329 C1321 1.433 . S
C1329 N1331 1.384 . S
N1330 C1326 1.427 . S
N1330 C1327 1.384 . S
N1331 C1323 1.427 . S
N1331 C1329 1.384 . S
H1332 C1338 0.930 . S
H1333 C1342 0.930 . S
H1334 C1347 0.929 . S
H1335 C1345 0.929 . S
H1336 C1340 0.929 . S
H1337 C1346 0.929 . S
C1338 H1332 0.930 . S
C1338 C1339 1.367 . S
C1338 C1346 1.378 . S
C1339 C1338 1.367 . S
C1339 C1347 1.433 . S
C1340 H1336 0.929 . S
C1340 C1342 1.378 . S
C1340 C1344 1.350 . S
C1341 C1344 1.463 . S
C1341 C1346 1.350 . S
C1341 N1349 1.427 . S
C1342 H1333 0.930 . S
C1342 C1340 1.378 . S
C1342 C1343 1.367 . S
C1343 C1342 1.367 . S
C1343 C1345 1.433 . S
C1344 C1340 1.350 . S
C1344 C1341 1.463 . S
C1344 N1348 1.427 . S
C1345 H1335 0.929 . S
C1345 C1343 1.433 . S
C1345 N1348 1.384 . S
C1346 H1337 0.929 . S
C1346 C1338 1.378 . S
C1346 C1341 1.350 . S
C1347 H1334 0.929 . S
C1347 C1339 1.433 . S
C1347 N1349 1.384 . S
N1348 C1344 1.427 . S
N1348 C1345 1.384 . S
N1349 C1341 1.427 . S
N1349 C1347 1.384 . S
H1350 C1356 0.930 . S
H1351 C1360 0.930 . S
H1352 C1365 0.929 . S
H1353 C1363 0.929 . S
H1354 C1358 0.929 . S
H1355 C1364 0.929 . S
C1356 H1350 0.930 . S
C1356 C1357 1.367 . S
C1356 C1364 1.378 . S
C1357 C1356 1.367 . S
C1357 C1365 1.433 . S
C1358 H1354 0.929 . S
C1358 C1360 1.378 . S
C1358 C1362 1.350 . S
C1359 C1362 1.463 . S
C1359 C1364 1.350 . S
C1359 N1367 1.427 . S
C1360 H1351 0.930 . S
C1360 C1358 1.378 . S
C1360 C1361 1.367 . S
C1361 C1360 1.367 . S
C1361 C1363 1.433 . S
C1362 C1358 1.350 . S
C1362 C1359 1.463 . S
C1362 N1366 1.427 . S
C1363 H1353 0.929 . S
C1363 C1361 1.433 . S
C1363 N1366 1.384 . S
C1364 H1355 0.929 . S
C1364 C1356 1.378 . S
C1364 C1359 1.350 . S
C1365 H1352 0.929 . S
C1365 C1357 1.433 . S
C1365 N1367 1.384 . S
N1366 C1362 1.427 . S
N1366 C1363 1.384 . S
N1367 C1359 1.427 . S
N1367 C1365 1.384 . S
H1368 C1374 0.930 . S
H1369 C1378 0.930 . S
H1370 C1383 0.929 . S
H1371 C1381 0.929 . S
H1372 C1376 0.929 . S
H1373 C1382 0.929 . S
C1374 H1368 0.930 . S
C1374 C1375 1.367 . S
C1374 C1382 1.378 . S
C1375 C1374 1.367 . S
C1375 C1383 1.433 . S
C1376 H1372 0.929 . S
C1376 C1378 1.378 . S
C1376 C1380 1.350 . S
C1377 C1380 1.463 . S
C1377 C1382 1.350 . S
C1377 N1385 1.427 . S
C1378 H1369 0.930 . S
C1378 C1376 1.378 . S
C1378 C1379 1.367 . S
C1379 C1378 1.367 . S
C1379 C1381 1.433 . S
C1380 C1376 1.350 . S
C1380 C1377 1.463 . S
C1380 N1384 1.427 . S
C1381 H1371 0.929 . S
C1381 C1379 1.433 . S
C1381 N1384 1.384 . S
C1382 H1373 0.929 . S
C1382 C1374 1.378 . S
C1382 C1377 1.350 . S
C1383 H1370 0.929 . S
C1383 C1375 1.433 . S
C1383 N1385 1.384 . S
N1384 C1380 1.427 . S
N1384 C1381 1.384 . S
N1385 C1377 1.427 . S
N1385 C1383 1.384 . S
H1386 C1392 0.930 . S
H1387 C1396 0.930 . S
H1388 C1401 0.929 . S
H1389 C1399 0.929 . S
H1390 C1394 0.929 . S
H1391 C1400 0.929 . S
C1392 H1386 0.930 . S
C1392 C1393 1.367 . S
C1392 C1400 1.378 . S
C1393 C1392 1.367 . S
C1393 C1401 1.433 . S
C1394 H1390 0.929 . S
C1394 C1396 1.378 . S
C1394 C1398 1.350 . S
C1395 C1398 1.463 . S
C1395 C1400 1.350 . S
C1395 N1403 1.427 . S
C1396 H1387 0.930 . S
C1396 C1394 1.378 . S
C1396 C1397 1.367 . S
C1397 C1396 1.367 . S
C1397 C1399 1.433 . S
C1398 C1394 1.350 . S
C1398 C1395 1.463 . S
C1398 N1402 1.427 . S
C1399 H1389 0.929 . S
C1399 C1397 1.433 . S
C1399 N1402 1.384 . S
C1400 H1391 0.929 . S
C1400 C1392 1.378 . S
C1400 C1395 1.350 . S
C1401 H1388 0.929 . S
C1401 C1393 1.433 . S
C1401 N1403 1.384 . S
N1402 C1398 1.427 . S
N1402 C1399 1.384 . S
N1403 C1395 1.427 . S
N1403 C1401 1.384 . S
H1404 C1410 0.930 . S
H1405 C1414 0.930 . S
H1406 C1419 0.929 . S
H1407 C1417 0.929 . S
H1408 C1412 0.929 . S
H1409 C1418 0.929 . S
C1410 H1404 0.930 . S
C1410 C1411 1.367 . S
C1410 C1418 1.378 . S
C1411 C1410 1.367 . S
C1411 C1419 1.433 . S
C1412 H1408 0.929 . S
C1412 C1414 1.378 . S
C1412 C1416 1.350 . S
C1413 C1416 1.463 . S
C1413 C1418 1.350 . S
C1413 N1421 1.427 . S
C1414 H1405 0.930 . S
C1414 C1412 1.378 . S
C1414 C1415 1.367 . S
C1415 C1414 1.367 . S
C1415 C1417 1.433 . S
C1416 C1412 1.350 . S
C1416 C1413 1.463 . S
C1416 N1420 1.427 . S
C1417 H1407 0.929 . S
C1417 C1415 1.433 . S
C1417 N1420 1.384 . S
C1418 H1409 0.929 . S
C1418 C1410 1.378 . S
C1418 C1413 1.350 . S
C1419 H1406 0.929 . S
C1419 C1411 1.433 . S
C1419 N1421 1.384 . S
N1420 C1416 1.427 . S
N1420 C1417 1.384 . S
N1421 C1413 1.427 . S
N1421 C1419 1.384 . S
H1422 C1428 0.930 . S
H1423 C1432 0.930 . S
H1424 C1437 0.929 . S
H1425 C1435 0.929 . S
H1426 C1430 0.929 . S
H1427 C1436 0.929 . S
C1428 H1422 0.930 . S
C1428 C1429 1.367 . S
C1428 C1436 1.378 . S
C1429 C1428 1.367 . S
C1429 C1437 1.433 . S
C1430 H1426 0.929 . S
C1430 C1432 1.378 . S
C1430 C1434 1.350 . S
C1431 C1434 1.463 . S
C1431 C1436 1.350 . S
C1431 N1439 1.427 . S
C1432 H1423 0.930 . S
C1432 C1430 1.378 . S
C1432 C1433 1.367 . S
C1433 C1432 1.367 . S
C1433 C1435 1.433 . S
C1434 C1430 1.350 . S
C1434 C1431 1.463 . S
C1434 N1438 1.427 . S
C1435 H1425 0.929 . S
C1435 C1433 1.433 . S
C1435 N1438 1.384 . S
C1436 H1427 0.929 . S
C1436 C1428 1.378 . S
C1436 C1431 1.350 . S
C1437 H1424 0.929 . S
C1437 C1429 1.433 . S
C1437 N1439 1.384 . S
N1438 C1434 1.427 . S
N1438 C1435 1.384 . S
N1439 C1431 1.427 . S
N1439 C1437 1.384 . S
H1440 C1446 0.930 . S
H1441 C1450 0.930 . S
H1442 C1455 0.929 . S
H1443 C1453 0.929 . S
H1444 C1448 0.929 . S
H1445 C1454 0.929 . S
C1446 H1440 0.930 . S
C1446 C1447 1.367 . S
C1446 C1454 1.378 . S
C1447 C1446 1.367 . S
C1447 C1455 1.433 . S
C1448 H1444 0.929 . S
C1448 C1450 1.378 . S
C1448 C1452 1.350 . S
C1449 C1452 1.463 . S
C1449 C1454 1.350 . S
C1449 N1457 1.427 . S
C1450 H1441 0.930 . S
C1450 C1448 1.378 . S
C1450 C1451 1.367 . S
C1451 C1450 1.367 . S
C1451 C1453 1.433 . S
C1452 C1448 1.350 . S
C1452 C1449 1.463 . S
C1452 N1456 1.427 . S
C1453 H1443 0.929 . S
C1453 C1451 1.433 . S
C1453 N1456 1.384 . S
C1454 H1445 0.929 . S
C1454 C1446 1.378 . S
C1454 C1449 1.350 . S
C1455 H1442 0.929 . S
C1455 C1447 1.433 . S
C1455 N1457 1.384 . S
N1456 C1452 1.427 . S
N1456 C1453 1.384 . S
N1457 C1449 1.427 . S
N1457 C1455 1.384 . S
H1458 C1464 0.930 . S
H1459 C1468 0.930 . S
H1460 C1473 0.929 . S
H1461 C1471 0.929 . S
H1462 C1466 0.929 . S
H1463 C1472 0.929 . S
C1464 H1458 0.930 . S
C1464 C1465 1.367 . S
C1464 C1472 1.378 . S
C1465 C1464 1.367 . S
C1465 C1473 1.433 . S
C1466 H1462 0.929 . S
C1466 C1468 1.378 . S
C1466 C1470 1.350 . S
C1467 C1470 1.463 . S
C1467 C1472 1.350 . S
C1467 N1475 1.427 . S
C1468 H1459 0.930 . S
C1468 C1466 1.378 . S
C1468 C1469 1.367 . S
C1469 C1468 1.367 . S
C1469 C1471 1.433 . S
C1470 C1466 1.350 . S
C1470 C1467 1.463 . S
C1470 N1474 1.427 . S
C1471 H1461 0.929 . S
C1471 C1469 1.433 . S
C1471 N1474 1.384 . S
C1472 H1463 0.929 . S
C1472 C1464 1.378 . S
C1472 C1467 1.350 . S
C1473 H1460 0.929 . S
C1473 C1465 1.433 . S
C1473 N1475 1.384 . S
N1474 C1470 1.427 . S
N1474 C1471 1.384 . S
N1475 C1467 1.427 . S
N1475 C1473 1.384 . S
H1476 C1482 0.930 . S
H1477 C1486 0.930 . S
H1478 C1491 0.929 . S
H1479 C1489 0.929 . S
H1480 C1484 0.929 . S
H1481 C1490 0.929 . S
C1482 H1476 0.930 . S
C1482 C1483 1.367 . S
C1482 C1490 1.378 . S
C1483 C1482 1.367 . S
C1483 C1491 1.433 . S
C1484 H1480 0.929 . S
C1484 C1486 1.378 . S
C1484 C1488 1.350 . S
C1485 C1488 1.463 . S
C1485 C1490 1.350 . S
C1485 N1493 1.427 . S
C1486 H1477 0.930 . S
C1486 C1484 1.378 . S
C1486 C1487 1.367 . S
C1487 C1486 1.367 . S
C1487 C1489 1.433 . S
C1488 C1484 1.350 . S
C1488 C1485 1.463 . S
C1488 N1492 1.427 . S
C1489 H1479 0.929 . S
C1489 C1487 1.433 . S
C1489 N1492 1.384 . S
C1490 H1481 0.929 . S
C1490 C1482 1.378 . S
C1490 C1485 1.350 . S
C1491 H1478 0.929 . S
C1491 C1483 1.433 . S
C1491 N1493 1.384 . S
N1492 C1488 1.427 . S
N1492 C1489 1.384 . S
N1493 C1485 1.427 . S
N1493 C1491 1.384 . S
H1494 C1500 0.930 . S
H1495 C1504 0.930 . S
H1496 C1509 0.929 . S
H1497 C1507 0.929 . S
H1498 C1502 0.929 . S
H1499 C1508 0.929 . S
C1500 H1494 0.930 . S
C1500 C1501 1.367 . S
C1500 C1508 1.378 . S
C1501 C1500 1.367 . S
C1501 C1509 1.433 . S
C1502 H1498 0.929 . S
C1502 C1504 1.378 . S
C1502 C1506 1.350 . S
C1503 C1506 1.463 . S
C1503 C1508 1.350 . S
C1503 N1511 1.427 . S
C1504 H1495 0.930 . S
C1504 C1502 1.378 . S
C1504 C1505 1.367 . S
C1505 C1504 1.367 . S
C1505 C1507 1.433 . S
C1506 C1502 1.350 . S
C1506 C1503 1.463 . S
C1506 N1510 1.427 . S
C1507 H1497 0.929 . S
C1507 C1505 1.433 . S
C1507 N1510 1.384 . S
C1508 H1499 0.929 . S
C1508 C1500 1.378 . S
C1508 C1503 1.350 . S
C1509 H1496 0.929 . S
C1509 C1501 1.433 . S
C1509 N1511 1.384 . S
N1510 C1506 1.427 . S
N1510 C1507 1.384 . S
N1511 C1503 1.427 . S
N1511 C1509 1.384 . S
H1512 C1518 0.930 . S
H1513 C1522 0.930 . S
H1514 C1527 0.929 . S
H1515 C1525 0.929 . S
H1516 C1520 0.929 . S
H1517 C1526 0.929 . S
C1518 H1512 0.930 . S
C1518 C1519 1.367 . S
C1518 C1526 1.378 . S
C1519 C1518 1.367 . S
C1519 C1527 1.433 . S
C1520 H1516 0.929 . S
C1520 C1522 1.378 . S
C1520 C1524 1.350 . S
C1521 C1524 1.463 . S
C1521 C1526 1.350 . S
C1521 N1529 1.427 . S
C1522 H1513 0.930 . S
C1522 C1520 1.378 . S
C1522 C1523 1.367 . S
C1523 C1522 1.367 . S
C1523 C1525 1.433 . S
C1524 C1520 1.350 . S
C1524 C1521 1.463 . S
C1524 N1528 1.427 . S
C1525 H1515 0.929 . S
C1525 C1523 1.433 . S
C1525 N1528 1.384 . S
C1526 H1517 0.929 . S
C1526 C1518 1.378 . S
C1526 C1521 1.350 . S
C1527 H1514 0.929 . S
C1527 C1519 1.433 . S
C1527 N1529 1.384 . S
N1528 C1524 1.427 . S
N1528 C1525 1.384 . S
N1529 C1521 1.427 . S
N1529 C1527 1.384 . S
H1530 C1536 0.930 . S
H1531 C1540 0.930 . S
H1532 C1545 0.929 . S
H1533 C1543 0.929 . S
H1534 C1538 0.929 . S
H1535 C1544 0.929 . S
C1536 H1530 0.930 . S
C1536 C1537 1.367 . S
C1536 C1544 1.378 . S
C1537 C1536 1.367 . S
C1537 C1545 1.433 . S
C1538 H1534 0.929 . S
C1538 C1540 1.378 . S
C1538 C1542 1.350 . S
C1539 C1542 1.463 . S
C1539 C1544 1.350 . S
C1539 N1547 1.427 . S
C1540 H1531 0.930 . S
C1540 C1538 1.378 . S
C1540 C1541 1.367 . S
C1541 C1540 1.367 . S
C1541 C1543 1.433 . S
C1542 C1538 1.350 . S
C1542 C1539 1.463 . S
C1542 N1546 1.427 . S
C1543 H1533 0.929 . S
C1543 C1541 1.433 . S
C1543 N1546 1.384 . S
C1544 H1535 0.929 . S
C1544 C1536 1.378 . S
C1544 C1539 1.350 . S
C1545 H1532 0.929 . S
C1545 C1537 1.433 . S
C1545 N1547 1.384 . S
N1546 C1542 1.427 . S
N1546 C1543 1.384 . S
N1547 C1539 1.427 . S
N1547 C1545 1.384 . S
H1548 C1554 0.930 . S
H1549 C1558 0.930 . S
H1550 C1563 0.929 . S
H1551 C1561 0.929 . S
H1552 C1556 0.929 . S
H1553 C1562 0.929 . S
C1554 H1548 0.930 . S
C1554 C1555 1.367 . S
C1554 C1562 1.378 . S
C1555 C1554 1.367 . S
C1555 C1563 1.433 . S
C1556 H1552 0.929 . S
C1556 C1558 1.378 . S
C1556 C1560 1.350 . S
C1557 C1560 1.463 . S
C1557 C1562 1.350 . S
C1557 N1565 1.427 . S
C1558 H1549 0.930 . S
C1558 C1556 1.378 . S
C1558 C1559 1.367 . S
C1559 C1558 1.367 . S
C1559 C1561 1.433 . S
C1560 C1556 1.350 . S
C1560 C1557 1.463 . S
C1560 N1564 1.427 . S
C1561 H1551 0.929 . S
C1561 C1559 1.433 . S
C1561 N1564 1.384 . S
C1562 H1553 0.929 . S
C1562 C1554 1.378 . S
C1562 C1557 1.350 . S
C1563 H1550 0.929 . S
C1563 C1555 1.433 . S
C1563 N1565 1.384 . S
N1564 C1560 1.427 . S
N1564 C1561 1.384 . S
N1565 C1557 1.427 . S
N1565 C1563 1.384 . S
H1566 C1572 0.930 . S
H1567 C1576 0.930 . S
H1568 C1581 0.929 . S
H1569 C1579 0.929 . S
H1570 C1574 0.929 . S
H1571 C1580 0.929 . S
C1572 H1566 0.930 . S
C1572 C1573 1.367 . S
C1572 C1580 1.378 . S
C1573 C1572 1.367 . S
C1573 C1581 1.433 . S
C1574 H1570 0.929 . S
C1574 C1576 1.378 . S
C1574 C1578 1.350 . S
C1575 C1578 1.463 . S
C1575 C1580 1.350 . S
C1575 N1583 1.427 . S
C1576 H1567 0.930 . S
C1576 C1574 1.378 . S
C1576 C1577 1.367 . S
C1577 C1576 1.367 . S
C1577 C1579 1.433 . S
C1578 C1574 1.350 . S
C1578 C1575 1.463 . S
C1578 N1582 1.427 . S
C1579 H1569 0.929 . S
C1579 C1577 1.433 . S
C1579 N1582 1.384 . S
C1580 H1571 0.929 . S
C1580 C1572 1.378 . S
C1580 C1575 1.350 . S
C1581 H1568 0.929 . S
C1581 C1573 1.433 . S
C1581 N1583 1.384 . S
N1582 C1578 1.427 . S
N1582 C1579 1.384 . S
N1583 C1575 1.427 . S
N1583 C1581 1.384 . S
H1584 C1590 0.930 . S
H1585 C1594 0.930 . S
H1586 C1599 0.929 . S
H1587 C1597 0.929 . S
H1588 C1592 0.929 . S
H1589 C1598 0.929 . S
C1590 H1584 0.930 . S
C1590 C1591 1.367 . S
C1590 C1598 1.378 . S
C1591 C1590 1.367 . S
C1591 C1599 1.433 . S
C1592 H1588 0.929 . S
C1592 C1594 1.378 . S
C1592 C1596 1.350 . S
C1593 C1596 1.463 . S
C1593 C1598 1.350 . S
C1593 N1601 1.427 . S
C1594 H1585 0.930 . S
C1594 C1592 1.378 . S
C1594 C1595 1.367 . S
C1595 C1594 1.367 . S
C1595 C1597 1.433 . S
C1596 C1592 1.350 . S
C1596 C1593 1.463 . S
C1596 N1600 1.427 . S
C1597 H1587 0.929 . S
C1597 C1595 1.433 . S
C1597 N1600 1.384 . S
C1598 H1589 0.929 . S
C1598 C1590 1.378 . S
C1598 C1593 1.350 . S
C1599 H1586 0.929 . S
C1599 C1591 1.433 . S
C1599 N1601 1.384 . S
N1600 C1596 1.427 . S
N1600 C1597 1.384 . S
N1601 C1593 1.427 . S
N1601 C1599 1.384 . S
H1602 C1608 0.930 . S
H1603 C1612 0.930 . S
H1604 C1617 0.929 . S
H1605 C1615 0.929 . S
H1606 C1610 0.929 . S
H1607 C1616 0.929 . S
C1608 H1602 0.930 . S
C1608 C1609 1.367 . S
C1608 C1616 1.378 . S
C1609 C1608 1.367 . S
C1609 C1617 1.433 . S
C1610 H1606 0.929 . S
C1610 C1612 1.378 . S
C1610 C1614 1.350 . S
C1611 C1614 1.463 . S
C1611 C1616 1.350 . S
C1611 N1619 1.427 . S
C1612 H1603 0.930 . S
C1612 C1610 1.378 . S
C1612 C1613 1.367 . S
C1613 C1612 1.367 . S
C1613 C1615 1.433 . S
C1614 C1610 1.350 . S
C1614 C1611 1.463 . S
C1614 N1618 1.427 . S
C1615 H1605 0.929 . S
C1615 C1613 1.433 . S
C1615 N1618 1.384 . S
C1616 H1607 0.929 . S
C1616 C1608 1.378 . S
C1616 C1611 1.350 . S
C1617 H1604 0.929 . S
C1617 C1609 1.433 . S
C1617 N1619 1.384 . S
N1618 C1614 1.427 . S
N1618 C1615 1.384 . S
N1619 C1611 1.427 . S
N1619 C1617 1.384 . S
H1620 C1626 0.930 . S
H1621 C1630 0.930 . S
H1622 C1635 0.929 . S
H1623 C1633 0.929 . S
H1624 C1628 0.929 . S
H1625 C1634 0.929 . S
C1626 H1620 0.930 . S
C1626 C1627 1.367 . S
C1626 C1634 1.378 . S
C1627 C1626 1.367 . S
C1627 C1635 1.433 . S
C1628 H1624 0.929 . S
C1628 C1630 1.378 . S
C1628 C1632 1.350 . S
C1629 C1632 1.463 . S
C1629 C1634 1.350 . S
C1629 N1637 1.427 . S
C1630 H1621 0.930 . S
C1630 C1628 1.378 . S
C1630 C1631 1.367 . S
C1631 C1630 1.367 . S
C1631 C1633 1.433 . S
C1632 C1628 1.350 . S
C1632 C1629 1.463 . S
C1632 N1636 1.427 . S
C1633 H1623 0.929 . S
C1633 C1631 1.433 . S
C1633 N1636 1.384 . S
C1634 H1625 0.929 . S
C1634 C1626 1.378 . S
C1634 C1629 1.350 . S
C1635 H1622 0.929 . S
C1635 C1627 1.433 . S
C1635 N1637 1.384 . S
N1636 C1632 1.427 . S
N1636 C1633 1.384 . S
N1637 C1629 1.427 . S
N1637 C1635 1.384 . S
H1638 C1644 0.930 . S
H1639 C1648 0.930 . S
H1640 C1653 0.929 . S
H1641 C1651 0.929 . S
H1642 C1646 0.929 . S
H1643 C1652 0.929 . S
C1644 H1638 0.930 . S
C1644 C1645 1.367 . S
C1644 C1652 1.378 . S
C1645 C1644 1.367 . S
C1645 C1653 1.433 . S
C1646 H1642 0.929 . S
C1646 C1648 1.378 . S
C1646 C1650 1.350 . S
C1647 C1650 1.463 . S
C1647 C1652 1.350 . S
C1647 N1655 1.427 . S
C1648 H1639 0.930 . S
C1648 C1646 1.378 . S
C1648 C1649 1.367 . S
C1649 C1648 1.367 . S
C1649 C1651 1.433 . S
C1650 C1646 1.350 . S
C1650 C1647 1.463 . S
C1650 N1654 1.427 . S
C1651 H1641 0.929 . S
C1651 C1649 1.433 . S
C1651 N1654 1.384 . S
C1652 H1643 0.929 . S
C1652 C1644 1.378 . S
C1652 C1647 1.350 . S
C1653 H1640 0.929 . S
C1653 C1645 1.433 . S
C1653 N1655 1.384 . S
N1654 C1650 1.427 . S
N1654 C1651 1.384 . S
N1655 C1647 1.427 . S
N1655 C1653 1.384 . S
H1656 C1662 0.930 . S
H1657 C1666 0.930 . S
H1658 C1671 0.929 . S
H1659 C1669 0.929 . S
H1660 C1664 0.929 . S
H1661 C1670 0.929 . S
C1662 H1656 0.930 . S
C1662 C1663 1.367 . S
C1662 C1670 1.378 . S
C1663 C1662 1.367 . S
C1663 C1671 1.433 . S
C1664 H1660 0.929 . S
C1664 C1666 1.378 . S
C1664 C1668 1.350 . S
C1665 C1668 1.463 . S
C1665 C1670 1.350 . S
C1665 N1673 1.427 . S
C1666 H1657 0.930 . S
C1666 C1664 1.378 . S
C1666 C1667 1.367 . S
C1667 C1666 1.367 . S
C1667 C1669 1.433 . S
C1668 C1664 1.350 . S
C1668 C1665 1.463 . S
C1668 N1672 1.427 . S
C1669 H1659 0.929 . S
C1669 C1667 1.433 . S
C1669 N1672 1.384 . S
C1670 H1661 0.929 . S
C1670 C1662 1.378 . S
C1670 C1665 1.350 . S
C1671 H1658 0.929 . S
C1671 C1663 1.433 . S
C1671 N1673 1.384 . S
N1672 C1668 1.427 . S
N1672 C1669 1.384 . S
N1673 C1665 1.427 . S
N1673 C1671 1.384 . S
H1674 C1680 0.930 . S
H1675 C1684 0.930 . S
H1676 C1689 0.929 . S
H1677 C1687 0.929 . S
H1678 C1682 0.929 . S
H1679 C1688 0.929 . S
C1680 H1674 0.930 . S
C1680 C1681 1.367 . S
C1680 C1688 1.378 . S
C1681 C1680 1.367 . S
C1681 C1689 1.433 . S
C1682 H1678 0.929 . S
C1682 C1684 1.378 . S
C1682 C1686 1.350 . S
C1683 C1686 1.463 . S
C1683 C1688 1.350 . S
C1683 N1691 1.427 . S
C1684 H1675 0.930 . S
C1684 C1682 1.378 . S
C1684 C1685 1.367 . S
C1685 C1684 1.367 . S
C1685 C1687 1.433 . S
C1686 C1682 1.350 . S
C1686 C1683 1.463 . S
C1686 N1690 1.427 . S
C1687 H1677 0.929 . S
C1687 C1685 1.433 . S
C1687 N1690 1.384 . S
C1688 H1679 0.929 . S
C1688 C1680 1.378 . S
C1688 C1683 1.350 . S
C1689 H1676 0.929 . S
C1689 C1681 1.433 . S
C1689 N1691 1.384 . S
N1690 C1686 1.427 . S
N1690 C1687 1.384 . S
N1691 C1683 1.427 . S
N1691 C1689 1.384 . S
H1692 C1698 0.930 . S
H1693 C1702 0.930 . S
H1694 C1707 0.929 . S
H1695 C1705 0.929 . S
H1696 C1700 0.929 . S
H1697 C1706 0.929 . S
C1698 H1692 0.930 . S
C1698 C1699 1.367 . S
C1698 C1706 1.378 . S
C1699 C1698 1.367 . S
C1699 C1707 1.433 . S
C1700 H1696 0.929 . S
C1700 C1702 1.378 . S
C1700 C1704 1.350 . S
C1701 C1704 1.463 . S
C1701 C1706 1.350 . S
C1701 N1709 1.427 . S
C1702 H1693 0.930 . S
C1702 C1700 1.378 . S
C1702 C1703 1.367 . S
C1703 C1702 1.367 . S
C1703 C1705 1.433 . S
C1704 C1700 1.350 . S
C1704 C1701 1.463 . S
C1704 N1708 1.427 . S
C1705 H1695 0.929 . S
C1705 C1703 1.433 . S
C1705 N1708 1.384 . S
C1706 H1697 0.929 . S
C1706 C1698 1.378 . S
C1706 C1701 1.350 . S
C1707 H1694 0.929 . S
C1707 C1699 1.433 . S
C1707 N1709 1.384 . S
N1708 C1704 1.427 . S
N1708 C1705 1.384 . S
N1709 C1701 1.427 . S
N1709 C1707 1.384 . S
H1710 C1716 0.930 . S
H1711 C1720 0.930 . S
H1712 C1725 0.929 . S
H1713 C1723 0.929 . S
H1714 C1718 0.929 . S
H1715 C1724 0.929 . S
C1716 H1710 0.930 . S
C1716 C1717 1.367 . S
C1716 C1724 1.378 . S
C1717 C1716 1.367 . S
C1717 C1725 1.433 . S
C1718 H1714 0.929 . S
C1718 C1720 1.378 . S
C1718 C1722 1.350 . S
C1719 C1722 1.463 1_556 S
C1719 C1724 1.350 . S
C1719 N1727 1.427 . S
C1720 H1711 0.930 . S
C1720 C1718 1.378 . S
C1720 C1721 1.367 . S
C1721 C1720 1.367 . S
C1721 C1723 1.433 . S
C1722 C1718 1.350 . S
C1722 C1719 1.463 1_554 S
C1722 N1726 1.427 . S
C1723 H1713 0.929 . S
C1723 C1721 1.433 . S
C1723 N1726 1.384 . S
C1724 H1715 0.929 . S
C1724 C1716 1.378 . S
C1724 C1719 1.350 . S
C1725 H1712 0.929 . S
C1725 C1717 1.433 . S
C1725 N1727 1.384 . S
N1726 C1722 1.427 . S
N1726 C1723 1.384 . S
N1727 C1719 1.427 . S
N1727 C1725 1.384 . S
H1728 C1734 0.930 . S
H1729 C1738 0.930 . S
H1730 C1743 0.929 . S
H1731 C1741 0.929 . S
H1732 C1736 0.929 . S
H1733 C1742 0.929 . S
C1734 H1728 0.930 . S
C1734 C1735 1.367 . S
C1734 C1742 1.378 . S
C1735 C1734 1.367 . S
C1735 C1743 1.433 . S
C1736 H1732 0.929 . S
C1736 C1738 1.378 . S
C1736 C1740 1.350 . S
C1737 C1740 1.463 1_554 S
C1737 C1742 1.350 . S
C1737 N1745 1.427 . S
C1738 H1729 0.930 . S
C1738 C1736 1.378 . S
C1738 C1739 1.367 . S
C1739 C1738 1.367 . S
C1739 C1741 1.433 . S
C1740 C1736 1.350 . S
C1740 C1737 1.463 1_556 S
C1740 N1744 1.427 . S
C1741 H1731 0.929 . S
C1741 C1739 1.433 . S
C1741 N1744 1.384 . S
C1742 H1733 0.929 . S
C1742 C1734 1.378 . S
C1742 C1737 1.350 . S
C1743 H1730 0.929 . S
C1743 C1735 1.433 . S
C1743 N1745 1.384 . S
N1744 C1740 1.427 . S
N1744 C1741 1.384 . S
N1745 C1737 1.427 . S
N1745 C1743 1.384 . S
H1746 C1752 0.930 . S
H1747 C1756 0.930 . S
H1748 C1761 0.929 . S
H1749 C1759 0.929 . S
H1750 C1754 0.918 1_554 S
H1751 C1760 0.929 . S
C1752 H1746 0.930 . S
C1752 C1753 1.367 . S
C1752 C1760 1.378 . S
C1753 C1752 1.367 . S
C1753 C1761 1.433 . S
C1754 H1750 0.918 1_556 S
C1754 C1756 1.378 . S
C1754 C1758 1.350 . S
C1755 C1758 1.463 1_554 S
C1755 C1760 1.350 . S
C1755 N1763 1.427 . S
C1756 H1747 0.930 . S
C1756 C1754 1.378 . S
C1756 C1757 1.367 . S
C1757 C1756 1.367 . S
C1757 C1759 1.433 . S
C1758 C1754 1.350 . S
C1758 C1755 1.463 1_556 S
C1758 N1762 1.427 . S
C1759 H1749 0.929 . S
C1759 C1757 1.433 . S
C1759 N1762 1.384 . S
C1760 H1751 0.929 . S
C1760 C1752 1.378 . S
C1760 C1755 1.350 . S
C1761 H1748 0.929 . S
C1761 C1753 1.433 . S
C1761 N1763 1.384 . S
N1762 C1758 1.427 . S
N1762 C1759 1.384 . S
N1763 C1755 1.427 . S
N1763 C1761 1.384 . S
H1764 C1770 0.930 . S
H1765 C1774 0.930 . S
H1766 C1779 0.929 . S
H1767 C1777 0.929 . S
H1768 C1772 0.929 . S
H1769 C1778 0.929 . S
C1770 H1764 0.930 . S
C1770 C1771 1.367 . S
C1770 C1778 1.378 . S
C1771 C1770 1.367 . S
C1771 C1779 1.433 . S
C1772 H1768 0.929 . S
C1772 C1774 1.378 . S
C1772 C1776 1.350 . S
C1773 C1776 1.463 . S
C1773 C1778 1.350 . S
C1773 N1781 1.427 . S
C1774 H1765 0.930 . S
C1774 C1772 1.378 . S
C1774 C1775 1.367 . S
C1775 C1774 1.367 . S
C1775 C1777 1.433 . S
C1776 C1772 1.350 . S
C1776 C1773 1.463 . S
C1776 N1780 1.427 . S
C1777 H1767 0.929 . S
C1777 C1775 1.433 . S
C1777 N1780 1.384 . S
C1778 H1769 0.929 . S
C1778 C1770 1.378 . S
C1778 C1773 1.350 . S
C1779 H1766 0.929 . S
C1779 C1771 1.433 . S
C1779 N1781 1.384 . S
N1780 C1776 1.427 . S
N1780 C1777 1.384 . S
N1781 C1773 1.427 . S
N1781 C1779 1.384 . S
H1782 C1788 0.930 . S
H1783 C1792 0.930 . S
H1784 C1797 0.929 . S
H1785 C1795 0.929 . S
H1786 C1790 0.929 . S
H1787 C1796 0.929 . S
C1788 H1782 0.930 . S
C1788 C1789 1.367 . S
C1788 C1796 1.378 . S
C1789 C1788 1.367 . S
C1789 C1797 1.433 . S
C1790 H1786 0.929 . S
C1790 C1792 1.378 . S
C1790 C1794 1.350 . S
C1791 C1794 1.463 . S
C1791 C1796 1.350 . S
C1791 N1799 1.427 . S
C1792 H1783 0.930 . S
C1792 C1790 1.378 . S
C1792 C1793 1.367 . S
C1793 C1792 1.367 . S
C1793 C1795 1.433 . S
C1794 C1790 1.350 . S
C1794 C1791 1.463 . S
C1794 N1798 1.427 . S
C1795 H1785 0.929 . S
C1795 C1793 1.433 . S
C1795 N1798 1.384 . S
C1796 H1787 0.929 . S
C1796 C1788 1.378 . S
C1796 C1791 1.350 . S
C1797 H1784 0.929 . S
C1797 C1789 1.433 . S
C1797 N1799 1.384 . S
N1798 C1794 1.427 . S
N1798 C1795 1.384 . S
N1799 C1791 1.427 . S
N1799 C1797 1.384 . S
H1800 C1806 0.930 . S
H1801 C1810 0.930 . S
H1802 C1815 0.929 . S
H1803 C1813 0.929 . S
H1804 C1808 0.929 . S
H1805 C1814 0.929 . S
C1806 H1800 0.930 . S
C1806 C1807 1.367 . S
C1806 C1814 1.378 . S
C1807 C1806 1.367 . S
C1807 C1815 1.433 . S
C1808 H1804 0.929 . S
C1808 C1810 1.378 . S
C1808 C1812 1.350 . S
C1809 C1812 1.463 . S
C1809 C1814 1.350 . S
C1809 N1817 1.427 . S
C1810 H1801 0.930 . S
C1810 C1808 1.378 . S
C1810 C1811 1.367 . S
C1811 C1810 1.367 . S
C1811 C1813 1.433 . S
C1812 C1808 1.350 . S
C1812 C1809 1.463 . S
C1812 N1816 1.427 . S
C1813 H1803 0.929 . S
C1813 C1811 1.433 . S
C1813 N1816 1.384 . S
C1814 H1805 0.929 . S
C1814 C1806 1.378 . S
C1814 C1809 1.350 . S
C1815 H1802 0.929 . S
C1815 C1807 1.433 . S
C1815 N1817 1.384 . S
N1816 C1812 1.427 . S
N1816 C1813 1.384 . S
N1817 C1809 1.427 . S
N1817 C1815 1.384 . S
H1818 C1824 0.930 . S
H1819 C1828 0.930 . S
H1820 C1833 0.929 . S
H1821 C1831 0.929 . S
H1822 C1826 0.929 . S
H1823 C1832 0.929 . S
C1824 H1818 0.930 . S
C1824 C1825 1.367 . S
C1824 C1832 1.378 . S
C1825 C1824 1.367 . S
C1825 C1833 1.433 . S
C1826 H1822 0.929 . S
C1826 C1828 1.378 . S
C1826 C1830 1.350 . S
C1827 C1830 1.463 . S
C1827 C1832 1.350 . S
C1827 N1835 1.427 . S
C1828 H1819 0.930 . S
C1828 C1826 1.378 . S
C1828 C1829 1.367 . S
C1829 C1828 1.367 . S
C1829 C1831 1.433 . S
C1830 C1826 1.350 . S
C1830 C1827 1.463 . S
C1830 N1834 1.427 . S
C1831 H1821 0.929 . S
C1831 C1829 1.433 . S
C1831 N1834 1.384 . S
C1832 H1823 0.929 . S
C1832 C1824 1.378 . S
C1832 C1827 1.350 . S
C1833 H1820 0.929 . S
C1833 C1825 1.433 . S
C1833 N1835 1.384 . S
N1834 C1830 1.427 . S
N1834 C1831 1.384 . S
N1835 C1827 1.427 . S
N1835 C1833 1.384 . S
H1836 C1842 0.930 . S
H1837 C1846 0.930 . S
H1838 C1851 0.929 . S
H1839 C1849 0.929 . S
H1840 C1844 0.929 . S
H1841 C1850 0.929 . S
C1842 H1836 0.930 . S
C1842 C1843 1.367 . S
C1842 C1850 1.378 . S
C1843 C1842 1.367 . S
C1843 C1851 1.433 . S
C1844 H1840 0.929 . S
C1844 C1846 1.378 . S
C1844 C1848 1.350 . S
C1845 C1848 1.463 . S
C1845 C1850 1.350 . S
C1845 N1853 1.427 . S
C1846 H1837 0.930 . S
C1846 C1844 1.378 . S
C1846 C1847 1.367 . S
C1847 C1846 1.367 . S
C1847 C1849 1.433 . S
C1848 C1844 1.350 . S
C1848 C1845 1.463 . S
C1848 N1852 1.427 . S
C1849 H1839 0.929 . S
C1849 C1847 1.433 . S
C1849 N1852 1.384 . S
C1850 H1841 0.929 . S
C1850 C1842 1.378 . S
C1850 C1845 1.350 . S
C1851 H1838 0.929 . S
C1851 C1843 1.433 . S
C1851 N1853 1.384 . S
N1852 C1848 1.427 . S
N1852 C1849 1.384 . S
N1853 C1845 1.427 . S
N1853 C1851 1.384 . S
H1854 C1860 0.930 . S
H1855 C1864 0.930 . S
H1856 C1869 0.929 . S
H1857 C1867 0.929 . S
H1858 C1862 0.929 . S
H1859 C1868 0.929 . S
C1860 H1854 0.930 . S
C1860 C1861 1.367 . S
C1860 C1868 1.378 . S
C1861 C1860 1.367 . S
C1861 C1869 1.433 . S
C1862 H1858 0.929 . S
C1862 C1864 1.378 . S
C1862 C1866 1.350 . S
C1863 C1866 1.463 . S
C1863 C1868 1.350 . S
C1863 N1871 1.427 . S
C1864 H1855 0.930 . S
C1864 C1862 1.378 . S
C1864 C1865 1.367 . S
C1865 C1864 1.367 . S
C1865 C1867 1.433 . S
C1866 C1862 1.350 . S
C1866 C1863 1.463 . S
C1866 N1870 1.427 . S
C1867 H1857 0.929 . S
C1867 C1865 1.433 . S
C1867 N1870 1.384 . S
C1868 H1859 0.929 . S
C1868 C1860 1.378 . S
C1868 C1863 1.350 . S
C1869 H1856 0.929 . S
C1869 C1861 1.433 . S
C1869 N1871 1.384 . S
N1870 C1866 1.427 . S
N1870 C1867 1.384 . S
N1871 C1863 1.427 . S
N1871 C1869 1.384 . S
H1872 C1878 0.930 . S
H1873 C1882 0.930 . S
H1874 C1887 0.929 . S
H1875 C1885 0.929 . S
H1876 C1880 0.929 . S
H1877 C1886 0.929 . S
C1878 H1872 0.930 . S
C1878 C1879 1.367 . S
C1878 C1886 1.378 . S
C1879 C1878 1.367 . S
C1879 C1887 1.433 . S
C1880 H1876 0.929 . S
C1880 C1882 1.378 . S
C1880 C1884 1.350 . S
C1881 C1884 1.463 . S
C1881 C1886 1.350 . S
C1881 N1889 1.427 . S
C1882 H1873 0.930 . S
C1882 C1880 1.378 . S
C1882 C1883 1.367 . S
C1883 C1882 1.367 . S
C1883 C1885 1.433 . S
C1884 C1880 1.350 . S
C1884 C1881 1.463 . S
C1884 N1888 1.427 . S
C1885 H1875 0.929 . S
C1885 C1883 1.433 . S
C1885 N1888 1.384 . S
C1886 H1877 0.929 . S
C1886 C1878 1.378 . S
C1886 C1881 1.350 . S
C1887 H1874 0.929 . S
C1887 C1879 1.433 . S
C1887 N1889 1.384 . S
N1888 C1884 1.427 . S
N1888 C1885 1.384 . S
N1889 C1881 1.427 . S
N1889 C1887 1.384 . S
H1890 C1896 0.930 . S
H1891 C1900 0.930 . S
H1892 C1905 0.929 . S
H1893 C1903 0.929 . S
H1894 C1898 0.929 . S
H1895 C1904 0.929 . S
C1896 H1890 0.930 . S
C1896 C1897 1.367 . S
C1896 C1904 1.378 . S
C1897 C1896 1.367 . S
C1897 C1905 1.433 . S
C1898 H1894 0.929 . S
C1898 C1900 1.378 . S
C1898 C1902 1.350 . S
C1899 C1902 1.463 . S
C1899 C1904 1.350 . S
C1899 N1907 1.427 . S
C1900 H1891 0.930 . S
C1900 C1898 1.378 . S
C1900 C1901 1.367 . S
C1901 C1900 1.367 . S
C1901 C1903 1.433 . S
C1902 C1898 1.350 . S
C1902 C1899 1.463 . S
C1902 N1906 1.427 . S
C1903 H1893 0.929 . S
C1903 C1901 1.433 . S
C1903 N1906 1.384 . S
C1904 H1895 0.929 . S
C1904 C1896 1.378 . S
C1904 C1899 1.350 . S
C1905 H1892 0.929 . S
C1905 C1897 1.433 . S
C1905 N1907 1.384 . S
N1906 C1902 1.427 . S
N1906 C1903 1.384 . S
N1907 C1899 1.427 . S
N1907 C1905 1.384 . S
H1908 C1914 0.930 . S
H1909 C1918 0.930 . S
H1910 C1923 0.929 . S
H1911 C1921 0.929 . S
H1912 C1916 0.929 . S
H1913 C1922 0.929 . S
C1914 H1908 0.930 . S
C1914 C1915 1.367 . S
C1914 C1922 1.378 . S
C1915 C1914 1.367 . S
C1915 C1923 1.433 . S
C1916 H1912 0.929 . S
C1916 C1918 1.378 . S
C1916 C1920 1.350 . S
C1917 C1920 1.463 . S
C1917 C1922 1.350 . S
C1917 N1925 1.427 . S
C1918 H1909 0.930 . S
C1918 C1916 1.378 . S
C1918 C1919 1.367 . S
C1919 C1918 1.367 . S
C1919 C1921 1.433 . S
C1920 C1916 1.350 . S
C1920 C1917 1.463 . S
C1920 N1924 1.427 . S
C1921 H1911 0.929 . S
C1921 C1919 1.433 . S
C1921 N1924 1.384 . S
C1922 H1913 0.929 . S
C1922 C1914 1.378 . S
C1922 C1917 1.350 . S
C1923 H1910 0.929 . S
C1923 C1915 1.433 . S
C1923 N1925 1.384 . S
N1924 C1920 1.427 . S
N1924 C1921 1.384 . S
N1925 C1917 1.427 . S
N1925 C1923 1.384 . S
H1926 C1932 0.930 . S
H1927 C1936 0.930 . S
H1928 C1941 0.929 . S
H1929 C1939 0.929 . S
H1930 C1934 0.929 . S
H1931 C1940 0.929 . S
C1932 H1926 0.930 . S
C1932 C1933 1.367 . S
C1932 C1940 1.378 . S
C1933 C1932 1.367 . S
C1933 C1941 1.433 . S
C1934 H1930 0.929 . S
C1934 C1936 1.378 . S
C1934 C1938 1.350 . S
C1935 C1938 1.463 . S
C1935 C1940 1.350 . S
C1935 N1943 1.427 . S
C1936 H1927 0.930 . S
C1936 C1934 1.378 . S
C1936 C1937 1.367 . S
C1937 C1936 1.367 . S
C1937 C1939 1.433 . S
C1938 C1934 1.350 . S
C1938 C1935 1.463 . S
C1938 N1942 1.427 . S
C1939 H1929 0.929 . S
C1939 C1937 1.433 . S
C1939 N1942 1.384 . S
C1940 H1931 0.929 . S
C1940 C1932 1.378 . S
C1940 C1935 1.350 . S
C1941 H1928 0.929 . S
C1941 C1933 1.433 . S
C1941 N1943 1.384 . S
N1942 C1938 1.427 . S
N1942 C1939 1.384 . S
N1943 C1935 1.427 . S
N1943 C1941 1.384 . S
H1944 C1950 0.930 . S
H1945 C1954 0.930 . S
H1946 C1959 0.929 . S
H1947 C1957 0.929 . S
H1948 C1952 0.929 . S
H1949 C1958 0.929 . S
C1950 H1944 0.930 . S
C1950 C1951 1.367 . S
C1950 C1958 1.378 . S
C1951 C1950 1.367 . S
C1951 C1959 1.433 . S
C1952 H1948 0.929 . S
C1952 C1954 1.378 . S
C1952 C1956 1.350 . S
C1953 C1956 1.463 . S
C1953 C1958 1.350 . S
C1953 N1961 1.427 . S
C1954 H1945 0.930 . S
C1954 C1952 1.378 . S
C1954 C1955 1.367 . S
C1955 C1954 1.367 . S
C1955 C1957 1.433 . S
C1956 C1952 1.350 . S
C1956 C1953 1.463 . S
C1956 N1960 1.427 . S
C1957 H1947 0.929 . S
C1957 C1955 1.433 . S
C1957 N1960 1.384 . S
C1958 H1949 0.929 . S
C1958 C1950 1.378 . S
C1958 C1953 1.350 . S
C1959 H1946 0.929 . S
C1959 C1951 1.433 . S
C1959 N1961 1.384 . S
N1960 C1956 1.427 . S
N1960 C1957 1.384 . S
N1961 C1953 1.427 . S
N1961 C1959 1.384 . S
H1962 C1968 0.930 . S
H1963 C1972 0.930 . S
H1964 C1977 0.929 . S
H1965 C1975 0.929 . S
H1966 C1970 0.929 . S
H1967 C1976 0.929 . S
C1968 H1962 0.930 . S
C1968 C1969 1.367 . S
C1968 C1976 1.378 . S
C1969 C1968 1.367 . S
C1969 C1977 1.433 . S
C1970 H1966 0.929 . S
C1970 C1972 1.378 . S
C1970 C1974 1.350 . S
C1971 C1974 1.463 . S
C1971 C1976 1.350 . S
C1971 N1979 1.427 . S
C1972 H1963 0.930 . S
C1972 C1970 1.378 . S
C1972 C1973 1.367 . S
C1973 C1972 1.367 . S
C1973 C1975 1.433 . S
C1974 C1970 1.350 . S
C1974 C1971 1.463 . S
C1974 N1978 1.427 . S
C1975 H1965 0.929 . S
C1975 C1973 1.433 . S
C1975 N1978 1.384 . S
C1976 H1967 0.929 . S
C1976 C1968 1.378 . S
C1976 C1971 1.350 . S
C1977 H1964 0.929 . S
C1977 C1969 1.433 . S
C1977 N1979 1.384 . S
N1978 C1974 1.427 . S
N1978 C1975 1.384 . S
N1979 C1971 1.427 . S
N1979 C1977 1.384 . S
H1980 C1986 0.930 . S
H1981 C1990 0.930 . S
H1982 C1995 0.929 . S
H1983 C1993 0.929 . S
H1984 C1988 0.929 . S
H1985 C1994 0.929 . S
C1986 H1980 0.930 . S
C1986 C1987 1.367 . S
C1986 C1994 1.378 . S
C1987 C1986 1.367 . S
C1987 C1995 1.433 . S
C1988 H1984 0.929 . S
C1988 C1990 1.378 . S
C1988 C1992 1.350 . S
C1989 C1992 1.463 . S
C1989 C1994 1.350 . S
C1989 N1997 1.427 . S
C1990 H1981 0.930 . S
C1990 C1988 1.378 . S
C1990 C1991 1.367 . S
C1991 C1990 1.367 . S
C1991 C1993 1.433 . S
C1992 C1988 1.350 . S
C1992 C1989 1.463 . S
C1992 N1996 1.427 . S
C1993 H1983 0.929 . S
C1993 C1991 1.433 . S
C1993 N1996 1.384 . S
C1994 H1985 0.929 . S
C1994 C1986 1.378 . S
C1994 C1989 1.350 . S
C1995 H1982 0.929 . S
C1995 C1987 1.433 . S
C1995 N1997 1.384 . S
N1996 C1992 1.427 . S
N1996 C1993 1.384 . S
N1997 C1989 1.427 . S
N1997 C1995 1.384 . S
H1998 C2004 0.930 . S
H1999 C2008 0.930 . S
H2000 C2013 0.929 . S
H2001 C2011 0.929 . S
H2002 C2006 0.929 . S
H2003 C2012 0.929 . S
C2004 H1998 0.930 . S
C2004 C2005 1.367 . S
C2004 C2012 1.378 . S
C2005 C2004 1.367 . S
C2005 C2013 1.433 . S
C2006 H2002 0.929 . S
C2006 C2008 1.378 . S
C2006 C2010 1.350 . S
C2007 C2010 1.463 . S
C2007 C2012 1.350 . S
C2007 N2015 1.427 . S
C2008 H1999 0.930 . S
C2008 C2006 1.378 . S
C2008 C2009 1.367 . S
C2009 C2008 1.367 . S
C2009 C2011 1.433 . S
C2010 C2006 1.350 . S
C2010 C2007 1.463 . S
C2010 N2014 1.427 . S
C2011 H2001 0.929 . S
C2011 C2009 1.433 . S
C2011 N2014 1.384 . S
C2012 H2003 0.929 . S
C2012 C2004 1.378 . S
C2012 C2007 1.350 . S
C2013 H2000 0.929 . S
C2013 C2005 1.433 . S
C2013 N2015 1.384 . S
N2014 C2010 1.427 . S
N2014 C2011 1.384 . S
N2015 C2007 1.427 . S
N2015 C2013 1.384 . S
H2016 C2022 0.930 . S
H2017 C2026 0.930 . S
H2018 C2031 0.929 . S
H2019 C2029 0.929 . S
H2020 C2024 0.929 . S
H2021 C2030 0.929 . S
C2022 H2016 0.930 . S
C2022 C2023 1.367 . S
C2022 C2030 1.378 . S
C2023 C2022 1.367 . S
C2023 C2031 1.433 . S
C2024 H2020 0.929 . S
C2024 C2026 1.378 . S
C2024 C2028 1.350 . S
C2025 C2028 1.463 . S
C2025 C2030 1.350 . S
C2025 N2033 1.427 . S
C2026 H2017 0.930 . S
C2026 C2024 1.378 . S
C2026 C2027 1.367 . S
C2027 C2026 1.367 . S
C2027 C2029 1.433 . S
C2028 C2024 1.350 . S
C2028 C2025 1.463 . S
C2028 N2032 1.427 . S
C2029 H2019 0.929 . S
C2029 C2027 1.433 . S
C2029 N2032 1.384 . S
C2030 H2021 0.929 . S
C2030 C2022 1.378 . S
C2030 C2025 1.350 . S
C2031 H2018 0.929 . S
C2031 C2023 1.433 . S
C2031 N2033 1.384 . S
N2032 C2028 1.427 . S
N2032 C2029 1.384 . S
N2033 C2025 1.427 . S
N2033 C2031 1.384 . S
H2034 C2040 0.930 . S
H2035 C2044 0.930 . S
H2036 C2049 0.929 . S
H2037 C2047 0.929 . S
H2038 C2042 0.929 . S
H2039 C2048 0.929 . S
C2040 H2034 0.930 . S
C2040 C2041 1.367 . S
C2040 C2048 1.378 . S
C2041 C2040 1.367 . S
C2041 C2049 1.433 . S
C2042 H2038 0.929 . S
C2042 C2044 1.378 . S
C2042 C2046 1.350 . S
C2043 C2046 1.463 1_554 S
C2043 C2048 1.350 . S
C2043 N2051 1.427 . S
C2044 H2035 0.930 . S
C2044 C2042 1.378 . S
C2044 C2045 1.367 . S
C2045 C2044 1.367 . S
C2045 C2047 1.433 . S
C2046 C2042 1.350 . S
C2046 C2043 1.463 1_556 S
C2046 N2050 1.427 . S
C2047 H2037 0.929 . S
C2047 C2045 1.433 . S
C2047 N2050 1.384 . S
C2048 H2039 0.929 . S
C2048 C2040 1.378 . S
C2048 C2043 1.350 . S
C2049 H2036 0.929 . S
C2049 C2041 1.433 . S
C2049 N2051 1.384 . S
N2050 C2046 1.427 . S
N2050 C2047 1.384 . S
N2051 C2043 1.427 . S
N2051 C2049 1.384 . S
H2052 C2058 0.930 . S
H2053 C2062 0.930 . S
H2054 C2067 0.929 . S
H2055 C2065 0.929 . S
H2056 C2060 0.929 . S
H2057 C2066 0.929 . S
C2058 H2052 0.930 . S
C2058 C2059 1.367 . S
C2058 C2066 1.378 . S
C2059 C2058 1.367 . S
C2059 C2067 1.433 . S
C2060 H2056 0.929 . S
C2060 C2062 1.378 . S
C2060 C2064 1.350 . S
C2061 C2064 1.463 1_556 S
C2061 C2066 1.350 . S
C2061 N2069 1.427 . S
C2062 H2053 0.930 . S
C2062 C2060 1.378 . S
C2062 C2063 1.367 . S
C2063 C2062 1.367 . S
C2063 C2065 1.433 . S
C2064 C2060 1.350 . S
C2064 C2061 1.463 1_554 S
C2064 N2068 1.427 . S
C2065 H2055 0.929 . S
C2065 C2063 1.433 . S
C2065 N2068 1.384 . S
C2066 H2057 0.929 . S
C2066 C2058 1.378 . S
C2066 C2061 1.350 . S
C2067 H2054 0.929 . S
C2067 C2059 1.433 . S
C2067 N2069 1.384 . S
N2068 C2064 1.427 . S
N2068 C2065 1.384 . S
N2069 C2061 1.427 . S
N2069 C2067 1.384 . S
H2070 C2076 0.930 . S
H2071 C2080 0.930 . S
H2072 C2085 0.929 . S
H2073 C2083 0.929 . S
H2074 C2078 0.929 . S
H2075 C2084 0.929 1_556 S
C2076 H2070 0.930 . S
C2076 C2077 1.367 . S
C2076 C2084 1.378 . S
C2077 C2076 1.367 . S
C2077 C2085 1.433 . S
C2078 H2074 0.929 . S
C2078 C2080 1.378 . S
C2078 C2082 1.350 . S
C2079 C2082 1.463 1_554 S
C2079 C2084 1.350 . S
C2079 N2087 1.427 . S
C2080 H2071 0.930 . S
C2080 C2078 1.378 . S
C2080 C2081 1.367 . S
C2081 C2080 1.367 . S
C2081 C2083 1.433 . S
C2082 C2078 1.350 . S
C2082 C2079 1.463 1_556 S
C2082 N2086 1.427 . S
C2083 H2073 0.929 . S
C2083 C2081 1.433 . S
C2083 N2086 1.384 . S
C2084 H2075 0.929 1_554 S
C2084 C2076 1.378 . S
C2084 C2079 1.350 . S
C2085 H2072 0.929 . S
C2085 C2077 1.433 . S
C2085 N2087 1.384 . S
N2086 C2082 1.427 . S
N2086 C2083 1.384 . S
N2087 C2079 1.427 . S
N2087 C2085 1.384 . S
H2088 C2094 0.930 . S
H2089 C2098 0.930 . S
H2090 C2103 0.929 . S
H2091 C2101 0.929 . S
H2092 C2096 0.929 . S
H2093 C2102 0.929 . S
C2094 H2088 0.930 . S
C2094 C2095 1.367 . S
C2094 C2102 1.378 . S
C2095 C2094 1.367 . S
C2095 C2103 1.433 . S
C2096 H2092 0.929 . S
C2096 C2098 1.378 . S
C2096 C2100 1.350 . S
C2097 C2100 1.463 1_455 S
C2097 C2102 1.350 . S
C2097 N2105 1.427 . S
C2098 H2089 0.930 . S
C2098 C2096 1.378 . S
C2098 C2099 1.367 . S
C2099 C2098 1.367 . S
C2099 C2101 1.433 . S
C2100 C2096 1.350 . S
C2100 C2097 1.463 1_655 S
C2100 N2104 1.427 . S
C2101 H2091 0.929 . S
C2101 C2099 1.433 . S
C2101 N2104 1.384 . S
C2102 H2093 0.929 . S
C2102 C2094 1.378 . S
C2102 C2097 1.350 . S
C2103 H2090 0.929 . S
C2103 C2095 1.433 . S
C2103 N2105 1.384 . S
N2104 C2100 1.427 . S
N2104 C2101 1.384 . S
N2105 C2097 1.427 . S
N2105 C2103 1.384 . S
H2106 C2112 0.930 . S
H2107 C2116 0.930 . S
H2108 C2121 0.929 . S
H2109 C2119 0.929 . S
H2110 C2114 0.929 . S
H2111 C2120 0.929 . S
C2112 H2106 0.930 . S
C2112 C2113 1.367 . S
C2112 C2120 1.378 . S
C2113 C2112 1.367 . S
C2113 C2121 1.433 . S
C2114 H2110 0.929 . S
C2114 C2116 1.378 . S
C2114 C2118 1.350 . S
C2115 C2118 1.463 . S
C2115 C2120 1.350 . S
C2115 N2123 1.427 . S
C2116 H2107 0.930 . S
C2116 C2114 1.378 . S
C2116 C2117 1.367 . S
C2117 C2116 1.367 . S
C2117 C2119 1.433 . S
C2118 C2114 1.350 . S
C2118 C2115 1.463 . S
C2118 N2122 1.427 . S
C2119 H2109 0.929 . S
C2119 C2117 1.433 . S
C2119 N2122 1.384 . S
C2120 H2111 0.929 . S
C2120 C2112 1.378 . S
C2120 C2115 1.350 . S
C2121 H2108 0.929 . S
C2121 C2113 1.433 . S
C2121 N2123 1.384 . S
N2122 C2118 1.427 . S
N2122 C2119 1.384 . S
N2123 C2115 1.427 . S
N2123 C2121 1.384 . S
H2124 C2130 0.930 . S
H2125 C2134 0.930 . S
H2126 C2139 0.929 . S
H2127 C2137 0.929 . S
H2128 C2132 0.929 . S
H2129 C2138 0.929 . S
C2130 H2124 0.930 . S
C2130 C2131 1.367 . S
C2130 C2138 1.378 . S
C2131 C2130 1.367 . S
C2131 C2139 1.433 . S
C2132 H2128 0.929 . S
C2132 C2134 1.378 . S
C2132 C2136 1.350 . S
C2133 C2136 1.463 1_565 S
C2133 C2138 1.350 . S
C2133 N2141 1.427 . S
C2134 H2125 0.930 . S
C2134 C2132 1.378 . S
C2134 C2135 1.367 . S
C2135 C2134 1.367 . S
C2135 C2137 1.433 . S
C2136 C2132 1.350 . S
C2136 C2133 1.463 1_545 S
C2136 N2140 1.427 . S
C2137 H2127 0.929 . S
C2137 C2135 1.433 . S
C2137 N2140 1.384 . S
C2138 H2129 0.929 . S
C2138 C2130 1.378 . S
C2138 C2133 1.350 . S
C2139 H2126 0.929 . S
C2139 C2131 1.433 . S
C2139 N2141 1.384 . S
N2140 C2136 1.427 . S
N2140 C2137 1.384 . S
N2141 C2133 1.427 . S
N2141 C2139 1.384 . S
H2142 C2148 0.930 . S
H2143 C2152 0.930 . S
H2144 C2157 0.929 . S
H2145 C2155 0.929 . S
H2146 C2150 0.929 . S
H2147 C2156 0.929 . S
C2148 H2142 0.930 . S
C2148 C2149 1.367 . S
C2148 C2156 1.378 . S
C2149 C2148 1.367 . S
C2149 C2157 1.433 . S
C2150 H2146 0.929 . S
C2150 C2152 1.378 . S
C2150 C2154 1.350 . S
C2151 C2154 1.463 1_455 S
C2151 C2156 1.350 . S
C2151 N2159 1.427 . S
C2152 H2143 0.930 . S
C2152 C2150 1.378 . S
C2152 C2153 1.367 . S
C2153 C2152 1.367 . S
C2153 C2155 1.433 . S
C2154 C2150 1.350 . S
C2154 C2151 1.463 1_655 S
C2154 N2158 1.427 . S
C2155 H2145 0.929 . S
C2155 C2153 1.433 . S
C2155 N2158 1.384 . S
C2156 H2147 0.929 . S
C2156 C2148 1.378 . S
C2156 C2151 1.350 . S
C2157 H2144 0.929 . S
C2157 C2149 1.433 . S
C2157 N2159 1.384 . S
N2158 C2154 1.427 . S
N2158 C2155 1.384 . S
N2159 C2151 1.427 . S
N2159 C2157 1.384 . S
H2160 C2166 0.930 . S
H2161 C2170 0.930 . S
H2162 C2175 0.929 . S
H2163 C2173 0.929 . S
H2164 C2168 0.929 . S
H2165 C2174 0.929 . S
C2166 H2160 0.930 . S
C2166 C2167 1.367 . S
C2166 C2174 1.378 . S
C2167 C2166 1.367 . S
C2167 C2175 1.433 . S
C2168 H2164 0.929 . S
C2168 C2170 1.378 . S
C2168 C2172 1.350 . S
C2169 C2172 1.463 . S
C2169 C2174 1.350 . S
C2169 N2177 1.427 . S
C2170 H2161 0.930 . S
C2170 C2168 1.378 . S
C2170 C2171 1.367 . S
C2171 C2170 1.367 . S
C2171 C2173 1.433 . S
C2172 C2168 1.350 . S
C2172 C2169 1.463 . S
C2172 N2176 1.427 . S
C2173 H2163 0.929 . S
C2173 C2171 1.433 . S
C2173 N2176 1.384 . S
C2174 H2165 0.929 . S
C2174 C2166 1.378 . S
C2174 C2169 1.350 . S
C2175 H2162 0.929 . S
C2175 C2167 1.433 . S
C2175 N2177 1.384 . S
N2176 C2172 1.427 . S
N2176 C2173 1.384 . S
N2177 C2169 1.427 . S
N2177 C2175 1.384 . S
H2178 C2184 0.930 . S
H2179 C2188 0.930 . S
H2180 C2193 0.929 . S
H2181 C2191 0.929 . S
H2182 C2186 0.929 1_565 S
H2183 C2192 0.929 1_545 S
C2184 H2178 0.930 . S
C2184 C2185 1.367 . S
C2184 C2192 1.378 . S
C2185 C2184 1.367 . S
C2185 C2193 1.433 . S
C2186 H2182 0.929 1_545 S
C2186 C2188 1.378 . S
C2186 C2190 1.350 . S
C2187 C2190 1.463 1_565 S
C2187 C2192 1.350 . S
C2187 N2195 1.427 . S
C2188 H2179 0.930 . S
C2188 C2186 1.378 . S
C2188 C2189 1.367 . S
C2189 C2188 1.367 . S
C2189 C2191 1.433 . S
C2190 C2186 1.350 . S
C2190 C2187 1.463 1_545 S
C2190 N2194 1.427 . S
C2191 H2181 0.929 . S
C2191 C2189 1.433 . S
C2191 N2194 1.384 . S
C2192 H2183 0.929 1_565 S
C2192 C2184 1.378 . S
C2192 C2187 1.350 . S
C2193 H2180 0.929 . S
C2193 C2185 1.433 . S
C2193 N2195 1.384 . S
N2194 C2190 1.427 . S
N2194 C2191 1.384 . S
N2195 C2187 1.427 . S
N2195 C2193 1.384 . S
H2196 C2202 0.930 . S
H2197 C2206 0.930 . S
H2198 C2211 0.929 . S
H2199 C2209 0.929 . S
H2200 C2204 0.929 . S
H2201 C2210 0.929 . S
C2202 H2196 0.930 . S
C2202 C2203 1.367 . S
C2202 C2210 1.378 . S
C2203 C2202 1.367 . S
C2203 C2211 1.433 . S
C2204 H2200 0.929 . S
C2204 C2206 1.378 . S
C2204 C2208 1.350 . S
C2205 C2208 1.463 . S
C2205 C2210 1.350 . S
C2205 N2213 1.427 . S
C2206 H2197 0.930 . S
C2206 C2204 1.378 . S
C2206 C2207 1.367 . S
C2207 C2206 1.367 . S
C2207 C2209 1.433 . S
C2208 C2204 1.350 . S
C2208 C2205 1.463 . S
C2208 N2212 1.427 . S
C2209 H2199 0.929 . S
C2209 C2207 1.433 . S
C2209 N2212 1.384 . S
C2210 H2201 0.929 . S
C2210 C2202 1.378 . S
C2210 C2205 1.350 . S
C2211 H2198 0.929 . S
C2211 C2203 1.433 . S
C2211 N2213 1.384 . S
N2212 C2208 1.427 . S
N2212 C2209 1.384 . S
N2213 C2205 1.427 . S
N2213 C2211 1.384 . S
H2214 C2220 0.930 . S
H2215 C2224 0.930 . S
H2216 C2229 0.929 . S
H2217 C2227 0.929 . S
H2218 C2222 0.929 . S
H2219 C2228 0.929 . S
C2220 H2214 0.930 . S
C2220 C2221 1.367 . S
C2220 C2228 1.378 . S
C2221 C2220 1.367 . S
C2221 C2229 1.433 . S
C2222 H2218 0.929 . S
C2222 C2224 1.378 . S
C2222 C2226 1.350 . S
C2223 C2226 1.463 . S
C2223 C2228 1.350 . S
C2223 N2231 1.427 . S
C2224 H2215 0.930 . S
C2224 C2222 1.378 . S
C2224 C2225 1.367 . S
C2225 C2224 1.367 . S
C2225 C2227 1.433 . S
C2226 C2222 1.350 . S
C2226 C2223 1.463 . S
C2226 N2230 1.427 . S
C2227 H2217 0.929 . S
C2227 C2225 1.433 . S
C2227 N2230 1.384 . S
C2228 H2219 0.929 . S
C2228 C2220 1.378 . S
C2228 C2223 1.350 . S
C2229 H2216 0.929 . S
C2229 C2221 1.433 . S
C2229 N2231 1.384 . S
N2230 C2226 1.427 . S
N2230 C2227 1.384 . S
N2231 C2223 1.427 . S
N2231 C2229 1.384 . S
H2232 C2238 0.930 . S
H2233 C2242 0.930 . S
H2234 C2247 0.929 . S
H2235 C2245 0.929 . S
H2236 C2240 0.929 . S
H2237 C2246 0.929 . S
C2238 H2232 0.930 . S
C2238 C2239 1.367 . S
C2238 C2246 1.378 . S
C2239 C2238 1.367 . S
C2239 C2247 1.433 . S
C2240 H2236 0.929 . S
C2240 C2242 1.378 . S
C2240 C2244 1.350 . S
C2241 C2244 1.463 . S
C2241 C2246 1.350 . S
C2241 N2249 1.427 . S
C2242 H2233 0.930 . S
C2242 C2240 1.378 . S
C2242 C2243 1.367 . S
C2243 C2242 1.367 . S
C2243 C2245 1.433 . S
C2244 C2240 1.350 . S
C2244 C2241 1.463 . S
C2244 N2248 1.427 . S
C2245 H2235 0.929 . S
C2245 C2243 1.433 . S
C2245 N2248 1.384 . S
C2246 H2237 0.929 . S
C2246 C2238 1.378 . S
C2246 C2241 1.350 . S
C2247 H2234 0.929 . S
C2247 C2239 1.433 . S
C2247 N2249 1.384 . S
N2248 C2244 1.427 . S
N2248 C2245 1.384 . S
N2249 C2241 1.427 . S
N2249 C2247 1.384 . S
H2250 C2256 0.930 . S
H2251 C2260 0.930 1_556 S
H2252 C2265 0.929 . S
H2253 C2263 0.929 . S
H2254 C2258 0.929 . S
H2255 C2264 0.929 . S
C2256 H2250 0.930 . S
C2256 C2257 1.367 . S
C2256 C2264 1.378 . S
C2257 C2256 1.367 . S
C2257 C2265 1.433 . S
C2258 H2254 0.929 . S
C2258 C2260 1.378 . S
C2258 C2262 1.350 . S
C2259 C2262 1.463 . S
C2259 C2264 1.350 . S
C2259 N2267 1.427 . S
C2260 H2251 0.930 1_554 S
C2260 C2258 1.378 . S
C2260 C2261 1.367 1_554 S
C2261 C2260 1.367 1_556 S
C2261 C2263 1.433 1_556 S
C2262 C2258 1.350 . S
C2262 C2259 1.463 . S
C2262 N2266 1.427 . S
C2263 H2253 0.929 . S
C2263 C2261 1.433 1_554 S
C2263 N2266 1.384 . S
C2264 H2255 0.929 . S
C2264 C2256 1.378 . S
C2264 C2259 1.350 . S
C2265 H2252 0.929 . S
C2265 C2257 1.433 . S
C2265 N2267 1.384 . S
N2266 C2262 1.427 . S
N2266 C2263 1.384 . S
N2267 C2259 1.427 . S
N2267 C2265 1.384 . S
H2268 C2274 0.930 . S
H2269 C2278 0.930 . S
H2270 C2283 0.929 . S
H2271 C2281 0.929 . S
H2272 C2276 0.929 . S
H2273 C2282 0.929 . S
C2274 H2268 0.930 . S
C2274 C2275 1.367 . S
C2274 C2282 1.378 . S
C2275 C2274 1.367 . S
C2275 C2283 1.433 . S
C2276 H2272 0.929 . S
C2276 C2278 1.378 . S
C2276 C2280 1.350 . S
C2277 C2280 1.463 . S
C2277 C2282 1.350 . S
C2277 N2285 1.427 . S
C2278 H2269 0.930 . S
C2278 C2276 1.378 . S
C2278 C2279 1.367 1_554 S
C2279 C2278 1.367 1_556 S
C2279 C2281 1.433 . S
C2280 C2276 1.350 . S
C2280 C2277 1.463 . S
C2280 N2284 1.427 . S
C2281 H2271 0.929 . S
C2281 C2279 1.433 . S
C2281 N2284 1.384 1_556 S
C2282 H2273 0.929 . S
C2282 C2274 1.378 . S
C2282 C2277 1.350 . S
C2283 H2270 0.929 . S
C2283 C2275 1.433 . S
C2283 N2285 1.384 . S
N2284 C2280 1.427 . S
N2284 C2281 1.384 1_554 S
N2285 C2277 1.427 . S
N2285 C2283 1.384 . S
H2286 C2292 0.930 . S
H2287 C2296 0.930 . S
H2288 C2301 0.929 . S
H2289 C2299 0.929 . S
H2290 C2294 0.929 . S
H2291 C2300 0.929 . S
C2292 H2286 0.930 . S
C2292 C2293 1.367 . S
C2292 C2300 1.378 . S
C2293 C2292 1.367 . S
C2293 C2301 1.433 . S
C2294 H2290 0.929 . S
C2294 C2296 1.378 1_554 S
C2294 C2298 1.350 . S
C2295 C2298 1.463 . S
C2295 C2300 1.350 . S
C2295 N2303 1.427 . S
C2296 H2287 0.930 . S
C2296 C2294 1.378 1_556 S
C2296 C2297 1.367 . S
C2297 C2296 1.367 . S
C2297 C2299 1.433 1_556 S
C2298 C2294 1.350 . S
C2298 C2295 1.463 . S
C2298 N2302 1.427 . S
C2299 H2289 0.929 . S
C2299 C2297 1.433 1_554 S
C2299 N2302 1.384 . S
C2300 H2291 0.929 . S
C2300 C2292 1.378 . S
C2300 C2295 1.350 . S
C2301 H2288 0.929 . S
C2301 C2293 1.433 . S
C2301 N2303 1.384 . S
N2302 C2298 1.427 . S
N2302 C2299 1.384 . S
N2303 C2295 1.427 . S
N2303 C2301 1.384 . S
H2304 C2310 0.930 . S
H2305 C2314 0.939 . S
H2306 C2319 0.929 . S
H2307 C2317 0.929 1_554 S
H2308 C2312 0.929 . S
H2309 C2318 0.929 . S
C2310 H2304 0.930 . S
C2310 C2311 1.367 . S
C2310 C2318 1.378 . S
C2311 C2310 1.367 . S
C2311 C2319 1.433 . S
C2312 H2308 0.929 . S
C2312 C2314 1.378 . S
C2312 C2316 1.350 . S
C2313 C2316 1.463 . S
C2313 C2318 1.350 . S
C2313 N2321 1.427 . S
C2314 H2305 0.939 . S
C2314 C2312 1.378 . S
C2314 C2315 1.367 1_556 S
C2315 C2314 1.367 1_554 S
C2315 C2317 1.433 1_554 S
C2316 C2312 1.350 . S
C2316 C2313 1.463 . S
C2316 N2320 1.427 . S
C2317 H2307 0.929 1_556 S
C2317 C2315 1.433 1_556 S
C2317 N2320 1.384 . S
C2318 H2309 0.929 . S
C2318 C2310 1.378 . S
C2318 C2313 1.350 . S
C2319 H2306 0.929 . S
C2319 C2311 1.433 . S
C2319 N2321 1.384 . S
N2320 C2316 1.427 . S
N2320 C2317 1.384 . S
N2321 C2313 1.427 . S
N2321 C2319 1.384 . S
H2322 C2328 0.930 . S
H2323 C2332 0.930 . S
H2324 C2337 0.929 . S
H2325 C2335 0.929 . S
H2326 C2330 0.929 . S
H2327 C2336 0.929 . S
C2328 H2322 0.930 . S
C2328 C2329 1.367 1_556 S
C2328 C2336 1.378 . S
C2329 C2328 1.367 1_554 S
C2329 C2337 1.433 . S
C2330 H2326 0.929 . S
C2330 C2332 1.378 . S
C2330 C2334 1.350 . S
C2331 C2334 1.463 . S
C2331 C2336 1.350 . S
C2331 N2339 1.427 . S
C2332 H2323 0.930 . S
C2332 C2330 1.378 . S
C2332 C2333 1.367 . S
C2333 C2332 1.367 . S
C2333 C2335 1.433 . S
C2334 C2330 1.350 . S
C2334 C2331 1.463 . S
C2334 N2338 1.427 . S
C2335 H2325 0.929 . S
C2335 C2333 1.433 . S
C2335 N2338 1.384 . S
C2336 H2327 0.929 . S
C2336 C2328 1.378 . S
C2336 C2331 1.350 . S
C2337 H2324 0.929 . S
C2337 C2329 1.433 . S
C2337 N2339 1.384 1_554 S
N2338 C2334 1.427 . S
N2338 C2335 1.384 . S
N2339 C2331 1.427 . S
N2339 C2337 1.384 1_556 S
H2340 C2346 0.930 . S
H2341 C2350 0.930 . S
H2342 C2355 0.929 . S
H2343 C2353 0.929 . S
H2344 C2348 0.929 . S
H2345 C2354 0.929 . S
C2346 H2340 0.930 . S
C2346 C2347 1.367 . S
C2346 C2354 1.378 1_554 S
C2347 C2346 1.367 . S
C2347 C2355 1.433 1_554 S
C2348 H2344 0.929 . S
C2348 C2350 1.378 . S
C2348 C2352 1.350 . S
C2349 C2352 1.463 . S
C2349 C2354 1.350 . S
C2349 N2357 1.427 . S
C2350 H2341 0.930 . S
C2350 C2348 1.378 . S
C2350 C2351 1.367 . S
C2351 C2350 1.367 . S
C2351 C2353 1.433 . S
C2352 C2348 1.350 . S
C2352 C2349 1.463 . S
C2352 N2356 1.427 . S
C2353 H2343 0.929 . S
C2353 C2351 1.433 . S
C2353 N2356 1.384 . S
C2354 H2345 0.929 . S
C2354 C2346 1.378 1_556 S
C2354 C2349 1.350 . S
C2355 H2342 0.929 . S
C2355 C2347 1.433 1_556 S
C2355 N2357 1.384 . S
N2356 C2352 1.427 . S
N2356 C2353 1.384 . S
N2357 C2349 1.427 . S
N2357 C2355 1.384 . S
H2358 C2364 0.930 . S
H2359 C2368 0.930 . S
H2360 C2373 0.929 . S
H2361 C2371 0.929 . S
H2362 C2366 0.929 . S
H2363 C2372 0.929 . S
C2364 H2358 0.930 . S
C2364 C2365 1.367 . S
C2364 C2372 1.378 . S
C2365 C2364 1.367 . S
C2365 C2373 1.433 . S
C2366 H2362 0.929 . S
C2366 C2368 1.378 . S
C2366 C2370 1.350 . S
C2367 C2370 1.463 . S
C2367 C2372 1.350 . S
C2367 N2375 1.427 . S
C2368 H2359 0.930 . S
C2368 C2366 1.378 . S
C2368 C2369 1.367 . S
C2369 C2368 1.367 . S
C2369 C2371 1.433 . S
C2370 C2366 1.350 . S
C2370 C2367 1.463 . S
C2370 N2374 1.427 . S
C2371 H2361 0.929 . S
C2371 C2369 1.433 . S
C2371 N2374 1.384 . S
C2372 H2363 0.929 . S
C2372 C2364 1.378 . S
C2372 C2367 1.350 . S
C2373 H2360 0.929 . S
C2373 C2365 1.433 . S
C2373 N2375 1.384 . S
N2374 C2370 1.427 . S
N2374 C2371 1.384 . S
N2375 C2367 1.427 . S
N2375 C2373 1.384 . S
H2376 C2382 0.930 . S
H2377 C2386 0.930 . S
H2378 C2391 0.929 . S
H2379 C2389 0.929 . S
H2380 C2384 0.929 . S
H2381 C2390 0.929 . S
C2382 H2376 0.930 . S
C2382 C2383 1.367 . S
C2382 C2390 1.378 . S
C2383 C2382 1.367 . S
C2383 C2391 1.433 . S
C2384 H2380 0.929 . S
C2384 C2386 1.378 . S
C2384 C2388 1.350 . S
C2385 C2388 1.463 . S
C2385 C2390 1.350 . S
C2385 N2393 1.427 . S
C2386 H2377 0.930 . S
C2386 C2384 1.378 . S
C2386 C2387 1.367 . S
C2387 C2386 1.367 . S
C2387 C2389 1.433 . S
C2388 C2384 1.350 . S
C2388 C2385 1.463 . S
C2388 N2392 1.427 . S
C2389 H2379 0.929 . S
C2389 C2387 1.433 . S
C2389 N2392 1.384 . S
C2390 H2381 0.929 . S
C2390 C2382 1.378 . S
C2390 C2385 1.350 . S
C2391 H2378 0.929 . S
C2391 C2383 1.433 . S
C2391 N2393 1.384 . S
N2392 C2388 1.427 . S
N2392 C2389 1.384 . S
N2393 C2385 1.427 . S
N2393 C2391 1.384 . S
H2394 C2400 0.930 . S
H2395 C2404 0.930 . S
H2396 C2409 0.929 . S
H2397 C2407 0.929 . S
H2398 C2402 0.929 . S
H2399 C2408 0.929 . S
C2400 H2394 0.930 . S
C2400 C2401 1.367 . S
C2400 C2408 1.378 . S
C2401 C2400 1.367 . S
C2401 C2409 1.433 . S
C2402 H2398 0.929 . S
C2402 C2404 1.378 . S
C2402 C2406 1.350 . S
C2403 C2406 1.463 . S
C2403 C2408 1.350 . S
C2403 N2411 1.427 . S
C2404 H2395 0.930 . S
C2404 C2402 1.378 . S
C2404 C2405 1.367 . S
C2405 C2404 1.367 . S
C2405 C2407 1.433 . S
C2406 C2402 1.350 . S
C2406 C2403 1.463 . S
C2406 N2410 1.427 . S
C2407 H2397 0.929 . S
C2407 C2405 1.433 . S
C2407 N2410 1.384 . S
C2408 H2399 0.929 . S
C2408 C2400 1.378 . S
C2408 C2403 1.350 . S
C2409 H2396 0.929 . S
C2409 C2401 1.433 . S
C2409 N2411 1.384 . S
N2410 C2406 1.427 . S
N2410 C2407 1.384 . S
N2411 C2403 1.427 . S
N2411 C2409 1.384 . S
H2412 C2418 0.930 . S
H2413 C2422 0.930 . S
H2414 C2427 0.929 . S
H2415 C2425 0.929 . S
H2416 C2420 0.929 . S
H2417 C2426 0.929 . S
C2418 H2412 0.930 . S
C2418 C2419 1.367 . S
C2418 C2426 1.378 . S
C2419 C2418 1.367 . S
C2419 C2427 1.433 . S
C2420 H2416 0.929 . S
C2420 C2422 1.378 . S
C2420 C2424 1.350 . S
C2421 C2424 1.463 . S
C2421 C2426 1.350 . S
C2421 N2429 1.427 . S
C2422 H2413 0.930 . S
C2422 C2420 1.378 . S
C2422 C2423 1.367 . S
C2423 C2422 1.367 . S
C2423 C2425 1.433 . S
C2424 C2420 1.350 . S
C2424 C2421 1.463 . S
C2424 N2428 1.427 . S
C2425 H2415 0.929 . S
C2425 C2423 1.433 . S
C2425 N2428 1.384 . S
C2426 H2417 0.929 . S
C2426 C2418 1.378 . S
C2426 C2421 1.350 . S
C2427 H2414 0.929 . S
C2427 C2419 1.433 . S
C2427 N2429 1.384 . S
N2428 C2424 1.427 . S
N2428 C2425 1.384 . S
N2429 C2421 1.427 . S
N2429 C2427 1.384 . S
H2430 C2436 0.930 . S
H2431 C2440 0.930 . S
H2432 C2445 0.929 . S
H2433 C2443 0.929 . S
H2434 C2438 0.929 . S
H2435 C2444 0.929 . S
C2436 H2430 0.930 . S
C2436 C2437 1.367 . S
C2436 C2444 1.378 . S
C2437 C2436 1.367 . S
C2437 C2445 1.433 . S
C2438 H2434 0.929 . S
C2438 C2440 1.378 . S
C2438 C2442 1.350 . S
C2439 C2442 1.463 . S
C2439 C2444 1.350 . S
C2439 N2447 1.427 . S
C2440 H2431 0.930 . S
C2440 C2438 1.378 . S
C2440 C2441 1.367 . S
C2441 C2440 1.367 . S
C2441 C2443 1.433 . S
C2442 C2438 1.350 . S
C2442 C2439 1.463 . S
C2442 N2446 1.427 . S
C2443 H2433 0.929 . S
C2443 C2441 1.433 . S
C2443 N2446 1.384 . S
C2444 H2435 0.929 . S
C2444 C2436 1.378 . S
C2444 C2439 1.350 . S
C2445 H2432 0.929 . S
C2445 C2437 1.433 . S
C2445 N2447 1.384 . S
N2446 C2442 1.427 . S
N2446 C2443 1.384 . S
N2447 C2439 1.427 . S
N2447 C2445 1.384 . S
H2448 C2454 0.930 . S
H2449 C2458 0.930 . S
H2450 C2463 0.929 . S
H2451 C2461 0.929 . S
H2452 C2456 0.929 . S
H2453 C2462 0.929 . S
C2454 H2448 0.930 . S
C2454 C2455 1.367 . S
C2454 C2462 1.378 . S
C2455 C2454 1.367 . S
C2455 C2463 1.433 . S
C2456 H2452 0.929 . S
C2456 C2458 1.378 . S
C2456 C2460 1.350 . S
C2457 C2460 1.463 . S
C2457 C2462 1.350 . S
C2457 N2465 1.427 . S
C2458 H2449 0.930 . S
C2458 C2456 1.378 . S
C2458 C2459 1.367 . S
C2459 C2458 1.367 . S
C2459 C2461 1.433 . S
C2460 C2456 1.350 . S
C2460 C2457 1.463 . S
C2460 N2464 1.427 . S
C2461 H2451 0.929 . S
C2461 C2459 1.433 . S
C2461 N2464 1.384 . S
C2462 H2453 0.929 . S
C2462 C2454 1.378 . S
C2462 C2457 1.350 . S
C2463 H2450 0.929 . S
C2463 C2455 1.433 . S
C2463 N2465 1.384 . S
N2464 C2460 1.427 . S
N2464 C2461 1.384 . S
N2465 C2457 1.427 . S
N2465 C2463 1.384 . S
H2466 C2472 0.930 . S
H2467 C2476 0.930 . S
H2468 C2481 0.929 . S
H2469 C2479 0.929 . S
H2470 C2474 0.929 . S
H2471 C2480 0.929 . S
C2472 H2466 0.930 . S
C2472 C2473 1.367 . S
C2472 C2480 1.378 . S
C2473 C2472 1.367 . S
C2473 C2481 1.433 . S
C2474 H2470 0.929 . S
C2474 C2476 1.378 . S
C2474 C2478 1.350 . S
C2475 C2478 1.463 . S
C2475 C2480 1.350 . S
C2475 N2483 1.427 . S
C2476 H2467 0.930 . S
C2476 C2474 1.378 . S
C2476 C2477 1.367 . S
C2477 C2476 1.367 . S
C2477 C2479 1.433 . S
C2478 C2474 1.350 . S
C2478 C2475 1.463 . S
C2478 N2482 1.427 . S
C2479 H2469 0.929 . S
C2479 C2477 1.433 . S
C2479 N2482 1.384 . S
C2480 H2471 0.929 . S
C2480 C2472 1.378 . S
C2480 C2475 1.350 . S
C2481 H2468 0.929 . S
C2481 C2473 1.433 . S
C2481 N2483 1.384 . S
N2482 C2478 1.427 . S
N2482 C2479 1.384 . S
N2483 C2475 1.427 . S
N2483 C2481 1.384 . S
H2484 C2490 0.930 . S
H2485 C2494 0.930 . S
H2486 C2499 0.929 . S
H2487 C2497 0.929 . S
H2488 C2492 0.929 . S
H2489 C2498 0.929 . S
C2490 H2484 0.930 . S
C2490 C2491 1.367 . S
C2490 C2498 1.378 . S
C2491 C2490 1.367 . S
C2491 C2499 1.433 . S
C2492 H2488 0.929 . S
C2492 C2494 1.378 . S
C2492 C2496 1.350 . S
C2493 C2496 1.463 . S
C2493 C2498 1.350 . S
C2493 N2501 1.427 . S
C2494 H2485 0.930 . S
C2494 C2492 1.378 . S
C2494 C2495 1.367 . S
C2495 C2494 1.367 . S
C2495 C2497 1.433 . S
C2496 C2492 1.350 . S
C2496 C2493 1.463 . S
C2496 N2500 1.427 . S
C2497 H2487 0.929 . S
C2497 C2495 1.433 . S
C2497 N2500 1.384 . S
C2498 H2489 0.929 . S
C2498 C2490 1.378 . S
C2498 C2493 1.350 . S
C2499 H2486 0.929 . S
C2499 C2491 1.433 . S
C2499 N2501 1.384 . S
N2500 C2496 1.427 . S
N2500 C2497 1.384 . S
N2501 C2493 1.427 . S
N2501 C2499 1.384 . S
H2502 C2508 0.930 . S
H2503 C2512 0.930 . S
H2504 C2517 0.929 . S
H2505 C2515 0.929 . S
H2506 C2510 0.929 . S
H2507 C2516 0.929 . S
C2508 H2502 0.930 . S
C2508 C2509 1.367 . S
C2508 C2516 1.378 . S
C2509 C2508 1.367 . S
C2509 C2517 1.433 . S
C2510 H2506 0.929 . S
C2510 C2512 1.378 . S
C2510 C2514 1.350 . S
C2511 C2514 1.463 . S
C2511 C2516 1.350 . S
C2511 N2519 1.427 . S
C2512 H2503 0.930 . S
C2512 C2510 1.378 . S
C2512 C2513 1.367 . S
C2513 C2512 1.367 . S
C2513 C2515 1.433 . S
C2514 C2510 1.350 . S
C2514 C2511 1.463 . S
C2514 N2518 1.427 . S
C2515 H2505 0.929 . S
C2515 C2513 1.433 . S
C2515 N2518 1.384 . S
C2516 H2507 0.929 . S
C2516 C2508 1.378 . S
C2516 C2511 1.350 . S
C2517 H2504 0.929 . S
C2517 C2509 1.433 . S
C2517 N2519 1.384 . S
N2518 C2514 1.427 . S
N2518 C2515 1.384 . S
N2519 C2511 1.427 . S
N2519 C2517 1.384 . S
H2520 C2526 0.930 . S
H2521 C2530 0.930 . S
H2522 C2535 0.929 . S
H2523 C2533 0.929 . S
H2524 C2528 0.929 . S
H2525 C2534 0.929 . S
C2526 H2520 0.930 . S
C2526 C2527 1.367 . S
C2526 C2534 1.378 . S
C2527 C2526 1.367 . S
C2527 C2535 1.433 . S
C2528 H2524 0.929 . S
C2528 C2530 1.378 . S
C2528 C2532 1.350 . S
C2529 C2532 1.463 . S
C2529 C2534 1.350 . S
C2529 N2537 1.427 . S
C2530 H2521 0.930 . S
C2530 C2528 1.378 . S
C2530 C2531 1.367 . S
C2531 C2530 1.367 . S
C2531 C2533 1.433 . S
C2532 C2528 1.350 . S
C2532 C2529 1.463 . S
C2532 N2536 1.427 . S
C2533 H2523 0.929 . S
C2533 C2531 1.433 . S
C2533 N2536 1.384 . S
C2534 H2525 0.929 . S
C2534 C2526 1.378 . S
C2534 C2529 1.350 . S
C2535 H2522 0.929 . S
C2535 C2527 1.433 . S
C2535 N2537 1.384 . S
N2536 C2532 1.427 . S
N2536 C2533 1.384 . S
N2537 C2529 1.427 . S
N2537 C2535 1.384 . S
H2538 C2544 0.930 . S
H2539 C2548 0.930 . S
H2540 C2553 0.929 . S
H2541 C2551 0.929 . S
H2542 C2546 0.929 . S
H2543 C2552 0.929 . S
C2544 H2538 0.930 . S
C2544 C2545 1.367 . S
C2544 C2552 1.378 . S
C2545 C2544 1.367 . S
C2545 C2553 1.433 . S
C2546 H2542 0.929 . S
C2546 C2548 1.378 . S
C2546 C2550 1.350 . S
C2547 C2550 1.463 . S
C2547 C2552 1.350 . S
C2547 N2555 1.427 . S
C2548 H2539 0.930 . S
C2548 C2546 1.378 . S
C2548 C2549 1.367 . S
C2549 C2548 1.367 . S
C2549 C2551 1.433 . S
C2550 C2546 1.350 . S
C2550 C2547 1.463 . S
C2550 N2554 1.427 . S
C2551 H2541 0.929 . S
C2551 C2549 1.433 . S
C2551 N2554 1.384 . S
C2552 H2543 0.929 . S
C2552 C2544 1.378 . S
C2552 C2547 1.350 . S
C2553 H2540 0.929 . S
C2553 C2545 1.433 . S
C2553 N2555 1.384 . S
N2554 C2550 1.427 . S
N2554 C2551 1.384 . S
N2555 C2547 1.427 . S
N2555 C2553 1.384 . S
H2556 C2562 0.930 . S
H2557 C2566 0.930 . S
H2558 C2571 0.929 . S
H2559 C2569 0.929 . S
H2560 C2564 0.929 . S
H2561 C2570 0.929 . S
C2562 H2556 0.930 . S
C2562 C2563 1.367 . S
C2562 C2570 1.378 . S
C2563 C2562 1.367 . S
C2563 C2571 1.433 . S
C2564 H2560 0.929 . S
C2564 C2566 1.378 . S
C2564 C2568 1.350 . S
C2565 C2568 1.463 . S
C2565 C2570 1.350 . S
C2565 N2573 1.427 . S
C2566 H2557 0.930 . S
C2566 C2564 1.378 . S
C2566 C2567 1.367 . S
C2567 C2566 1.367 . S
C2567 C2569 1.433 . S
C2568 C2564 1.350 . S
C2568 C2565 1.463 . S
C2568 N2572 1.427 . S
C2569 H2559 0.929 . S
C2569 C2567 1.433 . S
C2569 N2572 1.384 . S
C2570 H2561 0.929 . S
C2570 C2562 1.378 . S
C2570 C2565 1.350 . S
C2571 H2558 0.929 . S
C2571 C2563 1.433 . S
C2571 N2573 1.384 . S
N2572 C2568 1.427 . S
N2572 C2569 1.384 . S
N2573 C2565 1.427 . S
N2573 C2571 1.384 . S
H2574 C2580 0.930 . S
H2575 C2584 0.930 . S
H2576 C2589 0.929 . S
H2577 C2587 0.929 . S
H2578 C2582 0.929 . S
H2579 C2588 0.929 . S
C2580 H2574 0.930 . S
C2580 C2581 1.367 . S
C2580 C2588 1.378 . S
C2581 C2580 1.367 . S
C2581 C2589 1.433 . S
C2582 H2578 0.929 . S
C2582 C2584 1.378 . S
C2582 C2586 1.350 . S
C2583 C2586 1.463 . S
C2583 C2588 1.350 . S
C2583 N2591 1.427 . S
C2584 H2575 0.930 . S
C2584 C2582 1.378 . S
C2584 C2585 1.367 . S
C2585 C2584 1.367 . S
C2585 C2587 1.433 . S
C2586 C2582 1.350 . S
C2586 C2583 1.463 . S
C2586 N2590 1.427 . S
C2587 H2577 0.929 . S
C2587 C2585 1.433 . S
C2587 N2590 1.384 . S
C2588 H2579 0.929 . S
C2588 C2580 1.378 . S
C2588 C2583 1.350 . S
C2589 H2576 0.929 . S
C2589 C2581 1.433 . S
C2589 N2591 1.384 . S
N2590 C2586 1.427 . S
N2590 C2587 1.384 . S
N2591 C2583 1.427 . S
N2591 C2589 1.384 . S
H2592 C2598 0.930 . S
H2593 C2602 0.930 . S
H2594 C2607 0.929 . S
H2595 C2605 0.929 . S
H2596 C2600 0.929 . S
H2597 C2606 0.929 . S
C2598 H2592 0.930 . S
C2598 C2599 1.367 . S
C2598 C2606 1.378 . S
C2599 C2598 1.367 . S
C2599 C2607 1.433 . S
C2600 H2596 0.929 . S
C2600 C2602 1.378 . S
C2600 C2604 1.350 . S
C2601 C2604 1.463 . S
C2601 C2606 1.350 . S
C2601 N2609 1.427 . S
C2602 H2593 0.930 . S
C2602 C2600 1.378 . S
C2602 C2603 1.367 . S
C2603 C2602 1.367 . S
C2603 C2605 1.433 . S
C2604 C2600 1.350 . S
C2604 C2601 1.463 . S
C2604 N2608 1.427 . S
C2605 H2595 0.929 . S
C2605 C2603 1.433 . S
C2605 N2608 1.384 . S
C2606 H2597 0.929 . S
C2606 C2598 1.378 . S
C2606 C2601 1.350 . S
C2607 H2594 0.929 . S
C2607 C2599 1.433 . S
C2607 N2609 1.384 . S
N2608 C2604 1.427 . S
N2608 C2605 1.384 . S
N2609 C2601 1.427 . S
N2609 C2607 1.384 . S
H2610 C2616 0.930 . S
H2611 C2620 0.930 . S
H2612 C2625 0.929 . S
H2613 C2623 0.929 . S
H2614 C2618 0.929 . S
H2615 C2624 0.929 . S
C2616 H2610 0.930 . S
C2616 C2617 1.367 . S
C2616 C2624 1.378 . S
C2617 C2616 1.367 . S
C2617 C2625 1.433 . S
C2618 H2614 0.929 . S
C2618 C2620 1.378 . S
C2618 C2622 1.350 . S
C2619 C2622 1.463 . S
C2619 C2624 1.350 . S
C2619 N2627 1.427 . S
C2620 H2611 0.930 . S
C2620 C2618 1.378 . S
C2620 C2621 1.367 . S
C2621 C2620 1.367 . S
C2621 C2623 1.433 . S
C2622 C2618 1.350 . S
C2622 C2619 1.463 . S
C2622 N2626 1.427 . S
C2623 H2613 0.929 . S
C2623 C2621 1.433 . S
C2623 N2626 1.384 . S
C2624 H2615 0.929 . S
C2624 C2616 1.378 . S
C2624 C2619 1.350 . S
C2625 H2612 0.929 . S
C2625 C2617 1.433 . S
C2625 N2627 1.384 . S
N2626 C2622 1.427 . S
N2626 C2623 1.384 . S
N2627 C2619 1.427 . S
N2627 C2625 1.384 . S
H2628 C2634 0.930 . S
H2629 C2638 0.930 . S
H2630 C2643 0.929 . S
H2631 C2641 0.929 . S
H2632 C2636 0.929 . S
H2633 C2642 0.929 . S
C2634 H2628 0.930 . S
C2634 C2635 1.367 . S
C2634 C2642 1.378 . S
C2635 C2634 1.367 . S
C2635 C2643 1.433 . S
C2636 H2632 0.929 . S
C2636 C2638 1.378 . S
C2636 C2640 1.350 . S
C2637 C2640 1.463 1_655 S
C2637 C2642 1.350 . S
C2637 N2645 1.427 . S
C2638 H2629 0.930 . S
C2638 C2636 1.378 . S
C2638 C2639 1.367 . S
C2639 C2638 1.367 . S
C2639 C2641 1.433 . S
C2640 C2636 1.350 . S
C2640 C2637 1.463 1_455 S
C2640 N2644 1.427 . S
C2641 H2631 0.929 . S
C2641 C2639 1.433 . S
C2641 N2644 1.384 . S
C2642 H2633 0.929 . S
C2642 C2634 1.378 . S
C2642 C2637 1.350 . S
C2643 H2630 0.929 . S
C2643 C2635 1.433 . S
C2643 N2645 1.384 . S
N2644 C2640 1.427 . S
N2644 C2641 1.384 . S
N2645 C2637 1.427 . S
N2645 C2643 1.384 . S
H2646 C2652 0.930 . S
H2647 C2656 0.930 . S
H2648 C2661 0.929 . S
H2649 C2659 0.929 . S
H2650 C2654 0.929 . S
H2651 C2660 0.929 . S
C2652 H2646 0.930 . S
C2652 C2653 1.367 . S
C2652 C2660 1.378 . S
C2653 C2652 1.367 . S
C2653 C2661 1.433 . S
C2654 H2650 0.929 . S
C2654 C2656 1.378 . S
C2654 C2658 1.350 . S
C2655 C2658 1.463 . S
C2655 C2660 1.350 . S
C2655 N2663 1.427 . S
C2656 H2647 0.930 . S
C2656 C2654 1.378 . S
C2656 C2657 1.367 . S
C2657 C2656 1.367 . S
C2657 C2659 1.433 . S
C2658 C2654 1.350 . S
C2658 C2655 1.463 . S
C2658 N2662 1.427 . S
C2659 H2649 0.929 . S
C2659 C2657 1.433 . S
C2659 N2662 1.384 . S
C2660 H2651 0.929 . S
C2660 C2652 1.378 . S
C2660 C2655 1.350 . S
C2661 H2648 0.929 . S
C2661 C2653 1.433 . S
C2661 N2663 1.384 . S
N2662 C2658 1.427 . S
N2662 C2659 1.384 . S
N2663 C2655 1.427 . S
N2663 C2661 1.384 . S
H2664 C2670 0.930 . S
H2665 C2674 0.930 . S
H2666 C2679 0.929 . S
H2667 C2677 0.929 . S
H2668 C2672 0.929 . S
H2669 C2678 0.929 . S
C2670 H2664 0.930 . S
C2670 C2671 1.367 . S
C2670 C2678 1.378 . S
C2671 C2670 1.367 . S
C2671 C2679 1.433 . S
C2672 H2668 0.929 . S
C2672 C2674 1.378 . S
C2672 C2676 1.350 . S
C2673 C2676 1.463 1_545 S
C2673 C2678 1.350 . S
C2673 N2681 1.427 . S
C2674 H2665 0.930 . S
C2674 C2672 1.378 . S
C2674 C2675 1.367 . S
C2675 C2674 1.367 . S
C2675 C2677 1.433 . S
C2676 C2672 1.350 . S
C2676 C2673 1.463 1_565 S
C2676 N2680 1.427 . S
C2677 H2667 0.929 . S
C2677 C2675 1.433 . S
C2677 N2680 1.384 . S
C2678 H2669 0.929 . S
C2678 C2670 1.378 . S
C2678 C2673 1.350 . S
C2679 H2666 0.929 . S
C2679 C2671 1.433 . S
C2679 N2681 1.384 . S
N2680 C2676 1.427 . S
N2680 C2677 1.384 . S
N2681 C2673 1.427 . S
N2681 C2679 1.384 . S
H2682 C2688 0.930 . S
H2683 C2692 0.930 . S
H2684 C2697 0.929 . S
H2685 C2695 0.929 . S
H2686 C2690 0.929 . S
H2687 C2696 0.929 . S
C2688 H2682 0.930 . S
C2688 C2689 1.367 . S
C2688 C2696 1.378 . S
C2689 C2688 1.367 . S
C2689 C2697 1.433 . S
C2690 H2686 0.929 . S
C2690 C2692 1.378 . S
C2690 C2694 1.350 . S
C2691 C2694 1.463 1_545 S
C2691 C2696 1.350 . S
C2691 N2699 1.427 . S
C2692 H2683 0.930 . S
C2692 C2690 1.378 . S
C2692 C2693 1.367 . S
C2693 C2692 1.367 . S
C2693 C2695 1.433 . S
C2694 C2690 1.350 . S
C2694 C2691 1.463 1_565 S
C2694 N2698 1.427 . S
C2695 H2685 0.929 . S
C2695 C2693 1.433 . S
C2695 N2698 1.384 . S
C2696 H2687 0.929 . S
C2696 C2688 1.378 . S
C2696 C2691 1.350 . S
C2697 H2684 0.929 . S
C2697 C2689 1.433 . S
C2697 N2699 1.384 . S
N2698 C2694 1.427 . S
N2698 C2695 1.384 . S
N2699 C2691 1.427 . S
N2699 C2697 1.384 . S
H2700 C2706 0.930 . S
H2701 C2710 0.930 . S
H2702 C2715 0.929 . S
H2703 C2713 0.929 . S
H2704 C2708 0.929 . S
H2705 C2714 0.929 . S
C2706 H2700 0.930 . S
C2706 C2707 1.367 . S
C2706 C2714 1.378 . S
C2707 C2706 1.367 . S
C2707 C2715 1.433 . S
C2708 H2704 0.929 . S
C2708 C2710 1.378 . S
C2708 C2712 1.350 . S
C2709 C2712 1.463 1_655 S
C2709 C2714 1.350 . S
C2709 N2717 1.427 . S
C2710 H2701 0.930 . S
C2710 C2708 1.378 . S
C2710 C2711 1.367 . S
C2711 C2710 1.367 . S
C2711 C2713 1.433 . S
C2712 C2708 1.350 . S
C2712 C2709 1.463 1_455 S
C2712 N2716 1.427 . S
C2713 H2703 0.929 . S
C2713 C2711 1.433 . S
C2713 N2716 1.384 . S
C2714 H2705 0.929 . S
C2714 C2706 1.378 . S
C2714 C2709 1.350 . S
C2715 H2702 0.929 . S
C2715 C2707 1.433 . S
C2715 N2717 1.384 . S
N2716 C2712 1.427 . S
N2716 C2713 1.384 . S
N2717 C2709 1.427 . S
N2717 C2715 1.384 . S
H2718 C2724 0.930 . S
H2719 C2728 0.930 . S
H2720 C2733 0.929 . S
H2721 C2731 0.929 . S
H2722 C2726 0.929 . S
H2723 C2732 0.929 . S
C2724 H2718 0.930 . S
C2724 C2725 1.367 . S
C2724 C2732 1.378 . S
C2725 C2724 1.367 . S
C2725 C2733 1.433 . S
C2726 H2722 0.929 . S
C2726 C2728 1.378 . S
C2726 C2730 1.350 . S
C2727 C2730 1.463 . S
C2727 C2732 1.350 . S
C2727 N2735 1.427 . S
C2728 H2719 0.930 . S
C2728 C2726 1.378 . S
C2728 C2729 1.367 . S
C2729 C2728 1.367 . S
C2729 C2731 1.433 . S
C2730 C2726 1.350 . S
C2730 C2727 1.463 . S
C2730 N2734 1.427 . S
C2731 H2721 0.929 . S
C2731 C2729 1.433 . S
C2731 N2734 1.384 . S
C2732 H2723 0.929 . S
C2732 C2724 1.378 . S
C2732 C2727 1.350 . S
C2733 H2720 0.929 . S
C2733 C2725 1.433 . S
C2733 N2735 1.384 . S
N2734 C2730 1.427 . S
N2734 C2731 1.384 . S
N2735 C2727 1.427 . S
N2735 C2733 1.384 . S
C799 C15 1.435 . S
C803 C161 1.426 . S
C817 C197 1.423 . S
C821 C43 1.440 . S
C835 C65 1.436 . S
C839 C153 1.414 . S
C853 C263 1.421 . S
C857 C81 1.441 . S
C871 C103 1.439 . S
C875 C219 1.424 . S
C889 C117 1.442 . S
C893 C241 1.420 . S
C907 C139 1.453 . S
C911 C29 1.426 . S
C925 C51 1.425 . S
C929 C169 1.456 . S
C943 C21 1.434 . S
C947 C183 1.458 . S
C961 C125 1.433 . S
C965 C205 1.459 . S
C979 C87 1.438 . S
C983 C227 1.451 . S
C997 C109 1.435 . S
C1001 C249 1.458 . S
C1015 C285 1.436 . S
C1019 C425 1.414 . S
C1033 C447 1.414 . S
C1037 C307 1.437 . S
C1051 C403 1.413 . S
C1055 C329 1.437 . S
C1069 C345 1.438 . S
C1073 C527 1.413 . S
C1087 C483 1.426 . S
C1091 C367 1.433 . S
C1105 C389 1.434 . S
C1109 C491 1.417 . S
C1123 C411 1.450 . S
C1127 C293 1.432 . S
C1141 C315 1.438 . S
C1145 C433 1.454 . S
C1159 C455 1.449 . S
C1163 C271 1.433 . S
C1177 C395 1.425 . S
C1181 C469 1.455 . S
C1195 C351 1.431 . S
C1199 C499 1.459 . S
C1213 C513 1.452 . S
C1217 C373 1.427 . S
C1231 C549 1.433 . S
C1235 C689 1.419 . S
C1249 C571 1.435 . S
C1253 C711 1.426 . S
C1267 C667 1.425 . S
C1271 C593 1.433 . S
C1285 C791 1.418 . S
C1289 C609 1.443 . S
C1303 C631 1.432 . S
C1307 C747 1.424 . S
C1321 C769 1.424 . S
C1325 C653 1.439 . S
C1339 C557 1.425 . S
C1343 C675 1.458 . S
C1357 C697 1.459 . S
C1361 C579 1.433 . S
C1375 C535 1.439 . S
C1379 C719 1.453 . S
C1393 C733 1.450 . S
C1397 C659 1.432 . S
C1411 C755 1.451 . S
C1415 C615 1.429 . S
C1429 C777 1.452 . S
C1433 C637 1.439 . S
C1447 C7 1.320 . S
C1451 C260 1.322 . S
C1465 C37 1.314 . S
C1469 C216 1.323 . S
C1483 C59 1.315 . S
C1487 C238 1.324 . S
C1501 C73 1.315 . S
C1505 C164 1.324 . S
C1519 C194 1.319 . S
C1523 C95 1.320 . S
C1537 C150 1.323 . S
C1541 C131 1.314 . S
C1555 C128 1.314 . S
C1559 C147 1.310 . S
C1573 C175 1.313 . S
C1577 C76 1.309 . S
C1591 C98 1.310 . S
C1595 C191 1.313 . S
C1609 C30 1.313 . S
C1613 C213 1.312 . S
C1627 C235 1.314 . S
C1631 C52 1.310 . S
C1645 C257 1.306 . S
C1649 C10 1.316 . S
C1663 C524 1.319 . S
C1667 C279 1.321 . S
C1681 C480 1.320 . S
C1685 C301 1.321 . S
C1699 C494 1.320 . S
C1703 C323 1.316 . S
C1717 C337 1.315 . S
C1721 C428 1.324 . S
C1735 C450 1.321 . S
C1739 C359 1.321 . S
C1753 C406 1.320 . S
C1757 C381 1.321 . S
C1771 C384 1.311 . S
C1775 C417 1.310 . S
C1789 C340 1.314 . S
C1793 C439 1.307 . S
C1807 C461 1.308 . S
C1811 C362 1.313 . S
C1825 C294 1.315 . S
C1829 C477 1.310 . S
C1843 C505 1.312 . S
C1847 C316 1.310 . S
C1861 C272 1.309 . S
C1865 C521 1.314 . S
C1879 C543 1.316 . S
C1883 C788 1.324 . S
C1897 C744 1.319 . S
C1901 C565 1.319 . S
C1915 C766 1.319 . S
C1919 C587 1.321 . S
C1933 C692 1.321 . S
C1937 C601 1.315 . S
C1951 C714 1.319 . S
C1955 C623 1.320 . S
C1969 C670 1.320 . S
C1973 C645 1.321 . S
C1987 C681 1.310 . S
C1991 C648 1.311 . S
C2005 C604 1.310 . S
C2009 C703 1.314 . S
C2023 C626 1.310 . S
C2027 C725 1.314 . S
C2041 C741 1.308 . S
C2045 C558 1.313 . S
C2059 C580 1.311 . S
C2063 C763 1.314 . S
C2077 C785 1.312 . S
C2081 C536 1.310 . S
C2095 C8 0.845 . S
C2099 C96 0.861 . S
C2113 C40 0.848 . S
C2117 C120 0.860 . S
C2131 C62 0.856 . S
C2135 C74 0.846 . S
C2149 C228 0.828 . S
C2153 C140 0.848 . S
C2167 C250 0.827 . S
C2171 C172 0.847 . S
C2185 C206 0.848 . S
C2189 C184 0.831 . S
C2203 C360 0.844 . S
C2207 C282 0.860 . S
C2221 C382 0.860 . S
C2225 C304 0.844 . S
C2239 C326 0.851 . S
C2243 C338 0.858 . S
C2257 C414 0.829 . S
C2261 C502 0.848 . S
C2275 C436 0.845 . S
C2279 C514 0.828 . S
C2293 C458 0.847 . S
C2297 C470 0.834 . S
C2311 C546 0.844 . S
C2315 C624 0.861 . S
C2329 C646 0.857 . S
C2333 C568 0.846 . S
C2347 C602 0.849 . S
C2351 C590 0.859 . S
C2365 C756 0.828 . S
C2369 C678 0.848 . S
C2383 C778 0.833 . S
C2387 C700 0.837 . S
C2401 C722 0.828 . S
C2405 C734 0.848 . S
C2419 C18 1.612 . S
C2423 C656 1.607 . S
C2437 C32 1.610 . S
C2441 C612 1.612 . S
C2455 C634 1.612 . S
C2459 C54 1.611 . S
C2473 C296 1.607 . S
C2477 C84 1.612 . S
C2491 C318 1.608 . S
C2495 C106 1.607 . S
C2509 C118 1.610 . S
C2513 C274 1.606 . S
C2527 C516 1.617 . S
C2531 C142 1.619 . S
C2545 C162 1.617 . S
C2549 C472 1.617 . S
C2563 C492 1.621 . S
C2567 C186 1.622 . S
C2581 C208 1.622 . S
C2585 C690 1.620 . S
C2599 C712 1.617 . S
C2603 C230 1.618 . S
C2617 C668 1.621 . S
C2621 C252 1.618 . S
C2635 C348 1.606 . S
C2639 C560 1.610 . S
C2653 C370 1.611 . S
C2657 C582 1.607 . S
C2671 C392 1.608 . S
C2675 C538 1.612 . S
C2689 C404 1.617 . S
C2693 C780 1.619 . S
C2707 C426 1.622 . S
C2711 C736 1.620 . S
C2725 C758 1.621 . S
C2729 C448 1.621 . S
