# Generated by pormake.
# Topology wif, (6)-cn, num edge types: 1
# Building blocks:
#     Node 0, Type 0, BuildingBlock: IZENUY_clean_sbu_0, # of connection points: 6
#     Node 1, Type 0, BuildingBlock: IZENUY_clean_sbu_0, # of connection points: 6
#     Node 2, Type 0, BuildingBlock: IZENUY_clean_sbu_0, # of connection points: 6
#     Node 3, Type 0, BuildingBlock: IZENUY_clean_sbu_0, # of connection points: 6
#     Node 4, Type 0, BuildingBlock: IZENUY_clean_sbu_0, # of connection points: 6
#     Node 5, Type 0, BuildingBlock: IZENUY_clean_sbu_0, # of connection points: 6
#     Node 6, Type 0, BuildingBlock: IZENUY_clean_sbu_0, # of connection points: 6
#     Node 7, Type 0, BuildingBlock: IZENUY_clean_sbu_0, # of connection points: 6
#     Node 8, Type 0, BuildingBlock: IZENUY_clean_sbu_0, # of connection points: 6
#     Node 9, Type 0, BuildingBlock: IZENUY_clean_sbu_0, # of connection points: 6
#     Node 10, Type 0, BuildingBlock: IZENUY_clean_sbu_0, # of connection points: 6
#     Node 11, Type 0, BuildingBlock: IZENUY_clean_sbu_0, # of connection points: 6
#     Node 12, Type 0, BuildingBlock: IZENUY_clean_sbu_0, # of connection points: 6
#     Node 13, Type 0, BuildingBlock: IZENUY_clean_sbu_0, # of connection points: 6
#     Node 14, Type 0, BuildingBlock: IZENUY_clean_sbu_0, # of connection points: 6
#     Node 15, Type 0, BuildingBlock: IZENUY_clean_sbu_0, # of connection points: 6
#     Edge 16, Type (0, 0), None
#     Edge 17, Type (0, 0), None
#     Edge 18, Type (0, 0), None
#     Edge 19, Type (0, 0), None
#     Edge 20, Type (0, 0), None
#     Edge 21, Type (0, 0), None
#     Edge 22, Type (0, 0), None
#     Edge 23, Type (0, 0), None
#     Edge 24, Type (0, 0), None
#     Edge 25, Type (0, 0), None
#     Edge 26, Type (0, 0), None
#     Edge 27, Type (0, 0), None
#     Edge 28, Type (0, 0), None
#     Edge 29, Type (0, 0), None
#     Edge 30, Type (0, 0), None
#     Edge 31, Type (0, 0), None
#     Edge 32, Type (0, 0), None
#     Edge 33, Type (0, 0), None
#     Edge 34, Type (0, 0), None
#     Edge 35, Type (0, 0), None
#     Edge 36, Type (0, 0), None
#     Edge 37, Type (0, 0), None
#     Edge 38, Type (0, 0), None
#     Edge 39, Type (0, 0), None
#     Edge 40, Type (0, 0), None
#     Edge 41, Type (0, 0), None
#     Edge 42, Type (0, 0), None
#     Edge 43, Type (0, 0), None
#     Edge 44, Type (0, 0), None
#     Edge 45, Type (0, 0), None
#     Edge 46, Type (0, 0), None
#     Edge 47, Type (0, 0), None
#     Edge 48, Type (0, 0), None
#     Edge 49, Type (0, 0), None
#     Edge 50, Type (0, 0), None
#     Edge 51, Type (0, 0), None
#     Edge 52, Type (0, 0), None
#     Edge 53, Type (0, 0), None
#     Edge 54, Type (0, 0), None
#     Edge 55, Type (0, 0), None
#     Edge 56, Type (0, 0), None
#     Edge 57, Type (0, 0), None
#     Edge 58, Type (0, 0), None
#     Edge 59, Type (0, 0), None
#     Edge 60, Type (0, 0), None
#     Edge 61, Type (0, 0), None
#     Edge 62, Type (0, 0), None
#     Edge 63, Type (0, 0), None
# Relax obj value: 0.831
# Max RMSD: 0.283
# Mean RMSD: 0.282
data_MOF--net-wif--node1-IZENUY_clean_sbu_0--edge1-none
_symmetry_space_group_name_H-M    P1
_symmetry_Int_Tables_number       1
_symmetry_cell_setting            triclinic
loop_
_symmetry_equiv_pos_as_xyz
'x, y, z'
_cell_length_a     15.750869
_cell_length_b     15.75047
_cell_length_c     14.834145
_cell_angle_alpha  89.908933
_cell_angle_beta   89.913677
_cell_angle_gamma 89.682212
loop_
_atom_site_label
_atom_site_type_symbol
_atom_site_fract_x
_atom_site_fract_y
_atom_site_fract_z
_atom_type_partial_charge
Fe0 Fe 0.25406 0.10576 0.16785 0.0
Fe1 Fe 0.3381 0.99864 0.00892 0.0
O2 O 0.32239 0.09799 0.06808 0.0
Fe3 Fe 0.37846 0.1892 0.02917 0.0
O4 O 0.4119 0.22106 0.1379 0.0
O5 O 0.32787 0.16468 0.23794 0.0
O6 O 0.30325 1.01651 0.21784 0.0
C7 C 0.33729 0.95122 0.18727 0.0
C8 C 0.22726 0.26349 0.08658 0.0
O9 O 0.32974 0.92995 0.10647 0.0
C10 C 0.39513 0.12677 0.86496 0.0
O11 O 0.16486 1.04348 0.12012 0.0
O12 O 0.21711 0.98303 -0.00051 0.0
O13 O 0.2815 0.25017 0.0263 0.0
O14 O 0.20192 0.20382 0.13591 0.0
C15 C 0.50062 0.05444 0.03313 0.0
O16 O 0.37881 1.04914 0.89209 0.0
O17 O 0.35776 0.17896 0.91225 0.0
C18 C 0.1618 0.98084 0.06675 0.0
O19 O 0.4486 0.99519 0.0316 0.0
O20 O 0.47954 0.13221 0.02651 0.0
C21 C 0.3905 0.20913 0.21761 0.0
Fe22 Fe 1.00256 0.75371 0.96049 0.0
Fe23 Fe 0.09437 0.84224 0.79472 0.0
O24 O 0.09651 0.77462 0.89518 0.0
Fe25 Fe 0.19497 0.72827 0.92909 0.0
O26 O 0.15285 0.62097 0.92488 0.0
O27 O 1.01521 0.64374 0.94849 0.0
O28 O 0.93098 0.74113 0.86675 0.0
C29 C 0.94105 0.75356 0.78454 0.0
C30 C 0.13366 0.70612 0.09949 0.0
O31 O 0.99523 0.80397 0.75499 0.0
C32 C 0.25521 0.8761 0.87077 0.0
O33 O 0.97142 0.87303 0.96251 0.0
O34 O 1.04468 0.93274 0.85517 0.0
O35 O 0.1863 0.73894 0.04877 0.0
O36 O 0.0559 0.72713 0.07774 0.0
C37 C 0.20408 0.71727 0.73805 0.0
O38 O 0.20017 0.88645 0.81039 0.0
O39 O 0.2389 0.83143 0.93746 0.0
C40 C 0.97506 0.93124 0.89886 0.0
O41 O 0.13966 0.76132 0.72049 0.0
O42 O 0.23004 0.70939 0.81664 0.0
C43 C 0.07695 0.5958 0.93334 0.0
Fe44 Fe 0.82892 1.00232 0.16792 0.0
Fe45 Fe 0.74845 0.0971 -0.00028 0.0
O46 O 0.76611 1.00191 0.06491 0.0
Fe47 Fe 0.71806 0.90538 0.02814 0.0
O48 O 0.69046 0.87101 0.137 0.0
O49 O 0.74746 0.95347 0.23724 0.0
O50 O 0.78444 0.09913 0.20756 0.0
C51 C 0.7448 0.16009 0.17396 0.0
C52 C 0.86694 0.84257 0.09284 0.0
O53 O 0.74387 0.17288 0.09107 0.0
C54 C 0.70062 0.96334 0.86118 0.0
O55 O 0.92146 0.05435 0.11443 0.0
O56 O 0.86892 0.11996 -0.00399 0.0
O57 O 0.81834 0.85294 0.0275 0.0
O58 O 0.87713 0.89915 0.15118 0.0
C59 C 0.58889 1.03213 0.02885 0.0
O60 O 0.71634 1.04162 0.88422 0.0
O61 O 0.73782 0.91316 0.91052 0.0
C62 C 0.92434 0.1188 0.063 0.0
O63 O 0.63801 0.093 0.01746 0.0
O64 O 0.6124 0.95472 0.02596 0.0
C65 C 0.70023 0.89311 0.21595 0.0
Fe66 Fe 0.10204 0.34213 0.95702 0.0
Fe67 Fe 0.99282 0.26695 0.7988 0.0
O68 O 1.00382 0.33324 0.89724 0.0
Fe69 Fe 0.91772 0.39807 0.92894 0.0
O70 O 0.9801 0.49005 0.95155 0.0
O71 O 0.11309 0.45323 0.93582 0.0
O72 O 0.16635 0.3325 0.85612 0.0
C73 C 0.14272 0.35344 0.77789 0.0
C74 C 0.96651 0.3937 0.09641 0.0
O75 O 0.07308 0.32886 0.7452 0.0
C76 C 0.8432 0.24127 0.87812 0.0
O77 O 0.11397 0.22054 0.96579 0.0
O78 O 0.06947 0.18568 0.83277 0.0
O79 O 0.91513 0.36234 0.043 0.0
O80 O 1.04582 0.3774 0.07302 0.0
C81 C 0.89024 0.40501 0.74992 0.0
O82 O 0.90877 0.20557 0.84708 0.0
O83 O 0.84535 0.31548 0.90702 0.0
C84 C 0.12004 0.16931 0.89572 0.0
O85 O 0.91384 0.33018 0.73721 0.0
O86 O 0.90987 0.44315 0.81987 0.0
C87 C 0.05619 0.50793 0.93623 0.0
Fe88 Fe 0.39712 0.41861 0.17894 0.0
Fe89 Fe 0.26615 0.49388 0.04873 0.0
O90 O 0.33235 0.50477 0.14725 0.0
Fe91 Fe 0.34124 0.60295 0.20709 0.0
O92 O 0.45235 0.61396 0.18594 0.0
O93 O 0.48914 0.48094 0.20155 0.0
O94 O 0.4422 0.41072 0.06989 0.0
C95 C 0.40406 0.39114 -8e-05 0.0
C96 C 0.39279 0.4674 0.34638 0.0
O97 O 0.32927 0.41484 -0.01282 0.0
C98 C 0.16846 0.62096 0.14574 0.0
O99 O 0.31445 0.34633 0.15702 0.0
O100 O 0.20462 0.40987 0.09691 0.0
O101 O 0.37644 0.54672 0.32309 0.0
O102 O 0.36137 0.41605 0.29298 0.0
C103 C 0.35282 0.6437 0.02802 0.0
O104 O 0.18498 0.57064 0.08263 0.0
O105 O 0.21965 0.61487 0.21584 0.0
C106 C 0.24021 0.34432 0.12819 0.0
O107 O 0.32823 0.57409 -0.00476 0.0
O108 O 0.33166 0.66731 0.1062 0.0
C109 C 0.50704 0.55704 0.18632 0.0
Fe110 Fe 0.50143 0.82998 0.91793 0.0
Fe111 Fe 0.40436 0.71915 0.77826 0.0
O112 O 0.50094 0.76714 0.81493 0.0
Fe113 Fe 0.59606 0.74944 0.74965 0.0
O114 O 0.67185 0.74457 0.84098 0.0
O115 O 0.59843 0.7858 0.95743 0.0
O116 O 0.45291 0.74835 -0.01269 0.0
C117 C 0.39236 0.70131 0.96611 0.0
C118 C 0.61778 0.92531 0.81306 0.0
O119 O 0.36997 0.69179 0.88721 0.0
C120 C 0.46226 0.70166 0.61113 0.0
O121 O 0.39812 0.87797 0.90141 0.0
O122 O 0.35208 0.81951 0.77747 0.0
O123 O 0.61907 0.86991 0.74607 0.0
O124 O 0.55318 0.92258 0.86428 0.0
C125 C 0.531 0.58989 0.77882 0.0
O126 O 0.41201 0.73868 0.66056 0.0
O127 O 0.54053 0.7175 0.63415 0.0
C128 C 0.34168 0.86803 0.84287 0.0
O129 O 0.45358 0.61343 0.77624 0.0
O130 O 0.59185 0.63899 0.76722 0.0
C131 C 0.65924 0.74591 0.92388 0.0
Fe132 Fe 0.72731 0.6959 0.17904 0.0
Fe133 Fe 0.84127 0.59535 0.0446 0.0
O134 O 0.7737 0.59746 0.14511 0.0
Fe135 Fe 0.75283 0.50349 0.21043 0.0
O136 O 0.64285 0.51605 0.19836 0.0
O137 O 0.62003 0.65372 0.17491 0.0
O138 O 0.70835 0.73097 0.06661 0.0
C139 C 0.71634 0.70512 -0.01201 0.0
C140 C 0.70515 0.63459 0.34936 0.0
O141 O 0.76038 0.64071 0.97041 0.0
C142 C 0.93029 0.47603 0.14879 0.0
O143 O 0.83044 0.73993 0.18737 0.0
O144 O 0.88553 0.70111 0.0603 0.0
O145 O 0.72616 0.55681 0.32768 0.0
O146 O 0.73806 0.6872 0.2987 0.0
C147 C 0.7526 0.44203 0.03448 0.0
O148 O 0.9318 0.54556 0.10494 0.0
O149 O 0.87215 0.47248 0.2125 0.0
C150 C 0.87521 0.75611 0.12073 0.0
O151 O 0.80293 0.49625 0.00487 0.0
O152 O 0.74036 0.43187 0.11671 0.0
C153 C 0.5949 0.5778 0.18327 0.0
Fe154 Fe 0.60477 0.25505 0.91788 0.0
Fe155 Fe 0.68814 0.37948 0.77916 0.0
O156 O 0.59697 0.32338 0.81809 0.0
Fe157 Fe 0.49761 0.33909 0.75892 0.0
O158 O 0.42893 0.33074 0.85646 0.0
O159 O 0.51547 0.30413 0.96784 0.0
O160 O 0.6636 0.32893 -0.01202 0.0
C161 C 0.70812 0.3915 0.96761 0.0
C162 C 0.47987 0.16288 0.81687 0.0
O163 O 0.72004 0.41288 0.88788 0.0
C164 C 0.62572 0.3961 0.61487 0.0
O165 O 0.70289 0.20302 0.88606 0.0
O166 O 0.74913 0.28254 0.77625 0.0
O167 O 0.482 0.2181 0.74954 0.0
O168 O 0.54261 0.16579 0.8701 0.0
C169 C 0.55335 0.50162 0.78316 0.0
O170 O 0.67793 0.35882 0.66221 0.0
O171 O 0.54811 0.37979 0.64208 0.0
C172 C 0.76241 0.22825 0.83649 0.0
O173 O 0.63112 0.48056 0.77652 0.0
O174 O 0.49411 0.44958 0.78157 0.0
C175 C 0.45021 0.33822 0.93727 0.0
Fe176 Fe 0.83811 0.49864 0.50893 0.0
Fe177 Fe 0.87846 0.6892 0.52919 0.0
O178 O 0.8224 0.59799 0.5681 0.0
Fe179 Fe 0.75409 0.60576 0.66788 0.0
O180 O 0.80329 0.51651 0.71786 0.0
O181 O 0.82977 0.42994 0.60649 0.0
O182 O 0.94861 0.4952 0.5316 0.0
C183 C 1.00063 0.55446 0.53315 0.0
C184 C 0.66187 0.48085 0.5668 0.0
O185 O 0.97955 0.63223 0.52653 0.0
C186 C 0.72726 0.76349 0.5866 0.0
O187 O 0.8788 0.54914 0.3921 0.0
O188 O 0.85777 0.67896 0.41226 0.0
O189 O 0.66488 0.54346 0.62019 0.0
O190 O 0.71713 0.48301 0.49951 0.0
C191 C 0.89051 0.70914 0.71763 0.0
O192 O 0.78149 0.75016 0.52631 0.0
O193 O 0.70193 0.70382 0.63595 0.0
C194 C 0.89514 0.62677 0.36498 0.0
O195 O 0.9119 0.72107 0.63792 0.0
O196 O 0.82789 0.66468 0.73797 0.0
C197 C 0.8373 0.45121 0.68729 0.0
Fe198 Fe 0.50256 0.2537 0.46047 0.0
Fe199 Fe 0.59437 0.34222 0.29468 0.0
O200 O 0.59651 0.27461 0.39516 0.0
Fe201 Fe 0.69497 0.22826 0.42907 0.0
O202 O 0.65285 0.12096 0.42485 0.0
O203 O 0.51521 0.14374 0.44848 0.0
O204 O 0.43098 0.24112 0.36673 0.0
C205 C 0.44104 0.25356 0.28452 0.0
C206 C 0.63366 0.20611 0.59947 0.0
O207 O 0.49523 0.30395 0.25496 0.0
C208 C 0.7552 0.37609 0.37076 0.0
O209 O 0.47142 0.37301 0.46249 0.0
O210 O 0.54467 0.43273 0.35511 0.0
O211 O 0.68631 0.23891 0.54875 0.0
O212 O 0.5559 0.22713 0.57773 0.0
C213 C 0.7041 0.21728 0.23803 0.0
O214 O 0.70017 0.38644 0.31037 0.0
O215 O 0.73889 0.33142 0.43745 0.0
C216 C 0.47507 0.43119 0.39882 0.0
O217 O 0.63966 0.26131 0.22046 0.0
O218 O 0.73005 0.2094 0.31662 0.0
C219 C 0.57695 0.0958 0.43332 0.0
Fe220 Fe 0.3289 0.5023 0.66795 0.0
Fe221 Fe 0.24845 0.59711 0.49975 0.0
O222 O 0.2661 0.50191 0.56494 0.0
Fe223 Fe 0.21805 0.40539 0.52815 0.0
O224 O 0.19043 0.371 0.63699 0.0
O225 O 0.24747 0.4534 0.73726 0.0
O226 O 0.28437 0.59908 0.70761 0.0
C227 C 0.24478 0.66007 0.67399 0.0
C228 C 0.36694 0.34257 0.59284 0.0
O229 O 0.24392 0.67289 0.59111 0.0
C230 C 0.2006 0.46336 0.36121 0.0
O231 O 0.42143 0.5544 0.61453 0.0
O232 O 0.36891 0.61996 0.49601 0.0
O233 O 0.31832 0.35294 0.52752 0.0
O234 O 0.37716 0.39916 0.65117 0.0
C235 C 0.08889 0.53215 0.52888 0.0
O236 O 0.21632 0.54163 0.38425 0.0
O237 O 0.23781 0.41317 0.41054 0.0
C238 C 0.42428 0.6188 0.56304 0.0
O239 O 0.13802 0.59302 0.51751 0.0
O240 O 0.11239 0.45474 0.52597 0.0
C241 C 0.20025 0.39305 0.71595 0.0
Fe242 Fe 0.60205 0.84214 0.457 0.0
Fe243 Fe 0.49282 0.76697 0.29876 0.0
O244 O 0.50383 0.83324 0.39722 0.0
Fe245 Fe 0.41772 0.89808 0.42892 0.0
O246 O 0.4801 0.99005 0.45153 0.0
O247 O 0.61309 0.95324 0.43581 0.0
O248 O 0.66635 0.83253 0.3561 0.0
C249 C 0.6427 0.85351 0.27788 0.0
C250 C 0.46653 0.89371 0.59639 0.0
O251 O 0.57308 0.82889 0.24517 0.0
C252 C 0.34321 0.74127 0.37811 0.0
O253 O 0.61402 0.72056 0.46576 0.0
O254 O 0.56946 0.68568 0.33269 0.0
O255 O 0.41514 0.86236 0.54298 0.0
O256 O 0.54583 0.87739 0.57301 0.0
C257 C 0.39022 0.90503 0.2499 0.0
O258 O 0.40877 0.70558 0.34703 0.0
O259 O 0.34536 0.81548 0.40702 0.0
C260 C 0.62002 0.66937 0.39565 0.0
O261 O 0.41384 0.8302 0.23718 0.0
O262 O 0.40985 0.94316 0.31986 0.0
C263 C 0.55618 1.00794 0.43622 0.0
Fe264 Fe 0.76616 0.99389 0.54873 0.0
Fe265 Fe 0.84123 0.10295 0.70711 0.0
O266 O 0.83236 1.00477 0.64726 0.0
Fe267 Fe 0.89714 0.91861 0.67891 0.0
O268 O 0.94222 0.91077 0.56985 0.0
O269 O 0.82926 0.91484 0.48717 0.0
O270 O 0.82826 0.0741 0.49525 0.0
C271 C 0.85286 0.1437 0.52806 0.0
C272 C 0.74022 0.84432 0.62819 0.0
O273 O 0.83167 0.16731 0.60622 0.0
C274 C 0.89282 0.96738 0.84631 0.0
O275 O 0.685 0.07064 0.58262 0.0
O276 O 0.71964 0.11487 0.71584 0.0
O277 O 0.81448 0.84634 0.65698 0.0
O278 O 0.70463 0.90987 0.59691 0.0
C279 C 1.00704 0.05705 0.68635 0.0
O280 O 0.87641 1.04671 0.82312 0.0
O281 O 0.86142 0.91599 0.79296 0.0
C282 C 0.66845 0.12096 0.64574 0.0
O283 O 0.95235 0.11397 0.686 0.0
O284 O 0.98916 0.98094 0.70154 0.0
C285 C 0.90406 0.89116 0.49989 0.0
Fe286 Fe 0.09605 0.24944 0.24963 0.0
Fe287 Fe 1.00146 0.32998 0.41794 0.0
O288 O 1.00094 0.26714 0.31493 0.0
Fe289 Fe 0.90433 0.21916 0.2783 0.0
O290 O 0.95354 0.11342 0.27631 0.0
O291 O 0.0918 0.13899 0.26713 0.0
O292 O 0.17184 0.24448 0.34095 0.0
C293 C 0.15927 0.24591 0.42385 0.0
C294 C 0.96224 0.20162 0.11123 0.0
O295 O 0.09849 0.28586 0.4574 0.0
C296 C 0.84168 0.36804 0.34289 0.0
O297 O 0.1191 0.36991 0.24609 0.0
O298 O 0.05315 0.4226 0.36425 0.0
O299 O 0.91194 0.23862 0.1606 0.0
O300 O 1.04051 0.21758 0.13412 0.0
C301 C 0.8924 0.20132 0.46615 0.0
O302 O 0.8981 0.37793 0.40146 0.0
O303 O 0.85211 0.31955 0.27747 0.0
C304 C 0.11778 0.42531 0.31307 0.0
O305 O 0.953 0.24831 0.48732 0.0
O306 O 0.86994 0.19186 0.38727 0.0
C307 C 1.03096 0.08989 0.27881 0.0
Fe308 Fe 0.34128 0.09534 0.5446 0.0
Fe309 Fe 0.25284 1.0035 0.71045 0.0
O310 O 0.2737 0.09747 0.64511 0.0
Fe311 Fe 0.22732 0.19592 0.67902 0.0
O312 O 0.20838 0.23098 0.56658 0.0
O313 O 0.26038 0.14067 0.4704 0.0
O314 O 0.30294 0.99622 0.50489 0.0
C315 C 0.25259 0.94202 0.5345 0.0
C316 C 0.37522 0.25611 0.62072 0.0
O317 O 0.24031 0.93189 0.61673 0.0
C318 C 0.20513 0.13459 0.84928 0.0
O319 O 0.43181 1.04557 0.60496 0.0
O320 O 0.37216 0.97245 0.71249 0.0
O321 O 0.33045 0.23993 0.68736 0.0
O322 O 0.38553 0.20112 0.56029 0.0
C323 C 0.09491 0.07783 0.6833 0.0
O324 O 0.22622 0.05682 0.8277 0.0
O325 O 0.23802 0.18726 0.79867 0.0
C326 C 0.43031 0.97603 0.64878 0.0
O327 O 0.14286 1.01609 0.69842 0.0
O328 O 0.12003 0.15375 0.67489 0.0
C329 C 0.21635 0.20511 0.48797 0.0
Fe330 Fe 0.18815 0.87949 0.27918 0.0
Fe331 Fe 0.9976 0.83907 0.2589 0.0
O332 O 0.09696 0.82338 0.31808 0.0
Fe333 Fe 0.10476 0.75505 0.41788 0.0
O334 O 0.16357 0.82894 0.48799 0.0
O335 O 0.22003 0.91287 0.38791 0.0
O336 O 0.13111 0.98057 0.27655 0.0
C337 C 0.05333 1.00162 0.28315 0.0
C338 C 0.26241 0.72826 0.3365 0.0
O339 O 0.9941 0.94957 0.28153 0.0
C340 C 0.97987 0.66287 0.31687 0.0
O341 O 0.17798 0.85886 0.16223 0.0
O342 O 1.0481 0.87975 0.14206 0.0
O343 O 0.2029 0.70303 0.38608 0.0
O344 O 0.24913 0.78255 0.27626 0.0
C345 C 0.9502 0.83822 0.43725 0.0
O346 O 0.98199 0.71809 0.24954 0.0
O347 O 1.04263 0.66578 0.37009 0.0
C348 C 0.12572 0.89613 0.11495 0.0
O349 O 0.92893 0.83075 0.35645 0.0
O350 O 1.01545 0.80412 0.46783 0.0
C351 C 0.20811 0.89149 0.46763 0.0
loop_
_geom_bond_atom_site_label_1
_geom_bond_atom_site_label_2
_geom_bond_distance
_geom_bond_site_symmetry_2
_ccdc_geom_bond_type
Fe0 O2 1.918 . S
Fe0 O5 1.997 . S
Fe0 O6 2.002 1_545 S
Fe0 O11 1.976 . S
Fe0 O14 1.996 . S
Fe1 O2 1.918 1_566 S
Fe1 O9 1.997 1_556 S
Fe1 O12 1.996 . S
Fe1 O16 1.976 1_565 S
Fe1 O19 2.002 . S
O2 Fe0 1.918 . S
O2 Fe1 1.918 1_544 S
O2 Fe3 1.918 . S
Fe3 O2 1.918 . S
Fe3 O4 2.002 . S
Fe3 O13 1.976 . S
Fe3 O17 1.996 1_554 S
Fe3 O20 1.997 1_554 S
O4 Fe3 2.002 . S
O4 C21 1.295 . S
O5 Fe0 1.997 . S
O5 C21 1.235 . S
O6 Fe0 2.002 1_565 S
O6 C7 1.295 . S
C7 O6 1.295 . S
C7 O9 1.235 . S
C8 O13 1.287 . S
C8 O14 1.255 . S
O9 Fe1 1.997 1_554 S
O9 C7 1.235 . S
C10 O16 1.287 . S
C10 O17 1.255 . S
O11 Fe0 1.976 . S
O11 C18 1.287 1_545 S
O12 Fe1 1.996 . S
O12 C18 1.255 1_556 S
O13 Fe3 1.976 . S
O13 C8 1.287 . S
O14 Fe0 1.996 . S
O14 C8 1.255 . S
C15 O19 1.295 . S
C15 O20 1.235 1_565 S
O16 Fe1 1.976 1_545 S
O16 C10 1.287 . S
O17 Fe3 1.996 1_556 S
O17 C10 1.255 . S
C18 O11 1.287 1_565 S
C18 O12 1.255 1_554 S
O19 Fe1 2.002 . S
O19 C15 1.295 . S
O20 Fe3 1.997 1_556 S
O20 C15 1.235 1_545 S
C21 O4 1.295 . S
C21 O5 1.235 . S
Fe22 O24 1.918 1_654 S
Fe22 O27 1.997 . S
Fe22 O28 2.002 1_554 S
Fe22 O33 1.976 . S
Fe22 O36 1.996 1_655 S
Fe23 O24 1.918 . S
Fe23 O31 1.997 1_455 S
Fe23 O34 1.996 . S
Fe23 O38 1.976 . S
Fe23 O41 2.002 . S
O24 Fe22 1.918 1_456 S
O24 Fe23 1.918 . S
O24 Fe25 1.918 . S
Fe25 O24 1.918 . S
Fe25 O26 2.002 1_556 S
Fe25 O35 1.976 1_556 S
Fe25 O39 1.996 . S
Fe25 O42 1.997 . S
O26 Fe25 2.002 1_554 S
O26 C43 1.295 1_455 S
O27 Fe22 1.997 . S
O27 C43 1.235 . S
O28 Fe22 2.002 1_556 S
O28 C29 1.295 . S
C29 O28 1.295 . S
C29 O31 1.235 . S
C30 O35 1.287 . S
C30 O36 1.255 . S
O31 Fe23 1.997 1_655 S
O31 C29 1.235 . S
C32 O38 1.287 . S
C32 O39 1.255 . S
O33 Fe22 1.976 . S
O33 C40 1.287 1_554 S
O34 Fe23 1.996 . S
O34 C40 1.255 1_455 S
O35 Fe25 1.976 1_554 S
O35 C30 1.287 . S
O36 Fe22 1.996 1_455 S
O36 C30 1.255 . S
C37 O41 1.295 . S
C37 O42 1.235 . S
O38 Fe23 1.976 . S
O38 C32 1.287 . S
O39 Fe25 1.996 . S
O39 C32 1.255 . S
C40 O33 1.287 1_556 S
C40 O34 1.255 1_655 S
O41 Fe23 2.002 . S
O41 C37 1.295 . S
O42 Fe25 1.997 . S
O42 C37 1.235 . S
C43 O26 1.295 1_655 S
C43 O27 1.235 . S
Fe44 O46 1.918 . S
Fe44 O49 1.997 . S
Fe44 O50 2.002 1_565 S
Fe44 O55 1.976 . S
Fe44 O58 1.996 . S
Fe45 O46 1.918 1_546 S
Fe45 O53 1.997 1_556 S
Fe45 O56 1.996 . S
Fe45 O60 1.976 1_545 S
Fe45 O63 2.002 . S
O46 Fe44 1.918 . S
O46 Fe45 1.918 1_564 S
O46 Fe47 1.918 . S
Fe47 O46 1.918 . S
Fe47 O48 2.002 . S
Fe47 O57 1.976 . S
Fe47 O61 1.996 1_554 S
Fe47 O64 1.997 1_554 S
O48 Fe47 2.002 . S
O48 C65 1.295 . S
O49 Fe44 1.997 . S
O49 C65 1.235 . S
O50 Fe44 2.002 1_545 S
O50 C51 1.295 . S
C51 O50 1.295 . S
C51 O53 1.235 . S
C52 O57 1.287 . S
C52 O58 1.255 . S
O53 Fe45 1.997 1_554 S
O53 C51 1.235 . S
C54 O60 1.287 . S
C54 O61 1.255 . S
O55 Fe44 1.976 . S
O55 C62 1.287 1_565 S
O56 Fe45 1.996 . S
O56 C62 1.255 1_556 S
O57 Fe47 1.976 . S
O57 C52 1.287 . S
O58 Fe44 1.996 . S
O58 C52 1.255 . S
C59 O63 1.295 . S
C59 O64 1.235 1_545 S
O60 Fe45 1.976 1_565 S
O60 C54 1.287 . S
O61 Fe47 1.996 1_556 S
O61 C54 1.255 . S
C62 O55 1.287 1_545 S
C62 O56 1.255 1_554 S
O63 Fe45 2.002 . S
O63 C59 1.295 . S
O64 Fe47 1.997 1_556 S
O64 C59 1.235 1_565 S
C65 O48 1.295 . S
C65 O49 1.235 . S
Fe66 O68 1.918 1_454 S
Fe66 O71 1.997 . S
Fe66 O72 2.002 1_554 S
Fe66 O77 1.976 . S
Fe66 O80 1.996 1_455 S
Fe67 O68 1.918 . S
Fe67 O75 1.997 1_655 S
Fe67 O78 1.996 . S
Fe67 O82 1.976 . S
Fe67 O85 2.002 . S
O68 Fe66 1.918 1_656 S
O68 Fe67 1.918 . S
O68 Fe69 1.918 . S
Fe69 O68 1.918 . S
Fe69 O70 2.002 1_556 S
Fe69 O79 1.976 1_556 S
Fe69 O83 1.996 . S
Fe69 O86 1.997 . S
O70 Fe69 2.002 1_554 S
O70 C87 1.295 1_655 S
O71 Fe66 1.997 . S
O71 C87 1.235 . S
O72 Fe66 2.002 1_556 S
O72 C73 1.295 . S
C73 O72 1.295 . S
C73 O75 1.235 . S
C74 O79 1.287 . S
C74 O80 1.255 . S
O75 Fe67 1.997 1_455 S
O75 C73 1.235 . S
C76 O82 1.287 . S
C76 O83 1.255 . S
O77 Fe66 1.976 . S
O77 C84 1.287 1_554 S
O78 Fe67 1.996 . S
O78 C84 1.255 1_655 S
O79 Fe69 1.976 1_554 S
O79 C74 1.287 . S
O80 Fe66 1.996 1_655 S
O80 C74 1.255 . S
C81 O85 1.295 . S
C81 O86 1.235 . S
O82 Fe67 1.976 . S
O82 C76 1.287 . S
O83 Fe69 1.996 . S
O83 C76 1.255 . S
C84 O77 1.287 1_556 S
C84 O78 1.255 1_455 S
O85 Fe67 2.002 . S
O85 C81 1.295 . S
O86 Fe69 1.997 . S
O86 C81 1.235 . S
C87 O70 1.295 1_455 S
C87 O71 1.235 . S
Fe88 O90 1.918 . S
Fe88 O93 1.997 . S
Fe88 O94 2.002 . S
Fe88 O99 1.976 . S
Fe88 O102 1.996 . S
Fe89 O90 1.918 . S
Fe89 O97 1.997 . S
Fe89 O100 1.996 . S
Fe89 O104 1.976 . S
Fe89 O107 2.002 . S
O90 Fe88 1.918 . S
O90 Fe89 1.918 . S
O90 Fe91 1.918 . S
Fe91 O90 1.918 . S
Fe91 O92 2.002 . S
Fe91 O101 1.976 . S
Fe91 O105 1.996 . S
Fe91 O108 1.997 . S
O92 Fe91 2.002 . S
O92 C109 1.295 . S
O93 Fe88 1.997 . S
O93 C109 1.235 . S
O94 Fe88 2.002 . S
O94 C95 1.295 . S
C95 O94 1.295 . S
C95 O97 1.235 . S
C96 O101 1.287 . S
C96 O102 1.255 . S
O97 Fe89 1.997 . S
O97 C95 1.235 . S
C98 O104 1.287 . S
C98 O105 1.255 . S
O99 Fe88 1.976 . S
O99 C106 1.287 . S
O100 Fe89 1.996 . S
O100 C106 1.255 . S
O101 Fe91 1.976 . S
O101 C96 1.287 . S
O102 Fe88 1.996 . S
O102 C96 1.255 . S
C103 O107 1.295 . S
C103 O108 1.235 . S
O104 Fe89 1.976 . S
O104 C98 1.287 . S
O105 Fe91 1.996 . S
O105 C98 1.255 . S
C106 O99 1.287 . S
C106 O100 1.255 . S
O107 Fe89 2.002 . S
O107 C103 1.295 . S
O108 Fe91 1.997 . S
O108 C103 1.235 . S
C109 O92 1.295 . S
C109 O93 1.235 . S
Fe110 O112 1.918 . S
Fe110 O115 1.997 . S
Fe110 O116 2.002 1_556 S
Fe110 O121 1.976 . S
Fe110 O124 1.996 . S
Fe111 O112 1.918 . S
Fe111 O119 1.997 . S
Fe111 O122 1.996 . S
Fe111 O126 1.976 . S
Fe111 O129 2.002 . S
O112 Fe110 1.918 . S
O112 Fe111 1.918 . S
O112 Fe113 1.918 . S
Fe113 O112 1.918 . S
Fe113 O114 2.002 . S
Fe113 O123 1.976 . S
Fe113 O127 1.996 . S
Fe113 O130 1.997 . S
O114 Fe113 2.002 . S
O114 C131 1.295 . S
O115 Fe110 1.997 . S
O115 C131 1.235 . S
O116 Fe110 2.002 1_554 S
O116 C117 1.295 1_554 S
C117 O116 1.295 1_556 S
C117 O119 1.235 . S
C118 O123 1.287 . S
C118 O124 1.255 . S
O119 Fe111 1.997 . S
O119 C117 1.235 . S
C120 O126 1.287 . S
C120 O127 1.255 . S
O121 Fe110 1.976 . S
O121 C128 1.287 . S
O122 Fe111 1.996 . S
O122 C128 1.255 . S
O123 Fe113 1.976 . S
O123 C118 1.287 . S
O124 Fe110 1.996 . S
O124 C118 1.255 . S
C125 O129 1.295 . S
C125 O130 1.235 . S
O126 Fe111 1.976 . S
O126 C120 1.287 . S
O127 Fe113 1.996 . S
O127 C120 1.255 . S
C128 O121 1.287 . S
C128 O122 1.255 . S
O129 Fe111 2.002 . S
O129 C125 1.295 . S
O130 Fe113 1.997 . S
O130 C125 1.235 . S
C131 O114 1.295 . S
C131 O115 1.235 . S
Fe132 O134 1.918 . S
Fe132 O137 1.997 . S
Fe132 O138 2.002 . S
Fe132 O143 1.976 . S
Fe132 O146 1.996 . S
Fe133 O134 1.918 . S
Fe133 O141 1.997 . S
Fe133 O144 1.996 . S
Fe133 O148 1.976 . S
Fe133 O151 2.002 . S
O134 Fe132 1.918 . S
O134 Fe133 1.918 . S
O134 Fe135 1.918 . S
Fe135 O134 1.918 . S
Fe135 O136 2.002 . S
Fe135 O145 1.976 . S
Fe135 O149 1.996 . S
Fe135 O152 1.997 . S
O136 Fe135 2.002 . S
O136 C153 1.295 . S
O137 Fe132 1.997 . S
O137 C153 1.235 . S
O138 Fe132 2.002 . S
O138 C139 1.295 . S
C139 O138 1.295 . S
C139 O141 1.235 . S
C140 O145 1.287 . S
C140 O146 1.255 . S
O141 Fe133 1.997 . S
O141 C139 1.235 . S
C142 O148 1.287 . S
C142 O149 1.255 . S
O143 Fe132 1.976 . S
O143 C150 1.287 . S
O144 Fe133 1.996 . S
O144 C150 1.255 . S
O145 Fe135 1.976 . S
O145 C140 1.287 . S
O146 Fe132 1.996 . S
O146 C140 1.255 . S
C147 O151 1.295 . S
C147 O152 1.235 . S
O148 Fe133 1.976 . S
O148 C142 1.287 . S
O149 Fe135 1.996 . S
O149 C142 1.255 . S
C150 O143 1.287 . S
C150 O144 1.255 . S
O151 Fe133 2.002 . S
O151 C147 1.295 . S
O152 Fe135 1.997 . S
O152 C147 1.235 . S
C153 O136 1.295 . S
C153 O137 1.235 . S
Fe154 O156 1.918 . S
Fe154 O159 1.997 . S
Fe154 O160 2.002 1_556 S
Fe154 O165 1.976 . S
Fe154 O168 1.996 . S
Fe155 O156 1.918 . S
Fe155 O163 1.997 . S
Fe155 O166 1.996 . S
Fe155 O170 1.976 . S
Fe155 O173 2.002 . S
O156 Fe154 1.918 . S
O156 Fe155 1.918 . S
O156 Fe157 1.918 . S
Fe157 O156 1.918 . S
Fe157 O158 2.002 . S
Fe157 O167 1.976 . S
Fe157 O171 1.996 . S
Fe157 O174 1.997 . S
O158 Fe157 2.002 . S
O158 C175 1.295 . S
O159 Fe154 1.997 . S
O159 C175 1.235 . S
O160 Fe154 2.002 1_554 S
O160 C161 1.295 1_554 S
C161 O160 1.295 1_556 S
C161 O163 1.235 . S
C162 O167 1.287 . S
C162 O168 1.255 . S
O163 Fe155 1.997 . S
O163 C161 1.235 . S
C164 O170 1.287 . S
C164 O171 1.255 . S
O165 Fe154 1.976 . S
O165 C172 1.287 . S
O166 Fe155 1.996 . S
O166 C172 1.255 . S
O167 Fe157 1.976 . S
O167 C162 1.287 . S
O168 Fe154 1.996 . S
O168 C162 1.255 . S
C169 O173 1.295 . S
C169 O174 1.235 . S
O170 Fe155 1.976 . S
O170 C164 1.287 . S
O171 Fe157 1.996 . S
O171 C164 1.255 . S
C172 O165 1.287 . S
C172 O166 1.255 . S
O173 Fe155 2.002 . S
O173 C169 1.295 . S
O174 Fe157 1.997 . S
O174 C169 1.235 . S
C175 O158 1.295 . S
C175 O159 1.235 . S
Fe176 O178 1.918 . S
Fe176 O181 1.997 . S
Fe176 O182 2.002 . S
Fe176 O187 1.976 . S
Fe176 O190 1.996 . S
Fe177 O178 1.918 . S
Fe177 O185 1.997 . S
Fe177 O188 1.996 . S
Fe177 O192 1.976 . S
Fe177 O195 2.002 . S
O178 Fe176 1.918 . S
O178 Fe177 1.918 . S
O178 Fe179 1.918 . S
Fe179 O178 1.918 . S
Fe179 O180 2.002 . S
Fe179 O189 1.976 . S
Fe179 O193 1.996 . S
Fe179 O196 1.997 . S
O180 Fe179 2.002 . S
O180 C197 1.295 . S
O181 Fe176 1.997 . S
O181 C197 1.235 . S
O182 Fe176 2.002 . S
O182 C183 1.295 . S
C183 O182 1.295 . S
C183 O185 1.235 . S
C184 O189 1.287 . S
C184 O190 1.255 . S
O185 Fe177 1.997 . S
O185 C183 1.235 . S
C186 O192 1.287 . S
C186 O193 1.255 . S
O187 Fe176 1.976 . S
O187 C194 1.287 . S
O188 Fe177 1.996 . S
O188 C194 1.255 . S
O189 Fe179 1.976 . S
O189 C184 1.287 . S
O190 Fe176 1.996 . S
O190 C184 1.255 . S
C191 O195 1.295 . S
C191 O196 1.235 . S
O192 Fe177 1.976 . S
O192 C186 1.287 . S
O193 Fe179 1.996 . S
O193 C186 1.255 . S
C194 O187 1.287 . S
C194 O188 1.255 . S
O195 Fe177 2.002 . S
O195 C191 1.295 . S
O196 Fe179 1.997 . S
O196 C191 1.235 . S
C197 O180 1.295 . S
C197 O181 1.235 . S
Fe198 O200 1.918 . S
Fe198 O203 1.997 . S
Fe198 O204 2.002 . S
Fe198 O209 1.976 . S
Fe198 O212 1.996 . S
Fe199 O200 1.918 . S
Fe199 O207 1.997 . S
Fe199 O210 1.996 . S
Fe199 O214 1.976 . S
Fe199 O217 2.002 . S
O200 Fe198 1.918 . S
O200 Fe199 1.918 . S
O200 Fe201 1.918 . S
Fe201 O200 1.918 . S
Fe201 O202 2.002 . S
Fe201 O211 1.976 . S
Fe201 O215 1.996 . S
Fe201 O218 1.997 . S
O202 Fe201 2.002 . S
O202 C219 1.295 . S
O203 Fe198 1.997 . S
O203 C219 1.235 . S
O204 Fe198 2.002 . S
O204 C205 1.295 . S
C205 O204 1.295 . S
C205 O207 1.235 . S
C206 O211 1.287 . S
C206 O212 1.255 . S
O207 Fe199 1.997 . S
O207 C205 1.235 . S
C208 O214 1.287 . S
C208 O215 1.255 . S
O209 Fe198 1.976 . S
O209 C216 1.287 . S
O210 Fe199 1.996 . S
O210 C216 1.255 . S
O211 Fe201 1.976 . S
O211 C206 1.287 . S
O212 Fe198 1.996 . S
O212 C206 1.255 . S
C213 O217 1.295 . S
C213 O218 1.235 . S
O214 Fe199 1.976 . S
O214 C208 1.287 . S
O215 Fe201 1.996 . S
O215 C208 1.255 . S
C216 O209 1.287 . S
C216 O210 1.255 . S
O217 Fe199 2.002 . S
O217 C213 1.295 . S
O218 Fe201 1.997 . S
O218 C213 1.235 . S
C219 O202 1.295 . S
C219 O203 1.235 . S
Fe220 O222 1.918 . S
Fe220 O225 1.997 . S
Fe220 O226 2.002 . S
Fe220 O231 1.976 . S
Fe220 O234 1.996 . S
Fe221 O222 1.918 . S
Fe221 O229 1.997 . S
Fe221 O232 1.996 . S
Fe221 O236 1.976 . S
Fe221 O239 2.002 . S
O222 Fe220 1.918 . S
O222 Fe221 1.918 . S
O222 Fe223 1.918 . S
Fe223 O222 1.918 . S
Fe223 O224 2.002 . S
Fe223 O233 1.976 . S
Fe223 O237 1.996 . S
Fe223 O240 1.997 . S
O224 Fe223 2.002 . S
O224 C241 1.295 . S
O225 Fe220 1.997 . S
O225 C241 1.235 . S
O226 Fe220 2.002 . S
O226 C227 1.295 . S
C227 O226 1.295 . S
C227 O229 1.235 . S
C228 O233 1.287 . S
C228 O234 1.255 . S
O229 Fe221 1.997 . S
O229 C227 1.235 . S
C230 O236 1.287 . S
C230 O237 1.255 . S
O231 Fe220 1.976 . S
O231 C238 1.287 . S
O232 Fe221 1.996 . S
O232 C238 1.255 . S
O233 Fe223 1.976 . S
O233 C228 1.287 . S
O234 Fe220 1.996 . S
O234 C228 1.255 . S
C235 O239 1.295 . S
C235 O240 1.235 . S
O236 Fe221 1.976 . S
O236 C230 1.287 . S
O237 Fe223 1.996 . S
O237 C230 1.255 . S
C238 O231 1.287 . S
C238 O232 1.255 . S
O239 Fe221 2.002 . S
O239 C235 1.295 . S
O240 Fe223 1.997 . S
O240 C235 1.235 . S
C241 O224 1.295 . S
C241 O225 1.235 . S
Fe242 O244 1.918 . S
Fe242 O247 1.997 . S
Fe242 O248 2.002 . S
Fe242 O253 1.976 . S
Fe242 O256 1.996 . S
Fe243 O244 1.918 . S
Fe243 O251 1.997 . S
Fe243 O254 1.996 . S
Fe243 O258 1.976 . S
Fe243 O261 2.002 . S
O244 Fe242 1.918 . S
O244 Fe243 1.918 . S
O244 Fe245 1.918 . S
Fe245 O244 1.918 . S
Fe245 O246 2.002 . S
Fe245 O255 1.976 . S
Fe245 O259 1.996 . S
Fe245 O262 1.997 . S
O246 Fe245 2.002 . S
O246 C263 1.295 . S
O247 Fe242 1.997 . S
O247 C263 1.235 . S
O248 Fe242 2.002 . S
O248 C249 1.295 . S
C249 O248 1.295 . S
C249 O251 1.235 . S
C250 O255 1.287 . S
C250 O256 1.255 . S
O251 Fe243 1.997 . S
O251 C249 1.235 . S
C252 O258 1.287 . S
C252 O259 1.255 . S
O253 Fe242 1.976 . S
O253 C260 1.287 . S
O254 Fe243 1.996 . S
O254 C260 1.255 . S
O255 Fe245 1.976 . S
O255 C250 1.287 . S
O256 Fe242 1.996 . S
O256 C250 1.255 . S
C257 O261 1.295 . S
C257 O262 1.235 . S
O258 Fe243 1.976 . S
O258 C252 1.287 . S
O259 Fe245 1.996 . S
O259 C252 1.255 . S
C260 O253 1.287 . S
C260 O254 1.255 . S
O261 Fe243 2.002 . S
O261 C257 1.295 . S
O262 Fe245 1.997 . S
O262 C257 1.235 . S
C263 O246 1.295 . S
C263 O247 1.235 . S
Fe264 O266 1.918 . S
Fe264 O269 1.997 . S
Fe264 O270 2.002 1_565 S
Fe264 O275 1.976 . S
Fe264 O278 1.996 . S
Fe265 O266 1.918 1_545 S
Fe265 O273 1.997 . S
Fe265 O276 1.996 . S
Fe265 O280 1.976 1_545 S
Fe265 O283 2.002 . S
O266 Fe264 1.918 . S
O266 Fe265 1.918 1_565 S
O266 Fe267 1.918 . S
Fe267 O266 1.918 . S
Fe267 O268 2.002 . S
Fe267 O277 1.976 . S
Fe267 O281 1.996 . S
Fe267 O284 1.997 . S
O268 Fe267 2.002 . S
O268 C285 1.295 . S
O269 Fe264 1.997 . S
O269 C285 1.235 . S
O270 Fe264 2.002 1_545 S
O270 C271 1.295 . S
C271 O270 1.295 . S
C271 O273 1.235 . S
C272 O277 1.287 . S
C272 O278 1.255 . S
O273 Fe265 1.997 . S
O273 C271 1.235 . S
C274 O280 1.287 . S
C274 O281 1.255 . S
O275 Fe264 1.976 . S
O275 C282 1.287 1_565 S
O276 Fe265 1.996 . S
O276 C282 1.255 . S
O277 Fe267 1.976 . S
O277 C272 1.287 . S
O278 Fe264 1.996 . S
O278 C272 1.255 . S
C279 O283 1.295 . S
C279 O284 1.235 1_545 S
O280 Fe265 1.976 1_565 S
O280 C274 1.287 . S
O281 Fe267 1.996 . S
O281 C274 1.255 . S
C282 O275 1.287 1_545 S
C282 O276 1.255 . S
O283 Fe265 2.002 . S
O283 C279 1.295 . S
O284 Fe267 1.997 . S
O284 C279 1.235 1_565 S
C285 O268 1.295 . S
C285 O269 1.235 . S
Fe286 O288 1.918 1_455 S
Fe286 O291 1.997 . S
Fe286 O292 2.002 . S
Fe286 O297 1.976 . S
Fe286 O300 1.996 1_455 S
Fe287 O288 1.918 . S
Fe287 O295 1.997 1_655 S
Fe287 O298 1.996 . S
Fe287 O302 1.976 . S
Fe287 O305 2.002 . S
O288 Fe286 1.918 1_655 S
O288 Fe287 1.918 . S
O288 Fe289 1.918 . S
Fe289 O288 1.918 . S
Fe289 O290 2.002 . S
Fe289 O299 1.976 . S
Fe289 O303 1.996 . S
Fe289 O306 1.997 . S
O290 Fe289 2.002 . S
O290 C307 1.295 1_655 S
O291 Fe286 1.997 . S
O291 C307 1.235 . S
O292 Fe286 2.002 . S
O292 C293 1.295 . S
C293 O292 1.295 . S
C293 O295 1.235 . S
C294 O299 1.287 . S
C294 O300 1.255 . S
O295 Fe287 1.997 1_455 S
O295 C293 1.235 . S
C296 O302 1.287 . S
C296 O303 1.255 . S
O297 Fe286 1.976 . S
O297 C304 1.287 . S
O298 Fe287 1.996 . S
O298 C304 1.255 1_655 S
O299 Fe289 1.976 . S
O299 C294 1.287 . S
O300 Fe286 1.996 1_655 S
O300 C294 1.255 . S
C301 O305 1.295 . S
C301 O306 1.235 . S
O302 Fe287 1.976 . S
O302 C296 1.287 . S
O303 Fe289 1.996 . S
O303 C296 1.255 . S
C304 O297 1.287 . S
C304 O298 1.255 1_455 S
O305 Fe287 2.002 . S
O305 C301 1.295 . S
O306 Fe289 1.997 . S
O306 C301 1.235 . S
C307 O290 1.295 1_455 S
C307 O291 1.235 . S
Fe308 O310 1.918 . S
Fe308 O313 1.997 . S
Fe308 O314 2.002 1_545 S
Fe308 O319 1.976 . S
Fe308 O322 1.996 . S
Fe309 O310 1.918 1_565 S
Fe309 O317 1.997 . S
Fe309 O320 1.996 . S
Fe309 O324 1.976 1_565 S
Fe309 O327 2.002 . S
O310 Fe308 1.918 . S
O310 Fe309 1.918 1_545 S
O310 Fe311 1.918 . S
Fe311 O310 1.918 . S
Fe311 O312 2.002 . S
Fe311 O321 1.976 . S
Fe311 O325 1.996 . S
Fe311 O328 1.997 . S
O312 Fe311 2.002 . S
O312 C329 1.295 . S
O313 Fe308 1.997 . S
O313 C329 1.235 . S
O314 Fe308 2.002 1_565 S
O314 C315 1.295 . S
C315 O314 1.295 . S
C315 O317 1.235 . S
C316 O321 1.287 . S
C316 O322 1.255 . S
O317 Fe309 1.997 . S
O317 C315 1.235 . S
C318 O324 1.287 . S
C318 O325 1.255 . S
O319 Fe308 1.976 . S
O319 C326 1.287 1_545 S
O320 Fe309 1.996 . S
O320 C326 1.255 . S
O321 Fe311 1.976 . S
O321 C316 1.287 . S
O322 Fe308 1.996 . S
O322 C316 1.255 . S
C323 O327 1.295 . S
C323 O328 1.235 1_565 S
O324 Fe309 1.976 1_545 S
O324 C318 1.287 . S
O325 Fe311 1.996 . S
O325 C318 1.255 . S
C326 O319 1.287 1_565 S
C326 O320 1.255 . S
O327 Fe309 2.002 . S
O327 C323 1.295 . S
O328 Fe311 1.997 . S
O328 C323 1.235 1_545 S
C329 O312 1.295 . S
C329 O313 1.235 . S
Fe330 O332 1.918 . S
Fe330 O335 1.997 . S
Fe330 O336 2.002 . S
Fe330 O341 1.976 . S
Fe330 O344 1.996 . S
Fe331 O332 1.918 1_655 S
Fe331 O339 1.997 . S
Fe331 O342 1.996 1_655 S
Fe331 O346 1.976 . S
Fe331 O349 2.002 . S
O332 Fe330 1.918 . S
O332 Fe331 1.918 1_455 S
O332 Fe333 1.918 . S
Fe333 O332 1.918 . S
Fe333 O334 2.002 . S
Fe333 O343 1.976 . S
Fe333 O347 1.996 . S
Fe333 O350 1.997 1_455 S
O334 Fe333 2.002 . S
O334 C351 1.295 . S
O335 Fe330 1.997 . S
O335 C351 1.235 . S
O336 Fe330 2.002 . S
O336 C337 1.295 1_455 S
C337 O336 1.295 1_655 S
C337 O339 1.235 . S
C338 O343 1.287 . S
C338 O344 1.255 . S
O339 Fe331 1.997 . S
O339 C337 1.235 . S
C340 O346 1.287 . S
C340 O347 1.255 1_655 S
O341 Fe330 1.976 . S
O341 C348 1.287 . S
O342 Fe331 1.996 1_455 S
O342 C348 1.255 . S
O343 Fe333 1.976 . S
O343 C338 1.287 . S
O344 Fe330 1.996 . S
O344 C338 1.255 . S
C345 O349 1.295 . S
C345 O350 1.235 . S
O346 Fe331 1.976 . S
O346 C340 1.287 . S
O347 Fe333 1.996 . S
O347 C340 1.255 1_455 S
C348 O341 1.287 . S
C348 O342 1.255 . S
O349 Fe331 2.002 . S
O349 C345 1.295 . S
O350 Fe333 1.997 1_655 S
O350 C345 1.235 . S
C351 O334 1.295 . S
C351 O335 1.235 . S
C348 C18 2.998 . S
C274 C40 2.960 . S
C62 C294 2.998 . S
C84 C318 2.960 . S
C98 C30 2.998 . S
C118 C54 2.960 . S
C142 C74 2.998 . S
C10 C162 2.960 . S
C184 C164 2.998 . S
C216 C96 2.960 . S
C238 C120 2.998 . S
C260 C140 2.960 . S
C282 C206 2.998 . S
C230 C304 2.960 . S
C250 C326 2.998 . S
C194 C340 2.960 . S
C106 C8 1.284 . S
C32 C128 1.282 . S
C150 C52 1.284 . S
C76 C172 1.282 . S
C272 C186 1.284 . S
C296 C208 1.282 . S
C316 C228 1.284 . S
C338 C252 1.282 . S
C7 C257 1.788 . S
C191 C29 1.850 . S
C51 C213 1.788 . S
C73 C241 1.850 . S
C117 C103 1.788 1_556 S
C139 C131 1.850 1_554 S
C161 C147 1.788 1_556 S
C175 C95 1.850 1_556 S
C197 C81 1.788 . S
C21 C205 1.850 . S
C37 C227 1.788 . S
C65 C249 1.850 . S
C301 C271 1.788 . S
C293 C329 1.850 . S
C351 C315 1.788 . S
C345 C285 1.850 . S
C59 C15 0.715 1_545 S
C43 C87 0.621 1_655 S
C109 C153 0.715 . S
C169 C125 0.621 . S
C235 C183 0.715 1_455 S
C219 C263 0.621 1_545 S
C323 C279 0.715 1_465 S
C307 C337 0.621 1_445 S
