# Generated by pormake.
# Topology ulj, (4)-cn, num edge types: 1
# Building blocks:
#     Node 0, Type 0, BuildingBlock: MUDLON_clean_sbu_0, # of connection points: 4
#     Node 1, Type 0, BuildingBlock: MUDLON_clean_sbu_0, # of connection points: 4
#     Node 2, Type 0, BuildingBlock: MUDLON_clean_sbu_0, # of connection points: 4
#     Node 3, Type 0, BuildingBlock: MUDLON_clean_sbu_0, # of connection points: 4
#     Node 4, Type 0, BuildingBlock: MUDLON_clean_sbu_0, # of connection points: 4
#     Node 5, Type 0, BuildingBlock: MUDLON_clean_sbu_0, # of connection points: 4
#     Node 6, Type 0, BuildingBlock: MUDLON_clean_sbu_0, # of connection points: 4
#     Node 7, Type 0, BuildingBlock: MUDLON_clean_sbu_0, # of connection points: 4
#     Node 8, Type 0, BuildingBlock: MUDLON_clean_sbu_0, # of connection points: 4
#     Node 9, Type 0, BuildingBlock: MUDLON_clean_sbu_0, # of connection points: 4
#     Node 10, Type 0, BuildingBlock: MUDLON_clean_sbu_0, # of connection points: 4
#     Node 11, Type 0, BuildingBlock: MUDLON_clean_sbu_0, # of connection points: 4
#     Node 12, Type 0, BuildingBlock: MUDLON_clean_sbu_0, # of connection points: 4
#     Node 13, Type 0, BuildingBlock: MUDLON_clean_sbu_0, # of connection points: 4
#     Node 14, Type 0, BuildingBlock: MUDLON_clean_sbu_0, # of connection points: 4
#     Node 15, Type 0, BuildingBlock: MUDLON_clean_sbu_0, # of connection points: 4
#     Node 16, Type 0, BuildingBlock: MUDLON_clean_sbu_0, # of connection points: 4
#     Node 17, Type 0, BuildingBlock: MUDLON_clean_sbu_0, # of connection points: 4
#     Node 18, Type 0, BuildingBlock: MUDLON_clean_sbu_0, # of connection points: 4
#     Node 19, Type 0, BuildingBlock: MUDLON_clean_sbu_0, # of connection points: 4
#     Node 20, Type 0, BuildingBlock: MUDLON_clean_sbu_0, # of connection points: 4
#     Node 21, Type 0, BuildingBlock: MUDLON_clean_sbu_0, # of connection points: 4
#     Node 22, Type 0, BuildingBlock: MUDLON_clean_sbu_0, # of connection points: 4
#     Node 23, Type 0, BuildingBlock: MUDLON_clean_sbu_0, # of connection points: 4
#     Node 24, Type 0, BuildingBlock: MUDLON_clean_sbu_0, # of connection points: 4
#     Node 25, Type 0, BuildingBlock: MUDLON_clean_sbu_0, # of connection points: 4
#     Node 26, Type 0, BuildingBlock: MUDLON_clean_sbu_0, # of connection points: 4
#     Node 27, Type 0, BuildingBlock: MUDLON_clean_sbu_0, # of connection points: 4
#     Node 28, Type 0, BuildingBlock: MUDLON_clean_sbu_0, # of connection points: 4
#     Node 29, Type 0, BuildingBlock: MUDLON_clean_sbu_0, # of connection points: 4
#     Node 30, Type 0, BuildingBlock: MUDLON_clean_sbu_0, # of connection points: 4
#     Node 31, Type 0, BuildingBlock: MUDLON_clean_sbu_0, # of connection points: 4
#     Node 32, Type 0, BuildingBlock: MUDLON_clean_sbu_0, # of connection points: 4
#     Node 33, Type 0, BuildingBlock: MUDLON_clean_sbu_0, # of connection points: 4
#     Node 34, Type 0, BuildingBlock: MUDLON_clean_sbu_0, # of connection points: 4
#     Node 35, Type 0, BuildingBlock: MUDLON_clean_sbu_0, # of connection points: 4
#     Node 36, Type 0, BuildingBlock: MUDLON_clean_sbu_0, # of connection points: 4
#     Node 37, Type 0, BuildingBlock: MUDLON_clean_sbu_0, # of connection points: 4
#     Node 38, Type 0, BuildingBlock: MUDLON_clean_sbu_0, # of connection points: 4
#     Node 39, Type 0, BuildingBlock: MUDLON_clean_sbu_0, # of connection points: 4
#     Node 40, Type 0, BuildingBlock: MUDLON_clean_sbu_0, # of connection points: 4
#     Node 41, Type 0, BuildingBlock: MUDLON_clean_sbu_0, # of connection points: 4
#     Node 42, Type 0, BuildingBlock: MUDLON_clean_sbu_0, # of connection points: 4
#     Node 43, Type 0, BuildingBlock: MUDLON_clean_sbu_0, # of connection points: 4
#     Node 44, Type 0, BuildingBlock: MUDLON_clean_sbu_0, # of connection points: 4
#     Node 45, Type 0, BuildingBlock: MUDLON_clean_sbu_0, # of connection points: 4
#     Node 46, Type 0, BuildingBlock: MUDLON_clean_sbu_0, # of connection points: 4
#     Node 47, Type 0, BuildingBlock: MUDLON_clean_sbu_0, # of connection points: 4
#     Edge 48, Type (0, 0), BuildingBlock: MIFKUJ_clean_linker_0, # of connection points: 2
#     Edge 49, Type (0, 0), BuildingBlock: MIFKUJ_clean_linker_0, # of connection points: 2
#     Edge 50, Type (0, 0), BuildingBlock: MIFKUJ_clean_linker_0, # of connection points: 2
#     Edge 51, Type (0, 0), BuildingBlock: MIFKUJ_clean_linker_0, # of connection points: 2
#     Edge 52, Type (0, 0), BuildingBlock: MIFKUJ_clean_linker_0, # of connection points: 2
#     Edge 53, Type (0, 0), BuildingBlock: MIFKUJ_clean_linker_0, # of connection points: 2
#     Edge 54, Type (0, 0), BuildingBlock: MIFKUJ_clean_linker_0, # of connection points: 2
#     Edge 55, Type (0, 0), BuildingBlock: MIFKUJ_clean_linker_0, # of connection points: 2
#     Edge 56, Type (0, 0), BuildingBlock: MIFKUJ_clean_linker_0, # of connection points: 2
#     Edge 57, Type (0, 0), BuildingBlock: MIFKUJ_clean_linker_0, # of connection points: 2
#     Edge 58, Type (0, 0), BuildingBlock: MIFKUJ_clean_linker_0, # of connection points: 2
#     Edge 59, Type (0, 0), BuildingBlock: MIFKUJ_clean_linker_0, # of connection points: 2
#     Edge 60, Type (0, 0), BuildingBlock: MIFKUJ_clean_linker_0, # of connection points: 2
#     Edge 61, Type (0, 0), BuildingBlock: MIFKUJ_clean_linker_0, # of connection points: 2
#     Edge 62, Type (0, 0), BuildingBlock: MIFKUJ_clean_linker_0, # of connection points: 2
#     Edge 63, Type (0, 0), BuildingBlock: MIFKUJ_clean_linker_0, # of connection points: 2
#     Edge 64, Type (0, 0), BuildingBlock: MIFKUJ_clean_linker_0, # of connection points: 2
#     Edge 65, Type (0, 0), BuildingBlock: MIFKUJ_clean_linker_0, # of connection points: 2
#     Edge 66, Type (0, 0), BuildingBlock: MIFKUJ_clean_linker_0, # of connection points: 2
#     Edge 67, Type (0, 0), BuildingBlock: MIFKUJ_clean_linker_0, # of connection points: 2
#     Edge 68, Type (0, 0), BuildingBlock: MIFKUJ_clean_linker_0, # of connection points: 2
#     Edge 69, Type (0, 0), BuildingBlock: MIFKUJ_clean_linker_0, # of connection points: 2
#     Edge 70, Type (0, 0), BuildingBlock: MIFKUJ_clean_linker_0, # of connection points: 2
#     Edge 71, Type (0, 0), BuildingBlock: MIFKUJ_clean_linker_0, # of connection points: 2
#     Edge 72, Type (0, 0), BuildingBlock: MIFKUJ_clean_linker_0, # of connection points: 2
#     Edge 73, Type (0, 0), BuildingBlock: MIFKUJ_clean_linker_0, # of connection points: 2
#     Edge 74, Type (0, 0), BuildingBlock: MIFKUJ_clean_linker_0, # of connection points: 2
#     Edge 75, Type (0, 0), BuildingBlock: MIFKUJ_clean_linker_0, # of connection points: 2
#     Edge 76, Type (0, 0), BuildingBlock: MIFKUJ_clean_linker_0, # of connection points: 2
#     Edge 77, Type (0, 0), BuildingBlock: MIFKUJ_clean_linker_0, # of connection points: 2
#     Edge 78, Type (0, 0), BuildingBlock: MIFKUJ_clean_linker_0, # of connection points: 2
#     Edge 79, Type (0, 0), BuildingBlock: MIFKUJ_clean_linker_0, # of connection points: 2
#     Edge 80, Type (0, 0), BuildingBlock: MIFKUJ_clean_linker_0, # of connection points: 2
#     Edge 81, Type (0, 0), BuildingBlock: MIFKUJ_clean_linker_0, # of connection points: 2
#     Edge 82, Type (0, 0), BuildingBlock: MIFKUJ_clean_linker_0, # of connection points: 2
#     Edge 83, Type (0, 0), BuildingBlock: MIFKUJ_clean_linker_0, # of connection points: 2
#     Edge 84, Type (0, 0), BuildingBlock: MIFKUJ_clean_linker_0, # of connection points: 2
#     Edge 85, Type (0, 0), BuildingBlock: MIFKUJ_clean_linker_0, # of connection points: 2
#     Edge 86, Type (0, 0), BuildingBlock: MIFKUJ_clean_linker_0, # of connection points: 2
#     Edge 87, Type (0, 0), BuildingBlock: MIFKUJ_clean_linker_0, # of connection points: 2
#     Edge 88, Type (0, 0), BuildingBlock: MIFKUJ_clean_linker_0, # of connection points: 2
#     Edge 89, Type (0, 0), BuildingBlock: MIFKUJ_clean_linker_0, # of connection points: 2
#     Edge 90, Type (0, 0), BuildingBlock: MIFKUJ_clean_linker_0, # of connection points: 2
#     Edge 91, Type (0, 0), BuildingBlock: MIFKUJ_clean_linker_0, # of connection points: 2
#     Edge 92, Type (0, 0), BuildingBlock: MIFKUJ_clean_linker_0, # of connection points: 2
#     Edge 93, Type (0, 0), BuildingBlock: MIFKUJ_clean_linker_0, # of connection points: 2
#     Edge 94, Type (0, 0), BuildingBlock: MIFKUJ_clean_linker_0, # of connection points: 2
#     Edge 95, Type (0, 0), BuildingBlock: MIFKUJ_clean_linker_0, # of connection points: 2
#     Edge 96, Type (0, 0), BuildingBlock: MIFKUJ_clean_linker_0, # of connection points: 2
#     Edge 97, Type (0, 0), BuildingBlock: MIFKUJ_clean_linker_0, # of connection points: 2
#     Edge 98, Type (0, 0), BuildingBlock: MIFKUJ_clean_linker_0, # of connection points: 2
#     Edge 99, Type (0, 0), BuildingBlock: MIFKUJ_clean_linker_0, # of connection points: 2
#     Edge 100, Type (0, 0), BuildingBlock: MIFKUJ_clean_linker_0, # of connection points: 2
#     Edge 101, Type (0, 0), BuildingBlock: MIFKUJ_clean_linker_0, # of connection points: 2
#     Edge 102, Type (0, 0), BuildingBlock: MIFKUJ_clean_linker_0, # of connection points: 2
#     Edge 103, Type (0, 0), BuildingBlock: MIFKUJ_clean_linker_0, # of connection points: 2
#     Edge 104, Type (0, 0), BuildingBlock: MIFKUJ_clean_linker_0, # of connection points: 2
#     Edge 105, Type (0, 0), BuildingBlock: MIFKUJ_clean_linker_0, # of connection points: 2
#     Edge 106, Type (0, 0), BuildingBlock: MIFKUJ_clean_linker_0, # of connection points: 2
#     Edge 107, Type (0, 0), BuildingBlock: MIFKUJ_clean_linker_0, # of connection points: 2
#     Edge 108, Type (0, 0), BuildingBlock: MIFKUJ_clean_linker_0, # of connection points: 2
#     Edge 109, Type (0, 0), BuildingBlock: MIFKUJ_clean_linker_0, # of connection points: 2
#     Edge 110, Type (0, 0), BuildingBlock: MIFKUJ_clean_linker_0, # of connection points: 2
#     Edge 111, Type (0, 0), BuildingBlock: MIFKUJ_clean_linker_0, # of connection points: 2
#     Edge 112, Type (0, 0), BuildingBlock: MIFKUJ_clean_linker_0, # of connection points: 2
#     Edge 113, Type (0, 0), BuildingBlock: MIFKUJ_clean_linker_0, # of connection points: 2
#     Edge 114, Type (0, 0), BuildingBlock: MIFKUJ_clean_linker_0, # of connection points: 2
#     Edge 115, Type (0, 0), BuildingBlock: MIFKUJ_clean_linker_0, # of connection points: 2
#     Edge 116, Type (0, 0), BuildingBlock: MIFKUJ_clean_linker_0, # of connection points: 2
#     Edge 117, Type (0, 0), BuildingBlock: MIFKUJ_clean_linker_0, # of connection points: 2
#     Edge 118, Type (0, 0), BuildingBlock: MIFKUJ_clean_linker_0, # of connection points: 2
#     Edge 119, Type (0, 0), BuildingBlock: MIFKUJ_clean_linker_0, # of connection points: 2
#     Edge 120, Type (0, 0), BuildingBlock: MIFKUJ_clean_linker_0, # of connection points: 2
#     Edge 121, Type (0, 0), BuildingBlock: MIFKUJ_clean_linker_0, # of connection points: 2
#     Edge 122, Type (0, 0), BuildingBlock: MIFKUJ_clean_linker_0, # of connection points: 2
#     Edge 123, Type (0, 0), BuildingBlock: MIFKUJ_clean_linker_0, # of connection points: 2
#     Edge 124, Type (0, 0), BuildingBlock: MIFKUJ_clean_linker_0, # of connection points: 2
#     Edge 125, Type (0, 0), BuildingBlock: MIFKUJ_clean_linker_0, # of connection points: 2
#     Edge 126, Type (0, 0), BuildingBlock: MIFKUJ_clean_linker_0, # of connection points: 2
#     Edge 127, Type (0, 0), BuildingBlock: MIFKUJ_clean_linker_0, # of connection points: 2
#     Edge 128, Type (0, 0), BuildingBlock: MIFKUJ_clean_linker_0, # of connection points: 2
#     Edge 129, Type (0, 0), BuildingBlock: MIFKUJ_clean_linker_0, # of connection points: 2
#     Edge 130, Type (0, 0), BuildingBlock: MIFKUJ_clean_linker_0, # of connection points: 2
#     Edge 131, Type (0, 0), BuildingBlock: MIFKUJ_clean_linker_0, # of connection points: 2
#     Edge 132, Type (0, 0), BuildingBlock: MIFKUJ_clean_linker_0, # of connection points: 2
#     Edge 133, Type (0, 0), BuildingBlock: MIFKUJ_clean_linker_0, # of connection points: 2
#     Edge 134, Type (0, 0), BuildingBlock: MIFKUJ_clean_linker_0, # of connection points: 2
#     Edge 135, Type (0, 0), BuildingBlock: MIFKUJ_clean_linker_0, # of connection points: 2
#     Edge 136, Type (0, 0), BuildingBlock: MIFKUJ_clean_linker_0, # of connection points: 2
#     Edge 137, Type (0, 0), BuildingBlock: MIFKUJ_clean_linker_0, # of connection points: 2
#     Edge 138, Type (0, 0), BuildingBlock: MIFKUJ_clean_linker_0, # of connection points: 2
#     Edge 139, Type (0, 0), BuildingBlock: MIFKUJ_clean_linker_0, # of connection points: 2
#     Edge 140, Type (0, 0), BuildingBlock: MIFKUJ_clean_linker_0, # of connection points: 2
#     Edge 141, Type (0, 0), BuildingBlock: MIFKUJ_clean_linker_0, # of connection points: 2
#     Edge 142, Type (0, 0), BuildingBlock: MIFKUJ_clean_linker_0, # of connection points: 2
#     Edge 143, Type (0, 0), BuildingBlock: MIFKUJ_clean_linker_0, # of connection points: 2
# Relax obj value: 0.200
# Max RMSD: 0.250
# Mean RMSD: 0.237
data_MOF--net-ulj--node1-MUDLON_clean_sbu_0--edge1-MIFKUJ_clean_linker_0
_symmetry_space_group_name_H-M    P1
_symmetry_Int_Tables_number       1
_symmetry_cell_setting            triclinic
loop_
_symmetry_equiv_pos_as_xyz
'x, y, z'
_cell_length_a     85.204124
_cell_length_b     85.103441
_cell_length_c     85.139044
_cell_angle_alpha  89.973707
_cell_angle_beta   90.019945
_cell_angle_gamma 89.972591
loop_
_atom_site_label
_atom_site_type_symbol
_atom_site_fract_x
_atom_site_fract_y
_atom_site_fract_z
_atom_type_partial_charge
Mg0 Mg 0.16091 0.26452 0.34758 0.0
C1 C 0.14687 0.23311 0.35609 0.0
O2 O 0.16076 0.2313 0.36251 0.0
C3 C 0.17122 0.28758 0.32378 0.0
O4 O 0.16765 0.29663 0.33574 0.0
C5 C 0.1484 0.29463 0.36675 0.0
O6 O 0.16159 0.29597 0.37463 0.0
O7 O 0.14667 0.28353 0.35695 0.0
O8 O 0.14403 0.24536 0.34799 0.0
O9 O 0.18263 0.25502 0.35717 0.0
C10 C 0.19586 0.26078 0.35332 0.0
O11 O 0.19646 0.27523 0.34795 0.0
O12 O 0.16867 0.27287 0.32475 0.0
Mg13 Mg 0.52054 0.5864 0.90254 0.0
C14 C 0.49078 0.608 0.90641 0.0
O15 O 0.49383 0.6074 0.92152 0.0
C16 C 0.54255 0.58233 0.92994 0.0
O17 O 0.55269 0.58611 0.91898 0.0
C18 C 0.53926 0.61296 0.89281 0.0
O19 O 0.52696 0.61857 0.90022 0.0
O20 O 0.5403 0.59813 0.89093 0.0
O21 O 0.49964 0.60064 0.8969 0.0
O22 O 0.51329 0.56201 0.89881 0.0
C23 C 0.50226 0.55999 0.90874 0.0
O24 O 0.49714 0.57235 0.91643 0.0
O25 O 0.52792 0.58317 0.92697 0.0
Mg26 Mg 0.84221 0.24477 0.34753 0.0
C27 C 0.85988 0.27143 0.3623 0.0
O28 O 0.85196 0.26626 0.37447 0.0
C29 C 0.8253 0.22554 0.32582 0.0
O30 O 0.81995 0.22239 0.33995 0.0
C31 C 0.86357 0.22445 0.36822 0.0
O32 O 0.86733 0.23782 0.37488 0.0
O33 O 0.8529 0.22416 0.35783 0.0
O34 O 0.85813 0.26485 0.34898 0.0
O35 O 0.81916 0.25112 0.35598 0.0
C36 C 0.81494 0.26543 0.35618 0.0
O37 O 0.82559 0.27647 0.35476 0.0
O38 O 0.83619 0.23572 0.3244 0.0
Mg39 Mg 0.48323 0.91084 0.90288 0.0
C40 C 0.51386 0.89128 0.90579 0.0
O41 O 0.51133 0.89261 0.92096 0.0
C42 C 0.46283 0.90974 0.93179 0.0
O43 O 0.453 0.90311 0.92195 0.0
C44 C 0.46515 0.88403 0.89231 0.0
O45 O 0.47821 0.87838 0.89824 0.0
O46 O 0.46343 0.89891 0.89161 0.0
O47 O 0.50425 0.89751 0.89623 0.0
O48 O 0.48932 0.93573 0.90006 0.0
C49 C 0.50197 0.93789 0.90778 0.0
O50 O 0.50875 0.92562 0.91421 0.0
O51 O 0.47698 0.91206 0.92757 0.0
Mg52 Mg 0.16155 0.7391 0.15825 0.0
C53 C 0.14628 0.76939 0.14816 0.0
O54 O 0.16034 0.77093 0.14205 0.0
C55 C 0.1802 0.72 0.17983 0.0
O56 O 0.18694 0.71871 0.16601 0.0
C57 C 0.15062 0.70645 0.14746 0.0
O58 O 0.15765 0.70203 0.16044 0.0
O59 O 0.15201 0.72065 0.14284 0.0
O60 O 0.14331 0.75738 0.15665 0.0
O61 O 0.18334 0.75212 0.15519 0.0
C62 C 0.1965 0.75071 0.14833 0.0
O63 O 0.19892 0.73899 0.13859 0.0
O64 O 0.16765 0.72816 0.18088 0.0
Mg65 Mg 0.99341 0.58842 0.09555 0.0
C66 C 0.01678 0.61727 0.09618 0.0
O67 O 0.00549 0.62545 0.08956 0.0
C68 C 0.99007 0.57574 0.06219 0.0
O69 O 0.00433 0.57041 0.0646 0.0
C70 C 0.97556 0.61251 0.11547 0.0
O71 O 0.98995 0.6166 0.11916 0.0
O72 O 0.97348 0.60004 0.10744 0.0
O73 O 0.01468 0.60273 0.09888 0.0
O74 O 1.00036 0.56386 0.10004 0.0
C75 C 0.01504 0.5613 0.09856 0.0
O76 O 0.02449 0.57344 0.09787 0.0
O77 O 0.98395 0.58513 0.07208 0.0
Mg78 Mg 0.84269 0.75972 0.16012 0.0
C79 C 0.8582 0.73108 0.14649 0.0
O80 O 0.84613 0.73314 0.13712 0.0
C81 C 0.82779 0.78171 0.18104 0.0
O82 O 0.8243 0.78597 0.16661 0.0
C83 C 0.86276 0.7783 0.13742 0.0
O84 O 0.86817 0.76415 0.13452 0.0
O85 O 0.85097 0.77978 0.14645 0.0
O86 O 0.85992 0.74041 0.1581 0.0
O87 O 0.81932 0.75049 0.1566 0.0
C88 C 0.81004 0.74456 0.14656 0.0
O89 O 0.81447 0.74277 0.1319 0.0
O90 O 0.83721 0.77019 0.18298 0.0
Mg91 Mg 0.00928 0.9111 0.09741 0.0
C92 C 0.98211 0.88635 0.09448 0.0
O93 O 0.9884 0.88244 0.08094 0.0
C94 C 0.02529 0.90762 0.06414 0.0
O95 O 0.02833 0.89277 0.06703 0.0
C96 C 0.02851 0.88435 0.10651 0.0
O97 O 0.01675 0.87882 0.09826 0.0
O98 O 0.02908 0.89913 0.109 0.0
O99 O 0.98825 0.89726 0.10258 0.0
O100 O 0.00188 0.93536 0.10146 0.0
C101 C 0.98885 0.93743 0.09434 0.0
O102 O 0.98191 0.92519 0.08803 0.0
O103 O 0.01701 0.91557 0.07363 0.0
Mg104 Mg 0.34622 0.16126 0.26359 0.0
C105 C 0.36079 0.14093 0.24011 0.0
O106 O 0.37259 0.14666 0.24824 0.0
C107 C 0.32415 0.17895 0.28259 0.0
O108 O 0.33757 0.18647 0.28372 0.0
C109 C 0.35963 0.15138 0.29602 0.0
O110 O 0.35382 0.16462 0.30135 0.0
O111 O 0.35925 0.14849 0.28139 0.0
O112 O 0.3469 0.14512 0.24378 0.0
O113 O 0.3541 0.18417 0.25552 0.0
C114 C 0.35176 0.18703 0.24104 0.0
O115 O 0.348 0.17533 0.23172 0.0
O116 O 0.32347 0.16676 0.27393 0.0
Mg117 Mg 0.41785 0.39845 0.9924 0.0
C118 C 0.40493 0.38946 0.02387 0.0
O119 O 0.418 0.38129 0.02386 0.0
C120 C 0.42393 0.43403 0.98383 0.0
O121 O 0.41953 0.43792 0.99809 0.0
C122 C 0.3915 0.38848 0.97476 0.0
O123 O 0.38656 0.39882 0.98507 0.0
O124 O 0.40592 0.38454 0.9748 0.0
O125 O 0.40195 0.39868 0.01248 0.0
O126 O 0.44104 0.3933 0.00166 0.0
C127 C 0.44357 0.40414 0.01163 0.0
O128 O 0.43207 0.41378 0.01516 0.0
O129 O 0.42292 0.41982 0.97938 0.0
Mg130 Mg 0.65135 0.3404 0.27042 0.0
C131 C 0.63883 0.36413 0.24792 0.0
O132 O 0.63091 0.36753 0.26071 0.0
C133 C 0.67542 0.33124 0.29225 0.0
O134 O 0.66308 0.33388 0.30109 0.0
C135 C 0.63552 0.3575 0.30051 0.0
O136 O 0.62793 0.34449 0.30385 0.0
O137 O 0.64443 0.35795 0.28849 0.0
O138 O 0.64888 0.35302 0.2483 0.0
O139 O 0.63914 0.31765 0.26849 0.0
C140 C 0.63594 0.30333 0.26513 0.0
O141 O 0.62222 0.29811 0.26982 0.0
O142 O 0.67454 0.33373 0.27754 0.0
Mg143 Mg 0.58786 0.09901 0.9933 0.0
C144 C 0.601 0.10838 0.02509 0.0
O145 O 0.58779 0.11631 0.0253 0.0
C146 C 0.58601 0.06614 0.97535 0.0
O147 O 0.60118 0.06649 0.97265 0.0
C148 C 0.61455 0.10878 0.97436 0.0
O149 O 0.62041 0.1005 0.98598 0.0
O150 O 0.59977 0.11113 0.97396 0.0
O151 O 0.60413 0.09952 0.01342 0.0
O152 O 0.56513 0.10508 0.00337 0.0
C153 C 0.56288 0.09441 0.01367 0.0
O154 O 0.5741 0.08406 0.01606 0.0
O155 O 0.57964 0.07689 0.98347 0.0
Mg156 Mg 0.34582 0.84305 0.24926 0.0
C157 C 0.35931 0.86557 0.271 0.0
O158 O 0.37068 0.86213 0.26117 0.0
C159 C 0.32477 0.82824 0.2266 0.0
O160 O 0.33809 0.83022 0.21909 0.0
C161 C 0.36727 0.85762 0.22267 0.0
O162 O 0.37917 0.84896 0.22731 0.0
O163 O 0.35419 0.85667 0.22968 0.0
O164 O 0.34589 0.85928 0.26892 0.0
O165 O 0.35896 0.82342 0.25842 0.0
C166 C 0.35922 0.81 0.25194 0.0
O167 O 0.35591 0.80884 0.23693 0.0
O168 O 0.32371 0.8332 0.24069 0.0
Mg169 Mg 0.09154 0.39819 0.01002 0.0
C170 C 0.11089 0.40108 0.97962 0.0
O171 O 0.10882 0.41627 0.98152 0.0
C172 C 0.09274 0.43097 0.0255 0.0
O173 O 0.10444 0.4253 0.03379 0.0
C174 C 0.11865 0.38839 0.02823 0.0
O175 O 0.12427 0.39247 0.01448 0.0
O176 O 0.10387 0.38898 0.03045 0.0
O177 O 0.10516 0.39158 0.98954 0.0
O178 O 0.06762 0.39227 0.00357 0.0
C179 C 0.06505 0.401 0.99167 0.0
O180 O 0.07672 0.40915 0.98579 0.0
O181 O 0.08712 0.42297 0.01425 0.0
Mg182 Mg 0.65145 0.66368 0.2402 0.0
C183 C 0.63864 0.64581 0.26613 0.0
O184 O 0.62638 0.65154 0.25871 0.0
C185 C 0.67378 0.67429 0.21624 0.0
O186 O 0.66125 0.67081 0.20794 0.0
C187 C 0.63149 0.64669 0.2129 0.0
O188 O 0.62091 0.65791 0.21242 0.0
O189 O 0.64281 0.64751 0.22254 0.0
O190 O 0.65228 0.64912 0.26101 0.0
O191 O 0.64055 0.6852 0.24848 0.0
C192 C 0.64401 0.69836 0.24231 0.0
O193 O 0.64918 0.69868 0.22779 0.0
O194 O 0.67367 0.67176 0.23097 0.0
Mg195 Mg 0.90797 0.10045 0.00792 0.0
C196 C 0.87866 0.10615 0.98809 0.0
O197 O 0.87267 0.11051 0.0016 0.0
C198 C 0.90951 0.06491 0.0206 0.0
O199 O 0.89565 0.06154 0.01475 0.0
C200 C 0.88746 0.10504 0.03455 0.0
O201 O 0.88742 0.08995 0.03151 0.0
O202 O 0.89617 0.11401 0.02632 0.0
O203 O 0.89239 0.10031 0.98767 0.0
O204 O 0.9308 0.10502 0.99726 0.0
C205 C 0.93233 0.09365 0.98759 0.0
O206 O 0.92031 0.08419 0.98559 0.0
O207 O 0.91521 0.07858 0.01897 0.0
Mg208 Mg 0.26515 0.34976 0.16129 0.0
C209 C 0.23862 0.36223 0.14357 0.0
O210 O 0.24289 0.37395 0.15267 0.0
C211 C 0.28355 0.32794 0.18007 0.0
O212 O 0.28359 0.34111 0.1881 0.0
C213 C 0.29708 0.36193 0.15049 0.0
O214 O 0.30247 0.3529 0.16176 0.0
O215 O 0.28237 0.36401 0.14916 0.0
O216 O 0.24585 0.34919 0.14469 0.0
O217 O 0.25626 0.3568 0.18417 0.0
C218 C 0.24201 0.35387 0.18748 0.0
O219 O 0.23236 0.34977 0.17619 0.0
O220 O 0.27643 0.32755 0.1669 0.0
Mg221 Mg 0.2703 0.65592 0.34196 0.0
C222 C 0.24624 0.64084 0.36058 0.0
O223 O 0.25666 0.62971 0.35817 0.0
C224 C 0.28905 0.67775 0.32566 0.0
O225 O 0.2938 0.66362 0.32162 0.0
C226 C 0.29934 0.63758 0.35858 0.0
O227 O 0.30079 0.62815 0.34645 0.0
O228 O 0.28867 0.64807 0.35855 0.0
O229 O 0.24879 0.65447 0.35502 0.0
O230 O 0.26478 0.64543 0.31905 0.0
C231 C 0.26159 0.63931 0.30576 0.0
O232 O 0.26705 0.6252 0.30276 0.0
O233 O 0.27791 0.67902 0.33549 0.0
Mg234 Mg 0.90542 0.48826 0.90815 0.0
C235 C 0.89909 0.49612 0.94432 0.0
O236 O 0.89445 0.48169 0.94717 0.0
C237 C 0.8965 0.45677 0.8931 0.0
O238 O 0.90985 0.45251 0.89943 0.0
C239 C 0.92783 0.46749 0.92349 0.0
O240 O 0.91427 0.46321 0.92941 0.0
O241 O 0.92824 0.47819 0.91306 0.0
O242 O 0.90131 0.50062 0.93025 0.0
O243 O 0.9054 0.50803 0.89207 0.0
C244 C 0.89167 0.51218 0.88788 0.0
O245 O 0.87963 0.50385 0.89273 0.0
O246 O 0.89099 0.47041 0.89602 0.0
Mg247 Mg 0.73273 0.84959 0.34004 0.0
C248 C 0.75797 0.86486 0.35772 0.0
O249 O 0.74752 0.87601 0.35553 0.0
C250 C 0.71143 0.82723 0.3272 0.0
O251 O 0.7065 0.8413 0.32323 0.0
C252 C 0.70229 0.86607 0.35501 0.0
O253 O 0.6963 0.86767 0.34088 0.0
O254 O 0.71598 0.86028 0.35661 0.0
O255 O 0.75523 0.85127 0.3521 0.0
O256 O 0.7361 0.85603 0.3153 0.0
C257 C 0.74986 0.85823 0.30989 0.0
O258 O 0.76135 0.86096 0.31978 0.0
O259 O 0.72352 0.82616 0.33596 0.0
Mg260 Mg 0.60433 0.51914 0.4193 0.0
C261 C 0.6144 0.5021 0.44862 0.0
O262 O 0.61642 0.49056 0.43861 0.0
C263 C 0.62533 0.54307 0.39957 0.0
O264 O 0.63816 0.53657 0.40513 0.0
C265 C 0.58309 0.54039 0.43317 0.0
O266 O 0.59747 0.54546 0.43556 0.0
O267 O 0.58119 0.52788 0.42516 0.0
O268 O 0.61235 0.51594 0.44337 0.0
O269 O 0.60618 0.49712 0.40624 0.0
C270 C 0.61942 0.49429 0.39987 0.0
O271 O 0.63081 0.50451 0.4016 0.0
O272 O 0.61199 0.53825 0.40413 0.0
Mg273 Mg 0.23711 0.65372 0.66043 0.0
C274 C 0.2632 0.63943 0.64302 0.0
O275 O 0.25631 0.62727 0.64954 0.0
C276 C 0.21761 0.67506 0.67652 0.0
O277 O 0.21392 0.66082 0.6812 0.0
C278 C 0.21447 0.63195 0.64056 0.0
O279 O 0.22349 0.61983 0.6437 0.0
O280 O 0.21732 0.64518 0.64681 0.0
O281 O 0.25751 0.65306 0.6453 0.0
O282 O 0.24408 0.64583 0.68386 0.0
C283 C 0.25806 0.65005 0.68712 0.0
O284 O 0.2668 0.65582 0.67582 0.0
O285 O 0.22844 0.67669 0.66635 0.0
Mg286 Mg 0.90827 0.51752 0.58856 0.0
C287 C 0.90056 0.49957 0.55887 0.0
O288 O 0.89893 0.48801 0.56896 0.0
C289 C 0.88668 0.54317 0.60594 0.0
O290 O 0.87438 0.53852 0.59788 0.0
C291 C 0.92982 0.5383 0.57411 0.0
O292 O 0.91548 0.54313 0.57107 0.0
O293 O 0.93157 0.52635 0.58301 0.0
O294 O 0.90152 0.51358 0.56404 0.0
O295 O 0.90584 0.49546 0.60171 0.0
C296 C 0.89295 0.49335 0.60903 0.0
O297 O 0.88231 0.50452 0.60863 0.0
O298 O 0.89993 0.53673 0.60357 0.0
Mg299 Mg 0.09419 0.99608 0.59109 0.0
C300 C 0.1052 0.01236 0.55708 0.0
O301 O 0.12055 0.0117 0.55827 0.0
C302 C 0.11024 0.96478 0.60249 0.0
O303 O 0.10431 0.95795 0.59001 0.0
C304 C 0.07325 0.97592 0.57402 0.0
O305 O 0.08688 0.97559 0.56681 0.0
O306 O 0.07209 0.98394 0.58662 0.0
O307 O 0.09659 0.00698 0.56801 0.0
O308 O 0.09483 0.0163 0.60663 0.0
C309 C 0.10686 0.02496 0.60454 0.0
O310 O 0.11666 0.02144 0.59316 0.0
O311 O 0.10916 0.97961 0.60404 0.0
Mg312 Mg 0.66261 0.76672 0.84986 0.0
C313 C 0.64763 0.73891 0.86533 0.0
O314 O 0.65758 0.74348 0.8762 0.0
C315 C 0.67902 0.78566 0.8276 0.0
O316 O 0.68467 0.78911 0.84153 0.0
C317 C 0.64342 0.78899 0.87208 0.0
O318 O 0.64585 0.77871 0.88333 0.0
O319 O 0.64986 0.78703 0.85878 0.0
O320 O 0.64702 0.7464 0.85237 0.0
O321 O 0.68653 0.76042 0.85711 0.0
C322 C 0.69094 0.74618 0.85561 0.0
O323 O 0.6804 0.73534 0.85269 0.0
O324 O 0.66815 0.77543 0.82649 0.0
Mg325 Mg 0.01098 0.09041 0.39761 0.0
C326 C 0.98287 0.11335 0.40242 0.0
O327 O 0.98667 0.11322 0.41737 0.0
C328 C 0.01486 0.07934 0.43122 0.0
O329 O 0.00189 0.07163 0.4281 0.0
C330 C 0.02953 0.11693 0.39051 0.0
O331 O 0.01873 0.12091 0.40076 0.0
O332 O 0.02994 0.10274 0.38569 0.0
O333 O 0.99088 0.10538 0.39272 0.0
O334 O 0.00354 0.06612 0.39338 0.0
C335 C 0.98872 0.06431 0.39438 0.0
O336 O 0.97982 0.07687 0.39447 0.0
O337 O 0.02 0.08929 0.42136 0.0
Mg338 Mg 0.34091 0.73051 0.8505 0.0
C339 C 0.3549 0.75948 0.8636 0.0
O340 O 0.34168 0.75811 0.87143 0.0
C341 C 0.32511 0.71094 0.82858 0.0
O342 O 0.31944 0.70786 0.84258 0.0
C343 C 0.36255 0.71085 0.87159 0.0
O344 O 0.36672 0.72473 0.87685 0.0
O345 O 0.35083 0.70977 0.86234 0.0
O346 O 0.35814 0.74932 0.85308 0.0
O347 O 0.3183 0.74293 0.85252 0.0
C348 C 0.30424 0.7396 0.85632 0.0
O349 O 0.3011 0.72605 0.86299 0.0
O350 O 0.33646 0.72063 0.82741 0.0
Mg351 Mg 0.99108 0.41984 0.39765 0.0
C352 C 0.02239 0.40042 0.40188 0.0
O353 O 0.0233 0.40651 0.41603 0.0
C354 C 0.98573 0.4315 0.43068 0.0
O355 O 0.99987 0.43693 0.42815 0.0
C356 C 0.972 0.39398 0.3903 0.0
O357 O 0.98195 0.39025 0.4015 0.0
O358 O 0.97244 0.40791 0.38477 0.0
O359 O 0.01076 0.4038 0.39318 0.0
O360 O 0.99937 0.444 0.39319 0.0
C361 C 0.01411 0.4464 0.39434 0.0
O362 O 0.0235 0.43425 0.39536 0.0
O363 O 0.97991 0.42203 0.42074 0.0
Mg364 Mg 0.65873 0.23828 0.65125 0.0
C365 C 0.64502 0.26747 0.63969 0.0
O366 O 0.6568 0.26477 0.63012 0.0
C367 C 0.67589 0.21893 0.67315 0.0
O368 O 0.6839 0.2187 0.65997 0.0
C369 C 0.64621 0.20666 0.64014 0.0
O370 O 0.65575 0.20128 0.65098 0.0
O371 O 0.64691 0.2211 0.63627 0.0
O372 O 0.64254 0.25793 0.65097 0.0
O373 O 0.6811 0.2502 0.64782 0.0
C374 C 0.69402 0.24941 0.64043 0.0
O375 O 0.69635 0.23821 0.63008 0.0
O376 O 0.66317 0.22679 0.67361 0.0
Mg377 Mg 0.48247 0.09255 0.60525 0.0
C378 C 0.50678 0.11971 0.60607 0.0
O379 O 0.49635 0.12743 0.59773 0.0
C380 C 0.47932 0.08314 0.57127 0.0
O381 O 0.49227 0.07532 0.57427 0.0
C382 C 0.46483 0.11656 0.6245 0.0
O383 O 0.47927 0.12081 0.62777 0.0
O384 O 0.46261 0.10382 0.61701 0.0
O385 O 0.50403 0.10558 0.60999 0.0
O386 O 0.48747 0.06749 0.60837 0.0
C387 C 0.50196 0.06387 0.60915 0.0
O388 O 0.51227 0.07518 0.61095 0.0
O389 O 0.4741 0.09279 0.58136 0.0
Mg390 Mg 0.34016 0.2725 0.65 0.0
C391 C 0.35602 0.24458 0.63803 0.0
O392 O 0.3456 0.24794 0.62715 0.0
C393 C 0.32804 0.2951 0.67318 0.0
O394 O 0.32761 0.30334 0.66013 0.0
C395 C 0.36125 0.29993 0.64644 0.0
O396 O 0.36146 0.29721 0.66161 0.0
O397 O 0.35261 0.29143 0.63761 0.0
O398 O 0.35674 0.25321 0.65021 0.0
O399 O 0.3182 0.26126 0.64274 0.0
C400 C 0.3048 0.26697 0.64606 0.0
O401 O 0.30374 0.28188 0.64984 0.0
O402 O 0.33369 0.28128 0.67293 0.0
Mg403 Mg 0.51913 0.42186 0.60662 0.0
C404 C 0.49389 0.39536 0.60568 0.0
O405 O 0.50309 0.38905 0.59503 0.0
C406 C 0.54041 0.43112 0.58225 0.0
O407 O 0.54802 0.43243 0.59561 0.0
C408 C 0.53701 0.39551 0.62211 0.0
O409 O 0.52256 0.39043 0.6235 0.0
O410 O 0.53928 0.40936 0.61694 0.0
O411 O 0.49755 0.40855 0.6116 0.0
O412 O 0.51373 0.44632 0.6122 0.0
C413 C 0.49972 0.44949 0.608 0.0
O414 O 0.49073 0.43791 0.60323 0.0
O415 O 0.52652 0.42557 0.58245 0.0
Mg416 Mg 0.84956 0.66531 0.76358 0.0
C417 C 0.86506 0.64726 0.73811 0.0
O418 O 0.8766 0.65021 0.74793 0.0
C419 C 0.82625 0.67492 0.7869 0.0
O420 O 0.83902 0.67246 0.79519 0.0
C421 C 0.87071 0.6481 0.78957 0.0
O422 O 0.88188 0.65861 0.78788 0.0
O423 O 0.85823 0.64917 0.78147 0.0
O424 O 0.85139 0.6524 0.74142 0.0
O425 O 0.85797 0.68921 0.76024 0.0
C426 C 0.86 0.69418 0.74629 0.0
O427 O 0.86194 0.68394 0.73494 0.0
O428 O 0.82639 0.67171 0.77227 0.0
Mg429 Mg 0.91008 0.90253 0.48505 0.0
C430 C 0.88378 0.89239 0.50672 0.0
O431 O 0.88068 0.88334 0.49462 0.0
C432 C 0.91192 0.93884 0.47538 0.0
O433 O 0.9005 0.94272 0.48498 0.0
C434 C 0.88586 0.89955 0.46229 0.0
O435 O 0.88406 0.91283 0.46996 0.0
O436 O 0.89742 0.89078 0.46604 0.0
O437 O 0.89491 0.90232 0.50578 0.0
O438 O 0.93367 0.89768 0.4938 0.0
C439 C 0.9358 0.90732 0.50508 0.0
O440 O 0.92386 0.91597 0.50964 0.0
O441 O 0.91625 0.92463 0.47424 0.0
Mg442 Mg 0.15905 0.84149 0.75678 0.0
C443 C 0.14452 0.86538 0.73576 0.0
O444 O 0.13386 0.86343 0.74672 0.0
C445 C 0.18083 0.82811 0.78003 0.0
O446 O 0.16732 0.82928 0.78737 0.0
C447 C 0.13521 0.85448 0.78249 0.0
O448 O 0.12363 0.84639 0.7763 0.0
O449 O 0.14885 0.85368 0.77658 0.0
O450 O 0.15747 0.8579 0.7369 0.0
O451 O 0.14885 0.82013 0.74746 0.0
C452 C 0.14979 0.80689 0.75431 0.0
O453 O 0.15296 0.80643 0.76939 0.0
O454 O 0.18186 0.83352 0.76607 0.0
Mg455 Mg 0.08969 0.61103 0.48224 0.0
C456 C 0.11102 0.60463 0.51134 0.0
O457 O 0.10688 0.58984 0.50972 0.0
C458 C 0.07673 0.57813 0.47705 0.0
O459 O 0.06882 0.58126 0.4899 0.0
C460 C 0.11511 0.61417 0.46227 0.0
O461 O 0.11711 0.60252 0.47221 0.0
O462 O 0.10246 0.62216 0.46318 0.0
O463 O 0.10564 0.61483 0.50189 0.0
O464 O 0.0656 0.61589 0.48967 0.0
C465 C 0.06356 0.61372 0.50434 0.0
O466 O 0.076 0.61297 0.51339 0.0
O467 O 0.08734 0.58756 0.47251 0.0
Mg468 Mg 0.84826 0.34087 0.73393 0.0
C469 C 0.8608 0.35506 0.76316 0.0
O470 O 0.86977 0.34263 0.76142 0.0
C471 C 0.82561 0.32756 0.71184 0.0
O472 O 0.8394 0.32533 0.70531 0.0
C473 C 0.86797 0.35416 0.70359 0.0
O474 O 0.8745 0.34056 0.70033 0.0
O475 O 0.85884 0.35538 0.71536 0.0
O476 O 0.84962 0.35741 0.75347 0.0
O477 O 0.85552 0.31881 0.74536 0.0
C478 C 0.85588 0.30478 0.74021 0.0
O479 O 0.85481 0.30224 0.72504 0.0
O480 O 0.82503 0.33496 0.72484 0.0
Mg481 Mg 0.58857 0.90673 0.51953 0.0
C482 C 0.60016 0.89688 0.48682 0.0
O483 O 0.58561 0.892 0.48542 0.0
C484 C 0.58549 0.93453 0.54221 0.0
O485 O 0.59254 0.92502 0.55209 0.0
C486 C 0.61443 0.89701 0.53893 0.0
O487 O 0.62019 0.90574 0.5276 0.0
O488 O 0.59971 0.89433 0.53905 0.0
O489 O 0.60444 0.90389 0.49933 0.0
O490 O 0.56472 0.90228 0.51131 0.0
C491 C 0.56198 0.91335 0.50159 0.0
O492 O 0.57362 0.92277 0.49785 0.0
O493 O 0.5842 0.93061 0.52785 0.0
Mg494 Mg 0.1595 0.16195 0.73915 0.0
C495 C 0.14941 0.14675 0.76936 0.0
O496 O 0.14476 0.1613 0.77156 0.0
C497 C 0.18063 0.17852 0.71901 0.0
O498 O 0.16641 0.18408 0.71675 0.0
C499 C 0.13652 0.14305 0.72055 0.0
O500 O 0.13416 0.13724 0.73464 0.0
O501 O 0.14508 0.15521 0.71914 0.0
O502 O 0.15703 0.14335 0.75691 0.0
O503 O 0.15653 0.18387 0.75177 0.0
C504 C 0.15051 0.19724 0.74899 0.0
O505 O 0.14221 0.19948 0.73617 0.0
O506 O 0.18228 0.16697 0.72842 0.0
Mg507 Mg 0.4207 0.61233 0.52133 0.0
C508 C 0.40017 0.60753 0.49108 0.0
O509 O 0.40354 0.59255 0.49262 0.0
C510 C 0.42449 0.58371 0.54262 0.0
O511 O 0.41825 0.59322 0.553 0.0
C512 C 0.39496 0.6157 0.5415 0.0
O513 O 0.39195 0.60496 0.53083 0.0
O514 O 0.40811 0.62279 0.54092 0.0
O515 O 0.40545 0.6173 0.50106 0.0
O516 O 0.44457 0.61804 0.51401 0.0
C517 C 0.44683 0.60925 0.50209 0.0
O518 O 0.43491 0.60106 0.4968 0.0
O519 O 0.42542 0.58797 0.52829 0.0
Mg520 Mg 0.76605 0.85253 0.66398 0.0
C521 C 0.73554 0.86563 0.65176 0.0
O522 O 0.73856 0.87587 0.6629 0.0
C523 C 0.78838 0.82949 0.67599 0.0
O524 O 0.79565 0.84301 0.67726 0.0
C525 C 0.79678 0.86972 0.64992 0.0
O526 O 0.80279 0.87183 0.66396 0.0
O527 O 0.78332 0.86343 0.64842 0.0
O528 O 0.74474 0.85399 0.64976 0.0
O529 O 0.76034 0.86007 0.68776 0.0
C530 C 0.7472 0.85439 0.69212 0.0
O531 O 0.73862 0.84676 0.68184 0.0
O532 O 0.77485 0.82915 0.66963 0.0
Mg533 Mg 0.75903 0.15942 0.84129 0.0
C534 C 0.73055 0.14744 0.85727 0.0
O535 O 0.73108 0.13924 0.84422 0.0
C536 C 0.779 0.1803 0.82285 0.0
O537 O 0.77858 0.16674 0.81554 0.0
C538 C 0.7908 0.14588 0.85057 0.0
O539 O 0.79593 0.15866 0.84365 0.0
O540 O 0.77629 0.14244 0.84969 0.0
O541 O 0.74088 0.15807 0.85956 0.0
O542 O 0.74594 0.15549 0.81977 0.0
C543 C 0.74914 0.14831 0.8071 0.0
O544 O 0.76209 0.13999 0.80604 0.0
O545 O 0.77141 0.18158 0.83573 0.0
Mg546 Mg 0.40127 0.99713 0.41915 0.0
C547 C 0.38899 0.01374 0.44753 0.0
O548 O 0.38611 0.02474 0.43712 0.0
C549 C 0.38255 0.96944 0.40247 0.0
O550 O 0.37213 0.96967 0.41384 0.0
C551 C 0.42356 0.97612 0.43175 0.0
O552 O 0.40962 0.96956 0.43267 0.0
O553 O 0.42467 0.98959 0.42533 0.0
O554 O 0.39183 0.99989 0.44268 0.0
O555 O 0.39874 0.01909 0.40656 0.0
C556 C 0.38718 0.01949 0.3971 0.0
O557 O 0.37834 0.00696 0.39553 0.0
O558 O 0.3941 0.97885 0.40282 0.0
Mg559 Mg 0.24664 0.34591 0.84286 0.0
C560 C 0.27245 0.36181 0.8595 0.0
O561 O 0.26537 0.37375 0.85276 0.0
C562 C 0.22508 0.32446 0.83005 0.0
O563 O 0.21958 0.33878 0.8282 0.0
C564 C 0.2202 0.36704 0.85761 0.0
O565 O 0.22354 0.37824 0.84753 0.0
O566 O 0.22784 0.35427 0.85738 0.0
O567 O 0.26745 0.34793 0.85717 0.0
O568 O 0.2497 0.35546 0.81954 0.0
C569 C 0.26339 0.35791 0.81418 0.0
O570 O 0.27528 0.35852 0.82395 0.0
O571 O 0.23818 0.32272 0.83703 0.0
Mg572 Mg 0.09494 0.00755 0.90615 0.0
C573 C 0.09061 0.98757 0.93214 0.0
O574 O 0.08143 0.98328 0.9205 0.0
C575 C 0.1109 0.03851 0.89313 0.0
O576 O 0.10774 0.0453 0.9066 0.0
C577 C 0.07264 0.02801 0.92112 0.0
O578 O 0.08629 0.03129 0.92749 0.0
O579 O 0.07204 0.01774 0.91027 0.0
O580 O 0.10008 0.99896 0.92986 0.0
O581 O 0.09566 0.98651 0.89192 0.0
C582 C 0.10936 0.98066 0.89086 0.0
O583 O 0.121 0.98772 0.89814 0.0
O584 O 0.10811 0.02394 0.89137 0.0
Mg585 Mg 0.74006 0.1612 0.16151 0.0
C586 C 0.76604 0.14709 0.14423 0.0
O587 O 0.7605 0.13585 0.15324 0.0
C588 C 0.71638 0.18342 0.17421 0.0
O589 O 0.70868 0.1701 0.17309 0.0
C590 C 0.71033 0.14047 0.15063 0.0
O591 O 0.70703 0.13678 0.16524 0.0
O592 O 0.72225 0.14893 0.14761 0.0
O593 O 0.75984 0.16071 0.14518 0.0
O594 O 0.75051 0.15243 0.18324 0.0
C595 C 0.74429 0.15504 0.19657 0.0
O596 O 0.72945 0.1591 0.19719 0.0
O597 O 0.73033 0.18401 0.16883 0.0
Mg598 Mg 0.40309 0.00833 0.09507 0.0
C599 C 0.4018 0.98648 0.06811 0.0
O600 O 0.40522 0.97709 0.07985 0.0
C601 C 0.38178 0.02728 0.11742 0.0
O602 O 0.37541 0.01363 0.12066 0.0
C603 C 0.42495 0.02941 0.08235 0.0
O604 O 0.41089 0.03306 0.07712 0.0
O605 O 0.42627 0.0179 0.09182 0.0
O606 O 0.39853 1.00081 0.07096 0.0
O607 O 0.40089 0.98822 0.11045 0.0
C608 C 0.38761 0.98138 0.11044 0.0
O609 O 0.37643 0.98667 0.10119 0.0
O610 O 0.39176 0.02835 0.10636 0.0
Mg611 Mg 0.60528 0.48705 0.09257 0.0
C612 C 0.60672 0.50712 0.06521 0.0
O613 O 0.60178 0.51597 0.07682 0.0
C614 C 0.62163 0.45611 0.10705 0.0
O615 O 0.62441 0.45022 0.09308 0.0
C616 C 0.5827 0.4646 0.08171 0.0
O617 O 0.59645 0.45824 0.079 0.0
O618 O 0.58206 0.47796 0.08837 0.0
O619 O 0.6114 0.49323 0.06835 0.0
O620 O 0.60642 0.50821 0.10668 0.0
C621 C 0.6198 0.51134 0.11254 0.0
O622 O 0.63153 0.50164 0.10999 0.0
O623 O 0.6156 0.46971 0.10835 0.0
H624 H 0.2571 0.33348 0.20654 0.0
H625 H 0.24724 0.32224 0.23116 0.0
H626 H 0.20713 0.35309 0.22914 0.0
H627 H 0.21664 0.3639 0.20408 0.0
H628 H 0.22546 0.34869 0.26075 0.0
H629 H 0.19881 0.32147 0.21764 0.0
H630 H 0.19742 0.30553 0.19351 0.0
H631 H 0.22472 0.26926 0.21555 0.0
H632 H 0.22644 0.2851 0.23976 0.0
H633 H 0.16966 0.31753 0.313 0.0
H634 H 0.18474 0.32932 0.29169 0.0
H635 H 0.20846 0.2851 0.28409 0.0
H636 H 0.19268 0.27306 0.30488 0.0
H637 H 0.20148 0.29567 0.25792 0.0
H638 H 0.227 0.3197 0.30124 0.0
H639 H 0.23059 0.33444 0.32591 0.0
H640 H 0.20915 0.37509 0.30508 0.0
H641 H 0.20529 0.36055 0.28033 0.0
C642 C 0.24641 0.33815 0.2116 0.0
C643 C 0.23772 0.34974 0.20366 0.0
C644 C 0.24073 0.33163 0.22553 0.0
C645 C 0.22647 0.33684 0.23186 0.0
C646 C 0.21818 0.34897 0.22438 0.0
C647 C 0.22362 0.35518 0.21018 0.0
C648 C 0.21981 0.32912 0.24587 0.0
C649 C 0.22007 0.33715 0.26021 0.0
C650 C 0.21349 0.3138 0.24517 0.0
C651 C 0.213 0.3046 0.2304 0.0
C652 C 0.20475 0.31022 0.21725 0.0
C653 C 0.20382 0.30116 0.20359 0.0
C654 C 0.21103 0.28642 0.20297 0.0
C655 C 0.21918 0.2807 0.21602 0.0
C656 C 0.22014 0.28972 0.22971 0.0
C657 C 0.17804 0.31032 0.3067 0.0
C658 C 0.17987 0.29435 0.31041 0.0
C659 C 0.18685 0.31713 0.29467 0.0
C660 C 0.19803 0.30823 0.28643 0.0
C661 C 0.19993 0.29225 0.29025 0.0
C662 C 0.19084 0.28534 0.30205 0.0
C663 C 0.2068 0.31528 0.27307 0.0
C664 C 0.207 0.30712 0.25873 0.0
C665 C 0.21391 0.33034 0.27392 0.0
C666 C 0.21572 0.33897 0.28897 0.0
C667 C 0.22289 0.33172 0.30197 0.0
C668 C 0.22502 0.34006 0.31596 0.0
C669 C 0.22007 0.35568 0.31707 0.0
C670 C 0.21297 0.36299 0.30421 0.0
C671 C 0.21082 0.35471 0.29019 0.0
H672 H 0.22176 0.36212 0.3279 0.0
H673 H 0.21025 0.2794 0.1924 0.0
H674 H 0.60424 0.5372 0.05544 0.0
H675 H 0.59308 0.5467 0.0309 0.0
H676 H 0.58991 0.49915 0.01372 0.0
H677 H 0.60118 0.48944 0.03857 0.0
H678 H 0.59871 0.52051 0.99034 0.0
H679 H 0.55763 0.51491 0.0269 0.0
H680 H 0.54295 0.51698 0.05175 0.0
H681 H 0.5439 0.56731 0.04844 0.0
H682 H 0.55881 0.56557 0.02368 0.0
H683 H 0.53777 0.55143 0.93588 0.0
H684 H 0.54989 0.53544 0.95673 0.0
H685 H 0.57245 0.57684 0.9752 0.0
H686 H 0.56091 0.5927 0.95395 0.0
H687 H 0.55158 0.55423 0.99656 0.0
H688 H 0.59516 0.5577 0.95933 0.0
H689 H 0.60865 0.55331 0.93411 0.0
H690 H 0.60068 0.50366 0.93816 0.0
H691 H 0.58684 0.5078 0.96326 0.0
C692 C 0.60148 0.52874 0.04635 0.0
C693 C 0.60354 0.51256 0.04898 0.0
C694 C 0.59498 0.53419 0.03235 0.0
C695 C 0.5903 0.52363 0.02063 0.0
C696 C 0.59333 0.5075 0.02269 0.0
C697 C 0.59988 0.50198 0.03682 0.0
C698 C 0.58174 0.52969 0.00665 0.0
C699 C 0.58824 0.52765 0.99165 0.0
C700 C 0.56801 0.53894 0.00832 0.0
C701 C 0.55948 0.5401 0.02349 0.0
C702 C 0.55488 0.52643 0.03156 0.0
C703 C 0.54647 0.52754 0.04561 0.0
C704 C 0.54252 0.54227 0.05169 0.0
C705 C 0.54699 0.55591 0.04373 0.0
C706 C 0.55541 0.55487 0.02968 0.0
C707 C 0.5452 0.55709 0.94452 0.0
C708 C 0.54821 0.57331 0.94359 0.0
C709 C 0.55224 0.54794 0.95627 0.0
C710 C 0.56218 0.55495 0.96738 0.0
C711 C 0.56492 0.57121 0.96663 0.0
C712 C 0.55823 0.58028 0.95463 0.0
C713 C 0.56894 0.5456 0.98042 0.0
C714 C 0.56197 0.54696 0.99524 0.0
C715 C 0.58198 0.53546 0.97847 0.0
C716 C 0.58966 0.53311 0.96302 0.0
C717 C 0.59598 0.54589 0.95469 0.0
C718 C 0.60378 0.54343 0.94045 0.0
C719 C 0.60545 0.52823 0.93449 0.0
C720 C 0.59931 0.51544 0.94275 0.0
C721 C 0.59148 0.51784 0.95697 0.0
H722 H 0.61156 0.52635 0.92351 0.0
H723 H 0.53597 0.54311 0.06254 0.0
H724 H 0.79675 0.21167 0.32427 0.0
H725 H 0.78529 0.19716 0.30251 0.0
H726 H 0.82709 0.2052 0.27502 0.0
H727 H 0.8384 0.22045 0.29674 0.0
H728 H 0.8029 0.20984 0.25773 0.0
H729 H 0.81692 0.16784 0.29276 0.0
H730 H 0.8177 0.15309 0.3177 0.0
H731 H 0.76746 0.14928 0.31734 0.0
H732 H 0.76634 0.16418 0.29252 0.0
H733 H 0.77626 0.15876 0.19728 0.0
H734 H 0.79207 0.1686 0.21916 0.0
H735 H 0.75119 0.16826 0.24899 0.0
H736 H 0.73527 0.15849 0.22717 0.0
H737 H 0.77719 0.15801 0.26452 0.0
H738 H 0.76271 0.20152 0.23163 0.0
H739 H 0.7609 0.21778 0.20772 0.0
H740 H 0.81119 0.21976 0.20497 0.0
H741 H 0.8133 0.20327 0.22871 0.0
C742 C 0.80354 0.21034 0.3136 0.0
C743 C 0.8185 0.21717 0.31221 0.0
C744 C 0.79702 0.20187 0.3012 0.0
C745 C 0.80546 0.19966 0.28721 0.0
C746 C 0.82038 0.20661 0.28573 0.0
C747 C 0.82682 0.21537 0.2981 0.0
C748 C 0.79825 0.19092 0.27387 0.0
C749 C 0.79763 0.19832 0.25915 0.0
C750 C 0.79088 0.1761 0.2758 0.0
C751 C 0.79155 0.16723 0.29081 0.0
C752 C 0.80603 0.16396 0.29806 0.0
C753 C 0.80653 0.15555 0.31217 0.0
C754 C 0.79264 0.15028 0.31911 0.0
C755 C 0.77821 0.15338 0.31195 0.0
C756 C 0.77764 0.16179 0.29786 0.0
C757 C 0.77068 0.16044 0.20858 0.0
C758 C 0.75446 0.15788 0.21045 0.0
C759 C 0.77973 0.16622 0.22104 0.0
C760 C 0.77276 0.16942 0.23563 0.0
C761 C 0.7568 0.16595 0.23781 0.0
C762 C 0.74772 0.16033 0.22532 0.0
C763 C 0.78187 0.17696 0.24848 0.0
C764 C 0.78277 0.16938 0.26308 0.0
C765 C 0.78943 0.19166 0.2465 0.0
C766 C 0.78816 0.20092 0.23179 0.0
C767 C 0.77338 0.20519 0.22578 0.0
C768 C 0.7723 0.21451 0.21229 0.0
C769 C 0.78592 0.21974 0.20479 0.0
C770 C 0.80065 0.21565 0.21075 0.0
C771 C 0.80179 0.2063 0.2242 0.0
H772 H 0.78506 0.22702 0.1944 0.0
H773 H 0.79306 0.14376 0.33002 0.0
H774 H 0.43777 0.90146 0.94992 0.0
H775 H 0.42585 0.91671 0.97118 0.0
H776 H 0.4606 0.95305 0.96452 0.0
H777 H 0.47308 0.93736 0.94408 0.0
H778 H 0.45782 0.9487 0.99307 0.0
H779 H 0.41867 0.95624 0.95305 0.0
H780 H 0.3993 0.94844 0.93296 0.0
H781 H 0.37367 0.92219 0.96755 0.0
H782 H 0.39293 0.92974 0.98781 0.0
H783 H 0.41681 0.00232 0.04461 0.0
H784 H 0.42693 0.99107 0.01999 0.0
H785 H 0.40498 0.94682 0.03117 0.0
H786 H 0.39534 0.95781 0.05595 0.0
H787 H 0.40068 0.95769 0.99907 0.0
H788 H 0.44065 0.94684 0.03734 0.0
H789 H 0.46263 0.94876 0.05607 0.0
H790 H 0.48752 0.97883 0.02415 0.0
H791 H 0.46557 0.97727 0.00531 0.0
C792 C 0.44294 0.91262 0.95319 0.0
C793 C 0.45649 0.9181 0.94557 0.0
C794 C 0.43595 0.92148 0.96513 0.0
C795 C 0.44205 0.93627 0.96927 0.0
C796 C 0.45561 0.94171 0.96159 0.0
C797 C 0.46284 0.93267 0.94999 0.0
C798 C 0.43514 0.94555 0.9824 0.0
C799 C 0.44535 0.95107 0.99408 0.0
C800 C 0.4188 0.94817 0.98412 0.0
C801 C 0.40731 0.94347 0.97191 0.0
C802 C 0.40897 0.94871 0.95634 0.0
C803 C 0.39798 0.94437 0.94493 0.0
C804 C 0.38528 0.9348 0.94897 0.0
C805 C 0.38351 0.92959 0.96443 0.0
C806 C 0.39444 0.93393 0.97588 0.0
C807 C 0.41384 0.99032 0.04159 0.0
C808 C 0.40511 0.98097 0.05203 0.0
C809 C 0.41979 0.98386 0.02766 0.0
C810 C 0.41677 0.96809 0.02385 0.0
C811 C 0.40744 0.959 0.03392 0.0
C812 C 0.40186 0.96531 0.048 0.0
C813 C 0.42345 0.96088 0.0095 0.0
C814 C 0.41318 0.95572 0.9977 0.0
C815 C 0.43977 0.9586 0.0076 0.0
C816 C 0.45135 0.96215 0.02005 0.0
C817 C 0.45057 0.95428 0.03453 0.0
C818 C 0.46311 0.95514 0.04509 0.0
C819 C 0.4765 0.96377 0.04123 0.0
C820 C 0.47717 0.97206 0.02707 0.0
C821 C 0.46465 0.97127 0.0165 0.0
H822 H 0.4864 0.96395 0.04919 0.0
H823 H 0.37679 0.93145 0.94013 0.0
H824 H 0.25561 0.63 0.27563 0.0
H825 H 0.24078 0.64372 0.25528 0.0
H826 H 0.23089 0.68139 0.28759 0.0
H827 H 0.24586 0.66771 0.30818 0.0
H828 H 0.20434 0.67221 0.2685 0.0
H829 H 0.25934 0.68505 0.2626 0.0
H830 H 0.2872 0.6779 0.25959 0.0
H831 H 0.27694 0.6552 0.21575 0.0
H832 H 0.24889 0.66166 0.21879 0.0
H833 H 0.17778 0.72722 0.21126 0.0
H834 H 0.19143 0.71441 0.23319 0.0
H835 H 0.21217 0.68123 0.20095 0.0
H836 H 0.19924 0.69444 0.17909 0.0
H837 H 0.23327 0.68865 0.22066 0.0
H838 H 0.18017 0.67149 0.22621 0.0
H839 H 0.1516 0.676 0.2274 0.0
H840 H 0.15746 0.70374 0.26911 0.0
H841 H 0.18612 0.6995 0.26807 0.0
C842 C 0.25026 0.64118 0.27852 0.0
C843 C 0.25208 0.64776 0.2936 0.0
C844 C 0.24173 0.64901 0.26681 0.0
C845 C 0.23476 0.66366 0.26983 0.0
C846 C 0.23614 0.6701 0.28498 0.0
C847 C 0.2448 0.6623 0.29671 0.0
C848 C 0.22682 0.67257 0.25693 0.0
C849 C 0.21071 0.67599 0.25814 0.0
C850 C 0.23497 0.67709 0.24312 0.0
C851 C 0.25195 0.6737 0.24102 0.0
C852 C 0.26297 0.67838 0.2524 0.0
C853 C 0.2788 0.67441 0.2507 0.0
C854 C 0.28384 0.6661 0.23749 0.0
C855 C 0.27303 0.66166 0.22598 0.0
C856 C 0.25715 0.66542 0.2277 0.0
C857 C 0.18516 0.71712 0.20892 0.0
C858 C 0.18733 0.71179 0.19347 0.0
C859 C 0.19297 0.70977 0.22146 0.0
C860 C 0.20274 0.69663 0.21886 0.0
C861 C 0.20481 0.69133 0.20338 0.0
C862 C 0.19729 0.69885 0.19087 0.0
C863 C 0.21074 0.68829 0.23216 0.0
C864 C 0.22686 0.68494 0.23102 0.0
C865 C 0.20253 0.68343 0.24581 0.0
C866 C 0.18527 0.68523 0.24704 0.0
C867 C 0.17535 0.67852 0.23566 0.0
C868 C 0.15915 0.68105 0.23628 0.0
C869 C 0.15272 0.69017 0.24831 0.0
C870 C 0.16247 0.69667 0.25981 0.0
C871 C 0.17869 0.69417 0.25924 0.0
H872 H 0.14019 0.69219 0.24873 0.0
H873 H 0.29611 0.66311 0.23617 0.0
H874 H 0.95936 0.56764 0.06518 0.0
H875 H 0.94304 0.55319 0.04635 0.0
H876 H 0.98164 0.55206 0.01366 0.0
H877 H 0.99828 0.56597 0.03275 0.0
H878 H 0.94915 0.56479 0.00337 0.0
H879 H 0.97626 0.52113 0.02732 0.0
H880 H 0.98489 0.50395 0.04898 0.0
H881 H 0.93687 0.49387 0.06048 0.0
H882 H 0.92794 0.51127 0.03909 0.0
H883 H 0.92277 0.51728 0.94177 0.0
H884 H 0.93671 0.53073 0.96259 0.0
H885 H 0.9053 0.5106 0.9969 0.0
H886 H 0.89182 0.49608 0.97589 0.0
H887 H 0.93274 0.50908 0.00806 0.0
H888 H 0.90514 0.5519 0.98432 0.0
H889 H 0.89585 0.56958 0.96331 0.0
H890 H 0.94342 0.58213 0.95243 0.0
H891 H 0.95302 0.56436 0.97318 0.0
C892 C 0.96434 0.5644 0.05392 0.0
C893 C 0.98001 0.56813 0.05028 0.0
C894 C 0.95506 0.556 0.04328 0.0
C895 C 0.96119 0.55149 0.0287 0.0
C896 C 0.97676 0.55537 0.02493 0.0
C897 C 0.9862 0.56337 0.03576 0.0
C898 C 0.95103 0.54363 0.01697 0.0
C899 C 0.94567 0.55256 0.00425 0.0
C900 C 0.94604 0.52786 0.01858 0.0
C901 C 0.95142 0.51776 0.03176 0.0
C902 C 0.96752 0.5155 0.03464 0.0
C903 C 0.97248 0.50565 0.04683 0.0
C904 C 0.96143 0.49789 0.05615 0.0
C905 C 0.94541 0.49994 0.05329 0.0
C906 C 0.9404 0.50981 0.04114 0.0
C907 C 0.91857 0.51589 0.9537 0.0
C908 C 0.90598 0.50576 0.95713 0.0
C909 C 0.92657 0.5237 0.96567 0.0
C910 C 0.92189 0.5221 0.9814 0.0
C911 C 0.90914 0.51215 0.98487 0.0
C912 C 0.90135 0.50393 0.97286 0.0
C913 C 0.9309 0.53019 0.99412 0.0
C914 C 0.93603 0.52136 0.00714 0.0
C915 C 0.93556 0.54616 0.99291 0.0
C916 C 0.92979 0.55668 0.98024 0.0
C917 C 0.91363 0.55832 0.97735 0.0
C918 C 0.90831 0.56838 0.9655 0.0
C919 C 0.91904 0.57695 0.95652 0.0
C920 C 0.93512 0.57548 0.95938 0.0
C921 C 0.9405 0.56542 0.97119 0.0
H922 H 0.91489 0.58475 0.94737 0.0
H923 H 0.96529 0.49023 0.06554 0.0
H924 H 0.82046 0.76999 0.21033 0.0
H925 H 0.80473 0.78303 0.23084 0.0
H926 H 0.80097 0.82434 0.20175 0.0
H927 H 0.8163 0.81138 0.18127 0.0
H928 H 0.81047 0.83015 0.23334 0.0
H929 H 0.76993 0.80363 0.20422 0.0
H930 H 0.75671 0.78083 0.19217 0.0
H931 H 0.75365 0.75843 0.23726 0.0
H932 H 0.76717 0.78096 0.2495 0.0
H933 H 0.76065 0.87328 0.28352 0.0
H934 H 0.77124 0.86093 0.25972 0.0
H935 H 0.76102 0.81513 0.27912 0.0
H936 H 0.74913 0.82759 0.30203 0.0
H937 H 0.75812 0.81176 0.25089 0.0
H938 H 0.80038 0.83708 0.27997 0.0
H939 H 0.8148 0.85917 0.292 0.0
H940 H 0.81613 0.88289 0.24749 0.0
H941 H 0.80161 0.86101 0.23524 0.0
C942 C 0.81641 0.78191 0.20843 0.0
C943 C 0.81974 0.78971 0.19426 0.0
C944 C 0.80729 0.78927 0.22005 0.0
C945 C 0.80159 0.80463 0.21776 0.0
C946 C 0.80519 0.81249 0.20375 0.0
C947 C 0.81401 0.80507 0.19208 0.0
C948 C 0.7924 0.81285 0.23014 0.0
C949 C 0.79895 0.82623 0.23711 0.0
C950 C 0.77749 0.8076 0.23518 0.0
C951 C 0.76964 0.79393 0.22777 0.0
C952 C 0.76659 0.79377 0.21154 0.0
C953 C 0.75902 0.7809 0.20467 0.0
C954 C 0.75437 0.76817 0.21393 0.0
C955 C 0.75727 0.76828 0.23009 0.0
C956 C 0.76487 0.7811 0.237 0.0
C957 C 0.76033 0.8606 0.28241 0.0
C958 C 0.75401 0.85137 0.29449 0.0
C959 C 0.76664 0.85348 0.26894 0.0
C960 C 0.76759 0.83696 0.26771 0.0
C961 C 0.76062 0.82784 0.27961 0.0
C962 C 0.75379 0.83497 0.29276 0.0
C963 C 0.7763 0.82908 0.25453 0.0
C964 C 0.76966 0.81574 0.24728 0.0
C965 C 0.79128 0.83427 0.24932 0.0
C966 C 0.79977 0.84751 0.25676 0.0
C967 C 0.80366 0.84706 0.27279 0.0
C968 C 0.81186 0.85953 0.27963 0.0
C969 C 0.81634 0.87244 0.27052 0.0
C970 C 0.81263 0.8729 0.25454 0.0
C971 C 0.80442 0.86048 0.24765 0.0
H972 H 0.82271 0.88207 0.27584 0.0
H973 H 0.74851 0.75823 0.20859 0.0
H974 H 0.09473 0.99986 0.96194 0.0
H975 H 0.08537 0.98805 0.98669 0.0
H976 H 0.07132 0.94643 0.96143 0.0
H977 H 0.08045 0.95805 0.93701 0.0
H978 H 0.04763 0.95741 0.97913 0.0
H979 H 0.10326 0.94618 0.9858 0.0
H980 H 0.13122 0.95333 0.98812 0.0
H981 H 0.12065 0.98286 0.02762 0.0
H982 H 0.09259 0.97597 0.02543 0.0
H983 H 0.03354 0.89731 0.03474 0.0
H984 H 0.04709 0.91249 0.0142 0.0
H985 H 0.0506 0.95209 0.04559 0.0
H986 H 0.03672 0.93724 0.06586 0.0
H987 H 0.07871 0.94587 0.02706 0.0
H988 H 0.0234 0.95178 0.02315 0.0
H989 H 0.99673 0.9409 0.02211 0.0
H990 H 0.00593 0.92177 0.97642 0.0
H991 H 0.03327 0.93116 0.97784 0.0
C992 C 0.09001 0.98804 0.96181 0.0
C993 C 0.08828 0.97988 0.94756 0.0
C994 C 0.08457 0.98135 0.97591 0.0
C995 C 0.07745 0.9664 0.97587 0.0
C996 C 0.07654 0.95803 0.96174 0.0
C997 C 0.08187 0.96467 0.94779 0.0
C998 C 0.0703 0.95944 0.99022 0.0
C999 C 0.05446 0.95481 0.98957 0.0
C1000 C 0.07903 0.9565 0.00405 0.0
C1001 C 0.09583 0.96071 0.00534 0.0
C1002 C 0.10689 0.95429 0.99489 0.0
C1003 C 0.12275 0.95827 0.99621 0.0
C1004 C 0.1277 0.96858 0.00798 0.0
C1005 C 0.1168 0.9749 0.01849 0.0
C1006 C 0.10092 0.97095 0.01723 0.0
C1007 C 0.03728 0.90921 0.03722 0.0
C1008 C 0.03387 0.91619 0.05175 0.0
C1009 C 0.04507 0.91783 0.02557 0.0
C1010 C 0.04984 0.9334 0.02843 0.0
C1011 C 0.04708 0.9401 0.04318 0.0
C1012 C 0.03898 0.93165 0.05466 0.0
C1013 C 0.05635 0.94319 0.01558 0.0
C1014 C 0.07188 0.94856 0.01664 0.0
C1015 C 0.04733 0.94678 0.00209 0.0
C1016 C 0.03058 0.94196 1.00074 0.0
C1017 C 0.0199 0.94499 0.01299 0.0
C1018 C 0.00464 0.93905 0.01236 0.0
C1019 C 0.99957 0.93077 0.99915 0.0
C1020 C 0.00987 0.92821 0.98665 0.0
C1021 C 0.02533 0.93368 0.98744 0.0
H1022 H 0.98769 0.92633 0.99863 0.0
H1023 H 0.13999 0.97164 0.00899 0.0
H1024 H 0.2929 0.17244 0.27782 0.0
H1025 H 0.27044 0.18422 0.2916 0.0
H1026 H 0.30215 0.21048 0.32108 0.0
H1027 H 0.32449 0.19892 0.30741 0.0
H1028 H 0.27711 0.19806 0.33787 0.0
H1029 H 0.28657 0.2293 0.29206 0.0
H1030 H 0.29125 0.23325 0.26374 0.0
H1031 H 0.24602 0.21364 0.25328 0.0
H1032 H 0.24114 0.20942 0.28156 0.0
H1033 H 0.22738 0.26617 0.35621 0.0
H1034 H 0.24881 0.24969 0.34595 0.0
H1035 H 0.21507 0.21549 0.3301 0.0
H1036 H 0.19374 0.23147 0.34091 0.0
H1037 H 0.24045 0.23096 0.30664 0.0
H1038 H 0.23164 0.20059 0.35428 0.0
H1039 H 0.22862 0.19749 0.38291 0.0
H1040 H 0.27443 0.21723 0.39015 0.0
H1041 H 0.27763 0.22063 0.36152 0.0
C1042 C 0.29504 0.1806 0.28734 0.0
C1043 C 0.31043 0.18486 0.29143 0.0
C1044 C 0.28224 0.18734 0.29517 0.0
C1045 C 0.28466 0.19829 0.3073 0.0
C1046 C 0.30002 0.20205 0.31178 0.0
C1047 C 0.31277 0.19549 0.30387 0.0
C1048 C 0.27127 0.20657 0.31476 0.0
C1049 C 0.26913 0.20528 0.33105 0.0
C1050 C 0.26089 0.21603 0.30587 0.0
C1051 C 0.26354 0.21893 0.2889 0.0
C1052 C 0.27765 0.22577 0.28371 0.0
C1053 C 0.28034 0.22807 0.26767 0.0
C1054 C 0.26895 0.22367 0.25671 0.0
C1055 C 0.25482 0.21703 0.26178 0.0
C1056 C 0.25208 0.21471 0.27782 0.0
C1057 C 0.22461 0.25494 0.35091 0.0
C1058 C 0.20895 0.24998 0.34958 0.0
C1059 C 0.23681 0.24561 0.34498 0.0
C1060 C 0.23346 0.23143 0.33724 0.0
C1061 C 0.21786 0.22636 0.33609 0.0
C1062 C 0.20573 0.23544 0.34241 0.0
C1063 C 0.24619 0.22227 0.32972 0.0
C1064 C 0.24831 0.22356 0.31341 0.0
C1065 C 0.25668 0.213 0.33863 0.0
C1066 C 0.25478 0.21106 0.3558 0.0
C1067 C 0.24099 0.20444 0.36199 0.0
C1068 C 0.23927 0.20258 0.37821 0.0
C1069 C 0.2513 0.20721 0.38835 0.0
C1070 C 0.2651 0.21368 0.38228 0.0
C1071 C 0.26688 0.21556 0.36606 0.0
H1072 H 0.24995 0.20576 0.40091 0.0
H1073 H 0.27106 0.22543 0.2443 0.0
H1074 H 0.50408 0.53133 0.89308 0.0
H1075 H 0.49363 0.50585 0.90242 0.0
H1076 H 0.47739 0.5282 0.94485 0.0
H1077 H 0.48735 0.55318 0.93576 0.0
H1078 H 0.49385 0.50019 0.95035 0.0
H1079 H 0.45225 0.52152 0.9166 0.0
H1080 H 0.44059 0.52994 0.89144 0.0
H1081 H 0.4505 0.48469 0.87146 0.0
H1082 H 0.46239 0.47608 0.89647 0.0
H1083 H 0.43241 0.4643 0.99078 0.0
H1084 H 0.44881 0.48185 0.97506 0.0
H1085 H 0.45173 0.4468 0.9386 0.0
H1086 H 0.4352 0.42924 0.95413 0.0
H1087 H 0.4468 0.47564 0.9264 0.0
H1088 H 0.48313 0.45251 0.9617 0.0
H1089 H 0.49321 0.44341 0.9873 0.0
H1090 H 0.49338 0.49088 0.00435 0.0
H1091 H 0.48311 0.50025 0.97892 0.0
C1092 C 0.49828 0.53071 0.90438 0.0
C1093 C 0.49646 0.5443 0.91361 0.0
C1094 C 0.49233 0.5162 0.90969 0.0
C1095 C 0.48479 0.51517 0.92437 0.0
C1096 C 0.48322 0.5287 0.93355 0.0
C1097 C 0.48887 0.54304 0.92823 0.0
C1098 C 0.47811 0.5003 0.93054 0.0
C1099 C 0.48363 0.49473 0.94507 0.0
C1100 C 0.46507 0.49288 0.92344 0.0
C1101 C 0.45846 0.49827 0.90829 0.0
C1102 C 0.45216 0.51346 0.90677 0.0
C1103 C 0.44544 0.51824 0.89256 0.0
C1104 C 0.44487 0.50788 0.87983 0.0
C1105 C 0.45101 0.49272 0.8813 0.0
C1106 C 0.45774 0.48789 0.89548 0.0
C1107 C 0.4364 0.46037 0.97936 0.0
C1108 C 0.43247 0.44536 0.97374 0.0
C1109 C 0.4459 0.47036 0.97044 0.0
C1110 C 0.45173 0.46551 0.95578 0.0
C1111 C 0.44745 0.45074 0.94992 0.0
C1112 C 0.43796 0.44074 0.95882 0.0
C1113 C 0.4621 0.47605 0.94655 0.0
C1114 C 0.45731 0.48074 0.93148 0.0
C1115 C 0.47588 0.48261 0.95312 0.0
C1116 C 0.48227 0.47707 0.9684 0.0
C1117 C 0.48524 0.461 0.97093 0.0
C1118 C 0.491 0.45579 0.98541 0.0
C1119 C 0.49392 0.46655 0.99745 0.0
C1120 C 0.49113 0.48255 0.99501 0.0
C1121 C 0.48536 0.48783 0.98055 0.0
H1122 H 0.49835 0.46249 0.00865 0.0
H1123 H 0.43962 0.51159 0.86886 0.0
H1124 H 0.79637 0.28831 0.36866 0.0
H1125 H 0.77086 0.29723 0.35836 0.0
H1126 H 0.77267 0.2613 0.32272 0.0
H1127 H 0.79766 0.25188 0.33339 0.0
H1128 H 0.76854 0.29746 0.31407 0.0
H1129 H 0.74838 0.25267 0.34222 0.0
H1130 H 0.74593 0.23591 0.36569 0.0
H1131 H 0.72578 0.2744 0.39131 0.0
H1132 H 0.72844 0.29151 0.36804 0.0
H1133 H 0.69645 0.31241 0.27748 0.0
H1134 H 0.71843 0.29841 0.28932 0.0
H1135 H 0.70747 0.3188 0.33441 0.0
H1136 H 0.68494 0.33234 0.32272 0.0
H1137 H 0.7161 0.28906 0.33811 0.0
H1138 H 0.73748 0.33419 0.31051 0.0
H1139 H 0.73892 0.35084 0.28681 0.0
H1140 H 0.75616 0.31167 0.26011 0.0
H1141 H 0.75471 0.29477 0.28365 0.0
C1142 C 0.79104 0.28209 0.35894 0.0
C1143 C 0.79871 0.26927 0.35199 0.0
C1144 C 0.77661 0.28721 0.35303 0.0
C1145 C 0.77003 0.27986 0.33983 0.0
C1146 C 0.7776 0.26698 0.33298 0.0
C1147 C 0.79173 0.26155 0.33918 0.0
C1148 C 0.75563 0.28618 0.33268 0.0
C1149 C 0.75704 0.2955 0.31919 0.0
C1150 C 0.74078 0.28372 0.33956 0.0
C1151 C 0.73882 0.27342 0.35346 0.0
C1152 C 0.74359 0.25761 0.35291 0.0
C1153 C 0.74214 0.24804 0.36617 0.0
C1154 C 0.73576 0.2541 0.38001 0.0
C1155 C 0.73075 0.26973 0.38059 0.0
C1156 C 0.73223 0.27938 0.36737 0.0
C1157 C 0.6988 0.31397 0.28989 0.0
C1158 C 0.68923 0.32363 0.29916 0.0
C1159 C 0.71127 0.30588 0.29667 0.0
C1160 C 0.71472 0.30772 0.3127 0.0
C1161 C 0.70501 0.31721 0.32203 0.0
C1162 C 0.69229 0.32504 0.31531 0.0
C1163 C 0.72896 0.30048 0.3195 0.0
C1164 C 0.72757 0.29102 0.33295 0.0
C1165 C 0.7439 0.30283 0.31261 0.0
C1166 C 0.74605 0.31326 0.29882 0.0
C1167 C 0.74171 0.32918 0.2996 0.0
C1168 C 0.74246 0.33864 0.2862 0.0
C1169 C 0.74765 0.33232 0.27197 0.0
C1170 C 0.75221 0.31656 0.27115 0.0
C1171 C 0.75148 0.30705 0.28454 0.0
H1172 H 0.74812 0.33963 0.26157 0.0
H1173 H 0.73465 0.24667 0.39027 0.0
H1174 H 0.5322 0.94449 0.91402 0.0
H1175 H 0.54297 0.96839 0.92526 0.0
H1176 H 0.49766 0.99075 0.92183 0.0
H1177 H 0.48666 0.96649 0.91034 0.0
H1178 H 0.52213 0.01125 0.91487 0.0
H1179 H 0.50837 0.9778 0.95648 0.0
H1180 H 0.50591 0.95375 0.97243 0.0
H1181 H 0.55604 0.9513 0.97704 0.0
H1182 H 0.55883 0.97519 0.96089 0.0
H1183 H 0.55449 0.0681 0.96993 0.0
H1184 H 0.53745 0.04868 0.9574 0.0
H1185 H 0.57709 0.01777 0.9513 0.0
H1186 H 0.59432 0.03729 0.96365 0.0
H1187 H 0.55051 0.00363 0.96521 0.0
H1188 H 0.56238 0.03819 0.92104 0.0
H1189 H 0.56228 0.06342 0.90678 0.0
H1190 H 0.51199 0.06516 0.90957 0.0
H1191 H 0.5118 0.04008 0.9241 0.0
C1192 C 0.52453 0.95455 0.91538 0.0
C1193 C 0.50856 0.95358 0.91136 0.0
C1194 C 0.5307 0.96819 0.92193 0.0
C1195 C 0.52105 0.98122 0.92478 0.0
C1196 C 0.50528 0.98075 0.91986 0.0
C1197 C 0.49904 0.96696 0.9132 0.0
C1198 C 0.5277 0.99492 0.93336 0.0
C1199 C 0.52808 0.00968 0.92603 0.0
C1200 C 0.53536 0.99292 0.948 0.0
C1201 C 0.53381 0.97824 0.95733 0.0
C1202 C 0.51889 0.97203 0.96072 0.0
C1203 C 0.51743 0.95845 0.96984 0.0
C1204 C 0.53081 0.95098 0.97572 0.0
C1205 C 0.54568 0.95708 0.97247 0.0
C1206 C 0.54721 0.97065 0.96333 0.0
C1207 C 0.55962 0.05717 0.96592 0.0
C1208 C 0.57579 0.05419 0.96784 0.0
C1209 C 0.54985 0.04614 0.95866 0.0
C1210 C 0.55602 0.03184 0.95331 0.0
C1211 C 0.57212 0.02879 0.95528 0.0
C1212 C 0.58196 0.03993 0.96233 0.0
C1213 C 0.54564 0.01968 0.94633 0.0
C1214 C 0.54445 0.00522 0.95411 0.0
C1215 C 0.53689 0.02215 0.93238 0.0
C1216 C 0.5371 0.03736 0.92386 0.0
C1217 C 0.55131 0.04405 0.9188 0.0
C1218 C 0.5513 0.0583 0.91062 0.0
C1219 C 0.53715 0.06591 0.90732 0.0
C1220 C 0.52296 0.05928 0.91217 0.0
C1221 C 0.52291 0.04505 0.92038 0.0
H1222 H 0.53716 0.07693 0.90095 0.0
H1223 H 0.52966 0.94049 0.98281 0.0
H1224 H 0.22638 0.75372 0.1361 0.0
H1225 H 0.24854 0.76799 0.14775 0.0
H1226 H 0.21876 0.78323 0.18581 0.0
H1227 H 0.19663 0.76987 0.17393 0.0
H1228 H 0.23719 0.8058 0.17934 0.0
H1229 H 0.24509 0.75008 0.18821 0.0
H1230 H 0.24792 0.72252 0.17967 0.0
H1231 H 0.28807 0.73502 0.15187 0.0
H1232 H 0.28538 0.76268 0.16015 0.0
H1233 H 0.29474 0.82283 0.23736 0.0
H1234 H 0.27334 0.80959 0.22331 0.0
H1235 H 0.30396 0.80175 0.18376 0.0
H1236 H 0.3253 0.81475 0.19764 0.0
H1237 H 0.28597 0.7758 0.19011 0.0
H1238 H 0.27815 0.83146 0.18199 0.0
H1239 H 0.27576 0.8587 0.19158 0.0
H1240 H 0.23557 0.84574 0.2191 0.0
H1241 H 0.23781 0.81836 0.20975 0.0
C1242 C 0.22454 0.76031 0.14682 0.0
C1243 C 0.20973 0.76053 0.15409 0.0
C1244 C 0.23724 0.76837 0.15356 0.0
C1245 C 0.23546 0.77642 0.16791 0.0
C1246 C 0.22053 0.77713 0.17478 0.0
C1247 C 0.20783 0.76939 0.16793 0.0
C1248 C 0.24909 0.78362 0.17625 0.0
C1249 C 0.24777 0.79914 0.18178 0.0
C1250 C 0.26308 0.77512 0.17933 0.0
C1251 C 0.26496 0.75844 0.17469 0.0
C1252 C 0.25449 0.74694 0.18025 0.0
C1253 C 0.25607 0.73131 0.17545 0.0
C1254 C 0.26815 0.72702 0.16521 0.0
C1255 C 0.27872 0.73835 0.1598 0.0
C1256 C 0.27719 0.754 0.16455 0.0
C1257 C 0.29691 0.81825 0.2257 0.0
C1258 C 0.31168 0.82001 0.21859 0.0
C1259 C 0.28468 0.81069 0.21768 0.0
C1260 C 0.28703 0.8048 0.20241 0.0
C1261 C 0.30188 0.80618 0.1955 0.0
C1262 C 0.31404 0.81374 0.20346 0.0
C1263 C 0.27389 0.7978 0.1933 0.0
C1264 C 0.27536 0.78239 0.18762 0.0
C1265 C 0.26 0.80633 0.19016 0.0
C1266 C 0.25818 0.82289 0.19522 0.0
C1267 C 0.2688 0.83443 0.19008 0.0
C1268 C 0.26749 0.84989 0.19548 0.0
C1269 C 0.25553 0.85394 0.20595 0.0
C1270 C 0.24481 0.84258 0.21097 0.0
C1271 C 0.24607 0.8271 0.2056 0.0
H1272 H 0.25457 0.8659 0.21017 0.0
H1273 H 0.26933 0.71493 0.16148 0.0
H1274 H 0.06109 0.43275 0.02797 0.0
H1275 H 0.04567 0.45276 0.04147 0.0
H1276 H 0.08794 0.47949 0.04993 0.0
H1277 H 0.10351 0.45865 0.03762 0.0
H1278 H 0.07263 0.47912 0.07481 0.0
H1279 H 0.0557 0.48782 0.02079 0.0
H1280 H 0.04406 0.47937 0.99564 0.0
H1281 H 0.0011 0.46757 0.0192 0.0
H1282 H 0.01257 0.4757 0.04453 0.0
H1283 H 0.04553 0.55368 0.09363 0.0
H1284 H 0.05611 0.53003 0.08202 0.0
H1285 H 0.00991 0.5093 0.08132 0.0
H1286 H 0.99892 0.53367 0.09237 0.0
H1287 H 0.02397 0.50377 0.05443 0.0
H1288 H 0.04005 0.49681 0.1078 0.0
H1289 H 0.0517 0.50423 0.13327 0.0
H1290 H 0.09615 0.51223 0.1109 0.0
H1291 H 0.08474 0.50506 0.08529 0.0
C1292 C 0.06704 0.44303 0.03254 0.0
C1293 C 0.08348 0.44426 0.03168 0.0
C1294 C 0.05819 0.45454 0.04019 0.0
C1295 C 0.0655 0.46791 0.04654 0.0
C1296 C 0.08194 0.46933 0.04519 0.0
C1297 C 0.09086 0.4575 0.03807 0.0
C1298 C 0.05635 0.47995 0.05547 0.0
C1299 C 0.06213 0.48466 0.07017 0.0
C1300 C 0.04209 0.48663 0.04994 0.0
C1301 C 0.03507 0.48222 0.0346 0.0
C1302 C 0.0438 0.48336 0.02062 0.0
C1303 C 0.03723 0.47862 0.00633 0.0
C1304 C 0.02187 0.47288 0.00583 0.0
C1305 C 0.01301 0.47198 0.01961 0.0
C1306 C 0.01954 0.47666 0.03393 0.0
C1307 C 0.03754 0.54407 0.09128 0.0
C1308 C 0.02133 0.54562 0.09406 0.0
C1309 C 0.04368 0.53042 0.08467 0.0
C1310 C 0.03392 0.51765 0.08103 0.0
C1311 C 0.01773 0.51894 0.08411 0.0
C1312 C 0.01148 0.53281 0.09057 0.0
C1313 C 0.04079 0.50345 0.07335 0.0
C1314 C 0.03448 0.4982 0.05901 0.0
C1315 C 0.0546 0.49622 0.07916 0.0
C1316 C 0.0615 0.50046 0.09461 0.0
C1317 C 0.05229 0.50023 0.1083 0.0
C1318 C 0.05886 0.50439 0.12277 0.0
C1319 C 0.07465 0.50871 0.1237 0.0
C1320 C 0.08392 0.50887 0.11017 0.0
C1321 C 0.07742 0.50473 0.09568 0.0
H1322 H 0.07971 0.51193 0.13491 0.0
H1323 H 0.01683 0.46917 0.99477 0.0
H1324 H 0.79726 0.74895 0.17549 0.0
H1325 H 0.77358 0.7373 0.18623 0.0
H1326 H 0.76449 0.71442 0.14196 0.0
H1327 H 0.78843 0.72616 0.13093 0.0
H1328 H 0.73792 0.72816 0.15523 0.0
H1329 H 0.77926 0.69297 0.17211 0.0
H1330 H 0.80402 0.68497 0.18486 0.0
H1331 H 0.78822 0.70461 0.22853 0.0
H1332 H 0.76344 0.71286 0.21601 0.0
H1333 H 0.68071 0.67503 0.18504 0.0
H1334 H 0.70258 0.68844 0.17227 0.0
H1335 H 0.71807 0.70596 0.21728 0.0
H1336 H 0.69656 0.69201 0.23016 0.0
H1337 H 0.74146 0.69474 0.20283 0.0
H1338 H 0.70068 0.73011 0.18757 0.0
H1339 H 0.67568 0.73908 0.17602 0.0
H1340 H 0.68976 0.7213 0.13098 0.0
H1341 H 0.71477 0.71206 0.1423 0.0
C1342 C 0.79027 0.74147 0.16793 0.0
C1343 C 0.79484 0.73839 0.15233 0.0
C1344 C 0.77674 0.73476 0.17417 0.0
C1345 C 0.76747 0.72476 0.165 0.0
C1346 C 0.77161 0.72203 0.14926 0.0
C1347 C 0.78524 0.72877 0.14296 0.0
C1348 C 0.75341 0.71731 0.17199 0.0
C1349 C 0.73865 0.72063 0.16549 0.0
C1350 C 0.75439 0.70801 0.18573 0.0
C1351 C 0.76958 0.70368 0.19307 0.0
C1352 C 0.78116 0.69576 0.18437 0.0
C1353 C 0.79516 0.69112 0.19158 0.0
C1354 C 0.7977 0.69431 0.20748 0.0
C1355 C 0.78625 0.70217 0.21621 0.0
C1356 C 0.77223 0.70682 0.20907 0.0
C1357 C 0.6888 0.68175 0.19221 0.0
C1358 C 0.68708 0.68233 0.20862 0.0
C1359 C 0.70119 0.68957 0.18487 0.0
C1360 C 0.71189 0.6984 0.19376 0.0
C1361 C 0.70999 0.6992 0.21015 0.0
C1362 C 0.69775 0.69116 0.21752 0.0
C1363 C 0.72581 0.70568 0.18622 0.0
C1364 C 0.7406 0.70229 0.19258 0.0
C1365 C 0.72479 0.71514 0.17255 0.0
C1366 C 0.70953 0.72022 0.16583 0.0
C1367 C 0.69837 0.72794 0.17525 0.0
C1368 C 0.68422 0.73312 0.16873 0.0
C1369 C 0.68112 0.73072 0.15279 0.0
C1370 C 0.69216 0.72313 0.14333 0.0
C1371 C 0.70633 0.71793 0.14979 0.0
H1372 H 0.67017 0.73478 0.14776 0.0
H1373 H 0.80853 0.69066 0.21305 0.0
H1374 H 0.89886 0.03802 0.03488 0.0
H1375 H 0.91424 0.01938 0.05066 0.0
H1376 H 0.95593 0.04699 0.04274 0.0
H1377 H 0.94073 0.06563 0.02714 0.0
H1378 H 0.95989 0.01551 0.03634 0.0
H1379 H 0.94199 0.04742 0.07844 0.0
H1380 H 0.92265 0.062 0.09428 0.0
H1381 H 0.89788 0.01913 0.10389 0.0
H1382 H 0.91703 0.00429 0.08798 0.0
H1383 H 0.00468 0.96483 0.08778 0.0
H1384 H 0.99324 0.98906 0.07678 0.0
H1385 H 0.94693 0.9691 0.08113 0.0
H1386 H 0.95823 0.94502 0.09185 0.0
H1387 H 0.94797 0.99989 0.09118 0.0
H1388 H 0.95994 0.97171 0.04129 0.0
H1389 H 0.9751 0.9598 0.01967 0.0
H1390 H 0.00968 0.9963 0.02352 0.0
H1391 H 0.9944 0.00866 0.04486 0.0
C1392 C 0.91129 0.04009 0.03652 0.0
C1393 C 0.91858 0.05326 0.02976 0.0
C1394 C 0.92002 0.02955 0.04565 0.0
C1395 C 0.93617 0.03195 0.04802 0.0
C1396 C 0.94346 0.04501 0.04117 0.0
C1397 C 0.93474 0.05562 0.03224 0.0
C1398 C 0.94569 0.02022 0.05667 0.0
C1399 C 0.95755 0.01235 0.04848 0.0
C1400 C 0.94243 0.01596 0.07237 0.0
C1401 C 0.93087 0.02477 0.08193 0.0
C1402 C 0.93235 0.04112 0.08384 0.0
C1403 C 0.92145 0.04942 0.09286 0.0
C1404 C 0.90902 0.0415 0.10006 0.0
C1405 C 0.90751 0.02525 0.0983 0.0
C1406 C 0.91841 0.01688 0.08931 0.0
C1407 C 0.99205 0.96582 0.08674 0.0
C1408 C 0.98231 0.95314 0.09084 0.0
C1409 C 0.98555 0.97955 0.08024 0.0
C1410 C 0.96924 0.98081 0.078 0.0
C1411 C 0.95953 0.96839 0.08273 0.0
C1412 C 0.966 0.95467 0.08895 0.0
C1413 C 0.96205 0.99495 0.07072 0.0
C1414 C 0.95058 0.0033 0.07918 0.0
C1415 C 0.96565 0.99972 0.05523 0.0
C1416 C 0.97629 0.99083 0.04487 0.0
C1417 C 0.97101 0.97692 0.0378 0.0
C1418 C 0.97951 0.97021 0.02547 0.0
C1419 C 0.99341 0.97725 0.02029 0.0
C1420 C 0.99896 0.99084 0.0276 0.0
C1421 C 0.99037 0.99772 0.03977 0.0
H1422 H 0.99978 0.97231 0.01048 0.0
H1423 H 0.90059 0.04796 0.10704 0.0
H1424 H 0.29338 0.30157 0.16443 0.0
H1425 H 0.30718 0.2789 0.17557 0.0
H1426 H 0.30556 0.30034 0.22149 0.0
H1427 H 0.29234 0.32319 0.21034 0.0
H1428 H 0.33269 0.28684 0.21805 0.0
H1429 H 0.27974 0.2711 0.21141 0.0
H1430 H 0.25482 0.26827 0.19694 0.0
H1431 H 0.27735 0.23787 0.1636 0.0
H1432 H 0.30247 0.24069 0.17778 0.0
H1433 H 0.34597 0.21333 0.25874 0.0
H1434 H 0.33588 0.23853 0.2492 0.0
H1435 H 0.34076 0.22246 0.2014 0.0
H1436 H 0.3506 0.19722 0.21083 0.0
H1437 H 0.31137 0.23364 0.2075 0.0
H1438 H 0.36531 0.25057 0.21736 0.0
H1439 H 0.38836 0.25406 0.23455 0.0
H1440 H 0.36102 0.28253 0.26592 0.0
H1441 H 0.33776 0.27905 0.24902 0.0
C1442 C 0.29598 0.30142 0.17689 0.0
C1443 C 0.2917 0.31408 0.18653 0.0
C1444 C 0.30385 0.28848 0.18326 0.0
C1445 C 0.30722 0.28782 0.19943 0.0
C1446 C 0.30314 0.30058 0.209 0.0
C1447 C 0.2955 0.3136 0.2026 0.0
C1448 C 0.31448 0.2736 0.20646 0.0
C1449 C 0.32795 0.27522 0.21585 0.0
C1450 C 0.3082 0.25845 0.20381 0.0
C1451 C 0.293 0.25618 0.19559 0.0
C1452 C 0.27938 0.26383 0.20097 0.0
C1453 C 0.26523 0.26225 0.19282 0.0
C1454 C 0.26451 0.25292 0.17934 0.0
C1455 C 0.27793 0.24509 0.17404 0.0
C1456 C 0.29212 0.24665 0.18215 0.0
C1457 C 0.34531 0.21533 0.24619 0.0
C1458 C 0.34908 0.20328 0.23552 0.0
C1459 C 0.33947 0.22972 0.24076 0.0
C1460 C 0.33753 0.23234 0.22458 0.0
C1461 C 0.34207 0.22063 0.21393 0.0
C1462 C 0.3478 0.20626 0.21934 0.0
C1463 C 0.32987 0.24684 0.21866 0.0
C1464 C 0.31617 0.24526 0.20962 0.0
C1465 C 0.33567 0.26203 0.22208 0.0
C1466 C 0.34978 0.26446 0.23198 0.0
C1467 C 0.36421 0.25752 0.22796 0.0
C1468 C 0.37731 0.2595 0.23765 0.0
C1469 C 0.37615 0.26848 0.25133 0.0
C1470 C 0.3619 0.27557 0.25532 0.0
C1471 C 0.34876 0.27362 0.24568 0.0
H1472 H 0.3863 0.26997 0.25884 0.0
H1473 H 0.25356 0.25174 0.17301 0.0
H1474 H 0.34789 0.80931 0.28175 0.0
H1475 H 0.338 0.78657 0.2957 0.0
H1476 H 0.35616 0.75621 0.25935 0.0
H1477 H 0.3651 0.77928 0.24465 0.0
H1478 H 0.32752 0.74989 0.26372 0.0
H1479 H 0.37011 0.7586 0.30057 0.0
H1480 H 0.38607 0.77395 0.31924 0.0
H1481 H 0.34535 0.78222 0.34776 0.0
H1482 H 0.3291 0.76716 0.32916 0.0
H1483 H 0.30916 0.67823 0.30096 0.0
H1484 H 0.32219 0.70093 0.28944 0.0
H1485 H 0.29901 0.73136 0.32269 0.0
H1486 H 0.28591 0.70855 0.33443 0.0
H1487 H 0.32996 0.73761 0.32058 0.0
H1488 H 0.28737 0.73071 0.28538 0.0
H1489 H 0.26925 0.71824 0.26656 0.0
H1490 H 0.30767 0.70868 0.23539 0.0
H1491 H 0.3261 0.72081 0.25415 0.0
C1492 C 0.35023 0.79778 0.27691 0.0
C1493 C 0.35727 0.79606 0.26206 0.0
C1494 C 0.34461 0.78471 0.285 0.0
C1495 C 0.34644 0.76958 0.27871 0.0
C1496 C 0.35456 0.76777 0.26443 0.0
C1497 C 0.35977 0.78091 0.25608 0.0
C1498 C 0.33815 0.75601 0.28588 0.0
C1499 C 0.32841 0.74697 0.2761 0.0
C1500 C 0.33852 0.75276 0.30221 0.0
C1501 C 0.34836 0.76183 0.31338 0.0
C1502 C 0.36453 0.76379 0.31075 0.0
C1503 C 0.37364 0.77243 0.32134 0.0
C1504 C 0.36673 0.77908 0.33466 0.0
C1505 C 0.35069 0.77708 0.33744 0.0
C1506 C 0.34154 0.76848 0.32688 0.0
C1507 C 0.30679 0.68975 0.30583 0.0
C1508 C 0.29653 0.69164 0.31861 0.0
C1509 C 0.31418 0.70271 0.29915 0.0
C1510 C 0.31144 0.7178 0.30513 0.0
C1511 C 0.30122 0.71977 0.3179 0.0
C1512 C 0.29372 0.70677 0.32456 0.0
C1513 C 0.31976 0.7314 0.29832 0.0
C1514 C 0.32934 0.74045 0.30817 0.0
C1515 C 0.31908 0.73483 0.28209 0.0
C1516 C 0.30816 0.7266 0.27125 0.0
C1517 C 0.29202 0.72574 0.27463 0.0
C1518 C 0.28167 0.7188 0.26394 0.0
C1519 C 0.2873 0.7128 0.24974 0.0
C1520 C 0.30332 0.71342 0.24635 0.0
C1521 C 0.31372 0.72031 0.25702 0.0
H1522 H 0.27924 0.70769 0.24136 0.0
H1523 H 0.3738 0.78576 0.34284 0.0
H1524 H 0.95477 0.48065 0.93404 0.0
H1525 H 0.9774 0.46693 0.94529 0.0
H1526 H 0.95546 0.42229 0.93523 0.0
H1527 H 0.93233 0.43612 0.9251 0.0
H1528 H 0.96813 0.42075 0.96259 0.0
H1529 H 0.98693 0.43802 0.91219 0.0
H1530 H 0.99051 0.45808 0.89157 0.0
H1531 H 0.01854 0.48577 0.92303 0.0
H1532 H 0.01499 0.46595 0.94389 0.0
H1533 H 0.04181 0.38177 0.98025 0.0
H1534 H 0.01781 0.39066 0.96666 0.0
H1535 H 0.02961 0.43882 0.97737 0.0
H1536 H 0.05343 0.43004 0.99055 0.0
H1537 H 0.02223 0.43536 0.94672 0.0
H1538 H 1.00073 0.42009 0.99748 0.0
H1539 H 0.99719 0.4006 0.01864 0.0
H1540 H 0.97466 0.36918 0.98625 0.0
H1541 H 0.97822 0.38846 0.96486 0.0
C1542 C 0.95495 0.46792 0.93409 0.0
C1543 C 0.94207 0.45936 0.92857 0.0
C1544 C 0.96784 0.46007 0.94047 0.0
C1545 C 0.96831 0.44353 0.94076 0.0
C1546 C 0.9554 0.43502 0.93509 0.0
C1547 C 0.94229 0.44289 0.92921 0.0
C1548 C 0.98219 0.43518 0.94717 0.0
C1549 C 0.97994 0.42374 0.95888 0.0
C1550 C 0.99763 0.43911 0.94245 0.0
C1551 C 1.00069 0.4505 0.9296 0.0
C1552 C 0.99391 0.44836 0.91468 0.0
C1553 C 0.9959 0.45971 0.90297 0.0
C1554 C 0.00474 0.47319 0.90599 0.0
C1555 C 0.01172 0.4753 0.9207 0.0
C1556 C 0.00977 0.46399 0.93245 0.0
C1557 C 0.03896 0.39418 0.97999 0.0
C1558 C 0.04924 0.40525 0.9865 0.0
C1559 C 0.02541 0.39926 0.97213 0.0
C1560 C 0.02204 0.41542 0.97092 0.0
C1561 C 0.03208 0.42634 0.97799 0.0
C1562 C 0.04556 0.42131 0.98567 0.0
C1563 C 0.00813 0.42126 0.96232 0.0
C1564 C 0.01039 0.43218 0.95017 0.0
C1565 C 0.99275 0.41684 0.96659 0.0
C1566 C 0.9898 0.40565 0.97958 0.0
C1567 C 0.995 0.40903 0.99489 0.0
C1568 C 0.99302 0.39802 0.00691 0.0
C1569 C 0.98573 0.38365 0.00378 0.0
C1570 C 0.9803 0.38032 0.98865 0.0
C1571 C 0.98227 0.39129 0.97658 0.0
H1572 H 0.98427 0.37511 0.01309 0.0
H1573 H 0.00619 0.48201 0.89694 0.0
H1574 H 0.72045 0.79619 0.32886 0.0
H1575 H 0.7081 0.77381 0.3155 0.0
H1576 H 0.67276 0.80469 0.29637 0.0
H1577 H 0.68475 0.82687 0.30977 0.0
H1578 H 0.65969 0.77817 0.30611 0.0
H1579 H 0.70282 0.79278 0.27331 0.0
H1580 H 0.73051 0.79956 0.26821 0.0
H1581 H 0.74477 0.75353 0.28317 0.0
H1582 H 0.71715 0.74652 0.2885 0.0
H1583 H 0.63922 0.7298 0.23757 0.0
H1584 H 0.64976 0.75156 0.2535 0.0
H1585 H 0.67045 0.71815 0.28545 0.0
H1586 H 0.65941 0.6965 0.27008 0.0
H1587 H 0.6909 0.74562 0.26918 0.0
H1588 H 0.64582 0.73234 0.30224 0.0
H1589 H 0.61766 0.72757 0.30692 0.0
H1590 H 0.6067 0.77361 0.28938 0.0
H1591 H 0.63481 0.77856 0.28441 0.0
C1592 C 0.70996 0.79814 0.32194 0.0
C1593 C 0.70363 0.8133 0.32034 0.0
C1594 C 0.70297 0.78539 0.31424 0.0
C1595 C 0.6896 0.78762 0.30479 0.0
C1596 C 0.68305 0.80267 0.30358 0.0
C1597 C 0.68998 0.81536 0.31124 0.0
C1598 C 0.68253 0.77442 0.29587 0.0
C1599 C 0.66652 0.77114 0.29797 0.0
C1600 C 0.6914 0.76526 0.2852 0.0
C1601 C 0.70794 0.76917 0.28144 0.0
C1602 C 0.71187 0.78411 0.27554 0.0
C1603 C 0.72754 0.788 0.2726 0.0
C1604 C 0.73938 0.777 0.27543 0.0
C1605 C 0.73557 0.76204 0.28102 0.0
C1606 C 0.71991 0.75809 0.28397 0.0
C1607 C 0.64569 0.72718 0.2482 0.0
C1608 C 0.64824 0.71152 0.25278 0.0
C1609 C 0.65179 0.73955 0.2572 0.0
C1610 C 0.66092 0.73639 0.27057 0.0
C1611 C 0.6634 0.72079 0.27518 0.0
C1612 C 0.65694 0.70846 0.26649 0.0
C1613 C 0.66816 0.74935 0.2796 0.0
C1614 C 0.68416 0.75263 0.27741 0.0
C1615 C 0.65924 0.75873 0.28995 0.0
C1616 C 0.64236 0.75572 0.29275 0.0
C1617 C 0.63738 0.74136 0.29919 0.0
C1618 C 0.62144 0.73865 0.30195 0.0
C1619 C 0.61039 0.75026 0.29839 0.0
C1620 C 0.61527 0.76462 0.2921 0.0
C1621 C 0.6312 0.76738 0.28931 0.0
H1622 H 0.59805 0.74815 0.30056 0.0
H1623 H 0.75152 0.78009 0.27333 0.0
H1624 H 0.47624 0.61703 0.51374 0.0
H1625 H 0.50165 0.60729 0.50377 0.0
H1626 H 0.47776 0.58384 0.46578 0.0
H1627 H 0.4528 0.59366 0.4752 0.0
H1628 H 0.49821 0.56413 0.48422 0.0
H1629 H 0.49637 0.61446 0.45683 0.0
H1630 H 0.49486 0.64339 0.45614 0.0
H1631 H 0.53696 0.64646 0.48371 0.0
H1632 H 0.53859 0.61751 0.48473 0.0
H1633 H 0.55151 0.53672 0.42775 0.0
H1634 H 0.52996 0.55074 0.44069 0.0
H1635 H 0.56337 0.57691 0.46837 0.0
H1636 H 0.58485 0.56339 0.45522 0.0
H1637 H 0.5403 0.59572 0.45924 0.0
H1638 H 0.54446 0.54522 0.4832 0.0
H1639 H 0.5464 0.51631 0.48277 0.0
H1640 H 0.50019 0.51323 0.46296 0.0
H1641 H 0.49818 0.54214 0.46267 0.0
C1642 C 0.47651 0.61009 0.50309 0.0
C1643 C 0.4625 0.60603 0.49535 0.0
C1644 C 0.49097 0.60445 0.49748 0.0
C1645 C 0.49147 0.59465 0.48419 0.0
C1646 C 0.47758 0.5912 0.47617 0.0
C1647 C 0.46331 0.59691 0.48158 0.0
C1648 C 0.50622 0.58746 0.47854 0.0
C1649 C 0.50745 0.57101 0.47877 0.0
C1650 C 0.51836 0.59648 0.47178 0.0
C1651 C 0.51749 0.61385 0.47102 0.0
C1652 C 0.50522 0.62131 0.46286 0.0
C1653 C 0.50436 0.6377 0.46238 0.0
C1654 C 0.51578 0.64676 0.46992 0.0
C1655 C 0.52811 0.63943 0.4779 0.0
C1656 C 0.52902 0.62303 0.47842 0.0
C1657 C 0.55423 0.5455 0.43654 0.0
C1658 C 0.56985 0.54887 0.44051 0.0
C1659 C 0.54194 0.55349 0.44395 0.0
C1660 C 0.54507 0.56473 0.45567 0.0
C1661 C 0.56067 0.56832 0.45937 0.0
C1662 C 0.57293 0.5605 0.45186 0.0
C1663 C 0.53209 0.57231 0.46448 0.0
C1664 C 0.53124 0.58881 0.46492 0.0
C1665 C 0.52032 0.56331 0.47199 0.0
C1666 C 0.52119 0.54588 0.47285 0.0
C1667 C 0.53472 0.53839 0.47871 0.0
C1668 C 0.53585 0.522 0.47857 0.0
C1669 C 0.5234 0.51295 0.47292 0.0
C1670 C 0.50981 0.52026 0.46736 0.0
C1671 C 0.50868 0.53665 0.46731 0.0
H1672 H 0.52431 0.50026 0.47283 0.0
H1673 H 0.51508 0.65945 0.46954 0.0
H1674 H 0.2161 0.70507 0.66501 0.0
H1675 H 0.20186 0.72732 0.67643 0.0
H1676 H 0.18643 0.69786 0.71471 0.0
H1677 H 0.20011 0.67555 0.70311 0.0
H1678 H 0.16324 0.71624 0.70581 0.0
H1679 H 0.21717 0.72338 0.72013 0.0
H1680 H 0.24548 0.7242 0.71419 0.0
H1681 H 0.23802 0.76309 0.68289 0.0
H1682 H 0.2096 0.76244 0.68862 0.0
H1683 H 0.15076 0.77628 0.76413 0.0
H1684 H 0.16012 0.75362 0.74904 0.0
H1685 H 0.16488 0.78282 0.70793 0.0
H1686 H 0.15527 0.80542 0.72273 0.0
H1687 H 0.19291 0.7651 0.71731 0.0
H1688 H 0.13761 0.7578 0.70604 0.0
H1689 H 0.10981 0.75539 0.71375 0.0
H1690 H 0.12092 0.71522 0.74221 0.0
H1691 H 0.14882 0.71749 0.73477 0.0
C1692 C 0.20965 0.70338 0.67585 0.0
C1693 C 0.20928 0.68864 0.68323 0.0
C1694 C 0.20153 0.71606 0.68235 0.0
C1695 C 0.19323 0.71427 0.69652 0.0
C1696 C 0.1927 0.69949 0.70375 0.0
C1697 C 0.2006 0.68678 0.69714 0.0
C1698 C 0.18565 0.72791 0.70419 0.0
C1699 C 0.16975 0.72688 0.70841 0.0
C1700 C 0.19414 0.74178 0.70757 0.0
C1701 C 0.21128 0.74284 0.70476 0.0
C1702 C 0.22158 0.73213 0.71201 0.0
C1703 C 0.23764 0.73254 0.70866 0.0
C1704 C 0.24355 0.74367 0.69814 0.0
C1705 C 0.23342 0.75449 0.69105 0.0
C1706 C 0.21734 0.75414 0.69438 0.0
C1707 C 0.15343 0.77779 0.75178 0.0
C1708 C 0.15227 0.79265 0.74465 0.0
C1709 C 0.15884 0.76487 0.74321 0.0
C1710 C 0.16331 0.76666 0.72745 0.0
C1711 C 0.16156 0.78128 0.72012 0.0
C1712 C 0.15592 0.79414 0.72859 0.0
C1713 C 0.1705 0.75343 0.71882 0.0
C1714 C 0.18637 0.75451 0.71455 0.0
C1715 C 0.16209 0.73948 0.71573 0.0
C1716 C 0.14529 0.73787 0.71993 0.0
C1717 C 0.13412 0.7485 0.714 0.0
C1718 C 0.11835 0.74715 0.7183 0.0
C1719 C 0.1136 0.73518 0.72849 0.0
C1720 C 0.12461 0.72449 0.73433 0.0
C1721 C 0.1404 0.72578 0.73004 0.0
H1722 H 0.10139 0.73418 0.73183 0.0
H1723 H 0.25597 0.74391 0.6955 0.0
H1724 H 0.03448 0.61325 0.48995 0.0
H1725 H 0.01051 0.60041 0.49977 0.0
H1726 H 0.03502 0.58672 0.54192 0.0
H1727 H 0.05862 0.59971 0.53256 0.0
H1728 H 0.01746 0.56166 0.52644 0.0
H1729 H 0.01202 0.61586 0.54505 0.0
H1730 H 0.01096 0.64441 0.54013 0.0
H1731 H 0.97157 0.6379 0.50933 0.0
H1732 H 0.97255 0.60926 0.51393 0.0
H1733 H 0.96121 0.53677 0.58155 0.0
H1734 H 0.98286 0.55036 0.56828 0.0
H1735 H 0.95007 0.571 0.53558 0.0
H1736 H 0.92848 0.55802 0.54908 0.0
H1737 H 0.9706 0.59212 0.54296 0.0
H1738 H 0.97343 0.53943 0.52481 0.0
H1739 H 0.97348 0.51062 0.52801 0.0
H1740 H 0.01626 0.5134 0.55455 0.0
H1741 H 0.01636 0.54226 0.55164 0.0
C1742 C 0.03466 0.6077 0.50139 0.0
C1743 C 0.04844 0.60766 0.5105 0.0
C1744 C 0.02102 0.60027 0.50693 0.0
C1745 C 0.02109 0.5925 0.52151 0.0
C1746 C 0.03477 0.59254 0.53059 0.0
C1747 C 0.04822 0.60015 0.52525 0.0
C1748 C 0.00688 0.58462 0.52774 0.0
C1749 C 0.00722 0.5683 0.53011 0.0
C1750 C 0.99337 0.59322 0.53206 0.0
C1751 C 0.99243 0.61044 0.52974 0.0
C1752 C 0.00318 0.62052 0.53718 0.0
C1753 C 0.00259 0.63671 0.53445 0.0
C1754 C 0.99123 0.64296 0.52439 0.0
C1755 C 0.98038 0.63304 0.51711 0.0
C1756 C 0.98093 0.61683 0.51979 0.0
C1757 C 0.95866 0.54422 0.57155 0.0
C1758 C 0.94317 0.54627 0.56635 0.0
C1759 C 0.97102 0.55195 0.56393 0.0
C1760 C 0.96813 0.56155 0.55075 0.0
C1761 C 0.95263 0.56371 0.5457 0.0
C1762 C 0.94029 0.5562 0.55343 0.0
C1763 C 0.98127 0.56912 0.54206 0.0
C1764 C 0.98072 0.58539 0.53916 0.0
C1765 C 0.99444 0.5604 0.53689 0.0
C1766 C 0.99487 0.543 0.53806 0.0
C1767 C 0.98285 0.53389 0.53132 0.0
C1768 C 0.98284 0.51756 0.5331 0.0
C1769 C 0.99486 0.51019 0.54149 0.0
C1770 C 0.00697 0.51913 0.54804 0.0
C1771 C 0.00703 0.53547 0.5463 0.0
H1772 H 0.99481 0.49755 0.54291 0.0
H1773 H 0.99081 0.65549 0.52226 0.0
H1774 H 0.94161 0.92006 0.53347 0.0
H1775 H 0.96618 0.93082 0.54317 0.0
H1776 H 0.99001 0.91426 0.50166 0.0
H1777 H 0.96512 0.90327 0.49178 0.0
H1778 H 0.00784 0.91031 0.52828 0.0
H1779 H 0.98082 0.95221 0.50388 0.0
H1780 H 0.95899 0.97001 0.49717 0.0
H1781 H 0.95645 0.98538 0.54513 0.0
H1782 H 0.97811 0.9675 0.55219 0.0
H1783 H 0.07301 0.95949 0.54665 0.0
H1784 H 0.05091 0.94688 0.53375 0.0
H1785 H 0.02058 0.96095 0.57179 0.0
H1786 H 0.04277 0.97405 0.58472 0.0
H1787 H 0.00731 0.96657 0.54362 0.0
H1788 H 0.0346 0.9223 0.56728 0.0
H1789 H 0.05764 0.90538 0.572 0.0
H1790 H 0.06089 0.8956 0.52264 0.0
H1791 H 0.03799 0.91262 0.5176 0.0
C1792 C 0.9521 0.91847 0.52646 0.0
C1793 C 0.95141 0.91085 0.51182 0.0
C1794 C 0.96613 0.92476 0.53198 0.0
C1795 C 0.97985 0.92371 0.52297 0.0
C1796 C 0.9795 0.91532 0.50874 0.0
C1797 C 0.96533 0.90894 0.50316 0.0
C1798 C 0.99432 0.93168 0.52859 0.0
C1799 C 0.00782 0.92267 0.5314 0.0
C1800 C 0.99429 0.94781 0.53271 0.0
C1801 C 0.98102 0.95838 0.5286 0.0
C1802 C 0.9755 0.95925 0.51304 0.0
C1803 C 0.96318 0.96939 0.50916 0.0
C1804 C 0.95631 0.97879 0.52072 0.0
C1805 C 0.96176 0.97808 0.53619 0.0
C1806 C 0.97407 0.96795 0.54013 0.0
C1807 C 0.06168 0.95987 0.55238 0.0
C1808 C 0.05969 0.96774 0.5668 0.0
C1809 C 0.04904 0.95256 0.54498 0.0
C1810 C 0.03411 0.95273 0.55189 0.0
C1811 C 0.03203 0.9606 0.56627 0.0
C1812 C 0.04471 0.96803 0.57369 0.0
C1813 C 0.02061 0.94508 0.54388 0.0
C1814 C 0.00733 0.95421 0.5405 0.0
C1815 C 0.02098 0.92915 0.53898 0.0
C1816 C 0.03466 0.91884 0.54205 0.0
C1817 C 0.04029 0.91662 0.55742 0.0
C1818 C 0.05332 0.907 0.56016 0.0
C1819 C 0.06074 0.89945 0.54762 0.0
C1820 C 0.05514 0.90146 0.53233 0.0
C1821 C 0.04213 0.91108 0.52953 0.0
H1822 H 0.07083 0.89201 0.54977 0.0
H1823 H 0.94679 0.98666 0.51769 0.0
H1824 H 0.764 0.83959 0.71471 0.0
H1825 H 0.75353 0.82948 0.73963 0.0
H1826 H 0.71005 0.85407 0.73129 0.0
H1827 H 0.72031 0.86373 0.70615 0.0
H1828 H 0.72104 0.85443 0.76381 0.0
H1829 H 0.71015 0.81892 0.72091 0.0
H1830 H 0.71585 0.80137 0.69858 0.0
H1831 H 0.74591 0.77339 0.72789 0.0
H1832 H 0.74054 0.79091 0.75035 0.0
H1833 H 0.66515 0.80485 0.80595 0.0
H1834 H 0.6785 0.81969 0.78493 0.0
H1835 H 0.72248 0.7981 0.79774 0.0
H1836 H 0.70938 0.78392 0.81904 0.0
H1837 H 0.71221 0.79679 0.76396 0.0
H1838 H 0.72237 0.83101 0.80716 0.0
H1839 H 0.71682 0.84809 0.82985 0.0
H1840 H 0.6887 0.87816 0.8007 0.0
H1841 H 0.69387 0.86108 0.77786 0.0
C1842 C 0.75247 0.84334 0.71855 0.0
C1843 C 0.74304 0.85268 0.70876 0.0
C1844 C 0.74643 0.83741 0.73265 0.0
C1845 C 0.73099 0.84096 0.73721 0.0
C1846 C 0.722 0.85124 0.72798 0.0
C1847 C 0.72789 0.85685 0.71372 0.0
C1848 C 0.7237 0.83291 0.75081 0.0
C1849 C 0.71897 0.84185 0.76381 0.0
C1850 C 0.7213 0.81646 0.75089 0.0
C1851 C 0.72517 0.80639 0.73722 0.0
C1852 C 0.71819 0.80919 0.72252 0.0
C1853 C 0.7213 0.7992 0.70986 0.0
C1854 C 0.73129 0.78632 0.7118 0.0
C1855 C 0.73822 0.78341 0.72639 0.0
C1856 C 0.73515 0.79337 0.73908 0.0
C1857 C 0.67762 0.80319 0.80408 0.0
C1858 C 0.68624 0.79303 0.81378 0.0
C1859 C 0.68524 0.81178 0.79228 0.0
C1860 C 0.70147 0.81004 0.78993 0.0
C1861 C 0.70997 0.79965 0.79945 0.0
C1862 C 0.70246 0.79144 0.81147 0.0
C1863 C 0.70949 0.81829 0.77694 0.0
C1864 C 0.71433 0.80937 0.76401 0.0
C1865 C 0.71204 0.83472 0.777 0.0
C1866 C 0.70827 0.84458 0.79085 0.0
C1867 C 0.71475 0.84108 0.80564 0.0
C1868 C 0.71175 0.85082 0.81852 0.0
C1869 C 0.70235 0.86416 0.81674 0.0
C1870 C 0.69593 0.86778 0.80207 0.0
C1871 C 0.69888 0.85808 0.78916 0.0
H1872 H 0.7001 0.87172 0.8267 0.0
H1873 H 0.73362 0.77856 0.702 0.0
H1874 H 0.04669 0.08227 0.43373 0.0
H1875 H 0.0637 0.07141 0.45424 0.0
H1876 H 0.02305 0.05369 0.47866 0.0
H1877 H 0.00597 0.06446 0.45811 0.0
H1878 H 0.04431 0.07053 0.49756 0.0
H1879 H 0.04448 0.03037 0.45848 0.0
H1880 H 0.04877 0.01749 0.43296 0.0
H1881 H 0.09816 0.02685 0.43637 0.0
H1882 H 0.09408 0.04003 0.46182 0.0
H1883 H 0.07382 0.01713 0.55296 0.0
H1884 H 0.06055 0.03052 0.53155 0.0
H1885 H 0.1051 0.03956 0.50928 0.0
H1886 H 0.11865 0.02596 0.53086 0.0
H1887 H 0.08406 0.02895 0.48847 0.0
H1888 H 0.08444 0.06957 0.5268 0.0
H1889 H 0.08038 0.08355 0.55184 0.0
H1890 H 0.03089 0.07446 0.54922 0.0
H1891 H 0.03466 0.06022 0.52429 0.0
C1892 C 0.04136 0.07621 0.44356 0.0
C1893 C 0.02497 0.07424 0.44438 0.0
C1894 C 0.05112 0.06986 0.45516 0.0
C1895 C 0.04465 0.06162 0.46786 0.0
C1896 C 0.02828 0.05995 0.46889 0.0
C1897 C 0.01853 0.0661 0.45719 0.0
C1898 C 0.05484 0.05526 0.48047 0.0
C1899 C 0.05289 0.0613 0.49563 0.0
C1900 C 0.06649 0.0437 0.47771 0.0
C1901 C 0.06889 0.03641 0.46202 0.0
C1902 C 0.0562 0.0299 0.4537 0.0
C1903 C 0.05861 0.02249 0.43925 0.0
C1904 C 0.07373 0.0214 0.43301 0.0
C1905 C 0.08645 0.02775 0.44119 0.0
C1906 C 0.08407 0.0352 0.45563 0.0
C1907 C 0.08091 0.02197 0.54357 0.0
C1908 C 0.09738 0.02044 0.54368 0.0
C1909 C 0.07325 0.02977 0.53136 0.0
C1910 C 0.08181 0.0363 0.51891 0.0
C1911 C 0.09825 0.0347 0.51883 0.0
C1912 C 0.10598 0.02691 0.53115 0.0
C1913 C 0.07337 0.04405 0.50569 0.0
C1914 C 0.07562 0.03829 0.49039 0.0
C1915 C 0.06206 0.05599 0.50825 0.0
C1916 C 0.05988 0.06365 0.52376 0.0
C1917 C 0.07272 0.07032 0.53169 0.0
C1918 C 0.07046 0.07836 0.54583 0.0
C1919 C 0.05539 0.07985 0.55213 0.0
C1920 C 0.04256 0.07326 0.54434 0.0
C1921 C 0.04475 0.0652 0.53021 0.0
H1922 H 0.05366 0.08616 0.56303 0.0
H1923 H 0.0756 0.01559 0.42185 0.0
H1924 H 0.29461 0.7024 0.82593 0.0
H1925 H 0.28142 0.69078 0.80332 0.0
H1926 H 0.32511 0.69132 0.77763 0.0
H1927 H 0.33815 0.70382 0.80005 0.0
H1928 H 0.30329 0.70115 0.75985 0.0
H1929 H 0.30634 0.65643 0.79544 0.0
H1930 H 0.30129 0.64185 0.81998 0.0
H1931 H 0.25165 0.64773 0.81353 0.0
H1932 H 0.25641 0.6625 0.78906 0.0
H1933 H 0.28816 0.65167 0.69708 0.0
H1934 H 0.29757 0.66098 0.72245 0.0
H1935 H 0.24996 0.66321 0.73949 0.0
H1936 H 0.24039 0.65371 0.71395 0.0
H1937 H 0.27061 0.653 0.76228 0.0
H1938 H 0.26695 0.69635 0.72687 0.0
H1939 H 0.27107 0.71188 0.70275 0.0
H1940 H 0.32097 0.70947 0.70942 0.0
H1941 H 0.31717 0.69372 0.73343 0.0
C1942 C 0.30141 0.69999 0.81546 0.0
C1943 C 0.31743 0.70395 0.81472 0.0
C1944 C 0.29387 0.6932 0.80258 0.0
C1945 C 0.3023 0.68978 0.78884 0.0
C1946 C 0.31834 0.69376 0.78812 0.0
C1947 C 0.3258 0.70092 0.80089 0.0
C1948 C 0.29433 0.6829 0.77488 0.0
C1949 C 0.2964 0.69045 0.76039 0.0
C1950 C 0.28455 0.66942 0.77566 0.0
C1951 C 0.28175 0.66072 0.7905 0.0
C1952 C 0.29436 0.65474 0.79933 0.0
C1953 C 0.29154 0.64641 0.81321 0.0
C1954 C 0.27616 0.64391 0.81833 0.0
C1955 C 0.26356 0.6497 0.80957 0.0
C1956 C 0.26631 0.65804 0.79569 0.0
C1957 C 0.27968 0.65381 0.70632 0.0
C1958 C 0.26353 0.65202 0.70349 0.0
C1959 C 0.28508 0.65925 0.72078 0.0
C1960 C 0.27444 0.66318 0.73272 0.0
C1961 C 0.25835 0.66037 0.73037 0.0
C1962 C 0.25291 0.65483 0.71583 0.0
C1963 C 0.28028 0.67086 0.74725 0.0
C1964 C 0.27761 0.66363 0.76182 0.0
C1965 C 0.28946 0.68471 0.74662 0.0
C1966 C 0.29177 0.6937 0.73187 0.0
C1967 C 0.27881 0.69896 0.72309 0.0
C1968 C 0.28108 0.70785 0.70946 0.0
C1969 C 0.29626 0.71163 0.70454 0.0
C1970 C 0.30921 0.70651 0.71323 0.0
C1971 C 0.30701 0.69761 0.72684 0.0
H1972 H 0.298 0.71856 0.69403 0.0
H1973 H 0.27401 0.63744 0.82907 0.0
H1974 H 0.99467 0.4532 0.45244 0.0
H1975 H 0.97844 0.46641 0.47194 0.0
H1976 H 0.93821 0.43963 0.45691 0.0
H1977 H 0.95442 0.42641 0.43704 0.0
H1978 H 0.93112 0.47188 0.46295 0.0
H1979 H 0.95567 0.42828 0.48917 0.0
H1980 H 0.97875 0.41177 0.49495 0.0
H1981 H 0.00197 0.45126 0.51602 0.0
H1982 H 0.97907 0.46807 0.51018 0.0
H1983 H 0.88959 0.47743 0.53842 0.0
H1984 H 0.9027 0.4678 0.51454 0.0
H1985 H 0.9393 0.50218 0.52078 0.0
H1986 H 0.92587 0.51233 0.54416 0.0
H1987 H 0.94755 0.46636 0.51865 0.0
H1988 H 0.9227 0.50987 0.49288 0.0
H1989 H 0.90038 0.52678 0.48554 0.0
H1990 H 0.87792 0.48769 0.46295 0.0
H1991 H 0.90001 0.47045 0.47042 0.0
C1992 C 0.9824 0.44999 0.45329 0.0
C1993 C 0.97593 0.43853 0.4433 0.0
C1994 C 0.9731 0.45765 0.46441 0.0
C1995 C 0.95712 0.45397 0.46597 0.0
C1996 C 0.95051 0.44269 0.4559 0.0
C1997 C 0.95984 0.435 0.44469 0.0
C1998 C 0.94772 0.46124 0.47882 0.0
C1999 C 0.93456 0.4705 0.47514 0.0
C2000 C 0.95236 0.45969 0.49471 0.0
C2001 C 0.96568 0.44942 0.49923 0.0
C2002 C 0.96569 0.43342 0.49508 0.0
C2003 C 0.97874 0.42403 0.49833 0.0
C2004 C 0.99182 0.43047 0.50584 0.0
C2005 C 0.99182 0.44629 0.51022 0.0
C2006 C 0.97878 0.45576 0.50699 0.0
C2007 C 0.90015 0.48324 0.53437 0.0
C2008 C 0.90656 0.49578 0.54298 0.0
C2009 C 0.90767 0.47769 0.52081 0.0
C2010 C 0.92197 0.48427 0.51592 0.0
C2011 C 0.92822 0.49701 0.5243 0.0
C2012 C 0.92046 0.50289 0.53757 0.0
C2013 C 0.93095 0.47704 0.50281 0.0
C2014 C 0.94405 0.46771 0.50647 0.0
C2015 C 0.92619 0.47853 0.48696 0.0
C2016 C 0.91289 0.48881 0.48243 0.0
C2017 C 0.9129 0.50482 0.48653 0.0
C2018 C 0.90032 0.51448 0.4823 0.0
C2019 C 0.8877 0.5083 0.47384 0.0
C2020 C 0.88768 0.49245 0.46955 0.0
C2021 C 0.90023 0.48273 0.47377 0.0
H2022 H 0.87797 0.5158 0.47057 0.0
H2023 H 0.00196 0.42319 0.50827 0.0
H2024 H 0.70132 0.19966 0.67412 0.0
H2025 H 0.71199 0.18566 0.69664 0.0
H2026 H 0.67453 0.20353 0.72567 0.0
H2027 H 0.66379 0.21785 0.70306 0.0
H2028 H 0.70322 0.20757 0.73893 0.0
H2029 H 0.67564 0.16484 0.71398 0.0
H2030 H 0.66863 0.14701 0.69226 0.0
H2031 H 0.71656 0.13174 0.68893 0.0
H2032 H 0.7239 0.14965 0.71046 0.0
H2033 H 0.72077 0.16303 0.80607 0.0
H2034 H 0.70741 0.17358 0.78307 0.0
H2035 H 0.74322 0.15396 0.7531 0.0
H2036 H 0.75667 0.14316 0.77616 0.0
H2037 H 0.71506 0.1505 0.7402 0.0
H2038 H 0.74361 0.19266 0.76312 0.0
H2039 H 0.75273 0.21143 0.78319 0.0
H2040 H 0.70575 0.22885 0.78867 0.0
H2041 H 0.69629 0.20998 0.76884 0.0
C2042 C 0.69525 0.20057 0.68526 0.0
C2043 C 0.68171 0.20993 0.68682 0.0
C2044 C 0.70132 0.19244 0.6981 0.0
C2045 C 0.69395 0.19339 0.71278 0.0
C2046 C 0.68035 0.20259 0.7144 0.0
C2047 C 0.67422 0.21075 0.70149 0.0
C2048 C 0.70109 0.1856 0.72663 0.0
C2049 C 0.7055 0.19503 0.73938 0.0
C2050 C 0.70475 0.16937 0.72682 0.0
C2051 C 0.70034 0.1587 0.71376 0.0
C2052 C 0.68471 0.15779 0.70852 0.0
C2053 C 0.68068 0.14764 0.69625 0.0
C2054 C 0.69215 0.13827 0.68919 0.0
C2055 C 0.70768 0.13902 0.69439 0.0
C2056 C 0.71179 0.14916 0.70663 0.0
C2057 C 0.72574 0.16076 0.79458 0.0
C2058 C 0.73986 0.15233 0.79295 0.0
C2059 C 0.71813 0.16692 0.78145 0.0
C2060 C 0.72451 0.16488 0.76641 0.0
C2061 C 0.73816 0.15577 0.76463 0.0
C2062 C 0.74579 0.14954 0.7778 0.0
C2063 C 0.717 0.17244 0.75262 0.0
C2064 C 0.71262 0.16301 0.73985 0.0
C2065 C 0.71363 0.18875 0.75226 0.0
C2066 C 0.7192 0.19972 0.76464 0.0
C2067 C 0.73518 0.20032 0.76877 0.0
C2068 C 0.74042 0.21102 0.78007 0.0
C2069 C 0.72982 0.22129 0.78724 0.0
C2070 C 0.71394 0.22086 0.78314 0.0
C2071 C 0.70863 0.21015 0.77188 0.0
H2072 H 0.73391 0.22961 0.79593 0.0
H2073 H 0.68899 0.13041 0.67972 0.0
H2074 H 0.4199 0.0144 0.45325 0.0
H2075 H 0.43341 0.02594 0.47565 0.0
H2076 H 0.38875 0.03598 0.49747 0.0
H2077 H 0.37519 0.02541 0.47421 0.0
H2078 H 0.40586 0.05942 0.5018 0.0
H2079 H 0.41603 0.00494 0.50921 0.0
H2080 H 0.42451 0.97808 0.50246 0.0
H2081 H 0.47149 0.99454 0.49464 0.0
H2082 H 0.46324 0.02157 0.50097 0.0
H2083 H 0.44741 0.08276 0.57131 0.0
H2084 H 0.43015 0.07014 0.55228 0.0
H2085 H 0.47023 0.05894 0.52334 0.0
H2086 H 0.48766 0.07054 0.54304 0.0
H2087 H 0.45283 0.03465 0.52567 0.0
H2088 H 0.44076 0.09011 0.51627 0.0
H2089 H 0.43169 0.11626 0.5249 0.0
H2090 H 0.38743 0.0966 0.53882 0.0
H2091 H 0.39632 0.0703 0.53052 0.0
C2092 C 0.41299 0.01883 0.46298 0.0
C2093 C 0.39654 0.01873 0.46225 0.0
C2094 C 0.42072 0.02537 0.47585 0.0
C2095 C 0.41218 0.03147 0.48859 0.0
C2096 C 0.39565 0.03124 0.4879 0.0
C2097 C 0.38789 0.02509 0.47472 0.0
C2098 C 0.42061 0.03881 0.50211 0.0
C2099 C 0.41599 0.05385 0.50716 0.0
C2100 C 0.43393 0.03168 0.50917 0.0
C2101 C 0.43895 0.01535 0.50543 0.0
C2102 C 0.42814 0.00287 0.50592 0.0
C2103 C 0.43291 0.98761 0.50216 0.0
C2104 C 0.44851 0.98462 0.49807 0.0
C2105 C 0.45939 0.99688 0.49776 0.0
C2106 C 0.45467 0.01218 0.50143 0.0
C2107 C 0.45252 0.07785 0.56074 0.0
C2108 C 0.46888 0.07778 0.55853 0.0
C2109 C 0.44261 0.07064 0.54984 0.0
C2110 C 0.4488 0.06376 0.53619 0.0
C2111 C 0.46514 0.06413 0.53378 0.0
C2112 C 0.4751 0.07088 0.54494 0.0
C2113 C 0.43851 0.05546 0.52475 0.0
C2114 C 0.44269 0.04015 0.52026 0.0
C2115 C 0.42472 0.06227 0.51837 0.0
C2116 C 0.41926 0.07821 0.52288 0.0
C2117 C 0.42911 0.09136 0.52121 0.0
C2118 C 0.42401 0.10621 0.52606 0.0
C2119 C 0.40901 0.10808 0.53243 0.0
C2120 C 0.39905 0.09513 0.5339 0.0
C2121 C 0.40411 0.08025 0.52912 0.0
H2122 H 0.40509 0.11958 0.5362 0.0
H2123 H 0.45216 0.97279 0.49517 0.0
H2124 H 0.3252 0.32584 0.68103 0.0
H2125 H 0.31256 0.33681 0.70441 0.0
H2126 H 0.30171 0.29006 0.72064 0.0
H2127 H 0.31465 0.27893 0.69738 0.0
H2128 H 0.2757 0.31536 0.7204 0.0
H2129 H 0.3282 0.30325 0.73849 0.0
H2130 H 0.35697 0.30395 0.73546 0.0
H2131 H 0.35605 0.35439 0.73638 0.0
H2132 H 0.32721 0.35398 0.73914 0.0
H2133 H 0.25254 0.33266 0.79847 0.0
H2134 H 0.26226 0.32235 0.77366 0.0
H2135 H 0.29122 0.36363 0.76788 0.0
H2136 H 0.2825 0.37323 0.7936 0.0
H2137 H 0.30788 0.34076 0.76177 0.0
H2138 H 0.25535 0.35326 0.74578 0.0
H2139 H 0.22643 0.35296 0.74643 0.0
H2140 H 0.22651 0.30304 0.73922 0.0
H2141 H 0.25542 0.30293 0.73903 0.0
C2142 C 0.32017 0.31791 0.68962 0.0
C2143 C 0.32101 0.30156 0.68754 0.0
C2144 C 0.31294 0.32418 0.70288 0.0
C2145 C 0.30621 0.3142 0.7141 0.0
C2146 C 0.30683 0.29788 0.712 0.0
C2147 C 0.31434 0.29157 0.69885 0.0
C2148 C 0.29897 0.32091 0.72828 0.0
C2149 C 0.28262 0.32075 0.72964 0.0
C2150 C 0.30816 0.32831 0.73989 0.0
C2151 C 0.32554 0.32858 0.73888 0.0
C2152 C 0.33412 0.31449 0.73795 0.0
C2153 C 0.35044 0.31484 0.73629 0.0
C2154 C 0.35833 0.32921 0.73568 0.0
C2155 C 0.34992 0.34327 0.73684 0.0
C2156 C 0.33359 0.34299 0.73846 0.0
C2157 C 0.26067 0.33972 0.79168 0.0
C2158 C 0.26662 0.35386 0.79774 0.0
C2159 C 0.26621 0.33383 0.77744 0.0
C2160 C 0.27729 0.3423 0.76863 0.0
C2161 C 0.28268 0.35684 0.77441 0.0
C2162 C 0.27759 0.36243 0.78899 0.0
C2163 C 0.28426 0.33542 0.75416 0.0
C2164 C 0.30071 0.33548 0.75267 0.0
C2165 C 0.27506 0.32803 0.74235 0.0
C2166 C 0.25761 0.32809 0.74257 0.0
C2167 C 0.24922 0.34219 0.74451 0.0
C2168 C 0.23281 0.34209 0.7448 0.0
C2169 C 0.22464 0.32799 0.74292 0.0
C2170 C 0.23285 0.31396 0.74069 0.0
C2171 C 0.24925 0.31397 0.74054 0.0
H2172 H 0.21194 0.32794 0.74315 0.0
H2173 H 0.37096 0.32946 0.73436 0.0
H2174 H 0.58613 0.50999 0.46064 0.0
H2175 H 0.57348 0.49892 0.48379 0.0
H2176 H 0.61634 0.47436 0.49547 0.0
H2177 H 0.62844 0.4843 0.47131 0.0
H2178 H 0.59549 0.45535 0.49918 0.0
H2179 H 0.59848 0.50874 0.51605 0.0
H2180 H 0.59485 0.53747 0.51508 0.0
H2181 H 0.54484 0.53144 0.51431 0.0
H2182 H 0.54814 0.50268 0.51479 0.0
H2183 H 0.57144 0.43459 0.57639 0.0
H2184 H 0.58378 0.44796 0.55423 0.0
H2185 H 0.53826 0.45658 0.53383 0.0
H2186 H 0.52574 0.443 0.55607 0.0
H2187 H 0.5598 0.48376 0.53535 0.0
H2188 H 0.55863 0.42948 0.5181 0.0
H2189 H 0.56363 0.40124 0.52232 0.0
H2190 H 0.61289 0.41048 0.52758 0.0
H2191 H 0.60815 0.43881 0.52365 0.0
C2192 C 0.59295 0.50251 0.46838 0.0
C2193 C 0.60834 0.49816 0.46437 0.0
C2194 C 0.58571 0.49621 0.48171 0.0
C2195 C 0.59393 0.48593 0.49172 0.0
C2196 C 0.60963 0.48219 0.48801 0.0
C2197 C 0.61665 0.48801 0.47431 0.0
C2198 C 0.58585 0.47806 0.50522 0.0
C2199 C 0.58793 0.46175 0.50718 0.0
C2200 C 0.57558 0.48614 0.51563 0.0
C2201 C 0.57358 0.50349 0.51526 0.0
C2202 C 0.58671 0.51352 0.5155 0.0
C2203 C 0.58471 0.52982 0.51503 0.0
C2204 C 0.56963 0.53627 0.51455 0.0
C2205 C 0.55652 0.52643 0.51463 0.0
C2206 C 0.55845 0.51012 0.51497 0.0
C2207 C 0.56404 0.43917 0.56711 0.0
C2208 C 0.54763 0.43764 0.56788 0.0
C2209 C 0.57111 0.44685 0.55449 0.0
C2210 C 0.56193 0.45327 0.54242 0.0
C2211 C 0.54553 0.45172 0.54307 0.0
C2212 C 0.53841 0.44381 0.55565 0.0
C2213 C 0.56964 0.46139 0.52908 0.0
C2214 C 0.56744 0.47761 0.52722 0.0
C2215 C 0.58008 0.45338 0.519 0.0
C2216 C 0.58302 0.43627 0.52066 0.0
C2217 C 0.57052 0.42549 0.5202 0.0
C2218 C 0.57331 0.40947 0.52255 0.0
C2219 C 0.58856 0.40407 0.52524 0.0
C2220 C 0.60108 0.41467 0.5255 0.0
C2221 C 0.59835 0.43071 0.52319 0.0
H2222 H 0.59069 0.39167 0.52711 0.0
H2223 H 0.5681 0.5489 0.51418 0.0
H2224 H 0.70939 0.76036 0.83406 0.0
H2225 H 0.7341 0.75029 0.82317 0.0
H2226 H 0.73399 0.71299 0.85746 0.0
H2227 H 0.70891 0.72273 0.86794 0.0
H2228 H 0.76503 0.7288 0.85082 0.0
H2229 H 0.72075 0.70318 0.82559 0.0
H2230 H 0.6962 0.70146 0.81036 0.0
H2231 H 0.7177 0.72656 0.77227 0.0
H2232 H 0.74231 0.72864 0.78739 0.0
H2233 H 0.81682 0.67288 0.81731 0.0
H2234 H 0.7958 0.68749 0.83022 0.0
H2235 H 0.78569 0.71136 0.78658 0.0
H2236 H 0.80608 0.69594 0.77346 0.0
H2237 H 0.76029 0.70432 0.79819 0.0
H2238 H 0.80495 0.72916 0.82142 0.0
H2239 H 0.82993 0.73178 0.83583 0.0
H2240 H 0.80913 0.71038 0.87646 0.0
H2241 H 0.78407 0.70748 0.86226 0.0
C2242 C 0.71495 0.75035 0.83959 0.0
C2243 C 0.70746 0.74247 0.85199 0.0
C2244 C 0.72895 0.74451 0.83327 0.0
C2245 C 0.73582 0.73086 0.83948 0.0
C2246 C 0.72887 0.72355 0.85254 0.0
C2247 C 0.71463 0.72915 0.85856 0.0
C2248 C 0.74953 0.72353 0.83163 0.0
C2249 C 0.76406 0.72334 0.83935 0.0
C2250 C 0.74831 0.71686 0.81648 0.0
C2251 C 0.73327 0.71631 0.80774 0.0
C2252 C 0.72015 0.70858 0.81409 0.0
C2253 C 0.70625 0.70747 0.80544 0.0
C2254 C 0.70536 0.71396 0.79038 0.0
C2255 C 0.71837 0.72159 0.78395 0.0
C2256 C 0.7323 0.72276 0.79256 0.0
C2257 C 0.80998 0.68115 0.81047 0.0
C2258 C 0.81289 0.6831 0.79434 0.0
C2259 C 0.79813 0.68972 0.81792 0.0
C2260 C 0.78926 0.70086 0.80954 0.0
C2261 C 0.79228 0.70286 0.79338 0.0
C2262 C 0.80386 0.69396 0.78583 0.0
C2263 C 0.77612 0.70956 0.81725 0.0
C2264 C 0.76155 0.70996 0.80955 0.0
C2265 C 0.77745 0.71667 0.83229 0.0
C2266 C 0.79266 0.71796 0.8407 0.0
C2267 C 0.80574 0.72486 0.83337 0.0
C2268 C 0.81991 0.72644 0.84152 0.0
C2269 C 0.82113 0.72121 0.85703 0.0
C2270 C 0.80818 0.7144 0.86444 0.0
C2271 C 0.79399 0.7128 0.85635 0.0
H2272 H 0.83209 0.72247 0.86333 0.0
H2273 H 0.69461 0.71301 0.78367 0.0
H2274 H 0.90379 0.96968 0.47008 0.0
H2275 H 0.91785 0.98882 0.4537 0.0
H2276 H 0.95294 0.95394 0.4429 0.0
H2277 H 0.93907 0.93483 0.45905 0.0
H2278 H 0.96532 0.9833 0.45209 0.0
H2279 H 0.92884 0.9621 0.4143 0.0
H2280 H 0.9025 0.95406 0.40532 0.0
H2281 H 0.88569 1.00122 0.41167 0.0
H2282 H 0.91195 0.00951 0.42073 0.0
H2283 H 0.00305 0.03536 0.39804 0.0
H2284 H 0.99127 0.01153 0.40928 0.0
H2285 H 0.94705 0.03587 0.41408 0.0
H2286 H 0.95835 0.05906 0.40224 0.0
H2287 H 0.94071 0.0085 0.40568 0.0
H2288 H 0.97431 0.02908 0.4473 0.0
H2289 H 0.99849 0.03692 0.46116 0.0
H2290 H 0.01951 0.99238 0.45033 0.0
H2291 H 0.9953 0.98416 0.43664 0.0
C2292 C 0.91449 0.96611 0.46422 0.0
C2293 C 0.92025 0.95073 0.46583 0.0
C2294 C 0.92246 0.97701 0.45482 0.0
C2295 C 0.93635 0.9727 0.44702 0.0
C2296 C 0.94223 0.95746 0.44879 0.0
C2297 C 0.93423 0.94656 0.45801 0.0
C2298 C 0.94494 0.98419 0.43721 0.0
C2299 C 0.96009 0.98866 0.44177 0.0
C2300 C 0.938 0.99126 0.42393 0.0
C2301 C 0.92231 0.9864 0.41823 0.0
C2302 C 0.9195 0.97073 0.41382 0.0
C2303 C 0.90461 0.96614 0.4087 0.0
C2304 C 0.89243 0.97712 0.40794 0.0
C2305 C 0.89514 0.99273 0.41224 0.0
C2306 C 0.91004 0.9974 0.41732 0.0
C2307 C 0.99075 0.03547 0.40123 0.0
C2308 C 0.98167 0.04913 0.39921 0.0
C2309 C 0.98406 0.02192 0.40784 0.0
C2310 C 0.96829 0.02193 0.41281 0.0
C2311 C 0.9592 0.03544 0.41033 0.0
C2312 C 0.96574 0.04878 0.40353 0.0
C2313 C 0.96105 0.00818 0.42084 0.0
C2314 C 0.94613 0.0031 0.41587 0.0
C2315 C 0.96813 1.00071 0.43393 0.0
C2316 C 0.98312 0.00611 0.4408 0.0
C2317 C 0.98418 0.02107 0.44767 0.0
C2318 C 0.99785 0.02555 0.45555 0.0
C2319 C 0.01053 0.01519 0.45656 0.0
C2320 C 0.00967 1.00039 0.44953 0.0
C2321 C 0.99597 0.99579 0.44175 0.0
H2322 H 0.02092 0.01853 0.46301 0.0
H2323 H 0.88089 0.97353 0.40401 0.0
H2324 H 0.17814 0.80659 0.80335 0.0
H2325 H 0.19875 0.79185 0.81649 0.0
H2326 H 0.23356 0.8149 0.7878 0.0
H2327 H 0.21266 0.82927 0.77395 0.0
H2328 H 0.24069 0.7853 0.79058 0.0
H2329 H 0.22486 0.82472 0.82839 0.0
H2330 H 0.20585 0.83896 0.84498 0.0
H2331 H 0.19404 0.79603 0.8687 0.0
H2332 H 0.21277 0.78149 0.85209 0.0
H2333 H 0.30669 0.7647 0.83638 0.0
H2334 H 0.28561 0.77955 0.82394 0.0
H2335 H 0.25132 0.75258 0.8496 0.0
H2336 H 0.27246 0.73747 0.86212 0.0
H2337 H 0.24373 0.78385 0.84876 0.0
H2338 H 0.25832 0.74432 0.81224 0.0
H2339 H 0.27552 0.72841 0.79525 0.0
H2340 H 0.28795 0.76959 0.7689 0.0
H2341 H 0.27109 0.78583 0.78596 0.0
C2342 C 0.19018 0.80861 0.79983 0.0
C2343 C 0.19377 0.81927 0.7877 0.0
C2344 C 0.20201 0.8002 0.80746 0.0
C2345 C 0.21784 0.80253 0.80353 0.0
C2346 C 0.22147 0.81297 0.7912 0.0
C2347 C 0.20954 0.82121 0.78329 0.0
C2348 C 0.23049 0.79382 0.81208 0.0
C2349 C 0.24152 0.78526 0.8033 0.0
C2350 C 0.23124 0.79315 0.82874 0.0
C2351 C 0.22015 0.80199 0.8389 0.0
C2352 C 0.21815 0.8183 0.83709 0.0
C2353 C 0.20742 0.82643 0.84649 0.0
C2354 C 0.19872 0.8184 0.85786 0.0
C2355 C 0.20077 0.80224 0.85988 0.0
C2356 C 0.21145 0.79405 0.85048 0.0
C2357 C 0.29469 0.76198 0.83957 0.0
C2358 C 0.29132 0.7498 0.85028 0.0
C2359 C 0.28262 0.77045 0.83232 0.0
C2360 C 0.26685 0.76705 0.83562 0.0
C2361 C 0.26341 0.75536 0.84678 0.0
C2362 C 0.27551 0.74673 0.85395 0.0
C2363 C 0.25404 0.7756 0.82723 0.0
C2364 C 0.24297 0.78404 0.83604 0.0
C2365 C 0.25312 0.77602 0.8106 0.0
C2366 C 0.26359 0.76634 0.80054 0.0
C2367 C 0.26489 0.75003 0.80297 0.0
C2368 C 0.27455 0.74094 0.7933 0.0
C2369 C 0.28286 0.74799 0.78103 0.0
C2370 C 0.28154 0.76415 0.77843 0.0
C2371 C 0.27194 0.77331 0.78811 0.0
H2372 H 0.29029 0.74092 0.77352 0.0
H2373 H 0.19042 0.82471 0.86512 0.0
H2374 H 0.08172 0.57523 0.44541 0.0
H2375 H 0.07129 0.55491 0.42782 0.0
H2376 H 0.0493 0.53208 0.4673 0.0
H2377 H 0.05937 0.55244 0.48489 0.0
H2378 H 0.06995 0.51312 0.44709 0.0
H2379 H 0.02733 0.55136 0.44454 0.0
H2380 H 0.01521 0.57682 0.43791 0.0
H2381 H 0.02823 0.57079 0.38957 0.0
H2382 H 0.04069 0.54541 0.39596 0.0
H2383 H 0.02321 0.45219 0.42396 0.0
H2384 H 0.03348 0.47614 0.43501 0.0
H2385 H 0.03245 0.49776 0.38909 0.0
H2386 H 0.01955 0.47409 0.37845 0.0
H2387 H 0.02708 0.51911 0.40813 0.0
H2388 H 0.06811 0.48087 0.40902 0.0
H2389 H 0.08154 0.45576 0.41447 0.0
H2390 H 0.07424 0.46223 0.46395 0.0
H2391 H 0.06059 0.48723 0.4588 0.0
C2392 C 0.07473 0.56582 0.45035 0.0
C2393 C 0.07149 0.56531 0.46658 0.0
C2394 C 0.06864 0.55436 0.44025 0.0
C2395 C 0.05941 0.54214 0.44627 0.0
C2396 C 0.05631 0.54153 0.46245 0.0
C2397 C 0.06215 0.55309 0.47249 0.0
C2398 C 0.05394 0.52918 0.43609 0.0
C2399 C 0.06052 0.51435 0.4386 0.0
C2400 C 0.04225 0.53108 0.42445 0.0
C2401 C 0.03519 0.5466 0.42079 0.0
C2402 C 0.02786 0.55558 0.43255 0.0
C2403 C 0.02085 0.56997 0.42881 0.0
C2404 C 0.02101 0.57545 0.41334 0.0
C2405 C 0.02817 0.56656 0.40156 0.0
C2406 C 0.03521 0.55218 0.40524 0.0
C2407 C 0.02443 0.46224 0.41633 0.0
C2408 C 0.01999 0.46147 0.40049 0.0
C2409 C 0.03092 0.47585 0.42256 0.0
C2410 C 0.03447 0.48867 0.41283 0.0
C2411 C 0.02999 0.48801 0.39689 0.0
C2412 C 0.02263 0.47453 0.39079 0.0
C2413 C 0.0426 0.50266 0.4196 0.0
C2414 C 0.03669 0.51776 0.41639 0.0
C2415 C 0.05523 0.50111 0.43042 0.0
C2416 C 0.06327 0.48592 0.43349 0.0
C2417 C 0.06928 0.47689 0.42105 0.0
C2418 C 0.07694 0.46267 0.42409 0.0
C2419 C 0.07873 0.4574 0.43954 0.0
C2420 C 0.07286 0.46632 0.45199 0.0
C2421 C 0.06517 0.48052 0.44901 0.0
H2422 H 0.08469 0.44641 0.44187 0.0
H2423 H 0.01553 0.58657 0.41047 0.0
H2424 H 0.79479 0.32985 0.72142 0.0
H2425 H 0.77169 0.31817 0.7088 0.0
H2426 H 0.80131 0.29802 0.673 0.0
H2427 H 0.82426 0.30983 0.68527 0.0
H2428 H 0.77578 0.311 0.66008 0.0
H2429 H 0.78361 0.27143 0.70303 0.0
H2430 H 0.78609 0.26325 0.7308 0.0
H2431 H 0.74547 0.29041 0.74282 0.0
H2432 H 0.74227 0.29817 0.71504 0.0
H2433 H 0.72447 0.25111 0.62935 0.0
H2434 H 0.74615 0.26655 0.64051 0.0
H2435 H 0.71455 0.28642 0.67471 0.0
H2436 H 0.69301 0.27133 0.66371 0.0
H2437 H 0.7402 0.27479 0.68862 0.0
H2438 H 0.72834 0.30928 0.64666 0.0
H2439 H 0.72315 0.31758 0.61941 0.0
H2440 H 0.76964 0.30344 0.606 0.0
H2441 H 0.77504 0.29485 0.63317 0.0
C2442 C 0.79636 0.32294 0.71085 0.0
C2443 C 0.81138 0.32081 0.70437 0.0
C2444 C 0.78316 0.31617 0.70371 0.0
C2445 C 0.78476 0.30703 0.69003 0.0
C2446 C 0.79974 0.305 0.68352 0.0
C2447 C 0.81288 0.31178 0.6906 0.0
C2448 C 0.77091 0.29974 0.68224 0.0
C2449 C 0.76811 0.30292 0.66627 0.0
C2450 C 0.76053 0.28967 0.69038 0.0
C2451 C 0.76282 0.28552 0.70707 0.0
C2452 C 0.77529 0.27574 0.71164 0.0
C2453 C 0.77681 0.27114 0.72734 0.0
C2454 C 0.76615 0.27651 0.73858 0.0
C2455 C 0.75378 0.28632 0.73412 0.0
C2456 C 0.75201 0.29071 0.71839 0.0
C2457 C 0.72212 0.25894 0.6391 0.0
C2458 C 0.707 0.25986 0.64566 0.0
C2459 C 0.7345 0.26777 0.64545 0.0
C2460 C 0.73197 0.27759 0.6585 0.0
C2461 C 0.71681 0.27887 0.66471 0.0
C2462 C 0.70447 0.27021 0.65833 0.0
C2463 C 0.74519 0.28583 0.66638 0.0
C2464 C 0.74787 0.28284 0.68238 0.0
C2465 C 0.75523 0.29631 0.65831 0.0
C2466 C 0.75202 0.30123 0.64191 0.0
C2467 C 0.7374 0.30777 0.63787 0.0
C2468 C 0.73443 0.31257 0.62245 0.0
C2469 C 0.74604 0.31099 0.61097 0.0
C2470 C 0.76065 0.30463 0.6149 0.0
C2471 C 0.76367 0.2998 0.63031 0.0
H2472 H 0.74373 0.31473 0.59904 0.0
H2473 H 0.7674 0.27296 0.75073 0.0
H2474 H 0.59366 0.95624 0.56429 0.0
H2475 H 0.57682 0.97633 0.57608 0.0
H2476 H 0.53809 0.96061 0.54737 0.0
H2477 H 0.55536 0.94159 0.53457 0.0
H2478 H 0.53524 0.98931 0.54901 0.0
H2479 H 0.54265 0.95171 0.58984 0.0
H2480 H 0.55682 0.9342 0.6081 0.0
H2481 H 0.58104 0.97384 0.6277 0.0
H2482 H 0.56709 0.99158 0.6095 0.0
H2483 H 0.48535 0.03934 0.59599 0.0
H2484 H 0.49625 0.01485 0.58524 0.0
H2485 H 0.54237 0.02856 0.60099 0.0
H2486 H 0.53164 0.05265 0.61192 0.0
H2487 H 0.53706 0.99793 0.60655 0.0
H2488 H 0.52954 0.03419 0.56129 0.0
H2489 H 0.51283 0.04996 0.54357 0.0
H2490 H 0.48457 0.00936 0.53375 0.0
H2491 H 0.50091 0.99348 0.55169 0.0
C2492 C 0.58161 0.95732 0.56035 0.0
C2493 C 0.57585 0.94753 0.54843 0.0
C2494 C 0.57187 0.96862 0.56727 0.0
C2495 C 0.55594 0.96981 0.56299 0.0
C2496 C 0.55027 0.96007 0.55091 0.0
C2497 C 0.56017 0.9492 0.54357 0.0
C2498 C 0.54531 0.98137 0.5709 0.0
C2499 C 0.53542 0.99087 0.56164 0.0
C2500 C 0.54534 0.98359 0.58741 0.0
C2501 C 0.5539 0.97295 0.59824 0.0
C2502 C 0.55108 0.95667 0.59798 0.0
C2503 C 0.55904 0.94671 0.60833 0.0
C2504 C 0.56984 0.9529 0.61903 0.0
C2505 C 0.57268 0.96907 0.61941 0.0
C2506 C 0.56472 0.97908 0.6091 0.0
C2507 C 0.49775 0.03695 0.59744 0.0
C2508 C 0.50762 0.04796 0.60482 0.0
C2509 C 0.50399 0.02304 0.59114 0.0
C2510 C 0.52018 0.01997 0.5921 0.0
C2511 C 0.52986 0.03065 0.60007 0.0
C2512 C 0.52368 0.04446 0.60633 0.0
C2513 C 0.52746 0.00596 0.58461 0.0
C2514 C 0.53669 0.99601 0.59396 0.0
C2515 C 0.52639 0.00299 0.5683 0.0
C2516 C 0.51645 0.01266 0.55778 0.0
C2517 C 0.51971 0.02867 0.55541 0.0
C2518 C 0.51029 0.03762 0.54535 0.0
C2519 C 0.49766 0.03066 0.53753 0.0
C2520 C 0.49437 0.01474 0.5398 0.0
C2521 C 0.50371 0.00576 0.54989 0.0
H2522 H 0.49043 0.03758 0.5297 0.0
H2523 H 0.576 0.94517 0.62704 0.0
H2524 H 0.27363 0.2742 0.64837 0.0
H2525 H 0.25281 0.25794 0.65964 0.0
H2526 H 0.2856 0.21972 0.66539 0.0
H2527 H 0.30626 0.23568 0.65348 0.0
H2528 H 0.25825 0.20808 0.65806 0.0
H2529 H 0.27557 0.24556 0.69686 0.0
H2530 H 0.28167 0.27189 0.70728 0.0
H2531 H 0.23403 0.28638 0.69948 0.0
H2532 H 0.22766 0.26014 0.6889 0.0
H2533 H 0.21155 0.16885 0.71694 0.0
H2534 H 0.23327 0.18275 0.70387 0.0
H2535 H 0.20166 0.22016 0.69091 0.0
H2536 H 0.18013 0.2065 0.70373 0.0
H2537 H 0.22933 0.23142 0.70294 0.0
H2538 H 0.2123 0.19476 0.66323 0.0
H2539 H 0.20558 0.16831 0.65347 0.0
H2540 H 0.2523 0.15235 0.66374 0.0
H2541 H 0.25925 0.17871 0.67366 0.0
C2542 C 0.27631 0.26222 0.65172 0.0
C2543 C 0.29161 0.25628 0.65005 0.0
C2544 C 0.26444 0.25297 0.65834 0.0
C2545 C 0.2677 0.23772 0.66384 0.0
C2546 C 0.28276 0.23146 0.66136 0.0
C2547 C 0.29457 0.24061 0.65448 0.0
C2548 C 0.25564 0.22859 0.67271 0.0
C2549 C 0.25212 0.21314 0.66801 0.0
C2550 C 0.24739 0.23515 0.68562 0.0
C2551 C 0.25118 0.25093 0.69198 0.0
C2552 C 0.26642 0.25439 0.69729 0.0
C2553 C 0.26992 0.2693 0.70324 0.0
C2554 C 0.25825 0.28082 0.70401 0.0
C2555 C 0.24305 0.27745 0.69887 0.0
C2556 C 0.23948 0.26256 0.69292 0.0
C2557 C 0.20927 0.18003 0.71129 0.0
C2558 C 0.19409 0.18649 0.71131 0.0
C2559 C 0.22166 0.18794 0.7038 0.0
C2560 C 0.21906 0.20249 0.69636 0.0
C2561 C 0.20396 0.209 0.69658 0.0
C2562 C 0.19163 0.20108 0.70387 0.0
C2563 C 0.23193 0.21105 0.6882 0.0
C2564 C 0.23558 0.22637 0.69305 0.0
C2565 C 0.24027 0.20438 0.67548 0.0
C2566 C 0.23626 0.18864 0.66927 0.0
C2567 C 0.22112 0.18558 0.66346 0.0
C2568 C 0.21727 0.17062 0.65789 0.0
C2569 C 0.2285 0.15865 0.65801 0.0
C2570 C 0.24362 0.16164 0.66365 0.0
C2571 C 0.24753 0.17659 0.66922 0.0
H2572 H 0.22549 0.14706 0.65372 0.0
H2573 H 0.26099 0.29235 0.70861 0.0
H2574 H 0.51707 0.47614 0.60188 0.0
H2575 H 0.50681 0.50105 0.59138 0.0
H2576 H 0.45952 0.48393 0.59714 0.0
H2577 H 0.46961 0.45923 0.60745 0.0
H2578 H 0.46478 0.4937 0.56745 0.0
H2579 H 0.47398 0.51311 0.6202 0.0
H2580 H 0.49067 0.51821 0.64331 0.0
H2581 H 0.52083 0.54738 0.61535 0.0
H2582 H 0.50441 0.54228 0.59201 0.0
H2583 H 0.41453 0.56059 0.56224 0.0
H2584 H 0.43047 0.53956 0.574 0.0
H2585 H 0.47118 0.55646 0.54915 0.0
H2586 H 0.45509 0.57705 0.53677 0.0
H2587 H 0.47259 0.54823 0.58654 0.0
H2588 H 0.46374 0.52905 0.53394 0.0
H2589 H 0.44698 0.52435 0.51081 0.0
H2590 H 0.41696 0.49464 0.53835 0.0
H2591 H 0.43338 0.49945 0.56176 0.0
C2592 C 0.5045 0.47792 0.60135 0.0
C2593 C 0.49413 0.46573 0.60543 0.0
C2594 C 0.49865 0.49211 0.59526 0.0
C2595 C 0.48238 0.49427 0.5933 0.0
C2596 C 0.47209 0.48246 0.59836 0.0
C2597 C 0.47789 0.46838 0.60435 0.0
C2598 C 0.47587 0.5082 0.58503 0.0
C2599 C 0.46649 0.5056 0.5717 0.0
C2600 C 0.47843 0.52379 0.59024 0.0
C2601 C 0.48805 0.5272 0.60434 0.0
C2602 C 0.48422 0.52055 0.61897 0.0
C2603 C 0.49362 0.52345 0.63211 0.0
C2604 C 0.50683 0.53308 0.63079 0.0
C2605 C 0.51061 0.53991 0.61634 0.0
C2606 C 0.50124 0.53703 0.60316 0.0
C2607 C 0.42681 0.55961 0.55912 0.0
C2608 C 0.43354 0.57012 0.54835 0.0
C2609 C 0.43593 0.54777 0.56596 0.0
C2610 C 0.45201 0.54661 0.56254 0.0
C2611 C 0.45881 0.55725 0.55197 0.0
C2612 C 0.44958 0.5688 0.54475 0.0
C2613 C 0.46132 0.53355 0.56929 0.0
C2614 C 0.47115 0.53632 0.58225 0.0
C2615 C 0.45932 0.51808 0.56372 0.0
C2616 C 0.44967 0.51475 0.54962 0.0
C2617 C 0.45348 0.52163 0.53509 0.0
C2618 C 0.44406 0.51894 0.52193 0.0
C2619 C 0.43088 0.50924 0.52312 0.0
C2620 C 0.42715 0.50217 0.53746 0.0
C2621 C 0.43652 0.50487 0.55068 0.0
H2622 H 0.42359 0.50718 0.51292 0.0
H2623 H 0.51412 0.53529 0.64097 0.0
H2624 H 0.83566 0.71056 0.75897 0.0
H2625 H 0.82332 0.73432 0.7483 0.0
H2626 H 0.85947 0.73737 0.71302 0.0
H2627 H 0.87153 0.7132 0.72325 0.0
H2628 H 0.84943 0.76744 0.73122 0.0
H2629 H 0.8305 0.72325 0.70009 0.0
H2630 H 0.81733 0.6979 0.69538 0.0
H2631 H 0.7754 0.71537 0.71725 0.0
H2632 H 0.78844 0.74074 0.72234 0.0
H2633 H 0.81916 0.82165 0.67647 0.0
H2634 H 0.83154 0.79979 0.69029 0.0
H2635 H 0.78615 0.78502 0.70745 0.0
H2636 H 0.77368 0.80632 0.69261 0.0
H2637 H 0.8004 0.76095 0.7005 0.0
H2638 H 0.81689 0.80492 0.73103 0.0
H2639 H 0.8287 0.83063 0.73726 0.0
H2640 H 0.87316 0.81476 0.7196 0.0
H2641 H 0.86159 0.78902 0.7131 0.0
C2642 C 0.84122 0.71652 0.74919 0.0
C2643 C 0.85469 0.71017 0.74204 0.0
C2644 C 0.83406 0.72998 0.74302 0.0
C2645 C 0.84045 0.7375 0.72983 0.0
C2646 C 0.85437 0.73169 0.7232 0.0
C2647 C 0.86129 0.71797 0.72909 0.0
C2648 C 0.8323 0.75107 0.72259 0.0
C2649 C 0.83877 0.76609 0.72437 0.0
C2650 C 0.81809 0.7493 0.71422 0.0
C2651 C 0.81056 0.73378 0.71187 0.0
C2652 C 0.81859 0.72158 0.70418 0.0
C2653 C 0.81111 0.70724 0.70136 0.0
C2654 C 0.79556 0.705 0.70608 0.0
C2655 C 0.78747 0.71709 0.71366 0.0
C2656 C 0.7949 0.73145 0.71653 0.0
C2657 C 0.81184 0.81358 0.68305 0.0
C2658 C 0.79547 0.8155 0.68333 0.0
C2659 C 0.81894 0.80123 0.69119 0.0
C2660 C 0.8099 0.79088 0.70034 0.0
C2661 C 0.79347 0.79279 0.70053 0.0
C2662 C 0.78631 0.80489 0.69198 0.0
C2663 C 0.81748 0.77761 0.70898 0.0
C2664 C 0.81094 0.76254 0.70747 0.0
C2665 C 0.83143 0.77944 0.71794 0.0
C2666 C 0.83832 0.79508 0.72144 0.0
C2667 C 0.82914 0.80696 0.72832 0.0
C2668 C 0.83581 0.82153 0.73194 0.0
C2669 C 0.85166 0.82434 0.72879 0.0
C2670 C 0.86088 0.81258 0.72202 0.0
C2671 C 0.85428 0.798 0.71837 0.0
H2672 H 0.8568 0.83561 0.73164 0.0
H2673 H 0.78977 0.69391 0.70381 0.0
H2674 H 0.863 0.27353 0.7363 0.0
H2675 H 0.85434 0.25154 0.75279 0.0
H2676 H 0.83328 0.28419 0.78527 0.0
H2677 H 0.84268 0.30613 0.7694 0.0
H2678 H 0.84422 0.25813 0.80068 0.0
H2679 H 0.8148 0.26837 0.75167 0.0
H2680 H 0.81466 0.26996 0.72274 0.0
H2681 H 0.82763 0.2213 0.71975 0.0
H2682 H 0.8287 0.21963 0.74864 0.0
H2683 H 0.78253 0.21104 0.83309 0.0
H2684 H 0.79845 0.23178 0.82076 0.0
H2685 H 0.81359 0.19896 0.78524 0.0
H2686 H 0.79766 0.17859 0.79711 0.0
H2687 H 0.8069 0.22432 0.77142 0.0
H2688 H 0.83869 0.21117 0.81446 0.0
H2689 H 0.84545 0.20545 0.84202 0.0
H2690 H 0.83389 0.25284 0.85491 0.0
H2691 H 0.82689 0.2588 0.82738 0.0
C2692 C 0.8569 0.27601 0.74717 0.0
C2693 C 0.8534 0.29158 0.75141 0.0
C2694 C 0.8519 0.26343 0.75659 0.0
C2695 C 0.84271 0.26616 0.77007 0.0
C2696 C 0.84023 0.28173 0.77491 0.0
C2697 C 0.84561 0.2943 0.76575 0.0
C2698 C 0.8341 0.25309 0.77804 0.0
C2699 C 0.83594 0.25084 0.79432 0.0
C2700 C 0.82374 0.24306 0.76968 0.0
C2701 C 0.82197 0.24392 0.75235 0.0
C2702 C 0.8177 0.25802 0.74486 0.0
C2703 C 0.81759 0.25897 0.72845 0.0
C2704 C 0.82112 0.24574 0.71942 0.0
C2705 C 0.82489 0.23155 0.72676 0.0
C2706 C 0.82535 0.23062 0.74315 0.0
C2707 C 0.78928 0.2083 0.82267 0.0
C2708 C 0.78874 0.19315 0.81611 0.0
C2709 C 0.79845 0.22012 0.81566 0.0
C2710 C 0.80732 0.21697 0.80204 0.0
C2711 C 0.80682 0.20181 0.79563 0.0
C2712 C 0.79768 0.19011 0.80253 0.0
C2713 C 0.81689 0.2294 0.79412 0.0
C2714 C 0.81514 0.2316 0.77786 0.0
C2715 C 0.82789 0.23879 0.80233 0.0
C2716 C 0.8321 0.23539 0.8189 0.0
C2717 C 0.83747 0.22035 0.82319 0.0
C2718 C 0.84137 0.21706 0.83879 0.0
C2719 C 0.84005 0.22876 0.85022 0.0
C2720 C 0.83488 0.24379 0.84604 0.0
C2721 C 0.83097 0.24713 0.83043 0.0
H2722 H 0.84307 0.2262 0.8623 0.0
H2723 H 0.82092 0.24648 0.70673 0.0
H2724 H 0.55343 0.93949 0.4858 0.0
H2725 H 0.52774 0.94684 0.47619 0.0
H2726 H 0.50852 0.90322 0.49331 0.0
H2727 H 0.53467 0.89564 0.50337 0.0
H2728 H 0.49944 0.9128 0.4609 0.0
H2729 H 0.49909 0.93191 0.51293 0.0
H2730 H 0.50868 0.94505 0.53685 0.0
H2731 H 0.51088 0.989 0.51221 0.0
H2732 H 0.50171 0.97608 0.48798 0.0
H2733 H 0.42445 0.94642 0.44342 0.0
H2734 H 0.44614 0.93335 0.45669 0.0
H2735 H 0.4751 0.97435 0.44987 0.0
H2736 H 0.45325 0.9877 0.43663 0.0
H2737 H 0.47633 0.96278 0.48011 0.0
H2738 H 0.48006 0.94208 0.42726 0.0
H2739 H 0.46906 0.9291 0.40382 0.0
H2740 H 0.4589 0.8879 0.43111 0.0
H2741 H 0.46965 0.90074 0.45478 0.0
C2742 C 0.54385 0.93131 0.48755 0.0
C2743 C 0.54613 0.91694 0.4954 0.0
C2744 C 0.52911 0.93562 0.48207 0.0
C2745 C 0.51624 0.92566 0.48418 0.0
C2746 C 0.51838 0.91108 0.49165 0.0
C2747 C 0.53325 0.90679 0.49739 0.0
C2748 C 0.50073 0.93098 0.47844 0.0
C2749 C 0.49412 0.9235 0.46533 0.0
C2750 C 0.494 0.94511 0.48409 0.0
C2751 C 0.49984 0.95295 0.49855 0.0
C2752 C 0.50182 0.94433 0.51252 0.0
C2753 C 0.50716 0.95175 0.52615 0.0
C2754 C 0.51041 0.96782 0.52602 0.0
C2755 C 0.50838 0.97653 0.51226 0.0
C2756 C 0.50312 0.96916 0.49857 0.0
C2757 C 0.43545 0.95268 0.44464 0.0
C2758 C 0.43716 0.9681 0.43892 0.0
C2759 C 0.44784 0.94514 0.45221 0.0
C2760 C 0.46224 0.95282 0.45414 0.0
C2761 C 0.46405 0.96822 0.44845 0.0
C2762 C 0.45162 0.97579 0.44082 0.0
C2763 C 0.47535 0.94487 0.46233 0.0
C2764 C 0.48148 0.95192 0.47587 0.0
C2765 C 0.48153 0.93032 0.45714 0.0
C2766 C 0.47554 0.92242 0.44281 0.0
C2767 C 0.47542 0.93028 0.42827 0.0
C2768 C 0.46923 0.92295 0.41495 0.0
C2769 C 0.46324 0.9077 0.41599 0.0
C2770 C 0.46352 0.89972 0.43033 0.0
C2771 C 0.46968 0.90701 0.4437 0.0
H2772 H 0.45841 0.90207 0.40567 0.0
H2773 H 0.51447 0.97353 0.53659 0.0
H2774 H 0.23353 0.29328 0.82916 0.0
H2775 H 0.21927 0.27184 0.81624 0.0
H2776 H 0.1828 0.30427 0.80257 0.0
H2777 H 0.19671 0.32555 0.81557 0.0
H2778 H 0.17045 0.27699 0.81214 0.0
H2779 H 0.21124 0.29429 0.77799 0.0
H2780 H 0.23858 0.30087 0.77139 0.0
H2781 H 0.25194 0.25259 0.77723 0.0
H2782 H 0.22482 0.24582 0.78477 0.0
H2783 H 0.13954 0.22778 0.74911 0.0
H2784 H 0.15064 0.25012 0.76375 0.0
H2785 H 0.1848 0.21931 0.78491 0.0
H2786 H 0.17376 0.19711 0.77084 0.0
H2787 H 0.19762 0.24685 0.77034 0.0
H2788 H 0.15739 0.23074 0.80722 0.0
H2789 H 0.13034 0.22477 0.81561 0.0
H2790 H 0.11595 0.27155 0.80327 0.0
H2791 H 0.14291 0.27773 0.79465 0.0
C2792 C 0.22241 0.29578 0.82353 0.0
C2793 C 0.21632 0.31111 0.82329 0.0
C2794 C 0.2143 0.28355 0.81613 0.0
C2795 C 0.20006 0.28653 0.8083 0.0
C2796 C 0.19374 0.30172 0.80853 0.0
C2797 C 0.20179 0.31388 0.81592 0.0
C2798 C 0.19202 0.27404 0.79926 0.0
C2799 C 0.17633 0.27053 0.80287 0.0
C2800 C 0.19974 0.26563 0.78718 0.0
C2801 C 0.21598 0.26956 0.78212 0.0
C2802 C 0.22001 0.28507 0.77801 0.0
C2803 C 0.23548 0.28885 0.7741 0.0
C2804 C 0.24697 0.27715 0.77377 0.0
C2805 C 0.24302 0.26164 0.77747 0.0
C2806 C 0.22761 0.25784 0.78165 0.0
C2807 C 0.14927 0.22577 0.75705 0.0
C2808 C 0.15574 0.21066 0.75877 0.0
C2809 C 0.1556 0.23851 0.76536 0.0
C2810 C 0.1686 0.23631 0.77529 0.0
C2811 C 0.17484 0.22123 0.77723 0.0
C2812 C 0.1684 0.20854 0.76921 0.0
C2813 C 0.17616 0.24967 0.78342 0.0
C2814 C 0.19174 0.2534 0.77956 0.0
C2815 C 0.16833 0.25838 0.79516 0.0
C2816 C 0.15209 0.25462 0.8001 0.0
C2817 C 0.14841 0.23969 0.80613 0.0
C2818 C 0.13311 0.23628 0.81098 0.0
C2819 C 0.12141 0.24775 0.80992 0.0
C2820 C 0.12501 0.26266 0.80405 0.0
C2821 C 0.1403 0.26612 0.79919 0.0
H2822 H 0.10958 0.24511 0.8137 0.0
H2823 H 0.25893 0.2801 0.77068 0.0
H2824 H 0.04254 0.01687 0.92086 0.0
H2825 H 0.01939 0.0292 0.93267 0.0
H2826 H 0.0476 0.06885 0.94686 0.0
H2827 H 0.07084 0.05624 0.93573 0.0
H2828 H 0.02797 0.0609 0.96976 0.0
H2829 H 0.02299 0.06982 0.91332 0.0
H2830 H 0.0224 0.06013 0.88601 0.0
H2831 H 0.98299 0.03069 0.89702 0.0
H2832 H 0.98344 0.0401 0.92443 0.0
H2833 H 0.9612 0.10873 0.98919 0.0
H2834 H 0.98601 0.09972 0.97737 0.0
H2835 H 0.96203 0.05957 0.9578 0.0
H2836 H 0.93758 0.06867 0.96876 0.0
H2837 H 0.98058 0.0698 0.9371 0.0
H2838 H 0.98515 0.05796 0.99222 0.0
H2839 H 0.98566 0.06397 0.02055 0.0
H2840 H 0.02485 0.0949 0.01353 0.0
H2841 H 0.02443 0.08921 0.98511 0.0
C2842 C 0.04373 0.02826 0.9264 0.0
C2843 C 0.0584 0.03569 0.92724 0.0
C2844 C 0.03053 0.0353 0.93316 0.0
C2845 C 0.03171 0.0501 0.94043 0.0
C2846 C 0.0464 0.05746 0.94132 0.0
C2847 C 0.05963 0.05029 0.93486 0.0
C2848 C 0.01762 0.05812 0.94683 0.0
C2849 C 0.01768 0.06307 0.96257 0.0
C2850 C 0.00406 0.06062 0.93757 0.0
C2851 C 0.00326 0.05565 0.9209 0.0
C2852 C 0.01417 0.06132 0.90989 0.0
C2853 C 0.01389 0.05585 0.89441 0.0
C2854 C 0.00267 0.0448 0.88979 0.0
C2855 C 0.99166 0.03926 0.90061 0.0
C2856 C 0.99189 0.0447 0.91611 0.0
C2857 C 0.96126 0.09811 0.98219 0.0
C2858 C 0.94739 0.08946 0.97994 0.0
C2859 C 0.97544 0.09289 0.97555 0.0
C2860 C 0.97594 0.07885 0.96679 0.0
C2861 C 0.96201 0.07046 0.96439 0.0
C2862 C 0.94797 0.07571 0.97078 0.0
C2863 C 0.99078 0.07246 0.96016 0.0
C2864 C 0.9909 0.06783 0.94431 0.0
C2865 C 0.00434 0.06992 0.96945 0.0
C2866 C 0.00463 0.07333 0.98652 0.0
C2867 C 0.99379 0.06614 0.9967 0.0
C2868 C 0.99408 0.06947 0.01278 0.0
C2869 C 0.00524 0.07985 0.01883 0.0
C2870 C 0.01618 0.08689 0.00882 0.0
C2871 C 0.01593 0.08361 0.99273 0.0
H2872 H 0.00545 0.08242 0.03128 0.0
H2873 H 0.00252 0.04053 0.87782 0.0
H2874 H 0.68894 0.18316 0.19059 0.0
H2875 H 0.67746 0.204 0.20637 0.0
H2876 H 0.71616 0.23447 0.19469 0.0
H2877 H 0.7281 0.21328 0.17911 0.0
H2878 H 0.70794 0.23746 0.2255 0.0
H2879 H 0.68007 0.2375 0.17612 0.0
H2880 H 0.66534 0.22445 0.15488 0.0
H2881 H 0.62939 0.21118 0.18761 0.0
H2882 H 0.64403 0.22394 0.20912 0.0
H2883 H 0.66647 0.30755 0.25286 0.0
H2884 H 0.68206 0.28816 0.23784 0.0
H2885 H 0.64467 0.2544 0.24263 0.0
H2886 H 0.6293 0.27329 0.25712 0.0
H2887 H 0.65333 0.25398 0.21402 0.0
H2888 H 0.6801 0.25239 0.26326 0.0
H2889 H 0.69572 0.26092 0.28611 0.0
H2890 H 0.73371 0.27388 0.25564 0.0
H2891 H 0.71821 0.26572 0.23257 0.0
C2892 C 0.69505 0.1943 0.19126 0.0
C2893 C 0.70937 0.19659 0.18333 0.0
C2894 C 0.68842 0.20626 0.20034 0.0
C2895 C 0.69573 0.221 0.20153 0.0
C2896 C 0.71021 0.22326 0.1939 0.0
C2897 C 0.71697 0.21118 0.18489 0.0
C2898 C 0.688 0.23406 0.21044 0.0
C2899 C 0.69611 0.24136 0.22281 0.0
C2900 C 0.67235 0.23875 0.2073 0.0
C2901 C 0.66317 0.23167 0.19425 0.0
C2902 C 0.66902 0.2318 0.1788 0.0
C2903 C 0.66071 0.22443 0.16671 0.0
C2904 C 0.64644 0.21699 0.16989 0.0
C2905 C 0.64044 0.21696 0.18516 0.0
C2906 C 0.64873 0.22429 0.19731 0.0
C2907 C 0.66162 0.296 0.2507 0.0
C2908 C 0.64646 0.29219 0.25622 0.0
C2909 C 0.67059 0.28484 0.24217 0.0
C2910 C 0.6646 0.26967 0.23897 0.0
C2911 C 0.64964 0.26594 0.24469 0.0
C2912 C 0.6408 0.27691 0.25311 0.0
C2913 C 0.67328 0.25768 0.22922 0.0
C2914 C 0.66527 0.25041 0.21667 0.0
C2915 C 0.68895 0.25289 0.23237 0.0
C2916 C 0.69786 0.25872 0.24614 0.0
C2917 C 0.69166 0.25735 0.26139 0.0
C2918 C 0.70053 0.26204 0.2744 0.0
C2919 C 0.71568 0.26794 0.27232 0.0
C2920 C 0.72195 0.26932 0.25723 0.0
C2921 C 0.71312 0.2647 0.24418 0.0
H2922 H 0.72262 0.27131 0.28241 0.0
H2923 H 0.64004 0.21127 0.16053 0.0
H2924 H 0.53322 0.10516 0.00596 0.0
H2925 H 0.5084 0.09685 0.01831 0.0
H2926 H 0.53444 0.0703 0.05276 0.0
H2927 H 0.55891 0.0785 0.04072 0.0
H2928 H 0.5129 0.05229 0.03814 0.0
H2929 H 0.51581 0.10223 0.06375 0.0
H2930 H 0.51755 0.13104 0.06611 0.0
H2931 H 0.47442 0.13603 0.04046 0.0
H2932 H 0.47255 0.10722 0.03776 0.0
H2933 H 0.45557 0.02728 0.09216 0.0
H2934 H 0.47818 0.04147 0.08143 0.0
H2935 H 0.44787 0.06531 0.04854 0.0
H2936 H 0.42526 0.05162 0.05943 0.0
H2937 H 0.47036 0.08505 0.06075 0.0
H2938 H 0.4682 0.03284 0.03699 0.0
H2939 H 0.46541 0.00431 0.04143 0.0
H2940 H 0.50822 0.00399 0.06806 0.0
H2941 H 0.51116 0.03253 0.06396 0.0
C2942 C 0.53358 0.09788 0.01639 0.0
C2943 C 0.54797 0.09235 0.02227 0.0
C2944 C 0.51944 0.09308 0.02338 0.0
C2945 C 0.51962 0.08279 0.03632 0.0
C2946 C 0.53402 0.07807 0.04267 0.0
C2947 C 0.54802 0.08283 0.03577 0.0
C2948 C 0.50502 0.07594 0.0428 0.0
C2949 C 0.50363 0.0595 0.04308 0.0
C2950 C 0.49286 0.08529 0.04916 0.0
C2951 C 0.49418 0.1026 0.05033 0.0
C2952 C 0.50682 0.10948 0.05841 0.0
C2953 C 0.5078 0.12581 0.05986 0.0
C2954 C 0.49614 0.13537 0.05337 0.0
C2955 C 0.48347 0.12862 0.04543 0.0
C2956 C 0.48245 0.11229 0.04393 0.0
C2957 C 0.45373 0.03564 0.08274 0.0
C2958 C 0.43868 0.03824 0.07657 0.0
C2959 C 0.46663 0.04373 0.07661 0.0
C2960 C 0.46469 0.05429 0.06404 0.0
C2961 C 0.44961 0.05724 0.05823 0.0
C2962 C 0.43672 0.04931 0.06444 0.0
C2963 C 0.47844 0.06151 0.05625 0.0
C2964 C 0.47957 0.07794 0.05557 0.0
C2965 C 0.4905 0.05218 0.04971 0.0
C2966 C 0.48985 0.0348 0.05025 0.0
C2967 C 0.4771 0.02664 0.04364 0.0
C2968 C 0.47546 0.01049 0.04616 0.0
C2969 C 0.48658 0.00242 0.05514 0.0
C2970 C 0.49961 0.01032 0.06117 0.0
C2971 C 0.50129 0.02645 0.05871 0.0
H2972 H 0.48506 0.9901 0.05762 0.0
H2973 H 0.49689 0.14801 0.05455 0.0
H2974 H 0.55625 0.47829 0.07019 0.0
H2975 H 0.53374 0.46505 0.05827 0.0
H2976 H 0.55484 0.41996 0.06811 0.0
H2977 H 0.5778 0.43324 0.0792 0.0
H2978 H 0.5418 0.41939 0.04007 0.0
H2979 H 0.52463 0.43507 0.0915 0.0
H2980 H 0.52189 0.45438 0.11292 0.0
H2981 H 0.49351 0.48369 0.08323 0.0
H2982 H 0.49624 0.46463 0.06157 0.0
H2983 H 0.46651 0.38354 0.02151 0.0
H2984 H 0.49121 0.39068 0.03485 0.0
H2985 H 0.48024 0.43984 0.02854 0.0
H2986 H 0.45568 0.43281 0.01588 0.0
H2987 H 0.48841 0.4343 0.05794 0.0
H2988 H 0.50816 0.42038 0.00593 0.0
H2989 H 0.51148 0.40176 0.98397 0.0
H2990 H 0.53488 0.36928 0.0147 0.0
H2991 H 0.53153 0.38765 0.03688 0.0
C2992 C 0.55597 0.46556 0.06994 0.0
C2993 C 0.56855 0.45674 0.07581 0.0
C2994 C 0.54315 0.458 0.06312 0.0
C2995 C 0.54245 0.44149 0.06262 0.0
C2996 C 0.5551 0.43268 0.06842 0.0
C2997 C 0.56811 0.44026 0.07486 0.0
C2998 C 0.52837 0.4335 0.05629 0.0
C2999 C 0.53013 0.42245 0.04415 0.0
C3000 C 0.51315 0.43745 0.06161 0.0
C3001 C 0.51064 0.44842 0.07493 0.0
C3002 C 0.51776 0.44561 0.08957 0.0
C3003 C 0.51624 0.45653 0.10174 0.0
C3004 C 0.50753 0.47026 0.09944 0.0
C3005 C 0.50023 0.47304 0.085 0.0
C3006 C 0.50171 0.46216 0.07279 0.0
C3007 C 0.46957 0.39582 0.02287 0.0
C3008 C 0.45925 0.40764 0.01785 0.0
C3009 C 0.48359 0.39989 0.03048 0.0
C3010 C 0.48748 0.41581 0.03278 0.0
C3011 C 0.47738 0.42751 0.02713 0.0
C3012 C 0.46339 0.42347 0.01984 0.0
C3013 C 0.5018 0.42068 0.04132 0.0
C3014 C 0.50009 0.43106 0.05401 0.0
C3015 C 0.517 0.41608 0.0365 0.0
C3016 C 0.51949 0.40531 0.02307 0.0
C3017 C 0.51398 0.40924 0.008 0.0
C3018 C 0.51585 0.39874 0.99552 0.0
C3019 C 0.52335 0.38433 0.99795 0.0
C3020 C 0.52906 0.38044 0.01284 0.0
C3021 C 0.5272 0.3909 0.02537 0.0
H3022 H 0.52476 0.3762 0.98828 0.0
H3023 H 0.50644 0.47874 0.10884 0.0
H3024 H 0.12234 0.29772 0.34831 0.0
H3025 H 0.10085 0.31647 0.35106 0.0
H3026 H 0.12377 0.33696 0.39129 0.0
H3027 H 0.14542 0.31815 0.38866 0.0
H3028 H 0.09249 0.32933 0.39648 0.0
H3029 H 0.12315 0.35529 0.3555 0.0
H3030 H 0.13582 0.35606 0.32947 0.0
H3031 H 0.09137 0.3477 0.30724 0.0
H3032 H 0.07846 0.34663 0.33315 0.0
H3033 H 0.05174 0.39645 0.4141 0.0
H3034 H 0.07285 0.37985 0.40413 0.0
H3035 H 0.04374 0.36567 0.3652 0.0
H3036 H 0.02257 0.38263 0.37494 0.0
H3037 H 0.0759 0.36859 0.35661 0.0
H3038 H 0.04493 0.34135 0.39365 0.0
H3039 H 0.02959 0.33908 0.41809 0.0
H3040 H 0.07139 0.34645 0.44531 0.0
H3041 H 0.08695 0.34897 0.42098 0.0
C3042 C 0.12288 0.30623 0.35775 0.0
C3043 C 0.1356 0.30636 0.36836 0.0
C3044 C 0.1106 0.31703 0.3592 0.0
C3045 C 0.11076 0.3282 0.37129 0.0
C3046 C 0.12346 0.32845 0.38183 0.0
C3047 C 0.13583 0.31771 0.38033 0.0
C3048 C 0.09726 0.33901 0.37359 0.0
C3049 C 0.08905 0.33804 0.38782 0.0
C3050 C 0.09212 0.34973 0.3619 0.0
C3051 C 0.09986 0.35075 0.3463 0.0
C3052 C 0.11609 0.35352 0.34508 0.0
C3053 C 0.12331 0.35402 0.33034 0.0
C3054 C 0.11441 0.35189 0.31671 0.0
C3055 C 0.09825 0.34933 0.3178 0.0
C3056 C 0.09098 0.34879 0.33251 0.0
C3057 C 0.04981 0.38988 0.40338 0.0
C3058 C 0.03535 0.39064 0.39551 0.0
C3059 C 0.06194 0.38048 0.39761 0.0
C3060 C 0.05982 0.37138 0.384 0.0
C3061 C 0.04566 0.37261 0.37569 0.0
C3062 C 0.03352 0.38218 0.38139 0.0
C3063 C 0.07176 0.35934 0.3798 0.0
C3064 C 0.07945 0.35988 0.36521 0.0
C3065 C 0.07615 0.34775 0.39086 0.0
C3066 C 0.06708 0.3454 0.40553 0.0
C3067 C 0.05084 0.34248 0.40486 0.0
C3068 C 0.04211 0.34117 0.41868 0.0
C3069 C 0.04951 0.34264 0.43325 0.0
C3070 C 0.06568 0.34531 0.43402 0.0
C3071 C 0.07447 0.34664 0.42022 0.0
H3072 H 0.04272 0.34169 0.44395 0.0
H3073 H 0.12003 0.35227 0.30532 0.0
H3074 H 0.61704 0.7344 0.85681 0.0
H3075 H 0.60039 0.71158 0.86291 0.0
H3076 H 0.63943 0.68905 0.88597 0.0
H3077 H 0.6559 0.71209 0.88054 0.0
H3078 H 0.61952 0.67104 0.86022 0.0
H3079 H 0.61876 0.6978 0.90969 0.0
H3080 H 0.61552 0.72009 0.92787 0.0
H3081 H 0.56753 0.72528 0.91337 0.0
H3082 H 0.57059 0.7032 0.89484 0.0
H3083 H 0.57105 0.60748 0.88986 0.0
H3084 H 0.59164 0.62734 0.88584 0.0
H3085 H 0.55608 0.66318 0.88108 0.0
H3086 H 0.53575 0.64364 0.88559 0.0
H3087 H 0.57723 0.67316 0.90016 0.0
H3088 H 0.5787 0.64739 0.84922 0.0
H3089 H 0.58215 0.62498 0.83118 0.0
H3090 H 0.62886 0.61771 0.84872 0.0
H3091 H 0.6256 0.63996 0.86701 0.0
C3092 C 0.62204 0.72455 0.86314 0.0
C3093 C 0.63773 0.72495 0.86818 0.0
C3094 C 0.61254 0.71159 0.86668 0.0
C3095 C 0.6187 0.69869 0.87493 0.0
C3096 C 0.63446 0.69893 0.87965 0.0
C3097 C 0.64382 0.71207 0.87655 0.0
C3098 C 0.60868 0.68488 0.87835 0.0
C3099 C 0.61039 0.67137 0.86909 0.0
C3100 C 0.59676 0.68543 0.88986 0.0
C3101 C 0.595 0.69901 0.90065 0.0
C3102 C 0.6076 0.70387 0.91015 0.0
C3103 C 0.60578 0.71642 0.92058 0.0
C3104 C 0.59135 0.72415 0.92172 0.0
C3105 C 0.57872 0.71933 0.91243 0.0
C3106 C 0.5805 0.7068 0.90196 0.0
C3107 C 0.56769 0.61956 0.88767 0.0
C3108 C 0.55181 0.62401 0.88803 0.0
C3109 C 0.57945 0.63092 0.8854 0.0
C3110 C 0.57545 0.64684 0.88315 0.0
C3111 C 0.55953 0.65106 0.88294 0.0
C3112 C 0.54789 0.63984 0.88542 0.0
C3113 C 0.58759 0.65938 0.8816 0.0
C3114 C 0.58637 0.67271 0.8913 0.0
C3115 C 0.59995 0.65864 0.87048 0.0
C3116 C 0.60183 0.6452 0.8596 0.0
C3117 C 0.58965 0.64092 0.84932 0.0
C3118 C 0.59158 0.62826 0.83904 0.0
C3119 C 0.6057 0.61989 0.83884 0.0
C3120 C 0.61792 0.62418 0.84891 0.0
C3121 C 0.61604 0.63681 0.85923 0.0
H3122 H 0.60718 0.61011 0.83085 0.0
H3123 H 0.58995 0.73384 0.92983 0.0
H3124 H 0.86717 0.19948 0.34844 0.0
H3125 H 0.88691 0.17874 0.35014 0.0
H3126 H 0.90238 0.19719 0.39476 0.0
H3127 H 0.88315 0.21838 0.39275 0.0
H3128 H 0.92645 0.19267 0.37585 0.0
H3129 H 0.87918 0.1612 0.38924 0.0
H3130 H 0.85301 0.15076 0.38245 0.0
H3131 H 0.87186 0.12996 0.34055 0.0
H3132 H 0.89811 0.14036 0.34706 0.0
H3133 H 0.96692 0.13633 0.4181 0.0
H3134 H 0.9461 0.15323 0.40783 0.0
H3135 H 0.9481 0.12918 0.36332 0.0
H3136 H 0.96909 0.11227 0.37342 0.0
H3137 H 0.91657 0.13522 0.37496 0.0
H3138 H 0.96279 0.16183 0.36131 0.0
H3139 H 0.98958 0.17233 0.36438 0.0
H3140 H 0.97375 0.2026 0.40148 0.0
H3141 H 0.94689 0.19212 0.39877 0.0
C3142 C 0.8746 0.19895 0.35875 0.0
C3143 C 0.87365 0.21056 0.37048 0.0
C3144 C 0.88588 0.18706 0.3597 0.0
C3145 C 0.89609 0.18636 0.37261 0.0
C3146 C 0.89467 0.19757 0.38464 0.0
C3147 C 0.88363 0.20961 0.38355 0.0
C3148 C 0.9089 0.17459 0.37341 0.0
C3149 C 0.92423 0.18012 0.37582 0.0
C3150 C 0.90623 0.15821 0.37219 0.0
C3151 C 0.89055 0.15162 0.36859 0.0
C3152 C 0.87772 0.15442 0.37857 0.0
C3153 C 0.86288 0.14851 0.37477 0.0
C3154 C 0.86077 0.13973 0.36106 0.0
C3155 C 0.87351 0.13676 0.35117 0.0
C3156 C 0.88837 0.14263 0.35492 0.0
C3157 C 0.96289 0.13455 0.40617 0.0
C3158 C 0.96971 0.12303 0.39657 0.0
C3159 C 0.95102 0.14422 0.40031 0.0
C3160 C 0.94568 0.14246 0.38481 0.0
C3161 C 0.95209 0.13068 0.37531 0.0
C3162 C 0.96411 0.1211 0.3811 0.0
C3163 C 0.93374 0.15343 0.37862 0.0
C3164 C 0.91873 0.14778 0.37491 0.0
C3165 C 0.93673 0.16972 0.37816 0.0
C3166 C 0.95285 0.17609 0.37993 0.0
C3167 C 0.96505 0.17062 0.37023 0.0
C3168 C 0.98024 0.17659 0.37187 0.0
C3169 C 0.98337 0.1881 0.38314 0.0
C3170 C 0.97131 0.19368 0.39276 0.0
C3171 C 0.95609 0.18774 0.39116 0.0
H3172 H 0.99514 0.19271 0.3844 0.0
H3173 H 0.84927 0.1352 0.35812 0.0
H3174 H 0.43315 0.88814 0.89442 0.0
H3175 H 0.41286 0.86783 0.89061 0.0
H3176 H 0.44867 0.83453 0.87742 0.0
H3177 H 0.4688 0.8545 0.88141 0.0
H3178 H 0.42277 0.83503 0.85708 0.0
H3179 H 0.43462 0.83282 0.91249 0.0
H3180 H 0.43676 0.84317 0.93944 0.0
H3181 H 0.38737 0.85315 0.93981 0.0
H3182 H 0.38498 0.84311 0.91273 0.0
H3183 H 0.38641 0.76138 0.85757 0.0
H3184 H 0.40414 0.78307 0.86394 0.0
H3185 H 0.36557 0.80888 0.88429 0.0
H3186 H 0.34797 0.78691 0.87861 0.0
H3187 H 0.39101 0.81391 0.90113 0.0
H3188 H 0.37886 0.81643 0.84607 0.0
H3189 H 0.37621 0.80517 0.81951 0.0
H3190 H 0.42556 0.79488 0.8187 0.0
H3191 H 0.42845 0.80592 0.84534 0.0
C3192 C 0.4366 0.87655 0.89046 0.0
C3193 C 0.45252 0.87291 0.88808 0.0
C3194 C 0.42505 0.86494 0.88846 0.0
C3195 C 0.4293 0.84965 0.88384 0.0
C3196 C 0.44514 0.84623 0.88101 0.0
C3197 C 0.45662 0.85767 0.88325 0.0
C3198 C 0.41743 0.83707 0.8817 0.0
C3199 C 0.41587 0.83039 0.86673 0.0
C3200 C 0.4082 0.83122 0.89424 0.0
C3201 C 0.40967 0.83744 0.91046 0.0
C3202 C 0.42425 0.83742 0.91822 0.0
C3203 C 0.4255 0.84318 0.93355 0.0
C3204 C 0.41222 0.84888 0.94131 0.0
C3205 C 0.39765 0.84878 0.93377 0.0
C3206 C 0.39635 0.84306 0.91843 0.0
C3207 C 0.38172 0.77168 0.86339 0.0
C3208 C 0.36575 0.77254 0.86735 0.0
C3209 C 0.39185 0.78409 0.86704 0.0
C3210 C 0.38614 0.79782 0.87428 0.0
C3211 C 0.37028 0.79848 0.87865 0.0
C3212 C 0.36021 0.78594 0.87529 0.0
C3213 C 0.39651 0.81174 0.87651 0.0
C3214 C 0.39777 0.81869 0.89145 0.0
C3215 C 0.40543 0.81798 0.86394 0.0
C3216 C 0.40385 0.81193 0.84769 0.0
C3217 C 0.38913 0.81176 0.84022 0.0
C3218 C 0.38759 0.8054 0.82516 0.0
C3219 C 0.40071 0.7993 0.81743 0.0
C3220 C 0.41541 0.79962 0.8247 0.0
C3221 C 0.41702 0.80595 0.83976 0.0
H3222 H 0.39948 0.79433 0.80579 0.0
H3223 H 0.41321 0.85331 0.95318 0.0
H3224 H 0.12306 0.71492 0.13337 0.0
H3225 H 0.10111 0.69768 0.12639 0.0
H3226 H 0.12854 0.65716 0.13951 0.0
H3227 H 0.15042 0.67439 0.14691 0.0
H3228 H 0.11196 0.65265 0.11167 0.0
H3229 H 0.10287 0.66806 0.16355 0.0
H3230 H 0.09989 0.68508 0.18673 0.0
H3231 H 0.05976 0.70721 0.16569 0.0
H3232 H 0.06274 0.6906 0.14215 0.0
H3233 H 0.04306 0.60363 0.10899 0.0
H3234 H 0.0665 0.61676 0.11925 0.0
H3235 H 0.04659 0.66179 0.10729 0.0
H3236 H 0.02314 0.6488 0.09701 0.0
H3237 H 0.06043 0.66099 0.1375 0.0
H3238 H 0.07298 0.64446 0.08395 0.0
H3239 H 0.07621 0.62433 0.06338 0.0
H3240 H 0.11068 0.60064 0.09159 0.0
H3241 H 0.10741 0.62048 0.11247 0.0
C3242 C 0.12454 0.70232 0.13447 0.0
C3243 C 0.13851 0.696 0.14059 0.0
C3244 C 0.11193 0.6925 0.13064 0.0
C3245 C 0.11312 0.67614 0.13259 0.0
C3246 C 0.12733 0.66974 0.13797 0.0
C3247 C 0.13983 0.67959 0.14213 0.0
C3248 C 0.09941 0.66583 0.12922 0.0
C3249 C 0.10075 0.65436 0.11746 0.0
C3250 C 0.08482 0.66786 0.13695 0.0
C3251 C 0.08319 0.67823 0.15092 0.0
C3252 C 0.09356 0.67673 0.16371 0.0
C3253 C 0.09184 0.68628 0.17696 0.0
C3254 C 0.07968 0.69727 0.17766 0.0
C3255 C 0.06922 0.69873 0.1651 0.0
C3256 C 0.07093 0.68926 0.15179 0.0
C3257 C 0.04367 0.61633 0.10848 0.0
C3258 C 0.03125 0.62515 0.102 0.0
C3259 C 0.05708 0.62381 0.11439 0.0
C3260 C 0.05835 0.64027 0.11397 0.0
C3261 C 0.04587 0.64909 0.10776 0.0
C3262 C 0.03252 0.64162 0.10176 0.0
C3263 C 0.07283 0.64838 0.11946 0.0
C3264 C 0.07166 0.65934 0.13174 0.0
C3265 C 0.08767 0.64557 0.11253 0.0
C3266 C 0.08982 0.63385 0.09984 0.0
C3267 C 0.08116 0.6349 0.08581 0.0
C3268 C 0.083 0.62354 0.0741 0.0
C3269 C 0.09361 0.61119 0.0762 0.0
C3270 C 0.10244 0.6102 0.09 0.0
C3271 C 0.10059 0.62149 0.10178 0.0
H3272 H 0.09502 0.60241 0.06711 0.0
H3273 H 0.07834 0.70461 0.18795 0.0
H3274 H 0.85434 0.70606 0.12687 0.0
H3275 H 0.87345 0.68582 0.11988 0.0
H3276 H 0.90774 0.70765 0.15002 0.0
H3277 H 0.88854 0.72797 0.15725 0.0
H3278 H 0.9189 0.69823 0.11841 0.0
H3279 H 0.88963 0.67688 0.16311 0.0
H3280 H 0.86477 0.66951 0.17598 0.0
H3281 H 0.85416 0.63804 0.13802 0.0
H3282 H 0.87885 0.64543 0.12481 0.0
H3283 H 0.97721 0.64142 0.12925 0.0
H3284 H 0.95648 0.66089 0.13221 0.0
H3285 H 0.92332 0.62901 0.11104 0.0
H3286 H 0.94415 0.60927 0.10811 0.0
H3287 H 0.9099 0.64303 0.13495 0.0
H3288 H 0.93687 0.66055 0.09061 0.0
H3289 H 0.9587 0.66805 0.07319 0.0
H3290 H 0.97061 0.70611 0.10404 0.0
H3291 H 0.94899 0.69869 0.12182 0.0
C3292 C 0.86593 0.70657 0.13208 0.0
C3293 C 0.86985 0.71859 0.14276 0.0
C3294 C 0.87686 0.69498 0.12802 0.0
C3295 C 0.89202 0.69517 0.13444 0.0
C3296 C 0.8961 0.70727 0.14491 0.0
C3297 C 0.88508 0.7188 0.14915 0.0
C3298 C 0.90343 0.68245 0.13062 0.0
C3299 C 0.9171 0.6862 0.12223 0.0
C3300 C 0.90059 0.66658 0.13472 0.0
C3301 C 0.88602 0.66179 0.14293 0.0
C3302 C 0.88196 0.66845 0.15748 0.0
C3303 C 0.8679 0.66427 0.16484 0.0
C3304 C 0.85788 0.65334 0.15781 0.0
C3305 C 0.86193 0.64652 0.14345 0.0
C3306 C 0.87596 0.65068 0.13603 0.0
C3307 C 0.9655 0.63842 0.12531 0.0
C3308 C 0.9624 0.62369 0.11847 0.0
C3309 C 0.95364 0.64969 0.12688 0.0
C3310 C 0.93833 0.6466 0.12162 0.0
C3311 C 0.93504 0.63175 0.11514 0.0
C3312 C 0.94697 0.62044 0.1135 0.0
C3313 C 0.92584 0.65885 0.12327 0.0
C3314 C 0.91184 0.65503 0.13112 0.0
C3315 C 0.92813 0.67456 0.11812 0.0
C3316 C 0.9414 0.67893 0.10768 0.0
C3317 C 0.94426 0.6704 0.0938 0.0
C3318 C 0.95657 0.67467 0.08383 0.0
C3319 C 0.96607 0.68752 0.08753 0.0
C3320 C 0.96326 0.69614 0.10121 0.0
C3321 C 0.95097 0.69191 0.11124 0.0
H3322 H 0.97558 0.69082 0.07978 0.0
H3323 H 0.84698 0.65014 0.16351 0.0
H3324 H 0.85989 0.80874 0.14792 0.0
H3325 H 0.87852 0.8303 0.14382 0.0
H3326 H 0.90575 0.80079 0.11293 0.0
H3327 H 0.8874 0.77923 0.11711 0.0
H3328 H 0.92367 0.81393 0.13593 0.0
H3329 H 0.8824 0.83223 0.09941 0.0
H3330 H 0.85556 0.84139 0.09346 0.0
H3331 H 0.86037 0.8784 0.12739 0.0
H3332 H 0.8872 0.86938 0.13361 0.0
H3333 H 0.97268 0.85679 0.08655 0.0
H3334 H 0.95124 0.84154 0.09805 0.0
H3335 H 0.93967 0.88032 0.1285 0.0
H3336 H 0.9614 0.8956 0.11727 0.0
H3337 H 0.91314 0.86628 0.11254 0.0
H3338 H 0.95373 0.85256 0.14678 0.0
H3339 H 0.98003 0.84483 0.15603 0.0
H3340 H 0.97615 0.80101 0.13137 0.0
H3341 H 0.94987 0.80855 0.1218 0.0
C3342 C 0.86968 0.80695 0.14 0.0
C3343 C 0.87221 0.79221 0.1329 0.0
C3344 C 0.88033 0.81929 0.1377 0.0
C3345 C 0.89359 0.81713 0.12814 0.0
C3346 C 0.89568 0.80268 0.12047 0.0
C3347 C 0.88512 0.79038 0.12281 0.0
C3348 C 0.90591 0.82939 0.12664 0.0
C3349 C 0.92137 0.82533 0.13069 0.0
C3350 C 0.90281 0.84468 0.12085 0.0
C3351 C 0.88671 0.85004 0.11708 0.0
C3352 C 0.87768 0.84225 0.10567 0.0
C3353 C 0.86249 0.84744 0.10223 0.0
C3354 C 0.85625 0.86044 0.11008 0.0
C3355 C 0.8652 0.86832 0.12134 0.0
C3356 C 0.8804 0.86319 0.12481 0.0
C3357 C 0.96555 0.86211 0.09565 0.0
C3358 C 0.9687 0.8774 0.10096 0.0
C3359 C 0.95337 0.85336 0.10227 0.0
C3360 C 0.94395 0.85979 0.11417 0.0
C3361 C 0.94684 0.87515 0.11935 0.0
C3362 C 0.95925 0.88383 0.11293 0.0
C3363 C 0.93095 0.85031 0.1208 0.0
C3364 C 0.9154 0.85495 0.11793 0.0
C3365 C 0.93389 0.8357 0.12811 0.0
C3366 C 0.94987 0.8312 0.13343 0.0
C3367 C 0.95855 0.84135 0.14316 0.0
C3368 C 0.97344 0.83698 0.14851 0.0
C3369 C 0.97978 0.82245 0.14426 0.0
C3370 C 0.97123 0.81227 0.13464 0.0
C3371 C 0.95632 0.81658 0.12927 0.0
H3372 H 0.99129 0.81908 0.14844 0.0
H3373 H 0.84448 0.86444 0.1074 0.0
H3374 H 0.05928 0.8904 0.115 0.0
H3375 H 0.07962 0.87084 0.12152 0.0
H3376 H 0.04559 0.83368 0.11648 0.0
H3377 H 0.02546 0.85291 0.11002 0.0
H3378 H 0.06306 0.82931 0.14222 0.0
H3379 H 0.07093 0.84003 0.08817 0.0
H3380 H 0.07535 0.85622 0.06459 0.0
H3381 H 0.11983 0.87122 0.08294 0.0
H3382 H 0.11554 0.85533 0.10681 0.0
H3383 H 0.11489 0.76425 0.14364 0.0
H3384 H 0.09514 0.78321 0.13481 0.0
H3385 H 0.13023 0.81979 0.13459 0.0
H3386 H 0.15016 0.80057 0.14229 0.0
H3387 H 0.11186 0.82433 0.11086 0.0
H3388 H 0.10147 0.81288 0.1664 0.0
H3389 H 0.09607 0.7942 0.18792 0.0
H3390 H 0.05468 0.77823 0.16398 0.0
H3391 H 0.05993 0.79671 0.14226 0.0
C3392 C 0.05615 0.87807 0.11547 0.0
C3393 C 0.04077 0.87322 0.11197 0.0
C3394 C 0.06778 0.8669 0.11906 0.0
C3395 C 0.06416 0.85076 0.11936 0.0
C3396 C 0.0487 0.84603 0.11632 0.0
C3397 C 0.0372 0.85708 0.11259 0.0
C3398 C 0.07631 0.83864 0.12281 0.0
C3399 C 0.0737 0.82821 0.13531 0.0
C3400 C 0.09015 0.83706 0.11374 0.0
C3401 C 0.09281 0.84666 0.09941 0.0
C3402 C 0.08158 0.84692 0.08728 0.0
C3403 C 0.08407 0.85602 0.07383 0.0
C3404 C 0.09784 0.86479 0.07229 0.0
C3405 C 0.10915 0.86445 0.08417 0.0
C3406 C 0.10669 0.8554 0.09767 0.0
C3407 C 0.11832 0.77637 0.14184 0.0
C3408 C 0.13398 0.78101 0.14401 0.0
C3409 C 0.10703 0.78724 0.13678 0.0
C3410 C 0.11101 0.80315 0.13444 0.0
C3411 C 0.12675 0.80768 0.13637 0.0
C3412 C 0.13812 0.79671 0.14094 0.0
C3413 C 0.09879 0.8152 0.13054 0.0
C3414 C 0.10132 0.82556 0.11789 0.0
C3415 C 0.08469 0.81657 0.13928 0.0
C3416 C 0.08112 0.80611 0.15272 0.0
C3417 C 0.0912 0.80541 0.16577 0.0
C3418 C 0.08819 0.79484 0.17797 0.0
C3419 C 0.07505 0.78503 0.17731 0.0
C3420 C 0.06484 0.78584 0.16448 0.0
C3421 C 0.06781 0.79638 0.15225 0.0
H3422 H 0.07278 0.7768 0.18673 0.0
H3423 H 0.09976 0.87182 0.06187 0.0
H3424 H 0.36091 0.12001 0.28972 0.0
H3425 H 0.36441 0.09854 0.30842 0.0
H3426 H 0.37063 0.13201 0.34591 0.0
H3427 H 0.36683 0.15369 0.32727 0.0
H3428 H 0.39325 0.10685 0.34481 0.0
H3429 H 0.33726 0.11498 0.34343 0.0
H3430 H 0.31128 0.11739 0.3309 0.0
H3431 H 0.31527 0.07043 0.31296 0.0
H3432 H 0.34141 0.06782 0.32511 0.0
H3433 H 0.39292 0.05002 0.40502 0.0
H3434 H 0.3866 0.07349 0.3896 0.0
H3435 H 0.36754 0.04419 0.35284 0.0
H3436 H 0.3729 0.02087 0.36867 0.0
H3437 H 0.35048 0.06856 0.35476 0.0
H3438 H 0.40616 0.06042 0.35214 0.0
H3439 H 0.43257 0.05635 0.36331 0.0
H3440 H 0.43013 0.10133 0.38604 0.0
H3441 H 0.40359 0.10555 0.37519 0.0
C3442 C 0.36321 0.12285 0.30191 0.0
C3443 C 0.36363 0.13857 0.30704 0.0
C3444 C 0.36506 0.11055 0.31258 0.0
C3445 C 0.36756 0.11373 0.32853 0.0
C3446 C 0.36859 0.12937 0.33363 0.0
C3447 C 0.36646 0.14172 0.32299 0.0
C3448 C 0.36929 0.10066 0.33983 0.0
C3449 C 0.38384 0.0986 0.3472 0.0
C3450 C 0.35711 0.08966 0.34248 0.0
C3451 C 0.34141 0.09128 0.33505 0.0
C3452 C 0.33269 0.10523 0.33666 0.0
C3453 C 0.31791 0.10662 0.32965 0.0
C3454 C 0.31164 0.09409 0.3211 0.0
C3455 C 0.32014 0.08014 0.31956 0.0
C3456 C 0.33495 0.0787 0.32651 0.0
C3457 C 0.38737 0.04866 0.39365 0.0
C3458 C 0.38359 0.03368 0.3879 0.0
C3459 C 0.38378 0.06204 0.38483 0.0
C3460 C 0.37693 0.06062 0.36986 0.0
C3461 C 0.37285 0.04563 0.36432 0.0
C3462 C 0.37602 0.03231 0.37332 0.0
C3463 C 0.37455 0.07461 0.35969 0.0
C3464 C 0.35989 0.07684 0.35247 0.0
C3465 C 0.38675 0.08555 0.35682 0.0
C3466 C 0.40286 0.08324 0.36298 0.0
C3467 C 0.41125 0.06942 0.35957 0.0
C3468 C 0.42622 0.06708 0.36585 0.0
C3469 C 0.433 0.07856 0.37541 0.0
C3470 C 0.42485 0.09243 0.37865 0.0
C3471 C 0.40985 0.09481 0.37243 0.0
H3472 H 0.44459 0.07672 0.38029 0.0
H3473 H 0.30019 0.09518 0.31571 0.0
H3474 H 0.39724 0.38362 0.94351 0.0
H3475 H 0.37738 0.37938 0.92292 0.0
H3476 H 0.34114 0.37781 0.95826 0.0
H3477 H 0.36076 0.38238 0.9787 0.0
H3478 H 0.33956 0.35354 0.93534 0.0
H3479 H 0.34403 0.40933 0.94023 0.0
H3480 H 0.35732 0.43504 0.94054 0.0
H3481 H 0.37134 0.42865 0.89253 0.0
H3482 H 0.35837 0.40273 0.89203 0.0
H3483 H 0.2705 0.35914 0.89095 0.0
H3484 H 0.29111 0.36455 0.91025 0.0
H3485 H 0.32319 0.37605 0.87269 0.0
H3486 H 0.30212 0.37165 0.85345 0.0
H3487 H 0.32784 0.39517 0.89621 0.0
H3488 H 0.32261 0.33847 0.89214 0.0
H3489 H 0.30751 0.31374 0.89263 0.0
H3490 H 0.29359 0.3229 0.94023 0.0
H3491 H 0.30849 0.34775 0.93996 0.0
C3492 C 0.38507 0.38202 0.94684 0.0
C3493 C 0.38047 0.38317 0.96262 0.0
C3494 C 0.37376 0.3798 0.93511 0.0
C3495 C 0.35784 0.37843 0.93914 0.0
C3496 C 0.35338 0.37888 0.95496 0.0
C3497 C 0.36458 0.38142 0.96659 0.0
C3498 C 0.34566 0.37659 0.92695 0.0
C3499 C 0.33696 0.36264 0.9268 0.0
C3500 C 0.34238 0.38849 0.91583 0.0
C3501 C 0.35046 0.40394 0.91618 0.0
C3502 C 0.35015 0.41328 0.92981 0.0
C3503 C 0.35758 0.42793 0.93 0.0
C3504 C 0.36524 0.43344 0.91659 0.0
C3505 C 0.36546 0.42433 0.90294 0.0
C3506 C 0.35807 0.40966 0.90269 0.0
C3507 C 0.28199 0.36281 0.88691 0.0
C3508 C 0.28498 0.36471 0.87085 0.0
C3509 C 0.29376 0.36585 0.89788 0.0
C3510 C 0.30887 0.37024 0.8929 0.0
C3511 C 0.31169 0.37254 0.8768 0.0
C3512 C 0.29975 0.36992 0.86584 0.0
C3513 C 0.32179 0.37199 0.90446 0.0
C3514 C 0.3306 0.38595 0.90457 0.0
C3515 C 0.32513 0.36014 0.91568 0.0
C3516 C 0.3166 0.34497 0.91599 0.0
C3517 C 0.31631 0.3352 0.90269 0.0
C3518 C 0.30778 0.32117 0.90294 0.0
C3519 C 0.29958 0.31676 0.91645 0.0
C3520 C 0.29995 0.32633 0.92978 0.0
C3521 C 0.30846 0.34036 0.9296 0.0
H3522 H 0.29295 0.30592 0.9166 0.0
H3523 H 0.37095 0.4448 0.91675 0.0
H3524 H 0.61692 0.36153 0.32666 0.0
H3525 H 0.61531 0.38459 0.3438 0.0
H3526 H 0.64993 0.40826 0.31547 0.0
H3527 H 0.65163 0.38531 0.29829 0.0
H3528 H 0.65583 0.41261 0.34655 0.0
H3529 H 0.61226 0.41831 0.31197 0.0
H3530 H 0.58796 0.4112 0.29795 0.0
H3531 H 0.56406 0.40524 0.34195 0.0
H3532 H 0.5883 0.41211 0.35624 0.0
H3533 H 0.64196 0.4895 0.37769 0.0
H3534 H 0.646 0.46628 0.36139 0.0
H3535 H 0.60763 0.44305 0.38501 0.0
H3536 H 0.60303 0.46665 0.40075 0.0
H3537 H 0.60465 0.43876 0.35573 0.0
H3538 H 0.64989 0.43428 0.39026 0.0
H3539 H 0.67436 0.44354 0.40268 0.0
H3540 H 0.69548 0.44939 0.35728 0.0
H3541 H 0.67109 0.44031 0.34458 0.0
C3542 C 0.62418 0.37163 0.32403 0.0
C3543 C 0.63435 0.37152 0.311 0.0
C3544 C 0.62324 0.38484 0.33386 0.0
C3545 C 0.63244 0.39824 0.3309 0.0
C3546 C 0.64274 0.39808 0.31804 0.0
C3547 C 0.64362 0.38494 0.30816 0.0
C3548 C 0.63115 0.41248 0.34107 0.0
C3549 C 0.64466 0.4184 0.3485 0.0
C3550 C 0.6166 0.42006 0.3437 0.0
C3551 C 0.60215 0.41548 0.33517 0.0
C3552 C 0.60188 0.41527 0.31866 0.0
C3553 C 0.5881 0.41134 0.31067 0.0
C3554 C 0.57449 0.40771 0.31906 0.0
C3555 C 0.57462 0.40801 0.33547 0.0
C3556 C 0.58838 0.41192 0.34352 0.0
C3557 C 0.63442 0.47941 0.37945 0.0
C3558 C 0.62211 0.47992 0.39045 0.0
C3559 C 0.63685 0.46604 0.37021 0.0
C3560 C 0.62732 0.45269 0.37208 0.0
C3561 C 0.61518 0.45315 0.38329 0.0
C3562 C 0.61252 0.46665 0.39229 0.0
C3563 C 0.62921 0.43866 0.36171 0.0
C3564 C 0.61581 0.43286 0.35405 0.0
C3565 C 0.6439 0.43135 0.35879 0.0
C3566 C 0.65861 0.43671 0.36647 0.0
C3567 C 0.65972 0.43761 0.38293 0.0
C3568 C 0.67359 0.44282 0.39002 0.0
C3569 C 0.68645 0.44708 0.38077 0.0
C3570 C 0.6855 0.4461 0.36442 0.0
C3571 C 0.67167 0.4409 0.35728 0.0
H3572 H 0.69717 0.45111 0.38628 0.0
H3573 H 0.56382 0.4047 0.31285 0.0
H3574 H 0.60853 0.11261 0.94279 0.0
H3575 H 0.62787 0.11858 0.92209 0.0
H3576 H 0.66405 0.12299 0.95723 0.0
H3577 H 0.64503 0.11677 0.97774 0.0
H3578 H 0.66371 0.14757 0.9348 0.0
H3579 H 0.66325 0.0913 0.93806 0.0
H3580 H 0.65105 0.06505 0.93764 0.0
H3581 H 0.63656 0.0723 0.88988 0.0
H3582 H 0.64842 0.09876 0.89011 0.0
H3583 H 0.73255 0.15023 0.88928 0.0
H3584 H 0.713 0.14222 0.90879 0.0
H3585 H 0.68169 0.12788 0.87161 0.0
H3586 H 0.70161 0.13493 0.85218 0.0
H3587 H 0.67865 0.10811 0.8946 0.0
H3588 H 0.67851 0.1649 0.8918 0.0
H3589 H 0.69154 0.19078 0.89232 0.0
H3590 H 0.7073 0.18213 0.93946 0.0
H3591 H 0.69449 0.15613 0.93914 0.0
C3592 C 0.62057 0.11509 0.94606 0.0
C3593 C 0.62529 0.1143 0.96186 0.0
C3594 C 0.63161 0.11835 0.93425 0.0
C3595 C 0.64742 0.12113 0.93814 0.0
C3596 C 0.65195 0.12087 0.95396 0.0
C3597 C 0.64105 0.11732 0.96567 0.0
C3598 C 0.65941 0.12432 0.92588 0.0
C3599 C 0.66702 0.13891 0.92605 0.0
C3600 C 0.66361 0.11307 0.91438 0.0
C3601 C 0.65653 0.09713 0.91418 0.0
C3602 C 0.65731 0.08739 0.92752 0.0
C3603 C 0.65048 0.07245 0.92731 0.0
C3604 C 0.64298 0.06704 0.91376 0.0
C3605 C 0.64234 0.07653 0.90038 0.0
C3606 C 0.64911 0.0915 0.90054 0.0
C3607 C 0.72146 0.14546 0.8853 0.0
C3608 C 0.71849 0.14352 0.8692 0.0
C3609 C 0.71027 0.14086 0.89645 0.0
C3610 C 0.69561 0.13479 0.89173 0.0
C3611 C 0.69281 0.13257 0.87563 0.0
C3612 C 0.70416 0.13676 0.86451 0.0
C3613 C 0.68298 0.13146 0.90346 0.0
C3614 C 0.67524 0.11684 0.90323 0.0
C3615 C 0.67858 0.14268 0.91494 0.0
C3616 C 0.68561 0.15858 0.91542 0.0
C3617 C 0.68474 0.16855 0.90228 0.0
C3618 C 0.69211 0.18321 0.90252 0.0
C3619 C 0.70026 0.18809 0.91591 0.0
C3620 C 0.70097 0.17834 0.92911 0.0
C3621 C 0.69364 0.16366 0.92891 0.0
H3622 H 0.70601 0.19942 0.91606 0.0
H3623 H 0.63771 0.05547 0.91361 0.0
H3624 H 0.34409 0.87555 0.20993 0.0
H3625 H 0.34648 0.89586 0.19001 0.0
H3626 H 0.39604 0.88629 0.18604 0.0
H3627 H 0.39384 0.86597 0.20637 0.0
H3628 H 0.38928 0.91779 0.18945 0.0
H3629 H 0.36927 0.87422 0.15768 0.0
H3630 H 0.34985 0.85358 0.15166 0.0
H3631 H 0.31346 0.88838 0.14869 0.0
H3632 H 0.33263 0.9092 0.15487 0.0
H3633 H 0.40915 0.96196 0.12389 0.0
H3634 H 0.40419 0.94011 0.14179 0.0
H3635 H 0.35436 0.94884 0.13882 0.0
H3636 H 0.35925 0.97035 0.12035 0.0
H3637 H 0.35924 0.91852 0.13949 0.0
H3638 H 0.37505 0.96134 0.17072 0.0
H3639 H 0.3912 0.9841 0.17845 0.0
H3640 H 0.43093 0.9538 0.18535 0.0
H3641 H 0.41505 0.93086 0.17747 0.0
C3642 C 0.35553 0.87765 0.20479 0.0
C3643 C 0.36883 0.86915 0.20978 0.0
C3644 C 0.35682 0.88923 0.19331 0.0
C3645 C 0.37139 0.89245 0.18643 0.0
C3646 C 0.38468 0.8839 0.1912 0.0
C3647 C 0.3834 0.87228 0.20277 0.0
C3648 C 0.37288 0.90529 0.17482 0.0
C3649 C 0.38295 0.91782 0.17839 0.0
C3650 C 0.36381 0.90577 0.16088 0.0
C3651 C 0.35238 0.89325 0.15683 0.0
C3652 C 0.35712 0.87746 0.15581 0.0
C3653 C 0.34615 0.86573 0.15236 0.0
C3654 C 0.33043 0.86967 0.14982 0.0
C3655 C 0.32565 0.88535 0.15066 0.0
C3656 C 0.33656 0.89712 0.15411 0.0
C3657 C 0.39714 0.95919 0.12702 0.0
C3658 C 0.3846 0.96792 0.12088 0.0
C3659 C 0.39431 0.94673 0.13726 0.0
C3660 C 0.37892 0.94305 0.14189 0.0
C3661 C 0.36633 0.9515 0.13543 0.0
C3662 C 0.36914 0.9638 0.12494 0.0
C3663 C 0.37615 0.93071 0.15384 0.0
C3664 C 0.36569 0.91843 0.15048 0.0
C3665 C 0.38436 0.93072 0.16829 0.0
C3666 C 0.3939 0.9444 0.1734 0.0
C3667 C 0.38725 0.95954 0.17382 0.0
C3668 C 0.39635 0.97247 0.17823 0.0
C3669 C 0.41209 0.9704 0.18236 0.0
C3670 C 0.41873 0.95538 0.18214 0.0
C3671 C 0.40969 0.9424 0.17773 0.0
H3672 H 0.41912 0.98043 0.18574 0.0
H3673 H 0.32196 0.86057 0.14718 0.0
H3674 H 0.21413 0.38252 0.14596 0.0
H3675 H 0.19323 0.38717 0.12675 0.0
H3676 H 0.21354 0.35239 0.09607 0.0
H3677 H 0.2343 0.34732 0.11548 0.0
H3678 H 0.20468 0.38544 0.08292 0.0
H3679 H 0.18505 0.3402 0.1124 0.0
H3680 H 0.17805 0.32688 0.13715 0.0
H3681 H 0.14526 0.36367 0.1479 0.0
H3682 H 0.15229 0.37735 0.12333 0.0
H3683 H 0.14753 0.37567 0.02502 0.0
H3684 H 0.16737 0.37183 0.04524 0.0
H3685 H 0.1353 0.38973 0.08019 0.0
H3686 H 0.11504 0.39289 0.05992 0.0
H3687 H 0.1502 0.36712 0.09235 0.0
H3688 H 0.16683 0.41208 0.0643 0.0
H3689 H 0.17403 0.42884 0.04181 0.0
H3690 H 0.21207 0.39773 0.03051 0.0
H3691 H 0.20496 0.38064 0.05279 0.0
C3692 C 0.2141 0.37581 0.13515 0.0
C3693 C 0.22576 0.3645 0.13221 0.0
C3694 C 0.20219 0.3785 0.12421 0.0
C3695 C 0.20193 0.37014 0.11005 0.0
C3696 C 0.21362 0.35895 0.10698 0.0
C3697 C 0.22536 0.35599 0.11808 0.0
C3698 C 0.18928 0.37297 0.09854 0.0
C3699 C 0.19279 0.38127 0.08478 0.0
C3700 C 0.17369 0.36821 0.10149 0.0
C3701 C 0.16931 0.35986 0.11612 0.0
C3702 C 0.17646 0.34552 0.12011 0.0
C3703 C 0.17247 0.33789 0.13409 0.0
C3704 C 0.16125 0.34444 0.14411 0.0
C3705 C 0.15396 0.35862 0.14014 0.0
C3706 C 0.15794 0.3663 0.12619 0.0
C3707 C 0.14465 0.37863 0.03705 0.0
C3708 C 0.12977 0.38457 0.04093 0.0
C3709 C 0.15607 0.37661 0.04859 0.0
C3710 C 0.15304 0.38092 0.0642 0.0
C3711 C 0.13798 0.38642 0.06821 0.0
C3712 C 0.12639 0.38815 0.05666 0.0
C3713 C 0.16553 0.37934 0.0763 0.0
C3714 C 0.16203 0.37136 0.09031 0.0
C3715 C 0.18106 0.38485 0.07375 0.0
C3716 C 0.18524 0.39497 0.06015 0.0
C3717 C 0.17663 0.40871 0.05693 0.0
C3718 C 0.18072 0.4183 0.04423 0.0
C3719 C 0.19347 0.41433 0.03471 0.0
C3720 C 0.20218 0.40078 0.03788 0.0
C3721 C 0.19812 0.39114 0.05055 0.0
H3722 H 0.19663 0.42178 0.0249 0.0
H3723 H 0.15817 0.33852 0.15494 0.0
H3724 H 0.60853 0.63909 0.19143 0.0
H3725 H 0.6079 0.6162 0.17395 0.0
H3726 H 0.6524 0.60063 0.19245 0.0
H3727 H 0.65322 0.62338 0.20975 0.0
H3728 H 0.65202 0.59711 0.16147 0.0
H3729 H 0.61944 0.58284 0.20418 0.0
H3730 H 0.59821 0.58487 0.22374 0.0
H3731 H 0.56394 0.58593 0.18676 0.0
H3732 H 0.585 0.58413 0.16696 0.0
H3733 H 0.64496 0.51852 0.1311 0.0
H3734 H 0.64854 0.5418 0.14752 0.0
H3735 H 0.6041 0.56004 0.13135 0.0
H3736 H 0.60023 0.53658 0.11532 0.0
H3737 H 0.60596 0.56152 0.16208 0.0
H3738 H 0.6416 0.57487 0.11917 0.0
H3739 H 0.66435 0.57019 0.10186 0.0
H3740 H 0.69474 0.56779 0.14203 0.0
H3741 H 0.67215 0.57229 0.15959 0.0
C3742 C 0.61818 0.6308 0.19175 0.0
C3743 C 0.63085 0.63305 0.20207 0.0
C3744 C 0.6178 0.61771 0.18179 0.0
C3745 C 0.63006 0.60663 0.18199 0.0
C3746 C 0.64283 0.60901 0.19207 0.0
C3747 C 0.64321 0.62202 0.20203 0.0
C3748 C 0.62946 0.59241 0.17191 0.0
C3749 C 0.64199 0.58926 0.16165 0.0
C3750 C 0.61649 0.58208 0.17226 0.0
C3751 C 0.60381 0.58357 0.18409 0.0
C3752 C 0.60739 0.58371 0.20021 0.0
C3753 C 0.59538 0.58476 0.21134 0.0
C3754 C 0.57974 0.58558 0.20649 0.0
C3755 C 0.57607 0.58534 0.1905 0.0
C3756 C 0.58803 0.5843 0.17931 0.0
C3757 C 0.63599 0.52754 0.13099 0.0
C3758 C 0.62225 0.52568 0.122 0.0
C3759 C 0.63811 0.5409 0.14029 0.0
C3760 C 0.62667 0.55277 0.14055 0.0
C3761 C 0.61309 0.55103 0.13135 0.0
C3762 C 0.61087 0.53761 0.12221 0.0
C3763 C 0.62819 0.56653 0.15114 0.0
C3764 C 0.6159 0.56947 0.1617 0.0
C3765 C 0.64158 0.5764 0.1513 0.0
C3766 C 0.65516 0.57379 0.1407 0.0
C3767 C 0.65312 0.57325 0.12432 0.0
C3768 C 0.66599 0.57064 0.11446 0.0
C3769 C 0.68097 0.56866 0.12085 0.0
C3770 C 0.68313 0.56932 0.1371 0.0
C3771 C 0.6703 0.57192 0.147 0.0
H3772 H 0.69092 0.56664 0.1132 0.0
H3773 H 0.57045 0.58636 0.21513 0.0
H3774 H 0.78405 0.12065 0.14309 0.0
H3775 H 0.80447 0.11395 0.12415 0.0
H3776 H 0.79722 0.15818 0.10051 0.0
H3777 H 0.77663 0.16502 0.11951 0.0
H3778 H 0.79955 0.1317 0.07996 0.0
H3779 H 0.82768 0.15342 0.1252 0.0
H3780 H 0.83529 0.15417 0.15315 0.0
H3781 H 0.85209 0.10669 0.15019 0.0
H3782 H 0.84436 0.10556 0.1223 0.0
H3783 H 0.87054 0.13256 0.03413 0.0
H3784 H 0.84913 0.13985 0.05219 0.0
H3785 H 0.85752 0.09769 0.07908 0.0
H3786 H 0.87858 0.09034 0.06111 0.0
H3787 H 0.85427 0.12286 0.09778 0.0
H3788 H 0.82797 0.09831 0.05631 0.0
H3789 H 0.81893 0.09205 0.02957 0.0
H3790 H 0.79689 0.13728 0.02611 0.0
H3791 H 0.80613 0.14401 0.05273 0.0
C3792 C 0.78679 0.12901 0.1339 0.0
C3793 C 0.77877 0.14345 0.13289 0.0
C3794 C 0.7985 0.12514 0.12309 0.0
C3795 C 0.80247 0.13561 0.111 0.0
C3796 C 0.79436 0.14995 0.10979 0.0
C3797 C 0.78269 0.15389 0.12071 0.0
C3798 C 0.81523 0.13167 0.09978 0.0
C3799 C 0.8116 0.13009 0.08375 0.0
C3800 C 0.83075 0.12865 0.10491 0.0
C3801 C 0.83531 0.12937 0.1217 0.0
C3802 C 0.83287 0.14309 0.13055 0.0
C3803 C 0.83723 0.14359 0.14638 0.0
C3804 C 0.84413 0.13048 0.15345 0.0
C3805 C 0.84672 0.11683 0.14471 0.0
C3806 C 0.84236 0.11626 0.12889 0.0
C3807 C 0.86796 0.12506 0.04409 0.0
C3808 C 0.87629 0.11099 0.04637 0.0
C3809 C 0.85562 0.1291 0.05424 0.0
C3810 C 0.85167 0.11923 0.0669 0.0
C3811 C 0.86035 0.10546 0.0694 0.0
C3812 C 0.87241 0.10131 0.05916 0.0
C3813 C 0.83873 0.1233 0.07785 0.0
C3814 C 0.8423 0.12473 0.09386 0.0
C3815 C 0.82306 0.12548 0.07276 0.0
C3816 C 0.81805 0.12181 0.05645 0.0
C3817 C 0.82148 0.10707 0.04975 0.0
C3818 C 0.81625 0.1034 0.03463 0.0
C3819 C 0.80741 0.11429 0.02611 0.0
C3820 C 0.8038 0.12889 0.0327 0.0
C3821 C 0.80906 0.13265 0.0478 0.0
H3822 H 0.80331 0.1114 0.01443 0.0
H3823 H 0.84752 0.1309 0.1657 0.0
H3824 H 0.37362 0.38503 0.02006 0.0
H3825 H 0.35441 0.37819 0.0403 0.0
H3826 H 0.39068 0.38094 0.07566 0.0
H3827 H 0.4101 0.38648 0.05517 0.0
H3828 H 0.37247 0.35744 0.08204 0.0
H3829 H 0.36163 0.41251 0.06664 0.0
H3830 H 0.35522 0.43211 0.04621 0.0
H3831 H 0.3136 0.40631 0.0342 0.0
H3832 H 0.31983 0.38654 0.05449 0.0
H3833 H 0.3288 0.36647 0.15127 0.0
H3834 H 0.34628 0.37072 0.12887 0.0
H3835 H 0.30639 0.37016 0.09757 0.0
H3836 H 0.28889 0.36689 0.11997 0.0
H3837 H 0.32486 0.39056 0.08746 0.0
H3838 H 0.33221 0.33746 0.10275 0.0
H3839 H 0.33741 0.31531 0.1207 0.0
H3840 H 0.38342 0.3335 0.13026 0.0
H3841 H 0.37843 0.35588 0.11251 0.0
C3842 C 0.3774 0.38427 0.03219 0.0
C3843 C 0.3932 0.38658 0.03619 0.0
C3844 C 0.36644 0.38039 0.04376 0.0
C3845 C 0.37097 0.37948 0.05963 0.0
C3846 C 0.38685 0.38164 0.06354 0.0
C3847 C 0.39791 0.38495 0.05189 0.0
C3848 C 0.35923 0.37667 0.07226 0.0
C3849 C 0.36216 0.3648 0.08335 0.0
C3850 C 0.34534 0.38573 0.07357 0.0
C3851 C 0.34121 0.39808 0.06203 0.0
C3852 C 0.35109 0.41108 0.05967 0.0
C3853 C 0.3475 0.42219 0.0481 0.0
C3854 C 0.33402 0.42044 0.03891 0.0
C3855 C 0.32403 0.40765 0.04134 0.0
C3856 C 0.32755 0.39653 0.0529 0.0
C3857 C 0.32378 0.36752 0.13963 0.0
C3858 C 0.3075 0.36641 0.13738 0.0
C3859 C 0.33378 0.36975 0.1268 0.0
C3860 C 0.32772 0.37035 0.11143 0.0
C3861 C 0.31139 0.36971 0.10926 0.0
C3862 C 0.30138 0.36789 0.12211 0.0
C3863 C 0.33836 0.37167 0.09763 0.0
C3864 C 0.33516 0.38317 0.08624 0.0
C3865 C 0.35176 0.36197 0.09583 0.0
C3866 C 0.35489 0.34843 0.1064 0.0
C3867 C 0.34341 0.33679 0.10875 0.0
C3868 C 0.34632 0.32419 0.11888 0.0
C3869 C 0.36072 0.32302 0.12664 0.0
C3870 C 0.37227 0.33443 0.12424 0.0
C3871 C 0.36941 0.34707 0.11414 0.0
H3872 H 0.36295 0.31326 0.13449 0.0
H3873 H 0.33131 0.42901 0.02991 0.0
H3874 H 0.30103 0.65688 0.38432 0.0
H3875 H 0.31816 0.65448 0.40724 0.0
H3876 H 0.33916 0.61295 0.38728 0.0
H3877 H 0.322 0.61522 0.3643 0.0
H3878 H 0.33075 0.60877 0.41814 0.0
H3879 H 0.35807 0.64942 0.3878 0.0
H3880 H 0.35991 0.67526 0.37478 0.0
H3881 H 0.34847 0.69826 0.41817 0.0
H3882 H 0.34638 0.67255 0.4314 0.0
H3883 H 0.396 0.59295 0.46296 0.0
H3884 H 0.37963 0.60135 0.441 0.0
H3885 H 0.36622 0.64299 0.46658 0.0
H3886 H 0.3832 0.63488 0.48848 0.0
H3887 H 0.36876 0.64949 0.4353 0.0
H3888 H 0.34118 0.61297 0.46624 0.0
H3889 H 0.33883 0.58893 0.48223 0.0
H3890 H 0.34755 0.56063 0.4414 0.0
H3891 H 0.35014 0.58456 0.42519 0.0
C3892 C 0.30932 0.64724 0.38474 0.0
C3893 C 0.31006 0.63621 0.3724 0.0
C3894 C 0.31919 0.64595 0.39786 0.0
C3895 C 0.33008 0.63361 0.39898 0.0
C3896 C 0.33088 0.6226 0.38669 0.0
C3897 C 0.32106 0.62392 0.37352 0.0
C3898 C 0.34023 0.63172 0.41318 0.0
C3899 C 0.33917 0.61763 0.42172 0.0
C3900 C 0.35062 0.64362 0.41854 0.0
C3901 C 0.35191 0.65905 0.41054 0.0
C3902 C 0.35582 0.65998 0.39453 0.0
C3903 C 0.35694 0.67461 0.38712 0.0
C3904 C 0.35426 0.68839 0.39563 0.0
C3905 C 0.35051 0.68758 0.41158 0.0
C3906 C 0.34938 0.67298 0.41904 0.0
C3907 C 0.38963 0.60392 0.46392 0.0
C3908 C 0.39067 0.61309 0.47757 0.0
C3909 C 0.38029 0.60876 0.45132 0.0
C3910 C 0.3714 0.62265 0.45223 0.0
C3911 C 0.37291 0.63221 0.46559 0.0
C3912 C 0.38253 0.6275 0.47814 0.0
C3913 C 0.3597 0.62629 0.43968 0.0
C3914 C 0.36031 0.64069 0.43166 0.0
C3915 C 0.34842 0.61499 0.43511 0.0
C3916 C 0.34587 0.60053 0.44451 0.0
C3917 C 0.34255 0.60161 0.46067 0.0
C3918 C 0.34122 0.58802 0.46977 0.0
C3919 C 0.34305 0.57326 0.46283 0.0
C3920 C 0.34611 0.57208 0.44675 0.0
C3921 C 0.34747 0.58565 0.43758 0.0
H3922 H 0.34209 0.56274 0.46992 0.0
H3923 H 0.35513 0.6997 0.38987 0.0
H3924 H 0.89681 0.42494 0.89108 0.0
H3925 H 0.89106 0.40889 0.86801 0.0
H3926 H 0.87786 0.45059 0.84231 0.0
H3927 H 0.88284 0.46658 0.86572 0.0
H3928 H 0.85945 0.42858 0.83413 0.0
H3929 H 0.91526 0.43142 0.83838 0.0
H3930 H 0.94125 0.42916 0.85096 0.0
H3931 H 0.9341 0.37966 0.85756 0.0
H3932 H 0.90799 0.38165 0.8452 0.0
H3933 H 0.85863 0.38705 0.76198 0.0
H3934 H 0.86649 0.40582 0.78233 0.0
H3935 H 0.87906 0.36734 0.81294 0.0
H3936 H 0.87228 0.34868 0.79219 0.0
H3937 H 0.89928 0.38977 0.81671 0.0
H3938 H 0.8418 0.38859 0.81496 0.0
H3939 H 0.81706 0.39092 0.80004 0.0
H3940 H 0.82903 0.43818 0.78701 0.0
H3941 H 0.85389 0.43606 0.80177 0.0
C3942 C 0.89234 0.43062 0.8806 0.0
C3943 C 0.89017 0.44699 0.88022 0.0
C3944 C 0.88929 0.42147 0.86732 0.0
C3945 C 0.88449 0.42853 0.85319 0.0
C3946 C 0.88165 0.44483 0.853 0.0
C3947 C 0.88437 0.45396 0.86643 0.0
C3948 C 0.8824 0.41891 0.83868 0.0
C3949 C 0.86829 0.42027 0.83025 0.0
C3950 C 0.89386 0.40795 0.83351 0.0
C3951 C 0.90958 0.40672 0.84098 0.0
C3952 C 0.91918 0.42007 0.84261 0.0
C3953 C 0.93394 0.41883 0.84969 0.0
C3954 C 0.9393 0.40428 0.85509 0.0
C3955 C 0.92993 0.39093 0.85339 0.0
C3956 C 0.91515 0.3921 0.84633 0.0
C3957 C 0.86297 0.38265 0.77311 0.0
C3958 C 0.86453 0.36644 0.77568 0.0
C3959 C 0.86749 0.39337 0.78474 0.0
C3960 C 0.87299 0.38804 0.7994 0.0
C3961 C 0.8748 0.3718 0.8018 0.0
C3962 C 0.87077 0.36113 0.79 0.0
C3963 C 0.87619 0.39919 0.81253 0.0
C3964 C 0.89051 0.39815 0.82064 0.0
C3965 C 0.86503 0.41054 0.81735 0.0
C3966 C 0.84965 0.41217 0.80943 0.0
C3967 C 0.83908 0.3995 0.80898 0.0
C3968 C 0.82508 0.40077 0.80052 0.0
C3969 C 0.82148 0.41469 0.79258 0.0
C3970 C 0.83182 0.42742 0.79318 0.0
C3971 C 0.84585 0.42621 0.80163 0.0
H3972 H 0.81068 0.41561 0.78595 0.0
H3973 H 0.95073 0.40335 0.86056 0.0
H3974 H 0.62989 0.88543 0.48987 0.0
H3975 H 0.64791 0.8778 0.4688 0.0
H3976 H 0.61417 0.89358 0.43433 0.0
H3977 H 0.59569 0.89984 0.45541 0.0
H3978 H 0.62629 0.86854 0.42414 0.0
H3979 H 0.65068 0.91535 0.44829 0.0
H3980 H 0.66152 0.92898 0.47148 0.0
H3981 H 0.69493 0.89175 0.47804 0.0
H3982 H 0.68421 0.87787 0.45497 0.0
H3983 H 0.6727 0.87886 0.35651 0.0
H3984 H 0.65643 0.88284 0.37982 0.0
H3985 H 0.69346 0.8643 0.40902 0.0
H3986 H 0.70994 0.8607 0.38584 0.0
H3987 H 0.68115 0.88794 0.42337 0.0
H3988 H 0.66027 0.84233 0.39943 0.0
H3989 H 0.64944 0.82542 0.37858 0.0
H3990 H 0.60996 0.85641 0.37363 0.0
H3991 H 0.62068 0.87365 0.3943 0.0
C3992 C 0.62643 0.88734 0.47777 0.0
C3993 C 0.61153 0.89343 0.47421 0.0
C3994 C 0.63676 0.88306 0.4657 0.0
C3995 C 0.63269 0.8855 0.44984 0.0
C3996 C 0.61772 0.89159 0.44639 0.0
C3997 C 0.60719 0.8953 0.45843 0.0
C3998 C 0.6438 0.88174 0.43675 0.0
C3999 C 0.6382 0.87303 0.42389 0.0
C4000 C 0.65967 0.88677 0.43666 0.0
C4001 C 0.66662 0.89557 0.44996 0.0
C4002 C 0.66038 0.91012 0.45466 0.0
C4003 C 0.66647 0.91786 0.4678 0.0
C4004 C 0.67889 0.91122 0.47624 0.0
C4005 C 0.68532 0.89688 0.47149 0.0
C4006 C 0.67927 0.88909 0.45837 0.0
C4007 C 0.67744 0.87572 0.36789 0.0
C4008 C 0.69265 0.86942 0.36923 0.0
C4009 C 0.66806 0.87789 0.38124 0.0
C4010 C 0.67356 0.87361 0.39624 0.0
C4011 C 0.68887 0.86766 0.39763 0.0
C4012 C 0.6983 0.86559 0.38431 0.0
C4013 C 0.66336 0.87542 0.41042 0.0
C4014 C 0.66919 0.88357 0.42354 0.0
C4015 C 0.64779 0.86961 0.41089 0.0
C4016 C 0.64138 0.85938 0.39831 0.0
C4017 C 0.64936 0.84563 0.39379 0.0
C4018 C 0.64322 0.83597 0.38202 0.0
C4019 C 0.62904 0.83987 0.37475 0.0
C4020 C 0.62096 0.85342 0.37925 0.0
C4021 C 0.62705 0.86314 0.391 0.0
H4022 H 0.6243 0.83236 0.36565 0.0
H4023 H 0.68354 0.9172 0.48645 0.0
H4024 H 0.601 0.5599 0.38705 0.0
H4025 H 0.60167 0.57801 0.36483 0.0
H4026 H 0.6516 0.57086 0.36049 0.0
H4027 H 0.6511 0.55288 0.38292 0.0
H4028 H 0.64412 0.60138 0.35806 0.0
H4029 H 0.62381 0.5525 0.33584 0.0
H4030 H 0.60496 0.53064 0.33334 0.0
H4031 H 0.56758 0.56351 0.32519 0.0
H4032 H 0.58617 0.58557 0.32782 0.0
H4033 H 0.66094 0.62951 0.28261 0.0
H4034 H 0.65694 0.61276 0.3056 0.0
H4035 H 0.60726 0.62248 0.30419 0.0
H4036 H 0.61111 0.63898 0.28102 0.0
H4037 H 0.61212 0.59222 0.31023 0.0
H4038 H 0.62977 0.64044 0.3313 0.0
H4039 H 0.64671 0.66383 0.33338 0.0
H4040 H 0.68617 0.63448 0.34458 0.0
H4041 H 0.66949 0.61088 0.34237 0.0
C4042 C 0.61217 0.56221 0.38143 0.0
C4043 C 0.62602 0.55489 0.38677 0.0
C4044 C 0.61249 0.5725 0.36864 0.0
C4045 C 0.62664 0.57559 0.36081 0.0
C4046 C 0.64054 0.56859 0.36632 0.0
C4047 C 0.64024 0.55834 0.37917 0.0
C4048 C 0.62709 0.58628 0.34702 0.0
C4049 C 0.63727 0.59924 0.34754 0.0
C4050 C 0.61754 0.58398 0.33356 0.0
C4051 C 0.60636 0.57069 0.33221 0.0
C4052 C 0.61155 0.55507 0.33367 0.0
C4053 C 0.60091 0.54265 0.33219 0.0
C4054 C 0.58508 0.54569 0.32916 0.0
C4055 C 0.57984 0.56117 0.32757 0.0
C4056 C 0.59042 0.57363 0.32904 0.0
C4057 C 0.64918 0.6281 0.2872 0.0
C4058 C 0.63638 0.63566 0.28006 0.0
C4059 C 0.6469 0.61855 0.30035 0.0
C4060 C 0.63182 0.61654 0.30674 0.0
C4061 C 0.61899 0.62387 0.29948 0.0
C4062 C 0.62124 0.63335 0.28627 0.0
C4063 C 0.62956 0.60693 0.32112 0.0
C4064 C 0.61896 0.59433 0.32078 0.0
C4065 C 0.63839 0.60975 0.3349 0.0
C4066 C 0.64841 0.62389 0.33656 0.0
C4067 C 0.64208 0.63897 0.33413 0.0
C4068 C 0.65163 0.65226 0.33534 0.0
C4069 C 0.66752 0.65064 0.33908 0.0
C4070 C 0.67387 0.63571 0.34168 0.0
C4071 C 0.66437 0.62238 0.34047 0.0
H4072 H 0.6749 0.66094 0.33998 0.0
H4073 H 0.57687 0.53605 0.328 0.0
H4074 H 0.12116 0.5871 0.53628 0.0
H4075 H 0.13744 0.59571 0.55827 0.0
H4076 H 0.14045 0.64214 0.53818 0.0
H4077 H 0.1241 0.63364 0.5161 0.0
H4078 H 0.16901 0.63208 0.54899 0.0
H4079 H 0.11875 0.63896 0.56891 0.0
H4080 H 0.09093 0.63353 0.57465 0.0
H4081 H 0.10424 0.59402 0.60308 0.0
H4082 H 0.13217 0.59908 0.59733 0.0
H4083 H 0.2024 0.65625 0.62353 0.0
H4084 H 0.18406 0.65495 0.60148 0.0
H4085 H 0.18105 0.60468 0.60692 0.0
H4086 H 0.19973 0.60581 0.62886 0.0
H4087 H 0.15096 0.6223 0.60355 0.0
H4088 H 0.20348 0.61793 0.57954 0.0
H4089 H 0.23001 0.62799 0.57375 0.0
H4090 H 0.21007 0.66968 0.55347 0.0
H4091 H 0.18343 0.65993 0.55932 0.0
C4092 C 0.12529 0.59913 0.5365 0.0
C4093 C 0.12128 0.60967 0.52446 0.0
C4094 C 0.13454 0.60407 0.54912 0.0
C4095 C 0.14002 0.61961 0.54994 0.0
C4096 C 0.13632 0.63011 0.53779 0.0
C4097 C 0.12694 0.62522 0.52521 0.0
C4098 C 0.14969 0.62464 0.56353 0.0
C4099 C 0.16498 0.63018 0.56093 0.0
C4100 C 0.14432 0.62257 0.57911 0.0
C4101 C 0.12756 0.61931 0.58256 0.0
C4102 C 0.11575 0.62901 0.57626 0.0
C4103 C 0.09996 0.62603 0.57955 0.0
C4104 C 0.09582 0.61341 0.58919 0.0
C4105 C 0.10747 0.60378 0.59559 0.0
C4106 C 0.12329 0.60671 0.59234 0.0
C4107 C 0.19775 0.64491 0.62015 0.0
C4108 C 0.20248 0.6311 0.62798 0.0
C4109 C 0.18733 0.64421 0.60748 0.0
C4110 C 0.18129 0.62973 0.60256 0.0
C4111 C 0.18564 0.61597 0.61057 0.0
C4112 C 0.1963 0.61662 0.62308 0.0
C4113 C 0.17051 0.62882 0.58895 0.0
C4114 C 0.15492 0.62425 0.59161 0.0
C4115 C 0.17544 0.63246 0.57349 0.0
C4116 C 0.19148 0.63828 0.57003 0.0
C4117 C 0.20476 0.6293 0.57399 0.0
C4118 C 0.21982 0.63494 0.57066 0.0
C4119 C 0.22173 0.64949 0.56329 0.0
C4120 C 0.20858 0.65842 0.5592 0.0
C4121 C 0.19351 0.65284 0.56251 0.0
H4122 H 0.23339 0.65382 0.56072 0.0
H4123 H 0.08359 0.61112 0.59173 0.0
H4124 H 0.89274 0.63385 0.72889 0.0
H4125 H 0.89765 0.6175 0.70586 0.0
H4126 H 0.84948 0.62337 0.69138 0.0
H4127 H 0.84439 0.6395 0.71463 0.0
H4128 H 0.85792 0.59329 0.69055 0.0
H4129 H 0.88201 0.64219 0.67288 0.0
H4130 H 0.90076 0.66419 0.67469 0.0
H4131 H 0.93928 0.63166 0.6748 0.0
H4132 H 0.92077 0.60945 0.67319 0.0
H4133 H 0.86027 0.55927 0.61527 0.0
H4134 H 0.85779 0.57786 0.63704 0.0
H4135 H 0.90707 0.57252 0.64739 0.0
H4136 H 0.9097 0.55422 0.62548 0.0
H4137 H 0.8996 0.60198 0.65086 0.0
H4138 H 0.87905 0.55401 0.66952 0.0
H4139 H 0.86288 0.53001 0.67032 0.0
H4140 H 0.82099 0.55804 0.67175 0.0
H4141 H 0.83691 0.58223 0.6707 0.0
C4142 C 0.88319 0.63176 0.72077 0.0
C4143 C 0.86812 0.63795 0.72367 0.0
C4144 C 0.88607 0.62247 0.70751 0.0
C4145 C 0.874 0.61931 0.69673 0.0
C4146 C 0.859 0.62566 0.6995 0.0
C4147 C 0.8561 0.6349 0.7128 0.0
C4148 C 0.87662 0.60857 0.68314 0.0
C4149 C 0.86684 0.59538 0.6817 0.0
C4150 C 0.88887 0.61074 0.67208 0.0
C4151 C 0.89997 0.62414 0.67305 0.0
C4152 C 0.89447 0.63972 0.67341 0.0
C4153 C 0.90506 0.65223 0.67438 0.0
C4154 C 0.9212 0.64932 0.6749 0.0
C4155 C 0.92678 0.6339 0.67441 0.0
C4156 C 0.91624 0.62134 0.67346 0.0
C4157 C 0.8706 0.56211 0.62211 0.0
C4158 C 0.88515 0.55513 0.61863 0.0
C4159 C 0.86916 0.5727 0.63463 0.0
C4160 C 0.88219 0.57645 0.64407 0.0
C4161 C 0.89682 0.56984 0.64035 0.0
C4162 C 0.89828 0.5593 0.62781 0.0
C4163 C 0.88049 0.58701 0.65798 0.0
C4164 C 0.89055 0.6 0.6596 0.0
C4165 C 0.86882 0.58443 0.66954 0.0
C4166 C 0.85917 0.56993 0.66982 0.0
C4167 C 0.86638 0.55506 0.66981 0.0
C4168 C 0.85727 0.54142 0.67035 0.0
C4169 C 0.84092 0.5425 0.67103 0.0
C4170 C 0.83366 0.55722 0.67118 0.0
C4171 C 0.84272 0.5709 0.67061 0.0
H4172 H 0.83388 0.53193 0.67149 0.0
H4173 H 0.92937 0.65903 0.67564 0.0
H4174 H 0.1235 0.88949 0.73446 0.0
H4175 H 0.11689 0.90606 0.71202 0.0
H4176 H 0.1496 0.88006 0.68331 0.0
H4177 H 0.1569 0.86406 0.70607 0.0
H4178 H 0.15348 0.90844 0.67736 0.0
H4179 H 0.10564 0.87784 0.68146 0.0
H4180 H 0.08177 0.8672 0.69395 0.0
H4181 H 0.06524 0.91403 0.7028 0.0
H4182 H 0.08906 0.92494 0.6905 0.0
H4183 H 0.12511 0.9362 0.60267 0.0
H4184 H 0.13075 0.9195 0.62559 0.0
H4185 H 0.11024 0.95433 0.65607 0.0
H4186 H 0.10513 0.97126 0.63336 0.0
H4187 H 0.09932 0.92215 0.66104 0.0
H4188 H 0.14635 0.9526 0.65822 0.0
H4189 H 0.16985 0.96421 0.64596 0.0
H4190 H 0.18733 0.9181 0.63529 0.0
H4191 H 0.16381 0.90622 0.64732 0.0
C4192 C 0.12932 0.88733 0.72336 0.0
C4193 C 0.14085 0.87555 0.72207 0.0
C4194 C 0.12535 0.89671 0.71043 0.0
C4195 C 0.13247 0.89422 0.69574 0.0
C4196 C 0.1439 0.88231 0.69445 0.0
C4197 C 0.14814 0.87317 0.70749 0.0
C4198 C 0.12889 0.90462 0.68201 0.0
C4199 C 0.14158 0.91108 0.67367 0.0
C4200 C 0.11338 0.90879 0.67744 0.0
C4201 C 0.09924 0.9022 0.68519 0.0
C4202 C 0.09699 0.88586 0.6862 0.0
C4203 C 0.08344 0.87979 0.69321 0.0
C4204 C 0.07202 0.88993 0.6992 0.0
C4205 C 0.07411 0.90618 0.69818 0.0
C4206 C 0.08762 0.91232 0.69118 0.0
C4207 C 0.12202 0.94035 0.61429 0.0
C4208 C 0.11488 0.95511 0.61624 0.0
C4209 C 0.12518 0.9308 0.62735 0.0
C4210 C 0.12087 0.93566 0.64253 0.0
C4211 C 0.11366 0.95035 0.64448 0.0
C4212 C 0.11089 0.96007 0.6315 0.0
C4213 C 0.1239 0.92542 0.65637 0.0
C4214 C 0.11115 0.91919 0.66474 0.0
C4215 C 0.13929 0.92146 0.66105 0.0
C4216 C 0.15323 0.92854 0.65346 0.0
C4217 C 0.15511 0.94495 0.65307 0.0
C4218 C 0.16846 0.95157 0.64621 0.0
C4219 C 0.18005 0.9419 0.6398 0.0
C4220 C 0.17832 0.92558 0.64023 0.0
C4221 C 0.16499 0.91889 0.64706 0.0
H4222 H 0.1904 0.94705 0.63453 0.0
H4223 H 0.06153 0.88521 0.7046 0.0
H4224 H 0.63339 0.8032 0.89912 0.0
H4225 H 0.61182 0.82195 0.90202 0.0
H4226 H 0.60361 0.82044 0.85201 0.0
H4227 H 0.62579 0.80252 0.84898 0.0
H4228 H 0.59766 0.84804 0.86041 0.0
H4229 H 0.58057 0.79902 0.87966 0.0
H4230 H 0.5806 0.7744 0.89496 0.0
H4231 H 0.5793 0.8008 0.93791 0.0
H4232 H 0.5795 0.82558 0.92288 0.0
H4233 H 0.5195 0.8806 0.87585 0.0
H4234 H 0.54172 0.86462 0.86686 0.0
H4235 H 0.56194 0.86682 0.91327 0.0
H4236 H 0.53969 0.88234 0.92238 0.0
H4237 H 0.55951 0.8373 0.90301 0.0
H4238 H 0.57624 0.8875 0.87936 0.0
H4239 H 0.57326 0.90971 0.86095 0.0
H4240 H 0.57081 0.87757 0.82217 0.0
H4241 H 0.57356 0.85518 0.84036 0.0
C4242 C 0.62709 0.80702 0.88874 0.0
C4243 C 0.63125 0.80132 0.87386 0.0
C4244 C 0.61466 0.81765 0.8904 0.0
C4245 C 0.6057 0.82233 0.87729 0.0
C4246 C 0.61021 0.81703 0.86234 0.0
C4247 C 0.62292 0.80674 0.86063 0.0
C4248 C 0.59143 0.83233 0.87931 0.0
C4249 C 0.58925 0.84559 0.86965 0.0
C4250 C 0.58012 0.82903 0.89104 0.0
C4251 C 0.58021 0.81416 0.90014 0.0
C4252 C 0.58043 0.79957 0.89237 0.0
C4253 C 0.58038 0.78559 0.901 0.0
C4254 C 0.57999 0.78604 0.9174 0.0
C4255 C 0.57963 0.80047 0.92521 0.0
C4256 C 0.5797 0.81449 0.91665 0.0
C4257 C 0.52877 0.87778 0.88409 0.0
C4258 C 0.52774 0.88257 0.8999 0.0
C4259 C 0.54152 0.86873 0.87889 0.0
C4260 C 0.55356 0.86454 0.88937 0.0
C4261 C 0.55277 0.86984 0.90498 0.0
C4262 C 0.54 0.87869 0.9102 0.0
C4263 C 0.5663 0.85348 0.88482 0.0
C4264 C 0.56799 0.83979 0.89384 0.0
C4265 C 0.57669 0.8561 0.8721 0.0
C4266 C 0.57494 0.86965 0.86126 0.0
C4267 C 0.57492 0.88516 0.86693 0.0
C4268 C 0.5733 0.89779 0.85652 0.0
C4269 C 0.5718 0.89505 0.84041 0.0
C4270 C 0.57194 0.87968 0.83465 0.0
C4271 C 0.57354 0.86703 0.84501 0.0
H4272 H 0.57057 0.90484 0.83237 0.0
H4273 H 0.57993 0.7752 0.92405 0.0
H4274 H 0.06002 0.11284 0.38068 0.0
H4275 H 0.07947 0.13368 0.37582 0.0
H4276 H 0.04414 0.16888 0.38472 0.0
H4277 H 0.02486 0.1483 0.38967 0.0
H4278 H 0.0617 0.17619 0.35925 0.0
H4279 H 0.06906 0.16182 0.41219 0.0
H4280 H 0.07329 0.14444 0.43495 0.0
H4281 H 0.11821 0.13084 0.41658 0.0
H4282 H 0.11412 0.14794 0.39353 0.0
H4283 H 0.11594 0.23956 0.36094 0.0
H4284 H 0.09532 0.22123 0.36889 0.0
H4285 H 0.12868 0.18303 0.36737 0.0
H4286 H 0.14954 0.20161 0.36065 0.0
H4287 H 0.1105 0.17869 0.39094 0.0
H4288 H 0.0998 0.19382 0.3359 0.0
H4289 H 0.09415 0.21383 0.31566 0.0
H4290 H 0.05344 0.22875 0.34137 0.0
H4291 H 0.05894 0.20894 0.36183 0.0
C4292 C 0.05641 0.12503 0.38135 0.0
C4293 C 0.04098 0.12897 0.38556 0.0
C4294 C 0.06751 0.1369 0.37872 0.0
C4295 C 0.06325 0.15282 0.38008 0.0
C4296 C 0.04769 0.1567 0.38366 0.0
C4297 C 0.0367 0.14491 0.38649 0.0
C4298 C 0.07499 0.16549 0.37791 0.0
C4299 C 0.07234 0.17679 0.36622 0.0
C4300 C 0.0887 0.16643 0.38722 0.0
C4301 C 0.09118 0.156 0.401 0.0
C4302 C 0.07976 0.15498 0.41289 0.0
C4303 C 0.08215 0.14521 0.42587 0.0
C4304 C 0.09598 0.13649 0.42718 0.0
C4305 C 0.10747 0.13756 0.41553 0.0
C4306 C 0.10513 0.1473 0.40249 0.0
C4307 C 0.1188 0.22722 0.3622 0.0
C4308 C 0.13423 0.2219 0.35985 0.0
C4309 C 0.10701 0.21673 0.36672 0.0
C4310 C 0.11028 0.20059 0.36827 0.0
C4311 C 0.12579 0.19537 0.36615 0.0
C4312 C 0.13768 0.20595 0.36217 0.0
C4313 C 0.09762 0.18901 0.37171 0.0
C4314 C 0.09996 0.178 0.38382 0.0
C4315 C 0.08342 0.18854 0.36302 0.0
C4316 C 0.07983 0.19998 0.3504 0.0
C4317 C 0.08964 0.20137 0.33721 0.0
C4318 C 0.08648 0.21269 0.32572 0.0
C4319 C 0.07346 0.22257 0.32724 0.0
C4320 C 0.06352 0.2211 0.34021 0.0
C4321 C 0.06664 0.20982 0.35173 0.0
H4322 H 0.07106 0.23136 0.31837 0.0
H4323 H 0.09782 0.12894 0.43726 0.0
H4324 H 0.46744 0.62188 0.92352 0.0
H4325 H 0.44491 0.63675 0.91387 0.0
H4326 H 0.46041 0.62983 0.86617 0.0
H4327 H 0.48309 0.61484 0.87576 0.0
H4328 H 0.45076 0.66007 0.87078 0.0
H4329 H 0.42932 0.61028 0.87705 0.0
H4330 H 0.4241 0.58452 0.88919 0.0
H4331 H 0.40078 0.60717 0.92774 0.0
H4332 H 0.40605 0.63312 0.91591 0.0
H4333 H 0.37314 0.69076 0.84895 0.0
H4334 H 0.39443 0.67134 0.85127 0.0
H4335 H 0.39832 0.68154 0.9007 0.0
H4336 H 0.37756 0.70145 0.89828 0.0
H4337 H 0.39734 0.64674 0.88982 0.0
H4338 H 0.42275 0.698 0.88024 0.0
H4339 H 0.42827 0.72154 0.86428 0.0
H4340 H 0.44344 0.69237 0.82604 0.0
H4341 H 0.43775 0.66864 0.8417 0.0
C4342 C 0.4661 0.62348 0.91097 0.0
C4343 C 0.47709 0.6171 0.90045 0.0
C4344 C 0.45314 0.63195 0.90545 0.0
C4345 C 0.45084 0.63431 0.88927 0.0
C4346 C 0.4619 0.62816 0.8787 0.0
C4347 C 0.47483 0.61954 0.88422 0.0
C4348 C 0.43687 0.64332 0.88368 0.0
C4349 C 0.43904 0.657 0.87471 0.0
C4350 C 0.4215 0.63918 0.88844 0.0
C4351 C 0.41818 0.62366 0.89565 0.0
C4352 C 0.42318 0.60978 0.88818 0.0
C4353 C 0.42019 0.59514 0.89498 0.0
C4354 C 0.41214 0.59421 0.90924 0.0
C4355 C 0.40702 0.60792 0.91669 0.0
C4356 C 0.40998 0.6226 0.90993 0.0
C4357 C 0.37835 0.68863 0.86037 0.0
C4358 C 0.37356 0.69746 0.87351 0.0
C4359 C 0.39059 0.67764 0.86164 0.0
C4360 C 0.39797 0.67502 0.87615 0.0
C4361 C 0.39278 0.68338 0.88939 0.0
C4362 C 0.38089 0.6947 0.88803 0.0
C4363 C 0.41137 0.66387 0.87765 0.0
C4364 C 0.40903 0.6497 0.88576 0.0
C4365 C 0.42645 0.66725 0.8715 0.0
C4366 C 0.42957 0.68154 0.86205 0.0
C4367 C 0.42704 0.6966 0.86835 0.0
C4368 C 0.43025 0.70998 0.85938 0.0
C4369 C 0.43613 0.70845 0.84413 0.0
C4370 C 0.43883 0.69354 0.83783 0.0
C4371 C 0.43561 0.68012 0.84675 0.0
H4372 H 0.43865 0.71883 0.83722 0.0
H4373 H 0.40984 0.58286 0.9145 0.0
H4374 H 0.97371 0.36266 0.39537 0.0
H4375 H 0.95432 0.34266 0.38933 0.0
H4376 H 0.92482 0.37762 0.36754 0.0
H4377 H 0.94436 0.39803 0.37377 0.0
H4378 H 0.90884 0.35806 0.38882 0.0
H4379 H 0.94458 0.35106 0.34495 0.0
H4380 H 0.97056 0.3469 0.33284 0.0
H4381 H 0.97612 0.304 0.35883 0.0
H4382 H 0.95026 0.30799 0.3712 0.0
H4383 H 0.85643 0.30204 0.35394 0.0
H4384 H 0.87503 0.32364 0.35877 0.0
H4385 H 0.90712 0.291 0.38057 0.0
H4386 H 0.88838 0.26953 0.37603 0.0
H4387 H 0.9215 0.30981 0.35869 0.0
H4388 H 0.88921 0.31503 0.40319 0.0
H4389 H 0.86534 0.31782 0.41926 0.0
H4390 H 0.85522 0.36199 0.39705 0.0
H4391 H 0.87893 0.35933 0.38062 0.0
C4392 C 0.96317 0.36617 0.38918 0.0
C4393 C 0.96056 0.38197 0.38506 0.0
C4394 C 0.95211 0.35465 0.38567 0.0
C4395 C 0.93818 0.35859 0.37785 0.0
C4396 C 0.93554 0.37433 0.37352 0.0
C4397 C 0.94673 0.38595 0.37699 0.0
C4398 C 0.92626 0.34623 0.37484 0.0
C4399 C 0.91143 0.34769 0.38189 0.0
C4400 C 0.92999 0.3323 0.36656 0.0
C4401 C 0.94552 0.32988 0.35906 0.0
C4402 C 0.95139 0.34079 0.34814 0.0
C4403 C 0.96608 0.33845 0.34122 0.0
C4404 C 0.97499 0.32521 0.34508 0.0
C4405 C 0.96921 0.31425 0.35584 0.0
C4406 C 0.95452 0.31653 0.36279 0.0
C4407 C 0.8675 0.29957 0.3597 0.0
C4408 C 0.8712 0.28423 0.36445 0.0
C4409 C 0.87803 0.31187 0.36256 0.0
C4410 C 0.89242 0.30892 0.37006 0.0
C4411 C 0.89608 0.29352 0.37476 0.0
C4412 C 0.88545 0.2813 0.37213 0.0
C4413 C 0.90396 0.32176 0.37241 0.0
C4414 C 0.91876 0.32032 0.36536 0.0
C4415 C 0.90035 0.33547 0.38109 0.0
C4416 C 0.88572 0.33684 0.39046 0.0
C4417 C 0.88176 0.32521 0.40152 0.0
C4418 C 0.8683 0.3268 0.41076 0.0
C4419 C 0.85873 0.34004 0.40913 0.0
C4420 C 0.86262 0.35171 0.39826 0.0
C4421 C 0.87607 0.35016 0.38897 0.0
H4422 H 0.84834 0.34128 0.41633 0.0
H4423 H 0.98636 0.32342 0.33971 0.0
H4424 H 0.64398 0.1747 0.6394 0.0
H4425 H 0.62019 0.15892 0.63574 0.0
H4426 H 0.59318 0.20117 0.6286 0.0
H4427 H 0.61699 0.21702 0.63185 0.0
H4428 H 0.57994 0.17824 0.65123 0.0
H4429 H 0.59908 0.18236 0.59816 0.0
H4430 H 0.61868 0.18045 0.57696 0.0
H4431 H 0.62446 0.13121 0.58641 0.0
H4432 H 0.60499 0.13289 0.60782 0.0
H4433 H 0.51207 0.15126 0.60836 0.0
H4434 H 0.53568 0.16446 0.6181 0.0
H4435 H 0.55726 0.11953 0.62709 0.0
H4436 H 0.53351 0.10619 0.61775 0.0
H4437 H 0.5738 0.14201 0.60599 0.0
H4438 H 0.55245 0.13717 0.65721 0.0
H4439 H 0.53301 0.13894 0.67856 0.0
H4440 H 0.53106 0.18904 0.673 0.0
H4441 H 0.55039 0.18756 0.65148 0.0
C4442 C 0.63303 0.18061 0.63677 0.0
C4443 C 0.6324 0.19708 0.63569 0.0
C4444 C 0.61944 0.17159 0.6348 0.0
C4445 C 0.60493 0.17891 0.63203 0.0
C4446 C 0.60427 0.19533 0.63082 0.0
C4447 C 0.61791 0.20434 0.63246 0.0
C4448 C 0.59052 0.16934 0.63005 0.0
C4449 C 0.57848 0.17043 0.64127 0.0
C4450 C 0.58888 0.15881 0.61734 0.0
C4451 C 0.60076 0.1578 0.60471 0.0
C4452 C 0.60467 0.17117 0.59584 0.0
C4453 C 0.61571 0.17012 0.58375 0.0
C4454 C 0.62285 0.15573 0.58038 0.0
C4455 C 0.61894 0.14235 0.58907 0.0
C4456 C 0.60791 0.14334 0.60117 0.0
C4457 C 0.52179 0.14418 0.6125 0.0
C4458 C 0.521 0.12769 0.6121 0.0
C4459 C 0.53519 0.15174 0.61823 0.0
C4460 C 0.54812 0.14296 0.62342 0.0
C4461 C 0.54732 0.12649 0.62325 0.0
C4462 C 0.5338 0.11891 0.61782 0.0
C4463 C 0.56308 0.15102 0.62703 0.0
C4464 C 0.57527 0.14968 0.61607 0.0
C4465 C 0.56478 0.16128 0.63998 0.0
C4466 C 0.55274 0.16223 0.65256 0.0
C4467 C 0.54772 0.14855 0.66037 0.0
C4468 C 0.53677 0.1495 0.67256 0.0
C4469 C 0.53076 0.16409 0.6771 0.0
C4470 C 0.5357 0.17775 0.66945 0.0
C4471 C 0.54668 0.17686 0.65727 0.0
H4472 H 0.52231 0.16481 0.68656 0.0
H4473 H 0.63138 0.15493 0.57099 0.0
H4474 H 0.35278 0.22046 0.61727 0.0
H4475 H 0.37028 0.19799 0.61352 0.0
H4476 H 0.40091 0.21568 0.64974 0.0
H4477 H 0.38334 0.23817 0.65373 0.0
H4478 H 0.41607 0.20539 0.62044 0.0
H4479 H 0.37766 0.18764 0.65924 0.0
H4480 H 0.35032 0.18331 0.66769 0.0
H4481 H 0.34263 0.15303 0.6281 0.0
H4482 H 0.36989 0.15736 0.6193 0.0
H4483 H 0.46583 0.14418 0.6406 0.0
H4484 H 0.44613 0.1649 0.64113 0.0
H4485 H 0.41503 0.13631 0.6132 0.0
H4486 H 0.4347 0.11526 0.61284 0.0
H4487 H 0.39862 0.15159 0.6347 0.0
H4488 H 0.43525 0.16627 0.59612 0.0
H4489 H 0.46084 0.17142 0.58365 0.0
H4490 H 0.47028 0.20767 0.61742 0.0
H4491 H 0.44482 0.20259 0.63024 0.0
C4492 C 0.36324 0.21959 0.62445 0.0
C4493 C 0.36665 0.23103 0.63588 0.0
C4494 C 0.37321 0.20674 0.62228 0.0
C4495 C 0.38682 0.20519 0.63139 0.0
C4496 C 0.39043 0.21672 0.64261 0.0
C4497 C 0.38035 0.22948 0.64494 0.0
C4498 C 0.39716 0.19134 0.62947 0.0
C4499 C 0.41239 0.19364 0.62374 0.0
C4500 C 0.39196 0.17596 0.63296 0.0
C4501 C 0.37577 0.1729 0.63857 0.0
C4502 C 0.37012 0.1801 0.65231 0.0
C4503 C 0.35464 0.17765 0.65716 0.0
C4504 C 0.34473 0.16792 0.64842 0.0
C4505 C 0.35032 0.16056 0.63485 0.0
C4506 C 0.36579 0.16299 0.62995 0.0
C4507 C 0.45473 0.14215 0.63474 0.0
C4508 C 0.45189 0.12804 0.62665 0.0
C4509 C 0.44351 0.15411 0.63493 0.0
C4510 C 0.42923 0.15234 0.62689 0.0
C4511 C 0.42601 0.13799 0.61939 0.0
C4512 C 0.43725 0.12595 0.61925 0.0
C4513 C 0.41791 0.16566 0.62627 0.0
C4514 C 0.40241 0.16329 0.63136 0.0
C4515 C 0.42272 0.18095 0.62174 0.0
C4516 C 0.43818 0.18392 0.61425 0.0
C4517 C 0.44285 0.17523 0.60099 0.0
C4518 C 0.45732 0.17816 0.59384 0.0
C4519 C 0.4672 0.18983 0.59977 0.0
C4520 C 0.46262 0.19861 0.61285 0.0
C4521 C 0.44816 0.19572 0.62006 0.0
H4522 H 0.47839 0.1921 0.5942 0.0
H4523 H 0.33274 0.16606 0.65217 0.0
H4524 H 0.49049 0.36363 0.60658 0.0
H4525 H 0.46822 0.34854 0.61643 0.0
H4526 H 0.44459 0.39148 0.62925 0.0
H4527 H 0.46735 0.40669 0.6201 0.0
H4528 H 0.4381 0.36653 0.6503 0.0
H4529 H 0.43655 0.37548 0.59378 0.0
H4530 H 0.45035 0.37552 0.56831 0.0
H4531 H 0.4591 0.32601 0.57272 0.0
H4532 H 0.44544 0.32572 0.59829 0.0
H4533 H 0.36272 0.33128 0.65203 0.0
H4534 H 0.38454 0.34899 0.64581 0.0
H4535 H 0.40853 0.31082 0.62253 0.0
H4536 H 0.38613 0.29358 0.62771 0.0
H4537 H 0.41461 0.33488 0.60733 0.0
H4538 H 0.41561 0.32469 0.66298 0.0
H4539 H 0.40481 0.32412 0.68985 0.0
H4540 H 0.39936 0.37427 0.689 0.0
H4541 H 0.40992 0.37512 0.66202 0.0
C4542 C 0.4806 0.36987 0.61156 0.0
C4543 C 0.48048 0.38635 0.61216 0.0
C4544 C 0.46791 0.36123 0.6173 0.0
C4545 C 0.45454 0.36887 0.62324 0.0
C4546 C 0.45472 0.38532 0.62465 0.0
C4547 C 0.46765 0.394 0.61925 0.0
C4548 C 0.43986 0.35978 0.62602 0.0
C4549 C 0.4328 0.35974 0.64092 0.0
C4550 C 0.4331 0.35071 0.61385 0.0
C4551 C 0.43993 0.35057 0.59786 0.0
C4552 C 0.44129 0.36458 0.58922 0.0
C4553 C 0.44914 0.36466 0.57481 0.0
C4554 C 0.45558 0.35077 0.56889 0.0
C4555 C 0.45405 0.33675 0.5773 0.0
C4556 C 0.4462 0.3366 0.59171 0.0
C4557 C 0.37248 0.32689 0.64515 0.0
C4558 C 0.37269 0.31121 0.64006 0.0
C4559 C 0.3851 0.33691 0.64186 0.0
C4560 C 0.39852 0.3312 0.63409 0.0
C4561 C 0.39841 0.3156 0.62856 0.0
C4562 C 0.38557 0.30575 0.63141 0.0
C4563 C 0.41273 0.34128 0.63179 0.0
C4564 C 0.41974 0.34162 0.61686 0.0
C4565 C 0.41948 0.35041 0.64406 0.0
C4566 C 0.4134 0.34994 0.6604 0.0
C4567 C 0.41203 0.33558 0.66849 0.0
C4568 C 0.40595 0.33521 0.68374 0.0
C4569 C 0.40136 0.34914 0.69111 0.0
C4570 C 0.4029 0.36348 0.68326 0.0
C4571 C 0.40894 0.36392 0.668 0.0
H4572 H 0.39663 0.34882 0.7029 0.0
H4573 H 0.46177 0.35088 0.55779 0.0
H4574 H 0.56817 0.39869 0.61363 0.0
H4575 H 0.5888 0.37851 0.61547 0.0
H4576 H 0.55581 0.34675 0.63708 0.0
H4577 H 0.5354 0.36662 0.63542 0.0
H4578 H 0.58356 0.34735 0.65258 0.0
H4579 H 0.56503 0.34392 0.59885 0.0
H4580 H 0.56015 0.35343 0.57193 0.0
H4581 H 0.60944 0.36179 0.56565 0.0
H4582 H 0.61459 0.35258 0.59266 0.0
H4583 H 0.61473 0.27171 0.64929 0.0
H4584 H 0.59799 0.29459 0.64461 0.0
H4585 H 0.63576 0.31737 0.61968 0.0
H4586 H 0.65226 0.29417 0.62365 0.0
H4587 H 0.60882 0.3238 0.60566 0.0
H4588 H 0.62756 0.3263 0.65885 0.0
H4589 H 0.63262 0.31498 0.68505 0.0
H4590 H 0.58318 0.30789 0.69181 0.0
H4591 H 0.57785 0.31902 0.66558 0.0
C4592 C 0.56541 0.38748 0.61896 0.0
C4593 C 0.55015 0.38431 0.62448 0.0
C4594 C 0.57716 0.37592 0.61986 0.0
C4595 C 0.5738 0.36109 0.62632 0.0
C4596 C 0.55868 0.3581 0.63208 0.0
C4597 C 0.54701 0.36952 0.63113 0.0
C4598 C 0.58582 0.3485 0.6274 0.0
C4599 C 0.58905 0.34221 0.6423 0.0
C4600 C 0.59331 0.34202 0.61403 0.0
C4601 C 0.59016 0.34782 0.59789 0.0
C4602 C 0.57481 0.348 0.59182 0.0
C4603 C 0.572 0.35328 0.57652 0.0
C4604 C 0.58447 0.35829 0.56712 0.0
C4605 C 0.59978 0.35797 0.57298 0.0
C4606 C 0.60265 0.35273 0.58828 0.0
C4607 C 0.61944 0.2816 0.64283 0.0
C4608 C 0.63485 0.28127 0.63706 0.0
C4609 C 0.60989 0.29468 0.64014 0.0
C4610 C 0.61574 0.30789 0.63211 0.0
C4611 C 0.631 0.30738 0.62596 0.0
C4612 C 0.64045 0.29416 0.62834 0.0
C4613 C 0.60617 0.32244 0.6308 0.0
C4614 C 0.6035 0.32913 0.61594 0.0
C4615 C 0.5992 0.32939 0.64418 0.0
C4616 C 0.60231 0.32346 0.66026 0.0
C4617 C 0.61777 0.32235 0.66595 0.0
C4618 C 0.62069 0.31594 0.68079 0.0
C4619 C 0.60823 0.31071 0.69009 0.0
C4620 C 0.59282 0.31197 0.68461 0.0
C4621 C 0.58984 0.31836 0.66977 0.0
H4622 H 0.61052 0.3057 0.70154 0.0
H4623 H 0.58227 0.36235 0.55527 0.0
H4624 H 0.91168 0.53695 0.88314 0.0
H4625 H 0.90652 0.56096 0.86802 0.0
H4626 H 0.8604 0.54375 0.85625 0.0
H4627 H 0.86535 0.5199 0.87149 0.0
H4628 H 0.87728 0.55427 0.83045 0.0
H4629 H 0.86151 0.57209 0.88037 0.0
H4630 H 0.86293 0.57716 0.90882 0.0
H4631 H 0.90278 0.6072 0.90175 0.0
H4632 H 0.90175 0.60212 0.87323 0.0
H4633 H 0.8499 0.62428 0.79468 0.0
H4634 H 0.8526 0.60186 0.81223 0.0
H4635 H 0.89797 0.6187 0.82706 0.0
H4636 H 0.89531 0.64145 0.80952 0.0
H4637 H 0.87999 0.60838 0.85195 0.0
H4638 H 0.89458 0.58851 0.80041 0.0
H4639 H 0.89075 0.58261 0.7723 0.0
H4640 H 0.84946 0.55586 0.78326 0.0
H4641 H 0.85295 0.56175 0.81142 0.0
C4642 C 0.90046 0.53829 0.87731 0.0
C4643 C 0.88896 0.52651 0.87841 0.0
C4644 C 0.89748 0.55205 0.8688 0.0
C4645 C 0.88305 0.55415 0.86111 0.0
C4646 C 0.87159 0.54237 0.86214 0.0
C4647 C 0.87446 0.52875 0.87083 0.0
C4648 C 0.88023 0.56824 0.85128 0.0
C4649 C 0.87768 0.5661 0.83517 0.0
C4650 C 0.88081 0.58364 0.85749 0.0
C4651 C 0.8817 0.58654 0.87466 0.0
C4652 C 0.87072 0.57961 0.88488 0.0
C4653 C 0.87141 0.58253 0.90103 0.0
C4654 C 0.88298 0.59244 0.9071 0.0
C4655 C 0.89385 0.59948 0.89703 0.0
C4656 C 0.89321 0.59659 0.88087 0.0
C4657 C 0.86049 0.6233 0.80166 0.0
C4658 C 0.87245 0.63467 0.80059 0.0
C4659 C 0.86202 0.6104 0.81167 0.0
C4660 C 0.87558 0.60847 0.8208 0.0
C4661 C 0.88743 0.61993 0.82006 0.0
C4662 C 0.88591 0.6329 0.80999 0.0
C4663 C 0.8774 0.59441 0.83101 0.0
C4664 C 0.87967 0.59655 0.84722 0.0
C4665 C 0.87622 0.57895 0.82496 0.0
C4666 C 0.87394 0.57572 0.80799 0.0
C4667 C 0.8846 0.58151 0.7968 0.0
C4668 C 0.88251 0.57813 0.78087 0.0
C4669 C 0.86985 0.56891 0.77599 0.0
C4670 C 0.85924 0.56303 0.78705 0.0
C4671 C 0.86128 0.56637 0.80299 0.0
H4672 H 0.86827 0.56628 0.76366 0.0
H4673 H 0.88349 0.59471 0.9196 0.0
H4674 H 0.86059 0.91665 0.45313 0.0
H4675 H 0.84025 0.90963 0.43445 0.0
H4676 H 0.86347 0.86555 0.42533 0.0
H4677 H 0.88423 0.87257 0.44422 0.0
H4678 H 0.85226 0.88136 0.39777 0.0
H4679 H 0.83207 0.86553 0.44863 0.0
H4680 H 0.82528 0.86963 0.47649 0.0
H4681 H 0.79455 0.90753 0.46367 0.0
H4682 H 0.8013 0.90378 0.43576 0.0
H4683 H 0.7843 0.84649 0.36126 0.0
H4684 H 0.80742 0.85206 0.37757 0.0
H4685 H 0.78697 0.89624 0.39157 0.0
H4686 H 0.76403 0.89089 0.37529 0.0
H4687 H 0.79722 0.87902 0.41668 0.0
H4688 H 0.81673 0.89763 0.36809 0.0
H4689 H 0.82334 0.89721 0.33992 0.0
H4690 H 0.8548 0.85854 0.34764 0.0
H4691 H 0.84822 0.85861 0.37588 0.0
C4692 C 0.8615 0.90544 0.44718 0.0
C4693 C 0.87403 0.8951 0.45029 0.0
C4694 C 0.84978 0.90144 0.4365 0.0
C4695 C 0.8502 0.88698 0.42867 0.0
C4696 C 0.8629 0.87675 0.43133 0.0
C4697 C 0.87472 0.88075 0.44213 0.0
C4698 C 0.83713 0.88264 0.41798 0.0
C4699 C 0.84026 0.88047 0.40193 0.0
C4700 C 0.82139 0.88221 0.42332 0.0
C4701 C 0.81727 0.88442 0.44011 0.0
C4702 C 0.82395 0.8748 0.45177 0.0
C4703 C 0.82008 0.87705 0.46757 0.0
C4704 C 0.8095 0.88884 0.47185 0.0
C4705 C 0.80274 0.8984 0.46034 0.0
C4706 C 0.80656 0.8962 0.44453 0.0
C4707 C 0.78479 0.85742 0.36775 0.0
C4708 C 0.77229 0.8682 0.36704 0.0
C4709 C 0.79802 0.86062 0.377 0.0
C4710 C 0.7989 0.87457 0.38578 0.0
C4711 C 0.78652 0.8854 0.38493 0.0
C4712 C 0.77341 0.88231 0.37558 0.0
C4713 C 0.81233 0.87759 0.39647 0.0
C4714 C 0.80924 0.87962 0.41252 0.0
C4715 C 0.82801 0.87828 0.39106 0.0
C4716 C 0.83181 0.87797 0.37406 0.0
C4717 C 0.82491 0.8889 0.36376 0.0
C4718 C 0.82869 0.88877 0.34778 0.0
C4719 C 0.83943 0.87781 0.34198 0.0
C4720 C 0.84645 0.86699 0.35215 0.0
C4721 C 0.84271 0.86708 0.36815 0.0
H4722 H 0.84236 0.87774 0.32961 0.0
H4723 H 0.80653 0.89057 0.48409 0.0
H4724 H 0.15736 0.87089 0.79861 0.0
H4725 H 0.15337 0.89118 0.81827 0.0
H4726 H 0.10331 0.88405 0.81571 0.0
H4727 H 0.10718 0.86377 0.79558 0.0
H4728 H 0.11185 0.91524 0.8136 0.0
H4729 H 0.12537 0.87079 0.84742 0.0
H4730 H 0.14274 0.84898 0.85535 0.0
H4731 H 0.1806 0.88146 0.86258 0.0
H4732 H 0.1635 0.90344 0.85454 0.0
H4733 H 0.08789 0.96143 0.87678 0.0
H4734 H 0.09314 0.93871 0.86004 0.0
H4735 H 0.14294 0.94525 0.86648 0.0
H4736 H 0.13778 0.96779 0.8835 0.0
H4737 H 0.13593 0.91459 0.8667 0.0
H4738 H 0.12669 0.95782 0.83344 0.0
H4739 H 0.11312 0.98152 0.82381 0.0
H4740 H 0.07228 0.95401 0.813 0.0
H4741 H 0.08556 0.93015 0.82279 0.0
C4742 C 0.14547 0.8735 0.80227 0.0
C4743 C 0.13256 0.86571 0.79548 0.0
C4744 C 0.14324 0.88508 0.81361 0.0
C4745 C 0.12807 0.88901 0.81858 0.0
C4746 C 0.11513 0.88112 0.81204 0.0
C4747 C 0.11735 0.8695 0.80062 0.0
C4748 C 0.12572 0.90189 0.83003 0.0
C4749 C 0.11683 0.91495 0.82533 0.0
C4750 C 0.13306 0.90192 0.84497 0.0
C4751 C 0.14317 0.88875 0.85031 0.0
C4752 C 0.13741 0.87327 0.85067 0.0
C4753 C 0.14721 0.86088 0.85518 0.0
C4754 C 0.16277 0.86382 0.85944 0.0
C4755 C 0.16854 0.87919 0.85928 0.0
C4756 C 0.15879 0.89162 0.85479 0.0
C4757 C 0.09995 0.95799 0.8747 0.0
C4758 C 0.11241 0.9665 0.88131 0.0
C4759 C 0.10294 0.94501 0.86513 0.0
C4760 C 0.11844 0.94043 0.86184 0.0
C4761 C 0.1309 0.94858 0.86886 0.0
C4762 C 0.12791 0.96151 0.87851 0.0
C4763 C 0.12154 0.92764 0.85046 0.0
C4764 C 0.13076 0.91477 0.85506 0.0
C4765 C 0.11502 0.928 0.83518 0.0
C4766 C 0.10706 0.94222 0.82897 0.0
C4767 C 0.11478 0.95684 0.82909 0.0
C4768 C 0.10715 0.9703 0.8236 0.0
C4769 C 0.09183 0.96928 0.81783 0.0
C4770 C 0.08415 0.95478 0.81749 0.0
C4771 C 0.09172 0.94127 0.82299 0.0
H4772 H 0.08593 0.97973 0.81361 0.0
H4773 H 0.17036 0.85421 0.86288 0.0
H4774 H 0.14105 0.5966 0.45711 0.0
H4775 H 0.16231 0.60141 0.43885 0.0
H4776 H 0.13926 0.64355 0.42267 0.0
H4777 H 0.11745 0.63866 0.44103 0.0
H4778 H 0.15141 0.6254 0.39836 0.0
H4779 H 0.17048 0.64615 0.44781 0.0
H4780 H 0.17693 0.64543 0.47606 0.0
H4781 H 0.2075 0.60606 0.46838 0.0
H4782 H 0.20112 0.60645 0.44012 0.0
H4783 H 0.21992 0.65899 0.36313 0.0
H4784 H 0.19647 0.65354 0.37882 0.0
H4785 H 0.21678 0.60975 0.39425 0.0
H4786 H 0.24017 0.61498 0.37847 0.0
H4787 H 0.20592 0.62893 0.41863 0.0
H4788 H 0.18786 0.60664 0.37104 0.0
H4789 H 0.18223 0.60507 0.34269 0.0
H4790 H 0.15056 0.64414 0.34654 0.0
H4791 H 0.15616 0.64606 0.37492 0.0
C4792 C 0.14039 0.60694 0.44972 0.0
C4793 C 0.12758 0.61735 0.45062 0.0
C4794 C 0.15264 0.60968 0.4393 0.0
C4795 C 0.15252 0.62299 0.42964 0.0
C4796 C 0.13959 0.63326 0.43016 0.0
C4797 C 0.12719 0.63048 0.44063 0.0
C4798 C 0.16597 0.62593 0.41905 0.0
C4799 C 0.1633 0.62652 0.40279 0.0
C4800 C 0.18155 0.62663 0.42484 0.0
C4801 C 0.18522 0.62626 0.44187 0.0
C4802 C 0.17847 0.63726 0.45217 0.0
C4803 C 0.18215 0.63693 0.46818 0.0
C4804 C 0.19259 0.62569 0.47401 0.0
C4805 C 0.19941 0.61475 0.46385 0.0
C4806 C 0.19578 0.61504 0.44784 0.0
C4807 C 0.21935 0.64816 0.3698 0.0
C4808 C 0.2319 0.63746 0.36966 0.0
C4809 C 0.20592 0.64503 0.37865 0.0
C4810 C 0.20493 0.63123 0.3876 0.0
C4811 C 0.21736 0.62045 0.38737 0.0
C4812 C 0.2307 0.62347 0.37836 0.0
C4813 C 0.19134 0.62859 0.39801 0.0
C4814 C 0.19401 0.62798 0.41422 0.0
C4815 C 0.17585 0.62756 0.39216 0.0
C4816 C 0.17258 0.62662 0.37507 0.0
C4817 C 0.17984 0.61501 0.36582 0.0
C4818 C 0.17661 0.61402 0.34975 0.0
C4819 C 0.16609 0.62453 0.34281 0.0
C4820 C 0.15874 0.63602 0.35193 0.0
C4821 C 0.16192 0.63706 0.36802 0.0
H4822 H 0.16359 0.62374 0.33037 0.0
H4823 H 0.19543 0.62547 0.48641 0.0
H4824 H 0.88823 0.35751 0.67854 0.0
H4825 H 0.89173 0.38064 0.6617 0.0
H4826 H 0.85662 0.40554 0.68835 0.0
H4827 H 0.85301 0.38258 0.70511 0.0
H4828 H 0.85234 0.41064 0.65771 0.0
H4829 H 0.89543 0.4135 0.69347 0.0
H4830 H 0.91909 0.40486 0.70774 0.0
H4831 H 0.94342 0.39852 0.66403 0.0
H4832 H 0.91981 0.40694 0.64948 0.0
H4833 H 0.87001 0.48818 0.63083 0.0
H4834 H 0.86477 0.46424 0.64568 0.0
H4835 H 0.90262 0.44086 0.62142 0.0
H4836 H 0.90834 0.46508 0.607 0.0
H4837 H 0.90484 0.43469 0.65057 0.0
H4838 H 0.86062 0.43362 0.6149 0.0
H4839 H 0.83679 0.44387 0.60199 0.0
H4840 H 0.8142 0.44849 0.64682 0.0
H4841 H 0.83794 0.43842 0.66001 0.0
C4842 C 0.88127 0.36791 0.68083 0.0
C4843 C 0.8704 0.36814 0.69328 0.0
C4844 C 0.88331 0.38116 0.67121 0.0
C4845 C 0.87452 0.39494 0.67379 0.0
C4846 C 0.86354 0.3951 0.68607 0.0
C4847 C 0.86156 0.38193 0.69573 0.0
C4848 C 0.87682 0.40922 0.66382 0.0
C4849 C 0.8638 0.41598 0.65622 0.0
C4850 C 0.89176 0.41616 0.66171 0.0
C4851 C 0.90579 0.41063 0.67039 0.0
C4852 C 0.90576 0.41007 0.6869 0.0
C4853 C 0.91918 0.40527 0.69504 0.0
C4854 C 0.93273 0.40109 0.6868 0.0
C4855 C 0.9329 0.40172 0.6704 0.0
C4856 C 0.91951 0.4065 0.6622 0.0
C4857 C 0.8772 0.47793 0.62861 0.0
C4858 C 0.88967 0.47859 0.61778 0.0
C4859 C 0.87407 0.46414 0.63702 0.0
C4860 C 0.88309 0.45053 0.63456 0.0
C4861 C 0.89544 0.45114 0.62358 0.0
C4862 C 0.89874 0.46502 0.61534 0.0
C4863 C 0.88043 0.43601 0.64412 0.0
C4864 C 0.89338 0.42927 0.6518 0.0
C4865 C 0.86538 0.42922 0.64639 0.0
C4866 C 0.85113 0.43538 0.63845 0.0
C4867 C 0.85061 0.43693 0.62201 0.0
C4868 C 0.83711 0.44268 0.61464 0.0
C4869 C 0.824 0.44686 0.62358 0.0
C4870 C 0.82436 0.44526 0.63991 0.0
C4871 C 0.83783 0.43951 0.64733 0.0
H4872 H 0.81356 0.4513 0.61786 0.0
H4873 H 0.94312 0.39741 0.69312 0.0
H4874 H 0.64583 0.89322 0.53681 0.0
H4875 H 0.66432 0.88686 0.55769 0.0
H4876 H 0.62609 0.88261 0.59059 0.0
H4877 H 0.60728 0.88898 0.5695 0.0
H4878 H 0.65308 0.90218 0.60057 0.0
H4879 H 0.6425 0.84991 0.58003 0.0
H4880 H 0.6399 0.83059 0.55859 0.0
H4881 H 0.68754 0.83928 0.54462 0.0
H4882 H 0.69037 0.85874 0.56589 0.0
H4883 H 0.70621 0.87549 0.65971 0.0
H4884 H 0.68389 0.88 0.64216 0.0
H4885 H 0.71294 0.86782 0.60237 0.0
H4886 H 0.73473 0.862 0.6201 0.0
H4887 H 0.68782 0.85553 0.59742 0.0
H4888 H 0.69968 0.90815 0.61386 0.0
H4889 H 0.70402 0.93031 0.63202 0.0
H4890 H 0.65732 0.92494 0.65019 0.0
H4891 H 0.65275 0.90265 0.63224 0.0
C4892 C 0.64129 0.89079 0.54845 0.0
C4893 C 0.62509 0.89154 0.55151 0.0
C4894 C 0.65189 0.88715 0.56036 0.0
C4895 C 0.64658 0.88423 0.57566 0.0
C4896 C 0.6304 0.88482 0.57883 0.0
C4897 C 0.61968 0.88831 0.56678 0.0
C4898 C 0.65818 0.88078 0.58818 0.0
C4899 C 0.66052 0.89184 0.60016 0.0
C4900 C 0.66827 0.86765 0.58716 0.0
C4901 C 0.66662 0.8558 0.57451 0.0
C4902 C 0.65239 0.84774 0.57234 0.0
C4903 C 0.65089 0.83675 0.56023 0.0
C4904 C 0.66354 0.83371 0.55024 0.0
C4905 C 0.67775 0.84162 0.55237 0.0
C4906 C 0.67932 0.8526 0.56448 0.0
C4907 C 0.70771 0.87368 0.6472 0.0
C4908 C 0.72206 0.86823 0.64122 0.0
C4909 C 0.69501 0.87647 0.63713 0.0
C4910 C 0.69666 0.87452 0.6208 0.0
C4911 C 0.7112 0.86931 0.61488 0.0
C4912 C 0.72368 0.86596 0.625 0.0
C4913 C 0.68318 0.87715 0.60986 0.0
C4914 C 0.68042 0.86588 0.59811 0.0
C4915 C 0.6731 0.89042 0.61079 0.0
C4916 C 0.67595 0.90359 0.62185 0.0
C4917 C 0.69039 0.91159 0.62184 0.0
C4918 C 0.69288 0.9242 0.63207 0.0
C4919 C 0.68097 0.92899 0.64229 0.0
C4920 C 0.66655 0.92119 0.64229 0.0
C4921 C 0.664 0.90858 0.63209 0.0
H4922 H 0.68291 0.93877 0.65018 0.0
H4923 H 0.66234 0.82522 0.54087 0.0
H4924 H 0.12633 0.04979 0.5989 0.0
H4925 H 0.13264 0.07157 0.61653 0.0
H4926 H 0.10293 0.05115 0.65217 0.0
H4927 H 0.09604 0.02979 0.63432 0.0
H4928 H 0.09662 0.08019 0.64982 0.0
H4929 H 0.14581 0.05133 0.65211 0.0
H4930 H 0.17013 0.03954 0.64171 0.0
H4931 H 0.1847 0.08453 0.62416 0.0
H4932 H 0.16037 0.09655 0.63427 0.0
H4933 H 0.11861 0.1166 0.71986 0.0
H4934 H 0.11464 0.09872 0.69792 0.0
H4935 H 0.14107 0.12956 0.66766 0.0
H4936 H 0.14538 0.14754 0.68978 0.0
H4937 H 0.14994 0.09856 0.66419 0.0
H4938 H 0.10181 0.12746 0.66326 0.0
H4939 H 0.07797 0.1395 0.67443 0.0
H4940 H 0.06191 0.09415 0.68962 0.0
H4941 H 0.08575 0.08186 0.67871 0.0
C4942 C 0.12113 0.04998 0.6105 0.0
C4943 C 0.11054 0.03818 0.61519 0.0
C4944 C 0.12489 0.06237 0.62064 0.0
C4945 C 0.11842 0.06298 0.63579 0.0
C4946 C 0.10805 0.05101 0.64053 0.0
C4947 C 0.10405 0.03883 0.6303 0.0
C4948 C 0.12142 0.07652 0.64644 0.0
C4949 C 0.10832 0.08402 0.65307 0.0
C4950 C 0.13667 0.08214 0.65013 0.0
C4951 C 0.15115 0.0748 0.64377 0.0
C4952 C 0.15411 0.05868 0.64588 0.0
C4953 C 0.16792 0.05196 0.64007 0.0
C4954 C 0.17893 0.06127 0.63223 0.0
C4955 C 0.17615 0.07732 0.6302 0.0
C4956 C 0.16235 0.08409 0.63597 0.0
C4957 C 0.12341 0.11976 0.70851 0.0
C4958 C 0.13223 0.13357 0.70658 0.0
C4959 C 0.12113 0.10949 0.69595 0.0
C4960 C 0.12747 0.11284 0.68111 0.0
C4961 C 0.13608 0.12675 0.67901 0.0
C4962 C 0.13838 0.13708 0.69163 0.0
C4963 C 0.12514 0.10157 0.668 0.0
C4964 C 0.13829 0.09469 0.66081 0.0
C4965 C 0.10997 0.09641 0.66373 0.0
C4966 C 0.09559 0.10376 0.67024 0.0
C4967 C 0.09323 0.12007 0.66906 0.0
C4968 C 0.07972 0.12694 0.67533 0.0
C4969 C 0.06844 0.1176 0.68274 0.0
C4970 C 0.07065 0.10137 0.68387 0.0
C4971 C 0.08415 0.09445 0.67763 0.0
H4972 H 0.05798 0.12294 0.68759 0.0
H4973 H 0.18962 0.05606 0.62777 0.0
H4974 H 0.39109 0.64166 0.56051 0.0
H4975 H 0.36995 0.6459 0.57973 0.0
H4976 H 0.35248 0.59915 0.5707 0.0
H4977 H 0.37302 0.59512 0.55136 0.0
H4978 H 0.32959 0.61828 0.56902 0.0
H4979 H 0.37101 0.60951 0.60536 0.0
H4980 H 0.39666 0.61308 0.61826 0.0
H4981 H 0.38415 0.66037 0.63062 0.0
H4982 H 0.35851 0.65717 0.61754 0.0
H4983 H 0.2748 0.61196 0.63141 0.0
H4984 H 0.29857 0.6082 0.61579 0.0
H4985 H 0.30807 0.65792 0.61803 0.0
H4986 H 0.28422 0.66183 0.63365 0.0
H4987 H 0.33487 0.63795 0.62359 0.0
H4988 H 0.29186 0.64412 0.58647 0.0
H4989 H 0.26598 0.6372 0.57549 0.0
H4990 H 0.28203 0.59021 0.56656 0.0
H4991 H 0.30792 0.59677 0.57775 0.0
C4992 C 0.3828 0.63229 0.5628 0.0
C4993 C 0.38354 0.61817 0.5543 0.0
C4994 C 0.37077 0.63467 0.5738 0.0
C4995 C 0.35957 0.62285 0.57661 0.0
C4996 C 0.36083 0.60852 0.56861 0.0
C4997 C 0.37261 0.60624 0.55754 0.0
C4998 C 0.34586 0.62555 0.58704 0.0
C4999 C 0.33083 0.62242 0.58101 0.0
C5000 C 0.34738 0.6311 0.60264 0.0
C5001 C 0.36291 0.63318 0.61026 0.0
C5002 C 0.37379 0.62074 0.61065 0.0
C5003 C 0.38832 0.62268 0.61803 0.0
C5004 C 0.39206 0.63696 0.6252 0.0
C5005 C 0.38126 0.64933 0.62501 0.0
C5006 C 0.36673 0.64746 0.61761 0.0
C5007 C 0.28196 0.6221 0.62862 0.0
C5008 C 0.2776 0.63722 0.63364 0.0
C5009 C 0.29552 0.61992 0.61971 0.0
C5010 C 0.30498 0.6328 0.61572 0.0
C5011 C 0.30088 0.64785 0.62101 0.0
C5012 C 0.28722 0.65007 0.62982 0.0
C5013 C 0.31882 0.63062 0.6055 0.0
C5014 C 0.33379 0.63387 0.61157 0.0
C5015 C 0.31731 0.62475 0.59006 0.0
C5016 C 0.3018 0.62091 0.58308 0.0
C5017 C 0.28984 0.63228 0.58227 0.0
C5018 C 0.27517 0.62842 0.576 0.0
C5019 C 0.27235 0.61327 0.57036 0.0
C5020 C 0.28422 0.60194 0.57095 0.0
C5021 C 0.2989 0.60573 0.57725 0.0
H5022 H 0.26099 0.61031 0.56552 0.0
H5023 H 0.4033 0.63843 0.63094 0.0
H5024 H 0.89462 0.89678 0.53662 0.0
H5025 H 0.88063 0.89151 0.56128 0.0
H5026 H 0.83974 0.87729 0.53502 0.0
H5027 H 0.85379 0.88213 0.51038 0.0
H5028 H 0.83355 0.8994 0.5584 0.0
H5029 H 0.85918 0.85046 0.55199 0.0
H5030 H 0.88072 0.83152 0.54825 0.0
H5031 H 0.90152 0.84615 0.59178 0.0
H5032 H 0.88026 0.86545 0.59564 0.0
H5033 H 0.78693 0.8681 0.61946 0.0
H5034 H 0.80241 0.87158 0.59568 0.0
H5035 H 0.84331 0.88198 0.62365 0.0
H5036 H 0.82787 0.87826 0.6477 0.0
H5037 H 0.85001 0.86156 0.59957 0.0
H5038 H 0.82308 0.91122 0.60491 0.0
H5039 H 0.80014 0.92866 0.60791 0.0
H5040 H 0.78046 0.91055 0.56516 0.0
H5041 H 0.80317 0.89285 0.56202 0.0
C5042 C 0.88263 0.89258 0.53614 0.0
C5043 C 0.87521 0.89 0.52161 0.0
C5044 C 0.87472 0.88943 0.55021 0.0
C5045 C 0.85919 0.88392 0.54996 0.0
C5046 C 0.85175 0.88146 0.53545 0.0
C5047 C 0.85975 0.88428 0.52141 0.0
C5048 C 0.85034 0.88164 0.56479 0.0
C5049 C 0.83706 0.89101 0.56733 0.0
C5050 C 0.8551 0.87083 0.57651 0.0
C5051 C 0.86823 0.85963 0.57397 0.0
C5052 C 0.86848 0.84986 0.56064 0.0
C5053 C 0.88061 0.839 0.55853 0.0
C5054 C 0.89252 0.83768 0.56973 0.0
C5055 C 0.89232 0.84723 0.58308 0.0
C5056 C 0.88023 0.85814 0.58522 0.0
C5057 C 0.79919 0.87123 0.62063 0.0
C5058 C 0.80612 0.873 0.63554 0.0
C5059 C 0.80803 0.87325 0.60697 0.0
C5060 C 0.82399 0.87721 0.60785 0.0
C5061 C 0.83099 0.87897 0.62269 0.0
C5062 C 0.82213 0.87696 0.63642 0.0
C5063 C 0.83328 0.87944 0.59322 0.0
C5064 C 0.84661 0.87004 0.59068 0.0
C5065 C 0.82848 0.89007 0.58135 0.0
C5066 C 0.81475 0.90062 0.58332 0.0
C5067 C 0.81379 0.91086 0.59623 0.0
C5068 C 0.80084 0.92081 0.59794 0.0
C5069 C 0.78884 0.92069 0.58675 0.0
C5070 C 0.78976 0.91062 0.57383 0.0
C5071 C 0.80266 0.90064 0.57207 0.0
H5072 H 0.77883 0.92842 0.58809 0.0
H5073 H 0.90187 0.82922 0.56811 0.0
H5074 H 0.8915 0.11232 0.95939 0.0
H5075 H 0.87767 0.11947 0.93514 0.0
H5076 H 0.83336 0.11553 0.95928 0.0
H5077 H 0.84712 0.10878 0.98366 0.0
H5078 H 0.83596 0.09806 0.93081 0.0
H5079 H 0.84566 0.14978 0.95114 0.0
H5080 H 0.86098 0.17247 0.96049 0.0
H5081 H 0.88492 0.17491 0.9162 0.0
H5082 H 0.87 0.15199 0.90668 0.0
H5083 H 0.78157 0.1291 0.87628 0.0
H5084 H 0.79781 0.12138 0.89854 0.0
H5085 H 0.83914 0.13759 0.87412 0.0
H5086 H 0.82277 0.14603 0.85206 0.0
H5087 H 0.83968 0.1486 0.90208 0.0
H5088 H 0.83062 0.09708 0.88154 0.0
H5089 H 0.81537 0.07448 0.87177 0.0
H5090 H 0.79105 0.0715 0.91583 0.0
H5091 H 0.80597 0.09422 0.92579 0.0
C5092 C 0.8788 0.11294 0.95949 0.0
C5093 C 0.87034 0.10982 0.97334 0.0
C5094 C 0.87096 0.11718 0.9457 0.0
C5095 C 0.85453 0.1181 0.94548 0.0
C5096 C 0.84606 0.11495 0.95927 0.0
C5097 C 0.85391 0.11104 0.97314 0.0
C5098 C 0.84604 0.12122 0.93065 0.0
C5099 C 0.83663 0.10917 0.92457 0.0
C5100 C 0.84743 0.13553 0.92231 0.0
C5101 C 0.85688 0.14894 0.92829 0.0
C5102 C 0.85439 0.15494 0.94348 0.0
C5103 C 0.86296 0.16791 0.94879 0.0
C5104 C 0.87397 0.17508 0.93897 0.0
C5105 C 0.87644 0.1693 0.92382 0.0
C5106 C 0.86794 0.1563 0.91847 0.0
C5107 C 0.79416 0.13065 0.87547 0.0
C5108 C 0.8009 0.13813 0.86239 0.0
C5109 C 0.80347 0.12622 0.88824 0.0
C5110 C 0.81977 0.12877 0.88802 0.0
C5111 C 0.8266 0.13554 0.87462 0.0
C5112 C 0.81726 0.14024 0.86196 0.0
C5113 C 0.82946 0.12542 0.90218 0.0
C5114 C 0.83911 0.13741 0.90817 0.0
C5115 C 0.82845 0.11099 0.9104 0.0
C5116 C 0.81933 0.09744 0.90436 0.0
C5117 C 0.82192 0.09169 0.88909 0.0
C5118 C 0.81335 0.07885 0.88353 0.0
C5119 C 0.80223 0.07158 0.89316 0.0
C5120 C 0.79966 0.07714 0.90838 0.0
C5121 C 0.80817 0.09 0.91399 0.0
H5122 H 0.79562 0.06162 0.88884 0.0
H5123 H 0.88053 0.18516 0.94308 0.0
H5124 H 0.34202 0.8693 0.29783 0.0
H5125 H 0.34777 0.88656 0.32006 0.0
H5126 H 0.38947 0.90316 0.29658 0.0
H5127 H 0.3841 0.88549 0.27461 0.0
H5128 H 0.39545 0.90026 0.32669 0.0
H5129 H 0.35602 0.92536 0.29665 0.0
H5130 H 0.33126 0.92667 0.28171 0.0
H5131 H 0.30519 0.91635 0.32362 0.0
H5132 H 0.32984 0.91477 0.33878 0.0
H5133 H 0.40117 0.96789 0.37639 0.0
H5134 H 0.3985 0.95053 0.3538 0.0
H5135 H 0.35793 0.92895 0.37507 0.0
H5136 H 0.3603 0.9466 0.39767 0.0
H5137 H 0.35281 0.93567 0.34471 0.0
H5138 H 0.39572 0.91153 0.37433 0.0
H5139 H 0.42183 0.91179 0.38686 0.0
H5140 H 0.44316 0.9235 0.3427 0.0
H5141 H 0.41716 0.92354 0.32995 0.0
C5142 C 0.35238 0.87665 0.2974 0.0
C5143 C 0.36248 0.87618 0.28439 0.0
C5144 C 0.35569 0.88651 0.31011 0.0
C5145 C 0.36893 0.89638 0.30989 0.0
C5146 C 0.37919 0.89569 0.29704 0.0
C5147 C 0.37603 0.88565 0.28443 0.0
C5148 C 0.37163 0.90785 0.3228 0.0
C5149 C 0.38619 0.90811 0.33054 0.0
C5150 C 0.35966 0.91827 0.32771 0.0
C5151 C 0.34476 0.91986 0.31883 0.0
C5152 C 0.345 0.92335 0.30267 0.0
C5153 C 0.331 0.92412 0.29416 0.0
C5154 C 0.31667 0.92156 0.3017 0.0
C5155 C 0.31631 0.91832 0.31779 0.0
C5156 C 0.33029 0.91752 0.32636 0.0
C5157 C 0.39168 0.95942 0.37634 0.0
C5158 C 0.38095 0.95861 0.38891 0.0
C5159 C 0.39024 0.94943 0.36341 0.0
C5160 C 0.37816 0.93825 0.36283 0.0
C5161 C 0.36739 0.93745 0.3753 0.0
C5162 C 0.36877 0.94752 0.38823 0.0
C5163 C 0.37643 0.92768 0.34904 0.0
C5164 C 0.36207 0.92776 0.34095 0.0
C5165 C 0.3888 0.91797 0.34355 0.0
C5166 C 0.40446 0.91766 0.35121 0.0
C5167 C 0.40596 0.91425 0.36731 0.0
C5168 C 0.42075 0.91434 0.37445 0.0
C5169 C 0.43414 0.91769 0.36559 0.0
C5170 C 0.43278 0.92092 0.34956 0.0
C5171 C 0.41802 0.92087 0.34236 0.0
H5172 H 0.44557 0.91777 0.37115 0.0
H5173 H 0.30583 0.92211 0.29508 0.0
H5174 H 0.20161 0.39282 0.86316 0.0
H5175 H 0.18192 0.39582 0.88389 0.0
H5176 H 0.19141 0.34868 0.89999 0.0
H5177 H 0.21077 0.34546 0.87925 0.0
H5178 H 0.16105 0.35389 0.90102 0.0
H5179 H 0.20654 0.37913 0.91951 0.0
H5180 H 0.22954 0.39667 0.91989 0.0
H5181 H 0.19934 0.43688 0.91589 0.0
H5182 H 0.17615 0.41956 0.91522 0.0
H5183 H 0.12403 0.37193 0.97636 0.0
H5184 H 0.14101 0.36278 0.95503 0.0
H5185 H 0.13466 0.40706 0.93113 0.0
H5186 H 0.1181 0.41641 0.95255 0.0
H5187 H 0.16495 0.40019 0.93611 0.0
H5188 H 0.11852 0.37074 0.91846 0.0
H5189 H 0.0979 0.35056 0.92096 0.0
H5190 H 0.13302 0.31499 0.92769 0.0
H5191 H 0.15384 0.33498 0.92546 0.0
C5192 C 0.19944 0.38308 0.87106 0.0
C5193 C 0.20785 0.36898 0.86962 0.0
C5194 C 0.18823 0.38481 0.88292 0.0
C5195 C 0.18537 0.37252 0.89358 0.0
C5196 C 0.19344 0.3583 0.8919 0.0
C5197 C 0.20458 0.35655 0.88006 0.0
C5198 C 0.17428 0.37469 0.90677 0.0
C5199 C 0.16193 0.36395 0.90879 0.0
C5200 C 0.17569 0.38756 0.91713 0.0
C5201 C 0.18962 0.39803 0.91712 0.0
C5202 C 0.20481 0.3917 0.91852 0.0
C5203 C 0.21788 0.40161 0.91883 0.0
C5204 C 0.21591 0.41788 0.91787 0.0
C5205 C 0.20085 0.42427 0.9166 0.0
C5206 C 0.18774 0.41442 0.91625 0.0
C5207 C 0.12612 0.37963 0.96645 0.0
C5208 C 0.11997 0.395 0.9662 0.0
C5209 C 0.13571 0.37433 0.95423 0.0
C5210 C 0.13905 0.38423 0.94149 0.0
C5211 C 0.13225 0.39925 0.9409 0.0
C5212 C 0.12287 0.40463 0.95317 0.0
C5213 C 0.15109 0.38001 0.92974 0.0
C5214 C 0.16393 0.39021 0.92824 0.0
C5215 C 0.15036 0.36632 0.92032 0.0
C5216 C 0.13774 0.35442 0.92198 0.0
C5217 C 0.12184 0.35866 0.92066 0.0
C5218 C 0.11012 0.34723 0.92199 0.0
C5219 C 0.11414 0.33151 0.92453 0.0
C5220 C 0.12991 0.32718 0.92575 0.0
C5221 C 0.14167 0.33855 0.92445 0.0
H5222 H 0.10505 0.32269 0.92552 0.0
H5223 H 0.22604 0.42553 0.91816 0.0
H5224 H 0.10787 0.03069 0.8621 0.0
H5225 H 0.11203 0.0475 0.83925 0.0
H5226 H 0.12777 0.0849 0.8696 0.0
H5227 H 0.12296 0.06833 0.89259 0.0
H5228 H 0.10755 0.09573 0.84867 0.0
H5229 H 0.15311 0.05936 0.84481 0.0
H5230 H 0.16458 0.03293 0.84142 0.0
H5231 H 0.13828 0.02669 0.79883 0.0
H5232 H 0.12658 0.05301 0.80205 0.0
H5233 H 0.14565 0.15013 0.80081 0.0
H5234 H 0.13673 0.13061 0.81973 0.0
H5235 H 0.13163 0.0967 0.78232 0.0
H5236 H 0.14173 0.11604 0.76353 0.0
H5237 H 0.14231 0.08194 0.8041 0.0
H5238 H 0.09862 0.11538 0.80352 0.0
H5239 H 0.08225 0.13927 0.8044 0.0
H5240 H 0.09791 0.14859 0.85142 0.0
H5241 H 0.11451 0.12486 0.85077 0.0
C5242 C 0.11243 0.04242 0.86392 0.0
C5243 C 0.11517 0.04814 0.87921 0.0
C5244 C 0.11484 0.05204 0.85079 0.0
C5245 C 0.12043 0.06745 0.8526 0.0
C5246 C 0.12345 0.07306 0.86785 0.0
C5247 C 0.12078 0.06355 0.88101 0.0
C5248 C 0.12266 0.07806 0.83881 0.0
C5249 C 0.11534 0.09284 0.83901 0.0
C5250 C 0.13179 0.07385 0.82556 0.0
C5251 C 0.1389 0.05808 0.82375 0.0
C5252 C 0.14973 0.05231 0.83478 0.0
C5253 C 0.15627 0.03735 0.83287 0.0
C5254 C 0.15214 0.02812 0.81994 0.0
C5255 C 0.14147 0.03384 0.80885 0.0
C5256 C 0.1349 0.04877 0.8107 0.0
C5257 C 0.14273 0.13846 0.79666 0.0
C5258 C 0.14458 0.13454 0.78075 0.0
C5259 C 0.13735 0.12733 0.80746 0.0
C5260 C 0.13308 0.11214 0.80254 0.0
C5261 C 0.13483 0.10826 0.78654 0.0
C5262 C 0.14067 0.1193 0.77579 0.0
C5263 C 0.12788 0.10012 0.81429 0.0
C5264 C 0.13447 0.08498 0.81366 0.0
C5265 C 0.11744 0.10374 0.82677 0.0
C5266 C 0.10794 0.11839 0.82703 0.0
C5267 C 0.09872 0.12262 0.81398 0.0
C5268 C 0.08936 0.13611 0.81446 0.0
C5269 C 0.08907 0.14546 0.82794 0.0
C5270 C 0.09816 0.14134 0.84097 0.0
C5271 C 0.10753 0.12786 0.84056 0.0
H5272 H 0.08179 0.15588 0.8283 0.0
H5273 H 0.15722 0.01656 0.81849 0.0
H5274 H 0.59545 0.10879 0.05647 0.0
H5275 H 0.61409 0.11458 0.07753 0.0
H5276 H 0.65061 0.12158 0.04301 0.0
H5277 H 0.6322 0.11441 0.02214 0.0
H5278 H 0.6632 0.10807 0.06459 0.0
H5279 H 0.62999 0.15282 0.06534 0.0
H5280 H 0.60567 0.16849 0.06664 0.0
H5281 H 0.59589 0.14993 0.1125 0.0
H5282 H 0.62003 0.13397 0.1114 0.0
H5283 H 0.71476 0.14522 0.11919 0.0
H5284 H 0.69644 0.14016 0.09779 0.0
H5285 H 0.66298 0.12127 0.13075 0.0
H5286 H 0.68124 0.12651 0.1524 0.0
H5287 H 0.64948 0.14211 0.10978 0.0
H5288 H 0.68496 0.09693 0.10625 0.0
H5289 H 0.71096 0.08447 0.10332 0.0
H5290 H 0.71819 0.10922 0.05996 0.0
H5291 H 0.69229 0.12191 0.0627 0.0
C5292 C 0.60753 0.11139 0.05347 0.0
C5293 C 0.6125 0.11097 0.03777 0.0
C5294 C 0.61815 0.11496 0.06549 0.0
C5295 C 0.6338 0.11893 0.06198 0.0
C5296 C 0.63869 0.11853 0.04617 0.0
C5297 C 0.62819 0.11439 0.03421 0.0
C5298 C 0.64524 0.12276 0.07476 0.0
C5299 C 0.66017 0.11576 0.07428 0.0
C5300 C 0.64147 0.1327 0.08763 0.0
C5301 C 0.62676 0.14205 0.08821 0.0
C5302 C 0.62258 0.15195 0.07564 0.0
C5303 C 0.60884 0.16091 0.07636 0.0
C5304 C 0.59922 0.16017 0.08963 0.0
C5305 C 0.60333 0.15047 0.10222 0.0
C5306 C 0.61705 0.14147 0.10156 0.0
C5307 C 0.70355 0.13988 0.12195 0.0
C5308 C 0.69951 0.13623 0.13758 0.0
C5309 C 0.69309 0.13696 0.10964 0.0
C5310 C 0.67837 0.13021 0.11261 0.0
C5311 C 0.67429 0.12647 0.12817 0.0
C5312 C 0.68478 0.12938 0.14053 0.0
C5313 C 0.66715 0.12728 0.09952 0.0
C5314 C 0.65233 0.13449 0.09997 0.0
C5315 C 0.6712 0.11804 0.08631 0.0
C5316 C 0.68676 0.11044 0.08475 0.0
C5317 C 0.69215 0.09978 0.09615 0.0
C5318 C 0.70685 0.09266 0.09451 0.0
C5319 C 0.71623 0.09607 0.08148 0.0
C5320 C 0.71092 0.10659 0.07005 0.0
C5321 C 0.69623 0.11373 0.07163 0.0
H5322 H 0.7276 0.09055 0.08023 0.0
H5323 H 0.5886 0.16714 0.09017 0.0
H5324 H 0.40449 0.0474 0.12736 0.0
H5325 H 0.40254 0.06703 0.14839 0.0
H5326 H 0.35348 0.05611 0.15409 0.0
H5327 H 0.3555 0.03596 0.13351 0.0
H5328 H 0.36543 0.09139 0.15021 0.0
H5329 H 0.37151 0.04189 0.17908 0.0
H5330 H 0.38535 0.01749 0.18633 0.0
H5331 H 0.4259 0.04422 0.1998 0.0
H5332 H 0.41241 0.06877 0.19231 0.0
H5333 H 0.33959 0.12796 0.21964 0.0
H5334 H 0.34497 0.10963 0.19817 0.0
H5335 H 0.39432 0.11067 0.20943 0.0
H5336 H 0.38904 0.12888 0.23096 0.0
H5337 H 0.3851 0.08122 0.20414 0.0
H5338 H 0.38202 0.12945 0.17739 0.0
H5339 H 0.37157 0.15533 0.16964 0.0
H5340 H 0.33016 0.13333 0.15114 0.0
H5341 H 0.34028 0.10731 0.15898 0.0
C5342 C 0.39324 0.04934 0.13297 0.0
C5343 C 0.38007 0.04032 0.12872 0.0
C5344 C 0.3922 0.06043 0.14504 0.0
C5345 C 0.3779 0.06291 0.15279 0.0
C5346 C 0.36463 0.05427 0.14825 0.0
C5347 C 0.36577 0.04285 0.13649 0.0
C5348 C 0.37669 0.07469 0.16548 0.0
C5349 C 0.36953 0.08912 0.16206 0.0
C5350 C 0.38284 0.07197 0.18068 0.0
C5351 C 0.39104 0.05716 0.18485 0.0
C5352 C 0.38347 0.04256 0.18332 0.0
C5353 C 0.39123 0.0287 0.18755 0.0
C5354 C 0.40652 0.0293 0.19346 0.0
C5355 C 0.41408 0.04376 0.19517 0.0
C5356 C 0.40638 0.05765 0.19092 0.0
C5357 C 0.35158 0.1243 0.21754 0.0
C5358 C 0.36387 0.1299 0.22701 0.0
C5359 C 0.35466 0.11388 0.20523 0.0
C5360 C 0.37007 0.10887 0.20211 0.0
C5361 C 0.38234 0.11436 0.21162 0.0
C5362 C 0.37929 0.12482 0.22389 0.0
C5363 C 0.37328 0.09777 0.18904 0.0
C5364 C 0.38096 0.08354 0.19231 0.0
C5365 C 0.36808 0.10084 0.17355 0.0
C5366 C 0.36183 0.11645 0.16892 0.0
C5367 C 0.37061 0.13014 0.17181 0.0
C5368 C 0.36477 0.14483 0.16736 0.0
C5369 C 0.35019 0.14598 0.15994 0.0
C5370 C 0.34144 0.13242 0.15691 0.0
C5371 C 0.34723 0.1177 0.16134 0.0
H5372 H 0.34569 0.15736 0.1565 0.0
H5373 H 0.41248 0.01856 0.19676 0.0
H5374 H 0.64482 0.355 0.2178 0.0
H5375 H 0.63949 0.36965 0.19369 0.0
H5376 H 0.62083 0.40809 0.22098 0.0
H5377 H 0.62534 0.39309 0.24508 0.0
H5378 H 0.60432 0.40534 0.19543 0.0
H5379 H 0.65938 0.40807 0.20634 0.0
H5380 H 0.68524 0.39673 0.21279 0.0
H5381 H 0.68495 0.37081 0.16952 0.0
H5382 H 0.65898 0.38184 0.16292 0.0
H5383 H 0.61574 0.46479 0.1374 0.0
H5384 H 0.61663 0.44847 0.1609 0.0
H5385 H 0.63148 0.40887 0.133 0.0
H5386 H 0.63075 0.42521 0.10932 0.0
H5387 H 0.6491 0.41206 0.1588 0.0
H5388 H 0.59351 0.41241 0.14764 0.0
H5389 H 0.56742 0.42408 0.14301 0.0
H5390 H 0.56893 0.44619 0.18829 0.0
H5391 H 0.59514 0.43488 0.19311 0.0
C5392 C 0.63957 0.36656 0.21864 0.0
C5393 C 0.63572 0.37299 0.23331 0.0
C5394 C 0.63653 0.37495 0.20486 0.0
C5395 C 0.6301 0.39016 0.20551 0.0
C5396 C 0.62585 0.39642 0.22015 0.0
C5397 C 0.62855 0.38787 0.23393 0.0
C5398 C 0.62858 0.3998 0.19099 0.0
C5399 C 0.61415 0.40697 0.1875 0.0
C5400 C 0.64135 0.40184 0.18055 0.0
C5401 C 0.65722 0.3957 0.18418 0.0
C5402 C 0.66484 0.39994 0.19821 0.0
C5403 C 0.6795 0.39355 0.20191 0.0
C5404 C 0.68672 0.38304 0.19159 0.0
C5405 C 0.67934 0.37895 0.17751 0.0
C5406 C 0.66466 0.38528 0.17377 0.0
C5407 C 0.61925 0.45262 0.1362 0.0
C5408 C 0.62324 0.44633 0.12142 0.0
C5409 C 0.61959 0.44326 0.14968 0.0
C5410 C 0.62385 0.42737 0.1487 0.0
C5411 C 0.62805 0.42109 0.13402 0.0
C5412 C 0.6277 0.43046 0.12049 0.0
C5413 C 0.62479 0.41753 0.1631 0.0
C5414 C 0.63921 0.4104 0.16666 0.0
C5415 C 0.61207 0.41586 0.17371 0.0
C5416 C 0.5964 0.42292 0.17066 0.0
C5417 C 0.58837 0.41991 0.15654 0.0
C5418 C 0.57353 0.42643 0.1539 0.0
C5419 C 0.56654 0.4359 0.16533 0.0
C5420 C 0.57437 0.43888 0.17944 0.0
C5421 C 0.58922 0.43241 0.18213 0.0
H5422 H 0.55504 0.44091 0.16327 0.0
H5423 H 0.69806 0.37807 0.19449 0.0
loop_
_geom_bond_atom_site_label_1
_geom_bond_atom_site_label_2
_geom_bond_distance
_geom_bond_site_symmetry_2
_ccdc_geom_bond_type
Mg0 O7 2.141 . S
Mg0 O8 2.048 . S
Mg0 O9 2.048 . S
Mg0 O12 2.141 . S
C1 O2 1.313 . S
C1 O8 1.195 . S
O2 C1 1.313 . S
C3 O4 1.245 . S
C3 O12 1.289 . S
O4 C3 1.245 . S
C5 O6 1.245 . S
C5 O7 1.289 . S
O6 C5 1.245 . S
O7 Mg0 2.141 . S
O7 C5 1.289 . S
O8 Mg0 2.048 . S
O8 C1 1.195 . S
O9 Mg0 2.048 . S
O9 C10 1.195 . S
C10 O9 1.195 . S
C10 O11 1.313 . S
O11 C10 1.313 . S
O12 Mg0 2.141 . S
O12 C3 1.289 . S
Mg13 O20 2.141 . S
Mg13 O21 2.048 . S
Mg13 O22 2.048 . S
Mg13 O25 2.141 . S
C14 O15 1.313 . S
C14 O21 1.195 . S
O15 C14 1.313 . S
C16 O17 1.245 . S
C16 O25 1.289 . S
O17 C16 1.245 . S
C18 O19 1.245 . S
C18 O20 1.289 . S
O19 C18 1.245 . S
O20 Mg13 2.141 . S
O20 C18 1.289 . S
O21 Mg13 2.048 . S
O21 C14 1.195 . S
O22 Mg13 2.048 . S
O22 C23 1.195 . S
C23 O22 1.195 . S
C23 O24 1.313 . S
O24 C23 1.313 . S
O25 Mg13 2.141 . S
O25 C16 1.289 . S
Mg26 O33 2.141 . S
Mg26 O34 2.048 . S
Mg26 O35 2.048 . S
Mg26 O38 2.141 . S
C27 O28 1.313 . S
C27 O34 1.195 . S
O28 C27 1.313 . S
C29 O30 1.245 . S
C29 O38 1.289 . S
O30 C29 1.245 . S
C31 O32 1.245 . S
C31 O33 1.289 . S
O32 C31 1.245 . S
O33 Mg26 2.141 . S
O33 C31 1.289 . S
O34 Mg26 2.048 . S
O34 C27 1.195 . S
O35 Mg26 2.048 . S
O35 C36 1.195 . S
C36 O35 1.195 . S
C36 O37 1.313 . S
O37 C36 1.313 . S
O38 Mg26 2.141 . S
O38 C29 1.289 . S
Mg39 O46 2.141 . S
Mg39 O47 2.048 . S
Mg39 O48 2.048 . S
Mg39 O51 2.141 . S
C40 O41 1.313 . S
C40 O47 1.195 . S
O41 C40 1.313 . S
C42 O43 1.245 . S
C42 O51 1.289 . S
O43 C42 1.245 . S
C44 O45 1.245 . S
C44 O46 1.289 . S
O45 C44 1.245 . S
O46 Mg39 2.141 . S
O46 C44 1.289 . S
O47 Mg39 2.048 . S
O47 C40 1.195 . S
O48 Mg39 2.048 . S
O48 C49 1.195 . S
C49 O48 1.195 . S
C49 O50 1.313 . S
O50 C49 1.313 . S
O51 Mg39 2.141 . S
O51 C42 1.289 . S
Mg52 O59 2.141 . S
Mg52 O60 2.048 . S
Mg52 O61 2.048 . S
Mg52 O64 2.141 . S
C53 O54 1.313 . S
C53 O60 1.195 . S
O54 C53 1.313 . S
C55 O56 1.245 . S
C55 O64 1.289 . S
O56 C55 1.245 . S
C57 O58 1.245 . S
C57 O59 1.289 . S
O58 C57 1.245 . S
O59 Mg52 2.141 . S
O59 C57 1.289 . S
O60 Mg52 2.048 . S
O60 C53 1.195 . S
O61 Mg52 2.048 . S
O61 C62 1.195 . S
C62 O61 1.195 . S
C62 O63 1.313 . S
O63 C62 1.313 . S
O64 Mg52 2.141 . S
O64 C55 1.289 . S
Mg65 O72 2.141 . S
Mg65 O73 2.048 1_655 S
Mg65 O74 2.048 1_655 S
Mg65 O77 2.141 . S
C66 O67 1.313 . S
C66 O73 1.195 . S
O67 C66 1.313 . S
C68 O69 1.245 . S
C68 O77 1.289 . S
O69 C68 1.245 . S
C70 O71 1.245 . S
C70 O72 1.289 . S
O71 C70 1.245 . S
O72 Mg65 2.141 . S
O72 C70 1.289 . S
O73 Mg65 2.048 1_455 S
O73 C66 1.195 . S
O74 Mg65 2.048 1_455 S
O74 C75 1.195 . S
C75 O74 1.195 . S
C75 O76 1.313 . S
O76 C75 1.313 . S
O77 Mg65 2.141 . S
O77 C68 1.289 . S
Mg78 O85 2.141 . S
Mg78 O86 2.048 . S
Mg78 O87 2.048 . S
Mg78 O90 2.141 . S
C79 O80 1.313 . S
C79 O86 1.195 . S
O80 C79 1.313 . S
C81 O82 1.245 . S
C81 O90 1.289 . S
O82 C81 1.245 . S
C83 O84 1.245 . S
C83 O85 1.289 . S
O84 C83 1.245 . S
O85 Mg78 2.141 . S
O85 C83 1.289 . S
O86 Mg78 2.048 . S
O86 C79 1.195 . S
O87 Mg78 2.048 . S
O87 C88 1.195 . S
C88 O87 1.195 . S
C88 O89 1.313 . S
O89 C88 1.313 . S
O90 Mg78 2.141 . S
O90 C81 1.289 . S
Mg91 O98 2.141 . S
Mg91 O99 2.048 1_455 S
Mg91 O100 2.048 1_455 S
Mg91 O103 2.141 . S
C92 O93 1.313 . S
C92 O99 1.195 . S
O93 C92 1.313 . S
C94 O95 1.245 . S
C94 O103 1.289 . S
O95 C94 1.245 . S
C96 O97 1.245 . S
C96 O98 1.289 . S
O97 C96 1.245 . S
O98 Mg91 2.141 . S
O98 C96 1.289 . S
O99 Mg91 2.048 1_655 S
O99 C92 1.195 . S
O100 Mg91 2.048 1_655 S
O100 C101 1.195 . S
C101 O100 1.195 . S
C101 O102 1.313 . S
O102 C101 1.313 . S
O103 Mg91 2.141 . S
O103 C94 1.289 . S
Mg104 O111 2.141 . S
Mg104 O112 2.048 . S
Mg104 O113 2.048 . S
Mg104 O116 2.141 . S
C105 O106 1.313 . S
C105 O112 1.195 . S
O106 C105 1.313 . S
C107 O108 1.245 . S
C107 O116 1.289 . S
O108 C107 1.245 . S
C109 O110 1.245 . S
C109 O111 1.289 . S
O110 C109 1.245 . S
O111 Mg104 2.141 . S
O111 C109 1.289 . S
O112 Mg104 2.048 . S
O112 C105 1.195 . S
O113 Mg104 2.048 . S
O113 C114 1.195 . S
C114 O113 1.195 . S
C114 O115 1.313 . S
O115 C114 1.313 . S
O116 Mg104 2.141 . S
O116 C107 1.289 . S
Mg117 O124 2.141 . S
Mg117 O125 2.048 1_556 S
Mg117 O126 2.048 1_556 S
Mg117 O129 2.141 . S
C118 O119 1.313 . S
C118 O125 1.195 . S
O119 C118 1.313 . S
C120 O121 1.245 . S
C120 O129 1.289 . S
O121 C120 1.245 . S
C122 O123 1.245 . S
C122 O124 1.289 . S
O123 C122 1.245 . S
O124 Mg117 2.141 . S
O124 C122 1.289 . S
O125 Mg117 2.048 1_554 S
O125 C118 1.195 . S
O126 Mg117 2.048 1_554 S
O126 C127 1.195 . S
C127 O126 1.195 . S
C127 O128 1.313 . S
O128 C127 1.313 . S
O129 Mg117 2.141 . S
O129 C120 1.289 . S
Mg130 O137 2.141 . S
Mg130 O138 2.048 . S
Mg130 O139 2.048 . S
Mg130 O142 2.141 . S
C131 O132 1.313 . S
C131 O138 1.195 . S
O132 C131 1.313 . S
C133 O134 1.245 . S
C133 O142 1.289 . S
O134 C133 1.245 . S
C135 O136 1.245 . S
C135 O137 1.289 . S
O136 C135 1.245 . S
O137 Mg130 2.141 . S
O137 C135 1.289 . S
O138 Mg130 2.048 . S
O138 C131 1.195 . S
O139 Mg130 2.048 . S
O139 C140 1.195 . S
C140 O139 1.195 . S
C140 O141 1.313 . S
O141 C140 1.313 . S
O142 Mg130 2.141 . S
O142 C133 1.289 . S
Mg143 O150 2.141 . S
Mg143 O151 2.048 1_556 S
Mg143 O152 2.048 1_556 S
Mg143 O155 2.141 . S
C144 O145 1.313 . S
C144 O151 1.195 . S
O145 C144 1.313 . S
C146 O147 1.245 . S
C146 O155 1.289 . S
O147 C146 1.245 . S
C148 O149 1.245 . S
C148 O150 1.289 . S
O149 C148 1.245 . S
O150 Mg143 2.141 . S
O150 C148 1.289 . S
O151 Mg143 2.048 1_554 S
O151 C144 1.195 . S
O152 Mg143 2.048 1_554 S
O152 C153 1.195 . S
C153 O152 1.195 . S
C153 O154 1.313 . S
O154 C153 1.313 . S
O155 Mg143 2.141 . S
O155 C146 1.289 . S
Mg156 O163 2.141 . S
Mg156 O164 2.048 . S
Mg156 O165 2.048 . S
Mg156 O168 2.141 . S
C157 O158 1.313 . S
C157 O164 1.195 . S
O158 C157 1.313 . S
C159 O160 1.245 . S
C159 O168 1.289 . S
O160 C159 1.245 . S
C161 O162 1.245 . S
C161 O163 1.289 . S
O162 C161 1.245 . S
O163 Mg156 2.141 . S
O163 C161 1.289 . S
O164 Mg156 2.048 . S
O164 C157 1.195 . S
O165 Mg156 2.048 . S
O165 C166 1.195 . S
C166 O165 1.195 . S
C166 O167 1.313 . S
O167 C166 1.313 . S
O168 Mg156 2.141 . S
O168 C159 1.289 . S
Mg169 O176 2.141 . S
Mg169 O177 2.048 1_554 S
Mg169 O178 2.048 1_554 S
Mg169 O181 2.141 . S
C170 O171 1.313 . S
C170 O177 1.195 . S
O171 C170 1.313 . S
C172 O173 1.245 . S
C172 O181 1.289 . S
O173 C172 1.245 . S
C174 O175 1.245 . S
C174 O176 1.289 . S
O175 C174 1.245 . S
O176 Mg169 2.141 . S
O176 C174 1.289 . S
O177 Mg169 2.048 1_556 S
O177 C170 1.195 . S
O178 Mg169 2.048 1_556 S
O178 C179 1.195 . S
C179 O178 1.195 . S
C179 O180 1.313 . S
O180 C179 1.313 . S
O181 Mg169 2.141 . S
O181 C172 1.289 . S
Mg182 O189 2.141 . S
Mg182 O190 2.048 . S
Mg182 O191 2.048 . S
Mg182 O194 2.141 . S
C183 O184 1.313 . S
C183 O190 1.195 . S
O184 C183 1.313 . S
C185 O186 1.245 . S
C185 O194 1.289 . S
O186 C185 1.245 . S
C187 O188 1.245 . S
C187 O189 1.289 . S
O188 C187 1.245 . S
O189 Mg182 2.141 . S
O189 C187 1.289 . S
O190 Mg182 2.048 . S
O190 C183 1.195 . S
O191 Mg182 2.048 . S
O191 C192 1.195 . S
C192 O191 1.195 . S
C192 O193 1.313 . S
O193 C192 1.313 . S
O194 Mg182 2.141 . S
O194 C185 1.289 . S
Mg195 O202 2.141 . S
Mg195 O203 2.048 1_554 S
Mg195 O204 2.048 1_554 S
Mg195 O207 2.141 . S
C196 O197 1.313 . S
C196 O203 1.195 . S
O197 C196 1.313 . S
C198 O199 1.245 . S
C198 O207 1.289 . S
O199 C198 1.245 . S
C200 O201 1.245 . S
C200 O202 1.289 . S
O201 C200 1.245 . S
O202 Mg195 2.141 . S
O202 C200 1.289 . S
O203 Mg195 2.048 1_556 S
O203 C196 1.195 . S
O204 Mg195 2.048 1_556 S
O204 C205 1.195 . S
C205 O204 1.195 . S
C205 O206 1.313 . S
O206 C205 1.313 . S
O207 Mg195 2.141 . S
O207 C198 1.289 . S
Mg208 O215 2.141 . S
Mg208 O216 2.048 . S
Mg208 O217 2.048 . S
Mg208 O220 2.141 . S
C209 O210 1.313 . S
C209 O216 1.195 . S
O210 C209 1.313 . S
C211 O212 1.245 . S
C211 O220 1.289 . S
O212 C211 1.245 . S
C213 O214 1.245 . S
C213 O215 1.289 . S
O214 C213 1.245 . S
O215 Mg208 2.141 . S
O215 C213 1.289 . S
O216 Mg208 2.048 . S
O216 C209 1.195 . S
O217 Mg208 2.048 . S
O217 C218 1.195 . S
C218 O217 1.195 . S
C218 O219 1.313 . S
O219 C218 1.313 . S
O220 Mg208 2.141 . S
O220 C211 1.289 . S
Mg221 O228 2.141 . S
Mg221 O229 2.048 . S
Mg221 O230 2.048 . S
Mg221 O233 2.141 . S
C222 O223 1.313 . S
C222 O229 1.195 . S
O223 C222 1.313 . S
C224 O225 1.245 . S
C224 O233 1.289 . S
O225 C224 1.245 . S
C226 O227 1.245 . S
C226 O228 1.289 . S
O227 C226 1.245 . S
O228 Mg221 2.141 . S
O228 C226 1.289 . S
O229 Mg221 2.048 . S
O229 C222 1.195 . S
O230 Mg221 2.048 . S
O230 C231 1.195 . S
C231 O230 1.195 . S
C231 O232 1.313 . S
O232 C231 1.313 . S
O233 Mg221 2.141 . S
O233 C224 1.289 . S
Mg234 O241 2.141 . S
Mg234 O242 2.048 . S
Mg234 O243 2.048 . S
Mg234 O246 2.141 . S
C235 O236 1.313 . S
C235 O242 1.195 . S
O236 C235 1.313 . S
C237 O238 1.245 . S
C237 O246 1.289 . S
O238 C237 1.245 . S
C239 O240 1.245 . S
C239 O241 1.289 . S
O240 C239 1.245 . S
O241 Mg234 2.141 . S
O241 C239 1.289 . S
O242 Mg234 2.048 . S
O242 C235 1.195 . S
O243 Mg234 2.048 . S
O243 C244 1.195 . S
C244 O243 1.195 . S
C244 O245 1.313 . S
O245 C244 1.313 . S
O246 Mg234 2.141 . S
O246 C237 1.289 . S
Mg247 O254 2.141 . S
Mg247 O255 2.048 . S
Mg247 O256 2.048 . S
Mg247 O259 2.141 . S
C248 O249 1.313 . S
C248 O255 1.195 . S
O249 C248 1.313 . S
C250 O251 1.245 . S
C250 O259 1.289 . S
O251 C250 1.245 . S
C252 O253 1.245 . S
C252 O254 1.289 . S
O253 C252 1.245 . S
O254 Mg247 2.141 . S
O254 C252 1.289 . S
O255 Mg247 2.048 . S
O255 C248 1.195 . S
O256 Mg247 2.048 . S
O256 C257 1.195 . S
C257 O256 1.195 . S
C257 O258 1.313 . S
O258 C257 1.313 . S
O259 Mg247 2.141 . S
O259 C250 1.289 . S
Mg260 O267 2.141 . S
Mg260 O268 2.048 . S
Mg260 O269 2.048 . S
Mg260 O272 2.141 . S
C261 O262 1.313 . S
C261 O268 1.195 . S
O262 C261 1.313 . S
C263 O264 1.245 . S
C263 O272 1.289 . S
O264 C263 1.245 . S
C265 O266 1.245 . S
C265 O267 1.289 . S
O266 C265 1.245 . S
O267 Mg260 2.141 . S
O267 C265 1.289 . S
O268 Mg260 2.048 . S
O268 C261 1.195 . S
O269 Mg260 2.048 . S
O269 C270 1.195 . S
C270 O269 1.195 . S
C270 O271 1.313 . S
O271 C270 1.313 . S
O272 Mg260 2.141 . S
O272 C263 1.289 . S
Mg273 O280 2.141 . S
Mg273 O281 2.048 . S
Mg273 O282 2.048 . S
Mg273 O285 2.141 . S
C274 O275 1.313 . S
C274 O281 1.195 . S
O275 C274 1.313 . S
C276 O277 1.245 . S
C276 O285 1.289 . S
O277 C276 1.245 . S
C278 O279 1.245 . S
C278 O280 1.289 . S
O279 C278 1.245 . S
O280 Mg273 2.141 . S
O280 C278 1.289 . S
O281 Mg273 2.048 . S
O281 C274 1.195 . S
O282 Mg273 2.048 . S
O282 C283 1.195 . S
C283 O282 1.195 . S
C283 O284 1.313 . S
O284 C283 1.313 . S
O285 Mg273 2.141 . S
O285 C276 1.289 . S
Mg286 O293 2.141 . S
Mg286 O294 2.048 . S
Mg286 O295 2.048 . S
Mg286 O298 2.141 . S
C287 O288 1.313 . S
C287 O294 1.195 . S
O288 C287 1.313 . S
C289 O290 1.245 . S
C289 O298 1.289 . S
O290 C289 1.245 . S
C291 O292 1.245 . S
C291 O293 1.289 . S
O292 C291 1.245 . S
O293 Mg286 2.141 . S
O293 C291 1.289 . S
O294 Mg286 2.048 . S
O294 C287 1.195 . S
O295 Mg286 2.048 . S
O295 C296 1.195 . S
C296 O295 1.195 . S
C296 O297 1.313 . S
O297 C296 1.313 . S
O298 Mg286 2.141 . S
O298 C289 1.289 . S
Mg299 O306 2.141 1_545 S
Mg299 O307 2.048 . S
Mg299 O308 2.048 . S
Mg299 O311 2.141 1_545 S
C300 O301 1.313 . S
C300 O307 1.195 . S
O301 C300 1.313 . S
C302 O303 1.245 . S
C302 O311 1.289 . S
O303 C302 1.245 . S
C304 O305 1.245 . S
C304 O306 1.289 . S
O305 C304 1.245 . S
O306 Mg299 2.141 1_565 S
O306 C304 1.289 . S
O307 Mg299 2.048 . S
O307 C300 1.195 . S
O308 Mg299 2.048 . S
O308 C309 1.195 . S
C309 O308 1.195 . S
C309 O310 1.313 . S
O310 C309 1.313 . S
O311 Mg299 2.141 1_565 S
O311 C302 1.289 . S
Mg312 O319 2.141 . S
Mg312 O320 2.048 . S
Mg312 O321 2.048 . S
Mg312 O324 2.141 . S
C313 O314 1.313 . S
C313 O320 1.195 . S
O314 C313 1.313 . S
C315 O316 1.245 . S
C315 O324 1.289 . S
O316 C315 1.245 . S
C317 O318 1.245 . S
C317 O319 1.289 . S
O318 C317 1.245 . S
O319 Mg312 2.141 . S
O319 C317 1.289 . S
O320 Mg312 2.048 . S
O320 C313 1.195 . S
O321 Mg312 2.048 . S
O321 C322 1.195 . S
C322 O321 1.195 . S
C322 O323 1.313 . S
O323 C322 1.313 . S
O324 Mg312 2.141 . S
O324 C315 1.289 . S
Mg325 O332 2.141 . S
Mg325 O333 2.048 1_455 S
Mg325 O334 2.048 1_455 S
Mg325 O337 2.141 . S
C326 O327 1.313 . S
C326 O333 1.195 . S
O327 C326 1.313 . S
C328 O329 1.245 . S
C328 O337 1.289 . S
O329 C328 1.245 . S
C330 O331 1.245 . S
C330 O332 1.289 . S
O331 C330 1.245 . S
O332 Mg325 2.141 . S
O332 C330 1.289 . S
O333 Mg325 2.048 1_655 S
O333 C326 1.195 . S
O334 Mg325 2.048 1_655 S
O334 C335 1.195 . S
C335 O334 1.195 . S
C335 O336 1.313 . S
O336 C335 1.313 . S
O337 Mg325 2.141 . S
O337 C328 1.289 . S
Mg338 O345 2.141 . S
Mg338 O346 2.048 . S
Mg338 O347 2.048 . S
Mg338 O350 2.141 . S
C339 O340 1.313 . S
C339 O346 1.195 . S
O340 C339 1.313 . S
C341 O342 1.245 . S
C341 O350 1.289 . S
O342 C341 1.245 . S
C343 O344 1.245 . S
C343 O345 1.289 . S
O344 C343 1.245 . S
O345 Mg338 2.141 . S
O345 C343 1.289 . S
O346 Mg338 2.048 . S
O346 C339 1.195 . S
O347 Mg338 2.048 . S
O347 C348 1.195 . S
C348 O347 1.195 . S
C348 O349 1.313 . S
O349 C348 1.313 . S
O350 Mg338 2.141 . S
O350 C341 1.289 . S
Mg351 O358 2.141 . S
Mg351 O359 2.048 1_655 S
Mg351 O360 2.048 1_655 S
Mg351 O363 2.141 . S
C352 O353 1.313 . S
C352 O359 1.195 . S
O353 C352 1.313 . S
C354 O355 1.245 . S
C354 O363 1.289 . S
O355 C354 1.245 . S
C356 O357 1.245 . S
C356 O358 1.289 . S
O357 C356 1.245 . S
O358 Mg351 2.141 . S
O358 C356 1.289 . S
O359 Mg351 2.048 1_455 S
O359 C352 1.195 . S
O360 Mg351 2.048 1_455 S
O360 C361 1.195 . S
C361 O360 1.195 . S
C361 O362 1.313 . S
O362 C361 1.313 . S
O363 Mg351 2.141 . S
O363 C354 1.289 . S
Mg364 O371 2.141 . S
Mg364 O372 2.048 . S
Mg364 O373 2.048 . S
Mg364 O376 2.141 . S
C365 O366 1.313 . S
C365 O372 1.195 . S
O366 C365 1.313 . S
C367 O368 1.245 . S
C367 O376 1.289 . S
O368 C367 1.245 . S
C369 O370 1.245 . S
C369 O371 1.289 . S
O370 C369 1.245 . S
O371 Mg364 2.141 . S
O371 C369 1.289 . S
O372 Mg364 2.048 . S
O372 C365 1.195 . S
O373 Mg364 2.048 . S
O373 C374 1.195 . S
C374 O373 1.195 . S
C374 O375 1.313 . S
O375 C374 1.313 . S
O376 Mg364 2.141 . S
O376 C367 1.289 . S
Mg377 O384 2.141 . S
Mg377 O385 2.048 . S
Mg377 O386 2.048 . S
Mg377 O389 2.141 . S
C378 O379 1.313 . S
C378 O385 1.195 . S
O379 C378 1.313 . S
C380 O381 1.245 . S
C380 O389 1.289 . S
O381 C380 1.245 . S
C382 O383 1.245 . S
C382 O384 1.289 . S
O383 C382 1.245 . S
O384 Mg377 2.141 . S
O384 C382 1.289 . S
O385 Mg377 2.048 . S
O385 C378 1.195 . S
O386 Mg377 2.048 . S
O386 C387 1.195 . S
C387 O386 1.195 . S
C387 O388 1.313 . S
O388 C387 1.313 . S
O389 Mg377 2.141 . S
O389 C380 1.289 . S
Mg390 O397 2.141 . S
Mg390 O398 2.048 . S
Mg390 O399 2.048 . S
Mg390 O402 2.141 . S
C391 O392 1.313 . S
C391 O398 1.195 . S
O392 C391 1.313 . S
C393 O394 1.245 . S
C393 O402 1.289 . S
O394 C393 1.245 . S
C395 O396 1.245 . S
C395 O397 1.289 . S
O396 C395 1.245 . S
O397 Mg390 2.141 . S
O397 C395 1.289 . S
O398 Mg390 2.048 . S
O398 C391 1.195 . S
O399 Mg390 2.048 . S
O399 C400 1.195 . S
C400 O399 1.195 . S
C400 O401 1.313 . S
O401 C400 1.313 . S
O402 Mg390 2.141 . S
O402 C393 1.289 . S
Mg403 O410 2.141 . S
Mg403 O411 2.048 . S
Mg403 O412 2.048 . S
Mg403 O415 2.141 . S
C404 O405 1.313 . S
C404 O411 1.195 . S
O405 C404 1.313 . S
C406 O407 1.245 . S
C406 O415 1.289 . S
O407 C406 1.245 . S
C408 O409 1.245 . S
C408 O410 1.289 . S
O409 C408 1.245 . S
O410 Mg403 2.141 . S
O410 C408 1.289 . S
O411 Mg403 2.048 . S
O411 C404 1.195 . S
O412 Mg403 2.048 . S
O412 C413 1.195 . S
C413 O412 1.195 . S
C413 O414 1.313 . S
O414 C413 1.313 . S
O415 Mg403 2.141 . S
O415 C406 1.289 . S
Mg416 O423 2.141 . S
Mg416 O424 2.048 . S
Mg416 O425 2.048 . S
Mg416 O428 2.141 . S
C417 O418 1.313 . S
C417 O424 1.195 . S
O418 C417 1.313 . S
C419 O420 1.245 . S
C419 O428 1.289 . S
O420 C419 1.245 . S
C421 O422 1.245 . S
C421 O423 1.289 . S
O422 C421 1.245 . S
O423 Mg416 2.141 . S
O423 C421 1.289 . S
O424 Mg416 2.048 . S
O424 C417 1.195 . S
O425 Mg416 2.048 . S
O425 C426 1.195 . S
C426 O425 1.195 . S
C426 O427 1.313 . S
O427 C426 1.313 . S
O428 Mg416 2.141 . S
O428 C419 1.289 . S
Mg429 O436 2.141 . S
Mg429 O437 2.048 . S
Mg429 O438 2.048 . S
Mg429 O441 2.141 . S
C430 O431 1.313 . S
C430 O437 1.195 . S
O431 C430 1.313 . S
C432 O433 1.245 . S
C432 O441 1.289 . S
O433 C432 1.245 . S
C434 O435 1.245 . S
C434 O436 1.289 . S
O435 C434 1.245 . S
O436 Mg429 2.141 . S
O436 C434 1.289 . S
O437 Mg429 2.048 . S
O437 C430 1.195 . S
O438 Mg429 2.048 . S
O438 C439 1.195 . S
C439 O438 1.195 . S
C439 O440 1.313 . S
O440 C439 1.313 . S
O441 Mg429 2.141 . S
O441 C432 1.289 . S
Mg442 O449 2.141 . S
Mg442 O450 2.048 . S
Mg442 O451 2.048 . S
Mg442 O454 2.141 . S
C443 O444 1.313 . S
C443 O450 1.195 . S
O444 C443 1.313 . S
C445 O446 1.245 . S
C445 O454 1.289 . S
O446 C445 1.245 . S
C447 O448 1.245 . S
C447 O449 1.289 . S
O448 C447 1.245 . S
O449 Mg442 2.141 . S
O449 C447 1.289 . S
O450 Mg442 2.048 . S
O450 C443 1.195 . S
O451 Mg442 2.048 . S
O451 C452 1.195 . S
C452 O451 1.195 . S
C452 O453 1.313 . S
O453 C452 1.313 . S
O454 Mg442 2.141 . S
O454 C445 1.289 . S
Mg455 O462 2.141 . S
Mg455 O463 2.048 . S
Mg455 O464 2.048 . S
Mg455 O467 2.141 . S
C456 O457 1.313 . S
C456 O463 1.195 . S
O457 C456 1.313 . S
C458 O459 1.245 . S
C458 O467 1.289 . S
O459 C458 1.245 . S
C460 O461 1.245 . S
C460 O462 1.289 . S
O461 C460 1.245 . S
O462 Mg455 2.141 . S
O462 C460 1.289 . S
O463 Mg455 2.048 . S
O463 C456 1.195 . S
O464 Mg455 2.048 . S
O464 C465 1.195 . S
C465 O464 1.195 . S
C465 O466 1.313 . S
O466 C465 1.313 . S
O467 Mg455 2.141 . S
O467 C458 1.289 . S
Mg468 O475 2.141 . S
Mg468 O476 2.048 . S
Mg468 O477 2.048 . S
Mg468 O480 2.141 . S
C469 O470 1.313 . S
C469 O476 1.195 . S
O470 C469 1.313 . S
C471 O472 1.245 . S
C471 O480 1.289 . S
O472 C471 1.245 . S
C473 O474 1.245 . S
C473 O475 1.289 . S
O474 C473 1.245 . S
O475 Mg468 2.141 . S
O475 C473 1.289 . S
O476 Mg468 2.048 . S
O476 C469 1.195 . S
O477 Mg468 2.048 . S
O477 C478 1.195 . S
C478 O477 1.195 . S
C478 O479 1.313 . S
O479 C478 1.313 . S
O480 Mg468 2.141 . S
O480 C471 1.289 . S
Mg481 O488 2.141 . S
Mg481 O489 2.048 . S
Mg481 O490 2.048 . S
Mg481 O493 2.141 . S
C482 O483 1.313 . S
C482 O489 1.195 . S
O483 C482 1.313 . S
C484 O485 1.245 . S
C484 O493 1.289 . S
O485 C484 1.245 . S
C486 O487 1.245 . S
C486 O488 1.289 . S
O487 C486 1.245 . S
O488 Mg481 2.141 . S
O488 C486 1.289 . S
O489 Mg481 2.048 . S
O489 C482 1.195 . S
O490 Mg481 2.048 . S
O490 C491 1.195 . S
C491 O490 1.195 . S
C491 O492 1.313 . S
O492 C491 1.313 . S
O493 Mg481 2.141 . S
O493 C484 1.289 . S
Mg494 O501 2.141 . S
Mg494 O502 2.048 . S
Mg494 O503 2.048 . S
Mg494 O506 2.141 . S
C495 O496 1.313 . S
C495 O502 1.195 . S
O496 C495 1.313 . S
C497 O498 1.245 . S
C497 O506 1.289 . S
O498 C497 1.245 . S
C499 O500 1.245 . S
C499 O501 1.289 . S
O500 C499 1.245 . S
O501 Mg494 2.141 . S
O501 C499 1.289 . S
O502 Mg494 2.048 . S
O502 C495 1.195 . S
O503 Mg494 2.048 . S
O503 C504 1.195 . S
C504 O503 1.195 . S
C504 O505 1.313 . S
O505 C504 1.313 . S
O506 Mg494 2.141 . S
O506 C497 1.289 . S
Mg507 O514 2.141 . S
Mg507 O515 2.048 . S
Mg507 O516 2.048 . S
Mg507 O519 2.141 . S
C508 O509 1.313 . S
C508 O515 1.195 . S
O509 C508 1.313 . S
C510 O511 1.245 . S
C510 O519 1.289 . S
O511 C510 1.245 . S
C512 O513 1.245 . S
C512 O514 1.289 . S
O513 C512 1.245 . S
O514 Mg507 2.141 . S
O514 C512 1.289 . S
O515 Mg507 2.048 . S
O515 C508 1.195 . S
O516 Mg507 2.048 . S
O516 C517 1.195 . S
C517 O516 1.195 . S
C517 O518 1.313 . S
O518 C517 1.313 . S
O519 Mg507 2.141 . S
O519 C510 1.289 . S
Mg520 O527 2.141 . S
Mg520 O528 2.048 . S
Mg520 O529 2.048 . S
Mg520 O532 2.141 . S
C521 O522 1.313 . S
C521 O528 1.195 . S
O522 C521 1.313 . S
C523 O524 1.245 . S
C523 O532 1.289 . S
O524 C523 1.245 . S
C525 O526 1.245 . S
C525 O527 1.289 . S
O526 C525 1.245 . S
O527 Mg520 2.141 . S
O527 C525 1.289 . S
O528 Mg520 2.048 . S
O528 C521 1.195 . S
O529 Mg520 2.048 . S
O529 C530 1.195 . S
C530 O529 1.195 . S
C530 O531 1.313 . S
O531 C530 1.313 . S
O532 Mg520 2.141 . S
O532 C523 1.289 . S
Mg533 O540 2.141 . S
Mg533 O541 2.048 . S
Mg533 O542 2.048 . S
Mg533 O545 2.141 . S
C534 O535 1.313 . S
C534 O541 1.195 . S
O535 C534 1.313 . S
C536 O537 1.245 . S
C536 O545 1.289 . S
O537 C536 1.245 . S
C538 O539 1.245 . S
C538 O540 1.289 . S
O539 C538 1.245 . S
O540 Mg533 2.141 . S
O540 C538 1.289 . S
O541 Mg533 2.048 . S
O541 C534 1.195 . S
O542 Mg533 2.048 . S
O542 C543 1.195 . S
C543 O542 1.195 . S
C543 O544 1.313 . S
O544 C543 1.313 . S
O545 Mg533 2.141 . S
O545 C536 1.289 . S
Mg546 O553 2.141 1_545 S
Mg546 O554 2.048 . S
Mg546 O555 2.048 . S
Mg546 O558 2.141 1_545 S
C547 O548 1.313 . S
C547 O554 1.195 . S
O548 C547 1.313 . S
C549 O550 1.245 . S
C549 O558 1.289 . S
O550 C549 1.245 . S
C551 O552 1.245 . S
C551 O553 1.289 . S
O552 C551 1.245 . S
O553 Mg546 2.141 1_565 S
O553 C551 1.289 . S
O554 Mg546 2.048 . S
O554 C547 1.195 . S
O555 Mg546 2.048 . S
O555 C556 1.195 . S
C556 O555 1.195 . S
C556 O557 1.313 . S
O557 C556 1.313 . S
O558 Mg546 2.141 1_565 S
O558 C549 1.289 . S
Mg559 O566 2.141 . S
Mg559 O567 2.048 . S
Mg559 O568 2.048 . S
Mg559 O571 2.141 . S
C560 O561 1.313 . S
C560 O567 1.195 . S
O561 C560 1.313 . S
C562 O563 1.245 . S
C562 O571 1.289 . S
O563 C562 1.245 . S
C564 O565 1.245 . S
C564 O566 1.289 . S
O565 C564 1.245 . S
O566 Mg559 2.141 . S
O566 C564 1.289 . S
O567 Mg559 2.048 . S
O567 C560 1.195 . S
O568 Mg559 2.048 . S
O568 C569 1.195 . S
C569 O568 1.195 . S
C569 O570 1.313 . S
O570 C569 1.313 . S
O571 Mg559 2.141 . S
O571 C562 1.289 . S
Mg572 O579 2.141 1_565 S
Mg572 O580 2.048 . S
Mg572 O581 2.048 . S
Mg572 O584 2.141 1_565 S
C573 O574 1.313 . S
C573 O580 1.195 . S
O574 C573 1.313 . S
C575 O576 1.245 . S
C575 O584 1.289 . S
O576 C575 1.245 . S
C577 O578 1.245 . S
C577 O579 1.289 . S
O578 C577 1.245 . S
O579 Mg572 2.141 1_545 S
O579 C577 1.289 . S
O580 Mg572 2.048 . S
O580 C573 1.195 . S
O581 Mg572 2.048 . S
O581 C582 1.195 . S
C582 O581 1.195 . S
C582 O583 1.313 . S
O583 C582 1.313 . S
O584 Mg572 2.141 1_545 S
O584 C575 1.289 . S
Mg585 O592 2.141 . S
Mg585 O593 2.048 . S
Mg585 O594 2.048 . S
Mg585 O597 2.141 . S
C586 O587 1.313 . S
C586 O593 1.195 . S
O587 C586 1.313 . S
C588 O589 1.245 . S
C588 O597 1.289 . S
O589 C588 1.245 . S
C590 O591 1.245 . S
C590 O592 1.289 . S
O591 C590 1.245 . S
O592 Mg585 2.141 . S
O592 C590 1.289 . S
O593 Mg585 2.048 . S
O593 C586 1.195 . S
O594 Mg585 2.048 . S
O594 C595 1.195 . S
C595 O594 1.195 . S
C595 O596 1.313 . S
O596 C595 1.313 . S
O597 Mg585 2.141 . S
O597 C588 1.289 . S
Mg598 O605 2.141 1_565 S
Mg598 O606 2.048 . S
Mg598 O607 2.048 . S
Mg598 O610 2.141 1_565 S
C599 O600 1.313 . S
C599 O606 1.195 . S
O600 C599 1.313 . S
C601 O602 1.245 . S
C601 O610 1.289 . S
O602 C601 1.245 . S
C603 O604 1.245 . S
C603 O605 1.289 . S
O604 C603 1.245 . S
O605 Mg598 2.141 1_545 S
O605 C603 1.289 . S
O606 Mg598 2.048 . S
O606 C599 1.195 . S
O607 Mg598 2.048 . S
O607 C608 1.195 . S
C608 O607 1.195 . S
C608 O609 1.313 . S
O609 C608 1.313 . S
O610 Mg598 2.141 1_545 S
O610 C601 1.289 . S
Mg611 O618 2.141 . S
Mg611 O619 2.048 . S
Mg611 O620 2.048 . S
Mg611 O623 2.141 . S
C612 O613 1.313 . S
C612 O619 1.195 . S
O613 C612 1.313 . S
C614 O615 1.245 . S
C614 O623 1.289 . S
O615 C614 1.245 . S
C616 O617 1.245 . S
C616 O618 1.289 . S
O617 C616 1.245 . S
O618 Mg611 2.141 . S
O618 C616 1.289 . S
O619 Mg611 2.048 . S
O619 C612 1.195 . S
O620 Mg611 2.048 . S
O620 C621 1.195 . S
C621 O620 1.195 . S
C621 O622 1.313 . S
O622 C621 1.313 . S
O623 Mg611 2.141 . S
O623 C614 1.289 . S
H624 C642 0.951 . S
H625 C644 0.951 . S
H626 C646 0.950 . S
H627 C647 0.950 . S
H628 C649 0.950 . S
H629 C652 0.950 . S
H630 C653 0.950 . S
H631 C655 0.950 . S
H632 C656 0.950 . S
H633 C657 0.951 . S
H634 C659 0.951 . S
H635 C661 0.950 . S
H636 C662 0.950 . S
H637 C664 0.950 . S
H638 C667 0.950 . S
H639 C668 0.950 . S
H640 C670 0.950 . S
H641 C671 0.950 . S
C642 H624 0.951 . S
C642 C643 1.366 . S
C642 C644 1.388 . S
C643 C642 1.366 . S
C643 C647 1.385 . S
C644 H625 0.951 . S
C644 C642 1.388 . S
C644 C645 1.366 . S
C645 C644 1.366 . S
C645 C646 1.414 . S
C645 C648 1.499 . S
C646 H626 0.950 . S
C646 C645 1.414 . S
C646 C647 1.374 . S
C647 H627 0.950 . S
C647 C643 1.385 . S
C647 C646 1.374 . S
C648 C645 1.499 . S
C648 C649 1.373 . S
C648 C650 1.389 . S
C649 H628 0.950 . S
C649 C648 1.373 . S
C649 C665 1.377 . S
C650 C648 1.389 . S
C650 C651 1.524 . S
C650 C664 1.377 . S
C651 C650 1.524 . S
C651 C652 1.397 . S
C651 C656 1.363 . S
C652 H629 0.950 . S
C652 C651 1.397 . S
C652 C653 1.334 . S
C653 H630 0.950 . S
C653 C652 1.334 . S
C653 C654 1.287 . S
C654 C653 1.287 . S
C654 C655 1.524 . S
C654 H673 0.913 . S
C655 H631 0.950 . S
C655 C654 1.524 . S
C655 C656 1.415 . S
C656 H632 0.950 . S
C656 C651 1.363 . S
C656 C655 1.415 . S
C657 H633 0.951 . S
C657 C658 1.366 . S
C657 C659 1.388 . S
C658 C657 1.366 . S
C658 C662 1.385 . S
C659 H634 0.951 . S
C659 C657 1.388 . S
C659 C660 1.366 . S
C660 C659 1.366 . S
C660 C661 1.414 . S
C660 C663 1.499 . S
C661 H635 0.950 . S
C661 C660 1.414 . S
C661 C662 1.374 . S
C662 H636 0.950 . S
C662 C658 1.385 . S
C662 C661 1.374 . S
C663 C660 1.499 . S
C663 C664 1.373 . S
C663 C665 1.389 . S
C664 H637 0.950 . S
C664 C650 1.377 . S
C664 C663 1.373 . S
C665 C649 1.377 . S
C665 C663 1.389 . S
C665 C666 1.524 . S
C666 C665 1.524 . S
C666 C667 1.397 . S
C666 C671 1.363 . S
C667 H638 0.950 . S
C667 C666 1.397 . S
C667 C668 1.334 . S
C668 H639 0.950 . S
C668 C667 1.334 . S
C668 C669 1.287 . S
C669 C668 1.287 . S
C669 C670 1.524 . S
C669 H672 0.999 . S
C670 H640 0.950 . S
C670 C669 1.524 . S
C670 C671 1.415 . S
C671 H641 0.950 . S
C671 C666 1.363 . S
C671 C670 1.415 . S
H672 C669 0.999 . S
H673 C654 0.913 . S
H674 C692 0.951 . S
H675 C694 0.951 . S
H676 C696 0.950 . S
H677 C697 0.950 . S
H678 C699 0.950 . S
H679 C702 0.950 . S
H680 C703 0.950 . S
H681 C705 0.950 . S
H682 C706 0.950 . S
H683 C707 0.951 . S
H684 C709 0.951 . S
H685 C711 0.950 . S
H686 C712 0.950 . S
H687 C714 0.950 . S
H688 C717 0.950 . S
H689 C718 0.950 . S
H690 C720 0.950 . S
H691 C721 0.950 . S
C692 H674 0.951 . S
C692 C693 1.366 . S
C692 C694 1.388 . S
C693 C692 1.366 . S
C693 C697 1.385 . S
C694 H675 0.951 . S
C694 C692 1.388 . S
C694 C695 1.366 . S
C695 C694 1.366 . S
C695 C696 1.414 . S
C695 C698 1.499 . S
C696 H676 0.950 . S
C696 C695 1.414 . S
C696 C697 1.374 . S
C697 H677 0.950 . S
C697 C693 1.385 . S
C697 C696 1.374 . S
C698 C695 1.499 . S
C698 C699 1.373 1_554 S
C698 C700 1.389 . S
C699 H678 0.950 . S
C699 C698 1.373 1_556 S
C699 C715 1.377 . S
C700 C698 1.389 . S
C700 C701 1.524 . S
C700 C714 1.377 1_554 S
C701 C700 1.524 . S
C701 C702 1.397 . S
C701 C706 1.363 . S
C702 H679 0.950 . S
C702 C701 1.397 . S
C702 C703 1.334 . S
C703 H680 0.950 . S
C703 C702 1.334 . S
C703 C704 1.287 . S
C704 C703 1.287 . S
C704 C705 1.524 . S
C704 H723 0.913 . S
C705 H681 0.950 . S
C705 C704 1.524 . S
C705 C706 1.415 . S
C706 H682 0.950 . S
C706 C701 1.363 . S
C706 C705 1.415 . S
C707 H683 0.951 . S
C707 C708 1.366 . S
C707 C709 1.388 . S
C708 C707 1.366 . S
C708 C712 1.385 . S
C709 H684 0.951 . S
C709 C707 1.388 . S
C709 C710 1.366 . S
C710 C709 1.366 . S
C710 C711 1.414 . S
C710 C713 1.499 . S
C711 H685 0.950 . S
C711 C710 1.414 . S
C711 C712 1.374 . S
C712 H686 0.950 . S
C712 C708 1.385 . S
C712 C711 1.374 . S
C713 C710 1.499 . S
C713 C714 1.373 . S
C713 C715 1.389 . S
C714 H687 0.950 . S
C714 C700 1.377 1_556 S
C714 C713 1.373 . S
C715 C699 1.377 . S
C715 C713 1.389 . S
C715 C716 1.524 . S
C716 C715 1.524 . S
C716 C717 1.397 . S
C716 C721 1.363 . S
C717 H688 0.950 . S
C717 C716 1.397 . S
C717 C718 1.334 . S
C718 H689 0.950 . S
C718 C717 1.334 . S
C718 C719 1.287 . S
C719 C718 1.287 . S
C719 C720 1.524 . S
C719 H722 0.999 . S
C720 H690 0.950 . S
C720 C719 1.524 . S
C720 C721 1.415 . S
C721 H691 0.950 . S
C721 C716 1.363 . S
C721 C720 1.415 . S
H722 C719 0.999 . S
H723 C704 0.913 . S
H724 C742 0.951 . S
H725 C744 0.951 . S
H726 C746 0.950 . S
H727 C747 0.950 . S
H728 C749 0.950 . S
H729 C752 0.950 . S
H730 C753 0.950 . S
H731 C755 0.950 . S
H732 C756 0.950 . S
H733 C757 0.951 . S
H734 C759 0.951 . S
H735 C761 0.950 . S
H736 C762 0.950 . S
H737 C764 0.950 . S
H738 C767 0.950 . S
H739 C768 0.950 . S
H740 C770 0.950 . S
H741 C771 0.950 . S
C742 H724 0.951 . S
C742 C743 1.366 . S
C742 C744 1.388 . S
C743 C742 1.366 . S
C743 C747 1.385 . S
C744 H725 0.951 . S
C744 C742 1.388 . S
C744 C745 1.366 . S
C745 C744 1.366 . S
C745 C746 1.414 . S
C745 C748 1.499 . S
C746 H726 0.950 . S
C746 C745 1.414 . S
C746 C747 1.374 . S
C747 H727 0.950 . S
C747 C743 1.385 . S
C747 C746 1.374 . S
C748 C745 1.499 . S
C748 C749 1.373 . S
C748 C750 1.389 . S
C749 H728 0.950 . S
C749 C748 1.373 . S
C749 C765 1.377 . S
C750 C748 1.389 . S
C750 C751 1.524 . S
C750 C764 1.377 . S
C751 C750 1.524 . S
C751 C752 1.397 . S
C751 C756 1.363 . S
C752 H729 0.950 . S
C752 C751 1.397 . S
C752 C753 1.334 . S
C753 H730 0.950 . S
C753 C752 1.334 . S
C753 C754 1.287 . S
C754 C753 1.287 . S
C754 C755 1.524 . S
C754 H773 0.913 . S
C755 H731 0.950 . S
C755 C754 1.524 . S
C755 C756 1.415 . S
C756 H732 0.950 . S
C756 C751 1.363 . S
C756 C755 1.415 . S
C757 H733 0.951 . S
C757 C758 1.366 . S
C757 C759 1.388 . S
C758 C757 1.366 . S
C758 C762 1.385 . S
C759 H734 0.951 . S
C759 C757 1.388 . S
C759 C760 1.366 . S
C760 C759 1.366 . S
C760 C761 1.414 . S
C760 C763 1.499 . S
C761 H735 0.950 . S
C761 C760 1.414 . S
C761 C762 1.374 . S
C762 H736 0.950 . S
C762 C758 1.385 . S
C762 C761 1.374 . S
C763 C760 1.499 . S
C763 C764 1.373 . S
C763 C765 1.389 . S
C764 H737 0.950 . S
C764 C750 1.377 . S
C764 C763 1.373 . S
C765 C749 1.377 . S
C765 C763 1.389 . S
C765 C766 1.524 . S
C766 C765 1.524 . S
C766 C767 1.397 . S
C766 C771 1.363 . S
C767 H738 0.950 . S
C767 C766 1.397 . S
C767 C768 1.334 . S
C768 H739 0.950 . S
C768 C767 1.334 . S
C768 C769 1.287 . S
C769 C768 1.287 . S
C769 C770 1.524 . S
C769 H772 0.999 . S
C770 H740 0.950 . S
C770 C769 1.524 . S
C770 C771 1.415 . S
C771 H741 0.950 . S
C771 C766 1.363 . S
C771 C770 1.415 . S
H772 C769 0.999 . S
H773 C754 0.913 . S
H774 C792 0.951 . S
H775 C794 0.951 . S
H776 C796 0.950 . S
H777 C797 0.950 . S
H778 C799 0.950 . S
H779 C802 0.950 . S
H780 C803 0.950 . S
H781 C805 0.950 . S
H782 C806 0.950 . S
H783 C807 0.951 . S
H784 C809 0.951 . S
H785 C811 0.950 . S
H786 C812 0.950 . S
H787 C814 0.950 1_554 S
H788 C817 0.950 . S
H789 C818 0.950 . S
H790 C820 0.950 . S
H791 C821 0.950 . S
C792 H774 0.951 . S
C792 C793 1.366 . S
C792 C794 1.388 . S
C793 C792 1.366 . S
C793 C797 1.385 . S
C794 H775 0.951 . S
C794 C792 1.388 . S
C794 C795 1.366 . S
C795 C794 1.366 . S
C795 C796 1.414 . S
C795 C798 1.499 . S
C796 H776 0.950 . S
C796 C795 1.414 . S
C796 C797 1.374 . S
C797 H777 0.950 . S
C797 C793 1.385 . S
C797 C796 1.374 . S
C798 C795 1.499 . S
C798 C799 1.373 . S
C798 C800 1.389 . S
C799 H778 0.950 . S
C799 C798 1.373 . S
C799 C815 1.377 1_556 S
C800 C798 1.389 . S
C800 C801 1.524 . S
C800 C814 1.377 . S
C801 C800 1.524 . S
C801 C802 1.397 . S
C801 C806 1.363 . S
C802 H779 0.950 . S
C802 C801 1.397 . S
C802 C803 1.334 . S
C803 H780 0.950 . S
C803 C802 1.334 . S
C803 C804 1.287 . S
C804 C803 1.287 . S
C804 C805 1.524 . S
C804 H823 0.913 . S
C805 H781 0.950 . S
C805 C804 1.524 . S
C805 C806 1.415 . S
C806 H782 0.950 . S
C806 C801 1.363 . S
C806 C805 1.415 . S
C807 H783 0.951 . S
C807 C808 1.366 . S
C807 C809 1.388 . S
C808 C807 1.366 . S
C808 C812 1.385 . S
C809 H784 0.951 . S
C809 C807 1.388 . S
C809 C810 1.366 . S
C810 C809 1.366 . S
C810 C811 1.414 . S
C810 C813 1.499 . S
C811 H785 0.950 . S
C811 C810 1.414 . S
C811 C812 1.374 . S
C812 H786 0.950 . S
C812 C808 1.385 . S
C812 C811 1.374 . S
C813 C810 1.499 . S
C813 C814 1.373 1_554 S
C813 C815 1.389 . S
C814 H787 0.950 1_556 S
C814 C800 1.377 . S
C814 C813 1.373 1_556 S
C815 C799 1.377 1_554 S
C815 C813 1.389 . S
C815 C816 1.524 . S
C816 C815 1.524 . S
C816 C817 1.397 . S
C816 C821 1.363 . S
C817 H788 0.950 . S
C817 C816 1.397 . S
C817 C818 1.334 . S
C818 H789 0.950 . S
C818 C817 1.334 . S
C818 C819 1.287 . S
C819 C818 1.287 . S
C819 C820 1.524 . S
C819 H822 0.999 . S
C820 H790 0.950 . S
C820 C819 1.524 . S
C820 C821 1.415 . S
C821 H791 0.950 . S
C821 C816 1.363 . S
C821 C820 1.415 . S
H822 C819 0.999 . S
H823 C804 0.913 . S
H824 C842 0.951 . S
H825 C844 0.951 . S
H826 C846 0.950 . S
H827 C847 0.950 . S
H828 C849 0.950 . S
H829 C852 0.950 . S
H830 C853 0.950 . S
H831 C855 0.950 . S
H832 C856 0.950 . S
H833 C857 0.951 . S
H834 C859 0.951 . S
H835 C861 0.950 . S
H836 C862 0.950 . S
H837 C864 0.950 . S
H838 C867 0.950 . S
H839 C868 0.950 . S
H840 C870 0.950 . S
H841 C871 0.950 . S
C842 H824 0.951 . S
C842 C843 1.366 . S
C842 C844 1.388 . S
C843 C842 1.366 . S
C843 C847 1.385 . S
C844 H825 0.951 . S
C844 C842 1.388 . S
C844 C845 1.366 . S
C845 C844 1.366 . S
C845 C846 1.414 . S
C845 C848 1.499 . S
C846 H826 0.950 . S
C846 C845 1.414 . S
C846 C847 1.374 . S
C847 H827 0.950 . S
C847 C843 1.385 . S
C847 C846 1.374 . S
C848 C845 1.499 . S
C848 C849 1.373 . S
C848 C850 1.389 . S
C849 H828 0.950 . S
C849 C848 1.373 . S
C849 C865 1.377 . S
C850 C848 1.389 . S
C850 C851 1.524 . S
C850 C864 1.377 . S
C851 C850 1.524 . S
C851 C852 1.397 . S
C851 C856 1.363 . S
C852 H829 0.950 . S
C852 C851 1.397 . S
C852 C853 1.334 . S
C853 H830 0.950 . S
C853 C852 1.334 . S
C853 C854 1.287 . S
C854 C853 1.287 . S
C854 C855 1.524 . S
C854 H873 0.913 . S
C855 H831 0.950 . S
C855 C854 1.524 . S
C855 C856 1.415 . S
C856 H832 0.950 . S
C856 C851 1.363 . S
C856 C855 1.415 . S
C857 H833 0.951 . S
C857 C858 1.366 . S
C857 C859 1.388 . S
C858 C857 1.366 . S
C858 C862 1.385 . S
C859 H834 0.951 . S
C859 C857 1.388 . S
C859 C860 1.366 . S
C860 C859 1.366 . S
C860 C861 1.414 . S
C860 C863 1.499 . S
C861 H835 0.950 . S
C861 C860 1.414 . S
C861 C862 1.374 . S
C862 H836 0.950 . S
C862 C858 1.385 . S
C862 C861 1.374 . S
C863 C860 1.499 . S
C863 C864 1.373 . S
C863 C865 1.389 . S
C864 H837 0.950 . S
C864 C850 1.377 . S
C864 C863 1.373 . S
C865 C849 1.377 . S
C865 C863 1.389 . S
C865 C866 1.524 . S
C866 C865 1.524 . S
C866 C867 1.397 . S
C866 C871 1.363 . S
C867 H838 0.950 . S
C867 C866 1.397 . S
C867 C868 1.334 . S
C868 H839 0.950 . S
C868 C867 1.334 . S
C868 C869 1.287 . S
C869 C868 1.287 . S
C869 C870 1.524 . S
C869 H872 0.999 . S
C870 H840 0.950 . S
C870 C869 1.524 . S
C870 C871 1.415 . S
C871 H841 0.950 . S
C871 C866 1.363 . S
C871 C870 1.415 . S
H872 C869 0.999 . S
H873 C854 0.913 . S
H874 C892 0.951 . S
H875 C894 0.951 . S
H876 C896 0.950 . S
H877 C897 0.950 . S
H878 C899 0.950 . S
H879 C902 0.950 . S
H880 C903 0.950 . S
H881 C905 0.950 . S
H882 C906 0.950 . S
H883 C907 0.951 . S
H884 C909 0.951 . S
H885 C911 0.950 . S
H886 C912 0.950 . S
H887 C914 0.950 . S
H888 C917 0.950 . S
H889 C918 0.950 . S
H890 C920 0.950 . S
H891 C921 0.950 . S
C892 H874 0.951 . S
C892 C893 1.366 . S
C892 C894 1.388 . S
C893 C892 1.366 . S
C893 C897 1.385 . S
C894 H875 0.951 . S
C894 C892 1.388 . S
C894 C895 1.366 . S
C895 C894 1.366 . S
C895 C896 1.414 . S
C895 C898 1.499 . S
C896 H876 0.950 . S
C896 C895 1.414 . S
C896 C897 1.374 . S
C897 H877 0.950 . S
C897 C893 1.385 . S
C897 C896 1.374 . S
C898 C895 1.499 . S
C898 C899 1.373 . S
C898 C900 1.389 . S
C899 H878 0.950 . S
C899 C898 1.373 . S
C899 C915 1.377 1_554 S
C900 C898 1.389 . S
C900 C901 1.524 . S
C900 C914 1.377 . S
C901 C900 1.524 . S
C901 C902 1.397 . S
C901 C906 1.363 . S
C902 H879 0.950 . S
C902 C901 1.397 . S
C902 C903 1.334 . S
C903 H880 0.950 . S
C903 C902 1.334 . S
C903 C904 1.287 . S
C904 C903 1.287 . S
C904 C905 1.524 . S
C904 H923 0.913 . S
C905 H881 0.950 . S
C905 C904 1.524 . S
C905 C906 1.415 . S
C906 H882 0.950 . S
C906 C901 1.363 . S
C906 C905 1.415 . S
C907 H883 0.951 . S
C907 C908 1.366 . S
C907 C909 1.388 . S
C908 C907 1.366 . S
C908 C912 1.385 . S
C909 H884 0.951 . S
C909 C907 1.388 . S
C909 C910 1.366 . S
C910 C909 1.366 . S
C910 C911 1.414 . S
C910 C913 1.499 . S
C911 H885 0.950 . S
C911 C910 1.414 . S
C911 C912 1.374 . S
C912 H886 0.950 . S
C912 C908 1.385 . S
C912 C911 1.374 . S
C913 C910 1.499 . S
C913 C914 1.373 1_556 S
C913 C915 1.389 . S
C914 H887 0.950 . S
C914 C900 1.377 . S
C914 C913 1.373 1_554 S
C915 C899 1.377 1_556 S
C915 C913 1.389 . S
C915 C916 1.524 . S
C916 C915 1.524 . S
C916 C917 1.397 . S
C916 C921 1.363 . S
C917 H888 0.950 . S
C917 C916 1.397 . S
C917 C918 1.334 . S
C918 H889 0.950 . S
C918 C917 1.334 . S
C918 C919 1.287 . S
C919 C918 1.287 . S
C919 C920 1.524 . S
C919 H922 0.999 . S
C920 H890 0.950 . S
C920 C919 1.524 . S
C920 C921 1.415 . S
C921 H891 0.950 . S
C921 C916 1.363 . S
C921 C920 1.415 . S
H922 C919 0.999 . S
H923 C904 0.913 . S
H924 C942 0.951 . S
H925 C944 0.951 . S
H926 C946 0.950 . S
H927 C947 0.950 . S
H928 C949 0.950 . S
H929 C952 0.950 . S
H930 C953 0.950 . S
H931 C955 0.950 . S
H932 C956 0.950 . S
H933 C957 0.951 . S
H934 C959 0.951 . S
H935 C961 0.950 . S
H936 C962 0.950 . S
H937 C964 0.950 . S
H938 C967 0.950 . S
H939 C968 0.950 . S
H940 C970 0.950 . S
H941 C971 0.950 . S
C942 H924 0.951 . S
C942 C943 1.366 . S
C942 C944 1.388 . S
C943 C942 1.366 . S
C943 C947 1.385 . S
C944 H925 0.951 . S
C944 C942 1.388 . S
C944 C945 1.366 . S
C945 C944 1.366 . S
C945 C946 1.414 . S
C945 C948 1.499 . S
C946 H926 0.950 . S
C946 C945 1.414 . S
C946 C947 1.374 . S
C947 H927 0.950 . S
C947 C943 1.385 . S
C947 C946 1.374 . S
C948 C945 1.499 . S
C948 C949 1.373 . S
C948 C950 1.389 . S
C949 H928 0.950 . S
C949 C948 1.373 . S
C949 C965 1.377 . S
C950 C948 1.389 . S
C950 C951 1.524 . S
C950 C964 1.377 . S
C951 C950 1.524 . S
C951 C952 1.397 . S
C951 C956 1.363 . S
C952 H929 0.950 . S
C952 C951 1.397 . S
C952 C953 1.334 . S
C953 H930 0.950 . S
C953 C952 1.334 . S
C953 C954 1.287 . S
C954 C953 1.287 . S
C954 C955 1.524 . S
C954 H973 0.913 . S
C955 H931 0.950 . S
C955 C954 1.524 . S
C955 C956 1.415 . S
C956 H932 0.950 . S
C956 C951 1.363 . S
C956 C955 1.415 . S
C957 H933 0.951 . S
C957 C958 1.366 . S
C957 C959 1.388 . S
C958 C957 1.366 . S
C958 C962 1.385 . S
C959 H934 0.951 . S
C959 C957 1.388 . S
C959 C960 1.366 . S
C960 C959 1.366 . S
C960 C961 1.414 . S
C960 C963 1.499 . S
C961 H935 0.950 . S
C961 C960 1.414 . S
C961 C962 1.374 . S
C962 H936 0.950 . S
C962 C958 1.385 . S
C962 C961 1.374 . S
C963 C960 1.499 . S
C963 C964 1.373 . S
C963 C965 1.389 . S
C964 H937 0.950 . S
C964 C950 1.377 . S
C964 C963 1.373 . S
C965 C949 1.377 . S
C965 C963 1.389 . S
C965 C966 1.524 . S
C966 C965 1.524 . S
C966 C967 1.397 . S
C966 C971 1.363 . S
C967 H938 0.950 . S
C967 C966 1.397 . S
C967 C968 1.334 . S
C968 H939 0.950 . S
C968 C967 1.334 . S
C968 C969 1.287 . S
C969 C968 1.287 . S
C969 C970 1.524 . S
C969 H972 0.999 . S
C970 H940 0.950 . S
C970 C969 1.524 . S
C970 C971 1.415 . S
C971 H941 0.950 . S
C971 C966 1.363 . S
C971 C970 1.415 . S
H972 C969 0.999 . S
H973 C954 0.913 . S
H974 C992 0.951 . S
H975 C994 0.951 . S
H976 C996 0.950 . S
H977 C997 0.950 . S
H978 C999 0.950 . S
H979 C1002 0.950 . S
H980 C1003 0.950 . S
H981 C1005 0.950 . S
H982 C1006 0.950 . S
H983 C1007 0.951 . S
H984 C1009 0.951 . S
H985 C1011 0.950 . S
H986 C1012 0.950 . S
H987 C1014 0.950 . S
H988 C1017 0.950 . S
H989 C1018 0.947 1_655 S
H990 C1020 0.950 1_655 S
H991 C1021 0.950 . S
C992 H974 0.951 . S
C992 C993 1.366 . S
C992 C994 1.388 . S
C993 C992 1.366 . S
C993 C997 1.385 . S
C994 H975 0.951 . S
C994 C992 1.388 . S
C994 C995 1.366 . S
C995 C994 1.366 . S
C995 C996 1.414 . S
C995 C998 1.499 . S
C996 H976 0.950 . S
C996 C995 1.414 . S
C996 C997 1.374 . S
C997 H977 0.950 . S
C997 C993 1.385 . S
C997 C996 1.374 . S
C998 C995 1.499 . S
C998 C999 1.373 . S
C998 C1000 1.389 1_556 S
C999 H978 0.950 . S
C999 C998 1.373 . S
C999 C1015 1.377 1_556 S
C1000 C998 1.389 1_554 S
C1000 C1001 1.524 . S
C1000 C1014 1.377 . S
C1001 C1000 1.524 . S
C1001 C1002 1.397 1_554 S
C1001 C1006 1.363 . S
C1002 H979 0.950 . S
C1002 C1001 1.397 1_556 S
C1002 C1003 1.334 . S
C1003 H980 0.950 . S
C1003 C1002 1.334 . S
C1003 C1004 1.287 1_556 S
C1004 C1003 1.287 1_554 S
C1004 C1005 1.524 . S
C1004 H1023 0.913 . S
C1005 H981 0.950 . S
C1005 C1004 1.524 . S
C1005 C1006 1.415 . S
C1006 H982 0.950 . S
C1006 C1001 1.363 . S
C1006 C1005 1.415 . S
C1007 H983 0.951 . S
C1007 C1008 1.366 . S
C1007 C1009 1.388 . S
C1008 C1007 1.366 . S
C1008 C1012 1.385 . S
C1009 H984 0.951 . S
C1009 C1007 1.388 . S
C1009 C1010 1.366 . S
C1010 C1009 1.366 . S
C1010 C1011 1.414 . S
C1010 C1013 1.499 . S
C1011 H985 0.950 . S
C1011 C1010 1.414 . S
C1011 C1012 1.374 . S
C1012 H986 0.950 . S
C1012 C1008 1.385 . S
C1012 C1011 1.374 . S
C1013 C1010 1.499 . S
C1013 C1014 1.373 . S
C1013 C1015 1.389 . S
C1014 H987 0.950 . S
C1014 C1000 1.377 . S
C1014 C1013 1.373 . S
C1015 C999 1.377 1_554 S
C1015 C1013 1.389 . S
C1015 C1016 1.524 . S
C1016 C1015 1.524 . S
C1016 C1017 1.397 . S
C1016 C1021 1.363 1_554 S
C1017 H988 0.950 . S
C1017 C1016 1.397 . S
C1017 C1018 1.340 . S
C1018 H989 0.947 1_455 S
C1018 C1017 1.340 . S
C1018 C1019 1.284 1_455 S
C1019 C1018 1.284 1_655 S
C1019 C1020 1.524 1_654 S
C1019 H1022 0.999 . S
C1020 H990 0.950 1_455 S
C1020 C1019 1.524 1_456 S
C1020 C1021 1.415 . S
C1021 H991 0.950 . S
C1021 C1016 1.363 1_556 S
C1021 C1020 1.415 . S
H1022 C1019 0.999 . S
H1023 C1004 0.913 . S
H1024 C1042 0.951 . S
H1025 C1044 0.951 . S
H1026 C1046 0.950 . S
H1027 C1047 0.950 . S
H1028 C1049 0.950 . S
H1029 C1052 0.950 . S
H1030 C1053 0.950 . S
H1031 C1055 0.950 . S
H1032 C1056 0.950 . S
H1033 C1057 0.951 . S
H1034 C1059 0.951 . S
H1035 C1061 0.950 . S
H1036 C1062 0.950 . S
H1037 C1064 0.950 . S
H1038 C1067 0.950 . S
H1039 C1068 0.950 . S
H1040 C1070 0.950 . S
H1041 C1071 0.950 . S
C1042 H1024 0.951 . S
C1042 C1043 1.366 . S
C1042 C1044 1.388 . S
C1043 C1042 1.366 . S
C1043 C1047 1.385 . S
C1044 H1025 0.951 . S
C1044 C1042 1.388 . S
C1044 C1045 1.366 . S
C1045 C1044 1.366 . S
C1045 C1046 1.414 . S
C1045 C1048 1.499 . S
C1046 H1026 0.950 . S
C1046 C1045 1.414 . S
C1046 C1047 1.374 . S
C1047 H1027 0.950 . S
C1047 C1043 1.385 . S
C1047 C1046 1.374 . S
C1048 C1045 1.499 . S
C1048 C1049 1.373 . S
C1048 C1050 1.389 . S
C1049 H1028 0.950 . S
C1049 C1048 1.373 . S
C1049 C1065 1.377 . S
C1050 C1048 1.389 . S
C1050 C1051 1.524 . S
C1050 C1064 1.377 . S
C1051 C1050 1.524 . S
C1051 C1052 1.397 . S
C1051 C1056 1.363 . S
C1052 H1029 0.950 . S
C1052 C1051 1.397 . S
C1052 C1053 1.334 . S
C1053 H1030 0.950 . S
C1053 C1052 1.334 . S
C1053 C1054 1.287 . S
C1054 C1053 1.287 . S
C1054 C1055 1.524 . S
C1054 H1073 0.913 . S
C1055 H1031 0.950 . S
C1055 C1054 1.524 . S
C1055 C1056 1.415 . S
C1056 H1032 0.950 . S
C1056 C1051 1.363 . S
C1056 C1055 1.415 . S
C1057 H1033 0.951 . S
C1057 C1058 1.366 . S
C1057 C1059 1.388 . S
C1058 C1057 1.366 . S
C1058 C1062 1.385 . S
C1059 H1034 0.951 . S
C1059 C1057 1.388 . S
C1059 C1060 1.366 . S
C1060 C1059 1.366 . S
C1060 C1061 1.414 . S
C1060 C1063 1.499 . S
C1061 H1035 0.950 . S
C1061 C1060 1.414 . S
C1061 C1062 1.374 . S
C1062 H1036 0.950 . S
C1062 C1058 1.385 . S
C1062 C1061 1.374 . S
C1063 C1060 1.499 . S
C1063 C1064 1.373 . S
C1063 C1065 1.389 . S
C1064 H1037 0.950 . S
C1064 C1050 1.377 . S
C1064 C1063 1.373 . S
C1065 C1049 1.377 . S
C1065 C1063 1.389 . S
C1065 C1066 1.524 . S
C1066 C1065 1.524 . S
C1066 C1067 1.397 . S
C1066 C1071 1.363 . S
C1067 H1038 0.950 . S
C1067 C1066 1.397 . S
C1067 C1068 1.334 . S
C1068 H1039 0.950 . S
C1068 C1067 1.334 . S
C1068 C1069 1.287 . S
C1069 C1068 1.287 . S
C1069 C1070 1.524 . S
C1069 H1072 0.999 . S
C1070 H1040 0.950 . S
C1070 C1069 1.524 . S
C1070 C1071 1.415 . S
C1071 H1041 0.950 . S
C1071 C1066 1.363 . S
C1071 C1070 1.415 . S
H1072 C1069 0.999 . S
H1073 C1054 0.913 . S
H1074 C1092 0.951 . S
H1075 C1094 0.951 . S
H1076 C1096 0.950 . S
H1077 C1097 0.950 . S
H1078 C1099 0.950 . S
H1079 C1102 0.950 . S
H1080 C1103 0.950 . S
H1081 C1105 0.950 . S
H1082 C1106 0.950 . S
H1083 C1107 0.951 . S
H1084 C1109 0.951 . S
H1085 C1111 0.950 . S
H1086 C1112 0.950 . S
H1087 C1114 0.950 . S
H1088 C1117 0.950 . S
H1089 C1118 0.950 . S
H1090 C1120 0.950 1_554 S
H1091 C1121 0.950 . S
C1092 H1074 0.951 . S
C1092 C1093 1.366 . S
C1092 C1094 1.388 . S
C1093 C1092 1.366 . S
C1093 C1097 1.385 . S
C1094 H1075 0.951 . S
C1094 C1092 1.388 . S
C1094 C1095 1.366 . S
C1095 C1094 1.366 . S
C1095 C1096 1.414 . S
C1095 C1098 1.499 . S
C1096 H1076 0.950 . S
C1096 C1095 1.414 . S
C1096 C1097 1.374 . S
C1097 H1077 0.950 . S
C1097 C1093 1.385 . S
C1097 C1096 1.374 . S
C1098 C1095 1.499 . S
C1098 C1099 1.373 . S
C1098 C1100 1.389 . S
C1099 H1078 0.950 . S
C1099 C1098 1.373 . S
C1099 C1115 1.377 . S
C1100 C1098 1.389 . S
C1100 C1101 1.524 . S
C1100 C1114 1.377 . S
C1101 C1100 1.524 . S
C1101 C1102 1.397 . S
C1101 C1106 1.363 . S
C1102 H1079 0.950 . S
C1102 C1101 1.397 . S
C1102 C1103 1.334 . S
C1103 H1080 0.950 . S
C1103 C1102 1.334 . S
C1103 C1104 1.287 . S
C1104 C1103 1.287 . S
C1104 C1105 1.524 . S
C1104 H1123 0.913 . S
C1105 H1081 0.950 . S
C1105 C1104 1.524 . S
C1105 C1106 1.415 . S
C1106 H1082 0.950 . S
C1106 C1101 1.363 . S
C1106 C1105 1.415 . S
C1107 H1083 0.951 . S
C1107 C1108 1.366 . S
C1107 C1109 1.388 . S
C1108 C1107 1.366 . S
C1108 C1112 1.385 . S
C1109 H1084 0.951 . S
C1109 C1107 1.388 . S
C1109 C1110 1.366 . S
C1110 C1109 1.366 . S
C1110 C1111 1.414 . S
C1110 C1113 1.499 . S
C1111 H1085 0.950 . S
C1111 C1110 1.414 . S
C1111 C1112 1.374 . S
C1112 H1086 0.950 . S
C1112 C1108 1.385 . S
C1112 C1111 1.374 . S
C1113 C1110 1.499 . S
C1113 C1114 1.373 . S
C1113 C1115 1.389 . S
C1114 H1087 0.950 . S
C1114 C1100 1.377 . S
C1114 C1113 1.373 . S
C1115 C1099 1.377 . S
C1115 C1113 1.389 . S
C1115 C1116 1.524 . S
C1116 C1115 1.524 . S
C1116 C1117 1.397 . S
C1116 C1121 1.363 . S
C1117 H1088 0.950 . S
C1117 C1116 1.397 . S
C1117 C1118 1.334 . S
C1118 H1089 0.950 . S
C1118 C1117 1.334 . S
C1118 C1119 1.287 . S
C1119 C1118 1.287 . S
C1119 C1120 1.524 . S
C1119 H1122 0.999 1_556 S
C1120 H1090 0.950 1_556 S
C1120 C1119 1.524 . S
C1120 C1121 1.415 . S
C1121 H1091 0.950 . S
C1121 C1116 1.363 . S
C1121 C1120 1.415 . S
H1122 C1119 0.999 1_554 S
H1123 C1104 0.913 . S
H1124 C1142 0.951 . S
H1125 C1144 0.951 . S
H1126 C1146 0.950 . S
H1127 C1147 0.950 . S
H1128 C1149 0.950 . S
H1129 C1152 0.950 . S
H1130 C1153 0.950 . S
H1131 C1155 0.950 . S
H1132 C1156 0.950 . S
H1133 C1157 0.951 . S
H1134 C1159 0.951 . S
H1135 C1161 0.950 . S
H1136 C1162 0.950 . S
H1137 C1164 0.950 . S
H1138 C1167 0.950 . S
H1139 C1168 0.950 . S
H1140 C1170 0.950 . S
H1141 C1171 0.950 . S
C1142 H1124 0.951 . S
C1142 C1143 1.366 . S
C1142 C1144 1.388 . S
C1143 C1142 1.366 . S
C1143 C1147 1.385 . S
C1144 H1125 0.951 . S
C1144 C1142 1.388 . S
C1144 C1145 1.366 . S
C1145 C1144 1.366 . S
C1145 C1146 1.414 . S
C1145 C1148 1.499 . S
C1146 H1126 0.950 . S
C1146 C1145 1.414 . S
C1146 C1147 1.374 . S
C1147 H1127 0.950 . S
C1147 C1143 1.385 . S
C1147 C1146 1.374 . S
C1148 C1145 1.499 . S
C1148 C1149 1.373 . S
C1148 C1150 1.389 . S
C1149 H1128 0.950 . S
C1149 C1148 1.373 . S
C1149 C1165 1.377 . S
C1150 C1148 1.389 . S
C1150 C1151 1.524 . S
C1150 C1164 1.377 . S
C1151 C1150 1.524 . S
C1151 C1152 1.397 . S
C1151 C1156 1.363 . S
C1152 H1129 0.950 . S
C1152 C1151 1.397 . S
C1152 C1153 1.334 . S
C1153 H1130 0.950 . S
C1153 C1152 1.334 . S
C1153 C1154 1.287 . S
C1154 C1153 1.287 . S
C1154 C1155 1.524 . S
C1154 H1173 0.913 . S
C1155 H1131 0.950 . S
C1155 C1154 1.524 . S
C1155 C1156 1.415 . S
C1156 H1132 0.950 . S
C1156 C1151 1.363 . S
C1156 C1155 1.415 . S
C1157 H1133 0.951 . S
C1157 C1158 1.366 . S
C1157 C1159 1.388 . S
C1158 C1157 1.366 . S
C1158 C1162 1.385 . S
C1159 H1134 0.951 . S
C1159 C1157 1.388 . S
C1159 C1160 1.366 . S
C1160 C1159 1.366 . S
C1160 C1161 1.414 . S
C1160 C1163 1.499 . S
C1161 H1135 0.950 . S
C1161 C1160 1.414 . S
C1161 C1162 1.374 . S
C1162 H1136 0.950 . S
C1162 C1158 1.385 . S
C1162 C1161 1.374 . S
C1163 C1160 1.499 . S
C1163 C1164 1.373 . S
C1163 C1165 1.389 . S
C1164 H1137 0.950 . S
C1164 C1150 1.377 . S
C1164 C1163 1.373 . S
C1165 C1149 1.377 . S
C1165 C1163 1.389 . S
C1165 C1166 1.524 . S
C1166 C1165 1.524 . S
C1166 C1167 1.397 . S
C1166 C1171 1.363 . S
C1167 H1138 0.950 . S
C1167 C1166 1.397 . S
C1167 C1168 1.334 . S
C1168 H1139 0.950 . S
C1168 C1167 1.334 . S
C1168 C1169 1.287 . S
C1169 C1168 1.287 . S
C1169 C1170 1.524 . S
C1169 H1172 0.999 . S
C1170 H1140 0.950 . S
C1170 C1169 1.524 . S
C1170 C1171 1.415 . S
C1171 H1141 0.950 . S
C1171 C1166 1.363 . S
C1171 C1170 1.415 . S
H1172 C1169 0.999 . S
H1173 C1154 0.913 . S
H1174 C1192 0.951 . S
H1175 C1194 0.951 . S
H1176 C1196 0.950 . S
H1177 C1197 0.950 . S
H1178 C1199 0.950 . S
H1179 C1202 0.950 . S
H1180 C1203 0.950 . S
H1181 C1205 0.950 . S
H1182 C1206 0.950 . S
H1183 C1207 0.951 . S
H1184 C1209 0.951 . S
H1185 C1211 0.950 . S
H1186 C1212 0.950 . S
H1187 C1214 0.950 . S
H1188 C1217 0.950 . S
H1189 C1218 0.950 . S
H1190 C1220 0.950 . S
H1191 C1221 0.950 . S
C1192 H1174 0.951 . S
C1192 C1193 1.366 . S
C1192 C1194 1.388 . S
C1193 C1192 1.366 . S
C1193 C1197 1.385 . S
C1194 H1175 0.951 . S
C1194 C1192 1.388 . S
C1194 C1195 1.366 . S
C1195 C1194 1.366 . S
C1195 C1196 1.414 . S
C1195 C1198 1.499 . S
C1196 H1176 0.950 . S
C1196 C1195 1.414 . S
C1196 C1197 1.374 . S
C1197 H1177 0.950 . S
C1197 C1193 1.385 . S
C1197 C1196 1.374 . S
C1198 C1195 1.499 . S
C1198 C1199 1.373 1_565 S
C1198 C1200 1.389 . S
C1199 H1178 0.950 . S
C1199 C1198 1.373 1_545 S
C1199 C1215 1.377 . S
C1200 C1198 1.389 . S
C1200 C1201 1.524 . S
C1200 C1214 1.377 1_565 S
C1201 C1200 1.524 . S
C1201 C1202 1.397 . S
C1201 C1206 1.363 . S
C1202 H1179 0.950 . S
C1202 C1201 1.397 . S
C1202 C1203 1.334 . S
C1203 H1180 0.950 . S
C1203 C1202 1.334 . S
C1203 C1204 1.287 . S
C1204 C1203 1.287 . S
C1204 C1205 1.524 . S
C1204 H1223 0.913 . S
C1205 H1181 0.950 . S
C1205 C1204 1.524 . S
C1205 C1206 1.415 . S
C1206 H1182 0.950 . S
C1206 C1201 1.363 . S
C1206 C1205 1.415 . S
C1207 H1183 0.951 . S
C1207 C1208 1.366 . S
C1207 C1209 1.388 . S
C1208 C1207 1.366 . S
C1208 C1212 1.385 . S
C1209 H1184 0.951 . S
C1209 C1207 1.388 . S
C1209 C1210 1.366 . S
C1210 C1209 1.366 . S
C1210 C1211 1.414 . S
C1210 C1213 1.499 . S
C1211 H1185 0.950 . S
C1211 C1210 1.414 . S
C1211 C1212 1.374 . S
C1212 H1186 0.950 . S
C1212 C1208 1.385 . S
C1212 C1211 1.374 . S
C1213 C1210 1.499 . S
C1213 C1214 1.373 . S
C1213 C1215 1.389 . S
C1214 H1187 0.950 . S
C1214 C1200 1.377 1_545 S
C1214 C1213 1.373 . S
C1215 C1199 1.377 . S
C1215 C1213 1.389 . S
C1215 C1216 1.524 . S
C1216 C1215 1.524 . S
C1216 C1217 1.397 . S
C1216 C1221 1.363 . S
C1217 H1188 0.950 . S
C1217 C1216 1.397 . S
C1217 C1218 1.334 . S
C1218 H1189 0.950 . S
C1218 C1217 1.334 . S
C1218 C1219 1.287 . S
C1219 C1218 1.287 . S
C1219 C1220 1.524 . S
C1219 H1222 0.999 . S
C1220 H1190 0.950 . S
C1220 C1219 1.524 . S
C1220 C1221 1.415 . S
C1221 H1191 0.950 . S
C1221 C1216 1.363 . S
C1221 C1220 1.415 . S
H1222 C1219 0.999 . S
H1223 C1204 0.913 . S
H1224 C1242 0.951 . S
H1225 C1244 0.951 . S
H1226 C1246 0.950 . S
H1227 C1247 0.950 . S
H1228 C1249 0.950 . S
H1229 C1252 0.950 . S
H1230 C1253 0.950 . S
H1231 C1255 0.950 . S
H1232 C1256 0.950 . S
H1233 C1257 0.951 . S
H1234 C1259 0.951 . S
H1235 C1261 0.950 . S
H1236 C1262 0.950 . S
H1237 C1264 0.950 . S
H1238 C1267 0.950 . S
H1239 C1268 0.950 . S
H1240 C1270 0.950 . S
H1241 C1271 0.950 . S
C1242 H1224 0.951 . S
C1242 C1243 1.366 . S
C1242 C1244 1.388 . S
C1243 C1242 1.366 . S
C1243 C1247 1.385 . S
C1244 H1225 0.951 . S
C1244 C1242 1.388 . S
C1244 C1245 1.366 . S
C1245 C1244 1.366 . S
C1245 C1246 1.414 . S
C1245 C1248 1.499 . S
C1246 H1226 0.950 . S
C1246 C1245 1.414 . S
C1246 C1247 1.374 . S
C1247 H1227 0.950 . S
C1247 C1243 1.385 . S
C1247 C1246 1.374 . S
C1248 C1245 1.499 . S
C1248 C1249 1.373 . S
C1248 C1250 1.389 . S
C1249 H1228 0.950 . S
C1249 C1248 1.373 . S
C1249 C1265 1.377 . S
C1250 C1248 1.389 . S
C1250 C1251 1.524 . S
C1250 C1264 1.377 . S
C1251 C1250 1.524 . S
C1251 C1252 1.397 . S
C1251 C1256 1.363 . S
C1252 H1229 0.950 . S
C1252 C1251 1.397 . S
C1252 C1253 1.334 . S
C1253 H1230 0.950 . S
C1253 C1252 1.334 . S
C1253 C1254 1.287 . S
C1254 C1253 1.287 . S
C1254 C1255 1.524 . S
C1254 H1273 0.913 . S
C1255 H1231 0.950 . S
C1255 C1254 1.524 . S
C1255 C1256 1.415 . S
C1256 H1232 0.950 . S
C1256 C1251 1.363 . S
C1256 C1255 1.415 . S
C1257 H1233 0.951 . S
C1257 C1258 1.366 . S
C1257 C1259 1.388 . S
C1258 C1257 1.366 . S
C1258 C1262 1.385 . S
C1259 H1234 0.951 . S
C1259 C1257 1.388 . S
C1259 C1260 1.366 . S
C1260 C1259 1.366 . S
C1260 C1261 1.414 . S
C1260 C1263 1.499 . S
C1261 H1235 0.950 . S
C1261 C1260 1.414 . S
C1261 C1262 1.374 . S
C1262 H1236 0.950 . S
C1262 C1258 1.385 . S
C1262 C1261 1.374 . S
C1263 C1260 1.499 . S
C1263 C1264 1.373 . S
C1263 C1265 1.389 . S
C1264 H1237 0.950 . S
C1264 C1250 1.377 . S
C1264 C1263 1.373 . S
C1265 C1249 1.377 . S
C1265 C1263 1.389 . S
C1265 C1266 1.524 . S
C1266 C1265 1.524 . S
C1266 C1267 1.397 . S
C1266 C1271 1.363 . S
C1267 H1238 0.950 . S
C1267 C1266 1.397 . S
C1267 C1268 1.334 . S
C1268 H1239 0.950 . S
C1268 C1267 1.334 . S
C1268 C1269 1.287 . S
C1269 C1268 1.287 . S
C1269 C1270 1.524 . S
C1269 H1272 0.999 . S
C1270 H1240 0.950 . S
C1270 C1269 1.524 . S
C1270 C1271 1.415 . S
C1271 H1241 0.950 . S
C1271 C1266 1.363 . S
C1271 C1270 1.415 . S
H1272 C1269 0.999 . S
H1273 C1254 0.913 . S
H1274 C1292 0.951 . S
H1275 C1294 0.951 . S
H1276 C1296 0.950 . S
H1277 C1297 0.950 . S
H1278 C1299 0.950 . S
H1279 C1302 0.950 . S
H1280 C1303 0.950 1_556 S
H1281 C1305 0.950 1_655 S
H1282 C1306 0.950 . S
H1283 C1307 0.951 . S
H1284 C1309 0.951 . S
H1285 C1311 0.950 . S
H1286 C1312 0.950 . S
H1287 C1314 0.950 . S
H1288 C1317 0.950 . S
H1289 C1318 0.950 . S
H1290 C1320 0.950 . S
H1291 C1321 0.950 . S
C1292 H1274 0.951 . S
C1292 C1293 1.366 . S
C1292 C1294 1.388 . S
C1293 C1292 1.366 . S
C1293 C1297 1.385 . S
C1294 H1275 0.951 . S
C1294 C1292 1.388 . S
C1294 C1295 1.366 . S
C1295 C1294 1.366 . S
C1295 C1296 1.414 . S
C1295 C1298 1.499 . S
C1296 H1276 0.950 . S
C1296 C1295 1.414 . S
C1296 C1297 1.374 . S
C1297 H1277 0.950 . S
C1297 C1293 1.385 . S
C1297 C1296 1.374 . S
C1298 C1295 1.499 . S
C1298 C1299 1.373 . S
C1298 C1300 1.389 . S
C1299 H1278 0.950 . S
C1299 C1298 1.373 . S
C1299 C1315 1.377 . S
C1300 C1298 1.389 . S
C1300 C1301 1.524 . S
C1300 C1314 1.377 . S
C1301 C1300 1.524 . S
C1301 C1302 1.397 . S
C1301 C1306 1.363 . S
C1302 H1279 0.950 . S
C1302 C1301 1.397 . S
C1302 C1303 1.334 . S
C1303 H1280 0.950 1_554 S
C1303 C1302 1.334 . S
C1303 C1304 1.287 . S
C1304 C1303 1.287 . S
C1304 C1305 1.524 . S
C1304 H1323 0.913 1_554 S
C1305 H1281 0.950 1_455 S
C1305 C1304 1.524 . S
C1305 C1306 1.415 . S
C1306 H1282 0.950 . S
C1306 C1301 1.363 . S
C1306 C1305 1.415 . S
C1307 H1283 0.951 . S
C1307 C1308 1.366 . S
C1307 C1309 1.388 . S
C1308 C1307 1.366 . S
C1308 C1312 1.385 . S
C1309 H1284 0.951 . S
C1309 C1307 1.388 . S
C1309 C1310 1.366 . S
C1310 C1309 1.366 . S
C1310 C1311 1.414 . S
C1310 C1313 1.499 . S
C1311 H1285 0.950 . S
C1311 C1310 1.414 . S
C1311 C1312 1.374 . S
C1312 H1286 0.950 . S
C1312 C1308 1.385 . S
C1312 C1311 1.374 . S
C1313 C1310 1.499 . S
C1313 C1314 1.373 . S
C1313 C1315 1.389 . S
C1314 H1287 0.950 . S
C1314 C1300 1.377 . S
C1314 C1313 1.373 . S
C1315 C1299 1.377 . S
C1315 C1313 1.389 . S
C1315 C1316 1.524 . S
C1316 C1315 1.524 . S
C1316 C1317 1.397 . S
C1316 C1321 1.363 . S
C1317 H1288 0.950 . S
C1317 C1316 1.397 . S
C1317 C1318 1.334 . S
C1318 H1289 0.950 . S
C1318 C1317 1.334 . S
C1318 C1319 1.287 . S
C1319 C1318 1.287 . S
C1319 C1320 1.524 . S
C1319 H1322 0.999 . S
C1320 H1290 0.950 . S
C1320 C1319 1.524 . S
C1320 C1321 1.415 . S
C1321 H1291 0.950 . S
C1321 C1316 1.363 . S
C1321 C1320 1.415 . S
H1322 C1319 0.999 . S
H1323 C1304 0.913 1_556 S
H1324 C1342 0.951 . S
H1325 C1344 0.951 . S
H1326 C1346 0.950 . S
H1327 C1347 0.950 . S
H1328 C1349 0.950 . S
H1329 C1352 0.950 . S
H1330 C1353 0.950 . S
H1331 C1355 0.950 . S
H1332 C1356 0.950 . S
H1333 C1357 0.951 . S
H1334 C1359 0.951 . S
H1335 C1361 0.950 . S
H1336 C1362 0.950 . S
H1337 C1364 0.950 . S
H1338 C1367 0.950 . S
H1339 C1368 0.950 . S
H1340 C1370 0.950 . S
H1341 C1371 0.950 . S
C1342 H1324 0.951 . S
C1342 C1343 1.366 . S
C1342 C1344 1.388 . S
C1343 C1342 1.366 . S
C1343 C1347 1.385 . S
C1344 H1325 0.951 . S
C1344 C1342 1.388 . S
C1344 C1345 1.366 . S
C1345 C1344 1.366 . S
C1345 C1346 1.414 . S
C1345 C1348 1.499 . S
C1346 H1326 0.950 . S
C1346 C1345 1.414 . S
C1346 C1347 1.374 . S
C1347 H1327 0.950 . S
C1347 C1343 1.385 . S
C1347 C1346 1.374 . S
C1348 C1345 1.499 . S
C1348 C1349 1.373 . S
C1348 C1350 1.389 . S
C1349 H1328 0.950 . S
C1349 C1348 1.373 . S
C1349 C1365 1.377 . S
C1350 C1348 1.389 . S
C1350 C1351 1.524 . S
C1350 C1364 1.377 . S
C1351 C1350 1.524 . S
C1351 C1352 1.397 . S
C1351 C1356 1.363 . S
C1352 H1329 0.950 . S
C1352 C1351 1.397 . S
C1352 C1353 1.334 . S
C1353 H1330 0.950 . S
C1353 C1352 1.334 . S
C1353 C1354 1.287 . S
C1354 C1353 1.287 . S
C1354 C1355 1.524 . S
C1354 H1373 0.913 . S
C1355 H1331 0.950 . S
C1355 C1354 1.524 . S
C1355 C1356 1.415 . S
C1356 H1332 0.950 . S
C1356 C1351 1.363 . S
C1356 C1355 1.415 . S
C1357 H1333 0.951 . S
C1357 C1358 1.366 . S
C1357 C1359 1.388 . S
C1358 C1357 1.366 . S
C1358 C1362 1.385 . S
C1359 H1334 0.951 . S
C1359 C1357 1.388 . S
C1359 C1360 1.366 . S
C1360 C1359 1.366 . S
C1360 C1361 1.414 . S
C1360 C1363 1.499 . S
C1361 H1335 0.950 . S
C1361 C1360 1.414 . S
C1361 C1362 1.374 . S
C1362 H1336 0.950 . S
C1362 C1358 1.385 . S
C1362 C1361 1.374 . S
C1363 C1360 1.499 . S
C1363 C1364 1.373 . S
C1363 C1365 1.389 . S
C1364 H1337 0.950 . S
C1364 C1350 1.377 . S
C1364 C1363 1.373 . S
C1365 C1349 1.377 . S
C1365 C1363 1.389 . S
C1365 C1366 1.524 . S
C1366 C1365 1.524 . S
C1366 C1367 1.397 . S
C1366 C1371 1.363 . S
C1367 H1338 0.950 . S
C1367 C1366 1.397 . S
C1367 C1368 1.334 . S
C1368 H1339 0.950 . S
C1368 C1367 1.334 . S
C1368 C1369 1.287 . S
C1369 C1368 1.287 . S
C1369 C1370 1.524 . S
C1369 H1372 0.999 . S
C1370 H1340 0.950 . S
C1370 C1369 1.524 . S
C1370 C1371 1.415 . S
C1371 H1341 0.950 . S
C1371 C1366 1.363 . S
C1371 C1370 1.415 . S
H1372 C1369 0.999 . S
H1373 C1354 0.913 . S
H1374 C1392 0.951 . S
H1375 C1394 0.951 . S
H1376 C1396 0.950 . S
H1377 C1397 0.950 . S
H1378 C1399 0.950 . S
H1379 C1402 0.950 . S
H1380 C1403 0.950 . S
H1381 C1405 0.950 . S
H1382 C1406 0.950 . S
H1383 C1407 0.951 . S
H1384 C1409 0.951 . S
H1385 C1411 0.950 . S
H1386 C1412 0.950 . S
H1387 C1414 0.947 1_565 S
H1388 C1417 0.950 . S
H1389 C1418 0.950 . S
H1390 C1420 0.950 1_455 S
H1391 C1421 0.950 1_545 S
C1392 H1374 0.951 . S
C1392 C1393 1.366 . S
C1392 C1394 1.388 . S
C1393 C1392 1.366 . S
C1393 C1397 1.385 . S
C1394 H1375 0.951 . S
C1394 C1392 1.388 . S
C1394 C1395 1.366 . S
C1395 C1394 1.366 . S
C1395 C1396 1.414 . S
C1395 C1398 1.499 . S
C1396 H1376 0.950 . S
C1396 C1395 1.414 . S
C1396 C1397 1.374 . S
C1397 H1377 0.950 . S
C1397 C1393 1.385 . S
C1397 C1396 1.374 . S
C1398 C1395 1.499 . S
C1398 C1399 1.373 . S
C1398 C1400 1.389 . S
C1399 H1378 0.950 . S
C1399 C1398 1.373 . S
C1399 C1415 1.377 1_545 S
C1400 C1398 1.389 . S
C1400 C1401 1.524 . S
C1400 C1414 1.385 . S
C1401 C1400 1.524 . S
C1401 C1402 1.397 . S
C1401 C1406 1.363 . S
C1402 H1379 0.950 . S
C1402 C1401 1.397 . S
C1402 C1403 1.334 . S
C1403 H1380 0.950 . S
C1403 C1402 1.334 . S
C1403 C1404 1.287 . S
C1404 C1403 1.287 . S
C1404 C1405 1.524 . S
C1404 H1423 0.913 . S
C1405 H1381 0.950 . S
C1405 C1404 1.524 . S
C1405 C1406 1.415 . S
C1406 H1382 0.950 . S
C1406 C1401 1.363 . S
C1406 C1405 1.415 . S
C1407 H1383 0.951 . S
C1407 C1408 1.366 . S
C1407 C1409 1.388 . S
C1408 C1407 1.366 . S
C1408 C1412 1.385 . S
C1409 H1384 0.951 . S
C1409 C1407 1.388 . S
C1409 C1410 1.366 . S
C1410 C1409 1.366 . S
C1410 C1411 1.414 . S
C1410 C1413 1.499 . S
C1411 H1385 0.950 . S
C1411 C1410 1.414 . S
C1411 C1412 1.374 . S
C1412 H1386 0.950 . S
C1412 C1408 1.385 . S
C1412 C1411 1.374 . S
C1413 C1410 1.499 . S
C1413 C1414 1.368 1_565 S
C1413 C1415 1.389 . S
C1414 H1387 0.947 1_545 S
C1414 C1400 1.385 . S
C1414 C1413 1.368 1_545 S
C1415 C1399 1.377 1_565 S
C1415 C1413 1.389 . S
C1415 C1416 1.524 . S
C1416 C1415 1.524 . S
C1416 C1417 1.397 . S
C1416 C1421 1.363 . S
C1417 H1388 0.950 . S
C1417 C1416 1.397 . S
C1417 C1418 1.334 . S
C1418 H1389 0.950 . S
C1418 C1417 1.334 . S
C1418 C1419 1.287 . S
C1419 C1418 1.287 . S
C1419 C1420 1.524 . S
C1419 H1422 0.999 . S
C1420 H1390 0.950 1_655 S
C1420 C1419 1.524 . S
C1420 C1421 1.415 . S
C1421 H1391 0.950 1_565 S
C1421 C1416 1.363 . S
C1421 C1420 1.415 . S
H1422 C1419 0.999 . S
H1423 C1404 0.913 . S
H1424 C1442 0.951 . S
H1425 C1444 0.951 . S
H1426 C1446 0.950 . S
H1427 C1447 0.950 . S
H1428 C1449 0.950 . S
H1429 C1452 0.950 . S
H1430 C1453 0.950 . S
H1431 C1455 0.950 . S
H1432 C1456 0.950 . S
H1433 C1457 0.951 . S
H1434 C1459 0.951 . S
H1435 C1461 0.950 . S
H1436 C1462 0.950 . S
H1437 C1464 0.950 . S
H1438 C1467 0.950 . S
H1439 C1468 0.950 . S
H1440 C1470 0.950 . S
H1441 C1471 0.950 . S
C1442 H1424 0.951 . S
C1442 C1443 1.366 . S
C1442 C1444 1.388 . S
C1443 C1442 1.366 . S
C1443 C1447 1.385 . S
C1444 H1425 0.951 . S
C1444 C1442 1.388 . S
C1444 C1445 1.366 . S
C1445 C1444 1.366 . S
C1445 C1446 1.414 . S
C1445 C1448 1.499 . S
C1446 H1426 0.950 . S
C1446 C1445 1.414 . S
C1446 C1447 1.374 . S
C1447 H1427 0.950 . S
C1447 C1443 1.385 . S
C1447 C1446 1.374 . S
C1448 C1445 1.499 . S
C1448 C1449 1.373 . S
C1448 C1450 1.389 . S
C1449 H1428 0.950 . S
C1449 C1448 1.373 . S
C1449 C1465 1.377 . S
C1450 C1448 1.389 . S
C1450 C1451 1.524 . S
C1450 C1464 1.377 . S
C1451 C1450 1.524 . S
C1451 C1452 1.397 . S
C1451 C1456 1.363 . S
C1452 H1429 0.950 . S
C1452 C1451 1.397 . S
C1452 C1453 1.334 . S
C1453 H1430 0.950 . S
C1453 C1452 1.334 . S
C1453 C1454 1.287 . S
C1454 C1453 1.287 . S
C1454 C1455 1.524 . S
C1454 H1473 0.913 . S
C1455 H1431 0.950 . S
C1455 C1454 1.524 . S
C1455 C1456 1.415 . S
C1456 H1432 0.950 . S
C1456 C1451 1.363 . S
C1456 C1455 1.415 . S
C1457 H1433 0.951 . S
C1457 C1458 1.366 . S
C1457 C1459 1.388 . S
C1458 C1457 1.366 . S
C1458 C1462 1.385 . S
C1459 H1434 0.951 . S
C1459 C1457 1.388 . S
C1459 C1460 1.366 . S
C1460 C1459 1.366 . S
C1460 C1461 1.414 . S
C1460 C1463 1.499 . S
C1461 H1435 0.950 . S
C1461 C1460 1.414 . S
C1461 C1462 1.374 . S
C1462 H1436 0.950 . S
C1462 C1458 1.385 . S
C1462 C1461 1.374 . S
C1463 C1460 1.499 . S
C1463 C1464 1.373 . S
C1463 C1465 1.389 . S
C1464 H1437 0.950 . S
C1464 C1450 1.377 . S
C1464 C1463 1.373 . S
C1465 C1449 1.377 . S
C1465 C1463 1.389 . S
C1465 C1466 1.524 . S
C1466 C1465 1.524 . S
C1466 C1467 1.397 . S
C1466 C1471 1.363 . S
C1467 H1438 0.950 . S
C1467 C1466 1.397 . S
C1467 C1468 1.334 . S
C1468 H1439 0.950 . S
C1468 C1467 1.334 . S
C1468 C1469 1.287 . S
C1469 C1468 1.287 . S
C1469 C1470 1.524 . S
C1469 H1472 0.999 . S
C1470 H1440 0.950 . S
C1470 C1469 1.524 . S
C1470 C1471 1.415 . S
C1471 H1441 0.950 . S
C1471 C1466 1.363 . S
C1471 C1470 1.415 . S
H1472 C1469 0.999 . S
H1473 C1454 0.913 . S
H1474 C1492 0.951 . S
H1475 C1494 0.951 . S
H1476 C1496 0.950 . S
H1477 C1497 0.950 . S
H1478 C1499 0.950 . S
H1479 C1502 0.950 . S
H1480 C1503 0.950 . S
H1481 C1505 0.950 . S
H1482 C1506 0.950 . S
H1483 C1507 0.951 . S
H1484 C1509 0.951 . S
H1485 C1511 0.950 . S
H1486 C1512 0.950 . S
H1487 C1514 0.950 . S
H1488 C1517 0.950 . S
H1489 C1518 0.950 . S
H1490 C1520 0.950 . S
H1491 C1521 0.950 . S
C1492 H1474 0.951 . S
C1492 C1493 1.366 . S
C1492 C1494 1.388 . S
C1493 C1492 1.366 . S
C1493 C1497 1.385 . S
C1494 H1475 0.951 . S
C1494 C1492 1.388 . S
C1494 C1495 1.366 . S
C1495 C1494 1.366 . S
C1495 C1496 1.414 . S
C1495 C1498 1.499 . S
C1496 H1476 0.950 . S
C1496 C1495 1.414 . S
C1496 C1497 1.374 . S
C1497 H1477 0.950 . S
C1497 C1493 1.385 . S
C1497 C1496 1.374 . S
C1498 C1495 1.499 . S
C1498 C1499 1.373 . S
C1498 C1500 1.389 . S
C1499 H1478 0.950 . S
C1499 C1498 1.373 . S
C1499 C1515 1.377 . S
C1500 C1498 1.389 . S
C1500 C1501 1.524 . S
C1500 C1514 1.377 . S
C1501 C1500 1.524 . S
C1501 C1502 1.397 . S
C1501 C1506 1.363 . S
C1502 H1479 0.950 . S
C1502 C1501 1.397 . S
C1502 C1503 1.334 . S
C1503 H1480 0.950 . S
C1503 C1502 1.334 . S
C1503 C1504 1.287 . S
C1504 C1503 1.287 . S
C1504 C1505 1.524 . S
C1504 H1523 0.913 . S
C1505 H1481 0.950 . S
C1505 C1504 1.524 . S
C1505 C1506 1.415 . S
C1506 H1482 0.950 . S
C1506 C1501 1.363 . S
C1506 C1505 1.415 . S
C1507 H1483 0.951 . S
C1507 C1508 1.366 . S
C1507 C1509 1.388 . S
C1508 C1507 1.366 . S
C1508 C1512 1.385 . S
C1509 H1484 0.951 . S
C1509 C1507 1.388 . S
C1509 C1510 1.366 . S
C1510 C1509 1.366 . S
C1510 C1511 1.414 . S
C1510 C1513 1.499 . S
C1511 H1485 0.950 . S
C1511 C1510 1.414 . S
C1511 C1512 1.374 . S
C1512 H1486 0.950 . S
C1512 C1508 1.385 . S
C1512 C1511 1.374 . S
C1513 C1510 1.499 . S
C1513 C1514 1.373 . S
C1513 C1515 1.389 . S
C1514 H1487 0.950 . S
C1514 C1500 1.377 . S
C1514 C1513 1.373 . S
C1515 C1499 1.377 . S
C1515 C1513 1.389 . S
C1515 C1516 1.524 . S
C1516 C1515 1.524 . S
C1516 C1517 1.397 . S
C1516 C1521 1.363 . S
C1517 H1488 0.950 . S
C1517 C1516 1.397 . S
C1517 C1518 1.334 . S
C1518 H1489 0.950 . S
C1518 C1517 1.334 . S
C1518 C1519 1.287 . S
C1519 C1518 1.287 . S
C1519 C1520 1.524 . S
C1519 H1522 0.999 . S
C1520 H1490 0.950 . S
C1520 C1519 1.524 . S
C1520 C1521 1.415 . S
C1521 H1491 0.950 . S
C1521 C1516 1.363 . S
C1521 C1520 1.415 . S
H1522 C1519 0.999 . S
H1523 C1504 0.913 . S
H1524 C1542 0.951 . S
H1525 C1544 0.951 . S
H1526 C1546 0.950 . S
H1527 C1547 0.950 . S
H1528 C1549 0.950 . S
H1529 C1552 0.950 . S
H1530 C1553 0.950 . S
H1531 C1555 0.950 . S
H1532 C1556 0.974 . S
H1533 C1557 0.951 . S
H1534 C1559 0.951 . S
H1535 C1561 0.950 . S
H1536 C1562 0.950 . S
H1537 C1564 0.950 . S
H1538 C1567 0.950 . S
H1539 C1568 1.001 . S
H1540 C1570 0.950 . S
H1541 C1571 0.950 . S
C1542 H1524 0.951 . S
C1542 C1543 1.366 . S
C1542 C1544 1.388 . S
C1543 C1542 1.366 . S
C1543 C1547 1.385 . S
C1544 H1525 0.951 . S
C1544 C1542 1.388 . S
C1544 C1545 1.366 . S
C1545 C1544 1.366 . S
C1545 C1546 1.414 . S
C1545 C1548 1.499 . S
C1546 H1526 0.950 . S
C1546 C1545 1.414 . S
C1546 C1547 1.374 . S
C1547 H1527 0.950 . S
C1547 C1543 1.385 . S
C1547 C1546 1.374 . S
C1548 C1545 1.499 . S
C1548 C1549 1.373 . S
C1548 C1550 1.389 . S
C1549 H1528 0.950 . S
C1549 C1548 1.373 . S
C1549 C1565 1.377 . S
C1550 C1548 1.389 . S
C1550 C1551 1.524 . S
C1550 C1564 1.377 1_655 S
C1551 C1550 1.524 . S
C1551 C1552 1.397 . S
C1551 C1556 1.340 1_655 S
C1552 H1529 0.950 . S
C1552 C1551 1.397 . S
C1552 C1553 1.334 . S
C1553 H1530 0.950 . S
C1553 C1552 1.334 . S
C1553 C1554 1.287 . S
C1554 C1553 1.287 . S
C1554 C1555 1.524 1_655 S
C1554 H1573 0.913 . S
C1555 H1531 0.950 . S
C1555 C1554 1.524 1_455 S
C1555 C1556 1.417 . S
C1556 H1532 0.974 . S
C1556 C1551 1.340 1_455 S
C1556 C1555 1.417 . S
C1557 H1533 0.951 . S
C1557 C1558 1.366 . S
C1557 C1559 1.388 . S
C1558 C1557 1.366 . S
C1558 C1562 1.385 . S
C1559 H1534 0.951 . S
C1559 C1557 1.388 . S
C1559 C1560 1.366 . S
C1560 C1559 1.366 . S
C1560 C1561 1.414 . S
C1560 C1563 1.499 . S
C1561 H1535 0.950 . S
C1561 C1560 1.414 . S
C1561 C1562 1.374 . S
C1562 H1536 0.950 . S
C1562 C1558 1.385 . S
C1562 C1561 1.374 . S
C1563 C1560 1.499 . S
C1563 C1564 1.373 . S
C1563 C1565 1.389 1_455 S
C1564 H1537 0.950 . S
C1564 C1550 1.377 1_455 S
C1564 C1563 1.373 . S
C1565 C1549 1.377 . S
C1565 C1563 1.389 1_655 S
C1565 C1566 1.524 . S
C1566 C1565 1.524 . S
C1566 C1567 1.397 1_655 S
C1566 C1571 1.363 . S
C1567 H1538 0.950 . S
C1567 C1566 1.397 1_455 S
C1567 C1568 1.291 1_556 S
C1568 H1539 1.001 . S
C1568 C1567 1.291 1_554 S
C1568 C1569 1.280 1_454 S
C1569 C1568 1.280 1_656 S
C1569 C1570 1.524 . S
C1569 H1572 0.999 1_556 S
C1570 H1540 0.950 . S
C1570 C1569 1.524 . S
C1570 C1571 1.415 . S
C1571 H1541 0.950 . S
C1571 C1566 1.363 . S
C1571 C1570 1.415 . S
H1572 C1569 0.999 1_554 S
H1573 C1554 0.913 . S
H1574 C1592 0.951 . S
H1575 C1594 0.951 . S
H1576 C1596 0.950 . S
H1577 C1597 0.950 . S
H1578 C1599 0.950 . S
H1579 C1602 0.950 . S
H1580 C1603 0.950 . S
H1581 C1605 0.950 . S
H1582 C1606 0.950 . S
H1583 C1607 0.951 . S
H1584 C1609 0.951 . S
H1585 C1611 0.950 . S
H1586 C1612 0.950 . S
H1587 C1614 0.950 . S
H1588 C1617 0.950 . S
H1589 C1618 0.950 . S
H1590 C1620 0.950 . S
H1591 C1621 0.950 . S
C1592 H1574 0.951 . S
C1592 C1593 1.366 . S
C1592 C1594 1.388 . S
C1593 C1592 1.366 . S
C1593 C1597 1.385 . S
C1594 H1575 0.951 . S
C1594 C1592 1.388 . S
C1594 C1595 1.366 . S
C1595 C1594 1.366 . S
C1595 C1596 1.414 . S
C1595 C1598 1.499 . S
C1596 H1576 0.950 . S
C1596 C1595 1.414 . S
C1596 C1597 1.374 . S
C1597 H1577 0.950 . S
C1597 C1593 1.385 . S
C1597 C1596 1.374 . S
C1598 C1595 1.499 . S
C1598 C1599 1.373 . S
C1598 C1600 1.389 . S
C1599 H1578 0.950 . S
C1599 C1598 1.373 . S
C1599 C1615 1.377 . S
C1600 C1598 1.389 . S
C1600 C1601 1.524 . S
C1600 C1614 1.377 . S
C1601 C1600 1.524 . S
C1601 C1602 1.397 . S
C1601 C1606 1.363 . S
C1602 H1579 0.950 . S
C1602 C1601 1.397 . S
C1602 C1603 1.334 . S
C1603 H1580 0.950 . S
C1603 C1602 1.334 . S
C1603 C1604 1.287 . S
C1604 C1603 1.287 . S
C1604 C1605 1.524 . S
C1604 H1623 0.913 . S
C1605 H1581 0.950 . S
C1605 C1604 1.524 . S
C1605 C1606 1.415 . S
C1606 H1582 0.950 . S
C1606 C1601 1.363 . S
C1606 C1605 1.415 . S
C1607 H1583 0.951 . S
C1607 C1608 1.366 . S
C1607 C1609 1.388 . S
C1608 C1607 1.366 . S
C1608 C1612 1.385 . S
C1609 H1584 0.951 . S
C1609 C1607 1.388 . S
C1609 C1610 1.366 . S
C1610 C1609 1.366 . S
C1610 C1611 1.414 . S
C1610 C1613 1.499 . S
C1611 H1585 0.950 . S
C1611 C1610 1.414 . S
C1611 C1612 1.374 . S
C1612 H1586 0.950 . S
C1612 C1608 1.385 . S
C1612 C1611 1.374 . S
C1613 C1610 1.499 . S
C1613 C1614 1.373 . S
C1613 C1615 1.389 . S
C1614 H1587 0.950 . S
C1614 C1600 1.377 . S
C1614 C1613 1.373 . S
C1615 C1599 1.377 . S
C1615 C1613 1.389 . S
C1615 C1616 1.524 . S
C1616 C1615 1.524 . S
C1616 C1617 1.397 . S
C1616 C1621 1.363 . S
C1617 H1588 0.950 . S
C1617 C1616 1.397 . S
C1617 C1618 1.334 . S
C1618 H1589 0.950 . S
C1618 C1617 1.334 . S
C1618 C1619 1.287 . S
C1619 C1618 1.287 . S
C1619 C1620 1.524 . S
C1619 H1622 0.999 . S
C1620 H1590 0.950 . S
C1620 C1619 1.524 . S
C1620 C1621 1.415 . S
C1621 H1591 0.950 . S
C1621 C1616 1.363 . S
C1621 C1620 1.415 . S
H1622 C1619 0.999 . S
H1623 C1604 0.913 . S
H1624 C1642 0.951 . S
H1625 C1644 0.951 . S
H1626 C1646 0.950 . S
H1627 C1647 0.950 . S
H1628 C1649 0.950 . S
H1629 C1652 0.950 . S
H1630 C1653 0.950 . S
H1631 C1655 0.950 . S
H1632 C1656 0.950 . S
H1633 C1657 0.951 . S
H1634 C1659 0.951 . S
H1635 C1661 0.950 . S
H1636 C1662 0.950 . S
H1637 C1664 0.950 . S
H1638 C1667 0.950 . S
H1639 C1668 0.950 . S
H1640 C1670 0.950 . S
H1641 C1671 0.950 . S
C1642 H1624 0.951 . S
C1642 C1643 1.366 . S
C1642 C1644 1.388 . S
C1643 C1642 1.366 . S
C1643 C1647 1.385 . S
C1644 H1625 0.951 . S
C1644 C1642 1.388 . S
C1644 C1645 1.366 . S
C1645 C1644 1.366 . S
C1645 C1646 1.414 . S
C1645 C1648 1.499 . S
C1646 H1626 0.950 . S
C1646 C1645 1.414 . S
C1646 C1647 1.374 . S
C1647 H1627 0.950 . S
C1647 C1643 1.385 . S
C1647 C1646 1.374 . S
C1648 C1645 1.499 . S
C1648 C1649 1.373 . S
C1648 C1650 1.389 . S
C1649 H1628 0.950 . S
C1649 C1648 1.373 . S
C1649 C1665 1.377 . S
C1650 C1648 1.389 . S
C1650 C1651 1.524 . S
C1650 C1664 1.377 . S
C1651 C1650 1.524 . S
C1651 C1652 1.397 . S
C1651 C1656 1.363 . S
C1652 H1629 0.950 . S
C1652 C1651 1.397 . S
C1652 C1653 1.334 . S
C1653 H1630 0.950 . S
C1653 C1652 1.334 . S
C1653 C1654 1.287 . S
C1654 C1653 1.287 . S
C1654 C1655 1.524 . S
C1654 H1673 0.913 . S
C1655 H1631 0.950 . S
C1655 C1654 1.524 . S
C1655 C1656 1.415 . S
C1656 H1632 0.950 . S
C1656 C1651 1.363 . S
C1656 C1655 1.415 . S
C1657 H1633 0.951 . S
C1657 C1658 1.366 . S
C1657 C1659 1.388 . S
C1658 C1657 1.366 . S
C1658 C1662 1.385 . S
C1659 H1634 0.951 . S
C1659 C1657 1.388 . S
C1659 C1660 1.366 . S
C1660 C1659 1.366 . S
C1660 C1661 1.414 . S
C1660 C1663 1.499 . S
C1661 H1635 0.950 . S
C1661 C1660 1.414 . S
C1661 C1662 1.374 . S
C1662 H1636 0.950 . S
C1662 C1658 1.385 . S
C1662 C1661 1.374 . S
C1663 C1660 1.499 . S
C1663 C1664 1.373 . S
C1663 C1665 1.389 . S
C1664 H1637 0.950 . S
C1664 C1650 1.377 . S
C1664 C1663 1.373 . S
C1665 C1649 1.377 . S
C1665 C1663 1.389 . S
C1665 C1666 1.524 . S
C1666 C1665 1.524 . S
C1666 C1667 1.397 . S
C1666 C1671 1.363 . S
C1667 H1638 0.950 . S
C1667 C1666 1.397 . S
C1667 C1668 1.334 . S
C1668 H1639 0.950 . S
C1668 C1667 1.334 . S
C1668 C1669 1.287 . S
C1669 C1668 1.287 . S
C1669 C1670 1.524 . S
C1669 H1672 0.999 . S
C1670 H1640 0.950 . S
C1670 C1669 1.524 . S
C1670 C1671 1.415 . S
C1671 H1641 0.950 . S
C1671 C1666 1.363 . S
C1671 C1670 1.415 . S
H1672 C1669 0.999 . S
H1673 C1654 0.913 . S
H1674 C1692 0.951 . S
H1675 C1694 0.951 . S
H1676 C1696 0.950 . S
H1677 C1697 0.950 . S
H1678 C1699 0.950 . S
H1679 C1702 0.950 . S
H1680 C1703 0.950 . S
H1681 C1705 0.950 . S
H1682 C1706 0.950 . S
H1683 C1707 0.951 . S
H1684 C1709 0.951 . S
H1685 C1711 0.950 . S
H1686 C1712 0.950 . S
H1687 C1714 0.950 . S
H1688 C1717 0.950 . S
H1689 C1718 0.950 . S
H1690 C1720 0.950 . S
H1691 C1721 0.950 . S
C1692 H1674 0.951 . S
C1692 C1693 1.366 . S
C1692 C1694 1.388 . S
C1693 C1692 1.366 . S
C1693 C1697 1.385 . S
C1694 H1675 0.951 . S
C1694 C1692 1.388 . S
C1694 C1695 1.366 . S
C1695 C1694 1.366 . S
C1695 C1696 1.414 . S
C1695 C1698 1.499 . S
C1696 H1676 0.950 . S
C1696 C1695 1.414 . S
C1696 C1697 1.374 . S
C1697 H1677 0.950 . S
C1697 C1693 1.385 . S
C1697 C1696 1.374 . S
C1698 C1695 1.499 . S
C1698 C1699 1.373 . S
C1698 C1700 1.389 . S
C1699 H1678 0.950 . S
C1699 C1698 1.373 . S
C1699 C1715 1.377 . S
C1700 C1698 1.389 . S
C1700 C1701 1.524 . S
C1700 C1714 1.377 . S
C1701 C1700 1.524 . S
C1701 C1702 1.397 . S
C1701 C1706 1.363 . S
C1702 H1679 0.950 . S
C1702 C1701 1.397 . S
C1702 C1703 1.334 . S
C1703 H1680 0.950 . S
C1703 C1702 1.334 . S
C1703 C1704 1.287 . S
C1704 C1703 1.287 . S
C1704 C1705 1.524 . S
C1704 H1723 0.913 . S
C1705 H1681 0.950 . S
C1705 C1704 1.524 . S
C1705 C1706 1.415 . S
C1706 H1682 0.950 . S
C1706 C1701 1.363 . S
C1706 C1705 1.415 . S
C1707 H1683 0.951 . S
C1707 C1708 1.366 . S
C1707 C1709 1.388 . S
C1708 C1707 1.366 . S
C1708 C1712 1.385 . S
C1709 H1684 0.951 . S
C1709 C1707 1.388 . S
C1709 C1710 1.366 . S
C1710 C1709 1.366 . S
C1710 C1711 1.414 . S
C1710 C1713 1.499 . S
C1711 H1685 0.950 . S
C1711 C1710 1.414 . S
C1711 C1712 1.374 . S
C1712 H1686 0.950 . S
C1712 C1708 1.385 . S
C1712 C1711 1.374 . S
C1713 C1710 1.499 . S
C1713 C1714 1.373 . S
C1713 C1715 1.389 . S
C1714 H1687 0.950 . S
C1714 C1700 1.377 . S
C1714 C1713 1.373 . S
C1715 C1699 1.377 . S
C1715 C1713 1.389 . S
C1715 C1716 1.524 . S
C1716 C1715 1.524 . S
C1716 C1717 1.397 . S
C1716 C1721 1.363 . S
C1717 H1688 0.950 . S
C1717 C1716 1.397 . S
C1717 C1718 1.334 . S
C1718 H1689 0.950 . S
C1718 C1717 1.334 . S
C1718 C1719 1.287 . S
C1719 C1718 1.287 . S
C1719 C1720 1.524 . S
C1719 H1722 0.999 . S
C1720 H1690 0.950 . S
C1720 C1719 1.524 . S
C1720 C1721 1.415 . S
C1721 H1691 0.950 . S
C1721 C1716 1.363 . S
C1721 C1720 1.415 . S
H1722 C1719 0.999 . S
H1723 C1704 0.913 . S
H1724 C1742 0.951 . S
H1725 C1744 0.951 . S
H1726 C1746 0.950 . S
H1727 C1747 0.950 . S
H1728 C1749 0.950 . S
H1729 C1752 0.950 . S
H1730 C1753 0.950 . S
H1731 C1755 0.950 . S
H1732 C1756 0.950 . S
H1733 C1757 0.951 . S
H1734 C1759 0.951 . S
H1735 C1761 0.950 . S
H1736 C1762 0.950 . S
H1737 C1764 0.950 . S
H1738 C1767 0.950 . S
H1739 C1768 0.950 . S
H1740 C1770 0.950 1_455 S
H1741 C1771 0.911 1_455 S
C1742 H1724 0.951 . S
C1742 C1743 1.366 . S
C1742 C1744 1.388 . S
C1743 C1742 1.366 . S
C1743 C1747 1.385 . S
C1744 H1725 0.951 . S
C1744 C1742 1.388 . S
C1744 C1745 1.366 . S
C1745 C1744 1.366 . S
C1745 C1746 1.414 . S
C1745 C1748 1.499 . S
C1746 H1726 0.950 . S
C1746 C1745 1.414 . S
C1746 C1747 1.374 . S
C1747 H1727 0.950 . S
C1747 C1743 1.385 . S
C1747 C1746 1.374 . S
C1748 C1745 1.499 . S
C1748 C1749 1.373 . S
C1748 C1750 1.389 1_455 S
C1749 H1728 0.950 . S
C1749 C1748 1.373 . S
C1749 C1765 1.377 1_455 S
C1750 C1748 1.389 1_655 S
C1750 C1751 1.524 . S
C1750 C1764 1.377 . S
C1751 C1750 1.524 . S
C1751 C1752 1.397 1_655 S
C1751 C1756 1.363 . S
C1752 H1729 0.950 . S
C1752 C1751 1.397 1_455 S
C1752 C1753 1.334 . S
C1753 H1730 0.950 . S
C1753 C1752 1.334 . S
C1753 C1754 1.287 1_455 S
C1754 C1753 1.287 1_655 S
C1754 C1755 1.524 . S
C1754 H1773 0.913 . S
C1755 H1731 0.950 . S
C1755 C1754 1.524 . S
C1755 C1756 1.415 . S
C1756 H1732 0.950 . S
C1756 C1751 1.363 . S
C1756 C1755 1.415 . S
C1757 H1733 0.951 . S
C1757 C1758 1.366 . S
C1757 C1759 1.388 . S
C1758 C1757 1.366 . S
C1758 C1762 1.385 . S
C1759 H1734 0.951 . S
C1759 C1757 1.388 . S
C1759 C1760 1.366 . S
C1760 C1759 1.366 . S
C1760 C1761 1.414 . S
C1760 C1763 1.499 . S
C1761 H1735 0.950 . S
C1761 C1760 1.414 . S
C1761 C1762 1.374 . S
C1762 H1736 0.950 . S
C1762 C1758 1.385 . S
C1762 C1761 1.374 . S
C1763 C1760 1.499 . S
C1763 C1764 1.373 . S
C1763 C1765 1.389 . S
C1764 H1737 0.950 . S
C1764 C1750 1.377 . S
C1764 C1763 1.373 . S
C1765 C1749 1.377 1_655 S
C1765 C1763 1.389 . S
C1765 C1766 1.524 . S
C1766 C1765 1.524 . S
C1766 C1767 1.397 . S
C1766 C1771 1.403 . S
C1767 H1738 0.950 . S
C1767 C1766 1.397 . S
C1767 C1768 1.334 . S
C1768 H1739 0.950 . S
C1768 C1767 1.334 . S
C1768 C1769 1.287 . S
C1769 C1768 1.287 . S
C1769 C1770 1.524 . S
C1769 H1772 0.999 . S
C1770 H1740 0.950 1_655 S
C1770 C1769 1.524 . S
C1770 C1771 1.417 . S
C1771 H1741 0.911 1_655 S
C1771 C1766 1.403 . S
C1771 C1770 1.417 . S
H1772 C1769 0.999 . S
H1773 C1754 0.913 . S
H1774 C1792 0.951 . S
H1775 C1794 0.951 . S
H1776 C1796 0.950 . S
H1777 C1797 0.950 . S
H1778 C1799 0.950 . S
H1779 C1802 0.950 . S
H1780 C1803 0.950 . S
H1781 C1805 0.950 . S
H1782 C1806 0.950 . S
H1783 C1807 0.951 . S
H1784 C1809 0.951 . S
H1785 C1811 0.950 . S
H1786 C1812 0.950 . S
H1787 C1814 0.950 . S
H1788 C1817 0.950 . S
H1789 C1818 0.950 . S
H1790 C1820 0.950 . S
H1791 C1821 0.950 . S
C1792 H1774 0.951 . S
C1792 C1793 1.366 . S
C1792 C1794 1.388 . S
C1793 C1792 1.366 . S
C1793 C1797 1.385 . S
C1794 H1775 0.951 . S
C1794 C1792 1.388 . S
C1794 C1795 1.366 . S
C1795 C1794 1.366 . S
C1795 C1796 1.414 . S
C1795 C1798 1.499 . S
C1796 H1776 0.950 . S
C1796 C1795 1.414 . S
C1796 C1797 1.374 . S
C1797 H1777 0.950 . S
C1797 C1793 1.385 . S
C1797 C1796 1.374 . S
C1798 C1795 1.499 . S
C1798 C1799 1.373 1_655 S
C1798 C1800 1.389 . S
C1799 H1778 0.950 . S
C1799 C1798 1.373 1_455 S
C1799 C1815 1.377 . S
C1800 C1798 1.389 . S
C1800 C1801 1.524 . S
C1800 C1814 1.377 1_655 S
C1801 C1800 1.524 . S
C1801 C1802 1.397 . S
C1801 C1806 1.363 . S
C1802 H1779 0.950 . S
C1802 C1801 1.397 . S
C1802 C1803 1.334 . S
C1803 H1780 0.950 . S
C1803 C1802 1.334 . S
C1803 C1804 1.287 . S
C1804 C1803 1.287 . S
C1804 C1805 1.524 . S
C1804 H1823 0.913 . S
C1805 H1781 0.950 . S
C1805 C1804 1.524 . S
C1805 C1806 1.415 . S
C1806 H1782 0.950 . S
C1806 C1801 1.363 . S
C1806 C1805 1.415 . S
C1807 H1783 0.951 . S
C1807 C1808 1.366 . S
C1807 C1809 1.388 . S
C1808 C1807 1.366 . S
C1808 C1812 1.385 . S
C1809 H1784 0.951 . S
C1809 C1807 1.388 . S
C1809 C1810 1.366 . S
C1810 C1809 1.366 . S
C1810 C1811 1.414 . S
C1810 C1813 1.499 . S
C1811 H1785 0.950 . S
C1811 C1810 1.414 . S
C1811 C1812 1.374 . S
C1812 H1786 0.950 . S
C1812 C1808 1.385 . S
C1812 C1811 1.374 . S
C1813 C1810 1.499 . S
C1813 C1814 1.373 . S
C1813 C1815 1.389 . S
C1814 H1787 0.950 . S
C1814 C1800 1.377 1_455 S
C1814 C1813 1.373 . S
C1815 C1799 1.377 . S
C1815 C1813 1.389 . S
C1815 C1816 1.524 . S
C1816 C1815 1.524 . S
C1816 C1817 1.397 . S
C1816 C1821 1.363 . S
C1817 H1788 0.950 . S
C1817 C1816 1.397 . S
C1817 C1818 1.334 . S
C1818 H1789 0.950 . S
C1818 C1817 1.334 . S
C1818 C1819 1.287 . S
C1819 C1818 1.287 . S
C1819 C1820 1.524 . S
C1819 H1822 0.999 . S
C1820 H1790 0.950 . S
C1820 C1819 1.524 . S
C1820 C1821 1.415 . S
C1821 H1791 0.950 . S
C1821 C1816 1.363 . S
C1821 C1820 1.415 . S
H1822 C1819 0.999 . S
H1823 C1804 0.913 . S
H1824 C1842 0.951 . S
H1825 C1844 0.951 . S
H1826 C1846 0.950 . S
H1827 C1847 0.950 . S
H1828 C1849 0.950 . S
H1829 C1852 0.950 . S
H1830 C1853 0.950 . S
H1831 C1855 0.950 . S
H1832 C1856 0.950 . S
H1833 C1857 0.951 . S
H1834 C1859 0.951 . S
H1835 C1861 0.950 . S
H1836 C1862 0.950 . S
H1837 C1864 0.950 . S
H1838 C1867 0.950 . S
H1839 C1868 0.950 . S
H1840 C1870 0.950 . S
H1841 C1871 0.950 . S
C1842 H1824 0.951 . S
C1842 C1843 1.366 . S
C1842 C1844 1.388 . S
C1843 C1842 1.366 . S
C1843 C1847 1.385 . S
C1844 H1825 0.951 . S
C1844 C1842 1.388 . S
C1844 C1845 1.366 . S
C1845 C1844 1.366 . S
C1845 C1846 1.414 . S
C1845 C1848 1.499 . S
C1846 H1826 0.950 . S
C1846 C1845 1.414 . S
C1846 C1847 1.374 . S
C1847 H1827 0.950 . S
C1847 C1843 1.385 . S
C1847 C1846 1.374 . S
C1848 C1845 1.499 . S
C1848 C1849 1.373 . S
C1848 C1850 1.389 . S
C1849 H1828 0.950 . S
C1849 C1848 1.373 . S
C1849 C1865 1.377 . S
C1850 C1848 1.389 . S
C1850 C1851 1.524 . S
C1850 C1864 1.377 . S
C1851 C1850 1.524 . S
C1851 C1852 1.397 . S
C1851 C1856 1.363 . S
C1852 H1829 0.950 . S
C1852 C1851 1.397 . S
C1852 C1853 1.334 . S
C1853 H1830 0.950 . S
C1853 C1852 1.334 . S
C1853 C1854 1.287 . S
C1854 C1853 1.287 . S
C1854 C1855 1.524 . S
C1854 H1873 0.913 . S
C1855 H1831 0.950 . S
C1855 C1854 1.524 . S
C1855 C1856 1.415 . S
C1856 H1832 0.950 . S
C1856 C1851 1.363 . S
C1856 C1855 1.415 . S
C1857 H1833 0.951 . S
C1857 C1858 1.366 . S
C1857 C1859 1.388 . S
C1858 C1857 1.366 . S
C1858 C1862 1.385 . S
C1859 H1834 0.951 . S
C1859 C1857 1.388 . S
C1859 C1860 1.366 . S
C1860 C1859 1.366 . S
C1860 C1861 1.414 . S
C1860 C1863 1.499 . S
C1861 H1835 0.950 . S
C1861 C1860 1.414 . S
C1861 C1862 1.374 . S
C1862 H1836 0.950 . S
C1862 C1858 1.385 . S
C1862 C1861 1.374 . S
C1863 C1860 1.499 . S
C1863 C1864 1.373 . S
C1863 C1865 1.389 . S
C1864 H1837 0.950 . S
C1864 C1850 1.377 . S
C1864 C1863 1.373 . S
C1865 C1849 1.377 . S
C1865 C1863 1.389 . S
C1865 C1866 1.524 . S
C1866 C1865 1.524 . S
C1866 C1867 1.397 . S
C1866 C1871 1.363 . S
C1867 H1838 0.950 . S
C1867 C1866 1.397 . S
C1867 C1868 1.334 . S
C1868 H1839 0.950 . S
C1868 C1867 1.334 . S
C1868 C1869 1.287 . S
C1869 C1868 1.287 . S
C1869 C1870 1.524 . S
C1869 H1872 0.999 . S
C1870 H1840 0.950 . S
C1870 C1869 1.524 . S
C1870 C1871 1.415 . S
C1871 H1841 0.950 . S
C1871 C1866 1.363 . S
C1871 C1870 1.415 . S
H1872 C1869 0.999 . S
H1873 C1854 0.913 . S
H1874 C1892 0.951 . S
H1875 C1894 0.951 . S
H1876 C1896 0.950 . S
H1877 C1897 0.950 . S
H1878 C1899 0.950 . S
H1879 C1902 0.950 . S
H1880 C1903 0.950 . S
H1881 C1905 0.950 . S
H1882 C1906 0.950 . S
H1883 C1907 0.951 . S
H1884 C1909 0.951 . S
H1885 C1911 0.950 . S
H1886 C1912 0.950 . S
H1887 C1914 0.950 . S
H1888 C1917 0.950 . S
H1889 C1918 0.950 . S
H1890 C1920 0.950 . S
H1891 C1921 0.950 . S
C1892 H1874 0.951 . S
C1892 C1893 1.366 . S
C1892 C1894 1.388 . S
C1893 C1892 1.366 . S
C1893 C1897 1.385 . S
C1894 H1875 0.951 . S
C1894 C1892 1.388 . S
C1894 C1895 1.366 . S
C1895 C1894 1.366 . S
C1895 C1896 1.414 . S
C1895 C1898 1.499 . S
C1896 H1876 0.950 . S
C1896 C1895 1.414 . S
C1896 C1897 1.374 . S
C1897 H1877 0.950 . S
C1897 C1893 1.385 . S
C1897 C1896 1.374 . S
C1898 C1895 1.499 . S
C1898 C1899 1.373 . S
C1898 C1900 1.389 . S
C1899 H1878 0.950 . S
C1899 C1898 1.373 . S
C1899 C1915 1.377 . S
C1900 C1898 1.389 . S
C1900 C1901 1.524 . S
C1900 C1914 1.377 . S
C1901 C1900 1.524 . S
C1901 C1902 1.397 . S
C1901 C1906 1.363 . S
C1902 H1879 0.950 . S
C1902 C1901 1.397 . S
C1902 C1903 1.334 . S
C1903 H1880 0.950 . S
C1903 C1902 1.334 . S
C1903 C1904 1.287 . S
C1904 C1903 1.287 . S
C1904 C1905 1.524 . S
C1904 H1923 0.913 . S
C1905 H1881 0.950 . S
C1905 C1904 1.524 . S
C1905 C1906 1.415 . S
C1906 H1882 0.950 . S
C1906 C1901 1.363 . S
C1906 C1905 1.415 . S
C1907 H1883 0.951 . S
C1907 C1908 1.366 . S
C1907 C1909 1.388 . S
C1908 C1907 1.366 . S
C1908 C1912 1.385 . S
C1909 H1884 0.951 . S
C1909 C1907 1.388 . S
C1909 C1910 1.366 . S
C1910 C1909 1.366 . S
C1910 C1911 1.414 . S
C1910 C1913 1.499 . S
C1911 H1885 0.950 . S
C1911 C1910 1.414 . S
C1911 C1912 1.374 . S
C1912 H1886 0.950 . S
C1912 C1908 1.385 . S
C1912 C1911 1.374 . S
C1913 C1910 1.499 . S
C1913 C1914 1.373 . S
C1913 C1915 1.389 . S
C1914 H1887 0.950 . S
C1914 C1900 1.377 . S
C1914 C1913 1.373 . S
C1915 C1899 1.377 . S
C1915 C1913 1.389 . S
C1915 C1916 1.524 . S
C1916 C1915 1.524 . S
C1916 C1917 1.397 . S
C1916 C1921 1.363 . S
C1917 H1888 0.950 . S
C1917 C1916 1.397 . S
C1917 C1918 1.334 . S
C1918 H1889 0.950 . S
C1918 C1917 1.334 . S
C1918 C1919 1.287 . S
C1919 C1918 1.287 . S
C1919 C1920 1.524 . S
C1919 H1922 0.999 . S
C1920 H1890 0.950 . S
C1920 C1919 1.524 . S
C1920 C1921 1.415 . S
C1921 H1891 0.950 . S
C1921 C1916 1.363 . S
C1921 C1920 1.415 . S
H1922 C1919 0.999 . S
H1923 C1904 0.913 . S
H1924 C1942 0.951 . S
H1925 C1944 0.951 . S
H1926 C1946 0.950 . S
H1927 C1947 0.950 . S
H1928 C1949 0.950 . S
H1929 C1952 0.950 . S
H1930 C1953 0.950 . S
H1931 C1955 0.950 . S
H1932 C1956 0.950 . S
H1933 C1957 0.951 . S
H1934 C1959 0.951 . S
H1935 C1961 0.950 . S
H1936 C1962 0.950 . S
H1937 C1964 0.950 . S
H1938 C1967 0.950 . S
H1939 C1968 0.950 . S
H1940 C1970 0.950 . S
H1941 C1971 0.950 . S
C1942 H1924 0.951 . S
C1942 C1943 1.366 . S
C1942 C1944 1.388 . S
C1943 C1942 1.366 . S
C1943 C1947 1.385 . S
C1944 H1925 0.951 . S
C1944 C1942 1.388 . S
C1944 C1945 1.366 . S
C1945 C1944 1.366 . S
C1945 C1946 1.414 . S
C1945 C1948 1.499 . S
C1946 H1926 0.950 . S
C1946 C1945 1.414 . S
C1946 C1947 1.374 . S
C1947 H1927 0.950 . S
C1947 C1943 1.385 . S
C1947 C1946 1.374 . S
C1948 C1945 1.499 . S
C1948 C1949 1.373 . S
C1948 C1950 1.389 . S
C1949 H1928 0.950 . S
C1949 C1948 1.373 . S
C1949 C1965 1.377 . S
C1950 C1948 1.389 . S
C1950 C1951 1.524 . S
C1950 C1964 1.377 . S
C1951 C1950 1.524 . S
C1951 C1952 1.397 . S
C1951 C1956 1.363 . S
C1952 H1929 0.950 . S
C1952 C1951 1.397 . S
C1952 C1953 1.334 . S
C1953 H1930 0.950 . S
C1953 C1952 1.334 . S
C1953 C1954 1.287 . S
C1954 C1953 1.287 . S
C1954 C1955 1.524 . S
C1954 H1973 0.913 . S
C1955 H1931 0.950 . S
C1955 C1954 1.524 . S
C1955 C1956 1.415 . S
C1956 H1932 0.950 . S
C1956 C1951 1.363 . S
C1956 C1955 1.415 . S
C1957 H1933 0.951 . S
C1957 C1958 1.366 . S
C1957 C1959 1.388 . S
C1958 C1957 1.366 . S
C1958 C1962 1.385 . S
C1959 H1934 0.951 . S
C1959 C1957 1.388 . S
C1959 C1960 1.366 . S
C1960 C1959 1.366 . S
C1960 C1961 1.414 . S
C1960 C1963 1.499 . S
C1961 H1935 0.950 . S
C1961 C1960 1.414 . S
C1961 C1962 1.374 . S
C1962 H1936 0.950 . S
C1962 C1958 1.385 . S
C1962 C1961 1.374 . S
C1963 C1960 1.499 . S
C1963 C1964 1.373 . S
C1963 C1965 1.389 . S
C1964 H1937 0.950 . S
C1964 C1950 1.377 . S
C1964 C1963 1.373 . S
C1965 C1949 1.377 . S
C1965 C1963 1.389 . S
C1965 C1966 1.524 . S
C1966 C1965 1.524 . S
C1966 C1967 1.397 . S
C1966 C1971 1.363 . S
C1967 H1938 0.950 . S
C1967 C1966 1.397 . S
C1967 C1968 1.334 . S
C1968 H1939 0.950 . S
C1968 C1967 1.334 . S
C1968 C1969 1.287 . S
C1969 C1968 1.287 . S
C1969 C1970 1.524 . S
C1969 H1972 0.999 . S
C1970 H1940 0.950 . S
C1970 C1969 1.524 . S
C1970 C1971 1.415 . S
C1971 H1941 0.950 . S
C1971 C1966 1.363 . S
C1971 C1970 1.415 . S
H1972 C1969 0.999 . S
H1973 C1954 0.913 . S
H1974 C1992 0.951 . S
H1975 C1994 0.951 . S
H1976 C1996 0.950 . S
H1977 C1997 0.950 . S
H1978 C1999 0.950 . S
H1979 C2002 0.950 . S
H1980 C2003 0.950 . S
H1981 C2005 0.950 1_455 S
H1982 C2006 0.950 . S
H1983 C2007 0.951 . S
H1984 C2009 0.951 . S
H1985 C2011 0.950 . S
H1986 C2012 0.950 . S
H1987 C2014 0.950 . S
H1988 C2017 0.950 . S
H1989 C2018 0.950 . S
H1990 C2020 0.950 . S
H1991 C2021 0.950 . S
C1992 H1974 0.951 . S
C1992 C1993 1.366 . S
C1992 C1994 1.388 . S
C1993 C1992 1.366 . S
C1993 C1997 1.385 . S
C1994 H1975 0.951 . S
C1994 C1992 1.388 . S
C1994 C1995 1.366 . S
C1995 C1994 1.366 . S
C1995 C1996 1.414 . S
C1995 C1998 1.499 . S
C1996 H1976 0.950 . S
C1996 C1995 1.414 . S
C1996 C1997 1.374 . S
C1997 H1977 0.950 . S
C1997 C1993 1.385 . S
C1997 C1996 1.374 . S
C1998 C1995 1.499 . S
C1998 C1999 1.373 . S
C1998 C2000 1.389 . S
C1999 H1978 0.950 . S
C1999 C1998 1.373 . S
C1999 C2015 1.377 . S
C2000 C1998 1.389 . S
C2000 C2001 1.524 . S
C2000 C2014 1.377 . S
C2001 C2000 1.524 . S
C2001 C2002 1.397 . S
C2001 C2006 1.363 . S
C2002 H1979 0.950 . S
C2002 C2001 1.397 . S
C2002 C2003 1.334 . S
C2003 H1980 0.950 . S
C2003 C2002 1.334 . S
C2003 C2004 1.287 . S
C2004 C2003 1.287 . S
C2004 C2005 1.524 . S
C2004 H2023 0.913 . S
C2005 H1981 0.950 1_655 S
C2005 C2004 1.524 . S
C2005 C2006 1.415 . S
C2006 H1982 0.950 . S
C2006 C2001 1.363 . S
C2006 C2005 1.415 . S
C2007 H1983 0.951 . S
C2007 C2008 1.366 . S
C2007 C2009 1.388 . S
C2008 C2007 1.366 . S
C2008 C2012 1.385 . S
C2009 H1984 0.951 . S
C2009 C2007 1.388 . S
C2009 C2010 1.366 . S
C2010 C2009 1.366 . S
C2010 C2011 1.414 . S
C2010 C2013 1.499 . S
C2011 H1985 0.950 . S
C2011 C2010 1.414 . S
C2011 C2012 1.374 . S
C2012 H1986 0.950 . S
C2012 C2008 1.385 . S
C2012 C2011 1.374 . S
C2013 C2010 1.499 . S
C2013 C2014 1.373 . S
C2013 C2015 1.389 . S
C2014 H1987 0.950 . S
C2014 C2000 1.377 . S
C2014 C2013 1.373 . S
C2015 C1999 1.377 . S
C2015 C2013 1.389 . S
C2015 C2016 1.524 . S
C2016 C2015 1.524 . S
C2016 C2017 1.397 . S
C2016 C2021 1.363 . S
C2017 H1988 0.950 . S
C2017 C2016 1.397 . S
C2017 C2018 1.334 . S
C2018 H1989 0.950 . S
C2018 C2017 1.334 . S
C2018 C2019 1.287 . S
C2019 C2018 1.287 . S
C2019 C2020 1.524 . S
C2019 H2022 0.999 . S
C2020 H1990 0.950 . S
C2020 C2019 1.524 . S
C2020 C2021 1.415 . S
C2021 H1991 0.950 . S
C2021 C2016 1.363 . S
C2021 C2020 1.415 . S
H2022 C2019 0.999 . S
H2023 C2004 0.913 . S
H2024 C2042 0.951 . S
H2025 C2044 0.951 . S
H2026 C2046 0.950 . S
H2027 C2047 0.950 . S
H2028 C2049 0.950 . S
H2029 C2052 0.950 . S
H2030 C2053 0.950 . S
H2031 C2055 0.950 . S
H2032 C2056 0.950 . S
H2033 C2057 0.951 . S
H2034 C2059 0.951 . S
H2035 C2061 0.950 . S
H2036 C2062 0.950 . S
H2037 C2064 0.950 . S
H2038 C2067 0.950 . S
H2039 C2068 0.950 . S
H2040 C2070 0.950 . S
H2041 C2071 0.950 . S
C2042 H2024 0.951 . S
C2042 C2043 1.366 . S
C2042 C2044 1.388 . S
C2043 C2042 1.366 . S
C2043 C2047 1.385 . S
C2044 H2025 0.951 . S
C2044 C2042 1.388 . S
C2044 C2045 1.366 . S
C2045 C2044 1.366 . S
C2045 C2046 1.414 . S
C2045 C2048 1.499 . S
C2046 H2026 0.950 . S
C2046 C2045 1.414 . S
C2046 C2047 1.374 . S
C2047 H2027 0.950 . S
C2047 C2043 1.385 . S
C2047 C2046 1.374 . S
C2048 C2045 1.499 . S
C2048 C2049 1.373 . S
C2048 C2050 1.389 . S
C2049 H2028 0.950 . S
C2049 C2048 1.373 . S
C2049 C2065 1.377 . S
C2050 C2048 1.389 . S
C2050 C2051 1.524 . S
C2050 C2064 1.377 . S
C2051 C2050 1.524 . S
C2051 C2052 1.397 . S
C2051 C2056 1.363 . S
C2052 H2029 0.950 . S
C2052 C2051 1.397 . S
C2052 C2053 1.334 . S
C2053 H2030 0.950 . S
C2053 C2052 1.334 . S
C2053 C2054 1.287 . S
C2054 C2053 1.287 . S
C2054 C2055 1.524 . S
C2054 H2073 0.913 . S
C2055 H2031 0.950 . S
C2055 C2054 1.524 . S
C2055 C2056 1.415 . S
C2056 H2032 0.950 . S
C2056 C2051 1.363 . S
C2056 C2055 1.415 . S
C2057 H2033 0.951 . S
C2057 C2058 1.366 . S
C2057 C2059 1.388 . S
C2058 C2057 1.366 . S
C2058 C2062 1.385 . S
C2059 H2034 0.951 . S
C2059 C2057 1.388 . S
C2059 C2060 1.366 . S
C2060 C2059 1.366 . S
C2060 C2061 1.414 . S
C2060 C2063 1.499 . S
C2061 H2035 0.950 . S
C2061 C2060 1.414 . S
C2061 C2062 1.374 . S
C2062 H2036 0.950 . S
C2062 C2058 1.385 . S
C2062 C2061 1.374 . S
C2063 C2060 1.499 . S
C2063 C2064 1.373 . S
C2063 C2065 1.389 . S
C2064 H2037 0.950 . S
C2064 C2050 1.377 . S
C2064 C2063 1.373 . S
C2065 C2049 1.377 . S
C2065 C2063 1.389 . S
C2065 C2066 1.524 . S
C2066 C2065 1.524 . S
C2066 C2067 1.397 . S
C2066 C2071 1.363 . S
C2067 H2038 0.950 . S
C2067 C2066 1.397 . S
C2067 C2068 1.334 . S
C2068 H2039 0.950 . S
C2068 C2067 1.334 . S
C2068 C2069 1.287 . S
C2069 C2068 1.287 . S
C2069 C2070 1.524 . S
C2069 H2072 0.999 . S
C2070 H2040 0.950 . S
C2070 C2069 1.524 . S
C2070 C2071 1.415 . S
C2071 H2041 0.950 . S
C2071 C2066 1.363 . S
C2071 C2070 1.415 . S
H2072 C2069 0.999 . S
H2073 C2054 0.913 . S
H2074 C2092 0.951 . S
H2075 C2094 0.951 . S
H2076 C2096 0.950 . S
H2077 C2097 0.950 . S
H2078 C2099 0.950 . S
H2079 C2102 0.950 . S
H2080 C2103 0.950 . S
H2081 C2105 0.950 1_565 S
H2082 C2106 0.950 . S
H2083 C2107 0.951 . S
H2084 C2109 0.951 . S
H2085 C2111 0.950 . S
H2086 C2112 0.950 . S
H2087 C2114 0.950 . S
H2088 C2117 0.950 . S
H2089 C2118 0.950 . S
H2090 C2120 0.950 . S
H2091 C2121 0.950 . S
C2092 H2074 0.951 . S
C2092 C2093 1.366 . S
C2092 C2094 1.388 . S
C2093 C2092 1.366 . S
C2093 C2097 1.385 . S
C2094 H2075 0.951 . S
C2094 C2092 1.388 . S
C2094 C2095 1.366 . S
C2095 C2094 1.366 . S
C2095 C2096 1.414 . S
C2095 C2098 1.499 . S
C2096 H2076 0.950 . S
C2096 C2095 1.414 . S
C2096 C2097 1.374 . S
C2097 H2077 0.950 . S
C2097 C2093 1.385 . S
C2097 C2096 1.374 . S
C2098 C2095 1.499 . S
C2098 C2099 1.373 . S
C2098 C2100 1.389 . S
C2099 H2078 0.950 . S
C2099 C2098 1.373 . S
C2099 C2115 1.377 . S
C2100 C2098 1.389 . S
C2100 C2101 1.524 . S
C2100 C2114 1.377 . S
C2101 C2100 1.524 . S
C2101 C2102 1.397 . S
C2101 C2106 1.363 . S
C2102 H2079 0.950 . S
C2102 C2101 1.397 . S
C2102 C2103 1.334 1_545 S
C2103 H2080 0.950 . S
C2103 C2102 1.334 1_565 S
C2103 C2104 1.287 . S
C2104 C2103 1.287 . S
C2104 C2105 1.524 1_565 S
C2104 H2123 0.913 . S
C2105 H2081 0.950 1_545 S
C2105 C2104 1.524 1_545 S
C2105 C2106 1.415 . S
C2106 H2082 0.950 . S
C2106 C2101 1.363 . S
C2106 C2105 1.415 . S
C2107 H2083 0.951 . S
C2107 C2108 1.366 . S
C2107 C2109 1.388 . S
C2108 C2107 1.366 . S
C2108 C2112 1.385 . S
C2109 H2084 0.951 . S
C2109 C2107 1.388 . S
C2109 C2110 1.366 . S
C2110 C2109 1.366 . S
C2110 C2111 1.414 . S
C2110 C2113 1.499 . S
C2111 H2085 0.950 . S
C2111 C2110 1.414 . S
C2111 C2112 1.374 . S
C2112 H2086 0.950 . S
C2112 C2108 1.385 . S
C2112 C2111 1.374 . S
C2113 C2110 1.499 . S
C2113 C2114 1.373 . S
C2113 C2115 1.389 . S
C2114 H2087 0.950 . S
C2114 C2100 1.377 . S
C2114 C2113 1.373 . S
C2115 C2099 1.377 . S
C2115 C2113 1.389 . S
C2115 C2116 1.524 . S
C2116 C2115 1.524 . S
C2116 C2117 1.397 . S
C2116 C2121 1.363 . S
C2117 H2088 0.950 . S
C2117 C2116 1.397 . S
C2117 C2118 1.334 . S
C2118 H2089 0.950 . S
C2118 C2117 1.334 . S
C2118 C2119 1.287 . S
C2119 C2118 1.287 . S
C2119 C2120 1.524 . S
C2119 H2122 0.999 . S
C2120 H2090 0.950 . S
C2120 C2119 1.524 . S
C2120 C2121 1.415 . S
C2121 H2091 0.950 . S
C2121 C2116 1.363 . S
C2121 C2120 1.415 . S
H2122 C2119 0.999 . S
H2123 C2104 0.913 . S
H2124 C2142 0.951 . S
H2125 C2144 0.951 . S
H2126 C2146 0.950 . S
H2127 C2147 0.950 . S
H2128 C2149 0.950 . S
H2129 C2152 0.950 . S
H2130 C2153 0.950 . S
H2131 C2155 0.950 . S
H2132 C2156 0.950 . S
H2133 C2157 0.951 . S
H2134 C2159 0.951 . S
H2135 C2161 0.950 . S
H2136 C2162 0.950 . S
H2137 C2164 0.950 . S
H2138 C2167 0.950 . S
H2139 C2168 0.950 . S
H2140 C2170 0.950 . S
H2141 C2171 0.950 . S
C2142 H2124 0.951 . S
C2142 C2143 1.366 . S
C2142 C2144 1.388 . S
C2143 C2142 1.366 . S
C2143 C2147 1.385 . S
C2144 H2125 0.951 . S
C2144 C2142 1.388 . S
C2144 C2145 1.366 . S
C2145 C2144 1.366 . S
C2145 C2146 1.414 . S
C2145 C2148 1.499 . S
C2146 H2126 0.950 . S
C2146 C2145 1.414 . S
C2146 C2147 1.374 . S
C2147 H2127 0.950 . S
C2147 C2143 1.385 . S
C2147 C2146 1.374 . S
C2148 C2145 1.499 . S
C2148 C2149 1.373 . S
C2148 C2150 1.389 . S
C2149 H2128 0.950 . S
C2149 C2148 1.373 . S
C2149 C2165 1.377 . S
C2150 C2148 1.389 . S
C2150 C2151 1.524 . S
C2150 C2164 1.377 . S
C2151 C2150 1.524 . S
C2151 C2152 1.397 . S
C2151 C2156 1.363 . S
C2152 H2129 0.950 . S
C2152 C2151 1.397 . S
C2152 C2153 1.334 . S
C2153 H2130 0.950 . S
C2153 C2152 1.334 . S
C2153 C2154 1.287 . S
C2154 C2153 1.287 . S
C2154 C2155 1.524 . S
C2154 H2173 0.913 . S
C2155 H2131 0.950 . S
C2155 C2154 1.524 . S
C2155 C2156 1.415 . S
C2156 H2132 0.950 . S
C2156 C2151 1.363 . S
C2156 C2155 1.415 . S
C2157 H2133 0.951 . S
C2157 C2158 1.366 . S
C2157 C2159 1.388 . S
C2158 C2157 1.366 . S
C2158 C2162 1.385 . S
C2159 H2134 0.951 . S
C2159 C2157 1.388 . S
C2159 C2160 1.366 . S
C2160 C2159 1.366 . S
C2160 C2161 1.414 . S
C2160 C2163 1.499 . S
C2161 H2135 0.950 . S
C2161 C2160 1.414 . S
C2161 C2162 1.374 . S
C2162 H2136 0.950 . S
C2162 C2158 1.385 . S
C2162 C2161 1.374 . S
C2163 C2160 1.499 . S
C2163 C2164 1.373 . S
C2163 C2165 1.389 . S
C2164 H2137 0.950 . S
C2164 C2150 1.377 . S
C2164 C2163 1.373 . S
C2165 C2149 1.377 . S
C2165 C2163 1.389 . S
C2165 C2166 1.524 . S
C2166 C2165 1.524 . S
C2166 C2167 1.397 . S
C2166 C2171 1.363 . S
C2167 H2138 0.950 . S
C2167 C2166 1.397 . S
C2167 C2168 1.334 . S
C2168 H2139 0.950 . S
C2168 C2167 1.334 . S
C2168 C2169 1.287 . S
C2169 C2168 1.287 . S
C2169 C2170 1.524 . S
C2169 H2172 0.999 . S
C2170 H2140 0.950 . S
C2170 C2169 1.524 . S
C2170 C2171 1.415 . S
C2171 H2141 0.950 . S
C2171 C2166 1.363 . S
C2171 C2170 1.415 . S
H2172 C2169 0.999 . S
H2173 C2154 0.913 . S
H2174 C2192 0.951 . S
H2175 C2194 0.951 . S
H2176 C2196 0.950 . S
H2177 C2197 0.950 . S
H2178 C2199 0.950 . S
H2179 C2202 0.950 . S
H2180 C2203 0.950 . S
H2181 C2205 0.950 . S
H2182 C2206 0.950 . S
H2183 C2207 0.951 . S
H2184 C2209 0.951 . S
H2185 C2211 0.950 . S
H2186 C2212 0.950 . S
H2187 C2214 0.950 . S
H2188 C2217 0.950 . S
H2189 C2218 0.950 . S
H2190 C2220 0.950 . S
H2191 C2221 0.950 . S
C2192 H2174 0.951 . S
C2192 C2193 1.366 . S
C2192 C2194 1.388 . S
C2193 C2192 1.366 . S
C2193 C2197 1.385 . S
C2194 H2175 0.951 . S
C2194 C2192 1.388 . S
C2194 C2195 1.366 . S
C2195 C2194 1.366 . S
C2195 C2196 1.414 . S
C2195 C2198 1.499 . S
C2196 H2176 0.950 . S
C2196 C2195 1.414 . S
C2196 C2197 1.374 . S
C2197 H2177 0.950 . S
C2197 C2193 1.385 . S
C2197 C2196 1.374 . S
C2198 C2195 1.499 . S
C2198 C2199 1.373 . S
C2198 C2200 1.389 . S
C2199 H2178 0.950 . S
C2199 C2198 1.373 . S
C2199 C2215 1.377 . S
C2200 C2198 1.389 . S
C2200 C2201 1.524 . S
C2200 C2214 1.377 . S
C2201 C2200 1.524 . S
C2201 C2202 1.397 . S
C2201 C2206 1.363 . S
C2202 H2179 0.950 . S
C2202 C2201 1.397 . S
C2202 C2203 1.334 . S
C2203 H2180 0.950 . S
C2203 C2202 1.334 . S
C2203 C2204 1.287 . S
C2204 C2203 1.287 . S
C2204 C2205 1.524 . S
C2204 H2223 0.913 . S
C2205 H2181 0.950 . S
C2205 C2204 1.524 . S
C2205 C2206 1.415 . S
C2206 H2182 0.950 . S
C2206 C2201 1.363 . S
C2206 C2205 1.415 . S
C2207 H2183 0.951 . S
C2207 C2208 1.366 . S
C2207 C2209 1.388 . S
C2208 C2207 1.366 . S
C2208 C2212 1.385 . S
C2209 H2184 0.951 . S
C2209 C2207 1.388 . S
C2209 C2210 1.366 . S
C2210 C2209 1.366 . S
C2210 C2211 1.414 . S
C2210 C2213 1.499 . S
C2211 H2185 0.950 . S
C2211 C2210 1.414 . S
C2211 C2212 1.374 . S
C2212 H2186 0.950 . S
C2212 C2208 1.385 . S
C2212 C2211 1.374 . S
C2213 C2210 1.499 . S
C2213 C2214 1.373 . S
C2213 C2215 1.389 . S
C2214 H2187 0.950 . S
C2214 C2200 1.377 . S
C2214 C2213 1.373 . S
C2215 C2199 1.377 . S
C2215 C2213 1.389 . S
C2215 C2216 1.524 . S
C2216 C2215 1.524 . S
C2216 C2217 1.397 . S
C2216 C2221 1.363 . S
C2217 H2188 0.950 . S
C2217 C2216 1.397 . S
C2217 C2218 1.334 . S
C2218 H2189 0.950 . S
C2218 C2217 1.334 . S
C2218 C2219 1.287 . S
C2219 C2218 1.287 . S
C2219 C2220 1.524 . S
C2219 H2222 0.999 . S
C2220 H2190 0.950 . S
C2220 C2219 1.524 . S
C2220 C2221 1.415 . S
C2221 H2191 0.950 . S
C2221 C2216 1.363 . S
C2221 C2220 1.415 . S
H2222 C2219 0.999 . S
H2223 C2204 0.913 . S
H2224 C2242 0.951 . S
H2225 C2244 0.951 . S
H2226 C2246 0.950 . S
H2227 C2247 0.950 . S
H2228 C2249 0.950 . S
H2229 C2252 0.950 . S
H2230 C2253 0.950 . S
H2231 C2255 0.950 . S
H2232 C2256 0.950 . S
H2233 C2257 0.951 . S
H2234 C2259 0.951 . S
H2235 C2261 0.950 . S
H2236 C2262 0.950 . S
H2237 C2264 0.950 . S
H2238 C2267 0.950 . S
H2239 C2268 0.950 . S
H2240 C2270 0.950 . S
H2241 C2271 0.950 . S
C2242 H2224 0.951 . S
C2242 C2243 1.366 . S
C2242 C2244 1.388 . S
C2243 C2242 1.366 . S
C2243 C2247 1.385 . S
C2244 H2225 0.951 . S
C2244 C2242 1.388 . S
C2244 C2245 1.366 . S
C2245 C2244 1.366 . S
C2245 C2246 1.414 . S
C2245 C2248 1.499 . S
C2246 H2226 0.950 . S
C2246 C2245 1.414 . S
C2246 C2247 1.374 . S
C2247 H2227 0.950 . S
C2247 C2243 1.385 . S
C2247 C2246 1.374 . S
C2248 C2245 1.499 . S
C2248 C2249 1.373 . S
C2248 C2250 1.389 . S
C2249 H2228 0.950 . S
C2249 C2248 1.373 . S
C2249 C2265 1.377 . S
C2250 C2248 1.389 . S
C2250 C2251 1.524 . S
C2250 C2264 1.377 . S
C2251 C2250 1.524 . S
C2251 C2252 1.397 . S
C2251 C2256 1.363 . S
C2252 H2229 0.950 . S
C2252 C2251 1.397 . S
C2252 C2253 1.334 . S
C2253 H2230 0.950 . S
C2253 C2252 1.334 . S
C2253 C2254 1.287 . S
C2254 C2253 1.287 . S
C2254 C2255 1.524 . S
C2254 H2273 0.913 . S
C2255 H2231 0.950 . S
C2255 C2254 1.524 . S
C2255 C2256 1.415 . S
C2256 H2232 0.950 . S
C2256 C2251 1.363 . S
C2256 C2255 1.415 . S
C2257 H2233 0.951 . S
C2257 C2258 1.366 . S
C2257 C2259 1.388 . S
C2258 C2257 1.366 . S
C2258 C2262 1.385 . S
C2259 H2234 0.951 . S
C2259 C2257 1.388 . S
C2259 C2260 1.366 . S
C2260 C2259 1.366 . S
C2260 C2261 1.414 . S
C2260 C2263 1.499 . S
C2261 H2235 0.950 . S
C2261 C2260 1.414 . S
C2261 C2262 1.374 . S
C2262 H2236 0.950 . S
C2262 C2258 1.385 . S
C2262 C2261 1.374 . S
C2263 C2260 1.499 . S
C2263 C2264 1.373 . S
C2263 C2265 1.389 . S
C2264 H2237 0.950 . S
C2264 C2250 1.377 . S
C2264 C2263 1.373 . S
C2265 C2249 1.377 . S
C2265 C2263 1.389 . S
C2265 C2266 1.524 . S
C2266 C2265 1.524 . S
C2266 C2267 1.397 . S
C2266 C2271 1.363 . S
C2267 H2238 0.950 . S
C2267 C2266 1.397 . S
C2267 C2268 1.334 . S
C2268 H2239 0.950 . S
C2268 C2267 1.334 . S
C2268 C2269 1.287 . S
C2269 C2268 1.287 . S
C2269 C2270 1.524 . S
C2269 H2272 0.999 . S
C2270 H2240 0.950 . S
C2270 C2269 1.524 . S
C2270 C2271 1.415 . S
C2271 H2241 0.950 . S
C2271 C2266 1.363 . S
C2271 C2270 1.415 . S
H2272 C2269 0.999 . S
H2273 C2254 0.913 . S
H2274 C2292 0.951 . S
H2275 C2294 0.951 . S
H2276 C2296 0.950 . S
H2277 C2297 0.950 . S
H2278 C2299 0.950 . S
H2279 C2302 0.950 . S
H2280 C2303 0.950 . S
H2281 C2305 0.950 . S
H2282 C2306 0.950 1_545 S
H2283 C2307 0.951 . S
H2284 C2309 0.951 . S
H2285 C2311 0.950 . S
H2286 C2312 0.950 . S
H2287 C2314 0.950 . S
H2288 C2317 0.950 . S
H2289 C2318 0.950 . S
H2290 C2320 0.966 . S
H2291 C2321 0.950 . S
C2292 H2274 0.951 . S
C2292 C2293 1.366 . S
C2292 C2294 1.388 . S
C2293 C2292 1.366 . S
C2293 C2297 1.385 . S
C2294 H2275 0.951 . S
C2294 C2292 1.388 . S
C2294 C2295 1.366 . S
C2295 C2294 1.366 . S
C2295 C2296 1.414 . S
C2295 C2298 1.499 . S
C2296 H2276 0.950 . S
C2296 C2295 1.414 . S
C2296 C2297 1.374 . S
C2297 H2277 0.950 . S
C2297 C2293 1.385 . S
C2297 C2296 1.374 . S
C2298 C2295 1.499 . S
C2298 C2299 1.373 . S
C2298 C2300 1.389 . S
C2299 H2278 0.950 . S
C2299 C2298 1.373 . S
C2299 C2315 1.445 . S
C2300 C2298 1.389 . S
C2300 C2301 1.524 . S
C2300 C2314 1.377 1_565 S
C2301 C2300 1.524 . S
C2301 C2302 1.397 . S
C2301 C2306 1.363 . S
C2302 H2279 0.950 . S
C2302 C2301 1.397 . S
C2302 C2303 1.334 . S
C2303 H2280 0.950 . S
C2303 C2302 1.334 . S
C2303 C2304 1.287 . S
C2304 C2303 1.287 . S
C2304 C2305 1.524 . S
C2304 H2323 0.913 . S
C2305 H2281 0.950 . S
C2305 C2304 1.524 . S
C2305 C2306 1.415 . S
C2306 H2282 0.950 1_565 S
C2306 C2301 1.363 . S
C2306 C2305 1.415 . S
C2307 H2283 0.951 . S
C2307 C2308 1.366 . S
C2307 C2309 1.388 . S
C2308 C2307 1.366 . S
C2308 C2312 1.385 . S
C2309 H2284 0.951 . S
C2309 C2307 1.388 . S
C2309 C2310 1.366 . S
C2310 C2309 1.366 . S
C2310 C2311 1.414 . S
C2310 C2313 1.499 . S
C2311 H2285 0.950 . S
C2311 C2310 1.414 . S
C2311 C2312 1.374 . S
C2312 H2286 0.950 . S
C2312 C2308 1.385 . S
C2312 C2311 1.374 . S
C2313 C2310 1.499 . S
C2313 C2314 1.373 . S
C2313 C2315 1.345 1_545 S
C2314 H2287 0.950 . S
C2314 C2300 1.377 1_545 S
C2314 C2313 1.373 . S
C2315 C2299 1.445 . S
C2315 C2313 1.345 1_565 S
C2315 C2316 1.505 1_565 S
C2316 C2315 1.505 1_545 S
C2316 C2317 1.397 . S
C2316 C2321 1.363 1_545 S
C2317 H2288 0.950 . S
C2317 C2316 1.397 . S
C2317 C2318 1.334 . S
C2318 H2289 0.950 . S
C2318 C2317 1.334 . S
C2318 C2319 1.287 1_655 S
C2319 C2318 1.287 1_455 S
C2319 C2320 1.498 1_545 S
C2319 H2322 0.999 . S
C2320 H2290 0.966 . S
C2320 C2319 1.498 1_565 S
C2320 C2321 1.424 1_455 S
C2321 H2291 0.950 . S
C2321 C2316 1.363 1_565 S
C2321 C2320 1.424 1_655 S
H2322 C2319 0.999 . S
H2323 C2304 0.913 . S
H2324 C2342 0.951 . S
H2325 C2344 0.951 . S
H2326 C2346 0.950 . S
H2327 C2347 0.950 . S
H2328 C2349 0.950 . S
H2329 C2352 0.950 . S
H2330 C2353 0.950 . S
H2331 C2355 0.950 . S
H2332 C2356 0.950 . S
H2333 C2357 0.951 . S
H2334 C2359 0.951 . S
H2335 C2361 0.950 . S
H2336 C2362 0.950 . S
H2337 C2364 0.950 . S
H2338 C2367 0.950 . S
H2339 C2368 0.950 . S
H2340 C2370 0.950 . S
H2341 C2371 0.950 . S
C2342 H2324 0.951 . S
C2342 C2343 1.366 . S
C2342 C2344 1.388 . S
C2343 C2342 1.366 . S
C2343 C2347 1.385 . S
C2344 H2325 0.951 . S
C2344 C2342 1.388 . S
C2344 C2345 1.366 . S
C2345 C2344 1.366 . S
C2345 C2346 1.414 . S
C2345 C2348 1.499 . S
C2346 H2326 0.950 . S
C2346 C2345 1.414 . S
C2346 C2347 1.374 . S
C2347 H2327 0.950 . S
C2347 C2343 1.385 . S
C2347 C2346 1.374 . S
C2348 C2345 1.499 . S
C2348 C2349 1.373 . S
C2348 C2350 1.389 . S
C2349 H2328 0.950 . S
C2349 C2348 1.373 . S
C2349 C2365 1.377 . S
C2350 C2348 1.389 . S
C2350 C2351 1.524 . S
C2350 C2364 1.377 . S
C2351 C2350 1.524 . S
C2351 C2352 1.397 . S
C2351 C2356 1.363 . S
C2352 H2329 0.950 . S
C2352 C2351 1.397 . S
C2352 C2353 1.334 . S
C2353 H2330 0.950 . S
C2353 C2352 1.334 . S
C2353 C2354 1.287 . S
C2354 C2353 1.287 . S
C2354 C2355 1.524 . S
C2354 H2373 0.913 . S
C2355 H2331 0.950 . S
C2355 C2354 1.524 . S
C2355 C2356 1.415 . S
C2356 H2332 0.950 . S
C2356 C2351 1.363 . S
C2356 C2355 1.415 . S
C2357 H2333 0.951 . S
C2357 C2358 1.366 . S
C2357 C2359 1.388 . S
C2358 C2357 1.366 . S
C2358 C2362 1.385 . S
C2359 H2334 0.951 . S
C2359 C2357 1.388 . S
C2359 C2360 1.366 . S
C2360 C2359 1.366 . S
C2360 C2361 1.414 . S
C2360 C2363 1.499 . S
C2361 H2335 0.950 . S
C2361 C2360 1.414 . S
C2361 C2362 1.374 . S
C2362 H2336 0.950 . S
C2362 C2358 1.385 . S
C2362 C2361 1.374 . S
C2363 C2360 1.499 . S
C2363 C2364 1.373 . S
C2363 C2365 1.389 . S
C2364 H2337 0.950 . S
C2364 C2350 1.377 . S
C2364 C2363 1.373 . S
C2365 C2349 1.377 . S
C2365 C2363 1.389 . S
C2365 C2366 1.524 . S
C2366 C2365 1.524 . S
C2366 C2367 1.397 . S
C2366 C2371 1.363 . S
C2367 H2338 0.950 . S
C2367 C2366 1.397 . S
C2367 C2368 1.334 . S
C2368 H2339 0.950 . S
C2368 C2367 1.334 . S
C2368 C2369 1.287 . S
C2369 C2368 1.287 . S
C2369 C2370 1.524 . S
C2369 H2372 0.999 . S
C2370 H2340 0.950 . S
C2370 C2369 1.524 . S
C2370 C2371 1.415 . S
C2371 H2341 0.950 . S
C2371 C2366 1.363 . S
C2371 C2370 1.415 . S
H2372 C2369 0.999 . S
H2373 C2354 0.913 . S
H2374 C2392 0.951 . S
H2375 C2394 0.951 . S
H2376 C2396 0.950 . S
H2377 C2397 0.950 . S
H2378 C2399 0.950 . S
H2379 C2402 0.950 . S
H2380 C2403 0.950 . S
H2381 C2405 0.950 . S
H2382 C2406 0.950 . S
H2383 C2407 0.951 . S
H2384 C2409 0.951 . S
H2385 C2411 0.950 . S
H2386 C2412 0.950 . S
H2387 C2414 0.950 . S
H2388 C2417 0.950 . S
H2389 C2418 0.950 . S
H2390 C2420 0.950 . S
H2391 C2421 0.950 . S
C2392 H2374 0.951 . S
C2392 C2393 1.366 . S
C2392 C2394 1.388 . S
C2393 C2392 1.366 . S
C2393 C2397 1.385 . S
C2394 H2375 0.951 . S
C2394 C2392 1.388 . S
C2394 C2395 1.366 . S
C2395 C2394 1.366 . S
C2395 C2396 1.414 . S
C2395 C2398 1.499 . S
C2396 H2376 0.950 . S
C2396 C2395 1.414 . S
C2396 C2397 1.374 . S
C2397 H2377 0.950 . S
C2397 C2393 1.385 . S
C2397 C2396 1.374 . S
C2398 C2395 1.499 . S
C2398 C2399 1.373 . S
C2398 C2400 1.389 . S
C2399 H2378 0.950 . S
C2399 C2398 1.373 . S
C2399 C2415 1.377 . S
C2400 C2398 1.389 . S
C2400 C2401 1.524 . S
C2400 C2414 1.377 . S
C2401 C2400 1.524 . S
C2401 C2402 1.397 . S
C2401 C2406 1.363 . S
C2402 H2379 0.950 . S
C2402 C2401 1.397 . S
C2402 C2403 1.334 . S
C2403 H2380 0.950 . S
C2403 C2402 1.334 . S
C2403 C2404 1.287 . S
C2404 C2403 1.287 . S
C2404 C2405 1.524 . S
C2404 H2423 0.913 . S
C2405 H2381 0.950 . S
C2405 C2404 1.524 . S
C2405 C2406 1.415 . S
C2406 H2382 0.950 . S
C2406 C2401 1.363 . S
C2406 C2405 1.415 . S
C2407 H2383 0.951 . S
C2407 C2408 1.366 . S
C2407 C2409 1.388 . S
C2408 C2407 1.366 . S
C2408 C2412 1.385 . S
C2409 H2384 0.951 . S
C2409 C2407 1.388 . S
C2409 C2410 1.366 . S
C2410 C2409 1.366 . S
C2410 C2411 1.414 . S
C2410 C2413 1.499 . S
C2411 H2385 0.950 . S
C2411 C2410 1.414 . S
C2411 C2412 1.374 . S
C2412 H2386 0.950 . S
C2412 C2408 1.385 . S
C2412 C2411 1.374 . S
C2413 C2410 1.499 . S
C2413 C2414 1.373 . S
C2413 C2415 1.389 . S
C2414 H2387 0.950 . S
C2414 C2400 1.377 . S
C2414 C2413 1.373 . S
C2415 C2399 1.377 . S
C2415 C2413 1.389 . S
C2415 C2416 1.524 . S
C2416 C2415 1.524 . S
C2416 C2417 1.397 . S
C2416 C2421 1.363 . S
C2417 H2388 0.950 . S
C2417 C2416 1.397 . S
C2417 C2418 1.334 . S
C2418 H2389 0.950 . S
C2418 C2417 1.334 . S
C2418 C2419 1.287 . S
C2419 C2418 1.287 . S
C2419 C2420 1.524 . S
C2419 H2422 0.999 . S
C2420 H2390 0.950 . S
C2420 C2419 1.524 . S
C2420 C2421 1.415 . S
C2421 H2391 0.950 . S
C2421 C2416 1.363 . S
C2421 C2420 1.415 . S
H2422 C2419 0.999 . S
H2423 C2404 0.913 . S
H2424 C2442 0.951 . S
H2425 C2444 0.951 . S
H2426 C2446 0.950 . S
H2427 C2447 0.950 . S
H2428 C2449 0.950 . S
H2429 C2452 0.950 . S
H2430 C2453 0.950 . S
H2431 C2455 0.950 . S
H2432 C2456 0.950 . S
H2433 C2457 0.951 . S
H2434 C2459 0.951 . S
H2435 C2461 0.950 . S
H2436 C2462 0.950 . S
H2437 C2464 0.950 . S
H2438 C2467 0.950 . S
H2439 C2468 0.950 . S
H2440 C2470 0.950 . S
H2441 C2471 0.950 . S
C2442 H2424 0.951 . S
C2442 C2443 1.366 . S
C2442 C2444 1.388 . S
C2443 C2442 1.366 . S
C2443 C2447 1.385 . S
C2444 H2425 0.951 . S
C2444 C2442 1.388 . S
C2444 C2445 1.366 . S
C2445 C2444 1.366 . S
C2445 C2446 1.414 . S
C2445 C2448 1.499 . S
C2446 H2426 0.950 . S
C2446 C2445 1.414 . S
C2446 C2447 1.374 . S
C2447 H2427 0.950 . S
C2447 C2443 1.385 . S
C2447 C2446 1.374 . S
C2448 C2445 1.499 . S
C2448 C2449 1.373 . S
C2448 C2450 1.389 . S
C2449 H2428 0.950 . S
C2449 C2448 1.373 . S
C2449 C2465 1.377 . S
C2450 C2448 1.389 . S
C2450 C2451 1.524 . S
C2450 C2464 1.377 . S
C2451 C2450 1.524 . S
C2451 C2452 1.397 . S
C2451 C2456 1.363 . S
C2452 H2429 0.950 . S
C2452 C2451 1.397 . S
C2452 C2453 1.334 . S
C2453 H2430 0.950 . S
C2453 C2452 1.334 . S
C2453 C2454 1.287 . S
C2454 C2453 1.287 . S
C2454 C2455 1.524 . S
C2454 H2473 0.913 . S
C2455 H2431 0.950 . S
C2455 C2454 1.524 . S
C2455 C2456 1.415 . S
C2456 H2432 0.950 . S
C2456 C2451 1.363 . S
C2456 C2455 1.415 . S
C2457 H2433 0.951 . S
C2457 C2458 1.366 . S
C2457 C2459 1.388 . S
C2458 C2457 1.366 . S
C2458 C2462 1.385 . S
C2459 H2434 0.951 . S
C2459 C2457 1.388 . S
C2459 C2460 1.366 . S
C2460 C2459 1.366 . S
C2460 C2461 1.414 . S
C2460 C2463 1.499 . S
C2461 H2435 0.950 . S
C2461 C2460 1.414 . S
C2461 C2462 1.374 . S
C2462 H2436 0.950 . S
C2462 C2458 1.385 . S
C2462 C2461 1.374 . S
C2463 C2460 1.499 . S
C2463 C2464 1.373 . S
C2463 C2465 1.389 . S
C2464 H2437 0.950 . S
C2464 C2450 1.377 . S
C2464 C2463 1.373 . S
C2465 C2449 1.377 . S
C2465 C2463 1.389 . S
C2465 C2466 1.524 . S
C2466 C2465 1.524 . S
C2466 C2467 1.397 . S
C2466 C2471 1.363 . S
C2467 H2438 0.950 . S
C2467 C2466 1.397 . S
C2467 C2468 1.334 . S
C2468 H2439 0.950 . S
C2468 C2467 1.334 . S
C2468 C2469 1.287 . S
C2469 C2468 1.287 . S
C2469 C2470 1.524 . S
C2469 H2472 0.999 . S
C2470 H2440 0.950 . S
C2470 C2469 1.524 . S
C2470 C2471 1.415 . S
C2471 H2441 0.950 . S
C2471 C2466 1.363 . S
C2471 C2470 1.415 . S
H2472 C2469 0.999 . S
H2473 C2454 0.913 . S
H2474 C2492 0.951 . S
H2475 C2494 0.951 . S
H2476 C2496 0.950 . S
H2477 C2497 0.950 . S
H2478 C2499 0.950 . S
H2479 C2502 0.950 . S
H2480 C2503 0.950 . S
H2481 C2505 0.950 . S
H2482 C2506 0.950 . S
H2483 C2507 0.951 . S
H2484 C2509 0.951 . S
H2485 C2511 0.950 . S
H2486 C2512 0.950 . S
H2487 C2514 0.950 1_545 S
H2488 C2517 0.950 . S
H2489 C2518 0.950 . S
H2490 C2520 0.950 . S
H2491 C2521 0.950 1_565 S
C2492 H2474 0.951 . S
C2492 C2493 1.366 . S
C2492 C2494 1.388 . S
C2493 C2492 1.366 . S
C2493 C2497 1.385 . S
C2494 H2475 0.951 . S
C2494 C2492 1.388 . S
C2494 C2495 1.366 . S
C2495 C2494 1.366 . S
C2495 C2496 1.414 . S
C2495 C2498 1.499 . S
C2496 H2476 0.950 . S
C2496 C2495 1.414 . S
C2496 C2497 1.374 . S
C2497 H2477 0.950 . S
C2497 C2493 1.385 . S
C2497 C2496 1.374 . S
C2498 C2495 1.499 . S
C2498 C2499 1.373 . S
C2498 C2500 1.389 . S
C2499 H2478 0.950 . S
C2499 C2498 1.373 . S
C2499 C2515 1.399 . S
C2500 C2498 1.389 . S
C2500 C2501 1.524 . S
C2500 C2514 1.377 . S
C2501 C2500 1.524 . S
C2501 C2502 1.397 . S
C2501 C2506 1.363 . S
C2502 H2479 0.950 . S
C2502 C2501 1.397 . S
C2502 C2503 1.334 . S
C2503 H2480 0.950 . S
C2503 C2502 1.334 . S
C2503 C2504 1.287 . S
C2504 C2503 1.287 . S
C2504 C2505 1.524 . S
C2504 H2523 0.913 . S
C2505 H2481 0.950 . S
C2505 C2504 1.524 . S
C2505 C2506 1.415 . S
C2506 H2482 0.950 . S
C2506 C2501 1.363 . S
C2506 C2505 1.415 . S
C2507 H2483 0.951 . S
C2507 C2508 1.366 . S
C2507 C2509 1.388 . S
C2508 C2507 1.366 . S
C2508 C2512 1.385 . S
C2509 H2484 0.951 . S
C2509 C2507 1.388 . S
C2509 C2510 1.366 . S
C2510 C2509 1.366 . S
C2510 C2511 1.414 . S
C2510 C2513 1.499 . S
C2511 H2485 0.950 . S
C2511 C2510 1.414 . S
C2511 C2512 1.374 . S
C2512 H2486 0.950 . S
C2512 C2508 1.385 . S
C2512 C2511 1.374 . S
C2513 C2510 1.499 . S
C2513 C2514 1.373 1_545 S
C2513 C2515 1.380 1_545 S
C2514 H2487 0.950 1_565 S
C2514 C2500 1.377 . S
C2514 C2513 1.373 1_565 S
C2515 C2499 1.399 . S
C2515 C2513 1.380 1_565 S
C2515 C2516 1.512 1_565 S
C2516 C2515 1.512 1_545 S
C2516 C2517 1.397 . S
C2516 C2521 1.363 . S
C2517 H2488 0.950 . S
C2517 C2516 1.397 . S
C2517 C2518 1.334 . S
C2518 H2489 0.950 . S
C2518 C2517 1.334 . S
C2518 C2519 1.287 . S
C2519 C2518 1.287 . S
C2519 C2520 1.524 . S
C2519 H2522 0.999 . S
C2520 H2490 0.950 . S
C2520 C2519 1.524 . S
C2520 C2521 1.415 . S
C2521 H2491 0.950 1_545 S
C2521 C2516 1.363 . S
C2521 C2520 1.415 . S
H2522 C2519 0.999 . S
H2523 C2504 0.913 . S
H2524 C2542 0.951 . S
H2525 C2544 0.951 . S
H2526 C2546 0.950 . S
H2527 C2547 0.950 . S
H2528 C2549 0.950 . S
H2529 C2552 0.950 . S
H2530 C2553 0.950 . S
H2531 C2555 0.950 . S
H2532 C2556 0.950 . S
H2533 C2557 0.951 . S
H2534 C2559 0.951 . S
H2535 C2561 0.950 . S
H2536 C2562 0.950 . S
H2537 C2564 0.950 . S
H2538 C2567 0.950 . S
H2539 C2568 0.950 . S
H2540 C2570 0.950 . S
H2541 C2571 0.950 . S
C2542 H2524 0.951 . S
C2542 C2543 1.366 . S
C2542 C2544 1.388 . S
C2543 C2542 1.366 . S
C2543 C2547 1.385 . S
C2544 H2525 0.951 . S
C2544 C2542 1.388 . S
C2544 C2545 1.366 . S
C2545 C2544 1.366 . S
C2545 C2546 1.414 . S
C2545 C2548 1.499 . S
C2546 H2526 0.950 . S
C2546 C2545 1.414 . S
C2546 C2547 1.374 . S
C2547 H2527 0.950 . S
C2547 C2543 1.385 . S
C2547 C2546 1.374 . S
C2548 C2545 1.499 . S
C2548 C2549 1.373 . S
C2548 C2550 1.389 . S
C2549 H2528 0.950 . S
C2549 C2548 1.373 . S
C2549 C2565 1.377 . S
C2550 C2548 1.389 . S
C2550 C2551 1.524 . S
C2550 C2564 1.377 . S
C2551 C2550 1.524 . S
C2551 C2552 1.397 . S
C2551 C2556 1.363 . S
C2552 H2529 0.950 . S
C2552 C2551 1.397 . S
C2552 C2553 1.334 . S
C2553 H2530 0.950 . S
C2553 C2552 1.334 . S
C2553 C2554 1.287 . S
C2554 C2553 1.287 . S
C2554 C2555 1.524 . S
C2554 H2573 0.913 . S
C2555 H2531 0.950 . S
C2555 C2554 1.524 . S
C2555 C2556 1.415 . S
C2556 H2532 0.950 . S
C2556 C2551 1.363 . S
C2556 C2555 1.415 . S
C2557 H2533 0.951 . S
C2557 C2558 1.366 . S
C2557 C2559 1.388 . S
C2558 C2557 1.366 . S
C2558 C2562 1.385 . S
C2559 H2534 0.951 . S
C2559 C2557 1.388 . S
C2559 C2560 1.366 . S
C2560 C2559 1.366 . S
C2560 C2561 1.414 . S
C2560 C2563 1.499 . S
C2561 H2535 0.950 . S
C2561 C2560 1.414 . S
C2561 C2562 1.374 . S
C2562 H2536 0.950 . S
C2562 C2558 1.385 . S
C2562 C2561 1.374 . S
C2563 C2560 1.499 . S
C2563 C2564 1.373 . S
C2563 C2565 1.389 . S
C2564 H2537 0.950 . S
C2564 C2550 1.377 . S
C2564 C2563 1.373 . S
C2565 C2549 1.377 . S
C2565 C2563 1.389 . S
C2565 C2566 1.524 . S
C2566 C2565 1.524 . S
C2566 C2567 1.397 . S
C2566 C2571 1.363 . S
C2567 H2538 0.950 . S
C2567 C2566 1.397 . S
C2567 C2568 1.334 . S
C2568 H2539 0.950 . S
C2568 C2567 1.334 . S
C2568 C2569 1.287 . S
C2569 C2568 1.287 . S
C2569 C2570 1.524 . S
C2569 H2572 0.999 . S
C2570 H2540 0.950 . S
C2570 C2569 1.524 . S
C2570 C2571 1.415 . S
C2571 H2541 0.950 . S
C2571 C2566 1.363 . S
C2571 C2570 1.415 . S
H2572 C2569 0.999 . S
H2573 C2554 0.913 . S
H2574 C2592 0.951 . S
H2575 C2594 0.951 . S
H2576 C2596 0.950 . S
H2577 C2597 0.950 . S
H2578 C2599 0.950 . S
H2579 C2602 0.950 . S
H2580 C2603 0.950 . S
H2581 C2605 0.950 . S
H2582 C2606 0.950 . S
H2583 C2607 0.951 . S
H2584 C2609 0.951 . S
H2585 C2611 0.950 . S
H2586 C2612 0.950 . S
H2587 C2614 0.950 . S
H2588 C2617 0.950 . S
H2589 C2618 0.950 . S
H2590 C2620 0.950 . S
H2591 C2621 0.950 . S
C2592 H2574 0.951 . S
C2592 C2593 1.366 . S
C2592 C2594 1.388 . S
C2593 C2592 1.366 . S
C2593 C2597 1.385 . S
C2594 H2575 0.951 . S
C2594 C2592 1.388 . S
C2594 C2595 1.366 . S
C2595 C2594 1.366 . S
C2595 C2596 1.414 . S
C2595 C2598 1.499 . S
C2596 H2576 0.950 . S
C2596 C2595 1.414 . S
C2596 C2597 1.374 . S
C2597 H2577 0.950 . S
C2597 C2593 1.385 . S
C2597 C2596 1.374 . S
C2598 C2595 1.499 . S
C2598 C2599 1.373 . S
C2598 C2600 1.389 . S
C2599 H2578 0.950 . S
C2599 C2598 1.373 . S
C2599 C2615 1.377 . S
C2600 C2598 1.389 . S
C2600 C2601 1.524 . S
C2600 C2614 1.377 . S
C2601 C2600 1.524 . S
C2601 C2602 1.397 . S
C2601 C2606 1.363 . S
C2602 H2579 0.950 . S
C2602 C2601 1.397 . S
C2602 C2603 1.334 . S
C2603 H2580 0.950 . S
C2603 C2602 1.334 . S
C2603 C2604 1.287 . S
C2604 C2603 1.287 . S
C2604 C2605 1.524 . S
C2604 H2623 0.913 . S
C2605 H2581 0.950 . S
C2605 C2604 1.524 . S
C2605 C2606 1.415 . S
C2606 H2582 0.950 . S
C2606 C2601 1.363 . S
C2606 C2605 1.415 . S
C2607 H2583 0.951 . S
C2607 C2608 1.366 . S
C2607 C2609 1.388 . S
C2608 C2607 1.366 . S
C2608 C2612 1.385 . S
C2609 H2584 0.951 . S
C2609 C2607 1.388 . S
C2609 C2610 1.366 . S
C2610 C2609 1.366 . S
C2610 C2611 1.414 . S
C2610 C2613 1.499 . S
C2611 H2585 0.950 . S
C2611 C2610 1.414 . S
C2611 C2612 1.374 . S
C2612 H2586 0.950 . S
C2612 C2608 1.385 . S
C2612 C2611 1.374 . S
C2613 C2610 1.499 . S
C2613 C2614 1.373 . S
C2613 C2615 1.389 . S
C2614 H2587 0.950 . S
C2614 C2600 1.377 . S
C2614 C2613 1.373 . S
C2615 C2599 1.377 . S
C2615 C2613 1.389 . S
C2615 C2616 1.524 . S
C2616 C2615 1.524 . S
C2616 C2617 1.397 . S
C2616 C2621 1.363 . S
C2617 H2588 0.950 . S
C2617 C2616 1.397 . S
C2617 C2618 1.334 . S
C2618 H2589 0.950 . S
C2618 C2617 1.334 . S
C2618 C2619 1.287 . S
C2619 C2618 1.287 . S
C2619 C2620 1.524 . S
C2619 H2622 0.999 . S
C2620 H2590 0.950 . S
C2620 C2619 1.524 . S
C2620 C2621 1.415 . S
C2621 H2591 0.950 . S
C2621 C2616 1.363 . S
C2621 C2620 1.415 . S
H2622 C2619 0.999 . S
H2623 C2604 0.913 . S
H2624 C2642 0.951 . S
H2625 C2644 0.951 . S
H2626 C2646 0.950 . S
H2627 C2647 0.950 . S
H2628 C2649 0.950 . S
H2629 C2652 0.950 . S
H2630 C2653 0.950 . S
H2631 C2655 0.950 . S
H2632 C2656 0.950 . S
H2633 C2657 0.951 . S
H2634 C2659 0.951 . S
H2635 C2661 0.950 . S
H2636 C2662 0.950 . S
H2637 C2664 0.950 . S
H2638 C2667 0.950 . S
H2639 C2668 0.950 . S
H2640 C2670 0.950 . S
H2641 C2671 0.950 . S
C2642 H2624 0.951 . S
C2642 C2643 1.366 . S
C2642 C2644 1.388 . S
C2643 C2642 1.366 . S
C2643 C2647 1.385 . S
C2644 H2625 0.951 . S
C2644 C2642 1.388 . S
C2644 C2645 1.366 . S
C2645 C2644 1.366 . S
C2645 C2646 1.414 . S
C2645 C2648 1.499 . S
C2646 H2626 0.950 . S
C2646 C2645 1.414 . S
C2646 C2647 1.374 . S
C2647 H2627 0.950 . S
C2647 C2643 1.385 . S
C2647 C2646 1.374 . S
C2648 C2645 1.499 . S
C2648 C2649 1.373 . S
C2648 C2650 1.389 . S
C2649 H2628 0.950 . S
C2649 C2648 1.373 . S
C2649 C2665 1.377 . S
C2650 C2648 1.389 . S
C2650 C2651 1.524 . S
C2650 C2664 1.377 . S
C2651 C2650 1.524 . S
C2651 C2652 1.397 . S
C2651 C2656 1.363 . S
C2652 H2629 0.950 . S
C2652 C2651 1.397 . S
C2652 C2653 1.334 . S
C2653 H2630 0.950 . S
C2653 C2652 1.334 . S
C2653 C2654 1.287 . S
C2654 C2653 1.287 . S
C2654 C2655 1.524 . S
C2654 H2673 0.913 . S
C2655 H2631 0.950 . S
C2655 C2654 1.524 . S
C2655 C2656 1.415 . S
C2656 H2632 0.950 . S
C2656 C2651 1.363 . S
C2656 C2655 1.415 . S
C2657 H2633 0.951 . S
C2657 C2658 1.366 . S
C2657 C2659 1.388 . S
C2658 C2657 1.366 . S
C2658 C2662 1.385 . S
C2659 H2634 0.951 . S
C2659 C2657 1.388 . S
C2659 C2660 1.366 . S
C2660 C2659 1.366 . S
C2660 C2661 1.414 . S
C2660 C2663 1.499 . S
C2661 H2635 0.950 . S
C2661 C2660 1.414 . S
C2661 C2662 1.374 . S
C2662 H2636 0.950 . S
C2662 C2658 1.385 . S
C2662 C2661 1.374 . S
C2663 C2660 1.499 . S
C2663 C2664 1.373 . S
C2663 C2665 1.389 . S
C2664 H2637 0.950 . S
C2664 C2650 1.377 . S
C2664 C2663 1.373 . S
C2665 C2649 1.377 . S
C2665 C2663 1.389 . S
C2665 C2666 1.524 . S
C2666 C2665 1.524 . S
C2666 C2667 1.397 . S
C2666 C2671 1.363 . S
C2667 H2638 0.950 . S
C2667 C2666 1.397 . S
C2667 C2668 1.334 . S
C2668 H2639 0.950 . S
C2668 C2667 1.334 . S
C2668 C2669 1.287 . S
C2669 C2668 1.287 . S
C2669 C2670 1.524 . S
C2669 H2672 0.999 . S
C2670 H2640 0.950 . S
C2670 C2669 1.524 . S
C2670 C2671 1.415 . S
C2671 H2641 0.950 . S
C2671 C2666 1.363 . S
C2671 C2670 1.415 . S
H2672 C2669 0.999 . S
H2673 C2654 0.913 . S
H2674 C2692 0.951 . S
H2675 C2694 0.951 . S
H2676 C2696 0.950 . S
H2677 C2697 0.950 . S
H2678 C2699 0.950 . S
H2679 C2702 0.950 . S
H2680 C2703 0.950 . S
H2681 C2705 0.950 . S
H2682 C2706 0.950 . S
H2683 C2707 0.951 . S
H2684 C2709 0.951 . S
H2685 C2711 0.950 . S
H2686 C2712 0.950 . S
H2687 C2714 0.950 . S
H2688 C2717 0.950 . S
H2689 C2718 0.950 . S
H2690 C2720 0.950 . S
H2691 C2721 0.950 . S
C2692 H2674 0.951 . S
C2692 C2693 1.366 . S
C2692 C2694 1.388 . S
C2693 C2692 1.366 . S
C2693 C2697 1.385 . S
C2694 H2675 0.951 . S
C2694 C2692 1.388 . S
C2694 C2695 1.366 . S
C2695 C2694 1.366 . S
C2695 C2696 1.414 . S
C2695 C2698 1.499 . S
C2696 H2676 0.950 . S
C2696 C2695 1.414 . S
C2696 C2697 1.374 . S
C2697 H2677 0.950 . S
C2697 C2693 1.385 . S
C2697 C2696 1.374 . S
C2698 C2695 1.499 . S
C2698 C2699 1.373 . S
C2698 C2700 1.389 . S
C2699 H2678 0.950 . S
C2699 C2698 1.373 . S
C2699 C2715 1.377 . S
C2700 C2698 1.389 . S
C2700 C2701 1.524 . S
C2700 C2714 1.377 . S
C2701 C2700 1.524 . S
C2701 C2702 1.397 . S
C2701 C2706 1.363 . S
C2702 H2679 0.950 . S
C2702 C2701 1.397 . S
C2702 C2703 1.334 . S
C2703 H2680 0.950 . S
C2703 C2702 1.334 . S
C2703 C2704 1.287 . S
C2704 C2703 1.287 . S
C2704 C2705 1.524 . S
C2704 H2723 0.913 . S
C2705 H2681 0.950 . S
C2705 C2704 1.524 . S
C2705 C2706 1.415 . S
C2706 H2682 0.950 . S
C2706 C2701 1.363 . S
C2706 C2705 1.415 . S
C2707 H2683 0.951 . S
C2707 C2708 1.366 . S
C2707 C2709 1.388 . S
C2708 C2707 1.366 . S
C2708 C2712 1.385 . S
C2709 H2684 0.951 . S
C2709 C2707 1.388 . S
C2709 C2710 1.366 . S
C2710 C2709 1.366 . S
C2710 C2711 1.414 . S
C2710 C2713 1.499 . S
C2711 H2685 0.950 . S
C2711 C2710 1.414 . S
C2711 C2712 1.374 . S
C2712 H2686 0.950 . S
C2712 C2708 1.385 . S
C2712 C2711 1.374 . S
C2713 C2710 1.499 . S
C2713 C2714 1.373 . S
C2713 C2715 1.389 . S
C2714 H2687 0.950 . S
C2714 C2700 1.377 . S
C2714 C2713 1.373 . S
C2715 C2699 1.377 . S
C2715 C2713 1.389 . S
C2715 C2716 1.524 . S
C2716 C2715 1.524 . S
C2716 C2717 1.397 . S
C2716 C2721 1.363 . S
C2717 H2688 0.950 . S
C2717 C2716 1.397 . S
C2717 C2718 1.334 . S
C2718 H2689 0.950 . S
C2718 C2717 1.334 . S
C2718 C2719 1.287 . S
C2719 C2718 1.287 . S
C2719 C2720 1.524 . S
C2719 H2722 0.999 . S
C2720 H2690 0.950 . S
C2720 C2719 1.524 . S
C2720 C2721 1.415 . S
C2721 H2691 0.950 . S
C2721 C2716 1.363 . S
C2721 C2720 1.415 . S
H2722 C2719 0.999 . S
H2723 C2704 0.913 . S
H2724 C2742 0.951 . S
H2725 C2744 0.951 . S
H2726 C2746 0.950 . S
H2727 C2747 0.950 . S
H2728 C2749 0.950 . S
H2729 C2752 0.950 . S
H2730 C2753 0.950 . S
H2731 C2755 0.950 . S
H2732 C2756 0.950 . S
H2733 C2757 0.951 . S
H2734 C2759 0.951 . S
H2735 C2761 0.950 . S
H2736 C2762 0.950 . S
H2737 C2764 0.950 . S
H2738 C2767 0.950 . S
H2739 C2768 0.950 . S
H2740 C2770 0.950 . S
H2741 C2771 0.950 . S
C2742 H2724 0.951 . S
C2742 C2743 1.366 . S
C2742 C2744 1.388 . S
C2743 C2742 1.366 . S
C2743 C2747 1.385 . S
C2744 H2725 0.951 . S
C2744 C2742 1.388 . S
C2744 C2745 1.366 . S
C2745 C2744 1.366 . S
C2745 C2746 1.414 . S
C2745 C2748 1.499 . S
C2746 H2726 0.950 . S
C2746 C2745 1.414 . S
C2746 C2747 1.374 . S
C2747 H2727 0.950 . S
C2747 C2743 1.385 . S
C2747 C2746 1.374 . S
C2748 C2745 1.499 . S
C2748 C2749 1.373 . S
C2748 C2750 1.389 . S
C2749 H2728 0.950 . S
C2749 C2748 1.373 . S
C2749 C2765 1.377 . S
C2750 C2748 1.389 . S
C2750 C2751 1.524 . S
C2750 C2764 1.377 . S
C2751 C2750 1.524 . S
C2751 C2752 1.397 . S
C2751 C2756 1.363 . S
C2752 H2729 0.950 . S
C2752 C2751 1.397 . S
C2752 C2753 1.334 . S
C2753 H2730 0.950 . S
C2753 C2752 1.334 . S
C2753 C2754 1.287 . S
C2754 C2753 1.287 . S
C2754 C2755 1.524 . S
C2754 H2773 0.913 . S
C2755 H2731 0.950 . S
C2755 C2754 1.524 . S
C2755 C2756 1.415 . S
C2756 H2732 0.950 . S
C2756 C2751 1.363 . S
C2756 C2755 1.415 . S
C2757 H2733 0.951 . S
C2757 C2758 1.366 . S
C2757 C2759 1.388 . S
C2758 C2757 1.366 . S
C2758 C2762 1.385 . S
C2759 H2734 0.951 . S
C2759 C2757 1.388 . S
C2759 C2760 1.366 . S
C2760 C2759 1.366 . S
C2760 C2761 1.414 . S
C2760 C2763 1.499 . S
C2761 H2735 0.950 . S
C2761 C2760 1.414 . S
C2761 C2762 1.374 . S
C2762 H2736 0.950 . S
C2762 C2758 1.385 . S
C2762 C2761 1.374 . S
C2763 C2760 1.499 . S
C2763 C2764 1.373 . S
C2763 C2765 1.389 . S
C2764 H2737 0.950 . S
C2764 C2750 1.377 . S
C2764 C2763 1.373 . S
C2765 C2749 1.377 . S
C2765 C2763 1.389 . S
C2765 C2766 1.524 . S
C2766 C2765 1.524 . S
C2766 C2767 1.397 . S
C2766 C2771 1.363 . S
C2767 H2738 0.950 . S
C2767 C2766 1.397 . S
C2767 C2768 1.334 . S
C2768 H2739 0.950 . S
C2768 C2767 1.334 . S
C2768 C2769 1.287 . S
C2769 C2768 1.287 . S
C2769 C2770 1.524 . S
C2769 H2772 0.999 . S
C2770 H2740 0.950 . S
C2770 C2769 1.524 . S
C2770 C2771 1.415 . S
C2771 H2741 0.950 . S
C2771 C2766 1.363 . S
C2771 C2770 1.415 . S
H2772 C2769 0.999 . S
H2773 C2754 0.913 . S
H2774 C2792 0.951 . S
H2775 C2794 0.951 . S
H2776 C2796 0.950 . S
H2777 C2797 0.950 . S
H2778 C2799 0.950 . S
H2779 C2802 0.950 . S
H2780 C2803 0.950 . S
H2781 C2805 0.950 . S
H2782 C2806 0.950 . S
H2783 C2807 0.951 . S
H2784 C2809 0.951 . S
H2785 C2811 0.950 . S
H2786 C2812 0.950 . S
H2787 C2814 0.950 . S
H2788 C2817 0.950 . S
H2789 C2818 0.950 . S
H2790 C2820 0.950 . S
H2791 C2821 0.950 . S
C2792 H2774 0.951 . S
C2792 C2793 1.366 . S
C2792 C2794 1.388 . S
C2793 C2792 1.366 . S
C2793 C2797 1.385 . S
C2794 H2775 0.951 . S
C2794 C2792 1.388 . S
C2794 C2795 1.366 . S
C2795 C2794 1.366 . S
C2795 C2796 1.414 . S
C2795 C2798 1.499 . S
C2796 H2776 0.950 . S
C2796 C2795 1.414 . S
C2796 C2797 1.374 . S
C2797 H2777 0.950 . S
C2797 C2793 1.385 . S
C2797 C2796 1.374 . S
C2798 C2795 1.499 . S
C2798 C2799 1.373 . S
C2798 C2800 1.389 . S
C2799 H2778 0.950 . S
C2799 C2798 1.373 . S
C2799 C2815 1.377 . S
C2800 C2798 1.389 . S
C2800 C2801 1.524 . S
C2800 C2814 1.377 . S
C2801 C2800 1.524 . S
C2801 C2802 1.397 . S
C2801 C2806 1.363 . S
C2802 H2779 0.950 . S
C2802 C2801 1.397 . S
C2802 C2803 1.334 . S
C2803 H2780 0.950 . S
C2803 C2802 1.334 . S
C2803 C2804 1.287 . S
C2804 C2803 1.287 . S
C2804 C2805 1.524 . S
C2804 H2823 0.913 . S
C2805 H2781 0.950 . S
C2805 C2804 1.524 . S
C2805 C2806 1.415 . S
C2806 H2782 0.950 . S
C2806 C2801 1.363 . S
C2806 C2805 1.415 . S
C2807 H2783 0.951 . S
C2807 C2808 1.366 . S
C2807 C2809 1.388 . S
C2808 C2807 1.366 . S
C2808 C2812 1.385 . S
C2809 H2784 0.951 . S
C2809 C2807 1.388 . S
C2809 C2810 1.366 . S
C2810 C2809 1.366 . S
C2810 C2811 1.414 . S
C2810 C2813 1.499 . S
C2811 H2785 0.950 . S
C2811 C2810 1.414 . S
C2811 C2812 1.374 . S
C2812 H2786 0.950 . S
C2812 C2808 1.385 . S
C2812 C2811 1.374 . S
C2813 C2810 1.499 . S
C2813 C2814 1.373 . S
C2813 C2815 1.389 . S
C2814 H2787 0.950 . S
C2814 C2800 1.377 . S
C2814 C2813 1.373 . S
C2815 C2799 1.377 . S
C2815 C2813 1.389 . S
C2815 C2816 1.524 . S
C2816 C2815 1.524 . S
C2816 C2817 1.397 . S
C2816 C2821 1.363 . S
C2817 H2788 0.950 . S
C2817 C2816 1.397 . S
C2817 C2818 1.334 . S
C2818 H2789 0.950 . S
C2818 C2817 1.334 . S
C2818 C2819 1.287 . S
C2819 C2818 1.287 . S
C2819 C2820 1.524 . S
C2819 H2822 0.999 . S
C2820 H2790 0.950 . S
C2820 C2819 1.524 . S
C2820 C2821 1.415 . S
C2821 H2791 0.950 . S
C2821 C2816 1.363 . S
C2821 C2820 1.415 . S
H2822 C2819 0.999 . S
H2823 C2804 0.913 . S
H2824 C2842 0.951 . S
H2825 C2844 0.951 . S
H2826 C2846 0.950 . S
H2827 C2847 0.950 . S
H2828 C2849 0.950 . S
H2829 C2852 0.950 . S
H2830 C2853 0.950 . S
H2831 C2855 0.950 . S
H2832 C2856 0.950 . S
H2833 C2857 0.951 . S
H2834 C2859 0.951 . S
H2835 C2861 0.950 . S
H2836 C2862 0.950 . S
H2837 C2864 0.950 . S
H2838 C2867 0.950 . S
H2839 C2868 0.950 . S
H2840 C2870 0.950 . S
H2841 C2871 0.950 . S
C2842 H2824 0.951 . S
C2842 C2843 1.366 . S
C2842 C2844 1.388 . S
C2843 C2842 1.366 . S
C2843 C2847 1.385 . S
C2844 H2825 0.951 . S
C2844 C2842 1.388 . S
C2844 C2845 1.366 . S
C2845 C2844 1.366 . S
C2845 C2846 1.414 . S
C2845 C2848 1.499 . S
C2846 H2826 0.950 . S
C2846 C2845 1.414 . S
C2846 C2847 1.374 . S
C2847 H2827 0.950 . S
C2847 C2843 1.385 . S
C2847 C2846 1.374 . S
C2848 C2845 1.499 . S
C2848 C2849 1.373 . S
C2848 C2850 1.389 . S
C2849 H2828 0.950 . S
C2849 C2848 1.373 . S
C2849 C2865 1.377 . S
C2850 C2848 1.389 . S
C2850 C2851 1.524 . S
C2850 C2864 1.377 1_455 S
C2851 C2850 1.524 . S
C2851 C2852 1.397 . S
C2851 C2856 1.363 1_455 S
C2852 H2829 0.950 . S
C2852 C2851 1.397 . S
C2852 C2853 1.334 . S
C2853 H2830 0.950 . S
C2853 C2852 1.334 . S
C2853 C2854 1.287 . S
C2854 C2853 1.287 . S
C2854 C2855 1.524 1_455 S
C2854 H2873 0.913 . S
C2855 H2831 0.950 . S
C2855 C2854 1.524 1_655 S
C2855 C2856 1.415 . S
C2856 H2832 0.950 . S
C2856 C2851 1.363 1_655 S
C2856 C2855 1.415 . S
C2857 H2833 0.951 . S
C2857 C2858 1.366 . S
C2857 C2859 1.388 . S
C2858 C2857 1.366 . S
C2858 C2862 1.385 . S
C2859 H2834 0.951 . S
C2859 C2857 1.388 . S
C2859 C2860 1.366 . S
C2860 C2859 1.366 . S
C2860 C2861 1.414 . S
C2860 C2863 1.499 . S
C2861 H2835 0.950 . S
C2861 C2860 1.414 . S
C2861 C2862 1.374 . S
C2862 H2836 0.950 . S
C2862 C2858 1.385 . S
C2862 C2861 1.374 . S
C2863 C2860 1.499 . S
C2863 C2864 1.373 . S
C2863 C2865 1.389 1_655 S
C2864 H2837 0.950 . S
C2864 C2850 1.377 1_655 S
C2864 C2863 1.373 . S
C2865 C2849 1.377 . S
C2865 C2863 1.389 1_455 S
C2865 C2866 1.524 . S
C2866 C2865 1.524 . S
C2866 C2867 1.397 1_455 S
C2866 C2871 1.363 . S
C2867 H2838 0.950 . S
C2867 C2866 1.397 1_655 S
C2867 C2868 1.334 1_556 S
C2868 H2839 0.950 . S
C2868 C2867 1.334 1_554 S
C2868 C2869 1.287 1_655 S
C2869 C2868 1.287 1_455 S
C2869 C2870 1.524 . S
C2869 H2872 0.999 . S
C2870 H2840 0.950 . S
C2870 C2869 1.524 . S
C2870 C2871 1.415 1_554 S
C2871 H2841 0.950 . S
C2871 C2866 1.363 . S
C2871 C2870 1.415 1_556 S
H2872 C2869 0.999 . S
H2873 C2854 0.913 . S
H2874 C2892 0.951 . S
H2875 C2894 0.951 . S
H2876 C2896 0.950 . S
H2877 C2897 0.950 . S
H2878 C2899 0.950 . S
H2879 C2902 0.950 . S
H2880 C2903 0.950 . S
H2881 C2905 0.950 . S
H2882 C2906 0.950 . S
H2883 C2907 0.951 . S
H2884 C2909 0.951 . S
H2885 C2911 0.950 . S
H2886 C2912 0.950 . S
H2887 C2914 0.950 . S
H2888 C2917 0.950 . S
H2889 C2918 0.950 . S
H2890 C2920 0.950 . S
H2891 C2921 0.950 . S
C2892 H2874 0.951 . S
C2892 C2893 1.366 . S
C2892 C2894 1.388 . S
C2893 C2892 1.366 . S
C2893 C2897 1.385 . S
C2894 H2875 0.951 . S
C2894 C2892 1.388 . S
C2894 C2895 1.366 . S
C2895 C2894 1.366 . S
C2895 C2896 1.414 . S
C2895 C2898 1.499 . S
C2896 H2876 0.950 . S
C2896 C2895 1.414 . S
C2896 C2897 1.374 . S
C2897 H2877 0.950 . S
C2897 C2893 1.385 . S
C2897 C2896 1.374 . S
C2898 C2895 1.499 . S
C2898 C2899 1.373 . S
C2898 C2900 1.389 . S
C2899 H2878 0.950 . S
C2899 C2898 1.373 . S
C2899 C2915 1.377 . S
C2900 C2898 1.389 . S
C2900 C2901 1.524 . S
C2900 C2914 1.377 . S
C2901 C2900 1.524 . S
C2901 C2902 1.397 . S
C2901 C2906 1.363 . S
C2902 H2879 0.950 . S
C2902 C2901 1.397 . S
C2902 C2903 1.334 . S
C2903 H2880 0.950 . S
C2903 C2902 1.334 . S
C2903 C2904 1.287 . S
C2904 C2903 1.287 . S
C2904 C2905 1.524 . S
C2904 H2923 0.913 . S
C2905 H2881 0.950 . S
C2905 C2904 1.524 . S
C2905 C2906 1.415 . S
C2906 H2882 0.950 . S
C2906 C2901 1.363 . S
C2906 C2905 1.415 . S
C2907 H2883 0.951 . S
C2907 C2908 1.366 . S
C2907 C2909 1.388 . S
C2908 C2907 1.366 . S
C2908 C2912 1.385 . S
C2909 H2884 0.951 . S
C2909 C2907 1.388 . S
C2909 C2910 1.366 . S
C2910 C2909 1.366 . S
C2910 C2911 1.414 . S
C2910 C2913 1.499 . S
C2911 H2885 0.950 . S
C2911 C2910 1.414 . S
C2911 C2912 1.374 . S
C2912 H2886 0.950 . S
C2912 C2908 1.385 . S
C2912 C2911 1.374 . S
C2913 C2910 1.499 . S
C2913 C2914 1.373 . S
C2913 C2915 1.389 . S
C2914 H2887 0.950 . S
C2914 C2900 1.377 . S
C2914 C2913 1.373 . S
C2915 C2899 1.377 . S
C2915 C2913 1.389 . S
C2915 C2916 1.524 . S
C2916 C2915 1.524 . S
C2916 C2917 1.397 . S
C2916 C2921 1.363 . S
C2917 H2888 0.950 . S
C2917 C2916 1.397 . S
C2917 C2918 1.334 . S
C2918 H2889 0.950 . S
C2918 C2917 1.334 . S
C2918 C2919 1.287 . S
C2919 C2918 1.287 . S
C2919 C2920 1.524 . S
C2919 H2922 0.999 . S
C2920 H2890 0.950 . S
C2920 C2919 1.524 . S
C2920 C2921 1.415 . S
C2921 H2891 0.950 . S
C2921 C2916 1.363 . S
C2921 C2920 1.415 . S
H2922 C2919 0.999 . S
H2923 C2904 0.913 . S
H2924 C2942 0.951 . S
H2925 C2944 0.951 . S
H2926 C2946 0.950 . S
H2927 C2947 0.950 . S
H2928 C2949 0.950 . S
H2929 C2952 0.950 . S
H2930 C2953 0.950 . S
H2931 C2955 0.950 . S
H2932 C2956 0.950 . S
H2933 C2957 0.951 . S
H2934 C2959 0.951 . S
H2935 C2961 0.950 . S
H2936 C2962 0.950 . S
H2937 C2964 0.950 . S
H2938 C2967 0.950 . S
H2939 C2968 0.954 . S
H2940 C2970 0.956 . S
H2941 C2971 0.950 . S
C2942 H2924 0.951 . S
C2942 C2943 1.366 . S
C2942 C2944 1.388 . S
C2943 C2942 1.366 . S
C2943 C2947 1.385 . S
C2944 H2925 0.951 . S
C2944 C2942 1.388 . S
C2944 C2945 1.366 . S
C2945 C2944 1.366 . S
C2945 C2946 1.414 . S
C2945 C2948 1.499 . S
C2946 H2926 0.950 . S
C2946 C2945 1.414 . S
C2946 C2947 1.374 . S
C2947 H2927 0.950 . S
C2947 C2943 1.385 . S
C2947 C2946 1.374 . S
C2948 C2945 1.499 . S
C2948 C2949 1.373 . S
C2948 C2950 1.389 . S
C2949 H2928 0.950 . S
C2949 C2948 1.373 . S
C2949 C2965 1.377 . S
C2950 C2948 1.389 . S
C2950 C2951 1.524 . S
C2950 C2964 1.377 . S
C2951 C2950 1.524 . S
C2951 C2952 1.397 . S
C2951 C2956 1.363 . S
C2952 H2929 0.950 . S
C2952 C2951 1.397 . S
C2952 C2953 1.334 . S
C2953 H2930 0.950 . S
C2953 C2952 1.334 . S
C2953 C2954 1.287 . S
C2954 C2953 1.287 . S
C2954 C2955 1.524 . S
C2954 H2973 0.913 . S
C2955 H2931 0.950 . S
C2955 C2954 1.524 . S
C2955 C2956 1.415 . S
C2956 H2932 0.950 . S
C2956 C2951 1.363 . S
C2956 C2955 1.415 . S
C2957 H2933 0.951 . S
C2957 C2958 1.366 . S
C2957 C2959 1.388 . S
C2958 C2957 1.366 . S
C2958 C2962 1.385 . S
C2959 H2934 0.951 . S
C2959 C2957 1.388 . S
C2959 C2960 1.366 . S
C2960 C2959 1.366 . S
C2960 C2961 1.414 . S
C2960 C2963 1.499 . S
C2961 H2935 0.950 . S
C2961 C2960 1.414 . S
C2961 C2962 1.374 . S
C2962 H2936 0.950 . S
C2962 C2958 1.385 . S
C2962 C2961 1.374 . S
C2963 C2960 1.499 . S
C2963 C2964 1.373 . S
C2963 C2965 1.389 . S
C2964 H2937 0.950 . S
C2964 C2950 1.377 . S
C2964 C2963 1.373 . S
C2965 C2949 1.377 . S
C2965 C2963 1.389 . S
C2965 C2966 1.524 . S
C2966 C2965 1.524 . S
C2966 C2967 1.397 . S
C2966 C2971 1.363 . S
C2967 H2938 0.950 . S
C2967 C2966 1.397 . S
C2967 C2968 1.334 . S
C2968 H2939 0.954 . S
C2968 C2967 1.334 . S
C2968 C2969 1.287 1_545 S
C2969 C2968 1.287 1_565 S
C2969 C2970 1.526 . S
C2969 H2972 0.999 . S
C2970 H2940 0.956 . S
C2970 C2969 1.526 . S
C2970 C2971 1.406 1_565 S
C2971 H2941 0.950 . S
C2971 C2966 1.363 . S
C2971 C2970 1.406 1_545 S
H2972 C2969 0.999 . S
H2973 C2954 0.913 . S
H2974 C2992 0.951 . S
H2975 C2994 0.951 . S
H2976 C2996 0.950 . S
H2977 C2997 0.950 . S
H2978 C2999 0.950 . S
H2979 C3002 0.950 . S
H2980 C3003 0.950 . S
H2981 C3005 0.950 . S
H2982 C3006 0.950 . S
H2983 C3007 0.951 . S
H2984 C3009 0.951 . S
H2985 C3011 0.950 . S
H2986 C3012 0.950 . S
H2987 C3014 0.950 . S
H2988 C3017 0.950 . S
H2989 C3018 1.012 . S
H2990 C3020 0.950 . S
H2991 C3021 0.950 . S
C2992 H2974 0.951 . S
C2992 C2993 1.366 . S
C2992 C2994 1.388 . S
C2993 C2992 1.366 . S
C2993 C2997 1.385 . S
C2994 H2975 0.951 . S
C2994 C2992 1.388 . S
C2994 C2995 1.366 . S
C2995 C2994 1.366 . S
C2995 C2996 1.414 . S
C2995 C2998 1.499 . S
C2996 H2976 0.950 . S
C2996 C2995 1.414 . S
C2996 C2997 1.374 . S
C2997 H2977 0.950 . S
C2997 C2993 1.385 . S
C2997 C2996 1.374 . S
C2998 C2995 1.499 . S
C2998 C2999 1.373 . S
C2998 C3000 1.389 . S
C2999 H2978 0.950 . S
C2999 C2998 1.373 . S
C2999 C3015 1.377 . S
C3000 C2998 1.389 . S
C3000 C3001 1.524 . S
C3000 C3014 1.377 . S
C3001 C3000 1.524 . S
C3001 C3002 1.397 . S
C3001 C3006 1.363 . S
C3002 H2979 0.950 . S
C3002 C3001 1.397 . S
C3002 C3003 1.334 . S
C3003 H2980 0.950 . S
C3003 C3002 1.334 . S
C3003 C3004 1.287 . S
C3004 C3003 1.287 . S
C3004 C3005 1.524 . S
C3004 H3023 0.913 . S
C3005 H2981 0.950 . S
C3005 C3004 1.524 . S
C3005 C3006 1.415 . S
C3006 H2982 0.950 . S
C3006 C3001 1.363 . S
C3006 C3005 1.415 . S
C3007 H2983 0.951 . S
C3007 C3008 1.366 . S
C3007 C3009 1.388 . S
C3008 C3007 1.366 . S
C3008 C3012 1.385 . S
C3009 H2984 0.951 . S
C3009 C3007 1.388 . S
C3009 C3010 1.366 . S
C3010 C3009 1.366 . S
C3010 C3011 1.414 . S
C3010 C3013 1.499 . S
C3011 H2985 0.950 . S
C3011 C3010 1.414 . S
C3011 C3012 1.374 . S
C3012 H2986 0.950 . S
C3012 C3008 1.385 . S
C3012 C3011 1.374 . S
C3013 C3010 1.499 . S
C3013 C3014 1.373 . S
C3013 C3015 1.389 . S
C3014 H2987 0.950 . S
C3014 C3000 1.377 . S
C3014 C3013 1.373 . S
C3015 C2999 1.377 . S
C3015 C3013 1.389 . S
C3015 C3016 1.524 . S
C3016 C3015 1.524 . S
C3016 C3017 1.397 . S
C3016 C3021 1.363 . S
C3017 H2988 0.950 . S
C3017 C3016 1.397 . S
C3017 C3018 1.279 1_554 S
C3018 H2989 1.012 . S
C3018 C3017 1.279 1_556 S
C3018 C3019 1.280 1_556 S
C3019 C3018 1.280 1_554 S
C3019 C3020 1.561 . S
C3019 H3022 0.967 1_554 S
C3020 H2990 0.950 . S
C3020 C3019 1.561 . S
C3020 C3021 1.415 . S
C3021 H2991 0.950 . S
C3021 C3016 1.363 . S
C3021 C3020 1.415 . S
H3022 C3019 0.967 1_556 S
H3023 C3004 0.913 . S
H3024 C3042 0.951 . S
H3025 C3044 0.951 . S
H3026 C3046 0.950 . S
H3027 C3047 0.950 . S
H3028 C3049 0.950 . S
H3029 C3052 0.950 . S
H3030 C3053 0.950 . S
H3031 C3055 0.950 . S
H3032 C3056 0.950 . S
H3033 C3057 0.951 . S
H3034 C3059 0.951 . S
H3035 C3061 0.950 . S
H3036 C3062 0.950 . S
H3037 C3064 0.950 . S
H3038 C3067 0.950 . S
H3039 C3068 0.950 . S
H3040 C3070 0.950 . S
H3041 C3071 0.950 . S
C3042 H3024 0.951 . S
C3042 C3043 1.366 . S
C3042 C3044 1.388 . S
C3043 C3042 1.366 . S
C3043 C3047 1.385 . S
C3044 H3025 0.951 . S
C3044 C3042 1.388 . S
C3044 C3045 1.366 . S
C3045 C3044 1.366 . S
C3045 C3046 1.414 . S
C3045 C3048 1.499 . S
C3046 H3026 0.950 . S
C3046 C3045 1.414 . S
C3046 C3047 1.374 . S
C3047 H3027 0.950 . S
C3047 C3043 1.385 . S
C3047 C3046 1.374 . S
C3048 C3045 1.499 . S
C3048 C3049 1.373 . S
C3048 C3050 1.389 . S
C3049 H3028 0.950 . S
C3049 C3048 1.373 . S
C3049 C3065 1.377 . S
C3050 C3048 1.389 . S
C3050 C3051 1.524 . S
C3050 C3064 1.377 . S
C3051 C3050 1.524 . S
C3051 C3052 1.397 . S
C3051 C3056 1.363 . S
C3052 H3029 0.950 . S
C3052 C3051 1.397 . S
C3052 C3053 1.334 . S
C3053 H3030 0.950 . S
C3053 C3052 1.334 . S
C3053 C3054 1.287 . S
C3054 C3053 1.287 . S
C3054 C3055 1.524 . S
C3054 H3073 0.913 . S
C3055 H3031 0.950 . S
C3055 C3054 1.524 . S
C3055 C3056 1.415 . S
C3056 H3032 0.950 . S
C3056 C3051 1.363 . S
C3056 C3055 1.415 . S
C3057 H3033 0.951 . S
C3057 C3058 1.366 . S
C3057 C3059 1.388 . S
C3058 C3057 1.366 . S
C3058 C3062 1.385 . S
C3059 H3034 0.951 . S
C3059 C3057 1.388 . S
C3059 C3060 1.366 . S
C3060 C3059 1.366 . S
C3060 C3061 1.414 . S
C3060 C3063 1.499 . S
C3061 H3035 0.950 . S
C3061 C3060 1.414 . S
C3061 C3062 1.374 . S
C3062 H3036 0.950 . S
C3062 C3058 1.385 . S
C3062 C3061 1.374 . S
C3063 C3060 1.499 . S
C3063 C3064 1.373 . S
C3063 C3065 1.389 . S
C3064 H3037 0.950 . S
C3064 C3050 1.377 . S
C3064 C3063 1.373 . S
C3065 C3049 1.377 . S
C3065 C3063 1.389 . S
C3065 C3066 1.524 . S
C3066 C3065 1.524 . S
C3066 C3067 1.397 . S
C3066 C3071 1.363 . S
C3067 H3038 0.950 . S
C3067 C3066 1.397 . S
C3067 C3068 1.334 . S
C3068 H3039 0.950 . S
C3068 C3067 1.334 . S
C3068 C3069 1.287 . S
C3069 C3068 1.287 . S
C3069 C3070 1.524 . S
C3069 H3072 0.999 . S
C3070 H3040 0.950 . S
C3070 C3069 1.524 . S
C3070 C3071 1.415 . S
C3071 H3041 0.950 . S
C3071 C3066 1.363 . S
C3071 C3070 1.415 . S
H3072 C3069 0.999 . S
H3073 C3054 0.913 . S
H3074 C3092 0.951 . S
H3075 C3094 0.951 . S
H3076 C3096 0.950 . S
H3077 C3097 0.950 . S
H3078 C3099 0.950 . S
H3079 C3102 0.950 . S
H3080 C3103 0.950 . S
H3081 C3105 0.950 . S
H3082 C3106 0.950 . S
H3083 C3107 0.951 . S
H3084 C3109 0.951 . S
H3085 C3111 0.950 . S
H3086 C3112 0.950 . S
H3087 C3114 0.950 . S
H3088 C3117 0.950 . S
H3089 C3118 0.950 . S
H3090 C3120 0.950 . S
H3091 C3121 0.950 . S
C3092 H3074 0.951 . S
C3092 C3093 1.366 . S
C3092 C3094 1.388 . S
C3093 C3092 1.366 . S
C3093 C3097 1.385 . S
C3094 H3075 0.951 . S
C3094 C3092 1.388 . S
C3094 C3095 1.366 . S
C3095 C3094 1.366 . S
C3095 C3096 1.414 . S
C3095 C3098 1.499 . S
C3096 H3076 0.950 . S
C3096 C3095 1.414 . S
C3096 C3097 1.374 . S
C3097 H3077 0.950 . S
C3097 C3093 1.385 . S
C3097 C3096 1.374 . S
C3098 C3095 1.499 . S
C3098 C3099 1.373 . S
C3098 C3100 1.389 . S
C3099 H3078 0.950 . S
C3099 C3098 1.373 . S
C3099 C3115 1.377 . S
C3100 C3098 1.389 . S
C3100 C3101 1.524 . S
C3100 C3114 1.377 . S
C3101 C3100 1.524 . S
C3101 C3102 1.397 . S
C3101 C3106 1.363 . S
C3102 H3079 0.950 . S
C3102 C3101 1.397 . S
C3102 C3103 1.334 . S
C3103 H3080 0.950 . S
C3103 C3102 1.334 . S
C3103 C3104 1.287 . S
C3104 C3103 1.287 . S
C3104 C3105 1.524 . S
C3104 H3123 0.913 . S
C3105 H3081 0.950 . S
C3105 C3104 1.524 . S
C3105 C3106 1.415 . S
C3106 H3082 0.950 . S
C3106 C3101 1.363 . S
C3106 C3105 1.415 . S
C3107 H3083 0.951 . S
C3107 C3108 1.366 . S
C3107 C3109 1.388 . S
C3108 C3107 1.366 . S
C3108 C3112 1.385 . S
C3109 H3084 0.951 . S
C3109 C3107 1.388 . S
C3109 C3110 1.366 . S
C3110 C3109 1.366 . S
C3110 C3111 1.414 . S
C3110 C3113 1.499 . S
C3111 H3085 0.950 . S
C3111 C3110 1.414 . S
C3111 C3112 1.374 . S
C3112 H3086 0.950 . S
C3112 C3108 1.385 . S
C3112 C3111 1.374 . S
C3113 C3110 1.499 . S
C3113 C3114 1.373 . S
C3113 C3115 1.389 . S
C3114 H3087 0.950 . S
C3114 C3100 1.377 . S
C3114 C3113 1.373 . S
C3115 C3099 1.377 . S
C3115 C3113 1.389 . S
C3115 C3116 1.524 . S
C3116 C3115 1.524 . S
C3116 C3117 1.397 . S
C3116 C3121 1.363 . S
C3117 H3088 0.950 . S
C3117 C3116 1.397 . S
C3117 C3118 1.334 . S
C3118 H3089 0.950 . S
C3118 C3117 1.334 . S
C3118 C3119 1.287 . S
C3119 C3118 1.287 . S
C3119 C3120 1.524 . S
C3119 H3122 0.999 . S
C3120 H3090 0.950 . S
C3120 C3119 1.524 . S
C3120 C3121 1.415 . S
C3121 H3091 0.950 . S
C3121 C3116 1.363 . S
C3121 C3120 1.415 . S
H3122 C3119 0.999 . S
H3123 C3104 0.913 . S
H3124 C3142 0.951 . S
H3125 C3144 0.951 . S
H3126 C3146 0.950 . S
H3127 C3147 0.950 . S
H3128 C3149 0.950 . S
H3129 C3152 0.950 . S
H3130 C3153 0.950 . S
H3131 C3155 0.950 . S
H3132 C3156 0.950 . S
H3133 C3157 0.951 . S
H3134 C3159 0.951 . S
H3135 C3161 0.950 . S
H3136 C3162 0.950 . S
H3137 C3164 0.950 . S
H3138 C3167 0.950 . S
H3139 C3168 0.950 . S
H3140 C3170 0.950 . S
H3141 C3171 0.950 . S
C3142 H3124 0.951 . S
C3142 C3143 1.366 . S
C3142 C3144 1.388 . S
C3143 C3142 1.366 . S
C3143 C3147 1.385 . S
C3144 H3125 0.951 . S
C3144 C3142 1.388 . S
C3144 C3145 1.366 . S
C3145 C3144 1.366 . S
C3145 C3146 1.414 . S
C3145 C3148 1.499 . S
C3146 H3126 0.950 . S
C3146 C3145 1.414 . S
C3146 C3147 1.374 . S
C3147 H3127 0.950 . S
C3147 C3143 1.385 . S
C3147 C3146 1.374 . S
C3148 C3145 1.499 . S
C3148 C3149 1.373 . S
C3148 C3150 1.389 . S
C3149 H3128 0.950 . S
C3149 C3148 1.373 . S
C3149 C3165 1.377 . S
C3150 C3148 1.389 . S
C3150 C3151 1.524 . S
C3150 C3164 1.377 . S
C3151 C3150 1.524 . S
C3151 C3152 1.397 . S
C3151 C3156 1.363 . S
C3152 H3129 0.950 . S
C3152 C3151 1.397 . S
C3152 C3153 1.334 . S
C3153 H3130 0.950 . S
C3153 C3152 1.334 . S
C3153 C3154 1.287 . S
C3154 C3153 1.287 . S
C3154 C3155 1.524 . S
C3154 H3173 0.913 . S
C3155 H3131 0.950 . S
C3155 C3154 1.524 . S
C3155 C3156 1.415 . S
C3156 H3132 0.950 . S
C3156 C3151 1.363 . S
C3156 C3155 1.415 . S
C3157 H3133 0.951 . S
C3157 C3158 1.366 . S
C3157 C3159 1.388 . S
C3158 C3157 1.366 . S
C3158 C3162 1.385 . S
C3159 H3134 0.951 . S
C3159 C3157 1.388 . S
C3159 C3160 1.366 . S
C3160 C3159 1.366 . S
C3160 C3161 1.414 . S
C3160 C3163 1.499 . S
C3161 H3135 0.950 . S
C3161 C3160 1.414 . S
C3161 C3162 1.374 . S
C3162 H3136 0.950 . S
C3162 C3158 1.385 . S
C3162 C3161 1.374 . S
C3163 C3160 1.499 . S
C3163 C3164 1.373 . S
C3163 C3165 1.389 . S
C3164 H3137 0.950 . S
C3164 C3150 1.377 . S
C3164 C3163 1.373 . S
C3165 C3149 1.377 . S
C3165 C3163 1.389 . S
C3165 C3166 1.524 . S
C3166 C3165 1.524 . S
C3166 C3167 1.397 . S
C3166 C3171 1.363 . S
C3167 H3138 0.950 . S
C3167 C3166 1.397 . S
C3167 C3168 1.334 . S
C3168 H3139 0.950 . S
C3168 C3167 1.334 . S
C3168 C3169 1.287 . S
C3169 C3168 1.287 . S
C3169 C3170 1.524 . S
C3169 H3172 0.999 . S
C3170 H3140 0.950 . S
C3170 C3169 1.524 . S
C3170 C3171 1.415 . S
C3171 H3141 0.950 . S
C3171 C3166 1.363 . S
C3171 C3170 1.415 . S
H3172 C3169 0.999 . S
H3173 C3154 0.913 . S
H3174 C3192 0.951 . S
H3175 C3194 0.951 . S
H3176 C3196 0.950 . S
H3177 C3197 0.950 . S
H3178 C3199 0.950 . S
H3179 C3202 0.950 . S
H3180 C3203 0.950 . S
H3181 C3205 0.950 . S
H3182 C3206 0.950 . S
H3183 C3207 0.951 . S
H3184 C3209 0.951 . S
H3185 C3211 0.950 . S
H3186 C3212 0.950 . S
H3187 C3214 0.950 . S
H3188 C3217 0.950 . S
H3189 C3218 0.950 . S
H3190 C3220 0.950 . S
H3191 C3221 0.950 . S
C3192 H3174 0.951 . S
C3192 C3193 1.366 . S
C3192 C3194 1.388 . S
C3193 C3192 1.366 . S
C3193 C3197 1.385 . S
C3194 H3175 0.951 . S
C3194 C3192 1.388 . S
C3194 C3195 1.366 . S
C3195 C3194 1.366 . S
C3195 C3196 1.414 . S
C3195 C3198 1.499 . S
C3196 H3176 0.950 . S
C3196 C3195 1.414 . S
C3196 C3197 1.374 . S
C3197 H3177 0.950 . S
C3197 C3193 1.385 . S
C3197 C3196 1.374 . S
C3198 C3195 1.499 . S
C3198 C3199 1.373 . S
C3198 C3200 1.389 . S
C3199 H3178 0.950 . S
C3199 C3198 1.373 . S
C3199 C3215 1.377 . S
C3200 C3198 1.389 . S
C3200 C3201 1.524 . S
C3200 C3214 1.377 . S
C3201 C3200 1.524 . S
C3201 C3202 1.397 . S
C3201 C3206 1.363 . S
C3202 H3179 0.950 . S
C3202 C3201 1.397 . S
C3202 C3203 1.334 . S
C3203 H3180 0.950 . S
C3203 C3202 1.334 . S
C3203 C3204 1.287 . S
C3204 C3203 1.287 . S
C3204 C3205 1.524 . S
C3204 H3223 0.913 . S
C3205 H3181 0.950 . S
C3205 C3204 1.524 . S
C3205 C3206 1.415 . S
C3206 H3182 0.950 . S
C3206 C3201 1.363 . S
C3206 C3205 1.415 . S
C3207 H3183 0.951 . S
C3207 C3208 1.366 . S
C3207 C3209 1.388 . S
C3208 C3207 1.366 . S
C3208 C3212 1.385 . S
C3209 H3184 0.951 . S
C3209 C3207 1.388 . S
C3209 C3210 1.366 . S
C3210 C3209 1.366 . S
C3210 C3211 1.414 . S
C3210 C3213 1.499 . S
C3211 H3185 0.950 . S
C3211 C3210 1.414 . S
C3211 C3212 1.374 . S
C3212 H3186 0.950 . S
C3212 C3208 1.385 . S
C3212 C3211 1.374 . S
C3213 C3210 1.499 . S
C3213 C3214 1.373 . S
C3213 C3215 1.389 . S
C3214 H3187 0.950 . S
C3214 C3200 1.377 . S
C3214 C3213 1.373 . S
C3215 C3199 1.377 . S
C3215 C3213 1.389 . S
C3215 C3216 1.524 . S
C3216 C3215 1.524 . S
C3216 C3217 1.397 . S
C3216 C3221 1.363 . S
C3217 H3188 0.950 . S
C3217 C3216 1.397 . S
C3217 C3218 1.334 . S
C3218 H3189 0.950 . S
C3218 C3217 1.334 . S
C3218 C3219 1.287 . S
C3219 C3218 1.287 . S
C3219 C3220 1.524 . S
C3219 H3222 0.999 . S
C3220 H3190 0.950 . S
C3220 C3219 1.524 . S
C3220 C3221 1.415 . S
C3221 H3191 0.950 . S
C3221 C3216 1.363 . S
C3221 C3220 1.415 . S
H3222 C3219 0.999 . S
H3223 C3204 0.913 . S
H3224 C3242 0.951 . S
H3225 C3244 0.951 . S
H3226 C3246 0.950 . S
H3227 C3247 0.950 . S
H3228 C3249 0.950 . S
H3229 C3252 0.950 . S
H3230 C3253 0.950 . S
H3231 C3255 0.950 . S
H3232 C3256 0.950 . S
H3233 C3257 0.951 . S
H3234 C3259 0.951 . S
H3235 C3261 0.950 . S
H3236 C3262 0.950 . S
H3237 C3264 0.950 . S
H3238 C3267 0.950 . S
H3239 C3268 0.950 . S
H3240 C3270 0.950 . S
H3241 C3271 0.950 . S
C3242 H3224 0.951 . S
C3242 C3243 1.366 . S
C3242 C3244 1.388 . S
C3243 C3242 1.366 . S
C3243 C3247 1.385 . S
C3244 H3225 0.951 . S
C3244 C3242 1.388 . S
C3244 C3245 1.366 . S
C3245 C3244 1.366 . S
C3245 C3246 1.414 . S
C3245 C3248 1.499 . S
C3246 H3226 0.950 . S
C3246 C3245 1.414 . S
C3246 C3247 1.374 . S
C3247 H3227 0.950 . S
C3247 C3243 1.385 . S
C3247 C3246 1.374 . S
C3248 C3245 1.499 . S
C3248 C3249 1.373 . S
C3248 C3250 1.389 . S
C3249 H3228 0.950 . S
C3249 C3248 1.373 . S
C3249 C3265 1.377 . S
C3250 C3248 1.389 . S
C3250 C3251 1.524 . S
C3250 C3264 1.377 . S
C3251 C3250 1.524 . S
C3251 C3252 1.397 . S
C3251 C3256 1.363 . S
C3252 H3229 0.950 . S
C3252 C3251 1.397 . S
C3252 C3253 1.334 . S
C3253 H3230 0.950 . S
C3253 C3252 1.334 . S
C3253 C3254 1.287 . S
C3254 C3253 1.287 . S
C3254 C3255 1.524 . S
C3254 H3273 0.913 . S
C3255 H3231 0.950 . S
C3255 C3254 1.524 . S
C3255 C3256 1.415 . S
C3256 H3232 0.950 . S
C3256 C3251 1.363 . S
C3256 C3255 1.415 . S
C3257 H3233 0.951 . S
C3257 C3258 1.366 . S
C3257 C3259 1.388 . S
C3258 C3257 1.366 . S
C3258 C3262 1.385 . S
C3259 H3234 0.951 . S
C3259 C3257 1.388 . S
C3259 C3260 1.366 . S
C3260 C3259 1.366 . S
C3260 C3261 1.414 . S
C3260 C3263 1.499 . S
C3261 H3235 0.950 . S
C3261 C3260 1.414 . S
C3261 C3262 1.374 . S
C3262 H3236 0.950 . S
C3262 C3258 1.385 . S
C3262 C3261 1.374 . S
C3263 C3260 1.499 . S
C3263 C3264 1.373 . S
C3263 C3265 1.389 . S
C3264 H3237 0.950 . S
C3264 C3250 1.377 . S
C3264 C3263 1.373 . S
C3265 C3249 1.377 . S
C3265 C3263 1.389 . S
C3265 C3266 1.524 . S
C3266 C3265 1.524 . S
C3266 C3267 1.397 . S
C3266 C3271 1.363 . S
C3267 H3238 0.950 . S
C3267 C3266 1.397 . S
C3267 C3268 1.334 . S
C3268 H3239 0.950 . S
C3268 C3267 1.334 . S
C3268 C3269 1.287 . S
C3269 C3268 1.287 . S
C3269 C3270 1.524 . S
C3269 H3272 0.999 . S
C3270 H3240 0.950 . S
C3270 C3269 1.524 . S
C3270 C3271 1.415 . S
C3271 H3241 0.950 . S
C3271 C3266 1.363 . S
C3271 C3270 1.415 . S
H3272 C3269 0.999 . S
H3273 C3254 0.913 . S
H3274 C3292 0.951 . S
H3275 C3294 0.951 . S
H3276 C3296 0.950 . S
H3277 C3297 0.950 . S
H3278 C3299 0.950 . S
H3279 C3302 0.950 . S
H3280 C3303 0.950 . S
H3281 C3305 0.950 . S
H3282 C3306 0.950 . S
H3283 C3307 0.951 . S
H3284 C3309 0.951 . S
H3285 C3311 0.950 . S
H3286 C3312 0.950 . S
H3287 C3314 0.950 . S
H3288 C3317 0.950 . S
H3289 C3318 0.950 . S
H3290 C3320 0.950 . S
H3291 C3321 0.950 . S
C3292 H3274 0.951 . S
C3292 C3293 1.366 . S
C3292 C3294 1.388 . S
C3293 C3292 1.366 . S
C3293 C3297 1.385 . S
C3294 H3275 0.951 . S
C3294 C3292 1.388 . S
C3294 C3295 1.366 . S
C3295 C3294 1.366 . S
C3295 C3296 1.414 . S
C3295 C3298 1.499 . S
C3296 H3276 0.950 . S
C3296 C3295 1.414 . S
C3296 C3297 1.374 . S
C3297 H3277 0.950 . S
C3297 C3293 1.385 . S
C3297 C3296 1.374 . S
C3298 C3295 1.499 . S
C3298 C3299 1.373 . S
C3298 C3300 1.389 . S
C3299 H3278 0.950 . S
C3299 C3298 1.373 . S
C3299 C3315 1.377 . S
C3300 C3298 1.389 . S
C3300 C3301 1.524 . S
C3300 C3314 1.377 . S
C3301 C3300 1.524 . S
C3301 C3302 1.397 . S
C3301 C3306 1.363 . S
C3302 H3279 0.950 . S
C3302 C3301 1.397 . S
C3302 C3303 1.334 . S
C3303 H3280 0.950 . S
C3303 C3302 1.334 . S
C3303 C3304 1.287 . S
C3304 C3303 1.287 . S
C3304 C3305 1.524 . S
C3304 H3323 0.913 . S
C3305 H3281 0.950 . S
C3305 C3304 1.524 . S
C3305 C3306 1.415 . S
C3306 H3282 0.950 . S
C3306 C3301 1.363 . S
C3306 C3305 1.415 . S
C3307 H3283 0.951 . S
C3307 C3308 1.366 . S
C3307 C3309 1.388 . S
C3308 C3307 1.366 . S
C3308 C3312 1.385 . S
C3309 H3284 0.951 . S
C3309 C3307 1.388 . S
C3309 C3310 1.366 . S
C3310 C3309 1.366 . S
C3310 C3311 1.414 . S
C3310 C3313 1.499 . S
C3311 H3285 0.950 . S
C3311 C3310 1.414 . S
C3311 C3312 1.374 . S
C3312 H3286 0.950 . S
C3312 C3308 1.385 . S
C3312 C3311 1.374 . S
C3313 C3310 1.499 . S
C3313 C3314 1.373 . S
C3313 C3315 1.389 . S
C3314 H3287 0.950 . S
C3314 C3300 1.377 . S
C3314 C3313 1.373 . S
C3315 C3299 1.377 . S
C3315 C3313 1.389 . S
C3315 C3316 1.524 . S
C3316 C3315 1.524 . S
C3316 C3317 1.397 . S
C3316 C3321 1.363 . S
C3317 H3288 0.950 . S
C3317 C3316 1.397 . S
C3317 C3318 1.334 . S
C3318 H3289 0.950 . S
C3318 C3317 1.334 . S
C3318 C3319 1.287 . S
C3319 C3318 1.287 . S
C3319 C3320 1.524 . S
C3319 H3322 0.999 . S
C3320 H3290 0.950 . S
C3320 C3319 1.524 . S
C3320 C3321 1.415 . S
C3321 H3291 0.950 . S
C3321 C3316 1.363 . S
C3321 C3320 1.415 . S
H3322 C3319 0.999 . S
H3323 C3304 0.913 . S
H3324 C3342 0.951 . S
H3325 C3344 0.951 . S
H3326 C3346 0.950 . S
H3327 C3347 0.950 . S
H3328 C3349 0.950 . S
H3329 C3352 0.950 . S
H3330 C3353 0.950 . S
H3331 C3355 0.950 . S
H3332 C3356 0.950 . S
H3333 C3357 0.951 . S
H3334 C3359 0.951 . S
H3335 C3361 0.950 . S
H3336 C3362 0.950 . S
H3337 C3364 0.950 . S
H3338 C3367 0.950 . S
H3339 C3368 0.950 . S
H3340 C3370 0.950 . S
H3341 C3371 0.950 . S
C3342 H3324 0.951 . S
C3342 C3343 1.366 . S
C3342 C3344 1.388 . S
C3343 C3342 1.366 . S
C3343 C3347 1.385 . S
C3344 H3325 0.951 . S
C3344 C3342 1.388 . S
C3344 C3345 1.366 . S
C3345 C3344 1.366 . S
C3345 C3346 1.414 . S
C3345 C3348 1.499 . S
C3346 H3326 0.950 . S
C3346 C3345 1.414 . S
C3346 C3347 1.374 . S
C3347 H3327 0.950 . S
C3347 C3343 1.385 . S
C3347 C3346 1.374 . S
C3348 C3345 1.499 . S
C3348 C3349 1.373 . S
C3348 C3350 1.389 . S
C3349 H3328 0.950 . S
C3349 C3348 1.373 . S
C3349 C3365 1.377 . S
C3350 C3348 1.389 . S
C3350 C3351 1.524 . S
C3350 C3364 1.377 . S
C3351 C3350 1.524 . S
C3351 C3352 1.397 . S
C3351 C3356 1.363 . S
C3352 H3329 0.950 . S
C3352 C3351 1.397 . S
C3352 C3353 1.334 . S
C3353 H3330 0.950 . S
C3353 C3352 1.334 . S
C3353 C3354 1.287 . S
C3354 C3353 1.287 . S
C3354 C3355 1.524 . S
C3354 H3373 0.913 . S
C3355 H3331 0.950 . S
C3355 C3354 1.524 . S
C3355 C3356 1.415 . S
C3356 H3332 0.950 . S
C3356 C3351 1.363 . S
C3356 C3355 1.415 . S
C3357 H3333 0.951 . S
C3357 C3358 1.366 . S
C3357 C3359 1.388 . S
C3358 C3357 1.366 . S
C3358 C3362 1.385 . S
C3359 H3334 0.951 . S
C3359 C3357 1.388 . S
C3359 C3360 1.366 . S
C3360 C3359 1.366 . S
C3360 C3361 1.414 . S
C3360 C3363 1.499 . S
C3361 H3335 0.950 . S
C3361 C3360 1.414 . S
C3361 C3362 1.374 . S
C3362 H3336 0.950 . S
C3362 C3358 1.385 . S
C3362 C3361 1.374 . S
C3363 C3360 1.499 . S
C3363 C3364 1.373 . S
C3363 C3365 1.389 . S
C3364 H3337 0.950 . S
C3364 C3350 1.377 . S
C3364 C3363 1.373 . S
C3365 C3349 1.377 . S
C3365 C3363 1.389 . S
C3365 C3366 1.524 . S
C3366 C3365 1.524 . S
C3366 C3367 1.397 . S
C3366 C3371 1.363 . S
C3367 H3338 0.950 . S
C3367 C3366 1.397 . S
C3367 C3368 1.334 . S
C3368 H3339 0.950 . S
C3368 C3367 1.334 . S
C3368 C3369 1.287 . S
C3369 C3368 1.287 . S
C3369 C3370 1.524 . S
C3369 H3372 0.999 . S
C3370 H3340 0.950 . S
C3370 C3369 1.524 . S
C3370 C3371 1.415 . S
C3371 H3341 0.950 . S
C3371 C3366 1.363 . S
C3371 C3370 1.415 . S
H3372 C3369 0.999 . S
H3373 C3354 0.913 . S
H3374 C3392 0.951 . S
H3375 C3394 0.951 . S
H3376 C3396 0.950 . S
H3377 C3397 0.950 . S
H3378 C3399 0.950 . S
H3379 C3402 0.950 . S
H3380 C3403 0.950 . S
H3381 C3405 0.950 . S
H3382 C3406 0.950 . S
H3383 C3407 0.951 . S
H3384 C3409 0.951 . S
H3385 C3411 0.950 . S
H3386 C3412 0.950 . S
H3387 C3414 0.950 . S
H3388 C3417 0.950 . S
H3389 C3418 0.950 . S
H3390 C3420 0.950 . S
H3391 C3421 0.950 . S
C3392 H3374 0.951 . S
C3392 C3393 1.366 . S
C3392 C3394 1.388 . S
C3393 C3392 1.366 . S
C3393 C3397 1.385 . S
C3394 H3375 0.951 . S
C3394 C3392 1.388 . S
C3394 C3395 1.366 . S
C3395 C3394 1.366 . S
C3395 C3396 1.414 . S
C3395 C3398 1.499 . S
C3396 H3376 0.950 . S
C3396 C3395 1.414 . S
C3396 C3397 1.374 . S
C3397 H3377 0.950 . S
C3397 C3393 1.385 . S
C3397 C3396 1.374 . S
C3398 C3395 1.499 . S
C3398 C3399 1.373 . S
C3398 C3400 1.389 . S
C3399 H3378 0.950 . S
C3399 C3398 1.373 . S
C3399 C3415 1.377 . S
C3400 C3398 1.389 . S
C3400 C3401 1.524 . S
C3400 C3414 1.377 . S
C3401 C3400 1.524 . S
C3401 C3402 1.397 . S
C3401 C3406 1.363 . S
C3402 H3379 0.950 . S
C3402 C3401 1.397 . S
C3402 C3403 1.334 . S
C3403 H3380 0.950 . S
C3403 C3402 1.334 . S
C3403 C3404 1.287 . S
C3404 C3403 1.287 . S
C3404 C3405 1.524 . S
C3404 H3423 0.913 . S
C3405 H3381 0.950 . S
C3405 C3404 1.524 . S
C3405 C3406 1.415 . S
C3406 H3382 0.950 . S
C3406 C3401 1.363 . S
C3406 C3405 1.415 . S
C3407 H3383 0.951 . S
C3407 C3408 1.366 . S
C3407 C3409 1.388 . S
C3408 C3407 1.366 . S
C3408 C3412 1.385 . S
C3409 H3384 0.951 . S
C3409 C3407 1.388 . S
C3409 C3410 1.366 . S
C3410 C3409 1.366 . S
C3410 C3411 1.414 . S
C3410 C3413 1.499 . S
C3411 H3385 0.950 . S
C3411 C3410 1.414 . S
C3411 C3412 1.374 . S
C3412 H3386 0.950 . S
C3412 C3408 1.385 . S
C3412 C3411 1.374 . S
C3413 C3410 1.499 . S
C3413 C3414 1.373 . S
C3413 C3415 1.389 . S
C3414 H3387 0.950 . S
C3414 C3400 1.377 . S
C3414 C3413 1.373 . S
C3415 C3399 1.377 . S
C3415 C3413 1.389 . S
C3415 C3416 1.524 . S
C3416 C3415 1.524 . S
C3416 C3417 1.397 . S
C3416 C3421 1.363 . S
C3417 H3388 0.950 . S
C3417 C3416 1.397 . S
C3417 C3418 1.334 . S
C3418 H3389 0.950 . S
C3418 C3417 1.334 . S
C3418 C3419 1.287 . S
C3419 C3418 1.287 . S
C3419 C3420 1.524 . S
C3419 H3422 0.999 . S
C3420 H3390 0.950 . S
C3420 C3419 1.524 . S
C3420 C3421 1.415 . S
C3421 H3391 0.950 . S
C3421 C3416 1.363 . S
C3421 C3420 1.415 . S
H3422 C3419 0.999 . S
H3423 C3404 0.913 . S
H3424 C3442 0.951 . S
H3425 C3444 0.951 . S
H3426 C3446 0.950 . S
H3427 C3447 0.950 . S
H3428 C3449 0.950 . S
H3429 C3452 0.950 . S
H3430 C3453 0.950 . S
H3431 C3455 0.950 . S
H3432 C3456 0.950 . S
H3433 C3457 0.951 . S
H3434 C3459 0.951 . S
H3435 C3461 0.950 . S
H3436 C3462 0.950 . S
H3437 C3464 0.950 . S
H3438 C3467 0.950 . S
H3439 C3468 0.950 . S
H3440 C3470 0.950 . S
H3441 C3471 0.950 . S
C3442 H3424 0.951 . S
C3442 C3443 1.366 . S
C3442 C3444 1.388 . S
C3443 C3442 1.366 . S
C3443 C3447 1.385 . S
C3444 H3425 0.951 . S
C3444 C3442 1.388 . S
C3444 C3445 1.366 . S
C3445 C3444 1.366 . S
C3445 C3446 1.414 . S
C3445 C3448 1.499 . S
C3446 H3426 0.950 . S
C3446 C3445 1.414 . S
C3446 C3447 1.374 . S
C3447 H3427 0.950 . S
C3447 C3443 1.385 . S
C3447 C3446 1.374 . S
C3448 C3445 1.499 . S
C3448 C3449 1.373 . S
C3448 C3450 1.389 . S
C3449 H3428 0.950 . S
C3449 C3448 1.373 . S
C3449 C3465 1.377 . S
C3450 C3448 1.389 . S
C3450 C3451 1.524 . S
C3450 C3464 1.377 . S
C3451 C3450 1.524 . S
C3451 C3452 1.397 . S
C3451 C3456 1.363 . S
C3452 H3429 0.950 . S
C3452 C3451 1.397 . S
C3452 C3453 1.334 . S
C3453 H3430 0.950 . S
C3453 C3452 1.334 . S
C3453 C3454 1.287 . S
C3454 C3453 1.287 . S
C3454 C3455 1.524 . S
C3454 H3473 0.913 . S
C3455 H3431 0.950 . S
C3455 C3454 1.524 . S
C3455 C3456 1.415 . S
C3456 H3432 0.950 . S
C3456 C3451 1.363 . S
C3456 C3455 1.415 . S
C3457 H3433 0.951 . S
C3457 C3458 1.366 . S
C3457 C3459 1.388 . S
C3458 C3457 1.366 . S
C3458 C3462 1.385 . S
C3459 H3434 0.951 . S
C3459 C3457 1.388 . S
C3459 C3460 1.366 . S
C3460 C3459 1.366 . S
C3460 C3461 1.414 . S
C3460 C3463 1.499 . S
C3461 H3435 0.950 . S
C3461 C3460 1.414 . S
C3461 C3462 1.374 . S
C3462 H3436 0.950 . S
C3462 C3458 1.385 . S
C3462 C3461 1.374 . S
C3463 C3460 1.499 . S
C3463 C3464 1.373 . S
C3463 C3465 1.389 . S
C3464 H3437 0.950 . S
C3464 C3450 1.377 . S
C3464 C3463 1.373 . S
C3465 C3449 1.377 . S
C3465 C3463 1.389 . S
C3465 C3466 1.524 . S
C3466 C3465 1.524 . S
C3466 C3467 1.397 . S
C3466 C3471 1.363 . S
C3467 H3438 0.950 . S
C3467 C3466 1.397 . S
C3467 C3468 1.334 . S
C3468 H3439 0.950 . S
C3468 C3467 1.334 . S
C3468 C3469 1.287 . S
C3469 C3468 1.287 . S
C3469 C3470 1.524 . S
C3469 H3472 0.999 . S
C3470 H3440 0.950 . S
C3470 C3469 1.524 . S
C3470 C3471 1.415 . S
C3471 H3441 0.950 . S
C3471 C3466 1.363 . S
C3471 C3470 1.415 . S
H3472 C3469 0.999 . S
H3473 C3454 0.913 . S
H3474 C3492 0.951 . S
H3475 C3494 0.951 . S
H3476 C3496 0.950 . S
H3477 C3497 0.950 . S
H3478 C3499 0.950 . S
H3479 C3502 0.950 . S
H3480 C3503 0.950 . S
H3481 C3505 0.950 . S
H3482 C3506 0.950 . S
H3483 C3507 0.951 . S
H3484 C3509 0.951 . S
H3485 C3511 0.950 . S
H3486 C3512 0.950 . S
H3487 C3514 0.950 . S
H3488 C3517 0.950 . S
H3489 C3518 0.950 . S
H3490 C3520 0.950 . S
H3491 C3521 0.950 . S
C3492 H3474 0.951 . S
C3492 C3493 1.366 . S
C3492 C3494 1.388 . S
C3493 C3492 1.366 . S
C3493 C3497 1.385 . S
C3494 H3475 0.951 . S
C3494 C3492 1.388 . S
C3494 C3495 1.366 . S
C3495 C3494 1.366 . S
C3495 C3496 1.414 . S
C3495 C3498 1.499 . S
C3496 H3476 0.950 . S
C3496 C3495 1.414 . S
C3496 C3497 1.374 . S
C3497 H3477 0.950 . S
C3497 C3493 1.385 . S
C3497 C3496 1.374 . S
C3498 C3495 1.499 . S
C3498 C3499 1.373 . S
C3498 C3500 1.389 . S
C3499 H3478 0.950 . S
C3499 C3498 1.373 . S
C3499 C3515 1.377 . S
C3500 C3498 1.389 . S
C3500 C3501 1.524 . S
C3500 C3514 1.377 . S
C3501 C3500 1.524 . S
C3501 C3502 1.397 . S
C3501 C3506 1.363 . S
C3502 H3479 0.950 . S
C3502 C3501 1.397 . S
C3502 C3503 1.334 . S
C3503 H3480 0.950 . S
C3503 C3502 1.334 . S
C3503 C3504 1.287 . S
C3504 C3503 1.287 . S
C3504 C3505 1.524 . S
C3504 H3523 0.913 . S
C3505 H3481 0.950 . S
C3505 C3504 1.524 . S
C3505 C3506 1.415 . S
C3506 H3482 0.950 . S
C3506 C3501 1.363 . S
C3506 C3505 1.415 . S
C3507 H3483 0.951 . S
C3507 C3508 1.366 . S
C3507 C3509 1.388 . S
C3508 C3507 1.366 . S
C3508 C3512 1.385 . S
C3509 H3484 0.951 . S
C3509 C3507 1.388 . S
C3509 C3510 1.366 . S
C3510 C3509 1.366 . S
C3510 C3511 1.414 . S
C3510 C3513 1.499 . S
C3511 H3485 0.950 . S
C3511 C3510 1.414 . S
C3511 C3512 1.374 . S
C3512 H3486 0.950 . S
C3512 C3508 1.385 . S
C3512 C3511 1.374 . S
C3513 C3510 1.499 . S
C3513 C3514 1.373 . S
C3513 C3515 1.389 . S
C3514 H3487 0.950 . S
C3514 C3500 1.377 . S
C3514 C3513 1.373 . S
C3515 C3499 1.377 . S
C3515 C3513 1.389 . S
C3515 C3516 1.524 . S
C3516 C3515 1.524 . S
C3516 C3517 1.397 . S
C3516 C3521 1.363 . S
C3517 H3488 0.950 . S
C3517 C3516 1.397 . S
C3517 C3518 1.334 . S
C3518 H3489 0.950 . S
C3518 C3517 1.334 . S
C3518 C3519 1.287 . S
C3519 C3518 1.287 . S
C3519 C3520 1.524 . S
C3519 H3522 0.999 . S
C3520 H3490 0.950 . S
C3520 C3519 1.524 . S
C3520 C3521 1.415 . S
C3521 H3491 0.950 . S
C3521 C3516 1.363 . S
C3521 C3520 1.415 . S
H3522 C3519 0.999 . S
H3523 C3504 0.913 . S
H3524 C3542 0.951 . S
H3525 C3544 0.951 . S
H3526 C3546 0.950 . S
H3527 C3547 0.950 . S
H3528 C3549 0.950 . S
H3529 C3552 0.950 . S
H3530 C3553 0.950 . S
H3531 C3555 0.950 . S
H3532 C3556 0.950 . S
H3533 C3557 0.951 . S
H3534 C3559 0.951 . S
H3535 C3561 0.950 . S
H3536 C3562 0.950 . S
H3537 C3564 0.950 . S
H3538 C3567 0.950 . S
H3539 C3568 0.950 . S
H3540 C3570 0.950 . S
H3541 C3571 0.950 . S
C3542 H3524 0.951 . S
C3542 C3543 1.366 . S
C3542 C3544 1.388 . S
C3543 C3542 1.366 . S
C3543 C3547 1.385 . S
C3544 H3525 0.951 . S
C3544 C3542 1.388 . S
C3544 C3545 1.366 . S
C3545 C3544 1.366 . S
C3545 C3546 1.414 . S
C3545 C3548 1.499 . S
C3546 H3526 0.950 . S
C3546 C3545 1.414 . S
C3546 C3547 1.374 . S
C3547 H3527 0.950 . S
C3547 C3543 1.385 . S
C3547 C3546 1.374 . S
C3548 C3545 1.499 . S
C3548 C3549 1.373 . S
C3548 C3550 1.389 . S
C3549 H3528 0.950 . S
C3549 C3548 1.373 . S
C3549 C3565 1.377 . S
C3550 C3548 1.389 . S
C3550 C3551 1.524 . S
C3550 C3564 1.377 . S
C3551 C3550 1.524 . S
C3551 C3552 1.397 . S
C3551 C3556 1.363 . S
C3552 H3529 0.950 . S
C3552 C3551 1.397 . S
C3552 C3553 1.334 . S
C3553 H3530 0.950 . S
C3553 C3552 1.334 . S
C3553 C3554 1.287 . S
C3554 C3553 1.287 . S
C3554 C3555 1.524 . S
C3554 H3573 0.913 . S
C3555 H3531 0.950 . S
C3555 C3554 1.524 . S
C3555 C3556 1.415 . S
C3556 H3532 0.950 . S
C3556 C3551 1.363 . S
C3556 C3555 1.415 . S
C3557 H3533 0.951 . S
C3557 C3558 1.366 . S
C3557 C3559 1.388 . S
C3558 C3557 1.366 . S
C3558 C3562 1.385 . S
C3559 H3534 0.951 . S
C3559 C3557 1.388 . S
C3559 C3560 1.366 . S
C3560 C3559 1.366 . S
C3560 C3561 1.414 . S
C3560 C3563 1.499 . S
C3561 H3535 0.950 . S
C3561 C3560 1.414 . S
C3561 C3562 1.374 . S
C3562 H3536 0.950 . S
C3562 C3558 1.385 . S
C3562 C3561 1.374 . S
C3563 C3560 1.499 . S
C3563 C3564 1.373 . S
C3563 C3565 1.389 . S
C3564 H3537 0.950 . S
C3564 C3550 1.377 . S
C3564 C3563 1.373 . S
C3565 C3549 1.377 . S
C3565 C3563 1.389 . S
C3565 C3566 1.524 . S
C3566 C3565 1.524 . S
C3566 C3567 1.397 . S
C3566 C3571 1.363 . S
C3567 H3538 0.950 . S
C3567 C3566 1.397 . S
C3567 C3568 1.334 . S
C3568 H3539 0.950 . S
C3568 C3567 1.334 . S
C3568 C3569 1.287 . S
C3569 C3568 1.287 . S
C3569 C3570 1.524 . S
C3569 H3572 0.999 . S
C3570 H3540 0.950 . S
C3570 C3569 1.524 . S
C3570 C3571 1.415 . S
C3571 H3541 0.950 . S
C3571 C3566 1.363 . S
C3571 C3570 1.415 . S
H3572 C3569 0.999 . S
H3573 C3554 0.913 . S
H3574 C3592 0.951 . S
H3575 C3594 0.951 . S
H3576 C3596 0.950 . S
H3577 C3597 0.950 . S
H3578 C3599 0.950 . S
H3579 C3602 0.950 . S
H3580 C3603 0.950 . S
H3581 C3605 0.950 . S
H3582 C3606 0.950 . S
H3583 C3607 0.951 . S
H3584 C3609 0.951 . S
H3585 C3611 0.950 . S
H3586 C3612 0.950 . S
H3587 C3614 0.950 . S
H3588 C3617 0.950 . S
H3589 C3618 0.950 . S
H3590 C3620 0.950 . S
H3591 C3621 0.950 . S
C3592 H3574 0.951 . S
C3592 C3593 1.366 . S
C3592 C3594 1.388 . S
C3593 C3592 1.366 . S
C3593 C3597 1.385 . S
C3594 H3575 0.951 . S
C3594 C3592 1.388 . S
C3594 C3595 1.366 . S
C3595 C3594 1.366 . S
C3595 C3596 1.414 . S
C3595 C3598 1.499 . S
C3596 H3576 0.950 . S
C3596 C3595 1.414 . S
C3596 C3597 1.374 . S
C3597 H3577 0.950 . S
C3597 C3593 1.385 . S
C3597 C3596 1.374 . S
C3598 C3595 1.499 . S
C3598 C3599 1.373 . S
C3598 C3600 1.389 . S
C3599 H3578 0.950 . S
C3599 C3598 1.373 . S
C3599 C3615 1.377 . S
C3600 C3598 1.389 . S
C3600 C3601 1.524 . S
C3600 C3614 1.377 . S
C3601 C3600 1.524 . S
C3601 C3602 1.397 . S
C3601 C3606 1.363 . S
C3602 H3579 0.950 . S
C3602 C3601 1.397 . S
C3602 C3603 1.334 . S
C3603 H3580 0.950 . S
C3603 C3602 1.334 . S
C3603 C3604 1.287 . S
C3604 C3603 1.287 . S
C3604 C3605 1.524 . S
C3604 H3623 0.913 . S
C3605 H3581 0.950 . S
C3605 C3604 1.524 . S
C3605 C3606 1.415 . S
C3606 H3582 0.950 . S
C3606 C3601 1.363 . S
C3606 C3605 1.415 . S
C3607 H3583 0.951 . S
C3607 C3608 1.366 . S
C3607 C3609 1.388 . S
C3608 C3607 1.366 . S
C3608 C3612 1.385 . S
C3609 H3584 0.951 . S
C3609 C3607 1.388 . S
C3609 C3610 1.366 . S
C3610 C3609 1.366 . S
C3610 C3611 1.414 . S
C3610 C3613 1.499 . S
C3611 H3585 0.950 . S
C3611 C3610 1.414 . S
C3611 C3612 1.374 . S
C3612 H3586 0.950 . S
C3612 C3608 1.385 . S
C3612 C3611 1.374 . S
C3613 C3610 1.499 . S
C3613 C3614 1.373 . S
C3613 C3615 1.389 . S
C3614 H3587 0.950 . S
C3614 C3600 1.377 . S
C3614 C3613 1.373 . S
C3615 C3599 1.377 . S
C3615 C3613 1.389 . S
C3615 C3616 1.524 . S
C3616 C3615 1.524 . S
C3616 C3617 1.397 . S
C3616 C3621 1.363 . S
C3617 H3588 0.950 . S
C3617 C3616 1.397 . S
C3617 C3618 1.334 . S
C3618 H3589 0.950 . S
C3618 C3617 1.334 . S
C3618 C3619 1.287 . S
C3619 C3618 1.287 . S
C3619 C3620 1.524 . S
C3619 H3622 0.999 . S
C3620 H3590 0.950 . S
C3620 C3619 1.524 . S
C3620 C3621 1.415 . S
C3621 H3591 0.950 . S
C3621 C3616 1.363 . S
C3621 C3620 1.415 . S
H3622 C3619 0.999 . S
H3623 C3604 0.913 . S
H3624 C3642 0.951 . S
H3625 C3644 0.951 . S
H3626 C3646 0.950 . S
H3627 C3647 0.950 . S
H3628 C3649 0.950 . S
H3629 C3652 0.950 . S
H3630 C3653 0.950 . S
H3631 C3655 0.950 . S
H3632 C3656 0.950 . S
H3633 C3657 0.951 . S
H3634 C3659 0.951 . S
H3635 C3661 0.950 . S
H3636 C3662 0.950 . S
H3637 C3664 0.950 . S
H3638 C3667 0.950 . S
H3639 C3668 0.950 . S
H3640 C3670 0.950 . S
H3641 C3671 0.950 . S
C3642 H3624 0.951 . S
C3642 C3643 1.366 . S
C3642 C3644 1.388 . S
C3643 C3642 1.366 . S
C3643 C3647 1.385 . S
C3644 H3625 0.951 . S
C3644 C3642 1.388 . S
C3644 C3645 1.366 . S
C3645 C3644 1.366 . S
C3645 C3646 1.414 . S
C3645 C3648 1.499 . S
C3646 H3626 0.950 . S
C3646 C3645 1.414 . S
C3646 C3647 1.374 . S
C3647 H3627 0.950 . S
C3647 C3643 1.385 . S
C3647 C3646 1.374 . S
C3648 C3645 1.499 . S
C3648 C3649 1.373 . S
C3648 C3650 1.389 . S
C3649 H3628 0.950 . S
C3649 C3648 1.373 . S
C3649 C3665 1.377 . S
C3650 C3648 1.389 . S
C3650 C3651 1.524 . S
C3650 C3664 1.377 . S
C3651 C3650 1.524 . S
C3651 C3652 1.397 . S
C3651 C3656 1.363 . S
C3652 H3629 0.950 . S
C3652 C3651 1.397 . S
C3652 C3653 1.334 . S
C3653 H3630 0.950 . S
C3653 C3652 1.334 . S
C3653 C3654 1.287 . S
C3654 C3653 1.287 . S
C3654 C3655 1.524 . S
C3654 H3673 0.913 . S
C3655 H3631 0.950 . S
C3655 C3654 1.524 . S
C3655 C3656 1.415 . S
C3656 H3632 0.950 . S
C3656 C3651 1.363 . S
C3656 C3655 1.415 . S
C3657 H3633 0.951 . S
C3657 C3658 1.366 . S
C3657 C3659 1.388 . S
C3658 C3657 1.366 . S
C3658 C3662 1.385 . S
C3659 H3634 0.951 . S
C3659 C3657 1.388 . S
C3659 C3660 1.366 . S
C3660 C3659 1.366 . S
C3660 C3661 1.414 . S
C3660 C3663 1.499 . S
C3661 H3635 0.950 . S
C3661 C3660 1.414 . S
C3661 C3662 1.374 . S
C3662 H3636 0.950 . S
C3662 C3658 1.385 . S
C3662 C3661 1.374 . S
C3663 C3660 1.499 . S
C3663 C3664 1.373 . S
C3663 C3665 1.389 . S
C3664 H3637 0.950 . S
C3664 C3650 1.377 . S
C3664 C3663 1.373 . S
C3665 C3649 1.377 . S
C3665 C3663 1.389 . S
C3665 C3666 1.524 . S
C3666 C3665 1.524 . S
C3666 C3667 1.397 . S
C3666 C3671 1.363 . S
C3667 H3638 0.950 . S
C3667 C3666 1.397 . S
C3667 C3668 1.334 . S
C3668 H3639 0.950 . S
C3668 C3667 1.334 . S
C3668 C3669 1.287 . S
C3669 C3668 1.287 . S
C3669 C3670 1.524 . S
C3669 H3672 0.999 . S
C3670 H3640 0.950 . S
C3670 C3669 1.524 . S
C3670 C3671 1.415 . S
C3671 H3641 0.950 . S
C3671 C3666 1.363 . S
C3671 C3670 1.415 . S
H3672 C3669 0.999 . S
H3673 C3654 0.913 . S
H3674 C3692 0.951 . S
H3675 C3694 0.951 . S
H3676 C3696 0.950 . S
H3677 C3697 0.950 . S
H3678 C3699 0.950 . S
H3679 C3702 0.950 . S
H3680 C3703 0.950 . S
H3681 C3705 0.950 . S
H3682 C3706 0.950 . S
H3683 C3707 0.951 . S
H3684 C3709 0.951 . S
H3685 C3711 0.950 . S
H3686 C3712 0.950 . S
H3687 C3714 0.950 . S
H3688 C3717 0.950 . S
H3689 C3718 0.950 . S
H3690 C3720 0.950 . S
H3691 C3721 0.950 . S
C3692 H3674 0.951 . S
C3692 C3693 1.366 . S
C3692 C3694 1.388 . S
C3693 C3692 1.366 . S
C3693 C3697 1.385 . S
C3694 H3675 0.951 . S
C3694 C3692 1.388 . S
C3694 C3695 1.366 . S
C3695 C3694 1.366 . S
C3695 C3696 1.414 . S
C3695 C3698 1.499 . S
C3696 H3676 0.950 . S
C3696 C3695 1.414 . S
C3696 C3697 1.374 . S
C3697 H3677 0.950 . S
C3697 C3693 1.385 . S
C3697 C3696 1.374 . S
C3698 C3695 1.499 . S
C3698 C3699 1.373 . S
C3698 C3700 1.389 . S
C3699 H3678 0.950 . S
C3699 C3698 1.373 . S
C3699 C3715 1.377 . S
C3700 C3698 1.389 . S
C3700 C3701 1.524 . S
C3700 C3714 1.377 . S
C3701 C3700 1.524 . S
C3701 C3702 1.397 . S
C3701 C3706 1.363 . S
C3702 H3679 0.950 . S
C3702 C3701 1.397 . S
C3702 C3703 1.334 . S
C3703 H3680 0.950 . S
C3703 C3702 1.334 . S
C3703 C3704 1.287 . S
C3704 C3703 1.287 . S
C3704 C3705 1.524 . S
C3704 H3723 0.913 . S
C3705 H3681 0.950 . S
C3705 C3704 1.524 . S
C3705 C3706 1.415 . S
C3706 H3682 0.950 . S
C3706 C3701 1.363 . S
C3706 C3705 1.415 . S
C3707 H3683 0.951 . S
C3707 C3708 1.366 . S
C3707 C3709 1.388 . S
C3708 C3707 1.366 . S
C3708 C3712 1.385 . S
C3709 H3684 0.951 . S
C3709 C3707 1.388 . S
C3709 C3710 1.366 . S
C3710 C3709 1.366 . S
C3710 C3711 1.414 . S
C3710 C3713 1.499 . S
C3711 H3685 0.950 . S
C3711 C3710 1.414 . S
C3711 C3712 1.374 . S
C3712 H3686 0.950 . S
C3712 C3708 1.385 . S
C3712 C3711 1.374 . S
C3713 C3710 1.499 . S
C3713 C3714 1.373 . S
C3713 C3715 1.389 . S
C3714 H3687 0.950 . S
C3714 C3700 1.377 . S
C3714 C3713 1.373 . S
C3715 C3699 1.377 . S
C3715 C3713 1.389 . S
C3715 C3716 1.524 . S
C3716 C3715 1.524 . S
C3716 C3717 1.397 . S
C3716 C3721 1.363 . S
C3717 H3688 0.950 . S
C3717 C3716 1.397 . S
C3717 C3718 1.334 . S
C3718 H3689 0.950 . S
C3718 C3717 1.334 . S
C3718 C3719 1.287 . S
C3719 C3718 1.287 . S
C3719 C3720 1.524 . S
C3719 H3722 0.999 . S
C3720 H3690 0.950 . S
C3720 C3719 1.524 . S
C3720 C3721 1.415 . S
C3721 H3691 0.950 . S
C3721 C3716 1.363 . S
C3721 C3720 1.415 . S
H3722 C3719 0.999 . S
H3723 C3704 0.913 . S
H3724 C3742 0.951 . S
H3725 C3744 0.951 . S
H3726 C3746 0.950 . S
H3727 C3747 0.950 . S
H3728 C3749 0.950 . S
H3729 C3752 0.950 . S
H3730 C3753 0.950 . S
H3731 C3755 0.950 . S
H3732 C3756 0.950 . S
H3733 C3757 0.951 . S
H3734 C3759 0.951 . S
H3735 C3761 0.950 . S
H3736 C3762 0.950 . S
H3737 C3764 0.950 . S
H3738 C3767 0.950 . S
H3739 C3768 0.950 . S
H3740 C3770 0.950 . S
H3741 C3771 0.950 . S
C3742 H3724 0.951 . S
C3742 C3743 1.366 . S
C3742 C3744 1.388 . S
C3743 C3742 1.366 . S
C3743 C3747 1.385 . S
C3744 H3725 0.951 . S
C3744 C3742 1.388 . S
C3744 C3745 1.366 . S
C3745 C3744 1.366 . S
C3745 C3746 1.414 . S
C3745 C3748 1.499 . S
C3746 H3726 0.950 . S
C3746 C3745 1.414 . S
C3746 C3747 1.374 . S
C3747 H3727 0.950 . S
C3747 C3743 1.385 . S
C3747 C3746 1.374 . S
C3748 C3745 1.499 . S
C3748 C3749 1.373 . S
C3748 C3750 1.389 . S
C3749 H3728 0.950 . S
C3749 C3748 1.373 . S
C3749 C3765 1.377 . S
C3750 C3748 1.389 . S
C3750 C3751 1.524 . S
C3750 C3764 1.377 . S
C3751 C3750 1.524 . S
C3751 C3752 1.397 . S
C3751 C3756 1.363 . S
C3752 H3729 0.950 . S
C3752 C3751 1.397 . S
C3752 C3753 1.334 . S
C3753 H3730 0.950 . S
C3753 C3752 1.334 . S
C3753 C3754 1.287 . S
C3754 C3753 1.287 . S
C3754 C3755 1.524 . S
C3754 H3773 0.913 . S
C3755 H3731 0.950 . S
C3755 C3754 1.524 . S
C3755 C3756 1.415 . S
C3756 H3732 0.950 . S
C3756 C3751 1.363 . S
C3756 C3755 1.415 . S
C3757 H3733 0.951 . S
C3757 C3758 1.366 . S
C3757 C3759 1.388 . S
C3758 C3757 1.366 . S
C3758 C3762 1.385 . S
C3759 H3734 0.951 . S
C3759 C3757 1.388 . S
C3759 C3760 1.366 . S
C3760 C3759 1.366 . S
C3760 C3761 1.414 . S
C3760 C3763 1.499 . S
C3761 H3735 0.950 . S
C3761 C3760 1.414 . S
C3761 C3762 1.374 . S
C3762 H3736 0.950 . S
C3762 C3758 1.385 . S
C3762 C3761 1.374 . S
C3763 C3760 1.499 . S
C3763 C3764 1.373 . S
C3763 C3765 1.389 . S
C3764 H3737 0.950 . S
C3764 C3750 1.377 . S
C3764 C3763 1.373 . S
C3765 C3749 1.377 . S
C3765 C3763 1.389 . S
C3765 C3766 1.524 . S
C3766 C3765 1.524 . S
C3766 C3767 1.397 . S
C3766 C3771 1.363 . S
C3767 H3738 0.950 . S
C3767 C3766 1.397 . S
C3767 C3768 1.334 . S
C3768 H3739 0.950 . S
C3768 C3767 1.334 . S
C3768 C3769 1.287 . S
C3769 C3768 1.287 . S
C3769 C3770 1.524 . S
C3769 H3772 0.999 . S
C3770 H3740 0.950 . S
C3770 C3769 1.524 . S
C3770 C3771 1.415 . S
C3771 H3741 0.950 . S
C3771 C3766 1.363 . S
C3771 C3770 1.415 . S
H3772 C3769 0.999 . S
H3773 C3754 0.913 . S
H3774 C3792 0.951 . S
H3775 C3794 0.951 . S
H3776 C3796 0.950 . S
H3777 C3797 0.950 . S
H3778 C3799 0.950 . S
H3779 C3802 0.950 . S
H3780 C3803 0.950 . S
H3781 C3805 0.950 . S
H3782 C3806 0.950 . S
H3783 C3807 0.951 . S
H3784 C3809 0.951 . S
H3785 C3811 0.950 . S
H3786 C3812 0.950 . S
H3787 C3814 0.950 . S
H3788 C3817 0.950 . S
H3789 C3818 0.950 . S
H3790 C3820 0.950 . S
H3791 C3821 0.950 . S
C3792 H3774 0.951 . S
C3792 C3793 1.366 . S
C3792 C3794 1.388 . S
C3793 C3792 1.366 . S
C3793 C3797 1.385 . S
C3794 H3775 0.951 . S
C3794 C3792 1.388 . S
C3794 C3795 1.366 . S
C3795 C3794 1.366 . S
C3795 C3796 1.414 . S
C3795 C3798 1.499 . S
C3796 H3776 0.950 . S
C3796 C3795 1.414 . S
C3796 C3797 1.374 . S
C3797 H3777 0.950 . S
C3797 C3793 1.385 . S
C3797 C3796 1.374 . S
C3798 C3795 1.499 . S
C3798 C3799 1.373 . S
C3798 C3800 1.389 . S
C3799 H3778 0.950 . S
C3799 C3798 1.373 . S
C3799 C3815 1.377 . S
C3800 C3798 1.389 . S
C3800 C3801 1.524 . S
C3800 C3814 1.377 . S
C3801 C3800 1.524 . S
C3801 C3802 1.397 . S
C3801 C3806 1.363 . S
C3802 H3779 0.950 . S
C3802 C3801 1.397 . S
C3802 C3803 1.334 . S
C3803 H3780 0.950 . S
C3803 C3802 1.334 . S
C3803 C3804 1.287 . S
C3804 C3803 1.287 . S
C3804 C3805 1.524 . S
C3804 H3823 0.913 . S
C3805 H3781 0.950 . S
C3805 C3804 1.524 . S
C3805 C3806 1.415 . S
C3806 H3782 0.950 . S
C3806 C3801 1.363 . S
C3806 C3805 1.415 . S
C3807 H3783 0.951 . S
C3807 C3808 1.366 . S
C3807 C3809 1.388 . S
C3808 C3807 1.366 . S
C3808 C3812 1.385 . S
C3809 H3784 0.951 . S
C3809 C3807 1.388 . S
C3809 C3810 1.366 . S
C3810 C3809 1.366 . S
C3810 C3811 1.414 . S
C3810 C3813 1.499 . S
C3811 H3785 0.950 . S
C3811 C3810 1.414 . S
C3811 C3812 1.374 . S
C3812 H3786 0.950 . S
C3812 C3808 1.385 . S
C3812 C3811 1.374 . S
C3813 C3810 1.499 . S
C3813 C3814 1.373 . S
C3813 C3815 1.389 . S
C3814 H3787 0.950 . S
C3814 C3800 1.377 . S
C3814 C3813 1.373 . S
C3815 C3799 1.377 . S
C3815 C3813 1.389 . S
C3815 C3816 1.524 . S
C3816 C3815 1.524 . S
C3816 C3817 1.397 . S
C3816 C3821 1.363 . S
C3817 H3788 0.950 . S
C3817 C3816 1.397 . S
C3817 C3818 1.334 . S
C3818 H3789 0.950 . S
C3818 C3817 1.334 . S
C3818 C3819 1.287 . S
C3819 C3818 1.287 . S
C3819 C3820 1.524 . S
C3819 H3822 0.999 . S
C3820 H3790 0.950 . S
C3820 C3819 1.524 . S
C3820 C3821 1.415 . S
C3821 H3791 0.950 . S
C3821 C3816 1.363 . S
C3821 C3820 1.415 . S
H3822 C3819 0.999 . S
H3823 C3804 0.913 . S
H3824 C3842 0.951 . S
H3825 C3844 0.951 . S
H3826 C3846 0.950 . S
H3827 C3847 0.950 . S
H3828 C3849 0.950 . S
H3829 C3852 0.950 . S
H3830 C3853 0.950 . S
H3831 C3855 0.950 . S
H3832 C3856 0.950 . S
H3833 C3857 0.951 . S
H3834 C3859 0.951 . S
H3835 C3861 0.950 . S
H3836 C3862 0.950 . S
H3837 C3864 0.950 . S
H3838 C3867 0.950 . S
H3839 C3868 0.950 . S
H3840 C3870 0.950 . S
H3841 C3871 0.950 . S
C3842 H3824 0.951 . S
C3842 C3843 1.366 . S
C3842 C3844 1.388 . S
C3843 C3842 1.366 . S
C3843 C3847 1.385 . S
C3844 H3825 0.951 . S
C3844 C3842 1.388 . S
C3844 C3845 1.366 . S
C3845 C3844 1.366 . S
C3845 C3846 1.414 . S
C3845 C3848 1.499 . S
C3846 H3826 0.950 . S
C3846 C3845 1.414 . S
C3846 C3847 1.374 . S
C3847 H3827 0.950 . S
C3847 C3843 1.385 . S
C3847 C3846 1.374 . S
C3848 C3845 1.499 . S
C3848 C3849 1.373 . S
C3848 C3850 1.389 . S
C3849 H3828 0.950 . S
C3849 C3848 1.373 . S
C3849 C3865 1.377 . S
C3850 C3848 1.389 . S
C3850 C3851 1.524 . S
C3850 C3864 1.377 . S
C3851 C3850 1.524 . S
C3851 C3852 1.397 . S
C3851 C3856 1.363 . S
C3852 H3829 0.950 . S
C3852 C3851 1.397 . S
C3852 C3853 1.334 . S
C3853 H3830 0.950 . S
C3853 C3852 1.334 . S
C3853 C3854 1.287 . S
C3854 C3853 1.287 . S
C3854 C3855 1.524 . S
C3854 H3873 0.913 . S
C3855 H3831 0.950 . S
C3855 C3854 1.524 . S
C3855 C3856 1.415 . S
C3856 H3832 0.950 . S
C3856 C3851 1.363 . S
C3856 C3855 1.415 . S
C3857 H3833 0.951 . S
C3857 C3858 1.366 . S
C3857 C3859 1.388 . S
C3858 C3857 1.366 . S
C3858 C3862 1.385 . S
C3859 H3834 0.951 . S
C3859 C3857 1.388 . S
C3859 C3860 1.366 . S
C3860 C3859 1.366 . S
C3860 C3861 1.414 . S
C3860 C3863 1.499 . S
C3861 H3835 0.950 . S
C3861 C3860 1.414 . S
C3861 C3862 1.374 . S
C3862 H3836 0.950 . S
C3862 C3858 1.385 . S
C3862 C3861 1.374 . S
C3863 C3860 1.499 . S
C3863 C3864 1.373 . S
C3863 C3865 1.389 . S
C3864 H3837 0.950 . S
C3864 C3850 1.377 . S
C3864 C3863 1.373 . S
C3865 C3849 1.377 . S
C3865 C3863 1.389 . S
C3865 C3866 1.524 . S
C3866 C3865 1.524 . S
C3866 C3867 1.397 . S
C3866 C3871 1.363 . S
C3867 H3838 0.950 . S
C3867 C3866 1.397 . S
C3867 C3868 1.334 . S
C3868 H3839 0.950 . S
C3868 C3867 1.334 . S
C3868 C3869 1.287 . S
C3869 C3868 1.287 . S
C3869 C3870 1.524 . S
C3869 H3872 0.999 . S
C3870 H3840 0.950 . S
C3870 C3869 1.524 . S
C3870 C3871 1.415 . S
C3871 H3841 0.950 . S
C3871 C3866 1.363 . S
C3871 C3870 1.415 . S
H3872 C3869 0.999 . S
H3873 C3854 0.913 . S
H3874 C3892 0.951 . S
H3875 C3894 0.951 . S
H3876 C3896 0.950 . S
H3877 C3897 0.950 . S
H3878 C3899 0.950 . S
H3879 C3902 0.950 . S
H3880 C3903 0.950 . S
H3881 C3905 0.950 . S
H3882 C3906 0.950 . S
H3883 C3907 0.951 . S
H3884 C3909 0.951 . S
H3885 C3911 0.950 . S
H3886 C3912 0.950 . S
H3887 C3914 0.950 . S
H3888 C3917 0.950 . S
H3889 C3918 0.950 . S
H3890 C3920 0.950 . S
H3891 C3921 0.950 . S
C3892 H3874 0.951 . S
C3892 C3893 1.366 . S
C3892 C3894 1.388 . S
C3893 C3892 1.366 . S
C3893 C3897 1.385 . S
C3894 H3875 0.951 . S
C3894 C3892 1.388 . S
C3894 C3895 1.366 . S
C3895 C3894 1.366 . S
C3895 C3896 1.414 . S
C3895 C3898 1.499 . S
C3896 H3876 0.950 . S
C3896 C3895 1.414 . S
C3896 C3897 1.374 . S
C3897 H3877 0.950 . S
C3897 C3893 1.385 . S
C3897 C3896 1.374 . S
C3898 C3895 1.499 . S
C3898 C3899 1.373 . S
C3898 C3900 1.389 . S
C3899 H3878 0.950 . S
C3899 C3898 1.373 . S
C3899 C3915 1.377 . S
C3900 C3898 1.389 . S
C3900 C3901 1.524 . S
C3900 C3914 1.377 . S
C3901 C3900 1.524 . S
C3901 C3902 1.397 . S
C3901 C3906 1.363 . S
C3902 H3879 0.950 . S
C3902 C3901 1.397 . S
C3902 C3903 1.334 . S
C3903 H3880 0.950 . S
C3903 C3902 1.334 . S
C3903 C3904 1.287 . S
C3904 C3903 1.287 . S
C3904 C3905 1.524 . S
C3904 H3923 0.913 . S
C3905 H3881 0.950 . S
C3905 C3904 1.524 . S
C3905 C3906 1.415 . S
C3906 H3882 0.950 . S
C3906 C3901 1.363 . S
C3906 C3905 1.415 . S
C3907 H3883 0.951 . S
C3907 C3908 1.366 . S
C3907 C3909 1.388 . S
C3908 C3907 1.366 . S
C3908 C3912 1.385 . S
C3909 H3884 0.951 . S
C3909 C3907 1.388 . S
C3909 C3910 1.366 . S
C3910 C3909 1.366 . S
C3910 C3911 1.414 . S
C3910 C3913 1.499 . S
C3911 H3885 0.950 . S
C3911 C3910 1.414 . S
C3911 C3912 1.374 . S
C3912 H3886 0.950 . S
C3912 C3908 1.385 . S
C3912 C3911 1.374 . S
C3913 C3910 1.499 . S
C3913 C3914 1.373 . S
C3913 C3915 1.389 . S
C3914 H3887 0.950 . S
C3914 C3900 1.377 . S
C3914 C3913 1.373 . S
C3915 C3899 1.377 . S
C3915 C3913 1.389 . S
C3915 C3916 1.524 . S
C3916 C3915 1.524 . S
C3916 C3917 1.397 . S
C3916 C3921 1.363 . S
C3917 H3888 0.950 . S
C3917 C3916 1.397 . S
C3917 C3918 1.334 . S
C3918 H3889 0.950 . S
C3918 C3917 1.334 . S
C3918 C3919 1.287 . S
C3919 C3918 1.287 . S
C3919 C3920 1.524 . S
C3919 H3922 0.999 . S
C3920 H3890 0.950 . S
C3920 C3919 1.524 . S
C3920 C3921 1.415 . S
C3921 H3891 0.950 . S
C3921 C3916 1.363 . S
C3921 C3920 1.415 . S
H3922 C3919 0.999 . S
H3923 C3904 0.913 . S
H3924 C3942 0.951 . S
H3925 C3944 0.951 . S
H3926 C3946 0.950 . S
H3927 C3947 0.950 . S
H3928 C3949 0.950 . S
H3929 C3952 0.950 . S
H3930 C3953 0.950 . S
H3931 C3955 0.950 . S
H3932 C3956 0.950 . S
H3933 C3957 0.951 . S
H3934 C3959 0.951 . S
H3935 C3961 0.950 . S
H3936 C3962 0.950 . S
H3937 C3964 0.950 . S
H3938 C3967 0.950 . S
H3939 C3968 0.950 . S
H3940 C3970 0.950 . S
H3941 C3971 0.950 . S
C3942 H3924 0.951 . S
C3942 C3943 1.366 . S
C3942 C3944 1.388 . S
C3943 C3942 1.366 . S
C3943 C3947 1.385 . S
C3944 H3925 0.951 . S
C3944 C3942 1.388 . S
C3944 C3945 1.366 . S
C3945 C3944 1.366 . S
C3945 C3946 1.414 . S
C3945 C3948 1.499 . S
C3946 H3926 0.950 . S
C3946 C3945 1.414 . S
C3946 C3947 1.374 . S
C3947 H3927 0.950 . S
C3947 C3943 1.385 . S
C3947 C3946 1.374 . S
C3948 C3945 1.499 . S
C3948 C3949 1.373 . S
C3948 C3950 1.389 . S
C3949 H3928 0.950 . S
C3949 C3948 1.373 . S
C3949 C3965 1.377 . S
C3950 C3948 1.389 . S
C3950 C3951 1.524 . S
C3950 C3964 1.377 . S
C3951 C3950 1.524 . S
C3951 C3952 1.397 . S
C3951 C3956 1.363 . S
C3952 H3929 0.950 . S
C3952 C3951 1.397 . S
C3952 C3953 1.334 . S
C3953 H3930 0.950 . S
C3953 C3952 1.334 . S
C3953 C3954 1.287 . S
C3954 C3953 1.287 . S
C3954 C3955 1.524 . S
C3954 H3973 0.913 . S
C3955 H3931 0.950 . S
C3955 C3954 1.524 . S
C3955 C3956 1.415 . S
C3956 H3932 0.950 . S
C3956 C3951 1.363 . S
C3956 C3955 1.415 . S
C3957 H3933 0.951 . S
C3957 C3958 1.366 . S
C3957 C3959 1.388 . S
C3958 C3957 1.366 . S
C3958 C3962 1.385 . S
C3959 H3934 0.951 . S
C3959 C3957 1.388 . S
C3959 C3960 1.366 . S
C3960 C3959 1.366 . S
C3960 C3961 1.414 . S
C3960 C3963 1.499 . S
C3961 H3935 0.950 . S
C3961 C3960 1.414 . S
C3961 C3962 1.374 . S
C3962 H3936 0.950 . S
C3962 C3958 1.385 . S
C3962 C3961 1.374 . S
C3963 C3960 1.499 . S
C3963 C3964 1.373 . S
C3963 C3965 1.389 . S
C3964 H3937 0.950 . S
C3964 C3950 1.377 . S
C3964 C3963 1.373 . S
C3965 C3949 1.377 . S
C3965 C3963 1.389 . S
C3965 C3966 1.524 . S
C3966 C3965 1.524 . S
C3966 C3967 1.397 . S
C3966 C3971 1.363 . S
C3967 H3938 0.950 . S
C3967 C3966 1.397 . S
C3967 C3968 1.334 . S
C3968 H3939 0.950 . S
C3968 C3967 1.334 . S
C3968 C3969 1.287 . S
C3969 C3968 1.287 . S
C3969 C3970 1.524 . S
C3969 H3972 0.999 . S
C3970 H3940 0.950 . S
C3970 C3969 1.524 . S
C3970 C3971 1.415 . S
C3971 H3941 0.950 . S
C3971 C3966 1.363 . S
C3971 C3970 1.415 . S
H3972 C3969 0.999 . S
H3973 C3954 0.913 . S
H3974 C3992 0.951 . S
H3975 C3994 0.951 . S
H3976 C3996 0.950 . S
H3977 C3997 0.950 . S
H3978 C3999 0.950 . S
H3979 C4002 0.950 . S
H3980 C4003 0.950 . S
H3981 C4005 0.950 . S
H3982 C4006 0.950 . S
H3983 C4007 0.951 . S
H3984 C4009 0.951 . S
H3985 C4011 0.950 . S
H3986 C4012 0.950 . S
H3987 C4014 0.950 . S
H3988 C4017 0.950 . S
H3989 C4018 0.950 . S
H3990 C4020 0.950 . S
H3991 C4021 0.950 . S
C3992 H3974 0.951 . S
C3992 C3993 1.366 . S
C3992 C3994 1.388 . S
C3993 C3992 1.366 . S
C3993 C3997 1.385 . S
C3994 H3975 0.951 . S
C3994 C3992 1.388 . S
C3994 C3995 1.366 . S
C3995 C3994 1.366 . S
C3995 C3996 1.414 . S
C3995 C3998 1.499 . S
C3996 H3976 0.950 . S
C3996 C3995 1.414 . S
C3996 C3997 1.374 . S
C3997 H3977 0.950 . S
C3997 C3993 1.385 . S
C3997 C3996 1.374 . S
C3998 C3995 1.499 . S
C3998 C3999 1.373 . S
C3998 C4000 1.389 . S
C3999 H3978 0.950 . S
C3999 C3998 1.373 . S
C3999 C4015 1.377 . S
C4000 C3998 1.389 . S
C4000 C4001 1.524 . S
C4000 C4014 1.377 . S
C4001 C4000 1.524 . S
C4001 C4002 1.397 . S
C4001 C4006 1.363 . S
C4002 H3979 0.950 . S
C4002 C4001 1.397 . S
C4002 C4003 1.334 . S
C4003 H3980 0.950 . S
C4003 C4002 1.334 . S
C4003 C4004 1.287 . S
C4004 C4003 1.287 . S
C4004 C4005 1.524 . S
C4004 H4023 0.913 . S
C4005 H3981 0.950 . S
C4005 C4004 1.524 . S
C4005 C4006 1.415 . S
C4006 H3982 0.950 . S
C4006 C4001 1.363 . S
C4006 C4005 1.415 . S
C4007 H3983 0.951 . S
C4007 C4008 1.366 . S
C4007 C4009 1.388 . S
C4008 C4007 1.366 . S
C4008 C4012 1.385 . S
C4009 H3984 0.951 . S
C4009 C4007 1.388 . S
C4009 C4010 1.366 . S
C4010 C4009 1.366 . S
C4010 C4011 1.414 . S
C4010 C4013 1.499 . S
C4011 H3985 0.950 . S
C4011 C4010 1.414 . S
C4011 C4012 1.374 . S
C4012 H3986 0.950 . S
C4012 C4008 1.385 . S
C4012 C4011 1.374 . S
C4013 C4010 1.499 . S
C4013 C4014 1.373 . S
C4013 C4015 1.389 . S
C4014 H3987 0.950 . S
C4014 C4000 1.377 . S
C4014 C4013 1.373 . S
C4015 C3999 1.377 . S
C4015 C4013 1.389 . S
C4015 C4016 1.524 . S
C4016 C4015 1.524 . S
C4016 C4017 1.397 . S
C4016 C4021 1.363 . S
C4017 H3988 0.950 . S
C4017 C4016 1.397 . S
C4017 C4018 1.334 . S
C4018 H3989 0.950 . S
C4018 C4017 1.334 . S
C4018 C4019 1.287 . S
C4019 C4018 1.287 . S
C4019 C4020 1.524 . S
C4019 H4022 0.999 . S
C4020 H3990 0.950 . S
C4020 C4019 1.524 . S
C4020 C4021 1.415 . S
C4021 H3991 0.950 . S
C4021 C4016 1.363 . S
C4021 C4020 1.415 . S
H4022 C4019 0.999 . S
H4023 C4004 0.913 . S
H4024 C4042 0.951 . S
H4025 C4044 0.951 . S
H4026 C4046 0.950 . S
H4027 C4047 0.950 . S
H4028 C4049 0.950 . S
H4029 C4052 0.950 . S
H4030 C4053 0.950 . S
H4031 C4055 0.950 . S
H4032 C4056 0.950 . S
H4033 C4057 0.951 . S
H4034 C4059 0.951 . S
H4035 C4061 0.950 . S
H4036 C4062 0.950 . S
H4037 C4064 0.950 . S
H4038 C4067 0.950 . S
H4039 C4068 0.950 . S
H4040 C4070 0.950 . S
H4041 C4071 0.950 . S
C4042 H4024 0.951 . S
C4042 C4043 1.366 . S
C4042 C4044 1.388 . S
C4043 C4042 1.366 . S
C4043 C4047 1.385 . S
C4044 H4025 0.951 . S
C4044 C4042 1.388 . S
C4044 C4045 1.366 . S
C4045 C4044 1.366 . S
C4045 C4046 1.414 . S
C4045 C4048 1.499 . S
C4046 H4026 0.950 . S
C4046 C4045 1.414 . S
C4046 C4047 1.374 . S
C4047 H4027 0.950 . S
C4047 C4043 1.385 . S
C4047 C4046 1.374 . S
C4048 C4045 1.499 . S
C4048 C4049 1.373 . S
C4048 C4050 1.389 . S
C4049 H4028 0.950 . S
C4049 C4048 1.373 . S
C4049 C4065 1.377 . S
C4050 C4048 1.389 . S
C4050 C4051 1.524 . S
C4050 C4064 1.377 . S
C4051 C4050 1.524 . S
C4051 C4052 1.397 . S
C4051 C4056 1.363 . S
C4052 H4029 0.950 . S
C4052 C4051 1.397 . S
C4052 C4053 1.334 . S
C4053 H4030 0.950 . S
C4053 C4052 1.334 . S
C4053 C4054 1.287 . S
C4054 C4053 1.287 . S
C4054 C4055 1.524 . S
C4054 H4073 0.913 . S
C4055 H4031 0.950 . S
C4055 C4054 1.524 . S
C4055 C4056 1.415 . S
C4056 H4032 0.950 . S
C4056 C4051 1.363 . S
C4056 C4055 1.415 . S
C4057 H4033 0.951 . S
C4057 C4058 1.366 . S
C4057 C4059 1.388 . S
C4058 C4057 1.366 . S
C4058 C4062 1.385 . S
C4059 H4034 0.951 . S
C4059 C4057 1.388 . S
C4059 C4060 1.366 . S
C4060 C4059 1.366 . S
C4060 C4061 1.414 . S
C4060 C4063 1.499 . S
C4061 H4035 0.950 . S
C4061 C4060 1.414 . S
C4061 C4062 1.374 . S
C4062 H4036 0.950 . S
C4062 C4058 1.385 . S
C4062 C4061 1.374 . S
C4063 C4060 1.499 . S
C4063 C4064 1.373 . S
C4063 C4065 1.389 . S
C4064 H4037 0.950 . S
C4064 C4050 1.377 . S
C4064 C4063 1.373 . S
C4065 C4049 1.377 . S
C4065 C4063 1.389 . S
C4065 C4066 1.524 . S
C4066 C4065 1.524 . S
C4066 C4067 1.397 . S
C4066 C4071 1.363 . S
C4067 H4038 0.950 . S
C4067 C4066 1.397 . S
C4067 C4068 1.334 . S
C4068 H4039 0.950 . S
C4068 C4067 1.334 . S
C4068 C4069 1.287 . S
C4069 C4068 1.287 . S
C4069 C4070 1.524 . S
C4069 H4072 0.999 . S
C4070 H4040 0.950 . S
C4070 C4069 1.524 . S
C4070 C4071 1.415 . S
C4071 H4041 0.950 . S
C4071 C4066 1.363 . S
C4071 C4070 1.415 . S
H4072 C4069 0.999 . S
H4073 C4054 0.913 . S
H4074 C4092 0.951 . S
H4075 C4094 0.951 . S
H4076 C4096 0.950 . S
H4077 C4097 0.950 . S
H4078 C4099 0.950 . S
H4079 C4102 0.950 . S
H4080 C4103 0.950 . S
H4081 C4105 0.950 . S
H4082 C4106 0.950 . S
H4083 C4107 0.951 . S
H4084 C4109 0.951 . S
H4085 C4111 0.950 . S
H4086 C4112 0.950 . S
H4087 C4114 0.950 . S
H4088 C4117 0.950 . S
H4089 C4118 0.950 . S
H4090 C4120 0.950 . S
H4091 C4121 0.950 . S
C4092 H4074 0.951 . S
C4092 C4093 1.366 . S
C4092 C4094 1.388 . S
C4093 C4092 1.366 . S
C4093 C4097 1.385 . S
C4094 H4075 0.951 . S
C4094 C4092 1.388 . S
C4094 C4095 1.366 . S
C4095 C4094 1.366 . S
C4095 C4096 1.414 . S
C4095 C4098 1.499 . S
C4096 H4076 0.950 . S
C4096 C4095 1.414 . S
C4096 C4097 1.374 . S
C4097 H4077 0.950 . S
C4097 C4093 1.385 . S
C4097 C4096 1.374 . S
C4098 C4095 1.499 . S
C4098 C4099 1.373 . S
C4098 C4100 1.389 . S
C4099 H4078 0.950 . S
C4099 C4098 1.373 . S
C4099 C4115 1.377 . S
C4100 C4098 1.389 . S
C4100 C4101 1.524 . S
C4100 C4114 1.377 . S
C4101 C4100 1.524 . S
C4101 C4102 1.397 . S
C4101 C4106 1.363 . S
C4102 H4079 0.950 . S
C4102 C4101 1.397 . S
C4102 C4103 1.334 . S
C4103 H4080 0.950 . S
C4103 C4102 1.334 . S
C4103 C4104 1.287 . S
C4104 C4103 1.287 . S
C4104 C4105 1.524 . S
C4104 H4123 0.913 . S
C4105 H4081 0.950 . S
C4105 C4104 1.524 . S
C4105 C4106 1.415 . S
C4106 H4082 0.950 . S
C4106 C4101 1.363 . S
C4106 C4105 1.415 . S
C4107 H4083 0.951 . S
C4107 C4108 1.366 . S
C4107 C4109 1.388 . S
C4108 C4107 1.366 . S
C4108 C4112 1.385 . S
C4109 H4084 0.951 . S
C4109 C4107 1.388 . S
C4109 C4110 1.366 . S
C4110 C4109 1.366 . S
C4110 C4111 1.414 . S
C4110 C4113 1.499 . S
C4111 H4085 0.950 . S
C4111 C4110 1.414 . S
C4111 C4112 1.374 . S
C4112 H4086 0.950 . S
C4112 C4108 1.385 . S
C4112 C4111 1.374 . S
C4113 C4110 1.499 . S
C4113 C4114 1.373 . S
C4113 C4115 1.389 . S
C4114 H4087 0.950 . S
C4114 C4100 1.377 . S
C4114 C4113 1.373 . S
C4115 C4099 1.377 . S
C4115 C4113 1.389 . S
C4115 C4116 1.524 . S
C4116 C4115 1.524 . S
C4116 C4117 1.397 . S
C4116 C4121 1.363 . S
C4117 H4088 0.950 . S
C4117 C4116 1.397 . S
C4117 C4118 1.334 . S
C4118 H4089 0.950 . S
C4118 C4117 1.334 . S
C4118 C4119 1.287 . S
C4119 C4118 1.287 . S
C4119 C4120 1.524 . S
C4119 H4122 0.999 . S
C4120 H4090 0.950 . S
C4120 C4119 1.524 . S
C4120 C4121 1.415 . S
C4121 H4091 0.950 . S
C4121 C4116 1.363 . S
C4121 C4120 1.415 . S
H4122 C4119 0.999 . S
H4123 C4104 0.913 . S
H4124 C4142 0.951 . S
H4125 C4144 0.951 . S
H4126 C4146 0.950 . S
H4127 C4147 0.950 . S
H4128 C4149 0.950 . S
H4129 C4152 0.950 . S
H4130 C4153 0.950 . S
H4131 C4155 0.950 . S
H4132 C4156 0.950 . S
H4133 C4157 0.951 . S
H4134 C4159 0.951 . S
H4135 C4161 0.950 . S
H4136 C4162 0.950 . S
H4137 C4164 0.950 . S
H4138 C4167 0.950 . S
H4139 C4168 0.950 . S
H4140 C4170 0.950 . S
H4141 C4171 0.950 . S
C4142 H4124 0.951 . S
C4142 C4143 1.366 . S
C4142 C4144 1.388 . S
C4143 C4142 1.366 . S
C4143 C4147 1.385 . S
C4144 H4125 0.951 . S
C4144 C4142 1.388 . S
C4144 C4145 1.366 . S
C4145 C4144 1.366 . S
C4145 C4146 1.414 . S
C4145 C4148 1.499 . S
C4146 H4126 0.950 . S
C4146 C4145 1.414 . S
C4146 C4147 1.374 . S
C4147 H4127 0.950 . S
C4147 C4143 1.385 . S
C4147 C4146 1.374 . S
C4148 C4145 1.499 . S
C4148 C4149 1.373 . S
C4148 C4150 1.389 . S
C4149 H4128 0.950 . S
C4149 C4148 1.373 . S
C4149 C4165 1.377 . S
C4150 C4148 1.389 . S
C4150 C4151 1.524 . S
C4150 C4164 1.377 . S
C4151 C4150 1.524 . S
C4151 C4152 1.397 . S
C4151 C4156 1.363 . S
C4152 H4129 0.950 . S
C4152 C4151 1.397 . S
C4152 C4153 1.334 . S
C4153 H4130 0.950 . S
C4153 C4152 1.334 . S
C4153 C4154 1.287 . S
C4154 C4153 1.287 . S
C4154 C4155 1.524 . S
C4154 H4173 0.913 . S
C4155 H4131 0.950 . S
C4155 C4154 1.524 . S
C4155 C4156 1.415 . S
C4156 H4132 0.950 . S
C4156 C4151 1.363 . S
C4156 C4155 1.415 . S
C4157 H4133 0.951 . S
C4157 C4158 1.366 . S
C4157 C4159 1.388 . S
C4158 C4157 1.366 . S
C4158 C4162 1.385 . S
C4159 H4134 0.951 . S
C4159 C4157 1.388 . S
C4159 C4160 1.366 . S
C4160 C4159 1.366 . S
C4160 C4161 1.414 . S
C4160 C4163 1.499 . S
C4161 H4135 0.950 . S
C4161 C4160 1.414 . S
C4161 C4162 1.374 . S
C4162 H4136 0.950 . S
C4162 C4158 1.385 . S
C4162 C4161 1.374 . S
C4163 C4160 1.499 . S
C4163 C4164 1.373 . S
C4163 C4165 1.389 . S
C4164 H4137 0.950 . S
C4164 C4150 1.377 . S
C4164 C4163 1.373 . S
C4165 C4149 1.377 . S
C4165 C4163 1.389 . S
C4165 C4166 1.524 . S
C4166 C4165 1.524 . S
C4166 C4167 1.397 . S
C4166 C4171 1.363 . S
C4167 H4138 0.950 . S
C4167 C4166 1.397 . S
C4167 C4168 1.334 . S
C4168 H4139 0.950 . S
C4168 C4167 1.334 . S
C4168 C4169 1.287 . S
C4169 C4168 1.287 . S
C4169 C4170 1.524 . S
C4169 H4172 0.999 . S
C4170 H4140 0.950 . S
C4170 C4169 1.524 . S
C4170 C4171 1.415 . S
C4171 H4141 0.950 . S
C4171 C4166 1.363 . S
C4171 C4170 1.415 . S
H4172 C4169 0.999 . S
H4173 C4154 0.913 . S
H4174 C4192 0.951 . S
H4175 C4194 0.951 . S
H4176 C4196 0.950 . S
H4177 C4197 0.950 . S
H4178 C4199 0.950 . S
H4179 C4202 0.950 . S
H4180 C4203 0.950 . S
H4181 C4205 0.950 . S
H4182 C4206 0.950 . S
H4183 C4207 0.951 . S
H4184 C4209 0.951 . S
H4185 C4211 0.950 . S
H4186 C4212 0.950 . S
H4187 C4214 0.950 . S
H4188 C4217 0.950 . S
H4189 C4218 0.950 . S
H4190 C4220 0.950 . S
H4191 C4221 0.950 . S
C4192 H4174 0.951 . S
C4192 C4193 1.366 . S
C4192 C4194 1.388 . S
C4193 C4192 1.366 . S
C4193 C4197 1.385 . S
C4194 H4175 0.951 . S
C4194 C4192 1.388 . S
C4194 C4195 1.366 . S
C4195 C4194 1.366 . S
C4195 C4196 1.414 . S
C4195 C4198 1.499 . S
C4196 H4176 0.950 . S
C4196 C4195 1.414 . S
C4196 C4197 1.374 . S
C4197 H4177 0.950 . S
C4197 C4193 1.385 . S
C4197 C4196 1.374 . S
C4198 C4195 1.499 . S
C4198 C4199 1.373 . S
C4198 C4200 1.389 . S
C4199 H4178 0.950 . S
C4199 C4198 1.373 . S
C4199 C4215 1.377 . S
C4200 C4198 1.389 . S
C4200 C4201 1.524 . S
C4200 C4214 1.377 . S
C4201 C4200 1.524 . S
C4201 C4202 1.397 . S
C4201 C4206 1.363 . S
C4202 H4179 0.950 . S
C4202 C4201 1.397 . S
C4202 C4203 1.334 . S
C4203 H4180 0.950 . S
C4203 C4202 1.334 . S
C4203 C4204 1.287 . S
C4204 C4203 1.287 . S
C4204 C4205 1.524 . S
C4204 H4223 0.913 . S
C4205 H4181 0.950 . S
C4205 C4204 1.524 . S
C4205 C4206 1.415 . S
C4206 H4182 0.950 . S
C4206 C4201 1.363 . S
C4206 C4205 1.415 . S
C4207 H4183 0.951 . S
C4207 C4208 1.366 . S
C4207 C4209 1.388 . S
C4208 C4207 1.366 . S
C4208 C4212 1.385 . S
C4209 H4184 0.951 . S
C4209 C4207 1.388 . S
C4209 C4210 1.366 . S
C4210 C4209 1.366 . S
C4210 C4211 1.414 . S
C4210 C4213 1.499 . S
C4211 H4185 0.950 . S
C4211 C4210 1.414 . S
C4211 C4212 1.374 . S
C4212 H4186 0.950 . S
C4212 C4208 1.385 . S
C4212 C4211 1.374 . S
C4213 C4210 1.499 . S
C4213 C4214 1.373 . S
C4213 C4215 1.389 . S
C4214 H4187 0.950 . S
C4214 C4200 1.377 . S
C4214 C4213 1.373 . S
C4215 C4199 1.377 . S
C4215 C4213 1.389 . S
C4215 C4216 1.524 . S
C4216 C4215 1.524 . S
C4216 C4217 1.397 . S
C4216 C4221 1.363 . S
C4217 H4188 0.950 . S
C4217 C4216 1.397 . S
C4217 C4218 1.334 . S
C4218 H4189 0.950 . S
C4218 C4217 1.334 . S
C4218 C4219 1.287 . S
C4219 C4218 1.287 . S
C4219 C4220 1.524 . S
C4219 H4222 0.999 . S
C4220 H4190 0.950 . S
C4220 C4219 1.524 . S
C4220 C4221 1.415 . S
C4221 H4191 0.950 . S
C4221 C4216 1.363 . S
C4221 C4220 1.415 . S
H4222 C4219 0.999 . S
H4223 C4204 0.913 . S
H4224 C4242 0.951 . S
H4225 C4244 0.951 . S
H4226 C4246 0.950 . S
H4227 C4247 0.950 . S
H4228 C4249 0.950 . S
H4229 C4252 0.950 . S
H4230 C4253 0.950 . S
H4231 C4255 0.950 . S
H4232 C4256 0.950 . S
H4233 C4257 0.951 . S
H4234 C4259 0.951 . S
H4235 C4261 0.950 . S
H4236 C4262 0.950 . S
H4237 C4264 0.950 . S
H4238 C4267 0.950 . S
H4239 C4268 0.950 . S
H4240 C4270 0.950 . S
H4241 C4271 0.950 . S
C4242 H4224 0.951 . S
C4242 C4243 1.366 . S
C4242 C4244 1.388 . S
C4243 C4242 1.366 . S
C4243 C4247 1.385 . S
C4244 H4225 0.951 . S
C4244 C4242 1.388 . S
C4244 C4245 1.366 . S
C4245 C4244 1.366 . S
C4245 C4246 1.414 . S
C4245 C4248 1.499 . S
C4246 H4226 0.950 . S
C4246 C4245 1.414 . S
C4246 C4247 1.374 . S
C4247 H4227 0.950 . S
C4247 C4243 1.385 . S
C4247 C4246 1.374 . S
C4248 C4245 1.499 . S
C4248 C4249 1.373 . S
C4248 C4250 1.389 . S
C4249 H4228 0.950 . S
C4249 C4248 1.373 . S
C4249 C4265 1.377 . S
C4250 C4248 1.389 . S
C4250 C4251 1.524 . S
C4250 C4264 1.377 . S
C4251 C4250 1.524 . S
C4251 C4252 1.397 . S
C4251 C4256 1.363 . S
C4252 H4229 0.950 . S
C4252 C4251 1.397 . S
C4252 C4253 1.334 . S
C4253 H4230 0.950 . S
C4253 C4252 1.334 . S
C4253 C4254 1.287 . S
C4254 C4253 1.287 . S
C4254 C4255 1.524 . S
C4254 H4273 0.913 . S
C4255 H4231 0.950 . S
C4255 C4254 1.524 . S
C4255 C4256 1.415 . S
C4256 H4232 0.950 . S
C4256 C4251 1.363 . S
C4256 C4255 1.415 . S
C4257 H4233 0.951 . S
C4257 C4258 1.366 . S
C4257 C4259 1.388 . S
C4258 C4257 1.366 . S
C4258 C4262 1.385 . S
C4259 H4234 0.951 . S
C4259 C4257 1.388 . S
C4259 C4260 1.366 . S
C4260 C4259 1.366 . S
C4260 C4261 1.414 . S
C4260 C4263 1.499 . S
C4261 H4235 0.950 . S
C4261 C4260 1.414 . S
C4261 C4262 1.374 . S
C4262 H4236 0.950 . S
C4262 C4258 1.385 . S
C4262 C4261 1.374 . S
C4263 C4260 1.499 . S
C4263 C4264 1.373 . S
C4263 C4265 1.389 . S
C4264 H4237 0.950 . S
C4264 C4250 1.377 . S
C4264 C4263 1.373 . S
C4265 C4249 1.377 . S
C4265 C4263 1.389 . S
C4265 C4266 1.524 . S
C4266 C4265 1.524 . S
C4266 C4267 1.397 . S
C4266 C4271 1.363 . S
C4267 H4238 0.950 . S
C4267 C4266 1.397 . S
C4267 C4268 1.334 . S
C4268 H4239 0.950 . S
C4268 C4267 1.334 . S
C4268 C4269 1.287 . S
C4269 C4268 1.287 . S
C4269 C4270 1.524 . S
C4269 H4272 0.999 . S
C4270 H4240 0.950 . S
C4270 C4269 1.524 . S
C4270 C4271 1.415 . S
C4271 H4241 0.950 . S
C4271 C4266 1.363 . S
C4271 C4270 1.415 . S
H4272 C4269 0.999 . S
H4273 C4254 0.913 . S
H4274 C4292 0.951 . S
H4275 C4294 0.951 . S
H4276 C4296 0.950 . S
H4277 C4297 0.950 . S
H4278 C4299 0.950 . S
H4279 C4302 0.950 . S
H4280 C4303 0.950 . S
H4281 C4305 0.950 . S
H4282 C4306 0.950 . S
H4283 C4307 0.951 . S
H4284 C4309 0.951 . S
H4285 C4311 0.950 . S
H4286 C4312 0.950 . S
H4287 C4314 0.950 . S
H4288 C4317 0.950 . S
H4289 C4318 0.950 . S
H4290 C4320 0.950 . S
H4291 C4321 0.950 . S
C4292 H4274 0.951 . S
C4292 C4293 1.366 . S
C4292 C4294 1.388 . S
C4293 C4292 1.366 . S
C4293 C4297 1.385 . S
C4294 H4275 0.951 . S
C4294 C4292 1.388 . S
C4294 C4295 1.366 . S
C4295 C4294 1.366 . S
C4295 C4296 1.414 . S
C4295 C4298 1.499 . S
C4296 H4276 0.950 . S
C4296 C4295 1.414 . S
C4296 C4297 1.374 . S
C4297 H4277 0.950 . S
C4297 C4293 1.385 . S
C4297 C4296 1.374 . S
C4298 C4295 1.499 . S
C4298 C4299 1.373 . S
C4298 C4300 1.389 . S
C4299 H4278 0.950 . S
C4299 C4298 1.373 . S
C4299 C4315 1.377 . S
C4300 C4298 1.389 . S
C4300 C4301 1.524 . S
C4300 C4314 1.377 . S
C4301 C4300 1.524 . S
C4301 C4302 1.397 . S
C4301 C4306 1.363 . S
C4302 H4279 0.950 . S
C4302 C4301 1.397 . S
C4302 C4303 1.334 . S
C4303 H4280 0.950 . S
C4303 C4302 1.334 . S
C4303 C4304 1.287 . S
C4304 C4303 1.287 . S
C4304 C4305 1.524 . S
C4304 H4323 0.913 . S
C4305 H4281 0.950 . S
C4305 C4304 1.524 . S
C4305 C4306 1.415 . S
C4306 H4282 0.950 . S
C4306 C4301 1.363 . S
C4306 C4305 1.415 . S
C4307 H4283 0.951 . S
C4307 C4308 1.366 . S
C4307 C4309 1.388 . S
C4308 C4307 1.366 . S
C4308 C4312 1.385 . S
C4309 H4284 0.951 . S
C4309 C4307 1.388 . S
C4309 C4310 1.366 . S
C4310 C4309 1.366 . S
C4310 C4311 1.414 . S
C4310 C4313 1.499 . S
C4311 H4285 0.950 . S
C4311 C4310 1.414 . S
C4311 C4312 1.374 . S
C4312 H4286 0.950 . S
C4312 C4308 1.385 . S
C4312 C4311 1.374 . S
C4313 C4310 1.499 . S
C4313 C4314 1.373 . S
C4313 C4315 1.389 . S
C4314 H4287 0.950 . S
C4314 C4300 1.377 . S
C4314 C4313 1.373 . S
C4315 C4299 1.377 . S
C4315 C4313 1.389 . S
C4315 C4316 1.524 . S
C4316 C4315 1.524 . S
C4316 C4317 1.397 . S
C4316 C4321 1.363 . S
C4317 H4288 0.950 . S
C4317 C4316 1.397 . S
C4317 C4318 1.334 . S
C4318 H4289 0.950 . S
C4318 C4317 1.334 . S
C4318 C4319 1.287 . S
C4319 C4318 1.287 . S
C4319 C4320 1.524 . S
C4319 H4322 0.999 . S
C4320 H4290 0.950 . S
C4320 C4319 1.524 . S
C4320 C4321 1.415 . S
C4321 H4291 0.950 . S
C4321 C4316 1.363 . S
C4321 C4320 1.415 . S
H4322 C4319 0.999 . S
H4323 C4304 0.913 . S
H4324 C4342 0.951 . S
H4325 C4344 0.951 . S
H4326 C4346 0.950 . S
H4327 C4347 0.950 . S
H4328 C4349 0.950 . S
H4329 C4352 0.950 . S
H4330 C4353 0.950 . S
H4331 C4355 0.950 . S
H4332 C4356 0.950 . S
H4333 C4357 0.951 . S
H4334 C4359 0.951 . S
H4335 C4361 0.950 . S
H4336 C4362 0.950 . S
H4337 C4364 0.950 . S
H4338 C4367 0.950 . S
H4339 C4368 0.950 . S
H4340 C4370 0.950 . S
H4341 C4371 0.950 . S
C4342 H4324 0.951 . S
C4342 C4343 1.366 . S
C4342 C4344 1.388 . S
C4343 C4342 1.366 . S
C4343 C4347 1.385 . S
C4344 H4325 0.951 . S
C4344 C4342 1.388 . S
C4344 C4345 1.366 . S
C4345 C4344 1.366 . S
C4345 C4346 1.414 . S
C4345 C4348 1.499 . S
C4346 H4326 0.950 . S
C4346 C4345 1.414 . S
C4346 C4347 1.374 . S
C4347 H4327 0.950 . S
C4347 C4343 1.385 . S
C4347 C4346 1.374 . S
C4348 C4345 1.499 . S
C4348 C4349 1.373 . S
C4348 C4350 1.389 . S
C4349 H4328 0.950 . S
C4349 C4348 1.373 . S
C4349 C4365 1.377 . S
C4350 C4348 1.389 . S
C4350 C4351 1.524 . S
C4350 C4364 1.377 . S
C4351 C4350 1.524 . S
C4351 C4352 1.397 . S
C4351 C4356 1.363 . S
C4352 H4329 0.950 . S
C4352 C4351 1.397 . S
C4352 C4353 1.334 . S
C4353 H4330 0.950 . S
C4353 C4352 1.334 . S
C4353 C4354 1.287 . S
C4354 C4353 1.287 . S
C4354 C4355 1.524 . S
C4354 H4373 0.913 . S
C4355 H4331 0.950 . S
C4355 C4354 1.524 . S
C4355 C4356 1.415 . S
C4356 H4332 0.950 . S
C4356 C4351 1.363 . S
C4356 C4355 1.415 . S
C4357 H4333 0.951 . S
C4357 C4358 1.366 . S
C4357 C4359 1.388 . S
C4358 C4357 1.366 . S
C4358 C4362 1.385 . S
C4359 H4334 0.951 . S
C4359 C4357 1.388 . S
C4359 C4360 1.366 . S
C4360 C4359 1.366 . S
C4360 C4361 1.414 . S
C4360 C4363 1.499 . S
C4361 H4335 0.950 . S
C4361 C4360 1.414 . S
C4361 C4362 1.374 . S
C4362 H4336 0.950 . S
C4362 C4358 1.385 . S
C4362 C4361 1.374 . S
C4363 C4360 1.499 . S
C4363 C4364 1.373 . S
C4363 C4365 1.389 . S
C4364 H4337 0.950 . S
C4364 C4350 1.377 . S
C4364 C4363 1.373 . S
C4365 C4349 1.377 . S
C4365 C4363 1.389 . S
C4365 C4366 1.524 . S
C4366 C4365 1.524 . S
C4366 C4367 1.397 . S
C4366 C4371 1.363 . S
C4367 H4338 0.950 . S
C4367 C4366 1.397 . S
C4367 C4368 1.334 . S
C4368 H4339 0.950 . S
C4368 C4367 1.334 . S
C4368 C4369 1.287 . S
C4369 C4368 1.287 . S
C4369 C4370 1.524 . S
C4369 H4372 0.999 . S
C4370 H4340 0.950 . S
C4370 C4369 1.524 . S
C4370 C4371 1.415 . S
C4371 H4341 0.950 . S
C4371 C4366 1.363 . S
C4371 C4370 1.415 . S
H4372 C4369 0.999 . S
H4373 C4354 0.913 . S
H4374 C4392 0.951 . S
H4375 C4394 0.951 . S
H4376 C4396 0.950 . S
H4377 C4397 0.950 . S
H4378 C4399 0.950 . S
H4379 C4402 0.950 . S
H4380 C4403 0.950 . S
H4381 C4405 0.950 . S
H4382 C4406 0.950 . S
H4383 C4407 0.951 . S
H4384 C4409 0.951 . S
H4385 C4411 0.950 . S
H4386 C4412 0.950 . S
H4387 C4414 0.950 . S
H4388 C4417 0.950 . S
H4389 C4418 0.950 . S
H4390 C4420 0.950 . S
H4391 C4421 0.950 . S
C4392 H4374 0.951 . S
C4392 C4393 1.366 . S
C4392 C4394 1.388 . S
C4393 C4392 1.366 . S
C4393 C4397 1.385 . S
C4394 H4375 0.951 . S
C4394 C4392 1.388 . S
C4394 C4395 1.366 . S
C4395 C4394 1.366 . S
C4395 C4396 1.414 . S
C4395 C4398 1.499 . S
C4396 H4376 0.950 . S
C4396 C4395 1.414 . S
C4396 C4397 1.374 . S
C4397 H4377 0.950 . S
C4397 C4393 1.385 . S
C4397 C4396 1.374 . S
C4398 C4395 1.499 . S
C4398 C4399 1.373 . S
C4398 C4400 1.389 . S
C4399 H4378 0.950 . S
C4399 C4398 1.373 . S
C4399 C4415 1.377 . S
C4400 C4398 1.389 . S
C4400 C4401 1.524 . S
C4400 C4414 1.377 . S
C4401 C4400 1.524 . S
C4401 C4402 1.397 . S
C4401 C4406 1.363 . S
C4402 H4379 0.950 . S
C4402 C4401 1.397 . S
C4402 C4403 1.334 . S
C4403 H4380 0.950 . S
C4403 C4402 1.334 . S
C4403 C4404 1.287 . S
C4404 C4403 1.287 . S
C4404 C4405 1.524 . S
C4404 H4423 0.913 . S
C4405 H4381 0.950 . S
C4405 C4404 1.524 . S
C4405 C4406 1.415 . S
C4406 H4382 0.950 . S
C4406 C4401 1.363 . S
C4406 C4405 1.415 . S
C4407 H4383 0.951 . S
C4407 C4408 1.366 . S
C4407 C4409 1.388 . S
C4408 C4407 1.366 . S
C4408 C4412 1.385 . S
C4409 H4384 0.951 . S
C4409 C4407 1.388 . S
C4409 C4410 1.366 . S
C4410 C4409 1.366 . S
C4410 C4411 1.414 . S
C4410 C4413 1.499 . S
C4411 H4385 0.950 . S
C4411 C4410 1.414 . S
C4411 C4412 1.374 . S
C4412 H4386 0.950 . S
C4412 C4408 1.385 . S
C4412 C4411 1.374 . S
C4413 C4410 1.499 . S
C4413 C4414 1.373 . S
C4413 C4415 1.389 . S
C4414 H4387 0.950 . S
C4414 C4400 1.377 . S
C4414 C4413 1.373 . S
C4415 C4399 1.377 . S
C4415 C4413 1.389 . S
C4415 C4416 1.524 . S
C4416 C4415 1.524 . S
C4416 C4417 1.397 . S
C4416 C4421 1.363 . S
C4417 H4388 0.950 . S
C4417 C4416 1.397 . S
C4417 C4418 1.334 . S
C4418 H4389 0.950 . S
C4418 C4417 1.334 . S
C4418 C4419 1.287 . S
C4419 C4418 1.287 . S
C4419 C4420 1.524 . S
C4419 H4422 0.999 . S
C4420 H4390 0.950 . S
C4420 C4419 1.524 . S
C4420 C4421 1.415 . S
C4421 H4391 0.950 . S
C4421 C4416 1.363 . S
C4421 C4420 1.415 . S
H4422 C4419 0.999 . S
H4423 C4404 0.913 . S
H4424 C4442 0.951 . S
H4425 C4444 0.951 . S
H4426 C4446 0.950 . S
H4427 C4447 0.950 . S
H4428 C4449 0.950 . S
H4429 C4452 0.950 . S
H4430 C4453 0.950 . S
H4431 C4455 0.950 . S
H4432 C4456 0.950 . S
H4433 C4457 0.951 . S
H4434 C4459 0.951 . S
H4435 C4461 0.950 . S
H4436 C4462 0.950 . S
H4437 C4464 0.950 . S
H4438 C4467 0.950 . S
H4439 C4468 0.950 . S
H4440 C4470 0.950 . S
H4441 C4471 0.950 . S
C4442 H4424 0.951 . S
C4442 C4443 1.366 . S
C4442 C4444 1.388 . S
C4443 C4442 1.366 . S
C4443 C4447 1.385 . S
C4444 H4425 0.951 . S
C4444 C4442 1.388 . S
C4444 C4445 1.366 . S
C4445 C4444 1.366 . S
C4445 C4446 1.414 . S
C4445 C4448 1.499 . S
C4446 H4426 0.950 . S
C4446 C4445 1.414 . S
C4446 C4447 1.374 . S
C4447 H4427 0.950 . S
C4447 C4443 1.385 . S
C4447 C4446 1.374 . S
C4448 C4445 1.499 . S
C4448 C4449 1.373 . S
C4448 C4450 1.389 . S
C4449 H4428 0.950 . S
C4449 C4448 1.373 . S
C4449 C4465 1.377 . S
C4450 C4448 1.389 . S
C4450 C4451 1.524 . S
C4450 C4464 1.377 . S
C4451 C4450 1.524 . S
C4451 C4452 1.397 . S
C4451 C4456 1.363 . S
C4452 H4429 0.950 . S
C4452 C4451 1.397 . S
C4452 C4453 1.334 . S
C4453 H4430 0.950 . S
C4453 C4452 1.334 . S
C4453 C4454 1.287 . S
C4454 C4453 1.287 . S
C4454 C4455 1.524 . S
C4454 H4473 0.913 . S
C4455 H4431 0.950 . S
C4455 C4454 1.524 . S
C4455 C4456 1.415 . S
C4456 H4432 0.950 . S
C4456 C4451 1.363 . S
C4456 C4455 1.415 . S
C4457 H4433 0.951 . S
C4457 C4458 1.366 . S
C4457 C4459 1.388 . S
C4458 C4457 1.366 . S
C4458 C4462 1.385 . S
C4459 H4434 0.951 . S
C4459 C4457 1.388 . S
C4459 C4460 1.366 . S
C4460 C4459 1.366 . S
C4460 C4461 1.414 . S
C4460 C4463 1.499 . S
C4461 H4435 0.950 . S
C4461 C4460 1.414 . S
C4461 C4462 1.374 . S
C4462 H4436 0.950 . S
C4462 C4458 1.385 . S
C4462 C4461 1.374 . S
C4463 C4460 1.499 . S
C4463 C4464 1.373 . S
C4463 C4465 1.389 . S
C4464 H4437 0.950 . S
C4464 C4450 1.377 . S
C4464 C4463 1.373 . S
C4465 C4449 1.377 . S
C4465 C4463 1.389 . S
C4465 C4466 1.524 . S
C4466 C4465 1.524 . S
C4466 C4467 1.397 . S
C4466 C4471 1.363 . S
C4467 H4438 0.950 . S
C4467 C4466 1.397 . S
C4467 C4468 1.334 . S
C4468 H4439 0.950 . S
C4468 C4467 1.334 . S
C4468 C4469 1.287 . S
C4469 C4468 1.287 . S
C4469 C4470 1.524 . S
C4469 H4472 0.999 . S
C4470 H4440 0.950 . S
C4470 C4469 1.524 . S
C4470 C4471 1.415 . S
C4471 H4441 0.950 . S
C4471 C4466 1.363 . S
C4471 C4470 1.415 . S
H4472 C4469 0.999 . S
H4473 C4454 0.913 . S
H4474 C4492 0.951 . S
H4475 C4494 0.951 . S
H4476 C4496 0.950 . S
H4477 C4497 0.950 . S
H4478 C4499 0.950 . S
H4479 C4502 0.950 . S
H4480 C4503 0.950 . S
H4481 C4505 0.950 . S
H4482 C4506 0.950 . S
H4483 C4507 0.951 . S
H4484 C4509 0.951 . S
H4485 C4511 0.950 . S
H4486 C4512 0.950 . S
H4487 C4514 0.950 . S
H4488 C4517 0.950 . S
H4489 C4518 0.950 . S
H4490 C4520 0.950 . S
H4491 C4521 0.950 . S
C4492 H4474 0.951 . S
C4492 C4493 1.366 . S
C4492 C4494 1.388 . S
C4493 C4492 1.366 . S
C4493 C4497 1.385 . S
C4494 H4475 0.951 . S
C4494 C4492 1.388 . S
C4494 C4495 1.366 . S
C4495 C4494 1.366 . S
C4495 C4496 1.414 . S
C4495 C4498 1.499 . S
C4496 H4476 0.950 . S
C4496 C4495 1.414 . S
C4496 C4497 1.374 . S
C4497 H4477 0.950 . S
C4497 C4493 1.385 . S
C4497 C4496 1.374 . S
C4498 C4495 1.499 . S
C4498 C4499 1.373 . S
C4498 C4500 1.389 . S
C4499 H4478 0.950 . S
C4499 C4498 1.373 . S
C4499 C4515 1.377 . S
C4500 C4498 1.389 . S
C4500 C4501 1.524 . S
C4500 C4514 1.377 . S
C4501 C4500 1.524 . S
C4501 C4502 1.397 . S
C4501 C4506 1.363 . S
C4502 H4479 0.950 . S
C4502 C4501 1.397 . S
C4502 C4503 1.334 . S
C4503 H4480 0.950 . S
C4503 C4502 1.334 . S
C4503 C4504 1.287 . S
C4504 C4503 1.287 . S
C4504 C4505 1.524 . S
C4504 H4523 0.913 . S
C4505 H4481 0.950 . S
C4505 C4504 1.524 . S
C4505 C4506 1.415 . S
C4506 H4482 0.950 . S
C4506 C4501 1.363 . S
C4506 C4505 1.415 . S
C4507 H4483 0.951 . S
C4507 C4508 1.366 . S
C4507 C4509 1.388 . S
C4508 C4507 1.366 . S
C4508 C4512 1.385 . S
C4509 H4484 0.951 . S
C4509 C4507 1.388 . S
C4509 C4510 1.366 . S
C4510 C4509 1.366 . S
C4510 C4511 1.414 . S
C4510 C4513 1.499 . S
C4511 H4485 0.950 . S
C4511 C4510 1.414 . S
C4511 C4512 1.374 . S
C4512 H4486 0.950 . S
C4512 C4508 1.385 . S
C4512 C4511 1.374 . S
C4513 C4510 1.499 . S
C4513 C4514 1.373 . S
C4513 C4515 1.389 . S
C4514 H4487 0.950 . S
C4514 C4500 1.377 . S
C4514 C4513 1.373 . S
C4515 C4499 1.377 . S
C4515 C4513 1.389 . S
C4515 C4516 1.524 . S
C4516 C4515 1.524 . S
C4516 C4517 1.397 . S
C4516 C4521 1.363 . S
C4517 H4488 0.950 . S
C4517 C4516 1.397 . S
C4517 C4518 1.334 . S
C4518 H4489 0.950 . S
C4518 C4517 1.334 . S
C4518 C4519 1.287 . S
C4519 C4518 1.287 . S
C4519 C4520 1.524 . S
C4519 H4522 0.999 . S
C4520 H4490 0.950 . S
C4520 C4519 1.524 . S
C4520 C4521 1.415 . S
C4521 H4491 0.950 . S
C4521 C4516 1.363 . S
C4521 C4520 1.415 . S
H4522 C4519 0.999 . S
H4523 C4504 0.913 . S
H4524 C4542 0.951 . S
H4525 C4544 0.951 . S
H4526 C4546 0.950 . S
H4527 C4547 0.950 . S
H4528 C4549 0.950 . S
H4529 C4552 0.950 . S
H4530 C4553 0.950 . S
H4531 C4555 0.950 . S
H4532 C4556 0.950 . S
H4533 C4557 0.951 . S
H4534 C4559 0.951 . S
H4535 C4561 0.950 . S
H4536 C4562 0.950 . S
H4537 C4564 0.950 . S
H4538 C4567 0.950 . S
H4539 C4568 0.950 . S
H4540 C4570 0.950 . S
H4541 C4571 0.950 . S
C4542 H4524 0.951 . S
C4542 C4543 1.366 . S
C4542 C4544 1.388 . S
C4543 C4542 1.366 . S
C4543 C4547 1.385 . S
C4544 H4525 0.951 . S
C4544 C4542 1.388 . S
C4544 C4545 1.366 . S
C4545 C4544 1.366 . S
C4545 C4546 1.414 . S
C4545 C4548 1.499 . S
C4546 H4526 0.950 . S
C4546 C4545 1.414 . S
C4546 C4547 1.374 . S
C4547 H4527 0.950 . S
C4547 C4543 1.385 . S
C4547 C4546 1.374 . S
C4548 C4545 1.499 . S
C4548 C4549 1.373 . S
C4548 C4550 1.389 . S
C4549 H4528 0.950 . S
C4549 C4548 1.373 . S
C4549 C4565 1.377 . S
C4550 C4548 1.389 . S
C4550 C4551 1.524 . S
C4550 C4564 1.377 . S
C4551 C4550 1.524 . S
C4551 C4552 1.397 . S
C4551 C4556 1.363 . S
C4552 H4529 0.950 . S
C4552 C4551 1.397 . S
C4552 C4553 1.334 . S
C4553 H4530 0.950 . S
C4553 C4552 1.334 . S
C4553 C4554 1.287 . S
C4554 C4553 1.287 . S
C4554 C4555 1.524 . S
C4554 H4573 0.913 . S
C4555 H4531 0.950 . S
C4555 C4554 1.524 . S
C4555 C4556 1.415 . S
C4556 H4532 0.950 . S
C4556 C4551 1.363 . S
C4556 C4555 1.415 . S
C4557 H4533 0.951 . S
C4557 C4558 1.366 . S
C4557 C4559 1.388 . S
C4558 C4557 1.366 . S
C4558 C4562 1.385 . S
C4559 H4534 0.951 . S
C4559 C4557 1.388 . S
C4559 C4560 1.366 . S
C4560 C4559 1.366 . S
C4560 C4561 1.414 . S
C4560 C4563 1.499 . S
C4561 H4535 0.950 . S
C4561 C4560 1.414 . S
C4561 C4562 1.374 . S
C4562 H4536 0.950 . S
C4562 C4558 1.385 . S
C4562 C4561 1.374 . S
C4563 C4560 1.499 . S
C4563 C4564 1.373 . S
C4563 C4565 1.389 . S
C4564 H4537 0.950 . S
C4564 C4550 1.377 . S
C4564 C4563 1.373 . S
C4565 C4549 1.377 . S
C4565 C4563 1.389 . S
C4565 C4566 1.524 . S
C4566 C4565 1.524 . S
C4566 C4567 1.397 . S
C4566 C4571 1.363 . S
C4567 H4538 0.950 . S
C4567 C4566 1.397 . S
C4567 C4568 1.334 . S
C4568 H4539 0.950 . S
C4568 C4567 1.334 . S
C4568 C4569 1.287 . S
C4569 C4568 1.287 . S
C4569 C4570 1.524 . S
C4569 H4572 0.999 . S
C4570 H4540 0.950 . S
C4570 C4569 1.524 . S
C4570 C4571 1.415 . S
C4571 H4541 0.950 . S
C4571 C4566 1.363 . S
C4571 C4570 1.415 . S
H4572 C4569 0.999 . S
H4573 C4554 0.913 . S
H4574 C4592 0.951 . S
H4575 C4594 0.951 . S
H4576 C4596 0.950 . S
H4577 C4597 0.950 . S
H4578 C4599 0.950 . S
H4579 C4602 0.950 . S
H4580 C4603 0.950 . S
H4581 C4605 0.950 . S
H4582 C4606 0.950 . S
H4583 C4607 0.951 . S
H4584 C4609 0.951 . S
H4585 C4611 0.950 . S
H4586 C4612 0.950 . S
H4587 C4614 0.950 . S
H4588 C4617 0.950 . S
H4589 C4618 0.950 . S
H4590 C4620 0.950 . S
H4591 C4621 0.950 . S
C4592 H4574 0.951 . S
C4592 C4593 1.366 . S
C4592 C4594 1.388 . S
C4593 C4592 1.366 . S
C4593 C4597 1.385 . S
C4594 H4575 0.951 . S
C4594 C4592 1.388 . S
C4594 C4595 1.366 . S
C4595 C4594 1.366 . S
C4595 C4596 1.414 . S
C4595 C4598 1.499 . S
C4596 H4576 0.950 . S
C4596 C4595 1.414 . S
C4596 C4597 1.374 . S
C4597 H4577 0.950 . S
C4597 C4593 1.385 . S
C4597 C4596 1.374 . S
C4598 C4595 1.499 . S
C4598 C4599 1.373 . S
C4598 C4600 1.389 . S
C4599 H4578 0.950 . S
C4599 C4598 1.373 . S
C4599 C4615 1.377 . S
C4600 C4598 1.389 . S
C4600 C4601 1.524 . S
C4600 C4614 1.377 . S
C4601 C4600 1.524 . S
C4601 C4602 1.397 . S
C4601 C4606 1.363 . S
C4602 H4579 0.950 . S
C4602 C4601 1.397 . S
C4602 C4603 1.334 . S
C4603 H4580 0.950 . S
C4603 C4602 1.334 . S
C4603 C4604 1.287 . S
C4604 C4603 1.287 . S
C4604 C4605 1.524 . S
C4604 H4623 0.913 . S
C4605 H4581 0.950 . S
C4605 C4604 1.524 . S
C4605 C4606 1.415 . S
C4606 H4582 0.950 . S
C4606 C4601 1.363 . S
C4606 C4605 1.415 . S
C4607 H4583 0.951 . S
C4607 C4608 1.366 . S
C4607 C4609 1.388 . S
C4608 C4607 1.366 . S
C4608 C4612 1.385 . S
C4609 H4584 0.951 . S
C4609 C4607 1.388 . S
C4609 C4610 1.366 . S
C4610 C4609 1.366 . S
C4610 C4611 1.414 . S
C4610 C4613 1.499 . S
C4611 H4585 0.950 . S
C4611 C4610 1.414 . S
C4611 C4612 1.374 . S
C4612 H4586 0.950 . S
C4612 C4608 1.385 . S
C4612 C4611 1.374 . S
C4613 C4610 1.499 . S
C4613 C4614 1.373 . S
C4613 C4615 1.389 . S
C4614 H4587 0.950 . S
C4614 C4600 1.377 . S
C4614 C4613 1.373 . S
C4615 C4599 1.377 . S
C4615 C4613 1.389 . S
C4615 C4616 1.524 . S
C4616 C4615 1.524 . S
C4616 C4617 1.397 . S
C4616 C4621 1.363 . S
C4617 H4588 0.950 . S
C4617 C4616 1.397 . S
C4617 C4618 1.334 . S
C4618 H4589 0.950 . S
C4618 C4617 1.334 . S
C4618 C4619 1.287 . S
C4619 C4618 1.287 . S
C4619 C4620 1.524 . S
C4619 H4622 0.999 . S
C4620 H4590 0.950 . S
C4620 C4619 1.524 . S
C4620 C4621 1.415 . S
C4621 H4591 0.950 . S
C4621 C4616 1.363 . S
C4621 C4620 1.415 . S
H4622 C4619 0.999 . S
H4623 C4604 0.913 . S
H4624 C4642 0.951 . S
H4625 C4644 0.951 . S
H4626 C4646 0.950 . S
H4627 C4647 0.950 . S
H4628 C4649 0.950 . S
H4629 C4652 0.950 . S
H4630 C4653 0.950 . S
H4631 C4655 0.950 . S
H4632 C4656 0.950 . S
H4633 C4657 0.951 . S
H4634 C4659 0.951 . S
H4635 C4661 0.950 . S
H4636 C4662 0.950 . S
H4637 C4664 0.950 . S
H4638 C4667 0.950 . S
H4639 C4668 0.950 . S
H4640 C4670 0.950 . S
H4641 C4671 0.950 . S
C4642 H4624 0.951 . S
C4642 C4643 1.366 . S
C4642 C4644 1.388 . S
C4643 C4642 1.366 . S
C4643 C4647 1.385 . S
C4644 H4625 0.951 . S
C4644 C4642 1.388 . S
C4644 C4645 1.366 . S
C4645 C4644 1.366 . S
C4645 C4646 1.414 . S
C4645 C4648 1.499 . S
C4646 H4626 0.950 . S
C4646 C4645 1.414 . S
C4646 C4647 1.374 . S
C4647 H4627 0.950 . S
C4647 C4643 1.385 . S
C4647 C4646 1.374 . S
C4648 C4645 1.499 . S
C4648 C4649 1.373 . S
C4648 C4650 1.389 . S
C4649 H4628 0.950 . S
C4649 C4648 1.373 . S
C4649 C4665 1.377 . S
C4650 C4648 1.389 . S
C4650 C4651 1.524 . S
C4650 C4664 1.377 . S
C4651 C4650 1.524 . S
C4651 C4652 1.397 . S
C4651 C4656 1.363 . S
C4652 H4629 0.950 . S
C4652 C4651 1.397 . S
C4652 C4653 1.334 . S
C4653 H4630 0.950 . S
C4653 C4652 1.334 . S
C4653 C4654 1.287 . S
C4654 C4653 1.287 . S
C4654 C4655 1.524 . S
C4654 H4673 0.913 . S
C4655 H4631 0.950 . S
C4655 C4654 1.524 . S
C4655 C4656 1.415 . S
C4656 H4632 0.950 . S
C4656 C4651 1.363 . S
C4656 C4655 1.415 . S
C4657 H4633 0.951 . S
C4657 C4658 1.366 . S
C4657 C4659 1.388 . S
C4658 C4657 1.366 . S
C4658 C4662 1.385 . S
C4659 H4634 0.951 . S
C4659 C4657 1.388 . S
C4659 C4660 1.366 . S
C4660 C4659 1.366 . S
C4660 C4661 1.414 . S
C4660 C4663 1.499 . S
C4661 H4635 0.950 . S
C4661 C4660 1.414 . S
C4661 C4662 1.374 . S
C4662 H4636 0.950 . S
C4662 C4658 1.385 . S
C4662 C4661 1.374 . S
C4663 C4660 1.499 . S
C4663 C4664 1.373 . S
C4663 C4665 1.389 . S
C4664 H4637 0.950 . S
C4664 C4650 1.377 . S
C4664 C4663 1.373 . S
C4665 C4649 1.377 . S
C4665 C4663 1.389 . S
C4665 C4666 1.524 . S
C4666 C4665 1.524 . S
C4666 C4667 1.397 . S
C4666 C4671 1.363 . S
C4667 H4638 0.950 . S
C4667 C4666 1.397 . S
C4667 C4668 1.334 . S
C4668 H4639 0.950 . S
C4668 C4667 1.334 . S
C4668 C4669 1.287 . S
C4669 C4668 1.287 . S
C4669 C4670 1.524 . S
C4669 H4672 0.999 . S
C4670 H4640 0.950 . S
C4670 C4669 1.524 . S
C4670 C4671 1.415 . S
C4671 H4641 0.950 . S
C4671 C4666 1.363 . S
C4671 C4670 1.415 . S
H4672 C4669 0.999 . S
H4673 C4654 0.913 . S
H4674 C4692 0.951 . S
H4675 C4694 0.951 . S
H4676 C4696 0.950 . S
H4677 C4697 0.950 . S
H4678 C4699 0.950 . S
H4679 C4702 0.950 . S
H4680 C4703 0.950 . S
H4681 C4705 0.950 . S
H4682 C4706 0.950 . S
H4683 C4707 0.951 . S
H4684 C4709 0.951 . S
H4685 C4711 0.950 . S
H4686 C4712 0.950 . S
H4687 C4714 0.950 . S
H4688 C4717 0.950 . S
H4689 C4718 0.950 . S
H4690 C4720 0.950 . S
H4691 C4721 0.950 . S
C4692 H4674 0.951 . S
C4692 C4693 1.366 . S
C4692 C4694 1.388 . S
C4693 C4692 1.366 . S
C4693 C4697 1.385 . S
C4694 H4675 0.951 . S
C4694 C4692 1.388 . S
C4694 C4695 1.366 . S
C4695 C4694 1.366 . S
C4695 C4696 1.414 . S
C4695 C4698 1.499 . S
C4696 H4676 0.950 . S
C4696 C4695 1.414 . S
C4696 C4697 1.374 . S
C4697 H4677 0.950 . S
C4697 C4693 1.385 . S
C4697 C4696 1.374 . S
C4698 C4695 1.499 . S
C4698 C4699 1.373 . S
C4698 C4700 1.389 . S
C4699 H4678 0.950 . S
C4699 C4698 1.373 . S
C4699 C4715 1.377 . S
C4700 C4698 1.389 . S
C4700 C4701 1.524 . S
C4700 C4714 1.377 . S
C4701 C4700 1.524 . S
C4701 C4702 1.397 . S
C4701 C4706 1.363 . S
C4702 H4679 0.950 . S
C4702 C4701 1.397 . S
C4702 C4703 1.334 . S
C4703 H4680 0.950 . S
C4703 C4702 1.334 . S
C4703 C4704 1.287 . S
C4704 C4703 1.287 . S
C4704 C4705 1.524 . S
C4704 H4723 0.913 . S
C4705 H4681 0.950 . S
C4705 C4704 1.524 . S
C4705 C4706 1.415 . S
C4706 H4682 0.950 . S
C4706 C4701 1.363 . S
C4706 C4705 1.415 . S
C4707 H4683 0.951 . S
C4707 C4708 1.366 . S
C4707 C4709 1.388 . S
C4708 C4707 1.366 . S
C4708 C4712 1.385 . S
C4709 H4684 0.951 . S
C4709 C4707 1.388 . S
C4709 C4710 1.366 . S
C4710 C4709 1.366 . S
C4710 C4711 1.414 . S
C4710 C4713 1.499 . S
C4711 H4685 0.950 . S
C4711 C4710 1.414 . S
C4711 C4712 1.374 . S
C4712 H4686 0.950 . S
C4712 C4708 1.385 . S
C4712 C4711 1.374 . S
C4713 C4710 1.499 . S
C4713 C4714 1.373 . S
C4713 C4715 1.389 . S
C4714 H4687 0.950 . S
C4714 C4700 1.377 . S
C4714 C4713 1.373 . S
C4715 C4699 1.377 . S
C4715 C4713 1.389 . S
C4715 C4716 1.524 . S
C4716 C4715 1.524 . S
C4716 C4717 1.397 . S
C4716 C4721 1.363 . S
C4717 H4688 0.950 . S
C4717 C4716 1.397 . S
C4717 C4718 1.334 . S
C4718 H4689 0.950 . S
C4718 C4717 1.334 . S
C4718 C4719 1.287 . S
C4719 C4718 1.287 . S
C4719 C4720 1.524 . S
C4719 H4722 0.999 . S
C4720 H4690 0.950 . S
C4720 C4719 1.524 . S
C4720 C4721 1.415 . S
C4721 H4691 0.950 . S
C4721 C4716 1.363 . S
C4721 C4720 1.415 . S
H4722 C4719 0.999 . S
H4723 C4704 0.913 . S
H4724 C4742 0.951 . S
H4725 C4744 0.951 . S
H4726 C4746 0.950 . S
H4727 C4747 0.950 . S
H4728 C4749 0.950 . S
H4729 C4752 0.950 . S
H4730 C4753 0.950 . S
H4731 C4755 0.950 . S
H4732 C4756 0.950 . S
H4733 C4757 0.951 . S
H4734 C4759 0.951 . S
H4735 C4761 0.950 . S
H4736 C4762 0.950 . S
H4737 C4764 0.950 . S
H4738 C4767 0.950 . S
H4739 C4768 0.950 . S
H4740 C4770 0.950 . S
H4741 C4771 0.950 . S
C4742 H4724 0.951 . S
C4742 C4743 1.366 . S
C4742 C4744 1.388 . S
C4743 C4742 1.366 . S
C4743 C4747 1.385 . S
C4744 H4725 0.951 . S
C4744 C4742 1.388 . S
C4744 C4745 1.366 . S
C4745 C4744 1.366 . S
C4745 C4746 1.414 . S
C4745 C4748 1.499 . S
C4746 H4726 0.950 . S
C4746 C4745 1.414 . S
C4746 C4747 1.374 . S
C4747 H4727 0.950 . S
C4747 C4743 1.385 . S
C4747 C4746 1.374 . S
C4748 C4745 1.499 . S
C4748 C4749 1.373 . S
C4748 C4750 1.389 . S
C4749 H4728 0.950 . S
C4749 C4748 1.373 . S
C4749 C4765 1.377 . S
C4750 C4748 1.389 . S
C4750 C4751 1.524 . S
C4750 C4764 1.377 . S
C4751 C4750 1.524 . S
C4751 C4752 1.397 . S
C4751 C4756 1.363 . S
C4752 H4729 0.950 . S
C4752 C4751 1.397 . S
C4752 C4753 1.334 . S
C4753 H4730 0.950 . S
C4753 C4752 1.334 . S
C4753 C4754 1.287 . S
C4754 C4753 1.287 . S
C4754 C4755 1.524 . S
C4754 H4773 0.913 . S
C4755 H4731 0.950 . S
C4755 C4754 1.524 . S
C4755 C4756 1.415 . S
C4756 H4732 0.950 . S
C4756 C4751 1.363 . S
C4756 C4755 1.415 . S
C4757 H4733 0.951 . S
C4757 C4758 1.366 . S
C4757 C4759 1.388 . S
C4758 C4757 1.366 . S
C4758 C4762 1.385 . S
C4759 H4734 0.951 . S
C4759 C4757 1.388 . S
C4759 C4760 1.366 . S
C4760 C4759 1.366 . S
C4760 C4761 1.414 . S
C4760 C4763 1.499 . S
C4761 H4735 0.950 . S
C4761 C4760 1.414 . S
C4761 C4762 1.374 . S
C4762 H4736 0.950 . S
C4762 C4758 1.385 . S
C4762 C4761 1.374 . S
C4763 C4760 1.499 . S
C4763 C4764 1.373 . S
C4763 C4765 1.389 . S
C4764 H4737 0.950 . S
C4764 C4750 1.377 . S
C4764 C4763 1.373 . S
C4765 C4749 1.377 . S
C4765 C4763 1.389 . S
C4765 C4766 1.524 . S
C4766 C4765 1.524 . S
C4766 C4767 1.397 . S
C4766 C4771 1.363 . S
C4767 H4738 0.950 . S
C4767 C4766 1.397 . S
C4767 C4768 1.334 . S
C4768 H4739 0.950 . S
C4768 C4767 1.334 . S
C4768 C4769 1.287 . S
C4769 C4768 1.287 . S
C4769 C4770 1.524 . S
C4769 H4772 0.999 . S
C4770 H4740 0.950 . S
C4770 C4769 1.524 . S
C4770 C4771 1.415 . S
C4771 H4741 0.950 . S
C4771 C4766 1.363 . S
C4771 C4770 1.415 . S
H4772 C4769 0.999 . S
H4773 C4754 0.913 . S
H4774 C4792 0.951 . S
H4775 C4794 0.951 . S
H4776 C4796 0.950 . S
H4777 C4797 0.950 . S
H4778 C4799 0.950 . S
H4779 C4802 0.950 . S
H4780 C4803 0.950 . S
H4781 C4805 0.950 . S
H4782 C4806 0.950 . S
H4783 C4807 0.951 . S
H4784 C4809 0.951 . S
H4785 C4811 0.950 . S
H4786 C4812 0.950 . S
H4787 C4814 0.950 . S
H4788 C4817 0.950 . S
H4789 C4818 0.950 . S
H4790 C4820 0.950 . S
H4791 C4821 0.950 . S
C4792 H4774 0.951 . S
C4792 C4793 1.366 . S
C4792 C4794 1.388 . S
C4793 C4792 1.366 . S
C4793 C4797 1.385 . S
C4794 H4775 0.951 . S
C4794 C4792 1.388 . S
C4794 C4795 1.366 . S
C4795 C4794 1.366 . S
C4795 C4796 1.414 . S
C4795 C4798 1.499 . S
C4796 H4776 0.950 . S
C4796 C4795 1.414 . S
C4796 C4797 1.374 . S
C4797 H4777 0.950 . S
C4797 C4793 1.385 . S
C4797 C4796 1.374 . S
C4798 C4795 1.499 . S
C4798 C4799 1.373 . S
C4798 C4800 1.389 . S
C4799 H4778 0.950 . S
C4799 C4798 1.373 . S
C4799 C4815 1.377 . S
C4800 C4798 1.389 . S
C4800 C4801 1.524 . S
C4800 C4814 1.377 . S
C4801 C4800 1.524 . S
C4801 C4802 1.397 . S
C4801 C4806 1.363 . S
C4802 H4779 0.950 . S
C4802 C4801 1.397 . S
C4802 C4803 1.334 . S
C4803 H4780 0.950 . S
C4803 C4802 1.334 . S
C4803 C4804 1.287 . S
C4804 C4803 1.287 . S
C4804 C4805 1.524 . S
C4804 H4823 0.913 . S
C4805 H4781 0.950 . S
C4805 C4804 1.524 . S
C4805 C4806 1.415 . S
C4806 H4782 0.950 . S
C4806 C4801 1.363 . S
C4806 C4805 1.415 . S
C4807 H4783 0.951 . S
C4807 C4808 1.366 . S
C4807 C4809 1.388 . S
C4808 C4807 1.366 . S
C4808 C4812 1.385 . S
C4809 H4784 0.951 . S
C4809 C4807 1.388 . S
C4809 C4810 1.366 . S
C4810 C4809 1.366 . S
C4810 C4811 1.414 . S
C4810 C4813 1.499 . S
C4811 H4785 0.950 . S
C4811 C4810 1.414 . S
C4811 C4812 1.374 . S
C4812 H4786 0.950 . S
C4812 C4808 1.385 . S
C4812 C4811 1.374 . S
C4813 C4810 1.499 . S
C4813 C4814 1.373 . S
C4813 C4815 1.389 . S
C4814 H4787 0.950 . S
C4814 C4800 1.377 . S
C4814 C4813 1.373 . S
C4815 C4799 1.377 . S
C4815 C4813 1.389 . S
C4815 C4816 1.524 . S
C4816 C4815 1.524 . S
C4816 C4817 1.397 . S
C4816 C4821 1.363 . S
C4817 H4788 0.950 . S
C4817 C4816 1.397 . S
C4817 C4818 1.334 . S
C4818 H4789 0.950 . S
C4818 C4817 1.334 . S
C4818 C4819 1.287 . S
C4819 C4818 1.287 . S
C4819 C4820 1.524 . S
C4819 H4822 0.999 . S
C4820 H4790 0.950 . S
C4820 C4819 1.524 . S
C4820 C4821 1.415 . S
C4821 H4791 0.950 . S
C4821 C4816 1.363 . S
C4821 C4820 1.415 . S
H4822 C4819 0.999 . S
H4823 C4804 0.913 . S
H4824 C4842 0.951 . S
H4825 C4844 0.951 . S
H4826 C4846 0.950 . S
H4827 C4847 0.950 . S
H4828 C4849 0.950 . S
H4829 C4852 0.950 . S
H4830 C4853 0.950 . S
H4831 C4855 0.950 . S
H4832 C4856 0.950 . S
H4833 C4857 0.951 . S
H4834 C4859 0.951 . S
H4835 C4861 0.950 . S
H4836 C4862 0.950 . S
H4837 C4864 0.950 . S
H4838 C4867 0.950 . S
H4839 C4868 0.950 . S
H4840 C4870 0.950 . S
H4841 C4871 0.950 . S
C4842 H4824 0.951 . S
C4842 C4843 1.366 . S
C4842 C4844 1.388 . S
C4843 C4842 1.366 . S
C4843 C4847 1.385 . S
C4844 H4825 0.951 . S
C4844 C4842 1.388 . S
C4844 C4845 1.366 . S
C4845 C4844 1.366 . S
C4845 C4846 1.414 . S
C4845 C4848 1.499 . S
C4846 H4826 0.950 . S
C4846 C4845 1.414 . S
C4846 C4847 1.374 . S
C4847 H4827 0.950 . S
C4847 C4843 1.385 . S
C4847 C4846 1.374 . S
C4848 C4845 1.499 . S
C4848 C4849 1.373 . S
C4848 C4850 1.389 . S
C4849 H4828 0.950 . S
C4849 C4848 1.373 . S
C4849 C4865 1.377 . S
C4850 C4848 1.389 . S
C4850 C4851 1.524 . S
C4850 C4864 1.377 . S
C4851 C4850 1.524 . S
C4851 C4852 1.397 . S
C4851 C4856 1.363 . S
C4852 H4829 0.950 . S
C4852 C4851 1.397 . S
C4852 C4853 1.334 . S
C4853 H4830 0.950 . S
C4853 C4852 1.334 . S
C4853 C4854 1.287 . S
C4854 C4853 1.287 . S
C4854 C4855 1.524 . S
C4854 H4873 0.913 . S
C4855 H4831 0.950 . S
C4855 C4854 1.524 . S
C4855 C4856 1.415 . S
C4856 H4832 0.950 . S
C4856 C4851 1.363 . S
C4856 C4855 1.415 . S
C4857 H4833 0.951 . S
C4857 C4858 1.366 . S
C4857 C4859 1.388 . S
C4858 C4857 1.366 . S
C4858 C4862 1.385 . S
C4859 H4834 0.951 . S
C4859 C4857 1.388 . S
C4859 C4860 1.366 . S
C4860 C4859 1.366 . S
C4860 C4861 1.414 . S
C4860 C4863 1.499 . S
C4861 H4835 0.950 . S
C4861 C4860 1.414 . S
C4861 C4862 1.374 . S
C4862 H4836 0.950 . S
C4862 C4858 1.385 . S
C4862 C4861 1.374 . S
C4863 C4860 1.499 . S
C4863 C4864 1.373 . S
C4863 C4865 1.389 . S
C4864 H4837 0.950 . S
C4864 C4850 1.377 . S
C4864 C4863 1.373 . S
C4865 C4849 1.377 . S
C4865 C4863 1.389 . S
C4865 C4866 1.524 . S
C4866 C4865 1.524 . S
C4866 C4867 1.397 . S
C4866 C4871 1.363 . S
C4867 H4838 0.950 . S
C4867 C4866 1.397 . S
C4867 C4868 1.334 . S
C4868 H4839 0.950 . S
C4868 C4867 1.334 . S
C4868 C4869 1.287 . S
C4869 C4868 1.287 . S
C4869 C4870 1.524 . S
C4869 H4872 0.999 . S
C4870 H4840 0.950 . S
C4870 C4869 1.524 . S
C4870 C4871 1.415 . S
C4871 H4841 0.950 . S
C4871 C4866 1.363 . S
C4871 C4870 1.415 . S
H4872 C4869 0.999 . S
H4873 C4854 0.913 . S
H4874 C4892 0.951 . S
H4875 C4894 0.951 . S
H4876 C4896 0.950 . S
H4877 C4897 0.950 . S
H4878 C4899 0.950 . S
H4879 C4902 0.950 . S
H4880 C4903 0.950 . S
H4881 C4905 0.950 . S
H4882 C4906 0.950 . S
H4883 C4907 0.951 . S
H4884 C4909 0.951 . S
H4885 C4911 0.950 . S
H4886 C4912 0.950 . S
H4887 C4914 0.950 . S
H4888 C4917 0.950 . S
H4889 C4918 0.950 . S
H4890 C4920 0.950 . S
H4891 C4921 0.950 . S
C4892 H4874 0.951 . S
C4892 C4893 1.366 . S
C4892 C4894 1.388 . S
C4893 C4892 1.366 . S
C4893 C4897 1.385 . S
C4894 H4875 0.951 . S
C4894 C4892 1.388 . S
C4894 C4895 1.366 . S
C4895 C4894 1.366 . S
C4895 C4896 1.414 . S
C4895 C4898 1.499 . S
C4896 H4876 0.950 . S
C4896 C4895 1.414 . S
C4896 C4897 1.374 . S
C4897 H4877 0.950 . S
C4897 C4893 1.385 . S
C4897 C4896 1.374 . S
C4898 C4895 1.499 . S
C4898 C4899 1.373 . S
C4898 C4900 1.389 . S
C4899 H4878 0.950 . S
C4899 C4898 1.373 . S
C4899 C4915 1.377 . S
C4900 C4898 1.389 . S
C4900 C4901 1.524 . S
C4900 C4914 1.377 . S
C4901 C4900 1.524 . S
C4901 C4902 1.397 . S
C4901 C4906 1.363 . S
C4902 H4879 0.950 . S
C4902 C4901 1.397 . S
C4902 C4903 1.334 . S
C4903 H4880 0.950 . S
C4903 C4902 1.334 . S
C4903 C4904 1.287 . S
C4904 C4903 1.287 . S
C4904 C4905 1.524 . S
C4904 H4923 0.913 . S
C4905 H4881 0.950 . S
C4905 C4904 1.524 . S
C4905 C4906 1.415 . S
C4906 H4882 0.950 . S
C4906 C4901 1.363 . S
C4906 C4905 1.415 . S
C4907 H4883 0.951 . S
C4907 C4908 1.366 . S
C4907 C4909 1.388 . S
C4908 C4907 1.366 . S
C4908 C4912 1.385 . S
C4909 H4884 0.951 . S
C4909 C4907 1.388 . S
C4909 C4910 1.366 . S
C4910 C4909 1.366 . S
C4910 C4911 1.414 . S
C4910 C4913 1.499 . S
C4911 H4885 0.950 . S
C4911 C4910 1.414 . S
C4911 C4912 1.374 . S
C4912 H4886 0.950 . S
C4912 C4908 1.385 . S
C4912 C4911 1.374 . S
C4913 C4910 1.499 . S
C4913 C4914 1.373 . S
C4913 C4915 1.389 . S
C4914 H4887 0.950 . S
C4914 C4900 1.377 . S
C4914 C4913 1.373 . S
C4915 C4899 1.377 . S
C4915 C4913 1.389 . S
C4915 C4916 1.524 . S
C4916 C4915 1.524 . S
C4916 C4917 1.397 . S
C4916 C4921 1.363 . S
C4917 H4888 0.950 . S
C4917 C4916 1.397 . S
C4917 C4918 1.334 . S
C4918 H4889 0.950 . S
C4918 C4917 1.334 . S
C4918 C4919 1.287 . S
C4919 C4918 1.287 . S
C4919 C4920 1.524 . S
C4919 H4922 0.999 . S
C4920 H4890 0.950 . S
C4920 C4919 1.524 . S
C4920 C4921 1.415 . S
C4921 H4891 0.950 . S
C4921 C4916 1.363 . S
C4921 C4920 1.415 . S
H4922 C4919 0.999 . S
H4923 C4904 0.913 . S
H4924 C4942 0.951 . S
H4925 C4944 0.951 . S
H4926 C4946 0.950 . S
H4927 C4947 0.950 . S
H4928 C4949 0.950 . S
H4929 C4952 0.950 . S
H4930 C4953 0.950 . S
H4931 C4955 0.950 . S
H4932 C4956 0.950 . S
H4933 C4957 0.951 . S
H4934 C4959 0.951 . S
H4935 C4961 0.950 . S
H4936 C4962 0.950 . S
H4937 C4964 0.950 . S
H4938 C4967 0.950 . S
H4939 C4968 0.950 . S
H4940 C4970 0.950 . S
H4941 C4971 0.950 . S
C4942 H4924 0.951 . S
C4942 C4943 1.366 . S
C4942 C4944 1.388 . S
C4943 C4942 1.366 . S
C4943 C4947 1.385 . S
C4944 H4925 0.951 . S
C4944 C4942 1.388 . S
C4944 C4945 1.366 . S
C4945 C4944 1.366 . S
C4945 C4946 1.414 . S
C4945 C4948 1.499 . S
C4946 H4926 0.950 . S
C4946 C4945 1.414 . S
C4946 C4947 1.374 . S
C4947 H4927 0.950 . S
C4947 C4943 1.385 . S
C4947 C4946 1.374 . S
C4948 C4945 1.499 . S
C4948 C4949 1.373 . S
C4948 C4950 1.389 . S
C4949 H4928 0.950 . S
C4949 C4948 1.373 . S
C4949 C4965 1.377 . S
C4950 C4948 1.389 . S
C4950 C4951 1.524 . S
C4950 C4964 1.377 . S
C4951 C4950 1.524 . S
C4951 C4952 1.397 . S
C4951 C4956 1.363 . S
C4952 H4929 0.950 . S
C4952 C4951 1.397 . S
C4952 C4953 1.334 . S
C4953 H4930 0.950 . S
C4953 C4952 1.334 . S
C4953 C4954 1.287 . S
C4954 C4953 1.287 . S
C4954 C4955 1.524 . S
C4954 H4973 0.913 . S
C4955 H4931 0.950 . S
C4955 C4954 1.524 . S
C4955 C4956 1.415 . S
C4956 H4932 0.950 . S
C4956 C4951 1.363 . S
C4956 C4955 1.415 . S
C4957 H4933 0.951 . S
C4957 C4958 1.366 . S
C4957 C4959 1.388 . S
C4958 C4957 1.366 . S
C4958 C4962 1.385 . S
C4959 H4934 0.951 . S
C4959 C4957 1.388 . S
C4959 C4960 1.366 . S
C4960 C4959 1.366 . S
C4960 C4961 1.414 . S
C4960 C4963 1.499 . S
C4961 H4935 0.950 . S
C4961 C4960 1.414 . S
C4961 C4962 1.374 . S
C4962 H4936 0.950 . S
C4962 C4958 1.385 . S
C4962 C4961 1.374 . S
C4963 C4960 1.499 . S
C4963 C4964 1.373 . S
C4963 C4965 1.389 . S
C4964 H4937 0.950 . S
C4964 C4950 1.377 . S
C4964 C4963 1.373 . S
C4965 C4949 1.377 . S
C4965 C4963 1.389 . S
C4965 C4966 1.524 . S
C4966 C4965 1.524 . S
C4966 C4967 1.397 . S
C4966 C4971 1.363 . S
C4967 H4938 0.950 . S
C4967 C4966 1.397 . S
C4967 C4968 1.334 . S
C4968 H4939 0.950 . S
C4968 C4967 1.334 . S
C4968 C4969 1.287 . S
C4969 C4968 1.287 . S
C4969 C4970 1.524 . S
C4969 H4972 0.999 . S
C4970 H4940 0.950 . S
C4970 C4969 1.524 . S
C4970 C4971 1.415 . S
C4971 H4941 0.950 . S
C4971 C4966 1.363 . S
C4971 C4970 1.415 . S
H4972 C4969 0.999 . S
H4973 C4954 0.913 . S
H4974 C4992 0.951 . S
H4975 C4994 0.951 . S
H4976 C4996 0.950 . S
H4977 C4997 0.950 . S
H4978 C4999 0.950 . S
H4979 C5002 0.950 . S
H4980 C5003 0.950 . S
H4981 C5005 0.950 . S
H4982 C5006 0.950 . S
H4983 C5007 0.951 . S
H4984 C5009 0.951 . S
H4985 C5011 0.950 . S
H4986 C5012 0.950 . S
H4987 C5014 0.950 . S
H4988 C5017 0.950 . S
H4989 C5018 0.950 . S
H4990 C5020 0.950 . S
H4991 C5021 0.950 . S
C4992 H4974 0.951 . S
C4992 C4993 1.366 . S
C4992 C4994 1.388 . S
C4993 C4992 1.366 . S
C4993 C4997 1.385 . S
C4994 H4975 0.951 . S
C4994 C4992 1.388 . S
C4994 C4995 1.366 . S
C4995 C4994 1.366 . S
C4995 C4996 1.414 . S
C4995 C4998 1.499 . S
C4996 H4976 0.950 . S
C4996 C4995 1.414 . S
C4996 C4997 1.374 . S
C4997 H4977 0.950 . S
C4997 C4993 1.385 . S
C4997 C4996 1.374 . S
C4998 C4995 1.499 . S
C4998 C4999 1.373 . S
C4998 C5000 1.389 . S
C4999 H4978 0.950 . S
C4999 C4998 1.373 . S
C4999 C5015 1.377 . S
C5000 C4998 1.389 . S
C5000 C5001 1.524 . S
C5000 C5014 1.377 . S
C5001 C5000 1.524 . S
C5001 C5002 1.397 . S
C5001 C5006 1.363 . S
C5002 H4979 0.950 . S
C5002 C5001 1.397 . S
C5002 C5003 1.334 . S
C5003 H4980 0.950 . S
C5003 C5002 1.334 . S
C5003 C5004 1.287 . S
C5004 C5003 1.287 . S
C5004 C5005 1.524 . S
C5004 H5023 0.913 . S
C5005 H4981 0.950 . S
C5005 C5004 1.524 . S
C5005 C5006 1.415 . S
C5006 H4982 0.950 . S
C5006 C5001 1.363 . S
C5006 C5005 1.415 . S
C5007 H4983 0.951 . S
C5007 C5008 1.366 . S
C5007 C5009 1.388 . S
C5008 C5007 1.366 . S
C5008 C5012 1.385 . S
C5009 H4984 0.951 . S
C5009 C5007 1.388 . S
C5009 C5010 1.366 . S
C5010 C5009 1.366 . S
C5010 C5011 1.414 . S
C5010 C5013 1.499 . S
C5011 H4985 0.950 . S
C5011 C5010 1.414 . S
C5011 C5012 1.374 . S
C5012 H4986 0.950 . S
C5012 C5008 1.385 . S
C5012 C5011 1.374 . S
C5013 C5010 1.499 . S
C5013 C5014 1.373 . S
C5013 C5015 1.389 . S
C5014 H4987 0.950 . S
C5014 C5000 1.377 . S
C5014 C5013 1.373 . S
C5015 C4999 1.377 . S
C5015 C5013 1.389 . S
C5015 C5016 1.524 . S
C5016 C5015 1.524 . S
C5016 C5017 1.397 . S
C5016 C5021 1.363 . S
C5017 H4988 0.950 . S
C5017 C5016 1.397 . S
C5017 C5018 1.334 . S
C5018 H4989 0.950 . S
C5018 C5017 1.334 . S
C5018 C5019 1.287 . S
C5019 C5018 1.287 . S
C5019 C5020 1.524 . S
C5019 H5022 0.999 . S
C5020 H4990 0.950 . S
C5020 C5019 1.524 . S
C5020 C5021 1.415 . S
C5021 H4991 0.950 . S
C5021 C5016 1.363 . S
C5021 C5020 1.415 . S
H5022 C5019 0.999 . S
H5023 C5004 0.913 . S
H5024 C5042 0.951 . S
H5025 C5044 0.951 . S
H5026 C5046 0.950 . S
H5027 C5047 0.950 . S
H5028 C5049 0.950 . S
H5029 C5052 0.950 . S
H5030 C5053 0.950 . S
H5031 C5055 0.950 . S
H5032 C5056 0.950 . S
H5033 C5057 0.951 . S
H5034 C5059 0.951 . S
H5035 C5061 0.950 . S
H5036 C5062 0.950 . S
H5037 C5064 0.950 . S
H5038 C5067 0.950 . S
H5039 C5068 0.950 . S
H5040 C5070 0.950 . S
H5041 C5071 0.950 . S
C5042 H5024 0.951 . S
C5042 C5043 1.366 . S
C5042 C5044 1.388 . S
C5043 C5042 1.366 . S
C5043 C5047 1.385 . S
C5044 H5025 0.951 . S
C5044 C5042 1.388 . S
C5044 C5045 1.366 . S
C5045 C5044 1.366 . S
C5045 C5046 1.414 . S
C5045 C5048 1.499 . S
C5046 H5026 0.950 . S
C5046 C5045 1.414 . S
C5046 C5047 1.374 . S
C5047 H5027 0.950 . S
C5047 C5043 1.385 . S
C5047 C5046 1.374 . S
C5048 C5045 1.499 . S
C5048 C5049 1.373 . S
C5048 C5050 1.389 . S
C5049 H5028 0.950 . S
C5049 C5048 1.373 . S
C5049 C5065 1.377 . S
C5050 C5048 1.389 . S
C5050 C5051 1.524 . S
C5050 C5064 1.377 . S
C5051 C5050 1.524 . S
C5051 C5052 1.397 . S
C5051 C5056 1.363 . S
C5052 H5029 0.950 . S
C5052 C5051 1.397 . S
C5052 C5053 1.334 . S
C5053 H5030 0.950 . S
C5053 C5052 1.334 . S
C5053 C5054 1.287 . S
C5054 C5053 1.287 . S
C5054 C5055 1.524 . S
C5054 H5073 0.913 . S
C5055 H5031 0.950 . S
C5055 C5054 1.524 . S
C5055 C5056 1.415 . S
C5056 H5032 0.950 . S
C5056 C5051 1.363 . S
C5056 C5055 1.415 . S
C5057 H5033 0.951 . S
C5057 C5058 1.366 . S
C5057 C5059 1.388 . S
C5058 C5057 1.366 . S
C5058 C5062 1.385 . S
C5059 H5034 0.951 . S
C5059 C5057 1.388 . S
C5059 C5060 1.366 . S
C5060 C5059 1.366 . S
C5060 C5061 1.414 . S
C5060 C5063 1.499 . S
C5061 H5035 0.950 . S
C5061 C5060 1.414 . S
C5061 C5062 1.374 . S
C5062 H5036 0.950 . S
C5062 C5058 1.385 . S
C5062 C5061 1.374 . S
C5063 C5060 1.499 . S
C5063 C5064 1.373 . S
C5063 C5065 1.389 . S
C5064 H5037 0.950 . S
C5064 C5050 1.377 . S
C5064 C5063 1.373 . S
C5065 C5049 1.377 . S
C5065 C5063 1.389 . S
C5065 C5066 1.524 . S
C5066 C5065 1.524 . S
C5066 C5067 1.397 . S
C5066 C5071 1.363 . S
C5067 H5038 0.950 . S
C5067 C5066 1.397 . S
C5067 C5068 1.334 . S
C5068 H5039 0.950 . S
C5068 C5067 1.334 . S
C5068 C5069 1.287 . S
C5069 C5068 1.287 . S
C5069 C5070 1.524 . S
C5069 H5072 0.999 . S
C5070 H5040 0.950 . S
C5070 C5069 1.524 . S
C5070 C5071 1.415 . S
C5071 H5041 0.950 . S
C5071 C5066 1.363 . S
C5071 C5070 1.415 . S
H5072 C5069 0.999 . S
H5073 C5054 0.913 . S
H5074 C5092 0.951 . S
H5075 C5094 0.951 . S
H5076 C5096 0.950 . S
H5077 C5097 0.950 . S
H5078 C5099 0.950 . S
H5079 C5102 0.950 . S
H5080 C5103 0.950 . S
H5081 C5105 0.950 . S
H5082 C5106 0.950 . S
H5083 C5107 0.951 . S
H5084 C5109 0.951 . S
H5085 C5111 0.950 . S
H5086 C5112 0.950 . S
H5087 C5114 0.950 . S
H5088 C5117 0.950 . S
H5089 C5118 0.950 . S
H5090 C5120 0.950 . S
H5091 C5121 0.950 . S
C5092 H5074 0.951 . S
C5092 C5093 1.366 . S
C5092 C5094 1.388 . S
C5093 C5092 1.366 . S
C5093 C5097 1.385 . S
C5094 H5075 0.951 . S
C5094 C5092 1.388 . S
C5094 C5095 1.366 . S
C5095 C5094 1.366 . S
C5095 C5096 1.414 . S
C5095 C5098 1.499 . S
C5096 H5076 0.950 . S
C5096 C5095 1.414 . S
C5096 C5097 1.374 . S
C5097 H5077 0.950 . S
C5097 C5093 1.385 . S
C5097 C5096 1.374 . S
C5098 C5095 1.499 . S
C5098 C5099 1.373 . S
C5098 C5100 1.389 . S
C5099 H5078 0.950 . S
C5099 C5098 1.373 . S
C5099 C5115 1.377 . S
C5100 C5098 1.389 . S
C5100 C5101 1.524 . S
C5100 C5114 1.377 . S
C5101 C5100 1.524 . S
C5101 C5102 1.397 . S
C5101 C5106 1.363 . S
C5102 H5079 0.950 . S
C5102 C5101 1.397 . S
C5102 C5103 1.334 . S
C5103 H5080 0.950 . S
C5103 C5102 1.334 . S
C5103 C5104 1.287 . S
C5104 C5103 1.287 . S
C5104 C5105 1.524 . S
C5104 H5123 0.913 . S
C5105 H5081 0.950 . S
C5105 C5104 1.524 . S
C5105 C5106 1.415 . S
C5106 H5082 0.950 . S
C5106 C5101 1.363 . S
C5106 C5105 1.415 . S
C5107 H5083 0.951 . S
C5107 C5108 1.366 . S
C5107 C5109 1.388 . S
C5108 C5107 1.366 . S
C5108 C5112 1.385 . S
C5109 H5084 0.951 . S
C5109 C5107 1.388 . S
C5109 C5110 1.366 . S
C5110 C5109 1.366 . S
C5110 C5111 1.414 . S
C5110 C5113 1.499 . S
C5111 H5085 0.950 . S
C5111 C5110 1.414 . S
C5111 C5112 1.374 . S
C5112 H5086 0.950 . S
C5112 C5108 1.385 . S
C5112 C5111 1.374 . S
C5113 C5110 1.499 . S
C5113 C5114 1.373 . S
C5113 C5115 1.389 . S
C5114 H5087 0.950 . S
C5114 C5100 1.377 . S
C5114 C5113 1.373 . S
C5115 C5099 1.377 . S
C5115 C5113 1.389 . S
C5115 C5116 1.524 . S
C5116 C5115 1.524 . S
C5116 C5117 1.397 . S
C5116 C5121 1.363 . S
C5117 H5088 0.950 . S
C5117 C5116 1.397 . S
C5117 C5118 1.334 . S
C5118 H5089 0.950 . S
C5118 C5117 1.334 . S
C5118 C5119 1.287 . S
C5119 C5118 1.287 . S
C5119 C5120 1.524 . S
C5119 H5122 0.999 . S
C5120 H5090 0.950 . S
C5120 C5119 1.524 . S
C5120 C5121 1.415 . S
C5121 H5091 0.950 . S
C5121 C5116 1.363 . S
C5121 C5120 1.415 . S
H5122 C5119 0.999 . S
H5123 C5104 0.913 . S
H5124 C5142 0.951 . S
H5125 C5144 0.951 . S
H5126 C5146 0.950 . S
H5127 C5147 0.950 . S
H5128 C5149 0.950 . S
H5129 C5152 0.950 . S
H5130 C5153 0.950 . S
H5131 C5155 0.950 . S
H5132 C5156 0.950 . S
H5133 C5157 0.951 . S
H5134 C5159 0.951 . S
H5135 C5161 0.950 . S
H5136 C5162 0.950 . S
H5137 C5164 0.950 . S
H5138 C5167 0.950 . S
H5139 C5168 0.950 . S
H5140 C5170 0.950 . S
H5141 C5171 0.950 . S
C5142 H5124 0.951 . S
C5142 C5143 1.366 . S
C5142 C5144 1.388 . S
C5143 C5142 1.366 . S
C5143 C5147 1.385 . S
C5144 H5125 0.951 . S
C5144 C5142 1.388 . S
C5144 C5145 1.366 . S
C5145 C5144 1.366 . S
C5145 C5146 1.414 . S
C5145 C5148 1.499 . S
C5146 H5126 0.950 . S
C5146 C5145 1.414 . S
C5146 C5147 1.374 . S
C5147 H5127 0.950 . S
C5147 C5143 1.385 . S
C5147 C5146 1.374 . S
C5148 C5145 1.499 . S
C5148 C5149 1.373 . S
C5148 C5150 1.389 . S
C5149 H5128 0.950 . S
C5149 C5148 1.373 . S
C5149 C5165 1.377 . S
C5150 C5148 1.389 . S
C5150 C5151 1.524 . S
C5150 C5164 1.377 . S
C5151 C5150 1.524 . S
C5151 C5152 1.397 . S
C5151 C5156 1.363 . S
C5152 H5129 0.950 . S
C5152 C5151 1.397 . S
C5152 C5153 1.334 . S
C5153 H5130 0.950 . S
C5153 C5152 1.334 . S
C5153 C5154 1.287 . S
C5154 C5153 1.287 . S
C5154 C5155 1.524 . S
C5154 H5173 0.913 . S
C5155 H5131 0.950 . S
C5155 C5154 1.524 . S
C5155 C5156 1.415 . S
C5156 H5132 0.950 . S
C5156 C5151 1.363 . S
C5156 C5155 1.415 . S
C5157 H5133 0.951 . S
C5157 C5158 1.366 . S
C5157 C5159 1.388 . S
C5158 C5157 1.366 . S
C5158 C5162 1.385 . S
C5159 H5134 0.951 . S
C5159 C5157 1.388 . S
C5159 C5160 1.366 . S
C5160 C5159 1.366 . S
C5160 C5161 1.414 . S
C5160 C5163 1.499 . S
C5161 H5135 0.950 . S
C5161 C5160 1.414 . S
C5161 C5162 1.374 . S
C5162 H5136 0.950 . S
C5162 C5158 1.385 . S
C5162 C5161 1.374 . S
C5163 C5160 1.499 . S
C5163 C5164 1.373 . S
C5163 C5165 1.389 . S
C5164 H5137 0.950 . S
C5164 C5150 1.377 . S
C5164 C5163 1.373 . S
C5165 C5149 1.377 . S
C5165 C5163 1.389 . S
C5165 C5166 1.524 . S
C5166 C5165 1.524 . S
C5166 C5167 1.397 . S
C5166 C5171 1.363 . S
C5167 H5138 0.950 . S
C5167 C5166 1.397 . S
C5167 C5168 1.334 . S
C5168 H5139 0.950 . S
C5168 C5167 1.334 . S
C5168 C5169 1.287 . S
C5169 C5168 1.287 . S
C5169 C5170 1.524 . S
C5169 H5172 0.999 . S
C5170 H5140 0.950 . S
C5170 C5169 1.524 . S
C5170 C5171 1.415 . S
C5171 H5141 0.950 . S
C5171 C5166 1.363 . S
C5171 C5170 1.415 . S
H5172 C5169 0.999 . S
H5173 C5154 0.913 . S
H5174 C5192 0.951 . S
H5175 C5194 0.951 . S
H5176 C5196 0.950 . S
H5177 C5197 0.950 . S
H5178 C5199 0.950 . S
H5179 C5202 0.950 . S
H5180 C5203 0.950 . S
H5181 C5205 0.950 . S
H5182 C5206 0.950 . S
H5183 C5207 0.951 . S
H5184 C5209 0.951 . S
H5185 C5211 0.950 . S
H5186 C5212 0.950 . S
H5187 C5214 0.950 . S
H5188 C5217 0.950 . S
H5189 C5218 0.950 . S
H5190 C5220 0.950 . S
H5191 C5221 0.950 . S
C5192 H5174 0.951 . S
C5192 C5193 1.366 . S
C5192 C5194 1.388 . S
C5193 C5192 1.366 . S
C5193 C5197 1.385 . S
C5194 H5175 0.951 . S
C5194 C5192 1.388 . S
C5194 C5195 1.366 . S
C5195 C5194 1.366 . S
C5195 C5196 1.414 . S
C5195 C5198 1.499 . S
C5196 H5176 0.950 . S
C5196 C5195 1.414 . S
C5196 C5197 1.374 . S
C5197 H5177 0.950 . S
C5197 C5193 1.385 . S
C5197 C5196 1.374 . S
C5198 C5195 1.499 . S
C5198 C5199 1.373 . S
C5198 C5200 1.389 . S
C5199 H5178 0.950 . S
C5199 C5198 1.373 . S
C5199 C5215 1.377 . S
C5200 C5198 1.389 . S
C5200 C5201 1.524 . S
C5200 C5214 1.377 . S
C5201 C5200 1.524 . S
C5201 C5202 1.397 . S
C5201 C5206 1.363 . S
C5202 H5179 0.950 . S
C5202 C5201 1.397 . S
C5202 C5203 1.334 . S
C5203 H5180 0.950 . S
C5203 C5202 1.334 . S
C5203 C5204 1.287 . S
C5204 C5203 1.287 . S
C5204 C5205 1.524 . S
C5204 H5223 0.913 . S
C5205 H5181 0.950 . S
C5205 C5204 1.524 . S
C5205 C5206 1.415 . S
C5206 H5182 0.950 . S
C5206 C5201 1.363 . S
C5206 C5205 1.415 . S
C5207 H5183 0.951 . S
C5207 C5208 1.366 . S
C5207 C5209 1.388 . S
C5208 C5207 1.366 . S
C5208 C5212 1.385 . S
C5209 H5184 0.951 . S
C5209 C5207 1.388 . S
C5209 C5210 1.366 . S
C5210 C5209 1.366 . S
C5210 C5211 1.414 . S
C5210 C5213 1.499 . S
C5211 H5185 0.950 . S
C5211 C5210 1.414 . S
C5211 C5212 1.374 . S
C5212 H5186 0.950 . S
C5212 C5208 1.385 . S
C5212 C5211 1.374 . S
C5213 C5210 1.499 . S
C5213 C5214 1.373 . S
C5213 C5215 1.389 . S
C5214 H5187 0.950 . S
C5214 C5200 1.377 . S
C5214 C5213 1.373 . S
C5215 C5199 1.377 . S
C5215 C5213 1.389 . S
C5215 C5216 1.524 . S
C5216 C5215 1.524 . S
C5216 C5217 1.397 . S
C5216 C5221 1.363 . S
C5217 H5188 0.950 . S
C5217 C5216 1.397 . S
C5217 C5218 1.334 . S
C5218 H5189 0.950 . S
C5218 C5217 1.334 . S
C5218 C5219 1.287 . S
C5219 C5218 1.287 . S
C5219 C5220 1.524 . S
C5219 H5222 0.999 . S
C5220 H5190 0.950 . S
C5220 C5219 1.524 . S
C5220 C5221 1.415 . S
C5221 H5191 0.950 . S
C5221 C5216 1.363 . S
C5221 C5220 1.415 . S
H5222 C5219 0.999 . S
H5223 C5204 0.913 . S
H5224 C5242 0.951 . S
H5225 C5244 0.951 . S
H5226 C5246 0.950 . S
H5227 C5247 0.950 . S
H5228 C5249 0.950 . S
H5229 C5252 0.950 . S
H5230 C5253 0.950 . S
H5231 C5255 0.950 . S
H5232 C5256 0.950 . S
H5233 C5257 0.951 . S
H5234 C5259 0.951 . S
H5235 C5261 0.950 . S
H5236 C5262 0.950 . S
H5237 C5264 0.950 . S
H5238 C5267 0.950 . S
H5239 C5268 0.950 . S
H5240 C5270 0.950 . S
H5241 C5271 0.950 . S
C5242 H5224 0.951 . S
C5242 C5243 1.366 . S
C5242 C5244 1.388 . S
C5243 C5242 1.366 . S
C5243 C5247 1.385 . S
C5244 H5225 0.951 . S
C5244 C5242 1.388 . S
C5244 C5245 1.366 . S
C5245 C5244 1.366 . S
C5245 C5246 1.414 . S
C5245 C5248 1.499 . S
C5246 H5226 0.950 . S
C5246 C5245 1.414 . S
C5246 C5247 1.374 . S
C5247 H5227 0.950 . S
C5247 C5243 1.385 . S
C5247 C5246 1.374 . S
C5248 C5245 1.499 . S
C5248 C5249 1.373 . S
C5248 C5250 1.389 . S
C5249 H5228 0.950 . S
C5249 C5248 1.373 . S
C5249 C5265 1.377 . S
C5250 C5248 1.389 . S
C5250 C5251 1.524 . S
C5250 C5264 1.377 . S
C5251 C5250 1.524 . S
C5251 C5252 1.397 . S
C5251 C5256 1.363 . S
C5252 H5229 0.950 . S
C5252 C5251 1.397 . S
C5252 C5253 1.334 . S
C5253 H5230 0.950 . S
C5253 C5252 1.334 . S
C5253 C5254 1.287 . S
C5254 C5253 1.287 . S
C5254 C5255 1.524 . S
C5254 H5273 0.913 . S
C5255 H5231 0.950 . S
C5255 C5254 1.524 . S
C5255 C5256 1.415 . S
C5256 H5232 0.950 . S
C5256 C5251 1.363 . S
C5256 C5255 1.415 . S
C5257 H5233 0.951 . S
C5257 C5258 1.366 . S
C5257 C5259 1.388 . S
C5258 C5257 1.366 . S
C5258 C5262 1.385 . S
C5259 H5234 0.951 . S
C5259 C5257 1.388 . S
C5259 C5260 1.366 . S
C5260 C5259 1.366 . S
C5260 C5261 1.414 . S
C5260 C5263 1.499 . S
C5261 H5235 0.950 . S
C5261 C5260 1.414 . S
C5261 C5262 1.374 . S
C5262 H5236 0.950 . S
C5262 C5258 1.385 . S
C5262 C5261 1.374 . S
C5263 C5260 1.499 . S
C5263 C5264 1.373 . S
C5263 C5265 1.389 . S
C5264 H5237 0.950 . S
C5264 C5250 1.377 . S
C5264 C5263 1.373 . S
C5265 C5249 1.377 . S
C5265 C5263 1.389 . S
C5265 C5266 1.524 . S
C5266 C5265 1.524 . S
C5266 C5267 1.397 . S
C5266 C5271 1.363 . S
C5267 H5238 0.950 . S
C5267 C5266 1.397 . S
C5267 C5268 1.334 . S
C5268 H5239 0.950 . S
C5268 C5267 1.334 . S
C5268 C5269 1.287 . S
C5269 C5268 1.287 . S
C5269 C5270 1.524 . S
C5269 H5272 0.999 . S
C5270 H5240 0.950 . S
C5270 C5269 1.524 . S
C5270 C5271 1.415 . S
C5271 H5241 0.950 . S
C5271 C5266 1.363 . S
C5271 C5270 1.415 . S
H5272 C5269 0.999 . S
H5273 C5254 0.913 . S
H5274 C5292 0.951 . S
H5275 C5294 0.951 . S
H5276 C5296 0.950 . S
H5277 C5297 0.950 . S
H5278 C5299 0.950 . S
H5279 C5302 0.950 . S
H5280 C5303 0.950 . S
H5281 C5305 0.950 . S
H5282 C5306 0.950 . S
H5283 C5307 0.951 . S
H5284 C5309 0.951 . S
H5285 C5311 0.950 . S
H5286 C5312 0.950 . S
H5287 C5314 0.950 . S
H5288 C5317 0.950 . S
H5289 C5318 0.950 . S
H5290 C5320 0.950 . S
H5291 C5321 0.950 . S
C5292 H5274 0.951 . S
C5292 C5293 1.366 . S
C5292 C5294 1.388 . S
C5293 C5292 1.366 . S
C5293 C5297 1.385 . S
C5294 H5275 0.951 . S
C5294 C5292 1.388 . S
C5294 C5295 1.366 . S
C5295 C5294 1.366 . S
C5295 C5296 1.414 . S
C5295 C5298 1.499 . S
C5296 H5276 0.950 . S
C5296 C5295 1.414 . S
C5296 C5297 1.374 . S
C5297 H5277 0.950 . S
C5297 C5293 1.385 . S
C5297 C5296 1.374 . S
C5298 C5295 1.499 . S
C5298 C5299 1.373 . S
C5298 C5300 1.389 . S
C5299 H5278 0.950 . S
C5299 C5298 1.373 . S
C5299 C5315 1.377 . S
C5300 C5298 1.389 . S
C5300 C5301 1.524 . S
C5300 C5314 1.377 . S
C5301 C5300 1.524 . S
C5301 C5302 1.397 . S
C5301 C5306 1.363 . S
C5302 H5279 0.950 . S
C5302 C5301 1.397 . S
C5302 C5303 1.334 . S
C5303 H5280 0.950 . S
C5303 C5302 1.334 . S
C5303 C5304 1.287 . S
C5304 C5303 1.287 . S
C5304 C5305 1.524 . S
C5304 H5323 0.913 . S
C5305 H5281 0.950 . S
C5305 C5304 1.524 . S
C5305 C5306 1.415 . S
C5306 H5282 0.950 . S
C5306 C5301 1.363 . S
C5306 C5305 1.415 . S
C5307 H5283 0.951 . S
C5307 C5308 1.366 . S
C5307 C5309 1.388 . S
C5308 C5307 1.366 . S
C5308 C5312 1.385 . S
C5309 H5284 0.951 . S
C5309 C5307 1.388 . S
C5309 C5310 1.366 . S
C5310 C5309 1.366 . S
C5310 C5311 1.414 . S
C5310 C5313 1.499 . S
C5311 H5285 0.950 . S
C5311 C5310 1.414 . S
C5311 C5312 1.374 . S
C5312 H5286 0.950 . S
C5312 C5308 1.385 . S
C5312 C5311 1.374 . S
C5313 C5310 1.499 . S
C5313 C5314 1.373 . S
C5313 C5315 1.389 . S
C5314 H5287 0.950 . S
C5314 C5300 1.377 . S
C5314 C5313 1.373 . S
C5315 C5299 1.377 . S
C5315 C5313 1.389 . S
C5315 C5316 1.524 . S
C5316 C5315 1.524 . S
C5316 C5317 1.397 . S
C5316 C5321 1.363 . S
C5317 H5288 0.950 . S
C5317 C5316 1.397 . S
C5317 C5318 1.334 . S
C5318 H5289 0.950 . S
C5318 C5317 1.334 . S
C5318 C5319 1.287 . S
C5319 C5318 1.287 . S
C5319 C5320 1.524 . S
C5319 H5322 0.999 . S
C5320 H5290 0.950 . S
C5320 C5319 1.524 . S
C5320 C5321 1.415 . S
C5321 H5291 0.950 . S
C5321 C5316 1.363 . S
C5321 C5320 1.415 . S
H5322 C5319 0.999 . S
H5323 C5304 0.913 . S
H5324 C5342 0.951 . S
H5325 C5344 0.951 . S
H5326 C5346 0.950 . S
H5327 C5347 0.950 . S
H5328 C5349 0.950 . S
H5329 C5352 0.950 . S
H5330 C5353 0.950 . S
H5331 C5355 0.950 . S
H5332 C5356 0.950 . S
H5333 C5357 0.951 . S
H5334 C5359 0.951 . S
H5335 C5361 0.950 . S
H5336 C5362 0.950 . S
H5337 C5364 0.950 . S
H5338 C5367 0.950 . S
H5339 C5368 0.950 . S
H5340 C5370 0.950 . S
H5341 C5371 0.950 . S
C5342 H5324 0.951 . S
C5342 C5343 1.366 . S
C5342 C5344 1.388 . S
C5343 C5342 1.366 . S
C5343 C5347 1.385 . S
C5344 H5325 0.951 . S
C5344 C5342 1.388 . S
C5344 C5345 1.366 . S
C5345 C5344 1.366 . S
C5345 C5346 1.414 . S
C5345 C5348 1.499 . S
C5346 H5326 0.950 . S
C5346 C5345 1.414 . S
C5346 C5347 1.374 . S
C5347 H5327 0.950 . S
C5347 C5343 1.385 . S
C5347 C5346 1.374 . S
C5348 C5345 1.499 . S
C5348 C5349 1.373 . S
C5348 C5350 1.389 . S
C5349 H5328 0.950 . S
C5349 C5348 1.373 . S
C5349 C5365 1.377 . S
C5350 C5348 1.389 . S
C5350 C5351 1.524 . S
C5350 C5364 1.377 . S
C5351 C5350 1.524 . S
C5351 C5352 1.397 . S
C5351 C5356 1.363 . S
C5352 H5329 0.950 . S
C5352 C5351 1.397 . S
C5352 C5353 1.334 . S
C5353 H5330 0.950 . S
C5353 C5352 1.334 . S
C5353 C5354 1.287 . S
C5354 C5353 1.287 . S
C5354 C5355 1.524 . S
C5354 H5373 0.913 . S
C5355 H5331 0.950 . S
C5355 C5354 1.524 . S
C5355 C5356 1.415 . S
C5356 H5332 0.950 . S
C5356 C5351 1.363 . S
C5356 C5355 1.415 . S
C5357 H5333 0.951 . S
C5357 C5358 1.366 . S
C5357 C5359 1.388 . S
C5358 C5357 1.366 . S
C5358 C5362 1.385 . S
C5359 H5334 0.951 . S
C5359 C5357 1.388 . S
C5359 C5360 1.366 . S
C5360 C5359 1.366 . S
C5360 C5361 1.414 . S
C5360 C5363 1.499 . S
C5361 H5335 0.950 . S
C5361 C5360 1.414 . S
C5361 C5362 1.374 . S
C5362 H5336 0.950 . S
C5362 C5358 1.385 . S
C5362 C5361 1.374 . S
C5363 C5360 1.499 . S
C5363 C5364 1.373 . S
C5363 C5365 1.389 . S
C5364 H5337 0.950 . S
C5364 C5350 1.377 . S
C5364 C5363 1.373 . S
C5365 C5349 1.377 . S
C5365 C5363 1.389 . S
C5365 C5366 1.524 . S
C5366 C5365 1.524 . S
C5366 C5367 1.397 . S
C5366 C5371 1.363 . S
C5367 H5338 0.950 . S
C5367 C5366 1.397 . S
C5367 C5368 1.334 . S
C5368 H5339 0.950 . S
C5368 C5367 1.334 . S
C5368 C5369 1.287 . S
C5369 C5368 1.287 . S
C5369 C5370 1.524 . S
C5369 H5372 0.999 . S
C5370 H5340 0.950 . S
C5370 C5369 1.524 . S
C5370 C5371 1.415 . S
C5371 H5341 0.950 . S
C5371 C5366 1.363 . S
C5371 C5370 1.415 . S
H5372 C5369 0.999 . S
H5373 C5354 0.913 . S
H5374 C5392 0.951 . S
H5375 C5394 0.951 . S
H5376 C5396 0.950 . S
H5377 C5397 0.950 . S
H5378 C5399 0.950 . S
H5379 C5402 0.950 . S
H5380 C5403 0.950 . S
H5381 C5405 0.950 . S
H5382 C5406 0.950 . S
H5383 C5407 0.951 . S
H5384 C5409 0.951 . S
H5385 C5411 0.950 . S
H5386 C5412 0.950 . S
H5387 C5414 0.950 . S
H5388 C5417 0.950 . S
H5389 C5418 0.950 . S
H5390 C5420 0.950 . S
H5391 C5421 0.950 . S
C5392 H5374 0.951 . S
C5392 C5393 1.366 . S
C5392 C5394 1.388 . S
C5393 C5392 1.366 . S
C5393 C5397 1.385 . S
C5394 H5375 0.951 . S
C5394 C5392 1.388 . S
C5394 C5395 1.366 . S
C5395 C5394 1.366 . S
C5395 C5396 1.414 . S
C5395 C5398 1.499 . S
C5396 H5376 0.950 . S
C5396 C5395 1.414 . S
C5396 C5397 1.374 . S
C5397 H5377 0.950 . S
C5397 C5393 1.385 . S
C5397 C5396 1.374 . S
C5398 C5395 1.499 . S
C5398 C5399 1.373 . S
C5398 C5400 1.389 . S
C5399 H5378 0.950 . S
C5399 C5398 1.373 . S
C5399 C5415 1.377 . S
C5400 C5398 1.389 . S
C5400 C5401 1.524 . S
C5400 C5414 1.377 . S
C5401 C5400 1.524 . S
C5401 C5402 1.397 . S
C5401 C5406 1.363 . S
C5402 H5379 0.950 . S
C5402 C5401 1.397 . S
C5402 C5403 1.334 . S
C5403 H5380 0.950 . S
C5403 C5402 1.334 . S
C5403 C5404 1.287 . S
C5404 C5403 1.287 . S
C5404 C5405 1.524 . S
C5404 H5423 0.913 . S
C5405 H5381 0.950 . S
C5405 C5404 1.524 . S
C5405 C5406 1.415 . S
C5406 H5382 0.950 . S
C5406 C5401 1.363 . S
C5406 C5405 1.415 . S
C5407 H5383 0.951 . S
C5407 C5408 1.366 . S
C5407 C5409 1.388 . S
C5408 C5407 1.366 . S
C5408 C5412 1.385 . S
C5409 H5384 0.951 . S
C5409 C5407 1.388 . S
C5409 C5410 1.366 . S
C5410 C5409 1.366 . S
C5410 C5411 1.414 . S
C5410 C5413 1.499 . S
C5411 H5385 0.950 . S
C5411 C5410 1.414 . S
C5411 C5412 1.374 . S
C5412 H5386 0.950 . S
C5412 C5408 1.385 . S
C5412 C5411 1.374 . S
C5413 C5410 1.499 . S
C5413 C5414 1.373 . S
C5413 C5415 1.389 . S
C5414 H5387 0.950 . S
C5414 C5400 1.377 . S
C5414 C5413 1.373 . S
C5415 C5399 1.377 . S
C5415 C5413 1.389 . S
C5415 C5416 1.524 . S
C5416 C5415 1.524 . S
C5416 C5417 1.397 . S
C5416 C5421 1.363 . S
C5417 H5388 0.950 . S
C5417 C5416 1.397 . S
C5417 C5418 1.334 . S
C5418 H5389 0.950 . S
C5418 C5417 1.334 . S
C5418 C5419 1.287 . S
C5419 C5418 1.287 . S
C5419 C5420 1.524 . S
C5419 H5422 0.999 . S
C5420 H5390 0.950 . S
C5420 C5419 1.524 . S
C5420 C5421 1.415 . S
C5421 H5391 0.950 . S
C5421 C5416 1.363 . S
C5421 C5420 1.415 . S
H5422 C5419 0.999 . S
H5423 C5404 0.913 . S
C643 C218 1.370 . S
C658 C3 1.381 . S
C693 C612 1.467 . S
C708 C16 1.382 . S
C743 C29 1.443 . S
C758 C595 1.429 . S
C793 C42 1.246 . S
C808 C599 1.314 . S
C843 C231 1.510 . S
C858 C55 1.514 . S
C893 C68 1.466 . S
C908 C235 1.540 . S
C943 C81 1.571 . S
C958 C257 1.564 . S
C993 C573 1.394 . S
C1008 C94 1.337 . S
C1043 C107 1.382 . S
C1058 C10 1.370 . S
C1093 C23 1.510 . S
C1108 C120 1.445 . S
C1143 C36 1.299 . S
C1158 C133 1.307 . S
C1193 C49 1.542 . S
C1208 C146 1.470 . S
C1243 C62 1.430 . S
C1258 C159 1.443 . S
C1293 C172 1.305 . S
C1308 C75 1.365 . S
C1343 C88 1.360 . S
C1358 C185 1.371 . S
C1393 C198 1.335 . S
C1408 C101 1.404 . S
C1443 C211 1.382 . S
C1458 C114 1.371 . S
C1493 C166 1.298 . S
C1508 C224 1.307 . S
C1543 C239 1.332 . S
C1558 C179 1.329 . S
C1593 C250 1.428 . S
C1608 C192 1.426 . S
C1643 C517 1.448 . S
C1658 C265 1.446 . S
C1693 C276 1.372 . S
C1708 C452 1.361 . S
C1743 C465 1.476 . S
C1758 C291 1.471 . S
C1793 C439 1.542 . S
C1808 C304 1.552 . S
C1843 C530 1.484 . S
C1858 C315 1.489 . S
C1893 C328 1.304 . S
C1908 C300 1.360 . S
C1943 C341 1.428 . S
C1958 C283 1.426 . S
C1993 C354 1.441 . S
C2008 C287 1.513 . S
C2043 C367 1.371 . S
C2058 C543 1.360 . S
C2093 C547 1.284 . S
C2108 C380 1.210 . S
C2143 C393 1.307 . S
C2158 C569 1.299 . S
C2193 C261 1.443 . S
C2208 C406 1.359 . S
C2243 C322 1.484 . S
C2258 C419 1.489 . S
C2293 C432 1.247 . S
C2308 C335 1.330 . S
C2343 C445 1.571 . S
C2358 C348 1.564 . S
C2393 C458 1.213 . S
C2408 C361 1.290 . S
C2443 C471 1.428 . S
C2458 C374 1.426 . S
C2493 C484 1.382 . S
C2508 C387 1.476 . S
C2543 C400 1.510 . S
C2558 C497 1.514 . S
C2593 C413 1.448 . S
C2608 C510 1.359 . S
C2643 C426 1.484 . S
C2658 C523 1.489 . S
C2693 C478 1.564 . S
C2708 C536 1.571 . S
C2743 C491 1.511 . S
C2758 C551 1.525 . S
C2793 C562 1.443 . S
C2808 C504 1.429 . S
C2843 C577 1.416 . S
C2858 C205 1.404 . S
C2893 C588 1.514 . S
C2908 C140 1.510 . S
C2943 C153 1.367 . S
C2958 C603 1.383 . S
C2993 C616 1.296 . S
C3008 C127 1.291 . S
C3043 C5 1.362 . S
C3058 C352 1.293 . S
C3093 C313 1.941 . S
C3108 C18 1.927 . S
C3143 C31 1.227 . S
C3158 C326 1.164 . S
C3193 C44 1.881 . S
C3208 C339 1.892 . S
C3243 C57 1.519 . S
C3258 C66 1.443 . S
C3293 C79 2.237 . S
C3308 C70 2.229 . S
C3343 C83 1.388 . S
C3358 C92 1.315 . S
C3393 C96 2.186 . S
C3408 C53 2.203 . S
C3443 C109 1.362 . S
C3458 C556 1.349 . S
C3493 C122 2.075 . S
C3508 C560 2.090 . S
C3543 C135 1.879 . S
C3558 C270 1.863 . S
C3593 C148 2.223 . S
C3608 C534 2.243 . S
C3643 C161 1.227 . S
C3658 C608 1.215 . S
C3693 C209 2.044 . S
C3708 C174 2.043 . S
C3743 C187 1.751 . S
C3758 C621 1.734 . S
C3793 C586 2.197 . S
C3808 C200 2.192 . S
C3843 C118 1.299 . S
C3858 C213 1.356 . S
C3893 C226 1.879 . S
C3908 C508 1.785 . S
C3943 C237 1.906 . S
C3958 C469 1.892 . S
C3993 C482 1.903 . S
C4008 C252 1.998 . S
C4043 C263 1.806 . S
C4058 C183 1.786 . S
C4093 C456 1.657 . S
C4108 C278 1.751 . S
C4143 C417 1.941 . S
C4158 C289 1.958 . S
C4193 C443 2.237 . S
C4208 C302 2.249 . S
C4243 C317 1.880 . S
C4258 C40 1.782 . S
C4293 C330 2.037 . S
C4308 C1 2.050 . S
C4343 C14 1.903 . S
C4358 C343 1.998 . S
C4393 C356 2.075 . S
C4408 C27 2.090 . S
C4443 C369 1.752 . S
C4458 C378 1.657 . S
C4493 C391 1.734 . S
C4508 C382 1.728 . S
C4543 C404 1.785 . S
C4558 C395 1.879 . S
C4593 C408 1.777 . S
C4608 C365 1.787 . S
C4643 C244 1.862 . S
C4658 C421 1.880 . S
C4693 C434 1.881 . S
C4708 C248 1.891 . S
C4743 C447 1.388 . S
C4758 C582 1.374 . S
C4793 C460 1.727 . S
C4808 C222 1.733 . S
C4843 C473 1.998 . S
C4858 C296 1.981 . S
C4893 C486 1.927 . S
C4908 C521 1.941 . S
C4943 C309 1.510 . S
C4958 C499 1.513 . S
C4993 C512 1.777 . S
C5008 C274 1.786 . S
C5043 C430 1.782 . S
C5058 C525 1.880 . S
C5093 C196 1.320 . S
C5108 C538 1.381 . S
C5143 C157 2.085 . S
C5158 C549 2.098 . S
C5193 C564 1.226 . S
C5208 C170 1.163 . S
C5243 C575 2.200 . S
C5258 C495 2.203 . S
C5293 C144 1.448 . S
C5308 C590 1.513 . S
C5343 C601 2.048 . S
C5358 C105 2.050 . S
C5393 C131 1.734 . S
C5408 C614 1.751 . S
