# Generated by pormake.
# Topology unr, (4)-cn, num edge types: 1
# Building blocks:
#     Node 0, Type 0, BuildingBlock: NAHDIM_clean_sbu_0, # of connection points: 4
#     Node 1, Type 0, BuildingBlock: NAHDIM_clean_sbu_0, # of connection points: 4
#     Node 2, Type 0, BuildingBlock: NAHDIM_clean_sbu_0, # of connection points: 4
#     Node 3, Type 0, BuildingBlock: NAHDIM_clean_sbu_0, # of connection points: 4
#     Node 4, Type 0, BuildingBlock: NAHDIM_clean_sbu_0, # of connection points: 4
#     Node 5, Type 0, BuildingBlock: NAHDIM_clean_sbu_0, # of connection points: 4
#     Node 6, Type 0, BuildingBlock: NAHDIM_clean_sbu_0, # of connection points: 4
#     Node 7, Type 0, BuildingBlock: NAHDIM_clean_sbu_0, # of connection points: 4
#     Node 8, Type 0, BuildingBlock: NAHDIM_clean_sbu_0, # of connection points: 4
#     Node 9, Type 0, BuildingBlock: NAHDIM_clean_sbu_0, # of connection points: 4
#     Node 10, Type 0, BuildingBlock: NAHDIM_clean_sbu_0, # of connection points: 4
#     Node 11, Type 0, BuildingBlock: NAHDIM_clean_sbu_0, # of connection points: 4
#     Node 12, Type 0, BuildingBlock: NAHDIM_clean_sbu_0, # of connection points: 4
#     Node 13, Type 0, BuildingBlock: NAHDIM_clean_sbu_0, # of connection points: 4
#     Node 14, Type 0, BuildingBlock: NAHDIM_clean_sbu_0, # of connection points: 4
#     Node 15, Type 0, BuildingBlock: NAHDIM_clean_sbu_0, # of connection points: 4
#     Node 16, Type 0, BuildingBlock: NAHDIM_clean_sbu_0, # of connection points: 4
#     Node 17, Type 0, BuildingBlock: NAHDIM_clean_sbu_0, # of connection points: 4
#     Node 18, Type 0, BuildingBlock: NAHDIM_clean_sbu_0, # of connection points: 4
#     Node 19, Type 0, BuildingBlock: NAHDIM_clean_sbu_0, # of connection points: 4
#     Node 20, Type 0, BuildingBlock: NAHDIM_clean_sbu_0, # of connection points: 4
#     Node 21, Type 0, BuildingBlock: NAHDIM_clean_sbu_0, # of connection points: 4
#     Node 22, Type 0, BuildingBlock: NAHDIM_clean_sbu_0, # of connection points: 4
#     Node 23, Type 0, BuildingBlock: NAHDIM_clean_sbu_0, # of connection points: 4
#     Node 24, Type 0, BuildingBlock: NAHDIM_clean_sbu_0, # of connection points: 4
#     Node 25, Type 0, BuildingBlock: NAHDIM_clean_sbu_0, # of connection points: 4
#     Node 26, Type 0, BuildingBlock: NAHDIM_clean_sbu_0, # of connection points: 4
#     Node 27, Type 0, BuildingBlock: NAHDIM_clean_sbu_0, # of connection points: 4
#     Node 28, Type 0, BuildingBlock: NAHDIM_clean_sbu_0, # of connection points: 4
#     Node 29, Type 0, BuildingBlock: NAHDIM_clean_sbu_0, # of connection points: 4
#     Node 30, Type 0, BuildingBlock: NAHDIM_clean_sbu_0, # of connection points: 4
#     Node 31, Type 0, BuildingBlock: NAHDIM_clean_sbu_0, # of connection points: 4
#     Node 32, Type 0, BuildingBlock: NAHDIM_clean_sbu_0, # of connection points: 4
#     Node 33, Type 0, BuildingBlock: NAHDIM_clean_sbu_0, # of connection points: 4
#     Node 34, Type 0, BuildingBlock: NAHDIM_clean_sbu_0, # of connection points: 4
#     Node 35, Type 0, BuildingBlock: NAHDIM_clean_sbu_0, # of connection points: 4
#     Edge 36, Type (0, 0), BuildingBlock: XIVTED_clean_linker_0, # of connection points: 2
#     Edge 37, Type (0, 0), BuildingBlock: XIVTED_clean_linker_0, # of connection points: 2
#     Edge 38, Type (0, 0), BuildingBlock: XIVTED_clean_linker_0, # of connection points: 2
#     Edge 39, Type (0, 0), BuildingBlock: XIVTED_clean_linker_0, # of connection points: 2
#     Edge 40, Type (0, 0), BuildingBlock: XIVTED_clean_linker_0, # of connection points: 2
#     Edge 41, Type (0, 0), BuildingBlock: XIVTED_clean_linker_0, # of connection points: 2
#     Edge 42, Type (0, 0), BuildingBlock: XIVTED_clean_linker_0, # of connection points: 2
#     Edge 43, Type (0, 0), BuildingBlock: XIVTED_clean_linker_0, # of connection points: 2
#     Edge 44, Type (0, 0), BuildingBlock: XIVTED_clean_linker_0, # of connection points: 2
#     Edge 45, Type (0, 0), BuildingBlock: XIVTED_clean_linker_0, # of connection points: 2
#     Edge 46, Type (0, 0), BuildingBlock: XIVTED_clean_linker_0, # of connection points: 2
#     Edge 47, Type (0, 0), BuildingBlock: XIVTED_clean_linker_0, # of connection points: 2
#     Edge 48, Type (0, 0), BuildingBlock: XIVTED_clean_linker_0, # of connection points: 2
#     Edge 49, Type (0, 0), BuildingBlock: XIVTED_clean_linker_0, # of connection points: 2
#     Edge 50, Type (0, 0), BuildingBlock: XIVTED_clean_linker_0, # of connection points: 2
#     Edge 51, Type (0, 0), BuildingBlock: XIVTED_clean_linker_0, # of connection points: 2
#     Edge 52, Type (0, 0), BuildingBlock: XIVTED_clean_linker_0, # of connection points: 2
#     Edge 53, Type (0, 0), BuildingBlock: XIVTED_clean_linker_0, # of connection points: 2
#     Edge 54, Type (0, 0), BuildingBlock: XIVTED_clean_linker_0, # of connection points: 2
#     Edge 55, Type (0, 0), BuildingBlock: XIVTED_clean_linker_0, # of connection points: 2
#     Edge 56, Type (0, 0), BuildingBlock: XIVTED_clean_linker_0, # of connection points: 2
#     Edge 57, Type (0, 0), BuildingBlock: XIVTED_clean_linker_0, # of connection points: 2
#     Edge 58, Type (0, 0), BuildingBlock: XIVTED_clean_linker_0, # of connection points: 2
#     Edge 59, Type (0, 0), BuildingBlock: XIVTED_clean_linker_0, # of connection points: 2
#     Edge 60, Type (0, 0), BuildingBlock: XIVTED_clean_linker_0, # of connection points: 2
#     Edge 61, Type (0, 0), BuildingBlock: XIVTED_clean_linker_0, # of connection points: 2
#     Edge 62, Type (0, 0), BuildingBlock: XIVTED_clean_linker_0, # of connection points: 2
#     Edge 63, Type (0, 0), BuildingBlock: XIVTED_clean_linker_0, # of connection points: 2
#     Edge 64, Type (0, 0), BuildingBlock: XIVTED_clean_linker_0, # of connection points: 2
#     Edge 65, Type (0, 0), BuildingBlock: XIVTED_clean_linker_0, # of connection points: 2
#     Edge 66, Type (0, 0), BuildingBlock: XIVTED_clean_linker_0, # of connection points: 2
#     Edge 67, Type (0, 0), BuildingBlock: XIVTED_clean_linker_0, # of connection points: 2
#     Edge 68, Type (0, 0), BuildingBlock: XIVTED_clean_linker_0, # of connection points: 2
#     Edge 69, Type (0, 0), BuildingBlock: XIVTED_clean_linker_0, # of connection points: 2
#     Edge 70, Type (0, 0), BuildingBlock: XIVTED_clean_linker_0, # of connection points: 2
#     Edge 71, Type (0, 0), BuildingBlock: XIVTED_clean_linker_0, # of connection points: 2
#     Edge 72, Type (0, 0), BuildingBlock: XIVTED_clean_linker_0, # of connection points: 2
#     Edge 73, Type (0, 0), BuildingBlock: XIVTED_clean_linker_0, # of connection points: 2
#     Edge 74, Type (0, 0), BuildingBlock: XIVTED_clean_linker_0, # of connection points: 2
#     Edge 75, Type (0, 0), BuildingBlock: XIVTED_clean_linker_0, # of connection points: 2
#     Edge 76, Type (0, 0), BuildingBlock: XIVTED_clean_linker_0, # of connection points: 2
#     Edge 77, Type (0, 0), BuildingBlock: XIVTED_clean_linker_0, # of connection points: 2
#     Edge 78, Type (0, 0), BuildingBlock: XIVTED_clean_linker_0, # of connection points: 2
#     Edge 79, Type (0, 0), BuildingBlock: XIVTED_clean_linker_0, # of connection points: 2
#     Edge 80, Type (0, 0), BuildingBlock: XIVTED_clean_linker_0, # of connection points: 2
#     Edge 81, Type (0, 0), BuildingBlock: XIVTED_clean_linker_0, # of connection points: 2
#     Edge 82, Type (0, 0), BuildingBlock: XIVTED_clean_linker_0, # of connection points: 2
#     Edge 83, Type (0, 0), BuildingBlock: XIVTED_clean_linker_0, # of connection points: 2
#     Edge 84, Type (0, 0), BuildingBlock: XIVTED_clean_linker_0, # of connection points: 2
#     Edge 85, Type (0, 0), BuildingBlock: XIVTED_clean_linker_0, # of connection points: 2
#     Edge 86, Type (0, 0), BuildingBlock: XIVTED_clean_linker_0, # of connection points: 2
#     Edge 87, Type (0, 0), BuildingBlock: XIVTED_clean_linker_0, # of connection points: 2
#     Edge 88, Type (0, 0), BuildingBlock: XIVTED_clean_linker_0, # of connection points: 2
#     Edge 89, Type (0, 0), BuildingBlock: XIVTED_clean_linker_0, # of connection points: 2
#     Edge 90, Type (0, 0), BuildingBlock: XIVTED_clean_linker_0, # of connection points: 2
#     Edge 91, Type (0, 0), BuildingBlock: XIVTED_clean_linker_0, # of connection points: 2
#     Edge 92, Type (0, 0), BuildingBlock: XIVTED_clean_linker_0, # of connection points: 2
#     Edge 93, Type (0, 0), BuildingBlock: XIVTED_clean_linker_0, # of connection points: 2
#     Edge 94, Type (0, 0), BuildingBlock: XIVTED_clean_linker_0, # of connection points: 2
#     Edge 95, Type (0, 0), BuildingBlock: XIVTED_clean_linker_0, # of connection points: 2
#     Edge 96, Type (0, 0), BuildingBlock: XIVTED_clean_linker_0, # of connection points: 2
#     Edge 97, Type (0, 0), BuildingBlock: XIVTED_clean_linker_0, # of connection points: 2
#     Edge 98, Type (0, 0), BuildingBlock: XIVTED_clean_linker_0, # of connection points: 2
#     Edge 99, Type (0, 0), BuildingBlock: XIVTED_clean_linker_0, # of connection points: 2
#     Edge 100, Type (0, 0), BuildingBlock: XIVTED_clean_linker_0, # of connection points: 2
#     Edge 101, Type (0, 0), BuildingBlock: XIVTED_clean_linker_0, # of connection points: 2
#     Edge 102, Type (0, 0), BuildingBlock: XIVTED_clean_linker_0, # of connection points: 2
#     Edge 103, Type (0, 0), BuildingBlock: XIVTED_clean_linker_0, # of connection points: 2
#     Edge 104, Type (0, 0), BuildingBlock: XIVTED_clean_linker_0, # of connection points: 2
#     Edge 105, Type (0, 0), BuildingBlock: XIVTED_clean_linker_0, # of connection points: 2
#     Edge 106, Type (0, 0), BuildingBlock: XIVTED_clean_linker_0, # of connection points: 2
#     Edge 107, Type (0, 0), BuildingBlock: XIVTED_clean_linker_0, # of connection points: 2
# Relax obj value: 0.418
# Max RMSD: 0.253
# Mean RMSD: 0.247
data_MOF--net-unr--node1-NAHDIM_clean_sbu_0--edge1-XIVTED_clean_linker_0
_symmetry_space_group_name_H-M    P1
_symmetry_Int_Tables_number       1
_symmetry_cell_setting            triclinic
loop_
_symmetry_equiv_pos_as_xyz
'x, y, z'
_cell_length_a     47.203258
_cell_length_b     47.210079
_cell_length_c     116.86637
_cell_angle_alpha  89.969722
_cell_angle_beta   90.042045
_cell_angle_gamma 119.97907
loop_
_atom_site_label
_atom_site_type_symbol
_atom_site_fract_x
_atom_site_fract_y
_atom_site_fract_z
_atom_type_partial_charge
C0 C 0.25801 0.14821 0.18196 0.0
O1 O 0.24702 0.14472 0.19249 0.0
O2 O 0.17224 0.10136 0.18301 0.0
Zn3 Zn 0.2006 0.14904 0.17928 0.0
O4 O 0.20685 0.17404 0.19383 0.0
C5 C 0.15903 0.14047 0.16023 0.0
O6 O 0.16374 0.11582 0.15804 0.0
O7 O 0.24268 0.15319 0.17398 0.0
C8 C 0.18621 0.18245 0.19678 0.0
O9 O 0.16195 0.17649 0.18984 0.0
C10 C 0.1413 0.08733 0.1837 0.0
O11 O 0.12662 0.10452 0.18233 0.0
O12 O 0.17672 0.1611 0.16779 0.0
C13 C 0.8656 0.09169 0.16368 0.0
O14 O 0.87951 0.07997 0.15691 0.0
O15 O 0.91014 0.05719 0.1739 0.0
Zn16 Zn 0.8642 0.04384 0.1788 0.0
O17 O 0.86106 0.04171 0.1959 0.0
C18 C 0.84129 0.98516 0.16558 0.0
O19 O 0.86583 0.00418 0.15885 0.0
O20 O 0.85395 0.0777 0.1732 0.0
C21 C 0.86835 0.02257 0.20111 0.0
O22 O 0.87997 0.00693 0.19521 0.0
C23 C 0.93291 0.0867 0.175 0.0
O24 O 0.92643 0.10786 0.1799 0.0
O25 O 0.8335 -0.00187 0.17358 0.0
C26 C 0.88329 0.73605 0.19576 0.0
O27 O 0.87248 0.7419 0.20531 0.0
O28 O 0.90069 0.81932 0.19298 0.0
Zn29 Zn 0.92901 0.80208 0.19886 0.0
O30 O 0.929 0.80036 0.21602 0.0
C31 C -0.00094 0.85006 0.19891 0.0
O32 O -0.00116 0.84108 0.20956 0.0
O33 O 0.91049 0.75802 0.19175 0.0
C34 C 0.93973 0.78387 0.22114 0.0
O35 O 0.94983 0.7672 0.21507 0.0
C36 C 0.87327 0.81497 0.19639 0.0
O37 O 0.85981 0.79781 0.20568 0.0
O38 O 0.97341 0.83467 0.19286 0.0
C39 C 0.12669 0.23901 0.30358 0.0
O40 O 0.112 0.23083 0.29359 0.0
O41 O 0.06794 0.15783 0.3006 0.0
Zn42 Zn 0.11684 0.17811 0.29965 0.0
O43 O 0.12996 0.18744 0.28322 0.0
C44 C 0.12401 0.13552 0.31591 0.0
O45 O 0.11248 0.14813 0.32331 0.0
O46 O 0.13496 0.21997 0.3083 0.0
C47 C 0.1594 0.1992 0.27999 0.0
O48 O 0.18217 0.20523 0.28763 0.0
C49 C 0.05457 0.16071 0.30964 0.0
O50 O 0.07283 0.17628 0.31851 0.0
O51 O 0.12946 0.14615 0.3057 0.0
C52 C 0.73501 0.88708 0.30151 0.0
O53 O 0.74778 0.88495 0.2918 0.0
O54 O 0.82316 0.91632 0.31289 0.0
Zn55 Zn 0.80059 0.93833 0.30557 0.0
O56 O 0.8115 0.94562 0.2887 0.0
C57 C 0.82179 0.00763 0.30888 0.0
O58 O 0.80351 0.00432 0.29996 0.0
O59 O 0.7526 0.90972 0.30852 0.0
C60 C 0.795 0.9524 0.28175 0.0
O61 O 0.76879 0.95258 0.28543 0.0
C62 C 0.81293 0.88578 0.31288 0.0
O63 O 0.7863 0.86597 0.30717 0.0
O64 O 0.82082 0.98243 0.31318 0.0
C65 C 0.07598 0.847 0.3391 0.0
O66 O 0.06825 0.86687 0.3443 0.0
O67 O 0.04086 0.8851 0.3257 0.0
Zn68 Zn 0.02211 0.83647 0.32552 0.0
O69 O 0.01118 0.82182 0.30922 0.0
C70 C 0.97523 0.83341 0.34144 0.0
O71 O 0.00098 0.85919 0.34569 0.0
O72 O 0.05709 0.82807 0.33136 0.0
C73 C 0.9903 0.82764 0.30455 0.0
O74 O 0.97794 0.84242 0.31055 0.0
C75 C 0.0672 0.90393 0.32042 0.0
O76 O 0.08171 0.89121 0.31447 0.0
O77 O 0.97965 0.81611 0.33412 0.0
C78 C 0.75663 0.81784 0.80425 0.0
O79 O 0.76637 0.8339 0.79453 0.0
O80 O 0.82405 0.83221 0.78691 0.0
Zn81 Zn 0.82198 0.83938 0.80374 0.0
O82 O 0.83293 0.88581 0.80599 0.0
C83 C 0.86602 0.81529 0.80715 0.0
O84 O 0.84945 0.79642 0.79852 0.0
O85 O 0.77678 0.81302 0.80994 0.0
C86 C 0.83645 0.89745 0.81602 0.0
O87 O 0.83419 0.8792 0.82485 0.0
C88 C 0.84952 0.85322 0.78166 0.0
O89 O 0.87238 0.87811 0.78739 0.0
O90 O 0.85629 0.83339 0.81168 0.0
C91 C 0.18615 0.93312 0.79907 0.0
O92 O 0.17645 0.9262 0.78839 0.0
O93 O 0.18155 0.98547 0.77783 0.0
Zn94 Zn 0.16615 0.9777 0.79424 0.0
O95 O 0.1185 0.94398 0.79495 0.0
C96 C 0.17619 0.04288 0.79482 0.0
O97 O 0.18467 0.04285 0.78412 0.0
O98 O 0.18769 0.95829 0.8036 0.0
C99 C 0.10587 0.93585 0.80486 0.0
O100 O 0.12415 0.95021 0.81387 0.0
C101 C 0.1644 0.96631 0.76983 0.0
O102 O 0.13665 0.93988 0.77233 0.0
O103 O 0.16979 0.01845 0.80113 0.0
C104 C 0.06045 0.23806 0.81 0.0
O105 O 0.06701 0.23128 0.79978 0.0
O106 O 0.98975 0.18239 0.79091 0.0
Zn107 Zn 0.00656 0.17694 0.80609 0.0
O108 O 0.03756 0.16048 0.803 0.0
C109 C 0.94043 0.13444 0.8148 0.0
O110 O 0.93195 0.1512 0.80805 0.0
O111 O 0.0329 0.21879 0.8145 0.0
C112 C 0.05112 0.15498 0.81144 0.0
O113 O 0.04364 0.15924 0.82188 0.0
C114 C 0.97105 0.15613 0.78554 0.0
O115 O 0.96346 0.12794 0.79026 0.0
O116 O 0.97043 0.14282 0.81571 0.0
C117 C 0.81233 0.73133 0.67996 0.0
O118 O 0.80491 0.74243 0.68911 0.0
O119 O 0.85935 0.80387 0.69297 0.0
Zn120 Zn 0.85592 0.79903 0.6759 0.0
O121 O 0.90106 0.81498 0.66984 0.0
C122 C 0.8207 0.83294 0.67681 0.0
O123 O 0.80727 0.81333 0.6856 0.0
O124 O 0.82979 0.75142 0.67223 0.0
C125 C 0.9101 0.82708 0.6599 0.0
O126 O 0.88936 0.82995 0.65318 0.0
C127 C 0.87676 0.83152 0.69769 0.0
O128 O 0.89425 0.85735 0.69127 0.0
O129 O 0.83907 0.82794 0.67017 0.0
C130 C 0.25161 0.06606 0.66257 0.0
O131 O 0.24987 0.04524 0.67039 0.0
O132 O 0.18459 0.01493 0.68 0.0
Zn133 Zn 0.18141 0.03195 0.66456 0.0
O134 O 0.16105 0.0597 0.66728 0.0
C135 C 0.14503 0.96604 0.65626 0.0
O136 O 0.1624 0.96113 0.66397 0.0
O137 O 0.22547 0.06215 0.65802 0.0
C138 C 0.15404 0.07283 0.65909 0.0
O139 O 0.15947 0.06745 0.64851 0.0
C140 C 0.19777 0.03516 0.68816 0.0
O141 O 0.21012 0.06653 0.68612 0.0
O142 O 0.15127 0.99507 0.65432 0.0
C143 C 0.90306 0.16938 0.67451 0.0
O144 O 0.91459 0.18463 0.68428 0.0
O145 O 0.94528 0.1536 0.69605 0.0
Zn146 Zn 0.94176 0.13914 0.67961 0.0
O147 O 0.91697 0.08999 0.67887 0.0
C148 C 0.00972 0.15989 0.67952 0.0
O149 O 0.00567 0.16163 0.69057 0.0
O150 O 0.91443 0.15222 0.6704 0.0
C151 C 0.9146 0.07084 0.68692 0.0
O152 O 0.92959 0.08301 0.69668 0.0
C153 C 0.92054 0.14137 0.70263 0.0
O154 O 0.89181 0.11984 0.6985 0.0
O155 O 0.98597 0.15316 0.67282 0.0
C156 C 0.91414 0.5201 0.53478 0.0
O157 O 0.90952 0.50423 0.54446 0.0
O158 O 0.83294 0.44809 0.5308 0.0
Zn159 Zn 0.84612 0.4927 0.53697 0.0
O160 O 0.84665 0.49067 0.55412 0.0
C161 C 0.79733 0.5132 0.53785 0.0
O162 O 0.80674 0.52064 0.54854 0.0
O163 O 0.89042 0.52179 0.53037 0.0
C164 C 0.86286 0.51496 0.56069 0.0
O165 O 0.88066 0.54428 0.55627 0.0
C166 C 0.84107 0.429 0.53556 0.0
O167 O 0.85764 0.43786 0.54519 0.0
O168 O 0.81216 0.50319 0.5314 0.0
C169 C 0.47568 0.39567 0.51316 0.0
O170 O 0.47113 0.38928 0.52416 0.0
O171 O 0.55065 0.38649 0.51631 0.0
Zn172 Zn 0.50275 0.35424 0.51478 0.0
O173 O 0.48531 0.34025 0.53072 0.0
C174 C 0.48402 0.28749 0.50882 0.0
O175 O 0.46352 0.27975 0.51741 0.0
O176 O 0.48484 0.37958 0.50699 0.0
C177 C 0.50126 0.33152 0.53717 0.0
O178 O 0.52627 0.3301 0.5329 0.0
C179 C 0.56147 0.41033 0.52327 0.0
O180 O 0.54088 0.41378 0.52987 0.0
O181 O 0.50021 0.31713 0.50561 0.0
C182 C 0.63157 0.11108 0.50158 0.0
O183 O 0.64002 0.13861 0.49621 0.0
O184 O 0.61938 0.16796 0.51614 0.0
Zn185 Zn 0.65145 0.15341 0.52067 0.0
O186 O 0.64499 0.14404 0.53748 0.0
C187 C 0.71571 0.20282 0.51007 0.0
O188 O 0.70445 0.1916 0.49979 0.0
O189 O 0.63843 0.11205 0.51213 0.0
C190 C 0.64532 0.16648 0.54358 0.0
O191 O 0.64969 0.19329 0.53857 0.0
C192 C 0.62382 0.18934 0.50866 0.0
O193 O 0.65186 0.20473 0.50322 0.0
O194 O 0.6979 0.18957 0.5188 0.0
C195 C 0.83281 0.53203 0.68525 0.0
O196 O 0.80697 0.50547 0.68901 0.0
O197 O 0.78145 0.47901 0.6666 0.0
Zn198 Zn 0.82783 0.4888 0.66799 0.0
O199 O 0.84604 0.4984 0.6521 0.0
C200 C 0.8031 0.42819 0.67975 0.0
O201 O 0.78304 0.43734 0.68387 0.0
O202 O 0.85021 0.5292 0.67754 0.0
C203 C 0.83275 0.4749 0.64502 0.0
O204 O 0.80977 0.44617 0.64866 0.0
C205 C 0.77471 0.49853 0.66138 0.0
O206 O 0.79833 0.52486 0.65651 0.0
O207 O 0.82725 0.44835 0.67374 0.0
C208 C 0.44055 0.29336 0.6607 0.0
O209 O 0.46515 0.30045 0.66763 0.0
O210 O 0.50525 0.29206 0.65091 0.0
Zn211 Zn 0.49241 0.32446 0.64546 0.0
O212 O 0.49387 0.32477 0.6283 0.0
C213 C 0.54115 0.39316 0.64595 0.0
O214 O 0.53338 0.39225 0.63511 0.0
O215 O 0.44664 0.3067 0.65089 0.0
C216 C 0.47196 0.3251 0.62208 0.0
O217 O 0.44745 0.3262 0.62694 0.0
C218 C 0.48742 0.26184 0.64861 0.0
O219 O 0.46149 0.25223 0.6421 0.0
O220 O 0.52485 0.3679 0.6521 0.0
C221 C 0.67542 0.10364 0.65097 0.0
O222 O 0.6693 0.10212 0.63995 0.0
O223 O 0.66219 0.17962 0.65686 0.0
Zn224 Zn 0.63567 0.1331 0.65151 0.0
O225 O 0.63522 0.13295 0.63436 0.0
C226 C 0.5869 0.12905 0.66641 0.0
O227 O 0.61211 0.14299 0.67337 0.0
O228 O 0.65914 0.11101 0.65779 0.0
C229 C 0.62923 0.15291 0.6291 0.0
O230 O 0.62317 0.17292 0.63504 0.0
C231 C 0.69312 0.19609 0.65592 0.0
O232 O 0.70858 0.18317 0.65068 0.0
O233 O 0.59004 0.11706 0.65709 0.0
C234 C 0.43889 0.1075 0.16257 0.0
O235 O 0.43717 0.09069 0.15338 0.0
O236 O 0.4835 0.13571 0.13776 0.0
Zn237 Zn 0.5017 0.15273 0.15349 0.0
O238 O 0.51626 0.20076 0.15326 0.0
C239 C 0.55811 0.14747 0.14888 0.0
O240 O 0.54587 0.14239 0.1385 0.0
O241 O 0.46596 0.13259 0.16512 0.0
C242 C 0.52884 0.21709 0.14418 0.0
O243 O 0.53339 0.20264 0.13535 0.0
C244 C 0.46333 0.14355 0.13372 0.0
O245 O 0.45362 0.15979 0.14021 0.0
O246 O 0.54171 0.14969 0.1571 0.0
C247 C 0.90383 0.31646 0.1505 0.0
O248 O 0.91703 0.33127 0.14081 0.0
O249 O 0.87251 0.34701 0.12979 0.0
Zn250 Zn 0.85853 0.33923 0.14626 0.0
O251 O 0.81154 0.30357 0.1462 0.0
C252 C 0.8736 0.40595 0.14763 0.0
O253 O 0.89155 0.40898 0.13863 0.0
O254 O 0.88205 0.32097 0.15511 0.0
C255 C 0.79739 0.28841 0.15531 0.0
O256 O 0.81356 0.29696 0.16503 0.0
C257 C 0.86435 0.3226 0.12327 0.0
O258 O 0.84839 0.29298 0.12761 0.0
O259 O 0.85984 0.37896 0.15302 0.0
C260 C 0.72295 0.57596 0.14022 0.0
O261 O 0.73396 0.5752 0.12997 0.0
O262 O 0.67654 0.52076 0.11719 0.0
Zn263 Zn 0.683 0.51211 0.13364 0.0
O264 O 0.72024 0.50315 0.13471 0.0
C265 C 0.61946 0.45425 0.13297 0.0
O266 O 0.61865 0.46534 0.12274 0.0
O267 O 0.69687 0.55111 0.14368 0.0
C268 C 0.7292 0.49984 0.14464 0.0
O269 O 0.71332 0.50148 0.15361 0.0
C270 C 0.69777 0.52579 0.10958 0.0
O271 O 0.72521 0.52706 0.11258 0.0
O272 O 0.64352 0.47156 0.13952 0.0
C273 C 0.4693 0.07463 0.02328 0.0
O274 O 0.48104 0.08066 0.03375 0.0
O275 O 0.4645 0.13067 0.04269 0.0
Zn276 Zn 0.48335 0.1376 0.02689 0.0
O277 O 0.53095 0.1515 0.02815 0.0
C278 C 0.46433 0.18631 0.0194 0.0
O279 O 0.4406 0.17412 0.02697 0.0
O280 O 0.46435 0.09566 0.01828 0.0
C281 C 0.54551 0.15436 0.0187 0.0
O282 O 0.52904 0.14895 0.00911 0.0
C283 C 0.47083 0.15456 0.04924 0.0
O284 O 0.48866 0.18456 0.04538 0.0
O285 O 0.48215 0.17342 0.0181 0.0
C286 C 0.90846 0.34894 0.00916 0.0
O287 O 0.91227 0.34385 0.01996 0.0
O288 O 0.85389 0.32142 0.03226 0.0
Zn289 Zn 0.84187 0.32325 0.01587 0.0
O290 O 0.8309 0.35904 0.01445 0.0
C291 C 0.78689 0.25859 0.01878 0.0
O292 O 0.80169 0.26028 0.02849 0.0
O293 O 0.87969 0.33696 0.00519 0.0
C294 C 0.82611 0.36658 0.00448 0.0
O295 O 0.82761 0.35019 0.99564 0.0
C296 C 0.86728 0.34679 0.03853 0.0
O297 O 0.87478 0.37526 0.03409 0.0
O298 O 0.80106 0.28159 0.01154 0.0
C299 C 0.62681 0.52363 -0.0014 0.0
O300 O 0.642 0.53844 0.00806 0.0
O301 O 0.66461 0.49925 0.01921 0.0
Zn302 Zn 0.65494 0.48299 0.00292 0.0
O303 O 0.62229 0.43478 0.00334 0.0
C304 C 0.72292 0.50258 0.00077 0.0
O305 O 0.72576 0.52097 0.00962 0.0
O306 O 0.63342 0.50326 0.994 0.0
C307 C 0.59147 0.42311 0.00321 0.0
O308 O 0.57957 0.44299 0.00299 0.0
C309 C 0.64262 0.49323 0.02662 0.0
O310 O 0.6117 0.47652 0.02362 0.0
O311 O 0.69545 0.48702 0.99573 0.0
C312 C 0.57903 0.8342 0.84432 0.0
O313 O 0.56804 0.81921 0.85416 0.0
O314 O 0.4971 0.78658 0.84789 0.0
Zn315 Zn 0.52218 0.83577 0.84727 0.0
O316 O 0.52958 0.85196 0.86347 0.0
C317 C 0.48055 0.83666 0.82966 0.0
O318 O 0.48927 0.81741 0.82455 0.0
O319 O 0.56394 0.84686 0.83944 0.0
C320 C 0.5057 0.85144 0.86868 0.0
O321 O 0.47835 0.84235 0.86308 0.0
C322 C 0.46612 0.7693 0.84774 0.0
O323 O 0.4484 0.78364 0.84752 0.0
O324 O 0.49487 0.85071 0.83889 0.0
C325 C 0.1641 0.74849 0.84703 0.0
O326 O 0.17476 0.75376 0.85764 0.0
O327 O 0.22981 0.72351 0.84237 0.0
Zn328 Zn 0.18303 0.69942 0.84781 0.0
O329 O 0.18255 0.69712 0.86504 0.0
C330 C 0.1403 0.62853 0.84587 0.0
O331 O 0.12456 0.63166 0.85459 0.0
O332 O 0.16238 0.72435 0.8416 0.0
C333 C 0.15784 0.69083 0.87116 0.0
O334 O 0.13104 0.6868 0.86623 0.0
C335 C 0.24859 0.754 0.84394 0.0
O336 O 0.23792 0.77052 0.84979 0.0
O337 O 0.16366 0.65398 0.84135 0.0
C338 C 0.23542 0.40986 0.85846 0.0
O339 O 0.22604 0.41608 0.86826 0.0
O340 O 0.23657 0.48367 0.85853 0.0
Zn341 Zn 0.27463 0.47644 0.86038 0.0
O342 O 0.28428 0.47856 0.87713 0.0
C343 C 0.34106 0.52824 0.85569 0.0
O344 O 0.34899 0.51617 0.86445 0.0
O345 O 0.26022 0.43278 0.85349 0.0
C346 C 0.29745 0.46433 0.88225 0.0
O347 O 0.30589 0.44595 0.87639 0.0
C348 C 0.22558 0.48268 0.84852 0.0
O349 O 0.23921 0.47653 0.83979 0.0
O350 O 0.31171 0.51364 0.85214 0.0
C351 C 0.48852 0.90482 0.97869 0.0
O352 O 0.48033 0.90139 0.96782 0.0
O353 O 0.42059 0.81412 0.98085 0.0
Zn354 Zn 0.4678 0.83767 0.97611 0.0
O355 O 0.47108 0.84271 0.95905 0.0
C356 C 0.47889 0.79659 0.99088 0.0
O357 O 0.46374 0.80595 -0.00195 0.0
O358 O 0.48807 0.88107 0.98396 0.0
C359 C 0.49837 0.85287 0.95406 0.0
O360 O 0.52438 0.85982 0.9602 0.0
C361 C 0.40119 0.82495 0.979 0.0
O362 O 0.41144 0.85211 0.97315 0.0
O363 O 0.48619 0.80949 0.98101 0.0
C364 C 0.06699 0.56594 0.97652 0.0
O365 O 0.07188 0.56963 0.96542 0.0
O366 O 0.16097 0.59858 0.98046 0.0
Zn367 Zn 0.13274 0.61819 0.97686 0.0
O368 O 0.13125 0.62438 0.95995 0.0
C369 C 0.17133 0.66681 0.99315 0.0
O370 O 0.16621 0.6409 -0.00099 0.0
O371 O 0.08862 0.58668 0.98322 0.0
C372 C 0.15788 0.64182 0.95462 0.0
O373 O 0.18563 0.65435 0.96027 0.0
C374 C 0.15146 0.56834 0.97939 0.0
O375 O 0.12286 0.54877 0.97473 0.0
O376 O 0.15509 0.6627 0.98403 0.0
C377 C 0.39485 0.46729 0.98886 0.0
O378 O 0.38186 0.45786 0.97865 0.0
O379 O 0.38065 0.54567 0.99178 0.0
Zn380 Zn 0.35562 0.49734 0.98905 0.0
O381 O 0.3505 0.49031 0.9721 0.0
C382 C 0.30655 0.49661 0.00324 0.0
O383 O 0.33229 0.51867 0.00886 0.0
O384 O 0.3834 0.48028 0.99556 0.0
C385 C 0.33661 0.50311 0.96656 0.0
O386 O 0.32646 0.52062 0.9721 0.0
C387 C 0.40926 0.56356 0.98781 0.0
O388 O 0.42253 0.55028 0.98148 0.0
O389 O 0.31061 0.48001 0.99554 0.0
C390 C 0.08529 0.53322 0.48165 0.0
O391 O 0.09153 0.5505 0.47222 0.0
O392 O 0.13837 0.53951 0.45923 0.0
Zn393 Zn 0.147 0.54795 0.47604 0.0
O394 O 0.16386 0.59559 0.47893 0.0
C395 C 0.18816 0.51956 0.47442 0.0
O396 O 0.16838 0.50359 0.46591 0.0
O397 O 0.10583 0.52512 0.48505 0.0
C398 C 0.16611 0.60586 0.48913 0.0
O399 O 0.15848 0.58521 0.49768 0.0
C400 C 0.16027 0.55982 0.45252 0.0
O401 O 0.18632 0.58504 0.45689 0.0
O402 O 0.18198 0.53783 0.48067 0.0
C403 C 0.52988 0.61631 0.48506 0.0
O404 O 0.54685 0.62787 0.4756 0.0
O405 O 0.51152 0.64852 0.46089 0.0
Zn406 Zn 0.49372 0.64648 0.47673 0.0
O407 O 0.44485 0.61761 0.47656 0.0
C408 C 0.51111 0.71367 0.4746 0.0
O409 O 0.5204 0.70996 0.46439 0.0
O410 O 0.5091 0.62473 0.48778 0.0
C411 C 0.42651 0.61118 0.46786 0.0
O412 O 0.43948 0.62389 0.45789 0.0
C413 C 0.50382 0.62302 0.45502 0.0
O414 O 0.48455 0.59411 0.45953 0.0
O415 O 0.50163 0.69051 0.48181 0.0
C416 C 0.41803 0.92957 0.47551 0.0
O417 O 0.41349 0.91747 0.46511 0.0
O418 O 0.34413 0.87471 0.46216 0.0
Zn419 Zn 0.36111 0.871 0.4775 0.0
O420 O 0.38477 0.84614 0.47525 0.0
C421 C 0.29624 0.84114 0.48751 0.0
O422 O 0.29095 0.85821 0.47978 0.0
O423 O 0.39593 0.91458 0.48299 0.0
C424 C 0.40032 0.84359 0.4837 0.0
O425 O 0.39886 0.85572 0.49365 0.0
C426 C 0.3222 0.84945 0.45708 0.0
O427 O 0.30922 0.82098 0.46227 0.0
O428 O 0.32491 0.84554 0.48868 0.0
C429 C 0.12512 0.41871 0.34761 0.0
O430 O 0.14088 0.42726 0.35741 0.0
O431 O 0.14203 0.48892 0.3646 0.0
Zn432 Zn 0.15045 0.48487 0.34804 0.0
O433 O 0.19613 0.49258 0.34709 0.0
C434 C 0.12951 0.53028 0.34315 0.0
O435 O 0.10697 0.51215 0.35067 0.0
O436 O 0.12224 0.44009 0.34194 0.0
C437 C 0.21056 0.49569 0.33762 0.0
O438 O 0.19569 0.49499 0.32803 0.0
C439 C 0.16181 0.51669 0.36886 0.0
O440 O 0.18474 0.53893 0.36229 0.0
O441 O 0.14844 0.52051 0.33943 0.0
C442 C 0.53741 0.68904 0.33114 0.0
O443 O 0.5088 0.68053 0.32658 0.0
O444 O 0.50396 0.64497 0.36576 0.0
Zn445 Zn 0.49689 0.65599 0.34979 0.0
O446 O 0.48075 0.68809 0.35045 0.0
C447 C 0.44627 0.58883 0.34666 0.0
O448 O 0.45687 0.58477 0.35658 0.0
O449 O 0.53851 0.67848 0.34103 0.0
C450 C 0.49848 0.71767 0.35357 0.0
O451 O 0.52841 0.72794 0.35719 0.0
C452 C 0.53015 0.66196 0.3714 0.0
O453 O 0.55455 0.68787 0.36663 0.0
O454 O 0.46156 0.6165 0.34176 0.0
C455 C 0.30165 0.88327 0.34619 0.0
O456 O 0.31774 0.89625 0.35572 0.0
O457 O 0.31908 0.84429 0.36747 0.0
Zn458 Zn 0.31826 0.83375 0.35074 0.0
O459 O 0.28308 0.78714 0.34804 0.0
C460 C 0.38435 0.84574 0.3527 0.0
O461 O 0.38368 0.8587 0.36257 0.0
O462 O 0.30405 0.86023 0.34156 0.0
C463 C 0.27229 0.7651 0.35569 0.0
O464 O 0.28487 0.77214 0.36603 0.0
C465 C 0.29307 0.83772 0.37283 0.0
O466 O 0.26502 0.82401 0.36734 0.0
O467 O 0.36035 0.83649 0.34587 0.0
H468 H 0.1054 0.08858 0.15045 0.0
H469 H 0.98677 0.14801 0.1756 0.0
H470 H 0.13887 0.18468 0.16457 0.0
H471 H 0.95426 0.04973 0.16389 0.0
H472 H 0.04163 0.16466 0.16858 0.0
H473 H 0.0492 0.07757 0.15166 0.0
C474 C 0.10107 0.10774 0.15351 0.0
C475 C 0.12691 0.13739 0.15763 0.0
C476 C 0.02245 0.1395 0.16747 0.0
C477 C 0.0625 0.12465 0.15925 0.0
C478 C 0.99113 0.12993 0.17152 0.0
C479 C 0.96598 0.0973 0.17048 0.0
C480 C 0.02873 0.11628 0.16235 0.0
C481 C 0.97299 0.07505 0.165 0.0
C482 C 0.06888 0.10129 0.1543 0.0
C483 C 0.1197 0.16128 0.16146 0.0
N484 N 0.00376 0.0849 0.16122 0.0
N485 N 0.08813 0.15418 0.16237 0.0
H486 H 0.85989 0.94964 0.15219 0.0
H487 H 0.82302 0.82484 0.20316 0.0
H488 H 0.80028 0.94086 0.18146 0.0
H489 H 0.88792 0.84024 0.17486 0.0
H490 H 0.8031 0.85704 0.19305 0.0
H491 H 0.85742 0.89865 0.15771 0.0
C492 C 0.84556 0.93659 0.15961 0.0
C493 C 0.83117 0.95012 0.16657 0.0
C494 C 0.82134 0.8529 0.18899 0.0
C495 C 0.82885 0.89211 0.17309 0.0
C496 C 0.83273 0.83458 0.19477 0.0
C497 C 0.85771 0.83055 0.18997 0.0
C498 C 0.83502 0.86713 0.17836 0.0
C499 C 0.86918 0.84339 0.17902 0.0
C500 C 0.84432 0.90752 0.16281 0.0
C501 C 0.81244 0.93176 0.17598 0.0
N502 N 0.85804 0.8614 0.17366 0.0
N503 N 0.81249 0.90409 0.17914 0.0
H504 H 0.07784 0.04652 0.17759 0.0
H505 H 0.05859 0.89023 0.20894 0.0
H506 H 0.1611 0.04706 0.19311 0.0
H507 H -0.00141 0.8841 0.18007 0.0
H508 H 0.09596 0.94787 0.20431 0.0
H509 H 0.04647 0.98709 0.17986 0.0
C510 C 0.08944 0.03411 0.18152 0.0
C511 C 0.12199 0.05163 0.18523 0.0
C512 C 0.07486 0.93365 0.19891 0.0
C513 C 0.08636 0.98387 0.18785 0.0
C514 C 0.05358 0.90079 0.20152 0.0
C515 C 0.02522 0.8824 0.19496 0.0
C516 C 0.06729 0.94823 0.18983 0.0
C517 C 0.02 0.89733 0.18542 0.0
C518 C 0.07166 0.00022 0.18272 0.0
C519 C 0.13602 0.03436 0.19015 0.0
N520 N 0.04051 0.92953 0.18327 0.0
N521 N 0.11797 0.00137 0.19144 0.0
H522 H 0.09876 0.09652 0.33481 0.0
H523 H 0.11775 0.95118 0.30786 0.0
H524 H 0.14921 0.1048 0.30309 0.0
H525 H 0.0487 0.93814 0.33443 0.0
H526 H 0.13847 0.01016 0.30838 0.0
H527 H 0.09021 0.0414 0.33731 0.0
C528 C 0.10858 0.08702 0.32848 0.0
C529 C 0.12425 0.10509 0.31863 0.0
C530 C 0.11894 0.99437 0.31414 0.0
C531 C 0.11431 0.04199 0.3214 0.0
C532 C 0.10709 0.96073 0.31385 0.0
C533 C 0.08118 0.9397 0.32101 0.0
C534 C 0.10492 0.00703 0.3217 0.0
C535 C 0.06843 0.95342 0.32865 0.0
C536 C 0.1035 0.05546 0.32988 0.0
C537 C 0.13658 0.09154 0.31074 0.0
N538 N 0.08034 0.9862 0.32876 0.0
N539 N 0.13104 0.06066 0.31223 0.0
H540 H 0.85999 0.02616 0.3281 0.0
H541 H 0.01136 0.1438 0.29194 0.0
H542 H 0.85025 0.06155 0.2951 0.0
H543 H 0.01648 0.14409 0.32882 0.0
H544 H 0.95173 0.11541 0.29317 0.0
H545 H 0.91609 0.07184 0.32934 0.0
C546 C 0.86934 0.04409 0.32127 0.0
C547 C 0.8507 0.03972 0.31138 0.0
C548 C 0.9659 0.12215 0.301 0.0
C549 C 0.91494 0.09133 0.31261 0.0
C550 C -0.00011 0.13805 0.3003 0.0
C551 C 0.01877 0.14585 0.31029 0.0
C552 C 0.95069 0.11332 0.31176 0.0
C553 C 0.00275 0.13828 0.3209 0.0
C554 C 0.90137 0.0701 0.32197 0.0
C555 C 0.86388 0.06377 0.30283 0.0
N556 N 0.96954 0.12185 0.32137 0.0
N557 N 0.89555 0.08808 0.30349 0.0
H558 H 0.80548 0.82431 0.31192 0.0
H559 H 0.95904 0.87418 0.3527 0.0
H560 H 0.861 0.9177 0.32877 0.0
H561 H 0.91873 0.79044 0.3302 0.0
H562 H 0.91318 0.88225 0.34807 0.0
H563 H 0.83801 0.80489 0.32206 0.0
C564 C 0.82431 0.84064 0.31781 0.0
C565 C 0.83091 0.87285 0.31936 0.0
C566 C 0.91407 0.86175 0.34431 0.0
C567 C 0.86781 0.85068 0.33107 0.0
C568 C 0.94014 0.85695 0.34702 0.0
C569 C 0.94325 0.83212 0.3416 0.0
C570 C 0.89097 0.84159 0.33612 0.0
C571 C 0.91769 0.8103 0.33442 0.0
C572 C 0.84279 0.82951 0.32361 0.0
C573 C 0.85542 0.89285 0.32717 0.0
N574 N 0.89294 0.81594 0.33171 0.0
N575 N 0.87308 0.8815 0.33267 0.0
H576 H 0.90622 0.84991 0.82494 0.0
H577 H 0.06366 0.8939 0.78877 0.0
H578 H 0.90336 0.7987 0.79398 0.0
H579 H 0.06851 0.92231 0.82414 0.0
H580 H 0.00497 0.85651 0.79095 0.0
H581 H 0.9655 0.87331 0.82564 0.0
C582 C 0.91797 0.84301 0.81843 0.0
C583 C 0.89989 0.82275 0.80929 0.0
C584 C 0.01894 0.87062 0.79828 0.0
C585 C 0.96771 0.84997 0.8099 0.0
C586 C 0.0524 0.89213 0.79701 0.0
C587 C 0.07088 0.91153 0.80625 0.0
C588 C 0.00377 0.86889 0.8088 0.0
C589 C 0.05512 0.90797 0.81677 0.0
C590 C 0.95183 0.85644 0.81882 0.0
C591 C 0.91634 0.81444 0.80114 0.0
N592 N 0.02237 0.88741 0.81772 0.0
N593 N 0.94943 0.82863 0.8015 0.0
H594 H 0.08019 0.15425 0.79133 0.0
H595 H 0.15418 0.04843 0.81597 0.0
H596 H 0.0763 0.13052 0.82718 0.0
H597 H 0.17628 0.09178 0.78227 0.0
H598 H 0.1288 0.08109 0.82075 0.0
H599 H 0.11757 0.13345 0.78813 0.0
C600 C 0.08728 0.14473 0.79854 0.0
C601 C 0.07485 0.14378 0.80951 0.0
C602 C 0.13967 0.08382 0.81237 0.0
C603 C 0.11764 0.11989 0.80592 0.0
C604 C 0.15424 0.06524 0.80964 0.0
C605 C 0.16693 0.06699 0.79863 0.0
C606 C 0.13749 0.104 0.80399 0.0
C607 C 0.16649 0.08934 0.79081 0.0
C608 C 0.10879 0.13303 0.79672 0.0
C609 C 0.08516 0.13153 0.81856 0.0
N610 N 0.15152 0.10658 0.79359 0.0
N611 N 0.1057 0.11971 0.81655 0.0
H612 H 0.8268 0.93584 0.80089 0.0
H613 H 0.94569 0.09872 0.83217 0.0
H614 H 0.86291 0.93634 0.83487 0.0
H615 H 0.88037 0.09409 0.80545 0.0
H616 H 0.91256 0.0395 0.83452 0.0
H617 H 0.84354 0.99354 0.80307 0.0
C618 C 0.83807 0.94808 0.80885 0.0
C619 C 0.84396 0.93148 0.81765 0.0
C620 C 0.90498 0.05151 0.82834 0.0
C621 C 0.86328 -0.0025 0.82019 0.0
C622 C 0.92384 0.08531 0.82702 0.0
C623 C 0.91598 0.1012 0.8185 0.0
C624 C 0.87857 0.03349 0.82091 0.0
C625 C 0.88738 0.08276 0.81208 0.0
C626 C 0.84737 0.98094 0.81013 0.0
C627 C 0.85819 0.94835 0.82784 0.0
N628 N 0.87012 0.04972 0.81323 0.0
N629 N 0.86791 0.98064 0.82876 0.0
H630 H 0.89158 0.02287 0.70323 0.0
H631 H 0.8429 0.87857 0.65964 0.0
H632 H 0.89319 0.03754 0.66672 0.0
H633 H 0.80707 0.86239 0.69438 0.0
H634 H 0.86043 0.93661 0.66171 0.0
H635 H 0.86088 0.96374 0.70011 0.0
C636 C 0.88541 0.01365 0.69457 0.0
C637 C 0.89515 0.03511 0.68522 0.0
C638 C 0.84813 0.92021 0.6688 0.0
C639 C 0.86013 0.96759 0.68159 0.0
C640 C 0.83802 0.88707 0.66761 0.0
C641 C 0.82379 0.86566 0.67688 0.0
C642 C 0.84453 0.93204 0.6794 0.0
C643 C 0.81804 0.878 0.68701 0.0
C644 C 0.86767 0.97992 0.69279 0.0
C645 C 0.88623 0.02184 0.67417 0.0
N646 N 0.82903 0.9105 0.68808 0.0
N647 N 0.86956 0.9889 0.67265 0.0
H648 H 0.10282 0.96714 0.64041 0.0
H649 H 0.95529 0.8146 0.66962 0.0
H650 H 0.11442 0.90251 0.66364 0.0
H651 H 0.94302 0.86883 0.64221 0.0
H652 H 0.01354 0.8413 0.66534 0.0
H653 H 0.04508 0.92632 0.63834 0.0
C654 C 0.09341 0.94404 0.64487 0.0
C655 C 0.11328 0.93858 0.65245 0.0
C656 C -0.0019 0.84706 0.66014 0.0
C657 C 0.0471 0.89201 0.65027 0.0
C658 C 0.96483 0.83193 0.66262 0.0
C659 C 0.94442 0.83999 0.6564 0.0
C660 C 0.01121 0.87088 0.65149 0.0
C661 C 0.95798 0.86218 0.6473 0.0
C662 C 0.06038 0.92075 0.6437 0.0
C663 C 0.09989 0.90803 0.65786 0.0
N664 N 0.99067 0.87731 0.64524 0.0
N665 N 0.06745 0.88618 0.65687 0.0
H666 H 0.02293 0.14891 0.65761 0.0
H667 H 0.14977 0.09757 0.6797 0.0
H668 H 0.06156 0.16624 0.692 0.0
H669 H 0.12418 0.0943 0.64406 0.0
H670 H 0.12135 0.1275 0.68391 0.0
H671 H 0.06406 0.13469 0.6519 0.0
C672 C 0.04043 0.15034 0.66391 0.0
C673 C 0.03839 0.15818 0.67536 0.0
C674 C 0.12219 0.12055 0.67515 0.0
C675 C 0.08517 0.14149 0.66891 0.0
C676 C 0.13829 0.1033 0.67274 0.0
C677 C 0.13896 0.09305 0.66153 0.0
C678 C 0.10622 0.12728 0.66631 0.0
C679 C 0.12404 0.10154 0.65284 0.0
C680 C 0.06387 0.14212 0.66065 0.0
C681 C 0.06188 0.15988 0.68312 0.0
N682 N 0.10789 0.11781 0.65543 0.0
N683 N 0.08394 0.15107 0.6798 0.0
H684 H 0.59422 0.45712 0.53964 0.0
H685 H 0.76901 0.49505 0.5167 0.0
H686 H 0.60967 0.4152 0.5091 0.0
H687 H 0.75306 0.52159 0.55045 0.0
H688 H 0.71225 0.47711 0.5119 0.0
H689 H 0.65355 0.49104 0.5419 0.0
C690 C 0.61006 0.45528 0.53335 0.0
C691 C 0.59701 0.43295 0.52426 0.0
C692 C 0.72128 0.48727 0.5203 0.0
C693 C 0.66473 0.47175 0.52676 0.0
C694 C 0.75375 0.49766 0.52305 0.0
C695 C 0.76563 0.50919 0.53409 0.0
C696 C 0.7005 0.48834 0.52866 0.0
C697 C 0.74481 0.51242 0.54189 0.0
C698 C 0.64389 0.47464 0.53464 0.0
C699 C 0.61866 0.43173 0.51633 0.0
N700 N 0.71307 0.50155 0.53909 0.0
N701 N 0.65144 0.45068 0.5178 0.0
H702 H 0.5268 0.29585 0.4916 0.0
H703 H 0.56316 0.16233 0.51848 0.0
H704 H 0.46806 0.22794 0.51805 0.0
H705 H 0.62514 0.23459 0.49364 0.0
H706 H 0.52234 0.17906 0.51575 0.0
H707 H 0.55609 0.26587 0.48925 0.0
C708 C 0.51955 0.27421 0.49675 0.0
C709 C 0.49542 0.26484 0.50522 0.0
C710 C 0.54472 0.19104 0.51081 0.0
C711 C 0.52926 0.23073 0.50269 0.0
C712 C 0.56811 0.18157 0.51239 0.0
C713 C 0.59788 0.19747 0.50641 0.0
C714 C 0.55115 0.21667 0.50324 0.0
C715 C 0.60274 0.22194 0.49854 0.0
C716 C 0.53643 0.25719 0.49543 0.0
C717 C 0.48679 0.23634 0.51152 0.0
N718 N 0.57977 0.23102 0.49727 0.0
N719 N 0.50413 0.22064 0.51028 0.0
H720 H 0.74252 0.25417 0.49503 0.0
H721 H 0.84699 0.3789 0.54479 0.0
H722 H 0.75486 0.22513 0.52883 0.0
H723 H 0.81257 0.40563 0.51468 0.0
H724 H 0.82596 0.32406 0.53688 0.0
H725 H 0.7817 0.31114 0.49991 0.0
C726 C 0.75423 0.25966 0.50335 0.0
C727 C 0.74515 0.23509 0.51162 0.0
C728 C 0.82335 0.34206 0.53196 0.0
C729 C 0.78943 0.2999 0.51727 0.0
C730 C 0.83528 0.37335 0.53647 0.0
C731 C 0.83097 0.39667 0.53048 0.0
C732 C 0.80711 0.33411 0.52137 0.0
C733 C 0.81593 0.38822 0.51969 0.0
C734 C 0.77632 0.29217 0.50616 0.0
C735 C 0.76091 0.2435 0.52228 0.0
N736 N 0.80427 0.35751 0.51552 0.0
N737 N 0.78197 0.27527 0.52486 0.0
H738 H 0.83296 0.39865 0.66877 0.0
H739 H 0.66971 0.22578 0.67002 0.0
H740 H 0.74872 0.37735 0.6894 0.0
H741 H 0.75829 0.24136 0.6536 0.0
H742 H 0.6998 0.28055 0.67813 0.0
H743 H 0.80843 0.34039 0.66451 0.0
C744 C 0.80964 0.38168 0.67261 0.0
C745 C 0.79262 0.39299 0.67931 0.0
C746 C 0.71277 0.27197 0.67282 0.0
C747 C 0.76421 0.3264 0.67429 0.0
C748 C 0.69553 0.24073 0.66812 0.0
C749 C 0.71144 0.22908 0.66102 0.0
C750 C 0.74615 0.29196 0.67033 0.0
C751 C 0.74501 0.24944 0.65897 0.0
C752 C 0.79557 0.34842 0.67012 0.0
C753 C 0.76256 0.36984 0.68408 0.0
N754 N 0.76121 0.28003 0.66352 0.0
N755 N 0.7491 0.33773 0.68133 0.0
H756 H 0.56658 0.40042 0.66748 0.0
H757 H 0.74834 0.52386 0.64642 0.0
H758 H 0.58922 0.44486 0.63396 0.0
H759 H 0.72327 0.45634 0.6746 0.0
H760 H 0.6903 0.50695 0.64426 0.0
H761 H 0.62394 0.43407 0.67281 0.0
C762 C 0.58345 0.41775 0.66131 0.0
C763 C 0.57323 0.4192 0.65015 0.0
C764 C 0.69765 0.49619 0.651 0.0
C765 C 0.63897 0.45751 0.65618 0.0
C766 C 0.73069 0.50579 0.65223 0.0
C767 C 0.74048 0.49103 0.66057 0.0
C768 C 0.67445 0.47201 0.65825 0.0
C769 C 0.71669 0.46791 0.66792 0.0
C770 C 0.61624 0.43685 0.66435 0.0
C771 C 0.59613 0.44253 0.64259 0.0
N772 N 0.68477 0.45898 0.66655 0.0
N773 N 0.62812 0.46039 0.64568 0.0
H774 H 0.53305 0.10874 0.65264 0.0
H775 H 0.53057 0.2711 0.66575 0.0
H776 H 0.58277 0.17118 0.68149 0.0
H777 H 0.46258 0.19775 0.64239 0.0
H778 H 0.54615 0.23215 0.67277 0.0
H779 H 0.5017 0.1367 0.65026 0.0
C780 C 0.53678 0.12774 0.65867 0.0
C781 C 0.56117 0.13816 0.66711 0.0
C782 C 0.52755 0.22439 0.6662 0.0
C783 C 0.52589 0.1707 0.66426 0.0
C784 C 0.51883 0.24674 0.66212 0.0
C785 C 0.49563 0.23781 0.65334 0.0
C786 C 0.51334 0.19301 0.66135 0.0
C787 C 0.48083 0.20574 0.64909 0.0
C788 C 0.51896 0.14381 0.65726 0.0
C789 C 0.56464 0.16265 0.67474 0.0
N790 N 0.49028 0.18462 0.65302 0.0
N791 N 0.54776 0.1786 0.67297 0.0
H792 H 0.75622 0.25745 0.17335 0.0
H793 H 0.60228 0.15286 0.13268 0.0
H794 H 0.76019 0.25858 0.13643 0.0
H795 H 0.594 0.16744 0.16873 0.0
H796 H 0.66164 0.18156 0.13466 0.0
H797 H 0.69825 0.21564 0.17238 0.0
C798 C 0.74498 0.24875 0.16505 0.0
C799 C 0.76294 0.26183 0.15495 0.0
C800 C 0.64682 0.17811 0.14217 0.0
C801 C 0.69685 0.21391 0.1538 0.0
C802 C 0.61288 0.16156 0.14106 0.0
C803 C 0.59313 0.15826 0.15051 0.0
C804 C 0.66113 0.19147 0.1528 0.0
C805 C 0.60829 0.16978 0.16118 0.0
C806 C 0.71193 0.22489 0.16451 0.0
C807 C 0.74719 0.24951 0.14443 0.0
N808 N 0.64145 0.18628 0.16201 0.0
N809 N 0.71502 0.22637 0.14413 0.0
H810 H 0.83751 0.4084 0.16556 0.0
H811 H 0.77361 0.50495 0.12857 0.0
H812 H 0.88248 0.45646 0.13377 0.0
H813 H 0.74695 0.47996 0.164 0.0
H814 H 0.81623 0.49043 0.13081 0.0
H815 H 0.80775 0.43837 0.16602 0.0
C816 C 0.84167 0.42577 0.1588 0.0
C817 C 0.86205 0.42948 0.1495 0.0
C818 C 0.80132 0.48848 0.13814 0.0
C819 C 0.8276 0.46333 0.14986 0.0
C820 C 0.77684 0.49656 0.13684 0.0
C821 C 0.75643 0.49324 0.14607 0.0
C822 C 0.80511 0.47652 0.1487 0.0
C823 C 0.76197 0.48265 0.15663 0.0
C824 C 0.8246 0.44283 0.15905 0.0
C825 C 0.86673 0.45254 0.14104 0.0
N826 N 0.78551 0.47424 0.15762 0.0
N827 N 0.84911 0.46811 0.1413 0.0
H828 H 0.53902 0.26 0.16162 0.0
H829 H 0.57477 0.40647 0.11895 0.0
H830 H 0.53651 0.25218 0.1248 0.0
H831 H 0.61393 0.42254 0.15325 0.0
H832 H 0.54689 0.34762 0.12235 0.0
H833 H 0.55423 0.31772 0.15977 0.0
C834 C 0.54147 0.27038 0.15316 0.0
C835 C 0.53694 0.25149 0.14334 0.0
C836 C 0.56124 0.36408 0.12917 0.0
C837 C 0.55362 0.31692 0.14119 0.0
C838 C 0.57701 0.3977 0.12727 0.0
C839 C 0.59719 0.41946 0.13576 0.0
C840 C 0.56548 0.35216 0.13965 0.0
C841 C 0.59897 0.40661 0.14641 0.0
C842 C 0.55011 0.30321 0.15213 0.0
C843 C 0.54026 0.26601 0.13259 0.0
N844 N 0.58358 0.37371 0.14802 0.0
N845 N 0.54841 0.29788 0.1318 0.0
H846 H 0.60595 0.37554 -0.00202 0.0
H847 H 0.44416 0.23057 0.02425 0.0
H848 H 0.52667 0.38947 0.00923 0.0
H849 H 0.51042 0.21622 0.00281 0.0
H850 H 0.47169 0.28811 0.01836 0.0
H851 H 0.57011 0.3166 -0.00045 0.0
C852 C 0.58092 0.36615 0.00075 0.0
C853 C 0.56933 0.38739 0.00357 0.0
C854 C 0.47975 0.27215 0.0148 0.0
C855 C 0.52811 0.31986 0.00544 0.0
C856 C 0.46399 0.23929 0.01813 0.0
C857 C 0.47539 0.21871 0.01418 0.0
C858 C 0.50718 0.28436 0.00758 0.0
C859 C 0.50114 0.23131 0.00624 0.0
C860 C 0.56037 0.33247 0.00157 0.0
C861 C 0.53657 0.37388 0.007 0.0
N862 N 0.51647 0.2634 0.00335 0.0
N863 N 0.51716 0.3409 0.00799 0.0
H864 H 0.74807 0.24782 -3e-05 0.0
H865 H 0.58515 0.15983 0.03671 0.0
H866 H 0.74514 0.21598 0.03481 0.0
H867 H 0.58546 0.17089 2e-05 0.0
H868 H 0.64362 0.17838 0.03602 0.0
H869 H 0.68837 0.21684 -0.00057 0.0
C870 C 0.73491 0.23385 0.00744 0.0
C871 C 0.75163 0.23487 0.0175 0.0
C872 C 0.63083 0.17646 0.02811 0.0
C873 C 0.68332 0.19987 0.01701 0.0
C874 C 0.59749 0.16605 0.02851 0.0
C875 C 0.58049 0.16414 0.01842 0.0
C876 C 0.64735 0.18537 0.01757 0.0
C877 C 0.59764 0.1722 0.00802 0.0
C878 C 0.70081 0.21623 0.00713 0.0
C879 C 0.7333 0.21614 0.0269 0.0
N880 N 0.6302 0.18278 0.00788 0.0
N881 N 0.70011 0.19984 0.02649 0.0
H882 H 0.83047 0.41164 0.02015 0.0
H883 H 0.72619 0.46628 0.98308 0.0
H884 H 0.80345 0.3812 0.9851 0.0
H885 H 0.77518 0.51496 0.01431 0.0
H886 H 0.75826 0.43867 0.98272 0.0
H887 H 0.81349 0.45237 0.01762 0.0
C888 C 0.82112 0.41364 0.0119 0.0
C889 C 0.81796 0.39272 0.00286 0.0
C890 C 0.76245 0.45587 0.98954 0.0
C891 C 0.79843 0.43923 -9e-05 0.0
C892 C 0.7442 0.47172 0.98973 0.0
C893 C 0.74757 0.4925 -0.00115 0.0
C894 C 0.78383 0.46049 -0.00138 0.0
C895 C 0.77148 0.49886 0.00718 0.0
C896 C 0.81162 0.43705 0.01044 0.0
C897 C 0.80606 0.39666 0.99232 0.0
N898 N 0.78823 0.48239 0.00699 0.0
N899 N 0.79632 0.41916 0.99118 0.0
H900 H 0.29677 0.81751 0.84724 0.0
H901 H 0.43205 0.79133 0.81591 0.0
H902 H 0.27702 0.72855 0.83003 0.0
H903 H 0.45424 0.87204 0.83856 0.0
H904 H 0.37422 0.77502 0.81689 0.0
H905 H 0.35325 0.84355 0.84047 0.0
C906 C 0.30423 0.8035 0.84198 0.0
C907 C 0.28227 0.77063 0.83935 0.0
C908 C 0.39183 0.79668 0.82147 0.0
C909 C 0.34679 0.80039 0.83151 0.0
C910 C 0.42494 0.80621 0.82083 0.0
C911 C 0.44796 0.83271 0.82736 0.0
C912 C 0.38177 0.81382 0.82866 0.0
C913 C 0.43725 0.85112 0.83354 0.0
C914 C 0.33646 0.81843 0.83809 0.0
C915 C 0.29323 0.7538 0.8324 0.0
N916 N 0.40485 0.841 0.83419 0.0
N917 N 0.32479 0.7688 0.82879 0.0
H918 H 0.16291 0.61107 0.82718 0.0
H919 H 0.18496 0.48654 0.86429 0.0
H920 H 0.11262 0.57366 0.85926 0.0
H921 H 0.21016 0.50167 0.82845 0.0
H922 H 0.15128 0.51188 0.86166 0.0
H923 H 0.17251 0.56494 0.82609 0.0
C924 C 0.15316 0.59268 0.83385 0.0
C925 C 0.13768 0.59662 0.84346 0.0
C926 C 0.16363 0.5091 0.85431 0.0
C927 C 0.1492 0.54421 0.84241 0.0
C928 C 0.18301 0.49478 0.85583 0.0
C929 C 0.20092 0.49267 0.84663 0.0
C930 C 0.16272 0.52201 0.84357 0.0
C931 C 0.19709 0.50323 0.83581 0.0
C932 C 0.15866 0.56633 0.83323 0.0
C933 C 0.12513 0.57186 0.85177 0.0
N934 N 0.17896 0.5181 0.83462 0.0
N935 N 0.13192 0.54712 0.85121 0.0
H936 H 0.32867 0.56387 0.84009 0.0
H937 H 0.49319 0.73142 0.85297 0.0
H938 H 0.40439 0.56974 0.86242 0.0
H939 H 0.40315 0.72543 0.8418 0.0
H940 H 0.4659 0.67157 0.85284 0.0
H941 H 0.36164 0.62247 0.83658 0.0
C942 C 0.35248 0.57733 0.84411 0.0
C943 C 0.36355 0.56194 0.85173 0.0
C944 C 0.45224 0.68344 0.85037 0.0
C945 C 0.40125 0.62908 0.84776 0.0
C946 C 0.46773 0.71752 0.85045 0.0
C947 C 0.45026 0.73334 0.84751 0.0
C948 C 0.41923 0.66517 0.84717 0.0
C949 C 0.4174 0.7142 0.84426 0.0
C950 C 0.37117 0.61084 0.84214 0.0
C951 C 0.39474 0.58067 0.85659 0.0
N952 N 0.40294 0.68109 0.84418 0.0
N953 N 0.41242 0.6134 0.85462 0.0
H954 H 0.46446 0.6113 0.97726 0.0
H955 H 0.45325 0.75502 0.00913 0.0
H956 H 0.39397 0.59667 0.00346 0.0
H957 H 0.50542 0.76818 0.97744 0.0
H958 H 0.44306 0.69907 0.0102 0.0
H959 H 0.49004 0.6705 0.98009 0.0
C960 C 0.45458 0.62051 0.98369 0.0
C961 C 0.42675 0.59909 0.99001 0.0
C962 C 0.45718 0.71439 0.0031 0.0
C963 C 0.45601 0.66655 0.99335 0.0
C964 C 0.46319 0.74643 0.00252 0.0
C965 C 0.47959 0.76609 0.99304 0.0
C966 C 0.4677 0.70198 0.99417 0.0
C967 C 0.49217 0.75368 0.9848 0.0
C968 C 0.46919 0.65425 0.98529 0.0
C969 C 0.41509 0.61232 -0.00173 0.0
N970 N 0.48553 0.72221 0.98546 0.0
N971 N 0.42966 0.6452 -0.00035 0.0
H972 H 0.19272 0.7245 0.98155 0.0
H973 H 0.37612 0.77584 0.99482 0.0
H974 H 0.22122 0.67987 0.00802 0.0
H975 H 0.3494 0.83331 0.97339 0.0
H976 H 0.31956 0.74403 0.00122 0.0
H977 H 0.24928 0.76898 0.98029 0.0
C978 C 0.21068 0.72445 0.98731 0.0
C979 C 0.20233 0.69798 0.99471 0.0
C980 C 0.32606 0.76381 0.99521 0.0
C981 C 0.26722 0.74848 0.99315 0.0
C982 C 0.35835 0.78185 0.99149 0.0
C983 C 0.36738 0.80693 0.98342 0.0
C984 C 0.30244 0.77054 0.99072 0.0
C985 C 0.34342 0.81397 0.97954 0.0
C986 C 0.24305 0.74982 0.98655 0.0
C987 C 0.22658 0.69946 0.00205 0.0
N988 N 0.31192 0.79554 0.9831 0.0
N989 N 0.25806 0.72389 0.00091 0.0
H990 H 0.20442 0.59919 0.99351 0.0
H991 H 0.25034 0.45934 0.99093 0.0
H992 H 0.14345 0.50707 0.9765 0.0
H993 H 0.29497 0.54075 0.0144 0.0
H994 H 0.20853 0.47377 0.9865 0.0
H995 H 0.23672 0.57692 0.00166 0.0
C996 C 0.19786 0.57427 0.99146 0.0
C997 C 0.17137 0.55505 0.98421 0.0
C998 C 0.22713 0.4881 0.99277 0.0
C999 C 0.20825 0.5293 0.99359 0.0
C1000 C 0.25094 0.47978 0.99536 0.0
C1001 C 0.2766 0.49924 0.0029 0.0
C1002 C 0.22922 0.51623 -0.00233 0.0
C1003 C 0.27594 0.52528 0.00843 0.0
C1004 C 0.21616 0.56146 0.99621 0.0
C1005 C 0.16379 0.52279 0.98198 0.0
N1006 N 0.25302 0.53338 0.00554 0.0
N1007 N 0.18235 0.51101 0.98657 0.0
H1008 H 0.2326 0.54424 0.4919 0.0
H1009 H 0.38035 0.5835 0.45098 0.0
H1010 H 0.21884 0.5038 0.45789 0.0
H1011 H 0.39116 0.59267 0.4877 0.0
H1012 H 0.32093 0.55323 0.45336 0.0
H1013 H 0.29045 0.56033 0.49086 0.0
C1014 C 0.24162 0.53819 0.48431 0.0
C1015 C 0.22098 0.523 0.47492 0.0
C1016 C 0.33633 0.56153 0.4609 0.0
C1017 C 0.28717 0.54194 0.47358 0.0
C1018 C 0.37023 0.57898 0.45954 0.0
C1019 C 0.3907 0.59091 0.46914 0.0
C1020 C 0.32285 0.55647 0.47193 0.0
C1021 C 0.37628 0.58407 0.48005 0.0
C1022 C 0.27464 0.5474 0.48371 0.0
C1023 C 0.23391 0.5156 0.46531 0.0
N1024 N 0.34322 0.56768 0.48114 0.0
N1025 N 0.26634 0.5257 0.46479 0.0
H1026 H 0.52104 0.76318 0.46003 0.0
H1027 H 0.41725 0.82588 0.46372 0.0
H1028 H 0.48474 0.72502 0.49378 0.0
H1029 H 0.42995 0.82654 0.50033 0.0
H1030 H 0.45057 0.80014 0.46145 0.0
H1031 H 0.49913 0.80002 0.462 0.0
C1032 C 0.50874 0.76275 0.46791 0.0
C1033 C 0.50408 0.74044 0.47665 0.0
C1034 C 0.44675 0.80656 0.46997 0.0
C1035 C 0.47798 0.78178 0.47879 0.0
C1036 C 0.42729 0.82084 0.47128 0.0
C1037 C 0.42079 0.82832 0.48223 0.0
C1038 C 0.45974 0.79958 0.47968 0.0
C1039 C 0.43441 0.82121 0.49172 0.0
C1040 C 0.49583 0.7835 0.46895 0.0
C1041 C 0.48845 0.74144 0.48674 0.0
N1042 N 0.45297 0.80689 0.49024 0.0
N1043 N 0.47564 0.76153 0.48749 0.0
H1044 H 0.29637 0.80481 0.50567 0.0
H1045 H 0.18625 0.63894 0.50949 0.0
H1046 H 0.23428 0.80647 0.47887 0.0
H1047 H 0.17251 0.65225 0.47377 0.0
H1048 H 0.21015 0.69789 0.51244 0.0
H1049 H 0.25759 0.747 0.50877 0.0
C1050 C 0.27396 0.79326 0.50072 0.0
C1051 C 0.26876 0.81031 0.49189 0.0
C1052 C 0.20191 0.68787 0.50397 0.0
C1053 C 0.22434 0.74409 0.49531 0.0
C1054 C 0.18813 0.65423 0.50228 0.0
C1055 C 0.17809 0.64083 0.49131 0.0
C1056 C 0.20549 0.70807 0.49461 0.0
C1057 C 0.18058 0.66165 0.48232 0.0
C1058 C 0.25171 0.7602 0.50252 0.0
C1059 C 0.23936 0.79421 0.48573 0.0
N1060 N 0.1942 0.69426 0.48417 0.0
N1061 N 0.21868 0.76172 0.48733 0.0
H1062 H 0.23071 0.71808 0.37055 0.0
H1063 H 0.16986 0.57394 0.32707 0.0
H1064 H 0.25348 0.73657 0.3346 0.0
H1065 H 0.11566 0.56694 0.35769 0.0
H1066 H 0.19973 0.63352 0.32905 0.0
H1067 H 0.18842 0.66218 0.36592 0.0
C1068 C 0.22672 0.71038 0.36168 0.0
C1069 C 0.24578 0.73181 0.35295 0.0
C1070 C 0.18073 0.61895 0.33517 0.0
C1071 C 0.19761 0.66802 0.3476 0.0
C1072 C 0.16362 0.58499 0.33402 0.0
C1073 C 0.14055 0.56547 0.3423 0.0
C1074 C 0.17517 0.63328 0.34479 0.0
C1075 C 0.13336 0.58102 0.35114 0.0
C1076 C 0.2024 0.67861 0.35903 0.0
C1077 C 0.23936 0.72073 0.34159 0.0
N1078 N 0.15118 0.614 0.35231 0.0
N1079 N 0.21612 0.68938 0.33924 0.0
H1080 H 0.2424 0.48433 0.35491 0.0
H1081 H 0.41602 0.58943 0.32671 0.0
H1082 H 0.25518 0.51934 0.32012 0.0
H1083 H 0.39978 0.53482 0.35802 0.0
H1084 H 0.35731 0.55887 0.32293 0.0
H1085 H 0.29949 0.49807 0.35532 0.0
C1086 C 0.25721 0.49474 0.34732 0.0
C1087 C 0.2442 0.5012 0.33752 0.0
C1088 C 0.36665 0.55311 0.33051 0.0
C1089 C 0.30971 0.51715 0.33794 0.0
C1090 C 0.40021 0.57051 0.33267 0.0
C1091 C 0.41275 0.56519 0.34283 0.0
C1092 C 0.34552 0.53055 0.33865 0.0
C1093 C 0.39116 0.54011 0.35016 0.0
C1094 C 0.28978 0.5024 0.34753 0.0
C1095 C 0.26434 0.51423 0.32788 0.0
N1096 N 0.35852 0.52419 0.34804 0.0
N1097 N 0.29629 0.52228 0.32839 0.0
H1098 H 0.38597 0.8085 0.33506 0.0
H1099 H 0.52216 0.77777 0.3637 0.0
H1100 H 0.43674 0.85694 0.3661 0.0
H1101 H 0.44633 0.70985 0.34103 0.0
H1102 H 0.49974 0.81466 0.36203 0.0
H1103 H 0.41805 0.78104 0.33419 0.0
C1104 C 0.40428 0.81387 0.34158 0.0
C1105 C 0.40827 0.83467 0.35078 0.0
C1106 C 0.4882 0.79173 0.3574 0.0
C1107 C 0.44487 0.80304 0.34985 0.0
C1108 C 0.50092 0.7707 0.35834 0.0
C1109 C 0.48585 0.74057 0.35259 0.0
C1110 C 0.46061 0.78273 0.35051 0.0
C1111 C 0.45848 0.73265 0.34573 0.0
C1112 C 0.42243 0.79799 0.34111 0.0
C1113 C 0.43257 0.84081 0.35893 0.0
N1114 N 0.44676 0.7536 0.34488 0.0
N1115 N 0.44976 0.82477 0.35835 0.0
H1116 H 0.21691 0.21337 0.26944 0.0
H1117 H 0.14189 0.19594 0.20676 0.0
H1118 H 0.11993 0.19686 0.26252 0.0
H1119 H 0.23144 0.19522 0.21363 0.0
H1120 H 0.13875 0.20722 0.22695 0.0
H1121 H 0.22742 0.21708 0.24883 0.0
C1122 C 0.19795 0.21083 0.2636 0.0
C1123 C 0.16735 0.20434 0.26769 0.0
C1124 C 0.15927 0.20492 0.22402 0.0
C1125 C 0.17922 0.20865 0.24416 0.0
C1126 C 0.16114 0.19858 0.21248 0.0
C1127 C 0.1867 0.19412 0.20854 0.0
C1128 C 0.18311 0.2068 0.23167 0.0
C1129 C 0.21108 0.19808 0.21633 0.0
C1130 C 0.20395 0.21292 0.25184 0.0
C1131 C 0.14374 0.20145 0.25974 0.0
N1132 N 0.2085 0.20386 0.22756 0.0
N1133 N 0.1501 0.20342 0.24836 0.0
H1134 H 0.83398 0.04166 0.21485 0.0
H1135 H 0.84337 0.94782 0.2704 0.0
H1136 H 0.88398 0.98608 0.21524 0.0
H1137 H 0.77309 0.98016 0.26615 0.0
H1138 H 0.86325 0.96663 0.25097 0.0
H1139 H 0.81688 0.02509 0.2346 0.0
C1140 C 0.84162 0.02621 0.21912 0.0
C1141 C 0.86033 0.01512 0.21336 0.0
C1142 C 0.84343 0.96951 0.25429 0.0
C1143 C 0.84071 -0.00403 0.23596 0.0
C1144 C 0.83207 0.95879 0.26537 0.0
C1145 C 0.80646 0.96233 0.26989 0.0
C1146 C 0.82933 0.98421 0.24774 0.0
C1147 C 0.79276 0.97676 0.263 0.0
C1148 C 0.83168 0.0166 0.23037 0.0
C1149 C 0.86945 0.99509 0.21933 0.0
N1150 N 0.80446 0.98729 0.25229 0.0
N1151 N 0.85952 0.98612 0.23031 0.0
H1152 H 0.94812 0.83891 0.29199 0.0
H1153 H 0.97011 0.75945 0.23461 0.0
H1154 H 0.00976 0.79565 0.28969 0.0
H1155 H 0.91914 0.81398 0.23626 0.0
H1156 H 0.98039 0.7675 0.25519 0.0
H1157 H 0.93304 0.82522 0.27196 0.0
C1158 C 0.95845 0.82645 0.28728 0.0
C1159 C 0.98039 0.81858 0.29251 0.0
C1160 C 0.96683 0.77756 0.25105 0.0
C1161 C 0.96316 0.80278 0.26954 0.0
C1162 C 0.96085 0.77289 0.23931 0.0
C1163 C 0.9439 0.78624 0.2337 0.0
C1164 C 0.95567 0.79561 0.25722 0.0
C1165 C 0.93247 0.80342 0.24022 0.0
C1166 C 0.94982 0.81864 0.27583 0.0
C1167 C 0.99287 0.80232 0.28598 0.0
N1168 N 0.93867 0.8077 0.25162 0.0
N1169 N 0.98413 0.79501 0.27482 0.0
H1170 H 0.91192 0.88615 0.71091 0.0
H1171 H 0.81082 0.80136 0.76778 0.0
H1172 H 0.83697 0.78444 0.71292 0.0
H1173 H 0.8979 0.89661 0.76749 0.0
H1174 H 0.81853 0.79575 0.74742 0.0
H1175 H 0.906 0.89143 0.73147 0.0
C1176 C 0.89436 0.8649 0.71568 0.0
C1177 C 0.87491 0.83482 0.71019 0.0
C1178 C 0.836 0.81785 0.75181 0.0
C1179 C 0.86783 0.84076 0.73366 0.0
C1180 C 0.83154 0.82111 0.76343 0.0
C1181 C 0.85373 0.84951 0.76934 0.0
C1182 C 0.8627 0.84326 0.74604 0.0
C1183 C 0.88021 0.87428 0.76327 0.0
C1184 C 0.89099 0.86793 0.72741 0.0
C1185 C 0.85252 0.80811 0.71679 0.0
N1186 N 0.8839 0.87062 0.75194 0.0
N1187 N 0.84948 0.81175 0.72817 0.0
H1188 H 0.21436 0.02377 0.76139 0.0
H1189 H 0.1664 0.97201 0.69597 0.0
H1190 H 0.13655 0.92889 0.75078 0.0
H1191 H 0.22813 0.07171 0.70714 0.0
H1192 H 0.16224 0.95377 0.71579 0.0
H1193 H 0.22665 0.03949 0.74129 0.0
C1194 C 0.20007 0.00612 0.75484 0.0
C1195 C 0.17417 0.97506 0.75776 0.0
C1196 C 0.17686 0.97961 0.71388 0.0
C1197 C 0.1881 0.99294 0.73478 0.0
C1198 C 0.17932 0.99004 0.70257 0.0
C1199 C 0.19737 0.02348 0.69991 0.0
C1200 C 0.1927 0.00276 0.72259 0.0
C1201 C 0.2137 0.04573 0.70881 0.0
C1202 C 0.20705 0.01515 0.74337 0.0
C1203 C 0.15654 0.95319 0.74892 0.0
N1204 N 0.21084 0.03498 0.71976 0.0
N1205 N 0.16372 0.9626 0.73782 0.0
H1206 H 0.97353 0.19059 0.71359 0.0
H1207 H 0.91945 0.10692 0.77425 0.0
H1208 H 0.87778 0.10751 0.71988 0.0
H1209 H -0.00336 0.20706 0.77029 0.0
H1210 H 0.90386 0.10663 0.75431 0.0
H1211 H 0.98279 0.19751 0.73425 0.0
C1212 C 0.95432 0.17402 0.71932 0.0
C1213 C 0.92494 0.14826 0.71502 0.0
C1214 C 0.92395 0.1288 0.75783 0.0
C1215 C 0.93554 0.15581 0.73861 0.0
C1216 C 0.93296 0.12894 0.76919 0.0
C1217 C 0.95953 0.15697 0.77388 0.0
C1218 C 0.94205 0.1567 0.75104 0.0
C1219 C 0.97601 0.18492 0.76699 0.0
C1220 C 0.95959 0.17805 0.7311 0.0
C1221 C 0.90082 0.12764 0.72282 0.0
N1222 N 0.9673 0.18394 0.75584 0.0
N1223 N 0.90684 0.13158 0.73425 0.0
H1224 H 0.89233 0.56093 0.57763 0.0
H1225 H 0.81026 0.42945 0.62793 0.0
H1226 H 0.82983 0.45718 0.57224 0.0
H1227 H 0.87297 0.5328 0.63405 0.0
H1228 H 0.81996 0.43925 0.60747 0.0
H1229 H 0.88799 0.55131 0.59832 0.0
C1230 C 0.87778 0.53616 0.58079 0.0
C1231 C 0.86128 0.50985 0.5732 0.0
C1232 C 0.83177 0.45981 0.61327 0.0
C1233 C 0.85627 0.49869 0.5968 0.0
C1234 C 0.82625 0.45421 0.62498 0.0
C1235 C 0.84068 0.48037 0.63271 0.0
C1236 C 0.85175 0.49183 0.60924 0.0
C1237 C 0.8613 0.51192 0.62839 0.0
C1238 C 0.87534 0.53068 0.59259 0.0
C1239 C 0.84285 0.47825 0.57776 0.0
N1240 N 0.86607 0.51681 0.61692 0.0
N1241 N 0.84078 0.47359 0.58924 0.0
H1242 H 0.53206 0.31458 0.55328 0.0
H1243 H 0.43176 0.32906 0.60597 0.0
H1244 H 0.45417 0.33663 0.54924 0.0
H1245 H 0.51685 0.31809 0.60952 0.0
H1246 H 0.43633 0.32735 0.58515 0.0
H1247 H 0.52309 0.31054 0.57389 0.0
C1248 C 0.51289 0.31834 0.55671 0.0
C1249 C 0.49397 0.32616 0.54953 0.0
C1250 C 0.45394 0.32526 0.5905 0.0
C1251 C 0.48369 0.32177 0.57317 0.0
C1252 C 0.45136 0.32625 0.60238 0.0
C1253 C 0.47405 0.32388 0.6095 0.0
C1254 C 0.47931 0.32175 0.58572 0.0
C1255 C 0.4989 0.32018 0.60437 0.0
C1256 C 0.50784 0.31612 0.5685 0.0
C1257 C 0.4694 0.33066 0.55447 0.0
N1258 N 0.50086 0.31926 0.59281 0.0
N1259 N 0.46507 0.32856 0.56601 0.0
H1260 H 0.64159 0.11717 0.55708 0.0
H1261 H 0.62186 0.19542 0.61519 0.0
H1262 H 0.63995 0.20771 0.55865 0.0
H1263 H 0.63801 0.11312 0.61423 0.0
H1264 H 0.62425 0.19777 0.59432 0.0
H1265 H 0.63616 0.11277 0.57792 0.0
C1266 C 0.64001 0.13607 0.5618 0.0
C1267 C 0.64133 0.16291 0.55612 0.0
C1268 C 0.62724 0.17917 0.59868 0.0
C1269 C 0.63508 0.158 0.57993 0.0
C1270 C 0.62582 0.17778 0.61059 0.0
C1271 C 0.62983 0.1541 0.61647 0.0
C1272 C 0.63259 0.15664 0.59257 0.0
C1273 C 0.63488 0.13186 0.61006 0.0
C1274 C 0.63697 0.13357 0.57369 0.0
C1275 C 0.63916 0.18667 0.56267 0.0
N1276 N 0.63613 0.13368 0.59845 0.0
N1277 N 0.63614 0.18365 0.57422 0.0
H1278 H 0.45253 0.09889 0.06159 0.0
H1279 H 0.44041 0.17608 0.12085 0.0
H1280 H 0.4685 0.19694 0.06464 0.0
H1281 H 0.46947 0.10288 0.1185 0.0
H1282 H 0.43541 0.17524 0.1 0.0
H1283 H 0.44362 0.09186 0.08228 0.0
C1284 C 0.45367 0.11876 0.06658 0.0
C1285 C 0.4616 0.1487 0.06143 0.0
C1286 C 0.44246 0.15909 0.10408 0.0
C1287 C 0.45121 0.14065 0.085 0.0
C1288 C 0.44515 0.15938 0.11597 0.0
C1289 C 0.45566 0.1397 0.12139 0.0
C1290 C 0.44986 0.13863 0.09761 0.0
C1291 C 0.46159 0.11864 0.11464 0.0
C1292 C 0.44872 0.11475 0.07837 0.0
C1293 C 0.46279 0.17361 0.0683 0.0
N1294 N 0.45872 0.11874 0.10307 0.0
N1295 N 0.45775 0.16907 0.07976 0.0
H1296 H 0.85339 0.29141 0.05042 0.0
H1297 H 0.89329 0.38023 0.11132 0.0
H1298 H 0.89237 0.39523 0.05472 0.0
H1299 H 0.84943 0.27583 0.1069 0.0
H1300 H 0.89888 0.38701 0.09058 0.0
H1301 H 0.85751 0.28614 0.07103 0.0
C1302 C 0.86305 0.31316 0.05569 0.0
C1303 C 0.87227 0.34378 0.05085 0.0
C1304 C 0.88824 0.36264 0.09415 0.0
C1305 C 0.87693 0.33787 0.07448 0.0
C1306 C 0.88508 0.35874 0.106 0.0
C1307 C 0.87058 0.32737 0.11084 0.0
C1308 C 0.8768 0.33497 0.0871 0.0
C1309 C 0.86052 0.30045 0.10353 0.0
C1310 C 0.86537 0.31012 0.06747 0.0
C1311 C 0.88478 0.37111 0.05809 0.0
N1312 N 0.86363 0.30486 0.09202 0.0
N1313 N 0.88652 0.36747 0.06956 0.0
H1314 H 0.63993 0.51421 0.09999 0.0
H1315 H 0.70402 0.52478 0.03591 0.0
H1316 H 0.73888 0.53996 0.09134 0.0
H1317 H 0.60225 0.48521 0.04466 0.0
H1318 H 0.71844 0.53796 0.05603 0.0
H1319 H 0.62709 0.51108 0.07959 0.0
C1320 C 0.65905 0.51955 0.09381 0.0
C1321 C 0.69046 0.52706 0.09737 0.0
C1322 C 0.69296 0.52656 0.05354 0.0
C1323 C 0.67588 0.52341 0.07405 0.0
C1324 C 0.6847 0.51906 0.04205 0.0
C1325 C 0.65182 0.50356 0.03862 0.0
C1326 C 0.6682 0.51856 0.06167 0.0
C1327 C 0.62788 0.49691 0.04694 0.0
C1328 C 0.65167 0.51765 0.08217 0.0
C1329 C 0.71427 0.53379 0.08898 0.0
N1330 N 0.63653 0.50427 0.0581 0.0
N1331 N 0.70643 0.53162 0.07772 0.0
H1332 H 0.45038 0.84505 0.93914 0.0
H1333 H 0.55702 0.86711 0.88327 0.0
H1334 H 0.55138 0.86895 0.94034 0.0
H1335 H 0.45779 0.84879 0.8825 0.0
H1336 H 0.55678 0.87119 0.90413 0.0
H1337 H 0.45378 0.84914 0.91834 0.0
C1338 C 0.47332 0.85123 0.93503 0.0
C1339 C 0.50058 0.85644 0.94149 0.0
C1340 C 0.53516 0.86653 0.89938 0.0
C1341 C 0.50464 0.86115 0.91764 0.0
C1342 C 0.5353 0.86425 0.88747 0.0
C1343 C 0.50728 0.85733 0.88114 0.0
C1344 C 0.50677 0.86173 0.90498 0.0
C1345 C 0.47987 0.85395 0.88703 0.0
C1346 C 0.47527 0.85364 0.92314 0.0
C1347 C 0.52972 0.8646 0.9357 0.0
N1348 N 0.48023 0.85594 0.89862 0.0
N1349 N 0.53093 0.86652 0.92408 0.0
H1350 H 0.10471 0.62527 0.94096 0.0
H1351 H 0.21049 0.70213 0.88429 0.0
H1352 H 0.21024 0.6749 0.94031 0.0
H1353 H 0.10697 0.66771 0.88637 0.0
H1354 H 0.2107 0.6907 0.90465 0.0
H1355 H 0.10479 0.63848 0.92075 0.0
C1356 C 0.12791 0.63888 0.93656 0.0
C1357 C 0.15753 0.64899 0.94233 0.0
C1358 C 0.18797 0.68579 0.90067 0.0
C1359 C 0.15777 0.66421 0.9192 0.0
C1360 C 0.18782 0.6923 0.88904 0.0
C1361 C 0.15864 0.68581 0.88361 0.0
C1362 C 0.15868 0.67245 0.90692 0.0
C1363 C 0.13003 0.67313 0.8902 0.0
C1364 C 0.12793 0.64652 0.92503 0.0
C1365 C 0.18683 0.66663 0.9362 0.0
N1366 N 0.13073 0.6667 0.9015 0.0
N1367 N 0.1862 0.67362 0.92496 0.0
H1368 H 0.32644 0.43941 0.89631 0.0
H1369 H 0.30789 0.52706 0.95219 0.0
H1370 H 0.28264 0.50078 0.89651 0.0
H1371 H 0.35331 0.46717 0.95258 0.0
H1372 H 0.29865 0.51749 0.93168 0.0
H1373 H 0.33659 0.44891 0.9169 0.0
C1374 C 0.31894 0.45483 0.90067 0.0
C1375 C 0.30366 0.4693 0.89468 0.0
C1376 C 0.31067 0.50644 0.93624 0.0
C1377 C 0.31521 0.48029 0.91817 0.0
C1378 C 0.31596 0.51191 0.94796 0.0
C1379 C 0.33136 0.49787 0.95411 0.0
C1380 C 0.32081 0.48673 0.9306 0.0
C1381 C 0.34132 0.47847 0.94817 0.0
C1382 C 0.32476 0.46027 0.91241 0.0
C1383 C 0.29449 0.48909 0.90076 0.0
N1384 N 0.33583 0.47343 0.93674 0.0
N1385 N 0.3004 0.49398 0.91215 0.0
H1386 H 0.11354 0.50663 0.44078 0.0
H1387 H 0.20007 0.5739 0.38017 0.0
H1388 H 0.20126 0.59993 0.4359 0.0
H1389 H 0.11859 0.4763 0.38514 0.0
H1390 H 0.19769 0.58535 0.40035 0.0
H1391 H 0.11185 0.49664 0.42019 0.0
C1392 C 0.13232 0.5251 0.43537 0.0
C1393 C 0.15768 0.5541 0.44006 0.0
C1394 C 0.18027 0.56143 0.39704 0.0
C1395 C 0.1559 0.5428 0.41654 0.0
C1396 C 0.18161 0.55486 0.38551 0.0
C1397 C 0.15963 0.52401 0.38099 0.0
C1398 C 0.15677 0.53699 0.40414 0.0
C1399 C 0.13611 0.50038 0.3883 0.0
C1400 C 0.13137 0.51934 0.42363 0.0
C1401 C 0.18135 0.57717 0.43266 0.0
N1402 N 0.13536 0.50733 0.39954 0.0
N1403 N 0.17992 0.57097 0.42128 0.0
H1404 H 0.57508 0.70029 0.38757 0.0
H1405 H 0.48063 0.57523 0.43862 0.0
H1406 H 0.48873 0.60581 0.38286 0.0
H1407 H 0.54829 0.67814 0.44367 0.0
H1408 H 0.4917 0.58261 0.41807 0.0
H1409 H 0.57358 0.68884 0.40806 0.0
C1410 C 0.55605 0.67699 0.39082 0.0
C1411 C 0.53175 0.65412 0.38353 0.0
C1412 C 0.50434 0.60349 0.4237 0.0
C1413 C 0.52997 0.6409 0.4069 0.0
C1414 C 0.49814 0.59928 0.43544 0.0
C1415 C 0.51326 0.62619 0.44285 0.0
C1416 C 0.52597 0.63477 0.41938 0.0
C1417 C 0.5358 0.65678 0.43824 0.0
C1418 C 0.55516 0.67053 0.40251 0.0
C1419 C 0.50772 0.6243 0.3882 0.0
N1420 N 0.54132 0.66028 0.42679 0.0
N1421 N 0.50734 0.61862 0.3996 0.0
H1422 H 0.35567 0.90003 0.44218 0.0
H1423 H 0.2431 0.8078 0.38826 0.0
H1424 H 0.27084 0.80346 0.44447 0.0
H1425 H 0.34573 0.87948 0.3857 0.0
H1426 H 0.24708 0.81359 0.40915 0.0
H1427 H 0.34588 0.90039 0.42166 0.0
C1428 C 0.33471 0.87908 0.4384 0.0
C1429 C 0.31422 0.85149 0.44501 0.0
C1430 C 0.26859 0.82822 0.40398 0.0
C1431 C 0.30292 0.85189 0.42158 0.0
C1432 C 0.26634 0.82505 0.39208 0.0
C1433 C 0.29422 0.84302 0.38528 0.0
C1434 C 0.29878 0.8499 0.40903 0.0
C1435 C 0.32374 0.86495 0.39066 0.0
C1436 C 0.32926 0.87928 0.42669 0.0
C1437 C 0.28743 0.82507 0.43966 0.0
N1438 N 0.32526 0.86777 0.40223 0.0
N1439 N 0.2826 0.82585 0.42822 0.0
H1440 H 0.27366 0.13264 0.16128 0.0
H1441 H 0.43164 0.13144 0.18297 0.0
H1442 H 0.30234 0.14782 0.19684 0.0
H1443 H 0.3783 0.07914 0.15281 0.0
H1444 H 0.3859 0.13927 0.18831 0.0
H1445 H 0.31489 0.11681 0.15762 0.0
C1446 C 0.28885 0.13295 0.16829 0.0
C1447 C 0.2847 0.14164 0.17937 0.0
C1448 C 0.38401 0.12556 0.18064 0.0
C1449 C 0.33154 0.1233 0.17527 0.0
C1450 C 0.40999 0.12094 0.17762 0.0
C1451 C 0.40883 0.10484 0.1674 0.0
C1452 C 0.35708 0.11455 0.17325 0.0
C1453 C 0.38023 0.09172 0.16077 0.0
C1454 C 0.31206 0.12354 0.16622 0.0
C1455 C 0.30479 0.14129 0.18817 0.0
N1456 N 0.35571 0.09742 0.1637 0.0
N1457 N 0.32751 0.13243 0.18592 0.0
H1458 H 0.84278 0.12451 0.17649 0.0
H1459 H 0.93466 0.28832 0.13937 0.0
H1460 H 0.89971 0.13414 0.14632 0.0
H1461 H 0.87629 0.27755 0.16925 0.0
H1462 H 0.92622 0.23359 0.14272 0.0
H1463 H 0.8566 0.18136 0.17434 0.0
C1464 C 0.85791 0.13847 0.16934 0.0
C1465 C 0.87009 0.12451 0.16157 0.0
C1466 C 0.91558 0.24337 0.14862 0.0
C1467 C 0.88646 0.18984 0.15916 0.0
C1468 C 0.92066 0.27477 0.14677 0.0
C1469 C 0.90581 0.28741 0.15395 0.0
C1470 C 0.89552 0.22452 0.15769 0.0
C1471 C 0.88795 0.26869 0.16342 0.0
C1472 C 0.86601 0.17103 0.16817 0.0
C1473 C 0.88968 0.14384 0.15249 0.0
N1474 N 0.88298 0.23804 0.16493 0.0
N1475 N 0.89735 0.17557 0.15156 0.0
H1476 H 0.82154 0.68676 0.20088 0.0
H1477 H 0.78172 0.63008 0.13572 0.0
H1478 H 0.89319 0.72347 0.17374 0.0
H1479 H 0.71408 0.57952 0.16328 0.0
H1480 H 0.82139 0.66711 0.1496 0.0
H1481 H 0.78116 0.64794 0.18742 0.0
C1482 C 0.82894 0.68633 0.19214 0.0
C1483 C 0.86072 0.70858 0.18841 0.0
C1484 C 0.79784 0.648 0.15263 0.0
C1485 C 0.81452 0.66475 0.17295 0.0
C1486 C 0.77503 0.627 0.14469 0.0
C1487 C 0.74459 0.60155 0.14836 0.0
C1488 C 0.79017 0.64363 0.16433 0.0
C1489 C 0.73727 0.59882 0.16009 0.0
C1490 C 0.80581 0.6643 0.18445 0.0
C1491 C 0.86895 0.70688 0.17699 0.0
N1492 N 0.76002 0.61954 0.16768 0.0
N1493 N 0.84589 0.68559 0.16965 0.0
H1494 H 0.13485 0.37061 0.35642 0.0
H1495 H 0.11109 0.28381 0.29575 0.0
H1496 H 0.10208 0.39768 0.32597 0.0
H1497 H 0.1436 0.25581 0.32605 0.0
H1498 H 0.10648 0.32485 0.30689 0.0
H1499 H 0.13476 0.32606 0.34582 0.0
C1500 C 0.12711 0.36687 0.34756 0.0
C1501 C 0.1188 0.38812 0.34203 0.0
C1502 C 0.11471 0.30981 0.31111 0.0
C1503 C 0.11917 0.33756 0.32983 0.0
C1504 C 0.11755 0.2865 0.30473 0.0
C1505 C 0.12776 0.26638 0.30998 0.0
C1506 C 0.1221 0.31307 0.32283 0.0
C1507 C 0.13577 0.27093 0.32165 0.0
C1508 C 0.12729 0.34156 0.34149 0.0
C1509 C 0.10887 0.38203 0.33055 0.0
N1510 N 0.13267 0.29377 0.32771 0.0
N1511 N 0.10965 0.35749 0.3248 0.0
H1512 H 0.59662 0.72594 0.34147 0.0
H1513 H 0.68696 0.83965 0.28824 0.0
H1514 H 0.5462 0.7139 0.30942 0.0
H1515 H 0.71152 0.87155 0.32329 0.0
H1516 H 0.63829 0.78999 0.29501 0.0
H1517 H 0.64357 0.77512 0.33391 0.0
C1518 C 0.59559 0.73334 0.33278 0.0
C1519 C 0.56742 0.71586 0.32606 0.0
C1520 C 0.65423 0.80809 0.30117 0.0
C1521 C 0.62097 0.77225 0.31743 0.0
C1522 C 0.6819 0.83639 0.29734 0.0
C1523 C 0.70329 0.85968 0.30523 0.0
C1524 C 0.64846 0.80289 0.31296 0.0
C1525 C 0.69565 0.85431 0.31691 0.0
C1526 C 0.62227 0.76162 0.32853 0.0
C1527 C 0.56742 0.72676 0.31488 0.0
N1528 N 0.66905 0.82624 0.32043 0.0
N1529 N 0.59388 0.75435 0.31089 0.0
H1530 H 0.10387 0.81757 0.32701 0.0
H1531 H 0.27751 0.91718 0.35779 0.0
H1532 H 0.1243 0.88846 0.35372 0.0
H1533 H 0.25902 0.85493 0.32837 0.0
H1534 H 0.22265 0.90963 0.35585 0.0
H1535 H 0.16096 0.83125 0.32748 0.0
C1536 C 0.12026 0.83576 0.33307 0.0
C1537 C 0.10925 0.85186 0.34035 0.0
C1538 C 0.23078 0.89799 0.34973 0.0
C1539 C 0.17485 0.86804 0.3408 0.0
C1540 C 0.26225 0.90254 0.35076 0.0
C1541 C 0.27275 0.88625 0.34334 0.0
C1542 C 0.20968 0.87692 0.34125 0.0
C1543 C 0.25186 0.86765 0.33439 0.0
C1544 C 0.15297 0.8438 0.33326 0.0
C1545 C 0.1317 0.87538 0.34797 0.0
N1546 N 0.22116 0.86311 0.3337 0.0
N1547 N 0.16346 0.88278 0.34799 0.0
H1548 H 0.73375 0.79556 0.82588 0.0
H1549 H 0.60144 0.85374 0.8225 0.0
H1550 H 0.71104 0.83045 0.79499 0.0
H1551 H 0.61608 0.80901 0.85247 0.0
H1552 H 0.64182 0.84542 0.81231 0.0
H1553 H 0.68937 0.79823 0.83564 0.0
C1554 C 0.71909 0.80323 0.8211 0.0
C1555 C 0.72633 0.81312 0.80964 0.0
C1556 C 0.6362 0.83742 0.82111 0.0
C1557 C 0.676 0.81681 0.82079 0.0
C1558 C 0.61334 0.84241 0.82696 0.0
C1559 C 0.60543 0.83209 0.83835 0.0
C1560 C 0.65135 0.82213 0.82671 0.0
C1561 C 0.62146 0.81736 0.84369 0.0
C1562 C 0.6939 0.80496 0.82669 0.0
C1563 C 0.70652 0.82286 0.80386 0.0
N1564 N 0.64367 0.81282 0.83782 0.0
N1565 N 0.6825 0.8248 0.80953 0.0
H1566 H 0.17478 0.8076 0.85503 0.0
H1567 H 0.18249 0.87646 0.79199 0.0
H1568 H 0.15108 0.74929 0.82429 0.0
H1569 H 0.19128 0.93206 0.82245 0.0
H1570 H 0.17486 0.83094 0.80393 0.0
H1571 H 0.18206 0.854 0.84349 0.0
C1572 C 0.1706 0.80438 0.84589 0.0
C1573 C 0.16256 0.77458 0.8406 0.0
C1574 C 0.17859 0.85313 0.80803 0.0
C1575 C 0.17148 0.82767 0.82737 0.0
C1576 C 0.18324 0.87926 0.80121 0.0
C1577 C 0.18734 0.90804 0.80623 0.0
C1578 C 0.17808 0.85573 0.81998 0.0
C1579 C 0.1882 0.9103 0.81822 0.0
C1580 C 0.175 0.83095 0.8393 0.0
C1581 C 0.15746 0.77183 0.82873 0.0
N1582 N 0.18338 0.88435 0.8247 0.0
N1583 N 0.16231 0.79813 0.82251 0.0
H1584 H 0.17811 0.3581 0.86593 0.0
H1585 H 0.1228 0.28196 0.80333 0.0
H1586 H 0.24069 0.39448 0.83624 0.0
H1587 H 0.0582 0.25255 0.83253 0.0
H1588 H 0.16753 0.32084 0.81545 0.0
H1589 H 0.13585 0.31515 0.85416 0.0
C1590 C 0.18318 0.35675 0.85697 0.0
C1591 C 0.21282 0.38016 0.85203 0.0
C1592 C 0.14355 0.30594 0.81919 0.0
C1593 C 0.16435 0.33138 0.83847 0.0
C1594 C 0.11794 0.28388 0.81227 0.0
C1595 C 0.08669 0.26404 0.81692 0.0
C1596 C 0.13788 0.30809 0.83086 0.0
C1597 C 0.08185 0.26745 0.82857 0.0
C1598 C 0.15894 0.33235 0.85023 0.0
C1599 C 0.21811 0.37707 0.84039 0.0
N1600 N 0.10722 0.289 0.83515 0.0
N1601 N 0.19393 0.35333 0.83397 0.0
H1602 H 0.87332 0.58955 0.67427 0.0
H1603 H 0.78259 0.68334 0.69622 0.0
H1604 H 0.79421 0.54651 0.69872 0.0
H1605 H 0.83769 0.70595 0.66475 0.0
H1606 H 0.7893 0.63548 0.69865 0.0
H1607 H 0.86602 0.63698 0.6729 0.0
C1608 C 0.85483 0.5903 0.67953 0.0
C1609 C 0.83407 0.56378 0.68652 0.0
C1610 C 0.7996 0.65081 0.69117 0.0
C1611 C 0.82527 0.61787 0.68482 0.0
C1612 C 0.79558 0.67796 0.68972 0.0
C1613 C 0.80983 0.69887 0.68031 0.0
C1614 C 0.8183 0.64485 0.68323 0.0
C1615 C 0.82641 0.69069 0.67217 0.0
C1616 C 0.85041 0.61725 0.67863 0.0
C1617 C 0.8106 0.5663 0.69315 0.0
N1618 N 0.83053 0.66457 0.6739 0.0
N1619 N 0.80664 0.59278 0.69208 0.0
H1620 H 0.38532 0.26896 0.64754 0.0
H1621 H 0.30771 0.09079 0.67533 0.0
H1622 H 0.42551 0.24679 0.67717 0.0
H1623 H 0.26327 0.11498 0.6475 0.0
H1624 H 0.35231 0.14746 0.67564 0.0
H1625 H 0.33976 0.21286 0.64763 0.0
C1626 C 0.38423 0.25249 0.65421 0.0
C1627 C 0.4094 0.26254 0.66231 0.0
C1628 C 0.33288 0.1403 0.66943 0.0
C1629 C 0.35775 0.19808 0.66228 0.0
C1630 C 0.30759 0.10785 0.66915 0.0
C1631 C 0.28162 0.09816 0.66142 0.0
C1632 C 0.3322 0.16315 0.6619 0.0
C1633 C 0.28271 0.1214 0.65366 0.0
C1634 C 0.35837 0.22036 0.65418 0.0
C1635 C 0.4067 0.24013 0.67074 0.0
N1636 N 0.30747 0.15285 0.65414 0.0
N1637 N 0.38154 0.20881 0.67043 0.0
H1638 H 0.71901 0.09368 0.63867 0.0
H1639 H 0.86176 0.18701 0.68452 0.0
H1640 H 0.70468 0.12464 0.67188 0.0
H1641 H 0.87209 0.13917 0.65463 0.0
H1642 H 0.80537 0.16876 0.67896 0.0
H1643 H 0.77573 0.11187 0.64385 0.0
C1644 C 0.72759 0.10375 0.64712 0.0
C1645 C 0.70707 0.10777 0.65483 0.0
C1646 C 0.82005 0.16243 0.67359 0.0
C1647 C 0.7721 0.12936 0.66069 0.0
C1648 C 0.85239 0.17317 0.67668 0.0
C1649 C 0.8716 0.16439 0.67008 0.0
C1650 C 0.8069 0.14291 0.66379 0.0
C1651 C 0.85808 0.14633 0.66002 0.0
C1652 C 0.76004 0.11437 0.65004 0.0
C1653 C 0.71956 0.12104 0.66566 0.0
N1654 N 0.82647 0.136 0.65722 0.0
N1655 N 0.75137 0.13169 0.66821 0.0
H1656 H 0.03749 0.54776 0.47682 0.0
H1657 H 0.96606 0.51238 0.54045 0.0
H1658 H 0.07307 0.51099 0.50377 0.0
H1659 H 0.92782 0.54502 0.51304 0.0
H1660 H 0.00803 0.51552 0.5275 0.0
H1661 H -0.00192 0.54832 0.49014 0.0
C1662 C 0.03678 0.53947 0.48552 0.0
C1663 C 0.05861 0.52934 0.4892 0.0
C1664 C 0.99062 0.52225 0.52435 0.0
C1665 C 0.01389 0.53041 0.50454 0.0
C1666 C 0.96679 0.52072 0.53176 0.0
C1667 C 0.94318 0.52812 0.52778 0.0
C1668 C 0.99081 0.53124 0.51289 0.0
C1669 C 0.9454 0.53888 0.51645 0.0
C1670 C 0.01441 0.54 0.49314 0.0
C1671 C 0.05661 0.51889 0.50056 0.0
N1672 N 0.96861 0.53982 0.50937 0.0
N1673 N 0.03472 0.51984 0.50785 0.0
H1674 H 0.46159 0.43839 0.52412 0.0
H1675 H 0.55529 0.57877 0.47754 0.0
H1676 H 0.5 0.42443 0.49242 0.0
H1677 H 0.49786 0.58644 0.50484 0.0
H1678 H 0.54093 0.5244 0.48441 0.0
H1679 H 0.47774 0.49405 0.5181 0.0
C1680 C 0.47295 0.44683 0.51583 0.0
C1681 C 0.47954 0.42674 0.50878 0.0
C1682 C 0.53168 0.5381 0.48895 0.0
C1683 C 0.49875 0.49055 0.50199 0.0
C1684 C 0.5402 0.56932 0.48511 0.0
C1685 C 0.52749 0.58705 0.49055 0.0
C1686 C 0.51048 0.52462 0.49833 0.0
C1687 C 0.50798 0.5735 0.50032 0.0
C1688 C 0.48237 0.47867 0.51244 0.0
C1689 C 0.49441 0.43901 0.49813 0.0
N1690 N 0.49985 0.54295 0.50385 0.0
N1691 N 0.50378 0.47023 0.49511 0.0
H1692 H 0.59573 0.05205 0.51232 0.0
H1693 H 0.4667 0.97255 0.46144 0.0
H1694 H 0.60801 0.09973 0.47966 0.0
H1695 H 0.44352 0.94698 0.49704 0.0
H1696 H 0.52237 0.01366 0.46697 0.0
H1697 H 0.54458 0.00603 0.50546 0.0
C1698 C 0.5881 0.05256 0.50362 0.0
C1699 C 0.60587 0.08007 0.49661 0.0
C1700 C 0.50503 -0.00093 0.47355 0.0
C1701 C 0.54722 0.02769 0.48881 0.0
C1702 C 0.47327 0.97576 0.47043 0.0
C1703 C 0.45045 0.95655 0.47882 0.0
C1704 C 0.51408 0.00279 0.48512 0.0
C1705 C 0.46025 0.96154 0.49031 0.0
C1706 C 0.55871 0.02642 0.49976 0.0
C1707 C 0.59484 0.07921 0.48539 0.0
N1708 N 0.49143 0.9841 0.49313 0.0
N1709 N 0.56596 0.05358 0.48187 0.0
H1710 H 0.45787 0.06177 0.00036 0.0
H1711 H 0.49909 0.91678 0.00167 0.0
H1712 H 0.48069 0.02688 0.03124 0.0
H1713 H 0.48163 0.95537 0.97062 0.0
H1714 H 0.49334 0.95757 0.01265 0.0
H1715 H 0.46501 0.02184 0.98936 0.0
C1716 C 0.46395 0.04542 0.00485 0.0
C1717 C 0.46878 0.0477 0.01673 0.0
C1718 C 0.49099 0.95726 0.00342 0.0
C1719 C 0.47752 0.00237 0.00418 0.0
C1720 C 0.4945 0.93411 0.99714 0.0
C1721 C 0.49061 0.93252 0.98521 0.0
C1722 C 0.48345 0.97888 -0.00226 0.0
C1723 C 0.48469 0.95561 0.9798 0.0
C1724 C 0.46831 0.02283 -0.00145 0.0
C1725 C 0.47681 0.02602 0.02208 0.0
N1726 N 0.48102 0.97768 0.98612 0.0
N1727 N 0.48107 0.00435 0.01576 0.0
H1728 H 0.96992 0.39124 0.01713 0.0
H1729 H 0.01598 0.51612 0.96496 0.0
H1730 H 0.90814 0.37064 0.98742 0.0
H1731 H 0.06103 0.54282 -0.00164 0.0
H1732 H 0.97951 0.4607 0.97202 0.0
H1733 H 0.00874 0.44403 0.00885 0.0
C1734 C 0.9648 0.39747 0.00876 0.0
C1735 C 0.93547 0.37664 0.00304 0.0
C1736 C -0.00272 0.47879 0.9778 0.0
C1737 C 0.97958 0.4373 0.99361 0.0
C1738 C 0.01793 0.51046 0.97381 0.0
C1739 C 0.04155 0.53416 0.98108 0.0
C1740 C 0.00054 0.47072 0.9891 0.0
C1741 C 0.04309 0.52542 0.99245 0.0
C1742 C 0.98682 0.42781 0.0041 0.0
C1743 C 0.93029 0.38606 0.99219 0.0
N1744 N 0.02303 0.49434 0.99608 0.0
N1745 N 0.95198 0.41589 0.98787 0.0
H1746 H 0.43444 0.49695 0.00735 0.0
H1747 H 0.58804 0.49403 0.97998 0.0
H1748 H 0.43077 0.44977 0.97528 0.0
H1749 H 0.59307 0.54659 0.01085 0.0
H1750 H 0.53082 0.47894 0.97779 0.0
H1751 H 0.49228 0.51397 0.00904 0.0
C1752 C 0.44563 0.48968 0.00075 0.0
C1753 C 0.42772 0.47203 0.99112 0.0
C1754 C 0.54453 0.49407 0.98497 0.0
C1755 C 0.49414 0.49204 0.9929 0.0
C1756 C 0.57731 0.50297 0.98617 0.0
C1757 C 0.59532 0.52138 0.99567 0.0
C1758 C 0.5296 0.50354 0.99335 0.0
C1759 C 0.58014 0.53231 0.00341 0.0
C1760 C 0.47877 0.49974 0.00166 0.0
C1761 C 0.44361 0.46342 0.98283 0.0
N1762 N 0.54802 0.52288 0.00215 0.0
N1763 N 0.47597 0.4737 0.98388 0.0
loop_
_geom_bond_atom_site_label_1
_geom_bond_atom_site_label_2
_geom_bond_distance
_geom_bond_site_symmetry_2
_ccdc_geom_bond_type
C0 O1 1.160 . S
C0 O7 1.185 . S
O1 C0 1.160 . S
O2 Zn3 1.899 . S
O2 C10 1.284 . S
Zn3 O2 1.899 . S
Zn3 O4 2.032 . S
Zn3 O7 2.086 . S
Zn3 O12 1.977 . S
O4 Zn3 2.032 . S
O4 C8 1.278 . S
C5 O6 1.203 . S
C5 O12 1.267 . S
O6 C5 1.203 . S
O7 C0 1.185 . S
O7 Zn3 2.086 . S
C8 O4 1.278 . S
C8 O9 1.211 . S
O9 C8 1.211 . S
C10 O2 1.284 . S
C10 O11 1.273 . S
O11 C10 1.273 . S
O12 Zn3 1.977 . S
O12 C5 1.267 . S
C13 O14 1.160 . S
C13 O20 1.185 . S
O14 C13 1.160 . S
O15 Zn16 1.899 . S
O15 C23 1.284 . S
Zn16 O15 1.899 . S
Zn16 O17 2.032 . S
Zn16 O20 2.086 . S
Zn16 O25 1.977 1_545 S
O17 Zn16 2.032 . S
O17 C21 1.278 . S
C18 O19 1.203 . S
C18 O25 1.267 . S
O19 C18 1.203 . S
O20 C13 1.185 . S
O20 Zn16 2.086 . S
C21 O17 1.278 . S
C21 O22 1.211 1_545 S
O22 C21 1.211 1_565 S
C23 O15 1.284 . S
C23 O24 1.273 . S
O24 C23 1.273 . S
O25 Zn16 1.977 1_565 S
O25 C18 1.267 . S
C26 O27 1.160 . S
C26 O33 1.185 . S
O27 C26 1.160 . S
O28 Zn29 1.899 . S
O28 C36 1.284 . S
Zn29 O28 1.899 . S
Zn29 O30 2.032 . S
Zn29 O33 2.086 . S
Zn29 O38 1.977 1_655 S
O30 Zn29 2.032 . S
O30 C34 1.278 . S
C31 O32 1.203 . S
C31 O38 1.267 . S
O32 C31 1.203 . S
O33 C26 1.185 . S
O33 Zn29 2.086 . S
C34 O30 1.278 . S
C34 O35 1.211 1_655 S
O35 C34 1.211 1_455 S
C36 O28 1.284 . S
C36 O37 1.273 . S
O37 C36 1.273 . S
O38 Zn29 1.977 1_455 S
O38 C31 1.267 . S
C39 O40 1.160 . S
C39 O46 1.185 . S
O40 C39 1.160 . S
O41 Zn42 1.899 . S
O41 C49 1.284 . S
Zn42 O41 1.899 . S
Zn42 O43 2.032 . S
Zn42 O46 2.086 . S
Zn42 O51 1.977 . S
O43 Zn42 2.032 . S
O43 C47 1.278 . S
C44 O45 1.203 . S
C44 O51 1.267 . S
O45 C44 1.203 . S
O46 C39 1.185 . S
O46 Zn42 2.086 . S
C47 O43 1.278 . S
C47 O48 1.211 . S
O48 C47 1.211 . S
C49 O41 1.284 . S
C49 O50 1.273 . S
O50 C49 1.273 . S
O51 Zn42 1.977 . S
O51 C44 1.267 . S
C52 O53 1.160 . S
C52 O59 1.185 . S
O53 C52 1.160 . S
O54 Zn55 1.899 . S
O54 C62 1.284 . S
Zn55 O54 1.899 . S
Zn55 O56 2.032 . S
Zn55 O59 2.086 . S
Zn55 O64 1.977 1_565 S
O56 Zn55 2.032 . S
O56 C60 1.278 . S
C57 O58 1.203 . S
C57 O64 1.267 . S
O58 C57 1.203 . S
O59 C52 1.185 . S
O59 Zn55 2.086 . S
C60 O56 1.278 . S
C60 O61 1.211 1_565 S
O61 C60 1.211 1_545 S
C62 O54 1.284 . S
C62 O63 1.273 . S
O63 C62 1.273 . S
O64 Zn55 1.977 1_545 S
O64 C57 1.267 . S
C65 O66 1.160 . S
C65 O72 1.185 . S
O66 C65 1.160 . S
O67 Zn68 1.899 . S
O67 C75 1.284 . S
Zn68 O67 1.899 . S
Zn68 O69 2.032 . S
Zn68 O72 2.086 . S
Zn68 O77 1.977 1_455 S
O69 Zn68 2.032 . S
O69 C73 1.278 . S
C70 O71 1.203 . S
C70 O77 1.267 . S
O71 C70 1.203 . S
O72 C65 1.185 . S
O72 Zn68 2.086 . S
C73 O69 1.278 . S
C73 O74 1.211 1_455 S
O74 C73 1.211 1_655 S
C75 O67 1.284 . S
C75 O76 1.273 . S
O76 C75 1.273 . S
O77 Zn68 1.977 1_655 S
O77 C70 1.267 . S
C78 O79 1.160 . S
C78 O85 1.185 . S
O79 C78 1.160 . S
O80 Zn81 1.899 . S
O80 C88 1.284 . S
Zn81 O80 1.899 . S
Zn81 O82 2.032 . S
Zn81 O85 2.086 . S
Zn81 O90 1.977 . S
O82 Zn81 2.032 . S
O82 C86 1.278 . S
C83 O84 1.203 . S
C83 O90 1.267 . S
O84 C83 1.203 . S
O85 C78 1.185 . S
O85 Zn81 2.086 . S
C86 O82 1.278 . S
C86 O87 1.211 . S
O87 C86 1.211 . S
C88 O80 1.284 . S
C88 O89 1.273 . S
O89 C88 1.273 . S
O90 Zn81 1.977 . S
O90 C83 1.267 . S
C91 O92 1.160 . S
C91 O98 1.185 . S
O92 C91 1.160 . S
O93 Zn94 1.899 . S
O93 C101 1.284 . S
Zn94 O93 1.899 . S
Zn94 O95 2.032 . S
Zn94 O98 2.086 . S
Zn94 O103 1.977 1_565 S
O95 Zn94 2.032 . S
O95 C99 1.278 . S
C96 O97 1.203 . S
C96 O103 1.267 . S
O97 C96 1.203 . S
O98 C91 1.185 . S
O98 Zn94 2.086 . S
C99 O95 1.278 . S
C99 O100 1.211 . S
O100 C99 1.211 . S
C101 O93 1.284 . S
C101 O102 1.273 . S
O102 C101 1.273 . S
O103 Zn94 1.977 1_545 S
O103 C96 1.267 . S
C104 O105 1.160 . S
C104 O111 1.185 . S
O105 C104 1.160 . S
O106 Zn107 1.899 . S
O106 C114 1.284 . S
Zn107 O106 1.899 . S
Zn107 O108 2.032 . S
Zn107 O111 2.086 . S
Zn107 O116 1.977 1_455 S
O108 Zn107 2.032 . S
O108 C112 1.278 . S
C109 O110 1.203 . S
C109 O116 1.267 . S
O110 C109 1.203 . S
O111 C104 1.185 . S
O111 Zn107 2.086 . S
C112 O108 1.278 . S
C112 O113 1.211 . S
O113 C112 1.211 . S
C114 O106 1.284 . S
C114 O115 1.273 . S
O115 C114 1.273 . S
O116 Zn107 1.977 1_655 S
O116 C109 1.267 . S
C117 O118 1.160 . S
C117 O124 1.185 . S
O118 C117 1.160 . S
O119 Zn120 1.899 . S
O119 C127 1.284 . S
Zn120 O119 1.899 . S
Zn120 O121 2.032 . S
Zn120 O124 2.086 . S
Zn120 O129 1.977 . S
O121 Zn120 2.032 . S
O121 C125 1.278 . S
C122 O123 1.203 . S
C122 O129 1.267 . S
O123 C122 1.203 . S
O124 C117 1.185 . S
O124 Zn120 2.086 . S
C125 O121 1.278 . S
C125 O126 1.211 . S
O126 C125 1.211 . S
C127 O119 1.284 . S
C127 O128 1.273 . S
O128 C127 1.273 . S
O129 Zn120 1.977 . S
O129 C122 1.267 . S
C130 O131 1.160 . S
C130 O137 1.185 . S
O131 C130 1.160 . S
O132 Zn133 1.899 . S
O132 C140 1.284 . S
Zn133 O132 1.899 . S
Zn133 O134 2.032 . S
Zn133 O137 2.086 . S
Zn133 O142 1.977 1_545 S
O134 Zn133 2.032 . S
O134 C138 1.278 . S
C135 O136 1.203 . S
C135 O142 1.267 . S
O136 C135 1.203 . S
O137 C130 1.185 . S
O137 Zn133 2.086 . S
C138 O134 1.278 . S
C138 O139 1.211 . S
O139 C138 1.211 . S
C140 O132 1.284 . S
C140 O141 1.273 . S
O141 C140 1.273 . S
O142 Zn133 1.977 1_565 S
O142 C135 1.267 . S
C143 O144 1.160 . S
C143 O150 1.185 . S
O144 C143 1.160 . S
O145 Zn146 1.899 . S
O145 C153 1.284 . S
Zn146 O145 1.899 . S
Zn146 O147 2.032 . S
Zn146 O150 2.086 . S
Zn146 O155 1.977 1_655 S
O147 Zn146 2.032 . S
O147 C151 1.278 . S
C148 O149 1.203 . S
C148 O155 1.267 . S
O149 C148 1.203 . S
O150 C143 1.185 . S
O150 Zn146 2.086 . S
C151 O147 1.278 . S
C151 O152 1.211 . S
O152 C151 1.211 . S
C153 O145 1.284 . S
C153 O154 1.273 . S
O154 C153 1.273 . S
O155 Zn146 1.977 1_455 S
O155 C148 1.267 . S
C156 O157 1.160 . S
C156 O163 1.185 . S
O157 C156 1.160 . S
O158 Zn159 1.899 . S
O158 C166 1.284 . S
Zn159 O158 1.899 . S
Zn159 O160 2.032 . S
Zn159 O163 2.086 . S
Zn159 O168 1.977 . S
O160 Zn159 2.032 . S
O160 C164 1.278 . S
C161 O162 1.203 . S
C161 O168 1.267 . S
O162 C161 1.203 . S
O163 C156 1.185 . S
O163 Zn159 2.086 . S
C164 O160 1.278 . S
C164 O165 1.211 . S
O165 C164 1.211 . S
C166 O158 1.284 . S
C166 O167 1.273 . S
O167 C166 1.273 . S
O168 Zn159 1.977 . S
O168 C161 1.267 . S
C169 O170 1.160 . S
C169 O176 1.185 . S
O170 C169 1.160 . S
O171 Zn172 1.899 . S
O171 C179 1.284 . S
Zn172 O171 1.899 . S
Zn172 O173 2.032 . S
Zn172 O176 2.086 . S
Zn172 O181 1.977 . S
O173 Zn172 2.032 . S
O173 C177 1.278 . S
C174 O175 1.203 . S
C174 O181 1.267 . S
O175 C174 1.203 . S
O176 C169 1.185 . S
O176 Zn172 2.086 . S
C177 O173 1.278 . S
C177 O178 1.211 . S
O178 C177 1.211 . S
C179 O171 1.284 . S
C179 O180 1.273 . S
O180 C179 1.273 . S
O181 Zn172 1.977 . S
O181 C174 1.267 . S
C182 O183 1.160 . S
C182 O189 1.185 . S
O183 C182 1.160 . S
O184 Zn185 1.899 . S
O184 C192 1.284 . S
Zn185 O184 1.899 . S
Zn185 O186 2.032 . S
Zn185 O189 2.086 . S
Zn185 O194 1.977 . S
O186 Zn185 2.032 . S
O186 C190 1.278 . S
C187 O188 1.203 . S
C187 O194 1.267 . S
O188 C187 1.203 . S
O189 C182 1.185 . S
O189 Zn185 2.086 . S
C190 O186 1.278 . S
C190 O191 1.211 . S
O191 C190 1.211 . S
C192 O184 1.284 . S
C192 O193 1.273 . S
O193 C192 1.273 . S
O194 Zn185 1.977 . S
O194 C187 1.267 . S
C195 O196 1.160 . S
C195 O202 1.185 . S
O196 C195 1.160 . S
O197 Zn198 1.899 . S
O197 C205 1.284 . S
Zn198 O197 1.899 . S
Zn198 O199 2.032 . S
Zn198 O202 2.086 . S
Zn198 O207 1.977 . S
O199 Zn198 2.032 . S
O199 C203 1.278 . S
C200 O201 1.203 . S
C200 O207 1.267 . S
O201 C200 1.203 . S
O202 C195 1.185 . S
O202 Zn198 2.086 . S
C203 O199 1.278 . S
C203 O204 1.211 . S
O204 C203 1.211 . S
C205 O197 1.284 . S
C205 O206 1.273 . S
O206 C205 1.273 . S
O207 Zn198 1.977 . S
O207 C200 1.267 . S
C208 O209 1.160 . S
C208 O215 1.185 . S
O209 C208 1.160 . S
O210 Zn211 1.899 . S
O210 C218 1.284 . S
Zn211 O210 1.899 . S
Zn211 O212 2.032 . S
Zn211 O215 2.086 . S
Zn211 O220 1.977 . S
O212 Zn211 2.032 . S
O212 C216 1.278 . S
C213 O214 1.203 . S
C213 O220 1.267 . S
O214 C213 1.203 . S
O215 C208 1.185 . S
O215 Zn211 2.086 . S
C216 O212 1.278 . S
C216 O217 1.211 . S
O217 C216 1.211 . S
C218 O210 1.284 . S
C218 O219 1.273 . S
O219 C218 1.273 . S
O220 Zn211 1.977 . S
O220 C213 1.267 . S
C221 O222 1.160 . S
C221 O228 1.185 . S
O222 C221 1.160 . S
O223 Zn224 1.899 . S
O223 C231 1.284 . S
Zn224 O223 1.899 . S
Zn224 O225 2.032 . S
Zn224 O228 2.086 . S
Zn224 O233 1.977 . S
O225 Zn224 2.032 . S
O225 C229 1.278 . S
C226 O227 1.203 . S
C226 O233 1.267 . S
O227 C226 1.203 . S
O228 C221 1.185 . S
O228 Zn224 2.086 . S
C229 O225 1.278 . S
C229 O230 1.211 . S
O230 C229 1.211 . S
C231 O223 1.284 . S
C231 O232 1.273 . S
O232 C231 1.273 . S
O233 Zn224 1.977 . S
O233 C226 1.267 . S
C234 O235 1.160 . S
C234 O241 1.185 . S
O235 C234 1.160 . S
O236 Zn237 1.899 . S
O236 C244 1.284 . S
Zn237 O236 1.899 . S
Zn237 O238 2.032 . S
Zn237 O241 2.086 . S
Zn237 O246 1.977 . S
O238 Zn237 2.032 . S
O238 C242 1.278 . S
C239 O240 1.203 . S
C239 O246 1.267 . S
O240 C239 1.203 . S
O241 C234 1.185 . S
O241 Zn237 2.086 . S
C242 O238 1.278 . S
C242 O243 1.211 . S
O243 C242 1.211 . S
C244 O236 1.284 . S
C244 O245 1.273 . S
O245 C244 1.273 . S
O246 Zn237 1.977 . S
O246 C239 1.267 . S
C247 O248 1.160 . S
C247 O254 1.185 . S
O248 C247 1.160 . S
O249 Zn250 1.899 . S
O249 C257 1.284 . S
Zn250 O249 1.899 . S
Zn250 O251 2.032 . S
Zn250 O254 2.086 . S
Zn250 O259 1.977 . S
O251 Zn250 2.032 . S
O251 C255 1.278 . S
C252 O253 1.203 . S
C252 O259 1.267 . S
O253 C252 1.203 . S
O254 C247 1.185 . S
O254 Zn250 2.086 . S
C255 O251 1.278 . S
C255 O256 1.211 . S
O256 C255 1.211 . S
C257 O249 1.284 . S
C257 O258 1.273 . S
O258 C257 1.273 . S
O259 Zn250 1.977 . S
O259 C252 1.267 . S
C260 O261 1.160 . S
C260 O267 1.185 . S
O261 C260 1.160 . S
O262 Zn263 1.899 . S
O262 C270 1.284 . S
Zn263 O262 1.899 . S
Zn263 O264 2.032 . S
Zn263 O267 2.086 . S
Zn263 O272 1.977 . S
O264 Zn263 2.032 . S
O264 C268 1.278 . S
C265 O266 1.203 . S
C265 O272 1.267 . S
O266 C265 1.203 . S
O267 C260 1.185 . S
O267 Zn263 2.086 . S
C268 O264 1.278 . S
C268 O269 1.211 . S
O269 C268 1.211 . S
C270 O262 1.284 . S
C270 O271 1.273 . S
O271 C270 1.273 . S
O272 Zn263 1.977 . S
O272 C265 1.267 . S
C273 O274 1.160 . S
C273 O280 1.185 . S
O274 C273 1.160 . S
O275 Zn276 1.899 . S
O275 C283 1.284 . S
Zn276 O275 1.899 . S
Zn276 O277 2.032 . S
Zn276 O280 2.086 . S
Zn276 O285 1.977 . S
O277 Zn276 2.032 . S
O277 C281 1.278 . S
C278 O279 1.203 . S
C278 O285 1.267 . S
O279 C278 1.203 . S
O280 C273 1.185 . S
O280 Zn276 2.086 . S
C281 O277 1.278 . S
C281 O282 1.211 . S
O282 C281 1.211 . S
C283 O275 1.284 . S
C283 O284 1.273 . S
O284 C283 1.273 . S
O285 Zn276 1.977 . S
O285 C278 1.267 . S
C286 O287 1.160 . S
C286 O293 1.185 . S
O287 C286 1.160 . S
O288 Zn289 1.899 . S
O288 C296 1.284 . S
Zn289 O288 1.899 . S
Zn289 O290 2.032 . S
Zn289 O293 2.086 . S
Zn289 O298 1.977 . S
O290 Zn289 2.032 . S
O290 C294 1.278 . S
C291 O292 1.203 . S
C291 O298 1.267 . S
O292 C291 1.203 . S
O293 C286 1.185 . S
O293 Zn289 2.086 . S
C294 O290 1.278 . S
C294 O295 1.211 . S
O295 C294 1.211 . S
C296 O288 1.284 . S
C296 O297 1.273 . S
O297 C296 1.273 . S
O298 Zn289 1.977 . S
O298 C291 1.267 . S
C299 O300 1.160 . S
C299 O306 1.185 . S
O300 C299 1.160 . S
O301 Zn302 1.899 . S
O301 C309 1.284 . S
Zn302 O301 1.899 . S
Zn302 O303 2.032 . S
Zn302 O306 2.086 . S
Zn302 O311 1.977 . S
O303 Zn302 2.032 . S
O303 C307 1.278 . S
C304 O305 1.203 . S
C304 O311 1.267 . S
O305 C304 1.203 . S
O306 C299 1.185 . S
O306 Zn302 2.086 . S
C307 O303 1.278 . S
C307 O308 1.211 . S
O308 C307 1.211 . S
C309 O301 1.284 . S
C309 O310 1.273 . S
O310 C309 1.273 . S
O311 Zn302 1.977 . S
O311 C304 1.267 . S
C312 O313 1.160 . S
C312 O319 1.185 . S
O313 C312 1.160 . S
O314 Zn315 1.899 . S
O314 C322 1.284 . S
Zn315 O314 1.899 . S
Zn315 O316 2.032 . S
Zn315 O319 2.086 . S
Zn315 O324 1.977 . S
O316 Zn315 2.032 . S
O316 C320 1.278 . S
C317 O318 1.203 . S
C317 O324 1.267 . S
O318 C317 1.203 . S
O319 C312 1.185 . S
O319 Zn315 2.086 . S
C320 O316 1.278 . S
C320 O321 1.211 . S
O321 C320 1.211 . S
C322 O314 1.284 . S
C322 O323 1.273 . S
O323 C322 1.273 . S
O324 Zn315 1.977 . S
O324 C317 1.267 . S
C325 O326 1.160 . S
C325 O332 1.185 . S
O326 C325 1.160 . S
O327 Zn328 1.899 . S
O327 C335 1.284 . S
Zn328 O327 1.899 . S
Zn328 O329 2.032 . S
Zn328 O332 2.086 . S
Zn328 O337 1.977 . S
O329 Zn328 2.032 . S
O329 C333 1.278 . S
C330 O331 1.203 . S
C330 O337 1.267 . S
O331 C330 1.203 . S
O332 C325 1.185 . S
O332 Zn328 2.086 . S
C333 O329 1.278 . S
C333 O334 1.211 . S
O334 C333 1.211 . S
C335 O327 1.284 . S
C335 O336 1.273 . S
O336 C335 1.273 . S
O337 Zn328 1.977 . S
O337 C330 1.267 . S
C338 O339 1.160 . S
C338 O345 1.185 . S
O339 C338 1.160 . S
O340 Zn341 1.899 . S
O340 C348 1.284 . S
Zn341 O340 1.899 . S
Zn341 O342 2.032 . S
Zn341 O345 2.086 . S
Zn341 O350 1.977 . S
O342 Zn341 2.032 . S
O342 C346 1.278 . S
C343 O344 1.203 . S
C343 O350 1.267 . S
O344 C343 1.203 . S
O345 C338 1.185 . S
O345 Zn341 2.086 . S
C346 O342 1.278 . S
C346 O347 1.211 . S
O347 C346 1.211 . S
C348 O340 1.284 . S
C348 O349 1.273 . S
O349 C348 1.273 . S
O350 Zn341 1.977 . S
O350 C343 1.267 . S
C351 O352 1.160 . S
C351 O358 1.185 . S
O352 C351 1.160 . S
O353 Zn354 1.899 . S
O353 C361 1.284 . S
Zn354 O353 1.899 . S
Zn354 O355 2.032 . S
Zn354 O358 2.086 . S
Zn354 O363 1.977 . S
O355 Zn354 2.032 . S
O355 C359 1.278 . S
C356 O357 1.203 . S
C356 O363 1.267 . S
O357 C356 1.203 . S
O358 C351 1.185 . S
O358 Zn354 2.086 . S
C359 O355 1.278 . S
C359 O360 1.211 . S
O360 C359 1.211 . S
C361 O353 1.284 . S
C361 O362 1.273 . S
O362 C361 1.273 . S
O363 Zn354 1.977 . S
O363 C356 1.267 . S
C364 O365 1.160 . S
C364 O371 1.185 . S
O365 C364 1.160 . S
O366 Zn367 1.899 . S
O366 C374 1.284 . S
Zn367 O366 1.899 . S
Zn367 O368 2.032 . S
Zn367 O371 2.086 . S
Zn367 O376 1.977 . S
O368 Zn367 2.032 . S
O368 C372 1.278 . S
C369 O370 1.203 . S
C369 O376 1.267 . S
O370 C369 1.203 . S
O371 C364 1.185 . S
O371 Zn367 2.086 . S
C372 O368 1.278 . S
C372 O373 1.211 . S
O373 C372 1.211 . S
C374 O366 1.284 . S
C374 O375 1.273 . S
O375 C374 1.273 . S
O376 Zn367 1.977 . S
O376 C369 1.267 . S
C377 O378 1.160 . S
C377 O384 1.185 . S
O378 C377 1.160 . S
O379 Zn380 1.899 . S
O379 C387 1.284 . S
Zn380 O379 1.899 . S
Zn380 O381 2.032 . S
Zn380 O384 2.086 . S
Zn380 O389 1.977 . S
O381 Zn380 2.032 . S
O381 C385 1.278 . S
C382 O383 1.203 . S
C382 O389 1.267 . S
O383 C382 1.203 . S
O384 C377 1.185 . S
O384 Zn380 2.086 . S
C385 O381 1.278 . S
C385 O386 1.211 . S
O386 C385 1.211 . S
C387 O379 1.284 . S
C387 O388 1.273 . S
O388 C387 1.273 . S
O389 Zn380 1.977 . S
O389 C382 1.267 . S
C390 O391 1.160 . S
C390 O397 1.185 . S
O391 C390 1.160 . S
O392 Zn393 1.899 . S
O392 C400 1.284 . S
Zn393 O392 1.899 . S
Zn393 O394 2.032 . S
Zn393 O397 2.086 . S
Zn393 O402 1.977 . S
O394 Zn393 2.032 . S
O394 C398 1.278 . S
C395 O396 1.203 . S
C395 O402 1.267 . S
O396 C395 1.203 . S
O397 C390 1.185 . S
O397 Zn393 2.086 . S
C398 O394 1.278 . S
C398 O399 1.211 . S
O399 C398 1.211 . S
C400 O392 1.284 . S
C400 O401 1.273 . S
O401 C400 1.273 . S
O402 Zn393 1.977 . S
O402 C395 1.267 . S
C403 O404 1.160 . S
C403 O410 1.185 . S
O404 C403 1.160 . S
O405 Zn406 1.899 . S
O405 C413 1.284 . S
Zn406 O405 1.899 . S
Zn406 O407 2.032 . S
Zn406 O410 2.086 . S
Zn406 O415 1.977 . S
O407 Zn406 2.032 . S
O407 C411 1.278 . S
C408 O409 1.203 . S
C408 O415 1.267 . S
O409 C408 1.203 . S
O410 C403 1.185 . S
O410 Zn406 2.086 . S
C411 O407 1.278 . S
C411 O412 1.211 . S
O412 C411 1.211 . S
C413 O405 1.284 . S
C413 O414 1.273 . S
O414 C413 1.273 . S
O415 Zn406 1.977 . S
O415 C408 1.267 . S
C416 O417 1.160 . S
C416 O423 1.185 . S
O417 C416 1.160 . S
O418 Zn419 1.899 . S
O418 C426 1.284 . S
Zn419 O418 1.899 . S
Zn419 O420 2.032 . S
Zn419 O423 2.086 . S
Zn419 O428 1.977 . S
O420 Zn419 2.032 . S
O420 C424 1.278 . S
C421 O422 1.203 . S
C421 O428 1.267 . S
O422 C421 1.203 . S
O423 C416 1.185 . S
O423 Zn419 2.086 . S
C424 O420 1.278 . S
C424 O425 1.211 . S
O425 C424 1.211 . S
C426 O418 1.284 . S
C426 O427 1.273 . S
O427 C426 1.273 . S
O428 Zn419 1.977 . S
O428 C421 1.267 . S
C429 O430 1.160 . S
C429 O436 1.185 . S
O430 C429 1.160 . S
O431 Zn432 1.899 . S
O431 C439 1.284 . S
Zn432 O431 1.899 . S
Zn432 O433 2.032 . S
Zn432 O436 2.086 . S
Zn432 O441 1.977 . S
O433 Zn432 2.032 . S
O433 C437 1.278 . S
C434 O435 1.203 . S
C434 O441 1.267 . S
O435 C434 1.203 . S
O436 C429 1.185 . S
O436 Zn432 2.086 . S
C437 O433 1.278 . S
C437 O438 1.211 . S
O438 C437 1.211 . S
C439 O431 1.284 . S
C439 O440 1.273 . S
O440 C439 1.273 . S
O441 Zn432 1.977 . S
O441 C434 1.267 . S
C442 O443 1.160 . S
C442 O449 1.185 . S
O443 C442 1.160 . S
O444 Zn445 1.899 . S
O444 C452 1.284 . S
Zn445 O444 1.899 . S
Zn445 O446 2.032 . S
Zn445 O449 2.086 . S
Zn445 O454 1.977 . S
O446 Zn445 2.032 . S
O446 C450 1.278 . S
C447 O448 1.203 . S
C447 O454 1.267 . S
O448 C447 1.203 . S
O449 C442 1.185 . S
O449 Zn445 2.086 . S
C450 O446 1.278 . S
C450 O451 1.211 . S
O451 C450 1.211 . S
C452 O444 1.284 . S
C452 O453 1.273 . S
O453 C452 1.273 . S
O454 Zn445 1.977 . S
O454 C447 1.267 . S
C455 O456 1.160 . S
C455 O462 1.185 . S
O456 C455 1.160 . S
O457 Zn458 1.899 . S
O457 C465 1.284 . S
Zn458 O457 1.899 . S
Zn458 O459 2.032 . S
Zn458 O462 2.086 . S
Zn458 O467 1.977 . S
O459 Zn458 2.032 . S
O459 C463 1.278 . S
C460 O461 1.203 . S
C460 O467 1.267 . S
O461 C460 1.203 . S
O462 C455 1.185 . S
O462 Zn458 2.086 . S
C463 O459 1.278 . S
C463 O464 1.211 . S
O464 C463 1.211 . S
C465 O457 1.284 . S
C465 O466 1.273 . S
O466 C465 1.273 . S
O467 Zn458 1.977 . S
O467 C460 1.267 . S
H468 C474 0.930 . S
H469 C478 0.930 . S
H470 C483 0.929 . S
H471 C481 0.929 . S
H472 C476 0.930 1_455 S
H473 C482 0.929 . S
C474 H468 0.930 . S
C474 C475 1.367 . S
C474 C482 1.378 . S
C475 C474 1.367 . S
C475 C483 1.433 . S
C476 H472 0.930 1_655 S
C476 C478 1.378 . S
C476 C480 1.329 1_655 S
C477 C480 1.495 . S
C477 C482 1.350 . S
C477 N485 1.427 . S
C478 H469 0.930 . S
C478 C476 1.378 . S
C478 C479 1.367 . S
C479 C478 1.367 . S
C479 C481 1.433 . S
C480 C476 1.329 1_455 S
C480 C477 1.495 . S
C480 N484 1.418 1_455 S
C481 H471 0.929 . S
C481 C479 1.433 . S
C481 N484 1.384 . S
C482 H473 0.929 . S
C482 C474 1.378 . S
C482 C477 1.350 . S
C483 H470 0.929 . S
C483 C475 1.433 . S
C483 N485 1.384 . S
N484 C480 1.418 1_655 S
N484 C481 1.384 . S
N485 C477 1.427 . S
N485 C483 1.384 . S
H486 C492 0.930 . S
H487 C496 0.930 . S
H488 C501 0.929 . S
H489 C499 0.929 . S
H490 C494 0.929 . S
H491 C500 0.929 . S
C492 H486 0.930 . S
C492 C493 1.367 . S
C492 C500 1.378 . S
C493 C492 1.367 . S
C493 C501 1.433 . S
C494 H490 0.929 . S
C494 C496 1.378 . S
C494 C498 1.350 . S
C495 C498 1.463 . S
C495 C500 1.350 . S
C495 N503 1.427 . S
C496 H487 0.930 . S
C496 C494 1.378 . S
C496 C497 1.367 . S
C497 C496 1.367 . S
C497 C499 1.433 . S
C498 C494 1.350 . S
C498 C495 1.463 . S
C498 N502 1.427 . S
C499 H489 0.929 . S
C499 C497 1.433 . S
C499 N502 1.384 . S
C500 H491 0.929 . S
C500 C492 1.378 . S
C500 C495 1.350 . S
C501 H488 0.929 . S
C501 C493 1.433 . S
C501 N503 1.384 . S
N502 C498 1.427 . S
N502 C499 1.384 . S
N503 C495 1.427 . S
N503 C501 1.384 . S
H504 C510 0.930 . S
H505 C514 0.930 . S
H506 C519 0.929 . S
H507 C517 0.929 . S
H508 C512 0.929 . S
H509 C518 0.929 1_565 S
C510 H504 0.930 . S
C510 C511 1.367 . S
C510 C518 1.378 . S
C511 C510 1.367 . S
C511 C519 1.433 . S
C512 H508 0.929 . S
C512 C514 1.378 . S
C512 C516 1.350 . S
C513 C516 1.463 . S
C513 C518 1.350 1_565 S
C513 N521 1.427 1_565 S
C514 H505 0.930 . S
C514 C512 1.378 . S
C514 C515 1.367 . S
C515 C514 1.367 . S
C515 C517 1.433 . S
C516 C512 1.350 . S
C516 C513 1.463 . S
C516 N520 1.427 . S
C517 H507 0.929 . S
C517 C515 1.433 . S
C517 N520 1.384 . S
C518 H509 0.929 1_545 S
C518 C510 1.378 . S
C518 C513 1.350 1_545 S
C519 H506 0.929 . S
C519 C511 1.433 . S
C519 N521 1.384 . S
N520 C516 1.427 . S
N520 C517 1.384 . S
N521 C513 1.427 1_545 S
N521 C519 1.384 . S
H522 C528 0.930 . S
H523 C532 0.930 . S
H524 C537 0.929 . S
H525 C535 0.929 . S
H526 C530 0.929 1_545 S
H527 C536 0.929 . S
C528 H522 0.930 . S
C528 C529 1.367 . S
C528 C536 1.378 . S
C529 C528 1.367 . S
C529 C537 1.433 . S
C530 H526 0.929 1_565 S
C530 C532 1.378 . S
C530 C534 1.350 1_565 S
C531 C534 1.463 . S
C531 C536 1.350 . S
C531 N539 1.427 . S
C532 H523 0.930 . S
C532 C530 1.378 . S
C532 C533 1.367 . S
C533 C532 1.367 . S
C533 C535 1.433 . S
C534 C530 1.350 1_545 S
C534 C531 1.463 . S
C534 N538 1.427 1_545 S
C535 H525 0.929 . S
C535 C533 1.433 . S
C535 N538 1.384 . S
C536 H527 0.929 . S
C536 C528 1.378 . S
C536 C531 1.350 . S
C537 H524 0.929 . S
C537 C529 1.433 . S
C537 N539 1.384 . S
N538 C534 1.427 1_565 S
N538 C535 1.384 . S
N539 C531 1.427 . S
N539 C537 1.384 . S
H540 C546 0.930 . S
H541 C550 0.930 . S
H542 C555 0.929 . S
H543 C553 0.929 . S
H544 C548 0.929 . S
H545 C554 0.929 . S
C546 H540 0.930 . S
C546 C547 1.367 . S
C546 C554 1.378 . S
C547 C546 1.367 . S
C547 C555 1.433 . S
C548 H544 0.929 . S
C548 C550 1.378 . S
C548 C552 1.350 1_455 S
C549 C552 1.463 . S
C549 C554 1.350 . S
C549 N557 1.427 . S
C550 H541 0.930 . S
C550 C548 1.378 . S
C550 C551 1.367 . S
C551 C550 1.367 . S
C551 C553 1.433 . S
C552 C548 1.350 1_655 S
C552 C549 1.463 . S
C552 N556 1.427 1_655 S
C553 H543 0.929 . S
C553 C551 1.433 . S
C553 N556 1.384 . S
C554 H545 0.929 . S
C554 C546 1.378 . S
C554 C549 1.350 . S
C555 H542 0.929 . S
C555 C547 1.433 . S
C555 N557 1.384 . S
N556 C552 1.427 1_455 S
N556 C553 1.384 . S
N557 C549 1.427 . S
N557 C555 1.384 . S
H558 C564 0.930 . S
H559 C568 0.930 . S
H560 C573 0.929 . S
H561 C571 0.929 . S
H562 C566 0.929 . S
H563 C572 0.929 . S
C564 H558 0.930 . S
C564 C565 1.367 . S
C564 C572 1.378 . S
C565 C564 1.367 . S
C565 C573 1.433 . S
C566 H562 0.929 . S
C566 C568 1.378 . S
C566 C570 1.350 . S
C567 C570 1.463 . S
C567 C572 1.350 . S
C567 N575 1.427 . S
C568 H559 0.930 . S
C568 C566 1.378 . S
C568 C569 1.367 . S
C569 C568 1.367 . S
C569 C571 1.433 . S
C570 C566 1.350 . S
C570 C567 1.463 . S
C570 N574 1.427 . S
C571 H561 0.929 . S
C571 C569 1.433 . S
C571 N574 1.384 . S
C572 H563 0.929 . S
C572 C564 1.378 . S
C572 C567 1.350 . S
C573 H560 0.929 . S
C573 C565 1.433 . S
C573 N575 1.384 . S
N574 C570 1.427 . S
N574 C571 1.384 . S
N575 C567 1.427 . S
N575 C573 1.384 . S
H576 C582 0.930 . S
H577 C586 0.930 . S
H578 C591 0.929 . S
H579 C589 0.929 . S
H580 C584 0.929 . S
H581 C590 0.929 . S
C582 H576 0.930 . S
C582 C583 1.367 . S
C582 C590 1.378 . S
C583 C582 1.367 . S
C583 C591 1.433 . S
C584 H580 0.929 . S
C584 C586 1.378 . S
C584 C588 1.350 1_455 S
C585 C588 1.463 . S
C585 C590 1.350 . S
C585 N593 1.427 . S
C586 H577 0.930 . S
C586 C584 1.378 . S
C586 C587 1.367 . S
C587 C586 1.367 . S
C587 C589 1.433 . S
C588 C584 1.350 1_655 S
C588 C585 1.463 . S
C588 N592 1.427 1_655 S
C589 H579 0.929 . S
C589 C587 1.433 . S
C589 N592 1.384 . S
C590 H581 0.929 . S
C590 C582 1.378 . S
C590 C585 1.350 . S
C591 H578 0.929 . S
C591 C583 1.433 . S
C591 N593 1.384 . S
N592 C588 1.427 1_455 S
N592 C589 1.384 . S
N593 C585 1.427 . S
N593 C591 1.384 . S
H594 C600 0.930 . S
H595 C604 0.930 . S
H596 C609 0.929 . S
H597 C607 0.929 . S
H598 C602 0.929 . S
H599 C608 0.929 . S
C600 H594 0.930 . S
C600 C601 1.367 . S
C600 C608 1.378 . S
C601 C600 1.367 . S
C601 C609 1.433 . S
C602 H598 0.929 . S
C602 C604 1.378 . S
C602 C606 1.350 . S
C603 C606 1.463 . S
C603 C608 1.350 . S
C603 N611 1.427 . S
C604 H595 0.930 . S
C604 C602 1.378 . S
C604 C605 1.367 . S
C605 C604 1.367 . S
C605 C607 1.433 . S
C606 C602 1.350 . S
C606 C603 1.463 . S
C606 N610 1.427 . S
C607 H597 0.929 . S
C607 C605 1.433 . S
C607 N610 1.384 . S
C608 H599 0.929 . S
C608 C600 1.378 . S
C608 C603 1.350 . S
C609 H596 0.929 . S
C609 C601 1.433 . S
C609 N611 1.384 . S
N610 C606 1.427 . S
N610 C607 1.384 . S
N611 C603 1.427 . S
N611 C609 1.384 . S
H612 C618 0.930 . S
H613 C622 0.930 . S
H614 C627 0.929 . S
H615 C625 0.929 . S
H616 C620 0.929 . S
H617 C626 0.907 1_545 S
C618 H612 0.930 . S
C618 C619 1.367 . S
C618 C626 1.378 . S
C619 C618 1.367 . S
C619 C627 1.433 . S
C620 H616 0.929 . S
C620 C622 1.378 . S
C620 C624 1.350 . S
C621 C624 1.463 . S
C621 C626 1.350 1_545 S
C621 N629 1.427 1_545 S
C622 H613 0.930 . S
C622 C620 1.378 . S
C622 C623 1.367 . S
C623 C622 1.367 . S
C623 C625 1.433 . S
C624 C620 1.350 . S
C624 C621 1.463 . S
C624 N628 1.427 . S
C625 H615 0.929 . S
C625 C623 1.433 . S
C625 N628 1.384 . S
C626 H617 0.907 1_565 S
C626 C618 1.378 . S
C626 C621 1.350 1_565 S
C627 H614 0.929 . S
C627 C619 1.433 . S
C627 N629 1.384 . S
N628 C624 1.427 . S
N628 C625 1.384 . S
N629 C621 1.427 1_565 S
N629 C627 1.384 . S
H630 C636 0.930 . S
H631 C640 0.930 . S
H632 C645 0.929 . S
H633 C643 0.929 . S
H634 C638 0.929 . S
H635 C644 0.929 1_565 S
C636 H630 0.930 . S
C636 C637 1.367 . S
C636 C644 1.378 . S
C637 C636 1.367 . S
C637 C645 1.433 . S
C638 H634 0.929 . S
C638 C640 1.378 . S
C638 C642 1.350 . S
C639 C642 1.463 . S
C639 C644 1.350 1_565 S
C639 N647 1.427 1_565 S
C640 H631 0.930 . S
C640 C638 1.378 . S
C640 C641 1.367 . S
C641 C640 1.367 . S
C641 C643 1.433 . S
C642 C638 1.350 . S
C642 C639 1.463 . S
C642 N646 1.427 . S
C643 H633 0.929 . S
C643 C641 1.433 . S
C643 N646 1.384 . S
C644 H635 0.929 1_545 S
C644 C636 1.378 . S
C644 C639 1.350 1_545 S
C645 H632 0.929 . S
C645 C637 1.433 . S
C645 N647 1.384 . S
N646 C642 1.427 . S
N646 C643 1.384 . S
N647 C639 1.427 1_545 S
N647 C645 1.384 . S
H648 C654 0.930 . S
H649 C658 0.930 . S
H650 C663 0.929 . S
H651 C661 0.929 . S
H652 C656 0.929 . S
H653 C662 0.929 . S
C654 H648 0.930 . S
C654 C655 1.367 . S
C654 C662 1.378 . S
C655 C654 1.367 . S
C655 C663 1.433 . S
C656 H652 0.929 . S
C656 C658 1.378 . S
C656 C660 1.350 1_655 S
C657 C660 1.463 . S
C657 C662 1.350 . S
C657 N665 1.427 . S
C658 H649 0.930 . S
C658 C656 1.378 . S
C658 C659 1.367 . S
C659 C658 1.367 . S
C659 C661 1.433 . S
C660 C656 1.350 1_455 S
C660 C657 1.463 . S
C660 N664 1.427 1_455 S
C661 H651 0.929 . S
C661 C659 1.433 . S
C661 N664 1.384 . S
C662 H653 0.929 . S
C662 C654 1.378 . S
C662 C657 1.350 . S
C663 H650 0.929 . S
C663 C655 1.433 . S
C663 N665 1.384 . S
N664 C660 1.427 1_655 S
N664 C661 1.384 . S
N665 C657 1.427 . S
N665 C663 1.384 . S
H666 C672 0.930 . S
H667 C676 0.930 . S
H668 C681 0.929 . S
H669 C679 0.929 . S
H670 C674 0.929 . S
H671 C680 0.929 . S
C672 H666 0.930 . S
C672 C673 1.367 . S
C672 C680 1.378 . S
C673 C672 1.367 . S
C673 C681 1.433 . S
C674 H670 0.929 . S
C674 C676 1.378 . S
C674 C678 1.350 . S
C675 C678 1.463 . S
C675 C680 1.350 . S
C675 N683 1.427 . S
C676 H667 0.930 . S
C676 C674 1.378 . S
C676 C677 1.367 . S
C677 C676 1.367 . S
C677 C679 1.433 . S
C678 C674 1.350 . S
C678 C675 1.463 . S
C678 N682 1.427 . S
C679 H669 0.929 . S
C679 C677 1.433 . S
C679 N682 1.384 . S
C680 H671 0.929 . S
C680 C672 1.378 . S
C680 C675 1.350 . S
C681 H668 0.929 . S
C681 C673 1.433 . S
C681 N683 1.384 . S
N682 C678 1.427 . S
N682 C679 1.384 . S
N683 C675 1.427 . S
N683 C681 1.384 . S
H684 C690 0.930 . S
H685 C694 0.930 . S
H686 C699 0.929 . S
H687 C697 0.929 . S
H688 C692 0.929 . S
H689 C698 0.929 . S
C690 H684 0.930 . S
C690 C691 1.367 . S
C690 C698 1.378 . S
C691 C690 1.367 . S
C691 C699 1.433 . S
C692 H688 0.929 . S
C692 C694 1.378 . S
C692 C696 1.350 . S
C693 C696 1.463 . S
C693 C698 1.350 . S
C693 N701 1.427 . S
C694 H685 0.930 . S
C694 C692 1.378 . S
C694 C695 1.367 . S
C695 C694 1.367 . S
C695 C697 1.433 . S
C696 C692 1.350 . S
C696 C693 1.463 . S
C696 N700 1.427 . S
C697 H687 0.929 . S
C697 C695 1.433 . S
C697 N700 1.384 . S
C698 H689 0.929 . S
C698 C690 1.378 . S
C698 C693 1.350 . S
C699 H686 0.929 . S
C699 C691 1.433 . S
C699 N701 1.384 . S
N700 C696 1.427 . S
N700 C697 1.384 . S
N701 C693 1.427 . S
N701 C699 1.384 . S
H702 C708 0.930 . S
H703 C712 0.930 . S
H704 C717 0.929 . S
H705 C715 0.929 . S
H706 C710 0.929 . S
H707 C716 0.929 . S
C708 H702 0.930 . S
C708 C709 1.367 . S
C708 C716 1.378 . S
C709 C708 1.367 . S
C709 C717 1.433 . S
C710 H706 0.929 . S
C710 C712 1.378 . S
C710 C714 1.350 . S
C711 C714 1.463 . S
C711 C716 1.350 . S
C711 N719 1.427 . S
C712 H703 0.930 . S
C712 C710 1.378 . S
C712 C713 1.367 . S
C713 C712 1.367 . S
C713 C715 1.433 . S
C714 C710 1.350 . S
C714 C711 1.463 . S
C714 N718 1.427 . S
C715 H705 0.929 . S
C715 C713 1.433 . S
C715 N718 1.384 . S
C716 H707 0.929 . S
C716 C708 1.378 . S
C716 C711 1.350 . S
C717 H704 0.929 . S
C717 C709 1.433 . S
C717 N719 1.384 . S
N718 C714 1.427 . S
N718 C715 1.384 . S
N719 C711 1.427 . S
N719 C717 1.384 . S
H720 C726 0.930 . S
H721 C730 0.930 . S
H722 C735 0.929 . S
H723 C733 0.929 . S
H724 C728 0.929 . S
H725 C734 0.929 . S
C726 H720 0.930 . S
C726 C727 1.367 . S
C726 C734 1.378 . S
C727 C726 1.367 . S
C727 C735 1.433 . S
C728 H724 0.929 . S
C728 C730 1.378 . S
C728 C732 1.350 . S
C729 C732 1.463 . S
C729 C734 1.350 . S
C729 N737 1.427 . S
C730 H721 0.930 . S
C730 C728 1.378 . S
C730 C731 1.367 . S
C731 C730 1.367 . S
C731 C733 1.433 . S
C732 C728 1.350 . S
C732 C729 1.463 . S
C732 N736 1.427 . S
C733 H723 0.929 . S
C733 C731 1.433 . S
C733 N736 1.384 . S
C734 H725 0.929 . S
C734 C726 1.378 . S
C734 C729 1.350 . S
C735 H722 0.929 . S
C735 C727 1.433 . S
C735 N737 1.384 . S
N736 C732 1.427 . S
N736 C733 1.384 . S
N737 C729 1.427 . S
N737 C735 1.384 . S
H738 C744 0.930 . S
H739 C748 0.930 . S
H740 C753 0.929 . S
H741 C751 0.929 . S
H742 C746 0.929 . S
H743 C752 0.929 . S
C744 H738 0.930 . S
C744 C745 1.367 . S
C744 C752 1.378 . S
C745 C744 1.367 . S
C745 C753 1.433 . S
C746 H742 0.929 . S
C746 C748 1.378 . S
C746 C750 1.350 . S
C747 C750 1.463 . S
C747 C752 1.350 . S
C747 N755 1.427 . S
C748 H739 0.930 . S
C748 C746 1.378 . S
C748 C749 1.367 . S
C749 C748 1.367 . S
C749 C751 1.433 . S
C750 C746 1.350 . S
C750 C747 1.463 . S
C750 N754 1.427 . S
C751 H741 0.929 . S
C751 C749 1.433 . S
C751 N754 1.384 . S
C752 H743 0.929 . S
C752 C744 1.378 . S
C752 C747 1.350 . S
C753 H740 0.929 . S
C753 C745 1.433 . S
C753 N755 1.384 . S
N754 C750 1.427 . S
N754 C751 1.384 . S
N755 C747 1.427 . S
N755 C753 1.384 . S
H756 C762 0.930 . S
H757 C766 0.930 . S
H758 C771 0.929 . S
H759 C769 0.929 . S
H760 C764 0.929 . S
H761 C770 0.929 . S
C762 H756 0.930 . S
C762 C763 1.367 . S
C762 C770 1.378 . S
C763 C762 1.367 . S
C763 C771 1.433 . S
C764 H760 0.929 . S
C764 C766 1.378 . S
C764 C768 1.350 . S
C765 C768 1.463 . S
C765 C770 1.350 . S
C765 N773 1.427 . S
C766 H757 0.930 . S
C766 C764 1.378 . S
C766 C767 1.367 . S
C767 C766 1.367 . S
C767 C769 1.433 . S
C768 C764 1.350 . S
C768 C765 1.463 . S
C768 N772 1.427 . S
C769 H759 0.929 . S
C769 C767 1.433 . S
C769 N772 1.384 . S
C770 H761 0.929 . S
C770 C762 1.378 . S
C770 C765 1.350 . S
C771 H758 0.929 . S
C771 C763 1.433 . S
C771 N773 1.384 . S
N772 C768 1.427 . S
N772 C769 1.384 . S
N773 C765 1.427 . S
N773 C771 1.384 . S
H774 C780 0.930 . S
H775 C784 0.930 . S
H776 C789 0.929 . S
H777 C787 0.929 . S
H778 C782 0.929 . S
H779 C788 0.929 . S
C780 H774 0.930 . S
C780 C781 1.367 . S
C780 C788 1.378 . S
C781 C780 1.367 . S
C781 C789 1.433 . S
C782 H778 0.929 . S
C782 C784 1.378 . S
C782 C786 1.350 . S
C783 C786 1.463 . S
C783 C788 1.350 . S
C783 N791 1.427 . S
C784 H775 0.930 . S
C784 C782 1.378 . S
C784 C785 1.367 . S
C785 C784 1.367 . S
C785 C787 1.433 . S
C786 C782 1.350 . S
C786 C783 1.463 . S
C786 N790 1.427 . S
C787 H777 0.929 . S
C787 C785 1.433 . S
C787 N790 1.384 . S
C788 H779 0.929 . S
C788 C780 1.378 . S
C788 C783 1.350 . S
C789 H776 0.929 . S
C789 C781 1.433 . S
C789 N791 1.384 . S
N790 C786 1.427 . S
N790 C787 1.384 . S
N791 C783 1.427 . S
N791 C789 1.384 . S
H792 C798 0.930 . S
H793 C802 0.930 . S
H794 C807 0.929 . S
H795 C805 0.929 . S
H796 C800 0.929 . S
H797 C806 0.929 . S
C798 H792 0.930 . S
C798 C799 1.367 . S
C798 C806 1.378 . S
C799 C798 1.367 . S
C799 C807 1.433 . S
C800 H796 0.929 . S
C800 C802 1.378 . S
C800 C804 1.350 . S
C801 C804 1.463 . S
C801 C806 1.350 . S
C801 N809 1.427 . S
C802 H793 0.930 . S
C802 C800 1.378 . S
C802 C803 1.367 . S
C803 C802 1.367 . S
C803 C805 1.433 . S
C804 C800 1.350 . S
C804 C801 1.463 . S
C804 N808 1.427 . S
C805 H795 0.929 . S
C805 C803 1.433 . S
C805 N808 1.384 . S
C806 H797 0.929 . S
C806 C798 1.378 . S
C806 C801 1.350 . S
C807 H794 0.929 . S
C807 C799 1.433 . S
C807 N809 1.384 . S
N808 C804 1.427 . S
N808 C805 1.384 . S
N809 C801 1.427 . S
N809 C807 1.384 . S
H810 C816 0.930 . S
H811 C820 0.930 . S
H812 C825 0.929 . S
H813 C823 0.929 . S
H814 C818 0.929 . S
H815 C824 0.929 . S
C816 H810 0.930 . S
C816 C817 1.367 . S
C816 C824 1.378 . S
C817 C816 1.367 . S
C817 C825 1.433 . S
C818 H814 0.929 . S
C818 C820 1.378 . S
C818 C822 1.350 . S
C819 C822 1.463 . S
C819 C824 1.350 . S
C819 N827 1.427 . S
C820 H811 0.930 . S
C820 C818 1.378 . S
C820 C821 1.367 . S
C821 C820 1.367 . S
C821 C823 1.433 . S
C822 C818 1.350 . S
C822 C819 1.463 . S
C822 N826 1.427 . S
C823 H813 0.929 . S
C823 C821 1.433 . S
C823 N826 1.384 . S
C824 H815 0.929 . S
C824 C816 1.378 . S
C824 C819 1.350 . S
C825 H812 0.929 . S
C825 C817 1.433 . S
C825 N827 1.384 . S
N826 C822 1.427 . S
N826 C823 1.384 . S
N827 C819 1.427 . S
N827 C825 1.384 . S
H828 C834 0.930 . S
H829 C838 0.930 . S
H830 C843 0.929 . S
H831 C841 0.929 . S
H832 C836 0.929 . S
H833 C842 0.929 . S
C834 H828 0.930 . S
C834 C835 1.367 . S
C834 C842 1.378 . S
C835 C834 1.367 . S
C835 C843 1.433 . S
C836 H832 0.929 . S
C836 C838 1.378 . S
C836 C840 1.350 . S
C837 C840 1.463 . S
C837 C842 1.350 . S
C837 N845 1.427 . S
C838 H829 0.930 . S
C838 C836 1.378 . S
C838 C839 1.367 . S
C839 C838 1.367 . S
C839 C841 1.433 . S
C840 C836 1.350 . S
C840 C837 1.463 . S
C840 N844 1.427 . S
C841 H831 0.929 . S
C841 C839 1.433 . S
C841 N844 1.384 . S
C842 H833 0.929 . S
C842 C834 1.378 . S
C842 C837 1.350 . S
C843 H830 0.929 . S
C843 C835 1.433 . S
C843 N845 1.384 . S
N844 C840 1.427 . S
N844 C841 1.384 . S
N845 C837 1.427 . S
N845 C843 1.384 . S
H846 C852 0.900 1_556 S
H847 C856 0.930 . S
H848 C861 0.929 . S
H849 C859 0.909 1_556 S
H850 C854 0.929 . S
H851 C860 0.929 1_556 S
C852 H846 0.900 1_554 S
C852 C853 1.367 . S
C852 C860 1.378 . S
C853 C852 1.367 . S
C853 C861 1.433 . S
C854 H850 0.929 . S
C854 C856 1.378 . S
C854 C858 1.350 . S
C855 C858 1.463 . S
C855 C860 1.350 . S
C855 N863 1.427 . S
C856 H847 0.930 . S
C856 C854 1.378 . S
C856 C857 1.367 . S
C857 C856 1.367 . S
C857 C859 1.452 . S
C858 C854 1.350 . S
C858 C855 1.463 . S
C858 N862 1.427 . S
C859 H849 0.909 1_554 S
C859 C857 1.452 . S
C859 N862 1.387 . S
C860 H851 0.929 1_554 S
C860 C852 1.378 . S
C860 C855 1.350 . S
C861 H848 0.929 . S
C861 C853 1.433 . S
C861 N863 1.384 . S
N862 C858 1.427 . S
N862 C859 1.387 . S
N863 C855 1.427 . S
N863 C861 1.384 . S
H864 C870 0.930 . S
H865 C874 0.930 . S
H866 C879 0.929 . S
H867 C877 0.929 . S
H868 C872 0.929 . S
H869 C878 0.929 . S
C870 H864 0.930 . S
C870 C871 1.367 . S
C870 C878 1.378 . S
C871 C870 1.367 . S
C871 C879 1.433 . S
C872 H868 0.929 . S
C872 C874 1.378 . S
C872 C876 1.350 . S
C873 C876 1.463 . S
C873 C878 1.350 . S
C873 N881 1.427 . S
C874 H865 0.930 . S
C874 C872 1.378 . S
C874 C875 1.367 . S
C875 C874 1.367 . S
C875 C877 1.433 . S
C876 C872 1.350 . S
C876 C873 1.463 . S
C876 N880 1.427 . S
C877 H867 0.929 . S
C877 C875 1.433 . S
C877 N880 1.384 . S
C878 H869 0.929 . S
C878 C870 1.378 . S
C878 C873 1.350 . S
C879 H866 0.929 . S
C879 C871 1.433 . S
C879 N881 1.384 . S
N880 C876 1.427 . S
N880 C877 1.384 . S
N881 C873 1.427 . S
N881 C879 1.384 . S
H882 C888 0.930 . S
H883 C892 0.930 . S
H884 C897 0.929 . S
H885 C895 0.929 . S
H886 C890 0.929 . S
H887 C896 0.929 . S
C888 H882 0.930 . S
C888 C889 1.367 . S
C888 C896 1.378 . S
C889 C888 1.367 . S
C889 C897 1.433 . S
C890 H886 0.929 . S
C890 C892 1.378 . S
C890 C894 1.350 . S
C891 C894 1.463 . S
C891 C896 1.350 . S
C891 N899 1.427 . S
C892 H883 0.930 . S
C892 C890 1.378 . S
C892 C893 1.367 . S
C893 C892 1.367 . S
C893 C895 1.433 . S
C894 C890 1.350 . S
C894 C891 1.463 . S
C894 N898 1.427 . S
C895 H885 0.929 . S
C895 C893 1.433 . S
C895 N898 1.384 . S
C896 H887 0.929 . S
C896 C888 1.378 . S
C896 C891 1.350 . S
C897 H884 0.929 . S
C897 C889 1.433 . S
C897 N899 1.384 . S
N898 C894 1.427 . S
N898 C895 1.384 . S
N899 C891 1.427 . S
N899 C897 1.384 . S
H900 C906 0.930 . S
H901 C910 0.930 . S
H902 C915 0.929 . S
H903 C913 0.929 . S
H904 C908 0.929 . S
H905 C914 0.929 . S
C906 H900 0.930 . S
C906 C907 1.367 . S
C906 C914 1.378 . S
C907 C906 1.367 . S
C907 C915 1.433 . S
C908 H904 0.929 . S
C908 C910 1.378 . S
C908 C912 1.350 . S
C909 C912 1.463 . S
C909 C914 1.350 . S
C909 N917 1.427 . S
C910 H901 0.930 . S
C910 C908 1.378 . S
C910 C911 1.367 . S
C911 C910 1.367 . S
C911 C913 1.433 . S
C912 C908 1.350 . S
C912 C909 1.463 . S
C912 N916 1.427 . S
C913 H903 0.929 . S
C913 C911 1.433 . S
C913 N916 1.384 . S
C914 H905 0.929 . S
C914 C906 1.378 . S
C914 C909 1.350 . S
C915 H902 0.929 . S
C915 C907 1.433 . S
C915 N917 1.384 . S
N916 C912 1.427 . S
N916 C913 1.384 . S
N917 C909 1.427 . S
N917 C915 1.384 . S
H918 C924 0.930 . S
H919 C928 0.930 . S
H920 C933 0.929 . S
H921 C931 0.929 . S
H922 C926 0.929 . S
H923 C932 0.929 . S
C924 H918 0.930 . S
C924 C925 1.367 . S
C924 C932 1.378 . S
C925 C924 1.367 . S
C925 C933 1.433 . S
C926 H922 0.929 . S
C926 C928 1.378 . S
C926 C930 1.350 . S
C927 C930 1.463 . S
C927 C932 1.350 . S
C927 N935 1.427 . S
C928 H919 0.930 . S
C928 C926 1.378 . S
C928 C929 1.367 . S
C929 C928 1.367 . S
C929 C931 1.433 . S
C930 C926 1.350 . S
C930 C927 1.463 . S
C930 N934 1.427 . S
C931 H921 0.929 . S
C931 C929 1.433 . S
C931 N934 1.384 . S
C932 H923 0.929 . S
C932 C924 1.378 . S
C932 C927 1.350 . S
C933 H920 0.929 . S
C933 C925 1.433 . S
C933 N935 1.384 . S
N934 C930 1.427 . S
N934 C931 1.384 . S
N935 C927 1.427 . S
N935 C933 1.384 . S
H936 C942 0.930 . S
H937 C946 0.930 . S
H938 C951 0.929 . S
H939 C949 0.929 . S
H940 C944 0.929 . S
H941 C950 0.929 . S
C942 H936 0.930 . S
C942 C943 1.367 . S
C942 C950 1.378 . S
C943 C942 1.367 . S
C943 C951 1.433 . S
C944 H940 0.929 . S
C944 C946 1.378 . S
C944 C948 1.350 . S
C945 C948 1.463 . S
C945 C950 1.350 . S
C945 N953 1.427 . S
C946 H937 0.930 . S
C946 C944 1.378 . S
C946 C947 1.367 . S
C947 C946 1.367 . S
C947 C949 1.433 . S
C948 C944 1.350 . S
C948 C945 1.463 . S
C948 N952 1.427 . S
C949 H939 0.929 . S
C949 C947 1.433 . S
C949 N952 1.384 . S
C950 H941 0.929 . S
C950 C942 1.378 . S
C950 C945 1.350 . S
C951 H938 0.929 . S
C951 C943 1.433 . S
C951 N953 1.384 . S
N952 C948 1.427 . S
N952 C949 1.384 . S
N953 C945 1.427 . S
N953 C951 1.384 . S
H954 C960 0.930 . S
H955 C964 0.930 1_554 S
H956 C969 0.929 . S
H957 C967 0.929 . S
H958 C962 0.929 1_554 S
H959 C968 0.929 . S
C960 H954 0.930 . S
C960 C961 1.367 . S
C960 C968 1.378 . S
C961 C960 1.367 . S
C961 C969 1.433 . S
C962 H958 0.929 1_556 S
C962 C964 1.378 . S
C962 C966 1.350 . S
C963 C966 1.463 . S
C963 C968 1.350 . S
C963 N971 1.427 . S
C964 H955 0.930 1_556 S
C964 C962 1.378 . S
C964 C965 1.367 . S
C965 C964 1.367 . S
C965 C967 1.433 . S
C966 C962 1.350 . S
C966 C963 1.463 . S
C966 N970 1.427 . S
C967 H957 0.929 . S
C967 C965 1.433 . S
C967 N970 1.384 . S
C968 H959 0.929 . S
C968 C960 1.378 . S
C968 C963 1.350 . S
C969 H956 0.929 . S
C969 C961 1.433 . S
C969 N971 1.384 . S
N970 C966 1.427 . S
N970 C967 1.384 . S
N971 C963 1.427 . S
N971 C969 1.384 . S
H972 C978 0.930 . S
H973 C982 0.930 . S
H974 C987 0.929 1_554 S
H975 C985 0.929 . S
H976 C980 0.969 . S
H977 C986 0.929 . S
C978 H972 0.930 . S
C978 C979 1.367 . S
C978 C986 1.378 . S
C979 C978 1.367 . S
C979 C987 1.433 . S
C980 H976 0.969 . S
C980 C982 1.378 . S
C980 C984 1.350 . S
C981 C984 1.463 . S
C981 C986 1.350 . S
C981 N989 1.427 . S
C982 H973 0.930 . S
C982 C980 1.378 . S
C982 C983 1.367 . S
C983 C982 1.367 . S
C983 C985 1.433 . S
C984 C980 1.350 . S
C984 C981 1.463 . S
C984 N988 1.427 . S
C985 H975 0.929 . S
C985 C983 1.433 . S
C985 N988 1.384 . S
C986 H977 0.929 . S
C986 C978 1.378 . S
C986 C981 1.350 . S
C987 H974 0.929 1_556 S
C987 C979 1.433 . S
C987 N989 1.384 . S
N988 C984 1.427 . S
N988 C985 1.384 . S
N989 C981 1.427 . S
N989 C987 1.384 . S
H990 C996 0.959 . S
H991 C1000 0.930 . S
H992 C1005 0.929 . S
H993 C1003 0.921 1_554 S
H994 C998 0.929 . S
H995 C1004 0.929 1_554 S
C996 H990 0.959 . S
C996 C997 1.367 . S
C996 C1004 1.378 . S
C997 C996 1.367 . S
C997 C1005 1.433 . S
C998 H994 0.929 . S
C998 C1000 1.378 . S
C998 C1002 1.350 . S
C999 C1002 1.463 . S
C999 C1004 1.350 . S
C999 N1007 1.427 . S
C1000 H991 0.930 . S
C1000 C998 1.378 . S
C1000 C1001 1.367 . S
C1001 C1000 1.367 . S
C1001 C1003 1.441 . S
C1002 C998 1.350 . S
C1002 C999 1.463 . S
C1002 N1006 1.427 . S
C1003 H993 0.921 1_556 S
C1003 C1001 1.441 . S
C1003 N1006 1.385 . S
C1004 H995 0.929 1_556 S
C1004 C996 1.378 . S
C1004 C999 1.350 . S
C1005 H992 0.929 . S
C1005 C997 1.433 . S
C1005 N1007 1.384 . S
N1006 C1002 1.427 . S
N1006 C1003 1.385 . S
N1007 C999 1.427 . S
N1007 C1005 1.384 . S
H1008 C1014 0.930 . S
H1009 C1018 0.930 . S
H1010 C1023 0.929 . S
H1011 C1021 0.929 . S
H1012 C1016 0.929 . S
H1013 C1022 0.929 . S
C1014 H1008 0.930 . S
C1014 C1015 1.367 . S
C1014 C1022 1.378 . S
C1015 C1014 1.367 . S
C1015 C1023 1.433 . S
C1016 H1012 0.929 . S
C1016 C1018 1.378 . S
C1016 C1020 1.350 . S
C1017 C1020 1.463 . S
C1017 C1022 1.350 . S
C1017 N1025 1.427 . S
C1018 H1009 0.930 . S
C1018 C1016 1.378 . S
C1018 C1019 1.367 . S
C1019 C1018 1.367 . S
C1019 C1021 1.433 . S
C1020 C1016 1.350 . S
C1020 C1017 1.463 . S
C1020 N1024 1.427 . S
C1021 H1011 0.929 . S
C1021 C1019 1.433 . S
C1021 N1024 1.384 . S
C1022 H1013 0.929 . S
C1022 C1014 1.378 . S
C1022 C1017 1.350 . S
C1023 H1010 0.929 . S
C1023 C1015 1.433 . S
C1023 N1025 1.384 . S
N1024 C1020 1.427 . S
N1024 C1021 1.384 . S
N1025 C1017 1.427 . S
N1025 C1023 1.384 . S
H1026 C1032 0.930 . S
H1027 C1036 0.930 . S
H1028 C1041 0.929 . S
H1029 C1039 0.929 . S
H1030 C1034 0.929 . S
H1031 C1040 0.929 . S
C1032 H1026 0.930 . S
C1032 C1033 1.367 . S
C1032 C1040 1.378 . S
C1033 C1032 1.367 . S
C1033 C1041 1.433 . S
C1034 H1030 0.929 . S
C1034 C1036 1.378 . S
C1034 C1038 1.350 . S
C1035 C1038 1.463 . S
C1035 C1040 1.350 . S
C1035 N1043 1.427 . S
C1036 H1027 0.930 . S
C1036 C1034 1.378 . S
C1036 C1037 1.367 . S
C1037 C1036 1.367 . S
C1037 C1039 1.433 . S
C1038 C1034 1.350 . S
C1038 C1035 1.463 . S
C1038 N1042 1.427 . S
C1039 H1029 0.929 . S
C1039 C1037 1.433 . S
C1039 N1042 1.384 . S
C1040 H1031 0.929 . S
C1040 C1032 1.378 . S
C1040 C1035 1.350 . S
C1041 H1028 0.929 . S
C1041 C1033 1.433 . S
C1041 N1043 1.384 . S
N1042 C1038 1.427 . S
N1042 C1039 1.384 . S
N1043 C1035 1.427 . S
N1043 C1041 1.384 . S
H1044 C1050 0.930 . S
H1045 C1054 0.930 . S
H1046 C1059 0.929 . S
H1047 C1057 0.929 . S
H1048 C1052 0.929 . S
H1049 C1058 0.929 . S
C1050 H1044 0.930 . S
C1050 C1051 1.367 . S
C1050 C1058 1.378 . S
C1051 C1050 1.367 . S
C1051 C1059 1.433 . S
C1052 H1048 0.929 . S
C1052 C1054 1.378 . S
C1052 C1056 1.350 . S
C1053 C1056 1.463 . S
C1053 C1058 1.350 . S
C1053 N1061 1.427 . S
C1054 H1045 0.930 . S
C1054 C1052 1.378 . S
C1054 C1055 1.367 . S
C1055 C1054 1.367 . S
C1055 C1057 1.433 . S
C1056 C1052 1.350 . S
C1056 C1053 1.463 . S
C1056 N1060 1.427 . S
C1057 H1047 0.929 . S
C1057 C1055 1.433 . S
C1057 N1060 1.384 . S
C1058 H1049 0.929 . S
C1058 C1050 1.378 . S
C1058 C1053 1.350 . S
C1059 H1046 0.929 . S
C1059 C1051 1.433 . S
C1059 N1061 1.384 . S
N1060 C1056 1.427 . S
N1060 C1057 1.384 . S
N1061 C1053 1.427 . S
N1061 C1059 1.384 . S
H1062 C1068 0.930 . S
H1063 C1072 0.930 . S
H1064 C1077 0.929 . S
H1065 C1075 0.929 . S
H1066 C1070 0.929 . S
H1067 C1076 0.929 . S
C1068 H1062 0.930 . S
C1068 C1069 1.367 . S
C1068 C1076 1.378 . S
C1069 C1068 1.367 . S
C1069 C1077 1.433 . S
C1070 H1066 0.929 . S
C1070 C1072 1.378 . S
C1070 C1074 1.350 . S
C1071 C1074 1.463 . S
C1071 C1076 1.350 . S
C1071 N1079 1.427 . S
C1072 H1063 0.930 . S
C1072 C1070 1.378 . S
C1072 C1073 1.367 . S
C1073 C1072 1.367 . S
C1073 C1075 1.433 . S
C1074 C1070 1.350 . S
C1074 C1071 1.463 . S
C1074 N1078 1.427 . S
C1075 H1065 0.929 . S
C1075 C1073 1.433 . S
C1075 N1078 1.384 . S
C1076 H1067 0.929 . S
C1076 C1068 1.378 . S
C1076 C1071 1.350 . S
C1077 H1064 0.929 . S
C1077 C1069 1.433 . S
C1077 N1079 1.384 . S
N1078 C1074 1.427 . S
N1078 C1075 1.384 . S
N1079 C1071 1.427 . S
N1079 C1077 1.384 . S
H1080 C1086 0.930 . S
H1081 C1090 0.930 . S
H1082 C1095 0.929 . S
H1083 C1093 0.929 . S
H1084 C1088 0.929 . S
H1085 C1094 0.929 . S
C1086 H1080 0.930 . S
C1086 C1087 1.367 . S
C1086 C1094 1.378 . S
C1087 C1086 1.367 . S
C1087 C1095 1.433 . S
C1088 H1084 0.929 . S
C1088 C1090 1.378 . S
C1088 C1092 1.350 . S
C1089 C1092 1.463 . S
C1089 C1094 1.350 . S
C1089 N1097 1.427 . S
C1090 H1081 0.930 . S
C1090 C1088 1.378 . S
C1090 C1091 1.367 . S
C1091 C1090 1.367 . S
C1091 C1093 1.433 . S
C1092 C1088 1.350 . S
C1092 C1089 1.463 . S
C1092 N1096 1.427 . S
C1093 H1083 0.929 . S
C1093 C1091 1.433 . S
C1093 N1096 1.384 . S
C1094 H1085 0.929 . S
C1094 C1086 1.378 . S
C1094 C1089 1.350 . S
C1095 H1082 0.929 . S
C1095 C1087 1.433 . S
C1095 N1097 1.384 . S
N1096 C1092 1.427 . S
N1096 C1093 1.384 . S
N1097 C1089 1.427 . S
N1097 C1095 1.384 . S
H1098 C1104 0.930 . S
H1099 C1108 0.930 . S
H1100 C1113 0.929 . S
H1101 C1111 0.929 . S
H1102 C1106 0.929 . S
H1103 C1112 0.929 . S
C1104 H1098 0.930 . S
C1104 C1105 1.367 . S
C1104 C1112 1.378 . S
C1105 C1104 1.367 . S
C1105 C1113 1.433 . S
C1106 H1102 0.929 . S
C1106 C1108 1.378 . S
C1106 C1110 1.350 . S
C1107 C1110 1.463 . S
C1107 C1112 1.350 . S
C1107 N1115 1.427 . S
C1108 H1099 0.930 . S
C1108 C1106 1.378 . S
C1108 C1109 1.367 . S
C1109 C1108 1.367 . S
C1109 C1111 1.433 . S
C1110 C1106 1.350 . S
C1110 C1107 1.463 . S
C1110 N1114 1.427 . S
C1111 H1101 0.929 . S
C1111 C1109 1.433 . S
C1111 N1114 1.384 . S
C1112 H1103 0.929 . S
C1112 C1104 1.378 . S
C1112 C1107 1.350 . S
C1113 H1100 0.929 . S
C1113 C1105 1.433 . S
C1113 N1115 1.384 . S
N1114 C1110 1.427 . S
N1114 C1111 1.384 . S
N1115 C1107 1.427 . S
N1115 C1113 1.384 . S
H1116 C1122 0.930 . S
H1117 C1126 0.930 . S
H1118 C1131 0.929 . S
H1119 C1129 0.929 . S
H1120 C1124 0.929 . S
H1121 C1130 0.929 . S
C1122 H1116 0.930 . S
C1122 C1123 1.367 . S
C1122 C1130 1.378 . S
C1123 C1122 1.367 . S
C1123 C1131 1.433 . S
C1124 H1120 0.929 . S
C1124 C1126 1.378 . S
C1124 C1128 1.350 . S
C1125 C1128 1.463 . S
C1125 C1130 1.350 . S
C1125 N1133 1.427 . S
C1126 H1117 0.930 . S
C1126 C1124 1.378 . S
C1126 C1127 1.367 . S
C1127 C1126 1.367 . S
C1127 C1129 1.433 . S
C1128 C1124 1.350 . S
C1128 C1125 1.463 . S
C1128 N1132 1.427 . S
C1129 H1119 0.929 . S
C1129 C1127 1.433 . S
C1129 N1132 1.384 . S
C1130 H1121 0.929 . S
C1130 C1122 1.378 . S
C1130 C1125 1.350 . S
C1131 H1118 0.929 . S
C1131 C1123 1.433 . S
C1131 N1133 1.384 . S
N1132 C1128 1.427 . S
N1132 C1129 1.384 . S
N1133 C1125 1.427 . S
N1133 C1131 1.384 . S
H1134 C1140 0.930 . S
H1135 C1144 0.930 . S
H1136 C1149 0.929 . S
H1137 C1147 0.929 . S
H1138 C1142 0.929 . S
H1139 C1148 0.929 . S
C1140 H1134 0.930 . S
C1140 C1141 1.367 . S
C1140 C1148 1.378 . S
C1141 C1140 1.367 . S
C1141 C1149 1.433 1_545 S
C1142 H1138 0.929 . S
C1142 C1144 1.378 . S
C1142 C1146 1.350 . S
C1143 C1146 1.463 1_545 S
C1143 C1148 1.350 . S
C1143 N1151 1.427 1_545 S
C1144 H1135 0.930 . S
C1144 C1142 1.378 . S
C1144 C1145 1.367 . S
C1145 C1144 1.367 . S
C1145 C1147 1.433 1_565 S
C1146 C1142 1.350 . S
C1146 C1143 1.463 1_565 S
C1146 N1150 1.427 1_565 S
C1147 H1137 0.929 . S
C1147 C1145 1.433 1_545 S
C1147 N1150 1.384 . S
C1148 H1139 0.929 . S
C1148 C1140 1.378 . S
C1148 C1143 1.350 . S
C1149 H1136 0.929 . S
C1149 C1141 1.433 1_565 S
C1149 N1151 1.384 . S
N1150 C1146 1.427 1_545 S
N1150 C1147 1.384 . S
N1151 C1143 1.427 1_565 S
N1151 C1149 1.384 . S
H1152 C1158 0.930 . S
H1153 C1162 0.930 . S
H1154 C1167 0.929 . S
H1155 C1165 0.929 . S
H1156 C1160 0.929 . S
H1157 C1166 0.929 . S
C1158 H1152 0.930 . S
C1158 C1159 1.367 1_655 S
C1158 C1166 1.378 . S
C1159 C1158 1.367 1_455 S
C1159 C1167 1.433 . S
C1160 H1156 0.929 . S
C1160 C1162 1.378 . S
C1160 C1164 1.343 1_455 S
C1161 C1164 1.461 1_455 S
C1161 C1166 1.344 1_455 S
C1161 N1169 1.435 . S
C1162 H1153 0.930 . S
C1162 C1160 1.378 . S
C1162 C1163 1.367 1_455 S
C1163 C1162 1.367 1_655 S
C1163 C1165 1.433 . S
C1164 C1160 1.343 1_655 S
C1164 C1161 1.461 1_655 S
C1164 N1168 1.437 . S
C1165 H1155 0.929 . S
C1165 C1163 1.433 . S
C1165 N1168 1.384 . S
C1166 H1157 0.929 . S
C1166 C1158 1.378 . S
C1166 C1161 1.344 1_655 S
C1167 H1154 0.929 . S
C1167 C1159 1.433 . S
C1167 N1169 1.384 . S
N1168 C1164 1.437 . S
N1168 C1165 1.384 . S
N1169 C1161 1.435 . S
N1169 C1167 1.384 . S
H1170 C1176 0.930 . S
H1171 C1180 0.930 . S
H1172 C1185 0.929 . S
H1173 C1183 0.929 . S
H1174 C1178 0.929 . S
H1175 C1184 0.929 . S
C1176 H1170 0.930 . S
C1176 C1177 1.367 . S
C1176 C1184 1.378 . S
C1177 C1176 1.367 . S
C1177 C1185 1.433 . S
C1178 H1174 0.929 . S
C1178 C1180 1.378 . S
C1178 C1182 1.350 . S
C1179 C1182 1.463 . S
C1179 C1184 1.350 . S
C1179 N1187 1.427 . S
C1180 H1171 0.930 . S
C1180 C1178 1.378 . S
C1180 C1181 1.367 . S
C1181 C1180 1.367 . S
C1181 C1183 1.433 . S
C1182 C1178 1.350 . S
C1182 C1179 1.463 . S
C1182 N1186 1.427 . S
C1183 H1173 0.929 . S
C1183 C1181 1.433 . S
C1183 N1186 1.384 . S
C1184 H1175 0.929 . S
C1184 C1176 1.378 . S
C1184 C1179 1.350 . S
C1185 H1172 0.929 . S
C1185 C1177 1.433 . S
C1185 N1187 1.384 . S
N1186 C1182 1.427 . S
N1186 C1183 1.384 . S
N1187 C1179 1.427 . S
N1187 C1185 1.384 . S
H1188 C1194 0.930 . S
H1189 C1198 0.930 . S
H1190 C1203 0.929 . S
H1191 C1201 0.929 . S
H1192 C1196 0.929 . S
H1193 C1202 0.929 . S
C1194 H1188 0.930 . S
C1194 C1195 1.367 1_545 S
C1194 C1202 1.378 . S
C1195 C1194 1.367 1_565 S
C1195 C1203 1.433 . S
C1196 H1192 0.929 . S
C1196 C1198 1.378 . S
C1196 C1200 1.343 1_565 S
C1197 C1200 1.461 1_565 S
C1197 C1202 1.344 1_565 S
C1197 N1205 1.435 . S
C1198 H1189 0.930 . S
C1198 C1196 1.378 . S
C1198 C1199 1.367 1_565 S
C1199 C1198 1.367 1_545 S
C1199 C1201 1.433 . S
C1200 C1196 1.343 1_545 S
C1200 C1197 1.461 1_545 S
C1200 N1204 1.437 . S
C1201 H1191 0.929 . S
C1201 C1199 1.433 . S
C1201 N1204 1.384 . S
C1202 H1193 0.929 . S
C1202 C1194 1.378 . S
C1202 C1197 1.344 1_545 S
C1203 H1190 0.929 . S
C1203 C1195 1.433 . S
C1203 N1205 1.384 . S
N1204 C1200 1.437 . S
N1204 C1201 1.384 . S
N1205 C1197 1.435 . S
N1205 C1203 1.384 . S
H1206 C1212 0.930 . S
H1207 C1216 0.930 . S
H1208 C1221 0.929 . S
H1209 C1219 0.929 . S
H1210 C1214 0.929 . S
H1211 C1220 0.929 . S
C1212 H1206 0.930 . S
C1212 C1213 1.367 . S
C1212 C1220 1.378 . S
C1213 C1212 1.367 . S
C1213 C1221 1.433 . S
C1214 H1210 0.929 . S
C1214 C1216 1.378 . S
C1214 C1218 1.350 . S
C1215 C1218 1.463 1_655 S
C1215 C1220 1.350 . S
C1215 N1223 1.426 1_655 S
C1216 H1207 0.930 . S
C1216 C1214 1.378 . S
C1216 C1217 1.367 . S
C1217 C1216 1.367 . S
C1217 C1219 1.433 . S
C1218 C1214 1.350 . S
C1218 C1215 1.463 1_455 S
C1218 N1222 1.422 1_455 S
C1219 H1209 0.929 . S
C1219 C1217 1.433 . S
C1219 N1222 1.383 1_455 S
C1220 H1211 0.929 . S
C1220 C1212 1.378 . S
C1220 C1215 1.350 . S
C1221 H1208 0.929 . S
C1221 C1213 1.433 . S
C1221 N1223 1.383 1_655 S
N1222 C1218 1.422 1_655 S
N1222 C1219 1.383 1_655 S
N1223 C1215 1.426 1_455 S
N1223 C1221 1.383 1_455 S
H1224 C1230 0.930 . S
H1225 C1234 0.930 . S
H1226 C1239 0.929 . S
H1227 C1237 0.929 . S
H1228 C1232 0.929 . S
H1229 C1238 0.929 . S
C1230 H1224 0.930 . S
C1230 C1231 1.367 . S
C1230 C1238 1.378 . S
C1231 C1230 1.367 . S
C1231 C1239 1.433 . S
C1232 H1228 0.929 . S
C1232 C1234 1.378 . S
C1232 C1236 1.350 . S
C1233 C1236 1.463 . S
C1233 C1238 1.350 . S
C1233 N1241 1.427 . S
C1234 H1225 0.930 . S
C1234 C1232 1.378 . S
C1234 C1235 1.367 . S
C1235 C1234 1.367 . S
C1235 C1237 1.433 . S
C1236 C1232 1.350 . S
C1236 C1233 1.463 . S
C1236 N1240 1.427 . S
C1237 H1227 0.929 . S
C1237 C1235 1.433 . S
C1237 N1240 1.384 . S
C1238 H1229 0.929 . S
C1238 C1230 1.378 . S
C1238 C1233 1.350 . S
C1239 H1226 0.929 . S
C1239 C1231 1.433 . S
C1239 N1241 1.384 . S
N1240 C1236 1.427 . S
N1240 C1237 1.384 . S
N1241 C1233 1.427 . S
N1241 C1239 1.384 . S
H1242 C1248 0.930 . S
H1243 C1252 0.930 . S
H1244 C1257 0.929 . S
H1245 C1255 0.929 . S
H1246 C1250 0.929 . S
H1247 C1256 0.929 . S
C1248 H1242 0.930 . S
C1248 C1249 1.367 . S
C1248 C1256 1.378 . S
C1249 C1248 1.367 . S
C1249 C1257 1.433 . S
C1250 H1246 0.929 . S
C1250 C1252 1.378 . S
C1250 C1254 1.350 . S
C1251 C1254 1.463 . S
C1251 C1256 1.350 . S
C1251 N1259 1.427 . S
C1252 H1243 0.930 . S
C1252 C1250 1.378 . S
C1252 C1253 1.367 . S
C1253 C1252 1.367 . S
C1253 C1255 1.433 . S
C1254 C1250 1.350 . S
C1254 C1251 1.463 . S
C1254 N1258 1.427 . S
C1255 H1245 0.929 . S
C1255 C1253 1.433 . S
C1255 N1258 1.384 . S
C1256 H1247 0.929 . S
C1256 C1248 1.378 . S
C1256 C1251 1.350 . S
C1257 H1244 0.929 . S
C1257 C1249 1.433 . S
C1257 N1259 1.384 . S
N1258 C1254 1.427 . S
N1258 C1255 1.384 . S
N1259 C1251 1.427 . S
N1259 C1257 1.384 . S
H1260 C1266 0.930 . S
H1261 C1270 0.930 . S
H1262 C1275 0.929 . S
H1263 C1273 0.929 . S
H1264 C1268 0.929 . S
H1265 C1274 0.929 . S
C1266 H1260 0.930 . S
C1266 C1267 1.367 . S
C1266 C1274 1.378 . S
C1267 C1266 1.367 . S
C1267 C1275 1.433 . S
C1268 H1264 0.929 . S
C1268 C1270 1.378 . S
C1268 C1272 1.350 . S
C1269 C1272 1.463 . S
C1269 C1274 1.350 . S
C1269 N1277 1.427 . S
C1270 H1261 0.930 . S
C1270 C1268 1.378 . S
C1270 C1271 1.367 . S
C1271 C1270 1.367 . S
C1271 C1273 1.433 . S
C1272 C1268 1.350 . S
C1272 C1269 1.463 . S
C1272 N1276 1.427 . S
C1273 H1263 0.929 . S
C1273 C1271 1.433 . S
C1273 N1276 1.384 . S
C1274 H1265 0.929 . S
C1274 C1266 1.378 . S
C1274 C1269 1.350 . S
C1275 H1262 0.929 . S
C1275 C1267 1.433 . S
C1275 N1277 1.384 . S
N1276 C1272 1.427 . S
N1276 C1273 1.384 . S
N1277 C1269 1.427 . S
N1277 C1275 1.384 . S
H1278 C1284 0.930 . S
H1279 C1288 0.930 . S
H1280 C1293 0.929 . S
H1281 C1291 0.929 . S
H1282 C1286 0.929 . S
H1283 C1292 0.929 . S
C1284 H1278 0.930 . S
C1284 C1285 1.367 . S
C1284 C1292 1.378 . S
C1285 C1284 1.367 . S
C1285 C1293 1.433 . S
C1286 H1282 0.929 . S
C1286 C1288 1.378 . S
C1286 C1290 1.350 . S
C1287 C1290 1.463 . S
C1287 C1292 1.350 . S
C1287 N1295 1.427 . S
C1288 H1279 0.930 . S
C1288 C1286 1.378 . S
C1288 C1289 1.367 . S
C1289 C1288 1.367 . S
C1289 C1291 1.433 . S
C1290 C1286 1.350 . S
C1290 C1287 1.463 . S
C1290 N1294 1.427 . S
C1291 H1281 0.929 . S
C1291 C1289 1.433 . S
C1291 N1294 1.384 . S
C1292 H1283 0.929 . S
C1292 C1284 1.378 . S
C1292 C1287 1.350 . S
C1293 H1280 0.929 . S
C1293 C1285 1.433 . S
C1293 N1295 1.384 . S
N1294 C1290 1.427 . S
N1294 C1291 1.384 . S
N1295 C1287 1.427 . S
N1295 C1293 1.384 . S
H1296 C1302 0.930 . S
H1297 C1306 0.930 . S
H1298 C1311 0.929 . S
H1299 C1309 0.929 . S
H1300 C1304 0.929 . S
H1301 C1310 0.929 . S
C1302 H1296 0.930 . S
C1302 C1303 1.367 . S
C1302 C1310 1.378 . S
C1303 C1302 1.367 . S
C1303 C1311 1.433 . S
C1304 H1300 0.929 . S
C1304 C1306 1.378 . S
C1304 C1308 1.350 . S
C1305 C1308 1.463 . S
C1305 C1310 1.350 . S
C1305 N1313 1.427 . S
C1306 H1297 0.930 . S
C1306 C1304 1.378 . S
C1306 C1307 1.367 . S
C1307 C1306 1.367 . S
C1307 C1309 1.433 . S
C1308 C1304 1.350 . S
C1308 C1305 1.463 . S
C1308 N1312 1.427 . S
C1309 H1299 0.929 . S
C1309 C1307 1.433 . S
C1309 N1312 1.384 . S
C1310 H1301 0.929 . S
C1310 C1302 1.378 . S
C1310 C1305 1.350 . S
C1311 H1298 0.929 . S
C1311 C1303 1.433 . S
C1311 N1313 1.384 . S
N1312 C1308 1.427 . S
N1312 C1309 1.384 . S
N1313 C1305 1.427 . S
N1313 C1311 1.384 . S
H1314 C1320 0.930 . S
H1315 C1324 0.930 . S
H1316 C1329 0.929 . S
H1317 C1327 0.929 . S
H1318 C1322 0.929 . S
H1319 C1328 0.929 . S
C1320 H1314 0.930 . S
C1320 C1321 1.367 . S
C1320 C1328 1.378 . S
C1321 C1320 1.367 . S
C1321 C1329 1.433 . S
C1322 H1318 0.929 . S
C1322 C1324 1.378 . S
C1322 C1326 1.350 . S
C1323 C1326 1.463 . S
C1323 C1328 1.350 . S
C1323 N1331 1.427 . S
C1324 H1315 0.930 . S
C1324 C1322 1.378 . S
C1324 C1325 1.367 . S
C1325 C1324 1.367 . S
C1325 C1327 1.433 . S
C1326 C1322 1.350 . S
C1326 C1323 1.463 . S
C1326 N1330 1.427 . S
C1327 H1317 0.929 . S
C1327 C1325 1.433 . S
C1327 N1330 1.384 . S
C1328 H1319 0.929 . S
C1328 C1320 1.378 . S
C1328 C1323 1.350 . S
C1329 H1316 0.929 . S
C1329 C1321 1.433 . S
C1329 N1331 1.384 . S
N1330 C1326 1.427 . S
N1330 C1327 1.384 . S
N1331 C1323 1.427 . S
N1331 C1329 1.384 . S
H1332 C1338 0.930 . S
H1333 C1342 0.930 . S
H1334 C1347 0.929 . S
H1335 C1345 0.929 . S
H1336 C1340 0.929 . S
H1337 C1346 0.929 . S
C1338 H1332 0.930 . S
C1338 C1339 1.367 . S
C1338 C1346 1.378 . S
C1339 C1338 1.367 . S
C1339 C1347 1.433 . S
C1340 H1336 0.929 . S
C1340 C1342 1.378 . S
C1340 C1344 1.350 . S
C1341 C1344 1.463 . S
C1341 C1346 1.350 . S
C1341 N1349 1.427 . S
C1342 H1333 0.930 . S
C1342 C1340 1.378 . S
C1342 C1343 1.367 . S
C1343 C1342 1.367 . S
C1343 C1345 1.433 . S
C1344 C1340 1.350 . S
C1344 C1341 1.463 . S
C1344 N1348 1.427 . S
C1345 H1335 0.929 . S
C1345 C1343 1.433 . S
C1345 N1348 1.384 . S
C1346 H1337 0.929 . S
C1346 C1338 1.378 . S
C1346 C1341 1.350 . S
C1347 H1334 0.929 . S
C1347 C1339 1.433 . S
C1347 N1349 1.384 . S
N1348 C1344 1.427 . S
N1348 C1345 1.384 . S
N1349 C1341 1.427 . S
N1349 C1347 1.384 . S
H1350 C1356 0.930 . S
H1351 C1360 0.930 . S
H1352 C1365 0.929 . S
H1353 C1363 0.929 . S
H1354 C1358 0.929 . S
H1355 C1364 0.929 . S
C1356 H1350 0.930 . S
C1356 C1357 1.367 . S
C1356 C1364 1.378 . S
C1357 C1356 1.367 . S
C1357 C1365 1.433 . S
C1358 H1354 0.929 . S
C1358 C1360 1.378 . S
C1358 C1362 1.350 . S
C1359 C1362 1.463 . S
C1359 C1364 1.350 . S
C1359 N1367 1.427 . S
C1360 H1351 0.930 . S
C1360 C1358 1.378 . S
C1360 C1361 1.367 . S
C1361 C1360 1.367 . S
C1361 C1363 1.433 . S
C1362 C1358 1.350 . S
C1362 C1359 1.463 . S
C1362 N1366 1.427 . S
C1363 H1353 0.929 . S
C1363 C1361 1.433 . S
C1363 N1366 1.384 . S
C1364 H1355 0.929 . S
C1364 C1356 1.378 . S
C1364 C1359 1.350 . S
C1365 H1352 0.929 . S
C1365 C1357 1.433 . S
C1365 N1367 1.384 . S
N1366 C1362 1.427 . S
N1366 C1363 1.384 . S
N1367 C1359 1.427 . S
N1367 C1365 1.384 . S
H1368 C1374 0.930 . S
H1369 C1378 0.930 . S
H1370 C1383 0.929 . S
H1371 C1381 0.929 . S
H1372 C1376 0.929 . S
H1373 C1382 0.929 . S
C1374 H1368 0.930 . S
C1374 C1375 1.367 . S
C1374 C1382 1.378 . S
C1375 C1374 1.367 . S
C1375 C1383 1.433 . S
C1376 H1372 0.929 . S
C1376 C1378 1.378 . S
C1376 C1380 1.350 . S
C1377 C1380 1.463 . S
C1377 C1382 1.350 . S
C1377 N1385 1.427 . S
C1378 H1369 0.930 . S
C1378 C1376 1.378 . S
C1378 C1379 1.367 . S
C1379 C1378 1.367 . S
C1379 C1381 1.433 . S
C1380 C1376 1.350 . S
C1380 C1377 1.463 . S
C1380 N1384 1.427 . S
C1381 H1371 0.929 . S
C1381 C1379 1.433 . S
C1381 N1384 1.384 . S
C1382 H1373 0.929 . S
C1382 C1374 1.378 . S
C1382 C1377 1.350 . S
C1383 H1370 0.929 . S
C1383 C1375 1.433 . S
C1383 N1385 1.384 . S
N1384 C1380 1.427 . S
N1384 C1381 1.384 . S
N1385 C1377 1.427 . S
N1385 C1383 1.384 . S
H1386 C1392 0.930 . S
H1387 C1396 0.930 . S
H1388 C1401 0.929 . S
H1389 C1399 0.929 . S
H1390 C1394 0.929 . S
H1391 C1400 0.929 . S
C1392 H1386 0.930 . S
C1392 C1393 1.367 . S
C1392 C1400 1.378 . S
C1393 C1392 1.367 . S
C1393 C1401 1.433 . S
C1394 H1390 0.929 . S
C1394 C1396 1.378 . S
C1394 C1398 1.350 . S
C1395 C1398 1.463 . S
C1395 C1400 1.350 . S
C1395 N1403 1.427 . S
C1396 H1387 0.930 . S
C1396 C1394 1.378 . S
C1396 C1397 1.367 . S
C1397 C1396 1.367 . S
C1397 C1399 1.433 . S
C1398 C1394 1.350 . S
C1398 C1395 1.463 . S
C1398 N1402 1.427 . S
C1399 H1389 0.929 . S
C1399 C1397 1.433 . S
C1399 N1402 1.384 . S
C1400 H1391 0.929 . S
C1400 C1392 1.378 . S
C1400 C1395 1.350 . S
C1401 H1388 0.929 . S
C1401 C1393 1.433 . S
C1401 N1403 1.384 . S
N1402 C1398 1.427 . S
N1402 C1399 1.384 . S
N1403 C1395 1.427 . S
N1403 C1401 1.384 . S
H1404 C1410 0.930 . S
H1405 C1414 0.930 . S
H1406 C1419 0.929 . S
H1407 C1417 0.929 . S
H1408 C1412 0.929 . S
H1409 C1418 0.929 . S
C1410 H1404 0.930 . S
C1410 C1411 1.367 . S
C1410 C1418 1.378 . S
C1411 C1410 1.367 . S
C1411 C1419 1.433 . S
C1412 H1408 0.929 . S
C1412 C1414 1.378 . S
C1412 C1416 1.350 . S
C1413 C1416 1.463 . S
C1413 C1418 1.350 . S
C1413 N1421 1.427 . S
C1414 H1405 0.930 . S
C1414 C1412 1.378 . S
C1414 C1415 1.367 . S
C1415 C1414 1.367 . S
C1415 C1417 1.433 . S
C1416 C1412 1.350 . S
C1416 C1413 1.463 . S
C1416 N1420 1.427 . S
C1417 H1407 0.929 . S
C1417 C1415 1.433 . S
C1417 N1420 1.384 . S
C1418 H1409 0.929 . S
C1418 C1410 1.378 . S
C1418 C1413 1.350 . S
C1419 H1406 0.929 . S
C1419 C1411 1.433 . S
C1419 N1421 1.384 . S
N1420 C1416 1.427 . S
N1420 C1417 1.384 . S
N1421 C1413 1.427 . S
N1421 C1419 1.384 . S
H1422 C1428 0.930 . S
H1423 C1432 0.930 . S
H1424 C1437 0.929 . S
H1425 C1435 0.929 . S
H1426 C1430 0.929 . S
H1427 C1436 0.929 . S
C1428 H1422 0.930 . S
C1428 C1429 1.367 . S
C1428 C1436 1.378 . S
C1429 C1428 1.367 . S
C1429 C1437 1.433 . S
C1430 H1426 0.929 . S
C1430 C1432 1.378 . S
C1430 C1434 1.350 . S
C1431 C1434 1.463 . S
C1431 C1436 1.350 . S
C1431 N1439 1.427 . S
C1432 H1423 0.930 . S
C1432 C1430 1.378 . S
C1432 C1433 1.367 . S
C1433 C1432 1.367 . S
C1433 C1435 1.433 . S
C1434 C1430 1.350 . S
C1434 C1431 1.463 . S
C1434 N1438 1.427 . S
C1435 H1425 0.929 . S
C1435 C1433 1.433 . S
C1435 N1438 1.384 . S
C1436 H1427 0.929 . S
C1436 C1428 1.378 . S
C1436 C1431 1.350 . S
C1437 H1424 0.929 . S
C1437 C1429 1.433 . S
C1437 N1439 1.384 . S
N1438 C1434 1.427 . S
N1438 C1435 1.384 . S
N1439 C1431 1.427 . S
N1439 C1437 1.384 . S
H1440 C1446 0.930 . S
H1441 C1450 0.930 . S
H1442 C1455 0.929 . S
H1443 C1453 0.929 . S
H1444 C1448 0.929 . S
H1445 C1454 0.929 . S
C1446 H1440 0.930 . S
C1446 C1447 1.367 . S
C1446 C1454 1.378 . S
C1447 C1446 1.367 . S
C1447 C1455 1.433 . S
C1448 H1444 0.929 . S
C1448 C1450 1.378 . S
C1448 C1452 1.350 . S
C1449 C1452 1.463 . S
C1449 C1454 1.350 . S
C1449 N1457 1.427 . S
C1450 H1441 0.930 . S
C1450 C1448 1.378 . S
C1450 C1451 1.367 . S
C1451 C1450 1.367 . S
C1451 C1453 1.433 . S
C1452 C1448 1.350 . S
C1452 C1449 1.463 . S
C1452 N1456 1.427 . S
C1453 H1443 0.929 . S
C1453 C1451 1.433 . S
C1453 N1456 1.384 . S
C1454 H1445 0.929 . S
C1454 C1446 1.378 . S
C1454 C1449 1.350 . S
C1455 H1442 0.929 . S
C1455 C1447 1.433 . S
C1455 N1457 1.384 . S
N1456 C1452 1.427 . S
N1456 C1453 1.384 . S
N1457 C1449 1.427 . S
N1457 C1455 1.384 . S
H1458 C1464 0.930 . S
H1459 C1468 0.930 . S
H1460 C1473 0.929 . S
H1461 C1471 0.929 . S
H1462 C1466 0.929 . S
H1463 C1472 0.929 . S
C1464 H1458 0.930 . S
C1464 C1465 1.367 . S
C1464 C1472 1.378 . S
C1465 C1464 1.367 . S
C1465 C1473 1.433 . S
C1466 H1462 0.929 . S
C1466 C1468 1.378 . S
C1466 C1470 1.350 . S
C1467 C1470 1.463 . S
C1467 C1472 1.350 . S
C1467 N1475 1.427 . S
C1468 H1459 0.930 . S
C1468 C1466 1.378 . S
C1468 C1469 1.367 . S
C1469 C1468 1.367 . S
C1469 C1471 1.433 . S
C1470 C1466 1.350 . S
C1470 C1467 1.463 . S
C1470 N1474 1.427 . S
C1471 H1461 0.929 . S
C1471 C1469 1.433 . S
C1471 N1474 1.384 . S
C1472 H1463 0.929 . S
C1472 C1464 1.378 . S
C1472 C1467 1.350 . S
C1473 H1460 0.929 . S
C1473 C1465 1.433 . S
C1473 N1475 1.384 . S
N1474 C1470 1.427 . S
N1474 C1471 1.384 . S
N1475 C1467 1.427 . S
N1475 C1473 1.384 . S
H1476 C1482 0.930 . S
H1477 C1486 0.930 . S
H1478 C1491 0.929 . S
H1479 C1489 0.929 . S
H1480 C1484 0.929 . S
H1481 C1490 0.929 . S
C1482 H1476 0.930 . S
C1482 C1483 1.367 . S
C1482 C1490 1.378 . S
C1483 C1482 1.367 . S
C1483 C1491 1.433 . S
C1484 H1480 0.929 . S
C1484 C1486 1.378 . S
C1484 C1488 1.350 . S
C1485 C1488 1.463 . S
C1485 C1490 1.350 . S
C1485 N1493 1.427 . S
C1486 H1477 0.930 . S
C1486 C1484 1.378 . S
C1486 C1487 1.367 . S
C1487 C1486 1.367 . S
C1487 C1489 1.433 . S
C1488 C1484 1.350 . S
C1488 C1485 1.463 . S
C1488 N1492 1.427 . S
C1489 H1479 0.929 . S
C1489 C1487 1.433 . S
C1489 N1492 1.384 . S
C1490 H1481 0.929 . S
C1490 C1482 1.378 . S
C1490 C1485 1.350 . S
C1491 H1478 0.929 . S
C1491 C1483 1.433 . S
C1491 N1493 1.384 . S
N1492 C1488 1.427 . S
N1492 C1489 1.384 . S
N1493 C1485 1.427 . S
N1493 C1491 1.384 . S
H1494 C1500 0.930 . S
H1495 C1504 0.930 . S
H1496 C1509 0.929 . S
H1497 C1507 0.929 . S
H1498 C1502 0.929 . S
H1499 C1508 0.929 . S
C1500 H1494 0.930 . S
C1500 C1501 1.367 . S
C1500 C1508 1.378 . S
C1501 C1500 1.367 . S
C1501 C1509 1.433 . S
C1502 H1498 0.929 . S
C1502 C1504 1.378 . S
C1502 C1506 1.350 . S
C1503 C1506 1.463 . S
C1503 C1508 1.350 . S
C1503 N1511 1.427 . S
C1504 H1495 0.930 . S
C1504 C1502 1.378 . S
C1504 C1505 1.367 . S
C1505 C1504 1.367 . S
C1505 C1507 1.433 . S
C1506 C1502 1.350 . S
C1506 C1503 1.463 . S
C1506 N1510 1.427 . S
C1507 H1497 0.929 . S
C1507 C1505 1.433 . S
C1507 N1510 1.384 . S
C1508 H1499 0.929 . S
C1508 C1500 1.378 . S
C1508 C1503 1.350 . S
C1509 H1496 0.929 . S
C1509 C1501 1.433 . S
C1509 N1511 1.384 . S
N1510 C1506 1.427 . S
N1510 C1507 1.384 . S
N1511 C1503 1.427 . S
N1511 C1509 1.384 . S
H1512 C1518 0.930 . S
H1513 C1522 0.930 . S
H1514 C1527 0.929 . S
H1515 C1525 0.929 . S
H1516 C1520 0.929 . S
H1517 C1526 0.929 . S
C1518 H1512 0.930 . S
C1518 C1519 1.367 . S
C1518 C1526 1.378 . S
C1519 C1518 1.367 . S
C1519 C1527 1.433 . S
C1520 H1516 0.929 . S
C1520 C1522 1.378 . S
C1520 C1524 1.350 . S
C1521 C1524 1.463 . S
C1521 C1526 1.350 . S
C1521 N1529 1.427 . S
C1522 H1513 0.930 . S
C1522 C1520 1.378 . S
C1522 C1523 1.367 . S
C1523 C1522 1.367 . S
C1523 C1525 1.433 . S
C1524 C1520 1.350 . S
C1524 C1521 1.463 . S
C1524 N1528 1.427 . S
C1525 H1515 0.929 . S
C1525 C1523 1.433 . S
C1525 N1528 1.384 . S
C1526 H1517 0.929 . S
C1526 C1518 1.378 . S
C1526 C1521 1.350 . S
C1527 H1514 0.929 . S
C1527 C1519 1.433 . S
C1527 N1529 1.384 . S
N1528 C1524 1.427 . S
N1528 C1525 1.384 . S
N1529 C1521 1.427 . S
N1529 C1527 1.384 . S
H1530 C1536 0.930 . S
H1531 C1540 0.930 . S
H1532 C1545 0.929 . S
H1533 C1543 0.929 . S
H1534 C1538 0.929 . S
H1535 C1544 0.929 . S
C1536 H1530 0.930 . S
C1536 C1537 1.367 . S
C1536 C1544 1.378 . S
C1537 C1536 1.367 . S
C1537 C1545 1.433 . S
C1538 H1534 0.929 . S
C1538 C1540 1.378 . S
C1538 C1542 1.350 . S
C1539 C1542 1.463 . S
C1539 C1544 1.350 . S
C1539 N1547 1.427 . S
C1540 H1531 0.930 . S
C1540 C1538 1.378 . S
C1540 C1541 1.367 . S
C1541 C1540 1.367 . S
C1541 C1543 1.433 . S
C1542 C1538 1.350 . S
C1542 C1539 1.463 . S
C1542 N1546 1.427 . S
C1543 H1533 0.929 . S
C1543 C1541 1.433 . S
C1543 N1546 1.384 . S
C1544 H1535 0.929 . S
C1544 C1536 1.378 . S
C1544 C1539 1.350 . S
C1545 H1532 0.929 . S
C1545 C1537 1.433 . S
C1545 N1547 1.384 . S
N1546 C1542 1.427 . S
N1546 C1543 1.384 . S
N1547 C1539 1.427 . S
N1547 C1545 1.384 . S
H1548 C1554 0.930 . S
H1549 C1558 0.930 . S
H1550 C1563 0.929 . S
H1551 C1561 0.929 . S
H1552 C1556 0.929 . S
H1553 C1562 0.929 . S
C1554 H1548 0.930 . S
C1554 C1555 1.367 . S
C1554 C1562 1.378 . S
C1555 C1554 1.367 . S
C1555 C1563 1.433 . S
C1556 H1552 0.929 . S
C1556 C1558 1.378 . S
C1556 C1560 1.350 . S
C1557 C1560 1.463 . S
C1557 C1562 1.350 . S
C1557 N1565 1.427 . S
C1558 H1549 0.930 . S
C1558 C1556 1.378 . S
C1558 C1559 1.367 . S
C1559 C1558 1.367 . S
C1559 C1561 1.433 . S
C1560 C1556 1.350 . S
C1560 C1557 1.463 . S
C1560 N1564 1.427 . S
C1561 H1551 0.929 . S
C1561 C1559 1.433 . S
C1561 N1564 1.384 . S
C1562 H1553 0.929 . S
C1562 C1554 1.378 . S
C1562 C1557 1.350 . S
C1563 H1550 0.929 . S
C1563 C1555 1.433 . S
C1563 N1565 1.384 . S
N1564 C1560 1.427 . S
N1564 C1561 1.384 . S
N1565 C1557 1.427 . S
N1565 C1563 1.384 . S
H1566 C1572 0.930 . S
H1567 C1576 0.930 . S
H1568 C1581 0.929 . S
H1569 C1579 0.929 . S
H1570 C1574 0.929 . S
H1571 C1580 0.929 . S
C1572 H1566 0.930 . S
C1572 C1573 1.367 . S
C1572 C1580 1.378 . S
C1573 C1572 1.367 . S
C1573 C1581 1.433 . S
C1574 H1570 0.929 . S
C1574 C1576 1.378 . S
C1574 C1578 1.350 . S
C1575 C1578 1.463 . S
C1575 C1580 1.350 . S
C1575 N1583 1.427 . S
C1576 H1567 0.930 . S
C1576 C1574 1.378 . S
C1576 C1577 1.367 . S
C1577 C1576 1.367 . S
C1577 C1579 1.433 . S
C1578 C1574 1.350 . S
C1578 C1575 1.463 . S
C1578 N1582 1.427 . S
C1579 H1569 0.929 . S
C1579 C1577 1.433 . S
C1579 N1582 1.384 . S
C1580 H1571 0.929 . S
C1580 C1572 1.378 . S
C1580 C1575 1.350 . S
C1581 H1568 0.929 . S
C1581 C1573 1.433 . S
C1581 N1583 1.384 . S
N1582 C1578 1.427 . S
N1582 C1579 1.384 . S
N1583 C1575 1.427 . S
N1583 C1581 1.384 . S
H1584 C1590 0.930 . S
H1585 C1594 0.930 . S
H1586 C1599 0.929 . S
H1587 C1597 0.929 . S
H1588 C1592 0.929 . S
H1589 C1598 0.929 . S
C1590 H1584 0.930 . S
C1590 C1591 1.367 . S
C1590 C1598 1.378 . S
C1591 C1590 1.367 . S
C1591 C1599 1.433 . S
C1592 H1588 0.929 . S
C1592 C1594 1.378 . S
C1592 C1596 1.350 . S
C1593 C1596 1.463 . S
C1593 C1598 1.350 . S
C1593 N1601 1.427 . S
C1594 H1585 0.930 . S
C1594 C1592 1.378 . S
C1594 C1595 1.367 . S
C1595 C1594 1.367 . S
C1595 C1597 1.433 . S
C1596 C1592 1.350 . S
C1596 C1593 1.463 . S
C1596 N1600 1.427 . S
C1597 H1587 0.929 . S
C1597 C1595 1.433 . S
C1597 N1600 1.384 . S
C1598 H1589 0.929 . S
C1598 C1590 1.378 . S
C1598 C1593 1.350 . S
C1599 H1586 0.929 . S
C1599 C1591 1.433 . S
C1599 N1601 1.384 . S
N1600 C1596 1.427 . S
N1600 C1597 1.384 . S
N1601 C1593 1.427 . S
N1601 C1599 1.384 . S
H1602 C1608 0.930 . S
H1603 C1612 0.930 . S
H1604 C1617 0.929 . S
H1605 C1615 0.929 . S
H1606 C1610 0.929 . S
H1607 C1616 0.929 . S
C1608 H1602 0.930 . S
C1608 C1609 1.367 . S
C1608 C1616 1.378 . S
C1609 C1608 1.367 . S
C1609 C1617 1.433 . S
C1610 H1606 0.929 . S
C1610 C1612 1.378 . S
C1610 C1614 1.350 . S
C1611 C1614 1.463 . S
C1611 C1616 1.350 . S
C1611 N1619 1.427 . S
C1612 H1603 0.930 . S
C1612 C1610 1.378 . S
C1612 C1613 1.367 . S
C1613 C1612 1.367 . S
C1613 C1615 1.433 . S
C1614 C1610 1.350 . S
C1614 C1611 1.463 . S
C1614 N1618 1.427 . S
C1615 H1605 0.929 . S
C1615 C1613 1.433 . S
C1615 N1618 1.384 . S
C1616 H1607 0.929 . S
C1616 C1608 1.378 . S
C1616 C1611 1.350 . S
C1617 H1604 0.929 . S
C1617 C1609 1.433 . S
C1617 N1619 1.384 . S
N1618 C1614 1.427 . S
N1618 C1615 1.384 . S
N1619 C1611 1.427 . S
N1619 C1617 1.384 . S
H1620 C1626 0.930 . S
H1621 C1630 0.930 . S
H1622 C1635 0.929 . S
H1623 C1633 0.929 . S
H1624 C1628 0.929 . S
H1625 C1634 0.929 . S
C1626 H1620 0.930 . S
C1626 C1627 1.367 . S
C1626 C1634 1.378 . S
C1627 C1626 1.367 . S
C1627 C1635 1.433 . S
C1628 H1624 0.929 . S
C1628 C1630 1.378 . S
C1628 C1632 1.350 . S
C1629 C1632 1.463 . S
C1629 C1634 1.350 . S
C1629 N1637 1.427 . S
C1630 H1621 0.930 . S
C1630 C1628 1.378 . S
C1630 C1631 1.367 . S
C1631 C1630 1.367 . S
C1631 C1633 1.433 . S
C1632 C1628 1.350 . S
C1632 C1629 1.463 . S
C1632 N1636 1.427 . S
C1633 H1623 0.929 . S
C1633 C1631 1.433 . S
C1633 N1636 1.384 . S
C1634 H1625 0.929 . S
C1634 C1626 1.378 . S
C1634 C1629 1.350 . S
C1635 H1622 0.929 . S
C1635 C1627 1.433 . S
C1635 N1637 1.384 . S
N1636 C1632 1.427 . S
N1636 C1633 1.384 . S
N1637 C1629 1.427 . S
N1637 C1635 1.384 . S
H1638 C1644 0.930 . S
H1639 C1648 0.930 . S
H1640 C1653 0.929 . S
H1641 C1651 0.929 . S
H1642 C1646 0.929 . S
H1643 C1652 0.929 . S
C1644 H1638 0.930 . S
C1644 C1645 1.367 . S
C1644 C1652 1.378 . S
C1645 C1644 1.367 . S
C1645 C1653 1.433 . S
C1646 H1642 0.929 . S
C1646 C1648 1.378 . S
C1646 C1650 1.350 . S
C1647 C1650 1.463 . S
C1647 C1652 1.350 . S
C1647 N1655 1.427 . S
C1648 H1639 0.930 . S
C1648 C1646 1.378 . S
C1648 C1649 1.367 . S
C1649 C1648 1.367 . S
C1649 C1651 1.433 . S
C1650 C1646 1.350 . S
C1650 C1647 1.463 . S
C1650 N1654 1.427 . S
C1651 H1641 0.929 . S
C1651 C1649 1.433 . S
C1651 N1654 1.384 . S
C1652 H1643 0.929 . S
C1652 C1644 1.378 . S
C1652 C1647 1.350 . S
C1653 H1640 0.929 . S
C1653 C1645 1.433 . S
C1653 N1655 1.384 . S
N1654 C1650 1.427 . S
N1654 C1651 1.384 . S
N1655 C1647 1.427 . S
N1655 C1653 1.384 . S
H1656 C1662 0.930 . S
H1657 C1666 0.930 . S
H1658 C1671 0.929 . S
H1659 C1669 0.929 . S
H1660 C1664 0.929 1_455 S
H1661 C1670 0.929 1_655 S
C1662 H1656 0.930 . S
C1662 C1663 1.367 . S
C1662 C1670 1.378 . S
C1663 C1662 1.367 . S
C1663 C1671 1.433 . S
C1664 H1660 0.929 1_655 S
C1664 C1666 1.378 . S
C1664 C1668 1.350 . S
C1665 C1668 1.463 1_455 S
C1665 C1670 1.350 . S
C1665 N1673 1.427 . S
C1666 H1657 0.930 . S
C1666 C1664 1.378 . S
C1666 C1667 1.367 . S
C1667 C1666 1.367 . S
C1667 C1669 1.433 . S
C1668 C1664 1.350 . S
C1668 C1665 1.463 1_655 S
C1668 N1672 1.427 . S
C1669 H1659 0.929 . S
C1669 C1667 1.433 . S
C1669 N1672 1.384 . S
C1670 H1661 0.929 1_455 S
C1670 C1662 1.378 . S
C1670 C1665 1.350 . S
C1671 H1658 0.929 . S
C1671 C1663 1.433 . S
C1671 N1673 1.384 . S
N1672 C1668 1.427 . S
N1672 C1669 1.384 . S
N1673 C1665 1.427 . S
N1673 C1671 1.384 . S
H1674 C1680 0.930 . S
H1675 C1684 0.930 . S
H1676 C1689 0.929 . S
H1677 C1687 0.929 . S
H1678 C1682 0.929 . S
H1679 C1688 0.929 . S
C1680 H1674 0.930 . S
C1680 C1681 1.367 . S
C1680 C1688 1.378 . S
C1681 C1680 1.367 . S
C1681 C1689 1.433 . S
C1682 H1678 0.929 . S
C1682 C1684 1.378 . S
C1682 C1686 1.350 . S
C1683 C1686 1.463 . S
C1683 C1688 1.350 . S
C1683 N1691 1.427 . S
C1684 H1675 0.930 . S
C1684 C1682 1.378 . S
C1684 C1685 1.367 . S
C1685 C1684 1.367 . S
C1685 C1687 1.433 . S
C1686 C1682 1.350 . S
C1686 C1683 1.463 . S
C1686 N1690 1.427 . S
C1687 H1677 0.929 . S
C1687 C1685 1.433 . S
C1687 N1690 1.384 . S
C1688 H1679 0.929 . S
C1688 C1680 1.378 . S
C1688 C1683 1.350 . S
C1689 H1676 0.929 . S
C1689 C1681 1.433 . S
C1689 N1691 1.384 . S
N1690 C1686 1.427 . S
N1690 C1687 1.384 . S
N1691 C1683 1.427 . S
N1691 C1689 1.384 . S
H1692 C1698 0.930 . S
H1693 C1702 0.930 . S
H1694 C1707 0.929 . S
H1695 C1705 0.929 . S
H1696 C1700 0.929 . S
H1697 C1706 0.929 . S
C1698 H1692 0.930 . S
C1698 C1699 1.367 . S
C1698 C1706 1.378 . S
C1699 C1698 1.367 . S
C1699 C1707 1.433 . S
C1700 H1696 0.929 . S
C1700 C1702 1.378 . S
C1700 C1704 1.350 . S
C1701 C1704 1.463 1_545 S
C1701 C1706 1.350 . S
C1701 N1709 1.427 . S
C1702 H1693 0.930 . S
C1702 C1700 1.378 . S
C1702 C1703 1.367 . S
C1703 C1702 1.367 . S
C1703 C1705 1.433 . S
C1704 C1700 1.350 . S
C1704 C1701 1.463 1_565 S
C1704 N1708 1.427 . S
C1705 H1695 0.929 . S
C1705 C1703 1.433 . S
C1705 N1708 1.384 . S
C1706 H1697 0.929 . S
C1706 C1698 1.378 . S
C1706 C1701 1.350 . S
C1707 H1694 0.929 . S
C1707 C1699 1.433 . S
C1707 N1709 1.384 . S
N1708 C1704 1.427 . S
N1708 C1705 1.384 . S
N1709 C1701 1.427 . S
N1709 C1707 1.384 . S
H1710 C1716 0.930 . S
H1711 C1720 0.930 . S
H1712 C1725 0.929 . S
H1713 C1723 0.929 . S
H1714 C1718 0.929 . S
H1715 C1724 0.929 . S
C1716 H1710 0.930 . S
C1716 C1717 1.367 1_556 S
C1716 C1724 1.378 . S
C1717 C1716 1.367 1_554 S
C1717 C1725 1.433 . S
C1718 H1714 0.929 . S
C1718 C1720 1.378 . S
C1718 C1722 1.350 1_554 S
C1719 C1722 1.463 1_545 S
C1719 C1724 1.357 . S
C1719 N1727 1.419 1_556 S
C1720 H1711 0.930 . S
C1720 C1718 1.378 . S
C1720 C1721 1.367 1_554 S
C1721 C1720 1.367 1_556 S
C1721 C1723 1.433 . S
C1722 C1718 1.350 1_556 S
C1722 C1719 1.463 1_565 S
C1722 N1726 1.427 . S
C1723 H1713 0.929 . S
C1723 C1721 1.433 . S
C1723 N1726 1.384 . S
C1724 H1715 0.929 . S
C1724 C1716 1.378 . S
C1724 C1719 1.357 . S
C1725 H1712 0.929 . S
C1725 C1717 1.433 . S
C1725 N1727 1.384 . S
N1726 C1722 1.427 . S
N1726 C1723 1.384 . S
N1727 C1719 1.419 1_554 S
N1727 C1725 1.384 . S
H1728 C1734 0.930 . S
H1729 C1738 0.930 . S
H1730 C1743 0.929 . S
H1731 C1741 0.929 . S
H1732 C1736 0.920 1_655 S
H1733 C1742 0.929 . S
C1734 H1728 0.930 . S
C1734 C1735 1.367 . S
C1734 C1742 1.378 . S
C1735 C1734 1.367 . S
C1735 C1743 1.433 1_554 S
C1736 H1732 0.920 1_455 S
C1736 C1738 1.378 . S
C1736 C1740 1.350 . S
C1737 C1740 1.455 1_654 S
C1737 C1742 1.389 . S
C1737 N1745 1.393 1_554 S
C1738 H1729 0.930 . S
C1738 C1736 1.378 . S
C1738 C1739 1.367 . S
C1739 C1738 1.367 . S
C1739 C1741 1.433 1_556 S
C1740 C1736 1.350 . S
C1740 C1737 1.455 1_456 S
C1740 N1744 1.427 1_556 S
C1741 H1731 0.929 . S
C1741 C1739 1.433 1_554 S
C1741 N1744 1.384 . S
C1742 H1733 0.929 . S
C1742 C1734 1.378 . S
C1742 C1737 1.389 . S
C1743 H1730 0.929 . S
C1743 C1735 1.433 1_556 S
C1743 N1745 1.384 . S
N1744 C1740 1.427 1_554 S
N1744 C1741 1.384 . S
N1745 C1737 1.393 1_556 S
N1745 C1743 1.384 . S
H1746 C1752 0.930 . S
H1747 C1756 0.930 . S
H1748 C1761 0.929 . S
H1749 C1759 0.929 . S
H1750 C1754 0.929 . S
H1751 C1760 0.929 . S
C1752 H1746 0.930 . S
C1752 C1753 1.367 . S
C1752 C1760 1.378 . S
C1753 C1752 1.367 . S
C1753 C1761 1.433 . S
C1754 H1750 0.929 . S
C1754 C1756 1.378 . S
C1754 C1758 1.351 . S
C1755 C1758 1.461 1_556 S
C1755 C1760 1.350 . S
C1755 N1763 1.427 . S
C1756 H1747 0.930 . S
C1756 C1754 1.378 . S
C1756 C1757 1.367 . S
C1757 C1756 1.367 . S
C1757 C1759 1.433 . S
C1758 C1754 1.351 . S
C1758 C1755 1.461 1_554 S
C1758 N1762 1.427 . S
C1759 H1749 0.929 . S
C1759 C1757 1.433 . S
C1759 N1762 1.387 . S
C1760 H1751 0.929 . S
C1760 C1752 1.378 . S
C1760 C1755 1.350 . S
C1761 H1748 0.929 . S
C1761 C1753 1.433 . S
C1761 N1763 1.384 . S
N1762 C1758 1.427 . S
N1762 C1759 1.387 . S
N1763 C1755 1.427 . S
N1763 C1761 1.384 . S
C475 C5 0.919 . S
C479 C23 1.111 . S
C493 C18 0.926 . S
C497 C36 1.112 . S
C511 C10 1.116 . S
C515 C31 0.939 . S
C529 C44 0.934 . S
C533 C75 1.112 . S
C547 C57 0.900 . S
C551 C49 1.115 . S
C565 C62 1.112 . S
C569 C70 0.925 . S
C583 C83 0.908 . S
C587 C99 1.048 . S
C601 C112 1.048 . S
C605 C96 0.905 . S
C619 C86 1.046 . S
C623 C109 0.918 . S
C637 C151 1.040 . S
C641 C122 0.931 . S
C655 C135 0.900 . S
C659 C125 1.049 . S
C673 C148 0.924 . S
C677 C138 1.044 . S
C691 C179 1.113 . S
C695 C161 0.906 . S
C709 C174 0.896 . S
C713 C192 1.116 . S
C727 C187 0.927 . S
C731 C166 1.112 . S
C745 C200 0.900 . S
C749 C231 1.119 . S
C763 C213 0.919 . S
C767 C205 1.112 . S
C781 C226 0.922 . S
C785 C218 1.118 . S
C799 C255 1.033 . S
C803 C239 0.908 . S
C817 C252 0.898 . S
C821 C268 1.048 . S
C835 C242 1.038 . S
C839 C265 0.897 . S
C853 C307 1.038 . S
C857 C278 0.896 . S
C871 C291 0.909 . S
C875 C281 1.048 . S
C889 C294 1.047 . S
C893 C304 0.894 . S
C907 C335 1.114 . S
C911 C317 0.939 . S
C925 C330 0.896 . S
C929 C348 1.116 . S
C943 C343 0.896 . S
C947 C322 1.116 . S
C961 C387 1.112 . S
C965 C356 0.920 . S
C979 C369 0.897 . S
C983 C361 1.119 . S
C997 C374 1.119 . S
C1001 C382 0.903 . S
C1015 C395 0.933 . S
C1019 C411 1.037 . S
C1033 C408 0.892 . S
C1037 C424 1.046 . S
C1051 C421 0.934 . S
C1055 C398 1.038 . S
C1069 C463 1.036 . S
C1073 C434 0.934 . S
C1087 C437 1.048 . S
C1091 C447 0.898 . S
C1105 C460 0.933 . S
C1109 C450 1.038 . S
C1123 C47 1.516 . S
C1127 C8 1.507 . S
C1141 C21 1.515 . S
C1145 C60 1.522 . S
C1159 C73 1.516 . S
C1163 C34 1.508 . S
C1177 C127 1.534 . S
C1181 C88 1.544 . S
C1195 C101 1.547 . S
C1199 C140 1.539 . S
C1213 C153 1.547 . S
C1217 C114 1.535 . S
C1231 C164 1.513 . S
C1235 C203 1.508 . S
C1249 C177 1.509 . S
C1253 C216 1.514 . S
C1267 C190 1.518 . S
C1271 C229 1.508 . S
C1285 C283 1.546 . S
C1289 C244 1.534 . S
C1303 C296 1.546 . S
C1307 C257 1.542 . S
C1321 C270 1.541 . S
C1325 C309 1.546 . S
C1339 C359 1.513 . S
C1343 C320 1.522 . S
C1357 C372 1.522 . S
C1361 C333 1.515 . S
C1375 C346 1.521 . S
C1379 C385 1.509 . S
C1393 C400 1.547 . S
C1397 C439 1.535 . S
C1411 C452 1.538 . S
C1415 C413 1.537 . S
C1429 C426 1.542 . S
C1433 C465 1.535 . S
C1447 C0 1.488 . S
C1451 C234 1.604 . S
C1465 C13 1.479 . S
C1469 C247 1.587 . S
C1483 C26 1.485 . S
C1487 C260 1.588 . S
C1501 C429 1.591 . S
C1505 C39 1.492 . S
C1519 C442 1.592 . S
C1523 C52 1.477 . S
C1537 C65 1.478 . S
C1541 C455 1.588 . S
C1555 C78 1.593 . S
C1559 C312 1.477 . S
C1573 C325 1.481 . S
C1577 C91 1.587 . S
C1591 C338 1.482 . S
C1595 C104 1.588 . S
C1609 C195 1.479 . S
C1613 C117 1.587 . S
C1627 C208 1.481 . S
C1631 C130 1.588 . S
C1645 C221 1.501 . S
C1649 C143 1.601 . S
C1663 C390 1.594 . S
C1667 C156 1.496 . S
C1681 C169 1.486 . S
C1685 C403 1.588 . S
C1699 C182 1.479 . S
C1703 C416 1.588 . S
C1717 C273 1.604 . S
C1721 C351 1.488 . S
C1735 C286 1.591 . S
C1739 C364 1.490 . S
C1753 C377 1.476 . S
C1757 C299 1.592 . S
