# Generated by pormake.
# Topology umk, (4)-cn, num edge types: 1
# Building blocks:
#     Node 0, Type 0, BuildingBlock: GALJAG_clean_sbu_0, # of connection points: 4
#     Node 1, Type 0, BuildingBlock: GALJAG_clean_sbu_0, # of connection points: 4
#     Node 2, Type 0, BuildingBlock: GALJAG_clean_sbu_0, # of connection points: 4
#     Node 3, Type 0, BuildingBlock: GALJAG_clean_sbu_0, # of connection points: 4
#     Node 4, Type 0, BuildingBlock: GALJAG_clean_sbu_0, # of connection points: 4
#     Node 5, Type 0, BuildingBlock: GALJAG_clean_sbu_0, # of connection points: 4
#     Node 6, Type 0, BuildingBlock: GALJAG_clean_sbu_0, # of connection points: 4
#     Node 7, Type 0, BuildingBlock: GALJAG_clean_sbu_0, # of connection points: 4
#     Node 8, Type 0, BuildingBlock: GALJAG_clean_sbu_0, # of connection points: 4
#     Node 9, Type 0, BuildingBlock: GALJAG_clean_sbu_0, # of connection points: 4
#     Node 10, Type 0, BuildingBlock: GALJAG_clean_sbu_0, # of connection points: 4
#     Node 11, Type 0, BuildingBlock: GALJAG_clean_sbu_0, # of connection points: 4
#     Node 12, Type 0, BuildingBlock: GALJAG_clean_sbu_0, # of connection points: 4
#     Node 13, Type 0, BuildingBlock: GALJAG_clean_sbu_0, # of connection points: 4
#     Node 14, Type 0, BuildingBlock: GALJAG_clean_sbu_0, # of connection points: 4
#     Node 15, Type 0, BuildingBlock: GALJAG_clean_sbu_0, # of connection points: 4
#     Node 16, Type 0, BuildingBlock: GALJAG_clean_sbu_0, # of connection points: 4
#     Node 17, Type 0, BuildingBlock: GALJAG_clean_sbu_0, # of connection points: 4
#     Node 18, Type 0, BuildingBlock: GALJAG_clean_sbu_0, # of connection points: 4
#     Node 19, Type 0, BuildingBlock: GALJAG_clean_sbu_0, # of connection points: 4
#     Node 20, Type 0, BuildingBlock: GALJAG_clean_sbu_0, # of connection points: 4
#     Node 21, Type 0, BuildingBlock: GALJAG_clean_sbu_0, # of connection points: 4
#     Node 22, Type 0, BuildingBlock: GALJAG_clean_sbu_0, # of connection points: 4
#     Node 23, Type 0, BuildingBlock: GALJAG_clean_sbu_0, # of connection points: 4
#     Edge 24, Type (0, 0), BuildingBlock: AJUNOK_clean_linker_0, # of connection points: 2
#     Edge 25, Type (0, 0), BuildingBlock: AJUNOK_clean_linker_0, # of connection points: 2
#     Edge 26, Type (0, 0), BuildingBlock: AJUNOK_clean_linker_0, # of connection points: 2
#     Edge 27, Type (0, 0), BuildingBlock: AJUNOK_clean_linker_0, # of connection points: 2
#     Edge 28, Type (0, 0), BuildingBlock: AJUNOK_clean_linker_0, # of connection points: 2
#     Edge 29, Type (0, 0), BuildingBlock: AJUNOK_clean_linker_0, # of connection points: 2
#     Edge 30, Type (0, 0), BuildingBlock: AJUNOK_clean_linker_0, # of connection points: 2
#     Edge 31, Type (0, 0), BuildingBlock: AJUNOK_clean_linker_0, # of connection points: 2
#     Edge 32, Type (0, 0), BuildingBlock: AJUNOK_clean_linker_0, # of connection points: 2
#     Edge 33, Type (0, 0), BuildingBlock: AJUNOK_clean_linker_0, # of connection points: 2
#     Edge 34, Type (0, 0), BuildingBlock: AJUNOK_clean_linker_0, # of connection points: 2
#     Edge 35, Type (0, 0), BuildingBlock: AJUNOK_clean_linker_0, # of connection points: 2
#     Edge 36, Type (0, 0), BuildingBlock: AJUNOK_clean_linker_0, # of connection points: 2
#     Edge 37, Type (0, 0), BuildingBlock: AJUNOK_clean_linker_0, # of connection points: 2
#     Edge 38, Type (0, 0), BuildingBlock: AJUNOK_clean_linker_0, # of connection points: 2
#     Edge 39, Type (0, 0), BuildingBlock: AJUNOK_clean_linker_0, # of connection points: 2
#     Edge 40, Type (0, 0), BuildingBlock: AJUNOK_clean_linker_0, # of connection points: 2
#     Edge 41, Type (0, 0), BuildingBlock: AJUNOK_clean_linker_0, # of connection points: 2
#     Edge 42, Type (0, 0), BuildingBlock: AJUNOK_clean_linker_0, # of connection points: 2
#     Edge 43, Type (0, 0), BuildingBlock: AJUNOK_clean_linker_0, # of connection points: 2
#     Edge 44, Type (0, 0), BuildingBlock: AJUNOK_clean_linker_0, # of connection points: 2
#     Edge 45, Type (0, 0), BuildingBlock: AJUNOK_clean_linker_0, # of connection points: 2
#     Edge 46, Type (0, 0), BuildingBlock: AJUNOK_clean_linker_0, # of connection points: 2
#     Edge 47, Type (0, 0), BuildingBlock: AJUNOK_clean_linker_0, # of connection points: 2
#     Edge 48, Type (0, 0), BuildingBlock: AJUNOK_clean_linker_0, # of connection points: 2
#     Edge 49, Type (0, 0), BuildingBlock: AJUNOK_clean_linker_0, # of connection points: 2
#     Edge 50, Type (0, 0), BuildingBlock: AJUNOK_clean_linker_0, # of connection points: 2
#     Edge 51, Type (0, 0), BuildingBlock: AJUNOK_clean_linker_0, # of connection points: 2
#     Edge 52, Type (0, 0), BuildingBlock: AJUNOK_clean_linker_0, # of connection points: 2
#     Edge 53, Type (0, 0), BuildingBlock: AJUNOK_clean_linker_0, # of connection points: 2
#     Edge 54, Type (0, 0), BuildingBlock: AJUNOK_clean_linker_0, # of connection points: 2
#     Edge 55, Type (0, 0), BuildingBlock: AJUNOK_clean_linker_0, # of connection points: 2
#     Edge 56, Type (0, 0), BuildingBlock: AJUNOK_clean_linker_0, # of connection points: 2
#     Edge 57, Type (0, 0), BuildingBlock: AJUNOK_clean_linker_0, # of connection points: 2
#     Edge 58, Type (0, 0), BuildingBlock: AJUNOK_clean_linker_0, # of connection points: 2
#     Edge 59, Type (0, 0), BuildingBlock: AJUNOK_clean_linker_0, # of connection points: 2
#     Edge 60, Type (0, 0), BuildingBlock: AJUNOK_clean_linker_0, # of connection points: 2
#     Edge 61, Type (0, 0), BuildingBlock: AJUNOK_clean_linker_0, # of connection points: 2
#     Edge 62, Type (0, 0), BuildingBlock: AJUNOK_clean_linker_0, # of connection points: 2
#     Edge 63, Type (0, 0), BuildingBlock: AJUNOK_clean_linker_0, # of connection points: 2
#     Edge 64, Type (0, 0), BuildingBlock: AJUNOK_clean_linker_0, # of connection points: 2
#     Edge 65, Type (0, 0), BuildingBlock: AJUNOK_clean_linker_0, # of connection points: 2
#     Edge 66, Type (0, 0), BuildingBlock: AJUNOK_clean_linker_0, # of connection points: 2
#     Edge 67, Type (0, 0), BuildingBlock: AJUNOK_clean_linker_0, # of connection points: 2
#     Edge 68, Type (0, 0), BuildingBlock: AJUNOK_clean_linker_0, # of connection points: 2
#     Edge 69, Type (0, 0), BuildingBlock: AJUNOK_clean_linker_0, # of connection points: 2
#     Edge 70, Type (0, 0), BuildingBlock: AJUNOK_clean_linker_0, # of connection points: 2
#     Edge 71, Type (0, 0), BuildingBlock: AJUNOK_clean_linker_0, # of connection points: 2
# Relax obj value: 0.088
# Max RMSD: 0.064
# Mean RMSD: 0.064
data_MOF--net-umk--node1-GALJAG_clean_sbu_0--edge1-AJUNOK_clean_linker_0
_symmetry_space_group_name_H-M    P1
_symmetry_Int_Tables_number       1
_symmetry_cell_setting            triclinic
loop_
_symmetry_equiv_pos_as_xyz
'x, y, z'
_cell_length_a     47.119928
_cell_length_b     47.08313
_cell_length_c     34.451659
_cell_angle_alpha  89.967739
_cell_angle_beta   90.052472
_cell_angle_gamma 120.09081
loop_
_atom_site_label
_atom_site_type_symbol
_atom_site_fract_x
_atom_site_fract_y
_atom_site_fract_z
_atom_type_partial_charge
In0 In 0.33296 0.47183 0.09901 0.0
O1 O 0.28615 0.44165 0.06325 0.0
O2 O 0.29985 0.49071 0.07836 0.0
C3 C 0.36027 0.43338 0.10077 0.0
C4 C 0.37831 0.51983 0.05373 0.0
C5 C 0.3189 0.47267 0.17512 0.0
O6 O 0.33179 0.42319 0.08735 0.0
O7 O 0.37432 0.46244 0.11325 0.0
O8 O 0.34 0.49796 0.15732 0.0
O9 O 0.3043 0.44739 0.15416 0.0
C10 C 0.28015 0.4649 0.06036 0.0
O11 O 0.37571 0.52406 0.08954 0.0
O12 O 0.35831 0.49152 0.04124 0.0
In13 In 0.86186 0.33624 0.59818 0.0
O14 O 0.84647 0.28859 0.56379 0.0
O15 O 0.81303 0.30619 0.56836 0.0
C16 C 0.92684 0.36043 0.6064 0.0
C17 C 0.86336 0.38455 0.55466 0.0
C18 C 0.84301 0.32362 0.67346 0.0
O19 O 0.9093 0.33541 0.58568 0.0
O20 O 0.91136 0.37251 0.62278 0.0
O21 O 0.84472 0.34756 0.655 0.0
O22 O 0.84981 0.30533 0.65352 0.0
C23 C 0.81888 0.28492 0.5545 0.0
O24 O 0.8428 0.37064 0.58161 0.0
O25 O 0.88343 0.37453 0.55011 0.0
In26 In 0.52792 0.86361 0.09308 0.0
O27 O 0.55732 0.84709 0.05524 0.0
O28 O 0.5095 0.81151 0.07392 0.0
C29 C 0.56746 0.92934 0.09442 0.0
C30 C 0.47904 0.85902 0.04787 0.0
C31 C 0.52621 0.85097 0.17004 0.0
O32 O 0.57732 0.91046 0.08207 0.0
O33 O 0.53814 0.91488 0.10613 0.0
O34 O 0.50271 0.85083 0.15227 0.0
O35 O 0.55027 0.85667 0.14873 0.0
C36 C 0.53423 0.81762 0.05383 0.0
O37 O 0.47358 0.8441 0.07992 0.0
O38 O 0.50896 0.87659 0.03926 0.0
In39 In 0.6694 0.53209 0.59112 0.0
O40 O 0.71592 0.56448 0.55514 0.0
O41 O 0.7076 0.5185 0.57596 0.0
C42 C 0.64041 0.56892 0.59576 0.0
C43 C 0.62707 0.48326 0.54386 0.0
C44 C 0.67868 0.52818 0.66801 0.0
O45 O 0.66817 0.57963 0.57991 0.0
O46 O 0.62781 0.54005 0.60875 0.0
O47 O 0.65762 0.50422 0.64836 0.0
O48 O 0.69565 0.5541 0.64862 0.0
C49 C 0.72554 0.5438 0.55623 0.0
O50 O 0.63582 0.47775 0.57631 0.0
O51 O 0.63935 0.51325 0.53562 0.0
In52 In 0.13713 0.67154 0.09594 0.0
O53 O 0.14873 0.71362 0.05377 0.0
O54 O 0.18788 0.71613 0.08708 0.0
C55 C 0.07097 0.64102 0.10029 0.0
C56 C 0.14443 0.62869 0.0505 0.0
C57 C 0.15229 0.6822 0.17225 0.0
O58 O 0.08791 0.67055 0.08939 0.0
O59 O 0.08748 0.62758 0.1087 0.0
O60 O 0.16092 0.66604 0.15093 0.0
O61 O 0.1367 0.69374 0.15475 0.0
C62 C 0.17899 0.72928 0.06155 0.0
O63 O 0.14921 0.63055 0.0867 0.0
O64 O 0.13669 0.64885 0.0373 0.0
In65 In 0.4698 0.14054 0.59683 0.0
O66 O 0.52408 0.15636 0.58909 0.0
O67 O 0.49295 0.1373 0.54005 0.0
C68 C 0.47124 0.15357 0.67351 0.0
C69 C 0.45589 0.18332 0.56112 0.0
C70 C 0.43276 0.07438 0.60125 0.0
O71 O 0.4967 0.16021 0.65438 0.0
O72 O 0.44521 0.14125 0.65361 0.0
O73 O 0.42155 0.09166 0.58744 0.0
O74 O 0.46223 0.09048 0.61205 0.0
C75 C 0.52143 0.14861 0.55367 0.0
O76 O 0.44109 0.15309 0.55313 0.0
O77 O 0.47709 0.19175 0.58763 0.0
In78 In 0.52893 0.66716 0.91337 0.0
O79 O 0.55763 0.71389 0.95003 0.0
O80 O 0.50932 0.70006 0.93165 0.0
C81 C 0.56847 0.64109 0.91233 0.0
C82 C 0.47979 0.62048 0.95644 0.0
C83 C 0.52798 0.68055 0.83707 0.0
O84 O 0.57749 0.66882 0.92738 0.0
O85 O 0.54003 0.62719 0.89802 0.0
O86 O 0.50293 0.65947 0.85517 0.0
O87 O 0.55337 0.69562 0.85781 0.0
C88 C 0.53417 0.71966 0.95113 0.0
O89 O 0.47668 0.6243 0.92069 0.0
O90 O 0.50768 0.64016 0.97029 0.0
In91 In 0.86761 0.53448 0.41384 0.0
O92 O 0.84546 0.48049 0.43007 0.0
O93 O 0.88935 0.51505 0.45873 0.0
C94 C 0.84883 0.52691 0.33843 0.0
C95 C 0.82499 0.54355 0.45713 0.0
C96 C 0.93271 0.57624 0.40827 0.0
O97 O 0.85149 0.50549 0.35745 0.0
O98 O 0.85474 0.55204 0.35783 0.0
O99 O 0.91521 0.58065 0.43268 0.0
O100 O 0.91717 0.55122 0.38712 0.0
C101 C 0.86701 0.48551 0.45514 0.0
O102 O 0.85099 0.56768 0.44411 0.0
O103 O 0.82059 0.51595 0.4472 0.0
In104 In 0.32985 0.86574 0.91767 0.0
O105 O 0.35029 0.83401 0.94236 0.0
O106 O 0.38083 0.88574 0.94286 0.0
C107 C 0.31593 0.8468 0.84276 0.0
C108 C 0.27782 0.83173 0.96522 0.0
C109 C 0.35421 0.93102 0.9101 0.0
O110 O 0.33561 0.84184 0.86264 0.0
O111 O 0.30241 0.85993 0.86129 0.0
O112 O 0.33052 0.91389 0.93271 0.0
O113 O 0.36458 0.915 0.89166 0.0
C114 C 0.37755 0.85837 0.95182 0.0
O115 O 0.30449 0.85577 0.9767 0.0
O116 O 0.27683 0.82591 0.92937 0.0
In117 In 0.47071 0.33366 0.41461 0.0
O118 O 0.45669 0.309 0.47409 0.0
O119 O 0.45872 0.28109 0.42692 0.0
C120 C 0.42862 0.3568 0.41235 0.0
C121 C 0.52676 0.38148 0.44721 0.0
C122 C 0.47381 0.31989 0.33892 0.0
O123 O 0.42194 0.33105 0.43103 0.0
O124 O 0.45575 0.36986 0.39497 0.0
O125 O 0.49902 0.33917 0.35826 0.0
O126 O 0.44758 0.30677 0.35826 0.0
C127 C 0.45429 0.28239 0.46285 0.0
O128 O 0.52227 0.35314 0.4407 0.0
O129 O 0.50383 0.3858 0.43588 0.0
In130 In 0.1383 0.4735 0.91667 0.0
O131 O 0.1486 0.52629 0.92183 0.0
O132 O 0.13113 0.49596 0.97182 0.0
C133 C 0.15428 0.47396 0.84103 0.0
C134 C 0.18357 0.46608 0.95634 0.0
C135 C 0.07275 0.43265 0.91265 0.0
O136 O 0.15808 0.49921 0.85846 0.0
O137 O 0.14378 0.44884 0.86229 0.0
O138 O 0.09079 0.42641 0.93392 0.0
O139 O 0.08774 0.45942 0.89448 0.0
C140 C 0.14063 0.52385 0.95716 0.0
O141 O 0.15444 0.44284 0.95228 0.0
O142 O 0.18991 0.49225 0.93911 0.0
In143 In 0.66698 0.14099 0.41536 0.0
O144 O 0.71305 0.15636 0.45218 0.0
O145 O 0.70378 0.19343 0.43114 0.0
C146 C 0.6366 0.07483 0.41578 0.0
C147 C 0.62341 0.14797 0.45931 0.0
C148 C 0.68011 0.15287 0.3386 0.0
O149 O 0.66549 0.09225 0.42857 0.0
O150 O 0.62378 0.09093 0.40322 0.0
O151 O 0.66124 0.16016 0.35648 0.0
O152 O 0.69313 0.14066 0.35978 0.0
C153 C 0.72185 0.18652 0.45136 0.0
O154 O 0.62541 0.1524 0.42298 0.0
O155 O 0.6432 0.13995 0.47314 0.0
In156 In 0.66807 0.53237 0.91333 0.0
O157 O 0.71598 0.56385 0.94699 0.0
O158 O 0.70243 0.51475 0.93255 0.0
C159 C 0.64069 0.57082 0.91238 0.0
C160 C 0.62384 0.48363 0.95896 0.0
C161 C 0.67877 0.52847 0.83676 0.0
O162 O 0.66895 0.58074 0.9263 0.0
O163 O 0.62687 0.54202 0.89912 0.0
O164 O 0.65905 0.50403 0.85674 0.0
O165 O 0.69397 0.55488 0.85574 0.0
C166 C 0.72241 0.54089 0.94973 0.0
O167 O 0.6263 0.4799 0.92306 0.0
O168 O 0.64337 0.51203 0.97162 0.0
In169 In 0.14013 0.66841 0.41667 0.0
O170 O 0.15841 0.71593 0.45208 0.0
O171 O 0.19218 0.7002 0.43772 0.0
C172 C 0.07483 0.6444 0.41194 0.0
C173 C 0.14061 0.62 0.45839 0.0
C174 C 0.15617 0.68201 0.34082 0.0
O175 O 0.09298 0.66902 0.43281 0.0
O176 O 0.0896 0.63211 0.39451 0.0
O177 O 0.15985 0.66103 0.35952 0.0
O178 O 0.14565 0.69724 0.36089 0.0
C179 C 0.18716 0.72064 0.45554 0.0
O180 O 0.14884 0.62512 0.42311 0.0
O181 O 0.13175 0.63906 0.47248 0.0
In182 In 0.47003 0.13876 0.91871 0.0
O183 O 0.44495 0.1514 0.96675 0.0
O184 O 0.47521 0.18926 0.92728 0.0
C185 C 0.42979 0.07322 0.91312 0.0
C186 C 0.52176 0.14615 0.9613 0.0
C187 C 0.47171 0.15286 0.84239 0.0
O188 O 0.42028 0.09171 0.92738 0.0
O189 O 0.45935 0.08774 0.90249 0.0
O190 O 0.49697 0.15809 0.86114 0.0
O191 O 0.4459 0.14154 0.86256 0.0
C192 C 0.45715 0.18104 0.95697 0.0
O193 O 0.52463 0.15463 0.9261 0.0
O194 O 0.49309 0.13391 0.97446 0.0
In195 In 0.32878 0.46515 0.4194 0.0
O196 O 0.29285 0.43988 0.46891 0.0
O197 O 0.28246 0.46834 0.42959 0.0
C198 C 0.35614 0.42662 0.41618 0.0
C199 C 0.37325 0.51781 0.46047 0.0
C200 C 0.31573 0.46837 0.34363 0.0
O201 O 0.32651 0.41531 0.42556 0.0
O202 O 0.37138 0.45684 0.40856 0.0
O203 O 0.33315 0.49364 0.3639 0.0
O204 O 0.30397 0.44161 0.36204 0.0
C205 C 0.2744 0.45111 0.46003 0.0
O206 O 0.37206 0.51803 0.42388 0.0
O207 O 0.35201 0.49142 0.47592 0.0
In208 In 0.86539 0.33385 0.91596 0.0
O209 O 0.85371 0.30879 0.97517 0.0
O210 O 0.82713 0.27993 0.92673 0.0
C211 C 0.93057 0.35684 0.90938 0.0
C212 C 0.8581 0.3815 0.95015 0.0
C213 C 0.84444 0.32145 0.84155 0.0
O214 O 0.91316 0.33464 0.93353 0.0
O215 O 0.9149 0.3664 0.88884 0.0
O216 O 0.84056 0.34107 0.86288 0.0
O217 O 0.85754 0.30708 0.85841 0.0
C218 C 0.83119 0.28143 0.96303 0.0
O219 O 0.83396 0.35354 0.94266 0.0
O220 O 0.88535 0.38561 0.9391 0.0
In221 In 0.53115 0.86569 0.41521 0.0
O222 O 0.47875 0.85458 0.42578 0.0
O223 O 0.51214 0.87171 0.47331 0.0
C224 C 0.52827 0.85112 0.33879 0.0
C225 C 0.5391 0.81974 0.45226 0.0
C226 C 0.56703 0.93182 0.41361 0.0
O227 O 0.5035 0.84636 0.35808 0.0
O228 O 0.55433 0.86223 0.35842 0.0
O229 O 0.5785 0.91478 0.42762 0.0
O230 O 0.53843 0.91532 0.40017 0.0
C231 C 0.48348 0.86238 0.46129 0.0
O232 O 0.56251 0.84891 0.44852 0.0
O233 O 0.51276 0.81387 0.43588 0.0
In234 In 0.47058 0.33535 0.09476 0.0
O235 O 0.52407 0.377 0.08997 0.0
O236 O 0.49568 0.3605 0.03846 0.0
C237 C 0.47293 0.32166 0.1705 0.0
C238 C 0.45706 0.28103 0.05414 0.0
C239 C 0.43217 0.3628 0.09839 0.0
O240 O 0.49836 0.34025 0.1511 0.0
O241 O 0.44653 0.30941 0.15132 0.0
O242 O 0.42079 0.33301 0.0896 0.0
O243 O 0.46248 0.3782 0.10543 0.0
C244 C 0.52287 0.3802 0.05371 0.0
O245 O 0.44494 0.2988 0.04572 0.0
O246 O 0.47506 0.28987 0.08395 0.0
In247 In 0.13493 0.46739 0.59688 0.0
O248 O 0.14699 0.52076 0.58869 0.0
O249 O 0.13259 0.48972 0.53934 0.0
C250 C 0.15125 0.47008 0.67253 0.0
C251 C 0.17647 0.45338 0.55891 0.0
C252 C 0.06917 0.42989 0.60384 0.0
O253 O 0.15831 0.49545 0.65283 0.0
O254 O 0.13692 0.44353 0.65361 0.0
O255 O 0.08632 0.41863 0.58989 0.0
O256 O 0.08518 0.45964 0.61361 0.0
C257 C 0.1412 0.51777 0.55268 0.0
O258 O 0.14623 0.43927 0.55124 0.0
O259 O 0.18558 0.47381 0.58638 0.0
In260 In 0.6707 0.13861 0.09274 0.0
O261 O 0.71132 0.15151 0.048 0.0
O262 O 0.71587 0.18933 0.08548 0.0
C263 C 0.64121 0.07227 0.09246 0.0
C264 C 0.627 0.14824 0.05201 0.0
C265 C 0.68169 0.15061 0.16976 0.0
O266 O 0.67123 0.09029 0.0844 0.0
O267 O 0.62661 0.08778 0.10035 0.0
O268 O 0.66571 0.1604 0.14987 0.0
O269 O 0.69277 0.13547 0.15052 0.0
C270 C 0.72789 0.18131 0.05777 0.0
O271 O 0.62949 0.15071 0.08848 0.0
O272 O 0.64713 0.14173 0.03602 0.0
In273 In 0.52987 0.66699 0.59243 0.0
O274 O 0.4763 0.62708 0.58609 0.0
O275 O 0.50723 0.63758 0.53703 0.0
C276 C 0.52862 0.681 0.66847 0.0
C277 C 0.53849 0.72049 0.55332 0.0
C278 C 0.56767 0.6388 0.59584 0.0
O279 O 0.50365 0.66005 0.65018 0.0
O280 O 0.55418 0.69583 0.648 0.0
O281 O 0.57695 0.66558 0.57816 0.0
O282 O 0.53971 0.62671 0.61112 0.0
C283 C 0.47883 0.62069 0.55112 0.0
O284 O 0.56106 0.71351 0.55603 0.0
O285 O 0.51264 0.70135 0.57148 0.0
In286 In 0.86236 0.53011 0.09382 0.0
O287 O 0.84264 0.4761 0.07899 0.0
O288 O 0.87603 0.51214 0.0396 0.0
C289 C 0.84675 0.52509 0.17009 0.0
C290 C 0.81876 0.53999 0.05409 0.0
C291 C 0.92813 0.56761 0.0996 0.0
O292 O 0.84598 0.50196 0.15079 0.0
O293 O 0.85457 0.55068 0.15057 0.0
O294 O 0.91086 0.57856 0.08495 0.0
O295 O 0.91205 0.53828 0.11112 0.0
C296 C 0.85812 0.48205 0.04735 0.0
O297 O 0.84834 0.56244 0.05768 0.0
O298 O 0.81139 0.51386 0.072 0.0
In299 In 0.33572 0.86574 0.59937 0.0
O300 O 0.37892 0.85698 0.59305 0.0
O301 O 0.36364 0.87241 0.54315 0.0
C302 C 0.32003 0.84854 0.67459 0.0
C303 C 0.28433 0.81899 0.55928 0.0
C304 C 0.36236 0.9316 0.60368 0.0
O305 O 0.34185 0.84554 0.65698 0.0
O306 O 0.30543 0.85937 0.65383 0.0
O307 O 0.3356 0.91375 0.58605 0.0
O308 O 0.37496 0.91609 0.61864 0.0
C309 C 0.38319 0.86425 0.55742 0.0
O310 O 0.28965 0.8481 0.56136 0.0
O311 O 0.30373 0.81363 0.57892 0.0
C312 C 0.33374 0.50025 0.2401 0.0
C313 C 0.31416 0.47197 0.21782 0.0
C314 C 0.33288 0.49923 0.28082 0.0
C315 C 0.31251 0.46985 0.3009 0.0
H316 H 0.35076 0.52316 0.22606 0.0
H317 H 0.34932 0.52138 0.2966 0.0
S318 S 0.25363 0.38979 0.25629 0.0
N319 N 0.27162 0.41436 0.21899 0.0
N320 N 0.27017 0.41245 0.29538 0.0
C321 C 0.29155 0.4418 0.279 0.0
C322 C 0.29232 0.44287 0.23753 0.0
C323 C 0.84426 0.29773 0.73635 0.0
C324 C 0.83771 0.31974 0.71604 0.0
C325 C 0.84464 0.29724 0.77703 0.0
C326 C 0.83829 0.31862 0.79907 0.0
H327 H 0.85067 0.28174 0.72078 0.0
H328 H 0.85126 0.28085 0.79125 0.0
S329 S 0.81556 0.37802 0.75992 0.0
N330 N 0.82163 0.3613 0.72103 0.0
N331 N 0.82215 0.36027 0.79744 0.0
C332 C 0.8296 0.33927 0.77914 0.0
C333 C 0.82937 0.33987 0.73766 0.0
C334 C 0.49899 0.84094 0.27528 0.0
C335 C 0.52734 0.84724 0.29596 0.0
C336 C 0.49855 0.84108 0.23459 0.0
C337 C 0.52638 0.84735 0.21286 0.0
H338 H 0.47722 0.83696 0.29059 0.0
H339 H 0.47642 0.83709 0.22012 0.0
S340 S 0.6059 0.86227 0.25293 0.0
N341 N 0.58332 0.85775 0.29158 0.0
N342 N 0.58244 0.85782 0.21514 0.0
C343 C 0.55442 0.85218 0.23312 0.0
C344 C 0.55492 0.85218 0.27463 0.0
C345 C 0.70065 0.556 0.7727 0.0
C346 C 0.68146 0.52699 0.79395 0.0
C347 C 0.70061 0.55593 0.73196 0.0
C348 C 0.6813 0.52686 0.71085 0.0
H349 H 0.71508 0.5792 0.78757 0.0
H350 H 0.71499 0.57908 0.71697 0.0
S351 S 0.62923 0.44368 0.75256 0.0
N352 N 0.64455 0.46792 0.79071 0.0
N353 N 0.64441 0.46782 0.71431 0.0
C354 C 0.66316 0.49742 0.73172 0.0
C355 C 0.66326 0.49747 0.7732 0.0
C356 C 0.14792 0.70327 0.27771 0.0
C357 C 0.15985 0.68545 0.29799 0.0
C358 C 0.14671 0.70307 0.237 0.0
C359 C 0.15755 0.68517 0.21492 0.0
H360 H 0.13821 0.71649 0.29335 0.0
H361 H 0.13627 0.71628 0.22283 0.0
S362 S 0.19407 0.63707 0.25388 0.0
N363 N 0.18498 0.65135 0.29281 0.0
N364 N 0.18289 0.65111 0.21644 0.0
C365 C 0.17109 0.6686 0.23479 0.0
C366 C 0.17219 0.6687 0.27626 0.0
C367 C 0.50041 0.16511 0.77819 0.0
C368 C 0.47183 0.15678 0.79956 0.0
C369 C 0.50029 0.16529 0.73746 0.0
C370 C 0.47157 0.15709 0.7164 0.0
H371 H 0.52289 0.17056 0.79297 0.0
H372 H 0.52268 0.17086 0.72244 0.0
S373 S 0.391 0.13671 0.75841 0.0
N374 N 0.4146 0.14255 0.7965 0.0
N375 N 0.41437 0.14283 0.72007 0.0
C376 C 0.44319 0.15018 0.73738 0.0
C377 C 0.44332 0.15004 0.77889 0.0
C378 C 0.49954 0.66481 0.73225 0.0
C379 C 0.52839 0.68495 0.71121 0.0
C380 C 0.49938 0.66466 0.77292 0.0
C381 C 0.52807 0.68465 0.79432 0.0
H382 H 0.47703 0.64811 0.71724 0.0
H383 H 0.47676 0.64787 0.78763 0.0
S384 S 0.60936 0.74444 0.75329 0.0
N385 N 0.58589 0.72734 0.7149 0.0
N386 N 0.5856 0.72709 0.79137 0.0
C387 C 0.55673 0.70617 0.77371 0.0
C388 C 0.55689 0.70631 0.73219 0.0
C389 C 0.84914 0.55229 0.2744 0.0
C390 C 0.8432 0.5244 0.29588 0.0
C391 C 0.84875 0.55187 0.23366 0.0
C392 C 0.84233 0.52353 0.21284 0.0
H393 H 0.85552 0.57507 0.28907 0.0
H394 H 0.85478 0.57433 0.21843 0.0
S395 S 0.82105 0.44276 0.25544 0.0
N396 N 0.82764 0.46675 0.29332 0.0
N397 N 0.82681 0.46592 0.21694 0.0
C398 C 0.83445 0.49492 0.23401 0.0
C399 C 0.83491 0.49537 0.27547 0.0
C400 C 0.33474 0.8349 0.73901 0.0
C401 C 0.31471 0.84319 0.71706 0.0
C402 C 0.33364 0.83427 0.7797 0.0
C403 C 0.31249 0.84195 0.80008 0.0
H404 H 0.35241 0.83012 0.72477 0.0
H405 H 0.35056 0.82915 0.79526 0.0
S406 S 0.252 0.86114 0.75624 0.0
N407 N 0.27083 0.85615 0.71872 0.0
N408 N 0.26875 0.85499 0.79509 0.0
C409 C 0.2909 0.84831 0.77845 0.0
C410 C 0.29201 0.84893 0.73699 0.0
C411 C 0.5029 0.33655 0.27493 0.0
C412 C 0.47424 0.31616 0.29616 0.0
C413 C 0.50263 0.33706 0.23419 0.0
C414 C 0.47368 0.31723 0.21309 0.0
H415 H 0.52545 0.35327 0.28985 0.0
H416 H 0.52501 0.35411 0.21924 0.0
S417 S 0.39306 0.2564 0.25468 0.0
N418 N 0.41687 0.27332 0.29284 0.0
N419 N 0.41637 0.27435 0.21646 0.0
C420 C 0.44533 0.29537 0.2339 0.0
C421 C 0.44562 0.29481 0.27536 0.0
C422 C 0.16705 0.50075 0.73549 0.0
C423 C 0.15631 0.47115 0.7152 0.0
C424 C 0.16782 0.50169 0.7762 0.0
C425 C 0.15799 0.47309 0.7983 0.0
H426 H 0.17376 0.52324 0.71991 0.0
H427 H 0.17508 0.52487 0.7904 0.0
S428 S 0.13119 0.3899 0.75921 0.0
N429 N 0.13814 0.41295 0.7203 0.0
N430 N 0.13967 0.41472 0.79669 0.0
C431 C 0.14892 0.44364 0.77836 0.0
C432 C 0.14804 0.44267 0.73687 0.0
C433 C 0.66709 0.16734 0.27358 0.0
C434 C 0.68413 0.15556 0.29574 0.0
C435 C 0.66746 0.16678 0.23286 0.0
C436 C 0.6848 0.1543 0.21262 0.0
H437 H 0.65254 0.17626 0.28773 0.0
H438 H 0.65318 0.17528 0.2172 0.0
S439 S 0.73576 0.12305 0.25686 0.0
N440 N 0.72066 0.13302 0.29427 0.0
N441 N 0.72124 0.13185 0.21789 0.0
C442 C 0.70305 0.14368 0.23438 0.0
C443 C 0.70276 0.14435 0.27587 0.0
C444 C 0.23502 0.49365 0.99506 0.0
C445 C 0.20776 0.4643 0.98215 0.0
C446 C 0.25771 0.49338 0.02099 0.0
C447 C 0.25445 0.46373 0.03461 0.0
H448 H 0.23869 0.51719 0.98552 0.0
H449 H 0.27831 0.51671 0.02993 0.0
S450 S 0.18765 0.37999 0.00949 0.0
N451 N 0.17861 0.40464 0.98509 0.0
N452 N 0.22196 0.40414 0.03323 0.0
C453 C 0.2275 0.43411 0.02176 0.0
C454 C 0.20397 0.43439 0.99572 0.0
C455 C 0.74876 0.24092 0.48377 0.0
C456 C 0.74853 0.21153 0.47579 0.0
C457 C 0.77161 0.2642 0.50929 0.0
C458 C 0.7956 0.25941 0.52751 0.0
H459 H 0.73058 0.24573 0.47098 0.0
H460 H 0.77041 0.28624 0.5147 0.0
S461 S 0.80672 0.18735 0.51506 0.0
N462 N 0.77483 0.17913 0.48738 0.0
N463 N 0.81856 0.22356 0.53487 0.0
C464 C 0.79634 0.23056 0.51909 0.0
C465 C 0.77259 0.20645 0.4934 0.0
C466 C 0.56387 0.79509 0.01544 0.0
C467 C 0.53431 0.79271 0.02778 0.0
C468 C 0.56382 0.77146 0.99043 0.0
C469 C 0.53423 0.74522 0.9762 0.0
H470 H 0.58714 0.81506 0.02556 0.0
H471 H 0.58707 0.77383 0.98209 0.0
S472 S 0.45024 0.72881 0.9987 0.0
N473 N 0.47475 0.76239 0.02332 0.0
N474 N 0.47465 0.71861 0.976 0.0
C475 C 0.50458 0.74299 0.98787 0.0
C476 C 0.50462 0.76657 0.01376 0.0
C477 C 0.75722 0.51888 0.5305 0.0
C478 C 0.75331 0.54652 0.53313 0.0
C479 C 0.78074 0.51866 0.50616 0.0
C480 C 0.80176 0.54619 0.48366 0.0
H481 H 0.74138 0.4967 0.5466 0.0
H482 H 0.78225 0.49645 0.50485 0.0
S483 S 0.8032 0.62563 0.48157 0.0
N484 N 0.77335 0.6028 0.51219 0.0
N485 N 0.81831 0.60252 0.46671 0.0
C486 C 0.79909 0.57453 0.4869 0.0
C487 C 0.77466 0.57464 0.51152 0.0
C488 C 0.2199 0.78777 0.97757 0.0
C489 C 0.25149 0.80938 0.99205 0.0
C490 C 0.19586 0.76307 1.00104 0.0
C491 C 0.2028 0.75864 0.03956 0.0
H492 H 0.21398 0.78932 0.94754 0.0
H493 H 0.17224 0.7463 0.98827 0.0
S494 S 0.28088 0.81011 0.09224 0.0
N495 N 0.28764 0.82612 0.04824 0.0
N496 N 0.24273 0.7792 0.09195 0.0
C497 C 0.23381 0.78089 0.05487 0.0
C498 C 0.25808 0.80642 0.03122 0.0
C499 C 0.44009 0.20039 0.4999 0.0
C500 C 0.45137 0.20749 0.53845 0.0
C501 C 0.43998 0.22446 0.47597 0.0
C502 C 0.45044 0.25627 0.48997 0.0
H503 H 0.43274 0.17654 0.48751 0.0
H504 H 0.43239 0.21832 0.44599 0.0
S505 S 0.47951 0.2864 0.58986 0.0
N506 N 0.47149 0.248 0.59024 0.0
N507 N 0.47052 0.29297 0.54563 0.0
C508 C 0.46012 0.26314 0.52909 0.0
C509 C 0.46081 0.23882 0.55323 0.0
C510 C 0.76792 0.51263 0.01471 0.0
C511 C 0.79505 0.54202 0.02776 0.0
C512 C 0.7453 0.51281 0.9887 0.0
C513 C 0.74845 0.54239 0.97509 0.0
H514 H 0.76422 0.48908 0.0243 0.0
H515 H 0.72476 0.48942 0.97982 0.0
S516 S 0.81507 0.62621 1.00023 0.0
N517 N 0.82419 0.60164 0.02472 0.0
N518 N 0.78082 0.60201 0.97642 0.0
C519 C 0.77536 0.57208 0.9879 0.0
C520 C 0.7989 0.57188 0.01403 0.0
C521 C 0.20989 0.77333 0.49327 0.0
C522 C 0.21227 0.74601 0.48128 0.0
C523 C 0.23325 0.79699 0.51853 0.0
C524 C 0.25931 0.79369 0.53336 0.0
H525 H 0.19 0.77657 0.48285 0.0
H526 H 0.23074 0.81782 0.52673 0.0
S527 S 0.27613 0.72626 0.51143 0.0
N528 N 0.24276 0.71704 0.48636 0.0
N529 N 0.28604 0.76088 0.53408 0.0
C530 C 0.26172 0.76631 0.52179 0.0
C531 C 0.23838 0.74265 0.49569 0.0
C532 C 0.45215 0.20194 0.02149 0.0
C533 C 0.4535 0.205 0.98082 0.0
C534 C 0.45265 0.22639 0.04518 0.0
C535 C 0.4534 0.25412 0.0289 0.0
H536 H 0.45217 0.18122 0.03517 0.0
H537 H 0.45283 0.22378 0.07641 0.0
S538 S 0.45522 0.27268 0.92399 0.0
N539 N 0.45478 0.23739 0.92526 0.0
N540 N 0.45429 0.28272 0.96971 0.0
C541 C 0.45335 0.25677 0.98826 0.0
C542 C 0.4538 0.23236 0.9642 0.0
C543 C 0.19479 0.44398 0.4947 0.0
C544 C 0.19999 0.44908 0.53495 0.0
C545 C 0.21876 0.44403 0.47048 0.0
C546 C 0.24814 0.44804 0.48595 0.0
H547 H 0.17271 0.44142 0.4816 0.0
H548 H 0.21445 0.44129 0.43946 0.0
S549 S 0.27294 0.46082 0.58953 0.0
N550 N 0.23643 0.45771 0.58921 0.0
N551 N 0.28083 0.45639 0.54395 0.0
C552 C 0.25306 0.45187 0.52628 0.0
C553 C 0.22913 0.45277 0.55075 0.0
C554 C 0.78702 0.22334 0.97452 0.0
C555 C 0.80842 0.25484 0.9894 0.0
C556 C 0.76208 0.19907 0.99753 0.0
C557 C 0.75722 0.20561 0.03605 0.0
H558 H 0.78894 0.21764 0.94451 0.0
H559 H 0.74556 0.17552 0.98442 0.0
S560 S 0.80804 0.28333 0.08979 0.0
N561 N 0.82444 0.29051 0.04602 0.0
N562 N 0.77722 0.24514 0.0889 0.0
C563 C 0.77926 0.23654 0.05178 0.0
C564 C 0.80497 0.26109 0.02857 0.0
C565 C 0.51114 0.769 0.49197 0.0
C566 C 0.5406 0.79496 0.47728 0.0
C567 C 0.51105 0.74564 0.51706 0.0
C568 C 0.54037 0.74685 0.52808 0.0
H569 H 0.48781 0.76688 0.48452 0.0
H570 H 0.48761 0.72617 0.52747 0.0
S571 S 0.62423 0.80961 0.49734 0.0
N572 N 0.60003 0.82072 0.47562 0.0
N573 N 0.59982 0.77605 0.52219 0.0
C574 C 0.5701 0.77251 0.51342 0.0
C575 C 0.57023 0.79678 0.48823 0.0
C576 C 0.41026 0.42925 0.1115 0.0
C577 C 0.37698 0.41384 0.10087 0.0
C578 C 0.42754 0.41232 0.11089 0.0
C579 C 0.41231 0.37916 0.09978 0.0
H580 H 0.42336 0.45486 0.11997 0.0
H581 H 0.45322 0.42557 0.11899 0.0
S582 S 0.32518 0.32691 0.07075 0.0
N583 N 0.32905 0.36314 0.07983 0.0
N584 N 0.36164 0.3311 0.07886 0.0
C585 C 0.37886 0.36314 0.08967 0.0
C586 C 0.36119 0.38053 0.09015 0.0
C587 C 0.01462 0.38215 0.58489 0.0
C588 C 0.03306 0.41045 0.60754 0.0
C589 C 0.98016 0.36536 0.58552 0.0
C590 C 0.96302 0.37618 0.60904 0.0
H591 H 0.02684 0.37356 0.56556 0.0
H592 H 0.96693 0.34433 0.56664 0.0
S593 S 1.00013 0.44666 0.67746 0.0
N594 N 0.03175 0.44689 0.65661 0.0
N595 N 0.9673 0.41535 0.65812 0.0
C596 C 0.9813 0.40352 0.63325 0.0
C597 C 0.01624 0.42066 0.6324 0.0
C598 C 0.57279 0.98421 0.10367 0.0
C599 C 0.58768 0.96567 0.09413 0.0
C600 C 0.59044 0.0185 0.10301 0.0
C601 C 0.62386 0.03588 0.09293 0.0
H602 H 0.54707 0.9722 0.11145 0.0
H603 H 0.57759 0.03145 0.11043 0.0
S604 S 0.67483 0.99909 0.06648 0.0
N605 N 0.63808 0.96721 0.07484 0.0
N606 N 0.67146 0.03195 0.07379 0.0
C607 C 0.63928 0.01775 0.08365 0.0
C608 C 0.62116 0.98261 0.08419 0.0
C609 C 0.63327 0.61616 0.57513 0.0
C610 C 0.62314 0.58791 0.59801 0.0
C611 C 0.61563 0.63298 0.57505 0.0
C612 C 0.5873 0.62216 0.59792 0.0
H613 H 0.65451 0.62492 0.55644 0.0
H614 H 0.6239 0.65419 0.55636 0.0
S615 S 0.55245 0.55138 0.66595 0.0
N616 N 0.58427 0.55127 0.64619 0.0
N617 N 0.55133 0.5827 0.64613 0.0
C618 C 0.57764 0.59461 0.62194 0.0
C619 C 0.5955 0.57754 0.62197 0.0
C620 C 0.98198 0.61866 0.086 0.0
C621 C 0.96446 0.58687 0.10191 0.0
C622 C 0.01646 0.63642 0.08623 0.0
C623 C 0.03463 0.62297 0.10226 0.0
H624 H 0.96902 0.62974 0.07274 0.0
H625 H 0.02893 0.66057 0.0731 0.0
S626 S 0.00051 0.54146 0.14979 0.0
N627 N 0.96802 0.54336 0.13578 0.0
N628 N 0.03243 0.57651 0.1361 0.0
C629 C 0.01736 0.59153 0.11909 0.0
C630 C 0.9824 0.57355 0.11895 0.0
C631 C 0.38495 0.01981 0.58181 0.0
C632 C 0.41347 0.03812 0.60421 0.0
C633 C 0.36793 0.98529 0.5824 0.0
C634 C 0.37878 0.96793 0.60555 0.0
H635 H 0.37622 0.0322 0.5629 0.0
H636 H 0.34661 0.97216 0.56391 0.0
S637 S 0.44996 0.00453 0.67298 0.0
N638 N 0.45023 0.03634 0.65249 0.0
N639 N 0.41838 0.97185 0.65381 0.0
C640 C 0.40649 0.98606 0.62927 0.0
C641 C 0.4238 0.02104 0.62854 0.0
C642 C 0.57608 0.59436 0.8937 0.0
C643 C 0.58868 0.62509 0.9119 0.0
C644 C 0.5934 0.57748 0.89373 0.0
C645 C 0.62416 0.59054 0.91192 0.0
H646 H 0.55237 0.58292 0.87951 0.0
H647 H 0.58231 0.55377 0.87954 0.0
S648 S 0.66863 0.67063 0.96292 0.0
N649 N 0.63422 0.66836 0.94803 0.0
N650 N 0.66698 0.63648 0.94804 0.0
C651 C 0.63745 0.62152 0.92975 0.0
C652 C 0.61967 0.63882 0.92975 0.0
C653 C 0.98655 0.61847 0.43697 0.0
C654 C 0.96892 0.59674 0.40654 0.0
C655 C 0.02102 0.63494 0.43794 0.0
C656 C 0.0389 0.63006 0.40862 0.0
H657 H 0.97367 0.62189 0.4609 0.0
H658 H 0.03362 0.65057 0.46253 0.0
S659 S 0.00461 0.57945 0.31986 0.0
N660 N 0.97219 0.57403 0.34436 0.0
N661 N 0.03662 0.60467 0.34637 0.0
C662 C 0.02161 0.60978 0.37708 0.0
C663 C 0.98669 0.5932 0.37598 0.0
C664 C 0.38169 0.01988 0.93467 0.0
C665 C 0.40848 0.03729 0.90952 0.0
C666 C 0.36327 0.9854 0.93386 0.0
C667 C 0.37089 0.9673 0.90759 0.0
H668 H 0.37567 0.03287 0.95607 0.0
H669 H 0.34366 0.97287 0.95473 0.0
S670 S 0.43584 0.00183 0.83196 0.0
N671 N 0.43972 0.0342 0.85526 0.0
N672 N 0.40507 0.96976 0.85319 0.0
C673 C 0.3965 0.98467 0.88085 0.0
C674 C 0.41533 0.01958 0.88197 0.0
C675 C 0.40345 0.42052 0.39654 0.0
C676 C 0.37248 0.40679 0.4142 0.0
C677 C 0.42076 0.40365 0.39546 0.0
C678 C 0.40803 0.37237 0.41229 0.0
H679 H 0.4147 0.44474 0.38359 0.0
H680 H 0.44471 0.41568 0.38185 0.0
S681 S 0.32729 0.32488 0.46096 0.0
N682 N 0.32908 0.3595 0.44786 0.0
N683 N 0.36199 0.32775 0.44621 0.0
C684 C 0.37677 0.35795 0.42949 0.0
C685 C 0.3589 0.37515 0.43031 0.0
C686 C 0.01916 0.38735 0.93828 0.0
C687 C 0.03678 0.41094 0.90951 0.0
C688 C 0.98472 0.36874 0.93731 0.0
C689 C 0.96681 0.37302 0.90742 0.0
H690 H 0.03196 0.38404 0.96243 0.0
H691 H 0.97205 0.35179 0.96085 0.0
S692 S 0.00173 0.42836 0.82226 0.0
N693 N 0.03394 0.43521 0.84834 0.0
N694 N 0.96957 0.40029 0.8463 0.0
C695 C 0.98433 0.39525 0.87738 0.0
C696 C 0.01923 0.41422 0.87849 0.0
C697 C 0.61744 0.98639 0.42685 0.0
C698 C 0.58479 0.96822 0.41376 0.0
C699 C 0.63417 0.02091 0.42751 0.0
C700 C 0.6188 0.03843 0.4152 0.0
H701 H 0.63019 0.97391 0.43662 0.0
H702 H 0.65931 0.03391 0.43771 0.0
S703 S 0.53322 0.00238 0.37917 0.0
N704 N 0.5376 0.97047 0.38872 0.0
N705 N 0.5688 0.03485 0.39006 0.0
C706 C 0.5861 0.02048 0.40223 0.0
C707 C 0.56917 0.98552 0.40148 0.0
C708 C 0.45584 0.59645 0.0212 0.0
C709 C 0.45309 0.59498 0.98045 0.0
C710 C 0.43125 0.57241 0.04474 0.0
C711 C 0.40322 0.54572 0.0284 0.0
H712 H 0.47718 0.61635 0.03511 0.0
H713 H 0.43454 0.57445 0.07594 0.0
S714 S 0.38369 0.53086 0.92335 0.0
N715 N 0.41959 0.56506 0.92483 0.0
N716 N 0.37365 0.51965 0.96899 0.0
C717 C 0.4 0.54407 0.98772 0.0
C718 C 0.42484 0.56877 0.96377 0.0
C719 C 0.89357 0.43557 0.51528 0.0
C720 C 0.86365 0.41008 0.52965 0.0
C721 C 0.89449 0.46008 0.49128 0.0
C722 C 0.86544 0.45922 0.47983 0.0
H723 H 0.91646 0.43685 0.5231 0.0
H724 H 0.91805 0.4796 0.48124 0.0
S725 S 0.78083 0.39732 0.50894 0.0
N726 N 0.80435 0.38547 0.5309 0.0
N727 N 0.80598 0.43084 0.48451 0.0
C728 C 0.83535 0.43361 0.49354 0.0
C729 C 0.83448 0.40921 0.51885 0.0
C730 C 0.43555 0.88245 0.97307 0.0
C731 C 0.40313 0.85599 0.97401 0.0
C732 C 0.45997 0.88277 0.99653 0.0
C733 C 0.45278 0.85699 0.02248 0.0
H734 H 0.44209 0.90333 0.95433 0.0
H735 H 0.4845 0.90386 0.99502 0.0
S736 S 0.37203 0.78137 0.0351 0.0
N737 N 0.36534 0.80268 1.0019 0.0
N738 N 0.41123 0.80362 0.04675 0.0
C739 C 0.42061 0.83008 0.02332 0.0
C740 C 0.3958 0.82946 0.99882 0.0
C741 C 0.5629 0.44 0.46578 0.0
C742 C 0.55492 0.40705 0.46931 0.0
C743 C 0.58689 0.46451 0.48934 0.0
C744 C 0.6034 0.45695 0.51791 0.0
H745 H 0.55011 0.44688 0.44502 0.0
H746 H 0.59181 0.48945 0.48585 0.0
S747 S 0.59241 0.37457 0.538 0.0
N748 N 0.56627 0.36825 0.50253 0.0
N749 N 0.61103 0.41429 0.54745 0.0
C750 C 0.59619 0.4242 0.52125 0.0
C751 C 0.57207 0.39926 0.49674 0.0
C752 C 0.14213 0.54996 0.02085 0.0
C753 C 0.14269 0.55148 0.98003 0.0
C754 C 0.14371 0.5755 0.04338 0.0
C755 C 0.1454 0.60334 0.02598 0.0
H756 H 0.14048 0.52886 0.0356 0.0
H757 H 0.14285 0.57303 0.07469 0.0
S758 S 0.14823 0.61964 0.92021 0.0
N759 N 0.14588 0.58352 0.92312 0.0
N760 N 0.14826 0.63126 0.96543 0.0
C761 C 0.1463 0.60534 0.9852 0.0
C762 C 0.14511 0.5795 0.96224 0.0
C763 C 0.54551 0.14699 0.48958 0.0
C764 C 0.54888 0.15096 0.53015 0.0
C765 C 0.57017 0.14705 0.46673 0.0
C766 C 0.59891 0.15055 0.48365 0.0
H767 H 0.52347 0.14345 0.47532 0.0
H768 H 0.56624 0.1434 0.43572 0.0
S769 S 0.62064 0.16348 0.58825 0.0
N770 N 0.58405 0.16005 0.58602 0.0
N771 N 0.63009 0.15961 0.54317 0.0
C772 C 0.60295 0.15524 0.52405 0.0
C773 C 0.57803 0.15563 0.54726 0.0
C774 C 0.54882 0.40416 0.98988 0.0
C775 C 0.55022 0.40591 0.03068 0.0
C776 C 0.57309 0.42909 0.967 0.0
C777 C 0.59949 0.45698 0.98399 0.0
H778 H 0.52863 0.38348 0.97539 0.0
H779 H 0.57072 0.42678 0.93571 0.0
S780 S 0.61534 0.47287 0.08957 0.0
N781 N 0.58087 0.43724 0.08719 0.0
N782 N 0.62632 0.48435 0.04417 0.0
C783 C 0.60155 0.45881 0.02477 0.0
C784 C 0.57699 0.43319 0.04811 0.0
C785 C 0.13992 0.59466 0.52248 0.0
C786 C 0.14166 0.5941 0.48171 0.0
C787 C 0.1407 0.57038 0.54532 0.0
C788 C 0.14272 0.54435 0.52821 0.0
H789 H 0.13799 0.61404 0.53694 0.0
H790 H 0.13898 0.57165 0.57656 0.0
S791 S 0.14875 0.53198 0.42278 0.0
N792 N 0.14641 0.56576 0.42526 0.0
N793 N 0.14733 0.51989 0.46809 0.0
C794 C 0.14479 0.54365 0.48751 0.0
C795 C 0.14441 0.56858 0.46429 0.0
C796 C 0.60315 0.15326 0.98911 0.0
C797 C 0.60115 0.15039 0.02984 0.0
C798 C 0.57785 0.1529 0.96718 0.0
C799 C 0.54935 0.14912 0.98511 0.0
H800 H 0.62428 0.15542 0.97396 0.0
H801 H 0.58025 0.15468 0.93587 0.0
S802 S 0.53257 0.14205 0.09102 0.0
N803 N 0.56887 0.14498 0.08732 0.0
N804 N 0.5212 0.1438 0.04617 0.0
C805 C 0.54734 0.14693 0.02587 0.0
C806 C 0.57327 0.14773 0.04822 0.0
C807 C 0.45412 0.59273 0.48811 0.0
C808 C 0.45089 0.59529 0.5284 0.0
C809 C 0.42846 0.56829 0.46605 0.0
C810 C 0.39878 0.54525 0.48354 0.0
H811 H 0.47676 0.60957 0.47347 0.0
H812 H 0.43229 0.5669 0.43526 0.0
S813 S 0.37707 0.54225 0.58759 0.0
N814 N 0.41493 0.57348 0.58453 0.0
N815 N 0.36697 0.52737 0.54317 0.0
C816 C 0.39492 0.54793 0.52361 0.0
C817 C 0.4209 0.573 0.54601 0.0
C818 C 0.88104 0.43967 0.97048 0.0
C819 C 0.8556 0.40682 0.97273 0.0
C820 C 0.88118 0.46389 0.99416 0.0
C821 C 0.85622 0.45606 0.02156 0.0
H822 H 0.90127 0.44672 0.95055 0.0
H823 H 0.9015 0.4888 0.99163 0.0
S824 S 0.78351 0.37376 0.03821 0.0
N825 N 0.80421 0.3678 1.00361 0.0
N826 N 0.80477 0.41328 0.04875 0.0
C827 C 0.83032 0.42339 0.02371 0.0
C828 C 0.8299 0.39878 0.99909 0.0
C829 C 0.43038 0.86136 0.46989 0.0
C830 C 0.45782 0.86176 0.48654 0.0
C831 C 0.40644 0.86226 0.4931 0.0
C832 C 0.40878 0.86305 0.53385 0.0
H833 H 0.42761 0.86093 0.43864 0.0
H834 H 0.38587 0.86221 0.47895 0.0
S835 S 0.47532 0.86339 0.59186 0.0
N836 N 0.48573 0.86251 0.54632 0.0
N837 N 0.44043 0.86364 0.58994 0.0
C838 C 0.4358 0.86289 0.55092 0.0
C839 C 0.46041 0.86241 0.52727 0.0
loop_
_geom_bond_atom_site_label_1
_geom_bond_atom_site_label_2
_geom_bond_distance
_geom_bond_site_symmetry_2
_ccdc_geom_bond_type
In0 O1 2.294 . S
In0 O2 2.326 . S
In0 O6 2.266 . S
In0 O7 2.326 . S
In0 O8 2.266 . S
In0 O9 2.326 . S
In0 O11 2.294 . S
In0 O12 2.326 . S
O1 In0 2.294 . S
O1 C10 1.240 . S
O2 In0 2.326 . S
O2 C10 1.252 . S
C3 O6 1.252 . S
C3 O7 1.260 . S
C4 O11 1.240 . S
C4 O12 1.252 . S
C5 O8 1.252 . S
C5 O9 1.260 . S
O6 In0 2.266 . S
O6 C3 1.252 . S
O7 In0 2.326 . S
O7 C3 1.260 . S
O8 In0 2.266 . S
O8 C5 1.252 . S
O9 In0 2.326 . S
O9 C5 1.260 . S
C10 O1 1.240 . S
C10 O2 1.252 . S
O11 In0 2.294 . S
O11 C4 1.240 . S
O12 In0 2.326 . S
O12 C4 1.252 . S
In13 O14 2.294 . S
In13 O15 2.326 . S
In13 O19 2.266 . S
In13 O20 2.326 . S
In13 O21 2.266 . S
In13 O22 2.326 . S
In13 O24 2.294 . S
In13 O25 2.326 . S
O14 In13 2.294 . S
O14 C23 1.240 . S
O15 In13 2.326 . S
O15 C23 1.252 . S
C16 O19 1.252 . S
C16 O20 1.260 . S
C17 O24 1.240 . S
C17 O25 1.252 . S
C18 O21 1.252 . S
C18 O22 1.260 . S
O19 In13 2.266 . S
O19 C16 1.252 . S
O20 In13 2.326 . S
O20 C16 1.260 . S
O21 In13 2.266 . S
O21 C18 1.252 . S
O22 In13 2.326 . S
O22 C18 1.260 . S
C23 O14 1.240 . S
C23 O15 1.252 . S
O24 In13 2.294 . S
O24 C17 1.240 . S
O25 In13 2.326 . S
O25 C17 1.252 . S
In26 O27 2.294 . S
In26 O28 2.326 . S
In26 O32 2.266 . S
In26 O33 2.326 . S
In26 O34 2.266 . S
In26 O35 2.326 . S
In26 O37 2.294 . S
In26 O38 2.326 . S
O27 In26 2.294 . S
O27 C36 1.240 . S
O28 In26 2.326 . S
O28 C36 1.252 . S
C29 O32 1.252 . S
C29 O33 1.260 . S
C30 O37 1.240 . S
C30 O38 1.252 . S
C31 O34 1.252 . S
C31 O35 1.260 . S
O32 In26 2.266 . S
O32 C29 1.252 . S
O33 In26 2.326 . S
O33 C29 1.260 . S
O34 In26 2.266 . S
O34 C31 1.252 . S
O35 In26 2.326 . S
O35 C31 1.260 . S
C36 O27 1.240 . S
C36 O28 1.252 . S
O37 In26 2.294 . S
O37 C30 1.240 . S
O38 In26 2.326 . S
O38 C30 1.252 . S
In39 O40 2.294 . S
In39 O41 2.326 . S
In39 O45 2.266 . S
In39 O46 2.326 . S
In39 O47 2.266 . S
In39 O48 2.326 . S
In39 O50 2.294 . S
In39 O51 2.326 . S
O40 In39 2.294 . S
O40 C49 1.240 . S
O41 In39 2.326 . S
O41 C49 1.252 . S
C42 O45 1.252 . S
C42 O46 1.260 . S
C43 O50 1.240 . S
C43 O51 1.252 . S
C44 O47 1.252 . S
C44 O48 1.260 . S
O45 In39 2.266 . S
O45 C42 1.252 . S
O46 In39 2.326 . S
O46 C42 1.260 . S
O47 In39 2.266 . S
O47 C44 1.252 . S
O48 In39 2.326 . S
O48 C44 1.260 . S
C49 O40 1.240 . S
C49 O41 1.252 . S
O50 In39 2.294 . S
O50 C43 1.240 . S
O51 In39 2.326 . S
O51 C43 1.252 . S
In52 O53 2.294 . S
In52 O54 2.326 . S
In52 O58 2.266 . S
In52 O59 2.326 . S
In52 O60 2.266 . S
In52 O61 2.326 . S
In52 O63 2.294 . S
In52 O64 2.326 . S
O53 In52 2.294 . S
O53 C62 1.240 . S
O54 In52 2.326 . S
O54 C62 1.252 . S
C55 O58 1.252 . S
C55 O59 1.260 . S
C56 O63 1.240 . S
C56 O64 1.252 . S
C57 O60 1.252 . S
C57 O61 1.260 . S
O58 In52 2.266 . S
O58 C55 1.252 . S
O59 In52 2.326 . S
O59 C55 1.260 . S
O60 In52 2.266 . S
O60 C57 1.252 . S
O61 In52 2.326 . S
O61 C57 1.260 . S
C62 O53 1.240 . S
C62 O54 1.252 . S
O63 In52 2.294 . S
O63 C56 1.240 . S
O64 In52 2.326 . S
O64 C56 1.252 . S
In65 O66 2.294 . S
In65 O67 2.326 . S
In65 O71 2.266 . S
In65 O72 2.326 . S
In65 O73 2.266 . S
In65 O74 2.326 . S
In65 O76 2.294 . S
In65 O77 2.326 . S
O66 In65 2.294 . S
O66 C75 1.240 . S
O67 In65 2.326 . S
O67 C75 1.252 . S
C68 O71 1.252 . S
C68 O72 1.260 . S
C69 O76 1.240 . S
C69 O77 1.252 . S
C70 O73 1.252 . S
C70 O74 1.260 . S
O71 In65 2.266 . S
O71 C68 1.252 . S
O72 In65 2.326 . S
O72 C68 1.260 . S
O73 In65 2.266 . S
O73 C70 1.252 . S
O74 In65 2.326 . S
O74 C70 1.260 . S
C75 O66 1.240 . S
C75 O67 1.252 . S
O76 In65 2.294 . S
O76 C69 1.240 . S
O77 In65 2.326 . S
O77 C69 1.252 . S
In78 O79 2.294 . S
In78 O80 2.326 . S
In78 O84 2.266 . S
In78 O85 2.326 . S
In78 O86 2.266 . S
In78 O87 2.326 . S
In78 O89 2.294 . S
In78 O90 2.326 . S
O79 In78 2.294 . S
O79 C88 1.240 . S
O80 In78 2.326 . S
O80 C88 1.252 . S
C81 O84 1.252 . S
C81 O85 1.260 . S
C82 O89 1.240 . S
C82 O90 1.252 . S
C83 O86 1.252 . S
C83 O87 1.260 . S
O84 In78 2.266 . S
O84 C81 1.252 . S
O85 In78 2.326 . S
O85 C81 1.260 . S
O86 In78 2.266 . S
O86 C83 1.252 . S
O87 In78 2.326 . S
O87 C83 1.260 . S
C88 O79 1.240 . S
C88 O80 1.252 . S
O89 In78 2.294 . S
O89 C82 1.240 . S
O90 In78 2.326 . S
O90 C82 1.252 . S
In91 O92 2.294 . S
In91 O93 2.326 . S
In91 O97 2.266 . S
In91 O98 2.326 . S
In91 O99 2.266 . S
In91 O100 2.326 . S
In91 O102 2.294 . S
In91 O103 2.326 . S
O92 In91 2.294 . S
O92 C101 1.240 . S
O93 In91 2.326 . S
O93 C101 1.252 . S
C94 O97 1.252 . S
C94 O98 1.260 . S
C95 O102 1.240 . S
C95 O103 1.252 . S
C96 O99 1.252 . S
C96 O100 1.260 . S
O97 In91 2.266 . S
O97 C94 1.252 . S
O98 In91 2.326 . S
O98 C94 1.260 . S
O99 In91 2.266 . S
O99 C96 1.252 . S
O100 In91 2.326 . S
O100 C96 1.260 . S
C101 O92 1.240 . S
C101 O93 1.252 . S
O102 In91 2.294 . S
O102 C95 1.240 . S
O103 In91 2.326 . S
O103 C95 1.252 . S
In104 O105 2.294 . S
In104 O106 2.326 . S
In104 O110 2.266 . S
In104 O111 2.326 . S
In104 O112 2.266 . S
In104 O113 2.326 . S
In104 O115 2.294 . S
In104 O116 2.326 . S
O105 In104 2.294 . S
O105 C114 1.240 . S
O106 In104 2.326 . S
O106 C114 1.252 . S
C107 O110 1.252 . S
C107 O111 1.260 . S
C108 O115 1.240 . S
C108 O116 1.252 . S
C109 O112 1.252 . S
C109 O113 1.260 . S
O110 In104 2.266 . S
O110 C107 1.252 . S
O111 In104 2.326 . S
O111 C107 1.260 . S
O112 In104 2.266 . S
O112 C109 1.252 . S
O113 In104 2.326 . S
O113 C109 1.260 . S
C114 O105 1.240 . S
C114 O106 1.252 . S
O115 In104 2.294 . S
O115 C108 1.240 . S
O116 In104 2.326 . S
O116 C108 1.252 . S
In117 O118 2.294 . S
In117 O119 2.326 . S
In117 O123 2.266 . S
In117 O124 2.326 . S
In117 O125 2.266 . S
In117 O126 2.326 . S
In117 O128 2.294 . S
In117 O129 2.326 . S
O118 In117 2.294 . S
O118 C127 1.240 . S
O119 In117 2.326 . S
O119 C127 1.252 . S
C120 O123 1.252 . S
C120 O124 1.260 . S
C121 O128 1.240 . S
C121 O129 1.252 . S
C122 O125 1.252 . S
C122 O126 1.260 . S
O123 In117 2.266 . S
O123 C120 1.252 . S
O124 In117 2.326 . S
O124 C120 1.260 . S
O125 In117 2.266 . S
O125 C122 1.252 . S
O126 In117 2.326 . S
O126 C122 1.260 . S
C127 O118 1.240 . S
C127 O119 1.252 . S
O128 In117 2.294 . S
O128 C121 1.240 . S
O129 In117 2.326 . S
O129 C121 1.252 . S
In130 O131 2.294 . S
In130 O132 2.326 . S
In130 O136 2.266 . S
In130 O137 2.326 . S
In130 O138 2.266 . S
In130 O139 2.326 . S
In130 O141 2.294 . S
In130 O142 2.326 . S
O131 In130 2.294 . S
O131 C140 1.240 . S
O132 In130 2.326 . S
O132 C140 1.252 . S
C133 O136 1.252 . S
C133 O137 1.260 . S
C134 O141 1.240 . S
C134 O142 1.252 . S
C135 O138 1.252 . S
C135 O139 1.260 . S
O136 In130 2.266 . S
O136 C133 1.252 . S
O137 In130 2.326 . S
O137 C133 1.260 . S
O138 In130 2.266 . S
O138 C135 1.252 . S
O139 In130 2.326 . S
O139 C135 1.260 . S
C140 O131 1.240 . S
C140 O132 1.252 . S
O141 In130 2.294 . S
O141 C134 1.240 . S
O142 In130 2.326 . S
O142 C134 1.252 . S
In143 O144 2.294 . S
In143 O145 2.326 . S
In143 O149 2.266 . S
In143 O150 2.326 . S
In143 O151 2.266 . S
In143 O152 2.326 . S
In143 O154 2.294 . S
In143 O155 2.326 . S
O144 In143 2.294 . S
O144 C153 1.240 . S
O145 In143 2.326 . S
O145 C153 1.252 . S
C146 O149 1.252 . S
C146 O150 1.260 . S
C147 O154 1.240 . S
C147 O155 1.252 . S
C148 O151 1.252 . S
C148 O152 1.260 . S
O149 In143 2.266 . S
O149 C146 1.252 . S
O150 In143 2.326 . S
O150 C146 1.260 . S
O151 In143 2.266 . S
O151 C148 1.252 . S
O152 In143 2.326 . S
O152 C148 1.260 . S
C153 O144 1.240 . S
C153 O145 1.252 . S
O154 In143 2.294 . S
O154 C147 1.240 . S
O155 In143 2.326 . S
O155 C147 1.252 . S
In156 O157 2.294 . S
In156 O158 2.326 . S
In156 O162 2.266 . S
In156 O163 2.326 . S
In156 O164 2.266 . S
In156 O165 2.326 . S
In156 O167 2.294 . S
In156 O168 2.326 . S
O157 In156 2.294 . S
O157 C166 1.240 . S
O158 In156 2.326 . S
O158 C166 1.252 . S
C159 O162 1.252 . S
C159 O163 1.260 . S
C160 O167 1.240 . S
C160 O168 1.252 . S
C161 O164 1.252 . S
C161 O165 1.260 . S
O162 In156 2.266 . S
O162 C159 1.252 . S
O163 In156 2.326 . S
O163 C159 1.260 . S
O164 In156 2.266 . S
O164 C161 1.252 . S
O165 In156 2.326 . S
O165 C161 1.260 . S
C166 O157 1.240 . S
C166 O158 1.252 . S
O167 In156 2.294 . S
O167 C160 1.240 . S
O168 In156 2.326 . S
O168 C160 1.252 . S
In169 O170 2.294 . S
In169 O171 2.326 . S
In169 O175 2.266 . S
In169 O176 2.326 . S
In169 O177 2.266 . S
In169 O178 2.326 . S
In169 O180 2.294 . S
In169 O181 2.326 . S
O170 In169 2.294 . S
O170 C179 1.240 . S
O171 In169 2.326 . S
O171 C179 1.252 . S
C172 O175 1.252 . S
C172 O176 1.260 . S
C173 O180 1.240 . S
C173 O181 1.252 . S
C174 O177 1.252 . S
C174 O178 1.260 . S
O175 In169 2.266 . S
O175 C172 1.252 . S
O176 In169 2.326 . S
O176 C172 1.260 . S
O177 In169 2.266 . S
O177 C174 1.252 . S
O178 In169 2.326 . S
O178 C174 1.260 . S
C179 O170 1.240 . S
C179 O171 1.252 . S
O180 In169 2.294 . S
O180 C173 1.240 . S
O181 In169 2.326 . S
O181 C173 1.252 . S
In182 O183 2.294 . S
In182 O184 2.326 . S
In182 O188 2.266 . S
In182 O189 2.326 . S
In182 O190 2.266 . S
In182 O191 2.326 . S
In182 O193 2.294 . S
In182 O194 2.326 . S
O183 In182 2.294 . S
O183 C192 1.240 . S
O184 In182 2.326 . S
O184 C192 1.252 . S
C185 O188 1.252 . S
C185 O189 1.260 . S
C186 O193 1.240 . S
C186 O194 1.252 . S
C187 O190 1.252 . S
C187 O191 1.260 . S
O188 In182 2.266 . S
O188 C185 1.252 . S
O189 In182 2.326 . S
O189 C185 1.260 . S
O190 In182 2.266 . S
O190 C187 1.252 . S
O191 In182 2.326 . S
O191 C187 1.260 . S
C192 O183 1.240 . S
C192 O184 1.252 . S
O193 In182 2.294 . S
O193 C186 1.240 . S
O194 In182 2.326 . S
O194 C186 1.252 . S
In195 O196 2.294 . S
In195 O197 2.326 . S
In195 O201 2.266 . S
In195 O202 2.326 . S
In195 O203 2.266 . S
In195 O204 2.326 . S
In195 O206 2.294 . S
In195 O207 2.326 . S
O196 In195 2.294 . S
O196 C205 1.240 . S
O197 In195 2.326 . S
O197 C205 1.252 . S
C198 O201 1.252 . S
C198 O202 1.260 . S
C199 O206 1.240 . S
C199 O207 1.252 . S
C200 O203 1.252 . S
C200 O204 1.260 . S
O201 In195 2.266 . S
O201 C198 1.252 . S
O202 In195 2.326 . S
O202 C198 1.260 . S
O203 In195 2.266 . S
O203 C200 1.252 . S
O204 In195 2.326 . S
O204 C200 1.260 . S
C205 O196 1.240 . S
C205 O197 1.252 . S
O206 In195 2.294 . S
O206 C199 1.240 . S
O207 In195 2.326 . S
O207 C199 1.252 . S
In208 O209 2.294 . S
In208 O210 2.326 . S
In208 O214 2.266 . S
In208 O215 2.326 . S
In208 O216 2.266 . S
In208 O217 2.326 . S
In208 O219 2.294 . S
In208 O220 2.326 . S
O209 In208 2.294 . S
O209 C218 1.240 . S
O210 In208 2.326 . S
O210 C218 1.252 . S
C211 O214 1.252 . S
C211 O215 1.260 . S
C212 O219 1.240 . S
C212 O220 1.252 . S
C213 O216 1.252 . S
C213 O217 1.260 . S
O214 In208 2.266 . S
O214 C211 1.252 . S
O215 In208 2.326 . S
O215 C211 1.260 . S
O216 In208 2.266 . S
O216 C213 1.252 . S
O217 In208 2.326 . S
O217 C213 1.260 . S
C218 O209 1.240 . S
C218 O210 1.252 . S
O219 In208 2.294 . S
O219 C212 1.240 . S
O220 In208 2.326 . S
O220 C212 1.252 . S
In221 O222 2.294 . S
In221 O223 2.326 . S
In221 O227 2.266 . S
In221 O228 2.326 . S
In221 O229 2.266 . S
In221 O230 2.326 . S
In221 O232 2.294 . S
In221 O233 2.326 . S
O222 In221 2.294 . S
O222 C231 1.240 . S
O223 In221 2.326 . S
O223 C231 1.252 . S
C224 O227 1.252 . S
C224 O228 1.260 . S
C225 O232 1.240 . S
C225 O233 1.252 . S
C226 O229 1.252 . S
C226 O230 1.260 . S
O227 In221 2.266 . S
O227 C224 1.252 . S
O228 In221 2.326 . S
O228 C224 1.260 . S
O229 In221 2.266 . S
O229 C226 1.252 . S
O230 In221 2.326 . S
O230 C226 1.260 . S
C231 O222 1.240 . S
C231 O223 1.252 . S
O232 In221 2.294 . S
O232 C225 1.240 . S
O233 In221 2.326 . S
O233 C225 1.252 . S
In234 O235 2.294 . S
In234 O236 2.326 . S
In234 O240 2.266 . S
In234 O241 2.326 . S
In234 O242 2.266 . S
In234 O243 2.326 . S
In234 O245 2.294 . S
In234 O246 2.326 . S
O235 In234 2.294 . S
O235 C244 1.240 . S
O236 In234 2.326 . S
O236 C244 1.252 . S
C237 O240 1.252 . S
C237 O241 1.260 . S
C238 O245 1.240 . S
C238 O246 1.252 . S
C239 O242 1.252 . S
C239 O243 1.260 . S
O240 In234 2.266 . S
O240 C237 1.252 . S
O241 In234 2.326 . S
O241 C237 1.260 . S
O242 In234 2.266 . S
O242 C239 1.252 . S
O243 In234 2.326 . S
O243 C239 1.260 . S
C244 O235 1.240 . S
C244 O236 1.252 . S
O245 In234 2.294 . S
O245 C238 1.240 . S
O246 In234 2.326 . S
O246 C238 1.252 . S
In247 O248 2.294 . S
In247 O249 2.326 . S
In247 O253 2.266 . S
In247 O254 2.326 . S
In247 O255 2.266 . S
In247 O256 2.326 . S
In247 O258 2.294 . S
In247 O259 2.326 . S
O248 In247 2.294 . S
O248 C257 1.240 . S
O249 In247 2.326 . S
O249 C257 1.252 . S
C250 O253 1.252 . S
C250 O254 1.260 . S
C251 O258 1.240 . S
C251 O259 1.252 . S
C252 O255 1.252 . S
C252 O256 1.260 . S
O253 In247 2.266 . S
O253 C250 1.252 . S
O254 In247 2.326 . S
O254 C250 1.260 . S
O255 In247 2.266 . S
O255 C252 1.252 . S
O256 In247 2.326 . S
O256 C252 1.260 . S
C257 O248 1.240 . S
C257 O249 1.252 . S
O258 In247 2.294 . S
O258 C251 1.240 . S
O259 In247 2.326 . S
O259 C251 1.252 . S
In260 O261 2.294 . S
In260 O262 2.326 . S
In260 O266 2.266 . S
In260 O267 2.326 . S
In260 O268 2.266 . S
In260 O269 2.326 . S
In260 O271 2.294 . S
In260 O272 2.326 . S
O261 In260 2.294 . S
O261 C270 1.240 . S
O262 In260 2.326 . S
O262 C270 1.252 . S
C263 O266 1.252 . S
C263 O267 1.260 . S
C264 O271 1.240 . S
C264 O272 1.252 . S
C265 O268 1.252 . S
C265 O269 1.260 . S
O266 In260 2.266 . S
O266 C263 1.252 . S
O267 In260 2.326 . S
O267 C263 1.260 . S
O268 In260 2.266 . S
O268 C265 1.252 . S
O269 In260 2.326 . S
O269 C265 1.260 . S
C270 O261 1.240 . S
C270 O262 1.252 . S
O271 In260 2.294 . S
O271 C264 1.240 . S
O272 In260 2.326 . S
O272 C264 1.252 . S
In273 O274 2.294 . S
In273 O275 2.326 . S
In273 O279 2.266 . S
In273 O280 2.326 . S
In273 O281 2.266 . S
In273 O282 2.326 . S
In273 O284 2.294 . S
In273 O285 2.326 . S
O274 In273 2.294 . S
O274 C283 1.240 . S
O275 In273 2.326 . S
O275 C283 1.252 . S
C276 O279 1.252 . S
C276 O280 1.260 . S
C277 O284 1.240 . S
C277 O285 1.252 . S
C278 O281 1.252 . S
C278 O282 1.260 . S
O279 In273 2.266 . S
O279 C276 1.252 . S
O280 In273 2.326 . S
O280 C276 1.260 . S
O281 In273 2.266 . S
O281 C278 1.252 . S
O282 In273 2.326 . S
O282 C278 1.260 . S
C283 O274 1.240 . S
C283 O275 1.252 . S
O284 In273 2.294 . S
O284 C277 1.240 . S
O285 In273 2.326 . S
O285 C277 1.252 . S
In286 O287 2.294 . S
In286 O288 2.326 . S
In286 O292 2.266 . S
In286 O293 2.326 . S
In286 O294 2.266 . S
In286 O295 2.326 . S
In286 O297 2.294 . S
In286 O298 2.326 . S
O287 In286 2.294 . S
O287 C296 1.240 . S
O288 In286 2.326 . S
O288 C296 1.252 . S
C289 O292 1.252 . S
C289 O293 1.260 . S
C290 O297 1.240 . S
C290 O298 1.252 . S
C291 O294 1.252 . S
C291 O295 1.260 . S
O292 In286 2.266 . S
O292 C289 1.252 . S
O293 In286 2.326 . S
O293 C289 1.260 . S
O294 In286 2.266 . S
O294 C291 1.252 . S
O295 In286 2.326 . S
O295 C291 1.260 . S
C296 O287 1.240 . S
C296 O288 1.252 . S
O297 In286 2.294 . S
O297 C290 1.240 . S
O298 In286 2.326 . S
O298 C290 1.252 . S
In299 O300 2.294 . S
In299 O301 2.326 . S
In299 O305 2.266 . S
In299 O306 2.326 . S
In299 O307 2.266 . S
In299 O308 2.326 . S
In299 O310 2.294 . S
In299 O311 2.326 . S
O300 In299 2.294 . S
O300 C309 1.240 . S
O301 In299 2.326 . S
O301 C309 1.252 . S
C302 O305 1.252 . S
C302 O306 1.260 . S
C303 O310 1.240 . S
C303 O311 1.252 . S
C304 O307 1.252 . S
C304 O308 1.260 . S
O305 In299 2.266 . S
O305 C302 1.252 . S
O306 In299 2.326 . S
O306 C302 1.260 . S
O307 In299 2.266 . S
O307 C304 1.252 . S
O308 In299 2.326 . S
O308 C304 1.260 . S
C309 O300 1.240 . S
C309 O301 1.252 . S
O310 In299 2.294 . S
O310 C303 1.240 . S
O311 In299 2.326 . S
O311 C303 1.252 . S
C312 C313 1.369 . S
C312 C314 1.419 . S
C312 H316 0.930 . S
C313 C312 1.369 . S
C313 C322 1.429 . S
C314 C312 1.419 . S
C314 C315 1.363 . S
C314 H317 0.929 . S
C315 C314 1.363 . S
C315 C321 1.428 . S
H316 C312 0.930 . S
H317 C314 0.929 . S
S318 N319 1.613 . S
S318 N320 1.610 . S
N319 S318 1.613 . S
N319 C322 1.350 . S
N320 S318 1.610 . S
N320 C321 1.351 . S
C321 C315 1.428 . S
C321 N320 1.351 . S
C321 C322 1.434 . S
C322 C313 1.429 . S
C322 N319 1.350 . S
C322 C321 1.434 . S
C323 C324 1.369 . S
C323 C325 1.419 . S
C323 H327 0.930 . S
C324 C323 1.369 . S
C324 C333 1.429 . S
C325 C323 1.419 . S
C325 C326 1.363 . S
C325 H328 0.929 . S
C326 C325 1.363 . S
C326 C332 1.428 . S
H327 C323 0.930 . S
H328 C325 0.929 . S
S329 N330 1.613 . S
S329 N331 1.610 . S
N330 S329 1.613 . S
N330 C333 1.350 . S
N331 S329 1.610 . S
N331 C332 1.351 . S
C332 C326 1.428 . S
C332 N331 1.351 . S
C332 C333 1.434 . S
C333 C324 1.429 . S
C333 N330 1.350 . S
C333 C332 1.434 . S
C334 C335 1.369 . S
C334 C336 1.419 . S
C334 H338 0.930 . S
C335 C334 1.369 . S
C335 C344 1.429 . S
C336 C334 1.419 . S
C336 C337 1.363 . S
C336 H339 0.929 . S
C337 C336 1.363 . S
C337 C343 1.428 . S
H338 C334 0.930 . S
H339 C336 0.929 . S
S340 N341 1.613 . S
S340 N342 1.610 . S
N341 S340 1.613 . S
N341 C344 1.350 . S
N342 S340 1.610 . S
N342 C343 1.351 . S
C343 C337 1.428 . S
C343 N342 1.351 . S
C343 C344 1.434 . S
C344 C335 1.429 . S
C344 N341 1.350 . S
C344 C343 1.434 . S
C345 C346 1.369 . S
C345 C347 1.419 . S
C345 H349 0.930 . S
C346 C345 1.369 . S
C346 C355 1.429 . S
C347 C345 1.419 . S
C347 C348 1.363 . S
C347 H350 0.929 . S
C348 C347 1.363 . S
C348 C354 1.428 . S
H349 C345 0.930 . S
H350 C347 0.929 . S
S351 N352 1.613 . S
S351 N353 1.610 . S
N352 S351 1.613 . S
N352 C355 1.350 . S
N353 S351 1.610 . S
N353 C354 1.351 . S
C354 C348 1.428 . S
C354 N353 1.351 . S
C354 C355 1.434 . S
C355 C346 1.429 . S
C355 N352 1.350 . S
C355 C354 1.434 . S
C356 C357 1.369 . S
C356 C358 1.419 . S
C356 H360 0.930 . S
C357 C356 1.369 . S
C357 C366 1.429 . S
C358 C356 1.419 . S
C358 C359 1.363 . S
C358 H361 0.929 . S
C359 C358 1.363 . S
C359 C365 1.428 . S
H360 C356 0.930 . S
H361 C358 0.929 . S
S362 N363 1.613 . S
S362 N364 1.610 . S
N363 S362 1.613 . S
N363 C366 1.350 . S
N364 S362 1.610 . S
N364 C365 1.351 . S
C365 C359 1.428 . S
C365 N364 1.351 . S
C365 C366 1.434 . S
C366 C357 1.429 . S
C366 N363 1.350 . S
C366 C365 1.434 . S
C367 C368 1.369 . S
C367 C369 1.419 . S
C367 H371 0.930 . S
C368 C367 1.369 . S
C368 C377 1.429 . S
C369 C367 1.419 . S
C369 C370 1.363 . S
C369 H372 0.929 . S
C370 C369 1.363 . S
C370 C376 1.428 . S
H371 C367 0.930 . S
H372 C369 0.929 . S
S373 N374 1.613 . S
S373 N375 1.610 . S
N374 S373 1.613 . S
N374 C377 1.350 . S
N375 S373 1.610 . S
N375 C376 1.351 . S
C376 C370 1.428 . S
C376 N375 1.351 . S
C376 C377 1.434 . S
C377 C368 1.429 . S
C377 N374 1.350 . S
C377 C376 1.434 . S
C378 C379 1.369 . S
C378 C380 1.419 . S
C378 H382 0.930 . S
C379 C378 1.369 . S
C379 C388 1.429 . S
C380 C378 1.419 . S
C380 C381 1.363 . S
C380 H383 0.929 . S
C381 C380 1.363 . S
C381 C387 1.428 . S
H382 C378 0.930 . S
H383 C380 0.929 . S
S384 N385 1.613 . S
S384 N386 1.610 . S
N385 S384 1.613 . S
N385 C388 1.350 . S
N386 S384 1.610 . S
N386 C387 1.351 . S
C387 C381 1.428 . S
C387 N386 1.351 . S
C387 C388 1.434 . S
C388 C379 1.429 . S
C388 N385 1.350 . S
C388 C387 1.434 . S
C389 C390 1.369 . S
C389 C391 1.419 . S
C389 H393 0.930 . S
C390 C389 1.369 . S
C390 C399 1.429 . S
C391 C389 1.419 . S
C391 C392 1.363 . S
C391 H394 0.929 . S
C392 C391 1.363 . S
C392 C398 1.428 . S
H393 C389 0.930 . S
H394 C391 0.929 . S
S395 N396 1.613 . S
S395 N397 1.610 . S
N396 S395 1.613 . S
N396 C399 1.350 . S
N397 S395 1.610 . S
N397 C398 1.351 . S
C398 C392 1.428 . S
C398 N397 1.351 . S
C398 C399 1.434 . S
C399 C390 1.429 . S
C399 N396 1.350 . S
C399 C398 1.434 . S
C400 C401 1.369 . S
C400 C402 1.419 . S
C400 H404 0.930 . S
C401 C400 1.369 . S
C401 C410 1.429 . S
C402 C400 1.419 . S
C402 C403 1.363 . S
C402 H405 0.929 . S
C403 C402 1.363 . S
C403 C409 1.428 . S
H404 C400 0.930 . S
H405 C402 0.929 . S
S406 N407 1.613 . S
S406 N408 1.610 . S
N407 S406 1.613 . S
N407 C410 1.350 . S
N408 S406 1.610 . S
N408 C409 1.351 . S
C409 C403 1.428 . S
C409 N408 1.351 . S
C409 C410 1.434 . S
C410 C401 1.429 . S
C410 N407 1.350 . S
C410 C409 1.434 . S
C411 C412 1.369 . S
C411 C413 1.419 . S
C411 H415 0.930 . S
C412 C411 1.369 . S
C412 C421 1.429 . S
C413 C411 1.419 . S
C413 C414 1.363 . S
C413 H416 0.929 . S
C414 C413 1.363 . S
C414 C420 1.428 . S
H415 C411 0.930 . S
H416 C413 0.929 . S
S417 N418 1.613 . S
S417 N419 1.610 . S
N418 S417 1.613 . S
N418 C421 1.350 . S
N419 S417 1.610 . S
N419 C420 1.351 . S
C420 C414 1.428 . S
C420 N419 1.351 . S
C420 C421 1.434 . S
C421 C412 1.429 . S
C421 N418 1.350 . S
C421 C420 1.434 . S
C422 C423 1.369 . S
C422 C424 1.419 . S
C422 H426 0.930 . S
C423 C422 1.369 . S
C423 C432 1.429 . S
C424 C422 1.419 . S
C424 C425 1.363 . S
C424 H427 0.929 . S
C425 C424 1.363 . S
C425 C431 1.428 . S
H426 C422 0.930 . S
H427 C424 0.929 . S
S428 N429 1.613 . S
S428 N430 1.610 . S
N429 S428 1.613 . S
N429 C432 1.350 . S
N430 S428 1.610 . S
N430 C431 1.351 . S
C431 C425 1.428 . S
C431 N430 1.351 . S
C431 C432 1.434 . S
C432 C423 1.429 . S
C432 N429 1.350 . S
C432 C431 1.434 . S
C433 C434 1.369 . S
C433 C435 1.419 . S
C433 H437 0.930 . S
C434 C433 1.369 . S
C434 C443 1.429 . S
C435 C433 1.419 . S
C435 C436 1.363 . S
C435 H438 0.929 . S
C436 C435 1.363 . S
C436 C442 1.428 . S
H437 C433 0.930 . S
H438 C435 0.929 . S
S439 N440 1.613 . S
S439 N441 1.610 . S
N440 S439 1.613 . S
N440 C443 1.350 . S
N441 S439 1.610 . S
N441 C442 1.351 . S
C442 C436 1.428 . S
C442 N441 1.351 . S
C442 C443 1.434 . S
C443 C434 1.429 . S
C443 N440 1.350 . S
C443 C442 1.434 . S
C444 C445 1.369 . S
C444 C446 1.419 . S
C444 H448 0.930 . S
C445 C444 1.369 . S
C445 C454 1.429 1_556 S
C446 C444 1.419 . S
C446 C447 1.363 1_556 S
C446 H449 0.929 . S
C447 C446 1.363 1_554 S
C447 C453 1.428 . S
H448 C444 0.930 . S
H449 C446 0.929 . S
S450 N451 1.613 . S
S450 N452 1.610 . S
N451 S450 1.613 . S
N451 C454 1.350 . S
N452 S450 1.610 . S
N452 C453 1.351 . S
C453 C447 1.428 . S
C453 N452 1.351 . S
C453 C454 1.434 . S
C454 C445 1.429 1_554 S
C454 N451 1.350 . S
C454 C453 1.434 . S
C455 C456 1.369 . S
C455 C457 1.419 . S
C455 H459 0.930 . S
C456 C455 1.369 . S
C456 C465 1.429 . S
C457 C455 1.419 . S
C457 C458 1.363 . S
C457 H460 0.929 . S
C458 C457 1.363 . S
C458 C464 1.428 . S
H459 C455 0.930 . S
H460 C457 0.929 . S
S461 N462 1.613 . S
S461 N463 1.610 . S
N462 S461 1.613 . S
N462 C465 1.350 . S
N463 S461 1.610 . S
N463 C464 1.351 . S
C464 C458 1.428 . S
C464 N463 1.351 . S
C464 C465 1.434 . S
C465 C456 1.429 . S
C465 N462 1.350 . S
C465 C464 1.434 . S
C466 C467 1.369 . S
C466 C468 1.419 1_554 S
C466 H470 0.930 . S
C467 C466 1.369 . S
C467 C476 1.429 . S
C468 C466 1.419 1_556 S
C468 C469 1.363 . S
C468 H471 0.929 . S
C469 C468 1.363 . S
C469 C475 1.428 . S
H470 C466 0.930 . S
H471 C468 0.929 . S
S472 N473 1.613 . S
S472 N474 1.610 1_554 S
N473 S472 1.613 . S
N473 C476 1.350 . S
N474 S472 1.610 1_556 S
N474 C475 1.351 . S
C475 C469 1.428 . S
C475 N474 1.351 . S
C475 C476 1.434 1_556 S
C476 C467 1.429 . S
C476 N473 1.350 . S
C476 C475 1.434 1_554 S
C477 C478 1.369 . S
C477 C479 1.419 . S
C477 H481 0.930 . S
C478 C477 1.369 . S
C478 C487 1.429 . S
C479 C477 1.419 . S
C479 C480 1.363 . S
C479 H482 0.929 . S
C480 C479 1.363 . S
C480 C486 1.428 . S
H481 C477 0.930 . S
H482 C479 0.929 . S
S483 N484 1.613 . S
S483 N485 1.610 . S
N484 S483 1.613 . S
N484 C487 1.350 . S
N485 S483 1.610 . S
N485 C486 1.351 . S
C486 C480 1.428 . S
C486 N485 1.351 . S
C486 C487 1.434 . S
C487 C478 1.429 . S
C487 N484 1.350 . S
C487 C486 1.434 . S
C488 C489 1.369 . S
C488 C490 1.419 . S
C488 H492 0.930 . S
C489 C488 1.369 . S
C489 C498 1.429 1_556 S
C490 C488 1.419 . S
C490 C491 1.363 1_556 S
C490 H493 0.929 . S
C491 C490 1.363 1_554 S
C491 C497 1.428 . S
H492 C488 0.930 . S
H493 C490 0.929 . S
S494 N495 1.613 . S
S494 N496 1.610 . S
N495 S494 1.613 . S
N495 C498 1.350 . S
N496 S494 1.610 . S
N496 C497 1.351 . S
C497 C491 1.428 . S
C497 N496 1.351 . S
C497 C498 1.434 . S
C498 C489 1.429 1_554 S
C498 N495 1.350 . S
C498 C497 1.434 . S
C499 C500 1.369 . S
C499 C501 1.419 . S
C499 H503 0.930 . S
C500 C499 1.369 . S
C500 C509 1.429 . S
C501 C499 1.419 . S
C501 C502 1.363 . S
C501 H504 0.929 . S
C502 C501 1.363 . S
C502 C508 1.428 . S
H503 C499 0.930 . S
H504 C501 0.929 . S
S505 N506 1.613 . S
S505 N507 1.610 . S
N506 S505 1.613 . S
N506 C509 1.350 . S
N507 S505 1.610 . S
N507 C508 1.351 . S
C508 C502 1.428 . S
C508 N507 1.351 . S
C508 C509 1.434 . S
C509 C500 1.429 . S
C509 N506 1.350 . S
C509 C508 1.434 . S
C510 C511 1.369 . S
C510 C512 1.409 1_554 S
C510 H514 0.930 . S
C511 C510 1.369 . S
C511 C520 1.429 1_554 S
C512 C510 1.409 1_556 S
C512 C513 1.374 . S
C512 H515 0.928 1_556 S
C513 C512 1.374 . S
C513 C519 1.428 . S
H514 C510 0.930 . S
H515 C512 0.928 1_554 S
S516 N517 1.613 . S
S516 N518 1.610 . S
N517 S516 1.613 . S
N517 C520 1.350 . S
N518 S516 1.610 . S
N518 C519 1.351 . S
C519 C513 1.428 . S
C519 N518 1.351 . S
C519 C520 1.434 . S
C520 C511 1.429 1_556 S
C520 N517 1.350 . S
C520 C519 1.434 . S
C521 C522 1.369 . S
C521 C523 1.419 . S
C521 H525 0.930 . S
C522 C521 1.369 . S
C522 C531 1.429 . S
C523 C521 1.419 . S
C523 C524 1.363 . S
C523 H526 0.929 . S
C524 C523 1.363 . S
C524 C530 1.428 . S
H525 C521 0.930 . S
H526 C523 0.929 . S
S527 N528 1.613 . S
S527 N529 1.610 . S
N528 S527 1.613 . S
N528 C531 1.350 . S
N529 S527 1.610 . S
N529 C530 1.351 . S
C530 C524 1.428 . S
C530 N529 1.351 . S
C530 C531 1.434 . S
C531 C522 1.429 . S
C531 N528 1.350 . S
C531 C530 1.434 . S
C532 C533 1.369 1_554 S
C532 C534 1.419 . S
C532 H536 0.930 . S
C533 C532 1.369 1_556 S
C533 C542 1.429 . S
C534 C532 1.419 . S
C534 C535 1.363 . S
C534 H537 0.929 . S
C535 C534 1.363 . S
C535 C541 1.428 1_554 S
H536 C532 0.930 . S
H537 C534 0.929 . S
S538 N539 1.613 . S
S538 N540 1.610 . S
N539 S538 1.613 . S
N539 C542 1.350 . S
N540 S538 1.610 . S
N540 C541 1.351 . S
C541 C535 1.428 1_556 S
C541 N540 1.351 . S
C541 C542 1.434 . S
C542 C533 1.429 . S
C542 N539 1.350 . S
C542 C541 1.434 . S
C543 C544 1.369 . S
C543 C545 1.419 . S
C543 H547 0.930 . S
C544 C543 1.369 . S
C544 C553 1.429 . S
C545 C543 1.419 . S
C545 C546 1.363 . S
C545 H548 0.929 . S
C546 C545 1.363 . S
C546 C552 1.428 . S
H547 C543 0.930 . S
H548 C545 0.929 . S
S549 N550 1.613 . S
S549 N551 1.610 . S
N550 S549 1.613 . S
N550 C553 1.350 . S
N551 S549 1.610 . S
N551 C552 1.351 . S
C552 C546 1.428 . S
C552 N551 1.351 . S
C552 C553 1.434 . S
C553 C544 1.429 . S
C553 N550 1.350 . S
C553 C552 1.434 . S
C554 C555 1.369 . S
C554 C556 1.419 . S
C554 H558 0.930 . S
C555 C554 1.369 . S
C555 C564 1.429 1_556 S
C556 C554 1.419 . S
C556 C557 1.363 1_556 S
C556 H559 0.929 . S
C557 C556 1.363 1_554 S
C557 C563 1.428 . S
H558 C554 0.930 . S
H559 C556 0.929 . S
S560 N561 1.613 . S
S560 N562 1.610 . S
N561 S560 1.613 . S
N561 C564 1.350 . S
N562 S560 1.610 . S
N562 C563 1.351 . S
C563 C557 1.428 . S
C563 N562 1.351 . S
C563 C564 1.434 . S
C564 C555 1.429 1_554 S
C564 N561 1.350 . S
C564 C563 1.434 . S
C565 C566 1.369 . S
C565 C567 1.419 . S
C565 H569 0.930 . S
C566 C565 1.369 . S
C566 C575 1.429 . S
C567 C565 1.419 . S
C567 C568 1.363 . S
C567 H570 0.929 . S
C568 C567 1.363 . S
C568 C574 1.428 . S
H569 C565 0.930 . S
H570 C567 0.929 . S
S571 N572 1.613 . S
S571 N573 1.610 . S
N572 S571 1.613 . S
N572 C575 1.350 . S
N573 S571 1.610 . S
N573 C574 1.351 . S
C574 C568 1.428 . S
C574 N573 1.351 . S
C574 C575 1.434 . S
C575 C566 1.429 . S
C575 N572 1.350 . S
C575 C574 1.434 . S
C576 C577 1.369 . S
C576 C578 1.419 . S
C576 H580 0.930 . S
C577 C576 1.369 . S
C577 C586 1.429 . S
C578 C576 1.419 . S
C578 C579 1.363 . S
C578 H581 0.929 . S
C579 C578 1.363 . S
C579 C585 1.428 . S
H580 C576 0.930 . S
H581 C578 0.929 . S
S582 N583 1.613 . S
S582 N584 1.610 . S
N583 S582 1.613 . S
N583 C586 1.350 . S
N584 S582 1.610 . S
N584 C585 1.351 . S
C585 C579 1.428 . S
C585 N584 1.351 . S
C585 C586 1.434 . S
C586 C577 1.429 . S
C586 N583 1.350 . S
C586 C585 1.434 . S
C587 C588 1.369 . S
C587 C589 1.419 1_455 S
C587 H591 0.930 . S
C588 C587 1.369 . S
C588 C597 1.429 . S
C589 C587 1.419 1_655 S
C589 C590 1.363 . S
C589 H592 0.929 . S
C590 C589 1.363 . S
C590 C596 1.428 . S
H591 C587 0.930 . S
H592 C589 0.929 . S
S593 N594 1.616 1_655 S
S593 N595 1.609 . S
N594 S593 1.616 1_455 S
N594 C597 1.350 . S
N595 S593 1.609 . S
N595 C596 1.351 . S
C596 C590 1.428 . S
C596 N595 1.351 . S
C596 C597 1.434 1_655 S
C597 C588 1.429 . S
C597 N594 1.350 . S
C597 C596 1.434 1_455 S
C598 C599 1.369 . S
C598 C600 1.419 1_565 S
C598 H602 0.930 . S
C599 C598 1.369 . S
C599 C608 1.429 . S
C600 C598 1.419 1_545 S
C600 C601 1.363 . S
C600 H603 0.929 . S
C601 C600 1.363 . S
C601 C607 1.428 . S
H602 C598 0.930 . S
H603 C600 0.929 . S
S604 N605 1.615 1_545 S
S604 N606 1.607 . S
N605 S604 1.615 1_565 S
N605 C608 1.350 . S
N606 S604 1.607 . S
N606 C607 1.351 . S
C607 C601 1.428 . S
C607 N606 1.351 . S
C607 C608 1.434 1_545 S
C608 C599 1.429 . S
C608 N605 1.350 . S
C608 C607 1.434 1_565 S
C609 C610 1.369 . S
C609 C611 1.419 . S
C609 H613 0.930 . S
C610 C609 1.369 . S
C610 C619 1.429 . S
C611 C609 1.419 . S
C611 C612 1.363 . S
C611 H614 0.929 . S
C612 C611 1.363 . S
C612 C618 1.428 . S
H613 C609 0.930 . S
H614 C611 0.929 . S
S615 N616 1.613 . S
S615 N617 1.610 . S
N616 S615 1.613 . S
N616 C619 1.350 . S
N617 S615 1.610 . S
N617 C618 1.351 . S
C618 C612 1.428 . S
C618 N617 1.351 . S
C618 C619 1.434 . S
C619 C610 1.429 . S
C619 N616 1.350 . S
C619 C618 1.434 . S
C620 C621 1.369 . S
C620 C622 1.419 1_655 S
C620 H624 0.930 . S
C621 C620 1.369 . S
C621 C630 1.429 . S
C622 C620 1.419 1_455 S
C622 C623 1.363 . S
C622 H625 0.929 . S
C623 C622 1.363 . S
C623 C629 1.428 . S
H624 C620 0.930 . S
H625 C622 0.929 . S
S626 N627 1.616 1_455 S
S626 N628 1.609 . S
N627 S626 1.616 1_655 S
N627 C630 1.350 . S
N628 S626 1.609 . S
N628 C629 1.351 . S
C629 C623 1.428 . S
C629 N628 1.351 . S
C629 C630 1.434 1_455 S
C630 C621 1.429 . S
C630 N627 1.350 . S
C630 C629 1.434 1_655 S
C631 C632 1.369 . S
C631 C633 1.419 1_545 S
C631 H635 0.930 . S
C632 C631 1.369 . S
C632 C641 1.429 . S
C633 C631 1.419 1_565 S
C633 C634 1.363 . S
C633 H636 0.929 . S
C634 C633 1.363 . S
C634 C640 1.428 . S
H635 C631 0.930 . S
H636 C633 0.929 . S
S637 N638 1.616 1_565 S
S637 N639 1.608 . S
N638 S637 1.616 1_545 S
N638 C641 1.350 . S
N639 S637 1.608 . S
N639 C640 1.351 . S
C640 C634 1.428 . S
C640 N639 1.351 . S
C640 C641 1.434 1_565 S
C641 C632 1.429 . S
C641 N638 1.350 . S
C641 C640 1.434 1_545 S
C642 C643 1.369 . S
C642 C644 1.419 . S
C642 H646 0.930 . S
C643 C642 1.369 . S
C643 C652 1.429 . S
C644 C642 1.419 . S
C644 C645 1.363 . S
C644 H647 0.929 . S
C645 C644 1.363 . S
C645 C651 1.428 . S
H646 C642 0.930 . S
H647 C644 0.929 . S
S648 N649 1.613 . S
S648 N650 1.610 . S
N649 S648 1.613 . S
N649 C652 1.350 . S
N650 S648 1.610 . S
N650 C651 1.351 . S
C651 C645 1.428 . S
C651 N650 1.351 . S
C651 C652 1.434 . S
C652 C643 1.429 . S
C652 N649 1.350 . S
C652 C651 1.434 . S
C653 C654 1.369 . S
C653 C655 1.419 1_655 S
C653 H657 0.930 . S
C654 C653 1.369 . S
C654 C663 1.429 . S
C655 C653 1.419 1_455 S
C655 C656 1.363 . S
C655 H658 0.929 . S
C656 C655 1.363 . S
C656 C662 1.428 . S
H657 C653 0.930 . S
H658 C655 0.929 . S
S659 N660 1.616 1_455 S
S659 N661 1.608 . S
N660 S659 1.616 1_655 S
N660 C663 1.350 . S
N661 S659 1.608 . S
N661 C662 1.351 . S
C662 C656 1.428 . S
C662 N661 1.351 . S
C662 C663 1.434 1_455 S
C663 C654 1.429 . S
C663 N660 1.350 . S
C663 C662 1.434 1_655 S
C664 C665 1.369 . S
C664 C666 1.419 1_545 S
C664 H668 0.930 . S
C665 C664 1.369 . S
C665 C674 1.429 . S
C666 C664 1.419 1_565 S
C666 C667 1.363 . S
C666 H669 0.929 . S
C667 C666 1.363 . S
C667 C673 1.428 . S
H668 C664 0.930 . S
H669 C666 0.929 . S
S670 N671 1.616 1_565 S
S670 N672 1.608 . S
N671 S670 1.616 1_545 S
N671 C674 1.350 . S
N672 S670 1.608 . S
N672 C673 1.351 . S
C673 C667 1.428 . S
C673 N672 1.351 . S
C673 C674 1.434 1_565 S
C674 C665 1.429 . S
C674 N671 1.350 . S
C674 C673 1.434 1_545 S
C675 C676 1.369 . S
C675 C677 1.419 . S
C675 H679 0.930 . S
C676 C675 1.369 . S
C676 C685 1.429 . S
C677 C675 1.419 . S
C677 C678 1.363 . S
C677 H680 0.929 . S
C678 C677 1.363 . S
C678 C684 1.428 . S
H679 C675 0.930 . S
H680 C677 0.929 . S
S681 N682 1.613 . S
S681 N683 1.610 . S
N682 S681 1.613 . S
N682 C685 1.350 . S
N683 S681 1.610 . S
N683 C684 1.351 . S
C684 C678 1.428 . S
C684 N683 1.351 . S
C684 C685 1.434 . S
C685 C676 1.429 . S
C685 N682 1.350 . S
C685 C684 1.434 . S
C686 C687 1.369 . S
C686 C688 1.419 1_455 S
C686 H690 0.930 . S
C687 C686 1.369 . S
C687 C696 1.429 . S
C688 C686 1.419 1_655 S
C688 C689 1.363 . S
C688 H691 0.929 . S
C689 C688 1.363 . S
C689 C695 1.428 . S
H690 C686 0.930 . S
H691 C688 0.929 . S
S692 N693 1.616 1_655 S
S692 N694 1.609 . S
N693 S692 1.616 1_455 S
N693 C696 1.350 . S
N694 S692 1.609 . S
N694 C695 1.351 . S
C695 C689 1.428 . S
C695 N694 1.351 . S
C695 C696 1.434 1_655 S
C696 C687 1.429 . S
C696 N693 1.350 . S
C696 C695 1.434 1_455 S
C697 C698 1.369 . S
C697 C699 1.419 1_565 S
C697 H701 0.930 . S
C698 C697 1.369 . S
C698 C707 1.429 . S
C699 C697 1.419 1_545 S
C699 C700 1.363 . S
C699 H702 0.929 . S
C700 C699 1.363 . S
C700 C706 1.428 . S
H701 C697 0.930 . S
H702 C699 0.929 . S
S703 N704 1.616 1_545 S
S703 N705 1.609 . S
N704 S703 1.616 1_565 S
N704 C707 1.350 . S
N705 S703 1.609 . S
N705 C706 1.351 . S
C706 C700 1.428 . S
C706 N705 1.351 . S
C706 C707 1.434 1_545 S
C707 C698 1.429 . S
C707 N704 1.350 . S
C707 C706 1.434 1_565 S
C708 C709 1.369 1_554 S
C708 C710 1.419 . S
C708 H712 0.930 . S
C709 C708 1.369 1_556 S
C709 C718 1.429 . S
C710 C708 1.419 . S
C710 C711 1.363 . S
C710 H713 0.929 . S
C711 C710 1.363 . S
C711 C717 1.428 1_554 S
H712 C708 0.930 . S
H713 C710 0.929 . S
S714 N715 1.613 . S
S714 N716 1.610 . S
N715 S714 1.613 . S
N715 C718 1.350 . S
N716 S714 1.610 . S
N716 C717 1.351 . S
C717 C711 1.428 1_556 S
C717 N716 1.351 . S
C717 C718 1.434 . S
C718 C709 1.429 . S
C718 N715 1.350 . S
C718 C717 1.434 . S
C719 C720 1.369 . S
C719 C721 1.419 . S
C719 H723 0.930 . S
C720 C719 1.369 . S
C720 C729 1.429 . S
C721 C719 1.419 . S
C721 C722 1.363 . S
C721 H724 0.929 . S
C722 C721 1.363 . S
C722 C728 1.428 . S
H723 C719 0.930 . S
H724 C721 0.929 . S
S725 N726 1.613 . S
S725 N727 1.610 . S
N726 S725 1.613 . S
N726 C729 1.350 . S
N727 S725 1.610 . S
N727 C728 1.351 . S
C728 C722 1.428 . S
C728 N727 1.351 . S
C728 C729 1.434 . S
C729 C720 1.429 . S
C729 N726 1.350 . S
C729 C728 1.434 . S
C730 C731 1.369 . S
C730 C732 1.419 1_556 S
C730 H734 0.930 . S
C731 C730 1.369 . S
C731 C740 1.429 . S
C732 C730 1.419 1_554 S
C732 C733 1.363 . S
C732 H735 0.929 . S
C733 C732 1.363 . S
C733 C739 1.428 . S
H734 C730 0.930 . S
H735 C732 0.929 . S
S736 N737 1.613 . S
S736 N738 1.610 1_556 S
N737 S736 1.613 . S
N737 C740 1.350 . S
N738 S736 1.610 1_554 S
N738 C739 1.351 . S
C739 C733 1.428 . S
C739 N738 1.351 . S
C739 C740 1.434 1_554 S
C740 C731 1.429 . S
C740 N737 1.350 . S
C740 C739 1.434 1_556 S
C741 C742 1.369 . S
C741 C743 1.419 . S
C741 H745 0.930 . S
C742 C741 1.369 . S
C742 C751 1.429 . S
C743 C741 1.419 . S
C743 C744 1.363 . S
C743 H746 0.929 . S
C744 C743 1.363 . S
C744 C750 1.428 . S
H745 C741 0.930 . S
H746 C743 0.929 . S
S747 N748 1.613 . S
S747 N749 1.610 . S
N748 S747 1.613 . S
N748 C751 1.350 . S
N749 S747 1.610 . S
N749 C750 1.351 . S
C750 C744 1.428 . S
C750 N749 1.351 . S
C750 C751 1.434 . S
C751 C742 1.429 . S
C751 N748 1.350 . S
C751 C750 1.434 . S
C752 C753 1.369 1_554 S
C752 C754 1.419 . S
C752 H756 0.930 . S
C753 C752 1.369 1_556 S
C753 C762 1.429 . S
C754 C752 1.419 . S
C754 C755 1.363 . S
C754 H757 0.929 . S
C755 C754 1.363 . S
C755 C761 1.428 1_554 S
H756 C752 0.930 . S
H757 C754 0.929 . S
S758 N759 1.613 . S
S758 N760 1.610 . S
N759 S758 1.613 . S
N759 C762 1.350 . S
N760 S758 1.610 . S
N760 C761 1.351 . S
C761 C755 1.428 1_556 S
C761 N760 1.351 . S
C761 C762 1.434 . S
C762 C753 1.429 . S
C762 N759 1.350 . S
C762 C761 1.434 . S
C763 C764 1.369 . S
C763 C765 1.419 . S
C763 H767 0.930 . S
C764 C763 1.369 . S
C764 C773 1.429 . S
C765 C763 1.419 . S
C765 C766 1.363 . S
C765 H768 0.929 . S
C766 C765 1.363 . S
C766 C772 1.428 . S
H767 C763 0.930 . S
H768 C765 0.929 . S
S769 N770 1.613 . S
S769 N771 1.610 . S
N770 S769 1.613 . S
N770 C773 1.350 . S
N771 S769 1.610 . S
N771 C772 1.351 . S
C772 C766 1.428 . S
C772 N771 1.351 . S
C772 C773 1.434 . S
C773 C764 1.429 . S
C773 N770 1.350 . S
C773 C772 1.434 . S
C774 C775 1.369 1_556 S
C774 C776 1.419 . S
C774 H778 0.930 . S
C775 C774 1.369 1_554 S
C775 C784 1.429 . S
C776 C774 1.419 . S
C776 C777 1.363 . S
C776 H779 0.929 . S
C777 C776 1.363 . S
C777 C783 1.428 1_556 S
H778 C774 0.930 . S
H779 C776 0.929 . S
S780 N781 1.613 . S
S780 N782 1.610 . S
N781 S780 1.613 . S
N781 C784 1.350 . S
N782 S780 1.610 . S
N782 C783 1.351 . S
C783 C777 1.428 1_554 S
C783 N782 1.351 . S
C783 C784 1.434 . S
C784 C775 1.429 . S
C784 N781 1.350 . S
C784 C783 1.434 . S
C785 C786 1.369 . S
C785 C787 1.419 . S
C785 H789 0.930 . S
C786 C785 1.369 . S
C786 C795 1.429 . S
C787 C785 1.419 . S
C787 C788 1.363 . S
C787 H790 0.929 . S
C788 C787 1.363 . S
C788 C794 1.428 . S
H789 C785 0.930 . S
H790 C787 0.929 . S
S791 N792 1.613 . S
S791 N793 1.610 . S
N792 S791 1.613 . S
N792 C795 1.350 . S
N793 S791 1.610 . S
N793 C794 1.351 . S
C794 C788 1.428 . S
C794 N793 1.351 . S
C794 C795 1.434 . S
C795 C786 1.429 . S
C795 N792 1.350 . S
C795 C794 1.434 . S
C796 C797 1.369 1_556 S
C796 C798 1.419 . S
C796 H800 0.930 . S
C797 C796 1.369 1_554 S
C797 C806 1.429 . S
C798 C796 1.419 . S
C798 C799 1.363 . S
C798 H801 0.929 . S
C799 C798 1.363 . S
C799 C805 1.428 1_556 S
H800 C796 0.930 . S
H801 C798 0.929 . S
S802 N803 1.613 . S
S802 N804 1.610 . S
N803 S802 1.613 . S
N803 C806 1.350 . S
N804 S802 1.610 . S
N804 C805 1.351 . S
C805 C799 1.428 1_554 S
C805 N804 1.351 . S
C805 C806 1.434 . S
C806 C797 1.429 . S
C806 N803 1.350 . S
C806 C805 1.434 . S
C807 C808 1.369 . S
C807 C809 1.419 . S
C807 H811 0.930 . S
C808 C807 1.369 . S
C808 C817 1.429 . S
C809 C807 1.419 . S
C809 C810 1.363 . S
C809 H812 0.929 . S
C810 C809 1.363 . S
C810 C816 1.428 . S
H811 C807 0.930 . S
H812 C809 0.929 . S
S813 N814 1.613 . S
S813 N815 1.610 . S
N814 S813 1.613 . S
N814 C817 1.350 . S
N815 S813 1.610 . S
N815 C816 1.351 . S
C816 C810 1.428 . S
C816 N815 1.351 . S
C816 C817 1.434 . S
C817 C808 1.429 . S
C817 N814 1.350 . S
C817 C816 1.434 . S
C818 C819 1.369 . S
C818 C820 1.419 1_556 S
C818 H822 0.930 . S
C819 C818 1.369 . S
C819 C828 1.429 . S
C820 C818 1.419 1_554 S
C820 C821 1.363 . S
C820 H823 0.929 . S
C821 C820 1.363 . S
C821 C827 1.428 . S
H822 C818 0.930 . S
H823 C820 0.929 . S
S824 N825 1.613 1_554 S
S824 N826 1.610 . S
N825 S824 1.613 1_556 S
N825 C828 1.350 . S
N826 S824 1.610 . S
N826 C827 1.351 . S
C827 C821 1.428 . S
C827 N826 1.351 . S
C827 C828 1.434 1_554 S
C828 C819 1.429 . S
C828 N825 1.350 . S
C828 C827 1.434 1_556 S
C829 C830 1.369 . S
C829 C831 1.419 . S
C829 H833 0.930 . S
C830 C829 1.369 . S
C830 C839 1.429 . S
C831 C829 1.419 . S
C831 C832 1.363 . S
C831 H834 0.929 . S
C832 C831 1.363 . S
C832 C838 1.428 . S
H833 C829 0.930 . S
H834 C831 0.929 . S
S835 N836 1.613 . S
S835 N837 1.610 . S
N836 S835 1.613 . S
N836 C839 1.350 . S
N837 S835 1.610 . S
N837 C838 1.351 . S
C838 C832 1.428 . S
C838 N837 1.351 . S
C838 C839 1.434 . S
C839 C830 1.429 . S
C839 N836 1.350 . S
C839 C838 1.434 . S
C313 C5 1.486 . S
C315 C200 1.486 . S
C324 C18 1.484 . S
C326 C213 1.484 . S
C335 C224 1.485 . S
C337 C31 1.485 . S
C346 C161 1.486 . S
C348 C44 1.486 . S
C357 C174 1.484 . S
C359 C57 1.484 . S
C368 C187 1.487 . S
C370 C68 1.486 . S
C379 C276 1.487 . S
C381 C83 1.486 . S
C390 C94 1.484 . S
C392 C289 1.484 . S
C401 C302 1.485 . S
C403 C107 1.485 . S
C412 C122 1.487 . S
C414 C237 1.486 . S
C423 C250 1.484 . S
C425 C133 1.485 . S
C434 C148 1.486 . S
C436 C265 1.485 . S
C445 C134 1.519 . S
C447 C10 1.525 . S
C456 C153 1.524 . S
C458 C23 1.522 . S
C467 C36 1.523 . S
C469 C88 1.521 . S
C478 C49 1.521 . S
C480 C95 1.524 . S
C489 C108 1.519 . S
C491 C62 1.524 . S
C500 C69 1.525 . S
C502 C127 1.520 . S
C511 C290 1.522 . S
C513 C166 1.523 . S
C522 C179 1.520 . S
C524 C303 1.523 . S
C533 C192 1.525 . S
C535 C238 1.520 . S
C544 C251 1.524 . S
C546 C205 1.520 . S
C555 C218 1.519 . S
C557 C270 1.524 . S
C566 C225 1.525 . S
C568 C277 1.520 . S
C577 C3 1.556 . S
C579 C239 1.556 . S
C588 C252 1.555 . S
C590 C16 1.555 . S
C599 C29 1.556 . S
C601 C263 1.556 . S
C610 C42 1.555 . S
C612 C278 1.555 . S
C621 C291 1.554 . S
C623 C55 1.555 . S
C632 C70 1.555 . S
C634 C304 1.555 . S
C643 C81 1.556 . S
C645 C159 1.556 . S
C654 C96 1.555 . S
C656 C172 1.556 . S
C665 C185 1.556 . S
C667 C109 1.556 . S
C676 C198 1.556 . S
C678 C120 1.556 . S
C687 C135 1.555 . S
C689 C211 1.555 . S
C698 C226 1.554 . S
C700 C146 1.555 . S
C709 C82 1.517 . S
C711 C4 1.519 . S
C720 C17 1.519 . S
C722 C101 1.519 . S
C731 C114 1.519 . S
C733 C30 1.519 . S
C742 C121 1.520 . S
C744 C43 1.518 . S
C753 C140 1.517 . S
C755 C56 1.519 . S
C764 C75 1.519 . S
C766 C147 1.519 . S
C775 C244 1.517 . S
C777 C160 1.519 . S
C786 C173 1.517 . S
C788 C257 1.519 . S
C797 C264 1.517 . S
C799 C186 1.518 . S
C808 C283 1.518 . S
C810 C199 1.519 . S
C819 C212 1.519 . S
C821 C296 1.519 . S
C830 C231 1.519 . S
C832 C309 1.517 . S
