# Generated by pormake.
# Topology fnw, (5)-cn, num edge types: 1
# Building blocks:
#     Node 0, Type 0, BuildingBlock: XOMCOT_clean_sbu_0, # of connection points: 5
#     Node 1, Type 0, BuildingBlock: XOMCOT_clean_sbu_0, # of connection points: 5
#     Node 2, Type 0, BuildingBlock: XOMCOT_clean_sbu_0, # of connection points: 5
#     Node 3, Type 0, BuildingBlock: XOMCOT_clean_sbu_0, # of connection points: 5
#     Node 4, Type 0, BuildingBlock: XOMCOT_clean_sbu_0, # of connection points: 5
#     Node 5, Type 0, BuildingBlock: XOMCOT_clean_sbu_0, # of connection points: 5
#     Node 6, Type 0, BuildingBlock: XOMCOT_clean_sbu_0, # of connection points: 5
#     Node 7, Type 0, BuildingBlock: XOMCOT_clean_sbu_0, # of connection points: 5
#     Node 8, Type 0, BuildingBlock: XOMCOT_clean_sbu_0, # of connection points: 5
#     Node 9, Type 0, BuildingBlock: XOMCOT_clean_sbu_0, # of connection points: 5
#     Node 10, Type 0, BuildingBlock: XOMCOT_clean_sbu_0, # of connection points: 5
#     Node 11, Type 0, BuildingBlock: XOMCOT_clean_sbu_0, # of connection points: 5
#     Edge 12, Type (0, 0), BuildingBlock: EZIPEK_clean_linker_0, # of connection points: 2
#     Edge 13, Type (0, 0), BuildingBlock: EZIPEK_clean_linker_0, # of connection points: 2
#     Edge 14, Type (0, 0), BuildingBlock: EZIPEK_clean_linker_0, # of connection points: 2
#     Edge 15, Type (0, 0), BuildingBlock: EZIPEK_clean_linker_0, # of connection points: 2
#     Edge 16, Type (0, 0), BuildingBlock: EZIPEK_clean_linker_0, # of connection points: 2
#     Edge 17, Type (0, 0), BuildingBlock: EZIPEK_clean_linker_0, # of connection points: 2
#     Edge 18, Type (0, 0), BuildingBlock: EZIPEK_clean_linker_0, # of connection points: 2
#     Edge 19, Type (0, 0), BuildingBlock: EZIPEK_clean_linker_0, # of connection points: 2
#     Edge 20, Type (0, 0), BuildingBlock: EZIPEK_clean_linker_0, # of connection points: 2
#     Edge 21, Type (0, 0), BuildingBlock: EZIPEK_clean_linker_0, # of connection points: 2
#     Edge 22, Type (0, 0), BuildingBlock: EZIPEK_clean_linker_0, # of connection points: 2
#     Edge 23, Type (0, 0), BuildingBlock: EZIPEK_clean_linker_0, # of connection points: 2
#     Edge 24, Type (0, 0), BuildingBlock: EZIPEK_clean_linker_0, # of connection points: 2
#     Edge 25, Type (0, 0), BuildingBlock: EZIPEK_clean_linker_0, # of connection points: 2
#     Edge 26, Type (0, 0), BuildingBlock: EZIPEK_clean_linker_0, # of connection points: 2
#     Edge 27, Type (0, 0), BuildingBlock: EZIPEK_clean_linker_0, # of connection points: 2
#     Edge 28, Type (0, 0), BuildingBlock: EZIPEK_clean_linker_0, # of connection points: 2
#     Edge 29, Type (0, 0), BuildingBlock: EZIPEK_clean_linker_0, # of connection points: 2
#     Edge 30, Type (0, 0), BuildingBlock: EZIPEK_clean_linker_0, # of connection points: 2
#     Edge 31, Type (0, 0), BuildingBlock: EZIPEK_clean_linker_0, # of connection points: 2
#     Edge 32, Type (0, 0), BuildingBlock: EZIPEK_clean_linker_0, # of connection points: 2
#     Edge 33, Type (0, 0), BuildingBlock: EZIPEK_clean_linker_0, # of connection points: 2
#     Edge 34, Type (0, 0), BuildingBlock: EZIPEK_clean_linker_0, # of connection points: 2
#     Edge 35, Type (0, 0), BuildingBlock: EZIPEK_clean_linker_0, # of connection points: 2
#     Edge 36, Type (0, 0), BuildingBlock: EZIPEK_clean_linker_0, # of connection points: 2
#     Edge 37, Type (0, 0), BuildingBlock: EZIPEK_clean_linker_0, # of connection points: 2
#     Edge 38, Type (0, 0), BuildingBlock: EZIPEK_clean_linker_0, # of connection points: 2
#     Edge 39, Type (0, 0), BuildingBlock: EZIPEK_clean_linker_0, # of connection points: 2
#     Edge 40, Type (0, 0), BuildingBlock: EZIPEK_clean_linker_0, # of connection points: 2
#     Edge 41, Type (0, 0), BuildingBlock: EZIPEK_clean_linker_0, # of connection points: 2
# Relax obj value: 0.267
# Max RMSD: 0.158
# Mean RMSD: 0.158
data_MOF--net-fnw--node1-XOMCOT_clean_sbu_0--edge1-EZIPEK_clean_linker_0
_symmetry_space_group_name_H-M    P1
_symmetry_Int_Tables_number       1
_symmetry_cell_setting            triclinic
loop_
_symmetry_equiv_pos_as_xyz
'x, y, z'
_cell_length_a     39.592654
_cell_length_b     39.599504
_cell_length_c     23.912799
_cell_angle_alpha  89.938575
_cell_angle_beta   89.979878
_cell_angle_gamma 120.03715
loop_
_atom_site_label
_atom_site_type_symbol
_atom_site_fract_x
_atom_site_fract_y
_atom_site_fract_z
_atom_type_partial_charge
Co0 Co 0.27129 0.46728 0.31465 0.0
C1 C 0.30834 0.41825 0.29217 0.0
C2 C 0.33618 0.45924 0.35864 0.0
C3 C 0.3571 0.44073 0.34851 0.0
N4 N 0.30611 0.446 0.32237 0.0
N5 N 0.33966 0.41509 0.30659 0.0
H6 H 0.28877 0.4015 0.25894 0.0
H7 H 0.34318 0.48166 0.38945 0.0
C8 C 0.35088 0.53193 0.28023 0.0
O9 O 0.35814 0.50681 0.25503 0.0
N10 N 0.23666 0.48813 0.30686 0.0
C11 C 0.19975 0.4683 0.28731 0.0
C12 C 0.18732 0.49436 0.27533 0.0
C13 C 0.24628 0.52597 0.3064 0.0
N14 N 0.21677 0.53039 0.28701 0.0
C15 C 0.23822 0.41745 0.21859 0.0
C16 C 0.26389 0.47732 0.14131 0.0
C17 C 0.23905 0.43909 0.12366 0.0
C18 C 0.22646 0.40873 0.16268 0.0
C19 C 0.27521 0.48468 0.19712 0.0
N20 N 0.26312 0.45496 0.23509 0.0
H21 H 0.22646 0.39413 0.24904 0.0
H22 H 0.29149 0.51471 0.20994 0.0
H23 H 0.18384 0.43731 0.27904 0.0
H24 H 0.27474 0.55003 0.3172 0.0
O25 O 0.22878 0.41971 0.34769 0.0
O26 O 0.2711 0.47241 0.39439 0.0
O27 O 0.31737 0.52106 0.30123 0.0
C28 C 0.24093 0.43764 0.39555 0.0
H29 H 0.38354 0.44612 0.36959 0.0
H30 H 0.15961 0.48769 0.25723 0.0
H31 H 0.27337 0.50153 0.11244 0.0
H32 H 0.20672 0.37884 0.15041 0.0
Co33 Co 0.80697 0.26828 0.80458 0.0
C34 C 0.89252 0.30229 0.78953 0.0
C35 C 0.87808 0.33815 0.84007 0.0
C36 C 0.91764 0.35809 0.83042 0.0
N37 N 0.86229 0.30344 0.81388 0.0
N38 N 0.92663 0.33571 0.79835 0.0
H39 H 0.88949 0.27861 0.76346 0.0
H40 H 0.86168 0.34894 0.86248 0.0
C41 C 0.77849 0.32258 0.76128 0.0
O42 O 0.75348 0.2964 0.72639 0.0
N43 N 0.75099 0.23265 0.79561 0.0
C44 C 0.7337 0.19616 0.77424 0.0
C45 C 0.69404 0.18122 0.77215 0.0
C46 C 0.72103 0.23844 0.80877 0.0
N47 N 0.68633 0.20804 0.79325 0.0
C48 C 0.81358 0.22751 0.70936 0.0
C49 C 0.81996 0.28076 0.62939 0.0
C50 C 0.81176 0.24361 0.61236 0.0
C51 C 0.81084 0.21759 0.65279 0.0
C52 C 0.82286 0.28952 0.68647 0.0
N53 N 0.81569 0.26157 0.7257 0.0
H54 H 0.8119 0.20678 0.74015 0.0
H55 H 0.83006 0.31852 0.6986 0.0
H56 H 0.74834 0.18075 0.76138 0.0
H57 H 0.72428 0.26467 0.82752 0.0
O58 O 0.8117 0.22603 0.8389 0.0
O59 O 0.79981 0.26781 0.88416 0.0
O60 O 0.80154 0.31571 0.79003 0.0
C61 C 0.80478 0.23787 0.88616 0.0
H62 H 0.93816 0.38741 0.84415 0.0
H63 H 0.67255 0.15324 0.75526 0.0
H64 H 0.82275 0.30231 0.59898 0.0
H65 H 0.80611 0.18916 0.64087 0.0
Co66 Co 0.53957 0.80626 0.31419 0.0
C67 C 0.58653 0.89255 0.28987 0.0
C68 C 0.54291 0.87814 0.3529 0.0
C69 C 0.5601 0.91735 0.34153 0.0
N70 N 0.55854 0.86214 0.31937 0.0
N71 N 0.58747 0.9264 0.30183 0.0
H72 H 0.60515 0.89041 0.25899 0.0
H73 H 0.5197 0.86221 0.38254 0.0
C74 C 0.47336 0.81686 0.27505 0.0
O75 O 0.49819 0.84843 0.24769 0.0
N76 N 0.52099 0.75105 0.30935 0.0
C77 C 0.54197 0.73505 0.29056 0.0
C78 C 0.51756 0.69554 0.28425 0.0
C79 C 0.48404 0.72118 0.31403 0.0
N80 N 0.48135 0.68713 0.29881 0.0
C81 C 0.58966 0.8239 0.2176 0.0
C82 C 0.52974 0.78507 0.14163 0.0
C83 C 0.56819 0.80086 0.12333 0.0
C84 C 0.59855 0.82076 0.16173 0.0
C85 C 0.5222 0.78901 0.19738 0.0
N86 N 0.55187 0.80923 0.23459 0.0
H87 H 0.61311 0.83711 0.24765 0.0
H88 H 0.49226 0.77334 0.2109 0.0
H89 H 0.57259 0.75129 0.27968 0.0
H90 H 0.45938 0.72429 0.32603 0.0
O91 O 0.588 0.81413 0.34787 0.0
O92 O 0.53467 0.80242 0.39414 0.0
O93 O 0.4849 0.79584 0.29963 0.0
C94 C 0.56994 0.80834 0.39568 0.0
H95 H 0.55268 0.93766 0.36034 0.0
H96 H 0.52535 0.67475 0.26835 0.0
H97 H 0.50559 0.76855 0.11336 0.0
H98 H 0.62865 0.83261 0.14903 0.0
Co99 Co 0.73478 0.5389 0.80706 0.0
C100 C 0.70355 0.5928 0.79104 0.0
C101 C 0.66776 0.54434 0.84487 0.0
C102 C 0.64859 0.5646 0.83469 0.0
N103 N 0.70192 0.56166 0.81699 0.0
N104 N 0.67089 0.59478 0.80052 0.0
H105 H 0.72679 0.61207 0.76306 0.0
H106 H 0.65664 0.51758 0.86859 0.0
C107 C 0.6766 0.45882 0.76055 0.0
O108 O 0.70121 0.46029 0.7224 0.0
N109 N 0.76781 0.51533 0.79772 0.0
C110 C 0.80544 0.5331 0.78053 0.0
C111 C 0.81702 0.50583 0.77466 0.0
C112 C 0.75808 0.47763 0.80524 0.0
N113 N 0.78695 0.47103 0.78958 0.0
C114 C 0.77761 0.58132 0.71006 0.0
C115 C 0.71767 0.54367 0.63422 0.0
C116 C 0.756 0.56616 0.61443 0.0
C117 C 0.78595 0.58663 0.65307 0.0
C118 C 0.71105 0.53789 0.69174 0.0
N119 N 0.74151 0.55398 0.7285 0.0
H120 H 0.80059 0.59828 0.73935 0.0
H121 H 0.6815 0.51991 0.7064 0.0
H122 H 0.82394 0.56383 0.77297 0.0
H123 H 0.73025 0.45491 0.82012 0.0
O124 O 0.77863 0.58493 0.83992 0.0
O125 O 0.73529 0.5323 0.88639 0.0
O126 O 0.68571 0.48771 0.79278 0.0
C127 C 0.76621 0.56664 0.88747 0.0
H128 H 0.6197 0.55686 0.84925 0.0
H129 H 0.84494 0.51089 0.75949 0.0
H130 H 0.69348 0.52893 0.60543 0.0
H131 H 0.81568 0.60576 0.63936 0.0
Co132 Co 0.19704 0.73097 0.30255 0.0
C133 C 0.11171 0.70047 0.29626 0.0
C134 C 0.12606 0.66087 0.33685 0.0
C135 C 0.08649 0.64187 0.32788 0.0
N136 N 0.14196 0.69731 0.31606 0.0
N137 N 0.07756 0.66661 0.30188 0.0
H138 H 0.11474 0.72581 0.27452 0.0
H139 H 0.14246 0.6481 0.35381 0.0
C140 C 0.22173 0.67622 0.24909 0.0
O141 O 0.24802 0.70286 0.21589 0.0
N142 N 0.25273 0.76548 0.28897 0.0
C143 C 0.26932 0.80271 0.27045 0.0
C144 C 0.30891 0.81803 0.26536 0.0
C145 C 0.28311 0.75944 0.29728 0.0
N146 N 0.31728 0.79066 0.28193 0.0
C147 C 0.18466 0.777 0.22028 0.0
C148 C 0.18387 0.73411 0.1288 0.0
C149 C 0.18792 0.7709 0.12001 0.0
C150 C 0.1856 0.79132 0.16634 0.0
C151 C 0.18163 0.72039 0.1831 0.0
N152 N 0.1858 0.74339 0.22809 0.0
H153 H 0.1854 0.79415 0.25585 0.0
H154 H 0.17746 0.69162 0.1881 0.0
H155 H 0.25414 0.81839 0.26209 0.0
H156 H 0.28065 0.73291 0.31366 0.0
O157 O 0.19796 0.77247 0.34913 0.0
O158 O 0.20699 0.72486 0.3785 0.0
O159 O 0.19844 0.68298 0.27735 0.0
C160 C 0.20608 0.75617 0.39061 0.0
H161 H 0.06603 0.61153 0.337 0.0
H162 H 0.32999 0.84697 0.25084 0.0
H163 H 0.1836 0.71653 0.09392 0.0
H164 H 0.18706 0.81918 0.161 0.0
Co165 Co 0.46681 0.20022 0.81823 0.0
C166 C 0.41771 0.11435 0.79523 0.0
C167 C 0.45917 0.12731 0.86104 0.0
C168 C 0.44072 0.08794 0.85049 0.0
N169 N 0.44562 0.1442 0.82537 0.0
N170 N 0.41481 0.0799 0.80896 0.0
H171 H 0.40072 0.11729 0.76247 0.0
H172 H 0.48188 0.14272 0.89152 0.0
C173 C 0.53155 0.18559 0.78345 0.0
O174 O 0.50622 0.15365 0.75746 0.0
N175 N 0.48753 0.25565 0.81128 0.0
C176 C 0.46786 0.27286 0.79163 0.0
C177 C 0.49395 0.3116 0.78126 0.0
C178 C 0.52529 0.28399 0.81247 0.0
N179 N 0.52983 0.31816 0.79404 0.0
C180 C 0.41787 0.18403 0.721 0.0
C181 C 0.47847 0.21921 0.64498 0.0
C182 C 0.44038 0.20567 0.62651 0.0
C183 C 0.40967 0.18751 0.66493 0.0
C184 C 0.48532 0.21498 0.701 0.0
N185 N 0.45524 0.19672 0.73831 0.0
H186 H 0.39424 0.17217 0.75094 0.0
H187 H 0.51522 0.22904 0.71456 0.0
H188 H 0.437 0.25775 0.78229 0.0
H189 H 0.54923 0.27953 0.82377 0.0
O190 O 0.41884 0.19474 0.85025 0.0
O191 O 0.471 0.20487 0.89819 0.0
O192 O 0.52084 0.20805 0.80557 0.0
C193 C 0.43617 0.20018 0.89853 0.0
H194 H 0.44639 0.06686 0.87088 0.0
H195 H 0.48749 0.33287 0.76343 0.0
H196 H 0.50294 0.23433 0.61665 0.0
H197 H 0.37988 0.17735 0.65208 0.0
Co198 Co 0.54205 0.73671 0.70079 0.0
C199 C 0.59421 0.70363 0.71373 0.0
C200 C 0.54364 0.66733 0.6639 0.0
C201 C 0.56332 0.64751 0.67379 0.0
N202 N 0.56267 0.70221 0.6896 0.0
N203 N 0.59482 0.67018 0.7055 0.0
H204 H 0.61484 0.7274 0.73971 0.0
H205 H 0.51616 0.65621 0.64212 0.0
C206 C 0.46008 0.68004 0.74729 0.0
O207 O 0.46136 0.7049 0.78476 0.0
N208 N 0.52136 0.77178 0.71219 0.0
C209 C 0.54093 0.80846 0.73291 0.0
C210 C 0.5153 0.82181 0.74171 0.0
C211 C 0.48437 0.76441 0.7057 0.0
N212 N 0.47978 0.79372 0.72545 0.0
C213 C 0.59059 0.77796 0.79458 0.0
C214 C 0.54555 0.7244 0.87547 0.0
C215 C 0.57415 0.7619 0.89187 0.0
C216 C 0.59842 0.78808 0.85096 0.0
C217 C 0.53906 0.71545 0.81853 0.0
N218 N 0.5588 0.74351 0.77899 0.0
H219 H 0.60897 0.79881 0.76343 0.0
H220 H 0.51761 0.68622 0.80671 0.0
H221 H 0.57172 0.82479 0.74166 0.0
H222 H 0.46073 0.73767 0.68917 0.0
O223 O 0.58833 0.77939 0.66555 0.0
O224 O 0.53418 0.73737 0.62148 0.0
O225 O 0.48955 0.68857 0.71623 0.0
C226 C 0.56901 0.76746 0.61877 0.0
H227 H 0.55434 0.61801 0.66082 0.0
H228 H 0.52185 0.84933 0.76035 0.0
H229 H 0.5275 0.70276 0.90629 0.0
H230 H 0.62187 0.8168 0.86238 0.0
Co231 Co 0.80707 0.53986 0.19233 0.0
C232 C 0.89149 0.5914 0.21834 0.0
C233 C 0.88216 0.55438 0.14756 0.0
C234 C 0.92139 0.57466 0.15915 0.0
N235 N 0.86325 0.56398 0.18564 0.0
N236 N 0.92719 0.59766 0.20382 0.0
H237 H 0.88613 0.60536 0.25337 0.0
H238 H 0.86822 0.53265 0.11526 0.0
C239 C 0.82516 0.47462 0.21927 0.0
O240 O 0.86215 0.4986 0.22987 0.0
N241 N 0.75053 0.51533 0.19859 0.0
C242 C 0.72897 0.53283 0.20564 0.0
C243 C 0.69063 0.50481 0.21459 0.0
C244 C 0.72462 0.4767 0.20271 0.0
N245 N 0.68826 0.4698 0.21291 0.0
C246 C 0.80047 0.58159 0.28508 0.0
C247 C 0.81641 0.54333 0.36827 0.0
C248 C 0.80009 0.56635 0.38288 0.0
C249 C 0.79327 0.58667 0.34066 0.0
C250 C 0.82127 0.53759 0.31194 0.0
N251 N 0.81125 0.5549 0.27088 0.0
H252 H 0.79539 0.59777 0.25323 0.0
H253 H 0.83247 0.5188 0.30213 0.0
H254 H 0.74007 0.56381 0.20604 0.0
H255 H 0.73182 0.45382 0.19932 0.0
O256 O 0.81025 0.58592 0.15733 0.0
O257 O 0.80233 0.53363 0.11225 0.0
O258 O 0.80143 0.48697 0.20956 0.0
C259 C 0.80569 0.56795 0.10996 0.0
H260 H 0.94393 0.5719 0.13753 0.0
H261 H 0.66646 0.50965 0.22248 0.0
H262 H 0.82322 0.52813 0.40004 0.0
H263 H 0.78155 0.60551 0.35042 0.0
Co264 Co 0.27618 0.80948 0.70976 0.0
C265 C 0.30751 0.89502 0.71891 0.0
C266 C 0.34375 0.88033 0.66982 0.0
C267 C 0.36376 0.91983 0.67925 0.0
N268 N 0.30877 0.86464 0.69541 0.0
N269 N 0.34116 0.92897 0.71052 0.0
H270 H 0.28396 0.89222 0.74507 0.0
H271 H 0.35512 0.86375 0.64934 0.0
C272 C 0.33315 0.78743 0.76262 0.0
O273 O 0.30729 0.76123 0.79678 0.0
N274 N 0.24319 0.75369 0.72405 0.0
C275 C 0.20636 0.73585 0.7444 0.0
C276 C 0.19318 0.69668 0.7512 0.0
C277 C 0.251 0.72447 0.71622 0.0
N278 N 0.22151 0.68989 0.73396 0.0
C279 C 0.22971 0.82085 0.79207 0.0
C280 C 0.27316 0.82291 0.88365 0.0
C281 C 0.23612 0.8183 0.89237 0.0
C282 C 0.21539 0.81995 0.84594 0.0
C283 C 0.28691 0.82516 0.82933 0.0
N284 N 0.26374 0.82049 0.78433 0.0
H285 H 0.21227 0.81951 0.75652 0.0
H286 H 0.31586 0.82982 0.82432 0.0
H287 H 0.18974 0.74994 0.75365 0.0
H288 H 0.27788 0.72818 0.69915 0.0
O289 O 0.23363 0.80721 0.66423 0.0
O290 O 0.28169 0.79928 0.63357 0.0
O291 O 0.32529 0.80986 0.73409 0.0
C292 C 0.24988 0.79953 0.6223 0.0
H293 H 0.39351 0.94008 0.6668 0.0
H294 H 0.16529 0.67496 0.76816 0.0
H295 H 0.29093 0.82365 0.91859 0.0
H296 H 0.18728 0.81797 0.85119 0.0
Co297 Co 0.4649 0.26943 0.20248 0.0
C298 C 0.41559 0.30575 0.2178 0.0
C299 C 0.46697 0.3412 0.16879 0.0
C300 C 0.44879 0.36234 0.17954 0.0
N301 N 0.44653 0.30601 0.19345 0.0
N302 N 0.4167 0.34019 0.21062 0.0
H303 H 0.39406 0.28193 0.24293 0.0
H304 H 0.49434 0.35152 0.14694 0.0
C305 C 0.54817 0.32221 0.24602 0.0
O306 O 0.54654 0.29599 0.28132 0.0
N307 N 0.48359 0.23249 0.21129 0.0
C308 C 0.46348 0.19586 0.23223 0.0
C309 C 0.48757 0.18021 0.23499 0.0
C310 C 0.5192 0.23762 0.19899 0.0
N311 N 0.52258 0.20675 0.21467 0.0
C312 C 0.41694 0.2291 0.29757 0.0
C313 C 0.46455 0.28169 0.37753 0.0
C314 C 0.43495 0.24478 0.39453 0.0
C315 C 0.40952 0.21914 0.35414 0.0
C316 C 0.47062 0.29051 0.32048 0.0
N317 N 0.44939 0.26282 0.28127 0.0
H318 H 0.39761 0.20869 0.26678 0.0
H319 H 0.49292 0.31935 0.30833 0.0
H320 H 0.43327 0.18091 0.24453 0.0
H321 H 0.54276 0.26369 0.18082 0.0
O322 O 0.41728 0.22832 0.16799 0.0
O323 O 0.47163 0.26915 0.12295 0.0
O324 O 0.51843 0.31574 0.21716 0.0
C325 C 0.43623 0.24 0.12079 0.0
H326 H 0.45906 0.39227 0.16728 0.0
H327 H 0.48036 0.15198 0.2518 0.0
H328 H 0.4836 0.30297 0.40794 0.0
H329 H 0.38536 0.19094 0.36607 0.0
Co330 Co 0.19954 0.46635 0.70148 0.0
C331 C 0.11404 0.41368 0.71707 0.0
C332 C 0.12787 0.46386 0.66645 0.0
C333 C 0.08834 0.44387 0.67622 0.0
N334 N 0.14404 0.44524 0.69252 0.0
N335 N 0.07973 0.41259 0.70836 0.0
H336 H 0.11738 0.39322 0.74323 0.0
H337 H 0.14402 0.49115 0.64406 0.0
C338 C 0.22547 0.54691 0.75078 0.0
O339 O 0.24954 0.54439 0.78611 0.0
N340 N 0.25589 0.48817 0.70999 0.0
C341 C 0.27458 0.46993 0.72989 0.0
C342 C 0.31374 0.49653 0.7352 0.0
C343 C 0.28469 0.52527 0.70052 0.0
N344 N 0.31976 0.53135 0.71762 0.0
C345 C 0.19521 0.4183 0.79452 0.0
C346 C 0.18409 0.461 0.87625 0.0
C347 C 0.1944 0.43333 0.8921 0.0
C348 C 0.1976 0.41012 0.85074 0.0
C349 C 0.18142 0.46774 0.81947 0.0
N350 N 0.19106 0.44933 0.77957 0.0
H351 H 0.19855 0.40072 0.763 0.0
H352 H 0.17248 0.48841 0.80806 0.0
H353 H 0.26117 0.43947 0.74046 0.0
H354 H 0.28018 0.54806 0.68406 0.0
O355 O 0.1958 0.42044 0.66545 0.0
O356 O 0.20648 0.47439 0.62196 0.0
O357 O 0.20367 0.51829 0.719 0.0
C358 C 0.20209 0.43971 0.61876 0.0
H359 H 0.06759 0.45239 0.66259 0.0
H360 H 0.33584 0.49116 0.75267 0.0
H361 H 0.17947 0.47814 0.90738 0.0
H362 H 0.20392 0.38731 0.86174 0.0
Co363 Co 0.73365 0.1982 0.18879 0.0
C364 C 0.69539 0.11208 0.21397 0.0
C365 C 0.66648 0.1255 0.14932 0.0
C366 C 0.64487 0.08628 0.16083 0.0
N367 N 0.69763 0.14211 0.18372 0.0
N368 N 0.66299 0.07784 0.20153 0.0
H369 H 0.71588 0.11476 0.24569 0.0
H370 H 0.65919 0.14103 0.11902 0.0
C371 C 0.65562 0.18562 0.22561 0.0
O372 O 0.64935 0.15429 0.25314 0.0
N373 N 0.76942 0.25363 0.1933 0.0
C374 C 0.80646 0.27033 0.21204 0.0
C375 C 0.82123 0.30986 0.21662 0.0
C376 C 0.76193 0.28312 0.18698 0.0
N377 N 0.79319 0.31765 0.20097 0.0
C378 C 0.76629 0.18195 0.28632 0.0
C379 C 0.74342 0.21972 0.36149 0.0
C380 C 0.76686 0.20496 0.38035 0.0
C381 C 0.77819 0.18559 0.34231 0.0
C382 C 0.73212 0.21535 0.30556 0.0
N383 N 0.74255 0.19571 0.26873 0.0
H384 H 0.77713 0.16907 0.25665 0.0
H385 H 0.7171 0.23017 0.29163 0.0
H386 H 0.82115 0.25459 0.22389 0.0
H387 H 0.73398 0.27943 0.17467 0.0
O388 O 0.77513 0.19125 0.15642 0.0
O389 O 0.73324 0.20169 0.10869 0.0
O390 O 0.68846 0.20745 0.20201 0.0
C391 C 0.76309 0.19654 0.10814 0.0
H392 H 0.61754 0.06554 0.14142 0.0
H393 H 0.84973 0.33113 0.23226 0.0
H394 H 0.73504 0.23578 0.38948 0.0
H395 H 0.79699 0.17449 0.35541 0.0
C396 C 0.38684 0.35355 0.29342 0.0
C397 C 0.39172 0.35329 0.23461 0.0
C398 C 0.36134 0.39362 0.2226 0.0
C399 C 0.35377 0.39138 0.28097 0.0
N400 N 0.34903 0.35934 0.36857 0.0
N401 N 0.3734 0.36334 0.14297 0.0
C402 C 0.36315 0.36802 0.31527 0.0
C403 C 0.37543 0.37007 0.19915 0.0
N404 N 0.40683 0.34269 0.32871 0.0
N405 N 0.35793 0.4201 0.19005 0.0
H406 H 0.38252 0.34519 0.12508 0.0
H407 H 0.35888 0.37218 0.11549 0.0
H408 H 0.35066 0.44008 0.20597 0.0
H409 H 0.36657 0.42513 0.14827 0.0
H410 H 0.40685 0.34581 0.37199 0.0
H411 H 0.42668 0.33461 0.31483 0.0
H412 H 0.35235 0.3398 0.394 0.0
H413 H 0.3303 0.36829 0.38479 0.0
C414 C 0.97099 0.35158 0.71635 0.0
C415 C 0.96475 0.3479 0.77506 0.0
C416 C 0.03548 0.3843 0.79052 0.0
C417 C 0.04172 0.38643 0.73183 0.0
N418 N 0.01599 0.36282 0.64024 0.0
N419 N 0.99058 0.35089 0.86691 0.0
C420 C 0.00951 0.36674 0.69527 0.0
C421 C 0.99699 0.36092 0.81171 0.0
N422 N 0.94088 0.34349 0.68083 0.0
N423 N 0.06556 0.40673 0.82584 0.0
H424 H 0.96258 0.33313 0.88297 0.0
H425 H 0.01295 0.35671 0.89502 0.0
H426 H 0.09374 0.42592 0.81198 0.0
H427 H 0.06173 0.40911 0.86846 0.0
H428 H 0.9447 0.34934 0.63809 0.0
H429 H 0.91268 0.33453 0.6945 0.0
H430 H 0.99368 0.34591 0.61226 0.0
H431 H 0.04404 0.3732 0.62428 0.0
C432 C 0.64427 0.03545 0.28654 0.0
C433 C 0.64867 0.04002 0.22758 0.0
C434 C 0.61198 0.9689 0.21703 0.0
C435 C 0.61087 0.96435 0.27606 0.0
N436 N 0.6369 0.99394 0.36542 0.0
N437 N 0.64712 0.01064 0.13881 0.0
C438 C 0.63064 0.99791 0.31032 0.0
C439 C 0.63591 0.00653 0.1935 0.0
N440 N 0.65039 0.06601 0.31976 0.0
N441 N 0.58835 0.93821 0.18341 0.0
H442 H 0.66626 0.03777 0.12123 0.0
H443 H 0.64108 0.98696 0.11324 0.0
H444 H 0.56786 0.91094 0.19887 0.0
H445 H 0.58593 0.9412 0.14051 0.0
H446 H 0.64424 0.06295 0.36247 0.0
H447 H 0.65714 0.09319 0.30401 0.0
H448 H 0.65387 0.01771 0.39123 0.0
H449 H 0.62897 0.96691 0.38326 0.0
C450 C 0.65416 0.62099 0.71672 0.0
C451 C 0.65888 0.62034 0.77551 0.0
C452 C 0.62326 0.65556 0.78873 0.0
C453 C 0.62051 0.65811 0.72981 0.0
N454 N 0.64298 0.65318 0.63855 0.0
N455 N 0.65771 0.64633 0.8657 0.0
C456 C 0.63942 0.64424 0.69414 0.0
C457 C 0.6468 0.64099 0.81085 0.0
N458 N 0.66067 0.59717 0.68273 0.0
N459 N 0.60121 0.66407 0.82355 0.0
H460 H 0.67555 0.63642 0.88239 0.0
H461 H 0.65252 0.66393 0.89263 0.0
H462 H 0.5815 0.67219 0.80916 0.0
H463 H 0.59948 0.65914 0.86654 0.0
H464 H 0.65408 0.5939 0.6402 0.0
H465 H 0.66869 0.57758 0.69784 0.0
H466 H 0.65932 0.64661 0.61111 0.0
H467 H 0.63296 0.67082 0.62142 0.0
C468 C 0.00647 0.63707 0.3136 0.0
C469 C 0.0398 0.65592 0.27873 0.0
C470 C 0.99706 0.64694 0.1994 0.0
C471 C 0.96414 0.62109 0.23167 0.0
N472 N 0.93894 0.58635 0.31892 0.0
N473 N 0.06587 0.67223 0.18469 0.0
C474 C 0.96898 0.61505 0.28899 0.0
C475 C 0.03504 0.65968 0.22058 0.0
N476 N 0.01083 0.64008 0.37028 0.0
N477 N 0.99189 0.65903 0.14831 0.0
H478 H 0.09356 0.6785 0.19724 0.0
H479 H 0.06283 0.67207 0.14138 0.0
H480 H 0.96421 0.65087 0.13272 0.0
H481 H 0.01488 0.6803 0.12475 0.0
H482 H 0.98726 0.62947 0.3978 0.0
H483 H 0.03803 0.65692 0.38912 0.0
H484 H 0.94235 0.57866 0.35935 0.0
H485 H 0.91181 0.56733 0.30169 0.0
C486 C 0.35439 0.97132 0.79423 0.0
C487 C 0.3538 0.9667 0.73527 0.0
C488 C 0.39333 0.03756 0.72424 0.0
C489 C 0.39126 0.0423 0.7828 0.0
N490 N 0.35971 0.014 0.87032 0.0
N491 N 0.36302 0.99575 0.64418 0.0
C492 C 0.36834 0.00919 0.81672 0.0
C493 C 0.36999 1.00006 0.70032 0.0
N494 N 0.34458 0.94041 0.82904 0.0
N495 N 0.41952 0.06786 0.69192 0.0
H496 H 0.34511 0.96854 0.62597 0.0
H497 H 0.37145 0.0193 0.61713 0.0
H498 H 0.43944 0.09504 0.70812 0.0
H499 H 0.4244 0.06466 0.64994 0.0
H500 H 0.34791 0.94329 0.87231 0.0
H501 H 0.33738 0.9128 0.81475 0.0
H502 H 0.34048 0.99077 0.89553 0.0
H503 H 0.36835 0.04147 0.88706 0.0
C504 C 0.244 0.44333 0.96553 0.0
C505 C 0.2046 0.43073 0.95123 0.0
C506 C 0.18687 0.42188 0.05063 0.0
C507 C 0.2257 0.43191 0.06448 0.0
N508 N 0.28862 0.44311 0.03464 0.0
N509 N 0.13706 0.40023 0.97878 0.0
C510 C 0.2534 0.43964 0.02165 0.0
C511 C 0.17552 0.41751 0.99342 0.0
N512 N 0.27287 0.4609 0.92631 0.0
N513 N 0.16139 0.41852 0.0918 0.0
H514 H 0.1278 0.39643 0.93724 0.0
H515 H 0.11432 0.38653 0.00745 0.0
H516 H 0.16854 0.42176 0.13416 0.0
H517 H 0.13423 0.41566 0.0837 0.0
H518 H 0.30245 0.47447 0.93602 0.0
H519 H 0.26764 0.46533 0.88497 0.0
H520 H 0.3085 0.44496 1.00454 0.0
H521 H 0.29629 0.44022 0.07539 0.0
C522 C 0.75263 0.19108 0.48259 0.0
C523 C 0.78018 0.21139 0.43966 0.0
C524 C 0.83036 0.24771 0.51063 0.0
C525 C 0.80147 0.23114 0.55303 0.0
N526 N 0.73356 0.1914 0.57868 0.0
N527 N 0.84425 0.26251 0.412 0.0
C528 C 0.76218 0.20377 0.53891 0.0
C529 C 0.81892 0.2405 0.45341 0.0
N530 N 0.71743 0.15931 0.46948 0.0
N531 N 0.86878 0.26975 0.52513 0.0
H532 H 0.83711 0.25809 0.36964 0.0
H533 H 0.87129 0.28707 0.41972 0.0
H534 H 0.87809 0.27554 0.56662 0.0
H535 H 0.89157 0.27938 0.49645 0.0
H536 H 0.69766 0.14089 0.49944 0.0
H537 H 0.70957 0.14917 0.42861 0.0
H538 H 0.70392 0.17496 0.56948 0.0
H539 H 0.73898 0.20041 0.62029 0.0
C540 C 0.56739 0.81444 0.02128 0.0
C541 C 0.57562 0.79488 0.06415 0.0
C542 C 0.59002 0.75901 0.99321 0.0
C543 C 0.5766 0.77464 0.951 0.0
N544 N 0.54661 0.81276 0.92567 0.0
N545 N 0.59039 0.74506 0.09189 0.0
C546 C 0.56393 0.8014 0.96515 0.0
C547 C 0.58608 0.7664 0.05044 0.0
N548 N 0.56324 0.84579 0.03428 0.0
N549 N 0.60708 0.73765 0.97851 0.0
H550 H 0.58795 0.74966 0.13427 0.0
H551 H 0.59351 0.72088 0.08423 0.0
H552 H 0.61037 0.73173 0.93698 0.0
H553 H 0.62099 0.72876 0.00698 0.0
H554 H 0.56107 0.86367 1.00425 0.0
H555 H 0.56579 0.85619 0.07505 0.0
H556 H 0.53289 0.82865 0.93508 0.0
H557 H 0.5427 0.8034 0.88422 0.0
C558 C 0.76124 0.53118 0.46818 0.0
C559 C 0.7877 0.56687 0.44155 0.0
C560 C 0.78624 0.60226 0.52461 0.0
C561 C 0.76533 0.56643 0.55406 0.0
N562 N 0.74189 0.49696 0.55616 0.0
N563 N 0.83153 0.6364 0.44935 0.0
C564 C 0.75525 0.53084 0.52655 0.0
C565 C 0.80193 0.60254 0.47107 0.0
N566 N 0.74078 0.49775 0.43773 0.0
N567 N 0.79026 0.6358 0.54697 0.0
H568 H 0.84508 0.63758 0.41143 0.0
H569 H 0.84524 0.66245 0.47176 0.0
H570 H 0.77781 0.6364 0.58515 0.0
H571 H 0.8023 0.66201 0.52489 0.0
H572 H 0.71869 0.47188 0.45502 0.0
H573 H 0.74264 0.49699 0.39429 0.0
H574 H 0.73764 0.47118 0.53802 0.0
H575 H 0.73936 0.49549 0.5996 0.0
C576 C 0.24033 0.83595 0.99401 0.0
C577 C 0.21914 0.81003 0.94991 0.0
C578 C 0.1707 0.76629 0.01822 0.0
C579 C 0.19628 0.78786 0.06245 0.0
N580 N 0.25953 0.84092 0.09075 0.0
N581 N 0.16657 0.74639 0.92199 0.0
C582 C 0.23204 0.82245 0.05014 0.0
C583 C 0.1846 0.77423 0.96228 0.0
N584 N 0.26851 0.8734 0.98224 0.0
N585 N 0.13325 0.73803 0.02974 0.0
H586 H 0.17673 0.74957 0.88106 0.0
H587 H 0.14373 0.7184 0.93076 0.0
H588 H 0.12206 0.7321 0.07037 0.0
H589 H 0.11242 0.72363 0.9987 0.0
H590 H 0.28259 0.89445 0.0131 0.0
H591 H 0.27468 0.88434 0.94149 0.0
H592 H 0.28754 0.86378 0.08214 0.0
H593 H 0.25605 0.83117 0.13194 0.0
C594 C 0.42503 0.24207 0.55338 0.0
C595 C 0.43366 0.21228 0.56722 0.0
C596 C 0.44343 0.20411 0.46802 0.0
C597 C 0.43242 0.23215 0.45383 0.0
N598 N 0.40522 0.27203 0.48165 0.0
N599 N 0.44252 0.1591 0.53763 0.0
C600 C 0.42083 0.24932 0.49618 0.0
C601 C 0.44008 0.19141 0.52439 0.0
N602 N 0.42272 0.2647 0.59464 0.0
N603 N 0.45908 0.19112 0.42826 0.0
H604 H 0.44002 0.14892 0.57856 0.0
H605 H 0.44326 0.14036 0.50775 0.0
H606 H 0.46281 0.20012 0.38661 0.0
H607 H 0.47164 0.17412 0.43752 0.0
H608 H 0.42098 0.28965 0.58671 0.0
H609 H 0.42559 0.26038 0.637 0.0
H610 H 0.39258 0.28218 0.51037 0.0
H611 H 0.40172 0.27786 0.44014 0.0
C612 C 0.77195 0.58895 0.04029 0.0
C613 C 0.80438 0.58481 0.05497 0.0
C614 C 0.82046 0.58463 0.9562 0.0
C615 C 0.78516 0.58334 0.94169 0.0
N616 N 0.7346 0.59726 0.96612 0.0
N617 N 0.86744 0.59543 0.02922 0.0
C618 C 0.76335 0.58995 0.98274 0.0
C619 C 0.8313 0.58813 0.01341 0.0
N620 N 0.74869 0.59035 0.0812 0.0
N621 N 0.84241 0.58042 0.91579 0.0
H622 H 0.8763 0.60083 0.07089 0.0
H623 H 0.8897 0.60066 1.00126 0.0
H624 H 0.83655 0.58046 0.87338 0.0
H625 H 0.86561 0.57586 0.92427 0.0
H626 H 0.72164 0.58788 0.07398 0.0
H627 H 0.75698 0.59432 0.12298 0.0
H628 H 0.71885 0.60476 0.9932 0.0
H629 H 0.72893 0.59917 0.92396 0.0
C630 C 0.21369 0.80424 0.53501 0.0
C631 C 0.23293 0.7875 0.5649 0.0
C632 C 0.2428 0.7626 0.47762 0.0
C633 C 0.21781 0.7725 0.44845 0.0
N634 N 0.17369 0.79811 0.45424 0.0
N635 N 0.24938 0.73622 0.56387 0.0
C636 C 0.20148 0.79214 0.47833 0.0
C637 C 0.2421 0.76197 0.536 0.0
N638 N 0.20821 0.83232 0.55914 0.0
N639 N 0.26837 0.75488 0.45011 0.0
H640 H 0.24519 0.73184 0.60675 0.0
H641 H 0.25416 0.71578 0.54317 0.0
H642 H 0.2732 0.75923 0.40734 0.0
H643 H 0.2884 0.74962 0.47111 0.0
H644 H 0.19774 0.84787 0.537 0.0
H645 H 0.21715 0.84236 0.59968 0.0
H646 H 0.15849 0.80896 0.47638 0.0
H647 H 0.16342 0.78913 0.41381 0.0
C648 C 0.41723 0.23607 0.96676 0.0
C649 C 0.41876 0.2021 0.95263 0.0
C650 C 0.41649 0.1854 0.05187 0.0
C651 C 0.41961 0.22163 0.06599 0.0
N652 N 0.41063 0.27514 0.03991 0.0
N653 N 0.40659 0.13853 0.97885 0.0
C654 C 0.41565 0.24477 0.02417 0.0
C655 C 0.41375 0.17468 0.99452 0.0
N656 N 0.41963 0.26103 0.9255 0.0
N657 N 0.41858 0.16253 0.09293 0.0
H658 H 0.40353 0.13022 0.9369 0.0
H659 H 0.40003 0.11587 0.00675 0.0
H660 H 0.41827 0.16856 0.13524 0.0
H661 H 0.42164 0.13834 0.08528 0.0
H662 H 0.42389 0.2888 0.93277 0.0
H663 H 0.41796 0.25392 0.88332 0.0
H664 H 0.40487 0.29186 0.01213 0.0
H665 H 0.40883 0.28134 0.08187 0.0
C666 C 0.18669 0.41999 0.46443 0.0
C667 C 0.22191 0.42098 0.45009 0.0
C668 C 0.23742 0.42067 0.54927 0.0
C669 C 0.20435 0.42389 0.5635 0.0
N670 N 0.14138 0.41393 0.53781 0.0
N671 N 0.27322 0.4088 0.47652 0.0
C672 C 0.17685 0.41919 0.5219 0.0
C673 C 0.24464 0.41662 0.49204 0.0
N674 N 0.16395 0.42209 0.42326 0.0
N675 N 0.26309 0.42392 0.58992 0.0
H676 H 0.27786 0.40474 0.43469 0.0
H677 H 0.28942 0.40254 0.50462 0.0
H678 H 0.25767 0.42498 0.63229 0.0
H679 H 0.29028 0.4269 0.58173 0.0
H680 H 0.14072 0.42681 0.43063 0.0
H681 H 0.16904 0.41988 0.38107 0.0
H682 H 0.11865 0.40749 0.51016 0.0
H683 H 0.1335 0.41242 0.57978 0.0
C684 C 0.76784 0.18302 0.95432 0.0
C685 C 0.80189 0.21872 0.94078 0.0
C686 C 0.81861 0.23158 0.04024 0.0
C687 C 0.78226 0.19832 0.05387 0.0
N688 N 0.72908 0.13608 0.02654 0.0
N689 N 0.86524 0.27038 0.96767 0.0
C690 C 0.75924 0.17183 0.01149 0.0
C691 C 0.82924 0.24071 0.98295 0.0
N692 N 0.74268 0.16115 0.91287 0.0
N693 N 0.84176 0.2555 0.08188 0.0
H694 H 0.8735 0.27686 0.9258 0.0
H695 H 0.88788 0.28618 0.99564 0.0
H696 H 0.83623 0.24786 0.1239 0.0
H697 H 0.86595 0.28295 0.07511 0.0
H698 H 0.7149 0.13757 0.92005 0.0
H699 H 0.74944 0.16739 0.87068 0.0
H700 H 0.7124 0.11397 0.99827 0.0
H701 H 0.72324 0.1274 0.06834 0.0
C702 C 0.59107 0.76465 0.52212 0.0
C703 C 0.58491 0.78637 0.56386 0.0
C704 C 0.58932 0.83302 0.49264 0.0
C705 C 0.58679 0.80676 0.4505 0.0
N706 N 0.58988 0.74988 0.42336 0.0
N707 N 0.58189 0.84332 0.59092 0.0
C708 C 0.59005 0.77372 0.46468 0.0
C709 C 0.58612 0.82177 0.54987 0.0
N710 N 0.59784 0.73538 0.53791 0.0
N711 N 0.59461 0.86858 0.4773 0.0
H712 H 0.58173 0.83694 0.6332 0.0
H713 H 0.5775 0.86671 0.58329 0.0
H714 H 0.59786 0.8773 0.43548 0.0
H715 H 0.59939 0.89056 0.50545 0.0
H716 H 0.60534 0.71993 0.51028 0.0
H717 H 0.59935 0.72896 0.57987 0.0
H718 H 0.58674 0.72252 0.43045 0.0
H719 H 0.59228 0.75746 0.38127 0.0
C720 C 0.22145 0.58098 0.22175 0.0
C721 C 0.21769 0.5666 0.27696 0.0
C722 C 0.22075 0.62547 0.31386 0.0
C723 C 0.22056 0.63845 0.25817 0.0
N724 N 0.21336 0.62457 0.15913 0.0
N725 N 0.20673 0.57089 0.37457 0.0
C726 C 0.21903 0.61517 0.21196 0.0
C727 C 0.21521 0.58762 0.32268 0.0
N728 N 0.2283 0.56237 0.17897 0.0
N729 N 0.22831 0.64986 0.35838 0.0
H730 H 0.20286 0.54321 0.38216 0.0
H731 H 0.20012 0.58283 0.40876 0.0
H732 H 0.23387 0.67831 0.35465 0.0
H733 H 0.233 0.64325 0.39879 0.0
H734 H 0.23528 0.57354 0.1385 0.0
H735 H 0.23026 0.53732 0.18517 0.0
H736 H 0.20824 0.60658 0.12467 0.0
H737 H 0.20998 0.64852 0.15045 0.0
C738 C 0.63394 0.20948 0.7396 0.0
C739 C 0.64921 0.20642 0.79164 0.0
C740 C 0.5907 0.19783 0.83945 0.0
C741 C 0.57316 0.19581 0.78653 0.0
N742 N 0.57766 0.19901 0.68569 0.0
N743 N 0.64204 0.19432 0.8903 0.0
C744 C 0.59471 0.20146 0.73639 0.0
C745 C 0.62771 0.20008 0.84145 0.0
N746 N 0.65762 0.22125 0.69358 0.0
N747 N 0.57221 0.19763 0.88783 0.0
H748 H 0.66917 0.19605 0.89276 0.0
H749 H 0.62608 0.18502 0.9273 0.0
H750 H 0.54471 0.19489 0.88897 0.0
H751 H 0.5854 0.20334 0.92699 0.0
H752 H 0.64995 0.22796 0.65526 0.0
H753 H 0.68652 0.22752 0.69503 0.0
H754 H 0.58989 0.19789 0.64769 0.0
H755 H 0.55023 0.1963 0.6814 0.0
C756 C 0.43015 0.6352 0.24126 0.0
C757 C 0.44655 0.6497 0.29448 0.0
C758 C 0.39591 0.59009 0.33901 0.0
C759 C 0.38214 0.57342 0.28513 0.0
N760 N 0.38608 0.57967 0.1845 0.0
N761 N 0.44878 0.64085 0.39324 0.0
C762 C 0.39929 0.59589 0.23603 0.0
C763 C 0.43022 0.62722 0.3432 0.0
N764 N 0.44361 0.65967 0.19615 0.0
N765 N 0.37631 0.57074 0.38627 0.0
H766 H 0.47379 0.66818 0.39743 0.0
H767 H 0.44137 0.62415 0.4296 0.0
H768 H 0.35181 0.54306 0.38609 0.0
H769 H 0.38242 0.58341 0.42581 0.0
H770 H 0.43084 0.65255 0.15671 0.0
H771 H 0.46604 0.68862 0.19933 0.0
H772 H 0.40016 0.59271 0.14722 0.0
H773 H 0.36163 0.55217 0.17884 0.0
C774 C 0.77997 0.37498 0.82328 0.0
C775 C 0.78012 0.36077 0.76845 0.0
C776 C 0.78026 0.41792 0.72832 0.0
C777 C 0.78425 0.43368 0.78259 0.0
N778 N 0.79375 0.43088 0.88102 0.0
N779 N 0.78854 0.3732 0.66889 0.0
C780 C 0.7858 0.41322 0.82987 0.0
C781 C 0.7823 0.38337 0.72087 0.0
N782 N 0.77247 0.3515 0.869 0.0
N783 N 0.77364 0.43564 0.68403 0.0
H784 H 0.79203 0.34919 0.66159 0.0
H785 H 0.79428 0.39081 0.63373 0.0
H786 H 0.77199 0.46099 0.6883 0.0
H787 H 0.76633 0.42336 0.64425 0.0
H788 H 0.76783 0.35893 0.90888 0.0
H789 H 0.7672 0.32305 0.86684 0.0
H790 H 0.79969 0.41944 0.91647 0.0
H791 H 0.79763 0.45872 0.88685 0.0
C792 C 0.37051 0.79006 0.22948 0.0
C793 C 0.35509 0.79394 0.28084 0.0
C794 C 0.41384 0.80462 0.32982 0.0
C795 C 0.4315 0.80564 0.27741 0.0
N796 N 0.42708 0.79987 0.17675 0.0
N797 N 0.36298 0.81024 0.37821 0.0
C798 C 0.40991 0.79849 0.22697 0.0
C799 C 0.3769 0.80238 0.33064 0.0
N800 N 0.34693 0.7775 0.18347 0.0
N801 N 0.43203 0.80565 0.37888 0.0
H802 H 0.3363 0.80951 0.37943 0.0
H803 H 0.37918 0.82086 0.41478 0.0
H804 H 0.45927 0.80789 0.38103 0.0
H805 H 0.41854 0.80072 0.4178 0.0
H806 H 0.35468 0.77019 0.1457 0.0
H807 H 0.31812 0.77158 0.18441 0.0
H808 H 0.41474 0.79966 0.13824 0.0
H809 H 0.45468 0.80284 0.17329 0.0
C810 C 0.61462 0.4025 0.72225 0.0
C811 C 0.63839 0.42258 0.76905 0.0
C812 C 0.5872 0.37579 0.83199 0.0
C813 C 0.56612 0.35358 0.78535 0.0
N814 N 0.56213 0.34132 0.68654 0.0
N815 N 0.64958 0.42327 0.86933 0.0
C816 C 0.58055 0.36562 0.73052 0.0
C817 C 0.6253 0.40799 0.82428 0.0
N818 N 0.62323 0.41944 0.67046 0.0
N819 N 0.57026 0.36644 0.88372 0.0
H820 H 0.67806 0.44634 0.86704 0.0
H821 H 0.64269 0.41054 0.9089 0.0
H822 H 0.54234 0.34276 0.89044 0.0
H823 H 0.58229 0.38411 0.91873 0.0
H824 H 0.60479 0.40754 0.63615 0.0
H825 H 0.64654 0.44739 0.66293 0.0
H826 H 0.57351 0.34673 0.64613 0.0
H827 H 0.53725 0.31398 0.69157 0.0
C828 C 0.38449 0.78944 0.69773 0.0
C829 C 0.37139 0.78961 0.75337 0.0
C830 C 0.4288 0.7888 0.79012 0.0
C831 C 0.44343 0.79269 0.735 0.0
N832 N 0.43931 0.80364 0.63734 0.0
N833 N 0.38554 0.79759 0.85232 0.0
C834 C 0.42246 0.79512 0.68912 0.0
C835 C 0.39475 0.79146 0.79964 0.0
N836 N 0.36014 0.78171 0.6531 0.0
N837 N 0.44685 0.78137 0.83312 0.0
H838 H 0.36178 0.80131 0.86081 0.0
H839 H 0.40366 0.80295 0.88672 0.0
H840 H 0.47153 0.77873 0.82731 0.0
H841 H 0.43533 0.77429 0.87339 0.0
H842 H 0.36689 0.77706 0.61277 0.0
H843 H 0.33162 0.77601 0.65663 0.0
H844 H 0.42737 0.81013 0.60301 0.0
H845 H 0.46708 0.80767 0.63001 0.0
C846 C 0.5995 0.37301 0.18268 0.0
C847 C 0.5851 0.35994 0.23793 0.0
C848 C 0.64182 0.4183 0.27633 0.0
C849 C 0.65385 0.43252 0.22142 0.0
N850 N 0.64234 0.42726 0.12267 0.0
N851 N 0.58906 0.374 0.33692 0.0
C852 C 0.63211 0.41093 0.17472 0.0
C853 C 0.60546 0.3835 0.28481 0.0
N854 N 0.58324 0.34875 0.13785 0.0
N855 N 0.66554 0.43811 0.32025 0.0
H856 H 0.56183 0.34972 0.34485 0.0
H857 H 0.6007 0.39214 0.37154 0.0
H858 H 0.69186 0.46415 0.31496 0.0
H859 H 0.66071 0.42734 0.36098 0.0
H860 H 0.59546 0.35511 0.09797 0.0
H861 H 0.5594 0.32073 0.14074 0.0
H862 H 0.62509 0.41523 0.08729 0.0
H863 H 0.66678 0.45463 0.11565 0.0
C864 C 0.22376 0.5996 0.69297 0.0
C865 C 0.22382 0.5836 0.74651 0.0
C866 C 0.22569 0.64024 0.79128 0.0
C867 C 0.22173 0.65379 0.73832 0.0
N868 N 0.20862 0.64269 0.64024 0.0
N869 N 0.21526 0.5847 0.84661 0.0
C870 C 0.21825 0.63231 0.68959 0.0
C871 C 0.22223 0.60285 0.79581 0.0
N872 N 0.23086 0.58506 0.64537 0.0
N873 N 0.23362 0.66356 0.8371 0.0
H874 H 0.21022 0.55641 0.85166 0.0
H875 H 0.21017 0.596 0.88291 0.0
H876 H 0.23638 0.69115 0.83496 0.0
H877 H 0.24088 0.65703 0.87592 0.0
H878 H 0.23526 0.5985 0.60647 0.0
H879 H 0.23627 0.56195 0.64492 0.0
H880 H 0.20173 0.62589 0.60406 0.0
H881 H 0.20364 0.66612 0.63723 0.0
C882 C 0.57632 0.20836 0.26885 0.0
C883 C 0.55778 0.20465 0.21679 0.0
C884 C 0.60823 0.1969 0.16919 0.0
C885 C 0.62412 0.19563 0.22218 0.0
N886 N 0.62339 0.19994 0.3229 0.0
N887 N 0.55274 0.19192 0.11838 0.0
C888 C 0.60815 0.20131 0.27219 0.0
C889 C 0.57305 0.19833 0.16714 0.0
N890 N 0.56404 0.21989 0.31466 0.0
N891 N 0.62659 0.19689 0.12078 0.0
H892 H 0.52701 0.19306 0.11589 0.0
H893 H 0.5595 0.18258 0.08156 0.0
H894 H 0.65178 0.19493 0.11954 0.0
H895 H 0.61874 0.20211 0.08155 0.0
H896 H 0.57849 0.22709 0.35291 0.0
H897 H 0.54085 0.22531 0.31318 0.0
H898 H 0.61013 0.19881 0.36098 0.0
H899 H 0.64877 0.19838 0.32715 0.0
C900 C 0.40419 0.61788 0.78683 0.0
C901 C 0.42374 0.64156 0.73963 0.0
C902 C 0.37617 0.58995 0.67774 0.0
C903 C 0.35475 0.56855 0.72496 0.0
N904 N 0.34356 0.5655 0.82418 0.0
N905 N 0.4233 0.6527 0.63983 0.0
C906 C 0.36737 0.58353 0.77948 0.0
C907 C 0.40845 0.62828 0.68487 0.0
N908 N 0.42156 0.6269 0.83826 0.0
N909 N 0.36609 0.57312 0.62609 0.0
H910 H 0.4461 0.68135 0.64249 0.0
H911 H 0.4105 0.64581 0.60036 0.0
H912 H 0.34243 0.54512 0.6199 0.0
H913 H 0.38305 0.58538 0.59046 0.0
H914 H 0.41025 0.60847 0.87276 0.0
H915 H 0.44929 0.65066 0.8453 0.0
H916 H 0.34936 0.57731 0.8643 0.0
H917 H 0.31614 0.54065 0.82014 0.0
C918 C 0.79431 0.36977 0.25819 0.0
C919 C 0.79545 0.35492 0.20489 0.0
C920 C 0.80719 0.41566 0.16075 0.0
C921 C 0.81128 0.43239 0.21465 0.0
N922 N 0.80959 0.42635 0.31509 0.0
N923 N 0.80511 0.36308 0.10573 0.0
C924 C 0.80485 0.40963 0.2636 0.0
C925 C 0.80198 0.37754 0.1561 0.0
N926 N 0.78245 0.34525 0.30327 0.0
N927 N 0.80834 0.43623 0.11411 0.0
H928 H 0.80101 0.33506 0.10134 0.0
H929 H 0.81418 0.37946 0.06907 0.0
H930 H 0.81298 0.46453 0.11571 0.0
H931 H 0.80173 0.42431 0.07412 0.0
H932 H 0.7775 0.35287 0.3428 0.0
H933 H 0.7744 0.31588 0.29989 0.0
H934 H 0.80969 0.41277 0.35233 0.0
H935 H 0.81533 0.45483 0.32053 0.0
loop_
_geom_bond_atom_site_label_1
_geom_bond_atom_site_label_2
_geom_bond_distance
_geom_bond_site_symmetry_2
_ccdc_geom_bond_type
Co0 N4 2.148 . S
Co0 N10 2.128 . S
Co0 N20 2.194 . S
Co0 O25 2.351 . S
Co0 O26 2.155 . S
Co0 O27 2.096 . S
C1 N4 1.301 . S
C1 N5 1.328 . S
C1 H6 0.930 . S
C2 C3 1.333 . S
C2 N4 1.317 . S
C2 H7 0.930 . S
C3 C2 1.333 . S
C3 N5 1.350 . S
C3 H29 0.931 . S
N4 Co0 2.148 . S
N4 C1 1.301 . S
N4 C2 1.317 . S
N5 C1 1.328 . S
N5 C3 1.350 . S
H6 C1 0.930 . S
H7 C2 0.930 . S
C8 O9 1.224 . S
C8 O27 1.247 . S
O9 C8 1.224 . S
N10 Co0 2.128 . S
N10 C11 1.355 . S
N10 C13 1.311 . S
C11 N10 1.355 . S
C11 C12 1.363 . S
C11 H23 0.929 . S
C12 C11 1.363 . S
C12 N14 1.375 . S
C12 H30 0.931 . S
C13 N10 1.311 . S
C13 N14 1.347 . S
C13 H24 0.929 . S
N14 C12 1.375 . S
N14 C13 1.347 . S
C15 C18 1.365 . S
C15 N20 1.328 . S
C15 H21 0.929 . S
C16 C17 1.362 . S
C16 C19 1.378 . S
C16 H31 0.929 . S
C17 C16 1.362 . S
C17 C18 1.366 . S
C18 C15 1.365 . S
C18 C17 1.366 . S
C18 H32 0.930 . S
C19 C16 1.378 . S
C19 N20 1.315 . S
C19 H22 0.930 . S
N20 Co0 2.194 . S
N20 C15 1.328 . S
N20 C19 1.315 . S
H21 C15 0.929 . S
H22 C19 0.930 . S
H23 C11 0.929 . S
H24 C13 0.929 . S
O25 Co0 2.351 . S
O25 C28 1.244 . S
O26 Co0 2.155 . S
O26 C28 1.240 . S
O27 Co0 2.096 . S
O27 C8 1.247 . S
C28 O25 1.244 . S
C28 O26 1.240 . S
H29 C3 0.931 . S
H30 C12 0.931 . S
H31 C16 0.929 . S
H32 C18 0.930 . S
Co33 N37 2.148 . S
Co33 N43 2.128 . S
Co33 N53 2.194 . S
Co33 O58 2.351 . S
Co33 O59 2.155 . S
Co33 O60 2.096 . S
C34 N37 1.301 . S
C34 N38 1.328 . S
C34 H39 0.930 . S
C35 C36 1.333 . S
C35 N37 1.317 . S
C35 H40 0.930 . S
C36 C35 1.333 . S
C36 N38 1.350 . S
C36 H62 0.931 . S
N37 Co33 2.148 . S
N37 C34 1.301 . S
N37 C35 1.317 . S
N38 C34 1.328 . S
N38 C36 1.350 . S
H39 C34 0.930 . S
H40 C35 0.930 . S
C41 O42 1.224 . S
C41 O60 1.247 . S
O42 C41 1.224 . S
N43 Co33 2.128 . S
N43 C44 1.355 . S
N43 C46 1.311 . S
C44 N43 1.355 . S
C44 C45 1.363 . S
C44 H56 0.929 . S
C45 C44 1.363 . S
C45 N47 1.375 . S
C45 H63 0.931 . S
C46 N43 1.311 . S
C46 N47 1.347 . S
C46 H57 0.929 . S
N47 C45 1.375 . S
N47 C46 1.347 . S
C48 C51 1.365 . S
C48 N53 1.328 . S
C48 H54 0.929 . S
C49 C50 1.362 . S
C49 C52 1.378 . S
C49 H64 0.929 . S
C50 C49 1.362 . S
C50 C51 1.366 . S
C51 C48 1.365 . S
C51 C50 1.366 . S
C51 H65 0.930 . S
C52 C49 1.378 . S
C52 N53 1.315 . S
C52 H55 0.930 . S
N53 Co33 2.194 . S
N53 C48 1.328 . S
N53 C52 1.315 . S
H54 C48 0.929 . S
H55 C52 0.930 . S
H56 C44 0.929 . S
H57 C46 0.929 . S
O58 Co33 2.351 . S
O58 C61 1.244 . S
O59 Co33 2.155 . S
O59 C61 1.240 . S
O60 Co33 2.096 . S
O60 C41 1.247 . S
C61 O58 1.244 . S
C61 O59 1.240 . S
H62 C36 0.931 . S
H63 C45 0.931 . S
H64 C49 0.929 . S
H65 C51 0.930 . S
Co66 N70 2.148 . S
Co66 N76 2.128 . S
Co66 N86 2.194 . S
Co66 O91 2.351 . S
Co66 O92 2.155 . S
Co66 O93 2.096 . S
C67 N70 1.301 . S
C67 N71 1.328 . S
C67 H72 0.930 . S
C68 C69 1.333 . S
C68 N70 1.317 . S
C68 H73 0.930 . S
C69 C68 1.333 . S
C69 N71 1.350 . S
C69 H95 0.931 . S
N70 Co66 2.148 . S
N70 C67 1.301 . S
N70 C68 1.317 . S
N71 C67 1.328 . S
N71 C69 1.350 . S
H72 C67 0.930 . S
H73 C68 0.930 . S
C74 O75 1.224 . S
C74 O93 1.247 . S
O75 C74 1.224 . S
N76 Co66 2.128 . S
N76 C77 1.355 . S
N76 C79 1.311 . S
C77 N76 1.355 . S
C77 C78 1.363 . S
C77 H89 0.929 . S
C78 C77 1.363 . S
C78 N80 1.375 . S
C78 H96 0.931 . S
C79 N76 1.311 . S
C79 N80 1.347 . S
C79 H90 0.929 . S
N80 C78 1.375 . S
N80 C79 1.347 . S
C81 C84 1.365 . S
C81 N86 1.328 . S
C81 H87 0.929 . S
C82 C83 1.362 . S
C82 C85 1.378 . S
C82 H97 0.929 . S
C83 C82 1.362 . S
C83 C84 1.366 . S
C84 C81 1.365 . S
C84 C83 1.366 . S
C84 H98 0.930 . S
C85 C82 1.378 . S
C85 N86 1.315 . S
C85 H88 0.930 . S
N86 Co66 2.194 . S
N86 C81 1.328 . S
N86 C85 1.315 . S
H87 C81 0.929 . S
H88 C85 0.930 . S
H89 C77 0.929 . S
H90 C79 0.929 . S
O91 Co66 2.351 . S
O91 C94 1.244 . S
O92 Co66 2.155 . S
O92 C94 1.240 . S
O93 Co66 2.096 . S
O93 C74 1.247 . S
C94 O91 1.244 . S
C94 O92 1.240 . S
H95 C69 0.931 . S
H96 C78 0.931 . S
H97 C82 0.929 . S
H98 C84 0.930 . S
Co99 N103 2.148 . S
Co99 N109 2.128 . S
Co99 N119 2.194 . S
Co99 O124 2.351 . S
Co99 O125 2.155 . S
Co99 O126 2.096 . S
C100 N103 1.301 . S
C100 N104 1.328 . S
C100 H105 0.930 . S
C101 C102 1.333 . S
C101 N103 1.317 . S
C101 H106 0.930 . S
C102 C101 1.333 . S
C102 N104 1.350 . S
C102 H128 0.931 . S
N103 Co99 2.148 . S
N103 C100 1.301 . S
N103 C101 1.317 . S
N104 C100 1.328 . S
N104 C102 1.350 . S
H105 C100 0.930 . S
H106 C101 0.930 . S
C107 O108 1.224 . S
C107 O126 1.247 . S
O108 C107 1.224 . S
N109 Co99 2.128 . S
N109 C110 1.355 . S
N109 C112 1.311 . S
C110 N109 1.355 . S
C110 C111 1.363 . S
C110 H122 0.929 . S
C111 C110 1.363 . S
C111 N113 1.375 . S
C111 H129 0.931 . S
C112 N109 1.311 . S
C112 N113 1.347 . S
C112 H123 0.929 . S
N113 C111 1.375 . S
N113 C112 1.347 . S
C114 C117 1.365 . S
C114 N119 1.328 . S
C114 H120 0.929 . S
C115 C116 1.362 . S
C115 C118 1.378 . S
C115 H130 0.929 . S
C116 C115 1.362 . S
C116 C117 1.366 . S
C117 C114 1.365 . S
C117 C116 1.366 . S
C117 H131 0.930 . S
C118 C115 1.378 . S
C118 N119 1.315 . S
C118 H121 0.930 . S
N119 Co99 2.194 . S
N119 C114 1.328 . S
N119 C118 1.315 . S
H120 C114 0.929 . S
H121 C118 0.930 . S
H122 C110 0.929 . S
H123 C112 0.929 . S
O124 Co99 2.351 . S
O124 C127 1.244 . S
O125 Co99 2.155 . S
O125 C127 1.240 . S
O126 Co99 2.096 . S
O126 C107 1.247 . S
C127 O124 1.244 . S
C127 O125 1.240 . S
H128 C102 0.931 . S
H129 C111 0.931 . S
H130 C115 0.929 . S
H131 C117 0.930 . S
Co132 N136 2.148 . S
Co132 N142 2.128 . S
Co132 N152 2.194 . S
Co132 O157 2.351 . S
Co132 O158 2.155 . S
Co132 O159 2.096 . S
C133 N136 1.301 . S
C133 N137 1.328 . S
C133 H138 0.930 . S
C134 C135 1.333 . S
C134 N136 1.317 . S
C134 H139 0.930 . S
C135 C134 1.333 . S
C135 N137 1.350 . S
C135 H161 0.931 . S
N136 Co132 2.148 . S
N136 C133 1.301 . S
N136 C134 1.317 . S
N137 C133 1.328 . S
N137 C135 1.350 . S
H138 C133 0.930 . S
H139 C134 0.930 . S
C140 O141 1.224 . S
C140 O159 1.247 . S
O141 C140 1.224 . S
N142 Co132 2.128 . S
N142 C143 1.355 . S
N142 C145 1.311 . S
C143 N142 1.355 . S
C143 C144 1.363 . S
C143 H155 0.929 . S
C144 C143 1.363 . S
C144 N146 1.375 . S
C144 H162 0.931 . S
C145 N142 1.311 . S
C145 N146 1.347 . S
C145 H156 0.929 . S
N146 C144 1.375 . S
N146 C145 1.347 . S
C147 C150 1.365 . S
C147 N152 1.328 . S
C147 H153 0.929 . S
C148 C149 1.362 . S
C148 C151 1.378 . S
C148 H163 0.929 . S
C149 C148 1.362 . S
C149 C150 1.366 . S
C150 C147 1.365 . S
C150 C149 1.366 . S
C150 H164 0.930 . S
C151 C148 1.378 . S
C151 N152 1.315 . S
C151 H154 0.930 . S
N152 Co132 2.194 . S
N152 C147 1.328 . S
N152 C151 1.315 . S
H153 C147 0.929 . S
H154 C151 0.930 . S
H155 C143 0.929 . S
H156 C145 0.929 . S
O157 Co132 2.351 . S
O157 C160 1.244 . S
O158 Co132 2.155 . S
O158 C160 1.240 . S
O159 Co132 2.096 . S
O159 C140 1.247 . S
C160 O157 1.244 . S
C160 O158 1.240 . S
H161 C135 0.931 . S
H162 C144 0.931 . S
H163 C148 0.929 . S
H164 C150 0.930 . S
Co165 N169 2.148 . S
Co165 N175 2.128 . S
Co165 N185 2.194 . S
Co165 O190 2.351 . S
Co165 O191 2.155 . S
Co165 O192 2.096 . S
C166 N169 1.301 . S
C166 N170 1.328 . S
C166 H171 0.930 . S
C167 C168 1.333 . S
C167 N169 1.317 . S
C167 H172 0.930 . S
C168 C167 1.333 . S
C168 N170 1.350 . S
C168 H194 0.931 . S
N169 Co165 2.148 . S
N169 C166 1.301 . S
N169 C167 1.317 . S
N170 C166 1.328 . S
N170 C168 1.350 . S
H171 C166 0.930 . S
H172 C167 0.930 . S
C173 O174 1.224 . S
C173 O192 1.247 . S
O174 C173 1.224 . S
N175 Co165 2.128 . S
N175 C176 1.355 . S
N175 C178 1.311 . S
C176 N175 1.355 . S
C176 C177 1.363 . S
C176 H188 0.929 . S
C177 C176 1.363 . S
C177 N179 1.375 . S
C177 H195 0.931 . S
C178 N175 1.311 . S
C178 N179 1.347 . S
C178 H189 0.929 . S
N179 C177 1.375 . S
N179 C178 1.347 . S
C180 C183 1.365 . S
C180 N185 1.328 . S
C180 H186 0.929 . S
C181 C182 1.362 . S
C181 C184 1.378 . S
C181 H196 0.929 . S
C182 C181 1.362 . S
C182 C183 1.366 . S
C183 C180 1.365 . S
C183 C182 1.366 . S
C183 H197 0.930 . S
C184 C181 1.378 . S
C184 N185 1.315 . S
C184 H187 0.930 . S
N185 Co165 2.194 . S
N185 C180 1.328 . S
N185 C184 1.315 . S
H186 C180 0.929 . S
H187 C184 0.930 . S
H188 C176 0.929 . S
H189 C178 0.929 . S
O190 Co165 2.351 . S
O190 C193 1.244 . S
O191 Co165 2.155 . S
O191 C193 1.240 . S
O192 Co165 2.096 . S
O192 C173 1.247 . S
C193 O190 1.244 . S
C193 O191 1.240 . S
H194 C168 0.931 . S
H195 C177 0.931 . S
H196 C181 0.929 . S
H197 C183 0.930 . S
Co198 N202 2.148 . S
Co198 N208 2.128 . S
Co198 N218 2.194 . S
Co198 O223 2.351 . S
Co198 O224 2.155 . S
Co198 O225 2.096 . S
C199 N202 1.301 . S
C199 N203 1.328 . S
C199 H204 0.930 . S
C200 C201 1.333 . S
C200 N202 1.317 . S
C200 H205 0.930 . S
C201 C200 1.333 . S
C201 N203 1.350 . S
C201 H227 0.931 . S
N202 Co198 2.148 . S
N202 C199 1.301 . S
N202 C200 1.317 . S
N203 C199 1.328 . S
N203 C201 1.350 . S
H204 C199 0.930 . S
H205 C200 0.930 . S
C206 O207 1.224 . S
C206 O225 1.247 . S
O207 C206 1.224 . S
N208 Co198 2.128 . S
N208 C209 1.355 . S
N208 C211 1.311 . S
C209 N208 1.355 . S
C209 C210 1.363 . S
C209 H221 0.929 . S
C210 C209 1.363 . S
C210 N212 1.375 . S
C210 H228 0.931 . S
C211 N208 1.311 . S
C211 N212 1.347 . S
C211 H222 0.929 . S
N212 C210 1.375 . S
N212 C211 1.347 . S
C213 C216 1.365 . S
C213 N218 1.328 . S
C213 H219 0.929 . S
C214 C215 1.362 . S
C214 C217 1.378 . S
C214 H229 0.929 . S
C215 C214 1.362 . S
C215 C216 1.366 . S
C216 C213 1.365 . S
C216 C215 1.366 . S
C216 H230 0.930 . S
C217 C214 1.378 . S
C217 N218 1.315 . S
C217 H220 0.930 . S
N218 Co198 2.194 . S
N218 C213 1.328 . S
N218 C217 1.315 . S
H219 C213 0.929 . S
H220 C217 0.930 . S
H221 C209 0.929 . S
H222 C211 0.929 . S
O223 Co198 2.351 . S
O223 C226 1.244 . S
O224 Co198 2.155 . S
O224 C226 1.240 . S
O225 Co198 2.096 . S
O225 C206 1.247 . S
C226 O223 1.244 . S
C226 O224 1.240 . S
H227 C201 0.931 . S
H228 C210 0.931 . S
H229 C214 0.929 . S
H230 C216 0.930 . S
Co231 N235 2.148 . S
Co231 N241 2.128 . S
Co231 N251 2.194 . S
Co231 O256 2.351 . S
Co231 O257 2.155 . S
Co231 O258 2.096 . S
C232 N235 1.301 . S
C232 N236 1.328 . S
C232 H237 0.930 . S
C233 C234 1.333 . S
C233 N235 1.317 . S
C233 H238 0.930 . S
C234 C233 1.333 . S
C234 N236 1.350 . S
C234 H260 0.931 . S
N235 Co231 2.148 . S
N235 C232 1.301 . S
N235 C233 1.317 . S
N236 C232 1.328 . S
N236 C234 1.350 . S
H237 C232 0.930 . S
H238 C233 0.930 . S
C239 O240 1.224 . S
C239 O258 1.247 . S
O240 C239 1.224 . S
N241 Co231 2.128 . S
N241 C242 1.355 . S
N241 C244 1.311 . S
C242 N241 1.355 . S
C242 C243 1.363 . S
C242 H254 0.929 . S
C243 C242 1.363 . S
C243 N245 1.375 . S
C243 H261 0.931 . S
C244 N241 1.311 . S
C244 N245 1.347 . S
C244 H255 0.929 . S
N245 C243 1.375 . S
N245 C244 1.347 . S
C246 C249 1.365 . S
C246 N251 1.328 . S
C246 H252 0.929 . S
C247 C248 1.362 . S
C247 C250 1.378 . S
C247 H262 0.929 . S
C248 C247 1.362 . S
C248 C249 1.366 . S
C249 C246 1.365 . S
C249 C248 1.366 . S
C249 H263 0.930 . S
C250 C247 1.378 . S
C250 N251 1.315 . S
C250 H253 0.930 . S
N251 Co231 2.194 . S
N251 C246 1.328 . S
N251 C250 1.315 . S
H252 C246 0.929 . S
H253 C250 0.930 . S
H254 C242 0.929 . S
H255 C244 0.929 . S
O256 Co231 2.351 . S
O256 C259 1.244 . S
O257 Co231 2.155 . S
O257 C259 1.240 . S
O258 Co231 2.096 . S
O258 C239 1.247 . S
C259 O256 1.244 . S
C259 O257 1.240 . S
H260 C234 0.931 . S
H261 C243 0.931 . S
H262 C247 0.929 . S
H263 C249 0.930 . S
Co264 N268 2.148 . S
Co264 N274 2.128 . S
Co264 N284 2.194 . S
Co264 O289 2.351 . S
Co264 O290 2.155 . S
Co264 O291 2.096 . S
C265 N268 1.301 . S
C265 N269 1.328 . S
C265 H270 0.930 . S
C266 C267 1.333 . S
C266 N268 1.317 . S
C266 H271 0.930 . S
C267 C266 1.333 . S
C267 N269 1.350 . S
C267 H293 0.931 . S
N268 Co264 2.148 . S
N268 C265 1.301 . S
N268 C266 1.317 . S
N269 C265 1.328 . S
N269 C267 1.350 . S
H270 C265 0.930 . S
H271 C266 0.930 . S
C272 O273 1.224 . S
C272 O291 1.247 . S
O273 C272 1.224 . S
N274 Co264 2.128 . S
N274 C275 1.355 . S
N274 C277 1.311 . S
C275 N274 1.355 . S
C275 C276 1.363 . S
C275 H287 0.929 . S
C276 C275 1.363 . S
C276 N278 1.375 . S
C276 H294 0.931 . S
C277 N274 1.311 . S
C277 N278 1.347 . S
C277 H288 0.929 . S
N278 C276 1.375 . S
N278 C277 1.347 . S
C279 C282 1.365 . S
C279 N284 1.328 . S
C279 H285 0.929 . S
C280 C281 1.362 . S
C280 C283 1.378 . S
C280 H295 0.929 . S
C281 C280 1.362 . S
C281 C282 1.366 . S
C282 C279 1.365 . S
C282 C281 1.366 . S
C282 H296 0.930 . S
C283 C280 1.378 . S
C283 N284 1.315 . S
C283 H286 0.930 . S
N284 Co264 2.194 . S
N284 C279 1.328 . S
N284 C283 1.315 . S
H285 C279 0.929 . S
H286 C283 0.930 . S
H287 C275 0.929 . S
H288 C277 0.929 . S
O289 Co264 2.351 . S
O289 C292 1.244 . S
O290 Co264 2.155 . S
O290 C292 1.240 . S
O291 Co264 2.096 . S
O291 C272 1.247 . S
C292 O289 1.244 . S
C292 O290 1.240 . S
H293 C267 0.931 . S
H294 C276 0.931 . S
H295 C280 0.929 . S
H296 C282 0.930 . S
Co297 N301 2.148 . S
Co297 N307 2.128 . S
Co297 N317 2.194 . S
Co297 O322 2.351 . S
Co297 O323 2.155 . S
Co297 O324 2.096 . S
C298 N301 1.301 . S
C298 N302 1.328 . S
C298 H303 0.930 . S
C299 C300 1.333 . S
C299 N301 1.317 . S
C299 H304 0.930 . S
C300 C299 1.333 . S
C300 N302 1.350 . S
C300 H326 0.931 . S
N301 Co297 2.148 . S
N301 C298 1.301 . S
N301 C299 1.317 . S
N302 C298 1.328 . S
N302 C300 1.350 . S
H303 C298 0.930 . S
H304 C299 0.930 . S
C305 O306 1.224 . S
C305 O324 1.247 . S
O306 C305 1.224 . S
N307 Co297 2.128 . S
N307 C308 1.355 . S
N307 C310 1.311 . S
C308 N307 1.355 . S
C308 C309 1.363 . S
C308 H320 0.929 . S
C309 C308 1.363 . S
C309 N311 1.375 . S
C309 H327 0.931 . S
C310 N307 1.311 . S
C310 N311 1.347 . S
C310 H321 0.929 . S
N311 C309 1.375 . S
N311 C310 1.347 . S
C312 C315 1.365 . S
C312 N317 1.328 . S
C312 H318 0.929 . S
C313 C314 1.362 . S
C313 C316 1.378 . S
C313 H328 0.929 . S
C314 C313 1.362 . S
C314 C315 1.366 . S
C315 C312 1.365 . S
C315 C314 1.366 . S
C315 H329 0.930 . S
C316 C313 1.378 . S
C316 N317 1.315 . S
C316 H319 0.930 . S
N317 Co297 2.194 . S
N317 C312 1.328 . S
N317 C316 1.315 . S
H318 C312 0.929 . S
H319 C316 0.930 . S
H320 C308 0.929 . S
H321 C310 0.929 . S
O322 Co297 2.351 . S
O322 C325 1.244 . S
O323 Co297 2.155 . S
O323 C325 1.240 . S
O324 Co297 2.096 . S
O324 C305 1.247 . S
C325 O322 1.244 . S
C325 O323 1.240 . S
H326 C300 0.931 . S
H327 C309 0.931 . S
H328 C313 0.929 . S
H329 C315 0.930 . S
Co330 N334 2.148 . S
Co330 N340 2.128 . S
Co330 N350 2.194 . S
Co330 O355 2.351 . S
Co330 O356 2.155 . S
Co330 O357 2.096 . S
C331 N334 1.301 . S
C331 N335 1.328 . S
C331 H336 0.930 . S
C332 C333 1.333 . S
C332 N334 1.317 . S
C332 H337 0.930 . S
C333 C332 1.333 . S
C333 N335 1.350 . S
C333 H359 0.931 . S
N334 Co330 2.148 . S
N334 C331 1.301 . S
N334 C332 1.317 . S
N335 C331 1.328 . S
N335 C333 1.350 . S
H336 C331 0.930 . S
H337 C332 0.930 . S
C338 O339 1.224 . S
C338 O357 1.247 . S
O339 C338 1.224 . S
N340 Co330 2.128 . S
N340 C341 1.355 . S
N340 C343 1.311 . S
C341 N340 1.355 . S
C341 C342 1.363 . S
C341 H353 0.929 . S
C342 C341 1.363 . S
C342 N344 1.375 . S
C342 H360 0.931 . S
C343 N340 1.311 . S
C343 N344 1.347 . S
C343 H354 0.929 . S
N344 C342 1.375 . S
N344 C343 1.347 . S
C345 C348 1.365 . S
C345 N350 1.328 . S
C345 H351 0.929 . S
C346 C347 1.362 . S
C346 C349 1.378 . S
C346 H361 0.929 . S
C347 C346 1.362 . S
C347 C348 1.366 . S
C348 C345 1.365 . S
C348 C347 1.366 . S
C348 H362 0.930 . S
C349 C346 1.378 . S
C349 N350 1.315 . S
C349 H352 0.930 . S
N350 Co330 2.194 . S
N350 C345 1.328 . S
N350 C349 1.315 . S
H351 C345 0.929 . S
H352 C349 0.930 . S
H353 C341 0.929 . S
H354 C343 0.929 . S
O355 Co330 2.351 . S
O355 C358 1.244 . S
O356 Co330 2.155 . S
O356 C358 1.240 . S
O357 Co330 2.096 . S
O357 C338 1.247 . S
C358 O355 1.244 . S
C358 O356 1.240 . S
H359 C333 0.931 . S
H360 C342 0.931 . S
H361 C346 0.929 . S
H362 C348 0.930 . S
Co363 N367 2.148 . S
Co363 N373 2.128 . S
Co363 N383 2.194 . S
Co363 O388 2.351 . S
Co363 O389 2.155 . S
Co363 O390 2.096 . S
C364 N367 1.301 . S
C364 N368 1.328 . S
C364 H369 0.930 . S
C365 C366 1.333 . S
C365 N367 1.317 . S
C365 H370 0.930 . S
C366 C365 1.333 . S
C366 N368 1.350 . S
C366 H392 0.931 . S
N367 Co363 2.148 . S
N367 C364 1.301 . S
N367 C365 1.317 . S
N368 C364 1.328 . S
N368 C366 1.350 . S
H369 C364 0.930 . S
H370 C365 0.930 . S
C371 O372 1.224 . S
C371 O390 1.247 . S
O372 C371 1.224 . S
N373 Co363 2.128 . S
N373 C374 1.355 . S
N373 C376 1.311 . S
C374 N373 1.355 . S
C374 C375 1.363 . S
C374 H386 0.929 . S
C375 C374 1.363 . S
C375 N377 1.375 . S
C375 H393 0.931 . S
C376 N373 1.311 . S
C376 N377 1.347 . S
C376 H387 0.929 . S
N377 C375 1.375 . S
N377 C376 1.347 . S
C378 C381 1.365 . S
C378 N383 1.328 . S
C378 H384 0.929 . S
C379 C380 1.362 . S
C379 C382 1.378 . S
C379 H394 0.929 . S
C380 C379 1.362 . S
C380 C381 1.366 . S
C381 C378 1.365 . S
C381 C380 1.366 . S
C381 H395 0.930 . S
C382 C379 1.378 . S
C382 N383 1.315 . S
C382 H385 0.930 . S
N383 Co363 2.194 . S
N383 C378 1.328 . S
N383 C382 1.315 . S
H384 C378 0.929 . S
H385 C382 0.930 . S
H386 C374 0.929 . S
H387 C376 0.929 . S
O388 Co363 2.351 . S
O388 C391 1.244 . S
O389 Co363 2.155 . S
O389 C391 1.240 . S
O390 Co363 2.096 . S
O390 C371 1.247 . S
C391 O388 1.244 . S
C391 O389 1.240 . S
H392 C366 0.931 . S
H393 C375 0.931 . S
H394 C379 0.929 . S
H395 C381 0.930 . S
C396 C397 1.363 . S
C396 C402 1.379 . S
C396 N404 1.356 . S
C397 C396 1.363 . S
C397 C403 1.363 . S
C398 C399 1.363 . S
C398 C403 1.379 . S
C398 N405 1.356 . S
C399 C398 1.363 . S
C399 C402 1.363 . S
N400 C402 1.356 . S
N400 H412 0.984 . S
N400 H413 0.985 . S
N401 C403 1.356 . S
N401 H406 0.984 . S
N401 H407 0.985 . S
C402 C396 1.379 . S
C402 C399 1.363 . S
C402 N400 1.356 . S
C403 C397 1.363 . S
C403 C398 1.379 . S
C403 N401 1.356 . S
N404 C396 1.356 . S
N404 H410 0.984 . S
N404 H411 0.984 . S
N405 C398 1.356 . S
N405 H408 0.984 . S
N405 H409 0.985 . S
H406 N401 0.984 . S
H407 N401 0.985 . S
H408 N405 0.984 . S
H409 N405 0.985 . S
H410 N404 0.984 . S
H411 N404 0.984 . S
H412 N400 0.984 . S
H413 N400 0.985 . S
C414 C415 1.363 . S
C414 C420 1.379 1_655 S
C414 N422 1.356 . S
C415 C414 1.363 . S
C415 C421 1.363 . S
C416 C417 1.363 . S
C416 C421 1.379 1_455 S
C416 N423 1.356 . S
C417 C416 1.363 . S
C417 C420 1.363 . S
N418 C420 1.356 . S
N418 H430 0.984 . S
N418 H431 0.985 . S
N419 C421 1.356 . S
N419 H424 0.984 . S
N419 H425 0.985 . S
C420 C414 1.379 1_455 S
C420 C417 1.363 . S
C420 N418 1.356 . S
C421 C415 1.363 . S
C421 C416 1.379 1_655 S
C421 N419 1.356 . S
N422 C414 1.356 . S
N422 H428 0.984 . S
N422 H429 0.984 . S
N423 C416 1.356 . S
N423 H426 0.984 . S
N423 H427 0.985 . S
H424 N419 0.984 . S
H425 N419 0.985 . S
H426 N423 0.984 . S
H427 N423 0.985 . S
H428 N422 0.984 . S
H429 N422 0.984 . S
H430 N418 0.984 . S
H431 N418 0.985 . S
C432 C433 1.363 . S
C432 C438 1.379 1_545 S
C432 N440 1.356 . S
C433 C432 1.363 . S
C433 C439 1.363 . S
C434 C435 1.363 . S
C434 C439 1.379 1_565 S
C434 N441 1.356 . S
C435 C434 1.363 . S
C435 C438 1.363 . S
N436 C438 1.356 . S
N436 H448 0.984 . S
N436 H449 0.985 . S
N437 C439 1.356 . S
N437 H442 0.984 . S
N437 H443 0.985 . S
C438 C432 1.379 1_565 S
C438 C435 1.363 . S
C438 N436 1.356 . S
C439 C433 1.363 . S
C439 C434 1.379 1_545 S
C439 N437 1.356 . S
N440 C432 1.356 . S
N440 H446 0.984 . S
N440 H447 0.984 . S
N441 C434 1.356 . S
N441 H444 0.984 . S
N441 H445 0.985 . S
H442 N437 0.984 . S
H443 N437 0.985 . S
H444 N441 0.984 . S
H445 N441 0.985 . S
H446 N440 0.984 . S
H447 N440 0.984 . S
H448 N436 0.984 . S
H449 N436 0.985 . S
C450 C451 1.363 . S
C450 C456 1.379 . S
C450 N458 1.356 . S
C451 C450 1.363 . S
C451 C457 1.363 . S
C452 C453 1.363 . S
C452 C457 1.379 . S
C452 N459 1.356 . S
C453 C452 1.363 . S
C453 C456 1.363 . S
N454 C456 1.356 . S
N454 H466 0.984 . S
N454 H467 0.985 . S
N455 C457 1.356 . S
N455 H460 0.984 . S
N455 H461 0.985 . S
C456 C450 1.379 . S
C456 C453 1.363 . S
C456 N454 1.356 . S
C457 C451 1.363 . S
C457 C452 1.379 . S
C457 N455 1.356 . S
N458 C450 1.356 . S
N458 H464 0.984 . S
N458 H465 0.984 . S
N459 C452 1.356 . S
N459 H462 0.984 . S
N459 H463 0.985 . S
H460 N455 0.984 . S
H461 N455 0.985 . S
H462 N459 0.984 . S
H463 N459 0.985 . S
H464 N458 0.984 . S
H465 N458 0.984 . S
H466 N454 0.984 . S
H467 N454 0.985 . S
C468 C469 1.363 . S
C468 C474 1.379 1_455 S
C468 N476 1.356 . S
C469 C468 1.363 . S
C469 C475 1.363 . S
C470 C471 1.363 . S
C470 C475 1.379 1_655 S
C470 N477 1.356 . S
C471 C470 1.363 . S
C471 C474 1.363 . S
N472 C474 1.356 . S
N472 H484 0.984 . S
N472 H485 0.985 . S
N473 C475 1.356 . S
N473 H478 0.984 . S
N473 H479 0.985 . S
C474 C468 1.379 1_655 S
C474 C471 1.363 . S
C474 N472 1.356 . S
C475 C469 1.363 . S
C475 C470 1.379 1_455 S
C475 N473 1.356 . S
N476 C468 1.356 . S
N476 H482 0.984 . S
N476 H483 0.984 . S
N477 C470 1.356 . S
N477 H480 0.984 . S
N477 H481 0.985 . S
H478 N473 0.984 . S
H479 N473 0.985 . S
H480 N477 0.984 . S
H481 N477 0.985 . S
H482 N476 0.984 . S
H483 N476 0.984 . S
H484 N472 0.984 . S
H485 N472 0.985 . S
C486 C487 1.363 . S
C486 C492 1.379 1_565 S
C486 N494 1.356 . S
C487 C486 1.363 . S
C487 C493 1.363 . S
C488 C489 1.363 . S
C488 C493 1.379 1_545 S
C488 N495 1.356 . S
C489 C488 1.363 . S
C489 C492 1.363 . S
N490 C492 1.356 . S
N490 H502 0.984 . S
N490 H503 0.985 . S
N491 C493 1.356 . S
N491 H496 0.984 . S
N491 H497 0.985 . S
C492 C486 1.379 1_545 S
C492 C489 1.363 . S
C492 N490 1.356 . S
C493 C487 1.363 . S
C493 C488 1.379 1_565 S
C493 N491 1.356 . S
N494 C486 1.356 . S
N494 H500 0.984 . S
N494 H501 0.984 . S
N495 C488 1.356 . S
N495 H498 0.984 . S
N495 H499 0.985 . S
H496 N491 0.984 . S
H497 N491 0.985 . S
H498 N495 0.984 . S
H499 N495 0.985 . S
H500 N494 0.984 . S
H501 N494 0.984 . S
H502 N490 0.984 . S
H503 N490 0.985 . S
C504 C505 1.363 . S
C504 C510 1.379 1_556 S
C504 N512 1.356 . S
C505 C504 1.363 . S
C505 C511 1.363 . S
C506 C507 1.363 . S
C506 C511 1.379 1_554 S
C506 N513 1.356 . S
C507 C506 1.363 . S
C507 C510 1.363 . S
N508 C510 1.356 . S
N508 H520 0.984 . S
N508 H521 0.985 . S
N509 C511 1.356 . S
N509 H514 0.984 . S
N509 H515 0.985 . S
C510 C504 1.379 1_554 S
C510 C507 1.363 . S
C510 N508 1.356 . S
C511 C505 1.363 . S
C511 C506 1.379 1_556 S
C511 N509 1.356 . S
N512 C504 1.356 . S
N512 H518 0.984 . S
N512 H519 0.984 . S
N513 C506 1.356 . S
N513 H516 0.984 . S
N513 H517 0.985 . S
H514 N509 0.984 . S
H515 N509 0.985 . S
H516 N513 0.984 . S
H517 N513 0.985 . S
H518 N512 0.984 . S
H519 N512 0.984 . S
H520 N508 0.984 . S
H521 N508 0.985 . S
C522 C523 1.363 . S
C522 C528 1.379 . S
C522 N530 1.356 . S
C523 C522 1.363 . S
C523 C529 1.363 . S
C524 C525 1.363 . S
C524 C529 1.379 . S
C524 N531 1.356 . S
C525 C524 1.363 . S
C525 C528 1.363 . S
N526 C528 1.356 . S
N526 H538 0.984 . S
N526 H539 0.985 . S
N527 C529 1.356 . S
N527 H532 0.984 . S
N527 H533 0.985 . S
C528 C522 1.379 . S
C528 C525 1.363 . S
C528 N526 1.356 . S
C529 C523 1.363 . S
C529 C524 1.379 . S
C529 N527 1.356 . S
N530 C522 1.356 . S
N530 H536 0.984 . S
N530 H537 0.984 . S
N531 C524 1.356 . S
N531 H534 0.984 . S
N531 H535 0.985 . S
H532 N527 0.984 . S
H533 N527 0.985 . S
H534 N531 0.984 . S
H535 N531 0.985 . S
H536 N530 0.984 . S
H537 N530 0.984 . S
H538 N526 0.984 . S
H539 N526 0.985 . S
C540 C541 1.363 . S
C540 C546 1.379 1_554 S
C540 N548 1.356 . S
C541 C540 1.363 . S
C541 C547 1.363 . S
C542 C543 1.363 . S
C542 C547 1.379 1_556 S
C542 N549 1.356 . S
C543 C542 1.363 . S
C543 C546 1.363 . S
N544 C546 1.356 . S
N544 H556 0.984 . S
N544 H557 0.985 . S
N545 C547 1.356 . S
N545 H550 0.984 . S
N545 H551 0.985 . S
C546 C540 1.379 1_556 S
C546 C543 1.363 . S
C546 N544 1.356 . S
C547 C541 1.363 . S
C547 C542 1.379 1_554 S
C547 N545 1.356 . S
N548 C540 1.356 . S
N548 H554 0.984 . S
N548 H555 0.984 . S
N549 C542 1.356 . S
N549 H552 0.984 . S
N549 H553 0.985 . S
H550 N545 0.984 . S
H551 N545 0.985 . S
H552 N549 0.984 . S
H553 N549 0.985 . S
H554 N548 0.984 . S
H555 N548 0.984 . S
H556 N544 0.984 . S
H557 N544 0.985 . S
C558 C559 1.363 . S
C558 C564 1.379 . S
C558 N566 1.356 . S
C559 C558 1.363 . S
C559 C565 1.363 . S
C560 C561 1.363 . S
C560 C565 1.379 . S
C560 N567 1.356 . S
C561 C560 1.363 . S
C561 C564 1.363 . S
N562 C564 1.356 . S
N562 H574 0.984 . S
N562 H575 0.985 . S
N563 C565 1.356 . S
N563 H568 0.984 . S
N563 H569 0.985 . S
C564 C558 1.379 . S
C564 C561 1.363 . S
C564 N562 1.356 . S
C565 C559 1.363 . S
C565 C560 1.379 . S
C565 N563 1.356 . S
N566 C558 1.356 . S
N566 H572 0.984 . S
N566 H573 0.984 . S
N567 C560 1.356 . S
N567 H570 0.984 . S
N567 H571 0.985 . S
H568 N563 0.984 . S
H569 N563 0.985 . S
H570 N567 0.984 . S
H571 N567 0.985 . S
H572 N566 0.984 . S
H573 N566 0.984 . S
H574 N562 0.984 . S
H575 N562 0.985 . S
C576 C577 1.363 . S
C576 C582 1.379 1_556 S
C576 N584 1.356 . S
C577 C576 1.363 . S
C577 C583 1.363 . S
C578 C579 1.363 . S
C578 C583 1.379 1_554 S
C578 N585 1.356 . S
C579 C578 1.363 . S
C579 C582 1.363 . S
N580 C582 1.356 . S
N580 H592 0.984 . S
N580 H593 0.985 . S
N581 C583 1.356 . S
N581 H586 0.984 . S
N581 H587 0.985 . S
C582 C576 1.379 1_554 S
C582 C579 1.363 . S
C582 N580 1.356 . S
C583 C577 1.363 . S
C583 C578 1.379 1_556 S
C583 N581 1.356 . S
N584 C576 1.356 . S
N584 H590 0.984 . S
N584 H591 0.984 . S
N585 C578 1.356 . S
N585 H588 0.984 . S
N585 H589 0.985 . S
H586 N581 0.984 . S
H587 N581 0.985 . S
H588 N585 0.984 . S
H589 N585 0.985 . S
H590 N584 0.984 . S
H591 N584 0.984 . S
H592 N580 0.984 . S
H593 N580 0.985 . S
C594 C595 1.363 . S
C594 C600 1.379 . S
C594 N602 1.356 . S
C595 C594 1.363 . S
C595 C601 1.363 . S
C596 C597 1.363 . S
C596 C601 1.379 . S
C596 N603 1.356 . S
C597 C596 1.363 . S
C597 C600 1.363 . S
N598 C600 1.356 . S
N598 H610 0.984 . S
N598 H611 0.985 . S
N599 C601 1.356 . S
N599 H604 0.984 . S
N599 H605 0.985 . S
C600 C594 1.379 . S
C600 C597 1.363 . S
C600 N598 1.356 . S
C601 C595 1.363 . S
C601 C596 1.379 . S
C601 N599 1.356 . S
N602 C594 1.356 . S
N602 H608 0.984 . S
N602 H609 0.984 . S
N603 C596 1.356 . S
N603 H606 0.984 . S
N603 H607 0.985 . S
H604 N599 0.984 . S
H605 N599 0.985 . S
H606 N603 0.984 . S
H607 N603 0.985 . S
H608 N602 0.984 . S
H609 N602 0.984 . S
H610 N598 0.984 . S
H611 N598 0.985 . S
C612 C613 1.363 . S
C612 C618 1.379 1_554 S
C612 N620 1.356 . S
C613 C612 1.363 . S
C613 C619 1.363 . S
C614 C615 1.363 . S
C614 C619 1.379 1_556 S
C614 N621 1.356 . S
C615 C614 1.363 . S
C615 C618 1.363 . S
N616 C618 1.356 . S
N616 H628 0.984 . S
N616 H629 0.985 . S
N617 C619 1.356 . S
N617 H622 0.984 . S
N617 H623 0.985 . S
C618 C612 1.379 1_556 S
C618 C615 1.363 . S
C618 N616 1.356 . S
C619 C613 1.363 . S
C619 C614 1.379 1_554 S
C619 N617 1.356 . S
N620 C612 1.356 . S
N620 H626 0.984 . S
N620 H627 0.984 . S
N621 C614 1.356 . S
N621 H624 0.984 . S
N621 H625 0.985 . S
H622 N617 0.984 . S
H623 N617 0.985 . S
H624 N621 0.984 . S
H625 N621 0.985 . S
H626 N620 0.984 . S
H627 N620 0.984 . S
H628 N616 0.984 . S
H629 N616 0.985 . S
C630 C631 1.363 . S
C630 C636 1.379 . S
C630 N638 1.356 . S
C631 C630 1.363 . S
C631 C637 1.363 . S
C632 C633 1.363 . S
C632 C637 1.379 . S
C632 N639 1.356 . S
C633 C632 1.363 . S
C633 C636 1.363 . S
N634 C636 1.356 . S
N634 H646 0.984 . S
N634 H647 0.985 . S
N635 C637 1.356 . S
N635 H640 0.984 . S
N635 H641 0.985 . S
C636 C630 1.379 . S
C636 C633 1.363 . S
C636 N634 1.356 . S
C637 C631 1.363 . S
C637 C632 1.379 . S
C637 N635 1.356 . S
N638 C630 1.356 . S
N638 H644 0.984 . S
N638 H645 0.984 . S
N639 C632 1.356 . S
N639 H642 0.984 . S
N639 H643 0.985 . S
H640 N635 0.984 . S
H641 N635 0.985 . S
H642 N639 0.984 . S
H643 N639 0.985 . S
H644 N638 0.984 . S
H645 N638 0.984 . S
H646 N634 0.984 . S
H647 N634 0.985 . S
C648 C649 1.363 . S
C648 C654 1.379 1_556 S
C648 N656 1.356 . S
C649 C648 1.363 . S
C649 C655 1.363 . S
C650 C651 1.363 . S
C650 C655 1.379 1_554 S
C650 N657 1.356 . S
C651 C650 1.363 . S
C651 C654 1.363 . S
N652 C654 1.356 . S
N652 H664 0.984 . S
N652 H665 0.985 . S
N653 C655 1.356 . S
N653 H658 0.984 . S
N653 H659 0.985 . S
C654 C648 1.379 1_554 S
C654 C651 1.363 . S
C654 N652 1.356 . S
C655 C649 1.363 . S
C655 C650 1.379 1_556 S
C655 N653 1.356 . S
N656 C648 1.356 . S
N656 H662 0.984 . S
N656 H663 0.984 . S
N657 C650 1.356 . S
N657 H660 0.984 . S
N657 H661 0.985 . S
H658 N653 0.984 . S
H659 N653 0.985 . S
H660 N657 0.984 . S
H661 N657 0.985 . S
H662 N656 0.984 . S
H663 N656 0.984 . S
H664 N652 0.984 . S
H665 N652 0.985 . S
C666 C667 1.363 . S
C666 C672 1.379 . S
C666 N674 1.356 . S
C667 C666 1.363 . S
C667 C673 1.363 . S
C668 C669 1.363 . S
C668 C673 1.379 . S
C668 N675 1.356 . S
C669 C668 1.363 . S
C669 C672 1.363 . S
N670 C672 1.356 . S
N670 H682 0.984 . S
N670 H683 0.985 . S
N671 C673 1.356 . S
N671 H676 0.984 . S
N671 H677 0.985 . S
C672 C666 1.379 . S
C672 C669 1.363 . S
C672 N670 1.356 . S
C673 C667 1.363 . S
C673 C668 1.379 . S
C673 N671 1.356 . S
N674 C666 1.356 . S
N674 H680 0.984 . S
N674 H681 0.984 . S
N675 C668 1.356 . S
N675 H678 0.984 . S
N675 H679 0.985 . S
H676 N671 0.984 . S
H677 N671 0.985 . S
H678 N675 0.984 . S
H679 N675 0.985 . S
H680 N674 0.984 . S
H681 N674 0.984 . S
H682 N670 0.984 . S
H683 N670 0.985 . S
C684 C685 1.363 . S
C684 C690 1.379 1_556 S
C684 N692 1.356 . S
C685 C684 1.363 . S
C685 C691 1.363 . S
C686 C687 1.363 . S
C686 C691 1.379 1_554 S
C686 N693 1.356 . S
C687 C686 1.363 . S
C687 C690 1.363 . S
N688 C690 1.356 . S
N688 H700 0.984 . S
N688 H701 0.985 . S
N689 C691 1.356 . S
N689 H694 0.984 . S
N689 H695 0.985 . S
C690 C684 1.379 1_554 S
C690 C687 1.363 . S
C690 N688 1.356 . S
C691 C685 1.363 . S
C691 C686 1.379 1_556 S
C691 N689 1.356 . S
N692 C684 1.356 . S
N692 H698 0.984 . S
N692 H699 0.984 . S
N693 C686 1.356 . S
N693 H696 0.984 . S
N693 H697 0.985 . S
H694 N689 0.984 . S
H695 N689 0.985 . S
H696 N693 0.984 . S
H697 N693 0.985 . S
H698 N692 0.984 . S
H699 N692 0.984 . S
H700 N688 0.984 . S
H701 N688 0.985 . S
C702 C703 1.363 . S
C702 C708 1.379 . S
C702 N710 1.356 . S
C703 C702 1.363 . S
C703 C709 1.363 . S
C704 C705 1.363 . S
C704 C709 1.379 . S
C704 N711 1.356 . S
C705 C704 1.363 . S
C705 C708 1.363 . S
N706 C708 1.356 . S
N706 H718 0.984 . S
N706 H719 0.985 . S
N707 C709 1.356 . S
N707 H712 0.984 . S
N707 H713 0.985 . S
C708 C702 1.379 . S
C708 C705 1.363 . S
C708 N706 1.356 . S
C709 C703 1.363 . S
C709 C704 1.379 . S
C709 N707 1.356 . S
N710 C702 1.356 . S
N710 H716 0.984 . S
N710 H717 0.984 . S
N711 C704 1.356 . S
N711 H714 0.984 . S
N711 H715 0.985 . S
H712 N707 0.984 . S
H713 N707 0.985 . S
H714 N711 0.984 . S
H715 N711 0.985 . S
H716 N710 0.984 . S
H717 N710 0.984 . S
H718 N706 0.984 . S
H719 N706 0.985 . S
C720 C721 1.363 . S
C720 C726 1.379 . S
C720 N728 1.356 . S
C721 C720 1.363 . S
C721 C727 1.363 . S
C722 C723 1.363 . S
C722 C727 1.379 . S
C722 N729 1.356 . S
C723 C722 1.363 . S
C723 C726 1.363 . S
N724 C726 1.356 . S
N724 H736 0.984 . S
N724 H737 0.985 . S
N725 C727 1.356 . S
N725 H730 0.984 . S
N725 H731 0.985 . S
C726 C720 1.379 . S
C726 C723 1.363 . S
C726 N724 1.356 . S
C727 C721 1.363 . S
C727 C722 1.379 . S
C727 N725 1.356 . S
N728 C720 1.356 . S
N728 H734 0.984 . S
N728 H735 0.984 . S
N729 C722 1.356 . S
N729 H732 0.984 . S
N729 H733 0.985 . S
H730 N725 0.984 . S
H731 N725 0.985 . S
H732 N729 0.984 . S
H733 N729 0.985 . S
H734 N728 0.984 . S
H735 N728 0.984 . S
H736 N724 0.984 . S
H737 N724 0.985 . S
C738 C739 1.363 . S
C738 C744 1.379 . S
C738 N746 1.356 . S
C739 C738 1.363 . S
C739 C745 1.363 . S
C740 C741 1.363 . S
C740 C745 1.379 . S
C740 N747 1.356 . S
C741 C740 1.363 . S
C741 C744 1.363 . S
N742 C744 1.356 . S
N742 H754 0.984 . S
N742 H755 0.985 . S
N743 C745 1.356 . S
N743 H748 0.984 . S
N743 H749 0.985 . S
C744 C738 1.379 . S
C744 C741 1.363 . S
C744 N742 1.356 . S
C745 C739 1.363 . S
C745 C740 1.379 . S
C745 N743 1.356 . S
N746 C738 1.356 . S
N746 H752 0.984 . S
N746 H753 0.984 . S
N747 C740 1.356 . S
N747 H750 0.984 . S
N747 H751 0.985 . S
H748 N743 0.984 . S
H749 N743 0.985 . S
H750 N747 0.984 . S
H751 N747 0.985 . S
H752 N746 0.984 . S
H753 N746 0.984 . S
H754 N742 0.984 . S
H755 N742 0.985 . S
C756 C757 1.363 . S
C756 C762 1.379 . S
C756 N764 1.356 . S
C757 C756 1.363 . S
C757 C763 1.363 . S
C758 C759 1.363 . S
C758 C763 1.379 . S
C758 N765 1.356 . S
C759 C758 1.363 . S
C759 C762 1.363 . S
N760 C762 1.356 . S
N760 H772 0.984 . S
N760 H773 0.985 . S
N761 C763 1.356 . S
N761 H766 0.984 . S
N761 H767 0.985 . S
C762 C756 1.379 . S
C762 C759 1.363 . S
C762 N760 1.356 . S
C763 C757 1.363 . S
C763 C758 1.379 . S
C763 N761 1.356 . S
N764 C756 1.356 . S
N764 H770 0.984 . S
N764 H771 0.984 . S
N765 C758 1.356 . S
N765 H768 0.984 . S
N765 H769 0.985 . S
H766 N761 0.984 . S
H767 N761 0.985 . S
H768 N765 0.984 . S
H769 N765 0.985 . S
H770 N764 0.984 . S
H771 N764 0.984 . S
H772 N760 0.984 . S
H773 N760 0.985 . S
C774 C775 1.363 . S
C774 C780 1.379 . S
C774 N782 1.356 . S
C775 C774 1.363 . S
C775 C781 1.363 . S
C776 C777 1.363 . S
C776 C781 1.379 . S
C776 N783 1.356 . S
C777 C776 1.363 . S
C777 C780 1.363 . S
N778 C780 1.356 . S
N778 H790 0.984 . S
N778 H791 0.985 . S
N779 C781 1.356 . S
N779 H784 0.984 . S
N779 H785 0.985 . S
C780 C774 1.379 . S
C780 C777 1.363 . S
C780 N778 1.356 . S
C781 C775 1.363 . S
C781 C776 1.379 . S
C781 N779 1.356 . S
N782 C774 1.356 . S
N782 H788 0.984 . S
N782 H789 0.984 . S
N783 C776 1.356 . S
N783 H786 0.984 . S
N783 H787 0.985 . S
H784 N779 0.984 . S
H785 N779 0.985 . S
H786 N783 0.984 . S
H787 N783 0.985 . S
H788 N782 0.984 . S
H789 N782 0.984 . S
H790 N778 0.984 . S
H791 N778 0.985 . S
C792 C793 1.363 . S
C792 C798 1.379 . S
C792 N800 1.356 . S
C793 C792 1.363 . S
C793 C799 1.363 . S
C794 C795 1.363 . S
C794 C799 1.379 . S
C794 N801 1.356 . S
C795 C794 1.363 . S
C795 C798 1.363 . S
N796 C798 1.356 . S
N796 H808 0.984 . S
N796 H809 0.985 . S
N797 C799 1.356 . S
N797 H802 0.984 . S
N797 H803 0.985 . S
C798 C792 1.379 . S
C798 C795 1.363 . S
C798 N796 1.356 . S
C799 C793 1.363 . S
C799 C794 1.379 . S
C799 N797 1.356 . S
N800 C792 1.356 . S
N800 H806 0.984 . S
N800 H807 0.984 . S
N801 C794 1.356 . S
N801 H804 0.984 . S
N801 H805 0.985 . S
H802 N797 0.984 . S
H803 N797 0.985 . S
H804 N801 0.984 . S
H805 N801 0.985 . S
H806 N800 0.984 . S
H807 N800 0.984 . S
H808 N796 0.984 . S
H809 N796 0.985 . S
C810 C811 1.363 . S
C810 C816 1.379 . S
C810 N818 1.356 . S
C811 C810 1.363 . S
C811 C817 1.363 . S
C812 C813 1.363 . S
C812 C817 1.379 . S
C812 N819 1.356 . S
C813 C812 1.363 . S
C813 C816 1.363 . S
N814 C816 1.356 . S
N814 H826 0.984 . S
N814 H827 0.985 . S
N815 C817 1.356 . S
N815 H820 0.984 . S
N815 H821 0.985 . S
C816 C810 1.379 . S
C816 C813 1.363 . S
C816 N814 1.356 . S
C817 C811 1.363 . S
C817 C812 1.379 . S
C817 N815 1.356 . S
N818 C810 1.356 . S
N818 H824 0.984 . S
N818 H825 0.984 . S
N819 C812 1.356 . S
N819 H822 0.984 . S
N819 H823 0.985 . S
H820 N815 0.984 . S
H821 N815 0.985 . S
H822 N819 0.984 . S
H823 N819 0.985 . S
H824 N818 0.984 . S
H825 N818 0.984 . S
H826 N814 0.984 . S
H827 N814 0.985 . S
C828 C829 1.363 . S
C828 C834 1.379 . S
C828 N836 1.356 . S
C829 C828 1.363 . S
C829 C835 1.363 . S
C830 C831 1.363 . S
C830 C835 1.379 . S
C830 N837 1.356 . S
C831 C830 1.363 . S
C831 C834 1.363 . S
N832 C834 1.356 . S
N832 H844 0.984 . S
N832 H845 0.985 . S
N833 C835 1.356 . S
N833 H838 0.984 . S
N833 H839 0.985 . S
C834 C828 1.379 . S
C834 C831 1.363 . S
C834 N832 1.356 . S
C835 C829 1.363 . S
C835 C830 1.379 . S
C835 N833 1.356 . S
N836 C828 1.356 . S
N836 H842 0.984 . S
N836 H843 0.984 . S
N837 C830 1.356 . S
N837 H840 0.984 . S
N837 H841 0.985 . S
H838 N833 0.984 . S
H839 N833 0.985 . S
H840 N837 0.984 . S
H841 N837 0.985 . S
H842 N836 0.984 . S
H843 N836 0.984 . S
H844 N832 0.984 . S
H845 N832 0.985 . S
C846 C847 1.363 . S
C846 C852 1.379 . S
C846 N854 1.356 . S
C847 C846 1.363 . S
C847 C853 1.363 . S
C848 C849 1.363 . S
C848 C853 1.379 . S
C848 N855 1.356 . S
C849 C848 1.363 . S
C849 C852 1.363 . S
N850 C852 1.356 . S
N850 H862 0.984 . S
N850 H863 0.985 . S
N851 C853 1.356 . S
N851 H856 0.984 . S
N851 H857 0.985 . S
C852 C846 1.379 . S
C852 C849 1.363 . S
C852 N850 1.356 . S
C853 C847 1.363 . S
C853 C848 1.379 . S
C853 N851 1.356 . S
N854 C846 1.356 . S
N854 H860 0.984 . S
N854 H861 0.984 . S
N855 C848 1.356 . S
N855 H858 0.984 . S
N855 H859 0.985 . S
H856 N851 0.984 . S
H857 N851 0.985 . S
H858 N855 0.984 . S
H859 N855 0.985 . S
H860 N854 0.984 . S
H861 N854 0.984 . S
H862 N850 0.984 . S
H863 N850 0.985 . S
C864 C865 1.363 . S
C864 C870 1.379 . S
C864 N872 1.356 . S
C865 C864 1.363 . S
C865 C871 1.363 . S
C866 C867 1.363 . S
C866 C871 1.379 . S
C866 N873 1.356 . S
C867 C866 1.363 . S
C867 C870 1.363 . S
N868 C870 1.356 . S
N868 H880 0.984 . S
N868 H881 0.985 . S
N869 C871 1.356 . S
N869 H874 0.984 . S
N869 H875 0.985 . S
C870 C864 1.379 . S
C870 C867 1.363 . S
C870 N868 1.356 . S
C871 C865 1.363 . S
C871 C866 1.379 . S
C871 N869 1.356 . S
N872 C864 1.356 . S
N872 H878 0.984 . S
N872 H879 0.984 . S
N873 C866 1.356 . S
N873 H876 0.984 . S
N873 H877 0.985 . S
H874 N869 0.984 . S
H875 N869 0.985 . S
H876 N873 0.984 . S
H877 N873 0.985 . S
H878 N872 0.984 . S
H879 N872 0.984 . S
H880 N868 0.984 . S
H881 N868 0.985 . S
C882 C883 1.363 . S
C882 C888 1.379 . S
C882 N890 1.356 . S
C883 C882 1.363 . S
C883 C889 1.363 . S
C884 C885 1.363 . S
C884 C889 1.379 . S
C884 N891 1.356 . S
C885 C884 1.363 . S
C885 C888 1.363 . S
N886 C888 1.356 . S
N886 H898 0.984 . S
N886 H899 0.985 . S
N887 C889 1.356 . S
N887 H892 0.984 . S
N887 H893 0.985 . S
C888 C882 1.379 . S
C888 C885 1.363 . S
C888 N886 1.356 . S
C889 C883 1.363 . S
C889 C884 1.379 . S
C889 N887 1.356 . S
N890 C882 1.356 . S
N890 H896 0.984 . S
N890 H897 0.984 . S
N891 C884 1.356 . S
N891 H894 0.984 . S
N891 H895 0.985 . S
H892 N887 0.984 . S
H893 N887 0.985 . S
H894 N891 0.984 . S
H895 N891 0.985 . S
H896 N890 0.984 . S
H897 N890 0.984 . S
H898 N886 0.984 . S
H899 N886 0.985 . S
C900 C901 1.363 . S
C900 C906 1.379 . S
C900 N908 1.356 . S
C901 C900 1.363 . S
C901 C907 1.363 . S
C902 C903 1.363 . S
C902 C907 1.379 . S
C902 N909 1.356 . S
C903 C902 1.363 . S
C903 C906 1.363 . S
N904 C906 1.356 . S
N904 H916 0.984 . S
N904 H917 0.985 . S
N905 C907 1.356 . S
N905 H910 0.984 . S
N905 H911 0.985 . S
C906 C900 1.379 . S
C906 C903 1.363 . S
C906 N904 1.356 . S
C907 C901 1.363 . S
C907 C902 1.379 . S
C907 N905 1.356 . S
N908 C900 1.356 . S
N908 H914 0.984 . S
N908 H915 0.984 . S
N909 C902 1.356 . S
N909 H912 0.984 . S
N909 H913 0.985 . S
H910 N905 0.984 . S
H911 N905 0.985 . S
H912 N909 0.984 . S
H913 N909 0.985 . S
H914 N908 0.984 . S
H915 N908 0.984 . S
H916 N904 0.984 . S
H917 N904 0.985 . S
C918 C919 1.363 . S
C918 C924 1.379 . S
C918 N926 1.356 . S
C919 C918 1.363 . S
C919 C925 1.363 . S
C920 C921 1.363 . S
C920 C925 1.379 . S
C920 N927 1.356 . S
C921 C920 1.363 . S
C921 C924 1.363 . S
N922 C924 1.356 . S
N922 H934 0.984 . S
N922 H935 0.985 . S
N923 C925 1.356 . S
N923 H928 0.984 . S
N923 H929 0.985 . S
C924 C918 1.379 . S
C924 C921 1.363 . S
C924 N922 1.356 . S
C925 C919 1.363 . S
C925 C920 1.379 . S
C925 N923 1.356 . S
N926 C918 1.356 . S
N926 H932 0.984 . S
N926 H933 0.984 . S
N927 C920 1.356 . S
N927 H930 0.984 . S
N927 H931 0.985 . S
H928 N923 0.984 . S
H929 N923 0.985 . S
H930 N927 0.984 . S
H931 N927 0.985 . S
H932 N926 0.984 . S
H933 N926 0.984 . S
H934 N922 0.984 . S
H935 N922 0.985 . S
C397 N302 1.739 . S
C399 N5 1.739 . S
C415 N38 1.738 . S
C417 N335 1.738 . S
C433 N368 1.739 . S
C435 N71 1.738 . S
C451 N104 1.739 . S
C453 N203 1.739 . S
C469 N137 1.738 . S
C471 N236 1.738 . S
C487 N269 1.739 . S
C489 N170 1.738 . S
C505 C347 1.343 . S
C507 C17 1.343 . S
C523 C380 1.344 . S
C525 C50 1.343 . S
C541 C83 1.343 . S
C543 C215 1.343 . S
C559 C248 1.343 . S
C561 C116 1.343 . S
C577 C281 1.344 . S
C579 C149 1.343 . S
C595 C182 1.343 . S
C597 C314 1.343 . S
C613 C259 1.616 . S
C615 C127 1.616 . S
C631 C292 1.616 . S
C633 C160 1.616 . S
C649 C193 1.616 . S
C651 C325 1.616 . S
C667 C28 1.616 . S
C669 C358 1.616 . S
C685 C61 1.616 . S
C687 C391 1.616 . S
C703 C226 1.616 . S
C705 C94 1.616 . S
C721 N14 1.497 . S
C723 C140 1.496 . S
C739 N47 1.496 . S
C741 C173 1.496 . S
C757 N80 1.497 . S
C759 C8 1.496 . S
C775 C41 1.496 . S
C777 N113 1.497 . S
C793 N146 1.496 . S
C795 C74 1.496 . S
C811 C107 1.496 . S
C813 N179 1.497 . S
C829 C272 1.496 . S
C831 N212 1.496 . S
C847 C305 1.496 . S
C849 N245 1.497 . S
C865 C338 1.496 . S
C867 N278 1.496 . S
C883 N311 1.496 . S
C885 C371 1.496 . S
C901 C206 1.496 . S
C903 N344 1.497 . S
C919 N377 1.496 . S
C921 C239 1.496 . S
