# Generated by pormake.
# Topology som, (6)-cn, num edge types: 1
# Building blocks:
#     Node 0, Type 0, BuildingBlock: CUWYAW_clean_sbu_0, # of connection points: 6
#     Node 1, Type 0, BuildingBlock: CUWYAW_clean_sbu_0, # of connection points: 6
#     Node 2, Type 0, BuildingBlock: CUWYAW_clean_sbu_0, # of connection points: 6
#     Node 3, Type 0, BuildingBlock: CUWYAW_clean_sbu_0, # of connection points: 6
#     Node 4, Type 0, BuildingBlock: CUWYAW_clean_sbu_0, # of connection points: 6
#     Node 5, Type 0, BuildingBlock: CUWYAW_clean_sbu_0, # of connection points: 6
#     Node 6, Type 0, BuildingBlock: CUWYAW_clean_sbu_0, # of connection points: 6
#     Node 7, Type 0, BuildingBlock: CUWYAW_clean_sbu_0, # of connection points: 6
#     Node 8, Type 0, BuildingBlock: CUWYAW_clean_sbu_0, # of connection points: 6
#     Node 9, Type 0, BuildingBlock: CUWYAW_clean_sbu_0, # of connection points: 6
#     Node 10, Type 0, BuildingBlock: CUWYAW_clean_sbu_0, # of connection points: 6
#     Node 11, Type 0, BuildingBlock: CUWYAW_clean_sbu_0, # of connection points: 6
#     Node 12, Type 0, BuildingBlock: CUWYAW_clean_sbu_0, # of connection points: 6
#     Node 13, Type 0, BuildingBlock: CUWYAW_clean_sbu_0, # of connection points: 6
#     Node 14, Type 0, BuildingBlock: CUWYAW_clean_sbu_0, # of connection points: 6
#     Node 15, Type 0, BuildingBlock: CUWYAW_clean_sbu_0, # of connection points: 6
#     Node 16, Type 0, BuildingBlock: CUWYAW_clean_sbu_0, # of connection points: 6
#     Node 17, Type 0, BuildingBlock: CUWYAW_clean_sbu_0, # of connection points: 6
#     Node 18, Type 0, BuildingBlock: CUWYAW_clean_sbu_0, # of connection points: 6
#     Node 19, Type 0, BuildingBlock: CUWYAW_clean_sbu_0, # of connection points: 6
#     Node 20, Type 0, BuildingBlock: CUWYAW_clean_sbu_0, # of connection points: 6
#     Node 21, Type 0, BuildingBlock: CUWYAW_clean_sbu_0, # of connection points: 6
#     Node 22, Type 0, BuildingBlock: CUWYAW_clean_sbu_0, # of connection points: 6
#     Node 23, Type 0, BuildingBlock: CUWYAW_clean_sbu_0, # of connection points: 6
#     Node 24, Type 0, BuildingBlock: CUWYAW_clean_sbu_0, # of connection points: 6
#     Node 25, Type 0, BuildingBlock: CUWYAW_clean_sbu_0, # of connection points: 6
#     Node 26, Type 0, BuildingBlock: CUWYAW_clean_sbu_0, # of connection points: 6
#     Node 27, Type 0, BuildingBlock: CUWYAW_clean_sbu_0, # of connection points: 6
#     Node 28, Type 0, BuildingBlock: CUWYAW_clean_sbu_0, # of connection points: 6
#     Node 29, Type 0, BuildingBlock: CUWYAW_clean_sbu_0, # of connection points: 6
#     Node 30, Type 0, BuildingBlock: CUWYAW_clean_sbu_0, # of connection points: 6
#     Node 31, Type 0, BuildingBlock: CUWYAW_clean_sbu_0, # of connection points: 6
#     Edge 32, Type (0, 0), BuildingBlock: KIFKEQ_clean_linker_1, # of connection points: 2
#     Edge 33, Type (0, 0), BuildingBlock: KIFKEQ_clean_linker_1, # of connection points: 2
#     Edge 34, Type (0, 0), BuildingBlock: KIFKEQ_clean_linker_1, # of connection points: 2
#     Edge 35, Type (0, 0), BuildingBlock: KIFKEQ_clean_linker_1, # of connection points: 2
#     Edge 36, Type (0, 0), BuildingBlock: KIFKEQ_clean_linker_1, # of connection points: 2
#     Edge 37, Type (0, 0), BuildingBlock: KIFKEQ_clean_linker_1, # of connection points: 2
#     Edge 38, Type (0, 0), BuildingBlock: KIFKEQ_clean_linker_1, # of connection points: 2
#     Edge 39, Type (0, 0), BuildingBlock: KIFKEQ_clean_linker_1, # of connection points: 2
#     Edge 40, Type (0, 0), BuildingBlock: KIFKEQ_clean_linker_1, # of connection points: 2
#     Edge 41, Type (0, 0), BuildingBlock: KIFKEQ_clean_linker_1, # of connection points: 2
#     Edge 42, Type (0, 0), BuildingBlock: KIFKEQ_clean_linker_1, # of connection points: 2
#     Edge 43, Type (0, 0), BuildingBlock: KIFKEQ_clean_linker_1, # of connection points: 2
#     Edge 44, Type (0, 0), BuildingBlock: KIFKEQ_clean_linker_1, # of connection points: 2
#     Edge 45, Type (0, 0), BuildingBlock: KIFKEQ_clean_linker_1, # of connection points: 2
#     Edge 46, Type (0, 0), BuildingBlock: KIFKEQ_clean_linker_1, # of connection points: 2
#     Edge 47, Type (0, 0), BuildingBlock: KIFKEQ_clean_linker_1, # of connection points: 2
#     Edge 48, Type (0, 0), BuildingBlock: KIFKEQ_clean_linker_1, # of connection points: 2
#     Edge 49, Type (0, 0), BuildingBlock: KIFKEQ_clean_linker_1, # of connection points: 2
#     Edge 50, Type (0, 0), BuildingBlock: KIFKEQ_clean_linker_1, # of connection points: 2
#     Edge 51, Type (0, 0), BuildingBlock: KIFKEQ_clean_linker_1, # of connection points: 2
#     Edge 52, Type (0, 0), BuildingBlock: KIFKEQ_clean_linker_1, # of connection points: 2
#     Edge 53, Type (0, 0), BuildingBlock: KIFKEQ_clean_linker_1, # of connection points: 2
#     Edge 54, Type (0, 0), BuildingBlock: KIFKEQ_clean_linker_1, # of connection points: 2
#     Edge 55, Type (0, 0), BuildingBlock: KIFKEQ_clean_linker_1, # of connection points: 2
#     Edge 56, Type (0, 0), BuildingBlock: KIFKEQ_clean_linker_1, # of connection points: 2
#     Edge 57, Type (0, 0), BuildingBlock: KIFKEQ_clean_linker_1, # of connection points: 2
#     Edge 58, Type (0, 0), BuildingBlock: KIFKEQ_clean_linker_1, # of connection points: 2
#     Edge 59, Type (0, 0), BuildingBlock: KIFKEQ_clean_linker_1, # of connection points: 2
#     Edge 60, Type (0, 0), BuildingBlock: KIFKEQ_clean_linker_1, # of connection points: 2
#     Edge 61, Type (0, 0), BuildingBlock: KIFKEQ_clean_linker_1, # of connection points: 2
#     Edge 62, Type (0, 0), BuildingBlock: KIFKEQ_clean_linker_1, # of connection points: 2
#     Edge 63, Type (0, 0), BuildingBlock: KIFKEQ_clean_linker_1, # of connection points: 2
#     Edge 64, Type (0, 0), BuildingBlock: KIFKEQ_clean_linker_1, # of connection points: 2
#     Edge 65, Type (0, 0), BuildingBlock: KIFKEQ_clean_linker_1, # of connection points: 2
#     Edge 66, Type (0, 0), BuildingBlock: KIFKEQ_clean_linker_1, # of connection points: 2
#     Edge 67, Type (0, 0), BuildingBlock: KIFKEQ_clean_linker_1, # of connection points: 2
#     Edge 68, Type (0, 0), BuildingBlock: KIFKEQ_clean_linker_1, # of connection points: 2
#     Edge 69, Type (0, 0), BuildingBlock: KIFKEQ_clean_linker_1, # of connection points: 2
#     Edge 70, Type (0, 0), BuildingBlock: KIFKEQ_clean_linker_1, # of connection points: 2
#     Edge 71, Type (0, 0), BuildingBlock: KIFKEQ_clean_linker_1, # of connection points: 2
#     Edge 72, Type (0, 0), BuildingBlock: KIFKEQ_clean_linker_1, # of connection points: 2
#     Edge 73, Type (0, 0), BuildingBlock: KIFKEQ_clean_linker_1, # of connection points: 2
#     Edge 74, Type (0, 0), BuildingBlock: KIFKEQ_clean_linker_1, # of connection points: 2
#     Edge 75, Type (0, 0), BuildingBlock: KIFKEQ_clean_linker_1, # of connection points: 2
#     Edge 76, Type (0, 0), BuildingBlock: KIFKEQ_clean_linker_1, # of connection points: 2
#     Edge 77, Type (0, 0), BuildingBlock: KIFKEQ_clean_linker_1, # of connection points: 2
#     Edge 78, Type (0, 0), BuildingBlock: KIFKEQ_clean_linker_1, # of connection points: 2
#     Edge 79, Type (0, 0), BuildingBlock: KIFKEQ_clean_linker_1, # of connection points: 2
#     Edge 80, Type (0, 0), BuildingBlock: KIFKEQ_clean_linker_1, # of connection points: 2
#     Edge 81, Type (0, 0), BuildingBlock: KIFKEQ_clean_linker_1, # of connection points: 2
#     Edge 82, Type (0, 0), BuildingBlock: KIFKEQ_clean_linker_1, # of connection points: 2
#     Edge 83, Type (0, 0), BuildingBlock: KIFKEQ_clean_linker_1, # of connection points: 2
#     Edge 84, Type (0, 0), BuildingBlock: KIFKEQ_clean_linker_1, # of connection points: 2
#     Edge 85, Type (0, 0), BuildingBlock: KIFKEQ_clean_linker_1, # of connection points: 2
#     Edge 86, Type (0, 0), BuildingBlock: KIFKEQ_clean_linker_1, # of connection points: 2
#     Edge 87, Type (0, 0), BuildingBlock: KIFKEQ_clean_linker_1, # of connection points: 2
#     Edge 88, Type (0, 0), BuildingBlock: KIFKEQ_clean_linker_1, # of connection points: 2
#     Edge 89, Type (0, 0), BuildingBlock: KIFKEQ_clean_linker_1, # of connection points: 2
#     Edge 90, Type (0, 0), BuildingBlock: KIFKEQ_clean_linker_1, # of connection points: 2
#     Edge 91, Type (0, 0), BuildingBlock: KIFKEQ_clean_linker_1, # of connection points: 2
#     Edge 92, Type (0, 0), BuildingBlock: KIFKEQ_clean_linker_1, # of connection points: 2
#     Edge 93, Type (0, 0), BuildingBlock: KIFKEQ_clean_linker_1, # of connection points: 2
#     Edge 94, Type (0, 0), BuildingBlock: KIFKEQ_clean_linker_1, # of connection points: 2
#     Edge 95, Type (0, 0), BuildingBlock: KIFKEQ_clean_linker_1, # of connection points: 2
#     Edge 96, Type (0, 0), BuildingBlock: KIFKEQ_clean_linker_1, # of connection points: 2
#     Edge 97, Type (0, 0), BuildingBlock: KIFKEQ_clean_linker_1, # of connection points: 2
#     Edge 98, Type (0, 0), BuildingBlock: KIFKEQ_clean_linker_1, # of connection points: 2
#     Edge 99, Type (0, 0), BuildingBlock: KIFKEQ_clean_linker_1, # of connection points: 2
#     Edge 100, Type (0, 0), BuildingBlock: KIFKEQ_clean_linker_1, # of connection points: 2
#     Edge 101, Type (0, 0), BuildingBlock: KIFKEQ_clean_linker_1, # of connection points: 2
#     Edge 102, Type (0, 0), BuildingBlock: KIFKEQ_clean_linker_1, # of connection points: 2
#     Edge 103, Type (0, 0), BuildingBlock: KIFKEQ_clean_linker_1, # of connection points: 2
#     Edge 104, Type (0, 0), BuildingBlock: KIFKEQ_clean_linker_1, # of connection points: 2
#     Edge 105, Type (0, 0), BuildingBlock: KIFKEQ_clean_linker_1, # of connection points: 2
#     Edge 106, Type (0, 0), BuildingBlock: KIFKEQ_clean_linker_1, # of connection points: 2
#     Edge 107, Type (0, 0), BuildingBlock: KIFKEQ_clean_linker_1, # of connection points: 2
#     Edge 108, Type (0, 0), BuildingBlock: KIFKEQ_clean_linker_1, # of connection points: 2
#     Edge 109, Type (0, 0), BuildingBlock: KIFKEQ_clean_linker_1, # of connection points: 2
#     Edge 110, Type (0, 0), BuildingBlock: KIFKEQ_clean_linker_1, # of connection points: 2
#     Edge 111, Type (0, 0), BuildingBlock: KIFKEQ_clean_linker_1, # of connection points: 2
#     Edge 112, Type (0, 0), BuildingBlock: KIFKEQ_clean_linker_1, # of connection points: 2
#     Edge 113, Type (0, 0), BuildingBlock: KIFKEQ_clean_linker_1, # of connection points: 2
#     Edge 114, Type (0, 0), BuildingBlock: KIFKEQ_clean_linker_1, # of connection points: 2
#     Edge 115, Type (0, 0), BuildingBlock: KIFKEQ_clean_linker_1, # of connection points: 2
#     Edge 116, Type (0, 0), BuildingBlock: KIFKEQ_clean_linker_1, # of connection points: 2
#     Edge 117, Type (0, 0), BuildingBlock: KIFKEQ_clean_linker_1, # of connection points: 2
#     Edge 118, Type (0, 0), BuildingBlock: KIFKEQ_clean_linker_1, # of connection points: 2
#     Edge 119, Type (0, 0), BuildingBlock: KIFKEQ_clean_linker_1, # of connection points: 2
#     Edge 120, Type (0, 0), BuildingBlock: KIFKEQ_clean_linker_1, # of connection points: 2
#     Edge 121, Type (0, 0), BuildingBlock: KIFKEQ_clean_linker_1, # of connection points: 2
#     Edge 122, Type (0, 0), BuildingBlock: KIFKEQ_clean_linker_1, # of connection points: 2
#     Edge 123, Type (0, 0), BuildingBlock: KIFKEQ_clean_linker_1, # of connection points: 2
#     Edge 124, Type (0, 0), BuildingBlock: KIFKEQ_clean_linker_1, # of connection points: 2
#     Edge 125, Type (0, 0), BuildingBlock: KIFKEQ_clean_linker_1, # of connection points: 2
#     Edge 126, Type (0, 0), BuildingBlock: KIFKEQ_clean_linker_1, # of connection points: 2
#     Edge 127, Type (0, 0), BuildingBlock: KIFKEQ_clean_linker_1, # of connection points: 2
# Relax obj value: 0.050
# Max RMSD: 0.119
# Mean RMSD: 0.119
data_MOF--net-som--node1-CUWYAW_clean_sbu_0--edge1-KIFKEQ_clean_linker_1
_symmetry_space_group_name_H-M    P1
_symmetry_Int_Tables_number       1
_symmetry_cell_setting            triclinic
loop_
_symmetry_equiv_pos_as_xyz
'x, y, z'
_cell_length_a     26.042196
_cell_length_b     56.790123
_cell_length_c     112.15294
_cell_angle_alpha  90.009367
_cell_angle_beta   90.030236
_cell_angle_gamma 90.050925
loop_
_atom_site_label
_atom_site_type_symbol
_atom_site_fract_x
_atom_site_fract_y
_atom_site_fract_z
_atom_type_partial_charge
C0 C 0.19039 0.45865 0.09554 0.0
Eu1 Eu 0.10171 0.472 0.0872 0.0
C2 C 0.246 0.46098 0.09327 0.0
C3 C 0.26647 0.4605 0.08168 0.0
C4 C 0.31959 0.46257 0.07991 0.0
C5 C 0.35321 0.46522 0.08967 0.0
C6 C 0.33224 0.46586 0.10123 0.0
C7 C 0.27929 0.46374 0.10299 0.0
C8 C 0.0724 0.47758 0.06395 0.0
C9 C 0.08811 0.52871 0.08219 0.0
C10 C 0.89708 0.51001 0.08173 0.0
Eu11 Eu 0.99104 0.49644 0.08598 0.0
C12 C 0.84348 0.50151 0.08137 0.0
C13 C 0.82399 0.48593 0.08998 0.0
C14 C 0.77163 0.48015 0.09011 0.0
C15 C 0.73778 0.48984 0.08162 0.0
C16 C 0.75805 0.50472 0.07275 0.0
C17 C 0.81026 0.51051 0.07265 0.0
C18 C 0.04141 0.49642 0.10734 0.0
C19 C 0.999 0.43951 0.08904 0.0
O20 O 0.16664 0.47774 0.09911 0.0
O21 O 0.16316 0.44603 0.08803 0.0
O22 O 0.11529 0.46781 0.06718 0.0
O23 O 0.04834 0.48347 0.07322 0.0
O24 O 0.11691 0.51166 0.08682 0.0
O25 O 0.03982 0.52544 0.07907 0.0
O26 O 0.9283 0.50265 0.07338 0.0
O27 O 0.91909 0.51139 0.09221 0.0
O28 O 1.01344 0.51388 0.1036 0.0
O29 O 0.03963 0.47984 0.09989 0.0
O30 O 0.97059 0.4581 0.08647 0.0
O31 O 0.04945 0.4407 0.09073 0.0
H32 H 0.2415 0.45847 0.07402 0.0
H33 H 0.33435 0.4618 0.07089 0.0
H34 H 0.35668 0.46833 0.10895 0.0
H35 H 0.26425 0.46431 0.112 0.0
H36 H 0.84891 0.47869 0.09679 0.0
H37 H 0.75741 0.46876 0.09711 0.0
H38 H 0.73346 0.51212 0.06593 0.0
H39 H 0.82452 0.52249 0.0659 0.0
C40 C 0.11727 0.76672 0.09163 0.0
Eu41 Eu 0.21141 0.75267 0.08766 0.0
C42 C 0.06259 0.75962 0.09047 0.0
C43 C 0.0348 0.76444 0.07999 0.0
C44 C 0.98196 0.76 0.07941 0.0
C45 C 0.95553 0.75073 0.08929 0.0
C46 C 0.98356 0.74552 0.09969 0.0
C47 C 0.03636 0.75 0.10029 0.0
C48 C 0.25723 0.75028 0.06591 0.0
C49 C 0.21852 0.69542 0.08398 0.0
C50 C 0.40719 0.71305 0.08519 0.0
Eu51 Eu 0.31334 0.72827 0.08811 0.0
C52 C 0.46188 0.71929 0.08686 0.0
C53 C 0.4945 0.70299 0.09242 0.0
C54 C 0.54731 0.70718 0.09315 0.0
C55 C 0.5689 0.72776 0.08827 0.0
C56 C 0.53589 0.74444 0.08301 0.0
C57 C 0.48291 0.74024 0.0823 0.0
C58 C 0.26345 0.73062 0.10951 0.0
C59 C 0.31055 0.78503 0.09052 0.0
O60 O 0.14533 0.75565 0.0995 0.0
O61 O 0.14283 0.77162 0.0819 0.0
O62 O 0.2319 0.76838 0.06978 0.0
O63 O 0.25625 0.73394 0.07356 0.0
O64 O 0.19014 0.71334 0.08773 0.0
O65 O 0.26733 0.69822 0.0814 0.0
O66 O 0.38128 0.72432 0.07698 0.0
O67 O 0.37997 0.70883 0.09475 0.0
O68 O 0.28856 0.71229 0.10586 0.0
O69 O 0.26747 0.74695 0.10198 0.0
O70 O 0.3368 0.76635 0.08718 0.0
O71 O 0.26097 0.7837 0.09297 0.0
H72 H 0.0536 0.7721 0.07231 0.0
H73 H 0.96173 0.76395 0.07121 0.0
H74 H 0.96441 0.73869 0.10753 0.0
H75 H 0.05637 0.74647 0.10857 0.0
H76 H 0.4792 0.68671 0.096 0.0
H77 H 0.57129 0.69417 0.09748 0.0
H78 H 0.55114 0.76039 0.07908 0.0
H79 H 0.45867 0.75312 0.07794 0.0
C80 C 0.19329 0.77106 0.19556 0.0
Eu81 Eu 0.10496 0.75805 0.20419 0.0
C82 C 0.24901 0.76792 0.19754 0.0
C83 C 0.27255 0.77328 0.2085 0.0
C84 C 0.32562 0.7703 0.20996 0.0
C85 C 0.35604 0.76176 0.20053 0.0
C86 C 0.33225 0.75647 0.1896 0.0
C87 C 0.27941 0.75958 0.18812 0.0
C88 C 0.07799 0.75169 0.22757 0.0
C89 C 0.09144 0.70158 0.2093 0.0
C90 C 0.90109 0.72025 0.21097 0.0
Eu91 Eu 0.99434 0.73363 0.20587 0.0
C92 C 0.84655 0.72672 0.20926 0.0
C93 C 0.813 0.7101 0.20426 0.0
C94 C 0.76052 0.71483 0.2033 0.0
C95 C 0.74013 0.73628 0.20743 0.0
C96 C 0.77402 0.75318 0.2122 0.0
C97 C 0.82671 0.74845 0.21312 0.0
C98 C 0.04169 0.73427 0.18415 0.0
C99 C 1.00202 0.79057 0.20226 0.0
O100 O 0.16814 0.75245 0.19183 0.0
O101 O 0.16727 0.78365 0.2033 0.0
O102 O 0.12051 0.76165 0.22421 0.0
O103 O 0.05319 0.74608 0.21836 0.0
O104 O 0.1194 0.71836 0.20418 0.0
O105 O 0.04427 0.70532 0.2131 0.0
O106 O 0.92913 0.73343 0.21802 0.0
O107 O 0.9262 0.71291 0.20157 0.0
O108 O 1.01296 0.71701 0.18781 0.0
O109 O 0.04147 0.75051 0.19178 0.0
O110 O 0.97326 0.77185 0.20442 0.0
O111 O 0.05274 0.78953 0.20103 0.0
H112 H 0.25005 0.77969 0.21594 0.0
H113 H 0.34272 0.77434 0.21852 0.0
H114 H 0.35461 0.75017 0.18211 0.0
H115 H 0.2622 0.75549 0.17956 0.0
H116 H 0.82733 0.69322 0.20123 0.0
H117 H 0.73589 0.70159 0.19935 0.0
H118 H 0.75969 0.76981 0.21555 0.0
H119 H 0.85165 0.76163 0.21703 0.0
C120 C 0.11586 0.46316 0.19882 0.0
Eu121 Eu 0.20963 0.47689 0.20347 0.0
C122 C 0.06099 0.46936 0.20036 0.0
C123 C 0.03663 0.46813 0.21153 0.0
C124 C 0.98361 0.47184 0.21251 0.0
C125 C 0.95374 0.47675 0.20234 0.0
C126 C 0.97849 0.47848 0.19123 0.0
C127 C 0.03139 0.47475 0.19025 0.0
C128 C 0.2536 0.47924 0.22544 0.0
C129 C 0.21825 0.53432 0.20699 0.0
C130 C 0.40658 0.51551 0.20692 0.0
Eu131 Eu 0.31269 0.5007 0.20349 0.0
C132 C 0.4609 0.50807 0.20709 0.0
C133 C 0.48225 0.49412 0.19801 0.0
C134 C 0.53503 0.48925 0.19793 0.0
C135 C 0.56741 0.49825 0.20691 0.0
C136 C 0.54537 0.51155 0.21617 0.0
C137 C 0.49279 0.51642 0.21623 0.0
C138 C 0.26383 0.49887 0.18195 0.0
C139 C 0.30818 0.44417 0.20106 0.0
O140 O 0.1431 0.47629 0.19163 0.0
O141 O 0.14184 0.45631 0.20819 0.0
O142 O 0.2273 0.4614 0.22158 0.0
O143 O 0.254 0.49542 0.21771 0.0
O144 O 0.18908 0.5163 0.20363 0.0
O145 O 0.26736 0.5316 0.20929 0.0
O146 O 0.37701 0.50783 0.2155 0.0
O147 O 0.38316 0.51627 0.1966 0.0
O148 O 0.28918 0.51707 0.18573 0.0
O149 O 0.26699 0.48245 0.18945 0.0
O150 O 0.33416 0.46247 0.20504 0.0
O151 O 0.25938 0.44608 0.19795 0.0
H152 H 0.05823 0.4638 0.21949 0.0
H153 H 0.9658 0.47014 0.22119 0.0
H154 H 0.95693 0.48261 0.18324 0.0
H155 H 0.04905 0.47566 0.18152 0.0
H156 H 0.45843 0.48742 0.19085 0.0
H157 H 0.55068 0.47908 0.19062 0.0
H158 H 0.56885 0.51836 0.22336 0.0
H159 H 0.47712 0.52716 0.22334 0.0
C160 C 0.15494 0.46883 0.95917 0.0
Eu161 Eu 0.06073 0.48192 0.95474 0.0
C162 C 0.20898 0.47687 0.95793 0.0
C163 C 0.23775 0.47099 0.94775 0.0
C164 C 0.28993 0.47671 0.94702 0.0
C165 C 0.31483 0.48829 0.95649 0.0
C166 C 0.28589 0.49445 0.96661 0.0
C167 C 0.23365 0.48876 0.96733 0.0
C168 C 1.01256 0.48308 0.93313 0.0
C169 C 0.05281 0.53886 0.95197 0.0
C170 C 0.86238 0.51998 0.94487 0.0
Eu171 Eu 0.95019 0.50606 0.95345 0.0
C172 C 0.80681 0.51765 0.94695 0.0
C173 C 0.78714 0.51023 0.95797 0.0
C174 C 0.73399 0.50789 0.9596 0.0
C175 C 0.69965 0.51289 0.95021 0.0
C176 C 0.71989 0.52021 0.93918 0.0
C177 C 0.77287 0.52255 0.93758 0.0
C178 C 0.97706 0.49903 0.97676 0.0
C179 C 0.96411 0.4495 0.95806 0.0
O180 O 0.12582 0.47972 0.96693 0.0
O181 O 0.13008 0.46319 0.94943 0.0
O182 O 0.04075 0.46558 0.93671 0.0
O183 O 1.01312 0.4992 0.94084 0.0
O184 O 0.08154 0.52011 0.95394 0.0
O185 O 1.00214 0.53781 0.95069 0.0
O186 O 0.88617 0.50096 0.94123 0.0
O187 O 0.8889 0.53211 0.95271 0.0
O188 O 0.93389 0.50838 0.97343 0.0
O189 O 1.00255 0.49399 0.96755 0.0
O190 O 0.93587 0.46639 0.95312 0.0
O191 O 1.01155 0.45313 0.96172 0.0
H192 H 0.22027 0.46148 0.94042 0.0
H193 H 0.31114 0.47138 0.93917 0.0
H194 H 0.30368 0.50359 0.97401 0.0
H195 H 0.21284 0.49334 0.97537 0.0
H196 H 0.81284 0.50625 0.9653 0.0
H197 H 0.7198 0.50241 0.96824 0.0
H198 H 0.69483 0.52378 0.93169 0.0
H199 H 0.78741 0.52809 0.92897 0.0
C200 C 0.64604 0.26456 0.95549 0.0
Eu201 Eu 0.73998 0.24954 0.9524 0.0
C202 C 0.5917 0.25707 0.95546 0.0
C203 C 0.57186 0.2417 0.94678 0.0
C204 C 0.51922 0.23644 0.94653 0.0
C205 C 0.48555 0.24635 0.95499 0.0
C206 C 0.50601 0.26128 0.96381 0.0
C207 C 0.55843 0.26658 0.96402 0.0
C208 C 0.78957 0.24714 0.931 0.0
C209 C 0.74347 0.19291 0.95043 0.0
C210 C 0.93644 0.21125 0.94859 0.0
Eu211 Eu 0.84254 0.22532 0.9528 0.0
C212 C 0.99127 0.21792 0.94984 0.0
C213 C 1.01585 0.21843 0.961 0.0
C214 C 0.06884 0.22247 0.9618 0.0
C215 C 0.09848 0.22606 0.95146 0.0
C216 C 0.07353 0.22602 0.94033 0.0
C217 C 1.02066 0.22193 0.93953 0.0
C218 C 0.79695 0.22798 0.97459 0.0
C219 C 0.83485 0.28277 0.95609 0.0
O220 O 0.67501 0.25688 0.96418 0.0
O221 O 0.67011 0.26523 0.94526 0.0
O222 O 0.76443 0.26549 0.93465 0.0
O223 O 0.78607 0.23084 0.93857 0.0
O224 O 0.71763 0.2115 0.95404 0.0
O225 O 0.79264 0.19435 0.94758 0.0
O226 O 0.9088 0.22309 0.94093 0.0
O227 O 0.91076 0.20576 0.95822 0.0
O228 O 0.82281 0.20995 0.97082 0.0
O229 O 0.79779 0.24415 0.96684 0.0
O230 O 0.8637 0.26464 0.95279 0.0
O231 O 0.78563 0.28027 0.9583 0.0
H232 H 0.59683 0.23403 0.94011 0.0
H233 H 0.50488 0.22464 0.93971 0.0
H234 H 0.48126 0.26946 0.97036 0.0
H235 H 0.57289 0.27856 0.97076 0.0
H236 H 0.99441 0.21532 0.96912 0.0
H237 H 0.08664 0.22268 0.97053 0.0
H238 H 0.09513 0.22839 0.93217 0.0
H239 H 1.0029 0.22133 0.9308 0.0
C240 C 0.15434 0.26051 0.83133 0.0
Eu241 Eu 0.0602 0.24626 0.83486 0.0
C242 C 0.20846 0.25259 0.8314 0.0
C243 C 0.23308 0.24548 0.84197 0.0
C244 C 0.28575 0.24053 0.842 0.0
C245 C 0.31493 0.24259 0.83149 0.0
C246 C 0.28975 0.24898 0.82087 0.0
C247 C 0.23722 0.254 0.82085 0.0
C248 C 1.01153 0.24439 0.85638 0.0
C249 C 0.05507 0.18979 0.83747 0.0
C250 C 0.86312 0.2087 0.83852 0.0
Eu251 Eu 0.9573 0.22263 0.83457 0.0
C252 C 0.80852 0.21524 0.83676 0.0
C253 C 0.78049 0.20591 0.82713 0.0
C254 C 0.72765 0.20991 0.82615 0.0
C255 C 0.70149 0.22316 0.83482 0.0
C256 C 0.72972 0.23288 0.84432 0.0
C257 C 0.78256 0.22892 0.8453 0.0
C258 C 1.00216 0.22571 0.81268 0.0
C259 C 0.96636 0.28011 0.83217 0.0
O260 O 0.12468 0.25252 0.82282 0.0
O261 O 0.13053 0.26226 0.84156 0.0
O262 O 0.03801 0.26233 0.85271 0.0
O263 O 1.01387 0.22797 0.84882 0.0
O264 O 0.08151 0.20798 0.83355 0.0
O265 O 1.00607 0.19179 0.84033 0.0
O266 O 0.89009 0.22113 0.84609 0.0
O267 O 0.88976 0.20245 0.82916 0.0
O268 O 0.97674 0.20754 0.81644 0.0
O269 O 1.0017 0.24168 0.82052 0.0
O270 O 0.93691 0.26189 0.83501 0.0
O271 O 1.01531 0.27764 0.8297 0.0
H272 H 0.21206 0.24432 0.85027 0.0
H273 H 0.30389 0.23588 0.85036 0.0
H274 H 0.31076 0.25035 0.81257 0.0
H275 H 0.21924 0.25951 0.81259 0.0
H276 H 0.7991 0.19496 0.82052 0.0
H277 H 0.70699 0.20192 0.8188 0.0
H278 H 0.71088 0.2434 0.85108 0.0
H279 H 0.80281 0.23617 0.8529 0.0
C280 C 0.6461 0.4655 0.83418 0.0
Eu281 Eu 0.74036 0.48011 0.83716 0.0
C282 C 0.59224 0.47338 0.83313 0.0
C283 C 0.57053 0.48951 0.84118 0.0
C284 C 0.51789 0.49457 0.84073 0.0
C285 C 0.48599 0.4836 0.83222 0.0
C286 C 0.50846 0.46818 0.82391 0.0
C287 C 0.56093 0.4631 0.82439 0.0
C288 C 0.79069 0.48222 0.85846 0.0
C289 C 0.74586 0.53653 0.83913 0.0
C290 C 0.9377 0.51782 0.84057 0.0
Eu291 Eu 0.84371 0.50374 0.8365 0.0
C292 C 0.99253 0.51173 0.83895 0.0
C293 C 1.01552 0.51093 0.82761 0.0
C294 C 0.06855 0.50739 0.82648 0.0
C295 C 0.09972 0.50468 0.83665 0.0
C296 C 0.0763 0.50493 0.84795 0.0
C297 C 1.02342 0.50848 0.84907 0.0
C298 C 0.7976 0.50061 0.81476 0.0
C299 C 0.83439 0.44612 0.83437 0.0
O300 O 0.67708 0.47027 0.82532 0.0
O301 O 0.6683 0.46747 0.84459 0.0
O302 O 0.76417 0.46417 0.85494 0.0
O303 O 0.78774 0.49853 0.85087 0.0
O304 O 0.71966 0.51832 0.83516 0.0
O305 O 0.79467 0.53453 0.84218 0.0
O306 O 0.91116 0.505 0.84804 0.0
O307 O 0.91103 0.52408 0.8312 0.0
O308 O 0.82392 0.51864 0.81838 0.0
O309 O 0.79812 0.48468 0.82264 0.0
O310 O 0.86437 0.46452 0.83656 0.0
O311 O 0.78477 0.44822 0.83262 0.0
H312 H 0.59388 0.49773 0.84801 0.0
H313 H 0.50192 0.50642 0.84732 0.0
H314 H 0.48537 0.45978 0.81709 0.0
H315 H 0.57688 0.45064 0.81808 0.0
H316 H 0.99282 0.51353 0.81963 0.0
H317 H 0.08533 0.50749 0.81765 0.0
H318 H 0.0989 0.5025 0.85596 0.0
H319 H 1.00675 0.50914 0.85792 0.0
C320 C 0.1901 0.96245 0.59033 0.0
Eu321 Eu 0.0962 0.97636 0.58605 0.0
C322 C 0.24491 0.96891 0.58894 0.0
C323 C 0.26772 0.97177 0.57767 0.0
C324 C 0.32069 0.97575 0.57667 0.0
C325 C 0.35197 0.97696 0.5869 0.0
C326 C 0.32872 0.97455 0.59816 0.0
C327 C 0.27591 0.97054 0.59915 0.0
C328 C 0.05032 0.97884 0.5643 0.0
C329 C 0.08766 0.03397 0.58332 0.0
C330 C 0.89908 0.01487 0.58422 0.0
Eu331 Eu 0.99362 0.00021 0.58667 0.0
C332 C 0.84521 0.00685 0.58336 0.0
C333 C 0.82541 0.9892 0.59085 0.0
C334 C 0.77287 0.98378 0.59065 0.0
C335 C 0.73921 -0.00418 0.58293 0.0
C336 C 0.75968 0.01291 0.57519 0.0
C337 C 0.81205 0.01836 0.57543 0.0
C338 C 0.0449 -0.00161 0.60785 0.0
C339 C 0.99812 0.94373 0.58858 0.0
O340 O 0.16282 0.97477 0.59788 0.0
O341 O 0.16416 0.9565 0.5808 0.0
O342 O 0.07645 0.96088 0.56808 0.0
O343 O 0.05065 -0.00495 0.57205 0.0
O344 O 0.11748 0.01558 0.58562 0.0
O345 O 0.0379 0.03195 0.58177 0.0
O346 O 0.92938 0.01046 0.57519 0.0
O347 O 0.92214 0.01254 0.59451 0.0
O348 O 1.02057 0.01684 0.60406 0.0
O349 O 0.04036 0.98182 0.60046 0.0
O350 O 0.97228 0.96205 0.58463 0.0
O351 O 0.04694 0.94556 0.59163 0.0
H352 H 0.24487 0.97059 0.56962 0.0
H353 H 0.33716 0.97781 0.56786 0.0
H354 H 0.35157 0.97505 0.60622 0.0
H355 H 0.25941 0.96815 0.60794 0.0
H356 H 0.85027 0.97994 0.59701 0.0
H357 H 0.75853 0.9703 0.59661 0.0
H358 H 0.73492 0.02271 0.56923 0.0
H359 H 0.82645 0.03211 0.56962 0.0
C360 C 0.10722 0.27146 0.5923 0.0
Eu361 Eu 0.19637 0.25783 0.58435 0.0
C362 C 0.05195 0.26908 0.58973 0.0
C363 C 0.03402 0.26203 0.57848 0.0
C364 C 0.98114 0.2598 0.57636 0.0
C365 C 0.94529 0.26453 0.58547 0.0
C366 C 0.96379 0.27149 0.59673 0.0
C367 C 1.01651 0.27374 0.59882 0.0
C368 C 0.22827 0.2533 0.56125 0.0
C369 C 0.21128 0.20125 0.57909 0.0
C370 C 0.40167 0.22011 0.58156 0.0
Eu371 Eu 0.30663 0.23386 0.58385 0.0
C372 C 0.45487 0.22826 0.57958 0.0
C373 C 0.47418 0.24871 0.58505 0.0
C374 C 0.52661 0.25418 0.58433 0.0
C375 C 0.56071 0.23931 0.57814 0.0
C376 C 0.54058 0.21946 0.57223 0.0
C377 C 0.4883 0.21401 0.57297 0.0
C378 C 0.2526 0.2329 0.60469 0.0
C379 C 0.29775 0.29054 0.5859 0.0
O380 O 0.13071 0.25245 0.59608 0.0
O381 O 0.1348 0.28375 0.58473 0.0
O382 O 0.18482 0.26269 0.56434 0.0
O383 O 0.25185 0.24719 0.57057 0.0
O384 O 0.18107 0.21817 0.58334 0.0
O385 O 0.26006 0.20466 0.57653 0.0
O386 O 0.36945 0.22108 0.57259 0.0
O387 O 0.38042 0.22546 0.59179 0.0
O388 O 0.27899 0.21517 0.60072 0.0
O389 O 0.25641 0.24998 0.59761 0.0
O390 O 0.32558 0.27225 0.58262 0.0
O391 O 0.2481 0.28893 0.58841 0.0
H392 H 0.06085 0.25828 0.57135 0.0
H393 H 0.96835 0.25459 0.56756 0.0
H394 H 0.93756 0.27485 0.60402 0.0
H395 H 0.02966 0.27902 0.60759 0.0
H396 H 0.44911 0.26002 0.59021 0.0
H397 H 0.54072 0.26954 0.58903 0.0
H398 H 0.56541 0.20788 0.56718 0.0
H399 H 0.47423 0.19818 0.56867 0.0
C400 C 0.18365 0.26731 0.6963 0.0
Eu401 Eu 0.09023 0.25391 0.70151 0.0
C402 C 0.23861 0.26156 0.69802 0.0
C403 C 0.26064 0.25945 0.70942 0.0
C404 C 0.3137 0.25605 0.7107 0.0
C405 C 0.34584 0.25474 0.70062 0.0
C406 C 0.32331 0.25629 0.68924 0.0
C407 C 0.27041 0.25971 0.68797 0.0
C408 C 0.04806 0.25223 0.72369 0.0
C409 C 0.08133 0.19655 0.70501 0.0
C410 C 0.89283 0.21566 0.70488 0.0
Eu411 Eu 0.98718 0.23022 0.70182 0.0
C412 C 0.83882 0.22345 0.70578 0.0
C413 C 0.81783 0.2402 0.69795 0.0
C414 C 0.7651 0.24518 0.69821 0.0
C415 C 0.73235 0.23352 0.70629 0.0
C416 C 0.75409 0.21746 0.7144 0.0
C417 C 0.80665 0.21246 0.71412 0.0
C418 C 0.03593 0.23128 0.6803 0.0
C419 C 0.99205 0.28651 0.69933 0.0
O420 O 0.15656 0.25316 0.68957 0.0
O421 O 0.15777 0.27523 0.70545 0.0
O422 O 0.07539 0.26957 0.71964 0.0
O423 O 0.04603 0.23588 0.71602 0.0
O424 O 0.11087 0.21474 0.70217 0.0
O425 O 0.0319 0.19878 0.707 0.0
O426 O 0.92369 0.22082 0.71371 0.0
O427 O 0.91514 0.21728 0.69447 0.0
O428 O 1.01222 0.21294 0.68442 0.0
O429 O 0.03231 0.24809 0.68757 0.0
O430 O 0.96666 0.26843 0.70369 0.0
O431 O 0.04032 0.28445 0.69588 0.0
H432 H 0.23712 0.26088 0.71735 0.0
H433 H 0.32969 0.25512 0.7196 0.0
H434 H 0.3466 0.25493 0.68127 0.0
H435 H 0.25438 0.2613 0.67908 0.0
H436 H 0.84186 0.24896 0.69144 0.0
H437 H 0.74975 0.25755 0.69178 0.0
H438 H 0.73037 0.2085 0.7209 0.0
H439 H 0.82202 0.19953 0.72026 0.0
C440 C 0.11888 0.96034 0.70011 0.0
Eu441 Eu 0.21274 0.97437 0.70447 0.0
C442 C 0.06407 0.96693 0.70151 0.0
C443 C 0.03916 0.9656 0.71261 0.0
C444 C 0.9862 0.96957 0.7135 0.0
C445 C 0.95683 0.97485 0.7033 0.0
C446 C 0.9821 0.97667 0.69225 0.0
C447 C 0.03497 0.97269 0.69137 0.0
C448 C 0.25743 0.97711 0.72637 0.0
C449 C 0.2203 0.03188 0.70734 0.0
C450 C 0.40916 0.01366 0.70712 0.0
Eu451 Eu 0.31502 -0.00131 0.70425 0.0
C452 C 0.4634 0.00599 0.70756 0.0
C453 C 0.48527 -0.00798 0.69855 0.0
C454 C 0.53806 0.98718 0.69859 0.0
C455 C 0.57005 -0.00381 0.70765 0.0
C456 C 0.54752 0.00946 0.71686 0.0
C457 C 0.49489 0.01433 0.71679 0.0
C458 C 0.26494 -0.00297 0.68291 0.0
C459 C 0.31126 0.94214 0.702 0.0
O460 O 0.14643 0.97257 0.69257 0.0
O461 O 0.14476 0.95436 0.70963 0.0
O462 O 0.23188 0.95902 0.72252 0.0
O463 O 0.25709 -0.00673 0.71862 0.0
O464 O 0.19129 0.0135 0.70451 0.0
O465 O 0.26961 0.02982 0.70955 0.0
O466 O 0.37936 0.00756 0.71599 0.0
O467 O 0.3857 0.01294 0.69681 0.0
O468 O 0.28896 0.01547 0.68684 0.0
O469 O 0.26926 0.98032 0.69023 0.0
O470 O 0.33689 0.96055 0.70595 0.0
O471 O 0.26242 0.94376 0.69894 0.0
H472 H 0.06027 0.96096 0.7206 0.0
H473 H 0.96801 0.96777 0.72213 0.0
H474 H 0.96095 0.98106 0.68424 0.0
H475 H 0.05298 0.97366 0.68267 0.0
H476 H 0.46189 0.98533 0.69131 0.0
H477 H 0.55403 0.97704 0.69131 0.0
H478 H 0.57065 0.0163 0.72411 0.0
H479 H 0.4789 0.02512 0.72384 0.0
C480 C 0.15997 0.96604 0.45681 0.0
Eu481 Eu 0.06589 0.9807 0.45349 0.0
C482 C 0.21421 0.97366 0.45734 0.0
C483 C 0.23503 0.98957 0.44905 0.0
C484 C 0.28787 -0.00558 0.44903 0.0
C485 C 0.32088 0.98345 0.4573 0.0
C486 C 0.29934 0.96822 0.46585 0.0
C487 C 0.24668 0.96337 0.46584 0.0
C488 C 1.01785 0.98168 0.43187 0.0
C489 C 0.06183 0.03704 0.45069 0.0
C490 C 0.86976 0.01802 0.44768 0.0
Eu491 Eu 0.96308 0.00458 0.45294 0.0
C492 C 0.8148 0.01201 0.44926 0.0
C493 C 0.79196 0.01065 0.4606 0.0
C494 C 0.73891 0.00702 0.46173 0.0
C495 C 0.70755 0.00473 0.45155 0.0
C496 C 0.73086 0.00555 0.44024 0.0
C497 C 0.78377 0.00919 0.43912 0.0
C498 C 1.00517 0.00311 0.47515 0.0
C499 C 0.97131 0.94719 0.45654 0.0
O500 O 0.12966 0.97246 0.46552 0.0
O501 O 0.13722 0.96648 0.44642 0.0
O502 O 0.04149 0.96338 0.43606 0.0
O503 O 1.02119 -0.00148 0.43913 0.0
O504 O 0.08712 0.01892 0.45505 0.0
O505 O 1.01343 0.03503 0.44729 0.0
O506 O 0.89717 0.00421 0.44085 0.0
O507 O 0.89536 0.02567 0.45694 0.0
O508 O 0.97839 0.02052 0.47099 0.0
O509 O 1.00666 0.98661 0.46757 0.0
O510 O 0.94215 0.96537 0.45351 0.0
O511 O 1.02056 0.94947 0.45879 0.0
H512 H 0.21076 -0.00222 0.4424 0.0
H513 H 0.30305 0.00612 0.44227 0.0
H514 H 0.32328 0.95984 0.4725 0.0
H515 H 0.23145 0.95109 0.47234 0.0
H516 H 0.8148 0.01284 0.46859 0.0
H517 H 0.7223 0.00669 0.47057 0.0
H518 H 0.70819 0.00344 0.43222 0.0
H519 H 0.80039 0.01022 0.43028 0.0
C520 C 0.64466 0.76263 0.45778 0.0
Eu521 Eu 0.73872 0.74822 0.45423 0.0
C522 C 0.59056 0.7548 0.45827 0.0
C523 C 0.569 0.74029 0.44943 0.0
C524 C 0.51625 0.73531 0.44948 0.0
C525 C 0.48404 0.74473 0.45838 0.0
C526 C 0.50632 0.75851 0.46744 0.0
C527 C 0.5589 0.76351 0.46736 0.0
C528 C 0.7863 0.74723 0.43259 0.0
C529 C 0.74337 0.69185 0.45133 0.0
C530 C 0.93518 0.71127 0.4485 0.0
Eu531 Eu 0.84174 0.72456 0.4537 0.0
C532 C 0.99011 0.71718 0.45026 0.0
C533 C 1.01342 0.71636 0.46157 0.0
C534 C 0.06646 0.71985 0.46278 0.0
C535 C 0.09739 0.72416 0.45271 0.0
C536 C 0.07366 0.72551 0.44146 0.0
C537 C 1.02074 0.722 0.44026 0.0
C538 C 0.79997 0.72643 0.47594 0.0
C539 C 0.8331 0.78196 0.45711 0.0
O540 O 0.67518 0.75591 0.4664 0.0
O541 O 0.66727 0.76273 0.44737 0.0
O542 O 0.76235 0.76547 0.43674 0.0
O543 O 0.78341 0.73042 0.43988 0.0
O544 O 0.71776 0.7099 0.45566 0.0
O545 O 0.79183 0.69398 0.44802 0.0
O546 O 0.90801 0.72534 0.44176 0.0
O547 O 0.90922 0.70324 0.45762 0.0
O548 O 0.82695 0.70901 0.47189 0.0
O549 O 0.79827 0.74272 0.46826 0.0
O550 O 0.86234 0.76381 0.45408 0.0
O551 O 0.78395 0.77959 0.45943 0.0
H552 H 0.5926 0.7333 0.44231 0.0
H553 H 0.50048 0.72476 0.44232 0.0
H554 H 0.483 0.76566 0.47456 0.0
H555 H 0.5747 0.77469 0.47429 0.0
H556 H 0.99096 0.71254 0.46946 0.0
H557 H 0.08343 0.71847 0.47157 0.0
H558 H 0.09602 0.7292 0.43354 0.0
H559 H 1.00383 0.72263 0.43143 0.0
C560 C 0.15694 0.76132 0.33424 0.0
Eu561 Eu 0.06219 0.7473 0.33706 0.0
C562 C 0.21014 0.75269 0.33298 0.0
C563 C 0.2268 0.73193 0.33858 0.0
C564 C 0.2789 0.7257 0.33841 0.0
C565 C 0.3153 0.74008 0.33261 0.0
C566 C 0.29791 0.76038 0.32665 0.0
C567 C 0.24594 0.7666 0.32685 0.0
C568 C 1.0099 0.74737 0.3581 0.0
C569 C 0.05381 0.69034 0.33889 0.0
C570 C 0.86333 0.70915 0.34598 0.0
Eu571 Eu 0.9519 0.72307 0.33778 0.0
C572 C 0.80776 0.71201 0.34389 0.0
C573 C 0.78825 0.71934 0.33282 0.0
C574 C 0.73514 0.72205 0.33119 0.0
C575 C 0.70067 0.71763 0.34062 0.0
C576 C 0.72072 0.71028 0.35167 0.0
C577 C 0.77363 0.70753 0.35327 0.0
C578 C 0.98172 0.72903 0.3146 0.0
C579 C 0.96584 0.77977 0.33285 0.0
O580 O 0.1253 0.75798 0.32531 0.0
O581 O 0.13511 0.7583 0.34464 0.0
O582 O 0.0359 0.7653 0.35419 0.0
O583 O 1.01301 0.73054 0.35083 0.0
O584 O 0.08196 0.70894 0.33621 0.0
O585 O 1.00374 0.6916 0.34101 0.0
O586 O 0.88784 0.72767 0.35005 0.0
O587 O 0.88964 0.69741 0.33797 0.0
O588 O 0.93806 0.71989 0.31775 0.0
O589 O 1.00623 0.73446 0.32391 0.0
O590 O 0.93653 0.76272 0.33731 0.0
O591 O 1.01448 0.77653 0.33005 0.0
H592 H 0.1998 0.72087 0.34334 0.0
H593 H 0.29075 0.70977 0.34293 0.0
H594 H 0.32474 0.77203 0.32222 0.0
H595 H 0.23394 0.78275 0.32253 0.0
H596 H 0.81404 0.72305 0.32548 0.0
H597 H 0.72115 0.72798 0.32261 0.0
H598 H 0.69544 0.70638 0.35908 0.0
H599 H 0.78795 0.70186 0.36188 0.0
C600 C 0.64624 0.96391 0.33372 0.0
Eu601 Eu 0.74018 0.97918 0.33665 0.0
C602 C 0.59169 0.97116 0.3337 0.0
C603 C 0.5703 0.98463 0.34296 0.0
C604 C 0.5174 0.98927 0.34319 0.0
C605 C 0.48484 0.98052 0.33417 0.0
C606 C 0.50688 0.96768 0.32474 0.0
C607 C 0.55959 0.96303 0.32453 0.0
C608 C 0.79018 0.98053 0.358 0.0
C609 C 0.74308 0.03586 0.33906 0.0
C610 C 0.93597 0.0177 0.34101 0.0
Eu611 Eu 0.84208 0.0037 0.33661 0.0
C612 C 0.99075 0.01084 0.33981 0.0
C613 C 1.0164 0.01209 0.32879 0.0
C614 C 0.06932 0.00789 0.32808 0.0
C615 C 0.09797 0.00245 0.33837 0.0
C616 C 0.07199 0.00073 0.34933 0.0
C617 C 1.01913 0.00494 0.35005 0.0
C618 C 0.797 0.00169 0.31472 0.0
C619 C 0.83515 0.94633 0.33277 0.0
O620 O 0.67511 0.97133 0.32495 0.0
O621 O 0.67048 0.96357 0.34393 0.0
O622 O 0.76692 0.96201 0.35392 0.0
O623 O 0.78562 -0.00263 0.35077 0.0
O624 O 0.71748 0.0173 0.33527 0.0
O625 O 0.79212 0.0344 0.34201 0.0
O626 O 0.90786 0.00604 0.34866 0.0
O627 O 0.91059 0.0232 0.33134 0.0
O628 O 0.82238 0.01971 0.31871 0.0
O629 O 0.79794 0.98526 0.32231 0.0
O630 O 0.86354 0.96441 0.33638 0.0
O631 O 0.78608 0.94882 0.33036 0.0
H632 H 0.59419 -0.00885 0.35015 0.0
H633 H 0.50182 -0.00092 0.35063 0.0
H634 H 0.48331 0.96106 0.31752 0.0
H635 H 0.57521 0.95264 0.31729 0.0
H636 H 0.9959 0.01685 0.32074 0.0
H637 H 0.08805 0.00964 0.31951 0.0
H638 H 0.09257 -0.00376 0.35741 0.0
H639 H 1.00059 0.00404 0.35868 0.0
C640 C 0.68236 0.46226 0.591 0.0
Eu641 Eu 0.58847 0.47637 0.58671 0.0
C642 C 0.73721 0.46905 0.58982 0.0
C643 C 0.76171 0.47005 0.57866 0.0
C644 C 0.8147 0.47415 0.57788 0.0
C645 C 0.8445 0.47733 0.58824 0.0
C646 C 0.81963 0.47683 0.59938 0.0
C647 C 0.76673 0.47267 0.60015 0.0
C648 C 0.5435 0.47912 0.56484 0.0
C649 C 0.58183 0.53382 0.58341 0.0
C650 C 0.39261 0.51633 0.58427 0.0
Eu651 Eu 0.48663 0.50104 0.58699 0.0
C652 C 0.33821 0.50879 0.58419 0.0
C653 C 0.31831 0.49314 0.59272 0.0
C654 C 0.26564 0.48792 0.59293 0.0
C655 C 0.23189 0.49816 0.58459 0.0
C656 C 0.2524 0.51336 0.5759 0.0
C657 C 0.30488 0.51862 0.57572 0.0
C658 C 0.53716 0.49908 0.60828 0.0
C659 C 0.48923 0.44438 0.58905 0.0
O660 O 0.65446 0.47387 0.59871 0.0
O661 O 0.65683 0.45693 0.58132 0.0
O662 O 0.56888 0.461 0.56867 0.0
O663 O 0.54423 0.49531 0.57258 0.0
O664 O 0.61001 0.51558 0.58685 0.0
O665 O 0.53276 0.53153 0.58095 0.0
O666 O 0.42152 0.50944 0.5754 0.0
O667 O 0.41687 0.51616 0.59448 0.0
O668 O 0.51391 0.51772 0.60435 0.0
O669 O 0.53211 0.48244 0.60095 0.0
O670 O 0.46389 0.463 0.58529 0.0
O671 O 0.53826 0.44569 0.59202 0.0
H672 H 0.7402 0.46725 0.57051 0.0
H673 H 0.83237 0.47474 0.56915 0.0
H674 H 0.84129 0.47888 0.60756 0.0
H675 H 0.74907 0.4717 0.60888 0.0
H676 H 0.34327 0.48521 0.59932 0.0
H677 H 0.25131 0.4759 0.59965 0.0
H678 H 0.22764 0.52181 0.56942 0.0
H679 H 0.31932 0.53083 0.56909 0.0
C680 C 0.61658 0.77007 0.59153 0.0
Eu681 Eu 0.71047 0.7565 0.58695 0.0
C682 C 0.56181 0.76356 0.58991 0.0
C683 C 0.53513 0.76956 0.57944 0.0
C684 C 0.4822 0.76565 0.57852 0.0
C685 C 0.45458 0.75575 0.58807 0.0
C686 C 0.48152 0.74931 0.59844 0.0
C687 C 0.53441 0.75325 0.59937 0.0
C688 C 0.75326 0.75341 0.56486 0.0
C689 C 0.71893 0.69914 0.5839 0.0
C690 C 0.90723 0.71835 0.58299 0.0
Eu691 Eu 0.81341 0.73273 0.5868 0.0
C692 C 0.96155 0.72582 0.58359 0.0
C693 C 0.98293 0.73572 0.59395 0.0
C694 C 0.03557 0.74078 0.5945 0.0
C695 C 0.06775 0.73615 0.58469 0.0
C696 C 0.04583 0.72676 0.57426 0.0
C697 C 0.99339 0.72162 0.57373 0.0
C698 C 0.76621 0.73505 0.60851 0.0
C699 C 0.80873 0.78935 0.58927 0.0
O700 O 0.64407 0.75721 0.59879 0.0
O701 O 0.64256 0.7769 0.58216 0.0
O702 O 0.72743 0.77141 0.56867 0.0
O703 O 0.75391 0.7375 0.57273 0.0
O704 O 0.69034 0.71716 0.58743 0.0
O705 O 0.76749 0.7019 0.58108 0.0
O706 O 0.87859 0.72805 0.57477 0.0
O707 O 0.8827 0.71514 0.59304 0.0
O708 O 0.7919 0.71692 0.60479 0.0
O709 O 0.76855 0.75129 0.60088 0.0
O710 O 0.83494 0.771 0.58548 0.0
O711 O 0.75983 0.78751 0.59227 0.0
H712 H 0.55488 0.77775 0.57202 0.0
H713 H 0.46282 0.77055 0.57035 0.0
H714 H 0.46145 0.74195 0.60604 0.0
H715 H 0.55361 0.74879 0.60764 0.0
H716 H 0.95922 0.73922 0.60168 0.0
H717 H 0.0511 0.74827 0.60262 0.0
H718 H 0.0695 0.7227 0.56659 0.0
H719 H 0.97782 0.71386 0.56568 0.0
C720 C 0.69207 0.76908 0.70121 0.0
Eu721 Eu 0.5981 0.755 0.70527 0.0
C722 C 0.74685 0.76281 0.7026 0.0
C723 C 0.76872 0.75785 0.71378 0.0
C724 C 0.82168 0.75393 0.71484 0.0
C725 C 0.85377 0.75485 0.70474 0.0
C726 C 0.83142 0.75937 0.69355 0.0
C727 C 0.77865 0.76333 0.69251 0.0
C728 C 0.55225 0.75146 0.72697 0.0
C729 C 0.58808 0.69739 0.707 0.0
C730 C 0.39996 0.71701 0.7072 0.0
Eu731 Eu 0.49437 0.73162 0.70445 0.0
C732 C 0.34627 0.72498 0.70828 0.0
C733 C 0.32721 0.74407 0.70166 0.0
C734 C 0.27478 0.74962 0.702 0.0
C735 C 0.24058 0.73626 0.70901 0.0
C736 C 0.26035 0.71767 0.71591 0.0
C737 C 0.3126 0.7121 0.71553 0.0
C738 C 0.54487 0.73427 0.68317 0.0
C739 C 0.50054 0.78806 0.70305 0.0
O740 O 0.6651 0.75676 0.6936 0.0
O741 O 0.66598 0.77475 0.71075 0.0
O742 O 0.5789 0.76948 0.72348 0.0
O743 O 0.55219 0.73571 0.71899 0.0
O744 O 0.61828 0.71575 0.70492 0.0
O745 O 0.5385 0.69956 0.70878 0.0
O746 O 0.43088 0.72135 0.71613 0.0
O747 O 0.42218 0.71954 0.69682 0.0
O748 O 0.51831 0.71614 0.68657 0.0
O749 O 0.54182 0.75035 0.69089 0.0
O750 O 0.47421 0.76977 0.70687 0.0
O751 O 0.54925 0.78608 0.69993 0.0
H752 H 0.74511 0.75732 0.72172 0.0
H753 H 0.8375 0.75021 0.72356 0.0
H754 H 0.85492 0.76055 0.68561 0.0
H755 H 0.76277 0.76732 0.6838 0.0
H756 H 0.35258 0.75436 0.69605 0.0
H757 H 0.26095 0.76424 0.69671 0.0
H758 H 0.23516 0.70684 0.72129 0.0
H759 H 0.3265 0.69725 0.72066 0.0
C760 C 0.61289 0.46087 0.69809 0.0
Eu761 Eu 0.7064 0.47371 0.70355 0.0
C762 C 0.55809 0.46694 0.69973 0.0
C763 C 0.53545 0.4683 0.71108 0.0
C764 C 0.48247 0.47199 0.71225 0.0
C765 C 0.45108 0.47444 0.7021 0.0
C766 C 0.47419 0.47358 0.69077 0.0
C767 C 0.52701 0.46983 0.68961 0.0
C768 C 0.74778 0.47491 0.72584 0.0
C769 C 0.7168 0.53089 0.70737 0.0
C770 C 0.90428 0.5111 0.70787 0.0
Eu771 Eu 0.81008 0.49686 0.70427 0.0
C772 C 0.9583 0.50329 0.70801 0.0
C773 C 0.97745 0.48705 0.69968 0.0
C774 C 0.02999 0.48169 0.69942 0.0
C775 C 0.06424 0.4924 0.70751 0.0
C776 C 0.04442 0.50812 0.71604 0.0
C777 C 0.99207 0.51351 0.71626 0.0
C778 C 0.76227 0.49634 0.68259 0.0
C779 C 0.80411 0.44066 0.70108 0.0
O780 O 0.64057 0.47496 0.69147 0.0
O781 O 0.63825 0.45268 0.70727 0.0
O782 O 0.72012 0.45776 0.72169 0.0
O783 O 0.75037 0.49132 0.71823 0.0
O784 O 0.68712 0.5131 0.704 0.0
O785 O 0.76554 0.52798 0.70996 0.0
O786 O 0.87434 0.50346 0.7164 0.0
O787 O 0.88114 0.51204 0.69753 0.0
O788 O 0.78649 0.51446 0.68682 0.0
O789 O 0.76513 0.47946 0.68983 0.0
O790 O 0.83022 0.4585 0.70548 0.0
O791 O 0.75567 0.44303 0.69779 0.0
H792 H 0.55843 0.46616 0.71906 0.0
H793 H 0.46608 0.47288 0.72111 0.0
H794 H 0.45122 0.47509 0.68275 0.0
H795 H 0.54347 0.46864 0.68076 0.0
H796 H 0.95202 0.47883 0.69326 0.0
H797 H 0.04386 0.46927 0.69284 0.0
H798 H 0.06963 0.51691 0.7223 0.0
H799 H 0.9781 0.52615 0.72273 0.0
C800 C 0.65203 0.46702 0.45806 0.0
Eu801 Eu 0.55795 0.48117 0.45427 0.0
C802 C 0.70646 0.47435 0.45695 0.0
C803 C 0.73017 0.4771 0.44577 0.0
C804 C 0.78287 0.48183 0.44499 0.0
C805 C 0.813 0.48393 0.45536 0.0
C806 C 0.78892 0.48168 0.46652 0.0
C807 C 0.73635 0.47687 0.4673 0.0
C808 C 0.51094 0.48162 0.43251 0.0
C809 C 0.554 0.53755 0.45065 0.0
C810 C 0.36195 0.518 0.44833 0.0
Eu811 Eu 0.45566 0.50489 0.45343 0.0
C812 C 0.30714 0.51182 0.4502 0.0
C813 C 0.27785 0.52418 0.45865 0.0
C814 C 0.22496 0.52034 0.45963 0.0
C815 C 0.19985 0.50417 0.45212 0.0
C816 C 0.22937 0.49143 0.44382 0.0
C817 C 0.28234 0.49525 0.44285 0.0
C818 C 0.49736 0.50391 0.47574 0.0
C819 C 0.46378 0.44796 0.45803 0.0
O820 O 0.62415 0.4777 0.46611 0.0
O821 O 0.62637 0.46252 0.44829 0.0
O822 O 0.53439 0.46342 0.43687 0.0
O823 O 0.51397 0.49864 0.43967 0.0
O824 O 0.57996 0.51945 0.45482 0.0
O825 O 0.50515 0.53553 0.44763 0.0
O826 O 0.38955 0.5043 0.44149 0.0
O827 O 0.38782 0.52595 0.45748 0.0
O828 O 0.47081 0.52126 0.47146 0.0
O829 O 0.49869 0.4873 0.46825 0.0
O830 O 0.43554 0.46551 0.4538 0.0
O831 O 0.51199 0.4512 0.46105 0.0
H832 H 0.70829 0.47521 0.43761 0.0
H833 H 0.80008 0.48373 0.43625 0.0
H834 H 0.811 0.48289 0.47468 0.0
H835 H 0.71924 0.47456 0.47602 0.0
H836 H 0.29563 0.53725 0.46436 0.0
H837 H 0.20365 0.53022 0.46624 0.0
H838 H 0.21131 0.47905 0.43779 0.0
H839 H 0.30354 0.48565 0.43612 0.0
C840 C 0.14817 0.26222 0.45515 0.0
Eu841 Eu 0.24279 0.24836 0.45203 0.0
C842 C 0.09489 0.25349 0.45606 0.0
C843 C 0.07792 0.23384 0.44955 0.0
C844 C 1.02579 0.22763 0.44951 0.0
C845 C 0.98969 0.24091 0.45602 0.0
C846 C 1.0074 0.26004 0.46287 0.0
C847 C 0.05939 0.26625 0.46287 0.0
C848 C 0.29444 0.24901 0.43091 0.0
C849 C 0.25133 0.19149 0.44972 0.0
C850 C 0.44151 0.21088 0.44257 0.0
Eu851 Eu 0.3531 0.22435 0.451 0.0
C852 C 0.4971 0.21385 0.44462 0.0
C853 C 0.51709 0.21903 0.45595 0.0
C854 C 0.57021 0.22172 0.45757 0.0
C855 C 0.60422 0.21942 0.44786 0.0
C856 C 0.58371 0.21427 0.43654 0.0
C857 C 0.53078 0.21153 0.43496 0.0
C858 C 0.32399 0.22978 0.47425 0.0
C859 C 0.33899 0.28071 0.45656 0.0
O860 O 0.1795 0.25766 0.46399 0.0
O861 O 0.17029 0.26056 0.44471 0.0
O862 O 0.26862 0.26684 0.43498 0.0
O863 O 0.29158 0.23199 0.43807 0.0
O864 O 0.22298 0.21001 0.45239 0.0
O865 O 0.30148 0.19281 0.44773 0.0
O866 O 0.41673 0.22942 0.43864 0.0
O867 O 0.41546 0.19883 0.45052 0.0
O868 O 0.36757 0.22074 0.47099 0.0
O869 O 0.29918 0.23533 0.46501 0.0
O870 O 0.36826 0.26399 0.45179 0.0
O871 O 0.29053 0.27718 0.45942 0.0
H872 H 0.10469 0.22365 0.44426 0.0
H873 H 1.01365 0.21259 0.44428 0.0
H874 H 0.98078 0.27083 0.46788 0.0
H875 H 0.07166 0.28154 0.46791 0.0
H876 H 0.49168 0.22106 0.46353 0.0
H877 H 0.58458 0.22594 0.46638 0.0
H878 H 0.60864 0.21204 0.4289 0.0
H879 H 0.51609 0.20753 0.42614 0.0
C880 C 0.65779 0.26154 0.33113 0.0
Eu881 Eu 0.56316 0.24761 0.33428 0.0
C882 C 0.71105 0.25294 0.32998 0.0
C883 C 0.72752 0.23217 0.3356 0.0
C884 C 0.77964 0.22595 0.33552 0.0
C885 C 0.81624 0.24036 0.32981 0.0
C886 C 0.79904 0.26069 0.32385 0.0
C887 C 0.74705 0.26689 0.32395 0.0
C888 C 0.51185 0.24819 0.35544 0.0
C889 C 0.55432 0.19068 0.33658 0.0
C890 C 0.36422 0.20986 0.34369 0.0
Eu891 Eu 0.45269 0.22358 0.33534 0.0
C892 C 0.30865 0.21265 0.34158 0.0
C893 C 0.28924 0.22023 0.33055 0.0
C894 C 0.23613 0.22287 0.32889 0.0
C895 C 0.20155 0.2181 0.33825 0.0
C896 C 0.22149 0.2105 0.34927 0.0
C897 C 0.27441 0.20783 0.3509 0.0
C898 C 0.48157 0.22931 0.31206 0.0
C899 C 0.46677 0.28019 0.33033 0.0
O900 O 0.62604 0.25749 0.32229 0.0
O901 O 0.63617 0.25919 0.34159 0.0
O902 O 0.53799 0.26596 0.3514 0.0
O903 O 0.51438 0.2312 0.34825 0.0
O904 O 0.5827 0.20915 0.33377 0.0
O905 O 0.50429 0.19212 0.3387 0.0
O906 O 0.38874 0.2285 0.34762 0.0
O907 O 0.39048 0.19791 0.33575 0.0
O908 O 0.43802 0.22023 0.31534 0.0
O909 O 0.50648 0.23475 0.32131 0.0
O910 O 0.43767 0.26321 0.33493 0.0
O911 O 0.51516 0.27685 0.32732 0.0
H912 H 0.70034 0.22109 0.34029 0.0
H913 H 0.79134 0.21 0.34005 0.0
H914 H 0.826 0.27238 0.31948 0.0
H915 H 0.73519 0.28305 0.31962 0.0
H916 H 0.31512 0.2242 0.32326 0.0
H917 H 0.22222 0.22899 0.32033 0.0
H918 H 0.19613 0.20634 0.35662 0.0
H919 H 0.28865 0.20196 0.35948 0.0
C920 C 0.14778 0.465 0.3323 0.0
Eu921 Eu 0.2417 0.47968 0.33594 0.0
C922 C 0.09327 0.47232 0.33266 0.0
C923 C 0.07131 0.48271 0.34283 0.0
C924 C 1.01845 0.48736 0.34325 0.0
C925 C 0.98648 0.48169 0.33352 0.0
C926 C 1.00907 0.47196 0.32324 0.0
C927 C 0.06176 0.46729 0.32284 0.0
C928 C 0.28909 0.48044 0.35765 0.0
C929 C 0.24501 0.53614 0.33914 0.0
C930 C 0.43757 0.51699 0.34212 0.0
Eu931 Eu 0.34406 0.50381 0.33678 0.0
C932 C 0.49243 0.5106 0.34052 0.0
C933 C 0.51853 0.51544 0.32981 0.0
C934 C 0.57146 0.51147 0.32886 0.0
C935 C 0.59967 0.50269 0.3386 0.0
C936 C 0.57327 0.49745 0.34922 0.0
C937 C 0.52039 0.50143 0.35018 0.0
C938 C 0.30234 0.50282 0.31451 0.0
C939 C 0.33654 0.44672 0.33209 0.0
O940 O 0.17663 0.47405 0.32393 0.0
O941 O 0.17212 0.46264 0.34244 0.0
O942 O 0.26615 0.46207 0.35331 0.0
O943 O 0.28561 0.4974 0.35047 0.0
O944 O 0.21957 0.51787 0.33495 0.0
O945 O 0.29372 0.53436 0.34234 0.0
O946 O 0.40956 0.50343 0.34895 0.0
O947 O 0.41219 0.52478 0.33286 0.0
O948 O 0.32913 0.52016 0.31877 0.0
O949 O 0.30098 0.48617 0.32199 0.0
O950 O 0.36484 0.46449 0.33611 0.0
O951 O 0.2878 0.44955 0.32943 0.0
H952 H 0.09468 0.48678 0.35055 0.0
H953 H 1.00242 0.4947 0.35134 0.0
H954 H 0.98595 0.46779 0.31549 0.0
H955 H 0.07779 0.4593 0.3149 0.0
H956 H 0.49838 0.5228 0.32223 0.0
H957 H 0.59053 0.51598 0.32059 0.0
H958 H 0.59352 0.49035 0.35685 0.0
H959 H 0.50153 0.49773 0.35858 0.0
C960 C 0.69438 0.95778 0.09565 0.0
Eu961 Eu 0.60541 0.97128 0.08748 0.0
C962 C 0.74977 0.9603 0.09319 0.0
C963 C 0.76809 0.96669 0.08187 0.0
C964 C 0.82103 0.96906 0.07985 0.0
C965 C 0.85661 0.96514 0.08913 0.0
C966 C 0.83772 0.95885 0.10045 0.0
C967 C 0.78494 0.95646 0.10244 0.0
C968 C 0.57442 0.97573 0.0643 0.0
C969 C 0.5924 0.02777 0.08161 0.0
C970 C 0.40094 0.01007 0.08388 0.0
Eu971 Eu 0.49564 -0.00402 0.08658 0.0
C972 C 0.34744 0.00189 0.08234 0.0
C973 C 0.32844 0.98197 0.08833 0.0
C974 C 0.27593 0.97646 0.08789 0.0
C975 C 0.24142 -0.00922 0.08148 0.0
C976 C 0.26121 0.01011 0.0751 0.0
C977 C 0.31356 0.0156 0.07555 0.0
C978 C 0.54919 -0.00275 0.10747 0.0
C979 C 0.50301 0.9391 0.08915 0.0
O980 O 0.67056 0.97673 0.09938 0.0
O981 O 0.66711 0.94541 0.08804 0.0
O982 O 0.61747 0.96607 0.06749 0.0
O983 O 0.55078 0.98206 0.07356 0.0
O984 O 0.62161 0.01085 0.08624 0.0
O985 O 0.54351 0.02459 0.07902 0.0
O986 O 0.4328 0.00743 0.07494 0.0
O987 O 0.42246 0.00625 0.09425 0.0
O988 O 0.52333 0.01501 0.10334 0.0
O989 O 0.54508 0.97996 0.10052 0.0
O990 O 0.47548 0.95759 0.08597 0.0
O991 O 0.55291 0.94038 0.09148 0.0
H992 H 0.74152 0.96982 0.07461 0.0
H993 H 0.83409 0.97373 0.071 0.0
H994 H 0.86368 0.95612 0.10787 0.0
H995 H 0.77153 0.9517 0.11126 0.0
H996 H 0.35385 0.97109 0.09363 0.0
H997 H 0.26214 0.96151 0.09296 0.0
H998 H 0.23609 0.02125 0.06987 0.0
H999 H 0.32738 0.03102 0.07085 0.0
C1000 C 0.61731 0.26509 0.09189 0.0
Eu1001 Eu 0.71031 0.25204 0.08613 0.0
C1002 C 0.56233 0.25897 0.09066 0.0
C1003 C 0.53935 0.25504 0.07949 0.0
C1004 C 0.4862 0.25143 0.07861 0.0
C1005 C 0.45498 0.25171 0.08886 0.0
C1006 C 0.47853 0.25499 0.10004 0.0
C1007 C 0.5315 0.25862 0.10091 0.0
C1008 C 0.75028 0.25121 0.06372 0.0
C1009 C 0.71884 0.19505 0.0814 0.0
C1010 C 0.90711 0.2144 0.08148 0.0
Eu1011 Eu 0.81277 0.2285 0.08505 0.0
C1012 C 0.96155 0.2217 0.0829 0.0
C1013 C 0.99186 0.21129 0.09182 0.0
C1014 C 0.04441 0.21619 0.09262 0.0
C1015 C 0.06814 0.23148 0.08443 0.0
C1016 C 0.03766 0.24218 0.0756 0.0
C1017 C 0.98499 0.23735 0.07483 0.0
C1018 C 0.76678 0.22953 0.10695 0.0
C1019 C 0.8088 0.28494 0.08822 0.0
O1020 O 0.64567 0.25143 0.09858 0.0
O1021 O 0.64162 0.27267 0.08244 0.0
O1022 O 0.72341 0.26839 0.06807 0.0
O1023 O 0.75283 0.23456 0.07119 0.0
O1024 O 0.69057 0.21255 0.0857 0.0
O1025 O 0.76695 0.19841 0.07832 0.0
O1026 O 0.87936 0.22507 0.07339 0.0
O1027 O 0.88107 0.20979 0.09117 0.0
O1028 O 0.78942 0.21112 0.1026 0.0
O1029 O 0.76983 0.24631 0.09967 0.0
O1030 O 0.83446 0.26678 0.08403 0.0
O1031 O 0.76029 0.28289 0.09153 0.0
H1032 H 0.56219 0.25525 0.07143 0.0
H1033 H 0.46942 0.24913 0.06985 0.0
H1034 H 0.45596 0.25486 0.10815 0.0
H1035 H 0.54833 0.2616 0.10962 0.0
H1036 H 0.97516 0.19887 0.09804 0.0
H1037 H 0.06676 0.20738 0.09943 0.0
H1038 H 0.05459 0.25424 0.06923 0.0
H1039 H 0.96292 0.24558 0.06779 0.0
C1040 C 0.69179 0.27131 0.19308 0.0
Eu1041 Eu 0.60318 0.25822 0.20156 0.0
C1042 C 0.74759 0.26804 0.19517 0.0
C1043 C 0.77236 0.27742 0.20526 0.0
C1044 C 0.82554 0.27492 0.20671 0.0
C1045 C 0.85519 0.26304 0.19811 0.0
C1046 C 0.83014 0.25353 0.18809 0.0
C1047 C 0.7771 0.25607 0.18662 0.0
C1048 C 0.57457 0.25299 0.22488 0.0
C1049 C 0.59164 0.20179 0.20754 0.0
C1050 C 0.39977 0.21939 0.20695 0.0
Eu1051 Eu 0.49395 0.23298 0.20294 0.0
C1052 C 0.34605 0.22795 0.20647 0.0
C1053 C 0.32339 0.23537 0.19573 0.0
C1054 C 0.27116 0.2412 0.19529 0.0
C1055 C 0.24036 0.23977 0.20558 0.0
C1056 C 0.2636 0.233 0.21639 0.0
C1057 C 0.31574 0.2271 0.21681 0.0
C1058 C 0.54486 0.23234 0.18172 0.0
C1059 C 0.50003 0.29005 0.19947 0.0
O1060 O 0.66635 0.25294 0.18914 0.0
O1061 O 0.66557 0.2838 0.20082 0.0
O1062 O 0.61704 0.26304 0.22155 0.0
O1063 O 0.55043 0.24675 0.21566 0.0
O1064 O 0.61981 0.2187 0.20258 0.0
O1065 O 0.54328 0.20496 0.21061 0.0
O1066 O 0.42965 0.22813 0.21525 0.0
O1067 O 0.42368 0.21616 0.19681 0.0
O1068 O 0.51907 0.2145 0.18584 0.0
O1069 O 0.54157 0.24946 0.18882 0.0
O1070 O 0.4721 0.27118 0.20184 0.0
O1071 O 0.55063 0.28932 0.19806 0.0
H1072 H 0.75085 0.2869 0.21198 0.0
H1073 H 0.84356 0.28272 0.21447 0.0
H1074 H 0.85148 0.24395 0.18137 0.0
H1075 H 0.75911 0.24876 0.17873 0.0
H1076 H 0.34563 0.23616 0.18758 0.0
H1077 H 0.25461 0.24608 0.18679 0.0
H1078 H 0.2414 0.23209 0.22454 0.0
H1079 H 0.3322 0.22141 0.2252 0.0
C1080 C 0.62107 0.96519 0.19718 0.0
Eu1081 Eu 0.71418 0.97817 0.20298 0.0
C1082 C 0.56611 0.97144 0.19846 0.0
C1083 C 0.54202 0.97267 0.20966 0.0
C1084 C 0.48891 0.97634 0.21049 0.0
C1085 C 0.45869 0.97882 0.20015 0.0
C1086 C 0.48328 0.97821 0.18898 0.0
C1087 C 0.53626 0.97451 0.18815 0.0
C1088 C 0.75353 0.97923 0.22545 0.0
C1089 C 0.72242 0.03521 0.20761 0.0
C1090 C 0.91087 0.01604 0.20784 0.0
Eu1091 Eu 0.81656 0.00187 0.20419 0.0
C1092 C 0.96531 0.00898 0.20626 0.0
C1093 C 0.99655 0.02167 0.19833 0.0
C1094 C 0.04904 0.0168 0.19741 0.0
C1095 C 0.07179 -0.00079 0.20448 0.0
C1096 C 0.04037 0.98624 0.21231 0.0
C1097 C 0.98771 -0.00896 0.21318 0.0
C1098 C 0.77125 0.00056 0.18221 0.0
C1099 C 0.8127 0.94533 0.20115 0.0
O1100 O 0.64958 0.97883 0.19051 0.0
O1101 O 0.64546 0.95744 0.20659 0.0
O1102 O 0.72682 0.96199 0.22109 0.0
O1103 O 0.75627 -0.00415 0.21797 0.0
O1104 O 0.69438 0.01762 0.20331 0.0
O1105 O 0.77046 0.03196 0.2108 0.0
O1106 O 0.8834 0.00492 0.21582 0.0
O1107 O 0.88461 0.02105 0.19823 0.0
O1108 O 0.79381 0.01902 0.18655 0.0
O1109 O 0.77407 0.98386 0.18954 0.0
O1110 O 0.83828 0.9636 0.20527 0.0
O1111 O 0.76423 0.94725 0.19778 0.0
H1112 H 0.56394 0.97028 0.21778 0.0
H1113 H 0.47133 0.9765 0.21924 0.0
H1114 H 0.46153 0.98048 0.18082 0.0
H1115 H 0.55382 0.97358 0.17941 0.0
H1116 H 0.98055 0.0358 0.19301 0.0
H1117 H 0.07212 0.02734 0.1914 0.0
H1118 H 0.05653 0.9724 0.21778 0.0
H1119 H 0.96482 0.98096 0.21942 0.0
C1120 C 0.65558 0.96844 0.95737 0.0
Eu1121 Eu 0.56063 0.9822 0.95477 0.0
C1122 C 0.70863 0.977 0.95906 0.0
C1123 C 0.72502 -0.00129 0.95442 0.0
C1124 C 0.7771 0.00498 0.95481 0.0
C1125 C 0.81374 0.98966 0.95985 0.0
C1126 C 0.7966 0.96835 0.96488 0.0
C1127 C 0.74464 0.96212 0.96447 0.0
C1128 C 0.508 0.98188 0.93376 0.0
C1129 C 0.55153 0.03901 0.95313 0.0
C1130 C 0.36146 0.01999 0.94596 0.0
Eu1131 Eu 0.45004 0.00605 0.95413 0.0
C1132 C 0.30596 0.01734 0.94815 0.0
C1133 C 0.28698 0.00801 0.95887 0.0
C1134 C 0.23388 0.00544 0.96059 0.0
C1135 C 0.19894 0.01202 0.95158 0.0
C1136 C 0.21848 0.02141 0.94089 0.0
C1137 C 0.27137 0.02401 0.9392 0.0
C1138 C 0.48008 0.00018 0.97729 0.0
C1139 C 0.46486 0.94932 0.95882 0.0
O1140 O 0.6235 0.97042 0.96632 0.0
O1141 O 0.6342 0.9728 0.94704 0.0
O1142 O 0.53451 0.96412 0.93764 0.0
O1143 O 0.51093 -0.00126 0.94102 0.0
O1144 O 0.57967 0.02057 0.95604 0.0
O1145 O 0.50171 0.03753 0.95077 0.0
O1146 O 0.38555 0.0013 0.94199 0.0
O1147 O 0.38811 0.03181 0.9539 0.0
O1148 O 0.43639 0.00927 0.97413 0.0
O1149 O 0.50472 -0.00517 0.96799 0.0
O1150 O 0.43475 0.9664 0.95471 0.0
O1151 O 0.51367 0.95251 0.96146 0.0
H1152 H 0.69784 0.01051 0.95021 0.0
H1153 H 0.78876 0.02168 0.95101 0.0
H1154 H 0.8236 0.95597 0.9687 0.0
H1155 H 0.73284 0.94522 0.96803 0.0
H1156 H 0.31317 0.00262 0.96586 0.0
H1157 H 0.22026 -0.00208 0.96888 0.0
H1158 H 0.19283 0.02699 0.93383 0.0
H1159 H 0.28531 0.03125 0.93087 0.0
C1160 C 0.14728 0.76322 0.95824 0.0
Eu1161 Eu 0.24164 0.74879 0.95505 0.0
C1162 C 0.09334 0.75521 0.95885 0.0
C1163 C 0.07423 0.73747 0.95132 0.0
C1164 C 1.02167 0.73202 0.95127 0.0
C1165 C 0.98728 0.74413 0.95879 0.0
C1166 C 1.00707 0.76133 0.96658 0.0
C1167 C 0.05946 0.7668 0.96658 0.0
C1168 C 0.28937 0.74741 0.9334 0.0
C1169 C 0.24585 0.69247 0.95264 0.0
C1170 C 0.4379 0.7116 0.94931 0.0
Eu1171 Eu 0.34455 0.72505 0.95455 0.0
C1172 C 0.49285 0.71765 0.95086 0.0
C1173 C 0.51495 0.72094 0.96218 0.0
C1174 C 0.56797 0.72468 0.96335 0.0
C1175 C 0.6 0.72526 0.95323 0.0
C1176 C 0.57743 0.72241 0.94192 0.0
C1177 C 0.52457 0.71862 0.94076 0.0
C1178 C 0.30277 0.72669 0.97676 0.0
C1179 C 0.33583 0.78253 0.95794 0.0
O1180 O 0.17784 0.75737 0.96701 0.0
O1181 O 0.16994 0.76238 0.94785 0.0
O1182 O 0.26585 0.76579 0.93752 0.0
O1183 O 0.28618 0.73072 0.94075 0.0
O1184 O 0.22085 0.71064 0.957 0.0
O1185 O 0.29404 0.69444 0.94908 0.0
O1186 O 0.4104 0.7253 0.94244 0.0
O1187 O 0.41244 0.7041 0.95862 0.0
O1188 O 0.32956 0.70927 0.97263 0.0
O1189 O 0.30105 0.74315 0.96915 0.0
O1190 O 0.3652 0.76434 0.95501 0.0
O1191 O 0.28659 0.78023 0.96016 0.0
H1192 H 0.09968 0.72817 0.94531 0.0
H1193 H 1.0079 0.71844 0.94529 0.0
H1194 H 0.98181 0.7712 0.97238 0.0
H1195 H 0.07334 0.78061 0.97242 0.0
H1196 H 0.49146 0.72031 0.97014 0.0
H1197 H 0.58387 0.72711 0.97219 0.0
H1198 H 0.60082 0.72243 0.93393 0.0
H1199 H 0.50855 0.71594 0.93194 0.0
C1200 C 0.65471 0.76191 0.8337 0.0
Eu1201 Eu 0.56094 0.74709 0.8373 0.0
C1202 C 0.70922 0.7547 0.83393 0.0
C1203 C 0.73082 0.74277 0.84369 0.0
C1204 C 0.78371 0.73819 0.84406 0.0
C1205 C 0.81599 0.74546 0.83467 0.0
C1206 C 0.79374 0.75671 0.82476 0.0
C1207 C 0.74104 0.76131 0.82442 0.0
C1208 C 0.51317 0.74636 0.85894 0.0
C1209 C 0.55697 0.6907 0.84049 0.0
C1210 C 0.36466 0.70978 0.84296 0.0
Eu1211 Eu 0.45836 0.72311 0.83794 0.0
C1212 C 0.30986 0.71607 0.84113 0.0
C1213 C 0.28164 0.70597 0.83174 0.0
C1214 C 0.22879 0.70993 0.83069 0.0
C1215 C 0.20267 0.72396 0.83906 0.0
C1216 C 0.2311 0.73438 0.84835 0.0
C1217 C 0.28397 0.73043 0.84939 0.0
C1218 C 0.50053 0.72455 0.81571 0.0
C1219 C 0.46635 0.78021 0.83373 0.0
O1220 O 0.62574 0.75309 0.82528 0.0
O1221 O 0.63068 0.76384 0.84389 0.0
O1222 O 0.53657 0.76467 0.85466 0.0
O1223 O 0.51651 0.7294 0.85175 0.0
O1224 O 0.58269 0.70887 0.8363 0.0
O1225 O 0.50826 0.6926 0.84363 0.0
O1226 O 0.39228 0.72334 0.84989 0.0
O1227 O 0.39057 0.70205 0.83378 0.0
O1228 O 0.4737 0.70712 0.81984 0.0
O1229 O 0.50174 0.741 0.82329 0.0
O1230 O 0.43794 0.76241 0.83764 0.0
O1231 O 0.51492 0.77735 0.83095 0.0
H1232 H 0.70712 0.73744 0.85116 0.0
H1233 H 0.7995 0.72962 0.85186 0.0
H1234 H 0.81712 0.76213 0.81726 0.0
H1235 H 0.72522 0.77049 0.81678 0.0
H1236 H 0.30018 0.6946 0.82529 0.0
H1237 H 0.20832 0.70187 0.82334 0.0
H1238 H 0.21223 0.74502 0.85505 0.0
H1239 H 0.30429 0.73817 0.85686 0.0
C1240 C 0.14673 0.96481 0.83336 0.0
Eu1241 Eu 0.24077 0.97933 0.83696 0.0
C1242 C 0.09226 0.97138 0.83514 0.0
C1243 C 0.0593 0.95536 0.84081 0.0
C1244 C 1.00682 0.96011 0.84185 0.0
C1245 C 0.98591 0.981 0.83719 0.0
C1246 C 1.01913 -0.00274 0.83167 0.0
C1247 C 0.0718 -0.00747 0.83067 0.0
C1248 C 0.28707 0.98045 0.8588 0.0
C1249 C 0.24447 0.03583 0.84023 0.0
C1250 C 0.43668 0.01639 0.84307 0.0
Eu1251 Eu 0.34299 0.00326 0.83783 0.0
C1252 C 0.49155 0.00978 0.84174 0.0
C1253 C 0.51857 0.0144 0.83113 0.0
C1254 C 0.57159 0.01046 0.83045 0.0
C1255 C 0.59898 0.00193 0.84037 0.0
C1256 C 0.57163 -0.00318 0.85088 0.0
C1257 C 0.51867 0.00078 0.85156 0.0
C1258 C 0.30176 0.00198 0.8155 0.0
C1259 C 0.33497 0.94631 0.8334 0.0
O1260 O 0.17342 0.97665 0.8255 0.0
O1261 O 0.17345 0.95947 0.84285 0.0
O1262 O 0.26398 0.96209 0.85451 0.0
O1263 O 0.2842 -0.00274 0.85153 0.0
O1264 O 0.21856 0.01753 0.83626 0.0
O1265 O 0.29338 0.03408 0.84324 0.0
O1266 O 0.40816 0.00349 0.85011 0.0
O1267 O 0.4118 0.02352 0.83361 0.0
O1268 O 0.32812 0.01942 0.81977 0.0
O1269 O 0.30028 0.9854 0.82302 0.0
O1270 O 0.36286 0.96389 0.83773 0.0
O1271 O 0.28707 0.94954 0.83013 0.0
H1272 H 0.07404 0.93885 0.84423 0.0
H1273 H 0.98237 0.94706 0.84602 0.0
H1274 H 1.00441 0.01364 0.8281 0.0
H1275 H 0.09627 0.00526 0.82625 0.0
H1276 H 0.49908 0.02163 0.82343 0.0
H1277 H 0.59138 0.01486 0.82226 0.0
H1278 H 0.59121 -0.01009 0.85865 0.0
H1279 H 0.49912 -0.00274 0.8599 0.0
H1280 H 0.89664 0.43126 0.08609 0.0
H1281 H 0.03926 0.39609 0.09466 0.0
H1282 H 0.85148 0.39408 0.08704 0.0
H1283 H 0.9932 0.35865 0.09593 0.0
H1284 H 0.90604 0.29482 0.08088 0.0
H1285 H 0.95215 0.33175 0.08233 0.0
H1286 H 0.82196 0.3633 0.10006 0.0
H1287 H 0.77482 0.3262 0.09833 0.0
C1288 C 0.91846 0.41562 0.08829 0.0
C1289 C 0.97187 0.41668 0.0902 0.0
C1290 C 0.89225 0.39427 0.08894 0.0
C1291 C 0.9186 0.37337 0.09157 0.0
C1292 C 0.97185 0.37443 0.09374 0.0
C1293 C 0.99825 0.39587 0.09305 0.0
C1294 C 0.88707 0.30956 0.08513 0.0
C1295 C 0.83649 0.30758 0.08943 0.0
C1296 C 0.91386 0.33073 0.08606 0.0
C1297 C 0.89092 0.35048 0.09135 0.0
C1298 C 0.84055 0.34846 0.09582 0.0
C1299 C 0.81355 0.32721 0.09485 0.0
H1300 H 0.54013 0.89671 0.09731 0.0
H1301 H 0.40295 0.93008 0.08365 0.0
H1302 H 0.49317 0.8596 0.09911 0.0
H1303 H 0.35695 0.89317 0.08514 0.0
H1304 H 0.27383 0.82803 0.09789 0.0
H1305 H 0.3211 0.8652 0.09892 0.0
H1306 H 0.45757 0.83008 0.08614 0.0
H1307 H 0.41124 0.79315 0.08543 0.0
C1308 C 0.50015 0.89615 0.09466 0.0
C1309 C 0.47551 0.91638 0.0903 0.0
C1310 C 0.47323 0.87488 0.09566 0.0
C1311 C 0.42121 0.87342 0.09228 0.0
C1312 C 0.39663 0.89372 0.08803 0.0
C1313 C 0.42335 0.9149 0.08707 0.0
C1314 C 0.31398 0.82827 0.09538 0.0
C1315 C 0.33856 0.80764 0.09153 0.0
C1316 C 0.34105 0.84955 0.09592 0.0
C1317 C 0.39317 0.85062 0.09259 0.0
C1318 C 0.41779 0.82987 0.08895 0.0
C1319 C 0.3909 0.80867 0.08844 0.0
H1320 H 0.91037 0.93593 0.20836 0.0
H1321 H 0.7782 0.90345 0.19174 0.0
H1322 H 0.95616 0.8989 0.20748 0.0
H1323 H 0.82504 0.86622 0.19058 0.0
H1324 H 0.89993 0.79911 0.20546 0.0
H1325 H 0.85493 0.83627 0.20405 0.0
H1326 H 0.99651 0.87106 0.19435 0.0
H1327 H 0.04235 0.83368 0.19607 0.0
C1328 C 0.89111 0.92092 0.2044 0.0
C1329 C 0.84035 0.92265 0.20018 0.0
C1330 C 0.91772 0.89968 0.20381 0.0
C1331 C 0.89443 0.87957 0.19893 0.0
C1332 C 0.8439 0.88134 0.19452 0.0
C1333 C 0.81708 0.90266 0.19515 0.0
C1334 C 0.92172 0.81461 0.20298 0.0
C1335 C 0.97502 0.81338 0.20095 0.0
C1336 C 0.89562 0.83594 0.20206 0.0
C1337 C 0.92198 0.85666 0.19906 0.0
C1338 C 0.97515 0.85544 0.19682 0.0
C1339 C 1.00143 0.83402 0.19777 0.0
H1340 H 0.40579 0.4344 0.20819 0.0
H1341 H 0.27369 0.40277 0.19115 0.0
H1342 H 0.452 0.39755 0.2066 0.0
H1343 H 0.3209 0.36577 0.18925 0.0
H1344 H 0.39754 0.29777 0.20255 0.0
H1345 H 0.35173 0.33479 0.2019 0.0
H1346 H 0.49253 0.37097 0.1929 0.0
H1347 H 0.5392 0.33372 0.1939 0.0
C1348 C 0.38662 0.41962 0.20401 0.0
C1349 C 0.33579 0.42152 0.19985 0.0
C1350 C 0.41347 0.39849 0.203 0.0
C1351 C 0.39036 0.3787 0.19776 0.0
C1352 C 0.33967 0.38063 0.19346 0.0
C1353 C 0.31261 0.40183 0.19452 0.0
C1354 C 0.41898 0.31354 0.20037 0.0
C1355 C 0.47233 0.31274 0.19836 0.0
C1356 C 0.39241 0.33482 0.1999 0.0
C1357 C 0.41834 0.35589 0.19735 0.0
C1358 C 0.4715 0.35508 0.19505 0.0
C1359 C 0.49824 0.33372 0.19557 0.0
H1360 H 1.01273 0.58245 0.9466 0.0
H1361 H 0.15513 0.54685 0.95493 0.0
H1362 H 0.05936 0.61977 0.94528 0.0
H1363 H 0.20079 0.58384 0.95391 0.0
H1364 H 0.27831 0.65116 0.94234 0.0
H1365 H 0.23007 0.61435 0.94064 0.0
H1366 H 0.10175 0.64641 0.95887 0.0
H1367 H 0.1489 0.68305 0.96029 0.0
C1368 C 0.05378 0.58255 0.94815 0.0
C1369 C 0.07999 0.56166 0.95091 0.0
C1370 C 0.0805 0.60391 0.94742 0.0
C1371 C 0.13385 0.60475 0.94947 0.0
C1372 C 0.15996 0.58379 0.95207 0.0
C1373 C 0.13345 0.56255 0.95276 0.0
C1374 C 0.23978 0.65031 0.94594 0.0
C1375 C 0.21767 0.66998 0.9515 0.0
C1376 C 0.21215 0.62925 0.94499 0.0
C1377 C 0.162 0.62747 0.94962 0.0
C1378 C 0.13986 0.64727 0.95503 0.0
C1379 C 0.16727 0.66825 0.95594 0.0
H1380 H 0.78058 0.14947 0.94388 0.0
H1381 H 0.64229 0.18531 0.95509 0.0
H1382 H 0.7332 0.11229 0.94333 0.0
H1383 H 0.59588 0.14839 0.95485 0.0
H1384 H 0.51474 0.08083 0.94423 0.0
H1385 H 0.56165 0.1179 0.94213 0.0
H1386 H 0.69598 0.08568 0.95779 0.0
H1387 H 0.64999 0.04881 0.95966 0.0
C1388 C 0.74022 0.14944 0.9462 0.0
C1389 C 0.71543 0.17032 0.9496 0.0
C1390 C 0.71311 0.12816 0.94594 0.0
C1391 C 0.66076 0.12739 0.94908 0.0
C1392 C 0.63589 0.14838 0.95222 0.0
C1393 C 0.66283 0.16957 0.95246 0.0
C1394 C 0.55424 0.08171 0.94723 0.0
C1395 C 0.57847 0.06186 0.95212 0.0
C1396 C 0.58113 0.10292 0.94603 0.0
C1397 C 0.63268 0.10468 0.94973 0.0
C1398 C 0.65672 0.08481 0.95462 0.0
C1399 C 0.63003 0.06369 0.95579 0.0
H1400 H 1.01805 0.14846 0.84682 0.0
H1401 H 0.15441 0.18017 0.83174 0.0
H1402 H 0.06451 0.11139 0.84924 0.0
H1403 H 0.2 0.14324 0.8339 0.0
H1404 H 0.2824 0.0787 0.84746 0.0
H1405 H 0.23597 0.11608 0.84836 0.0
H1406 H 0.09804 0.08114 0.83621 0.0
H1407 H 0.14353 0.04402 0.83558 0.0
C1408 C 0.05777 0.14752 0.84401 0.0
C1409 C 0.08236 0.16721 0.83903 0.0
C1410 C 0.08438 0.12632 0.84538 0.0
C1411 C 0.13599 0.12441 0.84178 0.0
C1412 C 0.16061 0.14421 0.83695 0.0
C1413 C 0.13416 0.16535 0.83561 0.0
C1414 C 0.24209 0.07902 0.84508 0.0
C1415 C 0.21686 0.05843 0.84137 0.0
C1416 C 0.21554 0.10041 0.84555 0.0
C1417 C 0.16333 0.10155 0.84233 0.0
C1418 C 0.13797 0.08083 0.83891 0.0
C1419 C 0.16436 0.05954 0.83845 0.0
H1420 H 0.65761 0.68221 0.83564 0.0
H1421 H 0.51919 0.64817 0.8482 0.0
H1422 H 0.70301 0.64508 0.83659 0.0
H1423 H 0.56551 0.61081 0.84942 0.0
H1424 H 0.6463 0.54588 0.83347 0.0
H1425 H 0.60087 0.58294 0.83522 0.0
H1426 H 0.73689 0.61546 0.84997 0.0
H1427 H 0.7832 0.57826 0.84796 0.0
C1428 C 0.63687 0.66683 0.83871 0.0
C1429 C 0.58452 0.66811 0.84174 0.0
C1430 C 0.6632 0.64555 0.83936 0.0
C1431 C 0.63792 0.625 0.84308 0.0
C1432 C 0.58586 0.62633 0.84639 0.0
C1433 C 0.55937 0.64771 0.84573 0.0
C1434 C 0.66671 0.56088 0.83712 0.0
C1435 C 0.71861 0.55917 0.84049 0.0
C1436 C 0.64036 0.58209 0.83823 0.0
C1437 C 0.66518 0.60211 0.84277 0.0
C1438 C 0.71688 0.60036 0.84633 0.0
C1439 C 0.74338 0.57907 0.84519 0.0
H1440 H 0.89837 0.93469 0.58291 0.0
H1441 H 0.03506 0.90169 0.59706 0.0
H1442 H 0.85267 0.8976 0.58431 0.0
H1443 H 0.98849 0.86446 0.59873 0.0
H1444 H 0.90901 0.79812 0.5841 0.0
H1445 H 0.95438 0.8353 0.58511 0.0
H1446 H 0.81714 0.86926 0.59823 0.0
H1447 H 0.77086 0.83186 0.59696 0.0
C1448 C 0.91867 0.91955 0.5864 0.0
C1449 C 0.97061 0.9211 0.58978 0.0
C1450 C 0.89217 0.89831 0.58731 0.0
C1451 C 0.91687 0.8781 0.59164 0.0
C1452 C 0.96858 0.8797 0.59522 0.0
C1453 C 0.99523 0.90101 0.59429 0.0
C1454 C 0.88831 0.81345 0.58724 0.0
C1455 C 0.83608 0.81205 0.59037 0.0
C1456 C 0.91462 0.83476 0.58792 0.0
C1457 C 0.88945 0.85522 0.59177 0.0
C1458 C 0.83743 0.8538 0.59511 0.0
C1459 C 0.81096 0.8324 0.59441 0.0
H1460 H 0.26026 0.3323 0.59471 0.0
H1461 H 0.39692 0.30028 0.57998 0.0
H1462 H 0.30684 0.36942 0.59697 0.0
H1463 H 0.44254 0.33721 0.58199 0.0
H1464 H 0.52571 0.40113 0.59602 0.0
H1465 H 0.47833 0.36398 0.59655 0.0
H1466 H 0.34188 0.39981 0.58425 0.0
H1467 H 0.38834 0.43676 0.58402 0.0
C1468 C 0.30001 0.33318 0.59191 0.0
C1469 C 0.3247 0.31334 0.58714 0.0
C1470 C 0.3267 0.35443 0.5932 0.0
C1471 C 0.37849 0.35621 0.58971 0.0
C1472 C 0.40304 0.33633 0.58498 0.0
C1473 C 0.37655 0.31517 0.58372 0.0
C1474 C 0.48553 0.40106 0.59352 0.0
C1475 C 0.46101 0.42186 0.58989 0.0
C1476 C 0.45843 0.37979 0.59378 0.0
C1477 C 0.40636 0.37895 0.59041 0.0
C1478 C 0.38169 0.39987 0.58706 0.0
C1479 C 0.40863 0.42106 0.58682 0.0
H1480 H 0.02932 0.32875 0.69114 0.0
H1481 H 0.89208 0.29526 0.70474 0.0
H1482 H 0.98304 0.3661 0.68985 0.0
H1483 H 0.84672 0.33241 0.70371 0.0
H1484 H 0.76588 0.39902 0.69233 0.0
H1485 H 0.81185 0.36175 0.69015 0.0
H1486 H 0.9493 0.39424 0.70419 0.0
H1487 H 0.90423 0.43133 0.70611 0.0
C1488 C 0.98941 0.32933 0.69383 0.0
C1489 C 0.96458 0.3091 0.69814 0.0
C1490 C 0.96294 0.3507 0.69312 0.0
C1491 C 0.91124 0.35217 0.6967 0.0
C1492 C 0.88625 0.3318 0.70073 0.0
C1493 C 0.91256 0.31052 0.70144 0.0
C1494 C 0.80595 0.39819 0.69489 0.0
C1495 C 0.83121 0.41807 0.69948 0.0
C1496 C 0.83225 0.37687 0.69366 0.0
C1497 C 0.88421 0.37509 0.697 0.0
C1498 C 0.90956 0.39511 0.70137 0.0
C1499 C 0.88342 0.41634 0.70258 0.0
H1500 H 0.53797 0.83001 0.69454 0.0
H1501 H 0.40127 0.79735 0.70894 0.0
H1502 H 0.49169 0.86727 0.69279 0.0
H1503 H 0.35589 0.83445 0.70745 0.0
H1504 H 0.27396 0.89953 0.69435 0.0
H1505 H 0.32057 0.86227 0.69321 0.0
H1506 H 0.45746 0.89674 0.7063 0.0
H1507 H 0.41172 0.93383 0.70717 0.0
C1508 C 0.49822 0.83078 0.69735 0.0
C1509 C 0.47346 0.81077 0.70193 0.0
C1510 C 0.47175 0.85209 0.69637 0.0
C1511 C 0.4201 0.85376 0.69996 0.0
C1512 C 0.39534 0.83366 0.70441 0.0
C1513 C 0.42166 0.81243 0.70538 0.0
C1514 C 0.31405 0.89914 0.69691 0.0
C1515 C 0.33895 0.91958 0.70093 0.0
C1516 C 0.3407 0.87782 0.69629 0.0
C1517 C 0.39268 0.87658 0.69969 0.0
C1518 C 0.4177 0.89715 0.70346 0.0
C1519 C 0.3912 0.9184 0.70407 0.0
H1520 H 0.02674 0.07862 0.44123 0.0
H1521 H 0.16051 0.04632 0.45718 0.0
H1522 H 0.07382 0.11571 0.43951 0.0
H1523 H 0.20662 0.08326 0.45575 0.0
H1524 H 0.29107 0.14845 0.44328 0.0
H1525 H 0.24517 0.11096 0.44202 0.0
H1526 H 0.10519 0.14554 0.453 0.0
H1527 H 0.15013 0.18276 0.45398 0.0
C1528 C 0.06603 0.07942 0.44438 0.0
C1529 C 0.08966 0.05957 0.44941 0.0
C1530 C 0.09297 0.10065 0.44342 0.0
C1531 C 0.14398 0.10242 0.44751 0.0
C1532 C 0.16772 0.08243 0.45235 0.0
C1533 C 0.14095 0.06127 0.45328 0.0
C1534 C 0.25049 0.14803 0.44537 0.0
C1535 C 0.22447 0.1686 0.44877 0.0
C1536 C 0.2242 0.12657 0.44468 0.0
C1537 C 0.17148 0.1253 0.4474 0.0
C1538 C 0.14552 0.14594 0.45065 0.0
C1539 C 0.17161 0.1673 0.45131 0.0
H1540 H 0.64384 0.68253 0.45707 0.0
H1541 H 0.78 0.65014 0.44233 0.0
H1542 H 0.59821 0.64547 0.45544 0.0
H1543 H 0.73348 0.61293 0.44043 0.0
H1544 H 0.65494 0.54621 0.45517 0.0
H1545 H 0.70029 0.58337 0.45397 0.0
H1546 H 0.56202 0.61737 0.44144 0.0
H1547 H 0.51578 0.57998 0.44291 0.0
C1548 C 0.66404 0.66753 0.45339 0.0
C1549 C 0.71583 0.66925 0.44993 0.0
C1550 C 0.63756 0.64631 0.45234 0.0
C1551 C 0.66212 0.62626 0.44778 0.0
C1552 C 0.71366 0.62804 0.4441 0.0
C1553 C 0.74029 0.64934 0.44516 0.0
C1554 C 0.63401 0.56153 0.4521 0.0
C1555 C 0.58148 0.56016 0.44924 0.0
C1556 C 0.66031 0.58284 0.45131 0.0
C1557 C 0.63483 0.60333 0.44761 0.0
C1558 C 0.58257 0.6019 0.44446 0.0
C1559 C 0.55612 0.5805 0.44526 0.0
H1560 H 0.14511 0.54462 0.33343 0.0
H1561 H 0.28091 0.57861 0.34751 0.0
H1562 H 0.09886 0.58152 0.33441 0.0
H1563 H 0.23368 0.61572 0.34877 0.0
H1564 H 0.15418 0.68145 0.33373 0.0
H1565 H 0.19973 0.64442 0.335 0.0
H1566 H 0.06189 0.61027 0.3477 0.0
H1567 H 1.01541 0.64754 0.34618 0.0
C1568 C 0.16511 0.55994 0.33684 0.0
C1569 C 0.217 0.55868 0.34031 0.0
C1570 C 0.13825 0.5811 0.3375 0.0
C1571 C 0.16246 0.60159 0.34167 0.0
C1572 C 0.21409 0.60028 0.34538 0.0
C1573 C 0.24113 0.57903 0.34469 0.0
C1574 C 0.13332 0.66613 0.33683 0.0
C1575 C 0.08088 0.66749 0.33981 0.0
C1576 C 0.15977 0.64488 0.33766 0.0
C1577 C 0.13461 0.6244 0.3415 0.0
C1578 C 0.08227 0.62572 0.34459 0.0
C1579 C 0.05563 0.64706 0.34374 0.0
H1580 H 0.64283 0.04408 0.33355 0.0
H1581 H 0.77981 0.07883 0.34647 0.0
H1582 H 0.59715 0.08122 0.33383 0.0
H1583 H 0.73322 0.11615 0.34706 0.0
H1584 H 0.65414 0.18105 0.33115 0.0
H1585 H 0.69906 0.14389 0.33286 0.0
H1586 H 0.56131 0.11116 0.34656 0.0
H1587 H 0.51552 0.14849 0.34458 0.0
C1588 C 0.66319 0.05962 0.33656 0.0
C1589 C 0.71525 0.0585 0.3399 0.0
C1590 C 0.63669 0.08093 0.33682 0.0
C1591 C 0.66145 0.10168 0.34046 0.0
C1592 C 0.71322 0.10051 0.34406 0.0
C1593 C 0.73988 0.07913 0.34377 0.0
C1594 C 0.6332 0.16599 0.33456 0.0
C1595 C 0.581 0.16777 0.33769 0.0
C1596 C 0.65926 0.14468 0.33564 0.0
C1597 C 0.63394 0.12456 0.3399 0.0
C1598 C 0.58181 0.12631 0.34312 0.0
C1599 C 0.55556 0.14769 0.342 0.0
H1600 H 0.05682 0.53274 0.12295 0.0
H1601 H 0.09836 0.46033 0.1166 0.0
H1602 H 0.10993 0.5331 0.1409 0.0
H1603 H 0.15329 0.46084 0.13423 0.0
H1604 H 0.20826 0.4619 0.173 0.0
H1605 H 0.15373 0.46129 0.15529 0.0
H1606 H 0.19564 0.53345 0.14782 0.0
H1607 H 0.24838 0.53422 0.16581 0.0
C1608 C 0.07756 0.51692 0.12536 0.0
C1609 C 0.07356 0.49656 0.11831 0.0
C1610 C 0.10848 0.51715 0.13562 0.0
C1611 C 0.13643 0.49703 0.1391 0.0
C1612 C 0.13202 0.47661 0.13201 0.0
C1613 C 0.10081 0.47635 0.12181 0.0
C1614 C 0.20566 0.47765 0.16758 0.0
C1615 C 0.23241 0.49815 0.17086 0.0
C1616 C 0.17465 0.47727 0.15734 0.0
C1617 C 0.16988 0.49734 0.15002 0.0
C1618 C 0.19737 0.51776 0.15328 0.0
C1619 C 0.22809 0.51816 0.16356 0.0
H1620 H 0.20926 0.76805 0.11841 0.0
H1621 H 0.2465 0.69546 0.12564 0.0
H1622 H 0.15454 0.76906 0.13608 0.0
H1623 H 0.19367 0.69661 0.14359 0.0
H1624 H 0.05522 0.69808 0.16839 0.0
H1625 H 0.10795 0.69753 0.15041 0.0
H1626 H 0.15373 0.76949 0.15715 0.0
H1627 H 0.09911 0.77021 0.17483 0.0
C1628 C 0.20595 0.75232 0.12382 0.0
C1629 C 0.23193 0.73162 0.12056 0.0
C1630 C 0.17485 0.75293 0.13404 0.0
C1631 C 0.16923 0.73289 0.14135 0.0
C1632 C 0.19601 0.71229 0.13813 0.0
C1633 C 0.2268 0.71166 0.12787 0.0
C1634 C 0.07637 0.71381 0.16598 0.0
C1635 C 0.07323 0.73413 0.17309 0.0
C1636 C 0.10708 0.71346 0.15571 0.0
C1637 C 0.1357 0.73342 0.15226 0.0
C1638 C 0.13198 0.75384 0.15936 0.0
C1639 C 0.10095 0.75421 0.16958 0.0
H1640 H 0.8056 0.44692 0.87459 0.0
H1641 H 0.84775 0.51894 0.86727 0.0
H1642 H 0.85869 0.4474 0.89251 0.0
H1643 H 0.90244 0.5193 0.88499 0.0
H1644 H 0.95599 0.51947 0.92403 0.0
H1645 H 0.90177 0.5195 0.90625 0.0
H1646 H 0.94539 0.44745 0.89914 0.0
H1647 H 0.99806 0.4473 0.91716 0.0
C1648 C 0.8264 0.46286 0.8768 0.0
C1649 C 0.82253 0.48286 0.86948 0.0
C1650 C 0.85729 0.4631 0.88704 0.0
C1651 C 0.88537 0.48335 0.89026 0.0
C1652 C 0.88109 0.50345 0.88294 0.0
C1653 C 0.84998 0.50321 0.87271 0.0
C1654 C 0.95382 0.50363 0.91867 0.0
C1655 C 0.98101 0.48332 0.92206 0.0
C1656 C 0.92301 0.50368 0.9084 0.0
C1657 C 0.91882 0.48346 0.90118 0.0
C1658 C 0.94675 0.46325 0.90453 0.0
C1659 C 0.97737 0.46319 0.91483 0.0
H1660 H 0.95337 0.20816 0.86536 0.0
H1661 H 0.9983 0.27993 0.87243 0.0
H1662 H 0.89866 0.20851 0.88307 0.0
H1663 H 0.94533 0.28014 0.89034 0.0
H1664 H 0.80626 0.28227 0.91484 0.0
H1665 H 0.85896 0.28112 0.89687 0.0
H1666 H 0.89807 0.20866 0.90432 0.0
H1667 H 0.84367 0.2097 0.92206 0.0
C1668 C 0.95177 0.22398 0.87074 0.0
C1669 C 0.97995 0.24407 0.86743 0.0
C1670 C 0.92065 0.22415 0.88097 0.0
C1671 C 0.9171 0.2444 0.88821 0.0
C1672 C 0.94606 0.26435 0.88493 0.0
C1673 C 0.97692 0.26419 0.87469 0.0
C1674 C 0.82593 0.26606 0.9126 0.0
C1675 C 0.82092 0.24612 0.91992 0.0
C1676 C 0.85661 0.26543 0.90233 0.0
C1677 C 0.88338 0.24483 0.89908 0.0
C1678 C 0.8778 0.22478 0.90639 0.0
C1679 C 0.84686 0.22541 0.91664 0.0
H1680 H 0.09574 0.03479 0.61827 0.0
H1681 H 0.0675 0.9604 0.62187 0.0
H1682 H 0.15013 0.03406 0.63584 0.0
H1683 H 0.11789 0.95969 0.64017 0.0
H1684 H 0.24297 0.95963 0.6684 0.0
H1685 H 0.19237 0.95962 0.65012 0.0
H1686 H 0.15824 0.03351 0.65555 0.0
H1687 H 0.21283 0.0336 0.67309 0.0
C1688 C 0.10057 0.0183 0.623 0.0
C1689 C 0.07726 -0.00231 0.61873 0.0
C1690 C 0.13149 0.01784 0.63323 0.0
C1691 C 0.13867 -0.00315 0.63979 0.0
C1692 C 0.11475 0.9762 0.63544 0.0
C1693 C 0.08521 0.97657 0.62495 0.0
C1694 C 0.22478 0.97585 0.66556 0.0
C1695 C 0.2323 -0.00333 0.67207 0.0
C1696 C 0.19512 0.97588 0.65509 0.0
C1697 C 0.17065 -0.00338 0.65105 0.0
C1698 C 0.17732 0.01727 0.65791 0.0
C1699 C 0.20836 0.01736 0.66812 0.0
H1700 H 0.20391 0.19543 0.6149 0.0
H1701 H 0.22799 0.27003 0.61895 0.0
H1702 H 0.14971 0.19515 0.63255 0.0
H1703 H 0.17812 0.26978 0.63726 0.0
H1704 H 0.05563 0.26869 0.66572 0.0
H1705 H 0.10455 0.2691 0.64725 0.0
H1706 H 0.14024 0.19524 0.65223 0.0
H1707 H 0.08702 0.19475 0.67001 0.0
C1708 C 0.19816 0.21174 0.61973 0.0
C1709 C 0.2202 0.23272 0.61557 0.0
C1710 C 0.16735 0.21164 0.63 0.0
C1711 C 0.15906 0.23242 0.63668 0.0
C1712 C 0.18188 0.2534 0.63243 0.0
C1713 C 0.2112 0.25359 0.62193 0.0
C1714 C 0.07375 0.25256 0.66275 0.0
C1715 C 0.06715 0.23166 0.66923 0.0
C1716 C 0.10253 0.25276 0.65216 0.0
C1717 C 0.12721 0.23219 0.64796 0.0
C1718 C 0.12114 0.21139 0.65474 0.0
C1719 C 0.09088 0.21107 0.66509 0.0
H1720 H 0.96744 0.94451 0.42193 0.0
H1721 H 0.99367 0.01889 0.41753 0.0
H1722 H 0.91119 0.94443 0.40465 0.0
H1723 H 0.94132 0.01878 0.39954 0.0
H1724 H 0.8125 0.01791 0.37242 0.0
H1725 H 0.86515 0.01832 0.39035 0.0
H1726 H 0.8999 0.94449 0.38495 0.0
H1727 H 0.84333 0.944 0.36773 0.0
C1728 C 0.96181 0.96081 0.41708 0.0
C1729 C 0.98506 0.98168 0.42104 0.0
C1730 C 0.92975 0.9608 0.40702 0.0
C1731 C 0.92123 0.98157 0.40037 0.0
C1732 C 0.94534 0.00243 0.40438 0.0
C1733 C 0.97606 0.00253 0.41468 0.0
C1734 C 0.83121 0.00178 0.37519 0.0
C1735 C 0.82337 0.98089 0.36876 0.0
C1736 C 0.8621 0.00198 0.38545 0.0
C1737 C 0.88756 0.98141 0.38938 0.0
C1738 C 0.88027 0.96063 0.38265 0.0
C1739 C 0.84803 0.96031 0.37263 0.0
H1740 H 0.95983 0.78459 0.36817 0.0
H1741 H 0.9851 0.7101 0.37223 0.0
H1742 H 0.90394 0.78447 0.38553 0.0
H1743 H 0.93345 0.70998 0.39027 0.0
H1744 H 0.80776 0.71016 0.41794 0.0
H1745 H 0.85854 0.71021 0.39975 0.0
H1746 H 0.89253 0.78414 0.40519 0.0
H1747 H 0.83754 0.78417 0.42268 0.0
C1748 C 0.95402 0.76823 0.37295 0.0
C1749 C 0.97687 0.74738 0.36887 0.0
C1750 C 0.92219 0.7681 0.38305 0.0
C1751 C 0.91364 0.74723 0.38964 0.0
C1752 C 0.93737 0.72641 0.38549 0.0
C1753 C 0.96772 0.72643 0.37516 0.0
C1754 C 0.82589 0.72641 0.41513 0.0
C1755 C 0.81832 0.74719 0.42165 0.0
C1756 C 0.85574 0.72648 0.40471 0.0
C1757 C 0.88056 0.7472 0.40072 0.0
C1758 C 0.87343 0.76789 0.40753 0.0
C1759 C 0.84212 0.76794 0.41771 0.0
H1760 H 0.59095 0.53523 0.6182 0.0
H1761 H 0.55863 0.46135 0.62254 0.0
H1762 H 0.64695 0.53432 0.63551 0.0
H1763 H 0.61069 0.46053 0.64057 0.0
H1764 H 0.73768 0.45929 0.66814 0.0
H1765 H 0.68613 0.45972 0.65003 0.0
H1766 H 0.65759 0.53417 0.65519 0.0
H1767 H 0.71311 0.53375 0.6726 0.0
C1768 C 0.59522 0.51883 0.62304 0.0
C1769 C 0.57029 0.49839 0.61905 0.0
C1770 C 0.62712 0.51827 0.63311 0.0
C1771 C 0.63376 0.49738 0.63979 0.0
C1772 C 0.60811 0.47694 0.63572 0.0
C1773 C 0.57757 0.47737 0.6254 0.0
C1774 C 0.7206 0.47573 0.66528 0.0
C1775 C 0.72985 0.49652 0.6717 0.0
C1776 C 0.69034 0.47602 0.65491 0.0
C1777 C 0.66692 0.49701 0.65086 0.0
C1778 C 0.67565 0.5177 0.65758 0.0
C1779 C 0.70729 0.5175 0.66771 0.0
H1780 H 0.75207 0.69974 0.62466 0.0
H1781 H 0.71026 0.77186 0.61755 0.0
H1782 H 0.69961 0.70013 0.64266 0.0
H1783 H 0.6562 0.77214 0.63538 0.0
H1784 H 0.60168 0.77124 0.6745 0.0
H1785 H 0.65633 0.77188 0.65676 0.0
H1786 H 0.61267 0.70007 0.64899 0.0
H1787 H 0.55969 0.69931 0.6669 0.0
C1788 C 0.73152 0.71569 0.62694 0.0
C1789 C 0.7352 0.73573 0.61964 0.0
C1790 C 0.70099 0.71588 0.63723 0.0
C1791 C 0.67307 0.73612 0.64052 0.0
C1792 C 0.67738 0.75629 0.63326 0.0
C1793 C 0.70813 0.7561 0.62297 0.0
C1794 C 0.60395 0.7556 0.669 0.0
C1795 C 0.57661 0.73518 0.67216 0.0
C1796 C 0.63502 0.756 0.65876 0.0
C1797 C 0.63937 0.73599 0.65138 0.0
C1798 C 0.61127 0.71569 0.65452 0.0
C1799 C 0.58044 0.7153 0.66476 0.0
H1800 H 0.31078 0.51772 0.37214 0.0
H1801 H 0.34007 0.4436 0.36779 0.0
H1802 H 0.36188 0.51805 0.3903 0.0
H1803 H 0.39519 0.44398 0.38528 0.0
H1804 H 0.46075 0.44438 0.42252 0.0
H1805 H 0.4057 0.44417 0.40502 0.0
H1806 H 0.43741 0.51833 0.39971 0.0
H1807 H 0.48846 0.51858 0.41788 0.0
C1808 C 0.32879 0.50152 0.37504 0.0
C1809 C 0.32101 0.4806 0.36863 0.0
C1810 C 0.35884 0.50167 0.38544 0.0
C1811 C 0.38354 0.48103 0.38953 0.0
C1812 C 0.37618 0.46019 0.38284 0.0
C1813 C 0.34476 0.45993 0.37267 0.0
C1814 C 0.45573 0.4606 0.41758 0.0
C1815 C 0.47901 0.48147 0.42154 0.0
C1816 C 0.42435 0.46053 0.4074 0.0
C1817 C 0.41656 0.48121 0.40063 0.0
C1818 C 0.4408 0.50205 0.40464 0.0
C1819 C 0.4708 0.50223 0.41504 0.0
H1820 H 0.3442 0.28619 0.42064 0.0
H1821 H 0.31628 0.21191 0.41646 0.0
H1822 H 0.39805 0.28604 0.40292 0.0
H1823 H 0.36564 0.21178 0.3981 0.0
H1824 H 0.48898 0.21128 0.36997 0.0
H1825 H 0.43946 0.21158 0.38831 0.0
H1826 H 0.40853 0.28587 0.38323 0.0
H1827 H 0.46251 0.2856 0.36553 0.0
C1828 C 0.34899 0.26987 0.41576 0.0
C1829 C 0.32609 0.24908 0.41992 0.0
C1830 C 0.37961 0.26973 0.40546 0.0
C1831 C 0.38684 0.2489 0.39876 0.0
C1832 C 0.36287 0.22816 0.40296 0.0
C1833 C 0.33379 0.22819 0.41349 0.0
C1834 C 0.47173 0.22766 0.37288 0.0
C1835 C 0.47992 0.24843 0.36639 0.0
C1836 C 0.44258 0.22788 0.38339 0.0
C1837 C 0.41901 0.24876 0.38752 0.0
C1838 C 0.42666 0.26947 0.38075 0.0
C1839 C 0.45736 0.26936 0.37046 0.0
H1840 H 0.71991 0.03705 0.17187 0.0
H1841 H 0.75168 0.9631 0.16771 0.0
H1842 H 0.66557 0.03621 0.15425 0.0
H1843 H 0.70151 0.96234 0.14941 0.0
H1844 H 0.57456 0.96061 0.12197 0.0
H1845 H 0.62623 0.9614 0.14001 0.0
H1846 H 0.6549 0.03577 0.13452 0.0
H1847 H 0.59907 0.035 0.11713 0.0
C1848 C 0.71596 0.02067 0.167 0.0
C1849 C 0.74007 0.00016 0.17114 0.0
C1850 C 0.68501 0.02014 0.15676 0.0
C1851 C 0.67855 -0.00079 0.1501 0.0
C1852 C 0.7038 0.97877 0.15426 0.0
C1853 C 0.73331 0.97917 0.16473 0.0
C1854 C 0.59179 0.97712 0.12472 0.0
C1855 C 0.58243 -0.00223 0.11822 0.0
C1856 C 0.62214 0.97761 0.13506 0.0
C1857 C 0.64561 -0.00132 0.13899 0.0
C1858 C 0.63686 0.01925 0.13219 0.0
C1859 C 0.60508 0.01885 0.12208 0.0
H1860 H 0.71567 0.19292 0.11729 0.0
H1861 H 0.7468 0.26696 0.12144 0.0
H1862 H 0.66128 0.19365 0.1349 0.0
H1863 H 0.69657 0.26761 0.13971 0.0
H1864 H 0.56988 0.26906 0.16722 0.0
H1865 H 0.62146 0.2684 0.14916 0.0
H1866 H 0.65037 0.19405 0.1546 0.0
H1867 H 0.59464 0.1947 0.17199 0.0
C1868 C 0.71157 0.2093 0.12216 0.0
C1869 C 0.73553 0.22986 0.11802 0.0
C1870 C 0.68058 0.20976 0.13239 0.0
C1871 C 0.67391 0.23069 0.13904 0.0
C1872 C 0.699 0.25118 0.13488 0.0
C1873 C 0.72856 0.25084 0.12442 0.0
C1874 C 0.58711 0.25259 0.16444 0.0
C1875 C 0.57785 0.2319 0.17093 0.0
C1876 C 0.61743 0.25217 0.1541 0.0
C1877 C 0.64095 0.23114 0.15015 0.0
C1878 C 0.63228 0.21055 0.15694 0.0
C1879 C 0.60054 0.21087 0.16705 0.0
H1880 H 0.33954 0.94393 0.86876 0.0
H1881 H 0.30595 0.01753 0.87362 0.0
H1882 H 0.3938 0.94438 0.88639 0.0
H1883 H 0.35597 0.01785 0.89194 0.0
H1884 H 0.48165 0.01908 0.91972 0.0
H1885 H 0.43053 0.01883 0.90158 0.0
H1886 H 0.40445 0.94398 0.90607 0.0
H1887 H 0.45981 0.94429 0.92353 0.0
C1888 C 0.34309 0.96014 0.87379 0.0
C1889 C 0.31846 0.98067 0.86984 0.0
C1890 C 0.37399 0.96044 0.88404 0.0
C1891 C 0.37983 0.98113 0.89092 0.0
C1892 C 0.35416 0.00161 0.88693 0.0
C1893 C 0.32473 0.00145 0.87644 0.0
C1894 C 0.46512 0.0026 0.91672 0.0
C1895 C 0.47507 0.98169 0.92296 0.0
C1896 C 0.43508 0.0024 0.90633 0.0
C1897 C 0.4125 0.98136 0.90207 0.0
C1898 C 0.42182 0.96052 0.90863 0.0
C1899 C 0.45332 0.96064 0.91879 0.0
H1900 H 0.49138 0.70943 0.87366 0.0
H1901 H 0.46124 0.78331 0.86863 0.0
H1902 H 0.43982 0.70958 0.89175 0.0
H1903 H 0.40567 0.78338 0.88603 0.0
H1904 H 0.3395 0.7843 0.92313 0.0
H1905 H 0.39499 0.78391 0.90573 0.0
H1906 H 0.36426 0.70947 0.90113 0.0
H1907 H 0.31276 0.70985 0.91923 0.0
C1908 C 0.47306 0.72568 0.87639 0.0
C1909 C 0.48077 0.7464 0.86983 0.0
C1910 C 0.44277 0.7258 0.88675 0.0
C1911 C 0.41777 0.74652 0.89063 0.0
C1912 C 0.42496 0.76713 0.88376 0.0
C1913 C 0.45663 0.76714 0.87365 0.0
C1914 C 0.34485 0.76788 0.91837 0.0
C1915 C 0.32169 0.74713 0.92251 0.0
C1916 C 0.37647 0.76761 0.90824 0.0
C1917 C 0.3846 0.74667 0.90169 0.0
C1918 C 0.36056 0.72594 0.90589 0.0
C1919 C 0.33032 0.72612 0.91625 0.0
H1920 H 0.12193 0.67975 0.09003 0.0
H1921 H 0.26662 0.65682 0.07508 0.0
H1922 H 0.09039 0.6391 0.08914 0.0
H1923 H 0.23515 0.61673 0.07419 0.0
H1924 H 0.18325 0.54484 0.08884 0.0
H1925 H 0.21308 0.58562 0.08893 0.0
H1926 H 0.06848 0.60816 0.07394 0.0
H1927 H 0.03845 0.56766 0.07386 0.0
C1928 C 0.14674 0.66616 0.08647 0.0
C1929 C 0.1968 0.67152 0.0827 0.0
C1930 C 0.12874 0.64294 0.08595 0.0
C1931 C 0.16064 0.62477 0.08171 0.0
C1932 C 0.21012 0.63029 0.0777 0.0
C1933 C 0.22793 0.65336 0.07816 0.0
C1934 C 0.15802 0.55844 0.08546 0.0
C1935 C 0.10852 0.55294 0.08135 0.0
C1936 C 0.17506 0.58179 0.08552 0.0
C1937 C 0.14285 0.60003 0.08152 0.0
C1938 C 0.09376 0.59449 0.07724 0.0
C1939 C 0.07684 0.57121 0.07712 0.0
H1940 H 0.04201 0.66286 0.21803 0.0
H1941 H 0.18472 0.68494 0.20174 0.0
H1942 H 0.0709 0.62218 0.21768 0.0
H1943 H 0.21339 0.64402 0.20139 0.0
H1944 H 0.12095 0.55005 0.20153 0.0
H1945 H 0.09002 0.5908 0.20244 0.0
H1946 H 0.23722 0.61321 0.2161 0.0
H1947 H 0.26806 0.57309 0.2152 0.0
C1948 C 0.0797 0.6591 0.21443 0.0
C1949 C 0.11117 0.67722 0.20993 0.0
C1950 C 0.09594 0.63573 0.21415 0.0
C1951 C 0.14414 0.62995 0.20945 0.0
C1952 C 0.17608 0.64804 0.20513 0.0
C1953 C 0.15971 0.67146 0.20534 0.0
C1954 C 0.14645 0.56368 0.2048 0.0
C1955 C 0.19698 0.55831 0.20821 0.0
C1956 C 0.1288 0.58695 0.20533 0.0
C1957 C 0.16153 0.60516 0.20922 0.0
C1958 C 0.21151 0.59963 0.21286 0.0
C1959 C 0.22898 0.57653 0.21239 0.0
H1960 H 0.93179 0.29822 0.95019 0.0
H1961 H 0.78655 0.32149 0.96473 0.0
H1962 H 0.96341 0.33888 0.951 0.0
H1963 H 0.81808 0.36154 0.96553 0.0
H1964 H 0.87003 0.43312 0.95086 0.0
H1965 H 0.84077 0.39226 0.95061 0.0
H1966 H 0.98444 0.37008 0.96622 0.0
H1967 H 1.01394 0.41067 0.96644 0.0
C1968 C 0.90688 0.31188 0.95364 0.0
C1969 C 0.85664 0.30663 0.95731 0.0
C1970 C 0.92491 0.3351 0.95411 0.0
C1971 C 0.89284 0.35334 0.9582 0.0
C1972 C 0.84321 0.34792 0.96212 0.0
C1973 C 0.82536 0.32487 0.96171 0.0
C1974 C 0.8952 0.41957 0.95432 0.0
C1975 C 0.94423 0.42519 0.95867 0.0
C1976 C 0.87849 0.3962 0.95418 0.0
C1977 C 0.91057 0.37805 0.95834 0.0
C1978 C 0.95929 0.38369 0.9628 0.0
C1979 C 0.97588 0.40701 0.96301 0.0
H1980 H 0.78595 0.40656 0.84128 0.0
H1981 H 0.92954 0.43189 0.82693 0.0
H1982 H 0.81735 0.36644 0.84056 0.0
H1983 H 0.96051 0.39134 0.82552 0.0
H1984 H 1.01962 0.31979 0.8367 0.0
H1985 H 0.98844 0.35988 0.83718 0.0
H1986 H 0.83642 0.33525 0.82775 0.0
H1987 H 0.86763 0.29464 0.82795 0.0
C1988 C 0.82421 0.40342 0.83783 0.0
C1989 C 0.85544 0.4222 0.83412 0.0
C1990 C 0.84204 0.38039 0.83732 0.0
C1991 C 0.89124 0.37554 0.83286 0.0
C1992 C 0.92262 0.39444 0.82916 0.0
C1993 C 0.90503 0.41765 0.82992 0.0
C1994 C 0.97951 0.32294 0.83469 0.0
C1995 C 0.94593 0.30418 0.83224 0.0
C1996 C 0.96171 0.34599 0.83488 0.0
C1997 C 0.91002 0.35091 0.83241 0.0
C1998 C 0.87637 0.33207 0.82987 0.0
C1999 C 0.89411 0.30884 0.82992 0.0
H2000 H 0.04505 0.07291 0.59251 0.0
H2001 H 0.17684 0.04858 0.57276 0.0
H2002 H 0.07458 0.11326 0.59073 0.0
H2003 H 0.20541 0.08936 0.57024 0.0
H2004 H 0.26909 0.16168 0.57944 0.0
H2005 H 0.24045 0.1213 0.58023 0.0
H2006 H 0.08271 0.14463 0.57757 0.0
H2007 H 0.11177 0.18555 0.57751 0.0
C2008 C 0.08037 0.07636 0.5877 0.0
C2009 C 0.10888 0.05782 0.58277 0.0
C2010 C 0.09698 0.09951 0.58654 0.0
C2011 C 0.14198 0.10473 0.58018 0.0
C2012 C 0.17085 0.08601 0.57532 0.0
C2013 C 0.15469 0.06268 0.57674 0.0
C2014 C 0.22822 0.15826 0.5789 0.0
C2015 C 0.19255 0.17681 0.57842 0.0
C2016 C 0.2118 0.13497 0.57929 0.0
C2017 C 0.15926 0.12956 0.57898 0.0
C2018 C 0.12351 0.14814 0.57808 0.0
C2019 C 0.14001 0.17159 0.57795 0.0
H2020 H 0.17807 0.18338 0.71176 0.0
H2021 H 0.03221 0.15618 0.69965 0.0
H2022 H 0.21077 0.14319 0.71344 0.0
H2023 H 0.06525 0.11636 0.70058 0.0
H2024 H 0.12214 0.04546 0.71276 0.0
H2025 H 0.08906 0.08574 0.71321 0.0
H2026 H 0.23741 0.1117 0.70176 0.0
H2027 H 0.27062 0.07194 0.70204 0.0
C2028 C 0.15336 0.16879 0.70934 0.0
C2029 C 0.10275 0.17273 0.70566 0.0
C2030 C 0.17195 0.14578 0.71025 0.0
C2031 C 0.14055 0.12645 0.70718 0.0
C2032 C 0.09011 0.13066 0.70332 0.0
C2033 C 0.0713 0.15352 0.70269 0.0
C2034 C 0.14742 0.05989 0.71041 0.0
C2035 C 0.19883 0.05573 0.70746 0.0
C2036 C 0.1286 0.08293 0.71061 0.0
C2037 C 0.16066 0.10205 0.70756 0.0
C2038 C 0.21195 0.0976 0.70447 0.0
C2039 C 0.2309 0.07475 0.70454 0.0
H2040 H 0.93096 0.7957 0.46274 0.0
H2041 H 0.78249 0.82207 0.45204 0.0
H2042 H 0.96363 0.83602 0.46362 0.0
H2043 H 0.81534 0.86196 0.45213 0.0
H2044 H 0.87396 0.93363 0.46272 0.0
H2045 H 0.84125 0.89334 0.46389 0.0
H2046 H 0.98802 0.86716 0.45155 0.0
H2047 H 1.02099 0.90703 0.45117 0.0
C2048 C 0.90561 0.81013 0.46048 0.0
C2049 C 0.85431 0.8059 0.45742 0.0
C2050 C 0.9242 0.83322 0.4609 0.0
C2051 C 0.89207 0.85237 0.45797 0.0
C2052 C 0.84089 0.84786 0.45476 0.0
C2053 C 0.82213 0.82493 0.45461 0.0
C2054 C 0.89896 0.91915 0.46032 0.0
C2055 C 0.9499 0.9233 0.45695 0.0
C2056 C 0.88034 0.89608 0.46092 0.0
C2057 C 0.91206 0.87687 0.45785 0.0
C2058 C 0.96284 0.88131 0.4543 0.0
C2059 C 0.98164 0.90422 0.45398 0.0
H2060 H 0.86999 0.79598 0.33885 0.0
H2061 H 1.01634 0.81856 0.32458 0.0
H2062 H 0.84006 0.83674 0.33842 0.0
H2063 H 0.98624 0.85899 0.32415 0.0
H2064 H 0.93115 0.93094 0.33939 0.0
H2065 H 0.96272 0.89031 0.33896 0.0
H2066 H 0.81964 0.86743 0.32327 0.0
H2067 H 0.78814 0.90755 0.32369 0.0
C2068 C 0.89556 0.80952 0.33552 0.0
C2069 C 0.94551 0.80396 0.33177 0.0
C2070 C 0.87845 0.83284 0.33528 0.0
C2071 C 0.91106 0.851 0.33132 0.0
C2072 C 0.96063 0.8454 0.32741 0.0
C2073 C 0.97761 0.82215 0.32758 0.0
C2074 C 0.90675 0.91725 0.33574 0.0
C2075 C 0.85712 0.92247 0.33164 0.0
C2076 C 0.92475 0.89404 0.3355 0.0
C2077 C 0.89328 0.87573 0.3312 0.0
C2078 C 0.8443 0.88111 0.32684 0.0
C2079 C 0.82647 0.90418 0.32702 0.0
H2080 H 0.5359 0.57309 0.57463 0.0
H2081 H 0.6775 0.54849 0.59051 0.0
H2082 H 0.56855 0.61308 0.57465 0.0
H2083 H 0.71012 0.58892 0.59056 0.0
H2084 H 0.76777 0.65969 0.57622 0.0
H2085 H 0.73551 0.61966 0.57589 0.0
H2086 H 0.58999 0.6437 0.58976 0.0
H2087 H 0.62218 0.6842 0.59004 0.0
C2088 C 0.57413 0.57618 0.57811 0.0
C2089 C 0.60416 0.5576 0.58261 0.0
C2090 C 0.59257 0.59916 0.57818 0.0
C2091 C 0.64152 0.6041 0.58271 0.0
C2092 C 0.67221 0.58552 0.58696 0.0
C2093 C 0.65364 0.56242 0.58693 0.0
C2094 C 0.72877 0.65658 0.57918 0.0
C2095 C 0.69744 0.67517 0.58317 0.0
C2096 C 0.71054 0.63356 0.57906 0.0
C2097 C 0.66052 0.62859 0.58287 0.0
C2098 C 0.62873 0.64714 0.5867 0.0
C2099 C 0.64709 0.67028 0.58687 0.0
H2100 H 0.61815 0.54558 0.71149 0.0
H2101 H 0.77131 0.57059 0.70383 0.0
H2102 H 0.58774 0.58629 0.71222 0.0
H2103 H 0.74097 0.61082 0.70386 0.0
H2104 H 0.68238 0.68252 0.7147 0.0
H2105 H 0.71256 0.64179 0.71577 0.0
H2106 H 0.57032 0.61814 0.69973 0.0
H2107 H 0.53963 0.65839 0.69936 0.0
C2108 C 0.64507 0.55978 0.70988 0.0
C2109 C 0.69696 0.55505 0.70771 0.0
C2110 C 0.6278 0.58307 0.71023 0.0
C2111 C 0.662 0.6019 0.70812 0.0
C2112 C 0.71379 0.59692 0.70583 0.0
C2113 C 0.73112 0.57379 0.70573 0.0
C2114 C 0.65792 0.6685 0.71142 0.0
C2115 C 0.60877 0.67342 0.70703 0.0
C2116 C 0.67504 0.64521 0.71199 0.0
C2117 C 0.64367 0.62661 0.7079 0.0
C2118 C 0.59495 0.63184 0.70327 0.0
C2119 C 0.57755 0.65495 0.70295 0.0
H2120 H 0.51221 0.40956 0.46707 0.0
H2121 H 0.36888 0.43177 0.45112 0.0
H2122 H 0.48249 0.3691 0.46718 0.0
H2123 H 0.33913 0.39084 0.45127 0.0
H2124 H 0.2881 0.31868 0.4655 0.0
H2125 H 0.31709 0.35925 0.46631 0.0
H2126 H 0.46325 0.33862 0.45147 0.0
H2127 H 0.43436 0.29767 0.4506 0.0
C2128 C 0.47416 0.40587 0.46364 0.0
C2129 C 0.44288 0.42391 0.45903 0.0
C2130 C 0.45741 0.38261 0.46365 0.0
C2131 C 0.40888 0.37687 0.45913 0.0
C2132 C 0.37677 0.3949 0.45484 0.0
C2133 C 0.39372 0.41828 0.45476 0.0
C2134 C 0.3266 0.32264 0.46244 0.0
C2135 C 0.35896 0.30488 0.45794 0.0
C2136 C 0.34293 0.34596 0.46285 0.0
C2137 C 0.3921 0.35204 0.45886 0.0
C2138 C 0.42511 0.33431 0.45464 0.0
C2139 C 0.40862 0.3109 0.45415 0.0
H2140 H 0.37113 0.29625 0.33652 0.0
H2141 H 0.51728 0.31919 0.32229 0.0
H2142 H 0.34135 0.33701 0.33649 0.0
H2143 H 0.48729 0.35968 0.32226 0.0
H2144 H 0.43255 0.43097 0.33847 0.0
H2145 H 0.46411 0.39038 0.33749 0.0
H2146 H 0.32072 0.36829 0.32167 0.0
H2147 H 0.2892 0.40836 0.32264 0.0
C2148 C 0.39668 0.30988 0.33328 0.0
C2149 C 0.44654 0.30442 0.32942 0.0
C2150 C 0.37965 0.3332 0.33326 0.0
C2151 C 0.41224 0.35147 0.32944 0.0
C2152 C 0.4617 0.34598 0.32541 0.0
C2153 C 0.47861 0.32271 0.32536 0.0
C2154 C 0.40807 0.41747 0.33469 0.0
C2155 C 0.35835 0.42289 0.3307 0.0
C2156 C 0.42607 0.39428 0.33412 0.0
C2157 C 0.39453 0.3762 0.32962 0.0
C2158 C 0.34545 0.38179 0.32538 0.0
C2159 C 0.32761 0.40484 0.32589 0.0
H2160 H 0.54268 0.06601 0.07254 0.0
H2161 H 0.68785 0.04438 0.08779 0.0
H2162 H 0.57212 0.10655 0.07207 0.0
H2163 H 0.71721 0.08527 0.08726 0.0
H2164 H 0.76807 0.15662 0.0726 0.0
H2165 H 0.7381 0.11622 0.07208 0.0
H2166 H 0.59325 0.13785 0.08725 0.0
H2167 H 0.62326 0.17875 0.0878 0.0
C2168 C 0.58106 0.06982 0.07574 0.0
C2169 C 0.61293 0.05189 0.08025 0.0
C2170 C 0.59765 0.09314 0.07553 0.0
C2171 C 0.64664 0.09906 0.07973 0.0
C2172 C 0.67923 0.08112 0.08392 0.0
C2173 C 0.66247 0.05773 0.08422 0.0
C2174 C 0.72965 0.15293 0.07579 0.0
C2175 C 0.69802 0.17095 0.08029 0.0
C2176 C 0.71273 0.12969 0.07555 0.0
C2177 C 0.66366 0.1239 0.07972 0.0
C2178 C 0.6313 0.14192 0.08393 0.0
C2179 C 0.64841 0.16528 0.08426 0.0
H2180 H 0.68682 0.1857 0.20093 0.0
H2181 H 0.54347 0.16324 0.21678 0.0
H2182 H 0.71732 0.14502 0.20138 0.0
H2183 H 0.57408 0.12287 0.2172 0.0
H2184 H 0.62602 0.05086 0.20152 0.0
H2185 H 0.59493 0.09155 0.20207 0.0
H2186 H 0.74054 0.11436 0.21646 0.0
H2187 H 0.77162 0.07415 0.21593 0.0
C2188 C 0.66208 0.17221 0.20462 0.0
C2189 C 0.61273 0.17776 0.20879 0.0
C2190 C 0.6795 0.14893 0.20487 0.0
C2191 C 0.64779 0.13081 0.20923 0.0
C2192 C 0.59895 0.13643 0.21362 0.0
C2193 C 0.58169 0.15964 0.21345 0.0
C2194 C 0.65115 0.06454 0.20489 0.0
C2195 C 0.70125 0.05924 0.20865 0.0
C2196 C 0.63339 0.08779 0.20521 0.0
C2197 C 0.66559 0.10608 0.20922 0.0
C2198 C 0.71523 0.10068 0.21316 0.0
C2199 C 0.73281 0.07755 0.21291 0.0
H2200 H 0.28727 0.82189 0.95097 0.0
H2201 H 0.43085 0.79702 0.96547 0.0
H2202 H 0.31836 0.86206 0.9516 0.0
H2203 H 0.46146 0.83767 0.96689 0.0
H2204 H 0.52005 0.90961 0.95566 0.0
H2205 H 0.4899 0.86931 0.95567 0.0
H2206 H 0.33648 0.8936 0.96395 0.0
H2207 H 0.36665 0.93432 0.96316 0.0
C2208 C 0.32546 0.82517 0.95445 0.0
C2209 C 0.35677 0.80649 0.95821 0.0
C2210 C 0.34313 0.84825 0.95493 0.0
C2211 C 0.39222 0.85329 0.95944 0.0
C2212 C 0.42367 0.83447 0.96321 0.0
C2213 C 0.40628 0.8112 0.96245 0.0
C2214 C 0.47987 0.90633 0.95755 0.0
C2215 C 0.44556 0.92504 0.95943 0.0
C2216 C 0.46262 0.88314 0.95764 0.0
C2217 C 0.41075 0.87804 0.95984 0.0
C2218 C 0.37655 0.89684 0.96198 0.0
C2219 C 0.39371 0.92017 0.96161 0.0
H2220 H 0.5148 0.81913 0.82524 0.0
H2221 H 0.37032 0.79562 0.84015 0.0
H2222 H 0.48358 0.8593 0.82491 0.0
H2223 H 0.33911 0.83628 0.83981 0.0
H2224 H 0.28662 0.90748 0.82473 0.0
H2225 H 0.31745 0.8672 0.82457 0.0
H2226 H 0.46088 0.88997 0.84013 0.0
H2227 H 0.43011 0.93067 0.84029 0.0
C2228 C 0.47622 0.82248 0.82842 0.0
C2229 C 0.44498 0.80415 0.83276 0.0
C2230 C 0.4586 0.84558 0.82829 0.0
C2231 C 0.40926 0.85088 0.83243 0.0
C2232 C 0.37736 0.83256 0.83652 0.0
C2233 C 0.39514 0.80935 0.83671 0.0
C2234 C 0.3249 0.90403 0.82808 0.0
C2235 C 0.35602 0.9223 0.83254 0.0
C2236 C 0.34227 0.88088 0.82806 0.0
C2237 C 0.39124 0.8755 0.83242 0.0
C2238 C 0.42295 0.89375 0.83666 0.0
C2239 C 0.40541 0.91699 0.83675 0.0
H2240 H 0.6594 0.52107 0.0778 0.0
H2241 H 0.68804 0.44841 0.08703 0.0
H2242 H 0.56743 0.51418 0.0792 0.0
H2243 H 0.59569 0.44151 0.08846 0.0
H2244 H 0.43067 0.44603 0.10313 0.0
H2245 H 0.52293 0.45148 0.10088 0.0
H2246 H 0.49674 0.49424 0.06961 0.0
H2247 H 0.40431 0.48962 0.07216 0.0
C2248 C 0.64612 0.50351 0.07997 0.0
C2249 C 0.68135 0.48528 0.08225 0.0
C2250 C 0.59322 0.49956 0.08078 0.0
C2251 C 0.57394 0.47727 0.08392 0.0
C2252 C 0.60912 0.45898 0.08617 0.0
C2253 C 0.66213 0.46294 0.08535 0.0
C2254 C 0.4445 0.45674 0.09581 0.0
C2255 C 0.40983 0.46752 0.08788 0.0
C2256 C 0.49755 0.45962 0.09443 0.0
C2257 C 0.51745 0.47335 0.08507 0.0
C2258 C 0.48283 0.48379 0.07702 0.0
C2259 C 0.42975 0.48091 0.0784 0.0
H2260 H 0.64401 0.69491 0.08438 0.0
H2261 H 0.62273 0.76873 0.09226 0.0
H2262 H 0.73669 0.70044 0.08456 0.0
H2263 H 0.71572 0.77428 0.09238 0.0
H2264 H 0.88269 0.77973 0.0795 0.0
H2265 H 0.78982 0.77422 0.07907 0.0
H2266 H 0.80666 0.70873 0.09825 0.0
H2267 H 0.89965 0.71383 0.09832 0.0
C2268 C 0.65905 0.7123 0.08628 0.0
C2269 C 0.6257 0.73134 0.08837 0.0
C2270 C 0.71231 0.71547 0.08637 0.0
C2271 C 0.73379 0.73779 0.08851 0.0
C2272 C 0.70051 0.7569 0.09054 0.0
C2273 C 0.64715 0.75371 0.09047 0.0
C2274 C 0.86666 0.76401 0.0835 0.0
C2275 C 0.89878 0.74719 0.08891 0.0
C2276 C 0.8133 0.761 0.08339 0.0
C2277 C 0.79064 0.74106 0.08865 0.0
C2278 C 0.82277 0.72419 0.09401 0.0
C2279 C 0.87611 0.72723 0.09416 0.0
H2280 H 0.66249 0.70496 0.21193 0.0
H2281 H 0.68947 0.77744 0.202 0.0
H2282 H 0.57031 0.7114 0.2106 0.0
H2283 H 0.59683 0.78393 0.20084 0.0
H2284 H 0.42567 0.79116 0.21132 0.0
H2285 H 0.51835 0.78542 0.21346 0.0
H2286 H 0.50623 0.7189 0.195 0.0
H2287 H 0.41378 0.72438 0.19311 0.0
C2288 C 0.64885 0.72224 0.20937 0.0
C2289 C 0.68363 0.74061 0.20696 0.0
C2290 C 0.59589 0.72594 0.20864 0.0
C2291 C 0.57616 0.74814 0.20555 0.0
C2292 C 0.61078 0.76667 0.20336 0.0
C2293 C 0.66389 0.76295 0.20403 0.0
C2294 C 0.4428 0.77523 0.20782 0.0
C2295 C 0.41233 0.75824 0.20204 0.0
C2296 C 0.49594 0.77205 0.20894 0.0
C2297 C 0.51971 0.7517 0.2044 0.0
C2298 C 0.48912 0.73466 0.1987 0.0
C2299 C 0.43617 0.73791 0.19751 0.0
H2300 H 0.88012 0.46007 0.18704 0.0
H2301 H 0.8984 0.4995 0.21971 0.0
H2302 H 0.78738 0.46507 0.18824 0.0
H2303 H 0.80539 0.50371 0.22116 0.0
H2304 H 0.6433 0.53 0.21217 0.0
H2305 H 0.73583 0.52436 0.21133 0.0
H2306 H 0.71302 0.45261 0.19967 0.0
H2307 H 0.62015 0.45825 0.20053 0.0
C2308 C 0.8644 0.46985 0.19447 0.0
C2309 C 0.8969 0.47951 0.20324 0.0
C2310 C 0.81109 0.47245 0.19524 0.0
C2311 C 0.78879 0.48479 0.2048 0.0
C2312 C 0.82124 0.49432 0.2136 0.0
C2313 C 0.8746 0.49169 0.21284 0.0
C2314 C 0.65791 0.5129 0.20957 0.0
C2315 C 0.6241 0.49455 0.20646 0.0
C2316 C 0.71109 0.50968 0.20909 0.0
C2317 C 0.73202 0.48802 0.20546 0.0
C2318 C 0.69827 0.46963 0.20235 0.0
C2319 C 0.64498 0.47286 0.20284 0.0
H2320 H 0.64746 0.47824 0.96226 0.0
H2321 H 0.62335 0.54163 0.94173 0.0
H2322 H 0.55477 0.47321 0.96413 0.0
H2323 H 0.53078 0.53652 0.94355 0.0
H2324 H 0.37104 0.5041 0.93742 0.0
H2325 H 0.46356 0.51035 0.93629 0.0
H2326 H 0.47848 0.4904 0.97329 0.0
H2327 H 0.38615 0.48338 0.97431 0.0
C2328 C 0.62246 0.49126 0.95827 0.0
C2329 C 0.64303 0.51028 0.9518 0.0
C2330 C 0.56925 0.48837 0.95933 0.0
C2331 C 0.53523 0.5044 0.95394 0.0
C2332 C 0.5558 0.52361 0.94763 0.0
C2333 C 0.60895 0.52653 0.94659 0.0
C2334 C 0.39406 0.50093 0.9453 0.0
C2335 C 0.37106 0.49319 0.95595 0.0
C2336 C 0.44709 0.50476 0.94469 0.0
C2337 C 0.47856 0.50088 0.9547 0.0
C2338 C 0.45551 0.49333 0.96538 0.0
C2339 C 0.40244 0.48958 0.966 0.0
H2340 H 0.41938 0.23815 0.97356 0.0
H2341 H 0.4237 0.24465 0.9352 0.0
H2342 H 0.32636 0.2335 0.97279 0.0
H2343 H 0.33082 0.23916 0.9344 0.0
H2344 H 0.15966 0.25631 0.9387 0.0
H2345 H 0.25284 0.2603 0.93949 0.0
H2346 H 0.25952 0.20642 0.96662 0.0
H2347 H 0.16636 0.20243 0.96583 0.0
C2348 C 0.40052 0.2385 0.96495 0.0
C2349 C 0.42912 0.24187 0.95444 0.0
C2350 C 0.34717 0.2356 0.9645 0.0
C2351 C 0.32093 0.23603 0.95354 0.0
C2352 C 0.34962 0.23904 0.94301 0.0
C2353 C 0.40302 0.24188 0.94346 0.0
C2354 C 0.18101 0.24521 0.94478 0.0
C2355 C 0.15535 0.22906 0.95221 0.0
C2356 C 0.23452 0.24746 0.94522 0.0
C2357 C 0.26386 0.23363 0.95309 0.0
C2358 C 0.23817 0.2176 0.96057 0.0
C2359 C 0.18466 0.21534 0.96013 0.0
H2360 H 0.64225 0.23229 0.81513 0.0
H2361 H 0.63215 0.22041 0.8531 0.0
H2362 H 0.54896 0.23604 0.81411 0.0
H2363 H 0.53914 0.22489 0.85213 0.0
H2364 H 0.37016 0.20922 0.84374 0.0
H2365 H 0.46324 0.20438 0.84444 0.0
H2366 H 0.48121 0.26317 0.82037 0.0
H2367 H 0.38841 0.26815 0.81975 0.0
C2368 C 0.62014 0.23049 0.82326 0.0
C2369 C 0.64473 0.2261 0.8342 0.0
C2370 C 0.56671 0.23285 0.82269 0.0
C2371 C 0.53655 0.23076 0.83304 0.0
C2372 C 0.56114 0.22635 0.84397 0.0
C2373 C 0.61455 0.22408 0.84455 0.0
C2374 C 0.39396 0.2212 0.83866 0.0
C2375 C 0.37165 0.23905 0.83167 0.0
C2376 C 0.44733 0.21843 0.83905 0.0
C2377 C 0.47971 0.23339 0.83246 0.0
C2378 C 0.4574 0.25111 0.82541 0.0
C2379 C 0.4041 0.25393 0.82504 0.0
H2380 H 0.17417 0.5249 0.85056 0.0
H2381 H 0.15411 0.47893 0.82022 0.0
H2382 H 0.2669 0.52013 0.84917 0.0
H2383 H 0.24713 0.47487 0.81854 0.0
H2384 H 0.41027 0.45087 0.82863 0.0
H2385 H 0.31772 0.45653 0.82921 0.0
H2386 H 0.34013 0.5304 0.83679 0.0
H2387 H 0.43303 0.52476 0.83616 0.0
C2388 C 0.18952 0.51374 0.84359 0.0
C2389 C 0.15653 0.50216 0.83555 0.0
C2390 C 0.2428 0.51126 0.84269 0.0
C2391 C 0.2646 0.49712 0.83374 0.0
C2392 C 0.23167 0.48569 0.82563 0.0
C2393 C 0.17832 0.48821 0.82651 0.0
C2394 C 0.39559 0.46842 0.83025 0.0
C2395 C 0.42929 0.48737 0.83231 0.0
C2396 C 0.34239 0.47165 0.83059 0.0
C2397 C 0.32135 0.49392 0.83304 0.0
C2398 C 0.35499 0.51293 0.83504 0.0
C2399 C 0.40829 0.5097 0.83468 0.0
H2400 H 0.41753 0.95667 0.57072 0.0
H2401 H 0.41531 0.00404 0.60085 0.0
H2402 H 0.51077 0.96038 0.56964 0.0
H2403 H 0.50844 0.00769 0.59978 0.0
H2404 H 0.67833 0.98952 0.60259 0.0
H2405 H 0.58539 0.98451 0.60332 0.0
H2406 H 0.57869 0.98838 0.56488 0.0
H2407 H 0.67191 -0.00737 0.56414 0.0
C2408 C 0.43681 0.9681 0.57703 0.0
C2409 C 0.40876 0.98001 0.58589 0.0
C2410 C 0.49035 0.97019 0.57642 0.0
C2411 C 0.51726 0.98422 0.58466 0.0
C2412 C 0.48914 -0.00364 0.59343 0.0
C2413 C 0.43566 -0.00571 0.59403 0.0
C2414 C 0.65717 0.98894 0.59428 0.0
C2415 C 0.68271 -0.00851 0.58331 0.0
C2416 C 0.60373 0.98637 0.5947 0.0
C2417 C 0.57438 0.98622 0.58416 0.0
C2418 C 0.60003 0.98828 0.57317 0.0
C2419 C 0.65347 -0.00906 0.57275 0.0
H2420 H 0.63767 0.20688 0.58056 0.0
H2421 H 0.61211 0.28157 0.57638 0.0
H2422 H 0.72975 0.21366 0.5815 0.0
H2423 H 0.70468 0.28838 0.57731 0.0
H2424 H 0.86727 0.29277 0.5936 0.0
H2425 H 0.77508 0.28706 0.59131 0.0
H2426 H 0.80308 0.2252 0.56986 0.0
H2427 H 0.89528 0.23031 0.5726 0.0
C2428 C 0.6517 0.22475 0.57965 0.0
C2429 C 0.61728 0.24366 0.57834 0.0
C2430 C 0.70468 0.22864 0.58019 0.0
C2431 C 0.72489 0.25157 0.57945 0.0
C2432 C 0.69052 0.27051 0.57807 0.0
C2433 C 0.6374 0.26661 0.57753 0.0
C2434 C 0.85382 0.27785 0.58845 0.0
C2435 C 0.88891 0.2619 0.58337 0.0
C2436 C 0.80084 0.27475 0.58701 0.0
C2437 C 0.78143 0.25562 0.58043 0.0
C2438 C 0.81654 0.23996 0.57513 0.0
C2439 C 0.86954 0.24305 0.57658 0.0
H2440 H 0.65634 0.20052 0.70882 0.0
H2441 H 0.67946 0.27493 0.70289 0.0
H2442 H 0.56384 0.20618 0.70793 0.0
H2443 H 0.5866 0.2806 0.70197 0.0
H2444 H 0.42133 0.27651 0.68761 0.0
H2445 H 0.51396 0.27167 0.68926 0.0
H2446 H 0.49225 0.22332 0.71855 0.0
H2447 H 0.39937 0.22743 0.71659 0.0
C2448 C 0.64174 0.21817 0.70749 0.0
C2449 C 0.67559 0.23728 0.70597 0.0
C2450 C 0.58854 0.22142 0.70697 0.0
C2451 C 0.56757 0.24385 0.70489 0.0
C2452 C 0.60135 0.26301 0.70342 0.0
C2453 C 0.65466 0.25976 0.70394 0.0
C2454 C 0.43621 0.26466 0.69434 0.0
C2455 C 0.40267 0.25223 0.70191 0.0
C2456 C 0.48948 0.26213 0.69539 0.0
C2457 C 0.51076 0.2471 0.70404 0.0
C2458 C 0.47726 0.23484 0.71169 0.0
C2459 C 0.42394 0.2374 0.71065 0.0
H2460 H 0.90121 -0.00265 0.72072 0.0
H2461 H 0.88337 0.95888 0.68774 0.0
H2462 H 0.80819 0.00162 0.72211 0.0
H2463 H 0.79061 0.96393 0.6889 0.0
H2464 H 0.62336 0.95642 0.7011 0.0
H2465 H 0.71626 0.951 0.70023 0.0
H2466 H 0.73834 0.02243 0.71245 0.0
H2467 H 0.64574 0.02788 0.71326 0.0
C2468 C 0.87751 -0.01022 0.71377 0.0
C2469 C 0.89997 0.97782 0.70411 0.0
C2470 C 0.82413 -0.00756 0.7145 0.0
C2471 C 0.79177 0.98315 0.70561 0.0
C2472 C 0.81422 0.9711 0.69598 0.0
C2473 C 0.86756 0.96848 0.69523 0.0
C2474 C 0.64801 0.97102 0.70354 0.0
C2475 C 0.62685 -0.00743 0.70729 0.0
C2476 C 0.70134 0.96791 0.70304 0.0
C2477 C 0.73492 0.98627 0.70629 0.0
C2478 C 0.71374 0.00777 0.71008 0.0
C2479 C 0.6605 0.01088 0.71056 0.0
H2480 H 0.63242 0.02496 0.43781 0.0
H2481 H 0.65356 0.97845 0.46788 0.0
H2482 H 0.53975 0.01999 0.43933 0.0
H2483 H 0.56066 0.97423 0.4697 0.0
H2484 H 0.39673 0.95063 0.46046 0.0
H2485 H 0.48926 0.95616 0.45939 0.0
H2486 H 0.46684 0.02997 0.45172 0.0
H2487 H 0.37397 0.02444 0.45281 0.0
C2488 C 0.61736 0.01363 0.44474 0.0
C2489 C 0.65069 0.002 0.45268 0.0
C2490 C 0.56407 0.01103 0.44571 0.0
C2491 C 0.54254 -0.00329 0.45464 0.0
C2492 C 0.57583 0.98519 0.46263 0.0
C2493 C 0.62917 0.98782 0.46167 0.0
C2494 C 0.41142 0.96813 0.4587 0.0
C2495 C 0.37766 0.98711 0.45677 0.0
C2496 C 0.46464 0.9713 0.45808 0.0
C2497 C 0.48571 -0.00648 0.45549 0.0
C2498 C 0.45201 0.01253 0.45357 0.0
C2499 C 0.39869 0.00936 0.4542 0.0
H2500 H 0.43089 0.70455 0.45234 0.0
H2501 H 0.4083 0.77669 0.46337 0.0
H2502 H 0.33799 0.69909 0.45131 0.0
H2503 H 0.31574 0.77121 0.46237 0.0
H2504 H 0.15191 0.74726 0.47015 0.0
H2505 H 0.24489 0.75118 0.472 0.0
H2506 H 0.26467 0.71134 0.43951 0.0
H2507 H 0.17195 0.70663 0.43792 0.0
C2508 C 0.40619 0.71928 0.4545 0.0
C2509 C 0.42728 0.74104 0.45797 0.0
C2510 C 0.35287 0.71615 0.4539 0.0
C2511 C 0.31923 0.7347 0.45677 0.0
C2512 C 0.34035 0.75641 0.4603 0.0
C2513 C 0.39358 0.75954 0.46088 0.0
C2514 C 0.17609 0.73913 0.46347 0.0
C2515 C 0.15426 0.7267 0.45387 0.0
C2516 C 0.22945 0.74158 0.46446 0.0
C2517 C 0.26242 0.73163 0.45589 0.0
C2518 C 0.24059 0.71904 0.44634 0.0
C2519 C 0.18728 0.71661 0.44535 0.0
H2520 H 0.36989 0.72399 0.35186 0.0
H2521 H 0.38822 0.74447 0.31502 0.0
H2522 H 0.46212 0.71763 0.35343 0.0
H2523 H 0.48086 0.73896 0.31673 0.0
H2524 H 0.64095 0.70551 0.32133 0.0
H2525 H 0.54806 0.70967 0.31911 0.0
H2526 H 0.53952 0.74101 0.35415 0.0
H2527 H 0.63203 0.73685 0.35636 0.0
C2528 C 0.39348 0.72693 0.34405 0.0
C2529 C 0.37142 0.73478 0.33331 0.0
C2530 C 0.44658 0.72359 0.345 0.0
C2531 C 0.47918 0.72798 0.33524 0.0
C2532 C 0.45701 0.73527 0.32441 0.0
C2533 C 0.40387 0.73866 0.32346 0.0
C2534 C 0.6193 0.71348 0.32852 0.0
C2535 C 0.6441 0.72072 0.33905 0.0
C2536 C 0.56597 0.71585 0.32725 0.0
C2537 C 0.53607 0.72552 0.33648 0.0
C2538 C 0.56103 0.733 0.34695 0.0
C2539 C 0.61422 0.73064 0.34821 0.0
H2540 H 0.17103 0.0179 0.35418 0.0
H2541 H 0.15404 0.97987 0.32106 0.0
H2542 H 0.26378 0.01258 0.35322 0.0
H2543 H 0.24701 0.97534 0.31986 0.0
H2544 H 0.40902 0.94891 0.32855 0.0
H2545 H 0.31644 0.95436 0.32946 0.0
H2546 H 0.33874 0.02545 0.34214 0.0
H2547 H 0.43164 0.02002 0.34119 0.0
C2548 C 0.18701 0.00833 0.34671 0.0
C2549 C 0.15484 -0.00078 0.33773 0.0
C2550 C 0.24036 0.00555 0.34607 0.0
C2551 C 0.26306 -0.00644 0.33646 0.0
C2552 C 0.23091 0.98446 0.32747 0.0
C2553 C 0.17755 0.98728 0.32809 0.0
C2554 C 0.39431 0.96582 0.3314 0.0
C2555 C 0.42804 0.98406 0.33474 0.0
C2556 C 0.34107 0.96894 0.33193 0.0
C2557 C 0.31994 -0.00964 0.33585 0.0
C2558 C 0.3536 0.0086 0.33923 0.0
C2559 C 0.40694 0.00549 0.33868 0.0
H2560 H 0.16516 0.4909 0.56598 0.0
H2561 H 0.17031 0.49562 0.6044 0.0
H2562 H 0.07216 0.48616 0.56678 0.0
H2563 H 0.07747 0.49006 0.60522 0.0
H2564 H 0.90594 0.50692 0.60139 0.0
H2565 H 0.99906 0.51113 0.60055 0.0
H2566 H 1.00545 0.45882 0.57263 0.0
H2567 H 0.91235 0.45461 0.57347 0.0
C2568 C 0.14649 0.49085 0.57461 0.0
C2569 C 0.17537 0.49373 0.58512 0.0
C2570 C 0.09313 0.4879 0.57507 0.0
C2571 C 0.06709 0.48779 0.58607 0.0
C2572 C 0.09606 0.49035 0.59659 0.0
C2573 C 0.14946 0.49324 0.59612 0.0
C2574 C 0.92719 0.4962 0.59512 0.0
C2575 C 0.90142 0.48044 0.5875 0.0
C2576 C 0.9807 0.49858 0.59465 0.0
C2577 C 1.00998 0.48527 0.58654 0.0
C2578 C 0.98419 0.46961 0.57887 0.0
C2579 C 0.93068 0.46723 0.57934 0.0
H2580 H 0.39593 0.7188 0.59606 0.0
H2581 H 0.38424 0.78646 0.57868 0.0
H2582 H 0.3027 0.71477 0.59542 0.0
H2583 H 0.2911 0.78241 0.57802 0.0
H2584 H 0.13098 0.75499 0.56764 0.0
H2585 H 0.22408 0.75949 0.56836 0.0
H2586 H 0.22538 0.73161 0.60419 0.0
H2587 H 0.13244 0.72639 0.60332 0.0
C2588 C 0.37349 0.73288 0.59216 0.0
C2589 C 0.39771 0.75293 0.5874 0.0
C2590 C 0.31999 0.73059 0.59181 0.0
C2591 C 0.28931 0.74828 0.58669 0.0
C2592 C 0.31354 0.76828 0.58188 0.0
C2593 C 0.36702 0.77058 0.58223 0.0
C2594 C 0.15115 0.74973 0.57566 0.0
C2595 C 0.12419 0.74027 0.58541 0.0
C2596 C 0.2045 0.75252 0.57611 0.0
C2597 C 0.23232 0.74585 0.58632 0.0
C2598 C 0.20528 0.73666 0.59613 0.0
C2599 C 0.15188 0.73395 0.59569 0.0
H2600 H 0.91829 0.73069 0.68981 0.0
H2601 H 0.91786 0.7722 0.72209 0.0
H2602 H 1.01139 0.72727 0.69102 0.0
H2603 H 1.01113 0.76872 0.72331 0.0
H2604 H 0.1725 0.73592 0.72769 0.0
H2605 H 0.07931 0.74015 0.72689 0.0
H2606 H 0.08786 0.75151 0.68886 0.0
H2607 H 0.18077 0.7465 0.6896 0.0
C2608 C 0.93806 0.7392 0.69714 0.0
C2609 C 0.91047 0.75179 0.70583 0.0
C2610 C 0.99152 0.73727 0.69782 0.0
C2611 C 1.01889 0.74786 0.70722 0.0
C2612 C 0.99127 0.76014 0.71602 0.0
C2613 C 0.93773 0.76209 0.71533 0.0
C2614 C 0.15448 0.73928 0.71915 0.0
C2615 C 0.18419 0.74078 0.7087 0.0
C2616 C 0.10106 0.74191 0.71871 0.0
C2617 C 0.07597 0.74603 0.7078 0.0
C2618 C 0.10581 0.74801 0.69739 0.0
C2619 C 0.15921 0.74545 0.69784 0.0
H2620 H 0.12409 0.48918 0.68748 0.0
H2621 H 0.13232 0.48614 0.72592 0.0
H2622 H 0.21697 0.48424 0.68632 0.0
H2623 H 0.22541 0.48203 0.72477 0.0
H2624 H 0.38604 0.45165 0.71749 0.0
H2625 H 0.29283 0.45499 0.71882 0.0
H2626 H 0.29426 0.50665 0.69056 0.0
H2627 H 0.38739 0.50331 0.68923 0.0
C2628 C 0.14564 0.48727 0.69569 0.0
C2629 C 0.12064 0.48808 0.70679 0.0
C2630 C 0.19903 0.48475 0.69503 0.0
C2631 C 0.22883 0.48291 0.70546 0.0
C2632 C 0.20371 0.48324 0.71656 0.0
C2633 C 0.15034 0.48582 0.71722 0.0
C2634 C 0.36655 0.46393 0.71165 0.0
C2635 C 0.39433 0.47719 0.70324 0.0
C2636 C 0.31304 0.46582 0.7124 0.0
C2637 C 0.2859 0.481 0.70475 0.0
C2638 C 0.31375 0.49444 0.69643 0.0
C2639 C 0.36722 0.49255 0.69568 0.0
H2640 H 0.87323 0.51302 0.46899 0.0
H2641 H 0.88102 0.463 0.44003 0.0
H2642 H 0.96634 0.51762 0.46833 0.0
H2643 H 0.97396 0.46815 0.43913 0.0
H2644 H 0.14371 0.46334 0.45025 0.0
H2645 H 0.05054 0.45881 0.45082 0.0
H2646 H 0.03388 0.53384 0.45573 0.0
H2647 H 0.12684 0.53841 0.45509 0.0
C2648 C 0.89479 0.50304 0.46247 0.0
C2649 C 0.86958 0.48763 0.45457 0.0
C2650 C 0.94815 0.50584 0.46201 0.0
C2651 C 0.97772 0.49323 0.45369 0.0
C2652 C 0.95247 0.47794 0.44574 0.0
C2653 C 0.89908 0.47521 0.44616 0.0
C2654 C 0.12019 0.4789 0.45136 0.0
C2655 C 0.14295 0.50123 0.45266 0.0
C2656 C 0.06673 0.4763 0.45169 0.0
C2657 C 0.03465 0.49596 0.45332 0.0
C2658 C 0.05741 0.51827 0.45464 0.0
C2659 C 0.11081 0.52088 0.45429 0.0
H2660 H 0.91766 0.24177 0.47393 0.0
H2661 H 0.93428 0.2287 0.43619 0.0
H2662 H 0.82493 0.23649 0.47217 0.0
H2663 H 0.84194 0.2226 0.43452 0.0
H2664 H 0.67183 0.24206 0.43307 0.0
H2665 H 0.76445 0.24601 0.43526 0.0
H2666 H 0.75791 0.2075 0.46843 0.0
H2667 H 0.66496 0.20354 0.46624 0.0
C2668 C 0.9016 0.23764 0.46526 0.0
C2669 C 0.93356 0.23576 0.45519 0.0
C2670 C 0.84842 0.23439 0.46428 0.0
C2671 C 0.82577 0.22925 0.45319 0.0
C2672 C 0.85789 0.22687 0.44317 0.0
C2673 C 0.91103 0.23006 0.44416 0.0
C2674 C 0.69012 0.23425 0.44079 0.0
C2675 C 0.6608 0.22237 0.44945 0.0
C2676 C 0.74335 0.23649 0.44204 0.0
C2677 C 0.76887 0.22693 0.45198 0.0
C2678 C 0.73953 0.21529 0.46072 0.0
C2679 C 0.68618 0.21304 0.45947 0.0
H2680 H 0.13237 0.23675 0.35404 0.0
H2681 H 0.14234 0.20633 0.31882 0.0
H2682 H 0.03988 0.24083 0.35174 0.0
H2683 H 0.04948 0.21038 0.31652 0.0
H2684 H 0.88969 0.24501 0.31235 0.0
H2685 H 0.98226 0.23952 0.31419 0.0
H2686 H 0.96249 0.2176 0.35078 0.0
H2687 H 0.8703 0.22397 0.34908 0.0
C2688 C 0.11479 0.23072 0.34583 0.0
C2689 C 0.14497 0.22109 0.33664 0.0
C2690 C 0.06161 0.23303 0.34452 0.0
C2691 C 0.03695 0.22579 0.33397 0.0
C2692 C 0.06715 0.21638 0.32472 0.0
C2693 C 0.12046 0.21407 0.32603 0.0
C2694 C 0.90509 0.23908 0.3208 0.0
C2695 C 0.87235 0.23505 0.33058 0.0
C2696 C 0.95821 0.2357 0.32182 0.0
C2697 C 0.98008 0.22825 0.33266 0.0
C2698 C 0.94719 0.22369 0.34235 0.0
C2699 C 0.89411 0.22704 0.34132 0.0
H2700 H 0.91079 0.45249 0.32512 0.0
H2701 H 0.93319 0.51858 0.34349 0.0
H2702 H 0.81819 0.45776 0.32625 0.0
H2703 H 0.84029 0.52381 0.34465 0.0
H2704 H 0.6722 0.51268 0.35563 0.0
H2705 H 0.76495 0.50759 0.3544 0.0
H2706 H 0.74923 0.48171 0.31837 0.0
H2707 H 0.65623 0.48594 0.31975 0.0
C2708 C 0.89603 0.4683 0.32929 0.0
C2709 C 0.92968 0.48515 0.33417 0.0
C2710 C 0.84279 0.47131 0.32994 0.0
C2711 C 0.8216 0.49123 0.33552 0.0
C2712 C 0.85519 0.50809 0.34043 0.0
C2713 C 0.90853 0.50509 0.33976 0.0
C2714 C 0.6884 0.50564 0.34748 0.0
C2715 C 0.65653 0.49962 0.33781 0.0
C2716 C 0.74175 0.50301 0.34673 0.0
C2717 C 0.76474 0.49427 0.33628 0.0
C2718 C 0.73288 0.48827 0.3266 0.0
C2719 C 0.67952 0.49093 0.32735 0.0
H2720 H 0.90657 -0.00144 0.07572 0.0
H2721 H 0.93496 0.93793 0.09801 0.0
H2722 H 0.99877 0.00376 0.07303 0.0
H2723 H 0.02712 0.94375 0.09575 0.0
H2724 H 0.19026 0.94831 0.0808 0.0
H2725 H 0.09778 0.94142 0.08191 0.0
H2726 H 0.07208 0.0164 0.08437 0.0
H2727 H 0.1641 0.02325 0.08323 0.0
C2728 C 0.93239 0.98624 0.08 0.0
C2729 C 0.91307 0.96787 0.08712 0.0
C2730 C 0.9854 0.9894 0.07857 0.0
C2731 C 1.02064 0.97428 0.08423 0.0
C2732 C 1.0013 0.95564 0.09117 0.0
C2733 C 0.94831 0.95248 0.09259 0.0
C2734 C 0.16488 0.96332 0.08161 0.0
C2735 C 0.18484 0.98635 0.08187 0.0
C2736 C 0.11177 0.95937 0.08226 0.0
C2737 C 0.07721 0.97835 0.0832 0.0
C2738 C 0.09726 0.00136 0.08341 0.0
C2739 C 0.15023 0.00529 0.08276 0.0
H2740 H 0.1284 0.2384 0.10418 0.0
H2741 H 0.13608 0.23363 0.06579 0.0
H2742 H 0.22138 0.24323 0.10504 0.0
H2743 H 0.22899 0.23919 0.06663 0.0
H2744 H 0.39944 0.22227 0.07425 0.0
H2745 H 0.30625 0.21814 0.07298 0.0
H2746 H 0.28833 0.27147 0.10011 0.0
H2747 H 0.38123 0.27569 0.10134 0.0
C2748 C 0.14991 0.23843 0.09591 0.0
C2749 C 0.12469 0.23559 0.08492 0.0
C2750 C 0.20322 0.24144 0.0964 0.0
C2751 C 0.23278 0.2416 0.0859 0.0
C2752 C 0.20752 0.23892 0.07489 0.0
C2753 C 0.15415 0.23601 0.0744 0.0
C2754 C 0.37563 0.23327 0.07986 0.0
C2755 C 0.39803 0.24921 0.08795 0.0
C2756 C 0.32215 0.2309 0.07913 0.0
C2757 C 0.2897 0.24441 0.08647 0.0
C2758 C 0.31211 0.26048 0.09447 0.0
C2759 C 0.36549 0.26287 0.09519 0.0
H2760 H 0.91014 0.25417 0.21855 0.0
H2761 H 0.92921 0.26668 0.18081 0.0
H2762 H 1.00292 0.25006 0.22071 0.0
H2763 H 1.02164 0.26163 0.1829 0.0
H2764 H 0.18983 0.27384 0.1927 0.0
H2765 H 0.09747 0.28033 0.19117 0.0
H2766 H 0.07064 0.22265 0.21547 0.0
H2767 H 0.16276 0.21607 0.21697 0.0
C2768 C 0.93406 0.25613 0.21071 0.0
C2769 C 0.912 0.2607 0.1995 0.0
C2770 C 0.98729 0.2535 0.21193 0.0
C2771 C 1.01988 0.25544 0.20197 0.0
C2772 C 0.99786 0.26026 0.19078 0.0
C2773 C 0.94468 0.26285 0.18956 0.0
C2774 C 0.16426 0.26246 0.19768 0.0
C2775 C 0.18397 0.24442 0.20496 0.0
C2776 C 0.11123 0.26619 0.1968 0.0
C2777 C 0.07647 0.252 0.20319 0.0
C2778 C 0.09621 0.23415 0.21057 0.0
C2779 C 0.14918 0.2304 0.21143 0.0
H2780 H 0.38541 0.95884 0.18577 0.0
H2781 H 0.40246 0.00439 0.21638 0.0
H2782 H 0.2925 0.96306 0.18691 0.0
H2783 H 0.30928 0.00845 0.21756 0.0
H2784 H 0.13845 -0.00847 0.22302 0.0
H2785 H 0.23135 0.98595 0.22211 0.0
H2786 H 0.22616 -0.00736 0.18377 0.0
H2787 H 0.13321 -0.00245 0.18465 0.0
C2788 C 0.36944 0.96996 0.19268 0.0
C2789 C 0.40168 0.98139 0.20094 0.0
C2790 C 0.31605 0.97233 0.19334 0.0
C2791 C 0.2933 0.98613 0.20231 0.0
C2792 C 0.32542 -0.00258 0.21063 0.0
C2793 C 0.37892 -0.0049 0.20995 0.0
C2794 C 0.15705 -0.00849 0.21438 0.0
C2795 C 0.12828 -0.00502 0.2039 0.0
C2796 C 0.21042 0.98859 0.21387 0.0
C2797 C 0.23636 0.98892 0.20287 0.0
C2798 C 0.20747 -0.00792 0.19239 0.0
C2799 C 0.15418 -0.00488 0.1929 0.0
H2800 H 0.88768 0.98193 0.97693 0.0
H2801 H 0.8673 0.00934 0.94131 0.0
H2802 H 0.98027 0.98749 0.97516 0.0
H2803 H 0.95951 0.01577 0.93974 0.0
H2804 H 0.12856 -0.00356 0.93523 0.0
H2805 H 0.0361 -0.00762 0.93758 0.0
H2806 H 0.04818 0.01667 0.97397 0.0
H2807 H 0.14105 0.02069 0.97161 0.0
C2808 C 0.90286 0.98929 0.96875 0.0
C2809 C 0.86985 -0.00493 0.95925 0.0
C2810 C 0.956 -0.0073 0.96778 0.0
C2811 C 0.97758 0.00194 0.95728 0.0
C2812 C 0.94442 0.00827 0.9479 0.0
C2813 C 0.89133 0.00489 0.94887 0.0
C2814 C 0.11154 0.00112 0.94371 0.0
C2815 C 0.14239 0.00902 0.95321 0.0
C2816 C 0.05838 -0.00117 0.94506 0.0
C2817 C 0.03443 0.00436 0.95594 0.0
C2818 C 0.0653 0.01202 0.9655 0.0
C2819 C 0.11861 0.01431 0.96415 0.0
H2820 H 0.92799 0.73708 0.93889 0.0
H2821 H 0.91827 0.74151 0.97727 0.0
H2822 H 0.83516 0.73196 0.93776 0.0
H2823 H 0.82517 0.7372 0.97611 0.0
H2824 H 0.66423 0.70569 0.96995 0.0
H2825 H 0.7574 0.70931 0.9714 0.0
H2826 H 0.75781 0.75497 0.94061 0.0
H2827 H 0.66477 0.75139 0.93917 0.0
C2828 C 0.90614 0.73677 0.94711 0.0
C2829 C 0.93077 0.73973 0.95817 0.0
C2830 C 0.85274 0.73415 0.94645 0.0
C2831 C 0.82245 0.73434 0.95684 0.0
C2832 C 0.84719 0.73681 0.96793 0.0
C2833 C 0.9006 0.73951 0.96858 0.0
C2834 C 0.68409 0.71673 0.96357 0.0
C2835 C 0.65681 0.7282 0.95442 0.0
C2836 C 0.73761 0.71877 0.96439 0.0
C2837 C 0.76532 0.73233 0.95608 0.0
C2838 C 0.73795 0.744 0.94702 0.0
C2839 C 0.68449 0.74198 0.94621 0.0
H2840 H 0.1297 0.69099 0.83329 0.0
H2841 H 0.14671 0.76407 0.84324 0.0
H2842 H 0.03695 0.69611 0.83208 0.0
H2843 H 0.05378 0.76893 0.84252 0.0
H2844 H 0.89148 0.77611 0.82769 0.0
H2845 H 0.98406 0.77067 0.82849 0.0
H2846 H 0.96231 0.7022 0.8445 0.0
H2847 H 0.86939 0.70723 0.84322 0.0
C2848 C 0.11372 0.70819 0.83518 0.0
C2849 C 0.14587 0.72715 0.83831 0.0
C2850 C 0.06038 0.71104 0.83464 0.0
C2851 C 0.0377 0.73292 0.83722 0.0
C2852 C 0.06985 0.75188 0.84035 0.0
C2853 C 0.12319 0.74903 0.84089 0.0
C2854 C 0.90632 0.75974 0.83124 0.0
C2855 C 0.87277 0.74205 0.83532 0.0
C2856 C 0.95956 0.75676 0.83185 0.0
C2857 C 0.98084 0.73602 0.83658 0.0
C2858 C 0.94734 0.71831 0.84068 0.0
C2859 C 0.894 0.7213 0.84007 0.0
H2860 H 0.66939 0.01239 0.85779 0.0
H2861 H 0.65804 0.98533 0.82188 0.0
H2862 H 0.76239 0.00813 0.85705 0.0
H2863 H 0.75126 0.9812 0.82113 0.0
H2864 H 0.92292 -0.00107 0.81981 0.0
H2865 H 0.83005 0.00462 0.8206 0.0
H2866 H 0.828 0.97772 0.85662 0.0
H2867 H 0.92093 0.97272 0.85595 0.0
C2868 C 0.68661 0.00529 0.84977 0.0
C2869 C 0.65598 -0.00089 0.83991 0.0
C2870 C 0.74006 0.0029 0.84935 0.0
C2871 C 0.76444 -0.00569 0.83904 0.0
C2872 C 0.73388 0.9882 0.82916 0.0
C2873 C 0.68036 -0.00945 0.82959 0.0
C2874 C 0.90275 -0.00547 0.82796 0.0
C2875 C 0.92948 0.98536 0.83782 0.0
C2876 C 0.84938 -0.00248 0.82836 0.0
C2877 C 0.82141 -0.00846 0.83865 0.0
C2878 C 0.84827 0.9827 0.84857 0.0
C2879 C 0.90156 0.97962 0.84815 0.0
H2880 H 0.11194 0.45535 0.04472 0.0
H2881 H 0.9971 0.50633 0.05466 0.0
H2882 H 0.0889 0.45982 0.02386 0.0
H2883 H 0.97512 0.5118 0.03362 0.0
H2884 H 0.91437 0.50098 0.99598 0.0
H2885 H 0.93576 0.49547 1.01689 0.0
H2886 H 0.09454 0.48402 1.00723 0.0
H2887 H 0.07202 0.48851 0.98619 0.0
C2888 C 0.08176 0.46765 0.04241 0.0
C2889 C 0.05609 0.48039 0.05135 0.0
C2890 C 0.06882 0.47041 0.03039 0.0
C2891 C 0.03026 0.48631 0.02688 0.0
C2892 C 1.00446 0.49908 0.03589 0.0
C2893 C 1.01704 0.49604 0.04798 0.0
C2894 C 0.95385 0.49716 0.99833 0.0
C2895 C 0.99152 0.49506 0.98941 0.0
C2896 C 0.96629 0.49421 1.01038 0.0
C2897 C 1.01704 0.48937 1.01392 0.0
C2898 C 0.05482 0.4873 1.00493 0.0
C2899 C 0.04211 0.48996 0.99283 0.0
H2900 H 0.25008 0.76205 0.98818 0.0
H2901 H 0.33652 0.69859 0.99474 0.0
H2902 H 0.23899 0.76742 1.00967 0.0
H2903 H 0.32839 0.7045 1.01606 0.0
H2904 H 0.26814 0.70856 0.05393 0.0
H2905 H 0.276 0.70273 0.03249 0.0
H2906 H 0.27899 0.77822 0.02735 0.0
H2907 H 0.26815 0.7838 0.04876 0.0
C2908 C 0.26682 0.7493 0.99422 0.0
C2909 C 0.294 0.72988 0.98975 0.0
C2910 C 0.261 0.75246 1.00658 0.0
C2911 C 0.28291 0.73646 1.01477 0.0
C2912 C 0.30997 0.71702 1.01017 0.0
C2913 C 0.315 0.71368 0.99787 0.0
C2914 C 0.27084 0.72388 0.04821 0.0
C2915 C 0.26752 0.74664 0.05303 0.0
C2916 C 0.27554 0.72058 0.03586 0.0
C2917 C 0.27802 0.73998 0.02801 0.0
C2918 C 0.27602 0.76278 0.03296 0.0
C2919 C 0.27043 0.76603 0.04528 0.0
H2920 H 0.07761 0.73889 0.30544 0.0
H2921 H 0.91967 0.72808 0.29528 0.0
H2922 H 0.10094 0.74357 0.28444 0.0
H2923 H 0.94183 0.73387 0.27447 0.0
H2924 H 1.00155 0.72354 0.23676 0.0
H2925 H 0.98003 0.7176 0.25777 0.0
H2926 H 0.09745 0.76777 0.2678 0.0
H2927 H 0.12019 0.77259 0.24693 0.0
C2928 C 0.04784 0.73784 0.29873 0.0
C2929 C 0.9969 0.73312 0.30202 0.0
C2930 C 0.06101 0.74061 0.28665 0.0
C2931 C 1.02336 0.73906 0.27759 0.0
C2932 C 0.97229 0.73467 0.28103 0.0
C2933 C 0.95941 0.73156 0.29303 0.0
C2934 C 1.02252 0.73328 0.24349 0.0
C2935 C 0.06244 0.74854 0.24019 0.0
C2936 C 1.01014 0.73001 0.25557 0.0
C2937 C 0.03691 0.74219 0.26465 0.0
C2938 C 0.07652 0.75765 0.26122 0.0
C2939 C 0.0893 0.76062 0.24919 0.0
H2940 H 0.26686 0.52098 0.23729 0.0
H2941 H 0.26296 0.44582 0.24268 0.0
H2942 H 0.27557 0.52697 0.2587 0.0
H2943 H 0.27476 0.45152 0.26404 0.0
H2944 H 0.24797 0.46802 0.30314 0.0
H2945 H 0.23598 0.46276 0.2817 0.0
H2946 H 0.32772 0.52498 0.27518 0.0
H2947 H 0.33668 0.53084 0.29651 0.0
C2948 C 0.26885 0.50571 0.24306 0.0
C2949 C 0.26416 0.48293 0.23831 0.0
C2950 C 0.27407 0.50909 0.25539 0.0
C2951 C 0.27574 0.48976 0.26329 0.0
C2952 C 0.2724 0.46694 0.2584 0.0
C2953 C 0.26625 0.46361 0.2461 0.0
C2954 C 0.26503 0.48065 0.29708 0.0
C2955 C 0.29311 0.49986 0.30153 0.0
C2956 C 0.25871 0.47754 0.28475 0.0
C2957 C 0.28106 0.49335 0.27652 0.0
C2958 C 0.30897 0.51261 0.28108 0.0
C2959 C 0.31448 0.51592 0.29339 0.0
H2960 H 0.78421 0.2698 0.98644 0.0
H2961 H 0.78641 0.19462 0.99179 0.0
H2962 H 0.77562 0.27576 1.00788 0.0
H2963 H 0.77496 0.2003 1.01315 0.0
H2964 H 0.80431 0.2166 0.05218 0.0
H2965 H 0.81536 0.21148 0.0307 0.0
H2966 H 0.72342 0.27367 0.02445 0.0
H2967 H 0.71516 0.27934 0.04583 0.0
C2968 C 0.78187 0.25452 0.9922 0.0
C2969 C 0.78609 0.23174 0.98744 0.0
C2970 C 0.77676 0.25789 1.00454 0.0
C2971 C 0.77485 0.23853 1.01243 0.0
C2972 C 0.77756 0.21572 1.00752 0.0
C2973 C 0.78351 0.2124 0.99522 0.0
C2974 C 0.78694 0.22924 0.04617 0.0
C2975 C 0.75897 0.24837 0.05071 0.0
C2976 C 0.79275 0.22622 0.03382 0.0
C2977 C 0.77005 0.24206 0.02567 0.0
C2978 C 0.74233 0.26127 0.03031 0.0
C2979 C 0.73725 0.26447 0.04264 0.0
H2980 H 1.01443 0.26785 0.80113 0.0
H2981 H 1.01144 0.19286 0.79514 0.0
H2982 H 1.02234 0.27452 0.77974 0.0
H2983 H 1.02233 0.19925 0.7738 0.0
H2984 H 0.99414 0.21694 0.73484 0.0
H2985 H 0.98283 0.21095 0.75626 0.0
H2986 H 0.07411 0.27315 0.76319 0.0
H2987 H 0.08248 0.27969 0.74191 0.0
C2988 C 1.01644 0.25276 0.79523 0.0
C2989 C 1.01226 0.22984 0.79982 0.0
C2990 C 1.02118 0.25654 0.78292 0.0
C2991 C 1.02284 0.23745 0.77485 0.0
C2992 C 1.01998 0.21448 0.77957 0.0
C2993 C 1.01436 0.21076 0.79186 0.0
C2994 C 1.01125 0.22941 0.74098 0.0
C2995 C 0.03905 0.2488 0.73666 0.0
C2996 C 1.00531 0.22588 0.75331 0.0
C2997 C 0.02773 0.24147 0.76164 0.0
C2998 C 0.05533 0.26093 0.7572 0.0
C2999 C 0.06049 0.26463 0.74492 0.0
H3000 H 0.78386 0.45849 0.80323 0.0
H3001 H 0.78755 0.53348 0.7973 0.0
H3002 H 0.77474 0.45191 0.78185 0.0
H3003 H 0.77554 0.5272 0.77599 0.0
H3004 H 0.80277 0.50974 0.73704 0.0
H3005 H 0.81481 0.51543 0.75845 0.0
H3006 H 0.72236 0.45359 0.76532 0.0
H3007 H 0.71318 0.44733 0.74401 0.0
C3008 C 0.78173 0.47359 0.79736 0.0
C3009 C 0.7865 0.49649 0.80195 0.0
C3010 C 0.77631 0.46987 0.78505 0.0
C3011 C 0.77462 0.48899 0.777 0.0
C3012 C 0.77794 0.51194 0.78174 0.0
C3013 C 0.78421 0.5156 0.79401 0.0
C3014 C 0.78554 0.49728 0.74316 0.0
C3015 C 0.75715 0.47809 0.73881 0.0
C3016 C 0.7919 0.50064 0.75548 0.0
C3017 C 0.76933 0.48508 0.7638 0.0
C3018 C 0.7412 0.46579 0.75934 0.0
C3019 C 0.73559 0.46225 0.74705 0.0
H3020 H 0.03886 0.02069 0.55246 0.0
H3021 H 0.03994 0.94553 0.54703 0.0
H3022 H 0.03115 0.02677 0.53103 0.0
H3023 H 0.02921 0.95134 0.52564 0.0
H3024 H 0.05803 0.96781 0.48656 0.0
H3025 H 0.06906 0.96234 0.50804 0.0
H3026 H 0.9794 0.02516 0.51448 0.0
H3027 H 0.97136 0.03117 0.49316 0.0
C3028 C 0.03641 0.00544 0.54668 0.0
C3029 C 0.04001 0.98264 0.55143 0.0
C3030 C 0.0318 0.00888 0.53434 0.0
C3031 C 0.02969 0.98957 0.52641 0.0
C3032 C 0.03192 0.96673 0.5313 0.0
C3033 C 0.03744 0.96334 0.54361 0.0
C3034 C 0.04122 0.98052 0.49261 0.0
C3035 C 1.01398 -7e-05 0.48814 0.0
C3036 C 0.047 0.9773 0.50496 0.0
C3037 C 1.02496 -0.00677 0.51317 0.0
C3038 C 0.9979 0.01268 0.50859 0.0
C3039 C 0.99292 0.01608 0.49628 0.0
H3040 H 0.22877 0.24022 0.48356 0.0
H3041 H 0.38647 0.22815 0.49351 0.0
H3042 H 0.2062 0.24524 0.50458 0.0
H3043 H 0.36506 0.23424 0.51436 0.0
H3044 H 0.30445 0.22476 0.55222 0.0
H3045 H 0.32624 0.21859 0.53122 0.0
H3046 H 0.21154 0.26984 0.52104 0.0
H3047 H 0.18855 0.27492 0.54186 0.0
C3048 C 0.25867 0.23895 0.49023 0.0
C3049 C 0.3093 0.23382 0.48688 0.0
C3050 C 0.24593 0.24192 0.50232 0.0
C3051 C 0.28374 0.24016 0.51133 0.0
C3052 C 0.3345 0.23526 0.50784 0.0
C3053 C 0.34695 0.23197 0.49582 0.0
C3054 C 0.28423 0.23472 0.54545 0.0
C3055 C 0.24488 0.25031 0.54869 0.0
C3056 C 0.29672 0.23129 0.53338 0.0
C3057 C 0.27059 0.24364 0.52426 0.0
C3058 C 0.23184 0.25955 0.52765 0.0
C3059 C 0.21897 0.26267 0.53965 0.0
H3060 H 0.2484 0.96689 0.80409 0.0
H3061 H 0.33661 0.02987 0.79749 0.0
H3062 H 0.23768 0.96128 0.78262 0.0
H3063 H 0.3288 0.02371 0.77615 0.0
H3064 H 0.26947 0.01903 0.73812 0.0
H3065 H 0.27724 0.02532 0.75954 0.0
H3066 H 0.27773 0.94994 0.76511 0.0
H3067 H 0.26697 0.94393 0.74374 0.0
C3068 C 0.26563 0.97948 0.79803 0.0
C3069 C 0.29321 -0.00117 0.80249 0.0
C3070 C 0.26002 0.97618 0.78569 0.0
C3071 C 0.28257 -0.00805 0.77747 0.0
C3072 C 0.30995 0.01136 0.78205 0.0
C3073 C 0.31478 0.01484 0.79435 0.0
C3074 C 0.27157 0.00384 0.74394 0.0
C3075 C 0.26755 0.98099 0.73924 0.0
C3076 C 0.27624 0.00739 0.75627 0.0
C3077 C 0.27795 0.98817 0.76424 0.0
C3078 C 0.27531 0.96528 0.75941 0.0
C3079 C 0.26976 0.96177 0.74711 0.0
H3080 H 0.74565 0.76164 0.48699 0.0
H3081 H 0.83488 0.69931 0.49423 0.0
H3082 H 0.73403 0.76777 0.50839 0.0
H3083 H 0.8263 0.70603 0.51549 0.0
H3084 H 0.7664 0.71131 0.55337 0.0
H3085 H 0.77456 0.70454 0.53201 0.0
H3086 H 0.77271 0.77978 0.52595 0.0
H3087 H 0.76147 0.78623 0.54727 0.0
C3088 C 0.7629 0.7493 0.49317 0.0
C3089 C 0.79099 0.72997 0.4889 0.0
C3090 C 0.75679 0.75291 0.50548 0.0
C3091 C 0.77937 0.73749 0.51386 0.0
C3092 C 0.80735 0.71812 0.50947 0.0
C3093 C 0.81263 0.71431 0.4972 0.0
C3094 C 0.76802 0.72637 0.54745 0.0
C3095 C 0.76324 0.7493 0.552 0.0
C3096 C 0.77294 0.72254 0.53515 0.0
C3097 C 0.77421 0.74158 0.52706 0.0
C3098 C 0.77069 0.76456 0.53174 0.0
C3099 C 0.76485 0.76834 0.54402 0.0
H3100 H 0.80719 0.01392 0.23711 0.0
H3101 H 0.71758 0.95117 0.24326 0.0
H3102 H 0.81754 0.019 0.25863 0.0
H3103 H 0.72512 0.9568 0.26464 0.0
H3104 H 0.78483 0.96014 0.30266 0.0
H3105 H 0.77711 0.95449 0.2812 0.0
H3106 H 0.77692 0.03002 0.27619 0.0
H3107 H 0.78755 0.0354 0.29762 0.0
C3108 C 0.78957 0.00127 0.24307 0.0
C3109 C 0.76171 0.98213 0.23848 0.0
C3110 C 0.79499 0.00427 0.25544 0.0
C3111 C 0.772 0.98838 0.26354 0.0
C3112 C 0.7443 0.96921 0.25882 0.0
C3113 C 0.73963 0.96603 0.2465 0.0
C3114 C 0.7828 0.9755 0.29696 0.0
C3115 C 0.78687 -0.00179 0.30182 0.0
C3116 C 0.77816 0.97232 0.2846 0.0
C3117 C 0.77655 -0.00822 0.27678 0.0
C3118 C 0.77924 0.01453 0.28178 0.0
C3119 C 0.78472 0.01767 0.29411 0.0
H3120 H 0.5335 0.44596 0.54746 0.0
H3121 H 0.53153 0.52106 0.5531 0.0
H3122 H 0.52235 0.45198 0.5261 0.0
H3123 H 0.52337 0.52736 0.53169 0.0
H3124 H 0.46316 0.5319 0.49379 0.0
H3125 H 0.47148 0.52579 0.51513 0.0
H3126 H 0.56209 0.46332 0.50855 0.0
H3127 H 0.55086 0.46888 0.4871 0.0
C3128 C 0.53075 0.4638 0.5441 0.0
C3129 C 0.53322 0.48301 0.55197 0.0
C3130 C 0.52497 0.46732 0.5318 0.0
C3131 C 0.52236 0.49021 0.52698 0.0
C3132 C 0.52435 0.50943 0.53495 0.0
C3133 C 0.52924 0.50587 0.54728 0.0
C3134 C 0.48499 0.51688 0.4969 0.0
C3135 C 0.50626 0.50083 0.48874 0.0
C3136 C 0.49011 0.51342 0.5092 0.0
C3137 C 0.51748 0.494 0.51375 0.0
C3138 C 0.53976 0.47821 0.50551 0.0
C3139 C 0.53386 0.4815 0.49317 0.0
H3140 H 0.467 0.69694 0.79742 0.0
H3141 H 0.55496 0.75971 0.8047 0.0
H3142 H 0.4765 0.70347 0.77614 0.0
H3143 H 0.56745 0.76566 0.78333 0.0
H3144 H 0.54136 0.78407 0.74453 0.0
H3145 H 0.52872 0.77747 0.76578 0.0
H3146 H 0.52891 0.70225 0.75965 0.0
H3147 H 0.53854 0.70915 0.73831 0.0
C3148 C 0.48914 0.71199 0.79445 0.0
C3149 C 0.51013 0.72785 0.80276 0.0
C3150 C 0.49495 0.71569 0.78218 0.0
C3151 C 0.52274 0.73517 0.77782 0.0
C3152 C 0.54477 0.75074 0.78622 0.0
C3153 C 0.53817 0.74723 0.79851 0.0
C3154 C 0.5381 0.76614 0.74775 0.0
C3155 C 0.5408 0.74715 0.73975 0.0
C3156 C 0.53147 0.76229 0.75999 0.0
C3157 C 0.52826 0.73927 0.76464 0.0
C3158 C 0.53037 0.72027 0.75653 0.0
C3159 C 0.53609 0.72417 0.74424 0.0
H3160 H 0.57666 0.24005 0.30271 0.0
H3161 H 0.41901 0.22746 0.29283 0.0
H3162 H 0.59901 0.24505 0.28166 0.0
H3163 H 0.4402 0.23348 0.27197 0.0
H3164 H 0.49998 0.22386 0.23414 0.0
H3165 H 0.47912 0.21767 0.25517 0.0
H3166 H 0.5932 0.2695 0.26509 0.0
H3167 H 0.61522 0.27467 0.2442 0.0
C3168 C 0.54673 0.23866 0.29605 0.0
C3169 C 0.49617 0.23338 0.29943 0.0
C3170 C 0.55933 0.24161 0.28395 0.0
C3171 C 0.52149 0.23966 0.27495 0.0
C3172 C 0.4708 0.23463 0.27848 0.0
C3173 C 0.45848 0.23138 0.29051 0.0
C3174 C 0.52027 0.23395 0.24084 0.0
C3175 C 0.55907 0.24978 0.23751 0.0
C3176 C 0.50831 0.23051 0.25294 0.0
C3177 C 0.53443 0.24305 0.262 0.0
C3178 C 0.57284 0.25909 0.25853 0.0
C3179 C 0.58518 0.26226 0.24649 0.0
H3180 H 0.61426 0.95399 0.04494 0.0
H3181 H 0.49958 0.00483 0.05516 0.0
H3182 H 0.59199 0.95933 0.02407 0.0
H3183 H 0.47851 0.01121 0.03415 0.0
H3184 H 0.4179 0.00181 0.99654 0.0
H3185 H 0.4393 -0.00448 1.01736 0.0
H3186 H 0.59792 0.98397 1.00756 0.0
H3187 H 0.57532 0.98921 0.98653 0.0
C3188 C 0.58426 0.96643 0.04269 0.0
C3189 C 0.55841 0.97889 0.0517 0.0
C3190 C 0.57181 0.9697 0.03067 0.0
C3191 C 0.53354 0.98583 0.02725 0.0
C3192 C 0.5076 -0.00168 0.03634 0.0
C3193 C 0.51967 -0.00524 0.04843 0.0
C3194 C 0.45738 -0.00217 0.99883 0.0
C3195 C 0.49494 -0.00407 0.98988 0.0
C3196 C 0.46982 -0.00557 1.01083 0.0
C3197 C 0.52051 0.98935 1.01432 0.0
C3198 C 0.55825 0.98747 1.0053 0.0
C3199 C 0.54551 -0.00943 0.99322 0.0
loop_
_geom_bond_atom_site_label_1
_geom_bond_atom_site_label_2
_geom_bond_distance
_geom_bond_site_symmetry_2
_ccdc_geom_bond_type
C0 Eu1 2.835 . S
C0 C2 1.500 . S
C0 O20 1.257 . S
C0 O21 1.260 . S
Eu1 C0 2.835 . S
Eu1 O20 2.473 . S
Eu1 O21 2.480 . S
Eu1 O22 2.430 . S
Eu1 O23 2.670 . S
Eu1 O24 2.394 . S
Eu1 O29 2.355 . S
Eu1 O31 2.374 . S
C2 C0 1.500 . S
C2 C3 1.377 . S
C2 C7 1.377 . S
C3 C2 1.377 . S
C3 C4 1.395 . S
C3 H32 0.931 . S
C4 C3 1.395 . S
C4 C5 1.383 . S
C4 H33 0.931 . S
C5 C4 1.383 . S
C5 C6 1.394 . S
C6 C5 1.394 . S
C6 C7 1.378 . S
C6 H34 0.931 . S
C7 C2 1.377 . S
C7 C6 1.378 . S
C7 H35 0.931 . S
C8 O22 1.259 . S
C8 O23 1.270 . S
C9 O24 1.251 . S
C9 O25 1.251 . S
C10 Eu11 2.835 . S
C10 C12 1.500 . S
C10 O26 1.257 . S
C10 O27 1.260 . S
Eu11 C10 2.835 . S
Eu11 O23 2.355 1_655 S
Eu11 O25 2.374 1_655 S
Eu11 O26 2.473 . S
Eu11 O27 2.480 . S
Eu11 O28 2.430 . S
Eu11 O29 2.670 1_655 S
Eu11 O30 2.394 . S
C12 C10 1.500 . S
C12 C13 1.377 . S
C12 C17 1.377 . S
C13 C12 1.377 . S
C13 C14 1.395 . S
C13 H36 0.931 . S
C14 C13 1.395 . S
C14 C15 1.383 . S
C14 H37 0.931 . S
C15 C14 1.383 . S
C15 C16 1.394 . S
C16 C15 1.394 . S
C16 C17 1.378 . S
C16 H38 0.931 . S
C17 C12 1.377 . S
C17 C16 1.378 . S
C17 H39 0.931 . S
C18 O28 1.259 1_455 S
C18 O29 1.270 . S
C19 O30 1.251 . S
C19 O31 1.251 1_655 S
O20 C0 1.257 . S
O20 Eu1 2.473 . S
O21 C0 1.260 . S
O21 Eu1 2.480 . S
O22 Eu1 2.430 . S
O22 C8 1.259 . S
O23 Eu1 2.670 . S
O23 C8 1.270 . S
O23 Eu11 2.355 1_455 S
O24 Eu1 2.394 . S
O24 C9 1.251 . S
O25 C9 1.251 . S
O25 Eu11 2.374 1_455 S
O26 C10 1.257 . S
O26 Eu11 2.473 . S
O27 C10 1.260 . S
O27 Eu11 2.480 . S
O28 Eu11 2.430 . S
O28 C18 1.259 1_655 S
O29 Eu1 2.355 . S
O29 Eu11 2.670 1_455 S
O29 C18 1.270 . S
O30 Eu11 2.394 . S
O30 C19 1.251 . S
O31 Eu1 2.374 . S
O31 C19 1.251 1_455 S
H32 C3 0.931 . S
H33 C4 0.931 . S
H34 C6 0.931 . S
H35 C7 0.931 . S
H36 C13 0.931 . S
H37 C14 0.931 . S
H38 C16 0.931 . S
H39 C17 0.931 . S
C40 Eu41 2.835 . S
C40 C42 1.500 . S
C40 O60 1.257 . S
C40 O61 1.260 . S
Eu41 C40 2.835 . S
Eu41 O60 2.473 . S
Eu41 O61 2.480 . S
Eu41 O62 2.430 . S
Eu41 O63 2.670 . S
Eu41 O64 2.394 . S
Eu41 O69 2.355 . S
Eu41 O71 2.374 . S
C42 C40 1.500 . S
C42 C43 1.377 1_455 S
C42 C47 1.377 1_455 S
C43 C42 1.377 1_655 S
C43 C44 1.395 . S
C43 H72 0.931 . S
C44 C43 1.395 . S
C44 C45 1.383 . S
C44 H73 0.931 . S
C45 C44 1.383 . S
C45 C46 1.394 . S
C46 C45 1.394 . S
C46 C47 1.378 . S
C46 H74 0.931 . S
C47 C42 1.377 1_655 S
C47 C46 1.378 . S
C47 H75 0.931 1_655 S
C48 O62 1.259 . S
C48 O63 1.270 . S
C49 O64 1.251 . S
C49 O65 1.251 . S
C50 Eu51 2.835 . S
C50 C52 1.500 . S
C50 O66 1.257 . S
C50 O67 1.260 . S
Eu51 C50 2.835 . S
Eu51 O63 2.355 . S
Eu51 O65 2.374 . S
Eu51 O66 2.473 . S
Eu51 O67 2.480 . S
Eu51 O68 2.430 . S
Eu51 O69 2.670 . S
Eu51 O70 2.394 . S
C52 C50 1.500 . S
C52 C53 1.377 . S
C52 C57 1.377 . S
C53 C52 1.377 . S
C53 C54 1.395 . S
C53 H76 0.931 . S
C54 C53 1.395 . S
C54 C55 1.383 . S
C54 H77 0.931 . S
C55 C54 1.383 . S
C55 C56 1.394 . S
C56 C55 1.394 . S
C56 C57 1.378 . S
C56 H78 0.931 . S
C57 C52 1.377 . S
C57 C56 1.378 . S
C57 H79 0.931 . S
C58 O68 1.259 . S
C58 O69 1.270 . S
C59 O70 1.251 . S
C59 O71 1.251 . S
O60 C40 1.257 . S
O60 Eu41 2.473 . S
O61 C40 1.260 . S
O61 Eu41 2.480 . S
O62 Eu41 2.430 . S
O62 C48 1.259 . S
O63 Eu41 2.670 . S
O63 C48 1.270 . S
O63 Eu51 2.355 . S
O64 Eu41 2.394 . S
O64 C49 1.251 . S
O65 C49 1.251 . S
O65 Eu51 2.374 . S
O66 C50 1.257 . S
O66 Eu51 2.473 . S
O67 C50 1.260 . S
O67 Eu51 2.480 . S
O68 Eu51 2.430 . S
O68 C58 1.259 . S
O69 Eu41 2.355 . S
O69 Eu51 2.670 . S
O69 C58 1.270 . S
O70 Eu51 2.394 . S
O70 C59 1.251 . S
O71 Eu41 2.374 . S
O71 C59 1.251 . S
H72 C43 0.931 . S
H73 C44 0.931 . S
H74 C46 0.931 . S
H75 C47 0.931 1_455 S
H76 C53 0.931 . S
H77 C54 0.931 . S
H78 C56 0.931 . S
H79 C57 0.931 . S
C80 Eu81 2.835 . S
C80 C82 1.500 . S
C80 O100 1.257 . S
C80 O101 1.260 . S
Eu81 C80 2.835 . S
Eu81 O100 2.473 . S
Eu81 O101 2.480 . S
Eu81 O102 2.430 . S
Eu81 O103 2.670 . S
Eu81 O104 2.394 . S
Eu81 O109 2.355 . S
Eu81 O111 2.374 . S
C82 C80 1.500 . S
C82 C83 1.377 . S
C82 C87 1.377 . S
C83 C82 1.377 . S
C83 C84 1.395 . S
C83 H112 0.931 . S
C84 C83 1.395 . S
C84 C85 1.383 . S
C84 H113 0.931 . S
C85 C84 1.383 . S
C85 C86 1.394 . S
C86 C85 1.394 . S
C86 C87 1.378 . S
C86 H114 0.931 . S
C87 C82 1.377 . S
C87 C86 1.378 . S
C87 H115 0.931 . S
C88 O102 1.259 . S
C88 O103 1.270 . S
C89 O104 1.251 . S
C89 O105 1.251 . S
C90 Eu91 2.835 . S
C90 C92 1.500 . S
C90 O106 1.257 . S
C90 O107 1.260 . S
Eu91 C90 2.835 . S
Eu91 O103 2.355 1_655 S
Eu91 O105 2.374 1_655 S
Eu91 O106 2.473 . S
Eu91 O107 2.480 . S
Eu91 O108 2.430 . S
Eu91 O109 2.670 1_655 S
Eu91 O110 2.394 . S
C92 C90 1.500 . S
C92 C93 1.377 . S
C92 C97 1.377 . S
C93 C92 1.377 . S
C93 C94 1.395 . S
C93 H116 0.931 . S
C94 C93 1.395 . S
C94 C95 1.383 . S
C94 H117 0.931 . S
C95 C94 1.383 . S
C95 C96 1.394 . S
C96 C95 1.394 . S
C96 C97 1.378 . S
C96 H118 0.931 . S
C97 C92 1.377 . S
C97 C96 1.378 . S
C97 H119 0.931 . S
C98 O108 1.259 1_455 S
C98 O109 1.270 . S
C99 O110 1.251 . S
C99 O111 1.251 1_655 S
O100 C80 1.257 . S
O100 Eu81 2.473 . S
O101 C80 1.260 . S
O101 Eu81 2.480 . S
O102 Eu81 2.430 . S
O102 C88 1.259 . S
O103 Eu81 2.670 . S
O103 C88 1.270 . S
O103 Eu91 2.355 1_455 S
O104 Eu81 2.394 . S
O104 C89 1.251 . S
O105 C89 1.251 . S
O105 Eu91 2.374 1_455 S
O106 C90 1.257 . S
O106 Eu91 2.473 . S
O107 C90 1.260 . S
O107 Eu91 2.480 . S
O108 Eu91 2.430 . S
O108 C98 1.259 1_655 S
O109 Eu81 2.355 . S
O109 Eu91 2.670 1_455 S
O109 C98 1.270 . S
O110 Eu91 2.394 . S
O110 C99 1.251 . S
O111 Eu81 2.374 . S
O111 C99 1.251 1_455 S
H112 C83 0.931 . S
H113 C84 0.931 . S
H114 C86 0.931 . S
H115 C87 0.931 . S
H116 C93 0.931 . S
H117 C94 0.931 . S
H118 C96 0.931 . S
H119 C97 0.931 . S
C120 Eu121 2.835 . S
C120 C122 1.500 . S
C120 O140 1.257 . S
C120 O141 1.260 . S
Eu121 C120 2.835 . S
Eu121 O140 2.473 . S
Eu121 O141 2.480 . S
Eu121 O142 2.430 . S
Eu121 O143 2.670 . S
Eu121 O144 2.394 . S
Eu121 O149 2.355 . S
Eu121 O151 2.374 . S
C122 C120 1.500 . S
C122 C123 1.377 1_455 S
C122 C127 1.377 1_455 S
C123 C122 1.377 1_655 S
C123 C124 1.395 . S
C123 H152 0.931 . S
C124 C123 1.395 . S
C124 C125 1.383 . S
C124 H153 0.931 . S
C125 C124 1.383 . S
C125 C126 1.394 . S
C126 C125 1.394 . S
C126 C127 1.378 . S
C126 H154 0.931 . S
C127 C122 1.377 1_655 S
C127 C126 1.378 . S
C127 H155 0.931 1_655 S
C128 O142 1.259 . S
C128 O143 1.270 . S
C129 O144 1.251 . S
C129 O145 1.251 . S
C130 Eu131 2.835 . S
C130 C132 1.500 . S
C130 O146 1.257 . S
C130 O147 1.260 . S
Eu131 C130 2.835 . S
Eu131 O143 2.355 . S
Eu131 O145 2.374 . S
Eu131 O146 2.473 . S
Eu131 O147 2.480 . S
Eu131 O148 2.430 . S
Eu131 O149 2.670 . S
Eu131 O150 2.394 . S
C132 C130 1.500 . S
C132 C133 1.377 . S
C132 C137 1.377 . S
C133 C132 1.377 . S
C133 C134 1.395 . S
C133 H156 0.931 . S
C134 C133 1.395 . S
C134 C135 1.383 . S
C134 H157 0.931 . S
C135 C134 1.383 . S
C135 C136 1.394 . S
C136 C135 1.394 . S
C136 C137 1.378 . S
C136 H158 0.931 . S
C137 C132 1.377 . S
C137 C136 1.378 . S
C137 H159 0.931 . S
C138 O148 1.259 . S
C138 O149 1.270 . S
C139 O150 1.251 . S
C139 O151 1.251 . S
O140 C120 1.257 . S
O140 Eu121 2.473 . S
O141 C120 1.260 . S
O141 Eu121 2.480 . S
O142 Eu121 2.430 . S
O142 C128 1.259 . S
O143 Eu121 2.670 . S
O143 C128 1.270 . S
O143 Eu131 2.355 . S
O144 Eu121 2.394 . S
O144 C129 1.251 . S
O145 C129 1.251 . S
O145 Eu131 2.374 . S
O146 C130 1.257 . S
O146 Eu131 2.473 . S
O147 C130 1.260 . S
O147 Eu131 2.480 . S
O148 Eu131 2.430 . S
O148 C138 1.259 . S
O149 Eu121 2.355 . S
O149 Eu131 2.670 . S
O149 C138 1.270 . S
O150 Eu131 2.394 . S
O150 C139 1.251 . S
O151 Eu121 2.374 . S
O151 C139 1.251 . S
H152 C123 0.931 . S
H153 C124 0.931 . S
H154 C126 0.931 . S
H155 C127 0.931 1_455 S
H156 C133 0.931 . S
H157 C134 0.931 . S
H158 C136 0.931 . S
H159 C137 0.931 . S
C160 Eu161 2.835 . S
C160 C162 1.500 . S
C160 O180 1.257 . S
C160 O181 1.260 . S
Eu161 C160 2.835 . S
Eu161 O180 2.473 . S
Eu161 O181 2.480 . S
Eu161 O182 2.430 . S
Eu161 O183 2.670 1_455 S
Eu161 O184 2.394 . S
Eu161 O189 2.355 1_455 S
Eu161 O191 2.374 1_455 S
C162 C160 1.500 . S
C162 C163 1.377 . S
C162 C167 1.377 . S
C163 C162 1.377 . S
C163 C164 1.395 . S
C163 H192 0.931 . S
C164 C163 1.395 . S
C164 C165 1.383 . S
C164 H193 0.931 . S
C165 C164 1.383 . S
C165 C166 1.394 . S
C166 C165 1.394 . S
C166 C167 1.378 . S
C166 H194 0.931 . S
C167 C162 1.377 . S
C167 C166 1.378 . S
C167 H195 0.931 . S
C168 O182 1.259 1_655 S
C168 O183 1.270 . S
C169 O184 1.251 . S
C169 O185 1.251 1_455 S
C170 Eu171 2.835 . S
C170 C172 1.500 . S
C170 O186 1.257 . S
C170 O187 1.260 . S
Eu171 C170 2.835 . S
Eu171 O183 2.355 . S
Eu171 O185 2.374 . S
Eu171 O186 2.473 . S
Eu171 O187 2.480 . S
Eu171 O188 2.430 . S
Eu171 O189 2.670 . S
Eu171 O190 2.394 . S
C172 C170 1.500 . S
C172 C173 1.377 . S
C172 C177 1.377 . S
C173 C172 1.377 . S
C173 C174 1.395 . S
C173 H196 0.931 . S
C174 C173 1.395 . S
C174 C175 1.383 . S
C174 H197 0.931 . S
C175 C174 1.383 . S
C175 C176 1.394 . S
C176 C175 1.394 . S
C176 C177 1.378 . S
C176 H198 0.931 . S
C177 C172 1.377 . S
C177 C176 1.378 . S
C177 H199 0.931 . S
C178 O188 1.259 . S
C178 O189 1.270 . S
C179 O190 1.251 . S
C179 O191 1.251 . S
O180 C160 1.257 . S
O180 Eu161 2.473 . S
O181 C160 1.260 . S
O181 Eu161 2.480 . S
O182 Eu161 2.430 . S
O182 C168 1.259 1_455 S
O183 Eu161 2.670 1_655 S
O183 C168 1.270 . S
O183 Eu171 2.355 . S
O184 Eu161 2.394 . S
O184 C169 1.251 . S
O185 C169 1.251 1_655 S
O185 Eu171 2.374 . S
O186 C170 1.257 . S
O186 Eu171 2.473 . S
O187 C170 1.260 . S
O187 Eu171 2.480 . S
O188 Eu171 2.430 . S
O188 C178 1.259 . S
O189 Eu161 2.355 1_655 S
O189 Eu171 2.670 . S
O189 C178 1.270 . S
O190 Eu171 2.394 . S
O190 C179 1.251 . S
O191 Eu161 2.374 1_655 S
O191 C179 1.251 . S
H192 C163 0.931 . S
H193 C164 0.931 . S
H194 C166 0.931 . S
H195 C167 0.931 . S
H196 C173 0.931 . S
H197 C174 0.931 . S
H198 C176 0.931 . S
H199 C177 0.931 . S
C200 Eu201 2.835 . S
C200 C202 1.500 . S
C200 O220 1.257 . S
C200 O221 1.260 . S
Eu201 C200 2.835 . S
Eu201 O220 2.473 . S
Eu201 O221 2.480 . S
Eu201 O222 2.430 . S
Eu201 O223 2.670 . S
Eu201 O224 2.394 . S
Eu201 O229 2.355 . S
Eu201 O231 2.374 . S
C202 C200 1.500 . S
C202 C203 1.377 . S
C202 C207 1.377 . S
C203 C202 1.377 . S
C203 C204 1.395 . S
C203 H232 0.931 . S
C204 C203 1.395 . S
C204 C205 1.383 . S
C204 H233 0.931 . S
C205 C204 1.383 . S
C205 C206 1.394 . S
C206 C205 1.394 . S
C206 C207 1.378 . S
C206 H234 0.931 . S
C207 C202 1.377 . S
C207 C206 1.378 . S
C207 H235 0.931 . S
C208 O222 1.259 . S
C208 O223 1.270 . S
C209 O224 1.251 . S
C209 O225 1.251 . S
C210 Eu211 2.835 . S
C210 C212 1.500 . S
C210 O226 1.257 . S
C210 O227 1.260 . S
Eu211 C210 2.835 . S
Eu211 O223 2.355 . S
Eu211 O225 2.374 . S
Eu211 O226 2.473 . S
Eu211 O227 2.480 . S
Eu211 O228 2.430 . S
Eu211 O229 2.670 . S
Eu211 O230 2.394 . S
C212 C210 1.500 . S
C212 C213 1.377 1_655 S
C212 C217 1.377 1_655 S
C213 C212 1.377 1_455 S
C213 C214 1.395 . S
C213 H236 0.931 . S
C214 C213 1.395 . S
C214 C215 1.383 . S
C214 H237 0.931 . S
C215 C214 1.383 . S
C215 C216 1.394 . S
C216 C215 1.394 . S
C216 C217 1.378 . S
C216 H238 0.931 . S
C217 C212 1.377 1_455 S
C217 C216 1.378 . S
C217 H239 0.931 1_455 S
C218 O228 1.259 . S
C218 O229 1.270 . S
C219 O230 1.251 . S
C219 O231 1.251 . S
O220 C200 1.257 . S
O220 Eu201 2.473 . S
O221 C200 1.260 . S
O221 Eu201 2.480 . S
O222 Eu201 2.430 . S
O222 C208 1.259 . S
O223 Eu201 2.670 . S
O223 C208 1.270 . S
O223 Eu211 2.355 . S
O224 Eu201 2.394 . S
O224 C209 1.251 . S
O225 C209 1.251 . S
O225 Eu211 2.374 . S
O226 C210 1.257 . S
O226 Eu211 2.473 . S
O227 C210 1.260 . S
O227 Eu211 2.480 . S
O228 Eu211 2.430 . S
O228 C218 1.259 . S
O229 Eu201 2.355 . S
O229 Eu211 2.670 . S
O229 C218 1.270 . S
O230 Eu211 2.394 . S
O230 C219 1.251 . S
O231 Eu201 2.374 . S
O231 C219 1.251 . S
H232 C203 0.931 . S
H233 C204 0.931 . S
H234 C206 0.931 . S
H235 C207 0.931 . S
H236 C213 0.931 . S
H237 C214 0.931 . S
H238 C216 0.931 . S
H239 C217 0.931 1_655 S
C240 Eu241 2.835 . S
C240 C242 1.500 . S
C240 O260 1.257 . S
C240 O261 1.260 . S
Eu241 C240 2.835 . S
Eu241 O260 2.473 . S
Eu241 O261 2.480 . S
Eu241 O262 2.430 . S
Eu241 O263 2.670 1_455 S
Eu241 O264 2.394 . S
Eu241 O269 2.355 1_455 S
Eu241 O271 2.374 1_455 S
C242 C240 1.500 . S
C242 C243 1.377 . S
C242 C247 1.377 . S
C243 C242 1.377 . S
C243 C244 1.395 . S
C243 H272 0.931 . S
C244 C243 1.395 . S
C244 C245 1.383 . S
C244 H273 0.931 . S
C245 C244 1.383 . S
C245 C246 1.394 . S
C246 C245 1.394 . S
C246 C247 1.378 . S
C246 H274 0.931 . S
C247 C242 1.377 . S
C247 C246 1.378 . S
C247 H275 0.931 . S
C248 O262 1.259 1_655 S
C248 O263 1.270 . S
C249 O264 1.251 . S
C249 O265 1.251 1_455 S
C250 Eu251 2.835 . S
C250 C252 1.500 . S
C250 O266 1.257 . S
C250 O267 1.260 . S
Eu251 C250 2.835 . S
Eu251 O263 2.355 . S
Eu251 O265 2.374 . S
Eu251 O266 2.473 . S
Eu251 O267 2.480 . S
Eu251 O268 2.430 . S
Eu251 O269 2.670 . S
Eu251 O270 2.394 . S
C252 C250 1.500 . S
C252 C253 1.377 . S
C252 C257 1.377 . S
C253 C252 1.377 . S
C253 C254 1.395 . S
C253 H276 0.931 . S
C254 C253 1.395 . S
C254 C255 1.383 . S
C254 H277 0.931 . S
C255 C254 1.383 . S
C255 C256 1.394 . S
C256 C255 1.394 . S
C256 C257 1.378 . S
C256 H278 0.931 . S
C257 C252 1.377 . S
C257 C256 1.378 . S
C257 H279 0.931 . S
C258 O268 1.259 . S
C258 O269 1.270 . S
C259 O270 1.251 . S
C259 O271 1.251 . S
O260 C240 1.257 . S
O260 Eu241 2.473 . S
O261 C240 1.260 . S
O261 Eu241 2.480 . S
O262 Eu241 2.430 . S
O262 C248 1.259 1_455 S
O263 Eu241 2.670 1_655 S
O263 C248 1.270 . S
O263 Eu251 2.355 . S
O264 Eu241 2.394 . S
O264 C249 1.251 . S
O265 C249 1.251 1_655 S
O265 Eu251 2.374 . S
O266 C250 1.257 . S
O266 Eu251 2.473 . S
O267 C250 1.260 . S
O267 Eu251 2.480 . S
O268 Eu251 2.430 . S
O268 C258 1.259 . S
O269 Eu241 2.355 1_655 S
O269 Eu251 2.670 . S
O269 C258 1.270 . S
O270 Eu251 2.394 . S
O270 C259 1.251 . S
O271 Eu241 2.374 1_655 S
O271 C259 1.251 . S
H272 C243 0.931 . S
H273 C244 0.931 . S
H274 C246 0.931 . S
H275 C247 0.931 . S
H276 C253 0.931 . S
H277 C254 0.931 . S
H278 C256 0.931 . S
H279 C257 0.931 . S
C280 Eu281 2.835 . S
C280 C282 1.500 . S
C280 O300 1.257 . S
C280 O301 1.260 . S
Eu281 C280 2.835 . S
Eu281 O300 2.473 . S
Eu281 O301 2.480 . S
Eu281 O302 2.430 . S
Eu281 O303 2.670 . S
Eu281 O304 2.394 . S
Eu281 O309 2.355 . S
Eu281 O311 2.374 . S
C282 C280 1.500 . S
C282 C283 1.377 . S
C282 C287 1.377 . S
C283 C282 1.377 . S
C283 C284 1.395 . S
C283 H312 0.931 . S
C284 C283 1.395 . S
C284 C285 1.383 . S
C284 H313 0.931 . S
C285 C284 1.383 . S
C285 C286 1.394 . S
C286 C285 1.394 . S
C286 C287 1.378 . S
C286 H314 0.931 . S
C287 C282 1.377 . S
C287 C286 1.378 . S
C287 H315 0.931 . S
C288 O302 1.259 . S
C288 O303 1.270 . S
C289 O304 1.251 . S
C289 O305 1.251 . S
C290 Eu291 2.835 . S
C290 C292 1.500 . S
C290 O306 1.257 . S
C290 O307 1.260 . S
Eu291 C290 2.835 . S
Eu291 O303 2.355 . S
Eu291 O305 2.374 . S
Eu291 O306 2.473 . S
Eu291 O307 2.480 . S
Eu291 O308 2.430 . S
Eu291 O309 2.670 . S
Eu291 O310 2.394 . S
C292 C290 1.500 . S
C292 C293 1.377 1_655 S
C292 C297 1.377 1_655 S
C293 C292 1.377 1_455 S
C293 C294 1.395 . S
C293 H316 0.931 . S
C294 C293 1.395 . S
C294 C295 1.383 . S
C294 H317 0.931 . S
C295 C294 1.383 . S
C295 C296 1.394 . S
C296 C295 1.394 . S
C296 C297 1.378 . S
C296 H318 0.931 . S
C297 C292 1.377 1_455 S
C297 C296 1.378 . S
C297 H319 0.931 1_455 S
C298 O308 1.259 . S
C298 O309 1.270 . S
C299 O310 1.251 . S
C299 O311 1.251 . S
O300 C280 1.257 . S
O300 Eu281 2.473 . S
O301 C280 1.260 . S
O301 Eu281 2.480 . S
O302 Eu281 2.430 . S
O302 C288 1.259 . S
O303 Eu281 2.670 . S
O303 C288 1.270 . S
O303 Eu291 2.355 . S
O304 Eu281 2.394 . S
O304 C289 1.251 . S
O305 C289 1.251 . S
O305 Eu291 2.374 . S
O306 C290 1.257 . S
O306 Eu291 2.473 . S
O307 C290 1.260 . S
O307 Eu291 2.480 . S
O308 Eu291 2.430 . S
O308 C298 1.259 . S
O309 Eu281 2.355 . S
O309 Eu291 2.670 . S
O309 C298 1.270 . S
O310 Eu291 2.394 . S
O310 C299 1.251 . S
O311 Eu281 2.374 . S
O311 C299 1.251 . S
H312 C283 0.931 . S
H313 C284 0.931 . S
H314 C286 0.931 . S
H315 C287 0.931 . S
H316 C293 0.931 . S
H317 C294 0.931 . S
H318 C296 0.931 . S
H319 C297 0.931 1_655 S
C320 Eu321 2.835 . S
C320 C322 1.500 . S
C320 O340 1.257 . S
C320 O341 1.260 . S
Eu321 C320 2.835 . S
Eu321 O340 2.473 . S
Eu321 O341 2.480 . S
Eu321 O342 2.430 . S
Eu321 O343 2.670 . S
Eu321 O344 2.394 1_565 S
Eu321 O349 2.355 . S
Eu321 O351 2.374 . S
C322 C320 1.500 . S
C322 C323 1.377 . S
C322 C327 1.377 1_565 S
C323 C322 1.377 . S
C323 C324 1.395 . S
C323 H352 0.931 . S
C324 C323 1.395 . S
C324 C325 1.383 1_565 S
C324 H353 0.931 . S
C325 C324 1.383 1_545 S
C325 C326 1.394 . S
C326 C325 1.394 . S
C326 C327 1.378 . S
C326 H354 0.931 . S
C327 C322 1.377 1_545 S
C327 C326 1.378 . S
C327 H355 0.931 . S
C328 O342 1.259 . S
C328 O343 1.270 . S
C329 O344 1.251 . S
C329 O345 1.251 . S
C330 Eu331 2.835 1_565 S
C330 C332 1.500 . S
C330 O346 1.257 . S
C330 O347 1.260 1_565 S
Eu331 C330 2.835 1_545 S
Eu331 O343 2.355 1_645 S
Eu331 O345 2.374 1_655 S
Eu331 O346 2.473 1_545 S
Eu331 O347 2.480 . S
Eu331 O348 2.430 . S
Eu331 O349 2.670 1_645 S
Eu331 O350 2.394 1_545 S
C332 C330 1.500 . S
C332 C333 1.377 . S
C332 C337 1.377 . S
C333 C332 1.377 . S
C333 C334 1.395 . S
C333 H356 0.931 . S
C334 C333 1.395 . S
C334 C335 1.383 . S
C334 H357 0.931 . S
C335 C334 1.383 . S
C335 C336 1.394 . S
C336 C335 1.394 . S
C336 C337 1.378 . S
C336 H358 0.931 . S
C337 C332 1.377 . S
C337 C336 1.378 . S
C337 H359 0.931 . S
C338 O348 1.259 1_465 S
C338 O349 1.270 . S
C339 O350 1.251 . S
C339 O351 1.251 1_655 S
O340 C320 1.257 . S
O340 Eu321 2.473 . S
O341 C320 1.260 . S
O341 Eu321 2.480 . S
O342 Eu321 2.430 . S
O342 C328 1.259 . S
O343 Eu321 2.670 . S
O343 C328 1.270 . S
O343 Eu331 2.355 1_465 S
O344 Eu321 2.394 1_545 S
O344 C329 1.251 . S
O345 C329 1.251 . S
O345 Eu331 2.374 1_455 S
O346 C330 1.257 . S
O346 Eu331 2.473 1_565 S
O347 C330 1.260 1_545 S
O347 Eu331 2.480 . S
O348 Eu331 2.430 . S
O348 C338 1.259 1_645 S
O349 Eu321 2.355 . S
O349 Eu331 2.670 1_465 S
O349 C338 1.270 . S
O350 Eu331 2.394 1_565 S
O350 C339 1.251 . S
O351 Eu321 2.374 . S
O351 C339 1.251 1_455 S
H352 C323 0.931 . S
H353 C324 0.931 . S
H354 C326 0.931 . S
H355 C327 0.931 . S
H356 C333 0.931 . S
H357 C334 0.931 . S
H358 C336 0.931 . S
H359 C337 0.931 . S
C360 Eu361 2.835 . S
C360 C362 1.500 . S
C360 O380 1.257 . S
C360 O381 1.260 . S
Eu361 C360 2.835 . S
Eu361 O380 2.473 . S
Eu361 O381 2.480 . S
Eu361 O382 2.430 . S
Eu361 O383 2.670 . S
Eu361 O384 2.394 . S
Eu361 O389 2.355 . S
Eu361 O391 2.374 . S
C362 C360 1.500 . S
C362 C363 1.377 1_455 S
C362 C367 1.377 1_455 S
C363 C362 1.377 1_655 S
C363 C364 1.395 . S
C363 H392 0.931 . S
C364 C363 1.395 . S
C364 C365 1.383 . S
C364 H393 0.931 . S
C365 C364 1.383 . S
C365 C366 1.394 . S
C366 C365 1.394 . S
C366 C367 1.378 . S
C366 H394 0.931 . S
C367 C362 1.377 1_655 S
C367 C366 1.378 . S
C367 H395 0.931 1_655 S
C368 O382 1.259 . S
C368 O383 1.270 . S
C369 O384 1.251 . S
C369 O385 1.251 . S
C370 Eu371 2.835 . S
C370 C372 1.500 . S
C370 O386 1.257 . S
C370 O387 1.260 . S
Eu371 C370 2.835 . S
Eu371 O383 2.355 . S
Eu371 O385 2.374 . S
Eu371 O386 2.473 . S
Eu371 O387 2.480 . S
Eu371 O388 2.430 . S
Eu371 O389 2.670 . S
Eu371 O390 2.394 . S
C372 C370 1.500 . S
C372 C373 1.377 . S
C372 C377 1.377 . S
C373 C372 1.377 . S
C373 C374 1.395 . S
C373 H396 0.931 . S
C374 C373 1.395 . S
C374 C375 1.383 . S
C374 H397 0.931 . S
C375 C374 1.383 . S
C375 C376 1.394 . S
C376 C375 1.394 . S
C376 C377 1.378 . S
C376 H398 0.931 . S
C377 C372 1.377 . S
C377 C376 1.378 . S
C377 H399 0.931 . S
C378 O388 1.259 . S
C378 O389 1.270 . S
C379 O390 1.251 . S
C379 O391 1.251 . S
O380 C360 1.257 . S
O380 Eu361 2.473 . S
O381 C360 1.260 . S
O381 Eu361 2.480 . S
O382 Eu361 2.430 . S
O382 C368 1.259 . S
O383 Eu361 2.670 . S
O383 C368 1.270 . S
O383 Eu371 2.355 . S
O384 Eu361 2.394 . S
O384 C369 1.251 . S
O385 C369 1.251 . S
O385 Eu371 2.374 . S
O386 C370 1.257 . S
O386 Eu371 2.473 . S
O387 C370 1.260 . S
O387 Eu371 2.480 . S
O388 Eu371 2.430 . S
O388 C378 1.259 . S
O389 Eu361 2.355 . S
O389 Eu371 2.670 . S
O389 C378 1.270 . S
O390 Eu371 2.394 . S
O390 C379 1.251 . S
O391 Eu361 2.374 . S
O391 C379 1.251 . S
H392 C363 0.931 . S
H393 C364 0.931 . S
H394 C366 0.931 . S
H395 C367 0.931 1_455 S
H396 C373 0.931 . S
H397 C374 0.931 . S
H398 C376 0.931 . S
H399 C377 0.931 . S
C400 Eu401 2.835 . S
C400 C402 1.500 . S
C400 O420 1.257 . S
C400 O421 1.260 . S
Eu401 C400 2.835 . S
Eu401 O420 2.473 . S
Eu401 O421 2.480 . S
Eu401 O422 2.430 . S
Eu401 O423 2.670 . S
Eu401 O424 2.394 . S
Eu401 O429 2.355 . S
Eu401 O431 2.374 . S
C402 C400 1.500 . S
C402 C403 1.377 . S
C402 C407 1.377 . S
C403 C402 1.377 . S
C403 C404 1.395 . S
C403 H432 0.931 . S
C404 C403 1.395 . S
C404 C405 1.383 . S
C404 H433 0.931 . S
C405 C404 1.383 . S
C405 C406 1.394 . S
C406 C405 1.394 . S
C406 C407 1.378 . S
C406 H434 0.931 . S
C407 C402 1.377 . S
C407 C406 1.378 . S
C407 H435 0.931 . S
C408 O422 1.259 . S
C408 O423 1.270 . S
C409 O424 1.251 . S
C409 O425 1.251 . S
C410 Eu411 2.835 . S
C410 C412 1.500 . S
C410 O426 1.257 . S
C410 O427 1.260 . S
Eu411 C410 2.835 . S
Eu411 O423 2.355 1_655 S
Eu411 O425 2.374 1_655 S
Eu411 O426 2.473 . S
Eu411 O427 2.480 . S
Eu411 O428 2.430 . S
Eu411 O429 2.670 1_655 S
Eu411 O430 2.394 . S
C412 C410 1.500 . S
C412 C413 1.377 . S
C412 C417 1.377 . S
C413 C412 1.377 . S
C413 C414 1.395 . S
C413 H436 0.931 . S
C414 C413 1.395 . S
C414 C415 1.383 . S
C414 H437 0.931 . S
C415 C414 1.383 . S
C415 C416 1.394 . S
C416 C415 1.394 . S
C416 C417 1.378 . S
C416 H438 0.931 . S
C417 C412 1.377 . S
C417 C416 1.378 . S
C417 H439 0.931 . S
C418 O428 1.259 1_455 S
C418 O429 1.270 . S
C419 O430 1.251 . S
C419 O431 1.251 1_655 S
O420 C400 1.257 . S
O420 Eu401 2.473 . S
O421 C400 1.260 . S
O421 Eu401 2.480 . S
O422 Eu401 2.430 . S
O422 C408 1.259 . S
O423 Eu401 2.670 . S
O423 C408 1.270 . S
O423 Eu411 2.355 1_455 S
O424 Eu401 2.394 . S
O424 C409 1.251 . S
O425 C409 1.251 . S
O425 Eu411 2.374 1_455 S
O426 C410 1.257 . S
O426 Eu411 2.473 . S
O427 C410 1.260 . S
O427 Eu411 2.480 . S
O428 Eu411 2.430 . S
O428 C418 1.259 1_655 S
O429 Eu401 2.355 . S
O429 Eu411 2.670 1_455 S
O429 C418 1.270 . S
O430 Eu411 2.394 . S
O430 C419 1.251 . S
O431 Eu401 2.374 . S
O431 C419 1.251 1_455 S
H432 C403 0.931 . S
H433 C404 0.931 . S
H434 C406 0.931 . S
H435 C407 0.931 . S
H436 C413 0.931 . S
H437 C414 0.931 . S
H438 C416 0.931 . S
H439 C417 0.931 . S
C440 Eu441 2.835 . S
C440 C442 1.500 . S
C440 O460 1.257 . S
C440 O461 1.260 . S
Eu441 C440 2.835 . S
Eu441 O460 2.473 . S
Eu441 O461 2.480 . S
Eu441 O462 2.430 . S
Eu441 O463 2.670 . S
Eu441 O464 2.394 1_565 S
Eu441 O469 2.355 . S
Eu441 O471 2.374 . S
C442 C440 1.500 . S
C442 C443 1.377 1_455 S
C442 C447 1.377 1_465 S
C443 C442 1.377 1_655 S
C443 C444 1.395 . S
C443 H472 0.931 . S
C444 C443 1.395 . S
C444 C445 1.383 1_565 S
C444 H473 0.931 . S
C445 C444 1.383 1_545 S
C445 C446 1.394 . S
C446 C445 1.394 . S
C446 C447 1.378 . S
C446 H474 0.931 . S
C447 C442 1.377 1_645 S
C447 C446 1.378 . S
C447 H475 0.931 1_655 S
C448 O462 1.259 . S
C448 O463 1.270 . S
C449 O464 1.251 . S
C449 O465 1.251 . S
C450 Eu451 2.835 1_565 S
C450 C452 1.500 . S
C450 O466 1.257 . S
C450 O467 1.260 1_565 S
Eu451 C450 2.835 1_545 S
Eu451 O463 2.355 1_545 S
Eu451 O465 2.374 . S
Eu451 O466 2.473 1_545 S
Eu451 O467 2.480 . S
Eu451 O468 2.430 . S
Eu451 O469 2.670 1_545 S
Eu451 O470 2.394 1_545 S
C452 C450 1.500 . S
C452 C453 1.377 . S
C452 C457 1.377 . S
C453 C452 1.377 . S
C453 C454 1.395 . S
C453 H476 0.931 . S
C454 C453 1.395 . S
C454 C455 1.383 . S
C454 H477 0.931 . S
C455 C454 1.383 . S
C455 C456 1.394 . S
C456 C455 1.394 . S
C456 C457 1.378 . S
C456 H478 0.931 . S
C457 C452 1.377 . S
C457 C456 1.378 . S
C457 H479 0.931 . S
C458 O468 1.259 1_565 S
C458 O469 1.270 . S
C459 O470 1.251 . S
C459 O471 1.251 . S
O460 C440 1.257 . S
O460 Eu441 2.473 . S
O461 C440 1.260 . S
O461 Eu441 2.480 . S
O462 Eu441 2.430 . S
O462 C448 1.259 . S
O463 Eu441 2.670 . S
O463 C448 1.270 . S
O463 Eu451 2.355 1_565 S
O464 Eu441 2.394 1_545 S
O464 C449 1.251 . S
O465 C449 1.251 . S
O465 Eu451 2.374 . S
O466 C450 1.257 . S
O466 Eu451 2.473 1_565 S
O467 C450 1.260 1_545 S
O467 Eu451 2.480 . S
O468 Eu451 2.430 . S
O468 C458 1.259 1_545 S
O469 Eu441 2.355 . S
O469 Eu451 2.670 1_565 S
O469 C458 1.270 . S
O470 Eu451 2.394 1_565 S
O470 C459 1.251 . S
O471 Eu441 2.374 . S
O471 C459 1.251 . S
H472 C443 0.931 . S
H473 C444 0.931 . S
H474 C446 0.931 . S
H475 C447 0.931 1_455 S
H476 C453 0.931 . S
H477 C454 0.931 . S
H478 C456 0.931 . S
H479 C457 0.931 . S
C480 Eu481 2.835 1_545 S
C480 C482 1.500 . S
C480 O500 1.257 . S
C480 O501 1.260 1_545 S
Eu481 C480 2.835 1_565 S
Eu481 O500 2.473 1_565 S
Eu481 O501 2.480 . S
Eu481 O502 2.430 . S
Eu481 O503 2.670 1_465 S
Eu481 O504 2.394 1_565 S
Eu481 O509 2.355 1_465 S
Eu481 O511 2.374 1_455 S
C482 C480 1.500 . S
C482 C483 1.377 . S
C482 C487 1.377 . S
C483 C482 1.377 . S
C483 C484 1.395 . S
C483 H512 0.931 . S
C484 C483 1.395 . S
C484 C485 1.383 . S
C484 H513 0.931 . S
C485 C484 1.383 . S
C485 C486 1.394 . S
C486 C485 1.394 . S
C486 C487 1.378 . S
C486 H514 0.931 . S
C487 C482 1.377 . S
C487 C486 1.378 . S
C487 H515 0.931 . S
C488 O502 1.259 1_645 S
C488 O503 1.270 . S
C489 O504 1.251 . S
C489 O505 1.251 1_455 S
C490 Eu491 2.835 . S
C490 C492 1.500 . S
C490 O506 1.257 . S
C490 O507 1.260 . S
Eu491 C490 2.835 . S
Eu491 O503 2.355 . S
Eu491 O505 2.374 . S
Eu491 O506 2.473 . S
Eu491 O507 2.480 . S
Eu491 O508 2.430 . S
Eu491 O509 2.670 . S
Eu491 O510 2.394 1_545 S
C492 C490 1.500 . S
C492 C493 1.377 . S
C492 C497 1.377 1_545 S
C493 C492 1.377 . S
C493 C494 1.395 . S
C493 H516 0.931 . S
C494 C493 1.395 . S
C494 C495 1.383 1_545 S
C494 H517 0.931 . S
C495 C494 1.383 1_565 S
C495 C496 1.394 . S
C496 C495 1.394 . S
C496 C497 1.378 . S
C496 H518 0.931 . S
C497 C492 1.377 1_565 S
C497 C496 1.378 . S
C497 H519 0.931 . S
C498 O508 1.259 . S
C498 O509 1.270 . S
C499 O510 1.251 . S
C499 O511 1.251 . S
O500 C480 1.257 . S
O500 Eu481 2.473 1_545 S
O501 C480 1.260 1_565 S
O501 Eu481 2.480 . S
O502 Eu481 2.430 . S
O502 C488 1.259 1_465 S
O503 Eu481 2.670 1_645 S
O503 C488 1.270 . S
O503 Eu491 2.355 . S
O504 Eu481 2.394 1_545 S
O504 C489 1.251 . S
O505 C489 1.251 1_655 S
O505 Eu491 2.374 . S
O506 C490 1.257 . S
O506 Eu491 2.473 . S
O507 C490 1.260 . S
O507 Eu491 2.480 . S
O508 Eu491 2.430 . S
O508 C498 1.259 . S
O509 Eu481 2.355 1_645 S
O509 Eu491 2.670 . S
O509 C498 1.270 . S
O510 Eu491 2.394 1_565 S
O510 C499 1.251 . S
O511 Eu481 2.374 1_655 S
O511 C499 1.251 . S
H512 C483 0.931 . S
H513 C484 0.931 . S
H514 C486 0.931 . S
H515 C487 0.931 . S
H516 C493 0.931 . S
H517 C494 0.931 . S
H518 C496 0.931 . S
H519 C497 0.931 . S
C520 Eu521 2.835 . S
C520 C522 1.500 . S
C520 O540 1.257 . S
C520 O541 1.260 . S
Eu521 C520 2.835 . S
Eu521 O540 2.473 . S
Eu521 O541 2.480 . S
Eu521 O542 2.430 . S
Eu521 O543 2.670 . S
Eu521 O544 2.394 . S
Eu521 O549 2.355 . S
Eu521 O551 2.374 . S
C522 C520 1.500 . S
C522 C523 1.377 . S
C522 C527 1.377 . S
C523 C522 1.377 . S
C523 C524 1.395 . S
C523 H552 0.931 . S
C524 C523 1.395 . S
C524 C525 1.383 . S
C524 H553 0.931 . S
C525 C524 1.383 . S
C525 C526 1.394 . S
C526 C525 1.394 . S
C526 C527 1.378 . S
C526 H554 0.931 . S
C527 C522 1.377 . S
C527 C526 1.378 . S
C527 H555 0.931 . S
C528 O542 1.259 . S
C528 O543 1.270 . S
C529 O544 1.251 . S
C529 O545 1.251 . S
C530 Eu531 2.835 . S
C530 C532 1.500 . S
C530 O546 1.257 . S
C530 O547 1.260 . S
Eu531 C530 2.835 . S
Eu531 O543 2.355 . S
Eu531 O545 2.374 . S
Eu531 O546 2.473 . S
Eu531 O547 2.480 . S
Eu531 O548 2.430 . S
Eu531 O549 2.670 . S
Eu531 O550 2.394 . S
C532 C530 1.500 . S
C532 C533 1.377 1_655 S
C532 C537 1.377 1_655 S
C533 C532 1.377 1_455 S
C533 C534 1.395 . S
C533 H556 0.931 . S
C534 C533 1.395 . S
C534 C535 1.383 . S
C534 H557 0.931 . S
C535 C534 1.383 . S
C535 C536 1.394 . S
C536 C535 1.394 . S
C536 C537 1.378 . S
C536 H558 0.931 . S
C537 C532 1.377 1_455 S
C537 C536 1.378 . S
C537 H559 0.931 1_455 S
C538 O548 1.259 . S
C538 O549 1.270 . S
C539 O550 1.251 . S
C539 O551 1.251 . S
O540 C520 1.257 . S
O540 Eu521 2.473 . S
O541 C520 1.260 . S
O541 Eu521 2.480 . S
O542 Eu521 2.430 . S
O542 C528 1.259 . S
O543 Eu521 2.670 . S
O543 C528 1.270 . S
O543 Eu531 2.355 . S
O544 Eu521 2.394 . S
O544 C529 1.251 . S
O545 C529 1.251 . S
O545 Eu531 2.374 . S
O546 C530 1.257 . S
O546 Eu531 2.473 . S
O547 C530 1.260 . S
O547 Eu531 2.480 . S
O548 Eu531 2.430 . S
O548 C538 1.259 . S
O549 Eu521 2.355 . S
O549 Eu531 2.670 . S
O549 C538 1.270 . S
O550 Eu531 2.394 . S
O550 C539 1.251 . S
O551 Eu521 2.374 . S
O551 C539 1.251 . S
H552 C523 0.931 . S
H553 C524 0.931 . S
H554 C526 0.931 . S
H555 C527 0.931 . S
H556 C533 0.931 . S
H557 C534 0.931 . S
H558 C536 0.931 . S
H559 C537 0.931 1_655 S
C560 Eu561 2.835 . S
C560 C562 1.500 . S
C560 O580 1.257 . S
C560 O581 1.260 . S
Eu561 C560 2.835 . S
Eu561 O580 2.473 . S
Eu561 O581 2.480 . S
Eu561 O582 2.430 . S
Eu561 O583 2.670 1_455 S
Eu561 O584 2.394 . S
Eu561 O589 2.355 1_455 S
Eu561 O591 2.374 1_455 S
C562 C560 1.500 . S
C562 C563 1.377 . S
C562 C567 1.377 . S
C563 C562 1.377 . S
C563 C564 1.395 . S
C563 H592 0.931 . S
C564 C563 1.395 . S
C564 C565 1.383 . S
C564 H593 0.931 . S
C565 C564 1.383 . S
C565 C566 1.394 . S
C566 C565 1.394 . S
C566 C567 1.378 . S
C566 H594 0.931 . S
C567 C562 1.377 . S
C567 C566 1.378 . S
C567 H595 0.931 . S
C568 O582 1.259 1_655 S
C568 O583 1.270 . S
C569 O584 1.251 . S
C569 O585 1.251 1_455 S
C570 Eu571 2.835 . S
C570 C572 1.500 . S
C570 O586 1.257 . S
C570 O587 1.260 . S
Eu571 C570 2.835 . S
Eu571 O583 2.355 . S
Eu571 O585 2.374 . S
Eu571 O586 2.473 . S
Eu571 O587 2.480 . S
Eu571 O588 2.430 . S
Eu571 O589 2.670 . S
Eu571 O590 2.394 . S
C572 C570 1.500 . S
C572 C573 1.377 . S
C572 C577 1.377 . S
C573 C572 1.377 . S
C573 C574 1.395 . S
C573 H596 0.931 . S
C574 C573 1.395 . S
C574 C575 1.383 . S
C574 H597 0.931 . S
C575 C574 1.383 . S
C575 C576 1.394 . S
C576 C575 1.394 . S
C576 C577 1.378 . S
C576 H598 0.931 . S
C577 C572 1.377 . S
C577 C576 1.378 . S
C577 H599 0.931 . S
C578 O588 1.259 . S
C578 O589 1.270 . S
C579 O590 1.251 . S
C579 O591 1.251 . S
O580 C560 1.257 . S
O580 Eu561 2.473 . S
O581 C560 1.260 . S
O581 Eu561 2.480 . S
O582 Eu561 2.430 . S
O582 C568 1.259 1_455 S
O583 Eu561 2.670 1_655 S
O583 C568 1.270 . S
O583 Eu571 2.355 . S
O584 Eu561 2.394 . S
O584 C569 1.251 . S
O585 C569 1.251 1_655 S
O585 Eu571 2.374 . S
O586 C570 1.257 . S
O586 Eu571 2.473 . S
O587 C570 1.260 . S
O587 Eu571 2.480 . S
O588 Eu571 2.430 . S
O588 C578 1.259 . S
O589 Eu561 2.355 1_655 S
O589 Eu571 2.670 . S
O589 C578 1.270 . S
O590 Eu571 2.394 . S
O590 C579 1.251 . S
O591 Eu561 2.374 1_655 S
O591 C579 1.251 . S
H592 C563 0.931 . S
H593 C564 0.931 . S
H594 C566 0.931 . S
H595 C567 0.931 . S
H596 C573 0.931 . S
H597 C574 0.931 . S
H598 C576 0.931 . S
H599 C577 0.931 . S
C600 Eu601 2.835 1_545 S
C600 C602 1.500 . S
C600 O620 1.257 . S
C600 O621 1.260 1_545 S
Eu601 C600 2.835 1_565 S
Eu601 O620 2.473 1_565 S
Eu601 O621 2.480 . S
Eu601 O622 2.430 . S
Eu601 O623 2.670 1_565 S
Eu601 O624 2.394 1_565 S
Eu601 O629 2.355 1_565 S
Eu601 O631 2.374 . S
C602 C600 1.500 . S
C602 C603 1.377 . S
C602 C607 1.377 . S
C603 C602 1.377 . S
C603 C604 1.395 . S
C603 H632 0.931 . S
C604 C603 1.395 . S
C604 C605 1.383 . S
C604 H633 0.931 . S
C605 C604 1.383 . S
C605 C606 1.394 . S
C606 C605 1.394 . S
C606 C607 1.378 . S
C606 H634 0.931 . S
C607 C602 1.377 . S
C607 C606 1.378 . S
C607 H635 0.931 . S
C608 O622 1.259 1_545 S
C608 O623 1.270 . S
C609 O624 1.251 . S
C609 O625 1.251 . S
C610 Eu611 2.835 . S
C610 C612 1.500 . S
C610 O626 1.257 . S
C610 O627 1.260 . S
Eu611 C610 2.835 . S
Eu611 O623 2.355 . S
Eu611 O625 2.374 . S
Eu611 O626 2.473 . S
Eu611 O627 2.480 . S
Eu611 O628 2.430 . S
Eu611 O629 2.670 . S
Eu611 O630 2.394 1_545 S
C612 C610 1.500 . S
C612 C613 1.377 1_655 S
C612 C617 1.377 1_645 S
C613 C612 1.377 1_455 S
C613 C614 1.395 . S
C613 H636 0.931 . S
C614 C613 1.395 . S
C614 C615 1.383 1_545 S
C614 H637 0.931 . S
C615 C614 1.383 1_565 S
C615 C616 1.394 . S
C616 C615 1.394 . S
C616 C617 1.378 . S
C616 H638 0.931 . S
C617 C612 1.377 1_465 S
C617 C616 1.378 . S
C617 H639 0.931 1_455 S
C618 O628 1.259 . S
C618 O629 1.270 . S
C619 O630 1.251 . S
C619 O631 1.251 . S
O620 C600 1.257 . S
O620 Eu601 2.473 1_545 S
O621 C600 1.260 1_565 S
O621 Eu601 2.480 . S
O622 Eu601 2.430 . S
O622 C608 1.259 1_565 S
O623 Eu601 2.670 1_545 S
O623 C608 1.270 . S
O623 Eu611 2.355 . S
O624 Eu601 2.394 1_545 S
O624 C609 1.251 . S
O625 C609 1.251 . S
O625 Eu611 2.374 . S
O626 C610 1.257 . S
O626 Eu611 2.473 . S
O627 C610 1.260 . S
O627 Eu611 2.480 . S
O628 Eu611 2.430 . S
O628 C618 1.259 . S
O629 Eu601 2.355 1_545 S
O629 Eu611 2.670 . S
O629 C618 1.270 . S
O630 Eu611 2.394 1_565 S
O630 C619 1.251 . S
O631 Eu601 2.374 . S
O631 C619 1.251 . S
H632 C603 0.931 . S
H633 C604 0.931 . S
H634 C606 0.931 . S
H635 C607 0.931 . S
H636 C613 0.931 . S
H637 C614 0.931 . S
H638 C616 0.931 . S
H639 C617 0.931 1_655 S
C640 Eu641 2.835 . S
C640 C642 1.500 . S
C640 O660 1.257 . S
C640 O661 1.260 . S
Eu641 C640 2.835 . S
Eu641 O660 2.473 . S
Eu641 O661 2.480 . S
Eu641 O662 2.430 . S
Eu641 O663 2.670 . S
Eu641 O664 2.394 . S
Eu641 O669 2.355 . S
Eu641 O671 2.374 . S
C642 C640 1.500 . S
C642 C643 1.377 . S
C642 C647 1.377 . S
C643 C642 1.377 . S
C643 C644 1.395 . S
C643 H672 0.931 . S
C644 C643 1.395 . S
C644 C645 1.383 . S
C644 H673 0.931 . S
C645 C644 1.383 . S
C645 C646 1.394 . S
C646 C645 1.394 . S
C646 C647 1.378 . S
C646 H674 0.931 . S
C647 C642 1.377 . S
C647 C646 1.378 . S
C647 H675 0.931 . S
C648 O662 1.259 . S
C648 O663 1.270 . S
C649 O664 1.251 . S
C649 O665 1.251 . S
C650 Eu651 2.835 . S
C650 C652 1.500 . S
C650 O666 1.257 . S
C650 O667 1.260 . S
Eu651 C650 2.835 . S
Eu651 O663 2.355 . S
Eu651 O665 2.374 . S
Eu651 O666 2.473 . S
Eu651 O667 2.480 . S
Eu651 O668 2.430 . S
Eu651 O669 2.670 . S
Eu651 O670 2.394 . S
C652 C650 1.500 . S
C652 C653 1.377 . S
C652 C657 1.377 . S
C653 C652 1.377 . S
C653 C654 1.395 . S
C653 H676 0.931 . S
C654 C653 1.395 . S
C654 C655 1.383 . S
C654 H677 0.931 . S
C655 C654 1.383 . S
C655 C656 1.394 . S
C656 C655 1.394 . S
C656 C657 1.378 . S
C656 H678 0.931 . S
C657 C652 1.377 . S
C657 C656 1.378 . S
C657 H679 0.931 . S
C658 O668 1.259 . S
C658 O669 1.270 . S
C659 O670 1.251 . S
C659 O671 1.251 . S
O660 C640 1.257 . S
O660 Eu641 2.473 . S
O661 C640 1.260 . S
O661 Eu641 2.480 . S
O662 Eu641 2.430 . S
O662 C648 1.259 . S
O663 Eu641 2.670 . S
O663 C648 1.270 . S
O663 Eu651 2.355 . S
O664 Eu641 2.394 . S
O664 C649 1.251 . S
O665 C649 1.251 . S
O665 Eu651 2.374 . S
O666 C650 1.257 . S
O666 Eu651 2.473 . S
O667 C650 1.260 . S
O667 Eu651 2.480 . S
O668 Eu651 2.430 . S
O668 C658 1.259 . S
O669 Eu641 2.355 . S
O669 Eu651 2.670 . S
O669 C658 1.270 . S
O670 Eu651 2.394 . S
O670 C659 1.251 . S
O671 Eu641 2.374 . S
O671 C659 1.251 . S
H672 C643 0.931 . S
H673 C644 0.931 . S
H674 C646 0.931 . S
H675 C647 0.931 . S
H676 C653 0.931 . S
H677 C654 0.931 . S
H678 C656 0.931 . S
H679 C657 0.931 . S
C680 Eu681 2.835 . S
C680 C682 1.500 . S
C680 O700 1.257 . S
C680 O701 1.260 . S
Eu681 C680 2.835 . S
Eu681 O700 2.473 . S
Eu681 O701 2.480 . S
Eu681 O702 2.430 . S
Eu681 O703 2.670 . S
Eu681 O704 2.394 . S
Eu681 O709 2.355 . S
Eu681 O711 2.374 . S
C682 C680 1.500 . S
C682 C683 1.377 . S
C682 C687 1.377 . S
C683 C682 1.377 . S
C683 C684 1.395 . S
C683 H712 0.931 . S
C684 C683 1.395 . S
C684 C685 1.383 . S
C684 H713 0.931 . S
C685 C684 1.383 . S
C685 C686 1.394 . S
C686 C685 1.394 . S
C686 C687 1.378 . S
C686 H714 0.931 . S
C687 C682 1.377 . S
C687 C686 1.378 . S
C687 H715 0.931 . S
C688 O702 1.259 . S
C688 O703 1.270 . S
C689 O704 1.251 . S
C689 O705 1.251 . S
C690 Eu691 2.835 . S
C690 C692 1.500 . S
C690 O706 1.257 . S
C690 O707 1.260 . S
Eu691 C690 2.835 . S
Eu691 O703 2.355 . S
Eu691 O705 2.374 . S
Eu691 O706 2.473 . S
Eu691 O707 2.480 . S
Eu691 O708 2.430 . S
Eu691 O709 2.670 . S
Eu691 O710 2.394 . S
C692 C690 1.500 . S
C692 C693 1.377 . S
C692 C697 1.377 . S
C693 C692 1.377 . S
C693 C694 1.395 1_655 S
C693 H716 0.931 . S
C694 C693 1.395 1_455 S
C694 C695 1.383 . S
C694 H717 0.931 . S
C695 C694 1.383 . S
C695 C696 1.394 . S
C696 C695 1.394 . S
C696 C697 1.378 1_455 S
C696 H718 0.931 . S
C697 C692 1.377 . S
C697 C696 1.378 1_655 S
C697 H719 0.931 . S
C698 O708 1.259 . S
C698 O709 1.270 . S
C699 O710 1.251 . S
C699 O711 1.251 . S
O700 C680 1.257 . S
O700 Eu681 2.473 . S
O701 C680 1.260 . S
O701 Eu681 2.480 . S
O702 Eu681 2.430 . S
O702 C688 1.259 . S
O703 Eu681 2.670 . S
O703 C688 1.270 . S
O703 Eu691 2.355 . S
O704 Eu681 2.394 . S
O704 C689 1.251 . S
O705 C689 1.251 . S
O705 Eu691 2.374 . S
O706 C690 1.257 . S
O706 Eu691 2.473 . S
O707 C690 1.260 . S
O707 Eu691 2.480 . S
O708 Eu691 2.430 . S
O708 C698 1.259 . S
O709 Eu681 2.355 . S
O709 Eu691 2.670 . S
O709 C698 1.270 . S
O710 Eu691 2.394 . S
O710 C699 1.251 . S
O711 Eu681 2.374 . S
O711 C699 1.251 . S
H712 C683 0.931 . S
H713 C684 0.931 . S
H714 C686 0.931 . S
H715 C687 0.931 . S
H716 C693 0.931 . S
H717 C694 0.931 . S
H718 C696 0.931 . S
H719 C697 0.931 . S
C720 Eu721 2.835 . S
C720 C722 1.500 . S
C720 O740 1.257 . S
C720 O741 1.260 . S
Eu721 C720 2.835 . S
Eu721 O740 2.473 . S
Eu721 O741 2.480 . S
Eu721 O742 2.430 . S
Eu721 O743 2.670 . S
Eu721 O744 2.394 . S
Eu721 O749 2.355 . S
Eu721 O751 2.374 . S
C722 C720 1.500 . S
C722 C723 1.377 . S
C722 C727 1.377 . S
C723 C722 1.377 . S
C723 C724 1.395 . S
C723 H752 0.931 . S
C724 C723 1.395 . S
C724 C725 1.383 . S
C724 H753 0.931 . S
C725 C724 1.383 . S
C725 C726 1.394 . S
C726 C725 1.394 . S
C726 C727 1.378 . S
C726 H754 0.931 . S
C727 C722 1.377 . S
C727 C726 1.378 . S
C727 H755 0.931 . S
C728 O742 1.259 . S
C728 O743 1.270 . S
C729 O744 1.251 . S
C729 O745 1.251 . S
C730 Eu731 2.835 . S
C730 C732 1.500 . S
C730 O746 1.257 . S
C730 O747 1.260 . S
Eu731 C730 2.835 . S
Eu731 O743 2.355 . S
Eu731 O745 2.374 . S
Eu731 O746 2.473 . S
Eu731 O747 2.480 . S
Eu731 O748 2.430 . S
Eu731 O749 2.670 . S
Eu731 O750 2.394 . S
C732 C730 1.500 . S
C732 C733 1.377 . S
C732 C737 1.377 . S
C733 C732 1.377 . S
C733 C734 1.395 . S
C733 H756 0.931 . S
C734 C733 1.395 . S
C734 C735 1.383 . S
C734 H757 0.931 . S
C735 C734 1.383 . S
C735 C736 1.394 . S
C736 C735 1.394 . S
C736 C737 1.378 . S
C736 H758 0.931 . S
C737 C732 1.377 . S
C737 C736 1.378 . S
C737 H759 0.931 . S
C738 O748 1.259 . S
C738 O749 1.270 . S
C739 O750 1.251 . S
C739 O751 1.251 . S
O740 C720 1.257 . S
O740 Eu721 2.473 . S
O741 C720 1.260 . S
O741 Eu721 2.480 . S
O742 Eu721 2.430 . S
O742 C728 1.259 . S
O743 Eu721 2.670 . S
O743 C728 1.270 . S
O743 Eu731 2.355 . S
O744 Eu721 2.394 . S
O744 C729 1.251 . S
O745 C729 1.251 . S
O745 Eu731 2.374 . S
O746 C730 1.257 . S
O746 Eu731 2.473 . S
O747 C730 1.260 . S
O747 Eu731 2.480 . S
O748 Eu731 2.430 . S
O748 C738 1.259 . S
O749 Eu721 2.355 . S
O749 Eu731 2.670 . S
O749 C738 1.270 . S
O750 Eu731 2.394 . S
O750 C739 1.251 . S
O751 Eu721 2.374 . S
O751 C739 1.251 . S
H752 C723 0.931 . S
H753 C724 0.931 . S
H754 C726 0.931 . S
H755 C727 0.931 . S
H756 C733 0.931 . S
H757 C734 0.931 . S
H758 C736 0.931 . S
H759 C737 0.931 . S
C760 Eu761 2.835 . S
C760 C762 1.500 . S
C760 O780 1.257 . S
C760 O781 1.260 . S
Eu761 C760 2.835 . S
Eu761 O780 2.473 . S
Eu761 O781 2.480 . S
Eu761 O782 2.430 . S
Eu761 O783 2.670 . S
Eu761 O784 2.394 . S
Eu761 O789 2.355 . S
Eu761 O791 2.374 . S
C762 C760 1.500 . S
C762 C763 1.377 . S
C762 C767 1.377 . S
C763 C762 1.377 . S
C763 C764 1.395 . S
C763 H792 0.931 . S
C764 C763 1.395 . S
C764 C765 1.383 . S
C764 H793 0.931 . S
C765 C764 1.383 . S
C765 C766 1.394 . S
C766 C765 1.394 . S
C766 C767 1.378 . S
C766 H794 0.931 . S
C767 C762 1.377 . S
C767 C766 1.378 . S
C767 H795 0.931 . S
C768 O782 1.259 . S
C768 O783 1.270 . S
C769 O784 1.251 . S
C769 O785 1.251 . S
C770 Eu771 2.835 . S
C770 C772 1.500 . S
C770 O786 1.257 . S
C770 O787 1.260 . S
Eu771 C770 2.835 . S
Eu771 O783 2.355 . S
Eu771 O785 2.374 . S
Eu771 O786 2.473 . S
Eu771 O787 2.480 . S
Eu771 O788 2.430 . S
Eu771 O789 2.670 . S
Eu771 O790 2.394 . S
C772 C770 1.500 . S
C772 C773 1.377 . S
C772 C777 1.377 . S
C773 C772 1.377 . S
C773 C774 1.395 1_655 S
C773 H796 0.931 . S
C774 C773 1.395 1_455 S
C774 C775 1.383 . S
C774 H797 0.931 . S
C775 C774 1.383 . S
C775 C776 1.394 . S
C776 C775 1.394 . S
C776 C777 1.378 1_455 S
C776 H798 0.931 . S
C777 C772 1.377 . S
C777 C776 1.378 1_655 S
C777 H799 0.931 . S
C778 O788 1.259 . S
C778 O789 1.270 . S
C779 O790 1.251 . S
C779 O791 1.251 . S
O780 C760 1.257 . S
O780 Eu761 2.473 . S
O781 C760 1.260 . S
O781 Eu761 2.480 . S
O782 Eu761 2.430 . S
O782 C768 1.259 . S
O783 Eu761 2.670 . S
O783 C768 1.270 . S
O783 Eu771 2.355 . S
O784 Eu761 2.394 . S
O784 C769 1.251 . S
O785 C769 1.251 . S
O785 Eu771 2.374 . S
O786 C770 1.257 . S
O786 Eu771 2.473 . S
O787 C770 1.260 . S
O787 Eu771 2.480 . S
O788 Eu771 2.430 . S
O788 C778 1.259 . S
O789 Eu761 2.355 . S
O789 Eu771 2.670 . S
O789 C778 1.270 . S
O790 Eu771 2.394 . S
O790 C779 1.251 . S
O791 Eu761 2.374 . S
O791 C779 1.251 . S
H792 C763 0.931 . S
H793 C764 0.931 . S
H794 C766 0.931 . S
H795 C767 0.931 . S
H796 C773 0.931 . S
H797 C774 0.931 . S
H798 C776 0.931 . S
H799 C777 0.931 . S
C800 Eu801 2.835 . S
C800 C802 1.500 . S
C800 O820 1.257 . S
C800 O821 1.260 . S
Eu801 C800 2.835 . S
Eu801 O820 2.473 . S
Eu801 O821 2.480 . S
Eu801 O822 2.430 . S
Eu801 O823 2.670 . S
Eu801 O824 2.394 . S
Eu801 O829 2.355 . S
Eu801 O831 2.374 . S
C802 C800 1.500 . S
C802 C803 1.377 . S
C802 C807 1.377 . S
C803 C802 1.377 . S
C803 C804 1.395 . S
C803 H832 0.931 . S
C804 C803 1.395 . S
C804 C805 1.383 . S
C804 H833 0.931 . S
C805 C804 1.383 . S
C805 C806 1.394 . S
C806 C805 1.394 . S
C806 C807 1.378 . S
C806 H834 0.931 . S
C807 C802 1.377 . S
C807 C806 1.378 . S
C807 H835 0.931 . S
C808 O822 1.259 . S
C808 O823 1.270 . S
C809 O824 1.251 . S
C809 O825 1.251 . S
C810 Eu811 2.835 . S
C810 C812 1.500 . S
C810 O826 1.257 . S
C810 O827 1.260 . S
Eu811 C810 2.835 . S
Eu811 O823 2.355 . S
Eu811 O825 2.374 . S
Eu811 O826 2.473 . S
Eu811 O827 2.480 . S
Eu811 O828 2.430 . S
Eu811 O829 2.670 . S
Eu811 O830 2.394 . S
C812 C810 1.500 . S
C812 C813 1.377 . S
C812 C817 1.377 . S
C813 C812 1.377 . S
C813 C814 1.395 . S
C813 H836 0.931 . S
C814 C813 1.395 . S
C814 C815 1.383 . S
C814 H837 0.931 . S
C815 C814 1.383 . S
C815 C816 1.394 . S
C816 C815 1.394 . S
C816 C817 1.378 . S
C816 H838 0.931 . S
C817 C812 1.377 . S
C817 C816 1.378 . S
C817 H839 0.931 . S
C818 O828 1.259 . S
C818 O829 1.270 . S
C819 O830 1.251 . S
C819 O831 1.251 . S
O820 C800 1.257 . S
O820 Eu801 2.473 . S
O821 C800 1.260 . S
O821 Eu801 2.480 . S
O822 Eu801 2.430 . S
O822 C808 1.259 . S
O823 Eu801 2.670 . S
O823 C808 1.270 . S
O823 Eu811 2.355 . S
O824 Eu801 2.394 . S
O824 C809 1.251 . S
O825 C809 1.251 . S
O825 Eu811 2.374 . S
O826 C810 1.257 . S
O826 Eu811 2.473 . S
O827 C810 1.260 . S
O827 Eu811 2.480 . S
O828 Eu811 2.430 . S
O828 C818 1.259 . S
O829 Eu801 2.355 . S
O829 Eu811 2.670 . S
O829 C818 1.270 . S
O830 Eu811 2.394 . S
O830 C819 1.251 . S
O831 Eu801 2.374 . S
O831 C819 1.251 . S
H832 C803 0.931 . S
H833 C804 0.931 . S
H834 C806 0.931 . S
H835 C807 0.931 . S
H836 C813 0.931 . S
H837 C814 0.931 . S
H838 C816 0.931 . S
H839 C817 0.931 . S
C840 Eu841 2.835 . S
C840 C842 1.500 . S
C840 O860 1.257 . S
C840 O861 1.260 . S
Eu841 C840 2.835 . S
Eu841 O860 2.473 . S
Eu841 O861 2.480 . S
Eu841 O862 2.430 . S
Eu841 O863 2.670 . S
Eu841 O864 2.394 . S
Eu841 O869 2.355 . S
Eu841 O871 2.374 . S
C842 C840 1.500 . S
C842 C843 1.377 . S
C842 C847 1.377 . S
C843 C842 1.377 . S
C843 C844 1.395 1_455 S
C843 H872 0.931 . S
C844 C843 1.395 1_655 S
C844 C845 1.383 . S
C844 H873 0.931 . S
C845 C844 1.383 . S
C845 C846 1.394 . S
C846 C845 1.394 . S
C846 C847 1.378 1_655 S
C846 H874 0.931 . S
C847 C842 1.377 . S
C847 C846 1.378 1_455 S
C847 H875 0.931 . S
C848 O862 1.259 . S
C848 O863 1.270 . S
C849 O864 1.251 . S
C849 O865 1.251 . S
C850 Eu851 2.835 . S
C850 C852 1.500 . S
C850 O866 1.257 . S
C850 O867 1.260 . S
Eu851 C850 2.835 . S
Eu851 O863 2.355 . S
Eu851 O865 2.374 . S
Eu851 O866 2.473 . S
Eu851 O867 2.480 . S
Eu851 O868 2.430 . S
Eu851 O869 2.670 . S
Eu851 O870 2.394 . S
C852 C850 1.500 . S
C852 C853 1.377 . S
C852 C857 1.377 . S
C853 C852 1.377 . S
C853 C854 1.395 . S
C853 H876 0.931 . S
C854 C853 1.395 . S
C854 C855 1.383 . S
C854 H877 0.931 . S
C855 C854 1.383 . S
C855 C856 1.394 . S
C856 C855 1.394 . S
C856 C857 1.378 . S
C856 H878 0.931 . S
C857 C852 1.377 . S
C857 C856 1.378 . S
C857 H879 0.931 . S
C858 O868 1.259 . S
C858 O869 1.270 . S
C859 O870 1.251 . S
C859 O871 1.251 . S
O860 C840 1.257 . S
O860 Eu841 2.473 . S
O861 C840 1.260 . S
O861 Eu841 2.480 . S
O862 Eu841 2.430 . S
O862 C848 1.259 . S
O863 Eu841 2.670 . S
O863 C848 1.270 . S
O863 Eu851 2.355 . S
O864 Eu841 2.394 . S
O864 C849 1.251 . S
O865 C849 1.251 . S
O865 Eu851 2.374 . S
O866 C850 1.257 . S
O866 Eu851 2.473 . S
O867 C850 1.260 . S
O867 Eu851 2.480 . S
O868 Eu851 2.430 . S
O868 C858 1.259 . S
O869 Eu841 2.355 . S
O869 Eu851 2.670 . S
O869 C858 1.270 . S
O870 Eu851 2.394 . S
O870 C859 1.251 . S
O871 Eu841 2.374 . S
O871 C859 1.251 . S
H872 C843 0.931 . S
H873 C844 0.931 . S
H874 C846 0.931 . S
H875 C847 0.931 . S
H876 C853 0.931 . S
H877 C854 0.931 . S
H878 C856 0.931 . S
H879 C857 0.931 . S
C880 Eu881 2.835 . S
C880 C882 1.500 . S
C880 O900 1.257 . S
C880 O901 1.260 . S
Eu881 C880 2.835 . S
Eu881 O900 2.473 . S
Eu881 O901 2.480 . S
Eu881 O902 2.430 . S
Eu881 O903 2.670 . S
Eu881 O904 2.394 . S
Eu881 O909 2.355 . S
Eu881 O911 2.374 . S
C882 C880 1.500 . S
C882 C883 1.377 . S
C882 C887 1.377 . S
C883 C882 1.377 . S
C883 C884 1.395 . S
C883 H912 0.931 . S
C884 C883 1.395 . S
C884 C885 1.383 . S
C884 H913 0.931 . S
C885 C884 1.383 . S
C885 C886 1.394 . S
C886 C885 1.394 . S
C886 C887 1.378 . S
C886 H914 0.931 . S
C887 C882 1.377 . S
C887 C886 1.378 . S
C887 H915 0.931 . S
C888 O902 1.259 . S
C888 O903 1.270 . S
C889 O904 1.251 . S
C889 O905 1.251 . S
C890 Eu891 2.835 . S
C890 C892 1.500 . S
C890 O906 1.257 . S
C890 O907 1.260 . S
Eu891 C890 2.835 . S
Eu891 O903 2.355 . S
Eu891 O905 2.374 . S
Eu891 O906 2.473 . S
Eu891 O907 2.480 . S
Eu891 O908 2.430 . S
Eu891 O909 2.670 . S
Eu891 O910 2.394 . S
C892 C890 1.500 . S
C892 C893 1.377 . S
C892 C897 1.377 . S
C893 C892 1.377 . S
C893 C894 1.395 . S
C893 H916 0.931 . S
C894 C893 1.395 . S
C894 C895 1.383 . S
C894 H917 0.931 . S
C895 C894 1.383 . S
C895 C896 1.394 . S
C896 C895 1.394 . S
C896 C897 1.378 . S
C896 H918 0.931 . S
C897 C892 1.377 . S
C897 C896 1.378 . S
C897 H919 0.931 . S
C898 O908 1.259 . S
C898 O909 1.270 . S
C899 O910 1.251 . S
C899 O911 1.251 . S
O900 C880 1.257 . S
O900 Eu881 2.473 . S
O901 C880 1.260 . S
O901 Eu881 2.480 . S
O902 Eu881 2.430 . S
O902 C888 1.259 . S
O903 Eu881 2.670 . S
O903 C888 1.270 . S
O903 Eu891 2.355 . S
O904 Eu881 2.394 . S
O904 C889 1.251 . S
O905 C889 1.251 . S
O905 Eu891 2.374 . S
O906 C890 1.257 . S
O906 Eu891 2.473 . S
O907 C890 1.260 . S
O907 Eu891 2.480 . S
O908 Eu891 2.430 . S
O908 C898 1.259 . S
O909 Eu881 2.355 . S
O909 Eu891 2.670 . S
O909 C898 1.270 . S
O910 Eu891 2.394 . S
O910 C899 1.251 . S
O911 Eu881 2.374 . S
O911 C899 1.251 . S
H912 C883 0.931 . S
H913 C884 0.931 . S
H914 C886 0.931 . S
H915 C887 0.931 . S
H916 C893 0.931 . S
H917 C894 0.931 . S
H918 C896 0.931 . S
H919 C897 0.931 . S
C920 Eu921 2.835 . S
C920 C922 1.500 . S
C920 O940 1.257 . S
C920 O941 1.260 . S
Eu921 C920 2.835 . S
Eu921 O940 2.473 . S
Eu921 O941 2.480 . S
Eu921 O942 2.430 . S
Eu921 O943 2.670 . S
Eu921 O944 2.394 . S
Eu921 O949 2.355 . S
Eu921 O951 2.374 . S
C922 C920 1.500 . S
C922 C923 1.377 . S
C922 C927 1.377 . S
C923 C922 1.377 . S
C923 C924 1.395 1_455 S
C923 H952 0.931 . S
C924 C923 1.395 1_655 S
C924 C925 1.383 . S
C924 H953 0.931 . S
C925 C924 1.383 . S
C925 C926 1.394 . S
C926 C925 1.394 . S
C926 C927 1.378 1_655 S
C926 H954 0.931 . S
C927 C922 1.377 . S
C927 C926 1.378 1_455 S
C927 H955 0.931 . S
C928 O942 1.259 . S
C928 O943 1.270 . S
C929 O944 1.251 . S
C929 O945 1.251 . S
C930 Eu931 2.835 . S
C930 C932 1.500 . S
C930 O946 1.257 . S
C930 O947 1.260 . S
Eu931 C930 2.835 . S
Eu931 O943 2.355 . S
Eu931 O945 2.374 . S
Eu931 O946 2.473 . S
Eu931 O947 2.480 . S
Eu931 O948 2.430 . S
Eu931 O949 2.670 . S
Eu931 O950 2.394 . S
C932 C930 1.500 . S
C932 C933 1.377 . S
C932 C937 1.377 . S
C933 C932 1.377 . S
C933 C934 1.395 . S
C933 H956 0.931 . S
C934 C933 1.395 . S
C934 C935 1.383 . S
C934 H957 0.931 . S
C935 C934 1.383 . S
C935 C936 1.394 . S
C936 C935 1.394 . S
C936 C937 1.378 . S
C936 H958 0.931 . S
C937 C932 1.377 . S
C937 C936 1.378 . S
C937 H959 0.931 . S
C938 O948 1.259 . S
C938 O949 1.270 . S
C939 O950 1.251 . S
C939 O951 1.251 . S
O940 C920 1.257 . S
O940 Eu921 2.473 . S
O941 C920 1.260 . S
O941 Eu921 2.480 . S
O942 Eu921 2.430 . S
O942 C928 1.259 . S
O943 Eu921 2.670 . S
O943 C928 1.270 . S
O943 Eu931 2.355 . S
O944 Eu921 2.394 . S
O944 C929 1.251 . S
O945 C929 1.251 . S
O945 Eu931 2.374 . S
O946 C930 1.257 . S
O946 Eu931 2.473 . S
O947 C930 1.260 . S
O947 Eu931 2.480 . S
O948 Eu931 2.430 . S
O948 C938 1.259 . S
O949 Eu921 2.355 . S
O949 Eu931 2.670 . S
O949 C938 1.270 . S
O950 Eu931 2.394 . S
O950 C939 1.251 . S
O951 Eu921 2.374 . S
O951 C939 1.251 . S
H952 C923 0.931 . S
H953 C924 0.931 . S
H954 C926 0.931 . S
H955 C927 0.931 . S
H956 C933 0.931 . S
H957 C934 0.931 . S
H958 C936 0.931 . S
H959 C937 0.931 . S
C960 Eu961 2.835 . S
C960 C962 1.500 . S
C960 O980 1.257 . S
C960 O981 1.260 . S
Eu961 C960 2.835 . S
Eu961 O980 2.473 . S
Eu961 O981 2.480 . S
Eu961 O982 2.430 . S
Eu961 O983 2.670 . S
Eu961 O984 2.394 1_565 S
Eu961 O989 2.355 . S
Eu961 O991 2.374 . S
C962 C960 1.500 . S
C962 C963 1.377 . S
C962 C967 1.377 1_565 S
C963 C962 1.377 . S
C963 C964 1.395 . S
C963 H992 0.931 . S
C964 C963 1.395 . S
C964 C965 1.383 1_565 S
C964 H993 0.931 . S
C965 C964 1.383 1_545 S
C965 C966 1.394 . S
C966 C965 1.394 . S
C966 C967 1.378 . S
C966 H994 0.931 . S
C967 C962 1.377 1_545 S
C967 C966 1.378 . S
C967 H995 0.931 . S
C968 O982 1.259 . S
C968 O983 1.270 . S
C969 O984 1.251 . S
C969 O985 1.251 . S
C970 Eu971 2.835 1_565 S
C970 C972 1.500 . S
C970 O986 1.257 . S
C970 O987 1.260 1_565 S
Eu971 C970 2.835 1_545 S
Eu971 O983 2.355 1_545 S
Eu971 O985 2.374 . S
Eu971 O986 2.473 1_545 S
Eu971 O987 2.480 . S
Eu971 O988 2.430 . S
Eu971 O989 2.670 1_545 S
Eu971 O990 2.394 1_545 S
C972 C970 1.500 . S
C972 C973 1.377 . S
C972 C977 1.377 . S
C973 C972 1.377 . S
C973 C974 1.395 . S
C973 H996 0.931 . S
C974 C973 1.395 . S
C974 C975 1.383 . S
C974 H997 0.931 . S
C975 C974 1.383 . S
C975 C976 1.394 . S
C976 C975 1.394 . S
C976 C977 1.378 . S
C976 H998 0.931 . S
C977 C972 1.377 . S
C977 C976 1.378 . S
C977 H999 0.931 . S
C978 O988 1.259 1_565 S
C978 O989 1.270 . S
C979 O990 1.251 . S
C979 O991 1.251 . S
O980 C960 1.257 . S
O980 Eu961 2.473 . S
O981 C960 1.260 . S
O981 Eu961 2.480 . S
O982 Eu961 2.430 . S
O982 C968 1.259 . S
O983 Eu961 2.670 . S
O983 C968 1.270 . S
O983 Eu971 2.355 1_565 S
O984 Eu961 2.394 1_545 S
O984 C969 1.251 . S
O985 C969 1.251 . S
O985 Eu971 2.374 . S
O986 C970 1.257 . S
O986 Eu971 2.473 1_565 S
O987 C970 1.260 1_545 S
O987 Eu971 2.480 . S
O988 Eu971 2.430 . S
O988 C978 1.259 1_545 S
O989 Eu961 2.355 . S
O989 Eu971 2.670 1_565 S
O989 C978 1.270 . S
O990 Eu971 2.394 1_565 S
O990 C979 1.251 . S
O991 Eu961 2.374 . S
O991 C979 1.251 . S
H992 C963 0.931 . S
H993 C964 0.931 . S
H994 C966 0.931 . S
H995 C967 0.931 . S
H996 C973 0.931 . S
H997 C974 0.931 . S
H998 C976 0.931 . S
H999 C977 0.931 . S
C1000 Eu1001 2.835 . S
C1000 C1002 1.500 . S
C1000 O1020 1.257 . S
C1000 O1021 1.260 . S
Eu1001 C1000 2.835 . S
Eu1001 O1020 2.473 . S
Eu1001 O1021 2.480 . S
Eu1001 O1022 2.430 . S
Eu1001 O1023 2.670 . S
Eu1001 O1024 2.394 . S
Eu1001 O1029 2.355 . S
Eu1001 O1031 2.374 . S
C1002 C1000 1.500 . S
C1002 C1003 1.377 . S
C1002 C1007 1.377 . S
C1003 C1002 1.377 . S
C1003 C1004 1.395 . S
C1003 H1032 0.931 . S
C1004 C1003 1.395 . S
C1004 C1005 1.383 . S
C1004 H1033 0.931 . S
C1005 C1004 1.383 . S
C1005 C1006 1.394 . S
C1006 C1005 1.394 . S
C1006 C1007 1.378 . S
C1006 H1034 0.931 . S
C1007 C1002 1.377 . S
C1007 C1006 1.378 . S
C1007 H1035 0.931 . S
C1008 O1022 1.259 . S
C1008 O1023 1.270 . S
C1009 O1024 1.251 . S
C1009 O1025 1.251 . S
C1010 Eu1011 2.835 . S
C1010 C1012 1.500 . S
C1010 O1026 1.257 . S
C1010 O1027 1.260 . S
Eu1011 C1010 2.835 . S
Eu1011 O1023 2.355 . S
Eu1011 O1025 2.374 . S
Eu1011 O1026 2.473 . S
Eu1011 O1027 2.480 . S
Eu1011 O1028 2.430 . S
Eu1011 O1029 2.670 . S
Eu1011 O1030 2.394 . S
C1012 C1010 1.500 . S
C1012 C1013 1.377 . S
C1012 C1017 1.377 . S
C1013 C1012 1.377 . S
C1013 C1014 1.395 1_655 S
C1013 H1036 0.931 . S
C1014 C1013 1.395 1_455 S
C1014 C1015 1.383 . S
C1014 H1037 0.931 . S
C1015 C1014 1.383 . S
C1015 C1016 1.394 . S
C1016 C1015 1.394 . S
C1016 C1017 1.378 1_455 S
C1016 H1038 0.931 . S
C1017 C1012 1.377 . S
C1017 C1016 1.378 1_655 S
C1017 H1039 0.931 . S
C1018 O1028 1.259 . S
C1018 O1029 1.270 . S
C1019 O1030 1.251 . S
C1019 O1031 1.251 . S
O1020 C1000 1.257 . S
O1020 Eu1001 2.473 . S
O1021 C1000 1.260 . S
O1021 Eu1001 2.480 . S
O1022 Eu1001 2.430 . S
O1022 C1008 1.259 . S
O1023 Eu1001 2.670 . S
O1023 C1008 1.270 . S
O1023 Eu1011 2.355 . S
O1024 Eu1001 2.394 . S
O1024 C1009 1.251 . S
O1025 C1009 1.251 . S
O1025 Eu1011 2.374 . S
O1026 C1010 1.257 . S
O1026 Eu1011 2.473 . S
O1027 C1010 1.260 . S
O1027 Eu1011 2.480 . S
O1028 Eu1011 2.430 . S
O1028 C1018 1.259 . S
O1029 Eu1001 2.355 . S
O1029 Eu1011 2.670 . S
O1029 C1018 1.270 . S
O1030 Eu1011 2.394 . S
O1030 C1019 1.251 . S
O1031 Eu1001 2.374 . S
O1031 C1019 1.251 . S
H1032 C1003 0.931 . S
H1033 C1004 0.931 . S
H1034 C1006 0.931 . S
H1035 C1007 0.931 . S
H1036 C1013 0.931 . S
H1037 C1014 0.931 . S
H1038 C1016 0.931 . S
H1039 C1017 0.931 . S
C1040 Eu1041 2.835 . S
C1040 C1042 1.500 . S
C1040 O1060 1.257 . S
C1040 O1061 1.260 . S
Eu1041 C1040 2.835 . S
Eu1041 O1060 2.473 . S
Eu1041 O1061 2.480 . S
Eu1041 O1062 2.430 . S
Eu1041 O1063 2.670 . S
Eu1041 O1064 2.394 . S
Eu1041 O1069 2.355 . S
Eu1041 O1071 2.374 . S
C1042 C1040 1.500 . S
C1042 C1043 1.377 . S
C1042 C1047 1.377 . S
C1043 C1042 1.377 . S
C1043 C1044 1.395 . S
C1043 H1072 0.931 . S
C1044 C1043 1.395 . S
C1044 C1045 1.383 . S
C1044 H1073 0.931 . S
C1045 C1044 1.383 . S
C1045 C1046 1.394 . S
C1046 C1045 1.394 . S
C1046 C1047 1.378 . S
C1046 H1074 0.931 . S
C1047 C1042 1.377 . S
C1047 C1046 1.378 . S
C1047 H1075 0.931 . S
C1048 O1062 1.259 . S
C1048 O1063 1.270 . S
C1049 O1064 1.251 . S
C1049 O1065 1.251 . S
C1050 Eu1051 2.835 . S
C1050 C1052 1.500 . S
C1050 O1066 1.257 . S
C1050 O1067 1.260 . S
Eu1051 C1050 2.835 . S
Eu1051 O1063 2.355 . S
Eu1051 O1065 2.374 . S
Eu1051 O1066 2.473 . S
Eu1051 O1067 2.480 . S
Eu1051 O1068 2.430 . S
Eu1051 O1069 2.670 . S
Eu1051 O1070 2.394 . S
C1052 C1050 1.500 . S
C1052 C1053 1.377 . S
C1052 C1057 1.377 . S
C1053 C1052 1.377 . S
C1053 C1054 1.395 . S
C1053 H1076 0.931 . S
C1054 C1053 1.395 . S
C1054 C1055 1.383 . S
C1054 H1077 0.931 . S
C1055 C1054 1.383 . S
C1055 C1056 1.394 . S
C1056 C1055 1.394 . S
C1056 C1057 1.378 . S
C1056 H1078 0.931 . S
C1057 C1052 1.377 . S
C1057 C1056 1.378 . S
C1057 H1079 0.931 . S
C1058 O1068 1.259 . S
C1058 O1069 1.270 . S
C1059 O1070 1.251 . S
C1059 O1071 1.251 . S
O1060 C1040 1.257 . S
O1060 Eu1041 2.473 . S
O1061 C1040 1.260 . S
O1061 Eu1041 2.480 . S
O1062 Eu1041 2.430 . S
O1062 C1048 1.259 . S
O1063 Eu1041 2.670 . S
O1063 C1048 1.270 . S
O1063 Eu1051 2.355 . S
O1064 Eu1041 2.394 . S
O1064 C1049 1.251 . S
O1065 C1049 1.251 . S
O1065 Eu1051 2.374 . S
O1066 C1050 1.257 . S
O1066 Eu1051 2.473 . S
O1067 C1050 1.260 . S
O1067 Eu1051 2.480 . S
O1068 Eu1051 2.430 . S
O1068 C1058 1.259 . S
O1069 Eu1041 2.355 . S
O1069 Eu1051 2.670 . S
O1069 C1058 1.270 . S
O1070 Eu1051 2.394 . S
O1070 C1059 1.251 . S
O1071 Eu1041 2.374 . S
O1071 C1059 1.251 . S
H1072 C1043 0.931 . S
H1073 C1044 0.931 . S
H1074 C1046 0.931 . S
H1075 C1047 0.931 . S
H1076 C1053 0.931 . S
H1077 C1054 0.931 . S
H1078 C1056 0.931 . S
H1079 C1057 0.931 . S
C1080 Eu1081 2.835 . S
C1080 C1082 1.500 . S
C1080 O1100 1.257 . S
C1080 O1101 1.260 . S
Eu1081 C1080 2.835 . S
Eu1081 O1100 2.473 . S
Eu1081 O1101 2.480 . S
Eu1081 O1102 2.430 . S
Eu1081 O1103 2.670 . S
Eu1081 O1104 2.394 1_565 S
Eu1081 O1109 2.355 . S
Eu1081 O1111 2.374 . S
C1082 C1080 1.500 . S
C1082 C1083 1.377 . S
C1082 C1087 1.377 1_565 S
C1083 C1082 1.377 . S
C1083 C1084 1.395 . S
C1083 H1112 0.931 . S
C1084 C1083 1.395 . S
C1084 C1085 1.383 1_565 S
C1084 H1113 0.931 . S
C1085 C1084 1.383 1_545 S
C1085 C1086 1.394 . S
C1086 C1085 1.394 . S
C1086 C1087 1.378 . S
C1086 H1114 0.931 . S
C1087 C1082 1.377 1_545 S
C1087 C1086 1.378 . S
C1087 H1115 0.931 . S
C1088 O1102 1.259 . S
C1088 O1103 1.270 . S
C1089 O1104 1.251 . S
C1089 O1105 1.251 . S
C1090 Eu1091 2.835 1_565 S
C1090 C1092 1.500 . S
C1090 O1106 1.257 . S
C1090 O1107 1.260 1_565 S
Eu1091 C1090 2.835 1_545 S
Eu1091 O1103 2.355 1_545 S
Eu1091 O1105 2.374 . S
Eu1091 O1106 2.473 1_545 S
Eu1091 O1107 2.480 . S
Eu1091 O1108 2.430 . S
Eu1091 O1109 2.670 1_545 S
Eu1091 O1110 2.394 1_545 S
C1092 C1090 1.500 . S
C1092 C1093 1.377 . S
C1092 C1097 1.377 . S
C1093 C1092 1.377 . S
C1093 C1094 1.395 1_655 S
C1093 H1116 0.931 . S
C1094 C1093 1.395 1_455 S
C1094 C1095 1.383 . S
C1094 H1117 0.931 . S
C1095 C1094 1.383 . S
C1095 C1096 1.394 . S
C1096 C1095 1.394 . S
C1096 C1097 1.378 1_455 S
C1096 H1118 0.931 . S
C1097 C1092 1.377 . S
C1097 C1096 1.378 1_655 S
C1097 H1119 0.931 . S
C1098 O1108 1.259 1_565 S
C1098 O1109 1.270 . S
C1099 O1110 1.251 . S
C1099 O1111 1.251 . S
O1100 C1080 1.257 . S
O1100 Eu1081 2.473 . S
O1101 C1080 1.260 . S
O1101 Eu1081 2.480 . S
O1102 Eu1081 2.430 . S
O1102 C1088 1.259 . S
O1103 Eu1081 2.670 . S
O1103 C1088 1.270 . S
O1103 Eu1091 2.355 1_565 S
O1104 Eu1081 2.394 1_545 S
O1104 C1089 1.251 . S
O1105 C1089 1.251 . S
O1105 Eu1091 2.374 . S
O1106 C1090 1.257 . S
O1106 Eu1091 2.473 1_565 S
O1107 C1090 1.260 1_545 S
O1107 Eu1091 2.480 . S
O1108 Eu1091 2.430 . S
O1108 C1098 1.259 1_545 S
O1109 Eu1081 2.355 . S
O1109 Eu1091 2.670 1_565 S
O1109 C1098 1.270 . S
O1110 Eu1091 2.394 1_565 S
O1110 C1099 1.251 . S
O1111 Eu1081 2.374 . S
O1111 C1099 1.251 . S
H1112 C1083 0.931 . S
H1113 C1084 0.931 . S
H1114 C1086 0.931 . S
H1115 C1087 0.931 . S
H1116 C1093 0.931 . S
H1117 C1094 0.931 . S
H1118 C1096 0.931 . S
H1119 C1097 0.931 . S
C1120 Eu1121 2.835 1_545 S
C1120 C1122 1.500 . S
C1120 O1140 1.257 . S
C1120 O1141 1.260 1_545 S
Eu1121 C1120 2.835 1_565 S
Eu1121 O1140 2.473 1_565 S
Eu1121 O1141 2.480 . S
Eu1121 O1142 2.430 . S
Eu1121 O1143 2.670 1_565 S
Eu1121 O1144 2.394 1_565 S
Eu1121 O1149 2.355 1_565 S
Eu1121 O1151 2.374 . S
C1122 C1120 1.500 . S
C1122 C1123 1.377 . S
C1122 C1127 1.377 . S
C1123 C1122 1.377 . S
C1123 C1124 1.395 . S
C1123 H1152 0.931 . S
C1124 C1123 1.395 . S
C1124 C1125 1.383 . S
C1124 H1153 0.931 . S
C1125 C1124 1.383 . S
C1125 C1126 1.394 . S
C1126 C1125 1.394 . S
C1126 C1127 1.378 . S
C1126 H1154 0.931 . S
C1127 C1122 1.377 . S
C1127 C1126 1.378 . S
C1127 H1155 0.931 . S
C1128 O1142 1.259 1_545 S
C1128 O1143 1.270 . S
C1129 O1144 1.251 . S
C1129 O1145 1.251 . S
C1130 Eu1131 2.835 . S
C1130 C1132 1.500 . S
C1130 O1146 1.257 . S
C1130 O1147 1.260 . S
Eu1131 C1130 2.835 . S
Eu1131 O1143 2.355 . S
Eu1131 O1145 2.374 . S
Eu1131 O1146 2.473 . S
Eu1131 O1147 2.480 . S
Eu1131 O1148 2.430 . S
Eu1131 O1149 2.670 . S
Eu1131 O1150 2.394 1_545 S
C1132 C1130 1.500 . S
C1132 C1133 1.377 . S
C1132 C1137 1.377 1_545 S
C1133 C1132 1.377 . S
C1133 C1134 1.395 . S
C1133 H1156 0.931 . S
C1134 C1133 1.395 . S
C1134 C1135 1.383 1_545 S
C1134 H1157 0.931 . S
C1135 C1134 1.383 1_565 S
C1135 C1136 1.394 . S
C1136 C1135 1.394 . S
C1136 C1137 1.378 . S
C1136 H1158 0.931 . S
C1137 C1132 1.377 1_565 S
C1137 C1136 1.378 . S
C1137 H1159 0.931 . S
C1138 O1148 1.259 . S
C1138 O1149 1.270 . S
C1139 O1150 1.251 . S
C1139 O1151 1.251 . S
O1140 C1120 1.257 . S
O1140 Eu1121 2.473 1_545 S
O1141 C1120 1.260 1_565 S
O1141 Eu1121 2.480 . S
O1142 Eu1121 2.430 . S
O1142 C1128 1.259 1_565 S
O1143 Eu1121 2.670 1_545 S
O1143 C1128 1.270 . S
O1143 Eu1131 2.355 . S
O1144 Eu1121 2.394 1_545 S
O1144 C1129 1.251 . S
O1145 C1129 1.251 . S
O1145 Eu1131 2.374 . S
O1146 C1130 1.257 . S
O1146 Eu1131 2.473 . S
O1147 C1130 1.260 . S
O1147 Eu1131 2.480 . S
O1148 Eu1131 2.430 . S
O1148 C1138 1.259 . S
O1149 Eu1121 2.355 1_545 S
O1149 Eu1131 2.670 . S
O1149 C1138 1.270 . S
O1150 Eu1131 2.394 1_565 S
O1150 C1139 1.251 . S
O1151 Eu1121 2.374 . S
O1151 C1139 1.251 . S
H1152 C1123 0.931 . S
H1153 C1124 0.931 . S
H1154 C1126 0.931 . S
H1155 C1127 0.931 . S
H1156 C1133 0.931 . S
H1157 C1134 0.931 . S
H1158 C1136 0.931 . S
H1159 C1137 0.931 . S
C1160 Eu1161 2.835 . S
C1160 C1162 1.500 . S
C1160 O1180 1.257 . S
C1160 O1181 1.260 . S
Eu1161 C1160 2.835 . S
Eu1161 O1180 2.473 . S
Eu1161 O1181 2.480 . S
Eu1161 O1182 2.430 . S
Eu1161 O1183 2.670 . S
Eu1161 O1184 2.394 . S
Eu1161 O1189 2.355 . S
Eu1161 O1191 2.374 . S
C1162 C1160 1.500 . S
C1162 C1163 1.377 . S
C1162 C1167 1.377 . S
C1163 C1162 1.377 . S
C1163 C1164 1.395 1_455 S
C1163 H1192 0.931 . S
C1164 C1163 1.395 1_655 S
C1164 C1165 1.383 . S
C1164 H1193 0.931 . S
C1165 C1164 1.383 . S
C1165 C1166 1.394 . S
C1166 C1165 1.394 . S
C1166 C1167 1.378 1_655 S
C1166 H1194 0.931 . S
C1167 C1162 1.377 . S
C1167 C1166 1.378 1_455 S
C1167 H1195 0.931 . S
C1168 O1182 1.259 . S
C1168 O1183 1.270 . S
C1169 O1184 1.251 . S
C1169 O1185 1.251 . S
C1170 Eu1171 2.835 . S
C1170 C1172 1.500 . S
C1170 O1186 1.257 . S
C1170 O1187 1.260 . S
Eu1171 C1170 2.835 . S
Eu1171 O1183 2.355 . S
Eu1171 O1185 2.374 . S
Eu1171 O1186 2.473 . S
Eu1171 O1187 2.480 . S
Eu1171 O1188 2.430 . S
Eu1171 O1189 2.670 . S
Eu1171 O1190 2.394 . S
C1172 C1170 1.500 . S
C1172 C1173 1.377 . S
C1172 C1177 1.377 . S
C1173 C1172 1.377 . S
C1173 C1174 1.395 . S
C1173 H1196 0.931 . S
C1174 C1173 1.395 . S
C1174 C1175 1.383 . S
C1174 H1197 0.931 . S
C1175 C1174 1.383 . S
C1175 C1176 1.394 . S
C1176 C1175 1.394 . S
C1176 C1177 1.378 . S
C1176 H1198 0.931 . S
C1177 C1172 1.377 . S
C1177 C1176 1.378 . S
C1177 H1199 0.931 . S
C1178 O1188 1.259 . S
C1178 O1189 1.270 . S
C1179 O1190 1.251 . S
C1179 O1191 1.251 . S
O1180 C1160 1.257 . S
O1180 Eu1161 2.473 . S
O1181 C1160 1.260 . S
O1181 Eu1161 2.480 . S
O1182 Eu1161 2.430 . S
O1182 C1168 1.259 . S
O1183 Eu1161 2.670 . S
O1183 C1168 1.270 . S
O1183 Eu1171 2.355 . S
O1184 Eu1161 2.394 . S
O1184 C1169 1.251 . S
O1185 C1169 1.251 . S
O1185 Eu1171 2.374 . S
O1186 C1170 1.257 . S
O1186 Eu1171 2.473 . S
O1187 C1170 1.260 . S
O1187 Eu1171 2.480 . S
O1188 Eu1171 2.430 . S
O1188 C1178 1.259 . S
O1189 Eu1161 2.355 . S
O1189 Eu1171 2.670 . S
O1189 C1178 1.270 . S
O1190 Eu1171 2.394 . S
O1190 C1179 1.251 . S
O1191 Eu1161 2.374 . S
O1191 C1179 1.251 . S
H1192 C1163 0.931 . S
H1193 C1164 0.931 . S
H1194 C1166 0.931 . S
H1195 C1167 0.931 . S
H1196 C1173 0.931 . S
H1197 C1174 0.931 . S
H1198 C1176 0.931 . S
H1199 C1177 0.931 . S
C1200 Eu1201 2.835 . S
C1200 C1202 1.500 . S
C1200 O1220 1.257 . S
C1200 O1221 1.260 . S
Eu1201 C1200 2.835 . S
Eu1201 O1220 2.473 . S
Eu1201 O1221 2.480 . S
Eu1201 O1222 2.430 . S
Eu1201 O1223 2.670 . S
Eu1201 O1224 2.394 . S
Eu1201 O1229 2.355 . S
Eu1201 O1231 2.374 . S
C1202 C1200 1.500 . S
C1202 C1203 1.377 . S
C1202 C1207 1.377 . S
C1203 C1202 1.377 . S
C1203 C1204 1.395 . S
C1203 H1232 0.931 . S
C1204 C1203 1.395 . S
C1204 C1205 1.383 . S
C1204 H1233 0.931 . S
C1205 C1204 1.383 . S
C1205 C1206 1.394 . S
C1206 C1205 1.394 . S
C1206 C1207 1.378 . S
C1206 H1234 0.931 . S
C1207 C1202 1.377 . S
C1207 C1206 1.378 . S
C1207 H1235 0.931 . S
C1208 O1222 1.259 . S
C1208 O1223 1.270 . S
C1209 O1224 1.251 . S
C1209 O1225 1.251 . S
C1210 Eu1211 2.835 . S
C1210 C1212 1.500 . S
C1210 O1226 1.257 . S
C1210 O1227 1.260 . S
Eu1211 C1210 2.835 . S
Eu1211 O1223 2.355 . S
Eu1211 O1225 2.374 . S
Eu1211 O1226 2.473 . S
Eu1211 O1227 2.480 . S
Eu1211 O1228 2.430 . S
Eu1211 O1229 2.670 . S
Eu1211 O1230 2.394 . S
C1212 C1210 1.500 . S
C1212 C1213 1.377 . S
C1212 C1217 1.377 . S
C1213 C1212 1.377 . S
C1213 C1214 1.395 . S
C1213 H1236 0.931 . S
C1214 C1213 1.395 . S
C1214 C1215 1.383 . S
C1214 H1237 0.931 . S
C1215 C1214 1.383 . S
C1215 C1216 1.394 . S
C1216 C1215 1.394 . S
C1216 C1217 1.378 . S
C1216 H1238 0.931 . S
C1217 C1212 1.377 . S
C1217 C1216 1.378 . S
C1217 H1239 0.931 . S
C1218 O1228 1.259 . S
C1218 O1229 1.270 . S
C1219 O1230 1.251 . S
C1219 O1231 1.251 . S
O1220 C1200 1.257 . S
O1220 Eu1201 2.473 . S
O1221 C1200 1.260 . S
O1221 Eu1201 2.480 . S
O1222 Eu1201 2.430 . S
O1222 C1208 1.259 . S
O1223 Eu1201 2.670 . S
O1223 C1208 1.270 . S
O1223 Eu1211 2.355 . S
O1224 Eu1201 2.394 . S
O1224 C1209 1.251 . S
O1225 C1209 1.251 . S
O1225 Eu1211 2.374 . S
O1226 C1210 1.257 . S
O1226 Eu1211 2.473 . S
O1227 C1210 1.260 . S
O1227 Eu1211 2.480 . S
O1228 Eu1211 2.430 . S
O1228 C1218 1.259 . S
O1229 Eu1201 2.355 . S
O1229 Eu1211 2.670 . S
O1229 C1218 1.270 . S
O1230 Eu1211 2.394 . S
O1230 C1219 1.251 . S
O1231 Eu1201 2.374 . S
O1231 C1219 1.251 . S
H1232 C1203 0.931 . S
H1233 C1204 0.931 . S
H1234 C1206 0.931 . S
H1235 C1207 0.931 . S
H1236 C1213 0.931 . S
H1237 C1214 0.931 . S
H1238 C1216 0.931 . S
H1239 C1217 0.931 . S
C1240 Eu1241 2.835 1_545 S
C1240 C1242 1.500 . S
C1240 O1260 1.257 . S
C1240 O1261 1.260 1_545 S
Eu1241 C1240 2.835 1_565 S
Eu1241 O1260 2.473 1_565 S
Eu1241 O1261 2.480 . S
Eu1241 O1262 2.430 . S
Eu1241 O1263 2.670 1_565 S
Eu1241 O1264 2.394 1_565 S
Eu1241 O1269 2.355 1_565 S
Eu1241 O1271 2.374 . S
C1242 C1240 1.500 . S
C1242 C1243 1.377 . S
C1242 C1247 1.377 . S
C1243 C1242 1.377 . S
C1243 C1244 1.395 1_455 S
C1243 H1272 0.931 . S
C1244 C1243 1.395 1_655 S
C1244 C1245 1.383 . S
C1244 H1273 0.931 . S
C1245 C1244 1.383 . S
C1245 C1246 1.394 . S
C1246 C1245 1.394 . S
C1246 C1247 1.378 1_655 S
C1246 H1274 0.931 . S
C1247 C1242 1.377 . S
C1247 C1246 1.378 1_455 S
C1247 H1275 0.931 . S
C1248 O1262 1.259 1_545 S
C1248 O1263 1.270 . S
C1249 O1264 1.251 . S
C1249 O1265 1.251 . S
C1250 Eu1251 2.835 . S
C1250 C1252 1.500 . S
C1250 O1266 1.257 . S
C1250 O1267 1.260 . S
Eu1251 C1250 2.835 . S
Eu1251 O1263 2.355 . S
Eu1251 O1265 2.374 . S
Eu1251 O1266 2.473 . S
Eu1251 O1267 2.480 . S
Eu1251 O1268 2.430 . S
Eu1251 O1269 2.670 . S
Eu1251 O1270 2.394 1_545 S
C1252 C1250 1.500 . S
C1252 C1253 1.377 . S
C1252 C1257 1.377 1_545 S
C1253 C1252 1.377 . S
C1253 C1254 1.395 . S
C1253 H1276 0.931 . S
C1254 C1253 1.395 . S
C1254 C1255 1.383 1_545 S
C1254 H1277 0.931 . S
C1255 C1254 1.383 1_565 S
C1255 C1256 1.394 . S
C1256 C1255 1.394 . S
C1256 C1257 1.378 . S
C1256 H1278 0.931 . S
C1257 C1252 1.377 1_565 S
C1257 C1256 1.378 . S
C1257 H1279 0.931 . S
C1258 O1268 1.259 . S
C1258 O1269 1.270 . S
C1259 O1270 1.251 . S
C1259 O1271 1.251 . S
O1260 C1240 1.257 . S
O1260 Eu1241 2.473 1_545 S
O1261 C1240 1.260 1_565 S
O1261 Eu1241 2.480 . S
O1262 Eu1241 2.430 . S
O1262 C1248 1.259 1_565 S
O1263 Eu1241 2.670 1_545 S
O1263 C1248 1.270 . S
O1263 Eu1251 2.355 . S
O1264 Eu1241 2.394 1_545 S
O1264 C1249 1.251 . S
O1265 C1249 1.251 . S
O1265 Eu1251 2.374 . S
O1266 C1250 1.257 . S
O1266 Eu1251 2.473 . S
O1267 C1250 1.260 . S
O1267 Eu1251 2.480 . S
O1268 Eu1251 2.430 . S
O1268 C1258 1.259 . S
O1269 Eu1241 2.355 1_545 S
O1269 Eu1251 2.670 . S
O1269 C1258 1.270 . S
O1270 Eu1251 2.394 1_565 S
O1270 C1259 1.251 . S
O1271 Eu1241 2.374 . S
O1271 C1259 1.251 . S
H1272 C1243 0.931 . S
H1273 C1244 0.931 . S
H1274 C1246 0.931 . S
H1275 C1247 0.931 . S
H1276 C1253 0.931 . S
H1277 C1254 0.931 . S
H1278 C1256 0.931 . S
H1279 C1257 0.931 . S
H1280 C1288 0.950 . S
H1281 C1293 0.950 1_455 S
H1282 C1290 0.950 . S
H1283 C1292 0.950 . S
H1284 C1294 0.950 . S
H1285 C1296 0.950 . S
H1286 C1298 0.950 . S
H1287 C1299 0.950 . S
C1288 H1280 0.950 . S
C1288 C1289 1.386 . S
C1288 C1290 1.391 . S
C1289 C1288 1.386 . S
C1289 C1293 1.393 . S
C1290 H1282 0.950 . S
C1290 C1288 1.391 . S
C1290 C1291 1.400 . S
C1291 C1290 1.400 . S
C1291 C1292 1.398 . S
C1291 C1297 1.491 . S
C1292 H1283 0.950 . S
C1292 C1291 1.398 . S
C1292 C1293 1.391 . S
C1293 H1281 0.950 1_655 S
C1293 C1289 1.393 . S
C1293 C1292 1.391 . S
C1294 H1284 0.950 . S
C1294 C1295 1.386 . S
C1294 C1296 1.391 . S
C1295 C1294 1.386 . S
C1295 C1299 1.393 . S
C1296 H1285 0.950 . S
C1296 C1294 1.391 . S
C1296 C1297 1.400 . S
C1297 C1291 1.491 . S
C1297 C1296 1.400 . S
C1297 C1298 1.398 . S
C1298 H1286 0.950 . S
C1298 C1297 1.398 . S
C1298 C1299 1.391 . S
C1299 H1287 0.950 . S
C1299 C1295 1.393 . S
C1299 C1298 1.391 . S
H1300 C1308 0.950 . S
H1301 C1313 0.950 . S
H1302 C1310 0.950 . S
H1303 C1312 0.950 . S
H1304 C1314 0.950 . S
H1305 C1316 0.950 . S
H1306 C1318 0.950 . S
H1307 C1319 0.950 . S
C1308 H1300 0.950 . S
C1308 C1309 1.386 . S
C1308 C1310 1.391 . S
C1309 C1308 1.386 . S
C1309 C1313 1.393 . S
C1310 H1302 0.950 . S
C1310 C1308 1.391 . S
C1310 C1311 1.400 . S
C1311 C1310 1.400 . S
C1311 C1312 1.398 . S
C1311 C1317 1.491 . S
C1312 H1303 0.950 . S
C1312 C1311 1.398 . S
C1312 C1313 1.391 . S
C1313 H1301 0.950 . S
C1313 C1309 1.393 . S
C1313 C1312 1.391 . S
C1314 H1304 0.950 . S
C1314 C1315 1.386 . S
C1314 C1316 1.391 . S
C1315 C1314 1.386 . S
C1315 C1319 1.393 . S
C1316 H1305 0.950 . S
C1316 C1314 1.391 . S
C1316 C1317 1.400 . S
C1317 C1311 1.491 . S
C1317 C1316 1.400 . S
C1317 C1318 1.398 . S
C1318 H1306 0.950 . S
C1318 C1317 1.398 . S
C1318 C1319 1.391 . S
C1319 H1307 0.950 . S
C1319 C1315 1.393 . S
C1319 C1318 1.391 . S
H1320 C1328 0.950 . S
H1321 C1333 0.950 . S
H1322 C1330 0.950 . S
H1323 C1332 0.950 . S
H1324 C1334 0.950 . S
H1325 C1336 0.950 . S
H1326 C1338 0.950 . S
H1327 C1339 0.950 . S
C1328 H1320 0.950 . S
C1328 C1329 1.386 . S
C1328 C1330 1.391 . S
C1329 C1328 1.386 . S
C1329 C1333 1.393 . S
C1330 H1322 0.950 . S
C1330 C1328 1.391 . S
C1330 C1331 1.400 . S
C1331 C1330 1.400 . S
C1331 C1332 1.398 . S
C1331 C1337 1.491 . S
C1332 H1323 0.950 . S
C1332 C1331 1.398 . S
C1332 C1333 1.391 . S
C1333 H1321 0.950 . S
C1333 C1329 1.393 . S
C1333 C1332 1.391 . S
C1334 H1324 0.950 . S
C1334 C1335 1.386 . S
C1334 C1336 1.391 . S
C1335 C1334 1.386 . S
C1335 C1339 1.393 . S
C1336 H1325 0.950 . S
C1336 C1334 1.391 . S
C1336 C1337 1.400 . S
C1337 C1331 1.491 . S
C1337 C1336 1.400 . S
C1337 C1338 1.398 . S
C1338 H1326 0.950 . S
C1338 C1337 1.398 . S
C1338 C1339 1.391 . S
C1339 H1327 0.950 . S
C1339 C1335 1.393 . S
C1339 C1338 1.391 . S
H1340 C1348 0.950 . S
H1341 C1353 0.950 . S
H1342 C1350 0.950 . S
H1343 C1352 0.950 . S
H1344 C1354 0.950 . S
H1345 C1356 0.950 . S
H1346 C1358 0.950 . S
H1347 C1359 0.950 . S
C1348 H1340 0.950 . S
C1348 C1349 1.386 . S
C1348 C1350 1.391 . S
C1349 C1348 1.386 . S
C1349 C1353 1.393 . S
C1350 H1342 0.950 . S
C1350 C1348 1.391 . S
C1350 C1351 1.400 . S
C1351 C1350 1.400 . S
C1351 C1352 1.398 . S
C1351 C1357 1.491 . S
C1352 H1343 0.950 . S
C1352 C1351 1.398 . S
C1352 C1353 1.391 . S
C1353 H1341 0.950 . S
C1353 C1349 1.393 . S
C1353 C1352 1.391 . S
C1354 H1344 0.950 . S
C1354 C1355 1.386 . S
C1354 C1356 1.391 . S
C1355 C1354 1.386 . S
C1355 C1359 1.393 . S
C1356 H1345 0.950 . S
C1356 C1354 1.391 . S
C1356 C1357 1.400 . S
C1357 C1351 1.491 . S
C1357 C1356 1.400 . S
C1357 C1358 1.398 . S
C1358 H1346 0.950 . S
C1358 C1357 1.398 . S
C1358 C1359 1.391 . S
C1359 H1347 0.950 . S
C1359 C1355 1.393 . S
C1359 C1358 1.391 . S
H1360 C1368 0.950 . S
H1361 C1373 0.950 . S
H1362 C1370 0.950 . S
H1363 C1372 0.950 . S
H1364 C1374 0.950 . S
H1365 C1376 0.950 . S
H1366 C1378 0.950 . S
H1367 C1379 0.950 . S
C1368 H1360 0.950 . S
C1368 C1369 1.386 . S
C1368 C1370 1.391 . S
C1369 C1368 1.386 . S
C1369 C1373 1.393 . S
C1370 H1362 0.950 . S
C1370 C1368 1.391 . S
C1370 C1371 1.400 . S
C1371 C1370 1.400 . S
C1371 C1372 1.398 . S
C1371 C1377 1.491 . S
C1372 H1363 0.950 . S
C1372 C1371 1.398 . S
C1372 C1373 1.391 . S
C1373 H1361 0.950 . S
C1373 C1369 1.393 . S
C1373 C1372 1.391 . S
C1374 H1364 0.950 . S
C1374 C1375 1.386 . S
C1374 C1376 1.391 . S
C1375 C1374 1.386 . S
C1375 C1379 1.393 . S
C1376 H1365 0.950 . S
C1376 C1374 1.391 . S
C1376 C1377 1.400 . S
C1377 C1371 1.491 . S
C1377 C1376 1.400 . S
C1377 C1378 1.398 . S
C1378 H1366 0.950 . S
C1378 C1377 1.398 . S
C1378 C1379 1.391 . S
C1379 H1367 0.950 . S
C1379 C1375 1.393 . S
C1379 C1378 1.391 . S
H1380 C1388 0.950 . S
H1381 C1393 0.950 . S
H1382 C1390 0.950 . S
H1383 C1392 0.950 . S
H1384 C1394 0.950 . S
H1385 C1396 0.950 . S
H1386 C1398 0.950 . S
H1387 C1399 0.950 . S
C1388 H1380 0.950 . S
C1388 C1389 1.386 . S
C1388 C1390 1.391 . S
C1389 C1388 1.386 . S
C1389 C1393 1.393 . S
C1390 H1382 0.950 . S
C1390 C1388 1.391 . S
C1390 C1391 1.400 . S
C1391 C1390 1.400 . S
C1391 C1392 1.398 . S
C1391 C1397 1.491 . S
C1392 H1383 0.950 . S
C1392 C1391 1.398 . S
C1392 C1393 1.391 . S
C1393 H1381 0.950 . S
C1393 C1389 1.393 . S
C1393 C1392 1.391 . S
C1394 H1384 0.950 . S
C1394 C1395 1.386 . S
C1394 C1396 1.391 . S
C1395 C1394 1.386 . S
C1395 C1399 1.393 . S
C1396 H1385 0.950 . S
C1396 C1394 1.391 . S
C1396 C1397 1.400 . S
C1397 C1391 1.491 . S
C1397 C1396 1.400 . S
C1397 C1398 1.398 . S
C1398 H1386 0.950 . S
C1398 C1397 1.398 . S
C1398 C1399 1.391 . S
C1399 H1387 0.950 . S
C1399 C1395 1.393 . S
C1399 C1398 1.391 . S
H1400 C1408 0.950 . S
H1401 C1413 0.950 . S
H1402 C1410 0.950 . S
H1403 C1412 0.950 . S
H1404 C1414 0.950 . S
H1405 C1416 0.950 . S
H1406 C1418 0.950 . S
H1407 C1419 0.950 . S
C1408 H1400 0.950 . S
C1408 C1409 1.386 . S
C1408 C1410 1.391 . S
C1409 C1408 1.386 . S
C1409 C1413 1.393 . S
C1410 H1402 0.950 . S
C1410 C1408 1.391 . S
C1410 C1411 1.400 . S
C1411 C1410 1.400 . S
C1411 C1412 1.398 . S
C1411 C1417 1.491 . S
C1412 H1403 0.950 . S
C1412 C1411 1.398 . S
C1412 C1413 1.391 . S
C1413 H1401 0.950 . S
C1413 C1409 1.393 . S
C1413 C1412 1.391 . S
C1414 H1404 0.950 . S
C1414 C1415 1.386 . S
C1414 C1416 1.391 . S
C1415 C1414 1.386 . S
C1415 C1419 1.393 . S
C1416 H1405 0.950 . S
C1416 C1414 1.391 . S
C1416 C1417 1.400 . S
C1417 C1411 1.491 . S
C1417 C1416 1.400 . S
C1417 C1418 1.398 . S
C1418 H1406 0.950 . S
C1418 C1417 1.398 . S
C1418 C1419 1.391 . S
C1419 H1407 0.950 . S
C1419 C1415 1.393 . S
C1419 C1418 1.391 . S
H1420 C1428 0.950 . S
H1421 C1433 0.950 . S
H1422 C1430 0.950 . S
H1423 C1432 0.950 . S
H1424 C1434 0.950 . S
H1425 C1436 0.950 . S
H1426 C1438 0.950 . S
H1427 C1439 0.950 . S
C1428 H1420 0.950 . S
C1428 C1429 1.386 . S
C1428 C1430 1.391 . S
C1429 C1428 1.386 . S
C1429 C1433 1.393 . S
C1430 H1422 0.950 . S
C1430 C1428 1.391 . S
C1430 C1431 1.400 . S
C1431 C1430 1.400 . S
C1431 C1432 1.398 . S
C1431 C1437 1.491 . S
C1432 H1423 0.950 . S
C1432 C1431 1.398 . S
C1432 C1433 1.391 . S
C1433 H1421 0.950 . S
C1433 C1429 1.393 . S
C1433 C1432 1.391 . S
C1434 H1424 0.950 . S
C1434 C1435 1.386 . S
C1434 C1436 1.391 . S
C1435 C1434 1.386 . S
C1435 C1439 1.393 . S
C1436 H1425 0.950 . S
C1436 C1434 1.391 . S
C1436 C1437 1.400 . S
C1437 C1431 1.491 . S
C1437 C1436 1.400 . S
C1437 C1438 1.398 . S
C1438 H1426 0.950 . S
C1438 C1437 1.398 . S
C1438 C1439 1.391 . S
C1439 H1427 0.950 . S
C1439 C1435 1.393 . S
C1439 C1438 1.391 . S
H1440 C1448 0.950 . S
H1441 C1453 0.950 1_455 S
H1442 C1450 0.950 . S
H1443 C1452 0.950 . S
H1444 C1454 0.950 . S
H1445 C1456 0.950 . S
H1446 C1458 0.950 . S
H1447 C1459 0.950 . S
C1448 H1440 0.950 . S
C1448 C1449 1.386 . S
C1448 C1450 1.391 . S
C1449 C1448 1.386 . S
C1449 C1453 1.393 . S
C1450 H1442 0.950 . S
C1450 C1448 1.391 . S
C1450 C1451 1.400 . S
C1451 C1450 1.400 . S
C1451 C1452 1.398 . S
C1451 C1457 1.491 . S
C1452 H1443 0.950 . S
C1452 C1451 1.398 . S
C1452 C1453 1.391 . S
C1453 H1441 0.950 1_655 S
C1453 C1449 1.393 . S
C1453 C1452 1.391 . S
C1454 H1444 0.950 . S
C1454 C1455 1.386 . S
C1454 C1456 1.391 . S
C1455 C1454 1.386 . S
C1455 C1459 1.393 . S
C1456 H1445 0.950 . S
C1456 C1454 1.391 . S
C1456 C1457 1.400 . S
C1457 C1451 1.491 . S
C1457 C1456 1.400 . S
C1457 C1458 1.398 . S
C1458 H1446 0.950 . S
C1458 C1457 1.398 . S
C1458 C1459 1.391 . S
C1459 H1447 0.950 . S
C1459 C1455 1.393 . S
C1459 C1458 1.391 . S
H1460 C1468 0.950 . S
H1461 C1473 0.950 . S
H1462 C1470 0.950 . S
H1463 C1472 0.950 . S
H1464 C1474 0.950 . S
H1465 C1476 0.950 . S
H1466 C1478 0.950 . S
H1467 C1479 0.950 . S
C1468 H1460 0.950 . S
C1468 C1469 1.386 . S
C1468 C1470 1.391 . S
C1469 C1468 1.386 . S
C1469 C1473 1.393 . S
C1470 H1462 0.950 . S
C1470 C1468 1.391 . S
C1470 C1471 1.400 . S
C1471 C1470 1.400 . S
C1471 C1472 1.398 . S
C1471 C1477 1.491 . S
C1472 H1463 0.950 . S
C1472 C1471 1.398 . S
C1472 C1473 1.391 . S
C1473 H1461 0.950 . S
C1473 C1469 1.393 . S
C1473 C1472 1.391 . S
C1474 H1464 0.950 . S
C1474 C1475 1.386 . S
C1474 C1476 1.391 . S
C1475 C1474 1.386 . S
C1475 C1479 1.393 . S
C1476 H1465 0.950 . S
C1476 C1474 1.391 . S
C1476 C1477 1.400 . S
C1477 C1471 1.491 . S
C1477 C1476 1.400 . S
C1477 C1478 1.398 . S
C1478 H1466 0.950 . S
C1478 C1477 1.398 . S
C1478 C1479 1.391 . S
C1479 H1467 0.950 . S
C1479 C1475 1.393 . S
C1479 C1478 1.391 . S
H1480 C1488 0.950 1_455 S
H1481 C1493 0.950 . S
H1482 C1490 0.950 . S
H1483 C1492 0.950 . S
H1484 C1494 0.950 . S
H1485 C1496 0.950 . S
H1486 C1498 0.950 . S
H1487 C1499 0.950 . S
C1488 H1480 0.950 1_655 S
C1488 C1489 1.386 . S
C1488 C1490 1.391 . S
C1489 C1488 1.386 . S
C1489 C1493 1.393 . S
C1490 H1482 0.950 . S
C1490 C1488 1.391 . S
C1490 C1491 1.400 . S
C1491 C1490 1.400 . S
C1491 C1492 1.398 . S
C1491 C1497 1.491 . S
C1492 H1483 0.950 . S
C1492 C1491 1.398 . S
C1492 C1493 1.391 . S
C1493 H1481 0.950 . S
C1493 C1489 1.393 . S
C1493 C1492 1.391 . S
C1494 H1484 0.950 . S
C1494 C1495 1.386 . S
C1494 C1496 1.391 . S
C1495 C1494 1.386 . S
C1495 C1499 1.393 . S
C1496 H1485 0.950 . S
C1496 C1494 1.391 . S
C1496 C1497 1.400 . S
C1497 C1491 1.491 . S
C1497 C1496 1.400 . S
C1497 C1498 1.398 . S
C1498 H1486 0.950 . S
C1498 C1497 1.398 . S
C1498 C1499 1.391 . S
C1499 H1487 0.950 . S
C1499 C1495 1.393 . S
C1499 C1498 1.391 . S
H1500 C1508 0.950 . S
H1501 C1513 0.950 . S
H1502 C1510 0.950 . S
H1503 C1512 0.950 . S
H1504 C1514 0.950 . S
H1505 C1516 0.950 . S
H1506 C1518 0.950 . S
H1507 C1519 0.950 . S
C1508 H1500 0.950 . S
C1508 C1509 1.386 . S
C1508 C1510 1.391 . S
C1509 C1508 1.386 . S
C1509 C1513 1.393 . S
C1510 H1502 0.950 . S
C1510 C1508 1.391 . S
C1510 C1511 1.400 . S
C1511 C1510 1.400 . S
C1511 C1512 1.398 . S
C1511 C1517 1.491 . S
C1512 H1503 0.950 . S
C1512 C1511 1.398 . S
C1512 C1513 1.391 . S
C1513 H1501 0.950 . S
C1513 C1509 1.393 . S
C1513 C1512 1.391 . S
C1514 H1504 0.950 . S
C1514 C1515 1.386 . S
C1514 C1516 1.391 . S
C1515 C1514 1.386 . S
C1515 C1519 1.393 . S
C1516 H1505 0.950 . S
C1516 C1514 1.391 . S
C1516 C1517 1.400 . S
C1517 C1511 1.491 . S
C1517 C1516 1.400 . S
C1517 C1518 1.398 . S
C1518 H1506 0.950 . S
C1518 C1517 1.398 . S
C1518 C1519 1.391 . S
C1519 H1507 0.950 . S
C1519 C1515 1.393 . S
C1519 C1518 1.391 . S
H1520 C1528 0.950 1_655 S
H1521 C1533 0.950 . S
H1522 C1530 0.950 . S
H1523 C1532 0.950 . S
H1524 C1534 0.950 . S
H1525 C1536 0.950 . S
H1526 C1538 0.950 . S
H1527 C1539 0.950 . S
C1528 H1520 0.950 1_455 S
C1528 C1529 1.386 . S
C1528 C1530 1.391 . S
C1529 C1528 1.386 . S
C1529 C1533 1.393 . S
C1530 H1522 0.950 . S
C1530 C1528 1.391 . S
C1530 C1531 1.400 . S
C1531 C1530 1.400 . S
C1531 C1532 1.398 . S
C1531 C1537 1.491 . S
C1532 H1523 0.950 . S
C1532 C1531 1.398 . S
C1532 C1533 1.391 . S
C1533 H1521 0.950 . S
C1533 C1529 1.393 . S
C1533 C1532 1.391 . S
C1534 H1524 0.950 . S
C1534 C1535 1.386 . S
C1534 C1536 1.391 . S
C1535 C1534 1.386 . S
C1535 C1539 1.393 . S
C1536 H1525 0.950 . S
C1536 C1534 1.391 . S
C1536 C1537 1.400 . S
C1537 C1531 1.491 . S
C1537 C1536 1.400 . S
C1537 C1538 1.398 . S
C1538 H1526 0.950 . S
C1538 C1537 1.398 . S
C1538 C1539 1.391 . S
C1539 H1527 0.950 . S
C1539 C1535 1.393 . S
C1539 C1538 1.391 . S
H1540 C1548 0.950 . S
H1541 C1553 0.950 . S
H1542 C1550 0.950 . S
H1543 C1552 0.950 . S
H1544 C1554 0.950 . S
H1545 C1556 0.950 . S
H1546 C1558 0.950 . S
H1547 C1559 0.950 . S
C1548 H1540 0.950 . S
C1548 C1549 1.386 . S
C1548 C1550 1.391 . S
C1549 C1548 1.386 . S
C1549 C1553 1.393 . S
C1550 H1542 0.950 . S
C1550 C1548 1.391 . S
C1550 C1551 1.400 . S
C1551 C1550 1.400 . S
C1551 C1552 1.398 . S
C1551 C1557 1.491 . S
C1552 H1543 0.950 . S
C1552 C1551 1.398 . S
C1552 C1553 1.391 . S
C1553 H1541 0.950 . S
C1553 C1549 1.393 . S
C1553 C1552 1.391 . S
C1554 H1544 0.950 . S
C1554 C1555 1.386 . S
C1554 C1556 1.391 . S
C1555 C1554 1.386 . S
C1555 C1559 1.393 . S
C1556 H1545 0.950 . S
C1556 C1554 1.391 . S
C1556 C1557 1.400 . S
C1557 C1551 1.491 . S
C1557 C1556 1.400 . S
C1557 C1558 1.398 . S
C1558 H1546 0.950 . S
C1558 C1557 1.398 . S
C1558 C1559 1.391 . S
C1559 H1547 0.950 . S
C1559 C1555 1.393 . S
C1559 C1558 1.391 . S
H1560 C1568 0.950 . S
H1561 C1573 0.950 . S
H1562 C1570 0.950 . S
H1563 C1572 0.950 . S
H1564 C1574 0.950 . S
H1565 C1576 0.950 . S
H1566 C1578 0.950 . S
H1567 C1579 0.950 1_655 S
C1568 H1560 0.950 . S
C1568 C1569 1.386 . S
C1568 C1570 1.391 . S
C1569 C1568 1.386 . S
C1569 C1573 1.393 . S
C1570 H1562 0.950 . S
C1570 C1568 1.391 . S
C1570 C1571 1.400 . S
C1571 C1570 1.400 . S
C1571 C1572 1.398 . S
C1571 C1577 1.491 . S
C1572 H1563 0.950 . S
C1572 C1571 1.398 . S
C1572 C1573 1.391 . S
C1573 H1561 0.950 . S
C1573 C1569 1.393 . S
C1573 C1572 1.391 . S
C1574 H1564 0.950 . S
C1574 C1575 1.386 . S
C1574 C1576 1.391 . S
C1575 C1574 1.386 . S
C1575 C1579 1.393 . S
C1576 H1565 0.950 . S
C1576 C1574 1.391 . S
C1576 C1577 1.400 . S
C1577 C1571 1.491 . S
C1577 C1576 1.400 . S
C1577 C1578 1.398 . S
C1578 H1566 0.950 . S
C1578 C1577 1.398 . S
C1578 C1579 1.391 . S
C1579 H1567 0.950 1_455 S
C1579 C1575 1.393 . S
C1579 C1578 1.391 . S
H1580 C1588 0.950 . S
H1581 C1593 0.950 . S
H1582 C1590 0.950 . S
H1583 C1592 0.950 . S
H1584 C1594 0.950 . S
H1585 C1596 0.950 . S
H1586 C1598 0.950 . S
H1587 C1599 0.950 . S
C1588 H1580 0.950 . S
C1588 C1589 1.386 . S
C1588 C1590 1.391 . S
C1589 C1588 1.386 . S
C1589 C1593 1.393 . S
C1590 H1582 0.950 . S
C1590 C1588 1.391 . S
C1590 C1591 1.400 . S
C1591 C1590 1.400 . S
C1591 C1592 1.398 . S
C1591 C1597 1.491 . S
C1592 H1583 0.950 . S
C1592 C1591 1.398 . S
C1592 C1593 1.391 . S
C1593 H1581 0.950 . S
C1593 C1589 1.393 . S
C1593 C1592 1.391 . S
C1594 H1584 0.950 . S
C1594 C1595 1.386 . S
C1594 C1596 1.391 . S
C1595 C1594 1.386 . S
C1595 C1599 1.393 . S
C1596 H1585 0.950 . S
C1596 C1594 1.391 . S
C1596 C1597 1.400 . S
C1597 C1591 1.491 . S
C1597 C1596 1.400 . S
C1597 C1598 1.398 . S
C1598 H1586 0.950 . S
C1598 C1597 1.398 . S
C1598 C1599 1.391 . S
C1599 H1587 0.950 . S
C1599 C1595 1.393 . S
C1599 C1598 1.391 . S
H1600 C1608 0.950 . S
H1601 C1613 0.950 . S
H1602 C1610 0.950 . S
H1603 C1612 0.950 . S
H1604 C1614 0.950 . S
H1605 C1616 0.950 . S
H1606 C1618 0.950 . S
H1607 C1619 0.950 . S
C1608 H1600 0.950 . S
C1608 C1609 1.386 . S
C1608 C1610 1.391 . S
C1609 C1608 1.386 . S
C1609 C1613 1.393 . S
C1610 H1602 0.950 . S
C1610 C1608 1.391 . S
C1610 C1611 1.400 . S
C1611 C1610 1.400 . S
C1611 C1612 1.398 . S
C1611 C1617 1.491 . S
C1612 H1603 0.950 . S
C1612 C1611 1.398 . S
C1612 C1613 1.391 . S
C1613 H1601 0.950 . S
C1613 C1609 1.393 . S
C1613 C1612 1.391 . S
C1614 H1604 0.950 . S
C1614 C1615 1.386 . S
C1614 C1616 1.391 . S
C1615 C1614 1.386 . S
C1615 C1619 1.393 . S
C1616 H1605 0.950 . S
C1616 C1614 1.391 . S
C1616 C1617 1.400 . S
C1617 C1611 1.491 . S
C1617 C1616 1.400 . S
C1617 C1618 1.398 . S
C1618 H1606 0.950 . S
C1618 C1617 1.398 . S
C1618 C1619 1.391 . S
C1619 H1607 0.950 . S
C1619 C1615 1.393 . S
C1619 C1618 1.391 . S
H1620 C1628 0.950 . S
H1621 C1633 0.950 . S
H1622 C1630 0.950 . S
H1623 C1632 0.950 . S
H1624 C1634 0.950 . S
H1625 C1636 0.950 . S
H1626 C1638 0.950 . S
H1627 C1639 0.950 . S
C1628 H1620 0.950 . S
C1628 C1629 1.386 . S
C1628 C1630 1.391 . S
C1629 C1628 1.386 . S
C1629 C1633 1.393 . S
C1630 H1622 0.950 . S
C1630 C1628 1.391 . S
C1630 C1631 1.400 . S
C1631 C1630 1.400 . S
C1631 C1632 1.398 . S
C1631 C1637 1.491 . S
C1632 H1623 0.950 . S
C1632 C1631 1.398 . S
C1632 C1633 1.391 . S
C1633 H1621 0.950 . S
C1633 C1629 1.393 . S
C1633 C1632 1.391 . S
C1634 H1624 0.950 . S
C1634 C1635 1.386 . S
C1634 C1636 1.391 . S
C1635 C1634 1.386 . S
C1635 C1639 1.393 . S
C1636 H1625 0.950 . S
C1636 C1634 1.391 . S
C1636 C1637 1.400 . S
C1637 C1631 1.491 . S
C1637 C1636 1.400 . S
C1637 C1638 1.398 . S
C1638 H1626 0.950 . S
C1638 C1637 1.398 . S
C1638 C1639 1.391 . S
C1639 H1627 0.950 . S
C1639 C1635 1.393 . S
C1639 C1638 1.391 . S
H1640 C1648 0.950 . S
H1641 C1653 0.950 . S
H1642 C1650 0.950 . S
H1643 C1652 0.950 . S
H1644 C1654 0.950 . S
H1645 C1656 0.950 . S
H1646 C1658 0.950 . S
H1647 C1659 0.950 . S
C1648 H1640 0.950 . S
C1648 C1649 1.386 . S
C1648 C1650 1.391 . S
C1649 C1648 1.386 . S
C1649 C1653 1.393 . S
C1650 H1642 0.950 . S
C1650 C1648 1.391 . S
C1650 C1651 1.400 . S
C1651 C1650 1.400 . S
C1651 C1652 1.398 . S
C1651 C1657 1.491 . S
C1652 H1643 0.950 . S
C1652 C1651 1.398 . S
C1652 C1653 1.391 . S
C1653 H1641 0.950 . S
C1653 C1649 1.393 . S
C1653 C1652 1.391 . S
C1654 H1644 0.950 . S
C1654 C1655 1.386 . S
C1654 C1656 1.391 . S
C1655 C1654 1.386 . S
C1655 C1659 1.393 . S
C1656 H1645 0.950 . S
C1656 C1654 1.391 . S
C1656 C1657 1.400 . S
C1657 C1651 1.491 . S
C1657 C1656 1.400 . S
C1657 C1658 1.398 . S
C1658 H1646 0.950 . S
C1658 C1657 1.398 . S
C1658 C1659 1.391 . S
C1659 H1647 0.950 . S
C1659 C1655 1.393 . S
C1659 C1658 1.391 . S
H1660 C1668 0.950 . S
H1661 C1673 0.950 . S
H1662 C1670 0.950 . S
H1663 C1672 0.950 . S
H1664 C1674 0.950 . S
H1665 C1676 0.950 . S
H1666 C1678 0.950 . S
H1667 C1679 0.950 . S
C1668 H1660 0.950 . S
C1668 C1669 1.386 . S
C1668 C1670 1.391 . S
C1669 C1668 1.386 . S
C1669 C1673 1.393 . S
C1670 H1662 0.950 . S
C1670 C1668 1.391 . S
C1670 C1671 1.400 . S
C1671 C1670 1.400 . S
C1671 C1672 1.398 . S
C1671 C1677 1.491 . S
C1672 H1663 0.950 . S
C1672 C1671 1.398 . S
C1672 C1673 1.391 . S
C1673 H1661 0.950 . S
C1673 C1669 1.393 . S
C1673 C1672 1.391 . S
C1674 H1664 0.950 . S
C1674 C1675 1.386 . S
C1674 C1676 1.391 . S
C1675 C1674 1.386 . S
C1675 C1679 1.393 . S
C1676 H1665 0.950 . S
C1676 C1674 1.391 . S
C1676 C1677 1.400 . S
C1677 C1671 1.491 . S
C1677 C1676 1.400 . S
C1677 C1678 1.398 . S
C1678 H1666 0.950 . S
C1678 C1677 1.398 . S
C1678 C1679 1.391 . S
C1679 H1667 0.950 . S
C1679 C1675 1.393 . S
C1679 C1678 1.391 . S
H1680 C1688 0.950 1_545 S
H1681 C1693 0.950 . S
H1682 C1690 0.932 1_545 S
H1683 C1692 0.950 . S
H1684 C1694 0.950 . S
H1685 C1696 0.950 . S
H1686 C1698 0.976 . S
H1687 C1699 0.972 . S
C1688 H1680 0.950 1_565 S
C1688 C1689 1.386 . S
C1688 C1690 1.392 . S
C1689 C1688 1.386 . S
C1689 C1693 1.393 . S
C1690 H1682 0.932 1_565 S
C1690 C1688 1.392 . S
C1690 C1691 1.418 . S
C1691 C1690 1.418 . S
C1691 C1692 1.398 . S
C1691 C1697 1.491 . S
C1692 H1683 0.950 . S
C1692 C1691 1.398 . S
C1692 C1693 1.391 . S
C1693 H1681 0.950 . S
C1693 C1689 1.393 . S
C1693 C1692 1.391 . S
C1694 H1684 0.950 . S
C1694 C1695 1.386 . S
C1694 C1696 1.391 . S
C1695 C1694 1.386 . S
C1695 C1699 1.372 1_565 S
C1696 H1685 0.950 . S
C1696 C1694 1.391 . S
C1696 C1697 1.400 . S
C1697 C1691 1.491 . S
C1697 C1696 1.400 . S
C1697 C1698 1.375 1_565 S
C1698 H1686 0.976 . S
C1698 C1697 1.375 1_545 S
C1698 C1699 1.391 . S
C1699 H1687 0.972 . S
C1699 C1695 1.372 1_545 S
C1699 C1698 1.391 . S
H1700 C1708 0.950 . S
H1701 C1713 0.950 . S
H1702 C1710 0.950 . S
H1703 C1712 0.950 . S
H1704 C1714 0.950 . S
H1705 C1716 0.950 . S
H1706 C1718 0.950 . S
H1707 C1719 0.950 . S
C1708 H1700 0.950 . S
C1708 C1709 1.386 . S
C1708 C1710 1.391 . S
C1709 C1708 1.386 . S
C1709 C1713 1.393 . S
C1710 H1702 0.950 . S
C1710 C1708 1.391 . S
C1710 C1711 1.400 . S
C1711 C1710 1.400 . S
C1711 C1712 1.398 . S
C1711 C1717 1.491 . S
C1712 H1703 0.950 . S
C1712 C1711 1.398 . S
C1712 C1713 1.391 . S
C1713 H1701 0.950 . S
C1713 C1709 1.393 . S
C1713 C1712 1.391 . S
C1714 H1704 0.950 . S
C1714 C1715 1.386 . S
C1714 C1716 1.391 . S
C1715 C1714 1.386 . S
C1715 C1719 1.393 . S
C1716 H1705 0.950 . S
C1716 C1714 1.391 . S
C1716 C1717 1.400 . S
C1717 C1711 1.491 . S
C1717 C1716 1.400 . S
C1717 C1718 1.398 . S
C1718 H1706 0.950 . S
C1718 C1717 1.398 . S
C1718 C1719 1.391 . S
C1719 H1707 0.950 . S
C1719 C1715 1.393 . S
C1719 C1718 1.391 . S
H1720 C1728 0.950 . S
H1721 C1733 0.950 . S
H1722 C1730 0.950 . S
H1723 C1732 0.950 . S
H1724 C1734 0.950 . S
H1725 C1736 0.950 . S
H1726 C1738 0.950 . S
H1727 C1739 0.950 . S
C1728 H1720 0.950 . S
C1728 C1729 1.386 . S
C1728 C1730 1.391 . S
C1729 C1728 1.386 . S
C1729 C1733 1.393 . S
C1730 H1722 0.950 . S
C1730 C1728 1.391 . S
C1730 C1731 1.400 . S
C1731 C1730 1.400 . S
C1731 C1732 1.398 . S
C1731 C1737 1.491 . S
C1732 H1723 0.950 . S
C1732 C1731 1.398 . S
C1732 C1733 1.391 . S
C1733 H1721 0.950 . S
C1733 C1729 1.393 . S
C1733 C1732 1.391 . S
C1734 H1724 0.950 . S
C1734 C1735 1.386 . S
C1734 C1736 1.391 . S
C1735 C1734 1.386 . S
C1735 C1739 1.393 . S
C1736 H1725 0.950 . S
C1736 C1734 1.391 . S
C1736 C1737 1.400 . S
C1737 C1731 1.491 . S
C1737 C1736 1.400 . S
C1737 C1738 1.398 . S
C1738 H1726 0.950 . S
C1738 C1737 1.398 . S
C1738 C1739 1.391 . S
C1739 H1727 0.950 . S
C1739 C1735 1.393 . S
C1739 C1738 1.391 . S
H1740 C1748 0.950 . S
H1741 C1753 0.950 . S
H1742 C1750 0.950 . S
H1743 C1752 0.950 . S
H1744 C1754 0.950 . S
H1745 C1756 0.950 . S
H1746 C1758 0.950 . S
H1747 C1759 0.950 . S
C1748 H1740 0.950 . S
C1748 C1749 1.386 . S
C1748 C1750 1.391 . S
C1749 C1748 1.386 . S
C1749 C1753 1.393 . S
C1750 H1742 0.950 . S
C1750 C1748 1.391 . S
C1750 C1751 1.400 . S
C1751 C1750 1.400 . S
C1751 C1752 1.398 . S
C1751 C1757 1.491 . S
C1752 H1743 0.950 . S
C1752 C1751 1.398 . S
C1752 C1753 1.391 . S
C1753 H1741 0.950 . S
C1753 C1749 1.393 . S
C1753 C1752 1.391 . S
C1754 H1744 0.950 . S
C1754 C1755 1.386 . S
C1754 C1756 1.391 . S
C1755 C1754 1.386 . S
C1755 C1759 1.393 . S
C1756 H1745 0.950 . S
C1756 C1754 1.391 . S
C1756 C1757 1.400 . S
C1757 C1751 1.491 . S
C1757 C1756 1.400 . S
C1757 C1758 1.398 . S
C1758 H1746 0.950 . S
C1758 C1757 1.398 . S
C1758 C1759 1.391 . S
C1759 H1747 0.950 . S
C1759 C1755 1.393 . S
C1759 C1758 1.391 . S
H1760 C1768 0.950 . S
H1761 C1773 0.950 . S
H1762 C1770 0.950 . S
H1763 C1772 0.950 . S
H1764 C1774 0.950 . S
H1765 C1776 0.950 . S
H1766 C1778 0.950 . S
H1767 C1779 0.950 . S
C1768 H1760 0.950 . S
C1768 C1769 1.386 . S
C1768 C1770 1.391 . S
C1769 C1768 1.386 . S
C1769 C1773 1.393 . S
C1770 H1762 0.950 . S
C1770 C1768 1.391 . S
C1770 C1771 1.400 . S
C1771 C1770 1.400 . S
C1771 C1772 1.398 . S
C1771 C1777 1.491 . S
C1772 H1763 0.950 . S
C1772 C1771 1.398 . S
C1772 C1773 1.391 . S
C1773 H1761 0.950 . S
C1773 C1769 1.393 . S
C1773 C1772 1.391 . S
C1774 H1764 0.950 . S
C1774 C1775 1.386 . S
C1774 C1776 1.391 . S
C1775 C1774 1.386 . S
C1775 C1779 1.393 . S
C1776 H1765 0.950 . S
C1776 C1774 1.391 . S
C1776 C1777 1.400 . S
C1777 C1771 1.491 . S
C1777 C1776 1.400 . S
C1777 C1778 1.398 . S
C1778 H1766 0.950 . S
C1778 C1777 1.398 . S
C1778 C1779 1.391 . S
C1779 H1767 0.950 . S
C1779 C1775 1.393 . S
C1779 C1778 1.391 . S
H1780 C1788 0.950 . S
H1781 C1793 0.950 . S
H1782 C1790 0.950 . S
H1783 C1792 0.950 . S
H1784 C1794 0.950 . S
H1785 C1796 0.950 . S
H1786 C1798 0.950 . S
H1787 C1799 0.950 . S
C1788 H1780 0.950 . S
C1788 C1789 1.386 . S
C1788 C1790 1.391 . S
C1789 C1788 1.386 . S
C1789 C1793 1.393 . S
C1790 H1782 0.950 . S
C1790 C1788 1.391 . S
C1790 C1791 1.400 . S
C1791 C1790 1.400 . S
C1791 C1792 1.398 . S
C1791 C1797 1.491 . S
C1792 H1783 0.950 . S
C1792 C1791 1.398 . S
C1792 C1793 1.391 . S
C1793 H1781 0.950 . S
C1793 C1789 1.393 . S
C1793 C1792 1.391 . S
C1794 H1784 0.950 . S
C1794 C1795 1.386 . S
C1794 C1796 1.391 . S
C1795 C1794 1.386 . S
C1795 C1799 1.393 . S
C1796 H1785 0.950 . S
C1796 C1794 1.391 . S
C1796 C1797 1.400 . S
C1797 C1791 1.491 . S
C1797 C1796 1.400 . S
C1797 C1798 1.398 . S
C1798 H1786 0.950 . S
C1798 C1797 1.398 . S
C1798 C1799 1.391 . S
C1799 H1787 0.950 . S
C1799 C1795 1.393 . S
C1799 C1798 1.391 . S
H1800 C1808 0.950 . S
H1801 C1813 0.950 . S
H1802 C1810 0.950 . S
H1803 C1812 0.950 . S
H1804 C1814 0.950 . S
H1805 C1816 0.950 . S
H1806 C1818 0.950 . S
H1807 C1819 0.950 . S
C1808 H1800 0.950 . S
C1808 C1809 1.386 . S
C1808 C1810 1.391 . S
C1809 C1808 1.386 . S
C1809 C1813 1.393 . S
C1810 H1802 0.950 . S
C1810 C1808 1.391 . S
C1810 C1811 1.400 . S
C1811 C1810 1.400 . S
C1811 C1812 1.398 . S
C1811 C1817 1.491 . S
C1812 H1803 0.950 . S
C1812 C1811 1.398 . S
C1812 C1813 1.391 . S
C1813 H1801 0.950 . S
C1813 C1809 1.393 . S
C1813 C1812 1.391 . S
C1814 H1804 0.950 . S
C1814 C1815 1.386 . S
C1814 C1816 1.391 . S
C1815 C1814 1.386 . S
C1815 C1819 1.393 . S
C1816 H1805 0.950 . S
C1816 C1814 1.391 . S
C1816 C1817 1.400 . S
C1817 C1811 1.491 . S
C1817 C1816 1.400 . S
C1817 C1818 1.398 . S
C1818 H1806 0.950 . S
C1818 C1817 1.398 . S
C1818 C1819 1.391 . S
C1819 H1807 0.950 . S
C1819 C1815 1.393 . S
C1819 C1818 1.391 . S
H1820 C1828 0.950 . S
H1821 C1833 0.950 . S
H1822 C1830 0.950 . S
H1823 C1832 0.950 . S
H1824 C1834 0.950 . S
H1825 C1836 0.950 . S
H1826 C1838 0.950 . S
H1827 C1839 0.950 . S
C1828 H1820 0.950 . S
C1828 C1829 1.386 . S
C1828 C1830 1.391 . S
C1829 C1828 1.386 . S
C1829 C1833 1.393 . S
C1830 H1822 0.950 . S
C1830 C1828 1.391 . S
C1830 C1831 1.400 . S
C1831 C1830 1.400 . S
C1831 C1832 1.398 . S
C1831 C1837 1.491 . S
C1832 H1823 0.950 . S
C1832 C1831 1.398 . S
C1832 C1833 1.391 . S
C1833 H1821 0.950 . S
C1833 C1829 1.393 . S
C1833 C1832 1.391 . S
C1834 H1824 0.950 . S
C1834 C1835 1.386 . S
C1834 C1836 1.391 . S
C1835 C1834 1.386 . S
C1835 C1839 1.393 . S
C1836 H1825 0.950 . S
C1836 C1834 1.391 . S
C1836 C1837 1.400 . S
C1837 C1831 1.491 . S
C1837 C1836 1.400 . S
C1837 C1838 1.398 . S
C1838 H1826 0.950 . S
C1838 C1837 1.398 . S
C1838 C1839 1.391 . S
C1839 H1827 0.950 . S
C1839 C1835 1.393 . S
C1839 C1838 1.391 . S
H1840 C1848 0.950 . S
H1841 C1853 0.950 . S
H1842 C1850 0.950 . S
H1843 C1852 0.950 . S
H1844 C1854 0.950 . S
H1845 C1856 0.950 . S
H1846 C1858 0.950 . S
H1847 C1859 0.950 . S
C1848 H1840 0.950 . S
C1848 C1849 1.386 . S
C1848 C1850 1.391 . S
C1849 C1848 1.386 . S
C1849 C1853 1.393 . S
C1850 H1842 0.950 . S
C1850 C1848 1.391 . S
C1850 C1851 1.400 . S
C1851 C1850 1.400 . S
C1851 C1852 1.398 . S
C1851 C1857 1.491 . S
C1852 H1843 0.950 . S
C1852 C1851 1.398 . S
C1852 C1853 1.391 . S
C1853 H1841 0.950 . S
C1853 C1849 1.393 . S
C1853 C1852 1.391 . S
C1854 H1844 0.950 . S
C1854 C1855 1.386 . S
C1854 C1856 1.391 . S
C1855 C1854 1.386 . S
C1855 C1859 1.393 . S
C1856 H1845 0.950 . S
C1856 C1854 1.391 . S
C1856 C1857 1.400 . S
C1857 C1851 1.491 . S
C1857 C1856 1.400 . S
C1857 C1858 1.398 . S
C1858 H1846 0.950 . S
C1858 C1857 1.398 . S
C1858 C1859 1.391 . S
C1859 H1847 0.950 . S
C1859 C1855 1.393 . S
C1859 C1858 1.391 . S
H1860 C1868 0.950 . S
H1861 C1873 0.950 . S
H1862 C1870 0.950 . S
H1863 C1872 0.950 . S
H1864 C1874 0.950 . S
H1865 C1876 0.950 . S
H1866 C1878 0.950 . S
H1867 C1879 0.950 . S
C1868 H1860 0.950 . S
C1868 C1869 1.386 . S
C1868 C1870 1.391 . S
C1869 C1868 1.386 . S
C1869 C1873 1.393 . S
C1870 H1862 0.950 . S
C1870 C1868 1.391 . S
C1870 C1871 1.400 . S
C1871 C1870 1.400 . S
C1871 C1872 1.398 . S
C1871 C1877 1.491 . S
C1872 H1863 0.950 . S
C1872 C1871 1.398 . S
C1872 C1873 1.391 . S
C1873 H1861 0.950 . S
C1873 C1869 1.393 . S
C1873 C1872 1.391 . S
C1874 H1864 0.950 . S
C1874 C1875 1.386 . S
C1874 C1876 1.391 . S
C1875 C1874 1.386 . S
C1875 C1879 1.393 . S
C1876 H1865 0.950 . S
C1876 C1874 1.391 . S
C1876 C1877 1.400 . S
C1877 C1871 1.491 . S
C1877 C1876 1.400 . S
C1877 C1878 1.398 . S
C1878 H1866 0.950 . S
C1878 C1877 1.398 . S
C1878 C1879 1.391 . S
C1879 H1867 0.950 . S
C1879 C1875 1.393 . S
C1879 C1878 1.391 . S
H1880 C1888 0.944 1_565 S
H1881 C1893 0.950 . S
H1882 C1890 0.950 1_565 S
H1883 C1892 0.950 . S
H1884 C1894 0.950 . S
H1885 C1896 0.950 . S
H1886 C1898 0.950 1_565 S
H1887 C1899 0.950 1_565 S
C1888 H1880 0.944 1_545 S
C1888 C1889 1.386 . S
C1888 C1890 1.391 . S
C1889 C1888 1.386 . S
C1889 C1893 1.393 . S
C1890 H1882 0.950 1_545 S
C1890 C1888 1.391 . S
C1890 C1891 1.400 . S
C1891 C1890 1.400 . S
C1891 C1892 1.398 . S
C1891 C1897 1.491 . S
C1892 H1883 0.950 . S
C1892 C1891 1.398 . S
C1892 C1893 1.391 . S
C1893 H1881 0.950 . S
C1893 C1889 1.393 . S
C1893 C1892 1.391 . S
C1894 H1884 0.950 . S
C1894 C1895 1.386 . S
C1894 C1896 1.391 . S
C1895 C1894 1.386 . S
C1895 C1899 1.393 . S
C1896 H1885 0.950 . S
C1896 C1894 1.391 . S
C1896 C1897 1.400 . S
C1897 C1891 1.491 . S
C1897 C1896 1.400 . S
C1897 C1898 1.398 . S
C1898 H1886 0.950 1_545 S
C1898 C1897 1.398 . S
C1898 C1899 1.391 . S
C1899 H1887 0.950 1_545 S
C1899 C1895 1.393 . S
C1899 C1898 1.391 . S
H1900 C1908 0.950 . S
H1901 C1913 0.950 . S
H1902 C1910 0.950 . S
H1903 C1912 0.950 . S
H1904 C1914 0.950 . S
H1905 C1916 0.950 . S
H1906 C1918 0.950 . S
H1907 C1919 0.950 . S
C1908 H1900 0.950 . S
C1908 C1909 1.386 . S
C1908 C1910 1.391 . S
C1909 C1908 1.386 . S
C1909 C1913 1.393 . S
C1910 H1902 0.950 . S
C1910 C1908 1.391 . S
C1910 C1911 1.400 . S
C1911 C1910 1.400 . S
C1911 C1912 1.398 . S
C1911 C1917 1.491 . S
C1912 H1903 0.950 . S
C1912 C1911 1.398 . S
C1912 C1913 1.391 . S
C1913 H1901 0.950 . S
C1913 C1909 1.393 . S
C1913 C1912 1.391 . S
C1914 H1904 0.950 . S
C1914 C1915 1.386 . S
C1914 C1916 1.391 . S
C1915 C1914 1.386 . S
C1915 C1919 1.393 . S
C1916 H1905 0.950 . S
C1916 C1914 1.391 . S
C1916 C1917 1.400 . S
C1917 C1911 1.491 . S
C1917 C1916 1.400 . S
C1917 C1918 1.398 . S
C1918 H1906 0.950 . S
C1918 C1917 1.398 . S
C1918 C1919 1.391 . S
C1919 H1907 0.950 . S
C1919 C1915 1.393 . S
C1919 C1918 1.391 . S
H1920 C1928 0.950 . S
H1921 C1933 0.950 . S
H1922 C1930 0.950 . S
H1923 C1932 0.950 . S
H1924 C1934 0.950 . S
H1925 C1936 0.950 . S
H1926 C1938 0.950 . S
H1927 C1939 0.950 . S
C1928 H1920 0.950 . S
C1928 C1929 1.386 . S
C1928 C1930 1.391 . S
C1929 C1928 1.386 . S
C1929 C1933 1.393 . S
C1930 H1922 0.950 . S
C1930 C1928 1.391 . S
C1930 C1931 1.400 . S
C1931 C1930 1.400 . S
C1931 C1932 1.398 . S
C1931 C1937 1.491 . S
C1932 H1923 0.950 . S
C1932 C1931 1.398 . S
C1932 C1933 1.391 . S
C1933 H1921 0.950 . S
C1933 C1929 1.393 . S
C1933 C1932 1.391 . S
C1934 H1924 0.950 . S
C1934 C1935 1.386 . S
C1934 C1936 1.391 . S
C1935 C1934 1.386 . S
C1935 C1939 1.393 . S
C1936 H1925 0.950 . S
C1936 C1934 1.391 . S
C1936 C1937 1.400 . S
C1937 C1931 1.491 . S
C1937 C1936 1.400 . S
C1937 C1938 1.398 . S
C1938 H1926 0.950 . S
C1938 C1937 1.398 . S
C1938 C1939 1.391 . S
C1939 H1927 0.950 . S
C1939 C1935 1.393 . S
C1939 C1938 1.391 . S
H1940 C1948 0.950 . S
H1941 C1953 0.950 . S
H1942 C1950 0.950 . S
H1943 C1952 0.950 . S
H1944 C1954 0.950 . S
H1945 C1956 0.950 . S
H1946 C1958 0.950 . S
H1947 C1959 0.950 . S
C1948 H1940 0.950 . S
C1948 C1949 1.386 . S
C1948 C1950 1.391 . S
C1949 C1948 1.386 . S
C1949 C1953 1.393 . S
C1950 H1942 0.950 . S
C1950 C1948 1.391 . S
C1950 C1951 1.400 . S
C1951 C1950 1.400 . S
C1951 C1952 1.398 . S
C1951 C1957 1.491 . S
C1952 H1943 0.950 . S
C1952 C1951 1.398 . S
C1952 C1953 1.391 . S
C1953 H1941 0.950 . S
C1953 C1949 1.393 . S
C1953 C1952 1.391 . S
C1954 H1944 0.950 . S
C1954 C1955 1.386 . S
C1954 C1956 1.391 . S
C1955 C1954 1.386 . S
C1955 C1959 1.393 . S
C1956 H1945 0.950 . S
C1956 C1954 1.391 . S
C1956 C1957 1.400 . S
C1957 C1951 1.491 . S
C1957 C1956 1.400 . S
C1957 C1958 1.398 . S
C1958 H1946 0.950 . S
C1958 C1957 1.398 . S
C1958 C1959 1.391 . S
C1959 H1947 0.950 . S
C1959 C1955 1.393 . S
C1959 C1958 1.391 . S
H1960 C1968 0.950 . S
H1961 C1973 0.950 . S
H1962 C1970 0.950 . S
H1963 C1972 0.950 . S
H1964 C1974 0.950 . S
H1965 C1976 0.950 . S
H1966 C1978 0.950 . S
H1967 C1979 0.950 . S
C1968 H1960 0.950 . S
C1968 C1969 1.386 . S
C1968 C1970 1.391 . S
C1969 C1968 1.386 . S
C1969 C1973 1.393 . S
C1970 H1962 0.950 . S
C1970 C1968 1.391 . S
C1970 C1971 1.400 . S
C1971 C1970 1.400 . S
C1971 C1972 1.398 . S
C1971 C1977 1.491 . S
C1972 H1963 0.950 . S
C1972 C1971 1.398 . S
C1972 C1973 1.391 . S
C1973 H1961 0.950 . S
C1973 C1969 1.393 . S
C1973 C1972 1.391 . S
C1974 H1964 0.950 . S
C1974 C1975 1.386 . S
C1974 C1976 1.391 . S
C1975 C1974 1.386 . S
C1975 C1979 1.393 . S
C1976 H1965 0.950 . S
C1976 C1974 1.391 . S
C1976 C1977 1.400 . S
C1977 C1971 1.491 . S
C1977 C1976 1.400 . S
C1977 C1978 1.398 . S
C1978 H1966 0.950 . S
C1978 C1977 1.398 . S
C1978 C1979 1.391 . S
C1979 H1967 0.950 . S
C1979 C1975 1.393 . S
C1979 C1978 1.391 . S
H1980 C1988 0.950 . S
H1981 C1993 0.950 . S
H1982 C1990 0.950 . S
H1983 C1992 0.950 . S
H1984 C1994 0.950 . S
H1985 C1996 0.950 . S
H1986 C1998 0.950 . S
H1987 C1999 0.950 . S
C1988 H1980 0.950 . S
C1988 C1989 1.386 . S
C1988 C1990 1.391 . S
C1989 C1988 1.386 . S
C1989 C1993 1.393 . S
C1990 H1982 0.950 . S
C1990 C1988 1.391 . S
C1990 C1991 1.400 . S
C1991 C1990 1.400 . S
C1991 C1992 1.398 . S
C1991 C1997 1.491 . S
C1992 H1983 0.950 . S
C1992 C1991 1.398 . S
C1992 C1993 1.391 . S
C1993 H1981 0.950 . S
C1993 C1989 1.393 . S
C1993 C1992 1.391 . S
C1994 H1984 0.950 . S
C1994 C1995 1.386 . S
C1994 C1996 1.391 . S
C1995 C1994 1.386 . S
C1995 C1999 1.393 . S
C1996 H1985 0.950 . S
C1996 C1994 1.391 . S
C1996 C1997 1.400 . S
C1997 C1991 1.491 . S
C1997 C1996 1.400 . S
C1997 C1998 1.398 . S
C1998 H1986 0.950 . S
C1998 C1997 1.398 . S
C1998 C1999 1.391 . S
C1999 H1987 0.950 . S
C1999 C1995 1.393 . S
C1999 C1998 1.391 . S
H2000 C2008 0.950 . S
H2001 C2013 0.950 . S
H2002 C2010 0.950 . S
H2003 C2012 0.950 . S
H2004 C2014 0.950 . S
H2005 C2016 0.950 . S
H2006 C2018 0.950 . S
H2007 C2019 0.950 . S
C2008 H2000 0.950 . S
C2008 C2009 1.386 . S
C2008 C2010 1.391 . S
C2009 C2008 1.386 . S
C2009 C2013 1.393 . S
C2010 H2002 0.950 . S
C2010 C2008 1.391 . S
C2010 C2011 1.400 . S
C2011 C2010 1.400 . S
C2011 C2012 1.398 . S
C2011 C2017 1.491 . S
C2012 H2003 0.950 . S
C2012 C2011 1.398 . S
C2012 C2013 1.391 . S
C2013 H2001 0.950 . S
C2013 C2009 1.393 . S
C2013 C2012 1.391 . S
C2014 H2004 0.950 . S
C2014 C2015 1.386 . S
C2014 C2016 1.391 . S
C2015 C2014 1.386 . S
C2015 C2019 1.393 . S
C2016 H2005 0.950 . S
C2016 C2014 1.391 . S
C2016 C2017 1.400 . S
C2017 C2011 1.491 . S
C2017 C2016 1.400 . S
C2017 C2018 1.398 . S
C2018 H2006 0.950 . S
C2018 C2017 1.398 . S
C2018 C2019 1.391 . S
C2019 H2007 0.950 . S
C2019 C2015 1.393 . S
C2019 C2018 1.391 . S
H2020 C2028 0.950 . S
H2021 C2033 0.950 . S
H2022 C2030 0.950 . S
H2023 C2032 0.950 . S
H2024 C2034 0.950 . S
H2025 C2036 0.950 . S
H2026 C2038 0.950 . S
H2027 C2039 0.950 . S
C2028 H2020 0.950 . S
C2028 C2029 1.386 . S
C2028 C2030 1.391 . S
C2029 C2028 1.386 . S
C2029 C2033 1.393 . S
C2030 H2022 0.950 . S
C2030 C2028 1.391 . S
C2030 C2031 1.400 . S
C2031 C2030 1.400 . S
C2031 C2032 1.398 . S
C2031 C2037 1.491 . S
C2032 H2023 0.950 . S
C2032 C2031 1.398 . S
C2032 C2033 1.391 . S
C2033 H2021 0.950 . S
C2033 C2029 1.393 . S
C2033 C2032 1.391 . S
C2034 H2024 0.950 . S
C2034 C2035 1.386 . S
C2034 C2036 1.391 . S
C2035 C2034 1.386 . S
C2035 C2039 1.393 . S
C2036 H2025 0.950 . S
C2036 C2034 1.391 . S
C2036 C2037 1.400 . S
C2037 C2031 1.491 . S
C2037 C2036 1.400 . S
C2037 C2038 1.398 . S
C2038 H2026 0.950 . S
C2038 C2037 1.398 . S
C2038 C2039 1.391 . S
C2039 H2027 0.950 . S
C2039 C2035 1.393 . S
C2039 C2038 1.391 . S
H2040 C2048 0.950 . S
H2041 C2053 0.950 . S
H2042 C2050 0.950 . S
H2043 C2052 0.950 . S
H2044 C2054 0.950 . S
H2045 C2056 0.950 . S
H2046 C2058 0.950 . S
H2047 C2059 0.950 . S
C2048 H2040 0.950 . S
C2048 C2049 1.386 . S
C2048 C2050 1.391 . S
C2049 C2048 1.386 . S
C2049 C2053 1.393 . S
C2050 H2042 0.950 . S
C2050 C2048 1.391 . S
C2050 C2051 1.400 . S
C2051 C2050 1.400 . S
C2051 C2052 1.398 . S
C2051 C2057 1.491 . S
C2052 H2043 0.950 . S
C2052 C2051 1.398 . S
C2052 C2053 1.391 . S
C2053 H2041 0.950 . S
C2053 C2049 1.393 . S
C2053 C2052 1.391 . S
C2054 H2044 0.950 . S
C2054 C2055 1.386 . S
C2054 C2056 1.391 . S
C2055 C2054 1.386 . S
C2055 C2059 1.393 . S
C2056 H2045 0.950 . S
C2056 C2054 1.391 . S
C2056 C2057 1.400 . S
C2057 C2051 1.491 . S
C2057 C2056 1.400 . S
C2057 C2058 1.398 . S
C2058 H2046 0.950 . S
C2058 C2057 1.398 . S
C2058 C2059 1.391 . S
C2059 H2047 0.950 . S
C2059 C2055 1.393 . S
C2059 C2058 1.391 . S
H2060 C2068 0.950 . S
H2061 C2073 0.950 . S
H2062 C2070 0.950 . S
H2063 C2072 0.950 . S
H2064 C2074 0.950 . S
H2065 C2076 0.950 . S
H2066 C2078 0.950 . S
H2067 C2079 0.950 . S
C2068 H2060 0.950 . S
C2068 C2069 1.386 . S
C2068 C2070 1.391 . S
C2069 C2068 1.386 . S
C2069 C2073 1.393 . S
C2070 H2062 0.950 . S
C2070 C2068 1.391 . S
C2070 C2071 1.400 . S
C2071 C2070 1.400 . S
C2071 C2072 1.398 . S
C2071 C2077 1.491 . S
C2072 H2063 0.950 . S
C2072 C2071 1.398 . S
C2072 C2073 1.391 . S
C2073 H2061 0.950 . S
C2073 C2069 1.393 . S
C2073 C2072 1.391 . S
C2074 H2064 0.950 . S
C2074 C2075 1.386 . S
C2074 C2076 1.391 . S
C2075 C2074 1.386 . S
C2075 C2079 1.393 . S
C2076 H2065 0.950 . S
C2076 C2074 1.391 . S
C2076 C2077 1.400 . S
C2077 C2071 1.491 . S
C2077 C2076 1.400 . S
C2077 C2078 1.398 . S
C2078 H2066 0.950 . S
C2078 C2077 1.398 . S
C2078 C2079 1.391 . S
C2079 H2067 0.950 . S
C2079 C2075 1.393 . S
C2079 C2078 1.391 . S
H2080 C2088 0.950 . S
H2081 C2093 0.950 . S
H2082 C2090 0.950 . S
H2083 C2092 0.950 . S
H2084 C2094 0.950 . S
H2085 C2096 0.950 . S
H2086 C2098 0.950 . S
H2087 C2099 0.950 . S
C2088 H2080 0.950 . S
C2088 C2089 1.386 . S
C2088 C2090 1.391 . S
C2089 C2088 1.386 . S
C2089 C2093 1.393 . S
C2090 H2082 0.950 . S
C2090 C2088 1.391 . S
C2090 C2091 1.400 . S
C2091 C2090 1.400 . S
C2091 C2092 1.398 . S
C2091 C2097 1.491 . S
C2092 H2083 0.950 . S
C2092 C2091 1.398 . S
C2092 C2093 1.391 . S
C2093 H2081 0.950 . S
C2093 C2089 1.393 . S
C2093 C2092 1.391 . S
C2094 H2084 0.950 . S
C2094 C2095 1.386 . S
C2094 C2096 1.391 . S
C2095 C2094 1.386 . S
C2095 C2099 1.393 . S
C2096 H2085 0.950 . S
C2096 C2094 1.391 . S
C2096 C2097 1.400 . S
C2097 C2091 1.491 . S
C2097 C2096 1.400 . S
C2097 C2098 1.398 . S
C2098 H2086 0.950 . S
C2098 C2097 1.398 . S
C2098 C2099 1.391 . S
C2099 H2087 0.950 . S
C2099 C2095 1.393 . S
C2099 C2098 1.391 . S
H2100 C2108 0.950 . S
H2101 C2113 0.950 . S
H2102 C2110 0.950 . S
H2103 C2112 0.950 . S
H2104 C2114 0.950 . S
H2105 C2116 0.950 . S
H2106 C2118 0.950 . S
H2107 C2119 0.950 . S
C2108 H2100 0.950 . S
C2108 C2109 1.386 . S
C2108 C2110 1.391 . S
C2109 C2108 1.386 . S
C2109 C2113 1.393 . S
C2110 H2102 0.950 . S
C2110 C2108 1.391 . S
C2110 C2111 1.400 . S
C2111 C2110 1.400 . S
C2111 C2112 1.398 . S
C2111 C2117 1.491 . S
C2112 H2103 0.950 . S
C2112 C2111 1.398 . S
C2112 C2113 1.391 . S
C2113 H2101 0.950 . S
C2113 C2109 1.393 . S
C2113 C2112 1.391 . S
C2114 H2104 0.950 . S
C2114 C2115 1.386 . S
C2114 C2116 1.391 . S
C2115 C2114 1.386 . S
C2115 C2119 1.393 . S
C2116 H2105 0.950 . S
C2116 C2114 1.391 . S
C2116 C2117 1.400 . S
C2117 C2111 1.491 . S
C2117 C2116 1.400 . S
C2117 C2118 1.398 . S
C2118 H2106 0.950 . S
C2118 C2117 1.398 . S
C2118 C2119 1.391 . S
C2119 H2107 0.950 . S
C2119 C2115 1.393 . S
C2119 C2118 1.391 . S
H2120 C2128 0.950 . S
H2121 C2133 0.950 . S
H2122 C2130 0.950 . S
H2123 C2132 0.950 . S
H2124 C2134 0.950 . S
H2125 C2136 0.950 . S
H2126 C2138 0.950 . S
H2127 C2139 0.950 . S
C2128 H2120 0.950 . S
C2128 C2129 1.386 . S
C2128 C2130 1.391 . S
C2129 C2128 1.386 . S
C2129 C2133 1.393 . S
C2130 H2122 0.950 . S
C2130 C2128 1.391 . S
C2130 C2131 1.400 . S
C2131 C2130 1.400 . S
C2131 C2132 1.398 . S
C2131 C2137 1.491 . S
C2132 H2123 0.950 . S
C2132 C2131 1.398 . S
C2132 C2133 1.391 . S
C2133 H2121 0.950 . S
C2133 C2129 1.393 . S
C2133 C2132 1.391 . S
C2134 H2124 0.950 . S
C2134 C2135 1.386 . S
C2134 C2136 1.391 . S
C2135 C2134 1.386 . S
C2135 C2139 1.393 . S
C2136 H2125 0.950 . S
C2136 C2134 1.391 . S
C2136 C2137 1.400 . S
C2137 C2131 1.491 . S
C2137 C2136 1.400 . S
C2137 C2138 1.398 . S
C2138 H2126 0.950 . S
C2138 C2137 1.398 . S
C2138 C2139 1.391 . S
C2139 H2127 0.950 . S
C2139 C2135 1.393 . S
C2139 C2138 1.391 . S
H2140 C2148 0.950 . S
H2141 C2153 0.950 . S
H2142 C2150 0.950 . S
H2143 C2152 0.950 . S
H2144 C2154 0.950 . S
H2145 C2156 0.950 . S
H2146 C2158 0.950 . S
H2147 C2159 0.950 . S
C2148 H2140 0.950 . S
C2148 C2149 1.386 . S
C2148 C2150 1.391 . S
C2149 C2148 1.386 . S
C2149 C2153 1.393 . S
C2150 H2142 0.950 . S
C2150 C2148 1.391 . S
C2150 C2151 1.400 . S
C2151 C2150 1.400 . S
C2151 C2152 1.398 . S
C2151 C2157 1.491 . S
C2152 H2143 0.950 . S
C2152 C2151 1.398 . S
C2152 C2153 1.391 . S
C2153 H2141 0.950 . S
C2153 C2149 1.393 . S
C2153 C2152 1.391 . S
C2154 H2144 0.950 . S
C2154 C2155 1.386 . S
C2154 C2156 1.391 . S
C2155 C2154 1.386 . S
C2155 C2159 1.393 . S
C2156 H2145 0.950 . S
C2156 C2154 1.391 . S
C2156 C2157 1.400 . S
C2157 C2151 1.491 . S
C2157 C2156 1.400 . S
C2157 C2158 1.398 . S
C2158 H2146 0.950 . S
C2158 C2157 1.398 . S
C2158 C2159 1.391 . S
C2159 H2147 0.950 . S
C2159 C2155 1.393 . S
C2159 C2158 1.391 . S
H2160 C2168 0.950 . S
H2161 C2173 0.950 . S
H2162 C2170 0.950 . S
H2163 C2172 0.950 . S
H2164 C2174 0.950 . S
H2165 C2176 0.950 . S
H2166 C2178 0.950 . S
H2167 C2179 0.950 . S
C2168 H2160 0.950 . S
C2168 C2169 1.386 . S
C2168 C2170 1.391 . S
C2169 C2168 1.386 . S
C2169 C2173 1.393 . S
C2170 H2162 0.950 . S
C2170 C2168 1.391 . S
C2170 C2171 1.400 . S
C2171 C2170 1.400 . S
C2171 C2172 1.398 . S
C2171 C2177 1.491 . S
C2172 H2163 0.950 . S
C2172 C2171 1.398 . S
C2172 C2173 1.391 . S
C2173 H2161 0.950 . S
C2173 C2169 1.393 . S
C2173 C2172 1.391 . S
C2174 H2164 0.950 . S
C2174 C2175 1.386 . S
C2174 C2176 1.391 . S
C2175 C2174 1.386 . S
C2175 C2179 1.393 . S
C2176 H2165 0.950 . S
C2176 C2174 1.391 . S
C2176 C2177 1.400 . S
C2177 C2171 1.491 . S
C2177 C2176 1.400 . S
C2177 C2178 1.398 . S
C2178 H2166 0.950 . S
C2178 C2177 1.398 . S
C2178 C2179 1.391 . S
C2179 H2167 0.950 . S
C2179 C2175 1.393 . S
C2179 C2178 1.391 . S
H2180 C2188 0.950 . S
H2181 C2193 0.950 . S
H2182 C2190 0.950 . S
H2183 C2192 0.950 . S
H2184 C2194 0.950 . S
H2185 C2196 0.950 . S
H2186 C2198 0.950 . S
H2187 C2199 0.950 . S
C2188 H2180 0.950 . S
C2188 C2189 1.386 . S
C2188 C2190 1.391 . S
C2189 C2188 1.386 . S
C2189 C2193 1.393 . S
C2190 H2182 0.950 . S
C2190 C2188 1.391 . S
C2190 C2191 1.400 . S
C2191 C2190 1.400 . S
C2191 C2192 1.398 . S
C2191 C2197 1.491 . S
C2192 H2183 0.950 . S
C2192 C2191 1.398 . S
C2192 C2193 1.391 . S
C2193 H2181 0.950 . S
C2193 C2189 1.393 . S
C2193 C2192 1.391 . S
C2194 H2184 0.950 . S
C2194 C2195 1.386 . S
C2194 C2196 1.391 . S
C2195 C2194 1.386 . S
C2195 C2199 1.393 . S
C2196 H2185 0.950 . S
C2196 C2194 1.391 . S
C2196 C2197 1.400 . S
C2197 C2191 1.491 . S
C2197 C2196 1.400 . S
C2197 C2198 1.398 . S
C2198 H2186 0.950 . S
C2198 C2197 1.398 . S
C2198 C2199 1.391 . S
C2199 H2187 0.950 . S
C2199 C2195 1.393 . S
C2199 C2198 1.391 . S
H2200 C2208 0.950 . S
H2201 C2213 0.950 . S
H2202 C2210 0.950 . S
H2203 C2212 0.950 . S
H2204 C2214 0.950 . S
H2205 C2216 0.950 . S
H2206 C2218 0.950 . S
H2207 C2219 0.950 . S
C2208 H2200 0.950 . S
C2208 C2209 1.386 . S
C2208 C2210 1.391 . S
C2209 C2208 1.386 . S
C2209 C2213 1.393 . S
C2210 H2202 0.950 . S
C2210 C2208 1.391 . S
C2210 C2211 1.400 . S
C2211 C2210 1.400 . S
C2211 C2212 1.398 . S
C2211 C2217 1.491 . S
C2212 H2203 0.950 . S
C2212 C2211 1.398 . S
C2212 C2213 1.391 . S
C2213 H2201 0.950 . S
C2213 C2209 1.393 . S
C2213 C2212 1.391 . S
C2214 H2204 0.950 . S
C2214 C2215 1.386 . S
C2214 C2216 1.391 . S
C2215 C2214 1.386 . S
C2215 C2219 1.393 . S
C2216 H2205 0.950 . S
C2216 C2214 1.391 . S
C2216 C2217 1.400 . S
C2217 C2211 1.491 . S
C2217 C2216 1.400 . S
C2217 C2218 1.398 . S
C2218 H2206 0.950 . S
C2218 C2217 1.398 . S
C2218 C2219 1.391 . S
C2219 H2207 0.950 . S
C2219 C2215 1.393 . S
C2219 C2218 1.391 . S
H2220 C2228 0.950 . S
H2221 C2233 0.950 . S
H2222 C2230 0.950 . S
H2223 C2232 0.950 . S
H2224 C2234 0.950 . S
H2225 C2236 0.950 . S
H2226 C2238 0.950 . S
H2227 C2239 0.950 . S
C2228 H2220 0.950 . S
C2228 C2229 1.386 . S
C2228 C2230 1.391 . S
C2229 C2228 1.386 . S
C2229 C2233 1.393 . S
C2230 H2222 0.950 . S
C2230 C2228 1.391 . S
C2230 C2231 1.400 . S
C2231 C2230 1.400 . S
C2231 C2232 1.398 . S
C2231 C2237 1.491 . S
C2232 H2223 0.950 . S
C2232 C2231 1.398 . S
C2232 C2233 1.391 . S
C2233 H2221 0.950 . S
C2233 C2229 1.393 . S
C2233 C2232 1.391 . S
C2234 H2224 0.950 . S
C2234 C2235 1.386 . S
C2234 C2236 1.391 . S
C2235 C2234 1.386 . S
C2235 C2239 1.393 . S
C2236 H2225 0.950 . S
C2236 C2234 1.391 . S
C2236 C2237 1.400 . S
C2237 C2231 1.491 . S
C2237 C2236 1.400 . S
C2237 C2238 1.398 . S
C2238 H2226 0.950 . S
C2238 C2237 1.398 . S
C2238 C2239 1.391 . S
C2239 H2227 0.950 . S
C2239 C2235 1.393 . S
C2239 C2238 1.391 . S
H2240 C2248 0.950 . S
H2241 C2253 0.950 . S
H2242 C2250 0.950 . S
H2243 C2252 0.950 . S
H2244 C2254 0.950 . S
H2245 C2256 0.950 . S
H2246 C2258 0.950 . S
H2247 C2259 0.950 . S
C2248 H2240 0.950 . S
C2248 C2249 1.386 . S
C2248 C2250 1.391 . S
C2249 C2248 1.386 . S
C2249 C2253 1.393 . S
C2250 H2242 0.950 . S
C2250 C2248 1.391 . S
C2250 C2251 1.400 . S
C2251 C2250 1.400 . S
C2251 C2252 1.398 . S
C2251 C2257 1.491 . S
C2252 H2243 0.950 . S
C2252 C2251 1.398 . S
C2252 C2253 1.391 . S
C2253 H2241 0.950 . S
C2253 C2249 1.393 . S
C2253 C2252 1.391 . S
C2254 H2244 0.950 . S
C2254 C2255 1.386 . S
C2254 C2256 1.391 . S
C2255 C2254 1.386 . S
C2255 C2259 1.393 . S
C2256 H2245 0.950 . S
C2256 C2254 1.391 . S
C2256 C2257 1.400 . S
C2257 C2251 1.491 . S
C2257 C2256 1.400 . S
C2257 C2258 1.398 . S
C2258 H2246 0.950 . S
C2258 C2257 1.398 . S
C2258 C2259 1.391 . S
C2259 H2247 0.950 . S
C2259 C2255 1.393 . S
C2259 C2258 1.391 . S
H2260 C2268 0.950 . S
H2261 C2273 0.950 . S
H2262 C2270 0.950 . S
H2263 C2272 0.950 . S
H2264 C2274 0.950 . S
H2265 C2276 0.950 . S
H2266 C2278 0.950 . S
H2267 C2279 0.950 . S
C2268 H2260 0.950 . S
C2268 C2269 1.386 . S
C2268 C2270 1.391 . S
C2269 C2268 1.386 . S
C2269 C2273 1.393 . S
C2270 H2262 0.950 . S
C2270 C2268 1.391 . S
C2270 C2271 1.400 . S
C2271 C2270 1.400 . S
C2271 C2272 1.398 . S
C2271 C2277 1.491 . S
C2272 H2263 0.950 . S
C2272 C2271 1.398 . S
C2272 C2273 1.391 . S
C2273 H2261 0.950 . S
C2273 C2269 1.393 . S
C2273 C2272 1.391 . S
C2274 H2264 0.950 . S
C2274 C2275 1.386 . S
C2274 C2276 1.391 . S
C2275 C2274 1.386 . S
C2275 C2279 1.393 . S
C2276 H2265 0.950 . S
C2276 C2274 1.391 . S
C2276 C2277 1.400 . S
C2277 C2271 1.491 . S
C2277 C2276 1.400 . S
C2277 C2278 1.398 . S
C2278 H2266 0.950 . S
C2278 C2277 1.398 . S
C2278 C2279 1.391 . S
C2279 H2267 0.950 . S
C2279 C2275 1.393 . S
C2279 C2278 1.391 . S
H2280 C2288 0.950 . S
H2281 C2293 0.950 . S
H2282 C2290 0.950 . S
H2283 C2292 0.950 . S
H2284 C2294 0.950 . S
H2285 C2296 0.950 . S
H2286 C2298 0.950 . S
H2287 C2299 0.950 . S
C2288 H2280 0.950 . S
C2288 C2289 1.386 . S
C2288 C2290 1.391 . S
C2289 C2288 1.386 . S
C2289 C2293 1.393 . S
C2290 H2282 0.950 . S
C2290 C2288 1.391 . S
C2290 C2291 1.400 . S
C2291 C2290 1.400 . S
C2291 C2292 1.398 . S
C2291 C2297 1.491 . S
C2292 H2283 0.950 . S
C2292 C2291 1.398 . S
C2292 C2293 1.391 . S
C2293 H2281 0.950 . S
C2293 C2289 1.393 . S
C2293 C2292 1.391 . S
C2294 H2284 0.950 . S
C2294 C2295 1.386 . S
C2294 C2296 1.391 . S
C2295 C2294 1.386 . S
C2295 C2299 1.393 . S
C2296 H2285 0.950 . S
C2296 C2294 1.391 . S
C2296 C2297 1.400 . S
C2297 C2291 1.491 . S
C2297 C2296 1.400 . S
C2297 C2298 1.398 . S
C2298 H2286 0.950 . S
C2298 C2297 1.398 . S
C2298 C2299 1.391 . S
C2299 H2287 0.950 . S
C2299 C2295 1.393 . S
C2299 C2298 1.391 . S
H2300 C2308 0.950 . S
H2301 C2313 0.950 . S
H2302 C2310 0.950 . S
H2303 C2312 0.950 . S
H2304 C2314 0.950 . S
H2305 C2316 0.950 . S
H2306 C2318 0.950 . S
H2307 C2319 0.950 . S
C2308 H2300 0.950 . S
C2308 C2309 1.386 . S
C2308 C2310 1.391 . S
C2309 C2308 1.386 . S
C2309 C2313 1.393 . S
C2310 H2302 0.950 . S
C2310 C2308 1.391 . S
C2310 C2311 1.400 . S
C2311 C2310 1.400 . S
C2311 C2312 1.398 . S
C2311 C2317 1.491 . S
C2312 H2303 0.950 . S
C2312 C2311 1.398 . S
C2312 C2313 1.391 . S
C2313 H2301 0.950 . S
C2313 C2309 1.393 . S
C2313 C2312 1.391 . S
C2314 H2304 0.950 . S
C2314 C2315 1.386 . S
C2314 C2316 1.391 . S
C2315 C2314 1.386 . S
C2315 C2319 1.393 . S
C2316 H2305 0.950 . S
C2316 C2314 1.391 . S
C2316 C2317 1.400 . S
C2317 C2311 1.491 . S
C2317 C2316 1.400 . S
C2317 C2318 1.398 . S
C2318 H2306 0.950 . S
C2318 C2317 1.398 . S
C2318 C2319 1.391 . S
C2319 H2307 0.950 . S
C2319 C2315 1.393 . S
C2319 C2318 1.391 . S
H2320 C2328 0.950 . S
H2321 C2333 0.950 . S
H2322 C2330 0.950 . S
H2323 C2332 0.950 . S
H2324 C2334 0.950 . S
H2325 C2336 0.950 . S
H2326 C2338 0.950 . S
H2327 C2339 0.950 . S
C2328 H2320 0.950 . S
C2328 C2329 1.386 . S
C2328 C2330 1.391 . S
C2329 C2328 1.386 . S
C2329 C2333 1.393 . S
C2330 H2322 0.950 . S
C2330 C2328 1.391 . S
C2330 C2331 1.400 . S
C2331 C2330 1.400 . S
C2331 C2332 1.398 . S
C2331 C2337 1.491 . S
C2332 H2323 0.950 . S
C2332 C2331 1.398 . S
C2332 C2333 1.391 . S
C2333 H2321 0.950 . S
C2333 C2329 1.393 . S
C2333 C2332 1.391 . S
C2334 H2324 0.950 . S
C2334 C2335 1.386 . S
C2334 C2336 1.391 . S
C2335 C2334 1.386 . S
C2335 C2339 1.393 . S
C2336 H2325 0.950 . S
C2336 C2334 1.391 . S
C2336 C2337 1.400 . S
C2337 C2331 1.491 . S
C2337 C2336 1.400 . S
C2337 C2338 1.398 . S
C2338 H2326 0.950 . S
C2338 C2337 1.398 . S
C2338 C2339 1.391 . S
C2339 H2327 0.950 . S
C2339 C2335 1.393 . S
C2339 C2338 1.391 . S
H2340 C2348 0.950 . S
H2341 C2353 0.950 . S
H2342 C2350 0.950 . S
H2343 C2352 0.950 . S
H2344 C2354 0.950 . S
H2345 C2356 0.950 . S
H2346 C2358 0.950 . S
H2347 C2359 0.950 . S
C2348 H2340 0.950 . S
C2348 C2349 1.386 . S
C2348 C2350 1.391 . S
C2349 C2348 1.386 . S
C2349 C2353 1.393 . S
C2350 H2342 0.950 . S
C2350 C2348 1.391 . S
C2350 C2351 1.400 . S
C2351 C2350 1.400 . S
C2351 C2352 1.398 . S
C2351 C2357 1.491 . S
C2352 H2343 0.950 . S
C2352 C2351 1.398 . S
C2352 C2353 1.391 . S
C2353 H2341 0.950 . S
C2353 C2349 1.393 . S
C2353 C2352 1.391 . S
C2354 H2344 0.950 . S
C2354 C2355 1.386 . S
C2354 C2356 1.391 . S
C2355 C2354 1.386 . S
C2355 C2359 1.393 . S
C2356 H2345 0.950 . S
C2356 C2354 1.391 . S
C2356 C2357 1.400 . S
C2357 C2351 1.491 . S
C2357 C2356 1.400 . S
C2357 C2358 1.398 . S
C2358 H2346 0.950 . S
C2358 C2357 1.398 . S
C2358 C2359 1.391 . S
C2359 H2347 0.950 . S
C2359 C2355 1.393 . S
C2359 C2358 1.391 . S
H2360 C2368 0.950 . S
H2361 C2373 0.950 . S
H2362 C2370 0.950 . S
H2363 C2372 0.950 . S
H2364 C2374 0.950 . S
H2365 C2376 0.950 . S
H2366 C2378 0.950 . S
H2367 C2379 0.950 . S
C2368 H2360 0.950 . S
C2368 C2369 1.386 . S
C2368 C2370 1.391 . S
C2369 C2368 1.386 . S
C2369 C2373 1.393 . S
C2370 H2362 0.950 . S
C2370 C2368 1.391 . S
C2370 C2371 1.400 . S
C2371 C2370 1.400 . S
C2371 C2372 1.398 . S
C2371 C2377 1.491 . S
C2372 H2363 0.950 . S
C2372 C2371 1.398 . S
C2372 C2373 1.391 . S
C2373 H2361 0.950 . S
C2373 C2369 1.393 . S
C2373 C2372 1.391 . S
C2374 H2364 0.950 . S
C2374 C2375 1.386 . S
C2374 C2376 1.391 . S
C2375 C2374 1.386 . S
C2375 C2379 1.393 . S
C2376 H2365 0.950 . S
C2376 C2374 1.391 . S
C2376 C2377 1.400 . S
C2377 C2371 1.491 . S
C2377 C2376 1.400 . S
C2377 C2378 1.398 . S
C2378 H2366 0.950 . S
C2378 C2377 1.398 . S
C2378 C2379 1.391 . S
C2379 H2367 0.950 . S
C2379 C2375 1.393 . S
C2379 C2378 1.391 . S
H2380 C2388 0.950 . S
H2381 C2393 0.950 . S
H2382 C2390 0.950 . S
H2383 C2392 0.950 . S
H2384 C2394 0.950 . S
H2385 C2396 0.950 . S
H2386 C2398 0.950 . S
H2387 C2399 0.950 . S
C2388 H2380 0.950 . S
C2388 C2389 1.386 . S
C2388 C2390 1.391 . S
C2389 C2388 1.386 . S
C2389 C2393 1.393 . S
C2390 H2382 0.950 . S
C2390 C2388 1.391 . S
C2390 C2391 1.400 . S
C2391 C2390 1.400 . S
C2391 C2392 1.398 . S
C2391 C2397 1.491 . S
C2392 H2383 0.950 . S
C2392 C2391 1.398 . S
C2392 C2393 1.391 . S
C2393 H2381 0.950 . S
C2393 C2389 1.393 . S
C2393 C2392 1.391 . S
C2394 H2384 0.950 . S
C2394 C2395 1.386 . S
C2394 C2396 1.391 . S
C2395 C2394 1.386 . S
C2395 C2399 1.393 . S
C2396 H2385 0.950 . S
C2396 C2394 1.391 . S
C2396 C2397 1.400 . S
C2397 C2391 1.491 . S
C2397 C2396 1.400 . S
C2397 C2398 1.398 . S
C2398 H2386 0.950 . S
C2398 C2397 1.398 . S
C2398 C2399 1.391 . S
C2399 H2387 0.950 . S
C2399 C2395 1.393 . S
C2399 C2398 1.391 . S
H2400 C2408 0.950 . S
H2401 C2413 0.950 . S
H2402 C2410 0.950 . S
H2403 C2412 0.950 . S
H2404 C2414 0.977 . S
H2405 C2416 0.950 . S
H2406 C2418 0.950 . S
H2407 C2419 0.950 . S
C2408 H2400 0.950 . S
C2408 C2409 1.386 1_565 S
C2408 C2410 1.391 . S
C2409 C2408 1.386 1_545 S
C2409 C2413 1.393 . S
C2410 H2402 0.950 . S
C2410 C2408 1.391 . S
C2410 C2411 1.400 . S
C2411 C2410 1.400 . S
C2411 C2412 1.398 1_565 S
C2411 C2417 1.491 . S
C2412 H2403 0.950 . S
C2412 C2411 1.398 1_545 S
C2412 C2413 1.391 . S
C2413 H2401 0.950 . S
C2413 C2409 1.393 . S
C2413 C2412 1.391 . S
C2414 H2404 0.977 . S
C2414 C2415 1.352 1_545 S
C2414 C2416 1.399 . S
C2415 C2414 1.352 1_565 S
C2415 C2419 1.393 . S
C2416 H2405 0.950 . S
C2416 C2414 1.399 . S
C2416 C2417 1.400 1_545 S
C2417 C2411 1.491 . S
C2417 C2416 1.400 1_565 S
C2417 C2418 1.398 . S
C2418 H2406 0.950 . S
C2418 C2417 1.398 . S
C2418 C2419 1.391 . S
C2419 H2407 0.950 . S
C2419 C2415 1.393 . S
C2419 C2418 1.391 . S
H2420 C2428 0.950 . S
H2421 C2433 0.950 . S
H2422 C2430 0.950 . S
H2423 C2432 0.950 . S
H2424 C2434 0.950 . S
H2425 C2436 0.950 . S
H2426 C2438 0.950 . S
H2427 C2439 0.950 . S
C2428 H2420 0.950 . S
C2428 C2429 1.386 . S
C2428 C2430 1.391 . S
C2429 C2428 1.386 . S
C2429 C2433 1.393 . S
C2430 H2422 0.950 . S
C2430 C2428 1.391 . S
C2430 C2431 1.400 . S
C2431 C2430 1.400 . S
C2431 C2432 1.398 . S
C2431 C2437 1.491 . S
C2432 H2423 0.950 . S
C2432 C2431 1.398 . S
C2432 C2433 1.391 . S
C2433 H2421 0.950 . S
C2433 C2429 1.393 . S
C2433 C2432 1.391 . S
C2434 H2424 0.950 . S
C2434 C2435 1.386 . S
C2434 C2436 1.391 . S
C2435 C2434 1.386 . S
C2435 C2439 1.393 . S
C2436 H2425 0.950 . S
C2436 C2434 1.391 . S
C2436 C2437 1.400 . S
C2437 C2431 1.491 . S
C2437 C2436 1.400 . S
C2437 C2438 1.398 . S
C2438 H2426 0.950 . S
C2438 C2437 1.398 . S
C2438 C2439 1.391 . S
C2439 H2427 0.950 . S
C2439 C2435 1.393 . S
C2439 C2438 1.391 . S
H2440 C2448 0.950 . S
H2441 C2453 0.950 . S
H2442 C2450 0.950 . S
H2443 C2452 0.950 . S
H2444 C2454 0.950 . S
H2445 C2456 0.950 . S
H2446 C2458 0.950 . S
H2447 C2459 0.950 . S
C2448 H2440 0.950 . S
C2448 C2449 1.386 . S
C2448 C2450 1.391 . S
C2449 C2448 1.386 . S
C2449 C2453 1.393 . S
C2450 H2442 0.950 . S
C2450 C2448 1.391 . S
C2450 C2451 1.400 . S
C2451 C2450 1.400 . S
C2451 C2452 1.398 . S
C2451 C2457 1.491 . S
C2452 H2443 0.950 . S
C2452 C2451 1.398 . S
C2452 C2453 1.391 . S
C2453 H2441 0.950 . S
C2453 C2449 1.393 . S
C2453 C2452 1.391 . S
C2454 H2444 0.950 . S
C2454 C2455 1.386 . S
C2454 C2456 1.391 . S
C2455 C2454 1.386 . S
C2455 C2459 1.393 . S
C2456 H2445 0.950 . S
C2456 C2454 1.391 . S
C2456 C2457 1.400 . S
C2457 C2451 1.491 . S
C2457 C2456 1.400 . S
C2457 C2458 1.398 . S
C2458 H2446 0.950 . S
C2458 C2457 1.398 . S
C2458 C2459 1.391 . S
C2459 H2447 0.950 . S
C2459 C2455 1.393 . S
C2459 C2458 1.391 . S
H2460 C2468 0.950 . S
H2461 C2473 0.950 . S
H2462 C2470 0.950 . S
H2463 C2472 0.950 . S
H2464 C2474 0.950 . S
H2465 C2476 0.950 . S
H2466 C2478 0.950 . S
H2467 C2479 0.948 . S
C2468 H2460 0.950 . S
C2468 C2469 1.386 . S
C2468 C2470 1.391 . S
C2469 C2468 1.386 . S
C2469 C2473 1.393 1_545 S
C2470 H2462 0.950 . S
C2470 C2468 1.391 . S
C2470 C2471 1.400 1_545 S
C2471 C2470 1.400 1_565 S
C2471 C2472 1.398 . S
C2471 C2477 1.491 . S
C2472 H2463 0.950 . S
C2472 C2471 1.398 . S
C2472 C2473 1.391 . S
C2473 H2461 0.950 . S
C2473 C2469 1.393 1_565 S
C2473 C2472 1.391 . S
C2474 H2464 0.950 . S
C2474 C2475 1.386 . S
C2474 C2476 1.391 . S
C2475 C2474 1.386 . S
C2475 C2479 1.395 1_565 S
C2476 H2465 0.950 . S
C2476 C2474 1.391 . S
C2476 C2477 1.400 . S
C2477 C2471 1.491 . S
C2477 C2476 1.400 . S
C2477 C2478 1.398 1_565 S
C2478 H2466 0.950 . S
C2478 C2477 1.398 1_545 S
C2478 C2479 1.390 . S
C2479 H2467 0.948 . S
C2479 C2475 1.395 1_545 S
C2479 C2478 1.390 . S
H2480 C2488 0.950 . S
H2481 C2493 0.950 . S
H2482 C2490 0.950 . S
H2483 C2492 0.950 . S
H2484 C2494 0.949 1_565 S
H2485 C2496 0.950 . S
H2486 C2498 0.950 . S
H2487 C2499 0.950 . S
C2488 H2480 0.950 . S
C2488 C2489 1.386 1_545 S
C2488 C2490 1.391 . S
C2489 C2488 1.386 1_565 S
C2489 C2493 1.393 . S
C2490 H2482 0.950 . S
C2490 C2488 1.391 . S
C2490 C2491 1.400 . S
C2491 C2490 1.400 . S
C2491 C2492 1.398 1_545 S
C2491 C2497 1.491 . S
C2492 H2483 0.950 . S
C2492 C2491 1.398 1_565 S
C2492 C2493 1.391 . S
C2493 H2481 0.950 . S
C2493 C2489 1.393 . S
C2493 C2492 1.391 . S
C2494 H2484 0.949 1_545 S
C2494 C2495 1.386 . S
C2494 C2496 1.391 1_545 S
C2495 C2494 1.386 . S
C2495 C2499 1.393 . S
C2496 H2485 0.950 . S
C2496 C2494 1.391 1_565 S
C2496 C2497 1.400 1_565 S
C2497 C2491 1.491 . S
C2497 C2496 1.400 1_545 S
C2497 C2498 1.398 . S
C2498 H2486 0.950 . S
C2498 C2497 1.398 . S
C2498 C2499 1.391 . S
C2499 H2487 0.950 . S
C2499 C2495 1.393 . S
C2499 C2498 1.391 . S
H2500 C2508 0.950 . S
H2501 C2513 0.950 . S
H2502 C2510 0.950 . S
H2503 C2512 0.950 . S
H2504 C2514 0.950 . S
H2505 C2516 0.950 . S
H2506 C2518 0.950 . S
H2507 C2519 0.950 . S
C2508 H2500 0.950 . S
C2508 C2509 1.386 . S
C2508 C2510 1.391 . S
C2509 C2508 1.386 . S
C2509 C2513 1.393 . S
C2510 H2502 0.950 . S
C2510 C2508 1.391 . S
C2510 C2511 1.400 . S
C2511 C2510 1.400 . S
C2511 C2512 1.398 . S
C2511 C2517 1.491 . S
C2512 H2503 0.950 . S
C2512 C2511 1.398 . S
C2512 C2513 1.391 . S
C2513 H2501 0.950 . S
C2513 C2509 1.393 . S
C2513 C2512 1.391 . S
C2514 H2504 0.950 . S
C2514 C2515 1.386 . S
C2514 C2516 1.391 . S
C2515 C2514 1.386 . S
C2515 C2519 1.393 . S
C2516 H2505 0.950 . S
C2516 C2514 1.391 . S
C2516 C2517 1.400 . S
C2517 C2511 1.491 . S
C2517 C2516 1.400 . S
C2517 C2518 1.398 . S
C2518 H2506 0.950 . S
C2518 C2517 1.398 . S
C2518 C2519 1.391 . S
C2519 H2507 0.950 . S
C2519 C2515 1.393 . S
C2519 C2518 1.391 . S
H2520 C2528 0.950 . S
H2521 C2533 0.950 . S
H2522 C2530 0.950 . S
H2523 C2532 0.950 . S
H2524 C2534 0.950 . S
H2525 C2536 0.950 . S
H2526 C2538 0.950 . S
H2527 C2539 0.950 . S
C2528 H2520 0.950 . S
C2528 C2529 1.386 . S
C2528 C2530 1.391 . S
C2529 C2528 1.386 . S
C2529 C2533 1.393 . S
C2530 H2522 0.950 . S
C2530 C2528 1.391 . S
C2530 C2531 1.400 . S
C2531 C2530 1.400 . S
C2531 C2532 1.398 . S
C2531 C2537 1.491 . S
C2532 H2523 0.950 . S
C2532 C2531 1.398 . S
C2532 C2533 1.391 . S
C2533 H2521 0.950 . S
C2533 C2529 1.393 . S
C2533 C2532 1.391 . S
C2534 H2524 0.950 . S
C2534 C2535 1.386 . S
C2534 C2536 1.391 . S
C2535 C2534 1.386 . S
C2535 C2539 1.393 . S
C2536 H2525 0.950 . S
C2536 C2534 1.391 . S
C2536 C2537 1.400 . S
C2537 C2531 1.491 . S
C2537 C2536 1.400 . S
C2537 C2538 1.398 . S
C2538 H2526 0.950 . S
C2538 C2537 1.398 . S
C2538 C2539 1.391 . S
C2539 H2527 0.950 . S
C2539 C2535 1.393 . S
C2539 C2538 1.391 . S
H2540 C2548 0.950 . S
H2541 C2553 0.950 . S
H2542 C2550 0.950 . S
H2543 C2552 0.950 . S
H2544 C2554 0.950 . S
H2545 C2556 0.950 . S
H2546 C2558 0.950 . S
H2547 C2559 0.950 . S
C2548 H2540 0.950 . S
C2548 C2549 1.386 1_545 S
C2548 C2550 1.391 . S
C2549 C2548 1.386 1_565 S
C2549 C2553 1.393 . S
C2550 H2542 0.950 . S
C2550 C2548 1.391 . S
C2550 C2551 1.400 . S
C2551 C2550 1.400 . S
C2551 C2552 1.398 1_545 S
C2551 C2557 1.491 . S
C2552 H2543 0.950 . S
C2552 C2551 1.398 1_565 S
C2552 C2553 1.391 . S
C2553 H2541 0.950 . S
C2553 C2549 1.393 . S
C2553 C2552 1.391 . S
C2554 H2544 0.950 . S
C2554 C2555 1.386 1_565 S
C2554 C2556 1.391 . S
C2555 C2554 1.386 1_545 S
C2555 C2559 1.393 . S
C2556 H2545 0.950 . S
C2556 C2554 1.391 . S
C2556 C2557 1.400 1_565 S
C2557 C2551 1.491 . S
C2557 C2556 1.400 1_545 S
C2557 C2558 1.398 . S
C2558 H2546 0.950 . S
C2558 C2557 1.398 . S
C2558 C2559 1.391 . S
C2559 H2547 0.950 . S
C2559 C2555 1.393 . S
C2559 C2558 1.391 . S
H2560 C2568 0.950 . S
H2561 C2573 0.950 . S
H2562 C2570 0.950 . S
H2563 C2572 0.950 . S
H2564 C2574 0.950 . S
H2565 C2576 0.950 . S
H2566 C2578 0.950 . S
H2567 C2579 0.950 . S
C2568 H2560 0.950 . S
C2568 C2569 1.386 . S
C2568 C2570 1.391 . S
C2569 C2568 1.386 . S
C2569 C2573 1.393 . S
C2570 H2562 0.950 . S
C2570 C2568 1.391 . S
C2570 C2571 1.400 . S
C2571 C2570 1.400 . S
C2571 C2572 1.398 . S
C2571 C2577 1.491 . S
C2572 H2563 0.950 . S
C2572 C2571 1.398 . S
C2572 C2573 1.391 . S
C2573 H2561 0.950 . S
C2573 C2569 1.393 . S
C2573 C2572 1.391 . S
C2574 H2564 0.950 . S
C2574 C2575 1.386 . S
C2574 C2576 1.391 . S
C2575 C2574 1.386 . S
C2575 C2579 1.393 . S
C2576 H2565 0.950 . S
C2576 C2574 1.391 . S
C2576 C2577 1.400 1_655 S
C2577 C2571 1.491 . S
C2577 C2576 1.400 1_455 S
C2577 C2578 1.398 1_455 S
C2578 H2566 0.950 . S
C2578 C2577 1.398 1_655 S
C2578 C2579 1.391 . S
C2579 H2567 0.950 . S
C2579 C2575 1.393 . S
C2579 C2578 1.391 . S
H2580 C2588 0.950 . S
H2581 C2593 0.950 . S
H2582 C2590 0.950 . S
H2583 C2592 0.950 . S
H2584 C2594 0.950 . S
H2585 C2596 0.950 . S
H2586 C2598 0.950 . S
H2587 C2599 0.950 . S
C2588 H2580 0.950 . S
C2588 C2589 1.386 . S
C2588 C2590 1.391 . S
C2589 C2588 1.386 . S
C2589 C2593 1.393 . S
C2590 H2582 0.950 . S
C2590 C2588 1.391 . S
C2590 C2591 1.400 . S
C2591 C2590 1.400 . S
C2591 C2592 1.398 . S
C2591 C2597 1.491 . S
C2592 H2583 0.950 . S
C2592 C2591 1.398 . S
C2592 C2593 1.391 . S
C2593 H2581 0.950 . S
C2593 C2589 1.393 . S
C2593 C2592 1.391 . S
C2594 H2584 0.950 . S
C2594 C2595 1.386 . S
C2594 C2596 1.391 . S
C2595 C2594 1.386 . S
C2595 C2599 1.393 . S
C2596 H2585 0.950 . S
C2596 C2594 1.391 . S
C2596 C2597 1.400 . S
C2597 C2591 1.491 . S
C2597 C2596 1.400 . S
C2597 C2598 1.398 . S
C2598 H2586 0.950 . S
C2598 C2597 1.398 . S
C2598 C2599 1.391 . S
C2599 H2587 0.950 . S
C2599 C2595 1.393 . S
C2599 C2598 1.391 . S
H2600 C2608 0.950 . S
H2601 C2613 0.950 . S
H2602 C2610 0.950 . S
H2603 C2612 0.950 . S
H2604 C2614 0.950 . S
H2605 C2616 0.950 . S
H2606 C2618 0.950 . S
H2607 C2619 0.950 . S
C2608 H2600 0.950 . S
C2608 C2609 1.386 . S
C2608 C2610 1.391 . S
C2609 C2608 1.386 . S
C2609 C2613 1.393 . S
C2610 H2602 0.950 . S
C2610 C2608 1.391 . S
C2610 C2611 1.400 1_655 S
C2611 C2610 1.400 1_455 S
C2611 C2612 1.398 1_455 S
C2611 C2617 1.491 . S
C2612 H2603 0.950 . S
C2612 C2611 1.398 1_655 S
C2612 C2613 1.391 . S
C2613 H2601 0.950 . S
C2613 C2609 1.393 . S
C2613 C2612 1.391 . S
C2614 H2604 0.950 . S
C2614 C2615 1.386 . S
C2614 C2616 1.391 . S
C2615 C2614 1.386 . S
C2615 C2619 1.393 . S
C2616 H2605 0.950 . S
C2616 C2614 1.391 . S
C2616 C2617 1.400 . S
C2617 C2611 1.491 . S
C2617 C2616 1.400 . S
C2617 C2618 1.398 . S
C2618 H2606 0.950 . S
C2618 C2617 1.398 . S
C2618 C2619 1.391 . S
C2619 H2607 0.950 . S
C2619 C2615 1.393 . S
C2619 C2618 1.391 . S
H2620 C2628 0.950 . S
H2621 C2633 0.950 . S
H2622 C2630 0.950 . S
H2623 C2632 0.950 . S
H2624 C2634 0.950 . S
H2625 C2636 0.950 . S
H2626 C2638 0.950 . S
H2627 C2639 0.950 . S
C2628 H2620 0.950 . S
C2628 C2629 1.386 . S
C2628 C2630 1.391 . S
C2629 C2628 1.386 . S
C2629 C2633 1.393 . S
C2630 H2622 0.950 . S
C2630 C2628 1.391 . S
C2630 C2631 1.400 . S
C2631 C2630 1.400 . S
C2631 C2632 1.398 . S
C2631 C2637 1.491 . S
C2632 H2623 0.950 . S
C2632 C2631 1.398 . S
C2632 C2633 1.391 . S
C2633 H2621 0.950 . S
C2633 C2629 1.393 . S
C2633 C2632 1.391 . S
C2634 H2624 0.950 . S
C2634 C2635 1.386 . S
C2634 C2636 1.391 . S
C2635 C2634 1.386 . S
C2635 C2639 1.393 . S
C2636 H2625 0.950 . S
C2636 C2634 1.391 . S
C2636 C2637 1.400 . S
C2637 C2631 1.491 . S
C2637 C2636 1.400 . S
C2637 C2638 1.398 . S
C2638 H2626 0.950 . S
C2638 C2637 1.398 . S
C2638 C2639 1.391 . S
C2639 H2627 0.950 . S
C2639 C2635 1.393 . S
C2639 C2638 1.391 . S
H2640 C2648 0.950 . S
H2641 C2653 0.950 . S
H2642 C2650 0.950 . S
H2643 C2652 0.950 . S
H2644 C2654 0.950 . S
H2645 C2656 0.950 1_655 S
H2646 C2658 0.950 . S
H2647 C2659 0.950 . S
C2648 H2640 0.950 . S
C2648 C2649 1.386 . S
C2648 C2650 1.391 . S
C2649 C2648 1.386 . S
C2649 C2653 1.393 . S
C2650 H2642 0.950 . S
C2650 C2648 1.391 . S
C2650 C2651 1.400 . S
C2651 C2650 1.400 . S
C2651 C2652 1.398 . S
C2651 C2657 1.491 . S
C2652 H2643 0.950 . S
C2652 C2651 1.398 . S
C2652 C2653 1.391 . S
C2653 H2641 0.950 . S
C2653 C2649 1.393 . S
C2653 C2652 1.391 . S
C2654 H2644 0.950 . S
C2654 C2655 1.386 . S
C2654 C2656 1.391 . S
C2655 C2654 1.386 . S
C2655 C2659 1.393 . S
C2656 H2645 0.950 1_455 S
C2656 C2654 1.391 . S
C2656 C2657 1.400 1_455 S
C2657 C2651 1.491 . S
C2657 C2656 1.400 1_655 S
C2657 C2658 1.398 1_655 S
C2658 H2646 0.950 . S
C2658 C2657 1.398 1_455 S
C2658 C2659 1.391 . S
C2659 H2647 0.950 . S
C2659 C2655 1.393 . S
C2659 C2658 1.391 . S
H2660 C2668 0.950 . S
H2661 C2673 0.950 . S
H2662 C2670 0.950 . S
H2663 C2672 0.950 . S
H2664 C2674 0.950 . S
H2665 C2676 0.950 . S
H2666 C2678 0.950 . S
H2667 C2679 0.950 . S
C2668 H2660 0.950 . S
C2668 C2669 1.386 . S
C2668 C2670 1.391 . S
C2669 C2668 1.386 . S
C2669 C2673 1.393 . S
C2670 H2662 0.950 . S
C2670 C2668 1.391 . S
C2670 C2671 1.400 . S
C2671 C2670 1.400 . S
C2671 C2672 1.398 . S
C2671 C2677 1.491 . S
C2672 H2663 0.950 . S
C2672 C2671 1.398 . S
C2672 C2673 1.391 . S
C2673 H2661 0.950 . S
C2673 C2669 1.393 . S
C2673 C2672 1.391 . S
C2674 H2664 0.950 . S
C2674 C2675 1.386 . S
C2674 C2676 1.391 . S
C2675 C2674 1.386 . S
C2675 C2679 1.393 . S
C2676 H2665 0.950 . S
C2676 C2674 1.391 . S
C2676 C2677 1.400 . S
C2677 C2671 1.491 . S
C2677 C2676 1.400 . S
C2677 C2678 1.398 . S
C2678 H2666 0.950 . S
C2678 C2677 1.398 . S
C2678 C2679 1.391 . S
C2679 H2667 0.950 . S
C2679 C2675 1.393 . S
C2679 C2678 1.391 . S
H2680 C2688 0.950 . S
H2681 C2693 0.950 . S
H2682 C2690 0.947 1_655 S
H2683 C2692 0.950 . S
H2684 C2694 0.950 . S
H2685 C2696 0.950 . S
H2686 C2698 0.950 . S
H2687 C2699 0.950 . S
C2688 H2680 0.950 . S
C2688 C2689 1.386 . S
C2688 C2690 1.391 . S
C2689 C2688 1.386 . S
C2689 C2693 1.393 . S
C2690 H2682 0.947 1_455 S
C2690 C2688 1.391 . S
C2690 C2691 1.400 1_455 S
C2691 C2690 1.400 1_655 S
C2691 C2692 1.398 1_655 S
C2691 C2697 1.491 . S
C2692 H2683 0.950 . S
C2692 C2691 1.398 1_455 S
C2692 C2693 1.391 . S
C2693 H2681 0.950 . S
C2693 C2689 1.393 . S
C2693 C2692 1.391 . S
C2694 H2684 0.950 . S
C2694 C2695 1.386 . S
C2694 C2696 1.391 . S
C2695 C2694 1.386 . S
C2695 C2699 1.393 . S
C2696 H2685 0.950 . S
C2696 C2694 1.391 . S
C2696 C2697 1.400 . S
C2697 C2691 1.491 . S
C2697 C2696 1.400 . S
C2697 C2698 1.398 . S
C2698 H2686 0.950 . S
C2698 C2697 1.398 . S
C2698 C2699 1.391 . S
C2699 H2687 0.950 . S
C2699 C2695 1.393 . S
C2699 C2698 1.391 . S
H2700 C2708 0.950 . S
H2701 C2713 0.950 . S
H2702 C2710 0.950 . S
H2703 C2712 0.950 . S
H2704 C2714 0.950 . S
H2705 C2716 0.950 . S
H2706 C2718 0.950 . S
H2707 C2719 0.950 . S
C2708 H2700 0.950 . S
C2708 C2709 1.386 . S
C2708 C2710 1.391 . S
C2709 C2708 1.386 . S
C2709 C2713 1.393 . S
C2710 H2702 0.950 . S
C2710 C2708 1.391 . S
C2710 C2711 1.400 . S
C2711 C2710 1.400 . S
C2711 C2712 1.398 . S
C2711 C2717 1.491 . S
C2712 H2703 0.950 . S
C2712 C2711 1.398 . S
C2712 C2713 1.391 . S
C2713 H2701 0.950 . S
C2713 C2709 1.393 . S
C2713 C2712 1.391 . S
C2714 H2704 0.950 . S
C2714 C2715 1.386 . S
C2714 C2716 1.391 . S
C2715 C2714 1.386 . S
C2715 C2719 1.393 . S
C2716 H2705 0.950 . S
C2716 C2714 1.391 . S
C2716 C2717 1.400 . S
C2717 C2711 1.491 . S
C2717 C2716 1.400 . S
C2717 C2718 1.398 . S
C2718 H2706 0.950 . S
C2718 C2717 1.398 . S
C2718 C2719 1.391 . S
C2719 H2707 0.950 . S
C2719 C2715 1.393 . S
C2719 C2718 1.391 . S
H2720 C2728 0.950 . S
H2721 C2733 0.950 . S
H2722 C2730 0.950 1_455 S
H2723 C2732 0.950 . S
H2724 C2734 0.950 . S
H2725 C2736 0.950 . S
H2726 C2738 0.950 . S
H2727 C2739 0.950 1_545 S
C2728 H2720 0.950 . S
C2728 C2729 1.386 . S
C2728 C2730 1.391 . S
C2729 C2728 1.386 . S
C2729 C2733 1.393 1_545 S
C2730 H2722 0.950 1_655 S
C2730 C2728 1.391 . S
C2730 C2731 1.400 1_645 S
C2731 C2730 1.400 1_465 S
C2731 C2732 1.398 1_455 S
C2731 C2737 1.491 . S
C2732 H2723 0.950 . S
C2732 C2731 1.398 1_655 S
C2732 C2733 1.391 . S
C2733 H2721 0.950 . S
C2733 C2729 1.393 1_565 S
C2733 C2732 1.391 . S
C2734 H2724 0.950 . S
C2734 C2735 1.386 . S
C2734 C2736 1.391 . S
C2735 C2734 1.386 . S
C2735 C2739 1.393 . S
C2736 H2725 0.950 . S
C2736 C2734 1.391 . S
C2736 C2737 1.400 . S
C2737 C2731 1.491 . S
C2737 C2736 1.400 . S
C2737 C2738 1.398 1_565 S
C2738 H2726 0.950 . S
C2738 C2737 1.398 1_545 S
C2738 C2739 1.391 1_545 S
C2739 H2727 0.950 1_565 S
C2739 C2735 1.393 . S
C2739 C2738 1.391 1_565 S
H2740 C2748 0.950 . S
H2741 C2753 0.950 . S
H2742 C2750 0.950 . S
H2743 C2752 0.950 . S
H2744 C2754 0.950 . S
H2745 C2756 0.950 . S
H2746 C2758 0.950 . S
H2747 C2759 0.950 . S
C2748 H2740 0.950 . S
C2748 C2749 1.386 . S
C2748 C2750 1.391 . S
C2749 C2748 1.386 . S
C2749 C2753 1.393 . S
C2750 H2742 0.950 . S
C2750 C2748 1.391 . S
C2750 C2751 1.400 . S
C2751 C2750 1.400 . S
C2751 C2752 1.398 . S
C2751 C2757 1.491 . S
C2752 H2743 0.950 . S
C2752 C2751 1.398 . S
C2752 C2753 1.391 . S
C2753 H2741 0.950 . S
C2753 C2749 1.393 . S
C2753 C2752 1.391 . S
C2754 H2744 0.950 . S
C2754 C2755 1.386 . S
C2754 C2756 1.391 . S
C2755 C2754 1.386 . S
C2755 C2759 1.393 . S
C2756 H2745 0.950 . S
C2756 C2754 1.391 . S
C2756 C2757 1.400 . S
C2757 C2751 1.491 . S
C2757 C2756 1.400 . S
C2757 C2758 1.398 . S
C2758 H2746 0.950 . S
C2758 C2757 1.398 . S
C2758 C2759 1.391 . S
C2759 H2747 0.950 . S
C2759 C2755 1.393 . S
C2759 C2758 1.391 . S
H2760 C2768 0.950 . S
H2761 C2773 0.950 . S
H2762 C2770 0.950 1_455 S
H2763 C2772 0.950 . S
H2764 C2774 0.950 . S
H2765 C2776 0.950 . S
H2766 C2778 0.950 . S
H2767 C2779 0.950 . S
C2768 H2760 0.950 . S
C2768 C2769 1.386 . S
C2768 C2770 1.391 . S
C2769 C2768 1.386 . S
C2769 C2773 1.393 . S
C2770 H2762 0.950 1_655 S
C2770 C2768 1.391 . S
C2770 C2771 1.400 1_655 S
C2771 C2770 1.400 1_455 S
C2771 C2772 1.398 1_455 S
C2771 C2777 1.491 . S
C2772 H2763 0.950 . S
C2772 C2771 1.398 1_655 S
C2772 C2773 1.391 . S
C2773 H2761 0.950 . S
C2773 C2769 1.393 . S
C2773 C2772 1.391 . S
C2774 H2764 0.950 . S
C2774 C2775 1.386 . S
C2774 C2776 1.391 . S
C2775 C2774 1.386 . S
C2775 C2779 1.393 . S
C2776 H2765 0.950 . S
C2776 C2774 1.391 . S
C2776 C2777 1.400 . S
C2777 C2771 1.491 . S
C2777 C2776 1.400 . S
C2777 C2778 1.398 . S
C2778 H2766 0.950 . S
C2778 C2777 1.398 . S
C2778 C2779 1.391 . S
C2779 H2767 0.950 . S
C2779 C2775 1.393 . S
C2779 C2778 1.391 . S
H2780 C2788 0.950 . S
H2781 C2793 0.950 . S
H2782 C2790 0.950 . S
H2783 C2792 0.950 . S
H2784 C2794 0.936 1_545 S
H2785 C2796 0.950 1_545 S
H2786 C2798 0.950 . S
H2787 C2799 0.950 . S
C2788 H2780 0.950 . S
C2788 C2789 1.370 1_565 S
C2788 C2790 1.391 . S
C2789 C2788 1.370 1_545 S
C2789 C2793 1.403 . S
C2790 H2782 0.950 . S
C2790 C2788 1.391 . S
C2790 C2791 1.400 . S
C2791 C2790 1.400 . S
C2791 C2792 1.398 1_565 S
C2791 C2797 1.491 . S
C2792 H2783 0.950 . S
C2792 C2791 1.398 1_545 S
C2792 C2793 1.391 . S
C2793 H2781 0.950 . S
C2793 C2789 1.403 . S
C2793 C2792 1.391 . S
C2794 H2784 0.936 1_565 S
C2794 C2795 1.386 . S
C2794 C2796 1.391 . S
C2795 C2794 1.386 . S
C2795 C2799 1.393 . S
C2796 H2785 0.950 1_565 S
C2796 C2794 1.391 . S
C2796 C2797 1.400 . S
C2797 C2791 1.491 . S
C2797 C2796 1.400 . S
C2797 C2798 1.398 . S
C2798 H2786 0.950 . S
C2798 C2797 1.398 . S
C2798 C2799 1.391 . S
C2799 H2787 0.950 . S
C2799 C2795 1.393 . S
C2799 C2798 1.391 . S
H2800 C2808 0.950 . S
H2801 C2813 0.939 1_565 S
H2802 C2810 0.950 . S
H2803 C2812 0.950 . S
H2804 C2814 0.950 . S
H2805 C2816 0.949 . S
H2806 C2818 0.950 . S
H2807 C2819 0.950 . S
C2808 H2800 0.950 . S
C2808 C2809 1.386 . S
C2808 C2810 1.391 . S
C2809 C2808 1.386 . S
C2809 C2813 1.406 . S
C2810 H2802 0.950 . S
C2810 C2808 1.391 . S
C2810 C2811 1.400 . S
C2811 C2810 1.400 . S
C2811 C2812 1.398 1_545 S
C2811 C2817 1.491 . S
C2812 H2803 0.950 . S
C2812 C2811 1.398 1_565 S
C2812 C2813 1.388 1_565 S
C2813 H2801 0.939 1_545 S
C2813 C2809 1.406 . S
C2813 C2812 1.388 1_545 S
C2814 H2804 0.950 . S
C2814 C2815 1.403 . S
C2814 C2816 1.391 . S
C2815 C2814 1.403 . S
C2815 C2819 1.371 1_565 S
C2816 H2805 0.949 . S
C2816 C2814 1.391 . S
C2816 C2817 1.400 1_465 S
C2817 C2811 1.491 . S
C2817 C2816 1.400 1_645 S
C2817 C2818 1.398 1_655 S
C2818 H2806 0.950 . S
C2818 C2817 1.398 1_455 S
C2818 C2819 1.391 . S
C2819 H2807 0.950 . S
C2819 C2815 1.371 1_545 S
C2819 C2818 1.391 . S
H2820 C2828 0.950 . S
H2821 C2833 0.950 . S
H2822 C2830 0.950 . S
H2823 C2832 0.950 . S
H2824 C2834 0.950 . S
H2825 C2836 0.950 . S
H2826 C2838 0.950 . S
H2827 C2839 0.950 . S
C2828 H2820 0.950 . S
C2828 C2829 1.386 . S
C2828 C2830 1.391 . S
C2829 C2828 1.386 . S
C2829 C2833 1.393 . S
C2830 H2822 0.950 . S
C2830 C2828 1.391 . S
C2830 C2831 1.400 . S
C2831 C2830 1.400 . S
C2831 C2832 1.398 . S
C2831 C2837 1.491 . S
C2832 H2823 0.950 . S
C2832 C2831 1.398 . S
C2832 C2833 1.391 . S
C2833 H2821 0.950 . S
C2833 C2829 1.393 . S
C2833 C2832 1.391 . S
C2834 H2824 0.950 . S
C2834 C2835 1.386 . S
C2834 C2836 1.391 . S
C2835 C2834 1.386 . S
C2835 C2839 1.393 . S
C2836 H2825 0.950 . S
C2836 C2834 1.391 . S
C2836 C2837 1.400 . S
C2837 C2831 1.491 . S
C2837 C2836 1.400 . S
C2837 C2838 1.398 . S
C2838 H2826 0.950 . S
C2838 C2837 1.398 . S
C2838 C2839 1.391 . S
C2839 H2827 0.950 . S
C2839 C2835 1.393 . S
C2839 C2838 1.391 . S
H2840 C2848 0.950 . S
H2841 C2853 0.950 . S
H2842 C2850 0.950 . S
H2843 C2852 0.950 1_655 S
H2844 C2854 0.950 . S
H2845 C2856 0.950 . S
H2846 C2858 0.950 . S
H2847 C2859 0.950 . S
C2848 H2840 0.950 . S
C2848 C2849 1.386 . S
C2848 C2850 1.391 . S
C2849 C2848 1.386 . S
C2849 C2853 1.393 . S
C2850 H2842 0.950 . S
C2850 C2848 1.391 . S
C2850 C2851 1.400 1_455 S
C2851 C2850 1.400 1_655 S
C2851 C2852 1.398 1_655 S
C2851 C2857 1.491 . S
C2852 H2843 0.950 1_455 S
C2852 C2851 1.398 1_455 S
C2852 C2853 1.391 . S
C2853 H2841 0.950 . S
C2853 C2849 1.393 . S
C2853 C2852 1.391 . S
C2854 H2844 0.950 . S
C2854 C2855 1.386 . S
C2854 C2856 1.391 . S
C2855 C2854 1.386 . S
C2855 C2859 1.393 . S
C2856 H2845 0.950 . S
C2856 C2854 1.391 . S
C2856 C2857 1.400 . S
C2857 C2851 1.491 . S
C2857 C2856 1.400 . S
C2857 C2858 1.398 . S
C2858 H2846 0.950 . S
C2858 C2857 1.398 . S
C2858 C2859 1.391 . S
C2859 H2847 0.950 . S
C2859 C2855 1.393 . S
C2859 C2858 1.391 . S
H2860 C2868 0.950 . S
H2861 C2873 0.950 . S
H2862 C2870 0.950 . S
H2863 C2872 0.950 . S
H2864 C2874 0.950 . S
H2865 C2876 0.950 . S
H2866 C2878 0.950 . S
H2867 C2879 0.950 . S
C2868 H2860 0.950 . S
C2868 C2869 1.386 1_545 S
C2868 C2870 1.391 . S
C2869 C2868 1.386 1_565 S
C2869 C2873 1.393 . S
C2870 H2862 0.950 . S
C2870 C2868 1.391 . S
C2870 C2871 1.400 . S
C2871 C2870 1.400 . S
C2871 C2872 1.398 1_545 S
C2871 C2877 1.491 . S
C2872 H2863 0.950 . S
C2872 C2871 1.398 1_565 S
C2872 C2873 1.391 . S
C2873 H2861 0.950 . S
C2873 C2869 1.393 . S
C2873 C2872 1.391 . S
C2874 H2864 0.950 . S
C2874 C2875 1.386 . S
C2874 C2876 1.391 . S
C2875 C2874 1.386 . S
C2875 C2879 1.393 . S
C2876 H2865 0.950 . S
C2876 C2874 1.391 . S
C2876 C2877 1.400 . S
C2877 C2871 1.491 . S
C2877 C2876 1.400 . S
C2877 C2878 1.398 . S
C2878 H2866 0.950 . S
C2878 C2877 1.398 . S
C2878 C2879 1.391 . S
C2879 H2867 0.950 . S
C2879 C2875 1.393 . S
C2879 C2878 1.391 . S
H2880 C2888 0.950 . S
H2881 C2893 0.950 . S
H2882 C2890 0.950 . S
H2883 C2892 0.950 . S
H2884 C2894 0.950 . S
H2885 C2896 0.950 . S
H2886 C2898 0.950 . S
H2887 C2899 0.950 . S
C2888 H2880 0.950 . S
C2888 C2889 1.386 . S
C2888 C2890 1.391 . S
C2889 C2888 1.386 . S
C2889 C2893 1.393 1_455 S
C2890 H2882 0.950 . S
C2890 C2888 1.391 . S
C2890 C2891 1.400 . S
C2891 C2890 1.400 . S
C2891 C2892 1.398 1_455 S
C2891 C2897 1.491 1_454 S
C2892 H2883 0.950 . S
C2892 C2891 1.398 1_655 S
C2892 C2893 1.391 . S
C2893 H2881 0.950 . S
C2893 C2889 1.393 1_655 S
C2893 C2892 1.391 . S
C2894 H2884 0.950 . S
C2894 C2895 1.386 . S
C2894 C2896 1.391 . S
C2895 C2894 1.386 . S
C2895 C2899 1.393 1_655 S
C2896 H2885 0.950 . S
C2896 C2894 1.391 . S
C2896 C2897 1.400 . S
C2897 C2891 1.491 1_656 S
C2897 C2896 1.400 . S
C2897 C2898 1.398 1_655 S
C2898 H2886 0.950 . S
C2898 C2897 1.398 1_455 S
C2898 C2899 1.391 . S
C2899 H2887 0.950 . S
C2899 C2895 1.393 1_455 S
C2899 C2898 1.391 . S
H2900 C2908 0.950 . S
H2901 C2913 0.950 . S
H2902 C2910 0.950 . S
H2903 C2912 0.950 . S
H2904 C2914 0.950 . S
H2905 C2916 0.950 . S
H2906 C2918 0.950 . S
H2907 C2919 0.950 . S
C2908 H2900 0.950 . S
C2908 C2909 1.386 . S
C2908 C2910 1.391 . S
C2909 C2908 1.386 . S
C2909 C2913 1.393 . S
C2910 H2902 0.950 . S
C2910 C2908 1.391 . S
C2910 C2911 1.400 . S
C2911 C2910 1.400 . S
C2911 C2912 1.398 . S
C2911 C2917 1.491 1_556 S
C2912 H2903 0.950 . S
C2912 C2911 1.398 . S
C2912 C2913 1.391 . S
C2913 H2901 0.950 . S
C2913 C2909 1.393 . S
C2913 C2912 1.391 . S
C2914 H2904 0.950 . S
C2914 C2915 1.386 . S
C2914 C2916 1.391 . S
C2915 C2914 1.386 . S
C2915 C2919 1.393 . S
C2916 H2905 0.950 . S
C2916 C2914 1.391 . S
C2916 C2917 1.400 . S
C2917 C2911 1.491 1_554 S
C2917 C2916 1.400 . S
C2917 C2918 1.398 . S
C2918 H2906 0.950 . S
C2918 C2917 1.398 . S
C2918 C2919 1.391 . S
C2919 H2907 0.950 . S
C2919 C2915 1.393 . S
C2919 C2918 1.391 . S
H2920 C2928 0.950 . S
H2921 C2933 0.950 . S
H2922 C2930 0.950 . S
H2923 C2932 0.950 . S
H2924 C2934 0.950 . S
H2925 C2936 0.950 . S
H2926 C2938 0.950 . S
H2927 C2939 0.950 . S
C2928 H2920 0.950 . S
C2928 C2929 1.386 1_455 S
C2928 C2930 1.391 . S
C2929 C2928 1.386 1_655 S
C2929 C2933 1.393 . S
C2930 H2922 0.950 . S
C2930 C2928 1.391 . S
C2930 C2931 1.400 1_455 S
C2931 C2930 1.400 1_655 S
C2931 C2932 1.398 . S
C2931 C2937 1.491 1_655 S
C2932 H2923 0.950 . S
C2932 C2931 1.398 . S
C2932 C2933 1.391 . S
C2933 H2921 0.950 . S
C2933 C2929 1.393 . S
C2933 C2932 1.391 . S
C2934 H2924 0.950 . S
C2934 C2935 1.386 1_655 S
C2934 C2936 1.391 . S
C2935 C2934 1.386 1_455 S
C2935 C2939 1.393 . S
C2936 H2925 0.950 . S
C2936 C2934 1.391 . S
C2936 C2937 1.400 1_655 S
C2937 C2931 1.491 1_455 S
C2937 C2936 1.400 1_455 S
C2937 C2938 1.398 . S
C2938 H2926 0.950 . S
C2938 C2937 1.398 . S
C2938 C2939 1.391 . S
C2939 H2927 0.950 . S
C2939 C2935 1.393 . S
C2939 C2938 1.391 . S
H2940 C2948 0.950 . S
H2941 C2953 0.950 . S
H2942 C2950 0.950 . S
H2943 C2952 0.950 . S
H2944 C2954 0.950 . S
H2945 C2956 0.950 . S
H2946 C2958 0.950 . S
H2947 C2959 0.950 . S
C2948 H2940 0.950 . S
C2948 C2949 1.386 . S
C2948 C2950 1.391 . S
C2949 C2948 1.386 . S
C2949 C2953 1.393 . S
C2950 H2942 0.950 . S
C2950 C2948 1.391 . S
C2950 C2951 1.400 . S
C2951 C2950 1.400 . S
C2951 C2952 1.398 . S
C2951 C2957 1.491 . S
C2952 H2943 0.950 . S
C2952 C2951 1.398 . S
C2952 C2953 1.391 . S
C2953 H2941 0.950 . S
C2953 C2949 1.393 . S
C2953 C2952 1.391 . S
C2954 H2944 0.950 . S
C2954 C2955 1.386 . S
C2954 C2956 1.391 . S
C2955 C2954 1.386 . S
C2955 C2959 1.393 . S
C2956 H2945 0.950 . S
C2956 C2954 1.391 . S
C2956 C2957 1.400 . S
C2957 C2951 1.491 . S
C2957 C2956 1.400 . S
C2957 C2958 1.398 . S
C2958 H2946 0.950 . S
C2958 C2957 1.398 . S
C2958 C2959 1.391 . S
C2959 H2947 0.950 . S
C2959 C2955 1.393 . S
C2959 C2958 1.391 . S
H2960 C2968 0.950 . S
H2961 C2973 0.950 . S
H2962 C2970 0.950 . S
H2963 C2972 0.950 . S
H2964 C2974 0.950 . S
H2965 C2976 0.950 . S
H2966 C2978 0.950 . S
H2967 C2979 0.950 . S
C2968 H2960 0.950 . S
C2968 C2969 1.386 . S
C2968 C2970 1.391 . S
C2969 C2968 1.386 . S
C2969 C2973 1.393 . S
C2970 H2962 0.950 . S
C2970 C2968 1.391 . S
C2970 C2971 1.400 . S
C2971 C2970 1.400 . S
C2971 C2972 1.398 . S
C2971 C2977 1.491 1_556 S
C2972 H2963 0.950 . S
C2972 C2971 1.398 . S
C2972 C2973 1.391 . S
C2973 H2961 0.950 . S
C2973 C2969 1.393 . S
C2973 C2972 1.391 . S
C2974 H2964 0.950 . S
C2974 C2975 1.386 . S
C2974 C2976 1.391 . S
C2975 C2974 1.386 . S
C2975 C2979 1.393 . S
C2976 H2965 0.950 . S
C2976 C2974 1.391 . S
C2976 C2977 1.400 . S
C2977 C2971 1.491 1_554 S
C2977 C2976 1.400 . S
C2977 C2978 1.398 . S
C2978 H2966 0.950 . S
C2978 C2977 1.398 . S
C2978 C2979 1.391 . S
C2979 H2967 0.950 . S
C2979 C2975 1.393 . S
C2979 C2978 1.391 . S
H2980 C2988 0.950 . S
H2981 C2993 0.950 . S
H2982 C2990 0.950 . S
H2983 C2992 0.950 . S
H2984 C2994 0.950 . S
H2985 C2996 0.950 . S
H2986 C2998 0.950 . S
H2987 C2999 0.950 . S
C2988 H2980 0.950 . S
C2988 C2989 1.386 1_455 S
C2988 C2990 1.391 . S
C2989 C2988 1.386 1_655 S
C2989 C2993 1.393 . S
C2990 H2982 0.950 . S
C2990 C2988 1.391 . S
C2990 C2991 1.400 1_455 S
C2991 C2990 1.400 1_655 S
C2991 C2992 1.398 . S
C2991 C2997 1.491 1_655 S
C2992 H2983 0.950 . S
C2992 C2991 1.398 . S
C2992 C2993 1.391 . S
C2993 H2981 0.950 . S
C2993 C2989 1.393 . S
C2993 C2992 1.391 . S
C2994 H2984 0.950 . S
C2994 C2995 1.386 1_655 S
C2994 C2996 1.391 . S
C2995 C2994 1.386 1_455 S
C2995 C2999 1.393 . S
C2996 H2985 0.950 . S
C2996 C2994 1.391 . S
C2996 C2997 1.400 1_655 S
C2997 C2991 1.491 1_455 S
C2997 C2996 1.400 1_455 S
C2997 C2998 1.398 . S
C2998 H2986 0.950 . S
C2998 C2997 1.398 . S
C2998 C2999 1.391 . S
C2999 H2987 0.950 . S
C2999 C2995 1.393 . S
C2999 C2998 1.391 . S
H3000 C3008 0.950 . S
H3001 C3013 0.950 . S
H3002 C3010 0.950 . S
H3003 C3012 0.950 . S
H3004 C3014 0.950 . S
H3005 C3016 0.950 . S
H3006 C3018 0.950 . S
H3007 C3019 0.950 . S
C3008 H3000 0.950 . S
C3008 C3009 1.386 . S
C3008 C3010 1.391 . S
C3009 C3008 1.386 . S
C3009 C3013 1.393 . S
C3010 H3002 0.950 . S
C3010 C3008 1.391 . S
C3010 C3011 1.400 . S
C3011 C3010 1.400 . S
C3011 C3012 1.398 . S
C3011 C3017 1.491 . S
C3012 H3003 0.950 . S
C3012 C3011 1.398 . S
C3012 C3013 1.391 . S
C3013 H3001 0.950 . S
C3013 C3009 1.393 . S
C3013 C3012 1.391 . S
C3014 H3004 0.950 . S
C3014 C3015 1.386 . S
C3014 C3016 1.391 . S
C3015 C3014 1.386 . S
C3015 C3019 1.393 . S
C3016 H3005 0.950 . S
C3016 C3014 1.391 . S
C3016 C3017 1.400 . S
C3017 C3011 1.491 . S
C3017 C3016 1.400 . S
C3017 C3018 1.398 . S
C3018 H3006 0.950 . S
C3018 C3017 1.398 . S
C3018 C3019 1.391 . S
C3019 H3007 0.950 . S
C3019 C3015 1.393 . S
C3019 C3018 1.391 . S
H3020 C3028 0.950 . S
H3021 C3033 0.950 . S
H3022 C3030 0.950 . S
H3023 C3032 0.950 . S
H3024 C3034 0.950 . S
H3025 C3036 0.950 . S
H3026 C3038 0.950 . S
H3027 C3039 0.950 . S
C3028 H3020 0.950 . S
C3028 C3029 1.386 1_655 S
C3028 C3030 1.391 . S
C3029 C3028 1.386 1_455 S
C3029 C3033 1.393 1_565 S
C3030 H3022 0.950 . S
C3030 C3028 1.391 . S
C3030 C3031 1.403 1_655 S
C3031 C3030 1.403 1_455 S
C3031 C3032 1.396 1_565 S
C3031 C3037 1.490 1_465 S
C3032 H3023 0.950 . S
C3032 C3031 1.396 1_545 S
C3032 C3033 1.391 . S
C3033 H3021 0.950 . S
C3033 C3029 1.393 1_545 S
C3033 C3032 1.391 . S
C3034 H3024 0.950 . S
C3034 C3035 1.386 1_455 S
C3034 C3036 1.391 . S
C3035 C3034 1.386 1_655 S
C3035 C3039 1.393 1_545 S
C3036 H3025 0.950 . S
C3036 C3034 1.391 . S
C3036 C3037 1.403 1_455 S
C3037 C3031 1.490 1_645 S
C3037 C3036 1.403 1_655 S
C3037 C3038 1.396 1_545 S
C3038 H3026 0.950 . S
C3038 C3037 1.396 1_565 S
C3038 C3039 1.391 . S
C3039 H3027 0.950 . S
C3039 C3035 1.393 1_565 S
C3039 C3038 1.391 . S
H3040 C3048 0.950 . S
H3041 C3053 0.950 . S
H3042 C3050 0.950 . S
H3043 C3052 0.950 . S
H3044 C3054 0.950 . S
H3045 C3056 0.950 . S
H3046 C3058 0.950 . S
H3047 C3059 0.950 . S
C3048 H3040 0.950 . S
C3048 C3049 1.386 . S
C3048 C3050 1.391 . S
C3049 C3048 1.386 . S
C3049 C3053 1.393 . S
C3050 H3042 0.950 . S
C3050 C3048 1.391 . S
C3050 C3051 1.400 . S
C3051 C3050 1.400 . S
C3051 C3052 1.398 . S
C3051 C3057 1.491 . S
C3052 H3043 0.950 . S
C3052 C3051 1.398 . S
C3052 C3053 1.391 . S
C3053 H3041 0.950 . S
C3053 C3049 1.393 . S
C3053 C3052 1.391 . S
C3054 H3044 0.950 . S
C3054 C3055 1.386 . S
C3054 C3056 1.391 . S
C3055 C3054 1.386 . S
C3055 C3059 1.393 . S
C3056 H3045 0.950 . S
C3056 C3054 1.391 . S
C3056 C3057 1.400 . S
C3057 C3051 1.491 . S
C3057 C3056 1.400 . S
C3057 C3058 1.398 . S
C3058 H3046 0.950 . S
C3058 C3057 1.398 . S
C3058 C3059 1.391 . S
C3059 H3047 0.950 . S
C3059 C3055 1.393 . S
C3059 C3058 1.391 . S
H3060 C3068 0.950 . S
H3061 C3073 0.950 . S
H3062 C3070 0.950 . S
H3063 C3072 0.950 . S
H3064 C3074 0.950 . S
H3065 C3076 0.950 . S
H3066 C3078 0.950 . S
H3067 C3079 0.950 . S
C3068 H3060 0.950 . S
C3068 C3069 1.386 . S
C3068 C3070 1.391 . S
C3069 C3068 1.386 . S
C3069 C3073 1.393 1_545 S
C3070 H3062 0.950 . S
C3070 C3068 1.391 . S
C3070 C3071 1.400 . S
C3071 C3070 1.400 . S
C3071 C3072 1.398 1_545 S
C3071 C3077 1.491 1_545 S
C3072 H3063 0.950 . S
C3072 C3071 1.398 1_565 S
C3072 C3073 1.391 . S
C3073 H3061 0.950 . S
C3073 C3069 1.393 1_565 S
C3073 C3072 1.391 . S
C3074 H3064 0.950 . S
C3074 C3075 1.386 . S
C3074 C3076 1.391 . S
C3075 C3074 1.386 . S
C3075 C3079 1.393 1_565 S
C3076 H3065 0.950 . S
C3076 C3074 1.391 . S
C3076 C3077 1.400 . S
C3077 C3071 1.491 1_565 S
C3077 C3076 1.400 . S
C3077 C3078 1.398 1_565 S
C3078 H3066 0.950 . S
C3078 C3077 1.398 1_545 S
C3078 C3079 1.391 . S
C3079 H3067 0.950 . S
C3079 C3075 1.393 1_545 S
C3079 C3078 1.391 . S
H3080 C3088 0.950 . S
H3081 C3093 0.950 . S
H3082 C3090 0.950 . S
H3083 C3092 0.950 . S
H3084 C3094 0.950 . S
H3085 C3096 0.950 . S
H3086 C3098 0.950 . S
H3087 C3099 0.950 . S
C3088 H3080 0.950 . S
C3088 C3089 1.386 . S
C3088 C3090 1.391 . S
C3089 C3088 1.386 . S
C3089 C3093 1.393 . S
C3090 H3082 0.950 . S
C3090 C3088 1.391 . S
C3090 C3091 1.400 . S
C3091 C3090 1.400 . S
C3091 C3092 1.398 . S
C3091 C3097 1.491 . S
C3092 H3083 0.950 . S
C3092 C3091 1.398 . S
C3092 C3093 1.391 . S
C3093 H3081 0.950 . S
C3093 C3089 1.393 . S
C3093 C3092 1.391 . S
C3094 H3084 0.950 . S
C3094 C3095 1.386 . S
C3094 C3096 1.391 . S
C3095 C3094 1.386 . S
C3095 C3099 1.393 . S
C3096 H3085 0.950 . S
C3096 C3094 1.391 . S
C3096 C3097 1.400 . S
C3097 C3091 1.491 . S
C3097 C3096 1.400 . S
C3097 C3098 1.398 . S
C3098 H3086 0.950 . S
C3098 C3097 1.398 . S
C3098 C3099 1.391 . S
C3099 H3087 0.950 . S
C3099 C3095 1.393 . S
C3099 C3098 1.391 . S
H3100 C3108 0.950 . S
H3101 C3113 0.950 . S
H3102 C3110 0.949 1_545 S
H3103 C3112 0.949 1_545 S
H3104 C3114 0.950 . S
H3105 C3116 0.949 1_565 S
H3106 C3118 0.949 1_565 S
H3107 C3119 0.950 . S
C3108 H3100 0.950 . S
C3108 C3109 1.386 . S
C3108 C3110 1.392 . S
C3109 C3108 1.386 . S
C3109 C3113 1.393 . S
C3110 H3102 0.949 1_565 S
C3110 C3108 1.392 . S
C3110 C3111 1.400 . S
C3111 C3110 1.400 . S
C3111 C3112 1.398 . S
C3111 C3117 1.490 1_565 S
C3112 H3103 0.949 1_565 S
C3112 C3111 1.398 . S
C3112 C3113 1.393 . S
C3113 H3101 0.950 . S
C3113 C3109 1.393 . S
C3113 C3112 1.393 . S
C3114 H3104 0.950 . S
C3114 C3115 1.386 . S
C3114 C3116 1.392 . S
C3115 C3114 1.386 . S
C3115 C3119 1.393 . S
C3116 H3105 0.949 1_545 S
C3116 C3114 1.392 . S
C3116 C3117 1.400 . S
C3117 C3111 1.490 1_545 S
C3117 C3116 1.400 . S
C3117 C3118 1.398 . S
C3118 H3106 0.949 1_545 S
C3118 C3117 1.398 . S
C3118 C3119 1.393 . S
C3119 H3107 0.950 . S
C3119 C3115 1.393 . S
C3119 C3118 1.393 . S
H3120 C3128 0.950 . S
H3121 C3133 0.950 . S
H3122 C3130 0.950 . S
H3123 C3132 0.950 . S
H3124 C3134 0.950 . S
H3125 C3136 0.950 . S
H3126 C3138 0.950 . S
H3127 C3139 0.950 . S
C3128 H3120 0.950 . S
C3128 C3129 1.386 . S
C3128 C3130 1.391 . S
C3129 C3128 1.386 . S
C3129 C3133 1.393 . S
C3130 H3122 0.950 . S
C3130 C3128 1.391 . S
C3130 C3131 1.400 . S
C3131 C3130 1.400 . S
C3131 C3132 1.398 . S
C3131 C3137 1.491 . S
C3132 H3123 0.950 . S
C3132 C3131 1.398 . S
C3132 C3133 1.391 . S
C3133 H3121 0.950 . S
C3133 C3129 1.393 . S
C3133 C3132 1.391 . S
C3134 H3124 0.950 . S
C3134 C3135 1.386 . S
C3134 C3136 1.391 . S
C3135 C3134 1.386 . S
C3135 C3139 1.393 . S
C3136 H3125 0.950 . S
C3136 C3134 1.391 . S
C3136 C3137 1.400 . S
C3137 C3131 1.491 . S
C3137 C3136 1.400 . S
C3137 C3138 1.398 . S
C3138 H3126 0.950 . S
C3138 C3137 1.398 . S
C3138 C3139 1.391 . S
C3139 H3127 0.950 . S
C3139 C3135 1.393 . S
C3139 C3138 1.391 . S
H3140 C3148 0.950 . S
H3141 C3153 0.950 . S
H3142 C3150 0.950 . S
H3143 C3152 0.950 . S
H3144 C3154 0.950 . S
H3145 C3156 0.950 . S
H3146 C3158 0.950 . S
H3147 C3159 0.950 . S
C3148 H3140 0.950 . S
C3148 C3149 1.386 . S
C3148 C3150 1.391 . S
C3149 C3148 1.386 . S
C3149 C3153 1.393 . S
C3150 H3142 0.950 . S
C3150 C3148 1.391 . S
C3150 C3151 1.400 . S
C3151 C3150 1.400 . S
C3151 C3152 1.398 . S
C3151 C3157 1.491 . S
C3152 H3143 0.950 . S
C3152 C3151 1.398 . S
C3152 C3153 1.391 . S
C3153 H3141 0.950 . S
C3153 C3149 1.393 . S
C3153 C3152 1.391 . S
C3154 H3144 0.950 . S
C3154 C3155 1.386 . S
C3154 C3156 1.391 . S
C3155 C3154 1.386 . S
C3155 C3159 1.393 . S
C3156 H3145 0.950 . S
C3156 C3154 1.391 . S
C3156 C3157 1.400 . S
C3157 C3151 1.491 . S
C3157 C3156 1.400 . S
C3157 C3158 1.398 . S
C3158 H3146 0.950 . S
C3158 C3157 1.398 . S
C3158 C3159 1.391 . S
C3159 H3147 0.950 . S
C3159 C3155 1.393 . S
C3159 C3158 1.391 . S
H3160 C3168 0.950 . S
H3161 C3173 0.950 . S
H3162 C3170 0.950 . S
H3163 C3172 0.950 . S
H3164 C3174 0.950 . S
H3165 C3176 0.950 . S
H3166 C3178 0.950 . S
H3167 C3179 0.950 . S
C3168 H3160 0.950 . S
C3168 C3169 1.386 . S
C3168 C3170 1.391 . S
C3169 C3168 1.386 . S
C3169 C3173 1.393 . S
C3170 H3162 0.950 . S
C3170 C3168 1.391 . S
C3170 C3171 1.400 . S
C3171 C3170 1.400 . S
C3171 C3172 1.398 . S
C3171 C3177 1.491 . S
C3172 H3163 0.950 . S
C3172 C3171 1.398 . S
C3172 C3173 1.391 . S
C3173 H3161 0.950 . S
C3173 C3169 1.393 . S
C3173 C3172 1.391 . S
C3174 H3164 0.950 . S
C3174 C3175 1.386 . S
C3174 C3176 1.391 . S
C3175 C3174 1.386 . S
C3175 C3179 1.393 . S
C3176 H3165 0.950 . S
C3176 C3174 1.391 . S
C3176 C3177 1.400 . S
C3177 C3171 1.491 . S
C3177 C3176 1.400 . S
C3177 C3178 1.398 . S
C3178 H3166 0.950 . S
C3178 C3177 1.398 . S
C3178 C3179 1.391 . S
C3179 H3167 0.950 . S
C3179 C3175 1.393 . S
C3179 C3178 1.391 . S
H3180 C3188 0.950 . S
H3181 C3193 0.950 . S
H3182 C3190 0.950 . S
H3183 C3192 0.950 . S
H3184 C3194 0.950 . S
H3185 C3196 0.950 . S
H3186 C3198 0.950 . S
H3187 C3199 0.950 . S
C3188 H3180 0.950 . S
C3188 C3189 1.386 . S
C3188 C3190 1.391 . S
C3189 C3188 1.386 . S
C3189 C3193 1.393 1_565 S
C3190 H3182 0.950 . S
C3190 C3188 1.391 . S
C3190 C3191 1.434 . S
C3191 C3190 1.434 . S
C3191 C3192 1.369 1_565 S
C3191 C3197 1.487 1_564 S
C3192 H3183 0.950 . S
C3192 C3191 1.369 1_545 S
C3192 C3193 1.391 . S
C3193 H3181 0.950 . S
C3193 C3189 1.393 1_545 S
C3193 C3192 1.391 . S
C3194 H3184 0.950 . S
C3194 C3195 1.386 . S
C3194 C3196 1.391 . S
C3195 C3194 1.386 . S
C3195 C3199 1.393 1_545 S
C3196 H3185 0.950 . S
C3196 C3194 1.391 . S
C3196 C3197 1.434 . S
C3197 C3191 1.487 1_546 S
C3197 C3196 1.434 . S
C3197 C3198 1.369 1_545 S
C3198 H3186 0.950 . S
C3198 C3197 1.369 1_565 S
C3198 C3199 1.391 . S
C3199 H3187 0.950 . S
C3199 C3195 1.393 1_565 S
C3199 C3198 1.391 . S
C1289 C19 1.538 . S
C1295 C1019 1.530 . S
C1309 C979 1.533 . S
C1315 C59 1.534 . S
C1329 C1099 1.536 . S
C1335 C99 1.531 . S
C1349 C139 1.537 . S
C1355 C1059 1.531 . S
C1369 C169 1.535 . S
C1375 C1169 1.532 . S
C1389 C209 1.536 . S
C1395 C1129 1.531 . S
C1409 C249 1.536 . S
C1415 C1249 1.531 . S
C1429 C1209 1.530 . S
C1435 C289 1.537 . S
C1449 C339 1.538 . S
C1455 C699 1.530 . S
C1469 C379 1.530 . S
C1475 C659 1.537 . S
C1489 C419 1.530 . S
C1495 C779 1.538 . S
C1509 C739 1.530 . S
C1515 C459 1.537 . S
C1529 C489 1.538 . S
C1535 C849 1.530 . S
C1549 C529 1.530 . S
C1555 C809 1.538 . S
C1569 C929 1.530 . S
C1575 C569 1.538 . S
C1589 C609 1.531 . S
C1595 C889 1.537 . S
C1609 C18 1.584 . S
C1615 C138 1.586 . S
C1629 C58 1.589 . S
C1635 C98 1.592 . S
C1649 C288 1.595 . S
C1655 C168 1.585 . S
C1669 C248 1.584 . S
C1675 C208 1.587 . S
C1689 C338 1.594 . S
C1695 C458 1.579 . S
C1709 C378 1.594 . S
C1715 C418 1.579 . S
C1729 C488 1.596 . S
C1735 C608 1.579 . S
C1749 C568 1.583 . S
C1755 C528 1.596 . S
C1769 C658 1.579 . S
C1775 C778 1.593 . S
C1789 C698 1.581 . S
C1795 C738 1.590 . S
C1809 C928 1.595 . S
C1815 C808 1.579 . S
C1829 C848 1.583 . S
C1835 C888 1.596 . S
C1849 C1098 1.579 . S
C1855 C978 1.595 . S
C1869 C1018 1.579 . S
C1875 C1058 1.595 . S
C1889 C1248 1.597 . S
C1895 C1128 1.580 . S
C1909 C1208 1.592 . S
C1915 C1168 1.580 . S
C1929 C49 1.622 . S
C1935 C9 1.630 . S
C1949 C89 1.617 . S
C1955 C129 1.618 . S
C1969 C219 1.628 . S
C1975 C179 1.620 . S
C1989 C299 1.617 . S
C1995 C259 1.620 . S
C2009 C329 1.638 . S
C2015 C369 1.634 . S
C2029 C409 1.617 . S
C2035 C449 1.620 . S
C2049 C539 1.622 . S
C2055 C499 1.617 . S
C2069 C579 1.631 . S
C2075 C619 1.623 . S
C2089 C649 1.633 . S
C2095 C689 1.625 . S
C2109 C769 1.617 . S
C2115 C729 1.618 . S
C2129 C819 1.623 . S
C2135 C859 1.631 . S
C2149 C899 1.627 . S
C2155 C939 1.620 . S
C2169 C969 1.632 . S
C2175 C1009 1.624 . S
C2189 C1049 1.621 . S
C2195 C1089 1.628 . S
C2209 C1179 1.621 . S
C2215 C1139 1.628 . S
C2229 C1219 1.625 . S
C2235 C1259 1.632 . S
C2249 C15 1.591 . S
C2255 C5 1.591 . S
C2269 C55 1.586 . S
C2275 C45 1.586 . S
C2289 C95 1.586 . S
C2295 C85 1.586 . S
C2309 C125 1.584 . S
C2315 C135 1.584 . S
C2329 C175 1.584 . S
C2335 C165 1.584 . S
C2349 C205 1.580 . S
C2355 C215 1.580 . S
C2369 C255 1.580 . S
C2375 C245 1.580 . S
C2389 C295 1.589 . S
C2395 C285 1.589 . S
C2409 C325 1.590 . S
C2415 C335 1.590 . S
C2429 C375 1.589 . S
C2435 C365 1.589 . S
C2449 C415 1.588 . S
C2455 C405 1.588 . S
C2469 C445 1.587 . S
C2475 C455 1.587 . S
C2489 C495 1.589 . S
C2495 C485 1.589 . S
C2509 C525 1.589 . S
C2515 C535 1.589 . S
C2529 C565 1.590 . S
C2535 C575 1.590 . S
C2549 C615 1.587 . S
C2555 C605 1.587 . S
C2569 C655 1.591 . S
C2575 C645 1.591 . S
C2589 C685 1.582 . S
C2595 C695 1.582 . S
C2609 C725 1.580 . S
C2615 C735 1.580 . S
C2629 C775 1.581 . S
C2635 C765 1.581 . S
C2649 C805 1.584 . S
C2655 C815 1.584 . S
C2669 C845 1.583 . S
C2675 C855 1.583 . S
C2689 C895 1.590 . S
C2695 C885 1.590 . S
C2709 C925 1.583 . S
C2715 C935 1.583 . S
C2729 C965 1.588 . S
C2735 C975 1.588 . S
C2749 C1015 1.582 . S
C2755 C1005 1.582 . S
C2769 C1045 1.590 . S
C2775 C1055 1.590 . S
C2789 C1085 1.585 . S
C2795 C1095 1.582 . S
C2809 C1125 1.581 . S
C2815 C1135 1.583 . S
C2829 C1165 1.591 . S
C2835 C1175 1.591 . S
C2849 C1215 1.586 . S
C2855 C1205 1.586 . S
C2869 C1255 1.591 . S
C2875 C1245 1.591 . S
C2889 C8 1.472 . S
C2895 C178 1.472 . S
C2909 C1178 1.478 . S
C2915 C48 1.478 . S
C2929 C578 1.470 . S
C2935 C88 1.470 . S
C2949 C128 1.482 . S
C2955 C938 1.482 . S
C2969 C218 1.482 . S
C2975 C1008 1.482 . S
C2989 C258 1.463 . S
C2995 C408 1.463 . S
C3009 C298 1.487 . S
C3015 C768 1.487 . S
C3029 C328 1.483 . S
C3035 C498 1.483 . S
C3049 C858 1.473 . S
C3055 C368 1.473 . S
C3069 C1258 1.461 . S
C3075 C448 1.461 . S
C3089 C538 1.464 . S
C3095 C688 1.464 . S
C3109 C1088 1.480 . S
C3115 C618 1.480 . S
C3129 C648 1.465 . S
C3135 C818 1.465 . S
C3149 C1218 1.460 . S
C3155 C728 1.460 . S
C3169 C898 1.474 . S
C3175 C1048 1.474 . S
C3189 C968 1.479 . S
C3195 C1138 1.479 . S
