# Generated by pormake.
# Topology uoy, (4)-cn, num edge types: 1
# Building blocks:
#     Node 0, Type 0, BuildingBlock: ICAMEG_clean_sbu_1, # of connection points: 4
#     Node 1, Type 0, BuildingBlock: ICAMEG_clean_sbu_1, # of connection points: 4
#     Node 2, Type 0, BuildingBlock: ICAMEG_clean_sbu_1, # of connection points: 4
#     Node 3, Type 0, BuildingBlock: ICAMEG_clean_sbu_1, # of connection points: 4
#     Node 4, Type 0, BuildingBlock: ICAMEG_clean_sbu_1, # of connection points: 4
#     Node 5, Type 0, BuildingBlock: ICAMEG_clean_sbu_1, # of connection points: 4
#     Node 6, Type 0, BuildingBlock: ICAMEG_clean_sbu_1, # of connection points: 4
#     Node 7, Type 0, BuildingBlock: ICAMEG_clean_sbu_1, # of connection points: 4
#     Node 8, Type 0, BuildingBlock: ICAMEG_clean_sbu_1, # of connection points: 4
#     Node 9, Type 0, BuildingBlock: ICAMEG_clean_sbu_1, # of connection points: 4
#     Node 10, Type 0, BuildingBlock: ICAMEG_clean_sbu_1, # of connection points: 4
#     Node 11, Type 0, BuildingBlock: ICAMEG_clean_sbu_1, # of connection points: 4
#     Node 12, Type 0, BuildingBlock: ICAMEG_clean_sbu_1, # of connection points: 4
#     Node 13, Type 0, BuildingBlock: ICAMEG_clean_sbu_1, # of connection points: 4
#     Node 14, Type 0, BuildingBlock: ICAMEG_clean_sbu_1, # of connection points: 4
#     Node 15, Type 0, BuildingBlock: ICAMEG_clean_sbu_1, # of connection points: 4
#     Edge 16, Type (0, 0), BuildingBlock: MIFKUJ_clean_linker_0, # of connection points: 2
#     Edge 17, Type (0, 0), BuildingBlock: MIFKUJ_clean_linker_0, # of connection points: 2
#     Edge 18, Type (0, 0), BuildingBlock: MIFKUJ_clean_linker_0, # of connection points: 2
#     Edge 19, Type (0, 0), BuildingBlock: MIFKUJ_clean_linker_0, # of connection points: 2
#     Edge 20, Type (0, 0), BuildingBlock: MIFKUJ_clean_linker_0, # of connection points: 2
#     Edge 21, Type (0, 0), BuildingBlock: MIFKUJ_clean_linker_0, # of connection points: 2
#     Edge 22, Type (0, 0), BuildingBlock: MIFKUJ_clean_linker_0, # of connection points: 2
#     Edge 23, Type (0, 0), BuildingBlock: MIFKUJ_clean_linker_0, # of connection points: 2
#     Edge 24, Type (0, 0), BuildingBlock: MIFKUJ_clean_linker_0, # of connection points: 2
#     Edge 25, Type (0, 0), BuildingBlock: MIFKUJ_clean_linker_0, # of connection points: 2
#     Edge 26, Type (0, 0), BuildingBlock: MIFKUJ_clean_linker_0, # of connection points: 2
#     Edge 27, Type (0, 0), BuildingBlock: MIFKUJ_clean_linker_0, # of connection points: 2
#     Edge 28, Type (0, 0), BuildingBlock: MIFKUJ_clean_linker_0, # of connection points: 2
#     Edge 29, Type (0, 0), BuildingBlock: MIFKUJ_clean_linker_0, # of connection points: 2
#     Edge 30, Type (0, 0), BuildingBlock: MIFKUJ_clean_linker_0, # of connection points: 2
#     Edge 31, Type (0, 0), BuildingBlock: MIFKUJ_clean_linker_0, # of connection points: 2
#     Edge 32, Type (0, 0), BuildingBlock: MIFKUJ_clean_linker_0, # of connection points: 2
#     Edge 33, Type (0, 0), BuildingBlock: MIFKUJ_clean_linker_0, # of connection points: 2
#     Edge 34, Type (0, 0), BuildingBlock: MIFKUJ_clean_linker_0, # of connection points: 2
#     Edge 35, Type (0, 0), BuildingBlock: MIFKUJ_clean_linker_0, # of connection points: 2
#     Edge 36, Type (0, 0), BuildingBlock: MIFKUJ_clean_linker_0, # of connection points: 2
#     Edge 37, Type (0, 0), BuildingBlock: MIFKUJ_clean_linker_0, # of connection points: 2
#     Edge 38, Type (0, 0), BuildingBlock: MIFKUJ_clean_linker_0, # of connection points: 2
#     Edge 39, Type (0, 0), BuildingBlock: MIFKUJ_clean_linker_0, # of connection points: 2
#     Edge 40, Type (0, 0), BuildingBlock: MIFKUJ_clean_linker_0, # of connection points: 2
#     Edge 41, Type (0, 0), BuildingBlock: MIFKUJ_clean_linker_0, # of connection points: 2
#     Edge 42, Type (0, 0), BuildingBlock: MIFKUJ_clean_linker_0, # of connection points: 2
#     Edge 43, Type (0, 0), BuildingBlock: MIFKUJ_clean_linker_0, # of connection points: 2
#     Edge 44, Type (0, 0), BuildingBlock: MIFKUJ_clean_linker_0, # of connection points: 2
#     Edge 45, Type (0, 0), BuildingBlock: MIFKUJ_clean_linker_0, # of connection points: 2
#     Edge 46, Type (0, 0), BuildingBlock: MIFKUJ_clean_linker_0, # of connection points: 2
#     Edge 47, Type (0, 0), BuildingBlock: MIFKUJ_clean_linker_0, # of connection points: 2
# Relax obj value: 0.022
# Max RMSD: 0.077
# Mean RMSD: 0.077
data_MOF--net-uoy--node1-ICAMEG_clean_sbu_1--edge1-MIFKUJ_clean_linker_0
_symmetry_space_group_name_H-M    P1
_symmetry_Int_Tables_number       1
_symmetry_cell_setting            triclinic
loop_
_symmetry_equiv_pos_as_xyz
'x, y, z'
_cell_length_a     37.177954
_cell_length_b     37.174645
_cell_length_c     149.5874
_cell_angle_alpha  89.951593
_cell_angle_beta   90.019043
_cell_angle_gamma 89.992833
loop_
_atom_site_label
_atom_site_type_symbol
_atom_site_fract_x
_atom_site_fract_y
_atom_site_fract_z
_atom_type_partial_charge
Co0 Co 0.29015 0.15555 0.19164 0.0
Co1 Co 0.25991 0.07116 0.19643 0.0
O2 O 0.25406 0.11754 0.19039 0.0
C3 C 0.28079 0.15478 0.17179 0.0
O4 O 0.28707 0.12001 0.17179 0.0
C5 C 0.18258 0.08309 0.20208 0.0
O6 O 0.19137 0.11087 0.20704 0.0
O7 O 0.26371 0.09622 0.20824 0.0
O8 O 0.30073 0.14101 0.20426 0.0
H9 H 0.31628 0.98552 0.21835 0.0
H10 H 0.21646 0.17369 0.18561 0.0
O11 O 0.28035 0.17216 0.17912 0.0
H12 H 0.23552 0.24475 0.21303 0.0
H13 H 0.34007 0.28022 0.18713 0.0
H14 H 0.36366 0.15917 0.1993 0.0
H15 H 0.28362 0.20574 0.20715 0.0
H16 H 0.29402 0.23265 0.18611 0.0
O17 O 0.20638 0.06652 0.19757 0.0
H18 H 0.30934 0.04312 0.21035 0.0
H19 H 0.22102 1.00083 0.19571 0.0
H20 H 0.41032 0.20603 0.20054 0.0
H21 H 0.16774 0.21276 0.1912 0.0
H22 H 0.39866 0.26708 0.19442 0.0
H23 H 0.17711 0.24854 0.20502 0.0
O24 O 0.32837 0.12224 0.18731 0.0
H25 H 0.20757 0.04978 0.16593 0.0
H26 H 0.3015 0.01287 0.18731 0.0
H27 H 0.29863 0.98386 0.17252 0.0
H28 H 0.25133 1.00224 0.16171 0.0
H29 H 0.2117 0.07836 0.18077 0.0
H30 H 0.22678 0.94292 0.20362 0.0
H31 H 0.27479 0.93492 0.215 0.0
O32 O 0.31352 0.07304 0.19512 0.0
C33 C 0.28552 0.12162 0.2102 0.0
C34 C 0.2953 0.98865 0.21339 0.0
C35 C 0.24505 0.96475 0.20513 0.0
N36 N 0.26493 0.02533 0.20254 0.0
C37 C 0.29129 0.02119 0.20882 0.0
C38 C 0.24184 0.99767 0.2007 0.0
C39 C 0.272 0.96028 0.21151 0.0
C40 C 0.22082 0.18944 0.19158 0.0
N41 N 0.25288 0.18756 0.19602 0.0
C42 C 0.19311 0.21142 0.19473 0.0
C43 C 0.19837 0.23146 0.20249 0.0
C44 C 0.23114 0.22935 0.20699 0.0
C45 C 0.25824 0.20713 0.20364 0.0
C46 C 0.34544 0.25375 0.18984 0.0
C47 C 0.35828 0.18572 0.19667 0.0
C48 C 0.31949 0.22668 0.18926 0.0
N49 N 0.32605 0.19321 0.19269 0.0
C50 C 0.38485 0.21213 0.19738 0.0
C51 C 0.3783 0.24636 0.19393 0.0
C52 C 0.33569 0.09108 0.1904 0.0
C53 C 0.22829 0.04152 0.17058 0.0
C54 C 0.28104 0.02122 0.18263 0.0
C55 C 0.27944 0.00458 0.17427 0.0
C56 C 0.25287 0.01488 0.16822 0.0
N57 N 0.25687 0.04735 0.1849 0.0
C58 C 0.23072 0.05755 0.179 0.0
Co59 Co 0.84583 0.78466 0.44104 0.0
Co60 Co 0.93112 0.75338 0.4461 0.0
O61 O 0.8841 0.74815 0.4402 0.0
C62 C 0.84985 0.77511 0.42123 0.0
O63 O 0.88473 0.78054 0.42161 0.0
C64 C 0.91273 0.67385 0.44792 0.0
O65 O 0.88145 0.67808 0.44401 0.0
O66 O 0.90712 0.76369 0.4578 0.0
O67 O 0.85859 0.79545 0.4537 0.0
H68 H 0.01933 0.81576 0.46624 0.0
H69 H 0.826 0.71216 0.43439 0.0
O70 O 0.83118 0.77505 0.42836 0.0
H71 H 0.75439 0.72963 0.46179 0.0
H72 H 0.72152 0.83378 0.43551 0.0
H73 H 0.84041 0.85785 0.44883 0.0
H74 H 0.79513 0.77724 0.45642 0.0
H75 H 0.76969 0.7883 0.43476 0.0
O76 O 0.9332 0.70075 0.44935 0.0
H77 H 0.96189 0.8082 0.45823 0.0
H78 H 0.99911 0.71016 0.44695 0.0
H79 H 0.79294 0.904 0.44979 0.0
H80 H 0.78508 0.66405 0.43945 0.0
H81 H 0.73296 0.89209 0.44309 0.0
H82 H 0.74905 0.67256 0.45327 0.0
O83 O 0.87939 0.82326 0.43701 0.0
H84 H 0.94652 0.69032 0.41651 0.0
H85 H 0.99467 0.7837 0.43655 0.0
H86 H 0.02385 0.77306 0.42203 0.0
H87 H 0.99991 0.7259 0.41189 0.0
H88 H 0.91787 0.70227 0.43099 0.0
H89 H 0.057 0.71676 0.45483 0.0
H90 H 0.0675 0.76999 0.46451 0.0
O91 O 0.93208 0.8058 0.44301 0.0
C92 C 0.88038 0.78395 0.45962 0.0
C93 C 0.01522 0.79263 0.46197 0.0
C94 C 0.03629 0.73699 0.4556 0.0
N95 N 0.9772 0.75893 0.45207 0.0
C96 C 0.98275 0.78821 0.45741 0.0
C97 C 0.00339 0.73334 0.45118 0.0
C98 C 0.04218 0.76687 0.46103 0.0
C99 C 0.81019 0.71619 0.44037 0.0
N100 N 0.8131 0.74743 0.44512 0.0
C101 C 0.78715 0.6888 0.44322 0.0
C102 C 0.76698 0.69357 0.45098 0.0
C103 C 0.76999 0.72556 0.45577 0.0
C104 C 0.79328 0.75237 0.45272 0.0
C105 C 0.74754 0.83929 0.43845 0.0
C106 C 0.81438 0.85243 0.44592 0.0
C107 C 0.77497 0.81368 0.43802 0.0
N108 N 0.80786 0.82039 0.44176 0.0
C109 C 0.7876 0.87868 0.44647 0.0
C110 C 0.75397 0.872 0.44271 0.0
C111 C 0.91228 0.82887 0.43903 0.0
C112 C 0.95734 0.71081 0.42088 0.0
C113 C 0.9839 0.7633 0.43218 0.0
C114 C 1.00066 0.75729 0.42397 0.0
C115 C 0.98724 0.73082 0.41829 0.0
N116 N 0.95469 0.74344 0.43473 0.0
C117 C 0.94132 0.71757 0.42916 0.0
Co118 Co 0.23182 0.34741 0.69137 0.0
Co119 Co 0.26231 0.4337 0.69592 0.0
O120 O 0.2673 0.38643 0.69009 0.0
C121 C 0.23717 0.35169 0.6714 0.0
O122 O 0.23238 0.38666 0.67176 0.0
C123 C 0.34189 0.41518 0.69762 0.0
O124 O 0.33731 0.38349 0.69395 0.0
O125 O 0.25282 0.41047 0.7078 0.0
O126 O 0.22423 0.35951 0.70415 0.0
H127 H 0.20121 0.52347 0.71589 0.0
H128 H 0.30282 0.32951 0.68352 0.0
O129 O 0.23835 0.33321 0.67856 0.0
H130 H 0.29366 0.2554 0.71078 0.0
H131 H 0.1836 0.22226 0.68652 0.0
H132 H 0.161 0.3405 0.70033 0.0
H133 H 0.24421 0.29592 0.70642 0.0
H134 H 0.22792 0.27124 0.68508 0.0
O135 O 0.31519 0.43605 0.69894 0.0
H136 H 0.20835 0.4653 0.70819 0.0
H137 H 0.30545 0.50174 0.69624 0.0
H138 H 0.1161 0.29218 0.70201 0.0
H139 H 0.35271 0.2889 0.68756 0.0
H140 H 0.12726 0.23253 0.69507 0.0
H141 H 0.34837 0.25159 0.7013 0.0
O142 O 0.19154 0.38028 0.688 0.0
H143 H 0.32443 0.44883 0.6662 0.0
H144 H 0.23008 0.49571 0.68616 0.0
H145 H 0.23988 0.52442 0.67152 0.0
H146 H 0.28753 0.50112 0.66143 0.0
H147 H 0.31333 0.42064 0.68079 0.0
H148 H 0.29935 0.56025 0.70383 0.0
H149 H 0.24678 0.57152 0.7137 0.0
O150 O 0.20968 0.43423 0.6931 0.0
C151 C 0.23484 0.38242 0.70988 0.0
C152 C 0.22406 0.519 0.71156 0.0
C153 C 0.27922 0.53958 0.70482 0.0
N154 N 0.25713 0.48016 0.70172 0.0
C155 C 0.22824 0.48612 0.70717 0.0
C156 C 0.28258 0.50633 0.70056 0.0
C157 C 0.24971 0.5459 0.71034 0.0
C158 C 0.30061 0.31317 0.68948 0.0
N159 N 0.27068 0.31525 0.69474 0.0
C160 C 0.32901 0.29031 0.69175 0.0
C161 C 0.32658 0.26943 0.69946 0.0
C162 C 0.29592 0.2716 0.70479 0.0
C163 C 0.26807 0.29478 0.70231 0.0
C164 C 0.1784 0.24814 0.68957 0.0
C165 C 0.16608 0.31463 0.6973 0.0
C166 C 0.20334 0.27604 0.68874 0.0
N167 N 0.19704 0.30876 0.6926 0.0
C168 C 0.14054 0.28736 0.69827 0.0
C169 C 0.14681 0.25391 0.69437 0.0
C170 C 0.18601 0.41346 0.6897 0.0
C171 C 0.30373 0.45938 0.67055 0.0
C172 C 0.25071 0.48524 0.6818 0.0
C173 C 0.25623 0.50172 0.67352 0.0
C174 C 0.28297 0.48866 0.66787 0.0
N175 N 0.27134 0.45668 0.68444 0.0
C176 C 0.29745 0.44361 0.67889 0.0
Co177 Co 0.64598 0.72037 0.94136 0.0
Co178 Co 0.56511 0.75537 0.94818 0.0
O179 O 0.60921 0.75794 0.94106 0.0
C180 C 0.65564 0.70593 0.92199 0.0
O181 O 0.64495 0.67285 0.92355 0.0
C182 C 0.56325 0.82801 0.95657 0.0
O183 O 0.56406 0.81233 0.96444 0.0
O184 O 0.59428 0.74855 0.95931 0.0
O185 O 0.63769 0.7116 0.95439 0.0
H186 H 0.48493 0.70524 0.97217 0.0
H187 H 0.664 0.79249 0.93418 0.0
O188 O 0.65571 0.72909 0.92829 0.0
H189 H 0.74862 0.77272 0.9591 0.0
H190 H 0.76611 0.66526 0.93381 0.0
H191 H 0.65022 0.64729 0.94921 0.0
H192 H 0.70405 0.72636 0.9551 0.0
H193 H 0.72005 0.71301 0.93376 0.0
O194 O 0.56648 0.80923 0.94949 0.0
H195 H 0.53944 0.70831 0.96282 0.0
H196 H 0.49703 0.79847 0.94889 0.0
H197 H 0.69557 0.59889 0.94946 0.0
H198 H 0.70845 0.83943 0.93789 0.0
H199 H 0.75401 0.60772 0.94171 0.0
H200 H 0.75114 0.82969 0.95044 0.0
O201 O 0.60891 0.68345 0.93845 0.0
H202 H 0.53625 0.81215 0.91852 0.0
H203 H 0.50047 0.71933 0.94031 0.0
H204 H 0.46609 0.72596 0.92633 0.0
H205 H 0.48382 0.77279 0.91532 0.0
H206 H 0.57019 0.80421 0.93255 0.0
H207 H 0.44209 0.79642 0.9581 0.0
H208 H 0.43576 0.74953 0.96984 0.0
O209 O 0.56197 0.70188 0.94668 0.0
C210 C 0.62009 0.72649 0.9607 0.0
C211 C 0.48735 0.72578 0.96707 0.0
C212 C 0.46331 0.77696 0.95918 0.0
N213 N 0.52145 0.75352 0.95531 0.0
C214 C 0.51815 0.72765 0.96175 0.0
C215 C 0.49451 0.77801 0.95399 0.0
C216 C 0.45978 0.75065 0.96576 0.0
C217 C 0.68264 0.78796 0.93962 0.0
N218 N 0.68154 0.75662 0.94439 0.0
C219 C 0.70768 0.81468 0.9417 0.0
C220 C 0.7316 0.80922 0.94875 0.0
C221 C 0.73019 0.77727 0.95361 0.0
C222 C 0.70479 0.75115 0.95134 0.0
C223 C 0.74076 0.6611 0.93722 0.0
C224 C 0.67561 0.65137 0.94584 0.0
C225 C 0.71456 0.68802 0.9372 0.0
N226 N 0.68249 0.68297 0.9415 0.0
C227 C 0.70118 0.62386 0.946 0.0
C228 C 0.73396 0.62882 0.94165 0.0
C229 C 0.57809 0.67822 0.94198 0.0
C230 C 0.52823 0.79166 0.92327 0.0
C231 C 0.50861 0.73947 0.93553 0.0
C232 C 0.4889 0.74325 0.92763 0.0
C233 C 0.49884 0.76955 0.92147 0.0
N234 N 0.53735 0.7613 0.93726 0.0
C235 C 0.5473 0.78708 0.93123 0.0
Co236 Co 0.28552 0.35385 0.06942 0.0
Co237 Co 0.25895 0.43951 0.06452 0.0
O238 O 0.25163 0.39386 0.07084 0.0
C239 C 0.27892 0.35646 0.08934 0.0
O240 O 0.28479 0.39129 0.08911 0.0
C241 C 0.18063 0.42772 0.06029 0.0
O242 O 0.18783 0.39602 0.05686 0.0
O243 O 0.25992 0.41371 0.05279 0.0
O244 O 0.29465 0.36697 0.05665 0.0
H245 H 0.3168 0.52072 0.04183 0.0
H246 H 0.21234 0.33992 0.07639 0.0
O247 O 0.27738 0.33849 0.08211 0.0
H248 H 0.22226 0.26626 0.0491 0.0
H249 H 0.32894 0.2266 0.07364 0.0
H250 H 0.35747 0.34593 0.0611 0.0
H251 H 0.27333 0.30326 0.05419 0.0
H252 H 0.286 0.27682 0.07509 0.0
O253 O 0.20566 0.44682 0.06363 0.0
H254 H 0.30777 0.46398 0.05007 0.0
H255 H 0.22427 0.51194 0.06533 0.0
H256 H 0.40104 0.29638 0.05943 0.0
H257 H 0.1607 0.30297 0.07159 0.0
H258 H 0.38688 0.23618 0.06573 0.0
H259 H 0.16546 0.26588 0.05784 0.0
O260 O 0.32616 0.38538 0.07324 0.0
H261 H 0.21144 0.46627 0.09525 0.0
H262 H 0.30547 0.4952 0.07316 0.0
H263 H 0.3064 0.52492 0.08787 0.0
H264 H 0.25905 0.51059 0.09903 0.0
H265 H 0.21189 0.43672 0.08048 0.0
H266 H 0.23219 0.56911 0.0572 0.0
H267 H 0.27884 0.57381 0.04538 0.0
O268 O 0.31241 0.43487 0.06542 0.0
C269 C 0.2801 0.38712 0.05077 0.0
C270 C 0.29642 0.51903 0.04697 0.0
C271 C 0.24891 0.54617 0.0556 0.0
N272 N 0.26561 0.48465 0.0582 0.0
C273 C 0.29122 0.48698 0.05167 0.0
C274 C 0.24447 0.51368 0.06016 0.0
C275 C 0.2751 0.5488 0.04897 0.0
C276 C 0.21469 0.32361 0.07044 0.0
N277 N 0.24585 0.32362 0.06561 0.0
C278 C 0.18533 0.30284 0.06774 0.0
C279 C 0.18801 0.28206 0.06002 0.0
C280 C 0.21986 0.28227 0.05511 0.0
C281 C 0.24867 0.30336 0.05801 0.0
C282 C 0.3354 0.25269 0.07086 0.0
C283 C 0.35104 0.31979 0.06383 0.0
C284 C 0.31124 0.28127 0.07168 0.0
N285 N 0.31914 0.31425 0.06815 0.0
C286 C 0.37585 0.29184 0.06287 0.0
C287 C 0.3679 0.25808 0.06642 0.0
C288 C 0.33444 0.41601 0.06998 0.0
C289 C 0.23218 0.47278 0.09043 0.0
C290 C 0.28494 0.4886 0.07799 0.0
C291 C 0.28551 0.50565 0.0863 0.0
C292 C 0.25893 0.49761 0.09256 0.0
N293 N 0.25867 0.4642 0.07596 0.0
C294 C 0.2325 0.45623 0.08205 0.0
Co295 Co 0.6579 0.79341 0.31787 0.0
Co296 Co 0.57369 0.75953 0.31309 0.0
O297 O 0.62113 0.75555 0.31883 0.0
C298 C 0.65611 0.78153 0.33763 0.0
O299 O 0.62091 0.78443 0.33742 0.0
C300 C 0.59434 0.68048 0.31115 0.0
O301 O 0.62583 0.68541 0.31491 0.0
O302 O 0.59682 0.76979 0.30129 0.0
O303 O 0.64343 0.80443 0.30532 0.0
H304 H 0.48152 0.8184 0.29332 0.0
H305 H 0.6811 0.72133 0.32414 0.0
O306 O 0.67421 0.7837 0.33042 0.0
H307 H 0.74905 0.74298 0.29635 0.0
H308 H 0.78094 0.84674 0.32266 0.0
H309 H 0.65949 0.86744 0.31044 0.0
H310 H 0.70722 0.78878 0.30215 0.0
H311 H 0.73462 0.79942 0.32357 0.0
O312 O 0.57278 0.70674 0.31 0.0
H313 H 0.54029 0.81267 0.30085 0.0
H314 H 0.50695 0.71461 0.31288 0.0
H315 H 0.70507 0.91539 0.30933 0.0
H316 H 0.72317 0.67503 0.31866 0.0
H317 H 0.76632 0.9052 0.31547 0.0
H318 H 0.75735 0.68565 0.30463 0.0
O319 O 0.62333 0.83039 0.32224 0.0
H320 H 0.55987 0.69555 0.34262 0.0
H321 H 0.51208 0.79115 0.32312 0.0
H322 H 0.48395 0.78033 0.33778 0.0
H323 H 0.50771 0.73206 0.34763 0.0
H324 H 0.58747 0.70767 0.328 0.0
H325 H 0.44806 0.71906 0.3054 0.0
H326 H 0.43494 0.77135 0.29557 0.0
O327 O 0.5717 0.81225 0.31589 0.0
C328 C 0.62228 0.7916 0.29943 0.0
C329 C 0.48687 0.79555 0.29761 0.0
C330 C 0.46811 0.73977 0.30438 0.0
N331 N 0.527 0.7635 0.30735 0.0
C332 C 0.52006 0.79222 0.30191 0.0
C333 C 0.50158 0.73735 0.30857 0.0
C334 C 0.46077 0.76912 0.29887 0.0
C335 C 0.69611 0.72627 0.31808 0.0
N336 N 0.69157 0.75767 0.31346 0.0
C337 C 0.7198 0.6999 0.31499 0.0
C338 C 0.73893 0.70586 0.30711 0.0
C339 C 0.73426 0.738 0.30246 0.0
C340 C 0.71036 0.76377 0.30575 0.0
C341 C 0.75436 0.85151 0.31996 0.0
C342 C 0.68611 0.86273 0.3131 0.0
C343 C 0.72797 0.82484 0.32047 0.0
N344 N 0.69439 0.8306 0.31704 0.0
C345 C 0.7118 0.89002 0.31246 0.0
C346 C 0.74614 0.88429 0.31592 0.0
C347 C 0.59067 0.83571 0.31997 0.0
C348 C 0.54909 0.71649 0.33836 0.0
C349 C 0.52269 0.77018 0.32736 0.0
C350 C 0.50657 0.76411 0.33566 0.0
C351 C 0.51989 0.73703 0.34118 0.0
N352 N 0.55114 0.74974 0.32459 0.0
C353 C 0.56449 0.72332 0.33001 0.0
Co354 Co 0.21335 0.14978 0.56936 0.0
Co355 Co 0.25155 0.06786 0.56472 0.0
O356 O 0.25337 0.11566 0.57022 0.0
C357 C 0.22689 0.15021 0.58904 0.0
O358 O 0.22487 0.11494 0.58909 0.0
C359 C 0.32072 0.06324 0.55496 0.0
O360 O 0.30165 0.05766 0.5477 0.0
O361 O 0.2404 0.0902 0.55282 0.0
O362 O 0.20236 0.13402 0.5569 0.0
H363 H 0.19957 0.97228 0.54481 0.0
H364 H 0.28574 0.17524 0.57465 0.0
O365 O 0.22344 0.16751 0.58175 0.0
H366 H 0.25408 0.24596 0.54789 0.0
H367 H 0.15178 0.26896 0.57416 0.0
H368 H 0.13886 0.14587 0.56234 0.0
H369 H 0.21214 0.20052 0.55385 0.0
H370 H 0.20237 0.22616 0.57493 0.0
O371 O 0.30482 0.07084 0.56229 0.0
H372 H 0.20242 0.03198 0.55195 0.0
H373 H 0.29767 1.00184 0.56575 0.0
H374 H 0.0877 0.18786 0.56136 0.0
H375 H 0.32859 0.22028 0.56886 0.0
H376 H 0.09398 0.24994 0.5673 0.0
H377 H 0.3128 0.25601 0.55538 0.0
O378 O 0.17928 0.11308 0.57411 0.0
H379 H 0.31788 0.05882 0.5939 0.0
H380 H 0.2205 0.00757 0.57553 0.0
H381 H 0.23246 0.98236 0.59048 0.0
H382 H 0.28157 0.00794 0.59977 0.0
H383 H 0.30464 0.08353 0.57896 0.0
H384 H 0.29589 0.94186 0.55874 0.0
H385 H 0.24656 0.92674 0.54819 0.0
O386 O 0.19882 0.06316 0.56724 0.0
C387 C 0.21692 0.1142 0.55097 0.0
C388 C 0.2212 0.97854 0.5494 0.0
C389 C 0.27525 0.96147 0.55721 0.0
N390 N 0.25015 0.02042 0.55926 0.0
C391 C 0.22295 0.0123 0.55346 0.0
C392 C 0.27611 0.99548 0.56116 0.0
C393 C 0.24757 0.953 0.55129 0.0
C394 C 0.2787 0.19071 0.56878 0.0
N395 N 0.24643 0.18536 0.56462 0.0
C396 C 0.30308 0.21613 0.56553 0.0
C397 C 0.29422 0.23613 0.55796 0.0
C398 C 0.26131 0.23044 0.55373 0.0
C399 C 0.23768 0.20466 0.55714 0.0
C400 C 0.14873 0.24201 0.57154 0.0
C401 C 0.14188 0.17287 0.5649 0.0
C402 C 0.17726 0.21761 0.57198 0.0
N403 N 0.17367 0.18359 0.56864 0.0
C404 C 0.11278 0.19652 0.56435 0.0
C405 C 0.11631 0.23132 0.56769 0.0
C406 C 0.17515 0.08044 0.57168 0.0
C407 C 0.29646 0.04739 0.58991 0.0
C408 C 0.24169 0.01905 0.57955 0.0
C409 C 0.24847 0.00455 0.588 0.0
C410 C 0.27604 0.01889 0.59321 0.0
N411 N 0.26186 0.04698 0.57635 0.0
C412 C 0.28892 0.06118 0.58143 0.0
Co413 Co 0.85146 0.72513 0.82002 0.0
Co414 Co 0.93989 0.7488 0.81602 0.0
O415 O 0.89284 0.75741 0.82161 0.0
C416 C 0.85462 0.73294 0.83988 0.0
O417 O 0.88983 0.73067 0.83956 0.0
C418 C 0.92638 0.82565 0.81046 0.0
O419 O 0.89424 0.81741 0.80744 0.0
O420 O 0.91704 0.74278 0.80395 0.0
O421 O 0.86461 0.71644 0.80733 0.0
H422 H 0.02586 0.68567 0.7954 0.0
H423 H 0.84022 0.79819 0.82736 0.0
O424 O 0.83614 0.73246 0.83272 0.0
H425 H 0.76782 0.79389 0.79974 0.0
H426 H 0.72238 0.68701 0.82389 0.0
H427 H 0.84025 0.6548 0.81109 0.0
H428 H 0.80224 0.74083 0.8047 0.0
H429 H 0.77451 0.72736 0.8257 0.0
O430 O 0.9464 0.80155 0.81388 0.0
H431 H 0.96806 0.69507 0.80318 0.0
H432 H 0.01137 0.78561 0.81673 0.0
H433 H 0.78877 0.61378 0.80906 0.0
H434 H 0.80583 0.85183 0.8227 0.0
H435 H 0.7293 0.62981 0.81549 0.0
H436 H 0.76939 0.8499 0.80879 0.0
O437 O 0.88074 0.68268 0.82371 0.0
H438 H 0.95853 0.80897 0.84573 0.0
H439 H 0.99683 0.70949 0.82615 0.0
H440 H 0.02427 0.71588 0.84108 0.0
H441 H 0.00514 0.76598 0.85098 0.0
H442 H 0.9315 0.80122 0.83079 0.0
H443 H 0.0697 0.77677 0.80922 0.0
H444 H 0.07724 0.72639 0.79849 0.0
O445 O 0.93588 0.69593 0.81839 0.0
C446 C 0.88834 0.72618 0.8017 0.0
C447 C 0.02297 0.70745 0.80014 0.0
C448 C 0.04755 0.75869 0.80786 0.0
N449 N 0.98635 0.74076 0.81043 0.0
C450 C 0.99032 0.71294 0.80455 0.0
C451 C 0.01441 0.7636 0.81208 0.0
C452 C 0.05177 0.73042 0.80184 0.0
C453 C 0.82415 0.79708 0.82134 0.0
N454 N 0.82312 0.76638 0.81633 0.0
C455 C 0.80485 0.82755 0.81872 0.0
C456 C 0.78444 0.82647 0.8109 0.0
C457 C 0.78355 0.79506 0.80583 0.0
C458 C 0.80319 0.76512 0.80866 0.0
C459 C 0.74816 0.67973 0.82105 0.0
C460 C 0.81446 0.66198 0.81389 0.0
C461 C 0.77781 0.70242 0.82208 0.0
N462 N 0.81041 0.69347 0.81849 0.0
C463 C 0.78541 0.63864 0.81273 0.0
C464 C 0.75205 0.64764 0.81634 0.0
C465 C 0.91331 0.6744 0.82197 0.0
C466 C 0.96701 0.78697 0.84149 0.0
C467 C 0.98804 0.73102 0.83047 0.0
C468 C 0.00385 0.73468 0.83889 0.0
C469 C 0.99314 0.76283 0.84443 0.0
N470 N 0.96224 0.75462 0.82765 0.0
C471 C 0.95183 0.78246 0.83302 0.0
Co472 Co 0.80072 0.65687 0.69244 0.0
Co473 Co 0.76473 0.57549 0.69843 0.0
O474 O 0.76208 0.62089 0.69171 0.0
C475 C 0.79057 0.65314 0.67257 0.0
O476 O 0.79394 0.61799 0.67289 0.0
C477 C 0.68506 0.59537 0.69831 0.0
O478 O 0.69099 0.62558 0.69402 0.0
O479 O 0.7713 0.60285 0.70981 0.0
O480 O 0.81082 0.64435 0.70522 0.0
H481 H 0.81791 0.49121 0.72116 0.0
H482 H 0.72931 0.68034 0.68584 0.0
O483 O 0.7919 0.6716 0.67973 0.0
H484 H 0.75245 0.75396 0.71264 0.0
H485 H 0.85807 0.77739 0.68659 0.0
H486 H 0.87461 0.65718 0.69993 0.0
H487 H 0.79718 0.70965 0.70749 0.0
H488 H 0.80928 0.73253 0.68605 0.0
O489 O 0.71108 0.57484 0.70051 0.0
H490 H 0.81409 0.54714 0.71233 0.0
H491 H 0.72054 0.50834 0.69917 0.0
H492 H 0.92399 0.70132 0.70069 0.0
H493 H 0.68399 0.72465 0.6907 0.0
H494 H 0.91589 0.76194 0.69398 0.0
H495 H 0.6954 0.76177 0.70421 0.0
O496 O 0.83655 0.62033 0.68853 0.0
H497 H 0.71044 0.5504 0.66817 0.0
H498 H 0.80046 0.51154 0.69035 0.0
H499 H 0.79472 0.47835 0.67619 0.0
H500 H 0.74924 0.49756 0.66499 0.0
H501 H 0.71753 0.58314 0.68232 0.0
H502 H 0.72313 0.45222 0.70793 0.0
H503 H 0.77219 0.44328 0.71898 0.0
O504 O 0.81824 0.57313 0.69667 0.0
C505 C 0.79484 0.627 0.71141 0.0
C506 C 0.79647 0.49474 0.71634 0.0
C507 C 0.74325 0.47288 0.70892 0.0
N508 N 0.76728 0.53096 0.7052 0.0
C509 C 0.79422 0.52632 0.71131 0.0
C510 C 0.74186 0.50479 0.704 0.0
C511 C 0.77079 0.46788 0.71512 0.0
C512 C 0.73453 0.69649 0.6917 0.0
N513 N 0.76578 0.69226 0.69639 0.0
C514 C 0.70874 0.7215 0.69443 0.0
C515 C 0.71514 0.74229 0.70202 0.0
C516 C 0.74713 0.73789 0.70675 0.0
C517 C 0.77229 0.71261 0.70383 0.0
C518 C 0.86191 0.75108 0.68955 0.0
C519 C 0.87079 0.68354 0.69703 0.0
C520 C 0.83441 0.72553 0.68924 0.0
N521 N 0.839 0.69231 0.693 0.0
C522 C 0.89889 0.70841 0.69747 0.0
C523 C 0.89434 0.7424 0.6937 0.0
C524 C 0.84176 0.58922 0.6919 0.0
C525 C 0.73012 0.54154 0.67303 0.0
C526 C 0.78059 0.52014 0.68554 0.0
C527 C 0.77745 0.50117 0.67752 0.0
C528 C 0.75195 0.51196 0.67124 0.0
N529 N 0.75882 0.54894 0.68731 0.0
C530 C 0.73406 0.55987 0.68112 0.0
Co531 Co 0.33562 0.29055 0.94116 0.0
Co532 Co 0.41917 0.25678 0.94686 0.0
O533 O 0.37295 0.25299 0.94049 0.0
C534 C 0.34106 0.28064 0.92129 0.0
O535 O 0.37623 0.28325 0.92179 0.0
C536 C 0.39894 0.17746 0.94828 0.0
O537 O 0.36825 0.18231 0.94412 0.0
O538 O 0.39366 0.26638 0.95838 0.0
O539 O 0.34703 0.30016 0.95396 0.0
H540 H 0.50597 0.31545 0.96807 0.0
H541 H 0.31498 0.21895 0.93412 0.0
O542 O 0.32202 0.28223 0.92835 0.0
H543 H 0.23932 0.2372 0.9608 0.0
H544 H 0.21338 0.34375 0.93508 0.0
H545 H 0.33189 0.36366 0.94903 0.0
H546 H 0.28242 0.28379 0.95604 0.0
H547 H 0.2601 0.29673 0.93451 0.0
O548 O 0.41984 0.20389 0.94984 0.0
H549 H 0.44924 0.30961 0.95965 0.0
H550 H 0.48625 0.21237 0.94792 0.0
H551 H 0.28586 0.4113 0.94982 0.0
H552 H 0.27183 0.17185 0.93858 0.0
H553 H 0.22609 0.4015 0.9428 0.0
H554 H 0.23371 0.18078 0.95203 0.0
O555 O 0.37081 0.32831 0.9375 0.0
H556 H 0.4384 0.1951 0.91724 0.0
H557 H 0.4836 0.28798 0.93784 0.0
H558 H 0.51456 0.27805 0.92352 0.0
H559 H 0.4921 0.23115 0.9131 0.0
H560 H 0.40799 0.20634 0.93154 0.0
H561 H 0.54324 0.21702 0.95627 0.0
H562 H 0.55346 0.26893 0.9664 0.0
O563 O 0.42153 0.3095 0.94418 0.0
C564 C 0.3673 0.28732 0.96004 0.0
C565 C 0.50189 0.29278 0.96364 0.0
C566 C 0.52278 0.2375 0.95704 0.0
N567 N 0.46451 0.26085 0.95324 0.0
C568 C 0.46986 0.28938 0.95884 0.0
C569 C 0.4904 0.23496 0.95235 0.0
C570 C 0.5285 0.26664 0.96272 0.0
C571 C 0.29833 0.22313 0.93995 0.0
N572 N 0.30134 0.25404 0.94483 0.0
C573 C 0.27401 0.19632 0.94246 0.0
C574 C 0.25267 0.20133 0.95001 0.0
C575 C 0.25584 0.23296 0.95494 0.0
C576 C 0.28045 0.25917 0.95224 0.0
C577 C 0.23932 0.34835 0.93816 0.0
C578 C 0.30593 0.35914 0.94598 0.0
C579 C 0.26594 0.32187 0.93783 0.0
N580 N 0.29872 0.32742 0.94174 0.0
C581 C 0.27998 0.38624 0.94644 0.0
C582 C 0.24646 0.38074 0.9425 0.0
C583 C 0.40318 0.33331 0.94006 0.0
C584 C 0.44859 0.21547 0.92174 0.0
C585 C 0.4735 0.26767 0.93336 0.0
C586 C 0.49125 0.26208 0.92525 0.0
C587 C 0.47866 0.23575 0.91941 0.0
N588 N 0.44414 0.24753 0.93564 0.0
C589 C 0.43157 0.22181 0.92992 0.0
Co590 Co 0.72483 0.85288 0.19058 0.0
Co591 Co 0.75674 0.9381 0.19622 0.0
O592 O 0.76175 0.89121 0.19008 0.0
C593 C 0.74359 0.85759 0.17087 0.0
O594 O 0.7575 0.88979 0.1718 0.0
C595 C 0.83383 0.91549 0.20013 0.0
O596 O 0.82857 0.88288 0.19706 0.0
O597 O 0.74284 0.91407 0.2077 0.0
O598 O 0.71689 0.8624 0.20349 0.0
H599 H 0.69256 0.02789 0.21558 0.0
H600 H 0.79648 0.83526 0.18301 0.0
O601 O 0.73068 0.84086 0.17757 0.0
H602 H 0.78196 0.75455 0.20892 0.0
H603 H 0.67278 0.73061 0.18392 0.0
H604 H 0.65306 0.84668 0.19909 0.0
H605 H 0.73413 0.79747 0.20487 0.0
H606 H 0.71886 0.77822 0.1833 0.0
O607 O 0.80827 0.93827 0.20027 0.0
H608 H 0.70037 0.97015 0.2077 0.0
H609 H 0.80167 0.00469 0.19775 0.0
H610 H 0.60639 0.79968 0.19993 0.0
H611 H 0.84473 0.79231 0.18673 0.0
H612 H 0.6161 0.74114 0.19231 0.0
H613 H 0.8377 0.75164 0.1998 0.0
O614 O 0.68582 0.88751 0.1874 0.0
H615 H 0.83378 0.95712 0.16895 0.0
H616 H 0.72877 1.00076 0.18585 0.0
H617 H 0.74602 0.03123 0.17186 0.0
H618 H 0.79911 0.00959 0.16333 0.0
H619 H 0.81487 0.92686 0.18281 0.0
H620 H 0.79508 0.06263 0.20558 0.0
H621 H 0.74014 0.07461 0.21454 0.0
O622 O 0.70537 0.94101 0.19242 0.0
C623 C 0.72567 0.88518 0.20944 0.0
C624 C 0.71656 0.02304 0.21167 0.0
C625 C 0.77413 0.04251 0.20607 0.0
N626 N 0.7513 0.9841 0.20222 0.0
C627 C 0.72109 0.99044 0.20717 0.0
C628 C 0.77775 0.00959 0.20167 0.0
C629 C 0.74329 0.04922 0.21109 0.0
C630 C 0.793 0.81737 0.18863 0.0
N631 N 0.76243 0.81883 0.19368 0.0
C632 C 0.82052 0.79323 0.19074 0.0
C633 C 0.81659 0.77047 0.19809 0.0
C634 C 0.78535 0.77212 0.20321 0.0
C635 C 0.75841 0.79662 0.2009 0.0
C636 C 0.66824 0.75599 0.18728 0.0
C637 C 0.65756 0.82123 0.19578 0.0
C638 C 0.69421 0.78311 0.18693 0.0
N639 N 0.68873 0.8152 0.19118 0.0
C640 C 0.631 0.79474 0.19627 0.0
C641 C 0.63646 0.76191 0.19199 0.0
C642 C 0.68137 0.92098 0.18892 0.0
C643 C 0.81061 0.96683 0.1726 0.0
C644 C 0.75142 0.99076 0.1821 0.0
C645 C 0.76129 0.00832 0.17421 0.0
C646 C 0.79112 0.99622 0.16945 0.0
N647 N 0.77065 0.96194 0.18517 0.0
C648 C 0.79989 0.94992 0.18051 0.0
Co649 Co 0.1536 0.21576 0.44212 0.0
Co650 Co 0.07038 0.24874 0.44807 0.0
O651 O 0.11595 0.25298 0.44141 0.0
C652 C 0.14772 0.22751 0.42234 0.0
O653 O 0.11257 0.22944 0.42298 0.0
C654 C 0.08863 0.32867 0.44855 0.0
O655 O 0.11933 0.32369 0.44442 0.0
O656 O 0.09723 0.24168 0.45952 0.0
O657 O 0.14247 0.20643 0.45497 0.0
H658 H 0.98687 0.19119 0.47028 0.0
H659 H 0.17354 0.28729 0.43496 0.0
O660 O 0.16701 0.22333 0.42929 0.0
H661 H 0.2502 0.27002 0.46153 0.0
H662 H 0.27591 0.16264 0.43611 0.0
H663 H 0.15741 0.14274 0.45007 0.0
H664 H 0.20734 0.22302 0.45689 0.0
H665 H 0.22909 0.20955 0.43545 0.0
O666 O 0.06836 0.3021 0.45047 0.0
H667 H 0.04296 0.1974 0.46163 0.0
H668 H 1.00202 0.29104 0.44889 0.0
H669 H 0.20357 0.09524 0.45095 0.0
H670 H 0.21638 0.33486 0.4393 0.0
H671 H 0.26333 0.10504 0.44393 0.0
H672 H 0.255 0.32641 0.45269 0.0
O673 O 0.11849 0.17809 0.43849 0.0
H674 H 0.04467 0.30609 0.41818 0.0
H675 H 0.00783 0.21214 0.43955 0.0
H676 H 0.97515 0.21851 0.42532 0.0
H677 H 0.99336 0.26594 0.41453 0.0
H678 H 0.07702 0.29828 0.43238 0.0
H679 H 0.94565 0.28602 0.45748 0.0
H680 H 0.93773 0.23571 0.46823 0.0
O681 O 0.06936 0.19553 0.44601 0.0
C682 C 0.12323 0.2202 0.46113 0.0
C683 C 0.98996 0.21316 0.4656 0.0
C684 C 0.96685 0.26642 0.45842 0.0
N685 N 0.02571 0.2444 0.45471 0.0
C686 C 0.02163 0.21677 0.46066 0.0
C687 C 0.99889 0.26918 0.45359 0.0
C688 C 0.96241 0.23818 0.46445 0.0
C689 C 0.1904 0.28335 0.44077 0.0
N690 N 0.1878 0.25248 0.44569 0.0
C691 C 0.21454 0.31041 0.44321 0.0
C692 C 0.23617 0.30567 0.45073 0.0
C693 C 0.23345 0.27406 0.45569 0.0
C694 C 0.20898 0.24761 0.45306 0.0
C695 C 0.24999 0.15807 0.4392 0.0
C696 C 0.1834 0.14729 0.44703 0.0
C697 C 0.22334 0.18451 0.43883 0.0
N698 N 0.19059 0.17899 0.44276 0.0
C699 C 0.20941 0.12026 0.44754 0.0
C700 C 0.24292 0.12576 0.4436 0.0
C701 C 0.08697 0.17227 0.44153 0.0
C702 C 0.03627 0.28551 0.42286 0.0
C703 C 0.01605 0.23279 0.4349 0.0
C704 C 0.99734 0.23632 0.42685 0.0
C705 C 0.00755 0.26293 0.42081 0.0
N706 N 0.04408 0.25519 0.43692 0.0
C707 C 0.05435 0.28117 0.43098 0.0
Co708 Co 0.7854 0.84174 0.56888 0.0
Co709 Co 0.75456 0.92717 0.56384 0.0
O710 O 0.74903 0.88013 0.56976 0.0
C711 C 0.77751 0.84613 0.58876 0.0
O712 O 0.7825 0.88107 0.58833 0.0
C713 C 0.67558 0.90823 0.56105 0.0
O714 O 0.68047 0.87466 0.56346 0.0
O715 O 0.76402 0.90321 0.55209 0.0
O716 O 0.79503 0.85405 0.55613 0.0
H717 H 0.81654 0.01558 0.54363 0.0
H718 H 0.7133 0.82279 0.57591 0.0
O719 O 0.77687 0.82743 0.58163 0.0
H720 H 0.72868 0.7489 0.54882 0.0
H721 H 0.83484 0.71745 0.57433 0.0
H722 H 0.85819 0.83633 0.56089 0.0
H723 H 0.77666 0.79013 0.55373 0.0
H724 H 0.78934 0.76559 0.57519 0.0
O725 O 0.70192 0.93012 0.56083 0.0
H726 H 0.80849 0.95755 0.55138 0.0
H727 H 0.71277 0.99602 0.56358 0.0
H728 H 0.90431 0.78887 0.55981 0.0
H729 H 0.66483 0.78145 0.57131 0.0
H730 H 0.89277 0.72891 0.56657 0.0
H731 H 0.6723 0.74426 0.55765 0.0
O732 O 0.82448 0.8752 0.5727 0.0
H733 H 0.68991 0.94324 0.5931 0.0
H734 H 0.78774 0.98821 0.5739 0.0
H735 H 0.77745 0.0163 0.58859 0.0
H736 H 0.7281 0.99389 0.5983 0.0
H737 H 0.70155 0.91565 0.57842 0.0
H738 H 0.71963 0.05433 0.55591 0.0
H739 H 0.7719 0.06446 0.54588 0.0
O740 O 0.8071 0.9276 0.56664 0.0
C741 C 0.7835 0.87591 0.55023 0.0
C742 C 0.79371 0.01153 0.54801 0.0
C743 C 0.73929 0.03325 0.55489 0.0
N744 N 0.76032 0.97343 0.55797 0.0
C745 C 0.78905 0.97875 0.55243 0.0
C746 C 0.73549 1.00012 0.55919 0.0
C747 C 0.76863 0.03893 0.54926 0.0
C748 C 0.71688 0.80646 0.57 0.0
N749 N 0.74775 0.80896 0.56509 0.0
C750 C 0.68928 0.78321 0.56741 0.0
C751 C 0.69347 0.76239 0.55974 0.0
C752 C 0.72507 0.76502 0.55477 0.0
C753 C 0.75208 0.78858 0.55756 0.0
C754 C 0.84017 0.74345 0.57135 0.0
C755 C 0.85289 0.81027 0.56381 0.0
C756 C 0.81455 0.77086 0.57184 0.0
N757 N 0.82103 0.80372 0.56806 0.0
C758 C 0.87914 0.78352 0.5632 0.0
C759 C 0.87266 0.74989 0.56699 0.0
C760 C 0.83038 0.90787 0.57053 0.0
C761 C 0.71146 0.9533 0.58892 0.0
C762 C 0.76649 0.97808 0.5781 0.0
C763 C 0.76063 0.99423 0.5864 0.0
C764 C 0.73292 0.98168 0.59184 0.0
N765 N 0.74531 0.9503 0.57527 0.0
C766 C 0.71809 0.93786 0.58057 0.0
Co767 Co 0.15101 0.2878 0.81814 0.0
Co768 Co 0.06849 0.25729 0.81142 0.0
O769 O 0.11336 0.25061 0.81819 0.0
C770 C 0.14611 0.27554 0.83794 0.0
O771 O 0.11158 0.28295 0.83771 0.0
C772 C 0.08686 0.1784 0.80884 0.0
O773 O 0.12084 0.18383 0.81077 0.0
O774 O 0.09672 0.26462 0.80021 0.0
O775 O 0.13968 0.30127 0.80546 0.0
H776 H 0.98847 0.31951 0.78916 0.0
H777 H 0.17098 0.21397 0.82375 0.0
O778 O 0.16447 0.27531 0.83075 0.0
H779 H 0.24802 0.24075 0.79776 0.0
H780 H 0.2729 0.33884 0.8256 0.0
H781 H 0.15524 0.36307 0.81161 0.0
H782 H 0.20469 0.2857 0.80328 0.0
H783 H 0.22623 0.29178 0.8251 0.0
O784 O 0.06464 0.20445 0.8088 0.0
H785 H 0.04389 0.31044 0.79794 0.0
H786 H 0.99848 0.21799 0.81026 0.0
H787 H 0.20135 0.41072 0.81185 0.0
H788 H 0.21428 0.16836 0.8185 0.0
H789 H 0.26067 0.39876 0.8189 0.0
H790 H 0.25309 0.1816 0.80539 0.0
O791 O 0.11584 0.32433 0.82247 0.0
H792 H 0.03843 0.19509 0.84031 0.0
H793 H 0.00761 0.29586 0.82028 0.0
H794 H 0.97418 0.28808 0.83437 0.0
H795 H 0.98937 0.23723 0.84448 0.0
H796 H 0.07163 0.20431 0.82623 0.0
H797 H 0.94272 0.2259 0.80156 0.0
H798 H 0.93738 0.27705 0.79094 0.0
O799 O 0.06902 0.31025 0.81376 0.0
C800 C 0.12196 0.28742 0.79901 0.0
C801 C 0.99044 0.29716 0.79378 0.0
C802 C 0.96478 0.2446 0.80073 0.0
N803 N 0.0244 0.26383 0.80464 0.0
C804 C 0.02174 0.29192 0.79878 0.0
C805 C 0.99648 0.24021 0.80562 0.0
C806 C 0.9618 0.27331 0.79478 0.0
C807 C 0.18795 0.22 0.81808 0.0
N808 N 0.18521 0.25241 0.81382 0.0
C809 C 0.21233 0.19403 0.81512 0.0
C810 C 0.23405 0.20146 0.80775 0.0
C811 C 0.23118 0.23462 0.80346 0.0
C812 C 0.20645 0.25991 0.8066 0.0
C813 C 0.2472 0.34435 0.82249 0.0
C814 C 0.18108 0.35754 0.81462 0.0
C815 C 0.22061 0.31783 0.82221 0.0
N816 N 0.18808 0.32457 0.81828 0.0
C817 C 0.20705 0.38468 0.81477 0.0
C818 C 0.24031 0.37796 0.81873 0.0
C819 C 0.08538 0.33172 0.819 0.0
C820 C 0.03147 0.21727 0.83595 0.0
C821 C 0.01458 0.27383 0.82466 0.0
C822 C 0.99545 0.26948 0.83262 0.0
C823 C 0.00398 0.24095 0.83829 0.0
N824 N 0.04143 0.25042 0.82239 0.0
C825 C 0.05007 0.22253 0.82794 0.0
Co826 Co 0.71926 0.65739 0.0687 0.0
Co827 Co 0.75103 0.57172 0.06397 0.0
O828 O 0.75649 0.61957 0.06952 0.0
C829 C 0.73635 0.65585 0.08832 0.0
O830 O 0.74065 0.62084 0.08801 0.0
C831 C 0.82922 0.59184 0.06052 0.0
O832 O 0.82421 0.62509 0.06316 0.0
O833 O 0.73872 0.59422 0.05218 0.0
O834 O 0.70789 0.64346 0.05616 0.0
H835 H 0.68786 0.48049 0.04482 0.0
H836 H 0.79187 0.67869 0.07494 0.0
O837 O 0.72881 0.6735 0.08127 0.0
H838 H 0.77166 0.74781 0.04724 0.0
H839 H 0.66857 0.78147 0.07366 0.0
H840 H 0.64551 0.66096 0.06117 0.0
H841 H 0.72495 0.70691 0.05301 0.0
H842 H 0.71485 0.73409 0.07453 0.0
O843 O 0.80308 0.56972 0.0603 0.0
H844 H 0.69538 0.53896 0.05238 0.0
H845 H 0.79455 0.50391 0.06351 0.0
H846 H 0.59856 0.70761 0.06011 0.0
H847 H 0.83906 0.71989 0.0695 0.0
H848 H 0.60995 0.7684 0.06638 0.0
H849 H 0.82917 0.75464 0.05553 0.0
O850 O 0.68157 0.62371 0.07314 0.0
H851 H 0.82213 0.55889 0.09244 0.0
H852 H 0.72209 0.51015 0.07456 0.0
H853 H 0.7363 0.48282 0.08915 0.0
H854 H 0.7868 0.5071 0.09819 0.0
H855 H 0.80646 0.58582 0.07792 0.0
H856 H 0.78782 0.44499 0.05615 0.0
H857 H 0.73404 0.43292 0.04676 0.0
O858 O 0.69913 0.57037 0.06755 0.0
C859 C 0.71855 0.621 0.05032 0.0
C860 C 0.71118 0.48532 0.04897 0.0
C861 C 0.76738 0.46545 0.0553 0.0
N862 N 0.74526 0.52483 0.05843 0.0
C863 C 0.71562 0.51838 0.05327 0.0
C864 C 0.77108 0.49892 0.05943 0.0
C865 C 0.7372 0.45868 0.05003 0.0
C866 C 0.78721 0.69403 0.06891 0.0
N867 N 0.75572 0.69032 0.0643 0.0
C868 C 0.81409 0.71719 0.06584 0.0
C869 C 0.80855 0.73664 0.05799 0.0
C870 C 0.77631 0.73279 0.05333 0.0
C871 C 0.75002 0.70941 0.05661 0.0
C872 C 0.66328 0.75509 0.0709 0.0
C873 C 0.6507 0.68734 0.06391 0.0
C874 C 0.68935 0.72811 0.07139 0.0
N875 N 0.68291 0.69475 0.06789 0.0
C876 C 0.624 0.71366 0.06329 0.0
C877 C 0.6304 0.74775 0.06681 0.0
C878 C 0.67631 0.59045 0.07151 0.0
C879 C 0.80009 0.54802 0.08856 0.0
C880 C 0.74374 0.52119 0.0785 0.0
C881 C 0.75185 0.50543 0.08673 0.0
C882 C 0.78022 0.51902 0.09179 0.0
N883 N 0.76327 0.54968 0.07537 0.0
C884 C 0.79119 0.56306 0.08029 0.0
Co885 Co 0.34808 0.22257 0.3197 0.0
Co886 Co 0.42825 0.25887 0.31275 0.0
O887 O 0.38462 0.26037 0.32005 0.0
C888 C 0.33959 0.20639 0.33903 0.0
O889 O 0.35011 0.17344 0.33725 0.0
C890 C 0.42803 0.33199 0.30458 0.0
O891 O 0.42662 0.3166 0.29668 0.0
O892 O 0.39847 0.25256 0.30171 0.0
O893 O 0.35553 0.21496 0.3066 0.0
H894 H 0.50756 0.21147 0.28825 0.0
H895 H 0.33001 0.29391 0.32732 0.0
O896 O 0.33918 0.23011 0.33286 0.0
H897 H 0.24404 0.27581 0.30262 0.0
H898 H 0.22876 0.16617 0.32745 0.0
H899 H 0.34376 0.15013 0.31153 0.0
H900 H 0.28917 0.22941 0.3062 0.0
H901 H 0.27456 0.21415 0.32755 0.0
O902 O 0.42613 0.31282 0.31164 0.0
H903 H 0.45369 0.21304 0.29785 0.0
H904 H 0.49555 0.30309 0.31189 0.0
H905 H 0.29865 0.10151 0.31122 0.0
H906 H 0.28501 0.34085 0.32402 0.0
H907 H 0.24066 0.10937 0.31923 0.0
H908 H 0.24165 0.33196 0.31159 0.0
O909 O 0.38559 0.18561 0.32227 0.0
H910 H 0.45887 0.31407 0.34245 0.0
H911 H 0.49365 0.22278 0.3202 0.0
H912 H 0.52911 0.22893 0.33403 0.0
H913 H 0.51188 0.27499 0.34526 0.0
H914 H 0.42388 0.30665 0.32857 0.0
H915 H 0.54982 0.30255 0.30242 0.0
H916 H 0.5561 0.25651 0.2905 0.0
O917 O 0.43203 0.20526 0.31402 0.0
C918 C 0.3727 0.23052 0.3003 0.0
C919 C 0.50516 0.23166 0.29342 0.0
C920 C 0.52886 0.2828 0.30137 0.0
N921 N 0.47145 0.25809 0.30543 0.0
C922 C 0.47472 0.23267 0.29889 0.0
C923 C 0.49805 0.28298 0.30671 0.0
C924 C 0.53237 0.25695 0.29469 0.0
C925 C 0.31107 0.28974 0.32193 0.0
N926 N 0.3121 0.25884 0.317 0.0
C927 C 0.28573 0.31646 0.32008 0.0
C928 C 0.26143 0.31147 0.3131 0.0
C929 C 0.26277 0.27999 0.30806 0.0
C930 C 0.28848 0.25385 0.3101 0.0
C931 C 0.25391 0.16243 0.32393 0.0
C932 C 0.31856 0.15379 0.31501 0.0
C933 C 0.27996 0.18949 0.32397 0.0
N934 N 0.31179 0.18498 0.31953 0.0
C935 C 0.29313 0.12615 0.31482 0.0
C936 C 0.26061 0.13057 0.31932 0.0
C937 C 0.41628 0.18096 0.31862 0.0
C938 C 0.46668 0.29393 0.3376 0.0
C939 C 0.48575 0.24261 0.32508 0.0
C940 C 0.50605 0.2461 0.33289 0.0
C941 C 0.49639 0.27197 0.33918 0.0
N942 N 0.4567 0.26432 0.32356 0.0
C943 C 0.44701 0.28965 0.32972 0.0
H944 H 0.27792 0.28384 0.09197 0.0
H945 H 0.27536 0.25111 0.10602 0.0
H946 H 0.2701 0.35134 0.12048 0.0
H947 H 0.27384 0.38461 0.10633 0.0
H948 H 0.31484 0.30739 0.12856 0.0
H949 H 0.19484 0.29546 0.11756 0.0
H950 H 0.14758 0.28158 0.10652 0.0
H951 H 0.18307 0.17175 0.10547 0.0
H952 H 0.23089 0.18508 0.11641 0.0
H953 H 0.26751 0.22657 0.1697 0.0
H954 H 0.26413 0.26086 0.15584 0.0
H955 H 0.28088 0.16377 0.14065 0.0
H956 H 0.28409 0.12892 0.15457 0.0
H957 H 0.22847 0.20734 0.13323 0.0
H958 H 0.34965 0.22087 0.14409 0.0
H959 H 0.39564 0.2354 0.1554 0.0
H960 H 0.3559 0.34366 0.15699 0.0
H961 H 0.30929 0.32962 0.14577 0.0
C962 C 0.27601 0.2991 0.09811 0.0
C963 C 0.27591 0.33698 0.09799 0.0
C964 C 0.27435 0.28022 0.10617 0.0
C965 C 0.27186 0.29862 0.11434 0.0
C966 C 0.27185 0.33648 0.11427 0.0
C967 C 0.27389 0.35549 0.10617 0.0
C968 C 0.27025 0.27815 0.12292 0.0
C969 C 0.29552 0.28594 0.12962 0.0
C970 C 0.24558 0.24955 0.12428 0.0
C971 C 0.21665 0.24135 0.11775 0.0
C972 C 0.19272 0.2684 0.11493 0.0
C973 C 0.16581 0.26062 0.1087 0.0
C974 C 0.16237 0.22582 0.10528 0.0
C975 C 0.18578 0.1987 0.10811 0.0
C976 C 0.21277 0.20634 0.11434 0.0
C977 C 0.27034 0.21232 0.16343 0.0
C978 C 0.27639 0.17492 0.16327 0.0
C979 C 0.26849 0.23208 0.1555 0.0
C980 C 0.27281 0.21502 0.1472 0.0
C981 C 0.27763 0.17753 0.14698 0.0
C982 C 0.27952 0.15765 0.15494 0.0
C983 C 0.27309 0.23656 0.13881 0.0
C984 C 0.24763 0.22892 0.13215 0.0
C985 C 0.2974 0.26545 0.13751 0.0
C986 C 0.32577 0.2741 0.14415 0.0
C987 C 0.35057 0.24771 0.14689 0.0
C988 C 0.37676 0.25586 0.15328 0.0
C989 C 0.37863 0.2904 0.15693 0.0
C990 C 0.35439 0.3169 0.15417 0.0
C991 C 0.3281 0.30887 0.14779 0.0
H992 H 0.39891 0.29665 0.16189 0.0
H993 H 0.14153 0.21986 0.10045 0.0
H994 H 0.87886 0.77793 0.40432 0.0
H995 H 0.84658 0.77574 0.39004 0.0
H996 H 0.7462 0.76264 0.40412 0.0
H997 H 0.77814 0.76405 0.41834 0.0
H998 H 0.74704 0.72027 0.38996 0.0
H999 H 0.77243 0.84469 0.39563 0.0
H1000 H 0.81063 0.89723 0.39896 0.0
H1001 H 0.87014 0.8796 0.37475 0.0
H1002 H 0.83259 0.82662 0.37134 0.0
H1003 H 0.62798 0.77384 0.35455 0.0
H1004 H 0.66118 0.76969 0.3687 0.0
H1005 H 0.7615 0.7762 0.35432 0.0
H1006 H 0.7288 0.78042 0.34025 0.0
H1007 H 0.76082 0.8213 0.36855 0.0
H1008 H 0.73316 0.69706 0.36283 0.0
H1009 H 0.69341 0.64556 0.35963 0.0
H1010 H 0.63614 0.66431 0.38411 0.0
H1011 H 0.67525 0.71627 0.3874 0.0
C1012 C 0.84995 0.77431 0.40437 0.0
C1013 C 0.83113 0.77145 0.41249 0.0
C1014 C 0.83148 0.77323 0.3962 0.0
C1015 C 0.79382 0.76956 0.39599 0.0
C1016 C 0.77519 0.76556 0.40409 0.0
C1017 C 0.79358 0.76653 0.41223 0.0
C1018 C 0.77355 0.77077 0.38739 0.0
C1019 C 0.7498 0.74256 0.38533 0.0
C1020 C 0.7774 0.79958 0.38126 0.0
C1021 C 0.79996 0.83146 0.38328 0.0
C1022 C 0.79385 0.85185 0.39105 0.0
C1023 C 0.81535 0.88174 0.39295 0.0
C1024 C 0.84286 0.89169 0.38708 0.0
C1025 C 0.84886 0.87182 0.3793 0.0
C1026 C 0.82747 0.84187 0.37738 0.0
C1027 C 0.6571 0.77421 0.3544 0.0
C1028 C 0.67564 0.7775 0.34625 0.0
C1029 C 0.67606 0.77174 0.36249 0.0
C1030 C 0.71389 0.77249 0.36257 0.0
C1031 C 0.73236 0.77563 0.35444 0.0
C1032 C 0.71352 0.77792 0.34638 0.0
C1033 C 0.73441 0.77077 0.37111 0.0
C1034 C 0.75816 0.79896 0.37317 0.0
C1035 C 0.73035 0.74209 0.37726 0.0
C1036 C 0.7069 0.71077 0.37532 0.0
C1037 C 0.7119 0.69038 0.3675 0.0
C1038 C 0.68952 0.66108 0.36567 0.0
C1039 C 0.6622 0.65173 0.37165 0.0
C1040 C 0.65727 0.67161 0.37948 0.0
C1041 C 0.67956 0.70098 0.38133 0.0
H1042 H 0.6449 0.62903 0.37023 0.0
H1043 H 0.85947 0.91484 0.38856 0.0
H1044 H 0.23156 0.12419 0.60623 0.0
H1045 H 0.23584 0.15911 0.62008 0.0
H1046 H 0.23602 0.25756 0.6048 0.0
H1047 H 0.23244 0.22305 0.59099 0.0
H1048 H 0.2834 0.26218 0.61798 0.0
H1049 H 0.15978 0.22768 0.61529 0.0
H1050 H 0.10896 0.18574 0.61342 0.0
H1051 H 0.1388 0.1311 0.63761 0.0
H1052 H 0.19014 0.17243 0.63956 0.0
H1053 H 0.23587 0.38014 0.65436 0.0
H1054 H 0.23648 0.34693 0.64017 0.0
H1055 H 0.24346 0.24678 0.65463 0.0
H1056 H 0.24293 0.27936 0.66872 0.0
H1057 H 0.192 0.24434 0.64172 0.0
H1058 H 0.31609 0.28032 0.64424 0.0
H1059 H 0.36573 0.32373 0.64599 0.0
H1060 H 0.33315 0.37764 0.62192 0.0
H1061 H 0.28297 0.33481 0.62009 0.0
C1062 C 0.23273 0.15325 0.60582 0.0
C1063 C 0.23138 0.17074 0.59749 0.0
C1064 C 0.23502 0.17322 0.61375 0.0
C1065 C 0.23575 0.21106 0.6135 0.0
C1066 C 0.23543 0.22846 0.60518 0.0
C1067 C 0.23323 0.20859 0.59727 0.0
C1068 C 0.23606 0.23265 0.62189 0.0
C1069 C 0.26316 0.25854 0.62312 0.0
C1070 C 0.20991 0.22776 0.62866 0.0
C1071 C 0.17902 0.20291 0.62752 0.0
C1072 C 0.15567 0.20654 0.62017 0.0
C1073 C 0.12675 0.18291 0.6191 0.0
C1074 C 0.12071 0.15571 0.62538 0.0
C1075 C 0.14354 0.15214 0.63275 0.0
C1076 C 0.17255 0.17568 0.63384 0.0
C1077 C 0.23774 0.35107 0.65451 0.0
C1078 C 0.23925 0.3325 0.6627 0.0
C1079 C 0.23815 0.33213 0.6464 0.0
C1080 C 0.24005 0.29433 0.64634 0.0
C1081 C 0.24183 0.27588 0.6545 0.0
C1082 C 0.24163 0.29469 0.66257 0.0
C1083 C 0.23948 0.27361 0.63784 0.0
C1084 C 0.21224 0.24795 0.63657 0.0
C1085 C 0.26533 0.27893 0.63102 0.0
C1086 C 0.29555 0.3046 0.63209 0.0
C1087 C 0.31933 0.30161 0.63936 0.0
C1088 C 0.34759 0.32608 0.64036 0.0
C1089 C 0.35253 0.35349 0.63409 0.0
C1090 C 0.32926 0.35643 0.62678 0.0
C1091 C 0.30092 0.33205 0.62576 0.0
H1092 H 0.37443 0.37241 0.63487 0.0
H1093 H 0.0983 0.13744 0.62454 0.0
H1094 H 0.87873 0.75763 0.85613 0.0
H1095 H 0.84541 0.75891 0.87029 0.0
H1096 H 0.75458 0.70872 0.85732 0.0
H1097 H 0.78684 0.70939 0.84318 0.0
H1098 H 0.7295 0.75553 0.86746 0.0
H1099 H 0.81806 0.66306 0.8719 0.0
H1100 H 0.87902 0.63702 0.87258 0.0
H1101 H 0.90833 0.71254 0.89302 0.0
H1102 H 0.84763 0.73933 0.8924 0.0
H1103 H 0.64674 0.6725 0.90588 0.0
H1104 H 0.68077 0.683 0.89207 0.0
H1105 H 0.74038 0.76764 0.90503 0.0
H1106 H 0.70585 0.75803 0.91878 0.0
H1107 H 0.78226 0.70857 0.8956 0.0
H1108 H 0.68777 0.79627 0.89134 0.0
H1109 H 0.62449 0.81595 0.89064 0.0
H1110 H 0.60411 0.74045 0.86953 0.0
H1111 H 0.66717 0.71992 0.8702 0.0
C1112 C 0.85164 0.74696 0.85633 0.0
C1113 C 0.83539 0.7335 0.84855 0.0
C1114 C 0.83263 0.74748 0.86444 0.0
C1115 C 0.79747 0.73345 0.86496 0.0
C1116 C 0.78147 0.71993 0.85715 0.0
C1117 C 0.80004 0.72023 0.84904 0.0
C1118 C 0.77698 0.73276 0.87355 0.0
C1119 C 0.74112 0.74492 0.87357 0.0
C1120 C 0.79198 0.71951 0.88163 0.0
C1121 C 0.82846 0.70346 0.88203 0.0
C1122 C 0.83759 0.67428 0.8765 0.0
C1123 C 0.87208 0.65936 0.87688 0.0
C1124 C 0.89757 0.67319 0.88282 0.0
C1125 C 0.88858 0.70191 0.88841 0.0
C1126 C 0.85414 0.71696 0.88805 0.0
C1127 C 0.66674 0.69368 0.90575 0.0
C1128 C 0.67348 0.71454 0.9134 0.0
C1129 C 0.68617 0.6996 0.89787 0.0
C1130 C 0.71312 0.72601 0.89756 0.0
C1131 C 0.7197 0.74712 0.90515 0.0
C1132 C 0.69975 0.74175 0.91297 0.0
C1133 C 0.73506 0.73076 0.88937 0.0
C1134 C 0.77103 0.71937 0.88946 0.0
C1135 C 0.71995 0.74382 0.88134 0.0
C1136 C 0.68211 0.75633 0.88088 0.0
C1137 C 0.66972 0.78363 0.88661 0.0
C1138 C 0.63391 0.795 0.8862 0.0
C1139 C 0.61027 0.7794 0.88006 0.0
C1140 C 0.62244 0.75248 0.87429 0.0
C1141 C 0.65822 0.741 0.87468 0.0
H1142 H 0.58256 0.78824 0.87976 0.0
H1143 H 0.92425 0.6616 0.8831 0.0
H1144 H 0.77901 0.87541 0.60566 0.0
H1145 H 0.77866 0.84315 0.61996 0.0
H1146 H 0.77143 0.74208 0.60593 0.0
H1147 H 0.77078 0.77394 0.59171 0.0
H1148 H 0.72934 0.73997 0.6199 0.0
H1149 H 0.85201 0.77421 0.61466 0.0
H1150 H 0.90151 0.8165 0.61147 0.0
H1151 H 0.87836 0.87403 0.63567 0.0
H1152 H 0.82836 0.83239 0.63894 0.0
H1153 H 0.78666 0.62449 0.65561 0.0
H1154 H 0.78252 0.65732 0.6414 0.0
H1155 H 0.78198 0.75797 0.65571 0.0
H1156 H 0.78623 0.72566 0.66984 0.0
H1157 H 0.82784 0.76038 0.64169 0.0
H1158 H 0.70513 0.72422 0.64684 0.0
H1159 H 0.65639 0.68083 0.6498 0.0
H1160 H 0.68137 0.62501 0.62546 0.0
H1161 H 0.73061 0.66781 0.62242 0.0
C1162 C 0.77708 0.84634 0.60563 0.0
C1163 C 0.77516 0.82734 0.59752 0.0
C1164 C 0.77709 0.82789 0.61381 0.0
C1165 C 0.7756 0.79005 0.61404 0.0
C1166 C 0.77267 0.7712 0.60596 0.0
C1167 C 0.77243 0.78956 0.59781 0.0
C1168 C 0.77775 0.76987 0.62265 0.0
C1169 C 0.75112 0.7442 0.62461 0.0
C1170 C 0.80587 0.77558 0.62889 0.0
C1171 C 0.8362 0.8004 0.627 0.0
C1172 C 0.85733 0.79603 0.61927 0.0
C1173 C 0.88549 0.81986 0.61745 0.0
C1174 C 0.89301 0.84799 0.62335 0.0
C1175 C 0.87246 0.85226 0.6311 0.0
C1176 C 0.84423 0.82854 0.63294 0.0
C1177 C 0.78552 0.65359 0.65573 0.0
C1178 C 0.78679 0.67234 0.66389 0.0
C1179 C 0.78308 0.67235 0.6476 0.0
C1180 C 0.7818 0.71018 0.64748 0.0
C1181 C 0.78305 0.72885 0.65562 0.0
C1182 C 0.78534 0.71021 0.66371 0.0
C1183 C 0.77944 0.73055 0.63892 0.0
C1184 C 0.80606 0.75622 0.63697 0.0
C1185 C 0.7515 0.72462 0.63266 0.0
C1186 C 0.72178 0.699 0.63445 0.0
C1187 C 0.70041 0.70253 0.64216 0.0
C1188 C 0.67266 0.67808 0.64384 0.0
C1189 C 0.66585 0.65013 0.63784 0.0
C1190 C 0.68671 0.64664 0.63012 0.0
C1191 C 0.71452 0.67101 0.6284 0.0
H1192 H 0.64436 0.63122 0.63916 0.0
H1193 H 0.91479 0.86644 0.62192 0.0
H1194 H 0.2689 0.28363 0.91809 0.0
H1195 H 0.23764 0.27933 0.90388 0.0
H1196 H 0.3389 0.26493 0.89027 0.0
H1197 H 0.37082 0.27027 0.90459 0.0
H1198 H 0.29752 0.30982 0.88113 0.0
H1199 H 0.27994 0.19362 0.89392 0.0
H1200 H 0.26354 0.14986 0.90563 0.0
H1201 H 0.15512 0.18968 0.90564 0.0
H1202 H 0.171 0.23407 0.89402 0.0
H1203 H 0.21656 0.25733 0.84045 0.0
H1204 H 0.2499 0.25445 0.85445 0.0
H1205 H 0.15323 0.27959 0.86909 0.0
H1206 H 0.11933 0.28236 0.85502 0.0
H1207 H 0.19408 0.22677 0.87738 0.0
H1208 H 0.21357 0.34448 0.86477 0.0
H1209 H 0.23055 0.38646 0.85271 0.0
H1210 H 0.33686 0.34139 0.85209 0.0
H1211 H 0.32033 0.29873 0.86405 0.0
C1212 C 0.28472 0.2794 0.91211 0.0
C1213 C 0.3225 0.27711 0.91252 0.0
C1214 C 0.26667 0.27676 0.90395 0.0
C1215 C 0.28574 0.27111 0.89598 0.0
C1216 C 0.32352 0.26911 0.89633 0.0
C1217 C 0.34174 0.27206 0.90453 0.0
C1218 C 0.26601 0.26806 0.88733 0.0
C1219 C 0.27532 0.2912 0.88027 0.0
C1220 C 0.2365 0.24426 0.88622 0.0
C1221 C 0.22674 0.21737 0.89315 0.0
C1222 C 0.25265 0.19321 0.89646 0.0
C1223 C 0.24345 0.16827 0.90308 0.0
C1224 C 0.20833 0.16704 0.90639 0.0
C1225 C 0.18232 0.19069 0.90307 0.0
C1226 C 0.1914 0.21571 0.89646 0.0
C1227 C 0.20217 0.26205 0.84663 0.0
C1228 C 0.16522 0.27045 0.84658 0.0
C1229 C 0.22139 0.26046 0.85465 0.0
C1230 C 0.20425 0.26741 0.86282 0.0
C1231 C 0.16706 0.2743 0.86285 0.0
C1232 C 0.14772 0.27591 0.85481 0.0
C1233 C 0.22548 0.26866 0.87126 0.0
C1234 C 0.21641 0.24521 0.87825 0.0
C1235 C 0.25535 0.29197 0.87229 0.0
C1236 C 0.2656 0.31819 0.86525 0.0
C1237 C 0.24051 0.34338 0.86202 0.0
C1238 C 0.25005 0.36731 0.85521 0.0
C1239 C 0.28473 0.36652 0.85162 0.0
C1240 C 0.30999 0.34193 0.85487 0.0
C1241 C 0.30056 0.31789 0.86167 0.0
H1242 H 0.29205 0.38502 0.84633 0.0
H1243 H 0.20126 0.14773 0.91151 0.0
H1244 H 0.77705 0.63942 0.10311 0.0
H1245 H 0.78213 0.67428 0.11697 0.0
H1246 H 0.70455 0.75055 0.10681 0.0
H1247 H 0.70133 0.7172 0.09284 0.0
H1248 H 0.75064 0.7866 0.11461 0.0
H1249 H 0.68581 0.68067 0.12333 0.0
H1250 H 0.67496 0.61559 0.12511 0.0
H1251 H 0.7701 0.6062 0.14123 0.0
H1252 H 0.78174 0.67118 0.13946 0.0
H1253 H 0.69795 0.80525 0.16526 0.0
H1254 H 0.69884 0.77236 0.15119 0.0
H1255 H 0.79197 0.83298 0.14278 0.0
H1256 H 0.78985 0.86745 0.15675 0.0
H1257 H 0.74103 0.72831 0.14432 0.0
H1258 H 0.79807 0.8366 0.12028 0.0
H1259 H 0.79753 0.90257 0.1184 0.0
H1260 H 0.69774 0.90894 0.13276 0.0
H1261 H 0.69747 0.84302 0.13462 0.0
C1262 C 0.76112 0.66363 0.10387 0.0
C1263 C 0.7388 0.67557 0.0969 0.0
C1264 C 0.76387 0.6835 0.11182 0.0
C1265 C 0.74336 0.71501 0.11306 0.0
C1266 C 0.72091 0.72663 0.10607 0.0
C1267 C 0.71893 0.70739 0.09807 0.0
C1268 C 0.74498 0.73609 0.12157 0.0
C1269 C 0.74856 0.77373 0.1211 0.0
C1270 C 0.74177 0.71972 0.1301 0.0
C1271 C 0.73485 0.68068 0.13118 0.0
C1272 C 0.70454 0.66466 0.1272 0.0
C1273 C 0.69823 0.62781 0.12822 0.0
C1274 C 0.72189 0.60676 0.13326 0.0
C1275 C 0.75184 0.62253 0.13732 0.0
C1276 C 0.7583 0.65937 0.13631 0.0
C1277 C 0.71843 0.81185 0.16038 0.0
C1278 C 0.74372 0.8391 0.16209 0.0
C1279 C 0.71906 0.79283 0.15233 0.0
C1280 C 0.74535 0.80009 0.14583 0.0
C1281 C 0.77088 0.82723 0.14757 0.0
C1282 C 0.76975 0.84691 0.15556 0.0
C1283 C 0.74594 0.77885 0.13734 0.0
C1284 C 0.74315 0.74116 0.13783 0.0
C1285 C 0.7482 0.7953 0.12882 0.0
C1286 C 0.74801 0.83494 0.12768 0.0
C1287 C 0.77599 0.85209 0.12302 0.0
C1288 C 0.77582 0.88947 0.12196 0.0
C1289 C 0.74769 0.90994 0.12549 0.0
C1290 C 0.71959 0.89307 0.13006 0.0
C1291 C 0.71961 0.85571 0.13113 0.0
H1292 H 0.74763 0.93887 0.12466 0.0
H1293 H 0.71696 0.57823 0.13404 0.0
H1294 H 0.12395 0.2578 0.40661 0.0
H1295 H 0.15596 0.26 0.39226 0.0
H1296 H 0.24356 0.19949 0.40382 0.0
H1297 H 0.21271 0.1989 0.41815 0.0
H1298 H 0.27121 0.24791 0.3944 0.0
H1299 H 0.17616 0.16293 0.38895 0.0
H1300 H 0.11344 0.14154 0.38816 0.0
H1301 H 0.08854 0.22411 0.36905 0.0
H1302 H 0.15105 0.24627 0.36981 0.0
H1303 H 0.34854 0.17065 0.35485 0.0
H1304 H 0.31564 0.18015 0.36886 0.0
H1305 H 0.25744 0.26797 0.3568 0.0
H1306 H 0.29079 0.25924 0.34284 0.0
H1307 H 0.2139 0.21168 0.36585 0.0
H1308 H 0.31399 0.29155 0.37084 0.0
H1309 H 0.37833 0.30736 0.37155 0.0
H1310 H 0.39521 0.22664 0.39167 0.0
H1311 H 0.33104 0.20996 0.39098 0.0
C1312 C 0.15002 0.24499 0.40605 0.0
C1313 C 0.16582 0.22828 0.41351 0.0
C1314 C 0.16827 0.24608 0.39784 0.0
C1315 C 0.20218 0.22957 0.39688 0.0
C1316 C 0.21766 0.21268 0.40435 0.0
C1317 C 0.19987 0.21227 0.41256 0.0
C1318 C 0.22202 0.22985 0.38819 0.0
C1319 C 0.25859 0.23963 0.38819 0.0
C1320 C 0.20571 0.21979 0.37999 0.0
C1321 C 0.16815 0.20651 0.37952 0.0
C1322 C 0.15723 0.17669 0.38463 0.0
C1323 C 0.12174 0.1644 0.38418 0.0
C1324 C 0.097 0.18153 0.37858 0.0
C1325 C 0.10772 0.21092 0.3734 0.0
C1326 C 0.14318 0.22334 0.37383 0.0
C1327 C 0.32909 0.19229 0.35522 0.0
C1328 C 0.32241 0.21428 0.34775 0.0
C1329 C 0.3103 0.19765 0.36322 0.0
C1330 C 0.28407 0.22471 0.36385 0.0
C1331 C 0.27756 0.24694 0.35644 0.0
C1332 C 0.29684 0.24206 0.3485 0.0
C1333 C 0.26287 0.22903 0.37218 0.0
C1334 C 0.22619 0.22017 0.37208 0.0
C1335 C 0.27922 0.23914 0.38033 0.0
C1336 C 0.31776 0.24929 0.38079 0.0
C1337 C 0.33148 0.27695 0.37536 0.0
C1338 C 0.36791 0.28612 0.37577 0.0
C1339 C 0.39086 0.26796 0.38164 0.0
C1340 C 0.37741 0.24066 0.38712 0.0
C1341 C 0.341 0.23136 0.38673 0.0
H1342 H 0.41906 0.27509 0.38195 0.0
H1343 H 0.06953 0.17197 0.37824 0.0
H1344 H 0.25397 0.09523 0.22561 0.0
H1345 H 0.26833 0.11197 0.24111 0.0
H1346 H 0.35176 0.18297 0.23162 0.0
H1347 H 0.33808 0.16639 0.21632 0.0
H1348 H 0.37467 0.14637 0.24588 0.0
H1349 H 0.27027 0.21527 0.23772 0.0
H1350 H 0.20823 0.22372 0.23228 0.0
H1351 H 0.16797 0.16134 0.25428 0.0
H1352 H 0.22989 0.15201 0.25977 0.0
H1353 H 0.40311 0.25407 0.28452 0.0
H1354 H 0.38725 0.23561 0.26929 0.0
H1355 H 0.3041 0.16652 0.27975 0.0
H1356 H 0.31912 0.18513 0.29487 0.0
H1357 H 0.28062 0.20054 0.26516 0.0
H1358 H 0.38653 0.13463 0.27366 0.0
H1359 H 0.44878 0.1295 0.27914 0.0
H1360 H 0.48698 0.18774 0.25625 0.0
H1361 H 0.42473 0.19434 0.25076 0.0
C1362 C 0.27552 0.11419 0.22684 0.0
C1363 C 0.29463 0.12957 0.21968 0.0
C1364 C 0.28362 0.12385 0.2357 0.0
C1365 C 0.31097 0.14901 0.23753 0.0
C1366 C 0.33061 0.16352 0.2304 0.0
C1367 C 0.32253 0.15405 0.22161 0.0
C1368 C 0.31879 0.16128 0.24681 0.0
C1369 C 0.35415 0.15845 0.25007 0.0
C1370 C 0.29201 0.17672 0.25233 0.0
C1371 C 0.25474 0.1826 0.2491 0.0
C1372 C 0.24821 0.20312 0.24136 0.0
C1373 C 0.21307 0.2081 0.23827 0.0
C1374 C 0.18418 0.193 0.24292 0.0
C1375 C 0.19038 0.17297 0.25068 0.0
C1376 C 0.22549 0.16783 0.25378 0.0
C1377 C 0.38127 0.23517 0.28358 0.0
C1378 C 0.36257 0.22105 0.29096 0.0
C1379 C 0.3723 0.22452 0.27486 0.0
C1380 C 0.34471 0.1993 0.27337 0.0
C1381 C 0.32545 0.18597 0.28071 0.0
C1382 C 0.33427 0.19662 0.28939 0.0
C1383 C 0.33653 0.18572 0.26422 0.0
C1384 C 0.30111 0.1883 0.26099 0.0
C1385 C 0.36332 0.17021 0.2587 0.0
C1386 C 0.40089 0.16528 0.26184 0.0
C1387 C 0.40816 0.14654 0.26981 0.0
C1388 C 0.44346 0.14336 0.27293 0.0
C1389 C 0.47185 0.15821 0.26805 0.0
C1390 C 0.46496 0.17627 0.26003 0.0
C1391 C 0.42966 0.1798 0.25692 0.0
H1392 H 0.49916 0.15571 0.27048 0.0
H1393 H 0.15699 0.19689 0.24052 0.0
H1394 H 0.91045 0.75721 0.47513 0.0
H1395 H 0.8958 0.77449 0.49055 0.0
H1396 H 0.82025 0.85314 0.48072 0.0
H1397 H 0.83442 0.83619 0.46543 0.0
H1398 H 0.86124 0.87973 0.49457 0.0
H1399 H 0.79001 0.77507 0.48793 0.0
H1400 H 0.78025 0.71249 0.48306 0.0
H1401 H 0.84628 0.6743 0.50463 0.0
H1402 H 0.85693 0.73676 0.50955 0.0
H1403 H 0.76183 0.91102 0.53484 0.0
H1404 H 0.77909 0.89692 0.5194 0.0
H1405 H 0.84649 0.81051 0.52891 0.0
H1406 H 0.82897 0.82366 0.54418 0.0
H1407 H 0.80987 0.78832 0.51509 0.0
H1408 H 0.88107 0.89281 0.52187 0.0
H1409 H 0.89116 0.95537 0.52673 0.0
H1410 H 0.82607 0.9939 0.50502 0.0
H1411 H 0.81515 0.9315 0.5001 0.0
C1412 C 0.89089 0.77831 0.47626 0.0
C1413 C 0.87347 0.79505 0.46901 0.0
C1414 C 0.88249 0.78812 0.48507 0.0
C1415 C 0.85674 0.81499 0.48679 0.0
C1416 C 0.8402 0.83241 0.47957 0.0
C1417 C 0.84828 0.82246 0.4708 0.0
C1418 C 0.84583 0.82421 0.49607 0.0
C1419 C 0.84974 0.85983 0.49904 0.0
C1420 C 0.83122 0.79818 0.50194 0.0
C1421 C 0.82459 0.7606 0.49905 0.0
C1422 C 0.80269 0.75334 0.49159 0.0
C1423 C 0.79696 0.71789 0.48883 0.0
C1424 C 0.81271 0.68944 0.49352 0.0
C1425 C 0.83415 0.69638 0.50099 0.0
C1426 C 0.84003 0.73179 0.50378 0.0
C1427 C 0.78033 0.88904 0.53364 0.0
C1428 C 0.79389 0.86853 0.5408 0.0
C1429 C 0.79031 0.88108 0.52481 0.0
C1430 C 0.81436 0.85276 0.52298 0.0
C1431 C 0.82784 0.83237 0.53012 0.0
C1432 C 0.81778 0.8401 0.53889 0.0
C1433 C 0.82553 0.84387 0.51367 0.0
C1434 C 0.82153 0.80827 0.51066 0.0
C1435 C 0.84016 0.86993 0.50778 0.0
C1436 C 0.847 0.90747 0.51067 0.0
C1437 C 0.8687 0.91461 0.51817 0.0
C1438 C 0.8746 0.95004 0.52093 0.0
C1439 C 0.85918 0.97858 0.51621 0.0
C1440 C 0.83795 0.97176 0.50869 0.0
C1441 C 0.83192 0.93637 0.5059 0.0
H1442 H 0.86376 0.00599 0.51836 0.0
H1443 H 0.80824 0.662 0.49137 0.0
H1444 H 0.19724 0.32515 0.71641 0.0
H1445 H 0.17834 0.31359 0.73163 0.0
H1446 H 0.2293 0.4117 0.74031 0.0
H1447 H 0.24892 0.42372 0.72489 0.0
H1448 H 0.24225 0.35261 0.75173 0.0
H1449 H 0.1408 0.41052 0.73822 0.0
H1450 H 0.09551 0.42014 0.72642 0.0
H1451 H 0.05409 0.31369 0.73069 0.0
H1452 H 0.09952 0.30321 0.74243 0.0
H1453 H 0.162 0.34586 0.79429 0.0
H1454 H 0.17974 0.36512 0.77941 0.0
H1455 H 0.12183 0.27588 0.76792 0.0
H1456 H 0.10284 0.25686 0.78291 0.0
H1457 H 0.11238 0.33464 0.75804 0.0
H1458 H 0.21505 0.27437 0.77048 0.0
H1459 H 0.2612 0.26208 0.78192 0.0
H1460 H 0.30076 0.37014 0.77942 0.0
H1461 H 0.25462 0.38316 0.768 0.0
C1462 C 0.20471 0.34445 0.7215 0.0
C1463 C 0.22466 0.37555 0.71935 0.0
C1464 C 0.19365 0.33776 0.73024 0.0
C1465 C 0.20192 0.36199 0.7371 0.0
C1466 C 0.22249 0.39271 0.73509 0.0
C1467 C 0.23364 0.39955 0.72628 0.0
C1468 C 0.18869 0.35476 0.7463 0.0
C1469 C 0.21382 0.34939 0.75317 0.0
C1470 C 0.15164 0.3495 0.7481 0.0
C1471 C 0.12374 0.35601 0.74118 0.0
C1472 C 0.12216 0.38909 0.73662 0.0
C1473 C 0.09645 0.3947 0.72994 0.0
C1474 C 0.07197 0.36753 0.7278 0.0
C1475 C 0.07308 0.33472 0.73236 0.0
C1476 C 0.09877 0.32894 0.73903 0.0
C1477 C 0.15287 0.33022 0.78863 0.0
C1478 C 0.13123 0.29949 0.78983 0.0
C1479 C 0.16322 0.34128 0.78009 0.0
C1480 C 0.15284 0.32156 0.77253 0.0
C1481 C 0.13037 0.29144 0.77365 0.0
C1482 C 0.11958 0.28054 0.78223 0.0
C1483 C 0.16596 0.33222 0.76349 0.0
C1484 C 0.1408 0.33817 0.75665 0.0
C1485 C 0.20302 0.33774 0.76169 0.0
C1486 C 0.23118 0.32982 0.76845 0.0
C1487 C 0.23347 0.29557 0.7724 0.0
C1488 C 0.25963 0.28847 0.77888 0.0
C1489 C 0.2838 0.31536 0.78143 0.0
C1490 C 0.28198 0.34935 0.77746 0.0
C1491 C 0.25588 0.35659 0.77096 0.0
H1492 H 0.30399 0.30983 0.78646 0.0
H1493 H 0.05212 0.37191 0.72262 0.0
H1494 H 0.7464 0.5928 0.03471 0.0
H1495 H 0.72892 0.60827 0.01932 0.0
H1496 H 0.64691 0.67944 0.02943 0.0
H1497 H 0.66399 0.66439 0.04466 0.0
H1498 H 0.6225 0.63999 0.0152 0.0
H1499 H 0.7248 0.71315 0.02282 0.0
H1500 H 0.7869 0.72377 0.02797 0.0
H1501 H 0.82768 0.66248 0.00586 0.0
H1502 H 0.76572 0.65097 1.00067 0.0
H1503 H 0.58828 0.74741 0.97655 0.0
H1504 H 0.60455 0.72827 0.99172 0.0
H1505 H 0.6901 0.66282 0.98104 0.0
H1506 H 0.67456 0.68192 0.966 0.0
H1507 H 0.71286 0.69786 0.99548 0.0
H1508 H 0.61033 0.62575 0.98763 0.0
H1509 H 0.54814 0.61569 0.98247 0.0
H1510 H 0.50769 0.67499 1.00494 0.0
H1511 H 0.5697 0.68591 0.01017 0.0
C1512 C 0.72444 0.61146 0.03364 0.0
C1513 C 0.70686 0.62753 0.04095 0.0
C1514 C 0.71454 0.62037 0.02485 0.0
C1515 C 0.68675 0.64526 0.02323 0.0
C1516 C 0.66837 0.66019 0.0305 0.0
C1517 C 0.6784 0.65163 0.03924 0.0
C1518 C 0.67761 0.6572 0.014 0.0
C1519 C 0.64218 0.65287 0.01091 0.0
C1520 C 0.70335 0.67365 0.00836 0.0
C1521 C 0.74062 0.68086 0.01141 0.0
C1522 C 0.747 0.70169 0.0191 0.0
C1523 C 0.78217 0.70791 0.02202 0.0
C1524 C 0.81122 0.69373 0.01726 0.0
C1525 C 0.80515 0.67339 0.00955 0.0
C1526 C 0.77001 0.66701 0.00661 0.0
C1527 C 0.61067 0.72911 0.97744 0.0
C1528 C 0.63001 0.71629 0.97001 0.0
C1529 C 0.61986 0.71804 0.98612 0.0
C1530 C 0.6484 0.6938 0.98753 0.0
C1531 C 0.66805 0.68154 0.98014 0.0
C1532 C 0.65895 0.69251 0.97151 0.0
C1533 C 0.65771 0.68063 0.99665 0.0
C1534 C 0.69317 0.68481 0.99974 0.0
C1535 C 0.63199 0.66401 1.00229 0.0
C1536 C 0.59467 0.65694 0.99925 0.0
C1537 C 0.58818 0.63684 0.99145 0.0
C1538 C 0.55297 0.63096 0.98851 0.0
C1539 C 0.52399 0.64477 0.99336 0.0
C1540 C 0.53017 0.66436 1.00118 0.0
C1541 C 0.56534 0.67038 1.00414 0.0
H1542 H 0.49675 0.64022 0.99107 0.0
H1543 H 0.83843 0.69857 0.01953 0.0
H1544 H 0.2531 0.41921 0.03548 0.0
H1545 H 0.26806 0.4044 0.01991 0.0
H1546 H 0.34145 0.32241 0.02905 0.0
H1547 H 0.32699 0.33679 0.04445 0.0
H1548 H 0.37108 0.36224 0.01579 0.0
H1549 H 0.2596 0.3 0.02145 0.0
H1550 H 0.19589 0.29557 0.0259 0.0
H1551 H 0.16624 0.36727 1.00461 0.0
H1552 H 0.2299 0.37256 1.00012 0.0
H1553 H 0.39813 0.26242 0.97565 0.0
H1554 H 0.38334 0.28041 0.99098 0.0
H1555 H 0.30419 0.35499 0.9809 0.0
H1556 H 0.31791 0.33666 0.9657 0.0
H1557 H 0.27733 0.32095 0.99456 0.0
H1558 H 0.38848 0.38236 0.9886 0.0
H1559 H 0.45212 0.38683 0.9841 0.0
H1560 H 0.48252 0.31773 0.00584 0.0
H1561 H 0.41896 0.3124 0.0104 0.0
C1562 C 0.27242 0.39807 0.03417 0.0
C1563 C 0.28864 0.37917 0.04125 0.0
C1564 C 0.28092 0.38959 0.02527 0.0
C1565 C 0.30581 0.36217 0.02331 0.0
C1566 C 0.32229 0.34372 0.03038 0.0
C1567 C 0.31376 0.35197 0.03921 0.0
C1568 C 0.31455 0.35192 0.01395 0.0
C1569 C 0.35063 0.35296 0.01117 0.0
C1570 C 0.28784 0.34036 0.00786 0.0
C1571 C 0.24955 0.337 0.01051 0.0
C1572 C 0.23953 0.31505 0.01776 0.0
C1573 C 0.20342 0.31235 0.02028 0.0
C1574 C 0.17704 0.3312 0.01555 0.0
C1575 C 0.18671 0.35273 0.00828 0.0
C1576 C 0.2228 0.35558 0.00574 0.0
C1577 C 0.37759 0.28264 0.9767 0.0
C1578 C 0.3593 0.29802 0.96941 0.0
C1579 C 0.36924 0.29303 0.98547 0.0
C1580 C 0.34284 0.31938 0.98711 0.0
C1581 C 0.32456 0.33459 0.97984 0.0
C1582 C 0.33262 0.32407 0.97112 0.0
C1583 C 0.33394 0.33123 0.99637 0.0
C1584 C 0.29783 0.33043 0.99915 0.0
C1585 C 0.36063 0.34314 1.00244 0.0
C1586 C 0.39892 0.34671 0.99979 0.0
C1587 C 0.40871 0.36793 0.99239 0.0
C1588 C 0.44477 0.37064 0.98983 0.0
C1589 C 0.47134 0.3525 0.99467 0.0
C1590 C 0.46191 0.33172 1.0021 0.0
C1591 C 0.42587 0.32887 1.00467 0.0
H1592 H 0.49924 0.3546 0.99267 0.0
H1593 H 0.1491 0.32907 0.01751 0.0
H1594 H 0.59752 0.76018 0.2839 0.0
H1595 H 0.61258 0.77745 0.26849 0.0
H1596 H 0.67626 0.86581 0.27838 0.0
H1597 H 0.6616 0.84893 0.29366 0.0
H1598 H 0.63542 0.88538 0.2638 0.0
H1599 H 0.71685 0.79099 0.27247 0.0
H1600 H 0.7326 0.73073 0.27815 0.0
H1601 H 0.67667 0.68199 0.25615 0.0
H1602 H 0.66004 0.74202 0.25042 0.0
H1603 H 0.74031 0.92348 0.22484 0.0
H1604 H 0.72139 0.90885 0.24013 0.0
H1605 H 0.66653 0.81441 0.23041 0.0
H1606 H 0.68574 0.82816 0.21529 0.0
H1607 H 0.70212 0.79813 0.24498 0.0
H1608 H 0.6211 0.89262 0.23615 0.0
H1609 H 0.60505 0.95292 0.23054 0.0
H1610 H 0.65968 1.00151 0.25276 0.0
H1611 H 0.67651 0.94147 0.25843 0.0
C1612 C 0.61444 0.78346 0.28278 0.0
C1613 C 0.62857 0.80292 0.29004 0.0
C1614 C 0.62311 0.79325 0.27398 0.0
C1615 C 0.64579 0.82279 0.2723 0.0
C1616 C 0.65874 0.84297 0.27951 0.0
C1617 C 0.65043 0.83307 0.28827 0.0
C1618 C 0.65756 0.83193 0.26307 0.0
C1619 C 0.65023 0.86642 0.2597 0.0
C1620 C 0.67655 0.80708 0.2577 0.0
C1621 C 0.68687 0.77098 0.26107 0.0
C1622 C 0.70766 0.76742 0.26888 0.0
C1623 C 0.71678 0.73331 0.2721 0.0
C1624 C 0.70557 0.70255 0.26753 0.0
C1625 C 0.68529 0.70584 0.2597 0.0
C1626 C 0.67601 0.7399 0.25646 0.0
C1627 C 0.72428 0.89958 0.22597 0.0
C1628 C 0.71465 0.87708 0.21879 0.0
C1629 C 0.71332 0.89131 0.23471 0.0
C1630 C 0.69222 0.86063 0.23643 0.0
C1631 C 0.68284 0.83814 0.22928 0.0
C1632 C 0.69385 0.84621 0.2206 0.0
C1633 C 0.67979 0.8516 0.24563 0.0
C1634 C 0.68713 0.81711 0.24903 0.0
C1635 C 0.66076 0.87646 0.25102 0.0
C1636 C 0.65037 0.91256 0.24767 0.0
C1637 C 0.6299 0.91617 0.23981 0.0
C1638 C 0.62064 0.9503 0.23662 0.0
C1639 C 0.63142 0.98103 0.24128 0.0
C1640 C 0.65139 0.97768 0.24915 0.0
C1641 C 0.66078 0.94361 0.25236 0.0
H1642 H 0.62424 0.00743 0.23879 0.0
H1643 H 0.71266 0.67616 0.27003 0.0
H1644 H 0.17608 0.17442 0.46675 0.0
H1645 H 0.18996 0.15527 0.48187 0.0
H1646 H 0.10389 0.22129 0.49204 0.0
H1647 H 0.08968 0.24113 0.47677 0.0
H1648 H 0.16623 0.22756 0.50198 0.0
H1649 H 0.09319 0.13163 0.49065 0.0
H1650 H 0.07514 0.08537 0.47973 0.0
H1651 H 0.1766 0.03189 0.48315 0.0
H1652 H 0.19549 0.07816 0.494 0.0
H1653 H 0.16114 0.15563 0.54514 0.0
H1654 H 0.14508 0.17114 0.5299 0.0
H1655 H 0.23083 0.10411 0.51997 0.0
H1656 H 0.24719 0.08788 0.53539 0.0
H1657 H 0.16872 0.09781 0.50986 0.0
H1658 H 0.24315 0.19356 0.52048 0.0
H1659 H 0.26343 0.24017 0.53104 0.0
H1660 H 0.16144 0.29366 0.52878 0.0
H1661 H 0.1405 0.24722 0.5182 0.0
C1662 C 0.15993 0.18508 0.47215 0.0
C1663 C 0.13161 0.20941 0.47049 0.0
C1664 C 0.16789 0.17385 0.48083 0.0
C1665 C 0.14768 0.18639 0.48809 0.0
C1666 C 0.11975 0.21113 0.48652 0.0
C1667 C 0.11164 0.22243 0.47779 0.0
C1668 C 0.15626 0.17377 0.49729 0.0
C1669 C 0.16616 0.19924 0.50374 0.0
C1670 C 0.15735 0.13669 0.49951 0.0
C1671 C 0.14587 0.10854 0.49308 0.0
C1672 C 0.11176 0.11014 0.48903 0.0
C1673 C 0.10136 0.0839 0.48286 0.0
C1674 C 0.12474 0.05575 0.48074 0.0
C1675 C 0.15853 0.05373 0.4848 0.0
C1676 C 0.16908 0.07994 0.49097 0.0
C1677 C 0.1767 0.14391 0.53976 0.0
C1678 C 0.20587 0.12076 0.54154 0.0
C1679 C 0.16743 0.15297 0.53102 0.0
C1680 C 0.18716 0.13941 0.52379 0.0
C1681 C 0.21537 0.1151 0.52546 0.0
C1682 C 0.22471 0.10586 0.53427 0.0
C1683 C 0.17853 0.15164 0.51455 0.0
C1684 C 0.16868 0.12612 0.5081 0.0
C1685 C 0.17769 0.18866 0.51229 0.0
C1686 C 0.19017 0.21676 0.51861 0.0
C1687 C 0.22497 0.21514 0.52227 0.0
C1688 C 0.2366 0.24156 0.52825 0.0
C1689 C 0.21368 0.26979 0.53061 0.0
C1690 C 0.17914 0.27175 0.52695 0.0
C1691 C 0.16741 0.24544 0.52095 0.0
H1692 H 0.22272 0.29019 0.53526 0.0
H1693 H 0.11665 0.03547 0.47595 0.0
H1694 H 0.85323 0.66529 0.71699 0.0
H1695 H 0.87014 0.68145 0.73217 0.0
H1696 H 0.77747 0.62514 0.74238 0.0
H1697 H 0.76018 0.60845 0.72706 0.0
H1698 H 0.78702 0.69493 0.74968 0.0
H1699 H 0.85637 0.58792 0.74487 0.0
H1700 H 0.89828 0.54845 0.73671 0.0
H1701 H 0.98147 0.62801 0.73901 0.0
H1702 H 0.93986 0.66824 0.74707 0.0
H1703 H 0.83066 0.6898 0.79501 0.0
H1704 H 0.81768 0.67414 0.77966 0.0
H1705 H 0.91593 0.72528 0.77112 0.0
H1706 H 0.9298 0.74091 0.78674 0.0
H1707 H 0.90489 0.66022 0.7627 0.0
H1708 H 0.83669 0.76677 0.76781 0.0
H1709 H 0.79526 0.80651 0.77605 0.0
H1710 H 0.71035 0.7292 0.77302 0.0
H1711 H 0.75144 0.68867 0.7649 0.0
C1712 C 0.83634 0.65612 0.72243 0.0
C1713 C 0.80524 0.63549 0.72077 0.0
C1714 C 0.8462 0.66536 0.73113 0.0
C1715 C 0.82523 0.65437 0.73841 0.0
C1716 C 0.79407 0.63387 0.73683 0.0
C1717 C 0.78431 0.62423 0.72809 0.0
C1718 C 0.83581 0.6649 0.74763 0.0
C1719 C 0.81255 0.68692 0.75258 0.0
C1720 C 0.86969 0.65549 0.75129 0.0
C1721 C 0.89487 0.63125 0.7465 0.0
C1722 C 0.88351 0.59714 0.74357 0.0
C1723 C 0.90723 0.5746 0.73897 0.0
C1724 C 0.94249 0.58575 0.73732 0.0
C1725 C 0.95413 0.61943 0.74028 0.0
C1726 C 0.9305 0.64211 0.74488 0.0
C1727 C 0.84973 0.69798 0.78993 0.0
C1728 C 0.88126 0.71704 0.79217 0.0
C1729 C 0.84208 0.68898 0.7811 0.0
C1730 C 0.86545 0.69903 0.7742 0.0
C1731 C 0.89737 0.71744 0.77635 0.0
C1732 C 0.90519 0.72648 0.78527 0.0
C1733 C 0.85596 0.69003 0.76479 0.0
C1734 C 0.87942 0.66837 0.75979 0.0
C1735 C 0.82231 0.69994 0.76106 0.0
C1736 C 0.79726 0.72454 0.7658 0.0
C1737 C 0.80924 0.75813 0.76894 0.0
C1738 C 0.78582 0.78081 0.77359 0.0
C1739 C 0.75022 0.77035 0.77507 0.0
C1740 C 0.73794 0.73725 0.77188 0.0
C1741 C 0.76129 0.71442 0.76724 0.0
H1742 H 0.73213 0.78793 0.77868 0.0
H1743 H 0.96082 0.56826 0.73376 0.0
H1744 H 0.12349 0.1061 0.2117 0.0
H1745 H 0.06341 0.07872 0.21204 0.0
H1746 H 0.09786 0.99919 0.19288 0.0
H1747 H 0.15705 0.02672 0.19231 0.0
H1748 H 0.03323 0.02035 0.18875 0.0
H1749 H 0.09185 0.98158 0.21586 0.0
H1750 H 0.12328 0.99002 0.23023 0.0
H1751 H 0.03274 0.04865 0.24048 0.0
H1752 H 1.00095 0.04095 0.22612 0.0
H1753 H 0.89827 0.88812 0.19431 0.0
H1754 H 0.95759 0.91664 0.19554 0.0
H1755 H 0.91164 1.00182 0.21139 0.0
H1756 H 0.85242 0.97373 0.21016 0.0
H1757 H 0.98028 0.97962 0.21748 0.0
H1758 H 0.92128 0.01654 0.19039 0.0
H1759 H 0.88938 0.00584 0.17619 0.0
H1760 H 0.98119 0.94921 0.16595 0.0
H1761 H 0.0134 0.95896 0.18017 0.0
C1762 C 0.11813 0.08297 0.20751 0.0
C1763 C 0.14529 0.06856 0.20203 0.0
C1764 C 0.08383 0.06717 0.20775 0.0
C1765 C 0.07615 0.03647 0.20258 0.0
C1766 C 0.10298 0.02275 0.19694 0.0
C1767 C 0.13701 0.03855 0.19667 0.0
C1768 C 0.04053 0.01804 0.20304 0.0
C1769 C 0.02193 0.01116 0.19504 0.0
C1770 C 0.02521 0.00653 0.21124 0.0
C1771 C 0.0442 0.01103 0.21989 0.0
C1772 C 0.07876 0.9965 0.22115 0.0
C1773 C 0.09661 1.00111 0.2293 0.0
C1774 C 0.08006 0.01995 0.23625 0.0
C1775 C 0.04555 0.03412 0.23508 0.0
C1776 C 0.0276 0.02962 0.22694 0.0
C1777 C 0.90096 0.91247 0.19822 0.0
C1778 C 0.87061 0.92876 0.20209 0.0
C1779 C 0.93482 0.92885 0.19888 0.0
C1780 C 0.93893 0.96158 0.20348 0.0
C1781 C 0.9091 0.97664 0.20781 0.0
C1782 C 0.87524 0.96057 0.20707 0.0
C1783 C 0.97355 0.98157 0.2032 0.0
C1784 C 0.99174 0.98886 0.21121 0.0
C1785 C 0.9886 0.99336 0.19502 0.0
C1786 C 0.96962 0.98817 0.18638 0.0
C1787 C 0.93458 1.00158 0.18514 0.0
C1788 C 0.91644 0.9957 0.17708 0.0
C1789 C 0.93321 0.97678 0.17018 0.0
C1790 C 0.96821 0.96381 0.17131 0.0
C1791 C 0.98643 0.96951 0.17936 0.0
H1792 H 0.91912 0.97223 0.16395 0.0
H1793 H 0.09392 0.0235 0.24255 0.0
H1794 H 0.10437 0.38958 0.43902 0.0
H1795 H 0.0745 0.44804 0.43997 0.0
H1796 H 0.01074 0.40957 0.46212 0.0
H1797 H 0.03913 0.35055 0.46083 0.0
H1798 H 0.96901 0.44323 0.45217 0.0
H1799 H 0.08395 0.47342 0.46408 0.0
H1800 H 0.15013 0.47742 0.46463 0.0
H1801 H 0.15 0.54151 0.44073 0.0
H1802 H 0.08382 0.53751 0.43998 0.0
H1803 H 0.96504 0.65412 0.45974 0.0
H1804 H 0.99389 0.59538 0.46126 0.0
H1805 H 0.92505 0.55309 0.44053 0.0
H1806 H 0.89487 0.61131 0.43936 0.0
H1807 H 0.03326 0.55997 0.45104 0.0
H1808 H 0.91563 0.46386 0.44172 0.0
H1809 H 0.84979 0.46014 0.44356 0.0
H1810 H 0.85582 0.52826 0.46668 0.0
H1811 H 0.92172 0.53201 0.46505 0.0
C1812 C 0.08438 0.3938 0.44418 0.0
C1813 C 0.07424 0.3655 0.44988 0.0
C1814 C 0.0673 0.42734 0.44474 0.0
C1815 C 0.04046 0.43367 0.4512 0.0
C1816 C 0.03114 0.40557 0.45705 0.0
C1817 C 0.04759 0.37185 0.45635 0.0
C1818 C 0.02098 0.46886 0.45161 0.0
C1819 C 0.98317 0.46872 0.45196 0.0
C1820 C 0.03915 0.50238 0.45151 0.0
C1821 C 0.07895 0.50488 0.45193 0.0
C1822 C 0.09805 0.48816 0.45891 0.0
C1823 C 0.13556 0.49046 0.45926 0.0
C1824 C 0.15426 0.50964 0.45271 0.0
C1825 C 0.13548 0.52663 0.4458 0.0
C1826 C 0.09797 0.52439 0.44541 0.0
C1827 C 0.95558 0.63206 0.45563 0.0
C1828 C 0.92743 0.63728 0.44949 0.0
C1829 C 0.97229 0.59849 0.45646 0.0
C1830 C 0.96167 0.56942 0.45106 0.0
C1831 C 0.93332 0.57461 0.44495 0.0
C1832 C 0.91604 0.60801 0.44426 0.0
C1833 C 0.98129 0.53432 0.45157 0.0
C1834 C 0.01912 0.53448 0.45132 0.0
C1835 C 0.96318 0.50085 0.45212 0.0
C1836 C 0.92358 0.49849 0.4532 0.0
C1837 C 0.90292 0.47793 0.44722 0.0
C1838 C 0.86559 0.47584 0.44822 0.0
C1839 C 0.84862 0.49404 0.45522 0.0
C1840 C 0.86897 0.51428 0.46124 0.0
C1841 C 0.90631 0.51643 0.46028 0.0
H1842 H 0.81972 0.49241 0.45598 0.0
H1843 H 0.1833 0.51139 0.45299 0.0
H1844 H 0.36287 0.46717 0.70936 0.0
H1845 H 0.42143 0.49673 0.71031 0.0
H1846 H 0.46174 0.42795 0.68935 0.0
H1847 H 0.40369 0.39695 0.68875 0.0
H1848 H 0.51337 0.43924 0.70013 0.0
H1849 H 0.42987 0.5168 0.6856 0.0
H1850 H 0.37274 0.54988 0.68395 0.0
H1851 H 0.39778 0.61283 0.70719 0.0
H1852 H 0.45479 0.57965 0.70907 0.0
H1853 H 0.62575 0.61063 0.6881 0.0
H1854 H 0.56736 0.58014 0.68848 0.0
H1855 H 0.60171 0.51909 0.71151 0.0
H1856 H 0.66062 0.54804 0.71083 0.0
H1857 H 0.51286 0.57263 0.69868 0.0
H1858 H 0.56874 0.43583 0.71147 0.0
H1859 H 0.62591 0.40211 0.71114 0.0
H1860 H 0.65675 0.45711 0.68708 0.0
H1861 H 0.59952 0.49064 0.68717 0.0
C1862 C 0.38442 0.45795 0.70506 0.0
C1863 C 0.37861 0.42981 0.69896 0.0
C1864 C 0.41786 0.47509 0.70555 0.0
C1865 C 0.44592 0.4654 0.69973 0.0
C1866 C 0.44062 0.43617 0.6939 0.0
C1867 C 0.40738 0.4184 0.69356 0.0
C1868 C 0.4801 0.48662 0.69946 0.0
C1869 C 0.51317 0.46839 0.69983 0.0
C1870 C 0.48019 0.52471 0.69878 0.0
C1871 C 0.44648 0.54554 0.69751 0.0
C1872 C 0.42314 0.53762 0.69037 0.0
C1873 C 0.39076 0.55636 0.68941 0.0
C1874 C 0.38161 0.58339 0.69548 0.0
C1875 C 0.4049 0.59185 0.7025 0.0
C1876 C 0.43726 0.5731 0.70352 0.0
C1877 C 0.62065 0.59103 0.69331 0.0
C1878 C 0.64789 0.58152 0.69939 0.0
C1879 C 0.58722 0.57356 0.69352 0.0
C1880 C 0.58022 0.54655 0.69989 0.0
C1881 C 0.60665 0.53894 0.70635 0.0
C1882 C 0.64028 0.55575 0.70601 0.0
C1883 C 0.5461 0.52528 0.69954 0.0
C1884 C 0.51304 0.54348 0.69901 0.0
C1885 C 0.54607 0.48709 0.69969 0.0
C1886 C 0.57996 0.46598 0.69938 0.0
C1887 C 0.5876 0.44051 0.70607 0.0
C1888 C 0.62004 0.42147 0.70593 0.0
C1889 C 0.64499 0.42754 0.69911 0.0
C1890 C 0.63744 0.45248 0.69237 0.0
C1891 C 0.605 0.47149 0.69246 0.0
H1892 H 0.67014 0.41288 0.69903 0.0
H1893 H 0.35649 0.59782 0.69473 0.0
H1894 H 0.38109 0.11465 0.93981 0.0
H1895 H 0.40926 0.0557 0.94171 0.0
H1896 H 0.47501 0.09806 0.96304 0.0
H1897 H 0.4483 0.15742 0.96081 0.0
H1898 H 0.51543 0.06053 0.95348 0.0
H1899 H 0.40021 0.03682 0.96617 0.0
H1900 H 0.334 0.03484 0.96698 0.0
H1901 H 0.3309 0.96476 0.94419 0.0
H1902 H 0.3971 0.9667 0.94316 0.0
H1903 H 0.56434 0.88101 0.96936 0.0
H1904 H 0.53726 0.94123 0.96838 0.0
H1905 H 0.50458 0.91967 0.94127 0.0
H1906 H 0.53232 0.86017 0.94207 0.0
H1907 H 0.44789 0.94557 0.95444 0.0
H1908 H 0.56586 0.97238 0.94224 0.0
H1909 H 0.63215 0.97365 0.94267 0.0
H1910 H 0.629 0.03749 0.96657 0.0
H1911 H 0.56263 0.03611 0.96635 0.0
C1912 C 0.40115 0.11121 0.945 0.0
C1913 C 0.41233 0.14065 0.95019 0.0
C1914 C 0.41724 0.0774 0.94611 0.0
C1915 C 0.44412 0.072 0.95261 0.0
C1916 C 0.45452 0.1013 0.95796 0.0
C1917 C 0.43904 0.13524 0.95671 0.0
C1918 C 0.46259 0.03643 0.95358 0.0
C1919 C 0.50044 0.03555 0.95383 0.0
C1920 C 0.44343 0.00345 0.95394 0.0
C1921 C 0.40361 1.00219 0.95454 0.0
C1922 C 0.3854 0.0212 0.96129 0.0
C1923 C 0.34787 0.02005 0.9618 0.0
C1924 C 0.32825 0.99976 0.95563 0.0
C1925 C 0.34613 0.9805 0.94896 0.0
C1926 C 0.38366 0.98159 0.94841 0.0
C1927 C 0.5519 0.88934 0.96315 0.0
C1928 C 0.55069 0.86582 0.95579 0.0
C1929 C 0.53637 0.92367 0.96261 0.0
C1930 C 0.51878 0.93475 0.95476 0.0
C1931 C 0.51796 0.91157 0.94738 0.0
C1932 C 0.53411 0.87765 0.94785 0.0
C1933 C 0.50026 0.9701 0.9543 0.0
C1934 C 0.46254 0.97078 0.95414 0.0
C1935 C 0.51944 1.00288 0.95422 0.0
C1936 C 0.5593 0.00375 0.95434 0.0
C1937 C 0.5793 0.98635 0.94764 0.0
C1938 C 0.61689 0.98717 0.94784 0.0
C1939 C 0.63478 0.00554 0.95466 0.0
C1940 C 0.61511 0.02321 0.9613 0.0
C1941 C 0.57751 0.02243 0.96114 0.0
H1942 H 0.66388 0.00616 0.9548 0.0
H1943 H 0.2992 0.9989 0.95604 0.0
H1944 H 0.15856 0.49271 0.06671 0.0
H1945 H 0.099 0.51934 0.06606 0.0
H1946 H 0.05832 0.42449 0.05291 0.0
H1947 H 0.11872 0.39763 0.05334 0.0
H1948 H 0.03261 0.48458 0.04508 0.0
H1949 H 0.04003 0.44079 0.07502 0.0
H1950 H 0.06718 0.43198 0.0899 0.0
H1951 H 0.06401 0.54589 0.09456 0.0
H1952 H 0.03731 0.55545 0.07965 0.0
H1953 H 0.84805 0.52793 0.05285 0.0
H1954 H 0.90761 0.50061 0.05212 0.0
H1955 H 0.95372 0.59523 0.06422 0.0
H1956 H 0.89386 0.6228 0.06505 0.0
H1957 H 0.97576 0.53352 0.0725 0.0
H1958 H 0.96817 0.57663 0.04232 0.0
H1959 H 0.94043 0.58435 0.02746 0.0
H1960 H 0.94261 0.47004 0.0234 0.0
H1961 H 0.96992 0.46159 0.03829 0.0
C1962 C 0.13708 0.47727 0.06368 0.0
C1963 C 0.14357 0.44285 0.06009 0.0
C1964 C 0.10285 0.49259 0.06336 0.0
C1965 C 0.07393 0.4738 0.05955 0.0
C1966 C 0.08019 0.43949 0.05591 0.0
C1967 C 0.11469 0.42409 0.05619 0.0
C1968 C 0.03744 0.49048 0.05935 0.0
C1969 C 0.01991 0.49475 0.0511 0.0
C1970 C 0.02111 0.5045 0.06717 0.0
C1971 C 0.03694 0.49885 0.07618 0.0
C1972 C 0.04535 0.46399 0.07919 0.0
C1973 C 0.06063 0.45886 0.08763 0.0
C1974 C 0.06739 0.48837 0.09316 0.0
C1975 C 0.05879 0.52306 0.09027 0.0
C1976 C 0.04354 0.52835 0.08182 0.0
C1977 C 0.87087 0.54321 0.05526 0.0
C1978 C 0.8661 0.5776 0.05903 0.0
C1979 C 0.905 0.52754 0.05481 0.0
C1980 C 0.93524 0.54586 0.05809 0.0
C1981 C 0.93077 0.58057 0.06165 0.0
C1982 C 0.89657 0.59641 0.06206 0.0
C1983 C 0.9711 0.52794 0.05823 0.0
C1984 C 0.98845 0.52334 0.06648 0.0
C1985 C 0.98708 0.51343 0.05042 0.0
C1986 C 0.97078 0.51846 0.04146 0.0
C1987 C 0.96247 0.55311 0.03829 0.0
C1988 C 0.94687 0.55763 0.02986 0.0
C1989 C 0.93967 0.5277 0.0245 0.0
C1990 C 0.94816 0.4932 0.02756 0.0
C1991 C 0.96373 0.48853 0.03599 0.0
H1992 H 0.9276 0.53125 0.01797 0.0
H1993 H 0.07923 0.48434 0.0997 0.0
H1994 H 0.54444 0.66021 0.29882 0.0
H1995 H 0.51662 0.60115 0.29703 0.0
H1996 H 0.5838 0.55901 0.31812 0.0
H1997 H 0.61314 0.61774 0.31957 0.0
H1998 H 0.57539 0.50911 0.30655 0.0
H1999 H 0.49352 0.58763 0.32138 0.0
H2000 H 0.45827 0.6432 0.32345 0.0
H2001 H 0.39893 0.6208 0.29946 0.0
H2002 H 0.4343 0.56539 0.29716 0.0
H2003 H 0.45889 0.36502 0.31897 0.0
H2004 H 0.48594 0.4249 0.31954 0.0
H2005 H 0.45102 0.44543 0.29255 0.0
H2006 H 0.42456 0.38494 0.2918 0.0
H2007 H 0.44191 0.50546 0.30705 0.0
H2008 H 0.52781 0.42444 0.29296 0.0
H2009 H 0.56251 0.36794 0.29245 0.0
H2010 H 0.61319 0.3947 0.31737 0.0
H2011 H 0.57821 0.45106 0.31811 0.0
C2012 C 0.55368 0.63818 0.30298 0.0
C2013 C 0.58087 0.64365 0.30937 0.0
C2014 C 0.53752 0.60445 0.30201 0.0
C2015 C 0.54724 0.57568 0.30762 0.0
C2016 C 0.57557 0.5807 0.31374 0.0
C2017 C 0.59239 0.61431 0.31456 0.0
C2018 C 0.52699 0.54095 0.30733 0.0
C2019 C 0.54624 0.50848 0.30674 0.0
C2020 C 0.4888 0.53972 0.30757 0.0
C2021 C 0.46679 0.57252 0.30905 0.0
C2022 C 0.47306 0.59463 0.31652 0.0
C2023 C 0.45308 0.62611 0.31773 0.0
C2024 C 0.42643 0.63556 0.31158 0.0
C2025 C 0.41962 0.61346 0.30421 0.0
C2026 C 0.43962 0.58201 0.30295 0.0
C2027 C 0.45633 0.38242 0.31319 0.0
C2028 C 0.43954 0.37013 0.30532 0.0
C2029 C 0.47194 0.41661 0.31353 0.0
C2030 C 0.47058 0.43949 0.30608 0.0
C2031 C 0.45228 0.42814 0.29837 0.0
C2032 C 0.43724 0.39359 0.29796 0.0
C2033 C 0.49041 0.47417 0.30618 0.0
C2034 C 0.47105 0.50643 0.3068 0.0
C2035 C 0.52844 0.47519 0.30619 0.0
C2036 C 0.55013 0.44178 0.30563 0.0
C2037 C 0.54613 0.41813 0.29837 0.0
C2038 C 0.56588 0.38616 0.29803 0.0
C2039 C 0.58999 0.3777 0.30489 0.0
C2040 C 0.59448 0.40127 0.31208 0.0
C2041 C 0.57471 0.43324 0.31245 0.0
H2042 H 0.60523 0.35292 0.30462 0.0
H2043 H 0.41102 0.65996 0.31252 0.0
H2044 H 0.61023 0.8771 0.56499 0.0
H2045 H 0.55045 0.90433 0.56346 0.0
H2046 H 0.5983 0.99915 0.55183 0.0
H2047 H 0.65779 0.97256 0.55348 0.0
H2048 H 0.55176 0.01881 0.56381 0.0
H2049 H 0.55092 0.93616 0.53918 0.0
H2050 H 0.5566 0.87705 0.53184 0.0
H2051 H 0.47052 0.83563 0.54798 0.0
H2052 H 0.46465 0.8944 0.5555 0.0
H2053 H 0.36312 0.04347 0.54082 0.0
H2054 H 0.4241 0.01894 0.54132 0.0
H2055 H 0.42619 0.0329 0.56993 0.0
H2056 H 0.36554 0.05806 0.56948 0.0
H2057 H 0.44819 0.95976 0.54895 0.0
H2058 H 0.51187 0.04591 0.57704 0.0
H2059 H 0.50775 0.10745 0.58312 0.0
H2060 H 0.47108 0.14645 0.55768 0.0
H2061 H 0.47543 0.08526 0.55141 0.0
C2062 C 0.60795 0.90357 0.56202 0.0
C2063 C 0.63887 0.92263 0.55939 0.0
C2064 C 0.57372 0.91914 0.56114 0.0
C2065 C 0.56973 0.95387 0.55751 0.0
C2066 C 0.60057 0.97249 0.55471 0.0
C2067 C 0.63465 0.95712 0.55563 0.0
C2068 C 0.53373 0.97144 0.55682 0.0
C2069 C 0.52913 0.00581 0.56056 0.0
C2070 C 0.50419 0.95488 0.55248 0.0
C2071 C 0.50759 0.91957 0.54796 0.0
C2072 C 0.53339 0.91437 0.54121 0.0
C2073 C 0.53661 0.88094 0.53701 0.0
C2074 C 0.514 0.85258 0.53946 0.0
C2075 C 0.48805 0.85761 0.5461 0.0
C2076 C 0.48474 0.89098 0.55032 0.0
C2077 C 0.37674 0.04191 0.54721 0.0
C2078 C 0.35937 0.05292 0.5551 0.0
C2079 C 0.41157 0.02761 0.54749 0.0
C2080 C 0.42989 0.02405 0.55566 0.0
C2081 C 0.41291 0.03577 0.56353 0.0
C2082 C 0.37815 0.05022 0.56325 0.0
C2083 C 0.46622 0.00703 0.55597 0.0
C2084 C 0.47083 0.97271 0.55219 0.0
C2085 C 0.49598 0.02394 0.56012 0.0
C2086 C 0.49363 0.06092 0.56379 0.0
C2087 C 0.50305 0.06765 0.57274 0.0
C2088 C 0.50065 0.10246 0.57622 0.0
C2089 C 0.48905 0.13081 0.5708 0.0
C2090 C 0.47993 0.12444 0.56188 0.0
C2091 C 0.48231 0.08969 0.55836 0.0
H2092 H 0.48719 0.15774 0.57351 0.0
H2093 H 0.51653 0.82672 0.5362 0.0
H2094 H 0.02318 0.15937 0.80119 0.0
H2095 H 0.99599 0.09981 0.80046 0.0
H2096 H 0.08981 0.05415 0.8131 0.0
H2097 H 0.11774 0.11394 0.81364 0.0
H2098 H 0.06525 0.01008 0.80041 0.0
H2099 H 0.01286 0.07365 0.82502 0.0
H2100 H 0.9825 0.12479 0.8323 0.0
H2101 H 0.89036 0.10991 0.81539 0.0
H2102 H 0.92046 0.05905 0.80789 0.0
H2103 H 0.98999 0.85042 0.81708 0.0
H2104 H 0.01561 0.91028 0.81582 0.0
H2105 H 0.92186 0.94613 0.80136 0.0
H2106 H 0.89553 0.8856 0.80263 0.0
H2107 H 0.94474 0.99538 0.81423 0.0
H2108 H 0.9979 0.92898 0.79013 0.0
H2109 H 0.02936 0.87738 0.78334 0.0
H2110 H 0.12113 0.89684 0.80009 0.0
H2111 H 0.09001 0.94827 0.80707 0.0
C2112 C 0.03825 0.13665 0.80375 0.0
C2113 C 0.07254 0.14149 0.80756 0.0
C2114 C 0.02255 0.10257 0.80336 0.0
C2115 C 0.04042 0.07252 0.80692 0.0
C2116 C 0.07537 0.07694 0.81036 0.0
C2117 C 0.09133 0.11113 0.81066 0.0
C2118 C 0.02207 0.03689 0.80731 0.0
C2119 C 0.03908 0.00684 0.80352 0.0
C2120 C 0.98753 0.03265 0.8112 0.0
C2121 C 0.96906 0.06275 0.81583 0.0
C2122 C 0.98621 0.08141 0.82281 0.0
C2123 C 0.96905 0.11035 0.82698 0.0
C2124 C 0.93455 0.12064 0.8243 0.0
C2125 C 0.9171 0.10193 0.81745 0.0
C2126 C 0.93419 0.07304 0.81324 0.0
C2127 C 0.97462 0.87084 0.8136 0.0
C2128 C 0.94074 0.86293 0.80987 0.0
C2129 C 0.98946 0.90517 0.81288 0.0
C2130 C 0.971 0.93259 0.80836 0.0
C2131 C 0.9367 0.92528 0.80483 0.0
C2132 C 0.92172 0.89068 0.80554 0.0
C2133 C 0.98799 0.96865 0.80736 0.0
C2134 C 0.97077 0.99874 0.81106 0.0
C2135 C 0.02247 0.97287 0.80346 0.0
C2136 C 0.04151 0.94234 0.79916 0.0
C2137 C 0.02471 0.92214 0.7924 0.0
C2138 C 0.04249 0.89293 0.78852 0.0
C2139 C 0.07719 0.88379 0.7913 0.0
C2140 C 0.09424 0.90394 0.79795 0.0
C2141 C 0.07656 0.93315 0.80186 0.0
H2142 H 0.0909 0.86115 0.78829 0.0
H2143 H 0.92132 0.14307 0.82753 0.0
H2144 H 0.61471 0.88942 0.18909 0.0
H2145 H 0.5564 0.91943 0.18767 0.0
H2146 H 0.61022 0.02031 0.1826 0.0
H2147 H 0.66812 0.99084 0.18447 0.0
H2148 H 0.56131 0.03233 0.19383 0.0
H2149 H 0.56233 0.96991 0.16594 0.0
H2150 H 0.56815 0.91792 0.15582 0.0
H2151 H 0.47903 0.86622 0.16879 0.0
H2152 H 0.47297 0.9177 0.17908 0.0
H2153 H 0.39556 0.12231 0.18274 0.0
H2154 H 0.45505 0.09479 0.18062 0.0
H2155 H 0.41628 0.99588 0.19218 0.0
H2156 H 0.35763 0.02299 0.19454 0.0
H2157 H 0.45787 0.98617 0.17632 0.0
H2158 H 0.46164 0.04859 0.20484 0.0
H2159 H 0.45552 0.10234 0.21437 0.0
H2160 H 0.53681 0.1564 0.19902 0.0
H2161 H 0.543 0.10311 0.18931 0.0
C2162 C 0.61405 0.91788 0.18755 0.0
C2163 C 0.64611 0.93775 0.18693 0.0
C2164 C 0.58067 0.93506 0.1867 0.0
C2165 C 0.57871 0.97223 0.18495 0.0
C2166 C 0.61082 0.99172 0.18401 0.0
C2167 C 0.64404 0.97476 0.18505 0.0
C2168 C 0.54346 0.99135 0.18461 0.0
C2169 C 0.53902 0.0225 0.18984 0.0
C2170 C 0.51395 0.97851 0.17953 0.0
C2171 C 0.5174 0.94756 0.17333 0.0
C2172 C 0.54412 0.94735 0.16668 0.0
C2173 C 0.54744 0.91799 0.1609 0.0
C2174 C 0.52403 0.88876 0.16167 0.0
C2175 C 0.49717 0.88887 0.16821 0.0
C2176 C 0.49375 0.91816 0.174 0.0
C2177 C 0.39966 0.09465 0.18478 0.0
C2178 C 0.37162 0.07489 0.18876 0.0
C2179 C 0.43362 0.07898 0.18356 0.0
C2180 C 0.43993 0.04324 0.18621 0.0
C2181 C 0.41187 0.02335 0.19001 0.0
C2182 C 0.37827 0.03905 0.19136 0.0
C2183 C 0.47613 0.02675 0.1855 0.0
C2184 C 0.48057 0.9961 0.18015 0.0
C2185 C 0.50579 0.04026 0.19036 0.0
C2186 C 0.50248 0.07205 0.19629 0.0
C2187 C 0.47801 0.07204 0.20345 0.0
C2188 C 0.47455 0.10241 0.20889 0.0
C2189 C 0.49568 0.13281 0.20728 0.0
C2190 C 0.52041 0.13285 0.20025 0.0
C2191 C 0.52391 0.10258 0.19478 0.0
H2192 H 0.49295 0.1563 0.2115 0.0
H2193 H 0.52665 0.86604 0.1572 0.0
H2194 H 0.98153 0.84271 0.43429 0.0
H2195 H 0.01093 0.90084 0.43295 0.0
H2196 H 0.91007 0.95396 0.43837 0.0
H2197 H 0.88004 0.89532 0.43927 0.0
H2198 H 0.94657 0.99213 0.42682 0.0
H2199 H 0.97502 0.9374 0.45493 0.0
H2200 H 0.99692 0.88989 0.46509 0.0
H2201 H 0.10175 0.89606 0.45315 0.0
H2202 H 0.08031 0.94311 0.4428 0.0
H2203 H 0.01775 0.15285 0.44535 0.0
H2204 H 0.98911 0.09477 0.44312 0.0
H2205 H 0.08797 0.05209 0.43245 0.0
H2206 H 0.11707 0.11079 0.4345 0.0
H2207 H 0.05421 0.00893 0.44601 0.0
H2208 H 0.02409 0.06768 0.4184 0.0
H2209 H 1.00084 0.11772 0.40925 0.0
H2210 H 0.89702 0.10657 0.42151 0.0
H2211 H 0.91981 0.05682 0.43085 0.0
C2212 C 0.96547 0.86666 0.43511 0.0
C2213 C 0.92858 0.86432 0.43705 0.0
C2214 C 0.98238 0.90001 0.43437 0.0
C2215 C 0.96304 0.93186 0.43585 0.0
C2216 C 0.9257 0.92976 0.43729 0.0
C2217 C 0.90854 0.89623 0.43782 0.0
C2218 C 0.98219 0.96698 0.43632 0.0
C2219 C 0.96988 0.99584 0.43108 0.0
C2220 C 0.013 0.97185 0.44179 0.0
C2221 C 0.02596 0.94357 0.44803 0.0
C2222 C 1.00267 0.92843 0.45443 0.0
C2223 C 0.015 0.9016 0.46022 0.0
C2224 C 0.05069 0.88996 0.45976 0.0
C2225 C 0.0741 0.90509 0.4535 0.0
C2226 C 0.06188 0.93183 0.44766 0.0
C2227 C 0.0335 0.13141 0.44242 0.0
C2228 C 0.06974 0.13676 0.44001 0.0
C2229 C 0.01696 0.09814 0.44116 0.0
C2230 C 0.0363 0.06928 0.43754 0.0
C2231 C 0.07256 0.07418 0.43521 0.0
C2232 C 0.08909 0.10774 0.43636 0.0
C2233 C 0.01864 0.03378 0.4365 0.0
C2234 C 0.03112 0.00497 0.44168 0.0
C2235 C 0.98771 0.02918 0.4311 0.0
C2236 C 0.97375 0.05869 0.42538 0.0
C2237 C 0.99637 0.07606 0.41919 0.0
C2238 C 0.98326 0.10435 0.41396 0.0
C2239 C 0.94749 0.11537 0.41481 0.0
C2240 C 0.92473 0.09803 0.42086 0.0
C2241 C 0.93772 0.06975 0.42612 0.0
H2242 H 0.93741 0.13731 0.41076 0.0
H2243 H 0.06027 0.86931 0.46427 0.0
H2244 H 0.17034 0.48116 0.68398 0.0
H2245 H 0.11157 0.50968 0.68294 0.0
H2246 H 0.06098 0.4103 0.69096 0.0
H2247 H 0.12012 0.38109 0.6916 0.0
H2248 H 0.01992 0.44264 0.67926 0.0
H2249 H 0.07898 0.48029 0.70603 0.0
H2250 H 0.12851 0.50511 0.7151 0.0
H2251 H 0.12026 0.6057 0.70112 0.0
H2252 H 0.07108 0.58128 0.69186 0.0
H2253 H 0.86031 0.52078 0.6968 0.0
H2254 H 0.91811 0.49091 0.69506 0.0
H2255 H 0.96175 0.58605 0.68265 0.0
H2256 H 0.9035 0.61641 0.68427 0.0
H2257 H 0.00573 0.5564 0.69625 0.0
H2258 H 0.94276 0.51641 0.66993 0.0
H2259 H 0.89128 0.48986 0.66191 0.0
H2260 H 0.90469 0.39117 0.67646 0.0
H2261 H 0.95591 0.41733 0.68469 0.0
C2262 C 0.14676 0.46525 0.68545 0.0
C2263 C 0.14997 0.42903 0.68801 0.0
C2264 C 0.11307 0.48164 0.68488 0.0
C2265 C 0.08179 0.46253 0.68714 0.0
C2266 C 0.0847 0.42576 0.68926 0.0
C2267 C 0.11852 0.40907 0.68963 0.0
C2268 C 0.04649 0.48145 0.68767 0.0
C2269 C 0.01679 0.46729 0.68305 0.0
C2270 C 0.04228 0.51391 0.69255 0.0
C2271 C 0.07154 0.52884 0.6982 0.0
C2272 C 0.08787 0.50764 0.70485 0.0
C2273 C 0.11588 0.52163 0.71003 0.0
C2274 C 0.12756 0.55694 0.70867 0.0
C2275 C 0.11121 0.57834 0.70215 0.0
C2276 C 0.08325 0.56445 0.69694 0.0
C2277 C 0.88195 0.53544 0.69361 0.0
C2278 C 0.877 0.57103 0.6906 0.0
C2279 C 0.91506 0.51819 0.69262 0.0
C2280 C 0.94413 0.5361 0.68865 0.0
C2281 C 0.93956 0.5717 0.6857 0.0
C2282 C 0.90622 0.58895 0.68661 0.0
C2283 C 0.97945 0.51771 0.68779 0.0
C2284 C 0.00905 0.53189 0.6924 0.0
C2285 C 0.98334 0.48498 0.68305 0.0
C2286 C 0.95302 0.46894 0.67798 0.0
C2287 C 0.9346 0.48912 0.67147 0.0
C2288 C 0.90547 0.47414 0.66688 0.0
C2289 C 0.89467 0.43888 0.66869 0.0
C2290 C 0.91307 0.41849 0.67507 0.0
C2291 C 0.94218 0.43337 0.67969 0.0
H2292 H 0.87209 0.42734 0.66514 0.0
H2293 H 0.1492 0.56778 0.71269 0.0
H2294 H 0.37073 0.399 0.93741 0.0
H2295 H 0.39997 0.45792 0.93674 0.0
H2296 H 0.50394 0.40661 0.93842 0.0
H2297 H 0.47493 0.34843 0.93971 0.0
H2298 H 0.50558 0.45858 0.94884 0.0
H2299 H 0.46705 0.44779 0.91844 0.0
H2300 H 0.42433 0.43799 0.90606 0.0
H2301 H 0.36277 0.52963 0.91448 0.0
H2302 H 0.40488 0.53971 0.92699 0.0
H2303 H 0.60706 0.61521 0.93558 0.0
H2304 H 0.57703 0.55673 0.93411 0.0
H2305 H 0.47835 0.603 0.94389 0.0
H2306 H 0.50819 0.66085 0.94576 0.0
H2307 H 0.47507 0.55492 0.92716 0.0
H2308 H 0.51581 0.56185 0.95811 0.0
H2309 H 0.56245 0.57149 0.96959 0.0
H2310 H 0.62483 0.48485 0.95865 0.0
H2311 H 0.57879 0.47511 0.94701 0.0
C2312 C 0.39982 0.4003 0.93755 0.0
C2313 C 0.42043 0.36885 0.9386 0.0
C2314 C 0.41659 0.43405 0.93712 0.0
C2315 C 0.45435 0.43693 0.93744 0.0
C2316 C 0.47484 0.40537 0.9382 0.0
C2317 C 0.45812 0.37189 0.93887 0.0
C2318 C 0.47273 0.47264 0.93744 0.0
C2319 C 0.49914 0.47928 0.94398 0.0
C2320 C 0.46426 0.5002 0.93122 0.0
C2321 C 0.43893 0.49428 0.9237 0.0
C2322 C 0.44426 0.4657 0.91769 0.0
C2323 C 0.42018 0.46012 0.91065 0.0
C2324 C 0.3908 0.48312 0.9095 0.0
C2325 C 0.38551 0.51181 0.91539 0.0
C2326 C 0.40949 0.51749 0.92245 0.0
C2327 C 0.57893 0.61303 0.93737 0.0
C2328 C 0.56004 0.64294 0.94072 0.0
C2329 C 0.56183 0.57963 0.93651 0.0
C2330 C 0.52544 0.57576 0.93883 0.0
C2331 C 0.50634 0.60561 0.94198 0.0
C2332 C 0.52355 0.6387 0.94304 0.0
C2333 C 0.50768 0.54016 0.93846 0.0
C2334 C 0.48143 0.5338 0.93192 0.0
C2335 C 0.51672 0.51257 0.94455 0.0
C2336 C 0.54408 0.51804 0.95163 0.0
C2337 C 0.53963 0.54508 0.9581 0.0
C2338 C 0.56592 0.55052 0.96465 0.0
C2339 C 0.59664 0.52887 0.96483 0.0
C2340 C 0.60106 0.50164 0.95849 0.0
C2341 C 0.57487 0.49614 0.95192 0.0
H2342 H 0.61697 0.53313 0.9699 0.0
H2343 H 0.37219 0.47875 0.90405 0.0
H2344 H 0.66487 0.5242 0.0787 0.0
H2345 H 0.60771 0.49326 0.08069 0.0
H2346 H 0.5514 0.58787 0.07152 0.0
H2347 H 0.6089 0.61946 0.06987 0.0
H2348 H 0.51307 0.55639 0.0839 0.0
H2349 H 0.57215 0.51571 0.05726 0.0
H2350 H 0.62209 0.49096 0.04835 0.0
H2351 H 0.61964 0.3938 0.06389 0.0
H2352 H 0.56982 0.41818 0.07296 0.0
H2353 H 0.35953 0.48096 0.06425 0.0
H2354 H 0.41817 0.50757 0.06676 0.0
H2355 H 0.45215 0.41274 0.08105 0.0
H2356 H 0.39256 0.38552 0.07868 0.0
H2357 H 0.50231 0.44029 0.06773 0.0
H2358 H 0.43437 0.48201 0.09293 0.0
H2359 H 0.38088 0.50858 0.10008 0.0
H2360 H 0.39722 0.60668 0.08547 0.0
H2361 H 0.45042 0.58046 0.07809 0.0
C2362 C 0.64037 0.53852 0.07717 0.0
C2363 C 0.64145 0.57399 0.07395 0.0
C2364 C 0.60762 0.52078 0.07831 0.0
C2365 C 0.57522 0.53778 0.07599 0.0
C2366 C 0.57605 0.57402 0.07328 0.0
C2367 C 0.60892 0.59207 0.07233 0.0
C2368 C 0.54091 0.51712 0.07588 0.0
C2369 C 0.51074 0.53111 0.08033 0.0
C2370 C 0.53781 0.48378 0.07133 0.0
C2371 C 0.56754 0.46891 0.06585 0.0
C2372 C 0.58242 0.48915 0.05881 0.0
C2373 C 0.61069 0.47518 0.05373 0.0
C2374 C 0.62414 0.44087 0.05558 0.0
C2375 C 0.60924 0.4204 0.06249 0.0
C2376 C 0.58095 0.43426 0.06759 0.0
C2377 C 0.37917 0.46556 0.06798 0.0
C2378 C 0.371 0.43111 0.07136 0.0
C2379 C 0.41279 0.48097 0.06941 0.0
C2380 C 0.43928 0.46237 0.07419 0.0
C2381 C 0.43185 0.4276 0.07739 0.0
C2382 C 0.39784 0.41215 0.07604 0.0
C2383 C 0.47467 0.47969 0.07569 0.0
C2384 C 0.50495 0.46519 0.07145 0.0
C2385 C 0.47763 0.51287 0.08027 0.0
C2386 C 0.44632 0.52917 0.08492 0.0
C2387 C 0.42647 0.50919 0.09121 0.0
C2388 C 0.39619 0.52419 0.0953 0.0
C2389 C 0.38564 0.55928 0.09323 0.0
C2390 C 0.40543 0.5795 0.08708 0.0
C2391 C 0.43569 0.56459 0.08294 0.0
H2392 H 0.36214 0.57082 0.09639 0.0
H2393 H 0.64602 0.43006 0.05164 0.0
H2394 H 0.48585 0.16427 0.31435 0.0
H2395 H 0.51636 0.10689 0.31589 0.0
H2396 H 0.4188 0.05895 0.32601 0.0
H2397 H 0.38848 0.11729 0.325 0.0
H2398 H 0.47153 0.03254 0.33486 0.0
H2399 H 0.44981 0.04602 0.30368 0.0
H2400 H 0.44973 0.07534 0.2889 0.0
H2401 H 0.56514 0.08018 0.28929 0.0
H2402 H 0.56587 0.05095 0.30411 0.0
H2403 H 0.51912 0.8527 0.32014 0.0
H2404 H 0.49178 0.9121 0.32144 0.0
H2405 H 0.59677 0.95991 0.32413 0.0
H2406 H 0.62459 0.90014 0.3232 0.0
H2407 H 0.54181 0.9857 0.30919 0.0
H2408 H 0.5591 0.96652 0.34097 0.0
H2409 H 0.55346 0.93146 0.35489 0.0
H2410 H 0.43846 0.9317 0.35221 0.0
H2411 H 0.44346 0.96629 0.33818 0.0
C2412 C 0.47081 0.14175 0.317 0.0
C2413 C 0.43462 0.14562 0.31959 0.0
C2414 C 0.4883 0.10867 0.31778 0.0
C2415 C 0.4698 0.07819 0.32089 0.0
C2416 C 0.43374 0.08198 0.32358 0.0
C2417 C 0.41637 0.11537 0.32297 0.0
C2418 C 0.48816 0.04252 0.32127 0.0
C2419 C 0.48657 0.02226 0.3292 0.0
C2420 C 0.50812 0.02888 0.31393 0.0
C2421 C 0.50786 0.04663 0.30504 0.0
C2422 C 0.47516 0.05358 0.30064 0.0
C2423 C 0.47501 0.07014 0.29225 0.0
C2424 C 0.50742 0.07979 0.28817 0.0
C2425 C 0.54006 0.07275 0.29247 0.0
C2426 C 0.54036 0.05611 0.30085 0.0
C2427 C 0.53651 0.87563 0.32119 0.0
C2428 C 0.57413 0.87149 0.32159 0.0
C2429 C 0.52076 0.9096 0.32191 0.0
C2430 C 0.54227 0.94026 0.32289 0.0
C2431 C 0.57977 0.93643 0.32341 0.0
C2432 C 0.59557 0.90226 0.3229 0.0
C2433 C 0.5254 0.97635 0.32277 0.0
C2434 C 0.52703 0.9964 0.31485 0.0
C2435 C 0.50474 0.98924 0.33001 0.0
C2436 C 0.50169 0.96867 0.33848 0.0
C2437 C 0.53263 0.95878 0.3433 0.0
C2438 C 0.52954 0.93907 0.35122 0.0
C2439 C 0.49563 0.92927 0.35442 0.0
C2440 C 0.46472 0.93926 0.34972 0.0
C2441 C 0.46766 0.95896 0.34179 0.0
H2442 H 0.49329 0.914 0.36056 0.0
H2443 H 0.50728 0.09258 0.28167 0.0
H2444 H 0.89488 0.87376 0.57382 0.0
H2445 H 0.95417 0.90177 0.57547 0.0
H2446 H 0.90543 0.00684 0.57332 0.0
H2447 H 0.84722 0.9792 0.57106 0.0
H2448 H 0.9598 0.00758 0.56367 0.0
H2449 H 0.94008 0.96797 0.59376 0.0
H2450 H 0.92619 0.92432 0.6057 0.0
H2451 H 0.01955 0.86251 0.59868 0.0
H2452 H 0.03374 0.90553 0.58661 0.0
H2453 H 0.11142 0.11003 0.57741 0.0
H2454 H 0.05334 0.07953 0.57907 0.0
H2455 H 0.10271 0.97849 0.57209 0.0
H2456 H 0.1604 0.00859 0.57017 0.0
H2457 H 0.04948 0.9759 0.58694 0.0
H2458 H 0.06561 0.01755 0.5563 0.0
H2459 H 0.0792 0.06471 0.5452 0.0
H2460 H 0.98976 0.1272 0.55461 0.0
H2461 H 0.97602 0.08063 0.56588 0.0
C2462 C 0.89683 0.90283 0.57378 0.0
C2463 C 0.86611 0.92416 0.57236 0.0
C2464 C 0.93076 0.91888 0.57477 0.0
C2465 C 0.93444 0.9566 0.57462 0.0
C2466 C 0.90357 0.97776 0.57343 0.0
C2467 C 0.87002 0.9618 0.57221 0.0
C2468 C 0.97035 0.97437 0.57524 0.0
C2469 C 0.97901 1.00089 0.56887 0.0
C2470 C 0.996 0.9655 0.58191 0.0
C2471 C 0.98777 0.9398 0.58922 0.0
C2472 C 0.95753 0.94495 0.59473 0.0
C2473 C 0.94961 0.92033 0.60152 0.0
C2474 C 0.97191 0.89061 0.60293 0.0
C2475 C 1.00226 0.88552 0.59757 0.0
C2476 C 0.01028 0.91003 0.59076 0.0
C2477 C 0.11008 0.08124 0.57635 0.0
C2478 C 0.14068 0.06185 0.57364 0.0
C2479 C 0.07688 0.06386 0.57732 0.0
C2480 C 0.07384 0.02676 0.57572 0.0
C2481 C 0.10459 0.00706 0.57343 0.0
C2482 C 0.13757 0.02445 0.57231 0.0
C2483 C 0.03812 0.00909 0.57549 0.0
C2484 C 0.02981 0.98256 0.58185 0.0
C2485 C 0.01241 0.01833 0.56893 0.0
C2486 C 0.02001 0.04579 0.56198 0.0
C2487 C 0.04898 0.04145 0.55604 0.0
C2488 C 0.0567 0.06806 0.54971 0.0
C2489 C 0.03541 0.09898 0.54921 0.0
C2490 C 0.00626 0.10326 0.55501 0.0
C2491 C 0.99848 0.07676 0.56136 0.0
H2492 H 0.04146 0.11958 0.54432 0.0
H2493 H 0.96571 0.87156 0.60818 0.0
H2494 H 0.97198 0.65676 0.83177 0.0
H2495 H 0.9997 0.59764 0.83333 0.0
H2496 H 0.91206 0.55029 0.81853 0.0
H2497 H 0.88394 0.60989 0.81707 0.0
H2498 H 0.93503 0.50554 0.83179 0.0
H2499 H 0.98919 0.57134 0.80778 0.0
H2500 H 0.01802 0.62374 0.80071 0.0
H2501 H 0.10611 0.61637 0.81921 0.0
H2502 H 0.07758 0.56384 0.82642 0.0
H2503 H 0.02013 0.35487 0.81297 0.0
H2504 H 0.99088 0.41211 0.81566 0.0
H2505 H 0.08101 0.44665 0.83164 0.0
H2506 H 0.11101 0.38871 0.82897 0.0
H2507 H 0.05836 0.49788 0.8192 0.0
H2508 H 0.00449 0.42414 0.84178 0.0
H2509 H 0.97437 0.36962 0.84744 0.0
H2510 H 0.88379 0.39033 0.83038 0.0
H2511 H 0.91364 0.44464 0.82449 0.0
C2512 C 0.95857 0.63378 0.82888 0.0
C2513 C 0.92631 0.63795 0.82413 0.0
C2514 C 0.97433 0.59995 0.82981 0.0
C2515 C 0.95844 0.56965 0.82586 0.0
C2516 C 0.92491 0.57335 0.82159 0.0
C2517 C 0.90887 0.60733 0.82076 0.0
C2518 C 0.97826 0.53494 0.8256 0.0
C2519 C 0.96188 0.50379 0.82899 0.0
C2520 C 0.01355 0.53272 0.82206 0.0
C2521 C 0.0311 0.56393 0.81769 0.0
C2522 C 0.01462 0.58102 0.81037 0.0
C2523 C 0.03091 0.61075 0.80634 0.0
C2524 C 0.06382 0.62356 0.80954 0.0
C2525 C 0.08058 0.60648 0.81675 0.0
C2526 C 0.0644 0.57667 0.8208 0.0
C2527 C 0.03387 0.37432 0.81713 0.0
C2528 C 0.06795 0.3669 0.82082 0.0
C2529 C 0.01692 0.40713 0.81868 0.0
C2530 C 0.03347 0.43342 0.82397 0.0
C2531 C 0.06767 0.42652 0.82759 0.0
C2532 C 0.08472 0.39342 0.82608 0.0
C2533 C 0.01516 0.46843 0.82538 0.0
C2534 C 0.03176 0.49968 0.82215 0.0
C2535 C 0.9799 0.47054 0.82895 0.0
C2536 C 0.96143 0.43839 0.83265 0.0
C2537 C 0.97823 0.41699 0.83919 0.0
C2538 C 0.9612 0.38611 0.84245 0.0
C2539 C 0.92721 0.37649 0.83926 0.0
C2540 C 0.91012 0.39781 0.83284 0.0
C2541 C 0.92707 0.42868 0.82955 0.0
H2542 H 0.9141 0.35254 0.84177 0.0
H2543 H 0.0764 0.64661 0.80641 0.0
loop_
_geom_bond_atom_site_label_1
_geom_bond_atom_site_label_2
_geom_bond_distance
_geom_bond_site_symmetry_2
_ccdc_geom_bond_type
Co0 O2 2.143 . S
Co0 O8 2.074 . S
Co0 O11 2.093 . S
Co0 O24 2.097 . S
Co0 N41 2.151 . S
Co0 N49 2.214 . S
Co1 O2 2.160 . S
Co1 O7 2.058 . S
Co1 O17 2.057 . S
Co1 O32 2.037 . S
Co1 N36 2.145 . S
Co1 N57 2.257 . S
O2 Co0 2.143 . S
O2 Co1 2.160 . S
C3 O4 1.278 . S
C3 O11 1.224 . S
O4 C3 1.278 . S
C5 O6 1.245 . S
C5 O17 1.232 . S
O6 C5 1.245 . S
O7 Co1 2.058 . S
O7 C33 1.269 . S
O8 Co0 2.074 . S
O8 C33 1.257 . S
H9 C34 0.930 . S
H10 C40 0.930 . S
O11 Co0 2.093 . S
O11 C3 1.224 . S
H12 C44 0.929 . S
H13 C46 0.930 . S
H14 C47 0.930 . S
H15 C45 0.929 . S
H16 C48 0.928 . S
O17 Co1 2.057 . S
O17 C5 1.232 . S
H18 C37 0.929 . S
H19 C38 0.929 1_545 S
H20 C50 0.931 . S
H21 C42 0.929 . S
H22 C51 0.930 . S
H23 C43 0.931 . S
O24 Co0 2.097 . S
O24 C52 1.214 . S
H25 C53 0.929 . S
H26 C54 0.929 . S
H27 C55 0.930 . S
H28 C56 0.929 1_565 S
H29 C58 0.930 . S
H30 C35 0.930 . S
H31 C39 0.930 . S
O32 Co1 2.037 . S
O32 C52 1.234 . S
C33 O7 1.269 . S
C33 O8 1.257 . S
C34 H9 0.930 . S
C34 C37 1.388 1_565 S
C34 C39 1.418 . S
C35 H30 0.930 . S
C35 C38 1.403 . S
C35 C39 1.353 . S
N36 Co1 2.145 . S
N36 C37 1.397 . S
N36 C38 1.334 1_545 S
C37 H18 0.929 . S
C37 C34 1.388 1_545 S
C37 N36 1.397 . S
C38 H19 0.929 1_565 S
C38 C35 1.403 . S
C38 N36 1.334 1_565 S
C39 H31 0.930 . S
C39 C34 1.418 . S
C39 C35 1.353 . S
C40 H10 0.930 . S
C40 N41 1.330 . S
C40 C42 1.446 . S
N41 Co0 2.151 . S
N41 C40 1.330 . S
N41 C45 1.418 . S
C42 H21 0.929 . S
C42 C40 1.446 . S
C42 C43 1.332 . S
C43 H23 0.931 . S
C43 C42 1.332 . S
C43 C44 1.267 . S
C44 H12 0.929 . S
C44 C43 1.267 . S
C44 C45 1.251 . S
C45 H15 0.929 . S
C45 N41 1.418 . S
C45 C44 1.251 . S
C46 H13 0.930 . S
C46 C48 1.406 . S
C46 C51 1.261 . S
C47 H14 0.930 . S
C47 N49 1.325 . S
C47 C50 1.357 . S
C48 H16 0.928 . S
C48 C46 1.406 . S
C48 N49 1.261 . S
N49 Co0 2.214 . S
N49 C47 1.325 . S
N49 C48 1.261 . S
C50 H20 0.931 . S
C50 C47 1.357 . S
C50 C51 1.312 . S
C51 H22 0.930 . S
C51 C46 1.261 . S
C51 C50 1.312 . S
C52 O24 1.214 . S
C52 O32 1.234 . S
C53 H25 0.929 . S
C53 C56 1.391 . S
C53 C58 1.391 . S
C54 H26 0.929 . S
C54 C55 1.390 1_545 S
C54 N57 1.391 . S
C55 H27 0.930 . S
C55 C54 1.390 1_565 S
C55 C56 1.392 1_565 S
C56 H28 0.929 1_545 S
C56 C53 1.391 . S
C56 C55 1.392 1_545 S
N57 Co1 2.257 . S
N57 C54 1.391 . S
N57 C58 1.388 . S
C58 H29 0.930 . S
C58 C53 1.391 . S
C58 N57 1.388 . S
Co59 O61 2.143 . S
Co59 O67 2.074 . S
Co59 O70 2.093 . S
Co59 O83 2.097 . S
Co59 N100 2.151 . S
Co59 N108 2.214 . S
Co60 O61 2.160 . S
Co60 O66 2.058 . S
Co60 O76 2.057 . S
Co60 O91 2.037 . S
Co60 N95 2.145 . S
Co60 N116 2.257 . S
O61 Co59 2.143 . S
O61 Co60 2.160 . S
C62 O63 1.278 . S
C62 O70 1.224 . S
O63 C62 1.278 . S
C64 O65 1.245 . S
C64 O76 1.232 . S
O65 C64 1.245 . S
O66 Co60 2.058 . S
O66 C92 1.269 . S
O67 Co59 2.074 . S
O67 C92 1.257 . S
H68 C93 0.930 . S
H69 C99 0.930 . S
O70 Co59 2.093 . S
O70 C62 1.224 . S
H71 C103 0.929 . S
H72 C105 0.930 . S
H73 C106 0.930 . S
H74 C104 0.929 . S
H75 C107 0.928 . S
O76 Co60 2.057 . S
O76 C64 1.232 . S
H77 C96 0.929 . S
H78 C97 0.930 1_655 S
H79 C109 0.931 . S
H80 C101 0.929 . S
H81 C110 0.930 . S
H82 C102 0.931 . S
O83 Co59 2.097 . S
O83 C111 1.214 . S
H84 C112 0.929 . S
H85 C113 0.929 . S
H86 C114 0.930 . S
H87 C115 0.929 1_455 S
H88 C117 0.930 . S
H89 C94 0.930 . S
H90 C98 0.930 . S
O91 Co60 2.037 . S
O91 C111 1.234 . S
C92 O66 1.269 . S
C92 O67 1.257 . S
C93 H68 0.930 . S
C93 C96 1.388 1_455 S
C93 C98 1.418 . S
C94 H89 0.930 . S
C94 C97 1.403 . S
C94 C98 1.353 . S
N95 Co60 2.145 . S
N95 C96 1.397 . S
N95 C97 1.335 1_655 S
C96 H77 0.929 . S
C96 C93 1.388 1_655 S
C96 N95 1.397 . S
C97 H78 0.930 1_455 S
C97 C94 1.403 . S
C97 N95 1.335 1_455 S
C98 H90 0.930 . S
C98 C93 1.418 . S
C98 C94 1.353 . S
C99 H69 0.930 . S
C99 N100 1.330 . S
C99 C101 1.446 . S
N100 Co59 2.151 . S
N100 C99 1.330 . S
N100 C104 1.418 . S
C101 H80 0.929 . S
C101 C99 1.446 . S
C101 C102 1.332 . S
C102 H82 0.931 . S
C102 C101 1.332 . S
C102 C103 1.267 . S
C103 H71 0.929 . S
C103 C102 1.267 . S
C103 C104 1.251 . S
C104 H74 0.929 . S
C104 N100 1.418 . S
C104 C103 1.251 . S
C105 H72 0.930 . S
C105 C107 1.406 . S
C105 C110 1.261 . S
C106 H73 0.930 . S
C106 N108 1.325 . S
C106 C109 1.357 . S
C107 H75 0.928 . S
C107 C105 1.406 . S
C107 N108 1.261 . S
N108 Co59 2.214 . S
N108 C106 1.325 . S
N108 C107 1.261 . S
C109 H79 0.931 . S
C109 C106 1.357 . S
C109 C110 1.312 . S
C110 H81 0.930 . S
C110 C105 1.261 . S
C110 C109 1.312 . S
C111 O83 1.214 . S
C111 O91 1.234 . S
C112 H84 0.929 . S
C112 C115 1.391 . S
C112 C117 1.391 . S
C113 H85 0.929 . S
C113 C114 1.390 1_655 S
C113 N116 1.391 . S
C114 H86 0.930 . S
C114 C113 1.390 1_455 S
C114 C115 1.392 1_455 S
C115 H87 0.929 1_655 S
C115 C112 1.391 . S
C115 C114 1.392 1_655 S
N116 Co60 2.257 . S
N116 C113 1.391 . S
N116 C117 1.388 . S
C117 H88 0.930 . S
C117 C112 1.391 . S
C117 N116 1.388 . S
Co118 O120 2.143 . S
Co118 O126 2.074 . S
Co118 O129 2.093 . S
Co118 O142 2.097 . S
Co118 N159 2.151 . S
Co118 N167 2.214 . S
Co119 O120 2.160 . S
Co119 O125 2.058 . S
Co119 O135 2.057 . S
Co119 O150 2.037 . S
Co119 N154 2.145 . S
Co119 N175 2.257 . S
O120 Co118 2.143 . S
O120 Co119 2.160 . S
C121 O122 1.278 . S
C121 O129 1.224 . S
O122 C121 1.278 . S
C123 O124 1.245 . S
C123 O135 1.232 . S
O124 C123 1.245 . S
O125 Co119 2.058 . S
O125 C151 1.269 . S
O126 Co118 2.074 . S
O126 C151 1.257 . S
H127 C152 0.930 . S
H128 C158 0.930 . S
O129 Co118 2.093 . S
O129 C121 1.224 . S
H130 C162 0.929 . S
H131 C164 0.930 . S
H132 C165 0.930 . S
H133 C163 0.929 . S
H134 C166 0.928 . S
O135 Co119 2.057 . S
O135 C123 1.232 . S
H136 C155 0.929 . S
H137 C156 0.929 . S
H138 C168 0.931 . S
H139 C160 0.929 . S
H140 C169 0.930 . S
H141 C161 0.931 . S
O142 Co118 2.097 . S
O142 C170 1.214 . S
H143 C171 0.929 . S
H144 C172 0.929 . S
H145 C173 0.930 . S
H146 C174 0.929 . S
H147 C176 0.930 . S
H148 C153 0.930 . S
H149 C157 0.930 . S
O150 Co119 2.037 . S
O150 C170 1.234 . S
C151 O125 1.269 . S
C151 O126 1.257 . S
C152 H127 0.930 . S
C152 C155 1.388 . S
C152 C157 1.418 . S
C153 H148 0.930 . S
C153 C156 1.404 . S
C153 C157 1.353 . S
N154 Co119 2.145 . S
N154 C155 1.397 . S
N154 C156 1.334 . S
C155 H136 0.929 . S
C155 C152 1.388 . S
C155 N154 1.397 . S
C156 H137 0.929 . S
C156 C153 1.404 . S
C156 N154 1.334 . S
C157 H149 0.930 . S
C157 C152 1.418 . S
C157 C153 1.353 . S
C158 H128 0.930 . S
C158 N159 1.330 . S
C158 C160 1.446 . S
N159 Co118 2.151 . S
N159 C158 1.330 . S
N159 C163 1.418 . S
C160 H139 0.929 . S
C160 C158 1.446 . S
C160 C161 1.332 . S
C161 H141 0.931 . S
C161 C160 1.332 . S
C161 C162 1.267 . S
C162 H130 0.929 . S
C162 C161 1.267 . S
C162 C163 1.251 . S
C163 H133 0.929 . S
C163 N159 1.418 . S
C163 C162 1.251 . S
C164 H131 0.930 . S
C164 C166 1.406 . S
C164 C169 1.261 . S
C165 H132 0.930 . S
C165 N167 1.325 . S
C165 C168 1.357 . S
C166 H134 0.928 . S
C166 C164 1.406 . S
C166 N167 1.261 . S
N167 Co118 2.214 . S
N167 C165 1.325 . S
N167 C166 1.261 . S
C168 H138 0.931 . S
C168 C165 1.357 . S
C168 C169 1.312 . S
C169 H140 0.930 . S
C169 C164 1.261 . S
C169 C168 1.312 . S
C170 O142 1.214 . S
C170 O150 1.234 . S
C171 H143 0.929 . S
C171 C174 1.391 . S
C171 C176 1.391 . S
C172 H144 0.929 . S
C172 C173 1.390 . S
C172 N175 1.391 . S
C173 H145 0.930 . S
C173 C172 1.390 . S
C173 C174 1.392 . S
C174 H146 0.929 . S
C174 C171 1.391 . S
C174 C173 1.392 . S
N175 Co119 2.257 . S
N175 C172 1.391 . S
N175 C176 1.388 . S
C176 H147 0.930 . S
C176 C171 1.391 . S
C176 N175 1.388 . S
Co177 O179 2.143 . S
Co177 O185 2.074 . S
Co177 O188 2.093 . S
Co177 O201 2.097 . S
Co177 N218 2.151 . S
Co177 N226 2.214 . S
Co178 O179 2.160 . S
Co178 O184 2.058 . S
Co178 O194 2.057 . S
Co178 O209 2.037 . S
Co178 N213 2.145 . S
Co178 N234 2.257 . S
O179 Co177 2.143 . S
O179 Co178 2.160 . S
C180 O181 1.278 . S
C180 O188 1.224 . S
O181 C180 1.278 . S
C182 O183 1.245 . S
C182 O194 1.232 . S
O183 C182 1.245 . S
O184 Co178 2.058 . S
O184 C210 1.269 . S
O185 Co177 2.074 . S
O185 C210 1.257 . S
H186 C211 0.930 . S
H187 C217 0.930 . S
O188 Co177 2.093 . S
O188 C180 1.224 . S
H189 C221 0.929 . S
H190 C223 0.930 . S
H191 C224 0.930 . S
H192 C222 0.929 . S
H193 C225 0.928 . S
O194 Co178 2.057 . S
O194 C182 1.232 . S
H195 C214 0.929 . S
H196 C215 0.929 . S
H197 C227 0.931 . S
H198 C219 0.929 . S
H199 C228 0.930 . S
H200 C220 0.931 . S
O201 Co177 2.097 . S
O201 C229 1.214 . S
H202 C230 0.929 . S
H203 C231 0.929 . S
H204 C232 0.930 . S
H205 C233 0.929 . S
H206 C235 0.930 . S
H207 C212 0.930 . S
H208 C216 0.930 . S
O209 Co178 2.037 . S
O209 C229 1.234 . S
C210 O184 1.269 . S
C210 O185 1.257 . S
C211 H186 0.930 . S
C211 C214 1.388 . S
C211 C216 1.418 . S
C212 H207 0.930 . S
C212 C215 1.404 . S
C212 C216 1.353 . S
N213 Co178 2.145 . S
N213 C214 1.397 . S
N213 C215 1.334 . S
C214 H195 0.929 . S
C214 C211 1.388 . S
C214 N213 1.397 . S
C215 H196 0.929 . S
C215 C212 1.404 . S
C215 N213 1.334 . S
C216 H208 0.930 . S
C216 C211 1.418 . S
C216 C212 1.353 . S
C217 H187 0.930 . S
C217 N218 1.330 . S
C217 C219 1.446 . S
N218 Co177 2.151 . S
N218 C217 1.330 . S
N218 C222 1.418 . S
C219 H198 0.929 . S
C219 C217 1.446 . S
C219 C220 1.332 . S
C220 H200 0.931 . S
C220 C219 1.332 . S
C220 C221 1.267 . S
C221 H189 0.929 . S
C221 C220 1.267 . S
C221 C222 1.251 . S
C222 H192 0.929 . S
C222 N218 1.418 . S
C222 C221 1.251 . S
C223 H190 0.930 . S
C223 C225 1.406 . S
C223 C228 1.261 . S
C224 H191 0.930 . S
C224 N226 1.325 . S
C224 C227 1.357 . S
C225 H193 0.928 . S
C225 C223 1.406 . S
C225 N226 1.261 . S
N226 Co177 2.214 . S
N226 C224 1.325 . S
N226 C225 1.261 . S
C227 H197 0.931 . S
C227 C224 1.357 . S
C227 C228 1.312 . S
C228 H199 0.930 . S
C228 C223 1.261 . S
C228 C227 1.312 . S
C229 O201 1.214 . S
C229 O209 1.234 . S
C230 H202 0.929 . S
C230 C233 1.391 . S
C230 C235 1.391 . S
C231 H203 0.929 . S
C231 C232 1.390 . S
C231 N234 1.391 . S
C232 H204 0.930 . S
C232 C231 1.390 . S
C232 C233 1.392 . S
C233 H205 0.929 . S
C233 C230 1.391 . S
C233 C232 1.392 . S
N234 Co178 2.257 . S
N234 C231 1.391 . S
N234 C235 1.388 . S
C235 H206 0.930 . S
C235 C230 1.391 . S
C235 N234 1.388 . S
Co236 O238 2.143 . S
Co236 O244 2.074 . S
Co236 O247 2.093 . S
Co236 O260 2.097 . S
Co236 N277 2.151 . S
Co236 N285 2.214 . S
Co237 O238 2.160 . S
Co237 O243 2.058 . S
Co237 O253 2.057 . S
Co237 O268 2.037 . S
Co237 N272 2.145 . S
Co237 N293 2.257 . S
O238 Co236 2.143 . S
O238 Co237 2.160 . S
C239 O240 1.278 . S
C239 O247 1.224 . S
O240 C239 1.278 . S
C241 O242 1.245 . S
C241 O253 1.232 . S
O242 C241 1.245 . S
O243 Co237 2.058 . S
O243 C269 1.269 . S
O244 Co236 2.074 . S
O244 C269 1.257 . S
H245 C270 0.930 . S
H246 C276 0.930 . S
O247 Co236 2.093 . S
O247 C239 1.224 . S
H248 C280 0.929 . S
H249 C282 0.930 . S
H250 C283 0.930 . S
H251 C281 0.929 . S
H252 C284 0.928 . S
O253 Co237 2.057 . S
O253 C241 1.232 . S
H254 C273 0.929 . S
H255 C274 0.929 . S
H256 C286 0.931 . S
H257 C278 0.929 . S
H258 C287 0.930 . S
H259 C279 0.931 . S
O260 Co236 2.097 . S
O260 C288 1.214 . S
H261 C289 0.929 . S
H262 C290 0.929 . S
H263 C291 0.930 . S
H264 C292 0.929 . S
H265 C294 0.930 . S
H266 C271 0.930 . S
H267 C275 0.930 . S
O268 Co237 2.037 . S
O268 C288 1.234 . S
C269 O243 1.269 . S
C269 O244 1.257 . S
C270 H245 0.930 . S
C270 C273 1.388 . S
C270 C275 1.418 . S
C271 H266 0.930 . S
C271 C274 1.404 . S
C271 C275 1.353 . S
N272 Co237 2.145 . S
N272 C273 1.397 . S
N272 C274 1.334 . S
C273 H254 0.929 . S
C273 C270 1.388 . S
C273 N272 1.397 . S
C274 H255 0.929 . S
C274 C271 1.404 . S
C274 N272 1.334 . S
C275 H267 0.930 . S
C275 C270 1.418 . S
C275 C271 1.353 . S
C276 H246 0.930 . S
C276 N277 1.330 . S
C276 C278 1.446 . S
N277 Co236 2.151 . S
N277 C276 1.330 . S
N277 C281 1.418 . S
C278 H257 0.929 . S
C278 C276 1.446 . S
C278 C279 1.332 . S
C279 H259 0.931 . S
C279 C278 1.332 . S
C279 C280 1.267 . S
C280 H248 0.929 . S
C280 C279 1.267 . S
C280 C281 1.251 . S
C281 H251 0.929 . S
C281 N277 1.418 . S
C281 C280 1.251 . S
C282 H249 0.930 . S
C282 C284 1.406 . S
C282 C287 1.261 . S
C283 H250 0.930 . S
C283 N285 1.325 . S
C283 C286 1.357 . S
C284 H252 0.928 . S
C284 C282 1.406 . S
C284 N285 1.261 . S
N285 Co236 2.214 . S
N285 C283 1.325 . S
N285 C284 1.261 . S
C286 H256 0.931 . S
C286 C283 1.357 . S
C286 C287 1.312 . S
C287 H258 0.930 . S
C287 C282 1.261 . S
C287 C286 1.312 . S
C288 O260 1.214 . S
C288 O268 1.234 . S
C289 H261 0.929 . S
C289 C292 1.391 . S
C289 C294 1.391 . S
C290 H262 0.929 . S
C290 C291 1.390 . S
C290 N293 1.391 . S
C291 H263 0.930 . S
C291 C290 1.390 . S
C291 C292 1.392 . S
C292 H264 0.929 . S
C292 C289 1.391 . S
C292 C291 1.392 . S
N293 Co237 2.257 . S
N293 C290 1.391 . S
N293 C294 1.388 . S
C294 H265 0.930 . S
C294 C289 1.391 . S
C294 N293 1.388 . S
Co295 O297 2.143 . S
Co295 O303 2.074 . S
Co295 O306 2.093 . S
Co295 O319 2.097 . S
Co295 N336 2.151 . S
Co295 N344 2.214 . S
Co296 O297 2.160 . S
Co296 O302 2.058 . S
Co296 O312 2.057 . S
Co296 O327 2.037 . S
Co296 N331 2.145 . S
Co296 N352 2.257 . S
O297 Co295 2.143 . S
O297 Co296 2.160 . S
C298 O299 1.278 . S
C298 O306 1.224 . S
O299 C298 1.278 . S
C300 O301 1.245 . S
C300 O312 1.232 . S
O301 C300 1.245 . S
O302 Co296 2.058 . S
O302 C328 1.269 . S
O303 Co295 2.074 . S
O303 C328 1.257 . S
H304 C329 0.930 . S
H305 C335 0.930 . S
O306 Co295 2.093 . S
O306 C298 1.224 . S
H307 C339 0.929 . S
H308 C341 0.930 . S
H309 C342 0.930 . S
H310 C340 0.929 . S
H311 C343 0.928 . S
O312 Co296 2.057 . S
O312 C300 1.232 . S
H313 C332 0.929 . S
H314 C333 0.929 . S
H315 C345 0.931 . S
H316 C337 0.929 . S
H317 C346 0.930 . S
H318 C338 0.931 . S
O319 Co295 2.097 . S
O319 C347 1.214 . S
H320 C348 0.929 . S
H321 C349 0.929 . S
H322 C350 0.930 . S
H323 C351 0.929 . S
H324 C353 0.930 . S
H325 C330 0.930 . S
H326 C334 0.930 . S
O327 Co296 2.037 . S
O327 C347 1.234 . S
C328 O302 1.269 . S
C328 O303 1.257 . S
C329 H304 0.930 . S
C329 C332 1.388 . S
C329 C334 1.418 . S
C330 H325 0.930 . S
C330 C333 1.404 . S
C330 C334 1.353 . S
N331 Co296 2.145 . S
N331 C332 1.397 . S
N331 C333 1.334 . S
C332 H313 0.929 . S
C332 C329 1.388 . S
C332 N331 1.397 . S
C333 H314 0.929 . S
C333 C330 1.404 . S
C333 N331 1.334 . S
C334 H326 0.930 . S
C334 C329 1.418 . S
C334 C330 1.353 . S
C335 H305 0.930 . S
C335 N336 1.330 . S
C335 C337 1.446 . S
N336 Co295 2.151 . S
N336 C335 1.330 . S
N336 C340 1.418 . S
C337 H316 0.929 . S
C337 C335 1.446 . S
C337 C338 1.332 . S
C338 H318 0.931 . S
C338 C337 1.332 . S
C338 C339 1.267 . S
C339 H307 0.929 . S
C339 C338 1.267 . S
C339 C340 1.251 . S
C340 H310 0.929 . S
C340 N336 1.418 . S
C340 C339 1.251 . S
C341 H308 0.930 . S
C341 C343 1.406 . S
C341 C346 1.261 . S
C342 H309 0.930 . S
C342 N344 1.325 . S
C342 C345 1.357 . S
C343 H311 0.928 . S
C343 C341 1.406 . S
C343 N344 1.261 . S
N344 Co295 2.214 . S
N344 C342 1.325 . S
N344 C343 1.261 . S
C345 H315 0.931 . S
C345 C342 1.357 . S
C345 C346 1.312 . S
C346 H317 0.930 . S
C346 C341 1.261 . S
C346 C345 1.312 . S
C347 O319 1.214 . S
C347 O327 1.234 . S
C348 H320 0.929 . S
C348 C351 1.391 . S
C348 C353 1.391 . S
C349 H321 0.929 . S
C349 C350 1.390 . S
C349 N352 1.391 . S
C350 H322 0.930 . S
C350 C349 1.390 . S
C350 C351 1.392 . S
C351 H323 0.929 . S
C351 C348 1.391 . S
C351 C350 1.392 . S
N352 Co296 2.257 . S
N352 C349 1.391 . S
N352 C353 1.388 . S
C353 H324 0.930 . S
C353 C348 1.391 . S
C353 N352 1.388 . S
Co354 O356 2.143 . S
Co354 O362 2.074 . S
Co354 O365 2.093 . S
Co354 O378 2.097 . S
Co354 N395 2.151 . S
Co354 N403 2.214 . S
Co355 O356 2.160 . S
Co355 O361 2.058 . S
Co355 O371 2.057 . S
Co355 O386 2.037 . S
Co355 N390 2.145 . S
Co355 N411 2.257 . S
O356 Co354 2.143 . S
O356 Co355 2.160 . S
C357 O358 1.278 . S
C357 O365 1.224 . S
O358 C357 1.278 . S
C359 O360 1.245 . S
C359 O371 1.232 . S
O360 C359 1.245 . S
O361 Co355 2.058 . S
O361 C387 1.269 . S
O362 Co354 2.074 . S
O362 C387 1.257 . S
H363 C388 0.930 . S
H364 C394 0.930 . S
O365 Co354 2.093 . S
O365 C357 1.224 . S
H366 C398 0.929 . S
H367 C400 0.930 . S
H368 C401 0.930 . S
H369 C399 0.929 . S
H370 C402 0.928 . S
O371 Co355 2.057 . S
O371 C359 1.232 . S
H372 C391 0.929 . S
H373 C392 0.930 1_545 S
H374 C404 0.931 . S
H375 C396 0.929 . S
H376 C405 0.930 . S
H377 C397 0.931 . S
O378 Co354 2.097 . S
O378 C406 1.214 . S
H379 C407 0.929 . S
H380 C408 0.929 . S
H381 C409 0.930 . S
H382 C410 0.929 1_565 S
H383 C412 0.930 . S
H384 C389 0.930 . S
H385 C393 0.930 . S
O386 Co355 2.037 . S
O386 C406 1.234 . S
C387 O361 1.269 . S
C387 O362 1.257 . S
C388 H363 0.930 . S
C388 C391 1.388 1_565 S
C388 C393 1.418 . S
C389 H384 0.930 . S
C389 C392 1.403 . S
C389 C393 1.353 . S
N390 Co355 2.145 . S
N390 C391 1.397 . S
N390 C392 1.335 1_545 S
C391 H372 0.929 . S
C391 C388 1.388 1_545 S
C391 N390 1.397 . S
C392 H373 0.930 1_565 S
C392 C389 1.403 . S
C392 N390 1.335 1_565 S
C393 H385 0.930 . S
C393 C388 1.418 . S
C393 C389 1.353 . S
C394 H364 0.930 . S
C394 N395 1.330 . S
C394 C396 1.446 . S
N395 Co354 2.151 . S
N395 C394 1.330 . S
N395 C399 1.418 . S
C396 H375 0.929 . S
C396 C394 1.446 . S
C396 C397 1.332 . S
C397 H377 0.931 . S
C397 C396 1.332 . S
C397 C398 1.267 . S
C398 H366 0.929 . S
C398 C397 1.267 . S
C398 C399 1.251 . S
C399 H369 0.929 . S
C399 N395 1.418 . S
C399 C398 1.251 . S
C400 H367 0.930 . S
C400 C402 1.406 . S
C400 C405 1.261 . S
C401 H368 0.930 . S
C401 N403 1.325 . S
C401 C404 1.357 . S
C402 H370 0.928 . S
C402 C400 1.406 . S
C402 N403 1.261 . S
N403 Co354 2.214 . S
N403 C401 1.325 . S
N403 C402 1.261 . S
C404 H374 0.931 . S
C404 C401 1.357 . S
C404 C405 1.312 . S
C405 H376 0.930 . S
C405 C400 1.261 . S
C405 C404 1.312 . S
C406 O378 1.214 . S
C406 O386 1.234 . S
C407 H379 0.929 . S
C407 C410 1.391 . S
C407 C412 1.391 . S
C408 H380 0.929 . S
C408 C409 1.390 1_545 S
C408 N411 1.391 . S
C409 H381 0.930 . S
C409 C408 1.390 1_565 S
C409 C410 1.392 1_565 S
C410 H382 0.929 1_545 S
C410 C407 1.391 . S
C410 C409 1.392 1_545 S
N411 Co355 2.257 . S
N411 C408 1.391 . S
N411 C412 1.388 . S
C412 H383 0.930 . S
C412 C407 1.391 . S
C412 N411 1.388 . S
Co413 O415 2.143 . S
Co413 O421 2.074 . S
Co413 O424 2.093 . S
Co413 O437 2.097 . S
Co413 N454 2.151 . S
Co413 N462 2.214 . S
Co414 O415 2.160 . S
Co414 O420 2.058 . S
Co414 O430 2.057 . S
Co414 O445 2.037 . S
Co414 N449 2.145 . S
Co414 N470 2.257 . S
O415 Co413 2.143 . S
O415 Co414 2.160 . S
C416 O417 1.278 . S
C416 O424 1.224 . S
O417 C416 1.278 . S
C418 O419 1.245 . S
C418 O430 1.232 . S
O419 C418 1.245 . S
O420 Co414 2.058 . S
O420 C446 1.269 . S
O421 Co413 2.074 . S
O421 C446 1.257 . S
H422 C447 0.930 . S
H423 C453 0.930 . S
O424 Co413 2.093 . S
O424 C416 1.224 . S
H425 C457 0.929 . S
H426 C459 0.930 . S
H427 C460 0.930 . S
H428 C458 0.929 . S
H429 C461 0.928 . S
O430 Co414 2.057 . S
O430 C418 1.232 . S
H431 C450 0.929 . S
H432 C451 0.929 1_655 S
H433 C463 0.931 . S
H434 C455 0.929 . S
H435 C464 0.930 . S
H436 C456 0.931 . S
O437 Co413 2.097 . S
O437 C465 1.214 . S
H438 C466 0.929 . S
H439 C467 0.929 . S
H440 C468 0.930 . S
H441 C469 0.929 1_455 S
H442 C471 0.930 . S
H443 C448 0.930 . S
H444 C452 0.930 . S
O445 Co414 2.037 . S
O445 C465 1.234 . S
C446 O420 1.269 . S
C446 O421 1.257 . S
C447 H422 0.930 . S
C447 C450 1.388 1_455 S
C447 C452 1.418 . S
C448 H443 0.930 . S
C448 C451 1.403 . S
C448 C452 1.353 . S
N449 Co414 2.145 . S
N449 C450 1.397 . S
N449 C451 1.334 1_655 S
C450 H431 0.929 . S
C450 C447 1.388 1_655 S
C450 N449 1.397 . S
C451 H432 0.929 1_455 S
C451 C448 1.403 . S
C451 N449 1.334 1_455 S
C452 H444 0.930 . S
C452 C447 1.418 . S
C452 C448 1.353 . S
C453 H423 0.930 . S
C453 N454 1.330 . S
C453 C455 1.446 . S
N454 Co413 2.151 . S
N454 C453 1.330 . S
N454 C458 1.418 . S
C455 H434 0.929 . S
C455 C453 1.446 . S
C455 C456 1.332 . S
C456 H436 0.931 . S
C456 C455 1.332 . S
C456 C457 1.267 . S
C457 H425 0.929 . S
C457 C456 1.267 . S
C457 C458 1.251 . S
C458 H428 0.929 . S
C458 N454 1.418 . S
C458 C457 1.251 . S
C459 H426 0.930 . S
C459 C461 1.406 . S
C459 C464 1.261 . S
C460 H427 0.930 . S
C460 N462 1.325 . S
C460 C463 1.357 . S
C461 H429 0.928 . S
C461 C459 1.406 . S
C461 N462 1.261 . S
N462 Co413 2.214 . S
N462 C460 1.325 . S
N462 C461 1.261 . S
C463 H433 0.931 . S
C463 C460 1.357 . S
C463 C464 1.312 . S
C464 H435 0.930 . S
C464 C459 1.261 . S
C464 C463 1.312 . S
C465 O437 1.214 . S
C465 O445 1.234 . S
C466 H438 0.929 . S
C466 C469 1.391 . S
C466 C471 1.391 . S
C467 H439 0.929 . S
C467 C468 1.390 1_655 S
C467 N470 1.391 . S
C468 H440 0.930 . S
C468 C467 1.390 1_455 S
C468 C469 1.392 1_455 S
C469 H441 0.929 1_655 S
C469 C466 1.391 . S
C469 C468 1.392 1_655 S
N470 Co414 2.257 . S
N470 C467 1.391 . S
N470 C471 1.388 . S
C471 H442 0.930 . S
C471 C466 1.391 . S
C471 N470 1.388 . S
Co472 O474 2.143 . S
Co472 O480 2.074 . S
Co472 O483 2.093 . S
Co472 O496 2.097 . S
Co472 N513 2.151 . S
Co472 N521 2.214 . S
Co473 O474 2.160 . S
Co473 O479 2.058 . S
Co473 O489 2.057 . S
Co473 O504 2.037 . S
Co473 N508 2.145 . S
Co473 N529 2.257 . S
O474 Co472 2.143 . S
O474 Co473 2.160 . S
C475 O476 1.278 . S
C475 O483 1.224 . S
O476 C475 1.278 . S
C477 O478 1.245 . S
C477 O489 1.232 . S
O478 C477 1.245 . S
O479 Co473 2.058 . S
O479 C505 1.269 . S
O480 Co472 2.074 . S
O480 C505 1.257 . S
H481 C506 0.930 . S
H482 C512 0.930 . S
O483 Co472 2.093 . S
O483 C475 1.224 . S
H484 C516 0.929 . S
H485 C518 0.930 . S
H486 C519 0.930 . S
H487 C517 0.929 . S
H488 C520 0.928 . S
O489 Co473 2.057 . S
O489 C477 1.232 . S
H490 C509 0.929 . S
H491 C510 0.929 . S
H492 C522 0.931 . S
H493 C514 0.929 . S
H494 C523 0.930 . S
H495 C515 0.931 . S
O496 Co472 2.097 . S
O496 C524 1.214 . S
H497 C525 0.929 . S
H498 C526 0.929 . S
H499 C527 0.930 . S
H500 C528 0.929 . S
H501 C530 0.930 . S
H502 C507 0.930 . S
H503 C511 0.930 . S
O504 Co473 2.037 . S
O504 C524 1.234 . S
C505 O479 1.269 . S
C505 O480 1.257 . S
C506 H481 0.930 . S
C506 C509 1.388 . S
C506 C511 1.418 . S
C507 H502 0.930 . S
C507 C510 1.404 . S
C507 C511 1.353 . S
N508 Co473 2.145 . S
N508 C509 1.397 . S
N508 C510 1.334 . S
C509 H490 0.929 . S
C509 C506 1.388 . S
C509 N508 1.397 . S
C510 H491 0.929 . S
C510 C507 1.404 . S
C510 N508 1.334 . S
C511 H503 0.930 . S
C511 C506 1.418 . S
C511 C507 1.353 . S
C512 H482 0.930 . S
C512 N513 1.330 . S
C512 C514 1.446 . S
N513 Co472 2.151 . S
N513 C512 1.330 . S
N513 C517 1.418 . S
C514 H493 0.929 . S
C514 C512 1.446 . S
C514 C515 1.332 . S
C515 H495 0.931 . S
C515 C514 1.332 . S
C515 C516 1.267 . S
C516 H484 0.929 . S
C516 C515 1.267 . S
C516 C517 1.251 . S
C517 H487 0.929 . S
C517 N513 1.418 . S
C517 C516 1.251 . S
C518 H485 0.930 . S
C518 C520 1.406 . S
C518 C523 1.261 . S
C519 H486 0.930 . S
C519 N521 1.325 . S
C519 C522 1.357 . S
C520 H488 0.928 . S
C520 C518 1.406 . S
C520 N521 1.261 . S
N521 Co472 2.214 . S
N521 C519 1.325 . S
N521 C520 1.261 . S
C522 H492 0.931 . S
C522 C519 1.357 . S
C522 C523 1.312 . S
C523 H494 0.930 . S
C523 C518 1.261 . S
C523 C522 1.312 . S
C524 O496 1.214 . S
C524 O504 1.234 . S
C525 H497 0.929 . S
C525 C528 1.391 . S
C525 C530 1.391 . S
C526 H498 0.929 . S
C526 C527 1.390 . S
C526 N529 1.391 . S
C527 H499 0.930 . S
C527 C526 1.390 . S
C527 C528 1.392 . S
C528 H500 0.929 . S
C528 C525 1.391 . S
C528 C527 1.392 . S
N529 Co473 2.257 . S
N529 C526 1.391 . S
N529 C530 1.388 . S
C530 H501 0.930 . S
C530 C525 1.391 . S
C530 N529 1.388 . S
Co531 O533 2.143 . S
Co531 O539 2.074 . S
Co531 O542 2.093 . S
Co531 O555 2.097 . S
Co531 N572 2.151 . S
Co531 N580 2.214 . S
Co532 O533 2.160 . S
Co532 O538 2.058 . S
Co532 O548 2.057 . S
Co532 O563 2.037 . S
Co532 N567 2.145 . S
Co532 N588 2.257 . S
O533 Co531 2.143 . S
O533 Co532 2.160 . S
C534 O535 1.278 . S
C534 O542 1.224 . S
O535 C534 1.278 . S
C536 O537 1.245 . S
C536 O548 1.232 . S
O537 C536 1.245 . S
O538 Co532 2.058 . S
O538 C564 1.269 . S
O539 Co531 2.074 . S
O539 C564 1.257 . S
H540 C565 0.930 . S
H541 C571 0.930 . S
O542 Co531 2.093 . S
O542 C534 1.224 . S
H543 C575 0.929 . S
H544 C577 0.930 . S
H545 C578 0.930 . S
H546 C576 0.929 . S
H547 C579 0.928 . S
O548 Co532 2.057 . S
O548 C536 1.232 . S
H549 C568 0.929 . S
H550 C569 0.929 . S
H551 C581 0.931 . S
H552 C573 0.929 . S
H553 C582 0.930 . S
H554 C574 0.931 . S
O555 Co531 2.097 . S
O555 C583 1.214 . S
H556 C584 0.929 . S
H557 C585 0.929 . S
H558 C586 0.930 . S
H559 C587 0.929 . S
H560 C589 0.930 . S
H561 C566 0.930 . S
H562 C570 0.930 . S
O563 Co532 2.037 . S
O563 C583 1.234 . S
C564 O538 1.269 . S
C564 O539 1.257 . S
C565 H540 0.930 . S
C565 C568 1.388 . S
C565 C570 1.418 . S
C566 H561 0.930 . S
C566 C569 1.404 . S
C566 C570 1.353 . S
N567 Co532 2.145 . S
N567 C568 1.397 . S
N567 C569 1.334 . S
C568 H549 0.929 . S
C568 C565 1.388 . S
C568 N567 1.397 . S
C569 H550 0.929 . S
C569 C566 1.404 . S
C569 N567 1.334 . S
C570 H562 0.930 . S
C570 C565 1.418 . S
C570 C566 1.353 . S
C571 H541 0.930 . S
C571 N572 1.330 . S
C571 C573 1.446 . S
N572 Co531 2.151 . S
N572 C571 1.330 . S
N572 C576 1.418 . S
C573 H552 0.929 . S
C573 C571 1.446 . S
C573 C574 1.332 . S
C574 H554 0.931 . S
C574 C573 1.332 . S
C574 C575 1.267 . S
C575 H543 0.929 . S
C575 C574 1.267 . S
C575 C576 1.251 . S
C576 H546 0.929 . S
C576 N572 1.418 . S
C576 C575 1.251 . S
C577 H544 0.930 . S
C577 C579 1.406 . S
C577 C582 1.261 . S
C578 H545 0.930 . S
C578 N580 1.325 . S
C578 C581 1.357 . S
C579 H547 0.928 . S
C579 C577 1.406 . S
C579 N580 1.261 . S
N580 Co531 2.214 . S
N580 C578 1.325 . S
N580 C579 1.261 . S
C581 H551 0.931 . S
C581 C578 1.357 . S
C581 C582 1.312 . S
C582 H553 0.930 . S
C582 C577 1.261 . S
C582 C581 1.312 . S
C583 O555 1.214 . S
C583 O563 1.234 . S
C584 H556 0.929 . S
C584 C587 1.391 . S
C584 C589 1.391 . S
C585 H557 0.929 . S
C585 C586 1.390 . S
C585 N588 1.391 . S
C586 H558 0.930 . S
C586 C585 1.390 . S
C586 C587 1.392 . S
C587 H559 0.929 . S
C587 C584 1.391 . S
C587 C586 1.392 . S
N588 Co532 2.257 . S
N588 C585 1.391 . S
N588 C589 1.388 . S
C589 H560 0.930 . S
C589 C584 1.391 . S
C589 N588 1.388 . S
Co590 O592 2.143 . S
Co590 O598 2.074 . S
Co590 O601 2.093 . S
Co590 O614 2.097 . S
Co590 N631 2.151 . S
Co590 N639 2.214 . S
Co591 O592 2.160 . S
Co591 O597 2.058 . S
Co591 O607 2.057 . S
Co591 O622 2.037 . S
Co591 N626 2.145 . S
Co591 N647 2.257 . S
O592 Co590 2.143 . S
O592 Co591 2.160 . S
C593 O594 1.278 . S
C593 O601 1.224 . S
O594 C593 1.278 . S
C595 O596 1.245 . S
C595 O607 1.232 . S
O596 C595 1.245 . S
O597 Co591 2.058 . S
O597 C623 1.269 . S
O598 Co590 2.074 . S
O598 C623 1.257 . S
H599 C624 0.930 . S
H600 C630 0.930 . S
O601 Co590 2.093 . S
O601 C593 1.224 . S
H602 C634 0.929 . S
H603 C636 0.930 . S
H604 C637 0.930 . S
H605 C635 0.929 . S
H606 C638 0.928 . S
O607 Co591 2.057 . S
O607 C595 1.232 . S
H608 C627 0.929 . S
H609 C628 0.929 1_565 S
H610 C640 0.931 . S
H611 C632 0.929 . S
H612 C641 0.930 . S
H613 C633 0.931 . S
O614 Co590 2.097 . S
O614 C642 1.214 . S
H615 C643 0.929 . S
H616 C644 0.929 . S
H617 C645 0.930 . S
H618 C646 0.929 1_545 S
H619 C648 0.930 . S
H620 C625 0.930 . S
H621 C629 0.930 . S
O622 Co591 2.037 . S
O622 C642 1.234 . S
C623 O597 1.269 . S
C623 O598 1.257 . S
C624 H599 0.930 . S
C624 C627 1.388 1_545 S
C624 C629 1.418 . S
C625 H620 0.930 . S
C625 C628 1.403 . S
C625 C629 1.353 . S
N626 Co591 2.145 . S
N626 C627 1.397 . S
N626 C628 1.335 1_565 S
C627 H608 0.929 . S
C627 C624 1.388 1_565 S
C627 N626 1.397 . S
C628 H609 0.929 1_545 S
C628 C625 1.403 . S
C628 N626 1.335 1_545 S
C629 H621 0.930 . S
C629 C624 1.418 . S
C629 C625 1.353 . S
C630 H600 0.930 . S
C630 N631 1.330 . S
C630 C632 1.446 . S
N631 Co590 2.151 . S
N631 C630 1.330 . S
N631 C635 1.418 . S
C632 H611 0.929 . S
C632 C630 1.446 . S
C632 C633 1.332 . S
C633 H613 0.931 . S
C633 C632 1.332 . S
C633 C634 1.267 . S
C634 H602 0.929 . S
C634 C633 1.267 . S
C634 C635 1.251 . S
C635 H605 0.929 . S
C635 N631 1.418 . S
C635 C634 1.251 . S
C636 H603 0.930 . S
C636 C638 1.406 . S
C636 C641 1.261 . S
C637 H604 0.930 . S
C637 N639 1.325 . S
C637 C640 1.357 . S
C638 H606 0.928 . S
C638 C636 1.406 . S
C638 N639 1.261 . S
N639 Co590 2.214 . S
N639 C637 1.325 . S
N639 C638 1.261 . S
C640 H610 0.931 . S
C640 C637 1.357 . S
C640 C641 1.312 . S
C641 H612 0.930 . S
C641 C636 1.261 . S
C641 C640 1.312 . S
C642 O614 1.214 . S
C642 O622 1.234 . S
C643 H615 0.929 . S
C643 C646 1.391 . S
C643 C648 1.391 . S
C644 H616 0.929 . S
C644 C645 1.390 1_565 S
C644 N647 1.391 . S
C645 H617 0.930 . S
C645 C644 1.390 1_545 S
C645 C646 1.392 1_545 S
C646 H618 0.929 1_565 S
C646 C643 1.391 . S
C646 C645 1.392 1_565 S
N647 Co591 2.257 . S
N647 C644 1.391 . S
N647 C648 1.388 . S
C648 H619 0.930 . S
C648 C643 1.391 . S
C648 N647 1.388 . S
Co649 O651 2.143 . S
Co649 O657 2.074 . S
Co649 O660 2.093 . S
Co649 O673 2.097 . S
Co649 N690 2.151 . S
Co649 N698 2.214 . S
Co650 O651 2.160 . S
Co650 O656 2.058 . S
Co650 O666 2.057 . S
Co650 O681 2.037 . S
Co650 N685 2.145 . S
Co650 N706 2.257 . S
O651 Co649 2.143 . S
O651 Co650 2.160 . S
C652 O653 1.278 . S
C652 O660 1.224 . S
O653 C652 1.278 . S
C654 O655 1.245 . S
C654 O666 1.232 . S
O655 C654 1.245 . S
O656 Co650 2.058 . S
O656 C682 1.269 . S
O657 Co649 2.074 . S
O657 C682 1.257 . S
H658 C683 0.930 . S
H659 C689 0.930 . S
O660 Co649 2.093 . S
O660 C652 1.224 . S
H661 C693 0.929 . S
H662 C695 0.930 . S
H663 C696 0.930 . S
H664 C694 0.929 . S
H665 C697 0.928 . S
O666 Co650 2.057 . S
O666 C654 1.232 . S
H667 C686 0.929 . S
H668 C687 0.929 1_455 S
H669 C699 0.931 . S
H670 C691 0.929 . S
H671 C700 0.930 . S
H672 C692 0.931 . S
O673 Co649 2.097 . S
O673 C701 1.214 . S
H674 C702 0.929 . S
H675 C703 0.929 . S
H676 C704 0.930 . S
H677 C705 0.929 1_655 S
H678 C707 0.930 . S
H679 C684 0.930 . S
H680 C688 0.930 . S
O681 Co650 2.037 . S
O681 C701 1.234 . S
C682 O656 1.269 . S
C682 O657 1.257 . S
C683 H658 0.930 . S
C683 C686 1.388 1_655 S
C683 C688 1.418 . S
C684 H679 0.930 . S
C684 C687 1.403 . S
C684 C688 1.353 . S
N685 Co650 2.145 . S
N685 C686 1.397 . S
N685 C687 1.335 1_455 S
C686 H667 0.929 . S
C686 C683 1.388 1_455 S
C686 N685 1.397 . S
C687 H668 0.929 1_655 S
C687 C684 1.403 . S
C687 N685 1.335 1_655 S
C688 H680 0.930 . S
C688 C683 1.418 . S
C688 C684 1.353 . S
C689 H659 0.930 . S
C689 N690 1.330 . S
C689 C691 1.446 . S
N690 Co649 2.151 . S
N690 C689 1.330 . S
N690 C694 1.418 . S
C691 H670 0.929 . S
C691 C689 1.446 . S
C691 C692 1.332 . S
C692 H672 0.931 . S
C692 C691 1.332 . S
C692 C693 1.267 . S
C693 H661 0.929 . S
C693 C692 1.267 . S
C693 C694 1.251 . S
C694 H664 0.929 . S
C694 N690 1.418 . S
C694 C693 1.251 . S
C695 H662 0.930 . S
C695 C697 1.406 . S
C695 C700 1.261 . S
C696 H663 0.930 . S
C696 N698 1.325 . S
C696 C699 1.357 . S
C697 H665 0.928 . S
C697 C695 1.406 . S
C697 N698 1.261 . S
N698 Co649 2.214 . S
N698 C696 1.325 . S
N698 C697 1.261 . S
C699 H669 0.931 . S
C699 C696 1.357 . S
C699 C700 1.312 . S
C700 H671 0.930 . S
C700 C695 1.261 . S
C700 C699 1.312 . S
C701 O673 1.214 . S
C701 O681 1.234 . S
C702 H674 0.929 . S
C702 C705 1.391 . S
C702 C707 1.391 . S
C703 H675 0.929 . S
C703 C704 1.390 1_455 S
C703 N706 1.391 . S
C704 H676 0.930 . S
C704 C703 1.390 1_655 S
C704 C705 1.392 1_655 S
C705 H677 0.929 1_455 S
C705 C702 1.391 . S
C705 C704 1.392 1_455 S
N706 Co650 2.257 . S
N706 C703 1.391 . S
N706 C707 1.388 . S
C707 H678 0.930 . S
C707 C702 1.391 . S
C707 N706 1.388 . S
Co708 O710 2.143 . S
Co708 O716 2.074 . S
Co708 O719 2.093 . S
Co708 O732 2.097 . S
Co708 N749 2.151 . S
Co708 N757 2.214 . S
Co709 O710 2.160 . S
Co709 O715 2.058 . S
Co709 O725 2.057 . S
Co709 O740 2.037 . S
Co709 N744 2.145 . S
Co709 N765 2.257 . S
O710 Co708 2.143 . S
O710 Co709 2.160 . S
C711 O712 1.278 . S
C711 O719 1.224 . S
O712 C711 1.278 . S
C713 O714 1.245 . S
C713 O725 1.232 . S
O714 C713 1.245 . S
O715 Co709 2.058 . S
O715 C741 1.269 . S
O716 Co708 2.074 . S
O716 C741 1.257 . S
H717 C742 0.930 . S
H718 C748 0.930 . S
O719 Co708 2.093 . S
O719 C711 1.224 . S
H720 C752 0.929 . S
H721 C754 0.930 . S
H722 C755 0.930 . S
H723 C753 0.929 . S
H724 C756 0.928 . S
O725 Co709 2.057 . S
O725 C713 1.232 . S
H726 C745 0.929 . S
H727 C746 0.929 1_565 S
H728 C758 0.931 . S
H729 C750 0.929 . S
H730 C759 0.930 . S
H731 C751 0.931 . S
O732 Co708 2.097 . S
O732 C760 1.214 . S
H733 C761 0.929 . S
H734 C762 0.929 . S
H735 C763 0.930 . S
H736 C764 0.929 1_545 S
H737 C766 0.930 . S
H738 C743 0.930 . S
H739 C747 0.930 . S
O740 Co709 2.037 . S
O740 C760 1.234 . S
C741 O715 1.269 . S
C741 O716 1.257 . S
C742 H717 0.930 . S
C742 C745 1.388 1_545 S
C742 C747 1.418 . S
C743 H738 0.930 . S
C743 C746 1.403 . S
C743 C747 1.353 . S
N744 Co709 2.145 . S
N744 C745 1.397 . S
N744 C746 1.335 1_565 S
C745 H726 0.929 . S
C745 C742 1.388 1_565 S
C745 N744 1.397 . S
C746 H727 0.929 1_545 S
C746 C743 1.403 . S
C746 N744 1.335 1_545 S
C747 H739 0.930 . S
C747 C742 1.418 . S
C747 C743 1.353 . S
C748 H718 0.930 . S
C748 N749 1.330 . S
C748 C750 1.446 . S
N749 Co708 2.151 . S
N749 C748 1.330 . S
N749 C753 1.418 . S
C750 H729 0.929 . S
C750 C748 1.446 . S
C750 C751 1.332 . S
C751 H731 0.931 . S
C751 C750 1.332 . S
C751 C752 1.267 . S
C752 H720 0.929 . S
C752 C751 1.267 . S
C752 C753 1.251 . S
C753 H723 0.929 . S
C753 N749 1.418 . S
C753 C752 1.251 . S
C754 H721 0.930 . S
C754 C756 1.406 . S
C754 C759 1.261 . S
C755 H722 0.930 . S
C755 N757 1.325 . S
C755 C758 1.357 . S
C756 H724 0.928 . S
C756 C754 1.406 . S
C756 N757 1.261 . S
N757 Co708 2.214 . S
N757 C755 1.325 . S
N757 C756 1.261 . S
C758 H728 0.931 . S
C758 C755 1.357 . S
C758 C759 1.312 . S
C759 H730 0.930 . S
C759 C754 1.261 . S
C759 C758 1.312 . S
C760 O732 1.214 . S
C760 O740 1.234 . S
C761 H733 0.929 . S
C761 C764 1.391 . S
C761 C766 1.391 . S
C762 H734 0.929 . S
C762 C763 1.390 1_565 S
C762 N765 1.391 . S
C763 H735 0.930 . S
C763 C762 1.390 1_545 S
C763 C764 1.392 1_545 S
C764 H736 0.929 1_565 S
C764 C761 1.391 . S
C764 C763 1.392 1_565 S
N765 Co709 2.257 . S
N765 C762 1.391 . S
N765 C766 1.388 . S
C766 H737 0.930 . S
C766 C761 1.391 . S
C766 N765 1.388 . S
Co767 O769 2.143 . S
Co767 O775 2.074 . S
Co767 O778 2.093 . S
Co767 O791 2.097 . S
Co767 N808 2.151 . S
Co767 N816 2.214 . S
Co768 O769 2.160 . S
Co768 O774 2.058 . S
Co768 O784 2.057 . S
Co768 O799 2.037 . S
Co768 N803 2.145 . S
Co768 N824 2.257 . S
O769 Co767 2.143 . S
O769 Co768 2.160 . S
C770 O771 1.278 . S
C770 O778 1.224 . S
O771 C770 1.278 . S
C772 O773 1.245 . S
C772 O784 1.232 . S
O773 C772 1.245 . S
O774 Co768 2.058 . S
O774 C800 1.269 . S
O775 Co767 2.074 . S
O775 C800 1.257 . S
H776 C801 0.930 . S
H777 C807 0.930 . S
O778 Co767 2.093 . S
O778 C770 1.224 . S
H779 C811 0.929 . S
H780 C813 0.930 . S
H781 C814 0.930 . S
H782 C812 0.929 . S
H783 C815 0.928 . S
O784 Co768 2.057 . S
O784 C772 1.232 . S
H785 C804 0.929 . S
H786 C805 0.929 1_455 S
H787 C817 0.931 . S
H788 C809 0.929 . S
H789 C818 0.930 . S
H790 C810 0.931 . S
O791 Co767 2.097 . S
O791 C819 1.214 . S
H792 C820 0.929 . S
H793 C821 0.929 . S
H794 C822 0.930 . S
H795 C823 0.929 1_655 S
H796 C825 0.930 . S
H797 C802 0.930 . S
H798 C806 0.930 . S
O799 Co768 2.037 . S
O799 C819 1.234 . S
C800 O774 1.269 . S
C800 O775 1.257 . S
C801 H776 0.930 . S
C801 C804 1.388 1_655 S
C801 C806 1.418 . S
C802 H797 0.930 . S
C802 C805 1.403 . S
C802 C806 1.353 . S
N803 Co768 2.145 . S
N803 C804 1.397 . S
N803 C805 1.335 1_455 S
C804 H785 0.929 . S
C804 C801 1.388 1_455 S
C804 N803 1.397 . S
C805 H786 0.929 1_655 S
C805 C802 1.403 . S
C805 N803 1.335 1_655 S
C806 H798 0.930 . S
C806 C801 1.418 . S
C806 C802 1.353 . S
C807 H777 0.930 . S
C807 N808 1.330 . S
C807 C809 1.446 . S
N808 Co767 2.151 . S
N808 C807 1.330 . S
N808 C812 1.418 . S
C809 H788 0.929 . S
C809 C807 1.446 . S
C809 C810 1.332 . S
C810 H790 0.931 . S
C810 C809 1.332 . S
C810 C811 1.267 . S
C811 H779 0.929 . S
C811 C810 1.267 . S
C811 C812 1.251 . S
C812 H782 0.929 . S
C812 N808 1.418 . S
C812 C811 1.251 . S
C813 H780 0.930 . S
C813 C815 1.406 . S
C813 C818 1.261 . S
C814 H781 0.930 . S
C814 N816 1.325 . S
C814 C817 1.357 . S
C815 H783 0.928 . S
C815 C813 1.406 . S
C815 N816 1.261 . S
N816 Co767 2.214 . S
N816 C814 1.325 . S
N816 C815 1.261 . S
C817 H787 0.931 . S
C817 C814 1.357 . S
C817 C818 1.312 . S
C818 H789 0.930 . S
C818 C813 1.261 . S
C818 C817 1.312 . S
C819 O791 1.214 . S
C819 O799 1.234 . S
C820 H792 0.929 . S
C820 C823 1.391 . S
C820 C825 1.391 . S
C821 H793 0.929 . S
C821 C822 1.390 1_455 S
C821 N824 1.391 . S
C822 H794 0.930 . S
C822 C821 1.390 1_655 S
C822 C823 1.392 1_655 S
C823 H795 0.929 1_455 S
C823 C820 1.391 . S
C823 C822 1.392 1_455 S
N824 Co768 2.257 . S
N824 C821 1.391 . S
N824 C825 1.388 . S
C825 H796 0.930 . S
C825 C820 1.391 . S
C825 N824 1.388 . S
Co826 O828 2.143 . S
Co826 O834 2.074 . S
Co826 O837 2.093 . S
Co826 O850 2.097 . S
Co826 N867 2.151 . S
Co826 N875 2.214 . S
Co827 O828 2.160 . S
Co827 O833 2.058 . S
Co827 O843 2.057 . S
Co827 O858 2.037 . S
Co827 N862 2.145 . S
Co827 N883 2.257 . S
O828 Co826 2.143 . S
O828 Co827 2.160 . S
C829 O830 1.278 . S
C829 O837 1.224 . S
O830 C829 1.278 . S
C831 O832 1.245 . S
C831 O843 1.232 . S
O832 C831 1.245 . S
O833 Co827 2.058 . S
O833 C859 1.269 . S
O834 Co826 2.074 . S
O834 C859 1.257 . S
H835 C860 0.930 . S
H836 C866 0.930 . S
O837 Co826 2.093 . S
O837 C829 1.224 . S
H838 C870 0.929 . S
H839 C872 0.930 . S
H840 C873 0.930 . S
H841 C871 0.929 . S
H842 C874 0.928 . S
O843 Co827 2.057 . S
O843 C831 1.232 . S
H844 C863 0.929 . S
H845 C864 0.929 . S
H846 C876 0.931 . S
H847 C868 0.929 . S
H848 C877 0.930 . S
H849 C869 0.931 . S
O850 Co826 2.097 . S
O850 C878 1.214 . S
H851 C879 0.929 . S
H852 C880 0.929 . S
H853 C881 0.930 . S
H854 C882 0.929 . S
H855 C884 0.930 . S
H856 C861 0.930 . S
H857 C865 0.930 . S
O858 Co827 2.037 . S
O858 C878 1.234 . S
C859 O833 1.269 . S
C859 O834 1.257 . S
C860 H835 0.930 . S
C860 C863 1.388 . S
C860 C865 1.418 . S
C861 H856 0.930 . S
C861 C864 1.404 . S
C861 C865 1.353 . S
N862 Co827 2.145 . S
N862 C863 1.397 . S
N862 C864 1.334 . S
C863 H844 0.929 . S
C863 C860 1.388 . S
C863 N862 1.397 . S
C864 H845 0.929 . S
C864 C861 1.404 . S
C864 N862 1.334 . S
C865 H857 0.930 . S
C865 C860 1.418 . S
C865 C861 1.353 . S
C866 H836 0.930 . S
C866 N867 1.330 . S
C866 C868 1.446 . S
N867 Co826 2.151 . S
N867 C866 1.330 . S
N867 C871 1.418 . S
C868 H847 0.929 . S
C868 C866 1.446 . S
C868 C869 1.332 . S
C869 H849 0.931 . S
C869 C868 1.332 . S
C869 C870 1.267 . S
C870 H838 0.929 . S
C870 C869 1.267 . S
C870 C871 1.251 . S
C871 H841 0.929 . S
C871 N867 1.418 . S
C871 C870 1.251 . S
C872 H839 0.930 . S
C872 C874 1.406 . S
C872 C877 1.261 . S
C873 H840 0.930 . S
C873 N875 1.325 . S
C873 C876 1.357 . S
C874 H842 0.928 . S
C874 C872 1.406 . S
C874 N875 1.261 . S
N875 Co826 2.214 . S
N875 C873 1.325 . S
N875 C874 1.261 . S
C876 H846 0.931 . S
C876 C873 1.357 . S
C876 C877 1.312 . S
C877 H848 0.930 . S
C877 C872 1.261 . S
C877 C876 1.312 . S
C878 O850 1.214 . S
C878 O858 1.234 . S
C879 H851 0.929 . S
C879 C882 1.391 . S
C879 C884 1.391 . S
C880 H852 0.929 . S
C880 C881 1.390 . S
C880 N883 1.391 . S
C881 H853 0.930 . S
C881 C880 1.390 . S
C881 C882 1.392 . S
C882 H854 0.929 . S
C882 C879 1.391 . S
C882 C881 1.392 . S
N883 Co827 2.257 . S
N883 C880 1.391 . S
N883 C884 1.388 . S
C884 H855 0.930 . S
C884 C879 1.391 . S
C884 N883 1.388 . S
Co885 O887 2.143 . S
Co885 O893 2.074 . S
Co885 O896 2.093 . S
Co885 O909 2.097 . S
Co885 N926 2.151 . S
Co885 N934 2.214 . S
Co886 O887 2.160 . S
Co886 O892 2.058 . S
Co886 O902 2.057 . S
Co886 O917 2.037 . S
Co886 N921 2.145 . S
Co886 N942 2.257 . S
O887 Co885 2.143 . S
O887 Co886 2.160 . S
C888 O889 1.278 . S
C888 O896 1.224 . S
O889 C888 1.278 . S
C890 O891 1.245 . S
C890 O902 1.232 . S
O891 C890 1.245 . S
O892 Co886 2.058 . S
O892 C918 1.269 . S
O893 Co885 2.074 . S
O893 C918 1.257 . S
H894 C919 0.930 . S
H895 C925 0.930 . S
O896 Co885 2.093 . S
O896 C888 1.224 . S
H897 C929 0.929 . S
H898 C931 0.930 . S
H899 C932 0.930 . S
H900 C930 0.929 . S
H901 C933 0.928 . S
O902 Co886 2.057 . S
O902 C890 1.232 . S
H903 C922 0.929 . S
H904 C923 0.929 . S
H905 C935 0.931 . S
H906 C927 0.929 . S
H907 C936 0.930 . S
H908 C928 0.931 . S
O909 Co885 2.097 . S
O909 C937 1.214 . S
H910 C938 0.929 . S
H911 C939 0.929 . S
H912 C940 0.930 . S
H913 C941 0.929 . S
H914 C943 0.930 . S
H915 C920 0.930 . S
H916 C924 0.930 . S
O917 Co886 2.037 . S
O917 C937 1.234 . S
C918 O892 1.269 . S
C918 O893 1.257 . S
C919 H894 0.930 . S
C919 C922 1.388 . S
C919 C924 1.418 . S
C920 H915 0.930 . S
C920 C923 1.404 . S
C920 C924 1.353 . S
N921 Co886 2.145 . S
N921 C922 1.397 . S
N921 C923 1.334 . S
C922 H903 0.929 . S
C922 C919 1.388 . S
C922 N921 1.397 . S
C923 H904 0.929 . S
C923 C920 1.404 . S
C923 N921 1.334 . S
C924 H916 0.930 . S
C924 C919 1.418 . S
C924 C920 1.353 . S
C925 H895 0.930 . S
C925 N926 1.330 . S
C925 C927 1.446 . S
N926 Co885 2.151 . S
N926 C925 1.330 . S
N926 C930 1.418 . S
C927 H906 0.929 . S
C927 C925 1.446 . S
C927 C928 1.332 . S
C928 H908 0.931 . S
C928 C927 1.332 . S
C928 C929 1.267 . S
C929 H897 0.929 . S
C929 C928 1.267 . S
C929 C930 1.251 . S
C930 H900 0.929 . S
C930 N926 1.418 . S
C930 C929 1.251 . S
C931 H898 0.930 . S
C931 C933 1.406 . S
C931 C936 1.261 . S
C932 H899 0.930 . S
C932 N934 1.325 . S
C932 C935 1.357 . S
C933 H901 0.928 . S
C933 C931 1.406 . S
C933 N934 1.261 . S
N934 Co885 2.214 . S
N934 C932 1.325 . S
N934 C933 1.261 . S
C935 H905 0.931 . S
C935 C932 1.357 . S
C935 C936 1.312 . S
C936 H907 0.930 . S
C936 C931 1.261 . S
C936 C935 1.312 . S
C937 O909 1.214 . S
C937 O917 1.234 . S
C938 H910 0.929 . S
C938 C941 1.391 . S
C938 C943 1.391 . S
C939 H911 0.929 . S
C939 C940 1.390 . S
C939 N942 1.391 . S
C940 H912 0.930 . S
C940 C939 1.390 . S
C940 C941 1.392 . S
C941 H913 0.929 . S
C941 C938 1.391 . S
C941 C940 1.392 . S
N942 Co886 2.257 . S
N942 C939 1.391 . S
N942 C943 1.388 . S
C943 H914 0.930 . S
C943 C938 1.391 . S
C943 N942 1.388 . S
H944 C962 0.951 . S
H945 C964 0.951 . S
H946 C966 0.950 . S
H947 C967 0.950 . S
H948 C969 0.950 . S
H949 C972 0.950 . S
H950 C973 0.950 . S
H951 C975 0.950 . S
H952 C976 0.950 . S
H953 C977 0.951 . S
H954 C979 0.951 . S
H955 C981 0.950 . S
H956 C982 0.950 . S
H957 C984 0.950 . S
H958 C987 0.950 . S
H959 C988 0.950 . S
H960 C990 0.950 . S
H961 C991 0.950 . S
C962 H944 0.951 . S
C962 C963 1.366 . S
C962 C964 1.388 . S
C963 C962 1.366 . S
C963 C967 1.385 . S
C964 H945 0.951 . S
C964 C962 1.388 . S
C964 C965 1.366 . S
C965 C964 1.366 . S
C965 C966 1.414 . S
C965 C968 1.499 . S
C966 H946 0.950 . S
C966 C965 1.414 . S
C966 C967 1.374 . S
C967 H947 0.950 . S
C967 C963 1.385 . S
C967 C966 1.374 . S
C968 C965 1.499 . S
C968 C969 1.373 . S
C968 C970 1.389 . S
C969 H948 0.950 . S
C969 C968 1.373 . S
C969 C985 1.377 . S
C970 C968 1.389 . S
C970 C971 1.524 . S
C970 C984 1.377 . S
C971 C970 1.524 . S
C971 C972 1.397 . S
C971 C976 1.363 . S
C972 H949 0.950 . S
C972 C971 1.397 . S
C972 C973 1.334 . S
C973 H950 0.950 . S
C973 C972 1.334 . S
C973 C974 1.287 . S
C974 C973 1.287 . S
C974 C975 1.524 . S
C974 H993 0.913 . S
C975 H951 0.950 . S
C975 C974 1.524 . S
C975 C976 1.415 . S
C976 H952 0.950 . S
C976 C971 1.363 . S
C976 C975 1.415 . S
C977 H953 0.951 . S
C977 C978 1.366 . S
C977 C979 1.388 . S
C978 C977 1.366 . S
C978 C982 1.385 . S
C979 H954 0.951 . S
C979 C977 1.388 . S
C979 C980 1.366 . S
C980 C979 1.366 . S
C980 C981 1.414 . S
C980 C983 1.499 . S
C981 H955 0.950 . S
C981 C980 1.414 . S
C981 C982 1.374 . S
C982 H956 0.950 . S
C982 C978 1.385 . S
C982 C981 1.374 . S
C983 C980 1.499 . S
C983 C984 1.373 . S
C983 C985 1.389 . S
C984 H957 0.950 . S
C984 C970 1.377 . S
C984 C983 1.373 . S
C985 C969 1.377 . S
C985 C983 1.389 . S
C985 C986 1.524 . S
C986 C985 1.524 . S
C986 C987 1.397 . S
C986 C991 1.363 . S
C987 H958 0.950 . S
C987 C986 1.397 . S
C987 C988 1.334 . S
C988 H959 0.950 . S
C988 C987 1.334 . S
C988 C989 1.287 . S
C989 C988 1.287 . S
C989 C990 1.524 . S
C989 H992 0.999 . S
C990 H960 0.950 . S
C990 C989 1.524 . S
C990 C991 1.415 . S
C991 H961 0.950 . S
C991 C986 1.363 . S
C991 C990 1.415 . S
H992 C989 0.999 . S
H993 C974 0.913 . S
H994 C1012 0.951 . S
H995 C1014 0.951 . S
H996 C1016 0.950 . S
H997 C1017 0.950 . S
H998 C1019 0.950 . S
H999 C1022 0.950 . S
H1000 C1023 0.950 . S
H1001 C1025 0.950 . S
H1002 C1026 0.950 . S
H1003 C1027 0.951 . S
H1004 C1029 0.951 . S
H1005 C1031 0.950 . S
H1006 C1032 0.950 . S
H1007 C1034 0.950 . S
H1008 C1037 0.950 . S
H1009 C1038 0.950 . S
H1010 C1040 0.950 . S
H1011 C1041 0.950 . S
C1012 H994 0.951 . S
C1012 C1013 1.366 . S
C1012 C1014 1.388 . S
C1013 C1012 1.366 . S
C1013 C1017 1.385 . S
C1014 H995 0.951 . S
C1014 C1012 1.388 . S
C1014 C1015 1.366 . S
C1015 C1014 1.366 . S
C1015 C1016 1.414 . S
C1015 C1018 1.499 . S
C1016 H996 0.950 . S
C1016 C1015 1.414 . S
C1016 C1017 1.374 . S
C1017 H997 0.950 . S
C1017 C1013 1.385 . S
C1017 C1016 1.374 . S
C1018 C1015 1.499 . S
C1018 C1019 1.373 . S
C1018 C1020 1.389 . S
C1019 H998 0.950 . S
C1019 C1018 1.373 . S
C1019 C1035 1.377 . S
C1020 C1018 1.389 . S
C1020 C1021 1.524 . S
C1020 C1034 1.377 . S
C1021 C1020 1.524 . S
C1021 C1022 1.397 . S
C1021 C1026 1.363 . S
C1022 H999 0.950 . S
C1022 C1021 1.397 . S
C1022 C1023 1.334 . S
C1023 H1000 0.950 . S
C1023 C1022 1.334 . S
C1023 C1024 1.287 . S
C1024 C1023 1.287 . S
C1024 C1025 1.524 . S
C1024 H1043 0.913 . S
C1025 H1001 0.950 . S
C1025 C1024 1.524 . S
C1025 C1026 1.415 . S
C1026 H1002 0.950 . S
C1026 C1021 1.363 . S
C1026 C1025 1.415 . S
C1027 H1003 0.951 . S
C1027 C1028 1.366 . S
C1027 C1029 1.388 . S
C1028 C1027 1.366 . S
C1028 C1032 1.385 . S
C1029 H1004 0.951 . S
C1029 C1027 1.388 . S
C1029 C1030 1.366 . S
C1030 C1029 1.366 . S
C1030 C1031 1.414 . S
C1030 C1033 1.499 . S
C1031 H1005 0.950 . S
C1031 C1030 1.414 . S
C1031 C1032 1.374 . S
C1032 H1006 0.950 . S
C1032 C1028 1.385 . S
C1032 C1031 1.374 . S
C1033 C1030 1.499 . S
C1033 C1034 1.373 . S
C1033 C1035 1.389 . S
C1034 H1007 0.950 . S
C1034 C1020 1.377 . S
C1034 C1033 1.373 . S
C1035 C1019 1.377 . S
C1035 C1033 1.389 . S
C1035 C1036 1.524 . S
C1036 C1035 1.524 . S
C1036 C1037 1.397 . S
C1036 C1041 1.363 . S
C1037 H1008 0.950 . S
C1037 C1036 1.397 . S
C1037 C1038 1.334 . S
C1038 H1009 0.950 . S
C1038 C1037 1.334 . S
C1038 C1039 1.287 . S
C1039 C1038 1.287 . S
C1039 C1040 1.524 . S
C1039 H1042 0.999 . S
C1040 H1010 0.950 . S
C1040 C1039 1.524 . S
C1040 C1041 1.415 . S
C1041 H1011 0.950 . S
C1041 C1036 1.363 . S
C1041 C1040 1.415 . S
H1042 C1039 0.999 . S
H1043 C1024 0.913 . S
H1044 C1062 0.951 . S
H1045 C1064 0.951 . S
H1046 C1066 0.950 . S
H1047 C1067 0.950 . S
H1048 C1069 0.950 . S
H1049 C1072 0.950 . S
H1050 C1073 0.950 . S
H1051 C1075 0.950 . S
H1052 C1076 0.950 . S
H1053 C1077 0.951 . S
H1054 C1079 0.951 . S
H1055 C1081 0.950 . S
H1056 C1082 0.950 . S
H1057 C1084 0.950 . S
H1058 C1087 0.950 . S
H1059 C1088 0.950 . S
H1060 C1090 0.950 . S
H1061 C1091 0.950 . S
C1062 H1044 0.951 . S
C1062 C1063 1.366 . S
C1062 C1064 1.388 . S
C1063 C1062 1.366 . S
C1063 C1067 1.385 . S
C1064 H1045 0.951 . S
C1064 C1062 1.388 . S
C1064 C1065 1.366 . S
C1065 C1064 1.366 . S
C1065 C1066 1.414 . S
C1065 C1068 1.499 . S
C1066 H1046 0.950 . S
C1066 C1065 1.414 . S
C1066 C1067 1.374 . S
C1067 H1047 0.950 . S
C1067 C1063 1.385 . S
C1067 C1066 1.374 . S
C1068 C1065 1.499 . S
C1068 C1069 1.373 . S
C1068 C1070 1.389 . S
C1069 H1048 0.950 . S
C1069 C1068 1.373 . S
C1069 C1085 1.377 . S
C1070 C1068 1.389 . S
C1070 C1071 1.524 . S
C1070 C1084 1.377 . S
C1071 C1070 1.524 . S
C1071 C1072 1.397 . S
C1071 C1076 1.363 . S
C1072 H1049 0.950 . S
C1072 C1071 1.397 . S
C1072 C1073 1.334 . S
C1073 H1050 0.950 . S
C1073 C1072 1.334 . S
C1073 C1074 1.287 . S
C1074 C1073 1.287 . S
C1074 C1075 1.524 . S
C1074 H1093 0.913 . S
C1075 H1051 0.950 . S
C1075 C1074 1.524 . S
C1075 C1076 1.415 . S
C1076 H1052 0.950 . S
C1076 C1071 1.363 . S
C1076 C1075 1.415 . S
C1077 H1053 0.951 . S
C1077 C1078 1.366 . S
C1077 C1079 1.388 . S
C1078 C1077 1.366 . S
C1078 C1082 1.385 . S
C1079 H1054 0.951 . S
C1079 C1077 1.388 . S
C1079 C1080 1.366 . S
C1080 C1079 1.366 . S
C1080 C1081 1.414 . S
C1080 C1083 1.499 . S
C1081 H1055 0.950 . S
C1081 C1080 1.414 . S
C1081 C1082 1.374 . S
C1082 H1056 0.950 . S
C1082 C1078 1.385 . S
C1082 C1081 1.374 . S
C1083 C1080 1.499 . S
C1083 C1084 1.373 . S
C1083 C1085 1.389 . S
C1084 H1057 0.950 . S
C1084 C1070 1.377 . S
C1084 C1083 1.373 . S
C1085 C1069 1.377 . S
C1085 C1083 1.389 . S
C1085 C1086 1.524 . S
C1086 C1085 1.524 . S
C1086 C1087 1.397 . S
C1086 C1091 1.363 . S
C1087 H1058 0.950 . S
C1087 C1086 1.397 . S
C1087 C1088 1.334 . S
C1088 H1059 0.950 . S
C1088 C1087 1.334 . S
C1088 C1089 1.287 . S
C1089 C1088 1.287 . S
C1089 C1090 1.524 . S
C1089 H1092 0.999 . S
C1090 H1060 0.950 . S
C1090 C1089 1.524 . S
C1090 C1091 1.415 . S
C1091 H1061 0.950 . S
C1091 C1086 1.363 . S
C1091 C1090 1.415 . S
H1092 C1089 0.999 . S
H1093 C1074 0.913 . S
H1094 C1112 0.951 . S
H1095 C1114 0.951 . S
H1096 C1116 0.950 . S
H1097 C1117 0.950 . S
H1098 C1119 0.950 . S
H1099 C1122 0.950 . S
H1100 C1123 0.950 . S
H1101 C1125 0.950 . S
H1102 C1126 0.950 . S
H1103 C1127 0.951 . S
H1104 C1129 0.951 . S
H1105 C1131 0.950 . S
H1106 C1132 0.950 . S
H1107 C1134 0.950 . S
H1108 C1137 0.950 . S
H1109 C1138 0.950 . S
H1110 C1140 0.950 . S
H1111 C1141 0.950 . S
C1112 H1094 0.951 . S
C1112 C1113 1.366 . S
C1112 C1114 1.388 . S
C1113 C1112 1.366 . S
C1113 C1117 1.385 . S
C1114 H1095 0.951 . S
C1114 C1112 1.388 . S
C1114 C1115 1.366 . S
C1115 C1114 1.366 . S
C1115 C1116 1.414 . S
C1115 C1118 1.499 . S
C1116 H1096 0.950 . S
C1116 C1115 1.414 . S
C1116 C1117 1.374 . S
C1117 H1097 0.950 . S
C1117 C1113 1.385 . S
C1117 C1116 1.374 . S
C1118 C1115 1.499 . S
C1118 C1119 1.373 . S
C1118 C1120 1.389 . S
C1119 H1098 0.950 . S
C1119 C1118 1.373 . S
C1119 C1135 1.377 . S
C1120 C1118 1.389 . S
C1120 C1121 1.524 . S
C1120 C1134 1.377 . S
C1121 C1120 1.524 . S
C1121 C1122 1.397 . S
C1121 C1126 1.363 . S
C1122 H1099 0.950 . S
C1122 C1121 1.397 . S
C1122 C1123 1.334 . S
C1123 H1100 0.950 . S
C1123 C1122 1.334 . S
C1123 C1124 1.287 . S
C1124 C1123 1.287 . S
C1124 C1125 1.524 . S
C1124 H1143 0.913 . S
C1125 H1101 0.950 . S
C1125 C1124 1.524 . S
C1125 C1126 1.415 . S
C1126 H1102 0.950 . S
C1126 C1121 1.363 . S
C1126 C1125 1.415 . S
C1127 H1103 0.951 . S
C1127 C1128 1.366 . S
C1127 C1129 1.388 . S
C1128 C1127 1.366 . S
C1128 C1132 1.385 . S
C1129 H1104 0.951 . S
C1129 C1127 1.388 . S
C1129 C1130 1.366 . S
C1130 C1129 1.366 . S
C1130 C1131 1.414 . S
C1130 C1133 1.499 . S
C1131 H1105 0.950 . S
C1131 C1130 1.414 . S
C1131 C1132 1.374 . S
C1132 H1106 0.950 . S
C1132 C1128 1.385 . S
C1132 C1131 1.374 . S
C1133 C1130 1.499 . S
C1133 C1134 1.373 . S
C1133 C1135 1.389 . S
C1134 H1107 0.950 . S
C1134 C1120 1.377 . S
C1134 C1133 1.373 . S
C1135 C1119 1.377 . S
C1135 C1133 1.389 . S
C1135 C1136 1.524 . S
C1136 C1135 1.524 . S
C1136 C1137 1.397 . S
C1136 C1141 1.363 . S
C1137 H1108 0.950 . S
C1137 C1136 1.397 . S
C1137 C1138 1.334 . S
C1138 H1109 0.950 . S
C1138 C1137 1.334 . S
C1138 C1139 1.287 . S
C1139 C1138 1.287 . S
C1139 C1140 1.524 . S
C1139 H1142 0.999 . S
C1140 H1110 0.950 . S
C1140 C1139 1.524 . S
C1140 C1141 1.415 . S
C1141 H1111 0.950 . S
C1141 C1136 1.363 . S
C1141 C1140 1.415 . S
H1142 C1139 0.999 . S
H1143 C1124 0.913 . S
H1144 C1162 0.951 . S
H1145 C1164 0.951 . S
H1146 C1166 0.950 . S
H1147 C1167 0.950 . S
H1148 C1169 0.950 . S
H1149 C1172 0.950 . S
H1150 C1173 0.950 . S
H1151 C1175 0.950 . S
H1152 C1176 0.950 . S
H1153 C1177 0.951 . S
H1154 C1179 0.951 . S
H1155 C1181 0.950 . S
H1156 C1182 0.950 . S
H1157 C1184 0.950 . S
H1158 C1187 0.950 . S
H1159 C1188 0.950 . S
H1160 C1190 0.950 . S
H1161 C1191 0.950 . S
C1162 H1144 0.951 . S
C1162 C1163 1.366 . S
C1162 C1164 1.388 . S
C1163 C1162 1.366 . S
C1163 C1167 1.385 . S
C1164 H1145 0.951 . S
C1164 C1162 1.388 . S
C1164 C1165 1.366 . S
C1165 C1164 1.366 . S
C1165 C1166 1.414 . S
C1165 C1168 1.499 . S
C1166 H1146 0.950 . S
C1166 C1165 1.414 . S
C1166 C1167 1.374 . S
C1167 H1147 0.950 . S
C1167 C1163 1.385 . S
C1167 C1166 1.374 . S
C1168 C1165 1.499 . S
C1168 C1169 1.373 . S
C1168 C1170 1.389 . S
C1169 H1148 0.950 . S
C1169 C1168 1.373 . S
C1169 C1185 1.377 . S
C1170 C1168 1.389 . S
C1170 C1171 1.524 . S
C1170 C1184 1.377 . S
C1171 C1170 1.524 . S
C1171 C1172 1.397 . S
C1171 C1176 1.363 . S
C1172 H1149 0.950 . S
C1172 C1171 1.397 . S
C1172 C1173 1.334 . S
C1173 H1150 0.950 . S
C1173 C1172 1.334 . S
C1173 C1174 1.287 . S
C1174 C1173 1.287 . S
C1174 C1175 1.524 . S
C1174 H1193 0.913 . S
C1175 H1151 0.950 . S
C1175 C1174 1.524 . S
C1175 C1176 1.415 . S
C1176 H1152 0.950 . S
C1176 C1171 1.363 . S
C1176 C1175 1.415 . S
C1177 H1153 0.951 . S
C1177 C1178 1.366 . S
C1177 C1179 1.388 . S
C1178 C1177 1.366 . S
C1178 C1182 1.385 . S
C1179 H1154 0.951 . S
C1179 C1177 1.388 . S
C1179 C1180 1.366 . S
C1180 C1179 1.366 . S
C1180 C1181 1.414 . S
C1180 C1183 1.499 . S
C1181 H1155 0.950 . S
C1181 C1180 1.414 . S
C1181 C1182 1.374 . S
C1182 H1156 0.950 . S
C1182 C1178 1.385 . S
C1182 C1181 1.374 . S
C1183 C1180 1.499 . S
C1183 C1184 1.373 . S
C1183 C1185 1.389 . S
C1184 H1157 0.950 . S
C1184 C1170 1.377 . S
C1184 C1183 1.373 . S
C1185 C1169 1.377 . S
C1185 C1183 1.389 . S
C1185 C1186 1.524 . S
C1186 C1185 1.524 . S
C1186 C1187 1.397 . S
C1186 C1191 1.363 . S
C1187 H1158 0.950 . S
C1187 C1186 1.397 . S
C1187 C1188 1.334 . S
C1188 H1159 0.950 . S
C1188 C1187 1.334 . S
C1188 C1189 1.287 . S
C1189 C1188 1.287 . S
C1189 C1190 1.524 . S
C1189 H1192 0.999 . S
C1190 H1160 0.950 . S
C1190 C1189 1.524 . S
C1190 C1191 1.415 . S
C1191 H1161 0.950 . S
C1191 C1186 1.363 . S
C1191 C1190 1.415 . S
H1192 C1189 0.999 . S
H1193 C1174 0.913 . S
H1194 C1212 0.951 . S
H1195 C1214 0.951 . S
H1196 C1216 0.950 . S
H1197 C1217 0.950 . S
H1198 C1219 0.950 . S
H1199 C1222 0.950 . S
H1200 C1223 0.950 . S
H1201 C1225 0.950 . S
H1202 C1226 0.950 . S
H1203 C1227 0.951 . S
H1204 C1229 0.951 . S
H1205 C1231 0.950 . S
H1206 C1232 0.950 . S
H1207 C1234 0.950 . S
H1208 C1237 0.950 . S
H1209 C1238 0.950 . S
H1210 C1240 0.950 . S
H1211 C1241 0.950 . S
C1212 H1194 0.951 . S
C1212 C1213 1.366 . S
C1212 C1214 1.388 . S
C1213 C1212 1.366 . S
C1213 C1217 1.385 . S
C1214 H1195 0.951 . S
C1214 C1212 1.388 . S
C1214 C1215 1.366 . S
C1215 C1214 1.366 . S
C1215 C1216 1.414 . S
C1215 C1218 1.499 . S
C1216 H1196 0.950 . S
C1216 C1215 1.414 . S
C1216 C1217 1.374 . S
C1217 H1197 0.950 . S
C1217 C1213 1.385 . S
C1217 C1216 1.374 . S
C1218 C1215 1.499 . S
C1218 C1219 1.373 . S
C1218 C1220 1.389 . S
C1219 H1198 0.950 . S
C1219 C1218 1.373 . S
C1219 C1235 1.377 . S
C1220 C1218 1.389 . S
C1220 C1221 1.524 . S
C1220 C1234 1.377 . S
C1221 C1220 1.524 . S
C1221 C1222 1.397 . S
C1221 C1226 1.363 . S
C1222 H1199 0.950 . S
C1222 C1221 1.397 . S
C1222 C1223 1.334 . S
C1223 H1200 0.950 . S
C1223 C1222 1.334 . S
C1223 C1224 1.287 . S
C1224 C1223 1.287 . S
C1224 C1225 1.524 . S
C1224 H1243 0.913 . S
C1225 H1201 0.950 . S
C1225 C1224 1.524 . S
C1225 C1226 1.415 . S
C1226 H1202 0.950 . S
C1226 C1221 1.363 . S
C1226 C1225 1.415 . S
C1227 H1203 0.951 . S
C1227 C1228 1.366 . S
C1227 C1229 1.388 . S
C1228 C1227 1.366 . S
C1228 C1232 1.385 . S
C1229 H1204 0.951 . S
C1229 C1227 1.388 . S
C1229 C1230 1.366 . S
C1230 C1229 1.366 . S
C1230 C1231 1.414 . S
C1230 C1233 1.499 . S
C1231 H1205 0.950 . S
C1231 C1230 1.414 . S
C1231 C1232 1.374 . S
C1232 H1206 0.950 . S
C1232 C1228 1.385 . S
C1232 C1231 1.374 . S
C1233 C1230 1.499 . S
C1233 C1234 1.373 . S
C1233 C1235 1.389 . S
C1234 H1207 0.950 . S
C1234 C1220 1.377 . S
C1234 C1233 1.373 . S
C1235 C1219 1.377 . S
C1235 C1233 1.389 . S
C1235 C1236 1.524 . S
C1236 C1235 1.524 . S
C1236 C1237 1.397 . S
C1236 C1241 1.363 . S
C1237 H1208 0.950 . S
C1237 C1236 1.397 . S
C1237 C1238 1.334 . S
C1238 H1209 0.950 . S
C1238 C1237 1.334 . S
C1238 C1239 1.287 . S
C1239 C1238 1.287 . S
C1239 C1240 1.524 . S
C1239 H1242 0.999 . S
C1240 H1210 0.950 . S
C1240 C1239 1.524 . S
C1240 C1241 1.415 . S
C1241 H1211 0.950 . S
C1241 C1236 1.363 . S
C1241 C1240 1.415 . S
H1242 C1239 0.999 . S
H1243 C1224 0.913 . S
H1244 C1262 0.951 . S
H1245 C1264 0.951 . S
H1246 C1266 0.950 . S
H1247 C1267 0.950 . S
H1248 C1269 0.950 . S
H1249 C1272 0.950 . S
H1250 C1273 0.950 . S
H1251 C1275 0.950 . S
H1252 C1276 0.950 . S
H1253 C1277 0.951 . S
H1254 C1279 0.951 . S
H1255 C1281 0.950 . S
H1256 C1282 0.950 . S
H1257 C1284 0.950 . S
H1258 C1287 0.950 . S
H1259 C1288 0.950 . S
H1260 C1290 0.950 . S
H1261 C1291 0.950 . S
C1262 H1244 0.951 . S
C1262 C1263 1.366 . S
C1262 C1264 1.388 . S
C1263 C1262 1.366 . S
C1263 C1267 1.385 . S
C1264 H1245 0.951 . S
C1264 C1262 1.388 . S
C1264 C1265 1.366 . S
C1265 C1264 1.366 . S
C1265 C1266 1.414 . S
C1265 C1268 1.499 . S
C1266 H1246 0.950 . S
C1266 C1265 1.414 . S
C1266 C1267 1.374 . S
C1267 H1247 0.950 . S
C1267 C1263 1.385 . S
C1267 C1266 1.374 . S
C1268 C1265 1.499 . S
C1268 C1269 1.373 . S
C1268 C1270 1.389 . S
C1269 H1248 0.950 . S
C1269 C1268 1.373 . S
C1269 C1285 1.377 . S
C1270 C1268 1.389 . S
C1270 C1271 1.524 . S
C1270 C1284 1.377 . S
C1271 C1270 1.524 . S
C1271 C1272 1.397 . S
C1271 C1276 1.363 . S
C1272 H1249 0.950 . S
C1272 C1271 1.397 . S
C1272 C1273 1.334 . S
C1273 H1250 0.950 . S
C1273 C1272 1.334 . S
C1273 C1274 1.287 . S
C1274 C1273 1.287 . S
C1274 C1275 1.524 . S
C1274 H1293 0.913 . S
C1275 H1251 0.950 . S
C1275 C1274 1.524 . S
C1275 C1276 1.415 . S
C1276 H1252 0.950 . S
C1276 C1271 1.363 . S
C1276 C1275 1.415 . S
C1277 H1253 0.951 . S
C1277 C1278 1.366 . S
C1277 C1279 1.388 . S
C1278 C1277 1.366 . S
C1278 C1282 1.385 . S
C1279 H1254 0.951 . S
C1279 C1277 1.388 . S
C1279 C1280 1.366 . S
C1280 C1279 1.366 . S
C1280 C1281 1.414 . S
C1280 C1283 1.499 . S
C1281 H1255 0.950 . S
C1281 C1280 1.414 . S
C1281 C1282 1.374 . S
C1282 H1256 0.950 . S
C1282 C1278 1.385 . S
C1282 C1281 1.374 . S
C1283 C1280 1.499 . S
C1283 C1284 1.373 . S
C1283 C1285 1.389 . S
C1284 H1257 0.950 . S
C1284 C1270 1.377 . S
C1284 C1283 1.373 . S
C1285 C1269 1.377 . S
C1285 C1283 1.389 . S
C1285 C1286 1.524 . S
C1286 C1285 1.524 . S
C1286 C1287 1.397 . S
C1286 C1291 1.363 . S
C1287 H1258 0.950 . S
C1287 C1286 1.397 . S
C1287 C1288 1.334 . S
C1288 H1259 0.950 . S
C1288 C1287 1.334 . S
C1288 C1289 1.287 . S
C1289 C1288 1.287 . S
C1289 C1290 1.524 . S
C1289 H1292 0.999 . S
C1290 H1260 0.950 . S
C1290 C1289 1.524 . S
C1290 C1291 1.415 . S
C1291 H1261 0.950 . S
C1291 C1286 1.363 . S
C1291 C1290 1.415 . S
H1292 C1289 0.999 . S
H1293 C1274 0.913 . S
H1294 C1312 0.951 . S
H1295 C1314 0.951 . S
H1296 C1316 0.950 . S
H1297 C1317 0.950 . S
H1298 C1319 0.950 . S
H1299 C1322 0.950 . S
H1300 C1323 0.950 . S
H1301 C1325 0.950 . S
H1302 C1326 0.950 . S
H1303 C1327 0.951 . S
H1304 C1329 0.951 . S
H1305 C1331 0.950 . S
H1306 C1332 0.950 . S
H1307 C1334 0.950 . S
H1308 C1337 0.950 . S
H1309 C1338 0.950 . S
H1310 C1340 0.950 . S
H1311 C1341 0.950 . S
C1312 H1294 0.951 . S
C1312 C1313 1.366 . S
C1312 C1314 1.388 . S
C1313 C1312 1.366 . S
C1313 C1317 1.385 . S
C1314 H1295 0.951 . S
C1314 C1312 1.388 . S
C1314 C1315 1.366 . S
C1315 C1314 1.366 . S
C1315 C1316 1.414 . S
C1315 C1318 1.499 . S
C1316 H1296 0.950 . S
C1316 C1315 1.414 . S
C1316 C1317 1.374 . S
C1317 H1297 0.950 . S
C1317 C1313 1.385 . S
C1317 C1316 1.374 . S
C1318 C1315 1.499 . S
C1318 C1319 1.373 . S
C1318 C1320 1.389 . S
C1319 H1298 0.950 . S
C1319 C1318 1.373 . S
C1319 C1335 1.377 . S
C1320 C1318 1.389 . S
C1320 C1321 1.524 . S
C1320 C1334 1.377 . S
C1321 C1320 1.524 . S
C1321 C1322 1.397 . S
C1321 C1326 1.363 . S
C1322 H1299 0.950 . S
C1322 C1321 1.397 . S
C1322 C1323 1.334 . S
C1323 H1300 0.950 . S
C1323 C1322 1.334 . S
C1323 C1324 1.287 . S
C1324 C1323 1.287 . S
C1324 C1325 1.524 . S
C1324 H1343 0.913 . S
C1325 H1301 0.950 . S
C1325 C1324 1.524 . S
C1325 C1326 1.415 . S
C1326 H1302 0.950 . S
C1326 C1321 1.363 . S
C1326 C1325 1.415 . S
C1327 H1303 0.951 . S
C1327 C1328 1.366 . S
C1327 C1329 1.388 . S
C1328 C1327 1.366 . S
C1328 C1332 1.385 . S
C1329 H1304 0.951 . S
C1329 C1327 1.388 . S
C1329 C1330 1.366 . S
C1330 C1329 1.366 . S
C1330 C1331 1.414 . S
C1330 C1333 1.499 . S
C1331 H1305 0.950 . S
C1331 C1330 1.414 . S
C1331 C1332 1.374 . S
C1332 H1306 0.950 . S
C1332 C1328 1.385 . S
C1332 C1331 1.374 . S
C1333 C1330 1.499 . S
C1333 C1334 1.373 . S
C1333 C1335 1.389 . S
C1334 H1307 0.950 . S
C1334 C1320 1.377 . S
C1334 C1333 1.373 . S
C1335 C1319 1.377 . S
C1335 C1333 1.389 . S
C1335 C1336 1.524 . S
C1336 C1335 1.524 . S
C1336 C1337 1.397 . S
C1336 C1341 1.363 . S
C1337 H1308 0.950 . S
C1337 C1336 1.397 . S
C1337 C1338 1.334 . S
C1338 H1309 0.950 . S
C1338 C1337 1.334 . S
C1338 C1339 1.287 . S
C1339 C1338 1.287 . S
C1339 C1340 1.524 . S
C1339 H1342 0.999 . S
C1340 H1310 0.950 . S
C1340 C1339 1.524 . S
C1340 C1341 1.415 . S
C1341 H1311 0.950 . S
C1341 C1336 1.363 . S
C1341 C1340 1.415 . S
H1342 C1339 0.999 . S
H1343 C1324 0.913 . S
H1344 C1362 0.951 . S
H1345 C1364 0.951 . S
H1346 C1366 0.950 . S
H1347 C1367 0.950 . S
H1348 C1369 0.950 . S
H1349 C1372 0.950 . S
H1350 C1373 0.950 . S
H1351 C1375 0.950 . S
H1352 C1376 0.950 . S
H1353 C1377 0.951 . S
H1354 C1379 0.951 . S
H1355 C1381 0.950 . S
H1356 C1382 0.950 . S
H1357 C1384 0.950 . S
H1358 C1387 0.950 . S
H1359 C1388 0.950 . S
H1360 C1390 0.950 . S
H1361 C1391 0.950 . S
C1362 H1344 0.951 . S
C1362 C1363 1.366 . S
C1362 C1364 1.388 . S
C1363 C1362 1.366 . S
C1363 C1367 1.385 . S
C1364 H1345 0.951 . S
C1364 C1362 1.388 . S
C1364 C1365 1.366 . S
C1365 C1364 1.366 . S
C1365 C1366 1.414 . S
C1365 C1368 1.499 . S
C1366 H1346 0.950 . S
C1366 C1365 1.414 . S
C1366 C1367 1.374 . S
C1367 H1347 0.950 . S
C1367 C1363 1.385 . S
C1367 C1366 1.374 . S
C1368 C1365 1.499 . S
C1368 C1369 1.373 . S
C1368 C1370 1.389 . S
C1369 H1348 0.950 . S
C1369 C1368 1.373 . S
C1369 C1385 1.377 . S
C1370 C1368 1.389 . S
C1370 C1371 1.524 . S
C1370 C1384 1.377 . S
C1371 C1370 1.524 . S
C1371 C1372 1.397 . S
C1371 C1376 1.363 . S
C1372 H1349 0.950 . S
C1372 C1371 1.397 . S
C1372 C1373 1.334 . S
C1373 H1350 0.950 . S
C1373 C1372 1.334 . S
C1373 C1374 1.287 . S
C1374 C1373 1.287 . S
C1374 C1375 1.524 . S
C1374 H1393 0.913 . S
C1375 H1351 0.950 . S
C1375 C1374 1.524 . S
C1375 C1376 1.415 . S
C1376 H1352 0.950 . S
C1376 C1371 1.363 . S
C1376 C1375 1.415 . S
C1377 H1353 0.951 . S
C1377 C1378 1.366 . S
C1377 C1379 1.388 . S
C1378 C1377 1.366 . S
C1378 C1382 1.385 . S
C1379 H1354 0.951 . S
C1379 C1377 1.388 . S
C1379 C1380 1.366 . S
C1380 C1379 1.366 . S
C1380 C1381 1.414 . S
C1380 C1383 1.499 . S
C1381 H1355 0.950 . S
C1381 C1380 1.414 . S
C1381 C1382 1.374 . S
C1382 H1356 0.950 . S
C1382 C1378 1.385 . S
C1382 C1381 1.374 . S
C1383 C1380 1.499 . S
C1383 C1384 1.373 . S
C1383 C1385 1.389 . S
C1384 H1357 0.950 . S
C1384 C1370 1.377 . S
C1384 C1383 1.373 . S
C1385 C1369 1.377 . S
C1385 C1383 1.389 . S
C1385 C1386 1.524 . S
C1386 C1385 1.524 . S
C1386 C1387 1.397 . S
C1386 C1391 1.363 . S
C1387 H1358 0.950 . S
C1387 C1386 1.397 . S
C1387 C1388 1.334 . S
C1388 H1359 0.950 . S
C1388 C1387 1.334 . S
C1388 C1389 1.287 . S
C1389 C1388 1.287 . S
C1389 C1390 1.524 . S
C1389 H1392 0.999 . S
C1390 H1360 0.950 . S
C1390 C1389 1.524 . S
C1390 C1391 1.415 . S
C1391 H1361 0.950 . S
C1391 C1386 1.363 . S
C1391 C1390 1.415 . S
H1392 C1389 0.999 . S
H1393 C1374 0.913 . S
H1394 C1412 0.951 . S
H1395 C1414 0.951 . S
H1396 C1416 0.950 . S
H1397 C1417 0.950 . S
H1398 C1419 0.950 . S
H1399 C1422 0.950 . S
H1400 C1423 0.950 . S
H1401 C1425 0.950 . S
H1402 C1426 0.950 . S
H1403 C1427 0.951 . S
H1404 C1429 0.951 . S
H1405 C1431 0.950 . S
H1406 C1432 0.950 . S
H1407 C1434 0.950 . S
H1408 C1437 0.950 . S
H1409 C1438 0.950 . S
H1410 C1440 0.950 . S
H1411 C1441 0.950 . S
C1412 H1394 0.951 . S
C1412 C1413 1.366 . S
C1412 C1414 1.388 . S
C1413 C1412 1.366 . S
C1413 C1417 1.385 . S
C1414 H1395 0.951 . S
C1414 C1412 1.388 . S
C1414 C1415 1.366 . S
C1415 C1414 1.366 . S
C1415 C1416 1.414 . S
C1415 C1418 1.499 . S
C1416 H1396 0.950 . S
C1416 C1415 1.414 . S
C1416 C1417 1.374 . S
C1417 H1397 0.950 . S
C1417 C1413 1.385 . S
C1417 C1416 1.374 . S
C1418 C1415 1.499 . S
C1418 C1419 1.373 . S
C1418 C1420 1.389 . S
C1419 H1398 0.950 . S
C1419 C1418 1.373 . S
C1419 C1435 1.377 . S
C1420 C1418 1.389 . S
C1420 C1421 1.524 . S
C1420 C1434 1.377 . S
C1421 C1420 1.524 . S
C1421 C1422 1.397 . S
C1421 C1426 1.363 . S
C1422 H1399 0.950 . S
C1422 C1421 1.397 . S
C1422 C1423 1.334 . S
C1423 H1400 0.950 . S
C1423 C1422 1.334 . S
C1423 C1424 1.287 . S
C1424 C1423 1.287 . S
C1424 C1425 1.524 . S
C1424 H1443 0.913 . S
C1425 H1401 0.950 . S
C1425 C1424 1.524 . S
C1425 C1426 1.415 . S
C1426 H1402 0.950 . S
C1426 C1421 1.363 . S
C1426 C1425 1.415 . S
C1427 H1403 0.951 . S
C1427 C1428 1.366 . S
C1427 C1429 1.388 . S
C1428 C1427 1.366 . S
C1428 C1432 1.385 . S
C1429 H1404 0.951 . S
C1429 C1427 1.388 . S
C1429 C1430 1.366 . S
C1430 C1429 1.366 . S
C1430 C1431 1.414 . S
C1430 C1433 1.499 . S
C1431 H1405 0.950 . S
C1431 C1430 1.414 . S
C1431 C1432 1.374 . S
C1432 H1406 0.950 . S
C1432 C1428 1.385 . S
C1432 C1431 1.374 . S
C1433 C1430 1.499 . S
C1433 C1434 1.373 . S
C1433 C1435 1.389 . S
C1434 H1407 0.950 . S
C1434 C1420 1.377 . S
C1434 C1433 1.373 . S
C1435 C1419 1.377 . S
C1435 C1433 1.389 . S
C1435 C1436 1.524 . S
C1436 C1435 1.524 . S
C1436 C1437 1.397 . S
C1436 C1441 1.363 . S
C1437 H1408 0.950 . S
C1437 C1436 1.397 . S
C1437 C1438 1.334 . S
C1438 H1409 0.950 . S
C1438 C1437 1.334 . S
C1438 C1439 1.287 . S
C1439 C1438 1.287 . S
C1439 C1440 1.524 . S
C1439 H1442 0.999 . S
C1440 H1410 0.950 . S
C1440 C1439 1.524 . S
C1440 C1441 1.415 . S
C1441 H1411 0.950 . S
C1441 C1436 1.363 . S
C1441 C1440 1.415 . S
H1442 C1439 0.999 . S
H1443 C1424 0.913 . S
H1444 C1462 0.951 . S
H1445 C1464 0.951 . S
H1446 C1466 0.950 . S
H1447 C1467 0.950 . S
H1448 C1469 0.950 . S
H1449 C1472 0.950 . S
H1450 C1473 0.950 . S
H1451 C1475 0.950 . S
H1452 C1476 0.950 . S
H1453 C1477 0.951 . S
H1454 C1479 0.951 . S
H1455 C1481 0.950 . S
H1456 C1482 0.950 . S
H1457 C1484 0.950 . S
H1458 C1487 0.950 . S
H1459 C1488 0.950 . S
H1460 C1490 0.950 . S
H1461 C1491 0.950 . S
C1462 H1444 0.951 . S
C1462 C1463 1.366 . S
C1462 C1464 1.388 . S
C1463 C1462 1.366 . S
C1463 C1467 1.385 . S
C1464 H1445 0.951 . S
C1464 C1462 1.388 . S
C1464 C1465 1.366 . S
C1465 C1464 1.366 . S
C1465 C1466 1.414 . S
C1465 C1468 1.499 . S
C1466 H1446 0.950 . S
C1466 C1465 1.414 . S
C1466 C1467 1.374 . S
C1467 H1447 0.950 . S
C1467 C1463 1.385 . S
C1467 C1466 1.374 . S
C1468 C1465 1.499 . S
C1468 C1469 1.373 . S
C1468 C1470 1.389 . S
C1469 H1448 0.950 . S
C1469 C1468 1.373 . S
C1469 C1485 1.377 . S
C1470 C1468 1.389 . S
C1470 C1471 1.524 . S
C1470 C1484 1.377 . S
C1471 C1470 1.524 . S
C1471 C1472 1.397 . S
C1471 C1476 1.363 . S
C1472 H1449 0.950 . S
C1472 C1471 1.397 . S
C1472 C1473 1.334 . S
C1473 H1450 0.950 . S
C1473 C1472 1.334 . S
C1473 C1474 1.287 . S
C1474 C1473 1.287 . S
C1474 C1475 1.524 . S
C1474 H1493 0.913 . S
C1475 H1451 0.950 . S
C1475 C1474 1.524 . S
C1475 C1476 1.415 . S
C1476 H1452 0.950 . S
C1476 C1471 1.363 . S
C1476 C1475 1.415 . S
C1477 H1453 0.951 . S
C1477 C1478 1.366 . S
C1477 C1479 1.388 . S
C1478 C1477 1.366 . S
C1478 C1482 1.385 . S
C1479 H1454 0.951 . S
C1479 C1477 1.388 . S
C1479 C1480 1.366 . S
C1480 C1479 1.366 . S
C1480 C1481 1.414 . S
C1480 C1483 1.499 . S
C1481 H1455 0.950 . S
C1481 C1480 1.414 . S
C1481 C1482 1.374 . S
C1482 H1456 0.950 . S
C1482 C1478 1.385 . S
C1482 C1481 1.374 . S
C1483 C1480 1.499 . S
C1483 C1484 1.373 . S
C1483 C1485 1.389 . S
C1484 H1457 0.950 . S
C1484 C1470 1.377 . S
C1484 C1483 1.373 . S
C1485 C1469 1.377 . S
C1485 C1483 1.389 . S
C1485 C1486 1.524 . S
C1486 C1485 1.524 . S
C1486 C1487 1.397 . S
C1486 C1491 1.363 . S
C1487 H1458 0.950 . S
C1487 C1486 1.397 . S
C1487 C1488 1.334 . S
C1488 H1459 0.950 . S
C1488 C1487 1.334 . S
C1488 C1489 1.287 . S
C1489 C1488 1.287 . S
C1489 C1490 1.524 . S
C1489 H1492 0.999 . S
C1490 H1460 0.950 . S
C1490 C1489 1.524 . S
C1490 C1491 1.415 . S
C1491 H1461 0.950 . S
C1491 C1486 1.363 . S
C1491 C1490 1.415 . S
H1492 C1489 0.999 . S
H1493 C1474 0.913 . S
H1494 C1512 0.951 . S
H1495 C1514 0.951 . S
H1496 C1516 0.950 . S
H1497 C1517 0.950 . S
H1498 C1519 0.950 . S
H1499 C1522 0.950 . S
H1500 C1523 0.950 . S
H1501 C1525 0.950 . S
H1502 C1526 0.950 1_556 S
H1503 C1527 0.951 . S
H1504 C1529 0.951 . S
H1505 C1531 0.950 . S
H1506 C1532 0.950 . S
H1507 C1534 0.950 . S
H1508 C1537 0.950 . S
H1509 C1538 0.950 . S
H1510 C1540 0.950 . S
H1511 C1541 0.950 1_554 S
C1512 H1494 0.951 . S
C1512 C1513 1.366 . S
C1512 C1514 1.388 . S
C1513 C1512 1.366 . S
C1513 C1517 1.385 . S
C1514 H1495 0.951 . S
C1514 C1512 1.388 . S
C1514 C1515 1.366 . S
C1515 C1514 1.366 . S
C1515 C1516 1.414 . S
C1515 C1518 1.499 . S
C1516 H1496 0.950 . S
C1516 C1515 1.414 . S
C1516 C1517 1.374 . S
C1517 H1497 0.950 . S
C1517 C1513 1.385 . S
C1517 C1516 1.374 . S
C1518 C1515 1.499 . S
C1518 C1519 1.373 . S
C1518 C1520 1.389 . S
C1519 H1498 0.950 . S
C1519 C1518 1.373 . S
C1519 C1535 1.377 1_554 S
C1520 C1518 1.389 . S
C1520 C1521 1.524 . S
C1520 C1534 1.377 1_554 S
C1521 C1520 1.524 . S
C1521 C1522 1.397 . S
C1521 C1526 1.363 . S
C1522 H1499 0.950 . S
C1522 C1521 1.397 . S
C1522 C1523 1.334 . S
C1523 H1500 0.950 . S
C1523 C1522 1.334 . S
C1523 C1524 1.287 . S
C1524 C1523 1.287 . S
C1524 C1525 1.524 . S
C1524 H1543 0.913 . S
C1525 H1501 0.950 . S
C1525 C1524 1.524 . S
C1525 C1526 1.415 . S
C1526 H1502 0.950 1_554 S
C1526 C1521 1.363 . S
C1526 C1525 1.415 . S
C1527 H1503 0.951 . S
C1527 C1528 1.366 . S
C1527 C1529 1.388 . S
C1528 C1527 1.366 . S
C1528 C1532 1.385 . S
C1529 H1504 0.951 . S
C1529 C1527 1.388 . S
C1529 C1530 1.366 . S
C1530 C1529 1.366 . S
C1530 C1531 1.414 . S
C1530 C1533 1.499 . S
C1531 H1505 0.950 . S
C1531 C1530 1.414 . S
C1531 C1532 1.374 . S
C1532 H1506 0.950 . S
C1532 C1528 1.385 . S
C1532 C1531 1.374 . S
C1533 C1530 1.499 . S
C1533 C1534 1.373 . S
C1533 C1535 1.389 . S
C1534 H1507 0.950 . S
C1534 C1520 1.377 1_556 S
C1534 C1533 1.373 . S
C1535 C1519 1.377 1_556 S
C1535 C1533 1.389 . S
C1535 C1536 1.524 . S
C1536 C1535 1.524 . S
C1536 C1537 1.397 . S
C1536 C1541 1.363 . S
C1537 H1508 0.950 . S
C1537 C1536 1.397 . S
C1537 C1538 1.334 . S
C1538 H1509 0.950 . S
C1538 C1537 1.334 . S
C1538 C1539 1.287 . S
C1539 C1538 1.287 . S
C1539 C1540 1.524 . S
C1539 H1542 0.999 . S
C1540 H1510 0.950 . S
C1540 C1539 1.524 . S
C1540 C1541 1.415 . S
C1541 H1511 0.950 1_556 S
C1541 C1536 1.363 . S
C1541 C1540 1.415 . S
H1542 C1539 0.999 . S
H1543 C1524 0.913 . S
H1544 C1562 0.951 . S
H1545 C1564 0.951 . S
H1546 C1566 0.950 . S
H1547 C1567 0.950 . S
H1548 C1569 0.950 . S
H1549 C1572 0.950 . S
H1550 C1573 0.950 . S
H1551 C1575 0.950 . S
H1552 C1576 0.950 . S
H1553 C1577 0.951 . S
H1554 C1579 0.951 . S
H1555 C1581 0.950 . S
H1556 C1582 0.950 . S
H1557 C1584 0.950 . S
H1558 C1587 0.950 . S
H1559 C1588 0.950 . S
H1560 C1590 0.950 . S
H1561 C1591 0.950 . S
C1562 H1544 0.951 . S
C1562 C1563 1.366 . S
C1562 C1564 1.388 . S
C1563 C1562 1.366 . S
C1563 C1567 1.385 . S
C1564 H1545 0.951 . S
C1564 C1562 1.388 . S
C1564 C1565 1.366 . S
C1565 C1564 1.366 . S
C1565 C1566 1.414 . S
C1565 C1568 1.499 . S
C1566 H1546 0.950 . S
C1566 C1565 1.414 . S
C1566 C1567 1.374 . S
C1567 H1547 0.950 . S
C1567 C1563 1.385 . S
C1567 C1566 1.374 . S
C1568 C1565 1.499 . S
C1568 C1569 1.373 . S
C1568 C1570 1.389 . S
C1569 H1548 0.950 . S
C1569 C1568 1.373 . S
C1569 C1585 1.377 1_554 S
C1570 C1568 1.389 . S
C1570 C1571 1.524 . S
C1570 C1584 1.377 1_554 S
C1571 C1570 1.524 . S
C1571 C1572 1.397 . S
C1571 C1576 1.363 1_554 S
C1572 H1549 0.950 . S
C1572 C1571 1.397 . S
C1572 C1573 1.334 . S
C1573 H1550 0.950 . S
C1573 C1572 1.334 . S
C1573 C1574 1.287 . S
C1574 C1573 1.287 . S
C1574 C1575 1.524 1_554 S
C1574 H1593 0.913 . S
C1575 H1551 0.950 . S
C1575 C1574 1.524 1_556 S
C1575 C1576 1.415 . S
C1576 H1552 0.950 . S
C1576 C1571 1.363 1_556 S
C1576 C1575 1.415 . S
C1577 H1553 0.951 . S
C1577 C1578 1.366 . S
C1577 C1579 1.388 . S
C1578 C1577 1.366 . S
C1578 C1582 1.385 . S
C1579 H1554 0.951 . S
C1579 C1577 1.388 . S
C1579 C1580 1.366 . S
C1580 C1579 1.366 . S
C1580 C1581 1.414 . S
C1580 C1583 1.499 . S
C1581 H1555 0.950 . S
C1581 C1580 1.414 . S
C1581 C1582 1.374 . S
C1582 H1556 0.950 . S
C1582 C1578 1.385 . S
C1582 C1581 1.374 . S
C1583 C1580 1.499 . S
C1583 C1584 1.373 . S
C1583 C1585 1.389 . S
C1584 H1557 0.950 . S
C1584 C1570 1.377 1_556 S
C1584 C1583 1.373 . S
C1585 C1569 1.377 1_556 S
C1585 C1583 1.389 . S
C1585 C1586 1.524 . S
C1586 C1585 1.524 . S
C1586 C1587 1.397 . S
C1586 C1591 1.363 1_556 S
C1587 H1558 0.950 . S
C1587 C1586 1.397 . S
C1587 C1588 1.334 . S
C1588 H1559 0.950 . S
C1588 C1587 1.334 . S
C1588 C1589 1.287 . S
C1589 C1588 1.287 . S
C1589 C1590 1.524 1_556 S
C1589 H1592 0.999 . S
C1590 H1560 0.950 . S
C1590 C1589 1.524 1_554 S
C1590 C1591 1.415 . S
C1591 H1561 0.950 . S
C1591 C1586 1.363 1_554 S
C1591 C1590 1.415 . S
H1592 C1589 0.999 . S
H1593 C1574 0.913 . S
H1594 C1612 0.951 . S
H1595 C1614 0.951 . S
H1596 C1616 0.950 . S
H1597 C1617 0.950 . S
H1598 C1619 0.950 . S
H1599 C1622 0.950 . S
H1600 C1623 0.950 . S
H1601 C1625 0.950 . S
H1602 C1626 0.950 . S
H1603 C1627 0.951 . S
H1604 C1629 0.951 . S
H1605 C1631 0.950 . S
H1606 C1632 0.950 . S
H1607 C1634 0.950 . S
H1608 C1637 0.950 . S
H1609 C1638 0.950 . S
H1610 C1640 0.950 . S
H1611 C1641 0.950 . S
C1612 H1594 0.951 . S
C1612 C1613 1.366 . S
C1612 C1614 1.388 . S
C1613 C1612 1.366 . S
C1613 C1617 1.385 . S
C1614 H1595 0.951 . S
C1614 C1612 1.388 . S
C1614 C1615 1.366 . S
C1615 C1614 1.366 . S
C1615 C1616 1.414 . S
C1615 C1618 1.499 . S
C1616 H1596 0.950 . S
C1616 C1615 1.414 . S
C1616 C1617 1.374 . S
C1617 H1597 0.950 . S
C1617 C1613 1.385 . S
C1617 C1616 1.374 . S
C1618 C1615 1.499 . S
C1618 C1619 1.373 . S
C1618 C1620 1.389 . S
C1619 H1598 0.950 . S
C1619 C1618 1.373 . S
C1619 C1635 1.377 . S
C1620 C1618 1.389 . S
C1620 C1621 1.524 . S
C1620 C1634 1.377 . S
C1621 C1620 1.524 . S
C1621 C1622 1.397 . S
C1621 C1626 1.363 . S
C1622 H1599 0.950 . S
C1622 C1621 1.397 . S
C1622 C1623 1.334 . S
C1623 H1600 0.950 . S
C1623 C1622 1.334 . S
C1623 C1624 1.287 . S
C1624 C1623 1.287 . S
C1624 C1625 1.524 . S
C1624 H1643 0.913 . S
C1625 H1601 0.950 . S
C1625 C1624 1.524 . S
C1625 C1626 1.415 . S
C1626 H1602 0.950 . S
C1626 C1621 1.363 . S
C1626 C1625 1.415 . S
C1627 H1603 0.951 . S
C1627 C1628 1.366 . S
C1627 C1629 1.388 . S
C1628 C1627 1.366 . S
C1628 C1632 1.385 . S
C1629 H1604 0.951 . S
C1629 C1627 1.388 . S
C1629 C1630 1.366 . S
C1630 C1629 1.366 . S
C1630 C1631 1.414 . S
C1630 C1633 1.499 . S
C1631 H1605 0.950 . S
C1631 C1630 1.414 . S
C1631 C1632 1.374 . S
C1632 H1606 0.950 . S
C1632 C1628 1.385 . S
C1632 C1631 1.374 . S
C1633 C1630 1.499 . S
C1633 C1634 1.373 . S
C1633 C1635 1.389 . S
C1634 H1607 0.950 . S
C1634 C1620 1.377 . S
C1634 C1633 1.373 . S
C1635 C1619 1.377 . S
C1635 C1633 1.389 . S
C1635 C1636 1.524 . S
C1636 C1635 1.524 . S
C1636 C1637 1.397 . S
C1636 C1641 1.363 . S
C1637 H1608 0.950 . S
C1637 C1636 1.397 . S
C1637 C1638 1.334 . S
C1638 H1609 0.950 . S
C1638 C1637 1.334 . S
C1638 C1639 1.287 . S
C1639 C1638 1.287 . S
C1639 C1640 1.524 . S
C1639 H1642 0.999 . S
C1640 H1610 0.950 . S
C1640 C1639 1.524 . S
C1640 C1641 1.415 . S
C1641 H1611 0.950 . S
C1641 C1636 1.363 . S
C1641 C1640 1.415 . S
H1642 C1639 0.999 . S
H1643 C1624 0.913 . S
H1644 C1662 0.951 . S
H1645 C1664 0.951 . S
H1646 C1666 0.950 . S
H1647 C1667 0.950 . S
H1648 C1669 0.950 . S
H1649 C1672 0.950 . S
H1650 C1673 0.950 . S
H1651 C1675 0.950 . S
H1652 C1676 0.950 . S
H1653 C1677 0.951 . S
H1654 C1679 0.951 . S
H1655 C1681 0.950 . S
H1656 C1682 0.950 . S
H1657 C1684 0.950 . S
H1658 C1687 0.950 . S
H1659 C1688 0.950 . S
H1660 C1690 0.950 . S
H1661 C1691 0.950 . S
C1662 H1644 0.951 . S
C1662 C1663 1.366 . S
C1662 C1664 1.388 . S
C1663 C1662 1.366 . S
C1663 C1667 1.385 . S
C1664 H1645 0.951 . S
C1664 C1662 1.388 . S
C1664 C1665 1.366 . S
C1665 C1664 1.366 . S
C1665 C1666 1.414 . S
C1665 C1668 1.499 . S
C1666 H1646 0.950 . S
C1666 C1665 1.414 . S
C1666 C1667 1.374 . S
C1667 H1647 0.950 . S
C1667 C1663 1.385 . S
C1667 C1666 1.374 . S
C1668 C1665 1.499 . S
C1668 C1669 1.373 . S
C1668 C1670 1.389 . S
C1669 H1648 0.950 . S
C1669 C1668 1.373 . S
C1669 C1685 1.377 . S
C1670 C1668 1.389 . S
C1670 C1671 1.524 . S
C1670 C1684 1.377 . S
C1671 C1670 1.524 . S
C1671 C1672 1.397 . S
C1671 C1676 1.363 . S
C1672 H1649 0.950 . S
C1672 C1671 1.397 . S
C1672 C1673 1.334 . S
C1673 H1650 0.950 . S
C1673 C1672 1.334 . S
C1673 C1674 1.287 . S
C1674 C1673 1.287 . S
C1674 C1675 1.524 . S
C1674 H1693 0.913 . S
C1675 H1651 0.950 . S
C1675 C1674 1.524 . S
C1675 C1676 1.415 . S
C1676 H1652 0.950 . S
C1676 C1671 1.363 . S
C1676 C1675 1.415 . S
C1677 H1653 0.951 . S
C1677 C1678 1.366 . S
C1677 C1679 1.388 . S
C1678 C1677 1.366 . S
C1678 C1682 1.385 . S
C1679 H1654 0.951 . S
C1679 C1677 1.388 . S
C1679 C1680 1.366 . S
C1680 C1679 1.366 . S
C1680 C1681 1.414 . S
C1680 C1683 1.499 . S
C1681 H1655 0.950 . S
C1681 C1680 1.414 . S
C1681 C1682 1.374 . S
C1682 H1656 0.950 . S
C1682 C1678 1.385 . S
C1682 C1681 1.374 . S
C1683 C1680 1.499 . S
C1683 C1684 1.373 . S
C1683 C1685 1.389 . S
C1684 H1657 0.950 . S
C1684 C1670 1.377 . S
C1684 C1683 1.373 . S
C1685 C1669 1.377 . S
C1685 C1683 1.389 . S
C1685 C1686 1.524 . S
C1686 C1685 1.524 . S
C1686 C1687 1.397 . S
C1686 C1691 1.363 . S
C1687 H1658 0.950 . S
C1687 C1686 1.397 . S
C1687 C1688 1.334 . S
C1688 H1659 0.950 . S
C1688 C1687 1.334 . S
C1688 C1689 1.287 . S
C1689 C1688 1.287 . S
C1689 C1690 1.524 . S
C1689 H1692 0.999 . S
C1690 H1660 0.950 . S
C1690 C1689 1.524 . S
C1690 C1691 1.415 . S
C1691 H1661 0.950 . S
C1691 C1686 1.363 . S
C1691 C1690 1.415 . S
H1692 C1689 0.999 . S
H1693 C1674 0.913 . S
H1694 C1712 0.951 . S
H1695 C1714 0.951 . S
H1696 C1716 0.950 . S
H1697 C1717 0.950 . S
H1698 C1719 0.950 . S
H1699 C1722 0.950 . S
H1700 C1723 0.950 . S
H1701 C1725 0.950 . S
H1702 C1726 0.950 . S
H1703 C1727 0.951 . S
H1704 C1729 0.951 . S
H1705 C1731 0.950 . S
H1706 C1732 0.950 . S
H1707 C1734 0.950 . S
H1708 C1737 0.950 . S
H1709 C1738 0.950 . S
H1710 C1740 0.950 . S
H1711 C1741 0.950 . S
C1712 H1694 0.951 . S
C1712 C1713 1.366 . S
C1712 C1714 1.388 . S
C1713 C1712 1.366 . S
C1713 C1717 1.385 . S
C1714 H1695 0.951 . S
C1714 C1712 1.388 . S
C1714 C1715 1.366 . S
C1715 C1714 1.366 . S
C1715 C1716 1.414 . S
C1715 C1718 1.499 . S
C1716 H1696 0.950 . S
C1716 C1715 1.414 . S
C1716 C1717 1.374 . S
C1717 H1697 0.950 . S
C1717 C1713 1.385 . S
C1717 C1716 1.374 . S
C1718 C1715 1.499 . S
C1718 C1719 1.373 . S
C1718 C1720 1.389 . S
C1719 H1698 0.950 . S
C1719 C1718 1.373 . S
C1719 C1735 1.377 . S
C1720 C1718 1.389 . S
C1720 C1721 1.524 . S
C1720 C1734 1.377 . S
C1721 C1720 1.524 . S
C1721 C1722 1.397 . S
C1721 C1726 1.363 . S
C1722 H1699 0.950 . S
C1722 C1721 1.397 . S
C1722 C1723 1.334 . S
C1723 H1700 0.950 . S
C1723 C1722 1.334 . S
C1723 C1724 1.287 . S
C1724 C1723 1.287 . S
C1724 C1725 1.524 . S
C1724 H1743 0.913 . S
C1725 H1701 0.950 . S
C1725 C1724 1.524 . S
C1725 C1726 1.415 . S
C1726 H1702 0.950 . S
C1726 C1721 1.363 . S
C1726 C1725 1.415 . S
C1727 H1703 0.951 . S
C1727 C1728 1.366 . S
C1727 C1729 1.388 . S
C1728 C1727 1.366 . S
C1728 C1732 1.385 . S
C1729 H1704 0.951 . S
C1729 C1727 1.388 . S
C1729 C1730 1.366 . S
C1730 C1729 1.366 . S
C1730 C1731 1.414 . S
C1730 C1733 1.499 . S
C1731 H1705 0.950 . S
C1731 C1730 1.414 . S
C1731 C1732 1.374 . S
C1732 H1706 0.950 . S
C1732 C1728 1.385 . S
C1732 C1731 1.374 . S
C1733 C1730 1.499 . S
C1733 C1734 1.373 . S
C1733 C1735 1.389 . S
C1734 H1707 0.950 . S
C1734 C1720 1.377 . S
C1734 C1733 1.373 . S
C1735 C1719 1.377 . S
C1735 C1733 1.389 . S
C1735 C1736 1.524 . S
C1736 C1735 1.524 . S
C1736 C1737 1.397 . S
C1736 C1741 1.363 . S
C1737 H1708 0.950 . S
C1737 C1736 1.397 . S
C1737 C1738 1.334 . S
C1738 H1709 0.950 . S
C1738 C1737 1.334 . S
C1738 C1739 1.287 . S
C1739 C1738 1.287 . S
C1739 C1740 1.524 . S
C1739 H1742 0.999 . S
C1740 H1710 0.950 . S
C1740 C1739 1.524 . S
C1740 C1741 1.415 . S
C1741 H1711 0.950 . S
C1741 C1736 1.363 . S
C1741 C1740 1.415 . S
H1742 C1739 0.999 . S
H1743 C1724 0.913 . S
H1744 C1762 0.951 . S
H1745 C1764 0.951 . S
H1746 C1766 0.950 1_565 S
H1747 C1767 0.950 . S
H1748 C1769 0.950 . S
H1749 C1772 0.950 . S
H1750 C1773 0.950 . S
H1751 C1775 0.950 . S
H1752 C1776 0.950 . S
H1753 C1777 0.951 . S
H1754 C1779 0.951 . S
H1755 C1781 0.950 1_545 S
H1756 C1782 0.950 . S
H1757 C1784 0.950 . S
H1758 C1787 0.950 . S
H1759 C1788 0.950 . S
H1760 C1790 0.950 . S
H1761 C1791 0.950 . S
C1762 H1744 0.951 . S
C1762 C1763 1.366 . S
C1762 C1764 1.388 . S
C1763 C1762 1.366 . S
C1763 C1767 1.385 . S
C1764 H1745 0.951 . S
C1764 C1762 1.388 . S
C1764 C1765 1.366 . S
C1765 C1764 1.366 . S
C1765 C1766 1.414 . S
C1765 C1768 1.499 . S
C1766 H1746 0.950 1_545 S
C1766 C1765 1.414 . S
C1766 C1767 1.374 . S
C1767 H1747 0.950 . S
C1767 C1763 1.385 . S
C1767 C1766 1.374 . S
C1768 C1765 1.499 . S
C1768 C1769 1.373 1_545 S
C1768 C1770 1.389 . S
C1769 H1748 0.950 . S
C1769 C1768 1.373 1_565 S
C1769 C1785 1.377 1_455 S
C1770 C1768 1.389 . S
C1770 C1771 1.524 . S
C1770 C1784 1.377 1_455 S
C1771 C1770 1.524 . S
C1771 C1772 1.397 . S
C1771 C1776 1.363 1_455 S
C1772 H1749 0.950 . S
C1772 C1771 1.397 . S
C1772 C1773 1.334 . S
C1773 H1750 0.950 . S
C1773 C1772 1.334 . S
C1773 C1774 1.287 . S
C1774 C1773 1.287 . S
C1774 C1775 1.524 1_455 S
C1774 H1793 0.913 . S
C1775 H1751 0.950 . S
C1775 C1774 1.524 1_655 S
C1775 C1776 1.415 . S
C1776 H1752 0.950 . S
C1776 C1771 1.363 1_655 S
C1776 C1775 1.415 . S
C1777 H1753 0.951 . S
C1777 C1778 1.366 . S
C1777 C1779 1.388 . S
C1778 C1777 1.366 . S
C1778 C1782 1.385 . S
C1779 H1754 0.951 . S
C1779 C1777 1.388 . S
C1779 C1780 1.366 . S
C1780 C1779 1.366 . S
C1780 C1781 1.414 . S
C1780 C1783 1.499 . S
C1781 H1755 0.950 1_565 S
C1781 C1780 1.414 . S
C1781 C1782 1.374 . S
C1782 H1756 0.950 . S
C1782 C1778 1.385 . S
C1782 C1781 1.374 . S
C1783 C1780 1.499 . S
C1783 C1784 1.373 1_565 S
C1783 C1785 1.389 . S
C1784 H1757 0.950 . S
C1784 C1770 1.377 1_655 S
C1784 C1783 1.373 1_545 S
C1785 C1769 1.377 1_655 S
C1785 C1783 1.389 . S
C1785 C1786 1.524 . S
C1786 C1785 1.524 . S
C1786 C1787 1.397 . S
C1786 C1791 1.363 1_655 S
C1787 H1758 0.950 . S
C1787 C1786 1.397 . S
C1787 C1788 1.334 . S
C1788 H1759 0.950 . S
C1788 C1787 1.334 . S
C1788 C1789 1.287 . S
C1789 C1788 1.287 . S
C1789 C1790 1.524 1_655 S
C1789 H1792 0.999 . S
C1790 H1760 0.950 . S
C1790 C1789 1.524 1_455 S
C1790 C1791 1.415 . S
C1791 H1761 0.950 . S
C1791 C1786 1.363 1_455 S
C1791 C1790 1.415 . S
H1792 C1789 0.999 . S
H1793 C1774 0.913 . S
H1794 C1812 0.951 . S
H1795 C1814 0.951 . S
H1796 C1816 0.950 . S
H1797 C1817 0.950 . S
H1798 C1819 0.950 . S
H1799 C1822 0.950 . S
H1800 C1823 0.950 . S
H1801 C1825 0.950 . S
H1802 C1826 0.950 . S
H1803 C1827 0.951 . S
H1804 C1829 0.951 . S
H1805 C1831 0.950 . S
H1806 C1832 0.950 . S
H1807 C1834 0.950 . S
H1808 C1837 0.950 . S
H1809 C1838 0.950 . S
H1810 C1840 0.950 . S
H1811 C1841 0.950 . S
C1812 H1794 0.951 . S
C1812 C1813 1.366 . S
C1812 C1814 1.388 . S
C1813 C1812 1.366 . S
C1813 C1817 1.385 . S
C1814 H1795 0.951 . S
C1814 C1812 1.388 . S
C1814 C1815 1.366 . S
C1815 C1814 1.366 . S
C1815 C1816 1.414 . S
C1815 C1818 1.499 . S
C1816 H1796 0.950 . S
C1816 C1815 1.414 . S
C1816 C1817 1.374 . S
C1817 H1797 0.950 . S
C1817 C1813 1.385 . S
C1817 C1816 1.374 . S
C1818 C1815 1.499 . S
C1818 C1819 1.373 1_455 S
C1818 C1820 1.389 . S
C1819 H1798 0.950 . S
C1819 C1818 1.373 1_655 S
C1819 C1835 1.377 . S
C1820 C1818 1.389 . S
C1820 C1821 1.524 . S
C1820 C1834 1.377 . S
C1821 C1820 1.524 . S
C1821 C1822 1.397 . S
C1821 C1826 1.363 . S
C1822 H1799 0.950 . S
C1822 C1821 1.397 . S
C1822 C1823 1.334 . S
C1823 H1800 0.950 . S
C1823 C1822 1.334 . S
C1823 C1824 1.287 . S
C1824 C1823 1.287 . S
C1824 C1825 1.524 . S
C1824 H1843 0.913 . S
C1825 H1801 0.950 . S
C1825 C1824 1.524 . S
C1825 C1826 1.415 . S
C1826 H1802 0.950 . S
C1826 C1821 1.363 . S
C1826 C1825 1.415 . S
C1827 H1803 0.951 . S
C1827 C1828 1.366 . S
C1827 C1829 1.388 . S
C1828 C1827 1.366 . S
C1828 C1832 1.385 . S
C1829 H1804 0.951 . S
C1829 C1827 1.388 . S
C1829 C1830 1.366 . S
C1830 C1829 1.366 . S
C1830 C1831 1.414 . S
C1830 C1833 1.499 . S
C1831 H1805 0.950 . S
C1831 C1830 1.414 . S
C1831 C1832 1.374 . S
C1832 H1806 0.950 . S
C1832 C1828 1.385 . S
C1832 C1831 1.374 . S
C1833 C1830 1.499 . S
C1833 C1834 1.373 1_655 S
C1833 C1835 1.389 . S
C1834 H1807 0.950 . S
C1834 C1820 1.377 . S
C1834 C1833 1.373 1_455 S
C1835 C1819 1.377 . S
C1835 C1833 1.389 . S
C1835 C1836 1.524 . S
C1836 C1835 1.524 . S
C1836 C1837 1.397 . S
C1836 C1841 1.363 . S
C1837 H1808 0.950 . S
C1837 C1836 1.397 . S
C1837 C1838 1.334 . S
C1838 H1809 0.950 . S
C1838 C1837 1.334 . S
C1838 C1839 1.287 . S
C1839 C1838 1.287 . S
C1839 C1840 1.524 . S
C1839 H1842 0.999 . S
C1840 H1810 0.950 . S
C1840 C1839 1.524 . S
C1840 C1841 1.415 . S
C1841 H1811 0.950 . S
C1841 C1836 1.363 . S
C1841 C1840 1.415 . S
H1842 C1839 0.999 . S
H1843 C1824 0.913 . S
H1844 C1862 0.951 . S
H1845 C1864 0.951 . S
H1846 C1866 0.950 . S
H1847 C1867 0.950 . S
H1848 C1869 0.950 . S
H1849 C1872 0.950 . S
H1850 C1873 0.950 . S
H1851 C1875 0.950 . S
H1852 C1876 0.950 . S
H1853 C1877 0.951 . S
H1854 C1879 0.951 . S
H1855 C1881 0.950 . S
H1856 C1882 0.950 . S
H1857 C1884 0.950 . S
H1858 C1887 0.950 . S
H1859 C1888 0.950 . S
H1860 C1890 0.950 . S
H1861 C1891 0.950 . S
C1862 H1844 0.951 . S
C1862 C1863 1.366 . S
C1862 C1864 1.388 . S
C1863 C1862 1.366 . S
C1863 C1867 1.385 . S
C1864 H1845 0.951 . S
C1864 C1862 1.388 . S
C1864 C1865 1.366 . S
C1865 C1864 1.366 . S
C1865 C1866 1.414 . S
C1865 C1868 1.499 . S
C1866 H1846 0.950 . S
C1866 C1865 1.414 . S
C1866 C1867 1.374 . S
C1867 H1847 0.950 . S
C1867 C1863 1.385 . S
C1867 C1866 1.374 . S
C1868 C1865 1.499 . S
C1868 C1869 1.373 . S
C1868 C1870 1.389 . S
C1869 H1848 0.950 . S
C1869 C1868 1.373 . S
C1869 C1885 1.377 . S
C1870 C1868 1.389 . S
C1870 C1871 1.524 . S
C1870 C1884 1.377 . S
C1871 C1870 1.524 . S
C1871 C1872 1.397 . S
C1871 C1876 1.363 . S
C1872 H1849 0.950 . S
C1872 C1871 1.397 . S
C1872 C1873 1.334 . S
C1873 H1850 0.950 . S
C1873 C1872 1.334 . S
C1873 C1874 1.287 . S
C1874 C1873 1.287 . S
C1874 C1875 1.524 . S
C1874 H1893 0.913 . S
C1875 H1851 0.950 . S
C1875 C1874 1.524 . S
C1875 C1876 1.415 . S
C1876 H1852 0.950 . S
C1876 C1871 1.363 . S
C1876 C1875 1.415 . S
C1877 H1853 0.951 . S
C1877 C1878 1.366 . S
C1877 C1879 1.388 . S
C1878 C1877 1.366 . S
C1878 C1882 1.385 . S
C1879 H1854 0.951 . S
C1879 C1877 1.388 . S
C1879 C1880 1.366 . S
C1880 C1879 1.366 . S
C1880 C1881 1.414 . S
C1880 C1883 1.499 . S
C1881 H1855 0.950 . S
C1881 C1880 1.414 . S
C1881 C1882 1.374 . S
C1882 H1856 0.950 . S
C1882 C1878 1.385 . S
C1882 C1881 1.374 . S
C1883 C1880 1.499 . S
C1883 C1884 1.373 . S
C1883 C1885 1.389 . S
C1884 H1857 0.950 . S
C1884 C1870 1.377 . S
C1884 C1883 1.373 . S
C1885 C1869 1.377 . S
C1885 C1883 1.389 . S
C1885 C1886 1.524 . S
C1886 C1885 1.524 . S
C1886 C1887 1.397 . S
C1886 C1891 1.363 . S
C1887 H1858 0.950 . S
C1887 C1886 1.397 . S
C1887 C1888 1.334 . S
C1888 H1859 0.950 . S
C1888 C1887 1.334 . S
C1888 C1889 1.287 . S
C1889 C1888 1.287 . S
C1889 C1890 1.524 . S
C1889 H1892 0.999 . S
C1890 H1860 0.950 . S
C1890 C1889 1.524 . S
C1890 C1891 1.415 . S
C1891 H1861 0.950 . S
C1891 C1886 1.363 . S
C1891 C1890 1.415 . S
H1892 C1889 0.999 . S
H1893 C1874 0.913 . S
H1894 C1912 0.951 . S
H1895 C1914 0.951 . S
H1896 C1916 0.950 . S
H1897 C1917 0.950 . S
H1898 C1919 0.950 . S
H1899 C1922 0.950 . S
H1900 C1923 0.950 . S
H1901 C1925 0.950 . S
H1902 C1926 0.950 . S
H1903 C1927 0.951 . S
H1904 C1929 0.951 . S
H1905 C1931 0.950 . S
H1906 C1932 0.950 . S
H1907 C1934 0.950 . S
H1908 C1937 0.950 . S
H1909 C1938 0.950 . S
H1910 C1940 0.950 . S
H1911 C1941 0.950 . S
C1912 H1894 0.951 . S
C1912 C1913 1.366 . S
C1912 C1914 1.388 . S
C1913 C1912 1.366 . S
C1913 C1917 1.385 . S
C1914 H1895 0.951 . S
C1914 C1912 1.388 . S
C1914 C1915 1.366 . S
C1915 C1914 1.366 . S
C1915 C1916 1.414 . S
C1915 C1918 1.499 . S
C1916 H1896 0.950 . S
C1916 C1915 1.414 . S
C1916 C1917 1.374 . S
C1917 H1897 0.950 . S
C1917 C1913 1.385 . S
C1917 C1916 1.374 . S
C1918 C1915 1.499 . S
C1918 C1919 1.373 . S
C1918 C1920 1.389 . S
C1919 H1898 0.950 . S
C1919 C1918 1.373 . S
C1919 C1935 1.377 1_545 S
C1920 C1918 1.389 . S
C1920 C1921 1.525 . S
C1920 C1934 1.377 1_545 S
C1921 C1920 1.525 . S
C1921 C1922 1.401 . S
C1921 C1926 1.358 1_545 S
C1922 H1899 0.950 . S
C1922 C1921 1.401 . S
C1922 C1923 1.334 . S
C1923 H1900 0.950 . S
C1923 C1922 1.334 . S
C1923 C1924 1.269 1_545 S
C1924 C1923 1.269 1_565 S
C1924 C1925 1.541 . S
C1924 H1943 0.913 . S
C1925 H1901 0.950 . S
C1925 C1924 1.541 . S
C1925 C1926 1.415 . S
C1926 H1902 0.950 . S
C1926 C1921 1.358 1_565 S
C1926 C1925 1.415 . S
C1927 H1903 0.951 . S
C1927 C1928 1.366 . S
C1927 C1929 1.388 . S
C1928 C1927 1.366 . S
C1928 C1932 1.385 . S
C1929 H1904 0.951 . S
C1929 C1927 1.388 . S
C1929 C1930 1.366 . S
C1930 C1929 1.366 . S
C1930 C1931 1.414 . S
C1930 C1933 1.499 . S
C1931 H1905 0.950 . S
C1931 C1930 1.414 . S
C1931 C1932 1.374 . S
C1932 H1906 0.950 . S
C1932 C1928 1.385 . S
C1932 C1931 1.374 . S
C1933 C1930 1.499 . S
C1933 C1934 1.373 . S
C1933 C1935 1.389 . S
C1934 H1907 0.950 . S
C1934 C1920 1.377 1_565 S
C1934 C1933 1.373 . S
C1935 C1919 1.377 1_565 S
C1935 C1933 1.389 . S
C1935 C1936 1.525 . S
C1936 C1935 1.525 . S
C1936 C1937 1.400 . S
C1936 C1941 1.358 1_565 S
C1937 H1908 0.950 . S
C1937 C1936 1.400 . S
C1937 C1938 1.334 . S
C1938 H1909 0.950 . S
C1938 C1937 1.334 . S
C1938 C1939 1.269 1_565 S
C1939 C1938 1.269 1_545 S
C1939 C1940 1.541 . S
C1939 H1942 1.000 . S
C1940 H1910 0.950 . S
C1940 C1939 1.541 . S
C1940 C1941 1.415 . S
C1941 H1911 0.950 . S
C1941 C1936 1.358 1_545 S
C1941 C1940 1.415 . S
H1942 C1939 1.000 . S
H1943 C1924 0.913 . S
H1944 C1962 0.951 . S
H1945 C1964 0.951 . S
H1946 C1966 0.950 . S
H1947 C1967 0.950 . S
H1948 C1969 0.950 . S
H1949 C1972 0.950 . S
H1950 C1973 0.950 . S
H1951 C1975 0.950 . S
H1952 C1976 0.950 . S
H1953 C1977 0.951 . S
H1954 C1979 0.951 . S
H1955 C1981 0.950 . S
H1956 C1982 0.950 . S
H1957 C1984 0.950 . S
H1958 C1987 0.950 . S
H1959 C1988 0.950 . S
H1960 C1990 0.950 . S
H1961 C1991 0.950 . S
C1962 H1944 0.951 . S
C1962 C1963 1.366 . S
C1962 C1964 1.388 . S
C1963 C1962 1.366 . S
C1963 C1967 1.385 . S
C1964 H1945 0.951 . S
C1964 C1962 1.388 . S
C1964 C1965 1.366 . S
C1965 C1964 1.366 . S
C1965 C1966 1.414 . S
C1965 C1968 1.499 . S
C1966 H1946 0.950 . S
C1966 C1965 1.414 . S
C1966 C1967 1.374 . S
C1967 H1947 0.950 . S
C1967 C1963 1.385 . S
C1967 C1966 1.374 . S
C1968 C1965 1.499 . S
C1968 C1969 1.373 . S
C1968 C1970 1.389 . S
C1969 H1948 0.950 . S
C1969 C1968 1.373 . S
C1969 C1985 1.377 1_455 S
C1970 C1968 1.389 . S
C1970 C1971 1.524 . S
C1970 C1984 1.377 1_455 S
C1971 C1970 1.524 . S
C1971 C1972 1.397 . S
C1971 C1976 1.363 . S
C1972 H1949 0.950 . S
C1972 C1971 1.397 . S
C1972 C1973 1.334 . S
C1973 H1950 0.950 . S
C1973 C1972 1.334 . S
C1973 C1974 1.287 . S
C1974 C1973 1.287 . S
C1974 C1975 1.524 . S
C1974 H1993 0.913 . S
C1975 H1951 0.950 . S
C1975 C1974 1.524 . S
C1975 C1976 1.415 . S
C1976 H1952 0.950 . S
C1976 C1971 1.363 . S
C1976 C1975 1.415 . S
C1977 H1953 0.951 . S
C1977 C1978 1.366 . S
C1977 C1979 1.388 . S
C1978 C1977 1.366 . S
C1978 C1982 1.385 . S
C1979 H1954 0.951 . S
C1979 C1977 1.388 . S
C1979 C1980 1.366 . S
C1980 C1979 1.366 . S
C1980 C1981 1.414 . S
C1980 C1983 1.499 . S
C1981 H1955 0.950 . S
C1981 C1980 1.414 . S
C1981 C1982 1.374 . S
C1982 H1956 0.950 . S
C1982 C1978 1.385 . S
C1982 C1981 1.374 . S
C1983 C1980 1.499 . S
C1983 C1984 1.373 . S
C1983 C1985 1.389 . S
C1984 H1957 0.950 . S
C1984 C1970 1.377 1_655 S
C1984 C1983 1.373 . S
C1985 C1969 1.377 1_655 S
C1985 C1983 1.389 . S
C1985 C1986 1.524 . S
C1986 C1985 1.524 . S
C1986 C1987 1.397 . S
C1986 C1991 1.363 . S
C1987 H1958 0.950 . S
C1987 C1986 1.397 . S
C1987 C1988 1.334 . S
C1988 H1959 0.950 . S
C1988 C1987 1.334 . S
C1988 C1989 1.287 . S
C1989 C1988 1.287 . S
C1989 C1990 1.524 . S
C1989 H1992 0.999 . S
C1990 H1960 0.950 . S
C1990 C1989 1.524 . S
C1990 C1991 1.415 . S
C1991 H1961 0.950 . S
C1991 C1986 1.363 . S
C1991 C1990 1.415 . S
H1992 C1989 0.999 . S
H1993 C1974 0.913 . S
H1994 C2012 0.951 . S
H1995 C2014 0.951 . S
H1996 C2016 0.950 . S
H1997 C2017 0.950 . S
H1998 C2019 0.950 . S
H1999 C2022 0.950 . S
H2000 C2023 0.950 . S
H2001 C2025 0.950 . S
H2002 C2026 0.950 . S
H2003 C2027 0.951 . S
H2004 C2029 0.951 . S
H2005 C2031 0.950 . S
H2006 C2032 0.950 . S
H2007 C2034 0.950 . S
H2008 C2037 0.950 . S
H2009 C2038 0.950 . S
H2010 C2040 0.950 . S
H2011 C2041 0.950 . S
C2012 H1994 0.951 . S
C2012 C2013 1.366 . S
C2012 C2014 1.388 . S
C2013 C2012 1.366 . S
C2013 C2017 1.385 . S
C2014 H1995 0.951 . S
C2014 C2012 1.388 . S
C2014 C2015 1.366 . S
C2015 C2014 1.366 . S
C2015 C2016 1.414 . S
C2015 C2018 1.499 . S
C2016 H1996 0.950 . S
C2016 C2015 1.414 . S
C2016 C2017 1.374 . S
C2017 H1997 0.950 . S
C2017 C2013 1.385 . S
C2017 C2016 1.374 . S
C2018 C2015 1.499 . S
C2018 C2019 1.373 . S
C2018 C2020 1.389 . S
C2019 H1998 0.950 . S
C2019 C2018 1.373 . S
C2019 C2035 1.377 . S
C2020 C2018 1.389 . S
C2020 C2021 1.524 . S
C2020 C2034 1.377 . S
C2021 C2020 1.524 . S
C2021 C2022 1.397 . S
C2021 C2026 1.363 . S
C2022 H1999 0.950 . S
C2022 C2021 1.397 . S
C2022 C2023 1.334 . S
C2023 H2000 0.950 . S
C2023 C2022 1.334 . S
C2023 C2024 1.287 . S
C2024 C2023 1.287 . S
C2024 C2025 1.524 . S
C2024 H2043 0.913 . S
C2025 H2001 0.950 . S
C2025 C2024 1.524 . S
C2025 C2026 1.415 . S
C2026 H2002 0.950 . S
C2026 C2021 1.363 . S
C2026 C2025 1.415 . S
C2027 H2003 0.951 . S
C2027 C2028 1.366 . S
C2027 C2029 1.388 . S
C2028 C2027 1.366 . S
C2028 C2032 1.385 . S
C2029 H2004 0.951 . S
C2029 C2027 1.388 . S
C2029 C2030 1.366 . S
C2030 C2029 1.366 . S
C2030 C2031 1.414 . S
C2030 C2033 1.499 . S
C2031 H2005 0.950 . S
C2031 C2030 1.414 . S
C2031 C2032 1.374 . S
C2032 H2006 0.950 . S
C2032 C2028 1.385 . S
C2032 C2031 1.374 . S
C2033 C2030 1.499 . S
C2033 C2034 1.373 . S
C2033 C2035 1.389 . S
C2034 H2007 0.950 . S
C2034 C2020 1.377 . S
C2034 C2033 1.373 . S
C2035 C2019 1.377 . S
C2035 C2033 1.389 . S
C2035 C2036 1.524 . S
C2036 C2035 1.524 . S
C2036 C2037 1.397 . S
C2036 C2041 1.363 . S
C2037 H2008 0.950 . S
C2037 C2036 1.397 . S
C2037 C2038 1.334 . S
C2038 H2009 0.950 . S
C2038 C2037 1.334 . S
C2038 C2039 1.287 . S
C2039 C2038 1.287 . S
C2039 C2040 1.524 . S
C2039 H2042 0.999 . S
C2040 H2010 0.950 . S
C2040 C2039 1.524 . S
C2040 C2041 1.415 . S
C2041 H2011 0.950 . S
C2041 C2036 1.363 . S
C2041 C2040 1.415 . S
H2042 C2039 0.999 . S
H2043 C2024 0.913 . S
H2044 C2062 0.951 . S
H2045 C2064 0.951 . S
H2046 C2066 0.950 1_545 S
H2047 C2067 0.950 . S
H2048 C2069 0.950 . S
H2049 C2072 0.950 . S
H2050 C2073 0.950 . S
H2051 C2075 0.950 . S
H2052 C2076 0.950 . S
H2053 C2077 0.951 . S
H2054 C2079 0.951 . S
H2055 C2081 0.950 1_565 S
H2056 C2082 0.950 . S
H2057 C2084 0.950 . S
H2058 C2087 0.950 . S
H2059 C2088 0.950 . S
H2060 C2090 0.950 . S
H2061 C2091 0.950 . S
C2062 H2044 0.951 . S
C2062 C2063 1.366 . S
C2062 C2064 1.388 . S
C2063 C2062 1.366 . S
C2063 C2067 1.385 . S
C2064 H2045 0.951 . S
C2064 C2062 1.388 . S
C2064 C2065 1.366 . S
C2065 C2064 1.366 . S
C2065 C2066 1.414 . S
C2065 C2068 1.499 . S
C2066 H2046 0.950 1_565 S
C2066 C2065 1.414 . S
C2066 C2067 1.374 . S
C2067 H2047 0.950 . S
C2067 C2063 1.385 . S
C2067 C2066 1.374 . S
C2068 C2065 1.499 . S
C2068 C2069 1.373 1_565 S
C2068 C2070 1.389 . S
C2069 H2048 0.950 . S
C2069 C2068 1.373 1_545 S
C2069 C2085 1.377 . S
C2070 C2068 1.389 . S
C2070 C2071 1.524 . S
C2070 C2084 1.377 . S
C2071 C2070 1.524 . S
C2071 C2072 1.397 . S
C2071 C2076 1.363 . S
C2072 H2049 0.950 . S
C2072 C2071 1.397 . S
C2072 C2073 1.334 . S
C2073 H2050 0.950 . S
C2073 C2072 1.334 . S
C2073 C2074 1.287 . S
C2074 C2073 1.287 . S
C2074 C2075 1.524 . S
C2074 H2093 0.913 . S
C2075 H2051 0.950 . S
C2075 C2074 1.524 . S
C2075 C2076 1.415 . S
C2076 H2052 0.950 . S
C2076 C2071 1.363 . S
C2076 C2075 1.415 . S
C2077 H2053 0.951 . S
C2077 C2078 1.366 . S
C2077 C2079 1.388 . S
C2078 C2077 1.366 . S
C2078 C2082 1.385 . S
C2079 H2054 0.951 . S
C2079 C2077 1.388 . S
C2079 C2080 1.366 . S
C2080 C2079 1.366 . S
C2080 C2081 1.414 . S
C2080 C2083 1.499 . S
C2081 H2055 0.950 1_545 S
C2081 C2080 1.414 . S
C2081 C2082 1.374 . S
C2082 H2056 0.950 . S
C2082 C2078 1.385 . S
C2082 C2081 1.374 . S
C2083 C2080 1.499 . S
C2083 C2084 1.373 1_545 S
C2083 C2085 1.389 . S
C2084 H2057 0.950 . S
C2084 C2070 1.377 . S
C2084 C2083 1.373 1_565 S
C2085 C2069 1.377 . S
C2085 C2083 1.389 . S
C2085 C2086 1.524 . S
C2086 C2085 1.524 . S
C2086 C2087 1.397 . S
C2086 C2091 1.363 . S
C2087 H2058 0.950 . S
C2087 C2086 1.397 . S
C2087 C2088 1.334 . S
C2088 H2059 0.950 . S
C2088 C2087 1.334 . S
C2088 C2089 1.287 . S
C2089 C2088 1.287 . S
C2089 C2090 1.524 . S
C2089 H2092 0.999 . S
C2090 H2060 0.950 . S
C2090 C2089 1.524 . S
C2090 C2091 1.415 . S
C2091 H2061 0.950 . S
C2091 C2086 1.363 . S
C2091 C2090 1.415 . S
H2092 C2089 0.999 . S
H2093 C2074 0.913 . S
H2094 C2112 0.951 . S
H2095 C2114 0.951 1_655 S
H2096 C2116 0.950 . S
H2097 C2117 0.950 . S
H2098 C2119 0.950 . S
H2099 C2122 0.950 . S
H2100 C2123 0.950 . S
H2101 C2125 0.950 . S
H2102 C2126 0.950 . S
H2103 C2127 0.951 . S
H2104 C2129 0.951 1_455 S
H2105 C2131 0.950 . S
H2106 C2132 0.950 . S
H2107 C2134 0.950 . S
H2108 C2137 0.950 . S
H2109 C2138 0.950 . S
H2110 C2140 0.950 . S
H2111 C2141 0.950 . S
C2112 H2094 0.951 . S
C2112 C2113 1.366 . S
C2112 C2114 1.388 . S
C2113 C2112 1.366 . S
C2113 C2117 1.385 . S
C2114 H2095 0.951 1_455 S
C2114 C2112 1.388 . S
C2114 C2115 1.366 . S
C2115 C2114 1.366 . S
C2115 C2116 1.414 . S
C2115 C2118 1.499 . S
C2116 H2096 0.950 . S
C2116 C2115 1.414 . S
C2116 C2117 1.374 . S
C2117 H2097 0.950 . S
C2117 C2113 1.385 . S
C2117 C2116 1.374 . S
C2118 C2115 1.499 . S
C2118 C2119 1.373 . S
C2118 C2120 1.389 1_455 S
C2119 H2098 0.950 . S
C2119 C2118 1.373 . S
C2119 C2135 1.377 1_545 S
C2120 C2118 1.389 1_655 S
C2120 C2121 1.524 . S
C2120 C2134 1.377 1_545 S
C2121 C2120 1.524 . S
C2121 C2122 1.397 . S
C2121 C2126 1.363 . S
C2122 H2099 0.950 . S
C2122 C2121 1.397 . S
C2122 C2123 1.334 . S
C2123 H2100 0.950 . S
C2123 C2122 1.334 . S
C2123 C2124 1.287 . S
C2124 C2123 1.287 . S
C2124 C2125 1.524 . S
C2124 H2143 0.913 . S
C2125 H2101 0.950 . S
C2125 C2124 1.524 . S
C2125 C2126 1.415 . S
C2126 H2102 0.950 . S
C2126 C2121 1.363 . S
C2126 C2125 1.415 . S
C2127 H2103 0.951 . S
C2127 C2128 1.366 . S
C2127 C2129 1.388 . S
C2128 C2127 1.366 . S
C2128 C2132 1.385 . S
C2129 H2104 0.951 1_655 S
C2129 C2127 1.388 . S
C2129 C2130 1.366 . S
C2130 C2129 1.366 . S
C2130 C2131 1.414 . S
C2130 C2133 1.499 . S
C2131 H2105 0.950 . S
C2131 C2130 1.414 . S
C2131 C2132 1.374 . S
C2132 H2106 0.950 . S
C2132 C2128 1.385 . S
C2132 C2131 1.374 . S
C2133 C2130 1.499 . S
C2133 C2134 1.373 . S
C2133 C2135 1.389 1_655 S
C2134 H2107 0.950 . S
C2134 C2120 1.377 1_565 S
C2134 C2133 1.373 . S
C2135 C2119 1.377 1_565 S
C2135 C2133 1.389 1_455 S
C2135 C2136 1.524 . S
C2136 C2135 1.524 . S
C2136 C2137 1.397 . S
C2136 C2141 1.363 . S
C2137 H2108 0.950 . S
C2137 C2136 1.397 . S
C2137 C2138 1.334 . S
C2138 H2109 0.950 . S
C2138 C2137 1.334 . S
C2138 C2139 1.287 . S
C2139 C2138 1.287 . S
C2139 C2140 1.524 . S
C2139 H2142 0.999 . S
C2140 H2110 0.950 . S
C2140 C2139 1.524 . S
C2140 C2141 1.415 . S
C2141 H2111 0.950 . S
C2141 C2136 1.363 . S
C2141 C2140 1.415 . S
H2142 C2139 0.999 . S
H2143 C2124 0.913 . S
H2144 C2162 0.951 . S
H2145 C2164 0.951 . S
H2146 C2166 0.950 1_545 S
H2147 C2167 0.950 . S
H2148 C2169 0.950 . S
H2149 C2172 0.950 . S
H2150 C2173 0.950 . S
H2151 C2175 0.950 . S
H2152 C2176 0.950 . S
H2153 C2177 0.951 . S
H2154 C2179 0.951 . S
H2155 C2181 0.950 1_565 S
H2156 C2182 0.950 . S
H2157 C2184 0.950 . S
H2158 C2187 0.950 . S
H2159 C2188 0.950 . S
H2160 C2190 0.950 . S
H2161 C2191 0.950 . S
C2162 H2144 0.951 . S
C2162 C2163 1.366 . S
C2162 C2164 1.388 . S
C2163 C2162 1.366 . S
C2163 C2167 1.385 . S
C2164 H2145 0.951 . S
C2164 C2162 1.388 . S
C2164 C2165 1.366 . S
C2165 C2164 1.366 . S
C2165 C2166 1.414 . S
C2165 C2168 1.499 . S
C2166 H2146 0.950 1_565 S
C2166 C2165 1.414 . S
C2166 C2167 1.374 . S
C2167 H2147 0.950 . S
C2167 C2163 1.385 . S
C2167 C2166 1.374 . S
C2168 C2165 1.499 . S
C2168 C2169 1.373 1_565 S
C2168 C2170 1.389 . S
C2169 H2148 0.950 . S
C2169 C2168 1.373 1_545 S
C2169 C2185 1.377 . S
C2170 C2168 1.389 . S
C2170 C2171 1.524 . S
C2170 C2184 1.377 . S
C2171 C2170 1.524 . S
C2171 C2172 1.397 . S
C2171 C2176 1.363 . S
C2172 H2149 0.950 . S
C2172 C2171 1.397 . S
C2172 C2173 1.334 . S
C2173 H2150 0.950 . S
C2173 C2172 1.334 . S
C2173 C2174 1.287 . S
C2174 C2173 1.287 . S
C2174 C2175 1.524 . S
C2174 H2193 0.913 . S
C2175 H2151 0.950 . S
C2175 C2174 1.524 . S
C2175 C2176 1.415 . S
C2176 H2152 0.950 . S
C2176 C2171 1.363 . S
C2176 C2175 1.415 . S
C2177 H2153 0.951 . S
C2177 C2178 1.366 . S
C2177 C2179 1.388 . S
C2178 C2177 1.366 . S
C2178 C2182 1.385 . S
C2179 H2154 0.951 . S
C2179 C2177 1.388 . S
C2179 C2180 1.366 . S
C2180 C2179 1.366 . S
C2180 C2181 1.414 . S
C2180 C2183 1.499 . S
C2181 H2155 0.950 1_545 S
C2181 C2180 1.414 . S
C2181 C2182 1.374 . S
C2182 H2156 0.950 . S
C2182 C2178 1.385 . S
C2182 C2181 1.374 . S
C2183 C2180 1.499 . S
C2183 C2184 1.373 1_545 S
C2183 C2185 1.389 . S
C2184 H2157 0.950 . S
C2184 C2170 1.377 . S
C2184 C2183 1.373 1_565 S
C2185 C2169 1.377 . S
C2185 C2183 1.389 . S
C2185 C2186 1.524 . S
C2186 C2185 1.524 . S
C2186 C2187 1.397 . S
C2186 C2191 1.363 . S
C2187 H2158 0.950 . S
C2187 C2186 1.397 . S
C2187 C2188 1.334 . S
C2188 H2159 0.950 . S
C2188 C2187 1.334 . S
C2188 C2189 1.287 . S
C2189 C2188 1.287 . S
C2189 C2190 1.524 . S
C2189 H2192 0.999 . S
C2190 H2160 0.950 . S
C2190 C2189 1.524 . S
C2190 C2191 1.415 . S
C2191 H2161 0.950 . S
C2191 C2186 1.363 . S
C2191 C2190 1.415 . S
H2192 C2189 0.999 . S
H2193 C2174 0.913 . S
H2194 C2212 0.951 . S
H2195 C2214 0.951 1_455 S
H2196 C2216 0.950 . S
H2197 C2217 0.950 . S
H2198 C2219 0.950 . S
H2199 C2222 0.950 . S
H2200 C2223 0.950 . S
H2201 C2225 0.950 . S
H2202 C2226 0.950 . S
H2203 C2227 0.951 . S
H2204 C2229 0.951 1_655 S
H2205 C2231 0.950 . S
H2206 C2232 0.950 . S
H2207 C2234 0.950 . S
H2208 C2237 0.950 . S
H2209 C2238 0.950 . S
H2210 C2240 0.950 . S
H2211 C2241 0.950 . S
C2212 H2194 0.951 . S
C2212 C2213 1.366 . S
C2212 C2214 1.388 . S
C2213 C2212 1.366 . S
C2213 C2217 1.385 . S
C2214 H2195 0.951 1_655 S
C2214 C2212 1.388 . S
C2214 C2215 1.366 . S
C2215 C2214 1.366 . S
C2215 C2216 1.414 . S
C2215 C2218 1.499 . S
C2216 H2196 0.950 . S
C2216 C2215 1.414 . S
C2216 C2217 1.374 . S
C2217 H2197 0.950 . S
C2217 C2213 1.385 . S
C2217 C2216 1.374 . S
C2218 C2215 1.499 . S
C2218 C2219 1.373 . S
C2218 C2220 1.389 1_655 S
C2219 H2198 0.950 . S
C2219 C2218 1.373 . S
C2219 C2235 1.377 1_565 S
C2220 C2218 1.389 1_455 S
C2220 C2221 1.524 . S
C2220 C2234 1.377 1_565 S
C2221 C2220 1.524 . S
C2221 C2222 1.397 1_455 S
C2221 C2226 1.363 . S
C2222 H2199 0.950 . S
C2222 C2221 1.397 1_655 S
C2222 C2223 1.334 . S
C2223 H2200 0.950 . S
C2223 C2222 1.334 . S
C2223 C2224 1.287 1_655 S
C2224 C2223 1.287 1_455 S
C2224 C2225 1.524 . S
C2224 H2243 0.913 . S
C2225 H2201 0.950 . S
C2225 C2224 1.524 . S
C2225 C2226 1.415 . S
C2226 H2202 0.950 . S
C2226 C2221 1.363 . S
C2226 C2225 1.415 . S
C2227 H2203 0.951 . S
C2227 C2228 1.366 . S
C2227 C2229 1.388 . S
C2228 C2227 1.366 . S
C2228 C2232 1.385 . S
C2229 H2204 0.951 1_455 S
C2229 C2227 1.388 . S
C2229 C2230 1.366 . S
C2230 C2229 1.366 . S
C2230 C2231 1.414 . S
C2230 C2233 1.499 . S
C2231 H2205 0.950 . S
C2231 C2230 1.414 . S
C2231 C2232 1.374 . S
C2232 H2206 0.950 . S
C2232 C2228 1.385 . S
C2232 C2231 1.374 . S
C2233 C2230 1.499 . S
C2233 C2234 1.373 . S
C2233 C2235 1.389 1_455 S
C2234 H2207 0.950 . S
C2234 C2220 1.377 1_545 S
C2234 C2233 1.373 . S
C2235 C2219 1.377 1_545 S
C2235 C2233 1.389 1_655 S
C2235 C2236 1.524 . S
C2236 C2235 1.524 . S
C2236 C2237 1.397 1_655 S
C2236 C2241 1.363 . S
C2237 H2208 0.950 . S
C2237 C2236 1.397 1_455 S
C2237 C2238 1.334 . S
C2238 H2209 0.950 . S
C2238 C2237 1.334 . S
C2238 C2239 1.287 1_455 S
C2239 C2238 1.287 1_655 S
C2239 C2240 1.524 . S
C2239 H2242 0.999 . S
C2240 H2210 0.950 . S
C2240 C2239 1.524 . S
C2240 C2241 1.415 . S
C2241 H2211 0.950 . S
C2241 C2236 1.363 . S
C2241 C2240 1.415 . S
H2242 C2239 0.999 . S
H2243 C2224 0.913 . S
H2244 C2262 0.951 . S
H2245 C2264 0.951 . S
H2246 C2266 0.950 . S
H2247 C2267 0.950 . S
H2248 C2269 0.950 . S
H2249 C2272 0.950 . S
H2250 C2273 0.950 . S
H2251 C2275 0.950 . S
H2252 C2276 0.950 . S
H2253 C2277 0.951 . S
H2254 C2279 0.951 . S
H2255 C2281 0.950 . S
H2256 C2282 0.950 . S
H2257 C2284 0.950 . S
H2258 C2287 0.950 . S
H2259 C2288 0.950 . S
H2260 C2290 0.950 . S
H2261 C2291 0.950 . S
C2262 H2244 0.951 . S
C2262 C2263 1.366 . S
C2262 C2264 1.388 . S
C2263 C2262 1.366 . S
C2263 C2267 1.385 . S
C2264 H2245 0.951 . S
C2264 C2262 1.388 . S
C2264 C2265 1.366 . S
C2265 C2264 1.366 . S
C2265 C2266 1.414 . S
C2265 C2268 1.499 . S
C2266 H2246 0.950 . S
C2266 C2265 1.414 . S
C2266 C2267 1.374 . S
C2267 H2247 0.950 . S
C2267 C2263 1.385 . S
C2267 C2266 1.374 . S
C2268 C2265 1.499 . S
C2268 C2269 1.373 . S
C2268 C2270 1.389 . S
C2269 H2248 0.950 . S
C2269 C2268 1.373 . S
C2269 C2285 1.377 1_455 S
C2270 C2268 1.389 . S
C2270 C2271 1.524 . S
C2270 C2284 1.377 1_455 S
C2271 C2270 1.524 . S
C2271 C2272 1.397 . S
C2271 C2276 1.363 . S
C2272 H2249 0.950 . S
C2272 C2271 1.397 . S
C2272 C2273 1.334 . S
C2273 H2250 0.950 . S
C2273 C2272 1.334 . S
C2273 C2274 1.287 . S
C2274 C2273 1.287 . S
C2274 C2275 1.524 . S
C2274 H2293 0.913 . S
C2275 H2251 0.950 . S
C2275 C2274 1.524 . S
C2275 C2276 1.415 . S
C2276 H2252 0.950 . S
C2276 C2271 1.363 . S
C2276 C2275 1.415 . S
C2277 H2253 0.951 . S
C2277 C2278 1.366 . S
C2277 C2279 1.388 . S
C2278 C2277 1.366 . S
C2278 C2282 1.385 . S
C2279 H2254 0.951 . S
C2279 C2277 1.388 . S
C2279 C2280 1.366 . S
C2280 C2279 1.366 . S
C2280 C2281 1.414 . S
C2280 C2283 1.499 . S
C2281 H2255 0.950 . S
C2281 C2280 1.414 . S
C2281 C2282 1.374 . S
C2282 H2256 0.950 . S
C2282 C2278 1.385 . S
C2282 C2281 1.374 . S
C2283 C2280 1.499 . S
C2283 C2284 1.373 . S
C2283 C2285 1.389 . S
C2284 H2257 0.950 . S
C2284 C2270 1.377 1_655 S
C2284 C2283 1.373 . S
C2285 C2269 1.377 1_655 S
C2285 C2283 1.389 . S
C2285 C2286 1.524 . S
C2286 C2285 1.524 . S
C2286 C2287 1.397 . S
C2286 C2291 1.363 . S
C2287 H2258 0.950 . S
C2287 C2286 1.397 . S
C2287 C2288 1.334 . S
C2288 H2259 0.950 . S
C2288 C2287 1.334 . S
C2288 C2289 1.287 . S
C2289 C2288 1.287 . S
C2289 C2290 1.524 . S
C2289 H2292 0.999 . S
C2290 H2260 0.950 . S
C2290 C2289 1.524 . S
C2290 C2291 1.415 . S
C2291 H2261 0.950 . S
C2291 C2286 1.363 . S
C2291 C2290 1.415 . S
H2292 C2289 0.999 . S
H2293 C2274 0.913 . S
H2294 C2312 0.951 . S
H2295 C2314 0.951 . S
H2296 C2316 0.950 . S
H2297 C2317 0.950 . S
H2298 C2319 0.950 . S
H2299 C2322 0.950 . S
H2300 C2323 0.950 . S
H2301 C2325 0.950 . S
H2302 C2326 0.950 . S
H2303 C2327 0.951 . S
H2304 C2329 0.951 . S
H2305 C2331 0.950 . S
H2306 C2332 0.950 . S
H2307 C2334 0.950 . S
H2308 C2337 0.950 . S
H2309 C2338 0.950 . S
H2310 C2340 0.950 . S
H2311 C2341 0.950 . S
C2312 H2294 0.951 . S
C2312 C2313 1.366 . S
C2312 C2314 1.388 . S
C2313 C2312 1.366 . S
C2313 C2317 1.385 . S
C2314 H2295 0.951 . S
C2314 C2312 1.388 . S
C2314 C2315 1.366 . S
C2315 C2314 1.366 . S
C2315 C2316 1.414 . S
C2315 C2318 1.499 . S
C2316 H2296 0.950 . S
C2316 C2315 1.414 . S
C2316 C2317 1.374 . S
C2317 H2297 0.950 . S
C2317 C2313 1.385 . S
C2317 C2316 1.374 . S
C2318 C2315 1.499 . S
C2318 C2319 1.373 . S
C2318 C2320 1.389 . S
C2319 H2298 0.950 . S
C2319 C2318 1.373 . S
C2319 C2335 1.377 . S
C2320 C2318 1.389 . S
C2320 C2321 1.524 . S
C2320 C2334 1.377 . S
C2321 C2320 1.524 . S
C2321 C2322 1.397 . S
C2321 C2326 1.363 . S
C2322 H2299 0.950 . S
C2322 C2321 1.397 . S
C2322 C2323 1.334 . S
C2323 H2300 0.950 . S
C2323 C2322 1.334 . S
C2323 C2324 1.287 . S
C2324 C2323 1.287 . S
C2324 C2325 1.524 . S
C2324 H2343 0.913 . S
C2325 H2301 0.950 . S
C2325 C2324 1.524 . S
C2325 C2326 1.415 . S
C2326 H2302 0.950 . S
C2326 C2321 1.363 . S
C2326 C2325 1.415 . S
C2327 H2303 0.951 . S
C2327 C2328 1.366 . S
C2327 C2329 1.388 . S
C2328 C2327 1.366 . S
C2328 C2332 1.385 . S
C2329 H2304 0.951 . S
C2329 C2327 1.388 . S
C2329 C2330 1.366 . S
C2330 C2329 1.366 . S
C2330 C2331 1.414 . S
C2330 C2333 1.499 . S
C2331 H2305 0.950 . S
C2331 C2330 1.414 . S
C2331 C2332 1.374 . S
C2332 H2306 0.950 . S
C2332 C2328 1.385 . S
C2332 C2331 1.374 . S
C2333 C2330 1.499 . S
C2333 C2334 1.373 . S
C2333 C2335 1.389 . S
C2334 H2307 0.950 . S
C2334 C2320 1.377 . S
C2334 C2333 1.373 . S
C2335 C2319 1.377 . S
C2335 C2333 1.389 . S
C2335 C2336 1.524 . S
C2336 C2335 1.524 . S
C2336 C2337 1.397 . S
C2336 C2341 1.363 . S
C2337 H2308 0.950 . S
C2337 C2336 1.397 . S
C2337 C2338 1.334 . S
C2338 H2309 0.950 . S
C2338 C2337 1.334 . S
C2338 C2339 1.287 . S
C2339 C2338 1.287 . S
C2339 C2340 1.524 . S
C2339 H2342 0.999 . S
C2340 H2310 0.950 . S
C2340 C2339 1.524 . S
C2340 C2341 1.415 . S
C2341 H2311 0.950 . S
C2341 C2336 1.363 . S
C2341 C2340 1.415 . S
H2342 C2339 0.999 . S
H2343 C2324 0.913 . S
H2344 C2362 0.951 . S
H2345 C2364 0.951 . S
H2346 C2366 0.950 . S
H2347 C2367 0.950 . S
H2348 C2369 0.950 . S
H2349 C2372 0.950 . S
H2350 C2373 0.950 . S
H2351 C2375 0.950 . S
H2352 C2376 0.950 . S
H2353 C2377 0.951 . S
H2354 C2379 0.951 . S
H2355 C2381 0.950 . S
H2356 C2382 0.950 . S
H2357 C2384 0.950 . S
H2358 C2387 0.950 . S
H2359 C2388 0.950 . S
H2360 C2390 0.950 . S
H2361 C2391 0.950 . S
C2362 H2344 0.951 . S
C2362 C2363 1.366 . S
C2362 C2364 1.388 . S
C2363 C2362 1.366 . S
C2363 C2367 1.385 . S
C2364 H2345 0.951 . S
C2364 C2362 1.388 . S
C2364 C2365 1.366 . S
C2365 C2364 1.366 . S
C2365 C2366 1.414 . S
C2365 C2368 1.499 . S
C2366 H2346 0.950 . S
C2366 C2365 1.414 . S
C2366 C2367 1.374 . S
C2367 H2347 0.950 . S
C2367 C2363 1.385 . S
C2367 C2366 1.374 . S
C2368 C2365 1.499 . S
C2368 C2369 1.373 . S
C2368 C2370 1.389 . S
C2369 H2348 0.950 . S
C2369 C2368 1.373 . S
C2369 C2385 1.377 . S
C2370 C2368 1.389 . S
C2370 C2371 1.524 . S
C2370 C2384 1.377 . S
C2371 C2370 1.524 . S
C2371 C2372 1.397 . S
C2371 C2376 1.363 . S
C2372 H2349 0.950 . S
C2372 C2371 1.397 . S
C2372 C2373 1.334 . S
C2373 H2350 0.950 . S
C2373 C2372 1.334 . S
C2373 C2374 1.287 . S
C2374 C2373 1.287 . S
C2374 C2375 1.524 . S
C2374 H2393 0.913 . S
C2375 H2351 0.950 . S
C2375 C2374 1.524 . S
C2375 C2376 1.415 . S
C2376 H2352 0.950 . S
C2376 C2371 1.363 . S
C2376 C2375 1.415 . S
C2377 H2353 0.951 . S
C2377 C2378 1.366 . S
C2377 C2379 1.388 . S
C2378 C2377 1.366 . S
C2378 C2382 1.385 . S
C2379 H2354 0.951 . S
C2379 C2377 1.388 . S
C2379 C2380 1.366 . S
C2380 C2379 1.366 . S
C2380 C2381 1.414 . S
C2380 C2383 1.499 . S
C2381 H2355 0.950 . S
C2381 C2380 1.414 . S
C2381 C2382 1.374 . S
C2382 H2356 0.950 . S
C2382 C2378 1.385 . S
C2382 C2381 1.374 . S
C2383 C2380 1.499 . S
C2383 C2384 1.373 . S
C2383 C2385 1.389 . S
C2384 H2357 0.950 . S
C2384 C2370 1.377 . S
C2384 C2383 1.373 . S
C2385 C2369 1.377 . S
C2385 C2383 1.389 . S
C2385 C2386 1.524 . S
C2386 C2385 1.524 . S
C2386 C2387 1.397 . S
C2386 C2391 1.363 . S
C2387 H2358 0.950 . S
C2387 C2386 1.397 . S
C2387 C2388 1.334 . S
C2388 H2359 0.950 . S
C2388 C2387 1.334 . S
C2388 C2389 1.287 . S
C2389 C2388 1.287 . S
C2389 C2390 1.524 . S
C2389 H2392 0.999 . S
C2390 H2360 0.950 . S
C2390 C2389 1.524 . S
C2390 C2391 1.415 . S
C2391 H2361 0.950 . S
C2391 C2386 1.363 . S
C2391 C2390 1.415 . S
H2392 C2389 0.999 . S
H2393 C2374 0.913 . S
H2394 C2412 0.951 . S
H2395 C2414 0.951 . S
H2396 C2416 0.950 . S
H2397 C2417 0.950 . S
H2398 C2419 0.950 . S
H2399 C2422 0.950 . S
H2400 C2423 0.950 . S
H2401 C2425 0.950 . S
H2402 C2426 0.950 . S
H2403 C2427 0.951 . S
H2404 C2429 0.951 . S
H2405 C2431 0.950 . S
H2406 C2432 0.950 . S
H2407 C2434 0.950 . S
H2408 C2437 0.950 . S
H2409 C2438 0.950 . S
H2410 C2440 0.950 . S
H2411 C2441 0.950 . S
C2412 H2394 0.951 . S
C2412 C2413 1.366 . S
C2412 C2414 1.388 . S
C2413 C2412 1.366 . S
C2413 C2417 1.385 . S
C2414 H2395 0.951 . S
C2414 C2412 1.388 . S
C2414 C2415 1.366 . S
C2415 C2414 1.366 . S
C2415 C2416 1.414 . S
C2415 C2418 1.499 . S
C2416 H2396 0.950 . S
C2416 C2415 1.414 . S
C2416 C2417 1.374 . S
C2417 H2397 0.950 . S
C2417 C2413 1.385 . S
C2417 C2416 1.374 . S
C2418 C2415 1.499 . S
C2418 C2419 1.373 . S
C2418 C2420 1.389 . S
C2419 H2398 0.950 . S
C2419 C2418 1.373 . S
C2419 C2435 1.377 1_545 S
C2420 C2418 1.389 . S
C2420 C2421 1.524 . S
C2420 C2434 1.377 1_545 S
C2421 C2420 1.524 . S
C2421 C2422 1.397 . S
C2421 C2426 1.363 . S
C2422 H2399 0.950 . S
C2422 C2421 1.397 . S
C2422 C2423 1.334 . S
C2423 H2400 0.950 . S
C2423 C2422 1.334 . S
C2423 C2424 1.287 . S
C2424 C2423 1.287 . S
C2424 C2425 1.524 . S
C2424 H2443 0.913 . S
C2425 H2401 0.950 . S
C2425 C2424 1.524 . S
C2425 C2426 1.415 . S
C2426 H2402 0.950 . S
C2426 C2421 1.363 . S
C2426 C2425 1.415 . S
C2427 H2403 0.951 . S
C2427 C2428 1.366 . S
C2427 C2429 1.388 . S
C2428 C2427 1.366 . S
C2428 C2432 1.385 . S
C2429 H2404 0.951 . S
C2429 C2427 1.388 . S
C2429 C2430 1.366 . S
C2430 C2429 1.366 . S
C2430 C2431 1.414 . S
C2430 C2433 1.499 . S
C2431 H2405 0.950 . S
C2431 C2430 1.414 . S
C2431 C2432 1.374 . S
C2432 H2406 0.950 . S
C2432 C2428 1.385 . S
C2432 C2431 1.374 . S
C2433 C2430 1.499 . S
C2433 C2434 1.373 . S
C2433 C2435 1.389 . S
C2434 H2407 0.950 . S
C2434 C2420 1.377 1_565 S
C2434 C2433 1.373 . S
C2435 C2419 1.377 1_565 S
C2435 C2433 1.389 . S
C2435 C2436 1.524 . S
C2436 C2435 1.524 . S
C2436 C2437 1.397 . S
C2436 C2441 1.363 . S
C2437 H2408 0.950 . S
C2437 C2436 1.397 . S
C2437 C2438 1.334 . S
C2438 H2409 0.950 . S
C2438 C2437 1.334 . S
C2438 C2439 1.287 . S
C2439 C2438 1.287 . S
C2439 C2440 1.524 . S
C2439 H2442 0.999 . S
C2440 H2410 0.950 . S
C2440 C2439 1.524 . S
C2440 C2441 1.415 . S
C2441 H2411 0.950 . S
C2441 C2436 1.363 . S
C2441 C2440 1.415 . S
H2442 C2439 0.999 . S
H2443 C2424 0.913 . S
H2444 C2462 0.951 . S
H2445 C2464 0.951 . S
H2446 C2466 0.954 . S
H2447 C2467 0.950 . S
H2448 C2469 0.950 . S
H2449 C2472 0.950 . S
H2450 C2473 0.950 . S
H2451 C2475 0.950 . S
H2452 C2476 0.950 . S
H2453 C2477 0.951 . S
H2454 C2479 0.951 . S
H2455 C2481 0.954 . S
H2456 C2482 0.950 . S
H2457 C2484 0.950 . S
H2458 C2487 0.950 . S
H2459 C2488 0.950 . S
H2460 C2490 0.950 . S
H2461 C2491 0.950 . S
C2462 H2444 0.951 . S
C2462 C2463 1.366 . S
C2462 C2464 1.388 . S
C2463 C2462 1.366 . S
C2463 C2467 1.385 . S
C2464 H2445 0.951 . S
C2464 C2462 1.388 . S
C2464 C2465 1.366 . S
C2465 C2464 1.366 . S
C2465 C2466 1.414 . S
C2465 C2468 1.499 . S
C2466 H2446 0.954 . S
C2466 C2465 1.414 . S
C2466 C2467 1.374 . S
C2467 H2447 0.950 . S
C2467 C2463 1.385 . S
C2467 C2466 1.374 . S
C2468 C2465 1.499 . S
C2468 C2469 1.373 1_565 S
C2468 C2470 1.402 . S
C2469 H2448 0.950 . S
C2469 C2468 1.373 1_545 S
C2469 C2485 1.364 1_655 S
C2470 C2468 1.402 . S
C2470 C2471 1.524 1_655 S
C2470 C2484 1.364 1_655 S
C2471 C2470 1.524 1_455 S
C2471 C2472 1.397 1_455 S
C2471 C2476 1.363 . S
C2472 H2449 0.950 . S
C2472 C2471 1.397 1_655 S
C2472 C2473 1.334 . S
C2473 H2450 0.950 . S
C2473 C2472 1.334 . S
C2473 C2474 1.287 1_655 S
C2474 C2473 1.287 1_455 S
C2474 C2475 1.524 . S
C2474 H2493 0.913 . S
C2475 H2451 0.950 . S
C2475 C2474 1.524 . S
C2475 C2476 1.415 . S
C2476 H2452 0.950 . S
C2476 C2471 1.363 . S
C2476 C2475 1.415 . S
C2477 H2453 0.951 . S
C2477 C2478 1.366 . S
C2477 C2479 1.388 . S
C2478 C2477 1.366 . S
C2478 C2482 1.385 . S
C2479 H2454 0.951 . S
C2479 C2477 1.388 . S
C2479 C2480 1.366 . S
C2480 C2479 1.366 . S
C2480 C2481 1.414 . S
C2480 C2483 1.499 . S
C2481 H2455 0.954 . S
C2481 C2480 1.414 . S
C2481 C2482 1.374 . S
C2482 H2456 0.950 . S
C2482 C2478 1.385 . S
C2482 C2481 1.374 . S
C2483 C2480 1.499 . S
C2483 C2484 1.373 1_545 S
C2483 C2485 1.402 . S
C2484 H2457 0.950 . S
C2484 C2470 1.364 1_455 S
C2484 C2483 1.373 1_565 S
C2485 C2469 1.364 1_455 S
C2485 C2483 1.402 . S
C2485 C2486 1.524 1_455 S
C2486 C2485 1.524 1_655 S
C2486 C2487 1.397 1_655 S
C2486 C2491 1.363 . S
C2487 H2458 0.950 . S
C2487 C2486 1.397 1_455 S
C2487 C2488 1.334 . S
C2488 H2459 0.950 . S
C2488 C2487 1.334 . S
C2488 C2489 1.287 1_455 S
C2489 C2488 1.287 1_655 S
C2489 C2490 1.524 . S
C2489 H2492 0.999 . S
C2490 H2460 0.950 . S
C2490 C2489 1.524 . S
C2490 C2491 1.415 . S
C2491 H2461 0.950 . S
C2491 C2486 1.363 . S
C2491 C2490 1.415 . S
H2492 C2489 0.999 . S
H2493 C2474 0.913 . S
H2494 C2512 0.951 . S
H2495 C2514 0.951 . S
H2496 C2516 0.950 . S
H2497 C2517 0.950 . S
H2498 C2519 0.950 . S
H2499 C2522 0.950 . S
H2500 C2523 0.950 . S
H2501 C2525 0.950 . S
H2502 C2526 0.950 . S
H2503 C2527 0.951 . S
H2504 C2529 0.951 . S
H2505 C2531 0.950 . S
H2506 C2532 0.950 . S
H2507 C2534 0.950 . S
H2508 C2537 0.950 . S
H2509 C2538 0.950 . S
H2510 C2540 0.950 . S
H2511 C2541 0.950 . S
C2512 H2494 0.951 . S
C2512 C2513 1.366 . S
C2512 C2514 1.388 . S
C2513 C2512 1.366 . S
C2513 C2517 1.385 . S
C2514 H2495 0.951 . S
C2514 C2512 1.388 . S
C2514 C2515 1.366 . S
C2515 C2514 1.366 . S
C2515 C2516 1.414 . S
C2515 C2518 1.499 . S
C2516 H2496 0.950 . S
C2516 C2515 1.414 . S
C2516 C2517 1.374 . S
C2517 H2497 0.950 . S
C2517 C2513 1.385 . S
C2517 C2516 1.374 . S
C2518 C2515 1.499 . S
C2518 C2519 1.373 . S
C2518 C2520 1.389 1_655 S
C2519 H2498 0.950 . S
C2519 C2518 1.373 . S
C2519 C2535 1.377 . S
C2520 C2518 1.389 1_455 S
C2520 C2521 1.524 . S
C2520 C2534 1.377 . S
C2521 C2520 1.524 . S
C2521 C2522 1.397 . S
C2521 C2526 1.363 . S
C2522 H2499 0.950 . S
C2522 C2521 1.397 . S
C2522 C2523 1.334 . S
C2523 H2500 0.950 . S
C2523 C2522 1.334 . S
C2523 C2524 1.287 . S
C2524 C2523 1.287 . S
C2524 C2525 1.524 . S
C2524 H2543 0.913 . S
C2525 H2501 0.950 . S
C2525 C2524 1.524 . S
C2525 C2526 1.415 . S
C2526 H2502 0.950 . S
C2526 C2521 1.363 . S
C2526 C2525 1.415 . S
C2527 H2503 0.951 . S
C2527 C2528 1.366 . S
C2527 C2529 1.388 . S
C2528 C2527 1.366 . S
C2528 C2532 1.385 . S
C2529 H2504 0.951 . S
C2529 C2527 1.388 . S
C2529 C2530 1.366 . S
C2530 C2529 1.366 . S
C2530 C2531 1.414 . S
C2530 C2533 1.499 . S
C2531 H2505 0.950 . S
C2531 C2530 1.414 . S
C2531 C2532 1.374 . S
C2532 H2506 0.950 . S
C2532 C2528 1.385 . S
C2532 C2531 1.374 . S
C2533 C2530 1.499 . S
C2533 C2534 1.373 . S
C2533 C2535 1.389 1_455 S
C2534 H2507 0.950 . S
C2534 C2520 1.377 . S
C2534 C2533 1.373 . S
C2535 C2519 1.377 . S
C2535 C2533 1.389 1_655 S
C2535 C2536 1.524 . S
C2536 C2535 1.524 . S
C2536 C2537 1.397 . S
C2536 C2541 1.363 . S
C2537 H2508 0.950 . S
C2537 C2536 1.397 . S
C2537 C2538 1.334 . S
C2538 H2509 0.950 . S
C2538 C2537 1.334 . S
C2538 C2539 1.287 . S
C2539 C2538 1.287 . S
C2539 C2540 1.524 . S
C2539 H2542 0.999 . S
C2540 H2510 0.950 . S
C2540 C2539 1.524 . S
C2540 C2541 1.415 . S
C2541 H2511 0.950 . S
C2541 C2536 1.363 . S
C2541 C2540 1.415 . S
H2542 C2539 0.999 . S
H2543 C2524 0.913 . S
C963 C239 1.562 . S
C978 C3 1.562 . S
C1013 C62 1.563 . S
C1028 C298 1.562 . S
C1063 C357 1.562 . S
C1078 C121 1.562 . S
C1113 C416 1.562 . S
C1128 C180 1.562 . S
C1163 C711 1.562 . S
C1178 C475 1.562 . S
C1213 C534 1.562 . S
C1228 C770 1.562 . S
C1263 C829 1.562 . S
C1278 C593 1.562 . S
C1313 C652 1.562 . S
C1328 C888 1.562 . S
C1363 C33 1.584 . S
C1378 C918 1.584 . S
C1413 C92 1.583 . S
C1428 C741 1.584 . S
C1463 C151 1.584 . S
C1478 C800 1.584 . S
C1513 C859 1.584 . S
C1528 C210 1.584 . S
C1563 C269 1.583 . S
C1578 C564 1.583 . S
C1613 C328 1.583 . S
C1628 C623 1.584 . S
C1663 C682 1.584 . S
C1678 C387 1.584 . S
C1713 C505 1.584 . S
C1728 C446 1.584 . S
C1763 C5 1.677 . S
C1778 C595 1.677 . S
C1813 C654 1.677 . S
C1828 C64 1.677 . S
C1863 C123 1.677 . S
C1878 C477 1.677 . S
C1913 C536 1.677 . S
C1928 C182 1.677 . S
C1963 C241 1.677 . S
C1978 C831 1.677 . S
C2013 C300 1.677 . S
C2028 C890 1.677 . S
C2063 C713 1.677 . S
C2078 C359 1.677 . S
C2113 C772 1.677 . S
C2128 C418 1.677 . S
C2163 C642 1.435 . S
C2178 C52 1.435 . S
C2213 C111 1.435 . S
C2228 C701 1.436 . S
C2263 C170 1.435 . S
C2278 C524 1.435 . S
C2313 C583 1.435 . S
C2328 C229 1.435 . S
C2363 C878 1.435 . S
C2378 C288 1.435 . S
C2413 C937 1.435 . S
C2428 C347 1.435 . S
C2463 C760 1.435 . S
C2478 C406 1.435 . S
C2513 C465 1.436 . S
C2528 C819 1.436 . S
