# Generated by pormake.
# Topology smk, (6)-cn, num edge types: 1
# Building blocks:
#     Node 0, Type 0, BuildingBlock: JUFBIX_clean_sbu_0, # of connection points: 6
#     Node 1, Type 0, BuildingBlock: JUFBIX_clean_sbu_0, # of connection points: 6
#     Node 2, Type 0, BuildingBlock: JUFBIX_clean_sbu_0, # of connection points: 6
#     Node 3, Type 0, BuildingBlock: JUFBIX_clean_sbu_0, # of connection points: 6
#     Node 4, Type 0, BuildingBlock: JUFBIX_clean_sbu_0, # of connection points: 6
#     Node 5, Type 0, BuildingBlock: JUFBIX_clean_sbu_0, # of connection points: 6
#     Edge 6, Type (0, 0), BuildingBlock: ZUJKAS_clean_linker_0, # of connection points: 2
#     Edge 7, Type (0, 0), BuildingBlock: ZUJKAS_clean_linker_0, # of connection points: 2
#     Edge 8, Type (0, 0), BuildingBlock: ZUJKAS_clean_linker_0, # of connection points: 2
#     Edge 9, Type (0, 0), BuildingBlock: ZUJKAS_clean_linker_0, # of connection points: 2
#     Edge 10, Type (0, 0), BuildingBlock: ZUJKAS_clean_linker_0, # of connection points: 2
#     Edge 11, Type (0, 0), BuildingBlock: ZUJKAS_clean_linker_0, # of connection points: 2
#     Edge 12, Type (0, 0), BuildingBlock: ZUJKAS_clean_linker_0, # of connection points: 2
#     Edge 13, Type (0, 0), BuildingBlock: ZUJKAS_clean_linker_0, # of connection points: 2
#     Edge 14, Type (0, 0), BuildingBlock: ZUJKAS_clean_linker_0, # of connection points: 2
#     Edge 15, Type (0, 0), BuildingBlock: ZUJKAS_clean_linker_0, # of connection points: 2
#     Edge 16, Type (0, 0), BuildingBlock: ZUJKAS_clean_linker_0, # of connection points: 2
#     Edge 17, Type (0, 0), BuildingBlock: ZUJKAS_clean_linker_0, # of connection points: 2
#     Edge 18, Type (0, 0), BuildingBlock: ZUJKAS_clean_linker_0, # of connection points: 2
#     Edge 19, Type (0, 0), BuildingBlock: ZUJKAS_clean_linker_0, # of connection points: 2
#     Edge 20, Type (0, 0), BuildingBlock: ZUJKAS_clean_linker_0, # of connection points: 2
#     Edge 21, Type (0, 0), BuildingBlock: ZUJKAS_clean_linker_0, # of connection points: 2
#     Edge 22, Type (0, 0), BuildingBlock: ZUJKAS_clean_linker_0, # of connection points: 2
#     Edge 23, Type (0, 0), BuildingBlock: ZUJKAS_clean_linker_0, # of connection points: 2
# Relax obj value: 0.356
# Max RMSD: 0.249
# Mean RMSD: 0.249
data_MOF--net-smk--node1-JUFBIX_clean_sbu_0--edge1-ZUJKAS_clean_linker_0
_symmetry_space_group_name_H-M    P1
_symmetry_Int_Tables_number       1
_symmetry_cell_setting            triclinic
loop_
_symmetry_equiv_pos_as_xyz
'x, y, z'
_cell_length_a     57.329872
_cell_length_b     57.412767
_cell_length_c     19.144399
_cell_angle_alpha  89.637217
_cell_angle_beta   90.089824
_cell_angle_gamma 120.10639
loop_
_atom_site_label
_atom_site_type_symbol
_atom_site_fract_x
_atom_site_fract_y
_atom_site_fract_z
_atom_type_partial_charge
Co0 Co 0.4253 0.20038 0.51742 0.0
C1 C 0.40685 0.14519 0.51231 0.0
Co2 Co 0.45774 0.19008 0.51885 0.0
C3 C 0.39479 0.22704 0.55058 0.0
C4 C 0.37553 0.196 0.47421 0.0
N5 N 0.39774 0.20848 0.51451 0.0
N6 N 0.37147 0.22639 0.53465 0.0
C7 C 0.35937 0.20687 0.48658 0.0
H8 H 0.40922 0.24039 0.58864 0.0
H9 H 0.37135 0.17996 0.43807 0.0
C10 C 0.47682 0.24503 0.52105 0.0
N11 N 0.48505 0.1816 0.52097 0.0
C12 C 0.50415 0.1878 0.57031 0.0
C13 C 0.49002 0.16766 0.47248 0.0
N14 N 0.52087 0.17847 0.55411 0.0
C15 C 0.51214 0.16589 0.49246 0.0
C16 C 0.44382 0.1976 0.38772 0.0
O17 O 0.4519 0.23794 0.5204 0.0
O18 O 0.48355 0.22704 0.5222 0.0
O19 O 0.45936 0.19189 0.4214 0.0
O20 O 0.42711 0.20188 0.42016 0.0
O21 O 0.43189 0.15318 0.5147 0.0
H22 H 0.47828 0.15923 0.42561 0.0
H23 H 0.50604 0.19929 0.61672 0.0
O24 O 0.3992 0.16252 0.51358 0.0
O25 O 0.42369 0.1989 0.61482 0.0
O26 O 0.45569 0.18846 0.61602 0.0
C27 C 0.43917 0.19306 0.64847 0.0
H28 H 0.34029 0.20104 0.46149 0.0
H29 H 0.52091 0.15582 0.46442 0.0
Co30 Co 0.2071 0.41453 0.773 0.0
C31 C 0.1521 0.39654 0.76072 0.0
Co32 Co 0.19723 0.44724 0.7708 0.0
C33 C 0.23461 0.3844 0.74427 0.0
C34 C 0.2002 0.36331 0.81107 0.0
N35 N 0.21474 0.38668 0.77582 0.0
N36 N 0.23279 0.3604 0.7581 0.0
C37 C 0.21116 0.34717 0.80022 0.0
H38 H 0.24976 0.39983 0.71081 0.0
H39 H 0.18263 0.3583 0.84261 0.0
C40 C 0.25189 0.46567 0.78599 0.0
N41 N 0.18902 0.47471 0.76881 0.0
C42 C 0.19788 0.49574 0.72391 0.0
C43 C 0.17251 0.47778 0.81321 0.0
N44 N 0.1877 0.51183 0.73905 0.0
C45 C 0.17182 0.50067 0.79536 0.0
C46 C 0.19715 0.42799 0.90222 0.0
O47 O 0.24454 0.44072 0.78403 0.0
O48 O 0.23425 0.47277 0.77964 0.0
O49 O 0.19395 0.44523 0.86839 0.0
O50 O 0.20303 0.41241 0.87002 0.0
O51 O 0.16022 0.42157 0.76265 0.0
H52 H 0.16154 0.46419 0.85578 0.0
H53 H 0.21181 0.49942 0.6815 0.0
O54 O 0.16937 0.38881 0.76298 0.0
O55 O 0.21113 0.41685 0.6757 0.0
O56 O 0.20069 0.4488 0.67365 0.0
C57 C 0.20725 0.43365 0.64169 0.0
H58 H 0.20391 0.32731 0.82234 0.0
H59 H 0.16021 0.5083 0.82103 0.0
Co60 Co 0.81247 0.21687 0.85031 0.0
C61 C 0.86781 0.25357 0.85033 0.0
Co62 Co 0.82287 0.25964 0.85075 0.0
C63 C 0.78525 0.15921 0.88197 0.0
C64 C 0.81724 0.17196 0.8074 0.0
N65 N 0.80424 0.18117 0.8472 0.0
N66 N 0.78614 0.13675 0.86569 0.0
C67 C 0.80625 0.14481 0.81868 0.0
H68 H 0.77138 0.15979 0.91924 0.0
H69 H 0.8337 0.18425 0.77222 0.0
C70 C 0.76784 0.22379 0.84791 0.0
N71 N 0.83171 0.29546 0.85302 0.0
C72 C 0.82289 0.30759 0.89745 0.0
C73 C 0.84977 0.31546 0.81163 0.0
N74 N 0.83489 0.33442 0.88572 0.0
C75 C 0.85176 0.33936 0.83148 0.0
C76 C 0.81794 0.23937 0.72019 0.0
O77 O 0.77488 0.20595 0.84941 0.0
O78 O 0.78587 0.24854 0.8494 0.0
O79 O 0.82322 0.26049 0.75332 0.0
O80 O 0.81277 0.21811 0.75319 0.0
O81 O 0.85981 0.27055 0.85137 0.0
H82 H 0.86105 0.31287 0.77015 0.0
H83 H 0.80845 0.29699 0.93874 0.0
O84 O 0.85039 0.22856 0.85038 0.0
O85 O 0.81215 0.2159 0.94755 0.0
O86 O 0.82235 0.25828 0.94791 0.0
C87 C 0.81717 0.23696 -0.01923 0.0
H88 H 0.81238 0.13192 0.79339 0.0
H89 H 0.86457 0.35882 0.80746 0.0
Co90 Co 0.59902 0.78289 0.10826 0.0
C91 C 0.6187 0.74749 0.09657 0.0
Co92 Co 0.56712 0.73987 0.10663 0.0
C93 C 0.62799 0.84059 0.07794 0.0
C94 C 0.64918 0.82845 0.14785 0.0
N95 N 0.62608 0.81883 0.11124 0.0
N96 N 0.65152 0.8633 0.09196 0.0
C97 C 0.66482 0.85565 0.13603 0.0
H98 H 0.61272 0.83965 0.04286 0.0
H99 H 0.6544 0.81636 0.18076 0.0
C100 C 0.54713 0.77467 0.12109 0.0
N101 N 0.54052 0.70383 0.10409 0.0
C102 C 0.5185 0.69175 0.06277 0.0
C103 C 0.53997 0.68364 0.14178 0.0
N104 N 0.5043 0.66478 0.07285 0.0
C105 C 0.51779 0.65969 0.12281 0.0
C106 C 0.58558 0.75882 0.23773 0.0
O107 O 0.57193 0.79282 0.11787 0.0
O108 O 0.54065 0.75006 0.11636 0.0
O109 O 0.56904 0.73804 0.20417 0.0
O110 O 0.60051 0.78067 0.20529 0.0
O111 O 0.5938 0.7299 0.09736 0.0
H112 H 0.55494 0.68616 0.18007 0.0
H113 H 0.51342 0.70253 0.02478 0.0
O114 O 0.62571 0.77228 0.09984 0.0
O115 O 0.59727 0.78478 0.01076 0.0
O116 O 0.56553 0.74219 0.0097 0.0
C117 C 0.5806 0.76401 -0.02276 0.0
H118 H 0.68445 0.86882 0.15849 0.0
H119 H 0.51203 0.64008 0.14451 0.0
Co120 Co 0.79626 0.58779 0.18858 0.0
C121 C 0.76006 0.60671 0.19921 0.0
Co122 Co 0.75329 0.55563 0.1913 0.0
C123 C 0.85391 0.61741 0.21838 0.0
C124 C 0.84145 0.63824 0.14811 0.0
N125 N 0.83206 0.61518 0.18509 0.0
N126 N 0.87647 0.64109 0.20399 0.0
C127 C 0.86863 0.65418 0.15969 0.0
H128 H 0.85314 0.60224 0.25374 0.0
H129 H 0.82922 0.64324 0.11512 0.0
C130 C 0.78873 0.53624 0.17798 0.0
N131 N 0.71727 0.52852 0.19425 0.0
C132 C 0.70468 0.50882 0.24266 0.0
C133 C 0.69781 0.52448 0.14796 0.0
N134 N 0.6783 0.49269 0.22802 0.0
C135 C 0.67391 0.50235 0.1683 0.0
C136 C 0.77257 0.57396 0.0596 0.0
O137 O 0.80676 0.56108 0.17943 0.0
O138 O 0.76405 0.52959 0.18368 0.0
O139 O 0.75187 0.55719 0.09358 0.0
O140 O 0.79425 0.5893 0.09167 0.0
O141 O 0.74265 0.58177 0.19845 0.0
H142 H 0.70071 0.53692 0.10249 0.0
H143 H 0.71466 0.50611 0.28739 0.0
O144 O 0.78499 0.61399 0.19654 0.0
O145 O 0.79808 0.58611 0.28604 0.0
O146 O 0.75541 0.55455 0.28834 0.0
C147 C 0.77725 0.56964 0.3202 0.0
H148 H 0.88165 0.67385 0.13691 0.0
H149 H 0.65468 0.49426 0.14202 0.0
Co150 Co 0.2307 0.80728 0.43437 0.0
C151 C 0.26643 0.8624 0.41893 0.0
Co152 Co 0.27371 0.81846 0.43276 0.0
C153 C 0.17277 0.77869 0.40678 0.0
C154 C 0.18568 0.81241 0.47484 0.0
N155 N 0.19486 0.79862 0.43837 0.0
N156 N 0.15026 0.77975 0.42178 0.0
C157 C 0.15841 0.80094 0.46473 0.0
H158 H 0.17332 0.76406 0.37244 0.0
H159 H 0.1981 0.82983 0.50668 0.0
C160 C 0.2387 0.76372 0.45118 0.0
N161 N 0.30968 0.82777 0.42939 0.0
C162 C 0.32139 0.81717 0.38939 0.0
C163 C 0.33017 0.84782 0.46486 0.0
N164 N 0.34842 0.82992 0.39815 0.0
C165 C 0.35395 0.84919 0.44586 0.0
C166 C 0.25514 0.81881 0.56365 0.0
O167 O 0.22048 0.77016 0.44606 0.0
O168 O 0.26335 0.78193 0.44606 0.0
O169 O 0.27594 0.8231 0.52986 0.0
O170 O 0.2332 0.81149 0.53153 0.0
O171 O 0.2839 0.85499 0.42034 0.0
H172 H 0.32798 0.86083 0.50164 0.0
H173 H 0.3103 0.80083 0.35325 0.0
O174 O 0.24158 0.84466 0.42347 0.0
O175 O 0.22853 0.80314 0.33718 0.0
O176 O 0.27103 0.81367 0.33584 0.0
C177 C 0.24921 0.80689 0.30357 0.0
H178 H 0.14552 0.80756 0.48787 0.0
H179 H 0.37374 0.86322 0.46602 0.0
H180 H 0.47609 0.18815 0.30258 0.0
H181 H 0.47651 0.18892 0.17495 0.0
H182 H 0.4146 0.21071 0.1742 0.0
H183 H 0.41405 0.21022 0.30157 0.0
H184 H 0.42852 0.15573 0.09285 0.0
H185 H 0.47474 0.2656 0.0402 0.0
H186 H 0.47849 0.25232 0.12262 0.0
H187 H 0.44757 0.25167 0.10253 0.0
C188 C 0.46274 0.19333 0.27521 0.0
C189 C 0.44498 0.19905 0.31162 0.0
C190 C 0.46306 0.19379 0.20269 0.0
C191 C 0.4458 0.20015 0.16626 0.0
C192 C 0.42832 0.2062 0.20222 0.0
H193 H 0.40752 0.20325 0.73408 0.0
H194 H 0.40781 0.20324 0.86175 0.0
C195 C 0.42794 0.20573 0.27468 0.0
C196 C 0.44469 0.19866 0.09036 0.0
H197 H 0.4559 0.23638 0.94342 0.0
C198 C 0.43462 0.1733 0.05987 0.0
C199 C 0.45257 0.22176 0.04869 0.0
C200 C 0.46416 0.24945 0.07994 0.0
C201 C 0.43185 0.17035 -0.01239 0.0
C202 C 0.43972 0.19344 0.94591 0.0
C203 C 0.44981 0.21881 -0.0236 0.0
C204 C 0.43844 0.19188 0.87002 0.0
C205 C 0.42022 0.14264 0.95644 0.0
C206 C 0.45566 0.18553 0.83383 0.0
C207 C 0.45559 0.18552 0.76138 0.0
C208 C 0.43839 0.19203 0.72463 0.0
C209 C 0.42096 0.19815 0.76128 0.0
C210 C 0.42107 0.19815 0.83383 0.0
H211 H 0.4096 0.12651 -0.00379 0.0
H212 H 0.40591 0.13977 0.9137 0.0
H213 H 0.4368 0.14036 0.93397 0.0
H214 H 0.46946 0.18108 0.86163 0.0
H215 H 0.46927 0.18078 0.73433 0.0
H216 H 0.21775 0.40214 0.55663 0.0
H217 H 0.21743 0.40207 0.42895 0.0
H218 H 0.2006 0.46737 0.42769 0.0
H219 H 0.20108 0.46786 0.55502 0.0
H220 H 0.1709 0.39369 0.35055 0.0
H221 H 0.26356 0.49061 0.28675 0.0
H222 H 0.25829 0.47406 0.37059 0.0
H223 H 0.24163 0.49269 0.35028 0.0
C224 C 0.21434 0.41672 0.52914 0.0
C225 C 0.20929 0.43491 0.56548 0.0
C226 C 0.21418 0.41663 0.45652 0.0
C227 C 0.20921 0.43485 0.41981 0.0
C228 C 0.20487 0.45348 0.45573 0.0
H229 H 0.18705 0.45976 -0.01274 0.0
H230 H 0.18734 0.45982 0.11492 0.0
C231 C 0.20499 0.45359 0.52826 0.0
C232 C 0.20641 0.43302 0.34393 0.0
H233 H 0.2335 0.46793 0.19335 0.0
C234 C 0.18462 0.40979 0.31589 0.0
C235 C 0.22434 0.45427 0.29989 0.0
C236 C 0.24842 0.47926 0.32817 0.0
C237 C 0.18004 0.40736 0.24399 0.0
C238 C 0.19799 0.4286 0.19995 0.0
C239 C 0.21978 0.45184 0.22799 0.0
C240 C 0.19519 0.42679 0.12407 0.0
C241 C 0.15593 0.38239 0.21575 0.0
C242 C 0.19932 0.40803 0.08813 0.0
C243 C 0.19919 0.40791 0.0156 0.0
C244 C 0.19512 0.42674 -0.0216 0.0
C245 C 0.19029 0.44508 0.01475 0.0
C246 C 0.19044 0.44516 0.08735 0.0
H247 H 0.14075 0.37113 0.25714 0.0
H248 H 0.14614 0.38759 0.17314 0.0
H249 H 0.16266 0.36887 0.19392 0.0
H250 H 0.20344 0.39403 0.11616 0.0
H251 H 0.20294 0.39354 -0.01118 0.0
H252 H 0.82885 0.27909 0.06567 0.0
H253 H 0.82883 0.27896 0.19299 0.0
H254 H 0.80492 0.19471 0.19476 0.0
H255 H 0.8051 0.19455 0.06712 0.0
H256 H 0.78324 0.24377 0.28062 0.0
H257 H 0.87384 0.23321 0.31939 0.0
H258 H 0.86674 0.24431 0.23771 0.0
H259 H 0.84847 0.20931 0.26159 0.0
C260 C 0.82365 0.26054 0.09309 0.0
C261 C 0.81707 0.23683 0.05688 0.0
C262 C 0.82365 0.26054 0.16549 0.0
C263 C 0.81714 0.23691 0.20211 0.0
C264 C 0.81034 0.21315 0.16647 0.0
H265 H 0.80538 0.1969 0.63584 0.0
H266 H 0.80405 0.19648 0.5086 0.0
C267 C 0.81038 0.21311 0.09396 0.0
C268 C 0.81701 0.23709 0.27804 0.0
H269 H 0.84931 0.23144 0.42044 0.0
C270 C 0.79765 0.24114 0.31152 0.0
C271 C 0.83598 0.23366 0.31692 0.0
C272 C 0.8576 0.23007 0.28228 0.0
C273 C 0.79655 0.24153 0.38419 0.0
C274 C 0.81554 0.23811 0.42304 0.0
C275 C 0.83487 0.23404 0.38956 0.0
C276 C 0.8156 0.23847 0.49896 0.0
C277 C 0.77498 0.24517 0.41891 0.0
C278 C 0.82274 0.26238 0.53428 0.0
C279 C 0.82353 0.26276 0.60677 0.0
C280 C 0.81732 0.23922 0.64412 0.0
C281 C 0.81027 0.21533 0.60821 0.0
C282 C 0.80946 0.215 0.53586 0.0
H283 H 0.75873 0.24203 0.38186 0.0
H284 H 0.76587 0.23096 0.46355 0.0
H285 H 0.78415 0.26594 0.43954 0.0
H286 H 0.82792 0.28072 0.50575 0.0
H287 H 0.82909 0.28143 0.63338 0.0
H288 H 0.62061 0.79892 0.32261 0.0
H289 H 0.62037 0.79907 0.44998 0.0
H290 H 0.55312 0.71771 0.45206 0.0
H291 H 0.55327 0.71715 0.32442 0.0
H292 H 0.574 0.79019 0.52806 0.0
H293 H 0.60804 0.71733 0.59329 0.0
H294 H 0.61393 0.73362 0.50891 0.0
H295 H 0.58117 0.70596 0.53065 0.0
C296 C 0.60596 0.78094 0.35013 0.0
C297 C 0.58683 0.75806 0.3139 0.0
C298 C 0.6059 0.78109 0.42263 0.0
C299 C 0.58685 0.75837 0.45953 0.0
C300 C 0.56818 0.73524 0.42382 0.0
H301 H 0.54553 0.72389 0.89243 0.0
H302 H 0.54578 0.72367 0.76507 0.0
C303 C 0.56824 0.73503 0.3512 0.0
C304 C 0.58525 0.75963 0.53538 0.0
H305 H 0.59214 0.73248 0.68687 0.0
C306 C 0.57806 0.7777 0.56305 0.0
C307 C 0.59051 0.74316 0.57987 0.0
C308 C 0.59906 0.72405 0.55193 0.0
C309 C 0.57564 0.77952 0.63506 0.0
C310 C 0.5809 0.76305 0.67955 0.0
C311 C 0.58809 0.74497 0.65188 0.0
C312 C 0.57933 0.76435 0.7554 0.0
C313 C 0.56708 0.79863 0.66299 0.0
C314 C 0.59802 0.78748 0.79104 0.0
C315 C 0.59797 0.78774 0.86367 0.0
C316 C 0.57935 0.76474 0.90104 0.0
C317 C 0.5602 0.74185 0.86486 0.0
C318 C 0.56026 0.74166 0.79237 0.0
H319 H 0.5581 0.80533 0.62162 0.0
H320 H 0.55222 0.78905 0.70601 0.0
H321 H 0.58497 0.81671 0.68426 0.0
H322 H 0.6131 0.80499 0.76274 0.0
H323 H 0.61295 0.80562 0.89039 0.0
H324 H 0.81891 0.60215 0.40567 0.0
H325 H 0.81843 0.60231 0.53331 0.0
H326 H 0.73706 0.53494 0.53363 0.0
H327 H 0.7371 0.53472 0.40631 0.0
H328 H 0.74574 0.58084 0.6117 0.0
H329 H 0.81941 0.54752 0.67395 0.0
H330 H 0.83063 0.57455 0.61143 0.0
H331 H 0.80308 0.54183 0.58997 0.0
C332 C 0.80104 0.58718 0.43297 0.0
C333 C 0.77799 0.56853 0.39637 0.0
C334 C 0.80087 0.58723 0.50558 0.0
C335 C 0.77778 0.5685 0.54195 0.0
C336 C 0.75502 0.54945 0.50575 0.0
H337 H 0.73114 0.54116 -0.02606 0.0
H338 H 0.73167 0.54118 0.84629 0.0
C339 C 0.75511 0.5494 0.43327 0.0
C340 C 0.77662 0.56996 0.61782 0.0
H341 H 0.80424 0.56309 0.76821 0.0
C342 C 0.7584 0.57687 0.64619 0.0
C343 C 0.79333 0.56481 0.66163 0.0
C344 C 0.81259 0.55654 0.63294 0.0
C345 C 0.75665 0.5791 0.71827 0.0
C346 C 0.77335 0.57395 0.76206 0.0
C347 C 0.79158 0.56706 0.7337 0.0
C348 C 0.77213 0.57533 0.83791 0.0
C349 C 0.73735 0.58731 0.74703 0.0
C350 C 0.79476 0.59453 0.87422 0.0
C351 C 0.79462 0.5945 0.9467 0.0
C352 C 0.77185 0.57513 -0.01655 0.0
C353 C 0.74893 0.55631 0.94674 0.0
C354 C 0.74913 0.55636 0.87413 0.0
H355 H 0.73037 0.59618 0.70599 0.0
H356 H 0.71941 0.56931 0.76895 0.0
H357 H 0.74692 0.60214 0.78975 0.0
H358 H 0.81265 0.60923 0.84643 0.0
H359 H 0.81252 0.60932 0.9738 0.0
H360 H 0.20722 0.79645 0.21736 0.0
H361 H 0.20773 0.79706 0.08963 0.0
H362 H 0.2899 0.81354 0.09068 0.0
H363 H 0.28961 0.81272 0.21799 0.0
H364 H 0.24583 0.8435 0.01182 0.0
H365 H 0.25095 0.75176 0.94855 0.0
H366 H 0.23958 0.75663 0.03229 0.0
H367 H 0.27496 0.77347 0.01228 0.0
C368 C 0.22525 0.7998 0.19035 0.0
C369 C 0.24843 0.8047 0.22737 0.0
C370 C 0.22548 0.80014 0.11769 0.0
C371 C 0.24877 0.80513 0.08155 0.0
C372 C 0.27165 0.80924 0.11819 0.0
H373 H 0.2973 0.82961 0.64952 0.0
H374 H 0.29693 0.82905 0.77726 0.0
C375 C 0.27147 0.80893 0.19075 0.0
C376 C 0.25 0.8083 0.00558 0.0
H377 H 0.25885 0.78235 0.85533 0.0
C378 C 0.2485 0.83008 -0.02266 0.0
C379 C 0.25372 0.79079 0.96168 0.0
C380 C 0.25469 0.7667 -0.00999 0.0
C381 C 0.25096 0.83506 0.90547 0.0
C382 C 0.25466 0.81754 0.86158 0.0
C383 C 0.25619 0.79577 0.88982 0.0
C384 C 0.25579 0.82066 0.78563 0.0
C385 C 0.24997 0.85913 0.8771 0.0
C386 C 0.23281 0.81634 0.74916 0.0
C387 C 0.2329 0.81659 0.67661 0.0
C388 C 0.25596 0.82101 0.63983 0.0
C389 C 0.27925 0.82612 0.67667 0.0
C390 C 0.2791 0.82582 0.74933 0.0
H391 H 0.25362 0.87404 0.91856 0.0
H392 H 0.26513 0.86924 0.83495 0.0
H393 H 0.22972 0.85234 0.85462 0.0
H394 H 0.21455 0.81192 0.77682 0.0
H395 H 0.21468 0.81264 0.64948 0.0
H396 H 0.35212 0.12031 0.48972 0.0
H397 H 0.32061 0.07182 0.47535 0.0
H398 H 0.38602 0.05609 0.50507 0.0
H399 H 0.41737 0.104 0.51972 0.0
H400 H 0.3237 0.03647 0.37364 0.0
H401 H 0.32812 1.00455 0.64457 0.0
H402 H 0.33872 0.03903 0.62159 0.0
H403 H 0.36089 0.02581 0.60727 0.0
C404 C 0.35969 0.10645 0.49382 0.0
C405 C 0.38723 0.11601 0.50623 0.0
C406 C 0.3417 0.07881 0.48541 0.0
C407 C 0.35095 0.06037 0.49016 0.0
C408 C 0.37838 0.06992 0.50253 0.0
H409 H 0.31769 0.90434 0.40298 0.0
H410 H 0.33361 0.95223 0.41695 0.0
C411 C 0.3963 0.09738 0.51059 0.0
C412 C 0.33248 0.03113 0.48002 0.0
H413 H 0.31298 0.9702 0.55666 0.0
C414 C 0.32079 0.02193 0.41405 0.0
C415 C 0.32865 1.01222 0.53295 0.0
C416 C 0.33953 0.02087 0.6058 0.0
C417 C 0.30683 0.9943 0.39847 0.0
C418 C 0.30455 0.97562 0.45013 0.0
C419 C 0.31493 0.98469 0.51709 0.0
C420 C 0.29397 0.9469 0.43406 0.0
C421 C 0.29576 0.98516 0.32608 0.0
C422 C 0.2663 0.92815 0.43797 0.0
C423 C 0.25703 0.90061 0.42997 0.0
C424 C 0.27538 0.89151 0.41834 0.0
C425 C 0.30299 0.9106 0.412 0.0
C426 C 0.31217 0.93799 0.41994 0.0
H427 H 0.29826 1.00209 0.29238 0.0
H428 H 0.30625 0.97552 0.3012 0.0
H429 H 0.27401 0.96981 0.32924 0.0
H430 H 0.25201 0.93475 0.44921 0.0
H431 H 0.23566 0.88643 0.43536 0.0
H432 H 0.40016 0.27828 0.57814 0.0
H433 H 0.38182 0.30612 0.62173 0.0
H434 H 0.30111 0.23907 0.59815 0.0
H435 H 0.31917 0.21131 0.55508 0.0
H436 H 0.34005 0.31516 0.54437 0.0
H437 H 0.30795 0.26727 0.80619 0.0
H438 H 0.33403 0.26622 0.75573 0.0
H439 H 0.29918 0.24443 0.73413 0.0
C440 C 0.37854 0.26946 0.58299 0.0
C441 C 0.3611 0.24262 0.56302 0.0
C442 C 0.36811 0.2854 0.60744 0.0
C443 C 0.34014 0.27457 0.61339 0.0
C444 C 0.32277 0.24774 0.59427 0.0
H445 H 0.218 0.30862 0.73222 0.0
H446 H 0.24702 0.29099 0.69717 0.0
C447 C 0.33311 0.23196 0.56926 0.0
C448 C 0.32865 0.29111 0.63818 0.0
H449 H 0.28992 0.29452 0.76834 0.0
C450 C 0.32943 0.31104 0.5938 0.0
C451 C 0.31481 0.28556 0.70255 0.0
C452 C 0.31403 0.26486 0.75286 0.0
C453 C 0.31546 0.32462 0.61055 0.0
C454 C 0.30081 0.31839 0.67402 0.0
C455 C 0.30104 0.29922 0.71958 0.0
C456 C 0.28347 0.32992 0.69227 0.0
C457 C 0.31536 0.34443 0.5586 0.0
C458 C 0.29422 0.35776 0.70078 0.0
C459 C 0.27752 0.36795 0.72066 0.0
C460 C 0.24989 0.35042 0.73333 0.0
C461 C 0.23924 0.32263 0.72396 0.0
C462 C 0.25582 0.31252 0.70369 0.0
H463 H 0.32255 0.34251 0.50626 0.0
H464 H 0.2948 0.34158 0.55313 0.0
H465 H 0.32894 0.36521 0.57736 0.0
H466 H 0.31558 0.37155 0.69357 0.0
H467 H 0.28635 0.38941 0.72822 0.0
H468 H 0.89305 0.22402 0.83038 0.0
H469 H 0.94175 0.24138 0.81808 0.0
H470 H 0.95702 0.32228 0.8467 0.0
H471 H 0.90893 0.30533 0.8595 0.0
H472 H 0.97774 0.27964 0.71768 0.0
H473 H 1.008 0.31669 -0.01254 0.0
H474 H 0.97357 0.29281 0.96423 0.0
H475 H 0.98709 0.32825 0.94864 0.0
C476 C 0.90685 0.24547 0.83484 0.0
C477 C 0.8971 0.26327 0.84635 0.0
C478 C 0.93462 0.25534 0.82757 0.0
C479 C 0.953 0.28307 0.83254 0.0
C480 C 0.94326 0.30076 0.84411 0.0
H481 H 0.11095 0.40737 0.75737 0.0
H482 H 0.06288 0.37578 0.77228 0.0
C483 C 0.91568 0.291 0.85111 0.0
C484 C 0.98239 0.29412 0.82319 0.0
H485 H 0.04287 0.3364 0.89985 0.0
C486 C 0.99204 0.29154 0.75795 0.0
C487 C 1.00099 0.30955 0.87592 0.0
C488 C 0.9919 0.31179 0.94823 0.0
C489 C 1.01981 0.30548 0.74275 0.0
C490 C 0.03818 0.32223 0.79412 0.0
C491 C 1.02864 0.32364 0.86043 0.0
C492 C 0.06709 0.34047 0.77848 0.0
C493 C 1.02937 0.30347 0.67092 0.0
C494 C 0.08532 0.33093 0.77607 0.0
C495 C 0.113 0.34901 0.76768 0.0
C496 C 0.12277 0.37686 0.76169 0.0
C497 C 0.1042 0.38609 0.76188 0.0
C498 C 0.07669 0.36809 0.77045 0.0
H499 H 1.01243 0.29008 0.63608 0.0
H500 H 0.04061 0.32381 0.64666 0.0
H501 H 0.04346 0.29557 0.67514 0.0
H502 H 0.07823 0.30966 0.78264 0.0
H503 H 0.12676 0.34126 0.76796 0.0
H504 H 0.62187 0.88666 0.05787 0.0
H505 H 0.63916 0.93311 0.01575 0.0
H506 H 0.72025 0.94683 0.0227 0.0
H507 H 0.70324 0.90077 0.06437 0.0
H508 H 0.68439 0.98418 0.09042 0.0
H509 H 0.70653 0.96839 0.81794 0.0
H510 H 0.68153 0.94142 0.87171 0.0
H511 H 0.71673 0.95343 0.88548 0.0
C512 C 0.64333 0.89955 0.04977 0.0
C513 C 0.6612 0.8901 0.06466 0.0
C514 C 0.65317 0.92606 0.02616 0.0
C515 C 0.68095 0.9433 0.01601 0.0
C516 C 0.69873 0.93379 0.03004 0.0
H517 H 0.80061 0.09897 0.8827 0.0
H518 H 0.77204 0.05233 0.91992 0.0
C519 C 0.68899 0.90752 0.05422 0.0
C520 C 0.69188 0.97145 -0.0083 0.0
H521 H 0.72625 1.01364 0.85611 0.0
C522 C 0.69317 0.99068 0.03884 0.0
C523 C 0.70335 0.97974 0.92453 0.0
C524 C 0.70188 0.9597 0.87156 0.0
C525 C 0.70694 1.01829 0.02169 0.0
C526 C 0.71926 0.0267 0.95517 0.0
C527 C 0.71691 1.00723 0.90716 0.0
C528 C 0.73644 0.0556 0.93579 0.0
C529 C 0.70941 0.03829 0.07612 0.0
C530 C 0.72603 0.07315 0.93277 0.0
C531 C 0.74247 0.10004 0.91156 0.0
C532 C 0.76948 0.1097 0.89213 0.0
C533 C 0.77982 0.0921 0.89619 0.0
C534 C 0.76351 0.06542 0.9177 0.0
H535 H 0.70384 0.02905 0.12905 0.0
H536 H 0.73031 0.05567 0.07787 0.0
H537 H 0.69571 0.04603 0.06252 0.0
H538 H 0.70508 0.06593 0.94527 0.0
H539 H 0.73386 0.11301 0.90824 0.0
H540 H 0.78941 0.66015 0.16316 0.0
H541 H 0.77253 0.69163 0.14804 0.0
H542 H 0.69357 0.62994 0.21555 0.0
H543 H 0.71008 0.5984 0.23019 0.0
H544 H 0.7264 0.68001 0.05533 0.0
H545 H 0.7106 0.69893 0.33052 0.0
H546 H 0.73358 0.68742 0.30616 0.0
H547 H 0.69793 0.66414 0.30943 0.0
C548 C 0.76858 0.65346 0.17594 0.0
C549 C 0.75107 0.62679 0.19787 0.0
C550 C 0.75897 0.67143 0.16704 0.0
C551 C 0.73189 0.66314 0.18121 0.0
C552 C 0.71463 0.63682 0.20518 0.0
H553 H 0.61143 0.69836 0.06169 0.0
H554 H 0.64317 0.68207 0.07724 0.0
C555 C 0.72409 0.61879 0.21328 0.0
C556 C 0.72086 0.68109 0.16625 0.0
H557 H 0.68821 0.71032 0.24277 0.0
C558 C 0.71847 0.68707 0.09631 0.0
C559 C 0.71064 0.69032 0.21985 0.0
C560 C 0.71346 0.68511 0.29583 0.0
C561 C 0.70482 0.70085 0.07842 0.0
C562 C 0.69337 0.70882 0.13183 0.0
C563 C 0.69698 0.70409 0.20194 0.0
C564 C 0.67552 0.71987 0.11589 0.0
C565 C 0.70203 0.70618 0.00252 0.0
C566 C 0.68337 0.74663 0.13186 0.0
C567 C 0.66534 0.75614 0.12226 0.0
C568 C 0.63904 0.73882 0.09788 0.0
C569 C 0.63154 0.7122 0.08051 0.0
C570 C 0.64965 0.70287 0.0892 0.0
H571 H 0.71661 0.70398 0.96902 0.0
H572 H 0.68134 0.69159 -0.01536 0.0
H573 H 0.70514 0.72676 -0.00464 0.0
H574 H 0.70323 0.75998 0.15293 0.0
H575 H 0.67162 0.77667 0.13663 0.0
H576 H 0.90034 0.61202 0.23913 0.0
H577 H 0.94679 0.62981 0.28134 0.0
H578 H 0.95954 0.71042 0.27191 0.0
H579 H 0.91347 0.69291 0.23032 0.0
H580 H 0.99731 0.67342 0.20754 0.0
H581 H 0.98165 0.69937 0.47566 0.0
H582 H 0.95444 0.67443 0.42309 0.0
H583 H 0.9673 0.70965 0.40685 0.0
C584 C 0.91301 0.63349 0.24676 0.0
C585 C 0.90328 0.65108 0.23122 0.0
C586 C 0.93953 0.64361 0.27043 0.0
C587 C 0.95648 0.6714 0.28002 0.0
C588 C 0.94671 0.6889 0.26523 0.0
H589 H 0.11217 0.79349 0.39955 0.0
H590 H 0.06543 0.76397 0.36518 0.0
C591 C 0.92043 0.67887 0.24101 0.0
C592 C 0.98466 0.68262 0.30416 0.0
H593 H 1.02705 0.71929 0.43612 0.0
C594 C 1.00387 0.68307 0.25796 0.0
C595 C 0.99302 0.69517 0.36986 0.0
C596 C 0.97304 0.69452 0.42215 0.0
C597 C 0.03153 0.69713 0.27428 0.0
C598 C 0.04001 0.71062 0.33903 0.0
C599 C 1.02057 0.70906 0.38638 0.0
C600 C 0.06893 0.72828 0.35682 0.0
C601 C 0.05152 0.69865 0.22068 0.0
C602 C 0.08663 0.71812 0.36311 0.0
C603 C 0.11357 0.7351 0.38273 0.0
C604 C 0.12312 0.76241 0.39724 0.0
C605 C 0.10538 0.77248 0.38992 0.0
C606 C 0.07864 0.75563 0.37002 0.0
H607 H 0.04216 0.69188 0.1684 0.0
H608 H 0.06877 0.71953 0.21591 0.0
H609 H 0.05953 0.68548 0.23744 0.0
H610 H 0.07948 0.69698 0.35437 0.0
H611 H 0.12667 0.7267 0.38863 0.0
H612 H 0.47229 0.29034 0.53395 0.0
H613 H 0.50663 0.3368 0.50451 0.0
H614 H 0.56265 0.31001 0.45325 0.0
H615 H 0.52928 0.26428 0.48609 0.0
H616 H 0.58862 0.35632 0.51289 0.0
H617 H 0.52316 0.3627 0.30834 0.0
H618 H 0.5097 0.35798 0.39507 0.0
H619 H 0.51383 0.33195 0.35517 0.0
C620 C 0.49209 0.29452 0.51741 0.0
C621 C 0.49796 0.27359 0.51177 0.0
C622 C 0.51162 0.32103 0.49992 0.0
C623 C 0.53704 0.32686 0.47465 0.0
C624 C 0.54321 0.30612 0.47225 0.0
H625 H 0.6398 0.44524 0.17736 0.0
H626 H 0.60597 0.40657 0.24428 0.0
C627 C 0.52401 0.27987 0.49103 0.0
C628 C 0.55701 0.354 0.4472 0.0
H629 H 0.56644 0.40023 0.32094 0.0
C630 C 0.58375 0.36601 0.4711 0.0
C631 C 0.55073 0.36654 0.39215 0.0
C632 C 0.52289 0.35406 0.36064 0.0
C633 C 0.60454 0.38943 0.4397 0.0
C634 C 0.59824 0.40199 0.38474 0.0
C635 C 0.5713 0.39064 0.363 0.0
C636 C 0.61932 0.42562 0.34524 0.0
C637 C 0.63316 0.39948 0.46331 0.0
C638 C 0.6382 0.44929 0.37936 0.0
C639 C 0.65801 0.47111 0.34104 0.0
C640 C 0.6587 0.46997 0.26786 0.0
C641 C 0.63955 0.44657 0.23371 0.0
C642 C 0.62022 0.42455 0.27199 0.0
H643 H 0.63521 0.38354 0.49099 0.0
H644 H 0.64736 0.40679 0.41842 0.0
H645 H 0.6392 0.41639 0.50018 0.0
H646 H 0.63749 0.45103 0.43546 0.0
H647 H 0.67235 0.48916 0.36829 0.0
H648 H 0.19122 0.52034 0.59947 0.0
H649 H 0.19715 0.56063 0.53821 0.0
H650 H 0.20184 0.59813 0.73652 0.0
H651 H 0.19455 0.5574 0.79721 0.0
H652 H 0.17143 0.60666 0.65328 0.0
H653 H 0.26417 0.63031 0.50681 0.0
H654 H 0.23633 0.59763 0.4871 0.0
H655 H 0.25035 0.60472 0.57384 0.0
C656 C 0.19375 0.53734 0.62965 0.0
C657 C 0.19253 0.5359 0.70293 0.0
C658 C 0.19726 0.5604 0.59474 0.0
C659 C 0.20045 0.58272 0.63263 0.0
C660 C 0.19941 0.58124 0.70596 0.0
H661 H 0.27204 0.74727 0.50437 0.0
H662 H 0.26057 0.70224 0.54237 0.0
C663 C 0.19529 0.55801 0.74068 0.0
C664 C 0.20428 0.60749 0.5967 0.0
H665 H 0.24435 0.65684 0.48044 0.0
C666 C 0.18741 0.61765 0.61551 0.0
C667 C 0.22521 0.62195 0.54762 0.0
C668 C 0.24521 0.61327 0.52813 0.0
C669 C 0.19131 0.64215 0.5884 0.0
C670 C 0.21198 0.6564 0.53852 0.0
C671 C 0.22836 0.64585 0.5182 0.0
C672 C 0.21864 0.68344 0.5116 0.0
C673 C 0.17406 0.65303 0.6163 0.0
C674 C 0.19904 0.688 0.48031 0.0
C675 C 0.20546 0.71404 0.45981 0.0
C676 C 0.23178 0.7358 0.46841 0.0
C677 C 0.25158 0.73095 0.49683 0.0
C678 C 0.24504 0.70514 0.51856 0.0
H679 H 0.16449 0.6435 0.66697 0.0
H680 H 0.1861 0.67515 0.62383 0.0
H681 H 0.15769 0.64868 0.57855 0.0
H682 H 0.17873 0.6715 0.4723 0.0
H683 H 0.18985 0.71713 0.43739 0.0
H684 H 0.72237 0.17371 0.85887 0.0
H685 H 0.67605 0.16162 0.82841 0.0
H686 H 0.70325 0.24475 0.77796 0.0
H687 H 0.74887 0.25707 0.81153 0.0
H688 H 0.65646 0.22363 0.83853 0.0
H689 H 0.65109 0.15372 0.6315 0.0
H690 H 0.65562 0.14441 0.7179 0.0
H691 H 0.68171 0.175 0.67855 0.0
C692 C 0.71833 0.18941 0.84215 0.0
C693 C 0.73934 0.2163 0.83701 0.0
C694 C 0.6919 0.18245 0.82415 0.0
C695 C 0.68623 0.20215 0.799 0.0
C696 C 0.70704 0.22912 0.79688 0.0
H697 H 0.56889 0.18883 0.50335 0.0
H698 H 0.60735 0.19329 0.56988 0.0
C699 C 0.73322 0.23614 0.81603 0.0
C700 C 0.65915 0.19506 0.77164 0.0
H701 H 0.61339 0.15908 0.64471 0.0
C702 C 0.64694 0.2094 0.79636 0.0
C703 C 0.64685 0.17667 0.71611 0.0
C704 C 0.65956 0.16174 0.68392 0.0
C705 C 0.6235 0.20676 0.7654 0.0
C706 C 0.61121 0.18836 0.70989 0.0
C707 C 0.62278 0.17318 0.68722 0.0
C708 C 0.58765 0.18596 0.6707 0.0
C709 C 0.61312 0.22483 0.7901 0.0
C710 C 0.56368 0.18037 0.70491 0.0
C711 C 0.54192 0.17849 0.66686 0.0
C712 C 0.54346 0.18133 0.5938 0.0
C713 C 0.5672 0.18642 0.55958 0.0
C714 C 0.58912 0.18892 0.59763 0.0
H715 H 0.62885 0.2426 0.81865 0.0
H716 H 0.606 0.23212 0.74564 0.0
H717 H 0.59598 0.21338 0.82645 0.0
H718 H 0.56166 0.17718 0.76087 0.0
H719 H 0.52363 0.17413 0.69417 0.0
H720 H 0.46685 0.67357 0.00986 0.0
H721 H 0.42553 0.64028 0.95167 0.0
H722 H 0.44512 0.57845 -0.0025 0.0
H723 H 0.48684 0.6117 0.05371 0.0
H724 H 0.42653 0.57633 0.86035 0.0
H725 H 0.35852 0.58291 0.05556 0.0
H726 H 0.38251 0.61455 0.01669 0.0
H727 H 0.39412 0.59675 0.07086 0.0
C728 C 0.46254 0.65298 0.00703 0.0
C729 C 0.48013 0.64534 0.03716 0.0
C730 C 0.43877 0.6339 -0.0257 0.0
C731 C 0.43204 0.6068 0.97129 0.0
C732 C 0.44982 0.59922 -0.0003 0.0
H733 H 0.2937 0.45797 0.82487 0.0
H734 H 0.33859 0.49231 0.86446 0.0
C735 C 0.47358 0.61825 0.03242 0.0
C736 C 0.4063 0.58624 0.9394 0.0
H737 H 0.33795 0.55634 0.95581 0.0
C738 C 0.40713 0.57189 0.8812 0.0
C739 C 0.38105 0.58043 0.96695 0.0
C740 C 0.37886 0.59426 0.03133 0.0
C741 C 0.38334 0.55222 0.84895 0.0
C742 C 0.35811 0.54652 0.87637 0.0
C743 C 0.35732 0.56083 0.93467 0.0
C744 C 0.33212 0.52587 0.84574 0.0
C745 C 0.38539 0.53811 0.78505 0.0
C746 C 0.31361 0.5333 0.82198 0.0
C747 C 0.28797 0.51378 0.79981 0.0
C748 C 0.2802 0.48632 0.80121 0.0
C749 C 0.29909 0.47894 0.82277 0.0
C750 C 0.3248 0.49856 0.84517 0.0
H751 H 0.40567 0.54939 0.7605 0.0
H752 H 0.38179 0.5179 0.80034 0.0
H753 H 0.37 0.5354 0.74567 0.0
H754 H 0.31881 0.55424 0.82205 0.0
H755 H 0.27397 0.52021 0.78337 0.0
H756 H 0.75574 0.48184 0.18696 0.0
H757 H 0.7653 0.44695 0.14948 0.0
H758 H 0.84667 0.50771 0.09664 0.0
H759 H 0.8374 0.54287 0.13529 0.0
H760 H 0.77901 0.44233 0.01593 0.0
H761 H 0.85844 0.45208 0.19924 0.0
H762 H 0.83774 0.46694 0.2161 0.0
H763 H 0.86582 0.48304 0.15685 0.0
C764 C 0.77584 0.48782 0.16855 0.0
C765 C 0.7958 0.51518 0.16392 0.0
C766 C 0.78126 0.46781 0.1471 0.0
C767 C 0.80673 0.47466 0.12067 0.0
C768 C 0.82702 0.5019 0.11811 0.0
H769 H 0.87052 0.38784 0.89924 0.0
H770 H 0.86318 0.42116 0.95856 0.0
C771 C 0.82165 0.52199 0.13996 0.0
C772 C 0.81113 0.45346 0.09009 0.0
H773 H 0.8504 0.42432 0.09975 0.0
C774 C 0.79447 0.43824 0.03467 0.0
C775 C 0.83141 0.44826 0.11432 0.0
C776 C 0.84924 0.46326 0.17531 0.0
C777 C 0.79782 0.41831 0.00198 0.0
C778 C 0.81812 0.41312 0.02608 0.0
C779 C 0.83479 0.4283 0.08154 0.0
C780 C 0.82276 0.39251 -0.00709 0.0
C781 C 0.78008 0.40348 0.94065 0.0
C782 C 0.80261 0.36523 -0.00649 0.0
C783 C 0.80665 0.34611 0.95905 0.0
C784 C 0.83097 0.3539 0.92351 0.0
C785 C 0.85135 0.38117 0.92476 0.0
C786 C 0.8473 0.40024 0.95922 0.0
H787 H 0.77004 0.41413 0.91847 0.0
H788 H 0.79192 0.40089 0.89868 0.0
H789 H 0.76414 0.38319 0.95806 0.0
H790 H 0.78366 0.35877 0.02014 0.0
H791 H 0.7905 0.32536 0.95904 0.0
H792 H 0.49265 0.74083 0.12356 0.0
H793 H 0.45803 0.75114 0.15978 0.0
H794 H 0.51893 0.83422 0.18999 0.0
H795 H 0.55379 0.82418 0.15282 0.0
H796 H 0.45582 0.77026 0.28982 0.0
H797 H 0.46071 0.84067 0.08276 0.0
H798 H 0.47542 0.8195 0.07229 0.0
H799 H 0.49263 0.84995 0.12221 0.0
C800 C 0.4987 0.76142 0.13683 0.0
C801 C 0.52602 0.78169 0.13545 0.0
C802 C 0.47885 0.76725 0.15757 0.0
C803 C 0.48585 0.79347 0.17706 0.0
C804 C 0.51301 0.81395 0.17391 0.0
H805 H 0.40149 0.86506 0.37445 0.0
H806 H 0.43416 0.85553 0.3193 0.0
C807 C 0.53292 0.80814 0.15295 0.0
C808 C 0.46498 0.79877 0.20602 0.0
H809 H 0.43476 0.83662 0.18385 0.0
C810 C 0.45106 0.78461 0.26634 0.0
C811 C 0.45892 0.81761 0.17549 0.0
C812 C 0.47251 0.83266 0.10925 0.0
C813 C 0.4316 0.78912 0.29778 0.0
C814 C 0.42555 0.80799 0.26737 0.0
C815 C 0.43941 0.82213 0.20694 0.0
C816 C 0.40534 0.81374 0.29864 0.0
C817 C 0.41821 0.77419 0.36437 0.0
C818 C 0.37818 0.79349 0.3044 0.0
C819 C 0.35945 0.7988 0.3365 0.0
C820 C 0.36751 0.82453 0.36323 0.0
C821 C 0.39465 0.8449 0.35578 0.0
C822 C 0.41333 0.83957 0.32368 0.0
H823 H 0.42962 0.76551 0.38968 0.0
H824 H 0.41619 0.78768 0.40214 0.0
H825 H 0.39769 0.7574 0.35221 0.0
H826 H 0.37151 0.77351 0.28442 0.0
H827 H 0.3388 0.78262 0.34153 0.0
loop_
_geom_bond_atom_site_label_1
_geom_bond_atom_site_label_2
_geom_bond_distance
_geom_bond_site_symmetry_2
_ccdc_geom_bond_type
Co0 N5 2.057 . S
Co0 O17 2.021 . S
Co0 O20 2.062 . S
Co0 O24 2.117 . S
Co0 O25 2.020 . S
C1 O21 1.259 . S
C1 O24 1.258 . S
Co2 N11 2.057 . S
Co2 O18 2.117 . S
Co2 O19 2.020 . S
Co2 O21 2.021 . S
Co2 O26 2.062 . S
C3 N5 1.316 . S
C3 N6 1.347 . S
C3 H8 0.931 . S
C4 N5 1.375 . S
C4 C7 1.350 . S
C4 H9 0.930 . S
N5 Co0 2.057 . S
N5 C3 1.316 . S
N5 C4 1.375 . S
N6 C3 1.347 . S
N6 C7 1.373 . S
C7 C4 1.350 . S
C7 N6 1.373 . S
C7 H28 0.931 . S
H8 C3 0.931 . S
H9 C4 0.930 . S
C10 O17 1.259 . S
C10 O18 1.258 . S
N11 Co2 2.057 . S
N11 C12 1.316 . S
N11 C13 1.375 . S
C12 N11 1.316 . S
C12 N14 1.347 . S
C12 H23 0.931 . S
C13 N11 1.375 . S
C13 C15 1.350 . S
C13 H22 0.930 . S
N14 C12 1.347 . S
N14 C15 1.373 . S
C15 C13 1.350 . S
C15 N14 1.373 . S
C15 H29 0.931 . S
C16 O19 1.256 . S
C16 O20 1.255 . S
O17 Co0 2.021 . S
O17 C10 1.259 . S
O18 Co2 2.117 . S
O18 C10 1.258 . S
O19 Co2 2.020 . S
O19 C16 1.256 . S
O20 Co0 2.062 . S
O20 C16 1.255 . S
O21 C1 1.259 . S
O21 Co2 2.021 . S
H22 C13 0.930 . S
H23 C12 0.931 . S
O24 Co0 2.117 . S
O24 C1 1.258 . S
O25 Co0 2.020 . S
O25 C27 1.256 . S
O26 Co2 2.062 . S
O26 C27 1.255 . S
C27 O25 1.256 . S
C27 O26 1.255 . S
H28 C7 0.931 . S
H29 C15 0.931 . S
Co30 N35 2.057 . S
Co30 O47 2.021 . S
Co30 O50 2.062 . S
Co30 O54 2.117 . S
Co30 O55 2.020 . S
C31 O51 1.259 . S
C31 O54 1.258 . S
Co32 N41 2.057 . S
Co32 O48 2.117 . S
Co32 O49 2.020 . S
Co32 O51 2.021 . S
Co32 O56 2.062 . S
C33 N35 1.316 . S
C33 N36 1.347 . S
C33 H38 0.931 . S
C34 N35 1.375 . S
C34 C37 1.350 . S
C34 H39 0.930 . S
N35 Co30 2.057 . S
N35 C33 1.316 . S
N35 C34 1.375 . S
N36 C33 1.347 . S
N36 C37 1.373 . S
C37 C34 1.350 . S
C37 N36 1.373 . S
C37 H58 0.931 . S
H38 C33 0.931 . S
H39 C34 0.930 . S
C40 O47 1.259 . S
C40 O48 1.258 . S
N41 Co32 2.057 . S
N41 C42 1.316 . S
N41 C43 1.375 . S
C42 N41 1.316 . S
C42 N44 1.347 . S
C42 H53 0.931 . S
C43 N41 1.375 . S
C43 C45 1.350 . S
C43 H52 0.930 . S
N44 C42 1.347 . S
N44 C45 1.373 . S
C45 C43 1.350 . S
C45 N44 1.373 . S
C45 H59 0.931 . S
C46 O49 1.256 . S
C46 O50 1.255 . S
O47 Co30 2.021 . S
O47 C40 1.259 . S
O48 Co32 2.117 . S
O48 C40 1.258 . S
O49 Co32 2.020 . S
O49 C46 1.256 . S
O50 Co30 2.062 . S
O50 C46 1.255 . S
O51 C31 1.259 . S
O51 Co32 2.021 . S
H52 C43 0.930 . S
H53 C42 0.931 . S
O54 Co30 2.117 . S
O54 C31 1.258 . S
O55 Co30 2.020 . S
O55 C57 1.256 . S
O56 Co32 2.062 . S
O56 C57 1.255 . S
C57 O55 1.256 . S
C57 O56 1.255 . S
H58 C37 0.931 . S
H59 C45 0.931 . S
Co60 N65 2.057 . S
Co60 O77 2.021 . S
Co60 O80 2.062 . S
Co60 O84 2.117 . S
Co60 O85 2.020 1_556 S
C61 O81 1.259 . S
C61 O84 1.258 . S
Co62 N71 2.057 . S
Co62 O78 2.117 . S
Co62 O79 2.020 . S
Co62 O81 2.021 . S
Co62 O86 2.062 1_556 S
C63 N65 1.316 . S
C63 N66 1.347 . S
C63 H68 0.931 . S
C64 N65 1.375 . S
C64 C67 1.350 . S
C64 H69 0.930 . S
N65 Co60 2.057 . S
N65 C63 1.316 . S
N65 C64 1.375 . S
N66 C63 1.347 . S
N66 C67 1.373 . S
C67 C64 1.350 . S
C67 N66 1.373 . S
C67 H88 0.931 . S
H68 C63 0.931 . S
H69 C64 0.930 . S
C70 O77 1.259 . S
C70 O78 1.258 . S
N71 Co62 2.057 . S
N71 C72 1.316 . S
N71 C73 1.375 . S
C72 N71 1.316 . S
C72 N74 1.345 1_556 S
C72 H83 0.931 . S
C73 N71 1.375 . S
C73 C75 1.350 . S
C73 H82 0.930 . S
N74 C72 1.345 1_554 S
N74 C75 1.371 1_554 S
C75 C73 1.350 . S
C75 N74 1.371 1_556 S
C75 H89 0.931 . S
C76 O79 1.256 . S
C76 O80 1.255 . S
O77 Co60 2.021 . S
O77 C70 1.259 . S
O78 Co62 2.117 . S
O78 C70 1.258 . S
O79 Co62 2.020 . S
O79 C76 1.256 . S
O80 Co60 2.062 . S
O80 C76 1.255 . S
O81 C61 1.259 . S
O81 Co62 2.021 . S
H82 C73 0.930 . S
H83 C72 0.931 . S
O84 Co60 2.117 . S
O84 C61 1.258 . S
O85 Co60 2.020 1_554 S
O85 C87 1.256 . S
O86 Co62 2.062 1_554 S
O86 C87 1.255 . S
C87 O85 1.256 . S
C87 O86 1.255 . S
H88 C67 0.931 . S
H89 C75 0.931 . S
Co90 N95 2.057 . S
Co90 O107 2.021 . S
Co90 O110 2.062 . S
Co90 O114 2.117 . S
Co90 O115 2.020 1_554 S
C91 O111 1.259 . S
C91 O114 1.258 . S
Co92 N101 2.057 . S
Co92 O108 2.117 . S
Co92 O109 2.020 . S
Co92 O111 2.021 . S
Co92 O116 2.062 1_554 S
C93 N95 1.316 . S
C93 N96 1.347 . S
C93 H98 0.931 . S
C94 N95 1.375 . S
C94 C97 1.350 . S
C94 H99 0.930 . S
N95 Co90 2.057 . S
N95 C93 1.316 . S
N95 C94 1.375 . S
N96 C93 1.347 . S
N96 C97 1.373 . S
C97 C94 1.350 . S
C97 N96 1.373 . S
C97 H118 0.931 . S
H98 C93 0.931 . S
H99 C94 0.930 . S
C100 O107 1.259 . S
C100 O108 1.258 . S
N101 Co92 2.057 . S
N101 C102 1.316 . S
N101 C103 1.375 . S
C102 N101 1.316 . S
C102 N104 1.347 . S
C102 H113 0.931 . S
C103 N101 1.375 . S
C103 C105 1.350 . S
C103 H112 0.930 . S
N104 C102 1.347 . S
N104 C105 1.373 . S
C105 C103 1.350 . S
C105 N104 1.373 . S
C105 H119 0.931 . S
C106 O109 1.256 . S
C106 O110 1.255 . S
O107 Co90 2.021 . S
O107 C100 1.259 . S
O108 Co92 2.117 . S
O108 C100 1.258 . S
O109 Co92 2.020 . S
O109 C106 1.256 . S
O110 Co90 2.062 . S
O110 C106 1.255 . S
O111 C91 1.259 . S
O111 Co92 2.021 . S
H112 C103 0.930 . S
H113 C102 0.931 . S
O114 Co90 2.117 . S
O114 C91 1.258 . S
O115 Co90 2.020 1_556 S
O115 C117 1.256 . S
O116 Co92 2.062 1_556 S
O116 C117 1.255 . S
C117 O115 1.256 . S
C117 O116 1.255 . S
H118 C97 0.931 . S
H119 C105 0.931 . S
Co120 N125 2.057 . S
Co120 O137 2.021 . S
Co120 O140 2.062 . S
Co120 O144 2.117 . S
Co120 O145 2.020 . S
C121 O141 1.259 . S
C121 O144 1.258 . S
Co122 N131 2.057 . S
Co122 O138 2.117 . S
Co122 O139 2.020 . S
Co122 O141 2.021 . S
Co122 O146 2.062 . S
C123 N125 1.316 . S
C123 N126 1.347 . S
C123 H128 0.931 . S
C124 N125 1.375 . S
C124 C127 1.350 . S
C124 H129 0.930 . S
N125 Co120 2.057 . S
N125 C123 1.316 . S
N125 C124 1.375 . S
N126 C123 1.347 . S
N126 C127 1.373 . S
C127 C124 1.350 . S
C127 N126 1.373 . S
C127 H148 0.931 . S
H128 C123 0.931 . S
H129 C124 0.930 . S
C130 O137 1.259 . S
C130 O138 1.258 . S
N131 Co122 2.057 . S
N131 C132 1.316 . S
N131 C133 1.375 . S
C132 N131 1.316 . S
C132 N134 1.347 . S
C132 H143 0.931 . S
C133 N131 1.375 . S
C133 C135 1.350 . S
C133 H142 0.930 . S
N134 C132 1.347 . S
N134 C135 1.373 . S
C135 C133 1.350 . S
C135 N134 1.373 . S
C135 H149 0.931 . S
C136 O139 1.256 . S
C136 O140 1.255 . S
O137 Co120 2.021 . S
O137 C130 1.259 . S
O138 Co122 2.117 . S
O138 C130 1.258 . S
O139 Co122 2.020 . S
O139 C136 1.256 . S
O140 Co120 2.062 . S
O140 C136 1.255 . S
O141 C121 1.259 . S
O141 Co122 2.021 . S
H142 C133 0.930 . S
H143 C132 0.931 . S
O144 Co120 2.117 . S
O144 C121 1.258 . S
O145 Co120 2.020 . S
O145 C147 1.256 . S
O146 Co122 2.062 . S
O146 C147 1.255 . S
C147 O145 1.256 . S
C147 O146 1.255 . S
H148 C127 0.931 . S
H149 C135 0.931 . S
Co150 N155 2.057 . S
Co150 O167 2.021 . S
Co150 O170 2.062 . S
Co150 O174 2.117 . S
Co150 O175 2.020 . S
C151 O171 1.259 . S
C151 O174 1.258 . S
Co152 N161 2.057 . S
Co152 O168 2.117 . S
Co152 O169 2.020 . S
Co152 O171 2.021 . S
Co152 O176 2.062 . S
C153 N155 1.316 . S
C153 N156 1.347 . S
C153 H158 0.931 . S
C154 N155 1.375 . S
C154 C157 1.350 . S
C154 H159 0.930 . S
N155 Co150 2.057 . S
N155 C153 1.316 . S
N155 C154 1.375 . S
N156 C153 1.347 . S
N156 C157 1.373 . S
C157 C154 1.350 . S
C157 N156 1.373 . S
C157 H178 0.931 . S
H158 C153 0.931 . S
H159 C154 0.930 . S
C160 O167 1.259 . S
C160 O168 1.258 . S
N161 Co152 2.057 . S
N161 C162 1.316 . S
N161 C163 1.375 . S
C162 N161 1.316 . S
C162 N164 1.347 . S
C162 H173 0.931 . S
C163 N161 1.375 . S
C163 C165 1.350 . S
C163 H172 0.930 . S
N164 C162 1.347 . S
N164 C165 1.373 . S
C165 C163 1.350 . S
C165 N164 1.373 . S
C165 H179 0.931 . S
C166 O169 1.256 . S
C166 O170 1.255 . S
O167 Co150 2.021 . S
O167 C160 1.259 . S
O168 Co152 2.117 . S
O168 C160 1.258 . S
O169 Co152 2.020 . S
O169 C166 1.256 . S
O170 Co150 2.062 . S
O170 C166 1.255 . S
O171 C151 1.259 . S
O171 Co152 2.021 . S
H172 C163 0.930 . S
H173 C162 0.931 . S
O174 Co150 2.117 . S
O174 C151 1.258 . S
O175 Co150 2.020 . S
O175 C177 1.256 . S
O176 Co152 2.062 . S
O176 C177 1.255 . S
C177 O175 1.256 . S
C177 O176 1.255 . S
H178 C157 0.931 . S
H179 C165 0.931 . S
H180 C188 0.929 . S
H181 C190 0.930 . S
H182 C192 0.930 . S
H183 C195 0.929 . S
H184 C198 0.930 . S
H185 C200 0.960 . S
H186 C200 0.960 . S
H187 C200 0.960 . S
C188 H180 0.929 . S
C188 C189 1.377 . S
C188 C190 1.384 . S
C189 C188 1.377 . S
C189 C195 1.390 . S
C190 H181 0.930 . S
C190 C188 1.384 . S
C190 C191 1.372 . S
C191 C190 1.372 . S
C191 C192 1.400 . S
C191 C196 1.490 . S
C192 H182 0.930 . S
C192 C191 1.400 . S
C192 C195 1.386 . S
H193 C209 0.930 . S
H194 C210 0.931 . S
C195 H183 0.929 . S
C195 C189 1.390 . S
C195 C192 1.386 . S
C196 C191 1.490 . S
C196 C198 1.395 . S
C196 C199 1.403 . S
H197 C203 0.930 . S
C198 H184 0.930 . S
C198 C196 1.395 . S
C198 C201 1.403 . S
C199 C196 1.403 . S
C199 C200 1.524 . S
C199 C203 1.400 . S
C200 H185 0.960 . S
C200 H186 0.960 . S
C200 H187 0.960 . S
C200 C199 1.524 . S
C201 C198 1.403 . S
C201 C202 1.392 . S
C201 C205 1.495 . S
C202 C201 1.392 . S
C202 C203 1.385 . S
C202 C204 1.478 1_554 S
C203 H197 0.930 . S
C203 C199 1.400 . S
C203 C202 1.385 . S
C204 C202 1.478 1_556 S
C204 C206 1.381 . S
C204 C210 1.383 . S
C205 C201 1.495 . S
C205 H211 0.959 . S
C205 H212 0.961 . S
C205 H213 0.960 . S
C206 C204 1.381 . S
C206 C207 1.394 . S
C206 H214 0.930 . S
C207 C206 1.394 . S
C207 C208 1.383 . S
C207 H215 0.929 . S
C208 C207 1.383 . S
C208 C209 1.377 . S
C209 H193 0.930 . S
C209 C208 1.377 . S
C209 C210 1.379 . S
C210 H194 0.931 . S
C210 C204 1.383 . S
C210 C209 1.379 . S
H211 C205 0.959 . S
H212 C205 0.961 . S
H213 C205 0.960 . S
H214 C206 0.930 . S
H215 C207 0.929 . S
H216 C224 0.929 . S
H217 C226 0.930 . S
H218 C228 0.930 . S
H219 C231 0.929 . S
H220 C234 0.930 . S
H221 C236 0.960 . S
H222 C236 0.960 . S
H223 C236 0.960 . S
C224 H216 0.929 . S
C224 C225 1.377 . S
C224 C226 1.384 . S
C225 C224 1.377 . S
C225 C231 1.390 . S
C226 H217 0.930 . S
C226 C224 1.384 . S
C226 C227 1.372 . S
C227 C226 1.372 . S
C227 C228 1.400 . S
C227 C232 1.490 . S
C228 H218 0.930 . S
C228 C227 1.400 . S
C228 C231 1.386 . S
H229 C245 0.930 . S
H230 C246 0.931 . S
C231 H219 0.929 . S
C231 C225 1.390 . S
C231 C228 1.386 . S
C232 C227 1.490 . S
C232 C234 1.395 . S
C232 C235 1.403 . S
H233 C239 0.930 . S
C234 H220 0.930 . S
C234 C232 1.395 . S
C234 C237 1.403 . S
C235 C232 1.403 . S
C235 C236 1.524 . S
C235 C239 1.400 . S
C236 H221 0.960 . S
C236 H222 0.960 . S
C236 H223 0.960 . S
C236 C235 1.524 . S
C237 C234 1.403 . S
C237 C238 1.392 . S
C237 C241 1.495 . S
C238 C237 1.392 . S
C238 C239 1.385 . S
C238 C240 1.478 . S
C239 H233 0.930 . S
C239 C235 1.400 . S
C239 C238 1.385 . S
C240 C238 1.478 . S
C240 C242 1.381 . S
C240 C246 1.383 . S
C241 C237 1.495 . S
C241 H247 0.959 . S
C241 H248 0.961 . S
C241 H249 0.960 . S
C242 C240 1.381 . S
C242 C243 1.394 1_554 S
C242 H250 0.930 . S
C243 C242 1.394 1_556 S
C243 C244 1.383 . S
C243 H251 0.929 . S
C244 C243 1.383 . S
C244 C245 1.377 . S
C245 H229 0.930 . S
C245 C244 1.377 . S
C245 C246 1.379 1_556 S
C246 H230 0.931 . S
C246 C240 1.383 . S
C246 C245 1.379 1_554 S
H247 C241 0.959 . S
H248 C241 0.961 . S
H249 C241 0.960 . S
H250 C242 0.930 . S
H251 C243 0.929 . S
H252 C260 0.929 . S
H253 C262 0.930 . S
H254 C264 0.930 . S
H255 C267 0.929 . S
H256 C270 0.930 . S
H257 C272 0.960 . S
H258 C272 0.960 . S
H259 C272 0.960 . S
C260 H252 0.929 . S
C260 C261 1.377 . S
C260 C262 1.384 . S
C261 C260 1.377 . S
C261 C267 1.390 . S
C262 H253 0.930 . S
C262 C260 1.384 . S
C262 C263 1.372 . S
C263 C262 1.372 . S
C263 C264 1.400 . S
C263 C268 1.490 . S
C264 H254 0.930 . S
C264 C263 1.400 . S
C264 C267 1.386 . S
H265 C281 0.930 . S
H266 C282 0.931 . S
C267 H255 0.929 . S
C267 C261 1.390 . S
C267 C264 1.386 . S
C268 C263 1.490 . S
C268 C270 1.395 . S
C268 C271 1.403 . S
H269 C275 0.930 . S
C270 H256 0.930 . S
C270 C268 1.395 . S
C270 C273 1.403 . S
C271 C268 1.403 . S
C271 C272 1.524 . S
C271 C275 1.400 . S
C272 H257 0.960 . S
C272 H258 0.960 . S
C272 H259 0.960 . S
C272 C271 1.524 . S
C273 C270 1.403 . S
C273 C274 1.392 . S
C273 C277 1.495 . S
C274 C273 1.392 . S
C274 C275 1.385 . S
C274 C276 1.478 . S
C275 H269 0.930 . S
C275 C271 1.400 . S
C275 C274 1.385 . S
C276 C274 1.478 . S
C276 C278 1.381 . S
C276 C282 1.383 . S
C277 C273 1.495 . S
C277 H283 0.959 . S
C277 H284 0.961 . S
C277 H285 0.960 . S
C278 C276 1.381 . S
C278 C279 1.394 . S
C278 H286 0.930 . S
C279 C278 1.394 . S
C279 C280 1.383 . S
C279 H287 0.929 . S
C280 C279 1.383 . S
C280 C281 1.377 . S
C281 H265 0.930 . S
C281 C280 1.377 . S
C281 C282 1.379 . S
C282 H266 0.931 . S
C282 C276 1.383 . S
C282 C281 1.379 . S
H283 C277 0.959 . S
H284 C277 0.961 . S
H285 C277 0.960 . S
H286 C278 0.930 . S
H287 C279 0.929 . S
H288 C296 0.929 . S
H289 C298 0.930 . S
H290 C300 0.930 . S
H291 C303 0.929 . S
H292 C306 0.930 . S
H293 C308 0.960 . S
H294 C308 0.960 . S
H295 C308 0.960 . S
C296 H288 0.929 . S
C296 C297 1.377 . S
C296 C298 1.384 . S
C297 C296 1.377 . S
C297 C303 1.390 . S
C298 H289 0.930 . S
C298 C296 1.384 . S
C298 C299 1.372 . S
C299 C298 1.372 . S
C299 C300 1.400 . S
C299 C304 1.490 . S
C300 H290 0.930 . S
C300 C299 1.400 . S
C300 C303 1.386 . S
H301 C317 0.930 . S
H302 C318 0.931 . S
C303 H291 0.929 . S
C303 C297 1.390 . S
C303 C300 1.386 . S
C304 C299 1.490 . S
C304 C306 1.395 . S
C304 C307 1.403 . S
H305 C311 0.930 . S
C306 H292 0.930 . S
C306 C304 1.395 . S
C306 C309 1.403 . S
C307 C304 1.403 . S
C307 C308 1.524 . S
C307 C311 1.400 . S
C308 H293 0.960 . S
C308 H294 0.960 . S
C308 H295 0.960 . S
C308 C307 1.524 . S
C309 C306 1.403 . S
C309 C310 1.392 . S
C309 C313 1.495 . S
C310 C309 1.392 . S
C310 C311 1.385 . S
C310 C312 1.478 . S
C311 H305 0.930 . S
C311 C307 1.400 . S
C311 C310 1.385 . S
C312 C310 1.478 . S
C312 C314 1.381 . S
C312 C318 1.383 . S
C313 C309 1.495 . S
C313 H319 0.959 . S
C313 H320 0.961 . S
C313 H321 0.960 . S
C314 C312 1.381 . S
C314 C315 1.394 . S
C314 H322 0.930 . S
C315 C314 1.394 . S
C315 C316 1.383 . S
C315 H323 0.929 . S
C316 C315 1.383 . S
C316 C317 1.377 . S
C317 H301 0.930 . S
C317 C316 1.377 . S
C317 C318 1.379 . S
C318 H302 0.931 . S
C318 C312 1.383 . S
C318 C317 1.379 . S
H319 C313 0.959 . S
H320 C313 0.961 . S
H321 C313 0.960 . S
H322 C314 0.930 . S
H323 C315 0.929 . S
H324 C332 0.929 . S
H325 C334 0.930 . S
H326 C336 0.930 . S
H327 C339 0.929 . S
H328 C342 0.930 . S
H329 C344 0.960 . S
H330 C344 0.960 . S
H331 C344 0.960 . S
C332 H324 0.929 . S
C332 C333 1.377 . S
C332 C334 1.384 . S
C333 C332 1.377 . S
C333 C339 1.390 . S
C334 H325 0.930 . S
C334 C332 1.384 . S
C334 C335 1.372 . S
C335 C334 1.372 . S
C335 C336 1.400 . S
C335 C340 1.490 . S
C336 H326 0.930 . S
C336 C335 1.400 . S
C336 C339 1.386 . S
H337 C353 0.930 . S
H338 C354 0.931 . S
C339 H327 0.929 . S
C339 C333 1.390 . S
C339 C336 1.386 . S
C340 C335 1.490 . S
C340 C342 1.395 . S
C340 C343 1.403 . S
H341 C347 0.930 . S
C342 H328 0.930 . S
C342 C340 1.395 . S
C342 C345 1.403 . S
C343 C340 1.403 . S
C343 C344 1.524 . S
C343 C347 1.400 . S
C344 H329 0.960 . S
C344 H330 0.960 . S
C344 H331 0.960 . S
C344 C343 1.524 . S
C345 C342 1.403 . S
C345 C346 1.392 . S
C345 C349 1.495 . S
C346 C345 1.392 . S
C346 C347 1.385 . S
C346 C348 1.478 . S
C347 H341 0.930 . S
C347 C343 1.400 . S
C347 C346 1.385 . S
C348 C346 1.478 . S
C348 C350 1.381 1_556 S
C348 C354 1.383 . S
C349 C345 1.495 . S
C349 H355 0.959 . S
C349 H356 0.961 . S
C349 H357 0.960 . S
C350 C348 1.381 1_554 S
C350 C351 1.394 . S
C350 H358 0.930 1_554 S
C351 C350 1.394 . S
C351 C352 1.383 . S
C351 H359 0.929 . S
C352 C351 1.383 . S
C352 C353 1.377 . S
C353 H337 0.930 . S
C353 C352 1.377 . S
C353 C354 1.379 1_554 S
C354 H338 0.931 . S
C354 C348 1.383 . S
C354 C353 1.379 1_556 S
H355 C349 0.959 . S
H356 C349 0.961 . S
H357 C349 0.960 . S
H358 C350 0.930 1_556 S
H359 C351 0.929 . S
H360 C368 0.929 . S
H361 C370 0.930 . S
H362 C372 0.930 . S
H363 C375 0.929 . S
H364 C378 0.930 . S
H365 C380 0.960 . S
H366 C380 0.960 . S
H367 C380 0.960 . S
C368 H360 0.929 . S
C368 C369 1.377 . S
C368 C370 1.384 . S
C369 C368 1.377 . S
C369 C375 1.390 . S
C370 H361 0.930 . S
C370 C368 1.384 . S
C370 C371 1.372 . S
C371 C370 1.372 . S
C371 C372 1.400 . S
C371 C376 1.490 1_554 S
C372 H362 0.930 . S
C372 C371 1.400 . S
C372 C375 1.386 . S
H373 C389 0.930 . S
H374 C390 0.931 . S
C375 H363 0.929 . S
C375 C369 1.390 . S
C375 C372 1.386 . S
C376 C371 1.490 1_556 S
C376 C378 1.395 . S
C376 C379 1.403 . S
H377 C383 0.930 . S
C378 H364 0.930 . S
C378 C376 1.395 . S
C378 C381 1.403 . S
C379 C376 1.403 . S
C379 C380 1.524 . S
C379 C383 1.400 . S
C380 H365 0.960 . S
C380 H366 0.960 . S
C380 H367 0.960 . S
C380 C379 1.524 . S
C381 C378 1.403 . S
C381 C382 1.392 . S
C381 C385 1.495 . S
C382 C381 1.392 . S
C382 C383 1.385 . S
C382 C384 1.478 . S
C383 H377 0.930 . S
C383 C379 1.400 . S
C383 C382 1.385 . S
C384 C382 1.478 . S
C384 C386 1.381 . S
C384 C390 1.383 . S
C385 C381 1.495 . S
C385 H391 0.959 . S
C385 H392 0.961 . S
C385 H393 0.960 . S
C386 C384 1.381 . S
C386 C387 1.394 . S
C386 H394 0.930 . S
C387 C386 1.394 . S
C387 C388 1.383 . S
C387 H395 0.929 . S
C388 C387 1.383 . S
C388 C389 1.377 . S
C389 H373 0.930 . S
C389 C388 1.377 . S
C389 C390 1.379 . S
C390 H374 0.931 . S
C390 C384 1.383 . S
C390 C389 1.379 . S
H391 C385 0.959 . S
H392 C385 0.961 . S
H393 C385 0.960 . S
H394 C386 0.930 . S
H395 C387 0.929 . S
H396 C404 0.929 . S
H397 C406 0.930 . S
H398 C408 0.930 . S
H399 C411 0.929 . S
H400 C414 0.930 . S
H401 C416 0.960 . S
H402 C416 0.960 . S
H403 C416 0.969 . S
C404 H396 0.929 . S
C404 C405 1.377 . S
C404 C406 1.384 . S
C405 C404 1.377 . S
C405 C411 1.390 . S
C406 H397 0.930 . S
C406 C404 1.384 . S
C406 C407 1.372 . S
C407 C406 1.372 . S
C407 C408 1.400 . S
C407 C412 1.490 . S
C408 H398 0.930 . S
C408 C407 1.400 . S
C408 C411 1.386 . S
H409 C425 0.930 . S
H410 C426 0.931 . S
C411 H399 0.929 . S
C411 C405 1.390 . S
C411 C408 1.386 . S
C412 C407 1.490 . S
C412 C414 1.395 . S
C412 C415 1.403 1_545 S
H413 C419 0.930 . S
C414 H400 0.930 . S
C414 C412 1.395 . S
C414 C417 1.403 1_545 S
C415 C412 1.403 1_565 S
C415 C416 1.524 . S
C415 C419 1.400 . S
C416 H401 0.960 . S
C416 H402 0.960 . S
C416 H403 0.969 . S
C416 C415 1.524 . S
C417 C414 1.403 1_565 S
C417 C418 1.392 . S
C417 C421 1.495 . S
C418 C417 1.392 . S
C418 C419 1.385 . S
C418 C420 1.478 . S
C419 H413 0.930 . S
C419 C415 1.400 . S
C419 C418 1.385 . S
C420 C418 1.478 . S
C420 C422 1.381 . S
C420 C426 1.383 . S
C421 C417 1.495 . S
C421 H427 0.959 . S
C421 H428 0.961 . S
C421 H429 0.960 . S
C422 C420 1.381 . S
C422 C423 1.394 . S
C422 H430 0.930 . S
C423 C422 1.394 . S
C423 C424 1.383 . S
C423 H431 0.929 . S
C424 C423 1.383 . S
C424 C425 1.377 . S
C425 H409 0.930 . S
C425 C424 1.377 . S
C425 C426 1.379 . S
C426 H410 0.931 . S
C426 C420 1.383 . S
C426 C425 1.379 . S
H427 C421 0.959 . S
H428 C421 0.961 . S
H429 C421 0.960 . S
H430 C422 0.930 . S
H431 C423 0.929 . S
H432 C440 0.929 . S
H433 C442 0.930 . S
H434 C444 0.930 . S
H435 C447 0.929 . S
H436 C450 0.930 . S
H437 C452 0.960 . S
H438 C452 0.960 . S
H439 C452 0.960 . S
C440 H432 0.929 . S
C440 C441 1.377 . S
C440 C442 1.384 . S
C441 C440 1.377 . S
C441 C447 1.390 . S
C442 H433 0.930 . S
C442 C440 1.384 . S
C442 C443 1.372 . S
C443 C442 1.372 . S
C443 C444 1.400 . S
C443 C448 1.490 . S
C444 H434 0.930 . S
C444 C443 1.400 . S
C444 C447 1.386 . S
H445 C461 0.930 . S
H446 C462 0.931 . S
C447 H435 0.929 . S
C447 C441 1.390 . S
C447 C444 1.386 . S
C448 C443 1.490 . S
C448 C450 1.395 . S
C448 C451 1.403 . S
H449 C455 0.930 . S
C450 H436 0.930 . S
C450 C448 1.395 . S
C450 C453 1.403 . S
C451 C448 1.403 . S
C451 C452 1.524 . S
C451 C455 1.400 . S
C452 H437 0.960 . S
C452 H438 0.960 . S
C452 H439 0.960 . S
C452 C451 1.524 . S
C453 C450 1.403 . S
C453 C454 1.392 . S
C453 C457 1.495 . S
C454 C453 1.392 . S
C454 C455 1.385 . S
C454 C456 1.478 . S
C455 H449 0.930 . S
C455 C451 1.400 . S
C455 C454 1.385 . S
C456 C454 1.478 . S
C456 C458 1.381 . S
C456 C462 1.383 . S
C457 C453 1.495 . S
C457 H463 0.959 . S
C457 H464 0.961 . S
C457 H465 0.960 . S
C458 C456 1.381 . S
C458 C459 1.394 . S
C458 H466 0.930 . S
C459 C458 1.394 . S
C459 C460 1.383 . S
C459 H467 0.929 . S
C460 C459 1.383 . S
C460 C461 1.377 . S
C461 H445 0.930 . S
C461 C460 1.377 . S
C461 C462 1.379 . S
C462 H446 0.931 . S
C462 C456 1.383 . S
C462 C461 1.379 . S
H463 C457 0.959 . S
H464 C457 0.961 . S
H465 C457 0.960 . S
H466 C458 0.930 . S
H467 C459 0.929 . S
H468 C476 0.929 . S
H469 C478 0.930 . S
H470 C480 0.930 . S
H471 C483 0.929 . S
H472 C486 0.930 . S
H473 C488 0.960 . S
H474 C488 0.960 . S
H475 C488 0.960 . S
C476 H468 0.929 . S
C476 C477 1.377 . S
C476 C478 1.384 . S
C477 C476 1.377 . S
C477 C483 1.390 . S
C478 H469 0.930 . S
C478 C476 1.384 . S
C478 C479 1.372 . S
C479 C478 1.372 . S
C479 C480 1.400 . S
C479 C484 1.490 . S
C480 H470 0.930 . S
C480 C479 1.400 . S
C480 C483 1.386 . S
H481 C497 0.930 . S
H482 C498 0.931 . S
C483 H471 0.929 . S
C483 C477 1.390 . S
C483 C480 1.386 . S
C484 C479 1.490 . S
C484 C486 1.395 . S
C484 C487 1.403 . S
H485 C491 0.928 1_455 S
C486 H472 0.930 . S
C486 C484 1.395 . S
C486 C489 1.403 . S
C487 C484 1.403 . S
C487 C488 1.524 . S
C487 C491 1.405 . S
C488 H473 0.960 . S
C488 H474 0.960 . S
C488 H475 0.960 . S
C488 C487 1.524 . S
C489 C486 1.403 . S
C489 C490 1.392 1_655 S
C489 C493 1.495 . S
C490 C489 1.392 1_455 S
C490 C491 1.382 1_455 S
C490 C492 1.478 . S
C491 H485 0.928 1_655 S
C491 C487 1.405 . S
C491 C490 1.382 1_655 S
C492 C490 1.478 . S
C492 C494 1.381 . S
C492 C498 1.383 . S
C493 C489 1.495 . S
C493 H499 0.959 . S
C493 H500 0.961 . S
C493 H501 0.960 1_655 S
C494 C492 1.381 . S
C494 C495 1.394 . S
C494 H502 0.930 . S
C495 C494 1.394 . S
C495 C496 1.383 . S
C495 H503 0.929 . S
C496 C495 1.383 . S
C496 C497 1.377 . S
C497 H481 0.930 . S
C497 C496 1.377 . S
C497 C498 1.379 . S
C498 H482 0.931 . S
C498 C492 1.383 . S
C498 C497 1.379 . S
H499 C493 0.959 . S
H500 C493 0.961 . S
H501 C493 0.960 1_455 S
H502 C494 0.930 . S
H503 C495 0.929 . S
H504 C512 0.929 . S
H505 C514 0.930 . S
H506 C516 0.930 . S
H507 C519 0.929 . S
H508 C522 0.930 . S
H509 C524 0.960 . S
H510 C524 0.960 . S
H511 C524 0.960 . S
C512 H504 0.929 . S
C512 C513 1.377 . S
C512 C514 1.384 . S
C513 C512 1.377 . S
C513 C519 1.390 . S
C514 H505 0.930 . S
C514 C512 1.384 . S
C514 C515 1.372 . S
C515 C514 1.372 . S
C515 C516 1.400 . S
C515 C520 1.490 . S
C516 H506 0.930 . S
C516 C515 1.400 . S
C516 C519 1.386 . S
H517 C533 0.930 . S
H518 C534 0.931 1_554 S
C519 H507 0.929 . S
C519 C513 1.390 . S
C519 C516 1.386 . S
C520 C515 1.490 . S
C520 C522 1.395 . S
C520 C523 1.403 1_554 S
H521 C527 0.935 . S
C522 H508 0.930 . S
C522 C520 1.395 . S
C522 C525 1.403 . S
C523 C520 1.403 1_556 S
C523 C524 1.524 . S
C523 C527 1.400 . S
C524 H509 0.960 . S
C524 H510 0.960 . S
C524 H511 0.960 . S
C524 C523 1.524 . S
C525 C522 1.403 . S
C525 C526 1.392 1_564 S
C525 C529 1.495 1_565 S
C526 C525 1.392 1_546 S
C526 C527 1.385 1_545 S
C526 C528 1.478 . S
C527 H521 0.935 . S
C527 C523 1.400 . S
C527 C526 1.385 1_565 S
C528 C526 1.478 . S
C528 C530 1.381 . S
C528 C534 1.383 . S
C529 C525 1.495 1_545 S
C529 H535 0.959 . S
C529 H536 0.961 . S
C529 H537 0.960 . S
C530 C528 1.381 . S
C530 C531 1.394 . S
C530 H538 0.930 . S
C531 C530 1.394 . S
C531 C532 1.383 . S
C531 H539 0.929 . S
C532 C531 1.383 . S
C532 C533 1.377 . S
C533 H517 0.930 . S
C533 C532 1.377 . S
C533 C534 1.379 . S
C534 H518 0.931 1_556 S
C534 C528 1.383 . S
C534 C533 1.379 . S
H535 C529 0.959 . S
H536 C529 0.961 . S
H537 C529 0.960 . S
H538 C530 0.930 . S
H539 C531 0.929 . S
H540 C548 0.929 . S
H541 C550 0.930 . S
H542 C552 0.930 . S
H543 C555 0.929 . S
H544 C558 0.930 . S
H545 C560 0.960 . S
H546 C560 0.960 . S
H547 C560 0.960 . S
C548 H540 0.929 . S
C548 C549 1.377 . S
C548 C550 1.384 . S
C549 C548 1.377 . S
C549 C555 1.390 . S
C550 H541 0.930 . S
C550 C548 1.384 . S
C550 C551 1.372 . S
C551 C550 1.372 . S
C551 C552 1.400 . S
C551 C556 1.490 . S
C552 H542 0.930 . S
C552 C551 1.400 . S
C552 C555 1.386 . S
H553 C569 0.930 1_556 S
H554 C570 0.931 . S
C555 H543 0.929 . S
C555 C549 1.390 . S
C555 C552 1.386 . S
C556 C551 1.490 . S
C556 C558 1.395 . S
C556 C559 1.403 . S
H557 C563 0.930 . S
C558 H544 0.930 . S
C558 C556 1.395 . S
C558 C561 1.403 . S
C559 C556 1.403 . S
C559 C560 1.524 . S
C559 C563 1.400 . S
C560 H545 0.960 . S
C560 H546 0.960 . S
C560 H547 0.960 . S
C560 C559 1.524 . S
C561 C558 1.403 . S
C561 C562 1.392 . S
C561 C565 1.495 . S
C562 C561 1.392 . S
C562 C563 1.385 . S
C562 C564 1.478 . S
C563 H557 0.930 . S
C563 C559 1.400 . S
C563 C562 1.385 . S
C564 C562 1.478 . S
C564 C566 1.381 . S
C564 C570 1.383 . S
C565 C561 1.495 . S
C565 H571 0.959 . S
C565 H572 0.961 . S
C565 H573 0.960 . S
C566 C564 1.381 . S
C566 C567 1.394 . S
C566 H574 0.930 . S
C567 C566 1.394 . S
C567 C568 1.383 . S
C567 H575 0.929 . S
C568 C567 1.383 . S
C568 C569 1.377 . S
C569 H553 0.930 1_554 S
C569 C568 1.377 . S
C569 C570 1.379 . S
C570 H554 0.931 . S
C570 C564 1.383 . S
C570 C569 1.379 . S
H571 C565 0.959 . S
H572 C565 0.961 . S
H573 C565 0.960 . S
H574 C566 0.930 . S
H575 C567 0.929 . S
H576 C584 0.929 . S
H577 C586 0.930 . S
H578 C588 0.930 . S
H579 C591 0.929 . S
H580 C594 0.930 . S
H581 C596 0.960 . S
H582 C596 0.960 . S
H583 C596 0.960 . S
C584 H576 0.929 . S
C584 C585 1.377 . S
C584 C586 1.384 . S
C585 C584 1.377 . S
C585 C591 1.390 . S
C586 H577 0.930 . S
C586 C584 1.384 . S
C586 C587 1.372 . S
C587 C586 1.372 . S
C587 C588 1.400 . S
C587 C592 1.490 . S
C588 H578 0.930 . S
C588 C587 1.400 . S
C588 C591 1.386 . S
H589 C605 0.930 . S
H590 C606 0.931 . S
C591 H579 0.929 . S
C591 C585 1.390 . S
C591 C588 1.386 . S
C592 C587 1.490 . S
C592 C594 1.395 . S
C592 C595 1.403 . S
H593 C599 0.931 . S
C594 H580 0.930 . S
C594 C592 1.395 . S
C594 C597 1.403 . S
C595 C592 1.403 . S
C595 C596 1.524 . S
C595 C599 1.400 . S
C596 H581 0.960 . S
C596 H582 0.960 . S
C596 H583 0.960 . S
C596 C595 1.524 . S
C597 C594 1.403 . S
C597 C598 1.392 1_655 S
C597 C601 1.495 1_655 S
C598 C597 1.392 1_455 S
C598 C599 1.385 1_455 S
C598 C600 1.478 . S
C599 H593 0.931 . S
C599 C595 1.400 . S
C599 C598 1.385 1_655 S
C600 C598 1.478 . S
C600 C602 1.381 . S
C600 C606 1.383 . S
C601 C597 1.495 1_455 S
C601 H607 0.959 . S
C601 H608 0.961 . S
C601 H609 0.960 . S
C602 C600 1.381 . S
C602 C603 1.394 . S
C602 H610 0.930 . S
C603 C602 1.394 . S
C603 C604 1.383 . S
C603 H611 0.929 . S
C604 C603 1.383 . S
C604 C605 1.377 . S
C605 H589 0.930 . S
C605 C604 1.377 . S
C605 C606 1.379 . S
C606 H590 0.931 . S
C606 C600 1.383 . S
C606 C605 1.379 . S
H607 C601 0.959 . S
H608 C601 0.961 . S
H609 C601 0.960 . S
H610 C602 0.930 . S
H611 C603 0.929 . S
H612 C620 0.929 . S
H613 C622 0.930 . S
H614 C624 0.930 . S
H615 C627 0.929 . S
H616 C630 0.930 . S
H617 C632 0.960 . S
H618 C632 0.960 . S
H619 C632 0.960 . S
C620 H612 0.929 . S
C620 C621 1.377 . S
C620 C622 1.384 . S
C621 C620 1.377 . S
C621 C627 1.390 . S
C622 H613 0.930 . S
C622 C620 1.384 . S
C622 C623 1.372 . S
C623 C622 1.372 . S
C623 C624 1.400 . S
C623 C628 1.490 . S
C624 H614 0.930 . S
C624 C623 1.400 . S
C624 C627 1.386 . S
H625 C641 0.930 . S
H626 C642 0.931 . S
C627 H615 0.929 . S
C627 C621 1.390 . S
C627 C624 1.386 . S
C628 C623 1.490 . S
C628 C630 1.395 . S
C628 C631 1.403 . S
H629 C635 0.930 . S
C630 H616 0.930 . S
C630 C628 1.395 . S
C630 C633 1.403 . S
C631 C628 1.403 . S
C631 C632 1.524 . S
C631 C635 1.400 . S
C632 H617 0.960 . S
C632 H618 0.960 . S
C632 H619 0.960 . S
C632 C631 1.524 . S
C633 C630 1.403 . S
C633 C634 1.392 . S
C633 C637 1.495 . S
C634 C633 1.392 . S
C634 C635 1.385 . S
C634 C636 1.478 . S
C635 H629 0.930 . S
C635 C631 1.400 . S
C635 C634 1.385 . S
C636 C634 1.478 . S
C636 C638 1.381 . S
C636 C642 1.383 . S
C637 C633 1.495 . S
C637 H643 0.959 . S
C637 H644 0.961 . S
C637 H645 0.960 . S
C638 C636 1.381 . S
C638 C639 1.394 . S
C638 H646 0.930 . S
C639 C638 1.394 . S
C639 C640 1.383 . S
C639 H647 0.929 . S
C640 C639 1.383 . S
C640 C641 1.377 . S
C641 H625 0.930 . S
C641 C640 1.377 . S
C641 C642 1.379 . S
C642 H626 0.931 . S
C642 C636 1.383 . S
C642 C641 1.379 . S
H643 C637 0.959 . S
H644 C637 0.961 . S
H645 C637 0.960 . S
H646 C638 0.930 . S
H647 C639 0.929 . S
H648 C656 0.929 . S
H649 C658 0.930 . S
H650 C660 0.930 . S
H651 C663 0.929 . S
H652 C666 0.930 . S
H653 C668 0.960 . S
H654 C668 0.960 . S
H655 C668 0.960 . S
C656 H648 0.929 . S
C656 C657 1.377 . S
C656 C658 1.384 . S
C657 C656 1.377 . S
C657 C663 1.390 . S
C658 H649 0.930 . S
C658 C656 1.384 . S
C658 C659 1.372 . S
C659 C658 1.372 . S
C659 C660 1.400 . S
C659 C664 1.490 . S
C660 H650 0.930 . S
C660 C659 1.400 . S
C660 C663 1.386 . S
H661 C677 0.930 . S
H662 C678 0.931 . S
C663 H651 0.929 . S
C663 C657 1.390 . S
C663 C660 1.386 . S
C664 C659 1.490 . S
C664 C666 1.395 . S
C664 C667 1.403 . S
H665 C671 0.930 . S
C666 H652 0.930 . S
C666 C664 1.395 . S
C666 C669 1.403 . S
C667 C664 1.403 . S
C667 C668 1.524 . S
C667 C671 1.400 . S
C668 H653 0.960 . S
C668 H654 0.960 . S
C668 H655 0.960 . S
C668 C667 1.524 . S
C669 C666 1.403 . S
C669 C670 1.392 . S
C669 C673 1.495 . S
C670 C669 1.392 . S
C670 C671 1.385 . S
C670 C672 1.478 . S
C671 H665 0.930 . S
C671 C667 1.400 . S
C671 C670 1.385 . S
C672 C670 1.478 . S
C672 C674 1.381 . S
C672 C678 1.383 . S
C673 C669 1.495 . S
C673 H679 0.959 . S
C673 H680 0.961 . S
C673 H681 0.960 . S
C674 C672 1.381 . S
C674 C675 1.394 . S
C674 H682 0.930 . S
C675 C674 1.394 . S
C675 C676 1.383 . S
C675 H683 0.929 . S
C676 C675 1.383 . S
C676 C677 1.377 . S
C677 H661 0.930 . S
C677 C676 1.377 . S
C677 C678 1.379 . S
C678 H662 0.931 . S
C678 C672 1.383 . S
C678 C677 1.379 . S
H679 C673 0.959 . S
H680 C673 0.961 . S
H681 C673 0.960 . S
H682 C674 0.930 . S
H683 C675 0.929 . S
H684 C692 0.929 1_554 S
H685 C694 0.930 . S
H686 C696 0.930 . S
H687 C699 0.929 . S
H688 C702 0.930 . S
H689 C704 0.960 . S
H690 C704 0.960 . S
H691 C704 0.960 . S
C692 H684 0.929 1_556 S
C692 C693 1.377 . S
C692 C694 1.384 . S
C693 C692 1.377 . S
C693 C699 1.390 . S
C694 H685 0.930 . S
C694 C692 1.384 . S
C694 C695 1.372 . S
C695 C694 1.372 . S
C695 C696 1.400 . S
C695 C700 1.490 . S
C696 H686 0.930 . S
C696 C695 1.400 . S
C696 C699 1.386 . S
H697 C713 0.930 . S
H698 C714 0.931 . S
C699 H687 0.929 . S
C699 C693 1.390 . S
C699 C696 1.386 . S
C700 C695 1.490 . S
C700 C702 1.395 . S
C700 C703 1.403 . S
H701 C707 0.930 . S
C702 H688 0.930 . S
C702 C700 1.395 . S
C702 C705 1.403 . S
C703 C700 1.403 . S
C703 C704 1.524 . S
C703 C707 1.400 . S
C704 H689 0.960 . S
C704 H690 0.960 . S
C704 H691 0.960 . S
C704 C703 1.524 . S
C705 C702 1.403 . S
C705 C706 1.392 . S
C705 C709 1.495 . S
C706 C705 1.392 . S
C706 C707 1.385 . S
C706 C708 1.478 . S
C707 H701 0.930 . S
C707 C703 1.400 . S
C707 C706 1.385 . S
C708 C706 1.478 . S
C708 C710 1.381 . S
C708 C714 1.383 . S
C709 C705 1.495 . S
C709 H715 0.959 . S
C709 H716 0.961 . S
C709 H717 0.960 . S
C710 C708 1.381 . S
C710 C711 1.394 . S
C710 H718 0.930 . S
C711 C710 1.394 . S
C711 C712 1.383 . S
C711 H719 0.929 . S
C712 C711 1.383 . S
C712 C713 1.377 . S
C713 H697 0.930 . S
C713 C712 1.377 . S
C713 C714 1.379 . S
C714 H698 0.931 . S
C714 C708 1.383 . S
C714 C713 1.379 . S
H715 C709 0.959 . S
H716 C709 0.961 . S
H717 C709 0.960 . S
H718 C710 0.930 . S
H719 C711 0.929 . S
H720 C728 0.929 . S
H721 C730 0.930 . S
H722 C732 0.930 1_554 S
H723 C735 0.929 . S
H724 C738 0.930 . S
H725 C740 0.960 . S
H726 C740 0.960 . S
H727 C740 0.960 1_554 S
C728 H720 0.929 . S
C728 C729 1.377 . S
C728 C730 1.384 . S
C729 C728 1.377 . S
C729 C735 1.390 1_556 S
C730 H721 0.930 . S
C730 C728 1.384 . S
C730 C731 1.372 . S
C731 C730 1.372 . S
C731 C732 1.400 . S
C731 C736 1.490 . S
C732 H722 0.930 1_556 S
C732 C731 1.400 . S
C732 C735 1.386 1_556 S
H733 C749 0.930 . S
H734 C750 0.931 . S
C735 H723 0.929 . S
C735 C729 1.390 1_554 S
C735 C732 1.386 1_554 S
C736 C731 1.490 . S
C736 C738 1.395 . S
C736 C739 1.403 . S
H737 C743 0.930 . S
C738 H724 0.930 . S
C738 C736 1.395 . S
C738 C741 1.403 . S
C739 C736 1.403 . S
C739 C740 1.524 . S
C739 C743 1.400 . S
C740 H725 0.960 . S
C740 H726 0.960 . S
C740 H727 0.960 1_556 S
C740 C739 1.524 . S
C741 C738 1.403 . S
C741 C742 1.392 . S
C741 C745 1.495 . S
C742 C741 1.392 . S
C742 C743 1.385 . S
C742 C744 1.478 . S
C743 H737 0.930 . S
C743 C739 1.400 . S
C743 C742 1.385 . S
C744 C742 1.478 . S
C744 C746 1.381 . S
C744 C750 1.383 . S
C745 C741 1.495 . S
C745 H751 0.959 . S
C745 H752 0.961 . S
C745 H753 0.960 . S
C746 C744 1.381 . S
C746 C747 1.394 . S
C746 H754 0.930 . S
C747 C746 1.394 . S
C747 C748 1.383 . S
C747 H755 0.929 . S
C748 C747 1.383 . S
C748 C749 1.377 . S
C749 H733 0.930 . S
C749 C748 1.377 . S
C749 C750 1.379 . S
C750 H734 0.931 . S
C750 C744 1.383 . S
C750 C749 1.379 . S
H751 C745 0.959 . S
H752 C745 0.961 . S
H753 C745 0.960 . S
H754 C746 0.930 . S
H755 C747 0.929 . S
H756 C764 0.929 . S
H757 C766 0.930 . S
H758 C768 0.930 . S
H759 C771 0.929 . S
H760 C774 0.930 . S
H761 C776 0.960 . S
H762 C776 0.960 . S
H763 C776 0.960 . S
C764 H756 0.929 . S
C764 C765 1.377 . S
C764 C766 1.384 . S
C765 C764 1.377 . S
C765 C771 1.390 . S
C766 H757 0.930 . S
C766 C764 1.384 . S
C766 C767 1.372 . S
C767 C766 1.372 . S
C767 C768 1.400 . S
C767 C772 1.490 . S
C768 H758 0.930 . S
C768 C767 1.400 . S
C768 C771 1.386 . S
H769 C785 0.930 . S
H770 C786 0.931 1_556 S
C771 H759 0.929 . S
C771 C765 1.390 . S
C771 C768 1.386 . S
C772 C767 1.490 . S
C772 C774 1.395 . S
C772 C775 1.403 . S
H773 C779 0.930 . S
C774 H760 0.930 . S
C774 C772 1.395 . S
C774 C777 1.403 . S
C775 C772 1.403 . S
C775 C776 1.524 . S
C775 C779 1.400 . S
C776 H761 0.960 . S
C776 H762 0.960 . S
C776 H763 0.960 . S
C776 C775 1.524 . S
C777 C774 1.403 . S
C777 C778 1.392 . S
C777 C781 1.495 . S
C778 C777 1.392 . S
C778 C779 1.385 . S
C778 C780 1.478 . S
C779 H773 0.930 . S
C779 C775 1.400 . S
C779 C778 1.385 . S
C780 C778 1.478 . S
C780 C782 1.381 . S
C780 C786 1.383 . S
C781 C777 1.495 . S
C781 H787 0.959 . S
C781 H788 0.961 . S
C781 H789 0.960 . S
C782 C780 1.381 . S
C782 C783 1.394 . S
C782 H790 0.930 . S
C783 C782 1.394 . S
C783 C784 1.383 . S
C783 H791 0.929 . S
C784 C783 1.383 . S
C784 C785 1.377 1_554 S
C785 H769 0.930 . S
C785 C784 1.377 1_556 S
C785 C786 1.379 1_556 S
C786 H770 0.931 1_554 S
C786 C780 1.383 . S
C786 C785 1.379 1_554 S
H787 C781 0.959 . S
H788 C781 0.961 . S
H789 C781 0.960 . S
H790 C782 0.930 . S
H791 C783 0.929 . S
H792 C800 0.929 . S
H793 C802 0.930 . S
H794 C804 0.930 . S
H795 C807 0.929 . S
H796 C810 0.930 . S
H797 C812 0.960 . S
H798 C812 0.960 . S
H799 C812 0.960 . S
C800 H792 0.929 . S
C800 C801 1.377 . S
C800 C802 1.384 . S
C801 C800 1.377 . S
C801 C807 1.390 . S
C802 H793 0.930 . S
C802 C800 1.384 . S
C802 C803 1.372 . S
C803 C802 1.372 . S
C803 C804 1.400 . S
C803 C808 1.490 . S
C804 H794 0.930 . S
C804 C803 1.400 . S
C804 C807 1.386 . S
H805 C821 0.930 . S
H806 C822 0.931 . S
C807 H795 0.929 . S
C807 C801 1.390 . S
C807 C804 1.386 . S
C808 C803 1.490 . S
C808 C810 1.395 . S
C808 C811 1.403 . S
H809 C815 0.930 . S
C810 H796 0.930 . S
C810 C808 1.395 . S
C810 C813 1.403 . S
C811 C808 1.403 . S
C811 C812 1.524 . S
C811 C815 1.400 . S
C812 H797 0.960 . S
C812 H798 0.960 . S
C812 H799 0.960 . S
C812 C811 1.524 . S
C813 C810 1.403 . S
C813 C814 1.392 . S
C813 C817 1.495 . S
C814 C813 1.392 . S
C814 C815 1.385 . S
C814 C816 1.478 . S
C815 H809 0.930 . S
C815 C811 1.400 . S
C815 C814 1.385 . S
C816 C814 1.478 . S
C816 C818 1.381 . S
C816 C822 1.383 . S
C817 C813 1.495 . S
C817 H823 0.959 . S
C817 H824 0.961 . S
C817 H825 0.960 . S
C818 C816 1.381 . S
C818 C819 1.394 . S
C818 H826 0.930 . S
C819 C818 1.394 . S
C819 C820 1.383 . S
C819 H827 0.929 . S
C820 C819 1.383 . S
C820 C821 1.377 . S
C821 H805 0.930 . S
C821 C820 1.377 . S
C821 C822 1.379 . S
C822 H806 0.931 . S
C822 C816 1.383 . S
C822 C821 1.379 . S
H823 C817 0.959 . S
H824 C817 0.961 . S
H825 C817 0.960 . S
H826 C818 0.930 . S
H827 C819 0.929 . S
C189 C16 0.815 . S
C208 C27 0.817 . S
C225 C57 0.816 . S
C244 C46 0.819 . S
C261 C87 0.815 . S
C280 C76 0.810 . S
C297 C106 0.816 . S
C316 C117 0.813 . S
C333 C147 0.814 . S
C352 C136 0.812 . S
C369 C177 0.815 . S
C388 C166 0.818 . S
C405 C1 1.931 . S
C424 C151 1.944 . S
C441 N6 1.555 . S
C460 N36 1.528 . S
C477 C61 1.931 . S
C496 C31 1.944 . S
C513 N96 1.553 . S
C532 N66 1.534 . S
C549 C121 1.928 . S
C568 C91 1.932 . S
C585 N126 1.553 . S
C604 N156 1.536 . S
C621 C10 1.838 . S
C640 N134 1.692 . S
C657 N44 1.714 . S
C676 C160 1.826 . S
C693 C70 1.837 . S
C712 N14 1.692 . S
C729 N104 1.707 1_556 S
C748 C40 1.841 . S
C765 C130 1.838 . S
C784 N74 1.691 . S
C801 C100 1.839 . S
C820 N164 1.678 . S
