# Generated by pormake.
# Topology ukb, (4)-cn, num edge types: 1
# Building blocks:
#     Node 0, Type 0, BuildingBlock: GALJAG_clean_sbu_0, # of connection points: 4
#     Node 1, Type 0, BuildingBlock: GALJAG_clean_sbu_0, # of connection points: 4
#     Node 2, Type 0, BuildingBlock: GALJAG_clean_sbu_0, # of connection points: 4
#     Node 3, Type 0, BuildingBlock: GALJAG_clean_sbu_0, # of connection points: 4
#     Node 4, Type 0, BuildingBlock: GALJAG_clean_sbu_0, # of connection points: 4
#     Node 5, Type 0, BuildingBlock: GALJAG_clean_sbu_0, # of connection points: 4
#     Node 6, Type 0, BuildingBlock: GALJAG_clean_sbu_0, # of connection points: 4
#     Node 7, Type 0, BuildingBlock: GALJAG_clean_sbu_0, # of connection points: 4
#     Node 8, Type 0, BuildingBlock: GALJAG_clean_sbu_0, # of connection points: 4
#     Node 9, Type 0, BuildingBlock: GALJAG_clean_sbu_0, # of connection points: 4
#     Node 10, Type 0, BuildingBlock: GALJAG_clean_sbu_0, # of connection points: 4
#     Node 11, Type 0, BuildingBlock: GALJAG_clean_sbu_0, # of connection points: 4
#     Node 12, Type 0, BuildingBlock: GALJAG_clean_sbu_0, # of connection points: 4
#     Node 13, Type 0, BuildingBlock: GALJAG_clean_sbu_0, # of connection points: 4
#     Node 14, Type 0, BuildingBlock: GALJAG_clean_sbu_0, # of connection points: 4
#     Node 15, Type 0, BuildingBlock: GALJAG_clean_sbu_0, # of connection points: 4
#     Edge 16, Type (0, 0), BuildingBlock: XIVTED_clean_linker_0, # of connection points: 2
#     Edge 17, Type (0, 0), BuildingBlock: XIVTED_clean_linker_0, # of connection points: 2
#     Edge 18, Type (0, 0), BuildingBlock: XIVTED_clean_linker_0, # of connection points: 2
#     Edge 19, Type (0, 0), BuildingBlock: XIVTED_clean_linker_0, # of connection points: 2
#     Edge 20, Type (0, 0), BuildingBlock: XIVTED_clean_linker_0, # of connection points: 2
#     Edge 21, Type (0, 0), BuildingBlock: XIVTED_clean_linker_0, # of connection points: 2
#     Edge 22, Type (0, 0), BuildingBlock: XIVTED_clean_linker_0, # of connection points: 2
#     Edge 23, Type (0, 0), BuildingBlock: XIVTED_clean_linker_0, # of connection points: 2
#     Edge 24, Type (0, 0), BuildingBlock: XIVTED_clean_linker_0, # of connection points: 2
#     Edge 25, Type (0, 0), BuildingBlock: XIVTED_clean_linker_0, # of connection points: 2
#     Edge 26, Type (0, 0), BuildingBlock: XIVTED_clean_linker_0, # of connection points: 2
#     Edge 27, Type (0, 0), BuildingBlock: XIVTED_clean_linker_0, # of connection points: 2
#     Edge 28, Type (0, 0), BuildingBlock: XIVTED_clean_linker_0, # of connection points: 2
#     Edge 29, Type (0, 0), BuildingBlock: XIVTED_clean_linker_0, # of connection points: 2
#     Edge 30, Type (0, 0), BuildingBlock: XIVTED_clean_linker_0, # of connection points: 2
#     Edge 31, Type (0, 0), BuildingBlock: XIVTED_clean_linker_0, # of connection points: 2
#     Edge 32, Type (0, 0), BuildingBlock: XIVTED_clean_linker_0, # of connection points: 2
#     Edge 33, Type (0, 0), BuildingBlock: XIVTED_clean_linker_0, # of connection points: 2
#     Edge 34, Type (0, 0), BuildingBlock: XIVTED_clean_linker_0, # of connection points: 2
#     Edge 35, Type (0, 0), BuildingBlock: XIVTED_clean_linker_0, # of connection points: 2
#     Edge 36, Type (0, 0), BuildingBlock: XIVTED_clean_linker_0, # of connection points: 2
#     Edge 37, Type (0, 0), BuildingBlock: XIVTED_clean_linker_0, # of connection points: 2
#     Edge 38, Type (0, 0), BuildingBlock: XIVTED_clean_linker_0, # of connection points: 2
#     Edge 39, Type (0, 0), BuildingBlock: XIVTED_clean_linker_0, # of connection points: 2
#     Edge 40, Type (0, 0), BuildingBlock: XIVTED_clean_linker_0, # of connection points: 2
#     Edge 41, Type (0, 0), BuildingBlock: XIVTED_clean_linker_0, # of connection points: 2
#     Edge 42, Type (0, 0), BuildingBlock: XIVTED_clean_linker_0, # of connection points: 2
#     Edge 43, Type (0, 0), BuildingBlock: XIVTED_clean_linker_0, # of connection points: 2
#     Edge 44, Type (0, 0), BuildingBlock: XIVTED_clean_linker_0, # of connection points: 2
#     Edge 45, Type (0, 0), BuildingBlock: XIVTED_clean_linker_0, # of connection points: 2
#     Edge 46, Type (0, 0), BuildingBlock: XIVTED_clean_linker_0, # of connection points: 2
#     Edge 47, Type (0, 0), BuildingBlock: XIVTED_clean_linker_0, # of connection points: 2
# Relax obj value: 0.140
# Max RMSD: 0.093
# Mean RMSD: 0.093
data_MOF--net-ukb--node1-GALJAG_clean_sbu_0--edge1-XIVTED_clean_linker_0
_symmetry_space_group_name_H-M    P1
_symmetry_Int_Tables_number       1
_symmetry_cell_setting            triclinic
loop_
_symmetry_equiv_pos_as_xyz
'x, y, z'
_cell_length_a     44.669195
_cell_length_b     44.550822
_cell_length_c     38.221112
_cell_angle_alpha  90.019509
_cell_angle_beta   90.02036
_cell_angle_gamma 89.99339
loop_
_atom_site_label
_atom_site_type_symbol
_atom_site_fract_x
_atom_site_fract_y
_atom_site_fract_z
_atom_type_partial_charge
In0 In 0.53333 0.19989 0.18255 0.0
O1 O 0.57003 0.1681 0.16379 0.0
O2 O 0.55264 0.16165 0.215 0.0
C3 C 0.53149 0.21939 0.11594 0.0
C4 C 0.4809 0.17356 0.19914 0.0
C5 C 0.55323 0.24863 0.21823 0.0
O6 O 0.55511 0.20963 0.13001 0.0
O7 O 0.50877 0.21947 0.13554 0.0
O8 O 0.52912 0.24891 0.20112 0.0
O9 O 0.56656 0.22379 0.21812 0.0
C10 C 0.57094 0.15322 0.19186 0.0
O11 O 0.49387 0.19171 0.21951 0.0
O12 O 0.49415 0.16917 0.17047 0.0
In13 In 0.28471 0.52284 0.69588 0.0
O14 O 0.29979 0.48797 0.73622 0.0
O15 O 0.31506 0.48314 0.68396 0.0
C16 C 0.23232 0.52744 0.73088 0.0
C17 C 0.31931 0.57182 0.70661 0.0
C18 C 0.27079 0.52317 0.62734 0.0
O19 O 0.25723 0.53339 0.74475 0.0
O20 O 0.23397 0.51782 0.69994 0.0
O21 O 0.28108 0.54588 0.64295 0.0
O22 O 0.26758 0.50019 0.64627 0.0
C23 C 0.31517 0.47303 0.71472 0.0
O24 O 0.29113 0.57264 0.70618 0.0
O25 O 0.33037 0.54613 0.70148 0.0
In26 In 0.97151 0.3025 0.18866 0.0
O27 O 0.00496 0.31394 0.23209 0.0
O28 O 0.01736 0.32331 0.17965 0.0
C29 C 0.94561 0.25599 0.22263 0.0
C30 C 0.93246 0.34847 0.19452 0.0
C31 C 0.98036 0.28334 0.1226 0.0
O32 O 0.9735 0.25728 0.21751 0.0
O33 O 0.93115 0.27815 0.21114 0.0
O34 O 0.97369 0.31014 0.12985 0.0
O35 O 0.9826 0.26615 0.14869 0.0
C36 C 0.02433 0.32459 0.21153 0.0
O37 O 0.93107 0.32946 0.17009 0.0
O38 O 0.95364 0.3444 0.21585 0.0
In39 In 0.19769 0.97025 0.67883 0.0
O40 O 0.19191 0.01419 0.70952 0.0
O41 O 0.15819 0.00201 0.67308 0.0
C42 C 0.25354 0.95803 0.7018 0.0
C43 C 0.16367 0.92412 0.70248 0.0
C44 C 0.21089 0.97536 0.61051 0.0
O45 O 0.23526 0.9731 0.71991 0.0
O46 O 0.24369 0.94961 0.67253 0.0
O47 O 0.20005 0.95174 0.62369 0.0
O48 O 0.21466 0.99677 0.63179 0.0
C49 C 0.16724 0.02074 0.69537 0.0
O50 O 0.15968 0.93597 0.67294 0.0
O51 O 0.18449 0.93567 0.72011 0.0
In52 In 0.5252 0.30134 0.79782 0.0
O53 O 0.56109 0.33482 0.81479 0.0
O54 O 0.5447 0.33777 0.76273 0.0
C55 C 0.52715 0.28295 0.86481 0.0
C56 C 0.47178 0.32668 0.7835 0.0
C57 C 0.54252 0.25129 0.76287 0.0
O58 O 0.55038 0.28971 0.84776 0.0
O59 O 0.50294 0.28531 0.848 0.0
O60 O 0.51997 0.25165 0.78267 0.0
O61 O 0.55553 0.2762 0.7599 0.0
C62 C 0.56235 0.34797 0.7856 0.0
O63 O 0.4839 0.30799 0.7631 0.0
O64 O 0.48639 0.33213 0.81098 0.0
In65 In 0.20354 0.52668 0.30453 0.0
O66 O 0.16948 0.49011 0.31579 0.0
O67 O 0.19184 0.48845 0.2668 0.0
C68 C 0.25588 0.53159 0.26954 0.0
C69 C 0.16993 0.57608 0.29182 0.0
C70 C 0.2165 0.52488 0.37333 0.0
O71 O 0.23088 0.53643 0.25526 0.0
O72 O 0.25435 0.52307 0.30092 0.0
O73 O 0.20608 0.54798 0.35865 0.0
O74 O 0.22035 0.50268 0.35333 0.0
C75 C 0.17293 0.47663 0.28709 0.0
O76 O 0.19777 0.57704 0.29691 0.0
O77 O 0.15877 0.55011 0.29328 0.0
In78 In 0.96924 0.19137 0.8111 0.0
O79 O 0.93007 0.16375 0.83192 0.0
O80 O 0.94873 0.15094 0.78313 0.0
C81 C 0.98299 0.20912 0.87645 0.0
C82 C 0.02029 0.16956 0.78306 0.0
C83 C 0.94118 0.23927 0.78247 0.0
O84 O 0.97552 0.18252 0.86922 0.0
O85 O 0.9842 0.22666 0.85055 0.0
O86 O 0.96894 0.23498 0.7787 0.0
O87 O 0.92795 0.21939 0.8 0.0
C88 C 0.92915 0.14608 0.80618 0.0
O89 O -0.00078 0.17978 0.76455 0.0
O90 O 0.0159 0.17107 0.81558 0.0
In91 In 0.29657 0.97623 0.2941 0.0
O92 O 0.34145 0.95144 0.28808 0.0
O93 O 0.30139 0.92643 0.2822 0.0
C94 C 0.28314 0.97706 0.36279 0.0
C95 C 0.32768 0.0253 0.2741 0.0
C96 C 0.24307 0.97263 0.26127 0.0
O97 O 0.29279 0.95388 0.34751 0.0
O98 O 0.28065 -8e-05 0.34354 0.0
O99 O 0.26744 0.96663 0.24616 0.0
O100 O 0.24586 0.98188 0.29225 0.0
C101 C 0.32957 0.9263 0.28188 0.0
O102 O 0.31064 0.01129 0.25345 0.0
O103 O 0.32893 0.0146 0.30455 0.0
In104 In 0.46926 0.80038 0.79822 0.0
O105 O 0.50907 0.80444 0.76054 0.0
O106 O 0.51082 0.82805 0.80876 0.0
C107 C 0.4402 0.7528 0.77077 0.0
C108 C 0.43254 0.84586 0.78014 0.0
C109 C 0.47663 0.7819 0.86466 0.0
O110 O 0.46824 0.75576 0.76804 0.0
O111 O 0.42722 0.77376 0.7869 0.0
O112 O 0.46572 0.80718 0.85702 0.0
O113 O 0.48396 0.76594 0.83877 0.0
C114 C 0.52355 0.82197 0.78024 0.0
O115 O 0.43385 0.83562 0.81089 0.0
O116 O 0.45002 0.83339 0.75864 0.0
In117 In 0.70537 0.47806 0.29879 0.0
O118 O 0.66057 0.45676 0.28306 0.0
O119 O 0.69575 0.42794 0.29938 0.0
C120 C 0.71944 0.47974 0.36731 0.0
C121 C 0.67598 0.52883 0.28135 0.0
C122 C 0.75653 0.46887 0.2624 0.0
O123 O 0.70589 0.45796 0.35341 0.0
O124 O 0.72557 0.50102 0.34674 0.0
O125 O 0.73109 0.46233 0.25038 0.0
O126 O 0.75607 0.48117 0.29207 0.0
C127 C 0.66915 0.43021 0.28871 0.0
O128 O 0.67279 0.51598 0.31048 0.0
O129 O 0.69421 0.51619 0.26087 0.0
In130 In 0.02166 0.69547 0.81225 0.0
O131 O 0.05837 0.66373 0.83146 0.0
O132 O 0.04164 0.65724 0.78009 0.0
C133 C 0.00939 0.71417 0.87752 0.0
C134 C 0.96911 0.67451 0.7874 0.0
C135 C 0.05037 0.74324 0.78451 0.0
O136 O 0.01799 0.6878 0.87079 0.0
O137 O 0.00636 0.731 0.85117 0.0
O138 O 0.02311 0.73796 0.77831 0.0
O139 O 0.06295 0.72435 0.80412 0.0
C140 C 0.05955 0.64872 0.80354 0.0
O141 O 0.98884 0.68581 0.7678 0.0
O142 O 0.97555 0.67459 0.81949 0.0
In143 In 0.7957 0.02632 0.30905 0.0
O144 O 0.80709 0.9886 0.27049 0.0
O145 O 0.82639 0.98686 0.32111 0.0
C146 C 0.74481 0.03596 0.27245 0.0
C147 C 0.83006 0.07554 0.29913 0.0
C148 C 0.78122 0.02305 0.37729 0.0
O149 O 0.77037 0.0417 0.26012 0.0
O150 O 0.74507 0.02456 0.30259 0.0
O151 O 0.8013 0.04048 0.36603 0.0
O152 O 0.76873 0.00715 0.35421 0.0
C153 C 0.82396 0.97479 0.29147 0.0
O154 O 0.80322 0.07692 0.30924 0.0
O155 O 0.83977 0.04927 0.29428 0.0
In156 In 0.46833 0.69369 0.17902 0.0
O157 O 0.43083 0.66229 0.16153 0.0
O158 O 0.4496 0.65535 0.21194 0.0
C159 C 0.4771 0.71237 0.11287 0.0
C160 C 0.52193 0.67311 0.20132 0.0
C161 C 0.44037 0.74105 0.20885 0.0
O162 O 0.46983 0.68574 0.12024 0.0
O163 O 0.48023 0.72951 0.1389 0.0
O164 O 0.46853 0.73849 0.20887 0.0
O165 O 0.42665 0.7197 0.19436 0.0
C166 C 0.43062 0.64717 0.18942 0.0
O167 O 0.5033 0.68519 0.22174 0.0
O168 O 0.51379 0.67208 0.1698 0.0
In169 In 0.79497 0.4709 0.68728 0.0
O170 O 0.80098 0.51376 0.72009 0.0
O171 O 0.83412 0.50317 0.68246 0.0
C172 C 0.73967 0.46484 0.71484 0.0
C173 C 0.82765 0.42215 0.70639 0.0
C174 C 0.7822 0.47253 0.61853 0.0
O175 O 0.76277 0.46735 0.73369 0.0
O176 O 0.74444 0.46652 0.68239 0.0
O177 O 0.78783 0.44833 0.63449 0.0
O178 O 0.78297 0.49585 0.63731 0.0
C179 C 0.82521 0.52114 0.70558 0.0
O180 O 0.83589 0.43968 0.68242 0.0
O181 O 0.80324 0.42922 0.72053 0.0
In182 In 0.02854 0.80677 0.18898 0.0
O183 O 0.06564 0.83737 0.16884 0.0
O184 O 0.04807 0.84625 0.21945 0.0
C185 C 0.01767 0.78694 0.1237 0.0
C186 C 0.97559 0.82807 0.21231 0.0
C187 C 0.057 0.76004 0.21949 0.0
O188 O 0.02586 0.81349 0.13009 0.0
O189 O 0.01495 0.77036 0.15026 0.0
O190 O 0.02882 0.76227 0.21931 0.0
O191 O 0.07053 0.78142 0.20485 0.0
C192 C 0.06649 0.85355 0.19592 0.0
O193 O 0.99476 0.81669 0.23261 0.0
O194 O 0.98294 0.82813 0.18053 0.0
In195 In 0.7 0.02382 0.6956 0.0
O196 O 0.6858 0.98782 0.73507 0.0
O197 O 0.68016 0.97834 0.68116 0.0
C198 C 0.74813 0.03483 0.73626 0.0
C199 C 0.66021 0.06958 0.70043 0.0
C200 C 0.71796 0.02345 0.62839 0.0
O201 O 0.74785 0.01433 0.71346 0.0
O202 O 0.72384 0.04902 0.73934 0.0
O203 O 0.69123 0.01824 0.63723 0.0
O204 O 0.73555 0.02889 0.65341 0.0
C205 C 0.67691 0.96949 0.71218 0.0
O206 O 0.68425 0.07139 0.68338 0.0
O207 O 0.65602 0.04459 0.71507 0.0
H208 H 0.44562 0.13919 0.1569 0.0
H209 H 0.36029 0.06266 0.31584 0.0
H210 H 0.45479 0.16923 0.2637 0.0
H211 H 0.33673 0.04688 0.2079 0.0
H212 H 0.39371 0.10302 0.2973 0.0
H213 H 0.4043 0.10671 0.17473 0.0
C214 C 0.4387 0.13917 0.18407 0.0
C215 C 0.45376 0.15671 0.20895 0.0
C216 C 0.38102 0.09095 0.27767 0.0
C217 C 0.40675 0.11936 0.2296 0.0
C218 C 0.36201 0.06786 0.28823 0.0
C219 C 0.34594 0.05127 0.26331 0.0
C220 C 0.38429 0.09727 0.24188 0.0
C221 C 0.34883 0.05906 0.22793 0.0
C222 C 0.41509 0.12065 0.19422 0.0
C223 C 0.44381 0.15597 0.24373 0.0
N224 N 0.36792 0.0813 0.21821 0.0
N225 N 0.42114 0.13728 0.25312 0.0
H226 H 0.34491 0.43422 0.67183 0.0
H227 H 0.43803 0.36132 0.82698 0.0
H228 H 0.32705 0.45249 0.78072 0.0
H229 H 0.44255 0.32924 0.72059 0.0
H230 H 0.39552 0.39291 0.81101 0.0
H231 H 0.3789 0.39392 0.68922 0.0
C232 C 0.34796 0.42955 0.69942 0.0
C233 C 0.3334 0.44686 0.72492 0.0
C234 C 0.40554 0.37872 0.79121 0.0
C235 C 0.37241 0.40098 0.745 0.0
C236 C 0.42984 0.36071 0.80031 0.0
C237 C 0.44395 0.34289 0.77496 0.0
C238 C 0.39554 0.37923 0.75639 0.0
C239 C 0.43234 0.34277 0.74088 0.0
C240 C 0.36731 0.4065 0.70933 0.0
C241 C 0.33798 0.43976 0.76025 0.0
N242 N 0.40902 0.361 0.73245 0.0
N243 N 0.35737 0.41757 0.76927 0.0
H244 H 0.06993 0.34706 0.17194 0.0
H245 H 0.13483 0.44508 0.32888 0.0
H246 H 0.03968 0.3391 0.27874 0.0
H247 H 0.17086 0.44723 0.22418 0.0
H248 H 0.10286 0.40306 0.31207 0.0
H249 H 0.11028 0.38003 0.19151 0.0
C250 C 0.07205 0.35193 0.1996 0.0
C251 C 0.05128 0.34061 0.22374 0.0
C252 C 0.11792 0.41251 0.29281 0.0
C253 C 0.09714 0.37862 0.24627 0.0
C254 C 0.13613 0.43656 0.30237 0.0
C255 C 0.15527 0.44982 0.27775 0.0
C256 C 0.11865 0.40179 0.25827 0.0
C257 C 0.15626 0.43775 0.24389 0.0
C258 C 0.09506 0.3708 0.21075 0.0
C259 C 0.05514 0.3475 0.25925 0.0
N260 N 0.13796 0.41458 0.23503 0.0
N261 N 0.0774 0.36637 0.2694 0.0
H262 H 0.11948 0.0442 0.66058 0.0
H263 H 0.07042 0.15003 0.81713 0.0
H264 H 0.17439 0.05767 0.75214 0.0
H265 H 0.02936 0.15313 0.715 0.0
H266 H 0.11003 0.11806 0.79339 0.0
H267 H 0.08732 0.08546 0.67934 0.0
C268 C 0.12488 0.05603 0.68454 0.0
C269 C 0.14945 0.04738 0.70503 0.0
C270 C 0.0926 0.12607 0.77605 0.0
C271 C 0.11258 0.09447 0.72684 0.0
C272 C 0.06998 0.1443 0.78959 0.0
C273 C 0.04646 0.15399 0.76804 0.0
C274 C 0.09142 0.11713 0.74084 0.0
C275 C 0.04703 0.14603 0.73255 0.0
C276 C 0.10657 0.07966 0.69518 0.0
C277 C 0.15557 0.0636 0.73567 0.0
N278 N 0.06892 0.12772 0.72015 0.0
N279 N 0.13701 0.08615 0.74591 0.0
H280 H 0.55394 0.8168 0.71812 0.0
H281 H 0.65325 0.9284 0.667 0.0
H282 H 0.55749 0.86035 0.81887 0.0
H283 H 0.66412 0.94703 0.77703 0.0
H284 H 0.62078 0.8865 0.6814 0.0
H285 H 0.5973 0.84605 0.69959 0.0
C286 C 0.56396 0.83248 0.73635 0.0
C287 C 0.5518 0.83658 0.76982 0.0
C288 C 0.63075 0.89903 0.70262 0.0
C289 C 0.60086 0.871 0.74857 0.0
C290 C 0.64926 0.92322 0.6943 0.0
C291 C 0.66112 0.9414 0.72087 0.0
C292 C 0.62407 0.89296 0.73788 0.0
C293 C 0.65524 0.93371 0.75573 0.0
C294 C 0.5886 0.8495 0.72566 0.0
C295 C 0.56587 0.85681 0.79262 0.0
N296 N 0.63683 0.91031 0.76318 0.0
N297 N 0.58943 0.87344 0.78145 0.0
H298 H 0.5667 0.64911 0.16166 0.0
H299 H 0.63866 0.56189 0.32267 0.0
H300 H 0.53977 0.66316 0.26882 0.0
H301 H 0.67255 0.55589 0.2172 0.0
H302 H 0.60534 0.6024 0.30431 0.0
H303 H 0.60867 0.61866 0.18208 0.0
C304 C 0.56987 0.64609 0.18954 0.0
C305 C 0.54959 0.65839 0.2136 0.0
C306 C 0.62028 0.59248 0.28523 0.0
C307 C 0.59734 0.62328 0.23716 0.0
C308 C 0.63927 0.56931 0.29569 0.0
C309 C 0.65814 0.55533 0.27131 0.0
C310 C 0.61993 0.60152 0.25004 0.0
C311 C 0.6582 0.56595 0.23678 0.0
C312 C 0.59383 0.62869 0.20119 0.0
C313 C 0.55482 0.65393 0.2494 0.0
N314 N 0.63911 0.5882 0.22707 0.0
N315 N 0.57798 0.6364 0.26009 0.0
H316 H 0.92147 0.65269 0.82426 0.0
H317 H 0.87094 0.54663 0.66931 0.0
H318 H 0.95667 0.66011 0.7195 0.0
H319 H 0.81835 0.5572 0.76318 0.0
H320 H 0.90159 0.58937 0.68686 0.0
H321 H 0.88204 0.61957 0.80227 0.0
C322 C 0.9206 0.64771 0.79653 0.0
C323 C 0.94251 0.65885 0.77369 0.0
C324 C 0.88316 0.5826 0.70349 0.0
C325 C 0.89786 0.62069 0.74851 0.0
C326 C 0.86576 0.5581 0.69357 0.0
C327 C 0.8423 0.54824 0.71503 0.0
C328 C 0.87739 0.59707 0.73541 0.0
C329 C 0.83636 0.56405 0.746 0.0
C330 C 0.8981 0.62882 0.784 0.0
C331 C 0.94029 0.65186 0.73802 0.0
N332 N 0.85408 0.5875 0.75553 0.0
N333 N 0.91864 0.63283 0.7266 0.0
H334 H 0.8594 0.94027 0.33341 0.0
H335 H 0.93017 0.85102 0.17292 0.0
H336 H 0.8278 0.94818 0.22711 0.0
H337 H 0.95883 0.83953 0.27991 0.0
H338 H 0.88854 0.88192 0.19322 0.0
H339 H 0.89192 0.899 0.31543 0.0
C340 C 0.85912 0.93311 0.30632 0.0
C341 C 0.84117 0.94786 0.28159 0.0
C342 C 0.90369 0.87237 0.21234 0.0
C343 C 0.87846 0.90078 0.26079 0.0
C344 C 0.92746 0.85471 0.20076 0.0
C345 C 0.94814 0.84302 0.22477 0.0
C346 C 0.90075 0.87863 0.24818 0.0
C347 C 0.94347 0.84829 0.26052 0.0
C348 C 0.87767 0.90952 0.29608 0.0
C349 C 0.84147 0.93754 0.24694 0.0
N350 N 0.92046 0.86605 0.27113 0.0
N351 N 0.86009 0.91483 0.23748 0.0
H352 H 0.53312 0.3068 0.21494 0.0
H353 H 0.68241 0.37175 0.30254 0.0
H354 H 0.604 0.252 0.25742 0.0
H355 H 0.61238 0.42834 0.26131 0.0
H356 H 0.65176 0.32776 0.29014 0.0
H357 H 0.55929 0.3517 0.23602 0.0
C358 C 0.55397 0.30421 0.22909 0.0
C359 C 0.56653 0.27568 0.23425 0.0
C360 C 0.64295 0.34977 0.28393 0.0
C361 C 0.59664 0.32679 0.25811 0.0
C362 C 0.66049 0.37491 0.29098 0.0
C363 C 0.64999 0.4037 0.28272 0.0
C364 C 0.6147 0.35335 0.2683 0.0
C365 C 0.62135 0.40649 0.26794 0.0
C366 C 0.56894 0.32982 0.241 0.0
C367 C 0.5936 0.27357 0.25268 0.0
N368 N 0.60475 0.38159 0.26098 0.0
N369 N 0.60782 0.29877 0.26371 0.0
H370 H 0.1762 0.5223 0.70313 0.0
H371 H 0.1046 0.63059 0.84718 0.0
H372 H 0.22318 0.55259 0.79528 0.0
H373 H 0.06424 0.61155 0.747 0.0
H374 H 0.14375 0.59374 0.8344 0.0
H375 H 0.13054 0.54581 0.72519 0.0
C376 C 0.17676 0.53339 0.72835 0.0
C377 C 0.20359 0.53589 0.74718 0.0
C378 C 0.12614 0.5974 0.81538 0.0
C379 C 0.15158 0.56317 0.77234 0.0
C380 C 0.1038 0.6184 0.82267 0.0
C381 C 0.08142 0.62439 0.79788 0.0
C382 C 0.12603 0.58227 0.78313 0.0
C383 C 0.08131 0.60785 0.76666 0.0
C384 C 0.15072 0.54694 0.74084 0.0
C385 C 0.20301 0.55039 0.77977 0.0
N386 N 0.10343 0.58772 0.76004 0.0
N387 N 0.1775 0.56385 0.79112 0.0
H388 H 0.8123 0.13403 0.30299 0.0
H389 H 0.96951 0.20099 0.23895 0.0
H390 H 0.88902 0.07867 0.27962 0.0
H391 H 0.8873 0.25175 0.24273 0.0
H392 H 0.94251 0.15705 0.26137 0.0
H393 H 0.84166 0.17854 0.2885 0.0
C394 C 0.8354 0.13126 0.29499 0.0
C395 C 0.84821 0.10262 0.29229 0.0
C396 C 0.93047 0.17788 0.25747 0.0
C397 C 0.88197 0.15349 0.27563 0.0
C398 C 0.94587 0.20296 0.24482 0.0
C399 C 0.93056 0.22996 0.23882 0.0
C400 C 0.89963 0.17998 0.26436 0.0
C401 C 0.89994 0.23131 0.24679 0.0
C402 C 0.85215 0.15668 0.28666 0.0
C403 C 0.87825 0.10035 0.28187 0.0
N404 N 0.88548 0.20667 0.25905 0.0
N405 N 0.89412 0.12548 0.27381 0.0
H406 H 0.2754 0.95886 0.76896 0.0
H407 H 0.42353 0.8689 0.71485 0.0
H408 H 0.29933 0.93578 0.66296 0.0
H409 H 0.39131 0.87479 0.82106 0.0
H410 H 0.38326 0.90238 0.69631 0.0
H411 H 0.32281 0.93696 0.78921 0.0
C412 C 0.29083 0.94961 0.74995 0.0
C413 C 0.28338 0.94879 0.71432 0.0
C414 C 0.38514 0.89658 0.72374 0.0
C415 C 0.33734 0.92383 0.73714 0.0
C416 C 0.40816 0.87751 0.73434 0.0
C417 C 0.41052 0.86879 0.76946 0.0
C418 C 0.36427 0.90698 0.74843 0.0
C419 C 0.39011 0.88077 0.79365 0.0
C420 C 0.31778 0.93703 0.76149 0.0
C421 C 0.30409 0.93656 0.69073 0.0
N422 N 0.36764 0.89908 0.78263 0.0
N423 N 0.33003 0.92441 0.70257 0.0
H424 H 0.52501 0.1932 0.7748 0.0
H425 H 0.66526 0.12519 0.67127 0.0
H426 H 0.58852 0.24625 0.71645 0.0
H427 H 0.60815 0.07234 0.73826 0.0
H428 H 0.63297 0.16856 0.68111 0.0
H429 H 0.55057 0.14756 0.75501 0.0
C430 C 0.54405 0.19521 0.7574 0.0
C431 C 0.55484 0.22352 0.74746 0.0
C432 C 0.62735 0.14745 0.69352 0.0
C433 C 0.58425 0.17156 0.72499 0.0
C434 C 0.64578 0.12267 0.68789 0.0
C435 C 0.63951 0.09522 0.70424 0.0
C436 C 0.60245 0.14484 0.71575 0.0
C437 C 0.61388 0.09318 0.72533 0.0
C438 C 0.5587 0.16918 0.74626 0.0
C439 C 0.57959 0.22488 0.72495 0.0
N440 N 0.59638 0.11774 0.7307 0.0
N441 N 0.59357 0.19929 0.71469 0.0
H442 H 0.38424 0.62927 0.1476 0.0
H443 H 0.31208 0.52718 0.29721 0.0
H444 H 0.42624 0.61122 0.24708 0.0
H445 H 0.26486 0.55499 0.20419 0.0
H446 H 0.35791 0.54921 0.27367 0.0
H447 H 0.34426 0.59404 0.16269 0.0
C448 C 0.38523 0.61761 0.17244 0.0
C449 C 0.40835 0.62343 0.19634 0.0
C450 C 0.33763 0.55014 0.25817 0.0
C451 C 0.36273 0.58321 0.21378 0.0
C452 C 0.31148 0.53745 0.27153 0.0
C453 C 0.28455 0.53963 0.2528 0.0
C454 C 0.33682 0.5652 0.2259 0.0
C455 C 0.2851 0.55306 0.21961 0.0
C456 C 0.3624 0.59754 0.18105 0.0
C457 C 0.40865 0.60761 0.22805 0.0
N458 N 0.31074 0.56568 0.20739 0.0
N459 N 0.38602 0.58842 0.23599 0.0
H460 H 0.81149 0.37995 0.75419 0.0
H461 H 0.96304 0.28484 0.74112 0.0
H462 H 0.88266 0.40328 0.6829 0.0
H463 H 0.8831 0.25456 0.79373 0.0
H464 H 0.93579 0.32975 0.72154 0.0
H465 H 0.8394 0.33542 0.77161 0.0
C466 C 0.83304 0.37568 0.74219 0.0
C467 C 0.84477 0.39529 0.71702 0.0
C468 C 0.92426 0.31317 0.73726 0.0
C469 C 0.87697 0.34424 0.73689 0.0
C470 C 0.93977 0.2876 0.74842 0.0
C471 C 0.92529 0.26598 0.76907 0.0
C472 C 0.89421 0.31716 0.74713 0.0
C473 C 0.89515 0.27062 0.77783 0.0
C474 C 0.84896 0.35018 0.75209 0.0
C475 C 0.87282 0.38866 0.70237 0.0
N476 N 0.8807 0.29571 0.76696 0.0
N477 N 0.88805 0.36367 0.71258 0.0
H478 H 0.11076 0.87076 0.15083 0.0
H479 H 0.18808 0.97794 0.29187 0.0
H480 H 0.07294 0.89114 0.25196 0.0
H481 H 0.23132 0.94804 0.19712 0.0
H482 H 0.14146 0.95496 0.27191 0.0
H483 H 0.15074 0.90701 0.16207 0.0
C484 C 0.11069 0.88312 0.17524 0.0
C485 C 0.08875 0.87768 0.20071 0.0
C486 C 0.16101 0.95381 0.25523 0.0
C487 C 0.1344 0.91911 0.21376 0.0
C488 C 0.18761 0.96707 0.26652 0.0
C489 C 0.21369 0.96453 0.24631 0.0
C490 C 0.16054 0.93784 0.22354 0.0
C491 C 0.21177 0.95028 0.21365 0.0
C492 C 0.13352 0.9038 0.18165 0.0
C493 C 0.0896 0.89445 0.23177 0.0
N494 N 0.18574 0.93711 0.20347 0.0
N495 N 0.11223 0.91421 0.23756 0.0
H496 H 0.29943 0.62848 0.71927 0.0
H497 H 0.46261 0.70015 0.74383 0.0
H498 H 0.38061 0.57676 0.70862 0.0
H499 H 0.37986 0.74568 0.76784 0.0
H500 H 0.4337 0.65595 0.72542 0.0
H501 H 0.3293 0.67293 0.7317 0.0
C502 C 0.3236 0.6265 0.71947 0.0
C503 C 0.33757 0.59887 0.71308 0.0
C504 C 0.42194 0.67569 0.7346 0.0
C505 C 0.37204 0.6498 0.72737 0.0
C506 C 0.4384 0.7009 0.74499 0.0
C507 C 0.42358 0.72652 0.75751 0.0
C508 C 0.39052 0.6763 0.7366 0.0
C509 C 0.39221 0.72635 0.75853 0.0
C510 C 0.34068 0.65192 0.72661 0.0
C511 C 0.36898 0.59766 0.71355 0.0
N512 N 0.37677 0.70166 0.7483 0.0
N513 N 0.38521 0.62279 0.72068 0.0
H514 H 0.9312 0.3923 0.24451 0.0
H515 H 0.76322 0.43915 0.20026 0.0
H516 H 0.88205 0.35849 0.15563 0.0
H517 H 0.81362 0.47521 0.28696 0.0
H518 H 0.80874 0.41502 0.1786 0.0
H519 H 0.89074 0.4279 0.25588 0.0
C520 C 0.91201 0.39259 0.22717 0.0
C521 C 0.90978 0.3722 0.19934 0.0
C522 C 0.80996 0.42856 0.20209 0.0
C523 C 0.8633 0.41273 0.21229 0.0
C524 C 0.78399 0.44242 0.2144 0.0
C525 C 0.7846 0.45889 0.24567 0.0
C526 C 0.83665 0.43102 0.22136 0.0
C527 C 0.81211 0.4625 0.26288 0.0
C528 C 0.88892 0.41294 0.23365 0.0
C529 C 0.88454 0.37368 0.17756 0.0
N530 N 0.83696 0.44833 0.25075 0.0
N531 N 0.86212 0.39336 0.18472 0.0
H532 H 0.03097 0.78447 0.73616 0.0
H533 H 0.17383 0.89043 0.76075 0.0
H534 H 0.10585 0.76287 0.80293 0.0
H535 H 0.11381 0.89882 0.6728 0.0
H536 H 0.14576 0.84657 0.78046 0.0
H537 H 0.05792 0.82926 0.71592 0.0
C538 C 0.05306 0.78914 0.74649 0.0
C539 C 0.06624 0.76996 0.7712 0.0
C540 C 0.13871 0.85798 0.75684 0.0
C541 C 0.09693 0.82107 0.74854 0.0
C542 C 0.15465 0.88309 0.74566 0.0
C543 C 0.14615 0.8982 0.71506 0.0
C544 C 0.11389 0.84803 0.73748 0.0
C545 C 0.12114 0.88771 0.69649 0.0
C546 C 0.06842 0.81463 0.73493 0.0
C547 C 0.09489 0.77701 0.78378 0.0
N548 N 0.1058 0.86326 0.70804 0.0
N549 N 0.1092 0.80205 0.77244 0.0
H550 H 0.61814 0.13698 0.15037 0.0
H551 H 0.68773 0.02929 0.29653 0.0
H552 H 0.57485 0.11584 0.24823 0.0
H553 H 0.73818 0.06435 0.20937 0.0
H554 H 0.64247 0.05203 0.2724 0.0
H555 H 0.65844 0.10197 0.16523 0.0
C556 C 0.61692 0.12466 0.17476 0.0
C557 C 0.59335 0.12955 0.19833 0.0
C558 C 0.66336 0.05445 0.25831 0.0
C559 C 0.63928 0.08959 0.21545 0.0
C560 C 0.68919 0.04139 0.272 0.0
C561 C 0.7168 0.0453 0.25513 0.0
C562 C 0.66516 0.07157 0.22755 0.0
C563 C 0.71737 0.06103 0.22335 0.0
C564 C 0.63995 0.10476 0.18325 0.0
C565 C 0.59279 0.11295 0.22949 0.0
N566 N 0.69197 0.07389 0.21076 0.0
N567 N 0.61555 0.09388 0.23727 0.0
H568 H 0.38017 0.74906 0.21415 0.0
H569 H 0.39067 0.91936 0.28003 0.0
H570 H 0.46424 0.79324 0.23519 0.0
H571 H 0.30793 0.87091 0.26567 0.0
H572 H 0.41845 0.87365 0.26482 0.0
H573 H 0.35369 0.79364 0.23417 0.0
C574 C 0.39308 0.76814 0.22319 0.0
C575 C 0.42446 0.76748 0.22295 0.0
C576 C 0.39422 0.87304 0.26516 0.0
C577 C 0.39421 0.81885 0.2458 0.0
C578 C 0.37838 0.89909 0.27381 0.0
C579 C 0.34696 0.89891 0.27402 0.0
C580 C 0.37848 0.84672 0.25656 0.0
C581 C 0.33213 0.87208 0.26579 0.0
C582 C 0.37793 0.79364 0.23463 0.0
C583 C 0.44001 0.79284 0.23497 0.0
N584 N 0.34801 0.84715 0.2573 0.0
N585 N 0.42472 0.81761 0.24577 0.0
H586 H 0.72506 0.45082 0.78251 0.0
H587 H 0.56834 0.38017 0.72527 0.0
H588 H 0.68725 0.45877 0.67902 0.0
H589 H 0.60631 0.36993 0.82841 0.0
H590 H 0.60813 0.41559 0.71073 0.0
H591 H 0.67822 0.42818 0.80272 0.0
C592 C 0.70671 0.44831 0.76421 0.0
C593 C 0.71013 0.45633 0.72896 0.0
C594 C 0.60763 0.40586 0.73668 0.0
C595 C 0.65671 0.43018 0.75172 0.0
C596 C 0.58491 0.38562 0.74498 0.0
C597 C 0.58427 0.37184 0.77794 0.0
C598 C 0.63002 0.41221 0.76144 0.0
C599 C 0.60614 0.37989 0.80258 0.0
C600 C 0.68002 0.43528 0.77571 0.0
C601 C 0.68565 0.45263 0.70636 0.0
N602 N 0.62834 0.39931 0.7937 0.0
N603 N 0.66012 0.43951 0.71803 0.0
H604 H 0.1092 0.58066 0.28246 0.0
H605 H 0.11711 0.75383 0.22848 0.0
H606 H 0.19031 0.63326 0.28347 0.0
H607 H 0.03366 0.70665 0.24276 0.0
H608 H 0.14407 0.70949 0.24856 0.0
H609 H 0.08079 0.62605 0.26774 0.0
C610 C 0.12099 0.60177 0.2797 0.0
C611 C 0.15215 0.60322 0.28407 0.0
C612 C 0.11985 0.70881 0.24754 0.0
C613 C 0.11991 0.65507 0.26718 0.0
C614 C 0.10444 0.73415 0.23605 0.0
C615 C 0.07311 0.73387 0.23389 0.0
C616 C 0.10388 0.68282 0.25668 0.0
C617 C 0.05784 0.70778 0.24409 0.0
C618 C 0.10478 0.62765 0.27137 0.0
C619 C 0.16632 0.63111 0.28027 0.0
N620 N 0.07339 0.68317 0.25483 0.0
N621 N 0.15013 0.65587 0.27188 0.0
H622 H 0.92529 0.10209 0.75653 0.0
H623 H 0.75329 0.07359 0.79127 0.0
H624 H 0.87873 0.13887 0.84566 0.0
H625 H 0.8057 0.01822 0.72179 0.0
H626 H 0.79948 0.09548 0.81417 0.0
H627 H 0.88264 0.06901 0.74543 0.0
C628 C 0.90622 0.10292 0.774 0.0
C629 C 0.90536 0.12343 0.80182 0.0
C630 C 0.80094 0.07819 0.79433 0.0
C631 C 0.8564 0.08595 0.7891 0.0
C632 C 0.77457 0.0657 0.78126 0.0
C633 C 0.77571 0.0443 0.75439 0.0
C634 C 0.82859 0.06958 0.77997 0.0
C635 C 0.80384 0.03477 0.74243 0.0
C636 C 0.88191 0.084 0.76772 0.0
C637 C 0.88021 0.12349 0.82379 0.0
N638 N 0.82918 0.04785 0.7549 0.0
N639 N 0.85653 0.10535 0.81666 0.0
H640 H 0.48257 0.23715 0.07833 0.0
H641 H 0.57661 0.27261 0.90502 0.0
H642 H 0.57808 0.22431 0.07013 0.0
H643 H 0.48004 0.2719 0.90848 0.0
H644 H 0.57781 0.2575 0.96648 0.0
H645 H 0.48136 0.25278 0.01701 0.0
C646 C 0.50329 0.23769 0.06362 0.0
C647 C 0.53047 0.22941 0.07924 0.0
C648 C 0.55635 0.2606 0.95379 0.0
C649 C 0.52927 0.24724 0.00922 0.0
C650 C 0.55566 0.26924 0.91874 0.0
C651 C 0.52818 0.27347 0.90171 0.0
C652 C 0.52936 0.25633 0.97196 0.0
C653 C 0.50171 0.26882 0.92066 0.0
C654 C 0.50258 0.24654 0.02862 0.0
C655 C 0.55665 0.23048 0.05903 0.0
N656 N 0.50295 0.26056 0.95483 0.0
N657 N 0.55541 0.23927 0.02505 0.0
H658 H 0.23195 0.47606 0.41259 0.0
H659 H 0.26776 0.57176 0.5841 0.0
H660 H 0.21833 0.5718 0.4192 0.0
H661 H 0.25565 0.47566 0.58568 0.0
H662 H 0.25416 0.57217 0.52214 0.0
H663 H 0.24506 0.47536 0.47477 0.0
C664 C 0.23172 0.49692 0.42716 0.0
C665 C 0.22405 0.52403 0.41083 0.0
C666 C 0.25443 0.55101 0.53606 0.0
C667 C 0.23918 0.52343 0.48169 0.0
C668 C 0.26228 0.55074 0.57136 0.0
C669 C 0.2628 0.52363 0.58995 0.0
C670 C 0.24737 0.52392 0.51918 0.0
C671 C 0.25545 0.49705 0.57225 0.0
C672 C 0.23912 0.49649 0.46261 0.0
C673 C 0.22405 0.55041 0.43085 0.0
N674 N 0.24814 0.49784 0.53775 0.0
N675 N 0.23164 0.54948 0.46524 0.0
H676 H 0.98135 0.31704 0.06299 0.0
H677 H 0.98469 0.17509 0.93582 0.0
H678 H 0.98901 0.22582 0.09988 0.0
H679 H 0.99163 0.26652 0.89948 0.0
H680 H 0.9877 0.19309 -0.00386 0.0
H681 H 0.98618 0.29899 0.00289 0.0
C682 C 0.98417 0.29321 0.05841 0.0
C683 C 0.98461 0.27285 0.08637 0.0
C684 C 0.98884 0.2092 0.97498 0.0
C685 C 0.99004 0.25202 0.01774 0.0
C686 C 0.98712 0.19894 0.94056 0.0
C687 C 0.98774 0.21939 0.91269 0.0
C688 C 0.99089 0.24016 0.98154 0.0
C689 C 0.991 0.25002 0.92025 0.0
C690 C 0.987 0.28292 0.02412 0.0
C691 C 0.98846 0.24225 0.07902 0.0
N692 N 0.99218 0.25951 0.95399 0.0
N693 N 0.99081 0.23272 0.04537 0.0
H694 H 0.27749 0.92879 0.40614 0.0
H695 H 0.23006 0.02454 0.57384 0.0
H696 H 0.26757 0.02512 0.4034 0.0
H697 H 0.21415 0.92938 0.56372 0.0
H698 H 0.24851 0.02549 0.51343 0.0
H699 H 0.25963 0.92877 0.46657 0.0
C700 C 0.27171 0.94995 0.41835 0.0
C701 C 0.27392 0.97699 0.3998 0.0
C702 C 0.24084 0.00446 0.52444 0.0
C703 C 0.25348 0.97715 0.46881 0.0
C704 C 0.23033 0.00391 0.55884 0.0
C705 C 0.22053 0.97685 0.57369 0.0
C706 C 0.24188 0.9777 0.50505 0.0
C707 C 0.22139 0.95074 0.55321 0.0
C708 C 0.26138 0.94992 0.45275 0.0
C709 C 0.26609 0.00378 0.41682 0.0
N710 N 0.23205 0.95178 0.51999 0.0
N711 N 0.25624 0.0032 0.45045 0.0
H712 H 0.49061 0.72554 0.88758 0.0
H713 H 0.48422 0.77 0.09015 0.0
H714 H 0.47009 0.81479 0.92439 0.0
H715 H 0.47773 0.67869 0.05315 0.0
H716 H 0.48701 0.78727 0.02949 0.0
H717 H 0.49376 0.70847 0.94836 0.0
C718 C 0.48694 0.74156 0.90847 0.0
C719 C 0.47991 0.77157 0.90105 0.0
C720 C 0.48507 0.76346 0.03468 0.0
C721 C 0.48361 0.75228 0.97038 0.0
C722 C 0.48358 0.75359 0.06925 0.0
C723 C 0.48056 0.7229 0.07658 0.0
C724 C 0.48379 0.74246 0.00732 0.0
C725 C 0.47987 0.70257 0.04856 0.0
C726 C 0.48866 0.7318 0.94309 0.0
C727 C 0.47538 0.79142 0.92903 0.0
N728 N 0.48144 0.71272 0.01511 0.0
N729 N 0.4773 0.78142 0.96251 0.0
H730 H 0.77042 0.42511 0.57546 0.0
H731 H 0.74363 0.52582 0.40533 0.0
H732 H 0.7751 0.52186 0.57691 0.0
H733 H 0.71586 0.4333 0.41348 0.0
H734 H 0.75962 0.52433 0.46664 0.0
H735 H 0.75511 0.42707 0.51409 0.0
C736 C 0.76834 0.44675 0.56279 0.0
C737 C 0.77397 0.47337 0.58122 0.0
C738 C 0.74993 0.50441 0.455 0.0
C739 C 0.75651 0.47579 0.51114 0.0
C740 C 0.74085 0.50524 0.42006 0.0
C741 C 0.72839 0.47965 0.40442 0.0
C742 C 0.74681 0.47771 0.47419 0.0
C743 C 0.72529 0.45356 0.4246 0.0
C744 C 0.75949 0.44787 0.52784 0.0
C745 C 0.77088 0.50082 0.56361 0.0
N746 N 0.73456 0.45321 0.45841 0.0
N747 N 0.76241 0.50134 0.52947 0.0
H748 H 0.006 0.72951 0.10273 0.0
H749 H -0.00035 0.77174 0.89936 0.0
H750 H 0.01706 0.81959 0.06329 0.0
H751 H 0.01006 0.68122 0.93768 0.0
H752 H 0.99774 0.78975 0.9598 0.0
H753 H -0.00049 0.71157 0.0427 0.0
C754 C 0.0069 0.74552 0.08143 0.0
C755 C 0.01229 0.77602 0.08787 0.0
C756 C 0.00024 0.76592 0.95496 0.0
C757 C 0.00481 0.75573 0.01933 0.0
C758 C 0.00121 0.75563 0.92051 0.0
C759 C 0.00524 0.72499 0.91361 0.0
C760 C 0.00315 0.74538 0.98261 0.0
C761 C 0.00713 0.70507 0.94192 0.0
C762 C 0.00323 0.73527 0.04721 0.0
C763 C 0.01315 0.79584 0.05939 0.0
N764 N 0.00619 0.71563 0.97523 0.0
N765 N 0.00952 0.78533 0.02631 0.0
H766 H 0.77213 0.04093 0.60241 0.0
H767 H 0.73389 0.99319 0.4059 0.0
H768 H 0.6865 0.00504 0.57098 0.0
H769 H 0.80838 0.05037 0.43293 0.0
H770 H 0.71868 0.99269 0.46733 0.0
H771 H 0.78824 0.04016 0.54124 0.0
C772 C 0.75674 0.03286 0.58261 0.0
C773 C 0.72793 0.02309 0.59166 0.0
C774 C 0.73835 0.00534 0.45982 0.0
C775 C 0.74623 0.02198 0.52185 0.0
C776 C 0.7471 0.00555 0.42482 0.0
C777 C 0.77239 0.0219 0.4144 0.0
C778 C 0.75517 0.02138 0.48459 0.0
C779 C 0.78868 0.03755 0.43991 0.0
C780 C 0.76592 0.03249 0.54774 0.0
C781 C 0.70887 0.01287 0.56505 0.0
N782 N 0.77982 0.03687 0.4739 0.0
N783 N 0.7184 0.01249 0.53131 0.0
loop_
_geom_bond_atom_site_label_1
_geom_bond_atom_site_label_2
_geom_bond_distance
_geom_bond_site_symmetry_2
_ccdc_geom_bond_type
In0 O1 2.294 . S
In0 O2 2.326 . S
In0 O6 2.266 . S
In0 O7 2.326 . S
In0 O8 2.266 . S
In0 O9 2.326 . S
In0 O11 2.294 . S
In0 O12 2.326 . S
O1 In0 2.294 . S
O1 C10 1.240 . S
O2 In0 2.326 . S
O2 C10 1.252 . S
C3 O6 1.252 . S
C3 O7 1.260 . S
C4 O11 1.240 . S
C4 O12 1.252 . S
C5 O8 1.252 . S
C5 O9 1.260 . S
O6 In0 2.266 . S
O6 C3 1.252 . S
O7 In0 2.326 . S
O7 C3 1.260 . S
O8 In0 2.266 . S
O8 C5 1.252 . S
O9 In0 2.326 . S
O9 C5 1.260 . S
C10 O1 1.240 . S
C10 O2 1.252 . S
O11 In0 2.294 . S
O11 C4 1.240 . S
O12 In0 2.326 . S
O12 C4 1.252 . S
In13 O14 2.294 . S
In13 O15 2.326 . S
In13 O19 2.266 . S
In13 O20 2.326 . S
In13 O21 2.266 . S
In13 O22 2.326 . S
In13 O24 2.294 . S
In13 O25 2.326 . S
O14 In13 2.294 . S
O14 C23 1.240 . S
O15 In13 2.326 . S
O15 C23 1.252 . S
C16 O19 1.252 . S
C16 O20 1.260 . S
C17 O24 1.240 . S
C17 O25 1.252 . S
C18 O21 1.252 . S
C18 O22 1.260 . S
O19 In13 2.266 . S
O19 C16 1.252 . S
O20 In13 2.326 . S
O20 C16 1.260 . S
O21 In13 2.266 . S
O21 C18 1.252 . S
O22 In13 2.326 . S
O22 C18 1.260 . S
C23 O14 1.240 . S
C23 O15 1.252 . S
O24 In13 2.294 . S
O24 C17 1.240 . S
O25 In13 2.326 . S
O25 C17 1.252 . S
In26 O27 2.294 1_655 S
In26 O28 2.326 1_655 S
In26 O32 2.266 . S
In26 O33 2.326 . S
In26 O34 2.266 . S
In26 O35 2.326 1_655 S
In26 O37 2.294 . S
In26 O38 2.326 . S
O27 In26 2.294 1_455 S
O27 C36 1.240 . S
O28 In26 2.326 1_455 S
O28 C36 1.252 . S
C29 O32 1.252 . S
C29 O33 1.260 . S
C30 O37 1.240 . S
C30 O38 1.252 . S
C31 O34 1.252 . S
C31 O35 1.260 1_655 S
O32 In26 2.266 . S
O32 C29 1.252 . S
O33 In26 2.326 . S
O33 C29 1.260 . S
O34 In26 2.266 . S
O34 C31 1.252 . S
O35 In26 2.326 1_455 S
O35 C31 1.260 1_455 S
C36 O27 1.240 . S
C36 O28 1.252 . S
O37 In26 2.294 . S
O37 C30 1.240 . S
O38 In26 2.326 . S
O38 C30 1.252 . S
In39 O40 2.294 1_565 S
In39 O41 2.326 1_565 S
In39 O45 2.266 . S
In39 O46 2.326 . S
In39 O47 2.266 . S
In39 O48 2.326 1_565 S
In39 O50 2.294 . S
In39 O51 2.326 . S
O40 In39 2.294 1_545 S
O40 C49 1.240 . S
O41 In39 2.326 1_545 S
O41 C49 1.252 . S
C42 O45 1.252 . S
C42 O46 1.260 . S
C43 O50 1.240 . S
C43 O51 1.252 . S
C44 O47 1.252 . S
C44 O48 1.260 1_565 S
O45 In39 2.266 . S
O45 C42 1.252 . S
O46 In39 2.326 . S
O46 C42 1.260 . S
O47 In39 2.266 . S
O47 C44 1.252 . S
O48 In39 2.326 1_545 S
O48 C44 1.260 1_545 S
C49 O40 1.240 . S
C49 O41 1.252 . S
O50 In39 2.294 . S
O50 C43 1.240 . S
O51 In39 2.326 . S
O51 C43 1.252 . S
In52 O53 2.294 . S
In52 O54 2.326 . S
In52 O58 2.266 . S
In52 O59 2.326 . S
In52 O60 2.266 . S
In52 O61 2.326 . S
In52 O63 2.294 . S
In52 O64 2.326 . S
O53 In52 2.294 . S
O53 C62 1.240 . S
O54 In52 2.326 . S
O54 C62 1.252 . S
C55 O58 1.252 . S
C55 O59 1.260 . S
C56 O63 1.240 . S
C56 O64 1.252 . S
C57 O60 1.252 . S
C57 O61 1.260 . S
O58 In52 2.266 . S
O58 C55 1.252 . S
O59 In52 2.326 . S
O59 C55 1.260 . S
O60 In52 2.266 . S
O60 C57 1.252 . S
O61 In52 2.326 . S
O61 C57 1.260 . S
C62 O53 1.240 . S
C62 O54 1.252 . S
O63 In52 2.294 . S
O63 C56 1.240 . S
O64 In52 2.326 . S
O64 C56 1.252 . S
In65 O66 2.294 . S
In65 O67 2.326 . S
In65 O71 2.266 . S
In65 O72 2.326 . S
In65 O73 2.266 . S
In65 O74 2.326 . S
In65 O76 2.294 . S
In65 O77 2.326 . S
O66 In65 2.294 . S
O66 C75 1.240 . S
O67 In65 2.326 . S
O67 C75 1.252 . S
C68 O71 1.252 . S
C68 O72 1.260 . S
C69 O76 1.240 . S
C69 O77 1.252 . S
C70 O73 1.252 . S
C70 O74 1.260 . S
O71 In65 2.266 . S
O71 C68 1.252 . S
O72 In65 2.326 . S
O72 C68 1.260 . S
O73 In65 2.266 . S
O73 C70 1.252 . S
O74 In65 2.326 . S
O74 C70 1.260 . S
C75 O66 1.240 . S
C75 O67 1.252 . S
O76 In65 2.294 . S
O76 C69 1.240 . S
O77 In65 2.326 . S
O77 C69 1.252 . S
In78 O79 2.294 . S
In78 O80 2.326 . S
In78 O84 2.266 . S
In78 O85 2.326 1_655 S
In78 O86 2.266 . S
In78 O87 2.326 . S
In78 O89 2.294 1_655 S
In78 O90 2.326 1_655 S
O79 In78 2.294 . S
O79 C88 1.240 . S
O80 In78 2.326 . S
O80 C88 1.252 . S
C81 O84 1.252 . S
C81 O85 1.260 1_655 S
C82 O89 1.240 . S
C82 O90 1.252 . S
C83 O86 1.252 . S
C83 O87 1.260 . S
O84 In78 2.266 . S
O84 C81 1.252 . S
O85 In78 2.326 1_455 S
O85 C81 1.260 1_455 S
O86 In78 2.266 . S
O86 C83 1.252 . S
O87 In78 2.326 . S
O87 C83 1.260 . S
C88 O79 1.240 . S
C88 O80 1.252 . S
O89 In78 2.294 1_455 S
O89 C82 1.240 . S
O90 In78 2.326 1_455 S
O90 C82 1.252 . S
In91 O92 2.294 . S
In91 O93 2.326 . S
In91 O97 2.266 . S
In91 O98 2.326 1_565 S
In91 O99 2.266 . S
In91 O100 2.326 . S
In91 O102 2.294 1_565 S
In91 O103 2.326 1_565 S
O92 In91 2.294 . S
O92 C101 1.240 . S
O93 In91 2.326 . S
O93 C101 1.252 . S
C94 O97 1.252 . S
C94 O98 1.260 1_565 S
C95 O102 1.240 . S
C95 O103 1.252 . S
C96 O99 1.252 . S
C96 O100 1.260 . S
O97 In91 2.266 . S
O97 C94 1.252 . S
O98 In91 2.326 1_545 S
O98 C94 1.260 1_545 S
O99 In91 2.266 . S
O99 C96 1.252 . S
O100 In91 2.326 . S
O100 C96 1.260 . S
C101 O92 1.240 . S
C101 O93 1.252 . S
O102 In91 2.294 1_545 S
O102 C95 1.240 . S
O103 In91 2.326 1_545 S
O103 C95 1.252 . S
In104 O105 2.294 . S
In104 O106 2.326 . S
In104 O110 2.266 . S
In104 O111 2.326 . S
In104 O112 2.266 . S
In104 O113 2.326 . S
In104 O115 2.294 . S
In104 O116 2.326 . S
O105 In104 2.294 . S
O105 C114 1.240 . S
O106 In104 2.326 . S
O106 C114 1.252 . S
C107 O110 1.252 . S
C107 O111 1.260 . S
C108 O115 1.240 . S
C108 O116 1.252 . S
C109 O112 1.252 . S
C109 O113 1.260 . S
O110 In104 2.266 . S
O110 C107 1.252 . S
O111 In104 2.326 . S
O111 C107 1.260 . S
O112 In104 2.266 . S
O112 C109 1.252 . S
O113 In104 2.326 . S
O113 C109 1.260 . S
C114 O105 1.240 . S
C114 O106 1.252 . S
O115 In104 2.294 . S
O115 C108 1.240 . S
O116 In104 2.326 . S
O116 C108 1.252 . S
In117 O118 2.294 . S
In117 O119 2.326 . S
In117 O123 2.266 . S
In117 O124 2.326 . S
In117 O125 2.266 . S
In117 O126 2.326 . S
In117 O128 2.294 . S
In117 O129 2.326 . S
O118 In117 2.294 . S
O118 C127 1.240 . S
O119 In117 2.326 . S
O119 C127 1.252 . S
C120 O123 1.252 . S
C120 O124 1.260 . S
C121 O128 1.240 . S
C121 O129 1.252 . S
C122 O125 1.252 . S
C122 O126 1.260 . S
O123 In117 2.266 . S
O123 C120 1.252 . S
O124 In117 2.326 . S
O124 C120 1.260 . S
O125 In117 2.266 . S
O125 C122 1.252 . S
O126 In117 2.326 . S
O126 C122 1.260 . S
C127 O118 1.240 . S
C127 O119 1.252 . S
O128 In117 2.294 . S
O128 C121 1.240 . S
O129 In117 2.326 . S
O129 C121 1.252 . S
In130 O131 2.294 . S
In130 O132 2.326 . S
In130 O136 2.266 . S
In130 O137 2.326 1_455 S
In130 O138 2.266 . S
In130 O139 2.326 . S
In130 O141 2.294 1_455 S
In130 O142 2.326 1_455 S
O131 In130 2.294 . S
O131 C140 1.240 . S
O132 In130 2.326 . S
O132 C140 1.252 . S
C133 O136 1.252 . S
C133 O137 1.260 1_455 S
C134 O141 1.240 . S
C134 O142 1.252 . S
C135 O138 1.252 . S
C135 O139 1.260 . S
O136 In130 2.266 . S
O136 C133 1.252 . S
O137 In130 2.326 1_655 S
O137 C133 1.260 1_655 S
O138 In130 2.266 . S
O138 C135 1.252 . S
O139 In130 2.326 . S
O139 C135 1.260 . S
C140 O131 1.240 . S
C140 O132 1.252 . S
O141 In130 2.294 1_655 S
O141 C134 1.240 . S
O142 In130 2.326 1_655 S
O142 C134 1.252 . S
In143 O144 2.294 1_545 S
In143 O145 2.326 1_545 S
In143 O149 2.266 . S
In143 O150 2.326 . S
In143 O151 2.266 . S
In143 O152 2.326 1_545 S
In143 O154 2.294 . S
In143 O155 2.326 . S
O144 In143 2.294 1_565 S
O144 C153 1.240 . S
O145 In143 2.326 1_565 S
O145 C153 1.252 . S
C146 O149 1.252 . S
C146 O150 1.260 . S
C147 O154 1.240 . S
C147 O155 1.252 . S
C148 O151 1.252 . S
C148 O152 1.260 1_545 S
O149 In143 2.266 . S
O149 C146 1.252 . S
O150 In143 2.326 . S
O150 C146 1.260 . S
O151 In143 2.266 . S
O151 C148 1.252 . S
O152 In143 2.326 1_565 S
O152 C148 1.260 1_565 S
C153 O144 1.240 . S
C153 O145 1.252 . S
O154 In143 2.294 . S
O154 C147 1.240 . S
O155 In143 2.326 . S
O155 C147 1.252 . S
In156 O157 2.294 . S
In156 O158 2.326 . S
In156 O162 2.266 . S
In156 O163 2.326 . S
In156 O164 2.266 . S
In156 O165 2.326 . S
In156 O167 2.294 . S
In156 O168 2.326 . S
O157 In156 2.294 . S
O157 C166 1.240 . S
O158 In156 2.326 . S
O158 C166 1.252 . S
C159 O162 1.252 . S
C159 O163 1.260 . S
C160 O167 1.240 . S
C160 O168 1.252 . S
C161 O164 1.252 . S
C161 O165 1.260 . S
O162 In156 2.266 . S
O162 C159 1.252 . S
O163 In156 2.326 . S
O163 C159 1.260 . S
O164 In156 2.266 . S
O164 C161 1.252 . S
O165 In156 2.326 . S
O165 C161 1.260 . S
C166 O157 1.240 . S
C166 O158 1.252 . S
O167 In156 2.294 . S
O167 C160 1.240 . S
O168 In156 2.326 . S
O168 C160 1.252 . S
In169 O170 2.294 . S
In169 O171 2.326 . S
In169 O175 2.266 . S
In169 O176 2.326 . S
In169 O177 2.266 . S
In169 O178 2.326 . S
In169 O180 2.294 . S
In169 O181 2.326 . S
O170 In169 2.294 . S
O170 C179 1.240 . S
O171 In169 2.326 . S
O171 C179 1.252 . S
C172 O175 1.252 . S
C172 O176 1.260 . S
C173 O180 1.240 . S
C173 O181 1.252 . S
C174 O177 1.252 . S
C174 O178 1.260 . S
O175 In169 2.266 . S
O175 C172 1.252 . S
O176 In169 2.326 . S
O176 C172 1.260 . S
O177 In169 2.266 . S
O177 C174 1.252 . S
O178 In169 2.326 . S
O178 C174 1.260 . S
C179 O170 1.240 . S
C179 O171 1.252 . S
O180 In169 2.294 . S
O180 C173 1.240 . S
O181 In169 2.326 . S
O181 C173 1.252 . S
In182 O183 2.294 . S
In182 O184 2.326 . S
In182 O188 2.266 . S
In182 O189 2.326 1_455 S
In182 O190 2.266 . S
In182 O191 2.326 . S
In182 O193 2.294 1_455 S
In182 O194 2.326 1_455 S
O183 In182 2.294 . S
O183 C192 1.240 . S
O184 In182 2.326 . S
O184 C192 1.252 . S
C185 O188 1.252 . S
C185 O189 1.260 1_455 S
C186 O193 1.240 . S
C186 O194 1.252 . S
C187 O190 1.252 . S
C187 O191 1.260 . S
O188 In182 2.266 . S
O188 C185 1.252 . S
O189 In182 2.326 1_655 S
O189 C185 1.260 1_655 S
O190 In182 2.266 . S
O190 C187 1.252 . S
O191 In182 2.326 . S
O191 C187 1.260 . S
C192 O183 1.240 . S
C192 O184 1.252 . S
O193 In182 2.294 1_655 S
O193 C186 1.240 . S
O194 In182 2.326 1_655 S
O194 C186 1.252 . S
In195 O196 2.294 1_545 S
In195 O197 2.326 1_545 S
In195 O201 2.266 . S
In195 O202 2.326 . S
In195 O203 2.266 . S
In195 O204 2.326 1_545 S
In195 O206 2.294 . S
In195 O207 2.326 . S
O196 In195 2.294 1_565 S
O196 C205 1.240 . S
O197 In195 2.326 1_565 S
O197 C205 1.252 . S
C198 O201 1.252 . S
C198 O202 1.260 . S
C199 O206 1.240 . S
C199 O207 1.252 . S
C200 O203 1.252 . S
C200 O204 1.260 1_545 S
O201 In195 2.266 . S
O201 C198 1.252 . S
O202 In195 2.326 . S
O202 C198 1.260 . S
O203 In195 2.266 . S
O203 C200 1.252 . S
O204 In195 2.326 1_565 S
O204 C200 1.260 1_565 S
C205 O196 1.240 . S
C205 O197 1.252 . S
O206 In195 2.294 . S
O206 C199 1.240 . S
O207 In195 2.326 . S
O207 C199 1.252 . S
H208 C214 0.930 . S
H209 C218 0.930 . S
H210 C223 0.929 . S
H211 C221 0.929 . S
H212 C216 0.929 . S
H213 C222 0.929 . S
C214 H208 0.930 . S
C214 C215 1.367 . S
C214 C222 1.378 . S
C215 C214 1.367 . S
C215 C223 1.433 . S
C216 H212 0.929 . S
C216 C218 1.378 . S
C216 C220 1.350 . S
C217 C220 1.463 . S
C217 C222 1.350 . S
C217 N225 1.427 . S
C218 H209 0.930 . S
C218 C216 1.378 . S
C218 C219 1.367 . S
C219 C218 1.367 . S
C219 C221 1.433 . S
C220 C216 1.350 . S
C220 C217 1.463 . S
C220 N224 1.427 . S
C221 H211 0.929 . S
C221 C219 1.433 . S
C221 N224 1.384 . S
C222 H213 0.929 . S
C222 C214 1.378 . S
C222 C217 1.350 . S
C223 H210 0.929 . S
C223 C215 1.433 . S
C223 N225 1.384 . S
N224 C220 1.427 . S
N224 C221 1.384 . S
N225 C217 1.427 . S
N225 C223 1.384 . S
H226 C232 0.930 . S
H227 C236 0.930 . S
H228 C241 0.929 . S
H229 C239 0.929 . S
H230 C234 0.929 . S
H231 C240 0.929 . S
C232 H226 0.930 . S
C232 C233 1.367 . S
C232 C240 1.378 . S
C233 C232 1.367 . S
C233 C241 1.433 . S
C234 H230 0.929 . S
C234 C236 1.378 . S
C234 C238 1.350 . S
C235 C238 1.463 . S
C235 C240 1.350 . S
C235 N243 1.427 . S
C236 H227 0.930 . S
C236 C234 1.378 . S
C236 C237 1.367 . S
C237 C236 1.367 . S
C237 C239 1.433 . S
C238 C234 1.350 . S
C238 C235 1.463 . S
C238 N242 1.427 . S
C239 H229 0.929 . S
C239 C237 1.433 . S
C239 N242 1.384 . S
C240 H231 0.929 . S
C240 C232 1.378 . S
C240 C235 1.350 . S
C241 H228 0.929 . S
C241 C233 1.433 . S
C241 N243 1.384 . S
N242 C238 1.427 . S
N242 C239 1.384 . S
N243 C235 1.427 . S
N243 C241 1.384 . S
H244 C250 0.930 . S
H245 C254 0.930 . S
H246 C259 0.929 . S
H247 C257 0.929 . S
H248 C252 0.929 . S
H249 C258 0.929 . S
C250 H244 0.930 . S
C250 C251 1.367 . S
C250 C258 1.378 . S
C251 C250 1.367 . S
C251 C259 1.433 . S
C252 H248 0.929 . S
C252 C254 1.378 . S
C252 C256 1.350 . S
C253 C256 1.463 . S
C253 C258 1.350 . S
C253 N261 1.427 . S
C254 H245 0.930 . S
C254 C252 1.378 . S
C254 C255 1.367 . S
C255 C254 1.367 . S
C255 C257 1.433 . S
C256 C252 1.350 . S
C256 C253 1.463 . S
C256 N260 1.427 . S
C257 H247 0.929 . S
C257 C255 1.433 . S
C257 N260 1.384 . S
C258 H249 0.929 . S
C258 C250 1.378 . S
C258 C253 1.350 . S
C259 H246 0.929 . S
C259 C251 1.433 . S
C259 N261 1.384 . S
N260 C256 1.427 . S
N260 C257 1.384 . S
N261 C253 1.427 . S
N261 C259 1.384 . S
H262 C268 0.930 . S
H263 C272 0.930 . S
H264 C277 0.929 . S
H265 C275 0.929 . S
H266 C270 0.929 . S
H267 C276 0.929 . S
C268 H262 0.930 . S
C268 C269 1.367 . S
C268 C276 1.378 . S
C269 C268 1.367 . S
C269 C277 1.433 . S
C270 H266 0.929 . S
C270 C272 1.378 . S
C270 C274 1.350 . S
C271 C274 1.463 . S
C271 C276 1.350 . S
C271 N279 1.427 . S
C272 H263 0.930 . S
C272 C270 1.378 . S
C272 C273 1.367 . S
C273 C272 1.367 . S
C273 C275 1.433 . S
C274 C270 1.350 . S
C274 C271 1.463 . S
C274 N278 1.427 . S
C275 H265 0.929 . S
C275 C273 1.433 . S
C275 N278 1.384 . S
C276 H267 0.929 . S
C276 C268 1.378 . S
C276 C271 1.350 . S
C277 H264 0.929 . S
C277 C269 1.433 . S
C277 N279 1.384 . S
N278 C274 1.427 . S
N278 C275 1.384 . S
N279 C271 1.427 . S
N279 C277 1.384 . S
H280 C286 0.930 . S
H281 C290 0.930 . S
H282 C295 0.929 . S
H283 C293 0.929 . S
H284 C288 0.929 . S
H285 C294 0.929 . S
C286 H280 0.930 . S
C286 C287 1.367 . S
C286 C294 1.378 . S
C287 C286 1.367 . S
C287 C295 1.433 . S
C288 H284 0.929 . S
C288 C290 1.378 . S
C288 C292 1.350 . S
C289 C292 1.463 . S
C289 C294 1.350 . S
C289 N297 1.427 . S
C290 H281 0.930 . S
C290 C288 1.378 . S
C290 C291 1.367 . S
C291 C290 1.367 . S
C291 C293 1.433 . S
C292 C288 1.350 . S
C292 C289 1.463 . S
C292 N296 1.427 . S
C293 H283 0.929 . S
C293 C291 1.433 . S
C293 N296 1.384 . S
C294 H285 0.929 . S
C294 C286 1.378 . S
C294 C289 1.350 . S
C295 H282 0.929 . S
C295 C287 1.433 . S
C295 N297 1.384 . S
N296 C292 1.427 . S
N296 C293 1.384 . S
N297 C289 1.427 . S
N297 C295 1.384 . S
H298 C304 0.930 . S
H299 C308 0.930 . S
H300 C313 0.929 . S
H301 C311 0.929 . S
H302 C306 0.929 . S
H303 C312 0.929 . S
C304 H298 0.930 . S
C304 C305 1.367 . S
C304 C312 1.378 . S
C305 C304 1.367 . S
C305 C313 1.433 . S
C306 H302 0.929 . S
C306 C308 1.378 . S
C306 C310 1.350 . S
C307 C310 1.463 . S
C307 C312 1.350 . S
C307 N315 1.427 . S
C308 H299 0.930 . S
C308 C306 1.378 . S
C308 C309 1.367 . S
C309 C308 1.367 . S
C309 C311 1.433 . S
C310 C306 1.350 . S
C310 C307 1.463 . S
C310 N314 1.427 . S
C311 H301 0.929 . S
C311 C309 1.433 . S
C311 N314 1.384 . S
C312 H303 0.929 . S
C312 C304 1.378 . S
C312 C307 1.350 . S
C313 H300 0.929 . S
C313 C305 1.433 . S
C313 N315 1.384 . S
N314 C310 1.427 . S
N314 C311 1.384 . S
N315 C307 1.427 . S
N315 C313 1.384 . S
H316 C322 0.930 . S
H317 C326 0.930 . S
H318 C331 0.929 . S
H319 C329 0.929 . S
H320 C324 0.929 . S
H321 C330 0.929 . S
C322 H316 0.930 . S
C322 C323 1.367 . S
C322 C330 1.378 . S
C323 C322 1.367 . S
C323 C331 1.433 . S
C324 H320 0.929 . S
C324 C326 1.378 . S
C324 C328 1.350 . S
C325 C328 1.463 . S
C325 C330 1.350 . S
C325 N333 1.427 . S
C326 H317 0.930 . S
C326 C324 1.378 . S
C326 C327 1.367 . S
C327 C326 1.367 . S
C327 C329 1.433 . S
C328 C324 1.350 . S
C328 C325 1.463 . S
C328 N332 1.427 . S
C329 H319 0.929 . S
C329 C327 1.433 . S
C329 N332 1.384 . S
C330 H321 0.929 . S
C330 C322 1.378 . S
C330 C325 1.350 . S
C331 H318 0.929 . S
C331 C323 1.433 . S
C331 N333 1.384 . S
N332 C328 1.427 . S
N332 C329 1.384 . S
N333 C325 1.427 . S
N333 C331 1.384 . S
H334 C340 0.930 . S
H335 C344 0.930 . S
H336 C349 0.929 . S
H337 C347 0.929 . S
H338 C342 0.929 . S
H339 C348 0.929 . S
C340 H334 0.930 . S
C340 C341 1.367 . S
C340 C348 1.378 . S
C341 C340 1.367 . S
C341 C349 1.433 . S
C342 H338 0.929 . S
C342 C344 1.378 . S
C342 C346 1.350 . S
C343 C346 1.463 . S
C343 C348 1.350 . S
C343 N351 1.427 . S
C344 H335 0.930 . S
C344 C342 1.378 . S
C344 C345 1.367 . S
C345 C344 1.367 . S
C345 C347 1.433 . S
C346 C342 1.350 . S
C346 C343 1.463 . S
C346 N350 1.427 . S
C347 H337 0.929 . S
C347 C345 1.433 . S
C347 N350 1.384 . S
C348 H339 0.929 . S
C348 C340 1.378 . S
C348 C343 1.350 . S
C349 H336 0.929 . S
C349 C341 1.433 . S
C349 N351 1.384 . S
N350 C346 1.427 . S
N350 C347 1.384 . S
N351 C343 1.427 . S
N351 C349 1.384 . S
H352 C358 0.930 . S
H353 C362 0.930 . S
H354 C367 0.929 . S
H355 C365 0.929 . S
H356 C360 0.929 . S
H357 C366 0.929 . S
C358 H352 0.930 . S
C358 C359 1.367 . S
C358 C366 1.378 . S
C359 C358 1.367 . S
C359 C367 1.433 . S
C360 H356 0.929 . S
C360 C362 1.378 . S
C360 C364 1.350 . S
C361 C364 1.463 . S
C361 C366 1.350 . S
C361 N369 1.427 . S
C362 H353 0.930 . S
C362 C360 1.378 . S
C362 C363 1.367 . S
C363 C362 1.367 . S
C363 C365 1.433 . S
C364 C360 1.350 . S
C364 C361 1.463 . S
C364 N368 1.427 . S
C365 H355 0.929 . S
C365 C363 1.433 . S
C365 N368 1.384 . S
C366 H357 0.929 . S
C366 C358 1.378 . S
C366 C361 1.350 . S
C367 H354 0.929 . S
C367 C359 1.433 . S
C367 N369 1.384 . S
N368 C364 1.427 . S
N368 C365 1.384 . S
N369 C361 1.427 . S
N369 C367 1.384 . S
H370 C376 0.930 . S
H371 C380 0.930 . S
H372 C385 0.929 . S
H373 C383 0.929 . S
H374 C378 0.929 . S
H375 C384 0.929 . S
C376 H370 0.930 . S
C376 C377 1.367 . S
C376 C384 1.378 . S
C377 C376 1.367 . S
C377 C385 1.433 . S
C378 H374 0.929 . S
C378 C380 1.378 . S
C378 C382 1.350 . S
C379 C382 1.463 . S
C379 C384 1.350 . S
C379 N387 1.427 . S
C380 H371 0.930 . S
C380 C378 1.378 . S
C380 C381 1.367 . S
C381 C380 1.367 . S
C381 C383 1.433 . S
C382 C378 1.350 . S
C382 C379 1.463 . S
C382 N386 1.427 . S
C383 H373 0.929 . S
C383 C381 1.433 . S
C383 N386 1.384 . S
C384 H375 0.929 . S
C384 C376 1.378 . S
C384 C379 1.350 . S
C385 H372 0.929 . S
C385 C377 1.433 . S
C385 N387 1.384 . S
N386 C382 1.427 . S
N386 C383 1.384 . S
N387 C379 1.427 . S
N387 C385 1.384 . S
H388 C394 0.930 . S
H389 C398 0.930 . S
H390 C403 0.929 . S
H391 C401 0.929 . S
H392 C396 0.929 . S
H393 C402 0.929 . S
C394 H388 0.930 . S
C394 C395 1.367 . S
C394 C402 1.378 . S
C395 C394 1.367 . S
C395 C403 1.433 . S
C396 H392 0.929 . S
C396 C398 1.378 . S
C396 C400 1.350 . S
C397 C400 1.463 . S
C397 C402 1.350 . S
C397 N405 1.427 . S
C398 H389 0.930 . S
C398 C396 1.378 . S
C398 C399 1.367 . S
C399 C398 1.367 . S
C399 C401 1.433 . S
C400 C396 1.350 . S
C400 C397 1.463 . S
C400 N404 1.427 . S
C401 H391 0.929 . S
C401 C399 1.433 . S
C401 N404 1.384 . S
C402 H393 0.929 . S
C402 C394 1.378 . S
C402 C397 1.350 . S
C403 H390 0.929 . S
C403 C395 1.433 . S
C403 N405 1.384 . S
N404 C400 1.427 . S
N404 C401 1.384 . S
N405 C397 1.427 . S
N405 C403 1.384 . S
H406 C412 0.930 . S
H407 C416 0.930 . S
H408 C421 0.929 . S
H409 C419 0.929 . S
H410 C414 0.929 . S
H411 C420 0.929 . S
C412 H406 0.930 . S
C412 C413 1.367 . S
C412 C420 1.378 . S
C413 C412 1.367 . S
C413 C421 1.433 . S
C414 H410 0.929 . S
C414 C416 1.378 . S
C414 C418 1.350 . S
C415 C418 1.463 . S
C415 C420 1.350 . S
C415 N423 1.427 . S
C416 H407 0.930 . S
C416 C414 1.378 . S
C416 C417 1.367 . S
C417 C416 1.367 . S
C417 C419 1.433 . S
C418 C414 1.350 . S
C418 C415 1.463 . S
C418 N422 1.427 . S
C419 H409 0.929 . S
C419 C417 1.433 . S
C419 N422 1.384 . S
C420 H411 0.929 . S
C420 C412 1.378 . S
C420 C415 1.350 . S
C421 H408 0.929 . S
C421 C413 1.433 . S
C421 N423 1.384 . S
N422 C418 1.427 . S
N422 C419 1.384 . S
N423 C415 1.427 . S
N423 C421 1.384 . S
H424 C430 0.930 . S
H425 C434 0.930 . S
H426 C439 0.929 . S
H427 C437 0.929 . S
H428 C432 0.929 . S
H429 C438 0.929 . S
C430 H424 0.930 . S
C430 C431 1.367 . S
C430 C438 1.378 . S
C431 C430 1.367 . S
C431 C439 1.433 . S
C432 H428 0.929 . S
C432 C434 1.378 . S
C432 C436 1.350 . S
C433 C436 1.463 . S
C433 C438 1.350 . S
C433 N441 1.427 . S
C434 H425 0.930 . S
C434 C432 1.378 . S
C434 C435 1.367 . S
C435 C434 1.367 . S
C435 C437 1.433 . S
C436 C432 1.350 . S
C436 C433 1.463 . S
C436 N440 1.427 . S
C437 H427 0.929 . S
C437 C435 1.433 . S
C437 N440 1.384 . S
C438 H429 0.929 . S
C438 C430 1.378 . S
C438 C433 1.350 . S
C439 H426 0.929 . S
C439 C431 1.433 . S
C439 N441 1.384 . S
N440 C436 1.427 . S
N440 C437 1.384 . S
N441 C433 1.427 . S
N441 C439 1.384 . S
H442 C448 0.930 . S
H443 C452 0.930 . S
H444 C457 0.929 . S
H445 C455 0.929 . S
H446 C450 0.929 . S
H447 C456 0.929 . S
C448 H442 0.930 . S
C448 C449 1.367 . S
C448 C456 1.378 . S
C449 C448 1.367 . S
C449 C457 1.433 . S
C450 H446 0.929 . S
C450 C452 1.378 . S
C450 C454 1.350 . S
C451 C454 1.463 . S
C451 C456 1.350 . S
C451 N459 1.427 . S
C452 H443 0.930 . S
C452 C450 1.378 . S
C452 C453 1.367 . S
C453 C452 1.367 . S
C453 C455 1.433 . S
C454 C450 1.350 . S
C454 C451 1.463 . S
C454 N458 1.427 . S
C455 H445 0.929 . S
C455 C453 1.433 . S
C455 N458 1.384 . S
C456 H447 0.929 . S
C456 C448 1.378 . S
C456 C451 1.350 . S
C457 H444 0.929 . S
C457 C449 1.433 . S
C457 N459 1.384 . S
N458 C454 1.427 . S
N458 C455 1.384 . S
N459 C451 1.427 . S
N459 C457 1.384 . S
H460 C466 0.930 . S
H461 C470 0.930 . S
H462 C475 0.929 . S
H463 C473 0.929 . S
H464 C468 0.929 . S
H465 C474 0.929 . S
C466 H460 0.930 . S
C466 C467 1.367 . S
C466 C474 1.378 . S
C467 C466 1.367 . S
C467 C475 1.433 . S
C468 H464 0.929 . S
C468 C470 1.378 . S
C468 C472 1.350 . S
C469 C472 1.463 . S
C469 C474 1.350 . S
C469 N477 1.427 . S
C470 H461 0.930 . S
C470 C468 1.378 . S
C470 C471 1.367 . S
C471 C470 1.367 . S
C471 C473 1.433 . S
C472 C468 1.350 . S
C472 C469 1.463 . S
C472 N476 1.427 . S
C473 H463 0.929 . S
C473 C471 1.433 . S
C473 N476 1.384 . S
C474 H465 0.929 . S
C474 C466 1.378 . S
C474 C469 1.350 . S
C475 H462 0.929 . S
C475 C467 1.433 . S
C475 N477 1.384 . S
N476 C472 1.427 . S
N476 C473 1.384 . S
N477 C469 1.427 . S
N477 C475 1.384 . S
H478 C484 0.930 . S
H479 C488 0.930 . S
H480 C493 0.929 . S
H481 C491 0.929 . S
H482 C486 0.929 . S
H483 C492 0.929 . S
C484 H478 0.930 . S
C484 C485 1.367 . S
C484 C492 1.378 . S
C485 C484 1.367 . S
C485 C493 1.433 . S
C486 H482 0.929 . S
C486 C488 1.378 . S
C486 C490 1.350 . S
C487 C490 1.463 . S
C487 C492 1.350 . S
C487 N495 1.427 . S
C488 H479 0.930 . S
C488 C486 1.378 . S
C488 C489 1.367 . S
C489 C488 1.367 . S
C489 C491 1.433 . S
C490 C486 1.350 . S
C490 C487 1.463 . S
C490 N494 1.427 . S
C491 H481 0.929 . S
C491 C489 1.433 . S
C491 N494 1.384 . S
C492 H483 0.929 . S
C492 C484 1.378 . S
C492 C487 1.350 . S
C493 H480 0.929 . S
C493 C485 1.433 . S
C493 N495 1.384 . S
N494 C490 1.427 . S
N494 C491 1.384 . S
N495 C487 1.427 . S
N495 C493 1.384 . S
H496 C502 0.930 . S
H497 C506 0.930 . S
H498 C511 0.929 . S
H499 C509 0.929 . S
H500 C504 0.929 . S
H501 C510 0.929 . S
C502 H496 0.930 . S
C502 C503 1.367 . S
C502 C510 1.378 . S
C503 C502 1.367 . S
C503 C511 1.433 . S
C504 H500 0.929 . S
C504 C506 1.378 . S
C504 C508 1.350 . S
C505 C508 1.463 . S
C505 C510 1.350 . S
C505 N513 1.427 . S
C506 H497 0.930 . S
C506 C504 1.378 . S
C506 C507 1.367 . S
C507 C506 1.367 . S
C507 C509 1.433 . S
C508 C504 1.350 . S
C508 C505 1.463 . S
C508 N512 1.427 . S
C509 H499 0.929 . S
C509 C507 1.433 . S
C509 N512 1.384 . S
C510 H501 0.929 . S
C510 C502 1.378 . S
C510 C505 1.350 . S
C511 H498 0.929 . S
C511 C503 1.433 . S
C511 N513 1.384 . S
N512 C508 1.427 . S
N512 C509 1.384 . S
N513 C505 1.427 . S
N513 C511 1.384 . S
H514 C520 0.930 . S
H515 C524 0.930 . S
H516 C529 0.929 . S
H517 C527 0.929 . S
H518 C522 0.929 . S
H519 C528 0.929 . S
C520 H514 0.930 . S
C520 C521 1.367 . S
C520 C528 1.378 . S
C521 C520 1.367 . S
C521 C529 1.433 . S
C522 H518 0.929 . S
C522 C524 1.378 . S
C522 C526 1.350 . S
C523 C526 1.463 . S
C523 C528 1.350 . S
C523 N531 1.427 . S
C524 H515 0.930 . S
C524 C522 1.378 . S
C524 C525 1.367 . S
C525 C524 1.367 . S
C525 C527 1.433 . S
C526 C522 1.350 . S
C526 C523 1.463 . S
C526 N530 1.427 . S
C527 H517 0.929 . S
C527 C525 1.433 . S
C527 N530 1.384 . S
C528 H519 0.929 . S
C528 C520 1.378 . S
C528 C523 1.350 . S
C529 H516 0.929 . S
C529 C521 1.433 . S
C529 N531 1.384 . S
N530 C526 1.427 . S
N530 C527 1.384 . S
N531 C523 1.427 . S
N531 C529 1.384 . S
H532 C538 0.930 . S
H533 C542 0.930 . S
H534 C547 0.929 . S
H535 C545 0.929 . S
H536 C540 0.929 . S
H537 C546 0.929 . S
C538 H532 0.930 . S
C538 C539 1.367 . S
C538 C546 1.378 . S
C539 C538 1.367 . S
C539 C547 1.433 . S
C540 H536 0.929 . S
C540 C542 1.378 . S
C540 C544 1.350 . S
C541 C544 1.463 . S
C541 C546 1.350 . S
C541 N549 1.427 . S
C542 H533 0.930 . S
C542 C540 1.378 . S
C542 C543 1.367 . S
C543 C542 1.367 . S
C543 C545 1.433 . S
C544 C540 1.350 . S
C544 C541 1.463 . S
C544 N548 1.427 . S
C545 H535 0.929 . S
C545 C543 1.433 . S
C545 N548 1.384 . S
C546 H537 0.929 . S
C546 C538 1.378 . S
C546 C541 1.350 . S
C547 H534 0.929 . S
C547 C539 1.433 . S
C547 N549 1.384 . S
N548 C544 1.427 . S
N548 C545 1.384 . S
N549 C541 1.427 . S
N549 C547 1.384 . S
H550 C556 0.930 . S
H551 C560 0.930 . S
H552 C565 0.929 . S
H553 C563 0.929 . S
H554 C558 0.929 . S
H555 C564 0.929 . S
C556 H550 0.930 . S
C556 C557 1.367 . S
C556 C564 1.378 . S
C557 C556 1.367 . S
C557 C565 1.433 . S
C558 H554 0.929 . S
C558 C560 1.378 . S
C558 C562 1.350 . S
C559 C562 1.463 . S
C559 C564 1.350 . S
C559 N567 1.427 . S
C560 H551 0.930 . S
C560 C558 1.378 . S
C560 C561 1.367 . S
C561 C560 1.367 . S
C561 C563 1.433 . S
C562 C558 1.350 . S
C562 C559 1.463 . S
C562 N566 1.427 . S
C563 H553 0.929 . S
C563 C561 1.433 . S
C563 N566 1.384 . S
C564 H555 0.929 . S
C564 C556 1.378 . S
C564 C559 1.350 . S
C565 H552 0.929 . S
C565 C557 1.433 . S
C565 N567 1.384 . S
N566 C562 1.427 . S
N566 C563 1.384 . S
N567 C559 1.427 . S
N567 C565 1.384 . S
H568 C574 0.930 . S
H569 C578 0.930 . S
H570 C583 0.929 . S
H571 C581 0.929 . S
H572 C576 0.929 . S
H573 C582 0.929 . S
C574 H568 0.930 . S
C574 C575 1.367 . S
C574 C582 1.378 . S
C575 C574 1.367 . S
C575 C583 1.433 . S
C576 H572 0.929 . S
C576 C578 1.378 . S
C576 C580 1.350 . S
C577 C580 1.463 . S
C577 C582 1.350 . S
C577 N585 1.427 . S
C578 H569 0.930 . S
C578 C576 1.378 . S
C578 C579 1.367 . S
C579 C578 1.367 . S
C579 C581 1.433 . S
C580 C576 1.350 . S
C580 C577 1.463 . S
C580 N584 1.427 . S
C581 H571 0.929 . S
C581 C579 1.433 . S
C581 N584 1.384 . S
C582 H573 0.929 . S
C582 C574 1.378 . S
C582 C577 1.350 . S
C583 H570 0.929 . S
C583 C575 1.433 . S
C583 N585 1.384 . S
N584 C580 1.427 . S
N584 C581 1.384 . S
N585 C577 1.427 . S
N585 C583 1.384 . S
H586 C592 0.930 . S
H587 C596 0.930 . S
H588 C601 0.929 . S
H589 C599 0.929 . S
H590 C594 0.929 . S
H591 C600 0.929 . S
C592 H586 0.930 . S
C592 C593 1.367 . S
C592 C600 1.378 . S
C593 C592 1.367 . S
C593 C601 1.433 . S
C594 H590 0.929 . S
C594 C596 1.378 . S
C594 C598 1.350 . S
C595 C598 1.463 . S
C595 C600 1.350 . S
C595 N603 1.427 . S
C596 H587 0.930 . S
C596 C594 1.378 . S
C596 C597 1.367 . S
C597 C596 1.367 . S
C597 C599 1.433 . S
C598 C594 1.350 . S
C598 C595 1.463 . S
C598 N602 1.427 . S
C599 H589 0.929 . S
C599 C597 1.433 . S
C599 N602 1.384 . S
C600 H591 0.929 . S
C600 C592 1.378 . S
C600 C595 1.350 . S
C601 H588 0.929 . S
C601 C593 1.433 . S
C601 N603 1.384 . S
N602 C598 1.427 . S
N602 C599 1.384 . S
N603 C595 1.427 . S
N603 C601 1.384 . S
H604 C610 0.930 . S
H605 C614 0.930 . S
H606 C619 0.929 . S
H607 C617 0.929 . S
H608 C612 0.929 . S
H609 C618 0.929 . S
C610 H604 0.930 . S
C610 C611 1.367 . S
C610 C618 1.378 . S
C611 C610 1.367 . S
C611 C619 1.433 . S
C612 H608 0.929 . S
C612 C614 1.378 . S
C612 C616 1.350 . S
C613 C616 1.463 . S
C613 C618 1.350 . S
C613 N621 1.427 . S
C614 H605 0.930 . S
C614 C612 1.378 . S
C614 C615 1.367 . S
C615 C614 1.367 . S
C615 C617 1.433 . S
C616 C612 1.350 . S
C616 C613 1.463 . S
C616 N620 1.427 . S
C617 H607 0.929 . S
C617 C615 1.433 . S
C617 N620 1.384 . S
C618 H609 0.929 . S
C618 C610 1.378 . S
C618 C613 1.350 . S
C619 H606 0.929 . S
C619 C611 1.433 . S
C619 N621 1.384 . S
N620 C616 1.427 . S
N620 C617 1.384 . S
N621 C613 1.427 . S
N621 C619 1.384 . S
H622 C628 0.930 . S
H623 C632 0.930 . S
H624 C637 0.929 . S
H625 C635 0.929 . S
H626 C630 0.929 . S
H627 C636 0.929 . S
C628 H622 0.930 . S
C628 C629 1.367 . S
C628 C636 1.378 . S
C629 C628 1.367 . S
C629 C637 1.433 . S
C630 H626 0.929 . S
C630 C632 1.378 . S
C630 C634 1.350 . S
C631 C634 1.463 . S
C631 C636 1.350 . S
C631 N639 1.427 . S
C632 H623 0.930 . S
C632 C630 1.378 . S
C632 C633 1.367 . S
C633 C632 1.367 . S
C633 C635 1.433 . S
C634 C630 1.350 . S
C634 C631 1.463 . S
C634 N638 1.427 . S
C635 H625 0.929 . S
C635 C633 1.433 . S
C635 N638 1.384 . S
C636 H627 0.929 . S
C636 C628 1.378 . S
C636 C631 1.350 . S
C637 H624 0.929 . S
C637 C629 1.433 . S
C637 N639 1.384 . S
N638 C634 1.427 . S
N638 C635 1.384 . S
N639 C631 1.427 . S
N639 C637 1.384 . S
H640 C646 0.930 . S
H641 C650 0.930 . S
H642 C655 0.929 . S
H643 C653 0.929 . S
H644 C648 0.929 . S
H645 C654 0.929 . S
C646 H640 0.930 . S
C646 C647 1.367 . S
C646 C654 1.378 . S
C647 C646 1.367 . S
C647 C655 1.433 . S
C648 H644 0.929 . S
C648 C650 1.378 . S
C648 C652 1.350 . S
C649 C652 1.463 1_554 S
C649 C654 1.350 . S
C649 N657 1.427 . S
C650 H641 0.930 . S
C650 C648 1.378 . S
C650 C651 1.367 . S
C651 C650 1.367 . S
C651 C653 1.433 . S
C652 C648 1.350 . S
C652 C649 1.463 1_556 S
C652 N656 1.427 . S
C653 H643 0.929 . S
C653 C651 1.433 . S
C653 N656 1.384 . S
C654 H645 0.929 . S
C654 C646 1.378 . S
C654 C649 1.350 . S
C655 H642 0.929 . S
C655 C647 1.433 . S
C655 N657 1.384 . S
N656 C652 1.427 . S
N656 C653 1.384 . S
N657 C649 1.427 . S
N657 C655 1.384 . S
H658 C664 0.930 . S
H659 C668 0.930 . S
H660 C673 0.929 . S
H661 C671 0.929 . S
H662 C666 0.929 . S
H663 C672 0.929 . S
C664 H658 0.930 . S
C664 C665 1.367 . S
C664 C672 1.378 . S
C665 C664 1.367 . S
C665 C673 1.433 . S
C666 H662 0.929 . S
C666 C668 1.378 . S
C666 C670 1.350 . S
C667 C670 1.463 . S
C667 C672 1.350 . S
C667 N675 1.427 . S
C668 H659 0.930 . S
C668 C666 1.378 . S
C668 C669 1.367 . S
C669 C668 1.367 . S
C669 C671 1.433 . S
C670 C666 1.350 . S
C670 C667 1.463 . S
C670 N674 1.427 . S
C671 H661 0.929 . S
C671 C669 1.433 . S
C671 N674 1.384 . S
C672 H663 0.929 . S
C672 C664 1.378 . S
C672 C667 1.350 . S
C673 H660 0.929 . S
C673 C665 1.433 . S
C673 N675 1.384 . S
N674 C670 1.427 . S
N674 C671 1.384 . S
N675 C667 1.427 . S
N675 C673 1.384 . S
H676 C682 0.930 . S
H677 C686 0.930 . S
H678 C691 0.929 . S
H679 C689 0.929 . S
H680 C684 0.929 . S
H681 C690 0.929 . S
C682 H676 0.930 . S
C682 C683 1.367 1_455 S
C682 C690 1.378 . S
C683 C682 1.367 1_655 S
C683 C691 1.433 . S
C684 H680 0.929 . S
C684 C686 1.378 . S
C684 C688 1.350 . S
C685 C688 1.463 1_554 S
C685 C690 1.350 1_655 S
C685 N693 1.427 . S
C686 H677 0.930 . S
C686 C684 1.378 . S
C686 C687 1.367 . S
C687 C686 1.367 . S
C687 C689 1.433 1_655 S
C688 C684 1.350 . S
C688 C685 1.463 1_556 S
C688 N692 1.427 1_655 S
C689 H679 0.929 . S
C689 C687 1.433 1_455 S
C689 N692 1.384 . S
C690 H681 0.929 . S
C690 C682 1.378 . S
C690 C685 1.350 1_455 S
C691 H678 0.929 . S
C691 C683 1.433 . S
C691 N693 1.384 . S
N692 C688 1.427 1_455 S
N692 C689 1.384 . S
N693 C685 1.427 . S
N693 C691 1.384 . S
H694 C700 0.930 . S
H695 C704 0.930 . S
H696 C709 0.929 . S
H697 C707 0.929 . S
H698 C702 0.929 . S
H699 C708 0.929 . S
C700 H694 0.930 . S
C700 C701 1.367 . S
C700 C708 1.378 . S
C701 C700 1.367 . S
C701 C709 1.433 1_565 S
C702 H698 0.929 . S
C702 C704 1.378 . S
C702 C706 1.350 1_545 S
C703 C706 1.463 . S
C703 C708 1.350 . S
C703 N711 1.427 1_565 S
C704 H695 0.930 . S
C704 C702 1.378 . S
C704 C705 1.367 1_545 S
C705 C704 1.367 1_565 S
C705 C707 1.433 . S
C706 C702 1.350 1_565 S
C706 C703 1.463 . S
C706 N710 1.427 . S
C707 H697 0.929 . S
C707 C705 1.433 . S
C707 N710 1.384 . S
C708 H699 0.929 . S
C708 C700 1.378 . S
C708 C703 1.350 . S
C709 H696 0.929 . S
C709 C701 1.433 1_545 S
C709 N711 1.384 . S
N710 C706 1.427 . S
N710 C707 1.384 . S
N711 C703 1.427 1_545 S
N711 C709 1.384 . S
H712 C718 0.930 . S
H713 C722 0.930 . S
H714 C727 0.929 . S
H715 C725 0.929 . S
H716 C720 0.929 . S
H717 C726 0.929 . S
C718 H712 0.930 . S
C718 C719 1.367 . S
C718 C726 1.378 . S
C719 C718 1.367 . S
C719 C727 1.433 . S
C720 H716 0.929 . S
C720 C722 1.378 . S
C720 C724 1.350 . S
C721 C724 1.463 1_556 S
C721 C726 1.350 . S
C721 N729 1.427 . S
C722 H713 0.930 . S
C722 C720 1.378 . S
C722 C723 1.367 . S
C723 C722 1.367 . S
C723 C725 1.433 . S
C724 C720 1.350 . S
C724 C721 1.463 1_554 S
C724 N728 1.427 . S
C725 H715 0.929 . S
C725 C723 1.433 . S
C725 N728 1.384 . S
C726 H717 0.929 . S
C726 C718 1.378 . S
C726 C721 1.350 . S
C727 H714 0.929 . S
C727 C719 1.433 . S
C727 N729 1.384 . S
N728 C724 1.427 . S
N728 C725 1.384 . S
N729 C721 1.427 . S
N729 C727 1.384 . S
H730 C736 0.930 . S
H731 C740 0.930 . S
H732 C745 0.929 . S
H733 C743 0.929 . S
H734 C738 0.929 . S
H735 C744 0.929 . S
C736 H730 0.930 . S
C736 C737 1.367 . S
C736 C744 1.378 . S
C737 C736 1.367 . S
C737 C745 1.433 . S
C738 H734 0.929 . S
C738 C740 1.378 . S
C738 C742 1.350 . S
C739 C742 1.463 . S
C739 C744 1.350 . S
C739 N747 1.427 . S
C740 H731 0.930 . S
C740 C738 1.378 . S
C740 C741 1.367 . S
C741 C740 1.367 . S
C741 C743 1.433 . S
C742 C738 1.350 . S
C742 C739 1.463 . S
C742 N746 1.427 . S
C743 H733 0.929 . S
C743 C741 1.433 . S
C743 N746 1.384 . S
C744 H735 0.929 . S
C744 C736 1.378 . S
C744 C739 1.350 . S
C745 H732 0.929 . S
C745 C737 1.433 . S
C745 N747 1.384 . S
N746 C742 1.427 . S
N746 C743 1.384 . S
N747 C739 1.427 . S
N747 C745 1.384 . S
H748 C754 0.930 . S
H749 C758 0.930 . S
H750 C763 0.929 . S
H751 C761 0.929 . S
H752 C756 0.929 . S
H753 C762 0.929 . S
C754 H748 0.930 . S
C754 C755 1.367 1_655 S
C754 C762 1.378 . S
C755 C754 1.367 1_455 S
C755 C763 1.433 . S
C756 H752 0.929 . S
C756 C758 1.378 . S
C756 C760 1.350 . S
C757 C760 1.463 1_554 S
C757 C762 1.350 1_455 S
C757 N765 1.427 . S
C758 H749 0.930 . S
C758 C756 1.378 . S
C758 C759 1.367 . S
C759 C758 1.367 . S
C759 C761 1.433 1_455 S
C760 C756 1.350 . S
C760 C757 1.463 1_556 S
C760 N764 1.427 1_455 S
C761 H751 0.929 . S
C761 C759 1.433 1_655 S
C761 N764 1.384 . S
C762 H753 0.929 . S
C762 C754 1.378 . S
C762 C757 1.350 1_655 S
C763 H750 0.929 . S
C763 C755 1.433 . S
C763 N765 1.384 . S
N764 C760 1.427 1_655 S
N764 C761 1.384 . S
N765 C757 1.427 . S
N765 C763 1.384 . S
H766 C772 0.930 . S
H767 C776 0.930 . S
H768 C781 0.929 . S
H769 C779 0.929 . S
H770 C774 0.929 . S
H771 C780 0.929 . S
C772 H766 0.930 . S
C772 C773 1.367 . S
C772 C780 1.378 . S
C773 C772 1.367 . S
C773 C781 1.433 1_545 S
C774 H770 0.929 . S
C774 C776 1.378 . S
C774 C778 1.350 1_565 S
C775 C778 1.463 . S
C775 C780 1.350 . S
C775 N783 1.427 1_545 S
C776 H767 0.930 . S
C776 C774 1.378 . S
C776 C777 1.367 1_565 S
C777 C776 1.367 1_545 S
C777 C779 1.433 . S
C778 C774 1.350 1_545 S
C778 C775 1.463 . S
C778 N782 1.427 . S
C779 H769 0.929 . S
C779 C777 1.433 . S
C779 N782 1.384 . S
C780 H771 0.929 . S
C780 C772 1.378 . S
C780 C775 1.350 . S
C781 H768 0.929 . S
C781 C773 1.433 1_565 S
C781 N783 1.384 . S
N782 C778 1.427 . S
N782 C779 1.384 . S
N783 C775 1.427 1_565 S
N783 C781 1.384 . S
C215 C4 1.257 . S
C219 C95 1.258 . S
C233 C23 1.257 . S
C237 C56 1.258 . S
C251 C36 1.255 . S
C255 C75 1.259 . S
C269 C49 1.257 . S
C273 C82 1.258 . S
C287 C114 1.259 . S
C291 C205 1.255 . S
C305 C160 1.254 . S
C309 C121 1.259 . S
C323 C134 1.256 . S
C327 C179 1.259 . S
C341 C153 1.258 . S
C345 C186 1.256 . S
C359 C5 1.602 . S
C363 C127 1.606 . S
C377 C16 1.596 . S
C381 C140 1.606 . S
C395 C147 1.605 . S
C399 C29 1.602 . S
C413 C42 1.599 . S
C417 C108 1.609 . S
C431 C57 1.600 . S
C435 C199 1.605 . S
C449 C166 1.607 . S
C453 C68 1.596 . S
C467 C173 1.607 . S
C471 C83 1.601 . S
C485 C192 1.605 . S
C489 C96 1.599 . S
C503 C17 1.605 . S
C507 C107 1.602 . S
C521 C30 1.609 . S
C525 C122 1.598 . S
C539 C135 1.601 . S
C543 C43 1.608 . S
C557 C10 1.606 . S
C561 C146 1.597 . S
C575 C161 1.599 . S
C579 C101 1.605 . S
C593 C172 1.601 . S
C597 C62 1.608 . S
C611 C69 1.610 . S
C615 C187 1.595 . S
C629 C88 1.610 . S
C633 C198 1.595 . S
C647 C3 1.632 . S
C651 C55 1.627 . S
C665 C70 1.631 . S
C669 C18 1.627 . S
C683 C31 1.630 . S
C687 C81 1.627 . S
C701 C94 1.627 . S
C705 C44 1.632 . S
C719 C109 1.632 . S
C723 C159 1.630 . S
C737 C174 1.628 . S
C741 C120 1.633 . S
C755 C185 1.632 . S
C759 C133 1.630 . S
C773 C200 1.629 . S
C777 C148 1.632 . S
