# Generated by pormake.
# Topology sxb, (6)-cn, num edge types: 1
# Building blocks:
#     Node 0, Type 0, BuildingBlock: BETDIP_clean_sbu_0, # of connection points: 6
#     Node 1, Type 0, BuildingBlock: BETDIP_clean_sbu_0, # of connection points: 6
#     Node 2, Type 0, BuildingBlock: BETDIP_clean_sbu_0, # of connection points: 6
#     Node 3, Type 0, BuildingBlock: BETDIP_clean_sbu_0, # of connection points: 6
#     Edge 4, Type (0, 0), BuildingBlock: UVAHIK_clean_linker_0, # of connection points: 2
#     Edge 5, Type (0, 0), BuildingBlock: UVAHIK_clean_linker_0, # of connection points: 2
#     Edge 6, Type (0, 0), BuildingBlock: UVAHIK_clean_linker_0, # of connection points: 2
#     Edge 7, Type (0, 0), BuildingBlock: UVAHIK_clean_linker_0, # of connection points: 2
#     Edge 8, Type (0, 0), BuildingBlock: UVAHIK_clean_linker_0, # of connection points: 2
#     Edge 9, Type (0, 0), BuildingBlock: UVAHIK_clean_linker_0, # of connection points: 2
#     Edge 10, Type (0, 0), BuildingBlock: UVAHIK_clean_linker_0, # of connection points: 2
#     Edge 11, Type (0, 0), BuildingBlock: UVAHIK_clean_linker_0, # of connection points: 2
#     Edge 12, Type (0, 0), BuildingBlock: UVAHIK_clean_linker_0, # of connection points: 2
#     Edge 13, Type (0, 0), BuildingBlock: UVAHIK_clean_linker_0, # of connection points: 2
#     Edge 14, Type (0, 0), BuildingBlock: UVAHIK_clean_linker_0, # of connection points: 2
#     Edge 15, Type (0, 0), BuildingBlock: UVAHIK_clean_linker_0, # of connection points: 2
# Relax obj value: 0.288
# Max RMSD: 0.114
# Mean RMSD: 0.077
data_MOF--net-sxb--node1-BETDIP_clean_sbu_0--edge1-UVAHIK_clean_linker_0
_symmetry_space_group_name_H-M    P1
_symmetry_Int_Tables_number       1
_symmetry_cell_setting            triclinic
loop_
_symmetry_equiv_pos_as_xyz
'x, y, z'
_cell_length_a     21.360641
_cell_length_b     43.685245
_cell_length_c     38.78478
_cell_angle_alpha  94.980798
_cell_angle_beta   92.928071
_cell_angle_gamma 69.749589
loop_
_atom_site_label
_atom_site_type_symbol
_atom_site_fract_x
_atom_site_fract_y
_atom_site_fract_z
_atom_type_partial_charge
Tb0 Tb 1.02661 1.03425 0.00134 0.0
Tb1 Tb 0.14535 0.04598 0.00157 0.0
C2 C 0.91723 1.03372 0.02144 0.0
C3 C 0.90245 1.01585 0.04833 0.0
C4 C 0.95437 0.99537 0.06831 0.0
C5 C 0.94002 0.97935 0.09492 0.0
C6 C 0.87349 0.98392 0.1021 0.0
C7 C 0.82181 1.00462 0.082 0.0
C8 C 0.83623 1.02047 0.05538 0.0
C9 C 1.06709 1.03094 0.93662 0.0
C10 C 1.02012 0.10938 -0.00275 0.0
C11 C 0.26451 0.04131 -0.00373 0.0
C12 C 0.32278 1.01814 0.01379 0.0
C13 C 0.35472 0.98634 -0.00129 0.0
C14 C 0.40116 0.96264 0.01789 0.0
C15 C 0.41638 0.97027 0.05252 0.0
C16 C 0.38653 1.00234 0.06712 0.0
C17 C 0.34062 1.02605 0.04794 0.0
C18 C 0.10075 0.04882 0.06536 0.0
C19 C 0.15268 0.97057 0.00173 0.0
O20 O 0.94744 1.01604 -0.00576 0.0
O21 O 0.94421 0.05532 0.03313 0.0
O22 O 1.07097 0.05151 0.96101 0.0
O23 O 1.03574 1.01334 0.94778 0.0
O24 O 0.98899 0.08928 0.00492 0.0
O25 O 1.08422 0.09645 0.98962 0.0
O26 O 0.23312 1.0284 0.97273 0.0
O27 O 0.22291 0.06365 0.01667 0.0
O28 O 0.10229 1.02754 0.04093 0.0
O29 O 0.12506 0.06922 0.05428 0.0
O30 O 0.18303 0.99101 -0.00568 0.0
O31 O 1.08926 0.98326 0.01031 0.0
H32 H 1.0059 0.99194 0.06344 0.0
H33 H 0.98074 0.9636 0.10995 0.0
H34 H 0.77005 1.00806 0.08637 0.0
H35 H 0.79569 1.03633 0.04032 0.0
H36 H 0.34215 0.97942 0.97248 0.0
H37 H 0.42403 0.93816 0.00591 0.0
H38 H 0.39888 1.00916 0.09343 0.0
H39 H 0.31744 0.05032 0.06036 0.0
Tb40 Tb 0.12178 1.01225 0.50591 0.0
Tb41 Tb 1.06781 0.07967 0.4996 0.0
C42 C 0.15059 0.95544 0.52529 0.0
C43 C 0.12085 0.93 0.51896 0.0
C44 C 0.14362 0.90221 0.53785 0.0
C45 C 0.11506 0.87787 0.53192 0.0
C46 C 1.06351 0.88114 0.50695 0.0
C47 C 1.04117 0.90906 0.48798 0.0
C48 C 1.06965 0.93334 0.49396 0.0
C49 C 0.11425 1.02644 0.44001 0.0
C50 C 0.95628 0.04604 0.50102 0.0
C51 C 1.04233 0.13629 0.48048 0.0
C52 C 1.08593 0.15238 0.46797 0.0
C53 C 1.06837 0.1689 0.43756 0.0
C54 C 0.11315 0.18084 0.42307 0.0
C55 C 0.17626 0.17613 0.43872 0.0
C56 C 0.19296 0.16029 0.4696 0.0
C57 C 0.14829 0.14849 0.48409 0.0
C58 C 1.07256 0.06423 0.56458 0.0
C59 C 0.23217 0.04591 0.50395 0.0
O60 O 0.11482 0.9818 0.5434 0.0
O61 O 0.17563 0.96222 0.49817 0.0
O62 O 1.07074 0.03991 0.46279 0.0
O63 O 0.16163 1.00316 0.4537 0.0
O64 O 1.01008 1.01936 0.50626 0.0
O65 O 0.96749 0.07345 0.49569 0.0
O66 O 1.03742 0.11183 0.46004 0.0
O67 O 1.05038 0.12947 0.51292 0.0
O68 O 0.11832 0.05193 0.54263 0.0
O69 O 1.02307 0.08624 0.55033 0.0
O70 O 0.17915 0.07067 0.49346 0.0
O71 O 0.2196 1.02059 0.51487 0.0
H72 H 0.18331 0.89937 0.55717 0.0
H73 H 0.13342 0.85648 0.54672 0.0
H74 H 1.00079 0.91244 0.469 0.0
H75 H 1.05161 0.95476 0.47918 0.0
H76 H 1.02072 0.17183 0.42458 0.0
H77 H 0.09909 0.19306 0.39927 0.0
H78 H 0.24069 0.15702 0.48262 0.0
H79 H 0.16327 0.13573 0.50751 0.0
Tb80 Tb 0.52416 0.5328 -0.00697 0.0
Tb81 Tb 0.64223 0.54549 -0.00507 0.0
C82 C 0.40509 0.53701 -0.00263 0.0
C83 C 0.34696 0.56058 0.98018 0.0
C84 C 0.3159 0.59235 -0.00443 0.0
C85 C 0.26992 0.61643 0.97665 0.0
C86 C 0.2542 0.60924 0.94198 0.0
C87 C 0.28306 0.5772 0.92708 0.0
C88 C 0.32857 0.55311 0.94601 0.0
C89 C 0.57118 0.52999 0.92988 0.0
C90 C 0.5154 0.60852 -0.00701 0.0
C91 C 0.75223 0.54706 0.97703 0.0
C92 C 0.76758 0.5654 0.95078 0.0
C93 C 0.71614 0.5856 0.93033 0.0
C94 C 0.73102 0.60179 0.90406 0.0
C95 C 0.79764 0.59765 0.89765 0.0
C96 C 0.84887 0.57734 0.91828 0.0
C97 C 0.83391 0.56132 0.9446 0.0
C98 C 0.59747 0.54863 0.0586 0.0
C99 C 0.65016 0.46992 -0.00189 0.0
O100 O 0.4361 0.54941 0.02161 0.0
O101 O 0.44701 0.51525 0.97661 0.0
O102 O 0.56851 0.55141 0.95434 0.0
O103 O 0.54662 0.5095 0.94054 0.0
O104 O 0.48533 0.58785 8e-05 0.0
O105 O 0.57911 0.59609 0.98496 0.0
O106 O 0.72021 0.56436 0.00397 0.0
O107 O 0.72671 0.52516 0.96446 0.0
O108 O 0.59718 0.52758 0.03412 0.0
O109 O 0.62733 0.56724 0.04829 0.0
O110 O 0.6811 0.49038 0.99123 0.0
O111 O 0.58569 0.48246 0.00501 0.0
H112 H 0.32887 0.59895 0.02184 0.0
H113 H 0.24783 0.64088 0.98886 0.0
H114 H 0.27028 0.57071 0.90074 0.0
H115 H 0.35108 0.52888 0.93338 0.0
H116 H 0.66457 0.58858 0.93447 0.0
H117 H 0.69066 0.61723 0.88858 0.0
H118 H 0.90066 0.57422 0.91445 0.0
H119 H 0.87411 0.54567 0.96001 0.0
Tb120 Tb 0.59995 0.50364 0.49591 0.0
Tb121 Tb 0.54688 0.57091 0.49132 0.0
C122 C 0.62721 0.44552 0.51079 0.0
C123 C 0.60109 0.42035 0.49598 0.0
C124 C 0.62104 0.38969 0.50953 0.0
C125 C 0.59816 0.36532 0.49399 0.0
C126 C 0.55525 0.3714 0.46465 0.0
C127 C 0.53554 0.4023 0.45127 0.0
C128 C 0.55814 0.42659 0.46687 0.0
C129 C 0.58882 0.51911 0.43034 0.0
C130 C 0.43505 0.53744 0.49179 0.0
C131 C 0.52075 0.62819 0.47388 0.0
C132 C 0.55956 0.65004 0.47691 0.0
C133 C 0.54599 0.67518 0.45458 0.0
C134 C 0.58653 0.6944 0.45571 0.0
C135 C 0.64113 0.68856 0.47915 0.0
C136 C 0.65389 0.66352 0.50173 0.0
C137 C 0.61338 0.64444 0.50064 0.0
C138 C 0.55707 0.55499 0.55657 0.0
C139 C 0.71118 0.53756 0.49658 0.0
O140 O 0.58462 0.47053 0.5279 0.0
O141 O 0.66119 0.45458 0.48928 0.0
O142 O 0.54649 0.53228 0.45371 0.0
O143 O 0.63626 0.49536 0.4431 0.0
O144 O 0.48849 0.51121 0.49867 0.0
O145 O 0.4471 0.56413 0.48449 0.0
O146 O 0.54511 0.60211 0.45287 0.0
O147 O 0.50269 0.62137 0.50309 0.0
O148 O 0.60026 0.54215 0.53348 0.0
O149 O 0.50843 0.57822 0.54358 0.0
O150 O 0.65814 0.5632 0.48799 0.0
O151 O 0.69846 0.5115 0.50543 0.0
H152 H 0.65441 0.38457 0.53194 0.0
H153 H 0.61338 0.3419 0.50518 0.0
H154 H 0.50327 0.40762 0.42848 0.0
H155 H 0.54283 0.45015 0.45594 0.0
H156 H 0.50477 0.67959 0.43599 0.0
H157 H 0.57532 0.71373 0.43823 0.0
H158 H 0.69625 0.65808 0.51964 0.0
H159 H 0.62484 0.62492 0.5179 0.0
C160 C 0.40932 0.65977 0.00204 0.0
C161 C 0.47748 0.64562 -0.00652 0.0
C162 C 0.37472 0.69417 0.00283 0.0
C163 C 0.40243 0.77686 0.00343 0.0
H164 H 0.21178 0.81071 0.98562 0.0
C165 C 0.25837 0.9192 -0.00751 0.0
C166 C 0.19025 0.93342 0.00112 0.0
C167 C 0.29282 0.88479 -0.00832 0.0
C168 C 0.26492 0.80215 0.99118 0.0
H169 H 0.56122 0.65842 0.97879 0.0
H170 H 0.50199 0.71736 0.97979 0.0
H171 H 0.27025 0.75187 0.98397 0.0
H172 H 0.10641 0.92076 0.0159 0.0
H173 H 0.16541 0.86176 0.01485 0.0
H174 H 0.39712 0.82714 0.01064 0.0
C175 C 0.47466 0.70208 0.98652 0.0
C176 C 0.29913 0.76772 0.99021 0.0
C177 C 0.50914 0.66771 0.98567 0.0
C178 C 0.15846 0.9114 0.00896 0.0
C179 C 0.1928 0.877 0.00809 0.0
C180 C 0.36823 0.81129 0.0044 0.0
C181 C 0.40637 0.71644 -0.00481 0.0
C182 C 0.369 0.75397 -0.00371 0.0
C183 C 0.26106 0.86257 -0.00063 0.0
C184 C 0.29837 0.82505 -0.0017 0.0
H185 H 0.38234 0.6442 0.00842 0.0
H186 H 0.32292 0.70325 0.01012 0.0
H187 H 0.45557 0.76832 0.009 0.0
H188 H 0.28547 0.93471 0.98611 0.0
H189 H 0.34459 0.87565 0.98434 0.0
C190 C 0.75707 0.41909 0.99086 0.0
C191 C 0.68847 0.43296 -0.00142 0.0
C192 C 0.79235 0.38482 0.99069 0.0
C193 C 0.78096 0.30465 0.01886 0.0
H194 H 0.93181 0.26427 0.95914 0.0
C195 C 0.91381 0.16042 0.00475 0.0
C196 C 0.98226 0.14639 -0.00325 0.0
C197 C 0.87877 0.19469 0.00488 0.0
C198 C 0.89046 0.27478 0.97649 0.0
H199 H 0.60452 0.4198 0.01219 0.0
H200 H 0.66476 0.36091 0.01168 0.0
H201 H 0.8717 0.32292 0.95966 0.0
H202 H 1.06622 0.15926 0.98261 0.0
H203 H 1.0064 0.21822 0.98311 0.0
H204 H 0.79972 0.25654 0.03573 0.0
C205 C 0.69232 0.37646 0.00612 0.0
C206 C 0.8553 0.30907 0.97679 0.0
C207 C 0.65705 0.41073 0.00622 0.0
C208 C 1.0138 0.16847 0.98879 0.0
C209 C 0.97876 0.20277 0.9889 0.0
C210 C 0.81612 0.27036 0.01857 0.0
C211 C 0.76107 0.36242 -0.00172 0.0
C212 C 0.79943 0.32508 -0.00202 0.0
C213 C 0.91015 0.21697 -0.00298 0.0
C214 C 0.87196 0.25434 -0.00264 0.0
H215 H 0.784 0.43481 0.98482 0.0
H216 H 0.84493 0.37604 0.98497 0.0
H217 H 0.73959 0.31515 0.0362 0.0
H218 H 0.88678 0.14482 0.011 0.0
H219 H 0.82628 0.20357 0.01078 0.0
C220 C 0.20389 0.22055 0.41371 0.0
C221 C 0.22444 0.18841 0.42376 0.0
C222 C 0.25102 0.23387 0.40487 0.0
C223 C 0.42258 0.22539 0.42836 0.0
H224 H 0.38737 0.29662 0.36882 0.0
C225 C 0.57109 0.313 0.44477 0.0
C226 C 0.52953 0.34598 0.44853 0.0
C227 C 0.54538 0.28898 0.43128 0.0
C228 C 0.39817 0.27657 0.38534 0.0
H229 H 0.30923 0.1439 0.42926 0.0
H230 H 0.39172 0.16712 0.41356 0.0
H231 H 0.3198 0.26127 0.36201 0.0
H232 H 0.42882 0.37967 0.44053 0.0
H233 H 0.38415 0.33792 0.41713 0.0
H234 H 0.49847 0.24162 0.4529 0.0
C235 C 0.33944 0.18226 0.41324 0.0
C236 C 0.35955 0.25639 0.38147 0.0
C237 C 0.29233 0.16901 0.42226 0.0
C238 C 0.46239 0.35456 0.4375 0.0
C239 C 0.43683 0.33062 0.42394 0.0
C240 C 0.46123 0.24549 0.43216 0.0
C241 C 0.31951 0.21521 0.40575 0.0
C242 C 0.36951 0.23149 0.40395 0.0
C243 C 0.47773 0.29754 0.42121 0.0
C244 C 0.44747 0.27213 0.4117 0.0
H245 H 0.15189 0.23606 0.4148 0.0
H246 H 0.23401 0.25946 0.39966 0.0
H247 H 0.43118 0.20667 0.44637 0.0
H248 H 0.62333 0.30574 0.45249 0.0
H249 H 0.57807 0.26365 0.42927 0.0
C250 C 1.01534 0.84594 0.4679 0.0
C251 C 1.03114 0.85619 0.50152 0.0
C252 C 0.97985 0.82441 0.46291 0.0
C253 C 0.927 0.76604 0.50692 0.0
H254 H 0.7758 0.7907 0.44257 0.0
C255 C 0.70993 0.71819 0.51122 0.0
C256 C 0.68615 0.70774 0.47958 0.0
C257 C 0.75567 0.73447 0.51175 0.0
C258 C 0.81837 0.78326 0.46025 0.0
H259 H 1.02357 0.85157 0.55622 0.0
H260 H 0.96133 0.81409 0.54757 0.0
H261 H 0.85273 0.82115 0.44707 0.0
H262 H 0.69101 0.70633 0.42371 0.0
H263 H 0.77066 0.73526 0.42469 0.0
H264 H 0.89161 0.72864 0.52068 0.0
C265 C 0.97719 0.82227 0.52505 0.0
C266 C 0.86248 0.8006 0.46278 0.0
C267 C 1.01275 0.84374 0.53002 0.0
C268 C 0.70789 0.71449 0.44846 0.0
C269 C 0.75358 0.7309 0.449 0.0
C270 C 0.88281 0.74877 0.50446 0.0
C271 C 0.95952 0.8128 0.49147 0.0
C272 C 0.91662 0.79246 0.48652 0.0
C273 C 0.77836 0.7407 0.48067 0.0
C274 C 0.82755 0.75757 0.4815 0.0
H275 H 1.02988 0.85482 0.44547 0.0
H276 H 0.96772 0.81711 0.43674 0.0
H277 H 0.96893 0.75893 0.52504 0.0
H278 H 0.69313 0.71378 0.53559 0.0
H279 H 0.77299 0.74239 0.53652 0.0
C280 C 0.45529 0.9428 0.10777 0.0
C281 C 0.46644 0.94572 0.073 0.0
C282 C 0.50751 0.92466 0.12899 0.0
C283 C 0.63231 0.92013 0.17061 0.0
H284 H 0.79745 0.87097 0.12491 0.0
C285 C 0.80116 0.98123 0.14932 0.0
C286 C 0.85676 0.96569 0.12861 0.0
C287 C 0.77165 0.96281 0.16584 0.0
C288 C 0.75278 0.88412 0.13925 0.0
H289 H 0.53872 0.92951 0.03227 0.0
H290 H 0.62976 0.89929 0.06881 0.0
H291 H 0.69618 0.86203 0.10525 0.0
H292 H 0.93313 0.91915 0.11448 0.0
H293 H 0.88333 0.88687 0.14452 0.0
H294 H 0.68908 0.94173 0.20504 0.0
C295 C 0.58106 0.91003 0.08019 0.0
C296 C 0.69389 0.87926 0.12739 0.0
C297 C 0.52873 0.92773 0.05899 0.0
C298 C 0.88905 0.93176 0.12955 0.0
C299 C 0.85995 0.91322 0.14656 0.0
C300 C 0.69172 0.92389 0.18347 0.0
C301 C 0.57225 0.90968 0.11598 0.0
C302 C 0.63211 0.90063 0.13973 0.0
C303 C 0.79724 0.92828 0.162 0.0
C304 C 0.75056 0.90973 0.16447 0.0
H305 H 0.40699 0.95586 0.11897 0.0
H306 H 0.49801 0.92422 0.15606 0.0
H307 H 0.58632 0.93597 0.1823 0.0
H308 H 0.77676 1.00754 0.15015 0.0
H309 H 0.72443 0.97598 0.17795 0.0
C310 C 0.32329 0.07199 0.49084 0.0
C311 C 0.30628 0.04628 0.50352 0.0
C312 C 0.391 0.07199 0.49045 0.0
C313 C 0.58048 1.01761 0.50698 0.0
H314 H 0.61385 0.09696 0.49296 0.0
C315 C 0.86626 1.01725 0.50658 0.0
C316 C 0.88225 0.04549 0.501 0.0
C317 C 0.7985 1.01724 0.50678 0.0
C318 C 0.60758 0.07404 0.4969 0.0
H319 H 0.35459 0.9999 0.5258 0.0
H320 H 0.46903 0.99982 0.52545 0.0
H321 H 0.50018 0.09721 0.4936 0.0
H322 H 0.83215 0.09632 0.49115 0.0
H323 H 0.71796 0.0965 0.49135 0.0
H324 H 0.68762 0.99441 0.51043 0.0
C325 C 0.43026 1.02047 0.51525 0.0
C326 C 0.53977 0.07421 0.49714 0.0
C327 C 0.36261 1.02053 0.51566 0.0
C328 C 0.82495 0.07365 0.4956 0.0
C329 C 0.75732 0.07367 0.49577 0.0
C330 C 0.6483 1.01742 0.50669 0.0
C331 C 0.44776 0.04618 0.50264 0.0
C332 C 0.52293 0.04601 0.50224 0.0
C333 C 0.74062 0.04548 0.5014 0.0
C334 C 0.66528 0.04564 0.50166 0.0
H335 H 0.2838 0.09248 0.48079 0.0
H336 H 0.39832 0.0926 0.47995 0.0
H337 H 0.57387 0.99469 0.51067 0.0
H338 H 0.90664 0.99465 0.51094 0.0
H339 H 0.79232 0.99442 0.51133 0.0
C340 C 0.87064 0.59993 0.85059 0.0
C341 C 0.81481 0.61565 0.87108 0.0
C342 C 0.89966 0.61816 0.83344 0.0
C343 C 0.91792 0.69719 0.85761 0.0
H344 H 1.0828 0.64499 0.8133 0.0
C345 C 0.21533 0.63717 0.88696 0.0
C346 C 0.20454 0.63423 0.92179 0.0
C347 C 0.16315 0.65578 0.86603 0.0
C348 C 1.03724 0.66096 0.82529 0.0
H349 H 0.73797 0.66222 0.88452 0.0
H350 H 0.78724 0.69419 0.85357 0.0
H351 H 0.97937 0.63908 0.79195 0.0
H352 H 0.13314 0.65099 0.96292 0.0
H353 H 1.04221 0.68204 0.9269 0.0
H354 H 0.97564 0.71944 0.89062 0.0
C355 C 0.81087 0.66785 0.85201 0.0
C356 C 0.97745 0.65713 0.81323 0.0
C357 C 0.78216 0.6495 0.86957 0.0
C358 C 0.14286 0.65274 0.93615 0.0
C359 C 0.09057 0.67092 0.91524 0.0
C360 C 0.97716 0.70211 0.86866 0.0
C361 C 0.87342 0.65269 0.83644 0.0
C362 C 0.91941 0.67138 0.83281 0.0
C363 C 0.09881 0.67123 0.87938 0.0
C364 C 1.03849 0.68056 0.85596 0.0
H365 H 0.89539 0.57366 0.85026 0.0
H366 H 0.94694 0.60493 0.8214 0.0
H367 H 0.87376 0.7104 0.87232 0.0
H368 H 0.26321 0.62376 0.87549 0.0
H369 H 0.17224 0.65618 0.8389 0.0
C370 C 0.30372 0.56478 0.48506 0.0
C371 C 0.36092 0.53705 0.49204 0.0
C372 C 0.23606 0.56485 0.48556 0.0
C373 C 0.12731 0.50849 0.49476 0.0
H374 H 0.9792 0.59012 0.49391 0.0
C375 C 0.84237 0.51061 0.50463 0.0
C376 C 0.7853 0.53798 0.49652 0.0
C377 C 0.91002 0.51056 0.50414 0.0
C378 C 1.01875 0.56661 0.49388 0.0
H379 H 0.38509 0.48708 0.50526 0.0
H380 H 0.27054 0.48705 0.50639 0.0
H381 H 0.0931 0.58983 0.49303 0.0
H382 H 0.76132 0.58734 0.48133 0.0
H383 H 0.87588 0.58741 0.48032 0.0
H384 H 1.05288 0.48528 0.49563 0.0
C385 C 0.27706 0.50934 0.50006 0.0
C386 C 1.08655 0.56642 0.49336 0.0
C387 C 0.3448 0.50931 0.49955 0.0
C388 C 0.8015 0.5654 0.48795 0.0
C389 C 0.86922 0.5654 0.48751 0.0
C390 C 1.05951 0.50868 0.49531 0.0
C391 C 0.21938 0.53716 0.49313 0.0
C392 C 0.14416 0.53735 0.49376 0.0
C393 C 0.92676 0.53793 0.49552 0.0
C394 C 1.00193 0.53775 0.4949 0.0
H395 H 0.31104 0.58703 0.47904 0.0
H396 H 0.1966 0.58719 0.47956 0.0
H397 H 0.1668 0.48496 0.49474 0.0
H398 H 0.83497 0.48863 0.51149 0.0
H399 H 0.94945 0.48853 0.51103 0.0
C400 C 0.14531 1.00416 0.37865 0.0
C401 C 0.10517 1.02932 0.40156 0.0
C402 C 0.13898 1.00632 0.34257 0.0
C403 C 0.09685 0.06368 0.27516 0.0
H404 H 1.0692 0.99424 0.21414 0.0
C405 C 1.07644 0.07446 0.12598 0.0
C406 C 0.09249 0.04626 0.10306 0.0
C407 C 1.07269 0.07267 0.16182 0.0
C408 C 1.07826 1.01375 0.23036 0.0
H409 H 1.02631 0.07658 0.40375 0.0
H410 H 1.0177 0.08116 0.34073 0.0
H411 H 1.07403 0.99064 0.27662 0.0
H412 H 0.11708 0.99378 0.10016 0.0
H413 H 0.11453 0.99007 0.16246 0.0
H414 H 0.10562 0.08603 0.22974 0.0
C415 C 1.05346 0.05944 0.35094 0.0
C416 C 1.08032 1.01172 0.26654 0.0
C417 C 1.05844 0.05684 0.38712 0.0
C418 C 0.10408 1.01608 0.11701 0.0
C419 C 0.10216 1.0141 0.1531 0.0
C420 C 0.09666 0.06533 0.23903 0.0
C421 C 0.09354 1.03412 0.32811 0.0
C422 C 1.08936 1.03672 0.2895 0.0
C423 C 1.08694 0.04238 0.17648 0.0
C424 C 1.08702 0.04048 0.21563 0.0
H425 H 0.18182 0.98252 0.38861 0.0
H426 H 0.17089 0.98643 0.32592 0.0
H427 H 0.10489 0.08317 0.29198 0.0
H428 H 1.06657 0.09819 0.11613 0.0
H429 H 1.05836 0.09541 0.17784 0.0
C430 C 1.0531 1.01344 0.87391 0.0
C431 C 1.07391 1.03367 0.8987 0.0
C432 C 1.05643 1.01614 0.83825 0.0
C433 C 0.13605 0.04732 0.77196 0.0
H434 H 0.98731 0.04093 0.71385 0.0
C435 C 0.13682 0.04079 0.6192 0.0
C436 C 1.07701 0.05903 0.60255 0.0
C437 C 0.13933 1.03732 0.65524 0.0
C438 C 1.02934 0.04291 0.72954 0.0
H439 H 0.11626 0.07228 0.90484 0.0
H440 H 0.12265 0.07691 0.84241 0.0
H441 H 0.98622 1.03665 0.77599 0.0
H442 H 0.97295 0.0876 0.61109 0.0
H443 H 0.97702 0.08137 0.67305 0.0
H444 H 0.17887 0.05375 0.72519 0.0
C445 C 0.10354 0.05885 0.8507 0.0
C446 C 1.02901 0.04013 0.7654 0.0
C447 C 0.09963 0.05632 0.88659 0.0
C448 C 1.01993 0.07334 0.62286 0.0
C449 C 1.02221 0.0696 0.65857 0.0
C450 C 0.13673 0.04975 0.73588 0.0
C451 C 1.08122 0.03903 0.82587 0.0
C452 C 1.08222 0.04233 0.78736 0.0
C453 C 1.08186 0.05159 0.67554 0.0
C454 C 1.08312 0.04779 0.71404 0.0
H455 H 1.03346 0.99551 0.88206 0.0
H456 H 1.0398 0.99998 0.82028 0.0
H457 H 0.17827 0.04892 0.78773 0.0
H458 H 0.18179 1.02943 0.60446 0.0
H459 H 0.18615 1.02305 0.66711 0.0
C460 C 0.61639 0.4978 0.3686 0.0
C461 C 0.57935 0.52325 0.39219 0.0
C462 C 0.6114 0.50126 0.33279 0.0
C463 C 0.58259 0.56042 0.26816 0.0
H464 H 0.54504 0.49573 0.20377 0.0
C465 C 0.57427 0.57389 0.1195 0.0
C466 C 0.58743 0.54612 0.09608 0.0
C467 C 0.56781 0.57191 0.15509 0.0
C468 C 0.55699 0.51386 0.22098 0.0
H469 H 0.50745 0.57246 0.396 0.0
H470 H 0.50113 0.57914 0.33329 0.0
H471 H 0.54463 0.4909 0.26583 0.0
H472 H 0.60454 0.4942 0.09202 0.0
H473 H 0.59744 0.49003 0.15388 0.0
H474 H 0.59936 0.58242 0.2241 0.0
C475 C 0.53332 0.55622 0.34279 0.0
C476 C 0.55594 0.51117 0.25688 0.0
C477 C 0.53684 0.55239 0.37874 0.0
C478 C 0.59378 0.51618 0.10926 0.0
C479 C 0.58916 0.51395 0.14507 0.0
C480 C 0.58543 0.56268 0.23229 0.0
C481 C 0.57057 0.53064 0.31931 0.0
C482 C 0.56858 0.53443 0.28101 0.0
C483 C 0.57625 0.54179 0.16893 0.0
C484 C 0.57259 0.53947 0.20774 0.0
H485 H 0.64966 0.47498 0.37786 0.0
H486 H 0.64102 0.48113 0.31562 0.0
H487 H 0.59356 0.57852 0.28595 0.0
H488 H 0.56854 0.59743 0.11021 0.0
H489 H 0.55582 0.59434 0.17156 0.0
C490 C 0.61009 0.52252 0.60837 0.0
C491 C 0.56756 0.55156 0.59477 0.0
C492 C 0.61593 0.51946 0.64447 0.0
C493 C 0.5979 0.5667 0.72954 0.0
H494 H 0.56323 0.49453 0.76587 0.0
C495 C 0.57032 0.56269 0.87861 0.0
C496 C 0.58043 0.53256 0.89235 0.0
C497 C 0.57294 0.56472 0.8426 0.0
C498 C 0.57479 0.51457 0.75664 0.0
H499 H 0.4992 0.60035 0.60882 0.0
H500 H 0.51153 0.59546 0.67131 0.0
H501 H 0.56391 0.49767 0.70364 0.0
H502 H 0.6045 0.48075 0.87904 0.0
H503 H 0.61357 0.48364 0.81738 0.0
H504 H 0.61126 0.58325 0.78206 0.0
C505 C 0.53965 0.57488 0.65419 0.0
C506 C 0.57464 0.51639 0.72056 0.0
C507 C 0.53244 0.57761 0.61825 0.0
C508 C 0.59577 0.50443 0.86933 0.0
C509 C 0.60006 0.50627 0.83357 0.0
C510 C 0.59973 0.56451 0.76565 0.0
C511 C 0.58087 0.54568 0.66791 0.0
C512 C 0.58549 0.54264 0.70643 0.0
C513 C 0.58725 0.53654 0.81915 0.0
C514 C 0.58755 0.53853 0.78013 0.0
H515 H 0.63765 0.50195 0.59109 0.0
H516 H 0.64824 0.49663 0.65411 0.0
H517 H 0.60688 0.58721 0.71962 0.0
H518 H 0.55794 0.58491 0.89556 0.0
H519 H 0.56176 0.58871 0.83329 0.0
loop_
_geom_bond_atom_site_label_1
_geom_bond_atom_site_label_2
_geom_bond_distance
_geom_bond_site_symmetry_2
_ccdc_geom_bond_type
Tb0 C2 2.809 . S
Tb0 O20 2.484 1_566 S
Tb0 O21 2.440 . S
Tb0 O22 2.658 1_655 S
Tb0 O23 2.409 . S
Tb0 O24 2.378 1_565 S
Tb0 O28 2.325 1_566 S
Tb0 O31 2.341 1_655 S
Tb1 C11 2.809 . S
Tb1 O22 2.325 1_544 S
Tb1 O25 2.341 1_455 S
Tb1 O26 2.484 1_544 S
Tb1 O27 2.440 . S
Tb1 O28 2.658 1_455 S
Tb1 O29 2.409 . S
Tb1 O30 2.378 1_545 S
C2 Tb0 2.809 . S
C2 C3 1.517 1_565 S
C2 O20 1.248 1_566 S
C2 O21 1.266 . S
C3 C2 1.517 1_545 S
C3 C4 1.333 1_556 S
C3 C8 1.371 . S
C4 C3 1.333 1_554 S
C4 C5 1.380 . S
C4 H32 0.929 . S
C5 C4 1.380 . S
C5 C6 1.347 . S
C5 H33 0.931 . S
C6 C5 1.347 . S
C6 C7 1.369 1_554 S
C7 C6 1.369 1_556 S
C7 C8 1.408 . S
C7 H34 0.930 . S
C8 C3 1.371 . S
C8 C7 1.408 . S
C8 H35 0.930 . S
C9 O22 1.281 1_655 S
C9 O23 1.254 . S
C10 O24 1.236 . S
C10 O25 1.266 1_556 S
C11 Tb1 2.809 . S
C11 C12 1.514 1_545 S
C11 O26 1.248 1_544 S
C11 O27 1.266 . S
C12 C11 1.514 1_565 S
C12 C13 1.359 1_554 S
C12 C17 1.348 . S
C13 C12 1.359 1_556 S
C13 C14 1.380 . S
C13 H36 0.929 . S
C14 C13 1.380 . S
C14 C15 1.347 . S
C14 H37 0.931 . S
C15 C14 1.347 . S
C15 C16 1.369 1_556 S
C16 C15 1.369 1_554 S
C16 C17 1.408 . S
C16 H38 0.930 . S
C17 C12 1.348 . S
C17 C16 1.408 . S
C17 H39 0.936 . S
C18 O28 1.281 1_455 S
C18 O29 1.254 . S
C19 O30 1.236 . S
C19 O31 1.266 1_554 S
O20 Tb0 2.484 1_544 S
O20 C2 1.248 1_544 S
O21 Tb0 2.440 . S
O21 C2 1.266 . S
O22 Tb0 2.658 1_455 S
O22 Tb1 2.325 1_566 S
O22 C9 1.281 1_455 S
O23 Tb0 2.409 . S
O23 C9 1.254 . S
O24 Tb0 2.378 1_545 S
O24 C10 1.236 . S
O25 Tb1 2.341 1_655 S
O25 C10 1.266 1_554 S
O26 Tb1 2.484 1_566 S
O26 C11 1.248 1_566 S
O27 Tb1 2.440 . S
O27 C11 1.266 . S
O28 Tb0 2.325 1_544 S
O28 Tb1 2.658 1_655 S
O28 C18 1.281 1_655 S
O29 Tb1 2.409 . S
O29 C18 1.254 . S
O30 Tb1 2.378 1_565 S
O30 C19 1.236 . S
O31 Tb0 2.341 1_455 S
O31 C19 1.266 1_556 S
H32 C4 0.929 . S
H33 C5 0.931 . S
H34 C7 0.930 . S
H35 C8 0.930 . S
H36 C13 0.929 . S
H37 C14 0.931 . S
H38 C16 0.930 . S
H39 C17 0.936 . S
Tb40 C42 2.809 1_455 S
Tb40 O60 2.484 1_455 S
Tb40 O61 2.440 1_455 S
Tb40 O62 2.658 1_565 S
Tb40 O63 2.409 . S
Tb40 O64 2.378 1_455 S
Tb40 O68 2.325 1_455 S
Tb40 O71 2.341 . S
Tb41 C51 2.809 1_655 S
Tb41 O62 2.325 1_655 S
Tb41 O65 2.341 . S
Tb41 O66 2.484 1_655 S
Tb41 O67 2.440 1_655 S
Tb41 O68 2.658 1_545 S
Tb41 O69 2.409 . S
Tb41 O70 2.378 1_655 S
C42 Tb40 2.809 1_655 S
C42 C43 1.514 . S
C42 O60 1.248 . S
C42 O61 1.266 . S
C43 C42 1.514 . S
C43 C44 1.359 . S
C43 C48 1.348 . S
C44 C43 1.359 . S
C44 C45 1.380 . S
C44 H72 0.929 . S
C45 C44 1.380 . S
C45 C46 1.347 . S
C45 H73 0.931 . S
C46 C45 1.347 . S
C46 C47 1.369 . S
C47 C46 1.369 . S
C47 C48 1.408 . S
C47 H74 0.930 . S
C48 C43 1.348 . S
C48 C47 1.408 . S
C48 H75 0.930 . S
C49 O62 1.284 1_565 S
C49 O63 1.251 . S
C50 O64 1.236 1_545 S
C50 O65 1.266 . S
C51 Tb41 2.809 1_455 S
C51 C52 1.514 . S
C51 O66 1.248 . S
C51 O67 1.266 . S
C52 C51 1.514 . S
C52 C53 1.359 . S
C52 C57 1.348 . S
C53 C52 1.359 . S
C53 C54 1.380 . S
C53 H76 0.929 . S
C54 C53 1.380 . S
C54 C55 1.347 . S
C54 H77 0.931 . S
C55 C54 1.347 . S
C55 C56 1.369 . S
C56 C55 1.369 . S
C56 C57 1.408 . S
C56 H78 0.930 . S
C57 C52 1.348 . S
C57 C56 1.408 . S
C57 H79 0.930 . S
C58 O68 1.283 1_545 S
C58 O69 1.251 . S
C59 O70 1.236 1_565 S
C59 O71 1.266 . S
O60 Tb40 2.484 1_655 S
O60 C42 1.248 . S
O61 Tb40 2.440 1_655 S
O61 C42 1.266 . S
O62 Tb40 2.658 1_545 S
O62 Tb41 2.325 1_455 S
O62 C49 1.284 1_545 S
O63 Tb40 2.409 . S
O63 C49 1.251 . S
O64 Tb40 2.378 1_655 S
O64 C50 1.236 1_565 S
O65 Tb41 2.341 . S
O65 C50 1.266 . S
O66 Tb41 2.484 1_455 S
O66 C51 1.248 . S
O67 Tb41 2.440 1_455 S
O67 C51 1.266 . S
O68 Tb40 2.325 1_655 S
O68 Tb41 2.658 1_565 S
O68 C58 1.283 1_565 S
O69 Tb41 2.409 . S
O69 C58 1.251 . S
O70 Tb41 2.378 1_455 S
O70 C59 1.236 1_545 S
O71 Tb40 2.341 . S
O71 C59 1.266 . S
H72 C44 0.929 . S
H73 C45 0.931 . S
H74 C47 0.930 . S
H75 C48 0.930 . S
H76 C53 0.929 . S
H77 C54 0.931 . S
H78 C56 0.930 . S
H79 C57 0.930 . S
Tb80 C82 2.809 . S
Tb80 O100 2.484 1_556 S
Tb80 O101 2.440 . S
Tb80 O102 2.658 . S
Tb80 O103 2.409 . S
Tb80 O104 2.378 . S
Tb80 O108 2.325 1_556 S
Tb80 O111 2.341 . S
Tb81 C91 2.809 . S
Tb81 O102 2.325 1_554 S
Tb81 O105 2.341 . S
Tb81 O106 2.484 1_554 S
Tb81 O107 2.440 . S
Tb81 O108 2.658 . S
Tb81 O109 2.409 . S
Tb81 O110 2.378 . S
C82 Tb80 2.809 . S
C82 C83 1.517 . S
C82 O100 1.248 1_556 S
C82 O101 1.266 . S
C83 C82 1.517 . S
C83 C84 1.333 1_556 S
C83 C88 1.371 . S
C84 C83 1.333 1_554 S
C84 C85 1.380 . S
C84 H112 0.929 . S
C85 C84 1.380 . S
C85 C86 1.347 . S
C85 H113 0.931 . S
C86 C85 1.347 . S
C86 C87 1.369 1_554 S
C87 C86 1.369 1_556 S
C87 C88 1.408 . S
C87 H114 0.930 . S
C88 C83 1.371 . S
C88 C87 1.408 . S
C88 H115 0.930 . S
C89 O102 1.281 . S
C89 O103 1.254 . S
C90 O104 1.236 . S
C90 O105 1.266 1_556 S
C91 Tb81 2.809 . S
C91 C92 1.514 . S
C91 O106 1.248 1_554 S
C91 O107 1.266 . S
C92 C91 1.514 . S
C92 C93 1.359 1_554 S
C92 C97 1.348 . S
C93 C92 1.359 1_556 S
C93 C94 1.380 . S
C93 H116 0.929 . S
C94 C93 1.380 . S
C94 C95 1.347 . S
C94 H117 0.931 . S
C95 C94 1.347 . S
C95 C96 1.369 1_556 S
C96 C95 1.369 1_554 S
C96 C97 1.408 . S
C96 H118 0.930 . S
C97 C92 1.348 . S
C97 C96 1.408 . S
C97 H119 0.930 . S
C98 O108 1.281 . S
C98 O109 1.254 . S
C99 O110 1.236 . S
C99 O111 1.266 1_554 S
O100 Tb80 2.484 1_554 S
O100 C82 1.248 1_554 S
O101 Tb80 2.440 . S
O101 C82 1.266 . S
O102 Tb80 2.658 . S
O102 Tb81 2.325 1_556 S
O102 C89 1.281 . S
O103 Tb80 2.409 . S
O103 C89 1.254 . S
O104 Tb80 2.378 . S
O104 C90 1.236 . S
O105 Tb81 2.341 . S
O105 C90 1.266 1_554 S
O106 Tb81 2.484 1_556 S
O106 C91 1.248 1_556 S
O107 Tb81 2.440 . S
O107 C91 1.266 . S
O108 Tb80 2.325 1_554 S
O108 Tb81 2.658 . S
O108 C98 1.281 . S
O109 Tb81 2.409 . S
O109 C98 1.254 . S
O110 Tb81 2.378 . S
O110 C99 1.236 . S
O111 Tb80 2.341 . S
O111 C99 1.266 1_556 S
H112 C84 0.929 . S
H113 C85 0.931 . S
H114 C87 0.930 . S
H115 C88 0.930 . S
H116 C93 0.929 . S
H117 C94 0.931 . S
H118 C96 0.930 . S
H119 C97 0.930 . S
Tb120 C122 2.809 . S
Tb120 O140 2.484 . S
Tb120 O141 2.440 . S
Tb120 O142 2.658 . S
Tb120 O143 2.409 . S
Tb120 O144 2.378 . S
Tb120 O148 2.325 . S
Tb120 O151 2.341 . S
Tb121 C131 2.809 . S
Tb121 O142 2.325 . S
Tb121 O145 2.341 . S
Tb121 O146 2.484 . S
Tb121 O147 2.440 . S
Tb121 O148 2.658 . S
Tb121 O149 2.409 . S
Tb121 O150 2.378 . S
C122 Tb120 2.809 . S
C122 C123 1.514 . S
C122 O140 1.248 . S
C122 O141 1.266 . S
C123 C122 1.514 . S
C123 C124 1.359 . S
C123 C128 1.348 . S
C124 C123 1.359 . S
C124 C125 1.380 . S
C124 H152 0.929 . S
C125 C124 1.380 . S
C125 C126 1.347 . S
C125 H153 0.931 . S
C126 C125 1.347 . S
C126 C127 1.369 . S
C127 C126 1.369 . S
C127 C128 1.408 . S
C127 H154 0.930 . S
C128 C123 1.348 . S
C128 C127 1.408 . S
C128 H155 0.930 . S
C129 O142 1.281 . S
C129 O143 1.254 . S
C130 O144 1.236 . S
C130 O145 1.266 . S
C131 Tb121 2.809 . S
C131 C132 1.514 . S
C131 O146 1.248 . S
C131 O147 1.266 . S
C132 C131 1.514 . S
C132 C133 1.359 . S
C132 C137 1.348 . S
C133 C132 1.359 . S
C133 C134 1.380 . S
C133 H156 0.929 . S
C134 C133 1.380 . S
C134 C135 1.347 . S
C134 H157 0.931 . S
C135 C134 1.347 . S
C135 C136 1.369 . S
C136 C135 1.369 . S
C136 C137 1.408 . S
C136 H158 0.930 . S
C137 C132 1.348 . S
C137 C136 1.408 . S
C137 H159 0.930 . S
C138 O148 1.281 . S
C138 O149 1.254 . S
C139 O150 1.236 . S
C139 O151 1.266 . S
O140 Tb120 2.484 . S
O140 C122 1.248 . S
O141 Tb120 2.440 . S
O141 C122 1.266 . S
O142 Tb120 2.658 . S
O142 Tb121 2.325 . S
O142 C129 1.281 . S
O143 Tb120 2.409 . S
O143 C129 1.254 . S
O144 Tb120 2.378 . S
O144 C130 1.236 . S
O145 Tb121 2.341 . S
O145 C130 1.266 . S
O146 Tb121 2.484 . S
O146 C131 1.248 . S
O147 Tb121 2.440 . S
O147 C131 1.266 . S
O148 Tb120 2.325 . S
O148 Tb121 2.658 . S
O148 C138 1.281 . S
O149 Tb121 2.409 . S
O149 C138 1.254 . S
O150 Tb121 2.378 . S
O150 C139 1.236 . S
O151 Tb120 2.341 . S
O151 C139 1.266 . S
H152 C124 0.929 . S
H153 C125 0.931 . S
H154 C127 0.930 . S
H155 C128 0.930 . S
H156 C133 0.929 . S
H157 C134 0.931 . S
H158 C136 0.930 . S
H159 C137 0.930 . S
C160 C161 1.344 1_556 S
C160 C162 1.327 . S
C160 H185 0.950 . S
C161 C160 1.344 1_554 S
C161 C177 1.353 . S
C162 C160 1.327 . S
C162 C181 1.426 1_556 S
C162 H186 0.950 . S
C163 C180 1.574 . S
C163 C182 1.369 . S
C163 H187 0.949 . S
H164 C168 0.949 . S
C165 C166 1.349 1_554 S
C165 C167 1.327 . S
C165 H188 0.950 . S
C166 C165 1.349 1_556 S
C166 C178 1.348 . S
C167 C165 1.327 . S
C167 C183 1.426 . S
C167 H189 0.950 . S
C168 H164 0.949 . S
C168 C176 1.574 . S
C168 C184 1.369 1_556 S
H169 C177 0.950 . S
H170 C175 0.950 . S
H171 C176 0.949 . S
H172 C178 0.950 . S
H173 C179 0.950 . S
H174 C180 0.949 . S
C175 H170 0.950 . S
C175 C177 1.327 . S
C175 C181 1.431 . S
C176 C168 1.574 . S
C176 H171 0.949 . S
C176 C182 1.367 1_556 S
C177 C161 1.353 . S
C177 H169 0.950 . S
C177 C175 1.327 . S
C178 C166 1.348 . S
C178 H172 0.950 . S
C178 C179 1.327 . S
C179 H173 0.950 . S
C179 C178 1.327 . S
C179 C183 1.431 1_556 S
C180 C163 1.574 . S
C180 H174 0.949 . S
C180 C184 1.367 . S
C181 C162 1.426 1_554 S
C181 C175 1.431 . S
C181 C182 1.523 . S
C182 C163 1.369 . S
C182 C176 1.367 1_554 S
C182 C181 1.523 . S
C183 C167 1.426 . S
C183 C179 1.431 1_554 S
C183 C184 1.523 . S
C184 C168 1.369 1_554 S
C184 C180 1.367 . S
C184 C183 1.523 . S
H185 C160 0.950 . S
H186 C162 0.950 . S
H187 C163 0.949 . S
H188 C165 0.950 . S
H189 C167 0.950 . S
C190 C191 1.348 . S
C190 C192 1.327 . S
C190 H215 0.950 . S
C191 C190 1.348 . S
C191 C207 1.349 1_556 S
C192 C190 1.327 . S
C192 C211 1.431 1_556 S
C192 H216 0.950 . S
C193 C210 1.574 . S
C193 C212 1.367 . S
C193 H217 0.949 . S
H194 C198 0.949 . S
C195 C196 1.354 . S
C195 C197 1.327 . S
C195 H218 0.950 . S
C196 C195 1.354 . S
C196 C208 1.344 1_554 S
C197 C195 1.327 . S
C197 C213 1.431 . S
C197 H219 0.950 . S
C198 H194 0.949 . S
C198 C206 1.574 . S
C198 C214 1.367 1_556 S
H199 C207 0.950 . S
H200 C205 0.950 . S
H201 C206 0.949 . S
H202 C208 0.950 . S
H203 C209 0.950 . S
H204 C210 0.949 . S
C205 H200 0.950 . S
C205 C207 1.327 . S
C205 C211 1.426 . S
C206 C198 1.574 . S
C206 H201 0.949 . S
C206 C212 1.370 1_556 S
C207 C191 1.349 1_554 S
C207 H199 0.950 . S
C207 C205 1.327 . S
C208 C196 1.344 1_556 S
C208 H202 0.950 . S
C208 C209 1.327 . S
C209 H203 0.950 . S
C209 C208 1.327 . S
C209 C213 1.426 1_556 S
C210 C193 1.574 . S
C210 H204 0.949 . S
C210 C214 1.370 . S
C211 C192 1.431 1_554 S
C211 C205 1.426 . S
C211 C212 1.523 . S
C212 C193 1.367 . S
C212 C206 1.370 1_554 S
C212 C211 1.523 . S
C213 C197 1.431 . S
C213 C209 1.426 1_554 S
C213 C214 1.523 . S
C214 C198 1.367 1_554 S
C214 C210 1.370 . S
C214 C213 1.523 . S
H215 C190 0.950 . S
H216 C192 0.950 . S
H217 C193 0.949 . S
H218 C195 0.950 . S
H219 C197 0.950 . S
C220 C221 1.349 . S
C220 C222 1.327 . S
C220 H245 0.950 . S
C221 C220 1.349 . S
C221 C237 1.349 . S
C222 C220 1.327 . S
C222 C241 1.429 . S
C222 H246 0.950 . S
C223 C240 1.574 . S
C223 C242 1.368 . S
C223 H247 0.949 . S
H224 C228 0.949 . S
C225 C226 1.349 . S
C225 C227 1.327 . S
C225 H248 0.950 . S
C226 C225 1.349 . S
C226 C238 1.349 . S
C227 C225 1.327 . S
C227 C243 1.429 . S
C227 H249 0.950 . S
C228 H224 0.949 . S
C228 C236 1.574 . S
C228 C244 1.368 . S
H229 C237 0.950 . S
H230 C235 0.950 . S
H231 C236 0.949 . S
H232 C238 0.950 . S
H233 C239 0.950 . S
H234 C240 0.949 . S
C235 H230 0.950 . S
C235 C237 1.327 . S
C235 C241 1.429 . S
C236 C228 1.574 . S
C236 H231 0.949 . S
C236 C242 1.368 . S
C237 C221 1.349 . S
C237 H229 0.950 . S
C237 C235 1.327 . S
C238 C226 1.349 . S
C238 H232 0.950 . S
C238 C239 1.327 . S
C239 H233 0.950 . S
C239 C238 1.327 . S
C239 C243 1.429 . S
C240 C223 1.574 . S
C240 H234 0.949 . S
C240 C244 1.368 . S
C241 C222 1.429 . S
C241 C235 1.429 . S
C241 C242 1.523 . S
C242 C223 1.368 . S
C242 C236 1.368 . S
C242 C241 1.523 . S
C243 C227 1.429 . S
C243 C239 1.429 . S
C243 C244 1.523 . S
C244 C228 1.368 . S
C244 C240 1.368 . S
C244 C243 1.523 . S
H245 C220 0.950 . S
H246 C222 0.950 . S
H247 C223 0.949 . S
H248 C225 0.950 . S
H249 C227 0.950 . S
C250 C251 1.349 . S
C250 C252 1.327 . S
C250 H275 0.950 . S
C251 C250 1.349 . S
C251 C267 1.349 . S
C252 C250 1.327 . S
C252 C271 1.429 . S
C252 H276 0.950 . S
C253 C270 1.574 . S
C253 C272 1.368 . S
C253 H277 0.949 . S
H254 C258 0.949 . S
C255 C256 1.349 . S
C255 C257 1.327 . S
C255 H278 0.950 . S
C256 C255 1.349 . S
C256 C268 1.349 . S
C257 C255 1.327 . S
C257 C273 1.429 . S
C257 H279 0.950 . S
C258 H254 0.949 . S
C258 C266 1.574 . S
C258 C274 1.368 . S
H259 C267 0.950 . S
H260 C265 0.950 . S
H261 C266 0.949 . S
H262 C268 0.950 . S
H263 C269 0.950 . S
H264 C270 0.949 . S
C265 H260 0.950 . S
C265 C267 1.327 . S
C265 C271 1.429 . S
C266 C258 1.574 . S
C266 H261 0.949 . S
C266 C272 1.368 . S
C267 C251 1.349 . S
C267 H259 0.950 . S
C267 C265 1.327 . S
C268 C256 1.349 . S
C268 H262 0.950 . S
C268 C269 1.327 . S
C269 H263 0.950 . S
C269 C268 1.327 . S
C269 C273 1.429 . S
C270 C253 1.574 . S
C270 H264 0.949 . S
C270 C274 1.368 . S
C271 C252 1.429 . S
C271 C265 1.429 . S
C271 C272 1.523 . S
C272 C253 1.368 . S
C272 C266 1.368 . S
C272 C271 1.523 . S
C273 C257 1.429 . S
C273 C269 1.429 . S
C273 C274 1.523 . S
C274 C258 1.368 . S
C274 C270 1.368 . S
C274 C273 1.523 . S
H275 C250 0.950 . S
H276 C252 0.950 . S
H277 C253 0.949 . S
H278 C255 0.950 . S
H279 C257 0.950 . S
C280 C281 1.349 1_554 S
C280 C282 1.327 . S
C280 H305 0.950 . S
C281 C280 1.349 1_556 S
C281 C297 1.349 . S
C282 C280 1.327 . S
C282 C301 1.429 1_554 S
C282 H306 0.950 . S
C283 C300 1.574 . S
C283 C302 1.368 1_545 S
C283 H307 0.949 . S
H284 C288 0.949 . S
C285 C286 1.349 1_556 S
C285 C287 1.327 . S
C285 H308 0.950 . S
C286 C285 1.349 1_554 S
C286 C298 1.349 . S
C287 C285 1.327 . S
C287 C303 1.429 1_556 S
C287 H309 0.950 . S
C288 H284 0.949 . S
C288 C296 1.574 . S
C288 C304 1.368 1_565 S
H289 C297 0.950 . S
H290 C295 0.950 1_545 S
H291 C296 0.949 . S
H292 C298 0.950 . S
H293 C299 0.950 1_565 S
H294 C300 0.949 . S
C295 H290 0.950 1_565 S
C295 C297 1.327 . S
C295 C301 1.429 . S
C296 C288 1.574 . S
C296 H291 0.949 . S
C296 C302 1.368 1_554 S
C297 C281 1.349 . S
C297 H289 0.950 . S
C297 C295 1.327 . S
C298 C286 1.349 . S
C298 H292 0.950 . S
C298 C299 1.327 . S
C299 H293 0.950 1_545 S
C299 C298 1.327 . S
C299 C303 1.429 . S
C300 C283 1.574 . S
C300 H294 0.949 . S
C300 C304 1.368 1_556 S
C301 C282 1.429 1_556 S
C301 C295 1.429 . S
C301 C302 1.523 . S
C302 C283 1.368 1_565 S
C302 C296 1.368 1_556 S
C302 C301 1.523 . S
C303 C287 1.429 1_554 S
C303 C299 1.429 . S
C303 C304 1.523 . S
C304 C288 1.368 1_545 S
C304 C300 1.368 1_554 S
C304 C303 1.523 . S
H305 C280 0.950 . S
H306 C282 0.950 . S
H307 C283 0.949 . S
H308 C285 0.950 . S
H309 C287 0.950 . S
C310 C311 1.338 1_545 S
C310 C312 1.327 . S
C310 H335 0.950 . S
C311 C310 1.338 1_565 S
C311 C327 1.353 . S
C312 C310 1.327 . S
C312 C331 1.428 1_545 S
C312 H336 0.950 . S
C313 C330 1.574 . S
C313 C332 1.368 . S
C313 H337 0.949 . S
H314 C318 0.949 . S
C315 C316 1.349 1_565 S
C315 C317 1.327 . S
C315 H338 0.950 . S
C316 C315 1.349 1_545 S
C316 C328 1.349 . S
C317 C315 1.327 . S
C317 C333 1.426 1_565 S
C317 H339 0.950 . S
C318 H314 0.949 . S
C318 C326 1.574 . S
C318 C334 1.370 . S
H319 C327 0.950 . S
H320 C325 0.950 . S
H321 C326 0.949 . S
H322 C328 0.950 . S
H323 C329 0.950 . S
H324 C330 0.949 . S
C325 H320 0.950 . S
C325 C327 1.327 . S
C325 C331 1.432 . S
C326 C318 1.574 . S
C326 H321 0.949 . S
C326 C332 1.369 1_545 S
C327 C311 1.353 . S
C327 H319 0.950 . S
C327 C325 1.327 . S
C328 C316 1.349 . S
C328 H322 0.950 . S
C328 C329 1.327 . S
C329 H323 0.950 . S
C329 C328 1.327 . S
C329 C333 1.437 . S
C330 C313 1.574 . S
C330 H324 0.949 . S
C330 C334 1.364 1_565 S
C331 C312 1.428 1_565 S
C331 C325 1.432 . S
C331 C332 1.520 . S
C332 C313 1.368 . S
C332 C326 1.369 1_565 S
C332 C331 1.520 . S
C333 C317 1.426 1_545 S
C333 C329 1.437 . S
C333 C334 1.520 . S
C334 C318 1.370 . S
C334 C330 1.364 1_545 S
C334 C333 1.520 . S
H335 C310 0.950 . S
H336 C312 0.950 . S
H337 C313 0.949 . S
H338 C315 0.950 . S
H339 C317 0.950 . S
C340 C341 1.349 1_554 S
C340 C342 1.327 . S
C340 H365 0.950 . S
C341 C340 1.349 1_556 S
C341 C357 1.349 . S
C342 C340 1.327 . S
C342 C361 1.429 1_554 S
C342 H366 0.950 . S
C343 C360 1.574 1_655 S
C343 C362 1.368 . S
C343 H367 0.949 . S
H344 C348 0.949 . S
C345 C346 1.349 1_556 S
C345 C347 1.327 . S
C345 H368 0.950 . S
C346 C345 1.349 1_554 S
C346 C358 1.349 . S
C347 C345 1.327 . S
C347 C363 1.429 1_556 S
C347 H369 0.950 . S
C348 H344 0.949 . S
C348 C356 1.574 1_455 S
C348 C364 1.368 . S
H349 C357 0.950 . S
H350 C355 0.950 . S
H351 C356 0.949 . S
H352 C358 0.950 . S
H353 C359 0.950 . S
H354 C360 0.949 . S
C355 H350 0.950 . S
C355 C357 1.327 . S
C355 C361 1.429 . S
C356 C348 1.574 1_655 S
C356 H351 0.949 . S
C356 C362 1.368 1_554 S
C357 C341 1.349 . S
C357 H349 0.950 . S
C357 C355 1.327 . S
C358 C346 1.349 . S
C358 H352 0.950 . S
C358 C359 1.327 . S
C359 H353 0.950 . S
C359 C358 1.327 . S
C359 C363 1.429 . S
C360 C343 1.574 1_455 S
C360 H354 0.949 . S
C360 C364 1.368 1_556 S
C361 C342 1.429 1_556 S
C361 C355 1.429 . S
C361 C362 1.523 . S
C362 C343 1.368 . S
C362 C356 1.368 1_556 S
C362 C361 1.523 . S
C363 C347 1.429 1_554 S
C363 C359 1.429 . S
C363 C364 1.523 . S
C364 C348 1.368 . S
C364 C360 1.368 1_554 S
C364 C363 1.523 . S
H365 C340 0.950 . S
H366 C342 0.950 . S
H367 C343 0.949 . S
H368 C345 0.950 . S
H369 C347 0.950 . S
C370 C371 1.349 . S
C370 C372 1.327 . S
C370 H395 0.950 . S
C371 C370 1.349 . S
C371 C387 1.349 . S
C372 C370 1.327 . S
C372 C391 1.429 . S
C372 H396 0.950 . S
C373 C390 1.574 1_455 S
C373 C392 1.368 . S
C373 H397 0.949 . S
H374 C378 0.949 . S
C375 C376 1.349 . S
C375 C377 1.327 . S
C375 H398 0.950 . S
C376 C375 1.349 . S
C376 C388 1.349 . S
C377 C375 1.327 . S
C377 C393 1.429 . S
C377 H399 0.950 . S
C378 H374 0.949 . S
C378 C386 1.574 1_655 S
C378 C394 1.368 . S
H379 C387 0.950 . S
H380 C385 0.950 . S
H381 C386 0.949 . S
H382 C388 0.950 . S
H383 C389 0.950 . S
H384 C390 0.949 . S
C385 H380 0.950 . S
C385 C387 1.327 . S
C385 C391 1.429 . S
C386 C378 1.574 1_455 S
C386 H381 0.949 . S
C386 C392 1.368 . S
C387 C371 1.349 . S
C387 H379 0.950 . S
C387 C385 1.327 . S
C388 C376 1.349 . S
C388 H382 0.950 . S
C388 C389 1.327 . S
C389 H383 0.950 . S
C389 C388 1.327 . S
C389 C393 1.429 . S
C390 C373 1.574 1_655 S
C390 H384 0.949 . S
C390 C394 1.368 . S
C391 C372 1.429 . S
C391 C385 1.429 . S
C391 C392 1.523 . S
C392 C373 1.368 . S
C392 C386 1.368 . S
C392 C391 1.523 . S
C393 C377 1.429 . S
C393 C389 1.429 . S
C393 C394 1.523 . S
C394 C378 1.368 . S
C394 C390 1.368 . S
C394 C393 1.523 . S
H395 C370 0.950 . S
H396 C372 0.950 . S
H397 C373 0.949 . S
H398 C375 0.950 . S
H399 C377 0.950 . S
C400 C401 1.349 1_565 S
C400 C402 1.327 . S
C400 H425 0.950 . S
C401 C400 1.349 1_545 S
C401 C417 1.349 1_655 S
C402 C400 1.327 . S
C402 C421 1.429 1_565 S
C402 H426 0.950 . S
C403 C420 1.574 . S
C403 C422 1.400 1_455 S
C403 H427 0.949 . S
H404 C408 0.949 . S
C405 C406 1.359 1_455 S
C405 C407 1.327 . S
C405 H428 0.950 . S
C406 C405 1.359 1_655 S
C406 C418 1.337 1_545 S
C407 C405 1.327 . S
C407 C423 1.447 1_455 S
C407 H429 0.950 . S
C408 H404 0.949 . S
C408 C416 1.574 . S
C408 C424 1.344 1_565 S
H409 C417 0.950 . S
H410 C415 0.950 . S
H411 C416 0.949 . S
H412 C418 0.950 . S
H413 C419 0.950 . S
H414 C420 0.949 . S
C415 H410 0.950 . S
C415 C417 1.327 . S
C415 C421 1.429 1_455 S
C416 C408 1.574 . S
C416 H411 0.949 . S
C416 C422 1.339 1_565 S
C417 C401 1.349 1_455 S
C417 H409 0.950 . S
C417 C415 1.327 . S
C418 C406 1.337 1_565 S
C418 H412 0.950 . S
C418 C419 1.327 . S
C419 H413 0.950 . S
C419 C418 1.327 . S
C419 C423 1.412 1_565 S
C420 C403 1.574 . S
C420 H414 0.949 . S
C420 C424 1.391 1_455 S
C421 C402 1.429 1_545 S
C421 C415 1.429 1_655 S
C421 C422 1.521 . S
C422 C403 1.400 1_655 S
C422 C416 1.339 1_545 S
C422 C421 1.521 . S
C423 C407 1.447 1_655 S
C423 C419 1.412 1_545 S
C423 C424 1.523 . S
C424 C408 1.344 1_545 S
C424 C420 1.391 1_655 S
C424 C423 1.523 . S
H425 C400 0.950 . S
H426 C402 0.950 . S
H427 C403 0.949 . S
H428 C405 0.950 . S
H429 C407 0.950 . S
C430 C431 1.348 1_655 S
C430 C432 1.327 . S
C430 H455 0.950 . S
C431 C430 1.348 1_455 S
C431 C447 1.349 1_565 S
C432 C430 1.327 . S
C432 C451 1.435 1_655 S
C432 H456 0.950 . S
C433 C450 1.574 . S
C433 C452 1.356 1_545 S
C433 H457 0.949 . S
H434 C438 0.949 . S
C435 C436 1.321 1_545 S
C435 C437 1.327 . S
C435 H458 0.950 . S
C436 C435 1.321 1_565 S
C436 C448 1.380 1_455 S
C437 C435 1.327 . S
C437 C453 1.406 1_545 S
C437 H459 0.950 . S
C438 H434 0.949 . S
C438 C446 1.574 . S
C438 C454 1.388 1_655 S
H439 C447 0.950 . S
H440 C445 0.950 . S
H441 C446 0.949 . S
H442 C448 0.950 . S
H443 C449 0.950 . S
H444 C450 0.949 . S
C445 H440 0.950 . S
C445 C447 1.327 . S
C445 C451 1.422 1_545 S
C446 C438 1.574 . S
C446 H441 0.949 . S
C446 C452 1.379 1_655 S
C447 C431 1.349 1_545 S
C447 H439 0.950 . S
C447 C445 1.327 . S
C448 C436 1.380 1_655 S
C448 H442 0.950 . S
C448 C449 1.327 . S
C449 H443 0.950 . S
C449 C448 1.327 . S
C449 C453 1.449 1_655 S
C450 C433 1.574 . S
C450 H444 0.949 . S
C450 C454 1.350 1_545 S
C451 C432 1.435 1_455 S
C451 C445 1.422 1_565 S
C451 C452 1.523 . S
C452 C433 1.356 1_565 S
C452 C446 1.379 1_455 S
C452 C451 1.523 . S
C453 C437 1.406 1_565 S
C453 C449 1.449 1_455 S
C453 C454 1.523 . S
C454 C438 1.388 1_455 S
C454 C450 1.350 1_565 S
C454 C453 1.523 . S
H455 C430 0.950 . S
H456 C432 0.950 . S
H457 C433 0.949 . S
H458 C435 0.950 . S
H459 C437 0.950 . S
C460 C461 1.349 . S
C460 C462 1.327 . S
C460 H485 0.950 . S
C461 C460 1.349 . S
C461 C477 1.349 . S
C462 C460 1.327 . S
C462 C481 1.429 . S
C462 H486 0.950 . S
C463 C480 1.574 . S
C463 C482 1.368 . S
C463 H487 0.949 . S
H464 C468 0.949 . S
C465 C466 1.349 . S
C465 C467 1.327 . S
C465 H488 0.950 . S
C466 C465 1.349 . S
C466 C478 1.349 . S
C467 C465 1.327 . S
C467 C483 1.429 . S
C467 H489 0.950 . S
C468 H464 0.949 . S
C468 C476 1.574 . S
C468 C484 1.368 . S
H469 C477 0.950 . S
H470 C475 0.950 . S
H471 C476 0.949 . S
H472 C478 0.950 . S
H473 C479 0.950 . S
H474 C480 0.949 . S
C475 H470 0.950 . S
C475 C477 1.327 . S
C475 C481 1.429 . S
C476 C468 1.574 . S
C476 H471 0.949 . S
C476 C482 1.368 . S
C477 C461 1.349 . S
C477 H469 0.950 . S
C477 C475 1.327 . S
C478 C466 1.349 . S
C478 H472 0.950 . S
C478 C479 1.327 . S
C479 H473 0.950 . S
C479 C478 1.327 . S
C479 C483 1.429 . S
C480 C463 1.574 . S
C480 H474 0.949 . S
C480 C484 1.368 . S
C481 C462 1.429 . S
C481 C475 1.429 . S
C481 C482 1.523 . S
C482 C463 1.368 . S
C482 C476 1.368 . S
C482 C481 1.523 . S
C483 C467 1.429 . S
C483 C479 1.429 . S
C483 C484 1.523 . S
C484 C468 1.368 . S
C484 C480 1.368 . S
C484 C483 1.523 . S
H485 C460 0.950 . S
H486 C462 0.950 . S
H487 C463 0.949 . S
H488 C465 0.950 . S
H489 C467 0.950 . S
C490 C491 1.349 . S
C490 C492 1.327 . S
C490 H515 0.950 . S
C491 C490 1.349 . S
C491 C507 1.349 . S
C492 C490 1.327 . S
C492 C511 1.429 . S
C492 H516 0.950 . S
C493 C510 1.574 . S
C493 C512 1.368 . S
C493 H517 0.949 . S
H494 C498 0.949 . S
C495 C496 1.349 . S
C495 C497 1.327 . S
C495 H518 0.950 . S
C496 C495 1.349 . S
C496 C508 1.349 . S
C497 C495 1.327 . S
C497 C513 1.429 . S
C497 H519 0.950 . S
C498 H494 0.949 . S
C498 C506 1.574 . S
C498 C514 1.368 . S
H499 C507 0.950 . S
H500 C505 0.950 . S
H501 C506 0.949 . S
H502 C508 0.950 . S
H503 C509 0.950 . S
H504 C510 0.949 . S
C505 H500 0.950 . S
C505 C507 1.327 . S
C505 C511 1.429 . S
C506 C498 1.574 . S
C506 H501 0.949 . S
C506 C512 1.368 . S
C507 C491 1.349 . S
C507 H499 0.950 . S
C507 C505 1.327 . S
C508 C496 1.349 . S
C508 H502 0.950 . S
C508 C509 1.327 . S
C509 H503 0.950 . S
C509 C508 1.327 . S
C509 C513 1.429 . S
C510 C493 1.574 . S
C510 H504 0.949 . S
C510 C514 1.368 . S
C511 C492 1.429 . S
C511 C505 1.429 . S
C511 C512 1.523 . S
C512 C493 1.368 . S
C512 C506 1.368 . S
C512 C511 1.523 . S
C513 C497 1.429 . S
C513 C509 1.429 . S
C513 C514 1.523 . S
C514 C498 1.368 . S
C514 C510 1.368 . S
C514 C513 1.523 . S
H515 C490 0.950 . S
H516 C492 0.950 . S
H517 C493 0.949 . S
H518 C495 0.950 . S
H519 C497 0.950 . S
C161 C90 3.496 1_554 S
C166 C19 3.496 1_556 S
C191 C99 3.496 1_556 S
C196 C10 3.497 1_554 S
C221 C55 0.095 . S
C226 C126 0.094 . S
C251 C46 0.095 . S
C256 C135 0.096 . S
C281 C15 0.879 . S
C286 C6 0.879 . S
C311 C59 4.899 . S
C316 C50 4.891 . S
C341 C95 0.879 . S
C346 C86 0.879 . S
C371 C130 4.891 . S
C376 C139 4.891 . S
C401 C49 1.449 1_645 S
C406 C18 1.453 1_655 S
C431 C9 1.449 1_455 S
C436 C58 1.438 1_465 S
C461 C129 1.448 . S
C466 C98 1.449 . S
C491 C138 1.448 . S
C496 C89 1.450 . S
