# Generated by pormake.
# Topology fcr, (5)-cn, num edge types: 1
# Building blocks:
#     Node 0, Type 0, BuildingBlock: BEQFEK_clean_sbu_0, # of connection points: 5
#     Node 1, Type 0, BuildingBlock: BEQFEK_clean_sbu_0, # of connection points: 5
#     Node 2, Type 0, BuildingBlock: BEQFEK_clean_sbu_0, # of connection points: 5
#     Node 3, Type 0, BuildingBlock: BEQFEK_clean_sbu_0, # of connection points: 5
#     Node 4, Type 0, BuildingBlock: BEQFEK_clean_sbu_0, # of connection points: 5
#     Node 5, Type 0, BuildingBlock: BEQFEK_clean_sbu_0, # of connection points: 5
#     Node 6, Type 0, BuildingBlock: BEQFEK_clean_sbu_0, # of connection points: 5
#     Node 7, Type 0, BuildingBlock: BEQFEK_clean_sbu_0, # of connection points: 5
#     Node 8, Type 0, BuildingBlock: BEQFEK_clean_sbu_0, # of connection points: 5
#     Node 9, Type 0, BuildingBlock: BEQFEK_clean_sbu_0, # of connection points: 5
#     Node 10, Type 0, BuildingBlock: BEQFEK_clean_sbu_0, # of connection points: 5
#     Node 11, Type 0, BuildingBlock: BEQFEK_clean_sbu_0, # of connection points: 5
#     Node 12, Type 0, BuildingBlock: BEQFEK_clean_sbu_0, # of connection points: 5
#     Node 13, Type 0, BuildingBlock: BEQFEK_clean_sbu_0, # of connection points: 5
#     Node 14, Type 0, BuildingBlock: BEQFEK_clean_sbu_0, # of connection points: 5
#     Node 15, Type 0, BuildingBlock: BEQFEK_clean_sbu_0, # of connection points: 5
#     Node 16, Type 0, BuildingBlock: BEQFEK_clean_sbu_0, # of connection points: 5
#     Node 17, Type 0, BuildingBlock: BEQFEK_clean_sbu_0, # of connection points: 5
#     Node 18, Type 0, BuildingBlock: BEQFEK_clean_sbu_0, # of connection points: 5
#     Node 19, Type 0, BuildingBlock: BEQFEK_clean_sbu_0, # of connection points: 5
#     Node 20, Type 0, BuildingBlock: BEQFEK_clean_sbu_0, # of connection points: 5
#     Node 21, Type 0, BuildingBlock: BEQFEK_clean_sbu_0, # of connection points: 5
#     Node 22, Type 0, BuildingBlock: BEQFEK_clean_sbu_0, # of connection points: 5
#     Node 23, Type 0, BuildingBlock: BEQFEK_clean_sbu_0, # of connection points: 5
#     Node 24, Type 0, BuildingBlock: BEQFEK_clean_sbu_0, # of connection points: 5
#     Node 25, Type 0, BuildingBlock: BEQFEK_clean_sbu_0, # of connection points: 5
#     Node 26, Type 0, BuildingBlock: BEQFEK_clean_sbu_0, # of connection points: 5
#     Node 27, Type 0, BuildingBlock: BEQFEK_clean_sbu_0, # of connection points: 5
#     Node 28, Type 0, BuildingBlock: BEQFEK_clean_sbu_0, # of connection points: 5
#     Node 29, Type 0, BuildingBlock: BEQFEK_clean_sbu_0, # of connection points: 5
#     Node 30, Type 0, BuildingBlock: BEQFEK_clean_sbu_0, # of connection points: 5
#     Node 31, Type 0, BuildingBlock: BEQFEK_clean_sbu_0, # of connection points: 5
#     Node 32, Type 0, BuildingBlock: BEQFEK_clean_sbu_0, # of connection points: 5
#     Node 33, Type 0, BuildingBlock: BEQFEK_clean_sbu_0, # of connection points: 5
#     Node 34, Type 0, BuildingBlock: BEQFEK_clean_sbu_0, # of connection points: 5
#     Node 35, Type 0, BuildingBlock: BEQFEK_clean_sbu_0, # of connection points: 5
#     Node 36, Type 0, BuildingBlock: BEQFEK_clean_sbu_0, # of connection points: 5
#     Node 37, Type 0, BuildingBlock: BEQFEK_clean_sbu_0, # of connection points: 5
#     Node 38, Type 0, BuildingBlock: BEQFEK_clean_sbu_0, # of connection points: 5
#     Node 39, Type 0, BuildingBlock: BEQFEK_clean_sbu_0, # of connection points: 5
#     Node 40, Type 0, BuildingBlock: BEQFEK_clean_sbu_0, # of connection points: 5
#     Node 41, Type 0, BuildingBlock: BEQFEK_clean_sbu_0, # of connection points: 5
#     Node 42, Type 0, BuildingBlock: BEQFEK_clean_sbu_0, # of connection points: 5
#     Node 43, Type 0, BuildingBlock: BEQFEK_clean_sbu_0, # of connection points: 5
#     Node 44, Type 0, BuildingBlock: BEQFEK_clean_sbu_0, # of connection points: 5
#     Node 45, Type 0, BuildingBlock: BEQFEK_clean_sbu_0, # of connection points: 5
#     Node 46, Type 0, BuildingBlock: BEQFEK_clean_sbu_0, # of connection points: 5
#     Node 47, Type 0, BuildingBlock: BEQFEK_clean_sbu_0, # of connection points: 5
#     Edge 48, Type (0, 0), BuildingBlock: CIFDUS_clean_linker_0, # of connection points: 2
#     Edge 49, Type (0, 0), BuildingBlock: CIFDUS_clean_linker_0, # of connection points: 2
#     Edge 50, Type (0, 0), BuildingBlock: CIFDUS_clean_linker_0, # of connection points: 2
#     Edge 51, Type (0, 0), BuildingBlock: CIFDUS_clean_linker_0, # of connection points: 2
#     Edge 52, Type (0, 0), BuildingBlock: CIFDUS_clean_linker_0, # of connection points: 2
#     Edge 53, Type (0, 0), BuildingBlock: CIFDUS_clean_linker_0, # of connection points: 2
#     Edge 54, Type (0, 0), BuildingBlock: CIFDUS_clean_linker_0, # of connection points: 2
#     Edge 55, Type (0, 0), BuildingBlock: CIFDUS_clean_linker_0, # of connection points: 2
#     Edge 56, Type (0, 0), BuildingBlock: CIFDUS_clean_linker_0, # of connection points: 2
#     Edge 57, Type (0, 0), BuildingBlock: CIFDUS_clean_linker_0, # of connection points: 2
#     Edge 58, Type (0, 0), BuildingBlock: CIFDUS_clean_linker_0, # of connection points: 2
#     Edge 59, Type (0, 0), BuildingBlock: CIFDUS_clean_linker_0, # of connection points: 2
#     Edge 60, Type (0, 0), BuildingBlock: CIFDUS_clean_linker_0, # of connection points: 2
#     Edge 61, Type (0, 0), BuildingBlock: CIFDUS_clean_linker_0, # of connection points: 2
#     Edge 62, Type (0, 0), BuildingBlock: CIFDUS_clean_linker_0, # of connection points: 2
#     Edge 63, Type (0, 0), BuildingBlock: CIFDUS_clean_linker_0, # of connection points: 2
#     Edge 64, Type (0, 0), BuildingBlock: CIFDUS_clean_linker_0, # of connection points: 2
#     Edge 65, Type (0, 0), BuildingBlock: CIFDUS_clean_linker_0, # of connection points: 2
#     Edge 66, Type (0, 0), BuildingBlock: CIFDUS_clean_linker_0, # of connection points: 2
#     Edge 67, Type (0, 0), BuildingBlock: CIFDUS_clean_linker_0, # of connection points: 2
#     Edge 68, Type (0, 0), BuildingBlock: CIFDUS_clean_linker_0, # of connection points: 2
#     Edge 69, Type (0, 0), BuildingBlock: CIFDUS_clean_linker_0, # of connection points: 2
#     Edge 70, Type (0, 0), BuildingBlock: CIFDUS_clean_linker_0, # of connection points: 2
#     Edge 71, Type (0, 0), BuildingBlock: CIFDUS_clean_linker_0, # of connection points: 2
#     Edge 72, Type (0, 0), BuildingBlock: CIFDUS_clean_linker_0, # of connection points: 2
#     Edge 73, Type (0, 0), BuildingBlock: CIFDUS_clean_linker_0, # of connection points: 2
#     Edge 74, Type (0, 0), BuildingBlock: CIFDUS_clean_linker_0, # of connection points: 2
#     Edge 75, Type (0, 0), BuildingBlock: CIFDUS_clean_linker_0, # of connection points: 2
#     Edge 76, Type (0, 0), BuildingBlock: CIFDUS_clean_linker_0, # of connection points: 2
#     Edge 77, Type (0, 0), BuildingBlock: CIFDUS_clean_linker_0, # of connection points: 2
#     Edge 78, Type (0, 0), BuildingBlock: CIFDUS_clean_linker_0, # of connection points: 2
#     Edge 79, Type (0, 0), BuildingBlock: CIFDUS_clean_linker_0, # of connection points: 2
#     Edge 80, Type (0, 0), BuildingBlock: CIFDUS_clean_linker_0, # of connection points: 2
#     Edge 81, Type (0, 0), BuildingBlock: CIFDUS_clean_linker_0, # of connection points: 2
#     Edge 82, Type (0, 0), BuildingBlock: CIFDUS_clean_linker_0, # of connection points: 2
#     Edge 83, Type (0, 0), BuildingBlock: CIFDUS_clean_linker_0, # of connection points: 2
#     Edge 84, Type (0, 0), BuildingBlock: CIFDUS_clean_linker_0, # of connection points: 2
#     Edge 85, Type (0, 0), BuildingBlock: CIFDUS_clean_linker_0, # of connection points: 2
#     Edge 86, Type (0, 0), BuildingBlock: CIFDUS_clean_linker_0, # of connection points: 2
#     Edge 87, Type (0, 0), BuildingBlock: CIFDUS_clean_linker_0, # of connection points: 2
#     Edge 88, Type (0, 0), BuildingBlock: CIFDUS_clean_linker_0, # of connection points: 2
#     Edge 89, Type (0, 0), BuildingBlock: CIFDUS_clean_linker_0, # of connection points: 2
#     Edge 90, Type (0, 0), BuildingBlock: CIFDUS_clean_linker_0, # of connection points: 2
#     Edge 91, Type (0, 0), BuildingBlock: CIFDUS_clean_linker_0, # of connection points: 2
#     Edge 92, Type (0, 0), BuildingBlock: CIFDUS_clean_linker_0, # of connection points: 2
#     Edge 93, Type (0, 0), BuildingBlock: CIFDUS_clean_linker_0, # of connection points: 2
#     Edge 94, Type (0, 0), BuildingBlock: CIFDUS_clean_linker_0, # of connection points: 2
#     Edge 95, Type (0, 0), BuildingBlock: CIFDUS_clean_linker_0, # of connection points: 2
#     Edge 96, Type (0, 0), BuildingBlock: CIFDUS_clean_linker_0, # of connection points: 2
#     Edge 97, Type (0, 0), BuildingBlock: CIFDUS_clean_linker_0, # of connection points: 2
#     Edge 98, Type (0, 0), BuildingBlock: CIFDUS_clean_linker_0, # of connection points: 2
#     Edge 99, Type (0, 0), BuildingBlock: CIFDUS_clean_linker_0, # of connection points: 2
#     Edge 100, Type (0, 0), BuildingBlock: CIFDUS_clean_linker_0, # of connection points: 2
#     Edge 101, Type (0, 0), BuildingBlock: CIFDUS_clean_linker_0, # of connection points: 2
#     Edge 102, Type (0, 0), BuildingBlock: CIFDUS_clean_linker_0, # of connection points: 2
#     Edge 103, Type (0, 0), BuildingBlock: CIFDUS_clean_linker_0, # of connection points: 2
#     Edge 104, Type (0, 0), BuildingBlock: CIFDUS_clean_linker_0, # of connection points: 2
#     Edge 105, Type (0, 0), BuildingBlock: CIFDUS_clean_linker_0, # of connection points: 2
#     Edge 106, Type (0, 0), BuildingBlock: CIFDUS_clean_linker_0, # of connection points: 2
#     Edge 107, Type (0, 0), BuildingBlock: CIFDUS_clean_linker_0, # of connection points: 2
#     Edge 108, Type (0, 0), BuildingBlock: CIFDUS_clean_linker_0, # of connection points: 2
#     Edge 109, Type (0, 0), BuildingBlock: CIFDUS_clean_linker_0, # of connection points: 2
#     Edge 110, Type (0, 0), BuildingBlock: CIFDUS_clean_linker_0, # of connection points: 2
#     Edge 111, Type (0, 0), BuildingBlock: CIFDUS_clean_linker_0, # of connection points: 2
#     Edge 112, Type (0, 0), BuildingBlock: CIFDUS_clean_linker_0, # of connection points: 2
#     Edge 113, Type (0, 0), BuildingBlock: CIFDUS_clean_linker_0, # of connection points: 2
#     Edge 114, Type (0, 0), BuildingBlock: CIFDUS_clean_linker_0, # of connection points: 2
#     Edge 115, Type (0, 0), BuildingBlock: CIFDUS_clean_linker_0, # of connection points: 2
#     Edge 116, Type (0, 0), BuildingBlock: CIFDUS_clean_linker_0, # of connection points: 2
#     Edge 117, Type (0, 0), BuildingBlock: CIFDUS_clean_linker_0, # of connection points: 2
#     Edge 118, Type (0, 0), BuildingBlock: CIFDUS_clean_linker_0, # of connection points: 2
#     Edge 119, Type (0, 0), BuildingBlock: CIFDUS_clean_linker_0, # of connection points: 2
#     Edge 120, Type (0, 0), BuildingBlock: CIFDUS_clean_linker_0, # of connection points: 2
#     Edge 121, Type (0, 0), BuildingBlock: CIFDUS_clean_linker_0, # of connection points: 2
#     Edge 122, Type (0, 0), BuildingBlock: CIFDUS_clean_linker_0, # of connection points: 2
#     Edge 123, Type (0, 0), BuildingBlock: CIFDUS_clean_linker_0, # of connection points: 2
#     Edge 124, Type (0, 0), BuildingBlock: CIFDUS_clean_linker_0, # of connection points: 2
#     Edge 125, Type (0, 0), BuildingBlock: CIFDUS_clean_linker_0, # of connection points: 2
#     Edge 126, Type (0, 0), BuildingBlock: CIFDUS_clean_linker_0, # of connection points: 2
#     Edge 127, Type (0, 0), BuildingBlock: CIFDUS_clean_linker_0, # of connection points: 2
#     Edge 128, Type (0, 0), BuildingBlock: CIFDUS_clean_linker_0, # of connection points: 2
#     Edge 129, Type (0, 0), BuildingBlock: CIFDUS_clean_linker_0, # of connection points: 2
#     Edge 130, Type (0, 0), BuildingBlock: CIFDUS_clean_linker_0, # of connection points: 2
#     Edge 131, Type (0, 0), BuildingBlock: CIFDUS_clean_linker_0, # of connection points: 2
#     Edge 132, Type (0, 0), BuildingBlock: CIFDUS_clean_linker_0, # of connection points: 2
#     Edge 133, Type (0, 0), BuildingBlock: CIFDUS_clean_linker_0, # of connection points: 2
#     Edge 134, Type (0, 0), BuildingBlock: CIFDUS_clean_linker_0, # of connection points: 2
#     Edge 135, Type (0, 0), BuildingBlock: CIFDUS_clean_linker_0, # of connection points: 2
#     Edge 136, Type (0, 0), BuildingBlock: CIFDUS_clean_linker_0, # of connection points: 2
#     Edge 137, Type (0, 0), BuildingBlock: CIFDUS_clean_linker_0, # of connection points: 2
#     Edge 138, Type (0, 0), BuildingBlock: CIFDUS_clean_linker_0, # of connection points: 2
#     Edge 139, Type (0, 0), BuildingBlock: CIFDUS_clean_linker_0, # of connection points: 2
#     Edge 140, Type (0, 0), BuildingBlock: CIFDUS_clean_linker_0, # of connection points: 2
#     Edge 141, Type (0, 0), BuildingBlock: CIFDUS_clean_linker_0, # of connection points: 2
#     Edge 142, Type (0, 0), BuildingBlock: CIFDUS_clean_linker_0, # of connection points: 2
#     Edge 143, Type (0, 0), BuildingBlock: CIFDUS_clean_linker_0, # of connection points: 2
#     Edge 144, Type (0, 0), BuildingBlock: CIFDUS_clean_linker_0, # of connection points: 2
#     Edge 145, Type (0, 0), BuildingBlock: CIFDUS_clean_linker_0, # of connection points: 2
#     Edge 146, Type (0, 0), BuildingBlock: CIFDUS_clean_linker_0, # of connection points: 2
#     Edge 147, Type (0, 0), BuildingBlock: CIFDUS_clean_linker_0, # of connection points: 2
#     Edge 148, Type (0, 0), BuildingBlock: CIFDUS_clean_linker_0, # of connection points: 2
#     Edge 149, Type (0, 0), BuildingBlock: CIFDUS_clean_linker_0, # of connection points: 2
#     Edge 150, Type (0, 0), BuildingBlock: CIFDUS_clean_linker_0, # of connection points: 2
#     Edge 151, Type (0, 0), BuildingBlock: CIFDUS_clean_linker_0, # of connection points: 2
#     Edge 152, Type (0, 0), BuildingBlock: CIFDUS_clean_linker_0, # of connection points: 2
#     Edge 153, Type (0, 0), BuildingBlock: CIFDUS_clean_linker_0, # of connection points: 2
#     Edge 154, Type (0, 0), BuildingBlock: CIFDUS_clean_linker_0, # of connection points: 2
#     Edge 155, Type (0, 0), BuildingBlock: CIFDUS_clean_linker_0, # of connection points: 2
#     Edge 156, Type (0, 0), BuildingBlock: CIFDUS_clean_linker_0, # of connection points: 2
#     Edge 157, Type (0, 0), BuildingBlock: CIFDUS_clean_linker_0, # of connection points: 2
#     Edge 158, Type (0, 0), BuildingBlock: CIFDUS_clean_linker_0, # of connection points: 2
#     Edge 159, Type (0, 0), BuildingBlock: CIFDUS_clean_linker_0, # of connection points: 2
#     Edge 160, Type (0, 0), BuildingBlock: CIFDUS_clean_linker_0, # of connection points: 2
#     Edge 161, Type (0, 0), BuildingBlock: CIFDUS_clean_linker_0, # of connection points: 2
#     Edge 162, Type (0, 0), BuildingBlock: CIFDUS_clean_linker_0, # of connection points: 2
#     Edge 163, Type (0, 0), BuildingBlock: CIFDUS_clean_linker_0, # of connection points: 2
#     Edge 164, Type (0, 0), BuildingBlock: CIFDUS_clean_linker_0, # of connection points: 2
#     Edge 165, Type (0, 0), BuildingBlock: CIFDUS_clean_linker_0, # of connection points: 2
#     Edge 166, Type (0, 0), BuildingBlock: CIFDUS_clean_linker_0, # of connection points: 2
#     Edge 167, Type (0, 0), BuildingBlock: CIFDUS_clean_linker_0, # of connection points: 2
# Relax obj value: 0.283
# Max RMSD: 0.172
# Mean RMSD: 0.172
data_MOF--net-fcr--node1-BEQFEK_clean_sbu_0--edge1-CIFDUS_clean_linker_0
_symmetry_space_group_name_H-M    P1
_symmetry_Int_Tables_number       1
_symmetry_cell_setting            triclinic
loop_
_symmetry_equiv_pos_as_xyz
'x, y, z'
_cell_length_a     57.592795
_cell_length_b     57.51064
_cell_length_c     57.443842
_cell_angle_alpha  90.07006
_cell_angle_beta   89.943109
_cell_angle_gamma 89.928763
loop_
_atom_site_label
_atom_site_type_symbol
_atom_site_fract_x
_atom_site_fract_y
_atom_site_fract_z
_atom_type_partial_charge
Co0 Co 0.11726 0.3011 0.26223 0.0
Co1 Co 0.10057 0.34479 0.23516 0.0
C2 C 0.11912 0.34752 0.28483 0.0
O3 O 0.12202 0.32557 0.28575 0.0
O4 O 0.11072 0.35717 0.26665 0.0
C5 C 0.12733 0.26186 0.29253 0.0
O6 O 0.11675 0.27304 0.30945 0.0
C7 C 0.11011 0.3891 0.21198 0.0
C8 C 0.08273 0.39039 0.18515 0.0
C9 C 0.10255 0.40174 0.19282 0.0
N10 N 0.09562 0.37102 0.21522 0.0
N11 N 0.07902 0.37217 0.19939 0.0
C12 C 0.13228 0.39229 0.2252 0.0
H13 H 0.13777 0.3757 0.23336 0.0
H14 H 0.14626 0.39875 0.21359 0.0
H15 H 0.12944 0.40533 0.23918 0.0
C16 C 0.1514 0.29922 0.22443 0.0
N17 N 0.13282 0.30901 0.23469 0.0
N18 N 0.12545 0.32662 0.22211 0.0
C19 C 0.13903 0.32816 0.20291 0.0
C20 C 0.15591 0.3109 0.20388 0.0
C21 C 0.16553 0.28013 0.23511 0.0
H22 H 0.1678 0.28349 0.25399 0.0
H23 H 0.18291 0.27864 0.22691 0.0
H24 H 0.15619 0.2634 0.23301 0.0
O25 O 0.08463 0.29449 0.25561 0.0
O26 O 0.07097 0.32527 0.23686 0.0
H27 H 0.1431 0.33806 0.16694 0.0
H28 H 0.14422 0.36154 0.18749 0.0
C29 C 0.13546 0.3449 0.18332 0.0
H30 H 0.1167 0.34814 0.18065 0.0
H31 H 0.06592 0.3598 0.19751 0.0
O32 O 0.12959 0.27131 0.27274 0.0
C33 C 0.06812 0.30492 0.24539 0.0
Co34 Co 0.55837 0.65282 0.02218 0.0
Co35 Co 0.59703 0.6775 0.05133 0.0
C36 C 0.60537 0.65714 1.00242 0.0
O37 O 0.58434 0.6507 1.00009 0.0
O38 O 0.61209 0.66786 0.02075 0.0
C39 C 0.51824 0.64092 0.99404 0.0
O40 O 0.52482 0.65742 0.9797 0.0
C41 C 0.63975 0.67189 0.07846 0.0
C42 C 0.6383 0.70181 0.10246 0.0
C43 C 0.65051 0.68142 0.098 0.0
N44 N 0.62184 0.68569 0.07226 0.0
N45 N 0.62146 0.70385 0.08634 0.0
C46 C 0.64441 0.64869 0.0675 0.0
H47 H 0.62938 0.64296 0.05691 0.0
H48 H 0.64831 0.63543 0.08096 0.0
H49 H 0.65973 0.65018 0.05588 0.0
C50 C 0.56093 0.61968 0.06061 0.0
N51 N 0.56742 0.63968 0.0505 0.0
N52 N 0.58161 0.65103 0.06437 0.0
C53 C 0.58351 0.63897 0.0845 0.0
C54 C 0.57091 0.61859 0.08242 0.0
C55 C 0.54518 0.60214 0.0496 0.0
H56 H 0.52721 0.60907 0.04966 0.0
H57 H 0.55046 0.59919 0.03125 0.0
H58 H 0.54526 0.58539 0.05913 0.0
O59 O 0.54702 0.68457 0.02766 0.0
O60 O 0.57355 0.70393 0.04788 0.0
H61 H 0.59787 0.66595 0.10612 0.0
H62 H 0.58737 0.64086 0.12168 0.0
C63 C 0.59643 0.64676 0.10569 0.0
H64 H 0.61394 0.63878 0.10582 0.0
H65 H 0.60879 0.71683 0.08591 0.0
O66 O 0.53076 0.63584 1.01148 0.0
C67 C 0.55366 0.70295 0.03798 0.0
Co68 Co 0.912 0.21672 0.26109 0.0
Co69 Co 0.92961 0.17721 0.22792 0.0
C70 C 0.9112 0.1675 0.27689 0.0
O71 O 0.90757 0.18899 0.28104 0.0
O72 O 0.91999 0.16087 0.25754 0.0
C73 C 0.88448 0.24722 0.29173 0.0
O74 O 0.87407 0.2286 0.29986 0.0
C75 C 0.92036 0.13635 0.19827 0.0
C76 C 0.94935 0.13802 0.17319 0.0
C77 C 0.92887 0.12618 0.17792 0.0
N78 N 0.93488 0.15357 0.20476 0.0
N79 N 0.95243 0.15409 0.18995 0.0
C80 C 0.89764 0.13167 0.21004 0.0
H81 H 0.89243 0.14667 0.22104 0.0
H82 H 0.88389 0.128 0.19703 0.0
H83 H 0.89952 0.11619 0.22139 0.0
C84 C 0.87716 0.22203 0.22387 0.0
N85 N 0.89641 0.2121 0.23265 0.0
N86 N 0.90465 0.19685 0.21763 0.0
C87 C 0.8913 0.19749 0.19827 0.0
C88 C 0.8733 0.21309 0.20187 0.0
C89 C 0.86254 0.23951 0.23647 0.0
H90 H 0.87324 0.25497 0.24068 0.0
H91 H 0.85629 0.23186 0.25304 0.0
H92 H 0.84743 0.24514 0.22591 0.0
O93 O 0.94477 0.2245 0.25474 0.0
O94 O 0.95869 0.19668 0.23185 0.0
H95 H 0.91405 0.18017 0.17413 0.0
H96 H 0.88854 0.19286 0.16116 0.0
C97 C 0.89529 0.18354 0.17664 0.0
H98 H 0.88579 0.16686 0.17793 0.0
H99 H 0.96585 0.16624 0.19057 0.0
O100 O 0.90003 0.24511 0.2762 0.0
C101 C 0.9613 0.2158 0.24292 0.0
Co102 Co 0.47053 0.86798 0.01737 0.0
Co103 Co 0.43204 0.84472 0.04769 0.0
C104 C 0.42336 0.8633 0.99831 0.0
O105 O 0.44427 0.86995 0.99549 0.0
O106 O 0.4171 0.85287 0.01691 0.0
C107 C 0.50664 0.88635 0.98574 0.0
O108 O 0.49584 0.87709 0.96786 0.0
C109 C 0.38806 0.8518 0.07148 0.0
C110 C 0.38901 0.82609 0.09993 0.0
C111 C 0.37637 0.84479 0.0914 0.0
N112 N 0.40682 0.83809 0.06854 0.0
N113 N 0.407 0.82239 0.08532 0.0
C114 C 0.38353 0.87331 0.05751 0.0
H115 H 0.39975 0.87967 0.04931 0.0
H116 H 0.37601 0.88726 0.06855 0.0
H117 H 0.3709 0.86915 0.04353 0.0
C118 C 0.46908 0.9023 0.055 0.0
N119 N 0.462 0.88221 0.04542 0.0
N120 N 0.44735 0.87178 0.05952 0.0
C121 C 0.44541 0.88469 0.07915 0.0
C122 C 0.45884 0.9045 0.07663 0.0
C123 C 0.48578 0.91877 0.04377 0.0
H124 H 0.50332 0.91081 0.04383 0.0
H125 H 0.48062 0.92183 0.02542 0.0
H126 H 0.48673 0.93562 0.05311 0.0
O127 O 0.48162 0.83628 0.02382 0.0
O128 O 0.4554 0.81808 0.04551 0.0
H129 H 0.43074 0.85949 0.10244 0.0
H130 H 0.4379 0.88695 0.11588 0.0
C131 C 0.431 0.87857 0.09993 0.0
H132 H 0.41304 0.88497 0.09732 0.0
H133 H 0.42021 0.81019 0.08769 0.0
O134 O 0.49813 0.88444 1.006 0.0
C135 C 0.4751 0.81847 0.03517 0.0
Co136 Co 0.12217 0.72377 0.26652 0.0
Co137 Co 0.10039 0.68511 0.29747 0.0
C138 C 0.11671 0.67599 0.2479 0.0
O139 O 0.12184 0.6973 0.24527 0.0
O140 O 0.10828 0.66861 0.26709 0.0
C141 C 0.15355 0.74757 0.23561 0.0
O142 O 0.16026 0.72675 0.22897 0.0
C143 C 0.10692 0.64315 0.32571 0.0
C144 C 0.07795 0.64564 0.35073 0.0
C145 C 0.09798 0.63304 0.34584 0.0
N146 N 0.09315 0.66111 0.31957 0.0
N147 N 0.07554 0.6621 0.33427 0.0
C148 C 0.12953 0.63778 0.31397 0.0
H149 H 0.13514 0.6525 0.30286 0.0
H150 H 0.1432 0.63384 0.32699 0.0
H151 H 0.12729 0.62223 0.30274 0.0
C152 C 0.15742 0.72369 0.30363 0.0
N153 N 0.13756 0.71586 0.29418 0.0
N154 N 0.12746 0.70127 0.30864 0.0
C155 C 0.14024 0.70032 0.32837 0.0
C156 C 0.15979 0.71405 0.32551 0.0
C157 C 0.17344 0.74067 0.29218 0.0
H158 H 0.16375 0.75679 0.28796 0.0
H159 H 0.18 0.7331 0.27567 0.0
H160 H 0.18837 0.74516 0.30352 0.0
O161 O 0.09129 0.73571 0.27418 0.0
O162 O 0.07351 0.70846 0.29492 0.0
H163 H 0.11468 0.68575 0.35145 0.0
H164 H 0.14039 0.69647 0.36568 0.0
C165 C 0.13377 0.68737 0.35 0.0
H166 H 0.14185 0.66989 0.34968 0.0
H167 H 0.06269 0.67491 0.33393 0.0
O168 O 0.13803 0.74965 0.25117 0.0
C169 C 0.07367 0.7286 0.2854 0.0
Co170 Co 0.97031 0.66139 1.01015 0.0
Co171 Co 0.93043 0.67912 0.97781 0.0
C172 C 0.92159 0.66025 0.02693 0.0
O173 O 0.94313 0.65669 0.03071 0.0
O174 O 0.91465 0.66913 1.00774 0.0
C175 C 1.00732 0.64882 0.04372 0.0
O176 O 0.99531 0.65807 0.06084 0.0
C177 C 0.88934 0.66984 0.94854 0.0
C178 C 0.89031 0.69928 0.92398 0.0
C179 C 0.87874 0.67861 0.92855 0.0
N180 N 0.90649 0.68446 0.955 0.0
N181 N 0.90663 0.70224 0.94048 0.0
C182 C 0.88506 0.64687 0.95997 0.0
H183 H 0.90021 0.64166 0.97069 0.0
H184 H 0.88141 0.63326 0.94676 0.0
H185 H 0.8697 0.64839 0.97155 0.0
C186 C 0.97524 0.62686 0.97289 0.0
N187 N 0.9651 0.64598 0.98178 0.0
N188 N 0.94964 0.65403 0.96699 0.0
C189 C 0.95016 0.64055 0.94765 0.0
C190 C 0.96626 0.62284 0.95091 0.0
C191 C 0.99176 0.61169 0.98609 0.0
H192 H 0.9863 0.61055 1.00458 0.0
H193 H 0.99252 0.59387 0.97872 0.0
H194 H 1.00937 0.61945 0.98538 0.0
O195 O 0.9781 0.69425 1.00435 0.0
O196 O 0.95014 0.70835 0.98188 0.0
H197 H 0.94647 0.63855 0.91042 0.0
H198 H 0.92 0.63582 0.92654 0.0
C199 C 0.93681 0.64513 0.92581 0.0
H200 H 0.93362 0.664 0.92369 0.0
H201 H 0.91863 0.7158 0.94113 0.0
O202 O 0.99903 0.64845 0.02327 0.0
C203 C 0.9693 0.71093 0.99286 0.0
Co204 Co 0.90769 0.81018 0.26797 0.0
Co205 Co 0.93207 0.85022 0.29552 0.0
C206 C 0.91203 0.85618 0.24622 0.0
O207 O 0.90534 0.83513 0.24481 0.0
O208 O 0.92289 0.86356 0.26416 0.0
C209 C 0.89506 0.76961 0.24055 0.0
O210 O 0.91064 0.77641 0.2253 0.0
C211 C 0.92516 0.89499 0.3182 0.0
C212 C 0.95249 0.8957 0.34505 0.0
C213 C 0.93296 0.90756 0.33731 0.0
N214 N 0.93921 0.8765 0.31501 0.0
N215 N 0.95585 0.87732 0.33081 0.0
C216 C 0.90279 0.89849 0.30538 0.0
H217 H 0.89705 0.88211 0.29701 0.0
H218 H 0.88901 0.90483 0.31734 0.0
H219 H 0.90543 0.91177 0.29164 0.0
C220 C 0.8748 0.81376 0.30657 0.0
N221 N 0.89446 0.82036 0.29591 0.0
N222 N 0.90547 0.83556 0.30894 0.0
C223 C 0.89342 0.83839 0.32898 0.0
C224 C 0.87356 0.82479 0.32798 0.0
C225 C 0.85681 0.79849 0.2956 0.0
H226 H 0.86171 0.78002 0.29829 0.0
H227 H 0.85591 0.80189 0.27663 0.0
H228 H 0.8394 0.80151 0.30333 0.0
O229 O 0.93951 0.79944 0.27392 0.0
O230 O 0.95858 0.82658 0.29363 0.0
H231 H 0.92057 0.85255 0.35034 0.0
H232 H 0.89441 0.84497 0.3659 0.0
C233 C 0.90137 0.85235 0.34947 0.0
H234 H 0.89479 0.87039 0.3479 0.0
H235 H 0.96854 0.86452 0.33287 0.0
O236 O 0.89096 0.78201 0.25837 0.0
C237 C 0.95774 0.80636 0.28427 0.0
Co238 Co 0.05482 0.86722 0.01815 0.0
Co239 Co 0.09799 0.8509 0.98896 0.0
C240 C 0.10237 0.86852 0.03888 0.0
O241 O 0.08046 0.87127 0.04063 0.0
O242 O 0.11142 0.86051 0.02019 0.0
C243 C 0.01907 0.88 0.05196 0.0
O244 O 0.03262 0.871 0.06799 0.0
C245 C 0.14194 0.86106 0.96458 0.0
C246 C 0.14221 0.83462 0.93673 0.0
C247 C 0.15402 0.85406 0.94474 0.0
N248 N 0.12377 0.84663 0.96783 0.0
N249 N 0.12435 0.83059 0.95134 0.0
C250 C 0.14582 0.88268 0.97858 0.0
H251 H 0.15235 0.89697 0.96739 0.0
H252 H 0.15902 0.87906 0.99217 0.0
H253 H 0.12951 0.88818 0.98728 0.0
C254 C 0.05219 0.9021 0.98101 0.0
N255 N 0.06204 0.88321 0.99061 0.0
N256 N 0.07914 0.87585 0.97726 0.0
C257 C 0.08006 0.88959 0.95816 0.0
C258 C 0.06321 0.9067 0.96016 0.0
C259 C 0.03261 0.9155 0.99173 0.0
H260 H 0.0169 0.90437 0.99218 0.0
H261 H 0.03711 0.92015 1.00993 0.0
H262 H 0.02858 0.93153 0.98178 0.0
O263 O 0.04777 0.83459 1.01058 0.0
O264 O 0.0782 0.82136 0.99074 0.0
H265 H 0.09977 0.8682 0.93471 0.0
H266 H 0.09012 0.89542 0.92245 0.0
C267 C 0.09678 0.88686 0.93841 0.0
H268 H 0.11346 0.89522 0.94304 0.0
H269 H 0.11183 0.81764 0.94934 0.0
O270 O 0.02571 0.88021 0.03087 0.0
C271 C 0.05799 0.81832 0.99959 0.0
Co272 Co 0.25841 0.11671 0.31001 0.0
Co273 Co 0.23526 0.09543 0.35476 0.0
C274 C 0.28318 0.1182 0.35518 0.0
O275 O 0.28275 0.12229 0.33339 0.0
O276 O 0.26637 0.10778 0.36525 0.0
C277 C 0.28615 0.13574 0.27198 0.0
O278 O 0.30447 0.12886 0.28372 0.0
C279 C 0.21414 0.10415 0.40026 0.0
C280 C 0.18903 0.07543 0.40359 0.0
C281 C 0.1959 0.09614 0.41391 0.0
N282 N 0.21758 0.08912 0.38255 0.0
N283 N 0.20288 0.07166 0.38501 0.0
C284 C 0.22574 0.1274 0.40193 0.0
H285 H 0.23299 0.13264 0.38484 0.0
H286 H 0.21335 0.14085 0.40813 0.0
H287 H 0.24016 0.12626 0.41467 0.0
C288 C 0.21841 0.14791 0.31351 0.0
N289 N 0.23041 0.12931 0.3209 0.0
N290 N 0.21931 0.11944 0.33829 0.0
C291 C 0.19915 0.13103 0.34179 0.0
C292 C 0.19813 0.14952 0.32639 0.0
C293 C 0.22739 0.16496 0.29599 0.0
H294 H 0.22411 0.15813 0.27823 0.0
H295 H 0.24637 0.16726 0.29823 0.0
H296 H 0.21886 0.18217 0.29777 0.0
O297 O 0.25412 0.08354 0.30256 0.0
O298 O 0.23838 0.06701 0.33379 0.0
H299 H 0.18013 0.10477 0.36031 0.0
H300 H 0.16312 0.12968 0.35177 0.0
C301 C 0.18033 0.1239 0.35826 0.0
H302 H 0.18318 0.13226 0.3754 0.0
H303 H 0.20116 0.05806 0.37309 0.0
O304 O 0.26602 0.13213 0.28024 0.0
C305 C 0.24601 0.06574 0.31285 0.0
Co306 Co 0.36279 0.5178 0.97482 0.0
Co307 Co 0.34369 0.54542 0.93208 0.0
C308 C 0.36306 0.49607 0.92793 0.0
O309 O 0.36628 0.49484 0.94983 0.0
O310 O 0.3545 0.51439 0.91863 0.0
C311 C 0.3904 0.48968 1.00666 0.0
O312 O 0.39757 0.47813 0.98826 0.0
C313 C 0.35204 0.57318 0.88983 0.0
C314 C 0.32159 0.5965 0.89003 0.0
C315 C 0.3428 0.59284 0.87909 0.0
N316 N 0.33729 0.5662 0.90668 0.0
N317 N 0.31883 0.57984 0.90622 0.0
C318 C 0.37564 0.5628 0.88623 0.0
H319 H 0.38066 0.55189 0.90133 0.0
H320 H 0.38881 0.57658 0.88339 0.0
H321 H 0.37526 0.55163 0.87047 0.0
C322 C 0.39757 0.5551 0.97378 0.0
N323 N 0.37784 0.54535 0.96603 0.0
N324 N 0.36844 0.55871 0.95005 0.0
C325 C 0.38122 0.57834 0.94831 0.0
C326 C 0.40034 0.57647 0.96293 0.0
C327 C 0.41451 0.54279 0.98924 0.0
H328 H 0.40863 0.54423 1.00759 0.0
H329 H 0.4152 0.52414 0.98447 0.0
H330 H 0.43226 0.55003 0.98766 0.0
O331 O 0.33021 0.5243 0.98281 0.0
O332 O 0.31495 0.54248 0.95243 0.0
H333 H 0.35505 0.6002 0.9329 0.0
H334 H 0.37976 0.61552 0.94463 0.0
C335 C 0.37414 0.59966 0.93516 0.0
H336 H 0.38271 0.59989 0.91792 0.0
H337 H 0.30511 0.57879 0.91804 0.0
O338 O 0.37627 0.50644 1.00422 0.0
C339 C 0.31305 0.53403 0.97292 0.0
Co340 Co 0.76341 0.40965 0.30701 0.0
Co341 Co 0.79606 0.42645 0.34748 0.0
C342 C 0.74614 0.41101 0.35572 0.0
O343 O 0.74242 0.40674 0.33425 0.0
O344 O 0.76551 0.41931 0.36257 0.0
C345 C 0.72801 0.39262 0.27409 0.0
O346 O 0.71206 0.39843 0.28939 0.0
C347 C 0.81992 0.41746 0.39183 0.0
C348 C 0.85071 0.44011 0.38935 0.0
C349 C 0.84059 0.42299 0.403 0.0
N350 N 0.81809 0.43049 0.3724 0.0
N351 N 0.83635 0.44434 0.37131 0.0
C352 C 0.80364 0.39809 0.39786 0.0
H353 H 0.79532 0.3911 0.38192 0.0
H354 H 0.81287 0.38386 0.40705 0.0
H355 H 0.78985 0.40492 0.40951 0.0
C356 C 0.79713 0.37153 0.30567 0.0
N357 N 0.79049 0.39256 0.31349 0.0
N358 N 0.80513 0.39976 0.32953 0.0
C359 C 0.82211 0.38362 0.33177 0.0
C360 C 0.81729 0.36513 0.31703 0.0
C361 C 0.78372 0.35738 0.28842 0.0
H362 H 0.78327 0.36675 0.27158 0.0
H363 H 0.76559 0.35527 0.29461 0.0
H364 H 0.79164 0.34002 0.28551 0.0
O365 O 0.7714 0.44208 0.29875 0.0
O366 O 0.7943 0.45523 0.32694 0.0
H367 H 0.84792 0.40297 0.35048 0.0
H368 H 0.8565 0.37376 0.34294 0.0
C369 C 0.84179 0.38483 0.3487 0.0
H370 H 0.83591 0.37833 0.36586 0.0
H371 H 0.83966 0.45574 0.35759 0.0
O372 O 0.74928 0.3961 0.27871 0.0
C373 C 0.78372 0.45818 0.30757 0.0
Co374 Co 0.65858 0.01733 0.96623 0.0
Co375 Co 0.67821 0.98766 0.92455 0.0
C376 C 0.66112 0.03738 0.91848 0.0
O377 O 0.65628 0.03967 0.94002 0.0
O378 O 0.67003 0.0186 0.91065 0.0
C379 C 0.62933 0.04714 0.9949 0.0
O380 O 0.62353 0.05718 0.97522 0.0
C381 C 0.66995 0.96363 0.8803 0.0
C382 C 0.69579 0.9353 0.88118 0.0
C383 C 0.67688 0.94357 0.86871 0.0
N384 N 0.68386 0.96682 0.8989 0.0
N385 N 0.69965 0.95012 0.89895 0.0
C386 C 0.64851 0.97767 0.87576 0.0
H387 H 0.64253 0.9864 0.89191 0.0
H388 H 0.63441 0.96654 0.86876 0.0
H389 H 0.65257 0.9912 0.86262 0.0
C390 C 0.62303 0.98043 0.96543 0.0
N391 N 0.64305 0.98973 0.95775 0.0
N392 N 0.65194 0.97629 0.94144 0.0
C393 C 0.63813 0.95749 0.93887 0.0
C394 C 0.61925 0.95971 0.95367 0.0
C395 C 0.60693 0.99237 0.98208 0.0
H396 H 0.61506 0.99297 0.99957 0.0
H397 H 0.604 1.01048 0.97619 0.0
H398 H 0.58988 0.98354 0.98332 0.0
O399 O 0.69101 1.00984 0.9753 0.0
O400 O 0.70606 0.98954 0.94596 0.0
H401 H 0.66235 0.93398 0.92278 0.0
H402 H 0.63509 0.92097 0.93093 0.0
C403 C 0.64338 0.93687 0.92383 0.0
H404 H 0.63629 0.93979 0.90615 0.0
H405 H 0.71207 0.94796 0.912 0.0
O406 O 0.64378 0.03042 0.99463 0.0
C407 C 0.70788 0.99878 0.96616 0.0
Co408 Co 0.26689 0.90974 0.22597 0.0
Co409 Co 0.2394 0.92726 0.18212 0.0
C410 C 0.28873 0.90823 0.17904 0.0
O411 O 0.28976 0.90547 0.201 0.0
O412 O 0.27057 0.91664 0.16939 0.0
C413 C 0.29965 0.89517 0.26149 0.0
O414 O 0.31582 0.90419 0.24813 0.0
C415 C 0.21526 0.91781 0.13784 0.0
C416 C 0.18783 0.94462 0.13791 0.0
C417 C 0.19537 0.92496 0.12607 0.0
N418 N 0.21893 0.93231 0.15596 0.0
N419 N 0.20276 0.94862 0.15551 0.0
C420 C 0.22874 0.89588 0.1339 0.0
H421 H 0.23743 0.89028 0.15018 0.0
H422 H 0.21725 0.88178 0.12748 0.0
H423 H 0.24225 0.89914 0.12051 0.0
C424 C 0.22929 0.87566 0.22685 0.0
N425 N 0.23933 0.89465 0.21773 0.0
N426 N 0.22656 0.90258 0.20045 0.0
C427 C 0.20735 0.88916 0.19876 0.0
C428 C 0.20878 0.87161 0.21515 0.0
C429 C 0.23933 0.86163 0.24633 0.0
H430 H 0.23971 0.87243 0.26233 0.0
H431 H 0.25745 0.85666 0.24201 0.0
H432 H 0.229 0.84575 0.24988 0.0
O433 O 0.26025 0.94236 0.23313 0.0
O434 O 0.24162 0.95651 0.20237 0.0
H435 H 0.18492 0.91133 0.17883 0.0
H436 H 0.1717 0.88456 0.18824 0.0
C437 C 0.18798 0.89257 0.18177 0.0
H438 H 0.19248 0.88399 0.1651 0.0
H439 H 0.20102 0.96159 0.16812 0.0
O440 O 0.2786 0.89582 0.25499 0.0
C441 C 0.25008 0.95906 0.22285 0.0
Co442 Co 0.15641 0.52107 0.06049 0.0
Co443 Co 0.17693 0.54392 0.10542 0.0
C444 C 0.15643 0.49502 0.10494 0.0
O445 O 0.1521 0.49584 0.08321 0.0
O446 O 0.16611 0.51206 0.11539 0.0
C447 C 0.14275 0.4946 0.01958 0.0
O448 O 0.1547 0.47725 0.02838 0.0
C449 C 0.16886 0.56386 0.15151 0.0
C450 C 0.19658 0.59014 0.1541 0.0
C451 C 0.17662 0.58225 0.16506 0.0
N452 N 0.18337 0.56122 0.13328 0.0
N453 N 0.20029 0.57658 0.13531 0.0
C454 C 0.14624 0.55127 0.15396 0.0
H455 H 0.14028 0.54465 0.13684 0.0
H456 H 0.13276 0.56276 0.16165 0.0
H457 H 0.14874 0.53623 0.16578 0.0
C458 C 0.12346 0.55955 0.06498 0.0
N459 N 0.14263 0.54827 0.07204 0.0
N460 N 0.15195 0.55935 0.08974 0.0
C461 C 0.13931 0.5788 0.09386 0.0
C462 C 0.1208 0.57938 0.07843 0.0
C463 C 0.10691 0.55026 0.04715 0.0
H464 H 0.11367 0.55428 0.02952 0.0
H465 H 0.10543 0.53112 0.04891 0.0
H466 H 0.08937 0.558 0.04904 0.0
O467 O 0.18922 0.52666 0.05281 0.0
O468 O 0.20529 0.54229 0.08428 0.0
H469 H 0.16439 0.59858 0.11319 0.0
H470 H 0.13854 0.61447 0.10533 0.0
C471 C 0.14533 0.59735 0.11109 0.0
H472 H 0.1372 0.59328 0.12809 0.0
H473 H 0.21333 0.579 0.12292 0.0
O474 O 0.14136 0.51363 0.03068 0.0
C475 C 0.20676 0.53512 0.06321 0.0
Co476 Co 0.76922 0.61602 0.21944 0.0
Co477 Co 0.79862 0.59571 0.17801 0.0
C478 C 0.7499 0.61651 0.17162 0.0
O479 O 0.74724 0.62068 0.1933 0.0
O480 O 0.76839 0.60679 0.16395 0.0
C481 C 0.73831 0.63305 0.25729 0.0
O482 O 0.72027 0.62523 0.24571 0.0
C483 C 0.82639 0.60421 0.13573 0.0
C484 C 0.84995 0.57396 0.13555 0.0
C485 C 0.84587 0.59507 0.12455 0.0
N486 N 0.81983 0.58945 0.15276 0.0
N487 N 0.83367 0.57114 0.15213 0.0
C488 C 0.81583 0.62776 0.1323 0.0
H489 H 0.80527 0.63284 0.14765 0.0
H490 H 0.8295 0.64098 0.12914 0.0
H491 H 0.80434 0.62726 0.11683 0.0
C492 C 0.80712 0.65005 0.21923 0.0
N493 N 0.7975 0.63023 0.21148 0.0
N494 N 0.81138 0.6204 0.19619 0.0
C495 C 0.8311 0.63304 0.19484 0.0
C496 C 0.82887 0.65247 0.20907 0.0
C497 C 0.79447 0.66747 0.23396 0.0
H498 H 0.77562 0.66698 0.23006 0.0
H499 H 0.80091 0.68536 0.23084 0.0
H500 H 0.797 0.66308 0.25259 0.0
O501 O 0.77461 0.58285 0.22764 0.0
O502 O 0.79444 0.56723 0.19831 0.0
H503 H 0.86828 0.63169 0.19149 0.0
H504 H 0.85287 0.63394 0.16458 0.0
C505 C 0.85256 0.62577 0.18201 0.0
H506 H 0.85319 0.60661 0.18012 0.0
H507 H 0.83291 0.55741 0.16397 0.0
O508 O 0.75854 0.63083 0.24873 0.0
C509 C 0.78472 0.56549 0.21827 0.0
Co510 Co 0.86346 1.0087 0.05566 0.0
Co511 Co 0.84446 0.97808 0.09623 0.0
C512 C 0.86467 0.02676 0.1039 0.0
O513 O 0.86861 0.02988 0.08228 0.0
O514 O 0.8552 1.00804 0.11121 0.0
C515 C 0.88216 0.04094 0.02019 0.0
O516 O 0.87846 0.0586 0.03425 0.0
C517 C 0.85411 0.94974 0.13749 0.0
C518 C 0.82412 0.92593 0.13818 0.0
C519 C 0.84543 0.93012 0.14871 0.0
N520 N 0.83889 0.95631 0.12092 0.0
N521 N 0.82077 0.94231 0.12181 0.0
C522 C 0.87757 0.96056 0.14043 0.0
H523 H 0.88218 0.97117 0.125 0.0
H524 H 0.89102 0.94703 0.14328 0.0
H525 H 0.87725 0.97212 0.15591 0.0
C526 C 0.89664 0.97021 0.05184 0.0
N527 N 0.87786 0.98006 0.06168 0.0
N528 N 0.86903 0.96587 0.07727 0.0
C529 C 0.88157 0.94594 0.07708 0.0
C530 C 0.89954 0.94821 0.06112 0.0
C531 C 0.91254 0.98244 0.03524 0.0
H532 H 0.90506 0.98155 0.01748 0.0
H533 H 0.91429 1.00097 0.04029 0.0
H534 H 0.93005 0.97438 0.03496 0.0
O535 O 0.83046 1.00372 0.04806 0.0
O536 O 0.81542 0.98248 0.07656 0.0
H537 H 0.85687 0.92342 0.09382 0.0
H538 H 0.88127 0.9087 0.08056 0.0
C539 C 0.87578 0.92439 0.09043 0.0
H540 H 0.88534 0.92438 0.10714 0.0
H541 H 0.80675 0.9431 0.11034 0.0
O542 O 0.87708 0.02051 0.02668 0.0
C543 C 0.81335 0.99309 0.05711 0.0
Co544 Co 0.30904 0.26571 0.11854 0.0
Co545 Co 0.35018 0.23508 0.09965 0.0
C546 C 0.35708 0.28433 0.11794 0.0
O547 O 0.33559 0.28727 0.12246 0.0
O548 O 0.36441 0.26549 0.10876 0.0
C549 C 0.27586 0.30017 0.13602 0.0
O550 O 0.29129 0.31601 0.13041 0.0
C551 C 0.39409 0.211 0.10866 0.0
C552 C 0.39397 0.18289 0.0825 0.0
C553 C 0.40613 0.19128 0.10158 0.0
N554 N 0.37562 0.21396 0.09458 0.0
N555 N 0.37594 0.19736 0.07866 0.0
C556 C 0.39826 0.22496 0.13027 0.0
H557 H 0.38189 0.2331 0.13641 0.0
H558 H 0.40563 0.21391 0.14428 0.0
H559 H 0.41092 0.23893 0.12631 0.0
C560 C 0.30762 0.22846 0.15366 0.0
N561 N 0.31602 0.23759 0.13381 0.0
N562 N 0.33214 0.22378 0.12524 0.0
C563 C 0.3339 0.20489 0.1391 0.0
C564 C 0.31867 0.20739 0.1577 0.0
C565 C 0.29111 0.24096 0.16949 0.0
H566 H 0.29563 0.25969 0.17019 0.0
H567 H 0.29149 0.2338 0.1874 0.0
H568 H 0.27325 0.23938 0.16244 0.0
O569 O 0.30129 0.25945 0.0855 0.0
O570 O 0.33012 0.23821 0.0709 0.0
H571 H 0.34184 0.16841 0.14264 0.0
H572 H 0.36656 0.18734 0.14163 0.0
C573 C 0.34904 0.18426 0.13432 0.0
H574 H 0.35046 0.18124 0.11534 0.0
H575 H 0.36314 0.19513 0.06602 0.0
O576 O 0.2804 0.27882 0.13251 0.0
C577 C 0.31054 0.24848 0.0686 0.0
Co578 Co 0.30794 0.76132 0.4153 0.0
Co579 Co 0.34617 0.79531 0.43382 0.0
C580 C 0.35774 0.74712 0.41531 0.0
O581 O 0.33646 0.74254 0.41144 0.0
O582 O 0.36377 0.76653 0.42423 0.0
C583 C 0.28251 0.72882 0.38631 0.0
O584 O 0.30301 0.72123 0.37972 0.0
C585 C 0.38559 0.82607 0.42434 0.0
C586 C 0.38364 0.85107 0.45344 0.0
C587 C 0.3952 0.84667 0.43267 0.0
N588 N 0.36893 0.81907 0.43926 0.0
N589 N 0.36822 0.83382 0.45688 0.0
C590 C 0.39004 0.81464 0.40132 0.0
H591 H 0.37532 0.80322 0.39642 0.0
H592 H 0.39286 0.82786 0.38755 0.0
H593 H 0.40593 0.8038 0.40265 0.0
C594 C 0.30117 0.7992 0.38146 0.0
N595 N 0.3118 0.79009 0.40021 0.0
N596 N 0.32663 0.80528 0.40872 0.0
C597 C 0.32522 0.82497 0.39596 0.0
C598 C 0.30932 0.82161 0.37816 0.0
C599 C 0.28493 0.78591 0.36607 0.0
H600 H 0.26852 0.78255 0.37562 0.0
H601 H 0.29288 0.76895 0.36152 0.0
H602 H 0.28098 0.79534 0.34973 0.0
O603 O 0.29922 0.76706 0.44812 0.0
O604 O 0.32643 0.79033 0.4626 0.0
H605 H 0.33984 0.84911 0.42051 0.0
H606 H 0.32693 0.86238 0.39519 0.0
C607 C 0.33726 0.84735 0.4015 0.0
H608 H 0.35428 0.84783 0.39254 0.0
H609 H 0.35634 0.83285 0.47056 0.0
O610 O 0.28119 0.74508 0.40123 0.0
C611 C 0.30757 0.77882 0.46491 0.0
Co612 Co 1.01294 0.46842 0.86836 0.0
Co613 Co 0.04473 0.4293 0.84759 0.0
C614 C 0.99684 0.4194 0.86819 0.0
O615 O 0.99295 0.44077 0.87271 0.0
O616 O 0.0157 0.41298 0.85835 0.0
C617 C 0.97835 0.50286 0.8828 0.0
O618 O 0.96278 0.48979 0.87241 0.0
C619 C 0.07495 0.38917 0.85544 0.0
C620 C 0.09838 0.39051 0.82505 0.0
C621 C 0.095 0.37922 0.84615 0.0
N622 N 0.06739 0.4058 0.84079 0.0
N623 N 0.08115 0.40612 0.8224 0.0
C624 C 0.06462 0.38517 0.87905 0.0
H625 H 0.05322 0.39988 0.88414 0.0
H626 H 0.07842 0.38283 0.8923 0.0
H627 H 0.05395 0.36912 0.87856 0.0
C628 C 0.05136 0.47112 0.90196 0.0
N629 N 0.04185 0.46262 0.88236 0.0
N630 N 0.05644 0.4481 0.87238 0.0
C631 C 0.07638 0.44795 0.88475 0.0
C632 C 0.07363 0.46211 0.90415 0.0
C633 C 0.03839 0.48571 0.91924 0.0
H634 H 0.01983 0.4806 0.91956 0.0
H635 H 0.04565 0.48384 0.93702 0.0
H636 H 0.0395 0.50423 0.91396 0.0
O637 O 0.0176 0.47715 0.83526 0.0
O638 O 0.03909 0.44917 0.81942 0.0
H639 H 0.11368 0.44679 0.88306 0.0
H640 H 0.09992 0.41906 0.88536 0.0
C641 C 0.09849 0.43644 0.87724 0.0
H642 H 0.09906 0.43467 0.85804 0.0
H643 H 0.07962 0.41796 0.80873 0.0
O644 O 0.99943 0.49636 0.88323 0.0
C645 C 0.02815 0.46843 0.81782 0.0
Co646 Co 0.72124 0.76103 0.41065 0.0
Co647 Co 0.67715 0.73616 0.42976 0.0
C648 C 0.67599 0.78547 0.41032 0.0
O649 O 0.69779 0.78548 0.40651 0.0
O650 O 0.66593 0.76781 0.41927 0.0
C651 C 0.76116 0.78948 0.39896 0.0
O652 O 0.75124 0.80632 0.41083 0.0
C653 C 0.63205 0.71436 0.42156 0.0
C654 C 0.63048 0.68822 0.44961 0.0
C655 C 0.61918 0.6956 0.4296 0.0
N656 N 0.65024 0.7176 0.43591 0.0
N657 N 0.64886 0.70228 0.45298 0.0
C658 C 0.62903 0.72692 0.39894 0.0
H659 H 0.64563 0.73489 0.39329 0.0
H660 H 0.62259 0.71496 0.38522 0.0
H661 H 0.61599 0.74095 0.4013 0.0
C662 C 0.7189 0.72337 0.37626 0.0
N663 N 0.71128 0.73372 0.39583 0.0
N664 N 0.69394 0.72177 0.40463 0.0
C665 C 0.69066 0.70264 0.39127 0.0
C666 C 0.7062 0.7032 0.37272 0.0
C667 C 0.73632 0.73404 0.36011 0.0
H668 H 0.73396 0.75318 0.35965 0.0
H669 H 0.7346 0.72719 0.34214 0.0
H670 H 0.75406 0.73023 0.36659 0.0
O671 O 0.72842 0.75518 0.44352 0.0
O672 O 0.69731 0.7383 0.45875 0.0
H673 H 0.68055 0.66664 0.38952 0.0
H674 H 0.65708 0.68707 0.3884 0.0
C675 C 0.67406 0.68338 0.39664 0.0
H676 H 0.67173 0.68165 0.41569 0.0
H677 H 0.66131 0.70041 0.46603 0.0
O678 O 0.75092 0.7701 0.39673 0.0
C679 C 0.71796 0.74622 0.46079 0.0
Co680 Co 0.51214 0.55676 0.36774 0.0
Co681 Co 0.48453 0.60006 0.34972 0.0
C682 C 0.53304 0.60368 0.37089 0.0
O683 O 0.53451 0.58174 0.37362 0.0
O684 O 0.51499 0.61297 0.36184 0.0
C685 C 0.54095 0.51559 0.37652 0.0
O686 O 0.55735 0.5249 0.36366 0.0
C687 C 0.45673 0.64209 0.35902 0.0
C688 C 0.4345 0.64347 0.3278 0.0
C689 C 0.43767 0.65358 0.34952 0.0
N690 N 0.46394 0.62569 0.34384 0.0
N691 N 0.45094 0.62706 0.32497 0.0
C692 C 0.4663 0.64466 0.38311 0.0
H693 H 0.47659 0.6291 0.38803 0.0
H694 H 0.45212 0.64751 0.3959 0.0
H695 H 0.47787 0.66006 0.38361 0.0
C696 C 0.4728 0.55384 0.39956 0.0
N697 N 0.48378 0.56416 0.38174 0.0
N698 N 0.47072 0.58091 0.37326 0.0
C699 C 0.45034 0.58102 0.38503 0.0
C700 C 0.45119 0.56399 0.4021 0.0
C701 C 0.48356 0.53574 0.41488 0.0
H702 H 0.48185 0.5185 0.4064 0.0
H703 H 0.50226 0.53954 0.41743 0.0
H704 H 0.47499 0.53506 0.43217 0.0
O705 O 0.50715 0.55053 0.33474 0.0
O706 O 0.48849 0.581 0.32017 0.0
H707 H 0.42945 0.59975 0.36032 0.0
H708 H 0.41336 0.58617 0.38362 0.0
C709 C 0.4296 0.59553 0.37911 0.0
H710 H 0.42993 0.61178 0.38946 0.0
H711 H 0.4523 0.61577 0.31079 0.0
O712 O 0.52235 0.52676 0.38046 0.0
C713 C 0.49759 0.56084 0.31775 0.0
Co714 Co 0.21547 0.76481 0.62079 0.0
Co715 Co 0.17545 0.79505 0.59922 0.0
C716 C 0.16714 0.74678 0.61955 0.0
O717 O 0.18854 0.74377 0.62436 0.0
O718 O 0.1601 0.76541 0.60973 0.0
C719 C 0.24789 0.7308 0.6402 0.0
O720 O 0.23351 0.71477 0.63264 0.0
C721 C 0.13397 0.82373 0.60672 0.0
C722 C 0.13475 0.84725 0.57644 0.0
C723 C 0.12336 0.84343 0.59742 0.0
N724 N 0.15106 0.81681 0.5922 0.0
N725 N 0.15103 0.83062 0.57386 0.0
C726 C 0.13006 0.81326 0.63027 0.0
H727 H 0.14508 0.80237 0.63549 0.0
H728 H 0.12707 0.827 0.64351 0.0
H729 H 0.11442 0.80204 0.6296 0.0
C730 C 0.21628 0.80372 0.65399 0.0
N731 N 0.20819 0.79359 0.63452 0.0
N732 N 0.1932 0.80753 0.62436 0.0
C733 C 0.19223 0.82763 0.63653 0.0
C734 C 0.20645 0.82566 0.65588 0.0
C735 C 0.23154 0.79168 0.67131 0.0
H736 H 0.24984 0.79279 0.66539 0.0
H737 H 0.22669 0.77307 0.67255 0.0
H738 H 0.23009 0.79967 0.68884 0.0
O739 O 0.22489 0.76971 0.5879 0.0
O740 O 0.19642 0.79002 0.57144 0.0
H741 H 0.17817 0.84959 0.60968 0.0
H742 H 0.18964 0.86489 0.63458 0.0
C743 C 0.17991 0.84924 0.62887 0.0
H744 H 0.16252 0.85006 0.63705 0.0
H745 H 0.16305 0.82958 0.56029 0.0
O746 O 0.24315 0.75211 0.63686 0.0
C747 C 0.21616 0.77986 0.57026 0.0
Co748 Co 1.00724 0.55745 0.66206 0.0
Co749 Co 0.04135 0.59635 0.67939 0.0
C750 C 0.99267 0.6072 0.66245 0.0
O751 O 0.98811 0.58579 0.65899 0.0
O752 O 1.01225 0.61357 0.67067 0.0
C753 C 0.97492 0.53096 0.63346 0.0
O754 O 0.96717 0.55118 0.62619 0.0
C755 C 0.07137 0.63737 0.67215 0.0
C756 C 0.0976 0.63237 0.69967 0.0
C757 C 0.09234 0.64614 0.68054 0.0
N758 N 0.06511 0.61905 0.68538 0.0
N759 N 0.0806 0.61655 0.70211 0.0
C760 C 0.05863 0.6445 0.65059 0.0
H761 H 0.04708 0.63031 0.64452 0.0
H762 H 0.07097 0.64921 0.63652 0.0
H763 H 0.04778 0.65996 0.65456 0.0
C764 C 0.04218 0.55385 0.62491 0.0
N765 N 0.03516 0.56217 0.64565 0.0
N766 N 0.05049 0.57732 0.65338 0.0
C767 C 0.06826 0.57827 0.63797 0.0
C768 C 0.06316 0.56397 0.61924 0.0
C769 C 0.02842 0.5375 0.61007 0.0
H770 H 0.02406 0.52173 0.62025 0.0
H771 H 1.01205 0.5461 0.60467 0.0
H772 H 0.03821 0.53211 0.59431 0.0
O773 O 0.01399 0.54878 0.69452 0.0
O774 O 0.03714 0.57648 0.70811 0.0
H775 H 0.09369 0.59599 0.65884 0.0
H776 H 0.10453 0.58471 0.63174 0.0
C777 C 0.08943 0.59312 0.64029 0.0
H778 H 0.08649 0.60993 0.63141 0.0
H779 H 0.08024 0.60324 0.71444 0.0
O780 O 0.99098 0.53032 0.64859 0.0
C781 C 0.02599 0.5575 0.7109 0.0
Co782 Co 1.0091 0.96813 0.66447 0.0
Co783 Co 0.97937 0.92792 0.68582 0.0
C784 C 0.02757 0.92017 0.66419 0.0
O785 O 0.03053 0.94166 0.65957 0.0
O786 O 1.00916 0.9131 0.67444 0.0
C787 C 0.03902 1.00756 0.65086 0.0
O788 O 0.05604 0.99849 0.66306 0.0
C789 C 0.95107 0.88646 0.67768 0.0
C790 C 0.9277 0.88653 0.70813 0.0
C791 C 0.93147 0.87562 0.68687 0.0
N792 N 0.95799 0.90322 0.69256 0.0
N793 N 0.94428 0.90277 0.71099 0.0
C794 C 0.96139 0.88314 0.65396 0.0
H795 H 0.9722 0.8983 0.64902 0.0
H796 H 0.94759 0.88047 0.64076 0.0
H797 H 0.97262 0.86745 0.65413 0.0
C798 C 0.97047 0.96867 0.63128 0.0
N799 N 0.9804 0.96078 0.6509 0.0
N800 N 0.96641 0.94595 0.66115 0.0
C801 C 0.94636 0.94502 0.64895 0.0
C802 C 0.94846 0.95909 0.62944 0.0
C803 C 0.98293 0.98307 0.6135 0.0
H804 H 0.98083 1.00173 0.61793 0.0
H805 H 1.0017 0.97877 0.61347 0.0
H806 H 0.97591 0.98006 0.59578 0.0
O807 O 1.0047 0.97676 0.69763 0.0
O808 O 0.9843 0.94839 0.714 0.0
H809 H 0.92455 0.93078 0.67583 0.0
H810 H 0.90917 0.94257 0.65111 0.0
C811 C 0.9248 0.93271 0.65665 0.0
H812 H 0.92392 0.91534 0.64837 0.0
H813 H 0.94531 0.91453 0.7248 0.0
O814 O 0.01977 0.99695 0.64932 0.0
C815 C 0.99463 0.96802 0.71529 0.0
Co816 Co 0.61462 0.80256 0.76568 0.0
Co817 Co 0.59941 0.84439 0.73405 0.0
C818 C 0.61642 0.85165 0.78338 0.0
O819 O 0.61824 0.82978 0.78619 0.0
O820 O 0.60932 0.86011 0.76409 0.0
C821 C 0.64025 0.77533 0.79921 0.0
O822 O 0.64617 0.79555 0.80802 0.0
C823 C 0.60933 0.88546 0.70447 0.0
C824 C 0.58029 0.884 0.6795 0.0
C825 C 0.60087 0.89567 0.68413 0.0
N826 N 0.59467 0.86835 0.71101 0.0
N827 N 0.57711 0.86797 0.69625 0.0
C828 C 0.63204 0.89008 0.71624 0.0
H829 H 0.63711 0.87513 0.72733 0.0
H830 H 0.64584 0.89358 0.70322 0.0
H831 H 0.63022 0.90568 0.7275 0.0
C832 C 0.64954 0.79678 0.72879 0.0
N833 N 0.63092 0.80771 0.73781 0.0
N834 N 0.62406 0.82426 0.72355 0.0
C835 C 0.63789 0.82378 0.7045 0.0
C836 C 0.65459 0.80661 0.7074 0.0
C837 C 0.66315 0.77853 0.74141 0.0
H838 H 0.6524 0.76262 0.74316 0.0
H839 H 0.66736 0.78486 0.75914 0.0
H840 H 0.67956 0.77411 0.73234 0.0
O841 O 0.5821 0.79534 0.75845 0.0
O842 O 0.56957 0.82535 0.7376 0.0
H843 H 0.61582 0.84178 0.6803 0.0
H844 H 0.64137 0.82883 0.66751 0.0
C845 C 0.63448 0.83808 0.68303 0.0
H846 H 0.64417 0.85461 0.68474 0.0
H847 H 0.56358 0.85595 0.6969 0.0
O848 O 0.62712 0.77466 0.78146 0.0
C849 C 0.56606 0.8056 0.74727 0.0
Co850 Co 0.05813 0.15925 0.52252 0.0
Co851 Co 0.10134 0.17872 0.5489 0.0
C852 C 0.10465 0.15682 0.50037 0.0
O853 O 0.08274 0.15381 0.49937 0.0
O854 O 0.11407 0.16631 0.51818 0.0
C855 C 0.01789 0.14826 0.49381 0.0
O856 O 0.02748 0.16079 0.4773 0.0
C857 C 0.14386 0.17025 0.57592 0.0
C858 C 0.14485 0.20121 0.59862 0.0
C859 C 0.15524 0.17967 0.59516 0.0
N860 N 0.12721 0.18524 0.56901 0.0
N861 N 0.12836 0.20398 0.58227 0.0
C862 C 0.14667 0.14634 0.56594 0.0
H863 H 0.1312 0.1414 0.55556 0.0
H864 H 0.14959 0.13336 0.57992 0.0
H865 H 0.16205 0.14615 0.5543 0.0
C866 C 0.059 0.12595 0.56111 0.0
N867 N 0.06692 0.14526 0.55063 0.0
N868 N 0.08327 0.15476 0.56343 0.0
C869 C 0.08523 0.1424 0.58336 0.0
C870 C 0.07026 0.1235 0.5823 0.0
C871 C 0.04281 0.10904 0.54974 0.0
H872 H 0.02464 0.11462 0.55296 0.0
H873 H 0.04585 0.10871 0.53067 0.0
H874 H 0.04519 0.0912 0.55665 0.0
O875 O 0.05079 0.19239 0.52748 0.0
O876 O 0.08147 0.20777 0.54499 0.0
H877 H 0.10183 0.16867 0.60423 0.0
H878 H 0.08996 0.14455 0.62041 0.0
C879 C 0.0991 0.14961 0.60417 0.0
H880 H 0.11607 0.14058 0.60412 0.0
H881 H 0.11682 0.21794 0.58121 0.0
O882 O 0.0285 0.14528 0.51293 0.0
C883 C 0.06103 0.20976 0.53648 0.0
Co884 Co 0.40813 0.72167 0.76912 0.0
Co885 Co 0.423 0.68185 0.73507 0.0
C886 C 0.40781 0.67242 0.78494 0.0
O887 O 0.40438 0.6939 0.78929 0.0
O888 O 0.41557 0.66583 0.76519 0.0
C889 C 0.39184 0.75279 0.80624 0.0
O890 O 0.39433 0.73542 0.82086 0.0
C891 C 0.41159 0.63937 0.70939 0.0
C892 C 0.43551 0.64075 0.6794 0.0
C893 C 0.41716 0.62821 0.6887 0.0
N894 N 0.42587 0.65771 0.71212 0.0
N895 N 0.44042 0.65818 0.69431 0.0
C896 C 0.39128 0.63445 0.72489 0.0
H897 H 0.38525 0.65064 0.73351 0.0
H898 H 0.37678 0.62661 0.71489 0.0
H899 H 0.39671 0.62196 0.73856 0.0
C900 C 0.37144 0.7279 0.73396 0.0
N901 N 0.39077 0.71727 0.74171 0.0
N902 N 0.39732 0.70132 0.72663 0.0
C903 C 0.38247 0.7017 0.70841 0.0
C904 C 0.36553 0.71844 0.71255 0.0
C905 C 0.35804 0.74549 0.74776 0.0
H906 H 0.36737 0.76235 0.74732 0.0
H907 H 0.35685 0.7398 0.76617 0.0
H908 H 0.34024 0.74796 0.74085 0.0
O909 O 0.4407 0.72904 0.7609 0.0
O910 O 0.45252 0.70106 0.73696 0.0
H911 H 0.40349 0.68528 0.68226 0.0
H912 H 0.37561 0.69521 0.67202 0.0
C913 C 0.38492 0.68721 0.6869 0.0
H914 H 0.37741 0.66976 0.69007 0.0
H915 H 0.45292 0.67104 0.69176 0.0
O916 O 0.39653 0.74986 0.78484 0.0
C917 C 0.45626 0.72004 0.74798 0.0
Co918 Co 0.97339 0.36699 0.51721 0.0
Co919 Co 0.93142 0.34881 0.54647 0.0
C920 C 0.92551 0.36539 0.4969 0.0
O921 O 0.94732 0.36832 0.49538 0.0
O922 O 0.91629 0.35818 0.5158 0.0
C923 C 0.9977 0.39797 0.48706 0.0
O924 O 0.9767 0.40483 0.48133 0.0
C925 C 0.88939 0.35639 0.57493 0.0
C926 C 0.89122 0.32688 0.59936 0.0
C927 C 0.87915 0.34734 0.595 0.0
N928 N 0.90695 0.34226 0.56839 0.0
N929 N 0.90753 0.32437 0.58275 0.0
C930 C 0.88449 0.37927 0.5635 0.0
H931 H 0.8994 0.38473 0.55256 0.0
H932 H 0.88069 0.39287 0.57668 0.0
H933 H 0.86903 0.37742 0.55214 0.0
C934 C 0.97452 0.40235 0.55448 0.0
N935 N 0.96571 0.38294 0.5448 0.0
N936 N 0.94947 0.37437 0.55847 0.0
C937 C 0.94841 0.3876 0.57796 0.0
C938 C 0.96381 0.40593 0.5757 0.0
C939 C 0.99289 0.4172 0.54364 0.0
H940 H 1.00821 0.40634 0.53927 0.0
H941 H 0.98608 0.42486 0.52731 0.0
H942 H 0.99839 0.43143 0.55548 0.0
O943 O 0.98282 0.3349 0.5245 0.0
O944 O 0.95241 0.32027 0.54324 0.0
H945 H 0.93072 0.36381 0.60073 0.0
H946 H 0.94251 0.38908 0.61494 0.0
C947 C 0.93381 0.3827 0.59893 0.0
H948 H 0.9171 0.3921 0.59747 0.0
H949 H 0.91997 0.31118 0.58207 0.0
O950 O 1.00016 0.38197 0.50208 0.0
C951 C 0.97286 0.31803 0.53471 0.0
Co952 Co 0.61584 0.22506 0.75815 0.0
Co953 Co 0.59848 0.18733 0.79323 0.0
C954 C 0.61639 0.17479 0.74496 0.0
O955 O 0.61973 0.19606 0.7398 0.0
O956 O 0.60786 0.16909 0.76467 0.0
C957 C 0.64341 0.25016 0.72409 0.0
O958 O 0.65 0.22959 0.71662 0.0
C959 C 0.60785 0.14811 0.82456 0.0
C960 C 0.57895 0.15062 0.84968 0.0
C961 C 0.5994 0.13859 0.8452 0.0
N962 N 0.59328 0.16509 0.8176 0.0
N963 N 0.57581 0.16619 0.83247 0.0
C964 C 0.63057 0.14311 0.81286 0.0
H965 H 0.63574 0.15781 0.80151 0.0
H966 H 0.64435 0.13981 0.82594 0.0
H967 H 0.62871 0.12735 0.80186 0.0
C968 C 0.65063 0.23258 0.79509 0.0
N969 N 0.63164 0.22186 0.78669 0.0
N970 N 0.62364 0.20718 0.80233 0.0
C971 C 0.63698 0.2088 0.82161 0.0
C972 C 0.65464 0.22467 0.81752 0.0
C973 C 0.66559 0.24858 0.78105 0.0
H974 H 0.65609 0.26507 0.7779 0.0
H975 H 0.66936 0.24043 0.76396 0.0
H976 H 0.68229 0.25244 0.7898 0.0
O977 O 0.58315 0.234 0.76449 0.0
O978 O 0.56956 0.20691 0.78842 0.0
H979 H 0.61328 0.19432 0.84664 0.0
H980 H 0.63902 0.2072 0.85903 0.0
C981 C 0.63218 0.19684 0.84424 0.0
H982 H 0.64104 0.17973 0.84445 0.0
H983 H 0.56234 0.17829 0.83148 0.0
O984 O 0.62921 0.2516 0.74097 0.0
C985 C 0.56678 0.22567 0.77681 0.0
Co986 Co 0.47471 0.15832 0.50741 0.0
Co987 Co 0.42962 0.17793 0.48442 0.0
C988 C 0.42972 0.15598 0.53265 0.0
O989 O 0.45154 0.15238 0.53198 0.0
O990 O 0.41924 0.1659 0.51577 0.0
C991 C 0.51516 0.14572 0.53459 0.0
O992 O 0.50566 0.15749 0.55175 0.0
C993 C 0.38413 0.16981 0.46359 0.0
C994 C 0.38159 0.19818 0.43788 0.0
C995 C 0.37077 0.17791 0.44516 0.0
N996 N 0.40216 0.18437 0.46669 0.0
N997 N 0.4002 0.20163 0.45165 0.0
C998 C 0.3818 0.14693 0.4758 0.0
H999 H 0.39878 0.1412 0.48286 0.0
H1000 H 0.3749 0.13341 0.46387 0.0
H1001 H 0.36944 0.14893 0.49051 0.0
C1002 C 0.47321 0.12726 0.46705 0.0
N1003 N 0.46466 0.14528 0.47928 0.0
N1004 N 0.4464 0.15386 0.46852 0.0
C1005 C 0.44317 0.14165 0.44862 0.0
C1006 C 0.45994 0.12445 0.44728 0.0
C1007 C 0.49297 0.11224 0.47483 0.0
H1008 H 0.50931 0.12234 0.47363 0.0
H1009 H 0.49037 0.10712 0.49326 0.0
H1010 H 0.49467 0.09637 0.46395 0.0
O1011 O 0.48141 0.1914 0.50302 0.0
O1012 O 0.44987 0.20683 0.48705 0.0
H1013 H 0.42183 0.16532 0.4292 0.0
H1014 H 0.43055 0.13961 0.41339 0.0
C1015 C 0.42503 0.1464 0.43063 0.0
H1016 H 0.40874 0.13742 0.43549 0.0
H1017 H 0.41244 0.21485 0.4497 0.0
O1018 O 0.50454 0.1439 0.51535 0.0
C1019 C 0.47067 0.20879 0.49466 0.0
Co1020 Co 0.4101 0.3119 0.76011 0.0
Co1021 Co 0.42657 0.35257 0.79235 0.0
C1022 C 0.40809 0.36049 0.743 0.0
O1023 O 0.40458 0.3389 0.73927 0.0
O1024 O 0.41694 0.36749 0.76213 0.0
C1025 C 0.38518 0.27862 0.72986 0.0
O1026 O 0.37511 0.2962 0.71932 0.0
C1027 C 0.41528 0.39531 0.8179 0.0
C1028 C 0.44111 0.39533 0.84624 0.0
C1029 C 0.42166 0.40702 0.83808 0.0
N1030 N 0.4301 0.37746 0.81448 0.0
N1031 N 0.44578 0.37787 0.83126 0.0
C1032 C 0.39381 0.39912 0.80373 0.0
H1033 H 0.38837 0.3827 0.79518 0.0
H1034 H 0.37943 0.40581 0.81474 0.0
H1035 H 0.39755 0.41215 0.79001 0.0
C1036 C 0.37547 0.30639 0.79756 0.0
N1037 N 0.39436 0.31673 0.78846 0.0
N1038 N 0.40195 0.33274 0.80297 0.0
C1039 C 0.38839 0.33247 0.82221 0.0
C1040 C 0.3711 0.31599 0.81921 0.0
C1041 C 0.36174 0.28785 0.78555 0.0
H1042 H 0.37301 0.27248 0.78255 0.0
H1043 H 0.35587 0.29435 0.76836 0.0
H1044 H 0.34645 0.28243 0.79597 0.0
O1045 O 0.44319 0.30563 0.76655 0.0
O1046 O 0.45644 0.3339 0.78923 0.0
H1047 H 0.40987 0.35079 0.84659 0.0
H1048 H 0.3827 0.34064 0.85848 0.0
C1049 C 0.39121 0.34809 0.84285 0.0
H1050 H 0.38293 0.36509 0.83918 0.0
H1051 H 0.45891 0.36551 0.83318 0.0
O1052 O 0.39938 0.28242 0.7463 0.0
C1053 C 0.45953 0.3148 0.77822 0.0
Co1054 Co 0.55677 0.36729 0.50479 0.0
Co1055 Co 0.60047 0.34589 0.48094 0.0
C1056 C 0.60218 0.36905 0.52883 0.0
O1057 O 0.58036 0.37266 0.52875 0.0
O1058 O 0.61221 0.35893 0.5117 0.0
C1059 C 0.5174 0.38233 0.53255 0.0
O1060 O 0.52682 0.3709 0.54994 0.0
C1061 C 0.64357 0.35307 0.45509 0.0
C1062 C 0.64531 0.32135 0.43351 0.0
C1063 C 0.65538 0.3431 0.43639 0.0
N1064 N 0.62695 0.3382 0.4622 0.0
N1065 N 0.62856 0.31899 0.44969 0.0
C1066 C 0.6458 0.37741 0.46416 0.0
H1067 H 0.63022 0.38243 0.47436 0.0
H1068 H 0.64845 0.38991 0.44971 0.0
H1069 H 0.66116 0.37836 0.47576 0.0
C1070 C 0.55957 0.39872 0.46484 0.0
N1071 N 0.56698 0.37995 0.47657 0.0
N1072 N 0.58352 0.36952 0.46474 0.0
C1073 C 0.5861 0.38066 0.44416 0.0
C1074 C 0.57132 0.39973 0.4438 0.0
C1075 C 0.54325 0.41647 0.47475 0.0
H1076 H 0.54573 0.4179 0.49384 0.0
H1077 H 0.54607 0.43384 0.46688 0.0
H1078 H 0.52513 0.41096 0.47129 0.0
O1079 O 0.54877 0.33426 0.50081 0.0
O1080 O 0.57988 0.31762 0.48513 0.0
H1081 H 0.59136 0.37614 0.40739 0.0
H1082 H 0.61725 0.38103 0.4237 0.0
C1083 C 0.60026 0.37206 0.42404 0.0
H1084 H 0.60291 0.35303 0.42521 0.0
H1085 H 0.61707 0.30503 0.45097 0.0
O1086 O 0.52759 0.38286 0.51299 0.0
C1087 C 0.55909 0.31637 0.49288 0.0
Co1088 Co 0.75663 0.61654 0.80897 0.0
Co1089 Co 0.7281 0.59544 0.85022 0.0
C1090 C 0.77673 0.61633 0.85643 0.0
O1091 O 0.77892 0.62098 0.83482 0.0
O1092 O 0.75843 0.60641 0.8642 0.0
C1093 C 0.78625 0.63144 0.76967 0.0
O1094 O 0.80382 0.62018 0.77892 0.0
C1095 C 0.70082 0.60307 0.89282 0.0
C1096 C 0.67792 0.57237 0.89311 0.0
C1097 C 0.6817 0.59352 0.90419 0.0
N1098 N 0.70745 0.58852 0.87561 0.0
N1099 N 0.69403 0.56993 0.87629 0.0
C1100 C 0.71105 0.62675 0.89632 0.0
H1101 H 0.72129 0.63208 0.88085 0.0
H1102 H 0.69724 0.63977 0.89984 0.0
H1103 H 0.72281 0.62629 0.91159 0.0
C1104 C 0.71773 0.64948 0.80894 0.0
N1105 N 0.72813 0.63022 0.81711 0.0
N1106 N 0.71459 0.62023 0.8326 0.0
C1107 C 0.69443 0.63232 0.8337 0.0
C1108 C 0.69607 0.65135 0.81905 0.0
C1109 C 0.72847 0.66594 0.7919 0.0
H1110 H 0.72773 0.65805 0.77431 0.0
H1111 H 0.74694 0.66896 0.79646 0.0
H1112 H 0.71914 0.68281 0.79137 0.0
O1113 O 0.75184 0.58357 0.80021 0.0
O1114 O 0.73238 0.56727 0.82932 0.0
H1115 H 0.67318 0.60683 0.85093 0.0
H1116 H 0.65746 0.63105 0.83862 0.0
C1117 C 0.67359 0.62581 0.8478 0.0
H1118 H 0.67392 0.63526 0.8646 0.0
H1119 H 0.69493 0.55628 0.86434 0.0
O1120 O 0.76683 0.63191 0.78009 0.0
C1121 C 0.74202 0.56596 0.80928 0.0
Co1122 Co 0.87018 0.01977 0.47212 0.0
Co1123 Co 0.84939 0.04466 0.42848 0.0
C1124 C 0.87233 0.99659 0.4261 0.0
O1125 O 0.8757 0.99623 0.44802 0.0
O1126 O 0.86239 1.01394 0.41632 0.0
C1127 C 0.88207 0.99248 0.51302 0.0
O1128 O 0.86885 0.97599 0.5044 0.0
C1129 C 0.85687 0.07079 0.38503 0.0
C1130 C 0.82536 0.09257 0.38359 0.0
C1131 C 0.84687 0.08937 0.37309 0.0
N1132 N 0.8422 0.06397 0.40204 0.0
N1133 N 0.82315 0.07667 0.40063 0.0
C1134 C 0.88102 0.06149 0.38231 0.0
H1135 H 0.88638 0.05174 0.39807 0.0
H1136 H 0.89348 0.07578 0.37886 0.0
H1137 H 0.88146 0.04945 0.36721 0.0
C1138 C 0.90187 0.05938 0.47043 0.0
N1139 N 0.88311 0.04802 0.46252 0.0
N1140 N 0.87312 0.06021 0.44598 0.0
C1141 C 0.8846 0.08063 0.44387 0.0
C1142 C 0.90336 0.08057 0.45906 0.0
C1143 C 0.91924 0.04892 0.48677 0.0
H1144 H 0.91358 0.05216 0.50495 0.0
H1145 H 0.92039 0.02989 0.48393 0.0
H1146 H 0.93674 0.05654 0.48426 0.0
O1147 O 0.83717 0.02393 0.47983 0.0
O1148 O 0.82071 0.04039 0.44906 0.0
H1149 H 0.85774 0.10018 0.42668 0.0
H1150 H 0.88128 0.11743 0.43817 0.0
C1151 C 0.87676 0.10081 0.42944 0.0
H1152 H 0.88579 0.10056 0.41242 0.0
H1153 H 0.80931 0.07559 0.41231 0.0
O1154 O 0.885 1.01116 0.50169 0.0
C1155 C 0.81937 0.03221 0.46974 0.0
Co1156 Co 0.26973 0.90957 0.80907 0.0
Co1157 Co 0.29563 0.9286 0.85281 0.0
C1158 C 0.24675 0.90814 0.85553 0.0
O1159 O 0.24624 0.9049 0.83358 0.0
O1160 O 0.26453 0.91717 0.86533 0.0
C1161 C 0.24079 0.89692 0.7692 0.0
O1162 O 0.22378 0.90881 0.77875 0.0
C1163 C 0.32265 0.92005 0.89541 0.0
C1164 C 0.34484 0.95126 0.89663 0.0
C1165 C 0.34179 0.92957 0.9068 0.0
N1166 N 0.31548 0.93511 0.87891 0.0
N1167 N 0.32841 0.954 0.88024 0.0
C1168 C 0.31292 0.89606 0.89811 0.0
H1169 H 0.30237 0.89121 0.88271 0.0
H1170 H 0.32699 0.88314 0.90074 0.0
H1171 H 0.30155 0.8957 0.91371 0.0
C1172 C 0.30889 0.87711 0.80863 0.0
N1173 N 0.29765 0.89539 0.81792 0.0
N1174 N 0.31009 0.90428 0.83494 0.0
C1175 C 0.33033 0.8923 0.83621 0.0
C1176 C 0.32993 0.87463 0.81981 0.0
C1177 C 0.29922 0.86169 0.79001 0.0
H1178 H 0.30112 0.87051 0.77296 0.0
H1179 H 0.28051 0.85847 0.79326 0.0
H1180 H 0.30847 0.84477 0.78922 0.0
O1181 O 0.27533 0.9424 0.80146 0.0
O1182 O 0.29256 0.95758 0.83249 0.0
H1183 H 0.35072 0.91757 0.85479 0.0
H1184 H 0.3672 0.89437 0.84152 0.0
C1185 C 0.35084 0.89874 0.85079 0.0
H1186 H 0.35066 0.88853 0.86711 0.0
H1187 H 0.32711 0.96805 0.86883 0.0
O1188 O 0.26012 0.89521 0.77962 0.0
C1189 C 0.28452 0.95961 0.81182 0.0
Co1190 Co 0.15785 0.51553 0.46863 0.0
Co1191 Co 0.17764 0.48361 0.42925 0.0
C1192 C 0.16078 0.53353 0.42068 0.0
O1193 O 0.15563 0.53672 0.442 0.0
O1194 O 0.1699 0.51443 0.41382 0.0
C1195 C 0.12999 0.54518 0.4999 0.0
O1196 O 0.11986 0.5545 0.48167 0.0
C1197 C 0.16884 0.45805 0.386 0.0
C1198 C 0.1946 0.42967 0.38743 0.0
C1199 C 0.1757 0.43772 0.3748 0.0
N1200 N 0.1828 0.4616 0.40448 0.0
N1201 N 0.19847 0.44481 0.40494 0.0
C1202 C 0.14754 0.4722 0.38116 0.0
H1203 H 0.1418 0.48152 0.39708 0.0
H1204 H 0.13324 0.46101 0.37469 0.0
H1205 H 0.15163 0.48526 0.36757 0.0
C1206 C 0.12267 0.47867 0.47099 0.0
N1207 N 0.1421 0.48785 0.46189 0.0
N1208 N 0.15101 0.47334 0.44653 0.0
C1209 C 0.13771 0.45399 0.446 0.0
C1210 C 0.11925 0.457 0.4612 0.0
C1211 C 0.10808 0.49021 0.48925 0.0
H1212 H 0.1188 0.49342 0.50495 0.0
H1213 H 0.10188 0.50722 0.48263 0.0
H1214 H 0.09294 0.47941 0.49427 0.0
O1215 O 0.18939 0.50767 0.47795 0.0
O1216 O 0.20549 0.48485 0.4513 0.0
H1217 H 0.16119 0.42967 0.43013 0.0
H1218 H 0.13365 0.41737 0.43858 0.0
C1219 C 0.14229 0.43298 0.43131 0.0
H1220 H 0.13522 0.43588 0.41362 0.0
H1221 H 0.21096 0.44294 0.41796 0.0
O1222 O 0.14524 0.52951 0.49712 0.0
C1223 C 0.20631 0.49541 0.4709 0.0
Co1224 Co 0.75981 0.41063 0.71779 0.0
Co1225 Co 0.73129 0.43105 0.67614 0.0
C1226 C 0.78045 0.41124 0.6706 0.0
O1227 O 0.78259 0.40622 0.69213 0.0
O1228 O 0.76214 0.42117 0.66297 0.0
C1229 C 0.7891 0.39688 0.75778 0.0
O1230 O 0.80659 0.40828 0.74857 0.0
C1231 C 0.70849 0.42224 0.63167 0.0
C1232 C 0.68125 0.4492 0.63047 0.0
C1233 C 0.68932 0.42954 0.61897 0.0
N1234 N 0.71139 0.4367 0.64991 0.0
N1235 N 0.69533 0.45309 0.6488 0.0
C1236 C 0.72186 0.4001 0.62849 0.0
H1237 H 0.72955 0.39436 0.64522 0.0
H1238 H 0.71054 0.38613 0.62151 0.0
H1239 H 0.73613 0.40313 0.61588 0.0
C1240 C 0.72177 0.37667 0.71722 0.0
N1241 N 0.73173 0.39628 0.70935 0.0
N1242 N 0.71843 0.40568 0.69329 0.0
C1243 C 0.69896 0.3927 0.69126 0.0
C1244 C 0.70071 0.37383 0.7061 0.0
C1245 C 0.73238 0.36084 0.73494 0.0
H1246 H 0.73153 0.36937 0.75222 0.0
H1247 H 0.75091 0.35772 0.7306 0.0
H1248 H 0.72312 0.34398 0.73601 0.0
O1249 O 0.75406 0.44363 0.72609 0.0
O1250 O 0.73404 0.45936 0.69703 0.0
H1251 H 0.67674 0.41675 0.67331 0.0
H1252 H 0.66277 0.39007 0.6821 0.0
C1253 C 0.67909 0.39775 0.67529 0.0
H1254 H 0.68254 0.38981 0.65805 0.0
H1255 H 0.69312 0.46607 0.66132 0.0
O1256 O 0.76986 0.39584 0.74707 0.0
C1257 C 0.74365 0.46094 0.71704 0.0
Co1258 Co 0.66366 1.01391 0.56102 0.0
Co1259 Co 0.684 0.0442 0.60176 0.0
C1260 C 0.66384 0.99546 0.60935 0.0
O1261 O 0.65945 0.99252 0.58777 0.0
O1262 O 0.67344 1.01414 0.61663 0.0
C1263 C 0.63371 0.98647 0.52965 0.0
O1264 O 0.62422 0.97716 0.54824 0.0
C1265 C 0.67496 0.07334 0.64303 0.0
C1266 C 0.70528 0.09671 0.64293 0.0
C1267 C 0.68392 0.09322 0.65361 0.0
N1268 N 0.69004 0.06601 0.62657 0.0
N1269 N 0.70841 0.07972 0.62708 0.0
C1270 C 0.65129 0.06311 0.64636 0.0
H1271 H 0.64664 0.0517 0.6315 0.0
H1272 H 0.63808 0.07702 0.6484 0.0
H1273 H 0.65126 0.0525 0.66248 0.0
C1274 C 0.63028 0.05286 0.5595 0.0
N1275 N 0.64946 0.04262 0.56807 0.0
N1276 N 0.65933 0.05657 0.58329 0.0
C1277 C 0.64734 0.07677 0.58386 0.0
C1278 C 0.62833 0.07487 0.56922 0.0
C1279 C 0.61316 0.04078 0.54407 0.0
H1280 H 0.62035 0.03964 0.52618 0.0
H1281 H 0.61025 0.02291 0.55059 0.0
H1282 H 0.59621 0.04991 0.54355 0.0
O1283 O 0.69667 0.01945 0.5526 0.0
O1284 O 0.71236 0.04005 0.58128 0.0
H1285 H 0.67412 0.09857 0.5982 0.0
H1286 H 0.6498 0.11403 0.58585 0.0
C1287 C 0.65502 0.09847 0.59601 0.0
H1288 H 0.64648 0.09976 0.61324 0.0
H1289 H 0.72236 0.07844 0.61554 0.0
O1290 O 0.64981 1.00137 0.53198 0.0
C1291 C 0.71397 0.02998 0.56147 0.0
Co1292 Co 0.26865 0.11509 0.72125 0.0
Co1293 Co 0.2994 0.0961 0.68054 0.0
C1294 C 0.24953 0.11337 0.67351 0.0
O1295 O 0.24652 0.11822 0.69499 0.0
O1296 O 0.26849 0.10428 0.6663 0.0
C1297 C 0.23738 0.13541 0.75733 0.0
O1298 O 0.21919 0.13229 0.74391 0.0
C1299 C 0.32317 0.1039 0.63616 0.0
C1300 C 0.35238 0.07909 0.63788 0.0
C1301 C 0.34343 0.09723 0.62474 0.0
N1302 N 0.32058 0.09057 0.65527 0.0
N1303 N 0.33784 0.07544 0.6559 0.0
C1304 C 0.30819 0.12455 0.63089 0.0
H1305 H 0.29961 0.13099 0.64694 0.0
H1306 H 0.31853 0.13879 0.62303 0.0
H1307 H 0.29455 0.11931 0.61831 0.0
C1308 C 0.30306 0.15239 0.71986 0.0
N1309 N 0.29587 0.13115 0.71327 0.0
N1310 N 0.31013 0.12275 0.69745 0.0
C1311 C 0.32755 0.13823 0.69431 0.0
C1312 C 0.32332 0.15756 0.7081 0.0
C1313 C 0.28977 0.16816 0.73581 0.0
H1314 H 0.29049 0.16103 0.75372 0.0
H1315 H 0.27131 0.16884 0.73034 0.0
H1316 H 0.29705 0.186 0.73609 0.0
O1317 O 0.27566 0.08259 0.73002 0.0
O1318 O 0.29739 0.06789 0.70168 0.0
H1319 H 0.35217 0.11693 0.6759 0.0
H1320 H 0.36279 0.14527 0.68414 0.0
C1321 C 0.34744 0.13549 0.67778 0.0
H1322 H 0.34264 0.1428 0.66062 0.0
H1323 H 0.34045 0.06356 0.66937 0.0
O1324 O 0.25737 0.12939 0.75025 0.0
C1325 C 0.28721 0.06582 0.72136 0.0
Co1326 Co 0.36939 0.5154 0.55419 0.0
Co1327 Co 0.34655 0.48625 0.59398 0.0
C1328 C 0.36214 0.53661 0.60056 0.0
O1329 O 0.36812 0.53803 0.57931 0.0
O1330 O 0.35368 0.5178 0.60887 0.0
C1331 C 0.38357 0.54967 0.52086 0.0
O1332 O 0.37183 0.5644 0.53383 0.0
C1333 C 0.35275 0.45817 0.63636 0.0
C1334 C 0.32325 0.43387 0.634 0.0
C1335 C 0.34354 0.43809 0.64637 0.0
N1336 N 0.3389 0.46483 0.61862 0.0
N1337 N 0.32098 0.45057 0.61776 0.0
C1338 C 0.37564 0.46935 0.64156 0.0
H1339 H 0.3809 0.48114 0.62723 0.0
H1340 H 0.38926 0.456 0.6444 0.0
H1341 H 0.374 0.47978 0.65773 0.0
C1342 C 0.4046 0.47879 0.55717 0.0
N1343 N 0.38459 0.48851 0.56423 0.0
N1344 N 0.37405 0.47463 0.57901 0.0
C1345 C 0.38663 0.45486 0.58086 0.0
C1346 C 0.40657 0.45709 0.56746 0.0
C1347 C 0.4217 0.49059 0.54151 0.0
H1348 H 0.41632 0.48804 0.52314 0.0
H1349 H 0.42195 0.50953 0.54518 0.0
H1350 H 0.43945 0.48345 0.54386 0.0
O1351 O 0.3389 0.50697 0.54225 0.0
O1352 O 0.3204 0.48735 0.56983 0.0
H1353 H 0.35926 0.43244 0.59301 0.0
H1354 H 0.38473 0.41752 0.58244 0.0
C1355 C 0.37846 0.43294 0.59226 0.0
H1356 H 0.3857 0.43175 0.61007 0.0
H1357 H 0.30805 0.45126 0.60506 0.0
O1358 O 0.38538 0.52858 0.52711 0.0
C1359 C 0.32115 0.49597 0.54929 0.0
Co1360 Co 0.8067 0.76298 0.61886 0.0
Co1361 Co 0.8469 0.73309 0.5978 0.0
C1362 C 0.85495 0.7812 0.61852 0.0
O1363 O 0.83349 0.78417 0.62312 0.0
O1364 O 0.86209 0.7627 0.60847 0.0
C1365 C 0.77423 0.79669 0.63857 0.0
O1366 O 0.78925 0.81279 0.63258 0.0
C1367 C 0.88855 0.7049 0.60473 0.0
C1368 C 0.88727 0.68103 0.57466 0.0
C1369 C 0.89895 0.68512 0.5954 0.0
N1370 N 0.87126 0.71164 0.59047 0.0
N1371 N 0.87101 0.69768 0.57221 0.0
C1372 C 0.89282 0.71557 0.62815 0.0
H1373 H 0.87777 0.72629 0.63368 0.0
H1374 H 0.89629 0.70197 0.64139 0.0
H1375 H 0.90831 0.72697 0.62708 0.0
C1376 C 0.80606 0.72446 0.65256 0.0
N1377 N 0.8139 0.73429 0.63283 0.0
N1378 N 0.82919 0.72046 0.62293 0.0
C1379 C 0.83064 0.70069 0.63555 0.0
C1380 C 0.81643 0.70281 0.65495 0.0
C1381 C 0.79069 0.73664 0.66974 0.0
H1382 H 0.79542 0.75531 0.67072 0.0
H1383 H 0.79212 0.72893 0.68736 0.0
H1384 H 0.7724 0.73537 0.6638 0.0
O1385 O 0.79751 0.75802 0.58584 0.0
O1386 O 0.82627 0.73771 0.56996 0.0
H1387 H 0.83421 0.66348 0.63447 0.0
H1388 H 0.86093 0.67906 0.63662 0.0
C1389 C 0.84355 0.67923 0.62841 0.0
H1390 H 0.84537 0.67843 0.60923 0.0
H1391 H 0.85875 0.69856 0.55888 0.0
O1392 O 0.77875 0.77548 0.63438 0.0
C1393 C 0.80652 0.74771 0.56841 0.0
Co1394 Co 0.80614 0.26633 0.90835 0.0
Co1395 Co 0.84874 0.2931 0.9289 0.0
C1396 C 0.85332 0.24494 0.9073 0.0
O1397 O 0.83151 0.24375 0.90377 0.0
O1398 O 0.86237 0.26285 0.91686 0.0
C1399 C 0.77103 0.23428 0.89174 0.0
O1400 O 0.7839 0.21796 0.90121 0.0
C1401 C 0.89131 0.32052 0.92232 0.0
C1402 C 0.8909 0.34292 0.95352 0.0
C1403 C 0.90223 0.33966 0.93241 0.0
N1404 N 0.87405 0.31346 0.93653 0.0
N1405 N 0.87435 0.32653 0.95543 0.0
C1406 C 0.8952 0.31074 0.89845 0.0
H1407 H 0.87994 0.30048 0.8927 0.0
H1408 H 0.89877 0.3248 0.88574 0.0
H1409 H 0.91054 0.29905 0.89888 0.0
C1410 C 0.80701 0.30538 0.87545 0.0
N1411 N 0.81477 0.29473 0.89476 0.0
N1412 N 0.831 0.30746 0.90456 0.0
C1413 C 0.83308 0.32746 0.89235 0.0
C1414 C 0.81831 0.32655 0.87328 0.0
C1415 C 0.79085 0.29425 0.85833 0.0
H1416 H 0.79447 0.27534 0.85718 0.0
H1417 H 0.79267 0.30193 0.84072 0.0
H1418 H 0.7727 0.29664 0.86438 0.0
O1419 O 0.7978 0.27096 0.94147 0.0
O1420 O 0.82835 0.28836 0.95733 0.0
H1421 H 0.83806 0.36444 0.89447 0.0
H1422 H 0.86411 0.34792 0.89109 0.0
C1423 C 0.84696 0.34816 0.89978 0.0
H1424 H 0.84929 0.34828 0.91891 0.0
H1425 H 0.86225 0.32529 0.9689 0.0
O1426 O 0.77758 0.25532 0.89288 0.0
C1427 C 0.80795 0.27975 0.95905 0.0
Co1428 Co 0.50763 0.97196 0.36759 0.0
Co1429 Co 0.54149 0.93215 0.35284 0.0
C1430 C 0.4916 0.92275 0.3672 0.0
O1431 O 0.48743 0.94429 0.37035 0.0
O1432 O 0.5114 0.91588 0.3599 0.0
C1433 C 0.47186 1.00056 0.38971 0.0
O1434 O 0.46015 0.98132 0.39335 0.0
C1435 C 0.56762 0.88929 0.36215 0.0
C1436 C 0.59764 0.89275 0.33848 0.0
C1437 C 0.58857 0.87891 0.35604 0.0
N1438 N 0.56466 0.90846 0.34901 0.0
N1439 N 0.58247 0.91017 0.3346 0.0
C1440 C 0.55197 0.88281 0.38193 0.0
H1441 H 0.54228 0.89825 0.38828 0.0
H1442 H 0.56204 0.87516 0.39649 0.0
H1443 H 0.53924 0.86971 0.37578 0.0
C1444 C 0.54084 0.97598 0.40634 0.0
N1445 N 0.53446 0.96701 0.38567 0.0
N1446 N 0.54964 0.95114 0.37916 0.0
C1447 C 0.56667 0.95014 0.39535 0.0
C1448 C 0.5614 0.96556 0.41322 0.0
C1449 C 0.5269 0.9935 0.41966 0.0
H1450 H 0.52454 1.0093 0.40885 0.0
H1451 H 0.50947 0.98624 0.42344 0.0
H1452 H 0.53549 0.99851 0.4362 0.0
O1453 O 0.51631 0.97999 0.33528 0.0
O1454 O 0.53977 0.95168 0.32353 0.0
H1455 H 0.59306 0.93143 0.37669 0.0
H1456 H 0.60137 0.94021 0.40561 0.0
C1457 C 0.58683 0.93372 0.39477 0.0
H1458 H 0.58141 0.91669 0.40189 0.0
H1459 H 0.58482 0.92384 0.3229 0.0
O1460 O 0.49138 0.99966 0.37946 0.0
C1461 C 0.52916 0.97084 0.31976 0.0
Co1462 Co 0.22208 0.26691 0.91075 0.0
Co1463 Co 0.18144 0.23676 0.93106 0.0
C1464 C 0.1737 0.28548 0.91262 0.0
O1465 O 0.19506 0.28825 0.90755 0.0
O1466 O 0.16662 0.26686 0.92227 0.0
C1467 C 0.24804 0.29606 0.8792 0.0
O1468 O 0.22744 0.30333 0.87261 0.0
C1469 C 0.13758 0.21277 0.92359 0.0
C1470 C 0.13867 0.18447 0.94947 0.0
C1471 C 0.126 0.19287 0.93074 0.0
N1472 N 0.15635 0.21578 0.93724 0.0
N1473 N 0.15659 0.19911 0.95305 0.0
C1474 C 0.1329 0.22677 0.90212 0.0
H1475 H 0.14916 0.23469 0.89548 0.0
H1476 H 0.12506 0.21585 0.88827 0.0
H1477 H 0.12054 0.24094 0.90648 0.0
C1478 C 0.22261 0.22883 0.87602 0.0
N1479 N 0.2148 0.23846 0.89594 0.0
N1480 N 0.19857 0.22509 0.90496 0.0
C1481 C 0.19603 0.20617 0.89121 0.0
C1482 C 0.21084 0.20815 0.87234 0.0
C1483 C 0.23927 0.24045 0.85975 0.0
H1484 H 0.25592 0.24364 0.8689 0.0
H1485 H 0.23198 0.25746 0.85439 0.0
H1486 H 0.24262 0.22996 0.84391 0.0
O1487 O 0.23122 0.26089 0.94364 0.0
O1488 O 0.20244 0.24013 0.95893 0.0
H1489 H 0.17938 0.18279 0.91509 0.0
H1490 H 0.18715 0.16996 0.88753 0.0
C1491 C 0.18049 0.18593 0.89613 0.0
H1492 H 0.16294 0.18946 0.88908 0.0
H1493 H 0.16977 0.19688 0.9653 0.0
O1494 O 0.24954 0.28095 0.89526 0.0
C1495 C 0.22219 0.25009 0.96076 0.0
Co1496 Co 0.01563 0.05754 0.87096 0.0
Co1497 Co 0.98914 0.10106 0.85123 0.0
C1498 C 0.03808 0.10437 0.86989 0.0
O1499 O 0.03871 0.08259 0.8736 0.0
O1500 O 0.02011 0.11399 0.86116 0.0
C1501 C 0.04351 0.03061 0.90234 0.0
O1502 O 0.05121 0.05106 0.90896 0.0
C1503 C 0.96576 0.14584 0.85855 0.0
C1504 C 0.93892 0.14557 0.83117 0.0
C1505 C 0.9463 0.1578 0.85065 0.0
N1506 N 0.96934 0.12724 0.84468 0.0
N1507 N 0.95357 0.12755 0.82799 0.0
C1508 C 0.97878 0.15006 0.88071 0.0
H1509 H 0.98719 0.13382 0.88684 0.0
H1510 H 0.96705 0.15686 0.89447 0.0
H1511 H 0.99248 0.16321 0.87747 0.0
C1512 C 0.97724 0.05901 0.90493 0.0
N1513 N 0.98789 0.06692 0.88565 0.0
N1514 N 0.97583 0.08428 0.87683 0.0
C1515 C 0.95665 0.08744 0.89006 0.0
C1516 C 0.95717 0.07185 0.90838 0.0
C1517 C 0.98723 0.04085 0.92068 0.0
H1518 H 0.98926 0.02432 0.91091 0.0
H1519 H 1.00465 0.04652 0.92655 0.0
H1520 H 0.9763 0.0378 0.93626 0.0
O1521 O 1.00908 0.04887 0.83845 0.0
O1522 O 0.99161 0.07969 0.82297 0.0
H1523 H 0.93492 0.10566 0.86575 0.0
H1524 H 0.92065 0.09747 0.89241 0.0
C1525 C 0.93718 0.10385 0.88478 0.0
H1526 H 0.94089 0.12104 0.89263 0.0
H1527 H 0.95186 0.1146 0.81536 0.0
O1528 O 0.02829 0.02945 0.88637 0.0
C1529 C 0.99957 0.05895 0.82121 0.0
Co1530 Co 0.7214 0.261 0.11772 0.0
Co1531 Co 0.68205 0.29397 0.09993 0.0
C1532 C 0.67196 0.24536 0.11773 0.0
O1533 O 0.69338 0.24129 0.1215 0.0
O1534 O 0.66537 0.26472 0.10914 0.0
C1535 C 0.74789 0.22946 0.14679 0.0
O1536 O 0.72764 0.22203 0.15422 0.0
C1537 C 0.64145 0.3234 0.10904 0.0
C1538 C 0.64333 0.34873 0.08028 0.0
C1539 C 0.63145 0.3438 0.10073 0.0
N1540 N 0.65864 0.31701 0.09442 0.0
N1541 N 0.65928 0.33191 0.07697 0.0
C1542 C 0.63677 0.31167 0.13181 0.0
H1543 H 0.65173 0.30068 0.13702 0.0
H1544 H 0.63308 0.32467 0.14562 0.0
H1545 H 0.62128 0.30037 0.12994 0.0
C1546 C 0.72728 0.29886 0.15203 0.0
N1547 N 0.71682 0.28961 0.13323 0.0
N1548 N 0.70123 0.30431 0.12521 0.0
C1549 C 0.70182 0.32377 0.13846 0.0
C1550 C 0.71809 0.32078 0.15598 0.0
C1551 C 0.74453 0.28617 0.16681 0.0
H1552 H 0.76047 0.28276 0.1565 0.0
H1553 H 0.73708 0.26923 0.17213 0.0
H1554 H 0.74917 0.29604 0.18272 0.0
O1555 O 0.72982 0.26701 0.0848 0.0
O1556 O 0.70175 0.28964 0.07101 0.0
H1557 H 0.68572 0.34783 0.11481 0.0
H1558 H 0.698 0.36099 0.14052 0.0
C1559 C 0.68851 0.34562 0.13374 0.0
H1560 H 0.67154 0.34488 0.14278 0.0
H1561 H 0.67149 0.33139 0.06355 0.0
O1562 O 0.74867 0.24529 0.13142 0.0
C1563 C 0.72087 0.27864 0.06824 0.0
Co1564 Co 0.51441 0.05349 0.16038 0.0
Co1565 Co 0.54477 0.09541 0.17689 0.0
C1566 C 0.49569 0.10222 0.15983 0.0
O1567 O 0.49354 0.08033 0.15766 0.0
O1568 O 0.51473 0.11111 0.16695 0.0
C1569 C 0.48241 0.0279 0.13199 0.0
O1570 O 0.47567 0.04857 0.12498 0.0
C1571 C 0.57416 0.1369 0.16914 0.0
C1572 C 0.59865 0.13412 0.19853 0.0
C1573 C 0.59439 0.14658 0.17829 0.0
N1574 N 0.56736 0.11927 0.18305 0.0
N1575 N 0.58179 0.11813 0.20086 0.0
C1576 C 0.56278 0.14247 0.1464 0.0
H1577 H 0.55176 0.12776 0.14054 0.0
H1578 H 0.57597 0.14651 0.1329 0.0
H1579 H 0.55157 0.15801 0.14869 0.0
C1580 C 0.55142 0.04957 0.12516 0.0
N1581 N 0.54218 0.05953 0.14426 0.0
N1582 N 0.55614 0.07599 0.15189 0.0
C1583 C 0.5753 0.07619 0.13821 0.0
C1584 C 0.57266 0.05978 0.12073 0.0
C1585 C 0.53988 0.03095 0.11114 0.0
H1586 H 0.53594 0.0159 0.12252 0.0
H1587 H 0.52324 0.0377 0.10415 0.0
H1588 H 0.551 0.02506 0.09648 0.0
O1589 O 0.52131 0.04535 0.19284 0.0
O1590 O 0.5408 0.07583 0.20628 0.0
H1591 H 0.59886 0.09487 0.16039 0.0
H1592 H 0.61193 0.08267 0.13457 0.0
C1593 C 0.59616 0.09126 0.14166 0.0
H1594 H 0.59378 0.10777 0.13206 0.0
H1595 H 0.58091 0.10555 0.21391 0.0
O1596 O 0.49867 0.02625 0.14682 0.0
C1597 C 0.53171 0.05576 0.20932 0.0
Co1598 Co 0.52019 0.46925 0.16413 0.0
Co1599 Co 0.485 0.43139 0.1805 0.0
C1600 C 0.53413 0.41943 0.16548 0.0
O1601 O 0.53898 0.44079 0.16233 0.0
O1602 O 0.5141 0.41324 0.17275 0.0
C1603 C 0.55546 0.49459 0.13834 0.0
O1604 O 0.56379 0.47424 0.13212 0.0
C1605 C 0.45378 0.39173 0.17221 0.0
C1606 C 0.42755 0.39686 0.1998 0.0
C1607 C 0.43252 0.38341 0.18033 0.0
N1608 N 0.46051 0.4095 0.18594 0.0
N1609 N 0.445 0.4121 0.20269 0.0
C1610 C 0.46642 0.38482 0.15048 0.0
H1611 H 0.47852 0.39877 0.14497 0.0
H1612 H 0.45404 0.38101 0.1362 0.0
H1613 H 0.4767 0.36888 0.15398 0.0
C1614 C 0.48634 0.47392 0.12613 0.0
N1615 N 0.49296 0.46496 0.14669 0.0
N1616 N 0.47695 0.45048 0.15426 0.0
C1617 C 0.45902 0.45077 0.13907 0.0
C1618 C 0.4647 0.46518 0.1206 0.0
C1619 C 0.50084 0.49001 0.11173 0.0
H1620 H 0.50479 0.50588 0.12197 0.0
H1621 H 0.5175 0.48136 0.10734 0.0
H1622 H 0.49186 0.49518 0.09545 0.0
O1623 O 0.51218 0.47884 0.19595 0.0
O1624 O 0.48836 0.45157 0.20911 0.0
H1625 H 0.43278 0.4346 0.16021 0.0
H1626 H 0.42227 0.44686 0.13342 0.0
C1627 C 0.43691 0.43739 0.14162 0.0
H1628 H 0.43858 0.42047 0.13254 0.0
H1629 H 0.4457 0.4251 0.21536 0.0
O1630 O 0.5377 0.49562 0.1514 0.0
C1631 C 0.49942 0.4706 0.21196 0.0
H1632 H 0.17696 0.16493 0.28782 0.0
H1633 H 0.18052 0.17563 0.36194 0.0
H1634 H 0.15636 0.21057 0.35846 0.0
H1635 H 0.13827 0.24051 0.33348 0.0
H1636 H 0.13752 0.2304 0.25897 0.0
H1637 H 0.15669 0.19298 0.26337 0.0
C1638 C 0.17219 0.17485 0.30319 0.0
C1639 C 0.18056 0.16807 0.325 0.0
C1640 C 0.15912 0.1952 0.30091 0.0
C1641 C 0.1741 0.18063 0.34495 0.0
C1642 C 0.16051 0.20069 0.34293 0.0
C1643 C 0.14206 0.22994 0.31829 0.0
C1644 C 0.13682 0.23833 0.29595 0.0
C1645 C 0.15353 0.20853 0.32088 0.0
C1646 C 0.14176 0.22449 0.27636 0.0
C1647 C 0.15264 0.20304 0.27883 0.0
H1648 H 0.42199 0.59004 1.0023 0.0
H1649 H 0.42391 0.59808 0.92775 0.0
H1650 H 0.45985 0.62048 0.93078 0.0
H1651 H 0.49262 0.63488 0.95458 0.0
H1652 H 0.49206 0.62285 0.02873 0.0
H1653 H 0.45421 0.60432 0.02587 0.0
C1654 C 0.43033 0.59669 0.98673 0.0
C1655 C 0.42044 0.59234 0.96487 0.0
C1656 C 0.45151 0.60845 0.98851 0.0
C1657 C 0.43106 0.60146 0.94484 0.0
C1658 C 0.45177 0.61401 0.94653 0.0
C1659 C 0.48412 0.62825 0.97006 0.0
C1660 C 0.49522 0.62997 0.99176 0.0
C1661 C 0.46245 0.61716 0.96826 0.0
C1662 C 0.48407 0.62133 1.01174 0.0
C1663 C 0.46234 0.61089 1.01017 0.0
H1664 H 0.8448 0.25934 0.3146 0.0
H1665 H 0.90641 0.2882 0.28306 0.0
H1666 H 0.89181 0.32744 0.28968 0.0
H1667 H 0.86015 0.35365 0.30169 0.0
H1668 H 0.79809 0.32497 0.33197 0.0
H1669 H 0.81418 0.28563 0.32872 0.0
C1670 C 0.85516 0.27421 0.30947 0.0
C1671 C 0.87657 0.27082 0.29823 0.0
C1672 C 0.84649 0.29679 0.31296 0.0
C1673 C 0.88976 0.2903 0.2916 0.0
C1674 C 0.88144 0.31279 0.29535 0.0
C1675 C 0.85041 0.33873 0.30783 0.0
C1676 C 0.82808 0.34192 0.31696 0.0
C1677 C 0.85964 0.31624 0.30558 0.0
C1678 C 0.81535 0.32266 0.3248 0.0
C1679 C 0.82451 0.30026 0.32292 0.0
H1680 H 0.5273 0.90086 0.94541 0.0
H1681 H 0.53644 0.89912 0.02002 0.0
H1682 H 0.57244 0.92076 0.01652 0.0
H1683 H 0.60091 0.94128 0.99259 0.0
H1684 H 0.59216 0.94398 0.9182 0.0
H1685 H 0.5568 0.92048 0.92117 0.0
C1686 C 0.53724 0.90514 0.96085 0.0
C1687 C 0.52897 0.89866 0.98294 0.0
C1688 C 0.55808 0.91767 0.95877 0.0
C1689 C 0.54212 0.90425 1.00281 0.0
C1690 C 0.56283 0.91654 1.00086 0.0
C1691 C 0.59119 0.93668 0.97709 0.0
C1692 C 0.59884 0.94436 0.95529 0.0
C1693 C 0.57083 0.92354 0.97899 0.0
C1694 C 0.58649 0.93809 0.93519 0.0
C1695 C 0.56625 0.9248 0.93689 0.0
H1696 H 0.13919 0.79205 0.24058 0.0
H1697 H 0.19434 0.75023 0.2114 0.0
H1698 H 0.21568 0.78545 0.20096 0.0
H1699 H 0.21992 0.82802 0.203 0.0
H1700 H 0.16502 0.86962 0.23243 0.0
H1701 H 0.14205 0.83449 0.2399 0.0
C1702 C 0.15581 0.79062 0.23178 0.0
C1703 C 0.16533 0.7686 0.227 0.0
C1704 C 0.16796 0.81085 0.226 0.0
C1705 C 0.1867 0.767 0.21532 0.0
C1706 C 0.19893 0.78711 0.20943 0.0
C1707 C 0.20278 0.82924 0.21079 0.0
C1708 C 0.19397 0.85103 0.2173 0.0
C1709 C 0.18992 0.80907 0.21511 0.0
C1710 C 0.17188 0.85282 0.22732 0.0
C1711 C 0.15889 0.83282 0.23163 0.0
H1712 H 0.10532 0.60095 0.04011 0.0
H1713 H 0.09319 0.5951 0.11384 0.0
H1714 H 0.05747 0.61811 0.11013 0.0
H1715 H 0.02766 0.63628 0.08493 0.0
H1716 H 0.03979 0.63978 1.01078 0.0
H1717 H 0.07729 0.62108 0.01557 0.0
C1718 C 0.09491 0.60495 0.05536 0.0
C1719 C 0.10156 0.59627 0.07711 0.0
C1720 C 0.0742 0.61742 0.05294 0.0
C1721 C 0.08831 0.60175 0.0969 0.0
C1722 C 0.06782 0.61468 0.09474 0.0
C1723 C 0.03864 0.63314 0.0699 0.0
C1724 C 0.03075 0.63908 0.04752 0.0
C1725 C 0.06025 0.62205 0.07271 0.0
C1726 C 0.04521 0.63499 0.02818 0.0
C1727 C 0.06675 0.62439 0.03087 0.0
H1728 H 0.84096 0.67496 0.2485 0.0
H1729 H 0.85196 0.67518 0.17428 0.0
H1730 H 0.87498 0.71073 0.17753 0.0
H1731 H 0.88944 0.74348 0.2013 0.0
H1732 H 0.87489 0.74458 0.27504 0.0
H1733 H 0.85525 0.70726 0.27207 0.0
C1734 C 0.84837 0.68285 0.23305 0.0
C1735 C 0.84476 0.67254 0.21123 0.0
C1736 C 0.86061 0.70377 0.23492 0.0
C1737 C 0.85481 0.68261 0.19136 0.0
C1738 C 0.86772 0.7031 0.19317 0.0
C1739 C 0.88203 0.73547 0.21668 0.0
C1740 C 0.88346 0.74686 0.23829 0.0
C1741 C 0.87036 0.71409 0.21482 0.0
C1742 C 0.87375 0.73633 0.25812 0.0
C1743 C 0.86263 0.71491 0.2565 0.0
H1744 H 0.98497 0.89289 0.02229 0.0
H1745 H 1.00176 0.88963 0.09542 0.0
H1746 H 0.96482 0.9085 0.10498 0.0
H1747 H 0.92906 0.92862 0.09216 0.0
H1748 H 0.91317 0.9322 0.01896 0.0
H1749 H 0.94842 0.91028 1.00976 0.0
C1750 C 0.98058 0.89623 0.04035 0.0
C1751 C 0.99624 0.89013 0.0581 0.0
C1752 C 0.95945 0.9071 0.04567 0.0
C1753 C 0.99007 0.89427 0.08142 0.0
C1754 C 0.96896 0.90507 0.08689 0.0
C1755 C 0.93316 0.92411 0.07427 0.0
C1756 C 0.91876 0.93196 0.05619 0.0
C1757 C 0.95368 0.91187 0.06913 0.0
C1758 C 0.92419 0.92634 0.03306 0.0
C1759 C 0.94433 0.91392 0.02782 0.0
H1760 H 0.32615 0.14868 0.25009 0.0
H1761 H 0.2515 0.1506 0.24329 0.0
H1762 H 0.25503 0.17207 0.20696 0.0
H1763 H 0.27921 0.19123 0.17745 0.0
H1764 H 0.35368 0.19033 0.18454 0.0
H1765 H 0.35038 0.16721 0.2201 0.0
C1766 C 0.31066 0.15372 0.24063 0.0
C1767 C 0.28861 0.14811 0.24952 0.0
C1768 C 0.31278 0.16617 0.2197 0.0
C1769 C 0.26871 0.15477 0.23697 0.0
C1770 C 0.27068 0.16704 0.21614 0.0
C1771 C 0.29466 0.18594 0.18685 0.0
C1772 C 0.31661 0.19239 0.17849 0.0
C1773 C 0.2926 0.17299 0.20743 0.0
C1774 C 0.33659 0.18529 0.19056 0.0
C1775 C 0.3347 0.17223 0.21097 0.0
H1776 H 0.42971 0.46561 0.01691 0.0
H1777 H 0.37337 0.50386 0.04854 0.0
H1778 H 0.39095 0.49896 0.08684 0.0
H1779 H 0.42331 0.48528 0.11126 0.0
H1780 H 0.48024 0.44835 0.07957 0.0
H1781 H 0.4616 0.45127 0.04137 0.0
C1782 C 0.42117 0.47265 0.03222 0.0
C1783 C 0.4003 0.48507 0.02989 0.0
C1784 C 0.43159 0.47015 0.05415 0.0
C1785 C 0.38952 0.49429 0.04986 0.0
C1786 C 0.39955 0.49152 0.07178 0.0
C1787 C 0.43142 0.47777 0.09593 0.0
C1788 C 0.45295 0.46663 0.09794 0.0
C1789 C 0.42071 0.47974 0.0741 0.0
C1790 C 0.46361 0.45706 0.07816 0.0
C1791 C 0.45297 0.4587 0.05642 0.0
H1792 H 0.75707 0.38005 0.23909 0.0
H1793 H 0.68479 0.37935 0.25908 0.0
H1794 H 0.67509 0.35841 0.22328 0.0
H1795 H 0.68762 0.33831 0.18732 0.0
H1796 H 0.76003 0.33818 0.1684 0.0
H1797 H 0.76929 0.36151 0.20284 0.0
C1798 C 0.73916 0.37538 0.23568 0.0
C1799 C 0.72171 0.3811 0.25189 0.0
C1800 C 0.73378 0.36315 0.21527 0.0
C1801 C 0.69858 0.37509 0.24697 0.0
C1802 C 0.69302 0.3631 0.22651 0.0
C1803 C 0.70534 0.3437 0.19068 0.0
C1804 C 0.7232 0.33656 0.17559 0.0
C1805 C 0.71053 0.35679 0.21068 0.0
C1806 C 0.74612 0.34343 0.18 0.0
C1807 C 0.75139 0.35671 0.19964 0.0
H1808 H 0.64 0.03268 0.0387 0.0
H1809 H 0.59182 0.07571 1.0005 0.0
H1810 H 0.57047 0.08393 0.03633 0.0
H1811 H 0.56443 0.07749 0.07832 0.0
H1812 H 0.61267 0.03508 0.11664 0.0
H1813 H 0.63519 0.02797 0.08099 0.0
C1814 C 0.6249 0.04397 0.03822 0.0
C1815 C 0.61745 0.05346 0.0169 0.0
C1816 C 0.61272 0.04864 0.05889 0.0
C1817 C 0.59795 0.06817 0.01664 0.0
C1818 C 0.58567 0.07283 0.03711 0.0
C1819 C 0.58 0.06686 0.07874 0.0
C1820 C 0.58706 0.05674 0.09977 0.0
C1821 C 0.59275 0.06297 0.05827 0.0
C1822 C 0.60713 0.04299 0.10046 0.0
C1823 C 0.61989 0.03893 0.08014 0.0
H1824 H 0.33974 0.84234 0.34901 0.0
H1825 H 0.2667 0.83596 0.364 0.0
H1826 H 0.25731 0.8591 0.32952 0.0
H1827 H 0.26984 0.87921 0.29427 0.0
H1828 H 0.34293 0.88541 0.2787 0.0
H1829 H 0.35243 0.86447 0.3145 0.0
C1830 C 0.32182 0.84637 0.34484 0.0
C1831 C 0.30387 0.83745 0.35875 0.0
C1832 C 0.31661 0.85947 0.32491 0.0
C1833 C 0.2807 0.84255 0.35327 0.0
C1834 C 0.27537 0.85573 0.33362 0.0
C1835 C 0.28788 0.87605 0.29867 0.0
C1836 C 0.30564 0.88367 0.2837 0.0
C1837 C 0.29317 0.86393 0.31913 0.0
C1838 C 0.32891 0.87965 0.28987 0.0
C1839 C 0.33435 0.86766 0.31032 0.0
H1840 H 0.08572 0.50184 0.92625 0.0
H1841 H 0.09666 0.4277 0.92707 0.0
H1842 H 0.12038 0.43124 0.96214 0.0
H1843 H 0.13584 0.45522 0.99406 0.0
H1844 H 0.12292 0.5292 0.99411 0.0
H1845 H 0.10185 0.52587 0.95756 0.0
C1846 C 0.09335 0.48651 0.93415 0.0
C1847 C 0.08952 0.46459 0.92417 0.0
C1848 C 0.10637 0.48861 0.95464 0.0
C1849 C 0.09969 0.44483 0.93428 0.0
C1850 C 0.11305 0.44681 0.95446 0.0
C1851 C 0.12853 0.47061 0.986 0.0
C1852 C 0.13082 0.49236 0.99692 0.0
C1853 C 0.1162 0.46858 0.96501 0.0
C1854 C 0.12123 0.51217 0.98623 0.0
C1855 C 0.10922 0.51033 0.96526 0.0
H1856 H 0.69805 0.6457 0.27937 0.0
H1857 H 0.77265 0.64584 0.28714 0.0
H1858 H 0.76905 0.66571 0.32435 0.0
H1859 H 0.74505 0.6846 0.35402 0.0
H1860 H 0.67072 0.68654 0.34592 0.0
H1861 H 0.67379 0.66376 0.30999 0.0
C1862 C 0.71349 0.64997 0.28927 0.0
C1863 C 0.73557 0.64441 0.28031 0.0
C1864 C 0.71135 0.66164 0.31073 0.0
C1865 C 0.75542 0.65006 0.29343 0.0
C1866 C 0.75341 0.66139 0.3148 0.0
C1867 C 0.72954 0.67996 0.34438 0.0
C1868 C 0.70773 0.68728 0.35248 0.0
C1869 C 0.73152 0.6675 0.32348 0.0
C1870 C 0.6877 0.68089 0.34011 0.0
C1871 C 0.68948 0.66807 0.31945 0.0
H1872 H 0.90054 0.0807 1.00176 0.0
H1873 H 0.88856 1.00806 0.98677 0.0
H1874 H 0.90956 1.0116 0.95028 0.0
H1875 H 0.93334 0.03459 0.92351 0.0
H1876 H 0.94574 0.107 0.93786 0.0
H1877 H 0.92227 0.10448 0.97341 0.0
C1878 C 0.90237 0.06572 0.99041 0.0
C1879 C 0.89329 0.0441 0.99722 0.0
C1880 C 0.91455 0.06783 0.9693 0.0
C1881 C 0.89567 0.02487 0.9822 0.0
C1882 C 0.90764 0.02684 0.96125 0.0
C1883 C 0.93072 0.04978 0.93444 0.0
C1884 C 0.94129 0.07083 0.92845 0.0
C1885 C 0.91748 0.0481 0.95482 0.0
C1886 C 0.93766 0.0906 0.94234 0.0
C1887 C 0.92439 0.08912 0.96266 0.0
H1888 H 0.23927 0.27202 0.14516 0.0
H1889 H 0.26204 0.34326 0.15118 0.0
H1890 H 0.22577 0.35344 0.17096 0.0
H1891 H 0.18861 0.34138 0.18891 0.0
H1892 H 0.16659 0.27004 0.18306 0.0
H1893 H 0.20146 0.26062 0.16061 0.0
C1894 C 0.23631 0.28982 0.15068 0.0
C1895 C 0.25346 0.3068 0.14687 0.0
C1896 C 0.21552 0.29552 0.16205 0.0
C1897 C 0.24918 0.32981 0.15398 0.0
C1898 C 0.22844 0.33566 0.16529 0.0
C1899 C 0.19133 0.32392 0.18229 0.0
C1900 C 0.17526 0.30635 0.18761 0.0
C1901 C 0.21161 0.31858 0.1697 0.0
C1902 C 0.17891 0.28373 0.1792 0.0
C1903 C 0.19883 0.27835 0.16646 0.0
H1904 H 0.20272 0.69742 0.3182 0.0
H1905 H 0.16142 0.73616 0.3673 0.0
H1906 H 0.19582 0.74283 0.39158 0.0
H1907 H 0.23792 0.73965 0.39725 0.0
H1908 H 0.27933 0.7009 0.3479 0.0
H1909 H 0.24454 0.69191 0.32536 0.0
C1910 C 0.20136 0.70709 0.33438 0.0
C1911 C 0.17984 0.71632 0.34116 0.0
C1912 C 0.22115 0.71086 0.34806 0.0
C1913 C 0.17795 0.72884 0.362 0.0
C1914 C 0.19757 0.73269 0.37576 0.0
C1915 C 0.23933 0.72905 0.38169 0.0
C1916 C 0.26123 0.72112 0.37417 0.0
C1917 C 0.21931 0.72408 0.36875 0.0
C1918 C 0.26271 0.70726 0.35406 0.0
C1919 C 0.24284 0.70218 0.3411 0.0
H1920 H 1.00735 0.53667 0.89786 0.0
H1921 H 0.93464 0.5197 0.89167 0.0
H1922 H 0.92428 0.55645 0.9106 0.0
H1923 H 0.93617 0.59247 0.93095 0.0
H1924 H 1.00892 0.6089 0.93679 0.0
H1925 H 0.01904 0.57333 0.91574 0.0
C1926 C 0.98921 0.54096 0.9006 0.0
C1927 C 0.9718 0.52533 0.89357 0.0
C1928 C 0.98342 0.56207 0.91137 0.0
C1929 C 0.94839 0.53137 0.89701 0.0
C1930 C 0.94245 0.55238 0.90782 0.0
C1931 C 0.95417 0.5884 0.92717 0.0
C1932 C 0.97183 0.60309 0.93542 0.0
C1933 C 0.95984 0.56777 0.91528 0.0
C1934 C 0.99512 0.59766 0.93069 0.0
C1935 C 1.00089 0.57735 0.91873 0.0
H1936 H 0.85543 0.78501 0.34414 0.0
H1937 H 0.84993 0.85945 0.35038 0.0
H1938 H 0.8153 0.85518 0.3749 0.0
H1939 H 0.78448 0.83008 0.39121 0.0
H1940 H 0.78949 0.75564 0.3823 0.0
H1941 H 0.82619 0.76009 0.36189 0.0
C1942 C 0.84666 0.80026 0.35099 0.0
C1943 C 0.85488 0.82246 0.34536 0.0
C1944 C 0.8265 0.79766 0.36429 0.0
C1945 C 0.84382 0.84216 0.35464 0.0
C1946 C 0.82395 0.83972 0.36844 0.0
C1947 C 0.79374 0.81487 0.38497 0.0
C1948 C 0.78413 0.79261 0.38803 0.0
C1949 C 0.81478 0.81754 0.37288 0.0
C1950 C 0.79633 0.77301 0.3799 0.0
C1951 C 0.81738 0.7755 0.36829 0.0
H1952 H 0.58078 0.49102 0.38454 0.0
H1953 H 0.50609 0.48679 0.38933 0.0
H1954 H 0.509 0.44885 0.40774 0.0
H1955 H 0.5326 0.41842 0.42548 0.0
H1956 H 0.60719 0.42337 0.42373 0.0
H1957 H 0.6046 0.45889 0.40039 0.0
C1958 C 0.56519 0.48164 0.38941 0.0
C1959 C 0.54329 0.49186 0.38595 0.0
C1960 C 0.56698 0.45987 0.40039 0.0
C1961 C 0.52319 0.47952 0.39227 0.0
C1962 C 0.5248 0.45775 0.40267 0.0
C1963 C 0.54825 0.42722 0.41977 0.0
C1964 C 0.56999 0.41855 0.4264 0.0
C1965 C 0.54658 0.44802 0.40729 0.0
C1966 C 0.59023 0.42972 0.41864 0.0
C1967 C 0.58875 0.45016 0.40555 0.0
H1968 H 0.2813 0.75988 0.65639 0.0
H1969 H 0.26298 0.68722 0.65218 0.0
H1970 H 0.29822 0.67689 0.67353 0.0
H1971 H 0.33377 0.6887 0.69442 0.0
H1972 H 0.3518 0.7613 0.69838 0.0
H1973 H 0.31705 0.77152 0.67614 0.0
C1974 C 0.28497 0.74176 0.66009 0.0
C1975 C 0.26943 0.72436 0.65274 0.0
C1976 C 0.3052 0.73596 0.67237 0.0
C1977 C 0.27459 0.70097 0.65765 0.0
C1978 C 0.29475 0.69505 0.66986 0.0
C1979 C 0.33015 0.7067 0.69014 0.0
C1980 C 0.34517 0.72427 0.69801 0.0
C1981 C 0.31012 0.71241 0.6774 0.0
C1982 C 0.34029 0.74756 0.69263 0.0
C1983 C 0.32049 0.75338 0.6799 0.0
H1984 H 0.98591 0.48677 0.64598 0.0
H1985 H 0.9486 0.52623 0.59415 0.0
H1986 H 0.94116 0.49064 0.57215 0.0
H1987 H 0.94751 0.44863 0.56632 0.0
H1988 H 0.98454 0.40922 0.61804 0.0
H1989 H 0.98995 0.4445 0.64152 0.0
C1990 C 0.97595 0.48759 0.62999 0.0
C1991 C 0.96797 0.50918 0.62164 0.0
C1992 C 0.97187 0.4671 0.61736 0.0
C1993 C 0.95495 0.50987 0.60098 0.0
C1994 C 0.95078 0.48954 0.58832 0.0
C1995 C 0.95657 0.44789 0.58285 0.0
C1996 C 0.96571 0.42665 0.59061 0.0
C1997 C 0.95951 0.46815 0.59613 0.0
C1998 C 0.97739 0.42554 0.61195 0.0
C1999 C 0.98049 0.44565 0.62526 0.0
H2000 H 0.07886 0.03179 0.64181 0.0
H2001 H 1.00427 0.03513 0.63482 0.0
H2002 H 1.00735 0.07235 0.61508 0.0
H2003 H 0.03109 0.10319 0.59813 0.0
H2004 H 0.10566 0.09913 0.60242 0.0
H2005 H 0.10276 0.06354 0.62553 0.0
C2006 C 0.06331 0.04075 0.63607 0.0
C2007 C 0.04141 0.03054 0.63958 0.0
C2008 C 0.06518 0.06217 0.62442 0.0
C2009 C 0.02139 0.04238 0.63205 0.0
C2010 C 0.02309 0.06377 0.62085 0.0
C2011 C 0.04668 0.0945 0.6042 0.0
C2012 C 0.06851 0.10366 0.59857 0.0
C2013 C 0.04487 0.07367 0.61667 0.0
C2014 C 0.08862 0.09254 0.60681 0.0
C2015 C 0.08697 0.07204 0.61979 0.0
H2016 H 0.70119 0.69335 0.8385 0.0
H2017 H 0.65617 0.65348 0.79401 0.0
H2018 H 0.63349 0.68854 0.7851 0.0
H2019 H 0.62907 0.731 0.78725 0.0
H2020 H 0.67479 0.77091 0.83141 0.0
H2021 H 0.69459 0.73535 0.84335 0.0
C2022 C 0.68608 0.69241 0.82725 0.0
C2023 C 0.68011 0.67116 0.81691 0.0
C2024 C 0.67353 0.71261 0.82199 0.0
C2025 C 0.66078 0.66981 0.80221 0.0
C2026 C 0.648 0.68981 0.79703 0.0
C2027 C 0.64322 0.73191 0.79966 0.0
C2028 C 0.65061 0.75361 0.80823 0.0
C2029 C 0.6546 0.7114 0.80637 0.0
C2030 C 0.66882 0.75446 0.82446 0.0
C2031 C 0.68019 0.73413 0.83129 0.0
H2032 H 0.92154 0.09726 0.49886 0.0
H2033 H 0.92756 0.1021 0.42427 0.0
H2034 H 0.96276 0.12559 0.42836 0.0
H2035 H 0.99415 0.14102 0.4533 0.0
H2036 H 0.98924 0.13266 0.52785 0.0
H2037 H 0.95167 0.11386 0.52364 0.0
C2038 C 0.93054 0.1036 0.48353 0.0
C2039 C 0.92219 0.09785 0.46135 0.0
C2040 C 0.95122 0.11608 0.48602 0.0
C2041 C 0.93361 0.10649 0.44156 0.0
C2042 C 0.95388 0.11966 0.4439 0.0
C2043 C 0.98474 0.13524 0.4686 0.0
C2044 C 0.99459 0.13801 0.49081 0.0
C2045 C 0.96323 0.12399 0.46605 0.0
C2046 C 0.9822 0.13046 0.51051 0.0
C2047 C 0.96065 0.11979 0.50816 0.0
H2048 H 0.34144 0.8403 0.8496 0.0
H2049 H 0.35506 0.86687 0.78088 0.0
H2050 H 0.3773 0.83185 0.77124 0.0
H2051 H 0.38917 0.79236 0.78101 0.0
H2052 H 0.37397 0.76437 0.84903 0.0
H2053 H 0.35602 0.80128 0.86042 0.0
C2054 C 0.34984 0.83852 0.83277 0.0
C2055 C 0.34692 0.85594 0.81594 0.0
C2056 C 0.36188 0.81801 0.82716 0.0
C2057 C 0.35737 0.85357 0.79403 0.0
C2058 C 0.36987 0.83354 0.78851 0.0
C2059 C 0.3821 0.79432 0.79841 0.0
C2060 C 0.38268 0.77554 0.81406 0.0
C2061 C 0.37164 0.8154 0.8047 0.0
C2062 C 0.37365 0.77851 0.83661 0.0
C2063 C 0.36337 0.79961 0.84313 0.0
H2064 H 0.0429 0.38602 0.49291 0.0
H2065 H 0.99867 0.4376 0.461 0.0
H2066 H 0.03275 0.45973 0.44893 0.0
H2067 H 0.07502 0.46568 0.44965 0.0
H2068 H 0.11921 0.41446 0.48164 0.0
H2069 H 0.08522 0.39069 0.4914 0.0
C2070 C 0.04071 0.40202 0.48317 0.0
C2071 C 0.01829 0.41026 0.47803 0.0
C2072 C 0.06034 0.41467 0.47636 0.0
C2073 C 0.01574 0.43091 0.46523 0.0
C2074 C 0.0352 0.4436 0.45837 0.0
C2075 C 0.07707 0.44915 0.45852 0.0
C2076 C 0.09929 0.44161 0.46498 0.0
C2077 C 0.05753 0.43583 0.46416 0.0
C2078 C 0.1021 0.42033 0.47646 0.0
C2079 C 0.08273 0.40688 0.4821 0.0
H2080 H 0.70869 0.33087 0.68959 0.0
H2081 H 0.65857 0.37202 0.72708 0.0
H2082 H 0.63512 0.33719 0.7345 0.0
H2083 H 0.63088 0.29478 0.73301 0.0
H2084 H 0.68134 0.25348 0.69566 0.0
H2085 H 0.70261 0.28868 0.68519 0.0
C2086 C 0.69242 0.3321 0.69906 0.0
C2087 C 0.68518 0.35367 0.70789 0.0
C2088 C 0.67928 0.31206 0.70336 0.0
C2089 C 0.66423 0.35542 0.72015 0.0
C2090 C 0.65097 0.33557 0.72445 0.0
C2091 C 0.64641 0.29347 0.72237 0.0
C2092 C 0.65466 0.27152 0.71534 0.0
C2093 C 0.65861 0.31373 0.71656 0.0
C2094 C 0.67465 0.27015 0.70137 0.0
C2095 C 0.68688 0.29026 0.69544 0.0
H2096 H 0.60899 0.08971 0.5291 0.0
H2097 H 0.60428 0.09679 0.60363 0.0
H2098 H 0.56963 0.12109 0.59956 0.0
H2099 H 0.53885 0.13756 0.5748 0.0
H2100 H 0.54277 0.12838 0.50028 0.0
H2101 H 0.57924 0.1074 0.50434 0.0
C2102 C 0.60035 0.09668 0.54439 0.0
C2103 C 0.60895 0.09145 0.56658 0.0
C2104 C 0.58012 0.10998 0.54193 0.0
C2105 C 0.59799 0.1008 0.58634 0.0
C2106 C 0.57808 0.11449 0.58403 0.0
C2107 C 0.5478 0.13113 0.55947 0.0
C2108 C 0.53796 0.1343 0.53733 0.0
C2109 C 0.56871 0.1188 0.56192 0.0
C2110 C 0.54977 0.12589 0.51759 0.0
C2111 C 0.5707 0.11395 0.51985 0.0
H2112 H 0.34933 0.26337 0.70288 0.0
H2113 H 0.40617 0.23917 0.74545 0.0
H2114 H 0.39326 0.19916 0.74066 0.0
H2115 H 0.36388 0.17117 0.72716 0.0
H2116 H 0.30642 0.19524 0.68582 0.0
H2117 H 0.32152 0.23505 0.68708 0.0
C2118 C 0.35906 0.24933 0.71084 0.0
C2119 C 0.37854 0.25432 0.72465 0.0
C2120 C 0.35135 0.22629 0.70831 0.0
C2121 C 0.39096 0.23587 0.73488 0.0
C2122 C 0.38361 0.21293 0.73217 0.0
C2123 C 0.35501 0.18516 0.71815 0.0
C2124 C 0.33423 0.1806 0.70642 0.0
C2125 C 0.36357 0.20797 0.71935 0.0
C2126 C 0.32256 0.19863 0.69489 0.0
C2127 C 0.33112 0.22132 0.6957 0.0
H2128 H 0.49376 0.3911 0.57282 0.0
H2129 H 0.49117 0.40182 0.49844 0.0
H2130 H 0.45577 0.42451 0.50264 0.0
H2131 H 0.42645 0.44281 0.52739 0.0
H2132 H 0.42937 0.4338 0.60177 0.0
H2133 H 0.46333 0.40843 0.59762 0.0
C2134 C 0.48535 0.39828 0.55754 0.0
C2135 C 0.49524 0.39495 0.53541 0.0
C2136 C 0.465 0.41153 0.56006 0.0
C2137 C 0.48411 0.40433 0.51574 0.0
C2138 C 0.4638 0.41727 0.51808 0.0
C2139 C 0.4346 0.43531 0.54266 0.0
C2140 C 0.42573 0.44026 0.56482 0.0
C2141 C 0.4543 0.42125 0.54015 0.0
C2142 C 0.43596 0.43007 0.5845 0.0
C2143 C 0.45544 0.41574 0.58214 0.0
H2144 H 0.82595 0.64222 0.74588 0.0
H2145 H 0.75122 0.64694 0.74211 0.0
H2146 H 0.75396 0.66835 0.70579 0.0
H2147 H 0.77744 0.68714 0.67569 0.0
H2148 H 0.85205 0.68334 0.67923 0.0
H2149 H 0.84955 0.65973 0.71458 0.0
C2150 C 0.81029 0.64783 0.73703 0.0
C2151 C 0.78844 0.64334 0.74697 0.0
C2152 C 0.81196 0.66019 0.71598 0.0
C2153 C 0.7683 0.65061 0.73519 0.0
C2154 C 0.7698 0.66275 0.71428 0.0
C2155 C 0.7931 0.68104 0.68423 0.0
C2156 C 0.81485 0.68692 0.67505 0.0
C2157 C 0.79152 0.66789 0.70468 0.0
C2158 C 0.83509 0.67876 0.68595 0.0
C2159 C 0.83367 0.66545 0.70624 0.0
H2160 H 0.93587 0.99887 0.60811 0.0
H2161 H 0.9251 0.92476 0.60644 0.0
H2162 H 0.90199 0.9286 0.57093 0.0
H2163 H 0.88765 0.95286 0.53854 0.0
H2164 H 0.90122 0.0267 0.53933 0.0
H2165 H 0.92084 0.02308 0.57662 0.0
C2166 C 0.92839 0.9836 0.59996 0.0
C2167 C 0.93219 0.96161 0.60974 0.0
C2168 C 0.91595 0.98586 0.57917 0.0
C2169 C 0.92213 0.94194 0.59934 0.0
C2170 C 0.90916 0.9441 0.5789 0.0
C2171 C 0.89478 0.96814 0.54697 0.0
C2172 C 0.89315 0.98995 0.53606 0.0
C2173 C 0.90637 0.96593 0.56838 0.0
C2174 C 0.90248 1.00963 0.54718 0.0
C2175 C 0.91363 1.00764 0.56858 0.0
H2176 H 0.24629 0.84038 0.6755 0.0
H2177 H 0.17195 0.84756 0.67986 0.0
H2178 H 0.17589 0.87182 0.71468 0.0
H2179 H 0.20055 0.88843 0.7456 0.0
H2180 H 0.27492 0.87976 0.74139 0.0
H2181 H 0.2709 0.85842 0.70509 0.0
C2182 C 0.23101 0.84737 0.68409 0.0
C2183 C 0.20892 0.8422 0.67536 0.0
C2184 C 0.2334 0.86077 0.7043 0.0
C2185 C 0.18917 0.85155 0.68627 0.0
C2186 C 0.1914 0.86522 0.70626 0.0
C2187 C 0.21585 0.88202 0.73663 0.0
C2188 C 0.23795 0.88537 0.74641 0.0
C2189 C 0.21343 0.86959 0.71569 0.0
C2190 C 0.25765 0.87704 0.73452 0.0
C2191 C 0.25541 0.86492 0.71366 0.0
H2192 H 0.09013 0.56697 0.51323 0.0
H2193 H 0.15225 0.53479 0.54027 0.0
H2194 H 0.13769 0.539 0.57987 0.0
H2195 H 0.10595 0.54905 0.60674 0.0
H2196 H 0.04355 0.58034 0.57987 0.0
H2197 H 0.05944 0.57925 0.54034 0.0
C2198 C 0.1006 0.56121 0.52781 0.0
C2199 C 0.12213 0.55046 0.52379 0.0
C2200 C 0.09196 0.5633 0.55058 0.0
C2201 C 0.13549 0.54297 0.54287 0.0
C2202 C 0.12719 0.54533 0.56555 0.0
C2203 C 0.09609 0.5559 0.5922 0.0
C2204 C 0.07373 0.56467 0.59593 0.0
C2205 C 0.10526 0.55502 0.56958 0.0
C2206 C 0.06083 0.57337 0.57713 0.0
C2207 C 0.06989 0.57277 0.55461 0.0
H2208 H 0.82863 0.38641 0.78196 0.0
H2209 H 0.75385 0.38241 0.78563 0.0
H2210 H 0.75632 0.36203 0.82259 0.0
H2211 H 0.77956 0.34355 0.85304 0.0
H2212 H 0.85422 0.3457 0.84903 0.0
H2213 H 0.85201 0.36917 0.81359 0.0
C2214 C 0.81291 0.3812 0.79094 0.0
C2215 C 0.79112 0.38561 0.78082 0.0
C2216 C 0.81441 0.3693 0.81227 0.0
C2217 C 0.77088 0.37882 0.79274 0.0
C2218 C 0.77223 0.36728 0.814 0.0
C2219 C 0.79531 0.34927 0.8444 0.0
C2220 C 0.81697 0.34291 0.85349 0.0
C2221 C 0.79388 0.36212 0.82374 0.0
C2222 C 0.83732 0.35065 0.84245 0.0
C2223 C 0.83606 0.36384 0.82206 0.0
H2224 H 0.59196 0.9672 0.51857 0.0
H2225 H 0.654 0.99606 0.48792 0.0
H2226 H 0.63745 0.9915 0.4491 0.0
H2227 H 0.6046 0.98082 0.42378 0.0
H2228 H 0.54221 0.95318 0.45437 0.0
H2229 H 0.55948 0.95582 0.49324 0.0
C2230 C 0.60195 0.97225 0.50338 0.0
C2231 C 0.62418 0.98193 0.50616 0.0
C2232 C 0.59216 0.96998 0.48109 0.0
C2233 C 0.63681 0.98861 0.48629 0.0
C2234 C 0.62736 0.98604 0.46406 0.0
C2235 C 0.59496 0.97525 0.43901 0.0
C2236 C 0.57228 0.96684 0.43643 0.0
C2237 C 0.60496 0.97701 0.46125 0.0
C2238 C 0.55972 0.95981 0.45615 0.0
C2239 C 0.56959 0.96127 0.4783 0.0
H2240 H 0.24799 0.1862 0.85406 0.0
H2241 H 0.17473 0.19725 0.84403 0.0
H2242 H 0.17596 0.17481 0.80773 0.0
H2243 H 0.19853 0.15369 0.77788 0.0
H2244 H 0.27194 0.14259 0.78876 0.0
H2245 H 0.27001 0.16341 0.8255 0.0
C2246 C 0.23235 0.18356 0.84388 0.0
C2247 C 0.21139 0.19336 0.85138 0.0
C2248 C 0.23324 0.17078 0.82311 0.0
C2249 C 0.19107 0.18973 0.83841 0.0
C2250 C 0.19179 0.17703 0.81767 0.0
C2251 C 0.21405 0.15572 0.78836 0.0
C2252 C 0.23537 0.14684 0.78035 0.0
C2253 C 0.21287 0.1677 0.80968 0.0
C2254 C 0.25531 0.14949 0.79427 0.0
C2255 C 0.25427 0.16137 0.81537 0.0
H2256 H 0.39496 0.52196 0.48479 0.0
H2257 H 0.39427 0.59379 0.50657 0.0
H2258 H 0.41286 0.60516 0.46991 0.0
H2259 H 0.43233 0.59394 0.43316 0.0
H2260 H 0.43271 0.52201 0.41204 0.0
H2261 H 0.41077 0.51135 0.44686 0.0
C2262 C 0.39883 0.54013 0.48152 0.0
C2263 C 0.39366 0.55698 0.49846 0.0
C2264 C 0.4093 0.54648 0.4605 0.0
C2265 C 0.3983 0.58049 0.49381 0.0
C2266 C 0.40889 0.58699 0.47288 0.0
C2267 C 0.42703 0.57607 0.436 0.0
C2268 C 0.4341 0.55869 0.42035 0.0
C2269 C 0.41481 0.57006 0.45627 0.0
C2270 C 0.42744 0.53555 0.42408 0.0
C2271 C 0.41506 0.52947 0.44399 0.0
H2272 H 0.68698 0.83692 0.69205 0.0
H2273 H 0.66702 0.76479 0.68935 0.0
H2274 H 0.70218 0.75545 0.66721 0.0
H2275 H 0.73917 0.76756 0.65028 0.0
H2276 H 0.7597 0.83969 0.65322 0.0
H2277 H 0.72363 0.84936 0.67359 0.0
C2278 C 0.69027 0.81925 0.68629 0.0
C2279 C 0.67466 0.80149 0.69228 0.0
C2280 C 0.71061 0.81404 0.67383 0.0
C2281 C 0.67901 0.77862 0.68498 0.0
C2282 C 0.69906 0.77332 0.67239 0.0
C2283 C 0.73579 0.78543 0.6553 0.0
C2284 C 0.75218 0.80286 0.65032 0.0
C2285 C 0.71512 0.79083 0.66702 0.0
C2286 C 0.7474 0.82593 0.65687 0.0
C2287 C 0.72679 0.83148 0.66852 0.0
H2288 H 0.73945 0.26436 0.87382 0.0
H2289 H 0.75343 0.19108 0.88233 0.0
H2290 H 0.71792 0.18166 0.86104 0.0
H2291 H 0.68375 0.19434 0.83854 0.0
H2292 H 0.6699 0.26752 0.83031 0.0
H2293 H 0.7046 0.27696 0.853 0.0
C2294 C 0.73475 0.24631 0.87109 0.0
C2295 C 0.74917 0.22845 0.87954 0.0
C2296 C 0.71437 0.24103 0.85885 0.0
C2297 C 0.74269 0.20517 0.87596 0.0
C2298 C 0.72239 0.19976 0.86378 0.0
C2299 C 0.68822 0.21232 0.84204 0.0
C2300 C 0.67451 0.23026 0.83275 0.0
C2301 C 0.7082 0.21756 0.855 0.0
C2302 C 0.68045 0.2535 0.83715 0.0
C2303 C 0.70022 0.25887 0.85011 0.0
H2304 H 0.49131 0.0428 0.38298 0.0
H2305 H 0.43422 1.00882 0.41779 0.0
H2306 H 0.42355 0.04553 0.43654 0.0
H2307 H 0.43299 0.08637 0.44597 0.0
H2308 H 0.49145 0.1192 0.41286 0.0
H2309 H 0.49895 0.0839 0.3901 0.0
C2310 C 0.47638 0.04341 0.39449 0.0
C2311 C 0.46372 0.02304 0.39918 0.0
C2312 C 0.47061 0.06439 0.40543 0.0
C2313 C 0.44431 0.02422 0.41397 0.0
C2314 C 0.43823 0.04519 0.42472 0.0
C2315 C 0.44697 0.08581 0.43331 0.0
C2316 C 0.46158 0.10512 0.4307 0.0
C2317 C 0.45156 0.06525 0.42096 0.0
C2318 C 0.47996 0.10442 0.41475 0.0
C2319 C 0.4843 0.08426 0.40195 0.0
H2320 H 0.32694 0.32786 0.80985 0.0
H2321 H 0.36992 0.29497 0.86151 0.0
H2322 H 0.33551 0.28647 0.88529 0.0
H2323 H 0.29311 0.28727 0.89045 0.0
H2324 H 0.25025 0.32096 0.83885 0.0
H2325 H 0.2847 0.33046 0.81601 0.0
C2326 C 0.32864 0.31894 0.8264 0.0
C2327 C 0.35066 0.31192 0.83407 0.0
C2328 C 0.30887 0.31428 0.83989 0.0
C2329 C 0.35298 0.30048 0.85546 0.0
C2330 C 0.33336 0.29562 0.86895 0.0
C2331 C 0.2913 0.29681 0.87428 0.0
C2332 C 0.2691 0.30329 0.86633 0.0
C2333 C 0.3112 0.30227 0.86123 0.0
C2334 C 0.26711 0.31577 0.8454 0.0
C2335 C 0.28679 0.32116 0.83227 0.0
H2336 H 0.03507 0.98572 0.89005 0.0
H2337 H 0.06823 0.02778 0.94269 0.0
H2338 H 0.07802 0.9929 0.96475 0.0
H2339 H 0.07554 0.95054 0.97006 0.0
H2340 H 0.04307 0.90832 0.91747 0.0
H2341 H 0.03465 0.94314 0.89423 0.0
C2342 C 0.04454 0.98725 0.90629 0.0
C2343 C 0.05077 1.00933 0.91479 0.0
C2344 C 0.05018 0.96711 0.91886 0.0
C2345 C 0.06321 1.01101 0.93576 0.0
C2346 C 0.06878 0.99108 0.94842 0.0
C2347 C 0.06682 0.9491 0.95339 0.0
C2348 C 0.05983 0.92721 0.9453 0.0
C2349 C 0.06212 0.9691 0.94028 0.0
C2350 C 0.04857 0.92519 0.9238 0.0
C2351 C 0.04373 0.94503 0.91064 0.0
H2352 H 0.79207 0.23983 0.13396 0.0
H2353 H 0.75246 0.20252 0.18569 0.0
H2354 H 0.78811 0.19351 0.20686 0.0
H2355 H 0.83032 0.19815 0.21184 0.0
H2356 H 0.86991 0.23518 0.16022 0.0
H2357 H 0.83444 0.24244 0.13768 0.0
C2358 C 0.79122 0.22956 0.14977 0.0
C2359 C 0.7696 0.22199 0.15831 0.0
C2360 C 0.81175 0.22454 0.16188 0.0
C2361 C 0.76885 0.20858 0.17873 0.0
C2362 C 0.78922 0.20349 0.1909 0.0
C2363 C 0.83105 0.20766 0.19555 0.0
C2364 C 0.8524 0.21624 0.18755 0.0
C2365 C 0.81069 0.21168 0.18282 0.0
C2366 C 0.85349 0.22845 0.1665 0.0
C2367 C 0.83328 0.23262 0.15373 0.0
H2368 H 0.44265 0.94756 0.06928 0.0
H2369 H 0.48046 0.90583 0.11856 0.0
H2370 H 0.4897 0.94066 0.14145 0.0
H2371 H 0.49016 0.9832 0.14495 0.0
H2372 H 0.45299 0.02501 0.09488 0.0
H2373 H 0.4402 0.9899 0.07474 0.0
C2374 C 0.45252 0.9462 0.08531 0.0
C2375 C 0.46094 0.92447 0.09242 0.0
C2376 C 0.45808 0.96625 0.09796 0.0
C2377 C 0.47377 0.92255 0.11303 0.0
C2378 C 0.47916 0.94242 0.12593 0.0
C2379 C 0.47909 0.98464 0.12975 0.0
C2380 C 0.47278 1.00669 0.12124 0.0
C2381 C 0.47193 0.96441 0.11819 0.0
C2382 C 0.45821 1.00825 0.1017 0.0
C2383 C 0.45091 0.9882 0.09015 0.0
H2384 H 0.59076 0.57694 0.07588 0.0
H2385 H 0.54871 0.61608 0.12402 0.0
H2386 H 0.54213 0.58096 0.14731 0.0
H2387 H 0.545 0.53866 0.15125 0.0
H2388 H 0.58615 0.49916 0.10227 0.0
H2389 H 0.59675 0.53499 0.08205 0.0
C2390 C 0.58055 0.5777 0.09175 0.0
C2391 C 0.57015 0.59874 0.09842 0.0
C2392 C 0.57655 0.55745 0.10464 0.0
C2393 C 0.5569 0.59991 0.11883 0.0
C2394 C 0.55305 0.57987 0.13197 0.0
C2395 C 0.5565 0.53788 0.1363 0.0
C2396 C 0.56452 0.51626 0.12805 0.0
C2397 C 0.56226 0.55845 0.12464 0.0
C2398 C 0.57965 0.51558 0.10888 0.0
C2399 C 0.58565 0.53603 0.09727 0.0
H2400 H 0.06252 0.25849 0.24058 0.0
H2401 H 0.02366 0.32251 0.24472 0.0
H2402 H 0.9872 0.3004 0.24432 0.0
H2403 H 0.96658 0.2627 0.24448 0.0
H2404 H 1.00556 0.19895 0.23767 0.0
H2405 H 0.04189 0.22115 0.2374 0.0
C2406 C 0.04605 0.26764 0.24131 0.0
C2407 C 0.0458 0.29215 0.24297 0.0
C2408 C 0.02526 0.25483 0.2407 0.0
C2409 C 0.02434 0.30373 0.24345 0.0
C2410 C 1.00352 0.29105 0.24333 0.0
C2411 C 0.98305 0.25365 0.24292 0.0
C2412 C 0.98339 0.22912 0.24144 0.0
C2413 C 1.0038 0.26659 0.24226 0.0
C2414 C 1.00481 0.21773 0.23892 0.0
C2415 C 0.02557 0.23044 0.23881 0.0
H2416 H 0.56163 0.75017 0.03953 0.0
H2417 H 0.50688 0.69909 0.04006 0.0
H2418 H 0.47766 0.72973 0.04084 0.0
H2419 H 0.46717 0.77142 0.03962 0.0
H2420 H 0.5219 0.82239 0.03614 0.0
H2421 H 0.55114 0.79185 0.03834 0.0
C2422 C 0.54332 0.74581 0.04001 0.0
C2423 C 0.53656 0.72234 0.03968 0.0
C2424 C 0.52638 0.76363 0.03981 0.0
C2425 C 0.51267 0.71702 0.0401 0.0
C2426 C 0.49585 0.73455 0.04059 0.0
C2427 C 0.48548 0.77579 0.03952 0.0
C2428 C 0.49222 0.79919 0.03763 0.0
C2429 C 0.50242 0.75798 0.04017 0.0
C2430 C 0.51612 0.80451 0.03734 0.0
C2431 C 0.53295 0.78703 0.03866 0.0
H2432 H 1.00464 0.81446 0.29006 0.0
H2433 H 0.95428 0.75937 0.28348 0.0
H2434 H 0.98495 0.73032 0.28519 0.0
H2435 H 0.02661 0.72009 0.28652 0.0
H2436 H 0.07714 0.77518 0.29047 0.0
H2437 H 0.04629 0.80419 0.29202 0.0
C2438 C 1.00041 0.79611 0.28917 0.0
C2439 C 0.97713 0.78927 0.28649 0.0
C2440 C 0.01831 0.77925 0.28965 0.0
C2441 C 0.97204 0.7653 0.28527 0.0
C2442 C 0.9896 0.74854 0.28631 0.0
C2443 C 0.0308 0.73841 0.288 0.0
C2444 C 0.05417 0.74537 0.28834 0.0
C2445 C 1.01287 0.75524 0.28821 0.0
C2446 C 0.05928 0.76929 0.29001 0.0
C2447 C 0.04163 0.78597 0.2909 0.0
H2448 H 0.01611 0.71651 0.99425 0.0
H2449 H 0.95224 0.75541 0.98928 0.0
H2450 H 0.9742 0.79192 0.99076 0.0
H2451 H 1.01145 0.8127 0.99502 0.0
H2452 H 0.07553 0.77389 0.9971 0.0
H2453 H 0.05362 0.73735 0.99505 0.0
C2454 C 1.00697 0.733 0.99342 0.0
C2455 C 0.98246 0.73322 0.99196 0.0
C2456 C 0.01978 0.75388 0.9938 0.0
C2457 C 0.97099 0.75472 0.99046 0.0
C2458 C 0.98358 0.77558 0.99138 0.0
C2459 C 0.02066 0.79623 0.99496 0.0
C2460 C 0.04515 0.79603 0.99653 0.0
C2461 C 1.00794 0.77537 0.9933 0.0
C2462 C 0.05677 0.77456 0.99597 0.0
C2463 C 0.04421 0.75368 0.99487 0.0
H2464 H 0.2486 0.96444 0.26969 0.0
H2465 H 0.24549 1.00353 0.20572 0.0
H2466 H 0.24372 0.03988 0.2281 0.0
H2467 H 0.24446 0.06045 0.26583 0.0
H2468 H 0.24553 0.02108 0.32973 0.0
H2469 H 0.2466 0.9848 0.30732 0.0
C2470 C 0.24753 0.98091 0.26058 0.0
C2471 C 0.2475 0.98126 0.23598 0.0
C2472 C 0.24618 1.00163 0.27357 0.0
C2473 C 0.24562 1.00274 0.22455 0.0
C2474 C 0.24467 0.02352 0.23738 0.0
C2475 C 0.24491 0.04393 0.2749 0.0
C2476 C 0.24521 0.04352 0.29951 0.0
C2477 C 0.24518 0.02316 0.26188 0.0
C2478 C 0.24534 0.02194 0.31089 0.0
C2479 C 0.24602 1.0012 0.29806 0.0
H2480 H 0.30791 0.53466 0.01991 0.0
H2481 H 0.26857 0.53799 0.95612 0.0
H2482 H 0.23235 0.53897 0.97859 0.0
H2483 H 0.21195 0.53753 0.01628 0.0
H2484 H 0.25136 0.53628 0.08011 0.0
H2485 H 0.28759 0.53599 0.05765 0.0
C2486 C 0.29141 0.5356 1.01088 0.0
C2487 C 0.29096 0.53594 0.98628 0.0
C2488 C 0.27073 0.53654 0.02393 0.0
C2489 C 0.26944 0.53763 0.97495 0.0
C2490 C 0.24874 0.53814 0.98782 0.0
C2491 C 0.22847 0.53723 0.02533 0.0
C2492 C 0.22891 0.53665 0.04992 0.0
C2493 C 0.24918 0.53738 1.01229 0.0
C2494 C 0.25048 0.5367 0.06128 0.0
C2495 C 0.27119 0.53645 0.04842 0.0
H2496 H 0.78703 0.55996 0.26525 0.0
H2497 H 0.78477 0.52104 0.20107 0.0
H2498 H 0.78431 0.48455 0.2231 0.0
H2499 H 0.78341 0.46377 0.26065 0.0
H2500 H 0.78886 0.50244 0.32476 0.0
H2501 H 0.78938 0.53898 0.30275 0.0
C2502 C 0.78645 0.54347 0.25608 0.0
C2503 C 0.78563 0.54324 0.2315 0.0
C2504 C 0.78679 0.52255 0.26887 0.0
C2505 C 0.78535 0.52173 0.21991 0.0
C2506 C 0.78503 0.50087 0.23253 0.0
C2507 C 0.78478 0.48021 0.26982 0.0
C2508 C 0.78583 0.48038 0.29439 0.0
C2509 C 0.78557 0.50108 0.25701 0.0
C2510 C 0.78801 0.5018 0.30593 0.0
C2511 C 0.78822 0.52269 0.29333 0.0
H2512 H 0.80844 0.99302 1.01025 0.0
H2513 H 0.76861 0.99174 0.07384 0.0
H2514 H 0.73249 0.99356 0.05123 0.0
H2515 H 0.71238 0.99677 1.01329 0.0
H2516 H 0.75238 0.99507 0.94979 0.0
H2517 H 0.78835 0.99311 0.97244 0.0
C2518 C 0.79184 0.99311 0.01919 0.0
C2519 C 0.79123 0.99255 0.04375 0.0
C2520 C 0.77122 0.99367 1.00606 0.0
C2521 C 0.76958 0.9922 0.05501 0.0
C2522 C 0.74894 0.99332 0.04206 0.0
C2523 C 0.72899 0.99596 1.00441 0.0
C2524 C 0.7297 0.99637 0.97982 0.0
C2525 C 0.74957 0.99428 0.01758 0.0
C2526 C 0.75133 0.99484 0.96861 0.0
C2527 C 0.77189 0.99377 0.98159 0.0
H2528 H 0.26911 0.24899 0.96638 0.0
H2529 H 0.20488 0.24806 1.00503 0.0
H2530 H 0.2266 0.2476 0.04167 0.0
H2531 H 0.26384 0.24833 0.06271 0.0
H2532 H 0.32813 0.24608 0.02425 0.0
H2533 H 0.30645 0.24676 0.98751 0.0
C2534 C 0.25987 0.24869 0.98284 0.0
C2535 C 0.23537 0.24884 0.98298 0.0
C2536 C 0.27251 0.24783 1.00383 0.0
C2537 C 0.22368 0.248 1.00443 0.0
C2538 C 0.23611 0.24778 0.02538 0.0
C2539 C 0.27312 0.24797 0.04628 0.0
C2540 C 0.29761 0.24743 0.04622 0.0
C2541 C 0.26052 0.24784 0.02529 0.0
C2542 C 0.30934 0.24652 0.02479 0.0
C2543 C 0.29693 0.24699 1.00379 0.0
H2544 H 0.26078 0.7781 0.4695 0.0
H2545 H 0.32385 0.78249 0.50965 0.0
H2546 H 0.30105 0.78276 0.54578 0.0
H2547 H 0.26312 0.78105 0.56587 0.0
H2548 H 0.20005 0.78005 0.52545 0.0
H2549 H 0.22289 0.77921 0.48943 0.0
C2550 C 0.26955 0.77908 0.48618 0.0
C2551 C 0.29402 0.77995 0.48692 0.0
C2552 C 0.2563 0.77983 0.50677 0.0
C2553 C 0.30508 0.78173 0.50862 0.0
C2554 C 0.29203 0.78183 0.52925 0.0
C2555 C 0.25438 0.78063 0.54915 0.0
C2556 C 0.22988 0.78032 0.54834 0.0
C2557 C 0.26764 0.78076 0.52853 0.0
C2558 C 0.21883 0.78024 0.52656 0.0
C2559 C 0.2319 0.77971 0.50598 0.0
H2560 H 0.02883 0.51529 0.81259 0.0
H2561 H 0.02833 0.45127 0.77343 0.0
H2562 H 0.02732 0.47332 0.73696 0.0
H2563 H 0.02589 0.51079 0.71631 0.0
H2564 H 0.02983 0.57484 0.7552 0.0
H2565 H 0.03032 0.55283 0.79177 0.0
C2566 C 0.02846 0.50619 0.79605 0.0
C2567 C 0.02834 0.48166 0.79568 0.0
C2568 C 0.02854 0.51899 0.77518 0.0
C2569 C 0.02836 0.47009 0.77415 0.0
C2570 C 0.02774 0.48271 0.75333 0.0
C2571 C 0.02685 0.51994 0.73281 0.0
C2572 C 0.02753 0.54444 0.7331 0.0
C2573 C 0.02771 0.50715 0.75365 0.0
C2574 C 0.02925 0.55602 0.75455 0.0
C2575 C 0.02946 0.54343 0.77543 0.0
H2576 H 0.76451 0.744 0.46678 0.0
H2577 H 0.70021 0.7458 0.50529 0.0
H2578 H 0.72201 0.74692 0.54198 0.0
H2579 H 0.75951 0.74848 0.56296 0.0
H2580 H 0.82354 0.7441 0.52414 0.0
H2581 H 0.80167 0.74298 0.48765 0.0
C2582 C 0.75521 0.74459 0.48321 0.0
C2583 C 0.73071 0.74505 0.48328 0.0
C2584 C 0.76785 0.7449 0.50413 0.0
C2585 C 0.719 0.74542 0.50473 0.0
C2586 C 0.73149 0.74617 0.52569 0.0
C2587 C 0.76868 0.74735 0.54649 0.0
C2588 C 0.79319 0.74668 0.54626 0.0
C2589 C 0.75593 0.74614 0.52559 0.0
C2590 C 0.80476 0.74473 0.52482 0.0
C2591 C 0.79224 0.7441 0.50395 0.0
H2592 H 0.50118 0.51747 0.21663 0.0
H2593 H 0.49169 0.45439 0.25606 0.0
H2594 H 0.48982 0.47709 0.29216 0.0
H2595 H 0.49245 0.5146 0.31247 0.0
H2596 H 0.49939 0.57803 0.27312 0.0
H2597 H 0.50047 0.55544 0.23679 0.0
C2598 C 0.49869 0.5087 0.23314 0.0
C2599 C 0.49692 0.48422 0.23375 0.0
C2600 C 0.49715 0.52191 0.25371 0.0
C2601 C 0.49319 0.47314 0.25517 0.0
C2602 C 0.49217 0.48612 0.27578 0.0
C2603 C 0.49413 0.52351 0.29591 0.0
C2604 C 0.49617 0.54794 0.29544 0.0
C2605 C 0.49437 0.51046 0.27525 0.0
C2606 C 0.49785 0.55927 0.2739 0.0
C2607 C 0.49856 0.54634 0.25319 0.0
H2608 H 0.99611 1.01216 0.81635 0.0
H2609 H 0.99807 0.0756 0.77643 0.0
H2610 H 0.99699 0.05296 0.74022 0.0
H2611 H 0.99652 0.01504 0.72 0.0
H2612 H 0.99185 0.95181 0.76006 0.0
H2613 H 0.99294 0.97448 0.79619 0.0
C2614 C 0.99629 0.02107 0.79971 0.0
C2615 C 0.99745 0.04559 0.7991 0.0
C2616 C 0.99523 1.00795 0.77904 0.0
C2617 C 0.99722 0.05681 0.77741 0.0
C2618 C 0.99667 0.04384 0.75672 0.0
C2619 C 0.99577 1.0062 0.73665 0.0
C2620 C 0.99441 0.98168 0.73732 0.0
C2621 C 0.99588 0.0194 0.75733 0.0
C2622 C 0.99297 0.97058 0.75903 0.0
C2623 C 0.99363 0.98356 0.77969 0.0
H2624 H 0.46312 0.76679 0.7483 0.0
H2625 H 0.49978 0.70165 0.74194 0.0
H2626 H 0.53686 0.72254 0.74078 0.0
H2627 H 0.55888 0.75923 0.74331 0.0
H2628 H 0.52225 0.82457 0.74666 0.0
H2629 H 0.48505 0.80375 0.74707 0.0
C2630 C 0.47925 0.75716 0.74659 0.0
C2631 C 0.47871 0.73262 0.74553 0.0
C2632 C 0.50044 0.76935 0.7454 0.0
C2633 C 0.4997 0.72047 0.74285 0.0
C2634 C 0.52089 0.73243 0.74226 0.0
C2635 C 0.54273 0.76894 0.74401 0.0
C2636 C 0.54333 0.79346 0.74525 0.0
C2637 C 0.52148 0.75684 0.74378 0.0
C2638 C 0.52228 0.80576 0.74572 0.0
C2639 C 0.50103 0.79382 0.74606 0.0
H2640 H 0.01972 0.31202 0.53555 0.0
H2641 H 0.95537 0.27382 0.53861 0.0
H2642 H 0.97708 0.23714 0.53944 0.0
H2643 H 0.01429 0.21594 0.53804 0.0
H2644 H 0.0787 0.25413 0.53749 0.0
H2645 H 0.05701 0.29086 0.53702 0.0
C2646 C 1.01041 0.29566 0.53643 0.0
C2647 C 0.98587 0.29569 0.53674 0.0
C2648 C 0.02304 0.27467 0.53731 0.0
C2649 C 0.97417 0.27434 0.53831 0.0
C2650 C 0.9866 0.25336 0.53871 0.0
C2651 C 0.02363 0.2323 0.53783 0.0
C2652 C 0.04816 0.23225 0.5375 0.0
C2653 C 1.01102 0.25332 0.538 0.0
C2654 C 0.0599 0.25363 0.53769 0.0
C2655 C 0.04748 0.27463 0.53736 0.0
H2656 H 0.46529 0.26813 0.77981 0.0
H2657 H 0.50391 0.33229 0.77984 0.0
H2658 H 0.54048 0.31027 0.77902 0.0
H2659 H 0.56134 0.27262 0.77703 0.0
H2660 H 0.52257 0.20861 0.78043 0.0
H2661 H 0.48612 0.23068 0.7812 0.0
C2662 C 0.48173 0.27731 0.7797 0.0
C2663 C 0.48188 0.30186 0.7796 0.0
C2664 C 0.5026 0.26452 0.77976 0.0
C2665 C 0.50331 0.31347 0.77991 0.0
C2666 C 0.52419 0.30085 0.77934 0.0
C2667 C 0.54488 0.26351 0.77793 0.0
C2668 C 0.54464 0.23895 0.77833 0.0
C2669 C 0.52404 0.27637 0.77903 0.0
C2670 C 0.52323 0.22743 0.78002 0.0
C2671 C 0.5024 0.24007 0.78042 0.0
H2672 H 0.51221 0.31071 0.49268 0.0
H2673 H 0.57641 0.27193 0.4913 0.0
H2674 H 0.55454 0.23544 0.49167 0.0
H2675 H 0.51733 0.21467 0.49322 0.0
H2676 H 0.45301 0.25323 0.49253 0.0
H2677 H 0.47485 0.28983 0.492 0.0
C2678 C 0.52147 0.29428 0.49249 0.0
C2679 C 0.546 0.29408 0.49224 0.0
C2680 C 0.50875 0.27339 0.49232 0.0
C2681 C 0.55762 0.27261 0.49156 0.0
C2682 C 0.54509 0.25175 0.49181 0.0
C2683 C 0.50802 0.23108 0.49299 0.0
C2684 C 0.48349 0.23119 0.4932 0.0
C2685 C 0.52068 0.25195 0.49234 0.0
C2686 C 0.4718 0.25262 0.49243 0.0
C2687 C 0.48431 0.27353 0.49219 0.0
H2688 H 0.7415 0.56158 0.76219 0.0
H2689 H 0.74065 0.52104 0.8253 0.0
H2690 H 0.74131 0.48511 0.80225 0.0
H2691 H 0.743 0.46529 0.76415 0.0
H2692 H 0.74086 0.5058 0.70104 0.0
H2693 H 0.74041 0.54172 0.72409 0.0
C2694 C 0.74147 0.54487 0.77092 0.0
C2695 C 0.74132 0.54401 0.7955 0.0
C2696 C 0.74132 0.52432 0.75753 0.0
C2697 C 0.74082 0.52222 0.80648 0.0
C2698 C 0.74125 0.50168 0.79328 0.0
C2699 C 0.74244 0.482 0.75541 0.0
C2700 C 0.74225 0.48285 0.73084 0.0
C2701 C 0.74166 0.50253 0.76881 0.0
C2702 C 0.74107 0.50463 0.71986 0.0
C2703 C 0.74087 0.52516 0.73306 0.0
H2704 H 0.71849 0.02901 0.51427 0.0
H2705 H 0.75859 0.03432 0.57744 0.0
H2706 H 0.79448 0.03545 0.55453 0.0
H2707 H 0.81446 0.03424 0.51667 0.0
H2708 H 0.77447 0.03166 0.45326 0.0
H2709 H 0.73847 0.03033 0.47614 0.0
C2710 C 0.7351 0.03035 0.52305 0.0
C2711 C 0.73585 0.03127 0.54764 0.0
C2712 C 0.75563 0.03155 0.5097 0.0
C2713 C 0.75749 0.0335 0.55864 0.0
C2714 C 0.77801 0.03412 0.54551 0.0
C2715 C 0.79787 0.03339 0.50779 0.0
C2716 C 0.79721 0.03278 0.4832 0.0
C2717 C 0.77729 0.03305 0.52106 0.0
C2718 C 0.77552 0.03212 0.47208 0.0
C2719 C 0.75494 0.03127 0.4852 0.0
H2720 H 0.2893 0.96481 0.76517 0.0
H2721 H 0.28428 1.00435 0.82882 0.0
H2722 H 0.2848 0.04063 0.80635 0.0
H2723 H 0.28526 0.06096 0.76845 0.0
H2724 H 0.29292 0.02133 0.70509 0.0
H2725 H 0.2929 0.98517 0.72763 0.0
C2726 C 0.28835 0.98138 0.77417 0.0
C2727 C 0.28644 0.98185 0.79868 0.0
C2728 C 0.28911 1.0021 0.76115 0.0
C2729 C 0.2857 1.00347 0.81004 0.0
C2730 C 0.28593 0.0242 0.79716 0.0
C2731 C 0.28697 0.0444 0.75955 0.0
C2732 C 0.28881 0.04386 0.73502 0.0
C2733 C 0.28739 0.02371 0.77269 0.0
C2734 C 0.29145 0.02228 0.72387 0.0
C2735 C 0.29136 1.0016 0.73677 0.0
H2736 H 0.27428 0.49092 0.55724 0.0
H2737 H 0.3254 0.49353 0.5024 0.0
H2738 H 0.29501 0.49144 0.47306 0.0
H2739 H 0.25336 0.49169 0.46252 0.0
H2740 H 0.20231 0.49149 0.51746 0.0
H2741 H 0.23278 0.48961 0.54672 0.0
C2742 C 0.27872 0.49075 0.53889 0.0
C2743 C 0.30209 0.49256 0.53215 0.0
C2744 C 0.26102 0.4901 0.52189 0.0
C2745 C 0.30752 0.49244 0.50819 0.0
C2746 C 0.29013 0.4912 0.49129 0.0
C2747 C 0.24899 0.49092 0.48087 0.0
C2748 C 0.2256 0.49188 0.48772 0.0
C2749 C 0.26674 0.49046 0.49786 0.0
C2750 C 0.22021 0.49103 0.51166 0.0
C2751 C 0.23764 0.48994 0.52849 0.0
H2752 H 0.76758 0.27685 0.06172 0.0
H2753 H 0.70304 0.28367 0.02431 0.0
H2754 H 0.72433 0.28434 0.98733 0.0
H2755 H 0.76128 0.28228 0.96563 0.0
H2756 H 0.82598 0.27859 1.0032 0.0
H2757 H 0.80467 0.27751 0.04015 0.0
C2758 C 0.75816 0.27845 0.04545 0.0
C2759 C 0.73368 0.27991 0.04576 0.0
C2760 C 0.77057 0.27941 0.02433 0.0
C2761 C 0.72181 0.28245 0.02457 0.0
C2762 C 0.734 0.28279 1.00343 0.0
C2763 C 0.77073 0.28123 0.98192 0.0
C2764 C 0.79523 0.28024 0.98163 0.0
C2765 C 0.75837 0.28116 1.00309 0.0
C2766 C 0.80718 0.27933 1.00291 0.0
C2767 C 0.79498 0.27866 0.02403 0.0
H2768 H 0.52896 0.01753 0.31264 0.0
H2769 H 0.53571 0.95217 0.27636 0.0
H2770 H 0.53744 0.97282 0.23909 0.0
H2771 H 0.53537 1.00937 0.21676 0.0
H2772 H 0.53155 0.07492 0.2531 0.0
H2773 H 0.53053 0.05433 0.29048 0.0
C2774 C 0.53088 1.00781 0.29656 0.0
C2775 C 0.53189 0.98329 0.29724 0.0
C2776 C 0.53238 0.01986 0.27526 0.0
C2777 C 0.53483 0.97099 0.27632 0.0
C2778 C 0.53576 0.98281 0.25501 0.0
C2779 C 0.53442 0.01917 0.23289 0.0
C2780 C 0.53325 0.04368 0.23215 0.0
C2781 C 0.53429 1.00721 0.25426 0.0
C2782 C 0.53245 0.0561 0.25318 0.0
C2783 C 0.53177 0.04431 0.27454 0.0
H2784 H 0.15511 0.48955 0.15237 0.0
H2785 H 0.13829 0.45468 0.0879 0.0
H2786 H 0.12036 0.42303 0.10945 0.0
H2787 H 0.10784 0.40586 0.14636 0.0
H2788 H 0.12445 0.44002 0.21103 0.0
H2789 H 0.14407 0.47124 0.1897 0.0
C2790 C 0.1478 0.4749 0.14303 0.0
C2791 C 0.14803 0.47465 0.11847 0.0
C2792 C 0.13728 0.45666 0.15557 0.0
C2793 C 0.13834 0.45548 0.10674 0.0
C2794 C 0.12799 0.43734 0.11905 0.0
C2795 C 0.11574 0.42017 0.15578 0.0
C2796 C 0.11473 0.42064 0.18022 0.0
C2797 C 0.12703 0.43792 0.14342 0.0
C2798 C 0.12523 0.43914 0.19222 0.0
C2799 C 0.13637 0.45702 0.18001 0.0
H2800 H 0.71169 0.64302 0.18092 0.0
H2801 H 0.74848 0.61011 0.12423 0.0
H2802 H 0.7213 0.62719 0.09639 0.0
H2803 H 0.68791 0.65288 0.08796 0.0
H2804 H 0.65158 0.68568 0.145 0.0
H2805 H 0.6781 0.66773 0.17265 0.0
C2806 C 0.7137 0.63933 0.1625 0.0
C2807 C 0.73215 0.62515 0.15481 0.0
C2808 C 0.69822 0.64949 0.14652 0.0
C2809 C 0.73444 0.62084 0.13078 0.0
C2810 C 0.71893 0.63071 0.11478 0.0
C2811 C 0.68551 0.65579 0.10643 0.0
C2812 C 0.66747 0.67045 0.11428 0.0
C2813 C 0.70085 0.64525 0.12242 0.0
C2814 C 0.66528 0.67459 0.13834 0.0
C2815 C 0.68038 0.6642 0.15425 0.0
H2816 H 0.90119 0.08828 0.18801 0.0
H2817 H 0.931 0.12672 0.13086 0.0
H2818 H 0.91291 0.10036 0.10314 0.0
H2819 H 0.88933 0.0661 0.09485 0.0
H2820 H 0.85962 0.02687 0.15152 0.0
H2821 H 0.87641 0.05414 0.17953 0.0
C2822 C 0.9034 0.09114 0.16951 0.0
C2823 C 0.9173 0.10969 0.16162 0.0
C2824 C 0.89287 0.07579 0.15349 0.0
C2825 C 0.92051 0.11259 0.13752 0.0
C2826 C 0.91006 0.09757 0.12158 0.0
C2827 C 0.88628 0.06355 0.1133 0.0
C2828 C 0.87311 0.04439 0.12095 0.0
C2829 C 0.89628 0.07907 0.12934 0.0
C2830 C 0.86958 0.04145 0.14503 0.0
C2831 C 0.87928 0.05702 0.16111 0.0
H2832 H 0.37601 0.85683 0.13678 0.0
H2833 H 0.33544 0.8617 0.07403 0.0
H2834 H 0.30521 0.88335 0.09506 0.0
H2835 H 0.2898 0.89976 0.13191 0.0
H2836 H 0.33156 0.89522 0.19418 0.0
H2837 H 0.36183 0.87495 0.17269 0.0
C2838 C 0.36047 0.86254 0.12777 0.0
C2839 C 0.3578 0.85754 0.10399 0.0
C2840 C 0.34343 0.87524 0.13986 0.0
C2841 C 0.33782 0.86538 0.09237 0.0
C2842 C 0.32057 0.87776 0.10439 0.0
C2843 C 0.30567 0.89467 0.14069 0.0
C2844 C 0.30823 0.899 0.16473 0.0
C2845 C 0.32315 0.88275 0.1282 0.0
C2846 C 0.32894 0.8921 0.17577 0.0
C2847 C 0.34631 0.88038 0.16351 0.0
H2848 H 0.12514 0.59452 0.33594 0.0
H2849 H 0.09602 0.63408 0.39287 0.0
H2850 H 0.11418 0.608 0.42074 0.0
H2851 H 0.13746 0.57372 0.42925 0.0
H2852 H 0.1664 0.5331 0.37301 0.0
H2853 H 0.14985 0.56027 0.34471 0.0
C2854 C 0.12308 0.59767 0.35442 0.0
C2855 C 0.10933 0.61646 0.3622 0.0
C2856 C 0.13369 0.5825 0.37055 0.0
C2857 C 0.10635 0.61975 0.38629 0.0
C2858 C 0.11686 0.60491 0.40231 0.0
C2859 C 0.14045 0.57085 0.41082 0.0
C2860 C 0.15329 0.55133 0.40338 0.0
C2861 C 0.13049 0.58621 0.39467 0.0
C2862 C 0.15674 0.54799 0.37934 0.0
C2863 C 0.14713 0.56347 0.36311 0.0
H2864 H 0.81569 0.64135 0.84661 0.0
H2865 H 0.77862 0.60995 0.90383 0.0
H2866 H 0.80691 0.6259 0.93125 0.0
H2867 H 0.8413 0.65045 0.93918 0.0
H2868 H 0.87765 0.68193 0.88156 0.0
H2869 H 0.8503 0.66465 0.85431 0.0
C2870 C 0.81383 0.63776 0.86504 0.0
C2871 C 0.79497 0.62436 0.87301 0.0
C2872 C 0.82997 0.64726 0.88077 0.0
C2873 C 0.79294 0.62011 0.89707 0.0
C2874 C 0.8091 0.62932 0.91283 0.0
C2875 C 0.84352 0.65318 0.92066 0.0
C2876 C 0.86177 0.66734 0.91252 0.0
C2877 C 0.82759 0.64313 0.90491 0.0
C2878 C 0.86379 0.67123 0.88842 0.0
C2879 C 0.84819 0.66125 0.87275 0.0
H2880 H 0.87746 0.99376 0.37846 0.0
H2881 H 0.88977 0.95558 0.44201 0.0
H2882 H 0.90981 0.92534 0.42029 0.0
H2883 H 0.92516 0.90999 0.38359 0.0
H2884 H 0.91261 0.94691 0.31963 0.0
H2885 H 0.8915 0.97724 0.34106 0.0
C2886 C 0.88426 0.97869 0.38752 0.0
C2887 C 0.88209 0.97714 0.41194 0.0
C2888 C 0.89599 0.96116 0.37486 0.0
C2889 C 0.89118 0.95744 0.4233 0.0
C2890 C 0.90276 0.94007 0.41089 0.0
C2891 C 0.9179 0.92475 0.37437 0.0
C2892 C 0.92052 0.92628 0.35011 0.0
C2893 C 0.90556 0.94189 0.38675 0.0
C2894 C 0.91072 0.94531 0.33832 0.0
C2895 C 0.89867 0.96265 0.35058 0.0
H2896 H 0.15768 0.86017 0.8983 0.0
H2897 H 0.19302 0.87523 0.96263 0.0
H2898 H 0.22434 0.89445 0.94104 0.0
H2899 H 0.24244 0.90572 0.90338 0.0
H2900 H 0.20588 0.89063 0.83947 0.0
H2901 H 0.17448 0.8729 0.86135 0.0
C2902 C 0.17224 0.86765 0.90761 0.0
C2903 C 0.17296 0.86629 0.93204 0.0
C2904 C 0.19006 0.87875 0.89511 0.0
C2905 C 0.19186 0.87628 0.94385 0.0
C2906 C 0.20985 0.88718 0.93148 0.0
C2907 C 0.22749 0.89879 0.89426 0.0
C2908 C 0.22677 0.89951 0.86969 0.0
C2909 C 0.20922 0.88844 0.90703 0.0
C2910 C 0.20716 0.89033 0.85828 0.0
C2911 C 0.1891 0.88008 0.87079 0.0
H2912 H 0.14951 0.10235 0.41587 0.0
H2913 H 0.21269 0.11946 0.45204 0.0
H2914 H 0.19036 0.1409 0.48155 0.0
H2915 H 0.1524 0.15372 0.49768 0.0
H2916 H 0.08969 0.13716 0.45992 0.0
H2917 H 0.11227 0.11688 0.43049 0.0
C2918 C 0.15837 0.11069 0.43029 0.0
C2919 C 0.18267 0.10916 0.43192 0.0
C2920 C 0.14547 0.12325 0.44688 0.0
C2921 C 0.19398 0.12042 0.45043 0.0
C2922 C 0.1812 0.13266 0.46729 0.0
C2923 C 0.1437 0.14594 0.48287 0.0
C2924 C 0.11925 0.14698 0.48125 0.0
C2925 C 0.15687 0.13413 0.46576 0.0
C2926 C 0.10839 0.13667 0.46185 0.0
C2927 C 0.1213 0.12494 0.44495 0.0
H2928 H 0.38212 0.67932 0.82413 0.0
H2929 H 0.41524 0.62523 0.78385 0.0
H2930 H 0.3986 0.59572 0.80952 0.0
H2931 H 0.37269 0.58511 0.84227 0.0
H2932 H 0.33903 0.63968 0.88144 0.0
H2933 H 0.35748 0.66895 0.85713 0.0
C2934 C 0.38601 0.66111 0.82109 0.0
C2935 C 0.40003 0.65462 0.80207 0.0
C2936 C 0.37597 0.64418 0.83558 0.0
C2937 C 0.40458 0.63083 0.79836 0.0
C2938 C 0.39497 0.61389 0.813 0.0
C2939 C 0.36967 0.60339 0.84569 0.0
C2940 C 0.35455 0.6101 0.8638 0.0
C2941 C 0.38035 0.62032 0.83149 0.0
C2942 C 0.35042 0.63393 0.86755 0.0
C2943 C 0.36108 0.65076 0.85373 0.0
H2944 H 0.87849 0.37511 0.4951 0.0
H2945 H 0.94048 0.3725 0.45274 0.0
H2946 H 0.9197 0.38982 0.42039 0.0
H2947 H 0.88482 0.40793 0.40445 0.0
H2948 H 0.8221 0.41023 0.44524 0.0
H2949 H 0.8421 0.3909 0.47767 0.0
C2950 C 0.88731 0.37797 0.47867 0.0
C2951 C 0.91114 0.37261 0.47657 0.0
C2952 C 0.87519 0.38817 0.45984 0.0
C2953 C 0.92225 0.37657 0.45508 0.0
C2954 C 0.91039 0.38656 0.43647 0.0
C2955 C 0.87553 0.40418 0.42045 0.0
C2956 C 0.8521 0.41062 0.42254 0.0
C2957 C 0.88704 0.39288 0.43879 0.0
C2958 C 0.84016 0.40537 0.44322 0.0
C2959 C 0.85162 0.39435 0.46176 0.0
H2960 H 0.66489 0.89838 0.87008 0.0
H2961 H 0.65972 0.95943 0.82708 0.0
H2962 H 0.63916 0.93691 0.79712 0.0
H2963 H 0.62416 0.89904 0.78255 0.0
H2964 H 0.62853 0.83882 0.82727 0.0
H2965 H 0.64758 0.86182 0.85706 0.0
C2966 C 0.65929 0.90673 0.8541 0.0
C2967 C 0.66401 0.93041 0.85062 0.0
C2968 C 0.64722 0.8938 0.83726 0.0
C2969 C 0.65629 0.94117 0.83009 0.0
C2970 C 0.64456 0.92828 0.81298 0.0
C2971 C 0.62897 0.89104 0.79894 0.0
C2972 C 0.62502 0.86707 0.80241 0.0
C2973 C 0.64005 0.90448 0.8163 0.0
C2974 C 0.63145 0.8571 0.82385 0.0
C2975 C 0.64244 0.87025 0.841 0.0
H2976 H 0.14911 0.91748 0.12554 0.0
H2977 H 0.21134 0.90395 0.08611 0.0
H2978 H 0.18842 0.884 0.05613 0.0
H2979 H 0.15014 0.87182 0.04039 0.0
H2980 H 0.08839 0.88504 0.08112 0.0
H2981 H 0.11164 0.9034 0.11123 0.0
C2982 C 0.15766 0.91017 0.11036 0.0
C2983 C 0.18188 0.91228 0.108 0.0
C2984 C 0.14442 0.89856 0.0934 0.0
C2985 C 0.19274 0.90244 0.0884 0.0
C2986 C 0.17961 0.89109 0.07123 0.0
C2987 C 0.14179 0.87844 0.05598 0.0
C2988 C 0.1174 0.87705 0.05826 0.0
C2989 C 0.15536 0.88915 0.07346 0.0
C2990 C 0.10702 0.88584 0.07867 0.0
C2991 C 0.12032 0.89646 0.09597 0.0
H2992 H 0.16213 0.62645 0.16149 0.0
H2993 H 0.16044 0.56738 0.20737 0.0
H2994 H 0.13952 0.59048 0.23679 0.0
H2995 H 0.12412 0.62869 0.25026 0.0
H2996 H 0.12528 0.68689 0.20281 0.0
H2997 H 0.14352 0.66288 0.17315 0.0
C2998 C 0.15715 0.61868 0.17796 0.0
C2999 C 0.16314 0.59549 0.18257 0.0
C3000 C 0.14488 0.6319 0.19444 0.0
C3001 C 0.15617 0.58534 0.20365 0.0
C3002 C 0.1442 0.59853 0.2204 0.0
C3003 C 0.1279 0.63595 0.23326 0.0
C3004 C 0.12347 0.65969 0.22894 0.0
C3005 C 0.1387 0.62199 0.21611 0.0
C3006 C 0.12863 0.66879 0.20678 0.0
C3007 C 0.13918 0.65509 0.18976 0.0
H3008 H 0.9298 0.63434 0.06569 0.0
H3009 H 0.87418 0.66652 0.02703 0.0
H3010 H 0.84574 0.64975 0.05388 0.0
H3011 H 0.83654 0.62433 0.08753 0.0
H3012 H 0.89271 0.59166 0.12496 0.0
H3013 H 0.92086 0.60991 0.0992 0.0
C3014 C 0.91149 0.63796 0.06318 0.0
C3015 C 0.90427 0.65183 0.04432 0.0
C3016 C 0.8952 0.6279 0.07839 0.0
C3017 C 0.88035 0.65601 0.04139 0.0
C3018 C 0.86403 0.64633 0.05672 0.0
C3019 C 0.85493 0.62147 0.09025 0.0
C3020 C 0.86242 0.60671 0.10835 0.0
C3021 C 0.87122 0.63202 0.07518 0.0
C3022 C 0.88637 0.60279 0.11115 0.0
C3023 C 0.90255 0.61333 0.09648 0.0
H3024 H 0.87615 0.9399 0.18432 0.0
H3025 H 0.84139 0.88325 0.14948 0.0
H3026 H 0.86029 0.85546 0.17517 0.0
H3027 H 0.88563 0.84707 0.20807 0.0
H3028 H 0.92026 0.90325 0.24379 0.0
H3029 H 0.90313 0.9312 0.21669 0.0
C3030 C 0.87304 0.92148 0.18204 0.0
C3031 C 0.85747 0.91376 0.16476 0.0
C3032 C 0.88407 0.90542 0.19695 0.0
C3033 C 0.85315 0.88978 0.16266 0.0
C3034 C 0.86407 0.8738 0.17727 0.0
C3035 C 0.88973 0.86538 0.20984 0.0
C3036 C 0.9043 0.87293 0.22802 0.0
C3037 C 0.87946 0.8814 0.19454 0.0
C3038 C 0.90922 0.89683 0.22995 0.0
C3039 C 0.89929 0.91289 0.21453 0.0
H3040 H 0.49468 0.14973 0.15251 0.0
H3041 H 0.45223 0.08793 0.14846 0.0
H3042 H 0.42135 0.10992 0.13014 0.0
H3043 H 0.40669 0.14603 0.11328 0.0
H3044 H 0.44725 0.20867 0.11824 0.0
H3045 H 0.47837 0.18718 0.1381 0.0
C3046 C 0.47855 0.14117 0.14793 0.0
C3047 C 0.47606 0.11706 0.15173 0.0
C3048 C 0.46051 0.15403 0.13728 0.0
C3049 C 0.45492 0.10635 0.14563 0.0
C3050 C 0.43714 0.11891 0.13505 0.0
C3051 C 0.42238 0.15495 0.1187 0.0
C3052 C 0.42484 0.17878 0.11412 0.0
C3053 C 0.43988 0.14261 0.13039 0.0
C3054 C 0.44503 0.19027 0.12159 0.0
C3055 C 0.4628 0.17798 0.13292 0.0
H3056 H 0.43308 0.83745 0.40474 0.0
H3057 H 0.39259 0.89365 0.43376 0.0
H3058 H 0.41754 0.92194 0.41459 0.0
H3059 H 0.45139 0.93094 0.3907 0.0
H3060 H 0.49292 0.87522 0.36218 0.0
H3061 H 0.46663 0.84662 0.37941 0.0
C3062 C 0.42947 0.85585 0.40654 0.0
C3063 C 0.4108 0.86335 0.42055 0.0
C3064 C 0.44402 0.87217 0.39544 0.0
C3065 C 0.40687 0.88734 0.42321 0.0
C3066 C 0.42107 0.90358 0.41214 0.0
C3067 C 0.4546 0.91256 0.38792 0.0
C3068 C 0.47415 0.90534 0.37504 0.0
C3069 C 0.43975 0.89621 0.39832 0.0
C3070 C 0.478 0.88136 0.37191 0.0
C3071 C 0.46302 0.86496 0.38189 0.0
H3072 H 0.18113 0.32338 0.88515 0.0
H3073 H 0.12687 0.28616 0.92117 0.0
H3074 H 0.09769 0.31164 0.90386 0.0
H3075 H 0.08735 0.34305 0.87665 0.0
H3076 H 0.1418 0.38017 0.84088 0.0
H3077 H 0.17095 0.3557 0.8594 0.0
C3078 C 0.16297 0.32099 0.88952 0.0
C3079 C 0.15632 0.30283 0.90452 0.0
C3080 C 0.14619 0.33546 0.8792 0.0
C3081 C 0.1326 0.29999 0.90974 0.0
C3082 C 0.11583 0.31449 0.89974 0.0
C3083 C 0.10557 0.34616 0.87327 0.0
C3084 C 0.11228 0.36372 0.85759 0.0
C3085 C 0.12239 0.33209 0.88418 0.0
C3086 C 0.13604 0.36676 0.85279 0.0
C3087 C 0.1528 0.35287 0.8635 0.0
H3088 H 0.61805 0.64935 0.42279 0.0
H3089 H 0.58007 0.71216 0.40791 0.0
H3090 H 0.5504 0.68952 0.38721 0.0
H3091 H 0.53474 0.65139 0.3745 0.0
H3092 H 0.57418 0.58909 0.38904 0.0
H3093 H 0.60377 0.61202 0.40847 0.0
C3094 C 0.60321 0.65807 0.41509 0.0
C3095 C 0.6011 0.68232 0.41699 0.0
C3096 C 0.58652 0.64502 0.40303 0.0
C3097 C 0.58204 0.69347 0.4066 0.0
C3098 C 0.5651 0.68053 0.39481 0.0
C3099 C 0.54993 0.64286 0.38167 0.0
C3100 C 0.55203 0.61845 0.38034 0.0
C3101 C 0.5671 0.65622 0.39299 0.0
C3102 C 0.5719 0.60778 0.38982 0.0
C3103 C 0.58889 0.62087 0.40104 0.0
H3104 H 0.3513 0.70859 0.38874 0.0
H3105 H 0.40498 0.7485 0.42259 0.0
H3106 H 0.43462 0.72285 0.40585 0.0
H3107 H 0.44536 0.68996 0.3799 0.0
H3108 H 0.39101 0.65161 0.34532 0.0
H3109 H 0.36171 0.67598 0.36377 0.0
C3110 C 0.36944 0.71163 0.39273 0.0
C3111 C 0.37579 0.73046 0.40704 0.0
C3112 C 0.38638 0.69719 0.38264 0.0
C3113 C 0.3995 0.73411 0.41172 0.0
C3114 C 0.4165 0.71949 0.40206 0.0
C3115 C 0.4271 0.68679 0.37665 0.0
C3116 C 0.42043 0.66887 0.3613 0.0
C3117 C 0.41017 0.7011 0.38726 0.0
C3118 C 0.39668 0.66535 0.3569 0.0
C3119 C 0.37986 0.67921 0.36754 0.0
H3120 H 0.08675 0.83467 0.62726 0.0
H3121 H 0.12348 0.89032 0.59293 0.0
H3122 H 0.09818 0.91883 0.61142 0.0
H3123 H 0.0654 0.9282 0.63684 0.0
H3124 H 0.02812 0.87291 0.67119 0.0
H3125 H 0.05427 0.84423 0.65378 0.0
C3126 C 0.0895 0.85302 0.62413 0.0
C3127 C 0.10726 0.86025 0.60887 0.0
C3128 C 0.07485 0.8695 0.63495 0.0
C3129 C 0.10995 0.88416 0.60448 0.0
C3130 C 0.09555 0.90055 0.61517 0.0
C3131 C 0.06307 0.90991 0.64078 0.0
C3132 C 0.04478 0.90285 0.65544 0.0
C3133 C 0.07793 0.89345 0.63041 0.0
C3134 C 0.04205 0.87897 0.66008 0.0
C3135 C 0.05696 0.86249 0.65002 0.0
H3136 H 0.08263 0.68601 0.65543 0.0
H3137 H 0.1393 0.64431 0.68149 0.0
H3138 H 0.16717 0.67086 0.66411 0.0
H3139 H 0.17577 0.70605 0.64204 0.0
H3140 H 0.1196 0.7481 0.61553 0.0
H3141 H 0.09137 0.72088 0.63185 0.0
C3142 C 0.10103 0.68244 0.65692 0.0
C3143 C 0.10873 0.66292 0.66958 0.0
C3144 C 0.11716 0.6978 0.64667 0.0
C3145 C 0.13276 0.65918 0.67196 0.0
C3146 C 0.1488 0.67431 0.6619 0.0
C3147 C 0.15737 0.70923 0.6396 0.0
C3148 C 0.14993 0.72916 0.62749 0.0
C3149 C 0.14122 0.69369 0.64926 0.0
C3150 C 0.12593 0.7329 0.62465 0.0
C3151 C 0.10973 0.71737 0.63411 0.0
H3152 H 0.84684 0.81881 0.64625 0.0
H3153 H 0.90209 0.78187 0.61127 0.0
H3154 H 0.93071 0.80768 0.62911 0.0
H3155 H 0.94022 0.8396 0.65629 0.0
H3156 H 0.88464 0.87593 0.69134 0.0
H3157 H 0.85616 0.85112 0.67228 0.0
C3158 C 0.8651 0.81651 0.64225 0.0
C3159 C 0.87218 0.79839 0.62731 0.0
C3160 C 0.88153 0.83113 0.65289 0.0
C3161 C 0.89604 0.79568 0.6226 0.0
C3162 C 0.91247 0.81038 0.6329 0.0
C3163 C 0.92189 0.84237 0.65946 0.0
C3164 C 0.91466 0.85985 0.67509 0.0
C3165 C 0.90545 0.82802 0.64831 0.0
C3166 C 0.89078 0.86259 0.67951 0.0
C3167 C 0.87442 0.84849 0.66849 0.0
H3168 H 0.63898 0.95612 0.60059 0.0
H3169 H 0.66995 0.995 0.65684 0.0
H3170 H 0.6538 0.96755 0.68502 0.0
H3171 H 0.62915 0.93338 0.69387 0.0
H3172 H 0.59809 0.89529 0.63711 0.0
H3173 H 0.61565 0.92174 0.60919 0.0
C3174 C 0.64245 0.95854 0.61898 0.0
C3175 C 0.65578 0.97768 0.62645 0.0
C3176 C 0.63283 0.9429 0.63514 0.0
C3177 C 0.65985 0.98045 0.65046 0.0
C3178 C 0.65053 0.96478 0.66666 0.0
C3179 C 0.62656 0.9306 0.67541 0.0
C3180 C 0.61242 0.91212 0.66771 0.0
C3181 C 0.63677 0.94603 0.65923 0.0
C3182 C 0.60876 0.90935 0.64365 0.0
C3183 C 0.6189 0.92444 0.62758 0.0
H3184 H 0.21174 0.14091 0.68103 0.0
H3185 H 0.24829 0.10417 0.6266 0.0
H3186 H 0.22235 0.12102 0.59747 0.0
H3187 H 0.19059 0.14813 0.58717 0.0
H3188 H 0.15492 0.18516 0.64198 0.0
H3189 H 0.17949 0.16666 0.67101 0.0
C3190 C 0.21389 0.13627 0.66285 0.0
C3191 C 0.23197 0.12117 0.65614 0.0
C3192 C 0.19924 0.14641 0.64611 0.0
C3193 C 0.23451 0.11565 0.63238 0.0
C3194 C 0.21973 0.1254 0.61564 0.0
C3195 C 0.18794 0.15187 0.60546 0.0
C3196 C 0.17074 0.16795 0.61229 0.0
C3197 C 0.20222 0.14108 0.62225 0.0
C3198 C 0.16807 0.17301 0.63612 0.0
C3199 C 0.18205 0.16231 0.65281 0.0
H3200 H 0.40208 0.62832 0.64441 0.0
H3201 H 0.4033 0.58614 0.70626 0.0
H3202 H 0.38401 0.55435 0.68522 0.0
H3203 H 0.36944 0.53763 0.64798 0.0
H3204 H 0.36779 0.58126 0.58686 0.0
H3205 H 0.38412 0.61338 0.60889 0.0
C3206 C 0.39803 0.61217 0.65328 0.0
C3207 C 0.40429 0.6094 0.6767 0.0
C3208 C 0.38674 0.59423 0.64118 0.0
C3209 C 0.39863 0.5886 0.68817 0.0
C3210 C 0.38764 0.57044 0.67613 0.0
C3211 C 0.37217 0.55433 0.63966 0.0
C3212 C 0.36757 0.55687 0.61569 0.0
C3213 C 0.38187 0.57292 0.65248 0.0
C3214 C 0.37135 0.57866 0.60519 0.0
C3215 C 0.3808 0.59708 0.61775 0.0
H3216 H 0.84198 0.37646 0.58588 0.0
H3217 H 0.87886 0.34293 0.64198 0.0
H3218 H 0.85272 0.3606 0.67023 0.0
H3219 H 0.81902 0.38499 0.67927 0.0
H3220 H 0.78193 0.4188 0.62347 0.0
H3221 H 0.80892 0.40226 0.59512 0.0
C3222 C 0.84463 0.37337 0.60428 0.0
C3223 C 0.86266 0.35853 0.61167 0.0
C3224 C 0.82952 0.38377 0.62063 0.0
C3225 C 0.86515 0.35416 0.63565 0.0
C3226 C 0.85026 0.36438 0.65192 0.0
C3227 C 0.81694 0.38901 0.66095 0.0
C3228 C 0.7984 0.40322 0.65366 0.0
C3229 C 0.83235 0.37918 0.64464 0.0
C3230 C 0.79602 0.40801 0.62973 0.0
C3231 C 0.81142 0.39845 0.61342 0.0
H3232 H 0.63736 0.07729 0.92809 0.0
H3233 H 0.66772 0.03867 0.87117 0.0
H3234 H 0.65173 0.06657 0.84343 0.0
H3235 H 0.62702 0.10065 0.83514 0.0
H3236 H 0.59669 0.13887 0.8923 0.0
H3237 H 0.61429 0.11207 0.91997 0.0
C3238 C 0.64077 0.07506 0.90965 0.0
C3239 C 0.65381 0.05583 0.90184 0.0
C3240 C 0.63121 0.09096 0.89372 0.0
C3241 C 0.65784 0.0533 0.87779 0.0
C3242 C 0.64858 0.06921 0.86185 0.0
C3243 C 0.62467 0.10346 0.85363 0.0
C3244 C 0.61074 0.12202 0.86155 0.0
C3245 C 0.63496 0.08795 0.86959 0.0
C3246 C 0.60724 0.12474 0.88564 0.0
C3247 C 0.61741 0.10948 0.90154 0.0
H3248 H 0.3681 0.17227 0.39864 0.0
H3249 H 0.33286 0.15484 0.46246 0.0
H3250 H 0.30329 0.13345 0.44044 0.0
H3251 H 0.28692 0.12072 0.40274 0.0
H3252 H 0.32303 0.13816 0.33916 0.0
H3253 H 0.35284 0.15826 0.3614 0.0
C3254 C 0.35386 0.16388 0.40771 0.0
C3255 C 0.35256 0.16519 0.4321 0.0
C3256 C 0.33716 0.15146 0.39497 0.0
C3257 C 0.33426 0.15396 0.44368 0.0
C3258 C 0.31736 0.14176 0.43109 0.0
C3259 C 0.30145 0.12865 0.39375 0.0
C3260 C 0.30259 0.12791 0.36922 0.0
C3261 C 0.3186 0.14043 0.40668 0.0
C3262 C 0.32157 0.13844 0.35796 0.0
C3263 C 0.33864 0.15005 0.37066 0.0
H3264 H 0.4121 0.40815 0.88399 0.0
H3265 H 0.40214 0.44699 0.82073 0.0
H3266 H 0.38165 0.47753 0.84249 0.0
H3267 H 0.36811 0.49398 0.88019 0.0
H3268 H 0.37777 0.45371 0.94291 0.0
H3269 H 0.39652 0.42305 0.9207 0.0
C3270 C 0.40544 0.42332 0.87498 0.0
C3271 C 0.4087 0.42538 0.85084 0.0
C3272 C 0.39351 0.44058 0.88754 0.0
C3273 C 0.39971 0.44496 0.83931 0.0
C3274 C 0.38806 0.46244 0.85177 0.0
C3275 C 0.374 0.47835 0.88894 0.0
C3276 C 0.37158 0.47639 0.91331 0.0
C3277 C 0.38497 0.46054 0.87598 0.0
C3278 C 0.37944 0.45594 0.92426 0.0
C3279 C 0.39028 0.43831 0.91158 0.0
H3280 H 0.68999 0.3754 0.44341 0.0
H3281 H 0.65468 0.33668 0.38969 0.0
H3282 H 0.67807 0.35568 0.35999 0.0
H3283 H 0.70911 0.38248 0.3491 0.0
H3284 H 0.74533 0.42087 0.40246 0.0
H3285 H 0.72054 0.40344 0.43227 0.0
C3286 C 0.68718 0.37138 0.42521 0.0
C3287 C 0.67044 0.35472 0.41887 0.0
C3288 C 0.70073 0.38248 0.40806 0.0
C3289 C 0.66754 0.34928 0.39516 0.0
C3290 C 0.6808 0.36028 0.37809 0.0
C3291 C 0.71139 0.38737 0.3672 0.0
C3292 C 0.72905 0.40308 0.37343 0.0
C3293 C 0.69748 0.37686 0.38431 0.0
C3294 C 0.73185 0.4089 0.39708 0.0
C3295 C 0.71775 0.39882 0.41419 0.0
H3296 H 0.69062 0.62362 0.94073 0.0
H3297 H 0.63502 0.58854 0.90466 0.0
H3298 H 0.60669 0.60629 0.93059 0.0
H3299 H 0.59747 0.63087 0.96388 0.0
H3300 H 0.65243 0.66573 1.0011 0.0
H3301 H 0.68104 0.64957 0.97396 0.0
C3302 C 0.6723 0.62015 0.93831 0.0
C3303 C 0.66505 0.60483 0.92056 0.0
C3304 C 0.6559 0.6305 0.95343 0.0
C3305 C 0.64121 0.60009 0.91819 0.0
C3306 C 0.62491 0.61036 0.93296 0.0
C3307 C 0.61566 0.63522 0.96602 0.0
C3308 C 0.62266 0.64962 0.98458 0.0
C3309 C 0.63204 0.6255 0.95068 0.0
C3310 C 0.64643 0.65482 0.98696 0.0
C3311 C 0.66285 0.64545 0.97149 0.0
H3312 H 0.87724 0.08108 0.33672 0.0
H3313 H 0.8414 0.13607 0.37325 0.0
H3314 H 0.85908 0.16491 0.34785 0.0
H3315 H 0.88399 0.17477 0.31494 0.0
H3316 H 0.91921 0.12031 0.27705 0.0
H3317 H 0.90295 0.09122 0.30352 0.0
C3318 C 0.87353 0.09938 0.33928 0.0
C3319 C 0.85807 0.10633 0.35703 0.0
C3320 C 0.88374 0.11606 0.32441 0.0
C3321 C 0.85308 0.13014 0.35969 0.0
C3322 C 0.86329 0.14672 0.34523 0.0
C3323 C 0.88837 0.15658 0.31254 0.0
C3324 C 0.90298 0.14986 0.29403 0.0
C3325 C 0.87858 0.1399 0.3275 0.0
C3326 C 0.90813 0.12608 0.29117 0.0
C3327 C 0.89874 0.10939 0.30628 0.0
H3328 H 0.33514 0.89718 0.94175 0.0
H3329 H 0.38832 0.93576 0.90558 0.0
H3330 H 0.41813 0.91731 0.92914 0.0
H3331 H 0.42933 0.89129 0.96065 0.0
H3332 H 0.37673 0.85292 0.99787 0.0
H3333 H 0.34672 0.86961 0.97281 0.0
C3334 C 0.35325 0.90127 0.93877 0.0
C3335 C 0.35937 0.9178 0.92174 0.0
C3336 C 0.37053 0.8905 0.95249 0.0
C3337 C 0.38298 0.92329 0.91864 0.0
C3338 C 0.40013 0.91262 0.93202 0.0
C3339 C 0.41136 0.88625 0.96315 0.0
C3340 C 0.40543 0.87077 0.98117 0.0
C3341 C 0.39413 0.8963 0.94906 0.0
C3342 C 0.38192 0.8647 0.98412 0.0
C3343 C 0.36468 0.87437 0.96987 0.0
H3344 H 0.1674 0.39154 0.37323 0.0
H3345 H 0.15661 0.4547 0.33443 0.0
H3346 H 0.13678 0.43275 0.30372 0.0
H3347 H 0.12375 0.3951 0.28724 0.0
H3348 H 0.13452 0.33228 0.32699 0.0
H3349 H 0.15284 0.35458 0.35788 0.0
C3350 C 0.16073 0.4005 0.35802 0.0
C3351 C 0.16347 0.42471 0.35611 0.0
C3352 C 0.14923 0.38779 0.34058 0.0
C3353 C 0.15452 0.43611 0.33643 0.0
C3354 C 0.14324 0.42353 0.31883 0.0
C3355 C 0.12983 0.38632 0.30278 0.0
C3356 C 0.12775 0.36194 0.3046 0.0
C3357 C 0.14057 0.39931 0.32065 0.0
C3358 C 0.13588 0.35095 0.32492 0.0
C3359 C 0.14647 0.36369 0.34266 0.0
H3360 H 0.64963 0.37368 0.53244 0.0
H3361 H 0.58563 0.3867 0.56957 0.0
H3362 H 0.60687 0.40662 0.60017 0.0
H3363 H 0.64325 0.42177 0.61602 0.0
H3364 H 0.70763 0.40866 0.58007 0.0
H3365 H 0.68671 0.38746 0.54952 0.0
C3366 C 0.64037 0.3806 0.54737 0.0
C3367 C 0.61597 0.37869 0.54852 0.0
C3368 C 0.65274 0.39226 0.56509 0.0
C3369 C 0.60433 0.38792 0.56803 0.0
C3370 C 0.61646 0.39943 0.5856 0.0
C3371 C 0.65268 0.41434 0.60144 0.0
C3372 C 0.67692 0.41682 0.60024 0.0
C3373 C 0.64059 0.40201 0.58416 0.0
C3374 C 0.68897 0.40684 0.58143 0.0
C3375 C 0.677 0.39476 0.56396 0.0
H3376 H 0.64275 0.18062 0.70609 0.0
H3377 H 0.61015 0.12738 0.74765 0.0
H3378 H 0.62757 0.09731 0.72295 0.0
H3379 H 0.65379 0.08608 0.69044 0.0
H3380 H 0.68705 0.14001 0.65031 0.0
H3381 H 0.66798 0.16968 0.67377 0.0
C3382 C 0.63917 0.16247 0.70968 0.0
C3383 C 0.62499 0.1564 0.72873 0.0
C3384 C 0.64966 0.14527 0.69576 0.0
C3385 C 0.62088 0.13267 0.7331 0.0
C3386 C 0.63094 0.11542 0.71901 0.0
C3387 C 0.65662 0.1043 0.68665 0.0
C3388 C 0.6718 0.11071 0.66848 0.0
C3389 C 0.64561 0.12149 0.70042 0.0
C3390 C 0.67563 0.13449 0.66424 0.0
C3391 C 0.66461 0.15154 0.67758 0.0
H3392 H 0.38939 0.10597 0.62177 0.0
H3393 H 0.32513 0.11557 0.58459 0.0
H3394 H 0.34583 0.13605 0.55349 0.0
H3395 H 0.38258 0.15026 0.53635 0.0
H3396 H 0.4467 0.14001 0.57392 0.0
H3397 H 0.42567 0.12095 0.60533 0.0
C3398 C 0.37992 0.11248 0.60681 0.0
C3399 C 0.35574 0.10937 0.60555 0.0
C3400 C 0.39193 0.12424 0.58907 0.0
C3401 C 0.34369 0.11804 0.58615 0.0
C3402 C 0.35555 0.12968 0.56832 0.0
C3403 C 0.39192 0.14412 0.55153 0.0
C3404 C 0.41626 0.14661 0.55266 0.0
C3405 C 0.3797 0.13287 0.56957 0.0
C3406 C 0.42803 0.13833 0.57246 0.0
C3407 C 0.41601 0.12734 0.59046 0.0
H3408 H 0.37204 0.44656 0.68419 0.0
H3409 H 0.33986 0.39113 0.64516 0.0
H3410 H 0.35782 0.36242 0.67051 0.0
H3411 H 0.38217 0.35275 0.70402 0.0
H3412 H 0.41433 0.40781 0.74359 0.0
H3413 H 0.39747 0.43673 0.71743 0.0
C3414 C 0.36926 0.42823 0.68095 0.0
C3415 C 0.35474 0.42115 0.66253 0.0
C3416 C 0.37978 0.41161 0.69566 0.0
C3417 C 0.35082 0.39721 0.65921 0.0
C3418 C 0.36121 0.38069 0.67364 0.0
C3419 C 0.38576 0.37104 0.70683 0.0
C3420 C 0.39964 0.37796 0.72579 0.0
C3421 C 0.3757 0.38766 0.69194 0.0
C3422 C 0.40381 0.40186 0.72915 0.0
C3423 C 0.39407 0.41848 0.71422 0.0
H3424 H 0.95341 0.59987 0.63741 0.0
H3425 H 0.99469 0.65472 0.66766 0.0
H3426 H 0.96937 0.68385 0.64977 0.0
H3427 H 0.93653 0.69369 0.62375 0.0
H3428 H 0.89639 0.63822 0.59311 0.0
H3429 H 0.92064 0.60947 0.61248 0.0
C3430 C 0.9568 0.61817 0.64039 0.0
C3431 C 0.97594 0.625 0.654 0.0
C3432 C 0.94256 0.63479 0.62963 0.0
C3433 C 0.98005 0.64889 0.65739 0.0
C3434 C 0.96564 0.66559 0.64704 0.0
C3435 C 0.93292 0.67533 0.62158 0.0
C3436 C 0.91452 0.66818 0.60711 0.0
C3437 C 0.947 0.65874 0.63286 0.0
C3438 C 0.91051 0.64426 0.604 0.0
C3439 C 0.92427 0.62777 0.61521 0.0
H3440 H 0.93908 0.33203 0.90255 0.0
H3441 H 0.9012 0.38637 0.93799 0.0
H3442 H 0.92607 0.41565 0.92039 0.0
H3443 H 0.95876 0.42609 0.89547 0.0
H3444 H 0.99752 0.37226 0.86021 0.0
H3445 H 0.97179 0.34272 0.87668 0.0
C3446 C 0.93606 0.35027 0.90615 0.0
C3447 C 0.9181 0.35691 0.92147 0.0
C3448 C 0.95052 0.36721 0.89589 0.0
C3449 C 0.91493 0.38067 0.92641 0.0
C3450 C 0.92907 0.39751 0.91623 0.0
C3451 C 0.96151 0.40794 0.89114 0.0
C3452 C 0.98007 0.40152 0.87649 0.0
C3453 C 0.94693 0.39101 0.90098 0.0
C3454 C 0.98336 0.3778 0.87134 0.0
C3455 C 0.96869 0.36085 0.88084 0.0
H3456 H 0.6288 0.78857 0.40463 0.0
H3457 H 0.69219 0.82803 0.39752 0.0
H3458 H 0.67067 0.86015 0.38037 0.0
H3459 H 0.6343 0.87662 0.36581 0.0
H3460 H 0.57074 0.83766 0.37222 0.0
H3461 H 0.5918 0.8059 0.39122 0.0
C3462 C 0.63786 0.80432 0.39962 0.0
C3463 C 0.66214 0.80577 0.40235 0.0
C3464 C 0.62537 0.8228 0.38946 0.0
C3465 C 0.67356 0.8263 0.39557 0.0
C3466 C 0.66128 0.84472 0.38569 0.0
C3467 C 0.62505 0.86116 0.37135 0.0
C3468 C 0.60098 0.85956 0.36774 0.0
C3469 C 0.63727 0.84303 0.38222 0.0
C3470 C 0.58921 0.83949 0.37514 0.0
C3471 C 0.60128 0.82127 0.38591 0.0
H3472 H 0.12561 0.14733 0.9197 0.0
H3473 H 0.0852 0.21007 0.91333 0.0
H3474 H 0.05498 0.1887 0.89216 0.0
H3475 H 0.03949 0.15159 0.87679 0.0
H3476 H 0.08085 0.08921 0.88311 0.0
H3477 H 0.1113 0.11105 0.90262 0.0
C3478 C 0.11012 0.15627 0.91375 0.0
C3479 C 0.1075 0.18015 0.91817 0.0
C3480 C 0.09306 0.14396 0.9014 0.0
C3481 C 0.08757 0.19167 0.91006 0.0
C3482 C 0.07032 0.17945 0.89797 0.0
C3483 C 0.05532 0.14286 0.88208 0.0
C3484 C 0.05774 0.11872 0.8785 0.0
C3485 C 0.07284 0.15553 0.8936 0.0
C3486 C 0.07838 0.10771 0.88567 0.0
C3487 C 0.09583 0.12017 0.89695 0.0
H3488 H 0.90103 0.24329 0.90406 0.0
H3489 H 0.83917 0.20337 0.88959 0.0
H3490 H 0.86241 0.17344 0.87085 0.0
H3491 H 0.89995 0.15891 0.85715 0.0
H3492 H 0.96226 0.19765 0.87168 0.0
H3493 H 0.93929 0.22758 0.89174 0.0
C3494 C 0.89266 0.22792 0.89706 0.0
C3495 C 0.86827 0.22578 0.89824 0.0
C3496 C 0.90621 0.21057 0.88609 0.0
C3497 C 0.85782 0.20569 0.88894 0.0
C3498 C 0.87111 0.18849 0.87811 0.0
C3499 C 0.9085 0.17396 0.86464 0.0
C3500 C 0.93274 0.17612 0.86287 0.0
C3501 C 0.89523 0.19089 0.87629 0.0
C3502 C 0.94362 0.19553 0.87295 0.0
C3503 C 0.93047 0.21266 0.88437 0.0
H3504 H 0.57547 0.42723 0.14432 0.0
H3505 H 0.53123 0.37162 0.16824 0.0
H3506 H 0.55773 0.34301 0.15095 0.0
H3507 H 0.59247 0.33405 0.12682 0.0
H3508 H 0.63498 0.39058 0.10195 0.0
H3509 H 0.60985 0.41854 0.12145 0.0
C3510 C 0.57161 0.40886 0.14605 0.0
C3511 C 0.55131 0.40168 0.15766 0.0
C3512 C 0.58651 0.39263 0.13555 0.0
C3513 C 0.54674 0.37772 0.15951 0.0
C3514 C 0.56184 0.36134 0.14949 0.0
C3515 C 0.59635 0.35245 0.12594 0.0
C3516 C 0.61566 0.36018 0.113 0.0
C3517 C 0.58162 0.36861 0.13714 0.0
C3518 C 0.62016 0.38415 0.11162 0.0
C3519 C 0.60587 0.40017 0.12288 0.0
H3520 H 0.67946 0.205 0.14123 0.0
H3521 H 0.62455 0.24703 0.11217 0.0
H3522 H 0.59557 0.22017 0.12782 0.0
H3523 H 0.58574 0.18552 0.15147 0.0
H3524 H 0.64122 0.14441 0.18077 0.0
H3525 H 0.66986 0.17035 0.1637 0.0
C3526 C 0.66118 0.20825 0.13807 0.0
C3527 C 0.65431 0.22805 0.12543 0.0
C3528 C 0.64459 0.19298 0.14744 0.0
C3529 C 0.63045 0.23192 0.12174 0.0
C3530 C 0.61381 0.21659 0.13078 0.0
C3531 C 0.60408 0.18203 0.1538 0.0
C3532 C 0.61123 0.16285 0.16728 0.0
C3533 C 0.62066 0.19716 0.14389 0.0
C3534 C 0.63513 0.15906 0.17062 0.0
C3535 C 0.6516 0.17384 0.16075 0.0
H3536 H 0.44174 0.34413 0.15422 0.0
H3537 H 0.38553 0.38565 0.18171 0.0
H3538 H 0.35736 0.35967 0.16385 0.0
H3539 H 0.34845 0.32484 0.14108 0.0
H3540 H 0.40443 0.28339 0.11297 0.0
H3541 H 0.43277 0.31015 0.12967 0.0
C3542 C 0.42338 0.34785 0.15588 0.0
C3543 C 0.41589 0.3671 0.16908 0.0
C3544 C 0.40713 0.33289 0.14532 0.0
C3545 C 0.39189 0.37097 0.17173 0.0
C3546 C 0.3757 0.35618 0.1614 0.0
C3547 C 0.36683 0.32174 0.13834 0.0
C3548 C 0.37419 0.30204 0.12576 0.0
C3549 C 0.3831 0.33705 0.14821 0.0
C3550 C 0.39816 0.29839 0.12253 0.0
C3551 C 0.41444 0.31364 0.13219 0.0
loop_
_geom_bond_atom_site_label_1
_geom_bond_atom_site_label_2
_geom_bond_distance
_geom_bond_site_symmetry_2
_ccdc_geom_bond_type
Co0 O3 1.970 . S
Co0 N17 1.989 . S
Co0 O25 1.967 . S
Co0 O32 1.920 . S
Co1 O4 1.966 . S
Co1 N10 2.022 . S
Co1 N18 1.993 . S
Co1 O26 1.941 . S
C2 O3 1.258 . S
C2 O4 1.263 . S
O3 Co0 1.970 . S
O3 C2 1.258 . S
O4 Co1 1.966 . S
O4 C2 1.263 . S
C5 O6 1.235 . S
C5 O32 1.289 . S
O6 C5 1.235 . S
C7 C9 1.400 . S
C7 N10 1.351 . S
C7 C12 1.501 . S
C8 C9 1.387 . S
C8 N11 1.341 . S
C9 C7 1.400 . S
C9 C8 1.387 . S
N10 Co1 2.022 . S
N10 C7 1.351 . S
N10 N11 1.365 . S
N11 C8 1.341 . S
N11 N10 1.365 . S
N11 H31 0.862 . S
C12 C7 1.501 . S
C12 H13 0.961 . S
C12 H14 0.961 . S
C12 H15 0.960 . S
H13 C12 0.961 . S
H14 C12 0.961 . S
H15 C12 0.960 . S
C16 N17 1.342 . S
C16 C20 1.401 . S
C16 C21 1.499 . S
N17 Co0 1.989 . S
N17 C16 1.342 . S
N17 N18 1.388 . S
N18 Co1 1.993 . S
N18 N17 1.388 . S
N18 C19 1.346 . S
C19 N18 1.346 . S
C19 C20 1.396 . S
C19 C29 1.510 . S
C20 C16 1.401 . S
C20 C19 1.396 . S
C21 C16 1.499 . S
C21 H22 0.959 . S
C21 H23 0.960 . S
C21 H24 0.961 . S
H22 C21 0.959 . S
H23 C21 0.960 . S
H24 C21 0.961 . S
O25 Co0 1.967 . S
O25 C33 1.258 . S
O26 Co1 1.941 . S
O26 C33 1.266 . S
H27 C29 0.959 . S
H28 C29 0.961 . S
C29 C19 1.510 . S
C29 H27 0.959 . S
C29 H28 0.961 . S
C29 H30 0.960 . S
H30 C29 0.960 . S
H31 N11 0.862 . S
O32 Co0 1.920 . S
O32 C5 1.289 . S
C33 O25 1.258 . S
C33 O26 1.266 . S
Co34 O37 1.970 . S
Co34 N51 1.989 . S
Co34 O59 1.967 . S
Co34 O66 1.920 . S
Co35 O38 1.966 . S
Co35 N44 2.022 . S
Co35 N52 1.993 . S
Co35 O60 1.941 . S
C36 O37 1.258 . S
C36 O38 1.263 . S
O37 Co34 1.970 . S
O37 C36 1.258 . S
O38 Co35 1.966 . S
O38 C36 1.263 . S
C39 O40 1.235 . S
C39 O66 1.289 1_556 S
O40 C39 1.235 . S
C41 C43 1.400 . S
C41 N44 1.351 . S
C41 C46 1.501 . S
C42 C43 1.387 . S
C42 N45 1.341 . S
C43 C41 1.400 . S
C43 C42 1.387 . S
N44 Co35 2.022 . S
N44 C41 1.351 . S
N44 N45 1.365 . S
N45 C42 1.341 . S
N45 N44 1.365 . S
N45 H65 0.862 . S
C46 C41 1.501 . S
C46 H47 0.961 . S
C46 H48 0.961 . S
C46 H49 0.960 . S
H47 C46 0.961 . S
H48 C46 0.961 . S
H49 C46 0.960 . S
C50 N51 1.342 . S
C50 C54 1.401 . S
C50 C55 1.499 . S
N51 Co34 1.989 . S
N51 C50 1.342 . S
N51 N52 1.388 . S
N52 Co35 1.993 . S
N52 N51 1.388 . S
N52 C53 1.346 . S
C53 N52 1.346 . S
C53 C54 1.396 . S
C53 C63 1.510 . S
C54 C50 1.401 . S
C54 C53 1.396 . S
C55 C50 1.499 . S
C55 H56 0.959 . S
C55 H57 0.960 . S
C55 H58 0.961 . S
H56 C55 0.959 . S
H57 C55 0.960 . S
H58 C55 0.961 . S
O59 Co34 1.967 . S
O59 C67 1.258 . S
O60 Co35 1.941 . S
O60 C67 1.266 . S
H61 C63 0.959 . S
H62 C63 0.961 . S
C63 C53 1.510 . S
C63 H61 0.959 . S
C63 H62 0.961 . S
C63 H64 0.960 . S
H64 C63 0.960 . S
H65 N45 0.862 . S
O66 Co34 1.920 . S
O66 C39 1.289 1_554 S
C67 O59 1.258 . S
C67 O60 1.266 . S
Co68 O71 1.970 . S
Co68 N85 1.989 . S
Co68 O93 1.967 . S
Co68 O100 1.920 . S
Co69 O72 1.966 . S
Co69 N78 2.022 . S
Co69 N86 1.993 . S
Co69 O94 1.941 . S
C70 O71 1.258 . S
C70 O72 1.263 . S
O71 Co68 1.970 . S
O71 C70 1.258 . S
O72 Co69 1.966 . S
O72 C70 1.263 . S
C73 O74 1.235 . S
C73 O100 1.289 . S
O74 C73 1.235 . S
C75 C77 1.400 . S
C75 N78 1.351 . S
C75 C80 1.501 . S
C76 C77 1.387 . S
C76 N79 1.341 . S
C77 C75 1.400 . S
C77 C76 1.387 . S
N78 Co69 2.022 . S
N78 C75 1.351 . S
N78 N79 1.365 . S
N79 C76 1.341 . S
N79 N78 1.365 . S
N79 H99 0.862 . S
C80 C75 1.501 . S
C80 H81 0.961 . S
C80 H82 0.961 . S
C80 H83 0.960 . S
H81 C80 0.961 . S
H82 C80 0.961 . S
H83 C80 0.960 . S
C84 N85 1.342 . S
C84 C88 1.401 . S
C84 C89 1.499 . S
N85 Co68 1.989 . S
N85 C84 1.342 . S
N85 N86 1.388 . S
N86 Co69 1.993 . S
N86 N85 1.388 . S
N86 C87 1.346 . S
C87 N86 1.346 . S
C87 C88 1.396 . S
C87 C97 1.510 . S
C88 C84 1.401 . S
C88 C87 1.396 . S
C89 C84 1.499 . S
C89 H90 0.959 . S
C89 H91 0.960 . S
C89 H92 0.961 . S
H90 C89 0.959 . S
H91 C89 0.960 . S
H92 C89 0.961 . S
O93 Co68 1.967 . S
O93 C101 1.258 . S
O94 Co69 1.941 . S
O94 C101 1.266 . S
H95 C97 0.959 . S
H96 C97 0.961 . S
C97 C87 1.510 . S
C97 H95 0.959 . S
C97 H96 0.961 . S
C97 H98 0.960 . S
H98 C97 0.960 . S
H99 N79 0.862 . S
O100 Co68 1.920 . S
O100 C73 1.289 . S
C101 O93 1.258 . S
C101 O94 1.266 . S
Co102 O105 1.970 . S
Co102 N119 1.989 . S
Co102 O127 1.967 . S
Co102 O134 1.920 . S
Co103 O106 1.966 . S
Co103 N112 2.022 . S
Co103 N120 1.993 . S
Co103 O128 1.941 . S
C104 O105 1.258 . S
C104 O106 1.263 . S
O105 Co102 1.970 . S
O105 C104 1.258 . S
O106 Co103 1.966 . S
O106 C104 1.263 . S
C107 O108 1.235 . S
C107 O134 1.289 1_556 S
O108 C107 1.235 . S
C109 C111 1.400 . S
C109 N112 1.351 . S
C109 C114 1.501 . S
C110 C111 1.387 . S
C110 N113 1.341 . S
C111 C109 1.400 . S
C111 C110 1.387 . S
N112 Co103 2.022 . S
N112 C109 1.351 . S
N112 N113 1.365 . S
N113 C110 1.341 . S
N113 N112 1.365 . S
N113 H133 0.862 . S
C114 C109 1.501 . S
C114 H115 0.961 . S
C114 H116 0.961 . S
C114 H117 0.960 . S
H115 C114 0.961 . S
H116 C114 0.961 . S
H117 C114 0.960 . S
C118 N119 1.342 . S
C118 C122 1.401 . S
C118 C123 1.499 . S
N119 Co102 1.989 . S
N119 C118 1.342 . S
N119 N120 1.388 . S
N120 Co103 1.993 . S
N120 N119 1.388 . S
N120 C121 1.346 . S
C121 N120 1.346 . S
C121 C122 1.396 . S
C121 C131 1.510 . S
C122 C118 1.401 . S
C122 C121 1.396 . S
C123 C118 1.499 . S
C123 H124 0.959 . S
C123 H125 0.960 . S
C123 H126 0.961 . S
H124 C123 0.959 . S
H125 C123 0.960 . S
H126 C123 0.961 . S
O127 Co102 1.967 . S
O127 C135 1.258 . S
O128 Co103 1.941 . S
O128 C135 1.266 . S
H129 C131 0.959 . S
H130 C131 0.961 . S
C131 C121 1.510 . S
C131 H129 0.959 . S
C131 H130 0.961 . S
C131 H132 0.960 . S
H132 C131 0.960 . S
H133 N113 0.862 . S
O134 Co102 1.920 . S
O134 C107 1.289 1_554 S
C135 O127 1.258 . S
C135 O128 1.266 . S
Co136 O139 1.970 . S
Co136 N153 1.989 . S
Co136 O161 1.967 . S
Co136 O168 1.920 . S
Co137 O140 1.966 . S
Co137 N146 2.022 . S
Co137 N154 1.993 . S
Co137 O162 1.941 . S
C138 O139 1.258 . S
C138 O140 1.263 . S
O139 Co136 1.970 . S
O139 C138 1.258 . S
O140 Co137 1.966 . S
O140 C138 1.263 . S
C141 O142 1.235 . S
C141 O168 1.289 . S
O142 C141 1.235 . S
C143 C145 1.400 . S
C143 N146 1.351 . S
C143 C148 1.501 . S
C144 C145 1.387 . S
C144 N147 1.341 . S
C145 C143 1.400 . S
C145 C144 1.387 . S
N146 Co137 2.022 . S
N146 C143 1.351 . S
N146 N147 1.365 . S
N147 C144 1.341 . S
N147 N146 1.365 . S
N147 H167 0.862 . S
C148 C143 1.501 . S
C148 H149 0.961 . S
C148 H150 0.961 . S
C148 H151 0.960 . S
H149 C148 0.961 . S
H150 C148 0.961 . S
H151 C148 0.960 . S
C152 N153 1.342 . S
C152 C156 1.401 . S
C152 C157 1.499 . S
N153 Co136 1.989 . S
N153 C152 1.342 . S
N153 N154 1.388 . S
N154 Co137 1.993 . S
N154 N153 1.388 . S
N154 C155 1.346 . S
C155 N154 1.346 . S
C155 C156 1.396 . S
C155 C165 1.510 . S
C156 C152 1.401 . S
C156 C155 1.396 . S
C157 C152 1.499 . S
C157 H158 0.959 . S
C157 H159 0.960 . S
C157 H160 0.961 . S
H158 C157 0.959 . S
H159 C157 0.960 . S
H160 C157 0.961 . S
O161 Co136 1.967 . S
O161 C169 1.258 . S
O162 Co137 1.941 . S
O162 C169 1.266 . S
H163 C165 0.959 . S
H164 C165 0.961 . S
C165 C155 1.510 . S
C165 H163 0.959 . S
C165 H164 0.961 . S
C165 H166 0.960 . S
H166 C165 0.960 . S
H167 N147 0.862 . S
O168 Co136 1.920 . S
O168 C141 1.289 . S
C169 O161 1.258 . S
C169 O162 1.266 . S
Co170 O173 1.970 . S
Co170 N187 1.989 . S
Co170 O195 1.967 . S
Co170 O202 1.920 . S
Co171 O174 1.966 . S
Co171 N180 2.022 . S
Co171 N188 1.993 . S
Co171 O196 1.941 . S
C172 O173 1.258 . S
C172 O174 1.263 . S
O173 Co170 1.970 . S
O173 C172 1.258 . S
O174 Co171 1.966 . S
O174 C172 1.263 . S
C175 O176 1.235 . S
C175 O202 1.289 1_554 S
O176 C175 1.235 . S
C177 C179 1.400 . S
C177 N180 1.351 . S
C177 C182 1.501 . S
C178 C179 1.387 . S
C178 N181 1.341 . S
C179 C177 1.400 . S
C179 C178 1.387 . S
N180 Co171 2.022 . S
N180 C177 1.351 . S
N180 N181 1.365 . S
N181 C178 1.341 . S
N181 N180 1.365 . S
N181 H201 0.862 . S
C182 C177 1.501 . S
C182 H183 0.961 . S
C182 H184 0.961 . S
C182 H185 0.960 . S
H183 C182 0.961 . S
H184 C182 0.961 . S
H185 C182 0.960 . S
C186 N187 1.342 . S
C186 C190 1.401 . S
C186 C191 1.499 . S
N187 Co170 1.989 . S
N187 C186 1.342 . S
N187 N188 1.388 . S
N188 Co171 1.993 . S
N188 N187 1.388 . S
N188 C189 1.346 . S
C189 N188 1.346 . S
C189 C190 1.396 . S
C189 C199 1.510 . S
C190 C186 1.401 . S
C190 C189 1.396 . S
C191 C186 1.499 . S
C191 H192 0.968 . S
C191 H193 0.960 . S
C191 H194 0.961 1_655 S
H192 C191 0.968 . S
H193 C191 0.960 . S
H194 C191 0.961 1_455 S
O195 Co170 1.967 . S
O195 C203 1.258 . S
O196 Co171 1.941 . S
O196 C203 1.266 . S
H197 C199 0.959 . S
H198 C199 0.961 . S
C199 C189 1.510 . S
C199 H197 0.959 . S
C199 H198 0.961 . S
C199 H200 0.960 . S
H200 C199 0.960 . S
H201 N181 0.862 . S
O202 Co170 1.920 . S
O202 C175 1.289 1_556 S
C203 O195 1.258 . S
C203 O196 1.266 . S
Co204 O207 1.970 . S
Co204 N221 1.989 . S
Co204 O229 1.967 . S
Co204 O236 1.920 . S
Co205 O208 1.966 . S
Co205 N214 2.022 . S
Co205 N222 1.993 . S
Co205 O230 1.941 . S
C206 O207 1.258 . S
C206 O208 1.263 . S
O207 Co204 1.970 . S
O207 C206 1.258 . S
O208 Co205 1.966 . S
O208 C206 1.263 . S
C209 O210 1.235 . S
C209 O236 1.289 . S
O210 C209 1.235 . S
C211 C213 1.400 . S
C211 N214 1.351 . S
C211 C216 1.501 . S
C212 C213 1.387 . S
C212 N215 1.341 . S
C213 C211 1.400 . S
C213 C212 1.387 . S
N214 Co205 2.022 . S
N214 C211 1.351 . S
N214 N215 1.365 . S
N215 C212 1.341 . S
N215 N214 1.365 . S
N215 H235 0.862 . S
C216 C211 1.501 . S
C216 H217 0.961 . S
C216 H218 0.961 . S
C216 H219 0.960 . S
H217 C216 0.961 . S
H218 C216 0.961 . S
H219 C216 0.960 . S
C220 N221 1.342 . S
C220 C224 1.401 . S
C220 C225 1.499 . S
N221 Co204 1.989 . S
N221 C220 1.342 . S
N221 N222 1.388 . S
N222 Co205 1.993 . S
N222 N221 1.388 . S
N222 C223 1.346 . S
C223 N222 1.346 . S
C223 C224 1.396 . S
C223 C233 1.510 . S
C224 C220 1.401 . S
C224 C223 1.396 . S
C225 C220 1.499 . S
C225 H226 0.959 . S
C225 H227 0.960 . S
C225 H228 0.961 . S
H226 C225 0.959 . S
H227 C225 0.960 . S
H228 C225 0.961 . S
O229 Co204 1.967 . S
O229 C237 1.258 . S
O230 Co205 1.941 . S
O230 C237 1.266 . S
H231 C233 0.959 . S
H232 C233 0.961 . S
C233 C223 1.510 . S
C233 H231 0.959 . S
C233 H232 0.961 . S
C233 H234 0.960 . S
H234 C233 0.960 . S
H235 N215 0.862 . S
O236 Co204 1.920 . S
O236 C209 1.289 . S
C237 O229 1.258 . S
C237 O230 1.266 . S
Co238 O241 1.970 . S
Co238 N255 1.989 . S
Co238 O263 1.967 . S
Co238 O270 1.920 . S
Co239 O242 1.966 . S
Co239 N248 2.022 . S
Co239 N256 1.993 . S
Co239 O264 1.941 . S
C240 O241 1.258 . S
C240 O242 1.263 . S
O241 Co238 1.970 . S
O241 C240 1.258 . S
O242 Co239 1.966 . S
O242 C240 1.263 . S
C243 O244 1.235 . S
C243 O270 1.289 1_554 S
O244 C243 1.235 . S
C245 C247 1.400 . S
C245 N248 1.351 . S
C245 C250 1.501 . S
C246 C247 1.387 . S
C246 N249 1.341 . S
C247 C245 1.400 . S
C247 C246 1.387 . S
N248 Co239 2.022 . S
N248 C245 1.351 . S
N248 N249 1.365 . S
N249 C246 1.341 . S
N249 N248 1.365 . S
N249 H269 0.862 . S
C250 C245 1.501 . S
C250 H251 0.961 . S
C250 H252 0.961 . S
C250 H253 0.960 . S
H251 C250 0.961 . S
H252 C250 0.961 . S
H253 C250 0.960 . S
C254 N255 1.342 . S
C254 C258 1.401 . S
C254 C259 1.499 . S
N255 Co238 1.989 . S
N255 C254 1.342 . S
N255 N256 1.388 . S
N256 Co239 1.993 . S
N256 N255 1.388 . S
N256 C257 1.346 . S
C257 N256 1.346 . S
C257 C258 1.396 . S
C257 C267 1.510 . S
C258 C254 1.401 . S
C258 C257 1.396 . S
C259 C254 1.499 . S
C259 H260 0.968 . S
C259 H261 0.960 . S
C259 H262 0.961 1_455 S
H260 C259 0.968 . S
H261 C259 0.960 . S
H262 C259 0.961 1_655 S
O263 Co238 1.967 . S
O263 C271 1.258 . S
O264 Co239 1.941 . S
O264 C271 1.266 . S
H265 C267 0.959 . S
H266 C267 0.961 . S
C267 C257 1.510 . S
C267 H265 0.959 . S
C267 H266 0.961 . S
C267 H268 0.960 . S
H268 C267 0.960 . S
H269 N249 0.862 . S
O270 Co238 1.920 . S
O270 C243 1.289 1_556 S
C271 O263 1.258 . S
C271 O264 1.266 . S
Co272 O275 1.970 . S
Co272 N289 1.989 . S
Co272 O297 1.967 . S
Co272 O304 1.920 . S
Co273 O276 1.966 . S
Co273 N282 2.022 . S
Co273 N290 1.993 . S
Co273 O298 1.941 . S
C274 O275 1.258 . S
C274 O276 1.263 . S
O275 Co272 1.970 . S
O275 C274 1.258 . S
O276 Co273 1.966 . S
O276 C274 1.263 . S
C277 O278 1.235 . S
C277 O304 1.289 . S
O278 C277 1.235 . S
C279 C281 1.400 . S
C279 N282 1.351 . S
C279 C284 1.501 . S
C280 C281 1.387 . S
C280 N283 1.341 . S
C281 C279 1.400 . S
C281 C280 1.387 . S
N282 Co273 2.022 . S
N282 C279 1.351 . S
N282 N283 1.365 . S
N283 C280 1.341 . S
N283 N282 1.365 . S
N283 H303 0.862 . S
C284 C279 1.501 . S
C284 H285 0.961 . S
C284 H286 0.961 . S
C284 H287 0.960 . S
H285 C284 0.961 . S
H286 C284 0.961 . S
H287 C284 0.960 . S
C288 N289 1.342 . S
C288 C292 1.401 . S
C288 C293 1.499 . S
N289 Co272 1.989 . S
N289 C288 1.342 . S
N289 N290 1.388 . S
N290 Co273 1.993 . S
N290 N289 1.388 . S
N290 C291 1.346 . S
C291 N290 1.346 . S
C291 C292 1.396 . S
C291 C301 1.510 . S
C292 C288 1.401 . S
C292 C291 1.396 . S
C293 C288 1.499 . S
C293 H294 0.959 . S
C293 H295 0.960 . S
C293 H296 0.961 . S
H294 C293 0.959 . S
H295 C293 0.960 . S
H296 C293 0.961 . S
O297 Co272 1.967 . S
O297 C305 1.258 . S
O298 Co273 1.941 . S
O298 C305 1.266 . S
H299 C301 0.959 . S
H300 C301 0.961 . S
C301 C291 1.510 . S
C301 H299 0.959 . S
C301 H300 0.961 . S
C301 H302 0.960 . S
H302 C301 0.960 . S
H303 N283 0.862 . S
O304 Co272 1.920 . S
O304 C277 1.289 . S
C305 O297 1.258 . S
C305 O298 1.266 . S
Co306 O309 1.970 . S
Co306 N323 1.989 . S
Co306 O331 1.967 . S
Co306 O338 1.920 . S
Co307 O310 1.966 . S
Co307 N316 2.022 . S
Co307 N324 1.993 . S
Co307 O332 1.941 . S
C308 O309 1.258 . S
C308 O310 1.263 . S
O309 Co306 1.970 . S
O309 C308 1.258 . S
O310 Co307 1.966 . S
O310 C308 1.263 . S
C311 O312 1.235 . S
C311 O338 1.289 . S
O312 C311 1.235 . S
C313 C315 1.400 . S
C313 N316 1.351 . S
C313 C318 1.501 . S
C314 C315 1.387 . S
C314 N317 1.341 . S
C315 C313 1.400 . S
C315 C314 1.387 . S
N316 Co307 2.022 . S
N316 C313 1.351 . S
N316 N317 1.365 . S
N317 C314 1.341 . S
N317 N316 1.365 . S
N317 H337 0.862 . S
C318 C313 1.501 . S
C318 H319 0.961 . S
C318 H320 0.961 . S
C318 H321 0.960 . S
H319 C318 0.961 . S
H320 C318 0.961 . S
H321 C318 0.960 . S
C322 N323 1.342 . S
C322 C326 1.401 . S
C322 C327 1.499 . S
N323 Co306 1.989 . S
N323 C322 1.342 . S
N323 N324 1.388 . S
N324 Co307 1.993 . S
N324 N323 1.388 . S
N324 C325 1.346 . S
C325 N324 1.346 . S
C325 C326 1.396 . S
C325 C335 1.510 . S
C326 C322 1.401 . S
C326 C325 1.396 . S
C327 C322 1.499 . S
C327 H328 0.968 . S
C327 H329 0.960 . S
C327 H330 0.961 1_556 S
H328 C327 0.968 . S
H329 C327 0.960 . S
H330 C327 0.961 1_554 S
O331 Co306 1.967 . S
O331 C339 1.258 . S
O332 Co307 1.941 . S
O332 C339 1.266 . S
H333 C335 0.959 . S
H334 C335 0.961 . S
C335 C325 1.510 . S
C335 H333 0.959 . S
C335 H334 0.961 . S
C335 H336 0.960 . S
H336 C335 0.960 . S
H337 N317 0.862 . S
O338 Co306 1.920 . S
O338 C311 1.289 . S
C339 O331 1.258 . S
C339 O332 1.266 . S
Co340 O343 1.970 . S
Co340 N357 1.989 . S
Co340 O365 1.967 . S
Co340 O372 1.920 . S
Co341 O344 1.966 . S
Co341 N350 2.022 . S
Co341 N358 1.993 . S
Co341 O366 1.941 . S
C342 O343 1.258 . S
C342 O344 1.263 . S
O343 Co340 1.970 . S
O343 C342 1.258 . S
O344 Co341 1.966 . S
O344 C342 1.263 . S
C345 O346 1.235 . S
C345 O372 1.289 . S
O346 C345 1.235 . S
C347 C349 1.400 . S
C347 N350 1.351 . S
C347 C352 1.501 . S
C348 C349 1.387 . S
C348 N351 1.341 . S
C349 C347 1.400 . S
C349 C348 1.387 . S
N350 Co341 2.022 . S
N350 C347 1.351 . S
N350 N351 1.365 . S
N351 C348 1.341 . S
N351 N350 1.365 . S
N351 H371 0.862 . S
C352 C347 1.501 . S
C352 H353 0.961 . S
C352 H354 0.961 . S
C352 H355 0.960 . S
H353 C352 0.961 . S
H354 C352 0.961 . S
H355 C352 0.960 . S
C356 N357 1.342 . S
C356 C360 1.401 . S
C356 C361 1.499 . S
N357 Co340 1.989 . S
N357 C356 1.342 . S
N357 N358 1.388 . S
N358 Co341 1.993 . S
N358 N357 1.388 . S
N358 C359 1.346 . S
C359 N358 1.346 . S
C359 C360 1.396 . S
C359 C369 1.510 . S
C360 C356 1.401 . S
C360 C359 1.396 . S
C361 C356 1.499 . S
C361 H362 0.959 . S
C361 H363 0.960 . S
C361 H364 0.961 . S
H362 C361 0.959 . S
H363 C361 0.960 . S
H364 C361 0.961 . S
O365 Co340 1.967 . S
O365 C373 1.258 . S
O366 Co341 1.941 . S
O366 C373 1.266 . S
H367 C369 0.959 . S
H368 C369 0.961 . S
C369 C359 1.510 . S
C369 H367 0.959 . S
C369 H368 0.961 . S
C369 H370 0.960 . S
H370 C369 0.960 . S
H371 N351 0.862 . S
O372 Co340 1.920 . S
O372 C345 1.289 . S
C373 O365 1.258 . S
C373 O366 1.266 . S
Co374 O377 1.970 . S
Co374 N391 1.989 . S
Co374 O399 1.967 . S
Co374 O406 1.920 . S
Co375 O378 1.966 . S
Co375 N384 2.022 . S
Co375 N392 1.993 . S
Co375 O400 1.941 . S
C376 O377 1.258 . S
C376 O378 1.263 . S
O377 Co374 1.970 . S
O377 C376 1.258 . S
O378 Co375 1.966 . S
O378 C376 1.263 . S
C379 O380 1.235 . S
C379 O406 1.289 1_545 S
O380 C379 1.235 . S
C381 C383 1.400 . S
C381 N384 1.351 . S
C381 C386 1.501 . S
C382 C383 1.387 . S
C382 N385 1.341 . S
C383 C381 1.400 . S
C383 C382 1.387 . S
N384 Co375 2.022 . S
N384 C381 1.351 . S
N384 N385 1.365 . S
N385 C382 1.341 . S
N385 N384 1.365 . S
N385 H405 0.862 . S
C386 C381 1.501 . S
C386 H387 0.961 . S
C386 H388 0.961 . S
C386 H389 0.960 . S
H387 C386 0.961 . S
H388 C386 0.961 . S
H389 C386 0.960 . S
C390 N391 1.342 . S
C390 C394 1.401 . S
C390 C395 1.499 . S
N391 Co374 1.989 . S
N391 C390 1.342 . S
N391 N392 1.388 . S
N392 Co375 1.993 . S
N392 N391 1.388 . S
N392 C393 1.346 . S
C393 N392 1.346 . S
C393 C394 1.396 . S
C393 C403 1.510 . S
C394 C390 1.401 . S
C394 C393 1.396 . S
C395 C390 1.499 . S
C395 H396 0.968 . S
C395 H397 0.960 . S
C395 H398 0.961 1_556 S
H396 C395 0.968 . S
H397 C395 0.960 . S
H398 C395 0.961 1_554 S
O399 Co374 1.967 . S
O399 C407 1.258 . S
O400 Co375 1.941 . S
O400 C407 1.266 . S
H401 C403 0.959 . S
H402 C403 0.961 . S
C403 C393 1.510 . S
C403 H401 0.959 . S
C403 H402 0.961 . S
C403 H404 0.960 . S
H404 C403 0.960 . S
H405 N385 0.862 . S
O406 Co374 1.920 . S
O406 C379 1.289 1_565 S
C407 O399 1.258 . S
C407 O400 1.266 . S
Co408 O411 1.970 . S
Co408 N425 1.989 . S
Co408 O433 1.967 . S
Co408 O440 1.920 . S
Co409 O412 1.966 . S
Co409 N418 2.022 . S
Co409 N426 1.993 . S
Co409 O434 1.941 . S
C410 O411 1.258 . S
C410 O412 1.263 . S
O411 Co408 1.970 . S
O411 C410 1.258 . S
O412 Co409 1.966 . S
O412 C410 1.263 . S
C413 O414 1.235 . S
C413 O440 1.289 . S
O414 C413 1.235 . S
C415 C417 1.400 . S
C415 N418 1.351 . S
C415 C420 1.501 . S
C416 C417 1.387 . S
C416 N419 1.341 . S
C417 C415 1.400 . S
C417 C416 1.387 . S
N418 Co409 2.022 . S
N418 C415 1.351 . S
N418 N419 1.365 . S
N419 C416 1.341 . S
N419 N418 1.365 . S
N419 H439 0.862 . S
C420 C415 1.501 . S
C420 H421 0.961 . S
C420 H422 0.961 . S
C420 H423 0.960 . S
H421 C420 0.961 . S
H422 C420 0.961 . S
H423 C420 0.960 . S
C424 N425 1.342 . S
C424 C428 1.401 . S
C424 C429 1.499 . S
N425 Co408 1.989 . S
N425 C424 1.342 . S
N425 N426 1.388 . S
N426 Co409 1.993 . S
N426 N425 1.388 . S
N426 C427 1.346 . S
C427 N426 1.346 . S
C427 C428 1.396 . S
C427 C437 1.510 . S
C428 C424 1.401 . S
C428 C427 1.396 . S
C429 C424 1.499 . S
C429 H430 0.959 . S
C429 H431 0.960 . S
C429 H432 0.961 . S
H430 C429 0.959 . S
H431 C429 0.960 . S
H432 C429 0.961 . S
O433 Co408 1.967 . S
O433 C441 1.258 . S
O434 Co409 1.941 . S
O434 C441 1.266 . S
H435 C437 0.959 . S
H436 C437 0.961 . S
C437 C427 1.510 . S
C437 H435 0.959 . S
C437 H436 0.961 . S
C437 H438 0.960 . S
H438 C437 0.960 . S
H439 N419 0.862 . S
O440 Co408 1.920 . S
O440 C413 1.289 . S
C441 O433 1.258 . S
C441 O434 1.266 . S
Co442 O445 1.970 . S
Co442 N459 1.989 . S
Co442 O467 1.967 . S
Co442 O474 1.920 . S
Co443 O446 1.966 . S
Co443 N452 2.022 . S
Co443 N460 1.993 . S
Co443 O468 1.941 . S
C444 O445 1.258 . S
C444 O446 1.263 . S
O445 Co442 1.970 . S
O445 C444 1.258 . S
O446 Co443 1.966 . S
O446 C444 1.263 . S
C447 O448 1.235 . S
C447 O474 1.289 . S
O448 C447 1.235 . S
C449 C451 1.400 . S
C449 N452 1.351 . S
C449 C454 1.501 . S
C450 C451 1.387 . S
C450 N453 1.341 . S
C451 C449 1.400 . S
C451 C450 1.387 . S
N452 Co443 2.022 . S
N452 C449 1.351 . S
N452 N453 1.365 . S
N453 C450 1.341 . S
N453 N452 1.365 . S
N453 H473 0.862 . S
C454 C449 1.501 . S
C454 H455 0.961 . S
C454 H456 0.961 . S
C454 H457 0.960 . S
H455 C454 0.961 . S
H456 C454 0.961 . S
H457 C454 0.960 . S
C458 N459 1.342 . S
C458 C462 1.401 . S
C458 C463 1.499 . S
N459 Co442 1.989 . S
N459 C458 1.342 . S
N459 N460 1.388 . S
N460 Co443 1.993 . S
N460 N459 1.388 . S
N460 C461 1.346 . S
C461 N460 1.346 . S
C461 C462 1.396 . S
C461 C471 1.510 . S
C462 C458 1.401 . S
C462 C461 1.396 . S
C463 C458 1.499 . S
C463 H464 0.968 . S
C463 H465 0.960 . S
C463 H466 0.961 1_554 S
H464 C463 0.968 . S
H465 C463 0.960 . S
H466 C463 0.961 1_556 S
O467 Co442 1.967 . S
O467 C475 1.258 . S
O468 Co443 1.941 . S
O468 C475 1.266 . S
H469 C471 0.959 . S
H470 C471 0.961 . S
C471 C461 1.510 . S
C471 H469 0.959 . S
C471 H470 0.961 . S
C471 H472 0.960 . S
H472 C471 0.960 . S
H473 N453 0.862 . S
O474 Co442 1.920 . S
O474 C447 1.289 . S
C475 O467 1.258 . S
C475 O468 1.266 . S
Co476 O479 1.970 . S
Co476 N493 1.989 . S
Co476 O501 1.967 . S
Co476 O508 1.920 . S
Co477 O480 1.966 . S
Co477 N486 2.022 . S
Co477 N494 1.993 . S
Co477 O502 1.941 . S
C478 O479 1.258 . S
C478 O480 1.263 . S
O479 Co476 1.970 . S
O479 C478 1.258 . S
O480 Co477 1.966 . S
O480 C478 1.263 . S
C481 O482 1.235 . S
C481 O508 1.289 . S
O482 C481 1.235 . S
C483 C485 1.400 . S
C483 N486 1.351 . S
C483 C488 1.501 . S
C484 C485 1.387 . S
C484 N487 1.341 . S
C485 C483 1.400 . S
C485 C484 1.387 . S
N486 Co477 2.022 . S
N486 C483 1.351 . S
N486 N487 1.365 . S
N487 C484 1.341 . S
N487 N486 1.365 . S
N487 H507 0.862 . S
C488 C483 1.501 . S
C488 H489 0.961 . S
C488 H490 0.961 . S
C488 H491 0.960 . S
H489 C488 0.961 . S
H490 C488 0.961 . S
H491 C488 0.960 . S
C492 N493 1.342 . S
C492 C496 1.401 . S
C492 C497 1.499 . S
N493 Co476 1.989 . S
N493 C492 1.342 . S
N493 N494 1.388 . S
N494 Co477 1.993 . S
N494 N493 1.388 . S
N494 C495 1.346 . S
C495 N494 1.346 . S
C495 C496 1.396 . S
C495 C505 1.510 . S
C496 C492 1.401 . S
C496 C495 1.396 . S
C497 C492 1.499 . S
C497 H498 0.959 . S
C497 H499 0.960 . S
C497 H500 0.961 . S
H498 C497 0.959 . S
H499 C497 0.960 . S
H500 C497 0.961 . S
O501 Co476 1.967 . S
O501 C509 1.258 . S
O502 Co477 1.941 . S
O502 C509 1.266 . S
H503 C505 0.959 . S
H504 C505 0.961 . S
C505 C495 1.510 . S
C505 H503 0.959 . S
C505 H504 0.961 . S
C505 H506 0.960 . S
H506 C505 0.960 . S
H507 N487 0.862 . S
O508 Co476 1.920 . S
O508 C481 1.289 . S
C509 O501 1.258 . S
C509 O502 1.266 . S
Co510 O513 1.970 . S
Co510 N527 1.989 . S
Co510 O535 1.967 . S
Co510 O542 1.920 . S
Co511 O514 1.966 . S
Co511 N520 2.022 . S
Co511 N528 1.993 . S
Co511 O536 1.941 . S
C512 O513 1.258 . S
C512 O514 1.263 . S
O513 Co510 1.970 . S
O513 C512 1.258 . S
O514 Co511 1.966 . S
O514 C512 1.263 . S
C515 O516 1.235 . S
C515 O542 1.289 1_545 S
O516 C515 1.235 . S
C517 C519 1.400 . S
C517 N520 1.351 . S
C517 C522 1.501 . S
C518 C519 1.387 . S
C518 N521 1.341 . S
C519 C517 1.400 . S
C519 C518 1.387 . S
N520 Co511 2.022 . S
N520 C517 1.351 . S
N520 N521 1.365 . S
N521 C518 1.341 . S
N521 N520 1.365 . S
N521 H541 0.862 . S
C522 C517 1.501 . S
C522 H523 0.961 . S
C522 H524 0.961 . S
C522 H525 0.960 . S
H523 C522 0.961 . S
H524 C522 0.961 . S
H525 C522 0.960 . S
C526 N527 1.342 . S
C526 C530 1.401 . S
C526 C531 1.499 . S
N527 Co510 1.989 . S
N527 C526 1.342 . S
N527 N528 1.388 . S
N528 Co511 1.993 . S
N528 N527 1.388 . S
N528 C529 1.346 . S
C529 N528 1.346 . S
C529 C530 1.396 . S
C529 C539 1.510 . S
C530 C526 1.401 . S
C530 C529 1.396 . S
C531 C526 1.499 . S
C531 H532 0.968 . S
C531 H533 0.960 . S
C531 H534 0.961 1_554 S
H532 C531 0.968 . S
H533 C531 0.960 . S
H534 C531 0.961 1_556 S
O535 Co510 1.967 . S
O535 C543 1.258 . S
O536 Co511 1.941 . S
O536 C543 1.266 . S
H537 C539 0.959 . S
H538 C539 0.961 . S
C539 C529 1.510 . S
C539 H537 0.959 . S
C539 H538 0.961 . S
C539 H540 0.960 . S
H540 C539 0.960 . S
H541 N521 0.862 . S
O542 Co510 1.920 . S
O542 C515 1.289 1_565 S
C543 O535 1.258 . S
C543 O536 1.266 . S
Co544 O547 1.970 . S
Co544 N561 1.989 . S
Co544 O569 1.967 . S
Co544 O576 1.920 . S
Co545 O548 1.966 . S
Co545 N554 2.022 . S
Co545 N562 1.993 . S
Co545 O570 1.941 . S
C546 O547 1.258 . S
C546 O548 1.263 . S
O547 Co544 1.970 . S
O547 C546 1.258 . S
O548 Co545 1.966 . S
O548 C546 1.263 . S
C549 O550 1.235 . S
C549 O576 1.289 . S
O550 C549 1.235 . S
C551 C553 1.400 . S
C551 N554 1.351 . S
C551 C556 1.501 . S
C552 C553 1.387 . S
C552 N555 1.341 . S
C553 C551 1.400 . S
C553 C552 1.387 . S
N554 Co545 2.022 . S
N554 C551 1.351 . S
N554 N555 1.365 . S
N555 C552 1.341 . S
N555 N554 1.365 . S
N555 H575 0.862 . S
C556 C551 1.501 . S
C556 H557 0.961 . S
C556 H558 0.961 . S
C556 H559 0.960 . S
H557 C556 0.961 . S
H558 C556 0.961 . S
H559 C556 0.960 . S
C560 N561 1.342 . S
C560 C564 1.401 . S
C560 C565 1.499 . S
N561 Co544 1.989 . S
N561 C560 1.342 . S
N561 N562 1.388 . S
N562 Co545 1.993 . S
N562 N561 1.388 . S
N562 C563 1.346 . S
C563 N562 1.346 . S
C563 C564 1.396 . S
C563 C573 1.510 . S
C564 C560 1.401 . S
C564 C563 1.396 . S
C565 C560 1.499 . S
C565 H566 0.959 . S
C565 H567 0.960 . S
C565 H568 0.961 . S
H566 C565 0.959 . S
H567 C565 0.960 . S
H568 C565 0.961 . S
O569 Co544 1.967 . S
O569 C577 1.258 . S
O570 Co545 1.941 . S
O570 C577 1.266 . S
H571 C573 0.959 . S
H572 C573 0.961 . S
C573 C563 1.510 . S
C573 H571 0.959 . S
C573 H572 0.961 . S
C573 H574 0.960 . S
H574 C573 0.960 . S
H575 N555 0.862 . S
O576 Co544 1.920 . S
O576 C549 1.289 . S
C577 O569 1.258 . S
C577 O570 1.266 . S
Co578 O581 1.970 . S
Co578 N595 1.989 . S
Co578 O603 1.967 . S
Co578 O610 1.920 . S
Co579 O582 1.966 . S
Co579 N588 2.022 . S
Co579 N596 1.993 . S
Co579 O604 1.941 . S
C580 O581 1.258 . S
C580 O582 1.263 . S
O581 Co578 1.970 . S
O581 C580 1.258 . S
O582 Co579 1.966 . S
O582 C580 1.263 . S
C583 O584 1.235 . S
C583 O610 1.289 . S
O584 C583 1.235 . S
C585 C587 1.400 . S
C585 N588 1.351 . S
C585 C590 1.501 . S
C586 C587 1.387 . S
C586 N589 1.341 . S
C587 C585 1.400 . S
C587 C586 1.387 . S
N588 Co579 2.022 . S
N588 C585 1.351 . S
N588 N589 1.365 . S
N589 C586 1.341 . S
N589 N588 1.365 . S
N589 H609 0.862 . S
C590 C585 1.501 . S
C590 H591 0.961 . S
C590 H592 0.961 . S
C590 H593 0.960 . S
H591 C590 0.961 . S
H592 C590 0.961 . S
H593 C590 0.960 . S
C594 N595 1.342 . S
C594 C598 1.401 . S
C594 C599 1.499 . S
N595 Co578 1.989 . S
N595 C594 1.342 . S
N595 N596 1.388 . S
N596 Co579 1.993 . S
N596 N595 1.388 . S
N596 C597 1.346 . S
C597 N596 1.346 . S
C597 C598 1.396 . S
C597 C607 1.510 . S
C598 C594 1.401 . S
C598 C597 1.396 . S
C599 C594 1.499 . S
C599 H600 0.959 . S
C599 H601 0.960 . S
C599 H602 0.961 . S
H600 C599 0.959 . S
H601 C599 0.960 . S
H602 C599 0.961 . S
O603 Co578 1.967 . S
O603 C611 1.258 . S
O604 Co579 1.941 . S
O604 C611 1.266 . S
H605 C607 0.959 . S
H606 C607 0.961 . S
C607 C597 1.510 . S
C607 H605 0.959 . S
C607 H606 0.961 . S
C607 H608 0.960 . S
H608 C607 0.960 . S
H609 N589 0.862 . S
O610 Co578 1.920 . S
O610 C583 1.289 . S
C611 O603 1.258 . S
C611 O604 1.266 . S
Co612 O615 1.970 . S
Co612 N629 1.989 . S
Co612 O637 1.967 . S
Co612 O644 1.920 . S
Co613 O616 1.966 . S
Co613 N622 2.022 . S
Co613 N630 1.993 . S
Co613 O638 1.941 . S
C614 O615 1.258 . S
C614 O616 1.263 . S
O615 Co612 1.970 . S
O615 C614 1.258 . S
O616 Co613 1.966 . S
O616 C614 1.263 . S
C617 O618 1.235 . S
C617 O644 1.289 1_655 S
O618 C617 1.235 . S
C619 C621 1.400 . S
C619 N622 1.351 . S
C619 C624 1.501 . S
C620 C621 1.387 . S
C620 N623 1.341 . S
C621 C619 1.400 . S
C621 C620 1.387 . S
N622 Co613 2.022 . S
N622 C619 1.351 . S
N622 N623 1.365 . S
N623 C620 1.341 . S
N623 N622 1.365 . S
N623 H643 0.862 . S
C624 C619 1.501 . S
C624 H625 0.961 . S
C624 H626 0.961 . S
C624 H627 0.960 . S
H625 C624 0.961 . S
H626 C624 0.961 . S
H627 C624 0.960 . S
C628 N629 1.342 . S
C628 C632 1.401 . S
C628 C633 1.499 . S
N629 Co612 1.989 . S
N629 C628 1.342 . S
N629 N630 1.388 . S
N630 Co613 1.993 . S
N630 N629 1.388 . S
N630 C631 1.346 . S
C631 N630 1.346 . S
C631 C632 1.396 . S
C631 C641 1.510 . S
C632 C628 1.401 . S
C632 C631 1.396 . S
C633 C628 1.499 . S
C633 H634 0.959 . S
C633 H635 0.960 . S
C633 H636 0.961 . S
H634 C633 0.959 . S
H635 C633 0.960 . S
H636 C633 0.961 . S
O637 Co612 1.967 . S
O637 C645 1.258 . S
O638 Co613 1.941 . S
O638 C645 1.266 . S
H639 C641 0.959 . S
H640 C641 0.961 . S
C641 C631 1.510 . S
C641 H639 0.959 . S
C641 H640 0.961 . S
C641 H642 0.960 . S
H642 C641 0.960 . S
H643 N623 0.862 . S
O644 Co612 1.920 . S
O644 C617 1.289 1_455 S
C645 O637 1.258 . S
C645 O638 1.266 . S
Co646 O649 1.970 . S
Co646 N663 1.989 . S
Co646 O671 1.967 . S
Co646 O678 1.920 . S
Co647 O650 1.966 . S
Co647 N656 2.022 . S
Co647 N664 1.993 . S
Co647 O672 1.941 . S
C648 O649 1.258 . S
C648 O650 1.263 . S
O649 Co646 1.970 . S
O649 C648 1.258 . S
O650 Co647 1.966 . S
O650 C648 1.263 . S
C651 O652 1.235 . S
C651 O678 1.289 . S
O652 C651 1.235 . S
C653 C655 1.400 . S
C653 N656 1.351 . S
C653 C658 1.501 . S
C654 C655 1.387 . S
C654 N657 1.341 . S
C655 C653 1.400 . S
C655 C654 1.387 . S
N656 Co647 2.022 . S
N656 C653 1.351 . S
N656 N657 1.365 . S
N657 C654 1.341 . S
N657 N656 1.365 . S
N657 H677 0.862 . S
C658 C653 1.501 . S
C658 H659 0.961 . S
C658 H660 0.961 . S
C658 H661 0.960 . S
H659 C658 0.961 . S
H660 C658 0.961 . S
H661 C658 0.960 . S
C662 N663 1.342 . S
C662 C666 1.401 . S
C662 C667 1.499 . S
N663 Co646 1.989 . S
N663 C662 1.342 . S
N663 N664 1.388 . S
N664 Co647 1.993 . S
N664 N663 1.388 . S
N664 C665 1.346 . S
C665 N664 1.346 . S
C665 C666 1.396 . S
C665 C675 1.510 . S
C666 C662 1.401 . S
C666 C665 1.396 . S
C667 C662 1.499 . S
C667 H668 0.959 . S
C667 H669 0.960 . S
C667 H670 0.961 . S
H668 C667 0.959 . S
H669 C667 0.960 . S
H670 C667 0.961 . S
O671 Co646 1.967 . S
O671 C679 1.258 . S
O672 Co647 1.941 . S
O672 C679 1.266 . S
H673 C675 0.959 . S
H674 C675 0.961 . S
C675 C665 1.510 . S
C675 H673 0.959 . S
C675 H674 0.961 . S
C675 H676 0.960 . S
H676 C675 0.960 . S
H677 N657 0.862 . S
O678 Co646 1.920 . S
O678 C651 1.289 . S
C679 O671 1.258 . S
C679 O672 1.266 . S
Co680 O683 1.970 . S
Co680 N697 1.989 . S
Co680 O705 1.967 . S
Co680 O712 1.920 . S
Co681 O684 1.966 . S
Co681 N690 2.022 . S
Co681 N698 1.993 . S
Co681 O706 1.941 . S
C682 O683 1.258 . S
C682 O684 1.263 . S
O683 Co680 1.970 . S
O683 C682 1.258 . S
O684 Co681 1.966 . S
O684 C682 1.263 . S
C685 O686 1.235 . S
C685 O712 1.289 . S
O686 C685 1.235 . S
C687 C689 1.400 . S
C687 N690 1.351 . S
C687 C692 1.501 . S
C688 C689 1.387 . S
C688 N691 1.341 . S
C689 C687 1.400 . S
C689 C688 1.387 . S
N690 Co681 2.022 . S
N690 C687 1.351 . S
N690 N691 1.365 . S
N691 C688 1.341 . S
N691 N690 1.365 . S
N691 H711 0.862 . S
C692 C687 1.501 . S
C692 H693 0.961 . S
C692 H694 0.961 . S
C692 H695 0.960 . S
H693 C692 0.961 . S
H694 C692 0.961 . S
H695 C692 0.960 . S
C696 N697 1.342 . S
C696 C700 1.401 . S
C696 C701 1.499 . S
N697 Co680 1.989 . S
N697 C696 1.342 . S
N697 N698 1.388 . S
N698 Co681 1.993 . S
N698 N697 1.388 . S
N698 C699 1.346 . S
C699 N698 1.346 . S
C699 C700 1.396 . S
C699 C709 1.510 . S
C700 C696 1.401 . S
C700 C699 1.396 . S
C701 C696 1.499 . S
C701 H702 0.959 . S
C701 H703 0.960 . S
C701 H704 0.961 . S
H702 C701 0.959 . S
H703 C701 0.960 . S
H704 C701 0.961 . S
O705 Co680 1.967 . S
O705 C713 1.258 . S
O706 Co681 1.941 . S
O706 C713 1.266 . S
H707 C709 0.959 . S
H708 C709 0.961 . S
C709 C699 1.510 . S
C709 H707 0.959 . S
C709 H708 0.961 . S
C709 H710 0.960 . S
H710 C709 0.960 . S
H711 N691 0.862 . S
O712 Co680 1.920 . S
O712 C685 1.289 . S
C713 O705 1.258 . S
C713 O706 1.266 . S
Co714 O717 1.970 . S
Co714 N731 1.989 . S
Co714 O739 1.967 . S
Co714 O746 1.920 . S
Co715 O718 1.966 . S
Co715 N724 2.022 . S
Co715 N732 1.993 . S
Co715 O740 1.941 . S
C716 O717 1.258 . S
C716 O718 1.263 . S
O717 Co714 1.970 . S
O717 C716 1.258 . S
O718 Co715 1.966 . S
O718 C716 1.263 . S
C719 O720 1.235 . S
C719 O746 1.289 . S
O720 C719 1.235 . S
C721 C723 1.400 . S
C721 N724 1.351 . S
C721 C726 1.501 . S
C722 C723 1.387 . S
C722 N725 1.341 . S
C723 C721 1.400 . S
C723 C722 1.387 . S
N724 Co715 2.022 . S
N724 C721 1.351 . S
N724 N725 1.365 . S
N725 C722 1.341 . S
N725 N724 1.365 . S
N725 H745 0.862 . S
C726 C721 1.501 . S
C726 H727 0.961 . S
C726 H728 0.961 . S
C726 H729 0.960 . S
H727 C726 0.961 . S
H728 C726 0.961 . S
H729 C726 0.960 . S
C730 N731 1.342 . S
C730 C734 1.401 . S
C730 C735 1.499 . S
N731 Co714 1.989 . S
N731 C730 1.342 . S
N731 N732 1.388 . S
N732 Co715 1.993 . S
N732 N731 1.388 . S
N732 C733 1.346 . S
C733 N732 1.346 . S
C733 C734 1.396 . S
C733 C743 1.510 . S
C734 C730 1.401 . S
C734 C733 1.396 . S
C735 C730 1.499 . S
C735 H736 0.959 . S
C735 H737 0.960 . S
C735 H738 0.961 . S
H736 C735 0.959 . S
H737 C735 0.960 . S
H738 C735 0.961 . S
O739 Co714 1.967 . S
O739 C747 1.258 . S
O740 Co715 1.941 . S
O740 C747 1.266 . S
H741 C743 0.959 . S
H742 C743 0.961 . S
C743 C733 1.510 . S
C743 H741 0.959 . S
C743 H742 0.961 . S
C743 H744 0.960 . S
H744 C743 0.960 . S
H745 N725 0.862 . S
O746 Co714 1.920 . S
O746 C719 1.289 . S
C747 O739 1.258 . S
C747 O740 1.266 . S
Co748 O751 1.970 . S
Co748 N765 1.989 . S
Co748 O773 1.967 . S
Co748 O780 1.920 . S
Co749 O752 1.966 . S
Co749 N758 2.022 . S
Co749 N766 1.993 . S
Co749 O774 1.941 . S
C750 O751 1.258 . S
C750 O752 1.263 . S
O751 Co748 1.970 . S
O751 C750 1.258 . S
O752 Co749 1.966 . S
O752 C750 1.263 . S
C753 O754 1.235 . S
C753 O780 1.289 1_655 S
O754 C753 1.235 . S
C755 C757 1.400 . S
C755 N758 1.351 . S
C755 C760 1.501 . S
C756 C757 1.387 . S
C756 N759 1.341 . S
C757 C755 1.400 . S
C757 C756 1.387 . S
N758 Co749 2.022 . S
N758 C755 1.351 . S
N758 N759 1.365 . S
N759 C756 1.341 . S
N759 N758 1.365 . S
N759 H779 0.862 . S
C760 C755 1.501 . S
C760 H761 0.961 . S
C760 H762 0.961 . S
C760 H763 0.960 . S
H761 C760 0.961 . S
H762 C760 0.961 . S
H763 C760 0.960 . S
C764 N765 1.342 . S
C764 C768 1.401 . S
C764 C769 1.499 . S
N765 Co748 1.989 . S
N765 C764 1.342 . S
N765 N766 1.388 . S
N766 Co749 1.993 . S
N766 N765 1.388 . S
N766 C767 1.346 . S
C767 N766 1.346 . S
C767 C768 1.396 . S
C767 C777 1.510 . S
C768 C764 1.401 . S
C768 C767 1.396 . S
C769 C764 1.499 . S
C769 H770 0.959 . S
C769 H771 0.960 . S
C769 H772 0.961 . S
H770 C769 0.959 . S
H771 C769 0.960 . S
H772 C769 0.961 . S
O773 Co748 1.967 . S
O773 C781 1.258 . S
O774 Co749 1.941 . S
O774 C781 1.266 . S
H775 C777 0.959 . S
H776 C777 0.961 . S
C777 C767 1.510 . S
C777 H775 0.959 . S
C777 H776 0.961 . S
C777 H778 0.960 . S
H778 C777 0.960 . S
H779 N759 0.862 . S
O780 Co748 1.920 . S
O780 C753 1.289 1_455 S
C781 O773 1.258 . S
C781 O774 1.266 . S
Co782 O785 1.970 . S
Co782 N799 1.989 . S
Co782 O807 1.967 . S
Co782 O814 1.920 . S
Co783 O786 1.966 . S
Co783 N792 2.022 . S
Co783 N800 1.993 . S
Co783 O808 1.941 . S
C784 O785 1.258 . S
C784 O786 1.263 . S
O785 Co782 1.970 . S
O785 C784 1.258 . S
O786 Co783 1.966 . S
O786 C784 1.263 . S
C787 O788 1.235 . S
C787 O814 1.289 1_455 S
O788 C787 1.235 . S
C789 C791 1.400 . S
C789 N792 1.351 . S
C789 C794 1.501 . S
C790 C791 1.387 . S
C790 N793 1.341 . S
C791 C789 1.400 . S
C791 C790 1.387 . S
N792 Co783 2.022 . S
N792 C789 1.351 . S
N792 N793 1.365 . S
N793 C790 1.341 . S
N793 N792 1.365 . S
N793 H813 0.862 . S
C794 C789 1.501 . S
C794 H795 0.961 . S
C794 H796 0.961 . S
C794 H797 0.960 . S
H795 C794 0.961 . S
H796 C794 0.961 . S
H797 C794 0.960 . S
C798 N799 1.342 . S
C798 C802 1.401 . S
C798 C803 1.499 . S
N799 Co782 1.989 . S
N799 C798 1.342 . S
N799 N800 1.388 . S
N800 Co783 1.993 . S
N800 N799 1.388 . S
N800 C801 1.346 . S
C801 N800 1.346 . S
C801 C802 1.396 . S
C801 C811 1.510 . S
C802 C798 1.401 . S
C802 C801 1.396 . S
C803 C798 1.499 . S
C803 H804 0.968 . S
C803 H805 0.960 . S
C803 H806 0.961 1_565 S
H804 C803 0.968 . S
H805 C803 0.960 . S
H806 C803 0.961 1_545 S
O807 Co782 1.967 . S
O807 C815 1.258 . S
O808 Co783 1.941 . S
O808 C815 1.266 . S
H809 C811 0.959 . S
H810 C811 0.961 . S
C811 C801 1.510 . S
C811 H809 0.959 . S
C811 H810 0.961 . S
C811 H812 0.960 . S
H812 C811 0.960 . S
H813 N793 0.862 . S
O814 Co782 1.920 . S
O814 C787 1.289 1_655 S
C815 O807 1.258 . S
C815 O808 1.266 . S
Co816 O819 1.970 . S
Co816 N833 1.989 . S
Co816 O841 1.967 . S
Co816 O848 1.920 . S
Co817 O820 1.966 . S
Co817 N826 2.022 . S
Co817 N834 1.993 . S
Co817 O842 1.941 . S
C818 O819 1.258 . S
C818 O820 1.263 . S
O819 Co816 1.970 . S
O819 C818 1.258 . S
O820 Co817 1.966 . S
O820 C818 1.263 . S
C821 O822 1.235 . S
C821 O848 1.289 . S
O822 C821 1.235 . S
C823 C825 1.400 . S
C823 N826 1.351 . S
C823 C828 1.501 . S
C824 C825 1.387 . S
C824 N827 1.341 . S
C825 C823 1.400 . S
C825 C824 1.387 . S
N826 Co817 2.022 . S
N826 C823 1.351 . S
N826 N827 1.365 . S
N827 C824 1.341 . S
N827 N826 1.365 . S
N827 H847 0.862 . S
C828 C823 1.501 . S
C828 H829 0.961 . S
C828 H830 0.961 . S
C828 H831 0.960 . S
H829 C828 0.961 . S
H830 C828 0.961 . S
H831 C828 0.960 . S
C832 N833 1.342 . S
C832 C836 1.401 . S
C832 C837 1.499 . S
N833 Co816 1.989 . S
N833 C832 1.342 . S
N833 N834 1.388 . S
N834 Co817 1.993 . S
N834 N833 1.388 . S
N834 C835 1.346 . S
C835 N834 1.346 . S
C835 C836 1.396 . S
C835 C845 1.510 . S
C836 C832 1.401 . S
C836 C835 1.396 . S
C837 C832 1.499 . S
C837 H838 0.959 . S
C837 H839 0.960 . S
C837 H840 0.961 . S
H838 C837 0.959 . S
H839 C837 0.960 . S
H840 C837 0.961 . S
O841 Co816 1.967 . S
O841 C849 1.258 . S
O842 Co817 1.941 . S
O842 C849 1.266 . S
H843 C845 0.959 . S
H844 C845 0.961 . S
C845 C835 1.510 . S
C845 H843 0.959 . S
C845 H844 0.961 . S
C845 H846 0.960 . S
H846 C845 0.960 . S
H847 N827 0.862 . S
O848 Co816 1.920 . S
O848 C821 1.289 . S
C849 O841 1.258 . S
C849 O842 1.266 . S
Co850 O853 1.970 . S
Co850 N867 1.989 . S
Co850 O875 1.967 . S
Co850 O882 1.920 . S
Co851 O854 1.966 . S
Co851 N860 2.022 . S
Co851 N868 1.993 . S
Co851 O876 1.941 . S
C852 O853 1.258 . S
C852 O854 1.263 . S
O853 Co850 1.970 . S
O853 C852 1.258 . S
O854 Co851 1.966 . S
O854 C852 1.263 . S
C855 O856 1.235 . S
C855 O882 1.289 . S
O856 C855 1.235 . S
C857 C859 1.400 . S
C857 N860 1.351 . S
C857 C862 1.501 . S
C858 C859 1.387 . S
C858 N861 1.341 . S
C859 C857 1.400 . S
C859 C858 1.387 . S
N860 Co851 2.022 . S
N860 C857 1.351 . S
N860 N861 1.365 . S
N861 C858 1.341 . S
N861 N860 1.365 . S
N861 H881 0.862 . S
C862 C857 1.501 . S
C862 H863 0.961 . S
C862 H864 0.961 . S
C862 H865 0.960 . S
H863 C862 0.961 . S
H864 C862 0.961 . S
H865 C862 0.960 . S
C866 N867 1.342 . S
C866 C870 1.401 . S
C866 C871 1.499 . S
N867 Co850 1.989 . S
N867 C866 1.342 . S
N867 N868 1.388 . S
N868 Co851 1.993 . S
N868 N867 1.388 . S
N868 C869 1.346 . S
C869 N868 1.346 . S
C869 C870 1.396 . S
C869 C879 1.510 . S
C870 C866 1.401 . S
C870 C869 1.396 . S
C871 C866 1.499 . S
C871 H872 0.968 . S
C871 H873 0.960 . S
C871 H874 0.961 1_455 S
H872 C871 0.968 . S
H873 C871 0.960 . S
H874 C871 0.961 1_655 S
O875 Co850 1.967 . S
O875 C883 1.258 . S
O876 Co851 1.941 . S
O876 C883 1.266 . S
H877 C879 0.959 . S
H878 C879 0.961 . S
C879 C869 1.510 . S
C879 H877 0.959 . S
C879 H878 0.961 . S
C879 H880 0.960 . S
H880 C879 0.960 . S
H881 N861 0.862 . S
O882 Co850 1.920 . S
O882 C855 1.289 . S
C883 O875 1.258 . S
C883 O876 1.266 . S
Co884 O887 1.970 . S
Co884 N901 1.989 . S
Co884 O909 1.967 . S
Co884 O916 1.920 . S
Co885 O888 1.966 . S
Co885 N894 2.022 . S
Co885 N902 1.993 . S
Co885 O910 1.941 . S
C886 O887 1.258 . S
C886 O888 1.263 . S
O887 Co884 1.970 . S
O887 C886 1.258 . S
O888 Co885 1.966 . S
O888 C886 1.263 . S
C889 O890 1.235 . S
C889 O916 1.289 . S
O890 C889 1.235 . S
C891 C893 1.400 . S
C891 N894 1.351 . S
C891 C896 1.501 . S
C892 C893 1.387 . S
C892 N895 1.341 . S
C893 C891 1.400 . S
C893 C892 1.387 . S
N894 Co885 2.022 . S
N894 C891 1.351 . S
N894 N895 1.365 . S
N895 C892 1.341 . S
N895 N894 1.365 . S
N895 H915 0.862 . S
C896 C891 1.501 . S
C896 H897 0.961 . S
C896 H898 0.961 . S
C896 H899 0.960 . S
H897 C896 0.961 . S
H898 C896 0.961 . S
H899 C896 0.960 . S
C900 N901 1.342 . S
C900 C904 1.401 . S
C900 C905 1.499 . S
N901 Co884 1.989 . S
N901 C900 1.342 . S
N901 N902 1.388 . S
N902 Co885 1.993 . S
N902 N901 1.388 . S
N902 C903 1.346 . S
C903 N902 1.346 . S
C903 C904 1.396 . S
C903 C913 1.510 . S
C904 C900 1.401 . S
C904 C903 1.396 . S
C905 C900 1.499 . S
C905 H906 0.959 . S
C905 H907 0.960 . S
C905 H908 0.961 . S
H906 C905 0.959 . S
H907 C905 0.960 . S
H908 C905 0.961 . S
O909 Co884 1.967 . S
O909 C917 1.258 . S
O910 Co885 1.941 . S
O910 C917 1.266 . S
H911 C913 0.959 . S
H912 C913 0.961 . S
C913 C903 1.510 . S
C913 H911 0.959 . S
C913 H912 0.961 . S
C913 H914 0.960 . S
H914 C913 0.960 . S
H915 N895 0.862 . S
O916 Co884 1.920 . S
O916 C889 1.289 . S
C917 O909 1.258 . S
C917 O910 1.266 . S
Co918 O921 1.970 . S
Co918 N935 1.989 . S
Co918 O943 1.967 . S
Co918 O950 1.920 . S
Co919 O922 1.966 . S
Co919 N928 2.022 . S
Co919 N936 1.993 . S
Co919 O944 1.941 . S
C920 O921 1.258 . S
C920 O922 1.263 . S
O921 Co918 1.970 . S
O921 C920 1.258 . S
O922 Co919 1.966 . S
O922 C920 1.263 . S
C923 O924 1.235 . S
C923 O950 1.289 . S
O924 C923 1.235 . S
C925 C927 1.400 . S
C925 N928 1.351 . S
C925 C930 1.501 . S
C926 C927 1.387 . S
C926 N929 1.341 . S
C927 C925 1.400 . S
C927 C926 1.387 . S
N928 Co919 2.022 . S
N928 C925 1.351 . S
N928 N929 1.365 . S
N929 C926 1.341 . S
N929 N928 1.365 . S
N929 H949 0.862 . S
C930 C925 1.501 . S
C930 H931 0.961 . S
C930 H932 0.961 . S
C930 H933 0.960 . S
H931 C930 0.961 . S
H932 C930 0.961 . S
H933 C930 0.960 . S
C934 N935 1.342 . S
C934 C938 1.401 . S
C934 C939 1.499 . S
N935 Co918 1.989 . S
N935 C934 1.342 . S
N935 N936 1.388 . S
N936 Co919 1.993 . S
N936 N935 1.388 . S
N936 C937 1.346 . S
C937 N936 1.346 . S
C937 C938 1.396 . S
C937 C947 1.510 . S
C938 C934 1.401 . S
C938 C937 1.396 . S
C939 C934 1.499 . S
C939 H940 0.968 . S
C939 H941 0.960 . S
C939 H942 0.961 1_655 S
H940 C939 0.968 . S
H941 C939 0.960 . S
H942 C939 0.961 1_455 S
O943 Co918 1.967 . S
O943 C951 1.258 . S
O944 Co919 1.941 . S
O944 C951 1.266 . S
H945 C947 0.959 . S
H946 C947 0.961 . S
C947 C937 1.510 . S
C947 H945 0.959 . S
C947 H946 0.961 . S
C947 H948 0.960 . S
H948 C947 0.960 . S
H949 N929 0.862 . S
O950 Co918 1.920 . S
O950 C923 1.289 . S
C951 O943 1.258 . S
C951 O944 1.266 . S
Co952 O955 1.970 . S
Co952 N969 1.989 . S
Co952 O977 1.967 . S
Co952 O984 1.920 . S
Co953 O956 1.966 . S
Co953 N962 2.022 . S
Co953 N970 1.993 . S
Co953 O978 1.941 . S
C954 O955 1.258 . S
C954 O956 1.263 . S
O955 Co952 1.970 . S
O955 C954 1.258 . S
O956 Co953 1.966 . S
O956 C954 1.263 . S
C957 O958 1.235 . S
C957 O984 1.289 . S
O958 C957 1.235 . S
C959 C961 1.400 . S
C959 N962 1.351 . S
C959 C964 1.501 . S
C960 C961 1.387 . S
C960 N963 1.341 . S
C961 C959 1.400 . S
C961 C960 1.387 . S
N962 Co953 2.022 . S
N962 C959 1.351 . S
N962 N963 1.365 . S
N963 C960 1.341 . S
N963 N962 1.365 . S
N963 H983 0.862 . S
C964 C959 1.501 . S
C964 H965 0.961 . S
C964 H966 0.961 . S
C964 H967 0.960 . S
H965 C964 0.961 . S
H966 C964 0.961 . S
H967 C964 0.960 . S
C968 N969 1.342 . S
C968 C972 1.401 . S
C968 C973 1.499 . S
N969 Co952 1.989 . S
N969 C968 1.342 . S
N969 N970 1.388 . S
N970 Co953 1.993 . S
N970 N969 1.388 . S
N970 C971 1.346 . S
C971 N970 1.346 . S
C971 C972 1.396 . S
C971 C981 1.510 . S
C972 C968 1.401 . S
C972 C971 1.396 . S
C973 C968 1.499 . S
C973 H974 0.959 . S
C973 H975 0.960 . S
C973 H976 0.961 . S
H974 C973 0.959 . S
H975 C973 0.960 . S
H976 C973 0.961 . S
O977 Co952 1.967 . S
O977 C985 1.258 . S
O978 Co953 1.941 . S
O978 C985 1.266 . S
H979 C981 0.959 . S
H980 C981 0.961 . S
C981 C971 1.510 . S
C981 H979 0.959 . S
C981 H980 0.961 . S
C981 H982 0.960 . S
H982 C981 0.960 . S
H983 N963 0.862 . S
O984 Co952 1.920 . S
O984 C957 1.289 . S
C985 O977 1.258 . S
C985 O978 1.266 . S
Co986 O989 1.970 . S
Co986 N1003 1.989 . S
Co986 O1011 1.967 . S
Co986 O1018 1.920 . S
Co987 O990 1.966 . S
Co987 N996 2.022 . S
Co987 N1004 1.993 . S
Co987 O1012 1.941 . S
C988 O989 1.258 . S
C988 O990 1.263 . S
O989 Co986 1.970 . S
O989 C988 1.258 . S
O990 Co987 1.966 . S
O990 C988 1.263 . S
C991 O992 1.235 . S
C991 O1018 1.289 . S
O992 C991 1.235 . S
C993 C995 1.400 . S
C993 N996 1.351 . S
C993 C998 1.501 . S
C994 C995 1.387 . S
C994 N997 1.341 . S
C995 C993 1.400 . S
C995 C994 1.387 . S
N996 Co987 2.022 . S
N996 C993 1.351 . S
N996 N997 1.365 . S
N997 C994 1.341 . S
N997 N996 1.365 . S
N997 H1017 0.862 . S
C998 C993 1.501 . S
C998 H999 0.961 . S
C998 H1000 0.961 . S
C998 H1001 0.960 . S
H999 C998 0.961 . S
H1000 C998 0.961 . S
H1001 C998 0.960 . S
C1002 N1003 1.342 . S
C1002 C1006 1.401 . S
C1002 C1007 1.499 . S
N1003 Co986 1.989 . S
N1003 C1002 1.342 . S
N1003 N1004 1.388 . S
N1004 Co987 1.993 . S
N1004 N1003 1.388 . S
N1004 C1005 1.346 . S
C1005 N1004 1.346 . S
C1005 C1006 1.396 . S
C1005 C1015 1.510 . S
C1006 C1002 1.401 . S
C1006 C1005 1.396 . S
C1007 C1002 1.499 . S
C1007 H1008 0.959 . S
C1007 H1009 0.960 . S
C1007 H1010 0.961 . S
H1008 C1007 0.959 . S
H1009 C1007 0.960 . S
H1010 C1007 0.961 . S
O1011 Co986 1.967 . S
O1011 C1019 1.258 . S
O1012 Co987 1.941 . S
O1012 C1019 1.266 . S
H1013 C1015 0.959 . S
H1014 C1015 0.961 . S
C1015 C1005 1.510 . S
C1015 H1013 0.959 . S
C1015 H1014 0.961 . S
C1015 H1016 0.960 . S
H1016 C1015 0.960 . S
H1017 N997 0.862 . S
O1018 Co986 1.920 . S
O1018 C991 1.289 . S
C1019 O1011 1.258 . S
C1019 O1012 1.266 . S
Co1020 O1023 1.970 . S
Co1020 N1037 1.989 . S
Co1020 O1045 1.967 . S
Co1020 O1052 1.920 . S
Co1021 O1024 1.966 . S
Co1021 N1030 2.022 . S
Co1021 N1038 1.993 . S
Co1021 O1046 1.941 . S
C1022 O1023 1.258 . S
C1022 O1024 1.263 . S
O1023 Co1020 1.970 . S
O1023 C1022 1.258 . S
O1024 Co1021 1.966 . S
O1024 C1022 1.263 . S
C1025 O1026 1.235 . S
C1025 O1052 1.289 . S
O1026 C1025 1.235 . S
C1027 C1029 1.400 . S
C1027 N1030 1.351 . S
C1027 C1032 1.501 . S
C1028 C1029 1.387 . S
C1028 N1031 1.341 . S
C1029 C1027 1.400 . S
C1029 C1028 1.387 . S
N1030 Co1021 2.022 . S
N1030 C1027 1.351 . S
N1030 N1031 1.365 . S
N1031 C1028 1.341 . S
N1031 N1030 1.365 . S
N1031 H1051 0.862 . S
C1032 C1027 1.501 . S
C1032 H1033 0.961 . S
C1032 H1034 0.961 . S
C1032 H1035 0.960 . S
H1033 C1032 0.961 . S
H1034 C1032 0.961 . S
H1035 C1032 0.960 . S
C1036 N1037 1.342 . S
C1036 C1040 1.401 . S
C1036 C1041 1.499 . S
N1037 Co1020 1.989 . S
N1037 C1036 1.342 . S
N1037 N1038 1.388 . S
N1038 Co1021 1.993 . S
N1038 N1037 1.388 . S
N1038 C1039 1.346 . S
C1039 N1038 1.346 . S
C1039 C1040 1.396 . S
C1039 C1049 1.510 . S
C1040 C1036 1.401 . S
C1040 C1039 1.396 . S
C1041 C1036 1.499 . S
C1041 H1042 0.959 . S
C1041 H1043 0.960 . S
C1041 H1044 0.961 . S
H1042 C1041 0.959 . S
H1043 C1041 0.960 . S
H1044 C1041 0.961 . S
O1045 Co1020 1.967 . S
O1045 C1053 1.258 . S
O1046 Co1021 1.941 . S
O1046 C1053 1.266 . S
H1047 C1049 0.959 . S
H1048 C1049 0.961 . S
C1049 C1039 1.510 . S
C1049 H1047 0.959 . S
C1049 H1048 0.961 . S
C1049 H1050 0.960 . S
H1050 C1049 0.960 . S
H1051 N1031 0.862 . S
O1052 Co1020 1.920 . S
O1052 C1025 1.289 . S
C1053 O1045 1.258 . S
C1053 O1046 1.266 . S
Co1054 O1057 1.970 . S
Co1054 N1071 1.989 . S
Co1054 O1079 1.967 . S
Co1054 O1086 1.920 . S
Co1055 O1058 1.966 . S
Co1055 N1064 2.022 . S
Co1055 N1072 1.993 . S
Co1055 O1080 1.941 . S
C1056 O1057 1.258 . S
C1056 O1058 1.263 . S
O1057 Co1054 1.970 . S
O1057 C1056 1.258 . S
O1058 Co1055 1.966 . S
O1058 C1056 1.263 . S
C1059 O1060 1.235 . S
C1059 O1086 1.289 . S
O1060 C1059 1.235 . S
C1061 C1063 1.400 . S
C1061 N1064 1.351 . S
C1061 C1066 1.501 . S
C1062 C1063 1.387 . S
C1062 N1065 1.341 . S
C1063 C1061 1.400 . S
C1063 C1062 1.387 . S
N1064 Co1055 2.022 . S
N1064 C1061 1.351 . S
N1064 N1065 1.365 . S
N1065 C1062 1.341 . S
N1065 N1064 1.365 . S
N1065 H1085 0.862 . S
C1066 C1061 1.501 . S
C1066 H1067 0.961 . S
C1066 H1068 0.961 . S
C1066 H1069 0.960 . S
H1067 C1066 0.961 . S
H1068 C1066 0.961 . S
H1069 C1066 0.960 . S
C1070 N1071 1.342 . S
C1070 C1074 1.401 . S
C1070 C1075 1.499 . S
N1071 Co1054 1.989 . S
N1071 C1070 1.342 . S
N1071 N1072 1.388 . S
N1072 Co1055 1.993 . S
N1072 N1071 1.388 . S
N1072 C1073 1.346 . S
C1073 N1072 1.346 . S
C1073 C1074 1.396 . S
C1073 C1083 1.510 . S
C1074 C1070 1.401 . S
C1074 C1073 1.396 . S
C1075 C1070 1.499 . S
C1075 H1076 0.959 . S
C1075 H1077 0.960 . S
C1075 H1078 0.961 . S
H1076 C1075 0.959 . S
H1077 C1075 0.960 . S
H1078 C1075 0.961 . S
O1079 Co1054 1.967 . S
O1079 C1087 1.258 . S
O1080 Co1055 1.941 . S
O1080 C1087 1.266 . S
H1081 C1083 0.959 . S
H1082 C1083 0.961 . S
C1083 C1073 1.510 . S
C1083 H1081 0.959 . S
C1083 H1082 0.961 . S
C1083 H1084 0.960 . S
H1084 C1083 0.960 . S
H1085 N1065 0.862 . S
O1086 Co1054 1.920 . S
O1086 C1059 1.289 . S
C1087 O1079 1.258 . S
C1087 O1080 1.266 . S
Co1088 O1091 1.970 . S
Co1088 N1105 1.989 . S
Co1088 O1113 1.967 . S
Co1088 O1120 1.920 . S
Co1089 O1092 1.966 . S
Co1089 N1098 2.022 . S
Co1089 N1106 1.993 . S
Co1089 O1114 1.941 . S
C1090 O1091 1.258 . S
C1090 O1092 1.263 . S
O1091 Co1088 1.970 . S
O1091 C1090 1.258 . S
O1092 Co1089 1.966 . S
O1092 C1090 1.263 . S
C1093 O1094 1.235 . S
C1093 O1120 1.289 . S
O1094 C1093 1.235 . S
C1095 C1097 1.400 . S
C1095 N1098 1.351 . S
C1095 C1100 1.501 . S
C1096 C1097 1.387 . S
C1096 N1099 1.341 . S
C1097 C1095 1.400 . S
C1097 C1096 1.387 . S
N1098 Co1089 2.022 . S
N1098 C1095 1.351 . S
N1098 N1099 1.365 . S
N1099 C1096 1.341 . S
N1099 N1098 1.365 . S
N1099 H1119 0.862 . S
C1100 C1095 1.501 . S
C1100 H1101 0.961 . S
C1100 H1102 0.961 . S
C1100 H1103 0.960 . S
H1101 C1100 0.961 . S
H1102 C1100 0.961 . S
H1103 C1100 0.960 . S
C1104 N1105 1.342 . S
C1104 C1108 1.401 . S
C1104 C1109 1.499 . S
N1105 Co1088 1.989 . S
N1105 C1104 1.342 . S
N1105 N1106 1.388 . S
N1106 Co1089 1.993 . S
N1106 N1105 1.388 . S
N1106 C1107 1.346 . S
C1107 N1106 1.346 . S
C1107 C1108 1.396 . S
C1107 C1117 1.510 . S
C1108 C1104 1.401 . S
C1108 C1107 1.396 . S
C1109 C1104 1.499 . S
C1109 H1110 0.959 . S
C1109 H1111 0.960 . S
C1109 H1112 0.961 . S
H1110 C1109 0.959 . S
H1111 C1109 0.960 . S
H1112 C1109 0.961 . S
O1113 Co1088 1.967 . S
O1113 C1121 1.258 . S
O1114 Co1089 1.941 . S
O1114 C1121 1.266 . S
H1115 C1117 0.959 . S
H1116 C1117 0.961 . S
C1117 C1107 1.510 . S
C1117 H1115 0.959 . S
C1117 H1116 0.961 . S
C1117 H1118 0.960 . S
H1118 C1117 0.960 . S
H1119 N1099 0.862 . S
O1120 Co1088 1.920 . S
O1120 C1093 1.289 . S
C1121 O1113 1.258 . S
C1121 O1114 1.266 . S
Co1122 O1125 1.970 . S
Co1122 N1139 1.989 . S
Co1122 O1147 1.967 . S
Co1122 O1154 1.920 . S
Co1123 O1126 1.966 . S
Co1123 N1132 2.022 . S
Co1123 N1140 1.993 . S
Co1123 O1148 1.941 . S
C1124 O1125 1.258 . S
C1124 O1126 1.263 . S
O1125 Co1122 1.970 . S
O1125 C1124 1.258 . S
O1126 Co1123 1.966 . S
O1126 C1124 1.263 . S
C1127 O1128 1.235 . S
C1127 O1154 1.289 1_565 S
O1128 C1127 1.235 . S
C1129 C1131 1.400 . S
C1129 N1132 1.351 . S
C1129 C1134 1.501 . S
C1130 C1131 1.387 . S
C1130 N1133 1.341 . S
C1131 C1129 1.400 . S
C1131 C1130 1.387 . S
N1132 Co1123 2.022 . S
N1132 C1129 1.351 . S
N1132 N1133 1.365 . S
N1133 C1130 1.341 . S
N1133 N1132 1.365 . S
N1133 H1153 0.862 . S
C1134 C1129 1.501 . S
C1134 H1135 0.961 . S
C1134 H1136 0.961 . S
C1134 H1137 0.960 . S
H1135 C1134 0.961 . S
H1136 C1134 0.961 . S
H1137 C1134 0.960 . S
C1138 N1139 1.342 . S
C1138 C1142 1.401 . S
C1138 C1143 1.499 . S
N1139 Co1122 1.989 . S
N1139 C1138 1.342 . S
N1139 N1140 1.388 . S
N1140 Co1123 1.993 . S
N1140 N1139 1.388 . S
N1140 C1141 1.346 . S
C1141 N1140 1.346 . S
C1141 C1142 1.396 . S
C1141 C1151 1.510 . S
C1142 C1138 1.401 . S
C1142 C1141 1.396 . S
C1143 C1138 1.499 . S
C1143 H1144 0.959 . S
C1143 H1145 0.960 . S
C1143 H1146 0.961 . S
H1144 C1143 0.959 . S
H1145 C1143 0.960 . S
H1146 C1143 0.961 . S
O1147 Co1122 1.967 . S
O1147 C1155 1.258 . S
O1148 Co1123 1.941 . S
O1148 C1155 1.266 . S
H1149 C1151 0.959 . S
H1150 C1151 0.961 . S
C1151 C1141 1.510 . S
C1151 H1149 0.959 . S
C1151 H1150 0.961 . S
C1151 H1152 0.960 . S
H1152 C1151 0.960 . S
H1153 N1133 0.862 . S
O1154 Co1122 1.920 . S
O1154 C1127 1.289 1_545 S
C1155 O1147 1.258 . S
C1155 O1148 1.266 . S
Co1156 O1159 1.970 . S
Co1156 N1173 1.989 . S
Co1156 O1181 1.967 . S
Co1156 O1188 1.920 . S
Co1157 O1160 1.966 . S
Co1157 N1166 2.022 . S
Co1157 N1174 1.993 . S
Co1157 O1182 1.941 . S
C1158 O1159 1.258 . S
C1158 O1160 1.263 . S
O1159 Co1156 1.970 . S
O1159 C1158 1.258 . S
O1160 Co1157 1.966 . S
O1160 C1158 1.263 . S
C1161 O1162 1.235 . S
C1161 O1188 1.289 . S
O1162 C1161 1.235 . S
C1163 C1165 1.400 . S
C1163 N1166 1.351 . S
C1163 C1168 1.501 . S
C1164 C1165 1.387 . S
C1164 N1167 1.341 . S
C1165 C1163 1.400 . S
C1165 C1164 1.387 . S
N1166 Co1157 2.022 . S
N1166 C1163 1.351 . S
N1166 N1167 1.365 . S
N1167 C1164 1.341 . S
N1167 N1166 1.365 . S
N1167 H1187 0.862 . S
C1168 C1163 1.501 . S
C1168 H1169 0.961 . S
C1168 H1170 0.961 . S
C1168 H1171 0.960 . S
H1169 C1168 0.961 . S
H1170 C1168 0.961 . S
H1171 C1168 0.960 . S
C1172 N1173 1.342 . S
C1172 C1176 1.401 . S
C1172 C1177 1.499 . S
N1173 Co1156 1.989 . S
N1173 C1172 1.342 . S
N1173 N1174 1.388 . S
N1174 Co1157 1.993 . S
N1174 N1173 1.388 . S
N1174 C1175 1.346 . S
C1175 N1174 1.346 . S
C1175 C1176 1.396 . S
C1175 C1185 1.510 . S
C1176 C1172 1.401 . S
C1176 C1175 1.396 . S
C1177 C1172 1.499 . S
C1177 H1178 0.959 . S
C1177 H1179 0.960 . S
C1177 H1180 0.961 . S
H1178 C1177 0.959 . S
H1179 C1177 0.960 . S
H1180 C1177 0.961 . S
O1181 Co1156 1.967 . S
O1181 C1189 1.258 . S
O1182 Co1157 1.941 . S
O1182 C1189 1.266 . S
H1183 C1185 0.959 . S
H1184 C1185 0.961 . S
C1185 C1175 1.510 . S
C1185 H1183 0.959 . S
C1185 H1184 0.961 . S
C1185 H1186 0.960 . S
H1186 C1185 0.960 . S
H1187 N1167 0.862 . S
O1188 Co1156 1.920 . S
O1188 C1161 1.289 . S
C1189 O1181 1.258 . S
C1189 O1182 1.266 . S
Co1190 O1193 1.970 . S
Co1190 N1207 1.989 . S
Co1190 O1215 1.967 . S
Co1190 O1222 1.920 . S
Co1191 O1194 1.966 . S
Co1191 N1200 2.022 . S
Co1191 N1208 1.993 . S
Co1191 O1216 1.941 . S
C1192 O1193 1.258 . S
C1192 O1194 1.263 . S
O1193 Co1190 1.970 . S
O1193 C1192 1.258 . S
O1194 Co1191 1.966 . S
O1194 C1192 1.263 . S
C1195 O1196 1.235 . S
C1195 O1222 1.289 . S
O1196 C1195 1.235 . S
C1197 C1199 1.400 . S
C1197 N1200 1.351 . S
C1197 C1202 1.501 . S
C1198 C1199 1.387 . S
C1198 N1201 1.341 . S
C1199 C1197 1.400 . S
C1199 C1198 1.387 . S
N1200 Co1191 2.022 . S
N1200 C1197 1.351 . S
N1200 N1201 1.365 . S
N1201 C1198 1.341 . S
N1201 N1200 1.365 . S
N1201 H1221 0.862 . S
C1202 C1197 1.501 . S
C1202 H1203 0.961 . S
C1202 H1204 0.961 . S
C1202 H1205 0.960 . S
H1203 C1202 0.961 . S
H1204 C1202 0.961 . S
H1205 C1202 0.960 . S
C1206 N1207 1.342 . S
C1206 C1210 1.401 . S
C1206 C1211 1.499 . S
N1207 Co1190 1.989 . S
N1207 C1206 1.342 . S
N1207 N1208 1.388 . S
N1208 Co1191 1.993 . S
N1208 N1207 1.388 . S
N1208 C1209 1.346 . S
C1209 N1208 1.346 . S
C1209 C1210 1.396 . S
C1209 C1219 1.510 . S
C1210 C1206 1.401 . S
C1210 C1209 1.396 . S
C1211 C1206 1.499 . S
C1211 H1212 0.959 . S
C1211 H1213 0.960 . S
C1211 H1214 0.961 . S
H1212 C1211 0.959 . S
H1213 C1211 0.960 . S
H1214 C1211 0.961 . S
O1215 Co1190 1.967 . S
O1215 C1223 1.258 . S
O1216 Co1191 1.941 . S
O1216 C1223 1.266 . S
H1217 C1219 0.959 . S
H1218 C1219 0.961 . S
C1219 C1209 1.510 . S
C1219 H1217 0.959 . S
C1219 H1218 0.961 . S
C1219 H1220 0.960 . S
H1220 C1219 0.960 . S
H1221 N1201 0.862 . S
O1222 Co1190 1.920 . S
O1222 C1195 1.289 . S
C1223 O1215 1.258 . S
C1223 O1216 1.266 . S
Co1224 O1227 1.970 . S
Co1224 N1241 1.989 . S
Co1224 O1249 1.967 . S
Co1224 O1256 1.920 . S
Co1225 O1228 1.966 . S
Co1225 N1234 2.022 . S
Co1225 N1242 1.993 . S
Co1225 O1250 1.941 . S
C1226 O1227 1.258 . S
C1226 O1228 1.263 . S
O1227 Co1224 1.970 . S
O1227 C1226 1.258 . S
O1228 Co1225 1.966 . S
O1228 C1226 1.263 . S
C1229 O1230 1.235 . S
C1229 O1256 1.289 . S
O1230 C1229 1.235 . S
C1231 C1233 1.400 . S
C1231 N1234 1.351 . S
C1231 C1236 1.501 . S
C1232 C1233 1.387 . S
C1232 N1235 1.341 . S
C1233 C1231 1.400 . S
C1233 C1232 1.387 . S
N1234 Co1225 2.022 . S
N1234 C1231 1.351 . S
N1234 N1235 1.365 . S
N1235 C1232 1.341 . S
N1235 N1234 1.365 . S
N1235 H1255 0.862 . S
C1236 C1231 1.501 . S
C1236 H1237 0.961 . S
C1236 H1238 0.961 . S
C1236 H1239 0.960 . S
H1237 C1236 0.961 . S
H1238 C1236 0.961 . S
H1239 C1236 0.960 . S
C1240 N1241 1.342 . S
C1240 C1244 1.401 . S
C1240 C1245 1.499 . S
N1241 Co1224 1.989 . S
N1241 C1240 1.342 . S
N1241 N1242 1.388 . S
N1242 Co1225 1.993 . S
N1242 N1241 1.388 . S
N1242 C1243 1.346 . S
C1243 N1242 1.346 . S
C1243 C1244 1.396 . S
C1243 C1253 1.510 . S
C1244 C1240 1.401 . S
C1244 C1243 1.396 . S
C1245 C1240 1.499 . S
C1245 H1246 0.959 . S
C1245 H1247 0.960 . S
C1245 H1248 0.961 . S
H1246 C1245 0.959 . S
H1247 C1245 0.960 . S
H1248 C1245 0.961 . S
O1249 Co1224 1.967 . S
O1249 C1257 1.258 . S
O1250 Co1225 1.941 . S
O1250 C1257 1.266 . S
H1251 C1253 0.959 . S
H1252 C1253 0.961 . S
C1253 C1243 1.510 . S
C1253 H1251 0.959 . S
C1253 H1252 0.961 . S
C1253 H1254 0.960 . S
H1254 C1253 0.960 . S
H1255 N1235 0.862 . S
O1256 Co1224 1.920 . S
O1256 C1229 1.289 . S
C1257 O1249 1.258 . S
C1257 O1250 1.266 . S
Co1258 O1261 1.970 . S
Co1258 N1275 1.989 . S
Co1258 O1283 1.967 . S
Co1258 O1290 1.920 . S
Co1259 O1262 1.966 . S
Co1259 N1268 2.022 . S
Co1259 N1276 1.993 . S
Co1259 O1284 1.941 . S
C1260 O1261 1.258 . S
C1260 O1262 1.263 . S
O1261 Co1258 1.970 . S
O1261 C1260 1.258 . S
O1262 Co1259 1.966 . S
O1262 C1260 1.263 . S
C1263 O1264 1.235 . S
C1263 O1290 1.289 1_565 S
O1264 C1263 1.235 . S
C1265 C1267 1.400 . S
C1265 N1268 1.351 . S
C1265 C1270 1.501 . S
C1266 C1267 1.387 . S
C1266 N1269 1.341 . S
C1267 C1265 1.400 . S
C1267 C1266 1.387 . S
N1268 Co1259 2.022 . S
N1268 C1265 1.351 . S
N1268 N1269 1.365 . S
N1269 C1266 1.341 . S
N1269 N1268 1.365 . S
N1269 H1289 0.862 . S
C1270 C1265 1.501 . S
C1270 H1271 0.961 . S
C1270 H1272 0.961 . S
C1270 H1273 0.960 . S
H1271 C1270 0.961 . S
H1272 C1270 0.961 . S
H1273 C1270 0.960 . S
C1274 N1275 1.342 . S
C1274 C1278 1.401 . S
C1274 C1279 1.499 . S
N1275 Co1258 1.989 . S
N1275 C1274 1.342 . S
N1275 N1276 1.388 . S
N1276 Co1259 1.993 . S
N1276 N1275 1.388 . S
N1276 C1277 1.346 . S
C1277 N1276 1.346 . S
C1277 C1278 1.396 . S
C1277 C1287 1.510 . S
C1278 C1274 1.401 . S
C1278 C1277 1.396 . S
C1279 C1274 1.499 . S
C1279 H1280 0.959 . S
C1279 H1281 0.960 . S
C1279 H1282 0.961 . S
H1280 C1279 0.959 . S
H1281 C1279 0.960 . S
H1282 C1279 0.961 . S
O1283 Co1258 1.967 . S
O1283 C1291 1.258 . S
O1284 Co1259 1.941 . S
O1284 C1291 1.266 . S
H1285 C1287 0.959 . S
H1286 C1287 0.961 . S
C1287 C1277 1.510 . S
C1287 H1285 0.959 . S
C1287 H1286 0.961 . S
C1287 H1288 0.960 . S
H1288 C1287 0.960 . S
H1289 N1269 0.862 . S
O1290 Co1258 1.920 . S
O1290 C1263 1.289 1_545 S
C1291 O1283 1.258 . S
C1291 O1284 1.266 . S
Co1292 O1295 1.970 . S
Co1292 N1309 1.989 . S
Co1292 O1317 1.967 . S
Co1292 O1324 1.920 . S
Co1293 O1296 1.966 . S
Co1293 N1302 2.022 . S
Co1293 N1310 1.993 . S
Co1293 O1318 1.941 . S
C1294 O1295 1.258 . S
C1294 O1296 1.263 . S
O1295 Co1292 1.970 . S
O1295 C1294 1.258 . S
O1296 Co1293 1.966 . S
O1296 C1294 1.263 . S
C1297 O1298 1.235 . S
C1297 O1324 1.289 . S
O1298 C1297 1.235 . S
C1299 C1301 1.400 . S
C1299 N1302 1.351 . S
C1299 C1304 1.501 . S
C1300 C1301 1.387 . S
C1300 N1303 1.341 . S
C1301 C1299 1.400 . S
C1301 C1300 1.387 . S
N1302 Co1293 2.022 . S
N1302 C1299 1.351 . S
N1302 N1303 1.365 . S
N1303 C1300 1.341 . S
N1303 N1302 1.365 . S
N1303 H1323 0.862 . S
C1304 C1299 1.501 . S
C1304 H1305 0.961 . S
C1304 H1306 0.961 . S
C1304 H1307 0.960 . S
H1305 C1304 0.961 . S
H1306 C1304 0.961 . S
H1307 C1304 0.960 . S
C1308 N1309 1.342 . S
C1308 C1312 1.401 . S
C1308 C1313 1.499 . S
N1309 Co1292 1.989 . S
N1309 C1308 1.342 . S
N1309 N1310 1.388 . S
N1310 Co1293 1.993 . S
N1310 N1309 1.388 . S
N1310 C1311 1.346 . S
C1311 N1310 1.346 . S
C1311 C1312 1.396 . S
C1311 C1321 1.510 . S
C1312 C1308 1.401 . S
C1312 C1311 1.396 . S
C1313 C1308 1.499 . S
C1313 H1314 0.959 . S
C1313 H1315 0.960 . S
C1313 H1316 0.961 . S
H1314 C1313 0.959 . S
H1315 C1313 0.960 . S
H1316 C1313 0.961 . S
O1317 Co1292 1.967 . S
O1317 C1325 1.258 . S
O1318 Co1293 1.941 . S
O1318 C1325 1.266 . S
H1319 C1321 0.959 . S
H1320 C1321 0.961 . S
C1321 C1311 1.510 . S
C1321 H1319 0.959 . S
C1321 H1320 0.961 . S
C1321 H1322 0.960 . S
H1322 C1321 0.960 . S
H1323 N1303 0.862 . S
O1324 Co1292 1.920 . S
O1324 C1297 1.289 . S
C1325 O1317 1.258 . S
C1325 O1318 1.266 . S
Co1326 O1329 1.970 . S
Co1326 N1343 1.989 . S
Co1326 O1351 1.967 . S
Co1326 O1358 1.920 . S
Co1327 O1330 1.966 . S
Co1327 N1336 2.022 . S
Co1327 N1344 1.993 . S
Co1327 O1352 1.941 . S
C1328 O1329 1.258 . S
C1328 O1330 1.263 . S
O1329 Co1326 1.970 . S
O1329 C1328 1.258 . S
O1330 Co1327 1.966 . S
O1330 C1328 1.263 . S
C1331 O1332 1.235 . S
C1331 O1358 1.289 . S
O1332 C1331 1.235 . S
C1333 C1335 1.400 . S
C1333 N1336 1.351 . S
C1333 C1338 1.501 . S
C1334 C1335 1.387 . S
C1334 N1337 1.341 . S
C1335 C1333 1.400 . S
C1335 C1334 1.387 . S
N1336 Co1327 2.022 . S
N1336 C1333 1.351 . S
N1336 N1337 1.365 . S
N1337 C1334 1.341 . S
N1337 N1336 1.365 . S
N1337 H1357 0.862 . S
C1338 C1333 1.501 . S
C1338 H1339 0.961 . S
C1338 H1340 0.961 . S
C1338 H1341 0.960 . S
H1339 C1338 0.961 . S
H1340 C1338 0.961 . S
H1341 C1338 0.960 . S
C1342 N1343 1.342 . S
C1342 C1346 1.401 . S
C1342 C1347 1.499 . S
N1343 Co1326 1.989 . S
N1343 C1342 1.342 . S
N1343 N1344 1.388 . S
N1344 Co1327 1.993 . S
N1344 N1343 1.388 . S
N1344 C1345 1.346 . S
C1345 N1344 1.346 . S
C1345 C1346 1.396 . S
C1345 C1355 1.510 . S
C1346 C1342 1.401 . S
C1346 C1345 1.396 . S
C1347 C1342 1.499 . S
C1347 H1348 0.959 . S
C1347 H1349 0.960 . S
C1347 H1350 0.961 . S
H1348 C1347 0.959 . S
H1349 C1347 0.960 . S
H1350 C1347 0.961 . S
O1351 Co1326 1.967 . S
O1351 C1359 1.258 . S
O1352 Co1327 1.941 . S
O1352 C1359 1.266 . S
H1353 C1355 0.959 . S
H1354 C1355 0.961 . S
C1355 C1345 1.510 . S
C1355 H1353 0.959 . S
C1355 H1354 0.961 . S
C1355 H1356 0.960 . S
H1356 C1355 0.960 . S
H1357 N1337 0.862 . S
O1358 Co1326 1.920 . S
O1358 C1331 1.289 . S
C1359 O1351 1.258 . S
C1359 O1352 1.266 . S
Co1360 O1363 1.970 . S
Co1360 N1377 1.989 . S
Co1360 O1385 1.967 . S
Co1360 O1392 1.920 . S
Co1361 O1364 1.966 . S
Co1361 N1370 2.022 . S
Co1361 N1378 1.993 . S
Co1361 O1386 1.941 . S
C1362 O1363 1.258 . S
C1362 O1364 1.263 . S
O1363 Co1360 1.970 . S
O1363 C1362 1.258 . S
O1364 Co1361 1.966 . S
O1364 C1362 1.263 . S
C1365 O1366 1.235 . S
C1365 O1392 1.289 . S
O1366 C1365 1.235 . S
C1367 C1369 1.400 . S
C1367 N1370 1.351 . S
C1367 C1372 1.501 . S
C1368 C1369 1.387 . S
C1368 N1371 1.341 . S
C1369 C1367 1.400 . S
C1369 C1368 1.387 . S
N1370 Co1361 2.022 . S
N1370 C1367 1.351 . S
N1370 N1371 1.365 . S
N1371 C1368 1.341 . S
N1371 N1370 1.365 . S
N1371 H1391 0.862 . S
C1372 C1367 1.501 . S
C1372 H1373 0.961 . S
C1372 H1374 0.961 . S
C1372 H1375 0.960 . S
H1373 C1372 0.961 . S
H1374 C1372 0.961 . S
H1375 C1372 0.960 . S
C1376 N1377 1.342 . S
C1376 C1380 1.401 . S
C1376 C1381 1.499 . S
N1377 Co1360 1.989 . S
N1377 C1376 1.342 . S
N1377 N1378 1.388 . S
N1378 Co1361 1.993 . S
N1378 N1377 1.388 . S
N1378 C1379 1.346 . S
C1379 N1378 1.346 . S
C1379 C1380 1.396 . S
C1379 C1389 1.510 . S
C1380 C1376 1.401 . S
C1380 C1379 1.396 . S
C1381 C1376 1.499 . S
C1381 H1382 0.959 . S
C1381 H1383 0.960 . S
C1381 H1384 0.961 . S
H1382 C1381 0.959 . S
H1383 C1381 0.960 . S
H1384 C1381 0.961 . S
O1385 Co1360 1.967 . S
O1385 C1393 1.258 . S
O1386 Co1361 1.941 . S
O1386 C1393 1.266 . S
H1387 C1389 0.959 . S
H1388 C1389 0.961 . S
C1389 C1379 1.510 . S
C1389 H1387 0.959 . S
C1389 H1388 0.961 . S
C1389 H1390 0.960 . S
H1390 C1389 0.960 . S
H1391 N1371 0.862 . S
O1392 Co1360 1.920 . S
O1392 C1365 1.289 . S
C1393 O1385 1.258 . S
C1393 O1386 1.266 . S
Co1394 O1397 1.970 . S
Co1394 N1411 1.989 . S
Co1394 O1419 1.967 . S
Co1394 O1426 1.920 . S
Co1395 O1398 1.966 . S
Co1395 N1404 2.022 . S
Co1395 N1412 1.993 . S
Co1395 O1420 1.941 . S
C1396 O1397 1.258 . S
C1396 O1398 1.263 . S
O1397 Co1394 1.970 . S
O1397 C1396 1.258 . S
O1398 Co1395 1.966 . S
O1398 C1396 1.263 . S
C1399 O1400 1.235 . S
C1399 O1426 1.289 . S
O1400 C1399 1.235 . S
C1401 C1403 1.400 . S
C1401 N1404 1.351 . S
C1401 C1406 1.501 . S
C1402 C1403 1.387 . S
C1402 N1405 1.341 . S
C1403 C1401 1.400 . S
C1403 C1402 1.387 . S
N1404 Co1395 2.022 . S
N1404 C1401 1.351 . S
N1404 N1405 1.365 . S
N1405 C1402 1.341 . S
N1405 N1404 1.365 . S
N1405 H1425 0.862 . S
C1406 C1401 1.501 . S
C1406 H1407 0.961 . S
C1406 H1408 0.961 . S
C1406 H1409 0.960 . S
H1407 C1406 0.961 . S
H1408 C1406 0.961 . S
H1409 C1406 0.960 . S
C1410 N1411 1.342 . S
C1410 C1414 1.401 . S
C1410 C1415 1.499 . S
N1411 Co1394 1.989 . S
N1411 C1410 1.342 . S
N1411 N1412 1.388 . S
N1412 Co1395 1.993 . S
N1412 N1411 1.388 . S
N1412 C1413 1.346 . S
C1413 N1412 1.346 . S
C1413 C1414 1.396 . S
C1413 C1423 1.510 . S
C1414 C1410 1.401 . S
C1414 C1413 1.396 . S
C1415 C1410 1.499 . S
C1415 H1416 0.959 . S
C1415 H1417 0.960 . S
C1415 H1418 0.961 . S
H1416 C1415 0.959 . S
H1417 C1415 0.960 . S
H1418 C1415 0.961 . S
O1419 Co1394 1.967 . S
O1419 C1427 1.258 . S
O1420 Co1395 1.941 . S
O1420 C1427 1.266 . S
H1421 C1423 0.959 . S
H1422 C1423 0.961 . S
C1423 C1413 1.510 . S
C1423 H1421 0.959 . S
C1423 H1422 0.961 . S
C1423 H1424 0.960 . S
H1424 C1423 0.960 . S
H1425 N1405 0.862 . S
O1426 Co1394 1.920 . S
O1426 C1399 1.289 . S
C1427 O1419 1.258 . S
C1427 O1420 1.266 . S
Co1428 O1431 1.970 . S
Co1428 N1445 1.989 . S
Co1428 O1453 1.967 . S
Co1428 O1460 1.920 . S
Co1429 O1432 1.966 . S
Co1429 N1438 2.022 . S
Co1429 N1446 1.993 . S
Co1429 O1454 1.941 . S
C1430 O1431 1.258 . S
C1430 O1432 1.263 . S
O1431 Co1428 1.970 . S
O1431 C1430 1.258 . S
O1432 Co1429 1.966 . S
O1432 C1430 1.263 . S
C1433 O1434 1.235 . S
C1433 O1460 1.289 . S
O1434 C1433 1.235 . S
C1435 C1437 1.400 . S
C1435 N1438 1.351 . S
C1435 C1440 1.501 . S
C1436 C1437 1.387 . S
C1436 N1439 1.341 . S
C1437 C1435 1.400 . S
C1437 C1436 1.387 . S
N1438 Co1429 2.022 . S
N1438 C1435 1.351 . S
N1438 N1439 1.365 . S
N1439 C1436 1.341 . S
N1439 N1438 1.365 . S
N1439 H1459 0.862 . S
C1440 C1435 1.501 . S
C1440 H1441 0.961 . S
C1440 H1442 0.961 . S
C1440 H1443 0.960 . S
H1441 C1440 0.961 . S
H1442 C1440 0.961 . S
H1443 C1440 0.960 . S
C1444 N1445 1.342 . S
C1444 C1448 1.401 . S
C1444 C1449 1.499 . S
N1445 Co1428 1.989 . S
N1445 C1444 1.342 . S
N1445 N1446 1.388 . S
N1446 Co1429 1.993 . S
N1446 N1445 1.388 . S
N1446 C1447 1.346 . S
C1447 N1446 1.346 . S
C1447 C1448 1.396 . S
C1447 C1457 1.510 . S
C1448 C1444 1.401 . S
C1448 C1447 1.396 . S
C1449 C1444 1.499 . S
C1449 H1450 0.968 . S
C1449 H1451 0.960 . S
C1449 H1452 0.961 1_565 S
H1450 C1449 0.968 . S
H1451 C1449 0.960 . S
H1452 C1449 0.961 1_545 S
O1453 Co1428 1.967 . S
O1453 C1461 1.258 . S
O1454 Co1429 1.941 . S
O1454 C1461 1.266 . S
H1455 C1457 0.959 . S
H1456 C1457 0.961 . S
C1457 C1447 1.510 . S
C1457 H1455 0.959 . S
C1457 H1456 0.961 . S
C1457 H1458 0.960 . S
H1458 C1457 0.960 . S
H1459 N1439 0.862 . S
O1460 Co1428 1.920 . S
O1460 C1433 1.289 . S
C1461 O1453 1.258 . S
C1461 O1454 1.266 . S
Co1462 O1465 1.970 . S
Co1462 N1479 1.989 . S
Co1462 O1487 1.967 . S
Co1462 O1494 1.920 . S
Co1463 O1466 1.966 . S
Co1463 N1472 2.022 . S
Co1463 N1480 1.993 . S
Co1463 O1488 1.941 . S
C1464 O1465 1.258 . S
C1464 O1466 1.263 . S
O1465 Co1462 1.970 . S
O1465 C1464 1.258 . S
O1466 Co1463 1.966 . S
O1466 C1464 1.263 . S
C1467 O1468 1.235 . S
C1467 O1494 1.289 . S
O1468 C1467 1.235 . S
C1469 C1471 1.400 . S
C1469 N1472 1.351 . S
C1469 C1474 1.501 . S
C1470 C1471 1.387 . S
C1470 N1473 1.341 . S
C1471 C1469 1.400 . S
C1471 C1470 1.387 . S
N1472 Co1463 2.022 . S
N1472 C1469 1.351 . S
N1472 N1473 1.365 . S
N1473 C1470 1.341 . S
N1473 N1472 1.365 . S
N1473 H1493 0.862 . S
C1474 C1469 1.501 . S
C1474 H1475 0.961 . S
C1474 H1476 0.961 . S
C1474 H1477 0.960 . S
H1475 C1474 0.961 . S
H1476 C1474 0.961 . S
H1477 C1474 0.960 . S
C1478 N1479 1.342 . S
C1478 C1482 1.401 . S
C1478 C1483 1.499 . S
N1479 Co1462 1.989 . S
N1479 C1478 1.342 . S
N1479 N1480 1.388 . S
N1480 Co1463 1.993 . S
N1480 N1479 1.388 . S
N1480 C1481 1.346 . S
C1481 N1480 1.346 . S
C1481 C1482 1.396 . S
C1481 C1491 1.510 . S
C1482 C1478 1.401 . S
C1482 C1481 1.396 . S
C1483 C1478 1.499 . S
C1483 H1484 0.959 . S
C1483 H1485 0.960 . S
C1483 H1486 0.961 . S
H1484 C1483 0.959 . S
H1485 C1483 0.960 . S
H1486 C1483 0.961 . S
O1487 Co1462 1.967 . S
O1487 C1495 1.258 . S
O1488 Co1463 1.941 . S
O1488 C1495 1.266 . S
H1489 C1491 0.959 . S
H1490 C1491 0.961 . S
C1491 C1481 1.510 . S
C1491 H1489 0.959 . S
C1491 H1490 0.961 . S
C1491 H1492 0.960 . S
H1492 C1491 0.960 . S
H1493 N1473 0.862 . S
O1494 Co1462 1.920 . S
O1494 C1467 1.289 . S
C1495 O1487 1.258 . S
C1495 O1488 1.266 . S
Co1496 O1499 1.970 . S
Co1496 N1513 1.989 . S
Co1496 O1521 1.967 . S
Co1496 O1528 1.920 . S
Co1497 O1500 1.966 . S
Co1497 N1506 2.022 . S
Co1497 N1514 1.993 . S
Co1497 O1522 1.941 . S
C1498 O1499 1.258 . S
C1498 O1500 1.263 . S
O1499 Co1496 1.970 . S
O1499 C1498 1.258 . S
O1500 Co1497 1.966 . S
O1500 C1498 1.263 . S
C1501 O1502 1.235 . S
C1501 O1528 1.289 1_455 S
O1502 C1501 1.235 . S
C1503 C1505 1.400 . S
C1503 N1506 1.351 . S
C1503 C1508 1.501 . S
C1504 C1505 1.387 . S
C1504 N1507 1.341 . S
C1505 C1503 1.400 . S
C1505 C1504 1.387 . S
N1506 Co1497 2.022 . S
N1506 C1503 1.351 . S
N1506 N1507 1.365 . S
N1507 C1504 1.341 . S
N1507 N1506 1.365 . S
N1507 H1527 0.862 . S
C1508 C1503 1.501 . S
C1508 H1509 0.961 . S
C1508 H1510 0.961 . S
C1508 H1511 0.960 . S
H1509 C1508 0.961 . S
H1510 C1508 0.961 . S
H1511 C1508 0.960 . S
C1512 N1513 1.342 . S
C1512 C1516 1.401 . S
C1512 C1517 1.499 . S
N1513 Co1496 1.989 . S
N1513 C1512 1.342 . S
N1513 N1514 1.388 . S
N1514 Co1497 1.993 . S
N1514 N1513 1.388 . S
N1514 C1515 1.346 . S
C1515 N1514 1.346 . S
C1515 C1516 1.396 . S
C1515 C1525 1.510 . S
C1516 C1512 1.401 . S
C1516 C1515 1.396 . S
C1517 C1512 1.499 . S
C1517 H1518 0.968 . S
C1517 H1519 0.960 . S
C1517 H1520 0.961 1_545 S
H1518 C1517 0.968 . S
H1519 C1517 0.960 . S
H1520 C1517 0.961 1_565 S
O1521 Co1496 1.967 . S
O1521 C1529 1.258 . S
O1522 Co1497 1.941 . S
O1522 C1529 1.266 . S
H1523 C1525 0.959 . S
H1524 C1525 0.961 . S
C1525 C1515 1.510 . S
C1525 H1523 0.959 . S
C1525 H1524 0.961 . S
C1525 H1526 0.960 . S
H1526 C1525 0.960 . S
H1527 N1507 0.862 . S
O1528 Co1496 1.920 . S
O1528 C1501 1.289 1_655 S
C1529 O1521 1.258 . S
C1529 O1522 1.266 . S
Co1530 O1533 1.970 . S
Co1530 N1547 1.989 . S
Co1530 O1555 1.967 . S
Co1530 O1562 1.920 . S
Co1531 O1534 1.966 . S
Co1531 N1540 2.022 . S
Co1531 N1548 1.993 . S
Co1531 O1556 1.941 . S
C1532 O1533 1.258 . S
C1532 O1534 1.263 . S
O1533 Co1530 1.970 . S
O1533 C1532 1.258 . S
O1534 Co1531 1.966 . S
O1534 C1532 1.263 . S
C1535 O1536 1.235 . S
C1535 O1562 1.289 . S
O1536 C1535 1.235 . S
C1537 C1539 1.400 . S
C1537 N1540 1.351 . S
C1537 C1542 1.501 . S
C1538 C1539 1.387 . S
C1538 N1541 1.341 . S
C1539 C1537 1.400 . S
C1539 C1538 1.387 . S
N1540 Co1531 2.022 . S
N1540 C1537 1.351 . S
N1540 N1541 1.365 . S
N1541 C1538 1.341 . S
N1541 N1540 1.365 . S
N1541 H1561 0.862 . S
C1542 C1537 1.501 . S
C1542 H1543 0.961 . S
C1542 H1544 0.961 . S
C1542 H1545 0.960 . S
H1543 C1542 0.961 . S
H1544 C1542 0.961 . S
H1545 C1542 0.960 . S
C1546 N1547 1.342 . S
C1546 C1550 1.401 . S
C1546 C1551 1.499 . S
N1547 Co1530 1.989 . S
N1547 C1546 1.342 . S
N1547 N1548 1.388 . S
N1548 Co1531 1.993 . S
N1548 N1547 1.388 . S
N1548 C1549 1.346 . S
C1549 N1548 1.346 . S
C1549 C1550 1.396 . S
C1549 C1559 1.510 . S
C1550 C1546 1.401 . S
C1550 C1549 1.396 . S
C1551 C1546 1.499 . S
C1551 H1552 0.959 . S
C1551 H1553 0.960 . S
C1551 H1554 0.961 . S
H1552 C1551 0.959 . S
H1553 C1551 0.960 . S
H1554 C1551 0.961 . S
O1555 Co1530 1.967 . S
O1555 C1563 1.258 . S
O1556 Co1531 1.941 . S
O1556 C1563 1.266 . S
H1557 C1559 0.959 . S
H1558 C1559 0.961 . S
C1559 C1549 1.510 . S
C1559 H1557 0.959 . S
C1559 H1558 0.961 . S
C1559 H1560 0.960 . S
H1560 C1559 0.960 . S
H1561 N1541 0.862 . S
O1562 Co1530 1.920 . S
O1562 C1535 1.289 . S
C1563 O1555 1.258 . S
C1563 O1556 1.266 . S
Co1564 O1567 1.970 . S
Co1564 N1581 1.989 . S
Co1564 O1589 1.967 . S
Co1564 O1596 1.920 . S
Co1565 O1568 1.966 . S
Co1565 N1574 2.022 . S
Co1565 N1582 1.993 . S
Co1565 O1590 1.941 . S
C1566 O1567 1.258 . S
C1566 O1568 1.263 . S
O1567 Co1564 1.970 . S
O1567 C1566 1.258 . S
O1568 Co1565 1.966 . S
O1568 C1566 1.263 . S
C1569 O1570 1.235 . S
C1569 O1596 1.289 . S
O1570 C1569 1.235 . S
C1571 C1573 1.400 . S
C1571 N1574 1.351 . S
C1571 C1576 1.501 . S
C1572 C1573 1.387 . S
C1572 N1575 1.341 . S
C1573 C1571 1.400 . S
C1573 C1572 1.387 . S
N1574 Co1565 2.022 . S
N1574 C1571 1.351 . S
N1574 N1575 1.365 . S
N1575 C1572 1.341 . S
N1575 N1574 1.365 . S
N1575 H1595 0.862 . S
C1576 C1571 1.501 . S
C1576 H1577 0.961 . S
C1576 H1578 0.961 . S
C1576 H1579 0.960 . S
H1577 C1576 0.961 . S
H1578 C1576 0.961 . S
H1579 C1576 0.960 . S
C1580 N1581 1.342 . S
C1580 C1584 1.401 . S
C1580 C1585 1.499 . S
N1581 Co1564 1.989 . S
N1581 C1580 1.342 . S
N1581 N1582 1.388 . S
N1582 Co1565 1.993 . S
N1582 N1581 1.388 . S
N1582 C1583 1.346 . S
C1583 N1582 1.346 . S
C1583 C1584 1.396 . S
C1583 C1593 1.510 . S
C1584 C1580 1.401 . S
C1584 C1583 1.396 . S
C1585 C1580 1.499 . S
C1585 H1586 0.968 . S
C1585 H1587 0.960 . S
C1585 H1588 0.961 1_545 S
H1586 C1585 0.968 . S
H1587 C1585 0.960 . S
H1588 C1585 0.961 1_565 S
O1589 Co1564 1.967 . S
O1589 C1597 1.258 . S
O1590 Co1565 1.941 . S
O1590 C1597 1.266 . S
H1591 C1593 0.959 . S
H1592 C1593 0.961 . S
C1593 C1583 1.510 . S
C1593 H1591 0.959 . S
C1593 H1592 0.961 . S
C1593 H1594 0.960 . S
H1594 C1593 0.960 . S
H1595 N1575 0.862 . S
O1596 Co1564 1.920 . S
O1596 C1569 1.289 . S
C1597 O1589 1.258 . S
C1597 O1590 1.266 . S
Co1598 O1601 1.970 . S
Co1598 N1615 1.989 . S
Co1598 O1623 1.967 . S
Co1598 O1630 1.920 . S
Co1599 O1602 1.966 . S
Co1599 N1608 2.022 . S
Co1599 N1616 1.993 . S
Co1599 O1624 1.941 . S
C1600 O1601 1.258 . S
C1600 O1602 1.263 . S
O1601 Co1598 1.970 . S
O1601 C1600 1.258 . S
O1602 Co1599 1.966 . S
O1602 C1600 1.263 . S
C1603 O1604 1.235 . S
C1603 O1630 1.289 . S
O1604 C1603 1.235 . S
C1605 C1607 1.400 . S
C1605 N1608 1.351 . S
C1605 C1610 1.501 . S
C1606 C1607 1.387 . S
C1606 N1609 1.341 . S
C1607 C1605 1.400 . S
C1607 C1606 1.387 . S
N1608 Co1599 2.022 . S
N1608 C1605 1.351 . S
N1608 N1609 1.365 . S
N1609 C1606 1.341 . S
N1609 N1608 1.365 . S
N1609 H1629 0.862 . S
C1610 C1605 1.501 . S
C1610 H1611 0.961 . S
C1610 H1612 0.961 . S
C1610 H1613 0.960 . S
H1611 C1610 0.961 . S
H1612 C1610 0.961 . S
H1613 C1610 0.960 . S
C1614 N1615 1.342 . S
C1614 C1618 1.401 . S
C1614 C1619 1.499 . S
N1615 Co1598 1.989 . S
N1615 C1614 1.342 . S
N1615 N1616 1.388 . S
N1616 Co1599 1.993 . S
N1616 N1615 1.388 . S
N1616 C1617 1.346 . S
C1617 N1616 1.346 . S
C1617 C1618 1.396 . S
C1617 C1627 1.510 . S
C1618 C1614 1.401 . S
C1618 C1617 1.396 . S
C1619 C1614 1.499 . S
C1619 H1620 0.959 . S
C1619 H1621 0.960 . S
C1619 H1622 0.961 . S
H1620 C1619 0.959 . S
H1621 C1619 0.960 . S
H1622 C1619 0.961 . S
O1623 Co1598 1.967 . S
O1623 C1631 1.258 . S
O1624 Co1599 1.941 . S
O1624 C1631 1.266 . S
H1625 C1627 0.959 . S
H1626 C1627 0.961 . S
C1627 C1617 1.510 . S
C1627 H1625 0.959 . S
C1627 H1626 0.961 . S
C1627 H1628 0.960 . S
H1628 C1627 0.960 . S
H1629 N1609 0.862 . S
O1630 Co1598 1.920 . S
O1630 C1603 1.289 . S
C1631 O1623 1.258 . S
C1631 O1624 1.266 . S
H1632 C1638 0.930 . S
H1633 C1641 0.930 . S
H1634 C1642 0.930 . S
H1635 C1643 0.930 . S
H1636 C1646 0.930 . S
H1637 C1647 0.930 . S
C1638 H1632 0.930 . S
C1638 C1639 1.355 . S
C1638 C1640 1.415 . S
C1639 C1638 1.355 . S
C1639 C1641 1.419 . S
C1640 C1638 1.415 . S
C1640 C1645 1.425 . S
C1640 C1647 1.409 . S
C1641 H1633 0.930 . S
C1641 C1639 1.419 . S
C1641 C1642 1.362 . S
C1642 H1634 0.930 . S
C1642 C1641 1.362 . S
C1642 C1645 1.409 . S
C1643 H1635 0.930 . S
C1643 C1644 1.355 . S
C1643 C1645 1.415 . S
C1644 C1643 1.355 . S
C1644 C1646 1.419 . S
C1645 C1640 1.425 . S
C1645 C1642 1.409 . S
C1645 C1643 1.415 . S
C1646 H1636 0.930 . S
C1646 C1644 1.419 . S
C1646 C1647 1.362 . S
C1647 H1637 0.930 . S
C1647 C1640 1.409 . S
C1647 C1646 1.362 . S
H1648 C1654 0.930 . S
H1649 C1657 0.930 . S
H1650 C1658 0.930 . S
H1651 C1659 0.930 . S
H1652 C1662 0.930 . S
H1653 C1663 0.930 . S
C1654 H1648 0.930 . S
C1654 C1655 1.355 . S
C1654 C1656 1.415 . S
C1655 C1654 1.355 . S
C1655 C1657 1.419 . S
C1656 C1654 1.415 . S
C1656 C1661 1.425 . S
C1656 C1663 1.409 1_556 S
C1657 H1649 0.930 . S
C1657 C1655 1.419 . S
C1657 C1658 1.362 . S
C1658 H1650 0.930 . S
C1658 C1657 1.362 . S
C1658 C1661 1.409 . S
C1659 H1651 0.930 . S
C1659 C1660 1.355 . S
C1659 C1661 1.415 . S
C1660 C1659 1.355 . S
C1660 C1662 1.419 1_556 S
C1661 C1656 1.425 . S
C1661 C1658 1.409 . S
C1661 C1659 1.415 . S
C1662 H1652 0.930 . S
C1662 C1660 1.419 1_554 S
C1662 C1663 1.362 . S
C1663 H1653 0.930 . S
C1663 C1656 1.409 1_554 S
C1663 C1662 1.362 . S
H1664 C1670 0.930 . S
H1665 C1673 0.930 . S
H1666 C1674 0.930 . S
H1667 C1675 0.930 . S
H1668 C1678 0.930 . S
H1669 C1679 0.930 . S
C1670 H1664 0.930 . S
C1670 C1671 1.355 . S
C1670 C1672 1.415 . S
C1671 C1670 1.355 . S
C1671 C1673 1.419 . S
C1672 C1670 1.415 . S
C1672 C1677 1.425 . S
C1672 C1679 1.409 . S
C1673 H1665 0.930 . S
C1673 C1671 1.419 . S
C1673 C1674 1.362 . S
C1674 H1666 0.930 . S
C1674 C1673 1.362 . S
C1674 C1677 1.409 . S
C1675 H1667 0.930 . S
C1675 C1676 1.355 . S
C1675 C1677 1.415 . S
C1676 C1675 1.355 . S
C1676 C1678 1.419 . S
C1677 C1672 1.425 . S
C1677 C1674 1.409 . S
C1677 C1675 1.415 . S
C1678 H1668 0.930 . S
C1678 C1676 1.419 . S
C1678 C1679 1.362 . S
C1679 H1669 0.930 . S
C1679 C1672 1.409 . S
C1679 C1678 1.362 . S
H1680 C1686 0.930 . S
H1681 C1689 0.930 . S
H1682 C1690 0.930 . S
H1683 C1691 0.930 . S
H1684 C1694 0.930 . S
H1685 C1695 0.930 . S
C1686 H1680 0.930 . S
C1686 C1687 1.355 . S
C1686 C1688 1.415 . S
C1687 C1686 1.355 . S
C1687 C1689 1.419 1_556 S
C1688 C1686 1.415 . S
C1688 C1693 1.425 . S
C1688 C1695 1.409 . S
C1689 H1681 0.930 . S
C1689 C1687 1.419 1_554 S
C1689 C1690 1.362 . S
C1690 H1682 0.930 . S
C1690 C1689 1.362 . S
C1690 C1693 1.409 1_554 S
C1691 H1683 0.930 . S
C1691 C1692 1.355 . S
C1691 C1693 1.415 . S
C1692 C1691 1.355 . S
C1692 C1694 1.419 . S
C1693 C1688 1.425 . S
C1693 C1690 1.409 1_556 S
C1693 C1691 1.415 . S
C1694 H1684 0.930 . S
C1694 C1692 1.419 . S
C1694 C1695 1.362 . S
C1695 H1685 0.930 . S
C1695 C1688 1.409 . S
C1695 C1694 1.362 . S
H1696 C1702 0.930 . S
H1697 C1705 0.930 . S
H1698 C1706 0.930 . S
H1699 C1707 0.930 . S
H1700 C1710 0.930 . S
H1701 C1711 0.930 . S
C1702 H1696 0.930 . S
C1702 C1703 1.355 . S
C1702 C1704 1.415 . S
C1703 C1702 1.355 . S
C1703 C1705 1.419 . S
C1704 C1702 1.415 . S
C1704 C1709 1.425 . S
C1704 C1711 1.409 . S
C1705 H1697 0.930 . S
C1705 C1703 1.419 . S
C1705 C1706 1.362 . S
C1706 H1698 0.930 . S
C1706 C1705 1.362 . S
C1706 C1709 1.409 . S
C1707 H1699 0.930 . S
C1707 C1708 1.355 . S
C1707 C1709 1.415 . S
C1708 C1707 1.355 . S
C1708 C1710 1.419 . S
C1709 C1704 1.425 . S
C1709 C1706 1.409 . S
C1709 C1707 1.415 . S
C1710 H1700 0.930 . S
C1710 C1708 1.419 . S
C1710 C1711 1.362 . S
C1711 H1701 0.930 . S
C1711 C1704 1.409 . S
C1711 C1710 1.362 . S
H1712 C1718 0.930 . S
H1713 C1721 0.930 . S
H1714 C1722 0.930 . S
H1715 C1723 0.930 . S
H1716 C1726 0.930 1_556 S
H1717 C1727 0.930 . S
C1718 H1712 0.930 . S
C1718 C1719 1.355 . S
C1718 C1720 1.415 . S
C1719 C1718 1.355 . S
C1719 C1721 1.419 . S
C1720 C1718 1.415 . S
C1720 C1725 1.425 . S
C1720 C1727 1.409 . S
C1721 H1713 0.930 . S
C1721 C1719 1.419 . S
C1721 C1722 1.362 . S
C1722 H1714 0.930 . S
C1722 C1721 1.362 . S
C1722 C1725 1.409 . S
C1723 H1715 0.930 . S
C1723 C1724 1.355 . S
C1723 C1725 1.415 . S
C1724 C1723 1.355 . S
C1724 C1726 1.419 . S
C1725 C1720 1.425 . S
C1725 C1722 1.409 . S
C1725 C1723 1.415 . S
C1726 H1716 0.930 1_554 S
C1726 C1724 1.419 . S
C1726 C1727 1.362 . S
C1727 H1717 0.930 . S
C1727 C1720 1.409 . S
C1727 C1726 1.362 . S
H1728 C1734 0.930 . S
H1729 C1737 0.930 . S
H1730 C1738 0.930 . S
H1731 C1739 0.930 . S
H1732 C1742 0.930 . S
H1733 C1743 0.930 . S
C1734 H1728 0.930 . S
C1734 C1735 1.355 . S
C1734 C1736 1.415 . S
C1735 C1734 1.355 . S
C1735 C1737 1.419 . S
C1736 C1734 1.415 . S
C1736 C1741 1.425 . S
C1736 C1743 1.409 . S
C1737 H1729 0.930 . S
C1737 C1735 1.419 . S
C1737 C1738 1.362 . S
C1738 H1730 0.930 . S
C1738 C1737 1.362 . S
C1738 C1741 1.409 . S
C1739 H1731 0.930 . S
C1739 C1740 1.355 . S
C1739 C1741 1.415 . S
C1740 C1739 1.355 . S
C1740 C1742 1.419 . S
C1741 C1736 1.425 . S
C1741 C1738 1.409 . S
C1741 C1739 1.415 . S
C1742 H1732 0.930 . S
C1742 C1740 1.419 . S
C1742 C1743 1.362 . S
C1743 H1733 0.930 . S
C1743 C1736 1.409 . S
C1743 C1742 1.362 . S
H1744 C1750 0.930 1_556 S
H1745 C1753 0.930 1_455 S
H1746 C1754 0.930 . S
H1747 C1755 0.930 . S
H1748 C1758 0.930 . S
H1749 C1759 0.930 1_556 S
C1750 H1744 0.930 1_554 S
C1750 C1751 1.355 . S
C1750 C1752 1.415 . S
C1751 C1750 1.355 . S
C1751 C1753 1.419 . S
C1752 C1750 1.415 . S
C1752 C1757 1.425 . S
C1752 C1759 1.409 . S
C1753 H1745 0.930 1_655 S
C1753 C1751 1.419 . S
C1753 C1754 1.362 . S
C1754 H1746 0.930 . S
C1754 C1753 1.362 . S
C1754 C1757 1.409 . S
C1755 H1747 0.930 . S
C1755 C1756 1.355 . S
C1755 C1757 1.415 . S
C1756 C1755 1.355 . S
C1756 C1758 1.419 . S
C1757 C1752 1.425 . S
C1757 C1754 1.409 . S
C1757 C1755 1.415 . S
C1758 H1748 0.930 . S
C1758 C1756 1.419 . S
C1758 C1759 1.362 . S
C1759 H1749 0.930 1_554 S
C1759 C1752 1.409 . S
C1759 C1758 1.362 . S
H1760 C1766 0.930 . S
H1761 C1769 0.930 . S
H1762 C1770 0.930 . S
H1763 C1771 0.930 . S
H1764 C1774 0.930 . S
H1765 C1775 0.930 . S
C1766 H1760 0.930 . S
C1766 C1767 1.355 . S
C1766 C1768 1.415 . S
C1767 C1766 1.355 . S
C1767 C1769 1.419 . S
C1768 C1766 1.415 . S
C1768 C1773 1.425 . S
C1768 C1775 1.409 . S
C1769 H1761 0.930 . S
C1769 C1767 1.419 . S
C1769 C1770 1.362 . S
C1770 H1762 0.930 . S
C1770 C1769 1.362 . S
C1770 C1773 1.409 . S
C1771 H1763 0.930 . S
C1771 C1772 1.355 . S
C1771 C1773 1.415 . S
C1772 C1771 1.355 . S
C1772 C1774 1.419 . S
C1773 C1768 1.425 . S
C1773 C1770 1.409 . S
C1773 C1771 1.415 . S
C1774 H1764 0.930 . S
C1774 C1772 1.419 . S
C1774 C1775 1.362 . S
C1775 H1765 0.930 . S
C1775 C1768 1.409 . S
C1775 C1774 1.362 . S
H1776 C1782 0.930 . S
H1777 C1785 0.930 . S
H1778 C1786 0.930 . S
H1779 C1787 0.930 . S
H1780 C1790 0.930 . S
H1781 C1791 0.930 . S
C1782 H1776 0.930 . S
C1782 C1783 1.355 . S
C1782 C1784 1.415 . S
C1783 C1782 1.355 . S
C1783 C1785 1.419 . S
C1784 C1782 1.415 . S
C1784 C1789 1.425 . S
C1784 C1791 1.409 . S
C1785 H1777 0.930 . S
C1785 C1783 1.419 . S
C1785 C1786 1.362 . S
C1786 H1778 0.930 . S
C1786 C1785 1.362 . S
C1786 C1789 1.409 . S
C1787 H1779 0.930 . S
C1787 C1788 1.355 . S
C1787 C1789 1.415 . S
C1788 C1787 1.355 . S
C1788 C1790 1.419 . S
C1789 C1784 1.425 . S
C1789 C1786 1.409 . S
C1789 C1787 1.415 . S
C1790 H1780 0.930 . S
C1790 C1788 1.419 . S
C1790 C1791 1.362 . S
C1791 H1781 0.930 . S
C1791 C1784 1.409 . S
C1791 C1790 1.362 . S
H1792 C1798 0.930 . S
H1793 C1801 0.930 . S
H1794 C1802 0.930 . S
H1795 C1803 0.930 . S
H1796 C1806 0.930 . S
H1797 C1807 0.930 . S
C1798 H1792 0.930 . S
C1798 C1799 1.355 . S
C1798 C1800 1.415 . S
C1799 C1798 1.355 . S
C1799 C1801 1.419 . S
C1800 C1798 1.415 . S
C1800 C1805 1.425 . S
C1800 C1807 1.409 . S
C1801 H1793 0.930 . S
C1801 C1799 1.419 . S
C1801 C1802 1.362 . S
C1802 H1794 0.930 . S
C1802 C1801 1.362 . S
C1802 C1805 1.409 . S
C1803 H1795 0.930 . S
C1803 C1804 1.355 . S
C1803 C1805 1.415 . S
C1804 C1803 1.355 . S
C1804 C1806 1.419 . S
C1805 C1800 1.425 . S
C1805 C1802 1.409 . S
C1805 C1803 1.415 . S
C1806 H1796 0.930 . S
C1806 C1804 1.419 . S
C1806 C1807 1.362 . S
C1807 H1797 0.930 . S
C1807 C1800 1.409 . S
C1807 C1806 1.362 . S
H1808 C1814 0.930 . S
H1809 C1817 0.930 . S
H1810 C1818 0.930 . S
H1811 C1819 0.930 . S
H1812 C1822 0.930 . S
H1813 C1823 0.930 . S
C1814 H1808 0.930 . S
C1814 C1815 1.355 . S
C1814 C1816 1.415 . S
C1815 C1814 1.355 . S
C1815 C1817 1.419 1_545 S
C1816 C1814 1.415 . S
C1816 C1821 1.425 . S
C1816 C1823 1.409 . S
C1817 H1809 0.930 . S
C1817 C1815 1.419 1_565 S
C1817 C1818 1.362 . S
C1818 H1810 0.930 . S
C1818 C1817 1.362 . S
C1818 C1821 1.409 1_565 S
C1819 H1811 0.930 . S
C1819 C1820 1.355 . S
C1819 C1821 1.415 . S
C1820 C1819 1.355 . S
C1820 C1822 1.419 . S
C1821 C1816 1.425 . S
C1821 C1818 1.409 1_545 S
C1821 C1819 1.415 . S
C1822 H1812 0.930 . S
C1822 C1820 1.419 . S
C1822 C1823 1.362 . S
C1823 H1813 0.930 . S
C1823 C1816 1.409 . S
C1823 C1822 1.362 . S
H1824 C1830 0.930 . S
H1825 C1833 0.930 . S
H1826 C1834 0.930 . S
H1827 C1835 0.930 . S
H1828 C1838 0.930 . S
H1829 C1839 0.930 . S
C1830 H1824 0.930 . S
C1830 C1831 1.355 . S
C1830 C1832 1.415 . S
C1831 C1830 1.355 . S
C1831 C1833 1.419 . S
C1832 C1830 1.415 . S
C1832 C1837 1.425 . S
C1832 C1839 1.409 . S
C1833 H1825 0.930 . S
C1833 C1831 1.419 . S
C1833 C1834 1.362 . S
C1834 H1826 0.930 . S
C1834 C1833 1.362 . S
C1834 C1837 1.409 . S
C1835 H1827 0.930 . S
C1835 C1836 1.355 . S
C1835 C1837 1.415 . S
C1836 C1835 1.355 . S
C1836 C1838 1.419 . S
C1837 C1832 1.425 . S
C1837 C1834 1.409 . S
C1837 C1835 1.415 . S
C1838 H1828 0.930 . S
C1838 C1836 1.419 . S
C1838 C1839 1.362 . S
C1839 H1829 0.930 . S
C1839 C1832 1.409 . S
C1839 C1838 1.362 . S
H1840 C1846 0.930 . S
H1841 C1849 0.930 . S
H1842 C1850 0.930 . S
H1843 C1851 0.930 . S
H1844 C1854 0.930 . S
H1845 C1855 0.930 . S
C1846 H1840 0.930 . S
C1846 C1847 1.355 . S
C1846 C1848 1.415 . S
C1847 C1846 1.355 . S
C1847 C1849 1.419 . S
C1848 C1846 1.415 . S
C1848 C1853 1.425 . S
C1848 C1855 1.409 . S
C1849 H1841 0.930 . S
C1849 C1847 1.419 . S
C1849 C1850 1.362 . S
C1850 H1842 0.930 . S
C1850 C1849 1.362 . S
C1850 C1853 1.409 . S
C1851 H1843 0.930 . S
C1851 C1852 1.355 . S
C1851 C1853 1.415 . S
C1852 C1851 1.355 . S
C1852 C1854 1.419 . S
C1853 C1848 1.425 . S
C1853 C1850 1.409 . S
C1853 C1851 1.415 . S
C1854 H1844 0.930 . S
C1854 C1852 1.419 . S
C1854 C1855 1.362 . S
C1855 H1845 0.930 . S
C1855 C1848 1.409 . S
C1855 C1854 1.362 . S
H1856 C1862 0.930 . S
H1857 C1865 0.930 . S
H1858 C1866 0.930 . S
H1859 C1867 0.930 . S
H1860 C1870 0.930 . S
H1861 C1871 0.930 . S
C1862 H1856 0.930 . S
C1862 C1863 1.355 . S
C1862 C1864 1.415 . S
C1863 C1862 1.355 . S
C1863 C1865 1.419 . S
C1864 C1862 1.415 . S
C1864 C1869 1.425 . S
C1864 C1871 1.409 . S
C1865 H1857 0.930 . S
C1865 C1863 1.419 . S
C1865 C1866 1.362 . S
C1866 H1858 0.930 . S
C1866 C1865 1.362 . S
C1866 C1869 1.409 . S
C1867 H1859 0.930 . S
C1867 C1868 1.355 . S
C1867 C1869 1.415 . S
C1868 C1867 1.355 . S
C1868 C1870 1.419 . S
C1869 C1864 1.425 . S
C1869 C1866 1.409 . S
C1869 C1867 1.415 . S
C1870 H1860 0.930 . S
C1870 C1868 1.419 . S
C1870 C1871 1.362 . S
C1871 H1861 0.930 . S
C1871 C1864 1.409 . S
C1871 C1870 1.362 . S
H1872 C1878 0.930 . S
H1873 C1881 0.930 1_565 S
H1874 C1882 0.926 1_565 S
H1875 C1883 0.930 . S
H1876 C1886 0.930 . S
H1877 C1887 0.930 . S
C1878 H1872 0.930 . S
C1878 C1879 1.355 . S
C1878 C1880 1.415 . S
C1879 C1878 1.355 . S
C1879 C1881 1.419 . S
C1880 C1878 1.415 . S
C1880 C1885 1.425 . S
C1880 C1887 1.409 . S
C1881 H1873 0.930 1_545 S
C1881 C1879 1.419 . S
C1881 C1882 1.362 . S
C1882 H1874 0.926 1_545 S
C1882 C1881 1.362 . S
C1882 C1885 1.409 . S
C1883 H1875 0.930 . S
C1883 C1884 1.355 . S
C1883 C1885 1.415 . S
C1884 C1883 1.355 . S
C1884 C1886 1.419 . S
C1885 C1880 1.425 . S
C1885 C1882 1.409 . S
C1885 C1883 1.415 . S
C1886 H1876 0.930 . S
C1886 C1884 1.419 . S
C1886 C1887 1.362 . S
C1887 H1877 0.930 . S
C1887 C1880 1.409 . S
C1887 C1886 1.362 . S
H1888 C1894 0.930 . S
H1889 C1897 0.930 . S
H1890 C1898 0.930 . S
H1891 C1899 0.930 . S
H1892 C1902 0.930 . S
H1893 C1903 0.930 . S
C1894 H1888 0.930 . S
C1894 C1895 1.355 . S
C1894 C1896 1.415 . S
C1895 C1894 1.355 . S
C1895 C1897 1.419 . S
C1896 C1894 1.415 . S
C1896 C1901 1.425 . S
C1896 C1903 1.409 . S
C1897 H1889 0.930 . S
C1897 C1895 1.419 . S
C1897 C1898 1.362 . S
C1898 H1890 0.930 . S
C1898 C1897 1.362 . S
C1898 C1901 1.409 . S
C1899 H1891 0.930 . S
C1899 C1900 1.355 . S
C1899 C1901 1.415 . S
C1900 C1899 1.355 . S
C1900 C1902 1.419 . S
C1901 C1896 1.425 . S
C1901 C1898 1.409 . S
C1901 C1899 1.415 . S
C1902 H1892 0.930 . S
C1902 C1900 1.419 . S
C1902 C1903 1.362 . S
C1903 H1893 0.930 . S
C1903 C1896 1.409 . S
C1903 C1902 1.362 . S
H1904 C1910 0.930 . S
H1905 C1913 0.930 . S
H1906 C1914 0.930 . S
H1907 C1915 0.930 . S
H1908 C1918 0.930 . S
H1909 C1919 0.930 . S
C1910 H1904 0.930 . S
C1910 C1911 1.355 . S
C1910 C1912 1.415 . S
C1911 C1910 1.355 . S
C1911 C1913 1.419 . S
C1912 C1910 1.415 . S
C1912 C1917 1.425 . S
C1912 C1919 1.409 . S
C1913 H1905 0.930 . S
C1913 C1911 1.419 . S
C1913 C1914 1.362 . S
C1914 H1906 0.930 . S
C1914 C1913 1.362 . S
C1914 C1917 1.409 . S
C1915 H1907 0.930 . S
C1915 C1916 1.355 . S
C1915 C1917 1.415 . S
C1916 C1915 1.355 . S
C1916 C1918 1.419 . S
C1917 C1912 1.425 . S
C1917 C1914 1.409 . S
C1917 C1915 1.415 . S
C1918 H1908 0.930 . S
C1918 C1916 1.419 . S
C1918 C1919 1.362 . S
C1919 H1909 0.930 . S
C1919 C1912 1.409 . S
C1919 C1918 1.362 . S
H1920 C1926 0.912 1_455 S
H1921 C1929 0.930 . S
H1922 C1930 0.930 . S
H1923 C1931 0.930 . S
H1924 C1934 0.908 1_455 S
H1925 C1935 0.930 . S
C1926 H1920 0.912 1_655 S
C1926 C1927 1.364 . S
C1926 C1928 1.422 . S
C1927 C1926 1.364 . S
C1927 C1929 1.419 . S
C1928 C1926 1.422 . S
C1928 C1933 1.425 . S
C1928 C1935 1.409 1_655 S
C1929 H1921 0.930 . S
C1929 C1927 1.419 . S
C1929 C1930 1.362 . S
C1930 H1922 0.930 . S
C1930 C1929 1.362 . S
C1930 C1933 1.409 . S
C1931 H1923 0.930 . S
C1931 C1932 1.355 . S
C1931 C1933 1.415 . S
C1932 C1931 1.355 . S
C1932 C1934 1.419 . S
C1933 C1928 1.425 . S
C1933 C1930 1.409 . S
C1933 C1931 1.415 . S
C1934 H1924 0.908 1_655 S
C1934 C1932 1.419 . S
C1934 C1935 1.362 1_655 S
C1935 H1925 0.930 . S
C1935 C1928 1.409 1_455 S
C1935 C1934 1.362 1_455 S
H1936 C1942 0.930 . S
H1937 C1945 0.930 . S
H1938 C1946 0.930 . S
H1939 C1947 0.930 . S
H1940 C1950 0.930 . S
H1941 C1951 0.930 . S
C1942 H1936 0.930 . S
C1942 C1943 1.355 . S
C1942 C1944 1.415 . S
C1943 C1942 1.355 . S
C1943 C1945 1.419 . S
C1944 C1942 1.415 . S
C1944 C1949 1.425 . S
C1944 C1951 1.409 . S
C1945 H1937 0.930 . S
C1945 C1943 1.419 . S
C1945 C1946 1.362 . S
C1946 H1938 0.930 . S
C1946 C1945 1.362 . S
C1946 C1949 1.409 . S
C1947 H1939 0.930 . S
C1947 C1948 1.355 . S
C1947 C1949 1.415 . S
C1948 C1947 1.355 . S
C1948 C1950 1.419 . S
C1949 C1944 1.425 . S
C1949 C1946 1.409 . S
C1949 C1947 1.415 . S
C1950 H1940 0.930 . S
C1950 C1948 1.419 . S
C1950 C1951 1.362 . S
C1951 H1941 0.930 . S
C1951 C1944 1.409 . S
C1951 C1950 1.362 . S
H1952 C1958 0.930 . S
H1953 C1961 0.930 . S
H1954 C1962 0.930 . S
H1955 C1963 0.930 . S
H1956 C1966 0.930 . S
H1957 C1967 0.930 . S
C1958 H1952 0.930 . S
C1958 C1959 1.355 . S
C1958 C1960 1.415 . S
C1959 C1958 1.355 . S
C1959 C1961 1.419 . S
C1960 C1958 1.415 . S
C1960 C1965 1.425 . S
C1960 C1967 1.409 . S
C1961 H1953 0.930 . S
C1961 C1959 1.419 . S
C1961 C1962 1.362 . S
C1962 H1954 0.930 . S
C1962 C1961 1.362 . S
C1962 C1965 1.409 . S
C1963 H1955 0.930 . S
C1963 C1964 1.355 . S
C1963 C1965 1.415 . S
C1964 C1963 1.355 . S
C1964 C1966 1.419 . S
C1965 C1960 1.425 . S
C1965 C1962 1.409 . S
C1965 C1963 1.415 . S
C1966 H1956 0.930 . S
C1966 C1964 1.419 . S
C1966 C1967 1.362 . S
C1967 H1957 0.930 . S
C1967 C1960 1.409 . S
C1967 C1966 1.362 . S
H1968 C1974 0.930 . S
H1969 C1977 0.930 . S
H1970 C1978 0.930 . S
H1971 C1979 0.930 . S
H1972 C1982 0.930 . S
H1973 C1983 0.930 . S
C1974 H1968 0.930 . S
C1974 C1975 1.355 . S
C1974 C1976 1.415 . S
C1975 C1974 1.355 . S
C1975 C1977 1.419 . S
C1976 C1974 1.415 . S
C1976 C1981 1.425 . S
C1976 C1983 1.409 . S
C1977 H1969 0.930 . S
C1977 C1975 1.419 . S
C1977 C1978 1.362 . S
C1978 H1970 0.930 . S
C1978 C1977 1.362 . S
C1978 C1981 1.409 . S
C1979 H1971 0.930 . S
C1979 C1980 1.355 . S
C1979 C1981 1.415 . S
C1980 C1979 1.355 . S
C1980 C1982 1.419 . S
C1981 C1976 1.425 . S
C1981 C1978 1.409 . S
C1981 C1979 1.415 . S
C1982 H1972 0.930 . S
C1982 C1980 1.419 . S
C1982 C1983 1.362 . S
C1983 H1973 0.930 . S
C1983 C1976 1.409 . S
C1983 C1982 1.362 . S
H1984 C1990 0.930 . S
H1985 C1993 0.930 . S
H1986 C1994 0.930 . S
H1987 C1995 0.930 . S
H1988 C1998 0.930 . S
H1989 C1999 0.930 . S
C1990 H1984 0.930 . S
C1990 C1991 1.355 . S
C1990 C1992 1.415 . S
C1991 C1990 1.355 . S
C1991 C1993 1.419 . S
C1992 C1990 1.415 . S
C1992 C1997 1.425 . S
C1992 C1999 1.409 . S
C1993 H1985 0.930 . S
C1993 C1991 1.419 . S
C1993 C1994 1.362 . S
C1994 H1986 0.930 . S
C1994 C1993 1.362 . S
C1994 C1997 1.409 . S
C1995 H1987 0.930 . S
C1995 C1996 1.355 . S
C1995 C1997 1.415 . S
C1996 C1995 1.355 . S
C1996 C1998 1.419 . S
C1997 C1992 1.425 . S
C1997 C1994 1.409 . S
C1997 C1995 1.415 . S
C1998 H1988 0.930 . S
C1998 C1996 1.419 . S
C1998 C1999 1.362 . S
C1999 H1989 0.930 . S
C1999 C1992 1.409 . S
C1999 C1998 1.362 . S
H2000 C2006 0.930 . S
H2001 C2009 0.930 . S
H2002 C2010 0.930 . S
H2003 C2011 0.930 . S
H2004 C2014 0.930 . S
H2005 C2015 0.930 . S
C2006 H2000 0.930 . S
C2006 C2007 1.355 . S
C2006 C2008 1.415 . S
C2007 C2006 1.355 . S
C2007 C2009 1.419 . S
C2008 C2006 1.415 . S
C2008 C2013 1.425 . S
C2008 C2015 1.409 . S
C2009 H2001 0.930 . S
C2009 C2007 1.419 . S
C2009 C2010 1.362 . S
C2010 H2002 0.930 . S
C2010 C2009 1.362 . S
C2010 C2013 1.409 . S
C2011 H2003 0.930 . S
C2011 C2012 1.355 . S
C2011 C2013 1.415 . S
C2012 C2011 1.355 . S
C2012 C2014 1.419 . S
C2013 C2008 1.425 . S
C2013 C2010 1.409 . S
C2013 C2011 1.415 . S
C2014 H2004 0.930 . S
C2014 C2012 1.419 . S
C2014 C2015 1.362 . S
C2015 H2005 0.930 . S
C2015 C2008 1.409 . S
C2015 C2014 1.362 . S
H2016 C2022 0.930 . S
H2017 C2025 0.930 . S
H2018 C2026 0.930 . S
H2019 C2027 0.930 . S
H2020 C2030 0.930 . S
H2021 C2031 0.930 . S
C2022 H2016 0.930 . S
C2022 C2023 1.355 . S
C2022 C2024 1.415 . S
C2023 C2022 1.355 . S
C2023 C2025 1.419 . S
C2024 C2022 1.415 . S
C2024 C2029 1.425 . S
C2024 C2031 1.409 . S
C2025 H2017 0.930 . S
C2025 C2023 1.419 . S
C2025 C2026 1.362 . S
C2026 H2018 0.930 . S
C2026 C2025 1.362 . S
C2026 C2029 1.409 . S
C2027 H2019 0.930 . S
C2027 C2028 1.355 . S
C2027 C2029 1.415 . S
C2028 C2027 1.355 . S
C2028 C2030 1.419 . S
C2029 C2024 1.425 . S
C2029 C2026 1.409 . S
C2029 C2027 1.415 . S
C2030 H2020 0.930 . S
C2030 C2028 1.419 . S
C2030 C2031 1.362 . S
C2031 H2021 0.930 . S
C2031 C2024 1.409 . S
C2031 C2030 1.362 . S
H2032 C2038 0.930 . S
H2033 C2041 0.930 . S
H2034 C2042 0.930 . S
H2035 C2043 0.930 . S
H2036 C2046 0.930 . S
H2037 C2047 0.930 . S
C2038 H2032 0.930 . S
C2038 C2039 1.355 . S
C2038 C2040 1.415 . S
C2039 C2038 1.355 . S
C2039 C2041 1.419 . S
C2040 C2038 1.415 . S
C2040 C2045 1.425 . S
C2040 C2047 1.409 . S
C2041 H2033 0.930 . S
C2041 C2039 1.419 . S
C2041 C2042 1.362 . S
C2042 H2034 0.930 . S
C2042 C2041 1.362 . S
C2042 C2045 1.409 . S
C2043 H2035 0.930 . S
C2043 C2044 1.355 . S
C2043 C2045 1.415 . S
C2044 C2043 1.355 . S
C2044 C2046 1.419 . S
C2045 C2040 1.425 . S
C2045 C2042 1.409 . S
C2045 C2043 1.415 . S
C2046 H2036 0.930 . S
C2046 C2044 1.419 . S
C2046 C2047 1.362 . S
C2047 H2037 0.930 . S
C2047 C2040 1.409 . S
C2047 C2046 1.362 . S
H2048 C2054 0.930 . S
H2049 C2057 0.930 . S
H2050 C2058 0.930 . S
H2051 C2059 0.930 . S
H2052 C2062 0.930 . S
H2053 C2063 0.930 . S
C2054 H2048 0.930 . S
C2054 C2055 1.355 . S
C2054 C2056 1.415 . S
C2055 C2054 1.355 . S
C2055 C2057 1.419 . S
C2056 C2054 1.415 . S
C2056 C2061 1.425 . S
C2056 C2063 1.409 . S
C2057 H2049 0.930 . S
C2057 C2055 1.419 . S
C2057 C2058 1.362 . S
C2058 H2050 0.930 . S
C2058 C2057 1.362 . S
C2058 C2061 1.409 . S
C2059 H2051 0.930 . S
C2059 C2060 1.355 . S
C2059 C2061 1.415 . S
C2060 C2059 1.355 . S
C2060 C2062 1.419 . S
C2061 C2056 1.425 . S
C2061 C2058 1.409 . S
C2061 C2059 1.415 . S
C2062 H2052 0.930 . S
C2062 C2060 1.419 . S
C2062 C2063 1.362 . S
C2063 H2053 0.930 . S
C2063 C2056 1.409 . S
C2063 C2062 1.362 . S
H2064 C2070 0.930 . S
H2065 C2073 0.930 1_655 S
H2066 C2074 0.930 . S
H2067 C2075 0.930 . S
H2068 C2078 0.930 . S
H2069 C2079 0.930 . S
C2070 H2064 0.930 . S
C2070 C2071 1.355 . S
C2070 C2072 1.415 . S
C2071 C2070 1.355 . S
C2071 C2073 1.419 . S
C2072 C2070 1.415 . S
C2072 C2077 1.425 . S
C2072 C2079 1.409 . S
C2073 H2065 0.930 1_455 S
C2073 C2071 1.419 . S
C2073 C2074 1.362 . S
C2074 H2066 0.930 . S
C2074 C2073 1.362 . S
C2074 C2077 1.409 . S
C2075 H2067 0.930 . S
C2075 C2076 1.355 . S
C2075 C2077 1.415 . S
C2076 C2075 1.355 . S
C2076 C2078 1.419 . S
C2077 C2072 1.425 . S
C2077 C2074 1.409 . S
C2077 C2075 1.415 . S
C2078 H2068 0.930 . S
C2078 C2076 1.419 . S
C2078 C2079 1.362 . S
C2079 H2069 0.930 . S
C2079 C2072 1.409 . S
C2079 C2078 1.362 . S
H2080 C2086 0.930 . S
H2081 C2089 0.930 . S
H2082 C2090 0.930 . S
H2083 C2091 0.930 . S
H2084 C2094 0.930 . S
H2085 C2095 0.930 . S
C2086 H2080 0.930 . S
C2086 C2087 1.355 . S
C2086 C2088 1.415 . S
C2087 C2086 1.355 . S
C2087 C2089 1.419 . S
C2088 C2086 1.415 . S
C2088 C2093 1.425 . S
C2088 C2095 1.409 . S
C2089 H2081 0.930 . S
C2089 C2087 1.419 . S
C2089 C2090 1.362 . S
C2090 H2082 0.930 . S
C2090 C2089 1.362 . S
C2090 C2093 1.409 . S
C2091 H2083 0.930 . S
C2091 C2092 1.355 . S
C2091 C2093 1.415 . S
C2092 C2091 1.355 . S
C2092 C2094 1.419 . S
C2093 C2088 1.425 . S
C2093 C2090 1.409 . S
C2093 C2091 1.415 . S
C2094 H2084 0.930 . S
C2094 C2092 1.419 . S
C2094 C2095 1.362 . S
C2095 H2085 0.930 . S
C2095 C2088 1.409 . S
C2095 C2094 1.362 . S
H2096 C2102 0.930 . S
H2097 C2105 0.930 . S
H2098 C2106 0.930 . S
H2099 C2107 0.930 . S
H2100 C2110 0.930 . S
H2101 C2111 0.930 . S
C2102 H2096 0.930 . S
C2102 C2103 1.355 . S
C2102 C2104 1.415 . S
C2103 C2102 1.355 . S
C2103 C2105 1.419 . S
C2104 C2102 1.415 . S
C2104 C2109 1.425 . S
C2104 C2111 1.409 . S
C2105 H2097 0.930 . S
C2105 C2103 1.419 . S
C2105 C2106 1.362 . S
C2106 H2098 0.930 . S
C2106 C2105 1.362 . S
C2106 C2109 1.409 . S
C2107 H2099 0.930 . S
C2107 C2108 1.355 . S
C2107 C2109 1.415 . S
C2108 C2107 1.355 . S
C2108 C2110 1.419 . S
C2109 C2104 1.425 . S
C2109 C2106 1.409 . S
C2109 C2107 1.415 . S
C2110 H2100 0.930 . S
C2110 C2108 1.419 . S
C2110 C2111 1.362 . S
C2111 H2101 0.930 . S
C2111 C2104 1.409 . S
C2111 C2110 1.362 . S
H2112 C2118 0.930 . S
H2113 C2121 0.930 . S
H2114 C2122 0.930 . S
H2115 C2123 0.930 . S
H2116 C2126 0.930 . S
H2117 C2127 0.930 . S
C2118 H2112 0.930 . S
C2118 C2119 1.355 . S
C2118 C2120 1.415 . S
C2119 C2118 1.355 . S
C2119 C2121 1.419 . S
C2120 C2118 1.415 . S
C2120 C2125 1.425 . S
C2120 C2127 1.409 . S
C2121 H2113 0.930 . S
C2121 C2119 1.419 . S
C2121 C2122 1.362 . S
C2122 H2114 0.930 . S
C2122 C2121 1.362 . S
C2122 C2125 1.409 . S
C2123 H2115 0.930 . S
C2123 C2124 1.355 . S
C2123 C2125 1.415 . S
C2124 C2123 1.355 . S
C2124 C2126 1.419 . S
C2125 C2120 1.425 . S
C2125 C2122 1.409 . S
C2125 C2123 1.415 . S
C2126 H2116 0.930 . S
C2126 C2124 1.419 . S
C2126 C2127 1.362 . S
C2127 H2117 0.930 . S
C2127 C2120 1.409 . S
C2127 C2126 1.362 . S
H2128 C2134 0.930 . S
H2129 C2137 0.930 . S
H2130 C2138 0.930 . S
H2131 C2139 0.930 . S
H2132 C2142 0.930 . S
H2133 C2143 0.930 . S
C2134 H2128 0.930 . S
C2134 C2135 1.355 . S
C2134 C2136 1.415 . S
C2135 C2134 1.355 . S
C2135 C2137 1.419 . S
C2136 C2134 1.415 . S
C2136 C2141 1.425 . S
C2136 C2143 1.409 . S
C2137 H2129 0.930 . S
C2137 C2135 1.419 . S
C2137 C2138 1.362 . S
C2138 H2130 0.930 . S
C2138 C2137 1.362 . S
C2138 C2141 1.409 . S
C2139 H2131 0.930 . S
C2139 C2140 1.355 . S
C2139 C2141 1.415 . S
C2140 C2139 1.355 . S
C2140 C2142 1.419 . S
C2141 C2136 1.425 . S
C2141 C2138 1.409 . S
C2141 C2139 1.415 . S
C2142 H2132 0.930 . S
C2142 C2140 1.419 . S
C2142 C2143 1.362 . S
C2143 H2133 0.930 . S
C2143 C2136 1.409 . S
C2143 C2142 1.362 . S
H2144 C2150 0.930 . S
H2145 C2153 0.930 . S
H2146 C2154 0.930 . S
H2147 C2155 0.930 . S
H2148 C2158 0.930 . S
H2149 C2159 0.930 . S
C2150 H2144 0.930 . S
C2150 C2151 1.355 . S
C2150 C2152 1.415 . S
C2151 C2150 1.355 . S
C2151 C2153 1.419 . S
C2152 C2150 1.415 . S
C2152 C2157 1.425 . S
C2152 C2159 1.409 . S
C2153 H2145 0.930 . S
C2153 C2151 1.419 . S
C2153 C2154 1.362 . S
C2154 H2146 0.930 . S
C2154 C2153 1.362 . S
C2154 C2157 1.409 . S
C2155 H2147 0.930 . S
C2155 C2156 1.355 . S
C2155 C2157 1.415 . S
C2156 C2155 1.355 . S
C2156 C2158 1.419 . S
C2157 C2152 1.425 . S
C2157 C2154 1.409 . S
C2157 C2155 1.415 . S
C2158 H2148 0.930 . S
C2158 C2156 1.419 . S
C2158 C2159 1.362 . S
C2159 H2149 0.930 . S
C2159 C2152 1.409 . S
C2159 C2158 1.362 . S
H2160 C2166 0.930 . S
H2161 C2169 0.930 . S
H2162 C2170 0.930 1_545 S
H2163 C2171 0.930 1_545 S
H2164 C2174 0.930 . S
H2165 C2175 0.930 . S
C2166 H2160 0.930 . S
C2166 C2167 1.355 . S
C2166 C2168 1.415 . S
C2167 C2166 1.355 . S
C2167 C2169 1.419 . S
C2168 C2166 1.415 . S
C2168 C2173 1.425 . S
C2168 C2175 1.409 . S
C2169 H2161 0.930 . S
C2169 C2167 1.419 . S
C2169 C2170 1.362 . S
C2170 H2162 0.930 1_565 S
C2170 C2169 1.362 . S
C2170 C2173 1.409 . S
C2171 H2163 0.930 1_565 S
C2171 C2172 1.355 . S
C2171 C2173 1.415 . S
C2172 C2171 1.355 . S
C2172 C2174 1.419 . S
C2173 C2168 1.425 . S
C2173 C2170 1.409 . S
C2173 C2171 1.415 . S
C2174 H2164 0.930 . S
C2174 C2172 1.419 . S
C2174 C2175 1.362 . S
C2175 H2165 0.930 . S
C2175 C2168 1.409 . S
C2175 C2174 1.362 . S
H2176 C2182 0.930 . S
H2177 C2185 0.930 . S
H2178 C2186 0.930 . S
H2179 C2187 0.930 . S
H2180 C2190 0.930 . S
H2181 C2191 0.930 . S
C2182 H2176 0.930 . S
C2182 C2183 1.355 . S
C2182 C2184 1.415 . S
C2183 C2182 1.355 . S
C2183 C2185 1.419 . S
C2184 C2182 1.415 . S
C2184 C2189 1.425 . S
C2184 C2191 1.409 . S
C2185 H2177 0.930 . S
C2185 C2183 1.419 . S
C2185 C2186 1.362 . S
C2186 H2178 0.930 . S
C2186 C2185 1.362 . S
C2186 C2189 1.409 . S
C2187 H2179 0.930 . S
C2187 C2188 1.355 . S
C2187 C2189 1.415 . S
C2188 C2187 1.355 . S
C2188 C2190 1.419 . S
C2189 C2184 1.425 . S
C2189 C2186 1.409 . S
C2189 C2187 1.415 . S
C2190 H2180 0.930 . S
C2190 C2188 1.419 . S
C2190 C2191 1.362 . S
C2191 H2181 0.930 . S
C2191 C2184 1.409 . S
C2191 C2190 1.362 . S
H2192 C2198 0.930 . S
H2193 C2201 0.930 . S
H2194 C2202 0.930 . S
H2195 C2203 0.930 . S
H2196 C2206 0.930 . S
H2197 C2207 0.930 . S
C2198 H2192 0.930 . S
C2198 C2199 1.355 . S
C2198 C2200 1.415 . S
C2199 C2198 1.355 . S
C2199 C2201 1.419 . S
C2200 C2198 1.415 . S
C2200 C2205 1.425 . S
C2200 C2207 1.409 . S
C2201 H2193 0.930 . S
C2201 C2199 1.419 . S
C2201 C2202 1.362 . S
C2202 H2194 0.930 . S
C2202 C2201 1.362 . S
C2202 C2205 1.409 . S
C2203 H2195 0.930 . S
C2203 C2204 1.355 . S
C2203 C2205 1.415 . S
C2204 C2203 1.355 . S
C2204 C2206 1.419 . S
C2205 C2200 1.425 . S
C2205 C2202 1.409 . S
C2205 C2203 1.415 . S
C2206 H2196 0.930 . S
C2206 C2204 1.419 . S
C2206 C2207 1.362 . S
C2207 H2197 0.930 . S
C2207 C2200 1.409 . S
C2207 C2206 1.362 . S
H2208 C2214 0.930 . S
H2209 C2217 0.930 . S
H2210 C2218 0.930 . S
H2211 C2219 0.930 . S
H2212 C2222 0.930 . S
H2213 C2223 0.930 . S
C2214 H2208 0.930 . S
C2214 C2215 1.355 . S
C2214 C2216 1.415 . S
C2215 C2214 1.355 . S
C2215 C2217 1.419 . S
C2216 C2214 1.415 . S
C2216 C2221 1.425 . S
C2216 C2223 1.409 . S
C2217 H2209 0.930 . S
C2217 C2215 1.419 . S
C2217 C2218 1.362 . S
C2218 H2210 0.930 . S
C2218 C2217 1.362 . S
C2218 C2221 1.409 . S
C2219 H2211 0.930 . S
C2219 C2220 1.355 . S
C2219 C2221 1.415 . S
C2220 C2219 1.355 . S
C2220 C2222 1.419 . S
C2221 C2216 1.425 . S
C2221 C2218 1.409 . S
C2221 C2219 1.415 . S
C2222 H2212 0.930 . S
C2222 C2220 1.419 . S
C2222 C2223 1.362 . S
C2223 H2213 0.930 . S
C2223 C2216 1.409 . S
C2223 C2222 1.362 . S
H2224 C2230 0.930 . S
H2225 C2233 0.942 . S
H2226 C2234 0.930 . S
H2227 C2235 0.930 . S
H2228 C2238 0.930 . S
H2229 C2239 0.930 . S
C2230 H2224 0.930 . S
C2230 C2231 1.355 . S
C2230 C2232 1.415 . S
C2231 C2230 1.355 . S
C2231 C2233 1.419 . S
C2232 C2230 1.415 . S
C2232 C2237 1.425 . S
C2232 C2239 1.409 . S
C2233 H2225 0.942 . S
C2233 C2231 1.419 . S
C2233 C2234 1.362 . S
C2234 H2226 0.930 . S
C2234 C2233 1.362 . S
C2234 C2237 1.409 . S
C2235 H2227 0.930 . S
C2235 C2236 1.355 . S
C2235 C2237 1.415 . S
C2236 C2235 1.355 . S
C2236 C2238 1.419 . S
C2237 C2232 1.425 . S
C2237 C2234 1.409 . S
C2237 C2235 1.415 . S
C2238 H2228 0.930 . S
C2238 C2236 1.419 . S
C2238 C2239 1.362 . S
C2239 H2229 0.930 . S
C2239 C2232 1.409 . S
C2239 C2238 1.362 . S
H2240 C2246 0.930 . S
H2241 C2249 0.930 . S
H2242 C2250 0.930 . S
H2243 C2251 0.930 . S
H2244 C2254 0.930 . S
H2245 C2255 0.930 . S
C2246 H2240 0.930 . S
C2246 C2247 1.355 . S
C2246 C2248 1.415 . S
C2247 C2246 1.355 . S
C2247 C2249 1.419 . S
C2248 C2246 1.415 . S
C2248 C2253 1.425 . S
C2248 C2255 1.409 . S
C2249 H2241 0.930 . S
C2249 C2247 1.419 . S
C2249 C2250 1.362 . S
C2250 H2242 0.930 . S
C2250 C2249 1.362 . S
C2250 C2253 1.409 . S
C2251 H2243 0.930 . S
C2251 C2252 1.355 . S
C2251 C2253 1.415 . S
C2252 C2251 1.355 . S
C2252 C2254 1.419 . S
C2253 C2248 1.425 . S
C2253 C2250 1.409 . S
C2253 C2251 1.415 . S
C2254 H2244 0.930 . S
C2254 C2252 1.419 . S
C2254 C2255 1.362 . S
C2255 H2245 0.930 . S
C2255 C2248 1.409 . S
C2255 C2254 1.362 . S
H2256 C2262 0.930 . S
H2257 C2265 0.930 . S
H2258 C2266 0.930 . S
H2259 C2267 0.930 . S
H2260 C2270 0.930 . S
H2261 C2271 0.930 . S
C2262 H2256 0.930 . S
C2262 C2263 1.355 . S
C2262 C2264 1.415 . S
C2263 C2262 1.355 . S
C2263 C2265 1.419 . S
C2264 C2262 1.415 . S
C2264 C2269 1.425 . S
C2264 C2271 1.409 . S
C2265 H2257 0.930 . S
C2265 C2263 1.419 . S
C2265 C2266 1.362 . S
C2266 H2258 0.930 . S
C2266 C2265 1.362 . S
C2266 C2269 1.409 . S
C2267 H2259 0.930 . S
C2267 C2268 1.355 . S
C2267 C2269 1.415 . S
C2268 C2267 1.355 . S
C2268 C2270 1.419 . S
C2269 C2264 1.425 . S
C2269 C2266 1.409 . S
C2269 C2267 1.415 . S
C2270 H2260 0.930 . S
C2270 C2268 1.419 . S
C2270 C2271 1.362 . S
C2271 H2261 0.930 . S
C2271 C2264 1.409 . S
C2271 C2270 1.362 . S
H2272 C2278 0.930 . S
H2273 C2281 0.930 . S
H2274 C2282 0.930 . S
H2275 C2283 0.930 . S
H2276 C2286 0.930 . S
H2277 C2287 0.930 . S
C2278 H2272 0.930 . S
C2278 C2279 1.355 . S
C2278 C2280 1.415 . S
C2279 C2278 1.355 . S
C2279 C2281 1.419 . S
C2280 C2278 1.415 . S
C2280 C2285 1.425 . S
C2280 C2287 1.409 . S
C2281 H2273 0.930 . S
C2281 C2279 1.419 . S
C2281 C2282 1.362 . S
C2282 H2274 0.930 . S
C2282 C2281 1.362 . S
C2282 C2285 1.409 . S
C2283 H2275 0.930 . S
C2283 C2284 1.355 . S
C2283 C2285 1.415 . S
C2284 C2283 1.355 . S
C2284 C2286 1.419 . S
C2285 C2280 1.425 . S
C2285 C2282 1.409 . S
C2285 C2283 1.415 . S
C2286 H2276 0.930 . S
C2286 C2284 1.419 . S
C2286 C2287 1.362 . S
C2287 H2277 0.930 . S
C2287 C2280 1.409 . S
C2287 C2286 1.362 . S
H2288 C2294 0.930 . S
H2289 C2297 0.930 . S
H2290 C2298 0.930 . S
H2291 C2299 0.930 . S
H2292 C2302 0.930 . S
H2293 C2303 0.930 . S
C2294 H2288 0.930 . S
C2294 C2295 1.355 . S
C2294 C2296 1.415 . S
C2295 C2294 1.355 . S
C2295 C2297 1.419 . S
C2296 C2294 1.415 . S
C2296 C2301 1.425 . S
C2296 C2303 1.409 . S
C2297 H2289 0.930 . S
C2297 C2295 1.419 . S
C2297 C2298 1.362 . S
C2298 H2290 0.930 . S
C2298 C2297 1.362 . S
C2298 C2301 1.409 . S
C2299 H2291 0.930 . S
C2299 C2300 1.355 . S
C2299 C2301 1.415 . S
C2300 C2299 1.355 . S
C2300 C2302 1.419 . S
C2301 C2296 1.425 . S
C2301 C2298 1.409 . S
C2301 C2299 1.415 . S
C2302 H2292 0.930 . S
C2302 C2300 1.419 . S
C2302 C2303 1.362 . S
C2303 H2293 0.930 . S
C2303 C2296 1.409 . S
C2303 C2302 1.362 . S
H2304 C2310 0.930 . S
H2305 C2313 0.930 . S
H2306 C2314 0.930 . S
H2307 C2315 0.930 . S
H2308 C2318 0.930 . S
H2309 C2319 0.930 . S
C2310 H2304 0.930 . S
C2310 C2311 1.355 . S
C2310 C2312 1.415 . S
C2311 C2310 1.355 . S
C2311 C2313 1.419 . S
C2312 C2310 1.415 . S
C2312 C2317 1.425 . S
C2312 C2319 1.409 . S
C2313 H2305 0.930 . S
C2313 C2311 1.419 . S
C2313 C2314 1.362 . S
C2314 H2306 0.930 . S
C2314 C2313 1.362 . S
C2314 C2317 1.409 . S
C2315 H2307 0.930 . S
C2315 C2316 1.355 . S
C2315 C2317 1.415 . S
C2316 C2315 1.355 . S
C2316 C2318 1.419 . S
C2317 C2312 1.425 . S
C2317 C2314 1.409 . S
C2317 C2315 1.415 . S
C2318 H2308 0.930 . S
C2318 C2316 1.419 . S
C2318 C2319 1.362 . S
C2319 H2309 0.930 . S
C2319 C2312 1.409 . S
C2319 C2318 1.362 . S
H2320 C2326 0.930 . S
H2321 C2329 0.930 . S
H2322 C2330 0.930 . S
H2323 C2331 0.930 . S
H2324 C2334 0.930 . S
H2325 C2335 0.930 . S
C2326 H2320 0.930 . S
C2326 C2327 1.355 . S
C2326 C2328 1.415 . S
C2327 C2326 1.355 . S
C2327 C2329 1.419 . S
C2328 C2326 1.415 . S
C2328 C2333 1.425 . S
C2328 C2335 1.409 . S
C2329 H2321 0.930 . S
C2329 C2327 1.419 . S
C2329 C2330 1.362 . S
C2330 H2322 0.930 . S
C2330 C2329 1.362 . S
C2330 C2333 1.409 . S
C2331 H2323 0.930 . S
C2331 C2332 1.355 . S
C2331 C2333 1.415 . S
C2332 C2331 1.355 . S
C2332 C2334 1.419 . S
C2333 C2328 1.425 . S
C2333 C2330 1.409 . S
C2333 C2331 1.415 . S
C2334 H2324 0.930 . S
C2334 C2332 1.419 . S
C2334 C2335 1.362 . S
C2335 H2325 0.930 . S
C2335 C2328 1.409 . S
C2335 C2334 1.362 . S
H2336 C2342 0.930 . S
H2337 C2345 0.930 . S
H2338 C2346 0.930 . S
H2339 C2347 0.930 . S
H2340 C2350 0.930 . S
H2341 C2351 0.930 . S
C2342 H2336 0.930 . S
C2342 C2343 1.355 . S
C2342 C2344 1.415 . S
C2343 C2342 1.355 . S
C2343 C2345 1.419 1_455 S
C2344 C2342 1.415 . S
C2344 C2349 1.425 . S
C2344 C2351 1.409 . S
C2345 H2337 0.930 . S
C2345 C2343 1.419 1_655 S
C2345 C2346 1.362 . S
C2346 H2338 0.930 . S
C2346 C2345 1.362 . S
C2346 C2349 1.409 1_655 S
C2347 H2339 0.930 . S
C2347 C2348 1.355 . S
C2347 C2349 1.415 . S
C2348 C2347 1.355 . S
C2348 C2350 1.419 . S
C2349 C2344 1.425 . S
C2349 C2346 1.409 1_455 S
C2349 C2347 1.415 . S
C2350 H2340 0.930 . S
C2350 C2348 1.419 . S
C2350 C2351 1.362 . S
C2351 H2341 0.930 . S
C2351 C2344 1.409 . S
C2351 C2350 1.362 . S
H2352 C2358 0.930 . S
H2353 C2361 0.930 . S
H2354 C2362 0.930 . S
H2355 C2363 0.930 . S
H2356 C2366 0.930 . S
H2357 C2367 0.930 . S
C2358 H2352 0.930 . S
C2358 C2359 1.355 . S
C2358 C2360 1.415 . S
C2359 C2358 1.355 . S
C2359 C2361 1.419 . S
C2360 C2358 1.415 . S
C2360 C2365 1.425 . S
C2360 C2367 1.409 . S
C2361 H2353 0.930 . S
C2361 C2359 1.419 . S
C2361 C2362 1.362 . S
C2362 H2354 0.930 . S
C2362 C2361 1.362 . S
C2362 C2365 1.409 . S
C2363 H2355 0.930 . S
C2363 C2364 1.355 . S
C2363 C2365 1.415 . S
C2364 C2363 1.355 . S
C2364 C2366 1.419 . S
C2365 C2360 1.425 . S
C2365 C2362 1.409 . S
C2365 C2363 1.415 . S
C2366 H2356 0.930 . S
C2366 C2364 1.419 . S
C2366 C2367 1.362 . S
C2367 H2357 0.930 . S
C2367 C2360 1.409 . S
C2367 C2366 1.362 . S
H2368 C2374 0.930 . S
H2369 C2377 0.930 . S
H2370 C2378 0.930 . S
H2371 C2379 0.930 . S
H2372 C2382 0.930 1_545 S
H2373 C2383 0.930 . S
C2374 H2368 0.930 . S
C2374 C2375 1.355 . S
C2374 C2376 1.415 . S
C2375 C2374 1.355 . S
C2375 C2377 1.419 . S
C2376 C2374 1.415 . S
C2376 C2381 1.425 . S
C2376 C2383 1.409 . S
C2377 H2369 0.930 . S
C2377 C2375 1.419 . S
C2377 C2378 1.362 . S
C2378 H2370 0.930 . S
C2378 C2377 1.362 . S
C2378 C2381 1.409 . S
C2379 H2371 0.930 . S
C2379 C2380 1.355 . S
C2379 C2381 1.415 . S
C2380 C2379 1.355 . S
C2380 C2382 1.419 . S
C2381 C2376 1.425 . S
C2381 C2378 1.409 . S
C2381 C2379 1.415 . S
C2382 H2372 0.930 1_565 S
C2382 C2380 1.419 . S
C2382 C2383 1.362 . S
C2383 H2373 0.930 . S
C2383 C2376 1.409 . S
C2383 C2382 1.362 . S
H2384 C2390 0.930 . S
H2385 C2393 0.930 . S
H2386 C2394 0.930 . S
H2387 C2395 0.930 . S
H2388 C2398 0.930 . S
H2389 C2399 0.930 . S
C2390 H2384 0.930 . S
C2390 C2391 1.355 . S
C2390 C2392 1.415 . S
C2391 C2390 1.355 . S
C2391 C2393 1.419 . S
C2392 C2390 1.415 . S
C2392 C2397 1.425 . S
C2392 C2399 1.409 . S
C2393 H2385 0.930 . S
C2393 C2391 1.419 . S
C2393 C2394 1.362 . S
C2394 H2386 0.930 . S
C2394 C2393 1.362 . S
C2394 C2397 1.409 . S
C2395 H2387 0.930 . S
C2395 C2396 1.355 . S
C2395 C2397 1.415 . S
C2396 C2395 1.355 . S
C2396 C2398 1.419 . S
C2397 C2392 1.425 . S
C2397 C2394 1.409 . S
C2397 C2395 1.415 . S
C2398 H2388 0.930 . S
C2398 C2396 1.419 . S
C2398 C2399 1.362 . S
C2399 H2389 0.930 . S
C2399 C2392 1.409 . S
C2399 C2398 1.362 . S
H2400 C2406 0.930 . S
H2401 C2409 0.930 . S
H2402 C2410 0.930 . S
H2403 C2411 0.930 . S
H2404 C2414 0.930 . S
H2405 C2415 0.930 . S
C2406 H2400 0.930 . S
C2406 C2407 1.355 . S
C2406 C2408 1.415 . S
C2407 C2406 1.355 . S
C2407 C2409 1.419 . S
C2408 C2406 1.415 . S
C2408 C2413 1.425 1_455 S
C2408 C2415 1.409 1_455 S
C2409 H2401 0.930 . S
C2409 C2407 1.419 . S
C2409 C2410 1.362 . S
C2410 H2402 0.930 . S
C2410 C2409 1.362 . S
C2410 C2413 1.409 1_455 S
C2411 H2403 0.930 . S
C2411 C2412 1.355 . S
C2411 C2413 1.415 . S
C2412 C2411 1.355 . S
C2412 C2414 1.419 . S
C2413 C2408 1.425 1_655 S
C2413 C2410 1.409 1_655 S
C2413 C2411 1.415 . S
C2414 H2404 0.930 . S
C2414 C2412 1.419 . S
C2414 C2415 1.362 . S
C2415 H2405 0.930 . S
C2415 C2408 1.409 1_655 S
C2415 C2414 1.362 . S
H2416 C2422 0.930 . S
H2417 C2425 0.930 . S
H2418 C2426 0.930 . S
H2419 C2427 0.930 . S
H2420 C2430 0.930 . S
H2421 C2431 0.930 . S
C2422 H2416 0.930 . S
C2422 C2423 1.355 . S
C2422 C2424 1.415 . S
C2423 C2422 1.355 . S
C2423 C2425 1.419 . S
C2424 C2422 1.415 . S
C2424 C2429 1.425 . S
C2424 C2431 1.409 . S
C2425 H2417 0.930 . S
C2425 C2423 1.419 . S
C2425 C2426 1.362 . S
C2426 H2418 0.930 . S
C2426 C2425 1.362 . S
C2426 C2429 1.409 . S
C2427 H2419 0.930 . S
C2427 C2428 1.355 . S
C2427 C2429 1.415 . S
C2428 C2427 1.355 . S
C2428 C2430 1.419 . S
C2429 C2424 1.425 . S
C2429 C2426 1.409 . S
C2429 C2427 1.415 . S
C2430 H2420 0.930 . S
C2430 C2428 1.419 . S
C2430 C2431 1.362 . S
C2431 H2421 0.930 . S
C2431 C2424 1.409 . S
C2431 C2430 1.362 . S
H2432 C2438 0.930 . S
H2433 C2441 0.930 . S
H2434 C2442 0.930 . S
H2435 C2443 0.930 . S
H2436 C2446 0.930 . S
H2437 C2447 0.930 . S
C2438 H2432 0.930 . S
C2438 C2439 1.355 . S
C2438 C2440 1.415 1_655 S
C2439 C2438 1.355 . S
C2439 C2441 1.419 . S
C2440 C2438 1.415 1_455 S
C2440 C2445 1.425 1_455 S
C2440 C2447 1.409 . S
C2441 H2433 0.930 . S
C2441 C2439 1.419 . S
C2441 C2442 1.362 . S
C2442 H2434 0.930 . S
C2442 C2441 1.362 . S
C2442 C2445 1.409 . S
C2443 H2435 0.930 . S
C2443 C2444 1.355 . S
C2443 C2445 1.415 1_455 S
C2444 C2443 1.355 . S
C2444 C2446 1.419 . S
C2445 C2440 1.425 1_655 S
C2445 C2442 1.409 . S
C2445 C2443 1.415 1_655 S
C2446 H2436 0.930 . S
C2446 C2444 1.419 . S
C2446 C2447 1.362 . S
C2447 H2437 0.930 . S
C2447 C2440 1.409 . S
C2447 C2446 1.362 . S
H2448 C2454 0.930 . S
H2449 C2457 0.930 . S
H2450 C2458 0.930 . S
H2451 C2459 0.930 . S
H2452 C2462 0.930 . S
H2453 C2463 0.930 . S
C2454 H2448 0.930 . S
C2454 C2455 1.355 . S
C2454 C2456 1.412 1_655 S
C2455 C2454 1.355 . S
C2455 C2457 1.419 . S
C2456 C2454 1.412 1_455 S
C2456 C2461 1.425 1_455 S
C2456 C2463 1.412 . S
C2457 H2449 0.930 . S
C2457 C2455 1.419 . S
C2457 C2458 1.362 . S
C2458 H2450 0.930 . S
C2458 C2457 1.362 . S
C2458 C2461 1.412 . S
C2459 H2451 0.930 . S
C2459 C2460 1.355 . S
C2459 C2461 1.412 1_455 S
C2460 C2459 1.355 . S
C2460 C2462 1.419 . S
C2461 C2456 1.425 1_655 S
C2461 C2458 1.412 . S
C2461 C2459 1.412 1_655 S
C2462 H2452 0.930 . S
C2462 C2460 1.419 . S
C2462 C2463 1.362 . S
C2463 H2453 0.930 . S
C2463 C2456 1.412 . S
C2463 C2462 1.362 . S
H2464 C2470 0.930 . S
H2465 C2473 0.930 . S
H2466 C2474 0.930 . S
H2467 C2475 0.930 . S
H2468 C2478 0.930 . S
H2469 C2479 0.930 . S
C2470 H2464 0.930 . S
C2470 C2471 1.355 . S
C2470 C2472 1.412 1_565 S
C2471 C2470 1.355 . S
C2471 C2473 1.419 . S
C2472 C2470 1.412 1_545 S
C2472 C2477 1.425 1_545 S
C2472 C2479 1.412 . S
C2473 H2465 0.930 . S
C2473 C2471 1.419 . S
C2473 C2474 1.362 . S
C2474 H2466 0.930 . S
C2474 C2473 1.362 . S
C2474 C2477 1.411 . S
C2475 H2467 0.930 . S
C2475 C2476 1.355 . S
C2475 C2477 1.412 1_545 S
C2476 C2475 1.355 . S
C2476 C2478 1.419 . S
C2477 C2472 1.425 1_565 S
C2477 C2474 1.411 . S
C2477 C2475 1.412 1_565 S
C2478 H2468 0.930 . S
C2478 C2476 1.419 . S
C2478 C2479 1.362 . S
C2479 H2469 0.930 . S
C2479 C2472 1.412 . S
C2479 C2478 1.362 . S
H2480 C2486 0.930 . S
H2481 C2489 0.930 . S
H2482 C2490 0.930 . S
H2483 C2491 0.930 . S
H2484 C2494 0.930 . S
H2485 C2495 0.930 . S
C2486 H2480 0.930 . S
C2486 C2487 1.355 . S
C2486 C2488 1.415 1_556 S
C2487 C2486 1.355 . S
C2487 C2489 1.419 . S
C2488 C2486 1.415 1_554 S
C2488 C2493 1.425 1_554 S
C2488 C2495 1.409 . S
C2489 H2481 0.930 . S
C2489 C2487 1.419 . S
C2489 C2490 1.362 . S
C2490 H2482 0.930 . S
C2490 C2489 1.362 . S
C2490 C2493 1.409 . S
C2491 H2483 0.930 . S
C2491 C2492 1.355 . S
C2491 C2493 1.415 1_554 S
C2492 C2491 1.355 . S
C2492 C2494 1.419 . S
C2493 C2488 1.425 1_556 S
C2493 C2490 1.409 . S
C2493 C2491 1.415 1_556 S
C2494 H2484 0.930 . S
C2494 C2492 1.419 . S
C2494 C2495 1.362 . S
C2495 H2485 0.930 . S
C2495 C2488 1.409 . S
C2495 C2494 1.362 . S
H2496 C2502 0.930 . S
H2497 C2505 0.930 . S
H2498 C2506 0.930 . S
H2499 C2507 0.930 . S
H2500 C2510 0.930 . S
H2501 C2511 0.930 . S
C2502 H2496 0.930 . S
C2502 C2503 1.355 . S
C2502 C2504 1.415 . S
C2503 C2502 1.355 . S
C2503 C2505 1.419 . S
C2504 C2502 1.415 . S
C2504 C2509 1.425 . S
C2504 C2511 1.409 . S
C2505 H2497 0.930 . S
C2505 C2503 1.419 . S
C2505 C2506 1.362 . S
C2506 H2498 0.930 . S
C2506 C2505 1.362 . S
C2506 C2509 1.409 . S
C2507 H2499 0.930 . S
C2507 C2508 1.355 . S
C2507 C2509 1.415 . S
C2508 C2507 1.355 . S
C2508 C2510 1.419 . S
C2509 C2504 1.425 . S
C2509 C2506 1.409 . S
C2509 C2507 1.415 . S
C2510 H2500 0.930 . S
C2510 C2508 1.419 . S
C2510 C2511 1.362 . S
C2511 H2501 0.930 . S
C2511 C2504 1.409 . S
C2511 C2510 1.362 . S
H2512 C2518 0.930 . S
H2513 C2521 0.930 . S
H2514 C2522 0.930 . S
H2515 C2523 0.930 . S
H2516 C2526 0.930 . S
H2517 C2527 0.930 . S
C2518 H2512 0.930 . S
C2518 C2519 1.355 . S
C2518 C2520 1.415 1_554 S
C2519 C2518 1.355 . S
C2519 C2521 1.419 . S
C2520 C2518 1.415 1_556 S
C2520 C2525 1.425 1_556 S
C2520 C2527 1.409 . S
C2521 H2513 0.930 . S
C2521 C2519 1.419 . S
C2521 C2522 1.362 . S
C2522 H2514 0.930 . S
C2522 C2521 1.362 . S
C2522 C2525 1.409 . S
C2523 H2515 0.930 . S
C2523 C2524 1.355 . S
C2523 C2525 1.415 1_556 S
C2524 C2523 1.355 . S
C2524 C2526 1.419 . S
C2525 C2520 1.425 1_554 S
C2525 C2522 1.409 . S
C2525 C2523 1.415 1_554 S
C2526 H2516 0.930 . S
C2526 C2524 1.419 . S
C2526 C2527 1.362 . S
C2527 H2517 0.930 . S
C2527 C2520 1.409 . S
C2527 C2526 1.362 . S
H2528 C2534 0.930 . S
H2529 C2537 0.930 . S
H2530 C2538 0.930 . S
H2531 C2539 0.930 . S
H2532 C2542 0.930 . S
H2533 C2543 0.930 . S
C2534 H2528 0.930 . S
C2534 C2535 1.355 . S
C2534 C2536 1.415 . S
C2535 C2534 1.355 . S
C2535 C2537 1.419 . S
C2536 C2534 1.415 . S
C2536 C2541 1.425 1_556 S
C2536 C2543 1.409 1_556 S
C2537 H2529 0.930 . S
C2537 C2535 1.419 . S
C2537 C2538 1.362 . S
C2538 H2530 0.930 . S
C2538 C2537 1.362 . S
C2538 C2541 1.409 1_556 S
C2539 H2531 0.930 . S
C2539 C2540 1.355 . S
C2539 C2541 1.415 . S
C2540 C2539 1.355 . S
C2540 C2542 1.419 . S
C2541 C2536 1.425 1_554 S
C2541 C2538 1.409 1_554 S
C2541 C2539 1.415 . S
C2542 H2532 0.930 . S
C2542 C2540 1.419 . S
C2542 C2543 1.362 . S
C2543 H2533 0.930 . S
C2543 C2536 1.409 1_554 S
C2543 C2542 1.362 . S
H2544 C2550 0.930 . S
H2545 C2553 0.930 . S
H2546 C2554 0.930 . S
H2547 C2555 0.930 . S
H2548 C2558 0.930 . S
H2549 C2559 0.930 . S
C2550 H2544 0.930 . S
C2550 C2551 1.355 . S
C2550 C2552 1.415 . S
C2551 C2550 1.355 . S
C2551 C2553 1.419 . S
C2552 C2550 1.415 . S
C2552 C2557 1.425 . S
C2552 C2559 1.409 . S
C2553 H2545 0.930 . S
C2553 C2551 1.419 . S
C2553 C2554 1.362 . S
C2554 H2546 0.930 . S
C2554 C2553 1.362 . S
C2554 C2557 1.409 . S
C2555 H2547 0.930 . S
C2555 C2556 1.355 . S
C2555 C2557 1.415 . S
C2556 C2555 1.355 . S
C2556 C2558 1.419 . S
C2557 C2552 1.425 . S
C2557 C2554 1.409 . S
C2557 C2555 1.415 . S
C2558 H2548 0.930 . S
C2558 C2556 1.419 . S
C2558 C2559 1.362 . S
C2559 H2549 0.930 . S
C2559 C2552 1.409 . S
C2559 C2558 1.362 . S
H2560 C2566 0.930 . S
H2561 C2569 0.930 . S
H2562 C2570 0.930 . S
H2563 C2571 0.930 . S
H2564 C2574 0.930 . S
H2565 C2575 0.930 . S
C2566 H2560 0.930 . S
C2566 C2567 1.355 . S
C2566 C2568 1.415 . S
C2567 C2566 1.355 . S
C2567 C2569 1.419 . S
C2568 C2566 1.415 . S
C2568 C2573 1.425 . S
C2568 C2575 1.409 . S
C2569 H2561 0.930 . S
C2569 C2567 1.419 . S
C2569 C2570 1.362 . S
C2570 H2562 0.930 . S
C2570 C2569 1.362 . S
C2570 C2573 1.409 . S
C2571 H2563 0.930 . S
C2571 C2572 1.355 . S
C2571 C2573 1.415 . S
C2572 C2571 1.355 . S
C2572 C2574 1.419 . S
C2573 C2568 1.425 . S
C2573 C2570 1.409 . S
C2573 C2571 1.415 . S
C2574 H2564 0.930 . S
C2574 C2572 1.419 . S
C2574 C2575 1.362 . S
C2575 H2565 0.930 . S
C2575 C2568 1.409 . S
C2575 C2574 1.362 . S
H2576 C2582 0.930 . S
H2577 C2585 0.930 . S
H2578 C2586 0.930 . S
H2579 C2587 0.930 . S
H2580 C2590 0.930 . S
H2581 C2591 0.930 . S
C2582 H2576 0.930 . S
C2582 C2583 1.355 . S
C2582 C2584 1.415 . S
C2583 C2582 1.355 . S
C2583 C2585 1.419 . S
C2584 C2582 1.415 . S
C2584 C2589 1.425 . S
C2584 C2591 1.409 . S
C2585 H2577 0.930 . S
C2585 C2583 1.419 . S
C2585 C2586 1.362 . S
C2586 H2578 0.930 . S
C2586 C2585 1.362 . S
C2586 C2589 1.409 . S
C2587 H2579 0.930 . S
C2587 C2588 1.355 . S
C2587 C2589 1.415 . S
C2588 C2587 1.355 . S
C2588 C2590 1.419 . S
C2589 C2584 1.425 . S
C2589 C2586 1.409 . S
C2589 C2587 1.415 . S
C2590 H2580 0.930 . S
C2590 C2588 1.419 . S
C2590 C2591 1.362 . S
C2591 H2581 0.930 . S
C2591 C2584 1.409 . S
C2591 C2590 1.362 . S
H2592 C2598 0.930 . S
H2593 C2601 0.930 . S
H2594 C2602 0.930 . S
H2595 C2603 0.930 . S
H2596 C2606 0.930 . S
H2597 C2607 0.930 . S
C2598 H2592 0.930 . S
C2598 C2599 1.355 . S
C2598 C2600 1.415 . S
C2599 C2598 1.355 . S
C2599 C2601 1.419 . S
C2600 C2598 1.415 . S
C2600 C2605 1.425 . S
C2600 C2607 1.409 . S
C2601 H2593 0.930 . S
C2601 C2599 1.419 . S
C2601 C2602 1.362 . S
C2602 H2594 0.930 . S
C2602 C2601 1.362 . S
C2602 C2605 1.409 . S
C2603 H2595 0.930 . S
C2603 C2604 1.355 . S
C2603 C2605 1.415 . S
C2604 C2603 1.355 . S
C2604 C2606 1.419 . S
C2605 C2600 1.425 . S
C2605 C2602 1.409 . S
C2605 C2603 1.415 . S
C2606 H2596 0.930 . S
C2606 C2604 1.419 . S
C2606 C2607 1.362 . S
C2607 H2597 0.930 . S
C2607 C2600 1.409 . S
C2607 C2606 1.362 . S
H2608 C2614 0.930 . S
H2609 C2617 0.930 . S
H2610 C2618 0.926 1_565 S
H2611 C2619 0.930 . S
H2612 C2622 0.930 . S
H2613 C2623 0.926 1_545 S
C2614 H2608 0.930 . S
C2614 C2615 1.355 . S
C2614 C2616 1.415 . S
C2615 C2614 1.355 . S
C2615 C2617 1.419 . S
C2616 C2614 1.415 . S
C2616 C2621 1.425 1_545 S
C2616 C2623 1.407 1_545 S
C2617 H2609 0.930 . S
C2617 C2615 1.419 . S
C2617 C2618 1.369 . S
C2618 H2610 0.926 1_545 S
C2618 C2617 1.369 . S
C2618 C2621 1.406 1_545 S
C2619 H2611 0.930 . S
C2619 C2620 1.355 . S
C2619 C2621 1.415 . S
C2620 C2619 1.355 . S
C2620 C2622 1.419 . S
C2621 C2616 1.425 1_565 S
C2621 C2618 1.406 1_565 S
C2621 C2619 1.415 . S
C2622 H2612 0.930 . S
C2622 C2620 1.419 . S
C2622 C2623 1.369 . S
C2623 H2613 0.926 1_565 S
C2623 C2616 1.407 1_565 S
C2623 C2622 1.369 . S
H2624 C2630 0.930 . S
H2625 C2633 0.930 . S
H2626 C2634 0.930 . S
H2627 C2635 0.930 . S
H2628 C2638 0.930 . S
H2629 C2639 0.930 . S
C2630 H2624 0.930 . S
C2630 C2631 1.355 . S
C2630 C2632 1.415 . S
C2631 C2630 1.355 . S
C2631 C2633 1.419 . S
C2632 C2630 1.415 . S
C2632 C2637 1.425 . S
C2632 C2639 1.409 . S
C2633 H2625 0.930 . S
C2633 C2631 1.419 . S
C2633 C2634 1.362 . S
C2634 H2626 0.930 . S
C2634 C2633 1.362 . S
C2634 C2637 1.409 . S
C2635 H2627 0.930 . S
C2635 C2636 1.355 . S
C2635 C2637 1.415 . S
C2636 C2635 1.355 . S
C2636 C2638 1.419 . S
C2637 C2632 1.425 . S
C2637 C2634 1.409 . S
C2637 C2635 1.415 . S
C2638 H2628 0.930 . S
C2638 C2636 1.419 . S
C2638 C2639 1.362 . S
C2639 H2629 0.930 . S
C2639 C2632 1.409 . S
C2639 C2638 1.362 . S
H2640 C2646 0.930 . S
H2641 C2649 0.930 . S
H2642 C2650 0.930 . S
H2643 C2651 0.930 . S
H2644 C2654 0.930 . S
H2645 C2655 0.930 . S
C2646 H2640 0.930 . S
C2646 C2647 1.355 . S
C2646 C2648 1.415 . S
C2647 C2646 1.355 . S
C2647 C2649 1.419 . S
C2648 C2646 1.415 . S
C2648 C2653 1.425 1_655 S
C2648 C2655 1.409 . S
C2649 H2641 0.930 . S
C2649 C2647 1.419 . S
C2649 C2650 1.362 1_655 S
C2650 H2642 0.930 . S
C2650 C2649 1.362 1_455 S
C2650 C2653 1.409 . S
C2651 H2643 0.930 . S
C2651 C2652 1.355 . S
C2651 C2653 1.415 . S
C2652 C2651 1.355 . S
C2652 C2654 1.419 . S
C2653 C2648 1.425 1_455 S
C2653 C2650 1.409 . S
C2653 C2651 1.415 . S
C2654 H2644 0.930 . S
C2654 C2652 1.419 . S
C2654 C2655 1.362 1_455 S
C2655 H2645 0.930 . S
C2655 C2648 1.409 . S
C2655 C2654 1.362 1_655 S
H2656 C2662 0.930 . S
H2657 C2665 0.930 . S
H2658 C2666 0.930 . S
H2659 C2667 0.930 . S
H2660 C2670 0.930 . S
H2661 C2671 0.930 . S
C2662 H2656 0.930 . S
C2662 C2663 1.355 . S
C2662 C2664 1.415 . S
C2663 C2662 1.355 . S
C2663 C2665 1.419 . S
C2664 C2662 1.415 . S
C2664 C2669 1.425 . S
C2664 C2671 1.409 . S
C2665 H2657 0.930 . S
C2665 C2663 1.419 . S
C2665 C2666 1.362 . S
C2666 H2658 0.930 . S
C2666 C2665 1.362 . S
C2666 C2669 1.409 . S
C2667 H2659 0.930 . S
C2667 C2668 1.355 . S
C2667 C2669 1.415 . S
C2668 C2667 1.355 . S
C2668 C2670 1.419 . S
C2669 C2664 1.425 . S
C2669 C2666 1.409 . S
C2669 C2667 1.415 . S
C2670 H2660 0.930 . S
C2670 C2668 1.419 . S
C2670 C2671 1.362 . S
C2671 H2661 0.930 . S
C2671 C2664 1.409 . S
C2671 C2670 1.362 . S
H2672 C2678 0.930 . S
H2673 C2681 0.930 . S
H2674 C2682 0.930 . S
H2675 C2683 0.930 . S
H2676 C2686 0.930 . S
H2677 C2687 0.930 . S
C2678 H2672 0.930 . S
C2678 C2679 1.355 . S
C2678 C2680 1.415 . S
C2679 C2678 1.355 . S
C2679 C2681 1.419 . S
C2680 C2678 1.415 . S
C2680 C2685 1.425 . S
C2680 C2687 1.409 . S
C2681 H2673 0.930 . S
C2681 C2679 1.419 . S
C2681 C2682 1.362 . S
C2682 H2674 0.930 . S
C2682 C2681 1.362 . S
C2682 C2685 1.409 . S
C2683 H2675 0.930 . S
C2683 C2684 1.355 . S
C2683 C2685 1.415 . S
C2684 C2683 1.355 . S
C2684 C2686 1.419 . S
C2685 C2680 1.425 . S
C2685 C2682 1.409 . S
C2685 C2683 1.415 . S
C2686 H2676 0.930 . S
C2686 C2684 1.419 . S
C2686 C2687 1.362 . S
C2687 H2677 0.930 . S
C2687 C2680 1.409 . S
C2687 C2686 1.362 . S
H2688 C2694 0.930 . S
H2689 C2697 0.930 . S
H2690 C2698 0.930 . S
H2691 C2699 0.930 . S
H2692 C2702 0.930 . S
H2693 C2703 0.930 . S
C2694 H2688 0.930 . S
C2694 C2695 1.355 . S
C2694 C2696 1.415 . S
C2695 C2694 1.355 . S
C2695 C2697 1.419 . S
C2696 C2694 1.415 . S
C2696 C2701 1.425 . S
C2696 C2703 1.409 . S
C2697 H2689 0.930 . S
C2697 C2695 1.419 . S
C2697 C2698 1.362 . S
C2698 H2690 0.930 . S
C2698 C2697 1.362 . S
C2698 C2701 1.409 . S
C2699 H2691 0.930 . S
C2699 C2700 1.355 . S
C2699 C2701 1.415 . S
C2700 C2699 1.355 . S
C2700 C2702 1.419 . S
C2701 C2696 1.425 . S
C2701 C2698 1.409 . S
C2701 C2699 1.415 . S
C2702 H2692 0.930 . S
C2702 C2700 1.419 . S
C2702 C2703 1.362 . S
C2703 H2693 0.930 . S
C2703 C2696 1.409 . S
C2703 C2702 1.362 . S
H2704 C2710 0.930 . S
H2705 C2713 0.930 . S
H2706 C2714 0.930 . S
H2707 C2715 0.930 . S
H2708 C2718 0.930 . S
H2709 C2719 0.930 . S
C2710 H2704 0.930 . S
C2710 C2711 1.355 . S
C2710 C2712 1.415 . S
C2711 C2710 1.355 . S
C2711 C2713 1.419 . S
C2712 C2710 1.415 . S
C2712 C2717 1.425 . S
C2712 C2719 1.409 . S
C2713 H2705 0.930 . S
C2713 C2711 1.419 . S
C2713 C2714 1.362 . S
C2714 H2706 0.930 . S
C2714 C2713 1.362 . S
C2714 C2717 1.409 . S
C2715 H2707 0.930 . S
C2715 C2716 1.355 . S
C2715 C2717 1.415 . S
C2716 C2715 1.355 . S
C2716 C2718 1.419 . S
C2717 C2712 1.425 . S
C2717 C2714 1.409 . S
C2717 C2715 1.415 . S
C2718 H2708 0.930 . S
C2718 C2716 1.419 . S
C2718 C2719 1.362 . S
C2719 H2709 0.930 . S
C2719 C2712 1.409 . S
C2719 C2718 1.362 . S
H2720 C2726 0.930 . S
H2721 C2729 0.930 . S
H2722 C2730 0.930 . S
H2723 C2731 0.930 . S
H2724 C2734 0.930 . S
H2725 C2735 0.930 . S
C2726 H2720 0.930 . S
C2726 C2727 1.355 . S
C2726 C2728 1.415 . S
C2727 C2726 1.355 . S
C2727 C2729 1.419 . S
C2728 C2726 1.415 . S
C2728 C2733 1.425 1_565 S
C2728 C2735 1.409 . S
C2729 H2721 0.930 . S
C2729 C2727 1.419 . S
C2729 C2730 1.362 1_565 S
C2730 H2722 0.930 . S
C2730 C2729 1.362 1_545 S
C2730 C2733 1.409 . S
C2731 H2723 0.930 . S
C2731 C2732 1.355 . S
C2731 C2733 1.415 . S
C2732 C2731 1.355 . S
C2732 C2734 1.419 . S
C2733 C2728 1.425 1_545 S
C2733 C2730 1.409 . S
C2733 C2731 1.415 . S
C2734 H2724 0.930 . S
C2734 C2732 1.419 . S
C2734 C2735 1.362 1_545 S
C2735 H2725 0.930 . S
C2735 C2728 1.409 . S
C2735 C2734 1.362 1_565 S
H2736 C2742 0.930 . S
H2737 C2745 0.930 . S
H2738 C2746 0.930 . S
H2739 C2747 0.930 . S
H2740 C2750 0.930 . S
H2741 C2751 0.930 . S
C2742 H2736 0.930 . S
C2742 C2743 1.355 . S
C2742 C2744 1.415 . S
C2743 C2742 1.355 . S
C2743 C2745 1.419 . S
C2744 C2742 1.415 . S
C2744 C2749 1.425 . S
C2744 C2751 1.409 . S
C2745 H2737 0.930 . S
C2745 C2743 1.419 . S
C2745 C2746 1.362 . S
C2746 H2738 0.930 . S
C2746 C2745 1.362 . S
C2746 C2749 1.409 . S
C2747 H2739 0.930 . S
C2747 C2748 1.355 . S
C2747 C2749 1.415 . S
C2748 C2747 1.355 . S
C2748 C2750 1.419 . S
C2749 C2744 1.425 . S
C2749 C2746 1.409 . S
C2749 C2747 1.415 . S
C2750 H2740 0.930 . S
C2750 C2748 1.419 . S
C2750 C2751 1.362 . S
C2751 H2741 0.930 . S
C2751 C2744 1.409 . S
C2751 C2750 1.362 . S
H2752 C2758 0.930 . S
H2753 C2761 0.930 . S
H2754 C2762 0.930 1_556 S
H2755 C2763 0.930 . S
H2756 C2766 0.930 . S
H2757 C2767 0.930 1_554 S
C2758 H2752 0.930 . S
C2758 C2759 1.355 . S
C2758 C2760 1.415 . S
C2759 C2758 1.355 . S
C2759 C2761 1.419 . S
C2760 C2758 1.415 . S
C2760 C2765 1.425 1_554 S
C2760 C2767 1.409 1_554 S
C2761 H2753 0.930 . S
C2761 C2759 1.419 . S
C2761 C2762 1.362 . S
C2762 H2754 0.930 1_554 S
C2762 C2761 1.362 . S
C2762 C2765 1.409 1_554 S
C2763 H2755 0.930 . S
C2763 C2764 1.355 . S
C2763 C2765 1.415 . S
C2764 C2763 1.355 . S
C2764 C2766 1.419 . S
C2765 C2760 1.425 1_556 S
C2765 C2762 1.409 1_556 S
C2765 C2763 1.415 . S
C2766 H2756 0.930 . S
C2766 C2764 1.419 . S
C2766 C2767 1.362 . S
C2767 H2757 0.930 1_556 S
C2767 C2760 1.409 1_556 S
C2767 C2766 1.362 . S
H2768 C2774 0.930 . S
H2769 C2777 0.930 . S
H2770 C2778 0.930 . S
H2771 C2779 0.930 . S
H2772 C2782 0.930 . S
H2773 C2783 0.930 . S
C2774 H2768 0.930 . S
C2774 C2775 1.355 . S
C2774 C2776 1.415 1_565 S
C2775 C2774 1.355 . S
C2775 C2777 1.419 . S
C2776 C2774 1.415 1_545 S
C2776 C2781 1.425 1_545 S
C2776 C2783 1.409 . S
C2777 H2769 0.930 . S
C2777 C2775 1.419 . S
C2777 C2778 1.362 . S
C2778 H2770 0.930 . S
C2778 C2777 1.362 . S
C2778 C2781 1.409 . S
C2779 H2771 0.930 . S
C2779 C2780 1.355 . S
C2779 C2781 1.415 1_545 S
C2780 C2779 1.355 . S
C2780 C2782 1.419 . S
C2781 C2776 1.425 1_565 S
C2781 C2778 1.409 . S
C2781 C2779 1.415 1_565 S
C2782 H2772 0.930 . S
C2782 C2780 1.419 . S
C2782 C2783 1.362 . S
C2783 H2773 0.930 . S
C2783 C2776 1.409 . S
C2783 C2782 1.362 . S
H2784 C2790 0.930 . S
H2785 C2793 0.930 . S
H2786 C2794 0.930 . S
H2787 C2795 0.930 . S
H2788 C2798 0.930 . S
H2789 C2799 0.930 . S
C2790 H2784 0.930 . S
C2790 C2791 1.355 . S
C2790 C2792 1.415 . S
C2791 C2790 1.355 . S
C2791 C2793 1.419 . S
C2792 C2790 1.415 . S
C2792 C2797 1.425 . S
C2792 C2799 1.409 . S
C2793 H2785 0.930 . S
C2793 C2791 1.419 . S
C2793 C2794 1.362 . S
C2794 H2786 0.930 . S
C2794 C2793 1.362 . S
C2794 C2797 1.409 . S
C2795 H2787 0.930 . S
C2795 C2796 1.355 . S
C2795 C2797 1.415 . S
C2796 C2795 1.355 . S
C2796 C2798 1.419 . S
C2797 C2792 1.425 . S
C2797 C2794 1.409 . S
C2797 C2795 1.415 . S
C2798 H2788 0.930 . S
C2798 C2796 1.419 . S
C2798 C2799 1.362 . S
C2799 H2789 0.930 . S
C2799 C2792 1.409 . S
C2799 C2798 1.362 . S
H2800 C2806 0.930 . S
H2801 C2809 0.930 . S
H2802 C2810 0.930 . S
H2803 C2811 0.930 . S
H2804 C2814 0.930 . S
H2805 C2815 0.930 . S
C2806 H2800 0.930 . S
C2806 C2807 1.355 . S
C2806 C2808 1.415 . S
C2807 C2806 1.355 . S
C2807 C2809 1.419 . S
C2808 C2806 1.415 . S
C2808 C2813 1.425 . S
C2808 C2815 1.409 . S
C2809 H2801 0.930 . S
C2809 C2807 1.419 . S
C2809 C2810 1.362 . S
C2810 H2802 0.930 . S
C2810 C2809 1.362 . S
C2810 C2813 1.409 . S
C2811 H2803 0.930 . S
C2811 C2812 1.355 . S
C2811 C2813 1.415 . S
C2812 C2811 1.355 . S
C2812 C2814 1.419 . S
C2813 C2808 1.425 . S
C2813 C2810 1.409 . S
C2813 C2811 1.415 . S
C2814 H2804 0.930 . S
C2814 C2812 1.419 . S
C2814 C2815 1.362 . S
C2815 H2805 0.930 . S
C2815 C2808 1.409 . S
C2815 C2814 1.362 . S
H2816 C2822 0.930 . S
H2817 C2825 0.930 . S
H2818 C2826 0.930 . S
H2819 C2827 0.930 . S
H2820 C2830 0.930 . S
H2821 C2831 0.930 . S
C2822 H2816 0.930 . S
C2822 C2823 1.355 . S
C2822 C2824 1.415 . S
C2823 C2822 1.355 . S
C2823 C2825 1.419 . S
C2824 C2822 1.415 . S
C2824 C2829 1.425 . S
C2824 C2831 1.409 . S
C2825 H2817 0.930 . S
C2825 C2823 1.419 . S
C2825 C2826 1.362 . S
C2826 H2818 0.930 . S
C2826 C2825 1.362 . S
C2826 C2829 1.409 . S
C2827 H2819 0.930 . S
C2827 C2828 1.355 . S
C2827 C2829 1.415 . S
C2828 C2827 1.355 . S
C2828 C2830 1.419 . S
C2829 C2824 1.425 . S
C2829 C2826 1.409 . S
C2829 C2827 1.415 . S
C2830 H2820 0.930 . S
C2830 C2828 1.419 . S
C2830 C2831 1.362 . S
C2831 H2821 0.930 . S
C2831 C2824 1.409 . S
C2831 C2830 1.362 . S
H2832 C2838 0.930 . S
H2833 C2841 0.930 . S
H2834 C2842 0.930 . S
H2835 C2843 0.930 . S
H2836 C2846 0.930 . S
H2837 C2847 0.930 . S
C2838 H2832 0.930 . S
C2838 C2839 1.355 . S
C2838 C2840 1.415 . S
C2839 C2838 1.355 . S
C2839 C2841 1.419 . S
C2840 C2838 1.415 . S
C2840 C2845 1.425 . S
C2840 C2847 1.409 . S
C2841 H2833 0.930 . S
C2841 C2839 1.419 . S
C2841 C2842 1.362 . S
C2842 H2834 0.930 . S
C2842 C2841 1.362 . S
C2842 C2845 1.409 . S
C2843 H2835 0.930 . S
C2843 C2844 1.355 . S
C2843 C2845 1.415 . S
C2844 C2843 1.355 . S
C2844 C2846 1.419 . S
C2845 C2840 1.425 . S
C2845 C2842 1.409 . S
C2845 C2843 1.415 . S
C2846 H2836 0.930 . S
C2846 C2844 1.419 . S
C2846 C2847 1.362 . S
C2847 H2837 0.930 . S
C2847 C2840 1.409 . S
C2847 C2846 1.362 . S
H2848 C2854 0.930 . S
H2849 C2857 0.930 . S
H2850 C2858 0.930 . S
H2851 C2859 0.930 . S
H2852 C2862 0.930 . S
H2853 C2863 0.930 . S
C2854 H2848 0.930 . S
C2854 C2855 1.355 . S
C2854 C2856 1.415 . S
C2855 C2854 1.355 . S
C2855 C2857 1.419 . S
C2856 C2854 1.415 . S
C2856 C2861 1.425 . S
C2856 C2863 1.409 . S
C2857 H2849 0.930 . S
C2857 C2855 1.419 . S
C2857 C2858 1.362 . S
C2858 H2850 0.930 . S
C2858 C2857 1.362 . S
C2858 C2861 1.409 . S
C2859 H2851 0.930 . S
C2859 C2860 1.355 . S
C2859 C2861 1.415 . S
C2860 C2859 1.355 . S
C2860 C2862 1.419 . S
C2861 C2856 1.425 . S
C2861 C2858 1.409 . S
C2861 C2859 1.415 . S
C2862 H2852 0.930 . S
C2862 C2860 1.419 . S
C2862 C2863 1.362 . S
C2863 H2853 0.930 . S
C2863 C2856 1.409 . S
C2863 C2862 1.362 . S
H2864 C2870 0.930 . S
H2865 C2873 0.930 . S
H2866 C2874 0.930 . S
H2867 C2875 0.930 . S
H2868 C2878 0.930 . S
H2869 C2879 0.930 . S
C2870 H2864 0.930 . S
C2870 C2871 1.355 . S
C2870 C2872 1.415 . S
C2871 C2870 1.355 . S
C2871 C2873 1.419 . S
C2872 C2870 1.415 . S
C2872 C2877 1.425 . S
C2872 C2879 1.409 . S
C2873 H2865 0.930 . S
C2873 C2871 1.419 . S
C2873 C2874 1.362 . S
C2874 H2866 0.930 . S
C2874 C2873 1.362 . S
C2874 C2877 1.409 . S
C2875 H2867 0.930 . S
C2875 C2876 1.355 . S
C2875 C2877 1.415 . S
C2876 C2875 1.355 . S
C2876 C2878 1.419 . S
C2877 C2872 1.425 . S
C2877 C2874 1.409 . S
C2877 C2875 1.415 . S
C2878 H2868 0.930 . S
C2878 C2876 1.419 . S
C2878 C2879 1.362 . S
C2879 H2869 0.930 . S
C2879 C2872 1.409 . S
C2879 C2878 1.362 . S
H2880 C2886 0.930 . S
H2881 C2889 0.930 . S
H2882 C2890 0.930 . S
H2883 C2891 0.930 . S
H2884 C2894 0.930 . S
H2885 C2895 0.930 . S
C2886 H2880 0.930 . S
C2886 C2887 1.355 . S
C2886 C2888 1.415 . S
C2887 C2886 1.355 . S
C2887 C2889 1.419 . S
C2888 C2886 1.415 . S
C2888 C2893 1.425 . S
C2888 C2895 1.409 . S
C2889 H2881 0.930 . S
C2889 C2887 1.419 . S
C2889 C2890 1.362 . S
C2890 H2882 0.930 . S
C2890 C2889 1.362 . S
C2890 C2893 1.409 . S
C2891 H2883 0.930 . S
C2891 C2892 1.355 . S
C2891 C2893 1.415 . S
C2892 C2891 1.355 . S
C2892 C2894 1.419 . S
C2893 C2888 1.425 . S
C2893 C2890 1.409 . S
C2893 C2891 1.415 . S
C2894 H2884 0.930 . S
C2894 C2892 1.419 . S
C2894 C2895 1.362 . S
C2895 H2885 0.930 . S
C2895 C2888 1.409 . S
C2895 C2894 1.362 . S
H2896 C2902 0.930 . S
H2897 C2905 0.930 . S
H2898 C2906 0.930 . S
H2899 C2907 0.930 . S
H2900 C2910 0.930 . S
H2901 C2911 0.930 . S
C2902 H2896 0.930 . S
C2902 C2903 1.355 . S
C2902 C2904 1.415 . S
C2903 C2902 1.355 . S
C2903 C2905 1.419 . S
C2904 C2902 1.415 . S
C2904 C2909 1.425 . S
C2904 C2911 1.409 . S
C2905 H2897 0.930 . S
C2905 C2903 1.419 . S
C2905 C2906 1.362 . S
C2906 H2898 0.930 . S
C2906 C2905 1.362 . S
C2906 C2909 1.409 . S
C2907 H2899 0.930 . S
C2907 C2908 1.355 . S
C2907 C2909 1.415 . S
C2908 C2907 1.355 . S
C2908 C2910 1.419 . S
C2909 C2904 1.425 . S
C2909 C2906 1.409 . S
C2909 C2907 1.415 . S
C2910 H2900 0.930 . S
C2910 C2908 1.419 . S
C2910 C2911 1.362 . S
C2911 H2901 0.930 . S
C2911 C2904 1.409 . S
C2911 C2910 1.362 . S
H2912 C2918 0.930 . S
H2913 C2921 0.930 . S
H2914 C2922 0.930 . S
H2915 C2923 0.930 . S
H2916 C2926 0.930 . S
H2917 C2927 0.930 . S
C2918 H2912 0.930 . S
C2918 C2919 1.355 . S
C2918 C2920 1.415 . S
C2919 C2918 1.355 . S
C2919 C2921 1.419 . S
C2920 C2918 1.415 . S
C2920 C2925 1.425 . S
C2920 C2927 1.409 . S
C2921 H2913 0.930 . S
C2921 C2919 1.419 . S
C2921 C2922 1.362 . S
C2922 H2914 0.930 . S
C2922 C2921 1.362 . S
C2922 C2925 1.409 . S
C2923 H2915 0.930 . S
C2923 C2924 1.355 . S
C2923 C2925 1.415 . S
C2924 C2923 1.355 . S
C2924 C2926 1.419 . S
C2925 C2920 1.425 . S
C2925 C2922 1.409 . S
C2925 C2923 1.415 . S
C2926 H2916 0.930 . S
C2926 C2924 1.419 . S
C2926 C2927 1.362 . S
C2927 H2917 0.930 . S
C2927 C2920 1.409 . S
C2927 C2926 1.362 . S
H2928 C2934 0.930 . S
H2929 C2937 0.930 . S
H2930 C2938 0.930 . S
H2931 C2939 0.930 . S
H2932 C2942 0.930 . S
H2933 C2943 0.930 . S
C2934 H2928 0.930 . S
C2934 C2935 1.355 . S
C2934 C2936 1.415 . S
C2935 C2934 1.355 . S
C2935 C2937 1.419 . S
C2936 C2934 1.415 . S
C2936 C2941 1.425 . S
C2936 C2943 1.409 . S
C2937 H2929 0.930 . S
C2937 C2935 1.419 . S
C2937 C2938 1.362 . S
C2938 H2930 0.930 . S
C2938 C2937 1.362 . S
C2938 C2941 1.409 . S
C2939 H2931 0.930 . S
C2939 C2940 1.355 . S
C2939 C2941 1.415 . S
C2940 C2939 1.355 . S
C2940 C2942 1.419 . S
C2941 C2936 1.425 . S
C2941 C2938 1.409 . S
C2941 C2939 1.415 . S
C2942 H2932 0.930 . S
C2942 C2940 1.419 . S
C2942 C2943 1.362 . S
C2943 H2933 0.930 . S
C2943 C2936 1.409 . S
C2943 C2942 1.362 . S
H2944 C2950 0.930 . S
H2945 C2953 0.930 . S
H2946 C2954 0.930 . S
H2947 C2955 0.930 . S
H2948 C2958 0.930 . S
H2949 C2959 0.930 . S
C2950 H2944 0.930 . S
C2950 C2951 1.355 . S
C2950 C2952 1.415 . S
C2951 C2950 1.355 . S
C2951 C2953 1.419 . S
C2952 C2950 1.415 . S
C2952 C2957 1.425 . S
C2952 C2959 1.409 . S
C2953 H2945 0.930 . S
C2953 C2951 1.419 . S
C2953 C2954 1.362 . S
C2954 H2946 0.930 . S
C2954 C2953 1.362 . S
C2954 C2957 1.409 . S
C2955 H2947 0.930 . S
C2955 C2956 1.355 . S
C2955 C2957 1.415 . S
C2956 C2955 1.355 . S
C2956 C2958 1.419 . S
C2957 C2952 1.425 . S
C2957 C2954 1.409 . S
C2957 C2955 1.415 . S
C2958 H2948 0.930 . S
C2958 C2956 1.419 . S
C2958 C2959 1.362 . S
C2959 H2949 0.930 . S
C2959 C2952 1.409 . S
C2959 C2958 1.362 . S
H2960 C2966 0.930 . S
H2961 C2969 0.930 . S
H2962 C2970 0.930 . S
H2963 C2971 0.930 . S
H2964 C2974 0.930 . S
H2965 C2975 0.930 . S
C2966 H2960 0.930 . S
C2966 C2967 1.355 . S
C2966 C2968 1.415 . S
C2967 C2966 1.355 . S
C2967 C2969 1.419 . S
C2968 C2966 1.415 . S
C2968 C2973 1.425 . S
C2968 C2975 1.409 . S
C2969 H2961 0.930 . S
C2969 C2967 1.419 . S
C2969 C2970 1.362 . S
C2970 H2962 0.930 . S
C2970 C2969 1.362 . S
C2970 C2973 1.409 . S
C2971 H2963 0.930 . S
C2971 C2972 1.355 . S
C2971 C2973 1.415 . S
C2972 C2971 1.355 . S
C2972 C2974 1.419 . S
C2973 C2968 1.425 . S
C2973 C2970 1.409 . S
C2973 C2971 1.415 . S
C2974 H2964 0.930 . S
C2974 C2972 1.419 . S
C2974 C2975 1.362 . S
C2975 H2965 0.930 . S
C2975 C2968 1.409 . S
C2975 C2974 1.362 . S
H2976 C2982 0.930 . S
H2977 C2985 0.930 . S
H2978 C2986 0.930 . S
H2979 C2987 0.930 . S
H2980 C2990 0.930 . S
H2981 C2991 0.930 . S
C2982 H2976 0.930 . S
C2982 C2983 1.355 . S
C2982 C2984 1.415 . S
C2983 C2982 1.355 . S
C2983 C2985 1.419 . S
C2984 C2982 1.415 . S
C2984 C2989 1.425 . S
C2984 C2991 1.409 . S
C2985 H2977 0.930 . S
C2985 C2983 1.419 . S
C2985 C2986 1.362 . S
C2986 H2978 0.930 . S
C2986 C2985 1.362 . S
C2986 C2989 1.409 . S
C2987 H2979 0.930 . S
C2987 C2988 1.355 . S
C2987 C2989 1.415 . S
C2988 C2987 1.355 . S
C2988 C2990 1.419 . S
C2989 C2984 1.425 . S
C2989 C2986 1.409 . S
C2989 C2987 1.415 . S
C2990 H2980 0.930 . S
C2990 C2988 1.419 . S
C2990 C2991 1.362 . S
C2991 H2981 0.930 . S
C2991 C2984 1.409 . S
C2991 C2990 1.362 . S
H2992 C2998 0.930 . S
H2993 C3001 0.930 . S
H2994 C3002 0.930 . S
H2995 C3003 0.930 . S
H2996 C3006 0.930 . S
H2997 C3007 0.930 . S
C2998 H2992 0.930 . S
C2998 C2999 1.355 . S
C2998 C3000 1.415 . S
C2999 C2998 1.355 . S
C2999 C3001 1.419 . S
C3000 C2998 1.415 . S
C3000 C3005 1.425 . S
C3000 C3007 1.409 . S
C3001 H2993 0.930 . S
C3001 C2999 1.419 . S
C3001 C3002 1.362 . S
C3002 H2994 0.930 . S
C3002 C3001 1.362 . S
C3002 C3005 1.409 . S
C3003 H2995 0.930 . S
C3003 C3004 1.355 . S
C3003 C3005 1.415 . S
C3004 C3003 1.355 . S
C3004 C3006 1.419 . S
C3005 C3000 1.425 . S
C3005 C3002 1.409 . S
C3005 C3003 1.415 . S
C3006 H2996 0.930 . S
C3006 C3004 1.419 . S
C3006 C3007 1.362 . S
C3007 H2997 0.930 . S
C3007 C3000 1.409 . S
C3007 C3006 1.362 . S
H3008 C3014 0.930 . S
H3009 C3017 0.930 1_556 S
H3010 C3018 0.930 . S
H3011 C3019 0.930 . S
H3012 C3022 0.930 . S
H3013 C3023 0.930 . S
C3014 H3008 0.930 . S
C3014 C3015 1.355 . S
C3014 C3016 1.415 . S
C3015 C3014 1.355 . S
C3015 C3017 1.419 . S
C3016 C3014 1.415 . S
C3016 C3021 1.425 . S
C3016 C3023 1.409 . S
C3017 H3009 0.930 1_554 S
C3017 C3015 1.419 . S
C3017 C3018 1.362 . S
C3018 H3010 0.930 . S
C3018 C3017 1.362 . S
C3018 C3021 1.409 . S
C3019 H3011 0.930 . S
C3019 C3020 1.355 . S
C3019 C3021 1.415 . S
C3020 C3019 1.355 . S
C3020 C3022 1.419 . S
C3021 C3016 1.425 . S
C3021 C3018 1.409 . S
C3021 C3019 1.415 . S
C3022 H3012 0.930 . S
C3022 C3020 1.419 . S
C3022 C3023 1.362 . S
C3023 H3013 0.930 . S
C3023 C3016 1.409 . S
C3023 C3022 1.362 . S
H3024 C3030 0.930 . S
H3025 C3033 0.930 . S
H3026 C3034 0.930 . S
H3027 C3035 0.930 . S
H3028 C3038 0.930 . S
H3029 C3039 0.930 . S
C3030 H3024 0.930 . S
C3030 C3031 1.355 . S
C3030 C3032 1.415 . S
C3031 C3030 1.355 . S
C3031 C3033 1.419 . S
C3032 C3030 1.415 . S
C3032 C3037 1.425 . S
C3032 C3039 1.409 . S
C3033 H3025 0.930 . S
C3033 C3031 1.419 . S
C3033 C3034 1.362 . S
C3034 H3026 0.930 . S
C3034 C3033 1.362 . S
C3034 C3037 1.409 . S
C3035 H3027 0.930 . S
C3035 C3036 1.355 . S
C3035 C3037 1.415 . S
C3036 C3035 1.355 . S
C3036 C3038 1.419 . S
C3037 C3032 1.425 . S
C3037 C3034 1.409 . S
C3037 C3035 1.415 . S
C3038 H3028 0.930 . S
C3038 C3036 1.419 . S
C3038 C3039 1.362 . S
C3039 H3029 0.930 . S
C3039 C3032 1.409 . S
C3039 C3038 1.362 . S
H3040 C3046 0.930 . S
H3041 C3049 0.930 . S
H3042 C3050 0.930 . S
H3043 C3051 0.930 . S
H3044 C3054 0.930 . S
H3045 C3055 0.930 . S
C3046 H3040 0.930 . S
C3046 C3047 1.355 . S
C3046 C3048 1.415 . S
C3047 C3046 1.355 . S
C3047 C3049 1.419 . S
C3048 C3046 1.415 . S
C3048 C3053 1.425 . S
C3048 C3055 1.409 . S
C3049 H3041 0.930 . S
C3049 C3047 1.419 . S
C3049 C3050 1.362 . S
C3050 H3042 0.930 . S
C3050 C3049 1.362 . S
C3050 C3053 1.409 . S
C3051 H3043 0.930 . S
C3051 C3052 1.355 . S
C3051 C3053 1.415 . S
C3052 C3051 1.355 . S
C3052 C3054 1.419 . S
C3053 C3048 1.425 . S
C3053 C3050 1.409 . S
C3053 C3051 1.415 . S
C3054 H3044 0.930 . S
C3054 C3052 1.419 . S
C3054 C3055 1.362 . S
C3055 H3045 0.930 . S
C3055 C3048 1.409 . S
C3055 C3054 1.362 . S
H3056 C3062 0.930 . S
H3057 C3065 0.930 . S
H3058 C3066 0.930 . S
H3059 C3067 0.930 . S
H3060 C3070 0.930 . S
H3061 C3071 0.930 . S
C3062 H3056 0.930 . S
C3062 C3063 1.355 . S
C3062 C3064 1.415 . S
C3063 C3062 1.355 . S
C3063 C3065 1.419 . S
C3064 C3062 1.415 . S
C3064 C3069 1.425 . S
C3064 C3071 1.409 . S
C3065 H3057 0.930 . S
C3065 C3063 1.419 . S
C3065 C3066 1.362 . S
C3066 H3058 0.930 . S
C3066 C3065 1.362 . S
C3066 C3069 1.409 . S
C3067 H3059 0.930 . S
C3067 C3068 1.355 . S
C3067 C3069 1.415 . S
C3068 C3067 1.355 . S
C3068 C3070 1.419 . S
C3069 C3064 1.425 . S
C3069 C3066 1.409 . S
C3069 C3067 1.415 . S
C3070 H3060 0.930 . S
C3070 C3068 1.419 . S
C3070 C3071 1.362 . S
C3071 H3061 0.930 . S
C3071 C3064 1.409 . S
C3071 C3070 1.362 . S
H3072 C3078 0.930 . S
H3073 C3081 0.930 . S
H3074 C3082 0.930 . S
H3075 C3083 0.930 . S
H3076 C3086 0.930 . S
H3077 C3087 0.930 . S
C3078 H3072 0.930 . S
C3078 C3079 1.355 . S
C3078 C3080 1.415 . S
C3079 C3078 1.355 . S
C3079 C3081 1.419 . S
C3080 C3078 1.415 . S
C3080 C3085 1.425 . S
C3080 C3087 1.409 . S
C3081 H3073 0.930 . S
C3081 C3079 1.419 . S
C3081 C3082 1.362 . S
C3082 H3074 0.930 . S
C3082 C3081 1.362 . S
C3082 C3085 1.409 . S
C3083 H3075 0.930 . S
C3083 C3084 1.355 . S
C3083 C3085 1.415 . S
C3084 C3083 1.355 . S
C3084 C3086 1.419 . S
C3085 C3080 1.425 . S
C3085 C3082 1.409 . S
C3085 C3083 1.415 . S
C3086 H3076 0.930 . S
C3086 C3084 1.419 . S
C3086 C3087 1.362 . S
C3087 H3077 0.930 . S
C3087 C3080 1.409 . S
C3087 C3086 1.362 . S
H3088 C3094 0.930 . S
H3089 C3097 0.930 . S
H3090 C3098 0.930 . S
H3091 C3099 0.930 . S
H3092 C3102 0.930 . S
H3093 C3103 0.930 . S
C3094 H3088 0.930 . S
C3094 C3095 1.355 . S
C3094 C3096 1.415 . S
C3095 C3094 1.355 . S
C3095 C3097 1.419 . S
C3096 C3094 1.415 . S
C3096 C3101 1.425 . S
C3096 C3103 1.409 . S
C3097 H3089 0.930 . S
C3097 C3095 1.419 . S
C3097 C3098 1.362 . S
C3098 H3090 0.930 . S
C3098 C3097 1.362 . S
C3098 C3101 1.409 . S
C3099 H3091 0.930 . S
C3099 C3100 1.355 . S
C3099 C3101 1.415 . S
C3100 C3099 1.355 . S
C3100 C3102 1.419 . S
C3101 C3096 1.425 . S
C3101 C3098 1.409 . S
C3101 C3099 1.415 . S
C3102 H3092 0.930 . S
C3102 C3100 1.419 . S
C3102 C3103 1.362 . S
C3103 H3093 0.930 . S
C3103 C3096 1.409 . S
C3103 C3102 1.362 . S
H3104 C3110 0.930 . S
H3105 C3113 0.930 . S
H3106 C3114 0.930 . S
H3107 C3115 0.930 . S
H3108 C3118 0.930 . S
H3109 C3119 0.930 . S
C3110 H3104 0.930 . S
C3110 C3111 1.355 . S
C3110 C3112 1.415 . S
C3111 C3110 1.355 . S
C3111 C3113 1.419 . S
C3112 C3110 1.415 . S
C3112 C3117 1.425 . S
C3112 C3119 1.409 . S
C3113 H3105 0.930 . S
C3113 C3111 1.419 . S
C3113 C3114 1.362 . S
C3114 H3106 0.930 . S
C3114 C3113 1.362 . S
C3114 C3117 1.409 . S
C3115 H3107 0.930 . S
C3115 C3116 1.355 . S
C3115 C3117 1.415 . S
C3116 C3115 1.355 . S
C3116 C3118 1.419 . S
C3117 C3112 1.425 . S
C3117 C3114 1.409 . S
C3117 C3115 1.415 . S
C3118 H3108 0.930 . S
C3118 C3116 1.419 . S
C3118 C3119 1.362 . S
C3119 H3109 0.930 . S
C3119 C3112 1.409 . S
C3119 C3118 1.362 . S
H3120 C3126 0.930 . S
H3121 C3129 0.930 . S
H3122 C3130 0.930 . S
H3123 C3131 0.930 . S
H3124 C3134 0.930 1_655 S
H3125 C3135 0.930 . S
C3126 H3120 0.930 . S
C3126 C3127 1.355 . S
C3126 C3128 1.415 . S
C3127 C3126 1.355 . S
C3127 C3129 1.419 . S
C3128 C3126 1.415 . S
C3128 C3133 1.425 . S
C3128 C3135 1.409 . S
C3129 H3121 0.930 . S
C3129 C3127 1.419 . S
C3129 C3130 1.362 . S
C3130 H3122 0.930 . S
C3130 C3129 1.362 . S
C3130 C3133 1.409 . S
C3131 H3123 0.930 . S
C3131 C3132 1.355 . S
C3131 C3133 1.415 . S
C3132 C3131 1.355 . S
C3132 C3134 1.419 . S
C3133 C3128 1.425 . S
C3133 C3130 1.409 . S
C3133 C3131 1.415 . S
C3134 H3124 0.930 1_455 S
C3134 C3132 1.419 . S
C3134 C3135 1.362 . S
C3135 H3125 0.930 . S
C3135 C3128 1.409 . S
C3135 C3134 1.362 . S
H3136 C3142 0.930 . S
H3137 C3145 0.930 . S
H3138 C3146 0.930 . S
H3139 C3147 0.930 . S
H3140 C3150 0.930 . S
H3141 C3151 0.930 . S
C3142 H3136 0.930 . S
C3142 C3143 1.355 . S
C3142 C3144 1.415 . S
C3143 C3142 1.355 . S
C3143 C3145 1.419 . S
C3144 C3142 1.415 . S
C3144 C3149 1.425 . S
C3144 C3151 1.409 . S
C3145 H3137 0.930 . S
C3145 C3143 1.419 . S
C3145 C3146 1.362 . S
C3146 H3138 0.930 . S
C3146 C3145 1.362 . S
C3146 C3149 1.409 . S
C3147 H3139 0.930 . S
C3147 C3148 1.355 . S
C3147 C3149 1.415 . S
C3148 C3147 1.355 . S
C3148 C3150 1.419 . S
C3149 C3144 1.425 . S
C3149 C3146 1.409 . S
C3149 C3147 1.415 . S
C3150 H3140 0.930 . S
C3150 C3148 1.419 . S
C3150 C3151 1.362 . S
C3151 H3141 0.930 . S
C3151 C3144 1.409 . S
C3151 C3150 1.362 . S
H3152 C3158 0.930 . S
H3153 C3161 0.930 . S
H3154 C3162 0.930 . S
H3155 C3163 0.930 . S
H3156 C3166 0.930 . S
H3157 C3167 0.930 . S
C3158 H3152 0.930 . S
C3158 C3159 1.355 . S
C3158 C3160 1.415 . S
C3159 C3158 1.355 . S
C3159 C3161 1.419 . S
C3160 C3158 1.415 . S
C3160 C3165 1.425 . S
C3160 C3167 1.409 . S
C3161 H3153 0.930 . S
C3161 C3159 1.419 . S
C3161 C3162 1.362 . S
C3162 H3154 0.930 . S
C3162 C3161 1.362 . S
C3162 C3165 1.409 . S
C3163 H3155 0.930 . S
C3163 C3164 1.355 . S
C3163 C3165 1.415 . S
C3164 C3163 1.355 . S
C3164 C3166 1.419 . S
C3165 C3160 1.425 . S
C3165 C3162 1.409 . S
C3165 C3163 1.415 . S
C3166 H3156 0.930 . S
C3166 C3164 1.419 . S
C3166 C3167 1.362 . S
C3167 H3157 0.930 . S
C3167 C3160 1.409 . S
C3167 C3166 1.362 . S
H3168 C3174 0.930 . S
H3169 C3177 0.930 . S
H3170 C3178 0.930 . S
H3171 C3179 0.930 . S
H3172 C3182 0.930 . S
H3173 C3183 0.930 . S
C3174 H3168 0.930 . S
C3174 C3175 1.355 . S
C3174 C3176 1.415 . S
C3175 C3174 1.355 . S
C3175 C3177 1.419 . S
C3176 C3174 1.415 . S
C3176 C3181 1.425 . S
C3176 C3183 1.409 . S
C3177 H3169 0.930 . S
C3177 C3175 1.419 . S
C3177 C3178 1.362 . S
C3178 H3170 0.930 . S
C3178 C3177 1.362 . S
C3178 C3181 1.409 . S
C3179 H3171 0.930 . S
C3179 C3180 1.355 . S
C3179 C3181 1.415 . S
C3180 C3179 1.355 . S
C3180 C3182 1.419 . S
C3181 C3176 1.425 . S
C3181 C3178 1.409 . S
C3181 C3179 1.415 . S
C3182 H3172 0.930 . S
C3182 C3180 1.419 . S
C3182 C3183 1.362 . S
C3183 H3173 0.930 . S
C3183 C3176 1.409 . S
C3183 C3182 1.362 . S
H3184 C3190 0.930 . S
H3185 C3193 0.930 . S
H3186 C3194 0.930 . S
H3187 C3195 0.930 . S
H3188 C3198 0.930 . S
H3189 C3199 0.930 . S
C3190 H3184 0.930 . S
C3190 C3191 1.355 . S
C3190 C3192 1.415 . S
C3191 C3190 1.355 . S
C3191 C3193 1.419 . S
C3192 C3190 1.415 . S
C3192 C3197 1.425 . S
C3192 C3199 1.409 . S
C3193 H3185 0.930 . S
C3193 C3191 1.419 . S
C3193 C3194 1.362 . S
C3194 H3186 0.930 . S
C3194 C3193 1.362 . S
C3194 C3197 1.409 . S
C3195 H3187 0.930 . S
C3195 C3196 1.355 . S
C3195 C3197 1.415 . S
C3196 C3195 1.355 . S
C3196 C3198 1.419 . S
C3197 C3192 1.425 . S
C3197 C3194 1.409 . S
C3197 C3195 1.415 . S
C3198 H3188 0.930 . S
C3198 C3196 1.419 . S
C3198 C3199 1.362 . S
C3199 H3189 0.930 . S
C3199 C3192 1.409 . S
C3199 C3198 1.362 . S
H3200 C3206 0.930 . S
H3201 C3209 0.930 . S
H3202 C3210 0.930 . S
H3203 C3211 0.930 . S
H3204 C3214 0.930 . S
H3205 C3215 0.930 . S
C3206 H3200 0.930 . S
C3206 C3207 1.355 . S
C3206 C3208 1.415 . S
C3207 C3206 1.355 . S
C3207 C3209 1.419 . S
C3208 C3206 1.415 . S
C3208 C3213 1.425 . S
C3208 C3215 1.409 . S
C3209 H3201 0.930 . S
C3209 C3207 1.419 . S
C3209 C3210 1.362 . S
C3210 H3202 0.930 . S
C3210 C3209 1.362 . S
C3210 C3213 1.409 . S
C3211 H3203 0.930 . S
C3211 C3212 1.355 . S
C3211 C3213 1.415 . S
C3212 C3211 1.355 . S
C3212 C3214 1.419 . S
C3213 C3208 1.425 . S
C3213 C3210 1.409 . S
C3213 C3211 1.415 . S
C3214 H3204 0.930 . S
C3214 C3212 1.419 . S
C3214 C3215 1.362 . S
C3215 H3205 0.930 . S
C3215 C3208 1.409 . S
C3215 C3214 1.362 . S
H3216 C3222 0.930 . S
H3217 C3225 0.930 . S
H3218 C3226 0.930 . S
H3219 C3227 0.930 . S
H3220 C3230 0.930 . S
H3221 C3231 0.930 . S
C3222 H3216 0.930 . S
C3222 C3223 1.355 . S
C3222 C3224 1.415 . S
C3223 C3222 1.355 . S
C3223 C3225 1.419 . S
C3224 C3222 1.415 . S
C3224 C3229 1.425 . S
C3224 C3231 1.409 . S
C3225 H3217 0.930 . S
C3225 C3223 1.419 . S
C3225 C3226 1.362 . S
C3226 H3218 0.930 . S
C3226 C3225 1.362 . S
C3226 C3229 1.409 . S
C3227 H3219 0.930 . S
C3227 C3228 1.355 . S
C3227 C3229 1.415 . S
C3228 C3227 1.355 . S
C3228 C3230 1.419 . S
C3229 C3224 1.425 . S
C3229 C3226 1.409 . S
C3229 C3227 1.415 . S
C3230 H3220 0.930 . S
C3230 C3228 1.419 . S
C3230 C3231 1.362 . S
C3231 H3221 0.930 . S
C3231 C3224 1.409 . S
C3231 C3230 1.362 . S
H3232 C3238 0.930 . S
H3233 C3241 0.930 1_565 S
H3234 C3242 0.930 . S
H3235 C3243 0.930 . S
H3236 C3246 0.930 . S
H3237 C3247 0.930 . S
C3238 H3232 0.930 . S
C3238 C3239 1.355 . S
C3238 C3240 1.415 . S
C3239 C3238 1.355 . S
C3239 C3241 1.419 . S
C3240 C3238 1.415 . S
C3240 C3245 1.425 . S
C3240 C3247 1.409 . S
C3241 H3233 0.930 1_545 S
C3241 C3239 1.419 . S
C3241 C3242 1.362 . S
C3242 H3234 0.930 . S
C3242 C3241 1.362 . S
C3242 C3245 1.409 . S
C3243 H3235 0.930 . S
C3243 C3244 1.355 . S
C3243 C3245 1.415 . S
C3244 C3243 1.355 . S
C3244 C3246 1.419 . S
C3245 C3240 1.425 . S
C3245 C3242 1.409 . S
C3245 C3243 1.415 . S
C3246 H3236 0.930 . S
C3246 C3244 1.419 . S
C3246 C3247 1.362 . S
C3247 H3237 0.930 . S
C3247 C3240 1.409 . S
C3247 C3246 1.362 . S
H3248 C3254 0.930 . S
H3249 C3257 0.930 . S
H3250 C3258 0.930 . S
H3251 C3259 0.930 . S
H3252 C3262 0.930 . S
H3253 C3263 0.930 . S
C3254 H3248 0.930 . S
C3254 C3255 1.355 . S
C3254 C3256 1.415 . S
C3255 C3254 1.355 . S
C3255 C3257 1.419 . S
C3256 C3254 1.415 . S
C3256 C3261 1.425 . S
C3256 C3263 1.409 . S
C3257 H3249 0.930 . S
C3257 C3255 1.419 . S
C3257 C3258 1.362 . S
C3258 H3250 0.930 . S
C3258 C3257 1.362 . S
C3258 C3261 1.409 . S
C3259 H3251 0.930 . S
C3259 C3260 1.355 . S
C3259 C3261 1.415 . S
C3260 C3259 1.355 . S
C3260 C3262 1.419 . S
C3261 C3256 1.425 . S
C3261 C3258 1.409 . S
C3261 C3259 1.415 . S
C3262 H3252 0.930 . S
C3262 C3260 1.419 . S
C3262 C3263 1.362 . S
C3263 H3253 0.930 . S
C3263 C3256 1.409 . S
C3263 C3262 1.362 . S
H3264 C3270 0.930 . S
H3265 C3273 0.930 . S
H3266 C3274 0.930 . S
H3267 C3275 0.930 . S
H3268 C3278 0.930 . S
H3269 C3279 0.930 . S
C3270 H3264 0.930 . S
C3270 C3271 1.355 . S
C3270 C3272 1.415 . S
C3271 C3270 1.355 . S
C3271 C3273 1.419 . S
C3272 C3270 1.415 . S
C3272 C3277 1.425 . S
C3272 C3279 1.409 . S
C3273 H3265 0.930 . S
C3273 C3271 1.419 . S
C3273 C3274 1.362 . S
C3274 H3266 0.930 . S
C3274 C3273 1.362 . S
C3274 C3277 1.409 . S
C3275 H3267 0.930 . S
C3275 C3276 1.355 . S
C3275 C3277 1.415 . S
C3276 C3275 1.355 . S
C3276 C3278 1.419 . S
C3277 C3272 1.425 . S
C3277 C3274 1.409 . S
C3277 C3275 1.415 . S
C3278 H3268 0.930 . S
C3278 C3276 1.419 . S
C3278 C3279 1.362 . S
C3279 H3269 0.930 . S
C3279 C3272 1.409 . S
C3279 C3278 1.362 . S
H3280 C3286 0.930 . S
H3281 C3289 0.930 . S
H3282 C3290 0.930 . S
H3283 C3291 0.930 . S
H3284 C3294 0.930 . S
H3285 C3295 0.930 . S
C3286 H3280 0.930 . S
C3286 C3287 1.355 . S
C3286 C3288 1.415 . S
C3287 C3286 1.355 . S
C3287 C3289 1.419 . S
C3288 C3286 1.415 . S
C3288 C3293 1.425 . S
C3288 C3295 1.409 . S
C3289 H3281 0.930 . S
C3289 C3287 1.419 . S
C3289 C3290 1.362 . S
C3290 H3282 0.930 . S
C3290 C3289 1.362 . S
C3290 C3293 1.409 . S
C3291 H3283 0.930 . S
C3291 C3292 1.355 . S
C3291 C3293 1.415 . S
C3292 C3291 1.355 . S
C3292 C3294 1.419 . S
C3293 C3288 1.425 . S
C3293 C3290 1.409 . S
C3293 C3291 1.415 . S
C3294 H3284 0.930 . S
C3294 C3292 1.419 . S
C3294 C3295 1.362 . S
C3295 H3285 0.930 . S
C3295 C3288 1.409 . S
C3295 C3294 1.362 . S
H3296 C3302 0.930 . S
H3297 C3305 0.930 . S
H3298 C3306 0.930 . S
H3299 C3307 0.930 . S
H3300 C3310 0.930 1_554 S
H3301 C3311 0.930 . S
C3302 H3296 0.930 . S
C3302 C3303 1.355 . S
C3302 C3304 1.415 . S
C3303 C3302 1.355 . S
C3303 C3305 1.419 . S
C3304 C3302 1.415 . S
C3304 C3309 1.425 . S
C3304 C3311 1.409 . S
C3305 H3297 0.930 . S
C3305 C3303 1.419 . S
C3305 C3306 1.362 . S
C3306 H3298 0.930 . S
C3306 C3305 1.362 . S
C3306 C3309 1.409 . S
C3307 H3299 0.930 . S
C3307 C3308 1.355 . S
C3307 C3309 1.415 . S
C3308 C3307 1.355 . S
C3308 C3310 1.419 . S
C3309 C3304 1.425 . S
C3309 C3306 1.409 . S
C3309 C3307 1.415 . S
C3310 H3300 0.930 1_556 S
C3310 C3308 1.419 . S
C3310 C3311 1.362 . S
C3311 H3301 0.930 . S
C3311 C3304 1.409 . S
C3311 C3310 1.362 . S
H3312 C3318 0.930 . S
H3313 C3321 0.930 . S
H3314 C3322 0.930 . S
H3315 C3323 0.930 . S
H3316 C3326 0.930 . S
H3317 C3327 0.930 . S
C3318 H3312 0.930 . S
C3318 C3319 1.355 . S
C3318 C3320 1.415 . S
C3319 C3318 1.355 . S
C3319 C3321 1.419 . S
C3320 C3318 1.415 . S
C3320 C3325 1.425 . S
C3320 C3327 1.409 . S
C3321 H3313 0.930 . S
C3321 C3319 1.419 . S
C3321 C3322 1.362 . S
C3322 H3314 0.930 . S
C3322 C3321 1.362 . S
C3322 C3325 1.409 . S
C3323 H3315 0.930 . S
C3323 C3324 1.355 . S
C3323 C3325 1.415 . S
C3324 C3323 1.355 . S
C3324 C3326 1.419 . S
C3325 C3320 1.425 . S
C3325 C3322 1.409 . S
C3325 C3323 1.415 . S
C3326 H3316 0.930 . S
C3326 C3324 1.419 . S
C3326 C3327 1.362 . S
C3327 H3317 0.930 . S
C3327 C3320 1.409 . S
C3327 C3326 1.362 . S
H3328 C3334 0.930 . S
H3329 C3337 0.930 . S
H3330 C3338 0.930 . S
H3331 C3339 0.930 . S
H3332 C3342 0.930 1_554 S
H3333 C3343 0.930 . S
C3334 H3328 0.930 . S
C3334 C3335 1.355 . S
C3334 C3336 1.415 . S
C3335 C3334 1.355 . S
C3335 C3337 1.419 . S
C3336 C3334 1.415 . S
C3336 C3341 1.425 . S
C3336 C3343 1.409 . S
C3337 H3329 0.930 . S
C3337 C3335 1.419 . S
C3337 C3338 1.362 . S
C3338 H3330 0.930 . S
C3338 C3337 1.362 . S
C3338 C3341 1.409 . S
C3339 H3331 0.930 . S
C3339 C3340 1.355 . S
C3339 C3341 1.415 . S
C3340 C3339 1.355 . S
C3340 C3342 1.419 . S
C3341 C3336 1.425 . S
C3341 C3338 1.409 . S
C3341 C3339 1.415 . S
C3342 H3332 0.930 1_556 S
C3342 C3340 1.419 . S
C3342 C3343 1.362 . S
C3343 H3333 0.930 . S
C3343 C3336 1.409 . S
C3343 C3342 1.362 . S
H3344 C3350 0.930 . S
H3345 C3353 0.930 . S
H3346 C3354 0.930 . S
H3347 C3355 0.930 . S
H3348 C3358 0.930 . S
H3349 C3359 0.930 . S
C3350 H3344 0.930 . S
C3350 C3351 1.355 . S
C3350 C3352 1.415 . S
C3351 C3350 1.355 . S
C3351 C3353 1.419 . S
C3352 C3350 1.415 . S
C3352 C3357 1.425 . S
C3352 C3359 1.409 . S
C3353 H3345 0.930 . S
C3353 C3351 1.419 . S
C3353 C3354 1.362 . S
C3354 H3346 0.930 . S
C3354 C3353 1.362 . S
C3354 C3357 1.409 . S
C3355 H3347 0.930 . S
C3355 C3356 1.355 . S
C3355 C3357 1.415 . S
C3356 C3355 1.355 . S
C3356 C3358 1.419 . S
C3357 C3352 1.425 . S
C3357 C3354 1.409 . S
C3357 C3355 1.415 . S
C3358 H3348 0.930 . S
C3358 C3356 1.419 . S
C3358 C3359 1.362 . S
C3359 H3349 0.930 . S
C3359 C3352 1.409 . S
C3359 C3358 1.362 . S
H3360 C3366 0.930 . S
H3361 C3369 0.930 . S
H3362 C3370 0.930 . S
H3363 C3371 0.930 . S
H3364 C3374 0.930 . S
H3365 C3375 0.930 . S
C3366 H3360 0.930 . S
C3366 C3367 1.355 . S
C3366 C3368 1.415 . S
C3367 C3366 1.355 . S
C3367 C3369 1.419 . S
C3368 C3366 1.415 . S
C3368 C3373 1.425 . S
C3368 C3375 1.409 . S
C3369 H3361 0.930 . S
C3369 C3367 1.419 . S
C3369 C3370 1.362 . S
C3370 H3362 0.930 . S
C3370 C3369 1.362 . S
C3370 C3373 1.409 . S
C3371 H3363 0.930 . S
C3371 C3372 1.355 . S
C3371 C3373 1.415 . S
C3372 C3371 1.355 . S
C3372 C3374 1.419 . S
C3373 C3368 1.425 . S
C3373 C3370 1.409 . S
C3373 C3371 1.415 . S
C3374 H3364 0.930 . S
C3374 C3372 1.419 . S
C3374 C3375 1.362 . S
C3375 H3365 0.930 . S
C3375 C3368 1.409 . S
C3375 C3374 1.362 . S
H3376 C3382 0.930 . S
H3377 C3385 0.930 . S
H3378 C3386 0.930 . S
H3379 C3387 0.930 . S
H3380 C3390 0.930 . S
H3381 C3391 0.930 . S
C3382 H3376 0.930 . S
C3382 C3383 1.355 . S
C3382 C3384 1.415 . S
C3383 C3382 1.355 . S
C3383 C3385 1.419 . S
C3384 C3382 1.415 . S
C3384 C3389 1.425 . S
C3384 C3391 1.409 . S
C3385 H3377 0.930 . S
C3385 C3383 1.419 . S
C3385 C3386 1.362 . S
C3386 H3378 0.930 . S
C3386 C3385 1.362 . S
C3386 C3389 1.409 . S
C3387 H3379 0.930 . S
C3387 C3388 1.355 . S
C3387 C3389 1.415 . S
C3388 C3387 1.355 . S
C3388 C3390 1.419 . S
C3389 C3384 1.425 . S
C3389 C3386 1.409 . S
C3389 C3387 1.415 . S
C3390 H3380 0.930 . S
C3390 C3388 1.419 . S
C3390 C3391 1.362 . S
C3391 H3381 0.930 . S
C3391 C3384 1.409 . S
C3391 C3390 1.362 . S
H3392 C3398 0.930 . S
H3393 C3401 0.930 . S
H3394 C3402 0.930 . S
H3395 C3403 0.930 . S
H3396 C3406 0.930 . S
H3397 C3407 0.930 . S
C3398 H3392 0.930 . S
C3398 C3399 1.355 . S
C3398 C3400 1.415 . S
C3399 C3398 1.355 . S
C3399 C3401 1.419 . S
C3400 C3398 1.415 . S
C3400 C3405 1.425 . S
C3400 C3407 1.409 . S
C3401 H3393 0.930 . S
C3401 C3399 1.419 . S
C3401 C3402 1.362 . S
C3402 H3394 0.930 . S
C3402 C3401 1.362 . S
C3402 C3405 1.409 . S
C3403 H3395 0.930 . S
C3403 C3404 1.355 . S
C3403 C3405 1.415 . S
C3404 C3403 1.355 . S
C3404 C3406 1.419 . S
C3405 C3400 1.425 . S
C3405 C3402 1.409 . S
C3405 C3403 1.415 . S
C3406 H3396 0.930 . S
C3406 C3404 1.419 . S
C3406 C3407 1.362 . S
C3407 H3397 0.930 . S
C3407 C3400 1.409 . S
C3407 C3406 1.362 . S
H3408 C3414 0.930 . S
H3409 C3417 0.930 . S
H3410 C3418 0.930 . S
H3411 C3419 0.930 . S
H3412 C3422 0.930 . S
H3413 C3423 0.930 . S
C3414 H3408 0.930 . S
C3414 C3415 1.355 . S
C3414 C3416 1.415 . S
C3415 C3414 1.355 . S
C3415 C3417 1.419 . S
C3416 C3414 1.415 . S
C3416 C3421 1.425 . S
C3416 C3423 1.409 . S
C3417 H3409 0.930 . S
C3417 C3415 1.419 . S
C3417 C3418 1.362 . S
C3418 H3410 0.930 . S
C3418 C3417 1.362 . S
C3418 C3421 1.409 . S
C3419 H3411 0.930 . S
C3419 C3420 1.355 . S
C3419 C3421 1.415 . S
C3420 C3419 1.355 . S
C3420 C3422 1.419 . S
C3421 C3416 1.425 . S
C3421 C3418 1.409 . S
C3421 C3419 1.415 . S
C3422 H3412 0.930 . S
C3422 C3420 1.419 . S
C3422 C3423 1.362 . S
C3423 H3413 0.930 . S
C3423 C3416 1.409 . S
C3423 C3422 1.362 . S
H3424 C3430 0.930 . S
H3425 C3433 0.930 1_455 S
H3426 C3434 0.930 . S
H3427 C3435 0.930 . S
H3428 C3438 0.930 . S
H3429 C3439 0.930 . S
C3430 H3424 0.930 . S
C3430 C3431 1.355 . S
C3430 C3432 1.415 . S
C3431 C3430 1.355 . S
C3431 C3433 1.419 . S
C3432 C3430 1.415 . S
C3432 C3437 1.425 . S
C3432 C3439 1.409 . S
C3433 H3425 0.930 1_655 S
C3433 C3431 1.419 . S
C3433 C3434 1.362 . S
C3434 H3426 0.930 . S
C3434 C3433 1.362 . S
C3434 C3437 1.409 . S
C3435 H3427 0.930 . S
C3435 C3436 1.355 . S
C3435 C3437 1.415 . S
C3436 C3435 1.355 . S
C3436 C3438 1.419 . S
C3437 C3432 1.425 . S
C3437 C3434 1.409 . S
C3437 C3435 1.415 . S
C3438 H3428 0.930 . S
C3438 C3436 1.419 . S
C3438 C3439 1.362 . S
C3439 H3429 0.930 . S
C3439 C3432 1.409 . S
C3439 C3438 1.362 . S
H3440 C3446 0.930 . S
H3441 C3449 0.930 . S
H3442 C3450 0.930 . S
H3443 C3451 0.930 . S
H3444 C3454 0.930 1_455 S
H3445 C3455 0.930 . S
C3446 H3440 0.930 . S
C3446 C3447 1.355 . S
C3446 C3448 1.415 . S
C3447 C3446 1.355 . S
C3447 C3449 1.419 . S
C3448 C3446 1.415 . S
C3448 C3453 1.425 . S
C3448 C3455 1.409 . S
C3449 H3441 0.930 . S
C3449 C3447 1.419 . S
C3449 C3450 1.362 . S
C3450 H3442 0.930 . S
C3450 C3449 1.362 . S
C3450 C3453 1.409 . S
C3451 H3443 0.930 . S
C3451 C3452 1.355 . S
C3451 C3453 1.415 . S
C3452 C3451 1.355 . S
C3452 C3454 1.419 . S
C3453 C3448 1.425 . S
C3453 C3450 1.409 . S
C3453 C3451 1.415 . S
C3454 H3444 0.930 1_655 S
C3454 C3452 1.419 . S
C3454 C3455 1.362 . S
C3455 H3445 0.930 . S
C3455 C3448 1.409 . S
C3455 C3454 1.362 . S
H3456 C3462 0.930 . S
H3457 C3465 0.930 . S
H3458 C3466 0.930 . S
H3459 C3467 0.930 . S
H3460 C3470 0.930 . S
H3461 C3471 0.930 . S
C3462 H3456 0.930 . S
C3462 C3463 1.355 . S
C3462 C3464 1.415 . S
C3463 C3462 1.355 . S
C3463 C3465 1.419 . S
C3464 C3462 1.415 . S
C3464 C3469 1.425 . S
C3464 C3471 1.409 . S
C3465 H3457 0.930 . S
C3465 C3463 1.419 . S
C3465 C3466 1.362 . S
C3466 H3458 0.930 . S
C3466 C3465 1.362 . S
C3466 C3469 1.409 . S
C3467 H3459 0.930 . S
C3467 C3468 1.355 . S
C3467 C3469 1.415 . S
C3468 C3467 1.355 . S
C3468 C3470 1.419 . S
C3469 C3464 1.425 . S
C3469 C3466 1.409 . S
C3469 C3467 1.415 . S
C3470 H3460 0.930 . S
C3470 C3468 1.419 . S
C3470 C3471 1.362 . S
C3471 H3461 0.930 . S
C3471 C3464 1.409 . S
C3471 C3470 1.362 . S
H3472 C3478 0.930 . S
H3473 C3481 0.930 . S
H3474 C3482 0.930 . S
H3475 C3483 0.930 . S
H3476 C3486 0.930 . S
H3477 C3487 0.930 . S
C3478 H3472 0.930 . S
C3478 C3479 1.355 . S
C3478 C3480 1.415 . S
C3479 C3478 1.355 . S
C3479 C3481 1.419 . S
C3480 C3478 1.415 . S
C3480 C3485 1.425 . S
C3480 C3487 1.409 . S
C3481 H3473 0.930 . S
C3481 C3479 1.419 . S
C3481 C3482 1.362 . S
C3482 H3474 0.930 . S
C3482 C3481 1.362 . S
C3482 C3485 1.409 . S
C3483 H3475 0.930 . S
C3483 C3484 1.355 . S
C3483 C3485 1.415 . S
C3484 C3483 1.355 . S
C3484 C3486 1.419 . S
C3485 C3480 1.425 . S
C3485 C3482 1.409 . S
C3485 C3483 1.415 . S
C3486 H3476 0.930 . S
C3486 C3484 1.419 . S
C3486 C3487 1.362 . S
C3487 H3477 0.930 . S
C3487 C3480 1.409 . S
C3487 C3486 1.362 . S
H3488 C3494 0.930 . S
H3489 C3497 0.930 . S
H3490 C3498 0.930 . S
H3491 C3499 0.930 . S
H3492 C3502 0.930 . S
H3493 C3503 0.930 . S
C3494 H3488 0.930 . S
C3494 C3495 1.355 . S
C3494 C3496 1.415 . S
C3495 C3494 1.355 . S
C3495 C3497 1.419 . S
C3496 C3494 1.415 . S
C3496 C3501 1.425 . S
C3496 C3503 1.409 . S
C3497 H3489 0.930 . S
C3497 C3495 1.419 . S
C3497 C3498 1.362 . S
C3498 H3490 0.930 . S
C3498 C3497 1.362 . S
C3498 C3501 1.409 . S
C3499 H3491 0.930 . S
C3499 C3500 1.355 . S
C3499 C3501 1.415 . S
C3500 C3499 1.355 . S
C3500 C3502 1.419 . S
C3501 C3496 1.425 . S
C3501 C3498 1.409 . S
C3501 C3499 1.415 . S
C3502 H3492 0.930 . S
C3502 C3500 1.419 . S
C3502 C3503 1.362 . S
C3503 H3493 0.930 . S
C3503 C3496 1.409 . S
C3503 C3502 1.362 . S
H3504 C3510 0.930 . S
H3505 C3513 0.930 . S
H3506 C3514 0.930 . S
H3507 C3515 0.930 . S
H3508 C3518 0.930 . S
H3509 C3519 0.930 . S
C3510 H3504 0.930 . S
C3510 C3511 1.355 . S
C3510 C3512 1.415 . S
C3511 C3510 1.355 . S
C3511 C3513 1.419 . S
C3512 C3510 1.415 . S
C3512 C3517 1.425 . S
C3512 C3519 1.409 . S
C3513 H3505 0.930 . S
C3513 C3511 1.419 . S
C3513 C3514 1.362 . S
C3514 H3506 0.930 . S
C3514 C3513 1.362 . S
C3514 C3517 1.409 . S
C3515 H3507 0.930 . S
C3515 C3516 1.355 . S
C3515 C3517 1.415 . S
C3516 C3515 1.355 . S
C3516 C3518 1.419 . S
C3517 C3512 1.425 . S
C3517 C3514 1.409 . S
C3517 C3515 1.415 . S
C3518 H3508 0.930 . S
C3518 C3516 1.419 . S
C3518 C3519 1.362 . S
C3519 H3509 0.930 . S
C3519 C3512 1.409 . S
C3519 C3518 1.362 . S
H3520 C3526 0.930 . S
H3521 C3529 0.930 . S
H3522 C3530 0.930 . S
H3523 C3531 0.930 . S
H3524 C3534 0.930 . S
H3525 C3535 0.930 . S
C3526 H3520 0.930 . S
C3526 C3527 1.355 . S
C3526 C3528 1.415 . S
C3527 C3526 1.355 . S
C3527 C3529 1.419 . S
C3528 C3526 1.415 . S
C3528 C3533 1.425 . S
C3528 C3535 1.409 . S
C3529 H3521 0.930 . S
C3529 C3527 1.419 . S
C3529 C3530 1.362 . S
C3530 H3522 0.930 . S
C3530 C3529 1.362 . S
C3530 C3533 1.409 . S
C3531 H3523 0.930 . S
C3531 C3532 1.355 . S
C3531 C3533 1.415 . S
C3532 C3531 1.355 . S
C3532 C3534 1.419 . S
C3533 C3528 1.425 . S
C3533 C3530 1.409 . S
C3533 C3531 1.415 . S
C3534 H3524 0.930 . S
C3534 C3532 1.419 . S
C3534 C3535 1.362 . S
C3535 H3525 0.930 . S
C3535 C3528 1.409 . S
C3535 C3534 1.362 . S
H3536 C3542 0.930 . S
H3537 C3545 0.930 . S
H3538 C3546 0.930 . S
H3539 C3547 0.930 . S
H3540 C3550 0.930 . S
H3541 C3551 0.930 . S
C3542 H3536 0.930 . S
C3542 C3543 1.355 . S
C3542 C3544 1.415 . S
C3543 C3542 1.355 . S
C3543 C3545 1.419 . S
C3544 C3542 1.415 . S
C3544 C3549 1.425 . S
C3544 C3551 1.409 . S
C3545 H3537 0.930 . S
C3545 C3543 1.419 . S
C3545 C3546 1.362 . S
C3546 H3538 0.930 . S
C3546 C3545 1.362 . S
C3546 C3549 1.409 . S
C3547 H3539 0.930 . S
C3547 C3548 1.355 . S
C3547 C3549 1.415 . S
C3548 C3547 1.355 . S
C3548 C3550 1.419 . S
C3549 C3544 1.425 . S
C3549 C3546 1.409 . S
C3549 C3547 1.415 . S
C3550 H3540 0.930 . S
C3550 C3548 1.419 . S
C3550 C3551 1.362 . S
C3551 H3541 0.930 . S
C3551 C3544 1.409 . S
C3551 C3550 1.362 . S
C1639 C292 0.862 . S
C1644 C5 0.955 . S
C1655 C326 0.874 . S
C1660 C39 0.909 . S
C1671 C73 0.942 . S
C1676 C360 0.849 . S
C1687 C107 0.932 . S
C1692 C394 0.851 . S
C1703 C141 0.915 . S
C1708 C428 0.961 . S
C1719 C462 0.858 . S
C1724 C175 0.923 1_455 S
C1735 C496 0.907 . S
C1740 C209 0.891 . S
C1751 C243 0.915 1_655 S
C1756 C530 0.960 . S
C1767 C277 0.885 . S
C1772 C564 0.929 . S
C1783 C311 0.957 1_554 S
C1788 C1618 0.882 . S
C1799 C345 0.934 . S
C1804 C1550 0.943 . S
C1815 C379 0.892 1_554 S
C1820 C1584 0.903 . S
C1831 C598 0.942 . S
C1836 C413 0.934 . S
C1847 C632 0.937 . S
C1852 C447 0.884 1_556 S
C1863 C481 0.885 . S
C1868 C666 0.927 . S
C1879 C515 0.941 1_556 S
C1884 C1516 0.849 . S
C1895 C549 0.957 . S
C1900 C20 0.869 . S
C1911 C156 0.947 . S
C1916 C583 0.884 . S
C1927 C617 0.943 . S
C1932 C190 0.928 . S
C1943 C224 0.855 . S
C1948 C651 0.926 . S
C1959 C685 0.891 . S
C1964 C1074 0.905 . S
C1975 C719 0.947 . S
C1980 C904 0.919 . S
C1991 C753 0.895 . S
C1996 C938 0.964 . S
C2007 C787 0.956 1_545 S
C2012 C870 0.863 . S
C2023 C1108 0.937 . S
C2028 C821 0.884 . S
C2039 C1142 0.892 . S
C2044 C855 0.898 1_655 S
C2055 C1176 0.960 . S
C2060 C889 0.889 . S
C2071 C923 0.897 1_455 S
C2076 C1210 0.965 . S
C2087 C1244 0.924 . S
C2092 C957 0.886 . S
C2103 C1278 0.883 . S
C2108 C991 0.903 . S
C2119 C1025 0.952 . S
C2124 C1312 0.854 . S
C2135 C1059 0.921 . S
C2140 C1346 0.859 . S
C2151 C1093 0.885 . S
C2156 C1380 0.929 . S
C2167 C802 0.857 . S
C2172 C1127 0.953 . S
C2183 C734 0.854 . S
C2188 C1161 0.929 . S
C2199 C1195 0.947 . S
C2204 C768 0.850 . S
C2215 C1229 0.885 . S
C2220 C1414 0.926 . S
C2231 C1263 0.948 . S
C2236 C1448 0.851 . S
C2247 C1482 0.850 . S
C2252 C1297 0.935 . S
C2263 C1331 0.927 . S
C2268 C700 0.950 . S
C2279 C836 0.965 . S
C2284 C1365 0.898 . S
C2295 C1399 0.953 . S
C2300 C972 0.904 . S
C2311 C1433 0.885 1_545 S
C2316 C1006 0.929 . S
C2327 C1040 0.905 . S
C2332 C1467 0.891 . S
C2343 C1501 0.890 1_565 S
C2348 C258 0.909 . S
C2359 C1535 0.885 . S
C2364 C88 0.951 . S
C2375 C122 0.960 . S
C2380 C1569 0.917 1_565 S
C2391 C54 0.958 . S
C2396 C1603 0.888 . S
C2407 C33 2.124 . S
C2412 C101 2.118 . S
C2423 C67 2.116 . S
C2428 C135 2.113 . S
C2439 C237 2.112 . S
C2444 C169 2.114 . S
C2455 C203 2.132 . S
C2460 C271 2.127 . S
C2471 C441 2.118 . S
C2476 C305 2.124 . S
C2487 C339 2.133 . S
C2492 C475 2.130 . S
C2503 C509 2.123 . S
C2508 C373 2.117 . S
C2519 C543 2.124 . S
C2524 C407 2.129 . S
C2535 C1495 2.123 . S
C2540 C577 2.128 . S
C2551 C611 2.132 . S
C2556 C747 2.128 . S
C2567 C645 2.113 . S
C2572 C781 2.117 . S
C2583 C679 2.124 . S
C2588 C1393 2.130 . S
C2599 C1631 2.128 . S
C2604 C713 2.132 . S
C2615 C1529 2.126 . S
C2620 C815 2.121 . S
C2631 C917 2.133 . S
C2636 C849 2.130 . S
C2647 C951 2.124 . S
C2652 C883 2.118 . S
C2663 C1053 2.133 . S
C2668 C985 2.130 . S
C2679 C1087 2.112 . S
C2684 C1019 2.115 . S
C2695 C1121 2.133 . S
C2700 C1257 2.134 . S
C2711 C1291 2.117 . S
C2716 C1155 2.113 . S
C2727 C1189 2.131 . S
C2732 C1325 2.134 . S
C2743 C1359 2.115 . S
C2748 C1223 2.112 . S
C2759 C1563 2.127 . S
C2764 C1427 2.122 . S
C2775 C1461 2.123 . S
C2780 C1597 2.129 . S
C2791 C444 1.834 . S
C2796 C9 1.872 . S
C2807 C478 1.869 . S
C2812 C43 1.837 . S
C2823 C77 1.836 . S
C2828 C512 1.869 1_545 S
C2839 C111 1.860 . S
C2844 C410 1.862 . S
C2855 C145 1.830 . S
C2860 C1192 1.861 . S
C2871 C1090 1.850 . S
C2876 C179 1.831 . S
C2887 C1124 1.856 1_565 S
C2892 C213 1.866 . S
C2903 C247 1.862 . S
C2908 C1158 1.824 . S
C2919 C281 1.869 . S
C2924 C852 1.850 . S
C2935 C886 1.861 . S
C2940 C315 1.830 . S
C2951 C920 1.827 . S
C2956 C349 1.868 . S
C2967 C383 1.873 . S
C2972 C818 1.834 . S
C2983 C417 1.873 . S
C2988 C240 1.837 1_554 S
C2999 C451 1.853 . S
C3004 C138 1.867 . S
C3015 C172 1.839 1_554 S
C3020 C485 1.836 . S
C3031 C519 1.831 . S
C3036 C206 1.849 . S
C3047 C1566 1.864 . S
C3052 C553 1.858 . S
C3063 C587 1.838 . S
C3068 C1430 1.870 . S
C3079 C1464 1.853 . S
C3084 C621 1.830 . S
C3095 C655 1.873 . S
C3100 C682 1.835 . S
C3111 C580 1.859 . S
C3116 C689 1.830 . S
C3127 C723 1.830 . S
C3132 C784 1.855 1_455 S
C3143 C757 1.834 . S
C3148 C716 1.844 . S
C3159 C1362 1.870 . S
C3164 C791 1.842 . S
C3175 C1260 1.866 1_565 S
C3180 C825 1.833 . S
C3191 C1294 1.863 . S
C3196 C859 1.831 . S
C3207 C893 1.873 . S
C3212 C1328 1.841 . S
C3223 C927 1.834 . S
C3228 C1226 1.843 . S
C3239 C376 1.837 1_545 S
C3244 C961 1.838 . S
C3255 C995 1.861 . S
C3260 C274 1.862 . S
C3271 C1029 1.863 . S
C3276 C308 1.825 . S
C3287 C1063 1.844 . S
C3292 C342 1.831 . S
C3303 C1097 1.830 . S
C3308 C36 1.851 1_556 S
C3319 C1131 1.830 . S
C3324 C70 1.860 . S
C3335 C1165 1.830 . S
C3340 C104 1.855 1_556 S
C3351 C1199 1.849 . S
C3356 C2 1.869 . S
C3367 C1056 1.854 . S
C3372 C1233 1.868 . S
C3383 C954 1.868 . S
C3388 C1267 1.851 . S
C3399 C1301 1.868 . S
C3404 C988 1.853 . S
C3415 C1335 1.832 . S
C3420 C1022 1.846 . S
C3431 C750 1.838 1_655 S
C3436 C1369 1.837 . S
C3447 C1403 1.830 . S
C3452 C614 1.853 1_655 S
C3463 C648 1.857 . S
C3468 C1437 1.865 . S
C3479 C1471 1.873 . S
C3484 C1498 1.834 1_455 S
C3495 C1396 1.838 . S
C3500 C1505 1.873 . S
C3511 C1600 1.864 . S
C3516 C1539 1.832 . S
C3527 C1532 1.851 . S
C3532 C1573 1.831 . S
C3543 C1607 1.840 . S
C3548 C546 1.835 . S
