# Generated by pormake.
# Topology swa, (7)-cn, num edge types: 1
# Building blocks:
#     Node 0, Type 0, BuildingBlock: HICVOG_clean_sbu_0, # of connection points: 7
#     Node 1, Type 0, BuildingBlock: HICVOG_clean_sbu_0, # of connection points: 7
#     Node 2, Type 0, BuildingBlock: HICVOG_clean_sbu_0, # of connection points: 7
#     Node 3, Type 0, BuildingBlock: HICVOG_clean_sbu_0, # of connection points: 7
#     Node 4, Type 0, BuildingBlock: HICVOG_clean_sbu_0, # of connection points: 7
#     Node 5, Type 0, BuildingBlock: HICVOG_clean_sbu_0, # of connection points: 7
#     Node 6, Type 0, BuildingBlock: HICVOG_clean_sbu_0, # of connection points: 7
#     Node 7, Type 0, BuildingBlock: HICVOG_clean_sbu_0, # of connection points: 7
#     Node 8, Type 0, BuildingBlock: HICVOG_clean_sbu_0, # of connection points: 7
#     Node 9, Type 0, BuildingBlock: HICVOG_clean_sbu_0, # of connection points: 7
#     Node 10, Type 0, BuildingBlock: HICVOG_clean_sbu_0, # of connection points: 7
#     Node 11, Type 0, BuildingBlock: HICVOG_clean_sbu_0, # of connection points: 7
#     Node 12, Type 0, BuildingBlock: HICVOG_clean_sbu_0, # of connection points: 7
#     Node 13, Type 0, BuildingBlock: HICVOG_clean_sbu_0, # of connection points: 7
#     Node 14, Type 0, BuildingBlock: HICVOG_clean_sbu_0, # of connection points: 7
#     Node 15, Type 0, BuildingBlock: HICVOG_clean_sbu_0, # of connection points: 7
#     Node 16, Type 0, BuildingBlock: HICVOG_clean_sbu_0, # of connection points: 7
#     Node 17, Type 0, BuildingBlock: HICVOG_clean_sbu_0, # of connection points: 7
#     Node 18, Type 0, BuildingBlock: HICVOG_clean_sbu_0, # of connection points: 7
#     Node 19, Type 0, BuildingBlock: HICVOG_clean_sbu_0, # of connection points: 7
#     Node 20, Type 0, BuildingBlock: HICVOG_clean_sbu_0, # of connection points: 7
#     Node 21, Type 0, BuildingBlock: HICVOG_clean_sbu_0, # of connection points: 7
#     Node 22, Type 0, BuildingBlock: HICVOG_clean_sbu_0, # of connection points: 7
#     Node 23, Type 0, BuildingBlock: HICVOG_clean_sbu_0, # of connection points: 7
#     Node 24, Type 0, BuildingBlock: HICVOG_clean_sbu_0, # of connection points: 7
#     Node 25, Type 0, BuildingBlock: HICVOG_clean_sbu_0, # of connection points: 7
#     Node 26, Type 0, BuildingBlock: HICVOG_clean_sbu_0, # of connection points: 7
#     Node 27, Type 0, BuildingBlock: HICVOG_clean_sbu_0, # of connection points: 7
#     Node 28, Type 0, BuildingBlock: HICVOG_clean_sbu_0, # of connection points: 7
#     Node 29, Type 0, BuildingBlock: HICVOG_clean_sbu_0, # of connection points: 7
#     Node 30, Type 0, BuildingBlock: HICVOG_clean_sbu_0, # of connection points: 7
#     Node 31, Type 0, BuildingBlock: HICVOG_clean_sbu_0, # of connection points: 7
#     Node 32, Type 0, BuildingBlock: HICVOG_clean_sbu_0, # of connection points: 7
#     Node 33, Type 0, BuildingBlock: HICVOG_clean_sbu_0, # of connection points: 7
#     Node 34, Type 0, BuildingBlock: HICVOG_clean_sbu_0, # of connection points: 7
#     Node 35, Type 0, BuildingBlock: HICVOG_clean_sbu_0, # of connection points: 7
#     Node 36, Type 0, BuildingBlock: HICVOG_clean_sbu_0, # of connection points: 7
#     Node 37, Type 0, BuildingBlock: HICVOG_clean_sbu_0, # of connection points: 7
#     Node 38, Type 0, BuildingBlock: HICVOG_clean_sbu_0, # of connection points: 7
#     Node 39, Type 0, BuildingBlock: HICVOG_clean_sbu_0, # of connection points: 7
#     Node 40, Type 0, BuildingBlock: HICVOG_clean_sbu_0, # of connection points: 7
#     Node 41, Type 0, BuildingBlock: HICVOG_clean_sbu_0, # of connection points: 7
#     Node 42, Type 0, BuildingBlock: HICVOG_clean_sbu_0, # of connection points: 7
#     Node 43, Type 0, BuildingBlock: HICVOG_clean_sbu_0, # of connection points: 7
#     Node 44, Type 0, BuildingBlock: HICVOG_clean_sbu_0, # of connection points: 7
#     Node 45, Type 0, BuildingBlock: HICVOG_clean_sbu_0, # of connection points: 7
#     Node 46, Type 0, BuildingBlock: HICVOG_clean_sbu_0, # of connection points: 7
#     Node 47, Type 0, BuildingBlock: HICVOG_clean_sbu_0, # of connection points: 7
#     Edge 48, Type (0, 0), None
#     Edge 49, Type (0, 0), None
#     Edge 50, Type (0, 0), None
#     Edge 51, Type (0, 0), None
#     Edge 52, Type (0, 0), None
#     Edge 53, Type (0, 0), None
#     Edge 54, Type (0, 0), None
#     Edge 55, Type (0, 0), None
#     Edge 56, Type (0, 0), None
#     Edge 57, Type (0, 0), None
#     Edge 58, Type (0, 0), None
#     Edge 59, Type (0, 0), None
#     Edge 60, Type (0, 0), None
#     Edge 61, Type (0, 0), None
#     Edge 62, Type (0, 0), None
#     Edge 63, Type (0, 0), None
#     Edge 64, Type (0, 0), None
#     Edge 65, Type (0, 0), None
#     Edge 66, Type (0, 0), None
#     Edge 67, Type (0, 0), None
#     Edge 68, Type (0, 0), None
#     Edge 69, Type (0, 0), None
#     Edge 70, Type (0, 0), None
#     Edge 71, Type (0, 0), None
#     Edge 72, Type (0, 0), None
#     Edge 73, Type (0, 0), None
#     Edge 74, Type (0, 0), None
#     Edge 75, Type (0, 0), None
#     Edge 76, Type (0, 0), None
#     Edge 77, Type (0, 0), None
#     Edge 78, Type (0, 0), None
#     Edge 79, Type (0, 0), None
#     Edge 80, Type (0, 0), None
#     Edge 81, Type (0, 0), None
#     Edge 82, Type (0, 0), None
#     Edge 83, Type (0, 0), None
#     Edge 84, Type (0, 0), None
#     Edge 85, Type (0, 0), None
#     Edge 86, Type (0, 0), None
#     Edge 87, Type (0, 0), None
#     Edge 88, Type (0, 0), None
#     Edge 89, Type (0, 0), None
#     Edge 90, Type (0, 0), None
#     Edge 91, Type (0, 0), None
#     Edge 92, Type (0, 0), None
#     Edge 93, Type (0, 0), None
#     Edge 94, Type (0, 0), None
#     Edge 95, Type (0, 0), None
#     Edge 96, Type (0, 0), None
#     Edge 97, Type (0, 0), None
#     Edge 98, Type (0, 0), None
#     Edge 99, Type (0, 0), None
#     Edge 100, Type (0, 0), None
#     Edge 101, Type (0, 0), None
#     Edge 102, Type (0, 0), None
#     Edge 103, Type (0, 0), None
#     Edge 104, Type (0, 0), None
#     Edge 105, Type (0, 0), None
#     Edge 106, Type (0, 0), None
#     Edge 107, Type (0, 0), None
#     Edge 108, Type (0, 0), None
#     Edge 109, Type (0, 0), None
#     Edge 110, Type (0, 0), None
#     Edge 111, Type (0, 0), None
#     Edge 112, Type (0, 0), None
#     Edge 113, Type (0, 0), None
#     Edge 114, Type (0, 0), None
#     Edge 115, Type (0, 0), None
#     Edge 116, Type (0, 0), None
#     Edge 117, Type (0, 0), None
#     Edge 118, Type (0, 0), None
#     Edge 119, Type (0, 0), None
#     Edge 120, Type (0, 0), None
#     Edge 121, Type (0, 0), None
#     Edge 122, Type (0, 0), None
#     Edge 123, Type (0, 0), None
#     Edge 124, Type (0, 0), None
#     Edge 125, Type (0, 0), None
#     Edge 126, Type (0, 0), None
#     Edge 127, Type (0, 0), None
#     Edge 128, Type (0, 0), None
#     Edge 129, Type (0, 0), None
#     Edge 130, Type (0, 0), None
#     Edge 131, Type (0, 0), None
#     Edge 132, Type (0, 0), None
#     Edge 133, Type (0, 0), None
#     Edge 134, Type (0, 0), None
#     Edge 135, Type (0, 0), None
#     Edge 136, Type (0, 0), None
#     Edge 137, Type (0, 0), None
#     Edge 138, Type (0, 0), None
#     Edge 139, Type (0, 0), None
#     Edge 140, Type (0, 0), None
#     Edge 141, Type (0, 0), None
#     Edge 142, Type (0, 0), None
#     Edge 143, Type (0, 0), None
#     Edge 144, Type (0, 0), None
#     Edge 145, Type (0, 0), None
#     Edge 146, Type (0, 0), None
#     Edge 147, Type (0, 0), None
#     Edge 148, Type (0, 0), None
#     Edge 149, Type (0, 0), None
#     Edge 150, Type (0, 0), None
#     Edge 151, Type (0, 0), None
#     Edge 152, Type (0, 0), None
#     Edge 153, Type (0, 0), None
#     Edge 154, Type (0, 0), None
#     Edge 155, Type (0, 0), None
#     Edge 156, Type (0, 0), None
#     Edge 157, Type (0, 0), None
#     Edge 158, Type (0, 0), None
#     Edge 159, Type (0, 0), None
#     Edge 160, Type (0, 0), None
#     Edge 161, Type (0, 0), None
#     Edge 162, Type (0, 0), None
#     Edge 163, Type (0, 0), None
#     Edge 164, Type (0, 0), None
#     Edge 165, Type (0, 0), None
#     Edge 166, Type (0, 0), None
#     Edge 167, Type (0, 0), None
#     Edge 168, Type (0, 0), None
#     Edge 169, Type (0, 0), None
#     Edge 170, Type (0, 0), None
#     Edge 171, Type (0, 0), None
#     Edge 172, Type (0, 0), None
#     Edge 173, Type (0, 0), None
#     Edge 174, Type (0, 0), None
#     Edge 175, Type (0, 0), None
#     Edge 176, Type (0, 0), None
#     Edge 177, Type (0, 0), None
#     Edge 178, Type (0, 0), None
#     Edge 179, Type (0, 0), None
#     Edge 180, Type (0, 0), None
#     Edge 181, Type (0, 0), None
#     Edge 182, Type (0, 0), None
#     Edge 183, Type (0, 0), None
#     Edge 184, Type (0, 0), None
#     Edge 185, Type (0, 0), None
#     Edge 186, Type (0, 0), None
#     Edge 187, Type (0, 0), None
#     Edge 188, Type (0, 0), None
#     Edge 189, Type (0, 0), None
#     Edge 190, Type (0, 0), None
#     Edge 191, Type (0, 0), None
#     Edge 192, Type (0, 0), None
#     Edge 193, Type (0, 0), None
#     Edge 194, Type (0, 0), None
#     Edge 195, Type (0, 0), None
#     Edge 196, Type (0, 0), None
#     Edge 197, Type (0, 0), None
#     Edge 198, Type (0, 0), None
#     Edge 199, Type (0, 0), None
#     Edge 200, Type (0, 0), None
#     Edge 201, Type (0, 0), None
#     Edge 202, Type (0, 0), None
#     Edge 203, Type (0, 0), None
#     Edge 204, Type (0, 0), None
#     Edge 205, Type (0, 0), None
#     Edge 206, Type (0, 0), None
#     Edge 207, Type (0, 0), None
#     Edge 208, Type (0, 0), None
#     Edge 209, Type (0, 0), None
#     Edge 210, Type (0, 0), None
#     Edge 211, Type (0, 0), None
#     Edge 212, Type (0, 0), None
#     Edge 213, Type (0, 0), None
#     Edge 214, Type (0, 0), None
#     Edge 215, Type (0, 0), None
# Relax obj value: 0.487
# Max RMSD: 0.243
# Mean RMSD: 0.243
data_MOF--net-swa--node1-HICVOG_clean_sbu_0--edge1-none
_symmetry_space_group_name_H-M    P1
_symmetry_Int_Tables_number       1
_symmetry_cell_setting            triclinic
loop_
_symmetry_equiv_pos_as_xyz
'x, y, z'
_cell_length_a     33.179304
_cell_length_b     33.178957
_cell_length_c     33.177936
_cell_angle_alpha  90.000138
_cell_angle_beta   90.000333
_cell_angle_gamma 89.999934
loop_
_atom_site_label
_atom_site_type_symbol
_atom_site_fract_x
_atom_site_fract_y
_atom_site_fract_z
_atom_type_partial_charge
Zn0 Zn 0.13419 0.63116 0.18652 0.0
C1 C 0.05779 0.64745 0.27339 0.0
N2 N 0.0893 0.63967 0.29774 0.0
C3 C 0.11587 0.62102 0.27304 0.0
N4 N 0.10086 0.61706 0.23476 0.0
N5 N 0.06376 0.63282 0.23607 0.0
C6 C 0.98415 0.71592 0.16519 0.0
O7 O 0.01764 0.72391 0.14578 0.0
O8 O 0.19611 0.61714 0.17914 0.0
Zn9 Zn 0.02398 0.64084 0.19201 0.0
N10 N 0.13531 0.68612 0.19887 0.0
C11 C 0.10348 0.7494 0.20657 0.0
C12 C 0.10093 0.70837 0.19978 0.0
C13 C 0.17168 0.70283 0.20566 0.0
N14 N 0.14034 0.76671 0.20721 0.0
C15 C 0.17471 0.74433 0.20362 0.0
O16 O 0.04697 0.64668 0.13928 0.0
C17 C 0.07634 0.64308 0.11579 0.0
O18 O 0.11085 0.63232 0.12874 0.0
H19 H 0.07201 0.69475 0.19497 0.0
H20 H 0.19856 0.68466 0.20348 0.0
C21 C 0.95527 0.60184 0.1658 0.0
C22 C 0.92892 0.56997 0.1587 0.0
C23 C 0.97521 0.52543 0.19082 0.0
C24 C 1.00106 0.55762 0.19848 0.0
N25 N 0.99032 0.59503 0.18596 0.0
N26 N 0.93974 0.53242 0.17156 0.0
H27 H 0.94777 0.63192 0.15601 0.0
C28 C 0.21306 0.59773 0.15028 0.0
O29 O 0.19764 0.56258 0.1407 0.0
O30 O 0.98379 0.68817 0.19202 0.0
H31 H 0.02941 0.55292 0.21387 0.0
H32 H 0.07673 0.76756 0.20905 0.0
H33 H 0.98291 0.49528 0.20054 0.0
Zn34 Zn 0.87238 0.13419 0.18649 0.0
C35 C 0.85611 0.0578 0.27338 0.0
N36 N 0.8639 0.08931 0.29772 0.0
C37 C 0.88254 0.11588 0.27302 0.0
N38 N 0.8865 0.10087 0.23474 0.0
N39 N 0.87073 0.06376 0.23605 0.0
C40 C 0.78762 0.98414 0.16519 0.0
O41 O 0.77962 0.01764 0.14578 0.0
O42 O 0.88637 0.19611 0.17908 0.0
Zn43 Zn 0.86271 0.02398 0.19199 0.0
N44 N 0.81742 0.13531 0.19887 0.0
C45 C 0.75415 0.10347 0.20661 0.0
C46 C 0.79517 0.10092 0.19979 0.0
C47 C 0.80071 0.17167 0.20568 0.0
N48 N 0.73684 0.14033 0.20725 0.0
C49 C 0.75922 0.1747 0.20365 0.0
O50 O 0.85684 0.04697 0.13925 0.0
C51 C 0.86043 0.07634 0.11577 0.0
O52 O 0.87119 0.11085 0.12872 0.0
H53 H 0.80879 0.072 0.19497 0.0
H54 H 0.81888 0.19855 0.20351 0.0
C55 C 0.90171 0.95529 0.16576 0.0
C56 C 0.93358 0.92893 0.15867 0.0
C57 C 0.97811 0.9752 0.19082 0.0
C58 C 0.94593 1.00106 0.19847 0.0
N59 N 0.90852 0.99033 0.18594 0.0
N60 N 0.97112 0.93974 0.17155 0.0
H61 H 0.87163 0.94779 0.15597 0.0
C62 C 0.90581 0.21301 0.15022 0.0
O63 O 0.94091 0.19752 0.14061 0.0
O64 O 0.81538 0.98378 0.19201 0.0
H65 H 0.95062 0.0294 0.21388 0.0
H66 H 0.73599 0.07671 0.20909 0.0
H67 H 0.00826 0.9829 0.20055 0.0
Zn68 Zn 0.47956 0.86271 0.19202 0.0
C69 C 0.38771 0.88256 0.27306 0.0
N70 N 0.41428 0.8639 0.29774 0.0
C71 C 0.44577 0.85611 0.27339 0.0
N72 N 0.43977 0.87073 0.23607 0.0
N73 N 0.40268 0.88654 0.23475 0.0
C74 C 0.29056 0.90578 0.15024 0.0
O75 O 0.30614 0.94083 0.14059 0.0
O76 O 0.51976 0.81538 0.19205 0.0
Zn77 Zn 0.36936 0.87235 0.18653 0.0
N78 N 0.5132 0.90852 0.18595 0.0
C79 C 0.52833 0.97811 0.19085 0.0
C80 C 0.50248 0.94593 0.1985 0.0
C81 C 0.54825 0.90172 0.16578 0.0
N82 N 0.56379 0.97113 0.17158 0.0
C83 C 0.5746 0.93359 0.1587 0.0
O84 O 0.39269 0.87113 0.12876 0.0
C85 C 0.4272 0.86037 0.1158 0.0
O86 O 0.45658 0.8568 0.13928 0.0
H87 H 0.47413 0.95062 0.21391 0.0
H88 H 0.55575 0.87164 0.15598 0.0
C89 C 0.33189 0.80069 0.20578 0.0
C90 C 0.32886 0.75919 0.20375 0.0
C91 C 0.40009 0.75413 0.20675 0.0
C92 C 0.40264 0.79515 0.1999 0.0
N93 N 0.36826 0.8174 0.19896 0.0
N94 N 0.36323 0.73682 0.20739 0.0
H95 H 0.305 0.81885 0.20359 0.0
C96 C 0.51939 0.7876 0.16525 0.0
O97 O 0.48588 0.77957 0.14588 0.0
O98 O 0.30744 0.88633 0.1791 0.0
H99 H 0.43156 0.80877 0.19506 0.0
H100 H 0.52063 0.00826 0.20059 0.0
H101 H 0.42685 0.73598 0.20926 0.0
Zn102 Zn 0.64085 0.47955 0.19203 0.0
C103 C 0.621 0.38771 0.27306 0.0
N104 N 0.63966 0.41426 0.29775 0.0
C105 C 0.64745 0.44576 0.2734 0.0
N106 N 0.63284 0.43976 0.23608 0.0
N107 N 0.61702 0.40268 0.23476 0.0
C108 C 0.59777 0.29056 0.15024 0.0
O109 O 0.56272 0.30614 0.14059 0.0
O110 O 0.68817 0.51976 0.19209 0.0
Zn111 Zn 0.63122 0.36936 0.18654 0.0
N112 N 0.59503 0.5132 0.18596 0.0
C113 C 0.52544 0.52831 0.19085 0.0
C114 C 0.55763 0.50246 0.1985 0.0
C115 C 0.60183 0.54825 0.16581 0.0
N116 N 0.53241 0.56378 0.17159 0.0
C117 C 0.56996 0.5746 0.15872 0.0
O118 O 0.63245 0.39269 0.12877 0.0
C119 C 0.64321 0.4272 0.11582 0.0
O120 O 0.64677 0.45658 0.1393 0.0
H121 H 0.55293 0.47411 0.21389 0.0
H122 H 0.63191 0.55576 0.15602 0.0
C123 C 0.70286 0.33188 0.20579 0.0
C124 C 0.74436 0.32884 0.20375 0.0
C125 C 0.74944 0.40007 0.20672 0.0
C126 C 0.70842 0.40263 0.1999 0.0
N127 N 0.68616 0.36825 0.19897 0.0
N128 N 0.76674 0.36321 0.20737 0.0
H129 H 0.6847 0.30499 0.20361 0.0
C130 C 0.71596 0.5194 0.16529 0.0
O131 O 0.724 0.4859 0.14591 0.0
O132 O 0.61722 0.30744 0.1791 0.0
H133 H 0.69481 0.43155 0.19506 0.0
H134 H 0.49529 0.5206 0.20058 0.0
H135 H 0.7676 0.42682 0.20922 0.0
Zn136 Zn 0.02394 0.8627 0.31157 0.0
C137 C 0.11579 0.88251 0.23052 0.0
N138 N 0.08925 0.86381 0.20585 0.0
C139 C 0.05775 0.85603 0.23019 0.0
N140 N 0.06372 0.8707 0.2675 0.0
N141 N 0.10081 0.88653 0.26882 0.0
C142 C 0.21294 0.90574 0.35333 0.0
O143 O 0.19735 0.94079 0.36297 0.0
O144 O 0.98365 0.81546 0.31149 0.0
Zn145 Zn 0.13414 0.8723 0.31702 0.0
N146 N 0.99039 0.90856 0.31777 0.0
C147 C 0.97532 0.97817 0.31303 0.0
C148 C 1.00112 0.94597 0.30526 0.0
C149 C 0.95538 0.90177 0.33803 0.0
N150 N 0.93989 0.9712 0.33236 0.0
C151 C 0.92907 0.93365 0.34521 0.0
O152 O 0.11082 0.87105 0.3748 0.0
C153 C 0.07633 0.86025 0.38775 0.0
O154 O 0.04694 0.85669 0.36428 0.0
H155 H 0.02944 0.95066 0.28979 0.0
H156 H 0.94787 0.87168 0.34779 0.0
C157 C 0.17161 0.80067 0.2977 0.0
C158 C 0.17466 0.75917 0.29974 0.0
C159 C 0.10343 0.75407 0.29679 0.0
C160 C 0.10087 0.79509 0.30363 0.0
N161 N 0.13524 0.81736 0.30455 0.0
N162 N 0.14031 0.73678 0.29613 0.0
H163 H 0.1985 0.81884 0.29987 0.0
C164 C 0.98402 0.78762 0.33824 0.0
O165 O 0.01755 0.77952 0.35755 0.0
O166 O 0.19606 0.88628 0.32447 0.0
H167 H 0.07195 0.8087 0.30848 0.0
H168 H 0.98303 0.00833 0.30331 0.0
H169 H 0.07669 0.7359 0.29429 0.0
Zn170 Zn 0.64086 0.02395 0.31158 0.0
C171 C 0.62104 0.1158 0.23053 0.0
N172 N 0.63975 0.08926 0.20585 0.0
C173 C 0.64753 0.05776 0.2302 0.0
N174 N 0.63286 0.06373 0.2675 0.0
N175 N 0.61703 0.10081 0.26882 0.0
C176 C 0.59782 0.21299 0.3533 0.0
O177 O 0.56274 0.19747 0.36294 0.0
O178 O 0.6881 0.98366 0.3115 0.0
Zn179 Zn 0.63125 0.13415 0.31703 0.0
N180 N 0.595 0.99039 0.31778 0.0
C181 C 0.52539 0.97532 0.31303 0.0
C182 C 0.55759 1.00112 0.30527 0.0
C183 C 0.6018 0.95539 0.33804 0.0
N184 N 0.53236 0.93989 0.33236 0.0
C185 C 0.56991 0.92907 0.34522 0.0
O186 O 0.6325 0.11083 0.37481 0.0
C187 C 0.64331 0.07634 0.38777 0.0
O188 O 0.64687 0.04695 0.36429 0.0
H189 H 0.5529 0.02944 0.2898 0.0
H190 H 0.63188 0.94787 0.3478 0.0
C191 C 0.70288 0.17162 0.29772 0.0
C192 C 0.74437 0.17467 0.29976 0.0
C193 C 0.74947 0.10344 0.29682 0.0
C194 C 0.70846 0.10088 0.30366 0.0
N195 N 0.68619 0.13525 0.30457 0.0
N196 N 0.76677 0.14031 0.29616 0.0
H197 H 0.68471 0.19851 0.29989 0.0
C198 C 0.71594 0.98403 0.33824 0.0
O199 O 0.72403 0.01755 0.35757 0.0
O200 O 0.61726 0.19607 0.32445 0.0
H201 H 0.69485 0.07195 0.30851 0.0
H202 H 0.49524 0.98303 0.30331 0.0
H203 H 0.76764 0.07669 0.29433 0.0
Zn204 Zn 0.3694 0.63122 0.31707 0.0
C205 C 0.44576 0.64752 0.23021 0.0
N206 N 0.41424 0.63975 0.20588 0.0
C207 C 0.3877 0.62106 0.23057 0.0
N208 N 0.40272 0.61707 0.26884 0.0
N209 N 0.43982 0.63285 0.26753 0.0
C210 C 0.51951 0.71594 0.33826 0.0
O211 O 0.48601 0.72401 0.35762 0.0
O212 O 0.30748 0.61722 0.3245 0.0
Zn213 Zn 0.47959 0.64087 0.3116 0.0
N214 N 0.36827 0.68617 0.30466 0.0
C215 C 0.40008 0.74946 0.29695 0.0
C216 C 0.40265 0.70844 0.30375 0.0
C217 C 0.33191 0.70286 0.29783 0.0
N218 N 0.36321 0.76675 0.2963 0.0
C219 C 0.32885 0.74435 0.29987 0.0
O220 O 0.4566 0.64685 0.36432 0.0
C221 C 0.42722 0.64326 0.3878 0.0
O222 O 0.39273 0.63245 0.37485 0.0
H223 H 0.43157 0.69483 0.30858 0.0
H224 H 0.30503 0.68467 0.29998 0.0
C225 C 0.54818 0.60181 0.33803 0.0
C226 C 0.57449 0.56992 0.34521 0.0
C227 C 0.52823 0.52539 0.31305 0.0
C228 C 0.50242 0.55759 0.3053 0.0
N229 N 0.51317 0.59501 0.31779 0.0
N230 N 0.56367 0.53237 0.33237 0.0
H231 H 0.5557 0.6319 0.34778 0.0
C232 C 0.29058 0.59778 0.35336 0.0
O233 O 0.30609 0.56269 0.36298 0.0
O234 O 0.51987 0.68812 0.31151 0.0
H235 H 0.4741 0.5529 0.28985 0.0
H236 H 0.42683 0.76764 0.29449 0.0
H237 H 0.52051 0.49524 0.30335 0.0
Zn238 Zn 0.87234 0.3694 0.31704 0.0
C239 C 0.85604 0.44579 0.23019 0.0
N240 N 0.86381 0.41427 0.20585 0.0
C241 C 0.88249 0.38771 0.23053 0.0
N242 N 0.88648 0.40273 0.26881 0.0
N243 N 0.87071 0.43984 0.2675 0.0
C244 C 0.7876 0.51951 0.33823 0.0
O245 O 0.77953 0.486 0.35758 0.0
O246 O 0.88635 0.30749 0.32444 0.0
Zn247 Zn 0.86269 0.4796 0.31158 0.0
N248 N 0.81739 0.36828 0.30464 0.0
C249 C 0.7541 0.40009 0.29693 0.0
C250 C 0.79512 0.40266 0.30372 0.0
C251 C 0.80069 0.33191 0.29783 0.0
N252 N 0.73681 0.36322 0.29628 0.0
C253 C 0.7592 0.32886 0.29987 0.0
O254 O 0.8567 0.4566 0.36429 0.0
C255 C 0.8603 0.42722 0.38777 0.0
O256 O 0.87112 0.39273 0.37482 0.0
H257 H 0.80874 0.43158 0.30854 0.0
H258 H 0.81887 0.30503 0.29999 0.0
C259 C 0.90175 0.54819 0.33801 0.0
C260 C 0.93363 0.57449 0.3452 0.0
C261 C 0.97816 0.52823 0.31304 0.0
C262 C 0.94596 0.50243 0.30528 0.0
N263 N 0.90854 0.51318 0.31777 0.0
N264 N 0.97118 0.56367 0.33236 0.0
H265 H 0.87166 0.55571 0.34776 0.0
C266 C 0.90578 0.29055 0.35329 0.0
O267 O 0.9409 0.306 0.36289 0.0
O268 O 0.81543 0.51987 0.31148 0.0
H269 H 0.95065 0.47411 0.28983 0.0
H270 H 0.73593 0.42684 0.29445 0.0
H271 H 0.00832 0.52051 0.30334 0.0
Zn272 Zn 0.19198 0.02401 0.64089 0.0
C273 C 0.27298 0.11588 0.62104 0.0
N274 N 0.29768 0.08936 0.63975 0.0
C275 C 0.27334 0.05786 0.64758 0.0
N276 N 0.23603 0.06381 0.63293 0.0
N277 N 0.23469 0.10087 0.61706 0.0
C278 C 0.15018 0.21305 0.59768 0.0
O279 O 0.14048 0.19761 0.56258 0.0
O280 O 0.19202 0.98377 0.68818 0.0
Zn281 Zn 0.18642 0.13418 0.63111 0.0
N282 N 0.18592 0.99037 0.59506 0.0
C283 C 0.19084 0.97524 0.52547 0.0
C284 C 0.1985 1.00108 0.55766 0.0
C285 C 0.16569 0.95535 0.60184 0.0
N286 N 0.17152 0.9398 0.53243 0.0
C287 C 0.1586 0.92901 0.56997 0.0
O288 O 0.12865 0.11082 0.63224 0.0
C289 C 0.11573 0.07633 0.6431 0.0
O290 O 0.13923 0.04698 0.64676 0.0
H291 H 0.21395 0.02941 0.55298 0.0
H292 H 0.15586 0.94786 0.63191 0.0
C293 C 0.2054 0.17176 0.70277 0.0
C294 C 0.20334 0.17485 0.74426 0.0
C295 C 0.20618 0.10362 0.74945 0.0
C296 C 0.19954 0.10101 0.7084 0.0
N297 N 0.19868 0.13536 0.68609 0.0
N298 N 0.20679 0.14051 0.7667 0.0
H299 H 0.20328 0.19863 0.68457 0.0
C300 C 0.16522 0.98411 0.71596 0.0
O301 O 0.1458 0.0176 0.72398 0.0
O302 O 0.17908 0.19609 0.61703 0.0
H303 H 0.19479 0.07207 0.6948 0.0
H304 H 0.20061 0.98293 0.49533 0.0
H305 H 0.20856 0.07689 0.76766 0.0
Zn306 Zn 0.47955 0.19199 0.64089 0.0
C307 C 0.38768 0.27301 0.62104 0.0
N308 N 0.4142 0.2977 0.63975 0.0
C309 C 0.4457 0.27336 0.64758 0.0
N310 N 0.43975 0.23605 0.63292 0.0
N311 N 0.40268 0.23472 0.61705 0.0
C312 C 0.29055 0.15017 0.59769 0.0
O313 O 0.30608 0.1403 0.56267 0.0
O314 O 0.51976 0.19201 0.6882 0.0
Zn315 Zn 0.36938 0.18644 0.6311 0.0
N316 N 0.5132 0.18596 0.59506 0.0
C317 C 0.52834 0.1909 0.52548 0.0
C318 C 0.50249 0.19855 0.55767 0.0
C319 C 0.54822 0.16575 0.60185 0.0
N320 N 0.56378 0.17159 0.53245 0.0
C321 C 0.57457 0.15866 0.56998 0.0
O322 O 0.39273 0.12867 0.63219 0.0
C323 C 0.42723 0.11574 0.64303 0.0
O324 O 0.45658 0.13924 0.64671 0.0
H325 H 0.47416 0.21399 0.55298 0.0
H326 H 0.55571 0.15591 0.63192 0.0
C327 C 0.33181 0.20539 0.70277 0.0
C328 C 0.32872 0.20333 0.74426 0.0
C329 C 0.39996 0.20616 0.74943 0.0
C330 C 0.40256 0.19954 0.70838 0.0
N331 N 0.3682 0.19868 0.68608 0.0
N332 N 0.36307 0.20678 0.76669 0.0
H333 H 0.30494 0.20327 0.68457 0.0
C334 C 0.51941 0.16517 0.71596 0.0
O335 O 0.48593 0.14574 0.72394 0.0
O336 O 0.30747 0.1791 0.61701 0.0
H337 H 0.43149 0.19479 0.69478 0.0
H338 H 0.52066 0.20068 0.49534 0.0
H339 H 0.42669 0.20854 0.76764 0.0
Zn340 Zn 0.31157 0.47956 0.64089 0.0
C341 C 0.23055 0.3877 0.62104 0.0
N342 N 0.20586 0.41422 0.63975 0.0
C343 C 0.2302 0.44572 0.64758 0.0
N344 N 0.26751 0.43976 0.63293 0.0
N345 N 0.26884 0.4027 0.61706 0.0
C346 C 0.3534 0.29058 0.59768 0.0
O347 O 0.36328 0.30613 0.56268 0.0
O348 O 0.31154 0.51979 0.68819 0.0
Zn349 Zn 0.31712 0.36939 0.6311 0.0
N350 N 0.31761 0.5132 0.59506 0.0
C351 C 0.31267 0.52834 0.52548 0.0
C352 C 0.30503 0.50249 0.55767 0.0
C353 C 0.33783 0.54823 0.60185 0.0
N354 N 0.33198 0.56379 0.53244 0.0
C355 C 0.3449 0.57458 0.56998 0.0
O356 O 0.37489 0.39275 0.63223 0.0
C357 C 0.38782 0.42724 0.64308 0.0
O358 O 0.36432 0.45659 0.64675 0.0
H359 H 0.28959 0.47416 0.55298 0.0
H360 H 0.34766 0.55572 0.63192 0.0
C361 C 0.29816 0.33181 0.70277 0.0
C362 C 0.30022 0.32872 0.74426 0.0
C363 C 0.29737 0.39995 0.74944 0.0
C364 C 0.304 0.40256 0.70839 0.0
N365 N 0.30487 0.36821 0.68609 0.0
N366 N 0.29676 0.36307 0.7667 0.0
H367 H 0.3003 0.30494 0.68457 0.0
C368 C 0.33836 0.51944 0.71596 0.0
O369 O 0.35777 0.48595 0.72396 0.0
O370 O 0.32447 0.30749 0.61701 0.0
H371 H 0.30874 0.4315 0.69479 0.0
H372 H 0.3029 0.52066 0.49534 0.0
H373 H 0.29498 0.42668 0.76766 0.0
Zn374 Zn 0.02399 0.31159 0.64089 0.0
C375 C 0.11581 0.23056 0.62095 0.0
N376 N 0.08931 0.20586 0.63967 0.0
C377 C 0.05783 0.2302 0.64753 0.0
N378 N 0.06378 0.26753 0.63291 0.0
N379 N 0.10084 0.26887 0.61703 0.0
C380 C 0.21298 0.35342 0.59768 0.0
O381 O 0.19744 0.36331 0.56267 0.0
O382 O 0.98375 0.31155 0.68819 0.0
Zn383 Zn 0.13415 0.31714 0.63109 0.0
N384 N 0.99036 0.31766 0.59506 0.0
C385 C 0.97524 0.31277 0.52547 0.0
C386 C 1.00107 0.3051 0.55766 0.0
C387 C 0.95534 0.33789 0.60185 0.0
N388 N 0.9398 0.33209 0.53243 0.0
C389 C 0.929 0.34499 0.56997 0.0
O390 O 0.1108 0.37491 0.63222 0.0
C391 C 0.07632 0.38784 0.64309 0.0
O392 O 0.04697 0.36433 0.64676 0.0
H393 H 0.0294 0.28965 0.55298 0.0
H394 H 0.94784 0.3477 0.63192 0.0
C395 C 0.17173 0.29817 0.70274 0.0
C396 C 0.17483 0.30023 0.74424 0.0
C397 C 0.1036 0.29738 0.74943 0.0
C398 C 0.10099 0.30401 0.70838 0.0
N399 N 0.13534 0.30487 0.68607 0.0
N400 N 0.14048 0.29677 0.76668 0.0
H401 H 0.1986 0.3003 0.68455 0.0
C402 C 0.9841 0.33836 0.71596 0.0
O403 O 0.01759 0.35777 0.72397 0.0
O404 O 0.19606 0.32449 0.61699 0.0
H405 H 0.07205 0.30875 0.69478 0.0
H406 H 0.98293 0.30301 0.49532 0.0
H407 H 0.07687 0.295 0.76764 0.0
Zn408 Zn 0.1866 0.36935 0.87226 0.0
C409 C 0.2734 0.4458 0.85614 0.0
N410 N 0.29774 0.41428 0.86388 0.0
C411 C 0.27306 0.3877 0.88252 0.0
N412 N 0.23478 0.40269 0.88651 0.0
N413 N 0.23609 0.43982 0.87079 0.0
C414 C 0.16535 0.51946 0.78761 0.0
O415 O 0.14602 0.48594 0.77953 0.0
O416 O 0.17911 0.30743 0.88619 0.0
Zn417 Zn 0.19202 0.47958 0.86273 0.0
N418 N 0.19915 0.36828 0.81734 0.0
C419 C 0.20716 0.40018 0.75412 0.0
C420 C 0.20013 0.40268 0.79512 0.0
C421 C 0.2061 0.33194 0.80063 0.0
N422 N 0.20789 0.36333 0.73677 0.0
C423 C 0.20415 0.32897 0.75912 0.0
O424 O 0.13931 0.45659 0.85673 0.0
C425 C 0.11585 0.42719 0.86023 0.0
O426 O 0.12882 0.39267 0.87094 0.0
H427 H 0.1952 0.43158 0.80874 0.0
H428 H 0.20386 0.30503 0.81876 0.0
C429 C 0.16563 0.5482 0.90177 0.0
C430 C 0.15847 0.57452 0.93365 0.0
C431 C 0.19059 0.52824 0.97819 0.0
C432 C 0.19832 0.50243 0.94599 0.0
N433 N 0.18584 0.51317 0.90857 0.0
N434 N 0.1713 0.5637 0.97121 0.0
H435 H 0.15588 0.55572 0.87168 0.0
C436 C 0.15028 0.29058 0.90572 0.0
O437 O 0.14075 0.30615 0.94081 0.0
O438 O 0.1921 0.51983 0.81545 0.0
H439 H 0.21375 0.4741 0.95069 0.0
H440 H 0.20975 0.42696 0.73601 0.0
H441 H 0.20029 0.52053 0.00835 0.0
Zn442 Zn 0.13419 0.18659 0.87226 0.0
C443 C 0.05775 0.27341 0.85617 0.0
N444 N 0.08926 0.29776 0.86395 0.0
C445 C 0.11582 0.27306 0.8826 0.0
N446 N 0.10084 0.23476 0.88653 0.0
N447 N 0.06373 0.23608 0.87079 0.0
C448 C 0.9841 0.16536 0.78759 0.0
O449 O 0.01762 0.14603 0.7795 0.0
O450 O 0.1961 0.17908 0.8862 0.0
Zn451 Zn 0.02397 0.19201 0.86271 0.0
N452 N 0.13527 0.19916 0.81735 0.0
C453 C 0.10338 0.20717 0.75412 0.0
C454 C 0.10087 0.20014 0.79512 0.0
C455 C 0.17161 0.20611 0.80065 0.0
N456 N 0.14023 0.20791 0.73678 0.0
C457 C 0.17459 0.20417 0.75914 0.0
O458 O 0.04696 0.1393 0.8567 0.0
C459 C 0.07636 0.11584 0.8602 0.0
O460 O 0.11087 0.12881 0.87093 0.0
H461 H 0.07197 0.1952 0.80874 0.0
H462 H 0.19852 0.20388 0.81879 0.0
C463 C 0.95533 0.16565 0.90175 0.0
C464 C 0.92901 0.15849 0.93363 0.0
C465 C 0.97531 0.19057 0.97817 0.0
C466 C 1.00113 0.1983 0.94598 0.0
N467 N 0.99037 0.18583 0.90855 0.0
N468 N 0.93985 0.1713 0.97119 0.0
H469 H 0.94781 0.15591 0.87166 0.0
C470 C 0.21292 0.15024 0.90574 0.0
O471 O 0.19728 0.14068 0.94079 0.0
O472 O 0.98373 0.19211 0.81543 0.0
H473 H 0.02947 0.21372 0.95067 0.0
H474 H 0.07661 0.20975 0.736 0.0
H475 H 0.98303 0.20026 0.00833 0.0
Zn476 Zn 0.31153 0.02398 0.86273 0.0
C477 C 0.23047 0.11579 0.88263 0.0
N478 N 0.20579 0.08924 0.86395 0.0
C479 C 0.23014 0.05775 0.85615 0.0
N480 N 0.26746 0.06376 0.87077 0.0
N481 N 0.26879 0.10085 0.88658 0.0
C482 C 0.35327 0.21296 0.90573 0.0
O483 O 0.36287 0.19733 0.94078 0.0
O484 O 0.31147 0.98375 0.81544 0.0
Zn485 Zn 0.31695 0.13419 0.87228 0.0
N486 N 0.31768 0.99037 0.90856 0.0
C487 C 0.31287 0.97528 0.97817 0.0
C488 C 0.30516 1.00111 0.94598 0.0
C489 C 0.33787 0.95534 0.90176 0.0
N490 N 0.33216 0.93983 0.97119 0.0
C491 C 0.34501 0.92901 0.93364 0.0
O492 O 0.37473 0.11089 0.87097 0.0
C493 C 0.3877 0.07637 0.86026 0.0
O494 O 0.36424 0.04697 0.85675 0.0
H495 H 0.28973 0.02944 0.95068 0.0
H496 H 0.34764 0.94783 0.87168 0.0
C497 C 0.29746 0.17162 0.80065 0.0
C498 C 0.2994 0.17459 0.75914 0.0
C499 C 0.29638 0.10338 0.75414 0.0
C500 C 0.30341 0.10087 0.79513 0.0
N501 N 0.30439 0.13527 0.81736 0.0
N502 N 0.29565 0.14023 0.73679 0.0
H503 H 0.2997 0.19853 0.81877 0.0
C504 C 0.33824 0.98413 0.78762 0.0
O505 O 0.35756 0.01766 0.77955 0.0
O506 O 0.32443 0.19611 0.88622 0.0
H507 H 0.30835 0.07197 0.80875 0.0
H508 H 0.30315 0.98298 0.00833 0.0
H509 H 0.29379 0.0766 0.73602 0.0
Zn510 Zn 0.36936 0.31695 0.87229 0.0
C511 C 0.44581 0.23014 0.85619 0.0
N512 N 0.4143 0.20579 0.86396 0.0
C513 C 0.38774 0.23048 0.88261 0.0
N514 N 0.40271 0.26878 0.88655 0.0
N515 N 0.43983 0.26746 0.87081 0.0
C516 C 0.51945 0.33818 0.78761 0.0
O517 O 0.48592 0.3575 0.77952 0.0
O518 O 0.30745 0.32445 0.88623 0.0
Zn519 Zn 0.47958 0.31153 0.86274 0.0
N520 N 0.36828 0.30439 0.81737 0.0
C521 C 0.40017 0.29637 0.75414 0.0
C522 C 0.40268 0.3034 0.79514 0.0
C523 C 0.33193 0.29746 0.80066 0.0
N524 N 0.36333 0.29565 0.7368 0.0
C525 C 0.32896 0.2994 0.75915 0.0
O526 O 0.45658 0.36423 0.85672 0.0
C527 C 0.42719 0.3877 0.86022 0.0
O528 O 0.39267 0.37473 0.87095 0.0
H529 H 0.43158 0.30832 0.80876 0.0
H530 H 0.30503 0.29971 0.81879 0.0
C531 C 0.5482 0.33793 0.90177 0.0
C532 C 0.57452 0.34512 0.93365 0.0
C533 C 0.52822 0.31303 0.9782 0.0
C534 C 0.50242 0.30528 0.946 0.0
N535 N 0.51318 0.31773 0.90858 0.0
N536 N 0.56368 0.33231 0.97122 0.0
H537 H 0.55574 0.34766 0.87167 0.0
C538 C 0.29064 0.35332 0.90573 0.0
O539 O 0.30631 0.36304 0.94073 0.0
O540 O 0.51983 0.31144 0.81545 0.0
H541 H 0.47408 0.28986 0.9507 0.0
H542 H 0.42695 0.29378 0.73603 0.0
H543 H 0.5205 0.30336 0.00837 0.0
Zn544 Zn 0.64085 0.19199 0.02398 0.0
C545 C 0.62094 0.27303 0.1158 0.0
N546 N 0.63963 0.29773 0.08928 0.0
C547 C 0.64745 0.27338 0.05779 0.0
N548 N 0.63284 0.23605 0.06377 0.0
N549 N 0.617 0.23472 0.10085 0.0
C550 C 0.59776 0.15012 0.21293 0.0
O551 O 0.56282 0.14027 0.19724 0.0
O552 O 0.68814 0.19203 0.98374 0.0
Zn553 Zn 0.63117 0.1865 0.13418 0.0
N554 N 0.59502 0.18586 0.99037 0.0
C555 C 0.52541 0.19064 0.97528 0.0
C556 C 0.5576 0.19837 1.0011 0.0
C557 C 0.60182 0.16563 0.95535 0.0
N558 N 0.53239 0.17133 0.93984 0.0
C559 C 0.56994 0.15847 0.92903 0.0
O560 O 0.63239 0.12873 0.11084 0.0
C561 C 0.64318 0.11578 0.07634 0.0
O562 O 0.64677 0.13926 0.04696 0.0
H563 H 0.55291 0.21381 0.02943 0.0
H564 H 0.6319 0.15586 0.94784 0.0
C565 C 0.70282 0.20575 0.17167 0.0
C566 C 0.74432 0.20379 0.17468 0.0
C567 C 0.7494 0.2067 0.10346 0.0
C568 C 0.70838 0.19984 0.10092 0.0
N569 N 0.68612 0.19891 0.1353 0.0
N570 N 0.76671 0.20739 0.14032 0.0
H571 H 0.68467 0.20354 0.19857 0.0
C572 C 0.71594 0.16524 0.98411 0.0
O573 O 0.72399 0.14589 0.01762 0.0
O574 O 0.61718 0.17904 0.19609 0.0
H575 H 0.69476 0.19499 0.072 0.0
H576 H 0.49526 0.20035 0.98299 0.0
H577 H 0.76755 0.20919 0.0767 0.0
Zn578 Zn 0.63119 0.31704 0.36938 0.0
C579 C 0.64748 0.23018 0.44578 0.0
N580 N 0.63969 0.20583 0.41427 0.0
C581 C 0.621 0.23052 0.38773 0.0
N582 N 0.61706 0.26881 0.40271 0.0
N583 N 0.63284 0.2675 0.43981 0.0
C584 C 0.71594 0.33826 0.51948 0.0
O585 O 0.724 0.35761 0.48596 0.0
O586 O 0.61716 0.32448 0.30748 0.0
Zn587 Zn 0.64086 0.31156 0.47959 0.0
N588 N 0.68613 0.30463 0.36823 0.0
C589 C 0.74942 0.29684 0.40005 0.0
C590 C 0.7084 0.30369 0.40261 0.0
C591 C 0.70282 0.29779 0.33185 0.0
N592 N 0.76672 0.29615 0.36318 0.0
C593 C 0.74432 0.29976 0.32883 0.0
O594 O 0.64682 0.36429 0.4566 0.0
C595 C 0.64325 0.38777 0.42722 0.0
O596 O 0.63245 0.37482 0.39272 0.0
H597 H 0.69479 0.30854 0.43153 0.0
H598 H 0.68465 0.3 0.30497 0.0
C599 C 0.60181 0.33785 0.54824 0.0
C600 C 0.56993 0.34495 0.57458 0.0
C601 C 0.52542 0.31281 0.52829 0.0
C602 C 0.55762 0.30514 0.50245 0.0
N603 N 0.59502 0.31767 0.51319 0.0
N604 N 0.53239 0.33208 0.56375 0.0
H605 H 0.63189 0.34764 0.55575 0.0
C606 C 0.59772 0.35337 0.29064 0.0
O607 O 0.56272 0.36314 0.30626 0.0
O608 O 0.68814 0.31148 0.51984 0.0
H609 H 0.55293 0.28973 0.47411 0.0
H610 H 0.76758 0.29435 0.42681 0.0
H611 H 0.49528 0.30307 0.52057 0.0
Zn612 Zn 0.192 0.64089 0.47957 0.0
C613 C 0.27304 0.62099 0.38775 0.0
N614 N 0.29772 0.6397 0.41428 0.0
C615 C 0.27337 0.64753 0.44576 0.0
N616 N 0.23605 0.6329 0.43978 0.0
N617 N 0.23472 0.61705 0.40271 0.0
C618 C 0.1502 0.59773 0.2906 0.0
O619 O 0.14038 0.56273 0.30619 0.0
O620 O 0.19206 0.68816 0.51983 0.0
Zn621 Zn 0.1865 0.63119 0.36937 0.0
N622 N 0.18591 0.59505 0.51319 0.0
C623 C 0.19084 0.52546 0.52831 0.0
C624 C 0.19848 0.55765 0.50246 0.0
C625 C 0.16573 0.60184 0.54823 0.0
N626 N 0.17156 0.53243 0.56377 0.0
C627 C 0.15866 0.56996 0.57458 0.0
O628 O 0.12873 0.63243 0.39271 0.0
C629 C 0.11578 0.64324 0.42721 0.0
O630 O 0.13927 0.64683 0.45659 0.0
H631 H 0.21391 0.55297 0.47412 0.0
H632 H 0.15591 0.63191 0.55573 0.0
C633 C 0.2057 0.70281 0.33181 0.0
C634 C 0.20371 0.74431 0.32877 0.0
C635 C 0.2066 0.74946 0.39999 0.0
C636 C 0.1998 0.70843 0.40257 0.0
N637 N 0.1989 0.68614 0.3682 0.0
N638 N 0.20728 0.76673 0.36311 0.0
H639 H 0.20351 0.68464 0.30493 0.0
C640 C 0.16527 0.71596 0.51947 0.0
O641 O 0.14591 0.72401 0.48595 0.0
O642 O 0.17911 0.61712 0.30748 0.0
H643 H 0.19497 0.69483 0.4315 0.0
H644 H 0.2006 0.49532 0.52061 0.0
H645 H 0.20906 0.76764 0.42673 0.0
Zn646 Zn 0.87237 0.18652 0.36935 0.0
C647 C 0.85608 0.2734 0.44575 0.0
N648 N 0.86389 0.29775 0.41424 0.0
C649 C 0.88256 0.27304 0.3877 0.0
N650 N 0.88648 0.23475 0.40269 0.0
N651 N 0.8707 0.23607 0.43979 0.0
C652 C 0.78759 0.16532 0.51946 0.0
O653 O 0.77954 0.14595 0.48595 0.0
O654 O 0.88642 0.17911 0.30745 0.0
Zn655 Zn 0.86267 0.19201 0.47957 0.0
N656 N 0.81742 0.19891 0.36818 0.0
C657 C 0.75412 0.20664 0.39999 0.0
C658 C 0.79515 0.19983 0.40256 0.0
C659 C 0.80074 0.20572 0.33181 0.0
N660 N 0.73683 0.20732 0.36312 0.0
C661 C 0.75924 0.20373 0.32877 0.0
O662 O 0.85673 0.13929 0.45658 0.0
C663 C 0.86032 0.1158 0.4272 0.0
O664 O 0.87112 0.12875 0.3927 0.0
H665 H 0.80875 0.195 0.43148 0.0
H666 H 0.81892 0.20353 0.30493 0.0
C667 C 0.90172 0.16573 0.54822 0.0
C668 C 0.9336 0.15863 0.57456 0.0
C669 C 0.97811 0.19076 0.52827 0.0
C670 C 0.94592 0.19843 0.50244 0.0
N671 N 0.90851 0.18591 0.51318 0.0
N672 N 0.97114 0.17149 0.56373 0.0
H673 H 0.87164 0.15594 0.55574 0.0
C674 C 0.90583 0.15021 0.29057 0.0
O675 O 0.94087 0.14045 0.30611 0.0
O676 O 0.81539 0.1921 0.51981 0.0
H677 H 0.9506 0.21385 0.47409 0.0
H678 H 0.73595 0.20911 0.42674 0.0
H679 H 0.00826 0.20049 0.52055 0.0
Zn680 Zn 0.31153 0.86269 0.47957 0.0
C681 C 0.23049 0.88258 0.38775 0.0
N682 N 0.2058 0.86388 0.41428 0.0
C683 C 0.23016 0.85607 0.44577 0.0
N684 N 0.26748 0.8707 0.43978 0.0
N685 N 0.2688 0.88653 0.4027 0.0
C686 C 0.35337 0.90582 0.29064 0.0
O687 O 0.36319 0.94078 0.30632 0.0
O688 O 0.31146 0.81542 0.51983 0.0
Zn689 Zn 0.31702 0.87235 0.36937 0.0
N690 N 0.31763 0.90853 0.51318 0.0
C691 C 0.31271 0.97813 0.5283 0.0
C692 C 0.30506 0.94593 0.50246 0.0
C693 C 0.33783 0.90175 0.54822 0.0
N694 N 0.33199 0.97116 0.56376 0.0
C695 C 0.3449 0.93363 0.57457 0.0
O696 O 0.37479 0.87109 0.39271 0.0
C697 C 0.38774 0.86029 0.42721 0.0
O698 O 0.36426 0.85673 0.4566 0.0
H699 H 0.28963 0.95061 0.47412 0.0
H700 H 0.34764 0.87168 0.55572 0.0
C701 C 0.29776 0.80073 0.33185 0.0
C702 C 0.29973 0.75923 0.32882 0.0
C703 C 0.2968 0.75412 0.40004 0.0
C704 C 0.30365 0.79514 0.4026 0.0
N705 N 0.30458 0.81741 0.36822 0.0
N706 N 0.29611 0.73683 0.36317 0.0
H707 H 0.29997 0.81889 0.30495 0.0
C708 C 0.33823 0.78761 0.51947 0.0
O709 O 0.35757 0.77954 0.48596 0.0
O710 O 0.32446 0.88638 0.30747 0.0
H711 H 0.30851 0.80875 0.43152 0.0
H712 H 0.30294 0.00827 0.5206 0.0
H713 H 0.2943 0.73596 0.42679 0.0
Zn714 Zn 0.86268 0.31157 0.02398 0.0
C715 C 0.88261 0.23054 0.1158 0.0
N716 N 0.86391 0.20583 0.08929 0.0
C717 C 0.85608 0.23018 0.0578 0.0
N718 N 0.87069 0.26751 0.06377 0.0
N719 N 0.88654 0.26884 0.10084 0.0
C720 C 0.90578 0.35339 0.21296 0.0
O721 O 0.94077 0.36323 0.19735 0.0
O722 O 0.8154 0.31151 0.98372 0.0
Zn723 Zn 0.87237 0.31706 0.13418 0.0
N724 N 0.90852 0.31772 0.99039 0.0
C725 C 0.97814 0.31297 0.97532 0.0
C726 C 0.94594 0.30522 1.00113 0.0
C727 C 0.90172 0.33795 0.95537 0.0
N728 N 0.97116 0.33228 0.93987 0.0
C729 C 0.93361 0.34512 0.92905 0.0
O730 O 0.87113 0.37484 0.11084 0.0
C731 C 0.86032 0.38778 0.07634 0.0
O732 O 0.85673 0.36429 0.04697 0.0
H733 H 0.95063 0.28978 0.02946 0.0
H734 H 0.87164 0.34771 0.94785 0.0
C735 C 0.80074 0.29782 0.1717 0.0
C736 C 0.75924 0.29979 0.17474 0.0
C737 C 0.75412 0.2969 0.10352 0.0
C738 C 0.79514 0.30373 0.10095 0.0
N739 N 0.81742 0.30465 0.13533 0.0
N740 N 0.73683 0.29621 0.14039 0.0
H741 H 0.8189 0.30001 0.19859 0.0
C742 C 0.78759 0.33829 0.98409 0.0
O743 O 0.77953 0.35763 0.01761 0.0
O744 O 0.8864 0.32448 0.19609 0.0
H745 H 0.80875 0.30857 0.07203 0.0
H746 H 0.00829 0.30326 0.98303 0.0
H747 H 0.73595 0.29444 0.07677 0.0
Zn748 Zn 0.19198 0.86271 0.02398 0.0
C749 C 0.27302 0.88261 0.11581 0.0
N750 N 0.29771 0.86391 0.08929 0.0
C751 C 0.27336 0.85609 0.0578 0.0
N752 N 0.23605 0.87072 0.06377 0.0
N753 N 0.23471 0.88656 0.10085 0.0
C754 C 0.15012 0.90578 0.21292 0.0
O755 O 0.14027 0.94073 0.19722 0.0
O756 O 0.19202 0.81541 0.98375 0.0
Zn757 Zn 0.1865 0.87237 0.13418 0.0
N758 N 0.18586 0.90854 0.99037 0.0
C759 C 0.19064 0.97815 0.97528 0.0
C760 C 0.19837 0.94595 1.00111 0.0
C761 C 0.16564 0.90174 0.95535 0.0
N762 N 0.17133 0.97116 0.93984 0.0
C763 C 0.15848 0.93361 0.92902 0.0
O764 O 0.12873 0.87115 0.11085 0.0
C765 C 0.11578 0.86037 0.07634 0.0
O766 O 0.13926 0.85679 0.04697 0.0
H767 H 0.2138 0.95065 0.02944 0.0
H768 H 0.15587 0.87165 0.94784 0.0
C769 C 0.20577 0.80073 0.17167 0.0
C770 C 0.20381 0.75923 0.17467 0.0
C771 C 0.20674 0.75416 0.10345 0.0
C772 C 0.19986 0.79517 0.10092 0.0
N773 N 0.19893 0.81743 0.1353 0.0
N774 N 0.20744 0.73684 0.14032 0.0
H775 H 0.20357 0.81887 0.19857 0.0
C776 C 0.16523 0.78761 0.98413 0.0
O777 O 0.14588 0.77958 0.01765 0.0
O778 O 0.17904 0.88636 0.1961 0.0
H779 H 0.19499 0.80879 0.072 0.0
H780 H 0.20035 0.0083 0.98299 0.0
H781 H 0.20924 0.73601 0.07669 0.0
Zn782 Zn 0.31707 0.63115 0.1342 0.0
C783 C 0.23017 0.64744 0.05782 0.0
N784 N 0.20583 0.63962 0.08934 0.0
C785 C 0.23054 0.62094 0.11587 0.0
N786 N 0.26883 0.61703 0.10086 0.0
N787 N 0.2675 0.63282 0.06377 0.0
C788 C 0.33829 0.71595 0.98411 0.0
O789 O 0.35767 0.72398 0.01762 0.0
O790 O 0.32448 0.61713 0.19611 0.0
Zn791 Zn 0.31157 0.64085 0.02399 0.0
N792 N 0.30469 0.6861 0.13534 0.0
C793 C 0.29694 0.74939 0.10351 0.0
C794 C 0.30377 0.70836 0.10096 0.0
C795 C 0.29787 0.7028 0.17172 0.0
N796 N 0.29625 0.7667 0.14038 0.0
C797 C 0.29983 0.7443 0.17473 0.0
O798 O 0.36429 0.64677 0.04698 0.0
C799 C 0.38778 0.64316 0.07635 0.0
O800 O 0.37484 0.63235 0.11085 0.0
H801 H 0.3086 0.69475 0.07204 0.0
H802 H 0.30006 0.68463 0.1986 0.0
C803 C 0.33793 0.60182 0.95535 0.0
C804 C 0.34511 0.56994 0.92904 0.0
C805 C 0.31298 0.5254 0.97531 0.0
C806 C 0.30523 0.5576 1.00112 0.0
N807 N 0.31771 0.59502 0.99038 0.0
N808 N 0.33228 0.53238 0.93987 0.0
H809 H 0.34768 0.63191 0.94784 0.0
C810 C 0.35339 0.59774 0.213 0.0
O811 O 0.36318 0.56271 0.19745 0.0
O812 O 0.31151 0.68814 0.98375 0.0
H813 H 0.2898 0.5529 0.02945 0.0
H814 H 0.29447 0.76755 0.07676 0.0
H815 H 0.30329 0.49524 0.98303 0.0
Zn816 Zn 0.86935 0.3724 0.81708 0.0
C817 C 0.94575 0.35616 0.73019 0.0
N818 N 0.91423 0.36392 0.70586 0.0
C819 C 0.88766 0.38256 0.73056 0.0
N820 N 0.90267 0.38651 0.76884 0.0
N821 N 0.93978 0.37076 0.76753 0.0
C822 C 0.0194 0.28763 0.83837 0.0
O823 O 0.98592 0.27964 0.85781 0.0
O824 O 0.80744 0.3864 0.82448 0.0
Zn825 Zn 0.97956 0.36273 0.81159 0.0
N826 N 0.86824 0.31744 0.80471 0.0
C827 C 0.90008 0.25416 0.79698 0.0
C828 C 0.90262 0.29519 0.80379 0.0
C829 C 0.83187 0.30073 0.79791 0.0
N830 N 0.86322 0.23685 0.79634 0.0
C831 C 0.82885 0.25923 0.79994 0.0
O832 O 0.95658 0.35686 0.86433 0.0
C833 C 0.9272 0.36046 0.88781 0.0
O834 O 0.89269 0.37121 0.87486 0.0
H835 H 0.93154 0.30881 0.80861 0.0
H836 H 0.80499 0.31889 0.80009 0.0
C837 C 0.04826 0.40173 0.8378 0.0
C838 C 0.07462 0.4336 0.84489 0.0
C839 C 0.02834 0.47813 0.81277 0.0
C840 C 0.00248 0.44595 0.80511 0.0
N841 N 0.01321 0.40853 0.81764 0.0
N842 N 0.06381 0.47114 0.83202 0.0
H843 H 0.05577 0.37165 0.84759 0.0
C844 C 0.79052 0.40584 0.85333 0.0
O845 O 0.80599 0.44096 0.86292 0.0
O846 O 0.01975 0.3154 0.81155 0.0
H847 H 0.97413 0.45064 0.78972 0.0
H848 H 0.92683 0.23601 0.79449 0.0
H849 H 0.02064 0.50828 0.80304 0.0
Zn850 Zn 0.14084 0.97955 0.81156 0.0
C851 C 0.12099 0.88771 0.73053 0.0
N852 N 0.13964 0.91426 0.70584 0.0
C853 C 0.14743 0.94576 0.73019 0.0
N854 N 0.13283 0.93976 0.76751 0.0
N855 N 0.11701 0.90268 0.76884 0.0
C856 C 0.09776 0.7905 0.8533 0.0
O857 O 0.06265 0.80598 0.86291 0.0
O858 O 0.18816 0.01976 0.81153 0.0
Zn859 Zn 0.13119 0.86936 0.81706 0.0
N860 N 0.09503 0.0132 0.81762 0.0
C861 C 0.02544 0.02834 0.8127 0.0
C862 C 0.05762 0.00248 0.80506 0.0
C863 C 0.10183 0.04825 0.83778 0.0
N864 N 0.03241 0.0638 0.83196 0.0
C865 C 0.06996 0.07461 0.84485 0.0
O866 O 0.1324 0.89269 0.87483 0.0
C867 C 0.14315 0.9272 0.88778 0.0
O868 O 0.14673 0.95658 0.8643 0.0
H869 H 0.05293 0.97413 0.78965 0.0
H870 H 0.1319 0.05575 0.84759 0.0
C871 C 0.20285 0.83188 0.79784 0.0
C872 C 0.24434 0.82884 0.79989 0.0
C873 C 0.24943 0.90007 0.79694 0.0
C874 C 0.2084 0.90263 0.80375 0.0
N875 N 0.18614 0.86825 0.80466 0.0
N876 N 0.26673 0.8632 0.7963 0.0
H877 H 0.18469 0.80499 0.80002 0.0
C878 C 0.21594 0.0194 0.83834 0.0
O879 O 0.22395 0.98592 0.85776 0.0
O880 O 0.11719 0.80744 0.82445 0.0
H881 H 0.19479 0.93155 0.80857 0.0
H882 H 0.99529 0.02064 0.80295 0.0
H883 H 0.26759 0.92682 0.79446 0.0
Zn884 Zn 0.63419 0.13118 0.81706 0.0
C885 C 0.55776 0.14738 0.73018 0.0
N886 N 0.58928 0.13963 0.70584 0.0
C887 C 0.61586 0.12101 0.73054 0.0
N888 N 0.60086 0.11704 0.76882 0.0
N889 N 0.56375 0.13278 0.76751 0.0
C890 C 0.48415 0.21592 0.83836 0.0
O891 O 0.51764 0.22392 0.85779 0.0
O892 O 0.69611 0.11718 0.82447 0.0
Zn893 Zn 0.52398 0.14082 0.81158 0.0
N894 N 0.6353 0.18613 0.80467 0.0
C895 C 0.60345 0.2494 0.7969 0.0
C896 C 0.60091 0.20837 0.80373 0.0
C897 C 0.67166 0.20285 0.79787 0.0
N898 N 0.64031 0.26671 0.79627 0.0
C899 C 0.67468 0.24435 0.79989 0.0
O900 O 0.54697 0.14671 0.86431 0.0
C901 C 0.57635 0.14312 0.88779 0.0
O902 O 0.61086 0.13238 0.87484 0.0
H903 H 0.57199 0.19475 0.80855 0.0
H904 H 0.69855 0.18468 0.80006 0.0
C905 C 0.45528 0.10183 0.83782 0.0
C906 C 0.42894 0.06996 0.84493 0.0
C907 C 0.47523 0.02541 0.81285 0.0
C908 C 0.50108 0.05759 0.80517 0.0
N909 N 0.49034 0.09501 0.81766 0.0
N910 N 0.43976 0.0324 0.8321 0.0
H911 H 0.44777 0.13191 0.84758 0.0
C912 C 0.71301 0.09772 0.85332 0.0
O913 O 0.69751 0.06262 0.8629 0.0
O914 O 0.48379 0.18815 0.81155 0.0
H915 H 0.52943 0.05289 0.78978 0.0
H916 H 0.57669 0.26754 0.79439 0.0
H917 H 0.48294 0.99525 0.80315 0.0
Zn918 Zn 0.37238 0.63419 0.81707 0.0
C919 C 0.35615 0.55779 0.73019 0.0
N920 N 0.36391 0.58931 0.70585 0.0
C921 C 0.38254 0.61588 0.73054 0.0
N922 N 0.38651 0.60088 0.76883 0.0
N923 N 0.37076 0.56377 0.76752 0.0
C924 C 0.28762 0.48415 0.83835 0.0
O925 O 0.27964 0.51762 0.8578 0.0
O926 O 0.38637 0.69611 0.82448 0.0
Zn927 Zn 0.36273 0.52399 0.81158 0.0
N928 N 0.31743 0.6353 0.8047 0.0
C929 C 0.25417 0.60344 0.79694 0.0
C930 C 0.29519 0.6009 0.80376 0.0
C931 C 0.30071 0.67166 0.7979 0.0
N932 N 0.23684 0.6403 0.79631 0.0
C933 C 0.25921 0.67467 0.79992 0.0
O934 O 0.35685 0.54697 0.86432 0.0
C935 C 0.36045 0.57634 0.8878 0.0
O936 O 0.3712 0.61086 0.87485 0.0
H937 H 0.30882 0.57199 0.80858 0.0
H938 H 0.31887 0.69855 0.80009 0.0
C939 C 0.40172 0.45528 0.8378 0.0
C940 C 0.43359 0.42893 0.84488 0.0
C941 C 0.47812 0.4752 0.81274 0.0
C942 C 0.44594 0.50106 0.80509 0.0
N943 N 0.40853 0.49033 0.81763 0.0
N944 N 0.47114 0.43974 0.832 0.0
H945 H 0.37165 0.44778 0.84759 0.0
C946 C 0.40582 0.71302 0.85333 0.0
O947 O 0.44093 0.69753 0.86292 0.0
O948 O 0.31539 0.4838 0.81153 0.0
H949 H 0.45064 0.52941 0.78969 0.0
H950 H 0.23602 0.57668 0.79443 0.0
H951 H 0.50827 0.4829 0.80301 0.0
Zn952 Zn 0.97958 0.14086 0.692 0.0
C953 C 0.88774 0.12103 0.77304 0.0
N954 N 0.91428 0.13973 0.79772 0.0
C955 C 0.94578 0.14749 0.77338 0.0
N956 N 0.9398 0.13285 0.73607 0.0
N957 N 0.90272 0.11703 0.73474 0.0
C958 C 0.79059 0.09781 0.65024 0.0
O959 O 0.80617 0.06276 0.6406 0.0
O960 O 0.01986 0.18812 0.69209 0.0
Zn961 Zn 0.86939 0.13125 0.68654 0.0
N962 N 0.01316 0.09501 0.68581 0.0
C963 C 0.02822 0.02539 0.69058 0.0
C964 C 0.00242 0.05759 0.69832 0.0
C965 C 0.04817 0.1018 0.66558 0.0
N966 N 0.06367 0.03237 0.67127 0.0
C967 C 0.07449 0.06992 0.65842 0.0
O968 O 0.89271 0.1325 0.62876 0.0
C969 C 0.92721 0.1433 0.6158 0.0
O970 O 0.9566 0.14686 0.63927 0.0
H971 H 0.97409 0.0529 0.71377 0.0
H972 H 0.05569 0.13189 0.65582 0.0
C973 C 0.83193 0.20289 0.70585 0.0
C974 C 0.82888 0.24438 0.70381 0.0
C975 C 0.90011 0.24947 0.70677 0.0
C976 C 0.90267 0.20846 0.69993 0.0
N977 N 0.86829 0.18619 0.699 0.0
N978 N 0.86324 0.26677 0.70743 0.0
H979 H 0.80504 0.18472 0.70367 0.0
C980 C 0.01949 0.21596 0.66534 0.0
O981 O 0.98599 0.22404 0.64599 0.0
O982 O 0.80748 0.11727 0.6791 0.0
H983 H 0.93159 0.19485 0.69508 0.0
H984 H 0.02051 0.99524 0.70029 0.0
H985 H 0.92686 0.26764 0.70927 0.0
Zn986 Zn 0.37232 0.86941 0.68653 0.0
C987 C 0.35609 0.94581 0.77339 0.0
N988 N 0.36384 0.91428 0.79772 0.0
C989 C 0.3825 0.88772 0.77303 0.0
N990 N 0.38649 0.90274 0.73476 0.0
N991 N 0.37073 0.93985 0.73607 0.0
C992 C 0.28759 0.01953 0.66538 0.0
O993 O 0.27951 0.98603 0.64601 0.0
O994 O 0.38631 0.80749 0.67909 0.0
Zn995 Zn 0.36269 0.97961 0.69199 0.0
N996 N 0.31738 0.8683 0.69897 0.0
C997 C 0.2541 0.90012 0.70673 0.0
C998 C 0.29512 0.90268 0.6999 0.0
C999 C 0.30068 0.83194 0.7058 0.0
N1000 N 0.2368 0.86325 0.70738 0.0
C1001 C 0.25919 0.82889 0.70377 0.0
O1002 O 0.35667 0.95662 0.63928 0.0
C1003 C 0.36026 0.92724 0.6158 0.0
O1004 O 0.37107 0.89274 0.62875 0.0
H1005 H 0.30873 0.9316 0.69508 0.0
H1006 H 0.31886 0.80505 0.70362 0.0
C1007 C 0.40175 0.04819 0.66555 0.0
C1008 C 0.43364 0.07449 0.65833 0.0
C1009 C 0.47818 0.0282 0.69042 0.0
C1010 C 0.44598 0.00241 0.69821 0.0
N1011 N 0.40855 0.01318 0.68577 0.0
N1012 N 0.4712 0.06365 0.67112 0.0
H1013 H 0.37165 0.05573 0.65583 0.0
C1014 C 0.40577 0.7906 0.65024 0.0
O1015 O 0.44086 0.80612 0.64064 0.0
O1016 O 0.31544 0.01989 0.69211 0.0
H1017 H 0.45067 0.97408 0.71365 0.0
H1018 H 0.23593 0.92687 0.70923 0.0
H1019 H 0.50834 0.02047 0.70009 0.0
Zn1020 Zn 0.52396 0.36269 0.69201 0.0
C1021 C 0.61581 0.38253 0.77305 0.0
N1022 N 0.58927 0.36383 0.79773 0.0
C1023 C 0.55777 0.35605 0.7734 0.0
N1024 N 0.56374 0.3707 0.73608 0.0
N1025 N 0.60082 0.38653 0.73476 0.0
C1026 C 0.71301 0.40575 0.65029 0.0
O1027 O 0.69751 0.44084 0.64066 0.0
O1028 O 0.48368 0.31544 0.69212 0.0
Zn1029 Zn 0.63415 0.37232 0.68655 0.0
N1030 N 0.49039 0.40855 0.68582 0.0
C1031 C 0.47533 0.47817 0.69056 0.0
C1032 C 0.50113 0.44596 0.69832 0.0
C1033 C 0.45537 0.40175 0.66559 0.0
N1034 N 0.43989 0.47119 0.67125 0.0
C1035 C 0.42906 0.43364 0.65841 0.0
O1036 O 0.61083 0.37108 0.62877 0.0
C1037 C 0.57633 0.36027 0.61582 0.0
O1038 O 0.54695 0.35669 0.63929 0.0
H1039 H 0.52945 0.45065 0.71377 0.0
H1040 H 0.44785 0.37167 0.65583 0.0
C1041 C 0.67163 0.30069 0.70582 0.0
C1042 C 0.6747 0.25919 0.70377 0.0
C1043 C 0.60347 0.25407 0.70669 0.0
C1044 C 0.60089 0.2951 0.69989 0.0
N1045 N 0.63526 0.31737 0.69899 0.0
N1046 N 0.64034 0.23679 0.70734 0.0
H1047 H 0.69852 0.31886 0.70367 0.0
C1048 C 0.48404 0.2876 0.66537 0.0
O1049 O 0.51754 0.27952 0.646 0.0
O1050 O 0.69607 0.38632 0.67914 0.0
H1051 H 0.57197 0.3087 0.69506 0.0
H1052 H 0.48305 0.50832 0.70027 0.0
H1053 H 0.57673 0.23589 0.70916 0.0
Zn1054 Zn 0.14087 0.52398 0.69201 0.0
C1055 C 0.12102 0.61583 0.77305 0.0
N1056 N 0.13971 0.58929 0.79774 0.0
C1057 C 0.14749 0.55778 0.7734 0.0
N1058 N 0.13286 0.56376 0.73608 0.0
N1059 N 0.11703 0.60084 0.73475 0.0
C1060 C 0.09781 0.71302 0.65029 0.0
O1061 O 0.06272 0.69752 0.64067 0.0
O1062 O 0.18812 0.48369 0.69212 0.0
Zn1063 Zn 0.13125 0.63417 0.68655 0.0
N1064 N 0.09501 0.49041 0.68581 0.0
C1065 C 0.02539 0.47535 0.69057 0.0
C1066 C 0.0576 0.50115 0.69832 0.0
C1067 C 0.1018 0.45539 0.66558 0.0
N1068 N 0.03237 0.43991 0.67126 0.0
C1069 C 0.06992 0.42908 0.65842 0.0
O1070 O 0.13251 0.61085 0.62877 0.0
C1071 C 0.14332 0.57635 0.61582 0.0
O1072 O 0.14688 0.54697 0.63929 0.0
H1073 H 0.05291 0.52948 0.71377 0.0
H1074 H 0.13189 0.44787 0.65583 0.0
C1075 C 0.20288 0.67165 0.70585 0.0
C1076 C 0.24437 0.67471 0.7038 0.0
C1077 C 0.24949 0.60348 0.70673 0.0
C1078 C 0.20847 0.60091 0.69992 0.0
N1079 N 0.18619 0.63528 0.69901 0.0
N1080 N 0.26677 0.64036 0.70739 0.0
H1081 H 0.1847 0.69854 0.70369 0.0
C1082 C 0.21596 0.48406 0.66538 0.0
O1083 O 0.22405 0.51756 0.64602 0.0
O1084 O 0.11725 0.69609 0.67914 0.0
H1085 H 0.19486 0.57199 0.69508 0.0
H1086 H 0.99524 0.48307 0.70028 0.0
H1087 H 0.26767 0.57674 0.70921 0.0
Zn1088 Zn 0.81715 0.86938 0.3725 0.0
C1089 C 0.7302 0.9457 0.35606 0.0
N1090 N 0.70588 0.91417 0.36386 0.0
C1091 C 0.73059 0.88764 0.38254 0.0
N1092 N 0.76885 0.90269 0.3865 0.0
N1093 N 0.76752 0.93977 0.37069 0.0
C1094 C 0.83835 0.01944 0.28762 0.0
O1095 O 0.85783 0.98598 0.27965 0.0
O1096 O 0.82447 0.80748 0.3866 0.0
Zn1097 Zn 0.81158 0.97956 0.3627 0.0
N1098 N 0.80493 0.8682 0.31752 0.0
C1099 C 0.79744 0.89996 0.25417 0.0
C1100 C 0.80406 0.90256 0.29522 0.0
C1101 C 0.79822 0.83181 0.30083 0.0
N1102 N 0.79683 0.86308 0.23691 0.0
C1103 C 0.80027 0.82872 0.25934 0.0
O1104 O 0.86433 0.95659 0.35686 0.0
C1105 C 0.88784 0.92725 0.36055 0.0
O1106 O 0.87491 0.89275 0.3714 0.0
H1107 H 0.80879 0.9315 0.30883 0.0
H1108 H 0.80035 0.80495 0.31904 0.0
C1109 C 0.83785 0.04823 0.40173 0.0
C1110 C 0.84495 0.07457 0.43361 0.0
C1111 C 0.81275 0.02833 0.47812 0.0
C1112 C 0.80508 0.00249 0.44593 0.0
N1113 N 0.81764 0.01321 0.40852 0.0
N1114 N 0.83206 0.06378 0.47115 0.0
H1115 H 0.84767 0.05573 0.37165 0.0
C1116 C 0.85335 0.79049 0.40594 0.0
O1117 O 0.86299 0.80585 0.4411 0.0
O1118 O 0.81154 0.01978 0.31539 0.0
H1119 H 0.78964 0.97416 0.45061 0.0
H1120 H 0.79506 0.92669 0.23596 0.0
H1121 H 0.803 0.02064 0.50826 0.0
Zn1122 Zn 0.63418 0.81714 0.37252 0.0
C1123 C 0.55784 0.73019 0.35608 0.0
N1124 N 0.58937 0.70587 0.36388 0.0
C1125 C 0.6159 0.73058 0.38255 0.0
N1126 N 0.60087 0.76885 0.3865 0.0
N1127 N 0.56378 0.76752 0.3707 0.0
C1128 C 0.48413 0.83834 0.28762 0.0
O1129 O 0.51759 0.85782 0.27964 0.0
O1130 O 0.69608 0.82445 0.38662 0.0
Zn1131 Zn 0.524 0.81158 0.36271 0.0
N1132 N 0.63537 0.80493 0.31753 0.0
C1133 C 0.60362 0.79745 0.25417 0.0
C1134 C 0.60101 0.80406 0.29523 0.0
C1135 C 0.67177 0.79824 0.30084 0.0
N1136 N 0.6405 0.79685 0.23692 0.0
C1137 C 0.67485 0.80029 0.25935 0.0
O1138 O 0.54697 0.86433 0.35687 0.0
C1139 C 0.57632 0.88784 0.36056 0.0
O1140 O 0.61081 0.87491 0.37141 0.0
H1141 H 0.57207 0.80878 0.30884 0.0
H1142 H 0.69863 0.80037 0.31905 0.0
C1143 C 0.45531 0.83784 0.40173 0.0
C1144 C 0.42897 0.84494 0.43361 0.0
C1145 C 0.47523 0.81276 0.47813 0.0
C1146 C 0.50107 0.80509 0.44593 0.0
N1147 N 0.49035 0.81764 0.40853 0.0
N1148 N 0.43978 0.83205 0.47115 0.0
H1149 H 0.44781 0.84764 0.37166 0.0
C1150 C 0.71306 0.85336 0.40593 0.0
O1151 O 0.69768 0.86316 0.44103 0.0
O1152 O 0.48379 0.81153 0.31539 0.0
H1153 H 0.52941 0.78967 0.45062 0.0
H1154 H 0.57689 0.79507 0.23596 0.0
H1155 H 0.48294 0.80302 0.50827 0.0
Zn1156 Zn 0.69198 0.524 0.3627 0.0
C1157 C 0.773 0.61587 0.38257 0.0
N1158 N 0.79769 0.58934 0.36387 0.0
C1159 C 0.77336 0.55784 0.35606 0.0
N1160 N 0.73604 0.5638 0.37068 0.0
N1161 N 0.7347 0.60087 0.38654 0.0
C1162 C 0.6502 0.71305 0.40592 0.0
O1163 O 0.64035 0.6976 0.44097 0.0
O1164 O 0.69203 0.48378 0.3154 0.0
Zn1165 Zn 0.68643 0.63418 0.3725 0.0
N1166 N 0.68593 0.49037 0.40853 0.0
C1167 C 0.69084 0.47524 0.47812 0.0
C1168 C 0.6985 0.50108 0.44593 0.0
C1169 C 0.66571 0.45534 0.40174 0.0
N1170 N 0.67153 0.43979 0.47116 0.0
C1171 C 0.65862 0.42899 0.43362 0.0
O1172 O 0.62866 0.61082 0.37139 0.0
C1173 C 0.61574 0.57633 0.36053 0.0
O1174 O 0.63924 0.54698 0.35685 0.0
H1175 H 0.71394 0.52941 0.45062 0.0
H1176 H 0.65589 0.44785 0.37167 0.0
C1177 C 0.70535 0.67178 0.30083 0.0
C1178 C 0.70328 0.67487 0.25934 0.0
C1179 C 0.70614 0.60364 0.25415 0.0
C1180 C 0.69953 0.60103 0.2952 0.0
N1181 N 0.69867 0.63538 0.31751 0.0
N1182 N 0.70673 0.64053 0.2369 0.0
H1183 H 0.70321 0.69865 0.31903 0.0
C1184 C 0.66522 0.48412 0.28763 0.0
O1185 O 0.64576 0.51759 0.27963 0.0
O1186 O 0.67912 0.69608 0.38662 0.0
H1187 H 0.69481 0.57208 0.30881 0.0
H1188 H 0.7006 0.48293 0.50827 0.0
H1189 H 0.70852 0.57692 0.23593 0.0
Zn1190 Zn 0.97955 0.69199 0.3627 0.0
C1191 C 0.88771 0.773 0.38266 0.0
N1192 N 0.91421 0.79771 0.36394 0.0
C1193 C 0.9457 0.77337 0.35608 0.0
N1194 N 0.93975 0.73604 0.37068 0.0
N1195 N 0.9027 0.73469 0.38657 0.0
C1196 C 0.79055 0.65016 0.40593 0.0
O1197 O 0.80608 0.64029 0.44094 0.0
O1198 O 0.01977 0.69203 0.3154 0.0
Zn1199 Zn 0.86938 0.68643 0.37251 0.0
N1200 N 0.01318 0.68592 0.40853 0.0
C1201 C 0.0283 0.6908 0.47813 0.0
C1202 C 0.00247 0.69847 0.44593 0.0
C1203 C 0.04821 0.6657 0.40174 0.0
N1204 N 0.06375 0.67149 0.47116 0.0
C1205 C 0.07455 0.6586 0.43361 0.0
O1206 O 0.89274 0.62866 0.37139 0.0
C1207 C 0.92723 0.61573 0.36053 0.0
O1208 O 0.95658 0.63924 0.35685 0.0
H1209 H 0.97414 0.71391 0.45062 0.0
H1210 H 0.05571 0.6559 0.37166 0.0
C1211 C 0.8318 0.70538 0.30085 0.0
C1212 C 0.8287 0.70331 0.25936 0.0
C1213 C 0.89994 0.70615 0.25416 0.0
C1214 C 0.90255 0.69954 0.29522 0.0
N1215 N 0.8682 0.69868 0.31752 0.0
N1216 N 0.86305 0.70675 0.23691 0.0
H1217 H 0.80493 0.70325 0.31905 0.0
C1218 C 0.01943 0.66521 0.28763 0.0
O1219 O 0.98596 0.64576 0.27964 0.0
O1220 O 0.80748 0.67909 0.38661 0.0
H1221 H 0.93149 0.6948 0.30882 0.0
H1222 H 0.02061 0.70055 0.50827 0.0
H1223 H 0.92666 0.70851 0.23594 0.0
Zn1224 Zn 0.81152 0.52398 0.14085 0.0
C1225 C 0.73047 0.61582 0.12106 0.0
N1226 N 0.7058 0.58925 0.13972 0.0
C1227 C 0.73015 0.55775 0.14746 0.0
N1228 N 0.76746 0.56376 0.13282 0.0
N1229 N 0.76877 0.60086 0.11704 0.0
C1230 C 0.85324 0.71297 0.09788 0.0
O1231 O 0.8628 0.69734 0.06282 0.0
O1232 O 0.81145 0.48374 0.18813 0.0
Zn1233 Zn 0.81694 0.6342 0.13135 0.0
N1234 N 0.81767 0.49039 0.09501 0.0
C1235 C 0.81285 0.47529 0.0254 0.0
C1236 C 0.80516 0.50112 0.05759 0.0
C1237 C 0.83787 0.45535 0.10181 0.0
N1238 N 0.83213 0.43983 0.03238 0.0
C1239 C 0.84499 0.42901 0.06993 0.0
O1240 O 0.87472 0.6109 0.13267 0.0
C1241 C 0.88769 0.57638 0.14336 0.0
O1242 O 0.86423 0.54697 0.14685 0.0
H1243 H 0.78973 0.52945 0.0529 0.0
H1244 H 0.84764 0.44784 0.13189 0.0
C1245 C 0.79741 0.67161 0.20297 0.0
C1246 C 0.79936 0.67459 0.24448 0.0
C1247 C 0.79634 0.60337 0.24948 0.0
C1248 C 0.80339 0.60087 0.20849 0.0
N1249 N 0.80436 0.63527 0.18626 0.0
N1250 N 0.79561 0.64022 0.26683 0.0
H1251 H 0.79965 0.69853 0.18485 0.0
C1252 C 0.83821 0.48412 0.21596 0.0
O1253 O 0.85756 0.51763 0.22404 0.0
O1254 O 0.82441 0.69612 0.11741 0.0
H1255 H 0.80833 0.57197 0.19487 0.0
H1256 H 0.80313 0.48299 0.99525 0.0
H1257 H 0.79375 0.5766 0.2676 0.0
Zn1258 Zn 0.86935 0.81695 0.1313 0.0
C1259 C 0.94581 0.73013 0.14735 0.0
N1260 N 0.9143 0.70578 0.1396 0.0
C1261 C 0.88773 0.73048 0.12096 0.0
N1262 N 0.90269 0.76878 0.11703 0.0
N1263 N 0.93982 0.76746 0.13275 0.0
C1264 C 0.01942 0.83819 0.21597 0.0
O1265 O 0.98592 0.85756 0.22404 0.0
O1266 O 0.80742 0.82443 0.11737 0.0
Zn1267 Zn 0.97957 0.81153 0.14084 0.0
N1268 N 0.86828 0.80439 0.18622 0.0
C1269 C 0.9002 0.79635 0.24942 0.0
C1270 C 0.9027 0.80339 0.20843 0.0
C1271 C 0.83195 0.79745 0.20294 0.0
N1272 N 0.86336 0.79562 0.26678 0.0
C1273 C 0.82899 0.79939 0.24444 0.0
O1274 O 0.95657 0.86424 0.14684 0.0
C1275 C 0.92717 0.8877 0.14333 0.0
O1276 O 0.89265 0.87473 0.13262 0.0
H1277 H 0.93159 0.80833 0.1948 0.0
H1278 H 0.80504 0.7997 0.18481 0.0
C1279 C 0.04821 0.8379 0.10182 0.0
C1280 C 0.07453 0.84507 0.06993 0.0
C1281 C 0.02823 0.81301 0.02538 0.0
C1282 C 0.00241 0.80527 0.05757 0.0
N1283 N 0.01317 0.81772 0.095 0.0
N1284 N 0.06369 0.83228 0.03237 0.0
H1285 H 0.05575 0.84762 0.13191 0.0
C1286 C 0.79056 0.85324 0.09784 0.0
O1287 O 0.80611 0.86276 0.06274 0.0
O1288 O 0.0198 0.81144 0.18813 0.0
H1289 H 0.97407 0.78986 0.05287 0.0
H1290 H 0.92698 0.79374 0.26753 0.0
H1291 H 0.0205 0.80334 0.99521 0.0
Zn1292 Zn 0.68658 0.86935 0.13131 0.0
C1293 C 0.77341 0.9458 0.14735 0.0
N1294 N 0.79775 0.91428 0.13959 0.0
C1295 C 0.77305 0.88772 0.12095 0.0
N1296 N 0.73475 0.90269 0.11702 0.0
N1297 N 0.73607 0.93981 0.13275 0.0
C1298 C 0.66537 0.01943 0.21598 0.0
O1299 O 0.646 0.98593 0.22405 0.0
O1300 O 0.67906 0.80743 0.1174 0.0
Zn1301 Zn 0.692 0.97957 0.14084 0.0
N1302 N 0.69917 0.86829 0.18623 0.0
C1303 C 0.70723 0.90021 0.24943 0.0
C1304 C 0.70016 0.90271 0.20844 0.0
C1305 C 0.70613 0.83196 0.20294 0.0
N1306 N 0.70797 0.86337 0.26679 0.0
C1307 C 0.7042 0.829 0.24445 0.0
O1308 O 0.63929 0.95659 0.14685 0.0
C1309 C 0.61584 0.92719 0.14335 0.0
O1310 O 0.62881 0.89267 0.13265 0.0
H1311 H 0.69522 0.9316 0.19481 0.0
H1312 H 0.70388 0.80505 0.18481 0.0
C1313 C 0.66564 0.04821 0.10182 0.0
C1314 C 0.65848 0.07453 0.06993 0.0
C1315 C 0.69054 0.02823 0.02538 0.0
C1316 C 0.69828 0.00241 0.05758 0.0
N1317 N 0.68582 0.01317 0.09501 0.0
N1318 N 0.67128 0.06369 0.03237 0.0
H1319 H 0.65592 0.05575 0.13191 0.0
C1320 C 0.65023 0.79061 0.09785 0.0
O1321 O 0.64069 0.80625 0.0628 0.0
O1322 O 0.69211 0.0198 0.18813 0.0
H1323 H 0.71369 0.97407 0.05288 0.0
H1324 H 0.70984 0.927 0.26753 0.0
H1325 H 0.70022 0.0205 0.99522 0.0
Zn1326 Zn 0.52396 0.69201 0.14086 0.0
C1327 C 0.61577 0.77307 0.12095 0.0
N1328 N 0.58922 0.79775 0.13962 0.0
C1329 C 0.55773 0.7734 0.1474 0.0
N1330 N 0.56373 0.73608 0.1328 0.0
N1331 N 0.60083 0.73475 0.117 0.0
C1332 C 0.71286 0.6502 0.09789 0.0
O1333 O 0.69708 0.64043 0.06296 0.0
O1334 O 0.48371 0.69209 0.18814 0.0
Zn1335 Zn 0.63417 0.68659 0.13133 0.0
N1336 N 0.49037 0.68583 0.09502 0.0
C1337 C 0.47529 0.69061 0.0254 0.0
C1338 C 0.50111 0.69833 0.0576 0.0
C1339 C 0.45534 0.66563 0.10182 0.0
N1340 N 0.43984 0.67132 0.03239 0.0
C1341 C 0.42902 0.65848 0.06994 0.0
O1342 O 0.61087 0.62881 0.13268 0.0
C1343 C 0.57636 0.61584 0.14339 0.0
O1344 O 0.54695 0.63929 0.14688 0.0
H1345 H 0.52945 0.71376 0.0529 0.0
H1346 H 0.44783 0.65587 0.13191 0.0
C1347 C 0.67158 0.70615 0.20295 0.0
C1348 C 0.67456 0.70421 0.24446 0.0
C1349 C 0.60335 0.70724 0.24947 0.0
C1350 C 0.60084 0.70018 0.20847 0.0
N1351 N 0.63524 0.6992 0.18625 0.0
N1352 N 0.64019 0.70797 0.26681 0.0
H1353 H 0.6985 0.70391 0.18483 0.0
C1354 C 0.48409 0.66535 0.21597 0.0
O1355 O 0.51761 0.64601 0.22406 0.0
O1356 O 0.69608 0.67908 0.1174 0.0
H1357 H 0.57193 0.69523 0.19486 0.0
H1358 H 0.483 0.70031 0.99525 0.0
H1359 H 0.57657 0.70984 0.26758 0.0
Zn1360 Zn 0.36269 0.81156 0.97959 0.0
C1361 C 0.38263 0.73054 0.88776 0.0
N1362 N 0.36394 0.70583 0.91428 0.0
C1363 C 0.35613 0.73017 0.94578 0.0
N1364 N 0.37072 0.7675 0.9398 0.0
N1365 N 0.38655 0.76885 0.90272 0.0
C1366 C 0.40577 0.85338 0.7906 0.0
O1367 O 0.44077 0.86319 0.8062 0.0
O1368 O 0.3154 0.8115 0.01982 0.0
Zn1369 Zn 0.37236 0.81706 0.86939 0.0
N1370 N 0.40852 0.8177 0.0132 0.0
C1371 C 0.47814 0.81292 0.02828 0.0
C1372 C 0.44594 0.8052 0.00246 0.0
C1373 C 0.40172 0.83789 0.04823 0.0
N1374 N 0.47116 0.8322 0.06373 0.0
C1375 C 0.4336 0.84504 0.07456 0.0
O1376 O 0.37112 0.87483 0.89272 0.0
C1377 C 0.36034 0.88777 0.92723 0.0
O1378 O 0.35675 0.86429 0.9566 0.0
H1379 H 0.45063 0.78977 0.97412 0.0
H1380 H 0.37164 0.84765 0.05575 0.0
C1381 C 0.30072 0.79778 0.83189 0.0
C1382 C 0.25922 0.79975 0.82887 0.0
C1383 C 0.25413 0.79685 0.90009 0.0
C1384 C 0.29515 0.8037 0.90264 0.0
N1385 N 0.31741 0.80462 0.86826 0.0
N1386 N 0.23683 0.79616 0.86322 0.0
H1387 H 0.31888 0.79998 0.80499 0.0
C1388 C 0.28759 0.83827 0.01946 0.0
O1389 O 0.27954 0.85766 0.98596 0.0
O1390 O 0.38637 0.82448 0.80747 0.0
H1391 H 0.30876 0.80856 0.93156 0.0
H1392 H 0.50829 0.80321 0.02056 0.0
H1393 H 0.23597 0.79437 0.92684 0.0
Zn1394 Zn 0.36267 0.69202 0.52401 0.0
C1395 C 0.38258 0.77306 0.61583 0.0
N1396 N 0.36388 0.79775 0.5893 0.0
C1397 C 0.35607 0.7734 0.55781 0.0
N1398 N 0.37067 0.73608 0.5638 0.0
N1399 N 0.38651 0.73475 0.60087 0.0
C1400 C 0.4058 0.65023 0.71299 0.0
O1401 O 0.44081 0.64044 0.6974 0.0
O1402 O 0.31541 0.69211 0.48375 0.0
Zn1403 Zn 0.37234 0.68653 0.63421 0.0
N1404 N 0.40852 0.68589 0.49041 0.0
C1405 C 0.47812 0.69076 0.47532 0.0
C1406 C 0.44592 0.69844 0.50115 0.0
C1407 C 0.40173 0.6657 0.45538 0.0
N1408 N 0.47115 0.67148 0.43986 0.0
C1409 C 0.43361 0.6586 0.42904 0.0
O1410 O 0.37107 0.62876 0.61088 0.0
C1411 C 0.36026 0.61581 0.57638 0.0
O1412 O 0.35669 0.63929 0.54699 0.0
H1413 H 0.4506 0.71386 0.52949 0.0
H1414 H 0.37166 0.65591 0.44786 0.0
C1415 C 0.30072 0.70578 0.67175 0.0
C1416 C 0.25923 0.7038 0.6748 0.0
C1417 C 0.25409 0.7067 0.60358 0.0
C1418 C 0.29511 0.69988 0.601 0.0
N1419 N 0.3174 0.69896 0.63537 0.0
N1420 N 0.23681 0.70738 0.64046 0.0
H1421 H 0.31889 0.70359 0.69864 0.0
C1422 C 0.28759 0.66534 0.4841 0.0
O1423 O 0.27951 0.64597 0.51761 0.0
O1424 O 0.38639 0.67913 0.69611 0.0
H1425 H 0.30871 0.69503 0.57208 0.0
H1426 H 0.50826 0.70051 0.48303 0.0
H1427 H 0.23591 0.70917 0.57684 0.0
Zn1428 Zn 0.81705 0.37239 0.63421 0.0
C1429 C 0.73016 0.35611 0.5578 0.0
N1430 N 0.70582 0.36389 0.58932 0.0
C1431 C 0.73052 0.38257 0.61586 0.0
N1432 N 0.76881 0.38649 0.60087 0.0
N1433 N 0.76749 0.37072 0.56377 0.0
C1434 C 0.83827 0.28763 0.48409 0.0
O1435 O 0.85768 0.27959 0.51758 0.0
O1436 O 0.82444 0.38644 0.69612 0.0
Zn1437 Zn 0.81156 0.3627 0.524 0.0
N1438 N 0.80467 0.31744 0.63538 0.0
C1439 C 0.79694 0.25414 0.60357 0.0
C1440 C 0.80375 0.29516 0.601 0.0
C1441 C 0.79786 0.30076 0.67176 0.0
N1442 N 0.79626 0.23685 0.64044 0.0
C1443 C 0.79984 0.25926 0.67479 0.0
O1444 O 0.86428 0.35676 0.54699 0.0
C1445 C 0.88777 0.36036 0.57637 0.0
O1446 O 0.87482 0.37116 0.61087 0.0
H1447 H 0.80858 0.30877 0.57208 0.0
H1448 H 0.80005 0.31893 0.69864 0.0
C1449 C 0.83786 0.40174 0.45535 0.0
C1450 C 0.84496 0.43362 0.42901 0.0
C1451 C 0.8128 0.47814 0.47528 0.0
C1452 C 0.80513 0.44594 0.50112 0.0
N1453 N 0.81767 0.40853 0.49039 0.0
N1454 N 0.83208 0.47116 0.43982 0.0
H1455 H 0.84766 0.37167 0.44784 0.0
C1456 C 0.85333 0.40585 0.71301 0.0
O1457 O 0.86308 0.4409 0.6975 0.0
O1458 O 0.81148 0.31543 0.48374 0.0
H1459 H 0.78971 0.45063 0.52946 0.0
H1460 H 0.79447 0.23596 0.57682 0.0
H1461 H 0.80306 0.50828 0.48299 0.0
Zn1462 Zn 0.13117 0.81706 0.63421 0.0
C1463 C 0.14743 0.73017 0.5578 0.0
N1464 N 0.13965 0.70583 0.58931 0.0
C1465 C 0.12098 0.73053 0.61586 0.0
N1466 N 0.11706 0.76882 0.60088 0.0
N1467 N 0.13283 0.76751 0.56377 0.0
C1468 C 0.21595 0.83825 0.48411 0.0
O1469 O 0.224 0.85765 0.5176 0.0
O1470 O 0.11713 0.82448 0.69611 0.0
Zn1471 Zn 0.14086 0.81157 0.524 0.0
N1472 N 0.18612 0.80466 0.63537 0.0
C1473 C 0.24941 0.7969 0.60355 0.0
C1474 C 0.20839 0.80373 0.60099 0.0
C1475 C 0.2028 0.79785 0.67175 0.0
N1476 N 0.26671 0.79622 0.64042 0.0
C1477 C 0.2443 0.79982 0.67477 0.0
O1478 O 0.14681 0.8643 0.54698 0.0
C1479 C 0.14322 0.88778 0.57636 0.0
O1480 O 0.13242 0.87483 0.61086 0.0
H1481 H 0.19478 0.80857 0.57207 0.0
H1482 H 0.18463 0.80005 0.69863 0.0
C1483 C 0.10182 0.83784 0.45534 0.0
C1484 C 0.06993 0.84492 0.429 0.0
C1485 C 0.02542 0.81281 0.4753 0.0
C1486 C 0.05762 0.80515 0.50114 0.0
N1487 N 0.09502 0.81767 0.49039 0.0
N1488 N 0.03239 0.83207 0.43983 0.0
H1489 H 0.13189 0.84762 0.44782 0.0
C1490 C 0.0977 0.85338 0.71296 0.0
O1491 O 0.06269 0.86314 0.69737 0.0
O1492 O 0.18814 0.81147 0.48376 0.0
H1493 H 0.05293 0.78975 0.52949 0.0
H1494 H 0.26758 0.79442 0.5768 0.0
H1495 H 0.99527 0.80309 0.48302 0.0
Zn1496 Zn 0.692 0.14088 0.52401 0.0
C1497 C 0.77305 0.12098 0.61582 0.0
N1498 N 0.79774 0.13967 0.58928 0.0
C1499 C 0.77338 0.14747 0.55779 0.0
N1500 N 0.73606 0.13287 0.56379 0.0
N1501 N 0.73473 0.11704 0.60087 0.0
C1502 C 0.65022 0.09775 0.71299 0.0
O1503 O 0.64043 0.06275 0.69738 0.0
O1504 O 0.69208 0.18815 0.48375 0.0
Zn1505 Zn 0.68652 0.13122 0.63421 0.0
N1506 N 0.68589 0.09504 0.4904 0.0
C1507 C 0.69077 0.02544 0.4753 0.0
C1508 C 0.69843 0.05763 0.50114 0.0
C1509 C 0.66571 0.10183 0.45535 0.0
N1510 N 0.67151 0.0324 0.43983 0.0
C1511 C 0.65863 0.06994 0.42901 0.0
O1512 O 0.62875 0.1325 0.61088 0.0
C1513 C 0.6158 0.14329 0.57638 0.0
O1514 O 0.63928 0.14685 0.54699 0.0
H1515 H 0.71384 0.05295 0.52949 0.0
H1516 H 0.65592 0.1319 0.44784 0.0
C1517 C 0.70579 0.20284 0.67176 0.0
C1518 C 0.7038 0.24433 0.6748 0.0
C1519 C 0.70673 0.24946 0.60358 0.0
C1520 C 0.69989 0.20844 0.601 0.0
N1521 N 0.69897 0.18616 0.63537 0.0
N1522 N 0.70741 0.26675 0.64046 0.0
H1523 H 0.70359 0.18467 0.69864 0.0
C1524 C 0.6653 0.21596 0.48411 0.0
O1525 O 0.64594 0.22402 0.51762 0.0
O1526 O 0.67911 0.11717 0.69612 0.0
H1527 H 0.69504 0.19485 0.57208 0.0
H1528 H 0.70051 0.99529 0.48302 0.0
H1529 H 0.70922 0.26764 0.57683 0.0
Zn1530 Zn 0.13114 0.68648 0.8694 0.0
C1531 C 0.14739 0.77338 0.9458 0.0
N1532 N 0.1396 0.79771 0.91428 0.0
C1533 C 0.12094 0.77301 0.88774 0.0
N1534 N 0.11702 0.73471 0.90273 0.0
N1535 N 0.13279 0.73604 0.93984 0.0
C1536 C 0.21592 0.66524 0.01949 0.0
O1537 O 0.22394 0.64584 0.98599 0.0
O1538 O 0.11714 0.67905 0.80749 0.0
Zn1539 Zn 0.14083 0.69197 0.97961 0.0
N1540 N 0.18609 0.69887 0.86828 0.0
C1541 C 0.24936 0.70665 0.90013 0.0
C1542 C 0.20834 0.6998 0.90267 0.0
C1543 C 0.2028 0.70569 0.83191 0.0
N1544 N 0.26668 0.70734 0.86327 0.0
C1545 C 0.2443 0.70373 0.82891 0.0
O1546 O 0.14675 0.63925 0.95662 0.0
C1547 C 0.14314 0.61576 0.92725 0.0
O1548 O 0.13234 0.62871 0.89274 0.0
H1549 H 0.19472 0.69497 0.93158 0.0
H1550 H 0.18464 0.70348 0.80502 0.0
C1551 C 0.10181 0.6656 0.04824 0.0
C1552 C 0.06993 0.65841 0.07455 0.0
C1553 C 0.02538 0.69052 0.02828 0.0
C1554 C 0.05757 0.69828 0.00247 0.0
N1555 N 0.095 0.68581 0.01322 0.0
N1556 N 0.03236 0.67122 0.06372 0.0
H1557 H 0.1319 0.65586 0.05576 0.0
C1558 C 0.09772 0.65014 0.79063 0.0
O1559 O 0.06272 0.64035 0.80624 0.0
O1560 O 0.18812 0.69203 0.01985 0.0
H1561 H 0.05287 0.71371 0.97413 0.0
H1562 H 0.26751 0.70915 0.92689 0.0
H1563 H 0.99521 0.7002 0.02056 0.0
Zn1564 Zn 0.81156 0.14084 0.97958 0.0
C1565 C 0.73053 0.12091 0.88775 0.0
N1566 N 0.70583 0.1396 0.91427 0.0
C1567 C 0.73017 0.14741 0.94577 0.0
N1568 N 0.7675 0.13281 0.93979 0.0
N1569 N 0.76884 0.11698 0.90271 0.0
C1570 C 0.85341 0.09776 0.79063 0.0
O1571 O 0.86324 0.0628 0.80631 0.0
O1572 O 0.8115 0.18813 0.01982 0.0
Zn1573 Zn 0.81705 0.13117 0.86938 0.0
N1574 N 0.81771 0.095 0.01319 0.0
C1575 C 0.81296 0.02539 0.02827 0.0
C1576 C 0.80521 0.05758 0.00245 0.0
C1577 C 0.83792 0.10181 0.04821 0.0
N1578 N 0.83226 0.03237 0.06371 0.0
C1579 C 0.84509 0.06993 0.07453 0.0
O1580 O 0.87482 0.13239 0.89272 0.0
C1581 C 0.88777 0.14318 0.92722 0.0
O1582 O 0.86429 0.14677 0.9566 0.0
H1583 H 0.78978 0.05289 0.97412 0.0
H1584 H 0.84768 0.1319 0.05572 0.0
C1585 C 0.7978 0.20282 0.8319 0.0
C1586 C 0.79976 0.24432 0.8289 0.0
C1587 C 0.79683 0.24939 0.90012 0.0
C1588 C 0.80369 0.20837 0.90266 0.0
N1589 N 0.80463 0.18612 0.86827 0.0
N1590 N 0.79614 0.26671 0.86326 0.0
H1591 H 0.80001 0.18468 0.805 0.0
C1592 C 0.83827 0.21594 0.01945 0.0
O1593 O 0.85766 0.22398 0.98596 0.0
O1594 O 0.8245 0.11718 0.80747 0.0
H1595 H 0.80855 0.19475 0.93157 0.0
H1596 H 0.80325 0.99523 0.02055 0.0
H1597 H 0.79433 0.26754 0.92688 0.0
Zn1598 Zn 0.69199 0.36271 0.97959 0.0
C1599 C 0.77301 0.38265 0.88775 0.0
N1600 N 0.79771 0.36395 0.91426 0.0
C1601 C 0.77337 0.35613 0.94576 0.0
N1602 N 0.73604 0.37073 0.93979 0.0
N1603 N 0.7347 0.38658 0.90272 0.0
C1604 C 0.65013 0.40581 0.79064 0.0
O1605 O 0.64029 0.44078 0.80629 0.0
O1606 O 0.69204 0.3154 0.01981 0.0
Zn1607 Zn 0.68647 0.37241 0.86939 0.0
N1608 N 0.68589 0.40854 0.01322 0.0
C1609 C 0.6907 0.47814 0.02832 0.0
C1610 C 0.69841 0.44595 0.00249 0.0
C1611 C 0.66568 0.40174 0.04824 0.0
N1612 N 0.67141 0.47116 0.06377 0.0
C1613 C 0.65855 0.43361 0.07458 0.0
O1614 O 0.62871 0.37121 0.89274 0.0
C1615 C 0.61576 0.36043 0.92724 0.0
O1616 O 0.63925 0.35682 0.95662 0.0
H1617 H 0.71384 0.45065 0.97415 0.0
H1618 H 0.6559 0.37166 0.05575 0.0
C1619 C 0.70569 0.30075 0.8319 0.0
C1620 C 0.70373 0.25925 0.82889 0.0
C1621 C 0.70663 0.25417 0.90011 0.0
C1622 C 0.69979 0.2952 0.90266 0.0
N1623 N 0.69887 0.31745 0.86827 0.0
N1624 N 0.70732 0.23686 0.86325 0.0
H1625 H 0.70349 0.3189 0.805 0.0
C1626 C 0.66525 0.28761 0.01944 0.0
O1627 O 0.64584 0.27959 0.98595 0.0
O1628 O 0.67905 0.38641 0.80749 0.0
H1629 H 0.69495 0.30881 0.93157 0.0
H1630 H 0.70043 0.5083 0.02061 0.0
H1631 H 0.70911 0.23602 0.92687 0.0
loop_
_geom_bond_atom_site_label_1
_geom_bond_atom_site_label_2
_geom_bond_distance
_geom_bond_site_symmetry_2
_ccdc_geom_bond_type
Zn0 N4 2.020 . S
Zn0 O8 2.019 . S
Zn0 N10 2.119 . S
Zn0 O18 1.975 . S
C1 N2 1.334 . S
C1 N5 1.336 . S
N2 C1 1.334 . S
N2 C3 1.334 . S
C3 N2 1.334 . S
C3 N4 1.336 . S
N4 Zn0 2.020 . S
N4 C3 1.336 . S
N4 N5 1.354 . S
N5 C1 1.336 . S
N5 N4 1.354 . S
N5 Zn9 2.020 . S
C6 O7 1.244 . S
C6 O30 1.257 . S
O7 C6 1.244 . S
O8 Zn0 2.019 . S
O8 C28 1.257 . S
Zn9 N5 2.020 . S
Zn9 O16 1.975 . S
Zn9 N25 2.119 . S
Zn9 O30 2.019 1_455 S
N10 Zn0 2.119 . S
N10 C12 1.334 . S
N10 C13 1.328 . S
C11 C12 1.391 . S
C11 N14 1.329 . S
C11 H32 0.930 . S
C12 N10 1.334 . S
C12 C11 1.391 . S
C12 H19 0.930 . S
C13 N10 1.328 . S
C13 C15 1.392 . S
C13 H20 0.930 . S
N14 C11 1.329 . S
N14 C15 1.331 . S
C15 C13 1.392 . S
C15 N14 1.331 . S
O16 Zn9 1.975 . S
O16 C17 1.252 . S
C17 O16 1.252 . S
C17 O18 1.252 . S
O18 Zn0 1.975 . S
O18 C17 1.252 . S
H19 C12 0.930 . S
H20 C13 0.930 . S
C21 C22 1.392 . S
C21 N25 1.328 1_655 S
C21 H27 0.930 . S
C22 C21 1.392 . S
C22 N26 1.331 . S
C23 C24 1.391 . S
C23 N26 1.329 1_455 S
C23 H33 0.930 . S
C24 C23 1.391 . S
C24 N25 1.334 . S
C24 H31 0.930 . S
N25 Zn9 2.119 . S
N25 C21 1.328 1_455 S
N25 C24 1.334 . S
N26 C22 1.331 . S
N26 C23 1.329 1_655 S
H27 C21 0.930 . S
C28 O8 1.257 . S
C28 O29 1.244 . S
O29 C28 1.244 . S
O30 C6 1.257 . S
O30 Zn9 2.019 1_655 S
H31 C24 0.930 . S
H32 C11 0.930 . S
H33 C23 0.930 . S
Zn34 N38 2.020 . S
Zn34 O42 2.019 . S
Zn34 N44 2.119 . S
Zn34 O52 1.975 . S
C35 N36 1.334 . S
C35 N39 1.336 . S
N36 C35 1.334 . S
N36 C37 1.334 . S
C37 N36 1.334 . S
C37 N38 1.336 . S
N38 Zn34 2.020 . S
N38 C37 1.336 . S
N38 N39 1.354 . S
N39 C35 1.336 . S
N39 N38 1.354 . S
N39 Zn43 2.020 . S
C40 O41 1.244 . S
C40 O64 1.257 . S
O41 C40 1.244 . S
O42 Zn34 2.019 . S
O42 C62 1.257 . S
Zn43 N39 2.020 . S
Zn43 O50 1.975 . S
Zn43 N59 2.119 . S
Zn43 O64 2.019 1_545 S
N44 Zn34 2.119 . S
N44 C46 1.334 . S
N44 C47 1.328 . S
C45 C46 1.391 . S
C45 N48 1.329 . S
C45 H66 0.930 . S
C46 N44 1.334 . S
C46 C45 1.391 . S
C46 H53 0.930 . S
C47 N44 1.328 . S
C47 C49 1.392 . S
C47 H54 0.930 . S
N48 C45 1.329 . S
N48 C49 1.331 . S
C49 C47 1.392 . S
C49 N48 1.331 . S
O50 Zn43 1.975 . S
O50 C51 1.252 . S
C51 O50 1.252 . S
C51 O52 1.252 . S
O52 Zn34 1.975 . S
O52 C51 1.252 . S
H53 C46 0.930 . S
H54 C47 0.930 . S
C55 C56 1.392 . S
C55 N59 1.328 1_565 S
C55 H61 0.930 . S
C56 C55 1.392 . S
C56 N60 1.338 . S
C57 C58 1.391 . S
C57 N60 1.332 1_545 S
C57 H67 0.930 1_655 S
C58 C57 1.391 . S
C58 N59 1.334 . S
C58 H65 0.930 . S
N59 Zn43 2.119 . S
N59 C55 1.328 1_545 S
N59 C58 1.334 . S
N60 C56 1.338 . S
N60 C57 1.332 1_565 S
H61 C55 0.930 . S
C62 O42 1.257 . S
C62 O63 1.244 . S
O63 C62 1.244 . S
O64 C40 1.257 . S
O64 Zn43 2.019 1_565 S
H65 C58 0.930 . S
H66 C45 0.930 . S
H67 C57 0.930 1_455 S
Zn68 N72 2.020 . S
Zn68 O76 2.019 . S
Zn68 N78 2.119 . S
Zn68 O86 1.975 . S
C69 N70 1.334 . S
C69 N73 1.336 . S
N70 C69 1.334 . S
N70 C71 1.334 . S
C71 N70 1.334 . S
C71 N72 1.336 . S
N72 Zn68 2.020 . S
N72 C71 1.336 . S
N72 N73 1.354 . S
N73 C69 1.336 . S
N73 N72 1.354 . S
N73 Zn77 2.020 . S
C74 O75 1.244 . S
C74 O98 1.257 . S
O75 C74 1.244 . S
O76 Zn68 2.019 . S
O76 C96 1.257 . S
Zn77 N73 2.020 . S
Zn77 O84 1.975 . S
Zn77 N93 2.119 . S
Zn77 O98 2.019 . S
N78 Zn68 2.119 . S
N78 C80 1.334 . S
N78 C81 1.328 . S
C79 C80 1.391 . S
C79 N82 1.332 . S
C79 H100 0.930 1_565 S
C80 N78 1.334 . S
C80 C79 1.391 . S
C80 H87 0.930 . S
C81 N78 1.328 . S
C81 C83 1.392 . S
C81 H88 0.930 . S
N82 C79 1.332 . S
N82 C83 1.338 . S
C83 C81 1.392 . S
C83 N82 1.338 . S
O84 Zn77 1.975 . S
O84 C85 1.252 . S
C85 O84 1.252 . S
C85 O86 1.252 . S
O86 Zn68 1.975 . S
O86 C85 1.252 . S
H87 C80 0.930 . S
H88 C81 0.930 . S
C89 C90 1.392 . S
C89 N93 1.328 . S
C89 H95 0.930 . S
C90 C89 1.392 . S
C90 N94 1.331 . S
C91 C92 1.391 . S
C91 N94 1.329 . S
C91 H101 0.930 . S
C92 C91 1.391 . S
C92 N93 1.334 . S
C92 H99 0.930 . S
N93 Zn77 2.119 . S
N93 C89 1.328 . S
N93 C92 1.334 . S
N94 C90 1.331 . S
N94 C91 1.329 . S
H95 C89 0.930 . S
C96 O76 1.257 . S
C96 O97 1.244 . S
O97 C96 1.244 . S
O98 C74 1.257 . S
O98 Zn77 2.019 . S
H99 C92 0.930 . S
H100 C79 0.930 1_545 S
H101 C91 0.930 . S
Zn102 N106 2.020 . S
Zn102 O110 2.019 . S
Zn102 N112 2.119 . S
Zn102 O120 1.975 . S
C103 N104 1.334 . S
C103 N107 1.336 . S
N104 C103 1.334 . S
N104 C105 1.334 . S
C105 N104 1.334 . S
C105 N106 1.336 . S
N106 Zn102 2.020 . S
N106 C105 1.336 . S
N106 N107 1.354 . S
N107 C103 1.336 . S
N107 N106 1.354 . S
N107 Zn111 2.020 . S
C108 O109 1.244 . S
C108 O132 1.257 . S
O109 C108 1.244 . S
O110 Zn102 2.019 . S
O110 C130 1.257 . S
Zn111 N107 2.020 . S
Zn111 O118 1.975 . S
Zn111 N127 2.119 . S
Zn111 O132 2.019 . S
N112 Zn102 2.119 . S
N112 C114 1.334 . S
N112 C115 1.328 . S
C113 C114 1.391 . S
C113 N116 1.329 . S
C113 H134 0.930 . S
C114 N112 1.334 . S
C114 C113 1.391 . S
C114 H121 0.930 . S
C115 N112 1.328 . S
C115 C117 1.392 . S
C115 H122 0.930 . S
N116 C113 1.329 . S
N116 C117 1.331 . S
C117 C115 1.392 . S
C117 N116 1.331 . S
O118 Zn111 1.975 . S
O118 C119 1.252 . S
C119 O118 1.252 . S
C119 O120 1.252 . S
O120 Zn102 1.975 . S
O120 C119 1.252 . S
H121 C114 0.930 . S
H122 C115 0.930 . S
C123 C124 1.392 . S
C123 N127 1.328 . S
C123 H129 0.930 . S
C124 C123 1.392 . S
C124 N128 1.331 . S
C125 C126 1.391 . S
C125 N128 1.329 . S
C125 H135 0.930 . S
C126 C125 1.391 . S
C126 N127 1.334 . S
C126 H133 0.930 . S
N127 Zn111 2.119 . S
N127 C123 1.328 . S
N127 C126 1.334 . S
N128 C124 1.331 . S
N128 C125 1.329 . S
H129 C123 0.930 . S
C130 O110 1.257 . S
C130 O131 1.244 . S
O131 C130 1.244 . S
O132 C108 1.257 . S
O132 Zn111 2.019 . S
H133 C126 0.930 . S
H134 C113 0.930 . S
H135 C125 0.930 . S
Zn136 N140 2.020 . S
Zn136 O144 2.019 1_455 S
Zn136 N146 2.119 . S
Zn136 O154 1.975 . S
C137 N138 1.334 . S
C137 N141 1.336 . S
N138 C137 1.334 . S
N138 C139 1.334 . S
C139 N138 1.334 . S
C139 N140 1.336 . S
N140 Zn136 2.020 . S
N140 C139 1.336 . S
N140 N141 1.354 . S
N141 C137 1.336 . S
N141 N140 1.354 . S
N141 Zn145 2.020 . S
C142 O143 1.244 . S
C142 O166 1.257 . S
O143 C142 1.244 . S
O144 Zn136 2.019 1_655 S
O144 C164 1.257 . S
Zn145 N141 2.020 . S
Zn145 O152 1.975 . S
Zn145 N161 2.119 . S
Zn145 O166 2.019 . S
N146 Zn136 2.119 . S
N146 C148 1.334 . S
N146 C149 1.328 1_455 S
C147 C148 1.391 . S
C147 N150 1.332 1_455 S
C147 H168 0.930 1_565 S
C148 N146 1.334 . S
C148 C147 1.391 . S
C148 H155 0.930 . S
C149 N146 1.328 1_655 S
C149 C151 1.392 . S
C149 H156 0.930 . S
N150 C147 1.332 1_655 S
N150 C151 1.338 . S
C151 C149 1.392 . S
C151 N150 1.338 . S
O152 Zn145 1.975 . S
O152 C153 1.252 . S
C153 O152 1.252 . S
C153 O154 1.252 . S
O154 Zn136 1.975 . S
O154 C153 1.252 . S
H155 C148 0.930 . S
H156 C149 0.930 . S
C157 C158 1.392 . S
C157 N161 1.328 . S
C157 H163 0.930 . S
C158 C157 1.392 . S
C158 N162 1.331 . S
C159 C160 1.391 . S
C159 N162 1.329 . S
C159 H169 0.930 . S
C160 C159 1.391 . S
C160 N161 1.334 . S
C160 H167 0.930 . S
N161 Zn145 2.119 . S
N161 C157 1.328 . S
N161 C160 1.334 . S
N162 C158 1.331 . S
N162 C159 1.329 . S
H163 C157 0.930 . S
C164 O144 1.257 . S
C164 O165 1.244 . S
O165 C164 1.244 . S
O166 C142 1.257 . S
O166 Zn145 2.019 . S
H167 C160 0.930 . S
H168 C147 0.930 1_545 S
H169 C159 0.930 . S
Zn170 N174 2.020 . S
Zn170 O178 2.019 1_545 S
Zn170 N180 2.119 . S
Zn170 O188 1.975 . S
C171 N172 1.334 . S
C171 N175 1.336 . S
N172 C171 1.334 . S
N172 C173 1.334 . S
C173 N172 1.334 . S
C173 N174 1.336 . S
N174 Zn170 2.020 . S
N174 C173 1.336 . S
N174 N175 1.354 . S
N175 C171 1.336 . S
N175 N174 1.354 . S
N175 Zn179 2.020 . S
C176 O177 1.244 . S
C176 O200 1.257 . S
O177 C176 1.244 . S
O178 Zn170 2.019 1_565 S
O178 C198 1.257 . S
Zn179 N175 2.020 . S
Zn179 O186 1.975 . S
Zn179 N195 2.119 . S
Zn179 O200 2.019 . S
N180 Zn170 2.119 . S
N180 C182 1.334 . S
N180 C183 1.328 1_545 S
C181 C182 1.391 . S
C181 N184 1.329 1_545 S
C181 H202 0.930 . S
C182 N180 1.334 . S
C182 C181 1.391 . S
C182 H189 0.930 . S
C183 N180 1.328 1_565 S
C183 C185 1.392 . S
C183 H190 0.930 . S
N184 C181 1.329 1_565 S
N184 C185 1.331 . S
C185 C183 1.392 . S
C185 N184 1.331 . S
O186 Zn179 1.975 . S
O186 C187 1.252 . S
C187 O186 1.252 . S
C187 O188 1.252 . S
O188 Zn170 1.975 . S
O188 C187 1.252 . S
H189 C182 0.930 . S
H190 C183 0.930 . S
C191 C192 1.392 . S
C191 N195 1.328 . S
C191 H197 0.930 . S
C192 C191 1.392 . S
C192 N196 1.331 . S
C193 C194 1.391 . S
C193 N196 1.329 . S
C193 H203 0.930 . S
C194 C193 1.391 . S
C194 N195 1.334 . S
C194 H201 0.930 . S
N195 Zn179 2.119 . S
N195 C191 1.328 . S
N195 C194 1.334 . S
N196 C192 1.331 . S
N196 C193 1.329 . S
H197 C191 0.930 . S
C198 O178 1.257 . S
C198 O199 1.244 . S
O199 C198 1.244 . S
O200 C176 1.257 . S
O200 Zn179 2.019 . S
H201 C194 0.930 . S
H202 C181 0.930 . S
H203 C193 0.930 . S
Zn204 N208 2.020 . S
Zn204 O212 2.019 . S
Zn204 N214 2.119 . S
Zn204 O222 1.975 . S
C205 N206 1.334 . S
C205 N209 1.336 . S
N206 C205 1.334 . S
N206 C207 1.334 . S
C207 N206 1.334 . S
C207 N208 1.336 . S
N208 Zn204 2.020 . S
N208 C207 1.336 . S
N208 N209 1.354 . S
N209 C205 1.336 . S
N209 N208 1.354 . S
N209 Zn213 2.020 . S
C210 O211 1.244 . S
C210 O234 1.257 . S
O211 C210 1.244 . S
O212 Zn204 2.019 . S
O212 C232 1.257 . S
Zn213 N209 2.020 . S
Zn213 O220 1.975 . S
Zn213 N229 2.119 . S
Zn213 O234 2.019 . S
N214 Zn204 2.119 . S
N214 C216 1.334 . S
N214 C217 1.328 . S
C215 C216 1.391 . S
C215 N218 1.329 . S
C215 H236 0.930 . S
C216 N214 1.334 . S
C216 C215 1.391 . S
C216 H223 0.930 . S
C217 N214 1.328 . S
C217 C219 1.392 . S
C217 H224 0.930 . S
N218 C215 1.329 . S
N218 C219 1.331 . S
C219 C217 1.392 . S
C219 N218 1.331 . S
O220 Zn213 1.975 . S
O220 C221 1.252 . S
C221 O220 1.252 . S
C221 O222 1.252 . S
O222 Zn204 1.975 . S
O222 C221 1.252 . S
H223 C216 0.930 . S
H224 C217 0.930 . S
C225 C226 1.392 . S
C225 N229 1.328 . S
C225 H231 0.930 . S
C226 C225 1.392 . S
C226 N230 1.331 . S
C227 C228 1.391 . S
C227 N230 1.329 . S
C227 H237 0.930 . S
C228 C227 1.391 . S
C228 N229 1.334 . S
C228 H235 0.930 . S
N229 Zn213 2.119 . S
N229 C225 1.328 . S
N229 C228 1.334 . S
N230 C226 1.331 . S
N230 C227 1.329 . S
H231 C225 0.930 . S
C232 O212 1.257 . S
C232 O233 1.244 . S
O233 C232 1.244 . S
O234 C210 1.257 . S
O234 Zn213 2.019 . S
H235 C228 0.930 . S
H236 C215 0.930 . S
H237 C227 0.930 . S
Zn238 N242 2.020 . S
Zn238 O246 2.019 . S
Zn238 N248 2.119 . S
Zn238 O256 1.975 . S
C239 N240 1.334 . S
C239 N243 1.336 . S
N240 C239 1.334 . S
N240 C241 1.334 . S
C241 N240 1.334 . S
C241 N242 1.336 . S
N242 Zn238 2.020 . S
N242 C241 1.336 . S
N242 N243 1.354 . S
N243 C239 1.336 . S
N243 N242 1.354 . S
N243 Zn247 2.020 . S
C244 O245 1.244 . S
C244 O268 1.257 . S
O245 C244 1.244 . S
O246 Zn238 2.019 . S
O246 C266 1.257 . S
Zn247 N243 2.020 . S
Zn247 O254 1.975 . S
Zn247 N263 2.119 . S
Zn247 O268 2.019 . S
N248 Zn238 2.119 . S
N248 C250 1.334 . S
N248 C251 1.328 . S
C249 C250 1.391 . S
C249 N252 1.329 . S
C249 H270 0.930 . S
C250 N248 1.334 . S
C250 C249 1.391 . S
C250 H257 0.930 . S
C251 N248 1.328 . S
C251 C253 1.392 . S
C251 H258 0.930 . S
N252 C249 1.329 . S
N252 C253 1.331 . S
C253 C251 1.392 . S
C253 N252 1.331 . S
O254 Zn247 1.975 . S
O254 C255 1.252 . S
C255 O254 1.252 . S
C255 O256 1.252 . S
O256 Zn238 1.975 . S
O256 C255 1.252 . S
H257 C250 0.930 . S
H258 C251 0.930 . S
C259 C260 1.392 . S
C259 N263 1.328 . S
C259 H265 0.930 . S
C260 C259 1.392 . S
C260 N264 1.338 . S
C261 C262 1.391 . S
C261 N264 1.332 . S
C261 H271 0.930 1_655 S
C262 C261 1.391 . S
C262 N263 1.334 . S
C262 H269 0.930 . S
N263 Zn247 2.119 . S
N263 C259 1.328 . S
N263 C262 1.334 . S
N264 C260 1.338 . S
N264 C261 1.332 . S
H265 C259 0.930 . S
C266 O246 1.257 . S
C266 O267 1.244 . S
O267 C266 1.244 . S
O268 C244 1.257 . S
O268 Zn247 2.019 . S
H269 C262 0.930 . S
H270 C249 0.930 . S
H271 C261 0.930 1_455 S
Zn272 N276 2.020 . S
Zn272 O280 2.019 1_545 S
Zn272 N282 2.119 . S
Zn272 O290 1.975 . S
C273 N274 1.334 . S
C273 N277 1.336 . S
N274 C273 1.334 . S
N274 C275 1.334 . S
C275 N274 1.334 . S
C275 N276 1.336 . S
N276 Zn272 2.020 . S
N276 C275 1.336 . S
N276 N277 1.354 . S
N277 C273 1.336 . S
N277 N276 1.354 . S
N277 Zn281 2.020 . S
C278 O279 1.244 . S
C278 O302 1.257 . S
O279 C278 1.244 . S
O280 Zn272 2.019 1_565 S
O280 C300 1.257 . S
Zn281 N277 2.020 . S
Zn281 O288 1.975 . S
Zn281 N297 2.119 . S
Zn281 O302 2.019 . S
N282 Zn272 2.119 . S
N282 C284 1.334 . S
N282 C285 1.328 1_545 S
C283 C284 1.391 . S
C283 N286 1.329 1_545 S
C283 H304 0.930 . S
C284 N282 1.334 . S
C284 C283 1.391 . S
C284 H291 0.930 . S
C285 N282 1.328 1_565 S
C285 C287 1.392 . S
C285 H292 0.930 . S
N286 C283 1.329 1_565 S
N286 C287 1.331 . S
C287 C285 1.392 . S
C287 N286 1.331 . S
O288 Zn281 1.975 . S
O288 C289 1.252 . S
C289 O288 1.252 . S
C289 O290 1.252 . S
O290 Zn272 1.975 . S
O290 C289 1.252 . S
H291 C284 0.930 . S
H292 C285 0.930 . S
C293 C294 1.392 . S
C293 N297 1.328 . S
C293 H299 0.930 . S
C294 C293 1.392 . S
C294 N298 1.331 . S
C295 C296 1.391 . S
C295 N298 1.329 . S
C295 H305 0.930 . S
C296 C295 1.391 . S
C296 N297 1.334 . S
C296 H303 0.930 . S
N297 Zn281 2.119 . S
N297 C293 1.328 . S
N297 C296 1.334 . S
N298 C294 1.331 . S
N298 C295 1.329 . S
H299 C293 0.930 . S
C300 O280 1.257 . S
C300 O301 1.244 . S
O301 C300 1.244 . S
O302 C278 1.257 . S
O302 Zn281 2.019 . S
H303 C296 0.930 . S
H304 C283 0.930 . S
H305 C295 0.930 . S
Zn306 N310 2.020 . S
Zn306 O314 2.019 . S
Zn306 N316 2.119 . S
Zn306 O324 1.975 . S
C307 N308 1.334 . S
C307 N311 1.336 . S
N308 C307 1.334 . S
N308 C309 1.334 . S
C309 N308 1.334 . S
C309 N310 1.336 . S
N310 Zn306 2.020 . S
N310 C309 1.336 . S
N310 N311 1.354 . S
N311 C307 1.336 . S
N311 N310 1.354 . S
N311 Zn315 2.020 . S
C312 O313 1.244 . S
C312 O336 1.257 . S
O313 C312 1.244 . S
O314 Zn306 2.019 . S
O314 C334 1.257 . S
Zn315 N311 2.020 . S
Zn315 O322 1.975 . S
Zn315 N331 2.119 . S
Zn315 O336 2.019 . S
N316 Zn306 2.119 . S
N316 C318 1.334 . S
N316 C319 1.328 . S
C317 C318 1.391 . S
C317 N320 1.329 . S
C317 H338 0.930 . S
C318 N316 1.334 . S
C318 C317 1.391 . S
C318 H325 0.930 . S
C319 N316 1.328 . S
C319 C321 1.392 . S
C319 H326 0.930 . S
N320 C317 1.329 . S
N320 C321 1.331 . S
C321 C319 1.392 . S
C321 N320 1.331 . S
O322 Zn315 1.975 . S
O322 C323 1.252 . S
C323 O322 1.252 . S
C323 O324 1.252 . S
O324 Zn306 1.975 . S
O324 C323 1.252 . S
H325 C318 0.930 . S
H326 C319 0.930 . S
C327 C328 1.392 . S
C327 N331 1.328 . S
C327 H333 0.930 . S
C328 C327 1.392 . S
C328 N332 1.331 . S
C329 C330 1.391 . S
C329 N332 1.329 . S
C329 H339 0.930 . S
C330 C329 1.391 . S
C330 N331 1.334 . S
C330 H337 0.930 . S
N331 Zn315 2.119 . S
N331 C327 1.328 . S
N331 C330 1.334 . S
N332 C328 1.331 . S
N332 C329 1.329 . S
H333 C327 0.930 . S
C334 O314 1.257 . S
C334 O335 1.244 . S
O335 C334 1.244 . S
O336 C312 1.257 . S
O336 Zn315 2.019 . S
H337 C330 0.930 . S
H338 C317 0.930 . S
H339 C329 0.930 . S
Zn340 N344 2.020 . S
Zn340 O348 2.019 . S
Zn340 N350 2.119 . S
Zn340 O358 1.975 . S
C341 N342 1.334 . S
C341 N345 1.336 . S
N342 C341 1.334 . S
N342 C343 1.334 . S
C343 N342 1.334 . S
C343 N344 1.336 . S
N344 Zn340 2.020 . S
N344 C343 1.336 . S
N344 N345 1.354 . S
N345 C341 1.336 . S
N345 N344 1.354 . S
N345 Zn349 2.020 . S
C346 O347 1.244 . S
C346 O370 1.257 . S
O347 C346 1.244 . S
O348 Zn340 2.019 . S
O348 C368 1.257 . S
Zn349 N345 2.020 . S
Zn349 O356 1.975 . S
Zn349 N365 2.119 . S
Zn349 O370 2.019 . S
N350 Zn340 2.119 . S
N350 C352 1.334 . S
N350 C353 1.328 . S
C351 C352 1.391 . S
C351 N354 1.329 . S
C351 H372 0.930 . S
C352 N350 1.334 . S
C352 C351 1.391 . S
C352 H359 0.930 . S
C353 N350 1.328 . S
C353 C355 1.392 . S
C353 H360 0.930 . S
N354 C351 1.329 . S
N354 C355 1.331 . S
C355 C353 1.392 . S
C355 N354 1.331 . S
O356 Zn349 1.975 . S
O356 C357 1.252 . S
C357 O356 1.252 . S
C357 O358 1.252 . S
O358 Zn340 1.975 . S
O358 C357 1.252 . S
H359 C352 0.930 . S
H360 C353 0.930 . S
C361 C362 1.392 . S
C361 N365 1.328 . S
C361 H367 0.930 . S
C362 C361 1.392 . S
C362 N366 1.331 . S
C363 C364 1.391 . S
C363 N366 1.329 . S
C363 H373 0.930 . S
C364 C363 1.391 . S
C364 N365 1.334 . S
C364 H371 0.930 . S
N365 Zn349 2.119 . S
N365 C361 1.328 . S
N365 C364 1.334 . S
N366 C362 1.331 . S
N366 C363 1.329 . S
H367 C361 0.930 . S
C368 O348 1.257 . S
C368 O369 1.244 . S
O369 C368 1.244 . S
O370 C346 1.257 . S
O370 Zn349 2.019 . S
H371 C364 0.930 . S
H372 C351 0.930 . S
H373 C363 0.930 . S
Zn374 N378 2.020 . S
Zn374 O382 2.019 1_455 S
Zn374 N384 2.119 . S
Zn374 O392 1.975 . S
C375 N376 1.334 . S
C375 N379 1.336 . S
N376 C375 1.334 . S
N376 C377 1.334 . S
C377 N376 1.334 . S
C377 N378 1.336 . S
N378 Zn374 2.020 . S
N378 C377 1.336 . S
N378 N379 1.354 . S
N379 C375 1.336 . S
N379 N378 1.354 . S
N379 Zn383 2.020 . S
C380 O381 1.244 . S
C380 O404 1.257 . S
O381 C380 1.244 . S
O382 Zn374 2.019 1_655 S
O382 C402 1.257 . S
Zn383 N379 2.020 . S
Zn383 O390 1.975 . S
Zn383 N399 2.119 . S
Zn383 O404 2.019 . S
N384 Zn374 2.119 . S
N384 C386 1.334 . S
N384 C387 1.328 1_455 S
C385 C386 1.391 . S
C385 N388 1.329 1_455 S
C385 H406 0.930 . S
C386 N384 1.334 . S
C386 C385 1.391 . S
C386 H393 0.930 . S
C387 N384 1.328 1_655 S
C387 C389 1.392 . S
C387 H394 0.930 . S
N388 C385 1.329 1_655 S
N388 C389 1.331 . S
C389 C387 1.392 . S
C389 N388 1.331 . S
O390 Zn383 1.975 . S
O390 C391 1.252 . S
C391 O390 1.252 . S
C391 O392 1.252 . S
O392 Zn374 1.975 . S
O392 C391 1.252 . S
H393 C386 0.930 . S
H394 C387 0.930 . S
C395 C396 1.392 . S
C395 N399 1.328 . S
C395 H401 0.930 . S
C396 C395 1.392 . S
C396 N400 1.331 . S
C397 C398 1.391 . S
C397 N400 1.329 . S
C397 H407 0.930 . S
C398 C397 1.391 . S
C398 N399 1.334 . S
C398 H405 0.930 . S
N399 Zn383 2.119 . S
N399 C395 1.328 . S
N399 C398 1.334 . S
N400 C396 1.331 . S
N400 C397 1.329 . S
H401 C395 0.930 . S
C402 O382 1.257 . S
C402 O403 1.244 . S
O403 C402 1.244 . S
O404 C380 1.257 . S
O404 Zn383 2.019 . S
H405 C398 0.930 . S
H406 C385 0.930 . S
H407 C397 0.930 . S
Zn408 N412 2.020 . S
Zn408 O416 2.019 . S
Zn408 N418 2.119 . S
Zn408 O426 1.975 . S
C409 N410 1.334 . S
C409 N413 1.336 . S
N410 C409 1.334 . S
N410 C411 1.334 . S
C411 N410 1.334 . S
C411 N412 1.336 . S
N412 Zn408 2.020 . S
N412 C411 1.336 . S
N412 N413 1.354 . S
N413 C409 1.336 . S
N413 N412 1.354 . S
N413 Zn417 2.020 . S
C414 O415 1.244 . S
C414 O438 1.257 . S
O415 C414 1.244 . S
O416 Zn408 2.019 . S
O416 C436 1.257 . S
Zn417 N413 2.020 . S
Zn417 O424 1.975 . S
Zn417 N433 2.119 . S
Zn417 O438 2.019 . S
N418 Zn408 2.119 . S
N418 C420 1.334 . S
N418 C421 1.328 . S
C419 C420 1.391 . S
C419 N422 1.329 . S
C419 H440 0.930 . S
C420 N418 1.334 . S
C420 C419 1.391 . S
C420 H427 0.930 . S
C421 N418 1.328 . S
C421 C423 1.392 . S
C421 H428 0.930 . S
N422 C419 1.329 . S
N422 C423 1.331 . S
C423 C421 1.392 . S
C423 N422 1.331 . S
O424 Zn417 1.975 . S
O424 C425 1.252 . S
C425 O424 1.252 . S
C425 O426 1.252 . S
O426 Zn408 1.975 . S
O426 C425 1.252 . S
H427 C420 0.930 . S
H428 C421 0.930 . S
C429 C430 1.392 . S
C429 N433 1.328 . S
C429 H435 0.930 . S
C430 C429 1.392 . S
C430 N434 1.338 . S
C431 C432 1.391 . S
C431 N434 1.332 . S
C431 H441 0.930 1_556 S
C432 C431 1.391 . S
C432 N433 1.334 . S
C432 H439 0.930 . S
N433 Zn417 2.119 . S
N433 C429 1.328 . S
N433 C432 1.334 . S
N434 C430 1.338 . S
N434 C431 1.332 . S
H435 C429 0.930 . S
C436 O416 1.257 . S
C436 O437 1.244 . S
O437 C436 1.244 . S
O438 C414 1.257 . S
O438 Zn417 2.019 . S
H439 C432 0.930 . S
H440 C419 0.930 . S
H441 C431 0.930 1_554 S
Zn442 N446 2.020 . S
Zn442 O450 2.019 . S
Zn442 N452 2.119 . S
Zn442 O460 1.975 . S
C443 N444 1.334 . S
C443 N447 1.336 . S
N444 C443 1.334 . S
N444 C445 1.334 . S
C445 N444 1.334 . S
C445 N446 1.336 . S
N446 Zn442 2.020 . S
N446 C445 1.336 . S
N446 N447 1.354 . S
N447 C443 1.336 . S
N447 N446 1.354 . S
N447 Zn451 2.020 . S
C448 O449 1.244 . S
C448 O472 1.257 . S
O449 C448 1.244 . S
O450 Zn442 2.019 . S
O450 C470 1.257 . S
Zn451 N447 2.020 . S
Zn451 O458 1.975 . S
Zn451 N467 2.119 . S
Zn451 O472 2.019 1_455 S
N452 Zn442 2.119 . S
N452 C454 1.334 . S
N452 C455 1.328 . S
C453 C454 1.391 . S
C453 N456 1.329 . S
C453 H474 0.930 . S
C454 N452 1.334 . S
C454 C453 1.391 . S
C454 H461 0.930 . S
C455 N452 1.328 . S
C455 C457 1.392 . S
C455 H462 0.930 . S
N456 C453 1.329 . S
N456 C457 1.331 . S
C457 C455 1.392 . S
C457 N456 1.331 . S
O458 Zn451 1.975 . S
O458 C459 1.252 . S
C459 O458 1.252 . S
C459 O460 1.252 . S
O460 Zn442 1.975 . S
O460 C459 1.252 . S
H461 C454 0.930 . S
H462 C455 0.930 . S
C463 C464 1.392 . S
C463 N467 1.328 1_655 S
C463 H469 0.930 . S
C464 C463 1.392 . S
C464 N468 1.338 . S
C465 C466 1.391 . S
C465 N468 1.332 1_455 S
C465 H475 0.930 1_556 S
C466 C465 1.391 . S
C466 N467 1.334 . S
C466 H473 0.930 . S
N467 Zn451 2.119 . S
N467 C463 1.328 1_455 S
N467 C466 1.334 . S
N468 C464 1.338 . S
N468 C465 1.332 1_655 S
H469 C463 0.930 . S
C470 O450 1.257 . S
C470 O471 1.244 . S
O471 C470 1.244 . S
O472 C448 1.257 . S
O472 Zn451 2.019 1_655 S
H473 C466 0.930 . S
H474 C453 0.930 . S
H475 C465 0.930 1_554 S
Zn476 N480 2.020 . S
Zn476 O484 2.019 1_545 S
Zn476 N486 2.119 . S
Zn476 O494 1.975 . S
C477 N478 1.334 . S
C477 N481 1.336 . S
N478 C477 1.334 . S
N478 C479 1.334 . S
C479 N478 1.334 . S
C479 N480 1.336 . S
N480 Zn476 2.020 . S
N480 C479 1.336 . S
N480 N481 1.354 . S
N481 C477 1.336 . S
N481 N480 1.354 . S
N481 Zn485 2.020 . S
C482 O483 1.244 . S
C482 O506 1.257 . S
O483 C482 1.244 . S
O484 Zn476 2.019 1_565 S
O484 C504 1.257 . S
Zn485 N481 2.020 . S
Zn485 O492 1.975 . S
Zn485 N501 2.119 . S
Zn485 O506 2.019 . S
N486 Zn476 2.119 . S
N486 C488 1.334 . S
N486 C489 1.328 1_545 S
C487 C488 1.391 . S
C487 N490 1.332 1_545 S
C487 H508 0.930 1_556 S
C488 N486 1.334 . S
C488 C487 1.391 . S
C488 H495 0.930 . S
C489 N486 1.328 1_565 S
C489 C491 1.392 . S
C489 H496 0.930 . S
N490 C487 1.332 1_565 S
N490 C491 1.338 . S
C491 C489 1.392 . S
C491 N490 1.338 . S
O492 Zn485 1.975 . S
O492 C493 1.252 . S
C493 O492 1.252 . S
C493 O494 1.252 . S
O494 Zn476 1.975 . S
O494 C493 1.252 . S
H495 C488 0.930 . S
H496 C489 0.930 . S
C497 C498 1.392 . S
C497 N501 1.328 . S
C497 H503 0.930 . S
C498 C497 1.392 . S
C498 N502 1.331 . S
C499 C500 1.391 . S
C499 N502 1.329 . S
C499 H509 0.930 . S
C500 C499 1.391 . S
C500 N501 1.334 . S
C500 H507 0.930 . S
N501 Zn485 2.119 . S
N501 C497 1.328 . S
N501 C500 1.334 . S
N502 C498 1.331 . S
N502 C499 1.329 . S
H503 C497 0.930 . S
C504 O484 1.257 . S
C504 O505 1.244 . S
O505 C504 1.244 . S
O506 C482 1.257 . S
O506 Zn485 2.019 . S
H507 C500 0.930 . S
H508 C487 0.930 1_554 S
H509 C499 0.930 . S
Zn510 N514 2.020 . S
Zn510 O518 2.019 . S
Zn510 N520 2.119 . S
Zn510 O528 1.975 . S
C511 N512 1.334 . S
C511 N515 1.336 . S
N512 C511 1.334 . S
N512 C513 1.334 . S
C513 N512 1.334 . S
C513 N514 1.336 . S
N514 Zn510 2.020 . S
N514 C513 1.336 . S
N514 N515 1.354 . S
N515 C511 1.336 . S
N515 N514 1.354 . S
N515 Zn519 2.020 . S
C516 O517 1.244 . S
C516 O540 1.257 . S
O517 C516 1.244 . S
O518 Zn510 2.019 . S
O518 C538 1.257 . S
Zn519 N515 2.020 . S
Zn519 O526 1.975 . S
Zn519 N535 2.119 . S
Zn519 O540 2.019 . S
N520 Zn510 2.119 . S
N520 C522 1.334 . S
N520 C523 1.328 . S
C521 C522 1.391 . S
C521 N524 1.329 . S
C521 H542 0.930 . S
C522 N520 1.334 . S
C522 C521 1.391 . S
C522 H529 0.930 . S
C523 N520 1.328 . S
C523 C525 1.392 . S
C523 H530 0.930 . S
N524 C521 1.329 . S
N524 C525 1.331 . S
C525 C523 1.392 . S
C525 N524 1.331 . S
O526 Zn519 1.975 . S
O526 C527 1.252 . S
C527 O526 1.252 . S
C527 O528 1.252 . S
O528 Zn510 1.975 . S
O528 C527 1.252 . S
H529 C522 0.930 . S
H530 C523 0.930 . S
C531 C532 1.392 . S
C531 N535 1.328 . S
C531 H537 0.930 . S
C532 C531 1.392 . S
C532 N536 1.338 . S
C533 C534 1.391 . S
C533 N536 1.332 . S
C533 H543 0.930 1_556 S
C534 C533 1.391 . S
C534 N535 1.334 . S
C534 H541 0.930 . S
N535 Zn519 2.119 . S
N535 C531 1.328 . S
N535 C534 1.334 . S
N536 C532 1.338 . S
N536 C533 1.332 . S
H537 C531 0.930 . S
C538 O518 1.257 . S
C538 O539 1.244 . S
O539 C538 1.244 . S
O540 C516 1.257 . S
O540 Zn519 2.019 . S
H541 C534 0.930 . S
H542 C521 0.930 . S
H543 C533 0.930 1_554 S
Zn544 N548 2.020 . S
Zn544 O552 2.019 1_554 S
Zn544 N554 2.119 . S
Zn544 O562 1.975 . S
C545 N546 1.334 . S
C545 N549 1.336 . S
N546 C545 1.334 . S
N546 C547 1.334 . S
C547 N546 1.334 . S
C547 N548 1.336 . S
N548 Zn544 2.020 . S
N548 C547 1.336 . S
N548 N549 1.354 . S
N549 C545 1.336 . S
N549 N548 1.354 . S
N549 Zn553 2.020 . S
C550 O551 1.244 . S
C550 O574 1.257 . S
O551 C550 1.244 . S
O552 Zn544 2.019 1_556 S
O552 C572 1.257 . S
Zn553 N549 2.020 . S
Zn553 O560 1.975 . S
Zn553 N569 2.119 . S
Zn553 O574 2.019 . S
N554 Zn544 2.119 . S
N554 C556 1.334 . S
N554 C557 1.328 1_554 S
C555 C556 1.391 . S
C555 N558 1.329 1_554 S
C555 H576 0.930 . S
C556 N554 1.334 . S
C556 C555 1.391 . S
C556 H563 0.930 . S
C557 N554 1.328 1_556 S
C557 C559 1.392 . S
C557 H564 0.930 . S
N558 C555 1.329 1_556 S
N558 C559 1.331 . S
C559 C557 1.392 . S
C559 N558 1.331 . S
O560 Zn553 1.975 . S
O560 C561 1.252 . S
C561 O560 1.252 . S
C561 O562 1.252 . S
O562 Zn544 1.975 . S
O562 C561 1.252 . S
H563 C556 0.930 . S
H564 C557 0.930 . S
C565 C566 1.392 . S
C565 N569 1.328 . S
C565 H571 0.930 . S
C566 C565 1.392 . S
C566 N570 1.331 . S
C567 C568 1.391 . S
C567 N570 1.329 . S
C567 H577 0.930 . S
C568 C567 1.391 . S
C568 N569 1.334 . S
C568 H575 0.930 . S
N569 Zn553 2.119 . S
N569 C565 1.328 . S
N569 C568 1.334 . S
N570 C566 1.331 . S
N570 C567 1.329 . S
H571 C565 0.930 . S
C572 O552 1.257 . S
C572 O573 1.244 . S
O573 C572 1.244 . S
O574 C550 1.257 . S
O574 Zn553 2.019 . S
H575 C568 0.930 . S
H576 C555 0.930 . S
H577 C567 0.930 . S
Zn578 N582 2.020 . S
Zn578 O586 2.019 . S
Zn578 N588 2.119 . S
Zn578 O596 1.975 . S
C579 N580 1.334 . S
C579 N583 1.336 . S
N580 C579 1.334 . S
N580 C581 1.334 . S
C581 N580 1.334 . S
C581 N582 1.336 . S
N582 Zn578 2.020 . S
N582 C581 1.336 . S
N582 N583 1.354 . S
N583 C579 1.336 . S
N583 N582 1.354 . S
N583 Zn587 2.020 . S
C584 O585 1.244 . S
C584 O608 1.257 . S
O585 C584 1.244 . S
O586 Zn578 2.019 . S
O586 C606 1.257 . S
Zn587 N583 2.020 . S
Zn587 O594 1.975 . S
Zn587 N603 2.119 . S
Zn587 O608 2.019 . S
N588 Zn578 2.119 . S
N588 C590 1.334 . S
N588 C591 1.328 . S
C589 C590 1.391 . S
C589 N592 1.329 . S
C589 H610 0.930 . S
C590 N588 1.334 . S
C590 C589 1.391 . S
C590 H597 0.930 . S
C591 N588 1.328 . S
C591 C593 1.392 . S
C591 H598 0.930 . S
N592 C589 1.329 . S
N592 C593 1.331 . S
C593 C591 1.392 . S
C593 N592 1.331 . S
O594 Zn587 1.975 . S
O594 C595 1.252 . S
C595 O594 1.252 . S
C595 O596 1.252 . S
O596 Zn578 1.975 . S
O596 C595 1.252 . S
H597 C590 0.930 . S
H598 C591 0.930 . S
C599 C600 1.392 . S
C599 N603 1.328 . S
C599 H605 0.930 . S
C600 C599 1.392 . S
C600 N604 1.331 . S
C601 C602 1.391 . S
C601 N604 1.329 . S
C601 H611 0.930 . S
C602 C601 1.391 . S
C602 N603 1.334 . S
C602 H609 0.930 . S
N603 Zn587 2.119 . S
N603 C599 1.328 . S
N603 C602 1.334 . S
N604 C600 1.331 . S
N604 C601 1.329 . S
H605 C599 0.930 . S
C606 O586 1.257 . S
C606 O607 1.244 . S
O607 C606 1.244 . S
O608 C584 1.257 . S
O608 Zn587 2.019 . S
H609 C602 0.930 . S
H610 C589 0.930 . S
H611 C601 0.930 . S
Zn612 N616 2.020 . S
Zn612 O620 2.019 . S
Zn612 N622 2.119 . S
Zn612 O630 1.975 . S
C613 N614 1.334 . S
C613 N617 1.336 . S
N614 C613 1.334 . S
N614 C615 1.334 . S
C615 N614 1.334 . S
C615 N616 1.336 . S
N616 Zn612 2.020 . S
N616 C615 1.336 . S
N616 N617 1.354 . S
N617 C613 1.336 . S
N617 N616 1.354 . S
N617 Zn621 2.020 . S
C618 O619 1.244 . S
C618 O642 1.257 . S
O619 C618 1.244 . S
O620 Zn612 2.019 . S
O620 C640 1.257 . S
Zn621 N617 2.020 . S
Zn621 O628 1.975 . S
Zn621 N637 2.119 . S
Zn621 O642 2.019 . S
N622 Zn612 2.119 . S
N622 C624 1.334 . S
N622 C625 1.328 . S
C623 C624 1.391 . S
C623 N626 1.329 . S
C623 H644 0.930 . S
C624 N622 1.334 . S
C624 C623 1.391 . S
C624 H631 0.930 . S
C625 N622 1.328 . S
C625 C627 1.392 . S
C625 H632 0.930 . S
N626 C623 1.329 . S
N626 C627 1.331 . S
C627 C625 1.392 . S
C627 N626 1.331 . S
O628 Zn621 1.975 . S
O628 C629 1.252 . S
C629 O628 1.252 . S
C629 O630 1.252 . S
O630 Zn612 1.975 . S
O630 C629 1.252 . S
H631 C624 0.930 . S
H632 C625 0.930 . S
C633 C634 1.392 . S
C633 N637 1.328 . S
C633 H639 0.930 . S
C634 C633 1.392 . S
C634 N638 1.331 . S
C635 C636 1.391 . S
C635 N638 1.329 . S
C635 H645 0.930 . S
C636 C635 1.391 . S
C636 N637 1.334 . S
C636 H643 0.930 . S
N637 Zn621 2.119 . S
N637 C633 1.328 . S
N637 C636 1.334 . S
N638 C634 1.331 . S
N638 C635 1.329 . S
H639 C633 0.930 . S
C640 O620 1.257 . S
C640 O641 1.244 . S
O641 C640 1.244 . S
O642 C618 1.257 . S
O642 Zn621 2.019 . S
H643 C636 0.930 . S
H644 C623 0.930 . S
H645 C635 0.930 . S
Zn646 N650 2.020 . S
Zn646 O654 2.019 . S
Zn646 N656 2.119 . S
Zn646 O664 1.975 . S
C647 N648 1.334 . S
C647 N651 1.336 . S
N648 C647 1.334 . S
N648 C649 1.334 . S
C649 N648 1.334 . S
C649 N650 1.336 . S
N650 Zn646 2.020 . S
N650 C649 1.336 . S
N650 N651 1.354 . S
N651 C647 1.336 . S
N651 N650 1.354 . S
N651 Zn655 2.020 . S
C652 O653 1.244 . S
C652 O676 1.257 . S
O653 C652 1.244 . S
O654 Zn646 2.019 . S
O654 C674 1.257 . S
Zn655 N651 2.020 . S
Zn655 O662 1.975 . S
Zn655 N671 2.119 . S
Zn655 O676 2.019 . S
N656 Zn646 2.119 . S
N656 C658 1.334 . S
N656 C659 1.328 . S
C657 C658 1.391 . S
C657 N660 1.329 . S
C657 H678 0.930 . S
C658 N656 1.334 . S
C658 C657 1.391 . S
C658 H665 0.930 . S
C659 N656 1.328 . S
C659 C661 1.392 . S
C659 H666 0.930 . S
N660 C657 1.329 . S
N660 C661 1.331 . S
C661 C659 1.392 . S
C661 N660 1.331 . S
O662 Zn655 1.975 . S
O662 C663 1.252 . S
C663 O662 1.252 . S
C663 O664 1.252 . S
O664 Zn646 1.975 . S
O664 C663 1.252 . S
H665 C658 0.930 . S
H666 C659 0.930 . S
C667 C668 1.392 . S
C667 N671 1.328 . S
C667 H673 0.930 . S
C668 C667 1.392 . S
C668 N672 1.338 . S
C669 C670 1.391 . S
C669 N672 1.332 . S
C669 H679 0.930 1_655 S
C670 C669 1.391 . S
C670 N671 1.334 . S
C670 H677 0.930 . S
N671 Zn655 2.119 . S
N671 C667 1.328 . S
N671 C670 1.334 . S
N672 C668 1.338 . S
N672 C669 1.332 . S
H673 C667 0.930 . S
C674 O654 1.257 . S
C674 O675 1.244 . S
O675 C674 1.244 . S
O676 C652 1.257 . S
O676 Zn655 2.019 . S
H677 C670 0.930 . S
H678 C657 0.930 . S
H679 C669 0.930 1_455 S
Zn680 N684 2.020 . S
Zn680 O688 2.019 . S
Zn680 N690 2.119 . S
Zn680 O698 1.975 . S
C681 N682 1.334 . S
C681 N685 1.336 . S
N682 C681 1.334 . S
N682 C683 1.334 . S
C683 N682 1.334 . S
C683 N684 1.336 . S
N684 Zn680 2.020 . S
N684 C683 1.336 . S
N684 N685 1.354 . S
N685 C681 1.336 . S
N685 N684 1.354 . S
N685 Zn689 2.020 . S
C686 O687 1.244 . S
C686 O710 1.257 . S
O687 C686 1.244 . S
O688 Zn680 2.019 . S
O688 C708 1.257 . S
Zn689 N685 2.020 . S
Zn689 O696 1.975 . S
Zn689 N705 2.119 . S
Zn689 O710 2.019 . S
N690 Zn680 2.119 . S
N690 C692 1.334 . S
N690 C693 1.328 . S
C691 C692 1.391 . S
C691 N694 1.332 . S
C691 H712 0.930 1_565 S
C692 N690 1.334 . S
C692 C691 1.391 . S
C692 H699 0.930 . S
C693 N690 1.328 . S
C693 C695 1.392 . S
C693 H700 0.930 . S
N694 C691 1.332 . S
N694 C695 1.338 . S
C695 C693 1.392 . S
C695 N694 1.338 . S
O696 Zn689 1.975 . S
O696 C697 1.252 . S
C697 O696 1.252 . S
C697 O698 1.252 . S
O698 Zn680 1.975 . S
O698 C697 1.252 . S
H699 C692 0.930 . S
H700 C693 0.930 . S
C701 C702 1.392 . S
C701 N705 1.328 . S
C701 H707 0.930 . S
C702 C701 1.392 . S
C702 N706 1.331 . S
C703 C704 1.391 . S
C703 N706 1.329 . S
C703 H713 0.930 . S
C704 C703 1.391 . S
C704 N705 1.334 . S
C704 H711 0.930 . S
N705 Zn689 2.119 . S
N705 C701 1.328 . S
N705 C704 1.334 . S
N706 C702 1.331 . S
N706 C703 1.329 . S
H707 C701 0.930 . S
C708 O688 1.257 . S
C708 O709 1.244 . S
O709 C708 1.244 . S
O710 C686 1.257 . S
O710 Zn689 2.019 . S
H711 C704 0.930 . S
H712 C691 0.930 1_545 S
H713 C703 0.930 . S
Zn714 N718 2.020 . S
Zn714 O722 2.019 1_554 S
Zn714 N724 2.119 . S
Zn714 O732 1.975 . S
C715 N716 1.334 . S
C715 N719 1.336 . S
N716 C715 1.334 . S
N716 C717 1.334 . S
C717 N716 1.334 . S
C717 N718 1.336 . S
N718 Zn714 2.020 . S
N718 C717 1.336 . S
N718 N719 1.354 . S
N719 C715 1.336 . S
N719 N718 1.354 . S
N719 Zn723 2.020 . S
C720 O721 1.244 . S
C720 O744 1.257 . S
O721 C720 1.244 . S
O722 Zn714 2.019 1_556 S
O722 C742 1.257 . S
Zn723 N719 2.020 . S
Zn723 O730 1.975 . S
Zn723 N739 2.119 . S
Zn723 O744 2.019 . S
N724 Zn714 2.119 . S
N724 C726 1.334 . S
N724 C727 1.328 1_554 S
C725 C726 1.391 . S
C725 N728 1.332 1_554 S
C725 H746 0.930 1_655 S
C726 N724 1.334 . S
C726 C725 1.391 . S
C726 H733 0.930 . S
C727 N724 1.328 1_556 S
C727 C729 1.392 . S
C727 H734 0.930 . S
N728 C725 1.332 1_556 S
N728 C729 1.338 . S
C729 C727 1.392 . S
C729 N728 1.338 . S
O730 Zn723 1.975 . S
O730 C731 1.252 . S
C731 O730 1.252 . S
C731 O732 1.252 . S
O732 Zn714 1.975 . S
O732 C731 1.252 . S
H733 C726 0.930 . S
H734 C727 0.930 . S
C735 C736 1.392 . S
C735 N739 1.328 . S
C735 H741 0.930 . S
C736 C735 1.392 . S
C736 N740 1.331 . S
C737 C738 1.391 . S
C737 N740 1.329 . S
C737 H747 0.930 . S
C738 C737 1.391 . S
C738 N739 1.334 . S
C738 H745 0.930 . S
N739 Zn723 2.119 . S
N739 C735 1.328 . S
N739 C738 1.334 . S
N740 C736 1.331 . S
N740 C737 1.329 . S
H741 C735 0.930 . S
C742 O722 1.257 . S
C742 O743 1.244 . S
O743 C742 1.244 . S
O744 C720 1.257 . S
O744 Zn723 2.019 . S
H745 C738 0.930 . S
H746 C725 0.930 1_455 S
H747 C737 0.930 . S
Zn748 N752 2.020 . S
Zn748 O756 2.019 1_554 S
Zn748 N758 2.119 . S
Zn748 O766 1.975 . S
C749 N750 1.334 . S
C749 N753 1.336 . S
N750 C749 1.334 . S
N750 C751 1.334 . S
C751 N750 1.334 . S
C751 N752 1.336 . S
N752 Zn748 2.020 . S
N752 C751 1.336 . S
N752 N753 1.354 . S
N753 C749 1.336 . S
N753 N752 1.354 . S
N753 Zn757 2.020 . S
C754 O755 1.244 . S
C754 O778 1.257 . S
O755 C754 1.244 . S
O756 Zn748 2.019 1_556 S
O756 C776 1.257 . S
Zn757 N753 2.020 . S
Zn757 O764 1.975 . S
Zn757 N773 2.119 . S
Zn757 O778 2.019 . S
N758 Zn748 2.119 . S
N758 C760 1.334 . S
N758 C761 1.328 1_554 S
C759 C760 1.391 . S
C759 N762 1.332 1_554 S
C759 H780 0.930 1_565 S
C760 N758 1.334 . S
C760 C759 1.391 . S
C760 H767 0.930 . S
C761 N758 1.328 1_556 S
C761 C763 1.392 . S
C761 H768 0.930 . S
N762 C759 1.332 1_556 S
N762 C763 1.338 . S
C763 C761 1.392 . S
C763 N762 1.338 . S
O764 Zn757 1.975 . S
O764 C765 1.252 . S
C765 O764 1.252 . S
C765 O766 1.252 . S
O766 Zn748 1.975 . S
O766 C765 1.252 . S
H767 C760 0.930 . S
H768 C761 0.930 . S
C769 C770 1.392 . S
C769 N773 1.328 . S
C769 H775 0.930 . S
C770 C769 1.392 . S
C770 N774 1.331 . S
C771 C772 1.391 . S
C771 N774 1.329 . S
C771 H781 0.930 . S
C772 C771 1.391 . S
C772 N773 1.334 . S
C772 H779 0.930 . S
N773 Zn757 2.119 . S
N773 C769 1.328 . S
N773 C772 1.334 . S
N774 C770 1.331 . S
N774 C771 1.329 . S
H775 C769 0.930 . S
C776 O756 1.257 . S
C776 O777 1.244 . S
O777 C776 1.244 . S
O778 C754 1.257 . S
O778 Zn757 2.019 . S
H779 C772 0.930 . S
H780 C759 0.930 1_545 S
H781 C771 0.930 . S
Zn782 N786 2.020 . S
Zn782 O790 2.019 . S
Zn782 N792 2.119 . S
Zn782 O800 1.975 . S
C783 N784 1.334 . S
C783 N787 1.336 . S
N784 C783 1.334 . S
N784 C785 1.334 . S
C785 N784 1.334 . S
C785 N786 1.336 . S
N786 Zn782 2.020 . S
N786 C785 1.336 . S
N786 N787 1.354 . S
N787 C783 1.336 . S
N787 N786 1.354 . S
N787 Zn791 2.020 . S
C788 O789 1.244 . S
C788 O812 1.257 . S
O789 C788 1.244 . S
O790 Zn782 2.019 . S
O790 C810 1.257 . S
Zn791 N787 2.020 . S
Zn791 O798 1.975 . S
Zn791 N807 2.119 . S
Zn791 O812 2.019 1_554 S
N792 Zn782 2.119 . S
N792 C794 1.334 . S
N792 C795 1.328 . S
C793 C794 1.391 . S
C793 N796 1.329 . S
C793 H814 0.930 . S
C794 N792 1.334 . S
C794 C793 1.391 . S
C794 H801 0.930 . S
C795 N792 1.328 . S
C795 C797 1.392 . S
C795 H802 0.930 . S
N796 C793 1.329 . S
N796 C797 1.331 . S
C797 C795 1.392 . S
C797 N796 1.331 . S
O798 Zn791 1.975 . S
O798 C799 1.252 . S
C799 O798 1.252 . S
C799 O800 1.252 . S
O800 Zn782 1.975 . S
O800 C799 1.252 . S
H801 C794 0.930 . S
H802 C795 0.930 . S
C803 C804 1.392 . S
C803 N807 1.328 1_556 S
C803 H809 0.930 . S
C804 C803 1.392 . S
C804 N808 1.331 . S
C805 C806 1.391 . S
C805 N808 1.329 1_554 S
C805 H815 0.930 . S
C806 C805 1.391 . S
C806 N807 1.334 . S
C806 H813 0.930 . S
N807 Zn791 2.119 . S
N807 C803 1.328 1_554 S
N807 C806 1.334 . S
N808 C804 1.331 . S
N808 C805 1.329 1_556 S
H809 C803 0.930 . S
C810 O790 1.257 . S
C810 O811 1.244 . S
O811 C810 1.244 . S
O812 C788 1.257 . S
O812 Zn791 2.019 1_556 S
H813 C806 0.930 . S
H814 C793 0.930 . S
H815 C805 0.930 . S
Zn816 N820 2.020 . S
Zn816 O824 2.019 . S
Zn816 N826 2.119 . S
Zn816 O834 1.975 . S
C817 N818 1.334 . S
C817 N821 1.336 . S
N818 C817 1.334 . S
N818 C819 1.334 . S
C819 N818 1.334 . S
C819 N820 1.336 . S
N820 Zn816 2.020 . S
N820 C819 1.336 . S
N820 N821 1.354 . S
N821 C817 1.336 . S
N821 N820 1.354 . S
N821 Zn825 2.020 . S
C822 O823 1.244 . S
C822 O846 1.257 . S
O823 C822 1.244 . S
O824 Zn816 2.019 . S
O824 C844 1.257 . S
Zn825 N821 2.020 . S
Zn825 O832 1.975 . S
Zn825 N841 2.119 . S
Zn825 O846 2.019 1_655 S
N826 Zn816 2.119 . S
N826 C828 1.334 . S
N826 C829 1.328 . S
C827 C828 1.391 . S
C827 N830 1.329 . S
C827 H848 0.930 . S
C828 N826 1.334 . S
C828 C827 1.391 . S
C828 H835 0.930 . S
C829 N826 1.328 . S
C829 C831 1.392 . S
C829 H836 0.930 . S
N830 C827 1.329 . S
N830 C831 1.331 . S
C831 C829 1.392 . S
C831 N830 1.331 . S
O832 Zn825 1.975 . S
O832 C833 1.252 . S
C833 O832 1.252 . S
C833 O834 1.252 . S
O834 Zn816 1.975 . S
O834 C833 1.252 . S
H835 C828 0.930 . S
H836 C829 0.930 . S
C837 C838 1.392 . S
C837 N841 1.328 1_455 S
C837 H843 0.930 . S
C838 C837 1.392 . S
C838 N842 1.331 . S
C839 C840 1.391 . S
C839 N842 1.329 1_655 S
C839 H849 0.930 . S
C840 C839 1.391 . S
C840 N841 1.334 . S
C840 H847 0.930 . S
N841 Zn825 2.119 . S
N841 C837 1.328 1_655 S
N841 C840 1.334 . S
N842 C838 1.331 . S
N842 C839 1.329 1_455 S
H843 C837 0.930 . S
C844 O824 1.257 . S
C844 O845 1.244 . S
O845 C844 1.244 . S
O846 C822 1.257 . S
O846 Zn825 2.019 1_455 S
H847 C840 0.930 . S
H848 C827 0.930 . S
H849 C839 0.930 . S
Zn850 N854 2.020 . S
Zn850 O858 2.019 1_565 S
Zn850 N860 2.119 . S
Zn850 O868 1.975 . S
C851 N852 1.334 . S
C851 N855 1.336 . S
N852 C851 1.334 . S
N852 C853 1.334 . S
C853 N852 1.334 . S
C853 N854 1.336 . S
N854 Zn850 2.020 . S
N854 C853 1.336 . S
N854 N855 1.354 . S
N855 C851 1.336 . S
N855 N854 1.354 . S
N855 Zn859 2.020 . S
C856 O857 1.244 . S
C856 O880 1.257 . S
O857 C856 1.244 . S
O858 Zn850 2.019 1_545 S
O858 C878 1.257 . S
Zn859 N855 2.020 . S
Zn859 O866 1.975 . S
Zn859 N875 2.119 . S
Zn859 O880 2.019 . S
N860 Zn850 2.119 . S
N860 C862 1.334 . S
N860 C863 1.328 1_565 S
C861 C862 1.391 . S
C861 N864 1.332 1_565 S
C861 H882 0.930 1_455 S
C862 N860 1.334 . S
C862 C861 1.391 . S
C862 H869 0.930 . S
C863 N860 1.328 1_545 S
C863 C865 1.392 . S
C863 H870 0.930 . S
N864 C861 1.332 1_545 S
N864 C865 1.338 . S
C865 C863 1.392 . S
C865 N864 1.338 . S
O866 Zn859 1.975 . S
O866 C867 1.252 . S
C867 O866 1.252 . S
C867 O868 1.252 . S
O868 Zn850 1.975 . S
O868 C867 1.252 . S
H869 C862 0.930 . S
H870 C863 0.930 . S
C871 C872 1.392 . S
C871 N875 1.328 . S
C871 H877 0.930 . S
C872 C871 1.392 . S
C872 N876 1.331 . S
C873 C874 1.391 . S
C873 N876 1.329 . S
C873 H883 0.930 . S
C874 C873 1.391 . S
C874 N875 1.334 . S
C874 H881 0.930 . S
N875 Zn859 2.119 . S
N875 C871 1.328 . S
N875 C874 1.334 . S
N876 C872 1.331 . S
N876 C873 1.329 . S
H877 C871 0.930 . S
C878 O858 1.257 . S
C878 O879 1.244 . S
O879 C878 1.244 . S
O880 C856 1.257 . S
O880 Zn859 2.019 . S
H881 C874 0.930 . S
H882 C861 0.930 1_655 S
H883 C873 0.930 . S
Zn884 N888 2.020 . S
Zn884 O892 2.019 . S
Zn884 N894 2.119 . S
Zn884 O902 1.975 . S
C885 N886 1.334 . S
C885 N889 1.336 . S
N886 C885 1.334 . S
N886 C887 1.334 . S
C887 N886 1.334 . S
C887 N888 1.336 . S
N888 Zn884 2.020 . S
N888 C887 1.336 . S
N888 N889 1.354 . S
N889 C885 1.336 . S
N889 N888 1.354 . S
N889 Zn893 2.020 . S
C890 O891 1.244 . S
C890 O914 1.257 . S
O891 C890 1.244 . S
O892 Zn884 2.019 . S
O892 C912 1.257 . S
Zn893 N889 2.020 . S
Zn893 O900 1.975 . S
Zn893 N909 2.119 . S
Zn893 O914 2.019 . S
N894 Zn884 2.119 . S
N894 C896 1.334 . S
N894 C897 1.328 . S
C895 C896 1.391 . S
C895 N898 1.329 . S
C895 H916 0.930 . S
C896 N894 1.334 . S
C896 C895 1.391 . S
C896 H903 0.930 . S
C897 N894 1.328 . S
C897 C899 1.392 . S
C897 H904 0.930 . S
N898 C895 1.329 . S
N898 C899 1.331 . S
C899 C897 1.392 . S
C899 N898 1.331 . S
O900 Zn893 1.975 . S
O900 C901 1.252 . S
C901 O900 1.252 . S
C901 O902 1.252 . S
O902 Zn884 1.975 . S
O902 C901 1.252 . S
H903 C896 0.930 . S
H904 C897 0.930 . S
C905 C906 1.392 . S
C905 N909 1.328 . S
C905 H911 0.930 . S
C906 C905 1.392 . S
C906 N910 1.338 . S
C907 C908 1.391 . S
C907 N910 1.332 . S
C907 H917 0.930 1_545 S
C908 C907 1.391 . S
C908 N909 1.334 . S
C908 H915 0.930 . S
N909 Zn893 2.119 . S
N909 C905 1.328 . S
N909 C908 1.334 . S
N910 C906 1.338 . S
N910 C907 1.332 . S
H911 C905 0.930 . S
C912 O892 1.257 . S
C912 O913 1.244 . S
O913 C912 1.244 . S
O914 C890 1.257 . S
O914 Zn893 2.019 . S
H915 C908 0.930 . S
H916 C895 0.930 . S
H917 C907 0.930 1_565 S
Zn918 N922 2.020 . S
Zn918 O926 2.019 . S
Zn918 N928 2.119 . S
Zn918 O936 1.975 . S
C919 N920 1.334 . S
C919 N923 1.336 . S
N920 C919 1.334 . S
N920 C921 1.334 . S
C921 N920 1.334 . S
C921 N922 1.336 . S
N922 Zn918 2.020 . S
N922 C921 1.336 . S
N922 N923 1.354 . S
N923 C919 1.336 . S
N923 N922 1.354 . S
N923 Zn927 2.020 . S
C924 O925 1.244 . S
C924 O948 1.257 . S
O925 C924 1.244 . S
O926 Zn918 2.019 . S
O926 C946 1.257 . S
Zn927 N923 2.020 . S
Zn927 O934 1.975 . S
Zn927 N943 2.119 . S
Zn927 O948 2.019 . S
N928 Zn918 2.119 . S
N928 C930 1.334 . S
N928 C931 1.328 . S
C929 C930 1.391 . S
C929 N932 1.329 . S
C929 H950 0.930 . S
C930 N928 1.334 . S
C930 C929 1.391 . S
C930 H937 0.930 . S
C931 N928 1.328 . S
C931 C933 1.392 . S
C931 H938 0.930 . S
N932 C929 1.329 . S
N932 C933 1.331 . S
C933 C931 1.392 . S
C933 N932 1.331 . S
O934 Zn927 1.975 . S
O934 C935 1.252 . S
C935 O934 1.252 . S
C935 O936 1.252 . S
O936 Zn918 1.975 . S
O936 C935 1.252 . S
H937 C930 0.930 . S
H938 C931 0.930 . S
C939 C940 1.392 . S
C939 N943 1.328 . S
C939 H945 0.930 . S
C940 C939 1.392 . S
C940 N944 1.331 . S
C941 C942 1.391 . S
C941 N944 1.329 . S
C941 H951 0.930 . S
C942 C941 1.391 . S
C942 N943 1.334 . S
C942 H949 0.930 . S
N943 Zn927 2.119 . S
N943 C939 1.328 . S
N943 C942 1.334 . S
N944 C940 1.331 . S
N944 C941 1.329 . S
H945 C939 0.930 . S
C946 O926 1.257 . S
C946 O947 1.244 . S
O947 C946 1.244 . S
O948 C924 1.257 . S
O948 Zn927 2.019 . S
H949 C942 0.930 . S
H950 C929 0.930 . S
H951 C941 0.930 . S
Zn952 N956 2.020 . S
Zn952 O960 2.019 1_655 S
Zn952 N962 2.119 . S
Zn952 O970 1.975 . S
C953 N954 1.334 . S
C953 N957 1.336 . S
N954 C953 1.334 . S
N954 C955 1.334 . S
C955 N954 1.334 . S
C955 N956 1.336 . S
N956 Zn952 2.020 . S
N956 C955 1.336 . S
N956 N957 1.354 . S
N957 C953 1.336 . S
N957 N956 1.354 . S
N957 Zn961 2.020 . S
C958 O959 1.244 . S
C958 O982 1.257 . S
O959 C958 1.244 . S
O960 Zn952 2.019 1_455 S
O960 C980 1.257 . S
Zn961 N957 2.020 . S
Zn961 O968 1.975 . S
Zn961 N977 2.119 . S
Zn961 O982 2.019 . S
N962 Zn952 2.119 . S
N962 C964 1.334 . S
N962 C965 1.328 1_655 S
C963 C964 1.391 . S
C963 N966 1.332 1_655 S
C963 H984 0.930 1_545 S
C964 N962 1.334 . S
C964 C963 1.391 . S
C964 H971 0.930 . S
C965 N962 1.328 1_455 S
C965 C967 1.392 . S
C965 H972 0.930 . S
N966 C963 1.332 1_455 S
N966 C967 1.338 . S
C967 C965 1.392 . S
C967 N966 1.338 . S
O968 Zn961 1.975 . S
O968 C969 1.252 . S
C969 O968 1.252 . S
C969 O970 1.252 . S
O970 Zn952 1.975 . S
O970 C969 1.252 . S
H971 C964 0.930 . S
H972 C965 0.930 . S
C973 C974 1.392 . S
C973 N977 1.328 . S
C973 H979 0.930 . S
C974 C973 1.392 . S
C974 N978 1.331 . S
C975 C976 1.391 . S
C975 N978 1.329 . S
C975 H985 0.930 . S
C976 C975 1.391 . S
C976 N977 1.334 . S
C976 H983 0.930 . S
N977 Zn961 2.119 . S
N977 C973 1.328 . S
N977 C976 1.334 . S
N978 C974 1.331 . S
N978 C975 1.329 . S
H979 C973 0.930 . S
C980 O960 1.257 . S
C980 O981 1.244 . S
O981 C980 1.244 . S
O982 C958 1.257 . S
O982 Zn961 2.019 . S
H983 C976 0.930 . S
H984 C963 0.930 1_565 S
H985 C975 0.930 . S
Zn986 N990 2.020 . S
Zn986 O994 2.019 . S
Zn986 N996 2.119 . S
Zn986 O1004 1.975 . S
C987 N988 1.334 . S
C987 N991 1.336 . S
N988 C987 1.334 . S
N988 C989 1.334 . S
C989 N988 1.334 . S
C989 N990 1.336 . S
N990 Zn986 2.020 . S
N990 C989 1.336 . S
N990 N991 1.354 . S
N991 C987 1.336 . S
N991 N990 1.354 . S
N991 Zn995 2.020 . S
C992 O993 1.244 . S
C992 O1016 1.257 . S
O993 C992 1.244 . S
O994 Zn986 2.019 . S
O994 C1014 1.257 . S
Zn995 N991 2.020 . S
Zn995 O1002 1.975 . S
Zn995 N1011 2.119 . S
Zn995 O1016 2.019 1_565 S
N996 Zn986 2.119 . S
N996 C998 1.334 . S
N996 C999 1.328 . S
C997 C998 1.391 . S
C997 N1000 1.329 . S
C997 H1018 0.930 . S
C998 N996 1.334 . S
C998 C997 1.391 . S
C998 H1005 0.930 . S
C999 N996 1.328 . S
C999 C1001 1.392 . S
C999 H1006 0.930 . S
N1000 C997 1.329 . S
N1000 C1001 1.331 . S
C1001 C999 1.392 . S
C1001 N1000 1.331 . S
O1002 Zn995 1.975 . S
O1002 C1003 1.252 . S
C1003 O1002 1.252 . S
C1003 O1004 1.252 . S
O1004 Zn986 1.975 . S
O1004 C1003 1.252 . S
H1005 C998 0.930 . S
H1006 C999 0.930 . S
C1007 C1008 1.392 . S
C1007 N1011 1.328 1_545 S
C1007 H1013 0.930 . S
C1008 C1007 1.392 . S
C1008 N1012 1.331 . S
C1009 C1010 1.391 . S
C1009 N1012 1.329 1_565 S
C1009 H1019 0.930 . S
C1010 C1009 1.391 . S
C1010 N1011 1.334 . S
C1010 H1017 0.930 . S
N1011 Zn995 2.119 . S
N1011 C1007 1.328 1_565 S
N1011 C1010 1.334 . S
N1012 C1008 1.331 . S
N1012 C1009 1.329 1_545 S
H1013 C1007 0.930 . S
C1014 O994 1.257 . S
C1014 O1015 1.244 . S
O1015 C1014 1.244 . S
O1016 C992 1.257 . S
O1016 Zn995 2.019 1_545 S
H1017 C1010 0.930 . S
H1018 C997 0.930 . S
H1019 C1009 0.930 . S
Zn1020 N1024 2.020 . S
Zn1020 O1028 2.019 . S
Zn1020 N1030 2.119 . S
Zn1020 O1038 1.975 . S
C1021 N1022 1.334 . S
C1021 N1025 1.336 . S
N1022 C1021 1.334 . S
N1022 C1023 1.334 . S
C1023 N1022 1.334 . S
C1023 N1024 1.336 . S
N1024 Zn1020 2.020 . S
N1024 C1023 1.336 . S
N1024 N1025 1.354 . S
N1025 C1021 1.336 . S
N1025 N1024 1.354 . S
N1025 Zn1029 2.020 . S
C1026 O1027 1.244 . S
C1026 O1050 1.257 . S
O1027 C1026 1.244 . S
O1028 Zn1020 2.019 . S
O1028 C1048 1.257 . S
Zn1029 N1025 2.020 . S
Zn1029 O1036 1.975 . S
Zn1029 N1045 2.119 . S
Zn1029 O1050 2.019 . S
N1030 Zn1020 2.119 . S
N1030 C1032 1.334 . S
N1030 C1033 1.328 . S
C1031 C1032 1.391 . S
C1031 N1034 1.329 . S
C1031 H1052 0.930 . S
C1032 N1030 1.334 . S
C1032 C1031 1.391 . S
C1032 H1039 0.930 . S
C1033 N1030 1.328 . S
C1033 C1035 1.392 . S
C1033 H1040 0.930 . S
N1034 C1031 1.329 . S
N1034 C1035 1.331 . S
C1035 C1033 1.392 . S
C1035 N1034 1.331 . S
O1036 Zn1029 1.975 . S
O1036 C1037 1.252 . S
C1037 O1036 1.252 . S
C1037 O1038 1.252 . S
O1038 Zn1020 1.975 . S
O1038 C1037 1.252 . S
H1039 C1032 0.930 . S
H1040 C1033 0.930 . S
C1041 C1042 1.392 . S
C1041 N1045 1.328 . S
C1041 H1047 0.930 . S
C1042 C1041 1.392 . S
C1042 N1046 1.331 . S
C1043 C1044 1.391 . S
C1043 N1046 1.329 . S
C1043 H1053 0.930 . S
C1044 C1043 1.391 . S
C1044 N1045 1.334 . S
C1044 H1051 0.930 . S
N1045 Zn1029 2.119 . S
N1045 C1041 1.328 . S
N1045 C1044 1.334 . S
N1046 C1042 1.331 . S
N1046 C1043 1.329 . S
H1047 C1041 0.930 . S
C1048 O1028 1.257 . S
C1048 O1049 1.244 . S
O1049 C1048 1.244 . S
O1050 C1026 1.257 . S
O1050 Zn1029 2.019 . S
H1051 C1044 0.930 . S
H1052 C1031 0.930 . S
H1053 C1043 0.930 . S
Zn1054 N1058 2.020 . S
Zn1054 O1062 2.019 . S
Zn1054 N1064 2.119 . S
Zn1054 O1072 1.975 . S
C1055 N1056 1.334 . S
C1055 N1059 1.336 . S
N1056 C1055 1.334 . S
N1056 C1057 1.334 . S
C1057 N1056 1.334 . S
C1057 N1058 1.336 . S
N1058 Zn1054 2.020 . S
N1058 C1057 1.336 . S
N1058 N1059 1.354 . S
N1059 C1055 1.336 . S
N1059 N1058 1.354 . S
N1059 Zn1063 2.020 . S
C1060 O1061 1.244 . S
C1060 O1084 1.257 . S
O1061 C1060 1.244 . S
O1062 Zn1054 2.019 . S
O1062 C1082 1.257 . S
Zn1063 N1059 2.020 . S
Zn1063 O1070 1.975 . S
Zn1063 N1079 2.119 . S
Zn1063 O1084 2.019 . S
N1064 Zn1054 2.119 . S
N1064 C1066 1.334 . S
N1064 C1067 1.328 . S
C1065 C1066 1.391 . S
C1065 N1068 1.332 . S
C1065 H1086 0.930 1_455 S
C1066 N1064 1.334 . S
C1066 C1065 1.391 . S
C1066 H1073 0.930 . S
C1067 N1064 1.328 . S
C1067 C1069 1.392 . S
C1067 H1074 0.930 . S
N1068 C1065 1.332 . S
N1068 C1069 1.338 . S
C1069 C1067 1.392 . S
C1069 N1068 1.338 . S
O1070 Zn1063 1.975 . S
O1070 C1071 1.252 . S
C1071 O1070 1.252 . S
C1071 O1072 1.252 . S
O1072 Zn1054 1.975 . S
O1072 C1071 1.252 . S
H1073 C1066 0.930 . S
H1074 C1067 0.930 . S
C1075 C1076 1.392 . S
C1075 N1079 1.328 . S
C1075 H1081 0.930 . S
C1076 C1075 1.392 . S
C1076 N1080 1.331 . S
C1077 C1078 1.391 . S
C1077 N1080 1.329 . S
C1077 H1087 0.930 . S
C1078 C1077 1.391 . S
C1078 N1079 1.334 . S
C1078 H1085 0.930 . S
N1079 Zn1063 2.119 . S
N1079 C1075 1.328 . S
N1079 C1078 1.334 . S
N1080 C1076 1.331 . S
N1080 C1077 1.329 . S
H1081 C1075 0.930 . S
C1082 O1062 1.257 . S
C1082 O1083 1.244 . S
O1083 C1082 1.244 . S
O1084 C1060 1.257 . S
O1084 Zn1063 2.019 . S
H1085 C1078 0.930 . S
H1086 C1065 0.930 1_655 S
H1087 C1077 0.930 . S
Zn1088 N1092 2.020 . S
Zn1088 O1096 2.019 . S
Zn1088 N1098 2.119 . S
Zn1088 O1106 1.975 . S
C1089 N1090 1.334 . S
C1089 N1093 1.336 . S
N1090 C1089 1.334 . S
N1090 C1091 1.334 . S
C1091 N1090 1.334 . S
C1091 N1092 1.336 . S
N1092 Zn1088 2.020 . S
N1092 C1091 1.336 . S
N1092 N1093 1.354 . S
N1093 C1089 1.336 . S
N1093 N1092 1.354 . S
N1093 Zn1097 2.020 . S
C1094 O1095 1.244 . S
C1094 O1118 1.257 . S
O1095 C1094 1.244 . S
O1096 Zn1088 2.019 . S
O1096 C1116 1.257 . S
Zn1097 N1093 2.020 . S
Zn1097 O1104 1.975 . S
Zn1097 N1113 2.119 . S
Zn1097 O1118 2.019 1_565 S
N1098 Zn1088 2.119 . S
N1098 C1100 1.334 . S
N1098 C1101 1.328 . S
C1099 C1100 1.391 . S
C1099 N1102 1.329 . S
C1099 H1120 0.930 . S
C1100 N1098 1.334 . S
C1100 C1099 1.391 . S
C1100 H1107 0.930 . S
C1101 N1098 1.328 . S
C1101 C1103 1.392 . S
C1101 H1108 0.930 . S
N1102 C1099 1.329 . S
N1102 C1103 1.331 . S
C1103 C1101 1.392 . S
C1103 N1102 1.331 . S
O1104 Zn1097 1.975 . S
O1104 C1105 1.252 . S
C1105 O1104 1.252 . S
C1105 O1106 1.252 . S
O1106 Zn1088 1.975 . S
O1106 C1105 1.252 . S
H1107 C1100 0.930 . S
H1108 C1101 0.930 . S
C1109 C1110 1.392 . S
C1109 N1113 1.328 1_545 S
C1109 H1115 0.930 . S
C1110 C1109 1.392 . S
C1110 N1114 1.331 . S
C1111 C1112 1.391 . S
C1111 N1114 1.329 1_565 S
C1111 H1121 0.930 . S
C1112 C1111 1.391 . S
C1112 N1113 1.334 . S
C1112 H1119 0.930 . S
N1113 Zn1097 2.119 . S
N1113 C1109 1.328 1_565 S
N1113 C1112 1.334 . S
N1114 C1110 1.331 . S
N1114 C1111 1.329 1_545 S
H1115 C1109 0.930 . S
C1116 O1096 1.257 . S
C1116 O1117 1.244 . S
O1117 C1116 1.244 . S
O1118 C1094 1.257 . S
O1118 Zn1097 2.019 1_545 S
H1119 C1112 0.930 . S
H1120 C1099 0.930 . S
H1121 C1111 0.930 . S
Zn1122 N1126 2.020 . S
Zn1122 O1130 2.019 . S
Zn1122 N1132 2.119 . S
Zn1122 O1140 1.975 . S
C1123 N1124 1.334 . S
C1123 N1127 1.336 . S
N1124 C1123 1.334 . S
N1124 C1125 1.334 . S
C1125 N1124 1.334 . S
C1125 N1126 1.336 . S
N1126 Zn1122 2.020 . S
N1126 C1125 1.336 . S
N1126 N1127 1.354 . S
N1127 C1123 1.336 . S
N1127 N1126 1.354 . S
N1127 Zn1131 2.020 . S
C1128 O1129 1.244 . S
C1128 O1152 1.257 . S
O1129 C1128 1.244 . S
O1130 Zn1122 2.019 . S
O1130 C1150 1.257 . S
Zn1131 N1127 2.020 . S
Zn1131 O1138 1.975 . S
Zn1131 N1147 2.119 . S
Zn1131 O1152 2.019 . S
N1132 Zn1122 2.119 . S
N1132 C1134 1.334 . S
N1132 C1135 1.328 . S
C1133 C1134 1.391 . S
C1133 N1136 1.329 . S
C1133 H1154 0.930 . S
C1134 N1132 1.334 . S
C1134 C1133 1.391 . S
C1134 H1141 0.930 . S
C1135 N1132 1.328 . S
C1135 C1137 1.392 . S
C1135 H1142 0.930 . S
N1136 C1133 1.329 . S
N1136 C1137 1.331 . S
C1137 C1135 1.392 . S
C1137 N1136 1.331 . S
O1138 Zn1131 1.975 . S
O1138 C1139 1.252 . S
C1139 O1138 1.252 . S
C1139 O1140 1.252 . S
O1140 Zn1122 1.975 . S
O1140 C1139 1.252 . S
H1141 C1134 0.930 . S
H1142 C1135 0.930 . S
C1143 C1144 1.392 . S
C1143 N1147 1.328 . S
C1143 H1149 0.930 . S
C1144 C1143 1.392 . S
C1144 N1148 1.331 . S
C1145 C1146 1.391 . S
C1145 N1148 1.329 . S
C1145 H1155 0.930 . S
C1146 C1145 1.391 . S
C1146 N1147 1.334 . S
C1146 H1153 0.930 . S
N1147 Zn1131 2.119 . S
N1147 C1143 1.328 . S
N1147 C1146 1.334 . S
N1148 C1144 1.331 . S
N1148 C1145 1.329 . S
H1149 C1143 0.930 . S
C1150 O1130 1.257 . S
C1150 O1151 1.244 . S
O1151 C1150 1.244 . S
O1152 C1128 1.257 . S
O1152 Zn1131 2.019 . S
H1153 C1146 0.930 . S
H1154 C1133 0.930 . S
H1155 C1145 0.930 . S
Zn1156 N1160 2.020 . S
Zn1156 O1164 2.019 . S
Zn1156 N1166 2.119 . S
Zn1156 O1174 1.975 . S
C1157 N1158 1.334 . S
C1157 N1161 1.336 . S
N1158 C1157 1.334 . S
N1158 C1159 1.334 . S
C1159 N1158 1.334 . S
C1159 N1160 1.336 . S
N1160 Zn1156 2.020 . S
N1160 C1159 1.336 . S
N1160 N1161 1.354 . S
N1161 C1157 1.336 . S
N1161 N1160 1.354 . S
N1161 Zn1165 2.020 . S
C1162 O1163 1.244 . S
C1162 O1186 1.257 . S
O1163 C1162 1.244 . S
O1164 Zn1156 2.019 . S
O1164 C1184 1.257 . S
Zn1165 N1161 2.020 . S
Zn1165 O1172 1.975 . S
Zn1165 N1181 2.119 . S
Zn1165 O1186 2.019 . S
N1166 Zn1156 2.119 . S
N1166 C1168 1.334 . S
N1166 C1169 1.328 . S
C1167 C1168 1.391 . S
C1167 N1170 1.329 . S
C1167 H1188 0.930 . S
C1168 N1166 1.334 . S
C1168 C1167 1.391 . S
C1168 H1175 0.930 . S
C1169 N1166 1.328 . S
C1169 C1171 1.392 . S
C1169 H1176 0.930 . S
N1170 C1167 1.329 . S
N1170 C1171 1.331 . S
C1171 C1169 1.392 . S
C1171 N1170 1.331 . S
O1172 Zn1165 1.975 . S
O1172 C1173 1.252 . S
C1173 O1172 1.252 . S
C1173 O1174 1.252 . S
O1174 Zn1156 1.975 . S
O1174 C1173 1.252 . S
H1175 C1168 0.930 . S
H1176 C1169 0.930 . S
C1177 C1178 1.392 . S
C1177 N1181 1.328 . S
C1177 H1183 0.930 . S
C1178 C1177 1.392 . S
C1178 N1182 1.331 . S
C1179 C1180 1.391 . S
C1179 N1182 1.329 . S
C1179 H1189 0.930 . S
C1180 C1179 1.391 . S
C1180 N1181 1.334 . S
C1180 H1187 0.930 . S
N1181 Zn1165 2.119 . S
N1181 C1177 1.328 . S
N1181 C1180 1.334 . S
N1182 C1178 1.331 . S
N1182 C1179 1.329 . S
H1183 C1177 0.930 . S
C1184 O1164 1.257 . S
C1184 O1185 1.244 . S
O1185 C1184 1.244 . S
O1186 C1162 1.257 . S
O1186 Zn1165 2.019 . S
H1187 C1180 0.930 . S
H1188 C1167 0.930 . S
H1189 C1179 0.930 . S
Zn1190 N1194 2.020 . S
Zn1190 O1198 2.019 1_655 S
Zn1190 N1200 2.119 . S
Zn1190 O1208 1.975 . S
C1191 N1192 1.334 . S
C1191 N1195 1.336 . S
N1192 C1191 1.334 . S
N1192 C1193 1.334 . S
C1193 N1192 1.334 . S
C1193 N1194 1.336 . S
N1194 Zn1190 2.020 . S
N1194 C1193 1.336 . S
N1194 N1195 1.354 . S
N1195 C1191 1.336 . S
N1195 N1194 1.354 . S
N1195 Zn1199 2.020 . S
C1196 O1197 1.244 . S
C1196 O1220 1.257 . S
O1197 C1196 1.244 . S
O1198 Zn1190 2.019 1_455 S
O1198 C1218 1.257 . S
Zn1199 N1195 2.020 . S
Zn1199 O1206 1.975 . S
Zn1199 N1215 2.119 . S
Zn1199 O1220 2.019 . S
N1200 Zn1190 2.119 . S
N1200 C1202 1.334 . S
N1200 C1203 1.328 1_655 S
C1201 C1202 1.391 . S
C1201 N1204 1.329 1_655 S
C1201 H1222 0.930 . S
C1202 N1200 1.334 . S
C1202 C1201 1.391 . S
C1202 H1209 0.930 . S
C1203 N1200 1.328 1_455 S
C1203 C1205 1.392 . S
C1203 H1210 0.930 . S
N1204 C1201 1.329 1_455 S
N1204 C1205 1.331 . S
C1205 C1203 1.392 . S
C1205 N1204 1.331 . S
O1206 Zn1199 1.975 . S
O1206 C1207 1.252 . S
C1207 O1206 1.252 . S
C1207 O1208 1.252 . S
O1208 Zn1190 1.975 . S
O1208 C1207 1.252 . S
H1209 C1202 0.930 . S
H1210 C1203 0.930 . S
C1211 C1212 1.392 . S
C1211 N1215 1.328 . S
C1211 H1217 0.930 . S
C1212 C1211 1.392 . S
C1212 N1216 1.331 . S
C1213 C1214 1.391 . S
C1213 N1216 1.329 . S
C1213 H1223 0.930 . S
C1214 C1213 1.391 . S
C1214 N1215 1.334 . S
C1214 H1221 0.930 . S
N1215 Zn1199 2.119 . S
N1215 C1211 1.328 . S
N1215 C1214 1.334 . S
N1216 C1212 1.331 . S
N1216 C1213 1.329 . S
H1217 C1211 0.930 . S
C1218 O1198 1.257 . S
C1218 O1219 1.244 . S
O1219 C1218 1.244 . S
O1220 C1196 1.257 . S
O1220 Zn1199 2.019 . S
H1221 C1214 0.930 . S
H1222 C1201 0.930 . S
H1223 C1213 0.930 . S
Zn1224 N1228 2.020 . S
Zn1224 O1232 2.019 . S
Zn1224 N1234 2.119 . S
Zn1224 O1242 1.975 . S
C1225 N1226 1.334 . S
C1225 N1229 1.336 . S
N1226 C1225 1.334 . S
N1226 C1227 1.334 . S
C1227 N1226 1.334 . S
C1227 N1228 1.336 . S
N1228 Zn1224 2.020 . S
N1228 C1227 1.336 . S
N1228 N1229 1.354 . S
N1229 C1225 1.336 . S
N1229 N1228 1.354 . S
N1229 Zn1233 2.020 . S
C1230 O1231 1.244 . S
C1230 O1254 1.257 . S
O1231 C1230 1.244 . S
O1232 Zn1224 2.019 . S
O1232 C1252 1.257 . S
Zn1233 N1229 2.020 . S
Zn1233 O1240 1.975 . S
Zn1233 N1249 2.119 . S
Zn1233 O1254 2.019 . S
N1234 Zn1224 2.119 . S
N1234 C1236 1.334 . S
N1234 C1237 1.328 . S
C1235 C1236 1.391 . S
C1235 N1238 1.332 . S
C1235 H1256 0.930 1_554 S
C1236 N1234 1.334 . S
C1236 C1235 1.391 . S
C1236 H1243 0.930 . S
C1237 N1234 1.328 . S
C1237 C1239 1.392 . S
C1237 H1244 0.930 . S
N1238 C1235 1.332 . S
N1238 C1239 1.338 . S
C1239 C1237 1.392 . S
C1239 N1238 1.338 . S
O1240 Zn1233 1.975 . S
O1240 C1241 1.252 . S
C1241 O1240 1.252 . S
C1241 O1242 1.252 . S
O1242 Zn1224 1.975 . S
O1242 C1241 1.252 . S
H1243 C1236 0.930 . S
H1244 C1237 0.930 . S
C1245 C1246 1.392 . S
C1245 N1249 1.328 . S
C1245 H1251 0.930 . S
C1246 C1245 1.392 . S
C1246 N1250 1.331 . S
C1247 C1248 1.391 . S
C1247 N1250 1.329 . S
C1247 H1257 0.930 . S
C1248 C1247 1.391 . S
C1248 N1249 1.334 . S
C1248 H1255 0.930 . S
N1249 Zn1233 2.119 . S
N1249 C1245 1.328 . S
N1249 C1248 1.334 . S
N1250 C1246 1.331 . S
N1250 C1247 1.329 . S
H1251 C1245 0.930 . S
C1252 O1232 1.257 . S
C1252 O1253 1.244 . S
O1253 C1252 1.244 . S
O1254 C1230 1.257 . S
O1254 Zn1233 2.019 . S
H1255 C1248 0.930 . S
H1256 C1235 0.930 1_556 S
H1257 C1247 0.930 . S
Zn1258 N1262 2.020 . S
Zn1258 O1266 2.019 . S
Zn1258 N1268 2.119 . S
Zn1258 O1276 1.975 . S
C1259 N1260 1.334 . S
C1259 N1263 1.336 . S
N1260 C1259 1.334 . S
N1260 C1261 1.334 . S
C1261 N1260 1.334 . S
C1261 N1262 1.336 . S
N1262 Zn1258 2.020 . S
N1262 C1261 1.336 . S
N1262 N1263 1.354 . S
N1263 C1259 1.336 . S
N1263 N1262 1.354 . S
N1263 Zn1267 2.020 . S
C1264 O1265 1.244 . S
C1264 O1288 1.257 . S
O1265 C1264 1.244 . S
O1266 Zn1258 2.019 . S
O1266 C1286 1.257 . S
Zn1267 N1263 2.020 . S
Zn1267 O1274 1.975 . S
Zn1267 N1283 2.119 . S
Zn1267 O1288 2.019 1_655 S
N1268 Zn1258 2.119 . S
N1268 C1270 1.334 . S
N1268 C1271 1.328 . S
C1269 C1270 1.391 . S
C1269 N1272 1.329 . S
C1269 H1290 0.930 . S
C1270 N1268 1.334 . S
C1270 C1269 1.391 . S
C1270 H1277 0.930 . S
C1271 N1268 1.328 . S
C1271 C1273 1.392 . S
C1271 H1278 0.930 . S
N1272 C1269 1.329 . S
N1272 C1273 1.331 . S
C1273 C1271 1.392 . S
C1273 N1272 1.331 . S
O1274 Zn1267 1.975 . S
O1274 C1275 1.252 . S
C1275 O1274 1.252 . S
C1275 O1276 1.252 . S
O1276 Zn1258 1.975 . S
O1276 C1275 1.252 . S
H1277 C1270 0.930 . S
H1278 C1271 0.930 . S
C1279 C1280 1.392 . S
C1279 N1283 1.328 1_455 S
C1279 H1285 0.930 . S
C1280 C1279 1.392 . S
C1280 N1284 1.338 . S
C1281 C1282 1.391 . S
C1281 N1284 1.332 1_655 S
C1281 H1291 0.930 1_554 S
C1282 C1281 1.391 . S
C1282 N1283 1.334 . S
C1282 H1289 0.930 . S
N1283 Zn1267 2.119 . S
N1283 C1279 1.328 1_655 S
N1283 C1282 1.334 . S
N1284 C1280 1.338 . S
N1284 C1281 1.332 1_455 S
H1285 C1279 0.930 . S
C1286 O1266 1.257 . S
C1286 O1287 1.244 . S
O1287 C1286 1.244 . S
O1288 C1264 1.257 . S
O1288 Zn1267 2.019 1_455 S
H1289 C1282 0.930 . S
H1290 C1269 0.930 . S
H1291 C1281 0.930 1_556 S
Zn1292 N1296 2.020 . S
Zn1292 O1300 2.019 . S
Zn1292 N1302 2.119 . S
Zn1292 O1310 1.975 . S
C1293 N1294 1.334 . S
C1293 N1297 1.336 . S
N1294 C1293 1.334 . S
N1294 C1295 1.334 . S
C1295 N1294 1.334 . S
C1295 N1296 1.336 . S
N1296 Zn1292 2.020 . S
N1296 C1295 1.336 . S
N1296 N1297 1.354 . S
N1297 C1293 1.336 . S
N1297 N1296 1.354 . S
N1297 Zn1301 2.020 . S
C1298 O1299 1.244 . S
C1298 O1322 1.257 . S
O1299 C1298 1.244 . S
O1300 Zn1292 2.019 . S
O1300 C1320 1.257 . S
Zn1301 N1297 2.020 . S
Zn1301 O1308 1.975 . S
Zn1301 N1317 2.119 . S
Zn1301 O1322 2.019 1_565 S
N1302 Zn1292 2.119 . S
N1302 C1304 1.334 . S
N1302 C1305 1.328 . S
C1303 C1304 1.391 . S
C1303 N1306 1.329 . S
C1303 H1324 0.930 . S
C1304 N1302 1.334 . S
C1304 C1303 1.391 . S
C1304 H1311 0.930 . S
C1305 N1302 1.328 . S
C1305 C1307 1.392 . S
C1305 H1312 0.930 . S
N1306 C1303 1.329 . S
N1306 C1307 1.331 . S
C1307 C1305 1.392 . S
C1307 N1306 1.331 . S
O1308 Zn1301 1.975 . S
O1308 C1309 1.252 . S
C1309 O1308 1.252 . S
C1309 O1310 1.252 . S
O1310 Zn1292 1.975 . S
O1310 C1309 1.252 . S
H1311 C1304 0.930 . S
H1312 C1305 0.930 . S
C1313 C1314 1.392 . S
C1313 N1317 1.328 1_545 S
C1313 H1319 0.930 . S
C1314 C1313 1.392 . S
C1314 N1318 1.338 . S
C1315 C1316 1.391 . S
C1315 N1318 1.332 1_565 S
C1315 H1325 0.930 1_554 S
C1316 C1315 1.391 . S
C1316 N1317 1.334 . S
C1316 H1323 0.930 . S
N1317 Zn1301 2.119 . S
N1317 C1313 1.328 1_565 S
N1317 C1316 1.334 . S
N1318 C1314 1.338 . S
N1318 C1315 1.332 1_545 S
H1319 C1313 0.930 . S
C1320 O1300 1.257 . S
C1320 O1321 1.244 . S
O1321 C1320 1.244 . S
O1322 C1298 1.257 . S
O1322 Zn1301 2.019 1_545 S
H1323 C1316 0.930 . S
H1324 C1303 0.930 . S
H1325 C1315 0.930 1_556 S
Zn1326 N1330 2.020 . S
Zn1326 O1334 2.019 . S
Zn1326 N1336 2.119 . S
Zn1326 O1344 1.975 . S
C1327 N1328 1.334 . S
C1327 N1331 1.336 . S
N1328 C1327 1.334 . S
N1328 C1329 1.334 . S
C1329 N1328 1.334 . S
C1329 N1330 1.336 . S
N1330 Zn1326 2.020 . S
N1330 C1329 1.336 . S
N1330 N1331 1.354 . S
N1331 C1327 1.336 . S
N1331 N1330 1.354 . S
N1331 Zn1335 2.020 . S
C1332 O1333 1.244 . S
C1332 O1356 1.257 . S
O1333 C1332 1.244 . S
O1334 Zn1326 2.019 . S
O1334 C1354 1.257 . S
Zn1335 N1331 2.020 . S
Zn1335 O1342 1.975 . S
Zn1335 N1351 2.119 . S
Zn1335 O1356 2.019 . S
N1336 Zn1326 2.119 . S
N1336 C1338 1.334 . S
N1336 C1339 1.328 . S
C1337 C1338 1.391 . S
C1337 N1340 1.332 . S
C1337 H1358 0.930 1_554 S
C1338 N1336 1.334 . S
C1338 C1337 1.391 . S
C1338 H1345 0.930 . S
C1339 N1336 1.328 . S
C1339 C1341 1.392 . S
C1339 H1346 0.930 . S
N1340 C1337 1.332 . S
N1340 C1341 1.338 . S
C1341 C1339 1.392 . S
C1341 N1340 1.338 . S
O1342 Zn1335 1.975 . S
O1342 C1343 1.252 . S
C1343 O1342 1.252 . S
C1343 O1344 1.252 . S
O1344 Zn1326 1.975 . S
O1344 C1343 1.252 . S
H1345 C1338 0.930 . S
H1346 C1339 0.930 . S
C1347 C1348 1.392 . S
C1347 N1351 1.328 . S
C1347 H1353 0.930 . S
C1348 C1347 1.392 . S
C1348 N1352 1.331 . S
C1349 C1350 1.391 . S
C1349 N1352 1.329 . S
C1349 H1359 0.930 . S
C1350 C1349 1.391 . S
C1350 N1351 1.334 . S
C1350 H1357 0.930 . S
N1351 Zn1335 2.119 . S
N1351 C1347 1.328 . S
N1351 C1350 1.334 . S
N1352 C1348 1.331 . S
N1352 C1349 1.329 . S
H1353 C1347 0.930 . S
C1354 O1334 1.257 . S
C1354 O1355 1.244 . S
O1355 C1354 1.244 . S
O1356 C1332 1.257 . S
O1356 Zn1335 2.019 . S
H1357 C1350 0.930 . S
H1358 C1337 0.930 1_556 S
H1359 C1349 0.930 . S
Zn1360 N1364 2.020 . S
Zn1360 O1368 2.019 1_556 S
Zn1360 N1370 2.119 . S
Zn1360 O1378 1.975 . S
C1361 N1362 1.334 . S
C1361 N1365 1.336 . S
N1362 C1361 1.334 . S
N1362 C1363 1.334 . S
C1363 N1362 1.334 . S
C1363 N1364 1.336 . S
N1364 Zn1360 2.020 . S
N1364 C1363 1.336 . S
N1364 N1365 1.354 . S
N1365 C1361 1.336 . S
N1365 N1364 1.354 . S
N1365 Zn1369 2.020 . S
C1366 O1367 1.244 . S
C1366 O1390 1.257 . S
O1367 C1366 1.244 . S
O1368 Zn1360 2.019 1_554 S
O1368 C1388 1.257 . S
Zn1369 N1365 2.020 . S
Zn1369 O1376 1.975 . S
Zn1369 N1385 2.119 . S
Zn1369 O1390 2.019 . S
N1370 Zn1360 2.119 . S
N1370 C1372 1.334 . S
N1370 C1373 1.328 1_556 S
C1371 C1372 1.391 . S
C1371 N1374 1.329 1_556 S
C1371 H1392 0.930 . S
C1372 N1370 1.334 . S
C1372 C1371 1.391 . S
C1372 H1379 0.930 . S
C1373 N1370 1.328 1_554 S
C1373 C1375 1.392 . S
C1373 H1380 0.930 . S
N1374 C1371 1.329 1_554 S
N1374 C1375 1.331 . S
C1375 C1373 1.392 . S
C1375 N1374 1.331 . S
O1376 Zn1369 1.975 . S
O1376 C1377 1.252 . S
C1377 O1376 1.252 . S
C1377 O1378 1.252 . S
O1378 Zn1360 1.975 . S
O1378 C1377 1.252 . S
H1379 C1372 0.930 . S
H1380 C1373 0.930 . S
C1381 C1382 1.392 . S
C1381 N1385 1.328 . S
C1381 H1387 0.930 . S
C1382 C1381 1.392 . S
C1382 N1386 1.331 . S
C1383 C1384 1.391 . S
C1383 N1386 1.329 . S
C1383 H1393 0.930 . S
C1384 C1383 1.391 . S
C1384 N1385 1.334 . S
C1384 H1391 0.930 . S
N1385 Zn1369 2.119 . S
N1385 C1381 1.328 . S
N1385 C1384 1.334 . S
N1386 C1382 1.331 . S
N1386 C1383 1.329 . S
H1387 C1381 0.930 . S
C1388 O1368 1.257 . S
C1388 O1389 1.244 . S
O1389 C1388 1.244 . S
O1390 C1366 1.257 . S
O1390 Zn1369 2.019 . S
H1391 C1384 0.930 . S
H1392 C1371 0.930 . S
H1393 C1383 0.930 . S
Zn1394 N1398 2.020 . S
Zn1394 O1402 2.019 . S
Zn1394 N1404 2.119 . S
Zn1394 O1412 1.975 . S
C1395 N1396 1.334 . S
C1395 N1399 1.336 . S
N1396 C1395 1.334 . S
N1396 C1397 1.334 . S
C1397 N1396 1.334 . S
C1397 N1398 1.336 . S
N1398 Zn1394 2.020 . S
N1398 C1397 1.336 . S
N1398 N1399 1.354 . S
N1399 C1395 1.336 . S
N1399 N1398 1.354 . S
N1399 Zn1403 2.020 . S
C1400 O1401 1.244 . S
C1400 O1424 1.257 . S
O1401 C1400 1.244 . S
O1402 Zn1394 2.019 . S
O1402 C1422 1.257 . S
Zn1403 N1399 2.020 . S
Zn1403 O1410 1.975 . S
Zn1403 N1419 2.119 . S
Zn1403 O1424 2.019 . S
N1404 Zn1394 2.119 . S
N1404 C1406 1.334 . S
N1404 C1407 1.328 . S
C1405 C1406 1.391 . S
C1405 N1408 1.329 . S
C1405 H1426 0.930 . S
C1406 N1404 1.334 . S
C1406 C1405 1.391 . S
C1406 H1413 0.930 . S
C1407 N1404 1.328 . S
C1407 C1409 1.392 . S
C1407 H1414 0.930 . S
N1408 C1405 1.329 . S
N1408 C1409 1.331 . S
C1409 C1407 1.392 . S
C1409 N1408 1.331 . S
O1410 Zn1403 1.975 . S
O1410 C1411 1.252 . S
C1411 O1410 1.252 . S
C1411 O1412 1.252 . S
O1412 Zn1394 1.975 . S
O1412 C1411 1.252 . S
H1413 C1406 0.930 . S
H1414 C1407 0.930 . S
C1415 C1416 1.392 . S
C1415 N1419 1.328 . S
C1415 H1421 0.930 . S
C1416 C1415 1.392 . S
C1416 N1420 1.331 . S
C1417 C1418 1.391 . S
C1417 N1420 1.329 . S
C1417 H1427 0.930 . S
C1418 C1417 1.391 . S
C1418 N1419 1.334 . S
C1418 H1425 0.930 . S
N1419 Zn1403 2.119 . S
N1419 C1415 1.328 . S
N1419 C1418 1.334 . S
N1420 C1416 1.331 . S
N1420 C1417 1.329 . S
H1421 C1415 0.930 . S
C1422 O1402 1.257 . S
C1422 O1423 1.244 . S
O1423 C1422 1.244 . S
O1424 C1400 1.257 . S
O1424 Zn1403 2.019 . S
H1425 C1418 0.930 . S
H1426 C1405 0.930 . S
H1427 C1417 0.930 . S
Zn1428 N1432 2.020 . S
Zn1428 O1436 2.019 . S
Zn1428 N1438 2.119 . S
Zn1428 O1446 1.975 . S
C1429 N1430 1.334 . S
C1429 N1433 1.336 . S
N1430 C1429 1.334 . S
N1430 C1431 1.334 . S
C1431 N1430 1.334 . S
C1431 N1432 1.336 . S
N1432 Zn1428 2.020 . S
N1432 C1431 1.336 . S
N1432 N1433 1.354 . S
N1433 C1429 1.336 . S
N1433 N1432 1.354 . S
N1433 Zn1437 2.020 . S
C1434 O1435 1.244 . S
C1434 O1458 1.257 . S
O1435 C1434 1.244 . S
O1436 Zn1428 2.019 . S
O1436 C1456 1.257 . S
Zn1437 N1433 2.020 . S
Zn1437 O1444 1.975 . S
Zn1437 N1453 2.119 . S
Zn1437 O1458 2.019 . S
N1438 Zn1428 2.119 . S
N1438 C1440 1.334 . S
N1438 C1441 1.328 . S
C1439 C1440 1.391 . S
C1439 N1442 1.329 . S
C1439 H1460 0.930 . S
C1440 N1438 1.334 . S
C1440 C1439 1.391 . S
C1440 H1447 0.930 . S
C1441 N1438 1.328 . S
C1441 C1443 1.392 . S
C1441 H1448 0.930 . S
N1442 C1439 1.329 . S
N1442 C1443 1.331 . S
C1443 C1441 1.392 . S
C1443 N1442 1.331 . S
O1444 Zn1437 1.975 . S
O1444 C1445 1.252 . S
C1445 O1444 1.252 . S
C1445 O1446 1.252 . S
O1446 Zn1428 1.975 . S
O1446 C1445 1.252 . S
H1447 C1440 0.930 . S
H1448 C1441 0.930 . S
C1449 C1450 1.392 . S
C1449 N1453 1.328 . S
C1449 H1455 0.930 . S
C1450 C1449 1.392 . S
C1450 N1454 1.331 . S
C1451 C1452 1.391 . S
C1451 N1454 1.329 . S
C1451 H1461 0.930 . S
C1452 C1451 1.391 . S
C1452 N1453 1.334 . S
C1452 H1459 0.930 . S
N1453 Zn1437 2.119 . S
N1453 C1449 1.328 . S
N1453 C1452 1.334 . S
N1454 C1450 1.331 . S
N1454 C1451 1.329 . S
H1455 C1449 0.930 . S
C1456 O1436 1.257 . S
C1456 O1457 1.244 . S
O1457 C1456 1.244 . S
O1458 C1434 1.257 . S
O1458 Zn1437 2.019 . S
H1459 C1452 0.930 . S
H1460 C1439 0.930 . S
H1461 C1451 0.930 . S
Zn1462 N1466 2.020 . S
Zn1462 O1470 2.019 . S
Zn1462 N1472 2.119 . S
Zn1462 O1480 1.975 . S
C1463 N1464 1.334 . S
C1463 N1467 1.336 . S
N1464 C1463 1.334 . S
N1464 C1465 1.334 . S
C1465 N1464 1.334 . S
C1465 N1466 1.336 . S
N1466 Zn1462 2.020 . S
N1466 C1465 1.336 . S
N1466 N1467 1.354 . S
N1467 C1463 1.336 . S
N1467 N1466 1.354 . S
N1467 Zn1471 2.020 . S
C1468 O1469 1.244 . S
C1468 O1492 1.257 . S
O1469 C1468 1.244 . S
O1470 Zn1462 2.019 . S
O1470 C1490 1.257 . S
Zn1471 N1467 2.020 . S
Zn1471 O1478 1.975 . S
Zn1471 N1487 2.119 . S
Zn1471 O1492 2.019 . S
N1472 Zn1462 2.119 . S
N1472 C1474 1.334 . S
N1472 C1475 1.328 . S
C1473 C1474 1.391 . S
C1473 N1476 1.329 . S
C1473 H1494 0.930 . S
C1474 N1472 1.334 . S
C1474 C1473 1.391 . S
C1474 H1481 0.930 . S
C1475 N1472 1.328 . S
C1475 C1477 1.392 . S
C1475 H1482 0.930 . S
N1476 C1473 1.329 . S
N1476 C1477 1.331 . S
C1477 C1475 1.392 . S
C1477 N1476 1.331 . S
O1478 Zn1471 1.975 . S
O1478 C1479 1.252 . S
C1479 O1478 1.252 . S
C1479 O1480 1.252 . S
O1480 Zn1462 1.975 . S
O1480 C1479 1.252 . S
H1481 C1474 0.930 . S
H1482 C1475 0.930 . S
C1483 C1484 1.392 . S
C1483 N1487 1.328 . S
C1483 H1489 0.930 . S
C1484 C1483 1.392 . S
C1484 N1488 1.338 . S
C1485 C1486 1.391 . S
C1485 N1488 1.332 . S
C1485 H1495 0.930 1_455 S
C1486 C1485 1.391 . S
C1486 N1487 1.334 . S
C1486 H1493 0.930 . S
N1487 Zn1471 2.119 . S
N1487 C1483 1.328 . S
N1487 C1486 1.334 . S
N1488 C1484 1.338 . S
N1488 C1485 1.332 . S
H1489 C1483 0.930 . S
C1490 O1470 1.257 . S
C1490 O1491 1.244 . S
O1491 C1490 1.244 . S
O1492 C1468 1.257 . S
O1492 Zn1471 2.019 . S
H1493 C1486 0.930 . S
H1494 C1473 0.930 . S
H1495 C1485 0.930 1_655 S
Zn1496 N1500 2.020 . S
Zn1496 O1504 2.019 . S
Zn1496 N1506 2.119 . S
Zn1496 O1514 1.975 . S
C1497 N1498 1.334 . S
C1497 N1501 1.336 . S
N1498 C1497 1.334 . S
N1498 C1499 1.334 . S
C1499 N1498 1.334 . S
C1499 N1500 1.336 . S
N1500 Zn1496 2.020 . S
N1500 C1499 1.336 . S
N1500 N1501 1.354 . S
N1501 C1497 1.336 . S
N1501 N1500 1.354 . S
N1501 Zn1505 2.020 . S
C1502 O1503 1.244 . S
C1502 O1526 1.257 . S
O1503 C1502 1.244 . S
O1504 Zn1496 2.019 . S
O1504 C1524 1.257 . S
Zn1505 N1501 2.020 . S
Zn1505 O1512 1.975 . S
Zn1505 N1521 2.119 . S
Zn1505 O1526 2.019 . S
N1506 Zn1496 2.119 . S
N1506 C1508 1.334 . S
N1506 C1509 1.328 . S
C1507 C1508 1.391 . S
C1507 N1510 1.332 . S
C1507 H1528 0.930 1_545 S
C1508 N1506 1.334 . S
C1508 C1507 1.391 . S
C1508 H1515 0.930 . S
C1509 N1506 1.328 . S
C1509 C1511 1.392 . S
C1509 H1516 0.930 . S
N1510 C1507 1.332 . S
N1510 C1511 1.338 . S
C1511 C1509 1.392 . S
C1511 N1510 1.338 . S
O1512 Zn1505 1.975 . S
O1512 C1513 1.252 . S
C1513 O1512 1.252 . S
C1513 O1514 1.252 . S
O1514 Zn1496 1.975 . S
O1514 C1513 1.252 . S
H1515 C1508 0.930 . S
H1516 C1509 0.930 . S
C1517 C1518 1.392 . S
C1517 N1521 1.328 . S
C1517 H1523 0.930 . S
C1518 C1517 1.392 . S
C1518 N1522 1.331 . S
C1519 C1520 1.391 . S
C1519 N1522 1.329 . S
C1519 H1529 0.930 . S
C1520 C1519 1.391 . S
C1520 N1521 1.334 . S
C1520 H1527 0.930 . S
N1521 Zn1505 2.119 . S
N1521 C1517 1.328 . S
N1521 C1520 1.334 . S
N1522 C1518 1.331 . S
N1522 C1519 1.329 . S
H1523 C1517 0.930 . S
C1524 O1504 1.257 . S
C1524 O1525 1.244 . S
O1525 C1524 1.244 . S
O1526 C1502 1.257 . S
O1526 Zn1505 2.019 . S
H1527 C1520 0.930 . S
H1528 C1507 0.930 1_565 S
H1529 C1519 0.930 . S
Zn1530 N1534 2.020 . S
Zn1530 O1538 2.019 . S
Zn1530 N1540 2.119 . S
Zn1530 O1548 1.975 . S
C1531 N1532 1.334 . S
C1531 N1535 1.336 . S
N1532 C1531 1.334 . S
N1532 C1533 1.334 . S
C1533 N1532 1.334 . S
C1533 N1534 1.336 . S
N1534 Zn1530 2.020 . S
N1534 C1533 1.336 . S
N1534 N1535 1.354 . S
N1535 C1531 1.336 . S
N1535 N1534 1.354 . S
N1535 Zn1539 2.020 . S
C1536 O1537 1.244 . S
C1536 O1560 1.257 . S
O1537 C1536 1.244 . S
O1538 Zn1530 2.019 . S
O1538 C1558 1.257 . S
Zn1539 N1535 2.020 . S
Zn1539 O1546 1.975 . S
Zn1539 N1555 2.119 . S
Zn1539 O1560 2.019 1_556 S
N1540 Zn1530 2.119 . S
N1540 C1542 1.334 . S
N1540 C1543 1.328 . S
C1541 C1542 1.391 . S
C1541 N1544 1.329 . S
C1541 H1562 0.930 . S
C1542 N1540 1.334 . S
C1542 C1541 1.391 . S
C1542 H1549 0.930 . S
C1543 N1540 1.328 . S
C1543 C1545 1.392 . S
C1543 H1550 0.930 . S
N1544 C1541 1.329 . S
N1544 C1545 1.331 . S
C1545 C1543 1.392 . S
C1545 N1544 1.331 . S
O1546 Zn1539 1.975 . S
O1546 C1547 1.252 . S
C1547 O1546 1.252 . S
C1547 O1548 1.252 . S
O1548 Zn1530 1.975 . S
O1548 C1547 1.252 . S
H1549 C1542 0.930 . S
H1550 C1543 0.930 . S
C1551 C1552 1.392 . S
C1551 N1555 1.328 1_554 S
C1551 H1557 0.930 . S
C1552 C1551 1.392 . S
C1552 N1556 1.338 . S
C1553 C1554 1.391 . S
C1553 N1556 1.332 1_556 S
C1553 H1563 0.930 1_455 S
C1554 C1553 1.391 . S
C1554 N1555 1.334 . S
C1554 H1561 0.930 . S
N1555 Zn1539 2.119 . S
N1555 C1551 1.328 1_556 S
N1555 C1554 1.334 . S
N1556 C1552 1.338 . S
N1556 C1553 1.332 1_554 S
H1557 C1551 0.930 . S
C1558 O1538 1.257 . S
C1558 O1559 1.244 . S
O1559 C1558 1.244 . S
O1560 C1536 1.257 . S
O1560 Zn1539 2.019 1_554 S
H1561 C1554 0.930 . S
H1562 C1541 0.930 . S
H1563 C1553 0.930 1_655 S
Zn1564 N1568 2.020 . S
Zn1564 O1572 2.019 1_556 S
Zn1564 N1574 2.119 . S
Zn1564 O1582 1.975 . S
C1565 N1566 1.334 . S
C1565 N1569 1.336 . S
N1566 C1565 1.334 . S
N1566 C1567 1.334 . S
C1567 N1566 1.334 . S
C1567 N1568 1.336 . S
N1568 Zn1564 2.020 . S
N1568 C1567 1.336 . S
N1568 N1569 1.354 . S
N1569 C1565 1.336 . S
N1569 N1568 1.354 . S
N1569 Zn1573 2.020 . S
C1570 O1571 1.244 . S
C1570 O1594 1.257 . S
O1571 C1570 1.244 . S
O1572 Zn1564 2.019 1_554 S
O1572 C1592 1.257 . S
Zn1573 N1569 2.020 . S
Zn1573 O1580 1.975 . S
Zn1573 N1589 2.119 . S
Zn1573 O1594 2.019 . S
N1574 Zn1564 2.119 . S
N1574 C1576 1.334 . S
N1574 C1577 1.328 1_556 S
C1575 C1576 1.391 . S
C1575 N1578 1.332 1_556 S
C1575 H1596 0.930 1_545 S
C1576 N1574 1.334 . S
C1576 C1575 1.391 . S
C1576 H1583 0.930 . S
C1577 N1574 1.328 1_554 S
C1577 C1579 1.392 . S
C1577 H1584 0.930 . S
N1578 C1575 1.332 1_554 S
N1578 C1579 1.338 . S
C1579 C1577 1.392 . S
C1579 N1578 1.338 . S
O1580 Zn1573 1.975 . S
O1580 C1581 1.252 . S
C1581 O1580 1.252 . S
C1581 O1582 1.252 . S
O1582 Zn1564 1.975 . S
O1582 C1581 1.252 . S
H1583 C1576 0.930 . S
H1584 C1577 0.930 . S
C1585 C1586 1.392 . S
C1585 N1589 1.328 . S
C1585 H1591 0.930 . S
C1586 C1585 1.392 . S
C1586 N1590 1.331 . S
C1587 C1588 1.391 . S
C1587 N1590 1.329 . S
C1587 H1597 0.930 . S
C1588 C1587 1.391 . S
C1588 N1589 1.334 . S
C1588 H1595 0.930 . S
N1589 Zn1573 2.119 . S
N1589 C1585 1.328 . S
N1589 C1588 1.334 . S
N1590 C1586 1.331 . S
N1590 C1587 1.329 . S
H1591 C1585 0.930 . S
C1592 O1572 1.257 . S
C1592 O1593 1.244 . S
O1593 C1592 1.244 . S
O1594 C1570 1.257 . S
O1594 Zn1573 2.019 . S
H1595 C1588 0.930 . S
H1596 C1575 0.930 1_565 S
H1597 C1587 0.930 . S
Zn1598 N1602 2.020 . S
Zn1598 O1606 2.019 1_556 S
Zn1598 N1608 2.119 . S
Zn1598 O1616 1.975 . S
C1599 N1600 1.334 . S
C1599 N1603 1.336 . S
N1600 C1599 1.334 . S
N1600 C1601 1.334 . S
C1601 N1600 1.334 . S
C1601 N1602 1.336 . S
N1602 Zn1598 2.020 . S
N1602 C1601 1.336 . S
N1602 N1603 1.354 . S
N1603 C1599 1.336 . S
N1603 N1602 1.354 . S
N1603 Zn1607 2.020 . S
C1604 O1605 1.244 . S
C1604 O1628 1.257 . S
O1605 C1604 1.244 . S
O1606 Zn1598 2.019 1_554 S
O1606 C1626 1.257 . S
Zn1607 N1603 2.020 . S
Zn1607 O1614 1.975 . S
Zn1607 N1623 2.119 . S
Zn1607 O1628 2.019 . S
N1608 Zn1598 2.119 . S
N1608 C1610 1.334 . S
N1608 C1611 1.328 1_556 S
C1609 C1610 1.391 . S
C1609 N1612 1.329 1_556 S
C1609 H1630 0.930 . S
C1610 N1608 1.334 . S
C1610 C1609 1.391 . S
C1610 H1617 0.930 . S
C1611 N1608 1.328 1_554 S
C1611 C1613 1.392 . S
C1611 H1618 0.930 . S
N1612 C1609 1.329 1_554 S
N1612 C1613 1.331 . S
C1613 C1611 1.392 . S
C1613 N1612 1.331 . S
O1614 Zn1607 1.975 . S
O1614 C1615 1.252 . S
C1615 O1614 1.252 . S
C1615 O1616 1.252 . S
O1616 Zn1598 1.975 . S
O1616 C1615 1.252 . S
H1617 C1610 0.930 . S
H1618 C1611 0.930 . S
C1619 C1620 1.392 . S
C1619 N1623 1.328 . S
C1619 H1625 0.930 . S
C1620 C1619 1.392 . S
C1620 N1624 1.331 . S
C1621 C1622 1.391 . S
C1621 N1624 1.329 . S
C1621 H1631 0.930 . S
C1622 C1621 1.391 . S
C1622 N1623 1.334 . S
C1622 H1629 0.930 . S
N1623 Zn1607 2.119 . S
N1623 C1619 1.328 . S
N1623 C1622 1.334 . S
N1624 C1620 1.331 . S
N1624 C1621 1.329 . S
H1625 C1619 0.930 . S
C1626 O1606 1.257 . S
C1626 O1627 1.244 . S
O1627 C1626 1.244 . S
O1628 C1604 1.257 . S
O1628 Zn1607 2.019 . S
H1629 C1622 0.930 . S
H1630 C1609 0.930 . S
H1631 C1621 0.930 . S
C15 C770 1.171 . S
C566 C49 1.171 . S
C90 C797 1.171 . S
C124 C736 1.171 . S
C158 C634 1.171 . S
C661 C192 1.171 . S
C702 C219 1.171 . S
C593 C253 1.171 . S
C294 C457 1.171 . S
C328 C498 1.171 . S
C362 C525 1.171 . S
C423 C396 1.171 . S
C831 C1586 1.171 . S
C872 C1382 1.171 . S
C899 C1620 1.171 . S
C933 C1545 1.171 . S
C1443 C974 1.171 . S
C1477 C1001 1.171 . S
C1518 C1042 1.171 . S
C1076 C1416 1.171 . S
C1273 C1103 1.171 . S
C1137 C1307 1.171 . S
C1348 C1178 1.171 . S
C1212 C1246 1.171 . S
C17 C1552 3.187 . S
C51 C1579 3.187 . S
C1375 C85 3.187 . S
C119 C1613 3.187 . S
C1484 C153 3.187 . S
C187 C1511 3.187 . S
C221 C1409 3.187 . S
C255 C1450 3.187 . S
C967 C289 3.187 . S
C1008 C323 3.187 . S
C357 C1035 3.187 . S
C1069 C391 3.187 . S
C425 C838 3.187 . S
C865 C459 3.187 . S
C493 C906 3.187 . S
C940 C527 3.187 . S
C1314 C561 3.187 . S
C595 C1171 3.187 . S
C629 C1205 3.187 . S
C663 C1110 3.187 . S
C697 C1144 3.187 . S
C1239 C731 3.187 . S
C765 C1280 3.187 . S
C1341 C799 3.187 . S
C729 C833 3.187 . S
C763 C867 3.187 . S
C559 C901 3.187 . S
C935 C804 3.187 . S
C969 C668 3.187 . S
C695 C1003 3.187 . S
C1037 C600 3.187 . S
C627 C1071 3.187 . S
C1105 C151 3.187 . S
C185 C1139 3.187 . S
C1173 C226 3.187 . S
C1207 C260 3.187 . S
C22 C1241 3.187 . S
C1275 C56 3.187 . S
C83 C1309 3.187 . S
C1343 C117 3.187 . S
C1377 C491 3.187 . S
C355 C1411 3.187 . S
C1445 C389 3.187 . S
C287 C1479 3.187 . S
C1513 C321 3.187 . S
C430 C1547 3.187 . S
C464 C1581 3.187 . S
C532 C1615 3.187 . S
C28 C785 3.038 . S
C715 C62 3.038 . S
C749 C74 3.038 . S
C545 C108 3.038 . S
C142 C681 3.038 . S
C176 C581 3.038 . S
C232 C613 3.038 . S
C649 C266 3.038 . S
C375 C278 3.038 . S
C273 C312 3.038 . S
C346 C307 3.038 . S
C341 C380 3.038 . S
C436 C445 3.038 . S
C470 C477 3.038 . S
C482 C513 3.038 . S
C538 C411 3.038 . S
C550 C171 3.038 . S
C103 C606 3.038 . S
C3 C618 3.038 . S
C674 C37 3.038 . S
C69 C686 3.038 . S
C241 C720 3.038 . S
C754 C137 3.038 . S
C207 C810 3.038 . S
C844 C1599 3.038 . S
C856 C1533 3.038 . S
C1565 C912 3.038 . S
C1361 C946 3.038 . S
C958 C1497 3.038 . S
C1395 C1014 3.038 . S
C1026 C1431 3.038 . S
C1465 C1060 3.038 . S
C1116 C1191 3.038 . S
C1091 C1150 3.038 . S
C1162 C1125 3.038 . S
C1157 C1196 3.038 . S
C1230 C1261 3.038 . S
C1295 C1286 3.038 . S
C1327 C1320 3.038 . S
C1225 C1332 3.038 . S
C989 C1366 3.038 . S
C921 C1400 3.038 . S
C819 C1456 3.038 . S
C851 C1490 3.038 . S
C887 C1502 3.038 . S
C1558 C1055 3.038 . S
C1570 C953 3.038 . S
C1021 C1604 3.038 . S
C1218 C1 1.878 . S
C1094 C35 1.878 . S
C1128 C71 1.878 . S
C105 C1184 1.878 . S
C139 C1264 1.878 . S
C173 C1298 1.878 . S
C205 C1354 1.878 . S
C1252 C239 1.878 . S
C992 C275 1.878 . S
C309 C1048 1.878 . S
C1082 C343 1.878 . S
C377 C980 1.878 . S
C409 C924 1.878 . S
C443 C822 1.878 . S
C878 C479 1.878 . S
C890 C511 1.878 . S
C547 C1626 1.878 . S
C1524 C579 1.878 . S
C615 C1422 1.878 . S
C1434 C647 1.878 . S
C1468 C683 1.878 . S
C717 C1592 1.878 . S
C1388 C751 1.878 . S
C783 C1536 1.878 . S
C402 C817 1.878 . S
C853 C300 1.878 . S
C885 C334 1.878 . S
C368 C919 1.878 . S
C955 C448 1.878 . S
C504 C987 1.878 . S
C516 C1023 1.878 . S
C414 C1057 1.878 . S
C1089 C198 1.878 . S
C210 C1123 1.878 . S
C244 C1159 1.878 . S
C164 C1193 1.878 . S
C130 C1227 1.878 . S
C6 C1259 1.878 . S
C40 C1293 1.878 . S
C1329 C96 1.878 . S
C788 C1363 1.878 . S
C1397 C708 1.878 . S
C1429 C584 1.878 . S
C1463 C640 1.878 . S
C1499 C652 1.878 . S
C776 C1531 1.878 . S
C1567 C572 1.878 . S
C1601 C742 1.878 . S
