# Generated by pormake.
# Topology fau, (4)-cn, num edge types: 1
# Building blocks:
#     Node 0, Type 0, BuildingBlock: QUQFOY_clean_sbu_1, # of connection points: 4
#     Node 1, Type 0, BuildingBlock: QUQFOY_clean_sbu_1, # of connection points: 4
#     Node 2, Type 0, BuildingBlock: QUQFOY_clean_sbu_1, # of connection points: 4
#     Node 3, Type 0, BuildingBlock: QUQFOY_clean_sbu_1, # of connection points: 4
#     Node 4, Type 0, BuildingBlock: QUQFOY_clean_sbu_1, # of connection points: 4
#     Node 5, Type 0, BuildingBlock: QUQFOY_clean_sbu_1, # of connection points: 4
#     Node 6, Type 0, BuildingBlock: QUQFOY_clean_sbu_1, # of connection points: 4
#     Node 7, Type 0, BuildingBlock: QUQFOY_clean_sbu_1, # of connection points: 4
#     Node 8, Type 0, BuildingBlock: QUQFOY_clean_sbu_1, # of connection points: 4
#     Node 9, Type 0, BuildingBlock: QUQFOY_clean_sbu_1, # of connection points: 4
#     Node 10, Type 0, BuildingBlock: QUQFOY_clean_sbu_1, # of connection points: 4
#     Node 11, Type 0, BuildingBlock: QUQFOY_clean_sbu_1, # of connection points: 4
#     Node 12, Type 0, BuildingBlock: QUQFOY_clean_sbu_1, # of connection points: 4
#     Node 13, Type 0, BuildingBlock: QUQFOY_clean_sbu_1, # of connection points: 4
#     Node 14, Type 0, BuildingBlock: QUQFOY_clean_sbu_1, # of connection points: 4
#     Node 15, Type 0, BuildingBlock: QUQFOY_clean_sbu_1, # of connection points: 4
#     Node 16, Type 0, BuildingBlock: QUQFOY_clean_sbu_1, # of connection points: 4
#     Node 17, Type 0, BuildingBlock: QUQFOY_clean_sbu_1, # of connection points: 4
#     Node 18, Type 0, BuildingBlock: QUQFOY_clean_sbu_1, # of connection points: 4
#     Node 19, Type 0, BuildingBlock: QUQFOY_clean_sbu_1, # of connection points: 4
#     Node 20, Type 0, BuildingBlock: QUQFOY_clean_sbu_1, # of connection points: 4
#     Node 21, Type 0, BuildingBlock: QUQFOY_clean_sbu_1, # of connection points: 4
#     Node 22, Type 0, BuildingBlock: QUQFOY_clean_sbu_1, # of connection points: 4
#     Node 23, Type 0, BuildingBlock: QUQFOY_clean_sbu_1, # of connection points: 4
#     Node 24, Type 0, BuildingBlock: QUQFOY_clean_sbu_1, # of connection points: 4
#     Node 25, Type 0, BuildingBlock: QUQFOY_clean_sbu_1, # of connection points: 4
#     Node 26, Type 0, BuildingBlock: QUQFOY_clean_sbu_1, # of connection points: 4
#     Node 27, Type 0, BuildingBlock: QUQFOY_clean_sbu_1, # of connection points: 4
#     Node 28, Type 0, BuildingBlock: QUQFOY_clean_sbu_1, # of connection points: 4
#     Node 29, Type 0, BuildingBlock: QUQFOY_clean_sbu_1, # of connection points: 4
#     Node 30, Type 0, BuildingBlock: QUQFOY_clean_sbu_1, # of connection points: 4
#     Node 31, Type 0, BuildingBlock: QUQFOY_clean_sbu_1, # of connection points: 4
#     Node 32, Type 0, BuildingBlock: QUQFOY_clean_sbu_1, # of connection points: 4
#     Node 33, Type 0, BuildingBlock: QUQFOY_clean_sbu_1, # of connection points: 4
#     Node 34, Type 0, BuildingBlock: QUQFOY_clean_sbu_1, # of connection points: 4
#     Node 35, Type 0, BuildingBlock: QUQFOY_clean_sbu_1, # of connection points: 4
#     Node 36, Type 0, BuildingBlock: QUQFOY_clean_sbu_1, # of connection points: 4
#     Node 37, Type 0, BuildingBlock: QUQFOY_clean_sbu_1, # of connection points: 4
#     Node 38, Type 0, BuildingBlock: QUQFOY_clean_sbu_1, # of connection points: 4
#     Node 39, Type 0, BuildingBlock: QUQFOY_clean_sbu_1, # of connection points: 4
#     Node 40, Type 0, BuildingBlock: QUQFOY_clean_sbu_1, # of connection points: 4
#     Node 41, Type 0, BuildingBlock: QUQFOY_clean_sbu_1, # of connection points: 4
#     Node 42, Type 0, BuildingBlock: QUQFOY_clean_sbu_1, # of connection points: 4
#     Node 43, Type 0, BuildingBlock: QUQFOY_clean_sbu_1, # of connection points: 4
#     Node 44, Type 0, BuildingBlock: QUQFOY_clean_sbu_1, # of connection points: 4
#     Node 45, Type 0, BuildingBlock: QUQFOY_clean_sbu_1, # of connection points: 4
#     Node 46, Type 0, BuildingBlock: QUQFOY_clean_sbu_1, # of connection points: 4
#     Node 47, Type 0, BuildingBlock: QUQFOY_clean_sbu_1, # of connection points: 4
#     Node 48, Type 0, BuildingBlock: QUQFOY_clean_sbu_1, # of connection points: 4
#     Node 49, Type 0, BuildingBlock: QUQFOY_clean_sbu_1, # of connection points: 4
#     Node 50, Type 0, BuildingBlock: QUQFOY_clean_sbu_1, # of connection points: 4
#     Node 51, Type 0, BuildingBlock: QUQFOY_clean_sbu_1, # of connection points: 4
#     Node 52, Type 0, BuildingBlock: QUQFOY_clean_sbu_1, # of connection points: 4
#     Node 53, Type 0, BuildingBlock: QUQFOY_clean_sbu_1, # of connection points: 4
#     Node 54, Type 0, BuildingBlock: QUQFOY_clean_sbu_1, # of connection points: 4
#     Node 55, Type 0, BuildingBlock: QUQFOY_clean_sbu_1, # of connection points: 4
#     Node 56, Type 0, BuildingBlock: QUQFOY_clean_sbu_1, # of connection points: 4
#     Node 57, Type 0, BuildingBlock: QUQFOY_clean_sbu_1, # of connection points: 4
#     Node 58, Type 0, BuildingBlock: QUQFOY_clean_sbu_1, # of connection points: 4
#     Node 59, Type 0, BuildingBlock: QUQFOY_clean_sbu_1, # of connection points: 4
#     Node 60, Type 0, BuildingBlock: QUQFOY_clean_sbu_1, # of connection points: 4
#     Node 61, Type 0, BuildingBlock: QUQFOY_clean_sbu_1, # of connection points: 4
#     Node 62, Type 0, BuildingBlock: QUQFOY_clean_sbu_1, # of connection points: 4
#     Node 63, Type 0, BuildingBlock: QUQFOY_clean_sbu_1, # of connection points: 4
#     Node 64, Type 0, BuildingBlock: QUQFOY_clean_sbu_1, # of connection points: 4
#     Node 65, Type 0, BuildingBlock: QUQFOY_clean_sbu_1, # of connection points: 4
#     Node 66, Type 0, BuildingBlock: QUQFOY_clean_sbu_1, # of connection points: 4
#     Node 67, Type 0, BuildingBlock: QUQFOY_clean_sbu_1, # of connection points: 4
#     Node 68, Type 0, BuildingBlock: QUQFOY_clean_sbu_1, # of connection points: 4
#     Node 69, Type 0, BuildingBlock: QUQFOY_clean_sbu_1, # of connection points: 4
#     Node 70, Type 0, BuildingBlock: QUQFOY_clean_sbu_1, # of connection points: 4
#     Node 71, Type 0, BuildingBlock: QUQFOY_clean_sbu_1, # of connection points: 4
#     Node 72, Type 0, BuildingBlock: QUQFOY_clean_sbu_1, # of connection points: 4
#     Node 73, Type 0, BuildingBlock: QUQFOY_clean_sbu_1, # of connection points: 4
#     Node 74, Type 0, BuildingBlock: QUQFOY_clean_sbu_1, # of connection points: 4
#     Node 75, Type 0, BuildingBlock: QUQFOY_clean_sbu_1, # of connection points: 4
#     Node 76, Type 0, BuildingBlock: QUQFOY_clean_sbu_1, # of connection points: 4
#     Node 77, Type 0, BuildingBlock: QUQFOY_clean_sbu_1, # of connection points: 4
#     Node 78, Type 0, BuildingBlock: QUQFOY_clean_sbu_1, # of connection points: 4
#     Node 79, Type 0, BuildingBlock: QUQFOY_clean_sbu_1, # of connection points: 4
#     Node 80, Type 0, BuildingBlock: QUQFOY_clean_sbu_1, # of connection points: 4
#     Node 81, Type 0, BuildingBlock: QUQFOY_clean_sbu_1, # of connection points: 4
#     Node 82, Type 0, BuildingBlock: QUQFOY_clean_sbu_1, # of connection points: 4
#     Node 83, Type 0, BuildingBlock: QUQFOY_clean_sbu_1, # of connection points: 4
#     Node 84, Type 0, BuildingBlock: QUQFOY_clean_sbu_1, # of connection points: 4
#     Node 85, Type 0, BuildingBlock: QUQFOY_clean_sbu_1, # of connection points: 4
#     Node 86, Type 0, BuildingBlock: QUQFOY_clean_sbu_1, # of connection points: 4
#     Node 87, Type 0, BuildingBlock: QUQFOY_clean_sbu_1, # of connection points: 4
#     Node 88, Type 0, BuildingBlock: QUQFOY_clean_sbu_1, # of connection points: 4
#     Node 89, Type 0, BuildingBlock: QUQFOY_clean_sbu_1, # of connection points: 4
#     Node 90, Type 0, BuildingBlock: QUQFOY_clean_sbu_1, # of connection points: 4
#     Node 91, Type 0, BuildingBlock: QUQFOY_clean_sbu_1, # of connection points: 4
#     Node 92, Type 0, BuildingBlock: QUQFOY_clean_sbu_1, # of connection points: 4
#     Node 93, Type 0, BuildingBlock: QUQFOY_clean_sbu_1, # of connection points: 4
#     Node 94, Type 0, BuildingBlock: QUQFOY_clean_sbu_1, # of connection points: 4
#     Node 95, Type 0, BuildingBlock: QUQFOY_clean_sbu_1, # of connection points: 4
#     Node 96, Type 0, BuildingBlock: QUQFOY_clean_sbu_1, # of connection points: 4
#     Node 97, Type 0, BuildingBlock: QUQFOY_clean_sbu_1, # of connection points: 4
#     Node 98, Type 0, BuildingBlock: QUQFOY_clean_sbu_1, # of connection points: 4
#     Node 99, Type 0, BuildingBlock: QUQFOY_clean_sbu_1, # of connection points: 4
#     Node 100, Type 0, BuildingBlock: QUQFOY_clean_sbu_1, # of connection points: 4
#     Node 101, Type 0, BuildingBlock: QUQFOY_clean_sbu_1, # of connection points: 4
#     Node 102, Type 0, BuildingBlock: QUQFOY_clean_sbu_1, # of connection points: 4
#     Node 103, Type 0, BuildingBlock: QUQFOY_clean_sbu_1, # of connection points: 4
#     Node 104, Type 0, BuildingBlock: QUQFOY_clean_sbu_1, # of connection points: 4
#     Node 105, Type 0, BuildingBlock: QUQFOY_clean_sbu_1, # of connection points: 4
#     Node 106, Type 0, BuildingBlock: QUQFOY_clean_sbu_1, # of connection points: 4
#     Node 107, Type 0, BuildingBlock: QUQFOY_clean_sbu_1, # of connection points: 4
#     Node 108, Type 0, BuildingBlock: QUQFOY_clean_sbu_1, # of connection points: 4
#     Node 109, Type 0, BuildingBlock: QUQFOY_clean_sbu_1, # of connection points: 4
#     Node 110, Type 0, BuildingBlock: QUQFOY_clean_sbu_1, # of connection points: 4
#     Node 111, Type 0, BuildingBlock: QUQFOY_clean_sbu_1, # of connection points: 4
#     Node 112, Type 0, BuildingBlock: QUQFOY_clean_sbu_1, # of connection points: 4
#     Node 113, Type 0, BuildingBlock: QUQFOY_clean_sbu_1, # of connection points: 4
#     Node 114, Type 0, BuildingBlock: QUQFOY_clean_sbu_1, # of connection points: 4
#     Node 115, Type 0, BuildingBlock: QUQFOY_clean_sbu_1, # of connection points: 4
#     Node 116, Type 0, BuildingBlock: QUQFOY_clean_sbu_1, # of connection points: 4
#     Node 117, Type 0, BuildingBlock: QUQFOY_clean_sbu_1, # of connection points: 4
#     Node 118, Type 0, BuildingBlock: QUQFOY_clean_sbu_1, # of connection points: 4
#     Node 119, Type 0, BuildingBlock: QUQFOY_clean_sbu_1, # of connection points: 4
#     Node 120, Type 0, BuildingBlock: QUQFOY_clean_sbu_1, # of connection points: 4
#     Node 121, Type 0, BuildingBlock: QUQFOY_clean_sbu_1, # of connection points: 4
#     Node 122, Type 0, BuildingBlock: QUQFOY_clean_sbu_1, # of connection points: 4
#     Node 123, Type 0, BuildingBlock: QUQFOY_clean_sbu_1, # of connection points: 4
#     Node 124, Type 0, BuildingBlock: QUQFOY_clean_sbu_1, # of connection points: 4
#     Node 125, Type 0, BuildingBlock: QUQFOY_clean_sbu_1, # of connection points: 4
#     Node 126, Type 0, BuildingBlock: QUQFOY_clean_sbu_1, # of connection points: 4
#     Node 127, Type 0, BuildingBlock: QUQFOY_clean_sbu_1, # of connection points: 4
#     Node 128, Type 0, BuildingBlock: QUQFOY_clean_sbu_1, # of connection points: 4
#     Node 129, Type 0, BuildingBlock: QUQFOY_clean_sbu_1, # of connection points: 4
#     Node 130, Type 0, BuildingBlock: QUQFOY_clean_sbu_1, # of connection points: 4
#     Node 131, Type 0, BuildingBlock: QUQFOY_clean_sbu_1, # of connection points: 4
#     Node 132, Type 0, BuildingBlock: QUQFOY_clean_sbu_1, # of connection points: 4
#     Node 133, Type 0, BuildingBlock: QUQFOY_clean_sbu_1, # of connection points: 4
#     Node 134, Type 0, BuildingBlock: QUQFOY_clean_sbu_1, # of connection points: 4
#     Node 135, Type 0, BuildingBlock: QUQFOY_clean_sbu_1, # of connection points: 4
#     Node 136, Type 0, BuildingBlock: QUQFOY_clean_sbu_1, # of connection points: 4
#     Node 137, Type 0, BuildingBlock: QUQFOY_clean_sbu_1, # of connection points: 4
#     Node 138, Type 0, BuildingBlock: QUQFOY_clean_sbu_1, # of connection points: 4
#     Node 139, Type 0, BuildingBlock: QUQFOY_clean_sbu_1, # of connection points: 4
#     Node 140, Type 0, BuildingBlock: QUQFOY_clean_sbu_1, # of connection points: 4
#     Node 141, Type 0, BuildingBlock: QUQFOY_clean_sbu_1, # of connection points: 4
#     Node 142, Type 0, BuildingBlock: QUQFOY_clean_sbu_1, # of connection points: 4
#     Node 143, Type 0, BuildingBlock: QUQFOY_clean_sbu_1, # of connection points: 4
#     Node 144, Type 0, BuildingBlock: QUQFOY_clean_sbu_1, # of connection points: 4
#     Node 145, Type 0, BuildingBlock: QUQFOY_clean_sbu_1, # of connection points: 4
#     Node 146, Type 0, BuildingBlock: QUQFOY_clean_sbu_1, # of connection points: 4
#     Node 147, Type 0, BuildingBlock: QUQFOY_clean_sbu_1, # of connection points: 4
#     Node 148, Type 0, BuildingBlock: QUQFOY_clean_sbu_1, # of connection points: 4
#     Node 149, Type 0, BuildingBlock: QUQFOY_clean_sbu_1, # of connection points: 4
#     Node 150, Type 0, BuildingBlock: QUQFOY_clean_sbu_1, # of connection points: 4
#     Node 151, Type 0, BuildingBlock: QUQFOY_clean_sbu_1, # of connection points: 4
#     Node 152, Type 0, BuildingBlock: QUQFOY_clean_sbu_1, # of connection points: 4
#     Node 153, Type 0, BuildingBlock: QUQFOY_clean_sbu_1, # of connection points: 4
#     Node 154, Type 0, BuildingBlock: QUQFOY_clean_sbu_1, # of connection points: 4
#     Node 155, Type 0, BuildingBlock: QUQFOY_clean_sbu_1, # of connection points: 4
#     Node 156, Type 0, BuildingBlock: QUQFOY_clean_sbu_1, # of connection points: 4
#     Node 157, Type 0, BuildingBlock: QUQFOY_clean_sbu_1, # of connection points: 4
#     Node 158, Type 0, BuildingBlock: QUQFOY_clean_sbu_1, # of connection points: 4
#     Node 159, Type 0, BuildingBlock: QUQFOY_clean_sbu_1, # of connection points: 4
#     Node 160, Type 0, BuildingBlock: QUQFOY_clean_sbu_1, # of connection points: 4
#     Node 161, Type 0, BuildingBlock: QUQFOY_clean_sbu_1, # of connection points: 4
#     Node 162, Type 0, BuildingBlock: QUQFOY_clean_sbu_1, # of connection points: 4
#     Node 163, Type 0, BuildingBlock: QUQFOY_clean_sbu_1, # of connection points: 4
#     Node 164, Type 0, BuildingBlock: QUQFOY_clean_sbu_1, # of connection points: 4
#     Node 165, Type 0, BuildingBlock: QUQFOY_clean_sbu_1, # of connection points: 4
#     Node 166, Type 0, BuildingBlock: QUQFOY_clean_sbu_1, # of connection points: 4
#     Node 167, Type 0, BuildingBlock: QUQFOY_clean_sbu_1, # of connection points: 4
#     Node 168, Type 0, BuildingBlock: QUQFOY_clean_sbu_1, # of connection points: 4
#     Node 169, Type 0, BuildingBlock: QUQFOY_clean_sbu_1, # of connection points: 4
#     Node 170, Type 0, BuildingBlock: QUQFOY_clean_sbu_1, # of connection points: 4
#     Node 171, Type 0, BuildingBlock: QUQFOY_clean_sbu_1, # of connection points: 4
#     Node 172, Type 0, BuildingBlock: QUQFOY_clean_sbu_1, # of connection points: 4
#     Node 173, Type 0, BuildingBlock: QUQFOY_clean_sbu_1, # of connection points: 4
#     Node 174, Type 0, BuildingBlock: QUQFOY_clean_sbu_1, # of connection points: 4
#     Node 175, Type 0, BuildingBlock: QUQFOY_clean_sbu_1, # of connection points: 4
#     Node 176, Type 0, BuildingBlock: QUQFOY_clean_sbu_1, # of connection points: 4
#     Node 177, Type 0, BuildingBlock: QUQFOY_clean_sbu_1, # of connection points: 4
#     Node 178, Type 0, BuildingBlock: QUQFOY_clean_sbu_1, # of connection points: 4
#     Node 179, Type 0, BuildingBlock: QUQFOY_clean_sbu_1, # of connection points: 4
#     Node 180, Type 0, BuildingBlock: QUQFOY_clean_sbu_1, # of connection points: 4
#     Node 181, Type 0, BuildingBlock: QUQFOY_clean_sbu_1, # of connection points: 4
#     Node 182, Type 0, BuildingBlock: QUQFOY_clean_sbu_1, # of connection points: 4
#     Node 183, Type 0, BuildingBlock: QUQFOY_clean_sbu_1, # of connection points: 4
#     Node 184, Type 0, BuildingBlock: QUQFOY_clean_sbu_1, # of connection points: 4
#     Node 185, Type 0, BuildingBlock: QUQFOY_clean_sbu_1, # of connection points: 4
#     Node 186, Type 0, BuildingBlock: QUQFOY_clean_sbu_1, # of connection points: 4
#     Node 187, Type 0, BuildingBlock: QUQFOY_clean_sbu_1, # of connection points: 4
#     Node 188, Type 0, BuildingBlock: QUQFOY_clean_sbu_1, # of connection points: 4
#     Node 189, Type 0, BuildingBlock: QUQFOY_clean_sbu_1, # of connection points: 4
#     Node 190, Type 0, BuildingBlock: QUQFOY_clean_sbu_1, # of connection points: 4
#     Node 191, Type 0, BuildingBlock: QUQFOY_clean_sbu_1, # of connection points: 4
#     Edge 192, Type (0, 0), BuildingBlock: XIVTED_clean_linker_0, # of connection points: 2
#     Edge 193, Type (0, 0), BuildingBlock: XIVTED_clean_linker_0, # of connection points: 2
#     Edge 194, Type (0, 0), BuildingBlock: XIVTED_clean_linker_0, # of connection points: 2
#     Edge 195, Type (0, 0), BuildingBlock: XIVTED_clean_linker_0, # of connection points: 2
#     Edge 196, Type (0, 0), BuildingBlock: XIVTED_clean_linker_0, # of connection points: 2
#     Edge 197, Type (0, 0), BuildingBlock: XIVTED_clean_linker_0, # of connection points: 2
#     Edge 198, Type (0, 0), BuildingBlock: XIVTED_clean_linker_0, # of connection points: 2
#     Edge 199, Type (0, 0), BuildingBlock: XIVTED_clean_linker_0, # of connection points: 2
#     Edge 200, Type (0, 0), BuildingBlock: XIVTED_clean_linker_0, # of connection points: 2
#     Edge 201, Type (0, 0), BuildingBlock: XIVTED_clean_linker_0, # of connection points: 2
#     Edge 202, Type (0, 0), BuildingBlock: XIVTED_clean_linker_0, # of connection points: 2
#     Edge 203, Type (0, 0), BuildingBlock: XIVTED_clean_linker_0, # of connection points: 2
#     Edge 204, Type (0, 0), BuildingBlock: XIVTED_clean_linker_0, # of connection points: 2
#     Edge 205, Type (0, 0), BuildingBlock: XIVTED_clean_linker_0, # of connection points: 2
#     Edge 206, Type (0, 0), BuildingBlock: XIVTED_clean_linker_0, # of connection points: 2
#     Edge 207, Type (0, 0), BuildingBlock: XIVTED_clean_linker_0, # of connection points: 2
#     Edge 208, Type (0, 0), BuildingBlock: XIVTED_clean_linker_0, # of connection points: 2
#     Edge 209, Type (0, 0), BuildingBlock: XIVTED_clean_linker_0, # of connection points: 2
#     Edge 210, Type (0, 0), BuildingBlock: XIVTED_clean_linker_0, # of connection points: 2
#     Edge 211, Type (0, 0), BuildingBlock: XIVTED_clean_linker_0, # of connection points: 2
#     Edge 212, Type (0, 0), BuildingBlock: XIVTED_clean_linker_0, # of connection points: 2
#     Edge 213, Type (0, 0), BuildingBlock: XIVTED_clean_linker_0, # of connection points: 2
#     Edge 214, Type (0, 0), BuildingBlock: XIVTED_clean_linker_0, # of connection points: 2
#     Edge 215, Type (0, 0), BuildingBlock: XIVTED_clean_linker_0, # of connection points: 2
#     Edge 216, Type (0, 0), BuildingBlock: XIVTED_clean_linker_0, # of connection points: 2
#     Edge 217, Type (0, 0), BuildingBlock: XIVTED_clean_linker_0, # of connection points: 2
#     Edge 218, Type (0, 0), BuildingBlock: XIVTED_clean_linker_0, # of connection points: 2
#     Edge 219, Type (0, 0), BuildingBlock: XIVTED_clean_linker_0, # of connection points: 2
#     Edge 220, Type (0, 0), BuildingBlock: XIVTED_clean_linker_0, # of connection points: 2
#     Edge 221, Type (0, 0), BuildingBlock: XIVTED_clean_linker_0, # of connection points: 2
#     Edge 222, Type (0, 0), BuildingBlock: XIVTED_clean_linker_0, # of connection points: 2
#     Edge 223, Type (0, 0), BuildingBlock: XIVTED_clean_linker_0, # of connection points: 2
#     Edge 224, Type (0, 0), BuildingBlock: XIVTED_clean_linker_0, # of connection points: 2
#     Edge 225, Type (0, 0), BuildingBlock: XIVTED_clean_linker_0, # of connection points: 2
#     Edge 226, Type (0, 0), BuildingBlock: XIVTED_clean_linker_0, # of connection points: 2
#     Edge 227, Type (0, 0), BuildingBlock: XIVTED_clean_linker_0, # of connection points: 2
#     Edge 228, Type (0, 0), BuildingBlock: XIVTED_clean_linker_0, # of connection points: 2
#     Edge 229, Type (0, 0), BuildingBlock: XIVTED_clean_linker_0, # of connection points: 2
#     Edge 230, Type (0, 0), BuildingBlock: XIVTED_clean_linker_0, # of connection points: 2
#     Edge 231, Type (0, 0), BuildingBlock: XIVTED_clean_linker_0, # of connection points: 2
#     Edge 232, Type (0, 0), BuildingBlock: XIVTED_clean_linker_0, # of connection points: 2
#     Edge 233, Type (0, 0), BuildingBlock: XIVTED_clean_linker_0, # of connection points: 2
#     Edge 234, Type (0, 0), BuildingBlock: XIVTED_clean_linker_0, # of connection points: 2
#     Edge 235, Type (0, 0), BuildingBlock: XIVTED_clean_linker_0, # of connection points: 2
#     Edge 236, Type (0, 0), BuildingBlock: XIVTED_clean_linker_0, # of connection points: 2
#     Edge 237, Type (0, 0), BuildingBlock: XIVTED_clean_linker_0, # of connection points: 2
#     Edge 238, Type (0, 0), BuildingBlock: XIVTED_clean_linker_0, # of connection points: 2
#     Edge 239, Type (0, 0), BuildingBlock: XIVTED_clean_linker_0, # of connection points: 2
#     Edge 240, Type (0, 0), BuildingBlock: XIVTED_clean_linker_0, # of connection points: 2
#     Edge 241, Type (0, 0), BuildingBlock: XIVTED_clean_linker_0, # of connection points: 2
#     Edge 242, Type (0, 0), BuildingBlock: XIVTED_clean_linker_0, # of connection points: 2
#     Edge 243, Type (0, 0), BuildingBlock: XIVTED_clean_linker_0, # of connection points: 2
#     Edge 244, Type (0, 0), BuildingBlock: XIVTED_clean_linker_0, # of connection points: 2
#     Edge 245, Type (0, 0), BuildingBlock: XIVTED_clean_linker_0, # of connection points: 2
#     Edge 246, Type (0, 0), BuildingBlock: XIVTED_clean_linker_0, # of connection points: 2
#     Edge 247, Type (0, 0), BuildingBlock: XIVTED_clean_linker_0, # of connection points: 2
#     Edge 248, Type (0, 0), BuildingBlock: XIVTED_clean_linker_0, # of connection points: 2
#     Edge 249, Type (0, 0), BuildingBlock: XIVTED_clean_linker_0, # of connection points: 2
#     Edge 250, Type (0, 0), BuildingBlock: XIVTED_clean_linker_0, # of connection points: 2
#     Edge 251, Type (0, 0), BuildingBlock: XIVTED_clean_linker_0, # of connection points: 2
#     Edge 252, Type (0, 0), BuildingBlock: XIVTED_clean_linker_0, # of connection points: 2
#     Edge 253, Type (0, 0), BuildingBlock: XIVTED_clean_linker_0, # of connection points: 2
#     Edge 254, Type (0, 0), BuildingBlock: XIVTED_clean_linker_0, # of connection points: 2
#     Edge 255, Type (0, 0), BuildingBlock: XIVTED_clean_linker_0, # of connection points: 2
#     Edge 256, Type (0, 0), BuildingBlock: XIVTED_clean_linker_0, # of connection points: 2
#     Edge 257, Type (0, 0), BuildingBlock: XIVTED_clean_linker_0, # of connection points: 2
#     Edge 258, Type (0, 0), BuildingBlock: XIVTED_clean_linker_0, # of connection points: 2
#     Edge 259, Type (0, 0), BuildingBlock: XIVTED_clean_linker_0, # of connection points: 2
#     Edge 260, Type (0, 0), BuildingBlock: XIVTED_clean_linker_0, # of connection points: 2
#     Edge 261, Type (0, 0), BuildingBlock: XIVTED_clean_linker_0, # of connection points: 2
#     Edge 262, Type (0, 0), BuildingBlock: XIVTED_clean_linker_0, # of connection points: 2
#     Edge 263, Type (0, 0), BuildingBlock: XIVTED_clean_linker_0, # of connection points: 2
#     Edge 264, Type (0, 0), BuildingBlock: XIVTED_clean_linker_0, # of connection points: 2
#     Edge 265, Type (0, 0), BuildingBlock: XIVTED_clean_linker_0, # of connection points: 2
#     Edge 266, Type (0, 0), BuildingBlock: XIVTED_clean_linker_0, # of connection points: 2
#     Edge 267, Type (0, 0), BuildingBlock: XIVTED_clean_linker_0, # of connection points: 2
#     Edge 268, Type (0, 0), BuildingBlock: XIVTED_clean_linker_0, # of connection points: 2
#     Edge 269, Type (0, 0), BuildingBlock: XIVTED_clean_linker_0, # of connection points: 2
#     Edge 270, Type (0, 0), BuildingBlock: XIVTED_clean_linker_0, # of connection points: 2
#     Edge 271, Type (0, 0), BuildingBlock: XIVTED_clean_linker_0, # of connection points: 2
#     Edge 272, Type (0, 0), BuildingBlock: XIVTED_clean_linker_0, # of connection points: 2
#     Edge 273, Type (0, 0), BuildingBlock: XIVTED_clean_linker_0, # of connection points: 2
#     Edge 274, Type (0, 0), BuildingBlock: XIVTED_clean_linker_0, # of connection points: 2
#     Edge 275, Type (0, 0), BuildingBlock: XIVTED_clean_linker_0, # of connection points: 2
#     Edge 276, Type (0, 0), BuildingBlock: XIVTED_clean_linker_0, # of connection points: 2
#     Edge 277, Type (0, 0), BuildingBlock: XIVTED_clean_linker_0, # of connection points: 2
#     Edge 278, Type (0, 0), BuildingBlock: XIVTED_clean_linker_0, # of connection points: 2
#     Edge 279, Type (0, 0), BuildingBlock: XIVTED_clean_linker_0, # of connection points: 2
#     Edge 280, Type (0, 0), BuildingBlock: XIVTED_clean_linker_0, # of connection points: 2
#     Edge 281, Type (0, 0), BuildingBlock: XIVTED_clean_linker_0, # of connection points: 2
#     Edge 282, Type (0, 0), BuildingBlock: XIVTED_clean_linker_0, # of connection points: 2
#     Edge 283, Type (0, 0), BuildingBlock: XIVTED_clean_linker_0, # of connection points: 2
#     Edge 284, Type (0, 0), BuildingBlock: XIVTED_clean_linker_0, # of connection points: 2
#     Edge 285, Type (0, 0), BuildingBlock: XIVTED_clean_linker_0, # of connection points: 2
#     Edge 286, Type (0, 0), BuildingBlock: XIVTED_clean_linker_0, # of connection points: 2
#     Edge 287, Type (0, 0), BuildingBlock: XIVTED_clean_linker_0, # of connection points: 2
#     Edge 288, Type (0, 0), BuildingBlock: XIVTED_clean_linker_0, # of connection points: 2
#     Edge 289, Type (0, 0), BuildingBlock: XIVTED_clean_linker_0, # of connection points: 2
#     Edge 290, Type (0, 0), BuildingBlock: XIVTED_clean_linker_0, # of connection points: 2
#     Edge 291, Type (0, 0), BuildingBlock: XIVTED_clean_linker_0, # of connection points: 2
#     Edge 292, Type (0, 0), BuildingBlock: XIVTED_clean_linker_0, # of connection points: 2
#     Edge 293, Type (0, 0), BuildingBlock: XIVTED_clean_linker_0, # of connection points: 2
#     Edge 294, Type (0, 0), BuildingBlock: XIVTED_clean_linker_0, # of connection points: 2
#     Edge 295, Type (0, 0), BuildingBlock: XIVTED_clean_linker_0, # of connection points: 2
#     Edge 296, Type (0, 0), BuildingBlock: XIVTED_clean_linker_0, # of connection points: 2
#     Edge 297, Type (0, 0), BuildingBlock: XIVTED_clean_linker_0, # of connection points: 2
#     Edge 298, Type (0, 0), BuildingBlock: XIVTED_clean_linker_0, # of connection points: 2
#     Edge 299, Type (0, 0), BuildingBlock: XIVTED_clean_linker_0, # of connection points: 2
#     Edge 300, Type (0, 0), BuildingBlock: XIVTED_clean_linker_0, # of connection points: 2
#     Edge 301, Type (0, 0), BuildingBlock: XIVTED_clean_linker_0, # of connection points: 2
#     Edge 302, Type (0, 0), BuildingBlock: XIVTED_clean_linker_0, # of connection points: 2
#     Edge 303, Type (0, 0), BuildingBlock: XIVTED_clean_linker_0, # of connection points: 2
#     Edge 304, Type (0, 0), BuildingBlock: XIVTED_clean_linker_0, # of connection points: 2
#     Edge 305, Type (0, 0), BuildingBlock: XIVTED_clean_linker_0, # of connection points: 2
#     Edge 306, Type (0, 0), BuildingBlock: XIVTED_clean_linker_0, # of connection points: 2
#     Edge 307, Type (0, 0), BuildingBlock: XIVTED_clean_linker_0, # of connection points: 2
#     Edge 308, Type (0, 0), BuildingBlock: XIVTED_clean_linker_0, # of connection points: 2
#     Edge 309, Type (0, 0), BuildingBlock: XIVTED_clean_linker_0, # of connection points: 2
#     Edge 310, Type (0, 0), BuildingBlock: XIVTED_clean_linker_0, # of connection points: 2
#     Edge 311, Type (0, 0), BuildingBlock: XIVTED_clean_linker_0, # of connection points: 2
#     Edge 312, Type (0, 0), BuildingBlock: XIVTED_clean_linker_0, # of connection points: 2
#     Edge 313, Type (0, 0), BuildingBlock: XIVTED_clean_linker_0, # of connection points: 2
#     Edge 314, Type (0, 0), BuildingBlock: XIVTED_clean_linker_0, # of connection points: 2
#     Edge 315, Type (0, 0), BuildingBlock: XIVTED_clean_linker_0, # of connection points: 2
#     Edge 316, Type (0, 0), BuildingBlock: XIVTED_clean_linker_0, # of connection points: 2
#     Edge 317, Type (0, 0), BuildingBlock: XIVTED_clean_linker_0, # of connection points: 2
#     Edge 318, Type (0, 0), BuildingBlock: XIVTED_clean_linker_0, # of connection points: 2
#     Edge 319, Type (0, 0), BuildingBlock: XIVTED_clean_linker_0, # of connection points: 2
#     Edge 320, Type (0, 0), BuildingBlock: XIVTED_clean_linker_0, # of connection points: 2
#     Edge 321, Type (0, 0), BuildingBlock: XIVTED_clean_linker_0, # of connection points: 2
#     Edge 322, Type (0, 0), BuildingBlock: XIVTED_clean_linker_0, # of connection points: 2
#     Edge 323, Type (0, 0), BuildingBlock: XIVTED_clean_linker_0, # of connection points: 2
#     Edge 324, Type (0, 0), BuildingBlock: XIVTED_clean_linker_0, # of connection points: 2
#     Edge 325, Type (0, 0), BuildingBlock: XIVTED_clean_linker_0, # of connection points: 2
#     Edge 326, Type (0, 0), BuildingBlock: XIVTED_clean_linker_0, # of connection points: 2
#     Edge 327, Type (0, 0), BuildingBlock: XIVTED_clean_linker_0, # of connection points: 2
#     Edge 328, Type (0, 0), BuildingBlock: XIVTED_clean_linker_0, # of connection points: 2
#     Edge 329, Type (0, 0), BuildingBlock: XIVTED_clean_linker_0, # of connection points: 2
#     Edge 330, Type (0, 0), BuildingBlock: XIVTED_clean_linker_0, # of connection points: 2
#     Edge 331, Type (0, 0), BuildingBlock: XIVTED_clean_linker_0, # of connection points: 2
#     Edge 332, Type (0, 0), BuildingBlock: XIVTED_clean_linker_0, # of connection points: 2
#     Edge 333, Type (0, 0), BuildingBlock: XIVTED_clean_linker_0, # of connection points: 2
#     Edge 334, Type (0, 0), BuildingBlock: XIVTED_clean_linker_0, # of connection points: 2
#     Edge 335, Type (0, 0), BuildingBlock: XIVTED_clean_linker_0, # of connection points: 2
#     Edge 336, Type (0, 0), BuildingBlock: XIVTED_clean_linker_0, # of connection points: 2
#     Edge 337, Type (0, 0), BuildingBlock: XIVTED_clean_linker_0, # of connection points: 2
#     Edge 338, Type (0, 0), BuildingBlock: XIVTED_clean_linker_0, # of connection points: 2
#     Edge 339, Type (0, 0), BuildingBlock: XIVTED_clean_linker_0, # of connection points: 2
#     Edge 340, Type (0, 0), BuildingBlock: XIVTED_clean_linker_0, # of connection points: 2
#     Edge 341, Type (0, 0), BuildingBlock: XIVTED_clean_linker_0, # of connection points: 2
#     Edge 342, Type (0, 0), BuildingBlock: XIVTED_clean_linker_0, # of connection points: 2
#     Edge 343, Type (0, 0), BuildingBlock: XIVTED_clean_linker_0, # of connection points: 2
#     Edge 344, Type (0, 0), BuildingBlock: XIVTED_clean_linker_0, # of connection points: 2
#     Edge 345, Type (0, 0), BuildingBlock: XIVTED_clean_linker_0, # of connection points: 2
#     Edge 346, Type (0, 0), BuildingBlock: XIVTED_clean_linker_0, # of connection points: 2
#     Edge 347, Type (0, 0), BuildingBlock: XIVTED_clean_linker_0, # of connection points: 2
#     Edge 348, Type (0, 0), BuildingBlock: XIVTED_clean_linker_0, # of connection points: 2
#     Edge 349, Type (0, 0), BuildingBlock: XIVTED_clean_linker_0, # of connection points: 2
#     Edge 350, Type (0, 0), BuildingBlock: XIVTED_clean_linker_0, # of connection points: 2
#     Edge 351, Type (0, 0), BuildingBlock: XIVTED_clean_linker_0, # of connection points: 2
#     Edge 352, Type (0, 0), BuildingBlock: XIVTED_clean_linker_0, # of connection points: 2
#     Edge 353, Type (0, 0), BuildingBlock: XIVTED_clean_linker_0, # of connection points: 2
#     Edge 354, Type (0, 0), BuildingBlock: XIVTED_clean_linker_0, # of connection points: 2
#     Edge 355, Type (0, 0), BuildingBlock: XIVTED_clean_linker_0, # of connection points: 2
#     Edge 356, Type (0, 0), BuildingBlock: XIVTED_clean_linker_0, # of connection points: 2
#     Edge 357, Type (0, 0), BuildingBlock: XIVTED_clean_linker_0, # of connection points: 2
#     Edge 358, Type (0, 0), BuildingBlock: XIVTED_clean_linker_0, # of connection points: 2
#     Edge 359, Type (0, 0), BuildingBlock: XIVTED_clean_linker_0, # of connection points: 2
#     Edge 360, Type (0, 0), BuildingBlock: XIVTED_clean_linker_0, # of connection points: 2
#     Edge 361, Type (0, 0), BuildingBlock: XIVTED_clean_linker_0, # of connection points: 2
#     Edge 362, Type (0, 0), BuildingBlock: XIVTED_clean_linker_0, # of connection points: 2
#     Edge 363, Type (0, 0), BuildingBlock: XIVTED_clean_linker_0, # of connection points: 2
#     Edge 364, Type (0, 0), BuildingBlock: XIVTED_clean_linker_0, # of connection points: 2
#     Edge 365, Type (0, 0), BuildingBlock: XIVTED_clean_linker_0, # of connection points: 2
#     Edge 366, Type (0, 0), BuildingBlock: XIVTED_clean_linker_0, # of connection points: 2
#     Edge 367, Type (0, 0), BuildingBlock: XIVTED_clean_linker_0, # of connection points: 2
#     Edge 368, Type (0, 0), BuildingBlock: XIVTED_clean_linker_0, # of connection points: 2
#     Edge 369, Type (0, 0), BuildingBlock: XIVTED_clean_linker_0, # of connection points: 2
#     Edge 370, Type (0, 0), BuildingBlock: XIVTED_clean_linker_0, # of connection points: 2
#     Edge 371, Type (0, 0), BuildingBlock: XIVTED_clean_linker_0, # of connection points: 2
#     Edge 372, Type (0, 0), BuildingBlock: XIVTED_clean_linker_0, # of connection points: 2
#     Edge 373, Type (0, 0), BuildingBlock: XIVTED_clean_linker_0, # of connection points: 2
#     Edge 374, Type (0, 0), BuildingBlock: XIVTED_clean_linker_0, # of connection points: 2
#     Edge 375, Type (0, 0), BuildingBlock: XIVTED_clean_linker_0, # of connection points: 2
#     Edge 376, Type (0, 0), BuildingBlock: XIVTED_clean_linker_0, # of connection points: 2
#     Edge 377, Type (0, 0), BuildingBlock: XIVTED_clean_linker_0, # of connection points: 2
#     Edge 378, Type (0, 0), BuildingBlock: XIVTED_clean_linker_0, # of connection points: 2
#     Edge 379, Type (0, 0), BuildingBlock: XIVTED_clean_linker_0, # of connection points: 2
#     Edge 380, Type (0, 0), BuildingBlock: XIVTED_clean_linker_0, # of connection points: 2
#     Edge 381, Type (0, 0), BuildingBlock: XIVTED_clean_linker_0, # of connection points: 2
#     Edge 382, Type (0, 0), BuildingBlock: XIVTED_clean_linker_0, # of connection points: 2
#     Edge 383, Type (0, 0), BuildingBlock: XIVTED_clean_linker_0, # of connection points: 2
#     Edge 384, Type (0, 0), BuildingBlock: XIVTED_clean_linker_0, # of connection points: 2
#     Edge 385, Type (0, 0), BuildingBlock: XIVTED_clean_linker_0, # of connection points: 2
#     Edge 386, Type (0, 0), BuildingBlock: XIVTED_clean_linker_0, # of connection points: 2
#     Edge 387, Type (0, 0), BuildingBlock: XIVTED_clean_linker_0, # of connection points: 2
#     Edge 388, Type (0, 0), BuildingBlock: XIVTED_clean_linker_0, # of connection points: 2
#     Edge 389, Type (0, 0), BuildingBlock: XIVTED_clean_linker_0, # of connection points: 2
#     Edge 390, Type (0, 0), BuildingBlock: XIVTED_clean_linker_0, # of connection points: 2
#     Edge 391, Type (0, 0), BuildingBlock: XIVTED_clean_linker_0, # of connection points: 2
#     Edge 392, Type (0, 0), BuildingBlock: XIVTED_clean_linker_0, # of connection points: 2
#     Edge 393, Type (0, 0), BuildingBlock: XIVTED_clean_linker_0, # of connection points: 2
#     Edge 394, Type (0, 0), BuildingBlock: XIVTED_clean_linker_0, # of connection points: 2
#     Edge 395, Type (0, 0), BuildingBlock: XIVTED_clean_linker_0, # of connection points: 2
#     Edge 396, Type (0, 0), BuildingBlock: XIVTED_clean_linker_0, # of connection points: 2
#     Edge 397, Type (0, 0), BuildingBlock: XIVTED_clean_linker_0, # of connection points: 2
#     Edge 398, Type (0, 0), BuildingBlock: XIVTED_clean_linker_0, # of connection points: 2
#     Edge 399, Type (0, 0), BuildingBlock: XIVTED_clean_linker_0, # of connection points: 2
#     Edge 400, Type (0, 0), BuildingBlock: XIVTED_clean_linker_0, # of connection points: 2
#     Edge 401, Type (0, 0), BuildingBlock: XIVTED_clean_linker_0, # of connection points: 2
#     Edge 402, Type (0, 0), BuildingBlock: XIVTED_clean_linker_0, # of connection points: 2
#     Edge 403, Type (0, 0), BuildingBlock: XIVTED_clean_linker_0, # of connection points: 2
#     Edge 404, Type (0, 0), BuildingBlock: XIVTED_clean_linker_0, # of connection points: 2
#     Edge 405, Type (0, 0), BuildingBlock: XIVTED_clean_linker_0, # of connection points: 2
#     Edge 406, Type (0, 0), BuildingBlock: XIVTED_clean_linker_0, # of connection points: 2
#     Edge 407, Type (0, 0), BuildingBlock: XIVTED_clean_linker_0, # of connection points: 2
#     Edge 408, Type (0, 0), BuildingBlock: XIVTED_clean_linker_0, # of connection points: 2
#     Edge 409, Type (0, 0), BuildingBlock: XIVTED_clean_linker_0, # of connection points: 2
#     Edge 410, Type (0, 0), BuildingBlock: XIVTED_clean_linker_0, # of connection points: 2
#     Edge 411, Type (0, 0), BuildingBlock: XIVTED_clean_linker_0, # of connection points: 2
#     Edge 412, Type (0, 0), BuildingBlock: XIVTED_clean_linker_0, # of connection points: 2
#     Edge 413, Type (0, 0), BuildingBlock: XIVTED_clean_linker_0, # of connection points: 2
#     Edge 414, Type (0, 0), BuildingBlock: XIVTED_clean_linker_0, # of connection points: 2
#     Edge 415, Type (0, 0), BuildingBlock: XIVTED_clean_linker_0, # of connection points: 2
#     Edge 416, Type (0, 0), BuildingBlock: XIVTED_clean_linker_0, # of connection points: 2
#     Edge 417, Type (0, 0), BuildingBlock: XIVTED_clean_linker_0, # of connection points: 2
#     Edge 418, Type (0, 0), BuildingBlock: XIVTED_clean_linker_0, # of connection points: 2
#     Edge 419, Type (0, 0), BuildingBlock: XIVTED_clean_linker_0, # of connection points: 2
#     Edge 420, Type (0, 0), BuildingBlock: XIVTED_clean_linker_0, # of connection points: 2
#     Edge 421, Type (0, 0), BuildingBlock: XIVTED_clean_linker_0, # of connection points: 2
#     Edge 422, Type (0, 0), BuildingBlock: XIVTED_clean_linker_0, # of connection points: 2
#     Edge 423, Type (0, 0), BuildingBlock: XIVTED_clean_linker_0, # of connection points: 2
#     Edge 424, Type (0, 0), BuildingBlock: XIVTED_clean_linker_0, # of connection points: 2
#     Edge 425, Type (0, 0), BuildingBlock: XIVTED_clean_linker_0, # of connection points: 2
#     Edge 426, Type (0, 0), BuildingBlock: XIVTED_clean_linker_0, # of connection points: 2
#     Edge 427, Type (0, 0), BuildingBlock: XIVTED_clean_linker_0, # of connection points: 2
#     Edge 428, Type (0, 0), BuildingBlock: XIVTED_clean_linker_0, # of connection points: 2
#     Edge 429, Type (0, 0), BuildingBlock: XIVTED_clean_linker_0, # of connection points: 2
#     Edge 430, Type (0, 0), BuildingBlock: XIVTED_clean_linker_0, # of connection points: 2
#     Edge 431, Type (0, 0), BuildingBlock: XIVTED_clean_linker_0, # of connection points: 2
#     Edge 432, Type (0, 0), BuildingBlock: XIVTED_clean_linker_0, # of connection points: 2
#     Edge 433, Type (0, 0), BuildingBlock: XIVTED_clean_linker_0, # of connection points: 2
#     Edge 434, Type (0, 0), BuildingBlock: XIVTED_clean_linker_0, # of connection points: 2
#     Edge 435, Type (0, 0), BuildingBlock: XIVTED_clean_linker_0, # of connection points: 2
#     Edge 436, Type (0, 0), BuildingBlock: XIVTED_clean_linker_0, # of connection points: 2
#     Edge 437, Type (0, 0), BuildingBlock: XIVTED_clean_linker_0, # of connection points: 2
#     Edge 438, Type (0, 0), BuildingBlock: XIVTED_clean_linker_0, # of connection points: 2
#     Edge 439, Type (0, 0), BuildingBlock: XIVTED_clean_linker_0, # of connection points: 2
#     Edge 440, Type (0, 0), BuildingBlock: XIVTED_clean_linker_0, # of connection points: 2
#     Edge 441, Type (0, 0), BuildingBlock: XIVTED_clean_linker_0, # of connection points: 2
#     Edge 442, Type (0, 0), BuildingBlock: XIVTED_clean_linker_0, # of connection points: 2
#     Edge 443, Type (0, 0), BuildingBlock: XIVTED_clean_linker_0, # of connection points: 2
#     Edge 444, Type (0, 0), BuildingBlock: XIVTED_clean_linker_0, # of connection points: 2
#     Edge 445, Type (0, 0), BuildingBlock: XIVTED_clean_linker_0, # of connection points: 2
#     Edge 446, Type (0, 0), BuildingBlock: XIVTED_clean_linker_0, # of connection points: 2
#     Edge 447, Type (0, 0), BuildingBlock: XIVTED_clean_linker_0, # of connection points: 2
#     Edge 448, Type (0, 0), BuildingBlock: XIVTED_clean_linker_0, # of connection points: 2
#     Edge 449, Type (0, 0), BuildingBlock: XIVTED_clean_linker_0, # of connection points: 2
#     Edge 450, Type (0, 0), BuildingBlock: XIVTED_clean_linker_0, # of connection points: 2
#     Edge 451, Type (0, 0), BuildingBlock: XIVTED_clean_linker_0, # of connection points: 2
#     Edge 452, Type (0, 0), BuildingBlock: XIVTED_clean_linker_0, # of connection points: 2
#     Edge 453, Type (0, 0), BuildingBlock: XIVTED_clean_linker_0, # of connection points: 2
#     Edge 454, Type (0, 0), BuildingBlock: XIVTED_clean_linker_0, # of connection points: 2
#     Edge 455, Type (0, 0), BuildingBlock: XIVTED_clean_linker_0, # of connection points: 2
#     Edge 456, Type (0, 0), BuildingBlock: XIVTED_clean_linker_0, # of connection points: 2
#     Edge 457, Type (0, 0), BuildingBlock: XIVTED_clean_linker_0, # of connection points: 2
#     Edge 458, Type (0, 0), BuildingBlock: XIVTED_clean_linker_0, # of connection points: 2
#     Edge 459, Type (0, 0), BuildingBlock: XIVTED_clean_linker_0, # of connection points: 2
#     Edge 460, Type (0, 0), BuildingBlock: XIVTED_clean_linker_0, # of connection points: 2
#     Edge 461, Type (0, 0), BuildingBlock: XIVTED_clean_linker_0, # of connection points: 2
#     Edge 462, Type (0, 0), BuildingBlock: XIVTED_clean_linker_0, # of connection points: 2
#     Edge 463, Type (0, 0), BuildingBlock: XIVTED_clean_linker_0, # of connection points: 2
#     Edge 464, Type (0, 0), BuildingBlock: XIVTED_clean_linker_0, # of connection points: 2
#     Edge 465, Type (0, 0), BuildingBlock: XIVTED_clean_linker_0, # of connection points: 2
#     Edge 466, Type (0, 0), BuildingBlock: XIVTED_clean_linker_0, # of connection points: 2
#     Edge 467, Type (0, 0), BuildingBlock: XIVTED_clean_linker_0, # of connection points: 2
#     Edge 468, Type (0, 0), BuildingBlock: XIVTED_clean_linker_0, # of connection points: 2
#     Edge 469, Type (0, 0), BuildingBlock: XIVTED_clean_linker_0, # of connection points: 2
#     Edge 470, Type (0, 0), BuildingBlock: XIVTED_clean_linker_0, # of connection points: 2
#     Edge 471, Type (0, 0), BuildingBlock: XIVTED_clean_linker_0, # of connection points: 2
#     Edge 472, Type (0, 0), BuildingBlock: XIVTED_clean_linker_0, # of connection points: 2
#     Edge 473, Type (0, 0), BuildingBlock: XIVTED_clean_linker_0, # of connection points: 2
#     Edge 474, Type (0, 0), BuildingBlock: XIVTED_clean_linker_0, # of connection points: 2
#     Edge 475, Type (0, 0), BuildingBlock: XIVTED_clean_linker_0, # of connection points: 2
#     Edge 476, Type (0, 0), BuildingBlock: XIVTED_clean_linker_0, # of connection points: 2
#     Edge 477, Type (0, 0), BuildingBlock: XIVTED_clean_linker_0, # of connection points: 2
#     Edge 478, Type (0, 0), BuildingBlock: XIVTED_clean_linker_0, # of connection points: 2
#     Edge 479, Type (0, 0), BuildingBlock: XIVTED_clean_linker_0, # of connection points: 2
#     Edge 480, Type (0, 0), BuildingBlock: XIVTED_clean_linker_0, # of connection points: 2
#     Edge 481, Type (0, 0), BuildingBlock: XIVTED_clean_linker_0, # of connection points: 2
#     Edge 482, Type (0, 0), BuildingBlock: XIVTED_clean_linker_0, # of connection points: 2
#     Edge 483, Type (0, 0), BuildingBlock: XIVTED_clean_linker_0, # of connection points: 2
#     Edge 484, Type (0, 0), BuildingBlock: XIVTED_clean_linker_0, # of connection points: 2
#     Edge 485, Type (0, 0), BuildingBlock: XIVTED_clean_linker_0, # of connection points: 2
#     Edge 486, Type (0, 0), BuildingBlock: XIVTED_clean_linker_0, # of connection points: 2
#     Edge 487, Type (0, 0), BuildingBlock: XIVTED_clean_linker_0, # of connection points: 2
#     Edge 488, Type (0, 0), BuildingBlock: XIVTED_clean_linker_0, # of connection points: 2
#     Edge 489, Type (0, 0), BuildingBlock: XIVTED_clean_linker_0, # of connection points: 2
#     Edge 490, Type (0, 0), BuildingBlock: XIVTED_clean_linker_0, # of connection points: 2
#     Edge 491, Type (0, 0), BuildingBlock: XIVTED_clean_linker_0, # of connection points: 2
#     Edge 492, Type (0, 0), BuildingBlock: XIVTED_clean_linker_0, # of connection points: 2
#     Edge 493, Type (0, 0), BuildingBlock: XIVTED_clean_linker_0, # of connection points: 2
#     Edge 494, Type (0, 0), BuildingBlock: XIVTED_clean_linker_0, # of connection points: 2
#     Edge 495, Type (0, 0), BuildingBlock: XIVTED_clean_linker_0, # of connection points: 2
#     Edge 496, Type (0, 0), BuildingBlock: XIVTED_clean_linker_0, # of connection points: 2
#     Edge 497, Type (0, 0), BuildingBlock: XIVTED_clean_linker_0, # of connection points: 2
#     Edge 498, Type (0, 0), BuildingBlock: XIVTED_clean_linker_0, # of connection points: 2
#     Edge 499, Type (0, 0), BuildingBlock: XIVTED_clean_linker_0, # of connection points: 2
#     Edge 500, Type (0, 0), BuildingBlock: XIVTED_clean_linker_0, # of connection points: 2
#     Edge 501, Type (0, 0), BuildingBlock: XIVTED_clean_linker_0, # of connection points: 2
#     Edge 502, Type (0, 0), BuildingBlock: XIVTED_clean_linker_0, # of connection points: 2
#     Edge 503, Type (0, 0), BuildingBlock: XIVTED_clean_linker_0, # of connection points: 2
#     Edge 504, Type (0, 0), BuildingBlock: XIVTED_clean_linker_0, # of connection points: 2
#     Edge 505, Type (0, 0), BuildingBlock: XIVTED_clean_linker_0, # of connection points: 2
#     Edge 506, Type (0, 0), BuildingBlock: XIVTED_clean_linker_0, # of connection points: 2
#     Edge 507, Type (0, 0), BuildingBlock: XIVTED_clean_linker_0, # of connection points: 2
#     Edge 508, Type (0, 0), BuildingBlock: XIVTED_clean_linker_0, # of connection points: 2
#     Edge 509, Type (0, 0), BuildingBlock: XIVTED_clean_linker_0, # of connection points: 2
#     Edge 510, Type (0, 0), BuildingBlock: XIVTED_clean_linker_0, # of connection points: 2
#     Edge 511, Type (0, 0), BuildingBlock: XIVTED_clean_linker_0, # of connection points: 2
#     Edge 512, Type (0, 0), BuildingBlock: XIVTED_clean_linker_0, # of connection points: 2
#     Edge 513, Type (0, 0), BuildingBlock: XIVTED_clean_linker_0, # of connection points: 2
#     Edge 514, Type (0, 0), BuildingBlock: XIVTED_clean_linker_0, # of connection points: 2
#     Edge 515, Type (0, 0), BuildingBlock: XIVTED_clean_linker_0, # of connection points: 2
#     Edge 516, Type (0, 0), BuildingBlock: XIVTED_clean_linker_0, # of connection points: 2
#     Edge 517, Type (0, 0), BuildingBlock: XIVTED_clean_linker_0, # of connection points: 2
#     Edge 518, Type (0, 0), BuildingBlock: XIVTED_clean_linker_0, # of connection points: 2
#     Edge 519, Type (0, 0), BuildingBlock: XIVTED_clean_linker_0, # of connection points: 2
#     Edge 520, Type (0, 0), BuildingBlock: XIVTED_clean_linker_0, # of connection points: 2
#     Edge 521, Type (0, 0), BuildingBlock: XIVTED_clean_linker_0, # of connection points: 2
#     Edge 522, Type (0, 0), BuildingBlock: XIVTED_clean_linker_0, # of connection points: 2
#     Edge 523, Type (0, 0), BuildingBlock: XIVTED_clean_linker_0, # of connection points: 2
#     Edge 524, Type (0, 0), BuildingBlock: XIVTED_clean_linker_0, # of connection points: 2
#     Edge 525, Type (0, 0), BuildingBlock: XIVTED_clean_linker_0, # of connection points: 2
#     Edge 526, Type (0, 0), BuildingBlock: XIVTED_clean_linker_0, # of connection points: 2
#     Edge 527, Type (0, 0), BuildingBlock: XIVTED_clean_linker_0, # of connection points: 2
#     Edge 528, Type (0, 0), BuildingBlock: XIVTED_clean_linker_0, # of connection points: 2
#     Edge 529, Type (0, 0), BuildingBlock: XIVTED_clean_linker_0, # of connection points: 2
#     Edge 530, Type (0, 0), BuildingBlock: XIVTED_clean_linker_0, # of connection points: 2
#     Edge 531, Type (0, 0), BuildingBlock: XIVTED_clean_linker_0, # of connection points: 2
#     Edge 532, Type (0, 0), BuildingBlock: XIVTED_clean_linker_0, # of connection points: 2
#     Edge 533, Type (0, 0), BuildingBlock: XIVTED_clean_linker_0, # of connection points: 2
#     Edge 534, Type (0, 0), BuildingBlock: XIVTED_clean_linker_0, # of connection points: 2
#     Edge 535, Type (0, 0), BuildingBlock: XIVTED_clean_linker_0, # of connection points: 2
#     Edge 536, Type (0, 0), BuildingBlock: XIVTED_clean_linker_0, # of connection points: 2
#     Edge 537, Type (0, 0), BuildingBlock: XIVTED_clean_linker_0, # of connection points: 2
#     Edge 538, Type (0, 0), BuildingBlock: XIVTED_clean_linker_0, # of connection points: 2
#     Edge 539, Type (0, 0), BuildingBlock: XIVTED_clean_linker_0, # of connection points: 2
#     Edge 540, Type (0, 0), BuildingBlock: XIVTED_clean_linker_0, # of connection points: 2
#     Edge 541, Type (0, 0), BuildingBlock: XIVTED_clean_linker_0, # of connection points: 2
#     Edge 542, Type (0, 0), BuildingBlock: XIVTED_clean_linker_0, # of connection points: 2
#     Edge 543, Type (0, 0), BuildingBlock: XIVTED_clean_linker_0, # of connection points: 2
#     Edge 544, Type (0, 0), BuildingBlock: XIVTED_clean_linker_0, # of connection points: 2
#     Edge 545, Type (0, 0), BuildingBlock: XIVTED_clean_linker_0, # of connection points: 2
#     Edge 546, Type (0, 0), BuildingBlock: XIVTED_clean_linker_0, # of connection points: 2
#     Edge 547, Type (0, 0), BuildingBlock: XIVTED_clean_linker_0, # of connection points: 2
#     Edge 548, Type (0, 0), BuildingBlock: XIVTED_clean_linker_0, # of connection points: 2
#     Edge 549, Type (0, 0), BuildingBlock: XIVTED_clean_linker_0, # of connection points: 2
#     Edge 550, Type (0, 0), BuildingBlock: XIVTED_clean_linker_0, # of connection points: 2
#     Edge 551, Type (0, 0), BuildingBlock: XIVTED_clean_linker_0, # of connection points: 2
#     Edge 552, Type (0, 0), BuildingBlock: XIVTED_clean_linker_0, # of connection points: 2
#     Edge 553, Type (0, 0), BuildingBlock: XIVTED_clean_linker_0, # of connection points: 2
#     Edge 554, Type (0, 0), BuildingBlock: XIVTED_clean_linker_0, # of connection points: 2
#     Edge 555, Type (0, 0), BuildingBlock: XIVTED_clean_linker_0, # of connection points: 2
#     Edge 556, Type (0, 0), BuildingBlock: XIVTED_clean_linker_0, # of connection points: 2
#     Edge 557, Type (0, 0), BuildingBlock: XIVTED_clean_linker_0, # of connection points: 2
#     Edge 558, Type (0, 0), BuildingBlock: XIVTED_clean_linker_0, # of connection points: 2
#     Edge 559, Type (0, 0), BuildingBlock: XIVTED_clean_linker_0, # of connection points: 2
#     Edge 560, Type (0, 0), BuildingBlock: XIVTED_clean_linker_0, # of connection points: 2
#     Edge 561, Type (0, 0), BuildingBlock: XIVTED_clean_linker_0, # of connection points: 2
#     Edge 562, Type (0, 0), BuildingBlock: XIVTED_clean_linker_0, # of connection points: 2
#     Edge 563, Type (0, 0), BuildingBlock: XIVTED_clean_linker_0, # of connection points: 2
#     Edge 564, Type (0, 0), BuildingBlock: XIVTED_clean_linker_0, # of connection points: 2
#     Edge 565, Type (0, 0), BuildingBlock: XIVTED_clean_linker_0, # of connection points: 2
#     Edge 566, Type (0, 0), BuildingBlock: XIVTED_clean_linker_0, # of connection points: 2
#     Edge 567, Type (0, 0), BuildingBlock: XIVTED_clean_linker_0, # of connection points: 2
#     Edge 568, Type (0, 0), BuildingBlock: XIVTED_clean_linker_0, # of connection points: 2
#     Edge 569, Type (0, 0), BuildingBlock: XIVTED_clean_linker_0, # of connection points: 2
#     Edge 570, Type (0, 0), BuildingBlock: XIVTED_clean_linker_0, # of connection points: 2
#     Edge 571, Type (0, 0), BuildingBlock: XIVTED_clean_linker_0, # of connection points: 2
#     Edge 572, Type (0, 0), BuildingBlock: XIVTED_clean_linker_0, # of connection points: 2
#     Edge 573, Type (0, 0), BuildingBlock: XIVTED_clean_linker_0, # of connection points: 2
#     Edge 574, Type (0, 0), BuildingBlock: XIVTED_clean_linker_0, # of connection points: 2
#     Edge 575, Type (0, 0), BuildingBlock: XIVTED_clean_linker_0, # of connection points: 2
# Relax obj value: 0.048
# Max RMSD: 0.084
# Mean RMSD: 0.084
data_MOF--net-fau--node1-QUQFOY_clean_sbu_1--edge1-XIVTED_clean_linker_0
_symmetry_space_group_name_H-M    P1
_symmetry_Int_Tables_number       1
_symmetry_cell_setting            triclinic
loop_
_symmetry_equiv_pos_as_xyz
'x, y, z'
_cell_length_a     125.52263
_cell_length_b     125.52701
_cell_length_c     125.5263
_cell_angle_alpha  89.997759
_cell_angle_beta   90.002646
_cell_angle_gamma 89.999425
loop_
_atom_site_label
_atom_site_type_symbol
_atom_site_fract_x
_atom_site_fract_y
_atom_site_fract_z
_atom_type_partial_charge
O0 O 0.02584 0.11244 0.44072 0.0
Cd1 Cd 0.03481 0.11845 0.45314 0.0
Cd2 Cd 0.04354 0.12901 0.43588 0.0
O3 O 0.0306 0.12306 0.42757 0.0
O4 O 0.02777 0.1116 0.46561 0.0
O5 O 0.02801 0.12901 0.46338 0.0
C6 C 0.02498 0.12089 0.46891 0.0
C7 C 0.0491 0.1467 0.43453 0.0
C8 C 0.02484 0.11552 0.43113 0.0
C9 C 0.05729 0.11305 0.44732 0.0
O10 O 0.05583 0.1185 0.43891 0.0
O11 O 0.05019 0.11278 0.45453 0.0
O12 O 0.05014 0.14012 0.42671 0.0
O13 O 0.0443 0.14339 0.44301 0.0
O14 O 0.88933 0.27541 0.69326 0.0
Cd15 Cd 0.8837 0.28481 0.70551 0.0
Cd16 Cd 0.87383 0.29409 0.68803 0.0
O17 O 0.87962 0.28104 0.67974 0.0
O18 O 0.89004 0.27756 0.71811 0.0
O19 O 0.87268 0.27868 0.7157 0.0
C20 C 0.88059 0.27531 0.72135 0.0
C21 C 0.85623 0.29999 0.68652 0.0
C22 C 0.8866 0.27475 0.68353 0.0
C23 C 0.89026 0.30706 0.69978 0.0
O24 O 0.88463 0.30602 0.69142 0.0
O25 O 0.89031 0.29982 0.70685 0.0
O26 O 0.86295 0.30105 0.67881 0.0
O27 O 0.85936 0.29503 0.69499 0.0
O28 O 0.72641 0.13836 0.94191 0.0
Cd29 Cd 0.71732 0.13241 0.95427 0.0
Cd30 Cd 0.70831 0.12233 0.93669 0.0
O31 O 0.72133 0.12825 0.92846 0.0
O32 O 0.72436 0.13935 0.96669 0.0
O33 O 0.72413 0.12193 0.9646 0.0
C34 C 0.72717 0.1301 0.97005 0.0
C35 C 0.70265 0.10466 0.93537 0.0
C36 C 0.72731 0.13551 0.93223 0.0
C37 C 0.69485 0.13823 0.94853 0.0
O38 O 0.69619 0.13296 0.93999 0.0
O39 O 0.70199 0.13823 0.95571 0.0
O40 O 0.70156 0.11125 0.92757 0.0
O41 O 0.70754 0.10795 0.94382 0.0
O42 O 0.8638 0.97629 0.19198 0.0
Cd43 Cd 0.86985 0.9669 0.20406 0.0
Cd44 Cd 0.87999 0.95843 0.18652 0.0
O45 O 0.87398 0.97153 0.17848 0.0
O46 O 0.86336 0.9737 0.21684 0.0
O47 O 0.88072 0.97327 0.21425 0.0
C48 C 0.87275 0.97627 0.22002 0.0
C49 C 0.89773 0.95298 0.1854 0.0
C50 C 0.86666 0.97738 0.18233 0.0
C51 C 0.86407 0.94459 0.1978 0.0
O52 O 0.86946 0.94614 0.18938 0.0
O53 O 0.86394 0.95157 0.20514 0.0
O54 O 0.8913 0.952 0.17745 0.0
O55 O 0.89425 0.95768 0.19387 0.0
O56 O 0.02641 0.13892 0.81065 0.0
Cd57 Cd 0.03585 0.13288 0.7986 0.0
Cd58 Cd 0.04413 0.12259 0.81616 0.0
O59 O 0.03099 0.1286 0.8241 0.0
O60 O 0.02924 0.13954 0.7858 0.0
O61 O 0.02944 0.12216 0.78827 0.0
C62 C 0.02659 0.1302 0.78253 0.0
C63 C 0.04955 0.10483 0.81724 0.0
C64 C 0.02522 0.13599 0.82027 0.0
C65 C 0.05814 0.1385 0.80508 0.0
O66 O 0.05648 0.1331 0.81348 0.0
O67 O 0.05124 0.13867 0.79767 0.0
O68 O 0.05045 0.11123 0.82523 0.0
O69 O 0.04494 0.10837 0.80874 0.0
O70 O 0.86403 0.27596 0.06092 0.0
Cd71 Cd 0.87003 0.28512 0.04865 0.0
Cd72 Cd 0.88022 0.29383 0.06613 0.0
O73 O 0.87432 0.28078 0.07432 0.0
O74 O 0.86329 0.2781 0.03611 0.0
O75 O 0.88069 0.27844 0.03843 0.0
C76 C 0.87261 0.27535 0.03287 0.0
C77 C 0.89793 0.29941 0.0672 0.0
C78 C 0.86696 0.27492 0.07057 0.0
C79 C 0.86429 0.30752 0.05461 0.0
O80 O 0.86963 0.30604 0.06308 0.0
O81 O 0.8642 0.30047 0.04733 0.0
O82 O 0.89148 0.30044 0.07513 0.0
O83 O 0.89448 0.29459 0.05878 0.0
O84 O 0.72704 0.11273 0.31016 0.0
Cd85 Cd 0.71777 0.1188 0.29799 0.0
Cd86 Cd 0.70931 0.12925 0.31537 0.0
O87 O 0.72239 0.12326 0.32342 0.0
O88 O 0.72454 0.11224 0.28522 0.0
O89 O 0.72426 0.12961 0.28781 0.0
C90 C 0.72718 0.12162 0.28204 0.0
C91 C 0.70377 0.14694 0.31692 0.0
C92 C 0.72814 0.11578 0.31975 0.0
C93 C 0.6954 0.1133 0.30418 0.0
O94 O 0.69697 0.11876 0.31256 0.0
O95 O 0.70239 0.11305 0.29686 0.0
O96 O 0.70292 0.14033 0.32473 0.0
O97 O 0.70838 0.14366 0.30831 0.0
O98 O 0.89044 0.97714 0.5617 0.0
Cd99 Cd 0.88437 0.96829 0.54922 0.0
Cd100 Cd 0.87397 0.95932 0.5665 0.0
O101 O 0.87995 0.97219 0.57489 0.0
O102 O 0.89121 0.97543 0.5368 0.0
O103 O 0.8738 0.97517 0.53904 0.0
C104 C 0.88192 0.97823 0.53352 0.0
C105 C 0.85631 0.95369 0.56802 0.0
C106 C 0.88743 0.97802 0.57133 0.0
C107 C 0.88987 0.94575 0.55477 0.0
O108 O 0.8845 0.9471 0.56325 0.0
O109 O 0.89004 0.95293 0.54764 0.0
O110 O 0.86299 0.95259 0.57574 0.0
O111 O 0.85951 0.95857 0.55953 0.0
O112 O 0.43922 0.05611 0.11914 0.0
Cd113 Cd 0.43631 0.04383 0.12969 0.0
Cd114 Cd 0.45363 0.03512 0.11921 0.0
O115 O 0.45483 0.05047 0.11339 0.0
O116 O 0.42726 0.05036 0.14097 0.0
O117 O 0.44364 0.04458 0.14397 0.0
C118 C 0.43518 0.04933 0.14743 0.0
C119 C 0.46957 0.02561 0.12177 0.0
C120 C 0.4476 0.05756 0.11364 0.0
C121 C 0.4317 0.02496 0.11633 0.0
O122 O 0.44132 0.02593 0.11329 0.0
O123 O 0.42807 0.03082 0.12375 0.0
O124 O 0.46623 0.02824 0.11245 0.0
O125 O 0.46395 0.02858 0.12985 0.0
O126 O 0.97669 0.69041 0.36353 0.0
Cd127 Cd 0.9674 0.70269 0.36935 0.0
Cd128 Cd 0.95859 0.68534 0.37968 0.0
O129 O 0.97165 0.6771 0.37385 0.0
O130 O 0.97439 0.71533 0.36275 0.0
O131 O 0.97374 0.713 0.38014 0.0
C132 C 0.97684 0.71865 0.37212 0.0
C133 C 0.95296 0.68427 0.39738 0.0
C134 C 0.97762 0.68077 0.36652 0.0
C135 C 0.94503 0.69666 0.36351 0.0
O136 O 0.94641 0.68829 0.36903 0.0
O137 O 0.95213 0.70388 0.36332 0.0
O138 O 0.95195 0.67634 0.39092 0.0
O139 O 0.95776 0.6927 0.39393 0.0
O140 O 0.31362 0.19637 0.61968 0.0
Cd141 Cd 0.31655 0.20862 0.63025 0.0
Cd142 Cd 0.29923 0.21735 0.61983 0.0
O143 O 0.29802 0.20203 0.61393 0.0
O144 O 0.32557 0.20202 0.64151 0.0
O145 O 0.30921 0.20783 0.64452 0.0
C146 C 0.31764 0.20303 0.64796 0.0
C147 C 0.28329 0.22682 0.62257 0.0
C148 C 0.30525 0.19494 0.61417 0.0
C149 C 0.32115 0.22753 0.61694 0.0
O150 O 0.31152 0.22658 0.61393 0.0
O151 O 0.32479 0.22164 0.62433 0.0
O152 O 0.28659 0.2243 0.61321 0.0
O153 O 0.28896 0.22377 0.63059 0.0
O154 O 0.77647 0.56058 0.86367 0.0
Cd155 Cd 0.7861 0.54854 0.86936 0.0
Cd156 Cd 0.79488 0.56617 0.87931 0.0
O157 O 0.78168 0.57419 0.87347 0.0
O158 O 0.77922 0.53583 0.86283 0.0
O159 O 0.78004 0.53813 0.88021 0.0
C160 C 0.7769 0.53248 0.87222 0.0
C161 C 0.80057 0.56749 0.89697 0.0
C162 C 0.77554 0.57028 0.86643 0.0
C163 C 0.80827 0.5548 0.86299 0.0
O164 O 0.80697 0.56315 0.86857 0.0
O165 O 0.8012 0.54755 0.86291 0.0
O166 O 0.80149 0.57536 0.89042 0.0
O167 O 0.79585 0.55897 0.89364 0.0
O168 O 0.43769 0.19562 0.13319 0.0
Cd169 Cd 0.43473 0.20781 0.12255 0.0
Cd170 Cd 0.45219 0.21657 0.13262 0.0
O171 O 0.45343 0.20127 0.13853 0.0
O172 O 0.42572 0.20127 0.11126 0.0
O173 O 0.44213 0.207 0.10832 0.0
C174 C 0.43367 0.20227 0.10483 0.0
C175 C 0.46816 0.226 0.12993 0.0
C176 C 0.44618 0.19421 0.13851 0.0
C177 C 0.43035 0.22686 0.1357 0.0
O178 O 0.44 0.22588 0.13861 0.0
O179 O 0.42659 0.22092 0.12841 0.0
O180 O 0.46485 0.22343 0.13928 0.0
O181 O 0.46249 0.22301 0.12188 0.0
O182 O 0.77637 0.69078 0.38865 0.0
Cd183 Cd 0.78529 0.70327 0.3827 0.0
Cd184 Cd 0.79415 0.68597 0.37221 0.0
O185 O 0.78119 0.67761 0.37808 0.0
O186 O 0.77822 0.71561 0.38976 0.0
O187 O 0.77836 0.71363 0.37232 0.0
C188 C 0.77535 0.71902 0.38054 0.0
C189 C 0.7998 0.68488 0.35451 0.0
C190 C 0.77541 0.68117 0.38559 0.0
C191 C 0.80776 0.69746 0.38823 0.0
O192 O 0.80632 0.68902 0.38284 0.0
O193 O 0.80067 0.70469 0.38838 0.0
O194 O 0.80086 0.67698 0.361 0.0
O195 O 0.79493 0.69329 0.35792 0.0
O196 O 0.31347 0.0563 0.63352 0.0
Cd197 Cd 0.31648 0.04406 0.62297 0.0
Cd198 Cd 0.29891 0.03539 0.63318 0.0
O199 O 0.29774 0.05074 0.63902 0.0
O200 O 0.3256 0.05062 0.61177 0.0
O201 O 0.30923 0.04486 0.60866 0.0
C202 C 0.31771 0.04963 0.60527 0.0
C203 C 0.28295 0.02592 0.63058 0.0
C204 C 0.30502 0.05778 0.6389 0.0
C205 C 0.32078 0.02509 0.63628 0.0
O206 O 0.31112 0.02611 0.63915 0.0
O207 O 0.32457 0.03098 0.62896 0.0
O208 O 0.28625 0.02856 0.6399 0.0
O209 O 0.2886 0.02886 0.62251 0.0
O210 O 0.97778 0.56116 0.88989 0.0
Cd211 Cd 0.96829 0.54915 0.8838 0.0
Cd212 Cd 0.95965 0.56673 0.87392 0.0
O213 O 0.97275 0.57473 0.87993 0.0
O214 O 0.97509 0.53625 0.89004 0.0
O215 O 0.97445 0.53907 0.87272 0.0
C216 C 0.97748 0.53316 0.88057 0.0
C217 C 0.95422 0.56821 0.85621 0.0
C218 C 0.97876 0.57085 0.88711 0.0
C219 C 0.94595 0.55523 0.88977 0.0
O220 O 0.94738 0.56371 0.88444 0.0
O221 O 0.95301 0.54797 0.88981 0.0
O222 O 0.95324 0.57603 0.86281 0.0
O223 O 0.95885 0.55963 0.85954 0.0
O224 O 0.11369 0.44047 0.02597 0.0
Cd225 Cd 0.11967 0.45277 0.03514 0.0
Cd226 Cd 0.12974 0.43538 0.04408 0.0
O227 O 0.12387 0.42709 0.03108 0.0
O228 O 0.11303 0.46535 0.02811 0.0
O229 O 0.13042 0.46299 0.02861 0.0
C230 C 0.12239 0.46863 0.02554 0.0
C231 C 0.14746 0.43437 0.04966 0.0
C232 C 0.11658 0.4308 0.0251 0.0
C233 C 0.11376 0.44699 0.05756 0.0
O234 O 0.1191 0.4385 0.05623 0.0
O235 O 0.11373 0.45417 0.05042 0.0
O236 O 0.14101 0.42645 0.05077 0.0
O237 O 0.14399 0.44276 0.04479 0.0
O238 O 0.61633 0.31526 0.22856 0.0
Cd239 Cd 0.61936 0.30194 0.2193 0.0
Cd240 Cd 0.63035 0.31797 0.20758 0.0
O241 O 0.62498 0.32776 0.21965 0.0
O242 O 0.61207 0.29062 0.2277 0.0
O243 O 0.62942 0.29058 0.225 0.0
C244 C 0.62117 0.28618 0.22928 0.0
C245 C 0.64786 0.31889 0.2013 0.0
C246 C 0.61918 0.32491 0.22744 0.0
C247 C 0.61258 0.30638 0.19645 0.0
O248 O 0.61938 0.31386 0.19617 0.0
O249 O 0.61165 0.30057 0.20471 0.0
O250 O 0.64114 0.32647 0.19966 0.0
O251 O 0.64479 0.31088 0.207 0.0
O252 O 0.69042 0.86842 0.4466 0.0
Cd253 Cd 0.68701 0.87926 0.45851 0.0
Cd254 Cd 0.70406 0.86861 0.46809 0.0
O255 O 0.70558 0.86225 0.45301 0.0
O256 O 0.67795 0.89017 0.45137 0.0
O257 O 0.69404 0.89371 0.4576 0.0
C258 C 0.68566 0.89685 0.4525 0.0
C259 C 0.71973 0.87081 0.47815 0.0
C260 C 0.69865 0.86259 0.44563 0.0
C261 C 0.6817 0.86634 0.47754 0.0
O262 O 0.69133 0.86324 0.47698 0.0
O263 O 0.6783 0.87362 0.47137 0.0
O264 O 0.71613 0.86157 0.4756 0.0
O265 O 0.71456 0.87902 0.47476 0.0
O266 O 0.13924 0.94144 0.72685 0.0
Cd267 Cd 0.1333 0.95373 0.71764 0.0
Cd268 Cd 0.12315 0.93634 0.70868 0.0
O269 O 0.12899 0.92812 0.72174 0.0
O270 O 0.13979 0.96638 0.72471 0.0
O271 O 0.12242 0.96388 0.72407 0.0
C272 C 0.13039 0.96958 0.7272 0.0
C273 C 0.1055 0.93495 0.70294 0.0
C274 C 0.13629 0.93179 0.72773 0.0
C275 C 0.13923 0.94791 0.69524 0.0
O276 O 0.13382 0.93946 0.69656 0.0
O277 O 0.13931 0.9551 0.70238 0.0
O278 O 0.1121 0.92714 0.70198 0.0
O279 O 0.10877 0.94345 0.70774 0.0
O280 O 0.56341 0.38411 0.447 0.0
Cd281 Cd 0.56627 0.37344 0.45917 0.0
Cd282 Cd 0.54872 0.38349 0.46774 0.0
O283 O 0.54766 0.38958 0.45249 0.0
O284 O 0.57544 0.36232 0.45258 0.0
O285 O 0.55902 0.35915 0.45815 0.0
C286 C 0.56753 0.35581 0.45341 0.0
C287 C 0.53269 0.38039 0.47694 0.0
C288 C 0.55499 0.38952 0.4455 0.0
C289 C 0.57044 0.38653 0.47831 0.0
O290 O 0.56079 0.38941 0.47725 0.0
O291 O 0.57428 0.37928 0.47236 0.0
O292 O 0.53588 0.38984 0.47458 0.0
O293 O 0.53852 0.37249 0.47387 0.0
O294 O 0.13863 0.81227 0.02599 0.0
Cd295 Cd 0.13273 0.80024 0.03555 0.0
Cd296 Cd 0.12286 0.81794 0.04412 0.0
O297 O 0.12874 0.82592 0.03092 0.0
O298 O 0.13936 0.7875 0.02882 0.0
O299 O 0.12197 0.78984 0.02931 0.0
C300 C 0.13 0.78416 0.02633 0.0
C301 C 0.10513 0.81886 0.04966 0.0
C302 C 0.13587 0.82196 0.02492 0.0
C303 C 0.13883 0.80657 0.0578 0.0
O304 O 0.1335 0.81506 0.05631 0.0
O305 O 0.13879 0.79923 0.05083 0.0
O306 O 0.11149 0.82688 0.05062 0.0
O307 O 0.10869 0.81043 0.04493 0.0
O308 O 0.68892 0.88408 0.30534 0.0
Cd309 Cd 0.686 0.87352 0.29308 0.0
Cd310 Cd 0.7034 0.8837 0.28447 0.0
O311 O 0.70466 0.88955 0.2998 0.0
O312 O 0.67675 0.86241 0.29957 0.0
O313 O 0.69314 0.85916 0.29398 0.0
C314 C 0.68459 0.85584 0.29865 0.0
C315 C 0.71929 0.88064 0.27505 0.0
C316 C 0.69738 0.88944 0.30684 0.0
C317 C 0.68161 0.88684 0.27416 0.0
O318 O 0.69125 0.88981 0.27519 0.0
O319 O 0.6779 0.87946 0.28001 0.0
O320 O 0.71619 0.89007 0.27757 0.0
O321 O 0.71346 0.87273 0.27808 0.0
O322 O 0.06398 0.36918 0.80602 0.0
Cd323 Cd 0.06696 0.37973 0.79377 0.0
Cd324 Cd 0.04938 0.36952 0.78517 0.0
O325 O 0.04819 0.36378 0.80056 0.0
O326 O 0.07605 0.39098 0.80026 0.0
O327 O 0.05964 0.39401 0.79457 0.0
C328 C 0.06813 0.39745 0.79929 0.0
C329 C 0.03348 0.37189 0.77552 0.0
C330 C 0.0555 0.36387 0.80756 0.0
C331 C 0.07126 0.36638 0.77488 0.0
O332 O 0.06161 0.36349 0.77596 0.0
O333 O 0.07506 0.37375 0.7807 0.0
O334 O 0.03682 0.36263 0.77832 0.0
O335 O 0.03902 0.38004 0.77846 0.0
O336 O 0.97701 0.88915 0.56154 0.0
Cd337 Cd 0.96788 0.8833 0.54915 0.0
Cd338 Cd 0.959 0.8729 0.56639 0.0
O339 O 0.97203 0.87867 0.57473 0.0
O340 O 0.97489 0.89004 0.5366 0.0
O341 O 0.97442 0.87264 0.53885 0.0
C342 C 0.97748 0.88071 0.53326 0.0
C343 C 0.95328 0.85522 0.56726 0.0
C344 C 0.97794 0.88608 0.57115 0.0
C345 C 0.94547 0.88905 0.55505 0.0
O346 O 0.94685 0.88357 0.56345 0.0
O347 O 0.95257 0.88922 0.54784 0.0
O348 O 0.95227 0.86159 0.57525 0.0
O349 O 0.95817 0.85871 0.55889 0.0
O350 O 0.1126 0.72689 0.31096 0.0
Cd351 Cd 0.11861 0.71781 0.29862 0.0
Cd352 Cd 0.12894 0.70897 0.31587 0.0
O353 O 0.12307 0.72195 0.32417 0.0
O354 O 0.11212 0.72491 0.286 0.0
O355 O 0.12948 0.72437 0.28855 0.0
C356 C 0.12152 0.7275 0.28285 0.0
C357 C 0.1466 0.7033 0.31718 0.0
C358 C 0.11564 0.72782 0.32058 0.0
C359 C 0.11292 0.69537 0.30438 0.0
O360 O 0.11834 0.69677 0.31282 0.0
O361 O 0.11276 0.70249 0.29718 0.0
O362 O 0.14003 0.70229 0.32501 0.0
O363 O 0.1433 0.70813 0.30871 0.0
O364 O 0.27618 0.86375 0.06166 0.0
Cd365 Cd 0.28532 0.8697 0.04933 0.0
Cd366 Cd 0.2941 0.88008 0.06669 0.0
O367 O 0.28107 0.87419 0.07492 0.0
O368 O 0.27832 0.863 0.03675 0.0
O369 O 0.27876 0.8804 0.03907 0.0
C370 C 0.2757 0.87234 0.03346 0.0
C371 C 0.29975 0.89777 0.06793 0.0
C372 C 0.27521 0.86677 0.07128 0.0
C373 C 0.30774 0.86403 0.05529 0.0
O374 O 0.3063 0.86946 0.06371 0.0
O375 O 0.30066 0.86387 0.04805 0.0
O376 O 0.30071 0.89125 0.07581 0.0
O377 O 0.29498 0.8944 0.05945 0.0
O378 O 0.13887 0.02594 0.8115 0.0
Cd379 Cd 0.13294 0.0352 0.79924 0.0
Cd380 Cd 0.12278 0.04405 0.81669 0.0
O381 O 0.12866 0.03098 0.82487 0.0
O382 O 0.13967 0.02832 0.78662 0.0
O383 O 0.12227 0.02869 0.7889 0.0
C384 C 0.13035 0.02573 0.78327 0.0
C385 C 0.10507 0.04962 0.81785 0.0
C386 C 0.13595 0.02502 0.82115 0.0
C387 C 0.13879 0.0576 0.80521 0.0
O388 O 0.13341 0.05623 0.81368 0.0
O389 O 0.13885 0.05051 0.79799 0.0
O390 O 0.11155 0.05062 0.82576 0.0
O391 O 0.1085 0.04486 0.80938 0.0
O392 O 0.97651 0.86368 0.19157 0.0
Cd393 Cd 0.9671 0.86963 0.20369 0.0
Cd394 Cd 0.95854 0.87984 0.18612 0.0
O395 O 0.97168 0.87388 0.17811 0.0
O396 O 0.97383 0.86296 0.21643 0.0
O397 O 0.97349 0.88035 0.21404 0.0
C398 C 0.97641 0.87231 0.21974 0.0
C399 C 0.95305 0.89756 0.18491 0.0
C400 C 0.97758 0.86658 0.18192 0.0
C401 C 0.94475 0.86388 0.19741 0.0
O402 O 0.94627 0.86928 0.18899 0.0
O403 O 0.95175 0.86375 0.20473 0.0
O404 O 0.95212 0.8911 0.17698 0.0
O405 O 0.9577 0.89411 0.19343 0.0
O406 O 0.13931 0.72778 0.94215 0.0
Cd407 Cd 0.13396 0.71842 0.95458 0.0
Cd408 Cd 0.1237 0.70904 0.9374 0.0
O409 O 0.12926 0.72207 0.92892 0.0
O410 O 0.14056 0.72567 0.96706 0.0
O411 O 0.12316 0.72452 0.96502 0.0
C412 C 0.13117 0.72787 0.97052 0.0
C413 C 0.10609 0.7031 0.93631 0.0
C414 C 0.13632 0.72839 0.93249 0.0
C415 C 0.14041 0.69613 0.9488 0.0
O416 O 0.13461 0.69713 0.94056 0.0
O417 O 0.14059 0.70342 0.95583 0.0
O418 O 0.11262 0.70204 0.92845 0.0
O419 O 0.10941 0.70808 0.94469 0.0
O420 O 0.27586 0.88898 0.69157 0.0
Cd421 Cd 0.28525 0.88302 0.70372 0.0
Cd422 Cd 0.29403 0.87305 0.68604 0.0
O423 O 0.28089 0.87899 0.67803 0.0
O424 O 0.27844 0.88966 0.71643 0.0
O425 O 0.27884 0.87228 0.71404 0.0
C426 C 0.27588 0.88031 0.71973 0.0
C427 C 0.29968 0.85538 0.6846 0.0
C428 C 0.27489 0.88618 0.68189 0.0
C429 C 0.3076 0.88901 0.69762 0.0
O430 O 0.30619 0.88369 0.68912 0.0
O431 O 0.30055 0.88899 0.70488 0.0
O432 O 0.30061 0.86198 0.67678 0.0
O433 O 0.29496 0.85867 0.69315 0.0
O434 O 0.11417 0.02573 0.44119 0.0
Cd435 Cd 0.11995 0.03494 0.45356 0.0
Cd436 Cd 0.13009 0.04402 0.4361 0.0
O437 O 0.12436 0.03092 0.42785 0.0
O438 O 0.11318 0.02793 0.46609 0.0
O439 O 0.13059 0.02847 0.46395 0.0
C440 C 0.1225 0.0254 0.4695 0.0
C441 C 0.14769 0.04996 0.43499 0.0
C442 C 0.1171 0.02487 0.43153 0.0
C443 C 0.1139 0.05732 0.44768 0.0
O444 O 0.11929 0.05602 0.43921 0.0
O445 O 0.1139 0.05019 0.45488 0.0
O446 O 0.14119 0.0509 0.42709 0.0
O447 O 0.14437 0.04502 0.44339 0.0
O448 O 0.56106 0.97657 0.88866 0.0
Cd449 Cd 0.54871 0.96737 0.88286 0.0
Cd450 Cd 0.56594 0.95845 0.87256 0.0
O451 O 0.57429 0.97149 0.87828 0.0
O452 O 0.53613 0.97448 0.88944 0.0
O453 O 0.53847 0.97378 0.87206 0.0
C454 C 0.53285 0.97696 0.88006 0.0
C455 C 0.56674 0.9527 0.85488 0.0
C456 C 0.57069 0.97746 0.88563 0.0
C457 C 0.55461 0.94502 0.88882 0.0
O458 O 0.563 0.94636 0.8833 0.0
O459 O 0.5474 0.95213 0.88895 0.0
O460 O 0.57475 0.95168 0.86124 0.0
O461 O 0.55839 0.9576 0.8584 0.0
O462 O 0.02425 0.31507 0.63668 0.0
Cd463 Cd 0.03361 0.30189 0.63332 0.0
Cd464 Cd 0.04502 0.31795 0.62226 0.0
O465 O 0.03299 0.32762 0.62793 0.0
O466 O 0.02556 0.29024 0.64049 0.0
O467 O 0.02799 0.29064 0.6231 0.0
C468 C 0.02399 0.28594 0.63132 0.0
C469 C 0.05092 0.31897 0.60463 0.0
C470 C 0.02531 0.32475 0.63387 0.0
C471 C 0.05654 0.30642 0.63976 0.0
O472 O 0.05669 0.31391 0.63297 0.0
O473 O 0.04832 0.30059 0.64081 0.0
O474 O 0.05264 0.32655 0.61134 0.0
O475 O 0.04536 0.31091 0.60779 0.0
O476 O 0.68801 0.77381 0.38616 0.0
Cd477 Cd 0.70135 0.78302 0.38301 0.0
Cd478 Cd 0.68548 0.79486 0.37206 0.0
O479 O 0.67561 0.78292 0.37758 0.0
O480 O 0.71286 0.77461 0.38997 0.0
O481 O 0.71251 0.77749 0.37265 0.0
C482 C 0.71714 0.7732 0.38077 0.0
C483 C 0.6844 0.80098 0.3545 0.0
C484 C 0.67835 0.77509 0.38337 0.0
C485 C 0.69717 0.80593 0.38977 0.0
O486 O 0.68974 0.80632 0.38292 0.0
O487 O 0.70283 0.79758 0.39076 0.0
O488 O 0.67692 0.80276 0.3613 0.0
O489 O 0.69241 0.79527 0.35754 0.0
O490 O 0.22697 0.4415 0.13839 0.0
Cd491 Cd 0.21759 0.45363 0.13241 0.0
Cd492 Cd 0.2089 0.436 0.12238 0.0
O493 O 0.22204 0.42798 0.1283 0.0
O494 O 0.22446 0.46636 0.13896 0.0
O495 O 0.22398 0.46387 0.12159 0.0
C496 C 0.22701 0.46959 0.12958 0.0
C497 C 0.20322 0.43458 0.10472 0.0
C498 C 0.22799 0.43183 0.13555 0.0
C499 C 0.19525 0.4475 0.13831 0.0
O500 O 0.19672 0.43901 0.133 0.0
O501 O 0.20227 0.4548 0.13833 0.0
O502 O 0.20234 0.42674 0.1113 0.0
O503 O 0.20793 0.44312 0.10801 0.0
O504 O 0.56446 0.77391 0.86673 0.0
Cd505 Cd 0.55123 0.7833 0.86967 0.0
Cd506 Cd 0.5671 0.79473 0.88133 0.0
O507 O 0.57684 0.78273 0.87565 0.0
O508 O 0.53969 0.77519 0.8624 0.0
O509 O 0.53979 0.77784 0.87976 0.0
C510 C 0.53523 0.77373 0.87151 0.0
C511 C 0.56844 0.80077 0.89892 0.0
C512 C 0.57408 0.77501 0.86971 0.0
C513 C 0.55581 0.80629 0.86357 0.0
O514 O 0.56298 0.80646 0.87071 0.0
O515 O 0.5502 0.79799 0.8621 0.0
O516 O 0.57591 0.8024 0.89207 0.0
O517 O 0.56031 0.79521 0.89593 0.0
O518 O 0.22655 0.31062 0.61362 0.0
Cd519 Cd 0.21722 0.29837 0.61943 0.0
Cd520 Cd 0.20852 0.31575 0.62978 0.0
O521 O 0.22167 0.3239 0.62403 0.0
O522 O 0.22411 0.28573 0.61275 0.0
O523 O 0.22363 0.28804 0.63015 0.0
C524 C 0.22665 0.2824 0.6221 0.0
C525 C 0.20278 0.31676 0.64745 0.0
C526 C 0.22758 0.32023 0.61667 0.0
C527 C 0.19491 0.30456 0.61357 0.0
O528 O 0.19637 0.31294 0.61906 0.0
O529 O 0.20193 0.29726 0.61343 0.0
O530 O 0.20188 0.32474 0.64103 0.0
O531 O 0.20756 0.30832 0.64399 0.0
O532 O 0.69045 0.97662 0.36369 0.0
Cd533 Cd 0.70268 0.9673 0.36956 0.0
Cd534 Cd 0.68525 0.95853 0.37978 0.0
O535 O 0.67712 0.97168 0.374 0.0
O536 O 0.71534 0.97411 0.36285 0.0
O537 O 0.71307 0.97368 0.38025 0.0
C538 C 0.71872 0.97663 0.37219 0.0
C539 C 0.68421 0.95275 0.39743 0.0
C540 C 0.68082 0.97761 0.36667 0.0
C541 C 0.69657 0.94496 0.36366 0.0
O542 O 0.68813 0.94639 0.36906 0.0
O543 O 0.70384 0.95201 0.3636 0.0
O544 O 0.67623 0.95188 0.39101 0.0
O545 O 0.69267 0.95752 0.394 0.0
O546 O 0.02568 0.44165 0.11322 0.0
Cd547 Cd 0.03514 0.45369 0.11926 0.0
Cd548 Cd 0.0435 0.43609 0.12949 0.0
O549 O 0.03034 0.42817 0.12348 0.0
O550 O 0.02852 0.46652 0.11267 0.0
O551 O 0.02879 0.464 0.13004 0.0
C552 C 0.02594 0.46978 0.12203 0.0
C553 C 0.04896 0.43485 0.14723 0.0
C554 C 0.02452 0.43201 0.11613 0.0
C555 C 0.05745 0.44727 0.1136 0.0
O556 O 0.05584 0.43885 0.11898 0.0
O557 O 0.05051 0.45464 0.11345 0.0
O558 O 0.04982 0.42691 0.14077 0.0
O559 O 0.04438 0.4434 0.14377 0.0
O560 O 0.88895 0.56127 0.977 0.0
Cd561 Cd 0.8831 0.54909 0.9676 0.0
Cd562 Cd 0.87298 0.56661 0.95892 0.0
O563 O 0.87876 0.5747 0.97209 0.0
O564 O 0.88969 0.53641 0.97451 0.0
O565 O 0.8723 0.53879 0.97392 0.0
C566 C 0.88031 0.53312 0.977 0.0
C567 C 0.85533 0.56762 0.95313 0.0
C568 C 0.88603 0.57091 0.97804 0.0
C569 C 0.88912 0.55531 0.94533 0.0
O570 O 0.88371 0.56374 0.9468 0.0
O571 O 0.88917 0.54799 0.95233 0.0
O572 O 0.86174 0.5756 0.95226 0.0
O573 O 0.85877 0.55918 0.95793 0.0
O574 O 0.38941 0.69225 0.77496 0.0
Cd575 Cd 0.38335 0.70433 0.78436 0.0
Cd576 Cd 0.37342 0.68666 0.79308 0.0
O577 O 0.37939 0.6787 0.77994 0.0
O578 O 0.38979 0.71714 0.77757 0.0
O579 O 0.37244 0.7145 0.778 0.0
C580 C 0.38039 0.72031 0.77505 0.0
C581 C 0.35579 0.68498 0.79878 0.0
C582 C 0.38661 0.68256 0.77396 0.0
C583 C 0.38926 0.69828 0.80673 0.0
O584 O 0.38399 0.68976 0.80528 0.0
O585 O 0.38927 0.70555 0.79968 0.0
O586 O 0.36249 0.67723 0.79964 0.0
O587 O 0.35895 0.69358 0.79408 0.0
O588 O 0.31144 0.13889 0.52631 0.0
Cd589 Cd 0.29927 0.13284 0.5356 0.0
Cd590 Cd 0.31687 0.12291 0.54444 0.0
O591 O 0.32498 0.12892 0.53138 0.0
O592 O 0.28656 0.13938 0.5287 0.0
O593 O 0.28905 0.12201 0.52918 0.0
C594 C 0.28333 0.13 0.52616 0.0
C595 C 0.3182 0.10522 0.55003 0.0
C596 C 0.32114 0.13613 0.52539 0.0
C597 C 0.30519 0.13879 0.55799 0.0
O598 O 0.31371 0.1335 0.55661 0.0
O599 O 0.29797 0.13878 0.55089 0.0
O600 O 0.32605 0.11178 0.55103 0.0
O601 O 0.30971 0.10855 0.54524 0.0
O602 O 0.8637 0.06075 0.27583 0.0
Cd603 Cd 0.86964 0.04859 0.28521 0.0
Cd604 Cd 0.87973 0.06615 0.29387 0.0
O605 O 0.87387 0.07421 0.28071 0.0
O606 O 0.863 0.03587 0.27843 0.0
O607 O 0.88039 0.03826 0.27883 0.0
C608 C 0.87235 0.03256 0.27589 0.0
C609 C 0.8974 0.06717 0.29957 0.0
C610 C 0.8666 0.0704 0.27478 0.0
C611 C 0.86376 0.05476 0.30754 0.0
O612 O 0.86909 0.06324 0.30605 0.0
O613 O 0.86373 0.04746 0.30053 0.0
O614 O 0.891 0.07515 0.30048 0.0
O615 O 0.89394 0.05873 0.29477 0.0
O616 O 0.44172 0.61377 0.52642 0.0
Cd617 Cd 0.45395 0.61986 0.5356 0.0
Cd618 Cd 0.43657 0.63014 0.54421 0.0
O619 O 0.4284 0.62418 0.53118 0.0
O620 O 0.46662 0.61314 0.52881 0.0
O621 O 0.46421 0.63053 0.52898 0.0
C622 C 0.46989 0.62246 0.5261 0.0
C623 C 0.43557 0.64791 0.54961 0.0
C624 C 0.43209 0.61674 0.52538 0.0
C625 C 0.44791 0.61424 0.55801 0.0
O626 O 0.43945 0.6196 0.5565 0.0
O627 O 0.45519 0.61413 0.55098 0.0
O628 O 0.4276 0.64151 0.55067 0.0
O629 O 0.44401 0.64436 0.54489 0.0
O630 O 0.86656 0.18772 0.97896 0.0
Cd631 Cd 0.86992 0.20088 0.96956 0.0
Cd632 Cd 0.88105 0.1849 0.95822 0.0
O633 O 0.87539 0.17522 0.97024 0.0
O634 O 0.8628 0.21258 0.97758 0.0
O635 O 0.88018 0.21214 0.97508 0.0
C636 C 0.87198 0.21688 0.97909 0.0
C637 C 0.8987 0.18387 0.9524 0.0
C638 C 0.86941 0.17806 0.9779 0.0
C639 C 0.86347 0.19623 0.94665 0.0
O640 O 0.87032 0.1888 0.94651 0.0
O641 O 0.8624 0.20208 0.95486 0.0
O642 O 0.89202 0.17626 0.95071 0.0
O643 O 0.89549 0.19199 0.95785 0.0
O644 O 0.31089 0.11364 0.7268 0.0
Cd645 Cd 0.29869 0.11972 0.71756 0.0
Cd646 Cd 0.31629 0.12972 0.70877 0.0
O647 O 0.3244 0.12371 0.72182 0.0
O648 O 0.28602 0.11315 0.7245 0.0
O649 O 0.28852 0.13052 0.72409 0.0
C650 C 0.28281 0.12252 0.72712 0.0
C651 C 0.31769 0.14741 0.70317 0.0
C652 C 0.32057 0.11644 0.72776 0.0
C653 C 0.30462 0.11385 0.69516 0.0
O654 O 0.31314 0.11915 0.69658 0.0
O655 O 0.29738 0.11384 0.70223 0.0
O656 O 0.32551 0.14082 0.70218 0.0
O657 O 0.30918 0.1441 0.70794 0.0
O658 O 0.94134 0.63877 0.22648 0.0
Cd659 Cd 0.95364 0.63282 0.2173 0.0
Cd660 Cd 0.93633 0.6225 0.20846 0.0
O661 O 0.92807 0.62841 0.22147 0.0
O662 O 0.96629 0.63934 0.22434 0.0
O663 O 0.96381 0.62197 0.22374 0.0
C664 C 0.9695 0.62995 0.22686 0.0
C665 C 0.9351 0.6048 0.20286 0.0
C666 C 0.9317 0.63578 0.22739 0.0
C667 C 0.94775 0.63859 0.19489 0.0
O668 O 0.93936 0.6331 0.19625 0.0
O669 O 0.95495 0.63879 0.20201 0.0
O670 O 0.92723 0.61131 0.20185 0.0
O671 O 0.94358 0.60818 0.20764 0.0
O672 O 0.02662 0.61406 0.94216 0.0
Cd673 Cd 0.03574 0.62009 0.95445 0.0
Cd674 Cd 0.04446 0.63042 0.93706 0.0
O675 O 0.0314 0.62452 0.92888 0.0
O676 O 0.02883 0.61335 0.96705 0.0
O677 O 0.02909 0.63074 0.9647 0.0
C678 C 0.02612 0.62266 0.97032 0.0
C679 C 0.05018 0.64808 0.93579 0.0
C680 C 0.0256 0.61707 0.93254 0.0
C681 C 0.05812 0.61439 0.94845 0.0
O682 O 0.05665 0.61979 0.94001 0.0
O683 O 0.05108 0.61427 0.95573 0.0
O684 O 0.05108 0.64156 0.92791 0.0
O685 O 0.04542 0.64474 0.94429 0.0
O686 O 0.88886 0.77581 0.19186 0.0
Cd687 Cd 0.88279 0.78521 0.20393 0.0
Cd688 Cd 0.87286 0.79384 0.18624 0.0
O689 O 0.87882 0.78068 0.17829 0.0
O690 O 0.88937 0.77847 0.21671 0.0
O691 O 0.872 0.77877 0.21419 0.0
C692 C 0.88001 0.77587 0.21995 0.0
C693 C 0.85518 0.79945 0.18488 0.0
C694 C 0.88606 0.77475 0.18218 0.0
C695 C 0.88872 0.80754 0.19776 0.0
O696 O 0.88347 0.80604 0.18924 0.0
O697 O 0.88867 0.80054 0.20508 0.0
O698 O 0.86172 0.80035 0.17701 0.0
O699 O 0.85852 0.79477 0.19342 0.0
O700 O 0.72777 0.63874 0.44154 0.0
Cd701 Cd 0.71816 0.63339 0.45376 0.0
Cd702 Cd 0.70905 0.62327 0.43622 0.0
O703 O 0.72222 0.62894 0.42804 0.0
O704 O 0.72526 0.63998 0.46634 0.0
O705 O 0.72411 0.62258 0.46428 0.0
C706 C 0.72743 0.63059 0.46981 0.0
C707 C 0.70304 0.60571 0.43478 0.0
C708 C 0.72854 0.6359 0.43184 0.0
C709 C 0.69597 0.63988 0.44761 0.0
O710 O 0.6971 0.63414 0.43934 0.0
O711 O 0.70314 0.64004 0.45476 0.0
O712 O 0.70217 0.61235 0.42699 0.0
O713 O 0.70789 0.60888 0.44329 0.0
O714 O 0.86276 0.47695 0.69209 0.0
Cd715 Cd 0.86896 0.4678 0.70429 0.0
Cd716 Cd 0.87907 0.45919 0.68679 0.0
O717 O 0.87304 0.47221 0.67867 0.0
O718 O 0.86237 0.47472 0.71695 0.0
O719 O 0.87974 0.47451 0.71437 0.0
C720 C 0.87172 0.47749 0.72008 0.0
C721 C 0.89678 0.45372 0.68545 0.0
C722 C 0.86565 0.47801 0.68244 0.0
C723 C 0.86332 0.44539 0.69838 0.0
O724 O 0.86857 0.44691 0.68986 0.0
O725 O 0.86326 0.45242 0.70567 0.0
O726 O 0.89022 0.45268 0.67761 0.0
O727 O 0.89343 0.45847 0.69395 0.0
O728 O 0.02582 0.6382 0.31101 0.0
Cd729 Cd 0.03521 0.63238 0.29882 0.0
Cd730 Cd 0.04402 0.62231 0.31644 0.0
O731 O 0.03086 0.62815 0.32451 0.0
O732 O 0.02837 0.63915 0.2862 0.0
O733 O 0.0288 0.62174 0.28838 0.0
C734 C 0.02581 0.62984 0.28279 0.0
C735 C 0.04979 0.60467 0.31763 0.0
C736 C 0.02484 0.63535 0.32069 0.0
C737 C 0.05753 0.6384 0.30498 0.0
O738 O 0.05613 0.63302 0.31344 0.0
O739 O 0.05049 0.63842 0.2977 0.0
O740 O 0.05067 0.61116 0.32554 0.0
O741 O 0.04501 0.60803 0.30915 0.0
O742 O 0.86416 0.77545 0.55986 0.0
Cd743 Cd 0.86961 0.78482 0.5475 0.0
Cd744 Cd 0.87984 0.79411 0.56478 0.0
O745 O 0.8742 0.78104 0.57314 0.0
O746 O 0.8631 0.77755 0.53498 0.0
O747 O 0.88049 0.77872 0.53714 0.0
C748 C 0.87252 0.77534 0.5316 0.0
C749 C 0.8974 0.80012 0.56629 0.0
C750 C 0.86711 0.77478 0.56953 0.0
C751 C 0.86313 0.80705 0.55336 0.0
O752 O 0.86893 0.80601 0.5616 0.0
O753 O 0.86296 0.79982 0.54628 0.0
O754 O 0.89071 0.80106 0.57402 0.0
O755 O 0.89428 0.79524 0.55778 0.0
O756 O 0.72714 0.61264 0.81125 0.0
Cd757 Cd 0.71814 0.61865 0.79884 0.0
Cd758 Cd 0.70918 0.629 0.8162 0.0
O759 O 0.72216 0.62308 0.82447 0.0
O760 O 0.72525 0.61192 0.78635 0.0
O761 O 0.72492 0.62932 0.7887 0.0
C762 C 0.728 0.62124 0.78312 0.0
C763 C 0.70348 0.64664 0.81789 0.0
C764 C 0.72804 0.61566 0.82088 0.0
C765 C 0.69563 0.61306 0.80449 0.0
O766 O 0.69699 0.61843 0.81297 0.0
O767 O 0.7028 0.6129 0.79734 0.0
O768 O 0.70249 0.6399 0.82557 0.0
O769 O 0.70828 0.64351 0.80933 0.0
O770 O 0.88931 0.47684 0.06138 0.0
Cd771 Cd 0.88338 0.46759 0.04912 0.0
Cd772 Cd 0.87302 0.45888 0.06655 0.0
O773 O 0.87893 0.47195 0.0747 0.0
O774 O 0.89009 0.47443 0.03647 0.0
O775 O 0.87269 0.47408 0.0388 0.0
C776 C 0.88075 0.47703 0.03315 0.0
C777 C 0.85532 0.45327 0.06778 0.0
C778 C 0.88632 0.47784 0.07101 0.0
C779 C 0.88902 0.44517 0.0552 0.0
O780 O 0.88359 0.44664 0.06362 0.0
O781 O 0.8892 0.45224 0.04795 0.0
O782 O 0.86182 0.45234 0.07568 0.0
O783 O 0.85871 0.45801 0.05928 0.0
O784 O 0.43824 0.55629 0.61917 0.0
Cd785 Cd 0.43532 0.54401 0.62971 0.0
Cd786 Cd 0.45287 0.53543 0.61953 0.0
O787 O 0.45405 0.55083 0.61382 0.0
O788 O 0.42635 0.55051 0.64106 0.0
O789 O 0.44277 0.54476 0.64392 0.0
C790 C 0.43435 0.54953 0.64744 0.0
C791 C 0.46883 0.52594 0.62203 0.0
C792 C 0.44674 0.55784 0.6139 0.0
C793 C 0.43103 0.52508 0.61639 0.0
O794 O 0.44067 0.52618 0.61348 0.0
O795 O 0.42724 0.53091 0.62376 0.0
O796 O 0.46552 0.52867 0.61273 0.0
O797 O 0.46319 0.52881 0.63013 0.0
O798 O 0.97725 0.19131 0.86312 0.0
Cd799 Cd 0.96795 0.20346 0.86921 0.0
Cd800 Cd 0.95969 0.18616 0.8798 0.0
O801 O 0.97273 0.17809 0.87377 0.0
O802 O 0.97459 0.21626 0.86261 0.0
O803 O 0.97439 0.2137 0.87999 0.0
C804 C 0.97721 0.21949 0.87197 0.0
C805 C 0.95441 0.18503 0.89758 0.0
C806 C 0.97842 0.18173 0.86622 0.0
C807 C 0.94556 0.19713 0.86393 0.0
O808 O 0.94722 0.18878 0.86941 0.0
O809 O 0.95252 0.20447 0.86358 0.0
O810 O 0.95346 0.17706 0.89117 0.0
O811 O 0.95898 0.19355 0.89404 0.0
O812 O 0.31319 0.69648 0.11954 0.0
Cd813 Cd 0.31614 0.70869 0.13016 0.0
Cd814 Cd 0.29888 0.7175 0.11974 0.0
O815 O 0.29761 0.7022 0.1138 0.0
O816 O 0.32515 0.70206 0.1414 0.0
O817 O 0.30879 0.70788 0.14442 0.0
C818 C 0.31722 0.70306 0.14785 0.0
C819 C 0.283 0.72703 0.12257 0.0
C820 C 0.30481 0.69509 0.11403 0.0
C821 C 0.32081 0.72765 0.11693 0.0
O822 O 0.3112 0.72671 0.11387 0.0
O823 O 0.32442 0.72173 0.12432 0.0
O824 O 0.28625 0.72453 0.11318 0.0
O825 O 0.28867 0.72392 0.13056 0.0
O826 O 0.77569 0.05996 0.36281 0.0
Cd827 Cd 0.78494 0.0479 0.36911 0.0
Cd828 Cd 0.79348 0.06549 0.37911 0.0
O829 O 0.78045 0.07348 0.37295 0.0
O830 O 0.7781 0.03507 0.36276 0.0
O831 O 0.77842 0.03792 0.38008 0.0
C832 C 0.77545 0.03205 0.37218 0.0
C833 C 0.7989 0.06719 0.39681 0.0
C834 C 0.77464 0.06964 0.36561 0.0
C835 C 0.80733 0.0539 0.36342 0.0
O836 O 0.8058 0.06241 0.36867 0.0
O837 O 0.80031 0.0466 0.36336 0.0
O838 O 0.79987 0.07493 0.39012 0.0
O839 O 0.79427 0.05857 0.39359 0.0
O840 O 0.43924 0.69672 0.63289 0.0
Cd841 Cd 0.43635 0.70903 0.62238 0.0
Cd842 Cd 0.45362 0.71774 0.63295 0.0
O843 O 0.45483 0.70236 0.63868 0.0
O844 O 0.42726 0.70255 0.61111 0.0
O845 O 0.44366 0.70825 0.60809 0.0
C846 C 0.43518 0.70354 0.60464 0.0
C847 C 0.46956 0.72726 0.6304 0.0
C848 C 0.44762 0.69526 0.63838 0.0
C849 C 0.43168 0.72787 0.63578 0.0
O850 O 0.44128 0.72689 0.63888 0.0
O851 O 0.42811 0.72204 0.6283 0.0
O852 O 0.46623 0.72461 0.63972 0.0
O853 O 0.46393 0.72431 0.62231 0.0
O854 O 0.77583 0.19013 0.8893 0.0
Cd855 Cd 0.78527 0.20238 0.88371 0.0
Cd856 Cd 0.79441 0.18487 0.87366 0.0
O857 O 0.78128 0.17667 0.87941 0.0
O858 O 0.77829 0.21492 0.89047 0.0
O859 O 0.77905 0.2129 0.87304 0.0
C860 C 0.77594 0.21842 0.88114 0.0
C861 C 0.80025 0.18349 0.85604 0.0
C862 C 0.77506 0.18044 0.88646 0.0
C863 C 0.80757 0.19643 0.89003 0.0
O864 O 0.80643 0.18807 0.88443 0.0
O865 O 0.80037 0.20355 0.89011 0.0
O866 O 0.80121 0.17569 0.86265 0.0
O867 O 0.7954 0.19198 0.85928 0.0
O868 O 0.31346 0.55625 0.13278 0.0
Cd869 Cd 0.31643 0.54402 0.1222 0.0
Cd870 Cd 0.29898 0.53529 0.13257 0.0
O871 O 0.29779 0.55065 0.13838 0.0
O872 O 0.32564 0.55058 0.11108 0.0
O873 O 0.30926 0.54494 0.10785 0.0
C874 C 0.31779 0.54967 0.10452 0.0
C875 C 0.28303 0.52581 0.12995 0.0
C876 C 0.30504 0.55771 0.1382 0.0
C877 C 0.32088 0.52506 0.13552 0.0
O878 O 0.31125 0.52607 0.13852 0.0
O879 O 0.32455 0.53093 0.12813 0.0
O880 O 0.28634 0.52844 0.13928 0.0
O881 O 0.28868 0.52877 0.12188 0.0
O882 O 0.97704 0.05986 0.38851 0.0
Cd883 Cd 0.96741 0.04769 0.38309 0.0
Cd884 Cd 0.95828 0.06529 0.37318 0.0
O885 O 0.97148 0.07342 0.37883 0.0
O886 O 0.97442 0.0351 0.38973 0.0
O887 O 0.97343 0.03716 0.37232 0.0
C888 C 0.97667 0.03162 0.38036 0.0
C889 C 0.95234 0.06672 0.35559 0.0
C890 C 0.97781 0.06957 0.38573 0.0
C891 C 0.94526 0.05385 0.38975 0.0
O892 O 0.94637 0.06217 0.38409 0.0
O893 O 0.9524 0.04667 0.38977 0.0
O894 O 0.95144 0.07452 0.36223 0.0
O895 O 0.95715 0.0582 0.3588 0.0
O896 O 0.1141 0.94123 0.52577 0.0
Cd897 Cd 0.11999 0.95341 0.53514 0.0
Cd898 Cd 0.13023 0.93593 0.54373 0.0
O899 O 0.12435 0.92782 0.53062 0.0
O900 O 0.11342 0.96611 0.52824 0.0
O901 O 0.1308 0.96368 0.52878 0.0
C902 C 0.1228 0.96936 0.52572 0.0
C903 C 0.14793 0.93491 0.54936 0.0
C904 C 0.11704 0.93159 0.52472 0.0
C905 C 0.11416 0.94719 0.55745 0.0
O906 O 0.1196 0.93878 0.55595 0.0
O907 O 0.11402 0.9545 0.55045 0.0
O908 O 0.14152 0.92693 0.5503 0.0
O909 O 0.14445 0.94335 0.5446 0.0
O910 O 0.61237 0.81134 0.72719 0.0
Cd911 Cd 0.61857 0.799 0.71824 0.0
Cd912 Cd 0.62885 0.81639 0.70946 0.0
O913 O 0.62279 0.82464 0.72239 0.0
O914 O 0.61184 0.78646 0.72526 0.0
O915 O 0.62922 0.78889 0.7251 0.0
C916 C 0.62115 0.78327 0.7281 0.0
C917 C 0.64653 0.81793 0.7039 0.0
C918 C 0.61532 0.82098 0.72816 0.0
C919 C 0.61307 0.8047 0.69574 0.0
O920 O 0.61837 0.81321 0.69719 0.0
O921 O 0.61295 0.79749 0.70285 0.0
O922 O 0.63987 0.82568 0.70288 0.0
O923 O 0.6433 0.80939 0.70868 0.0
O924 O 0.68879 0.36956 0.9466 0.0
Cd925 Cd 0.68481 0.3805 0.95807 0.0
Cd926 Cd 0.70084 0.3695 0.96968 0.0
O927 O 0.70204 0.36174 0.9551 0.0
O928 O 0.67626 0.3913 0.95021 0.0
O929 O 0.69191 0.39494 0.95742 0.0
C930 C 0.68387 0.39801 0.95177 0.0
C931 C 0.71685 0.3715 0.97921 0.0
C932 C 0.69622 0.36271 0.94686 0.0
C933 C 0.67796 0.36926 0.97798 0.0
O934 O 0.68762 0.36642 0.97909 0.0
O935 O 0.67511 0.37508 0.9702 0.0
O936 O 0.71242 0.36236 0.97785 0.0
O937 O 0.71222 0.3797 0.97507 0.0
O938 O 0.13855 0.4414 0.22557 0.0
Cd939 Cd 0.13254 0.45347 0.21614 0.0
Cd940 Cd 0.12244 0.43593 0.20764 0.0
O941 O 0.12835 0.42792 0.2208 0.0
O942 O 0.1392 0.46622 0.22282 0.0
O943 O 0.12181 0.46381 0.22254 0.0
C944 C 0.12986 0.46952 0.22542 0.0
C945 C 0.10468 0.43498 0.20222 0.0
C946 C 0.13565 0.43176 0.22668 0.0
C947 C 0.1384 0.44717 0.19385 0.0
O948 O 0.13304 0.43872 0.19538 0.0
O949 O 0.13845 0.45452 0.20082 0.0
O950 O 0.11104 0.42697 0.20123 0.0
O951 O 0.10827 0.44344 0.20689 0.0
O952 O 0.56292 0.88446 0.94737 0.0
Cd953 Cd 0.56599 0.87396 0.95964 0.0
Cd954 Cd 0.54846 0.88398 0.96835 0.0
O955 O 0.54721 0.88989 0.95304 0.0
O956 O 0.57519 0.86281 0.95313 0.0
O957 O 0.55885 0.85959 0.95891 0.0
C958 C 0.56736 0.85624 0.95417 0.0
C959 C 0.53249 0.881 0.97767 0.0
C960 C 0.55444 0.8898 0.94595 0.0
C961 C 0.57027 0.88722 0.97866 0.0
O962 O 0.56058 0.89004 0.97771 0.0
O963 O 0.57408 0.87998 0.97269 0.0
O964 O 0.53566 0.89041 0.97517 0.0
O965 O 0.53831 0.87306 0.97471 0.0
O966 O 0.13953 0.31142 0.52518 0.0
Cd967 Cd 0.13349 0.29916 0.53433 0.0
Cd968 Cd 0.1235 0.31674 0.54322 0.0
O969 O 0.12947 0.32491 0.53021 0.0
O970 O 0.14017 0.28662 0.52727 0.0
O971 O 0.12278 0.28897 0.52767 0.0
C972 C 0.13083 0.28339 0.52457 0.0
C973 C 0.10585 0.31832 0.54887 0.0
C974 C 0.13672 0.32111 0.52425 0.0
C975 C 0.13934 0.30494 0.55677 0.0
O976 O 0.13408 0.31348 0.55539 0.0
O977 O 0.13934 0.29773 0.54965 0.0
O978 O 0.11254 0.32605 0.54987 0.0
O979 O 0.10904 0.30978 0.54408 0.0
O980 O 0.68938 0.3826 0.80609 0.0
Cd981 Cd 0.68513 0.3716 0.79477 0.0
Cd982 Cd 0.70105 0.38254 0.78282 0.0
O983 O 0.70251 0.39037 0.79734 0.0
O984 O 0.67639 0.3611 0.80283 0.0
O985 O 0.69189 0.35701 0.79556 0.0
C986 C 0.68382 0.35418 0.80128 0.0
C987 C 0.71688 0.38038 0.77302 0.0
C988 C 0.69681 0.38945 0.80568 0.0
C989 C 0.67804 0.38284 0.77491 0.0
O990 O 0.68769 0.38564 0.77362 0.0
O991 O 0.67531 0.37705 0.78276 0.0
O992 O 0.71253 0.38956 0.7744 0.0
O993 O 0.71229 0.37224 0.77732 0.0
O994 O 0.06334 0.86921 0.30586 0.0
Cd995 Cd 0.06635 0.87995 0.29379 0.0
Cd996 Cd 0.04871 0.86989 0.28497 0.0
O997 O 0.04764 0.86371 0.3002 0.0
O998 O 0.07561 0.89097 0.30047 0.0
O999 O 0.05922 0.89431 0.2949 0.0
C1000 C 0.06777 0.89756 0.29965 0.0
C1001 C 0.0327 0.8727 0.27564 0.0
C1002 C 0.05492 0.86376 0.30725 0.0
C1003 C 0.07054 0.86701 0.27451 0.0
O1004 O 0.06087 0.86415 0.27548 0.0
O1005 O 0.07438 0.87415 0.28058 0.0
O1006 O 0.03603 0.86332 0.27805 0.0
O1007 O 0.03835 0.8807 0.27876 0.0
O1008 O 0.97665 0.38898 0.06087 0.0
Cd1009 Cd 0.96742 0.383 0.04862 0.0
Cd1010 Cd 0.95859 0.3728 0.06604 0.0
O1011 O 0.97163 0.37872 0.07422 0.0
O1012 O 0.97431 0.38964 0.03595 0.0
O1013 O 0.97389 0.37226 0.03835 0.0
C1014 C 0.97687 0.38029 0.03267 0.0
C1015 C 0.95302 0.35509 0.06733 0.0
C1016 C 0.97757 0.38605 0.07053 0.0
C1017 C 0.94501 0.38881 0.05457 0.0
O1018 O 0.94639 0.3834 0.06302 0.0
O1019 O 0.95211 0.38891 0.04735 0.0
O1020 O 0.95202 0.36162 0.07519 0.0
O1021 O 0.95776 0.35846 0.05883 0.0
O1022 O 0.11408 0.22644 0.81228 0.0
Cd1023 Cd 0.12014 0.21718 0.80009 0.0
Cd1024 Cd 0.13006 0.20832 0.81763 0.0
O1025 O 0.12414 0.2214 0.82576 0.0
O1026 O 0.11354 0.22409 0.78743 0.0
O1027 O 0.13092 0.22367 0.78985 0.0
C1028 C 0.12289 0.22667 0.78416 0.0
C1029 C 0.14776 0.20275 0.81881 0.0
C1030 C 0.11689 0.22737 0.82196 0.0
C1031 C 0.1142 0.19478 0.80595 0.0
O1032 O 0.11944 0.19616 0.8145 0.0
O1033 O 0.11425 0.20188 0.79873 0.0
O1034 O 0.14126 0.20173 0.82671 0.0
O1035 O 0.14435 0.20753 0.81035 0.0
O1036 O 0.27612 0.36283 0.56137 0.0
Cd1037 Cd 0.28549 0.36892 0.54928 0.0
Cd1038 Cd 0.29418 0.37881 0.56691 0.0
O1039 O 0.28107 0.37282 0.57494 0.0
O1040 O 0.27863 0.36248 0.5365 0.0
O1041 O 0.27914 0.37983 0.53912 0.0
C1042 C 0.27612 0.37189 0.53333 0.0
C1043 C 0.29971 0.39652 0.56824 0.0
C1044 C 0.27512 0.3656 0.57106 0.0
C1045 C 0.30784 0.36297 0.55531 0.0
O1046 O 0.3064 0.36825 0.56383 0.0
O1047 O 0.3008 0.36299 0.54804 0.0
O1048 O 0.30069 0.38997 0.5761 0.0
O1049 O 0.295 0.39315 0.55973 0.0
O1050 O 0.13866 0.52469 0.31047 0.0
Cd1051 Cd 0.13327 0.53414 0.29813 0.0
Cd1052 Cd 0.12308 0.54344 0.31539 0.0
O1053 O 0.12874 0.53041 0.3238 0.0
O1054 O 0.13969 0.5269 0.28556 0.0
O1055 O 0.12232 0.52821 0.28776 0.0
C1056 C 0.13026 0.52481 0.28217 0.0
C1057 C 0.10547 0.54939 0.31665 0.0
C1058 C 0.13576 0.52407 0.32016 0.0
C1059 C 0.13975 0.55639 0.30397 0.0
O1060 O 0.13393 0.55539 0.31219 0.0
O1061 O 0.13998 0.54911 0.29694 0.0
O1062 O 0.11208 0.55041 0.32445 0.0
O1063 O 0.10871 0.54442 0.30823 0.0
O1064 O 0.97888 0.36629 0.68832 0.0
Cd1065 Cd 0.96959 0.36963 0.70156 0.0
Cd1066 Cd 0.95801 0.38066 0.68557 0.0
O1067 O 0.96999 0.37498 0.67584 0.0
O1068 O 0.97783 0.36268 0.71322 0.0
O1069 O 0.97514 0.38003 0.71267 0.0
C1070 C 0.9793 0.37191 0.71742 0.0
C1071 C 0.95198 0.39824 0.68431 0.0
C1072 C 0.97772 0.36908 0.67865 0.0
C1073 C 0.94665 0.36311 0.69723 0.0
O1074 O 0.94642 0.36993 0.68977 0.0
O1075 O 0.95494 0.36205 0.70297 0.0
O1076 O 0.95029 0.39141 0.67684 0.0
O1077 O 0.95757 0.39522 0.69242 0.0
O1078 O 0.1363 0.22896 0.43744 0.0
Cd1079 Cd 0.13309 0.21951 0.4506 0.0
Cd1080 Cd 0.12231 0.20794 0.43438 0.0
O1081 O 0.1278 0.22012 0.42479 0.0
O1082 O 0.14026 0.22761 0.46221 0.0
O1083 O 0.12289 0.22501 0.46193 0.0
C1084 C 0.13111 0.22909 0.46657 0.0
C1085 C 0.10476 0.2018 0.43324 0.0
C1086 C 0.13357 0.2279 0.42775 0.0
C1087 C 0.13993 0.19668 0.44598 0.0
O1088 O 0.13321 0.19644 0.43842 0.0
O1089 O 0.14077 0.20489 0.45185 0.0
O1090 O 0.11153 0.20022 0.42568 0.0
O1091 O 0.10782 0.20733 0.44136 0.0
O1092 O 0.27608 0.38887 0.19062 0.0
Cd1093 Cd 0.28528 0.38292 0.2029 0.0
Cd1094 Cd 0.2939 0.37245 0.18556 0.0
O1095 O 0.28088 0.3784 0.17735 0.0
O1096 O 0.2785 0.38976 0.21551 0.0
O1097 O 0.27871 0.37234 0.21327 0.0
C1098 C 0.27582 0.38047 0.21888 0.0
C1099 C 0.2993 0.35468 0.18458 0.0
C1100 C 0.27506 0.38585 0.181 0.0
C1101 C 0.30771 0.38843 0.19679 0.0
O1102 O 0.30621 0.38297 0.1884 0.0
O1103 O 0.30066 0.38867 0.20405 0.0
O1104 O 0.30035 0.36106 0.17661 0.0
O1105 O 0.29457 0.35824 0.19301 0.0
O1106 O 0.11254 0.52551 0.9417 0.0
Cd1107 Cd 0.11873 0.53465 0.95391 0.0
Cd1108 Cd 0.1288 0.5434 0.93639 0.0
O1109 O 0.12273 0.53041 0.92825 0.0
O1110 O 0.11217 0.52778 0.96661 0.0
O1111 O 0.12953 0.52801 0.964 0.0
C1112 C 0.12154 0.52508 0.96976 0.0
C1113 C 0.1465 0.54892 0.93496 0.0
C1114 C 0.11538 0.52454 0.93202 0.0
C1115 C 0.11312 0.55714 0.94811 0.0
O1116 O 0.11835 0.55568 0.93956 0.0
O1117 O 0.11305 0.55004 0.95532 0.0
O1118 O 0.13989 0.54996 0.92716 0.0
O1119 O 0.14321 0.54412 0.94346 0.0
O1120 O 0.56131 0.47741 0.38912 0.0
Cd1121 Cd 0.54902 0.46813 0.38327 0.0
Cd1122 Cd 0.56636 0.45914 0.37318 0.0
O1123 O 0.5746 0.47224 0.37887 0.0
O1124 O 0.53637 0.4752 0.38972 0.0
O1125 O 0.53883 0.47442 0.37235 0.0
C1126 C 0.53312 0.47758 0.3803 0.0
C1127 C 0.56768 0.4532 0.3556 0.0
C1128 C 0.57095 0.47828 0.38613 0.0
C1129 C 0.55487 0.4458 0.38938 0.0
O1130 O 0.56333 0.4471 0.38396 0.0
O1131 O 0.54767 0.45291 0.38939 0.0
O1132 O 0.57553 0.45234 0.36218 0.0
O1133 O 0.55919 0.45804 0.35884 0.0
O1134 O 0.0259 0.8118 0.13884 0.0
Cd1135 Cd 0.03515 0.79955 0.13292 0.0
Cd1136 Cd 0.04383 0.81706 0.12253 0.0
O1137 O 0.03072 0.82514 0.12847 0.0
O1138 O 0.02834 0.78693 0.13974 0.0
O1139 O 0.02861 0.78916 0.12233 0.0
C1140 C 0.02568 0.78356 0.13044 0.0
C1141 C 0.04948 0.81848 0.10485 0.0
C1142 C 0.02486 0.82143 0.13586 0.0
C1143 C 0.05755 0.8057 0.13854 0.0
O1144 O 0.05606 0.81411 0.13311 0.0
O1145 O 0.05051 0.79842 0.13873 0.0
O1146 O 0.05036 0.82632 0.11143 0.0
O1147 O 0.04478 0.80993 0.10815 0.0
O1148 O 0.69153 0.27429 0.89017 0.0
Cd1149 Cd 0.70384 0.28368 0.88464 0.0
Cd1150 Cd 0.68654 0.29299 0.87461 0.0
O1151 O 0.67816 0.27997 0.88029 0.0
O1152 O 0.71641 0.27642 0.89103 0.0
O1153 O 0.71412 0.27764 0.87366 0.0
C1154 C 0.71974 0.27426 0.88159 0.0
C1155 C 0.68511 0.29894 0.85704 0.0
C1156 C 0.68183 0.27365 0.88731 0.0
C1157 C 0.69815 0.30595 0.89112 0.0
O1158 O 0.68984 0.30493 0.88543 0.0
O1159 O 0.70518 0.29867 0.89125 0.0
O1160 O 0.67738 0.29997 0.86372 0.0
O1161 O 0.69356 0.29397 0.86018 0.0
O1162 O 0.22681 0.94127 0.63895 0.0
Cd1163 Cd 0.21759 0.95356 0.63304 0.0
Cd1164 Cd 0.20877 0.93617 0.62271 0.0
O1165 O 0.22182 0.92796 0.62862 0.0
O1166 O 0.22459 0.96618 0.63965 0.0
O1167 O 0.22404 0.9638 0.62226 0.0
C1168 C 0.22713 0.96946 0.63028 0.0
C1169 C 0.20313 0.93485 0.60502 0.0
C1170 C 0.22775 0.93163 0.63597 0.0
C1171 C 0.19519 0.94759 0.63881 0.0
O1172 O 0.19657 0.9392 0.63332 0.0
O1173 O 0.2023 0.9548 0.639 0.0
O1174 O 0.20216 0.927 0.61157 0.0
O1175 O 0.2079 0.94335 0.60835 0.0
O1176 O 0.56452 0.27303 0.36614 0.0
Cd1177 Cd 0.55117 0.28236 0.36873 0.0
Cd1178 Cd 0.56692 0.29449 0.3798 0.0
O1179 O 0.57682 0.28242 0.37456 0.0
O1180 O 0.53982 0.27386 0.3616 0.0
O1181 O 0.53968 0.27708 0.37887 0.0
C1182 C 0.53527 0.27266 0.3707 0.0
C1183 C 0.56819 0.30101 0.39723 0.0
C1184 C 0.57414 0.27441 0.36898 0.0
C1185 C 0.55549 0.30512 0.36158 0.0
O1186 O 0.56265 0.30572 0.3687 0.0
O1187 O 0.54997 0.29668 0.36053 0.0
O1188 O 0.5756 0.30261 0.39031 0.0
O1189 O 0.56012 0.29528 0.39439 0.0
O1190 O 0.22703 0.81125 0.11392 0.0
Cd1191 Cd 0.21754 0.79914 0.11978 0.0
Cd1192 Cd 0.20891 0.81681 0.12986 0.0
O1193 O 0.22214 0.82476 0.12403 0.0
O1194 O 0.22428 0.78643 0.11307 0.0
O1195 O 0.22387 0.78872 0.13047 0.0
C1196 C 0.22682 0.78306 0.12241 0.0
C1197 C 0.20316 0.81814 0.14751 0.0
C1198 C 0.2281 0.82091 0.1168 0.0
C1199 C 0.19527 0.80549 0.11379 0.0
O1200 O 0.19678 0.81394 0.11915 0.0
O1201 O 0.20224 0.79814 0.11378 0.0
O1202 O 0.20235 0.82603 0.14098 0.0
O1203 O 0.20783 0.80959 0.14417 0.0
O1204 O 0.69201 0.47773 0.86284 0.0
Cd1205 Cd 0.70418 0.46808 0.86826 0.0
Cd1206 Cd 0.68668 0.45899 0.87836 0.0
O1207 O 0.67853 0.47215 0.87263 0.0
O1208 O 0.71686 0.47503 0.86175 0.0
O1209 O 0.71468 0.47392 0.87914 0.0
C1210 C 0.72031 0.47713 0.87116 0.0
C1211 C 0.68506 0.45312 0.89595 0.0
C1212 C 0.68232 0.47848 0.86568 0.0
C1213 C 0.69807 0.44585 0.86183 0.0
O1214 O 0.68981 0.44696 0.86758 0.0
O1215 O 0.70517 0.45306 0.86163 0.0
O1216 O 0.67734 0.45223 0.88924 0.0
O1217 O 0.69364 0.4579 0.89281 0.0
O1218 O 0.02618 0.94129 0.61412 0.0
Cd1219 Cd 0.03575 0.95333 0.62 0.0
Cd1220 Cd 0.04451 0.93569 0.62974 0.0
O1221 O 0.03133 0.92765 0.62392 0.0
O1222 O 0.02894 0.96612 0.61353 0.0
O1223 O 0.02964 0.96366 0.6309 0.0
C1224 C 0.02659 0.96941 0.62294 0.0
C1225 C 0.05014 0.93473 0.64743 0.0
C1226 C 0.02523 0.93158 0.61685 0.0
C1227 C 0.05801 0.94718 0.61372 0.0
O1228 O 0.05663 0.93867 0.61903 0.0
O1229 O 0.05097 0.95445 0.61381 0.0
O1230 O 0.05112 0.92675 0.64104 0.0
O1231 O 0.04536 0.94315 0.64393 0.0
O1232 O 0.88614 0.06521 0.47879 0.0
Cd1233 Cd 0.88294 0.05203 0.46938 0.0
Cd1234 Cd 0.8719 0.06808 0.45799 0.0
O1235 O 0.87739 0.07777 0.47008 0.0
O1236 O 0.89009 0.04044 0.47753 0.0
O1237 O 0.87272 0.04075 0.47495 0.0
C1238 C 0.88093 0.03612 0.47906 0.0
C1239 C 0.85428 0.06883 0.45204 0.0
C1240 C 0.88328 0.07487 0.47778 0.0
C1241 C 0.8895 0.05666 0.44651 0.0
O1242 O 0.88271 0.06416 0.44637 0.0
O1243 O 0.8905 0.05078 0.4547 0.0
O1244 O 0.86087 0.07652 0.45034 0.0
O1245 O 0.85755 0.06082 0.45761 0.0
O1246 O 0.38873 0.19139 0.27579 0.0
Cd1247 Cd 0.38282 0.20364 0.28508 0.0
Cd1248 Cd 0.37274 0.18612 0.29393 0.0
O1249 O 0.37859 0.17796 0.28083 0.0
O1250 O 0.38947 0.21629 0.27816 0.0
O1251 O 0.37208 0.21392 0.27863 0.0
C1252 C 0.38011 0.21958 0.27561 0.0
C1253 C 0.35509 0.185 0.2997 0.0
C1254 C 0.38584 0.18172 0.27485 0.0
C1255 C 0.38875 0.19765 0.30746 0.0
O1256 O 0.38341 0.18916 0.30605 0.0
O1257 O 0.38878 0.20489 0.30039 0.0
O1258 O 0.36157 0.17709 0.30064 0.0
O1259 O 0.35847 0.19344 0.29484 0.0
O1260 O 0.31118 0.63951 0.02629 0.0
Cd1261 Cd 0.29885 0.63335 0.03528 0.0
Cd1262 Cd 0.31635 0.62328 0.04413 0.0
O1263 O 0.32464 0.62935 0.03121 0.0
O1264 O 0.28635 0.64006 0.02817 0.0
O1265 O 0.28873 0.62268 0.02845 0.0
C1266 C 0.28315 0.63075 0.02537 0.0
C1267 C 0.31754 0.60554 0.0496 0.0
C1268 C 0.32087 0.63671 0.02536 0.0
C1269 C 0.30454 0.63905 0.05775 0.0
O1270 O 0.31308 0.63379 0.05635 0.0
O1271 O 0.29734 0.63909 0.05063 0.0
O1272 O 0.32539 0.61206 0.05077 0.0
O1273 O 0.30913 0.60894 0.04472 0.0
O1274 O 0.86732 0.56504 0.77386 0.0
Cd1275 Cd 0.87066 0.55191 0.7833 0.0
Cd1276 Cd 0.88146 0.56806 0.79474 0.0
O1277 O 0.8759 0.57769 0.78263 0.0
O1278 O 0.86363 0.54021 0.77521 0.0
O1279 O 0.88099 0.54069 0.77784 0.0
C1280 C 0.87283 0.53594 0.77376 0.0
C1281 C 0.89906 0.569 0.80075 0.0
C1282 C 0.87006 0.57474 0.7749 0.0
C1283 C 0.86394 0.5565 0.80615 0.0
O1284 O 0.87065 0.56406 0.80632 0.0
O1285 O 0.86305 0.55061 0.79795 0.0
O1286 O 0.89238 0.57662 0.8024 0.0
O1287 O 0.89588 0.56094 0.79518 0.0
O1288 O 0.44121 0.11324 0.02556 0.0
Cd1289 Cd 0.4535 0.11922 0.03475 0.0
Cd1290 Cd 0.43606 0.1294 0.04364 0.0
O1291 O 0.42785 0.12347 0.03062 0.0
O1292 O 0.46613 0.11254 0.02783 0.0
O1293 O 0.46376 0.12994 0.02821 0.0
C1294 C 0.46943 0.12188 0.02523 0.0
C1295 C 0.43479 0.14708 0.04926 0.0
C1296 C 0.43155 0.11615 0.02466 0.0
C1297 C 0.44765 0.11344 0.0572 0.0
O1298 O 0.43917 0.1188 0.05583 0.0
O1299 O 0.45484 0.11336 0.05007 0.0
O1300 O 0.42694 0.14053 0.05029 0.0
O1301 O 0.44326 0.14374 0.04444 0.0
O1302 O 0.86377 0.69083 0.47622 0.0
Cd1303 Cd 0.86979 0.70284 0.46671 0.0
Cd1304 Cd 0.87978 0.68511 0.45821 0.0
O1305 O 0.87379 0.67722 0.47141 0.0
O1306 O 0.86314 0.71564 0.47331 0.0
O1307 O 0.88053 0.71322 0.47303 0.0
C1308 C 0.87248 0.71896 0.47587 0.0
C1309 C 0.8975 0.68388 0.45272 0.0
C1310 C 0.86656 0.68115 0.47733 0.0
C1311 C 0.86394 0.6965 0.44439 0.0
O1312 O 0.86923 0.68801 0.44593 0.0
O1313 O 0.86392 0.70384 0.45136 0.0
O1314 O 0.89103 0.67595 0.45183 0.0
O1315 O 0.89405 0.69242 0.45735 0.0
O1316 O 0.31097 0.61315 0.226 0.0
Cd1317 Cd 0.29865 0.61929 0.21697 0.0
Cd1318 Cd 0.31619 0.6295 0.20823 0.0
O1319 O 0.32437 0.62345 0.22122 0.0
O1320 O 0.28617 0.61234 0.2239 0.0
O1321 O 0.28837 0.62975 0.22388 0.0
C1322 C 0.28286 0.62158 0.22681 0.0
C1323 C 0.31748 0.64723 0.20278 0.0
C1324 C 0.32062 0.61604 0.22702 0.0
C1325 C 0.30452 0.61372 0.1945 0.0
O1326 O 0.31305 0.61898 0.19598 0.0
O1327 O 0.29727 0.61366 0.20156 0.0
O1328 O 0.32533 0.64069 0.20171 0.0
O1329 O 0.309 0.64385 0.20753 0.0
O1330 O 0.94172 0.13884 0.72696 0.0
Cd1331 Cd 0.95401 0.13309 0.71763 0.0
Cd1332 Cd 0.93676 0.12275 0.7088 0.0
O1333 O 0.9285 0.12842 0.72191 0.0
O1334 O 0.96667 0.1396 0.72463 0.0
O1335 O 0.96428 0.12222 0.72387 0.0
C1336 C 0.96996 0.1302 0.72702 0.0
C1337 C 0.93591 0.10508 0.70305 0.0
C1338 C 0.93211 0.13576 0.7279 0.0
C1339 C 0.94796 0.13902 0.6953 0.0
O1340 O 0.9396 0.13349 0.69667 0.0
O1341 O 0.95519 0.13919 0.70238 0.0
O1342 O 0.92789 0.11144 0.7021 0.0
O1343 O 0.9443 0.10859 0.70788 0.0
O1344 O 0.52591 0.11336 0.94128 0.0
Cd1345 Cd 0.53522 0.11941 0.95343 0.0
Cd1346 Cd 0.54389 0.12944 0.93594 0.0
O1347 O 0.53079 0.12354 0.92783 0.0
O1348 O 0.52832 0.1129 0.96615 0.0
O1349 O 0.52877 0.13026 0.96359 0.0
C1350 C 0.52574 0.12229 0.96933 0.0
C1351 C 0.54942 0.14716 0.93491 0.0
C1352 C 0.52488 0.11624 0.93162 0.0
C1353 C 0.55756 0.1135 0.94737 0.0
O1354 O 0.55609 0.11882 0.93888 0.0
O1355 O 0.55054 0.11349 0.95467 0.0
O1356 O 0.5504 0.14075 0.92694 0.0
O1357 O 0.54469 0.14365 0.94337 0.0
O1358 O 0.38824 0.27556 0.19123 0.0
Cd1359 Cd 0.38219 0.28492 0.20335 0.0
Cd1360 Cd 0.37198 0.29341 0.18577 0.0
O1361 O 0.37798 0.28028 0.17778 0.0
O1362 O 0.38878 0.27814 0.2161 0.0
O1363 O 0.37141 0.27847 0.21359 0.0
C1364 C 0.37941 0.27552 0.21933 0.0
C1365 C 0.35426 0.29892 0.18449 0.0
C1366 C 0.38533 0.27444 0.18159 0.0
C1367 C 0.38784 0.30728 0.19712 0.0
O1368 O 0.38249 0.30572 0.18867 0.0
O1369 O 0.38797 0.30029 0.20445 0.0
O1370 O 0.36076 0.29982 0.17658 0.0
O1371 O 0.35767 0.29428 0.19302 0.0
O1372 O 0.22758 0.13885 0.4421 0.0
Cd1373 Cd 0.21789 0.13341 0.45422 0.0
Cd1374 Cd 0.20896 0.12337 0.43657 0.0
O1375 O 0.22223 0.12905 0.42854 0.0
O1376 O 0.22481 0.14001 0.46688 0.0
O1377 O 0.22385 0.12261 0.46475 0.0
C1378 C 0.22704 0.13063 0.47034 0.0
C1379 C 0.20297 0.1058 0.43515 0.0
C1380 C 0.22847 0.13603 0.43242 0.0
C1381 C 0.19576 0.13992 0.44787 0.0
O1382 O 0.197 0.13425 0.43957 0.0
O1383 O 0.20284 0.14001 0.45511 0.0
O1384 O 0.20217 0.1124 0.42732 0.0
O1385 O 0.20774 0.10901 0.44369 0.0
O1386 O 0.36374 0.97682 0.6912 0.0
Cd1387 Cd 0.36965 0.9675 0.70342 0.0
Cd1388 Cd 0.37995 0.95884 0.68606 0.0
O1389 O 0.3741 0.97193 0.67789 0.0
O1390 O 0.3631 0.97442 0.71611 0.0
O1391 O 0.38048 0.97387 0.71365 0.0
C1392 C 0.37248 0.97693 0.71935 0.0
C1393 C 0.39767 0.95329 0.68507 0.0
C1394 C 0.36674 0.97783 0.68158 0.0
C1395 C 0.36386 0.94515 0.69731 0.0
O1396 O 0.36933 0.94661 0.68892 0.0
O1397 O 0.36369 0.95219 0.70458 0.0
O1398 O 0.39127 0.9523 0.6771 0.0
O1399 O 0.39416 0.95803 0.69351 0.0
O1400 O 0.52475 0.13875 0.31036 0.0
Cd1401 Cd 0.53438 0.13354 0.2981 0.0
Cd1402 Cd 0.54365 0.12349 0.31556 0.0
O1403 O 0.53047 0.12902 0.32382 0.0
O1404 O 0.52714 0.14 0.28554 0.0
O1405 O 0.52853 0.12262 0.28763 0.0
C1406 C 0.52507 0.13057 0.2821 0.0
C1407 C 0.54976 0.10594 0.31685 0.0
C1408 C 0.52405 0.13589 0.32005 0.0
C1409 C 0.55653 0.14025 0.30416 0.0
O1410 O 0.55549 0.13446 0.3124 0.0
O1411 O 0.54931 0.14038 0.29705 0.0
O1412 O 0.55067 0.11255 0.32467 0.0
O1413 O 0.54481 0.10914 0.3084 0.0
O1414 O 0.36405 0.27542 0.56131 0.0
Cd1415 Cd 0.37018 0.28481 0.54926 0.0
Cd1416 Cd 0.38021 0.29327 0.56673 0.0
O1417 O 0.37425 0.28017 0.57479 0.0
O1418 O 0.36384 0.27801 0.5364 0.0
O1419 O 0.38117 0.27848 0.53918 0.0
C1420 C 0.37328 0.27549 0.53331 0.0
C1421 C 0.39796 0.29873 0.56759 0.0
C1422 C 0.36691 0.27432 0.57096 0.0
C1423 C 0.36432 0.30711 0.55545 0.0
O1424 O 0.36966 0.30556 0.56391 0.0
O1425 O 0.36426 0.30013 0.54811 0.0
O1426 O 0.39164 0.29971 0.57563 0.0
O1427 O 0.39436 0.29401 0.55917 0.0
O1428 O 0.22673 0.11343 0.8117 0.0
Cd1429 Cd 0.21747 0.11935 0.79944 0.0
Cd1430 Cd 0.20879 0.12974 0.81683 0.0
O1431 O 0.22185 0.12383 0.825 0.0
O1432 O 0.22431 0.11265 0.78678 0.0
O1433 O 0.22393 0.13004 0.78912 0.0
C1434 C 0.2269 0.12198 0.78346 0.0
C1435 C 0.20323 0.14746 0.81802 0.0
C1436 C 0.22773 0.11644 0.82132 0.0
C1437 C 0.19506 0.11371 0.80554 0.0
O1438 O 0.19653 0.11918 0.81393 0.0
O1439 O 0.20212 0.11349 0.79829 0.0
O1440 O 0.20225 0.14097 0.82592 0.0
O1441 O 0.20798 0.14404 0.80954 0.0
O1442 O 0.38885 0.97679 0.06092 0.0
Cd1443 Cd 0.38286 0.96734 0.04885 0.0
Cd1444 Cd 0.37289 0.95875 0.06645 0.0
O1445 O 0.3788 0.9719 0.07447 0.0
O1446 O 0.38933 0.97415 0.03606 0.0
O1447 O 0.37197 0.97363 0.03862 0.0
C1448 C 0.37993 0.97664 0.03284 0.0
C1449 C 0.35518 0.95317 0.06754 0.0
C1450 C 0.38603 0.97785 0.07059 0.0
C1451 C 0.38885 0.94505 0.05507 0.0
O1452 O 0.38352 0.94655 0.06355 0.0
O1453 O 0.38885 0.95204 0.04774 0.0
O1454 O 0.36162 0.95222 0.0755 0.0
O1455 O 0.35865 0.9579 0.05907 0.0
O1456 O 0.94069 0.0562 0.61871 0.0
Cd1457 Cd 0.93775 0.0442 0.62957 0.0
Cd1458 Cd 0.95528 0.03529 0.61953 0.0
O1459 O 0.95618 0.05032 0.61288 0.0
O1460 O 0.92856 0.0509 0.64063 0.0
O1461 O 0.94495 0.04531 0.64389 0.0
C1462 C 0.93642 0.05004 0.64719 0.0
C1463 C 0.97139 0.02617 0.62241 0.0
C1464 C 0.94895 0.05741 0.61299 0.0
C1465 C 0.93351 0.02473 0.61691 0.0
O1466 O 0.9432 0.02559 0.61407 0.0
O1467 O 0.92966 0.03098 0.62389 0.0
O1468 O 0.96798 0.02838 0.613 0.0
O1469 O 0.96576 0.02937 0.63039 0.0
O1470 O 0.47602 0.69169 0.86384 0.0
Cd1471 Cd 0.4669 0.70407 0.86969 0.0
Cd1472 Cd 0.45803 0.68661 0.87992 0.0
O1473 O 0.47108 0.67832 0.87411 0.0
O1474 O 0.47405 0.71647 0.86281 0.0
O1475 O 0.4736 0.7144 0.88023 0.0
C1476 C 0.47677 0.71983 0.8721 0.0
C1477 C 0.45224 0.68559 0.89757 0.0
C1478 C 0.47699 0.68204 0.86677 0.0
C1479 C 0.44455 0.69815 0.8638 0.0
O1480 O 0.44595 0.6897 0.8692 0.0
O1481 O 0.45161 0.70541 0.86374 0.0
O1482 O 0.45123 0.67766 0.89111 0.0
O1483 O 0.45716 0.69398 0.89417 0.0
O1484 O 0.81352 0.19625 0.11802 0.0
Cd1485 Cd 0.81688 0.20815 0.12889 0.0
Cd1486 Cd 0.79953 0.21758 0.11899 0.0
O1487 O 0.79813 0.20258 0.1124 0.0
O1488 O 0.82589 0.20113 0.1399 0.0
O1489 O 0.8097 0.20724 0.14323 0.0
C1490 C 0.81809 0.20222 0.14649 0.0
C1491 C 0.78363 0.22706 0.12182 0.0
C1492 C 0.80514 0.19528 0.11242 0.0
C1493 C 0.82159 0.22752 0.11625 0.0
O1494 O 0.81188 0.22692 0.11345 0.0
O1495 O 0.8253 0.22118 0.12323 0.0
O1496 O 0.78705 0.22482 0.11243 0.0
O1497 O 0.78916 0.22373 0.12982 0.0
O1498 O 0.27405 0.56471 0.36613 0.0
Cd1499 Cd 0.28345 0.55154 0.36942 0.0
Cd1500 Cd 0.29486 0.56764 0.38054 0.0
O1501 O 0.28275 0.57726 0.37493 0.0
O1502 O 0.27538 0.5399 0.36224 0.0
O1503 O 0.27787 0.54025 0.37962 0.0
C1504 C 0.27384 0.53557 0.3714 0.0
C1505 C 0.30089 0.56882 0.39813 0.0
C1506 C 0.27508 0.57438 0.36899 0.0
C1507 C 0.30634 0.55621 0.36292 0.0
O1508 O 0.30648 0.56367 0.36975 0.0
O1509 O 0.29814 0.55035 0.36188 0.0
O1510 O 0.30249 0.57637 0.39136 0.0
O1511 O 0.29539 0.56068 0.39505 0.0
O1512 O 0.93973 0.19711 0.63428 0.0
Cd1513 Cd 0.93657 0.20932 0.62372 0.0
Cd1514 Cd 0.95394 0.21816 0.63395 0.0
O1515 O 0.95543 0.20282 0.63971 0.0
O1516 O 0.92728 0.2027 0.61272 0.0
O1517 O 0.94357 0.20848 0.60928 0.0
C1518 C 0.93503 0.20371 0.60606 0.0
C1519 C 0.96966 0.22799 0.63122 0.0
C1520 C 0.94823 0.1957 0.63961 0.0
C1521 C 0.93197 0.22813 0.6371 0.0
O1522 O 0.94161 0.22718 0.64007 0.0
O1523 O 0.92832 0.22229 0.62968 0.0
O1524 O 0.96649 0.22525 0.64057 0.0
O1525 O 0.96402 0.22489 0.6232 0.0
O1526 O 0.27389 0.68784 0.88645 0.0
Cd1527 Cd 0.28328 0.70105 0.88331 0.0
Cd1528 Cd 0.29483 0.68495 0.87231 0.0
O1529 O 0.28272 0.67527 0.87781 0.0
O1530 O 0.27511 0.71262 0.89047 0.0
O1531 O 0.27776 0.71237 0.87311 0.0
C1532 C 0.27363 0.71699 0.88132 0.0
C1533 C 0.30092 0.68399 0.85473 0.0
C1534 C 0.27496 0.67816 0.88364 0.0
C1535 C 0.30615 0.69645 0.88999 0.0
O1536 O 0.30636 0.68898 0.88317 0.0
O1537 O 0.29792 0.70228 0.89097 0.0
O1538 O 0.30259 0.6764 0.86144 0.0
O1539 O 0.29531 0.69203 0.85786 0.0
O1540 O 0.81353 0.05528 0.13335 0.0
Cd1541 Cd 0.81632 0.04289 0.12291 0.0
Cd1542 Cd 0.79904 0.03444 0.13337 0.0
O1543 O 0.79789 0.04981 0.13915 0.0
O1544 O 0.82555 0.04919 0.11168 0.0
O1545 O 0.80911 0.04366 0.10857 0.0
C1546 C 0.81768 0.04824 0.10516 0.0
C1547 C 0.78312 0.02506 0.13034 0.0
C1548 C 0.80517 0.05684 0.13884 0.0
C1549 C 0.8208 0.02409 0.1364 0.0
O1550 O 0.8112 0.02517 0.13946 0.0
O1551 O 0.82444 0.02986 0.12892 0.0
O1552 O 0.78623 0.0276 0.13977 0.0
O1553 O 0.78896 0.02806 0.12242 0.0
O1554 O 0.47605 0.56108 0.38846 0.0
Cd1555 Cd 0.46678 0.54884 0.38254 0.0
Cd1556 Cd 0.45802 0.56628 0.37235 0.0
O1557 O 0.47112 0.57444 0.37817 0.0
O1558 O 0.47365 0.53623 0.38929 0.0
O1559 O 0.47329 0.5385 0.37188 0.0
C1560 C 0.47627 0.53289 0.37997 0.0
C1561 C 0.45233 0.56733 0.35468 0.0
C1562 C 0.47704 0.57072 0.3855 0.0
C1563 C 0.44445 0.55492 0.38845 0.0
O1564 O 0.44588 0.56336 0.38304 0.0
O1565 O 0.45149 0.54764 0.3885 0.0
O1566 O 0.45137 0.57528 0.36112 0.0
O1567 O 0.45713 0.55889 0.35812 0.0
O1568 O 0.6136 0.44166 0.52608 0.0
Cd1569 Cd 0.61948 0.454 0.53525 0.0
Cd1570 Cd 0.62951 0.43662 0.54437 0.0
O1571 O 0.62373 0.42831 0.53134 0.0
O1572 O 0.61298 0.46658 0.52808 0.0
O1573 O 0.63036 0.46417 0.52883 0.0
C1574 C 0.62239 0.46982 0.52562 0.0
C1575 C 0.64711 0.43533 0.55028 0.0
C1576 C 0.61649 0.43199 0.52528 0.0
C1577 C 0.61332 0.44829 0.5576 0.0
O1578 O 0.61874 0.43983 0.55637 0.0
O1579 O 0.61333 0.45545 0.55045 0.0
O1580 O 0.64052 0.42752 0.55127 0.0
O1581 O 0.64387 0.44377 0.54533 0.0
O1582 O 0.11385 0.31064 0.7274 0.0
Cd1583 Cd 0.11934 0.29823 0.71812 0.0
Cd1584 Cd 0.12954 0.31549 0.70876 0.0
O1585 O 0.12391 0.32391 0.7218 0.0
O1586 O 0.11269 0.28576 0.72534 0.0
O1587 O 0.1301 0.28783 0.72436 0.0
C1588 C 0.12206 0.28233 0.72765 0.0
C1589 C 0.14712 0.31681 0.70277 0.0
C1590 C 0.1168 0.3203 0.72806 0.0
C1591 C 0.11295 0.30397 0.69581 0.0
O1592 O 0.11866 0.31227 0.69685 0.0
O1593 O 0.11282 0.29692 0.70307 0.0
O1594 O 0.1405 0.3246 0.70179 0.0
O1595 O 0.14391 0.30836 0.70771 0.0
O1596 O 0.18967 0.86943 0.94624 0.0
Cd1597 Cd 0.18669 0.88008 0.95842 0.0
Cd1598 Cd 0.20391 0.86947 0.96735 0.0
O1599 O 0.20517 0.86355 0.95204 0.0
O1600 O 0.17769 0.89129 0.95171 0.0
O1601 O 0.19401 0.89437 0.95759 0.0
C1602 C 0.18558 0.89777 0.95274 0.0
C1603 C 0.21979 0.87192 0.977 0.0
C1604 C 0.19801 0.86384 0.94489 0.0
C1605 C 0.18186 0.86687 0.97736 0.0
O1606 O 0.19146 0.86375 0.97647 0.0
O1607 O 0.17833 0.87429 0.97142 0.0
O1608 O 0.21638 0.86262 0.9744 0.0
O1609 O 0.21429 0.88005 0.97392 0.0
O1610 O 0.63897 0.94248 0.22604 0.0
Cd1611 Cd 0.63282 0.95454 0.21668 0.0
Cd1612 Cd 0.62277 0.93694 0.20819 0.0
O1613 O 0.62878 0.92897 0.22132 0.0
O1614 O 0.63938 0.96734 0.2234 0.0
O1615 O 0.62202 0.96474 0.22317 0.0
C1616 C 0.63002 0.97052 0.22606 0.0
C1617 C 0.60504 0.93562 0.20273 0.0
C1618 C 0.63611 0.93282 0.22715 0.0
C1619 C 0.63861 0.94832 0.19435 0.0
O1620 O 0.63332 0.93983 0.19591 0.0
O1621 O 0.63863 0.95567 0.20132 0.0
O1622 O 0.61155 0.92772 0.2018 0.0
O1623 O 0.60845 0.94417 0.20735 0.0
O1624 O 0.06359 0.3831 0.94643 0.0
Cd1625 Cd 0.0664 0.37248 0.95866 0.0
Cd1626 Cd 0.04889 0.38262 0.96719 0.0
O1627 O 0.04782 0.38858 0.95188 0.0
O1628 O 0.07539 0.36114 0.95217 0.0
O1629 O 0.05893 0.35829 0.95781 0.0
C1630 C 0.06739 0.35477 0.9531 0.0
C1631 C 0.0329 0.37976 0.97653 0.0
C1632 C 0.05516 0.38849 0.9449 0.0
C1633 C 0.07064 0.38563 0.97773 0.0
O1634 O 0.061 0.38855 0.97664 0.0
O1635 O 0.07445 0.37834 0.97182 0.0
O1636 O 0.03614 0.38915 0.97401 0.0
O1637 O 0.03864 0.37178 0.97351 0.0
O1638 O 0.63833 0.81118 0.52486 0.0
Cd1639 Cd 0.63318 0.79877 0.53432 0.0
Cd1640 Cd 0.62329 0.81633 0.54385 0.0
O1641 O 0.62879 0.82472 0.53073 0.0
O1642 O 0.64004 0.78652 0.52692 0.0
O1643 O 0.62261 0.78813 0.52814 0.0
C1644 C 0.63074 0.7829 0.52464 0.0
C1645 C 0.60576 0.81757 0.55002 0.0
C1646 C 0.63558 0.82091 0.52424 0.0
C1647 C 0.64001 0.80462 0.55651 0.0
O1648 O 0.63432 0.81294 0.55557 0.0
O1649 O 0.64 0.79755 0.54926 0.0
O1650 O 0.61239 0.82536 0.55103 0.0
O1651 O 0.60893 0.80918 0.54495 0.0
O1652 O 0.1893 0.88368 0.80618 0.0
Cd1653 Cd 0.18611 0.87301 0.79408 0.0
Cd1654 Cd 0.20381 0.88287 0.78524 0.0
O1655 O 0.20509 0.88888 0.80051 0.0
O1656 O 0.17682 0.86202 0.80075 0.0
O1657 O 0.19314 0.8586 0.79504 0.0
C1658 C 0.18461 0.85538 0.79983 0.0
C1659 C 0.21974 0.87998 0.77578 0.0
C1660 C 0.19783 0.88895 0.80757 0.0
C1661 C 0.18196 0.88615 0.77494 0.0
O1662 O 0.19167 0.8889 0.7759 0.0
O1663 O 0.17808 0.87897 0.78094 0.0
O1664 O 0.21653 0.88937 0.77831 0.0
O1665 O 0.21401 0.872 0.77884 0.0
O1666 O 0.56206 0.3683 0.3056 0.0
Cd1667 Cd 0.56626 0.37947 0.29441 0.0
Cd1668 Cd 0.55062 0.36858 0.28228 0.0
O1669 O 0.54939 0.36019 0.29649 0.0
O1670 O 0.5748 0.39006 0.30258 0.0
O1671 O 0.55932 0.39399 0.29516 0.0
C1672 C 0.56733 0.39691 0.30094 0.0
C1673 C 0.53468 0.37101 0.27275 0.0
C1674 C 0.55491 0.36117 0.30494 0.0
C1675 C 0.57354 0.36882 0.27428 0.0
O1676 O 0.56392 0.36601 0.27287 0.0
O1677 O 0.57621 0.37433 0.28235 0.0
O1678 O 0.5391 0.36182 0.27372 0.0
O1679 O 0.53927 0.37901 0.2773 0.0
O1680 O 0.47656 0.88867 0.06164 0.0
Cd1681 Cd 0.46706 0.88264 0.04962 0.0
Cd1682 Cd 0.45855 0.87272 0.0673 0.0
O1683 O 0.47173 0.87868 0.07525 0.0
O1684 O 0.4738 0.88918 0.03683 0.0
O1685 O 0.4734 0.87181 0.03936 0.0
C1686 C 0.47635 0.8798 0.0336 0.0
C1687 C 0.45305 0.85499 0.06843 0.0
C1688 C 0.47765 0.88589 0.07132 0.0
C1689 C 0.44478 0.8886 0.0559 0.0
O1690 O 0.44631 0.8833 0.06439 0.0
O1691 O 0.45175 0.88859 0.04855 0.0
O1692 O 0.4521 0.86143 0.07638 0.0
O1693 O 0.45775 0.85847 0.05994 0.0
O1694 O 0.61663 0.72928 0.81559 0.0
Cd1695 Cd 0.61975 0.71984 0.80241 0.0
Cd1696 Cd 0.63049 0.70819 0.81848 0.0
O1697 O 0.62513 0.72035 0.82818 0.0
O1698 O 0.61273 0.72808 0.79081 0.0
O1699 O 0.63006 0.72522 0.79113 0.0
C1700 C 0.62191 0.72943 0.78647 0.0
C1701 C 0.64802 0.70198 0.81928 0.0
C1702 C 0.6194 0.72817 0.82528 0.0
C1703 C 0.61272 0.69707 0.80697 0.0
O1704 O 0.61949 0.69677 0.81448 0.0
O1705 O 0.6119 0.70531 0.80112 0.0
O1706 O 0.64137 0.70035 0.82693 0.0
O1707 O 0.64486 0.70762 0.81127 0.0
O1708 O 0.77418 0.86639 0.56549 0.0
Cd1709 Cd 0.78359 0.86954 0.55229 0.0
Cd1710 Cd 0.79517 0.88045 0.56848 0.0
O1711 O 0.78304 0.87492 0.57811 0.0
O1712 O 0.77538 0.86237 0.54076 0.0
O1713 O 0.77805 0.87972 0.54097 0.0
C1714 C 0.77389 0.87151 0.53639 0.0
C1715 C 0.80126 0.89801 0.56963 0.0
C1716 C 0.77526 0.86915 0.57518 0.0
C1717 C 0.80647 0.86286 0.55682 0.0
O1718 O 0.8067 0.86962 0.56435 0.0
O1719 O 0.79823 0.86191 0.551 0.0
O1720 O 0.80289 0.89123 0.57716 0.0
O1721 O 0.79569 0.89495 0.56152 0.0
O1722 O 0.63834 0.02584 0.31105 0.0
Cd1723 Cd 0.63248 0.03523 0.29885 0.0
Cd1724 Cd 0.62273 0.04429 0.3165 0.0
O1725 O 0.62852 0.03113 0.32462 0.0
O1726 O 0.63901 0.02823 0.28619 0.0
O1727 O 0.62163 0.02895 0.28856 0.0
C1728 C 0.62962 0.02583 0.28289 0.0
C1729 C 0.60514 0.05022 0.3178 0.0
C1730 C 0.63559 0.025 0.32076 0.0
C1731 C 0.6388 0.05754 0.30475 0.0
O1732 O 0.63352 0.05627 0.31329 0.0
O1733 O 0.63866 0.05043 0.29754 0.0
O1734 O 0.61172 0.05113 0.32565 0.0
O1735 O 0.60839 0.04534 0.30933 0.0
O1736 O 0.47647 0.86388 0.6909 0.0
Cd1737 Cd 0.46698 0.86969 0.70304 0.0
Cd1738 Cd 0.45849 0.88011 0.68557 0.0
O1739 O 0.47168 0.87426 0.67756 0.0
O1740 O 0.47358 0.86289 0.71576 0.0
O1741 O 0.47323 0.8803 0.71358 0.0
C1742 C 0.47607 0.8722 0.71923 0.0
C1743 C 0.45299 0.89785 0.68455 0.0
C1744 C 0.47757 0.86691 0.68129 0.0
C1745 C 0.44466 0.86401 0.69658 0.0
O1746 O 0.4462 0.86951 0.68822 0.0
O1747 O 0.45163 0.8638 0.70392 0.0
O1748 O 0.45212 0.89148 0.67653 0.0
O1749 O 0.45758 0.89429 0.69306 0.0
O1750 O 0.63629 0.72863 0.4372 0.0
Cd1751 Cd 0.63312 0.71926 0.45043 0.0
Cd1752 Cd 0.62224 0.70758 0.43438 0.0
O1753 O 0.62778 0.71963 0.42467 0.0
O1754 O 0.64031 0.72743 0.46197 0.0
O1755 O 0.62296 0.72477 0.46178 0.0
C1756 C 0.63118 0.72888 0.46638 0.0
C1757 C 0.60466 0.70153 0.43328 0.0
C1758 C 0.63355 0.72745 0.42752 0.0
C1759 C 0.6399 0.69638 0.44597 0.0
O1760 O 0.6331 0.69606 0.43849 0.0
O1761 O 0.64083 0.70467 0.45173 0.0
O1762 O 0.61142 0.69985 0.42575 0.0
O1763 O 0.60775 0.70711 0.44137 0.0
O1764 O 0.77605 0.88869 0.19105 0.0
Cd1765 Cd 0.78524 0.88277 0.20336 0.0
Cd1766 Cd 0.79419 0.87263 0.18594 0.0
O1767 O 0.78116 0.87849 0.17769 0.0
O1768 O 0.77831 0.88954 0.21593 0.0
O1769 O 0.77867 0.87213 0.21368 0.0
C1770 C 0.77569 0.88023 0.21928 0.0
C1771 C 0.79982 0.85493 0.18488 0.0
C1772 C 0.77517 0.88577 0.18139 0.0
C1773 C 0.80768 0.88862 0.19753 0.0
O1774 O 0.80634 0.88328 0.18904 0.0
O1775 O 0.80055 0.88867 0.20471 0.0
O1776 O 0.80088 0.8614 0.17697 0.0
O1777 O 0.79496 0.85837 0.19329 0.0
O1778 O 0.61363 0.02557 0.941 0.0
Cd1779 Cd 0.61962 0.03503 0.95306 0.0
Cd1780 Cd 0.6297 0.04355 0.93544 0.0
O1781 O 0.62374 0.03039 0.92746 0.0
O1782 O 0.61301 0.02835 0.96586 0.0
O1783 O 0.63039 0.02871 0.9634 0.0
C1784 C 0.62237 0.02581 0.96915 0.0
C1785 C 0.64742 0.04909 0.9343 0.0
C1786 C 0.61647 0.02448 0.93133 0.0
C1787 C 0.61378 0.05735 0.94675 0.0
O1788 O 0.61913 0.05582 0.93829 0.0
O1789 O 0.61371 0.05037 0.95409 0.0
O1790 O 0.64098 0.04999 0.92634 0.0
O1791 O 0.64394 0.04442 0.9428 0.0
O1792 O 0.06161 0.97655 0.38897 0.0
Cd1793 Cd 0.04949 0.9671 0.38306 0.0
Cd1794 Cd 0.06705 0.9583 0.3732 0.0
O1795 O 0.07517 0.97143 0.37905 0.0
O1796 O 0.03674 0.97399 0.38953 0.0
O1797 O 0.03921 0.97331 0.37217 0.0
C1798 C 0.03347 0.97638 0.38013 0.0
C1799 C 0.06804 0.95266 0.3555 0.0
C1800 C 0.07131 0.97748 0.3862 0.0
C1801 C 0.05553 0.9448 0.38921 0.0
O1802 O 0.06402 0.94616 0.38387 0.0
O1803 O 0.04828 0.95187 0.38917 0.0
O1804 O 0.076 0.95165 0.36191 0.0
O1805 O 0.05963 0.95748 0.35898 0.0
O1806 O 0.52416 0.31021 0.13968 0.0
Cd1807 Cd 0.53362 0.29791 0.13424 0.0
Cd1808 Cd 0.54286 0.31523 0.12402 0.0
O1809 O 0.52975 0.32351 0.12966 0.0
O1810 O 0.52649 0.28532 0.14074 0.0
O1811 O 0.52759 0.28752 0.12335 0.0
C1812 C 0.5243 0.28193 0.13132 0.0
C1813 C 0.54881 0.31686 0.10646 0.0
C1814 C 0.52346 0.31987 0.13672 0.0
C1815 C 0.55589 0.30381 0.14063 0.0
O1816 O 0.55482 0.31207 0.13487 0.0
O1817 O 0.54865 0.29674 0.14082 0.0
O1818 O 0.54972 0.32456 0.1132 0.0
O1819 O 0.54399 0.30831 0.10955 0.0
O1820 O 0.19133 0.77605 0.88889 0.0
Cd1821 Cd 0.2037 0.7851 0.8829 0.0
Cd1822 Cd 0.18607 0.79413 0.87293 0.0
O1823 O 0.1778 0.78114 0.8789 0.0
O1824 O 0.2161 0.77795 0.88976 0.0
O1825 O 0.21397 0.77831 0.87235 0.0
C1826 C 0.21943 0.77518 0.88048 0.0
C1827 C 0.18476 0.79988 0.85528 0.0
C1828 C 0.18162 0.77517 0.88614 0.0
C1829 C 0.19799 0.80754 0.88883 0.0
O1830 O 0.18944 0.8062 0.88358 0.0
O1831 O 0.20518 0.80041 0.88879 0.0
O1832 O 0.17696 0.80096 0.86188 0.0
O1833 O 0.19318 0.79491 0.85855 0.0
O1834 O 0.72724 0.44087 0.63902 0.0
Cd1835 Cd 0.7177 0.45318 0.63373 0.0
Cd1836 Cd 0.7084 0.43583 0.62361 0.0
O1837 O 0.72154 0.4275 0.62915 0.0
O1838 O 0.72488 0.46569 0.64032 0.0
O1839 O 0.72361 0.46372 0.62292 0.0
C1840 C 0.72697 0.46921 0.63093 0.0
C1841 C 0.70239 0.43462 0.60603 0.0
C1842 C 0.72791 0.43119 0.63611 0.0
C1843 C 0.69549 0.44722 0.64032 0.0
O1844 O 0.6965 0.43897 0.63453 0.0
O1845 O 0.70274 0.45429 0.64047 0.0
O1846 O 0.70145 0.42677 0.61259 0.0
O1847 O 0.7073 0.44306 0.60929 0.0
O1848 O 0.06025 0.77572 0.36361 0.0
Cd1849 Cd 0.04807 0.78511 0.36945 0.0
Cd1850 Cd 0.06579 0.79395 0.37945 0.0
O1851 O 0.07382 0.7808 0.37354 0.0
O1852 O 0.03545 0.77823 0.36271 0.0
O1853 O 0.03768 0.77866 0.38011 0.0
C1854 C 0.03209 0.77564 0.37202 0.0
C1855 C 0.06732 0.79968 0.39709 0.0
C1856 C 0.06994 0.77476 0.36639 0.0
C1857 C 0.0542 0.80743 0.36339 0.0
O1858 O 0.06267 0.80605 0.36876 0.0
O1859 O 0.04693 0.80038 0.3634 0.0
O1860 O 0.0751 0.8006 0.39044 0.0
O1861 O 0.05877 0.79493 0.39387 0.0
O1862 O 0.72771 0.31122 0.11259 0.0
Cd1863 Cd 0.71825 0.29898 0.11819 0.0
Cd1864 Cd 0.70909 0.31637 0.12822 0.0
O1865 O 0.72221 0.32461 0.12254 0.0
O1866 O 0.72529 0.28637 0.11165 0.0
O1867 O 0.72436 0.28861 0.12904 0.0
C1868 C 0.72755 0.28298 0.12105 0.0
C1869 C 0.70322 0.31791 0.1458 0.0
C1870 C 0.72845 0.3209 0.11548 0.0
C1871 C 0.69598 0.30486 0.11179 0.0
O1872 O 0.6971 0.31321 0.11741 0.0
O1873 O 0.70319 0.29776 0.11171 0.0
O1874 O 0.70228 0.32565 0.13912 0.0
O1875 O 0.70803 0.30937 0.14265 0.0
O1876 O 0.1917 0.97686 0.86357 0.0
Cd1877 Cd 0.20383 0.96749 0.86956 0.0
Cd1878 Cd 0.1863 0.9589 0.87973 0.0
O1879 O 0.17825 0.97202 0.87378 0.0
O1880 O 0.21659 0.97435 0.86306 0.0
O1881 O 0.21405 0.97384 0.88042 0.0
C1882 C 0.2198 0.97687 0.87245 0.0
C1883 C 0.18508 0.95331 0.89743 0.0
C1884 C 0.18204 0.97791 0.86647 0.0
C1885 C 0.19765 0.94516 0.86374 0.0
O1886 O 0.18922 0.94666 0.86915 0.0
O1887 O 0.20495 0.95218 0.86362 0.0
O1888 O 0.17716 0.9524 0.89095 0.0
O1889 O 0.19359 0.95801 0.89402 0.0
O1890 O 0.5249 0.44118 0.61281 0.0
Cd1891 Cd 0.53405 0.4535 0.61876 0.0
Cd1892 Cd 0.54288 0.43619 0.62914 0.0
O1893 O 0.52992 0.42791 0.62318 0.0
O1894 O 0.52699 0.46614 0.61227 0.0
O1895 O 0.52759 0.46362 0.62964 0.0
C1896 C 0.52448 0.46933 0.62168 0.0
C1897 C 0.54853 0.43475 0.64681 0.0
C1898 C 0.52401 0.43154 0.6158 0.0
C1899 C 0.55651 0.44769 0.61313 0.0
O1900 O 0.55513 0.4393 0.61862 0.0
O1901 O 0.54936 0.45485 0.61287 0.0
O1902 O 0.54954 0.42697 0.64018 0.0
O1903 O 0.5437 0.44324 0.64357 0.0
O1904 O 0.38965 0.56077 0.47747 0.0
Cd1905 Cd 0.3836 0.54865 0.46811 0.0
Cd1906 Cd 0.37356 0.56621 0.45946 0.0
O1907 O 0.37954 0.57426 0.47254 0.0
O1908 O 0.39011 0.53587 0.4749 0.0
O1909 O 0.37275 0.53846 0.4745 0.0
C1910 C 0.38072 0.53267 0.47745 0.0
C1911 C 0.35587 0.56758 0.4539 0.0
C1912 C 0.3868 0.57044 0.47848 0.0
C1913 C 0.38939 0.55472 0.44572 0.0
O1914 O 0.38409 0.56321 0.4472 0.0
O1915 O 0.38946 0.54744 0.45277 0.0
O1916 O 0.36243 0.57542 0.45294 0.0
O1917 O 0.3592 0.55906 0.45863 0.0
O1918 O 0.88885 0.69132 0.27538 0.0
Cd1919 Cd 0.88288 0.70339 0.28486 0.0
Cd1920 Cd 0.87298 0.68577 0.29355 0.0
O1921 O 0.87887 0.67775 0.2804 0.0
O1922 O 0.88929 0.71619 0.27801 0.0
O1923 O 0.87194 0.7136 0.27862 0.0
C1924 C 0.87988 0.71939 0.27557 0.0
C1925 C 0.85529 0.68453 0.29917 0.0
C1926 C 0.88605 0.68163 0.27439 0.0
C1927 C 0.88897 0.69723 0.30715 0.0
O1928 O 0.88363 0.68875 0.30572 0.0
O1929 O 0.88895 0.70453 0.30012 0.0
O1930 O 0.86179 0.67663 0.3001 0.0
O1931 O 0.85868 0.69304 0.29447 0.0
O1932 O 0.81489 0.1361 0.02384 0.0
Cd1933 Cd 0.80172 0.13272 0.03321 0.0
Cd1934 Cd 0.81756 0.12153 0.0445 0.0
O1935 O 0.82734 0.1272 0.03256 0.0
O1936 O 0.78996 0.13962 0.02509 0.0
O1937 O 0.79061 0.12227 0.02778 0.0
C1938 C 0.78579 0.13037 0.02366 0.0
C1939 C 0.81841 0.10384 0.05025 0.0
C1940 C 0.82454 0.13322 0.02492 0.0
C1941 C 0.80627 0.13911 0.05612 0.0
O1942 O 0.81366 0.1322 0.05624 0.0
O1943 O 0.80047 0.14027 0.04789 0.0
O1944 O 0.82605 0.11046 0.05203 0.0
O1945 O 0.81038 0.10713 0.04472 0.0
O1946 O 0.36358 0.06124 0.7757 0.0
Cd1947 Cd 0.36948 0.04896 0.78495 0.0
Cd1948 Cd 0.37968 0.06638 0.79382 0.0
O1949 O 0.37382 0.07459 0.78076 0.0
O1950 O 0.36278 0.03634 0.77804 0.0
O1951 O 0.38018 0.03865 0.77848 0.0
C1952 C 0.37212 0.03301 0.77548 0.0
C1953 C 0.39738 0.06748 0.79944 0.0
C1954 C 0.36652 0.07089 0.77479 0.0
C1955 C 0.36363 0.05491 0.80736 0.0
O1956 O 0.36903 0.06336 0.80599 0.0
O1957 O 0.36355 0.04769 0.80025 0.0
O1958 O 0.3909 0.07539 0.80047 0.0
O1959 O 0.39395 0.05905 0.79462 0.0
O1960 O 0.941 0.61407 0.02603 0.0
Cd1961 Cd 0.95332 0.61995 0.03523 0.0
Cd1962 Cd 0.93592 0.63 0.04428 0.0
O1963 O 0.92762 0.62418 0.03126 0.0
O1964 O 0.96591 0.61338 0.02814 0.0
O1965 O 0.96355 0.63076 0.0288 0.0
C1966 C 0.96919 0.62276 0.02567 0.0
C1967 C 0.93482 0.64767 0.05 0.0
C1968 C 0.93132 0.61695 0.02521 0.0
C1969 C 0.94757 0.61393 0.05763 0.0
O1970 O 0.93909 0.61931 0.05636 0.0
O1971 O 0.95472 0.6139 0.05047 0.0
O1972 O 0.92693 0.64117 0.05106 0.0
O1973 O 0.94322 0.64429 0.04508 0.0
O1974 O 0.36421 0.19123 0.47734 0.0
Cd1975 Cd 0.37018 0.20341 0.46801 0.0
Cd1976 Cd 0.38036 0.18595 0.45927 0.0
O1977 O 0.37447 0.17786 0.47238 0.0
O1978 O 0.36364 0.21616 0.47482 0.0
O1979 O 0.38102 0.21364 0.47438 0.0
C1980 C 0.37303 0.2194 0.47734 0.0
C1981 C 0.39804 0.18464 0.45362 0.0
C1982 C 0.36715 0.18158 0.47832 0.0
C1983 C 0.36433 0.19735 0.44564 0.0
O1984 O 0.36975 0.18891 0.44705 0.0
O1985 O 0.36422 0.20459 0.45271 0.0
O1986 O 0.3915 0.17676 0.45272 0.0
O1987 O 0.39469 0.19316 0.45833 0.0
O1988 O 0.81195 0.11351 0.22631 0.0
Cd1989 Cd 0.79971 0.11946 0.21702 0.0
Cd1990 Cd 0.81725 0.12938 0.20803 0.0
O1991 O 0.8254 0.12356 0.22115 0.0
O1992 O 0.78706 0.11289 0.22401 0.0
O1993 O 0.78947 0.13027 0.22342 0.0
C1994 C 0.78379 0.12227 0.2265 0.0
C1995 C 0.81858 0.147 0.20221 0.0
C1996 C 0.82163 0.11636 0.22719 0.0
C1997 C 0.80556 0.11335 0.19466 0.0
O1998 O 0.81409 0.11866 0.19597 0.0
O1999 O 0.79836 0.11342 0.20177 0.0
O2000 O 0.82642 0.14042 0.20128 0.0
O2001 O 0.8101 0.14373 0.20705 0.0
O2002 O 0.44153 0.63933 0.72593 0.0
Cd2003 Cd 0.45383 0.63326 0.71682 0.0
Cd2004 Cd 0.43632 0.62304 0.70796 0.0
O2005 O 0.42816 0.62906 0.72097 0.0
O2006 O 0.4664 0.64008 0.72371 0.0
O2007 O 0.46413 0.62268 0.72353 0.0
C2008 C 0.46973 0.6308 0.72644 0.0
C2009 C 0.43485 0.60534 0.70241 0.0
C2010 C 0.43187 0.63643 0.72686 0.0
C2011 C 0.44797 0.63892 0.69435 0.0
O2012 O 0.43948 0.63359 0.69574 0.0
O2013 O 0.45518 0.63901 0.70146 0.0
O2014 O 0.42707 0.61196 0.70139 0.0
O2015 O 0.44338 0.60862 0.70716 0.0
O2016 O 0.52525 0.61293 0.44138 0.0
Cd2017 Cd 0.53465 0.61899 0.45346 0.0
Cd2018 Cd 0.54311 0.62918 0.43597 0.0
O2019 O 0.53001 0.62319 0.42795 0.0
O2020 O 0.52785 0.61262 0.4663 0.0
O2021 O 0.52836 0.62997 0.46357 0.0
C2022 C 0.52536 0.62206 0.46942 0.0
C2023 C 0.54862 0.64688 0.43463 0.0
C2024 C 0.52416 0.61585 0.43174 0.0
C2025 C 0.55699 0.6133 0.44727 0.0
O2026 O 0.55543 0.61869 0.43884 0.0
O2027 O 0.54999 0.61312 0.45458 0.0
O2028 O 0.54954 0.64035 0.42676 0.0
O2029 O 0.54395 0.64351 0.44317 0.0
O2030 O 0.38843 0.77605 0.69083 0.0
Cd2031 Cd 0.38238 0.78552 0.70287 0.0
Cd2032 Cd 0.37259 0.79413 0.6852 0.0
O2033 O 0.37849 0.78096 0.67721 0.0
O2034 O 0.38887 0.77873 0.71566 0.0
O2035 O 0.37151 0.77919 0.7131 0.0
C2036 C 0.37948 0.77621 0.71888 0.0
C2037 C 0.35489 0.79974 0.68422 0.0
C2038 C 0.38567 0.775 0.68114 0.0
C2039 C 0.38848 0.80779 0.69667 0.0
O2040 O 0.38325 0.80629 0.68814 0.0
O2041 O 0.38837 0.80081 0.70401 0.0
O2042 O 0.36128 0.80069 0.67623 0.0
O2043 O 0.3584 0.79497 0.69266 0.0
O2044 O 0.22885 0.63618 0.93806 0.0
Cd2045 Cd 0.21938 0.63302 0.95122 0.0
Cd2046 Cd 0.20788 0.62204 0.935 0.0
O2047 O 0.22008 0.62754 0.92544 0.0
O2048 O 0.22746 0.64022 0.96283 0.0
O2049 O 0.22488 0.62285 0.96258 0.0
C2050 C 0.22895 0.63108 0.96721 0.0
C2051 C 0.20171 0.6045 0.93379 0.0
C2052 C 0.22782 0.63337 0.92838 0.0
C2053 C 0.19653 0.63971 0.94649 0.0
O2054 O 0.19635 0.63291 0.93901 0.0
O2055 O 0.20473 0.64066 0.95237 0.0
O2056 O 0.20017 0.61129 0.92625 0.0
O2057 O 0.20723 0.60752 0.94194 0.0
O2058 O 0.36349 0.47661 0.1909 0.0
Cd2059 Cd 0.36958 0.46719 0.20295 0.0
Cd2060 Cd 0.37943 0.45857 0.18537 0.0
O2061 O 0.37351 0.4717 0.17733 0.0
O2062 O 0.36313 0.47399 0.21575 0.0
O2063 O 0.38048 0.47354 0.21314 0.0
C2064 C 0.37253 0.47652 0.21893 0.0
C2065 C 0.39715 0.45304 0.18437 0.0
C2066 C 0.36628 0.47764 0.18121 0.0
C2067 C 0.3636 0.44487 0.19687 0.0
O2068 O 0.36884 0.44635 0.18834 0.0
O2069 O 0.36365 0.45188 0.20417 0.0
O2070 O 0.39075 0.45205 0.17639 0.0
O2071 O 0.39364 0.4578 0.19281 0.0
O2072 O 0.52494 0.63934 0.81159 0.0
Cd2073 Cd 0.53444 0.63405 0.79926 0.0
Cd2074 Cd 0.54364 0.62378 0.81655 0.0
O2075 O 0.53051 0.62933 0.82491 0.0
O2076 O 0.52723 0.64059 0.78673 0.0
O2077 O 0.52851 0.6232 0.78878 0.0
C2078 C 0.52512 0.63118 0.78326 0.0
C2079 C 0.54962 0.60618 0.81763 0.0
C2080 C 0.52422 0.63637 0.82125 0.0
C2081 C 0.55664 0.64053 0.8053 0.0
O2082 O 0.55556 0.6347 0.81351 0.0
O2083 O 0.54944 0.64075 0.79819 0.0
O2084 O 0.55059 0.61269 0.82552 0.0
O2085 O 0.54468 0.60951 0.80923 0.0
O2086 O 0.36392 0.77626 0.0621 0.0
Cd2087 Cd 0.37003 0.78575 0.05012 0.0
Cd2088 Cd 0.3799 0.79425 0.06783 0.0
O2089 O 0.37387 0.78108 0.07575 0.0
O2090 O 0.36353 0.77907 0.03729 0.0
O2091 O 0.38089 0.77944 0.03987 0.0
C2092 C 0.37291 0.77653 0.03407 0.0
C2093 C 0.39764 0.79968 0.06902 0.0
C2094 C 0.36666 0.77516 0.07179 0.0
C2095 C 0.36411 0.80806 0.05637 0.0
O2096 O 0.36937 0.80653 0.06489 0.0
O2097 O 0.36412 0.80108 0.04904 0.0
O2098 O 0.39119 0.80063 0.07696 0.0
O2099 O 0.39417 0.79504 0.06051 0.0
O2100 O 0.22868 0.61575 0.31444 0.0
Cd2101 Cd 0.21939 0.61897 0.30117 0.0
Cd2102 Cd 0.20764 0.62988 0.3171 0.0
O2103 O 0.21964 0.62433 0.32689 0.0
O2104 O 0.22772 0.61207 0.28956 0.0
O2105 O 0.22484 0.62939 0.29003 0.0
C2106 C 0.22909 0.62129 0.28532 0.0
C2107 C 0.2015 0.64743 0.31829 0.0
C2108 C 0.22745 0.61853 0.32411 0.0
C2109 C 0.19651 0.61219 0.30545 0.0
O2110 O 0.19616 0.61903 0.3129 0.0
O2111 O 0.20483 0.61122 0.29975 0.0
O2112 O 0.19982 0.6406 0.32577 0.0
O2113 O 0.20713 0.64442 0.31021 0.0
O2114 O 0.38823 0.47638 0.56172 0.0
Cd2115 Cd 0.38238 0.46709 0.54945 0.0
Cd2116 Cd 0.37237 0.45811 0.56694 0.0
O2117 O 0.37814 0.47122 0.57513 0.0
O2118 O 0.38901 0.47409 0.53685 0.0
O2119 O 0.37162 0.47352 0.53916 0.0
C2120 C 0.37966 0.47661 0.53354 0.0
C2121 C 0.35473 0.45234 0.56805 0.0
C2122 C 0.38534 0.47728 0.57138 0.0
C2123 C 0.38843 0.44472 0.55532 0.0
O2124 O 0.3831 0.44604 0.56383 0.0
O2125 O 0.3884 0.45183 0.54812 0.0
O2126 O 0.36122 0.45135 0.57595 0.0
O2127 O 0.3581 0.45722 0.55963 0.0
O2128 O 0.93942 0.55617 0.11922 0.0
Cd2129 Cd 0.93657 0.54388 0.12976 0.0
Cd2130 Cd 0.95407 0.53539 0.11956 0.0
O2131 O 0.95516 0.55072 0.11364 0.0
O2132 O 0.92753 0.55034 0.14108 0.0
O2133 O 0.94397 0.54466 0.144 0.0
C2134 C 0.9355 0.54937 0.1475 0.0
C2135 C 0.97004 0.52603 0.12246 0.0
C2136 C 0.94783 0.55771 0.1138 0.0
C2137 C 0.93232 0.52492 0.11645 0.0
O2138 O 0.94196 0.526 0.11355 0.0
O2139 O 0.92851 0.53078 0.12379 0.0
O2140 O 0.96685 0.52857 0.11306 0.0
O2141 O 0.96427 0.52903 0.13043 0.0
O2142 O 0.47596 0.19037 0.36341 0.0
Cd2143 Cd 0.46707 0.20282 0.36944 0.0
Cd2144 Cd 0.45825 0.18558 0.3799 0.0
O2145 O 0.47114 0.17717 0.37394 0.0
O2146 O 0.47419 0.21519 0.3625 0.0
O2147 O 0.47397 0.21308 0.37993 0.0
C2148 C 0.47704 0.21852 0.37176 0.0
C2149 C 0.45283 0.18459 0.39767 0.0
C2150 C 0.47692 0.18075 0.36643 0.0
C2151 C 0.44457 0.19712 0.36396 0.0
O2152 O 0.44599 0.18868 0.36938 0.0
O2153 O 0.45171 0.2043 0.36375 0.0
O2154 O 0.45164 0.17667 0.39123 0.0
O2155 O 0.45769 0.19296 0.39416 0.0
O2156 O 0.8136 0.69742 0.61869 0.0
Cd2157 Cd 0.81678 0.70969 0.62916 0.0
Cd2158 Cd 0.79921 0.71844 0.61901 0.0
O2159 O 0.79785 0.70305 0.61332 0.0
O2160 O 0.82604 0.70312 0.64023 0.0
O2161 O 0.80976 0.70899 0.64359 0.0
C2162 C 0.81827 0.7042 0.64686 0.0
C2163 C 0.78335 0.72813 0.62143 0.0
C2164 C 0.80508 0.69596 0.61341 0.0
C2165 C 0.82118 0.7285 0.61573 0.0
O2166 O 0.81149 0.72754 0.61291 0.0
O2167 O 0.82496 0.72264 0.62307 0.0
O2168 O 0.78668 0.72535 0.61216 0.0
O2169 O 0.78891 0.72519 0.62956 0.0
O2170 O 0.27604 0.06091 0.86383 0.0
Cd2171 Cd 0.28546 0.04878 0.86974 0.0
Cd2172 Cd 0.29405 0.06639 0.87991 0.0
O2173 O 0.28088 0.07439 0.874 0.0
O2174 O 0.27871 0.03607 0.86303 0.0
O2175 O 0.27906 0.0384 0.88043 0.0
C2176 C 0.27613 0.03274 0.87237 0.0
C2177 C 0.29967 0.06761 0.8976 0.0
C2178 C 0.27497 0.07056 0.86672 0.0
C2179 C 0.30777 0.05509 0.86389 0.0
O2180 O 0.30626 0.06352 0.86928 0.0
O2181 O 0.30079 0.04776 0.86381 0.0
O2182 O 0.30055 0.07554 0.89112 0.0
O2183 O 0.29499 0.05909 0.89419 0.0
O2184 O 0.93958 0.69656 0.13377 0.0
Cd2185 Cd 0.93637 0.70872 0.12317 0.0
Cd2186 Cd 0.95376 0.71771 0.1334 0.0
O2187 O 0.9552 0.70241 0.13931 0.0
O2188 O 0.92714 0.70202 0.11215 0.0
O2189 O 0.94342 0.70786 0.10874 0.0
C2190 C 0.93492 0.70303 0.10551 0.0
C2191 C 0.96956 0.72738 0.13055 0.0
C2192 C 0.94804 0.69524 0.13918 0.0
C2193 C 0.93176 0.72767 0.13644 0.0
O2194 O 0.94142 0.72681 0.13939 0.0
O2195 O 0.92811 0.72171 0.12911 0.0
O2196 O 0.96636 0.72481 0.13994 0.0
O2197 O 0.96388 0.72425 0.12257 0.0
O2198 O 0.2766 0.19115 0.38982 0.0
Cd2199 Cd 0.28551 0.20365 0.38391 0.0
Cd2200 Cd 0.29457 0.18639 0.37348 0.0
O2201 O 0.28164 0.17798 0.37935 0.0
O2202 O 0.27823 0.21603 0.39069 0.0
O2203 O 0.27873 0.21384 0.37328 0.0
C2204 C 0.27551 0.21931 0.38138 0.0
C2205 C 0.30029 0.18501 0.35581 0.0
C2206 C 0.27574 0.18153 0.38678 0.0
C2207 C 0.308 0.19805 0.38959 0.0
O2208 O 0.3067 0.18962 0.38413 0.0
O2209 O 0.30082 0.20519 0.38977 0.0
O2210 O 0.30136 0.17723 0.36244 0.0
O2211 O 0.29541 0.19347 0.35907 0.0
O2212 O 0.81252 0.55651 0.6347 0.0
Cd2213 Cd 0.81567 0.54455 0.62386 0.0
Cd2214 Cd 0.79825 0.53538 0.63398 0.0
O2215 O 0.79708 0.55044 0.64048 0.0
O2216 O 0.82487 0.55139 0.6129 0.0
O2217 O 0.80859 0.54559 0.60947 0.0
C2218 C 0.81709 0.55043 0.60626 0.0
C2219 C 0.78226 0.52598 0.63129 0.0
C2220 C 0.8042 0.55763 0.64037 0.0
C2221 C 0.82021 0.52521 0.63663 0.0
O2222 O 0.81053 0.52595 0.63951 0.0
O2223 O 0.82393 0.53144 0.62956 0.0
O2224 O 0.78571 0.5283 0.64064 0.0
O2225 O 0.78779 0.5292 0.62324 0.0
O2226 O 0.47665 0.06139 0.88855 0.0
Cd2227 Cd 0.46734 0.04915 0.88267 0.0
Cd2228 Cd 0.45861 0.06663 0.87238 0.0
O2229 O 0.47172 0.07474 0.87825 0.0
O2230 O 0.47418 0.03652 0.88946 0.0
O2231 O 0.47381 0.03875 0.87205 0.0
C2232 C 0.47677 0.03314 0.88015 0.0
C2233 C 0.45296 0.06788 0.85469 0.0
C2234 C 0.47765 0.07102 0.88557 0.0
C2235 C 0.44497 0.05528 0.88844 0.0
O2236 O 0.44641 0.0637 0.88301 0.0
O2237 O 0.45202 0.04802 0.88858 0.0
O2238 O 0.45204 0.07578 0.8612 0.0
O2239 O 0.45768 0.05937 0.85807 0.0
O2240 O 0.61387 0.9422 0.02629 0.0
Cd2241 Cd 0.61998 0.95445 0.03542 0.0
Cd2242 Cd 0.63012 0.93704 0.04423 0.0
O2243 O 0.62413 0.92882 0.03124 0.0
O2244 O 0.61347 0.96712 0.02841 0.0
O2245 O 0.63083 0.96454 0.02884 0.0
C2246 C 0.62286 0.97027 0.02578 0.0
C2247 C 0.64784 0.93577 0.04976 0.0
C2248 C 0.61676 0.93253 0.02535 0.0
C2249 C 0.61418 0.94862 0.05783 0.0
O2250 O 0.61955 0.94014 0.05643 0.0
O2251 O 0.61411 0.95584 0.05073 0.0
O2252 O 0.64129 0.92792 0.05083 0.0
O2253 O 0.64447 0.94423 0.04495 0.0
O2254 O 0.11352 0.8121 0.22633 0.0
Cd2255 Cd 0.11944 0.79973 0.21723 0.0
Cd2256 Cd 0.1297 0.81711 0.20828 0.0
O2257 O 0.12383 0.82541 0.22128 0.0
O2258 O 0.11256 0.78723 0.22418 0.0
O2259 O 0.12998 0.78935 0.22388 0.0
C2260 C 0.12184 0.78382 0.22685 0.0
C2261 C 0.1474 0.81815 0.20265 0.0
C2262 C 0.11648 0.82176 0.22722 0.0
C2263 C 0.11368 0.80556 0.19477 0.0
O2264 O 0.11906 0.81403 0.19612 0.0
O2265 O 0.11359 0.79837 0.20191 0.0
O2266 O 0.14094 0.82607 0.20158 0.0
O2267 O 0.14396 0.80976 0.20752 0.0
O2268 O 0.19029 0.36901 0.44617 0.0
Cd2269 Cd 0.18719 0.37981 0.45819 0.0
Cd2270 Cd 0.20449 0.36947 0.46735 0.0
O2271 O 0.20565 0.36303 0.45226 0.0
O2272 O 0.17814 0.3909 0.45134 0.0
O2273 O 0.19441 0.39415 0.45728 0.0
C2274 C 0.18598 0.39746 0.45239 0.0
C2275 C 0.22046 0.372 0.47682 0.0
C2276 C 0.19855 0.36325 0.44505 0.0
C2277 C 0.18246 0.36695 0.47741 0.0
O2278 O 0.19212 0.36399 0.47668 0.0
O2279 O 0.17883 0.3741 0.47123 0.0
O2280 O 0.21695 0.36268 0.47445 0.0
O2281 O 0.21501 0.38011 0.47362 0.0
O2282 O 0.63603 0.43732 0.72917 0.0
Cd2283 Cd 0.63288 0.45063 0.71992 0.0
Cd2284 Cd 0.62182 0.43472 0.70815 0.0
O2285 O 0.62734 0.42492 0.72015 0.0
O2286 O 0.63989 0.46218 0.72826 0.0
O2287 O 0.62256 0.46186 0.7254 0.0
C2288 C 0.6307 0.4665 0.72965 0.0
C2289 C 0.6043 0.43348 0.70189 0.0
C2290 C 0.63319 0.42767 0.72794 0.0
C2291 C 0.63961 0.44628 0.69703 0.0
O2292 O 0.63272 0.43888 0.6967 0.0
O2293 O 0.64062 0.452 0.70534 0.0
O2294 O 0.61115 0.42602 0.70027 0.0
O2295 O 0.60726 0.44157 0.70754 0.0
O2296 O 0.06402 0.88296 0.44668 0.0
Cd2297 Cd 0.06696 0.87228 0.45883 0.0
Cd2298 Cd 0.04962 0.88266 0.46763 0.0
O2299 O 0.04838 0.88862 0.45233 0.0
O2300 O 0.0759 0.86104 0.45211 0.0
O2301 O 0.05954 0.85806 0.45794 0.0
C2302 C 0.06794 0.85462 0.45308 0.0
C2303 C 0.03373 0.88002 0.47721 0.0
C2304 C 0.05563 0.88845 0.44526 0.0
C2305 C 0.07158 0.88547 0.47779 0.0
O2306 O 0.06196 0.88849 0.47683 0.0
O2307 O 0.07522 0.87809 0.47188 0.0
O2308 O 0.03706 0.88936 0.47465 0.0
O2309 O 0.03931 0.87196 0.47411 0.0
O2310 O 0.63572 0.31468 0.02366 0.0
Cd2311 Cd 0.63258 0.30155 0.03318 0.0
Cd2312 Cd 0.62152 0.31764 0.04454 0.0
O2313 O 0.62693 0.32725 0.03234 0.0
O2314 O 0.63975 0.28987 0.02517 0.0
O2315 O 0.6224 0.29013 0.02782 0.0
C2316 C 0.63061 0.28546 0.02378 0.0
C2317 C 0.60396 0.31843 0.05073 0.0
C2318 C 0.63282 0.32434 0.02464 0.0
C2319 C 0.63928 0.30643 0.05597 0.0
O2320 O 0.63244 0.31387 0.0561 0.0
O2321 O 0.64026 0.30049 0.04782 0.0
O2322 O 0.61057 0.32614 0.05225 0.0
O2323 O 0.60717 0.31038 0.04517 0.0
O2324 O 0.18954 0.38452 0.30553 0.0
Cd2325 Cd 0.18639 0.37401 0.29329 0.0
Cd2326 Cd 0.20389 0.38406 0.28452 0.0
O2327 O 0.20526 0.38991 0.29984 0.0
O2328 O 0.17708 0.36298 0.29983 0.0
O2329 O 0.1934 0.35957 0.29411 0.0
C2330 C 0.18485 0.35633 0.29884 0.0
C2331 C 0.21972 0.38101 0.275 0.0
C2332 C 0.19804 0.38983 0.30695 0.0
C2333 C 0.18204 0.38731 0.27432 0.0
O2334 O 0.19171 0.39018 0.27528 0.0
O2335 O 0.17828 0.38001 0.28024 0.0
O2336 O 0.21664 0.39044 0.27755 0.0
O2337 O 0.21392 0.3731 0.27807 0.0
O2338 O 0.56181 0.86859 0.8061 0.0
Cd2339 Cd 0.56445 0.87931 0.79393 0.0
Cd2340 Cd 0.54706 0.86876 0.78552 0.0
O2341 O 0.54625 0.86245 0.80071 0.0
O2342 O 0.57373 0.89042 0.80043 0.0
O2343 O 0.55725 0.89365 0.79507 0.0
C2344 C 0.56585 0.89697 0.79967 0.0
C2345 C 0.53106 0.87182 0.7763 0.0
C2346 C 0.55363 0.86281 0.80764 0.0
C2347 C 0.56874 0.8662 0.77479 0.0
O2348 O 0.55916 0.86311 0.77593 0.0
O2349 O 0.57246 0.87354 0.7807 0.0
O2350 O 0.53428 0.86237 0.77863 0.0
O2351 O 0.5368 0.87973 0.77949 0.0
O2352 O 0.47606 0.38855 0.56033 0.0
Cd2353 Cd 0.46662 0.38253 0.54828 0.0
Cd2354 Cd 0.45825 0.37228 0.5659 0.0
O2355 O 0.47139 0.37832 0.57383 0.0
O2356 O 0.47324 0.38922 0.53551 0.0
O2357 O 0.47304 0.37184 0.53793 0.0
C2358 C 0.47589 0.37989 0.53221 0.0
C2359 C 0.45286 0.35453 0.56718 0.0
C2360 C 0.47722 0.38566 0.56997 0.0
C2361 C 0.44431 0.38821 0.55472 0.0
O2362 O 0.44591 0.38279 0.56312 0.0
O2363 O 0.45125 0.38836 0.54734 0.0
O2364 O 0.45195 0.36101 0.5751 0.0
O2365 O 0.45742 0.35798 0.55862 0.0
O2366 O 0.61637 0.22904 0.31471 0.0
Cd2367 Cd 0.61924 0.21985 0.3013 0.0
Cd2368 Cd 0.63032 0.20795 0.31717 0.0
O2369 O 0.62502 0.21996 0.32708 0.0
O2370 O 0.61178 0.22828 0.29011 0.0
O2371 O 0.62913 0.22562 0.28982 0.0
C2372 C 0.62081 0.22987 0.28554 0.0
C2373 C 0.64787 0.20176 0.31798 0.0
C2374 C 0.61926 0.22781 0.32434 0.0
C2375 C 0.61245 0.19696 0.30564 0.0
O2376 O 0.61932 0.19658 0.31305 0.0
O2377 O 0.61149 0.20528 0.29993 0.0
O2378 O 0.64118 0.20001 0.32557 0.0
O2379 O 0.64473 0.20748 0.31002 0.0
O2380 O 0.77679 0.36368 0.06037 0.0
Cd2381 Cd 0.78588 0.36972 0.04807 0.0
Cd2382 Cd 0.79472 0.37977 0.06563 0.0
O2383 O 0.78171 0.37382 0.07384 0.0
O2384 O 0.77877 0.36295 0.0356 0.0
O2385 O 0.77908 0.38035 0.03788 0.0
C2386 C 0.77595 0.37225 0.03236 0.0
C2387 C 0.80033 0.39746 0.06691 0.0
C2388 C 0.77581 0.36651 0.07004 0.0
C2389 C 0.80827 0.36386 0.05389 0.0
O2390 O 0.80686 0.36915 0.06241 0.0
O2391 O 0.8012 0.36387 0.04664 0.0
O2392 O 0.80142 0.3909 0.07474 0.0
O2393 O 0.79547 0.39413 0.05846 0.0
O2394 O 0.63869 0.52646 0.81129 0.0
Cd2395 Cd 0.63279 0.53541 0.79882 0.0
Cd2396 Cd 0.62243 0.5444 0.81629 0.0
O2397 O 0.6283 0.53138 0.82457 0.0
O2398 O 0.63983 0.52826 0.7865 0.0
O2399 O 0.62239 0.52848 0.78847 0.0
C2400 C 0.6306 0.5254 0.7831 0.0
C2401 C 0.60483 0.55032 0.81776 0.0
C2402 C 0.63572 0.52552 0.82093 0.0
C2403 C 0.63853 0.55783 0.80462 0.0
O2404 O 0.63314 0.55646 0.81308 0.0
O2405 O 0.63861 0.55074 0.79739 0.0
O2406 O 0.61149 0.55124 0.82553 0.0
O2407 O 0.608 0.54542 0.80927 0.0
O2408 O 0.47518 0.36324 0.19145 0.0
Cd2409 Cd 0.46606 0.36945 0.20365 0.0
Cd2410 Cd 0.45743 0.37947 0.18597 0.0
O2411 O 0.47047 0.37339 0.17791 0.0
O2412 O 0.47289 0.36251 0.21618 0.0
O2413 O 0.47294 0.37991 0.21395 0.0
C2414 C 0.47582 0.37174 0.21949 0.0
C2415 C 0.45201 0.39721 0.18458 0.0
C2416 C 0.47626 0.36603 0.18177 0.0
C2417 C 0.44365 0.36377 0.19765 0.0
O2418 O 0.44518 0.36896 0.18909 0.0
O2419 O 0.45066 0.36381 0.20497 0.0
O2420 O 0.45097 0.39064 0.17675 0.0
O2421 O 0.45672 0.39384 0.19311 0.0
O2422 O 0.63894 0.22565 0.94265 0.0
Cd2423 Cd 0.63284 0.21655 0.95491 0.0
Cd2424 Cd 0.62255 0.20798 0.93743 0.0
O2425 O 0.62857 0.22099 0.92927 0.0
O2426 O 0.63952 0.22357 0.96748 0.0
O2427 O 0.62214 0.22331 0.96504 0.0
C2428 C 0.6302 0.22638 0.97064 0.0
C2429 C 0.60482 0.20248 0.93616 0.0
C2430 C 0.63601 0.22675 0.93302 0.0
C2431 C 0.63844 0.19416 0.9489 0.0
O2432 O 0.63307 0.1957 0.94045 0.0
O2433 O 0.63858 0.20117 0.95621 0.0
O2434 O 0.61135 0.20145 0.92829 0.0
O2435 O 0.60821 0.20724 0.94464 0.0
O2436 O 0.77638 0.38863 0.69124 0.0
Cd2437 Cd 0.78547 0.38272 0.70361 0.0
Cd2438 Cd 0.79434 0.37253 0.68606 0.0
O2439 O 0.78127 0.37837 0.67784 0.0
O2440 O 0.77841 0.38969 0.716 0.0
O2441 O 0.77865 0.37227 0.71397 0.0
C2442 C 0.77559 0.38045 0.71939 0.0
C2443 C 0.80018 0.35491 0.68486 0.0
C2444 C 0.77539 0.38572 0.68159 0.0
C2445 C 0.80786 0.38854 0.6977 0.0
O2446 O 0.80643 0.38323 0.68919 0.0
O2447 O 0.80081 0.38855 0.70496 0.0
O2448 O 0.80112 0.36143 0.67698 0.0
O2449 O 0.7953 0.35822 0.6933 0.0
O2450 O 0.61408 0.52621 0.44144 0.0
Cd2451 Cd 0.62002 0.53553 0.45364 0.0
Cd2452 Cd 0.62988 0.54441 0.43596 0.0
O2453 O 0.62401 0.53129 0.42786 0.0
O2454 O 0.61325 0.52866 0.46624 0.0
O2455 O 0.63066 0.52904 0.46402 0.0
C2456 C 0.62256 0.52606 0.46962 0.0
C2457 C 0.64752 0.55019 0.43478 0.0
C2458 C 0.61684 0.52527 0.43173 0.0
C2459 C 0.61388 0.55785 0.44761 0.0
O2460 O 0.61915 0.55647 0.43908 0.0
O2461 O 0.614 0.5508 0.45488 0.0
O2462 O 0.64101 0.55116 0.42689 0.0
O2463 O 0.64418 0.54532 0.44322 0.0
O2464 O 0.06077 0.47625 0.88864 0.0
Cd2465 Cd 0.04862 0.46691 0.88264 0.0
Cd2466 Cd 0.06615 0.45819 0.8726 0.0
O2467 O 0.07423 0.47132 0.87847 0.0
O2468 O 0.03592 0.47369 0.88929 0.0
O2469 O 0.03833 0.47338 0.87191 0.0
C2470 C 0.03264 0.4763 0.87995 0.0
C2471 C 0.0673 0.45261 0.85489 0.0
C2472 C 0.07043 0.47726 0.88575 0.0
C2473 C 0.05471 0.44457 0.88858 0.0
O2474 O 0.0632 0.44601 0.88325 0.0
O2475 O 0.04742 0.4516 0.88857 0.0
O2476 O 0.07522 0.45163 0.86137 0.0
O2477 O 0.05883 0.45736 0.85832 0.0
O2478 O 0.526 0.81141 0.6389 0.0
Cd2479 Cd 0.53529 0.79921 0.63293 0.0
Cd2480 Cd 0.5441 0.81681 0.62289 0.0
O2481 O 0.53097 0.8249 0.6288 0.0
O2482 O 0.52833 0.78654 0.63949 0.0
O2483 O 0.52885 0.78899 0.62212 0.0
C2484 C 0.52578 0.78331 0.63012 0.0
C2485 C 0.54993 0.81819 0.60527 0.0
C2486 C 0.52502 0.82109 0.63606 0.0
C2487 C 0.55763 0.80523 0.6389 0.0
O2488 O 0.55621 0.81371 0.63356 0.0
O2489 O 0.55058 0.79796 0.63891 0.0
O2490 O 0.5508 0.82603 0.61185 0.0
O2491 O 0.54511 0.80969 0.60852 0.0
O2492 O 0.18817 0.27397 0.386 0.0
Cd2493 Cd 0.20143 0.28332 0.3829 0.0
Cd2494 Cd 0.18529 0.29494 0.37189 0.0
O2495 O 0.17561 0.28283 0.37737 0.0
O2496 O 0.21288 0.27517 0.39026 0.0
O2497 O 0.21286 0.27767 0.37288 0.0
C2498 C 0.21736 0.2736 0.38118 0.0
C2499 C 0.18426 0.30108 0.35433 0.0
C2500 C 0.1785 0.27506 0.38318 0.0
C2501 C 0.19686 0.30623 0.38953 0.0
O2502 O 0.18935 0.30645 0.38276 0.0
O2503 O 0.20269 0.29799 0.39048 0.0
O2504 O 0.17669 0.30272 0.36107 0.0
O2505 O 0.19232 0.29546 0.35742 0.0
O2506 O 0.72671 0.9412 0.13886 0.0
Cd2507 Cd 0.71737 0.9533 0.13276 0.0
Cd2508 Cd 0.70886 0.93571 0.12264 0.0
O2509 O 0.72198 0.92771 0.12865 0.0
O2510 O 0.72404 0.96606 0.13943 0.0
O2511 O 0.72388 0.96359 0.12205 0.0
C2512 C 0.72672 0.96932 0.1301 0.0
C2513 C 0.70342 0.93462 0.10489 0.0
C2514 C 0.72782 0.93155 0.13599 0.0
C2515 C 0.69498 0.94711 0.13841 0.0
O2516 O 0.69654 0.93861 0.13314 0.0
O2517 O 0.70197 0.95443 0.13848 0.0
O2518 O 0.70247 0.92665 0.11131 0.0
O2519 O 0.70808 0.94311 0.10841 0.0
O2520 O 0.06101 0.27597 0.86372 0.0
Cd2521 Cd 0.04886 0.28534 0.86968 0.0
Cd2522 Cd 0.06638 0.29406 0.87974 0.0
O2523 O 0.07445 0.28093 0.87388 0.0
O2524 O 0.03614 0.27844 0.86317 0.0
O2525 O 0.03865 0.27896 0.88054 0.0
C2526 C 0.03293 0.27591 0.87256 0.0
C2527 C 0.06758 0.29965 0.89744 0.0
C2528 C 0.07066 0.27497 0.86662 0.0
C2529 C 0.05493 0.30767 0.86374 0.0
O2530 O 0.0634 0.30624 0.86909 0.0
O2531 O 0.04765 0.30063 0.86371 0.0
O2532 O 0.07549 0.3006 0.89095 0.0
O2533 O 0.05908 0.29494 0.89402 0.0
O2534 O 0.72864 0.81485 0.61657 0.0
Cd2535 Cd 0.71913 0.80171 0.61961 0.0
Cd2536 Cd 0.70767 0.81775 0.63062 0.0
O2537 O 0.71986 0.8274 0.62527 0.0
O2538 O 0.72732 0.79007 0.61261 0.0
O2539 O 0.72447 0.79042 0.62993 0.0
C2540 C 0.72869 0.78576 0.6218 0.0
C2541 C 0.70154 0.81862 0.64818 0.0
C2542 C 0.72763 0.8245 0.61946 0.0
C2543 C 0.69636 0.80645 0.61279 0.0
O2544 O 0.69616 0.81387 0.61967 0.0
O2545 O 0.70456 0.80057 0.61182 0.0
O2546 O 0.69993 0.82627 0.64152 0.0
O2547 O 0.7071 0.81056 0.64501 0.0
O2548 O 0.19142 0.47673 0.36337 0.0
Cd2549 Cd 0.20375 0.4677 0.36945 0.0
Cd2550 Cd 0.18628 0.45894 0.37969 0.0
O2551 O 0.17804 0.47192 0.37369 0.0
O2552 O 0.21625 0.47475 0.36267 0.0
O2553 O 0.21396 0.47447 0.38006 0.0
C2554 C 0.21951 0.47754 0.37197 0.0
C2555 C 0.18504 0.4533 0.39737 0.0
C2556 C 0.18176 0.47773 0.36627 0.0
C2557 C 0.19788 0.44527 0.36378 0.0
O2558 O 0.1894 0.44673 0.36912 0.0
O2559 O 0.20513 0.45234 0.36368 0.0
O2560 O 0.17717 0.4523 0.39085 0.0
O2561 O 0.1935 0.45813 0.39402 0.0
O2562 O 0.52614 0.94126 0.11344 0.0
Cd2563 Cd 0.53529 0.9536 0.11934 0.0
Cd2564 Cd 0.5441 0.93637 0.12976 0.0
O2565 O 0.53111 0.92805 0.1239 0.0
O2566 O 0.52826 0.96619 0.11273 0.0
O2567 O 0.52877 0.9638 0.13011 0.0
C2568 C 0.52568 0.96945 0.12209 0.0
C2569 C 0.54959 0.93541 0.14751 0.0
C2570 C 0.52521 0.93164 0.11649 0.0
C2571 C 0.55775 0.94774 0.11373 0.0
O2572 O 0.55636 0.93934 0.11921 0.0
O2573 O 0.55061 0.95492 0.11348 0.0
O2574 O 0.55068 0.92745 0.1411 0.0
O2575 O 0.54477 0.94381 0.14398 0.0
O2576 O 0.38896 0.06053 0.97651 0.0
Cd2577 Cd 0.38299 0.0484 0.96711 0.0
Cd2578 Cd 0.37296 0.066 0.95845 0.0
O2579 O 0.37887 0.07404 0.97159 0.0
O2580 O 0.3896 0.03566 0.9739 0.0
O2581 O 0.37222 0.03811 0.97351 0.0
C2582 C 0.38024 0.03239 0.97646 0.0
C2583 C 0.35525 0.06711 0.95286 0.0
C2584 C 0.38612 0.0702 0.97754 0.0
C2585 C 0.38893 0.05457 0.94479 0.0
O2586 O 0.38359 0.06305 0.94626 0.0
O2587 O 0.38893 0.04727 0.9518 0.0
O2588 O 0.36171 0.07505 0.9519 0.0
O2589 O 0.35871 0.05864 0.95761 0.0
O2590 O 0.88888 0.19045 0.77653 0.0
Cd2591 Cd 0.8828 0.20251 0.78596 0.0
Cd2592 Cd 0.87315 0.18471 0.79471 0.0
O2593 O 0.87909 0.17675 0.78153 0.0
O2594 O 0.88949 0.21525 0.77929 0.0
O2595 O 0.8721 0.21289 0.77956 0.0
C2596 C 0.88017 0.2186 0.77672 0.0
C2597 C 0.85548 0.18355 0.80036 0.0
C2598 C 0.88622 0.18073 0.77553 0.0
C2599 C 0.88892 0.19641 0.80829 0.0
O2600 O 0.88379 0.1878 0.80684 0.0
O2601 O 0.88872 0.20371 0.80127 0.0
O2602 O 0.86195 0.17563 0.80131 0.0
O2603 O 0.85888 0.19201 0.79556 0.0
O2604 O 0.81154 0.63905 0.52625 0.0
Cd2605 Cd 0.79925 0.63328 0.53556 0.0
Cd2606 Cd 0.81662 0.62296 0.54437 0.0
O2607 O 0.82481 0.62867 0.53123 0.0
O2608 O 0.78666 0.64005 0.52867 0.0
O2609 O 0.78884 0.62264 0.52916 0.0
C2610 C 0.78325 0.63073 0.52615 0.0
C2611 C 0.81757 0.60531 0.55017 0.0
C2612 C 0.82116 0.636 0.52527 0.0
C2613 C 0.80536 0.63916 0.5579 0.0
O2614 O 0.81376 0.6337 0.55649 0.0
O2615 O 0.7981 0.63928 0.55085 0.0
O2616 O 0.82556 0.61171 0.55108 0.0
O2617 O 0.80915 0.60877 0.54534 0.0
O2618 O 0.36351 0.56076 0.27482 0.0
Cd2619 Cd 0.36901 0.54849 0.2843 0.0
Cd2620 Cd 0.37902 0.5659 0.29356 0.0
O2621 O 0.37337 0.57417 0.28044 0.0
O2622 O 0.36246 0.5359 0.27722 0.0
O2623 O 0.37985 0.53807 0.27824 0.0
C2624 C 0.37186 0.53248 0.275 0.0
C2625 C 0.39662 0.56726 0.29947 0.0
C2626 C 0.36637 0.57045 0.27413 0.0
C2627 C 0.3625 0.55438 0.30656 0.0
O2628 O 0.36816 0.56272 0.3055 0.0
O2629 O 0.36243 0.5473 0.29933 0.0
O2630 O 0.39 0.57506 0.30044 0.0
O2631 O 0.39339 0.55878 0.29461 0.0
O2632 O 0.93794 0.11661 0.52372 0.0
Cd2633 Cd 0.95119 0.11972 0.53306 0.0
Cd2634 Cd 0.93516 0.1306 0.54474 0.0
O2635 O 0.92541 0.12519 0.53266 0.0
O2636 O 0.9627 0.1126 0.52478 0.0
O2637 O 0.96248 0.12994 0.52752 0.0
C2638 C 0.96706 0.12175 0.52331 0.0
C2639 C 0.93424 0.14816 0.55089 0.0
C2640 C 0.92827 0.11941 0.52485 0.0
C2641 C 0.94675 0.11291 0.55592 0.0
O2642 O 0.93925 0.11969 0.5562 0.0
O2643 O 0.95255 0.11201 0.54765 0.0
O2644 O 0.92665 0.14145 0.55257 0.0
O2645 O 0.94226 0.14504 0.54524 0.0
O2646 O 0.36362 0.69243 0.97794 0.0
Cd2647 Cd 0.36901 0.70475 0.96848 0.0
Cd2648 Cd 0.37912 0.6874 0.95914 0.0
O2649 O 0.37355 0.67909 0.97227 0.0
O2650 O 0.36249 0.71731 0.97566 0.0
O2651 O 0.37988 0.71517 0.97451 0.0
C2652 C 0.37189 0.72074 0.97782 0.0
C2653 C 0.39666 0.68597 0.95303 0.0
C2654 C 0.36654 0.68275 0.97861 0.0
C2655 C 0.36243 0.69887 0.94626 0.0
O2656 O 0.36816 0.69058 0.94728 0.0
O2657 O 0.36233 0.70594 0.95349 0.0
O2658 O 0.38999 0.6782 0.95214 0.0
O2659 O 0.39352 0.69446 0.95794 0.0
O2660 O 0.81544 0.61696 0.72906 0.0
Cd2661 Cd 0.8023 0.62028 0.71964 0.0
Cd2662 Cd 0.81851 0.63123 0.70821 0.0
O2663 O 0.82809 0.62559 0.72033 0.0
O2664 O 0.79064 0.61317 0.72772 0.0
O2665 O 0.79104 0.63055 0.72517 0.0
C2666 C 0.78634 0.62235 0.72923 0.0
C2667 C 0.81972 0.6488 0.70217 0.0
C2668 C 0.82514 0.61972 0.72804 0.0
C2669 C 0.80692 0.61371 0.69675 0.0
O2670 O 0.81445 0.62046 0.6966 0.0
O2671 O 0.80105 0.61274 0.70495 0.0
O2672 O 0.82726 0.64202 0.70057 0.0
O2673 O 0.81159 0.64575 0.70769 0.0
O2674 O 0.44042 0.13843 0.22648 0.0
Cd2675 Cd 0.45258 0.1325 0.2171 0.0
Cd2676 Cd 0.43512 0.1221 0.20866 0.0
O2677 O 0.42708 0.12799 0.22182 0.0
O2678 O 0.46528 0.13934 0.22373 0.0
O2679 O 0.46307 0.12193 0.22352 0.0
C2680 C 0.4687 0.13005 0.22635 0.0
C2681 C 0.43413 0.10436 0.20315 0.0
C2682 C 0.43082 0.13541 0.22762 0.0
C2683 C 0.44619 0.13809 0.19476 0.0
O2684 O 0.43779 0.13266 0.19635 0.0
O2685 O 0.45355 0.13828 0.20172 0.0
O2686 O 0.42611 0.11071 0.20228 0.0
O2687 O 0.44262 0.10792 0.20778 0.0
H2688 H 0.09483 0.1932 0.41597 0.0
H2689 H 0.0529 0.16075 0.45092 0.0
H2690 H 0.09081 0.19815 0.44974 0.0
H2691 H 0.05751 0.15659 0.41711 0.0
H2692 H 0.06452 0.17646 0.45033 0.0
H2693 H 0.07904 0.18193 0.41589 0.0
C2694 C 0.09053 0.19203 0.42336 0.0
C2695 C 0.09422 0.19653 0.4329 0.0
C2696 C 0.06284 0.1722 0.44301 0.0
C2697 C 0.07616 0.18342 0.43292 0.0
C2698 C 0.05617 0.16326 0.44334 0.0
C2699 C 0.05434 0.15727 0.43407 0.0
C2700 C 0.0677 0.17514 0.43336 0.0
C2701 C 0.0588 0.16088 0.42447 0.0
C2702 C 0.0815 0.18557 0.42332 0.0
C2703 C 0.08826 0.1948 0.44221 0.0
N2704 N 0.06534 0.16949 0.4244 0.0
N2705 N 0.07961 0.18825 0.44203 0.0
H2706 H 0.80872 0.34488 0.66756 0.0
H2707 H 0.84183 0.30344 0.70268 0.0
H2708 H 0.80429 0.34119 0.70145 0.0
H2709 H 0.84674 0.30886 0.66909 0.0
H2710 H 0.826 0.31487 0.70197 0.0
H2711 H 0.82039 0.32938 0.66756 0.0
C2712 C 0.81007 0.34071 0.67499 0.0
C2713 C 0.80561 0.34443 0.68454 0.0
C2714 C 0.83046 0.31342 0.69473 0.0
C2715 C 0.81917 0.32669 0.68464 0.0
C2716 C 0.83947 0.30686 0.69512 0.0
C2717 C 0.8457 0.30529 0.68595 0.0
C2718 C 0.82765 0.31842 0.68511 0.0
C2719 C 0.84226 0.30994 0.67638 0.0
C2720 C 0.81678 0.33185 0.67499 0.0
C2721 C 0.8076 0.33863 0.69391 0.0
N2722 N 0.83355 0.31636 0.67624 0.0
N2723 N 0.81436 0.33014 0.69375 0.0
H2724 H 0.65778 0.05702 0.91692 0.0
H2725 H 0.69905 0.09058 0.95177 0.0
H2726 H 0.661 0.05338 0.95095 0.0
H2727 H 0.69405 0.09478 0.91802 0.0
H2728 H 0.68759 0.07476 0.95126 0.0
H2729 H 0.67344 0.06849 0.91682 0.0
C2730 C 0.66188 0.0585 0.92436 0.0
C2731 C 0.65798 0.05434 0.93397 0.0
C2732 C 0.68914 0.07906 0.94395 0.0
C2733 C 0.6759 0.06765 0.93396 0.0
C2734 C 0.69572 0.08806 0.94422 0.0
C2735 C 0.69741 0.09409 0.93495 0.0
C2736 C 0.68423 0.07607 0.93433 0.0
C2737 C 0.69288 0.09045 0.92539 0.0
C2738 C 0.67083 0.06509 0.92431 0.0
C2739 C 0.6637 0.05647 0.94336 0.0
N2740 N 0.68643 0.08177 0.92536 0.0
N2741 N 0.67228 0.06311 0.94314 0.0
H2742 H 0.9453 0.90793 0.16745 0.0
H2743 H 0.91155 0.94925 0.20199 0.0
H2744 H 0.94871 0.9112 0.2015 0.0
H2745 H 0.90794 0.9446 0.16812 0.0
H2746 H 0.92734 0.93776 0.20165 0.0
H2747 H 0.93396 0.92368 0.16724 0.0
C2748 C 0.9438 0.91207 0.17488 0.0
C2749 C 0.94786 0.90816 0.18453 0.0
C2750 C 0.92318 0.93939 0.19427 0.0
C2751 C 0.93468 0.92617 0.18437 0.0
C2752 C 0.9142 0.946 0.19445 0.0
C2753 C 0.90833 0.94779 0.18509 0.0
C2754 C 0.92632 0.93456 0.18466 0.0
C2755 C 0.91213 0.94335 0.17556 0.0
C2756 C 0.93728 0.92107 0.17475 0.0
C2757 C 0.9457 0.91391 0.19388 0.0
N2758 N 0.92079 0.93687 0.17561 0.0
N2759 N 0.93912 0.92253 0.1936 0.0
H2760 H 0.05343 0.09111 0.80061 0.0
H2761 H 0.09467 0.0574 0.83527 0.0
H2762 H 0.05779 0.09455 0.83453 0.0
H2763 H 0.09145 0.05391 0.80123 0.0
H2764 H 0.0789 0.06871 0.83544 0.0
H2765 H 0.06496 0.07534 0.80097 0.0
C2766 C 0.05663 0.08843 0.80816 0.0
C2767 C 0.05475 0.09424 0.81754 0.0
C2768 C 0.08153 0.06538 0.82793 0.0
C2769 C 0.06802 0.07629 0.81798 0.0
C2770 C 0.09055 0.05889 0.82784 0.0
C2771 C 0.09447 0.0548 0.8182 0.0
C2772 C 0.07643 0.06794 0.8183 0.0
C2773 C 0.08873 0.05693 0.80883 0.0
C2774 C 0.06325 0.07945 0.80835 0.0
C2775 C 0.05911 0.0904 0.82709 0.0
N2776 N 0.08009 0.06349 0.80909 0.0
N2777 N 0.06562 0.08176 0.82704 0.0
H2778 H 0.94526 0.34483 0.08484 0.0
H2779 H 0.91171 0.30311 0.05057 0.0
H2780 H 0.94873 0.34133 0.05082 0.0
H2781 H 0.90809 0.30797 0.08441 0.0
H2782 H 0.92744 0.3147 0.05083 0.0
H2783 H 0.93397 0.32904 0.08515 0.0
C2784 C 0.94378 0.34064 0.07744 0.0
C2785 C 0.94785 0.34449 0.06777 0.0
C2786 C 0.92329 0.31309 0.05822 0.0
C2787 C 0.93473 0.32644 0.06803 0.0
C2788 C 0.91434 0.30643 0.05809 0.0
C2789 C 0.90849 0.30467 0.06746 0.0
C2790 C 0.92641 0.318 0.0678 0.0
C2791 C 0.91227 0.3092 0.07697 0.0
C2792 C 0.9373 0.33162 0.07762 0.0
C2793 C 0.94572 0.33867 0.05845 0.0
N2794 N 0.92089 0.31572 0.07686 0.0
N2795 N 0.93917 0.33002 0.05879 0.0
H2796 H 0.66193 0.19898 0.30139 0.0
H2797 H 0.69623 0.15696 0.33465 0.0
H2798 H 0.65776 0.19236 0.33486 0.0
H2799 H 0.6991 0.16081 0.30061 0.0
H2800 H 0.68468 0.17254 0.33528 0.0
H2801 H 0.67786 0.18765 0.30138 0.0
C2802 C 0.66447 0.19532 0.30878 0.0
C2803 C 0.65843 0.19651 0.31812 0.0
C2804 C 0.68793 0.17009 0.32767 0.0
C2805 C 0.67659 0.18352 0.31815 0.0
C2806 C 0.69456 0.16119 0.32731 0.0
C2807 C 0.69853 0.15749 0.31754 0.0
C2808 C 0.68511 0.17529 0.31817 0.0
C2809 C 0.69617 0.16336 0.30831 0.0
C2810 C 0.67354 0.18882 0.30875 0.0
C2811 C 0.66209 0.19156 0.32745 0.0
N2812 N 0.68947 0.17188 0.30883 0.0
N2813 N 0.67085 0.18523 0.3272 0.0
H2814 H 0.80997 0.90791 0.58687 0.0
H2815 H 0.84206 0.94999 0.55177 0.0
H2816 H 0.80475 0.91202 0.55314 0.0
H2817 H 0.84663 0.94516 0.5855 0.0
H2818 H 0.82636 0.93838 0.55247 0.0
H2819 H 0.82123 0.9237 0.58689 0.0
C2820 C 0.81108 0.91223 0.57948 0.0
C2821 C 0.80651 0.90856 0.56996 0.0
C2822 C 0.83071 0.94 0.55974 0.0
C2823 C 0.8196 0.92662 0.56989 0.0
C2824 C 0.83964 0.94667 0.55936 0.0
C2825 C 0.84575 0.94844 0.56856 0.0
C2826 C 0.82788 0.93509 0.56941 0.0
C2827 C 0.84225 0.94392 0.57817 0.0
C2828 C 0.81754 0.92126 0.57949 0.0
C2829 C 0.80815 0.91455 0.56065 0.0
N2830 N 0.83364 0.93738 0.57831 0.0
N2831 N 0.81471 0.9232 0.56081 0.0
H2832 H 0.4168 0.09375 0.19546 0.0
H2833 H 0.45176 0.05313 0.16125 0.0
H2834 H 0.45091 0.09102 0.19862 0.0
H2835 H 0.41786 0.05754 0.15767 0.0
H2836 H 0.45133 0.06452 0.17712 0.0
H2837 H 0.41677 0.0781 0.18398 0.0
C2838 C 0.42428 0.08975 0.19387 0.0
C2839 C 0.43389 0.09379 0.19791 0.0
C2840 C 0.44396 0.06286 0.17295 0.0
C2841 C 0.43394 0.07589 0.18457 0.0
C2842 C 0.44419 0.05631 0.16392 0.0
C2843 C 0.43485 0.05449 0.15805 0.0
C2844 C 0.43431 0.06758 0.17613 0.0
C2845 C 0.42528 0.05883 0.16187 0.0
C2846 C 0.42426 0.08081 0.18728 0.0
C2847 C 0.44332 0.08821 0.19564 0.0
N2848 N 0.42528 0.06525 0.17058 0.0
N2849 N 0.44314 0.07964 0.18898 0.0
H2850 H 0.90786 0.66641 0.44498 0.0
H2851 H 0.94923 0.70087 0.41118 0.0
H2852 H 0.91113 0.70046 0.44832 0.0
H2853 H 0.94444 0.66703 0.40753 0.0
H2854 H 0.9377 0.70057 0.42695 0.0
H2855 H 0.92358 0.66618 0.4336 0.0
C2856 C 0.91198 0.67383 0.44345 0.0
C2857 C 0.90809 0.68349 0.44751 0.0
C2858 C 0.93932 0.69318 0.42279 0.0
C2859 C 0.92606 0.68332 0.43429 0.0
C2860 C 0.94594 0.69335 0.41381 0.0
C2861 C 0.9477 0.68399 0.40794 0.0
C2862 C 0.93445 0.68359 0.42591 0.0
C2863 C 0.94321 0.67447 0.41172 0.0
C2864 C 0.92097 0.6737 0.43692 0.0
C2865 C 0.91383 0.69284 0.44532 0.0
N2866 N 0.93672 0.67454 0.42037 0.0
N2867 N 0.92244 0.69255 0.43872 0.0
H2868 H 0.30104 0.19939 0.6618 0.0
H2869 H 0.33523 0.15751 0.69524 0.0
H2870 H 0.33485 0.19439 0.65806 0.0
H2871 H 0.30126 0.16128 0.69895 0.0
H2872 H 0.33557 0.17325 0.68389 0.0
H2873 H 0.3013 0.18779 0.67752 0.0
C2874 C 0.30855 0.19603 0.6644 0.0
C2875 C 0.31791 0.19776 0.65852 0.0
C2876 C 0.32805 0.17075 0.68728 0.0
C2877 C 0.31825 0.18442 0.67643 0.0
C2878 C 0.32785 0.16175 0.6938 0.0
C2879 C 0.31818 0.15799 0.69795 0.0
C2880 C 0.31849 0.176 0.68477 0.0
C2881 C 0.30889 0.16387 0.69587 0.0
C2882 C 0.30869 0.18937 0.67335 0.0
C2883 C 0.32741 0.19319 0.66227 0.0
N2884 N 0.30924 0.1725 0.68929 0.0
N2885 N 0.32731 0.18666 0.67089 0.0
H2886 H 0.84163 0.55096 0.94928 0.0
H2887 H 0.80844 0.58504 0.90711 0.0
H2888 H 0.84525 0.58479 0.94439 0.0
H2889 H 0.80483 0.55106 0.91082 0.0
H2890 H 0.81968 0.58541 0.92293 0.0
H2891 H 0.82605 0.55115 0.9375 0.0
C2892 C 0.83903 0.55846 0.94591 0.0
C2893 C 0.84483 0.56785 0.94773 0.0
C2894 C 0.81634 0.57787 0.92039 0.0
C2895 C 0.82709 0.56811 0.93417 0.0
C2896 C 0.80989 0.57766 0.91135 0.0
C2897 C 0.80578 0.56798 0.90755 0.0
C2898 C 0.81884 0.56832 0.92566 0.0
C2899 C 0.80787 0.55869 0.91344 0.0
C2900 C 0.83016 0.55856 0.93914 0.0
C2901 C 0.8411 0.57733 0.94313 0.0
N2902 N 0.81438 0.55906 0.92211 0.0
N2903 N 0.83255 0.5772 0.93649 0.0
H2904 H 0.45126 0.16104 0.05305 0.0
H2905 H 0.41632 0.19441 0.09437 0.0
H2906 H 0.41743 0.15707 0.05771 0.0
H2907 H 0.45036 0.19804 0.09128 0.0
H2908 H 0.41626 0.18309 0.0786 0.0
H2909 H 0.45076 0.17678 0.06461 0.0
C2910 C 0.44369 0.16359 0.05632 0.0
C2911 C 0.43439 0.15765 0.05452 0.0
C2912 C 0.42374 0.18646 0.08127 0.0
C2913 C 0.43379 0.17558 0.0678 0.0
C2914 C 0.42378 0.19296 0.09027 0.0
C2915 C 0.43338 0.19708 0.09424 0.0
C2916 C 0.4334 0.18393 0.07621 0.0
C2917 C 0.44278 0.19499 0.08853 0.0
C2918 C 0.44343 0.17256 0.06296 0.0
C2919 C 0.42482 0.16133 0.05897 0.0
N2920 N 0.44259 0.18842 0.0799 0.0
N2921 N 0.42479 0.16997 0.06548 0.0
H2922 H 0.80348 0.70147 0.34068 0.0
H2923 H 0.84501 0.66706 0.30701 0.0
H2924 H 0.80838 0.66765 0.34441 0.0
H2925 H 0.84161 0.70108 0.30354 0.0
H2926 H 0.8293 0.66681 0.3184 0.0
H2927 H 0.81504 0.70116 0.32492 0.0
C2928 C 0.80681 0.69395 0.33807 0.0
C2929 C 0.80507 0.68459 0.34395 0.0
C2930 C 0.83188 0.67433 0.31505 0.0
C2931 C 0.81835 0.6842 0.32601 0.0
C2932 C 0.84086 0.67447 0.30852 0.0
C2933 C 0.84472 0.68413 0.30441 0.0
C2934 C 0.82674 0.68393 0.31764 0.0
C2935 C 0.83894 0.69347 0.30657 0.0
C2936 C 0.81344 0.69379 0.3291 0.0
C2937 C 0.80959 0.67508 0.3402 0.0
N2938 N 0.83033 0.69317 0.31317 0.0
N2939 N 0.8161 0.67515 0.33156 0.0
H2940 H 0.33568 0.09508 0.55805 0.0
H2941 H 0.30121 0.05328 0.59131 0.0
H2942 H 0.30172 0.09139 0.55417 0.0
H2943 H 0.33499 0.05826 0.59529 0.0
H2944 H 0.3016 0.06486 0.57558 0.0
H2945 H 0.33593 0.07934 0.56941 0.0
C2946 C 0.32828 0.09086 0.55946 0.0
C2947 C 0.31864 0.09464 0.55525 0.0
C2948 C 0.30895 0.06328 0.5798 0.0
C2949 C 0.31884 0.07664 0.56844 0.0
C2950 C 0.30875 0.05663 0.58876 0.0
C2951 C 0.31806 0.0549 0.5947 0.0
C2952 C 0.31854 0.06822 0.57679 0.0
C2953 C 0.32759 0.05946 0.59103 0.0
C2954 C 0.32843 0.08186 0.56598 0.0
C2955 C 0.30933 0.08878 0.55729 0.0
N2956 N 0.32756 0.06598 0.5824 0.0
N2957 N 0.30963 0.08016 0.56387 0.0
H2958 H 0.94676 0.58589 0.84604 0.0
H2959 H 0.91304 0.55241 0.80379 0.0
H2960 H 0.94979 0.55186 0.84232 0.0
H2961 H 0.909 0.58599 0.80991 0.0
H2962 H 0.92885 0.55246 0.81529 0.0
H2963 H 0.93548 0.58646 0.83027 0.0
C2964 C 0.94518 0.57854 0.84181 0.0
C2965 C 0.94911 0.56879 0.84559 0.0
C2966 C 0.92459 0.55984 0.81397 0.0
C2967 C 0.936 0.56935 0.82756 0.0
C2968 C 0.9156 0.55983 0.80737 0.0
C2969 C 0.90961 0.56918 0.806 0.0
C2970 C 0.92762 0.56928 0.81919 0.0
C2971 C 0.91328 0.57856 0.81084 0.0
C2972 C 0.9387 0.57887 0.83279 0.0
C2973 C 0.94688 0.55954 0.83971 0.0
N2974 N 0.92197 0.57834 0.81729 0.0
N2975 N 0.94033 0.56002 0.83107 0.0
H2976 H 0.19535 0.417 0.09465 0.0
H2977 H 0.1613 0.45101 0.05311 0.0
H2978 H 0.19875 0.451 0.09092 0.0
H2979 H 0.15764 0.41723 0.05833 0.0
H2980 H 0.17715 0.45082 0.06453 0.0
H2981 H 0.18384 0.41659 0.07903 0.0
C2982 C 0.1938 0.42437 0.09045 0.0
C2983 C 0.19792 0.43407 0.09419 0.0
C2984 C 0.17296 0.44342 0.06304 0.0
C2985 C 0.18455 0.4337 0.07632 0.0
C2986 C 0.16394 0.44351 0.05648 0.0
C2987 C 0.15805 0.43414 0.05486 0.0
C2988 C 0.17611 0.43388 0.068 0.0
C2989 C 0.16185 0.42467 0.05944 0.0
C2990 C 0.1872 0.42414 0.08152 0.0
C2991 C 0.19571 0.44335 0.08834 0.0
N2992 N 0.17055 0.42481 0.06587 0.0
N2993 N 0.18904 0.44296 0.07979 0.0
H2994 H 0.66192 0.30234 0.19833 0.0
H2995 H 0.69536 0.3356 0.15563 0.0
H2996 H 0.65759 0.3358 0.19179 0.0
H2997 H 0.69879 0.30166 0.15983 0.0
H2998 H 0.68395 0.33623 0.17131 0.0
H2999 H 0.67767 0.30236 0.18673 0.0
C3000 C 0.6644 0.30973 0.19463 0.0
C3001 C 0.65836 0.31905 0.19592 0.0
C3002 C 0.68728 0.32865 0.16891 0.0
C3003 C 0.67629 0.31912 0.18263 0.0
C3004 C 0.69384 0.32829 0.15995 0.0
C3005 C 0.69793 0.31854 0.15633 0.0
C3006 C 0.68468 0.31917 0.17426 0.0
C3007 C 0.69576 0.30934 0.16232 0.0
C3008 C 0.67336 0.30972 0.18797 0.0
C3009 C 0.66192 0.3284 0.19092 0.0
N3010 N 0.68914 0.30985 0.1709 0.0
N3011 N 0.67057 0.32816 0.18444 0.0
H3012 H 0.70197 0.91107 0.44894 0.0
H3013 H 0.66691 0.94455 0.40771 0.0
H3014 H 0.6683 0.9065 0.44368 0.0
H3015 H 0.70091 0.94841 0.41094 0.0
H3016 H 0.66692 0.93292 0.42326 0.0
H3017 H 0.70137 0.92688 0.43746 0.0
C3018 C 0.69442 0.9135 0.44555 0.0
C3019 C 0.68519 0.90738 0.44718 0.0
C3020 C 0.67437 0.9364 0.42067 0.0
C3021 C 0.68447 0.9254 0.434 0.0
C3022 C 0.67437 0.94308 0.41179 0.0
C3023 C 0.68394 0.94736 0.40793 0.0
C3024 C 0.68404 0.93386 0.42571 0.0
C3025 C 0.69335 0.94524 0.41361 0.0
C3026 C 0.69409 0.9225 0.43896 0.0
C3027 C 0.67564 0.9109 0.44256 0.0
N3028 N 0.69319 0.93851 0.42213 0.0
N3029 N 0.67555 0.91959 0.43612 0.0
H3030 H 0.05377 0.95142 0.66117 0.0
H3031 H 0.09543 0.91739 0.69505 0.0
H3032 H 0.05877 0.91759 0.65766 0.0
H3033 H 0.09168 0.95138 0.69853 0.0
H3034 H 0.07975 0.917 0.68361 0.0
H3035 H 0.06529 0.95124 0.67695 0.0
C3036 C 0.05711 0.94392 0.66383 0.0
C3037 C 0.0554 0.93452 0.658 0.0
C3038 C 0.08225 0.92454 0.68697 0.0
C3039 C 0.06865 0.93428 0.67598 0.0
C3040 C 0.09121 0.92476 0.69353 0.0
C3041 C 0.09496 0.93445 0.69766 0.0
C3042 C 0.07703 0.93409 0.68437 0.0
C3043 C 0.0891 0.94374 0.69548 0.0
C3044 C 0.06373 0.94383 0.67281 0.0
C3045 C 0.05995 0.92505 0.66182 0.0
N3046 N 0.08052 0.94336 0.68885 0.0
N3047 N 0.06644 0.9252 0.67048 0.0
H3048 H 0.55108 0.34185 0.44952 0.0
H3049 H 0.58551 0.30999 0.40672 0.0
H3050 H 0.58486 0.34603 0.44467 0.0
H3051 H 0.55192 0.3045 0.4115 0.0
H3052 H 0.58576 0.32125 0.42251 0.0
H3053 H 0.55154 0.32633 0.43767 0.0
C3054 C 0.55863 0.33938 0.44614 0.0
C3055 C 0.56793 0.34533 0.44799 0.0
C3056 C 0.57834 0.3175 0.42022 0.0
C3057 C 0.56848 0.32766 0.43435 0.0
C3058 C 0.5782 0.31105 0.41118 0.0
C3059 C 0.56865 0.30639 0.40771 0.0
C3060 C 0.56884 0.31947 0.42579 0.0
C3061 C 0.55945 0.30797 0.41388 0.0
C3062 C 0.55888 0.33055 0.43934 0.0
C3063 C 0.57747 0.34177 0.44339 0.0
N3064 N 0.55973 0.31452 0.42253 0.0
N3065 N 0.57748 0.33326 0.43671 0.0
H3066 H 0.05729 0.83608 0.09476 0.0
H3067 H 0.09144 0.80214 0.05325 0.0
H3068 H 0.05399 0.80206 0.09106 0.0
H3069 H 0.09482 0.83598 0.05824 0.0
H3070 H 0.07562 0.80227 0.06472 0.0
H3071 H 0.06877 0.8365 0.07912 0.0
C3072 C 0.05885 0.8287 0.09056 0.0
C3073 C 0.05477 0.819 0.09431 0.0
C3074 C 0.07974 0.80969 0.06317 0.0
C3075 C 0.06811 0.8194 0.07642 0.0
C3076 C 0.08874 0.80963 0.05658 0.0
C3077 C 0.09455 0.81904 0.05488 0.0
C3078 C 0.07653 0.81923 0.06807 0.0
C3079 C 0.09068 0.82851 0.05941 0.0
C3080 C 0.06544 0.82895 0.08162 0.0
C3081 C 0.057 0.80972 0.08847 0.0
N3082 N 0.08201 0.82834 0.06587 0.0
N3083 N 0.06366 0.81012 0.07991 0.0
H3084 H 0.66699 0.84574 0.30639 0.0
H3085 H 0.7008 0.8038 0.34024 0.0
H3086 H 0.70101 0.84204 0.30313 0.0
H3087 H 0.66736 0.8103 0.34481 0.0
H3088 H 0.70058 0.81514 0.32431 0.0
H3089 H 0.66655 0.83014 0.31792 0.0
C3090 C 0.67436 0.84154 0.30797 0.0
C3091 C 0.68407 0.84529 0.3039 0.0
C3092 C 0.69327 0.81395 0.32872 0.0
C3093 C 0.68366 0.82746 0.31729 0.0
C3094 C 0.69338 0.80744 0.33778 0.0
C3095 C 0.68412 0.80621 0.34393 0.0
C3096 C 0.68382 0.81921 0.3258 0.0
C3097 C 0.67472 0.81112 0.34039 0.0
C3098 C 0.67411 0.83263 0.31459 0.0
C3099 C 0.69335 0.83945 0.30615 0.0
N3100 N 0.67484 0.81746 0.33163 0.0
N3101 N 0.69295 0.83091 0.31283 0.0
H3102 H 0.05077 0.4489 0.841 0.0
H3103 H 0.08553 0.40782 0.80715 0.0
H3104 H 0.08462 0.44423 0.84476 0.0
H3105 H 0.05149 0.41102 0.80363 0.0
H3106 H 0.08566 0.4235 0.8186 0.0
H3107 H 0.05119 0.43747 0.82516 0.0
C3108 C 0.05832 0.44565 0.83838 0.0
C3109 C 0.06765 0.44741 0.8443 0.0
C3110 C 0.07816 0.42088 0.81523 0.0
C3111 C 0.06817 0.43428 0.82625 0.0
C3112 C 0.07809 0.41193 0.80866 0.0
C3113 C 0.06847 0.40802 0.80453 0.0
C3114 C 0.06852 0.42594 0.81783 0.0
C3115 C 0.05909 0.41373 0.80669 0.0
C3116 C 0.05855 0.43908 0.82936 0.0
C3117 C 0.0772 0.44299 0.84053 0.0
N3118 N 0.05932 0.42231 0.81333 0.0
N3119 N 0.07719 0.43655 0.83184 0.0
H3120 H 0.94965 0.84159 0.55048 0.0
H3121 H 0.90721 0.80813 0.58395 0.0
H3122 H 0.94438 0.84502 0.58428 0.0
H3123 H 0.91144 0.80449 0.55004 0.0
H3124 H 0.92294 0.81947 0.58454 0.0
H3125 H 0.93792 0.82596 0.55048 0.0
C3126 C 0.94621 0.83894 0.55794 0.0
C3127 C 0.9479 0.8447 0.56737 0.0
C3128 C 0.92054 0.8161 0.57697 0.0
C3129 C 0.93441 0.82691 0.56741 0.0
C3130 C 0.91154 0.8096 0.57663 0.0
C3131 C 0.90792 0.80545 0.56691 0.0
C3132 C 0.92593 0.81862 0.56749 0.0
C3133 C 0.91393 0.80756 0.5577 0.0
C3134 C 0.93947 0.83004 0.55792 0.0
C3135 C 0.94322 0.84091 0.57679 0.0
N3136 N 0.92255 0.81413 0.55819 0.0
N3137 N 0.93661 0.83234 0.57654 0.0
H3138 H 0.16062 0.69947 0.30077 0.0
H3139 H 0.19287 0.65728 0.33558 0.0
H3140 H 0.15646 0.6948 0.33457 0.0
H3141 H 0.19795 0.66148 0.30185 0.0
H3142 H 0.18164 0.6731 0.3357 0.0
H3143 H 0.17627 0.68778 0.30132 0.0
C3144 C 0.16312 0.69617 0.30834 0.0
C3145 C 0.15714 0.69801 0.31762 0.0
C3146 C 0.1853 0.67067 0.32828 0.0
C3147 C 0.17495 0.68457 0.31829 0.0
C3148 C 0.19173 0.66163 0.32821 0.0
C3149 C 0.19625 0.65798 0.31867 0.0
C3150 C 0.18321 0.67607 0.3187 0.0
C3151 C 0.19459 0.664 0.30938 0.0
C3152 C 0.17203 0.68946 0.30864 0.0
C3153 C 0.16074 0.69351 0.3272 0.0
N3154 N 0.18805 0.67266 0.30959 0.0
N3155 N 0.16932 0.68693 0.32726 0.0
H3156 H 0.34137 0.94944 0.05094 0.0
H3157 H 0.30764 0.90801 0.0854 0.0
H3158 H 0.34503 0.94468 0.08479 0.0
H3159 H 0.30409 0.91146 0.05139 0.0
H3160 H 0.31906 0.92371 0.08563 0.0
H3161 H 0.3256 0.93791 0.05126 0.0
C3162 C 0.33874 0.94615 0.05847 0.0
C3163 C 0.34461 0.94792 0.06783 0.0
C3164 C 0.31569 0.92114 0.07812 0.0
C3165 C 0.32664 0.93467 0.06824 0.0
C3166 C 0.30914 0.91217 0.07799 0.0
C3167 C 0.305 0.90833 0.06834 0.0
C3168 C 0.31826 0.92629 0.06852 0.0
C3169 C 0.30715 0.91412 0.059 0.0
C3170 C 0.32976 0.93953 0.05864 0.0
C3171 C 0.34083 0.94344 0.07735 0.0
N3172 N 0.31377 0.92271 0.05929 0.0
N3173 N 0.33218 0.93695 0.07729 0.0
H3174 H 0.0921 0.69958 0.95281 0.0
H3175 H 0.05823 0.65822 0.91833 0.0
H3176 H 0.09616 0.69432 0.91908 0.0
H3177 H 0.05461 0.66175 0.95233 0.0
H3178 H 0.06983 0.67378 0.91811 0.0
H3179 H 0.07626 0.68814 0.95244 0.0
C3180 C 0.08955 0.69619 0.94529 0.0
C3181 C 0.09554 0.69781 0.93598 0.0
C3182 C 0.06641 0.67126 0.92562 0.0
C3183 C 0.07749 0.68467 0.93552 0.0
C3184 C 0.05974 0.66237 0.92574 0.0
C3185 C 0.05554 0.65859 0.93538 0.0
C3186 C 0.06901 0.67638 0.93523 0.0
C3187 C 0.05772 0.66436 0.94472 0.0
C3188 C 0.08053 0.68962 0.9451 0.0
C3189 C 0.09187 0.69321 0.92648 0.0
N3190 N 0.06444 0.67288 0.94444 0.0
N3191 N 0.08316 0.68678 0.92652 0.0
H3192 H 0.30752 0.84532 0.667 0.0
H3193 H 0.34117 0.80339 0.70092 0.0
H3194 H 0.30403 0.8415 0.70098 0.0
H3195 H 0.34469 0.80841 0.66709 0.0
H3196 H 0.32546 0.81499 0.70077 0.0
H3197 H 0.31887 0.82958 0.66656 0.0
C3198 C 0.30902 0.84107 0.67437 0.0
C3199 C 0.30492 0.84481 0.68407 0.0
C3200 C 0.32958 0.81342 0.69336 0.0
C3201 C 0.3181 0.82681 0.68365 0.0
C3202 C 0.33852 0.80675 0.69342 0.0
C3203 C 0.34434 0.80503 0.68402 0.0
C3204 C 0.32644 0.81838 0.68382 0.0
C3205 C 0.34054 0.80961 0.67455 0.0
C3206 C 0.31553 0.83207 0.67411 0.0
C3207 C 0.30706 0.83892 0.69333 0.0
N3208 N 0.33192 0.81614 0.67472 0.0
N3209 N 0.31364 0.8303 0.69292 0.0
H3210 H 0.19472 0.09598 0.41759 0.0
H3211 H 0.16161 0.05357 0.45153 0.0
H3212 H 0.19867 0.09183 0.45148 0.0
H3213 H 0.15751 0.05905 0.41784 0.0
H3214 H 0.17722 0.06532 0.4513 0.0
H3215 H 0.18326 0.08032 0.41717 0.0
C3216 C 0.1933 0.09168 0.42494 0.0
C3217 C 0.19757 0.09531 0.43461 0.0
C3218 C 0.17299 0.06382 0.44394 0.0
C3219 C 0.18427 0.07738 0.43422 0.0
C3220 C 0.16411 0.05707 0.44405 0.0
C3221 C 0.15817 0.05541 0.43471 0.0
C3222 C 0.17594 0.06894 0.43442 0.0
C3223 C 0.16177 0.06018 0.42526 0.0
C3224 C 0.18672 0.08273 0.4247 0.0
C3225 C 0.19551 0.08935 0.44386 0.0
N3226 N 0.17033 0.06679 0.42538 0.0
N3227 N 0.18887 0.08076 0.44346 0.0
H3228 H 0.54992 0.94904 0.84132 0.0
H3229 H 0.5835 0.90707 0.80734 0.0
H3230 H 0.58375 0.94388 0.8446 0.0
H3231 H 0.54946 0.91077 0.80429 0.0
H3232 H 0.58403 0.92278 0.81872 0.0
H3233 H 0.5499 0.93737 0.82564 0.0
C3234 C 0.55737 0.94563 0.83862 0.0
C3235 C 0.56683 0.94734 0.84436 0.0
C3236 C 0.57644 0.92026 0.81547 0.0
C3237 C 0.56684 0.93393 0.8265 0.0
C3238 C 0.57614 0.91128 0.80894 0.0
C3239 C 0.5664 0.90751 0.80495 0.0
C3240 C 0.56692 0.92549 0.81817 0.0
C3241 C 0.55714 0.91337 0.80723 0.0
C3242 C 0.55735 0.93893 0.8297 0.0
C3243 C 0.57624 0.9427 0.84051 0.0
N3244 N 0.5576 0.92198 0.81382 0.0
N3245 N 0.57599 0.93614 0.83191 0.0
H3246 H 0.09594 0.33599 0.55668 0.0
H3247 H 0.05377 0.30247 0.59049 0.0
H3248 H 0.09187 0.30203 0.55327 0.0
H3249 H 0.06013 0.33598 0.59476 0.0
H3250 H 0.06514 0.30259 0.57458 0.0
H3251 H 0.08031 0.33655 0.56816 0.0
C3252 C 0.09165 0.32866 0.55822 0.0
C3253 C 0.0953 0.31893 0.55412 0.0
C3254 C 0.0639 0.30994 0.57891 0.0
C3255 C 0.07743 0.31948 0.56745 0.0
C3256 C 0.05738 0.30989 0.58796 0.0
C3257 C 0.05611 0.3192 0.59404 0.0
C3258 C 0.06915 0.31938 0.57592 0.0
C3259 C 0.06098 0.32858 0.59041 0.0
C3260 C 0.08272 0.32898 0.56481 0.0
C3261 C 0.08936 0.3097 0.55631 0.0
N3262 N 0.06735 0.3284 0.58167 0.0
N3263 N 0.0808 0.31017 0.56297 0.0
H3264 H 0.55101 0.84209 0.95059 0.0
H3265 H 0.58577 0.80944 0.90868 0.0
H3266 H 0.58476 0.84637 0.94569 0.0
H3267 H 0.55206 0.80438 0.91301 0.0
H3268 H 0.58593 0.82083 0.92438 0.0
H3269 H 0.55158 0.82629 0.93911 0.0
C3270 C 0.55857 0.83959 0.94728 0.0
C3271 C 0.56783 0.84565 0.94899 0.0
C3272 C 0.5785 0.81714 0.92201 0.0
C3273 C 0.56853 0.82766 0.93579 0.0
C3274 C 0.57842 0.81061 0.91304 0.0
C3275 C 0.56886 0.80605 0.90945 0.0
C3276 C 0.56893 0.81929 0.92741 0.0
C3277 C 0.55959 0.80777 0.91548 0.0
C3278 C 0.55889 0.8306 0.94069 0.0
C3279 C 0.57741 0.84203 0.9445 0.0
N3280 N 0.55982 0.8144 0.92407 0.0
N3281 N 0.57748 0.83337 0.93803 0.0
H3282 H 0.199 0.30012 0.6612 0.0
H3283 H 0.15709 0.33431 0.69461 0.0
H3284 H 0.1941 0.33395 0.65754 0.0
H3285 H 0.16097 0.30038 0.69849 0.0
H3286 H 0.17278 0.33464 0.68319 0.0
H3287 H 0.18734 0.30036 0.67688 0.0
C3288 C 0.19565 0.30763 0.66381 0.0
C3289 C 0.19743 0.31701 0.65797 0.0
C3290 C 0.17031 0.32712 0.68663 0.0
C3291 C 0.18401 0.31733 0.67582 0.0
C3292 C 0.16134 0.32693 0.69318 0.0
C3293 C 0.15763 0.31728 0.69742 0.0
C3294 C 0.17558 0.31756 0.68416 0.0
C3295 C 0.16353 0.30799 0.69535 0.0
C3296 C 0.18895 0.30776 0.67273 0.0
C3297 C 0.19286 0.3265 0.66172 0.0
N3298 N 0.17212 0.30834 0.68873 0.0
N3299 N 0.18629 0.32639 0.67031 0.0
H3300 H 0.09099 0.45169 0.19855 0.0
H3301 H 0.05656 0.41734 0.15763 0.0
H3302 H 0.09427 0.41779 0.19393 0.0
H3303 H 0.05353 0.45144 0.16079 0.0
H3304 H 0.06801 0.41707 0.1733 0.0
H3305 H 0.07509 0.45146 0.18719 0.0
C3306 C 0.08825 0.44417 0.19533 0.0
C3307 C 0.09405 0.43476 0.19709 0.0
C3308 C 0.06475 0.42461 0.17067 0.0
C3309 C 0.07594 0.43446 0.18403 0.0
C3310 C 0.05817 0.42477 0.16172 0.0
C3311 C 0.05418 0.43444 0.1578 0.0
C3312 C 0.06749 0.43422 0.17571 0.0
C3313 C 0.05648 0.4438 0.1635 0.0
C3314 C 0.0792 0.44405 0.18881 0.0
C3315 C 0.09014 0.42525 0.1927 0.0
N3316 N 0.06312 0.44348 0.17208 0.0
N3317 N 0.08142 0.42537 0.1863 0.0
H3318 H 0.30368 0.70049 0.84056 0.0
H3319 H 0.34604 0.66724 0.80668 0.0
H3320 H 0.3104 0.66706 0.84497 0.0
H3321 H 0.34174 0.70117 0.80328 0.0
H3322 H 0.3305 0.66659 0.81827 0.0
H3323 H 0.31506 0.70044 0.82467 0.0
C3324 C 0.30737 0.6931 0.83808 0.0
C3325 C 0.30619 0.68379 0.84417 0.0
C3326 C 0.33284 0.67418 0.8149 0.0
C3327 C 0.31925 0.68369 0.82607 0.0
C3328 C 0.34172 0.67455 0.80824 0.0
C3329 C 0.34529 0.6843 0.80411 0.0
C3330 C 0.3275 0.68364 0.81757 0.0
C3331 C 0.3393 0.69349 0.80634 0.0
C3332 C 0.31391 0.69308 0.82903 0.0
C3333 C 0.31118 0.67445 0.84059 0.0
N3334 N 0.33079 0.69297 0.81306 0.0
N3335 N 0.31755 0.67467 0.83185 0.0
H3336 H 0.94428 0.08432 0.3457 0.0
H3337 H 0.91114 0.0505 0.30328 0.0
H3338 H 0.94809 0.0504 0.3416 0.0
H3339 H 0.90748 0.0843 0.3084 0.0
H3340 H 0.92673 0.05064 0.31505 0.0
H3341 H 0.93299 0.08479 0.32992 0.0
C3342 C 0.94286 0.07698 0.34139 0.0
C3343 C 0.94704 0.06728 0.34506 0.0
C3344 C 0.92261 0.05805 0.31346 0.0
C3345 C 0.93393 0.06774 0.327 0.0
C3346 C 0.91373 0.05799 0.3067 0.0
C3347 C 0.90791 0.06738 0.30495 0.0
C3348 C 0.92567 0.06758 0.31849 0.0
C3349 C 0.91164 0.07684 0.3096 0.0
C3350 C 0.93638 0.07725 0.33237 0.0
C3351 C 0.94499 0.05805 0.33908 0.0
N3352 N 0.92019 0.07667 0.31623 0.0
N3353 N 0.93845 0.05847 0.33043 0.0
H3354 H 0.45224 0.66164 0.5533 0.0
H3355 H 0.41772 0.69592 0.59418 0.0
H3356 H 0.41833 0.65829 0.55783 0.0
H3357 H 0.45181 0.69905 0.59111 0.0
H3358 H 0.41752 0.68451 0.57849 0.0
H3359 H 0.45196 0.67753 0.56466 0.0
C3360 C 0.44471 0.66436 0.5565 0.0
C3361 C 0.43532 0.65854 0.55472 0.0
C3362 C 0.42505 0.68779 0.58113 0.0
C3363 C 0.43495 0.67665 0.56779 0.0
C3364 C 0.42516 0.69434 0.5901 0.0
C3365 C 0.43482 0.69835 0.59405 0.0
C3366 C 0.43467 0.68508 0.57611 0.0
C3367 C 0.44419 0.69609 0.58837 0.0
C3368 C 0.44456 0.67341 0.56303 0.0
C3369 C 0.42579 0.66244 0.55908 0.0
N3370 N 0.44391 0.68947 0.57978 0.0
N3371 N 0.42587 0.67116 0.56549 0.0
H3372 H 0.90901 0.16658 0.94429 0.0
H3373 H 0.95036 0.20162 0.91131 0.0
H3374 H 0.91247 0.2005 0.94866 0.0
H3375 H 0.94651 0.16763 0.90792 0.0
H3376 H 0.93881 0.20113 0.92706 0.0
H3377 H 0.92491 0.16654 0.93318 0.0
C3378 C 0.91321 0.17402 0.94303 0.0
C3379 C 0.90933 0.18358 0.9473 0.0
C3380 C 0.94064 0.19376 0.92297 0.0
C3381 C 0.92751 0.18364 0.93438 0.0
C3382 C 0.94728 0.19403 0.914 0.0
C3383 C 0.94928 0.18467 0.9082 0.0
C3384 C 0.936 0.18406 0.92612 0.0
C3385 C 0.94507 0.17506 0.91205 0.0
C3386 C 0.92231 0.17399 0.93666 0.0
C3387 C 0.91517 0.19295 0.94548 0.0
N3388 N 0.93854 0.17503 0.92068 0.0
N3389 N 0.92388 0.19278 0.93901 0.0
H3390 H 0.95213 0.55314 0.16126 0.0
H3391 H 0.91764 0.59449 0.19503 0.0
H3392 H 0.91825 0.55776 0.15773 0.0
H3393 H 0.95167 0.59113 0.19853 0.0
H3394 H 0.91742 0.57877 0.18366 0.0
H3395 H 0.95182 0.56466 0.17704 0.0
C3396 C 0.9446 0.5564 0.16392 0.0
C3397 C 0.93522 0.55459 0.15809 0.0
C3398 C 0.92493 0.58136 0.18701 0.0
C3399 C 0.93483 0.56784 0.17606 0.0
C3400 C 0.92506 0.59035 0.19353 0.0
C3401 C 0.93471 0.59422 0.19764 0.0
C3402 C 0.93454 0.57623 0.18443 0.0
C3403 C 0.94406 0.58845 0.19549 0.0
C3404 C 0.94443 0.56301 0.17291 0.0
C3405 C 0.92569 0.55903 0.1619 0.0
N3406 N 0.94377 0.57984 0.1889 0.0
N3407 N 0.92577 0.56552 0.17055 0.0
H3408 H 0.80339 0.84109 0.20149 0.0
H3409 H 0.84502 0.8073 0.16734 0.0
H3410 H 0.80849 0.84481 0.1677 0.0
H3411 H 0.8414 0.80385 0.20134 0.0
H3412 H 0.82934 0.81873 0.16699 0.0
H3413 H 0.8149 0.8253 0.20126 0.0
C3414 C 0.80675 0.83847 0.19399 0.0
C3415 C 0.80507 0.84436 0.18463 0.0
C3416 C 0.83187 0.81538 0.17453 0.0
C3417 C 0.81831 0.82638 0.18431 0.0
C3418 C 0.84083 0.80882 0.17472 0.0
C3419 C 0.84462 0.80471 0.1844 0.0
C3420 C 0.82668 0.81798 0.1841 0.0
C3421 C 0.83879 0.80688 0.19371 0.0
C3422 C 0.81336 0.82948 0.19387 0.0
C3423 C 0.80965 0.8406 0.17514 0.0
N3424 N 0.8302 0.81351 0.19335 0.0
N3425 N 0.81613 0.83194 0.17525 0.0
H3426 H 0.66152 0.5537 0.45127 0.0
H3427 H 0.69471 0.59594 0.41724 0.0
H3428 H 0.65736 0.55918 0.41759 0.0
H3429 H 0.6988 0.59172 0.45111 0.0
H3430 H 0.68321 0.58031 0.41684 0.0
H3431 H 0.67721 0.56533 0.45099 0.0
C3432 C 0.66402 0.55717 0.44378 0.0
C3433 C 0.65804 0.55556 0.43447 0.0
C3434 C 0.68671 0.5827 0.42436 0.0
C3435 C 0.67591 0.56894 0.4341 0.0
C3436 C 0.69331 0.59163 0.42458 0.0
C3437 C 0.69764 0.59522 0.43424 0.0
C3438 C 0.68428 0.57734 0.43388 0.0
C3439 C 0.6956 0.58925 0.44349 0.0
C3440 C 0.67295 0.56385 0.44363 0.0
C3441 C 0.66165 0.56028 0.42499 0.0
N3442 N 0.68894 0.58069 0.44311 0.0
N3443 N 0.67026 0.56683 0.42508 0.0
H3444 H 0.9434 0.40811 0.667 0.0
H3445 H 0.91086 0.45003 0.70183 0.0
H3446 H 0.9484 0.41229 0.70074 0.0
H3447 H 0.90671 0.44535 0.66803 0.0
H3448 H 0.92662 0.43849 0.70126 0.0
H3449 H 0.93211 0.42388 0.66687 0.0
C3450 C 0.94224 0.41244 0.67437 0.0
C3451 C 0.94675 0.4088 0.68392 0.0
C3452 C 0.92236 0.44014 0.69394 0.0
C3453 C 0.93363 0.42684 0.68388 0.0
C3454 C 0.91338 0.44676 0.69426 0.0
C3455 C 0.90737 0.44854 0.68499 0.0
C3456 C 0.92532 0.43528 0.68429 0.0
C3457 C 0.91102 0.44409 0.6754 0.0
C3458 C 0.93577 0.42147 0.6743 0.0
C3459 C 0.94505 0.4148 0.69321 0.0
N3460 N 0.91966 0.43759 0.67533 0.0
N3461 N 0.93848 0.42344 0.69299 0.0
H3462 H 0.09137 0.55299 0.30026 0.0
H3463 H 0.05799 0.59452 0.33502 0.0
H3464 H 0.09572 0.5582 0.33396 0.0
H3465 H 0.05406 0.59099 0.30105 0.0
H3466 H 0.06955 0.57893 0.33514 0.0
H3467 H 0.0756 0.56453 0.30076 0.0
C3468 C 0.0889 0.55639 0.3078 0.0
C3469 C 0.09495 0.55473 0.31706 0.0
C3470 C 0.06606 0.58145 0.32766 0.0
C3471 C 0.07699 0.56798 0.31767 0.0
C3472 C 0.05943 0.59037 0.32759 0.0
C3473 C 0.05515 0.59415 0.31799 0.0
C3474 C 0.06856 0.57631 0.31804 0.0
C3475 C 0.05723 0.58838 0.30864 0.0
C3476 C 0.07992 0.56301 0.30807 0.0
C3477 C 0.09138 0.55934 0.3266 0.0
N3478 N 0.06392 0.57983 0.30886 0.0
N3479 N 0.08272 0.56582 0.32663 0.0
H3480 H 0.66199 0.69906 0.80265 0.0
H3481 H 0.69575 0.65643 0.83566 0.0
H3482 H 0.6579 0.6925 0.83614 0.0
H3483 H 0.69902 0.66073 0.80172 0.0
H3484 H 0.68432 0.67208 0.83639 0.0
H3485 H 0.67779 0.68754 0.80257 0.0
C3486 C 0.66453 0.69537 0.81002 0.0
C3487 C 0.65854 0.69663 0.81939 0.0
C3488 C 0.68762 0.66971 0.82878 0.0
C3489 C 0.67653 0.68342 0.81934 0.0
C3490 C 0.69419 0.66077 0.82837 0.0
C3491 C 0.69824 0.65718 0.81859 0.0
C3492 C 0.68496 0.67509 0.81933 0.0
C3493 C 0.69602 0.66319 0.80942 0.0
C3494 C 0.67352 0.68876 0.80996 0.0
C3495 C 0.66219 0.69165 0.8287 0.0
N3496 N 0.68938 0.67177 0.80998 0.0
N3497 N 0.67086 0.6852 0.82842 0.0
H3498 H 0.80382 0.41155 0.0505 0.0
H3499 H 0.8451 0.44525 0.0852 0.0
H3500 H 0.80893 0.4074 0.08423 0.0
H3501 H 0.84166 0.44896 0.0512 0.0
H3502 H 0.82948 0.43372 0.08535 0.0
H3503 H 0.81521 0.42742 0.05096 0.0
C3504 C 0.80716 0.41409 0.05804 0.0
C3505 C 0.80552 0.40806 0.06732 0.0
C3506 C 0.83203 0.43715 0.07786 0.0
C3507 C 0.81862 0.42613 0.06789 0.0
C3508 C 0.84095 0.44377 0.07777 0.0
C3509 C 0.84478 0.44798 0.06815 0.0
C3510 C 0.82692 0.43459 0.06823 0.0
C3511 C 0.83902 0.44585 0.05879 0.0
C3512 C 0.8137 0.42312 0.05829 0.0
C3513 C 0.81006 0.41172 0.07686 0.0
N3514 N 0.83047 0.43916 0.05904 0.0
N3515 N 0.81647 0.42043 0.07687 0.0
H3516 H 0.45106 0.55318 0.66113 0.0
H3517 H 0.41723 0.59526 0.69464 0.0
H3518 H 0.41722 0.55817 0.65769 0.0
H3519 H 0.4512 0.59139 0.69815 0.0
H3520 H 0.41675 0.57945 0.68339 0.0
H3521 H 0.45095 0.56482 0.67682 0.0
C3522 C 0.44357 0.55654 0.66379 0.0
C3523 C 0.43416 0.5548 0.658 0.0
C3524 C 0.42431 0.58195 0.68672 0.0
C3525 C 0.43399 0.56819 0.67587 0.0
C3526 C 0.42458 0.59099 0.69317 0.0
C3527 C 0.43429 0.59474 0.69725 0.0
C3528 C 0.43384 0.57665 0.68417 0.0
C3529 C 0.44355 0.58881 0.69514 0.0
C3530 C 0.44352 0.56322 0.67273 0.0
C3531 C 0.4247 0.55937 0.66182 0.0
N3532 N 0.44312 0.58015 0.68861 0.0
N3533 N 0.42488 0.56593 0.67042 0.0
H3534 H 0.33497 0.65753 0.19502 0.0
H3535 H 0.30061 0.69929 0.16164 0.0
H3536 H 0.30096 0.66101 0.19859 0.0
H3537 H 0.33446 0.69453 0.15799 0.0
H3538 H 0.3009 0.68767 0.17734 0.0
H3539 H 0.33525 0.67335 0.18378 0.0
C3540 C 0.32757 0.66172 0.19357 0.0
C3541 C 0.31791 0.65786 0.19765 0.0
C3542 C 0.30829 0.68931 0.17319 0.0
C3543 C 0.31814 0.67595 0.18459 0.0
C3544 C 0.30813 0.69598 0.16426 0.0
C3545 C 0.3175 0.69778 0.15841 0.0
C3546 C 0.31787 0.68441 0.17629 0.0
C3547 C 0.32702 0.69327 0.16217 0.0
C3548 C 0.32773 0.67077 0.18712 0.0
C3549 C 0.30859 0.66368 0.19557 0.0
N3550 N 0.32693 0.68672 0.17078 0.0
N3551 N 0.3089 0.67235 0.18904 0.0
H3552 H 0.84041 0.0521 0.44916 0.0
H3553 H 0.80629 0.08502 0.40678 0.0
H3554 H 0.84416 0.08567 0.4428 0.0
H3555 H 0.80344 0.05101 0.41086 0.0
H3556 H 0.81763 0.08579 0.42251 0.0
H3557 H 0.82454 0.05195 0.43774 0.0
C3558 C 0.83778 0.05948 0.44554 0.0
C3559 C 0.8437 0.06889 0.44682 0.0
C3560 C 0.81443 0.07816 0.42007 0.0
C3561 C 0.82563 0.06876 0.43372 0.0
C3562 C 0.80792 0.07772 0.41109 0.0
C3563 C 0.80402 0.06791 0.40741 0.0
C3564 C 0.8172 0.06871 0.42539 0.0
C3565 C 0.80633 0.05873 0.41338 0.0
C3566 C 0.82875 0.05938 0.43899 0.0
C3567 C 0.83993 0.07821 0.44193 0.0
N3568 N 0.81291 0.05932 0.42199 0.0
N3569 N 0.83122 0.07788 0.43553 0.0
H3570 H 0.80837 0.16596 0.84608 0.0
H3571 H 0.84157 0.2001 0.80398 0.0
H3572 H 0.80444 0.19987 0.84211 0.0
H3573 H 0.8455 0.16634 0.80913 0.0
H3574 H 0.82589 0.19982 0.81562 0.0
H3575 H 0.81974 0.16559 0.83036 0.0
C3576 C 0.80977 0.17332 0.84181 0.0
C3577 C 0.80554 0.18298 0.8455 0.0
C3578 C 0.83009 0.19244 0.81406 0.0
C3579 C 0.81875 0.18266 0.82751 0.0
C3580 C 0.83902 0.19259 0.80738 0.0
C3581 C 0.84494 0.18325 0.80568 0.0
C3582 C 0.82707 0.18289 0.81907 0.0
C3583 C 0.84126 0.17376 0.81031 0.0
C3584 C 0.8163 0.17311 0.83282 0.0
C3585 C 0.80758 0.19225 0.83957 0.0
N3586 N 0.83265 0.17385 0.81686 0.0
N3587 N 0.81417 0.19189 0.83095 0.0
H3588 H 0.33531 0.55762 0.09441 0.0
H3589 H 0.30103 0.59153 0.05296 0.0
H3590 H 0.30131 0.55407 0.09076 0.0
H3591 H 0.33477 0.59547 0.05824 0.0
H3592 H 0.30135 0.57564 0.06434 0.0
H3593 H 0.33562 0.56915 0.0788 0.0
C3594 C 0.32792 0.55913 0.09022 0.0
C3595 C 0.31825 0.55497 0.09398 0.0
C3596 C 0.30871 0.5799 0.06286 0.0
C3597 C 0.31851 0.56836 0.07613 0.0
C3598 C 0.30854 0.58894 0.05633 0.0
C3599 C 0.31786 0.59492 0.05475 0.0
C3600 C 0.31827 0.57682 0.06783 0.0
C3601 C 0.32736 0.59119 0.05933 0.0
C3602 C 0.32809 0.56575 0.0813 0.0
C3603 C 0.30894 0.55715 0.08817 0.0
N3604 N 0.32729 0.58247 0.06573 0.0
N3605 N 0.30927 0.56383 0.07962 0.0
H3606 H 0.19526 0.91734 0.59484 0.0
H3607 H 0.16166 0.95156 0.55312 0.0
H3608 H 0.19882 0.95133 0.59124 0.0
H3609 H 0.15811 0.91771 0.55794 0.0
H3610 H 0.17737 0.95133 0.56474 0.0
H3611 H 0.18391 0.91702 0.5791 0.0
C3612 C 0.19378 0.92473 0.59064 0.0
C3613 C 0.1979 0.9344 0.59445 0.0
C3614 C 0.17325 0.94393 0.56311 0.0
C3615 C 0.18471 0.93412 0.57644 0.0
C3616 C 0.1643 0.94405 0.55644 0.0
C3617 C 0.15848 0.93466 0.55465 0.0
C3618 C 0.17637 0.93436 0.56801 0.0
C3619 C 0.16227 0.92517 0.55918 0.0
C3620 C 0.18727 0.92455 0.58165 0.0
C3621 C 0.19577 0.94371 0.58861 0.0
N3622 N 0.17088 0.92528 0.56572 0.0
N3623 N 0.18919 0.94337 0.57999 0.0
H3624 H 0.65654 0.83559 0.6962 0.0
H3625 H 0.69855 0.80204 0.66221 0.0
H3626 H 0.66044 0.8016 0.69944 0.0
H3627 H 0.69232 0.8356 0.65809 0.0
H3628 H 0.68716 0.80213 0.6781 0.0
H3629 H 0.67216 0.83613 0.6847 0.0
C3630 C 0.66078 0.82825 0.69462 0.0
C3631 C 0.65709 0.81852 0.69868 0.0
C3632 C 0.68842 0.8095 0.6738 0.0
C3633 C 0.67495 0.81904 0.68532 0.0
C3634 C 0.69496 0.80946 0.66476 0.0
C3635 C 0.69628 0.8188 0.65874 0.0
C3636 C 0.68322 0.81894 0.67684 0.0
C3637 C 0.69143 0.82818 0.6624 0.0
C3638 C 0.66971 0.82855 0.68802 0.0
C3639 C 0.66298 0.80927 0.69644 0.0
N3640 N 0.68505 0.82798 0.67113 0.0
N3641 N 0.67153 0.80973 0.68976 0.0
H3642 H 0.70043 0.41206 0.94874 0.0
H3643 H 0.66733 0.44519 0.90566 0.0
H3644 H 0.66698 0.40768 0.94213 0.0
H3645 H 0.70123 0.44877 0.91009 0.0
H3646 H 0.66664 0.43382 0.92137 0.0
H3647 H 0.70044 0.42771 0.93702 0.0
C3648 C 0.69305 0.4145 0.945 0.0
C3649 C 0.68371 0.40847 0.94631 0.0
C3650 C 0.67423 0.43718 0.91901 0.0
C3651 C 0.68369 0.4263 0.93287 0.0
C3652 C 0.67462 0.44371 0.91003 0.0
C3653 C 0.68438 0.44784 0.90647 0.0
C3654 C 0.68367 0.43463 0.92445 0.0
C3655 C 0.69355 0.44571 0.91253 0.0
C3656 C 0.69307 0.42341 0.93827 0.0
C3657 C 0.67439 0.412 0.94126 0.0
N3658 N 0.693 0.43912 0.92114 0.0
N3659 N 0.67464 0.4206 0.9347 0.0
H3660 H 0.66656 0.34477 0.81047 0.0
H3661 H 0.70131 0.30244 0.84269 0.0
H3662 H 0.70013 0.33999 0.80486 0.0
H3663 H 0.66772 0.30787 0.84756 0.0
H3664 H 0.70066 0.31401 0.82695 0.0
H3665 H 0.66643 0.32921 0.82204 0.0
C3666 C 0.67389 0.34035 0.81156 0.0
C3667 C 0.68339 0.34376 0.80678 0.0
C3668 C 0.6934 0.31253 0.83138 0.0
C3669 C 0.68336 0.32595 0.82022 0.0
C3670 C 0.69376 0.30589 0.84034 0.0
C3671 C 0.68458 0.30429 0.84653 0.0
C3672 C 0.6838 0.31759 0.82861 0.0
C3673 C 0.67502 0.30897 0.84311 0.0
C3674 C 0.67382 0.33145 0.8182 0.0
C3675 C 0.69263 0.33765 0.80842 0.0
N3676 N 0.67491 0.31548 0.83447 0.0
N3677 N 0.69242 0.32913 0.81514 0.0
H3678 H 0.05137 0.94913 0.34171 0.0
H3679 H 0.08534 0.90752 0.30767 0.0
H3680 H 0.08516 0.94394 0.34533 0.0
H3681 H 0.05136 0.91136 0.30418 0.0
H3682 H 0.08575 0.9231 0.31924 0.0
H3683 H 0.05154 0.93764 0.3259 0.0
C3684 C 0.05886 0.94575 0.33907 0.0
C3685 C 0.06825 0.9474 0.34493 0.0
C3686 C 0.0782 0.92064 0.31586 0.0
C3687 C 0.06848 0.93419 0.32692 0.0
C3688 C 0.07797 0.91174 0.30921 0.0
C3689 C 0.06828 0.90805 0.30504 0.0
C3690 C 0.06866 0.92586 0.31848 0.0
C3691 C 0.059 0.9139 0.30726 0.0
C3692 C 0.05894 0.93916 0.33007 0.0
C3693 C 0.07771 0.9428 0.34114 0.0
N3694 N 0.05939 0.92243 0.31396 0.0
N3695 N 0.07756 0.93634 0.33246 0.0
H3696 H 0.19946 0.16135 0.80149 0.0
H3697 H 0.15808 0.19483 0.83622 0.0
H3698 H 0.19482 0.15754 0.83534 0.0
H3699 H 0.16142 0.19854 0.80221 0.0
H3700 H 0.17382 0.18347 0.83637 0.0
H3701 H 0.18793 0.17711 0.80192 0.0
C3702 C 0.1962 0.16394 0.80904 0.0
C3703 C 0.198 0.15803 0.81837 0.0
C3704 C 0.17122 0.18687 0.82887 0.0
C3705 C 0.18474 0.17599 0.8189 0.0
C3706 C 0.16223 0.19338 0.82879 0.0
C3707 C 0.15834 0.19754 0.81917 0.0
C3708 C 0.17634 0.18435 0.81924 0.0
C3709 C 0.16411 0.19546 0.80981 0.0
C3710 C 0.18958 0.17292 0.80927 0.0
C3711 C 0.19356 0.16177 0.82793 0.0
N3712 N 0.17273 0.18887 0.81005 0.0
N3713 N 0.18706 0.17042 0.82792 0.0
H3714 H 0.30758 0.4067 0.58576 0.0
H3715 H 0.34087 0.44865 0.55148 0.0
H3716 H 0.30393 0.41033 0.55177 0.0
H3717 H 0.34473 0.4436 0.58527 0.0
H3718 H 0.32519 0.43699 0.55177 0.0
H3719 H 0.31888 0.42248 0.58606 0.0
C3720 C 0.30903 0.41092 0.57836 0.0
C3721 C 0.3049 0.40711 0.5687 0.0
C3722 C 0.32938 0.43858 0.55915 0.0
C3723 C 0.31803 0.42516 0.56896 0.0
C3724 C 0.3383 0.44527 0.559 0.0
C3725 C 0.3442 0.447 0.56834 0.0
C3726 C 0.32634 0.4336 0.56871 0.0
C3727 C 0.34051 0.4424 0.57784 0.0
C3728 C 0.31551 0.41994 0.57854 0.0
C3729 C 0.30698 0.41296 0.55939 0.0
N3730 N 0.33191 0.43584 0.57776 0.0
N3731 N 0.31354 0.42161 0.55973 0.0
H3732 H 0.3029 0.34094 0.20127 0.0
H3733 H 0.34394 0.30661 0.16697 0.0
H3734 H 0.30763 0.34431 0.16739 0.0
H3735 H 0.34065 0.30345 0.20104 0.0
H3736 H 0.32829 0.31808 0.16668 0.0
H3737 H 0.31426 0.32505 0.20104 0.0
C3738 C 0.30615 0.33822 0.19376 0.0
C3739 C 0.30442 0.34404 0.18436 0.0
C3740 C 0.33088 0.31478 0.17422 0.0
C3741 C 0.31749 0.32594 0.18405 0.0
C3742 C 0.33982 0.30819 0.17439 0.0
C3743 C 0.3437 0.30416 0.18406 0.0
C3744 C 0.3258 0.31749 0.18382 0.0
C3745 C 0.33796 0.30643 0.1934 0.0
C3746 C 0.31267 0.32917 0.19364 0.0
C3747 C 0.30884 0.34016 0.17485 0.0
N3748 N 0.3294 0.31308 0.19308 0.0
N3749 N 0.31524 0.33144 0.17497 0.0
H3750 H 0.16065 0.55258 0.9513 0.0
H3751 H 0.19302 0.59469 0.91648 0.0
H3752 H 0.1563 0.55745 0.91755 0.0
H3753 H 0.19808 0.59045 0.95021 0.0
H3754 H 0.1817 0.57894 0.91635 0.0
H3755 H 0.17636 0.56419 0.95071 0.0
C3756 C 0.16312 0.55591 0.94373 0.0
C3757 C 0.15707 0.55415 0.93448 0.0
C3758 C 0.18537 0.58134 0.92378 0.0
C3759 C 0.17495 0.5675 0.93377 0.0
C3760 C 0.19186 0.59035 0.92385 0.0
C3761 C 0.1964 0.59397 0.9334 0.0
C3762 C 0.18325 0.57595 0.93336 0.0
C3763 C 0.19469 0.58796 0.94268 0.0
C3764 C 0.17206 0.56257 0.94341 0.0
C3765 C 0.16063 0.55868 0.9249 0.0
N3766 N 0.18811 0.57933 0.94247 0.0
N3767 N 0.16925 0.56522 0.92482 0.0
H3768 H 0.55104 0.41129 0.30383 0.0
H3769 H 0.58518 0.44502 0.34567 0.0
H3770 H 0.5844 0.40634 0.31047 0.0
H3771 H 0.55121 0.4487 0.34186 0.0
H3772 H 0.58547 0.43326 0.33023 0.0
H3773 H 0.55139 0.4272 0.3152 0.0
C3774 C 0.55848 0.41365 0.30751 0.0
C3775 C 0.56768 0.40741 0.3063 0.0
C3776 C 0.57795 0.43673 0.33267 0.0
C3777 C 0.56812 0.42553 0.31932 0.0
C3778 C 0.57779 0.44348 0.34148 0.0
C3779 C 0.56813 0.44775 0.34515 0.0
C3780 C 0.56838 0.4341 0.32751 0.0
C3781 C 0.55883 0.44554 0.33934 0.0
C3782 C 0.55866 0.42271 0.31403 0.0
C3783 C 0.57708 0.41083 0.31127 0.0
N3784 N 0.55915 0.43873 0.33089 0.0
N3785 N 0.57704 0.41959 0.31762 0.0
H3786 H 0.19525 0.83568 0.15762 0.0
H3787 H 0.16125 0.80153 0.19912 0.0
H3788 H 0.19863 0.80166 0.16122 0.0
H3789 H 0.15754 0.83532 0.19397 0.0
H3790 H 0.17706 0.80176 0.18764 0.0
H3791 H 0.18372 0.83602 0.17323 0.0
C3792 C 0.19369 0.82829 0.16179 0.0
C3793 C 0.19782 0.81861 0.15802 0.0
C3794 C 0.17287 0.80915 0.18916 0.0
C3795 C 0.18443 0.81891 0.17588 0.0
C3796 C 0.16387 0.80903 0.19575 0.0
C3797 C 0.15798 0.8184 0.19741 0.0
C3798 C 0.17599 0.8187 0.18421 0.0
C3799 C 0.16175 0.82788 0.19283 0.0
C3800 C 0.18707 0.82848 0.17071 0.0
C3801 C 0.19559 0.8093 0.16382 0.0
N3802 N 0.17043 0.82776 0.18637 0.0
N3803 N 0.18891 0.80965 0.17237 0.0
H3804 H 0.30833 0.16748 0.3458 0.0
H3805 H 0.34126 0.20159 0.30345 0.0
H3806 H 0.30439 0.2014 0.34186 0.0
H3807 H 0.34513 0.16781 0.30853 0.0
H3808 H 0.32568 0.20134 0.31522 0.0
H3809 H 0.31959 0.16712 0.32999 0.0
C3810 C 0.30971 0.17485 0.34151 0.0
C3811 C 0.30551 0.18451 0.34523 0.0
C3812 C 0.32984 0.19396 0.31362 0.0
C3813 C 0.31858 0.18418 0.32715 0.0
C3814 C 0.33872 0.19409 0.30686 0.0
C3815 C 0.34459 0.18473 0.3051 0.0
C3816 C 0.32684 0.18441 0.31864 0.0
C3817 C 0.34093 0.17525 0.30974 0.0
C3818 C 0.31617 0.17464 0.33248 0.0
C3819 C 0.3075 0.19378 0.33929 0.0
N3820 N 0.33238 0.17535 0.31637 0.0
N3821 N 0.31403 0.19342 0.33063 0.0
H3822 H 0.91883 0.05781 0.65731 0.0
H3823 H 0.95269 0.09151 0.69926 0.0
H3824 H 0.95285 0.0545 0.66099 0.0
H3825 H 0.91882 0.09481 0.69438 0.0
H3826 H 0.95261 0.07586 0.68756 0.0
H3827 H 0.91839 0.06912 0.67308 0.0
C3828 C 0.9262 0.05934 0.66153 0.0
C3829 C 0.93591 0.0553 0.65774 0.0
C3830 C 0.94518 0.07991 0.68919 0.0
C3831 C 0.93549 0.06844 0.67578 0.0
C3832 C 0.94521 0.08882 0.69591 0.0
C3833 C 0.93577 0.09456 0.6977 0.0
C3834 C 0.93564 0.07674 0.68425 0.0
C3835 C 0.92631 0.09072 0.69313 0.0
C3836 C 0.92595 0.06583 0.67054 0.0
C3837 C 0.94519 0.05749 0.6636 0.0
N3838 N 0.92651 0.08214 0.68654 0.0
N3839 N 0.94478 0.06404 0.67224 0.0
H3840 H 0.55727 0.15767 0.91758 0.0
H3841 H 0.59088 0.19869 0.95263 0.0
H3842 H 0.5537 0.16065 0.95164 0.0
H3843 H 0.59475 0.19418 0.91877 0.0
H3844 H 0.57507 0.18722 0.95211 0.0
H3845 H 0.56864 0.1734 0.91756 0.0
C3846 C 0.55874 0.16173 0.92505 0.0
C3847 C 0.55462 0.15775 0.93465 0.0
C3848 C 0.57929 0.18888 0.94477 0.0
C3849 C 0.56784 0.17573 0.93471 0.0
C3850 C 0.58829 0.19547 0.94505 0.0
C3851 C 0.59423 0.19729 0.93575 0.0
C3852 C 0.57622 0.1841 0.93512 0.0
C3853 C 0.5905 0.1929 0.92617 0.0
C3854 C 0.56527 0.17072 0.92504 0.0
C3855 C 0.55675 0.16341 0.94406 0.0
N3856 N 0.58183 0.18644 0.92612 0.0
N3857 N 0.56335 0.17203 0.94389 0.0
H3858 H 0.44547 0.90846 0.66714 0.0
H3859 H 0.41132 0.94939 0.70177 0.0
H3860 H 0.44843 0.91125 0.70127 0.0
H3861 H 0.40802 0.94502 0.66784 0.0
H3862 H 0.4271 0.93788 0.70148 0.0
H3863 H 0.43412 0.9242 0.66699 0.0
C3864 C 0.44386 0.91248 0.6746 0.0
C3865 C 0.4478 0.90844 0.68425 0.0
C3866 C 0.42302 0.93958 0.69408 0.0
C3867 C 0.43462 0.92645 0.68417 0.0
C3868 C 0.41403 0.94619 0.69423 0.0
C3869 C 0.40826 0.94807 0.68483 0.0
C3870 C 0.42624 0.93483 0.68446 0.0
C3871 C 0.41214 0.9437 0.6753 0.0
C3872 C 0.43734 0.92148 0.67452 0.0
C3873 C 0.44552 0.91406 0.69365 0.0
N3874 N 0.4208 0.93722 0.67538 0.0
N3875 N 0.43894 0.92269 0.6934 0.0
H3876 H 0.59525 0.05873 0.33519 0.0
H3877 H 0.55337 0.09177 0.30052 0.0
H3878 H 0.59131 0.05439 0.30132 0.0
H3879 H 0.55878 0.09636 0.33416 0.0
H3880 H 0.56498 0.07606 0.30104 0.0
H3881 H 0.5797 0.07034 0.33534 0.0
C3882 C 0.59101 0.06009 0.3278 0.0
C3883 C 0.59467 0.05567 0.3182 0.0
C3884 C 0.56349 0.08042 0.30833 0.0
C3885 C 0.57688 0.06915 0.31829 0.0
C3886 C 0.55683 0.08937 0.30805 0.0
C3887 C 0.55519 0.09547 0.31729 0.0
C3888 C 0.56853 0.07757 0.31792 0.0
C3889 C 0.5599 0.09198 0.32682 0.0
C3890 C 0.58213 0.06676 0.32788 0.0
C3891 C 0.5888 0.05767 0.30889 0.0
N3892 N 0.56642 0.08334 0.32686 0.0
N3893 N 0.58028 0.06439 0.30913 0.0
H3894 H 0.41148 0.30253 0.55077 0.0
H3895 H 0.44547 0.3441 0.58476 0.0
H3896 H 0.40842 0.30712 0.5847 0.0
H3897 H 0.44838 0.34085 0.55067 0.0
H3898 H 0.43426 0.32826 0.58516 0.0
H3899 H 0.42719 0.31414 0.55085 0.0
C3900 C 0.41423 0.3058 0.55827 0.0
C3901 C 0.40854 0.30396 0.56773 0.0
C3902 C 0.43745 0.3309 0.57759 0.0
C3903 C 0.42644 0.31731 0.56786 0.0
C3904 C 0.44388 0.33995 0.57736 0.0
C3905 C 0.44776 0.34389 0.56765 0.0
C3906 C 0.43474 0.32577 0.56802 0.0
C3907 C 0.44551 0.33812 0.55833 0.0
C3908 C 0.42318 0.31246 0.5583 0.0
C3909 C 0.41247 0.30841 0.5772 0.0
N3910 N 0.43901 0.32944 0.55872 0.0
N3911 N 0.42109 0.31495 0.577 0.0
H3912 H 0.44868 0.70221 0.9114 0.0
H3913 H 0.40643 0.66839 0.94481 0.0
H3914 H 0.44329 0.66848 0.90757 0.0
H3915 H 0.41062 0.70229 0.94868 0.0
H3916 H 0.42207 0.66793 0.93332 0.0
H3917 H 0.43701 0.70205 0.92707 0.0
C3918 C 0.44522 0.69474 0.91397 0.0
C3919 C 0.44687 0.68537 0.90808 0.0
C3920 C 0.41968 0.67547 0.93677 0.0
C3921 C 0.43345 0.68515 0.92594 0.0
C3922 C 0.41074 0.67573 0.94336 0.0
C3923 C 0.40713 0.68541 0.94762 0.0
C3924 C 0.42503 0.68498 0.93429 0.0
C3925 C 0.4131 0.69465 0.94553 0.0
C3926 C 0.43852 0.69466 0.92289 0.0
C3927 C 0.44216 0.67592 0.91178 0.0
N3928 N 0.42167 0.69424 0.93888 0.0
N3929 N 0.4356 0.67608 0.92038 0.0
H3930 H 0.80166 0.19877 0.16058 0.0
H3931 H 0.83605 0.157 0.19401 0.0
H3932 H 0.83532 0.1933 0.15628 0.0
H3933 H 0.80212 0.16081 0.19793 0.0
H3934 H 0.83631 0.17259 0.18246 0.0
H3935 H 0.80205 0.18725 0.17636 0.0
C3936 C 0.80917 0.19532 0.16306 0.0
C3937 C 0.81845 0.1969 0.15702 0.0
C3938 C 0.82881 0.17012 0.18594 0.0
C3939 C 0.81893 0.18367 0.175 0.0
C3940 C 0.82866 0.16121 0.19257 0.0
C3941 C 0.81903 0.15751 0.19685 0.0
C3942 C 0.81923 0.17534 0.18343 0.0
C3943 C 0.80972 0.16336 0.19476 0.0
C3944 C 0.80937 0.18871 0.17205 0.0
C3945 C 0.82795 0.19222 0.16061 0.0
N3946 N 0.81002 0.1719 0.18807 0.0
N3947 N 0.82792 0.18575 0.16928 0.0
H3948 H 0.34183 0.55119 0.45007 0.0
H3949 H 0.30944 0.58611 0.40807 0.0
H3950 H 0.34599 0.585 0.44547 0.0
H3951 H 0.3045 0.55234 0.41211 0.0
H3952 H 0.32069 0.5862 0.42388 0.0
H3953 H 0.32615 0.55177 0.43843 0.0
C3954 C 0.33932 0.55877 0.4468 0.0
C3955 C 0.34532 0.56804 0.44864 0.0
C3956 C 0.31706 0.57877 0.42142 0.0
C3957 C 0.32747 0.56874 0.43525 0.0
C3958 C 0.31061 0.57872 0.41238 0.0
C3959 C 0.30613 0.56918 0.40869 0.0
C3960 C 0.31919 0.56917 0.42677 0.0
C3961 C 0.30784 0.55987 0.41466 0.0
C3962 C 0.3304 0.55909 0.44011 0.0
C3963 C 0.3417 0.57763 0.44418 0.0
N3964 N 0.31438 0.56006 0.42332 0.0
N3965 N 0.33311 0.57771 0.43761 0.0
H3966 H 0.95079 0.16223 0.55381 0.0
H3967 H 0.91735 0.19601 0.59608 0.0
H3968 H 0.91728 0.15799 0.56021 0.0
H3969 H 0.95133 0.19927 0.59211 0.0
H3970 H 0.91677 0.18457 0.58042 0.0
H3971 H 0.95072 0.17809 0.56526 0.0
C3972 C 0.94338 0.16475 0.55745 0.0
C3973 C 0.93405 0.1587 0.55617 0.0
C3974 C 0.92435 0.18788 0.58286 0.0
C3975 C 0.93393 0.17676 0.56928 0.0
C3976 C 0.92468 0.19445 0.59181 0.0
C3977 C 0.93442 0.1985 0.5955 0.0
C3978 C 0.93386 0.18521 0.57759 0.0
C3979 C 0.94366 0.19627 0.58957 0.0
C3980 C 0.94336 0.17377 0.56402 0.0
C3981 C 0.92469 0.16232 0.56108 0.0
N3982 N 0.94318 0.18964 0.581 0.0
N3983 N 0.9249 0.17103 0.56748 0.0
H3984 H 0.80172 0.08996 0.05325 0.0
H3985 H 0.83532 0.05547 0.09477 0.0
H3986 H 0.83539 0.09363 0.05911 0.0
H3987 H 0.80121 0.05291 0.09148 0.0
H3988 H 0.83583 0.06684 0.07906 0.0
H3989 H 0.80174 0.074 0.06454 0.0
C3990 C 0.80915 0.08729 0.05673 0.0
C3991 C 0.81854 0.09321 0.05535 0.0
C3992 C 0.82823 0.06369 0.08166 0.0
C3993 C 0.81861 0.07504 0.0683 0.0
C3994 C 0.82794 0.05716 0.09064 0.0
C3995 C 0.81819 0.05335 0.09454 0.0
C3996 C 0.81868 0.06656 0.07658 0.0
C3997 C 0.80889 0.05573 0.08878 0.0
C3998 C 0.80915 0.07821 0.06321 0.0
C3999 C 0.82794 0.0894 0.06006 0.0
N4000 N 0.80934 0.06233 0.08018 0.0
N4001 N 0.8277 0.08063 0.06639 0.0
H4002 H 0.40659 0.5848 0.30755 0.0
H4003 H 0.44864 0.55071 0.34088 0.0
H4004 H 0.41052 0.55087 0.30372 0.0
H4005 H 0.4436 0.58451 0.34461 0.0
H4006 H 0.43699 0.55094 0.3252 0.0
H4007 H 0.42232 0.58517 0.31892 0.0
C4008 C 0.41086 0.57743 0.30898 0.0
C4009 C 0.40715 0.56776 0.30478 0.0
C4010 C 0.43857 0.55833 0.32936 0.0
C4011 C 0.42515 0.5681 0.31797 0.0
C4012 C 0.44526 0.55821 0.33828 0.0
C4013 C 0.447 0.56758 0.34415 0.0
C4014 C 0.43359 0.56789 0.32629 0.0
C4015 C 0.4424 0.57707 0.34042 0.0
C4016 C 0.41985 0.57765 0.3155 0.0
C4017 C 0.41307 0.55849 0.30684 0.0
N4018 N 0.43584 0.57695 0.33182 0.0
N4019 N 0.42169 0.55886 0.31342 0.0
H4020 H 0.69406 0.41721 0.59604 0.0
H4021 H 0.66117 0.45175 0.55396 0.0
H4022 H 0.69824 0.45111 0.5922 0.0
H4023 H 0.65683 0.41805 0.55919 0.0
H4024 H 0.67681 0.45131 0.56566 0.0
H4025 H 0.68262 0.41701 0.58036 0.0
C4026 C 0.69269 0.42461 0.5918 0.0
C4027 C 0.69702 0.43422 0.59552 0.0
C4028 C 0.67252 0.44399 0.56411 0.0
C4029 C 0.68375 0.43408 0.57758 0.0
C4030 C 0.66362 0.44422 0.55739 0.0
C4031 C 0.6576 0.43494 0.55569 0.0
C4032 C 0.67542 0.4344 0.56914 0.0
C4033 C 0.66115 0.42542 0.56036 0.0
C4034 C 0.68613 0.42449 0.58284 0.0
C4035 C 0.69503 0.44353 0.58965 0.0
N4036 N 0.66974 0.42543 0.56694 0.0
N4037 N 0.68841 0.44326 0.58105 0.0
H4038 H 0.20215 0.91165 0.94907 0.0
H4039 H 0.16763 0.94544 0.90772 0.0
H4040 H 0.16833 0.90786 0.94418 0.0
H4041 H 0.20166 0.94892 0.91107 0.0
H4042 H 0.16742 0.93398 0.92339 0.0
H4043 H 0.2018 0.92744 0.93757 0.0
C4044 C 0.19462 0.91425 0.94576 0.0
C4045 C 0.18528 0.90834 0.94749 0.0
C4046 C 0.17493 0.93735 0.9208 0.0
C4047 C 0.18484 0.92633 0.93427 0.0
C4048 C 0.17505 0.94392 0.91185 0.0
C4049 C 0.18469 0.94805 0.90799 0.0
C4050 C 0.18455 0.93474 0.92591 0.0
C4051 C 0.19405 0.94587 0.91374 0.0
C4052 C 0.19444 0.92324 0.93915 0.0
C4053 C 0.17576 0.91208 0.94297 0.0
N4054 N 0.19377 0.93923 0.92232 0.0
N4055 N 0.17581 0.92075 0.9365 0.0
H4056 H 0.5532 0.95212 0.16121 0.0
H4057 H 0.59472 0.91805 0.19519 0.0
H4058 H 0.55806 0.91826 0.15784 0.0
H4059 H 0.59132 0.95211 0.1983 0.0
H4060 H 0.57894 0.91767 0.18389 0.0
H4061 H 0.5647 0.95196 0.177 0.0
C4062 C 0.5565 0.94462 0.16391 0.0
C4063 C 0.55477 0.93521 0.15811 0.0
C4064 C 0.58153 0.92523 0.18714 0.0
C4065 C 0.56799 0.93499 0.1761 0.0
C4066 C 0.59055 0.92544 0.19362 0.0
C4067 C 0.59443 0.93514 0.19759 0.0
C4068 C 0.57639 0.9348 0.18446 0.0
C4069 C 0.58864 0.94446 0.19537 0.0
C4070 C 0.5631 0.94454 0.1729 0.0
C4071 C 0.55926 0.92573 0.16197 0.0
N4072 N 0.58 0.94408 0.18881 0.0
N4073 N 0.56574 0.92589 0.17064 0.0
H4074 H 0.08506 0.30733 0.90781 0.0
H4075 H 0.05068 0.34112 0.94923 0.0
H4076 H 0.051 0.30404 0.91107 0.0
H4077 H 0.0846 0.34447 0.94471 0.0
H4078 H 0.05092 0.3254 0.93764 0.0
H4079 H 0.08532 0.31863 0.92359 0.0
C4080 C 0.07764 0.30886 0.91194 0.0
C4081 C 0.06797 0.30483 0.90803 0.0
C4082 C 0.05833 0.32948 0.93933 0.0
C4083 C 0.06818 0.31796 0.92608 0.0
C4084 C 0.05821 0.33843 0.94598 0.0
C4085 C 0.06761 0.3442 0.94784 0.0
C4086 C 0.06793 0.32629 0.93451 0.0
C4087 C 0.07713 0.34035 0.94341 0.0
C4088 C 0.07779 0.31534 0.92096 0.0
C4089 C 0.05863 0.30701 0.91378 0.0
N4090 N 0.07702 0.33173 0.93687 0.0
N4091 N 0.05893 0.31357 0.92243 0.0
H4092 H 0.59158 0.80122 0.55347 0.0
H4093 H 0.5583 0.83564 0.59538 0.0
H4094 H 0.59618 0.83481 0.55917 0.0
H4095 H 0.55419 0.80175 0.59143 0.0
H4096 H 0.56995 0.83588 0.57986 0.0
H4097 H 0.57583 0.80165 0.56503 0.0
C4098 C 0.58917 0.80872 0.55699 0.0
C4099 C 0.59528 0.81797 0.55544 0.0
C4100 C 0.56641 0.82839 0.58228 0.0
C4101 C 0.57733 0.8185 0.56873 0.0
C4102 C 0.55972 0.82826 0.59115 0.0
C4103 C 0.55535 0.81864 0.59479 0.0
C4104 C 0.56888 0.81882 0.57704 0.0
C4105 C 0.55742 0.80934 0.58892 0.0
C4106 C 0.5802 0.80895 0.56362 0.0
C4107 C 0.59179 0.82746 0.56021 0.0
N4108 N 0.56417 0.80963 0.58042 0.0
N4109 N 0.58313 0.82745 0.5667 0.0
H4110 H 0.16707 0.84556 0.80809 0.0
H4111 H 0.20116 0.80324 0.84114 0.0
H4112 H 0.20093 0.84136 0.80398 0.0
H4113 H 0.16755 0.80892 0.84555 0.0
H4114 H 0.20082 0.81484 0.82542 0.0
H4115 H 0.16668 0.8299 0.81956 0.0
C4116 C 0.17441 0.84124 0.80947 0.0
C4117 C 0.18407 0.84486 0.80516 0.0
C4118 C 0.19349 0.81342 0.82974 0.0
C4119 C 0.18372 0.82694 0.81847 0.0
C4120 C 0.19367 0.80675 0.83869 0.0
C4121 C 0.18439 0.80521 0.84475 0.0
C4122 C 0.18396 0.81855 0.82684 0.0
C4123 C 0.17492 0.80997 0.8412 0.0
C4124 C 0.17419 0.83229 0.81605 0.0
C4125 C 0.19332 0.83888 0.80717 0.0
N4126 N 0.17498 0.8165 0.83257 0.0
N4127 N 0.19295 0.83031 0.81381 0.0
H4128 H 0.44929 0.84118 0.05184 0.0
H4129 H 0.40806 0.8074 0.08647 0.0
H4130 H 0.4447 0.84479 0.08572 0.0
H4131 H 0.41124 0.80401 0.05241 0.0
H4132 H 0.42382 0.81874 0.08665 0.0
H4133 H 0.4378 0.82538 0.05221 0.0
C4134 C 0.44605 0.83853 0.05939 0.0
C4135 C 0.44785 0.8444 0.06874 0.0
C4136 C 0.42118 0.81542 0.07914 0.0
C4137 C 0.43464 0.82641 0.0692 0.0
C4138 C 0.41218 0.80891 0.07903 0.0
C4139 C 0.40824 0.80485 0.06939 0.0
C4140 C 0.42625 0.81803 0.06951 0.0
C4141 C 0.41397 0.80702 0.06002 0.0
C4142 C 0.43945 0.82954 0.05958 0.0
C4143 C 0.44343 0.8406 0.07829 0.0
N4144 N 0.42259 0.8136 0.06029 0.0
N4145 N 0.43695 0.83194 0.07824 0.0
H4146 H 0.55261 0.66083 0.45106 0.0
H4147 H 0.59464 0.693 0.41603 0.0
H4148 H 0.5569 0.65683 0.41718 0.0
H4149 H 0.59068 0.69803 0.44979 0.0
H4150 H 0.57875 0.68188 0.41598 0.0
H4151 H 0.56432 0.67646 0.45046 0.0
C4152 C 0.55583 0.66336 0.44346 0.0
C4153 C 0.55389 0.65743 0.43418 0.0
C4154 C 0.58124 0.6855 0.42339 0.0
C4155 C 0.56736 0.67521 0.43345 0.0
C4156 C 0.59033 0.69188 0.42342 0.0
C4157 C 0.59407 0.69635 0.43295 0.0
C4158 C 0.57589 0.68342 0.433 0.0
C4159 C 0.5881 0.6947 0.44227 0.0
C4160 C 0.56255 0.67226 0.44313 0.0
C4161 C 0.55828 0.66107 0.42457 0.0
N4162 N 0.57939 0.68822 0.4421 0.0
N4163 N 0.56488 0.66963 0.42448 0.0
H4164 H 0.5901 0.30173 0.05382 0.0
H4165 H 0.55664 0.33464 0.09675 0.0
H4166 H 0.59406 0.33527 0.0602 0.0
H4167 H 0.55326 0.30072 0.09232 0.0
H4168 H 0.568 0.3354 0.08104 0.0
H4169 H 0.57443 0.3016 0.0655 0.0
C4170 C 0.58756 0.30911 0.0575 0.0
C4171 C 0.59348 0.3185 0.05614 0.0
C4172 C 0.56469 0.32779 0.0834 0.0
C4173 C 0.57563 0.3184 0.06954 0.0
C4174 C 0.55817 0.32736 0.09238 0.0
C4175 C 0.5541 0.31758 0.09594 0.0
C4176 C 0.56729 0.31836 0.07796 0.0
C4177 C 0.55628 0.30843 0.08988 0.0
C4178 C 0.57864 0.30902 0.06421 0.0
C4179 C 0.58982 0.32782 0.06112 0.0
N4180 N 0.56286 0.30901 0.08128 0.0
N4181 N 0.58122 0.3275 0.06766 0.0
H4182 H 0.05127 0.84086 0.44945 0.0
H4183 H 0.08496 0.80766 0.40698 0.0
H4184 H 0.08504 0.84456 0.44416 0.0
H4185 H 0.05104 0.80392 0.41113 0.0
H4186 H 0.08548 0.81896 0.42275 0.0
H4187 H 0.05138 0.82525 0.43771 0.0
C4188 C 0.05874 0.83827 0.446 0.0
C4189 C 0.06814 0.84411 0.44769 0.0
C4190 C 0.07793 0.81557 0.42032 0.0
C4191 C 0.0683 0.82633 0.43418 0.0
C4192 C 0.07763 0.80909 0.4113 0.0
C4193 C 0.06792 0.80493 0.40765 0.0
C4194 C 0.06843 0.81805 0.4257 0.0
C4195 C 0.0587 0.80699 0.41364 0.0
C4196 C 0.05879 0.82939 0.43925 0.0
C4197 C 0.07758 0.84039 0.443 0.0
N4198 N 0.05915 0.81354 0.42228 0.0
N4199 N 0.07739 0.83183 0.43638 0.0
H4200 H 0.59462 0.41622 0.69301 0.0
H4201 H 0.55225 0.45104 0.66099 0.0
H4202 H 0.59016 0.44986 0.69841 0.0
H4203 H 0.55717 0.41732 0.6565 0.0
H4204 H 0.56393 0.45042 0.67664 0.0
H4205 H 0.57886 0.4161 0.6817 0.0
C4206 C 0.59023 0.42357 0.69193 0.0
C4207 C 0.59379 0.43309 0.69657 0.0
C4208 C 0.56231 0.44313 0.67233 0.0
C4209 C 0.57576 0.43306 0.68343 0.0
C4210 C 0.5556 0.44347 0.66342 0.0
C4211 C 0.55384 0.43424 0.65734 0.0
C4212 C 0.56727 0.4335 0.67516 0.0
C4213 C 0.5584 0.42466 0.66085 0.0
C4214 C 0.58122 0.4235 0.68545 0.0
C4215 C 0.58772 0.44235 0.69495 0.0
N4216 N 0.56498 0.42457 0.66944 0.0
N4217 N 0.57908 0.44215 0.68838 0.0
H4218 H 0.44506 0.08535 0.84447 0.0
H4219 H 0.41125 0.05091 0.80307 0.0
H4220 H 0.44857 0.05134 0.84102 0.0
H4221 H 0.40748 0.08472 0.808 0.0
H4222 H 0.42706 0.05124 0.81456 0.0
H4223 H 0.4336 0.0856 0.8288 0.0
C4224 C 0.44355 0.07794 0.84031 0.0
C4225 C 0.44768 0.06829 0.84414 0.0
C4226 C 0.42286 0.05861 0.81298 0.0
C4227 C 0.43437 0.06848 0.82623 0.0
C4228 C 0.41386 0.05844 0.80639 0.0
C4229 C 0.40796 0.06778 0.80468 0.0
C4230 C 0.42596 0.0682 0.81788 0.0
C4231 C 0.41171 0.0773 0.80919 0.0
C4232 C 0.43697 0.07808 0.83136 0.0
C4233 C 0.44551 0.05895 0.83837 0.0
N4234 N 0.42038 0.07724 0.81566 0.0
N4235 N 0.43887 0.05925 0.82979 0.0
H4236 H 0.95138 0.66159 0.0535 0.0
H4237 H 0.91735 0.695 0.09554 0.0
H4238 H 0.91765 0.65766 0.05883 0.0
H4239 H 0.95128 0.6988 0.09157 0.0
H4240 H 0.91695 0.68359 0.07985 0.0
H4241 H 0.95114 0.67733 0.06508 0.0
C4242 C 0.94389 0.66415 0.05693 0.0
C4243 C 0.93454 0.65822 0.0553 0.0
C4244 C 0.92448 0.68701 0.0823 0.0
C4245 C 0.93423 0.67615 0.06861 0.0
C4246 C 0.92471 0.69356 0.09127 0.0
C4247 C 0.93439 0.69776 0.09496 0.0
C4248 C 0.93402 0.68451 0.077 0.0
C4249 C 0.94365 0.69569 0.08903 0.0
C4250 C 0.94377 0.67311 0.06357 0.0
C4251 C 0.92507 0.66191 0.05995 0.0
N4252 N 0.94327 0.68907 0.08043 0.0
N4253 N 0.92518 0.67054 0.06647 0.0
H4254 H 0.44938 0.20126 0.41147 0.0
H4255 H 0.40826 0.1671 0.44588 0.0
H4256 H 0.44437 0.16743 0.40799 0.0
H4257 H 0.41169 0.20115 0.44904 0.0
H4258 H 0.42387 0.16676 0.43434 0.0
H4259 H 0.43806 0.20106 0.42739 0.0
C4260 C 0.44608 0.19376 0.41417 0.0
C4261 C 0.44772 0.18437 0.40831 0.0
C4262 C 0.42132 0.17431 0.43765 0.0
C4263 C 0.4347 0.1841 0.42645 0.0
C4264 C 0.4124 0.1745 0.44427 0.0
C4265 C 0.40858 0.18419 0.44833 0.0
C4266 C 0.42642 0.18389 0.43493 0.0
C4267 C 0.41434 0.19351 0.44605 0.0
C4268 C 0.43958 0.19366 0.42324 0.0
C4269 C 0.44323 0.17489 0.41217 0.0
N4270 N 0.42288 0.19316 0.43936 0.0
N4271 N 0.43686 0.17502 0.42092 0.0
H4272 H 0.44438 0.40746 0.16701 0.0
H4273 H 0.41084 0.44932 0.20107 0.0
H4274 H 0.44777 0.41105 0.20102 0.0
H4275 H 0.40741 0.44452 0.16721 0.0
H4276 H 0.42655 0.43771 0.20089 0.0
H4277 H 0.43318 0.42331 0.16662 0.0
C4278 C 0.4429 0.41168 0.17439 0.0
C4279 C 0.44691 0.40784 0.18408 0.0
C4280 C 0.42245 0.43934 0.19348 0.0
C4281 C 0.4339 0.42596 0.18373 0.0
C4282 C 0.41351 0.44601 0.19357 0.0
C4283 C 0.40772 0.44779 0.18416 0.0
C4284 C 0.42561 0.43443 0.18392 0.0
C4285 C 0.41154 0.44327 0.17467 0.0
C4286 C 0.43647 0.42074 0.17417 0.0
C4287 C 0.4448 0.4137 0.19338 0.0
N4288 N 0.42016 0.43673 0.17482 0.0
N4289 N 0.4383 0.42238 0.193 0.0
H4290 H 0.59504 0.55866 0.83528 0.0
H4291 H 0.55313 0.59219 0.80113 0.0
H4292 H 0.59091 0.55462 0.80139 0.0
H4293 H 0.55862 0.59633 0.83481 0.0
H4294 H 0.56468 0.57642 0.80143 0.0
H4295 H 0.57951 0.5703 0.83562 0.0
C4296 C 0.59077 0.5601 0.82792 0.0
C4297 C 0.59436 0.55575 0.81827 0.0
C4298 C 0.56322 0.5807 0.80878 0.0
C4299 C 0.57659 0.56926 0.81857 0.0
C4300 C 0.55659 0.58967 0.80862 0.0
C4301 C 0.555 0.59567 0.81793 0.0
C4302 C 0.56827 0.5777 0.81832 0.0
C4303 C 0.5597 0.59204 0.82741 0.0
C4304 C 0.58189 0.56678 0.82811 0.0
C4305 C 0.58844 0.55784 0.809 0.0
N4306 N 0.56619 0.58338 0.82733 0.0
N4307 N 0.57993 0.56457 0.80935 0.0
H4308 H 0.802 0.70058 0.66109 0.0
H4309 H 0.837 0.65868 0.69352 0.0
H4310 H 0.83574 0.69573 0.65663 0.0
H4311 H 0.80326 0.66281 0.69859 0.0
H4312 H 0.83707 0.67443 0.68218 0.0
H4313 H 0.80266 0.68907 0.67686 0.0
C4314 C 0.80958 0.69728 0.66355 0.0
C4315 C 0.8188 0.69901 0.65745 0.0
C4316 C 0.82966 0.672 0.68587 0.0
C4317 C 0.8196 0.68577 0.6754 0.0
C4318 C 0.82962 0.663 0.69236 0.0
C4319 C 0.82009 0.65935 0.69691 0.0
C4320 C 0.82006 0.67735 0.68374 0.0
C4321 C 0.81078 0.66533 0.69521 0.0
C4322 C 0.80995 0.69067 0.67253 0.0
C4323 C 0.8284 0.69452 0.661 0.0
N4324 N 0.81096 0.67395 0.68862 0.0
N4325 N 0.82852 0.68803 0.66966 0.0
H4326 H 0.30755 0.08507 0.90788 0.0
H4327 H 0.34141 0.05053 0.94916 0.0
H4328 H 0.30409 0.05103 0.91123 0.0
H4329 H 0.34512 0.08437 0.94437 0.0
H4330 H 0.32561 0.05088 0.93768 0.0
H4331 H 0.31901 0.08527 0.92354 0.0
C4332 C 0.30907 0.07764 0.91201 0.0
C4333 C 0.30495 0.068 0.90815 0.0
C4334 C 0.32979 0.05825 0.93928 0.0
C4335 C 0.31826 0.06815 0.92606 0.0
C4336 C 0.33878 0.05807 0.94587 0.0
C4337 C 0.34468 0.06742 0.94763 0.0
C4338 C 0.32667 0.06785 0.93442 0.0
C4339 C 0.34091 0.07694 0.94315 0.0
C4340 C 0.31565 0.07776 0.92096 0.0
C4341 C 0.30713 0.05864 0.9139 0.0
N4342 N 0.33224 0.07689 0.93668 0.0
N4343 N 0.31378 0.05892 0.92247 0.0
H4344 H 0.80086 0.59163 0.55394 0.0
H4345 H 0.83468 0.55845 0.59633 0.0
H4346 H 0.83467 0.59522 0.55901 0.0
H4347 H 0.80076 0.55468 0.59228 0.0
H4348 H 0.83515 0.56974 0.58055 0.0
H4349 H 0.80099 0.57605 0.56573 0.0
C4350 C 0.80835 0.58903 0.55736 0.0
C4351 C 0.81775 0.59482 0.55559 0.0
C4352 C 0.82761 0.56635 0.583 0.0
C4353 C 0.81793 0.57708 0.56914 0.0
C4354 C 0.82734 0.55988 0.59203 0.0
C4355 C 0.81764 0.55571 0.59571 0.0
C4356 C 0.81809 0.56882 0.57765 0.0
C4357 C 0.8084 0.55776 0.58975 0.0
C4358 C 0.8084 0.58016 0.56412 0.0
C4359 C 0.82721 0.59108 0.56024 0.0
N4360 N 0.80882 0.56431 0.5811 0.0
N4361 N 0.82703 0.58253 0.56687 0.0
H4362 H 0.66184 0.95222 0.05342 0.0
H4363 H 0.69561 0.91726 0.09441 0.0
H4364 H 0.65788 0.9184 0.05814 0.0
H4365 H 0.6991 0.95132 0.09139 0.0
H4366 H 0.68418 0.91721 0.07872 0.0
H4367 H 0.6777 0.95172 0.06483 0.0
C4368 C 0.66442 0.94466 0.05667 0.0
C4369 C 0.65844 0.93536 0.05493 0.0
C4370 C 0.68754 0.92469 0.08138 0.0
C4371 C 0.67651 0.93474 0.06804 0.0
C4372 C 0.6941 0.92472 0.09034 0.0
C4373 C 0.69822 0.93433 0.0943 0.0
C4374 C 0.68494 0.93436 0.07637 0.0
C4375 C 0.69606 0.94374 0.08864 0.0
C4376 C 0.67345 0.94438 0.06322 0.0
C4377 C 0.66216 0.92579 0.05936 0.0
N4378 N 0.68943 0.94354 0.08005 0.0
N4379 N 0.67086 0.92576 0.06578 0.0
H4380 H 0.16764 0.44521 0.40757 0.0
H4381 H 0.2024 0.41153 0.44883 0.0
H4382 H 0.20162 0.44903 0.41104 0.0
H4383 H 0.16866 0.40736 0.44375 0.0
H4384 H 0.20192 0.42739 0.43742 0.0
H4385 H 0.16751 0.43365 0.42317 0.0
C4386 C 0.17506 0.44374 0.41172 0.0
C4387 C 0.18467 0.44799 0.40791 0.0
C4388 C 0.19459 0.42309 0.43894 0.0
C4389 C 0.18462 0.43457 0.42574 0.0
C4390 C 0.19486 0.41406 0.44549 0.0
C4391 C 0.18558 0.40803 0.44714 0.0
C4392 C 0.18498 0.4261 0.43403 0.0
C4393 C 0.17603 0.41168 0.4426 0.0
C4394 C 0.17499 0.43711 0.42063 0.0
C4395 C 0.19403 0.44588 0.41367 0.0
N4396 N 0.17601 0.42039 0.43619 0.0
N4397 N 0.1938 0.43918 0.42221 0.0
H4398 H 0.20074 0.30401 0.34018 0.0
H4399 H 0.16718 0.34636 0.3066 0.0
H4400 H 0.16726 0.31042 0.34459 0.0
H4401 H 0.20115 0.34236 0.3032 0.0
H4402 H 0.16664 0.33068 0.31803 0.0
H4403 H 0.20061 0.31548 0.32434 0.0
C4404 C 0.19332 0.30766 0.3377 0.0
C4405 C 0.18403 0.30637 0.34379 0.0
C4406 C 0.17421 0.33312 0.31469 0.0
C4407 C 0.18383 0.31952 0.32575 0.0
C4408 C 0.17452 0.34208 0.30813 0.0
C4409 C 0.18425 0.34576 0.30405 0.0
C4410 C 0.18372 0.32784 0.31732 0.0
C4411 C 0.19348 0.33982 0.30623 0.0
C4412 C 0.19326 0.31424 0.32869 0.0
C4413 C 0.17465 0.31129 0.34022 0.0
N4414 N 0.19302 0.33124 0.31285 0.0
N4415 N 0.17481 0.31771 0.33152 0.0
H4416 H 0.10051 0.06233 0.46422 0.0
H4417 H 0.07408 0.11146 0.43344 0.0
H4418 H 0.11139 0.07392 0.43371 0.0
H4419 H 0.06257 0.09933 0.46351 0.0
H4420 H 0.08903 0.09905 0.4344 0.0
H4421 H 0.08784 0.07707 0.46507 0.0
C4422 C 0.10032 0.06803 0.45774 0.0
C4423 C 0.10697 0.06681 0.44883 0.0
C4424 C 0.08328 0.09916 0.44083 0.0
C4425 C 0.09242 0.0837 0.44973 0.0
C4426 C 0.07474 0.10626 0.4403 0.0
C4427 C 0.06698 0.10638 0.44836 0.0
C4428 C 0.08408 0.09209 0.44947 0.0
C4429 C 0.06831 0.09948 0.45707 0.0
C4430 C 0.09306 0.07644 0.45822 0.0
C4431 C 0.10637 0.07448 0.4407 0.0
N4432 N 0.07663 0.09256 0.45735 0.0
N4433 N 0.09917 0.08254 0.44131 0.0
H4434 H 0.90546 0.31071 0.71508 0.0
H4435 H 0.92782 0.36298 0.68623 0.0
H4436 H 0.89147 0.32465 0.6869 0.0
H4437 H 0.94427 0.34696 0.71185 0.0
H4438 H 0.9132 0.35033 0.68795 0.0
H4439 H 0.91841 0.32525 0.71558 0.0
C4440 C 0.90503 0.31688 0.70906 0.0
C4441 C 0.89741 0.31639 0.70088 0.0
C4442 C 0.91997 0.34961 0.69325 0.0
C4443 C 0.91225 0.33304 0.70139 0.0
C4444 C 0.92834 0.35685 0.69228 0.0
C4445 C 0.93736 0.35599 0.69884 0.0
C4446 C 0.92058 0.34142 0.70084 0.0
C4447 C 0.93752 0.3479 0.70657 0.0
C4448 C 0.91246 0.32516 0.70934 0.0
C4449 C 0.89724 0.32463 0.69331 0.0
N4450 N 0.92929 0.34088 0.70731 0.0
N4451 N 0.90459 0.33257 0.69373 0.0
H4452 H 0.64019 0.17753 0.93486 0.0
H4453 H 0.68971 0.15136 0.96524 0.0
H4454 H 0.65221 0.18884 0.96505 0.0
H4455 H 0.67817 0.1407 0.93463 0.0
H4456 H 0.6748 0.16383 0.96627 0.0
H4457 H 0.65277 0.16273 0.93564 0.0
C4458 C 0.6454 0.17686 0.94171 0.0
C4459 C 0.6452 0.18452 0.94985 0.0
C4460 C 0.67548 0.1587 0.95937 0.0
C4461 C 0.65969 0.16758 0.95075 0.0
C4462 C 0.68399 0.15156 0.95877 0.0
C4463 C 0.68527 0.14502 0.94978 0.0
C4464 C 0.66819 0.15935 0.9509 0.0
C4465 C 0.67757 0.14562 0.94168 0.0
C4466 C 0.6526 0.16839 0.94214 0.0
C4467 C 0.65211 0.18318 0.95855 0.0
N4468 N 0.66941 0.15271 0.9424 0.0
N4469 N 0.65914 0.17493 0.95872 0.0
H4470 H 0.81286 0.90178 0.2142 0.0
H4471 H 0.8622 0.92805 0.18367 0.0
H4472 H 0.82428 0.89113 0.18355 0.0
H4473 H 0.85035 0.93923 0.21396 0.0
H4474 H 0.84962 0.91325 0.18443 0.0
H4475 H 0.82774 0.91427 0.21517 0.0
C4476 C 0.81854 0.90198 0.20771 0.0
C4477 C 0.81724 0.89544 0.19873 0.0
C4478 C 0.84982 0.91889 0.19096 0.0
C4479 C 0.83429 0.9098 0.19978 0.0
C4480 C 0.85703 0.92735 0.19053 0.0
C4481 C 0.85728 0.93497 0.19872 0.0
C4482 C 0.84278 0.91804 0.19961 0.0
C4483 C 0.8504 0.93359 0.20744 0.0
C4484 C 0.82704 0.90914 0.20827 0.0
C4485 C 0.82491 0.89605 0.1906 0.0
N4486 N 0.84338 0.92535 0.20761 0.0
N4487 N 0.83305 0.90316 0.19128 0.0
H4488 H 0.07449 0.14036 0.81945 0.0
H4489 H 0.10132 0.18951 0.78909 0.0
H4490 H 0.06378 0.15214 0.78895 0.0
H4491 H 0.11143 0.17827 0.82 0.0
H4492 H 0.08883 0.17465 0.788 0.0
H4493 H 0.08932 0.15291 0.81886 0.0
C4494 C 0.0753 0.14551 0.81258 0.0
C4495 C 0.06779 0.14525 0.80428 0.0
C4496 C 0.09384 0.17538 0.79499 0.0
C4497 C 0.08477 0.15971 0.80359 0.0
C4498 C 0.101 0.18387 0.79561 0.0
C4499 C 0.10739 0.18522 0.8047 0.0
C4500 C 0.09303 0.16818 0.80351 0.0
C4501 C 0.10663 0.17761 0.81287 0.0
C4502 C 0.08378 0.1527 0.81225 0.0
C4503 C 0.06932 0.15209 0.79556 0.0
N4504 N 0.09952 0.16947 0.81211 0.0
N4505 N 0.07758 0.1591 0.79549 0.0
H4506 H 0.81347 0.35052 0.03736 0.0
H4507 H 0.86243 0.32424 0.06853 0.0
H4508 H 0.82482 0.36145 0.06794 0.0
H4509 H 0.85068 0.31275 0.03831 0.0
H4510 H 0.84996 0.33912 0.06749 0.0
H4511 H 0.82827 0.33791 0.03661 0.0
C4512 C 0.81913 0.35036 0.04387 0.0
C4513 C 0.81783 0.35701 0.05278 0.0
C4514 C 0.85017 0.33339 0.06104 0.0
C4515 C 0.83477 0.34251 0.05199 0.0
C4516 C 0.8573 0.32488 0.06162 0.0
C4517 C 0.85755 0.31715 0.05354 0.0
C4518 C 0.84318 0.33419 0.05233 0.0
C4519 C 0.85073 0.31847 0.04476 0.0
C4520 C 0.82757 0.34313 0.04345 0.0
C4521 C 0.82545 0.35644 0.06095 0.0
N4522 N 0.84378 0.32676 0.04443 0.0
N4523 N 0.83353 0.34926 0.0604 0.0
H4524 H 0.67881 0.11172 0.3183 0.0
H4525 H 0.65199 0.0625 0.28803 0.0
H4526 H 0.68993 0.09951 0.28812 0.0
H4527 H 0.64155 0.07415 0.31867 0.0
H4528 H 0.66465 0.07722 0.28698 0.0
H4529 H 0.66388 0.09929 0.31759 0.0
C4530 C 0.67807 0.1065 0.31147 0.0
C4531 C 0.68571 0.10661 0.3033 0.0
C4532 C 0.65953 0.07661 0.29389 0.0
C4533 C 0.66863 0.09228 0.30248 0.0
C4534 C 0.65228 0.0682 0.2945 0.0
C4535 C 0.64574 0.06701 0.3035 0.0
C4536 C 0.66029 0.08389 0.30236 0.0
C4537 C 0.64647 0.07469 0.3116 0.0
C4538 C 0.66954 0.09938 0.31108 0.0
C4539 C 0.68428 0.09968 0.29463 0.0
N4540 N 0.65366 0.08275 0.31087 0.0
N4541 N 0.67596 0.09274 0.29449 0.0
H4542 H 0.90317 0.94054 0.53822 0.0
H4543 H 0.92869 0.8909 0.56892 0.0
H4544 H 0.89198 0.929 0.56864 0.0
H4545 H 0.94042 0.90286 0.53887 0.0
H4546 H 0.91394 0.90352 0.56795 0.0
H4547 H 0.91555 0.92556 0.53734 0.0
C4548 C 0.90323 0.9348 0.54467 0.0
C4549 C 0.89658 0.93611 0.55357 0.0
C4550 C 0.91969 0.90333 0.56152 0.0
C4551 C 0.91081 0.91895 0.55263 0.0
C4552 C 0.92812 0.89611 0.56206 0.0
C4553 C 0.93589 0.89587 0.55401 0.0
C4554 C 0.91901 0.91042 0.55289 0.0
C4555 C 0.93467 0.90279 0.5453 0.0
C4556 C 0.91032 0.92625 0.54416 0.0
C4557 C 0.897 0.92838 0.56166 0.0
N4558 N 0.92645 0.90984 0.54502 0.0
N4559 N 0.90405 0.92019 0.56103 0.0
H4560 H 0.43361 0.07424 0.11184 0.0
H4561 H 0.46427 0.10025 0.06243 0.0
H4562 H 0.46377 0.06279 0.09989 0.0
H4563 H 0.43366 0.11106 0.07381 0.0
H4564 H 0.46519 0.0878 0.07735 0.0
H4565 H 0.43448 0.08904 0.09926 0.0
C4566 C 0.44047 0.07488 0.10665 0.0
C4567 C 0.44858 0.06718 0.10687 0.0
C4568 C 0.45831 0.09295 0.07663 0.0
C4569 C 0.44959 0.08412 0.09238 0.0
C4570 C 0.45778 0.10009 0.06811 0.0
C4571 C 0.44882 0.10666 0.06679 0.0
C4572 C 0.4498 0.09235 0.08388 0.0
C4573 C 0.44069 0.10611 0.07445 0.0
C4574 C 0.44095 0.08334 0.09945 0.0
C4575 C 0.45729 0.06849 0.09997 0.0
N4576 N 0.44134 0.09902 0.08261 0.0
N4577 N 0.45752 0.07673 0.09295 0.0
H4578 H 0.92834 0.6827 0.36158 0.0
H4579 H 0.90228 0.71376 0.31242 0.0
H4580 H 0.9399 0.71287 0.34975 0.0
H4581 H 0.89145 0.68308 0.32361 0.0
H4582 H 0.91484 0.7145 0.32726 0.0
H4583 H 0.91356 0.68366 0.34898 0.0
C4584 C 0.92773 0.68958 0.35641 0.0
C4585 C 0.93545 0.69767 0.35668 0.0
C4586 C 0.90965 0.70765 0.32652 0.0
C4587 C 0.91853 0.69878 0.34216 0.0
C4588 C 0.90246 0.70722 0.31804 0.0
C4589 C 0.89585 0.6983 0.31669 0.0
C4590 C 0.91028 0.69908 0.3337 0.0
C4591 C 0.89643 0.69009 0.32428 0.0
C4592 C 0.91928 0.69011 0.3492 0.0
C4593 C 0.93419 0.70641 0.3498 0.0
N4594 N 0.90357 0.69065 0.3324 0.0
N4595 N 0.92595 0.70669 0.34277 0.0
H4596 H 0.31919 0.17822 0.61247 0.0
H4597 H 0.28855 0.15199 0.56316 0.0
H4598 H 0.28911 0.18972 0.60037 0.0
H4599 H 0.31917 0.14126 0.5746 0.0
H4600 H 0.28763 0.16453 0.578 0.0
H4601 H 0.31831 0.16336 0.59996 0.0
C4602 C 0.31235 0.17758 0.60725 0.0
C4603 C 0.30426 0.18531 0.60742 0.0
C4604 C 0.29451 0.15937 0.57731 0.0
C4605 C 0.30324 0.16831 0.593 0.0
C4606 C 0.29504 0.15219 0.56884 0.0
C4607 C 0.304 0.14562 0.56755 0.0
C4608 C 0.30302 0.16002 0.58456 0.0
C4609 C 0.31214 0.14621 0.57521 0.0
C4610 C 0.31186 0.16909 0.60009 0.0
C4611 C 0.29557 0.184 0.60049 0.0
N4612 N 0.31149 0.15335 0.58333 0.0
N4613 N 0.29533 0.17572 0.59351 0.0
H4614 H 0.84838 0.54132 0.8088 0.0
H4615 H 0.82559 0.56805 0.86188 0.0
H4616 H 0.86305 0.56814 0.82458 0.0
H4617 H 0.81232 0.53959 0.84782 0.0
H4618 H 0.84004 0.56748 0.8489 0.0
H4619 H 0.83575 0.53984 0.82356 0.0
C4620 C 0.84901 0.54685 0.81539 0.0
C4621 C 0.85675 0.55492 0.81539 0.0
C4622 C 0.83402 0.5613 0.8487 0.0
C4623 C 0.84228 0.5533 0.83229 0.0
C4624 C 0.82575 0.56162 0.85613 0.0
C4625 C 0.81766 0.5539 0.8559 0.0
C4626 C 0.83418 0.55326 0.84092 0.0
C4627 C 0.81836 0.54574 0.84828 0.0
C4628 C 0.84179 0.546 0.82382 0.0
C4629 C 0.85719 0.56183 0.82418 0.0
N4630 N 0.82641 0.54568 0.84103 0.0
N4631 N 0.85001 0.56091 0.83222 0.0
H4632 H 0.46289 0.18883 0.15153 0.0
H4633 H 0.43191 0.14005 0.17834 0.0
H4634 H 0.43198 0.17781 0.1412 0.0
H4635 H 0.46244 0.15161 0.1892 0.0
H4636 H 0.43271 0.15254 0.16346 0.0
H4637 H 0.46376 0.17401 0.16408 0.0
C4638 C 0.45632 0.18324 0.15182 0.0
C4639 C 0.4473 0.18465 0.14535 0.0
C4640 C 0.43927 0.15229 0.16904 0.0
C4641 C 0.44823 0.16765 0.15978 0.0
C4642 C 0.43883 0.14514 0.17755 0.0
C4643 C 0.44708 0.14483 0.18511 0.0
C4644 C 0.44801 0.15922 0.16808 0.0
C4645 C 0.45587 0.1516 0.18362 0.0
C4646 C 0.45682 0.17478 0.15901 0.0
C4647 C 0.43906 0.1771 0.14607 0.0
N4648 N 0.45605 0.15857 0.17533 0.0
N4649 N 0.43969 0.16899 0.15321 0.0
H4650 H 0.86181 0.6824 0.42783 0.0
H4651 H 0.81316 0.71399 0.4015 0.0
H4652 H 0.85058 0.71294 0.439 0.0
H4653 H 0.82421 0.68329 0.39059 0.0
H4654 H 0.82802 0.71463 0.41404 0.0
H4655 H 0.84933 0.68348 0.41296 0.0
C4656 C 0.85679 0.68938 0.42712 0.0
C4657 C 0.85719 0.69755 0.43476 0.0
C4658 C 0.82725 0.7078 0.40884 0.0
C4659 C 0.84281 0.6988 0.41774 0.0
C4660 C 0.81877 0.70742 0.40165 0.0
C4661 C 0.81736 0.69852 0.39503 0.0
C4662 C 0.83438 0.69919 0.40945 0.0
C4663 C 0.82492 0.69028 0.39558 0.0
C4664 C 0.84965 0.68999 0.41862 0.0
C4665 C 0.85052 0.70642 0.43336 0.0
N4666 N 0.83304 0.69078 0.40272 0.0
N4667 N 0.84355 0.70677 0.42508 0.0
H4668 H 0.319 0.07447 0.64076 0.0
H4669 H 0.28802 0.10064 0.68988 0.0
H4670 H 0.28875 0.06305 0.65253 0.0
H4671 H 0.31867 0.11144 0.6786 0.0
H4672 H 0.28719 0.08813 0.67501 0.0
H4673 H 0.31803 0.08931 0.65328 0.0
C4674 C 0.3121 0.07512 0.64591 0.0
C4675 C 0.30399 0.06742 0.64565 0.0
C4676 C 0.29406 0.0933 0.67574 0.0
C4677 C 0.30287 0.0844 0.66008 0.0
C4678 C 0.29453 0.10047 0.68423 0.0
C4679 C 0.30348 0.10705 0.68558 0.0
C4680 C 0.3026 0.09267 0.66853 0.0
C4681 C 0.31165 0.10648 0.67795 0.0
C4682 C 0.31156 0.08361 0.65307 0.0
C4683 C 0.29523 0.06874 0.65248 0.0
N4684 N 0.31105 0.09936 0.66982 0.0
N4685 N 0.29495 0.07701 0.65947 0.0
H4686 H 0.89121 0.56944 0.9288 0.0
H4687 H 0.94057 0.53859 0.9029 0.0
H4688 H 0.90284 0.5391 0.94012 0.0
H4689 H 0.92944 0.56934 0.8922 0.0
H4690 H 0.92561 0.53773 0.9153 0.0
H4691 H 0.90392 0.5686 0.91411 0.0
C4692 C 0.89636 0.56255 0.92816 0.0
C4693 C 0.89601 0.55437 0.93579 0.0
C4694 C 0.92639 0.54463 0.91018 0.0
C4695 C 0.91065 0.5534 0.91898 0.0
C4696 C 0.93493 0.54512 0.90308 0.0
C4697 C 0.93634 0.5541 0.89655 0.0
C4698 C 0.91919 0.55317 0.9108 0.0
C4699 C 0.92874 0.56229 0.89712 0.0
C4700 C 0.90364 0.56208 0.91976 0.0
C4701 C 0.90286 0.54562 0.93448 0.0
N4702 N 0.92055 0.56166 0.90417 0.0
N4703 N 0.90996 0.54541 0.9263 0.0
H4704 H 0.10065 0.4637 0.06273 0.0
H4705 H 0.07393 0.43305 0.11176 0.0
H4706 H 0.11114 0.43298 0.07412 0.0
H4707 H 0.06298 0.46346 0.09999 0.0
H4708 H 0.08882 0.43381 0.09929 0.0
H4709 H 0.08808 0.46466 0.07754 0.0
C4710 C 0.10039 0.4572 0.0684 0.0
C4711 C 0.10691 0.44819 0.0671 0.0
C4712 C 0.08322 0.44036 0.09949 0.0
C4713 C 0.09246 0.44923 0.08407 0.0
C4714 C 0.0747 0.43994 0.10663 0.0
C4715 C 0.06711 0.44816 0.10687 0.0
C4716 C 0.08416 0.44905 0.0925 0.0
C4717 C 0.06859 0.45691 0.10005 0.0
C4718 C 0.09319 0.45775 0.07685 0.0
C4719 C 0.10624 0.44004 0.07474 0.0
N4720 N 0.07688 0.45708 0.09309 0.0
N4721 N 0.09908 0.44072 0.08284 0.0
H4722 H 0.6121 0.31758 0.17774 0.0
H4723 H 0.55973 0.28856 0.15583 0.0
H4724 H 0.59646 0.29171 0.19418 0.0
H4725 H 0.57338 0.31683 0.14176 0.0
H4726 H 0.57438 0.28813 0.16865 0.0
H4727 H 0.59924 0.31592 0.16329 0.0
C4728 C 0.60601 0.31149 0.1783 0.0
C4729 C 0.60532 0.30484 0.18726 0.0
C4730 C 0.5742 0.29438 0.16271 0.0
C4731 C 0.59051 0.30292 0.17068 0.0
C4732 C 0.56585 0.29462 0.15536 0.0
C4733 C 0.56526 0.3028 0.14775 0.0
C4734 C 0.58204 0.30236 0.16245 0.0
C4735 C 0.57345 0.31042 0.14753 0.0
C4736 C 0.59865 0.31057 0.17002 0.0
C4737 C 0.59727 0.29706 0.18746 0.0
N4738 N 0.58146 0.31004 0.1548 0.0
N4739 N 0.59014 0.29636 0.17933 0.0
H4740 H 0.7119 0.80806 0.40585 0.0
H4741 H 0.68617 0.86204 0.42773 0.0
H4742 H 0.68616 0.82475 0.39028 0.0
H4743 H 0.71347 0.84688 0.44218 0.0
H4744 H 0.68689 0.84908 0.41326 0.0
H4745 H 0.71342 0.82275 0.41857 0.0
C4746 C 0.70663 0.81484 0.40504 0.0
C4747 C 0.69883 0.81511 0.39702 0.0
C4748 C 0.69279 0.84863 0.41955 0.0
C4749 C 0.7005 0.83194 0.41159 0.0
C4750 C 0.69238 0.85604 0.42782 0.0
C4751 C 0.69972 0.85551 0.43624 0.0
C4752 C 0.70053 0.84055 0.41971 0.0
C4753 C 0.70762 0.84759 0.43588 0.0
C4754 C 0.7075 0.82323 0.41231 0.0
C4755 C 0.69224 0.82414 0.39636 0.0
N4756 N 0.70775 0.84036 0.42781 0.0
N4757 N 0.69318 0.83214 0.40359 0.0
H4758 H 0.17841 0.93372 0.64061 0.0
H4759 H 0.15265 0.96441 0.69015 0.0
H4760 H 0.19013 0.96374 0.65266 0.0
H4761 H 0.14153 0.93398 0.67857 0.0
H4762 H 0.16517 0.96526 0.67527 0.0
H4763 H 0.16364 0.93466 0.65322 0.0
C4764 C 0.17784 0.94056 0.64584 0.0
C4765 C 0.1856 0.94861 0.64563 0.0
C4766 C 0.15993 0.95843 0.67594 0.0
C4767 C 0.1687 0.9497 0.66015 0.0
C4768 C 0.15276 0.95795 0.68443 0.0
C4769 C 0.14608 0.94906 0.68569 0.0
C4770 C 0.16046 0.94996 0.66864 0.0
C4771 C 0.14657 0.94096 0.67798 0.0
C4772 C 0.16939 0.94108 0.65305 0.0
C4773 C 0.18438 0.95731 0.65257 0.0
N4774 N 0.15369 0.94157 0.66985 0.0
N4775 N 0.17615 0.95758 0.6596 0.0
H4776 H 0.56906 0.39143 0.42891 0.0
H4777 H 0.53832 0.44071 0.40272 0.0
H4778 H 0.53882 0.40327 0.44026 0.0
H4779 H 0.56888 0.42921 0.39186 0.0
H4780 H 0.53745 0.42589 0.41529 0.0
H4781 H 0.5682 0.40401 0.41412 0.0
C4782 C 0.56219 0.39661 0.42825 0.0
C4783 C 0.55404 0.39635 0.43592 0.0
C4784 C 0.54431 0.42656 0.4101 0.0
C4785 C 0.55304 0.41084 0.41899 0.0
C4786 C 0.54481 0.43502 0.4029 0.0
C4787 C 0.55373 0.43628 0.39627 0.0
C4788 C 0.55281 0.4193 0.41072 0.0
C4789 C 0.56187 0.42862 0.39685 0.0
C4790 C 0.56171 0.40381 0.41979 0.0
C4791 C 0.54531 0.40323 0.43459 0.0
N4792 N 0.56125 0.42052 0.404 0.0
N4793 N 0.54509 0.41024 0.42635 0.0
H4794 H 0.14112 0.82071 0.0743 0.0
H4795 H 0.1898 0.78902 0.1005 0.0
H4796 H 0.15227 0.79016 0.06308 0.0
H4797 H 0.17899 0.81984 0.11129 0.0
H4798 H 0.17494 0.78844 0.08794 0.0
H4799 H 0.15375 0.81966 0.08905 0.0
C4800 C 0.14615 0.81373 0.07498 0.0
C4801 C 0.14568 0.80555 0.06736 0.0
C4802 C 0.17577 0.79529 0.09312 0.0
C4803 C 0.16023 0.80434 0.08424 0.0
C4804 C 0.18425 0.79562 0.10031 0.0
C4805 C 0.18572 0.80454 0.10691 0.0
C4806 C 0.1687 0.80395 0.09249 0.0
C4807 C 0.17824 0.81284 0.10632 0.0
C4808 C 0.15338 0.81315 0.08341 0.0
C4809 C 0.15238 0.79669 0.06871 0.0
N4810 N 0.17011 0.81237 0.09918 0.0
N4811 N 0.15943 0.79636 0.07693 0.0
H4812 H 0.7139 0.90266 0.31234 0.0
H4813 H 0.68252 0.92837 0.36146 0.0
H4814 H 0.68317 0.89172 0.32327 0.0
H4815 H 0.71292 0.93981 0.3501 0.0
H4816 H 0.68355 0.91367 0.34877 0.0
H4817 H 0.71459 0.91504 0.32733 0.0
C4818 C 0.70734 0.90278 0.31794 0.0
C4819 C 0.69842 0.89619 0.31647 0.0
C4820 C 0.69004 0.91934 0.34911 0.0
C4821 C 0.69914 0.91042 0.33364 0.0
C4822 C 0.68947 0.92775 0.35637 0.0
C4823 C 0.6976 0.93541 0.35679 0.0
C4824 C 0.69879 0.9186 0.34218 0.0
C4825 C 0.70642 0.93414 0.35002 0.0
C4826 C 0.70774 0.90987 0.3265 0.0
C4827 C 0.69018 0.89669 0.32403 0.0
N4828 N 0.70674 0.92595 0.34295 0.0
N4829 N 0.69071 0.90373 0.33223 0.0
H4830 H 0.03834 0.31303 0.85053 0.0
H4831 H 0.06958 0.36188 0.82415 0.0
H4832 H 0.06912 0.3241 0.86122 0.0
H4833 H 0.03916 0.35037 0.81293 0.0
H4834 H 0.06861 0.34936 0.83899 0.0
H4835 H 0.03759 0.32787 0.83799 0.0
C4836 C 0.0449 0.31863 0.85032 0.0
C4837 C 0.05386 0.31724 0.85689 0.0
C4838 C 0.06211 0.34963 0.83334 0.0
C4839 C 0.05306 0.33425 0.84247 0.0
C4840 C 0.06264 0.35679 0.82485 0.0
C4841 C 0.05448 0.35712 0.8172 0.0
C4842 C 0.05336 0.3427 0.83419 0.0
C4843 C 0.04567 0.35036 0.81859 0.0
C4844 C 0.04447 0.32711 0.84314 0.0
C4845 C 0.06208 0.3248 0.85627 0.0
N4846 N 0.04539 0.34337 0.82686 0.0
N4847 N 0.06152 0.33292 0.84913 0.0
H4848 H 0.0742 0.64053 0.31893 0.0
H4849 H 0.09956 0.69006 0.2879 0.0
H4850 H 0.06255 0.65211 0.2887 0.0
H4851 H 0.1108 0.67875 0.31839 0.0
H4852 H 0.08719 0.67505 0.28714 0.0
H4853 H 0.08886 0.65327 0.31793 0.0
C4854 C 0.07477 0.64568 0.31203 0.0
C4855 C 0.06706 0.6453 0.30393 0.0
C4856 C 0.09243 0.67581 0.29395 0.0
C4857 C 0.08382 0.65998 0.30277 0.0
C4858 C 0.09951 0.68438 0.29439 0.0
C4859 C 0.10618 0.68574 0.30327 0.0
C4860 C 0.09198 0.66855 0.30246 0.0
C4861 C 0.10577 0.67808 0.31142 0.0
C4862 C 0.08315 0.65297 0.31147 0.0
C4863 C 0.06826 0.65215 0.29516 0.0
N4864 N 0.09874 0.66987 0.31085 0.0
N4865 N 0.07643 0.65926 0.29486 0.0
H4866 H 0.31317 0.85072 0.03882 0.0
H4867 H 0.36192 0.82463 0.07044 0.0
H4868 H 0.32418 0.86173 0.06949 0.0
H4869 H 0.35075 0.81338 0.03991 0.0
H4870 H 0.34937 0.83945 0.06934 0.0
H4871 H 0.32807 0.83822 0.03819 0.0
C4872 C 0.31877 0.85059 0.04538 0.0
C4873 C 0.31734 0.85723 0.05427 0.0
C4874 C 0.34972 0.83379 0.06284 0.0
C4875 C 0.33441 0.84287 0.05363 0.0
C4876 C 0.3569 0.82532 0.06346 0.0
C4877 C 0.35733 0.81767 0.05531 0.0
C4878 C 0.34288 0.83462 0.05402 0.0
C4879 C 0.35066 0.81903 0.04643 0.0
C4880 C 0.32727 0.84344 0.04502 0.0
C4881 C 0.3249 0.85673 0.06251 0.0
N4882 N 0.34365 0.82728 0.04607 0.0
N4883 N 0.33304 0.84961 0.06202 0.0
H4884 H 0.17841 0.11188 0.81957 0.0
H4885 H 0.15202 0.06284 0.78862 0.0
H4886 H 0.18975 0.10003 0.78933 0.0
H4887 H 0.1413 0.07411 0.81931 0.0
H4888 H 0.1646 0.07765 0.78781 0.0
H4889 H 0.16354 0.09938 0.81866 0.0
C4890 C 0.17774 0.10672 0.81268 0.0
C4891 C 0.18542 0.10695 0.80456 0.0
C4892 C 0.15944 0.07694 0.79468 0.0
C4893 C 0.16841 0.09256 0.8035 0.0
C4894 C 0.15223 0.06848 0.79515 0.0
C4895 C 0.14565 0.06715 0.8041 0.0
C4896 C 0.16011 0.08413 0.80323 0.0
C4897 C 0.14626 0.07476 0.81228 0.0
C4898 C 0.16924 0.09957 0.81218 0.0
C4899 C 0.18407 0.1001 0.79581 0.0
N4900 N 0.15342 0.08286 0.81169 0.0
N4901 N 0.17579 0.09313 0.79556 0.0
H4902 H 0.92824 0.86185 0.18325 0.0
H4903 H 0.90177 0.81299 0.21443 0.0
H4904 H 0.93935 0.85035 0.21371 0.0
H4905 H 0.89132 0.82391 0.18352 0.0
H4906 H 0.91427 0.82787 0.21522 0.0
H4907 H 0.91341 0.84929 0.18415 0.0
C4908 C 0.92752 0.85676 0.19018 0.0
C4909 C 0.93513 0.8571 0.19838 0.0
C4910 C 0.90918 0.82706 0.2083 0.0
C4911 C 0.91817 0.84264 0.19942 0.0
C4912 C 0.90202 0.81857 0.20785 0.0
C4913 C 0.89553 0.81712 0.19885 0.0
C4914 C 0.90991 0.83417 0.19969 0.0
C4915 C 0.8962 0.82465 0.19059 0.0
C4916 C 0.91905 0.84957 0.19068 0.0
C4917 C 0.93372 0.85033 0.20718 0.0
N4918 N 0.90332 0.83279 0.19118 0.0
N4919 N 0.92547 0.84332 0.20742 0.0
H4920 H 0.1779 0.64013 0.93515 0.0
H4921 H 0.15561 0.6924 0.96408 0.0
H4922 H 0.19408 0.65579 0.96117 0.0
H4923 H 0.14164 0.67861 0.93582 0.0
H4924 H 0.16851 0.67782 0.96456 0.0
H4925 H 0.16337 0.65292 0.93674 0.0
C4926 C 0.17838 0.64622 0.94125 0.0
C4927 C 0.1873 0.64693 0.94798 0.0
C4928 C 0.16257 0.67795 0.9583 0.0
C4929 C 0.17064 0.66166 0.94981 0.0
C4930 C 0.15517 0.68626 0.95803 0.0
C4931 C 0.14757 0.6868 0.94984 0.0
C4932 C 0.16236 0.67009 0.95034 0.0
C4933 C 0.1474 0.67858 0.94224 0.0
C4934 C 0.17007 0.65353 0.94214 0.0
C4935 C 0.18741 0.65496 0.95577 0.0
N4936 N 0.15471 0.67062 0.94265 0.0
N4937 N 0.17924 0.66205 0.95642 0.0
H4938 H 0.31287 0.90222 0.71422 0.0
H4939 H 0.36195 0.92854 0.68325 0.0
H4940 H 0.32408 0.89155 0.68349 0.0
H4941 H 0.35017 0.93987 0.71352 0.0
H4942 H 0.34939 0.91372 0.68415 0.0
H4943 H 0.32771 0.91478 0.71503 0.0
C4944 C 0.3185 0.90243 0.70768 0.0
C4945 C 0.31715 0.89587 0.69872 0.0
C4946 C 0.34961 0.9194 0.69063 0.0
C4947 C 0.33415 0.9103 0.69958 0.0
C4948 C 0.35679 0.92787 0.69014 0.0
C4949 C 0.35706 0.93554 0.69828 0.0
C4950 C 0.3426 0.91858 0.69932 0.0
C4951 C 0.35021 0.9342 0.70703 0.0
C4952 C 0.32697 0.90963 0.70814 0.0
C4953 C 0.32474 0.89649 0.69052 0.0
N4954 N 0.34321 0.92594 0.70727 0.0
N4955 N 0.33285 0.90364 0.69112 0.0
H4956 H 0.56853 0.9283 0.89081 0.0
H4957 H 0.53788 0.90305 0.94063 0.0
H4958 H 0.53847 0.94008 0.90272 0.0
H4959 H 0.56843 0.89199 0.92931 0.0
H4960 H 0.537 0.91536 0.92559 0.0
H4961 H 0.56763 0.91369 0.9036 0.0
C4962 C 0.56168 0.92777 0.89604 0.0
C4963 C 0.55361 0.93551 0.89574 0.0
C4964 C 0.54386 0.91018 0.92635 0.0
C4965 C 0.55257 0.91879 0.91048 0.0
C4966 C 0.54436 0.90312 0.93494 0.0
C4967 C 0.55329 0.89653 0.93631 0.0
C4968 C 0.55235 0.91067 0.91908 0.0
C4969 C 0.56142 0.89697 0.92863 0.0
C4970 C 0.56119 0.91942 0.90336 0.0
C4971 C 0.54492 0.93435 0.90269 0.0
N4972 N 0.56079 0.90397 0.9204 0.0
N4973 N 0.54468 0.92621 0.90983 0.0
H4974 H 0.07522 0.31768 0.64001 0.0
H4975 H 0.09784 0.28861 0.69205 0.0
H4976 H 0.05911 0.29168 0.65576 0.0
H4977 H 0.11165 0.31697 0.67832 0.0
H4978 H 0.08491 0.28813 0.67751 0.0
H4979 H 0.08987 0.31602 0.65266 0.0
C4980 C 0.07478 0.31156 0.64608 0.0
C4981 C 0.06585 0.30487 0.64687 0.0
C4982 C 0.09082 0.29441 0.67764 0.0
C4983 C 0.08264 0.30295 0.66144 0.0
C4984 C 0.09824 0.29468 0.68593 0.0
C4985 C 0.10581 0.30291 0.68647 0.0
C4986 C 0.09097 0.3024 0.66981 0.0
C4987 C 0.10593 0.31052 0.67828 0.0
C4988 C 0.08316 0.31063 0.65332 0.0
C4989 C 0.06579 0.29706 0.65488 0.0
N4990 N 0.09859 0.31012 0.67034 0.0
N4991 N 0.07402 0.29636 0.6619 0.0
H4992 H 0.18977 0.46411 0.15143 0.0
H4993 H 0.14065 0.43295 0.17742 0.0
H4994 H 0.17884 0.43329 0.14075 0.0
H4995 H 0.15191 0.4635 0.18851 0.0
H4996 H 0.15337 0.43382 0.16273 0.0
H4997 H 0.17478 0.4649 0.16381 0.0
C4998 C 0.18417 0.45755 0.15161 0.0
C4999 C 0.18564 0.44858 0.14509 0.0
C5000 C 0.153 0.44038 0.16833 0.0
C5001 C 0.16847 0.44941 0.15932 0.0
C5002 C 0.14572 0.43989 0.17672 0.0
C5003 C 0.14526 0.44812 0.18428 0.0
C5004 C 0.15991 0.44914 0.16749 0.0
C5005 C 0.15201 0.45694 0.18291 0.0
C5006 C 0.17561 0.458 0.1587 0.0
C5007 C 0.17808 0.44034 0.14566 0.0
N5008 N 0.15911 0.45717 0.17474 0.0
N5009 N 0.16988 0.44092 0.15271 0.0
H5010 H 0.56765 0.86194 0.8243 0.0
H5011 H 0.56447 0.82613 0.86607 0.0
H5012 H 0.53862 0.84766 0.81263 0.0
H5013 H 0.54391 0.80804 0.84526 0.0
H5014 H 0.56323 0.84118 0.85395 0.0
H5015 H 0.56782 0.84929 0.8389 0.0
C5016 C 0.56119 0.85626 0.82492 0.0
C5017 C 0.55311 0.85589 0.81719 0.0
C5018 C 0.55911 0.8339 0.85189 0.0
C5019 C 0.5531 0.84138 0.83416 0.0
C5020 C 0.55973 0.8253 0.8589 0.0
C5021 C 0.55442 0.81573 0.85661 0.0
C5022 C 0.55326 0.83289 0.8424 0.0
C5023 C 0.54822 0.81522 0.84731 0.0
C5024 C 0.56123 0.84905 0.83336 0.0
C5025 C 0.545 0.84827 0.8184 0.0
N5026 N 0.54787 0.82366 0.84051 0.0
N5027 N 0.54526 0.84126 0.82666 0.0
H5028 H 0.17835 0.31867 0.61164 0.0
H5029 H 0.15248 0.28825 0.56198 0.0
H5030 H 0.18972 0.28847 0.59971 0.0
H5031 H 0.14174 0.31887 0.57342 0.0
H5032 H 0.16488 0.28726 0.57694 0.0
H5033 H 0.16365 0.31791 0.59893 0.0
C5034 C 0.17771 0.31182 0.60642 0.0
C5035 C 0.18536 0.30366 0.60669 0.0
C5036 C 0.15975 0.29415 0.57623 0.0
C5037 C 0.16854 0.30279 0.59205 0.0
C5038 C 0.15264 0.29473 0.56769 0.0
C5039 C 0.14611 0.30371 0.56637 0.0
C5040 C 0.16035 0.30263 0.58351 0.0
C5041 C 0.14666 0.31182 0.57406 0.0
C5042 C 0.16931 0.31141 0.59915 0.0
C5043 C 0.18406 0.29497 0.59976 0.0
N5044 N 0.15372 0.31112 0.58224 0.0
N5045 N 0.17587 0.29481 0.59267 0.0
H5046 H 0.42785 0.68421 0.8618 0.0
H5047 H 0.40246 0.71489 0.81206 0.0
H5048 H 0.43953 0.71434 0.84997 0.0
H5049 H 0.39154 0.68427 0.82333 0.0
H5050 H 0.41477 0.71579 0.8271 0.0
H5051 H 0.41322 0.6851 0.84903 0.0
C5052 C 0.4273 0.69107 0.85659 0.0
C5053 C 0.43501 0.69916 0.85691 0.0
C5054 C 0.40962 0.70891 0.82633 0.0
C5055 C 0.41828 0.70019 0.84219 0.0
C5056 C 0.40257 0.70839 0.81774 0.0
C5057 C 0.39601 0.69944 0.81636 0.0
C5058 C 0.41015 0.70041 0.83359 0.0
C5059 C 0.39649 0.69129 0.82402 0.0
C5060 C 0.41893 0.69156 0.84928 0.0
C5061 C 0.43382 0.70788 0.84998 0.0
N5062 N 0.40349 0.69194 0.83225 0.0
N5063 N 0.42567 0.70811 0.84285 0.0
H5064 H 0.81287 0.0373 0.35031 0.0
H5065 H 0.86164 0.06882 0.32413 0.0
H5066 H 0.82375 0.06811 0.36105 0.0
H5067 H 0.85032 0.03836 0.31284 0.0
H5068 H 0.84911 0.06775 0.33896 0.0
H5069 H 0.8278 0.03661 0.33785 0.0
C5070 C 0.81845 0.04388 0.35013 0.0
C5071 C 0.81697 0.05283 0.35668 0.0
C5072 C 0.84942 0.06126 0.33328 0.0
C5073 C 0.83407 0.05211 0.34236 0.0
C5074 C 0.85659 0.06185 0.32481 0.0
C5075 C 0.85698 0.05371 0.31715 0.0
C5076 C 0.84254 0.05247 0.33411 0.0
C5077 C 0.85026 0.04486 0.3185 0.0
C5078 C 0.82697 0.04348 0.343 0.0
C5079 C 0.8245 0.06108 0.35611 0.0
N5080 N 0.84326 0.04452 0.32676 0.0
N5081 N 0.83267 0.06056 0.34902 0.0
H5082 H 0.46447 0.6011 0.56354 0.0
H5083 H 0.43267 0.57442 0.61185 0.0
H5084 H 0.43359 0.61175 0.57432 0.0
H5085 H 0.46322 0.5633 0.60062 0.0
H5086 H 0.43379 0.58937 0.59947 0.0
H5087 H 0.46507 0.58851 0.57835 0.0
C5088 C 0.45786 0.60087 0.56907 0.0
C5089 C 0.44891 0.60743 0.5676 0.0
C5090 C 0.44029 0.58371 0.59977 0.0
C5091 C 0.44953 0.59296 0.58457 0.0
C5092 C 0.43966 0.57516 0.60685 0.0
C5093 C 0.44782 0.56751 0.60722 0.0
C5094 C 0.44912 0.58462 0.59296 0.0
C5095 C 0.45671 0.56895 0.60058 0.0
C5096 C 0.4582 0.59366 0.57753 0.0
C5097 C 0.44061 0.6068 0.57508 0.0
N5098 N 0.45708 0.57728 0.59367 0.0
N5099 N 0.44109 0.59964 0.58318 0.0
H5100 H 0.82512 0.18349 0.89119 0.0
H5101 H 0.84763 0.21111 0.94393 0.0
H5102 H 0.81141 0.21183 0.90506 0.0
H5103 H 0.86284 0.18453 0.92826 0.0
H5104 H 0.83493 0.21222 0.92921 0.0
H5105 H 0.83964 0.18446 0.90408 0.0
C5106 C 0.8252 0.18997 0.89688 0.0
C5107 C 0.81697 0.19754 0.89708 0.0
C5108 C 0.8411 0.2062 0.92895 0.0
C5109 C 0.83356 0.19865 0.91195 0.0
C5110 C 0.84836 0.20556 0.93736 0.0
C5111 C 0.85628 0.19765 0.93739 0.0
C5112 C 0.84171 0.19885 0.92053 0.0
C5113 C 0.85685 0.19071 0.92863 0.0
C5114 C 0.83351 0.19052 0.90425 0.0
C5115 C 0.81755 0.20579 0.90462 0.0
N5116 N 0.84962 0.19142 0.92061 0.0
N5117 N 0.82564 0.20607 0.91182 0.0
H5118 H 0.93392 0.6404 0.17807 0.0
H5119 H 0.96454 0.69012 0.15259 0.0
H5120 H 0.9639 0.65246 0.18989 0.0
H5121 H 0.93417 0.6785 0.14135 0.0
H5122 H 0.96542 0.67518 0.16502 0.0
H5123 H 0.93488 0.65305 0.16334 0.0
C5124 C 0.94076 0.64564 0.17753 0.0
C5125 C 0.9488 0.64542 0.18531 0.0
C5126 C 0.9586 0.67585 0.15977 0.0
C5127 C 0.9499 0.66 0.16845 0.0
C5128 C 0.9581 0.68438 0.15265 0.0
C5129 C 0.94922 0.68565 0.14596 0.0
C5130 C 0.95015 0.66852 0.16025 0.0
C5131 C 0.94114 0.67791 0.14639 0.0
C5132 C 0.94129 0.65288 0.1691 0.0
C5133 C 0.95749 0.65238 0.18412 0.0
N5134 N 0.94177 0.66974 0.15347 0.0
N5135 N 0.95776 0.65943 0.17591 0.0
H5136 H 0.07473 0.61241 0.93441 0.0
H5137 H 0.10014 0.56256 0.96485 0.0
H5138 H 0.06328 0.60062 0.96463 0.0
H5139 H 0.1109 0.57381 0.93417 0.0
H5140 H 0.08796 0.57769 0.96588 0.0
H5141 H 0.08936 0.59963 0.9352 0.0
C5142 C 0.07534 0.60721 0.94127 0.0
C5143 C 0.06768 0.60753 0.94941 0.0
C5144 C 0.09305 0.5769 0.95896 0.0
C5145 C 0.08442 0.59281 0.95033 0.0
C5146 C 0.10002 0.56825 0.95837 0.0
C5147 C 0.1065 0.56683 0.94935 0.0
C5148 C 0.0925 0.58417 0.95048 0.0
C5149 C 0.10602 0.57452 0.94124 0.0
C5150 C 0.0837 0.59989 0.9417 0.0
C5151 C 0.06895 0.60062 0.95813 0.0
N5152 N 0.09908 0.5828 0.94196 0.0
N5153 N 0.07709 0.59349 0.95831 0.0
H5154 H 0.67841 0.64069 0.43467 0.0
H5155 H 0.65576 0.69409 0.4609 0.0
H5156 H 0.69219 0.65538 0.46256 0.0
H5157 H 0.64072 0.67777 0.43461 0.0
H5158 H 0.66854 0.67947 0.46237 0.0
H5159 H 0.66391 0.65362 0.43527 0.0
C5160 C 0.67835 0.64658 0.44098 0.0
C5161 C 0.68659 0.64699 0.44853 0.0
C5162 C 0.66239 0.67906 0.45634 0.0
C5163 C 0.67001 0.6619 0.44921 0.0
C5164 C 0.65508 0.68741 0.45549 0.0
C5165 C 0.64719 0.68722 0.44757 0.0
C5166 C 0.66185 0.67047 0.44918 0.0
C5167 C 0.6467 0.67831 0.44081 0.0
C5168 C 0.67005 0.65397 0.44132 0.0
C5169 C 0.68603 0.65478 0.45655 0.0
N5170 N 0.65397 0.67035 0.44172 0.0
N5171 N 0.67794 0.66198 0.45662 0.0
H5172 H 0.82456 0.39061 0.68378 0.0
H5173 H 0.85015 0.43991 0.71496 0.0
H5174 H 0.81295 0.40215 0.71403 0.0
H5175 H 0.8611 0.42886 0.68428 0.0
H5176 H 0.83781 0.42489 0.71573 0.0
H5177 H 0.83927 0.40328 0.68482 0.0
C5178 C 0.82515 0.39573 0.6907 0.0
C5179 C 0.81743 0.39537 0.69878 0.0
C5180 C 0.84297 0.4257 0.70887 0.0
C5181 C 0.83426 0.40997 0.69999 0.0
C5182 C 0.85005 0.43428 0.70843 0.0
C5183 C 0.85662 0.43573 0.69949 0.0
C5184 C 0.84243 0.41852 0.70031 0.0
C5185 C 0.85614 0.42812 0.69129 0.0
C5186 C 0.83356 0.40299 0.69128 0.0
C5187 C 0.81867 0.40218 0.70758 0.0
N5188 N 0.84911 0.41991 0.69187 0.0
N5189 N 0.82686 0.40926 0.7079 0.0
H5190 H 0.84774 0.81076 0.53827 0.0
H5191 H 0.82523 0.86251 0.56795 0.0
H5192 H 0.86193 0.82449 0.56644 0.0
H5193 H 0.80889 0.8469 0.54201 0.0
H5194 H 0.83988 0.8499 0.56606 0.0
H5195 H 0.83468 0.82521 0.53807 0.0
C5196 C 0.84819 0.81687 0.54435 0.0
C5197 C 0.85591 0.81635 0.55244 0.0
C5198 C 0.83312 0.84926 0.56074 0.0
C5199 C 0.84093 0.83289 0.55227 0.0
C5200 C 0.82474 0.85647 0.5618 0.0
C5201 C 0.81574 0.85573 0.55519 0.0
C5202 C 0.83255 0.84121 0.553 0.0
C5203 C 0.81562 0.84776 0.54733 0.0
C5204 C 0.8407 0.8251 0.54424 0.0
C5205 C 0.85609 0.82451 0.56009 0.0
N5206 N 0.82386 0.84077 0.54649 0.0
N5207 N 0.84868 0.83239 0.55985 0.0
H5208 H 0.64044 0.57463 0.81845 0.0
H5209 H 0.69042 0.59973 0.78796 0.0
H5210 H 0.65241 0.56277 0.78845 0.0
H5211 H 0.67886 0.61099 0.81833 0.0
H5212 H 0.67537 0.58744 0.78702 0.0
H5213 H 0.65321 0.58925 0.81753 0.0
C5214 C 0.64568 0.57514 0.81161 0.0
C5215 C 0.6454 0.56738 0.80356 0.0
C5216 C 0.67608 0.59266 0.79385 0.0
C5217 C 0.66013 0.58411 0.8025 0.0
C5218 C 0.68467 0.5997 0.79439 0.0
C5219 C 0.68598 0.60635 0.80329 0.0
C5220 C 0.66873 0.59223 0.80228 0.0
C5221 C 0.67823 0.60597 0.81135 0.0
C5222 C 0.65299 0.58351 0.8111 0.0
C5223 C 0.65237 0.56852 0.79488 0.0
N5224 N 0.66999 0.59898 0.81069 0.0
N5225 N 0.6595 0.57667 0.79462 0.0
H5226 H 0.89086 0.42849 0.06919 0.0
H5227 H 0.93976 0.4021 0.03803 0.0
H5228 H 0.90262 0.43987 0.03893 0.0
H5229 H 0.9285 0.39127 0.06868 0.0
H5230 H 0.92496 0.4147 0.03728 0.0
H5231 H 0.90332 0.41359 0.06819 0.0
C5232 C 0.89599 0.42782 0.06228 0.0
C5233 C 0.89575 0.43553 0.05418 0.0
C5234 C 0.92567 0.40951 0.04413 0.0
C5235 C 0.91009 0.41847 0.05301 0.0
C5236 C 0.93412 0.40228 0.04456 0.0
C5237 C 0.93545 0.39566 0.05348 0.0
C5238 C 0.9185 0.41015 0.0527 0.0
C5239 C 0.92786 0.39626 0.06168 0.0
C5240 C 0.90312 0.4193 0.06173 0.0
C5241 C 0.90256 0.43418 0.0454 0.0
N5242 N 0.91976 0.40343 0.06112 0.0
N5243 N 0.90951 0.42587 0.0451 0.0
H5244 H 0.90165 0.21335 0.81363 0.0
H5245 H 0.92915 0.1828 0.86229 0.0
H5246 H 0.89192 0.18225 0.82466 0.0
H5247 H 0.93976 0.21328 0.85039 0.0
H5248 H 0.91414 0.18344 0.84995 0.0
H5249 H 0.91426 0.21441 0.82839 0.0
C5250 C 0.90208 0.20678 0.8192 0.0
C5251 C 0.89578 0.19764 0.81782 0.0
C5252 C 0.9197 0.19003 0.8501 0.0
C5253 C 0.91027 0.1988 0.83474 0.0
C5254 C 0.92828 0.18968 0.85716 0.0
C5255 C 0.93581 0.19795 0.85732 0.0
C5256 C 0.91863 0.1987 0.84311 0.0
C5257 C 0.93421 0.20669 0.85051 0.0
C5258 C 0.90931 0.20739 0.82764 0.0
C5259 C 0.89667 0.18941 0.82535 0.0
N5260 N 0.92585 0.20679 0.84363 0.0
N5261 N 0.90384 0.19015 0.83343 0.0
H5262 H 0.3187 0.67832 0.11229 0.0
H5263 H 0.28793 0.65228 0.06295 0.0
H5264 H 0.28865 0.68994 0.10023 0.0
H5265 H 0.31849 0.64138 0.0744 0.0
H5266 H 0.28705 0.66479 0.07783 0.0
H5267 H 0.31774 0.66347 0.09977 0.0
C5268 C 0.31184 0.67771 0.10708 0.0
C5269 C 0.30379 0.68547 0.10726 0.0
C5270 C 0.29391 0.6596 0.07714 0.0
C5271 C 0.30268 0.66848 0.09284 0.0
C5272 C 0.29441 0.65243 0.06865 0.0
C5273 C 0.30335 0.64582 0.06735 0.0
C5274 C 0.30241 0.6602 0.08439 0.0
C5275 C 0.31147 0.64637 0.07502 0.0
C5276 C 0.31131 0.66922 0.09992 0.0
C5277 C 0.29508 0.6842 0.10034 0.0
N5278 N 0.31085 0.65348 0.08315 0.0
N5279 N 0.2948 0.67593 0.09336 0.0
H5280 H 0.46461 0.65208 0.68908 0.0
H5281 H 0.43364 0.67855 0.6401 0.0
H5282 H 0.43392 0.64138 0.67779 0.0
H5283 H 0.46385 0.68991 0.65202 0.0
H5284 H 0.4346 0.66361 0.65251 0.0
H5285 H 0.46545 0.66464 0.67425 0.0
C5286 C 0.45809 0.65229 0.68343 0.0
C5287 C 0.44913 0.64572 0.68476 0.0
C5288 C 0.44106 0.66932 0.65236 0.0
C5289 C 0.45002 0.66016 0.66778 0.0
C5290 C 0.44053 0.67786 0.64525 0.0
C5291 C 0.44863 0.68558 0.64507 0.0
C5292 C 0.44974 0.66849 0.65937 0.0
C5293 C 0.45738 0.68421 0.65191 0.0
C5294 C 0.45857 0.65949 0.67496 0.0
C5295 C 0.44095 0.64633 0.67715 0.0
N5296 N 0.45766 0.67589 0.65884 0.0
N5297 N 0.44156 0.65348 0.66904 0.0
H5298 H 0.28788 0.60062 0.18909 0.0
H5299 H 0.31904 0.57438 0.14011 0.0
H5300 H 0.31864 0.61132 0.178 0.0
H5301 H 0.28874 0.56301 0.15178 0.0
H5302 H 0.31805 0.58923 0.15261 0.0
H5303 H 0.28709 0.58814 0.17419 0.0
C5304 C 0.29443 0.60043 0.18347 0.0
C5305 C 0.30339 0.60698 0.18488 0.0
C5306 C 0.31157 0.58354 0.15238 0.0
C5307 C 0.30255 0.59263 0.16781 0.0
C5308 C 0.31212 0.57505 0.14523 0.0
C5309 C 0.30401 0.56735 0.14495 0.0
C5310 C 0.30286 0.58435 0.15936 0.0
C5311 C 0.29522 0.56869 0.15175 0.0
C5312 C 0.29397 0.59328 0.17496 0.0
C5313 C 0.3116 0.60639 0.17729 0.0
N5314 N 0.29492 0.57697 0.15873 0.0
N5315 N 0.31102 0.59928 0.16915 0.0
H5316 H 0.94143 0.0385 0.40485 0.0
H5317 H 0.88986 0.06807 0.42792 0.0
H5318 H 0.92797 0.0671 0.39128 0.0
H5319 H 0.90543 0.04185 0.44386 0.0
H5320 H 0.90246 0.06638 0.41324 0.0
H5321 H 0.927 0.03817 0.41792 0.0
C5322 C 0.93539 0.04465 0.40454 0.0
C5323 C 0.93598 0.0529 0.39699 0.0
C5324 C 0.9031 0.06095 0.41992 0.0
C5325 C 0.91945 0.05257 0.41198 0.0
C5326 C 0.89589 0.0619 0.42832 0.0
C5327 C 0.89662 0.05515 0.43721 0.0
C5328 C 0.91113 0.05319 0.42037 0.0
C5329 C 0.90458 0.04728 0.43721 0.0
C5330 C 0.92716 0.04447 0.41203 0.0
C5331 C 0.9279 0.06063 0.39698 0.0
N5332 N 0.91156 0.04655 0.42895 0.0
N5333 N 0.92001 0.06031 0.40439 0.0
H5334 H 0.1123 0.93308 0.57401 0.0
H5335 H 0.06318 0.96381 0.60052 0.0
H5336 H 0.1004 0.96334 0.56277 0.0
H5337 H 0.07447 0.93306 0.61104 0.0
H5338 H 0.07797 0.96469 0.58791 0.0
H5339 H 0.09975 0.93388 0.58884 0.0
C5340 C 0.10712 0.93994 0.5747 0.0
C5341 C 0.10736 0.94811 0.56706 0.0
C5342 C 0.07726 0.95779 0.59303 0.0
C5343 C 0.09289 0.94904 0.58402 0.0
C5344 C 0.06882 0.95728 0.60025 0.0
C5345 C 0.06751 0.9483 0.6068 0.0
C5346 C 0.08445 0.94925 0.59231 0.0
C5347 C 0.0751 0.94011 0.60611 0.0
C5348 C 0.09993 0.94039 0.58318 0.0
C5349 C 0.10047 0.95682 0.56842 0.0
N5350 N 0.0832 0.94075 0.59894 0.0
N5351 N 0.09347 0.95702 0.57668 0.0
H5352 H 0.57436 0.81912 0.64091 0.0
H5353 H 0.59985 0.78813 0.69038 0.0
H5354 H 0.56269 0.78894 0.65258 0.0
H5355 H 0.61095 0.81868 0.67909 0.0
H5356 H 0.58751 0.78731 0.67536 0.0
H5357 H 0.58908 0.8181 0.65357 0.0
C5358 C 0.57493 0.81222 0.64606 0.0
C5359 C 0.5672 0.80415 0.64574 0.0
C5360 C 0.59271 0.79415 0.67611 0.0
C5361 C 0.58403 0.80296 0.66033 0.0
C5362 C 0.59978 0.79462 0.68469 0.0
C5363 C 0.60639 0.80354 0.68608 0.0
C5364 C 0.59221 0.80266 0.66887 0.0
C5365 C 0.60596 0.81168 0.67841 0.0
C5366 C 0.58335 0.81165 0.65331 0.0
C5367 C 0.56842 0.79538 0.65258 0.0
N5368 N 0.59893 0.81108 0.67019 0.0
N5369 N 0.57662 0.79507 0.65965 0.0
H5370 H 0.71349 0.30967 0.90626 0.0
H5371 H 0.68501 0.36234 0.92816 0.0
H5372 H 0.6853 0.32356 0.89226 0.0
H5373 H 0.71074 0.34646 0.94458 0.0
H5374 H 0.68654 0.34946 0.91371 0.0
H5375 H 0.7141 0.32435 0.91905 0.0
C5376 C 0.70749 0.31586 0.90579 0.0
C5377 C 0.69927 0.31532 0.89821 0.0
C5378 C 0.69189 0.34882 0.92044 0.0
C5379 C 0.69992 0.33213 0.91287 0.0
C5380 C 0.69104 0.35619 0.92871 0.0
C5381 C 0.6977 0.35544 0.93767 0.0
C5382 C 0.69946 0.34062 0.92109 0.0
C5383 C 0.7054 0.34732 0.93787 0.0
C5384 C 0.70783 0.32422 0.91313 0.0
C5385 C 0.69173 0.32359 0.898 0.0
N5386 N 0.70602 0.34019 0.92973 0.0
N5387 N 0.69221 0.3316 0.90525 0.0
H5388 H 0.68527 0.42818 0.86112 0.0
H5389 H 0.71157 0.40551 0.80776 0.0
H5390 H 0.71303 0.44211 0.84633 0.0
H5391 H 0.68563 0.39019 0.82439 0.0
H5392 H 0.71296 0.4184 0.82231 0.0
H5393 H 0.68601 0.4136 0.84829 0.0
C5394 C 0.69158 0.42814 0.85523 0.0
C5395 C 0.69905 0.43644 0.85477 0.0
C5396 C 0.70702 0.41216 0.82281 0.0
C5397 C 0.69989 0.41978 0.83996 0.0
C5398 C 0.70622 0.40479 0.8145 0.0
C5399 C 0.69841 0.39679 0.81479 0.0
C5400 C 0.69993 0.41156 0.83145 0.0
C5401 C 0.69173 0.39625 0.82376 0.0
C5402 C 0.692 0.4198 0.8479 0.0
C5403 C 0.70707 0.43591 0.84698 0.0
N5404 N 0.6926 0.40357 0.83167 0.0
N5405 N 0.70722 0.42778 0.83983 0.0
H5406 H 0.06886 0.86177 0.32395 0.0
H5407 H 0.03777 0.81257 0.34991 0.0
H5408 H 0.03872 0.84996 0.31229 0.0
H5409 H 0.06828 0.82397 0.36099 0.0
H5410 H 0.03707 0.82736 0.33728 0.0
H5411 H 0.06786 0.84915 0.33871 0.0
C5412 C 0.06198 0.85659 0.32453 0.0
C5413 C 0.0539 0.85688 0.31679 0.0
C5414 C 0.04388 0.82667 0.34253 0.0
C5415 C 0.05274 0.84234 0.33369 0.0
C5416 C 0.04428 0.81823 0.34977 0.0
C5417 C 0.05314 0.81695 0.35647 0.0
C5418 C 0.05241 0.83389 0.34196 0.0
C5419 C 0.06131 0.82458 0.35594 0.0
C5420 C 0.06142 0.84937 0.33297 0.0
C5421 C 0.04517 0.84999 0.31802 0.0
N5422 N 0.06078 0.83266 0.34876 0.0
N5423 N 0.04486 0.84296 0.32625 0.0
H5424 H 0.3132 0.34989 0.53864 0.0
H5425 H 0.36233 0.32364 0.56957 0.0
H5426 H 0.32434 0.36048 0.56942 0.0
H5427 H 0.35073 0.31246 0.53917 0.0
H5428 H 0.34974 0.33844 0.5687 0.0
H5429 H 0.32812 0.33743 0.53777 0.0
C5430 C 0.31883 0.34968 0.54518 0.0
C5431 C 0.31744 0.35619 0.55417 0.0
C5432 C 0.35 0.3328 0.56218 0.0
C5433 C 0.33453 0.34188 0.55323 0.0
C5434 C 0.35721 0.32434 0.56266 0.0
C5435 C 0.35753 0.31672 0.55448 0.0
C5436 C 0.34303 0.33364 0.55347 0.0
C5437 C 0.35073 0.3181 0.5457 0.0
C5438 C 0.32735 0.34254 0.54468 0.0
C5439 C 0.32503 0.35557 0.56236 0.0
N5440 N 0.3437 0.32633 0.54547 0.0
N5441 N 0.3332 0.34849 0.56173 0.0
H5442 H 0.1405 0.57414 0.31665 0.0
H5443 H 0.19429 0.59617 0.29067 0.0
H5444 H 0.1554 0.55991 0.2891 0.0
H5445 H 0.17778 0.6116 0.31661 0.0
H5446 H 0.17961 0.58345 0.2892 0.0
H5447 H 0.1535 0.58857 0.31598 0.0
C5448 C 0.14645 0.57409 0.3104 0.0
C5449 C 0.14689 0.56574 0.30297 0.0
C5450 C 0.17917 0.58967 0.29516 0.0
C5451 C 0.1619 0.58224 0.3022 0.0
C5452 C 0.18755 0.59695 0.296 0.0
C5453 C 0.18733 0.60494 0.30383 0.0
C5454 C 0.1705 0.59036 0.30222 0.0
C5455 C 0.17835 0.60555 0.31049 0.0
C5456 C 0.15388 0.58234 0.31002 0.0
C5457 C 0.15476 0.56615 0.29502 0.0
N5458 N 0.17036 0.59832 0.30958 0.0
N5459 N 0.16201 0.57421 0.29491 0.0
H5460 H 0.1784 0.14095 0.43467 0.0
H5461 H 0.15559 0.1942 0.46109 0.0
H5462 H 0.19182 0.1553 0.46291 0.0
H5463 H 0.14088 0.1782 0.43442 0.0
H5464 H 0.16831 0.17952 0.46258 0.0
H5465 H 0.16396 0.15395 0.43517 0.0
C5466 C 0.17827 0.14678 0.44103 0.0
C5467 C 0.1864 0.14707 0.44871 0.0
C5468 C 0.16225 0.17919 0.45646 0.0
C5469 C 0.16989 0.16207 0.44928 0.0
C5470 C 0.15498 0.18758 0.45559 0.0
C5471 C 0.14719 0.18749 0.44756 0.0
C5472 C 0.16177 0.17067 0.44921 0.0
C5473 C 0.14677 0.17866 0.4407 0.0
C5474 C 0.17002 0.15421 0.44131 0.0
C5475 C 0.18576 0.15478 0.4568 0.0
N5476 N 0.154 0.17066 0.44164 0.0
N5477 N 0.17771 0.16203 0.45681 0.0
H5478 H 0.32429 0.39033 0.18269 0.0
H5479 H 0.35058 0.43945 0.21358 0.0
H5480 H 0.31308 0.40204 0.21303 0.0
H5481 H 0.36103 0.42843 0.18271 0.0
H5482 H 0.33814 0.42453 0.21446 0.0
H5483 H 0.33909 0.40291 0.18354 0.0
C5484 C 0.32498 0.39547 0.18958 0.0
C5485 C 0.31735 0.39519 0.19775 0.0
C5486 C 0.34322 0.42532 0.20753 0.0
C5487 C 0.33429 0.40967 0.19874 0.0
C5488 C 0.35034 0.43385 0.20702 0.0
C5489 C 0.35681 0.43528 0.198 0.0
C5490 C 0.34252 0.41817 0.19895 0.0
C5491 C 0.35616 0.42771 0.18979 0.0
C5492 C 0.33345 0.40267 0.19005 0.0
C5493 C 0.31872 0.40202 0.20651 0.0
N5494 N 0.34909 0.41954 0.19042 0.0
N5495 N 0.32697 0.40903 0.20673 0.0
H5496 H 0.10044 0.78895 0.18958 0.0
H5497 H 0.0742 0.81973 0.14036 0.0
H5498 H 0.11124 0.81956 0.17818 0.0
H5499 H 0.06285 0.7895 0.15224 0.0
H5500 H 0.08904 0.81885 0.15289 0.0
H5501 H 0.08791 0.78808 0.17473 0.0
C5502 C 0.10026 0.79545 0.1839 0.0
C5503 C 0.10685 0.8044 0.18521 0.0
C5504 C 0.08336 0.81236 0.1527 0.0
C5505 C 0.09245 0.80346 0.16819 0.0
C5506 C 0.07487 0.81286 0.14553 0.0
C5507 C 0.06719 0.80473 0.1453 0.0
C5508 C 0.08417 0.8037 0.15973 0.0
C5509 C 0.06853 0.79599 0.15217 0.0
C5510 C 0.09308 0.79495 0.17542 0.0
C5511 C 0.10627 0.81254 0.17755 0.0
N5512 N 0.0768 0.79575 0.15916 0.0
N5513 N 0.09914 0.81191 0.16943 0.0
H5514 H 0.54184 0.3436 0.3059 0.0
H5515 H 0.56501 0.32471 0.36222 0.0
H5516 H 0.56469 0.36146 0.32442 0.0
H5517 H 0.54266 0.30611 0.34383 0.0
H5518 H 0.56368 0.33894 0.3491 0.0
H5519 H 0.54075 0.33051 0.32031 0.0
C5520 C 0.54656 0.34483 0.31302 0.0
C5521 C 0.55343 0.35362 0.3139 0.0
C5522 C 0.55901 0.33178 0.34795 0.0
C5523 C 0.55224 0.33863 0.3304 0.0
C5524 C 0.55976 0.32363 0.35546 0.0
C5525 C 0.554 0.31414 0.3541 0.0
C5526 C 0.55248 0.33046 0.33896 0.0
C5527 C 0.54728 0.31326 0.34519 0.0
C5528 C 0.54594 0.33733 0.32124 0.0
C5529 C 0.55934 0.35478 0.32333 0.0
N5530 N 0.54677 0.32128 0.33792 0.0
N5531 N 0.55864 0.34736 0.33117 0.0
H5532 H 0.42777 0.18328 0.36214 0.0
H5533 H 0.40207 0.21418 0.31271 0.0
H5534 H 0.43946 0.21338 0.35026 0.0
H5535 H 0.39105 0.18362 0.32405 0.0
H5536 H 0.41451 0.215 0.32765 0.0
H5537 H 0.413 0.18428 0.34954 0.0
C5538 C 0.42719 0.19015 0.35696 0.0
C5539 C 0.43495 0.1982 0.3572 0.0
C5540 C 0.40931 0.20815 0.32692 0.0
C5541 C 0.41805 0.19936 0.34268 0.0
C5542 C 0.40218 0.20768 0.31839 0.0
C5543 C 0.39556 0.19877 0.31704 0.0
C5544 C 0.40984 0.19964 0.33417 0.0
C5545 C 0.39605 0.19062 0.3247 0.0
C5546 C 0.41874 0.19071 0.34974 0.0
C5547 C 0.43372 0.20694 0.35032 0.0
N5548 N 0.40312 0.19122 0.33288 0.0
N5549 N 0.42549 0.20724 0.34329 0.0
H5550 H 0.96481 0.19042 0.65284 0.0
H5551 H 0.93398 0.14097 0.67862 0.0
H5552 H 0.93423 0.17909 0.6419 0.0
H5553 H 0.96413 0.15283 0.69021 0.0
H5554 H 0.93491 0.15362 0.66388 0.0
H5555 H 0.96566 0.17548 0.66528 0.0
C5556 C 0.95832 0.18474 0.65297 0.0
C5557 C 0.94938 0.18609 0.64637 0.0
C5558 C 0.94136 0.1534 0.6696 0.0
C5559 C 0.95028 0.16897 0.66066 0.0
C5560 C 0.94085 0.14617 0.67802 0.0
C5561 C 0.94894 0.14589 0.68574 0.0
C5562 C 0.95002 0.16046 0.66888 0.0
C5563 C 0.95767 0.15279 0.6845 0.0
C5564 C 0.9588 0.17621 0.6601 0.0
C5565 C 0.94124 0.17843 0.64688 0.0
N5566 N 0.95793 0.15985 0.67628 0.0
N5567 N 0.94185 0.17026 0.65395 0.0
H5568 H 0.56298 0.10035 0.96398 0.0
H5569 H 0.61171 0.07387 0.93261 0.0
H5570 H 0.57394 0.11096 0.93314 0.0
H5571 H 0.60032 0.06275 0.96311 0.0
H5572 H 0.59919 0.08872 0.93358 0.0
H5573 H 0.57783 0.0878 0.9647 0.0
C5574 C 0.56856 0.10012 0.9574 0.0
C5575 C 0.56713 0.10667 0.94843 0.0
C5576 C 0.59948 0.08308 0.94011 0.0
C5577 C 0.58414 0.09224 0.94919 0.0
C5578 C 0.60665 0.07459 0.93956 0.0
C5579 C 0.60701 0.06697 0.94775 0.0
C5580 C 0.59259 0.08396 0.94888 0.0
C5581 C 0.60028 0.06838 0.95658 0.0
C5582 C 0.57704 0.09293 0.95781 0.0
C5583 C 0.57466 0.10603 0.94018 0.0
N5584 N 0.59329 0.07665 0.95686 0.0
N5585 N 0.58278 0.09889 0.94072 0.0
H5586 H 0.38974 0.32383 0.18299 0.0
H5587 H 0.43818 0.35079 0.21437 0.0
H5588 H 0.40125 0.31281 0.21348 0.0
H5589 H 0.42729 0.36113 0.18342 0.0
H5590 H 0.42339 0.33818 0.21513 0.0
H5591 H 0.4021 0.33881 0.18397 0.0
C5592 C 0.39479 0.3246 0.18994 0.0
C5593 C 0.39451 0.31697 0.19812 0.0
C5594 C 0.42418 0.34327 0.20821 0.0
C5595 C 0.40875 0.33411 0.19926 0.0
C5596 C 0.43263 0.3505 0.20778 0.0
C5597 C 0.43406 0.35697 0.19876 0.0
C5598 C 0.41712 0.34247 0.19957 0.0
C5599 C 0.42656 0.35625 0.19049 0.0
C5600 C 0.40187 0.33316 0.19049 0.0
C5601 C 0.40123 0.31844 0.20695 0.0
N5602 N 0.41847 0.34907 0.19106 0.0
N5603 N 0.40813 0.32679 0.20724 0.0
H5604 H 0.59638 0.1948 0.29091 0.0
H5605 H 0.57418 0.1411 0.31695 0.0
H5606 H 0.61177 0.17826 0.31685 0.0
H5607 H 0.56006 0.15592 0.28931 0.0
H5608 H 0.5886 0.15411 0.31632 0.0
H5609 H 0.58358 0.18017 0.28949 0.0
C5610 C 0.59713 0.18807 0.29625 0.0
C5611 C 0.60513 0.18782 0.30406 0.0
C5612 C 0.5824 0.15448 0.31034 0.0
C5613 C 0.59046 0.17106 0.30251 0.0
C5614 C 0.57415 0.14704 0.31069 0.0
C5615 C 0.56584 0.14745 0.30322 0.0
C5616 C 0.58232 0.16247 0.3025 0.0
C5617 C 0.56627 0.15531 0.29526 0.0
C5618 C 0.58981 0.17971 0.29544 0.0
C5619 C 0.60571 0.17885 0.31074 0.0
N5620 N 0.57432 0.16256 0.29517 0.0
N5621 N 0.59844 0.17089 0.30986 0.0
H5622 H 0.42828 0.89081 0.07004 0.0
H5623 H 0.40204 0.93957 0.03852 0.0
H5624 H 0.43944 0.90203 0.03949 0.0
H5625 H 0.39134 0.92872 0.06936 0.0
H5626 H 0.41454 0.92468 0.03786 0.0
H5627 H 0.41351 0.90342 0.06904 0.0
C5628 C 0.42758 0.89585 0.06307 0.0
C5629 C 0.43519 0.89541 0.05489 0.0
C5630 C 0.4094 0.92551 0.04473 0.0
C5631 C 0.41829 0.90993 0.05371 0.0
C5632 C 0.40224 0.93401 0.04511 0.0
C5633 C 0.39568 0.93548 0.05406 0.0
C5634 C 0.41005 0.91841 0.05337 0.0
C5635 C 0.39628 0.92797 0.06234 0.0
C5636 C 0.41914 0.90307 0.06251 0.0
C5637 C 0.43382 0.90212 0.04603 0.0
N5638 N 0.40339 0.91982 0.06182 0.0
N5639 N 0.42559 0.90915 0.04572 0.0
H5640 H 0.93576 0.07478 0.61195 0.0
H5641 H 0.9618 0.09718 0.55833 0.0
H5642 H 0.96391 0.06126 0.59751 0.0
H5643 H 0.93534 0.1121 0.57449 0.0
H5644 H 0.96337 0.08454 0.57308 0.0
H5645 H 0.93618 0.08913 0.59885 0.0
C5646 C 0.94209 0.07487 0.60609 0.0
C5647 C 0.94977 0.06674 0.6058 0.0
C5648 C 0.95728 0.09063 0.57343 0.0
C5649 C 0.95024 0.08314 0.59068 0.0
C5650 C 0.95637 0.09785 0.565 0.0
C5651 C 0.94837 0.10568 0.56511 0.0
C5652 C 0.95011 0.0912 0.58201 0.0
C5653 C 0.94159 0.10618 0.57401 0.0
C5654 C 0.94232 0.08308 0.59859 0.0
C5655 C 0.9578 0.06733 0.59803 0.0
N5656 N 0.94257 0.099 0.58204 0.0
N5657 N 0.95777 0.07532 0.59072 0.0
H5658 H 0.78957 0.19168 0.0975 0.0
H5659 H 0.81759 0.13914 0.07476 0.0
H5660 H 0.81796 0.17766 0.11096 0.0
H5661 H 0.79183 0.15537 0.05874 0.0
H5662 H 0.81625 0.15184 0.08938 0.0
H5663 H 0.78874 0.17711 0.08462 0.0
C5664 C 0.79557 0.18549 0.09783 0.0
C5665 C 0.80391 0.18596 0.10529 0.0
C5666 C 0.81085 0.1526 0.0827 0.0
C5667 C 0.803 0.16927 0.09051 0.0
C5668 C 0.81159 0.14533 0.07434 0.0
C5669 C 0.80487 0.14623 0.06543 0.0
C5670 C 0.80333 0.16086 0.0822 0.0
C5671 C 0.79722 0.15439 0.0654 0.0
C5672 C 0.7951 0.17719 0.09044 0.0
C5673 C 0.81144 0.17769 0.10532 0.0
N5674 N 0.7967 0.16143 0.07362 0.0
N5675 N 0.81083 0.16972 0.09801 0.0
H5676 H 0.34754 0.5389 0.31038 0.0
H5677 H 0.32491 0.56765 0.36259 0.0
H5678 H 0.36108 0.56744 0.32401 0.0
H5679 H 0.30894 0.54156 0.34684 0.0
H5680 H 0.33948 0.56619 0.34982 0.0
H5681 H 0.33467 0.53829 0.32497 0.0
C5682 C 0.34789 0.54499 0.31649 0.0
C5683 C 0.35537 0.55329 0.3159 0.0
C5684 C 0.33282 0.56074 0.34919 0.0
C5685 C 0.3406 0.55265 0.33262 0.0
C5686 C 0.32449 0.56156 0.3565 0.0
C5687 C 0.31562 0.55478 0.35575 0.0
C5688 C 0.33232 0.55309 0.34105 0.0
C5689 C 0.31557 0.547 0.3477 0.0
C5690 C 0.3405 0.54464 0.3248 0.0
C5691 C 0.35542 0.56093 0.32407 0.0
N5692 N 0.32376 0.54642 0.34063 0.0
N5693 N 0.34812 0.56046 0.33205 0.0
H5694 H 0.3472 0.71413 0.94257 0.0
H5695 H 0.32483 0.6852 0.89033 0.0
H5696 H 0.36113 0.68586 0.92876 0.0
H5697 H 0.30856 0.71108 0.90612 0.0
H5698 H 0.33938 0.68681 0.90309 0.0
H5699 H 0.33425 0.71459 0.92803 0.0
C5700 C 0.34762 0.70808 0.93643 0.0
C5701 C 0.35523 0.69989 0.93695 0.0
C5702 C 0.33266 0.69218 0.90374 0.0
C5703 C 0.34038 0.70036 0.9203 0.0
C5704 C 0.32434 0.69128 0.89644 0.0
C5705 C 0.31539 0.69796 0.89719 0.0
C5706 C 0.33208 0.69982 0.91189 0.0
C5707 C 0.31526 0.70572 0.90526 0.0
C5708 C 0.34019 0.70833 0.92815 0.0
C5709 C 0.35537 0.69228 0.92875 0.0
N5710 N 0.32345 0.70639 0.91233 0.0
N5711 N 0.34803 0.69268 0.9208 0.0
H5712 H 0.81928 0.07344 0.14045 0.0
H5713 H 0.78883 0.10024 0.18957 0.0
H5714 H 0.78906 0.06232 0.15257 0.0
H5715 H 0.81955 0.11065 0.17808 0.0
H5716 H 0.78782 0.08762 0.1748 0.0
H5717 H 0.81853 0.08838 0.15286 0.0
C5718 C 0.81243 0.07418 0.14565 0.0
C5719 C 0.80427 0.06653 0.14552 0.0
C5720 C 0.79475 0.09273 0.17546 0.0
C5721 C 0.8034 0.08363 0.15983 0.0
C5722 C 0.79533 0.09995 0.18389 0.0
C5723 C 0.80434 0.10646 0.18515 0.0
C5724 C 0.80325 0.09196 0.16822 0.0
C5725 C 0.81248 0.10575 0.1775 0.0
C5726 C 0.81202 0.08272 0.15275 0.0
C5727 C 0.79558 0.06797 0.15242 0.0
N5728 N 0.81177 0.09858 0.16942 0.0
N5729 N 0.79541 0.07629 0.15935 0.0
H5730 H 0.42788 0.56899 0.39063 0.0
H5731 H 0.40252 0.53811 0.44025 0.0
H5732 H 0.43935 0.53867 0.40215 0.0
H5733 H 0.39163 0.56882 0.42919 0.0
H5734 H 0.41477 0.53726 0.42516 0.0
H5735 H 0.4133 0.56811 0.40346 0.0
C5736 C 0.42729 0.56209 0.39578 0.0
C5737 C 0.43494 0.55394 0.39537 0.0
C5738 C 0.40964 0.54414 0.42599 0.0
C5739 C 0.41825 0.55292 0.41014 0.0
C5740 C 0.40263 0.54464 0.4346 0.0
C5741 C 0.39609 0.5536 0.43606 0.0
C5742 C 0.41016 0.55268 0.41877 0.0
C5743 C 0.39656 0.56178 0.42844 0.0
C5744 C 0.41895 0.56161 0.40312 0.0
C5745 C 0.4337 0.54518 0.40222 0.0
N5746 N 0.40353 0.56116 0.42018 0.0
N5747 N 0.42557 0.54494 0.40938 0.0
H5748 H 0.57346 0.434 0.61166 0.0
H5749 H 0.59971 0.46472 0.56241 0.0
H5750 H 0.56158 0.46381 0.59925 0.0
H5751 H 0.61093 0.43446 0.57433 0.0
H5752 H 0.58695 0.46552 0.57708 0.0
H5753 H 0.58843 0.43505 0.59931 0.0
C5754 C 0.57403 0.44082 0.60641 0.0
C5755 C 0.56617 0.44878 0.60644 0.0
C5756 C 0.59226 0.45875 0.57653 0.0
C5757 C 0.58331 0.44999 0.5922 0.0
C5758 C 0.59958 0.45829 0.56816 0.0
C5759 C 0.60635 0.44945 0.56706 0.0
C5760 C 0.59169 0.45031 0.58386 0.0
C5761 C 0.60582 0.44139 0.5748 0.0
C5762 C 0.58259 0.4414 0.59934 0.0
C5763 C 0.5674 0.45745 0.59947 0.0
N5764 N 0.59856 0.44197 0.58281 0.0
N5765 N 0.57575 0.45778 0.59258 0.0
H5766 H 0.21457 0.81254 0.90219 0.0
H5767 H 0.1842 0.86223 0.92805 0.0
H5768 H 0.18417 0.82429 0.89117 0.0
H5769 H 0.21404 0.84984 0.93987 0.0
H5770 H 0.18508 0.84966 0.91324 0.0
H5771 H 0.21552 0.82738 0.91473 0.0
C5772 C 0.20814 0.81829 0.90232 0.0
C5773 C 0.19922 0.81709 0.89567 0.0
C5774 C 0.19148 0.84975 0.91902 0.0
C5775 C 0.20025 0.8341 0.91008 0.0
C5776 C 0.19099 0.85694 0.92749 0.0
C5777 C 0.19901 0.85704 0.93529 0.0
C5778 C 0.20004 0.84256 0.91834 0.0
C5779 C 0.20764 0.85002 0.93409 0.0
C5780 C 0.20868 0.82676 0.90951 0.0
C5781 C 0.19116 0.82483 0.89619 0.0
N5782 N 0.20788 0.84301 0.92583 0.0
N5783 N 0.19183 0.83295 0.90332 0.0
H5784 H 0.6517 0.9649 0.18875 0.0
H5785 H 0.67845 0.93298 0.14055 0.0
H5786 H 0.64118 0.93392 0.17813 0.0
H5787 H 0.68948 0.96362 0.15163 0.0
H5788 H 0.66352 0.93409 0.15295 0.0
H5789 H 0.66429 0.96547 0.17393 0.0
C5790 C 0.65195 0.95826 0.18325 0.0
C5791 C 0.64543 0.9493 0.18477 0.0
C5792 C 0.66915 0.94061 0.15262 0.0
C5793 C 0.65989 0.94988 0.16779 0.0
C5794 C 0.67769 0.93999 0.14552 0.0
C5795 C 0.68531 0.94817 0.1451 0.0
C5796 C 0.66822 0.94947 0.15939 0.0
C5797 C 0.68385 0.95708 0.15171 0.0
C5798 C 0.65916 0.95859 0.17479 0.0
C5799 C 0.64609 0.94096 0.17733 0.0
N5800 N 0.67554 0.95745 0.15864 0.0
N5801 N 0.65326 0.94142 0.16923 0.0
H5802 H 0.06932 0.3905 0.92839 0.0
H5803 H 0.0381 0.43923 0.90174 0.0
H5804 H 0.03887 0.40204 0.93949 0.0
H5805 H 0.06894 0.42819 0.89121 0.0
H5806 H 0.03735 0.42444 0.91436 0.0
H5807 H 0.06841 0.403 0.91353 0.0
C5808 C 0.0624 0.39559 0.92766 0.0
C5809 C 0.05421 0.39527 0.93528 0.0
C5810 C 0.04424 0.4252 0.90923 0.0
C5811 C 0.05314 0.40967 0.91827 0.0
C5812 C 0.04467 0.43364 0.902 0.0
C5813 C 0.05364 0.43503 0.89545 0.0
C5814 C 0.05285 0.41809 0.90996 0.0
C5815 C 0.06189 0.4275 0.89613 0.0
C5816 C 0.06189 0.40275 0.91917 0.0
C5817 C 0.04541 0.40204 0.93386 0.0
N5818 N 0.06133 0.41941 0.90331 0.0
N5819 N 0.04515 0.40901 0.92558 0.0
H5820 H 0.67772 0.81777 0.61248 0.0
H5821 H 0.6553 0.78935 0.55999 0.0
H5822 H 0.69396 0.79199 0.5965 0.0
H5823 H 0.64139 0.81747 0.5741 0.0
H5824 H 0.6683 0.78877 0.57448 0.0
H5825 H 0.6632 0.81632 0.59968 0.0
C5826 C 0.67822 0.81175 0.60632 0.0
C5827 C 0.68714 0.80505 0.60553 0.0
C5828 C 0.66235 0.79502 0.57444 0.0
C5829 C 0.67048 0.80337 0.59078 0.0
C5830 C 0.6549 0.79534 0.56618 0.0
C5831 C 0.64727 0.80352 0.56577 0.0
C5832 C 0.66218 0.80291 0.58237 0.0
C5833 C 0.64715 0.81106 0.57404 0.0
C5834 C 0.66991 0.81094 0.599 0.0
C5835 C 0.68727 0.79737 0.59739 0.0
N5836 N 0.65452 0.8106 0.58195 0.0
N5837 N 0.6791 0.79678 0.5903 0.0
H5838 H 0.1836 0.92854 0.86188 0.0
H5839 H 0.21444 0.90218 0.81275 0.0
H5840 H 0.21385 0.93987 0.85004 0.0
H5841 H 0.18378 0.89149 0.82411 0.0
H5842 H 0.2153 0.91476 0.82757 0.0
H5843 H 0.18449 0.9137 0.84935 0.0
C5844 C 0.19048 0.92787 0.85672 0.0
C5845 C 0.19862 0.93554 0.85696 0.0
C5846 C 0.20843 0.9096 0.82687 0.0
C5847 C 0.19965 0.91856 0.84252 0.0
C5848 C 0.20793 0.9024 0.81841 0.0
C5849 C 0.19898 0.89582 0.81711 0.0
C5850 C 0.1999 0.91027 0.83408 0.0
C5851 C 0.19081 0.89644 0.82473 0.0
C5852 C 0.19098 0.91938 0.84955 0.0
C5853 C 0.20736 0.9342 0.8501 0.0
N5854 N 0.19143 0.9036 0.83284 0.0
N5855 N 0.2076 0.92593 0.84311 0.0
H5856 H 0.5742 0.64136 0.81825 0.0
H5857 H 0.59687 0.69479 0.79203 0.0
H5858 H 0.56038 0.65611 0.79041 0.0
H5859 H 0.6118 0.67853 0.81842 0.0
H5860 H 0.58405 0.68019 0.79058 0.0
H5861 H 0.58866 0.65433 0.81769 0.0
C5862 C 0.57424 0.64727 0.81196 0.0
C5863 C 0.566 0.64768 0.80441 0.0
C5864 C 0.59018 0.67978 0.79663 0.0
C5865 C 0.58254 0.66264 0.80378 0.0
C5866 C 0.59751 0.68812 0.79747 0.0
C5867 C 0.60539 0.68794 0.80541 0.0
C5868 C 0.5907 0.67121 0.80382 0.0
C5869 C 0.60584 0.67906 0.81221 0.0
C5870 C 0.58252 0.65469 0.81165 0.0
C5871 C 0.56653 0.6555 0.79642 0.0
N5872 N 0.59856 0.67111 0.8113 0.0
N5873 N 0.57461 0.66273 0.79637 0.0
H5874 H 0.42827 0.86196 0.68227 0.0
H5875 H 0.40146 0.81324 0.71339 0.0
H5876 H 0.43913 0.85048 0.71284 0.0
H5877 H 0.39125 0.82408 0.68238 0.0
H5878 H 0.41402 0.82807 0.71421 0.0
H5879 H 0.41343 0.84941 0.68307 0.0
C5880 C 0.42749 0.85687 0.6892 0.0
C5881 C 0.43503 0.85722 0.69745 0.0
C5882 C 0.40897 0.82726 0.70726 0.0
C5883 C 0.41806 0.84278 0.69839 0.0
C5884 C 0.40178 0.81879 0.70679 0.0
C5885 C 0.39534 0.81734 0.69776 0.0
C5886 C 0.40977 0.83433 0.69863 0.0
C5887 C 0.39609 0.82483 0.68947 0.0
C5888 C 0.41901 0.84969 0.68964 0.0
C5889 C 0.43356 0.85046 0.70625 0.0
N5890 N 0.40323 0.83294 0.69008 0.0
N5891 N 0.4253 0.84347 0.70644 0.0
H5892 H 0.03894 0.93966 0.4025 0.0
H5893 H 0.06958 0.89024 0.42855 0.0
H5894 H 0.06954 0.92822 0.3917 0.0
H5895 H 0.03951 0.90231 0.44012 0.0
H5896 H 0.06872 0.90284 0.41377 0.0
H5897 H 0.03806 0.92482 0.41504 0.0
C5898 C 0.04544 0.93398 0.40268 0.0
C5899 C 0.05438 0.93527 0.39609 0.0
C5900 C 0.06227 0.90268 0.41949 0.0
C5901 C 0.05343 0.91826 0.4105 0.0
C5902 C 0.06275 0.89547 0.42794 0.0
C5903 C 0.05466 0.89527 0.43567 0.0
C5904 C 0.05365 0.90978 0.41875 0.0
C5905 C 0.04597 0.90221 0.4344 0.0
C5906 C 0.04493 0.92551 0.40987 0.0
C5907 C 0.06252 0.92761 0.39667 0.0
N5908 N 0.04574 0.90924 0.42616 0.0
N5909 N 0.06189 0.91949 0.40381 0.0
H5910 H 0.67779 0.43447 0.64124 0.0
H5911 H 0.65571 0.46096 0.69476 0.0
H5912 H 0.69196 0.46221 0.65584 0.0
H5913 H 0.64016 0.43502 0.67836 0.0
H5914 H 0.66848 0.46226 0.6801 0.0
H5915 H 0.66336 0.43526 0.65423 0.0
C5916 C 0.67783 0.44078 0.64712 0.0
C5917 C 0.68616 0.44823 0.64748 0.0
C5918 C 0.66222 0.45634 0.67968 0.0
C5919 C 0.66966 0.44914 0.66247 0.0
C5920 C 0.65492 0.45559 0.68805 0.0
C5921 C 0.64688 0.44781 0.68785 0.0
C5922 C 0.66152 0.44922 0.67106 0.0
C5923 C 0.64625 0.4411 0.67892 0.0
C5924 C 0.66957 0.44123 0.65455 0.0
C5925 C 0.68574 0.45627 0.65527 0.0
N5926 N 0.65351 0.44191 0.67094 0.0
N5927 N 0.67768 0.45645 0.66251 0.0
H5928 H 0.692 0.28927 0.09699 0.0
H5929 H 0.63978 0.31805 0.07442 0.0
H5930 H 0.67858 0.31799 0.11036 0.0
H5931 H 0.65533 0.29176 0.05859 0.0
H5932 H 0.65263 0.31666 0.08892 0.0
H5933 H 0.67733 0.28862 0.08421 0.0
C5934 C 0.68592 0.29538 0.09732 0.0
C5935 C 0.68659 0.30375 0.10472 0.0
C5936 C 0.6532 0.31116 0.08231 0.0
C5937 C 0.66978 0.30306 0.09007 0.0
C5938 C 0.64585 0.31193 0.07401 0.0
C5939 C 0.64652 0.30506 0.0652 0.0
C5940 C 0.66131 0.30347 0.08183 0.0
C5941 C 0.65454 0.29726 0.06518 0.0
C5942 C 0.67756 0.29502 0.08999 0.0
C5943 C 0.67845 0.31143 0.10476 0.0
N5944 N 0.66166 0.29672 0.07333 0.0
N5945 N 0.67043 0.31092 0.09751 0.0
H5946 H 0.35041 0.03832 0.81264 0.0
H5947 H 0.32431 0.06922 0.86186 0.0
H5948 H 0.3612 0.06899 0.82389 0.0
H5949 H 0.31307 0.03885 0.85024 0.0
H5950 H 0.33907 0.06836 0.84923 0.0
H5951 H 0.33793 0.03748 0.82754 0.0
C5952 C 0.35023 0.04484 0.81829 0.0
C5953 C 0.35681 0.05379 0.81694 0.0
C5954 C 0.33342 0.06184 0.8495 0.0
C5955 C 0.34247 0.05289 0.83401 0.0
C5956 C 0.32499 0.06232 0.85672 0.0
C5957 C 0.31736 0.05414 0.85706 0.0
C5958 C 0.33424 0.05314 0.84251 0.0
C5959 C 0.31871 0.04537 0.85023 0.0
C5960 C 0.34309 0.04436 0.8268 0.0
C5961 C 0.35625 0.06196 0.82456 0.0
N5962 N 0.32693 0.04515 0.84319 0.0
N5963 N 0.34914 0.06135 0.83271 0.0
H5964 H 0.9642 0.60066 0.06267 0.0
H5965 H 0.93374 0.5743 0.11203 0.0
H5966 H 0.93365 0.61141 0.07429 0.0
H5967 H 0.96396 0.56305 0.10003 0.0
H5968 H 0.93452 0.58915 0.09949 0.0
H5969 H 0.96518 0.58809 0.07749 0.0
C5970 C 0.95774 0.60046 0.06839 0.0
C5971 C 0.94878 0.60705 0.06716 0.0
C5972 C 0.94103 0.58348 0.09966 0.0
C5973 C 0.94983 0.59261 0.08414 0.0
C5974 C 0.94059 0.575 0.10683 0.0
C5975 C 0.94875 0.56734 0.10703 0.0
C5976 C 0.94966 0.58433 0.09259 0.0
C5977 C 0.95745 0.56871 0.10012 0.0
C5978 C 0.9583 0.59326 0.07685 0.0
C5979 C 0.94068 0.60644 0.07486 0.0
N5980 N 0.95763 0.57698 0.09313 0.0
N5981 N 0.94137 0.59929 0.08296 0.0
H5982 H 0.36243 0.18347 0.42887 0.0
H5983 H 0.31309 0.21446 0.40312 0.0
H5984 H 0.35061 0.2136 0.44055 0.0
H5985 H 0.32471 0.18414 0.39176 0.0
H5986 H 0.32794 0.21521 0.41566 0.0
H5987 H 0.34987 0.18452 0.41406 0.0
C5988 C 0.35727 0.19036 0.42828 0.0
C5989 C 0.35753 0.19841 0.43604 0.0
C5990 C 0.32729 0.20844 0.41036 0.0
C5991 C 0.34305 0.19963 0.4191 0.0
C5992 C 0.31881 0.20801 0.40317 0.0
C5993 C 0.31757 0.19917 0.39642 0.0
C5994 C 0.33459 0.19996 0.41084 0.0
C5995 C 0.32528 0.19108 0.39685 0.0
C5996 C 0.35008 0.19095 0.41982 0.0
C5997 C 0.35066 0.20716 0.4348 0.0
N5998 N 0.3334 0.19163 0.40399 0.0
N5999 N 0.34365 0.20749 0.42655 0.0
H6000 H 0.60066 0.56298 0.46425 0.0
H6001 H 0.57362 0.61159 0.43321 0.0
H6002 H 0.61115 0.5743 0.43351 0.0
H6003 H 0.56246 0.59971 0.46351 0.0
H6004 H 0.58863 0.59928 0.43414 0.0
H6005 H 0.58791 0.57764 0.46506 0.0
C6006 C 0.60037 0.5686 0.45771 0.0
C6007 C 0.60694 0.56733 0.44875 0.0
C6008 C 0.58295 0.59942 0.44063 0.0
C6009 C 0.59228 0.58413 0.44961 0.0
C6010 C 0.57436 0.60647 0.44011 0.0
C6011 C 0.56669 0.60663 0.44825 0.0
C6012 C 0.58388 0.59245 0.44933 0.0
C6013 C 0.56813 0.59983 0.45701 0.0
C6014 C 0.59306 0.57697 0.45818 0.0
C6015 C 0.60621 0.57491 0.44054 0.0
N6016 N 0.5765 0.59296 0.45728 0.0
N6017 N 0.59896 0.58292 0.44114 0.0
H6018 H 0.42787 0.39012 0.56898 0.0
H6019 H 0.40153 0.43954 0.53861 0.0
H6020 H 0.43885 0.40192 0.53858 0.0
H6021 H 0.39103 0.42813 0.56932 0.0
H6022 H 0.41399 0.42464 0.53757 0.0
H6023 H 0.41311 0.40276 0.56832 0.0
C6024 C 0.42714 0.39529 0.56211 0.0
C6025 C 0.43469 0.39501 0.55387 0.0
C6026 C 0.4089 0.42535 0.5445 0.0
C6027 C 0.41781 0.40958 0.5531 0.0
C6028 C 0.40176 0.43386 0.5451 0.0
C6029 C 0.39527 0.43517 0.55411 0.0
C6030 C 0.40959 0.41809 0.55299 0.0
C6031 C 0.39592 0.4275 0.56224 0.0
C6032 C 0.4187 0.40253 0.56175 0.0
C6033 C 0.43327 0.40189 0.54516 0.0
N6034 N 0.40301 0.41935 0.56152 0.0
N6035 N 0.42505 0.40894 0.54505 0.0
H6036 H 0.78846 0.69058 0.60027 0.0
H6037 H 0.81937 0.64117 0.57455 0.0
H6038 H 0.81911 0.67937 0.61116 0.0
H6039 H 0.78914 0.65289 0.56303 0.0
H6040 H 0.81843 0.65384 0.58927 0.0
H6041 H 0.78761 0.67559 0.5879 0.0
C6042 C 0.79497 0.68492 0.60014 0.0
C6043 C 0.80392 0.68632 0.60671 0.0
C6044 C 0.81196 0.65358 0.58357 0.0
C6045 C 0.80302 0.66914 0.5925 0.0
C6046 C 0.81248 0.64634 0.57516 0.0
C6047 C 0.80437 0.64602 0.56746 0.0
C6048 C 0.80328 0.66061 0.58431 0.0
C6049 C 0.79562 0.65288 0.56872 0.0
C6050 C 0.79448 0.67636 0.59306 0.0
C6051 C 0.81208 0.67868 0.60621 0.0
N6052 N 0.79535 0.65995 0.57693 0.0
N6053 N 0.81147 0.67048 0.59917 0.0
H6054 H 0.78884 0.56152 0.65544 0.0
H6055 H 0.81824 0.61334 0.67811 0.0
H6056 H 0.81735 0.57501 0.64171 0.0
H6057 H 0.7921 0.59778 0.69418 0.0
H6058 H 0.81654 0.60068 0.66349 0.0
H6059 H 0.78844 0.57606 0.66838 0.0
C6060 C 0.79496 0.56759 0.65506 0.0
C6061 C 0.8032 0.56698 0.64752 0.0
C6062 C 0.81113 0.60006 0.67018 0.0
C6063 C 0.8028 0.58363 0.66236 0.0
C6064 C 0.81209 0.60731 0.67855 0.0
C6065 C 0.80536 0.60658 0.68746 0.0
C6066 C 0.80339 0.59201 0.67069 0.0
C6067 C 0.7975 0.59862 0.68752 0.0
C6068 C 0.79474 0.57588 0.66249 0.0
C6069 C 0.81089 0.5751 0.64742 0.0
N6070 N 0.79678 0.5916 0.67929 0.0
N6071 N 0.81053 0.58305 0.65477 0.0
H6072 H 0.40215 0.03802 0.9394 0.0
H6073 H 0.42836 0.06933 0.89048 0.0
H6074 H 0.39141 0.0688 0.9284 0.0
H6075 H 0.43971 0.03898 0.90203 0.0
H6076 H 0.41356 0.06834 0.90306 0.0
H6077 H 0.41469 0.03732 0.92454 0.0
C6078 C 0.40235 0.0446 0.93381 0.0
C6079 C 0.39577 0.05354 0.93522 0.0
C6080 C 0.41924 0.06186 0.90278 0.0
C6081 C 0.41017 0.0528 0.9182 0.0
C6082 C 0.4277 0.06241 0.89559 0.0
C6083 C 0.43537 0.05427 0.89525 0.0
C6084 C 0.41843 0.05312 0.90973 0.0
C6085 C 0.43404 0.04547 0.90204 0.0
C6086 C 0.40953 0.04419 0.92532 0.0
C6087 C 0.39637 0.06178 0.92768 0.0
N6088 N 0.4258 0.04518 0.90905 0.0
N6089 N 0.4035 0.06125 0.91955 0.0
H6090 H 0.57456 0.93389 0.11197 0.0
H6091 H 0.60082 0.96512 0.06305 0.0
H6092 H 0.56294 0.96401 0.10007 0.0
H6093 H 0.61181 0.93455 0.07438 0.0
H6094 H 0.5882 0.96583 0.07783 0.0
H6095 H 0.58949 0.93498 0.09956 0.0
C6096 C 0.57518 0.94079 0.10682 0.0
C6097 C 0.5674 0.94882 0.10701 0.0
C6098 C 0.59343 0.959 0.07713 0.0
C6099 C 0.58449 0.95009 0.09271 0.0
C6100 C 0.60067 0.9586 0.06869 0.0
C6101 C 0.60733 0.94971 0.06739 0.0
C6102 C 0.59282 0.95045 0.08432 0.0
C6103 C 0.60678 0.94153 0.075 0.0
C6104 C 0.58372 0.9414 0.09972 0.0
C6105 C 0.56869 0.95759 0.10017 0.0
N6106 N 0.5996 0.94206 0.08309 0.0
N6107 N 0.57701 0.95794 0.09325 0.0
H6108 H 0.21189 0.30877 0.40525 0.0
H6109 H 0.18554 0.36228 0.42754 0.0
H6110 H 0.18536 0.32476 0.39027 0.0
H6111 H 0.21359 0.34785 0.44125 0.0
H6112 H 0.18611 0.34922 0.41315 0.0
H6113 H 0.21338 0.32355 0.41786 0.0
C6114 C 0.20643 0.31541 0.40455 0.0
C6115 C 0.19844 0.31546 0.39672 0.0
C6116 C 0.1922 0.34896 0.41925 0.0
C6117 C 0.20007 0.3324 0.41117 0.0
C6118 C 0.19188 0.35643 0.42748 0.0
C6119 C 0.19948 0.35612 0.43568 0.0
C6120 C 0.20013 0.34106 0.41924 0.0
C6121 C 0.20754 0.34837 0.43513 0.0
C6122 C 0.20728 0.32386 0.41176 0.0
C6123 C 0.19161 0.32432 0.3962 0.0
N6124 N 0.20759 0.34109 0.42711 0.0
N6125 N 0.19254 0.33238 0.40336 0.0
H6126 H 0.18396 0.42855 0.36188 0.0
H6127 H 0.21468 0.40298 0.31229 0.0
H6128 H 0.21413 0.44013 0.35008 0.0
H6129 H 0.18407 0.39206 0.3236 0.0
H6130 H 0.2156 0.41529 0.32732 0.0
H6131 H 0.18489 0.41383 0.34922 0.0
C6132 C 0.19084 0.42795 0.3567 0.0
C6133 C 0.19893 0.43567 0.35699 0.0
C6134 C 0.20872 0.41014 0.32657 0.0
C6135 C 0.2 0.41883 0.34239 0.0
C6136 C 0.20819 0.40309 0.31798 0.0
C6137 C 0.19923 0.39653 0.3166 0.0
C6138 C 0.20023 0.41067 0.33383 0.0
C6139 C 0.1911 0.39701 0.32427 0.0
C6140 C 0.19135 0.41954 0.34946 0.0
C6141 C 0.20767 0.43442 0.35011 0.0
N6142 N 0.19176 0.40402 0.3325 0.0
N6143 N 0.20793 0.42622 0.34304 0.0
H6144 H 0.97606 0.13973 0.51439 0.0
H6145 H 0.01998 0.10545 0.48324 0.0
H6146 H 0.98022 0.10571 0.51715 0.0
H6147 H 0.01406 0.13856 0.47614 0.0
H6148 H 0.00708 0.10636 0.49763 0.0
H6149 H 0.99141 0.14034 0.5022 0.0
C6150 C 0.98026 0.13242 0.51253 0.0
C6151 C 0.97681 0.12264 0.51673 0.0
C6152 C 0.00861 0.11347 0.49299 0.0
C6153 C 0.9943 0.12329 0.50287 0.0
C6154 C 0.01602 0.11296 0.48476 0.0
C6155 C 0.01804 0.12192 0.47839 0.0
C6156 C 0.00307 0.123 0.4949 0.0
C6157 C 0.01271 0.13146 0.48084 0.0
C6158 C 0.98899 0.13278 0.50556 0.0
C6159 C 0.98252 0.11342 0.51404 0.0
N6160 N 0.00538 0.13173 0.48885 0.0
N6161 N 0.99093 0.11398 0.50729 0.0
H6162 H 0.8626 0.26453 0.72799 0.0
H6163 H 0.89507 0.23393 0.77354 0.0
H6164 H 0.89533 0.27071 0.7365 0.0
H6165 H 0.86279 0.22559 0.76518 0.0
H6166 H 0.89418 0.24901 0.76144 0.0
H6167 H 0.86142 0.2518 0.74286 0.0
C6168 C 0.86947 0.26333 0.73307 0.0
C6169 C 0.87911 0.26861 0.73094 0.0
C6170 C 0.88723 0.24396 0.76227 0.0
C6171 C 0.87783 0.25411 0.74787 0.0
C6172 C 0.88774 0.23532 0.7692 0.0
C6173 C 0.87903 0.22842 0.77029 0.0
C6174 C 0.87797 0.24571 0.75623 0.0
C6175 C 0.8697 0.23071 0.76454 0.0
C6176 C 0.86881 0.25605 0.74151 0.0
C6177 C 0.88777 0.26674 0.73775 0.0
N6178 N 0.86945 0.2391 0.75764 0.0
N6179 N 0.88694 0.25963 0.74583 0.0
H6180 H 0.73193 0.14558 0.98441 0.0
H6181 H 0.77704 0.11221 0.01485 0.0
H6182 H 0.73846 0.11261 0.97717 0.0
H6183 H 0.77218 0.14612 0.01773 0.0
H6184 H 0.7615 0.11127 0.00292 0.0
H6185 H 0.74502 0.1449 0.99866 0.0
C6186 C 0.73607 0.13814 0.98588 0.0
C6187 C 0.73417 0.12916 0.97951 0.0
C6188 C 0.76382 0.11889 0.00625 0.0
C6189 C 0.74935 0.12836 0.99584 0.0
C6190 C 0.77265 0.11942 0.01307 0.0
C6191 C 0.77596 0.12928 0.01722 0.0
C6192 C 0.75825 0.12826 0.00366 0.0
C6193 C 0.77 0.13837 0.01465 0.0
C6194 C 0.74358 0.13777 0.99402 0.0
C6195 C 0.73971 0.11973 0.98187 0.0
N6196 N 0.76149 0.13764 0.00804 0.0
N6197 N 0.74715 0.11959 0.98979 0.0
H6198 H 0.85746 0.01728 0.2723 0.0
H6199 H 0.89054 0.98729 0.2268 0.0
H6200 H 0.88987 0.02568 0.26451 0.0
H6201 H 0.85788 0.98055 0.23516 0.0
H6202 H 0.89148 0.99992 0.24176 0.0
H6203 H 0.85852 0.00234 0.26006 0.0
C6204 C 0.86485 0.01593 0.26806 0.0
C6205 C 0.87355 0.02281 0.26936 0.0
C6206 C 0.88416 0.99558 0.24036 0.0
C6207 C 0.8748 0.00567 0.25513 0.0
C6208 C 0.88363 0.98835 0.23186 0.0
C6209 C 0.87408 0.98294 0.22967 0.0
C6210 C 0.87509 0.99734 0.2467 0.0
C6211 C 0.86537 0.98462 0.23646 0.0
C6212 C 0.86546 0.00737 0.26104 0.0
C6213 C 0.88296 0.02058 0.26371 0.0
N6214 N 0.86607 0.99169 0.24459 0.0
N6215 N 0.8833 0.01226 0.25673 0.0
H6216 H 0.02304 0.14508 0.76722 0.0
H6217 H 0.97698 0.1123 0.7377 0.0
H6218 H 0.015 0.11277 0.77579 0.0
H6219 H 0.985 0.14513 0.7314 0.0
H6220 H 0.99214 0.11125 0.75009 0.0
H6221 H 0.01058 0.14412 0.75244 0.0
C6222 C 0.0187 0.13773 0.76594 0.0
C6223 C 0.01999 0.12903 0.77282 0.0
C6224 C 0.99062 0.11863 0.7459 0.0
C6225 C 0.00551 0.1279 0.75588 0.0
C6226 C 0.982 0.11923 0.73881 0.0
C6227 C 0.97967 0.12885 0.73359 0.0
C6228 C 0.99694 0.12771 0.7477 0.0
C6229 C 0.98642 0.13758 0.73533 0.0
C6230 C 0.01156 0.13718 0.75748 0.0
C6231 C 0.01422 0.11968 0.77068 0.0
N6232 N 0.99468 0.13681 0.74225 0.0
N6233 N 0.00712 0.11939 0.76246 0.0
H6234 H 0.85606 0.23055 0.98433 0.0
H6235 H 0.89041 0.26454 0.02578 0.0
H6236 H 0.88983 0.22566 0.98848 0.0
H6237 H 0.85724 0.27002 0.01858 0.0
H6238 H 0.89106 0.25125 0.01138 0.0
H6239 H 0.85697 0.24591 0.99605 0.0
C6240 C 0.86371 0.23275 0.98767 0.0
C6241 C 0.87287 0.22675 0.98548 0.0
C6242 C 0.88369 0.25547 0.0129 0.0
C6243 C 0.87398 0.2444 0.99909 0.0
C6244 C 0.88332 0.26306 0.02109 0.0
C6245 C 0.87373 0.26832 0.02345 0.0
C6246 C 0.87439 0.25315 0.00708 0.0
C6247 C 0.86478 0.2661 0.01713 0.0
C6248 C 0.86423 0.24156 0.99438 0.0
C6249 C 0.88257 0.23006 0.98998 0.0
N6250 N 0.86532 0.25865 0.00933 0.0
N6251 N 0.88286 0.23861 0.99668 0.0
H6252 H 0.7768 0.14004 0.23742 0.0
H6253 H 0.73084 0.10687 0.26664 0.0
H6254 H 0.76873 0.10731 0.2307 0.0
H6255 H 0.73873 0.13914 0.27547 0.0
H6256 H 0.7433 0.108 0.25187 0.0
H6257 H 0.76167 0.14094 0.24985 0.0
C6258 C 0.77178 0.1331 0.23845 0.0
C6259 C 0.77409 0.12355 0.2331 0.0
C6260 C 0.74229 0.11489 0.25696 0.0
C6261 C 0.75685 0.12451 0.24725 0.0
C6262 C 0.73515 0.11425 0.26542 0.0
C6263 C 0.73381 0.12289 0.27237 0.0
C6264 C 0.74829 0.12421 0.25545 0.0
C6265 C 0.73955 0.13228 0.27031 0.0
C6266 C 0.76317 0.13361 0.24556 0.0
C6267 C 0.76734 0.1148 0.23473 0.0
N6268 N 0.74665 0.13266 0.26209 0.0
N6269 N 0.75909 0.11549 0.24168 0.0
H6270 H 0.89734 0.98329 0.5192 0.0
H6271 H 0.86298 0.02718 0.48811 0.0
H6272 H 0.86422 0.98915 0.52632 0.0
H6273 H 0.89696 0.0229 0.48511 0.0
H6274 H 0.8624 0.01185 0.50033 0.0
H6275 H 0.8964 0.99618 0.50481 0.0
C6276 C 0.88982 0.98724 0.51769 0.0
C6277 C 0.88087 0.9852 0.52406 0.0
C6278 C 0.86995 0.01425 0.49691 0.0
C6279 C 0.87975 1.00016 0.50754 0.0
C6280 C 0.87028 0.02295 0.48992 0.0
C6281 C 0.88005 0.02637 0.48565 0.0
C6282 C 0.87944 0.00891 0.49955 0.0
C6283 C 0.88926 0.02063 0.48828 0.0
C6284 C 0.88929 0.99464 0.50945 0.0
C6285 C 0.87132 0.99052 0.52162 0.0
N6286 N 0.88873 0.01224 0.49506 0.0
N6287 N 0.87103 0.99785 0.51361 0.0
H6288 H 0.48459 0.0217 0.10669 0.0
H6289 H 0.51486 0.97646 0.13991 0.0
H6290 H 0.47657 0.01429 0.13928 0.0
H6291 H 0.52107 0.98428 0.10701 0.0
H6292 H 0.50224 0.99143 0.14081 0.0
H6293 H 0.49943 0.00932 0.10766 0.0
C6294 C 0.486 0.01751 0.1141 0.0
C6295 C 0.47926 0.01897 0.12288 0.0
C6296 C 0.50646 0.98991 0.13344 0.0
C6297 C 0.49628 0.00458 0.12404 0.0
C6298 C 0.51368 0.9814 0.13293 0.0
C6299 C 0.51895 0.97906 0.12334 0.0
C6300 C 0.50457 0.99612 0.1243 0.0
C6301 C 0.51712 0.9857 0.11455 0.0
C6302 C 0.4945 0.01041 0.11465 0.0
C6303 C 0.48156 0.01338 0.13231 0.0
N6304 N 0.51006 0.99385 0.11523 0.0
N6305 N 0.48982 0.00633 0.13261 0.0
H6306 H 0.01711 0.77162 0.35694 0.0
H6307 H 0.9874 0.72589 0.39001 0.0
H6308 H 0.02518 0.76425 0.38952 0.0
H6309 H 0.98139 0.73349 0.35702 0.0
H6310 H 0.99976 0.74107 0.39098 0.0
H6311 H 0.00245 0.75902 0.35785 0.0
C6312 C 0.01574 0.7674 0.36434 0.0
C6313 C 0.02245 0.76892 0.37314 0.0
C6314 C 0.99564 0.73945 0.38357 0.0
C6315 C 0.00565 0.75428 0.37422 0.0
C6316 C 0.98857 0.73081 0.38302 0.0
C6317 C 0.98343 0.72836 0.37339 0.0
C6318 C 0.99751 0.74566 0.37443 0.0
C6319 C 0.98524 0.735 0.36459 0.0
C6320 C 0.00735 0.76017 0.36486 0.0
C6321 C 0.02021 0.76329 0.38254 0.0
N6322 N 0.99215 0.74327 0.36531 0.0
N6323 N 0.01206 0.75611 0.38281 0.0
H6324 H 0.27617 0.2376 0.64037 0.0
H6325 H 0.23055 0.26727 0.60713 0.0
H6326 H 0.26839 0.23123 0.6075 0.0
H6327 H 0.23802 0.27556 0.63964 0.0
H6328 H 0.24303 0.25252 0.60816 0.0
H6329 H 0.26105 0.25004 0.64127 0.0
C6330 C 0.27122 0.23871 0.6334 0.0
C6331 C 0.27361 0.23344 0.62382 0.0
C6332 C 0.24193 0.25748 0.61513 0.0
C6333 C 0.25637 0.24762 0.62478 0.0
C6334 C 0.23477 0.26593 0.61454 0.0
C6335 C 0.23331 0.27273 0.62328 0.0
C6336 C 0.24781 0.25582 0.6245 0.0
C6337 C 0.23893 0.27052 0.6327 0.0
C6338 C 0.26262 0.24582 0.63391 0.0
C6339 C 0.26693 0.23518 0.61503 0.0
N6340 N 0.24605 0.26232 0.63303 0.0
N6341 N 0.25869 0.24214 0.61571 0.0
H6342 H 0.76593 0.52556 0.88998 0.0
H6343 H 0.73569 0.48067 0.85638 0.0
H6344 H 0.77276 0.51737 0.8573 0.0
H6345 H 0.72734 0.48808 0.88889 0.0
H6346 H 0.75081 0.49266 0.85766 0.0
H6347 H 0.75329 0.5106 0.89081 0.0
C6348 C 0.76489 0.52053 0.88305 0.0
C6349 C 0.77032 0.52278 0.87352 0.0
C6350 C 0.74575 0.49165 0.86457 0.0
C6351 C 0.75591 0.50575 0.8744 0.0
C6352 C 0.73709 0.48478 0.86384 0.0
C6353 C 0.73017 0.48345 0.8725 0.0
C6354 C 0.74751 0.4974 0.87401 0.0
C6355 C 0.73247 0.4889 0.882 0.0
C6356 C 0.75766 0.51203 0.88351 0.0
C6357 C 0.76867 0.51602 0.86478 0.0
N6358 N 0.74088 0.49576 0.88247 0.0
N6359 N 0.76159 0.50789 0.86541 0.0
H6360 H 0.5204 0.26664 0.14611 0.0
H6361 H 0.47522 0.23705 0.11227 0.0
H6362 H 0.51327 0.2751 0.11357 0.0
H6363 H 0.48314 0.2301 0.145 0.0
H6364 H 0.4903 0.24956 0.11156 0.0
H6365 H 0.50811 0.25176 0.1448 0.0
C6366 C 0.51629 0.26531 0.13864 0.0
C6367 C 0.51779 0.27219 0.12997 0.0
C6368 C 0.48878 0.24519 0.11884 0.0
C6369 C 0.5035 0.25513 0.12843 0.0
C6370 C 0.48021 0.23804 0.11924 0.0
C6371 C 0.47786 0.2326 0.12874 0.0
C6372 C 0.49503 0.24686 0.128 0.0
C6373 C 0.48456 0.23419 0.13754 0.0
C6374 C 0.50925 0.25679 0.13789 0.0
C6375 C 0.51232 0.26999 0.12045 0.0
N6376 N 0.49276 0.2412 0.13696 0.0
N6377 N 0.50531 0.26171 0.11997 0.0
H6378 H 0.77032 0.73308 0.39621 0.0
H6379 H 0.72606 0.76453 0.36262 0.0
H6380 H 0.76427 0.72644 0.36303 0.0
H6381 H 0.73034 0.76676 0.39666 0.0
H6382 H 0.74144 0.75238 0.36176 0.0
H6383 H 0.7573 0.74738 0.39559 0.0
C6384 C 0.7663 0.73468 0.38875 0.0
C6385 C 0.76832 0.72847 0.37968 0.0
C6386 C 0.73903 0.75561 0.36939 0.0
C6387 C 0.75321 0.74488 0.37893 0.0
C6388 C 0.73029 0.76256 0.36988 0.0
C6389 C 0.72687 0.7666 0.37974 0.0
C6390 C 0.7444 0.75279 0.37881 0.0
C6391 C 0.73262 0.76377 0.3889 0.0
C6392 C 0.75882 0.74286 0.3884 0.0
C6393 C 0.76292 0.73102 0.37021 0.0
N6394 N 0.74105 0.75705 0.3882 0.0
N6395 N 0.75552 0.73897 0.3701 0.0
H6396 H 0.2379 0.97652 0.61245 0.0
H6397 H 0.26788 0.02202 0.64561 0.0
H6398 H 0.23169 0.98432 0.64535 0.0
H6399 H 0.27605 0.01452 0.61308 0.0
H6400 H 0.25311 0.00955 0.64464 0.0
H6401 H 0.25044 0.99156 0.61153 0.0
C6402 C 0.23907 0.98147 0.61943 0.0
C6403 C 0.23381 0.9791 0.62902 0.0
C6404 C 0.25805 0.01064 0.63766 0.0
C6405 C 0.2481 0.99624 0.62804 0.0
C6406 C 0.26651 0.01779 0.63821 0.0
C6407 C 0.27328 0.01925 0.62944 0.0
C6408 C 0.25634 0.00476 0.62829 0.0
C6409 C 0.27104 0.01361 0.62003 0.0
C6410 C 0.24624 0.99002 0.61891 0.0
C6411 C 0.23563 0.98576 0.63781 0.0
N6412 N 0.26281 0.00651 0.61973 0.0
N6413 N 0.24263 0.99395 0.63712 0.0
H6414 H 0.9883 0.5265 0.86262 0.0
H6415 H 0.01719 0.47961 0.89472 0.0
H6416 H 0.98143 0.51764 0.89512 0.0
H6417 H 0.02606 0.48815 0.86263 0.0
H6418 H 0.00243 0.49209 0.89383 0.0
H6419 H 1.00056 0.51126 0.86134 0.0
C6420 C 0.98926 0.52128 0.86942 0.0
C6421 C 0.98392 0.5234 0.87903 0.0
C6422 C 0.00753 0.49122 0.88692 0.0
C6423 C 0.99789 0.50604 0.87763 0.0
C6424 C 0.01598 0.48407 0.88743 0.0
C6425 C 0.02294 0.48291 0.87878 0.0
C6426 C 0.00603 0.49743 0.87773 0.0
C6427 C 0.02089 0.48883 0.8695 0.0
C6428 C 0.99627 0.51261 0.8687 0.0
C6429 C 0.98546 0.51639 0.88759 0.0
N6430 N 0.01268 0.49595 0.86926 0.0
N6431 N 0.99232 0.5081 0.8867 0.0
H6432 H 0.14012 0.47563 0.01456 0.0
H6433 H 0.10673 0.52127 0.98507 0.0
H6434 H 0.10733 0.48355 0.02119 0.0
H6435 H 0.13909 0.51358 0.97637 0.0
H6436 H 0.10787 0.50882 0.99983 0.0
H6437 H 0.14093 0.49068 0.00202 0.0
C6438 C 0.13315 0.4806 0.01349 0.0
C6439 C 0.12361 0.47827 0.01885 0.0
C6440 C 0.11478 0.50987 0.99477 0.0
C6441 C 0.12447 0.49542 0.00457 0.0
C6442 C 0.11413 0.517 0.98632 0.0
C6443 C 0.12279 0.5184 0.9794 0.0
C6444 C 0.12414 0.50393 0.99634 0.0
C6445 C 0.13221 0.51272 0.9815 0.0
C6446 C 0.13361 0.48916 0.00631 0.0
C6447 C 0.11482 0.48496 0.01716 0.0
N6448 N 0.1326 0.50563 0.98972 0.0
N6449 N 0.11545 0.49315 0.01015 0.0
H6450 H 0.60435 0.23669 0.27325 0.0
H6451 H 0.63913 0.27666 0.23771 0.0
H6452 H 0.63856 0.23873 0.27602 0.0
H6453 H 0.60487 0.27395 0.2366 0.0
H6454 H 0.63962 0.26176 0.25044 0.0
H6455 H 0.60492 0.24919 0.25851 0.0
C6456 C 0.61202 0.23974 0.27072 0.0
C6457 C 0.62142 0.23672 0.27595 0.0
C6458 C 0.63202 0.26439 0.24732 0.0
C6459 C 0.62214 0.25123 0.25901 0.0
C6460 C 0.63174 0.27287 0.24005 0.0
C6461 C 0.62194 0.27661 0.23615 0.0
C6462 C 0.62244 0.25964 0.25067 0.0
C6463 C 0.61261 0.27142 0.23945 0.0
C6464 C 0.61235 0.2469 0.26226 0.0
C6465 C 0.63112 0.24087 0.27222 0.0
N6466 N 0.6131 0.26327 0.24652 0.0
N6467 N 0.63123 0.24801 0.26402 0.0
H6468 H 0.7652 0.88949 0.52714 0.0
H6469 H 0.73344 0.85505 0.4838 0.0
H6470 H 0.7675 0.85539 0.52344 0.0
H6471 H 0.72742 0.88854 0.48867 0.0
H6472 H 0.74773 0.85585 0.49682 0.0
H6473 H 0.75305 0.89007 0.51177 0.0
C6474 C 0.76325 0.88216 0.52304 0.0
C6475 C 0.76731 0.87237 0.52663 0.0
C6476 C 0.74335 0.86307 0.49503 0.0
C6477 C 0.75348 0.87297 0.5091 0.0
C6478 C 0.73518 0.86262 0.48756 0.0
C6479 C 0.72915 0.87172 0.4852 0.0
C6480 C 0.74554 0.87269 0.50031 0.0
C6481 C 0.73185 0.88132 0.49028 0.0
C6482 C 0.7563 0.88249 0.5143 0.0
C6483 C 0.7645 0.86311 0.52103 0.0
N6484 N 0.7398 0.88154 0.49769 0.0
N6485 N 0.75776 0.86365 0.51261 0.0
H6486 H 0.14535 0.02206 0.76812 0.0
H6487 H 0.11251 0.97643 0.73803 0.0
H6488 H 0.1129 0.01426 0.77635 0.0
H6489 H 0.1453 0.98461 0.73172 0.0
H6490 H 0.11147 0.99143 0.75061 0.0
H6491 H 0.14442 0.00971 0.75326 0.0
C6492 C 0.13798 0.01779 0.76675 0.0
C6493 C 0.12923 0.01912 0.77356 0.0
C6494 C 0.11885 0.98998 0.74638 0.0
C6495 C 0.12812 0.00477 0.75651 0.0
C6496 C 0.11943 0.98145 0.73918 0.0
C6497 C 0.12904 0.9792 0.73389 0.0
C6498 C 0.12792 0.99629 0.74823 0.0
C6499 C 0.13776 0.98595 0.73569 0.0
C6500 C 0.13745 0.01071 0.75824 0.0
C6501 C 0.11985 0.01344 0.7713 0.0
N6502 N 0.137 0.99412 0.74272 0.0
N6503 N 0.11957 0.0064 0.76303 0.0
H6504 H 0.52583 0.36244 0.48762 0.0
H6505 H 0.47932 0.39477 0.51688 0.0
H6506 H 0.51739 0.39512 0.48113 0.0
H6507 H 0.48761 0.36255 0.5255 0.0
H6508 H 0.4918 0.3939 0.50212 0.0
H6509 H 0.51062 0.36123 0.49992 0.0
C6510 C 0.52071 0.3693 0.48867 0.0
C6511 C 0.52294 0.37893 0.48342 0.0
C6512 C 0.49088 0.38696 0.50716 0.0
C6513 C 0.50561 0.37761 0.49743 0.0
C6514 C 0.48372 0.38745 0.51561 0.0
C6515 C 0.48249 0.37875 0.5225 0.0
C6516 C 0.49701 0.37773 0.50559 0.0
C6517 C 0.48834 0.36945 0.52038 0.0
C6518 C 0.51206 0.36861 0.49571 0.0
C6519 C 0.51606 0.38757 0.48508 0.0
N6520 N 0.49546 0.36922 0.51217 0.0
N6521 N 0.50777 0.38672 0.49196 0.0
H6522 H 0.11229 0.777 0.01542 0.0
H6523 H 0.14612 0.73197 0.9856 0.0
H6524 H 0.14508 0.76919 0.0222 0.0
H6525 H 0.11342 0.73881 0.9775 0.0
H6526 H 0.14489 0.74429 1.00046 0.0
H6527 H 0.11156 0.76191 0.00294 0.0
C6528 C 0.11927 0.77204 0.0144 0.0
C6529 C 0.1288 0.77442 0.01978 0.0
C6530 C 0.13792 0.74309 0.99552 0.0
C6531 C 0.12802 0.75723 0.00555 0.0
C6532 C 0.13863 0.73603 0.987 0.0
C6533 C 0.12989 0.73443 0.98023 0.0
C6534 C 0.12844 0.74876 0.99727 0.0
C6535 C 0.12036 0.73984 0.98252 0.0
C6536 C 0.11886 0.76345 0.00726 0.0
C6537 C 0.1376 0.76774 0.01815 0.0
N6538 N 0.11991 0.74687 0.99079 0.0
N6539 N 0.13701 0.75953 0.01116 0.0
H6540 H 0.726 0.86273 0.26418 0.0
H6541 H 0.77209 0.89523 0.23444 0.0
H6542 H 0.73454 0.89538 0.27074 0.0
H6543 H 0.76408 0.86285 0.22613 0.0
H6544 H 0.75967 0.89436 0.24926 0.0
H6545 H 0.74106 0.86158 0.25169 0.0
C6546 C 0.73111 0.8696 0.26311 0.0
C6547 C 0.72895 0.8792 0.26843 0.0
C6548 C 0.76064 0.88739 0.24427 0.0
C6549 C 0.74611 0.87795 0.2542 0.0
C6550 C 0.76776 0.88788 0.23579 0.0
C6551 C 0.76905 0.87913 0.22897 0.0
C6552 C 0.75463 0.87811 0.24596 0.0
C6553 C 0.7633 0.86979 0.23119 0.0
C6554 C 0.73968 0.86895 0.25596 0.0
C6555 C 0.73582 0.88785 0.26674 0.0
N6556 N 0.75622 0.86956 0.23943 0.0
N6557 N 0.74402 0.88703 0.25975 0.0
H6558 H 0.98822 0.39003 0.72614 0.0
H6559 H 0.01902 0.35647 0.77087 0.0
H6560 H 0.98535 0.3561 0.7309 0.0
H6561 H 0.02631 0.38943 0.76432 0.0
H6562 H 0.00466 0.35721 0.75792 0.0
H6563 H 1.00031 0.39089 0.74156 0.0
C6564 C 0.99003 0.3828 0.73049 0.0
C6565 C 0.98584 0.37296 0.72718 0.0
C6566 C 0.00933 0.36433 0.75932 0.0
C6567 C 0.99958 0.3739 0.74477 0.0
C6568 C 0.01754 0.36391 0.76676 0.0
C6569 C 0.02396 0.37287 0.76861 0.0
C6570 C 0.00749 0.37375 0.75358 0.0
C6571 C 0.02157 0.38232 0.76311 0.0
C6572 C 0.99695 0.38329 0.73926 0.0
C6573 C 0.98846 0.36384 0.73308 0.0
N6574 N 0.01358 0.38249 0.75574 0.0
N6575 N 0.99516 0.36454 0.74153 0.0
H6576 H 0.9816 0.89582 0.51832 0.0
H6577 H 0.02656 0.86225 0.488 0.0
H6578 H 0.98866 0.86312 0.52625 0.0
H6579 H 0.01902 0.89522 0.48185 0.0
H6580 H 0.01158 0.86146 0.50063 0.0
H6581 H 0.99401 0.89477 0.50351 0.0
C6582 C 0.98572 0.88837 0.5169 0.0
C6583 C 0.98416 0.87957 0.5236 0.0
C6584 C 0.01317 0.86882 0.49642 0.0
C6585 C 0.99857 0.87834 0.50661 0.0
C6586 C 0.02168 0.86927 0.4892 0.0
C6587 C 0.0241 0.87884 0.48393 0.0
C6588 C 0.00704 0.87801 0.49833 0.0
C6589 C 0.01754 0.8877 0.48579 0.0
C6590 C 0.99284 0.88777 0.50841 0.0
C6591 C 0.98966 0.8701 0.52128 0.0
N6592 N 0.00938 0.88707 0.49285 0.0
N6593 N 0.99672 0.86976 0.51304 0.0
H6594 H 0.13942 0.7383 0.27602 0.0
H6595 H 0.10661 0.76895 0.23074 0.0
H6596 H 0.10656 0.73226 0.26794 0.0
H6597 H 0.13926 0.77668 0.23824 0.0
H6598 H 0.10742 0.75409 0.2431 0.0
H6599 H 0.14047 0.751 0.26113 0.0
C6600 C 0.13248 0.73954 0.27105 0.0
C6601 C 0.12286 0.73429 0.27329 0.0
C6602 C 0.11446 0.75896 0.24203 0.0
C6603 C 0.12399 0.74876 0.25632 0.0
C6604 C 0.114 0.76747 0.23495 0.0
C6605 C 0.12285 0.77414 0.23352 0.0
C6606 C 0.12382 0.75709 0.24788 0.0
C6607 C 0.13224 0.77175 0.23913 0.0
C6608 C 0.13308 0.7468 0.26258 0.0
C6609 C 0.11412 0.7362 0.2666 0.0
N6610 N 0.13245 0.76347 0.24617 0.0
N6611 N 0.11488 0.74329 0.25849 0.0
H6612 H 0.26499 0.89015 0.02624 0.0
H6613 H 0.23454 0.85667 0.9813 0.0
H6614 H 0.27096 0.85712 0.0188 0.0
H6615 H 0.22694 0.88949 0.98814 0.0
H6616 H 0.24928 0.85761 0.99379 0.0
H6617 H 0.2524 0.89097 0.01124 0.0
C6618 C 0.26376 0.88312 0.02139 0.0
C6619 C 0.26896 0.87352 0.02384 0.0
C6620 C 0.24447 0.86466 0.99255 0.0
C6621 C 0.25461 0.8744 0.00675 0.0
C6622 C 0.23602 0.86412 0.98539 0.0
C6623 C 0.22942 0.87299 0.98373 0.0
C6624 C 0.24634 0.87411 0.99825 0.0
C6625 C 0.23182 0.88246 0.9892 0.0
C6626 C 0.25655 0.88359 0.01285 0.0
C6627 C 0.26706 0.86466 0.01729 0.0
N6628 N 0.24003 0.88274 0.99632 0.0
N6629 N 0.26002 0.86531 0.00912 0.0
H6630 H 0.98014 0.85736 0.23494 0.0
H6631 H 0.02561 0.89054 0.26491 0.0
H6632 H 0.98776 0.88983 0.22664 0.0
H6633 H 0.01776 0.85767 0.2712 0.0
H6634 H 0.01054 0.89147 0.2524 0.0
H6635 H 0.99249 0.85839 0.2498 0.0
C6636 C 0.98436 0.86476 0.2363 0.0
C6637 C 0.98298 0.87349 0.22947 0.0
C6638 C 0.01208 0.8841 0.25662 0.0
C6639 C 0.99735 0.87471 0.24651 0.0
C6640 C 0.02064 0.88358 0.26378 0.0
C6641 C 0.023 0.87398 0.26903 0.0
C6642 C 0.00584 0.87497 0.25477 0.0
C6643 C 0.01632 0.8652 0.26725 0.0
C6644 C 0.99145 0.86535 0.24481 0.0
C6645 C 0.98862 0.8829 0.2317 0.0
N6646 N 0.00812 0.8659 0.26026 0.0
N6647 N 0.99566 0.88323 0.23997 0.0
H6648 H 0.22659 0.86217 0.76483 0.0
H6649 H 0.27224 0.89521 0.73499 0.0
H6650 H 0.23482 0.89488 0.77144 0.0
H6651 H 0.26445 0.86281 0.72656 0.0
H6652 H 0.2599 0.89417 0.74986 0.0
H6653 H 0.2416 0.86121 0.75226 0.0
C6654 C 0.23162 0.86909 0.76375 0.0
C6655 C 0.22939 0.87865 0.76912 0.0
C6656 C 0.2609 0.88723 0.74484 0.0
C6657 C 0.24649 0.87762 0.75479 0.0
C6658 C 0.26797 0.88782 0.73632 0.0
C6659 C 0.2693 0.87911 0.72945 0.0
C6660 C 0.25496 0.87789 0.7465 0.0
C6661 C 0.26363 0.86972 0.73165 0.0
C6662 C 0.24016 0.86855 0.75656 0.0
C6663 C 0.23616 0.88738 0.76741 0.0
N6664 N 0.2566 0.86939 0.73993 0.0
N6665 N 0.24433 0.88666 0.76038 0.0
H6666 H 0.10738 0.02145 0.48446 0.0
H6667 H 0.14063 0.97636 0.5149 0.0
H6668 H 0.14004 0.01419 0.4766 0.0
H6669 H 0.10777 0.98427 0.52118 0.0
H6670 H 0.14154 0.99131 0.50226 0.0
H6671 H 0.10835 0.00913 0.49935 0.0
C6672 C 0.11481 0.0173 0.48591 0.0
C6673 C 0.12361 0.01878 0.4792 0.0
C6674 C 0.13417 0.98982 0.5065 0.0
C6675 C 0.12477 0.00447 0.49629 0.0
C6676 C 0.13366 0.98131 0.51373 0.0
C6677 C 0.12408 0.979 0.51903 0.0
C6678 C 0.12505 0.99604 0.50461 0.0
C6679 C 0.11529 0.98567 0.51721 0.0
C6680 C 0.11536 0.01024 0.49444 0.0
C6681 C 0.13306 0.01326 0.48156 0.0
N6682 N 0.11598 0.99381 0.51014 0.0
N6683 N 0.13336 0.00624 0.48986 0.0
H6684 H 0.4806 0.01813 0.89526 0.0
H6685 H 0.52582 0.98767 0.86218 0.0
H6686 H 0.48808 0.02607 0.86266 0.0
H6687 H 0.51803 0.98167 0.89512 0.0
H6688 H 0.51086 1.0003 0.86121 0.0
H6689 H 0.49295 0.00327 0.89434 0.0
C6690 C 0.4848 0.0167 0.88785 0.0
C6691 C 0.48337 0.02343 0.87905 0.0
C6692 C 0.51238 0.99612 0.86861 0.0
C6693 C 0.49772 0.00637 0.87796 0.0
C6694 C 0.52089 0.9889 0.86915 0.0
C6695 C 0.52324 0.98368 0.87877 0.0
C6696 C 0.50618 0.99807 0.87774 0.0
C6697 C 0.5166 0.98558 0.88756 0.0
C6698 C 0.49188 0.00818 0.88733 0.0
C6699 C 0.48897 0.02109 0.86964 0.0
N6700 N 0.50845 0.99263 0.88684 0.0
N6701 N 0.496 0.01281 0.86937 0.0
H6702 H 0.97666 0.23875 0.61336 0.0
H6703 H 0.01886 0.27226 0.64726 0.0
H6704 H 0.98411 0.23324 0.64646 0.0
H6705 H 0.01432 0.27728 0.61356 0.0
H6706 H 0.00698 0.25702 0.64646 0.0
H6707 H 0.99118 0.25188 0.61255 0.0
C6708 C 0.98143 0.24019 0.6204 0.0
C6709 C 0.9791 0.23496 0.63002 0.0
C6710 C 0.0086 0.26137 0.63919 0.0
C6711 C 0.99563 0.24996 0.62917 0.0
C6712 C 0.01539 0.27011 0.63965 0.0
C6713 C 0.01752 0.27611 0.63048 0.0
C6714 C 0.00372 0.25861 0.6295 0.0
C6715 C 0.01287 0.27287 0.62083 0.0
C6716 C 0.98969 0.2477 0.61994 0.0
C6717 C 0.98552 0.23714 0.6389 0.0
N6718 N 0.00608 0.26439 0.6206 0.0
N6719 N 0.99341 0.2445 0.63828 0.0
H6720 H 0.2379 0.47654 0.11178 0.0
H6721 H 0.2679 0.52199 0.14495 0.0
H6722 H 0.23142 0.48458 0.14457 0.0
H6723 H 0.27612 0.51444 0.11244 0.0
H6724 H 0.25306 0.50962 0.14393 0.0
H6725 H 0.25048 0.49155 0.11087 0.0
C6726 C 0.23901 0.48154 0.11873 0.0
C6727 C 0.23367 0.47925 0.1283 0.0
C6728 C 0.25803 0.51068 0.13697 0.0
C6729 C 0.24802 0.49634 0.12732 0.0
C6730 C 0.26653 0.51777 0.13754 0.0
C6731 C 0.27333 0.51919 0.1288 0.0
C6732 C 0.2563 0.50481 0.1276 0.0
C6733 C 0.27108 0.51357 0.11938 0.0
C6734 C 0.24621 0.49007 0.11821 0.0
C6735 C 0.23542 0.48596 0.13705 0.0
N6736 N 0.26281 0.50652 0.11906 0.0
N6737 N 0.24246 0.49413 0.13637 0.0
H6738 H 0.48728 0.7273 0.88992 0.0
H6739 H 0.52205 0.76794 0.85536 0.0
H6740 H 0.48254 0.73368 0.85647 0.0
H6741 H 0.52605 0.76472 0.88935 0.0
H6742 H 0.50675 0.75613 0.85617 0.0
H6743 H 0.50059 0.74167 0.8905 0.0
C6744 C 0.48893 0.7318 0.88275 0.0
C6745 C 0.48385 0.72922 0.87311 0.0
C6746 C 0.51089 0.75802 0.8635 0.0
C6747 C 0.49907 0.74556 0.8737 0.0
C6748 C 0.51967 0.76478 0.86303 0.0
C6749 C 0.52539 0.76727 0.87229 0.0
C6750 C 0.50781 0.75356 0.87329 0.0
C6751 C 0.52186 0.76299 0.88201 0.0
C6752 C 0.49654 0.73998 0.88307 0.0
C6753 C 0.4863 0.7353 0.86406 0.0
N6754 N 0.51335 0.75624 0.88225 0.0
N6755 N 0.49376 0.7431 0.86457 0.0
H6756 H 0.73399 0.98006 0.35725 0.0
H6757 H 0.76426 0.02559 0.38998 0.0
H6758 H 0.72571 0.98805 0.38964 0.0
H6759 H 0.77117 0.01674 0.35749 0.0
H6760 H 0.75152 0.01074 0.39104 0.0
H6761 H 0.74903 0.99218 0.35823 0.0
C6762 C 0.73538 0.98432 0.36462 0.0
C6763 C 0.72851 0.98311 0.37334 0.0
C6764 C 0.75592 0.01201 0.38374 0.0
C6765 C 0.74576 0.99721 0.37451 0.0
C6766 C 0.76321 0.02045 0.38314 0.0
C6767 C 0.76871 0.02247 0.3736 0.0
C6768 C 0.75417 0.00556 0.37474 0.0
C6769 C 0.76703 0.01557 0.36497 0.0
C6770 C 0.744 0.99127 0.36518 0.0
C6771 C 0.7308 0.98877 0.38272 0.0
N6772 N 0.75989 0.0075 0.36574 0.0
N6773 N 0.73918 0.99569 0.38302 0.0
H6774 H 0.97682 0.51501 0.14024 0.0
H6775 H 0.02249 0.48519 0.10723 0.0
H6776 H 0.98521 0.52179 0.1076 0.0
H6777 H 0.01448 0.47658 0.13953 0.0
H6778 H 0.01025 0.50014 0.10831 0.0
H6779 H 0.99181 0.50241 0.1412 0.0
C6780 C 0.98189 0.51396 0.13334 0.0
C6781 C 0.9797 0.51938 0.12379 0.0
C6782 C 0.01119 0.49506 0.11522 0.0
C6783 C 0.99678 0.50502 0.12482 0.0
C6784 C 0.01821 0.4865 0.1146 0.0
C6785 C 0.01944 0.47955 0.12326 0.0
C6786 C 0.00521 0.4967 0.12454 0.0
C6787 C 0.01374 0.48173 0.13265 0.0
C6788 C 0.99041 0.50675 0.13388 0.0
C6789 C 0.98651 0.51771 0.11509 0.0
N6790 N 0.00676 0.49005 0.133 0.0
N6791 N 0.99466 0.51066 0.1158 0.0
H6792 H 0.89577 0.48086 0.01803 0.0
H6793 H 0.8625 0.52611 0.98783 0.0
H6794 H 0.86322 0.48834 0.02618 0.0
H6795 H 0.89534 0.51819 0.98147 0.0
H6796 H 0.86161 0.51113 1.00044 0.0
H6797 H 0.89474 0.49318 0.00315 0.0
C6798 C 0.88835 0.48505 0.01664 0.0
C6799 C 0.8796 0.48363 0.02343 0.0
C6800 C 0.86896 0.51263 0.99619 0.0
C6801 C 0.87838 0.49795 0.00636 0.0
C6802 C 0.86947 0.52115 0.98897 0.0
C6803 C 0.87904 0.52346 0.98367 0.0
C6804 C 0.87809 0.5064 0.99804 0.0
C6805 C 0.88782 0.51679 0.98546 0.0
C6806 C 0.88777 0.49211 0.00811 0.0
C6807 C 0.87017 0.48922 0.02115 0.0
N6808 N 0.88715 0.50863 0.99251 0.0
N6809 N 0.86984 0.49624 0.01286 0.0
H6810 H 0.39498 0.7359 0.7716 0.0
H6811 H 0.36177 0.76507 0.72566 0.0
H6812 H 0.36282 0.72684 0.76353 0.0
H6813 H 0.3943 0.77226 0.73414 0.0
H6814 H 0.36089 0.75256 0.74073 0.0
H6815 H 0.39374 0.75079 0.75931 0.0
C6816 C 0.3876 0.7371 0.76729 0.0
C6817 C 0.37903 0.73004 0.76852 0.0
C6818 C 0.36817 0.75698 0.73934 0.0
C6819 C 0.37757 0.74711 0.75423 0.0
C6820 C 0.36866 0.76413 0.73077 0.0
C6821 C 0.37816 0.76964 0.72858 0.0
C6822 C 0.37722 0.75538 0.74575 0.0
C6823 C 0.38685 0.76812 0.73544 0.0
C6824 C 0.38689 0.74563 0.76024 0.0
C6825 C 0.36963 0.73208 0.76279 0.0
N6826 N 0.38618 0.76112 0.74364 0.0
N6827 N 0.36919 0.74037 0.75578 0.0
H6828 H 0.2308 0.14551 0.48557 0.0
H6829 H 0.27635 0.11222 0.51524 0.0
H6830 H 0.23822 0.113 0.47725 0.0
H6831 H 0.26827 0.14496 0.52193 0.0
H6832 H 0.26124 0.11132 0.50278 0.0
H6833 H 0.24314 0.14439 0.50043 0.0
C6834 C 0.23498 0.13808 0.48693 0.0
C6835 C 0.23355 0.12937 0.48009 0.0
C6836 C 0.26274 0.11865 0.50707 0.0
C6837 C 0.24791 0.12805 0.49712 0.0
C6838 C 0.27133 0.11916 0.5142 0.0
C6839 C 0.27364 0.12871 0.51955 0.0
C6840 C 0.25642 0.12775 0.50535 0.0
C6841 C 0.26688 0.13746 0.5179 0.0
C6842 C 0.24206 0.13745 0.49544 0.0
C6843 C 0.23911 0.11992 0.48232 0.0
N6844 N 0.25866 0.13678 0.51093 0.0
N6845 N 0.24616 0.11954 0.49058 0.0
H6846 H 0.51452 0.63996 0.47618 0.0
H6847 H 0.48515 0.60753 0.52255 0.0
H6848 H 0.52117 0.60733 0.48473 0.0
H6849 H 0.4766 0.63981 0.51437 0.0
H6850 H 0.49991 0.60841 0.51007 0.0
H6851 H 0.50212 0.64112 0.49131 0.0
C6852 C 0.51349 0.6331 0.48131 0.0
C6853 C 0.51881 0.6235 0.47913 0.0
C6854 C 0.49488 0.61536 0.51102 0.0
C6855 C 0.50468 0.62476 0.49637 0.0
C6856 C 0.48643 0.61486 0.51817 0.0
C6857 C 0.47956 0.62357 0.51943 0.0
C6858 C 0.49648 0.62461 0.50493 0.0
C6859 C 0.4817 0.63289 0.51361 0.0
C6860 C 0.50639 0.63376 0.48992 0.0
C6861 C 0.51716 0.61486 0.48602 0.0
N6862 N 0.48991 0.63313 0.5065 0.0
N6863 N 0.51022 0.61569 0.49426 0.0
H6864 H 0.23072 0.10699 0.76833 0.0
H6865 H 0.27593 0.14028 0.73811 0.0
H6866 H 0.23819 0.13953 0.7765 0.0
H6867 H 0.26786 0.10751 0.73159 0.0
H6868 H 0.26101 0.14115 0.75079 0.0
H6869 H 0.24302 0.10804 0.75343 0.0
C6870 C 0.2349 0.11441 0.76694 0.0
C6871 C 0.23349 0.12315 0.77374 0.0
C6872 C 0.26246 0.13382 0.74649 0.0
C6873 C 0.24778 0.12439 0.75665 0.0
C6874 C 0.27095 0.13333 0.73923 0.0
C6875 C 0.27321 0.12377 0.73386 0.0
C6876 C 0.2562 0.1247 0.74831 0.0
C6877 C 0.26651 0.11501 0.73562 0.0
C6878 C 0.24195 0.115 0.7584 0.0
C6879 C 0.23907 0.13259 0.77146 0.0
N6880 N 0.25838 0.11567 0.74271 0.0
N6881 N 0.24607 0.13293 0.76316 0.0
H6882 H 0.97646 0.61205 0.23759 0.0
H6883 H 0.02201 0.64493 0.26776 0.0
H6884 H 0.98444 0.64492 0.23146 0.0
H6885 H 0.01442 0.61238 0.27577 0.0
H6886 H 0.0096 0.64405 0.25295 0.0
H6887 H 0.99149 0.61102 0.25014 0.0
C6888 C 0.98144 0.619 0.23877 0.0
C6889 C 0.97914 0.62862 0.23354 0.0
C6890 C 0.01066 0.63704 0.25787 0.0
C6891 C 0.99626 0.62751 0.24784 0.0
C6892 C 0.01778 0.63755 0.26635 0.0
C6893 C 0.01919 0.62875 0.27309 0.0
C6894 C 0.00476 0.6277 0.2561 0.0
C6895 C 0.01355 0.61936 0.27078 0.0
C6896 C 0.98999 0.61841 0.24595 0.0
C6897 C 0.98584 0.63737 0.23538 0.0
N6898 N 0.00648 0.61911 0.26254 0.0
N6899 N 0.99402 0.63661 0.24239 0.0
H6900 H 0.97631 0.64063 0.01499 0.0
H6901 H 0.02215 0.60762 0.98537 0.0
H6902 H 0.98407 0.60771 0.02113 0.0
H6903 H 0.01458 0.64012 0.9771 0.0
H6904 H 0.00955 0.60855 1.00002 0.0
H6905 H 0.99145 0.6416 0.00257 0.0
C6906 C 0.98126 0.63366 0.01383 0.0
C6907 C 0.97886 0.62404 0.01903 0.0
C6908 C 0.01065 0.61553 0.99508 0.0
C6909 C 0.99612 0.62509 0.00489 0.0
C6910 C 0.01788 0.61501 0.98669 0.0
C6911 C 0.01936 0.62378 0.97993 0.0
C6912 C 0.00472 0.62487 0.99673 0.0
C6913 C 0.01366 0.63316 0.98211 0.0
C6914 C 0.98987 0.63421 0.00673 0.0
C6915 C 0.98553 0.61526 0.01723 0.0
N6916 N 0.00649 0.63343 0.99027 0.0
N6917 N 0.99378 0.61599 0.0103 0.0
H6918 H 0.86203 0.72621 0.26467 0.0
H6919 H 0.89477 0.77242 0.23538 0.0
H6920 H 0.89466 0.73465 0.27145 0.0
H6921 H 0.86257 0.76423 0.22658 0.0
H6922 H 0.89374 0.76002 0.25021 0.0
H6923 H 0.86097 0.74133 0.25225 0.0
C6924 C 0.86891 0.73131 0.26366 0.0
C6925 C 0.87848 0.7291 0.26902 0.0
C6926 C 0.88684 0.76095 0.24511 0.0
C6927 C 0.87734 0.74634 0.25487 0.0
C6928 C 0.88743 0.76806 0.23662 0.0
C6929 C 0.87878 0.76929 0.22966 0.0
C6930 C 0.87756 0.75488 0.24665 0.0
C6931 C 0.86943 0.7635 0.23175 0.0
C6932 C 0.86831 0.73992 0.25655 0.0
C6933 C 0.88715 0.73596 0.26741 0.0
N6934 N 0.86911 0.75643 0.24 0.0
N6935 N 0.88639 0.7442 0.26046 0.0
H6936 H 0.73785 0.61264 0.4771 0.0
H6937 H 0.76825 0.64583 0.52227 0.0
H6938 H 0.73207 0.64569 0.4846 0.0
H6939 H 0.77616 0.6132 0.51491 0.0
H6940 H 0.75339 0.64488 0.50992 0.0
H6941 H 0.75034 0.61168 0.49218 0.0
C6942 C 0.73909 0.61964 0.48199 0.0
C6943 C 0.73399 0.62929 0.47953 0.0
C6944 C 0.75829 0.63787 0.51102 0.0
C6945 C 0.74822 0.62825 0.49671 0.0
C6946 C 0.76681 0.63841 0.5181 0.0
C6947 C 0.77353 0.62961 0.51956 0.0
C6948 C 0.75648 0.62849 0.5052 0.0
C6949 C 0.77118 0.62018 0.514 0.0
C6950 C 0.74624 0.61909 0.49057 0.0
C6951 C 0.7359 0.63811 0.48612 0.0
N6952 N 0.76291 0.6199 0.50696 0.0
N6953 N 0.74288 0.63739 0.49433 0.0
H6954 H 0.85669 0.48207 0.73497 0.0
H6955 H 0.8908 0.52715 0.76461 0.0
H6956 H 0.8894 0.48877 0.72675 0.0
H6957 H 0.85695 0.52233 0.76823 0.0
H6958 H 0.89146 0.5116 0.75267 0.0
H6959 H 0.85776 0.49507 0.74927 0.0
C6960 C 0.86415 0.48623 0.73623 0.0
C6961 C 0.87293 0.48441 0.72956 0.0
C6962 C 0.88392 0.51392 0.75617 0.0
C6963 C 0.87419 0.49949 0.74596 0.0
C6964 C 0.88354 0.52276 0.763 0.0
C6965 C 0.87379 0.52609 0.76735 0.0
C6966 C 0.87449 0.50836 0.75379 0.0
C6967 C 0.86463 0.52013 0.76499 0.0
C6968 C 0.86476 0.49368 0.74441 0.0
C6969 C 0.88242 0.48996 0.73168 0.0
N6970 N 0.86521 0.51162 0.75837 0.0
N6971 N 0.88278 0.49735 0.73963 0.0
H6972 H 0.85759 0.73428 0.47924 0.0
H6973 H 0.89046 0.76471 0.52463 0.0
H6974 H 0.88994 0.72592 0.4873 0.0
H6975 H 0.85756 0.77068 0.51667 0.0
H6976 H 0.89151 0.75208 0.50967 0.0
H6977 H 0.85856 0.74928 0.49143 0.0
C6978 C 0.86495 0.73565 0.48353 0.0
C6979 C 0.87366 0.72876 0.48233 0.0
C6980 C 0.88411 0.75625 0.51116 0.0
C6981 C 0.87481 0.74596 0.4965 0.0
C6982 C 0.88352 0.76348 0.51966 0.0
C6983 C 0.87388 0.76867 0.52196 0.0
C6984 C 0.87501 0.75429 0.50492 0.0
C6985 C 0.86512 0.76678 0.51528 0.0
C6986 C 0.86551 0.74424 0.49052 0.0
C6987 C 0.88303 0.73102 0.48802 0.0
N6988 N 0.86589 0.75973 0.50714 0.0
N6989 N 0.88332 0.73937 0.49497 0.0
H6990 H 0.7329 0.606 0.76856 0.0
H6991 H 0.77743 0.64029 0.73832 0.0
H6992 H 0.73908 0.63894 0.77619 0.0
H6993 H 0.77292 0.60638 0.73497 0.0
H6994 H 0.76195 0.64089 0.75034 0.0
H6995 H 0.74589 0.60701 0.75425 0.0
C6996 C 0.73694 0.6135 0.76717 0.0
C6997 C 0.73497 0.62237 0.77367 0.0
C6998 C 0.76433 0.63335 0.74689 0.0
C6999 C 0.75004 0.62357 0.75726 0.0
C7000 C 0.77313 0.63301 0.74001 0.0
C7001 C 0.77653 0.62326 0.73571 0.0
C7002 C 0.75888 0.62389 0.74938 0.0
C7003 C 0.77067 0.61406 0.73818 0.0
C7004 C 0.74439 0.61407 0.75899 0.0
C7005 C 0.74039 0.6319 0.77139 0.0
N7006 N 0.76219 0.61461 0.74485 0.0
N7007 N 0.74777 0.63223 0.76343 0.0
H7008 H 0.48389 0.52219 0.60695 0.0
H7009 H 0.51378 0.47627 0.6396 0.0
H7010 H 0.47571 0.51434 0.63941 0.0
H7011 H 0.51988 0.48431 0.60673 0.0
H7012 H 0.5013 0.49135 0.64069 0.0
H7013 H 0.49863 0.50968 0.60778 0.0
C7014 C 0.48525 0.51788 0.61431 0.0
C7015 C 0.47849 0.51925 0.62309 0.0
C7016 C 0.50546 0.48985 0.63329 0.0
C7017 C 0.49539 0.50471 0.62407 0.0
C7018 C 0.5126 0.48127 0.63267 0.0
C7019 C 0.51781 0.47897 0.62303 0.0
C7020 C 0.50359 0.49615 0.62422 0.0
C7021 C 0.51598 0.4857 0.6143 0.0
C7022 C 0.49369 0.5107 0.61477 0.0
C7023 C 0.48072 0.51351 0.63244 0.0
N7024 N 0.50901 0.49392 0.61509 0.0
N7025 N 0.48892 0.50638 0.63265 0.0
H7026 H 0.98066 0.2349 0.85718 0.0
H7027 H 0.02614 0.26486 0.89032 0.0
H7028 H 0.98864 0.22629 0.88949 0.0
H7029 H 0.01782 0.27163 0.85766 0.0
H7030 H 0.01121 0.25221 0.89123 0.0
H7031 H 0.99286 0.24989 0.8583 0.0
C7032 C 0.98494 0.23621 0.86456 0.0
C7033 C 0.98371 0.22926 0.87322 0.0
C7034 C 0.0126 0.25656 0.88392 0.0
C7035 C 0.99787 0.24645 0.87453 0.0
C7036 C 0.0211 0.2638 0.8834 0.0
C7037 C 0.02329 0.26923 0.87387 0.0
C7038 C 0.00627 0.2548 0.87484 0.0
C7039 C 0.01651 0.26754 0.86515 0.0
C7040 C 0.99192 0.2448 0.8652 0.0
C7041 C 0.98938 0.23145 0.88261 0.0
N7042 N 0.00838 0.26046 0.86583 0.0
N7043 N 0.99633 0.23979 0.88299 0.0
H7044 H 0.23051 0.7679 0.10741 0.0
H7045 H 0.27602 0.73782 0.14042 0.0
H7046 H 0.23819 0.7761 0.1399 0.0
H7047 H 0.26805 0.73156 0.10757 0.0
H7048 H 0.261 0.75037 0.1414 0.0
H7049 H 0.24286 0.75304 0.10838 0.0
C7050 C 0.23475 0.76652 0.1148 0.0
C7051 C 0.23338 0.77333 0.12356 0.0
C7052 C 0.2625 0.74615 0.13403 0.0
C7053 C 0.24774 0.75628 0.1247 0.0
C7054 C 0.27104 0.73897 0.13347 0.0
C7055 C 0.27336 0.73371 0.12387 0.0
C7056 C 0.25623 0.74801 0.12493 0.0
C7057 C 0.26665 0.73551 0.11511 0.0
C7058 C 0.24183 0.75801 0.11535 0.0
C7059 C 0.23903 0.77106 0.13295 0.0
N7060 N 0.25847 0.74253 0.11584 0.0
N7061 N 0.24607 0.76279 0.13324 0.0
H7062 H 0.4846 0.73112 0.64547 0.0
H7063 H 0.5149 0.77637 0.6123 0.0
H7064 H 0.47656 0.73859 0.6129 0.0
H7065 H 0.52123 0.76839 0.64513 0.0
H7066 H 0.50225 0.76143 0.61139 0.0
H7067 H 0.49947 0.74346 0.6445 0.0
C7068 C 0.48601 0.73532 0.63806 0.0
C7069 C 0.47925 0.73389 0.62928 0.0
C7070 C 0.50651 0.76291 0.61874 0.0
C7071 C 0.49631 0.74823 0.62813 0.0
C7072 C 0.51374 0.7714 0.61926 0.0
C7073 C 0.51906 0.77369 0.62884 0.0
C7074 C 0.50464 0.75666 0.62786 0.0
C7075 C 0.51725 0.76701 0.63761 0.0
C7076 C 0.49453 0.74239 0.63751 0.0
C7077 C 0.48156 0.73948 0.61987 0.0
N7078 N 0.51017 0.75887 0.63692 0.0
N7079 N 0.48984 0.74651 0.61956 0.0
H7080 H 0.7267 0.26376 0.86356 0.0
H7081 H 0.77239 0.23354 0.89617 0.0
H7082 H 0.7348 0.26971 0.89643 0.0
H7083 H 0.76456 0.22548 0.86368 0.0
H7084 H 0.76008 0.24845 0.8953 0.0
H7085 H 0.7418 0.25131 0.86238 0.0
C7086 C 0.73173 0.26257 0.87047 0.0
C7087 C 0.72943 0.2677 0.88014 0.0
C7088 C 0.76107 0.2435 0.8883 0.0
C7089 C 0.74662 0.25352 0.87886 0.0
C7090 C 0.76812 0.23496 0.8888 0.0
C7091 C 0.76942 0.22818 0.88002 0.0
C7092 C 0.75512 0.24526 0.87899 0.0
C7093 C 0.76376 0.2305 0.87065 0.0
C7094 C 0.74031 0.25544 0.8698 0.0
C7095 C 0.73618 0.26585 0.88885 0.0
N7096 N 0.75674 0.23879 0.87041 0.0
N7097 N 0.7444 0.25889 0.88801 0.0
H7098 H 0.0264 0.98708 0.36226 0.0
H7099 H 0.98044 0.01642 0.39527 0.0
H7100 H 0.01834 0.98053 0.39503 0.0
H7101 H 0.98796 0.02477 0.36279 0.0
H7102 H 0.9929 0.00166 0.39423 0.0
H7103 H 0.01116 0.99937 0.36124 0.0
C7104 C 0.02135 0.98812 0.36918 0.0
C7105 C 0.02371 0.98286 0.37878 0.0
C7106 C 0.99181 0.00664 0.38727 0.0
C7107 C 0.00633 0.99685 0.37768 0.0
C7108 C 0.98466 0.01509 0.38786 0.0
C7109 C 0.98323 0.02191 0.37913 0.0
C7110 C 0.99773 0.005 0.37792 0.0
C7111 C 0.98886 0.01971 0.36971 0.0
C7112 C 0.01268 0.99514 0.3686 0.0
C7113 C 0.01691 0.98449 0.3875 0.0
N7114 N 0.99598 0.0115 0.36938 0.0
N7115 N 0.00861 0.99136 0.38675 0.0
H7116 H 0.63994 0.73837 0.77757 0.0
H7117 H 0.60591 0.76865 0.73285 0.0
H7118 H 0.606 0.73529 0.77305 0.0
H7119 H 0.63878 0.77639 0.73931 0.0
H7120 H 0.60686 0.75435 0.74585 0.0
H7121 H 0.64064 0.75038 0.76208 0.0
C7122 C 0.63267 0.74012 0.77326 0.0
C7123 C 0.62288 0.7359 0.77665 0.0
C7124 C 0.61391 0.75911 0.74442 0.0
C7125 C 0.62363 0.74954 0.75899 0.0
C7126 C 0.61338 0.76729 0.73696 0.0
C7127 C 0.62225 0.77381 0.73507 0.0
C7128 C 0.62337 0.75741 0.75015 0.0
C7129 C 0.63174 0.77157 0.74056 0.0
C7130 C 0.63307 0.74699 0.76445 0.0
C7131 C 0.61371 0.73844 0.7708 0.0
N7132 N 0.63203 0.76361 0.74795 0.0
N7133 N 0.61431 0.74509 0.76231 0.0
H7134 H 0.76511 0.39003 0.02527 0.0
H7135 H 0.73026 0.35546 0.98475 0.0
H7136 H 0.77035 0.35678 0.01828 0.0
H7137 H 0.72595 0.38939 0.98822 0.0
H7138 H 0.74572 0.35636 0.99634 0.0
H7139 H 0.75161 0.39061 0.01107 0.0
C7140 C 0.76354 0.3829 0.02066 0.0
C7141 C 0.7688 0.37331 0.02304 0.0
C7142 C 0.74148 0.36366 0.99455 0.0
C7143 C 0.75338 0.3739 0.00689 0.0
C7144 C 0.7326 0.36314 0.98792 0.0
C7145 C 0.72675 0.37235 0.98557 0.0
C7146 C 0.74452 0.37345 0.99902 0.0
C7147 C 0.73024 0.38209 0.98985 0.0
C7148 C 0.75582 0.38323 0.01259 0.0
C7149 C 0.76644 0.36432 0.01683 0.0
N7150 N 0.73885 0.38237 0.99647 0.0
N7151 N 0.75888 0.36483 0.00913 0.0
H7152 H 0.14471 0.48487 0.22883 0.0
H7153 H 0.11223 0.51441 0.27508 0.0
H7154 H 0.11248 0.47625 0.2371 0.0
H7155 H 0.14513 0.52034 0.26711 0.0
H7156 H 0.11104 0.5021 0.25986 0.0
H7157 H 0.14382 0.49965 0.24129 0.0
C7158 C 0.13739 0.48614 0.23322 0.0
C7159 C 0.1287 0.47924 0.232 0.0
C7160 C 0.11847 0.5062 0.2614 0.0
C7161 C 0.12765 0.49617 0.24648 0.0
C7162 C 0.11914 0.51324 0.27006 0.0
C7163 C 0.12883 0.51833 0.27243 0.0
C7164 C 0.12753 0.50432 0.25508 0.0
C7165 C 0.13754 0.51652 0.26567 0.0
C7166 C 0.13688 0.4946 0.24037 0.0
C7167 C 0.11938 0.48137 0.23783 0.0
N7168 N 0.13669 0.50965 0.25738 0.0
N7169 N 0.11914 0.48959 0.24493 0.0
H7170 H 0.51692 0.8956 0.98118 0.0
H7171 H 0.48756 0.86214 0.0268 0.0
H7172 H 0.52591 0.86338 0.98907 0.0
H7173 H 0.48029 0.89467 0.01838 0.0
H7174 H 0.50014 0.86135 0.01179 0.0
H7175 H 0.50197 0.89429 0.99339 0.0
C7176 C 0.5157 0.8882 0.98544 0.0
C7177 C 0.52275 0.87962 0.98418 0.0
C7178 C 0.49569 0.8686 0.01318 0.0
C7179 C 0.50561 0.87809 0.99838 0.0
C7180 C 0.48849 0.86905 0.02172 0.0
C7181 C 0.48295 0.87852 0.02391 0.0
C7182 C 0.49729 0.87768 0.00681 0.0
C7183 C 0.48447 0.88724 0.01708 0.0
C7184 C 0.50714 0.88745 0.99244 0.0
C7185 C 0.52068 0.87019 0.98984 0.0
N7186 N 0.49152 0.88662 0.00892 0.0
N7187 N 0.51236 0.86971 0.99681 0.0
H7188 H 0.11297 0.27622 0.5139 0.0
H7189 H 0.1471 0.23445 0.4801 0.0
H7190 H 0.14618 0.26907 0.51923 0.0
H7191 H 0.1133 0.23853 0.47539 0.0
H7192 H 0.14629 0.24632 0.49535 0.0
H7193 H 0.11223 0.26171 0.50075 0.0
C7194 C 0.12005 0.27152 0.51242 0.0
C7195 C 0.12968 0.27393 0.5176 0.0
C7196 C 0.139 0.2446 0.49107 0.0
C7197 C 0.12891 0.25742 0.50258 0.0
C7198 C 0.13947 0.23781 0.48232 0.0
C7199 C 0.13027 0.23555 0.4764 0.0
C7200 C 0.12927 0.24934 0.49392 0.0
C7201 C 0.12059 0.24008 0.47973 0.0
C7202 C 0.11964 0.26326 0.5049 0.0
C7203 C 0.13861 0.2676 0.51536 0.0
N7204 N 0.12035 0.24687 0.48821 0.0
N7205 N 0.13802 0.25972 0.508 0.0
H7206 H 0.77042 0.39607 0.73347 0.0
H7207 H 0.72602 0.36228 0.76448 0.0
H7208 H 0.76453 0.36288 0.7267 0.0
H7209 H 0.72999 0.39636 0.7666 0.0
H7210 H 0.74152 0.36149 0.7525 0.0
H7211 H 0.75726 0.39538 0.74763 0.0
C7212 C 0.76641 0.38859 0.73502 0.0
C7213 C 0.76852 0.37955 0.7288 0.0
C7214 C 0.73902 0.36911 0.75566 0.0
C7215 C 0.75325 0.37872 0.74505 0.0
C7216 C 0.7302 0.36956 0.76252 0.0
C7217 C 0.72666 0.37941 0.76648 0.0
C7218 C 0.74434 0.37856 0.75286 0.0
C7219 C 0.73236 0.3886 0.76367 0.0
C7220 C 0.75885 0.3882 0.74312 0.0
C7221 C 0.76312 0.37005 0.73128 0.0
N7222 N 0.74086 0.38795 0.75704 0.0
N7223 N 0.75564 0.3699 0.73916 0.0
H7224 H 0.98055 0.39518 0.01741 0.0
H7225 H 0.02604 0.36198 0.98751 0.0
H7226 H 0.98825 0.36275 0.02583 0.0
H7227 H 0.01781 0.39468 0.98079 0.0
H7228 H 0.01104 0.36108 1.0001 0.0
H7229 H 0.99284 0.39409 0.0025 0.0
C7230 C 0.98479 0.38778 0.01607 0.0
C7231 C 0.98344 0.37908 0.02295 0.0
C7232 C 0.01248 0.3684 0.99577 0.0
C7233 C 0.99772 0.37779 0.00585 0.0
C7234 C 0.021 0.36891 0.98857 0.0
C7235 C 0.02324 0.37845 0.98317 0.0
C7236 C 0.00616 0.37749 0.99753 0.0
C7237 C 0.01647 0.38719 0.98485 0.0
C7238 C 0.99183 0.38715 0.00753 0.0
C7239 C 0.98908 0.36966 0.02073 0.0
N7240 N 0.00832 0.3865 0.9919 0.0
N7241 N 0.99608 0.3693 0.01243 0.0
H7242 H 0.10708 0.26728 0.73175 0.0
H7243 H 0.14063 0.23759 0.77709 0.0
H7244 H 0.13973 0.27542 0.73878 0.0
H7245 H 0.10784 0.23093 0.76921 0.0
H7246 H 0.14145 0.25006 0.76198 0.0
H7247 H 0.10821 0.25251 0.74418 0.0
C7248 C 0.11454 0.26591 0.73587 0.0
C7249 C 0.12329 0.27266 0.73429 0.0
C7250 C 0.13412 0.24577 0.76352 0.0
C7251 C 0.12463 0.25572 0.74874 0.0
C7252 C 0.13366 0.23863 0.77211 0.0
C7253 C 0.12412 0.23329 0.77447 0.0
C7254 C 0.12498 0.2475 0.75727 0.0
C7255 C 0.11533 0.23495 0.76778 0.0
C7256 C 0.11519 0.25744 0.74299 0.0
C7257 C 0.13278 0.27041 0.73978 0.0
N7258 N 0.11596 0.24193 0.75956 0.0
N7259 N 0.13317 0.26219 0.74688 0.0
H7260 H 0.26534 0.38977 0.52642 0.0
H7261 H 0.23543 0.35689 0.48073 0.0
H7262 H 0.27179 0.35702 0.51821 0.0
H7263 H 0.22751 0.38951 0.4881 0.0
H7264 H 0.25022 0.3578 0.49317 0.0
H7265 H 0.25289 0.39082 0.51131 0.0
C7266 C 0.26425 0.38286 0.52137 0.0
C7267 C 0.26953 0.37326 0.52364 0.0
C7268 C 0.24533 0.36481 0.49205 0.0
C7269 C 0.25534 0.37439 0.50643 0.0
C7270 C 0.23686 0.3643 0.48492 0.0
C7271 C 0.23016 0.37311 0.48345 0.0
C7272 C 0.24712 0.37419 0.4979 0.0
C7273 C 0.23248 0.38253 0.48903 0.0
C7274 C 0.25713 0.38346 0.51278 0.0
C7275 C 0.26782 0.36455 0.51685 0.0
N7276 N 0.24071 0.38279 0.49613 0.0
N7277 N 0.26085 0.36532 0.50863 0.0
H7278 H 0.27221 0.39557 0.23395 0.0
H7279 H 0.22641 0.36309 0.26414 0.0
H7280 H 0.26427 0.36311 0.22589 0.0
H7281 H 0.23489 0.39579 0.2705 0.0
H7282 H 0.24138 0.36193 0.25155 0.0
H7283 H 0.25986 0.39476 0.24882 0.0
C7284 C 0.26791 0.38822 0.23536 0.0
C7285 C 0.26921 0.37943 0.22859 0.0
C7286 C 0.24 0.36931 0.2558 0.0
C7287 C 0.25485 0.37847 0.24565 0.0
C7288 C 0.23149 0.36997 0.263 0.0
C7289 C 0.22934 0.37958 0.26831 0.0
C7290 C 0.24639 0.37833 0.25395 0.0
C7291 C 0.23616 0.38825 0.26652 0.0
C7292 C 0.26083 0.38776 0.24388 0.0
C7293 C 0.26348 0.37009 0.2309 0.0
N7294 N 0.24431 0.38743 0.25947 0.0
N7295 N 0.25645 0.36988 0.23918 0.0
H7296 H 0.47997 0.51774 0.39496 0.0
H7297 H 0.52613 0.48821 0.36235 0.0
H7298 H 0.48788 0.52609 0.36256 0.0
H7299 H 0.51805 0.48201 0.39518 0.0
H7300 H 0.51095 0.50056 0.36123 0.0
H7301 H 0.49251 0.50303 0.39409 0.0
C7302 C 0.4843 0.51643 0.38761 0.0
C7303 C 0.48295 0.52323 0.37886 0.0
C7304 C 0.51246 0.4964 0.36863 0.0
C7305 C 0.49752 0.50637 0.37783 0.0
C7306 C 0.5211 0.48933 0.36927 0.0
C7307 C 0.52342 0.48415 0.37891 0.0
C7308 C 0.50612 0.49822 0.37768 0.0
C7309 C 0.51665 0.4859 0.38762 0.0
C7310 C 0.49149 0.508 0.38712 0.0
C7311 C 0.48871 0.52105 0.36951 0.0
N7312 N 0.50838 0.49281 0.38681 0.0
N7313 N 0.49585 0.51286 0.36928 0.0
H7314 H 0.02187 0.76857 0.14558 0.0
H7315 H 0.97647 0.73817 0.11267 0.0
H7316 H 0.01428 0.7765 0.113 0.0
H7317 H 0.98445 0.73209 0.14556 0.0
H7318 H 0.99142 0.75081 0.11166 0.0
H7319 H 0.00948 0.75373 0.14471 0.0
C7320 C 0.01764 0.76714 0.13819 0.0
C7321 C 0.01905 0.77386 0.12938 0.0
C7322 C 0.98994 0.74661 0.11905 0.0
C7323 C 0.00465 0.75684 0.12835 0.0
C7324 C 0.98143 0.73938 0.11963 0.0
C7325 C 0.97915 0.73414 0.12924 0.0
C7326 C 0.99618 0.74854 0.12816 0.0
C7327 C 0.98582 0.73602 0.13801 0.0
C7328 C 0.01053 0.75864 0.1377 0.0
C7329 C 0.01341 0.77153 0.11999 0.0
N7330 N 0.99397 0.74308 0.13726 0.0
N7331 N 0.00635 0.76327 0.11976 0.0
H7332 H 0.52219 0.26655 0.3546 0.0
H7333 H 0.48767 0.22604 0.3895 0.0
H7334 H 0.52608 0.26386 0.38865 0.0
H7335 H 0.48267 0.23236 0.35608 0.0
H7336 H 0.50093 0.24046 0.38997 0.0
H7337 H 0.50696 0.25466 0.35553 0.0
C7338 C 0.5198 0.26349 0.36231 0.0
C7339 C 0.52547 0.26615 0.37155 0.0
C7340 C 0.49683 0.23874 0.38258 0.0
C7341 C 0.50797 0.25235 0.37269 0.0
C7342 C 0.48925 0.23053 0.38231 0.0
C7343 C 0.48412 0.22792 0.37271 0.0
C7344 C 0.49927 0.24432 0.37317 0.0
C7345 C 0.48648 0.234 0.36364 0.0
C7346 C 0.51106 0.25669 0.36284 0.0
C7347 C 0.52193 0.262 0.38133 0.0
N7348 N 0.49391 0.24183 0.36408 0.0
N7349 N 0.51345 0.2552 0.38163 0.0
H7350 H 0.01581 0.97646 0.64077 0.0
H7351 H 0.9868 0.02256 0.60767 0.0
H7352 H 0.02264 0.98464 0.60809 0.0
H7353 H 0.9781 0.01485 0.64002 0.0
H7354 H 0.00159 0.01014 0.60882 0.0
H7355 H 0.00356 0.99174 0.64175 0.0
C7356 C 0.01485 0.98154 0.63386 0.0
C7357 C 0.02017 0.97921 0.6243 0.0
C7358 C 0.99653 0.01118 0.61573 0.0
C7359 C 0.00622 0.99662 0.62535 0.0
C7360 C 0.98806 0.0183 0.61507 0.0
C7361 C 0.98113 0.01967 0.62373 0.0
C7362 C 0.99808 0.00522 0.62507 0.0
C7363 C 0.98325 0.01401 0.63315 0.0
C7364 C 0.00785 0.99023 0.63442 0.0
C7365 C 0.01863 0.98604 0.61559 0.0
N7366 N 0.99147 0.00691 0.63354 0.0
N7367 N 0.01178 0.99436 0.61632 0.0
H7368 H 0.36168 0.26453 0.22628 0.0
H7369 H 0.39504 0.23475 0.27173 0.0
H7370 H 0.39442 0.27125 0.23434 0.0
H7371 H 0.36254 0.22642 0.26428 0.0
H7372 H 0.39394 0.24958 0.25935 0.0
H7373 H 0.36084 0.25197 0.24131 0.0
C7374 C 0.36863 0.26348 0.23128 0.0
C7375 C 0.37817 0.26887 0.22899 0.0
C7376 C 0.38699 0.24459 0.26044 0.0
C7377 C 0.37727 0.25455 0.24611 0.0
C7378 C 0.38762 0.23609 0.26753 0.0
C7379 C 0.3789 0.22927 0.26898 0.0
C7380 C 0.3776 0.24627 0.25459 0.0
C7381 C 0.36946 0.23148 0.26338 0.0
C7382 C 0.36816 0.25629 0.23983 0.0
C7383 C 0.38693 0.2672 0.23572 0.0
N7384 N 0.36909 0.23974 0.25633 0.0
N7385 N 0.38628 0.26017 0.2439 0.0
H7386 H 0.23439 0.64711 0.98067 0.0
H7387 H 0.27599 0.61291 0.01465 0.0
H7388 H 0.23834 0.61327 0.97608 0.0
H7389 H 0.26893 0.64615 0.01991 0.0
H7390 H 0.26153 0.61221 0.00144 0.0
H7391 H 0.24628 0.6463 0.99592 0.0
C7392 C 0.23773 0.63947 0.98292 0.0
C7393 C 0.23543 0.63026 0.97704 0.0
C7394 C 0.2631 0.61961 0.00558 0.0
C7395 C 0.24923 0.62927 0.99455 0.0
C7396 C 0.27132 0.62001 0.01314 0.0
C7397 C 0.27374 0.62963 0.01832 0.0
C7398 C 0.25729 0.6289 0.00323 0.0
C7399 C 0.26745 0.63858 0.01605 0.0
C7400 C 0.24453 0.63901 0.99166 0.0
C7401 C 0.23992 0.62057 0.9804 0.0
N7402 N 0.2596 0.63801 0.00864 0.0
N7403 N 0.24671 0.62034 0.98888 0.0
H7404 H 0.48462 0.10694 0.02152 0.0
H7405 H 0.51471 0.14007 0.97612 0.0
H7406 H 0.47631 0.1394 0.01385 0.0
H7407 H 0.52138 0.10738 0.98441 0.0
H7408 H 0.50204 0.14099 0.99104 0.0
H7409 H 0.49953 0.10798 0.00924 0.0
C7410 C 0.48598 0.11434 0.01729 0.0
C7411 C 0.47914 0.12306 0.01864 0.0
C7412 C 0.50638 0.13367 0.98964 0.0
C7413 C 0.49625 0.1243 0.00437 0.0
C7414 C 0.51362 0.13314 0.98115 0.0
C7415 C 0.51903 0.1236 0.97895 0.0
C7416 C 0.50459 0.12459 0.99596 0.0
C7417 C 0.51731 0.11487 0.98572 0.0
C7418 C 0.49453 0.11493 0.01025 0.0
C7419 C 0.48138 0.13247 0.01301 0.0
N7420 N 0.51022 0.11556 0.99384 0.0
N7421 N 0.48969 0.13281 0.00602 0.0
H7422 H 0.26852 0.60608 0.23159 0.0
H7423 H 0.23781 0.63946 0.27649 0.0
H7424 H 0.27572 0.63906 0.23812 0.0
H7425 H 0.23527 0.60549 0.27189 0.0
H7426 H 0.24981 0.64039 0.26101 0.0
H7427 H 0.25428 0.60673 0.24467 0.0
C7428 C 0.26705 0.61351 0.23572 0.0
C7429 C 0.27341 0.6225 0.23382 0.0
C7430 C 0.24654 0.63276 0.26337 0.0
C7431 C 0.25707 0.62328 0.249 0.0
C7432 C 0.23968 0.63223 0.27217 0.0
C7433 C 0.2356 0.62237 0.27554 0.0
C7434 C 0.24923 0.62337 0.25788 0.0
C7435 C 0.23829 0.61325 0.26966 0.0
C7436 C 0.2589 0.61387 0.24323 0.0
C7437 C 0.27103 0.63193 0.23937 0.0
N7438 N 0.24493 0.61398 0.26117 0.0
N7439 N 0.2631 0.63205 0.2468 0.0
H7440 H 0.35715 0.01785 0.77172 0.0
H7441 H 0.3903 0.98781 0.72629 0.0
H7442 H 0.38964 0.02609 0.76413 0.0
H7443 H 0.35752 0.98133 0.73436 0.0
H7444 H 0.39123 1.00039 0.74129 0.0
H7445 H 0.35818 0.00297 0.75939 0.0
C7446 C 0.36455 0.01648 0.7675 0.0
C7447 C 0.37329 0.0233 0.76888 0.0
C7448 C 0.38388 0.99612 0.73982 0.0
C7449 C 0.3745 0.00623 0.75456 0.0
C7450 C 0.38335 0.98892 0.73129 0.0
C7451 C 0.37378 0.98359 0.72901 0.0
C7452 C 0.37478 0.99793 0.7461 0.0
C7453 C 0.36503 0.98534 0.73573 0.0
C7454 C 0.36514 0.00795 0.76043 0.0
C7455 C 0.38271 0.02104 0.76327 0.0
N7456 N 0.36573 0.99238 0.7439 0.0
N7457 N 0.38304 0.01276 0.75624 0.0
H7458 H 0.48375 0.14519 0.22986 0.0
H7459 H 0.51471 0.11251 0.27503 0.0
H7460 H 0.47593 0.11265 0.2377 0.0
H7461 H 0.52023 0.14553 0.26723 0.0
H7462 H 0.5021 0.11136 0.26007 0.0
H7463 H 0.49876 0.14438 0.24204 0.0
C7464 C 0.48525 0.13782 0.2341 0.0
C7465 C 0.4785 0.12901 0.23283 0.0
C7466 C 0.50617 0.11881 0.26159 0.0
C7467 C 0.49572 0.12805 0.24699 0.0
C7468 C 0.51339 0.11946 0.27009 0.0
C7469 C 0.51846 0.12916 0.27244 0.0
C7470 C 0.50407 0.12792 0.2554 0.0
C7471 C 0.51644 0.13792 0.2658 0.0
C7472 C 0.49384 0.13736 0.24108 0.0
C7473 C 0.48092 0.11964 0.23847 0.0
N7474 N 0.50939 0.1371 0.25766 0.0
N7475 N 0.48927 0.11944 0.24541 0.0
H7476 H 0.35841 0.23501 0.48055 0.0
H7477 H 0.39105 0.26427 0.52682 0.0
H7478 H 0.39047 0.22597 0.48902 0.0
H7479 H 0.35869 0.27157 0.51781 0.0
H7480 H 0.39212 0.25172 0.5118 0.0
H7481 H 0.35952 0.24995 0.49279 0.0
C7482 C 0.36574 0.23622 0.48495 0.0
C7483 C 0.37432 0.22916 0.48384 0.0
C7484 C 0.38484 0.25617 0.51307 0.0
C7485 C 0.37563 0.24629 0.49807 0.0
C7486 C 0.38424 0.26335 0.52161 0.0
C7487 C 0.37473 0.26889 0.52364 0.0
C7488 C 0.37588 0.25459 0.50652 0.0
C7489 C 0.36614 0.26739 0.51664 0.0
C7490 C 0.36638 0.24478 0.49196 0.0
C7491 C 0.38365 0.23121 0.48966 0.0
N7492 N 0.36691 0.26036 0.50848 0.0
N7493 N 0.38402 0.23953 0.49664 0.0
H7494 H 0.39506 0.01704 0.98004 0.0
H7495 H 0.36211 0.98756 0.02598 0.0
H7496 H 0.36274 0.02566 0.98797 0.0
H7497 H 0.39478 0.9808 0.01766 0.0
H7498 H 0.36113 1.00002 0.01088 0.0
H7499 H 0.39401 0.0022 0.99242 0.0
C7500 C 0.38769 0.01576 0.98434 0.0
C7501 C 0.37901 0.02267 0.98304 0.0
C7502 C 0.36846 0.99572 0.01232 0.0
C7503 C 0.37777 0.00566 0.99742 0.0
C7504 C 0.36902 0.98858 0.0209 0.0
C7505 C 0.37858 0.98321 0.02314 0.0
C7506 C 0.37751 0.99742 0.00594 0.0
C7507 C 0.38728 0.98484 0.01632 0.0
C7508 C 0.38709 0.00726 0.99143 0.0
C7509 C 0.36963 0.02053 0.98876 0.0
N7510 N 0.38655 0.99182 0.0081 0.0
N7511 N 0.36929 0.01227 0.99581 0.0
H7512 H 0.73118 0.26764 0.10627 0.0
H7513 H 0.77654 0.2378 0.13966 0.0
H7514 H 0.73876 0.27615 0.1387 0.0
H7515 H 0.76868 0.2314 0.10681 0.0
H7516 H 0.76145 0.25029 0.14055 0.0
H7517 H 0.74343 0.25272 0.10745 0.0
C7518 C 0.73538 0.26631 0.11369 0.0
C7519 C 0.73403 0.27322 0.12236 0.0
C7520 C 0.76299 0.24605 0.1332 0.0
C7521 C 0.74827 0.25612 0.12375 0.0
C7522 C 0.77157 0.2389 0.1327 0.0
C7523 C 0.77393 0.23364 0.12311 0.0
C7524 C 0.75675 0.24786 0.12407 0.0
C7525 C 0.76725 0.23537 0.11433 0.0
C7526 C 0.7424 0.25777 0.11437 0.0
C7527 C 0.7396 0.27103 0.13181 0.0
N7528 N 0.75903 0.24235 0.11501 0.0
N7529 N 0.7466 0.26272 0.13222 0.0
H7530 H 0.26837 0.52207 0.35542 0.0
H7531 H 0.22677 0.48824 0.38977 0.0
H7532 H 0.26442 0.52678 0.38923 0.0
H7533 H 0.23367 0.48296 0.35651 0.0
H7534 H 0.24125 0.50142 0.39041 0.0
H7535 H 0.25645 0.50685 0.35627 0.0
C7536 C 0.26503 0.51986 0.36306 0.0
C7537 C 0.26734 0.52576 0.37225 0.0
C7538 C 0.23965 0.49728 0.38301 0.0
C7539 C 0.25351 0.50828 0.3733 0.0
C7540 C 0.23141 0.48974 0.38265 0.0
C7541 C 0.22894 0.48456 0.37304 0.0
C7542 C 0.24542 0.49962 0.3737 0.0
C7543 C 0.2352 0.48682 0.36407 0.0
C7544 C 0.25821 0.51113 0.36355 0.0
C7545 C 0.26284 0.52245 0.38195 0.0
N7546 N 0.24306 0.49421 0.3646 0.0
N7547 N 0.25603 0.51398 0.38221 0.0
H7548 H 0.22683 0.76453 0.8627 0.0
H7549 H 0.26789 0.73033 0.89735 0.0
H7550 H 0.23337 0.76958 0.89608 0.0
H7551 H 0.26445 0.72592 0.86344 0.0
H7552 H 0.25599 0.74555 0.89645 0.0
H7553 H 0.24126 0.75128 0.86216 0.0
C7554 C 0.23138 0.76296 0.86987 0.0
C7555 C 0.22882 0.7681 0.87948 0.0
C7556 C 0.25785 0.74134 0.88916 0.0
C7557 C 0.24524 0.75296 0.87893 0.0
C7558 C 0.26466 0.73261 0.88968 0.0
C7559 C 0.26712 0.72678 0.88047 0.0
C7560 C 0.25329 0.74427 0.87937 0.0
C7561 C 0.26275 0.73018 0.87074 0.0
C7562 C 0.23959 0.75538 0.86956 0.0
C7563 C 0.23497 0.76575 0.88852 0.0
N7564 N 0.25595 0.73865 0.87045 0.0
N7565 N 0.2428 0.75833 0.88803 0.0
H7566 H 0.77641 0.01415 0.11247 0.0
H7567 H 0.73014 0.98467 0.14496 0.0
H7568 H 0.76783 0.02084 0.14508 0.0
H7569 H 0.73842 0.97604 0.11273 0.0
H7570 H 0.74254 0.9995 0.14403 0.0
H7571 H 0.76132 0.00169 0.11134 0.0
C7572 C 0.77128 0.01311 0.11933 0.0
C7573 C 0.77344 0.01846 0.12892 0.0
C7574 C 0.74163 0.99444 0.13711 0.0
C7575 C 0.75625 0.00426 0.12769 0.0
C7576 C 0.73452 0.98595 0.13763 0.0
C7577 C 0.73331 0.97903 0.12894 0.0
C7578 C 0.74772 0.99603 0.12786 0.0
C7579 C 0.73914 0.98117 0.11963 0.0
C7580 C 0.7627 0.00598 0.11869 0.0
C7581 C 0.76656 0.01681 0.13756 0.0
N7582 N 0.7462 0.98942 0.11936 0.0
N7583 N 0.75834 0.00984 0.13675 0.0
H7584 H 0.64031 0.47675 0.51491 0.0
H7585 H 0.60748 0.52231 0.48467 0.0
H7586 H 0.60742 0.48474 0.52095 0.0
H7587 H 0.64 0.51462 0.47661 0.0
H7588 H 0.60836 0.50991 0.49949 0.0
H7589 H 0.64136 0.49176 0.50233 0.0
C7590 C 0.63336 0.48173 0.5137 0.0
C7591 C 0.62373 0.47943 0.51891 0.0
C7592 C 0.61536 0.51094 0.49456 0.0
C7593 C 0.62487 0.49653 0.50458 0.0
C7594 C 0.61486 0.51806 0.48607 0.0
C7595 C 0.62365 0.51944 0.47932 0.0
C7596 C 0.62469 0.50502 0.49632 0.0
C7597 C 0.63303 0.51377 0.48161 0.0
C7598 C 0.63396 0.49026 0.50651 0.0
C7599 C 0.61498 0.48613 0.51704 0.0
N7600 N 0.63327 0.5067 0.48986 0.0
N7601 N 0.61575 0.4943 0.51002 0.0
H7602 H 0.64478 0.98592 0.22969 0.0
H7603 H 0.61179 0.01505 0.27584 0.0
H7604 H 0.61254 0.97708 0.23767 0.0
H7605 H 0.64458 0.02158 0.26783 0.0
H7606 H 0.61082 0.0027 0.26064 0.0
H7607 H 0.64372 1.00064 0.2422 0.0
C7608 C 0.63742 0.98713 0.23403 0.0
C7609 C 0.62877 0.98019 0.2327 0.0
C7610 C 0.61818 0.00693 0.26217 0.0
C7611 C 0.62752 0.99706 0.24725 0.0
C7612 C 0.61873 0.014 0.27081 0.0
C7613 C 0.62831 0.01928 0.27316 0.0
C7614 C 0.62727 0.00521 0.25585 0.0
C7615 C 0.63705 0.01761 0.26641 0.0
C7616 C 0.63682 0.99556 0.2412 0.0
C7617 C 0.61941 0.98224 0.23848 0.0
N7618 N 0.63633 0.01071 0.25813 0.0
N7619 N 0.61906 0.99043 0.24561 0.0
H7620 H 0.6128 0.77522 0.51446 0.0
H7621 H 0.64728 0.73451 0.47968 0.0
H7622 H 0.64635 0.7691 0.51881 0.0
H7623 H 0.61334 0.73799 0.47548 0.0
H7624 H 0.64647 0.74628 0.495 0.0
H7625 H 0.61216 0.76077 0.50123 0.0
C7626 C 0.61998 0.77075 0.51275 0.0
C7627 C 0.62967 0.77344 0.51767 0.0
C7628 C 0.63915 0.74445 0.49081 0.0
C7629 C 0.62901 0.75701 0.50256 0.0
C7630 C 0.63962 0.73772 0.48202 0.0
C7631 C 0.63037 0.73532 0.47623 0.0
C7632 C 0.62938 0.74899 0.49384 0.0
C7633 C 0.62066 0.73966 0.47972 0.0
C7634 C 0.61962 0.76254 0.50518 0.0
C7635 C 0.63873 0.7674 0.51515 0.0
N7636 N 0.62043 0.74639 0.48825 0.0
N7637 N 0.63818 0.75956 0.50774 0.0
H7638 H 0.52564 0.3893 0.26453 0.0
H7639 H 0.48045 0.35625 0.23387 0.0
H7640 H 0.52131 0.35525 0.2664 0.0
H7641 H 0.48724 0.38916 0.2266 0.0
H7642 H 0.4936 0.35681 0.24807 0.0
H7643 H 0.51002 0.39036 0.2527 0.0
C7644 C 0.52135 0.38208 0.26255 0.0
C7645 C 0.52483 0.37216 0.26638 0.0
C7646 C 0.4922 0.36396 0.24344 0.0
C7647 C 0.50701 0.37332 0.25297 0.0
C7648 C 0.48465 0.36365 0.23532 0.0
C7649 C 0.48282 0.37264 0.22895 0.0
C7650 C 0.49806 0.37331 0.24522 0.0
C7651 C 0.48844 0.38203 0.2313 0.0
C7652 C 0.51247 0.38269 0.25579 0.0
C7653 C 0.51899 0.36306 0.26357 0.0
N7654 N 0.49591 0.3821 0.23919 0.0
N7655 N 0.51042 0.36386 0.25704 0.0
H7656 H 0.47935 0.85713 0.73441 0.0
H7657 H 0.52438 0.88978 0.76552 0.0
H7658 H 0.48733 0.88962 0.72653 0.0
H7659 H 0.51591 0.85704 0.77172 0.0
H7660 H 0.50958 0.89091 0.75273 0.0
H7661 H 0.4913 0.85801 0.7496 0.0
C7662 C 0.48357 0.8645 0.73592 0.0
C7663 C 0.48241 0.87328 0.72912 0.0
C7664 C 0.51091 0.88353 0.757 0.0
C7665 C 0.49631 0.87432 0.74655 0.0
C7666 C 0.51932 0.88289 0.76432 0.0
C7667 C 0.52144 0.87327 0.76962 0.0
C7668 C 0.50458 0.8745 0.75503 0.0
C7669 C 0.51466 0.86459 0.76774 0.0
C7670 C 0.49042 0.865 0.74463 0.0
C7671 C 0.48802 0.88265 0.73157 0.0
N7672 N 0.50661 0.8654 0.76058 0.0
N7673 N 0.49484 0.8829 0.74002 0.0
H7674 H 0.60753 0.02235 0.98451 0.0
H7675 H 0.64062 0.97695 0.01467 0.0
H7676 H 0.63988 0.01442 0.97603 0.0
H7677 H 0.60796 0.98534 0.02138 0.0
H7678 H 0.64155 0.99183 0.00194 0.0
H7679 H 0.60861 0.01017 0.99951 0.0
C7680 C 0.61492 0.01809 0.98585 0.0
C7681 C 0.62359 0.01934 0.97893 0.0
C7682 C 0.63423 0.99046 0.0063 0.0
C7683 C 0.62487 0.00518 0.99613 0.0
C7684 C 0.63371 0.982 0.01358 0.0
C7685 C 0.62417 0.97984 0.01902 0.0
C7686 C 0.62516 0.99679 0.00451 0.0
C7687 C 0.61545 0.98662 0.01729 0.0
C7688 C 0.61553 0.01111 0.99444 0.0
C7689 C 0.63299 0.01367 0.98116 0.0
N7690 N 0.61615 0.99471 0.01017 0.0
N7691 N 0.63335 0.00673 0.98951 0.0
H7692 H 0.73734 0.4766 0.613 0.0
H7693 H 0.76719 0.52206 0.64628 0.0
H7694 H 0.73147 0.48402 0.64605 0.0
H7695 H 0.77531 0.51478 0.61368 0.0
H7696 H 0.75242 0.50961 0.64525 0.0
H7697 H 0.74966 0.49183 0.61204 0.0
C7698 C 0.73853 0.48151 0.62 0.0
C7699 C 0.73345 0.47898 0.62965 0.0
C7700 C 0.75735 0.51075 0.63827 0.0
C7701 C 0.74747 0.49633 0.62862 0.0
C7702 C 0.76581 0.51789 0.63885 0.0
C7703 C 0.77256 0.51939 0.63009 0.0
C7704 C 0.75564 0.50491 0.62887 0.0
C7705 C 0.7703 0.51383 0.62064 0.0
C7706 C 0.74557 0.49017 0.61946 0.0
C7707 C 0.73528 0.48558 0.63847 0.0
N7708 N 0.76209 0.50672 0.62031 0.0
N7709 N 0.74216 0.49388 0.63775 0.0
H7710 H 0.22671 0.9877 0.8903 0.0
H7711 H 0.27244 0.01756 0.85739 0.0
H7712 H 0.23486 0.98125 0.85754 0.0
H7713 H 0.26469 0.02584 0.88984 0.0
H7714 H 0.26004 0.00273 0.85835 0.0
H7715 H 0.24176 1.00021 0.89131 0.0
C7716 C 0.23174 0.9888 0.88338 0.0
C7717 C 0.22947 0.9835 0.87379 0.0
C7718 C 0.26107 0.00771 0.86532 0.0
C7719 C 0.24662 0.99776 0.87487 0.0
C7720 C 0.26818 0.0162 0.86477 0.0
C7721 C 0.26953 0.02302 0.87351 0.0
C7722 C 0.25513 0.00602 0.87465 0.0
C7723 C 0.26386 0.02079 0.8829 0.0
C7724 C 0.2403 0.99596 0.88395 0.0
C7725 C 0.23623 0.98524 0.86506 0.0
N7726 N 0.25679 0.01254 0.88319 0.0
N7727 N 0.24442 0.99224 0.8658 0.0
H7728 H 0.36194 0.4876 0.52653 0.0
H7729 H 0.39546 0.51727 0.48112 0.0
H7730 H 0.39472 0.48091 0.5186 0.0
H7731 H 0.36311 0.52599 0.4888 0.0
H7732 H 0.39424 0.50239 0.49343 0.0
H7733 H 0.36115 0.50018 0.51151 0.0
C7734 C 0.36891 0.48866 0.52155 0.0
C7735 C 0.37844 0.48328 0.52388 0.0
C7736 C 0.38735 0.50748 0.49241 0.0
C7737 C 0.37761 0.4976 0.50677 0.0
C7738 C 0.38805 0.516 0.48535 0.0
C7739 C 0.37941 0.52295 0.484 0.0
C7740 C 0.37798 0.50589 0.4983 0.0
C7741 C 0.36997 0.52083 0.48963 0.0
C7742 C 0.36847 0.49586 0.51301 0.0
C7743 C 0.38723 0.48496 0.51719 0.0
N7744 N 0.36954 0.51254 0.49665 0.0
N7745 N 0.38661 0.49199 0.50902 0.0
H7746 H 0.51485 0.61316 0.77597 0.0
H7747 H 0.48468 0.64595 0.73033 0.0
H7748 H 0.52035 0.64625 0.76848 0.0
H7749 H 0.4767 0.61339 0.73796 0.0
H7750 H 0.4994 0.64514 0.74285 0.0
H7751 H 0.50245 0.61207 0.76082 0.0
C7752 C 0.51356 0.62014 0.77107 0.0
C7753 C 0.51857 0.62984 0.77355 0.0
C7754 C 0.49451 0.63812 0.74178 0.0
C7755 C 0.50444 0.62866 0.75629 0.0
C7756 C 0.48608 0.63858 0.7346 0.0
C7757 C 0.47937 0.62976 0.73316 0.0
C7758 C 0.49626 0.6288 0.74771 0.0
C7759 C 0.48166 0.62039 0.73885 0.0
C7760 C 0.50647 0.61952 0.76245 0.0
C7761 C 0.5166 0.63864 0.76695 0.0
N7762 N 0.48986 0.62019 0.74598 0.0
N7763 N 0.50968 0.63784 0.75869 0.0
H7764 H 0.35707 0.51713 0.27137 0.0
H7765 H 0.39028 0.48759 0.22571 0.0
H7766 H 0.38948 0.52566 0.26376 0.0
H7767 H 0.35773 0.48051 0.2342 0.0
H7768 H 0.39121 0.50009 0.24079 0.0
H7769 H 0.35825 0.50221 0.25912 0.0
C7770 C 0.36449 0.51581 0.26716 0.0
C7771 C 0.37316 0.52272 0.26851 0.0
C7772 C 0.38392 0.4957 0.23939 0.0
C7773 C 0.37454 0.50562 0.25427 0.0
C7774 C 0.38339 0.48855 0.23082 0.0
C7775 C 0.37387 0.48309 0.22863 0.0
C7776 C 0.37487 0.49733 0.2458 0.0
C7777 C 0.36519 0.48463 0.23549 0.0
C7778 C 0.36516 0.50726 0.26014 0.0
C7779 C 0.3826 0.52053 0.26292 0.0
N7780 N 0.36589 0.49163 0.24369 0.0
N7781 N 0.38301 0.51223 0.25592 0.0
H7782 H 0.35712 0.73606 0.98161 0.0
H7783 H 0.3906 0.76541 0.02719 0.0
H7784 H 0.38959 0.72753 0.98897 0.0
H7785 H 0.35806 0.77265 0.01882 0.0
H7786 H 0.39144 0.75296 0.01208 0.0
H7787 H 0.35838 0.75095 0.9939 0.0
C7788 C 0.36457 0.73738 0.98577 0.0
C7789 C 0.37323 0.73047 0.98434 0.0
C7790 C 0.38417 0.75737 0.0135 0.0
C7791 C 0.37471 0.74753 0.99863 0.0
C7792 C 0.3837 0.7645 0.0221 0.0
C7793 C 0.37421 0.76999 0.02433 0.0
C7794 C 0.37509 0.7558 0.00712 0.0
C7795 C 0.3655 0.76851 0.01749 0.0
C7796 C 0.36529 0.7459 0.99281 0.0
C7797 C 0.38272 0.73265 0.98987 0.0
N7798 N 0.36614 0.76153 0.00927 0.0
N7799 N 0.38317 0.74093 0.99689 0.0
H7800 H 0.73762 0.77695 0.63987 0.0
H7801 H 0.76889 0.7328 0.60601 0.0
H7802 H 0.73477 0.77237 0.60592 0.0
H7803 H 0.77608 0.73917 0.63902 0.0
H7804 H 0.75439 0.74558 0.60684 0.0
H7805 H 0.74984 0.76163 0.64064 0.0
C7806 C 0.73946 0.77266 0.63261 0.0
C7807 C 0.73524 0.77599 0.6228 0.0
C7808 C 0.75907 0.74417 0.61395 0.0
C7809 C 0.74914 0.75853 0.62362 0.0
C7810 C 0.76737 0.73684 0.61349 0.0
C7811 C 0.77379 0.73498 0.62243 0.0
C7812 C 0.75715 0.74982 0.62342 0.0
C7813 C 0.77134 0.74039 0.63192 0.0
C7814 C 0.74645 0.76395 0.63305 0.0
C7815 C 0.7379 0.77017 0.61365 0.0
N7816 N 0.76327 0.74766 0.63215 0.0
N7817 N 0.74468 0.76178 0.61428 0.0
H7818 H 0.26514 0.2267 0.36343 0.0
H7819 H 0.23045 0.26789 0.39744 0.0
H7820 H 0.26959 0.23321 0.3969 0.0
H7821 H 0.22653 0.2643 0.36348 0.0
H7822 H 0.24565 0.25594 0.39682 0.0
H7823 H 0.2519 0.24113 0.36266 0.0
C7824 C 0.26344 0.23124 0.37057 0.0
C7825 C 0.26842 0.22868 0.38027 0.0
C7826 C 0.24155 0.25778 0.38946 0.0
C7827 C 0.25329 0.2451 0.37946 0.0
C7828 C 0.23283 0.26462 0.38981 0.0
C7829 C 0.22715 0.26705 0.3805 0.0
C7830 C 0.24462 0.25318 0.37974 0.0
C7831 C 0.23068 0.26263 0.37085 0.0
C7832 C 0.25587 0.23945 0.37013 0.0
C7833 C 0.2659 0.23481 0.38927 0.0
N7834 N 0.23914 0.2558 0.37072 0.0
N7835 N 0.2585 0.24265 0.38865 0.0
H7836 H 0.61258 0.47563 0.73816 0.0
H7837 H 0.64629 0.52012 0.76915 0.0
H7838 H 0.64666 0.47964 0.73606 0.0
H7839 H 0.61306 0.51431 0.77577 0.0
H7840 H 0.64565 0.50689 0.75504 0.0
H7841 H 0.61176 0.49115 0.75011 0.0
C7842 C 0.61986 0.47983 0.74012 0.0
C7843 C 0.62972 0.47629 0.73617 0.0
C7844 C 0.63846 0.50852 0.75951 0.0
C7845 C 0.62883 0.494 0.74975 0.0
C7846 C 0.63881 0.51611 0.76758 0.0
C7847 C 0.62974 0.51827 0.77373 0.0
C7848 C 0.62897 0.50292 0.75755 0.0
C7849 C 0.62025 0.51287 0.77124 0.0
C7850 C 0.61939 0.48865 0.74696 0.0
C7851 C 0.6389 0.48201 0.73898 0.0
N7852 N 0.62013 0.50536 0.76339 0.0
N7853 N 0.63823 0.49052 0.74559 0.0
H7854 H 0.61238 0.23725 0.97759 0.0
H7855 H 0.64663 0.2719 0.01854 0.0
H7856 H 0.64554 0.23188 0.98492 0.0
H7857 H 0.61278 0.27642 0.0146 0.0
H7858 H 0.64578 0.25641 0.00698 0.0
H7859 H 0.61169 0.2507 0.99183 0.0
C7860 C 0.61946 0.23878 0.98228 0.0
C7861 C 0.62906 0.2335 0.97999 0.0
C7862 C 0.63849 0.26071 0.00867 0.0
C7863 C 0.62835 0.24887 0.99618 0.0
C7864 C 0.63898 0.26959 0.01527 0.0
C7865 C 0.62978 0.27552 0.01748 0.0
C7866 C 0.62874 0.25772 0.00406 0.0
C7867 C 0.62007 0.27207 0.01308 0.0
C7868 C 0.61907 0.24647 0.99038 0.0
C7869 C 0.63799 0.23581 0.9863 0.0
N7870 N 0.61982 0.26345 0.00647 0.0
N7871 N 0.63743 0.24335 0.99402 0.0
H7872 H 0.99103 0.064 0.40203 0.0
H7873 H 0.0185 0.12054 0.41062 0.0
H7874 H 0.98225 0.09092 0.38246 0.0
H7875 H 0.01464 0.09684 0.43526 0.0
H7876 H 0.00733 0.10959 0.39876 0.0
H7877 H 0.0024 0.07557 0.41256 0.0
C7878 C 0.99154 0.07234 0.39986 0.0
C7879 C 0.98557 0.07649 0.39136 0.0
C7880 C 0.00892 0.10687 0.40679 0.0
C7881 C 0.99865 0.08985 0.40353 0.0
C7882 C 0.01528 0.11309 0.41356 0.0
C7883 C 0.01753 0.10961 0.42396 0.0
C7884 C 0.005 0.09704 0.41042 0.0
C7885 C 0.01314 0.09989 0.42734 0.0
C7886 C 0.99801 0.07897 0.40595 0.0
C7887 C 0.98666 0.08739 0.38897 0.0
N7888 N 0.00718 0.09394 0.42058 0.0
N7889 N 0.99307 0.09372 0.39505 0.0
H7890 H 0.90341 0.26209 0.68881 0.0
H7891 H 0.91129 0.23416 0.63243 0.0
H7892 H 0.88307 0.27015 0.66225 0.0
H7893 H 0.9364 0.23872 0.65551 0.0
H7894 H 0.89952 0.24532 0.64347 0.0
H7895 H 0.914 0.25092 0.6771 0.0
C7896 C 0.90109 0.26145 0.68052 0.0
C7897 C 0.89234 0.26715 0.67652 0.0
C7898 C 0.90764 0.24389 0.64603 0.0
C7899 C 0.90457 0.25431 0.66299 0.0
C7900 C 0.91435 0.23754 0.63975 0.0
C7901 C 0.92486 0.23547 0.64304 0.0
C7902 C 0.91143 0.24801 0.65572 0.0
C7903 C 0.92839 0.24007 0.65261 0.0
C7904 C 0.90721 0.25511 0.67382 0.0
C7905 C 0.88977 0.26594 0.66567 0.0
N7906 N 0.92168 0.24601 0.65862 0.0
N7907 N 0.89587 0.25964 0.65926 0.0
H7908 H 0.76972 0.15945 0.88226 0.0
H7909 H 0.73888 0.15315 0.93726 0.0
H7910 H 0.76311 0.1854 0.90387 0.0
H7911 H 0.73291 0.13138 0.91129 0.0
H7912 H 0.7502 0.16368 0.92564 0.0
H7913 H 0.75814 0.14789 0.89308 0.0
C7914 C 0.7658 0.16274 0.8892 0.0
C7915 C 0.76743 0.17342 0.89216 0.0
C7916 C 0.74643 0.1566 0.92246 0.0
C7917 C 0.7544 0.16023 0.9046 0.0
C7918 C 0.74 0.15052 0.92912 0.0
C7919 C 0.73486 0.14137 0.92526 0.0
C7920 C 0.74789 0.15351 0.91182 0.0
C7921 C 0.73668 0.1384 0.9146 0.0
C7922 C 0.7592 0.15614 0.89536 0.0
C7923 C 0.76213 0.17724 0.90124 0.0
N7924 N 0.74307 0.14446 0.90823 0.0
N7925 N 0.75597 0.17064 0.90716 0.0
H7926 H 0.84147 0.01813 0.13169 0.0
H7927 H 0.84929 0.98925 0.18768 0.0
H7928 H 0.81636 0.01331 0.15472 0.0
H7929 H 0.87031 0.98268 0.16124 0.0
H7930 H 0.8385 1.00039 0.17612 0.0
H7931 H 0.85327 0.00694 0.14264 0.0
C7932 C 0.83841 0.01468 0.13899 0.0
C7933 C 0.8279 0.01669 0.14229 0.0
C7934 C 0.84548 0.99653 0.17283 0.0
C7935 C 0.84137 0.0041 0.15487 0.0
C7936 C 0.85171 0.9902 0.17945 0.0
C7937 C 0.86072 0.98494 0.17544 0.0
C7938 C 0.84827 0.99775 0.16208 0.0
C7939 C 0.86341 0.98655 0.16468 0.0
C7940 C 0.84515 0.00831 0.14522 0.0
C7941 C 0.82438 0.01201 0.15182 0.0
N7942 N 0.8572 0.99282 0.15835 0.0
N7943 N 0.83111 0.00603 0.15779 0.0
H7944 H 0.01343 0.15343 0.81493 0.0
H7945 H 0.98446 0.16108 0.87092 0.0
H7946 H 0.01979 0.13225 0.8413 0.0
H7947 H 0.98913 0.1862 0.84787 0.0
H7948 H 0.99566 0.14932 0.85995 0.0
H7949 H 0.00226 0.1642 0.82648 0.0
C7950 C 0.01243 0.15097 0.82314 0.0
C7951 C 0.01764 0.14192 0.82714 0.0
C7952 C 0.99425 0.15743 0.85737 0.0
C7953 C 0.00479 0.15435 0.8405 0.0
C7954 C 0.98788 0.16415 0.86362 0.0
C7955 C 0.98582 0.17466 0.86032 0.0
C7956 C 0.99842 0.16122 0.8477 0.0
C7957 C 0.99046 0.17819 0.85077 0.0
C7958 C 0.00608 0.15719 0.82976 0.0
C7959 C 0.01596 0.13918 0.83788 0.0
N7960 N 0.99645 0.17147 0.84479 0.0
N7961 N 0.00967 0.14538 0.84421 0.0
H7962 H 0.84267 0.23252 0.1204 0.0
H7963 H 0.84922 0.2635 0.06551 0.0
H7964 H 0.81674 0.23966 0.09894 0.0
H7965 H 0.8711 0.26917 0.09146 0.0
H7966 H 0.83861 0.25224 0.07712 0.0
H7967 H 0.85437 0.24399 0.10959 0.0
C7968 C 0.83942 0.23654 0.11349 0.0
C7969 C 0.8287 0.23508 0.11057 0.0
C7970 C 0.84574 0.25593 0.0803 0.0
C7971 C 0.84204 0.24797 0.09815 0.0
C7972 C 0.85187 0.26233 0.07365 0.0
C7973 C 0.86107 0.26737 0.07751 0.0
C7974 C 0.84882 0.25441 0.09093 0.0
C7975 C 0.86404 0.26549 0.08816 0.0
C7976 C 0.84609 0.24306 0.10735 0.0
C7977 C 0.82492 0.24049 0.10154 0.0
N7978 N 0.85793 0.25913 0.09452 0.0
N7979 N 0.83159 0.24659 0.09562 0.0
H7980 H 0.76317 0.06444 0.34792 0.0
H7981 H 0.73396 0.12032 0.3405 0.0
H7982 H 0.76917 0.09063 0.36941 0.0
H7983 H 0.73911 0.09761 0.31517 0.0
H7984 H 0.74515 0.10931 0.35224 0.0
H7985 H 0.75212 0.07606 0.33709 0.0
C7986 C 0.76211 0.07263 0.35043 0.0
C7987 C 0.76718 0.07656 0.35959 0.0
C7988 C 0.74385 0.10682 0.34409 0.0
C7989 C 0.75448 0.08999 0.3471 0.0
C7990 C 0.73749 0.11309 0.33738 0.0
C7991 C 0.73556 0.10989 0.32682 0.0
C7992 C 0.74815 0.09724 0.34023 0.0
C7993 C 0.74034 0.10043 0.32322 0.0
C7994 C 0.75584 0.07929 0.34418 0.0
C7995 C 0.76545 0.08727 0.36239 0.0
N7996 N 0.74631 0.09443 0.32993 0.0
N7997 N 0.75923 0.09363 0.35616 0.0
H7998 H 0.88251 0.98416 0.59192 0.0
H7999 H 0.93905 0.01164 0.60051 0.0
H8000 H 0.9061 0.98825 0.56721 0.0
H8001 H 0.91219 0.02018 0.62026 0.0
H8002 H 0.92746 1.00032 0.58993 0.0
H8003 H 0.89351 0.99521 0.60383 0.0
C8004 C 0.88994 0.98741 0.58898 0.0
C8005 C 0.89338 0.98526 0.57853 0.0
C8006 C 0.92409 0.00464 0.59659 0.0
C8007 C 0.90601 0.99766 0.59213 0.0
C8008 C 0.93072 0.01108 0.6027 0.0
C8009 C 0.9266 0.01697 0.61127 0.0
C8010 C 0.91321 0.00396 0.59905 0.0
C8011 C 0.91571 0.01583 0.6137 0.0
C8012 C 0.89619 0.9937 0.59577 0.0
C8013 C 0.90308 0.98968 0.57516 0.0
N8014 N 0.90937 0.00946 0.6076 0.0
N8015 N 0.90906 0.99557 0.58195 0.0
H8016 H 0.40331 0.98984 0.06519 0.0
H8017 H 0.41098 0.01908 0.12101 0.0
H8018 H 0.38235 0.98319 0.09166 0.0
H8019 H 0.43615 0.01406 0.0981 0.0
H8020 H 0.39921 0.0078 0.11011 0.0
H8021 H 0.41401 1.00111 0.0767 0.0
C8022 C 0.40088 0.9908 0.07342 0.0
C8023 C 0.39192 0.98547 0.07746 0.0
C8024 C 0.40733 0.00915 0.10755 0.0
C8025 C 0.40427 0.99844 0.09077 0.0
C8026 C 0.41406 0.01557 0.11376 0.0
C8027 C 0.42458 0.01755 0.11047 0.0
C8028 C 0.41113 0.00486 0.09794 0.0
C8029 C 0.42812 0.01279 0.10099 0.0
C8030 C 0.40706 0.99721 0.08002 0.0
C8031 C 0.38922 0.9871 0.08822 0.0
N8032 N 0.4214 0.00677 0.09505 0.0
N8033 N 0.39538 0.99345 0.09452 0.0
H8034 H 0.01275 0.65256 0.31537 0.0
H8035 H 0.98341 0.66 0.37113 0.0
H8036 H 0.0196 0.6316 0.34178 0.0
H8037 H 0.98874 0.68533 0.34846 0.0
H8038 H 0.99474 0.64827 0.36023 0.0
H8039 H 0.00147 0.6632 0.32695 0.0
C8040 C 0.01183 0.65012 0.3236 0.0
C8041 C 0.01722 0.64117 0.3276 0.0
C8042 C 0.99345 0.65642 0.35773 0.0
C8043 C 0.00424 0.65345 0.34098 0.0
C8044 C 0.987 0.66312 0.36393 0.0
C8045 C 0.98509 0.67368 0.36071 0.0
C8046 C 0.99783 0.66028 0.34818 0.0
C8047 C 0.98995 0.67728 0.3513 0.0
C8048 C 0.00542 0.65626 0.33023 0.0
C8049 C 0.01565 0.63845 0.33836 0.0
N8050 N 0.99599 0.67058 0.34536 0.0
N8051 N 0.00929 0.64458 0.3447 0.0
H8052 H 0.34198 0.23317 0.62144 0.0
H8053 H 0.34931 0.26273 0.56574 0.0
H8054 H 0.31658 0.23868 0.59889 0.0
H8055 H 0.37078 0.26878 0.59195 0.0
H8056 H 0.33856 0.25158 0.57733 0.0
H8057 H 0.35375 0.2444 0.61048 0.0
C8058 C 0.33885 0.23678 0.61425 0.0
C8059 C 0.32826 0.23495 0.61108 0.0
C8060 C 0.34563 0.25533 0.58057 0.0
C8061 C 0.3417 0.24759 0.59849 0.0
C8062 C 0.35184 0.26166 0.57392 0.0
C8063 C 0.36097 0.26678 0.57787 0.0
C8064 C 0.34855 0.25395 0.59126 0.0
C8065 C 0.36378 0.26503 0.58857 0.0
C8066 C 0.34557 0.24317 0.60802 0.0
C8067 C 0.32465 0.23984 0.60169 0.0
N8068 N 0.35759 0.25875 0.59492 0.0
N8069 N 0.33137 0.24583 0.59571 0.0
H8070 H 0.76297 0.56467 0.84965 0.0
H8071 H 0.73408 0.62056 0.84149 0.0
H8072 H 0.7705 0.59147 0.86988 0.0
H8073 H 0.73875 0.59729 0.81659 0.0
H8074 H 0.74542 0.60976 0.85331 0.0
H8075 H 0.75155 0.57609 0.83902 0.0
C8076 C 0.76217 0.57295 0.85194 0.0
C8077 C 0.7678 0.57711 0.86066 0.0
C8078 C 0.74398 0.6071 0.84523 0.0
C8079 C 0.75465 0.59031 0.84839 0.0
C8080 C 0.73752 0.61324 0.83849 0.0
C8081 C 0.73544 0.60983 0.82802 0.0
C8082 C 0.74819 0.59742 0.84151 0.0
C8083 C 0.74011 0.60028 0.82457 0.0
C8084 C 0.75567 0.57949 0.8458 0.0
C8085 C 0.76636 0.58794 0.86319 0.0
N8086 N 0.74617 0.5944 0.8313 0.0
N8087 N 0.75991 0.59419 0.85707 0.0
H8088 H 0.40298 0.2629 0.18674 0.0
H8089 H 0.40952 0.2326 0.13135 0.0
H8090 H 0.38125 0.26873 0.1607 0.0
H8091 H 0.43519 0.23818 0.15357 0.0
H8092 H 0.39796 0.24406 0.14228 0.0
H8093 H 0.41356 0.25157 0.17517 0.0
C8094 C 0.40036 0.26175 0.1786 0.0
C8095 C 0.39121 0.26685 0.17469 0.0
C8096 C 0.40615 0.2428 0.14468 0.0
C8097 C 0.40342 0.25381 0.16132 0.0
C8098 C 0.41275 0.23627 0.13846 0.0
C8099 C 0.42335 0.23439 0.14155 0.0
C8100 C 0.41015 0.2473 0.15411 0.0
C8101 C 0.42709 0.23936 0.15084 0.0
C8102 C 0.40647 0.25531 0.17197 0.0
C8103 C 0.38827 0.26499 0.16404 0.0
N8104 N 0.42049 0.24549 0.15681 0.0
N8105 N 0.39436 0.25861 0.1577 0.0
H8106 H 0.74166 0.65231 0.43727 0.0
H8107 H 0.76921 0.66057 0.38072 0.0
H8108 H 0.733 0.63247 0.41051 0.0
H8109 H 0.76509 0.68541 0.40418 0.0
H8110 H 0.75807 0.64874 0.39174 0.0
H8111 H 0.75298 0.66281 0.42562 0.0
C8112 C 0.74219 0.65008 0.42895 0.0
C8113 C 0.73627 0.64151 0.42487 0.0
C8114 C 0.75959 0.65681 0.39439 0.0
C8115 C 0.74929 0.65364 0.41141 0.0
C8116 C 0.76593 0.66356 0.38812 0.0
C8117 C 0.76811 0.67401 0.39152 0.0
C8118 C 0.75561 0.66051 0.40417 0.0
C8119 C 0.76365 0.67745 0.40119 0.0
C8120 C 0.74863 0.65614 0.42228 0.0
C8121 C 0.73737 0.63904 0.41399 0.0
N8122 N 0.75772 0.6707 0.40718 0.0
N8123 N 0.74376 0.64509 0.40761 0.0
H8124 H 0.37117 0.98354 0.66076 0.0
H8125 H 0.31564 0.01347 0.65387 0.0
H8126 H 0.34884 0.98914 0.68632 0.0
H8127 H 0.34176 0.01956 0.63231 0.0
H8128 H 0.32725 0.00224 0.66452 0.0
H8129 H 0.36025 0.99494 0.64911 0.0
C8130 C 0.36404 0.9872 0.66394 0.0
C8131 C 0.36092 0.98534 0.67454 0.0
C8132 C 0.33046 0.00601 0.65745 0.0
C8133 C 0.34837 0.99817 0.66125 0.0
C8134 C 0.32381 0.01239 0.65131 0.0
C8135 C 0.32772 0.01754 0.64218 0.0
C8136 C 0.34114 0.00462 0.65447 0.0
C8137 C 0.33841 0.01578 0.63931 0.0
C8138 C 0.35783 0.99369 0.6573 0.0
C8139 C 0.3516 0.99031 0.67823 0.0
N8140 N 0.34477 0.00945 0.64544 0.0
N8141 N 0.34564 0.99639 0.67159 0.0
H8142 H 0.99076 0.56556 0.90442 0.0
H8143 H 0.01968 0.62161 0.9118 0.0
H8144 H 0.98403 0.5919 0.88333 0.0
H8145 H 0.01484 0.59878 0.93709 0.0
H8146 H 0.00849 0.61056 0.90008 0.0
H8147 H 0.00199 0.57718 0.91508 0.0
C8148 C 0.99169 0.57378 0.90196 0.0
C8149 C 0.98636 0.57776 0.89297 0.0
C8150 C 0.00986 0.60805 0.90822 0.0
C8151 C 0.99927 0.59118 0.90526 0.0
C8152 C 0.01623 0.61434 0.91491 0.0
C8153 C 0.01822 0.61113 0.92546 0.0
C8154 C 0.00564 0.59843 0.91208 0.0
C8155 C 0.01354 0.60162 0.92905 0.0
C8156 C 0.99808 0.58044 0.90811 0.0
C8157 C 0.98795 0.5885 0.89022 0.0
N8158 N 0.00757 0.5956 0.92236 0.0
N8159 N 0.99427 0.59486 0.89635 0.0
H8160 H 0.06541 0.40305 0.98957 0.0
H8161 H 0.12099 0.40996 0.01943 0.0
H8162 H 0.09161 0.38166 0.98325 0.0
H8163 H 0.0986 0.43549 0.01391 0.0
H8164 H 0.11004 0.3983 0.00807 0.0
H8165 H 0.07698 0.41362 1.00091 0.0
C8166 C 0.07358 0.4005 0.99062 0.0
C8167 C 0.07753 0.39145 0.98537 0.0
C8168 C 0.10761 0.40648 0.00933 0.0
C8169 C 0.09091 0.40365 0.99841 0.0
C8170 C 0.11384 0.41314 0.01579 0.0
C8171 C 0.11071 0.42373 0.01765 0.0
C8172 C 0.09813 0.41043 0.00487 0.0
C8173 C 0.10136 0.42741 0.01273 0.0
C8174 C 0.08022 0.40661 0.99706 0.0
C8175 C 0.08823 0.3886 0.9871 0.0
N8176 N 0.09539 0.42076 0.00667 0.0
N8177 N 0.09457 0.39469 0.99349 0.0
H8178 H 0.57214 0.3659 0.25277 0.0
H8179 H 0.61595 0.32315 0.24886 0.0
H8180 H 0.59351 0.36196 0.27939 0.0
H8181 H 0.61197 0.3448 0.22249 0.0
H8182 H 0.60634 0.33574 0.26037 0.0
H8183 H 0.58512 0.35678 0.24129 0.0
C8184 C 0.57963 0.36324 0.25615 0.0
C8185 C 0.5818 0.36469 0.26701 0.0
C8186 C 0.60774 0.33778 0.2521 0.0
C8187 C 0.59642 0.35403 0.25407 0.0
C8188 C 0.61318 0.33062 0.24555 0.0
C8189 C 0.61477 0.33299 0.23475 0.0
C8190 C 0.60354 0.34716 0.24771 0.0
C8191 C 0.61098 0.34275 0.23081 0.0
C8192 C 0.58701 0.35808 0.24961 0.0
C8193 C 0.59159 0.36106 0.27103 0.0
N8194 N 0.60532 0.34939 0.23724 0.0
N8195 N 0.59846 0.35568 0.2646 0.0
H8196 H 0.66107 0.87162 0.48336 0.0
H8197 H 0.65128 0.81523 0.5104 0.0
H8198 H 0.68548 0.84785 0.48815 0.0
H8199 H 0.63273 0.84246 0.52035 0.0
H8200 H 0.66187 0.82677 0.49908 0.0
H8201 H 0.64889 0.86089 0.49444 0.0
C8202 C 0.66389 0.86421 0.48677 0.0
C8203 C 0.67433 0.86064 0.48481 0.0
C8204 C 0.65546 0.83024 0.50371 0.0
C8205 C 0.66043 0.84832 0.4972 0.0
C8206 C 0.64934 0.82363 0.51016 0.0
C8207 C 0.64114 0.82787 0.51646 0.0
C8208 C 0.65336 0.8412 0.50342 0.0
C8209 C 0.63902 0.83886 0.51568 0.0
C8210 C 0.65694 0.85812 0.49307 0.0
C8211 C 0.67754 0.85097 0.48943 0.0
N8212 N 0.64513 0.84518 0.50928 0.0
N8213 N 0.67061 0.84514 0.4953 0.0
H8214 H 0.18731 0.90354 0.7631 0.0
H8215 H 0.13171 0.91101 0.73345 0.0
H8216 H 0.16091 0.88243 0.76954 0.0
H8217 H 0.15433 0.93635 0.73891 0.0
H8218 H 0.14257 0.89926 0.74481 0.0
H8219 H 0.17579 0.91425 0.75184 0.0
C8220 C 0.1791 0.90108 0.7621 0.0
C8221 C 0.17508 0.89207 0.76735 0.0
C8222 C 0.14507 0.90742 0.74353 0.0
C8223 C 0.16177 0.90444 0.7544 0.0
C8224 C 0.13889 0.91413 0.73707 0.0
C8225 C 0.14211 0.92469 0.73519 0.0
C8226 C 0.1546 0.91128 0.74797 0.0
C8227 C 0.1515 0.92829 0.7401 0.0
C8228 C 0.1725 0.90727 0.7557 0.0
C8229 C 0.16434 0.88934 0.76568 0.0
N8230 N 0.15743 0.92159 0.74615 0.0
N8231 N 0.15803 0.89551 0.75933 0.0
H8232 H 0.56523 0.40398 0.49012 0.0
H8233 H 0.62086 0.41109 0.5198 0.0
H8234 H 0.59143 0.38258 0.4838 0.0
H8235 H 0.59857 0.43664 0.51396 0.0
H8236 H 0.60988 0.39935 0.50855 0.0
H8237 H 0.57685 0.41462 0.50135 0.0
C8238 C 0.57341 0.40144 0.49115 0.0
C8239 C 0.57735 0.39237 0.48593 0.0
C8240 C 0.60748 0.40755 0.50972 0.0
C8241 C 0.59077 0.40465 0.49884 0.0
C8242 C 0.61373 0.41425 0.51612 0.0
C8243 C 0.61064 0.42488 0.51786 0.0
C8244 C 0.59802 0.41148 0.50521 0.0
C8245 C 0.60131 0.42854 0.51288 0.0
C8246 C 0.58007 0.40759 0.49753 0.0
C8247 C 0.58806 0.38953 0.48763 0.0
N8248 N 0.59532 0.42184 0.50689 0.0
N8249 N 0.59442 0.39566 0.49396 0.0
H8250 H 0.16123 0.8719 0.98328 0.0
H8251 H 0.15278 0.81623 0.01257 0.0
H8252 H 0.18603 0.84858 0.98824 0.0
H8253 H 0.13251 0.84312 0.01968 0.0
H8254 H 0.16351 0.82755 1.00113 0.0
H8255 H 0.14932 0.86121 0.99464 0.0
C8256 C 0.16419 0.8646 0.98679 0.0
C8257 C 0.17466 0.86114 0.98478 0.0
C8258 C 0.15671 0.83099 0.00517 0.0
C8259 C 0.16106 0.84886 0.99755 0.0
C8260 C 0.15051 0.82451 0.01168 0.0
C8261 C 0.14174 0.82872 0.01719 0.0
C8262 C 0.15413 0.84181 0.00402 0.0
C8263 C 0.13923 0.83954 0.01563 0.0
C8264 C 0.1574 0.85852 0.99325 0.0
C8265 C 0.17806 0.8516 0.98954 0.0
N8266 N 0.14541 0.84573 0.00918 0.0
N8267 N 0.17127 0.84579 0.9956 0.0
H8268 H 0.65369 0.93806 0.23875 0.0
H8269 H 0.66086 0.88235 0.26833 0.0
H8270 H 0.63223 0.91186 0.23271 0.0
H8271 H 0.68627 0.90495 0.26312 0.0
H8272 H 0.64918 0.89332 0.25704 0.0
H8273 H 0.66442 0.92649 0.24996 0.0
C8274 C 0.65117 0.92988 0.23983 0.0
C8275 C 0.64204 0.92593 0.23471 0.0
C8276 C 0.65734 0.89579 0.25835 0.0
C8277 C 0.65442 0.91256 0.24758 0.0
C8278 C 0.66401 0.88955 0.26477 0.0
C8279 C 0.67457 0.89273 0.26671 0.0
C8280 C 0.66123 0.90534 0.254 0.0
C8281 C 0.67821 0.90214 0.26188 0.0
C8282 C 0.65736 0.92325 0.2462 0.0
C8283 C 0.63922 0.91523 0.23647 0.0
N8284 N 0.67154 0.90813 0.25585 0.0
N8285 N 0.64539 0.9089 0.24277 0.0
H8286 H 0.06604 0.34874 0.76338 0.0
H8287 H 0.12121 0.34132 0.73309 0.0
H8288 H 0.09224 0.37026 0.76928 0.0
H8289 H 0.09926 0.31573 0.73997 0.0
H8290 H 0.11042 0.3532 0.74438 0.0
H8291 H 0.07761 0.33795 0.75226 0.0
C8292 C 0.07422 0.35127 0.76229 0.0
C8293 C 0.07817 0.36042 0.76736 0.0
C8294 C 0.10807 0.34496 0.74344 0.0
C8295 C 0.09154 0.34796 0.75456 0.0
C8296 C 0.1142 0.33817 0.73701 0.0
C8297 C 0.11113 0.3275 0.73554 0.0
C8298 C 0.09873 0.34106 0.74822 0.0
C8299 C 0.10197 0.32387 0.74083 0.0
C8300 C 0.08085 0.34504 0.75597 0.0
C8301 C 0.08887 0.36324 0.76557 0.0
N8302 N 0.09607 0.33065 0.74682 0.0
N8303 N 0.09521 0.35703 0.75929 0.0
H8304 H 0.01284 0.93714 0.59991 0.0
H8305 H 0.98389 0.88124 0.59182 0.0
H8306 H 0.0201 0.91042 0.62034 0.0
H8307 H 0.98873 0.9044 0.56685 0.0
H8308 H 0.99518 0.89208 0.60365 0.0
H8309 H 0.00148 0.92568 0.58924 0.0
C8310 C 0.012 0.92887 0.60223 0.0
C8311 C 0.01753 0.92474 0.61103 0.0
C8312 C 0.99378 0.8947 0.59556 0.0
C8313 C 0.00445 0.9115 0.59871 0.0
C8314 C 0.98736 0.88854 0.5888 0.0
C8315 C 0.98534 0.8919 0.57831 0.0
C8316 C 0.99802 0.90436 0.59182 0.0
C8317 C 0.99004 0.90144 0.57484 0.0
C8318 C 0.00553 0.92231 0.59607 0.0
C8319 C 0.01604 0.91393 0.6136 0.0
N8320 N 0.99606 0.90735 0.58159 0.0
N8321 N 0.00963 0.90766 0.60746 0.0
H8322 H 0.1205 0.73382 0.34121 0.0
H8323 H 0.06442 0.76235 0.34946 0.0
H8324 H 0.09722 0.73847 0.31631 0.0
H8325 H 0.09115 0.76979 0.36983 0.0
H8326 H 0.07593 0.75108 0.33875 0.0
H8327 H 0.10962 0.74503 0.35307 0.0
C8328 C 0.11317 0.73723 0.33822 0.0
C8329 C 0.10978 0.73518 0.32774 0.0
C8330 C 0.07929 0.75515 0.34557 0.0
C8331 C 0.09727 0.74778 0.34128 0.0
C8332 C 0.0727 0.76156 0.35176 0.0
C8333 C 0.07682 0.76712 0.36055 0.0
C8334 C 0.09011 0.75415 0.34819 0.0
C8335 C 0.08764 0.7657 0.3631 0.0
C8336 C 0.10698 0.74361 0.34498 0.0
C8337 C 0.1002 0.73981 0.32429 0.0
N8338 N 0.09394 0.75935 0.35693 0.0
N8339 N 0.09427 0.74579 0.33106 0.0
H8340 H 0.24026 0.81551 0.09965 0.0
H8341 H 0.2693 0.87144 0.092 0.0
H8342 H 0.23337 0.84199 0.12051 0.0
H8343 H 0.2644 0.84849 0.06684 0.0
H8344 H 0.25805 0.8605 0.10377 0.0
H8345 H 0.25157 0.82704 0.089 0.0
C8346 C 0.24118 0.82374 0.10206 0.0
C8347 C 0.23577 0.82778 0.11098 0.0
C8348 C 0.25942 0.85794 0.09564 0.0
C8349 C 0.24877 0.84111 0.09869 0.0
C8350 C 0.26582 0.86417 0.08892 0.0
C8351 C 0.26782 0.86089 0.0784 0.0
C8352 C 0.25518 0.84831 0.09184 0.0
C8353 C 0.26311 0.85138 0.07486 0.0
C8354 C 0.24761 0.83035 0.09592 0.0
C8355 C 0.23734 0.83855 0.11367 0.0
N8356 N 0.25711 0.84541 0.08157 0.0
N8357 N 0.24371 0.84486 0.10754 0.0
H8358 H 0.13162 0.01944 0.84203 0.0
H8359 H 0.18716 0.98951 0.84885 0.0
H8360 H 0.15383 0.01366 0.81639 0.0
H8361 H 0.1611 0.98349 0.87049 0.0
H8362 H 0.17553 1.00072 0.83821 0.0
H8363 H 0.14259 0.0081 0.85369 0.0
C8364 C 0.13873 0.01575 0.83883 0.0
C8365 C 0.1418 0.01754 0.8282 0.0
C8366 C 0.17233 0.99696 0.84529 0.0
C8367 C 0.15441 0.00478 0.84151 0.0
C8368 C 0.179 0.99059 0.85144 0.0
C8369 C 0.17511 0.98547 0.86059 0.0
C8370 C 0.16166 0.99837 0.8483 0.0
C8371 C 0.16443 0.98725 0.86348 0.0
C8372 C 0.14497 0.0093 0.84548 0.0
C8373 C 0.15111 0.01255 0.8245 0.0
N8374 N 0.15805 0.99356 0.85735 0.0
N8375 N 0.15709 0.0065 0.83115 0.0
H8376 H 0.98934 0.84908 0.1871 0.0
H8377 H 0.01904 0.84222 0.13142 0.0
H8378 H 0.98308 0.87056 0.16095 0.0
H8379 H 0.01375 0.8167 0.15389 0.0
H8380 H 0.00768 0.85384 0.1424 0.0
H8381 H 1.00062 0.83849 0.17549 0.0
C8382 C 0.99039 0.85164 0.17893 0.0
C8383 C 0.98518 0.86073 0.175 0.0
C8384 C 0.00899 0.84567 0.14484 0.0
C8385 C 0.99815 0.8485 0.16158 0.0
C8386 C 0.01545 0.83904 0.13859 0.0
C8387 C 0.01738 0.82846 0.14173 0.0
C8388 C 0.0046 0.84173 0.15435 0.0
C8389 C 0.01252 0.82477 0.15111 0.0
C8390 C 0.9968 0.84552 0.17227 0.0
C8391 C 0.98691 0.8636 0.16431 0.0
N8392 N 0.00645 0.83141 0.1571 0.0
N8393 N 0.99326 0.85749 0.15795 0.0
H8394 H 0.18691 0.76353 0.90366 0.0
H8395 H 0.13177 0.73339 0.9115 0.0
H8396 H 0.16052 0.76982 0.88247 0.0
H8397 H 0.15381 0.74043 0.93698 0.0
H8398 H 0.14245 0.74472 0.89955 0.0
H8399 H 0.17535 0.75246 0.91451 0.0
C8400 C 0.17869 0.76253 0.90121 0.0
C8401 C 0.17469 0.7677 0.89214 0.0
C8402 C 0.14484 0.74381 0.90778 0.0
C8403 C 0.16134 0.75495 0.90467 0.0
C8404 C 0.13877 0.73736 0.91461 0.0
C8405 C 0.1419 0.73591 0.92527 0.0
C8406 C 0.15417 0.74864 0.91163 0.0
C8407 C 0.15105 0.74126 0.92885 0.0
C8408 C 0.17207 0.75625 0.90749 0.0
C8409 C 0.16394 0.76603 0.88943 0.0
N8410 N 0.15689 0.74727 0.92203 0.0
N8411 N 0.15761 0.75978 0.89568 0.0
H8412 H 0.26295 0.90352 0.68718 0.0
H8413 H 0.23351 0.91084 0.63143 0.0
H8414 H 0.26954 0.88238 0.66084 0.0
H8415 H 0.23883 0.93622 0.65405 0.0
H8416 H 0.24482 0.89912 0.64237 0.0
H8417 H 0.25169 0.91418 0.6756 0.0
C8418 C 0.26198 0.90105 0.67897 0.0
C8419 C 0.26728 0.89204 0.67498 0.0
C8420 C 0.24353 0.90728 0.64485 0.0
C8421 C 0.25432 0.90434 0.66161 0.0
C8422 C 0.23709 0.91397 0.63863 0.0
C8423 C 0.23519 0.92454 0.64182 0.0
C8424 C 0.24791 0.91116 0.65439 0.0
C8425 C 0.24004 0.92816 0.65123 0.0
C8426 C 0.25558 0.9072 0.67234 0.0
C8427 C 0.26564 0.88928 0.66424 0.0
N8428 N 0.24607 0.92147 0.6572 0.0
N8429 N 0.25929 0.89542 0.6579 0.0
H8430 H 0.12158 0.01924 0.41069 0.0
H8431 H 0.06603 0.98941 0.40355 0.0
H8432 H 0.09918 0.01356 0.43619 0.0
H8433 H 0.09234 0.98289 0.38235 0.0
H8434 H 0.07759 1.00072 0.41416 0.0
H8435 H 0.11069 0.00785 0.39899 0.0
C8436 C 0.11444 0.01556 0.41385 0.0
C8437 C 0.1113 0.01739 0.42445 0.0
C8438 C 0.08086 0.99684 0.40718 0.0
C8439 C 0.09878 0.00458 0.4111 0.0
C8440 C 0.07423 0.99041 0.40105 0.0
C8441 C 0.07821 0.98511 0.39204 0.0
C8442 C 0.09157 0.99813 0.40429 0.0
C8443 C 0.08894 0.98678 0.38925 0.0
C8444 C 0.10825 0.00908 0.40718 0.0
C8445 C 0.10196 0.01241 0.4281 0.0
N8446 N 0.09527 0.99316 0.39537 0.0
N8447 N 0.09602 0.00634 0.42143 0.0
H8448 H 0.59907 0.01266 0.93668 0.0
H8449 H 0.59152 0.98305 0.88105 0.0
H8450 H 0.62025 0.01901 0.91031 0.0
H8451 H 0.5662 0.98867 0.90366 0.0
H8452 H 0.60333 0.99432 0.89193 0.0
H8453 H 0.58834 0.00142 0.92515 0.0
C8454 C 0.60154 0.01164 0.92847 0.0
C8455 C 0.61057 0.01687 0.92447 0.0
C8456 C 0.59516 0.9931 0.89442 0.0
C8457 C 0.5982 0.00394 0.91114 0.0
C8458 C 0.58842 0.98669 0.88823 0.0
C8459 C 0.57783 0.98488 0.89144 0.0
C8460 C 0.59132 0.99755 0.90395 0.0
C8461 C 0.57426 0.9898 0.90083 0.0
C8462 C 0.59535 0.00525 0.92186 0.0
C8463 C 0.61333 0.01517 0.91373 0.0
N8464 N 0.581 0.99581 0.90677 0.0
N8465 N 0.60715 0.00884 0.90742 0.0
H8466 H 0.97248 0.36208 0.65878 0.0
H8467 H 0.03041 0.34468 0.6408 0.0
H8468 H 0.99913 0.36545 0.6802 0.0
H8469 H 0.00395 0.32299 0.63767 0.0
H8470 H 0.01883 0.35701 0.65072 0.0
H8471 H 0.98402 0.35226 0.64634 0.0
C8472 C 0.98081 0.36096 0.66074 0.0
C8473 C 0.98489 0.36454 0.67052 0.0
C8474 C 0.01557 0.34962 0.64768 0.0
C8475 C 0.99804 0.35359 0.65632 0.0
C8476 C 0.02211 0.34264 0.64199 0.0
C8477 C 0.0181 0.33282 0.63845 0.0
C8478 C 0.0049 0.34688 0.64953 0.0
C8479 C 0.00733 0.33047 0.64031 0.0
C8480 C 0.98733 0.35533 0.65369 0.0
C8481 C 0.9957 0.36278 0.67276 0.0
N8482 N 1.00107 0.33748 0.6457 0.0
N8483 N 0.00194 0.35745 0.66568 0.0
H8484 H 0.65847 0.78036 0.39032 0.0
H8485 H 0.64052 0.72233 0.4076 0.0
H8486 H 0.67978 0.75364 0.38682 0.0
H8487 H 0.63713 0.74886 0.42918 0.0
H8488 H 0.65038 0.73393 0.39525 0.0
H8489 H 0.64594 0.76881 0.40002 0.0
C8490 C 0.66039 0.77202 0.39138 0.0
C8491 C 0.67016 0.76792 0.38781 0.0
C8492 C 0.64729 0.7372 0.40262 0.0
C8493 C 0.65587 0.75475 0.39863 0.0
C8494 C 0.64164 0.73065 0.40961 0.0
C8495 C 0.63805 0.73467 0.41941 0.0
C8496 C 0.64907 0.74789 0.40532 0.0
C8497 C 0.63981 0.74547 0.42171 0.0
C8498 C 0.65329 0.76549 0.39695 0.0
C8499 C 0.67234 0.75709 0.38949 0.0
N8500 N 0.64518 0.75174 0.41469 0.0
N8501 N 0.66522 0.75085 0.39476 0.0
H8502 H 0.26914 0.38124 0.16028 0.0
H8503 H 0.23998 0.43714 0.15285 0.0
H8504 H 0.26419 0.40408 0.18553 0.0
H8505 H 0.23329 0.41076 0.13179 0.0
H8506 H 0.25124 0.42557 0.16351 0.0
H8507 H 0.25786 0.3922 0.14856 0.0
C8508 C 0.26564 0.38849 0.16339 0.0
C8509 C 0.26764 0.39173 0.17392 0.0
C8510 C 0.24733 0.42229 0.15655 0.0
C8511 C 0.25496 0.40434 0.16054 0.0
C8512 C 0.24093 0.42892 0.15039 0.0
C8513 C 0.2356 0.42493 0.14141 0.0
C8514 C 0.24855 0.41155 0.15371 0.0
C8515 C 0.23721 0.41418 0.13867 0.0
C8516 C 0.25923 0.39473 0.15669 0.0
C8517 C 0.26291 0.40122 0.1775 0.0
N8518 N 0.24355 0.40784 0.14481 0.0
N8519 N 0.25689 0.40719 0.17081 0.0
H8520 H 0.57245 0.75358 0.86639 0.0
H8521 H 0.61605 0.74959 0.82343 0.0
H8522 H 0.59402 0.78007 0.86273 0.0
H8523 H 0.61224 0.72328 0.84519 0.0
H8524 H 0.60647 0.76111 0.83604 0.0
H8525 H 0.58528 0.74212 0.85704 0.0
C8526 C 0.57995 0.75693 0.86373 0.0
C8527 C 0.58223 0.76775 0.86535 0.0
C8528 C 0.6079 0.75285 0.83809 0.0
C8529 C 0.59668 0.75484 0.85442 0.0
C8530 C 0.61332 0.74629 0.83092 0.0
C8531 C 0.61495 0.7355 0.83332 0.0
C8532 C 0.60376 0.74848 0.84751 0.0
C8533 C 0.61121 0.73158 0.84311 0.0
C8534 C 0.58725 0.75041 0.85844 0.0
C8535 C 0.59203 0.77174 0.86171 0.0
N8536 N 0.60557 0.73802 0.84976 0.0
N8537 N 0.59882 0.76533 0.8562 0.0
H8538 H 0.26342 0.34809 0.56577 0.0
H8539 H 0.23336 0.34101 0.62122 0.0
H8540 H 0.26956 0.36945 0.59204 0.0
H8541 H 0.23889 0.31555 0.59874 0.0
H8542 H 0.24482 0.35267 0.61037 0.0
H8543 H 0.25211 0.33743 0.57729 0.0
C8544 C 0.26234 0.35061 0.57395 0.0
C8545 C 0.26752 0.35968 0.57794 0.0
C8546 C 0.24354 0.3445 0.6079 0.0
C8547 C 0.25451 0.34738 0.59125 0.0
C8548 C 0.23702 0.33785 0.61407 0.0
C8549 C 0.23512 0.32727 0.61089 0.0
C8550 C 0.24802 0.34058 0.59842 0.0
C8551 C 0.24008 0.32362 0.60155 0.0
C8552 C 0.25591 0.34445 0.58056 0.0
C8553 C 0.26575 0.3625 0.58864 0.0
N8554 N 0.2462 0.33027 0.59563 0.0
N8555 N 0.25938 0.35636 0.59495 0.0
H8556 H 0.65276 0.01281 0.31545 0.0
H8557 H 0.6601 0.98357 0.37128 0.0
H8558 H 0.63188 0.01985 0.34189 0.0
H8559 H 0.68544 0.98865 0.34856 0.0
H8560 H 0.64843 0.99496 0.36037 0.0
H8561 H 0.66336 0.00151 0.32704 0.0
C8562 C 0.65033 0.01193 0.32369 0.0
C8563 C 0.64141 0.01737 0.32769 0.0
C8564 C 0.65658 0.9936 0.35786 0.0
C8565 C 0.65365 0.00437 0.34108 0.0
C8566 C 0.66323 0.98711 0.36407 0.0
C8567 C 0.67378 0.98512 0.36084 0.0
C8568 C 0.66045 0.99792 0.34829 0.0
C8569 C 0.6774 0.98993 0.35141 0.0
C8570 C 0.65645 0.00551 0.33033 0.0
C8571 C 0.63871 0.01585 0.33846 0.0
N8572 N 0.67074 0.996 0.34546 0.0
N8573 N 0.64481 0.00947 0.34481 0.0
H8574 H 0.0129 0.43725 0.09855 0.0
H8575 H 0.98323 0.3816 0.09135 0.0
H8576 H 0.01892 0.41106 0.12004 0.0
H8577 H 0.98872 0.40409 0.0659 0.0
H8578 H 0.99448 0.39257 0.10308 0.0
H8579 H 0.0017 0.42568 0.08783 0.0
C8580 C 0.01182 0.42908 0.10108 0.0
C8581 C 0.01694 0.42513 0.11021 0.0
C8582 C 0.99324 0.39501 0.0949 0.0
C8583 C 0.00405 0.41175 0.09784 0.0
C8584 C 0.98684 0.38877 0.0882 0.0
C8585 C 0.985 0.39192 0.07761 0.0
C8586 C 0.99766 0.40453 0.09101 0.0
C8587 C 0.98988 0.40131 0.07398 0.0
C8588 C 0.00545 0.42244 0.0949 0.0
C8589 C 0.01516 0.41444 0.11305 0.0
N8590 N 0.99589 0.40729 0.08067 0.0
N8591 N 0.00885 0.4081 0.10688 0.0
H8592 H 0.91042 0.6213 0.01968 0.0
H8593 H 0.90347 0.56574 0.98987 0.0
H8594 H 0.93602 0.59906 0.01385 0.0
H8595 H 0.88204 0.5919 0.98351 0.0
H8596 H 0.91407 0.57736 1.00113 0.0
H8597 H 0.89873 0.61035 0.00836 0.0
C8598 C 0.91361 0.61419 0.01599 0.0
C8599 C 0.92423 0.6111 0.01775 0.0
C8600 C 0.90704 0.58058 0.9973 0.0
C8601 C 0.91088 0.59851 0.00502 0.0
C8602 C 0.90092 0.57392 0.9909 0.0
C8603 C 0.89185 0.57784 0.98566 0.0
C8604 C 0.90409 0.59127 0.99861 0.0
C8605 C 0.88899 0.58855 0.98736 0.0
C8606 C 0.90693 0.60796 0.00954 0.0
C8607 C 0.92792 0.6018 0.01276 0.0
N8608 N 0.8951 0.59491 0.99371 0.0
N8609 N 0.92124 0.59582 0.00672 0.0
H8610 H 0.40399 0.68782 0.76206 0.0
H8611 H 0.4111 0.63197 0.73271 0.0
H8612 H 0.38275 0.66155 0.76857 0.0
H8613 H 0.4365 0.65462 0.73774 0.0
H8614 H 0.39944 0.64299 0.74399 0.0
H8615 H 0.4146 0.67623 0.75077 0.0
C8616 C 0.40149 0.67963 0.76106 0.0
C8617 C 0.39246 0.67566 0.76635 0.0
C8618 C 0.40759 0.64547 0.74264 0.0
C8619 C 0.40471 0.66227 0.75337 0.0
C8620 C 0.41425 0.63919 0.73622 0.0
C8621 C 0.42481 0.64236 0.73425 0.0
C8622 C 0.41149 0.65503 0.74694 0.0
C8623 C 0.42845 0.65181 0.73901 0.0
C8624 C 0.40761 0.67298 0.75465 0.0
C8625 C 0.38966 0.66494 0.76469 0.0
N8626 N 0.42179 0.65783 0.74503 0.0
N8627 N 0.39577 0.65859 0.75833 0.0
H8628 H 0.37161 0.16078 0.48407 0.0
H8629 H 0.31596 0.1537 0.51373 0.0
H8630 H 0.34918 0.18629 0.48955 0.0
H8631 H 0.34216 0.13228 0.51996 0.0
H8632 H 0.32758 0.1644 0.50256 0.0
H8633 H 0.36067 0.14912 0.49543 0.0
C8634 C 0.36445 0.16396 0.4877 0.0
C8635 C 0.36131 0.17455 0.48582 0.0
C8636 C 0.3308 0.15736 0.50635 0.0
C8637 C 0.34874 0.16123 0.4986 0.0
C8638 C 0.32415 0.15117 0.5127 0.0
C8639 C 0.32808 0.14207 0.51787 0.0
C8640 C 0.3415 0.15442 0.50502 0.0
C8641 C 0.33879 0.13925 0.51617 0.0
C8642 C 0.35823 0.1573 0.49416 0.0
C8643 C 0.35196 0.17822 0.49074 0.0
N8644 N 0.34515 0.14541 0.50987 0.0
N8645 N 0.34598 0.17156 0.4968 0.0
H8646 H 0.84252 0.12062 0.23279 0.0
H8647 H 0.84899 0.06528 0.26317 0.0
H8648 H 0.81676 0.09858 0.23865 0.0
H8649 H 0.8707 0.09131 0.26911 0.0
H8650 H 0.83844 0.07688 0.25183 0.0
H8651 H 0.85409 0.10969 0.24426 0.0
C8652 C 0.83927 0.11355 0.23653 0.0
C8653 C 0.82864 0.11052 0.23472 0.0
C8654 C 0.84551 0.08008 0.2556 0.0
C8655 C 0.84184 0.09795 0.24763 0.0
C8656 C 0.85161 0.07343 0.26204 0.0
C8657 C 0.86075 0.07732 0.26717 0.0
C8658 C 0.84857 0.09072 0.25413 0.0
C8659 C 0.86369 0.08798 0.26534 0.0
C8660 C 0.84587 0.10734 0.24305 0.0
C8661 C 0.82487 0.10127 0.23977 0.0
N8662 N 0.85762 0.09433 0.25895 0.0
N8663 N 0.83148 0.0953 0.24589 0.0
H8664 H 0.40421 0.56524 0.49037 0.0
H8665 H 0.41135 0.62122 0.51945 0.0
H8666 H 0.38294 0.59147 0.48379 0.0
H8667 H 0.43673 0.59851 0.51456 0.0
H8668 H 0.39969 0.61017 0.50821 0.0
H8669 H 0.41484 0.57688 0.50159 0.0
C8670 C 0.40171 0.57344 0.49133 0.0
C8671 C 0.39267 0.57738 0.48605 0.0
C8672 C 0.40784 0.60769 0.50958 0.0
C8673 C 0.40494 0.59083 0.49895 0.0
C8674 C 0.41449 0.61398 0.51598 0.0
C8675 C 0.42505 0.6108 0.51798 0.0
C8676 C 0.41173 0.59809 0.50534 0.0
C8677 C 0.42868 0.60132 0.51327 0.0
C8678 C 0.40784 0.58011 0.49771 0.0
C8679 C 0.38987 0.58811 0.48767 0.0
N8680 N 0.42202 0.59529 0.50727 0.0
N8681 N 0.39599 0.59448 0.49399 0.0
H8682 H 0.86262 0.15813 0.97264 0.0
H8683 H 0.84442 0.1401 0.03025 0.0
H8684 H 0.86541 0.1797 0.99924 0.0
H8685 H 0.82299 0.13714 0.00356 0.0
H8686 H 0.85688 0.15007 0.01885 0.0
H8687 H 0.85267 0.14569 0.98406 0.0
C8688 C 0.86135 0.16013 0.98094 0.0
C8689 C 0.86481 0.16994 0.98504 0.0
C8690 C 0.84952 0.14706 0.0155 0.0
C8691 C 0.85369 0.15575 0.99806 0.0
C8692 C 0.84246 0.14134 0.02194 0.0
C8693 C 0.83269 0.13783 0.01781 0.0
C8694 C 0.84689 0.14896 0.00482 0.0
C8695 C 0.83044 0.13975 0.00703 0.0
C8696 C 0.85564 0.15308 0.98739 0.0
C8697 C 0.86284 0.17222 0.9958 0.0
N8698 N 0.83753 0.14516 1.00086 0.0
N8699 N 0.85744 0.16514 0.00198 0.0
H8700 H 0.3154 0.09884 0.73935 0.0
H8701 H 0.37095 0.09174 0.76918 0.0
H8702 H 0.34158 0.12032 0.73324 0.0
H8703 H 0.34861 0.06621 0.76346 0.0
H8704 H 0.36004 0.10344 0.75783 0.0
H8705 H 0.32701 0.08813 0.75053 0.0
C8706 C 0.32358 0.10137 0.74041 0.0
C8707 C 0.32751 0.1105 0.73528 0.0
C8708 C 0.35761 0.09525 0.75904 0.0
C8709 C 0.34093 0.09814 0.74813 0.0
C8710 C 0.36382 0.08857 0.7655 0.0
C8711 C 0.3607 0.07796 0.76731 0.0
C8712 C 0.34815 0.09132 0.75454 0.0
C8713 C 0.35137 0.0743 0.76233 0.0
C8714 C 0.33023 0.09519 0.74676 0.0
C8715 C 0.33822 0.11333 0.73701 0.0
N8716 N 0.34541 0.08098 0.75628 0.0
N8717 N 0.34457 0.10717 0.74331 0.0
H8718 H 0.90327 0.68702 0.26231 0.0
H8719 H 0.91096 0.63113 0.23322 0.0
H8720 H 0.88238 0.66054 0.26914 0.0
H8721 H 0.93616 0.654 0.2383 0.0
H8722 H 0.89917 0.64207 0.24446 0.0
H8723 H 0.91396 0.67548 0.25105 0.0
C8724 C 0.90085 0.67879 0.26139 0.0
C8725 C 0.89192 0.67475 0.26676 0.0
C8726 C 0.90731 0.64461 0.24313 0.0
C8727 C 0.90426 0.66141 0.25381 0.0
C8728 C 0.91404 0.63839 0.23673 0.0
C8729 C 0.92458 0.64165 0.23478 0.0
C8730 C 0.91112 0.65421 0.24742 0.0
C8731 C 0.92812 0.65113 0.23955 0.0
C8732 C 0.90703 0.67217 0.25499 0.0
C8733 C 0.88923 0.66398 0.26519 0.0
N8734 N 0.9214 0.65709 0.24554 0.0
N8735 N 0.89539 0.65766 0.25884 0.0
H8736 H 0.91097 0.73337 0.13188 0.0
H8737 H 0.90346 0.76293 0.18755 0.0
H8738 H 0.93626 0.73871 0.15458 0.0
H8739 H 0.88231 0.76928 0.16116 0.0
H8740 H 0.91418 0.75166 0.17604 0.0
H8741 H 0.8992 0.74464 0.14278 0.0
C8742 C 0.91407 0.73694 0.13909 0.0
C8743 C 0.92464 0.73506 0.14231 0.0
C8744 C 0.90719 0.75549 0.17275 0.0
C8745 C 0.91119 0.74775 0.15484 0.0
C8746 C 0.901 0.7619 0.17934 0.0
C8747 C 0.89197 0.76714 0.17532 0.0
C8748 C 0.90434 0.75417 0.16202 0.0
C8749 C 0.88923 0.76543 0.16459 0.0
C8750 C 0.90735 0.74336 0.14529 0.0
C8751 C 0.92821 0.73991 0.15174 0.0
N8752 N 0.8954 0.75908 0.15829 0.0
N8753 N 0.9215 0.74593 0.15768 0.0
H8754 H 0.84129 0.5202 0.63254 0.0
H8755 H 0.84767 0.48909 0.6874 0.0
H8756 H 0.81528 0.51304 0.65391 0.0
H8757 H 0.86987 0.48392 0.66163 0.0
H8758 H 0.83699 0.50026 0.67576 0.0
H8759 H 0.85296 0.50875 0.64339 0.0
C8760 C 0.83801 0.51618 0.63943 0.0
C8761 C 0.82728 0.51763 0.64232 0.0
C8762 C 0.8442 0.4967 0.67263 0.0
C8763 C 0.84059 0.50476 0.6548 0.0
C8764 C 0.85037 0.49036 0.6793 0.0
C8765 C 0.85968 0.48549 0.67549 0.0
C8766 C 0.84737 0.49833 0.66204 0.0
C8767 C 0.86272 0.48748 0.66489 0.0
C8768 C 0.84467 0.50967 0.64561 0.0
C8769 C 0.82347 0.51221 0.65134 0.0
N8770 N 0.85658 0.49377 0.65851 0.0
N8771 N 0.83013 0.50613 0.65728 0.0
H8772 H 0.8714 0.76987 0.59059 0.0
H8773 H 0.81612 0.7398 0.59791 0.0
H8774 H 0.84966 0.76276 0.56488 0.0
H8775 H 0.84216 0.73402 0.61965 0.0
H8776 H 0.82781 0.75074 0.58706 0.0
H8777 H 0.86052 0.75867 0.60248 0.0
C8778 C 0.86442 0.76591 0.58742 0.0
C8779 C 0.86143 0.7673 0.57671 0.0
C8780 C 0.83099 0.74709 0.59421 0.0
C8781 C 0.84893 0.75473 0.59027 0.0
C8782 C 0.82429 0.74089 0.60047 0.0
C8783 C 0.82816 0.73591 0.60971 0.0
C8784 C 0.84167 0.74849 0.59719 0.0
C8785 C 0.83885 0.73767 0.61257 0.0
C8786 C 0.85824 0.75954 0.5942 0.0
C8787 C 0.85231 0.76197 0.57305 0.0
N8788 N 0.84526 0.74384 0.60633 0.0
N8789 N 0.84636 0.75603 0.57983 0.0
H8790 H 0.93751 0.51324 0.09891 0.0
H8791 H 0.88185 0.48357 0.09182 0.0
H8792 H 0.91133 0.5194 0.12037 0.0
H8793 H 0.90434 0.48899 0.06636 0.0
H8794 H 0.8928 0.49489 0.10351 0.0
H8795 H 0.92591 0.50202 0.08823 0.0
C8796 C 0.92933 0.51218 0.10145 0.0
C8797 C 0.9254 0.51735 0.11055 0.0
C8798 C 0.89525 0.49362 0.09533 0.0
C8799 C 0.91199 0.50444 0.09823 0.0
C8800 C 0.88902 0.48718 0.08866 0.0
C8801 C 0.89217 0.4853 0.07807 0.0
C8802 C 0.90477 0.49803 0.09142 0.0
C8803 C 0.90156 0.49018 0.07443 0.0
C8804 C 0.92269 0.50581 0.09528 0.0
C8805 C 0.9147 0.51561 0.1134 0.0
N8806 N 0.90753 0.49622 0.0811 0.0
N8807 N 0.90834 0.50929 0.10725 0.0
H8808 H 0.4361 0.51376 0.59859 0.0
H8809 H 0.38111 0.48275 0.59232 0.0
H8810 H 0.41019 0.51919 0.62057 0.0
H8811 H 0.40293 0.48901 0.56646 0.0
H8812 H 0.39195 0.49432 0.60387 0.0
H8813 H 0.42455 0.50241 0.58802 0.0
C8814 C 0.42799 0.51252 0.60126 0.0
C8815 C 0.42412 0.51751 0.61049 0.0
C8816 C 0.39427 0.49317 0.59564 0.0
C8817 C 0.41076 0.50444 0.59829 0.0
C8818 C 0.38811 0.48659 0.58904 0.0
C8819 C 0.39111 0.48486 0.57839 0.0
C8820 C 0.40357 0.49789 0.59157 0.0
C8821 C 0.40026 0.49006 0.57459 0.0
C8822 C 0.42136 0.50607 0.59516 0.0
C8823 C 0.4135 0.51554 0.6135 0.0
N8824 N 0.40618 0.49623 0.58119 0.0
N8825 N 0.40717 0.50914 0.60741 0.0
H8826 H 0.34151 0.7335 0.12174 0.0
H8827 H 0.34937 0.76328 0.06623 0.0
H8828 H 0.31643 0.73869 0.09877 0.0
H8829 H 0.37025 0.76964 0.09283 0.0
H8830 H 0.33862 0.7519 0.07759 0.0
H8831 H 0.35332 0.74489 0.11099 0.0
C8832 C 0.33846 0.73706 0.1145 0.0
C8833 C 0.32795 0.73511 0.11116 0.0
C8834 C 0.34556 0.75576 0.08097 0.0
C8835 C 0.34143 0.74792 0.0988 0.0
C8836 C 0.35177 0.76223 0.07445 0.0
C8837 C 0.36073 0.76751 0.07857 0.0
C8838 C 0.34831 0.75442 0.09171 0.0
C8839 C 0.36339 0.76577 0.08932 0.0
C8840 C 0.3452 0.74355 0.10839 0.0
C8841 C 0.32444 0.73994 0.1017 0.0
N8842 N 0.35719 0.75936 0.09554 0.0
N8843 N 0.33118 0.74603 0.09584 0.0
H8844 H 0.40278 0.76286 0.68673 0.0
H8845 H 0.41106 0.73387 0.63086 0.0
H8846 H 0.38223 0.76975 0.66001 0.0
H8847 H 0.43593 0.73859 0.65417 0.0
H8848 H 0.39919 0.74514 0.64168 0.0
H8849 H 0.41357 0.75156 0.67532 0.0
C8850 C 0.40046 0.76195 0.67847 0.0
C8851 C 0.39159 0.76735 0.67433 0.0
C8852 C 0.40727 0.74372 0.64434 0.0
C8853 C 0.40404 0.75435 0.66114 0.0
C8854 C 0.41405 0.73731 0.63819 0.0
C8855 C 0.42452 0.73526 0.6416 0.0
C8856 C 0.41096 0.74793 0.65403 0.0
C8857 C 0.42795 0.73993 0.65117 0.0
C8858 C 0.40669 0.75552 0.67194 0.0
C8859 C 0.38902 0.76578 0.66353 0.0
N8860 N 0.42118 0.74594 0.65706 0.0
N8861 N 0.39523 0.75941 0.65729 0.0
H8862 H 0.3416 0.51915 0.13091 0.0
H8863 H 0.34891 0.4895 0.18657 0.0
H8864 H 0.3163 0.51406 0.15366 0.0
H8865 H 0.37005 0.48311 0.16019 0.0
H8866 H 0.33824 0.50083 0.17507 0.0
H8867 H 0.35328 0.50777 0.1418 0.0
C8868 C 0.33847 0.51561 0.13813 0.0
C8869 C 0.32794 0.51759 0.14137 0.0
C8870 C 0.34522 0.49697 0.17178 0.0
C8871 C 0.34128 0.50478 0.15388 0.0
C8872 C 0.35138 0.49053 0.17837 0.0
C8873 C 0.36039 0.48526 0.17435 0.0
C8874 C 0.34809 0.4983 0.16106 0.0
C8875 C 0.36315 0.48697 0.16362 0.0
C8876 C 0.34514 0.50913 0.14432 0.0
C8877 C 0.32433 0.51279 0.1508 0.0
N8878 N 0.35701 0.49336 0.15733 0.0
N8879 N 0.331 0.5067 0.15674 0.0
H8880 H 0.09958 0.93675 0.5129 0.0
H8881 H 0.09243 0.88102 0.48342 0.0
H8882 H 0.12096 0.91057 0.51932 0.0
H8883 H 0.06695 0.90346 0.489 0.0
H8884 H 0.10416 0.89199 0.49469 0.0
H8885 H 0.08893 0.92511 0.50171 0.0
C8886 C 0.10211 0.92856 0.5119 0.0
C8887 C 0.11118 0.92464 0.51714 0.0
C8888 C 0.09598 0.89442 0.49346 0.0
C8889 C 0.09889 0.91118 0.50427 0.0
C8890 C 0.08928 0.88818 0.48705 0.0
C8891 C 0.07868 0.89132 0.48523 0.0
C8892 C 0.09207 0.90393 0.4979 0.0
C8893 C 0.07504 0.90068 0.49014 0.0
C8894 C 0.09596 0.92189 0.50554 0.0
C8895 C 0.11401 0.91392 0.51548 0.0
N8896 N 0.08173 0.90667 0.49615 0.0
N8897 N 0.10788 0.90754 0.50917 0.0
H8898 H 0.56355 0.84904 0.76256 0.0
H8899 H 0.61978 0.84176 0.73401 0.0
H8900 H 0.58981 0.87013 0.76963 0.0
H8901 H 0.59697 0.81644 0.73882 0.0
H8902 H 0.60865 0.85349 0.74511 0.0
H8903 H 0.57526 0.83849 0.75134 0.0
C8904 C 0.57177 0.85153 0.7617 0.0
C8905 C 0.5757 0.86048 0.76714 0.0
C8906 C 0.60617 0.84534 0.74375 0.0
C8907 C 0.58922 0.8483 0.75424 0.0
C8908 C 0.6125 0.83864 0.73743 0.0
C8909 C 0.60932 0.82809 0.73546 0.0
C8910 C 0.59653 0.84148 0.74792 0.0
C8911 C 0.59979 0.82449 0.7401 0.0
C8912 C 0.57848 0.84544 0.75532 0.0
C8913 C 0.58645 0.86327 0.76563 0.0
N8914 N 0.59373 0.83119 0.74601 0.0
N8915 N 0.59286 0.85719 0.75931 0.0
H8916 H 0.67963 0.36588 0.99941 0.0
H8917 H 0.63649 0.32242 0.00328 0.0
H8918 H 0.65811 0.36207 0.9729 0.0
H8919 H 0.63978 0.34432 0.02954 0.0
H8920 H 0.64607 0.33508 0.99181 0.0
H8921 H 0.66689 0.35633 0.01083 0.0
C8922 C 0.67216 0.36315 0.99605 0.0
C8923 C 0.66986 0.36479 0.98524 0.0
C8924 C 0.64453 0.33715 1.00005 0.0
C8925 C 0.65554 0.35363 0.99809 0.0
C8926 C 0.63911 0.32995 0.00657 0.0
C8927 C 0.63731 0.33238 0.01733 0.0
C8928 C 0.64851 0.34663 0.00443 0.0
C8929 C 0.64092 0.34221 0.02125 0.0
C8930 C 0.66492 0.35775 0.00255 0.0
C8931 C 0.66011 0.36105 0.98123 0.0
N8932 N 0.64657 0.3489 0.01486 0.0
N8933 N 0.65338 0.35542 0.98761 0.0
H8934 H 0.18694 0.40511 0.2629 0.0
H8935 H 0.13154 0.41089 0.23247 0.0
H8936 H 0.1612 0.38301 0.26862 0.0
H8937 H 0.15339 0.43687 0.2381 0.0
H8938 H 0.14258 0.3995 0.244 0.0
H8939 H 0.17522 0.41558 0.25161 0.0
C8940 C 0.17883 0.40239 0.26173 0.0
C8941 C 0.17506 0.39316 0.26678 0.0
C8942 C 0.14486 0.40773 0.24273 0.0
C8943 C 0.16152 0.40524 0.25379 0.0
C8944 C 0.13859 0.41423 0.23617 0.0
C8945 C 0.14154 0.42487 0.23427 0.0
C8946 C 0.15422 0.41186 0.24727 0.0
C8947 C 0.15076 0.42875 0.23929 0.0
C8948 C 0.17212 0.40844 0.25532 0.0
C8949 C 0.16444 0.39009 0.26492 0.0
N8950 N 0.15679 0.42224 0.24545 0.0
N8951 N 0.15802 0.39612 0.25855 0.0
H8952 H 0.62111 0.91171 0.01961 0.0
H8953 H 0.56515 0.90471 0.99046 0.0
H8954 H 0.59862 0.93722 0.01441 0.0
H8955 H 0.59128 0.88329 0.98399 0.0
H8956 H 0.57684 0.91535 0.00162 0.0
H8957 H 0.61001 0.90004 0.00842 0.0
C8958 C 0.6139 0.91488 0.01608 0.0
C8959 C 0.6108 0.92547 0.01798 0.0
C8960 C 0.58004 0.90831 0.99778 0.0
C8961 C 0.59804 0.91215 0.00539 0.0
C8962 C 0.57333 0.90217 0.99144 0.0
C8963 C 0.57723 0.89309 0.9862 0.0
C8964 C 0.59075 0.90536 0.99903 0.0
C8965 C 0.58795 0.89025 0.98783 0.0
C8966 C 0.60759 0.90822 0.00971 0.0
C8967 C 0.60137 0.92914 0.01319 0.0
N8968 N 0.59435 0.89637 0.99412 0.0
N8969 N 0.59532 0.92248 0.00722 0.0
H8970 H 0.15426 0.31595 0.51256 0.0
H8971 H 0.16148 0.37133 0.48262 0.0
H8972 H 0.13284 0.34214 0.51886 0.0
H8973 H 0.18712 0.34934 0.48918 0.0
H8974 H 0.14968 0.36047 0.49392 0.0
H8975 H 0.16496 0.32759 0.50143 0.0
C8976 C 0.15173 0.32414 0.51156 0.0
C8977 C 0.14264 0.32807 0.51674 0.0
C8978 C 0.15792 0.35812 0.4929 0.0
C8979 C 0.15499 0.34152 0.50393 0.0
C8980 C 0.16465 0.3643 0.48648 0.0
C8981 C 0.17532 0.36124 0.48491 0.0
C8982 C 0.16185 0.34875 0.4976 0.0
C8983 C 0.17898 0.35204 0.49011 0.0
C8984 C 0.15792 0.33081 0.50523 0.0
C8985 C 0.13981 0.33879 0.51506 0.0
N8986 N 0.17225 0.3461 0.49611 0.0
N8987 N 0.14598 0.34517 0.50878 0.0
H8988 H 0.65818 0.38976 0.78032 0.0
H8989 H 0.64002 0.40776 0.72258 0.0
H8990 H 0.67939 0.38646 0.75348 0.0
H8991 H 0.63695 0.4291 0.74934 0.0
H8992 H 0.64989 0.39524 0.73399 0.0
H8993 H 0.64566 0.39964 0.76892 0.0
C8994 C 0.66008 0.3909 0.77197 0.0
C8995 C 0.66982 0.38733 0.76781 0.0
C8996 C 0.64687 0.40259 0.73736 0.0
C8997 C 0.65553 0.39837 0.75481 0.0
C8998 C 0.6412 0.40969 0.73091 0.0
C8999 C 0.6377 0.41946 0.73506 0.0
C9000 C 0.64873 0.40517 0.74806 0.0
C9001 C 0.63956 0.42165 0.74586 0.0
C9002 C 0.65298 0.39657 0.76554 0.0
C9003 C 0.67196 0.38912 0.75698 0.0
N9004 N 0.64493 0.41453 0.75202 0.0
N9005 N 0.66485 0.3945 0.75082 0.0
H9006 H 0.1211 0.84249 0.23311 0.0
H9007 H 0.06517 0.85 0.26214 0.0
H9008 H 0.09825 0.81726 0.23809 0.0
H9009 H 0.09167 0.87073 0.26938 0.0
H9010 H 0.07674 0.83945 0.25078 0.0
H9011 H 0.11015 0.85423 0.24441 0.0
C9012 C 0.11385 0.8394 0.23661 0.0
C9013 C 0.1106 0.82886 0.23462 0.0
C9014 C 0.08004 0.84631 0.25483 0.0
C9015 C 0.09802 0.84226 0.24732 0.0
C9016 C 0.07341 0.85241 0.26129 0.0
C9017 C 0.07744 0.86126 0.26682 0.0
C9018 C 0.09081 0.84907 0.25374 0.0
C9019 C 0.08823 0.86394 0.26532 0.0
C9020 C 0.10762 0.84609 0.24304 0.0
C9021 C 0.10112 0.82529 0.23937 0.0
N9022 N 0.09456 0.85786 0.25891 0.0
N9023 N 0.09515 0.83198 0.24539 0.0
H9024 H 0.06559 0.26324 0.84907 0.0
H9025 H 0.1211 0.23311 0.84282 0.0
H9026 H 0.09158 0.26939 0.87077 0.0
H9027 H 0.09902 0.23864 0.81703 0.0
H9028 H 0.11009 0.24456 0.85432 0.0
H9029 H 0.07724 0.25188 0.8386 0.0
C9030 C 0.07374 0.26215 0.8517 0.0
C9031 C 0.07761 0.26735 0.86082 0.0
C9032 C 0.10774 0.24328 0.84611 0.0
C9033 C 0.09106 0.25428 0.84873 0.0
C9034 C 0.114 0.23676 0.83955 0.0
C9035 C 0.11098 0.23488 0.82893 0.0
C9036 C 0.09832 0.24777 0.84205 0.0
C9037 C 0.1017 0.23983 0.82513 0.0
C9038 C 0.08041 0.25569 0.84566 0.0
C9039 C 0.08827 0.26557 0.86378 0.0
N9040 N 0.09568 0.24595 0.8317 0.0
N9041 N 0.09465 0.25917 0.85775 0.0
H9042 H 0.18666 0.48874 0.34824 0.0
H9043 H 0.13165 0.51938 0.34131 0.0
H9044 H 0.16085 0.48345 0.37038 0.0
H9045 H 0.15297 0.51174 0.3154 0.0
H9046 H 0.14251 0.50812 0.35316 0.0
H9047 H 0.17492 0.49965 0.33741 0.0
C9048 C 0.17853 0.48993 0.3509 0.0
C9049 C 0.17474 0.4851 0.36024 0.0
C9050 C 0.14471 0.50889 0.34485 0.0
C9051 C 0.16118 0.49765 0.34774 0.0
C9052 C 0.13853 0.51529 0.33809 0.0
C9053 C 0.14141 0.51656 0.32733 0.0
C9054 C 0.1539 0.50391 0.34085 0.0
C9055 C 0.15041 0.51106 0.32361 0.0
C9056 C 0.17181 0.49612 0.34464 0.0
C9057 C 0.1641 0.48698 0.36322 0.0
N9058 N 0.15636 0.50509 0.33036 0.0
N9059 N 0.15767 0.49314 0.35698 0.0
H9060 H 0.18032 0.25364 0.38649 0.0
H9061 H 0.13693 0.24931 0.42969 0.0
H9062 H 0.15859 0.27997 0.39033 0.0
H9063 H 0.14076 0.22307 0.40784 0.0
H9064 H 0.14646 0.26089 0.41709 0.0
H9065 H 0.16763 0.24209 0.39593 0.0
C9066 C 0.17282 0.25694 0.3892 0.0
C9067 C 0.17044 0.26774 0.38761 0.0
C9068 C 0.14505 0.25263 0.41502 0.0
C9069 C 0.15617 0.25472 0.39864 0.0
C9070 C 0.13966 0.24604 0.42218 0.0
C9071 C 0.13804 0.23526 0.41975 0.0
C9072 C 0.14917 0.2483 0.40558 0.0
C9073 C 0.14178 0.23137 0.40995 0.0
C9074 C 0.16561 0.25036 0.39454 0.0
C9075 C 0.16065 0.27165 0.39133 0.0
N9076 N 0.14738 0.23784 0.4033 0.0
N9077 N 0.15395 0.2652 0.39688 0.0
H9078 H 0.09133 0.48287 0.8816 0.0
H9079 H 0.09748 0.51329 0.93695 0.0
H9080 H 0.06543 0.48877 0.90346 0.0
H9081 H 0.11958 0.51882 0.91116 0.0
H9082 H 0.08688 0.5021 0.92525 0.0
H9083 H 0.10284 0.49433 0.89259 0.0
C9084 C 0.08804 0.48661 0.88864 0.0
C9085 C 0.07739 0.48481 0.89161 0.0
C9086 C 0.09405 0.50574 0.92213 0.0
C9087 C 0.09052 0.49772 0.90425 0.0
C9088 C 0.10017 0.5121 0.92883 0.0
C9089 C 0.10945 0.51707 0.92504 0.0
C9090 C 0.09722 0.50419 0.91152 0.0
C9091 C 0.11247 0.51518 0.91441 0.0
C9092 C 0.09461 0.49313 0.89489 0.0
C9093 C 0.07356 0.48988 0.90082 0.0
N9094 N 0.10637 0.50887 0.90801 0.0
N9095 N 0.08013 0.496 0.90683 0.0
H9096 H 0.59172 0.48396 0.38145 0.0
H9097 H 0.59955 0.51331 0.43712 0.0
H9098 H 0.56647 0.48951 0.40416 0.0
H9099 H 0.62044 0.52002 0.41062 0.0
H9100 H 0.58878 0.50212 0.42559 0.0
H9101 H 0.60355 0.49526 0.39228 0.0
C9102 C 0.58864 0.48759 0.38864 0.0
C9103 C 0.57808 0.48575 0.3919 0.0
C9104 C 0.59572 0.50602 0.42228 0.0
C9105 C 0.59158 0.49845 0.40434 0.0
C9106 C 0.60195 0.51238 0.42889 0.0
C9107 C 0.61092 0.5177 0.42484 0.0
C9108 C 0.59848 0.50483 0.41152 0.0
C9109 C 0.61358 0.51611 0.41407 0.0
C9110 C 0.59539 0.49402 0.3948 0.0
C9111 C 0.57453 0.49067 0.4013 0.0
N9112 N 0.60737 0.50981 0.40775 0.0
N9113 N 0.58127 0.49669 0.4072 0.0
H9114 H 0.65395 0.23786 0.93803 0.0
H9115 H 0.66073 0.2688 0.88315 0.0
H9116 H 0.63189 0.23259 0.91215 0.0
H9117 H 0.68663 0.26144 0.90459 0.0
H9118 H 0.64895 0.25743 0.89397 0.0
H9119 H 0.66471 0.24895 0.9264 0.0
C9120 C 0.6513 0.23909 0.92991 0.0
C9121 C 0.642 0.23421 0.92607 0.0
C9122 C 0.65724 0.25828 0.8962 0.0
C9123 C 0.65441 0.24698 0.91263 0.0
C9124 C 0.66396 0.26475 0.89005 0.0
C9125 C 0.67469 0.26612 0.89297 0.0
C9126 C 0.66125 0.25334 0.9054 0.0
C9127 C 0.67844 0.26067 0.902 0.0
C9128 C 0.65751 0.24539 0.92324 0.0
C9129 C 0.63902 0.23616 0.91544 0.0
N9130 N 0.67172 0.25463 0.90792 0.0
N9131 N 0.64521 0.24241 0.90907 0.0
H9132 H 0.61604 0.24925 0.32275 0.0
H9133 H 0.57275 0.25291 0.36602 0.0
H9134 H 0.61228 0.22274 0.34428 0.0
H9135 H 0.59405 0.27956 0.36199 0.0
H9136 H 0.58564 0.24148 0.35672 0.0
H9137 H 0.60661 0.26069 0.33555 0.0
C9138 C 0.61336 0.2459 0.33024 0.0
C9139 C 0.61495 0.23508 0.33251 0.0
C9140 C 0.58754 0.24979 0.35805 0.0
C9141 C 0.60394 0.24796 0.34692 0.0
C9142 C 0.58021 0.2563 0.36331 0.0
C9143 C 0.58239 0.26716 0.36478 0.0
C9144 C 0.5969 0.25428 0.35391 0.0
C9145 C 0.59213 0.2712 0.36108 0.0
C9146 C 0.60803 0.25241 0.33752 0.0
C9147 C 0.61128 0.23108 0.34229 0.0
N9148 N 0.59895 0.26481 0.35559 0.0
N9149 N 0.60572 0.23747 0.34905 0.0
H9150 H 0.63123 0.51961 0.84171 0.0
H9151 H 0.68752 0.49126 0.84893 0.0
H9152 H 0.65398 0.51478 0.81634 0.0
H9153 H 0.66112 0.48323 0.8695 0.0
H9154 H 0.67577 0.5026 0.83855 0.0
H9155 H 0.64234 0.50839 0.85338 0.0
C9156 C 0.63849 0.51616 0.83857 0.0
C9157 C 0.64167 0.51817 0.82802 0.0
C9158 C 0.67253 0.49838 0.84535 0.0
C9159 C 0.65443 0.50558 0.84134 0.0
C9160 C 0.67926 0.49194 0.85135 0.0
C9161 C 0.67531 0.48619 0.86009 0.0
C9162 C 0.66174 0.49923 0.84811 0.0
C9163 C 0.6645 0.48747 0.86279 0.0
C9164 C 0.64481 0.50978 0.84523 0.0
C9165 C 0.65117 0.51349 0.82439 0.0
N9166 N 0.65807 0.49386 0.85681 0.0
N9167 N 0.65722 0.50752 0.83105 0.0
H9168 H 0.88669 0.07295 0.49917 0.0
H9169 H 0.93002 0.11617 0.50342 0.0
H9170 H 0.89038 0.09481 0.47293 0.0
H9171 H 0.90836 0.1123 0.5298 0.0
H9172 H 0.9173 0.10676 0.49188 0.0
H9173 H 0.89622 0.08557 0.51073 0.0
C9174 C 0.88939 0.08047 0.4959 0.0
C9175 C 0.88774 0.0829 0.48512 0.0
C9176 C 0.91529 0.10814 0.50016 0.0
C9177 C 0.89885 0.0971 0.49814 0.0
C9178 C 0.92253 0.11345 0.50673 0.0
C9179 C 0.92018 0.11502 0.51754 0.0
C9180 C 0.90586 0.10404 0.50454 0.0
C9181 C 0.9104 0.11131 0.52147 0.0
C9182 C 0.89478 0.08764 0.50248 0.0
C9183 C 0.89143 0.09271 0.48123 0.0
N9184 N 0.90367 0.10578 0.51503 0.0
N9185 N 0.89703 0.09938 0.48769 0.0
H9186 H 0.41007 0.13097 0.23359 0.0
H9187 H 0.40327 0.18682 0.26295 0.0
H9188 H 0.43559 0.15347 0.23867 0.0
H9189 H 0.38188 0.16069 0.26955 0.0
H9190 H 0.41383 0.17514 0.25172 0.0
H9191 H 0.39849 0.14199 0.24496 0.0
C9192 C 0.41326 0.13815 0.23713 0.0
C9193 C 0.42383 0.14129 0.23513 0.0
C9194 C 0.40682 0.17194 0.25561 0.0
C9195 C 0.41061 0.15396 0.24793 0.0
C9196 C 0.40072 0.17863 0.26199 0.0
C9197 C 0.39167 0.17474 0.26728 0.0
C9198 C 0.40386 0.16123 0.25436 0.0
C9199 C 0.38882 0.16402 0.26566 0.0
C9200 C 0.40665 0.14442 0.24361 0.0
C9201 C 0.42753 0.15069 0.23995 0.0
N9202 N 0.3949 0.15762 0.25933 0.0
N9203 N 0.42092 0.1567 0.24602 0.0
H9204 H 0.31589 0.65472 0.01435 0.0
H9205 H 0.37074 0.66165 0.98344 0.0
H9206 H 0.34179 0.63268 0.01961 0.0
H9207 H 0.34935 0.68753 0.99096 0.0
H9208 H 0.35998 0.64984 0.99483 0.0
H9209 H 0.32755 0.66556 0.00336 0.0
C9210 C 0.32402 0.65209 0.01314 0.0
C9211 C 0.32786 0.64277 0.01798 0.0
C9212 C 0.35774 0.65814 0.99401 0.0
C9213 C 0.34133 0.65527 0.00534 0.0
C9214 C 0.36386 0.66488 0.98753 0.0
C9215 C 0.36094 0.67561 0.98619 0.0
C9216 C 0.34856 0.66214 0.999 0.0
C9217 C 0.35194 0.67934 0.9917 0.0
C9218 C 0.33071 0.65835 0.0069 0.0
C9219 C 0.3385 0.63983 0.01607 0.0
N9220 N 0.34605 0.67261 0.99775 0.0
N9221 N 0.34489 0.64606 0.00987 0.0
H9222 H 0.82323 0.61618 0.74942 0.0
H9223 H 0.86653 0.57284 0.75352 0.0
H9224 H 0.84502 0.61252 0.72311 0.0
H9225 H 0.86288 0.59463 0.77983 0.0
H9226 H 0.85694 0.58547 0.74202 0.0
H9227 H 0.83586 0.60658 0.76091 0.0
C9228 C 0.83073 0.61347 0.74611 0.0
C9229 C 0.83315 0.61517 0.73534 0.0
C9230 C 0.8584 0.58752 0.75027 0.0
C9231 C 0.84735 0.60395 0.74828 0.0
C9232 C 0.86382 0.58034 0.75682 0.0
C9233 C 0.86552 0.58275 0.76759 0.0
C9234 C 0.85433 0.59696 0.75465 0.0
C9235 C 0.86181 0.59254 0.77153 0.0
C9236 C 0.83791 0.60804 0.75266 0.0
C9237 C 0.84293 0.61145 0.73141 0.0
N9238 N 0.85618 0.59921 0.76511 0.0
N9239 N 0.8496 0.6058 0.73783 0.0
H9240 H 0.41074 0.12063 0.01894 0.0
H9241 H 0.40354 0.06493 0.98937 0.0
H9242 H 0.43617 0.09809 0.01357 0.0
H9243 H 0.38227 0.09121 0.98297 0.0
H9244 H 0.41419 0.07651 1.00064 0.0
H9245 H 0.39904 0.10968 0.00763 0.0
C9246 C 0.41389 0.11345 0.01535 0.0
C9247 C 0.42447 0.11028 0.01723 0.0
C9248 C 0.40719 0.07976 0.99679 0.0
C9249 C 0.4111 0.09769 0.00451 0.0
C9250 C 0.40104 0.07313 0.99039 0.0
C9251 C 0.39199 0.0771 0.98514 0.0
C9252 C 0.40429 0.09048 0.99809 0.0
C9253 C 0.3892 0.08782 0.98683 0.0
C9254 C 0.40721 0.10722 0.00891 0.0
C9255 C 0.4281 0.10088 0.01237 0.0
N9256 N 0.39533 0.09416 0.99317 0.0
N9257 N 0.42142 0.09491 0.00633 0.0
H9258 H 0.84921 0.68663 0.48916 0.0
H9259 H 0.84189 0.63131 0.51943 0.0
H9260 H 0.87033 0.66018 0.48298 0.0
H9261 H 0.81659 0.65399 0.51402 0.0
H9262 H 0.85358 0.64205 0.50791 0.0
H9263 H 0.83856 0.67524 0.50062 0.0
C9264 C 0.85168 0.67843 0.49026 0.0
C9265 C 0.86068 0.67436 0.48502 0.0
C9266 C 0.84544 0.64459 0.50923 0.0
C9267 C 0.84839 0.6612 0.4982 0.0
C9268 C 0.83877 0.63848 0.51579 0.0
C9269 C 0.82823 0.64174 0.51773 0.0
C9270 C 0.84158 0.6541 0.50476 0.0
C9271 C 0.82462 0.65111 0.51279 0.0
C9272 C 0.84553 0.67191 0.49678 0.0
C9273 C 0.86343 0.66365 0.48682 0.0
N9274 N 0.83129 0.65697 0.50663 0.0
N9275 N 0.8573 0.65741 0.49328 0.0
H9276 H 0.37044 0.59156 0.26924 0.0
H9277 H 0.31571 0.59797 0.23797 0.0
H9278 H 0.34923 0.56552 0.26178 0.0
H9279 H 0.34145 0.62025 0.23293 0.0
H9280 H 0.32737 0.58725 0.24907 0.0
H9281 H 0.35964 0.60325 0.25777 0.0
C9282 C 0.3636 0.58827 0.26515 0.0
C9283 C 0.36073 0.57753 0.26652 0.0
C9284 C 0.33049 0.59449 0.24555 0.0
C9285 C 0.34831 0.59087 0.25362 0.0
C9286 C 0.32381 0.60068 0.23925 0.0
C9287 C 0.3276 0.61004 0.23444 0.0
C9288 C 0.34107 0.59766 0.24721 0.0
C9289 C 0.3382 0.61308 0.23644 0.0
C9290 C 0.35745 0.59495 0.25862 0.0
C9291 C 0.35177 0.57372 0.26101 0.0
N9292 N 0.34459 0.6069 0.24271 0.0
N9293 N 0.34585 0.58039 0.25491 0.0
H9294 H 0.90349 0.18631 0.76363 0.0
H9295 H 0.91141 0.13091 0.73372 0.0
H9296 H 0.88269 0.15966 0.77005 0.0
H9297 H 0.93652 0.1538 0.73912 0.0
H9298 H 0.89961 0.1416 0.74517 0.0
H9299 H 0.91427 0.17496 0.75227 0.0
C9300 C 0.90112 0.17808 0.7626 0.0
C9301 C 0.89217 0.17394 0.76788 0.0
C9302 C 0.90773 0.14419 0.74386 0.0
C9303 C 0.90461 0.16082 0.75481 0.0
C9304 C 0.91447 0.13812 0.73734 0.0
C9305 C 0.92499 0.14146 0.73542 0.0
C9306 C 0.91151 0.15375 0.74831 0.0
C9307 C 0.9285 0.15087 0.74034 0.0
C9308 C 0.90735 0.17157 0.75614 0.0
C9309 C 0.88954 0.16318 0.76617 0.0
N9310 N 0.92177 0.1567 0.74645 0.0
N9311 N 0.89575 0.15697 0.75977 0.0
H9312 H 0.4833 0.09188 0.88122 0.0
H9313 H 0.5133 0.09861 0.93673 0.0
H9314 H 0.48901 0.06623 0.90343 0.0
H9315 H 0.51931 0.12027 0.91068 0.0
H9316 H 0.50207 0.08798 0.9251 0.0
H9317 H 0.49469 0.1035 0.89217 0.0
C9318 C 0.48699 0.08867 0.88833 0.0
C9319 C 0.48516 0.07805 0.89141 0.0
C9320 C 0.50583 0.09506 0.9219 0.0
C9321 C 0.49798 0.09132 0.90399 0.0
C9322 C 0.51221 0.1012 0.92857 0.0
C9323 C 0.51733 0.11035 0.92468 0.0
C9324 C 0.50442 0.09809 0.91124 0.0
C9325 C 0.51555 0.11326 0.914 0.0
C9326 C 0.49347 0.0953 0.89456 0.0
C9327 C 0.49015 0.07433 0.9007 0.0
N9328 N 0.50923 0.10714 0.90763 0.0
N9329 N 0.49623 0.08096 0.90668 0.0
H9330 H 0.24146 0.15247 0.43803 0.0
H9331 H 0.26967 0.16091 0.38183 0.0
H9332 H 0.2332 0.13266 0.41113 0.0
H9333 H 0.26524 0.18569 0.40529 0.0
H9334 H 0.25844 0.14904 0.3927 0.0
H9335 H 0.2529 0.16303 0.42654 0.0
C9336 C 0.2421 0.15026 0.42971 0.0
C9337 C 0.23626 0.14168 0.42555 0.0
C9338 C 0.25992 0.1571 0.39538 0.0
C9339 C 0.24942 0.15387 0.41227 0.0
C9340 C 0.26631 0.16388 0.3892 0.0
C9341 C 0.26842 0.17433 0.39264 0.0
C9342 C 0.25581 0.16077 0.40512 0.0
C9343 C 0.26385 0.17773 0.40227 0.0
C9344 C 0.24861 0.15636 0.42313 0.0
C9345 C 0.23751 0.13923 0.41468 0.0
N9346 N 0.25787 0.17096 0.40818 0.0
N9347 N 0.24396 0.14532 0.40839 0.0
H9348 H 0.48329 0.1602 0.37131 0.0
H9349 H 0.51058 0.15202 0.31463 0.0
H9350 H 0.48702 0.18498 0.34773 0.0
H9351 H 0.51979 0.13249 0.34143 0.0
H9352 H 0.49915 0.16237 0.32629 0.0
H9353 H 0.49447 0.14843 0.36026 0.0
C9354 C 0.48649 0.16319 0.36387 0.0
C9355 C 0.4842 0.17361 0.36045 0.0
C9356 C 0.50364 0.1558 0.32964 0.0
C9357 C 0.49674 0.16017 0.34777 0.0
C9358 C 0.51015 0.14982 0.32296 0.0
C9359 C 0.51626 0.1414 0.32705 0.0
C9360 C 0.5031 0.15335 0.34053 0.0
C9361 C 0.51527 0.13896 0.33794 0.0
C9362 C 0.49285 0.15647 0.35759 0.0
C9363 C 0.48855 0.17704 0.35074 0.0
N9364 N 0.50882 0.14493 0.34434 0.0
N9365 N 0.49451 0.17033 0.34473 0.0
H9366 H 0.23356 0.121 0.84208 0.0
H9367 H 0.26308 0.06528 0.84934 0.0
H9368 H 0.23881 0.09835 0.81672 0.0
H9369 H 0.26954 0.09159 0.87056 0.0
H9370 H 0.25181 0.07685 0.83869 0.0
H9371 H 0.2449 0.11007 0.85378 0.0
C9372 C 0.23713 0.1138 0.83895 0.0
C9373 C 0.2352 0.11059 0.82839 0.0
C9374 C 0.25567 0.08011 0.84568 0.0
C9375 C 0.24795 0.09804 0.84175 0.0
C9376 C 0.26208 0.07348 0.85183 0.0
C9377 C 0.26735 0.07746 0.86086 0.0
C9378 C 0.25438 0.09083 0.84856 0.0
C9379 C 0.26567 0.08819 0.86364 0.0
C9380 C 0.24358 0.10758 0.84563 0.0
C9381 C 0.24004 0.10118 0.82477 0.0
N9382 N 0.25932 0.09452 0.85751 0.0
N9383 N 0.24609 0.09522 0.83145 0.0
H9384 H 0.48841 0.68704 0.84903 0.0
H9385 H 0.51928 0.63216 0.84234 0.0
H9386 H 0.48261 0.66109 0.87089 0.0
H9387 H 0.51188 0.65355 0.81641 0.0
H9388 H 0.5078 0.64292 0.85408 0.0
H9389 H 0.49955 0.67537 0.83838 0.0
C9390 C 0.48953 0.67889 0.85167 0.0
C9391 C 0.48449 0.67505 0.86088 0.0
C9392 C 0.50867 0.64515 0.84579 0.0
C9393 C 0.49732 0.66157 0.84857 0.0
C9394 C 0.5152 0.63903 0.83909 0.0
C9395 C 0.5166 0.64196 0.82836 0.0
C9396 C 0.5037 0.65433 0.84176 0.0
C9397 C 0.5111 0.65095 0.8246 0.0
C9398 C 0.49586 0.67221 0.84551 0.0
C9399 C 0.48631 0.66439 0.86383 0.0
N9400 N 0.50501 0.65684 0.8313 0.0
N9401 N 0.4926 0.65799 0.85769 0.0
H9402 H 0.28013 0.59435 0.36212 0.0
H9403 H 0.22218 0.61153 0.34397 0.0
H9404 H 0.25372 0.57258 0.36518 0.0
H9405 H 0.24888 0.61503 0.32264 0.0
H9406 H 0.23372 0.60179 0.35647 0.0
H9407 H 0.26854 0.60665 0.35219 0.0
C9408 C 0.27184 0.59228 0.36091 0.0
C9409 C 0.26785 0.58245 0.36443 0.0
C9410 C 0.23704 0.60487 0.34912 0.0
C9411 C 0.25463 0.59649 0.35335 0.0
C9412 C 0.23052 0.61046 0.34204 0.0
C9413 C 0.23462 0.61405 0.33228 0.0
C9414 C 0.24777 0.60318 0.34654 0.0
C9415 C 0.24544 0.61234 0.33008 0.0
C9416 C 0.26529 0.59925 0.35522 0.0
C9417 C 0.25709 0.58008 0.36256 0.0
N9418 N 0.25168 0.60705 0.33719 0.0
N9419 N 0.25081 0.58708 0.35716 0.0
H9420 H 0.24921 0.63683 0.93035 0.0
H9421 H 0.25354 0.67996 0.8869 0.0
H9422 H 0.22302 0.64042 0.90841 0.0
H9423 H 0.2799 0.6583 0.8909 0.0
H9424 H 0.24199 0.66731 0.8964 0.0
H9425 H 0.2608 0.64632 0.91773 0.0
C9426 C 0.24596 0.6395 0.92282 0.0
C9427 C 0.23519 0.63782 0.92037 0.0
C9428 C 0.25027 0.66528 0.89503 0.0
C9429 C 0.24823 0.64891 0.90616 0.0
C9430 C 0.25684 0.67248 0.88966 0.0
C9431 C 0.26764 0.67011 0.88809 0.0
C9432 C 0.25464 0.65588 0.89919 0.0
C9433 C 0.27158 0.66035 0.89187 0.0
C9434 C 0.25255 0.64487 0.91564 0.0
C9435 C 0.23131 0.64148 0.91053 0.0
N9436 N 0.26513 0.65366 0.89746 0.0
N9437 N 0.23778 0.64707 0.90386 0.0
H9438 H 0.48265 0.59161 0.38124 0.0
H9439 H 0.51263 0.59816 0.4368 0.0
H9440 H 0.48838 0.56588 0.40336 0.0
H9441 H 0.51851 0.61997 0.41084 0.0
H9442 H 0.50141 0.58756 0.42513 0.0
H9443 H 0.49398 0.60321 0.39226 0.0
C9444 C 0.48633 0.58837 0.38834 0.0
C9445 C 0.48452 0.57774 0.39137 0.0
C9446 C 0.50513 0.59467 0.42197 0.0
C9447 C 0.49728 0.59099 0.40404 0.0
C9448 C 0.51151 0.60079 0.42865 0.0
C9449 C 0.51659 0.60997 0.4248 0.0
C9450 C 0.50369 0.59774 0.41132 0.0
C9451 C 0.51478 0.61293 0.41414 0.0
C9452 C 0.49278 0.595 0.39461 0.0
C9453 C 0.48951 0.574 0.40067 0.0
N9454 N 0.50846 0.60683 0.40775 0.0
N9455 N 0.49555 0.58062 0.40669 0.0
H9456 H 0.51933 0.91096 0.12132 0.0
H9457 H 0.48968 0.90307 0.06574 0.0
H9458 H 0.51425 0.936 0.09827 0.0
H9459 H 0.4831 0.88231 0.09238 0.0
H9460 H 0.50109 0.91379 0.07711 0.0
H9461 H 0.50794 0.89915 0.11056 0.0
C9462 C 0.51579 0.914 0.11406 0.0
C9463 C 0.51777 0.9245 0.1107 0.0
C9464 C 0.49717 0.90688 0.08049 0.0
C9465 C 0.50496 0.91102 0.09833 0.0
C9466 C 0.49068 0.9007 0.07397 0.0
C9467 C 0.48534 0.89178 0.0781 0.0
C9468 C 0.49847 0.90415 0.09125 0.0
C9469 C 0.48703 0.88914 0.08887 0.0
C9470 C 0.50931 0.90726 0.10794 0.0
C9471 C 0.51297 0.928 0.10122 0.0
N9472 N 0.49346 0.89531 0.09509 0.0
N9473 N 0.50689 0.92126 0.09536 0.0
H9474 H 0.74904 0.8225 0.61622 0.0
H9475 H 0.75382 0.86605 0.57327 0.0
H9476 H 0.72294 0.84453 0.61248 0.0
H9477 H 0.78005 0.86182 0.59506 0.0
H9478 H 0.74215 0.85661 0.58585 0.0
H9479 H 0.76075 0.83513 0.6069 0.0
C9480 C 0.74583 0.83006 0.61355 0.0
C9481 C 0.73505 0.83253 0.61514 0.0
C9482 C 0.75042 0.85791 0.58792 0.0
C9483 C 0.74823 0.84675 0.60424 0.0
C9484 C 0.75707 0.86325 0.58077 0.0
C9485 C 0.76787 0.86473 0.58318 0.0
C9486 C 0.75473 0.85371 0.59734 0.0
C9487 C 0.77173 0.86091 0.59296 0.0
C9488 C 0.75249 0.83724 0.60828 0.0
C9489 C 0.73124 0.84239 0.61149 0.0
N9490 N 0.76521 0.85536 0.5996 0.0
N9491 N 0.73778 0.84906 0.60599 0.0
H9492 H 0.51329 0.81588 0.65356 0.0
H9493 H 0.48345 0.87145 0.66055 0.0
H9494 H 0.51957 0.8421 0.63218 0.0
H9495 H 0.48883 0.84897 0.68604 0.0
H9496 H 0.49492 0.86057 0.64893 0.0
H9497 H 0.50204 0.82747 0.66421 0.0
C9498 C 0.51225 0.82407 0.65103 0.0
C9499 C 0.51746 0.82801 0.64195 0.0
C9500 C 0.49361 0.85811 0.6571 0.0
C9501 C 0.50451 0.84141 0.65425 0.0
C9502 C 0.48709 0.8643 0.66373 0.0
C9503 C 0.48514 0.86112 0.6743 0.0
C9504 C 0.49804 0.84861 0.66103 0.0
C9505 C 0.49006 0.85177 0.67798 0.0
C9506 C 0.50586 0.83071 0.65718 0.0
C9507 C 0.51575 0.83873 0.63913 0.0
N9508 N 0.49618 0.84583 0.67134 0.0
N9509 N 0.5094 0.84507 0.64526 0.0
H9510 H 0.73931 0.93675 0.15366 0.0
H9511 H 0.76961 0.8814 0.16051 0.0
H9512 H 0.73355 0.91064 0.13199 0.0
H9513 H 0.76378 0.90363 0.18611 0.0
H9514 H 0.75822 0.8923 0.14884 0.0
H9515 H 0.75059 0.9252 0.16432 0.0
C9516 C 0.74047 0.9286 0.15107 0.0
C9517 C 0.7354 0.92467 0.14191 0.0
C9518 C 0.75942 0.8947 0.15704 0.0
C9519 C 0.74839 0.91132 0.15421 0.0
C9520 C 0.7659 0.8885 0.1637 0.0
C9521 C 0.76769 0.8916 0.17432 0.0
C9522 C 0.75486 0.90413 0.161 0.0
C9523 C 0.76267 0.90089 0.17801 0.0
C9524 C 0.74688 0.92198 0.15723 0.0
C9525 C 0.73726 0.914 0.13901 0.0
N9526 N 0.75658 0.90684 0.17135 0.0
N9527 N 0.74363 0.90768 0.14515 0.0
H9528 H 0.48742 0.34819 0.18703 0.0
H9529 H 0.51843 0.34086 0.13227 0.0
H9530 H 0.48211 0.36989 0.16086 0.0
H9531 H 0.51131 0.31522 0.15408 0.0
H9532 H 0.50698 0.3527 0.14291 0.0
H9533 H 0.49857 0.33733 0.17557 0.0
C9534 C 0.48865 0.35074 0.17888 0.0
C9535 C 0.48375 0.35997 0.17491 0.0
C9536 C 0.5079 0.34445 0.14527 0.0
C9537 C 0.49658 0.34743 0.16166 0.0
C9538 C 0.51442 0.33769 0.13922 0.0
C9539 C 0.51588 0.32702 0.14229 0.0
C9540 C 0.503 0.34053 0.15453 0.0
C9541 C 0.51047 0.32336 0.15138 0.0
C9542 C 0.49498 0.34447 0.17231 0.0
C9543 C 0.4857 0.36281 0.16424 0.0
N9544 N 0.50438 0.33012 0.1572 0.0
N9545 N 0.49199 0.35656 0.15796 0.0
H9546 H 0.73281 0.41009 0.63193 0.0
H9547 H 0.76407 0.40352 0.6866 0.0
H9548 H 0.74035 0.43607 0.65319 0.0
H9549 H 0.76962 0.38158 0.66068 0.0
H9550 H 0.75287 0.41417 0.67499 0.0
H9551 H 0.74436 0.39838 0.64264 0.0
C9552 C 0.73694 0.41336 0.63876 0.0
C9553 C 0.73556 0.42409 0.64168 0.0
C9554 C 0.75653 0.40702 0.67182 0.0
C9555 C 0.74854 0.41073 0.65399 0.0
C9556 C 0.76289 0.40087 0.67848 0.0
C9557 C 0.76787 0.39163 0.67462 0.0
C9558 C 0.75498 0.40393 0.66119 0.0
C9559 C 0.76597 0.38866 0.66398 0.0
C9560 C 0.74351 0.40667 0.64485 0.0
C9561 C 0.74112 0.42788 0.65062 0.0
N9562 N 0.75965 0.3948 0.65761 0.0
N9563 N 0.74725 0.4212 0.65648 0.0
H9564 H 0.73373 0.34184 0.1199 0.0
H9565 H 0.76429 0.34889 0.06484 0.0
H9566 H 0.74037 0.31615 0.09799 0.0
H9567 H 0.77025 0.3704 0.09103 0.0
H9568 H 0.75308 0.33818 0.0764 0.0
H9569 H 0.74522 0.35357 0.10916 0.0
C9570 C 0.73765 0.33864 0.1129 0.0
C9571 C 0.73604 0.32798 0.10983 0.0
C9572 C 0.75682 0.34524 0.07964 0.0
C9573 C 0.74896 0.34137 0.09749 0.0
C9574 C 0.76319 0.35143 0.07302 0.0
C9575 C 0.7683 0.36056 0.07697 0.0
C9576 C 0.7554 0.3482 0.09032 0.0
C9577 C 0.76651 0.3634 0.08766 0.0
C9578 C 0.74418 0.34533 0.1068 0.0
C9579 C 0.74132 0.32428 0.10069 0.0
N9580 N 0.76018 0.35724 0.09399 0.0
N9581 N 0.74744 0.33097 0.09482 0.0
H9582 H 0.48895 0.40313 0.56464 0.0
H9583 H 0.51838 0.41073 0.62037 0.0
H9584 H 0.48272 0.38188 0.59098 0.0
H9585 H 0.51294 0.43601 0.59767 0.0
H9586 H 0.50718 0.39891 0.60944 0.0
H9587 H 0.50015 0.41389 0.57618 0.0
C9588 C 0.48999 0.40065 0.57284 0.0
C9589 C 0.4848 0.39158 0.57684 0.0
C9590 C 0.50842 0.40707 0.60694 0.0
C9591 C 0.49768 0.40401 0.59018 0.0
C9592 C 0.51479 0.41382 0.61315 0.0
C9593 C 0.51663 0.42439 0.60994 0.0
C9594 C 0.50404 0.41089 0.59738 0.0
C9595 C 0.51178 0.42795 0.60051 0.0
C9596 C 0.49635 0.40687 0.57946 0.0
C9597 C 0.48652 0.38882 0.58757 0.0
N9598 N 0.50581 0.42121 0.59455 0.0
N9599 N 0.49283 0.39502 0.59389 0.0
loop_
_geom_bond_atom_site_label_1
_geom_bond_atom_site_label_2
_geom_bond_distance
_geom_bond_site_symmetry_2
_ccdc_geom_bond_type
O0 Cd1 2.223 . S
O0 C8 1.315 . S
Cd1 O0 2.223 . S
Cd1 O4 2.297 . S
Cd1 O5 2.439 . S
Cd1 O11 2.240 . S
Cd2 O3 2.240 . S
Cd2 O10 2.223 . S
Cd2 O12 2.297 . S
Cd2 O13 2.439 . S
O3 Cd2 2.240 . S
O3 C8 1.279 . S
O4 Cd1 2.297 . S
O4 C6 1.247 . S
O5 Cd1 2.439 . S
O5 C6 1.208 . S
C6 O4 1.247 . S
C6 O5 1.208 . S
C7 O12 1.247 . S
C7 O13 1.208 . S
C8 O0 1.315 . S
C8 O3 1.279 . S
C9 O10 1.315 . S
C9 O11 1.279 . S
O10 Cd2 2.223 . S
O10 C9 1.315 . S
O11 Cd1 2.240 . S
O11 C9 1.279 . S
O12 Cd2 2.297 . S
O12 C7 1.247 . S
O13 Cd2 2.439 . S
O13 C7 1.208 . S
O14 Cd15 2.223 . S
O14 C22 1.315 . S
Cd15 O14 2.223 . S
Cd15 O18 2.297 . S
Cd15 O19 2.439 . S
Cd15 O25 2.240 . S
Cd16 O17 2.240 . S
Cd16 O24 2.223 . S
Cd16 O26 2.297 . S
Cd16 O27 2.439 . S
O17 Cd16 2.240 . S
O17 C22 1.279 . S
O18 Cd15 2.297 . S
O18 C20 1.247 . S
O19 Cd15 2.439 . S
O19 C20 1.208 . S
C20 O18 1.247 . S
C20 O19 1.208 . S
C21 O26 1.247 . S
C21 O27 1.208 . S
C22 O14 1.315 . S
C22 O17 1.279 . S
C23 O24 1.315 . S
C23 O25 1.279 . S
O24 Cd16 2.223 . S
O24 C23 1.315 . S
O25 Cd15 2.240 . S
O25 C23 1.279 . S
O26 Cd16 2.297 . S
O26 C21 1.247 . S
O27 Cd16 2.439 . S
O27 C21 1.208 . S
O28 Cd29 2.223 . S
O28 C36 1.315 . S
Cd29 O28 2.223 . S
Cd29 O32 2.297 . S
Cd29 O33 2.439 . S
Cd29 O39 2.240 . S
Cd30 O31 2.240 . S
Cd30 O38 2.223 . S
Cd30 O40 2.297 . S
Cd30 O41 2.439 . S
O31 Cd30 2.240 . S
O31 C36 1.279 . S
O32 Cd29 2.297 . S
O32 C34 1.247 . S
O33 Cd29 2.439 . S
O33 C34 1.208 . S
C34 O32 1.247 . S
C34 O33 1.208 . S
C35 O40 1.247 . S
C35 O41 1.208 . S
C36 O28 1.315 . S
C36 O31 1.279 . S
C37 O38 1.315 . S
C37 O39 1.279 . S
O38 Cd30 2.223 . S
O38 C37 1.315 . S
O39 Cd29 2.240 . S
O39 C37 1.279 . S
O40 Cd30 2.297 . S
O40 C35 1.247 . S
O41 Cd30 2.439 . S
O41 C35 1.208 . S
O42 Cd43 2.223 . S
O42 C50 1.315 . S
Cd43 O42 2.223 . S
Cd43 O46 2.297 . S
Cd43 O47 2.439 . S
Cd43 O53 2.240 . S
Cd44 O45 2.240 . S
Cd44 O52 2.223 . S
Cd44 O54 2.297 . S
Cd44 O55 2.439 . S
O45 Cd44 2.240 . S
O45 C50 1.279 . S
O46 Cd43 2.297 . S
O46 C48 1.247 . S
O47 Cd43 2.439 . S
O47 C48 1.208 . S
C48 O46 1.247 . S
C48 O47 1.208 . S
C49 O54 1.247 . S
C49 O55 1.208 . S
C50 O42 1.315 . S
C50 O45 1.279 . S
C51 O52 1.315 . S
C51 O53 1.279 . S
O52 Cd44 2.223 . S
O52 C51 1.315 . S
O53 Cd43 2.240 . S
O53 C51 1.279 . S
O54 Cd44 2.297 . S
O54 C49 1.247 . S
O55 Cd44 2.439 . S
O55 C49 1.208 . S
O56 Cd57 2.223 . S
O56 C64 1.315 . S
Cd57 O56 2.223 . S
Cd57 O60 2.297 . S
Cd57 O61 2.439 . S
Cd57 O67 2.240 . S
Cd58 O59 2.240 . S
Cd58 O66 2.223 . S
Cd58 O68 2.297 . S
Cd58 O69 2.439 . S
O59 Cd58 2.240 . S
O59 C64 1.279 . S
O60 Cd57 2.297 . S
O60 C62 1.247 . S
O61 Cd57 2.439 . S
O61 C62 1.208 . S
C62 O60 1.247 . S
C62 O61 1.208 . S
C63 O68 1.247 . S
C63 O69 1.208 . S
C64 O56 1.315 . S
C64 O59 1.279 . S
C65 O66 1.315 . S
C65 O67 1.279 . S
O66 Cd58 2.223 . S
O66 C65 1.315 . S
O67 Cd57 2.240 . S
O67 C65 1.279 . S
O68 Cd58 2.297 . S
O68 C63 1.247 . S
O69 Cd58 2.439 . S
O69 C63 1.208 . S
O70 Cd71 2.223 . S
O70 C78 1.315 . S
Cd71 O70 2.223 . S
Cd71 O74 2.297 . S
Cd71 O75 2.439 . S
Cd71 O81 2.240 . S
Cd72 O73 2.240 . S
Cd72 O80 2.223 . S
Cd72 O82 2.297 . S
Cd72 O83 2.439 . S
O73 Cd72 2.240 . S
O73 C78 1.279 . S
O74 Cd71 2.297 . S
O74 C76 1.247 . S
O75 Cd71 2.439 . S
O75 C76 1.208 . S
C76 O74 1.247 . S
C76 O75 1.208 . S
C77 O82 1.247 . S
C77 O83 1.208 . S
C78 O70 1.315 . S
C78 O73 1.279 . S
C79 O80 1.315 . S
C79 O81 1.279 . S
O80 Cd72 2.223 . S
O80 C79 1.315 . S
O81 Cd71 2.240 . S
O81 C79 1.279 . S
O82 Cd72 2.297 . S
O82 C77 1.247 . S
O83 Cd72 2.439 . S
O83 C77 1.208 . S
O84 Cd85 2.223 . S
O84 C92 1.315 . S
Cd85 O84 2.223 . S
Cd85 O88 2.297 . S
Cd85 O89 2.439 . S
Cd85 O95 2.240 . S
Cd86 O87 2.240 . S
Cd86 O94 2.223 . S
Cd86 O96 2.297 . S
Cd86 O97 2.439 . S
O87 Cd86 2.240 . S
O87 C92 1.279 . S
O88 Cd85 2.297 . S
O88 C90 1.247 . S
O89 Cd85 2.439 . S
O89 C90 1.208 . S
C90 O88 1.247 . S
C90 O89 1.208 . S
C91 O96 1.247 . S
C91 O97 1.208 . S
C92 O84 1.315 . S
C92 O87 1.279 . S
C93 O94 1.315 . S
C93 O95 1.279 . S
O94 Cd86 2.223 . S
O94 C93 1.315 . S
O95 Cd85 2.240 . S
O95 C93 1.279 . S
O96 Cd86 2.297 . S
O96 C91 1.247 . S
O97 Cd86 2.439 . S
O97 C91 1.208 . S
O98 Cd99 2.223 . S
O98 C106 1.315 . S
Cd99 O98 2.223 . S
Cd99 O102 2.297 . S
Cd99 O103 2.439 . S
Cd99 O109 2.240 . S
Cd100 O101 2.240 . S
Cd100 O108 2.223 . S
Cd100 O110 2.297 . S
Cd100 O111 2.439 . S
O101 Cd100 2.240 . S
O101 C106 1.279 . S
O102 Cd99 2.297 . S
O102 C104 1.247 . S
O103 Cd99 2.439 . S
O103 C104 1.208 . S
C104 O102 1.247 . S
C104 O103 1.208 . S
C105 O110 1.247 . S
C105 O111 1.208 . S
C106 O98 1.315 . S
C106 O101 1.279 . S
C107 O108 1.315 . S
C107 O109 1.279 . S
O108 Cd100 2.223 . S
O108 C107 1.315 . S
O109 Cd99 2.240 . S
O109 C107 1.279 . S
O110 Cd100 2.297 . S
O110 C105 1.247 . S
O111 Cd100 2.439 . S
O111 C105 1.208 . S
O112 Cd113 2.223 . S
O112 C120 1.315 . S
Cd113 O112 2.223 . S
Cd113 O116 2.297 . S
Cd113 O117 2.439 . S
Cd113 O123 2.240 . S
Cd114 O115 2.240 . S
Cd114 O122 2.223 . S
Cd114 O124 2.297 . S
Cd114 O125 2.439 . S
O115 Cd114 2.240 . S
O115 C120 1.279 . S
O116 Cd113 2.297 . S
O116 C118 1.247 . S
O117 Cd113 2.439 . S
O117 C118 1.208 . S
C118 O116 1.247 . S
C118 O117 1.208 . S
C119 O124 1.247 . S
C119 O125 1.208 . S
C120 O112 1.315 . S
C120 O115 1.279 . S
C121 O122 1.315 . S
C121 O123 1.279 . S
O122 Cd114 2.223 . S
O122 C121 1.315 . S
O123 Cd113 2.240 . S
O123 C121 1.279 . S
O124 Cd114 2.297 . S
O124 C119 1.247 . S
O125 Cd114 2.439 . S
O125 C119 1.208 . S
O126 Cd127 2.223 . S
O126 C134 1.315 . S
Cd127 O126 2.223 . S
Cd127 O130 2.297 . S
Cd127 O131 2.439 . S
Cd127 O137 2.240 . S
Cd128 O129 2.240 . S
Cd128 O136 2.223 . S
Cd128 O138 2.297 . S
Cd128 O139 2.439 . S
O129 Cd128 2.240 . S
O129 C134 1.279 . S
O130 Cd127 2.297 . S
O130 C132 1.247 . S
O131 Cd127 2.439 . S
O131 C132 1.208 . S
C132 O130 1.247 . S
C132 O131 1.208 . S
C133 O138 1.247 . S
C133 O139 1.208 . S
C134 O126 1.315 . S
C134 O129 1.279 . S
C135 O136 1.315 . S
C135 O137 1.279 . S
O136 Cd128 2.223 . S
O136 C135 1.315 . S
O137 Cd127 2.240 . S
O137 C135 1.279 . S
O138 Cd128 2.297 . S
O138 C133 1.247 . S
O139 Cd128 2.439 . S
O139 C133 1.208 . S
O140 Cd141 2.223 . S
O140 C148 1.315 . S
Cd141 O140 2.223 . S
Cd141 O144 2.297 . S
Cd141 O145 2.439 . S
Cd141 O151 2.240 . S
Cd142 O143 2.240 . S
Cd142 O150 2.223 . S
Cd142 O152 2.297 . S
Cd142 O153 2.439 . S
O143 Cd142 2.240 . S
O143 C148 1.279 . S
O144 Cd141 2.297 . S
O144 C146 1.247 . S
O145 Cd141 2.439 . S
O145 C146 1.208 . S
C146 O144 1.247 . S
C146 O145 1.208 . S
C147 O152 1.247 . S
C147 O153 1.208 . S
C148 O140 1.315 . S
C148 O143 1.279 . S
C149 O150 1.315 . S
C149 O151 1.279 . S
O150 Cd142 2.223 . S
O150 C149 1.315 . S
O151 Cd141 2.240 . S
O151 C149 1.279 . S
O152 Cd142 2.297 . S
O152 C147 1.247 . S
O153 Cd142 2.439 . S
O153 C147 1.208 . S
O154 Cd155 2.223 . S
O154 C162 1.315 . S
Cd155 O154 2.223 . S
Cd155 O158 2.297 . S
Cd155 O159 2.439 . S
Cd155 O165 2.240 . S
Cd156 O157 2.240 . S
Cd156 O164 2.223 . S
Cd156 O166 2.297 . S
Cd156 O167 2.439 . S
O157 Cd156 2.240 . S
O157 C162 1.279 . S
O158 Cd155 2.297 . S
O158 C160 1.247 . S
O159 Cd155 2.439 . S
O159 C160 1.208 . S
C160 O158 1.247 . S
C160 O159 1.208 . S
C161 O166 1.247 . S
C161 O167 1.208 . S
C162 O154 1.315 . S
C162 O157 1.279 . S
C163 O164 1.315 . S
C163 O165 1.279 . S
O164 Cd156 2.223 . S
O164 C163 1.315 . S
O165 Cd155 2.240 . S
O165 C163 1.279 . S
O166 Cd156 2.297 . S
O166 C161 1.247 . S
O167 Cd156 2.439 . S
O167 C161 1.208 . S
O168 Cd169 2.223 . S
O168 C176 1.315 . S
Cd169 O168 2.223 . S
Cd169 O172 2.297 . S
Cd169 O173 2.439 . S
Cd169 O179 2.240 . S
Cd170 O171 2.240 . S
Cd170 O178 2.223 . S
Cd170 O180 2.297 . S
Cd170 O181 2.439 . S
O171 Cd170 2.240 . S
O171 C176 1.279 . S
O172 Cd169 2.297 . S
O172 C174 1.247 . S
O173 Cd169 2.439 . S
O173 C174 1.208 . S
C174 O172 1.247 . S
C174 O173 1.208 . S
C175 O180 1.247 . S
C175 O181 1.208 . S
C176 O168 1.315 . S
C176 O171 1.279 . S
C177 O178 1.315 . S
C177 O179 1.279 . S
O178 Cd170 2.223 . S
O178 C177 1.315 . S
O179 Cd169 2.240 . S
O179 C177 1.279 . S
O180 Cd170 2.297 . S
O180 C175 1.247 . S
O181 Cd170 2.439 . S
O181 C175 1.208 . S
O182 Cd183 2.223 . S
O182 C190 1.315 . S
Cd183 O182 2.223 . S
Cd183 O186 2.297 . S
Cd183 O187 2.439 . S
Cd183 O193 2.240 . S
Cd184 O185 2.240 . S
Cd184 O192 2.223 . S
Cd184 O194 2.297 . S
Cd184 O195 2.439 . S
O185 Cd184 2.240 . S
O185 C190 1.279 . S
O186 Cd183 2.297 . S
O186 C188 1.247 . S
O187 Cd183 2.439 . S
O187 C188 1.208 . S
C188 O186 1.247 . S
C188 O187 1.208 . S
C189 O194 1.247 . S
C189 O195 1.208 . S
C190 O182 1.315 . S
C190 O185 1.279 . S
C191 O192 1.315 . S
C191 O193 1.279 . S
O192 Cd184 2.223 . S
O192 C191 1.315 . S
O193 Cd183 2.240 . S
O193 C191 1.279 . S
O194 Cd184 2.297 . S
O194 C189 1.247 . S
O195 Cd184 2.439 . S
O195 C189 1.208 . S
O196 Cd197 2.223 . S
O196 C204 1.315 . S
Cd197 O196 2.223 . S
Cd197 O200 2.297 . S
Cd197 O201 2.439 . S
Cd197 O207 2.240 . S
Cd198 O199 2.240 . S
Cd198 O206 2.223 . S
Cd198 O208 2.297 . S
Cd198 O209 2.439 . S
O199 Cd198 2.240 . S
O199 C204 1.279 . S
O200 Cd197 2.297 . S
O200 C202 1.247 . S
O201 Cd197 2.439 . S
O201 C202 1.208 . S
C202 O200 1.247 . S
C202 O201 1.208 . S
C203 O208 1.247 . S
C203 O209 1.208 . S
C204 O196 1.315 . S
C204 O199 1.279 . S
C205 O206 1.315 . S
C205 O207 1.279 . S
O206 Cd198 2.223 . S
O206 C205 1.315 . S
O207 Cd197 2.240 . S
O207 C205 1.279 . S
O208 Cd198 2.297 . S
O208 C203 1.247 . S
O209 Cd198 2.439 . S
O209 C203 1.208 . S
O210 Cd211 2.223 . S
O210 C218 1.315 . S
Cd211 O210 2.223 . S
Cd211 O214 2.297 . S
Cd211 O215 2.439 . S
Cd211 O221 2.240 . S
Cd212 O213 2.240 . S
Cd212 O220 2.223 . S
Cd212 O222 2.297 . S
Cd212 O223 2.439 . S
O213 Cd212 2.240 . S
O213 C218 1.279 . S
O214 Cd211 2.297 . S
O214 C216 1.247 . S
O215 Cd211 2.439 . S
O215 C216 1.208 . S
C216 O214 1.247 . S
C216 O215 1.208 . S
C217 O222 1.247 . S
C217 O223 1.208 . S
C218 O210 1.315 . S
C218 O213 1.279 . S
C219 O220 1.315 . S
C219 O221 1.279 . S
O220 Cd212 2.223 . S
O220 C219 1.315 . S
O221 Cd211 2.240 . S
O221 C219 1.279 . S
O222 Cd212 2.297 . S
O222 C217 1.247 . S
O223 Cd212 2.439 . S
O223 C217 1.208 . S
O224 Cd225 2.223 . S
O224 C232 1.315 . S
Cd225 O224 2.223 . S
Cd225 O228 2.297 . S
Cd225 O229 2.439 . S
Cd225 O235 2.240 . S
Cd226 O227 2.240 . S
Cd226 O234 2.223 . S
Cd226 O236 2.297 . S
Cd226 O237 2.439 . S
O227 Cd226 2.240 . S
O227 C232 1.279 . S
O228 Cd225 2.297 . S
O228 C230 1.247 . S
O229 Cd225 2.439 . S
O229 C230 1.208 . S
C230 O228 1.247 . S
C230 O229 1.208 . S
C231 O236 1.247 . S
C231 O237 1.208 . S
C232 O224 1.315 . S
C232 O227 1.279 . S
C233 O234 1.315 . S
C233 O235 1.279 . S
O234 Cd226 2.223 . S
O234 C233 1.315 . S
O235 Cd225 2.240 . S
O235 C233 1.279 . S
O236 Cd226 2.297 . S
O236 C231 1.247 . S
O237 Cd226 2.439 . S
O237 C231 1.208 . S
O238 Cd239 2.223 . S
O238 C246 1.315 . S
Cd239 O238 2.223 . S
Cd239 O242 2.297 . S
Cd239 O243 2.439 . S
Cd239 O249 2.240 . S
Cd240 O241 2.240 . S
Cd240 O248 2.223 . S
Cd240 O250 2.297 . S
Cd240 O251 2.439 . S
O241 Cd240 2.240 . S
O241 C246 1.279 . S
O242 Cd239 2.297 . S
O242 C244 1.247 . S
O243 Cd239 2.439 . S
O243 C244 1.208 . S
C244 O242 1.247 . S
C244 O243 1.208 . S
C245 O250 1.247 . S
C245 O251 1.208 . S
C246 O238 1.315 . S
C246 O241 1.279 . S
C247 O248 1.315 . S
C247 O249 1.279 . S
O248 Cd240 2.223 . S
O248 C247 1.315 . S
O249 Cd239 2.240 . S
O249 C247 1.279 . S
O250 Cd240 2.297 . S
O250 C245 1.247 . S
O251 Cd240 2.439 . S
O251 C245 1.208 . S
O252 Cd253 2.223 . S
O252 C260 1.315 . S
Cd253 O252 2.223 . S
Cd253 O256 2.297 . S
Cd253 O257 2.439 . S
Cd253 O263 2.240 . S
Cd254 O255 2.240 . S
Cd254 O262 2.223 . S
Cd254 O264 2.297 . S
Cd254 O265 2.439 . S
O255 Cd254 2.240 . S
O255 C260 1.279 . S
O256 Cd253 2.297 . S
O256 C258 1.247 . S
O257 Cd253 2.439 . S
O257 C258 1.208 . S
C258 O256 1.247 . S
C258 O257 1.208 . S
C259 O264 1.247 . S
C259 O265 1.208 . S
C260 O252 1.315 . S
C260 O255 1.279 . S
C261 O262 1.315 . S
C261 O263 1.279 . S
O262 Cd254 2.223 . S
O262 C261 1.315 . S
O263 Cd253 2.240 . S
O263 C261 1.279 . S
O264 Cd254 2.297 . S
O264 C259 1.247 . S
O265 Cd254 2.439 . S
O265 C259 1.208 . S
O266 Cd267 2.223 . S
O266 C274 1.315 . S
Cd267 O266 2.223 . S
Cd267 O270 2.297 . S
Cd267 O271 2.439 . S
Cd267 O277 2.240 . S
Cd268 O269 2.240 . S
Cd268 O276 2.223 . S
Cd268 O278 2.297 . S
Cd268 O279 2.439 . S
O269 Cd268 2.240 . S
O269 C274 1.279 . S
O270 Cd267 2.297 . S
O270 C272 1.247 . S
O271 Cd267 2.439 . S
O271 C272 1.208 . S
C272 O270 1.247 . S
C272 O271 1.208 . S
C273 O278 1.247 . S
C273 O279 1.208 . S
C274 O266 1.315 . S
C274 O269 1.279 . S
C275 O276 1.315 . S
C275 O277 1.279 . S
O276 Cd268 2.223 . S
O276 C275 1.315 . S
O277 Cd267 2.240 . S
O277 C275 1.279 . S
O278 Cd268 2.297 . S
O278 C273 1.247 . S
O279 Cd268 2.439 . S
O279 C273 1.208 . S
O280 Cd281 2.223 . S
O280 C288 1.315 . S
Cd281 O280 2.223 . S
Cd281 O284 2.297 . S
Cd281 O285 2.439 . S
Cd281 O291 2.240 . S
Cd282 O283 2.240 . S
Cd282 O290 2.223 . S
Cd282 O292 2.297 . S
Cd282 O293 2.439 . S
O283 Cd282 2.240 . S
O283 C288 1.279 . S
O284 Cd281 2.297 . S
O284 C286 1.247 . S
O285 Cd281 2.439 . S
O285 C286 1.208 . S
C286 O284 1.247 . S
C286 O285 1.208 . S
C287 O292 1.247 . S
C287 O293 1.208 . S
C288 O280 1.315 . S
C288 O283 1.279 . S
C289 O290 1.315 . S
C289 O291 1.279 . S
O290 Cd282 2.223 . S
O290 C289 1.315 . S
O291 Cd281 2.240 . S
O291 C289 1.279 . S
O292 Cd282 2.297 . S
O292 C287 1.247 . S
O293 Cd282 2.439 . S
O293 C287 1.208 . S
O294 Cd295 2.223 . S
O294 C302 1.315 . S
Cd295 O294 2.223 . S
Cd295 O298 2.297 . S
Cd295 O299 2.439 . S
Cd295 O305 2.240 . S
Cd296 O297 2.240 . S
Cd296 O304 2.223 . S
Cd296 O306 2.297 . S
Cd296 O307 2.439 . S
O297 Cd296 2.240 . S
O297 C302 1.279 . S
O298 Cd295 2.297 . S
O298 C300 1.247 . S
O299 Cd295 2.439 . S
O299 C300 1.208 . S
C300 O298 1.247 . S
C300 O299 1.208 . S
C301 O306 1.247 . S
C301 O307 1.208 . S
C302 O294 1.315 . S
C302 O297 1.279 . S
C303 O304 1.315 . S
C303 O305 1.279 . S
O304 Cd296 2.223 . S
O304 C303 1.315 . S
O305 Cd295 2.240 . S
O305 C303 1.279 . S
O306 Cd296 2.297 . S
O306 C301 1.247 . S
O307 Cd296 2.439 . S
O307 C301 1.208 . S
O308 Cd309 2.223 . S
O308 C316 1.315 . S
Cd309 O308 2.223 . S
Cd309 O312 2.297 . S
Cd309 O313 2.439 . S
Cd309 O319 2.240 . S
Cd310 O311 2.240 . S
Cd310 O318 2.223 . S
Cd310 O320 2.297 . S
Cd310 O321 2.439 . S
O311 Cd310 2.240 . S
O311 C316 1.279 . S
O312 Cd309 2.297 . S
O312 C314 1.247 . S
O313 Cd309 2.439 . S
O313 C314 1.208 . S
C314 O312 1.247 . S
C314 O313 1.208 . S
C315 O320 1.247 . S
C315 O321 1.208 . S
C316 O308 1.315 . S
C316 O311 1.279 . S
C317 O318 1.315 . S
C317 O319 1.279 . S
O318 Cd310 2.223 . S
O318 C317 1.315 . S
O319 Cd309 2.240 . S
O319 C317 1.279 . S
O320 Cd310 2.297 . S
O320 C315 1.247 . S
O321 Cd310 2.439 . S
O321 C315 1.208 . S
O322 Cd323 2.223 . S
O322 C330 1.315 . S
Cd323 O322 2.223 . S
Cd323 O326 2.297 . S
Cd323 O327 2.439 . S
Cd323 O333 2.240 . S
Cd324 O325 2.240 . S
Cd324 O332 2.223 . S
Cd324 O334 2.297 . S
Cd324 O335 2.439 . S
O325 Cd324 2.240 . S
O325 C330 1.279 . S
O326 Cd323 2.297 . S
O326 C328 1.247 . S
O327 Cd323 2.439 . S
O327 C328 1.208 . S
C328 O326 1.247 . S
C328 O327 1.208 . S
C329 O334 1.247 . S
C329 O335 1.208 . S
C330 O322 1.315 . S
C330 O325 1.279 . S
C331 O332 1.315 . S
C331 O333 1.279 . S
O332 Cd324 2.223 . S
O332 C331 1.315 . S
O333 Cd323 2.240 . S
O333 C331 1.279 . S
O334 Cd324 2.297 . S
O334 C329 1.247 . S
O335 Cd324 2.439 . S
O335 C329 1.208 . S
O336 Cd337 2.223 . S
O336 C344 1.315 . S
Cd337 O336 2.223 . S
Cd337 O340 2.297 . S
Cd337 O341 2.439 . S
Cd337 O347 2.240 . S
Cd338 O339 2.240 . S
Cd338 O346 2.223 . S
Cd338 O348 2.297 . S
Cd338 O349 2.439 . S
O339 Cd338 2.240 . S
O339 C344 1.279 . S
O340 Cd337 2.297 . S
O340 C342 1.247 . S
O341 Cd337 2.439 . S
O341 C342 1.208 . S
C342 O340 1.247 . S
C342 O341 1.208 . S
C343 O348 1.247 . S
C343 O349 1.208 . S
C344 O336 1.315 . S
C344 O339 1.279 . S
C345 O346 1.315 . S
C345 O347 1.279 . S
O346 Cd338 2.223 . S
O346 C345 1.315 . S
O347 Cd337 2.240 . S
O347 C345 1.279 . S
O348 Cd338 2.297 . S
O348 C343 1.247 . S
O349 Cd338 2.439 . S
O349 C343 1.208 . S
O350 Cd351 2.223 . S
O350 C358 1.315 . S
Cd351 O350 2.223 . S
Cd351 O354 2.297 . S
Cd351 O355 2.439 . S
Cd351 O361 2.240 . S
Cd352 O353 2.240 . S
Cd352 O360 2.223 . S
Cd352 O362 2.297 . S
Cd352 O363 2.439 . S
O353 Cd352 2.240 . S
O353 C358 1.279 . S
O354 Cd351 2.297 . S
O354 C356 1.247 . S
O355 Cd351 2.439 . S
O355 C356 1.208 . S
C356 O354 1.247 . S
C356 O355 1.208 . S
C357 O362 1.247 . S
C357 O363 1.208 . S
C358 O350 1.315 . S
C358 O353 1.279 . S
C359 O360 1.315 . S
C359 O361 1.279 . S
O360 Cd352 2.223 . S
O360 C359 1.315 . S
O361 Cd351 2.240 . S
O361 C359 1.279 . S
O362 Cd352 2.297 . S
O362 C357 1.247 . S
O363 Cd352 2.439 . S
O363 C357 1.208 . S
O364 Cd365 2.223 . S
O364 C372 1.315 . S
Cd365 O364 2.223 . S
Cd365 O368 2.297 . S
Cd365 O369 2.439 . S
Cd365 O375 2.240 . S
Cd366 O367 2.240 . S
Cd366 O374 2.223 . S
Cd366 O376 2.297 . S
Cd366 O377 2.439 . S
O367 Cd366 2.240 . S
O367 C372 1.279 . S
O368 Cd365 2.297 . S
O368 C370 1.247 . S
O369 Cd365 2.439 . S
O369 C370 1.208 . S
C370 O368 1.247 . S
C370 O369 1.208 . S
C371 O376 1.247 . S
C371 O377 1.208 . S
C372 O364 1.315 . S
C372 O367 1.279 . S
C373 O374 1.315 . S
C373 O375 1.279 . S
O374 Cd366 2.223 . S
O374 C373 1.315 . S
O375 Cd365 2.240 . S
O375 C373 1.279 . S
O376 Cd366 2.297 . S
O376 C371 1.247 . S
O377 Cd366 2.439 . S
O377 C371 1.208 . S
O378 Cd379 2.223 . S
O378 C386 1.315 . S
Cd379 O378 2.223 . S
Cd379 O382 2.297 . S
Cd379 O383 2.439 . S
Cd379 O389 2.240 . S
Cd380 O381 2.240 . S
Cd380 O388 2.223 . S
Cd380 O390 2.297 . S
Cd380 O391 2.439 . S
O381 Cd380 2.240 . S
O381 C386 1.279 . S
O382 Cd379 2.297 . S
O382 C384 1.247 . S
O383 Cd379 2.439 . S
O383 C384 1.208 . S
C384 O382 1.247 . S
C384 O383 1.208 . S
C385 O390 1.247 . S
C385 O391 1.208 . S
C386 O378 1.315 . S
C386 O381 1.279 . S
C387 O388 1.315 . S
C387 O389 1.279 . S
O388 Cd380 2.223 . S
O388 C387 1.315 . S
O389 Cd379 2.240 . S
O389 C387 1.279 . S
O390 Cd380 2.297 . S
O390 C385 1.247 . S
O391 Cd380 2.439 . S
O391 C385 1.208 . S
O392 Cd393 2.223 . S
O392 C400 1.315 . S
Cd393 O392 2.223 . S
Cd393 O396 2.297 . S
Cd393 O397 2.439 . S
Cd393 O403 2.240 . S
Cd394 O395 2.240 . S
Cd394 O402 2.223 . S
Cd394 O404 2.297 . S
Cd394 O405 2.439 . S
O395 Cd394 2.240 . S
O395 C400 1.279 . S
O396 Cd393 2.297 . S
O396 C398 1.247 . S
O397 Cd393 2.439 . S
O397 C398 1.208 . S
C398 O396 1.247 . S
C398 O397 1.208 . S
C399 O404 1.247 . S
C399 O405 1.208 . S
C400 O392 1.315 . S
C400 O395 1.279 . S
C401 O402 1.315 . S
C401 O403 1.279 . S
O402 Cd394 2.223 . S
O402 C401 1.315 . S
O403 Cd393 2.240 . S
O403 C401 1.279 . S
O404 Cd394 2.297 . S
O404 C399 1.247 . S
O405 Cd394 2.439 . S
O405 C399 1.208 . S
O406 Cd407 2.223 . S
O406 C414 1.315 . S
Cd407 O406 2.223 . S
Cd407 O410 2.297 . S
Cd407 O411 2.439 . S
Cd407 O417 2.240 . S
Cd408 O409 2.240 . S
Cd408 O416 2.223 . S
Cd408 O418 2.297 . S
Cd408 O419 2.439 . S
O409 Cd408 2.240 . S
O409 C414 1.279 . S
O410 Cd407 2.297 . S
O410 C412 1.247 . S
O411 Cd407 2.439 . S
O411 C412 1.208 . S
C412 O410 1.247 . S
C412 O411 1.208 . S
C413 O418 1.247 . S
C413 O419 1.208 . S
C414 O406 1.315 . S
C414 O409 1.279 . S
C415 O416 1.315 . S
C415 O417 1.279 . S
O416 Cd408 2.223 . S
O416 C415 1.315 . S
O417 Cd407 2.240 . S
O417 C415 1.279 . S
O418 Cd408 2.297 . S
O418 C413 1.247 . S
O419 Cd408 2.439 . S
O419 C413 1.208 . S
O420 Cd421 2.223 . S
O420 C428 1.315 . S
Cd421 O420 2.223 . S
Cd421 O424 2.297 . S
Cd421 O425 2.439 . S
Cd421 O431 2.240 . S
Cd422 O423 2.240 . S
Cd422 O430 2.223 . S
Cd422 O432 2.297 . S
Cd422 O433 2.439 . S
O423 Cd422 2.240 . S
O423 C428 1.279 . S
O424 Cd421 2.297 . S
O424 C426 1.247 . S
O425 Cd421 2.439 . S
O425 C426 1.208 . S
C426 O424 1.247 . S
C426 O425 1.208 . S
C427 O432 1.247 . S
C427 O433 1.208 . S
C428 O420 1.315 . S
C428 O423 1.279 . S
C429 O430 1.315 . S
C429 O431 1.279 . S
O430 Cd422 2.223 . S
O430 C429 1.315 . S
O431 Cd421 2.240 . S
O431 C429 1.279 . S
O432 Cd422 2.297 . S
O432 C427 1.247 . S
O433 Cd422 2.439 . S
O433 C427 1.208 . S
O434 Cd435 2.223 . S
O434 C442 1.315 . S
Cd435 O434 2.223 . S
Cd435 O438 2.297 . S
Cd435 O439 2.439 . S
Cd435 O445 2.240 . S
Cd436 O437 2.240 . S
Cd436 O444 2.223 . S
Cd436 O446 2.297 . S
Cd436 O447 2.439 . S
O437 Cd436 2.240 . S
O437 C442 1.279 . S
O438 Cd435 2.297 . S
O438 C440 1.247 . S
O439 Cd435 2.439 . S
O439 C440 1.208 . S
C440 O438 1.247 . S
C440 O439 1.208 . S
C441 O446 1.247 . S
C441 O447 1.208 . S
C442 O434 1.315 . S
C442 O437 1.279 . S
C443 O444 1.315 . S
C443 O445 1.279 . S
O444 Cd436 2.223 . S
O444 C443 1.315 . S
O445 Cd435 2.240 . S
O445 C443 1.279 . S
O446 Cd436 2.297 . S
O446 C441 1.247 . S
O447 Cd436 2.439 . S
O447 C441 1.208 . S
O448 Cd449 2.223 . S
O448 C456 1.315 . S
Cd449 O448 2.223 . S
Cd449 O452 2.297 . S
Cd449 O453 2.439 . S
Cd449 O459 2.240 . S
Cd450 O451 2.240 . S
Cd450 O458 2.223 . S
Cd450 O460 2.297 . S
Cd450 O461 2.439 . S
O451 Cd450 2.240 . S
O451 C456 1.279 . S
O452 Cd449 2.297 . S
O452 C454 1.247 . S
O453 Cd449 2.439 . S
O453 C454 1.208 . S
C454 O452 1.247 . S
C454 O453 1.208 . S
C455 O460 1.247 . S
C455 O461 1.208 . S
C456 O448 1.315 . S
C456 O451 1.279 . S
C457 O458 1.315 . S
C457 O459 1.279 . S
O458 Cd450 2.223 . S
O458 C457 1.315 . S
O459 Cd449 2.240 . S
O459 C457 1.279 . S
O460 Cd450 2.297 . S
O460 C455 1.247 . S
O461 Cd450 2.439 . S
O461 C455 1.208 . S
O462 Cd463 2.223 . S
O462 C470 1.315 . S
Cd463 O462 2.223 . S
Cd463 O466 2.297 . S
Cd463 O467 2.439 . S
Cd463 O473 2.240 . S
Cd464 O465 2.240 . S
Cd464 O472 2.223 . S
Cd464 O474 2.297 . S
Cd464 O475 2.439 . S
O465 Cd464 2.240 . S
O465 C470 1.279 . S
O466 Cd463 2.297 . S
O466 C468 1.247 . S
O467 Cd463 2.439 . S
O467 C468 1.208 . S
C468 O466 1.247 . S
C468 O467 1.208 . S
C469 O474 1.247 . S
C469 O475 1.208 . S
C470 O462 1.315 . S
C470 O465 1.279 . S
C471 O472 1.315 . S
C471 O473 1.279 . S
O472 Cd464 2.223 . S
O472 C471 1.315 . S
O473 Cd463 2.240 . S
O473 C471 1.279 . S
O474 Cd464 2.297 . S
O474 C469 1.247 . S
O475 Cd464 2.439 . S
O475 C469 1.208 . S
O476 Cd477 2.223 . S
O476 C484 1.315 . S
Cd477 O476 2.223 . S
Cd477 O480 2.297 . S
Cd477 O481 2.439 . S
Cd477 O487 2.240 . S
Cd478 O479 2.240 . S
Cd478 O486 2.223 . S
Cd478 O488 2.297 . S
Cd478 O489 2.439 . S
O479 Cd478 2.240 . S
O479 C484 1.279 . S
O480 Cd477 2.297 . S
O480 C482 1.247 . S
O481 Cd477 2.439 . S
O481 C482 1.208 . S
C482 O480 1.247 . S
C482 O481 1.208 . S
C483 O488 1.247 . S
C483 O489 1.208 . S
C484 O476 1.315 . S
C484 O479 1.279 . S
C485 O486 1.315 . S
C485 O487 1.279 . S
O486 Cd478 2.223 . S
O486 C485 1.315 . S
O487 Cd477 2.240 . S
O487 C485 1.279 . S
O488 Cd478 2.297 . S
O488 C483 1.247 . S
O489 Cd478 2.439 . S
O489 C483 1.208 . S
O490 Cd491 2.223 . S
O490 C498 1.315 . S
Cd491 O490 2.223 . S
Cd491 O494 2.297 . S
Cd491 O495 2.439 . S
Cd491 O501 2.240 . S
Cd492 O493 2.240 . S
Cd492 O500 2.223 . S
Cd492 O502 2.297 . S
Cd492 O503 2.439 . S
O493 Cd492 2.240 . S
O493 C498 1.279 . S
O494 Cd491 2.297 . S
O494 C496 1.247 . S
O495 Cd491 2.439 . S
O495 C496 1.208 . S
C496 O494 1.247 . S
C496 O495 1.208 . S
C497 O502 1.247 . S
C497 O503 1.208 . S
C498 O490 1.315 . S
C498 O493 1.279 . S
C499 O500 1.315 . S
C499 O501 1.279 . S
O500 Cd492 2.223 . S
O500 C499 1.315 . S
O501 Cd491 2.240 . S
O501 C499 1.279 . S
O502 Cd492 2.297 . S
O502 C497 1.247 . S
O503 Cd492 2.439 . S
O503 C497 1.208 . S
O504 Cd505 2.223 . S
O504 C512 1.315 . S
Cd505 O504 2.223 . S
Cd505 O508 2.297 . S
Cd505 O509 2.439 . S
Cd505 O515 2.240 . S
Cd506 O507 2.240 . S
Cd506 O514 2.223 . S
Cd506 O516 2.297 . S
Cd506 O517 2.439 . S
O507 Cd506 2.240 . S
O507 C512 1.279 . S
O508 Cd505 2.297 . S
O508 C510 1.247 . S
O509 Cd505 2.439 . S
O509 C510 1.208 . S
C510 O508 1.247 . S
C510 O509 1.208 . S
C511 O516 1.247 . S
C511 O517 1.208 . S
C512 O504 1.315 . S
C512 O507 1.279 . S
C513 O514 1.315 . S
C513 O515 1.279 . S
O514 Cd506 2.223 . S
O514 C513 1.315 . S
O515 Cd505 2.240 . S
O515 C513 1.279 . S
O516 Cd506 2.297 . S
O516 C511 1.247 . S
O517 Cd506 2.439 . S
O517 C511 1.208 . S
O518 Cd519 2.223 . S
O518 C526 1.315 . S
Cd519 O518 2.223 . S
Cd519 O522 2.297 . S
Cd519 O523 2.439 . S
Cd519 O529 2.240 . S
Cd520 O521 2.240 . S
Cd520 O528 2.223 . S
Cd520 O530 2.297 . S
Cd520 O531 2.439 . S
O521 Cd520 2.240 . S
O521 C526 1.279 . S
O522 Cd519 2.297 . S
O522 C524 1.247 . S
O523 Cd519 2.439 . S
O523 C524 1.208 . S
C524 O522 1.247 . S
C524 O523 1.208 . S
C525 O530 1.247 . S
C525 O531 1.208 . S
C526 O518 1.315 . S
C526 O521 1.279 . S
C527 O528 1.315 . S
C527 O529 1.279 . S
O528 Cd520 2.223 . S
O528 C527 1.315 . S
O529 Cd519 2.240 . S
O529 C527 1.279 . S
O530 Cd520 2.297 . S
O530 C525 1.247 . S
O531 Cd520 2.439 . S
O531 C525 1.208 . S
O532 Cd533 2.223 . S
O532 C540 1.315 . S
Cd533 O532 2.223 . S
Cd533 O536 2.297 . S
Cd533 O537 2.439 . S
Cd533 O543 2.240 . S
Cd534 O535 2.240 . S
Cd534 O542 2.223 . S
Cd534 O544 2.297 . S
Cd534 O545 2.439 . S
O535 Cd534 2.240 . S
O535 C540 1.279 . S
O536 Cd533 2.297 . S
O536 C538 1.247 . S
O537 Cd533 2.439 . S
O537 C538 1.208 . S
C538 O536 1.247 . S
C538 O537 1.208 . S
C539 O544 1.247 . S
C539 O545 1.208 . S
C540 O532 1.315 . S
C540 O535 1.279 . S
C541 O542 1.315 . S
C541 O543 1.279 . S
O542 Cd534 2.223 . S
O542 C541 1.315 . S
O543 Cd533 2.240 . S
O543 C541 1.279 . S
O544 Cd534 2.297 . S
O544 C539 1.247 . S
O545 Cd534 2.439 . S
O545 C539 1.208 . S
O546 Cd547 2.223 . S
O546 C554 1.315 . S
Cd547 O546 2.223 . S
Cd547 O550 2.297 . S
Cd547 O551 2.439 . S
Cd547 O557 2.240 . S
Cd548 O549 2.240 . S
Cd548 O556 2.223 . S
Cd548 O558 2.297 . S
Cd548 O559 2.439 . S
O549 Cd548 2.240 . S
O549 C554 1.279 . S
O550 Cd547 2.297 . S
O550 C552 1.247 . S
O551 Cd547 2.439 . S
O551 C552 1.208 . S
C552 O550 1.247 . S
C552 O551 1.208 . S
C553 O558 1.247 . S
C553 O559 1.208 . S
C554 O546 1.315 . S
C554 O549 1.279 . S
C555 O556 1.315 . S
C555 O557 1.279 . S
O556 Cd548 2.223 . S
O556 C555 1.315 . S
O557 Cd547 2.240 . S
O557 C555 1.279 . S
O558 Cd548 2.297 . S
O558 C553 1.247 . S
O559 Cd548 2.439 . S
O559 C553 1.208 . S
O560 Cd561 2.223 . S
O560 C568 1.315 . S
Cd561 O560 2.223 . S
Cd561 O564 2.297 . S
Cd561 O565 2.439 . S
Cd561 O571 2.240 . S
Cd562 O563 2.240 . S
Cd562 O570 2.223 . S
Cd562 O572 2.297 . S
Cd562 O573 2.439 . S
O563 Cd562 2.240 . S
O563 C568 1.279 . S
O564 Cd561 2.297 . S
O564 C566 1.247 . S
O565 Cd561 2.439 . S
O565 C566 1.208 . S
C566 O564 1.247 . S
C566 O565 1.208 . S
C567 O572 1.247 . S
C567 O573 1.208 . S
C568 O560 1.315 . S
C568 O563 1.279 . S
C569 O570 1.315 . S
C569 O571 1.279 . S
O570 Cd562 2.223 . S
O570 C569 1.315 . S
O571 Cd561 2.240 . S
O571 C569 1.279 . S
O572 Cd562 2.297 . S
O572 C567 1.247 . S
O573 Cd562 2.439 . S
O573 C567 1.208 . S
O574 Cd575 2.223 . S
O574 C582 1.315 . S
Cd575 O574 2.223 . S
Cd575 O578 2.297 . S
Cd575 O579 2.439 . S
Cd575 O585 2.240 . S
Cd576 O577 2.240 . S
Cd576 O584 2.223 . S
Cd576 O586 2.297 . S
Cd576 O587 2.439 . S
O577 Cd576 2.240 . S
O577 C582 1.279 . S
O578 Cd575 2.297 . S
O578 C580 1.247 . S
O579 Cd575 2.439 . S
O579 C580 1.208 . S
C580 O578 1.247 . S
C580 O579 1.208 . S
C581 O586 1.247 . S
C581 O587 1.208 . S
C582 O574 1.315 . S
C582 O577 1.279 . S
C583 O584 1.315 . S
C583 O585 1.279 . S
O584 Cd576 2.223 . S
O584 C583 1.315 . S
O585 Cd575 2.240 . S
O585 C583 1.279 . S
O586 Cd576 2.297 . S
O586 C581 1.247 . S
O587 Cd576 2.439 . S
O587 C581 1.208 . S
O588 Cd589 2.223 . S
O588 C596 1.315 . S
Cd589 O588 2.223 . S
Cd589 O592 2.297 . S
Cd589 O593 2.439 . S
Cd589 O599 2.240 . S
Cd590 O591 2.240 . S
Cd590 O598 2.223 . S
Cd590 O600 2.297 . S
Cd590 O601 2.439 . S
O591 Cd590 2.240 . S
O591 C596 1.279 . S
O592 Cd589 2.297 . S
O592 C594 1.247 . S
O593 Cd589 2.439 . S
O593 C594 1.208 . S
C594 O592 1.247 . S
C594 O593 1.208 . S
C595 O600 1.247 . S
C595 O601 1.208 . S
C596 O588 1.315 . S
C596 O591 1.279 . S
C597 O598 1.315 . S
C597 O599 1.279 . S
O598 Cd590 2.223 . S
O598 C597 1.315 . S
O599 Cd589 2.240 . S
O599 C597 1.279 . S
O600 Cd590 2.297 . S
O600 C595 1.247 . S
O601 Cd590 2.439 . S
O601 C595 1.208 . S
O602 Cd603 2.223 . S
O602 C610 1.315 . S
Cd603 O602 2.223 . S
Cd603 O606 2.297 . S
Cd603 O607 2.439 . S
Cd603 O613 2.240 . S
Cd604 O605 2.240 . S
Cd604 O612 2.223 . S
Cd604 O614 2.297 . S
Cd604 O615 2.439 . S
O605 Cd604 2.240 . S
O605 C610 1.279 . S
O606 Cd603 2.297 . S
O606 C608 1.247 . S
O607 Cd603 2.439 . S
O607 C608 1.208 . S
C608 O606 1.247 . S
C608 O607 1.208 . S
C609 O614 1.247 . S
C609 O615 1.208 . S
C610 O602 1.315 . S
C610 O605 1.279 . S
C611 O612 1.315 . S
C611 O613 1.279 . S
O612 Cd604 2.223 . S
O612 C611 1.315 . S
O613 Cd603 2.240 . S
O613 C611 1.279 . S
O614 Cd604 2.297 . S
O614 C609 1.247 . S
O615 Cd604 2.439 . S
O615 C609 1.208 . S
O616 Cd617 2.223 . S
O616 C624 1.315 . S
Cd617 O616 2.223 . S
Cd617 O620 2.297 . S
Cd617 O621 2.439 . S
Cd617 O627 2.240 . S
Cd618 O619 2.240 . S
Cd618 O626 2.223 . S
Cd618 O628 2.297 . S
Cd618 O629 2.439 . S
O619 Cd618 2.240 . S
O619 C624 1.279 . S
O620 Cd617 2.297 . S
O620 C622 1.247 . S
O621 Cd617 2.439 . S
O621 C622 1.208 . S
C622 O620 1.247 . S
C622 O621 1.208 . S
C623 O628 1.247 . S
C623 O629 1.208 . S
C624 O616 1.315 . S
C624 O619 1.279 . S
C625 O626 1.315 . S
C625 O627 1.279 . S
O626 Cd618 2.223 . S
O626 C625 1.315 . S
O627 Cd617 2.240 . S
O627 C625 1.279 . S
O628 Cd618 2.297 . S
O628 C623 1.247 . S
O629 Cd618 2.439 . S
O629 C623 1.208 . S
O630 Cd631 2.223 . S
O630 C638 1.315 . S
Cd631 O630 2.223 . S
Cd631 O634 2.297 . S
Cd631 O635 2.439 . S
Cd631 O641 2.240 . S
Cd632 O633 2.240 . S
Cd632 O640 2.223 . S
Cd632 O642 2.297 . S
Cd632 O643 2.439 . S
O633 Cd632 2.240 . S
O633 C638 1.279 . S
O634 Cd631 2.297 . S
O634 C636 1.247 . S
O635 Cd631 2.439 . S
O635 C636 1.208 . S
C636 O634 1.247 . S
C636 O635 1.208 . S
C637 O642 1.247 . S
C637 O643 1.208 . S
C638 O630 1.315 . S
C638 O633 1.279 . S
C639 O640 1.315 . S
C639 O641 1.279 . S
O640 Cd632 2.223 . S
O640 C639 1.315 . S
O641 Cd631 2.240 . S
O641 C639 1.279 . S
O642 Cd632 2.297 . S
O642 C637 1.247 . S
O643 Cd632 2.439 . S
O643 C637 1.208 . S
O644 Cd645 2.223 . S
O644 C652 1.315 . S
Cd645 O644 2.223 . S
Cd645 O648 2.297 . S
Cd645 O649 2.439 . S
Cd645 O655 2.240 . S
Cd646 O647 2.240 . S
Cd646 O654 2.223 . S
Cd646 O656 2.297 . S
Cd646 O657 2.439 . S
O647 Cd646 2.240 . S
O647 C652 1.279 . S
O648 Cd645 2.297 . S
O648 C650 1.247 . S
O649 Cd645 2.439 . S
O649 C650 1.208 . S
C650 O648 1.247 . S
C650 O649 1.208 . S
C651 O656 1.247 . S
C651 O657 1.208 . S
C652 O644 1.315 . S
C652 O647 1.279 . S
C653 O654 1.315 . S
C653 O655 1.279 . S
O654 Cd646 2.223 . S
O654 C653 1.315 . S
O655 Cd645 2.240 . S
O655 C653 1.279 . S
O656 Cd646 2.297 . S
O656 C651 1.247 . S
O657 Cd646 2.439 . S
O657 C651 1.208 . S
O658 Cd659 2.223 . S
O658 C666 1.315 . S
Cd659 O658 2.223 . S
Cd659 O662 2.297 . S
Cd659 O663 2.439 . S
Cd659 O669 2.240 . S
Cd660 O661 2.240 . S
Cd660 O668 2.223 . S
Cd660 O670 2.297 . S
Cd660 O671 2.439 . S
O661 Cd660 2.240 . S
O661 C666 1.279 . S
O662 Cd659 2.297 . S
O662 C664 1.247 . S
O663 Cd659 2.439 . S
O663 C664 1.208 . S
C664 O662 1.247 . S
C664 O663 1.208 . S
C665 O670 1.247 . S
C665 O671 1.208 . S
C666 O658 1.315 . S
C666 O661 1.279 . S
C667 O668 1.315 . S
C667 O669 1.279 . S
O668 Cd660 2.223 . S
O668 C667 1.315 . S
O669 Cd659 2.240 . S
O669 C667 1.279 . S
O670 Cd660 2.297 . S
O670 C665 1.247 . S
O671 Cd660 2.439 . S
O671 C665 1.208 . S
O672 Cd673 2.223 . S
O672 C680 1.315 . S
Cd673 O672 2.223 . S
Cd673 O676 2.297 . S
Cd673 O677 2.439 . S
Cd673 O683 2.240 . S
Cd674 O675 2.240 . S
Cd674 O682 2.223 . S
Cd674 O684 2.297 . S
Cd674 O685 2.439 . S
O675 Cd674 2.240 . S
O675 C680 1.279 . S
O676 Cd673 2.297 . S
O676 C678 1.247 . S
O677 Cd673 2.439 . S
O677 C678 1.208 . S
C678 O676 1.247 . S
C678 O677 1.208 . S
C679 O684 1.247 . S
C679 O685 1.208 . S
C680 O672 1.315 . S
C680 O675 1.279 . S
C681 O682 1.315 . S
C681 O683 1.279 . S
O682 Cd674 2.223 . S
O682 C681 1.315 . S
O683 Cd673 2.240 . S
O683 C681 1.279 . S
O684 Cd674 2.297 . S
O684 C679 1.247 . S
O685 Cd674 2.439 . S
O685 C679 1.208 . S
O686 Cd687 2.223 . S
O686 C694 1.315 . S
Cd687 O686 2.223 . S
Cd687 O690 2.297 . S
Cd687 O691 2.439 . S
Cd687 O697 2.240 . S
Cd688 O689 2.240 . S
Cd688 O696 2.223 . S
Cd688 O698 2.297 . S
Cd688 O699 2.439 . S
O689 Cd688 2.240 . S
O689 C694 1.279 . S
O690 Cd687 2.297 . S
O690 C692 1.247 . S
O691 Cd687 2.439 . S
O691 C692 1.208 . S
C692 O690 1.247 . S
C692 O691 1.208 . S
C693 O698 1.247 . S
C693 O699 1.208 . S
C694 O686 1.315 . S
C694 O689 1.279 . S
C695 O696 1.315 . S
C695 O697 1.279 . S
O696 Cd688 2.223 . S
O696 C695 1.315 . S
O697 Cd687 2.240 . S
O697 C695 1.279 . S
O698 Cd688 2.297 . S
O698 C693 1.247 . S
O699 Cd688 2.439 . S
O699 C693 1.208 . S
O700 Cd701 2.223 . S
O700 C708 1.315 . S
Cd701 O700 2.223 . S
Cd701 O704 2.297 . S
Cd701 O705 2.439 . S
Cd701 O711 2.240 . S
Cd702 O703 2.240 . S
Cd702 O710 2.223 . S
Cd702 O712 2.297 . S
Cd702 O713 2.439 . S
O703 Cd702 2.240 . S
O703 C708 1.279 . S
O704 Cd701 2.297 . S
O704 C706 1.247 . S
O705 Cd701 2.439 . S
O705 C706 1.208 . S
C706 O704 1.247 . S
C706 O705 1.208 . S
C707 O712 1.247 . S
C707 O713 1.208 . S
C708 O700 1.315 . S
C708 O703 1.279 . S
C709 O710 1.315 . S
C709 O711 1.279 . S
O710 Cd702 2.223 . S
O710 C709 1.315 . S
O711 Cd701 2.240 . S
O711 C709 1.279 . S
O712 Cd702 2.297 . S
O712 C707 1.247 . S
O713 Cd702 2.439 . S
O713 C707 1.208 . S
O714 Cd715 2.223 . S
O714 C722 1.315 . S
Cd715 O714 2.223 . S
Cd715 O718 2.297 . S
Cd715 O719 2.439 . S
Cd715 O725 2.240 . S
Cd716 O717 2.240 . S
Cd716 O724 2.223 . S
Cd716 O726 2.297 . S
Cd716 O727 2.439 . S
O717 Cd716 2.240 . S
O717 C722 1.279 . S
O718 Cd715 2.297 . S
O718 C720 1.247 . S
O719 Cd715 2.439 . S
O719 C720 1.208 . S
C720 O718 1.247 . S
C720 O719 1.208 . S
C721 O726 1.247 . S
C721 O727 1.208 . S
C722 O714 1.315 . S
C722 O717 1.279 . S
C723 O724 1.315 . S
C723 O725 1.279 . S
O724 Cd716 2.223 . S
O724 C723 1.315 . S
O725 Cd715 2.240 . S
O725 C723 1.279 . S
O726 Cd716 2.297 . S
O726 C721 1.247 . S
O727 Cd716 2.439 . S
O727 C721 1.208 . S
O728 Cd729 2.223 . S
O728 C736 1.315 . S
Cd729 O728 2.223 . S
Cd729 O732 2.297 . S
Cd729 O733 2.439 . S
Cd729 O739 2.240 . S
Cd730 O731 2.240 . S
Cd730 O738 2.223 . S
Cd730 O740 2.297 . S
Cd730 O741 2.439 . S
O731 Cd730 2.240 . S
O731 C736 1.279 . S
O732 Cd729 2.297 . S
O732 C734 1.247 . S
O733 Cd729 2.439 . S
O733 C734 1.208 . S
C734 O732 1.247 . S
C734 O733 1.208 . S
C735 O740 1.247 . S
C735 O741 1.208 . S
C736 O728 1.315 . S
C736 O731 1.279 . S
C737 O738 1.315 . S
C737 O739 1.279 . S
O738 Cd730 2.223 . S
O738 C737 1.315 . S
O739 Cd729 2.240 . S
O739 C737 1.279 . S
O740 Cd730 2.297 . S
O740 C735 1.247 . S
O741 Cd730 2.439 . S
O741 C735 1.208 . S
O742 Cd743 2.223 . S
O742 C750 1.315 . S
Cd743 O742 2.223 . S
Cd743 O746 2.297 . S
Cd743 O747 2.439 . S
Cd743 O753 2.240 . S
Cd744 O745 2.240 . S
Cd744 O752 2.223 . S
Cd744 O754 2.297 . S
Cd744 O755 2.439 . S
O745 Cd744 2.240 . S
O745 C750 1.279 . S
O746 Cd743 2.297 . S
O746 C748 1.247 . S
O747 Cd743 2.439 . S
O747 C748 1.208 . S
C748 O746 1.247 . S
C748 O747 1.208 . S
C749 O754 1.247 . S
C749 O755 1.208 . S
C750 O742 1.315 . S
C750 O745 1.279 . S
C751 O752 1.315 . S
C751 O753 1.279 . S
O752 Cd744 2.223 . S
O752 C751 1.315 . S
O753 Cd743 2.240 . S
O753 C751 1.279 . S
O754 Cd744 2.297 . S
O754 C749 1.247 . S
O755 Cd744 2.439 . S
O755 C749 1.208 . S
O756 Cd757 2.223 . S
O756 C764 1.315 . S
Cd757 O756 2.223 . S
Cd757 O760 2.297 . S
Cd757 O761 2.439 . S
Cd757 O767 2.240 . S
Cd758 O759 2.240 . S
Cd758 O766 2.223 . S
Cd758 O768 2.297 . S
Cd758 O769 2.439 . S
O759 Cd758 2.240 . S
O759 C764 1.279 . S
O760 Cd757 2.297 . S
O760 C762 1.247 . S
O761 Cd757 2.439 . S
O761 C762 1.208 . S
C762 O760 1.247 . S
C762 O761 1.208 . S
C763 O768 1.247 . S
C763 O769 1.208 . S
C764 O756 1.315 . S
C764 O759 1.279 . S
C765 O766 1.315 . S
C765 O767 1.279 . S
O766 Cd758 2.223 . S
O766 C765 1.315 . S
O767 Cd757 2.240 . S
O767 C765 1.279 . S
O768 Cd758 2.297 . S
O768 C763 1.247 . S
O769 Cd758 2.439 . S
O769 C763 1.208 . S
O770 Cd771 2.223 . S
O770 C778 1.315 . S
Cd771 O770 2.223 . S
Cd771 O774 2.297 . S
Cd771 O775 2.439 . S
Cd771 O781 2.240 . S
Cd772 O773 2.240 . S
Cd772 O780 2.223 . S
Cd772 O782 2.297 . S
Cd772 O783 2.439 . S
O773 Cd772 2.240 . S
O773 C778 1.279 . S
O774 Cd771 2.297 . S
O774 C776 1.247 . S
O775 Cd771 2.439 . S
O775 C776 1.208 . S
C776 O774 1.247 . S
C776 O775 1.208 . S
C777 O782 1.247 . S
C777 O783 1.208 . S
C778 O770 1.315 . S
C778 O773 1.279 . S
C779 O780 1.315 . S
C779 O781 1.279 . S
O780 Cd772 2.223 . S
O780 C779 1.315 . S
O781 Cd771 2.240 . S
O781 C779 1.279 . S
O782 Cd772 2.297 . S
O782 C777 1.247 . S
O783 Cd772 2.439 . S
O783 C777 1.208 . S
O784 Cd785 2.223 . S
O784 C792 1.315 . S
Cd785 O784 2.223 . S
Cd785 O788 2.297 . S
Cd785 O789 2.439 . S
Cd785 O795 2.240 . S
Cd786 O787 2.240 . S
Cd786 O794 2.223 . S
Cd786 O796 2.297 . S
Cd786 O797 2.439 . S
O787 Cd786 2.240 . S
O787 C792 1.279 . S
O788 Cd785 2.297 . S
O788 C790 1.247 . S
O789 Cd785 2.439 . S
O789 C790 1.208 . S
C790 O788 1.247 . S
C790 O789 1.208 . S
C791 O796 1.247 . S
C791 O797 1.208 . S
C792 O784 1.315 . S
C792 O787 1.279 . S
C793 O794 1.315 . S
C793 O795 1.279 . S
O794 Cd786 2.223 . S
O794 C793 1.315 . S
O795 Cd785 2.240 . S
O795 C793 1.279 . S
O796 Cd786 2.297 . S
O796 C791 1.247 . S
O797 Cd786 2.439 . S
O797 C791 1.208 . S
O798 Cd799 2.223 . S
O798 C806 1.315 . S
Cd799 O798 2.223 . S
Cd799 O802 2.297 . S
Cd799 O803 2.439 . S
Cd799 O809 2.240 . S
Cd800 O801 2.240 . S
Cd800 O808 2.223 . S
Cd800 O810 2.297 . S
Cd800 O811 2.439 . S
O801 Cd800 2.240 . S
O801 C806 1.279 . S
O802 Cd799 2.297 . S
O802 C804 1.247 . S
O803 Cd799 2.439 . S
O803 C804 1.208 . S
C804 O802 1.247 . S
C804 O803 1.208 . S
C805 O810 1.247 . S
C805 O811 1.208 . S
C806 O798 1.315 . S
C806 O801 1.279 . S
C807 O808 1.315 . S
C807 O809 1.279 . S
O808 Cd800 2.223 . S
O808 C807 1.315 . S
O809 Cd799 2.240 . S
O809 C807 1.279 . S
O810 Cd800 2.297 . S
O810 C805 1.247 . S
O811 Cd800 2.439 . S
O811 C805 1.208 . S
O812 Cd813 2.223 . S
O812 C820 1.315 . S
Cd813 O812 2.223 . S
Cd813 O816 2.297 . S
Cd813 O817 2.439 . S
Cd813 O823 2.240 . S
Cd814 O815 2.240 . S
Cd814 O822 2.223 . S
Cd814 O824 2.297 . S
Cd814 O825 2.439 . S
O815 Cd814 2.240 . S
O815 C820 1.279 . S
O816 Cd813 2.297 . S
O816 C818 1.247 . S
O817 Cd813 2.439 . S
O817 C818 1.208 . S
C818 O816 1.247 . S
C818 O817 1.208 . S
C819 O824 1.247 . S
C819 O825 1.208 . S
C820 O812 1.315 . S
C820 O815 1.279 . S
C821 O822 1.315 . S
C821 O823 1.279 . S
O822 Cd814 2.223 . S
O822 C821 1.315 . S
O823 Cd813 2.240 . S
O823 C821 1.279 . S
O824 Cd814 2.297 . S
O824 C819 1.247 . S
O825 Cd814 2.439 . S
O825 C819 1.208 . S
O826 Cd827 2.223 . S
O826 C834 1.315 . S
Cd827 O826 2.223 . S
Cd827 O830 2.297 . S
Cd827 O831 2.439 . S
Cd827 O837 2.240 . S
Cd828 O829 2.240 . S
Cd828 O836 2.223 . S
Cd828 O838 2.297 . S
Cd828 O839 2.439 . S
O829 Cd828 2.240 . S
O829 C834 1.279 . S
O830 Cd827 2.297 . S
O830 C832 1.247 . S
O831 Cd827 2.439 . S
O831 C832 1.208 . S
C832 O830 1.247 . S
C832 O831 1.208 . S
C833 O838 1.247 . S
C833 O839 1.208 . S
C834 O826 1.315 . S
C834 O829 1.279 . S
C835 O836 1.315 . S
C835 O837 1.279 . S
O836 Cd828 2.223 . S
O836 C835 1.315 . S
O837 Cd827 2.240 . S
O837 C835 1.279 . S
O838 Cd828 2.297 . S
O838 C833 1.247 . S
O839 Cd828 2.439 . S
O839 C833 1.208 . S
O840 Cd841 2.223 . S
O840 C848 1.315 . S
Cd841 O840 2.223 . S
Cd841 O844 2.297 . S
Cd841 O845 2.439 . S
Cd841 O851 2.240 . S
Cd842 O843 2.240 . S
Cd842 O850 2.223 . S
Cd842 O852 2.297 . S
Cd842 O853 2.439 . S
O843 Cd842 2.240 . S
O843 C848 1.279 . S
O844 Cd841 2.297 . S
O844 C846 1.247 . S
O845 Cd841 2.439 . S
O845 C846 1.208 . S
C846 O844 1.247 . S
C846 O845 1.208 . S
C847 O852 1.247 . S
C847 O853 1.208 . S
C848 O840 1.315 . S
C848 O843 1.279 . S
C849 O850 1.315 . S
C849 O851 1.279 . S
O850 Cd842 2.223 . S
O850 C849 1.315 . S
O851 Cd841 2.240 . S
O851 C849 1.279 . S
O852 Cd842 2.297 . S
O852 C847 1.247 . S
O853 Cd842 2.439 . S
O853 C847 1.208 . S
O854 Cd855 2.223 . S
O854 C862 1.315 . S
Cd855 O854 2.223 . S
Cd855 O858 2.297 . S
Cd855 O859 2.439 . S
Cd855 O865 2.240 . S
Cd856 O857 2.240 . S
Cd856 O864 2.223 . S
Cd856 O866 2.297 . S
Cd856 O867 2.439 . S
O857 Cd856 2.240 . S
O857 C862 1.279 . S
O858 Cd855 2.297 . S
O858 C860 1.247 . S
O859 Cd855 2.439 . S
O859 C860 1.208 . S
C860 O858 1.247 . S
C860 O859 1.208 . S
C861 O866 1.247 . S
C861 O867 1.208 . S
C862 O854 1.315 . S
C862 O857 1.279 . S
C863 O864 1.315 . S
C863 O865 1.279 . S
O864 Cd856 2.223 . S
O864 C863 1.315 . S
O865 Cd855 2.240 . S
O865 C863 1.279 . S
O866 Cd856 2.297 . S
O866 C861 1.247 . S
O867 Cd856 2.439 . S
O867 C861 1.208 . S
O868 Cd869 2.223 . S
O868 C876 1.315 . S
Cd869 O868 2.223 . S
Cd869 O872 2.297 . S
Cd869 O873 2.439 . S
Cd869 O879 2.240 . S
Cd870 O871 2.240 . S
Cd870 O878 2.223 . S
Cd870 O880 2.297 . S
Cd870 O881 2.439 . S
O871 Cd870 2.240 . S
O871 C876 1.279 . S
O872 Cd869 2.297 . S
O872 C874 1.247 . S
O873 Cd869 2.439 . S
O873 C874 1.208 . S
C874 O872 1.247 . S
C874 O873 1.208 . S
C875 O880 1.247 . S
C875 O881 1.208 . S
C876 O868 1.315 . S
C876 O871 1.279 . S
C877 O878 1.315 . S
C877 O879 1.279 . S
O878 Cd870 2.223 . S
O878 C877 1.315 . S
O879 Cd869 2.240 . S
O879 C877 1.279 . S
O880 Cd870 2.297 . S
O880 C875 1.247 . S
O881 Cd870 2.439 . S
O881 C875 1.208 . S
O882 Cd883 2.223 . S
O882 C890 1.315 . S
Cd883 O882 2.223 . S
Cd883 O886 2.297 . S
Cd883 O887 2.439 . S
Cd883 O893 2.240 . S
Cd884 O885 2.240 . S
Cd884 O892 2.223 . S
Cd884 O894 2.297 . S
Cd884 O895 2.439 . S
O885 Cd884 2.240 . S
O885 C890 1.279 . S
O886 Cd883 2.297 . S
O886 C888 1.247 . S
O887 Cd883 2.439 . S
O887 C888 1.208 . S
C888 O886 1.247 . S
C888 O887 1.208 . S
C889 O894 1.247 . S
C889 O895 1.208 . S
C890 O882 1.315 . S
C890 O885 1.279 . S
C891 O892 1.315 . S
C891 O893 1.279 . S
O892 Cd884 2.223 . S
O892 C891 1.315 . S
O893 Cd883 2.240 . S
O893 C891 1.279 . S
O894 Cd884 2.297 . S
O894 C889 1.247 . S
O895 Cd884 2.439 . S
O895 C889 1.208 . S
O896 Cd897 2.223 . S
O896 C904 1.315 . S
Cd897 O896 2.223 . S
Cd897 O900 2.297 . S
Cd897 O901 2.439 . S
Cd897 O907 2.240 . S
Cd898 O899 2.240 . S
Cd898 O906 2.223 . S
Cd898 O908 2.297 . S
Cd898 O909 2.439 . S
O899 Cd898 2.240 . S
O899 C904 1.279 . S
O900 Cd897 2.297 . S
O900 C902 1.247 . S
O901 Cd897 2.439 . S
O901 C902 1.208 . S
C902 O900 1.247 . S
C902 O901 1.208 . S
C903 O908 1.247 . S
C903 O909 1.208 . S
C904 O896 1.315 . S
C904 O899 1.279 . S
C905 O906 1.315 . S
C905 O907 1.279 . S
O906 Cd898 2.223 . S
O906 C905 1.315 . S
O907 Cd897 2.240 . S
O907 C905 1.279 . S
O908 Cd898 2.297 . S
O908 C903 1.247 . S
O909 Cd898 2.439 . S
O909 C903 1.208 . S
O910 Cd911 2.223 . S
O910 C918 1.315 . S
Cd911 O910 2.223 . S
Cd911 O914 2.297 . S
Cd911 O915 2.439 . S
Cd911 O921 2.240 . S
Cd912 O913 2.240 . S
Cd912 O920 2.223 . S
Cd912 O922 2.297 . S
Cd912 O923 2.439 . S
O913 Cd912 2.240 . S
O913 C918 1.279 . S
O914 Cd911 2.297 . S
O914 C916 1.247 . S
O915 Cd911 2.439 . S
O915 C916 1.208 . S
C916 O914 1.247 . S
C916 O915 1.208 . S
C917 O922 1.247 . S
C917 O923 1.208 . S
C918 O910 1.315 . S
C918 O913 1.279 . S
C919 O920 1.315 . S
C919 O921 1.279 . S
O920 Cd912 2.223 . S
O920 C919 1.315 . S
O921 Cd911 2.240 . S
O921 C919 1.279 . S
O922 Cd912 2.297 . S
O922 C917 1.247 . S
O923 Cd912 2.439 . S
O923 C917 1.208 . S
O924 Cd925 2.223 . S
O924 C932 1.315 . S
Cd925 O924 2.223 . S
Cd925 O928 2.297 . S
Cd925 O929 2.439 . S
Cd925 O935 2.240 . S
Cd926 O927 2.240 . S
Cd926 O934 2.223 . S
Cd926 O936 2.297 . S
Cd926 O937 2.439 . S
O927 Cd926 2.240 . S
O927 C932 1.279 . S
O928 Cd925 2.297 . S
O928 C930 1.247 . S
O929 Cd925 2.439 . S
O929 C930 1.208 . S
C930 O928 1.247 . S
C930 O929 1.208 . S
C931 O936 1.247 . S
C931 O937 1.208 . S
C932 O924 1.315 . S
C932 O927 1.279 . S
C933 O934 1.315 . S
C933 O935 1.279 . S
O934 Cd926 2.223 . S
O934 C933 1.315 . S
O935 Cd925 2.240 . S
O935 C933 1.279 . S
O936 Cd926 2.297 . S
O936 C931 1.247 . S
O937 Cd926 2.439 . S
O937 C931 1.208 . S
O938 Cd939 2.223 . S
O938 C946 1.315 . S
Cd939 O938 2.223 . S
Cd939 O942 2.297 . S
Cd939 O943 2.439 . S
Cd939 O949 2.240 . S
Cd940 O941 2.240 . S
Cd940 O948 2.223 . S
Cd940 O950 2.297 . S
Cd940 O951 2.439 . S
O941 Cd940 2.240 . S
O941 C946 1.279 . S
O942 Cd939 2.297 . S
O942 C944 1.247 . S
O943 Cd939 2.439 . S
O943 C944 1.208 . S
C944 O942 1.247 . S
C944 O943 1.208 . S
C945 O950 1.247 . S
C945 O951 1.208 . S
C946 O938 1.315 . S
C946 O941 1.279 . S
C947 O948 1.315 . S
C947 O949 1.279 . S
O948 Cd940 2.223 . S
O948 C947 1.315 . S
O949 Cd939 2.240 . S
O949 C947 1.279 . S
O950 Cd940 2.297 . S
O950 C945 1.247 . S
O951 Cd940 2.439 . S
O951 C945 1.208 . S
O952 Cd953 2.223 . S
O952 C960 1.315 . S
Cd953 O952 2.223 . S
Cd953 O956 2.297 . S
Cd953 O957 2.439 . S
Cd953 O963 2.240 . S
Cd954 O955 2.240 . S
Cd954 O962 2.223 . S
Cd954 O964 2.297 . S
Cd954 O965 2.439 . S
O955 Cd954 2.240 . S
O955 C960 1.279 . S
O956 Cd953 2.297 . S
O956 C958 1.247 . S
O957 Cd953 2.439 . S
O957 C958 1.208 . S
C958 O956 1.247 . S
C958 O957 1.208 . S
C959 O964 1.247 . S
C959 O965 1.208 . S
C960 O952 1.315 . S
C960 O955 1.279 . S
C961 O962 1.315 . S
C961 O963 1.279 . S
O962 Cd954 2.223 . S
O962 C961 1.315 . S
O963 Cd953 2.240 . S
O963 C961 1.279 . S
O964 Cd954 2.297 . S
O964 C959 1.247 . S
O965 Cd954 2.439 . S
O965 C959 1.208 . S
O966 Cd967 2.223 . S
O966 C974 1.315 . S
Cd967 O966 2.223 . S
Cd967 O970 2.297 . S
Cd967 O971 2.439 . S
Cd967 O977 2.240 . S
Cd968 O969 2.240 . S
Cd968 O976 2.223 . S
Cd968 O978 2.297 . S
Cd968 O979 2.439 . S
O969 Cd968 2.240 . S
O969 C974 1.279 . S
O970 Cd967 2.297 . S
O970 C972 1.247 . S
O971 Cd967 2.439 . S
O971 C972 1.208 . S
C972 O970 1.247 . S
C972 O971 1.208 . S
C973 O978 1.247 . S
C973 O979 1.208 . S
C974 O966 1.315 . S
C974 O969 1.279 . S
C975 O976 1.315 . S
C975 O977 1.279 . S
O976 Cd968 2.223 . S
O976 C975 1.315 . S
O977 Cd967 2.240 . S
O977 C975 1.279 . S
O978 Cd968 2.297 . S
O978 C973 1.247 . S
O979 Cd968 2.439 . S
O979 C973 1.208 . S
O980 Cd981 2.223 . S
O980 C988 1.315 . S
Cd981 O980 2.223 . S
Cd981 O984 2.297 . S
Cd981 O985 2.439 . S
Cd981 O991 2.240 . S
Cd982 O983 2.240 . S
Cd982 O990 2.223 . S
Cd982 O992 2.297 . S
Cd982 O993 2.439 . S
O983 Cd982 2.240 . S
O983 C988 1.279 . S
O984 Cd981 2.297 . S
O984 C986 1.247 . S
O985 Cd981 2.439 . S
O985 C986 1.208 . S
C986 O984 1.247 . S
C986 O985 1.208 . S
C987 O992 1.247 . S
C987 O993 1.208 . S
C988 O980 1.315 . S
C988 O983 1.279 . S
C989 O990 1.315 . S
C989 O991 1.279 . S
O990 Cd982 2.223 . S
O990 C989 1.315 . S
O991 Cd981 2.240 . S
O991 C989 1.279 . S
O992 Cd982 2.297 . S
O992 C987 1.247 . S
O993 Cd982 2.439 . S
O993 C987 1.208 . S
O994 Cd995 2.223 . S
O994 C1002 1.315 . S
Cd995 O994 2.223 . S
Cd995 O998 2.297 . S
Cd995 O999 2.439 . S
Cd995 O1005 2.240 . S
Cd996 O997 2.240 . S
Cd996 O1004 2.223 . S
Cd996 O1006 2.297 . S
Cd996 O1007 2.439 . S
O997 Cd996 2.240 . S
O997 C1002 1.279 . S
O998 Cd995 2.297 . S
O998 C1000 1.247 . S
O999 Cd995 2.439 . S
O999 C1000 1.208 . S
C1000 O998 1.247 . S
C1000 O999 1.208 . S
C1001 O1006 1.247 . S
C1001 O1007 1.208 . S
C1002 O994 1.315 . S
C1002 O997 1.279 . S
C1003 O1004 1.315 . S
C1003 O1005 1.279 . S
O1004 Cd996 2.223 . S
O1004 C1003 1.315 . S
O1005 Cd995 2.240 . S
O1005 C1003 1.279 . S
O1006 Cd996 2.297 . S
O1006 C1001 1.247 . S
O1007 Cd996 2.439 . S
O1007 C1001 1.208 . S
O1008 Cd1009 2.223 . S
O1008 C1016 1.315 . S
Cd1009 O1008 2.223 . S
Cd1009 O1012 2.297 . S
Cd1009 O1013 2.439 . S
Cd1009 O1019 2.240 . S
Cd1010 O1011 2.240 . S
Cd1010 O1018 2.223 . S
Cd1010 O1020 2.297 . S
Cd1010 O1021 2.439 . S
O1011 Cd1010 2.240 . S
O1011 C1016 1.279 . S
O1012 Cd1009 2.297 . S
O1012 C1014 1.247 . S
O1013 Cd1009 2.439 . S
O1013 C1014 1.208 . S
C1014 O1012 1.247 . S
C1014 O1013 1.208 . S
C1015 O1020 1.247 . S
C1015 O1021 1.208 . S
C1016 O1008 1.315 . S
C1016 O1011 1.279 . S
C1017 O1018 1.315 . S
C1017 O1019 1.279 . S
O1018 Cd1010 2.223 . S
O1018 C1017 1.315 . S
O1019 Cd1009 2.240 . S
O1019 C1017 1.279 . S
O1020 Cd1010 2.297 . S
O1020 C1015 1.247 . S
O1021 Cd1010 2.439 . S
O1021 C1015 1.208 . S
O1022 Cd1023 2.223 . S
O1022 C1030 1.315 . S
Cd1023 O1022 2.223 . S
Cd1023 O1026 2.297 . S
Cd1023 O1027 2.439 . S
Cd1023 O1033 2.240 . S
Cd1024 O1025 2.240 . S
Cd1024 O1032 2.223 . S
Cd1024 O1034 2.297 . S
Cd1024 O1035 2.439 . S
O1025 Cd1024 2.240 . S
O1025 C1030 1.279 . S
O1026 Cd1023 2.297 . S
O1026 C1028 1.247 . S
O1027 Cd1023 2.439 . S
O1027 C1028 1.208 . S
C1028 O1026 1.247 . S
C1028 O1027 1.208 . S
C1029 O1034 1.247 . S
C1029 O1035 1.208 . S
C1030 O1022 1.315 . S
C1030 O1025 1.279 . S
C1031 O1032 1.315 . S
C1031 O1033 1.279 . S
O1032 Cd1024 2.223 . S
O1032 C1031 1.315 . S
O1033 Cd1023 2.240 . S
O1033 C1031 1.279 . S
O1034 Cd1024 2.297 . S
O1034 C1029 1.247 . S
O1035 Cd1024 2.439 . S
O1035 C1029 1.208 . S
O1036 Cd1037 2.223 . S
O1036 C1044 1.315 . S
Cd1037 O1036 2.223 . S
Cd1037 O1040 2.297 . S
Cd1037 O1041 2.439 . S
Cd1037 O1047 2.240 . S
Cd1038 O1039 2.240 . S
Cd1038 O1046 2.223 . S
Cd1038 O1048 2.297 . S
Cd1038 O1049 2.439 . S
O1039 Cd1038 2.240 . S
O1039 C1044 1.279 . S
O1040 Cd1037 2.297 . S
O1040 C1042 1.247 . S
O1041 Cd1037 2.439 . S
O1041 C1042 1.208 . S
C1042 O1040 1.247 . S
C1042 O1041 1.208 . S
C1043 O1048 1.247 . S
C1043 O1049 1.208 . S
C1044 O1036 1.315 . S
C1044 O1039 1.279 . S
C1045 O1046 1.315 . S
C1045 O1047 1.279 . S
O1046 Cd1038 2.223 . S
O1046 C1045 1.315 . S
O1047 Cd1037 2.240 . S
O1047 C1045 1.279 . S
O1048 Cd1038 2.297 . S
O1048 C1043 1.247 . S
O1049 Cd1038 2.439 . S
O1049 C1043 1.208 . S
O1050 Cd1051 2.223 . S
O1050 C1058 1.315 . S
Cd1051 O1050 2.223 . S
Cd1051 O1054 2.297 . S
Cd1051 O1055 2.439 . S
Cd1051 O1061 2.240 . S
Cd1052 O1053 2.240 . S
Cd1052 O1060 2.223 . S
Cd1052 O1062 2.297 . S
Cd1052 O1063 2.439 . S
O1053 Cd1052 2.240 . S
O1053 C1058 1.279 . S
O1054 Cd1051 2.297 . S
O1054 C1056 1.247 . S
O1055 Cd1051 2.439 . S
O1055 C1056 1.208 . S
C1056 O1054 1.247 . S
C1056 O1055 1.208 . S
C1057 O1062 1.247 . S
C1057 O1063 1.208 . S
C1058 O1050 1.315 . S
C1058 O1053 1.279 . S
C1059 O1060 1.315 . S
C1059 O1061 1.279 . S
O1060 Cd1052 2.223 . S
O1060 C1059 1.315 . S
O1061 Cd1051 2.240 . S
O1061 C1059 1.279 . S
O1062 Cd1052 2.297 . S
O1062 C1057 1.247 . S
O1063 Cd1052 2.439 . S
O1063 C1057 1.208 . S
O1064 Cd1065 2.223 . S
O1064 C1072 1.315 . S
Cd1065 O1064 2.223 . S
Cd1065 O1068 2.297 . S
Cd1065 O1069 2.439 . S
Cd1065 O1075 2.240 . S
Cd1066 O1067 2.240 . S
Cd1066 O1074 2.223 . S
Cd1066 O1076 2.297 . S
Cd1066 O1077 2.439 . S
O1067 Cd1066 2.240 . S
O1067 C1072 1.279 . S
O1068 Cd1065 2.297 . S
O1068 C1070 1.247 . S
O1069 Cd1065 2.439 . S
O1069 C1070 1.208 . S
C1070 O1068 1.247 . S
C1070 O1069 1.208 . S
C1071 O1076 1.247 . S
C1071 O1077 1.208 . S
C1072 O1064 1.315 . S
C1072 O1067 1.279 . S
C1073 O1074 1.315 . S
C1073 O1075 1.279 . S
O1074 Cd1066 2.223 . S
O1074 C1073 1.315 . S
O1075 Cd1065 2.240 . S
O1075 C1073 1.279 . S
O1076 Cd1066 2.297 . S
O1076 C1071 1.247 . S
O1077 Cd1066 2.439 . S
O1077 C1071 1.208 . S
O1078 Cd1079 2.223 . S
O1078 C1086 1.315 . S
Cd1079 O1078 2.223 . S
Cd1079 O1082 2.297 . S
Cd1079 O1083 2.439 . S
Cd1079 O1089 2.240 . S
Cd1080 O1081 2.240 . S
Cd1080 O1088 2.223 . S
Cd1080 O1090 2.297 . S
Cd1080 O1091 2.439 . S
O1081 Cd1080 2.240 . S
O1081 C1086 1.279 . S
O1082 Cd1079 2.297 . S
O1082 C1084 1.247 . S
O1083 Cd1079 2.439 . S
O1083 C1084 1.208 . S
C1084 O1082 1.247 . S
C1084 O1083 1.208 . S
C1085 O1090 1.247 . S
C1085 O1091 1.208 . S
C1086 O1078 1.315 . S
C1086 O1081 1.279 . S
C1087 O1088 1.315 . S
C1087 O1089 1.279 . S
O1088 Cd1080 2.223 . S
O1088 C1087 1.315 . S
O1089 Cd1079 2.240 . S
O1089 C1087 1.279 . S
O1090 Cd1080 2.297 . S
O1090 C1085 1.247 . S
O1091 Cd1080 2.439 . S
O1091 C1085 1.208 . S
O1092 Cd1093 2.223 . S
O1092 C1100 1.315 . S
Cd1093 O1092 2.223 . S
Cd1093 O1096 2.297 . S
Cd1093 O1097 2.439 . S
Cd1093 O1103 2.240 . S
Cd1094 O1095 2.240 . S
Cd1094 O1102 2.223 . S
Cd1094 O1104 2.297 . S
Cd1094 O1105 2.439 . S
O1095 Cd1094 2.240 . S
O1095 C1100 1.279 . S
O1096 Cd1093 2.297 . S
O1096 C1098 1.247 . S
O1097 Cd1093 2.439 . S
O1097 C1098 1.208 . S
C1098 O1096 1.247 . S
C1098 O1097 1.208 . S
C1099 O1104 1.247 . S
C1099 O1105 1.208 . S
C1100 O1092 1.315 . S
C1100 O1095 1.279 . S
C1101 O1102 1.315 . S
C1101 O1103 1.279 . S
O1102 Cd1094 2.223 . S
O1102 C1101 1.315 . S
O1103 Cd1093 2.240 . S
O1103 C1101 1.279 . S
O1104 Cd1094 2.297 . S
O1104 C1099 1.247 . S
O1105 Cd1094 2.439 . S
O1105 C1099 1.208 . S
O1106 Cd1107 2.223 . S
O1106 C1114 1.315 . S
Cd1107 O1106 2.223 . S
Cd1107 O1110 2.297 . S
Cd1107 O1111 2.439 . S
Cd1107 O1117 2.240 . S
Cd1108 O1109 2.240 . S
Cd1108 O1116 2.223 . S
Cd1108 O1118 2.297 . S
Cd1108 O1119 2.439 . S
O1109 Cd1108 2.240 . S
O1109 C1114 1.279 . S
O1110 Cd1107 2.297 . S
O1110 C1112 1.247 . S
O1111 Cd1107 2.439 . S
O1111 C1112 1.208 . S
C1112 O1110 1.247 . S
C1112 O1111 1.208 . S
C1113 O1118 1.247 . S
C1113 O1119 1.208 . S
C1114 O1106 1.315 . S
C1114 O1109 1.279 . S
C1115 O1116 1.315 . S
C1115 O1117 1.279 . S
O1116 Cd1108 2.223 . S
O1116 C1115 1.315 . S
O1117 Cd1107 2.240 . S
O1117 C1115 1.279 . S
O1118 Cd1108 2.297 . S
O1118 C1113 1.247 . S
O1119 Cd1108 2.439 . S
O1119 C1113 1.208 . S
O1120 Cd1121 2.223 . S
O1120 C1128 1.315 . S
Cd1121 O1120 2.223 . S
Cd1121 O1124 2.297 . S
Cd1121 O1125 2.439 . S
Cd1121 O1131 2.240 . S
Cd1122 O1123 2.240 . S
Cd1122 O1130 2.223 . S
Cd1122 O1132 2.297 . S
Cd1122 O1133 2.439 . S
O1123 Cd1122 2.240 . S
O1123 C1128 1.279 . S
O1124 Cd1121 2.297 . S
O1124 C1126 1.247 . S
O1125 Cd1121 2.439 . S
O1125 C1126 1.208 . S
C1126 O1124 1.247 . S
C1126 O1125 1.208 . S
C1127 O1132 1.247 . S
C1127 O1133 1.208 . S
C1128 O1120 1.315 . S
C1128 O1123 1.279 . S
C1129 O1130 1.315 . S
C1129 O1131 1.279 . S
O1130 Cd1122 2.223 . S
O1130 C1129 1.315 . S
O1131 Cd1121 2.240 . S
O1131 C1129 1.279 . S
O1132 Cd1122 2.297 . S
O1132 C1127 1.247 . S
O1133 Cd1122 2.439 . S
O1133 C1127 1.208 . S
O1134 Cd1135 2.223 . S
O1134 C1142 1.315 . S
Cd1135 O1134 2.223 . S
Cd1135 O1138 2.297 . S
Cd1135 O1139 2.439 . S
Cd1135 O1145 2.240 . S
Cd1136 O1137 2.240 . S
Cd1136 O1144 2.223 . S
Cd1136 O1146 2.297 . S
Cd1136 O1147 2.439 . S
O1137 Cd1136 2.240 . S
O1137 C1142 1.279 . S
O1138 Cd1135 2.297 . S
O1138 C1140 1.247 . S
O1139 Cd1135 2.439 . S
O1139 C1140 1.208 . S
C1140 O1138 1.247 . S
C1140 O1139 1.208 . S
C1141 O1146 1.247 . S
C1141 O1147 1.208 . S
C1142 O1134 1.315 . S
C1142 O1137 1.279 . S
C1143 O1144 1.315 . S
C1143 O1145 1.279 . S
O1144 Cd1136 2.223 . S
O1144 C1143 1.315 . S
O1145 Cd1135 2.240 . S
O1145 C1143 1.279 . S
O1146 Cd1136 2.297 . S
O1146 C1141 1.247 . S
O1147 Cd1136 2.439 . S
O1147 C1141 1.208 . S
O1148 Cd1149 2.223 . S
O1148 C1156 1.315 . S
Cd1149 O1148 2.223 . S
Cd1149 O1152 2.297 . S
Cd1149 O1153 2.439 . S
Cd1149 O1159 2.240 . S
Cd1150 O1151 2.240 . S
Cd1150 O1158 2.223 . S
Cd1150 O1160 2.297 . S
Cd1150 O1161 2.439 . S
O1151 Cd1150 2.240 . S
O1151 C1156 1.279 . S
O1152 Cd1149 2.297 . S
O1152 C1154 1.247 . S
O1153 Cd1149 2.439 . S
O1153 C1154 1.208 . S
C1154 O1152 1.247 . S
C1154 O1153 1.208 . S
C1155 O1160 1.247 . S
C1155 O1161 1.208 . S
C1156 O1148 1.315 . S
C1156 O1151 1.279 . S
C1157 O1158 1.315 . S
C1157 O1159 1.279 . S
O1158 Cd1150 2.223 . S
O1158 C1157 1.315 . S
O1159 Cd1149 2.240 . S
O1159 C1157 1.279 . S
O1160 Cd1150 2.297 . S
O1160 C1155 1.247 . S
O1161 Cd1150 2.439 . S
O1161 C1155 1.208 . S
O1162 Cd1163 2.223 . S
O1162 C1170 1.315 . S
Cd1163 O1162 2.223 . S
Cd1163 O1166 2.297 . S
Cd1163 O1167 2.439 . S
Cd1163 O1173 2.240 . S
Cd1164 O1165 2.240 . S
Cd1164 O1172 2.223 . S
Cd1164 O1174 2.297 . S
Cd1164 O1175 2.439 . S
O1165 Cd1164 2.240 . S
O1165 C1170 1.279 . S
O1166 Cd1163 2.297 . S
O1166 C1168 1.247 . S
O1167 Cd1163 2.439 . S
O1167 C1168 1.208 . S
C1168 O1166 1.247 . S
C1168 O1167 1.208 . S
C1169 O1174 1.247 . S
C1169 O1175 1.208 . S
C1170 O1162 1.315 . S
C1170 O1165 1.279 . S
C1171 O1172 1.315 . S
C1171 O1173 1.279 . S
O1172 Cd1164 2.223 . S
O1172 C1171 1.315 . S
O1173 Cd1163 2.240 . S
O1173 C1171 1.279 . S
O1174 Cd1164 2.297 . S
O1174 C1169 1.247 . S
O1175 Cd1164 2.439 . S
O1175 C1169 1.208 . S
O1176 Cd1177 2.223 . S
O1176 C1184 1.315 . S
Cd1177 O1176 2.223 . S
Cd1177 O1180 2.297 . S
Cd1177 O1181 2.439 . S
Cd1177 O1187 2.240 . S
Cd1178 O1179 2.240 . S
Cd1178 O1186 2.223 . S
Cd1178 O1188 2.297 . S
Cd1178 O1189 2.439 . S
O1179 Cd1178 2.240 . S
O1179 C1184 1.279 . S
O1180 Cd1177 2.297 . S
O1180 C1182 1.247 . S
O1181 Cd1177 2.439 . S
O1181 C1182 1.208 . S
C1182 O1180 1.247 . S
C1182 O1181 1.208 . S
C1183 O1188 1.247 . S
C1183 O1189 1.208 . S
C1184 O1176 1.315 . S
C1184 O1179 1.279 . S
C1185 O1186 1.315 . S
C1185 O1187 1.279 . S
O1186 Cd1178 2.223 . S
O1186 C1185 1.315 . S
O1187 Cd1177 2.240 . S
O1187 C1185 1.279 . S
O1188 Cd1178 2.297 . S
O1188 C1183 1.247 . S
O1189 Cd1178 2.439 . S
O1189 C1183 1.208 . S
O1190 Cd1191 2.223 . S
O1190 C1198 1.315 . S
Cd1191 O1190 2.223 . S
Cd1191 O1194 2.297 . S
Cd1191 O1195 2.439 . S
Cd1191 O1201 2.240 . S
Cd1192 O1193 2.240 . S
Cd1192 O1200 2.223 . S
Cd1192 O1202 2.297 . S
Cd1192 O1203 2.439 . S
O1193 Cd1192 2.240 . S
O1193 C1198 1.279 . S
O1194 Cd1191 2.297 . S
O1194 C1196 1.247 . S
O1195 Cd1191 2.439 . S
O1195 C1196 1.208 . S
C1196 O1194 1.247 . S
C1196 O1195 1.208 . S
C1197 O1202 1.247 . S
C1197 O1203 1.208 . S
C1198 O1190 1.315 . S
C1198 O1193 1.279 . S
C1199 O1200 1.315 . S
C1199 O1201 1.279 . S
O1200 Cd1192 2.223 . S
O1200 C1199 1.315 . S
O1201 Cd1191 2.240 . S
O1201 C1199 1.279 . S
O1202 Cd1192 2.297 . S
O1202 C1197 1.247 . S
O1203 Cd1192 2.439 . S
O1203 C1197 1.208 . S
O1204 Cd1205 2.223 . S
O1204 C1212 1.315 . S
Cd1205 O1204 2.223 . S
Cd1205 O1208 2.297 . S
Cd1205 O1209 2.439 . S
Cd1205 O1215 2.240 . S
Cd1206 O1207 2.240 . S
Cd1206 O1214 2.223 . S
Cd1206 O1216 2.297 . S
Cd1206 O1217 2.439 . S
O1207 Cd1206 2.240 . S
O1207 C1212 1.279 . S
O1208 Cd1205 2.297 . S
O1208 C1210 1.247 . S
O1209 Cd1205 2.439 . S
O1209 C1210 1.208 . S
C1210 O1208 1.247 . S
C1210 O1209 1.208 . S
C1211 O1216 1.247 . S
C1211 O1217 1.208 . S
C1212 O1204 1.315 . S
C1212 O1207 1.279 . S
C1213 O1214 1.315 . S
C1213 O1215 1.279 . S
O1214 Cd1206 2.223 . S
O1214 C1213 1.315 . S
O1215 Cd1205 2.240 . S
O1215 C1213 1.279 . S
O1216 Cd1206 2.297 . S
O1216 C1211 1.247 . S
O1217 Cd1206 2.439 . S
O1217 C1211 1.208 . S
O1218 Cd1219 2.223 . S
O1218 C1226 1.315 . S
Cd1219 O1218 2.223 . S
Cd1219 O1222 2.297 . S
Cd1219 O1223 2.439 . S
Cd1219 O1229 2.240 . S
Cd1220 O1221 2.240 . S
Cd1220 O1228 2.223 . S
Cd1220 O1230 2.297 . S
Cd1220 O1231 2.439 . S
O1221 Cd1220 2.240 . S
O1221 C1226 1.279 . S
O1222 Cd1219 2.297 . S
O1222 C1224 1.247 . S
O1223 Cd1219 2.439 . S
O1223 C1224 1.208 . S
C1224 O1222 1.247 . S
C1224 O1223 1.208 . S
C1225 O1230 1.247 . S
C1225 O1231 1.208 . S
C1226 O1218 1.315 . S
C1226 O1221 1.279 . S
C1227 O1228 1.315 . S
C1227 O1229 1.279 . S
O1228 Cd1220 2.223 . S
O1228 C1227 1.315 . S
O1229 Cd1219 2.240 . S
O1229 C1227 1.279 . S
O1230 Cd1220 2.297 . S
O1230 C1225 1.247 . S
O1231 Cd1220 2.439 . S
O1231 C1225 1.208 . S
O1232 Cd1233 2.223 . S
O1232 C1240 1.315 . S
Cd1233 O1232 2.223 . S
Cd1233 O1236 2.297 . S
Cd1233 O1237 2.439 . S
Cd1233 O1243 2.240 . S
Cd1234 O1235 2.240 . S
Cd1234 O1242 2.223 . S
Cd1234 O1244 2.297 . S
Cd1234 O1245 2.439 . S
O1235 Cd1234 2.240 . S
O1235 C1240 1.279 . S
O1236 Cd1233 2.297 . S
O1236 C1238 1.247 . S
O1237 Cd1233 2.439 . S
O1237 C1238 1.208 . S
C1238 O1236 1.247 . S
C1238 O1237 1.208 . S
C1239 O1244 1.247 . S
C1239 O1245 1.208 . S
C1240 O1232 1.315 . S
C1240 O1235 1.279 . S
C1241 O1242 1.315 . S
C1241 O1243 1.279 . S
O1242 Cd1234 2.223 . S
O1242 C1241 1.315 . S
O1243 Cd1233 2.240 . S
O1243 C1241 1.279 . S
O1244 Cd1234 2.297 . S
O1244 C1239 1.247 . S
O1245 Cd1234 2.439 . S
O1245 C1239 1.208 . S
O1246 Cd1247 2.223 . S
O1246 C1254 1.315 . S
Cd1247 O1246 2.223 . S
Cd1247 O1250 2.297 . S
Cd1247 O1251 2.439 . S
Cd1247 O1257 2.240 . S
Cd1248 O1249 2.240 . S
Cd1248 O1256 2.223 . S
Cd1248 O1258 2.297 . S
Cd1248 O1259 2.439 . S
O1249 Cd1248 2.240 . S
O1249 C1254 1.279 . S
O1250 Cd1247 2.297 . S
O1250 C1252 1.247 . S
O1251 Cd1247 2.439 . S
O1251 C1252 1.208 . S
C1252 O1250 1.247 . S
C1252 O1251 1.208 . S
C1253 O1258 1.247 . S
C1253 O1259 1.208 . S
C1254 O1246 1.315 . S
C1254 O1249 1.279 . S
C1255 O1256 1.315 . S
C1255 O1257 1.279 . S
O1256 Cd1248 2.223 . S
O1256 C1255 1.315 . S
O1257 Cd1247 2.240 . S
O1257 C1255 1.279 . S
O1258 Cd1248 2.297 . S
O1258 C1253 1.247 . S
O1259 Cd1248 2.439 . S
O1259 C1253 1.208 . S
O1260 Cd1261 2.223 . S
O1260 C1268 1.315 . S
Cd1261 O1260 2.223 . S
Cd1261 O1264 2.297 . S
Cd1261 O1265 2.439 . S
Cd1261 O1271 2.240 . S
Cd1262 O1263 2.240 . S
Cd1262 O1270 2.223 . S
Cd1262 O1272 2.297 . S
Cd1262 O1273 2.439 . S
O1263 Cd1262 2.240 . S
O1263 C1268 1.279 . S
O1264 Cd1261 2.297 . S
O1264 C1266 1.247 . S
O1265 Cd1261 2.439 . S
O1265 C1266 1.208 . S
C1266 O1264 1.247 . S
C1266 O1265 1.208 . S
C1267 O1272 1.247 . S
C1267 O1273 1.208 . S
C1268 O1260 1.315 . S
C1268 O1263 1.279 . S
C1269 O1270 1.315 . S
C1269 O1271 1.279 . S
O1270 Cd1262 2.223 . S
O1270 C1269 1.315 . S
O1271 Cd1261 2.240 . S
O1271 C1269 1.279 . S
O1272 Cd1262 2.297 . S
O1272 C1267 1.247 . S
O1273 Cd1262 2.439 . S
O1273 C1267 1.208 . S
O1274 Cd1275 2.223 . S
O1274 C1282 1.315 . S
Cd1275 O1274 2.223 . S
Cd1275 O1278 2.297 . S
Cd1275 O1279 2.439 . S
Cd1275 O1285 2.240 . S
Cd1276 O1277 2.240 . S
Cd1276 O1284 2.223 . S
Cd1276 O1286 2.297 . S
Cd1276 O1287 2.439 . S
O1277 Cd1276 2.240 . S
O1277 C1282 1.279 . S
O1278 Cd1275 2.297 . S
O1278 C1280 1.247 . S
O1279 Cd1275 2.439 . S
O1279 C1280 1.208 . S
C1280 O1278 1.247 . S
C1280 O1279 1.208 . S
C1281 O1286 1.247 . S
C1281 O1287 1.208 . S
C1282 O1274 1.315 . S
C1282 O1277 1.279 . S
C1283 O1284 1.315 . S
C1283 O1285 1.279 . S
O1284 Cd1276 2.223 . S
O1284 C1283 1.315 . S
O1285 Cd1275 2.240 . S
O1285 C1283 1.279 . S
O1286 Cd1276 2.297 . S
O1286 C1281 1.247 . S
O1287 Cd1276 2.439 . S
O1287 C1281 1.208 . S
O1288 Cd1289 2.223 . S
O1288 C1296 1.315 . S
Cd1289 O1288 2.223 . S
Cd1289 O1292 2.297 . S
Cd1289 O1293 2.439 . S
Cd1289 O1299 2.240 . S
Cd1290 O1291 2.240 . S
Cd1290 O1298 2.223 . S
Cd1290 O1300 2.297 . S
Cd1290 O1301 2.439 . S
O1291 Cd1290 2.240 . S
O1291 C1296 1.279 . S
O1292 Cd1289 2.297 . S
O1292 C1294 1.247 . S
O1293 Cd1289 2.439 . S
O1293 C1294 1.208 . S
C1294 O1292 1.247 . S
C1294 O1293 1.208 . S
C1295 O1300 1.247 . S
C1295 O1301 1.208 . S
C1296 O1288 1.315 . S
C1296 O1291 1.279 . S
C1297 O1298 1.315 . S
C1297 O1299 1.279 . S
O1298 Cd1290 2.223 . S
O1298 C1297 1.315 . S
O1299 Cd1289 2.240 . S
O1299 C1297 1.279 . S
O1300 Cd1290 2.297 . S
O1300 C1295 1.247 . S
O1301 Cd1290 2.439 . S
O1301 C1295 1.208 . S
O1302 Cd1303 2.223 . S
O1302 C1310 1.315 . S
Cd1303 O1302 2.223 . S
Cd1303 O1306 2.297 . S
Cd1303 O1307 2.439 . S
Cd1303 O1313 2.240 . S
Cd1304 O1305 2.240 . S
Cd1304 O1312 2.223 . S
Cd1304 O1314 2.297 . S
Cd1304 O1315 2.439 . S
O1305 Cd1304 2.240 . S
O1305 C1310 1.279 . S
O1306 Cd1303 2.297 . S
O1306 C1308 1.247 . S
O1307 Cd1303 2.439 . S
O1307 C1308 1.208 . S
C1308 O1306 1.247 . S
C1308 O1307 1.208 . S
C1309 O1314 1.247 . S
C1309 O1315 1.208 . S
C1310 O1302 1.315 . S
C1310 O1305 1.279 . S
C1311 O1312 1.315 . S
C1311 O1313 1.279 . S
O1312 Cd1304 2.223 . S
O1312 C1311 1.315 . S
O1313 Cd1303 2.240 . S
O1313 C1311 1.279 . S
O1314 Cd1304 2.297 . S
O1314 C1309 1.247 . S
O1315 Cd1304 2.439 . S
O1315 C1309 1.208 . S
O1316 Cd1317 2.223 . S
O1316 C1324 1.315 . S
Cd1317 O1316 2.223 . S
Cd1317 O1320 2.297 . S
Cd1317 O1321 2.439 . S
Cd1317 O1327 2.240 . S
Cd1318 O1319 2.240 . S
Cd1318 O1326 2.223 . S
Cd1318 O1328 2.297 . S
Cd1318 O1329 2.439 . S
O1319 Cd1318 2.240 . S
O1319 C1324 1.279 . S
O1320 Cd1317 2.297 . S
O1320 C1322 1.247 . S
O1321 Cd1317 2.439 . S
O1321 C1322 1.208 . S
C1322 O1320 1.247 . S
C1322 O1321 1.208 . S
C1323 O1328 1.247 . S
C1323 O1329 1.208 . S
C1324 O1316 1.315 . S
C1324 O1319 1.279 . S
C1325 O1326 1.315 . S
C1325 O1327 1.279 . S
O1326 Cd1318 2.223 . S
O1326 C1325 1.315 . S
O1327 Cd1317 2.240 . S
O1327 C1325 1.279 . S
O1328 Cd1318 2.297 . S
O1328 C1323 1.247 . S
O1329 Cd1318 2.439 . S
O1329 C1323 1.208 . S
O1330 Cd1331 2.223 . S
O1330 C1338 1.315 . S
Cd1331 O1330 2.223 . S
Cd1331 O1334 2.297 . S
Cd1331 O1335 2.439 . S
Cd1331 O1341 2.240 . S
Cd1332 O1333 2.240 . S
Cd1332 O1340 2.223 . S
Cd1332 O1342 2.297 . S
Cd1332 O1343 2.439 . S
O1333 Cd1332 2.240 . S
O1333 C1338 1.279 . S
O1334 Cd1331 2.297 . S
O1334 C1336 1.247 . S
O1335 Cd1331 2.439 . S
O1335 C1336 1.208 . S
C1336 O1334 1.247 . S
C1336 O1335 1.208 . S
C1337 O1342 1.247 . S
C1337 O1343 1.208 . S
C1338 O1330 1.315 . S
C1338 O1333 1.279 . S
C1339 O1340 1.315 . S
C1339 O1341 1.279 . S
O1340 Cd1332 2.223 . S
O1340 C1339 1.315 . S
O1341 Cd1331 2.240 . S
O1341 C1339 1.279 . S
O1342 Cd1332 2.297 . S
O1342 C1337 1.247 . S
O1343 Cd1332 2.439 . S
O1343 C1337 1.208 . S
O1344 Cd1345 2.223 . S
O1344 C1352 1.315 . S
Cd1345 O1344 2.223 . S
Cd1345 O1348 2.297 . S
Cd1345 O1349 2.439 . S
Cd1345 O1355 2.240 . S
Cd1346 O1347 2.240 . S
Cd1346 O1354 2.223 . S
Cd1346 O1356 2.297 . S
Cd1346 O1357 2.439 . S
O1347 Cd1346 2.240 . S
O1347 C1352 1.279 . S
O1348 Cd1345 2.297 . S
O1348 C1350 1.247 . S
O1349 Cd1345 2.439 . S
O1349 C1350 1.208 . S
C1350 O1348 1.247 . S
C1350 O1349 1.208 . S
C1351 O1356 1.247 . S
C1351 O1357 1.208 . S
C1352 O1344 1.315 . S
C1352 O1347 1.279 . S
C1353 O1354 1.315 . S
C1353 O1355 1.279 . S
O1354 Cd1346 2.223 . S
O1354 C1353 1.315 . S
O1355 Cd1345 2.240 . S
O1355 C1353 1.279 . S
O1356 Cd1346 2.297 . S
O1356 C1351 1.247 . S
O1357 Cd1346 2.439 . S
O1357 C1351 1.208 . S
O1358 Cd1359 2.223 . S
O1358 C1366 1.315 . S
Cd1359 O1358 2.223 . S
Cd1359 O1362 2.297 . S
Cd1359 O1363 2.439 . S
Cd1359 O1369 2.240 . S
Cd1360 O1361 2.240 . S
Cd1360 O1368 2.223 . S
Cd1360 O1370 2.297 . S
Cd1360 O1371 2.439 . S
O1361 Cd1360 2.240 . S
O1361 C1366 1.279 . S
O1362 Cd1359 2.297 . S
O1362 C1364 1.247 . S
O1363 Cd1359 2.439 . S
O1363 C1364 1.208 . S
C1364 O1362 1.247 . S
C1364 O1363 1.208 . S
C1365 O1370 1.247 . S
C1365 O1371 1.208 . S
C1366 O1358 1.315 . S
C1366 O1361 1.279 . S
C1367 O1368 1.315 . S
C1367 O1369 1.279 . S
O1368 Cd1360 2.223 . S
O1368 C1367 1.315 . S
O1369 Cd1359 2.240 . S
O1369 C1367 1.279 . S
O1370 Cd1360 2.297 . S
O1370 C1365 1.247 . S
O1371 Cd1360 2.439 . S
O1371 C1365 1.208 . S
O1372 Cd1373 2.223 . S
O1372 C1380 1.315 . S
Cd1373 O1372 2.223 . S
Cd1373 O1376 2.297 . S
Cd1373 O1377 2.439 . S
Cd1373 O1383 2.240 . S
Cd1374 O1375 2.240 . S
Cd1374 O1382 2.223 . S
Cd1374 O1384 2.297 . S
Cd1374 O1385 2.439 . S
O1375 Cd1374 2.240 . S
O1375 C1380 1.279 . S
O1376 Cd1373 2.297 . S
O1376 C1378 1.247 . S
O1377 Cd1373 2.439 . S
O1377 C1378 1.208 . S
C1378 O1376 1.247 . S
C1378 O1377 1.208 . S
C1379 O1384 1.247 . S
C1379 O1385 1.208 . S
C1380 O1372 1.315 . S
C1380 O1375 1.279 . S
C1381 O1382 1.315 . S
C1381 O1383 1.279 . S
O1382 Cd1374 2.223 . S
O1382 C1381 1.315 . S
O1383 Cd1373 2.240 . S
O1383 C1381 1.279 . S
O1384 Cd1374 2.297 . S
O1384 C1379 1.247 . S
O1385 Cd1374 2.439 . S
O1385 C1379 1.208 . S
O1386 Cd1387 2.223 . S
O1386 C1394 1.315 . S
Cd1387 O1386 2.223 . S
Cd1387 O1390 2.297 . S
Cd1387 O1391 2.439 . S
Cd1387 O1397 2.240 . S
Cd1388 O1389 2.240 . S
Cd1388 O1396 2.223 . S
Cd1388 O1398 2.297 . S
Cd1388 O1399 2.439 . S
O1389 Cd1388 2.240 . S
O1389 C1394 1.279 . S
O1390 Cd1387 2.297 . S
O1390 C1392 1.247 . S
O1391 Cd1387 2.439 . S
O1391 C1392 1.208 . S
C1392 O1390 1.247 . S
C1392 O1391 1.208 . S
C1393 O1398 1.247 . S
C1393 O1399 1.208 . S
C1394 O1386 1.315 . S
C1394 O1389 1.279 . S
C1395 O1396 1.315 . S
C1395 O1397 1.279 . S
O1396 Cd1388 2.223 . S
O1396 C1395 1.315 . S
O1397 Cd1387 2.240 . S
O1397 C1395 1.279 . S
O1398 Cd1388 2.297 . S
O1398 C1393 1.247 . S
O1399 Cd1388 2.439 . S
O1399 C1393 1.208 . S
O1400 Cd1401 2.223 . S
O1400 C1408 1.315 . S
Cd1401 O1400 2.223 . S
Cd1401 O1404 2.297 . S
Cd1401 O1405 2.439 . S
Cd1401 O1411 2.240 . S
Cd1402 O1403 2.240 . S
Cd1402 O1410 2.223 . S
Cd1402 O1412 2.297 . S
Cd1402 O1413 2.439 . S
O1403 Cd1402 2.240 . S
O1403 C1408 1.279 . S
O1404 Cd1401 2.297 . S
O1404 C1406 1.247 . S
O1405 Cd1401 2.439 . S
O1405 C1406 1.208 . S
C1406 O1404 1.247 . S
C1406 O1405 1.208 . S
C1407 O1412 1.247 . S
C1407 O1413 1.208 . S
C1408 O1400 1.315 . S
C1408 O1403 1.279 . S
C1409 O1410 1.315 . S
C1409 O1411 1.279 . S
O1410 Cd1402 2.223 . S
O1410 C1409 1.315 . S
O1411 Cd1401 2.240 . S
O1411 C1409 1.279 . S
O1412 Cd1402 2.297 . S
O1412 C1407 1.247 . S
O1413 Cd1402 2.439 . S
O1413 C1407 1.208 . S
O1414 Cd1415 2.223 . S
O1414 C1422 1.315 . S
Cd1415 O1414 2.223 . S
Cd1415 O1418 2.297 . S
Cd1415 O1419 2.439 . S
Cd1415 O1425 2.240 . S
Cd1416 O1417 2.240 . S
Cd1416 O1424 2.223 . S
Cd1416 O1426 2.297 . S
Cd1416 O1427 2.439 . S
O1417 Cd1416 2.240 . S
O1417 C1422 1.279 . S
O1418 Cd1415 2.297 . S
O1418 C1420 1.247 . S
O1419 Cd1415 2.439 . S
O1419 C1420 1.208 . S
C1420 O1418 1.247 . S
C1420 O1419 1.208 . S
C1421 O1426 1.247 . S
C1421 O1427 1.208 . S
C1422 O1414 1.315 . S
C1422 O1417 1.279 . S
C1423 O1424 1.315 . S
C1423 O1425 1.279 . S
O1424 Cd1416 2.223 . S
O1424 C1423 1.315 . S
O1425 Cd1415 2.240 . S
O1425 C1423 1.279 . S
O1426 Cd1416 2.297 . S
O1426 C1421 1.247 . S
O1427 Cd1416 2.439 . S
O1427 C1421 1.208 . S
O1428 Cd1429 2.223 . S
O1428 C1436 1.315 . S
Cd1429 O1428 2.223 . S
Cd1429 O1432 2.297 . S
Cd1429 O1433 2.439 . S
Cd1429 O1439 2.240 . S
Cd1430 O1431 2.240 . S
Cd1430 O1438 2.223 . S
Cd1430 O1440 2.297 . S
Cd1430 O1441 2.439 . S
O1431 Cd1430 2.240 . S
O1431 C1436 1.279 . S
O1432 Cd1429 2.297 . S
O1432 C1434 1.247 . S
O1433 Cd1429 2.439 . S
O1433 C1434 1.208 . S
C1434 O1432 1.247 . S
C1434 O1433 1.208 . S
C1435 O1440 1.247 . S
C1435 O1441 1.208 . S
C1436 O1428 1.315 . S
C1436 O1431 1.279 . S
C1437 O1438 1.315 . S
C1437 O1439 1.279 . S
O1438 Cd1430 2.223 . S
O1438 C1437 1.315 . S
O1439 Cd1429 2.240 . S
O1439 C1437 1.279 . S
O1440 Cd1430 2.297 . S
O1440 C1435 1.247 . S
O1441 Cd1430 2.439 . S
O1441 C1435 1.208 . S
O1442 Cd1443 2.223 . S
O1442 C1450 1.315 . S
Cd1443 O1442 2.223 . S
Cd1443 O1446 2.297 . S
Cd1443 O1447 2.439 . S
Cd1443 O1453 2.240 . S
Cd1444 O1445 2.240 . S
Cd1444 O1452 2.223 . S
Cd1444 O1454 2.297 . S
Cd1444 O1455 2.439 . S
O1445 Cd1444 2.240 . S
O1445 C1450 1.279 . S
O1446 Cd1443 2.297 . S
O1446 C1448 1.247 . S
O1447 Cd1443 2.439 . S
O1447 C1448 1.208 . S
C1448 O1446 1.247 . S
C1448 O1447 1.208 . S
C1449 O1454 1.247 . S
C1449 O1455 1.208 . S
C1450 O1442 1.315 . S
C1450 O1445 1.279 . S
C1451 O1452 1.315 . S
C1451 O1453 1.279 . S
O1452 Cd1444 2.223 . S
O1452 C1451 1.315 . S
O1453 Cd1443 2.240 . S
O1453 C1451 1.279 . S
O1454 Cd1444 2.297 . S
O1454 C1449 1.247 . S
O1455 Cd1444 2.439 . S
O1455 C1449 1.208 . S
O1456 Cd1457 2.223 . S
O1456 C1464 1.315 . S
Cd1457 O1456 2.223 . S
Cd1457 O1460 2.297 . S
Cd1457 O1461 2.439 . S
Cd1457 O1467 2.240 . S
Cd1458 O1459 2.240 . S
Cd1458 O1466 2.223 . S
Cd1458 O1468 2.297 . S
Cd1458 O1469 2.439 . S
O1459 Cd1458 2.240 . S
O1459 C1464 1.279 . S
O1460 Cd1457 2.297 . S
O1460 C1462 1.247 . S
O1461 Cd1457 2.439 . S
O1461 C1462 1.208 . S
C1462 O1460 1.247 . S
C1462 O1461 1.208 . S
C1463 O1468 1.247 . S
C1463 O1469 1.208 . S
C1464 O1456 1.315 . S
C1464 O1459 1.279 . S
C1465 O1466 1.315 . S
C1465 O1467 1.279 . S
O1466 Cd1458 2.223 . S
O1466 C1465 1.315 . S
O1467 Cd1457 2.240 . S
O1467 C1465 1.279 . S
O1468 Cd1458 2.297 . S
O1468 C1463 1.247 . S
O1469 Cd1458 2.439 . S
O1469 C1463 1.208 . S
O1470 Cd1471 2.223 . S
O1470 C1478 1.315 . S
Cd1471 O1470 2.223 . S
Cd1471 O1474 2.297 . S
Cd1471 O1475 2.439 . S
Cd1471 O1481 2.240 . S
Cd1472 O1473 2.240 . S
Cd1472 O1480 2.223 . S
Cd1472 O1482 2.297 . S
Cd1472 O1483 2.439 . S
O1473 Cd1472 2.240 . S
O1473 C1478 1.279 . S
O1474 Cd1471 2.297 . S
O1474 C1476 1.247 . S
O1475 Cd1471 2.439 . S
O1475 C1476 1.208 . S
C1476 O1474 1.247 . S
C1476 O1475 1.208 . S
C1477 O1482 1.247 . S
C1477 O1483 1.208 . S
C1478 O1470 1.315 . S
C1478 O1473 1.279 . S
C1479 O1480 1.315 . S
C1479 O1481 1.279 . S
O1480 Cd1472 2.223 . S
O1480 C1479 1.315 . S
O1481 Cd1471 2.240 . S
O1481 C1479 1.279 . S
O1482 Cd1472 2.297 . S
O1482 C1477 1.247 . S
O1483 Cd1472 2.439 . S
O1483 C1477 1.208 . S
O1484 Cd1485 2.223 . S
O1484 C1492 1.315 . S
Cd1485 O1484 2.223 . S
Cd1485 O1488 2.297 . S
Cd1485 O1489 2.439 . S
Cd1485 O1495 2.240 . S
Cd1486 O1487 2.240 . S
Cd1486 O1494 2.223 . S
Cd1486 O1496 2.297 . S
Cd1486 O1497 2.439 . S
O1487 Cd1486 2.240 . S
O1487 C1492 1.279 . S
O1488 Cd1485 2.297 . S
O1488 C1490 1.247 . S
O1489 Cd1485 2.439 . S
O1489 C1490 1.208 . S
C1490 O1488 1.247 . S
C1490 O1489 1.208 . S
C1491 O1496 1.247 . S
C1491 O1497 1.208 . S
C1492 O1484 1.315 . S
C1492 O1487 1.279 . S
C1493 O1494 1.315 . S
C1493 O1495 1.279 . S
O1494 Cd1486 2.223 . S
O1494 C1493 1.315 . S
O1495 Cd1485 2.240 . S
O1495 C1493 1.279 . S
O1496 Cd1486 2.297 . S
O1496 C1491 1.247 . S
O1497 Cd1486 2.439 . S
O1497 C1491 1.208 . S
O1498 Cd1499 2.223 . S
O1498 C1506 1.315 . S
Cd1499 O1498 2.223 . S
Cd1499 O1502 2.297 . S
Cd1499 O1503 2.439 . S
Cd1499 O1509 2.240 . S
Cd1500 O1501 2.240 . S
Cd1500 O1508 2.223 . S
Cd1500 O1510 2.297 . S
Cd1500 O1511 2.439 . S
O1501 Cd1500 2.240 . S
O1501 C1506 1.279 . S
O1502 Cd1499 2.297 . S
O1502 C1504 1.247 . S
O1503 Cd1499 2.439 . S
O1503 C1504 1.208 . S
C1504 O1502 1.247 . S
C1504 O1503 1.208 . S
C1505 O1510 1.247 . S
C1505 O1511 1.208 . S
C1506 O1498 1.315 . S
C1506 O1501 1.279 . S
C1507 O1508 1.315 . S
C1507 O1509 1.279 . S
O1508 Cd1500 2.223 . S
O1508 C1507 1.315 . S
O1509 Cd1499 2.240 . S
O1509 C1507 1.279 . S
O1510 Cd1500 2.297 . S
O1510 C1505 1.247 . S
O1511 Cd1500 2.439 . S
O1511 C1505 1.208 . S
O1512 Cd1513 2.223 . S
O1512 C1520 1.315 . S
Cd1513 O1512 2.223 . S
Cd1513 O1516 2.297 . S
Cd1513 O1517 2.439 . S
Cd1513 O1523 2.240 . S
Cd1514 O1515 2.240 . S
Cd1514 O1522 2.223 . S
Cd1514 O1524 2.297 . S
Cd1514 O1525 2.439 . S
O1515 Cd1514 2.240 . S
O1515 C1520 1.279 . S
O1516 Cd1513 2.297 . S
O1516 C1518 1.247 . S
O1517 Cd1513 2.439 . S
O1517 C1518 1.208 . S
C1518 O1516 1.247 . S
C1518 O1517 1.208 . S
C1519 O1524 1.247 . S
C1519 O1525 1.208 . S
C1520 O1512 1.315 . S
C1520 O1515 1.279 . S
C1521 O1522 1.315 . S
C1521 O1523 1.279 . S
O1522 Cd1514 2.223 . S
O1522 C1521 1.315 . S
O1523 Cd1513 2.240 . S
O1523 C1521 1.279 . S
O1524 Cd1514 2.297 . S
O1524 C1519 1.247 . S
O1525 Cd1514 2.439 . S
O1525 C1519 1.208 . S
O1526 Cd1527 2.223 . S
O1526 C1534 1.315 . S
Cd1527 O1526 2.223 . S
Cd1527 O1530 2.297 . S
Cd1527 O1531 2.439 . S
Cd1527 O1537 2.240 . S
Cd1528 O1529 2.240 . S
Cd1528 O1536 2.223 . S
Cd1528 O1538 2.297 . S
Cd1528 O1539 2.439 . S
O1529 Cd1528 2.240 . S
O1529 C1534 1.279 . S
O1530 Cd1527 2.297 . S
O1530 C1532 1.247 . S
O1531 Cd1527 2.439 . S
O1531 C1532 1.208 . S
C1532 O1530 1.247 . S
C1532 O1531 1.208 . S
C1533 O1538 1.247 . S
C1533 O1539 1.208 . S
C1534 O1526 1.315 . S
C1534 O1529 1.279 . S
C1535 O1536 1.315 . S
C1535 O1537 1.279 . S
O1536 Cd1528 2.223 . S
O1536 C1535 1.315 . S
O1537 Cd1527 2.240 . S
O1537 C1535 1.279 . S
O1538 Cd1528 2.297 . S
O1538 C1533 1.247 . S
O1539 Cd1528 2.439 . S
O1539 C1533 1.208 . S
O1540 Cd1541 2.223 . S
O1540 C1548 1.315 . S
Cd1541 O1540 2.223 . S
Cd1541 O1544 2.297 . S
Cd1541 O1545 2.439 . S
Cd1541 O1551 2.240 . S
Cd1542 O1543 2.240 . S
Cd1542 O1550 2.223 . S
Cd1542 O1552 2.297 . S
Cd1542 O1553 2.439 . S
O1543 Cd1542 2.240 . S
O1543 C1548 1.279 . S
O1544 Cd1541 2.297 . S
O1544 C1546 1.247 . S
O1545 Cd1541 2.439 . S
O1545 C1546 1.208 . S
C1546 O1544 1.247 . S
C1546 O1545 1.208 . S
C1547 O1552 1.247 . S
C1547 O1553 1.208 . S
C1548 O1540 1.315 . S
C1548 O1543 1.279 . S
C1549 O1550 1.315 . S
C1549 O1551 1.279 . S
O1550 Cd1542 2.223 . S
O1550 C1549 1.315 . S
O1551 Cd1541 2.240 . S
O1551 C1549 1.279 . S
O1552 Cd1542 2.297 . S
O1552 C1547 1.247 . S
O1553 Cd1542 2.439 . S
O1553 C1547 1.208 . S
O1554 Cd1555 2.223 . S
O1554 C1562 1.315 . S
Cd1555 O1554 2.223 . S
Cd1555 O1558 2.297 . S
Cd1555 O1559 2.439 . S
Cd1555 O1565 2.240 . S
Cd1556 O1557 2.240 . S
Cd1556 O1564 2.223 . S
Cd1556 O1566 2.297 . S
Cd1556 O1567 2.439 . S
O1557 Cd1556 2.240 . S
O1557 C1562 1.279 . S
O1558 Cd1555 2.297 . S
O1558 C1560 1.247 . S
O1559 Cd1555 2.439 . S
O1559 C1560 1.208 . S
C1560 O1558 1.247 . S
C1560 O1559 1.208 . S
C1561 O1566 1.247 . S
C1561 O1567 1.208 . S
C1562 O1554 1.315 . S
C1562 O1557 1.279 . S
C1563 O1564 1.315 . S
C1563 O1565 1.279 . S
O1564 Cd1556 2.223 . S
O1564 C1563 1.315 . S
O1565 Cd1555 2.240 . S
O1565 C1563 1.279 . S
O1566 Cd1556 2.297 . S
O1566 C1561 1.247 . S
O1567 Cd1556 2.439 . S
O1567 C1561 1.208 . S
O1568 Cd1569 2.223 . S
O1568 C1576 1.315 . S
Cd1569 O1568 2.223 . S
Cd1569 O1572 2.297 . S
Cd1569 O1573 2.439 . S
Cd1569 O1579 2.240 . S
Cd1570 O1571 2.240 . S
Cd1570 O1578 2.223 . S
Cd1570 O1580 2.297 . S
Cd1570 O1581 2.439 . S
O1571 Cd1570 2.240 . S
O1571 C1576 1.279 . S
O1572 Cd1569 2.297 . S
O1572 C1574 1.247 . S
O1573 Cd1569 2.439 . S
O1573 C1574 1.208 . S
C1574 O1572 1.247 . S
C1574 O1573 1.208 . S
C1575 O1580 1.247 . S
C1575 O1581 1.208 . S
C1576 O1568 1.315 . S
C1576 O1571 1.279 . S
C1577 O1578 1.315 . S
C1577 O1579 1.279 . S
O1578 Cd1570 2.223 . S
O1578 C1577 1.315 . S
O1579 Cd1569 2.240 . S
O1579 C1577 1.279 . S
O1580 Cd1570 2.297 . S
O1580 C1575 1.247 . S
O1581 Cd1570 2.439 . S
O1581 C1575 1.208 . S
O1582 Cd1583 2.223 . S
O1582 C1590 1.315 . S
Cd1583 O1582 2.223 . S
Cd1583 O1586 2.297 . S
Cd1583 O1587 2.439 . S
Cd1583 O1593 2.240 . S
Cd1584 O1585 2.240 . S
Cd1584 O1592 2.223 . S
Cd1584 O1594 2.297 . S
Cd1584 O1595 2.439 . S
O1585 Cd1584 2.240 . S
O1585 C1590 1.279 . S
O1586 Cd1583 2.297 . S
O1586 C1588 1.247 . S
O1587 Cd1583 2.439 . S
O1587 C1588 1.208 . S
C1588 O1586 1.247 . S
C1588 O1587 1.208 . S
C1589 O1594 1.247 . S
C1589 O1595 1.208 . S
C1590 O1582 1.315 . S
C1590 O1585 1.279 . S
C1591 O1592 1.315 . S
C1591 O1593 1.279 . S
O1592 Cd1584 2.223 . S
O1592 C1591 1.315 . S
O1593 Cd1583 2.240 . S
O1593 C1591 1.279 . S
O1594 Cd1584 2.297 . S
O1594 C1589 1.247 . S
O1595 Cd1584 2.439 . S
O1595 C1589 1.208 . S
O1596 Cd1597 2.223 . S
O1596 C1604 1.315 . S
Cd1597 O1596 2.223 . S
Cd1597 O1600 2.297 . S
Cd1597 O1601 2.439 . S
Cd1597 O1607 2.240 . S
Cd1598 O1599 2.240 . S
Cd1598 O1606 2.223 . S
Cd1598 O1608 2.297 . S
Cd1598 O1609 2.439 . S
O1599 Cd1598 2.240 . S
O1599 C1604 1.279 . S
O1600 Cd1597 2.297 . S
O1600 C1602 1.247 . S
O1601 Cd1597 2.439 . S
O1601 C1602 1.208 . S
C1602 O1600 1.247 . S
C1602 O1601 1.208 . S
C1603 O1608 1.247 . S
C1603 O1609 1.208 . S
C1604 O1596 1.315 . S
C1604 O1599 1.279 . S
C1605 O1606 1.315 . S
C1605 O1607 1.279 . S
O1606 Cd1598 2.223 . S
O1606 C1605 1.315 . S
O1607 Cd1597 2.240 . S
O1607 C1605 1.279 . S
O1608 Cd1598 2.297 . S
O1608 C1603 1.247 . S
O1609 Cd1598 2.439 . S
O1609 C1603 1.208 . S
O1610 Cd1611 2.223 . S
O1610 C1618 1.315 . S
Cd1611 O1610 2.223 . S
Cd1611 O1614 2.297 . S
Cd1611 O1615 2.439 . S
Cd1611 O1621 2.240 . S
Cd1612 O1613 2.240 . S
Cd1612 O1620 2.223 . S
Cd1612 O1622 2.297 . S
Cd1612 O1623 2.439 . S
O1613 Cd1612 2.240 . S
O1613 C1618 1.279 . S
O1614 Cd1611 2.297 . S
O1614 C1616 1.247 . S
O1615 Cd1611 2.439 . S
O1615 C1616 1.208 . S
C1616 O1614 1.247 . S
C1616 O1615 1.208 . S
C1617 O1622 1.247 . S
C1617 O1623 1.208 . S
C1618 O1610 1.315 . S
C1618 O1613 1.279 . S
C1619 O1620 1.315 . S
C1619 O1621 1.279 . S
O1620 Cd1612 2.223 . S
O1620 C1619 1.315 . S
O1621 Cd1611 2.240 . S
O1621 C1619 1.279 . S
O1622 Cd1612 2.297 . S
O1622 C1617 1.247 . S
O1623 Cd1612 2.439 . S
O1623 C1617 1.208 . S
O1624 Cd1625 2.223 . S
O1624 C1632 1.315 . S
Cd1625 O1624 2.223 . S
Cd1625 O1628 2.297 . S
Cd1625 O1629 2.439 . S
Cd1625 O1635 2.240 . S
Cd1626 O1627 2.240 . S
Cd1626 O1634 2.223 . S
Cd1626 O1636 2.297 . S
Cd1626 O1637 2.439 . S
O1627 Cd1626 2.240 . S
O1627 C1632 1.279 . S
O1628 Cd1625 2.297 . S
O1628 C1630 1.247 . S
O1629 Cd1625 2.439 . S
O1629 C1630 1.208 . S
C1630 O1628 1.247 . S
C1630 O1629 1.208 . S
C1631 O1636 1.247 . S
C1631 O1637 1.208 . S
C1632 O1624 1.315 . S
C1632 O1627 1.279 . S
C1633 O1634 1.315 . S
C1633 O1635 1.279 . S
O1634 Cd1626 2.223 . S
O1634 C1633 1.315 . S
O1635 Cd1625 2.240 . S
O1635 C1633 1.279 . S
O1636 Cd1626 2.297 . S
O1636 C1631 1.247 . S
O1637 Cd1626 2.439 . S
O1637 C1631 1.208 . S
O1638 Cd1639 2.223 . S
O1638 C1646 1.315 . S
Cd1639 O1638 2.223 . S
Cd1639 O1642 2.297 . S
Cd1639 O1643 2.439 . S
Cd1639 O1649 2.240 . S
Cd1640 O1641 2.240 . S
Cd1640 O1648 2.223 . S
Cd1640 O1650 2.297 . S
Cd1640 O1651 2.439 . S
O1641 Cd1640 2.240 . S
O1641 C1646 1.279 . S
O1642 Cd1639 2.297 . S
O1642 C1644 1.247 . S
O1643 Cd1639 2.439 . S
O1643 C1644 1.208 . S
C1644 O1642 1.247 . S
C1644 O1643 1.208 . S
C1645 O1650 1.247 . S
C1645 O1651 1.208 . S
C1646 O1638 1.315 . S
C1646 O1641 1.279 . S
C1647 O1648 1.315 . S
C1647 O1649 1.279 . S
O1648 Cd1640 2.223 . S
O1648 C1647 1.315 . S
O1649 Cd1639 2.240 . S
O1649 C1647 1.279 . S
O1650 Cd1640 2.297 . S
O1650 C1645 1.247 . S
O1651 Cd1640 2.439 . S
O1651 C1645 1.208 . S
O1652 Cd1653 2.223 . S
O1652 C1660 1.315 . S
Cd1653 O1652 2.223 . S
Cd1653 O1656 2.297 . S
Cd1653 O1657 2.439 . S
Cd1653 O1663 2.240 . S
Cd1654 O1655 2.240 . S
Cd1654 O1662 2.223 . S
Cd1654 O1664 2.297 . S
Cd1654 O1665 2.439 . S
O1655 Cd1654 2.240 . S
O1655 C1660 1.279 . S
O1656 Cd1653 2.297 . S
O1656 C1658 1.247 . S
O1657 Cd1653 2.439 . S
O1657 C1658 1.208 . S
C1658 O1656 1.247 . S
C1658 O1657 1.208 . S
C1659 O1664 1.247 . S
C1659 O1665 1.208 . S
C1660 O1652 1.315 . S
C1660 O1655 1.279 . S
C1661 O1662 1.315 . S
C1661 O1663 1.279 . S
O1662 Cd1654 2.223 . S
O1662 C1661 1.315 . S
O1663 Cd1653 2.240 . S
O1663 C1661 1.279 . S
O1664 Cd1654 2.297 . S
O1664 C1659 1.247 . S
O1665 Cd1654 2.439 . S
O1665 C1659 1.208 . S
O1666 Cd1667 2.223 . S
O1666 C1674 1.315 . S
Cd1667 O1666 2.223 . S
Cd1667 O1670 2.297 . S
Cd1667 O1671 2.439 . S
Cd1667 O1677 2.240 . S
Cd1668 O1669 2.240 . S
Cd1668 O1676 2.223 . S
Cd1668 O1678 2.297 . S
Cd1668 O1679 2.439 . S
O1669 Cd1668 2.240 . S
O1669 C1674 1.279 . S
O1670 Cd1667 2.297 . S
O1670 C1672 1.247 . S
O1671 Cd1667 2.439 . S
O1671 C1672 1.208 . S
C1672 O1670 1.247 . S
C1672 O1671 1.208 . S
C1673 O1678 1.247 . S
C1673 O1679 1.208 . S
C1674 O1666 1.315 . S
C1674 O1669 1.279 . S
C1675 O1676 1.315 . S
C1675 O1677 1.279 . S
O1676 Cd1668 2.223 . S
O1676 C1675 1.315 . S
O1677 Cd1667 2.240 . S
O1677 C1675 1.279 . S
O1678 Cd1668 2.297 . S
O1678 C1673 1.247 . S
O1679 Cd1668 2.439 . S
O1679 C1673 1.208 . S
O1680 Cd1681 2.223 . S
O1680 C1688 1.315 . S
Cd1681 O1680 2.223 . S
Cd1681 O1684 2.297 . S
Cd1681 O1685 2.439 . S
Cd1681 O1691 2.240 . S
Cd1682 O1683 2.240 . S
Cd1682 O1690 2.223 . S
Cd1682 O1692 2.297 . S
Cd1682 O1693 2.439 . S
O1683 Cd1682 2.240 . S
O1683 C1688 1.279 . S
O1684 Cd1681 2.297 . S
O1684 C1686 1.247 . S
O1685 Cd1681 2.439 . S
O1685 C1686 1.208 . S
C1686 O1684 1.247 . S
C1686 O1685 1.208 . S
C1687 O1692 1.247 . S
C1687 O1693 1.208 . S
C1688 O1680 1.315 . S
C1688 O1683 1.279 . S
C1689 O1690 1.315 . S
C1689 O1691 1.279 . S
O1690 Cd1682 2.223 . S
O1690 C1689 1.315 . S
O1691 Cd1681 2.240 . S
O1691 C1689 1.279 . S
O1692 Cd1682 2.297 . S
O1692 C1687 1.247 . S
O1693 Cd1682 2.439 . S
O1693 C1687 1.208 . S
O1694 Cd1695 2.223 . S
O1694 C1702 1.315 . S
Cd1695 O1694 2.223 . S
Cd1695 O1698 2.297 . S
Cd1695 O1699 2.439 . S
Cd1695 O1705 2.240 . S
Cd1696 O1697 2.240 . S
Cd1696 O1704 2.223 . S
Cd1696 O1706 2.297 . S
Cd1696 O1707 2.439 . S
O1697 Cd1696 2.240 . S
O1697 C1702 1.279 . S
O1698 Cd1695 2.297 . S
O1698 C1700 1.247 . S
O1699 Cd1695 2.439 . S
O1699 C1700 1.208 . S
C1700 O1698 1.247 . S
C1700 O1699 1.208 . S
C1701 O1706 1.247 . S
C1701 O1707 1.208 . S
C1702 O1694 1.315 . S
C1702 O1697 1.279 . S
C1703 O1704 1.315 . S
C1703 O1705 1.279 . S
O1704 Cd1696 2.223 . S
O1704 C1703 1.315 . S
O1705 Cd1695 2.240 . S
O1705 C1703 1.279 . S
O1706 Cd1696 2.297 . S
O1706 C1701 1.247 . S
O1707 Cd1696 2.439 . S
O1707 C1701 1.208 . S
O1708 Cd1709 2.223 . S
O1708 C1716 1.315 . S
Cd1709 O1708 2.223 . S
Cd1709 O1712 2.297 . S
Cd1709 O1713 2.439 . S
Cd1709 O1719 2.240 . S
Cd1710 O1711 2.240 . S
Cd1710 O1718 2.223 . S
Cd1710 O1720 2.297 . S
Cd1710 O1721 2.439 . S
O1711 Cd1710 2.240 . S
O1711 C1716 1.279 . S
O1712 Cd1709 2.297 . S
O1712 C1714 1.247 . S
O1713 Cd1709 2.439 . S
O1713 C1714 1.208 . S
C1714 O1712 1.247 . S
C1714 O1713 1.208 . S
C1715 O1720 1.247 . S
C1715 O1721 1.208 . S
C1716 O1708 1.315 . S
C1716 O1711 1.279 . S
C1717 O1718 1.315 . S
C1717 O1719 1.279 . S
O1718 Cd1710 2.223 . S
O1718 C1717 1.315 . S
O1719 Cd1709 2.240 . S
O1719 C1717 1.279 . S
O1720 Cd1710 2.297 . S
O1720 C1715 1.247 . S
O1721 Cd1710 2.439 . S
O1721 C1715 1.208 . S
O1722 Cd1723 2.223 . S
O1722 C1730 1.315 . S
Cd1723 O1722 2.223 . S
Cd1723 O1726 2.297 . S
Cd1723 O1727 2.439 . S
Cd1723 O1733 2.240 . S
Cd1724 O1725 2.240 . S
Cd1724 O1732 2.223 . S
Cd1724 O1734 2.297 . S
Cd1724 O1735 2.439 . S
O1725 Cd1724 2.240 . S
O1725 C1730 1.279 . S
O1726 Cd1723 2.297 . S
O1726 C1728 1.247 . S
O1727 Cd1723 2.439 . S
O1727 C1728 1.208 . S
C1728 O1726 1.247 . S
C1728 O1727 1.208 . S
C1729 O1734 1.247 . S
C1729 O1735 1.208 . S
C1730 O1722 1.315 . S
C1730 O1725 1.279 . S
C1731 O1732 1.315 . S
C1731 O1733 1.279 . S
O1732 Cd1724 2.223 . S
O1732 C1731 1.315 . S
O1733 Cd1723 2.240 . S
O1733 C1731 1.279 . S
O1734 Cd1724 2.297 . S
O1734 C1729 1.247 . S
O1735 Cd1724 2.439 . S
O1735 C1729 1.208 . S
O1736 Cd1737 2.223 . S
O1736 C1744 1.315 . S
Cd1737 O1736 2.223 . S
Cd1737 O1740 2.297 . S
Cd1737 O1741 2.439 . S
Cd1737 O1747 2.240 . S
Cd1738 O1739 2.240 . S
Cd1738 O1746 2.223 . S
Cd1738 O1748 2.297 . S
Cd1738 O1749 2.439 . S
O1739 Cd1738 2.240 . S
O1739 C1744 1.279 . S
O1740 Cd1737 2.297 . S
O1740 C1742 1.247 . S
O1741 Cd1737 2.439 . S
O1741 C1742 1.208 . S
C1742 O1740 1.247 . S
C1742 O1741 1.208 . S
C1743 O1748 1.247 . S
C1743 O1749 1.208 . S
C1744 O1736 1.315 . S
C1744 O1739 1.279 . S
C1745 O1746 1.315 . S
C1745 O1747 1.279 . S
O1746 Cd1738 2.223 . S
O1746 C1745 1.315 . S
O1747 Cd1737 2.240 . S
O1747 C1745 1.279 . S
O1748 Cd1738 2.297 . S
O1748 C1743 1.247 . S
O1749 Cd1738 2.439 . S
O1749 C1743 1.208 . S
O1750 Cd1751 2.223 . S
O1750 C1758 1.315 . S
Cd1751 O1750 2.223 . S
Cd1751 O1754 2.297 . S
Cd1751 O1755 2.439 . S
Cd1751 O1761 2.240 . S
Cd1752 O1753 2.240 . S
Cd1752 O1760 2.223 . S
Cd1752 O1762 2.297 . S
Cd1752 O1763 2.439 . S
O1753 Cd1752 2.240 . S
O1753 C1758 1.279 . S
O1754 Cd1751 2.297 . S
O1754 C1756 1.247 . S
O1755 Cd1751 2.439 . S
O1755 C1756 1.208 . S
C1756 O1754 1.247 . S
C1756 O1755 1.208 . S
C1757 O1762 1.247 . S
C1757 O1763 1.208 . S
C1758 O1750 1.315 . S
C1758 O1753 1.279 . S
C1759 O1760 1.315 . S
C1759 O1761 1.279 . S
O1760 Cd1752 2.223 . S
O1760 C1759 1.315 . S
O1761 Cd1751 2.240 . S
O1761 C1759 1.279 . S
O1762 Cd1752 2.297 . S
O1762 C1757 1.247 . S
O1763 Cd1752 2.439 . S
O1763 C1757 1.208 . S
O1764 Cd1765 2.223 . S
O1764 C1772 1.315 . S
Cd1765 O1764 2.223 . S
Cd1765 O1768 2.297 . S
Cd1765 O1769 2.439 . S
Cd1765 O1775 2.240 . S
Cd1766 O1767 2.240 . S
Cd1766 O1774 2.223 . S
Cd1766 O1776 2.297 . S
Cd1766 O1777 2.439 . S
O1767 Cd1766 2.240 . S
O1767 C1772 1.279 . S
O1768 Cd1765 2.297 . S
O1768 C1770 1.247 . S
O1769 Cd1765 2.439 . S
O1769 C1770 1.208 . S
C1770 O1768 1.247 . S
C1770 O1769 1.208 . S
C1771 O1776 1.247 . S
C1771 O1777 1.208 . S
C1772 O1764 1.315 . S
C1772 O1767 1.279 . S
C1773 O1774 1.315 . S
C1773 O1775 1.279 . S
O1774 Cd1766 2.223 . S
O1774 C1773 1.315 . S
O1775 Cd1765 2.240 . S
O1775 C1773 1.279 . S
O1776 Cd1766 2.297 . S
O1776 C1771 1.247 . S
O1777 Cd1766 2.439 . S
O1777 C1771 1.208 . S
O1778 Cd1779 2.223 . S
O1778 C1786 1.315 . S
Cd1779 O1778 2.223 . S
Cd1779 O1782 2.297 . S
Cd1779 O1783 2.439 . S
Cd1779 O1789 2.240 . S
Cd1780 O1781 2.240 . S
Cd1780 O1788 2.223 . S
Cd1780 O1790 2.297 . S
Cd1780 O1791 2.439 . S
O1781 Cd1780 2.240 . S
O1781 C1786 1.279 . S
O1782 Cd1779 2.297 . S
O1782 C1784 1.247 . S
O1783 Cd1779 2.439 . S
O1783 C1784 1.208 . S
C1784 O1782 1.247 . S
C1784 O1783 1.208 . S
C1785 O1790 1.247 . S
C1785 O1791 1.208 . S
C1786 O1778 1.315 . S
C1786 O1781 1.279 . S
C1787 O1788 1.315 . S
C1787 O1789 1.279 . S
O1788 Cd1780 2.223 . S
O1788 C1787 1.315 . S
O1789 Cd1779 2.240 . S
O1789 C1787 1.279 . S
O1790 Cd1780 2.297 . S
O1790 C1785 1.247 . S
O1791 Cd1780 2.439 . S
O1791 C1785 1.208 . S
O1792 Cd1793 2.223 . S
O1792 C1800 1.315 . S
Cd1793 O1792 2.223 . S
Cd1793 O1796 2.297 . S
Cd1793 O1797 2.439 . S
Cd1793 O1803 2.240 . S
Cd1794 O1795 2.240 . S
Cd1794 O1802 2.223 . S
Cd1794 O1804 2.297 . S
Cd1794 O1805 2.439 . S
O1795 Cd1794 2.240 . S
O1795 C1800 1.279 . S
O1796 Cd1793 2.297 . S
O1796 C1798 1.247 . S
O1797 Cd1793 2.439 . S
O1797 C1798 1.208 . S
C1798 O1796 1.247 . S
C1798 O1797 1.208 . S
C1799 O1804 1.247 . S
C1799 O1805 1.208 . S
C1800 O1792 1.315 . S
C1800 O1795 1.279 . S
C1801 O1802 1.315 . S
C1801 O1803 1.279 . S
O1802 Cd1794 2.223 . S
O1802 C1801 1.315 . S
O1803 Cd1793 2.240 . S
O1803 C1801 1.279 . S
O1804 Cd1794 2.297 . S
O1804 C1799 1.247 . S
O1805 Cd1794 2.439 . S
O1805 C1799 1.208 . S
O1806 Cd1807 2.223 . S
O1806 C1814 1.315 . S
Cd1807 O1806 2.223 . S
Cd1807 O1810 2.297 . S
Cd1807 O1811 2.439 . S
Cd1807 O1817 2.240 . S
Cd1808 O1809 2.240 . S
Cd1808 O1816 2.223 . S
Cd1808 O1818 2.297 . S
Cd1808 O1819 2.439 . S
O1809 Cd1808 2.240 . S
O1809 C1814 1.279 . S
O1810 Cd1807 2.297 . S
O1810 C1812 1.247 . S
O1811 Cd1807 2.439 . S
O1811 C1812 1.208 . S
C1812 O1810 1.247 . S
C1812 O1811 1.208 . S
C1813 O1818 1.247 . S
C1813 O1819 1.208 . S
C1814 O1806 1.315 . S
C1814 O1809 1.279 . S
C1815 O1816 1.315 . S
C1815 O1817 1.279 . S
O1816 Cd1808 2.223 . S
O1816 C1815 1.315 . S
O1817 Cd1807 2.240 . S
O1817 C1815 1.279 . S
O1818 Cd1808 2.297 . S
O1818 C1813 1.247 . S
O1819 Cd1808 2.439 . S
O1819 C1813 1.208 . S
O1820 Cd1821 2.223 . S
O1820 C1828 1.315 . S
Cd1821 O1820 2.223 . S
Cd1821 O1824 2.297 . S
Cd1821 O1825 2.439 . S
Cd1821 O1831 2.240 . S
Cd1822 O1823 2.240 . S
Cd1822 O1830 2.223 . S
Cd1822 O1832 2.297 . S
Cd1822 O1833 2.439 . S
O1823 Cd1822 2.240 . S
O1823 C1828 1.279 . S
O1824 Cd1821 2.297 . S
O1824 C1826 1.247 . S
O1825 Cd1821 2.439 . S
O1825 C1826 1.208 . S
C1826 O1824 1.247 . S
C1826 O1825 1.208 . S
C1827 O1832 1.247 . S
C1827 O1833 1.208 . S
C1828 O1820 1.315 . S
C1828 O1823 1.279 . S
C1829 O1830 1.315 . S
C1829 O1831 1.279 . S
O1830 Cd1822 2.223 . S
O1830 C1829 1.315 . S
O1831 Cd1821 2.240 . S
O1831 C1829 1.279 . S
O1832 Cd1822 2.297 . S
O1832 C1827 1.247 . S
O1833 Cd1822 2.439 . S
O1833 C1827 1.208 . S
O1834 Cd1835 2.223 . S
O1834 C1842 1.315 . S
Cd1835 O1834 2.223 . S
Cd1835 O1838 2.297 . S
Cd1835 O1839 2.439 . S
Cd1835 O1845 2.240 . S
Cd1836 O1837 2.240 . S
Cd1836 O1844 2.223 . S
Cd1836 O1846 2.297 . S
Cd1836 O1847 2.439 . S
O1837 Cd1836 2.240 . S
O1837 C1842 1.279 . S
O1838 Cd1835 2.297 . S
O1838 C1840 1.247 . S
O1839 Cd1835 2.439 . S
O1839 C1840 1.208 . S
C1840 O1838 1.247 . S
C1840 O1839 1.208 . S
C1841 O1846 1.247 . S
C1841 O1847 1.208 . S
C1842 O1834 1.315 . S
C1842 O1837 1.279 . S
C1843 O1844 1.315 . S
C1843 O1845 1.279 . S
O1844 Cd1836 2.223 . S
O1844 C1843 1.315 . S
O1845 Cd1835 2.240 . S
O1845 C1843 1.279 . S
O1846 Cd1836 2.297 . S
O1846 C1841 1.247 . S
O1847 Cd1836 2.439 . S
O1847 C1841 1.208 . S
O1848 Cd1849 2.223 . S
O1848 C1856 1.315 . S
Cd1849 O1848 2.223 . S
Cd1849 O1852 2.297 . S
Cd1849 O1853 2.439 . S
Cd1849 O1859 2.240 . S
Cd1850 O1851 2.240 . S
Cd1850 O1858 2.223 . S
Cd1850 O1860 2.297 . S
Cd1850 O1861 2.439 . S
O1851 Cd1850 2.240 . S
O1851 C1856 1.279 . S
O1852 Cd1849 2.297 . S
O1852 C1854 1.247 . S
O1853 Cd1849 2.439 . S
O1853 C1854 1.208 . S
C1854 O1852 1.247 . S
C1854 O1853 1.208 . S
C1855 O1860 1.247 . S
C1855 O1861 1.208 . S
C1856 O1848 1.315 . S
C1856 O1851 1.279 . S
C1857 O1858 1.315 . S
C1857 O1859 1.279 . S
O1858 Cd1850 2.223 . S
O1858 C1857 1.315 . S
O1859 Cd1849 2.240 . S
O1859 C1857 1.279 . S
O1860 Cd1850 2.297 . S
O1860 C1855 1.247 . S
O1861 Cd1850 2.439 . S
O1861 C1855 1.208 . S
O1862 Cd1863 2.223 . S
O1862 C1870 1.315 . S
Cd1863 O1862 2.223 . S
Cd1863 O1866 2.297 . S
Cd1863 O1867 2.439 . S
Cd1863 O1873 2.240 . S
Cd1864 O1865 2.240 . S
Cd1864 O1872 2.223 . S
Cd1864 O1874 2.297 . S
Cd1864 O1875 2.439 . S
O1865 Cd1864 2.240 . S
O1865 C1870 1.279 . S
O1866 Cd1863 2.297 . S
O1866 C1868 1.247 . S
O1867 Cd1863 2.439 . S
O1867 C1868 1.208 . S
C1868 O1866 1.247 . S
C1868 O1867 1.208 . S
C1869 O1874 1.247 . S
C1869 O1875 1.208 . S
C1870 O1862 1.315 . S
C1870 O1865 1.279 . S
C1871 O1872 1.315 . S
C1871 O1873 1.279 . S
O1872 Cd1864 2.223 . S
O1872 C1871 1.315 . S
O1873 Cd1863 2.240 . S
O1873 C1871 1.279 . S
O1874 Cd1864 2.297 . S
O1874 C1869 1.247 . S
O1875 Cd1864 2.439 . S
O1875 C1869 1.208 . S
O1876 Cd1877 2.223 . S
O1876 C1884 1.315 . S
Cd1877 O1876 2.223 . S
Cd1877 O1880 2.297 . S
Cd1877 O1881 2.439 . S
Cd1877 O1887 2.240 . S
Cd1878 O1879 2.240 . S
Cd1878 O1886 2.223 . S
Cd1878 O1888 2.297 . S
Cd1878 O1889 2.439 . S
O1879 Cd1878 2.240 . S
O1879 C1884 1.279 . S
O1880 Cd1877 2.297 . S
O1880 C1882 1.247 . S
O1881 Cd1877 2.439 . S
O1881 C1882 1.208 . S
C1882 O1880 1.247 . S
C1882 O1881 1.208 . S
C1883 O1888 1.247 . S
C1883 O1889 1.208 . S
C1884 O1876 1.315 . S
C1884 O1879 1.279 . S
C1885 O1886 1.315 . S
C1885 O1887 1.279 . S
O1886 Cd1878 2.223 . S
O1886 C1885 1.315 . S
O1887 Cd1877 2.240 . S
O1887 C1885 1.279 . S
O1888 Cd1878 2.297 . S
O1888 C1883 1.247 . S
O1889 Cd1878 2.439 . S
O1889 C1883 1.208 . S
O1890 Cd1891 2.223 . S
O1890 C1898 1.315 . S
Cd1891 O1890 2.223 . S
Cd1891 O1894 2.297 . S
Cd1891 O1895 2.439 . S
Cd1891 O1901 2.240 . S
Cd1892 O1893 2.240 . S
Cd1892 O1900 2.223 . S
Cd1892 O1902 2.297 . S
Cd1892 O1903 2.439 . S
O1893 Cd1892 2.240 . S
O1893 C1898 1.279 . S
O1894 Cd1891 2.297 . S
O1894 C1896 1.247 . S
O1895 Cd1891 2.439 . S
O1895 C1896 1.208 . S
C1896 O1894 1.247 . S
C1896 O1895 1.208 . S
C1897 O1902 1.247 . S
C1897 O1903 1.208 . S
C1898 O1890 1.315 . S
C1898 O1893 1.279 . S
C1899 O1900 1.315 . S
C1899 O1901 1.279 . S
O1900 Cd1892 2.223 . S
O1900 C1899 1.315 . S
O1901 Cd1891 2.240 . S
O1901 C1899 1.279 . S
O1902 Cd1892 2.297 . S
O1902 C1897 1.247 . S
O1903 Cd1892 2.439 . S
O1903 C1897 1.208 . S
O1904 Cd1905 2.223 . S
O1904 C1912 1.315 . S
Cd1905 O1904 2.223 . S
Cd1905 O1908 2.297 . S
Cd1905 O1909 2.439 . S
Cd1905 O1915 2.240 . S
Cd1906 O1907 2.240 . S
Cd1906 O1914 2.223 . S
Cd1906 O1916 2.297 . S
Cd1906 O1917 2.439 . S
O1907 Cd1906 2.240 . S
O1907 C1912 1.279 . S
O1908 Cd1905 2.297 . S
O1908 C1910 1.247 . S
O1909 Cd1905 2.439 . S
O1909 C1910 1.208 . S
C1910 O1908 1.247 . S
C1910 O1909 1.208 . S
C1911 O1916 1.247 . S
C1911 O1917 1.208 . S
C1912 O1904 1.315 . S
C1912 O1907 1.279 . S
C1913 O1914 1.315 . S
C1913 O1915 1.279 . S
O1914 Cd1906 2.223 . S
O1914 C1913 1.315 . S
O1915 Cd1905 2.240 . S
O1915 C1913 1.279 . S
O1916 Cd1906 2.297 . S
O1916 C1911 1.247 . S
O1917 Cd1906 2.439 . S
O1917 C1911 1.208 . S
O1918 Cd1919 2.223 . S
O1918 C1926 1.315 . S
Cd1919 O1918 2.223 . S
Cd1919 O1922 2.297 . S
Cd1919 O1923 2.439 . S
Cd1919 O1929 2.240 . S
Cd1920 O1921 2.240 . S
Cd1920 O1928 2.223 . S
Cd1920 O1930 2.297 . S
Cd1920 O1931 2.439 . S
O1921 Cd1920 2.240 . S
O1921 C1926 1.279 . S
O1922 Cd1919 2.297 . S
O1922 C1924 1.247 . S
O1923 Cd1919 2.439 . S
O1923 C1924 1.208 . S
C1924 O1922 1.247 . S
C1924 O1923 1.208 . S
C1925 O1930 1.247 . S
C1925 O1931 1.208 . S
C1926 O1918 1.315 . S
C1926 O1921 1.279 . S
C1927 O1928 1.315 . S
C1927 O1929 1.279 . S
O1928 Cd1920 2.223 . S
O1928 C1927 1.315 . S
O1929 Cd1919 2.240 . S
O1929 C1927 1.279 . S
O1930 Cd1920 2.297 . S
O1930 C1925 1.247 . S
O1931 Cd1920 2.439 . S
O1931 C1925 1.208 . S
O1932 Cd1933 2.223 . S
O1932 C1940 1.315 . S
Cd1933 O1932 2.223 . S
Cd1933 O1936 2.297 . S
Cd1933 O1937 2.439 . S
Cd1933 O1943 2.240 . S
Cd1934 O1935 2.240 . S
Cd1934 O1942 2.223 . S
Cd1934 O1944 2.297 . S
Cd1934 O1945 2.439 . S
O1935 Cd1934 2.240 . S
O1935 C1940 1.279 . S
O1936 Cd1933 2.297 . S
O1936 C1938 1.247 . S
O1937 Cd1933 2.439 . S
O1937 C1938 1.208 . S
C1938 O1936 1.247 . S
C1938 O1937 1.208 . S
C1939 O1944 1.247 . S
C1939 O1945 1.208 . S
C1940 O1932 1.315 . S
C1940 O1935 1.279 . S
C1941 O1942 1.315 . S
C1941 O1943 1.279 . S
O1942 Cd1934 2.223 . S
O1942 C1941 1.315 . S
O1943 Cd1933 2.240 . S
O1943 C1941 1.279 . S
O1944 Cd1934 2.297 . S
O1944 C1939 1.247 . S
O1945 Cd1934 2.439 . S
O1945 C1939 1.208 . S
O1946 Cd1947 2.223 . S
O1946 C1954 1.315 . S
Cd1947 O1946 2.223 . S
Cd1947 O1950 2.297 . S
Cd1947 O1951 2.439 . S
Cd1947 O1957 2.240 . S
Cd1948 O1949 2.240 . S
Cd1948 O1956 2.223 . S
Cd1948 O1958 2.297 . S
Cd1948 O1959 2.439 . S
O1949 Cd1948 2.240 . S
O1949 C1954 1.279 . S
O1950 Cd1947 2.297 . S
O1950 C1952 1.247 . S
O1951 Cd1947 2.439 . S
O1951 C1952 1.208 . S
C1952 O1950 1.247 . S
C1952 O1951 1.208 . S
C1953 O1958 1.247 . S
C1953 O1959 1.208 . S
C1954 O1946 1.315 . S
C1954 O1949 1.279 . S
C1955 O1956 1.315 . S
C1955 O1957 1.279 . S
O1956 Cd1948 2.223 . S
O1956 C1955 1.315 . S
O1957 Cd1947 2.240 . S
O1957 C1955 1.279 . S
O1958 Cd1948 2.297 . S
O1958 C1953 1.247 . S
O1959 Cd1948 2.439 . S
O1959 C1953 1.208 . S
O1960 Cd1961 2.223 . S
O1960 C1968 1.315 . S
Cd1961 O1960 2.223 . S
Cd1961 O1964 2.297 . S
Cd1961 O1965 2.439 . S
Cd1961 O1971 2.240 . S
Cd1962 O1963 2.240 . S
Cd1962 O1970 2.223 . S
Cd1962 O1972 2.297 . S
Cd1962 O1973 2.439 . S
O1963 Cd1962 2.240 . S
O1963 C1968 1.279 . S
O1964 Cd1961 2.297 . S
O1964 C1966 1.247 . S
O1965 Cd1961 2.439 . S
O1965 C1966 1.208 . S
C1966 O1964 1.247 . S
C1966 O1965 1.208 . S
C1967 O1972 1.247 . S
C1967 O1973 1.208 . S
C1968 O1960 1.315 . S
C1968 O1963 1.279 . S
C1969 O1970 1.315 . S
C1969 O1971 1.279 . S
O1970 Cd1962 2.223 . S
O1970 C1969 1.315 . S
O1971 Cd1961 2.240 . S
O1971 C1969 1.279 . S
O1972 Cd1962 2.297 . S
O1972 C1967 1.247 . S
O1973 Cd1962 2.439 . S
O1973 C1967 1.208 . S
O1974 Cd1975 2.223 . S
O1974 C1982 1.315 . S
Cd1975 O1974 2.223 . S
Cd1975 O1978 2.297 . S
Cd1975 O1979 2.439 . S
Cd1975 O1985 2.240 . S
Cd1976 O1977 2.240 . S
Cd1976 O1984 2.223 . S
Cd1976 O1986 2.297 . S
Cd1976 O1987 2.439 . S
O1977 Cd1976 2.240 . S
O1977 C1982 1.279 . S
O1978 Cd1975 2.297 . S
O1978 C1980 1.247 . S
O1979 Cd1975 2.439 . S
O1979 C1980 1.208 . S
C1980 O1978 1.247 . S
C1980 O1979 1.208 . S
C1981 O1986 1.247 . S
C1981 O1987 1.208 . S
C1982 O1974 1.315 . S
C1982 O1977 1.279 . S
C1983 O1984 1.315 . S
C1983 O1985 1.279 . S
O1984 Cd1976 2.223 . S
O1984 C1983 1.315 . S
O1985 Cd1975 2.240 . S
O1985 C1983 1.279 . S
O1986 Cd1976 2.297 . S
O1986 C1981 1.247 . S
O1987 Cd1976 2.439 . S
O1987 C1981 1.208 . S
O1988 Cd1989 2.223 . S
O1988 C1996 1.315 . S
Cd1989 O1988 2.223 . S
Cd1989 O1992 2.297 . S
Cd1989 O1993 2.439 . S
Cd1989 O1999 2.240 . S
Cd1990 O1991 2.240 . S
Cd1990 O1998 2.223 . S
Cd1990 O2000 2.297 . S
Cd1990 O2001 2.439 . S
O1991 Cd1990 2.240 . S
O1991 C1996 1.279 . S
O1992 Cd1989 2.297 . S
O1992 C1994 1.247 . S
O1993 Cd1989 2.439 . S
O1993 C1994 1.208 . S
C1994 O1992 1.247 . S
C1994 O1993 1.208 . S
C1995 O2000 1.247 . S
C1995 O2001 1.208 . S
C1996 O1988 1.315 . S
C1996 O1991 1.279 . S
C1997 O1998 1.315 . S
C1997 O1999 1.279 . S
O1998 Cd1990 2.223 . S
O1998 C1997 1.315 . S
O1999 Cd1989 2.240 . S
O1999 C1997 1.279 . S
O2000 Cd1990 2.297 . S
O2000 C1995 1.247 . S
O2001 Cd1990 2.439 . S
O2001 C1995 1.208 . S
O2002 Cd2003 2.223 . S
O2002 C2010 1.315 . S
Cd2003 O2002 2.223 . S
Cd2003 O2006 2.297 . S
Cd2003 O2007 2.439 . S
Cd2003 O2013 2.240 . S
Cd2004 O2005 2.240 . S
Cd2004 O2012 2.223 . S
Cd2004 O2014 2.297 . S
Cd2004 O2015 2.439 . S
O2005 Cd2004 2.240 . S
O2005 C2010 1.279 . S
O2006 Cd2003 2.297 . S
O2006 C2008 1.247 . S
O2007 Cd2003 2.439 . S
O2007 C2008 1.208 . S
C2008 O2006 1.247 . S
C2008 O2007 1.208 . S
C2009 O2014 1.247 . S
C2009 O2015 1.208 . S
C2010 O2002 1.315 . S
C2010 O2005 1.279 . S
C2011 O2012 1.315 . S
C2011 O2013 1.279 . S
O2012 Cd2004 2.223 . S
O2012 C2011 1.315 . S
O2013 Cd2003 2.240 . S
O2013 C2011 1.279 . S
O2014 Cd2004 2.297 . S
O2014 C2009 1.247 . S
O2015 Cd2004 2.439 . S
O2015 C2009 1.208 . S
O2016 Cd2017 2.223 . S
O2016 C2024 1.315 . S
Cd2017 O2016 2.223 . S
Cd2017 O2020 2.297 . S
Cd2017 O2021 2.439 . S
Cd2017 O2027 2.240 . S
Cd2018 O2019 2.240 . S
Cd2018 O2026 2.223 . S
Cd2018 O2028 2.297 . S
Cd2018 O2029 2.439 . S
O2019 Cd2018 2.240 . S
O2019 C2024 1.279 . S
O2020 Cd2017 2.297 . S
O2020 C2022 1.247 . S
O2021 Cd2017 2.439 . S
O2021 C2022 1.208 . S
C2022 O2020 1.247 . S
C2022 O2021 1.208 . S
C2023 O2028 1.247 . S
C2023 O2029 1.208 . S
C2024 O2016 1.315 . S
C2024 O2019 1.279 . S
C2025 O2026 1.315 . S
C2025 O2027 1.279 . S
O2026 Cd2018 2.223 . S
O2026 C2025 1.315 . S
O2027 Cd2017 2.240 . S
O2027 C2025 1.279 . S
O2028 Cd2018 2.297 . S
O2028 C2023 1.247 . S
O2029 Cd2018 2.439 . S
O2029 C2023 1.208 . S
O2030 Cd2031 2.223 . S
O2030 C2038 1.315 . S
Cd2031 O2030 2.223 . S
Cd2031 O2034 2.297 . S
Cd2031 O2035 2.439 . S
Cd2031 O2041 2.240 . S
Cd2032 O2033 2.240 . S
Cd2032 O2040 2.223 . S
Cd2032 O2042 2.297 . S
Cd2032 O2043 2.439 . S
O2033 Cd2032 2.240 . S
O2033 C2038 1.279 . S
O2034 Cd2031 2.297 . S
O2034 C2036 1.247 . S
O2035 Cd2031 2.439 . S
O2035 C2036 1.208 . S
C2036 O2034 1.247 . S
C2036 O2035 1.208 . S
C2037 O2042 1.247 . S
C2037 O2043 1.208 . S
C2038 O2030 1.315 . S
C2038 O2033 1.279 . S
C2039 O2040 1.315 . S
C2039 O2041 1.279 . S
O2040 Cd2032 2.223 . S
O2040 C2039 1.315 . S
O2041 Cd2031 2.240 . S
O2041 C2039 1.279 . S
O2042 Cd2032 2.297 . S
O2042 C2037 1.247 . S
O2043 Cd2032 2.439 . S
O2043 C2037 1.208 . S
O2044 Cd2045 2.223 . S
O2044 C2052 1.315 . S
Cd2045 O2044 2.223 . S
Cd2045 O2048 2.297 . S
Cd2045 O2049 2.439 . S
Cd2045 O2055 2.240 . S
Cd2046 O2047 2.240 . S
Cd2046 O2054 2.223 . S
Cd2046 O2056 2.297 . S
Cd2046 O2057 2.439 . S
O2047 Cd2046 2.240 . S
O2047 C2052 1.279 . S
O2048 Cd2045 2.297 . S
O2048 C2050 1.247 . S
O2049 Cd2045 2.439 . S
O2049 C2050 1.208 . S
C2050 O2048 1.247 . S
C2050 O2049 1.208 . S
C2051 O2056 1.247 . S
C2051 O2057 1.208 . S
C2052 O2044 1.315 . S
C2052 O2047 1.279 . S
C2053 O2054 1.315 . S
C2053 O2055 1.279 . S
O2054 Cd2046 2.223 . S
O2054 C2053 1.315 . S
O2055 Cd2045 2.240 . S
O2055 C2053 1.279 . S
O2056 Cd2046 2.297 . S
O2056 C2051 1.247 . S
O2057 Cd2046 2.439 . S
O2057 C2051 1.208 . S
O2058 Cd2059 2.223 . S
O2058 C2066 1.315 . S
Cd2059 O2058 2.223 . S
Cd2059 O2062 2.297 . S
Cd2059 O2063 2.439 . S
Cd2059 O2069 2.240 . S
Cd2060 O2061 2.240 . S
Cd2060 O2068 2.223 . S
Cd2060 O2070 2.297 . S
Cd2060 O2071 2.439 . S
O2061 Cd2060 2.240 . S
O2061 C2066 1.279 . S
O2062 Cd2059 2.297 . S
O2062 C2064 1.247 . S
O2063 Cd2059 2.439 . S
O2063 C2064 1.208 . S
C2064 O2062 1.247 . S
C2064 O2063 1.208 . S
C2065 O2070 1.247 . S
C2065 O2071 1.208 . S
C2066 O2058 1.315 . S
C2066 O2061 1.279 . S
C2067 O2068 1.315 . S
C2067 O2069 1.279 . S
O2068 Cd2060 2.223 . S
O2068 C2067 1.315 . S
O2069 Cd2059 2.240 . S
O2069 C2067 1.279 . S
O2070 Cd2060 2.297 . S
O2070 C2065 1.247 . S
O2071 Cd2060 2.439 . S
O2071 C2065 1.208 . S
O2072 Cd2073 2.223 . S
O2072 C2080 1.315 . S
Cd2073 O2072 2.223 . S
Cd2073 O2076 2.297 . S
Cd2073 O2077 2.439 . S
Cd2073 O2083 2.240 . S
Cd2074 O2075 2.240 . S
Cd2074 O2082 2.223 . S
Cd2074 O2084 2.297 . S
Cd2074 O2085 2.439 . S
O2075 Cd2074 2.240 . S
O2075 C2080 1.279 . S
O2076 Cd2073 2.297 . S
O2076 C2078 1.247 . S
O2077 Cd2073 2.439 . S
O2077 C2078 1.208 . S
C2078 O2076 1.247 . S
C2078 O2077 1.208 . S
C2079 O2084 1.247 . S
C2079 O2085 1.208 . S
C2080 O2072 1.315 . S
C2080 O2075 1.279 . S
C2081 O2082 1.315 . S
C2081 O2083 1.279 . S
O2082 Cd2074 2.223 . S
O2082 C2081 1.315 . S
O2083 Cd2073 2.240 . S
O2083 C2081 1.279 . S
O2084 Cd2074 2.297 . S
O2084 C2079 1.247 . S
O2085 Cd2074 2.439 . S
O2085 C2079 1.208 . S
O2086 Cd2087 2.223 . S
O2086 C2094 1.315 . S
Cd2087 O2086 2.223 . S
Cd2087 O2090 2.297 . S
Cd2087 O2091 2.439 . S
Cd2087 O2097 2.240 . S
Cd2088 O2089 2.240 . S
Cd2088 O2096 2.223 . S
Cd2088 O2098 2.297 . S
Cd2088 O2099 2.439 . S
O2089 Cd2088 2.240 . S
O2089 C2094 1.279 . S
O2090 Cd2087 2.297 . S
O2090 C2092 1.247 . S
O2091 Cd2087 2.439 . S
O2091 C2092 1.208 . S
C2092 O2090 1.247 . S
C2092 O2091 1.208 . S
C2093 O2098 1.247 . S
C2093 O2099 1.208 . S
C2094 O2086 1.315 . S
C2094 O2089 1.279 . S
C2095 O2096 1.315 . S
C2095 O2097 1.279 . S
O2096 Cd2088 2.223 . S
O2096 C2095 1.315 . S
O2097 Cd2087 2.240 . S
O2097 C2095 1.279 . S
O2098 Cd2088 2.297 . S
O2098 C2093 1.247 . S
O2099 Cd2088 2.439 . S
O2099 C2093 1.208 . S
O2100 Cd2101 2.223 . S
O2100 C2108 1.315 . S
Cd2101 O2100 2.223 . S
Cd2101 O2104 2.297 . S
Cd2101 O2105 2.439 . S
Cd2101 O2111 2.240 . S
Cd2102 O2103 2.240 . S
Cd2102 O2110 2.223 . S
Cd2102 O2112 2.297 . S
Cd2102 O2113 2.439 . S
O2103 Cd2102 2.240 . S
O2103 C2108 1.279 . S
O2104 Cd2101 2.297 . S
O2104 C2106 1.247 . S
O2105 Cd2101 2.439 . S
O2105 C2106 1.208 . S
C2106 O2104 1.247 . S
C2106 O2105 1.208 . S
C2107 O2112 1.247 . S
C2107 O2113 1.208 . S
C2108 O2100 1.315 . S
C2108 O2103 1.279 . S
C2109 O2110 1.315 . S
C2109 O2111 1.279 . S
O2110 Cd2102 2.223 . S
O2110 C2109 1.315 . S
O2111 Cd2101 2.240 . S
O2111 C2109 1.279 . S
O2112 Cd2102 2.297 . S
O2112 C2107 1.247 . S
O2113 Cd2102 2.439 . S
O2113 C2107 1.208 . S
O2114 Cd2115 2.223 . S
O2114 C2122 1.315 . S
Cd2115 O2114 2.223 . S
Cd2115 O2118 2.297 . S
Cd2115 O2119 2.439 . S
Cd2115 O2125 2.240 . S
Cd2116 O2117 2.240 . S
Cd2116 O2124 2.223 . S
Cd2116 O2126 2.297 . S
Cd2116 O2127 2.439 . S
O2117 Cd2116 2.240 . S
O2117 C2122 1.279 . S
O2118 Cd2115 2.297 . S
O2118 C2120 1.247 . S
O2119 Cd2115 2.439 . S
O2119 C2120 1.208 . S
C2120 O2118 1.247 . S
C2120 O2119 1.208 . S
C2121 O2126 1.247 . S
C2121 O2127 1.208 . S
C2122 O2114 1.315 . S
C2122 O2117 1.279 . S
C2123 O2124 1.315 . S
C2123 O2125 1.279 . S
O2124 Cd2116 2.223 . S
O2124 C2123 1.315 . S
O2125 Cd2115 2.240 . S
O2125 C2123 1.279 . S
O2126 Cd2116 2.297 . S
O2126 C2121 1.247 . S
O2127 Cd2116 2.439 . S
O2127 C2121 1.208 . S
O2128 Cd2129 2.223 . S
O2128 C2136 1.315 . S
Cd2129 O2128 2.223 . S
Cd2129 O2132 2.297 . S
Cd2129 O2133 2.439 . S
Cd2129 O2139 2.240 . S
Cd2130 O2131 2.240 . S
Cd2130 O2138 2.223 . S
Cd2130 O2140 2.297 . S
Cd2130 O2141 2.439 . S
O2131 Cd2130 2.240 . S
O2131 C2136 1.279 . S
O2132 Cd2129 2.297 . S
O2132 C2134 1.247 . S
O2133 Cd2129 2.439 . S
O2133 C2134 1.208 . S
C2134 O2132 1.247 . S
C2134 O2133 1.208 . S
C2135 O2140 1.247 . S
C2135 O2141 1.208 . S
C2136 O2128 1.315 . S
C2136 O2131 1.279 . S
C2137 O2138 1.315 . S
C2137 O2139 1.279 . S
O2138 Cd2130 2.223 . S
O2138 C2137 1.315 . S
O2139 Cd2129 2.240 . S
O2139 C2137 1.279 . S
O2140 Cd2130 2.297 . S
O2140 C2135 1.247 . S
O2141 Cd2130 2.439 . S
O2141 C2135 1.208 . S
O2142 Cd2143 2.223 . S
O2142 C2150 1.315 . S
Cd2143 O2142 2.223 . S
Cd2143 O2146 2.297 . S
Cd2143 O2147 2.439 . S
Cd2143 O2153 2.240 . S
Cd2144 O2145 2.240 . S
Cd2144 O2152 2.223 . S
Cd2144 O2154 2.297 . S
Cd2144 O2155 2.439 . S
O2145 Cd2144 2.240 . S
O2145 C2150 1.279 . S
O2146 Cd2143 2.297 . S
O2146 C2148 1.247 . S
O2147 Cd2143 2.439 . S
O2147 C2148 1.208 . S
C2148 O2146 1.247 . S
C2148 O2147 1.208 . S
C2149 O2154 1.247 . S
C2149 O2155 1.208 . S
C2150 O2142 1.315 . S
C2150 O2145 1.279 . S
C2151 O2152 1.315 . S
C2151 O2153 1.279 . S
O2152 Cd2144 2.223 . S
O2152 C2151 1.315 . S
O2153 Cd2143 2.240 . S
O2153 C2151 1.279 . S
O2154 Cd2144 2.297 . S
O2154 C2149 1.247 . S
O2155 Cd2144 2.439 . S
O2155 C2149 1.208 . S
O2156 Cd2157 2.223 . S
O2156 C2164 1.315 . S
Cd2157 O2156 2.223 . S
Cd2157 O2160 2.297 . S
Cd2157 O2161 2.439 . S
Cd2157 O2167 2.240 . S
Cd2158 O2159 2.240 . S
Cd2158 O2166 2.223 . S
Cd2158 O2168 2.297 . S
Cd2158 O2169 2.439 . S
O2159 Cd2158 2.240 . S
O2159 C2164 1.279 . S
O2160 Cd2157 2.297 . S
O2160 C2162 1.247 . S
O2161 Cd2157 2.439 . S
O2161 C2162 1.208 . S
C2162 O2160 1.247 . S
C2162 O2161 1.208 . S
C2163 O2168 1.247 . S
C2163 O2169 1.208 . S
C2164 O2156 1.315 . S
C2164 O2159 1.279 . S
C2165 O2166 1.315 . S
C2165 O2167 1.279 . S
O2166 Cd2158 2.223 . S
O2166 C2165 1.315 . S
O2167 Cd2157 2.240 . S
O2167 C2165 1.279 . S
O2168 Cd2158 2.297 . S
O2168 C2163 1.247 . S
O2169 Cd2158 2.439 . S
O2169 C2163 1.208 . S
O2170 Cd2171 2.223 . S
O2170 C2178 1.315 . S
Cd2171 O2170 2.223 . S
Cd2171 O2174 2.297 . S
Cd2171 O2175 2.439 . S
Cd2171 O2181 2.240 . S
Cd2172 O2173 2.240 . S
Cd2172 O2180 2.223 . S
Cd2172 O2182 2.297 . S
Cd2172 O2183 2.439 . S
O2173 Cd2172 2.240 . S
O2173 C2178 1.279 . S
O2174 Cd2171 2.297 . S
O2174 C2176 1.247 . S
O2175 Cd2171 2.439 . S
O2175 C2176 1.208 . S
C2176 O2174 1.247 . S
C2176 O2175 1.208 . S
C2177 O2182 1.247 . S
C2177 O2183 1.208 . S
C2178 O2170 1.315 . S
C2178 O2173 1.279 . S
C2179 O2180 1.315 . S
C2179 O2181 1.279 . S
O2180 Cd2172 2.223 . S
O2180 C2179 1.315 . S
O2181 Cd2171 2.240 . S
O2181 C2179 1.279 . S
O2182 Cd2172 2.297 . S
O2182 C2177 1.247 . S
O2183 Cd2172 2.439 . S
O2183 C2177 1.208 . S
O2184 Cd2185 2.223 . S
O2184 C2192 1.315 . S
Cd2185 O2184 2.223 . S
Cd2185 O2188 2.297 . S
Cd2185 O2189 2.439 . S
Cd2185 O2195 2.240 . S
Cd2186 O2187 2.240 . S
Cd2186 O2194 2.223 . S
Cd2186 O2196 2.297 . S
Cd2186 O2197 2.439 . S
O2187 Cd2186 2.240 . S
O2187 C2192 1.279 . S
O2188 Cd2185 2.297 . S
O2188 C2190 1.247 . S
O2189 Cd2185 2.439 . S
O2189 C2190 1.208 . S
C2190 O2188 1.247 . S
C2190 O2189 1.208 . S
C2191 O2196 1.247 . S
C2191 O2197 1.208 . S
C2192 O2184 1.315 . S
C2192 O2187 1.279 . S
C2193 O2194 1.315 . S
C2193 O2195 1.279 . S
O2194 Cd2186 2.223 . S
O2194 C2193 1.315 . S
O2195 Cd2185 2.240 . S
O2195 C2193 1.279 . S
O2196 Cd2186 2.297 . S
O2196 C2191 1.247 . S
O2197 Cd2186 2.439 . S
O2197 C2191 1.208 . S
O2198 Cd2199 2.223 . S
O2198 C2206 1.315 . S
Cd2199 O2198 2.223 . S
Cd2199 O2202 2.297 . S
Cd2199 O2203 2.439 . S
Cd2199 O2209 2.240 . S
Cd2200 O2201 2.240 . S
Cd2200 O2208 2.223 . S
Cd2200 O2210 2.297 . S
Cd2200 O2211 2.439 . S
O2201 Cd2200 2.240 . S
O2201 C2206 1.279 . S
O2202 Cd2199 2.297 . S
O2202 C2204 1.247 . S
O2203 Cd2199 2.439 . S
O2203 C2204 1.208 . S
C2204 O2202 1.247 . S
C2204 O2203 1.208 . S
C2205 O2210 1.247 . S
C2205 O2211 1.208 . S
C2206 O2198 1.315 . S
C2206 O2201 1.279 . S
C2207 O2208 1.315 . S
C2207 O2209 1.279 . S
O2208 Cd2200 2.223 . S
O2208 C2207 1.315 . S
O2209 Cd2199 2.240 . S
O2209 C2207 1.279 . S
O2210 Cd2200 2.297 . S
O2210 C2205 1.247 . S
O2211 Cd2200 2.439 . S
O2211 C2205 1.208 . S
O2212 Cd2213 2.223 . S
O2212 C2220 1.315 . S
Cd2213 O2212 2.223 . S
Cd2213 O2216 2.297 . S
Cd2213 O2217 2.439 . S
Cd2213 O2223 2.240 . S
Cd2214 O2215 2.240 . S
Cd2214 O2222 2.223 . S
Cd2214 O2224 2.297 . S
Cd2214 O2225 2.439 . S
O2215 Cd2214 2.240 . S
O2215 C2220 1.279 . S
O2216 Cd2213 2.297 . S
O2216 C2218 1.247 . S
O2217 Cd2213 2.439 . S
O2217 C2218 1.208 . S
C2218 O2216 1.247 . S
C2218 O2217 1.208 . S
C2219 O2224 1.247 . S
C2219 O2225 1.208 . S
C2220 O2212 1.315 . S
C2220 O2215 1.279 . S
C2221 O2222 1.315 . S
C2221 O2223 1.279 . S
O2222 Cd2214 2.223 . S
O2222 C2221 1.315 . S
O2223 Cd2213 2.240 . S
O2223 C2221 1.279 . S
O2224 Cd2214 2.297 . S
O2224 C2219 1.247 . S
O2225 Cd2214 2.439 . S
O2225 C2219 1.208 . S
O2226 Cd2227 2.223 . S
O2226 C2234 1.315 . S
Cd2227 O2226 2.223 . S
Cd2227 O2230 2.297 . S
Cd2227 O2231 2.439 . S
Cd2227 O2237 2.240 . S
Cd2228 O2229 2.240 . S
Cd2228 O2236 2.223 . S
Cd2228 O2238 2.297 . S
Cd2228 O2239 2.439 . S
O2229 Cd2228 2.240 . S
O2229 C2234 1.279 . S
O2230 Cd2227 2.297 . S
O2230 C2232 1.247 . S
O2231 Cd2227 2.439 . S
O2231 C2232 1.208 . S
C2232 O2230 1.247 . S
C2232 O2231 1.208 . S
C2233 O2238 1.247 . S
C2233 O2239 1.208 . S
C2234 O2226 1.315 . S
C2234 O2229 1.279 . S
C2235 O2236 1.315 . S
C2235 O2237 1.279 . S
O2236 Cd2228 2.223 . S
O2236 C2235 1.315 . S
O2237 Cd2227 2.240 . S
O2237 C2235 1.279 . S
O2238 Cd2228 2.297 . S
O2238 C2233 1.247 . S
O2239 Cd2228 2.439 . S
O2239 C2233 1.208 . S
O2240 Cd2241 2.223 . S
O2240 C2248 1.315 . S
Cd2241 O2240 2.223 . S
Cd2241 O2244 2.297 . S
Cd2241 O2245 2.439 . S
Cd2241 O2251 2.240 . S
Cd2242 O2243 2.240 . S
Cd2242 O2250 2.223 . S
Cd2242 O2252 2.297 . S
Cd2242 O2253 2.439 . S
O2243 Cd2242 2.240 . S
O2243 C2248 1.279 . S
O2244 Cd2241 2.297 . S
O2244 C2246 1.247 . S
O2245 Cd2241 2.439 . S
O2245 C2246 1.208 . S
C2246 O2244 1.247 . S
C2246 O2245 1.208 . S
C2247 O2252 1.247 . S
C2247 O2253 1.208 . S
C2248 O2240 1.315 . S
C2248 O2243 1.279 . S
C2249 O2250 1.315 . S
C2249 O2251 1.279 . S
O2250 Cd2242 2.223 . S
O2250 C2249 1.315 . S
O2251 Cd2241 2.240 . S
O2251 C2249 1.279 . S
O2252 Cd2242 2.297 . S
O2252 C2247 1.247 . S
O2253 Cd2242 2.439 . S
O2253 C2247 1.208 . S
O2254 Cd2255 2.223 . S
O2254 C2262 1.315 . S
Cd2255 O2254 2.223 . S
Cd2255 O2258 2.297 . S
Cd2255 O2259 2.439 . S
Cd2255 O2265 2.240 . S
Cd2256 O2257 2.240 . S
Cd2256 O2264 2.223 . S
Cd2256 O2266 2.297 . S
Cd2256 O2267 2.439 . S
O2257 Cd2256 2.240 . S
O2257 C2262 1.279 . S
O2258 Cd2255 2.297 . S
O2258 C2260 1.247 . S
O2259 Cd2255 2.439 . S
O2259 C2260 1.208 . S
C2260 O2258 1.247 . S
C2260 O2259 1.208 . S
C2261 O2266 1.247 . S
C2261 O2267 1.208 . S
C2262 O2254 1.315 . S
C2262 O2257 1.279 . S
C2263 O2264 1.315 . S
C2263 O2265 1.279 . S
O2264 Cd2256 2.223 . S
O2264 C2263 1.315 . S
O2265 Cd2255 2.240 . S
O2265 C2263 1.279 . S
O2266 Cd2256 2.297 . S
O2266 C2261 1.247 . S
O2267 Cd2256 2.439 . S
O2267 C2261 1.208 . S
O2268 Cd2269 2.223 . S
O2268 C2276 1.315 . S
Cd2269 O2268 2.223 . S
Cd2269 O2272 2.297 . S
Cd2269 O2273 2.439 . S
Cd2269 O2279 2.240 . S
Cd2270 O2271 2.240 . S
Cd2270 O2278 2.223 . S
Cd2270 O2280 2.297 . S
Cd2270 O2281 2.439 . S
O2271 Cd2270 2.240 . S
O2271 C2276 1.279 . S
O2272 Cd2269 2.297 . S
O2272 C2274 1.247 . S
O2273 Cd2269 2.439 . S
O2273 C2274 1.208 . S
C2274 O2272 1.247 . S
C2274 O2273 1.208 . S
C2275 O2280 1.247 . S
C2275 O2281 1.208 . S
C2276 O2268 1.315 . S
C2276 O2271 1.279 . S
C2277 O2278 1.315 . S
C2277 O2279 1.279 . S
O2278 Cd2270 2.223 . S
O2278 C2277 1.315 . S
O2279 Cd2269 2.240 . S
O2279 C2277 1.279 . S
O2280 Cd2270 2.297 . S
O2280 C2275 1.247 . S
O2281 Cd2270 2.439 . S
O2281 C2275 1.208 . S
O2282 Cd2283 2.223 . S
O2282 C2290 1.315 . S
Cd2283 O2282 2.223 . S
Cd2283 O2286 2.297 . S
Cd2283 O2287 2.439 . S
Cd2283 O2293 2.240 . S
Cd2284 O2285 2.240 . S
Cd2284 O2292 2.223 . S
Cd2284 O2294 2.297 . S
Cd2284 O2295 2.439 . S
O2285 Cd2284 2.240 . S
O2285 C2290 1.279 . S
O2286 Cd2283 2.297 . S
O2286 C2288 1.247 . S
O2287 Cd2283 2.439 . S
O2287 C2288 1.208 . S
C2288 O2286 1.247 . S
C2288 O2287 1.208 . S
C2289 O2294 1.247 . S
C2289 O2295 1.208 . S
C2290 O2282 1.315 . S
C2290 O2285 1.279 . S
C2291 O2292 1.315 . S
C2291 O2293 1.279 . S
O2292 Cd2284 2.223 . S
O2292 C2291 1.315 . S
O2293 Cd2283 2.240 . S
O2293 C2291 1.279 . S
O2294 Cd2284 2.297 . S
O2294 C2289 1.247 . S
O2295 Cd2284 2.439 . S
O2295 C2289 1.208 . S
O2296 Cd2297 2.223 . S
O2296 C2304 1.315 . S
Cd2297 O2296 2.223 . S
Cd2297 O2300 2.297 . S
Cd2297 O2301 2.439 . S
Cd2297 O2307 2.240 . S
Cd2298 O2299 2.240 . S
Cd2298 O2306 2.223 . S
Cd2298 O2308 2.297 . S
Cd2298 O2309 2.439 . S
O2299 Cd2298 2.240 . S
O2299 C2304 1.279 . S
O2300 Cd2297 2.297 . S
O2300 C2302 1.247 . S
O2301 Cd2297 2.439 . S
O2301 C2302 1.208 . S
C2302 O2300 1.247 . S
C2302 O2301 1.208 . S
C2303 O2308 1.247 . S
C2303 O2309 1.208 . S
C2304 O2296 1.315 . S
C2304 O2299 1.279 . S
C2305 O2306 1.315 . S
C2305 O2307 1.279 . S
O2306 Cd2298 2.223 . S
O2306 C2305 1.315 . S
O2307 Cd2297 2.240 . S
O2307 C2305 1.279 . S
O2308 Cd2298 2.297 . S
O2308 C2303 1.247 . S
O2309 Cd2298 2.439 . S
O2309 C2303 1.208 . S
O2310 Cd2311 2.223 . S
O2310 C2318 1.315 . S
Cd2311 O2310 2.223 . S
Cd2311 O2314 2.297 . S
Cd2311 O2315 2.439 . S
Cd2311 O2321 2.240 . S
Cd2312 O2313 2.240 . S
Cd2312 O2320 2.223 . S
Cd2312 O2322 2.297 . S
Cd2312 O2323 2.439 . S
O2313 Cd2312 2.240 . S
O2313 C2318 1.279 . S
O2314 Cd2311 2.297 . S
O2314 C2316 1.247 . S
O2315 Cd2311 2.439 . S
O2315 C2316 1.208 . S
C2316 O2314 1.247 . S
C2316 O2315 1.208 . S
C2317 O2322 1.247 . S
C2317 O2323 1.208 . S
C2318 O2310 1.315 . S
C2318 O2313 1.279 . S
C2319 O2320 1.315 . S
C2319 O2321 1.279 . S
O2320 Cd2312 2.223 . S
O2320 C2319 1.315 . S
O2321 Cd2311 2.240 . S
O2321 C2319 1.279 . S
O2322 Cd2312 2.297 . S
O2322 C2317 1.247 . S
O2323 Cd2312 2.439 . S
O2323 C2317 1.208 . S
O2324 Cd2325 2.223 . S
O2324 C2332 1.315 . S
Cd2325 O2324 2.223 . S
Cd2325 O2328 2.297 . S
Cd2325 O2329 2.439 . S
Cd2325 O2335 2.240 . S
Cd2326 O2327 2.240 . S
Cd2326 O2334 2.223 . S
Cd2326 O2336 2.297 . S
Cd2326 O2337 2.439 . S
O2327 Cd2326 2.240 . S
O2327 C2332 1.279 . S
O2328 Cd2325 2.297 . S
O2328 C2330 1.247 . S
O2329 Cd2325 2.439 . S
O2329 C2330 1.208 . S
C2330 O2328 1.247 . S
C2330 O2329 1.208 . S
C2331 O2336 1.247 . S
C2331 O2337 1.208 . S
C2332 O2324 1.315 . S
C2332 O2327 1.279 . S
C2333 O2334 1.315 . S
C2333 O2335 1.279 . S
O2334 Cd2326 2.223 . S
O2334 C2333 1.315 . S
O2335 Cd2325 2.240 . S
O2335 C2333 1.279 . S
O2336 Cd2326 2.297 . S
O2336 C2331 1.247 . S
O2337 Cd2326 2.439 . S
O2337 C2331 1.208 . S
O2338 Cd2339 2.223 . S
O2338 C2346 1.315 . S
Cd2339 O2338 2.223 . S
Cd2339 O2342 2.297 . S
Cd2339 O2343 2.439 . S
Cd2339 O2349 2.240 . S
Cd2340 O2341 2.240 . S
Cd2340 O2348 2.223 . S
Cd2340 O2350 2.297 . S
Cd2340 O2351 2.439 . S
O2341 Cd2340 2.240 . S
O2341 C2346 1.279 . S
O2342 Cd2339 2.297 . S
O2342 C2344 1.247 . S
O2343 Cd2339 2.439 . S
O2343 C2344 1.208 . S
C2344 O2342 1.247 . S
C2344 O2343 1.208 . S
C2345 O2350 1.247 . S
C2345 O2351 1.208 . S
C2346 O2338 1.315 . S
C2346 O2341 1.279 . S
C2347 O2348 1.315 . S
C2347 O2349 1.279 . S
O2348 Cd2340 2.223 . S
O2348 C2347 1.315 . S
O2349 Cd2339 2.240 . S
O2349 C2347 1.279 . S
O2350 Cd2340 2.297 . S
O2350 C2345 1.247 . S
O2351 Cd2340 2.439 . S
O2351 C2345 1.208 . S
O2352 Cd2353 2.223 . S
O2352 C2360 1.315 . S
Cd2353 O2352 2.223 . S
Cd2353 O2356 2.297 . S
Cd2353 O2357 2.439 . S
Cd2353 O2363 2.240 . S
Cd2354 O2355 2.240 . S
Cd2354 O2362 2.223 . S
Cd2354 O2364 2.297 . S
Cd2354 O2365 2.439 . S
O2355 Cd2354 2.240 . S
O2355 C2360 1.279 . S
O2356 Cd2353 2.297 . S
O2356 C2358 1.247 . S
O2357 Cd2353 2.439 . S
O2357 C2358 1.208 . S
C2358 O2356 1.247 . S
C2358 O2357 1.208 . S
C2359 O2364 1.247 . S
C2359 O2365 1.208 . S
C2360 O2352 1.315 . S
C2360 O2355 1.279 . S
C2361 O2362 1.315 . S
C2361 O2363 1.279 . S
O2362 Cd2354 2.223 . S
O2362 C2361 1.315 . S
O2363 Cd2353 2.240 . S
O2363 C2361 1.279 . S
O2364 Cd2354 2.297 . S
O2364 C2359 1.247 . S
O2365 Cd2354 2.439 . S
O2365 C2359 1.208 . S
O2366 Cd2367 2.223 . S
O2366 C2374 1.315 . S
Cd2367 O2366 2.223 . S
Cd2367 O2370 2.297 . S
Cd2367 O2371 2.439 . S
Cd2367 O2377 2.240 . S
Cd2368 O2369 2.240 . S
Cd2368 O2376 2.223 . S
Cd2368 O2378 2.297 . S
Cd2368 O2379 2.439 . S
O2369 Cd2368 2.240 . S
O2369 C2374 1.279 . S
O2370 Cd2367 2.297 . S
O2370 C2372 1.247 . S
O2371 Cd2367 2.439 . S
O2371 C2372 1.208 . S
C2372 O2370 1.247 . S
C2372 O2371 1.208 . S
C2373 O2378 1.247 . S
C2373 O2379 1.208 . S
C2374 O2366 1.315 . S
C2374 O2369 1.279 . S
C2375 O2376 1.315 . S
C2375 O2377 1.279 . S
O2376 Cd2368 2.223 . S
O2376 C2375 1.315 . S
O2377 Cd2367 2.240 . S
O2377 C2375 1.279 . S
O2378 Cd2368 2.297 . S
O2378 C2373 1.247 . S
O2379 Cd2368 2.439 . S
O2379 C2373 1.208 . S
O2380 Cd2381 2.223 . S
O2380 C2388 1.315 . S
Cd2381 O2380 2.223 . S
Cd2381 O2384 2.297 . S
Cd2381 O2385 2.439 . S
Cd2381 O2391 2.240 . S
Cd2382 O2383 2.240 . S
Cd2382 O2390 2.223 . S
Cd2382 O2392 2.297 . S
Cd2382 O2393 2.439 . S
O2383 Cd2382 2.240 . S
O2383 C2388 1.279 . S
O2384 Cd2381 2.297 . S
O2384 C2386 1.247 . S
O2385 Cd2381 2.439 . S
O2385 C2386 1.208 . S
C2386 O2384 1.247 . S
C2386 O2385 1.208 . S
C2387 O2392 1.247 . S
C2387 O2393 1.208 . S
C2388 O2380 1.315 . S
C2388 O2383 1.279 . S
C2389 O2390 1.315 . S
C2389 O2391 1.279 . S
O2390 Cd2382 2.223 . S
O2390 C2389 1.315 . S
O2391 Cd2381 2.240 . S
O2391 C2389 1.279 . S
O2392 Cd2382 2.297 . S
O2392 C2387 1.247 . S
O2393 Cd2382 2.439 . S
O2393 C2387 1.208 . S
O2394 Cd2395 2.223 . S
O2394 C2402 1.315 . S
Cd2395 O2394 2.223 . S
Cd2395 O2398 2.297 . S
Cd2395 O2399 2.439 . S
Cd2395 O2405 2.240 . S
Cd2396 O2397 2.240 . S
Cd2396 O2404 2.223 . S
Cd2396 O2406 2.297 . S
Cd2396 O2407 2.439 . S
O2397 Cd2396 2.240 . S
O2397 C2402 1.279 . S
O2398 Cd2395 2.297 . S
O2398 C2400 1.247 . S
O2399 Cd2395 2.439 . S
O2399 C2400 1.208 . S
C2400 O2398 1.247 . S
C2400 O2399 1.208 . S
C2401 O2406 1.247 . S
C2401 O2407 1.208 . S
C2402 O2394 1.315 . S
C2402 O2397 1.279 . S
C2403 O2404 1.315 . S
C2403 O2405 1.279 . S
O2404 Cd2396 2.223 . S
O2404 C2403 1.315 . S
O2405 Cd2395 2.240 . S
O2405 C2403 1.279 . S
O2406 Cd2396 2.297 . S
O2406 C2401 1.247 . S
O2407 Cd2396 2.439 . S
O2407 C2401 1.208 . S
O2408 Cd2409 2.223 . S
O2408 C2416 1.315 . S
Cd2409 O2408 2.223 . S
Cd2409 O2412 2.297 . S
Cd2409 O2413 2.439 . S
Cd2409 O2419 2.240 . S
Cd2410 O2411 2.240 . S
Cd2410 O2418 2.223 . S
Cd2410 O2420 2.297 . S
Cd2410 O2421 2.439 . S
O2411 Cd2410 2.240 . S
O2411 C2416 1.279 . S
O2412 Cd2409 2.297 . S
O2412 C2414 1.247 . S
O2413 Cd2409 2.439 . S
O2413 C2414 1.208 . S
C2414 O2412 1.247 . S
C2414 O2413 1.208 . S
C2415 O2420 1.247 . S
C2415 O2421 1.208 . S
C2416 O2408 1.315 . S
C2416 O2411 1.279 . S
C2417 O2418 1.315 . S
C2417 O2419 1.279 . S
O2418 Cd2410 2.223 . S
O2418 C2417 1.315 . S
O2419 Cd2409 2.240 . S
O2419 C2417 1.279 . S
O2420 Cd2410 2.297 . S
O2420 C2415 1.247 . S
O2421 Cd2410 2.439 . S
O2421 C2415 1.208 . S
O2422 Cd2423 2.223 . S
O2422 C2430 1.315 . S
Cd2423 O2422 2.223 . S
Cd2423 O2426 2.297 . S
Cd2423 O2427 2.439 . S
Cd2423 O2433 2.240 . S
Cd2424 O2425 2.240 . S
Cd2424 O2432 2.223 . S
Cd2424 O2434 2.297 . S
Cd2424 O2435 2.439 . S
O2425 Cd2424 2.240 . S
O2425 C2430 1.279 . S
O2426 Cd2423 2.297 . S
O2426 C2428 1.247 . S
O2427 Cd2423 2.439 . S
O2427 C2428 1.208 . S
C2428 O2426 1.247 . S
C2428 O2427 1.208 . S
C2429 O2434 1.247 . S
C2429 O2435 1.208 . S
C2430 O2422 1.315 . S
C2430 O2425 1.279 . S
C2431 O2432 1.315 . S
C2431 O2433 1.279 . S
O2432 Cd2424 2.223 . S
O2432 C2431 1.315 . S
O2433 Cd2423 2.240 . S
O2433 C2431 1.279 . S
O2434 Cd2424 2.297 . S
O2434 C2429 1.247 . S
O2435 Cd2424 2.439 . S
O2435 C2429 1.208 . S
O2436 Cd2437 2.223 . S
O2436 C2444 1.315 . S
Cd2437 O2436 2.223 . S
Cd2437 O2440 2.297 . S
Cd2437 O2441 2.439 . S
Cd2437 O2447 2.240 . S
Cd2438 O2439 2.240 . S
Cd2438 O2446 2.223 . S
Cd2438 O2448 2.297 . S
Cd2438 O2449 2.439 . S
O2439 Cd2438 2.240 . S
O2439 C2444 1.279 . S
O2440 Cd2437 2.297 . S
O2440 C2442 1.247 . S
O2441 Cd2437 2.439 . S
O2441 C2442 1.208 . S
C2442 O2440 1.247 . S
C2442 O2441 1.208 . S
C2443 O2448 1.247 . S
C2443 O2449 1.208 . S
C2444 O2436 1.315 . S
C2444 O2439 1.279 . S
C2445 O2446 1.315 . S
C2445 O2447 1.279 . S
O2446 Cd2438 2.223 . S
O2446 C2445 1.315 . S
O2447 Cd2437 2.240 . S
O2447 C2445 1.279 . S
O2448 Cd2438 2.297 . S
O2448 C2443 1.247 . S
O2449 Cd2438 2.439 . S
O2449 C2443 1.208 . S
O2450 Cd2451 2.223 . S
O2450 C2458 1.315 . S
Cd2451 O2450 2.223 . S
Cd2451 O2454 2.297 . S
Cd2451 O2455 2.439 . S
Cd2451 O2461 2.240 . S
Cd2452 O2453 2.240 . S
Cd2452 O2460 2.223 . S
Cd2452 O2462 2.297 . S
Cd2452 O2463 2.439 . S
O2453 Cd2452 2.240 . S
O2453 C2458 1.279 . S
O2454 Cd2451 2.297 . S
O2454 C2456 1.247 . S
O2455 Cd2451 2.439 . S
O2455 C2456 1.208 . S
C2456 O2454 1.247 . S
C2456 O2455 1.208 . S
C2457 O2462 1.247 . S
C2457 O2463 1.208 . S
C2458 O2450 1.315 . S
C2458 O2453 1.279 . S
C2459 O2460 1.315 . S
C2459 O2461 1.279 . S
O2460 Cd2452 2.223 . S
O2460 C2459 1.315 . S
O2461 Cd2451 2.240 . S
O2461 C2459 1.279 . S
O2462 Cd2452 2.297 . S
O2462 C2457 1.247 . S
O2463 Cd2452 2.439 . S
O2463 C2457 1.208 . S
O2464 Cd2465 2.223 . S
O2464 C2472 1.315 . S
Cd2465 O2464 2.223 . S
Cd2465 O2468 2.297 . S
Cd2465 O2469 2.439 . S
Cd2465 O2475 2.240 . S
Cd2466 O2467 2.240 . S
Cd2466 O2474 2.223 . S
Cd2466 O2476 2.297 . S
Cd2466 O2477 2.439 . S
O2467 Cd2466 2.240 . S
O2467 C2472 1.279 . S
O2468 Cd2465 2.297 . S
O2468 C2470 1.247 . S
O2469 Cd2465 2.439 . S
O2469 C2470 1.208 . S
C2470 O2468 1.247 . S
C2470 O2469 1.208 . S
C2471 O2476 1.247 . S
C2471 O2477 1.208 . S
C2472 O2464 1.315 . S
C2472 O2467 1.279 . S
C2473 O2474 1.315 . S
C2473 O2475 1.279 . S
O2474 Cd2466 2.223 . S
O2474 C2473 1.315 . S
O2475 Cd2465 2.240 . S
O2475 C2473 1.279 . S
O2476 Cd2466 2.297 . S
O2476 C2471 1.247 . S
O2477 Cd2466 2.439 . S
O2477 C2471 1.208 . S
O2478 Cd2479 2.223 . S
O2478 C2486 1.315 . S
Cd2479 O2478 2.223 . S
Cd2479 O2482 2.297 . S
Cd2479 O2483 2.439 . S
Cd2479 O2489 2.240 . S
Cd2480 O2481 2.240 . S
Cd2480 O2488 2.223 . S
Cd2480 O2490 2.297 . S
Cd2480 O2491 2.439 . S
O2481 Cd2480 2.240 . S
O2481 C2486 1.279 . S
O2482 Cd2479 2.297 . S
O2482 C2484 1.247 . S
O2483 Cd2479 2.439 . S
O2483 C2484 1.208 . S
C2484 O2482 1.247 . S
C2484 O2483 1.208 . S
C2485 O2490 1.247 . S
C2485 O2491 1.208 . S
C2486 O2478 1.315 . S
C2486 O2481 1.279 . S
C2487 O2488 1.315 . S
C2487 O2489 1.279 . S
O2488 Cd2480 2.223 . S
O2488 C2487 1.315 . S
O2489 Cd2479 2.240 . S
O2489 C2487 1.279 . S
O2490 Cd2480 2.297 . S
O2490 C2485 1.247 . S
O2491 Cd2480 2.439 . S
O2491 C2485 1.208 . S
O2492 Cd2493 2.223 . S
O2492 C2500 1.315 . S
Cd2493 O2492 2.223 . S
Cd2493 O2496 2.297 . S
Cd2493 O2497 2.439 . S
Cd2493 O2503 2.240 . S
Cd2494 O2495 2.240 . S
Cd2494 O2502 2.223 . S
Cd2494 O2504 2.297 . S
Cd2494 O2505 2.439 . S
O2495 Cd2494 2.240 . S
O2495 C2500 1.279 . S
O2496 Cd2493 2.297 . S
O2496 C2498 1.247 . S
O2497 Cd2493 2.439 . S
O2497 C2498 1.208 . S
C2498 O2496 1.247 . S
C2498 O2497 1.208 . S
C2499 O2504 1.247 . S
C2499 O2505 1.208 . S
C2500 O2492 1.315 . S
C2500 O2495 1.279 . S
C2501 O2502 1.315 . S
C2501 O2503 1.279 . S
O2502 Cd2494 2.223 . S
O2502 C2501 1.315 . S
O2503 Cd2493 2.240 . S
O2503 C2501 1.279 . S
O2504 Cd2494 2.297 . S
O2504 C2499 1.247 . S
O2505 Cd2494 2.439 . S
O2505 C2499 1.208 . S
O2506 Cd2507 2.223 . S
O2506 C2514 1.315 . S
Cd2507 O2506 2.223 . S
Cd2507 O2510 2.297 . S
Cd2507 O2511 2.439 . S
Cd2507 O2517 2.240 . S
Cd2508 O2509 2.240 . S
Cd2508 O2516 2.223 . S
Cd2508 O2518 2.297 . S
Cd2508 O2519 2.439 . S
O2509 Cd2508 2.240 . S
O2509 C2514 1.279 . S
O2510 Cd2507 2.297 . S
O2510 C2512 1.247 . S
O2511 Cd2507 2.439 . S
O2511 C2512 1.208 . S
C2512 O2510 1.247 . S
C2512 O2511 1.208 . S
C2513 O2518 1.247 . S
C2513 O2519 1.208 . S
C2514 O2506 1.315 . S
C2514 O2509 1.279 . S
C2515 O2516 1.315 . S
C2515 O2517 1.279 . S
O2516 Cd2508 2.223 . S
O2516 C2515 1.315 . S
O2517 Cd2507 2.240 . S
O2517 C2515 1.279 . S
O2518 Cd2508 2.297 . S
O2518 C2513 1.247 . S
O2519 Cd2508 2.439 . S
O2519 C2513 1.208 . S
O2520 Cd2521 2.223 . S
O2520 C2528 1.315 . S
Cd2521 O2520 2.223 . S
Cd2521 O2524 2.297 . S
Cd2521 O2525 2.439 . S
Cd2521 O2531 2.240 . S
Cd2522 O2523 2.240 . S
Cd2522 O2530 2.223 . S
Cd2522 O2532 2.297 . S
Cd2522 O2533 2.439 . S
O2523 Cd2522 2.240 . S
O2523 C2528 1.279 . S
O2524 Cd2521 2.297 . S
O2524 C2526 1.247 . S
O2525 Cd2521 2.439 . S
O2525 C2526 1.208 . S
C2526 O2524 1.247 . S
C2526 O2525 1.208 . S
C2527 O2532 1.247 . S
C2527 O2533 1.208 . S
C2528 O2520 1.315 . S
C2528 O2523 1.279 . S
C2529 O2530 1.315 . S
C2529 O2531 1.279 . S
O2530 Cd2522 2.223 . S
O2530 C2529 1.315 . S
O2531 Cd2521 2.240 . S
O2531 C2529 1.279 . S
O2532 Cd2522 2.297 . S
O2532 C2527 1.247 . S
O2533 Cd2522 2.439 . S
O2533 C2527 1.208 . S
O2534 Cd2535 2.223 . S
O2534 C2542 1.315 . S
Cd2535 O2534 2.223 . S
Cd2535 O2538 2.297 . S
Cd2535 O2539 2.439 . S
Cd2535 O2545 2.240 . S
Cd2536 O2537 2.240 . S
Cd2536 O2544 2.223 . S
Cd2536 O2546 2.297 . S
Cd2536 O2547 2.439 . S
O2537 Cd2536 2.240 . S
O2537 C2542 1.279 . S
O2538 Cd2535 2.297 . S
O2538 C2540 1.247 . S
O2539 Cd2535 2.439 . S
O2539 C2540 1.208 . S
C2540 O2538 1.247 . S
C2540 O2539 1.208 . S
C2541 O2546 1.247 . S
C2541 O2547 1.208 . S
C2542 O2534 1.315 . S
C2542 O2537 1.279 . S
C2543 O2544 1.315 . S
C2543 O2545 1.279 . S
O2544 Cd2536 2.223 . S
O2544 C2543 1.315 . S
O2545 Cd2535 2.240 . S
O2545 C2543 1.279 . S
O2546 Cd2536 2.297 . S
O2546 C2541 1.247 . S
O2547 Cd2536 2.439 . S
O2547 C2541 1.208 . S
O2548 Cd2549 2.223 . S
O2548 C2556 1.315 . S
Cd2549 O2548 2.223 . S
Cd2549 O2552 2.297 . S
Cd2549 O2553 2.439 . S
Cd2549 O2559 2.240 . S
Cd2550 O2551 2.240 . S
Cd2550 O2558 2.223 . S
Cd2550 O2560 2.297 . S
Cd2550 O2561 2.439 . S
O2551 Cd2550 2.240 . S
O2551 C2556 1.279 . S
O2552 Cd2549 2.297 . S
O2552 C2554 1.247 . S
O2553 Cd2549 2.439 . S
O2553 C2554 1.208 . S
C2554 O2552 1.247 . S
C2554 O2553 1.208 . S
C2555 O2560 1.247 . S
C2555 O2561 1.208 . S
C2556 O2548 1.315 . S
C2556 O2551 1.279 . S
C2557 O2558 1.315 . S
C2557 O2559 1.279 . S
O2558 Cd2550 2.223 . S
O2558 C2557 1.315 . S
O2559 Cd2549 2.240 . S
O2559 C2557 1.279 . S
O2560 Cd2550 2.297 . S
O2560 C2555 1.247 . S
O2561 Cd2550 2.439 . S
O2561 C2555 1.208 . S
O2562 Cd2563 2.223 . S
O2562 C2570 1.315 . S
Cd2563 O2562 2.223 . S
Cd2563 O2566 2.297 . S
Cd2563 O2567 2.439 . S
Cd2563 O2573 2.240 . S
Cd2564 O2565 2.240 . S
Cd2564 O2572 2.223 . S
Cd2564 O2574 2.297 . S
Cd2564 O2575 2.439 . S
O2565 Cd2564 2.240 . S
O2565 C2570 1.279 . S
O2566 Cd2563 2.297 . S
O2566 C2568 1.247 . S
O2567 Cd2563 2.439 . S
O2567 C2568 1.208 . S
C2568 O2566 1.247 . S
C2568 O2567 1.208 . S
C2569 O2574 1.247 . S
C2569 O2575 1.208 . S
C2570 O2562 1.315 . S
C2570 O2565 1.279 . S
C2571 O2572 1.315 . S
C2571 O2573 1.279 . S
O2572 Cd2564 2.223 . S
O2572 C2571 1.315 . S
O2573 Cd2563 2.240 . S
O2573 C2571 1.279 . S
O2574 Cd2564 2.297 . S
O2574 C2569 1.247 . S
O2575 Cd2564 2.439 . S
O2575 C2569 1.208 . S
O2576 Cd2577 2.223 . S
O2576 C2584 1.315 . S
Cd2577 O2576 2.223 . S
Cd2577 O2580 2.297 . S
Cd2577 O2581 2.439 . S
Cd2577 O2587 2.240 . S
Cd2578 O2579 2.240 . S
Cd2578 O2586 2.223 . S
Cd2578 O2588 2.297 . S
Cd2578 O2589 2.439 . S
O2579 Cd2578 2.240 . S
O2579 C2584 1.279 . S
O2580 Cd2577 2.297 . S
O2580 C2582 1.247 . S
O2581 Cd2577 2.439 . S
O2581 C2582 1.208 . S
C2582 O2580 1.247 . S
C2582 O2581 1.208 . S
C2583 O2588 1.247 . S
C2583 O2589 1.208 . S
C2584 O2576 1.315 . S
C2584 O2579 1.279 . S
C2585 O2586 1.315 . S
C2585 O2587 1.279 . S
O2586 Cd2578 2.223 . S
O2586 C2585 1.315 . S
O2587 Cd2577 2.240 . S
O2587 C2585 1.279 . S
O2588 Cd2578 2.297 . S
O2588 C2583 1.247 . S
O2589 Cd2578 2.439 . S
O2589 C2583 1.208 . S
O2590 Cd2591 2.223 . S
O2590 C2598 1.315 . S
Cd2591 O2590 2.223 . S
Cd2591 O2594 2.297 . S
Cd2591 O2595 2.439 . S
Cd2591 O2601 2.240 . S
Cd2592 O2593 2.240 . S
Cd2592 O2600 2.223 . S
Cd2592 O2602 2.297 . S
Cd2592 O2603 2.439 . S
O2593 Cd2592 2.240 . S
O2593 C2598 1.279 . S
O2594 Cd2591 2.297 . S
O2594 C2596 1.247 . S
O2595 Cd2591 2.439 . S
O2595 C2596 1.208 . S
C2596 O2594 1.247 . S
C2596 O2595 1.208 . S
C2597 O2602 1.247 . S
C2597 O2603 1.208 . S
C2598 O2590 1.315 . S
C2598 O2593 1.279 . S
C2599 O2600 1.315 . S
C2599 O2601 1.279 . S
O2600 Cd2592 2.223 . S
O2600 C2599 1.315 . S
O2601 Cd2591 2.240 . S
O2601 C2599 1.279 . S
O2602 Cd2592 2.297 . S
O2602 C2597 1.247 . S
O2603 Cd2592 2.439 . S
O2603 C2597 1.208 . S
O2604 Cd2605 2.223 . S
O2604 C2612 1.315 . S
Cd2605 O2604 2.223 . S
Cd2605 O2608 2.297 . S
Cd2605 O2609 2.439 . S
Cd2605 O2615 2.240 . S
Cd2606 O2607 2.240 . S
Cd2606 O2614 2.223 . S
Cd2606 O2616 2.297 . S
Cd2606 O2617 2.439 . S
O2607 Cd2606 2.240 . S
O2607 C2612 1.279 . S
O2608 Cd2605 2.297 . S
O2608 C2610 1.247 . S
O2609 Cd2605 2.439 . S
O2609 C2610 1.208 . S
C2610 O2608 1.247 . S
C2610 O2609 1.208 . S
C2611 O2616 1.247 . S
C2611 O2617 1.208 . S
C2612 O2604 1.315 . S
C2612 O2607 1.279 . S
C2613 O2614 1.315 . S
C2613 O2615 1.279 . S
O2614 Cd2606 2.223 . S
O2614 C2613 1.315 . S
O2615 Cd2605 2.240 . S
O2615 C2613 1.279 . S
O2616 Cd2606 2.297 . S
O2616 C2611 1.247 . S
O2617 Cd2606 2.439 . S
O2617 C2611 1.208 . S
O2618 Cd2619 2.223 . S
O2618 C2626 1.315 . S
Cd2619 O2618 2.223 . S
Cd2619 O2622 2.297 . S
Cd2619 O2623 2.439 . S
Cd2619 O2629 2.240 . S
Cd2620 O2621 2.240 . S
Cd2620 O2628 2.223 . S
Cd2620 O2630 2.297 . S
Cd2620 O2631 2.439 . S
O2621 Cd2620 2.240 . S
O2621 C2626 1.279 . S
O2622 Cd2619 2.297 . S
O2622 C2624 1.247 . S
O2623 Cd2619 2.439 . S
O2623 C2624 1.208 . S
C2624 O2622 1.247 . S
C2624 O2623 1.208 . S
C2625 O2630 1.247 . S
C2625 O2631 1.208 . S
C2626 O2618 1.315 . S
C2626 O2621 1.279 . S
C2627 O2628 1.315 . S
C2627 O2629 1.279 . S
O2628 Cd2620 2.223 . S
O2628 C2627 1.315 . S
O2629 Cd2619 2.240 . S
O2629 C2627 1.279 . S
O2630 Cd2620 2.297 . S
O2630 C2625 1.247 . S
O2631 Cd2620 2.439 . S
O2631 C2625 1.208 . S
O2632 Cd2633 2.223 . S
O2632 C2640 1.315 . S
Cd2633 O2632 2.223 . S
Cd2633 O2636 2.297 . S
Cd2633 O2637 2.439 . S
Cd2633 O2643 2.240 . S
Cd2634 O2635 2.240 . S
Cd2634 O2642 2.223 . S
Cd2634 O2644 2.297 . S
Cd2634 O2645 2.439 . S
O2635 Cd2634 2.240 . S
O2635 C2640 1.279 . S
O2636 Cd2633 2.297 . S
O2636 C2638 1.247 . S
O2637 Cd2633 2.439 . S
O2637 C2638 1.208 . S
C2638 O2636 1.247 . S
C2638 O2637 1.208 . S
C2639 O2644 1.247 . S
C2639 O2645 1.208 . S
C2640 O2632 1.315 . S
C2640 O2635 1.279 . S
C2641 O2642 1.315 . S
C2641 O2643 1.279 . S
O2642 Cd2634 2.223 . S
O2642 C2641 1.315 . S
O2643 Cd2633 2.240 . S
O2643 C2641 1.279 . S
O2644 Cd2634 2.297 . S
O2644 C2639 1.247 . S
O2645 Cd2634 2.439 . S
O2645 C2639 1.208 . S
O2646 Cd2647 2.223 . S
O2646 C2654 1.315 . S
Cd2647 O2646 2.223 . S
Cd2647 O2650 2.297 . S
Cd2647 O2651 2.439 . S
Cd2647 O2657 2.240 . S
Cd2648 O2649 2.240 . S
Cd2648 O2656 2.223 . S
Cd2648 O2658 2.297 . S
Cd2648 O2659 2.439 . S
O2649 Cd2648 2.240 . S
O2649 C2654 1.279 . S
O2650 Cd2647 2.297 . S
O2650 C2652 1.247 . S
O2651 Cd2647 2.439 . S
O2651 C2652 1.208 . S
C2652 O2650 1.247 . S
C2652 O2651 1.208 . S
C2653 O2658 1.247 . S
C2653 O2659 1.208 . S
C2654 O2646 1.315 . S
C2654 O2649 1.279 . S
C2655 O2656 1.315 . S
C2655 O2657 1.279 . S
O2656 Cd2648 2.223 . S
O2656 C2655 1.315 . S
O2657 Cd2647 2.240 . S
O2657 C2655 1.279 . S
O2658 Cd2648 2.297 . S
O2658 C2653 1.247 . S
O2659 Cd2648 2.439 . S
O2659 C2653 1.208 . S
O2660 Cd2661 2.223 . S
O2660 C2668 1.315 . S
Cd2661 O2660 2.223 . S
Cd2661 O2664 2.297 . S
Cd2661 O2665 2.439 . S
Cd2661 O2671 2.240 . S
Cd2662 O2663 2.240 . S
Cd2662 O2670 2.223 . S
Cd2662 O2672 2.297 . S
Cd2662 O2673 2.439 . S
O2663 Cd2662 2.240 . S
O2663 C2668 1.279 . S
O2664 Cd2661 2.297 . S
O2664 C2666 1.247 . S
O2665 Cd2661 2.439 . S
O2665 C2666 1.208 . S
C2666 O2664 1.247 . S
C2666 O2665 1.208 . S
C2667 O2672 1.247 . S
C2667 O2673 1.208 . S
C2668 O2660 1.315 . S
C2668 O2663 1.279 . S
C2669 O2670 1.315 . S
C2669 O2671 1.279 . S
O2670 Cd2662 2.223 . S
O2670 C2669 1.315 . S
O2671 Cd2661 2.240 . S
O2671 C2669 1.279 . S
O2672 Cd2662 2.297 . S
O2672 C2667 1.247 . S
O2673 Cd2662 2.439 . S
O2673 C2667 1.208 . S
O2674 Cd2675 2.223 . S
O2674 C2682 1.315 . S
Cd2675 O2674 2.223 . S
Cd2675 O2678 2.297 . S
Cd2675 O2679 2.439 . S
Cd2675 O2685 2.240 . S
Cd2676 O2677 2.240 . S
Cd2676 O2684 2.223 . S
Cd2676 O2686 2.297 . S
Cd2676 O2687 2.439 . S
O2677 Cd2676 2.240 . S
O2677 C2682 1.279 . S
O2678 Cd2675 2.297 . S
O2678 C2680 1.247 . S
O2679 Cd2675 2.439 . S
O2679 C2680 1.208 . S
C2680 O2678 1.247 . S
C2680 O2679 1.208 . S
C2681 O2686 1.247 . S
C2681 O2687 1.208 . S
C2682 O2674 1.315 . S
C2682 O2677 1.279 . S
C2683 O2684 1.315 . S
C2683 O2685 1.279 . S
O2684 Cd2676 2.223 . S
O2684 C2683 1.315 . S
O2685 Cd2675 2.240 . S
O2685 C2683 1.279 . S
O2686 Cd2676 2.297 . S
O2686 C2681 1.247 . S
O2687 Cd2676 2.439 . S
O2687 C2681 1.208 . S
H2688 C2694 0.930 . S
H2689 C2698 0.930 . S
H2690 C2703 0.929 . S
H2691 C2701 0.929 . S
H2692 C2696 0.929 . S
H2693 C2702 0.929 . S
C2694 H2688 0.930 . S
C2694 C2695 1.367 . S
C2694 C2702 1.378 . S
C2695 C2694 1.367 . S
C2695 C2703 1.433 . S
C2696 H2692 0.929 . S
C2696 C2698 1.378 . S
C2696 C2700 1.350 . S
C2697 C2700 1.463 . S
C2697 C2702 1.350 . S
C2697 N2705 1.427 . S
C2698 H2689 0.930 . S
C2698 C2696 1.378 . S
C2698 C2699 1.367 . S
C2699 C2698 1.367 . S
C2699 C2701 1.433 . S
C2700 C2696 1.350 . S
C2700 C2697 1.463 . S
C2700 N2704 1.427 . S
C2701 H2691 0.929 . S
C2701 C2699 1.433 . S
C2701 N2704 1.384 . S
C2702 H2693 0.929 . S
C2702 C2694 1.378 . S
C2702 C2697 1.350 . S
C2703 H2690 0.929 . S
C2703 C2695 1.433 . S
C2703 N2705 1.384 . S
N2704 C2700 1.427 . S
N2704 C2701 1.384 . S
N2705 C2697 1.427 . S
N2705 C2703 1.384 . S
H2706 C2712 0.930 . S
H2707 C2716 0.930 . S
H2708 C2721 0.929 . S
H2709 C2719 0.929 . S
H2710 C2714 0.929 . S
H2711 C2720 0.929 . S
C2712 H2706 0.930 . S
C2712 C2713 1.367 . S
C2712 C2720 1.378 . S
C2713 C2712 1.367 . S
C2713 C2721 1.433 . S
C2714 H2710 0.929 . S
C2714 C2716 1.378 . S
C2714 C2718 1.350 . S
C2715 C2718 1.463 . S
C2715 C2720 1.350 . S
C2715 N2723 1.427 . S
C2716 H2707 0.930 . S
C2716 C2714 1.378 . S
C2716 C2717 1.367 . S
C2717 C2716 1.367 . S
C2717 C2719 1.433 . S
C2718 C2714 1.350 . S
C2718 C2715 1.463 . S
C2718 N2722 1.427 . S
C2719 H2709 0.929 . S
C2719 C2717 1.433 . S
C2719 N2722 1.384 . S
C2720 H2711 0.929 . S
C2720 C2712 1.378 . S
C2720 C2715 1.350 . S
C2721 H2708 0.929 . S
C2721 C2713 1.433 . S
C2721 N2723 1.384 . S
N2722 C2718 1.427 . S
N2722 C2719 1.384 . S
N2723 C2715 1.427 . S
N2723 C2721 1.384 . S
H2724 C2730 0.930 . S
H2725 C2734 0.930 . S
H2726 C2739 0.929 . S
H2727 C2737 0.929 . S
H2728 C2732 0.929 . S
H2729 C2738 0.929 . S
C2730 H2724 0.930 . S
C2730 C2731 1.367 . S
C2730 C2738 1.378 . S
C2731 C2730 1.367 . S
C2731 C2739 1.433 . S
C2732 H2728 0.929 . S
C2732 C2734 1.378 . S
C2732 C2736 1.350 . S
C2733 C2736 1.463 . S
C2733 C2738 1.350 . S
C2733 N2741 1.427 . S
C2734 H2725 0.930 . S
C2734 C2732 1.378 . S
C2734 C2735 1.367 . S
C2735 C2734 1.367 . S
C2735 C2737 1.433 . S
C2736 C2732 1.350 . S
C2736 C2733 1.463 . S
C2736 N2740 1.427 . S
C2737 H2727 0.929 . S
C2737 C2735 1.433 . S
C2737 N2740 1.384 . S
C2738 H2729 0.929 . S
C2738 C2730 1.378 . S
C2738 C2733 1.350 . S
C2739 H2726 0.929 . S
C2739 C2731 1.433 . S
C2739 N2741 1.384 . S
N2740 C2736 1.427 . S
N2740 C2737 1.384 . S
N2741 C2733 1.427 . S
N2741 C2739 1.384 . S
H2742 C2748 0.930 . S
H2743 C2752 0.930 . S
H2744 C2757 0.929 . S
H2745 C2755 0.929 . S
H2746 C2750 0.929 . S
H2747 C2756 0.929 . S
C2748 H2742 0.930 . S
C2748 C2749 1.367 . S
C2748 C2756 1.378 . S
C2749 C2748 1.367 . S
C2749 C2757 1.433 . S
C2750 H2746 0.929 . S
C2750 C2752 1.378 . S
C2750 C2754 1.350 . S
C2751 C2754 1.463 . S
C2751 C2756 1.350 . S
C2751 N2759 1.427 . S
C2752 H2743 0.930 . S
C2752 C2750 1.378 . S
C2752 C2753 1.367 . S
C2753 C2752 1.367 . S
C2753 C2755 1.433 . S
C2754 C2750 1.350 . S
C2754 C2751 1.463 . S
C2754 N2758 1.427 . S
C2755 H2745 0.929 . S
C2755 C2753 1.433 . S
C2755 N2758 1.384 . S
C2756 H2747 0.929 . S
C2756 C2748 1.378 . S
C2756 C2751 1.350 . S
C2757 H2744 0.929 . S
C2757 C2749 1.433 . S
C2757 N2759 1.384 . S
N2758 C2754 1.427 . S
N2758 C2755 1.384 . S
N2759 C2751 1.427 . S
N2759 C2757 1.384 . S
H2760 C2766 0.930 . S
H2761 C2770 0.930 . S
H2762 C2775 0.929 . S
H2763 C2773 0.929 . S
H2764 C2768 0.929 . S
H2765 C2774 0.929 . S
C2766 H2760 0.930 . S
C2766 C2767 1.367 . S
C2766 C2774 1.378 . S
C2767 C2766 1.367 . S
C2767 C2775 1.433 . S
C2768 H2764 0.929 . S
C2768 C2770 1.378 . S
C2768 C2772 1.350 . S
C2769 C2772 1.463 . S
C2769 C2774 1.350 . S
C2769 N2777 1.427 . S
C2770 H2761 0.930 . S
C2770 C2768 1.378 . S
C2770 C2771 1.367 . S
C2771 C2770 1.367 . S
C2771 C2773 1.433 . S
C2772 C2768 1.350 . S
C2772 C2769 1.463 . S
C2772 N2776 1.427 . S
C2773 H2763 0.929 . S
C2773 C2771 1.433 . S
C2773 N2776 1.384 . S
C2774 H2765 0.929 . S
C2774 C2766 1.378 . S
C2774 C2769 1.350 . S
C2775 H2762 0.929 . S
C2775 C2767 1.433 . S
C2775 N2777 1.384 . S
N2776 C2772 1.427 . S
N2776 C2773 1.384 . S
N2777 C2769 1.427 . S
N2777 C2775 1.384 . S
H2778 C2784 0.930 . S
H2779 C2788 0.930 . S
H2780 C2793 0.929 . S
H2781 C2791 0.929 . S
H2782 C2786 0.929 . S
H2783 C2792 0.929 . S
C2784 H2778 0.930 . S
C2784 C2785 1.367 . S
C2784 C2792 1.378 . S
C2785 C2784 1.367 . S
C2785 C2793 1.433 . S
C2786 H2782 0.929 . S
C2786 C2788 1.378 . S
C2786 C2790 1.350 . S
C2787 C2790 1.463 . S
C2787 C2792 1.350 . S
C2787 N2795 1.427 . S
C2788 H2779 0.930 . S
C2788 C2786 1.378 . S
C2788 C2789 1.367 . S
C2789 C2788 1.367 . S
C2789 C2791 1.433 . S
C2790 C2786 1.350 . S
C2790 C2787 1.463 . S
C2790 N2794 1.427 . S
C2791 H2781 0.929 . S
C2791 C2789 1.433 . S
C2791 N2794 1.384 . S
C2792 H2783 0.929 . S
C2792 C2784 1.378 . S
C2792 C2787 1.350 . S
C2793 H2780 0.929 . S
C2793 C2785 1.433 . S
C2793 N2795 1.384 . S
N2794 C2790 1.427 . S
N2794 C2791 1.384 . S
N2795 C2787 1.427 . S
N2795 C2793 1.384 . S
H2796 C2802 0.930 . S
H2797 C2806 0.930 . S
H2798 C2811 0.929 . S
H2799 C2809 0.929 . S
H2800 C2804 0.929 . S
H2801 C2810 0.929 . S
C2802 H2796 0.930 . S
C2802 C2803 1.367 . S
C2802 C2810 1.378 . S
C2803 C2802 1.367 . S
C2803 C2811 1.433 . S
C2804 H2800 0.929 . S
C2804 C2806 1.378 . S
C2804 C2808 1.350 . S
C2805 C2808 1.463 . S
C2805 C2810 1.350 . S
C2805 N2813 1.427 . S
C2806 H2797 0.930 . S
C2806 C2804 1.378 . S
C2806 C2807 1.367 . S
C2807 C2806 1.367 . S
C2807 C2809 1.433 . S
C2808 C2804 1.350 . S
C2808 C2805 1.463 . S
C2808 N2812 1.427 . S
C2809 H2799 0.929 . S
C2809 C2807 1.433 . S
C2809 N2812 1.384 . S
C2810 H2801 0.929 . S
C2810 C2802 1.378 . S
C2810 C2805 1.350 . S
C2811 H2798 0.929 . S
C2811 C2803 1.433 . S
C2811 N2813 1.384 . S
N2812 C2808 1.427 . S
N2812 C2809 1.384 . S
N2813 C2805 1.427 . S
N2813 C2811 1.384 . S
H2814 C2820 0.930 . S
H2815 C2824 0.930 . S
H2816 C2829 0.929 . S
H2817 C2827 0.929 . S
H2818 C2822 0.929 . S
H2819 C2828 0.929 . S
C2820 H2814 0.930 . S
C2820 C2821 1.367 . S
C2820 C2828 1.378 . S
C2821 C2820 1.367 . S
C2821 C2829 1.433 . S
C2822 H2818 0.929 . S
C2822 C2824 1.378 . S
C2822 C2826 1.350 . S
C2823 C2826 1.463 . S
C2823 C2828 1.350 . S
C2823 N2831 1.427 . S
C2824 H2815 0.930 . S
C2824 C2822 1.378 . S
C2824 C2825 1.367 . S
C2825 C2824 1.367 . S
C2825 C2827 1.433 . S
C2826 C2822 1.350 . S
C2826 C2823 1.463 . S
C2826 N2830 1.427 . S
C2827 H2817 0.929 . S
C2827 C2825 1.433 . S
C2827 N2830 1.384 . S
C2828 H2819 0.929 . S
C2828 C2820 1.378 . S
C2828 C2823 1.350 . S
C2829 H2816 0.929 . S
C2829 C2821 1.433 . S
C2829 N2831 1.384 . S
N2830 C2826 1.427 . S
N2830 C2827 1.384 . S
N2831 C2823 1.427 . S
N2831 C2829 1.384 . S
H2832 C2838 0.930 . S
H2833 C2842 0.930 . S
H2834 C2847 0.929 . S
H2835 C2845 0.929 . S
H2836 C2840 0.929 . S
H2837 C2846 0.929 . S
C2838 H2832 0.930 . S
C2838 C2839 1.367 . S
C2838 C2846 1.378 . S
C2839 C2838 1.367 . S
C2839 C2847 1.433 . S
C2840 H2836 0.929 . S
C2840 C2842 1.378 . S
C2840 C2844 1.350 . S
C2841 C2844 1.463 . S
C2841 C2846 1.350 . S
C2841 N2849 1.427 . S
C2842 H2833 0.930 . S
C2842 C2840 1.378 . S
C2842 C2843 1.367 . S
C2843 C2842 1.367 . S
C2843 C2845 1.433 . S
C2844 C2840 1.350 . S
C2844 C2841 1.463 . S
C2844 N2848 1.427 . S
C2845 H2835 0.929 . S
C2845 C2843 1.433 . S
C2845 N2848 1.384 . S
C2846 H2837 0.929 . S
C2846 C2838 1.378 . S
C2846 C2841 1.350 . S
C2847 H2834 0.929 . S
C2847 C2839 1.433 . S
C2847 N2849 1.384 . S
N2848 C2844 1.427 . S
N2848 C2845 1.384 . S
N2849 C2841 1.427 . S
N2849 C2847 1.384 . S
H2850 C2856 0.930 . S
H2851 C2860 0.930 . S
H2852 C2865 0.929 . S
H2853 C2863 0.929 . S
H2854 C2858 0.929 . S
H2855 C2864 0.929 . S
C2856 H2850 0.930 . S
C2856 C2857 1.367 . S
C2856 C2864 1.378 . S
C2857 C2856 1.367 . S
C2857 C2865 1.433 . S
C2858 H2854 0.929 . S
C2858 C2860 1.378 . S
C2858 C2862 1.350 . S
C2859 C2862 1.463 . S
C2859 C2864 1.350 . S
C2859 N2867 1.427 . S
C2860 H2851 0.930 . S
C2860 C2858 1.378 . S
C2860 C2861 1.367 . S
C2861 C2860 1.367 . S
C2861 C2863 1.433 . S
C2862 C2858 1.350 . S
C2862 C2859 1.463 . S
C2862 N2866 1.427 . S
C2863 H2853 0.929 . S
C2863 C2861 1.433 . S
C2863 N2866 1.384 . S
C2864 H2855 0.929 . S
C2864 C2856 1.378 . S
C2864 C2859 1.350 . S
C2865 H2852 0.929 . S
C2865 C2857 1.433 . S
C2865 N2867 1.384 . S
N2866 C2862 1.427 . S
N2866 C2863 1.384 . S
N2867 C2859 1.427 . S
N2867 C2865 1.384 . S
H2868 C2874 0.930 . S
H2869 C2878 0.930 . S
H2870 C2883 0.929 . S
H2871 C2881 0.929 . S
H2872 C2876 0.929 . S
H2873 C2882 0.929 . S
C2874 H2868 0.930 . S
C2874 C2875 1.367 . S
C2874 C2882 1.378 . S
C2875 C2874 1.367 . S
C2875 C2883 1.433 . S
C2876 H2872 0.929 . S
C2876 C2878 1.378 . S
C2876 C2880 1.350 . S
C2877 C2880 1.463 . S
C2877 C2882 1.350 . S
C2877 N2885 1.427 . S
C2878 H2869 0.930 . S
C2878 C2876 1.378 . S
C2878 C2879 1.367 . S
C2879 C2878 1.367 . S
C2879 C2881 1.433 . S
C2880 C2876 1.350 . S
C2880 C2877 1.463 . S
C2880 N2884 1.427 . S
C2881 H2871 0.929 . S
C2881 C2879 1.433 . S
C2881 N2884 1.384 . S
C2882 H2873 0.929 . S
C2882 C2874 1.378 . S
C2882 C2877 1.350 . S
C2883 H2870 0.929 . S
C2883 C2875 1.433 . S
C2883 N2885 1.384 . S
N2884 C2880 1.427 . S
N2884 C2881 1.384 . S
N2885 C2877 1.427 . S
N2885 C2883 1.384 . S
H2886 C2892 0.930 . S
H2887 C2896 0.930 . S
H2888 C2901 0.929 . S
H2889 C2899 0.929 . S
H2890 C2894 0.929 . S
H2891 C2900 0.929 . S
C2892 H2886 0.930 . S
C2892 C2893 1.367 . S
C2892 C2900 1.378 . S
C2893 C2892 1.367 . S
C2893 C2901 1.433 . S
C2894 H2890 0.929 . S
C2894 C2896 1.378 . S
C2894 C2898 1.350 . S
C2895 C2898 1.463 . S
C2895 C2900 1.350 . S
C2895 N2903 1.427 . S
C2896 H2887 0.930 . S
C2896 C2894 1.378 . S
C2896 C2897 1.367 . S
C2897 C2896 1.367 . S
C2897 C2899 1.433 . S
C2898 C2894 1.350 . S
C2898 C2895 1.463 . S
C2898 N2902 1.427 . S
C2899 H2889 0.929 . S
C2899 C2897 1.433 . S
C2899 N2902 1.384 . S
C2900 H2891 0.929 . S
C2900 C2892 1.378 . S
C2900 C2895 1.350 . S
C2901 H2888 0.929 . S
C2901 C2893 1.433 . S
C2901 N2903 1.384 . S
N2902 C2898 1.427 . S
N2902 C2899 1.384 . S
N2903 C2895 1.427 . S
N2903 C2901 1.384 . S
H2904 C2910 0.930 . S
H2905 C2914 0.930 . S
H2906 C2919 0.929 . S
H2907 C2917 0.929 . S
H2908 C2912 0.929 . S
H2909 C2918 0.929 . S
C2910 H2904 0.930 . S
C2910 C2911 1.367 . S
C2910 C2918 1.378 . S
C2911 C2910 1.367 . S
C2911 C2919 1.433 . S
C2912 H2908 0.929 . S
C2912 C2914 1.378 . S
C2912 C2916 1.350 . S
C2913 C2916 1.463 . S
C2913 C2918 1.350 . S
C2913 N2921 1.427 . S
C2914 H2905 0.930 . S
C2914 C2912 1.378 . S
C2914 C2915 1.367 . S
C2915 C2914 1.367 . S
C2915 C2917 1.433 . S
C2916 C2912 1.350 . S
C2916 C2913 1.463 . S
C2916 N2920 1.427 . S
C2917 H2907 0.929 . S
C2917 C2915 1.433 . S
C2917 N2920 1.384 . S
C2918 H2909 0.929 . S
C2918 C2910 1.378 . S
C2918 C2913 1.350 . S
C2919 H2906 0.929 . S
C2919 C2911 1.433 . S
C2919 N2921 1.384 . S
N2920 C2916 1.427 . S
N2920 C2917 1.384 . S
N2921 C2913 1.427 . S
N2921 C2919 1.384 . S
H2922 C2928 0.930 . S
H2923 C2932 0.930 . S
H2924 C2937 0.929 . S
H2925 C2935 0.929 . S
H2926 C2930 0.929 . S
H2927 C2936 0.929 . S
C2928 H2922 0.930 . S
C2928 C2929 1.367 . S
C2928 C2936 1.378 . S
C2929 C2928 1.367 . S
C2929 C2937 1.433 . S
C2930 H2926 0.929 . S
C2930 C2932 1.378 . S
C2930 C2934 1.350 . S
C2931 C2934 1.463 . S
C2931 C2936 1.350 . S
C2931 N2939 1.427 . S
C2932 H2923 0.930 . S
C2932 C2930 1.378 . S
C2932 C2933 1.367 . S
C2933 C2932 1.367 . S
C2933 C2935 1.433 . S
C2934 C2930 1.350 . S
C2934 C2931 1.463 . S
C2934 N2938 1.427 . S
C2935 H2925 0.929 . S
C2935 C2933 1.433 . S
C2935 N2938 1.384 . S
C2936 H2927 0.929 . S
C2936 C2928 1.378 . S
C2936 C2931 1.350 . S
C2937 H2924 0.929 . S
C2937 C2929 1.433 . S
C2937 N2939 1.384 . S
N2938 C2934 1.427 . S
N2938 C2935 1.384 . S
N2939 C2931 1.427 . S
N2939 C2937 1.384 . S
H2940 C2946 0.930 . S
H2941 C2950 0.930 . S
H2942 C2955 0.929 . S
H2943 C2953 0.929 . S
H2944 C2948 0.929 . S
H2945 C2954 0.929 . S
C2946 H2940 0.930 . S
C2946 C2947 1.367 . S
C2946 C2954 1.378 . S
C2947 C2946 1.367 . S
C2947 C2955 1.433 . S
C2948 H2944 0.929 . S
C2948 C2950 1.378 . S
C2948 C2952 1.350 . S
C2949 C2952 1.463 . S
C2949 C2954 1.350 . S
C2949 N2957 1.427 . S
C2950 H2941 0.930 . S
C2950 C2948 1.378 . S
C2950 C2951 1.367 . S
C2951 C2950 1.367 . S
C2951 C2953 1.433 . S
C2952 C2948 1.350 . S
C2952 C2949 1.463 . S
C2952 N2956 1.427 . S
C2953 H2943 0.929 . S
C2953 C2951 1.433 . S
C2953 N2956 1.384 . S
C2954 H2945 0.929 . S
C2954 C2946 1.378 . S
C2954 C2949 1.350 . S
C2955 H2942 0.929 . S
C2955 C2947 1.433 . S
C2955 N2957 1.384 . S
N2956 C2952 1.427 . S
N2956 C2953 1.384 . S
N2957 C2949 1.427 . S
N2957 C2955 1.384 . S
H2958 C2964 0.930 . S
H2959 C2968 0.930 . S
H2960 C2973 0.929 . S
H2961 C2971 0.929 . S
H2962 C2966 0.929 . S
H2963 C2972 0.929 . S
C2964 H2958 0.930 . S
C2964 C2965 1.367 . S
C2964 C2972 1.378 . S
C2965 C2964 1.367 . S
C2965 C2973 1.433 . S
C2966 H2962 0.929 . S
C2966 C2968 1.378 . S
C2966 C2970 1.350 . S
C2967 C2970 1.463 . S
C2967 C2972 1.350 . S
C2967 N2975 1.427 . S
C2968 H2959 0.930 . S
C2968 C2966 1.378 . S
C2968 C2969 1.367 . S
C2969 C2968 1.367 . S
C2969 C2971 1.433 . S
C2970 C2966 1.350 . S
C2970 C2967 1.463 . S
C2970 N2974 1.427 . S
C2971 H2961 0.929 . S
C2971 C2969 1.433 . S
C2971 N2974 1.384 . S
C2972 H2963 0.929 . S
C2972 C2964 1.378 . S
C2972 C2967 1.350 . S
C2973 H2960 0.929 . S
C2973 C2965 1.433 . S
C2973 N2975 1.384 . S
N2974 C2970 1.427 . S
N2974 C2971 1.384 . S
N2975 C2967 1.427 . S
N2975 C2973 1.384 . S
H2976 C2982 0.930 . S
H2977 C2986 0.930 . S
H2978 C2991 0.929 . S
H2979 C2989 0.929 . S
H2980 C2984 0.929 . S
H2981 C2990 0.929 . S
C2982 H2976 0.930 . S
C2982 C2983 1.367 . S
C2982 C2990 1.378 . S
C2983 C2982 1.367 . S
C2983 C2991 1.433 . S
C2984 H2980 0.929 . S
C2984 C2986 1.378 . S
C2984 C2988 1.350 . S
C2985 C2988 1.463 . S
C2985 C2990 1.350 . S
C2985 N2993 1.427 . S
C2986 H2977 0.930 . S
C2986 C2984 1.378 . S
C2986 C2987 1.367 . S
C2987 C2986 1.367 . S
C2987 C2989 1.433 . S
C2988 C2984 1.350 . S
C2988 C2985 1.463 . S
C2988 N2992 1.427 . S
C2989 H2979 0.929 . S
C2989 C2987 1.433 . S
C2989 N2992 1.384 . S
C2990 H2981 0.929 . S
C2990 C2982 1.378 . S
C2990 C2985 1.350 . S
C2991 H2978 0.929 . S
C2991 C2983 1.433 . S
C2991 N2993 1.384 . S
N2992 C2988 1.427 . S
N2992 C2989 1.384 . S
N2993 C2985 1.427 . S
N2993 C2991 1.384 . S
H2994 C3000 0.930 . S
H2995 C3004 0.930 . S
H2996 C3009 0.929 . S
H2997 C3007 0.929 . S
H2998 C3002 0.929 . S
H2999 C3008 0.929 . S
C3000 H2994 0.930 . S
C3000 C3001 1.367 . S
C3000 C3008 1.378 . S
C3001 C3000 1.367 . S
C3001 C3009 1.433 . S
C3002 H2998 0.929 . S
C3002 C3004 1.378 . S
C3002 C3006 1.350 . S
C3003 C3006 1.463 . S
C3003 C3008 1.350 . S
C3003 N3011 1.427 . S
C3004 H2995 0.930 . S
C3004 C3002 1.378 . S
C3004 C3005 1.367 . S
C3005 C3004 1.367 . S
C3005 C3007 1.433 . S
C3006 C3002 1.350 . S
C3006 C3003 1.463 . S
C3006 N3010 1.427 . S
C3007 H2997 0.929 . S
C3007 C3005 1.433 . S
C3007 N3010 1.384 . S
C3008 H2999 0.929 . S
C3008 C3000 1.378 . S
C3008 C3003 1.350 . S
C3009 H2996 0.929 . S
C3009 C3001 1.433 . S
C3009 N3011 1.384 . S
N3010 C3006 1.427 . S
N3010 C3007 1.384 . S
N3011 C3003 1.427 . S
N3011 C3009 1.384 . S
H3012 C3018 0.930 . S
H3013 C3022 0.930 . S
H3014 C3027 0.929 . S
H3015 C3025 0.929 . S
H3016 C3020 0.929 . S
H3017 C3026 0.929 . S
C3018 H3012 0.930 . S
C3018 C3019 1.367 . S
C3018 C3026 1.378 . S
C3019 C3018 1.367 . S
C3019 C3027 1.433 . S
C3020 H3016 0.929 . S
C3020 C3022 1.378 . S
C3020 C3024 1.350 . S
C3021 C3024 1.463 . S
C3021 C3026 1.350 . S
C3021 N3029 1.427 . S
C3022 H3013 0.930 . S
C3022 C3020 1.378 . S
C3022 C3023 1.367 . S
C3023 C3022 1.367 . S
C3023 C3025 1.433 . S
C3024 C3020 1.350 . S
C3024 C3021 1.463 . S
C3024 N3028 1.427 . S
C3025 H3015 0.929 . S
C3025 C3023 1.433 . S
C3025 N3028 1.384 . S
C3026 H3017 0.929 . S
C3026 C3018 1.378 . S
C3026 C3021 1.350 . S
C3027 H3014 0.929 . S
C3027 C3019 1.433 . S
C3027 N3029 1.384 . S
N3028 C3024 1.427 . S
N3028 C3025 1.384 . S
N3029 C3021 1.427 . S
N3029 C3027 1.384 . S
H3030 C3036 0.930 . S
H3031 C3040 0.930 . S
H3032 C3045 0.929 . S
H3033 C3043 0.929 . S
H3034 C3038 0.929 . S
H3035 C3044 0.929 . S
C3036 H3030 0.930 . S
C3036 C3037 1.367 . S
C3036 C3044 1.378 . S
C3037 C3036 1.367 . S
C3037 C3045 1.433 . S
C3038 H3034 0.929 . S
C3038 C3040 1.378 . S
C3038 C3042 1.350 . S
C3039 C3042 1.463 . S
C3039 C3044 1.350 . S
C3039 N3047 1.427 . S
C3040 H3031 0.930 . S
C3040 C3038 1.378 . S
C3040 C3041 1.367 . S
C3041 C3040 1.367 . S
C3041 C3043 1.433 . S
C3042 C3038 1.350 . S
C3042 C3039 1.463 . S
C3042 N3046 1.427 . S
C3043 H3033 0.929 . S
C3043 C3041 1.433 . S
C3043 N3046 1.384 . S
C3044 H3035 0.929 . S
C3044 C3036 1.378 . S
C3044 C3039 1.350 . S
C3045 H3032 0.929 . S
C3045 C3037 1.433 . S
C3045 N3047 1.384 . S
N3046 C3042 1.427 . S
N3046 C3043 1.384 . S
N3047 C3039 1.427 . S
N3047 C3045 1.384 . S
H3048 C3054 0.930 . S
H3049 C3058 0.930 . S
H3050 C3063 0.929 . S
H3051 C3061 0.929 . S
H3052 C3056 0.929 . S
H3053 C3062 0.929 . S
C3054 H3048 0.930 . S
C3054 C3055 1.367 . S
C3054 C3062 1.378 . S
C3055 C3054 1.367 . S
C3055 C3063 1.433 . S
C3056 H3052 0.929 . S
C3056 C3058 1.378 . S
C3056 C3060 1.350 . S
C3057 C3060 1.463 . S
C3057 C3062 1.350 . S
C3057 N3065 1.427 . S
C3058 H3049 0.930 . S
C3058 C3056 1.378 . S
C3058 C3059 1.367 . S
C3059 C3058 1.367 . S
C3059 C3061 1.433 . S
C3060 C3056 1.350 . S
C3060 C3057 1.463 . S
C3060 N3064 1.427 . S
C3061 H3051 0.929 . S
C3061 C3059 1.433 . S
C3061 N3064 1.384 . S
C3062 H3053 0.929 . S
C3062 C3054 1.378 . S
C3062 C3057 1.350 . S
C3063 H3050 0.929 . S
C3063 C3055 1.433 . S
C3063 N3065 1.384 . S
N3064 C3060 1.427 . S
N3064 C3061 1.384 . S
N3065 C3057 1.427 . S
N3065 C3063 1.384 . S
H3066 C3072 0.930 . S
H3067 C3076 0.930 . S
H3068 C3081 0.929 . S
H3069 C3079 0.929 . S
H3070 C3074 0.929 . S
H3071 C3080 0.929 . S
C3072 H3066 0.930 . S
C3072 C3073 1.367 . S
C3072 C3080 1.378 . S
C3073 C3072 1.367 . S
C3073 C3081 1.433 . S
C3074 H3070 0.929 . S
C3074 C3076 1.378 . S
C3074 C3078 1.350 . S
C3075 C3078 1.463 . S
C3075 C3080 1.350 . S
C3075 N3083 1.427 . S
C3076 H3067 0.930 . S
C3076 C3074 1.378 . S
C3076 C3077 1.367 . S
C3077 C3076 1.367 . S
C3077 C3079 1.433 . S
C3078 C3074 1.350 . S
C3078 C3075 1.463 . S
C3078 N3082 1.427 . S
C3079 H3069 0.929 . S
C3079 C3077 1.433 . S
C3079 N3082 1.384 . S
C3080 H3071 0.929 . S
C3080 C3072 1.378 . S
C3080 C3075 1.350 . S
C3081 H3068 0.929 . S
C3081 C3073 1.433 . S
C3081 N3083 1.384 . S
N3082 C3078 1.427 . S
N3082 C3079 1.384 . S
N3083 C3075 1.427 . S
N3083 C3081 1.384 . S
H3084 C3090 0.930 . S
H3085 C3094 0.930 . S
H3086 C3099 0.929 . S
H3087 C3097 0.929 . S
H3088 C3092 0.929 . S
H3089 C3098 0.929 . S
C3090 H3084 0.930 . S
C3090 C3091 1.367 . S
C3090 C3098 1.378 . S
C3091 C3090 1.367 . S
C3091 C3099 1.433 . S
C3092 H3088 0.929 . S
C3092 C3094 1.378 . S
C3092 C3096 1.350 . S
C3093 C3096 1.463 . S
C3093 C3098 1.350 . S
C3093 N3101 1.427 . S
C3094 H3085 0.930 . S
C3094 C3092 1.378 . S
C3094 C3095 1.367 . S
C3095 C3094 1.367 . S
C3095 C3097 1.433 . S
C3096 C3092 1.350 . S
C3096 C3093 1.463 . S
C3096 N3100 1.427 . S
C3097 H3087 0.929 . S
C3097 C3095 1.433 . S
C3097 N3100 1.384 . S
C3098 H3089 0.929 . S
C3098 C3090 1.378 . S
C3098 C3093 1.350 . S
C3099 H3086 0.929 . S
C3099 C3091 1.433 . S
C3099 N3101 1.384 . S
N3100 C3096 1.427 . S
N3100 C3097 1.384 . S
N3101 C3093 1.427 . S
N3101 C3099 1.384 . S
H3102 C3108 0.930 . S
H3103 C3112 0.930 . S
H3104 C3117 0.929 . S
H3105 C3115 0.929 . S
H3106 C3110 0.929 . S
H3107 C3116 0.929 . S
C3108 H3102 0.930 . S
C3108 C3109 1.367 . S
C3108 C3116 1.378 . S
C3109 C3108 1.367 . S
C3109 C3117 1.433 . S
C3110 H3106 0.929 . S
C3110 C3112 1.378 . S
C3110 C3114 1.350 . S
C3111 C3114 1.463 . S
C3111 C3116 1.350 . S
C3111 N3119 1.427 . S
C3112 H3103 0.930 . S
C3112 C3110 1.378 . S
C3112 C3113 1.367 . S
C3113 C3112 1.367 . S
C3113 C3115 1.433 . S
C3114 C3110 1.350 . S
C3114 C3111 1.463 . S
C3114 N3118 1.427 . S
C3115 H3105 0.929 . S
C3115 C3113 1.433 . S
C3115 N3118 1.384 . S
C3116 H3107 0.929 . S
C3116 C3108 1.378 . S
C3116 C3111 1.350 . S
C3117 H3104 0.929 . S
C3117 C3109 1.433 . S
C3117 N3119 1.384 . S
N3118 C3114 1.427 . S
N3118 C3115 1.384 . S
N3119 C3111 1.427 . S
N3119 C3117 1.384 . S
H3120 C3126 0.930 . S
H3121 C3130 0.930 . S
H3122 C3135 0.929 . S
H3123 C3133 0.929 . S
H3124 C3128 0.929 . S
H3125 C3134 0.929 . S
C3126 H3120 0.930 . S
C3126 C3127 1.367 . S
C3126 C3134 1.378 . S
C3127 C3126 1.367 . S
C3127 C3135 1.433 . S
C3128 H3124 0.929 . S
C3128 C3130 1.378 . S
C3128 C3132 1.350 . S
C3129 C3132 1.463 . S
C3129 C3134 1.350 . S
C3129 N3137 1.427 . S
C3130 H3121 0.930 . S
C3130 C3128 1.378 . S
C3130 C3131 1.367 . S
C3131 C3130 1.367 . S
C3131 C3133 1.433 . S
C3132 C3128 1.350 . S
C3132 C3129 1.463 . S
C3132 N3136 1.427 . S
C3133 H3123 0.929 . S
C3133 C3131 1.433 . S
C3133 N3136 1.384 . S
C3134 H3125 0.929 . S
C3134 C3126 1.378 . S
C3134 C3129 1.350 . S
C3135 H3122 0.929 . S
C3135 C3127 1.433 . S
C3135 N3137 1.384 . S
N3136 C3132 1.427 . S
N3136 C3133 1.384 . S
N3137 C3129 1.427 . S
N3137 C3135 1.384 . S
H3138 C3144 0.930 . S
H3139 C3148 0.930 . S
H3140 C3153 0.929 . S
H3141 C3151 0.929 . S
H3142 C3146 0.929 . S
H3143 C3152 0.929 . S
C3144 H3138 0.930 . S
C3144 C3145 1.367 . S
C3144 C3152 1.378 . S
C3145 C3144 1.367 . S
C3145 C3153 1.433 . S
C3146 H3142 0.929 . S
C3146 C3148 1.378 . S
C3146 C3150 1.350 . S
C3147 C3150 1.463 . S
C3147 C3152 1.350 . S
C3147 N3155 1.427 . S
C3148 H3139 0.930 . S
C3148 C3146 1.378 . S
C3148 C3149 1.367 . S
C3149 C3148 1.367 . S
C3149 C3151 1.433 . S
C3150 C3146 1.350 . S
C3150 C3147 1.463 . S
C3150 N3154 1.427 . S
C3151 H3141 0.929 . S
C3151 C3149 1.433 . S
C3151 N3154 1.384 . S
C3152 H3143 0.929 . S
C3152 C3144 1.378 . S
C3152 C3147 1.350 . S
C3153 H3140 0.929 . S
C3153 C3145 1.433 . S
C3153 N3155 1.384 . S
N3154 C3150 1.427 . S
N3154 C3151 1.384 . S
N3155 C3147 1.427 . S
N3155 C3153 1.384 . S
H3156 C3162 0.930 . S
H3157 C3166 0.930 . S
H3158 C3171 0.929 . S
H3159 C3169 0.929 . S
H3160 C3164 0.929 . S
H3161 C3170 0.929 . S
C3162 H3156 0.930 . S
C3162 C3163 1.367 . S
C3162 C3170 1.378 . S
C3163 C3162 1.367 . S
C3163 C3171 1.433 . S
C3164 H3160 0.929 . S
C3164 C3166 1.378 . S
C3164 C3168 1.350 . S
C3165 C3168 1.463 . S
C3165 C3170 1.350 . S
C3165 N3173 1.427 . S
C3166 H3157 0.930 . S
C3166 C3164 1.378 . S
C3166 C3167 1.367 . S
C3167 C3166 1.367 . S
C3167 C3169 1.433 . S
C3168 C3164 1.350 . S
C3168 C3165 1.463 . S
C3168 N3172 1.427 . S
C3169 H3159 0.929 . S
C3169 C3167 1.433 . S
C3169 N3172 1.384 . S
C3170 H3161 0.929 . S
C3170 C3162 1.378 . S
C3170 C3165 1.350 . S
C3171 H3158 0.929 . S
C3171 C3163 1.433 . S
C3171 N3173 1.384 . S
N3172 C3168 1.427 . S
N3172 C3169 1.384 . S
N3173 C3165 1.427 . S
N3173 C3171 1.384 . S
H3174 C3180 0.930 . S
H3175 C3184 0.930 . S
H3176 C3189 0.929 . S
H3177 C3187 0.929 . S
H3178 C3182 0.929 . S
H3179 C3188 0.929 . S
C3180 H3174 0.930 . S
C3180 C3181 1.367 . S
C3180 C3188 1.378 . S
C3181 C3180 1.367 . S
C3181 C3189 1.433 . S
C3182 H3178 0.929 . S
C3182 C3184 1.378 . S
C3182 C3186 1.350 . S
C3183 C3186 1.463 . S
C3183 C3188 1.350 . S
C3183 N3191 1.427 . S
C3184 H3175 0.930 . S
C3184 C3182 1.378 . S
C3184 C3185 1.367 . S
C3185 C3184 1.367 . S
C3185 C3187 1.433 . S
C3186 C3182 1.350 . S
C3186 C3183 1.463 . S
C3186 N3190 1.427 . S
C3187 H3177 0.929 . S
C3187 C3185 1.433 . S
C3187 N3190 1.384 . S
C3188 H3179 0.929 . S
C3188 C3180 1.378 . S
C3188 C3183 1.350 . S
C3189 H3176 0.929 . S
C3189 C3181 1.433 . S
C3189 N3191 1.384 . S
N3190 C3186 1.427 . S
N3190 C3187 1.384 . S
N3191 C3183 1.427 . S
N3191 C3189 1.384 . S
H3192 C3198 0.930 . S
H3193 C3202 0.930 . S
H3194 C3207 0.929 . S
H3195 C3205 0.929 . S
H3196 C3200 0.929 . S
H3197 C3206 0.929 . S
C3198 H3192 0.930 . S
C3198 C3199 1.367 . S
C3198 C3206 1.378 . S
C3199 C3198 1.367 . S
C3199 C3207 1.433 . S
C3200 H3196 0.929 . S
C3200 C3202 1.378 . S
C3200 C3204 1.350 . S
C3201 C3204 1.463 . S
C3201 C3206 1.350 . S
C3201 N3209 1.427 . S
C3202 H3193 0.930 . S
C3202 C3200 1.378 . S
C3202 C3203 1.367 . S
C3203 C3202 1.367 . S
C3203 C3205 1.433 . S
C3204 C3200 1.350 . S
C3204 C3201 1.463 . S
C3204 N3208 1.427 . S
C3205 H3195 0.929 . S
C3205 C3203 1.433 . S
C3205 N3208 1.384 . S
C3206 H3197 0.929 . S
C3206 C3198 1.378 . S
C3206 C3201 1.350 . S
C3207 H3194 0.929 . S
C3207 C3199 1.433 . S
C3207 N3209 1.384 . S
N3208 C3204 1.427 . S
N3208 C3205 1.384 . S
N3209 C3201 1.427 . S
N3209 C3207 1.384 . S
H3210 C3216 0.930 . S
H3211 C3220 0.930 . S
H3212 C3225 0.929 . S
H3213 C3223 0.929 . S
H3214 C3218 0.929 . S
H3215 C3224 0.929 . S
C3216 H3210 0.930 . S
C3216 C3217 1.367 . S
C3216 C3224 1.378 . S
C3217 C3216 1.367 . S
C3217 C3225 1.433 . S
C3218 H3214 0.929 . S
C3218 C3220 1.378 . S
C3218 C3222 1.350 . S
C3219 C3222 1.463 . S
C3219 C3224 1.350 . S
C3219 N3227 1.427 . S
C3220 H3211 0.930 . S
C3220 C3218 1.378 . S
C3220 C3221 1.367 . S
C3221 C3220 1.367 . S
C3221 C3223 1.433 . S
C3222 C3218 1.350 . S
C3222 C3219 1.463 . S
C3222 N3226 1.427 . S
C3223 H3213 0.929 . S
C3223 C3221 1.433 . S
C3223 N3226 1.384 . S
C3224 H3215 0.929 . S
C3224 C3216 1.378 . S
C3224 C3219 1.350 . S
C3225 H3212 0.929 . S
C3225 C3217 1.433 . S
C3225 N3227 1.384 . S
N3226 C3222 1.427 . S
N3226 C3223 1.384 . S
N3227 C3219 1.427 . S
N3227 C3225 1.384 . S
H3228 C3234 0.930 . S
H3229 C3238 0.930 . S
H3230 C3243 0.929 . S
H3231 C3241 0.929 . S
H3232 C3236 0.929 . S
H3233 C3242 0.929 . S
C3234 H3228 0.930 . S
C3234 C3235 1.367 . S
C3234 C3242 1.378 . S
C3235 C3234 1.367 . S
C3235 C3243 1.433 . S
C3236 H3232 0.929 . S
C3236 C3238 1.378 . S
C3236 C3240 1.350 . S
C3237 C3240 1.463 . S
C3237 C3242 1.350 . S
C3237 N3245 1.427 . S
C3238 H3229 0.930 . S
C3238 C3236 1.378 . S
C3238 C3239 1.367 . S
C3239 C3238 1.367 . S
C3239 C3241 1.433 . S
C3240 C3236 1.350 . S
C3240 C3237 1.463 . S
C3240 N3244 1.427 . S
C3241 H3231 0.929 . S
C3241 C3239 1.433 . S
C3241 N3244 1.384 . S
C3242 H3233 0.929 . S
C3242 C3234 1.378 . S
C3242 C3237 1.350 . S
C3243 H3230 0.929 . S
C3243 C3235 1.433 . S
C3243 N3245 1.384 . S
N3244 C3240 1.427 . S
N3244 C3241 1.384 . S
N3245 C3237 1.427 . S
N3245 C3243 1.384 . S
H3246 C3252 0.930 . S
H3247 C3256 0.930 . S
H3248 C3261 0.929 . S
H3249 C3259 0.929 . S
H3250 C3254 0.929 . S
H3251 C3260 0.929 . S
C3252 H3246 0.930 . S
C3252 C3253 1.367 . S
C3252 C3260 1.378 . S
C3253 C3252 1.367 . S
C3253 C3261 1.433 . S
C3254 H3250 0.929 . S
C3254 C3256 1.378 . S
C3254 C3258 1.350 . S
C3255 C3258 1.463 . S
C3255 C3260 1.350 . S
C3255 N3263 1.427 . S
C3256 H3247 0.930 . S
C3256 C3254 1.378 . S
C3256 C3257 1.367 . S
C3257 C3256 1.367 . S
C3257 C3259 1.433 . S
C3258 C3254 1.350 . S
C3258 C3255 1.463 . S
C3258 N3262 1.427 . S
C3259 H3249 0.929 . S
C3259 C3257 1.433 . S
C3259 N3262 1.384 . S
C3260 H3251 0.929 . S
C3260 C3252 1.378 . S
C3260 C3255 1.350 . S
C3261 H3248 0.929 . S
C3261 C3253 1.433 . S
C3261 N3263 1.384 . S
N3262 C3258 1.427 . S
N3262 C3259 1.384 . S
N3263 C3255 1.427 . S
N3263 C3261 1.384 . S
H3264 C3270 0.930 . S
H3265 C3274 0.930 . S
H3266 C3279 0.929 . S
H3267 C3277 0.929 . S
H3268 C3272 0.929 . S
H3269 C3278 0.929 . S
C3270 H3264 0.930 . S
C3270 C3271 1.367 . S
C3270 C3278 1.378 . S
C3271 C3270 1.367 . S
C3271 C3279 1.433 . S
C3272 H3268 0.929 . S
C3272 C3274 1.378 . S
C3272 C3276 1.350 . S
C3273 C3276 1.463 . S
C3273 C3278 1.350 . S
C3273 N3281 1.427 . S
C3274 H3265 0.930 . S
C3274 C3272 1.378 . S
C3274 C3275 1.367 . S
C3275 C3274 1.367 . S
C3275 C3277 1.433 . S
C3276 C3272 1.350 . S
C3276 C3273 1.463 . S
C3276 N3280 1.427 . S
C3277 H3267 0.929 . S
C3277 C3275 1.433 . S
C3277 N3280 1.384 . S
C3278 H3269 0.929 . S
C3278 C3270 1.378 . S
C3278 C3273 1.350 . S
C3279 H3266 0.929 . S
C3279 C3271 1.433 . S
C3279 N3281 1.384 . S
N3280 C3276 1.427 . S
N3280 C3277 1.384 . S
N3281 C3273 1.427 . S
N3281 C3279 1.384 . S
H3282 C3288 0.930 . S
H3283 C3292 0.930 . S
H3284 C3297 0.929 . S
H3285 C3295 0.929 . S
H3286 C3290 0.929 . S
H3287 C3296 0.929 . S
C3288 H3282 0.930 . S
C3288 C3289 1.367 . S
C3288 C3296 1.378 . S
C3289 C3288 1.367 . S
C3289 C3297 1.433 . S
C3290 H3286 0.929 . S
C3290 C3292 1.378 . S
C3290 C3294 1.350 . S
C3291 C3294 1.463 . S
C3291 C3296 1.350 . S
C3291 N3299 1.427 . S
C3292 H3283 0.930 . S
C3292 C3290 1.378 . S
C3292 C3293 1.367 . S
C3293 C3292 1.367 . S
C3293 C3295 1.433 . S
C3294 C3290 1.350 . S
C3294 C3291 1.463 . S
C3294 N3298 1.427 . S
C3295 H3285 0.929 . S
C3295 C3293 1.433 . S
C3295 N3298 1.384 . S
C3296 H3287 0.929 . S
C3296 C3288 1.378 . S
C3296 C3291 1.350 . S
C3297 H3284 0.929 . S
C3297 C3289 1.433 . S
C3297 N3299 1.384 . S
N3298 C3294 1.427 . S
N3298 C3295 1.384 . S
N3299 C3291 1.427 . S
N3299 C3297 1.384 . S
H3300 C3306 0.930 . S
H3301 C3310 0.930 . S
H3302 C3315 0.929 . S
H3303 C3313 0.929 . S
H3304 C3308 0.929 . S
H3305 C3314 0.929 . S
C3306 H3300 0.930 . S
C3306 C3307 1.367 . S
C3306 C3314 1.378 . S
C3307 C3306 1.367 . S
C3307 C3315 1.433 . S
C3308 H3304 0.929 . S
C3308 C3310 1.378 . S
C3308 C3312 1.350 . S
C3309 C3312 1.463 . S
C3309 C3314 1.350 . S
C3309 N3317 1.427 . S
C3310 H3301 0.930 . S
C3310 C3308 1.378 . S
C3310 C3311 1.367 . S
C3311 C3310 1.367 . S
C3311 C3313 1.433 . S
C3312 C3308 1.350 . S
C3312 C3309 1.463 . S
C3312 N3316 1.427 . S
C3313 H3303 0.929 . S
C3313 C3311 1.433 . S
C3313 N3316 1.384 . S
C3314 H3305 0.929 . S
C3314 C3306 1.378 . S
C3314 C3309 1.350 . S
C3315 H3302 0.929 . S
C3315 C3307 1.433 . S
C3315 N3317 1.384 . S
N3316 C3312 1.427 . S
N3316 C3313 1.384 . S
N3317 C3309 1.427 . S
N3317 C3315 1.384 . S
H3318 C3324 0.930 . S
H3319 C3328 0.930 . S
H3320 C3333 0.929 . S
H3321 C3331 0.929 . S
H3322 C3326 0.929 . S
H3323 C3332 0.929 . S
C3324 H3318 0.930 . S
C3324 C3325 1.367 . S
C3324 C3332 1.378 . S
C3325 C3324 1.367 . S
C3325 C3333 1.433 . S
C3326 H3322 0.929 . S
C3326 C3328 1.378 . S
C3326 C3330 1.350 . S
C3327 C3330 1.463 . S
C3327 C3332 1.350 . S
C3327 N3335 1.427 . S
C3328 H3319 0.930 . S
C3328 C3326 1.378 . S
C3328 C3329 1.367 . S
C3329 C3328 1.367 . S
C3329 C3331 1.433 . S
C3330 C3326 1.350 . S
C3330 C3327 1.463 . S
C3330 N3334 1.427 . S
C3331 H3321 0.929 . S
C3331 C3329 1.433 . S
C3331 N3334 1.384 . S
C3332 H3323 0.929 . S
C3332 C3324 1.378 . S
C3332 C3327 1.350 . S
C3333 H3320 0.929 . S
C3333 C3325 1.433 . S
C3333 N3335 1.384 . S
N3334 C3330 1.427 . S
N3334 C3331 1.384 . S
N3335 C3327 1.427 . S
N3335 C3333 1.384 . S
H3336 C3342 0.930 . S
H3337 C3346 0.930 . S
H3338 C3351 0.929 . S
H3339 C3349 0.929 . S
H3340 C3344 0.929 . S
H3341 C3350 0.929 . S
C3342 H3336 0.930 . S
C3342 C3343 1.367 . S
C3342 C3350 1.378 . S
C3343 C3342 1.367 . S
C3343 C3351 1.433 . S
C3344 H3340 0.929 . S
C3344 C3346 1.378 . S
C3344 C3348 1.350 . S
C3345 C3348 1.463 . S
C3345 C3350 1.350 . S
C3345 N3353 1.427 . S
C3346 H3337 0.930 . S
C3346 C3344 1.378 . S
C3346 C3347 1.367 . S
C3347 C3346 1.367 . S
C3347 C3349 1.433 . S
C3348 C3344 1.350 . S
C3348 C3345 1.463 . S
C3348 N3352 1.427 . S
C3349 H3339 0.929 . S
C3349 C3347 1.433 . S
C3349 N3352 1.384 . S
C3350 H3341 0.929 . S
C3350 C3342 1.378 . S
C3350 C3345 1.350 . S
C3351 H3338 0.929 . S
C3351 C3343 1.433 . S
C3351 N3353 1.384 . S
N3352 C3348 1.427 . S
N3352 C3349 1.384 . S
N3353 C3345 1.427 . S
N3353 C3351 1.384 . S
H3354 C3360 0.930 . S
H3355 C3364 0.930 . S
H3356 C3369 0.929 . S
H3357 C3367 0.929 . S
H3358 C3362 0.929 . S
H3359 C3368 0.929 . S
C3360 H3354 0.930 . S
C3360 C3361 1.367 . S
C3360 C3368 1.378 . S
C3361 C3360 1.367 . S
C3361 C3369 1.433 . S
C3362 H3358 0.929 . S
C3362 C3364 1.378 . S
C3362 C3366 1.350 . S
C3363 C3366 1.463 . S
C3363 C3368 1.350 . S
C3363 N3371 1.427 . S
C3364 H3355 0.930 . S
C3364 C3362 1.378 . S
C3364 C3365 1.367 . S
C3365 C3364 1.367 . S
C3365 C3367 1.433 . S
C3366 C3362 1.350 . S
C3366 C3363 1.463 . S
C3366 N3370 1.427 . S
C3367 H3357 0.929 . S
C3367 C3365 1.433 . S
C3367 N3370 1.384 . S
C3368 H3359 0.929 . S
C3368 C3360 1.378 . S
C3368 C3363 1.350 . S
C3369 H3356 0.929 . S
C3369 C3361 1.433 . S
C3369 N3371 1.384 . S
N3370 C3366 1.427 . S
N3370 C3367 1.384 . S
N3371 C3363 1.427 . S
N3371 C3369 1.384 . S
H3372 C3378 0.930 . S
H3373 C3382 0.930 . S
H3374 C3387 0.929 . S
H3375 C3385 0.929 . S
H3376 C3380 0.929 . S
H3377 C3386 0.929 . S
C3378 H3372 0.930 . S
C3378 C3379 1.367 . S
C3378 C3386 1.378 . S
C3379 C3378 1.367 . S
C3379 C3387 1.433 . S
C3380 H3376 0.929 . S
C3380 C3382 1.378 . S
C3380 C3384 1.350 . S
C3381 C3384 1.463 . S
C3381 C3386 1.350 . S
C3381 N3389 1.427 . S
C3382 H3373 0.930 . S
C3382 C3380 1.378 . S
C3382 C3383 1.367 . S
C3383 C3382 1.367 . S
C3383 C3385 1.433 . S
C3384 C3380 1.350 . S
C3384 C3381 1.463 . S
C3384 N3388 1.427 . S
C3385 H3375 0.929 . S
C3385 C3383 1.433 . S
C3385 N3388 1.384 . S
C3386 H3377 0.929 . S
C3386 C3378 1.378 . S
C3386 C3381 1.350 . S
C3387 H3374 0.929 . S
C3387 C3379 1.433 . S
C3387 N3389 1.384 . S
N3388 C3384 1.427 . S
N3388 C3385 1.384 . S
N3389 C3381 1.427 . S
N3389 C3387 1.384 . S
H3390 C3396 0.930 . S
H3391 C3400 0.930 . S
H3392 C3405 0.929 . S
H3393 C3403 0.929 . S
H3394 C3398 0.929 . S
H3395 C3404 0.929 . S
C3396 H3390 0.930 . S
C3396 C3397 1.367 . S
C3396 C3404 1.378 . S
C3397 C3396 1.367 . S
C3397 C3405 1.433 . S
C3398 H3394 0.929 . S
C3398 C3400 1.378 . S
C3398 C3402 1.350 . S
C3399 C3402 1.463 . S
C3399 C3404 1.350 . S
C3399 N3407 1.427 . S
C3400 H3391 0.930 . S
C3400 C3398 1.378 . S
C3400 C3401 1.367 . S
C3401 C3400 1.367 . S
C3401 C3403 1.433 . S
C3402 C3398 1.350 . S
C3402 C3399 1.463 . S
C3402 N3406 1.427 . S
C3403 H3393 0.929 . S
C3403 C3401 1.433 . S
C3403 N3406 1.384 . S
C3404 H3395 0.929 . S
C3404 C3396 1.378 . S
C3404 C3399 1.350 . S
C3405 H3392 0.929 . S
C3405 C3397 1.433 . S
C3405 N3407 1.384 . S
N3406 C3402 1.427 . S
N3406 C3403 1.384 . S
N3407 C3399 1.427 . S
N3407 C3405 1.384 . S
H3408 C3414 0.930 . S
H3409 C3418 0.930 . S
H3410 C3423 0.929 . S
H3411 C3421 0.929 . S
H3412 C3416 0.929 . S
H3413 C3422 0.929 . S
C3414 H3408 0.930 . S
C3414 C3415 1.367 . S
C3414 C3422 1.378 . S
C3415 C3414 1.367 . S
C3415 C3423 1.433 . S
C3416 H3412 0.929 . S
C3416 C3418 1.378 . S
C3416 C3420 1.350 . S
C3417 C3420 1.463 . S
C3417 C3422 1.350 . S
C3417 N3425 1.427 . S
C3418 H3409 0.930 . S
C3418 C3416 1.378 . S
C3418 C3419 1.367 . S
C3419 C3418 1.367 . S
C3419 C3421 1.433 . S
C3420 C3416 1.350 . S
C3420 C3417 1.463 . S
C3420 N3424 1.427 . S
C3421 H3411 0.929 . S
C3421 C3419 1.433 . S
C3421 N3424 1.384 . S
C3422 H3413 0.929 . S
C3422 C3414 1.378 . S
C3422 C3417 1.350 . S
C3423 H3410 0.929 . S
C3423 C3415 1.433 . S
C3423 N3425 1.384 . S
N3424 C3420 1.427 . S
N3424 C3421 1.384 . S
N3425 C3417 1.427 . S
N3425 C3423 1.384 . S
H3426 C3432 0.930 . S
H3427 C3436 0.930 . S
H3428 C3441 0.929 . S
H3429 C3439 0.929 . S
H3430 C3434 0.929 . S
H3431 C3440 0.929 . S
C3432 H3426 0.930 . S
C3432 C3433 1.367 . S
C3432 C3440 1.378 . S
C3433 C3432 1.367 . S
C3433 C3441 1.433 . S
C3434 H3430 0.929 . S
C3434 C3436 1.378 . S
C3434 C3438 1.350 . S
C3435 C3438 1.463 . S
C3435 C3440 1.350 . S
C3435 N3443 1.427 . S
C3436 H3427 0.930 . S
C3436 C3434 1.378 . S
C3436 C3437 1.367 . S
C3437 C3436 1.367 . S
C3437 C3439 1.433 . S
C3438 C3434 1.350 . S
C3438 C3435 1.463 . S
C3438 N3442 1.427 . S
C3439 H3429 0.929 . S
C3439 C3437 1.433 . S
C3439 N3442 1.384 . S
C3440 H3431 0.929 . S
C3440 C3432 1.378 . S
C3440 C3435 1.350 . S
C3441 H3428 0.929 . S
C3441 C3433 1.433 . S
C3441 N3443 1.384 . S
N3442 C3438 1.427 . S
N3442 C3439 1.384 . S
N3443 C3435 1.427 . S
N3443 C3441 1.384 . S
H3444 C3450 0.930 . S
H3445 C3454 0.930 . S
H3446 C3459 0.929 . S
H3447 C3457 0.929 . S
H3448 C3452 0.929 . S
H3449 C3458 0.929 . S
C3450 H3444 0.930 . S
C3450 C3451 1.367 . S
C3450 C3458 1.378 . S
C3451 C3450 1.367 . S
C3451 C3459 1.433 . S
C3452 H3448 0.929 . S
C3452 C3454 1.378 . S
C3452 C3456 1.350 . S
C3453 C3456 1.463 . S
C3453 C3458 1.350 . S
C3453 N3461 1.427 . S
C3454 H3445 0.930 . S
C3454 C3452 1.378 . S
C3454 C3455 1.367 . S
C3455 C3454 1.367 . S
C3455 C3457 1.433 . S
C3456 C3452 1.350 . S
C3456 C3453 1.463 . S
C3456 N3460 1.427 . S
C3457 H3447 0.929 . S
C3457 C3455 1.433 . S
C3457 N3460 1.384 . S
C3458 H3449 0.929 . S
C3458 C3450 1.378 . S
C3458 C3453 1.350 . S
C3459 H3446 0.929 . S
C3459 C3451 1.433 . S
C3459 N3461 1.384 . S
N3460 C3456 1.427 . S
N3460 C3457 1.384 . S
N3461 C3453 1.427 . S
N3461 C3459 1.384 . S
H3462 C3468 0.930 . S
H3463 C3472 0.930 . S
H3464 C3477 0.929 . S
H3465 C3475 0.929 . S
H3466 C3470 0.929 . S
H3467 C3476 0.929 . S
C3468 H3462 0.930 . S
C3468 C3469 1.367 . S
C3468 C3476 1.378 . S
C3469 C3468 1.367 . S
C3469 C3477 1.433 . S
C3470 H3466 0.929 . S
C3470 C3472 1.378 . S
C3470 C3474 1.350 . S
C3471 C3474 1.463 . S
C3471 C3476 1.350 . S
C3471 N3479 1.427 . S
C3472 H3463 0.930 . S
C3472 C3470 1.378 . S
C3472 C3473 1.367 . S
C3473 C3472 1.367 . S
C3473 C3475 1.433 . S
C3474 C3470 1.350 . S
C3474 C3471 1.463 . S
C3474 N3478 1.427 . S
C3475 H3465 0.929 . S
C3475 C3473 1.433 . S
C3475 N3478 1.384 . S
C3476 H3467 0.929 . S
C3476 C3468 1.378 . S
C3476 C3471 1.350 . S
C3477 H3464 0.929 . S
C3477 C3469 1.433 . S
C3477 N3479 1.384 . S
N3478 C3474 1.427 . S
N3478 C3475 1.384 . S
N3479 C3471 1.427 . S
N3479 C3477 1.384 . S
H3480 C3486 0.930 . S
H3481 C3490 0.930 . S
H3482 C3495 0.929 . S
H3483 C3493 0.929 . S
H3484 C3488 0.929 . S
H3485 C3494 0.929 . S
C3486 H3480 0.930 . S
C3486 C3487 1.367 . S
C3486 C3494 1.378 . S
C3487 C3486 1.367 . S
C3487 C3495 1.433 . S
C3488 H3484 0.929 . S
C3488 C3490 1.378 . S
C3488 C3492 1.350 . S
C3489 C3492 1.463 . S
C3489 C3494 1.350 . S
C3489 N3497 1.427 . S
C3490 H3481 0.930 . S
C3490 C3488 1.378 . S
C3490 C3491 1.367 . S
C3491 C3490 1.367 . S
C3491 C3493 1.433 . S
C3492 C3488 1.350 . S
C3492 C3489 1.463 . S
C3492 N3496 1.427 . S
C3493 H3483 0.929 . S
C3493 C3491 1.433 . S
C3493 N3496 1.384 . S
C3494 H3485 0.929 . S
C3494 C3486 1.378 . S
C3494 C3489 1.350 . S
C3495 H3482 0.929 . S
C3495 C3487 1.433 . S
C3495 N3497 1.384 . S
N3496 C3492 1.427 . S
N3496 C3493 1.384 . S
N3497 C3489 1.427 . S
N3497 C3495 1.384 . S
H3498 C3504 0.930 . S
H3499 C3508 0.930 . S
H3500 C3513 0.929 . S
H3501 C3511 0.929 . S
H3502 C3506 0.929 . S
H3503 C3512 0.929 . S
C3504 H3498 0.930 . S
C3504 C3505 1.367 . S
C3504 C3512 1.378 . S
C3505 C3504 1.367 . S
C3505 C3513 1.433 . S
C3506 H3502 0.929 . S
C3506 C3508 1.378 . S
C3506 C3510 1.350 . S
C3507 C3510 1.463 . S
C3507 C3512 1.350 . S
C3507 N3515 1.427 . S
C3508 H3499 0.930 . S
C3508 C3506 1.378 . S
C3508 C3509 1.367 . S
C3509 C3508 1.367 . S
C3509 C3511 1.433 . S
C3510 C3506 1.350 . S
C3510 C3507 1.463 . S
C3510 N3514 1.427 . S
C3511 H3501 0.929 . S
C3511 C3509 1.433 . S
C3511 N3514 1.384 . S
C3512 H3503 0.929 . S
C3512 C3504 1.378 . S
C3512 C3507 1.350 . S
C3513 H3500 0.929 . S
C3513 C3505 1.433 . S
C3513 N3515 1.384 . S
N3514 C3510 1.427 . S
N3514 C3511 1.384 . S
N3515 C3507 1.427 . S
N3515 C3513 1.384 . S
H3516 C3522 0.930 . S
H3517 C3526 0.930 . S
H3518 C3531 0.929 . S
H3519 C3529 0.929 . S
H3520 C3524 0.929 . S
H3521 C3530 0.929 . S
C3522 H3516 0.930 . S
C3522 C3523 1.367 . S
C3522 C3530 1.378 . S
C3523 C3522 1.367 . S
C3523 C3531 1.433 . S
C3524 H3520 0.929 . S
C3524 C3526 1.378 . S
C3524 C3528 1.350 . S
C3525 C3528 1.463 . S
C3525 C3530 1.350 . S
C3525 N3533 1.427 . S
C3526 H3517 0.930 . S
C3526 C3524 1.378 . S
C3526 C3527 1.367 . S
C3527 C3526 1.367 . S
C3527 C3529 1.433 . S
C3528 C3524 1.350 . S
C3528 C3525 1.463 . S
C3528 N3532 1.427 . S
C3529 H3519 0.929 . S
C3529 C3527 1.433 . S
C3529 N3532 1.384 . S
C3530 H3521 0.929 . S
C3530 C3522 1.378 . S
C3530 C3525 1.350 . S
C3531 H3518 0.929 . S
C3531 C3523 1.433 . S
C3531 N3533 1.384 . S
N3532 C3528 1.427 . S
N3532 C3529 1.384 . S
N3533 C3525 1.427 . S
N3533 C3531 1.384 . S
H3534 C3540 0.930 . S
H3535 C3544 0.930 . S
H3536 C3549 0.929 . S
H3537 C3547 0.929 . S
H3538 C3542 0.929 . S
H3539 C3548 0.929 . S
C3540 H3534 0.930 . S
C3540 C3541 1.367 . S
C3540 C3548 1.378 . S
C3541 C3540 1.367 . S
C3541 C3549 1.433 . S
C3542 H3538 0.929 . S
C3542 C3544 1.378 . S
C3542 C3546 1.350 . S
C3543 C3546 1.463 . S
C3543 C3548 1.350 . S
C3543 N3551 1.427 . S
C3544 H3535 0.930 . S
C3544 C3542 1.378 . S
C3544 C3545 1.367 . S
C3545 C3544 1.367 . S
C3545 C3547 1.433 . S
C3546 C3542 1.350 . S
C3546 C3543 1.463 . S
C3546 N3550 1.427 . S
C3547 H3537 0.929 . S
C3547 C3545 1.433 . S
C3547 N3550 1.384 . S
C3548 H3539 0.929 . S
C3548 C3540 1.378 . S
C3548 C3543 1.350 . S
C3549 H3536 0.929 . S
C3549 C3541 1.433 . S
C3549 N3551 1.384 . S
N3550 C3546 1.427 . S
N3550 C3547 1.384 . S
N3551 C3543 1.427 . S
N3551 C3549 1.384 . S
H3552 C3558 0.930 . S
H3553 C3562 0.930 . S
H3554 C3567 0.929 . S
H3555 C3565 0.929 . S
H3556 C3560 0.929 . S
H3557 C3566 0.929 . S
C3558 H3552 0.930 . S
C3558 C3559 1.367 . S
C3558 C3566 1.378 . S
C3559 C3558 1.367 . S
C3559 C3567 1.433 . S
C3560 H3556 0.929 . S
C3560 C3562 1.378 . S
C3560 C3564 1.350 . S
C3561 C3564 1.463 . S
C3561 C3566 1.350 . S
C3561 N3569 1.427 . S
C3562 H3553 0.930 . S
C3562 C3560 1.378 . S
C3562 C3563 1.367 . S
C3563 C3562 1.367 . S
C3563 C3565 1.433 . S
C3564 C3560 1.350 . S
C3564 C3561 1.463 . S
C3564 N3568 1.427 . S
C3565 H3555 0.929 . S
C3565 C3563 1.433 . S
C3565 N3568 1.384 . S
C3566 H3557 0.929 . S
C3566 C3558 1.378 . S
C3566 C3561 1.350 . S
C3567 H3554 0.929 . S
C3567 C3559 1.433 . S
C3567 N3569 1.384 . S
N3568 C3564 1.427 . S
N3568 C3565 1.384 . S
N3569 C3561 1.427 . S
N3569 C3567 1.384 . S
H3570 C3576 0.930 . S
H3571 C3580 0.930 . S
H3572 C3585 0.929 . S
H3573 C3583 0.929 . S
H3574 C3578 0.929 . S
H3575 C3584 0.929 . S
C3576 H3570 0.930 . S
C3576 C3577 1.367 . S
C3576 C3584 1.378 . S
C3577 C3576 1.367 . S
C3577 C3585 1.433 . S
C3578 H3574 0.929 . S
C3578 C3580 1.378 . S
C3578 C3582 1.350 . S
C3579 C3582 1.463 . S
C3579 C3584 1.350 . S
C3579 N3587 1.427 . S
C3580 H3571 0.930 . S
C3580 C3578 1.378 . S
C3580 C3581 1.367 . S
C3581 C3580 1.367 . S
C3581 C3583 1.433 . S
C3582 C3578 1.350 . S
C3582 C3579 1.463 . S
C3582 N3586 1.427 . S
C3583 H3573 0.929 . S
C3583 C3581 1.433 . S
C3583 N3586 1.384 . S
C3584 H3575 0.929 . S
C3584 C3576 1.378 . S
C3584 C3579 1.350 . S
C3585 H3572 0.929 . S
C3585 C3577 1.433 . S
C3585 N3587 1.384 . S
N3586 C3582 1.427 . S
N3586 C3583 1.384 . S
N3587 C3579 1.427 . S
N3587 C3585 1.384 . S
H3588 C3594 0.930 . S
H3589 C3598 0.930 . S
H3590 C3603 0.929 . S
H3591 C3601 0.929 . S
H3592 C3596 0.929 . S
H3593 C3602 0.929 . S
C3594 H3588 0.930 . S
C3594 C3595 1.367 . S
C3594 C3602 1.378 . S
C3595 C3594 1.367 . S
C3595 C3603 1.433 . S
C3596 H3592 0.929 . S
C3596 C3598 1.378 . S
C3596 C3600 1.350 . S
C3597 C3600 1.463 . S
C3597 C3602 1.350 . S
C3597 N3605 1.427 . S
C3598 H3589 0.930 . S
C3598 C3596 1.378 . S
C3598 C3599 1.367 . S
C3599 C3598 1.367 . S
C3599 C3601 1.433 . S
C3600 C3596 1.350 . S
C3600 C3597 1.463 . S
C3600 N3604 1.427 . S
C3601 H3591 0.929 . S
C3601 C3599 1.433 . S
C3601 N3604 1.384 . S
C3602 H3593 0.929 . S
C3602 C3594 1.378 . S
C3602 C3597 1.350 . S
C3603 H3590 0.929 . S
C3603 C3595 1.433 . S
C3603 N3605 1.384 . S
N3604 C3600 1.427 . S
N3604 C3601 1.384 . S
N3605 C3597 1.427 . S
N3605 C3603 1.384 . S
H3606 C3612 0.930 . S
H3607 C3616 0.930 . S
H3608 C3621 0.929 . S
H3609 C3619 0.929 . S
H3610 C3614 0.929 . S
H3611 C3620 0.929 . S
C3612 H3606 0.930 . S
C3612 C3613 1.367 . S
C3612 C3620 1.378 . S
C3613 C3612 1.367 . S
C3613 C3621 1.433 . S
C3614 H3610 0.929 . S
C3614 C3616 1.378 . S
C3614 C3618 1.350 . S
C3615 C3618 1.463 . S
C3615 C3620 1.350 . S
C3615 N3623 1.427 . S
C3616 H3607 0.930 . S
C3616 C3614 1.378 . S
C3616 C3617 1.367 . S
C3617 C3616 1.367 . S
C3617 C3619 1.433 . S
C3618 C3614 1.350 . S
C3618 C3615 1.463 . S
C3618 N3622 1.427 . S
C3619 H3609 0.929 . S
C3619 C3617 1.433 . S
C3619 N3622 1.384 . S
C3620 H3611 0.929 . S
C3620 C3612 1.378 . S
C3620 C3615 1.350 . S
C3621 H3608 0.929 . S
C3621 C3613 1.433 . S
C3621 N3623 1.384 . S
N3622 C3618 1.427 . S
N3622 C3619 1.384 . S
N3623 C3615 1.427 . S
N3623 C3621 1.384 . S
H3624 C3630 0.930 . S
H3625 C3634 0.930 . S
H3626 C3639 0.929 . S
H3627 C3637 0.929 . S
H3628 C3632 0.929 . S
H3629 C3638 0.929 . S
C3630 H3624 0.930 . S
C3630 C3631 1.367 . S
C3630 C3638 1.378 . S
C3631 C3630 1.367 . S
C3631 C3639 1.433 . S
C3632 H3628 0.929 . S
C3632 C3634 1.378 . S
C3632 C3636 1.350 . S
C3633 C3636 1.463 . S
C3633 C3638 1.350 . S
C3633 N3641 1.427 . S
C3634 H3625 0.930 . S
C3634 C3632 1.378 . S
C3634 C3635 1.367 . S
C3635 C3634 1.367 . S
C3635 C3637 1.433 . S
C3636 C3632 1.350 . S
C3636 C3633 1.463 . S
C3636 N3640 1.427 . S
C3637 H3627 0.929 . S
C3637 C3635 1.433 . S
C3637 N3640 1.384 . S
C3638 H3629 0.929 . S
C3638 C3630 1.378 . S
C3638 C3633 1.350 . S
C3639 H3626 0.929 . S
C3639 C3631 1.433 . S
C3639 N3641 1.384 . S
N3640 C3636 1.427 . S
N3640 C3637 1.384 . S
N3641 C3633 1.427 . S
N3641 C3639 1.384 . S
H3642 C3648 0.930 . S
H3643 C3652 0.930 . S
H3644 C3657 0.929 . S
H3645 C3655 0.929 . S
H3646 C3650 0.929 . S
H3647 C3656 0.929 . S
C3648 H3642 0.930 . S
C3648 C3649 1.367 . S
C3648 C3656 1.378 . S
C3649 C3648 1.367 . S
C3649 C3657 1.433 . S
C3650 H3646 0.929 . S
C3650 C3652 1.378 . S
C3650 C3654 1.350 . S
C3651 C3654 1.463 . S
C3651 C3656 1.350 . S
C3651 N3659 1.427 . S
C3652 H3643 0.930 . S
C3652 C3650 1.378 . S
C3652 C3653 1.367 . S
C3653 C3652 1.367 . S
C3653 C3655 1.433 . S
C3654 C3650 1.350 . S
C3654 C3651 1.463 . S
C3654 N3658 1.427 . S
C3655 H3645 0.929 . S
C3655 C3653 1.433 . S
C3655 N3658 1.384 . S
C3656 H3647 0.929 . S
C3656 C3648 1.378 . S
C3656 C3651 1.350 . S
C3657 H3644 0.929 . S
C3657 C3649 1.433 . S
C3657 N3659 1.384 . S
N3658 C3654 1.427 . S
N3658 C3655 1.384 . S
N3659 C3651 1.427 . S
N3659 C3657 1.384 . S
H3660 C3666 0.930 . S
H3661 C3670 0.930 . S
H3662 C3675 0.929 . S
H3663 C3673 0.929 . S
H3664 C3668 0.929 . S
H3665 C3674 0.929 . S
C3666 H3660 0.930 . S
C3666 C3667 1.367 . S
C3666 C3674 1.378 . S
C3667 C3666 1.367 . S
C3667 C3675 1.433 . S
C3668 H3664 0.929 . S
C3668 C3670 1.378 . S
C3668 C3672 1.350 . S
C3669 C3672 1.463 . S
C3669 C3674 1.350 . S
C3669 N3677 1.427 . S
C3670 H3661 0.930 . S
C3670 C3668 1.378 . S
C3670 C3671 1.367 . S
C3671 C3670 1.367 . S
C3671 C3673 1.433 . S
C3672 C3668 1.350 . S
C3672 C3669 1.463 . S
C3672 N3676 1.427 . S
C3673 H3663 0.929 . S
C3673 C3671 1.433 . S
C3673 N3676 1.384 . S
C3674 H3665 0.929 . S
C3674 C3666 1.378 . S
C3674 C3669 1.350 . S
C3675 H3662 0.929 . S
C3675 C3667 1.433 . S
C3675 N3677 1.384 . S
N3676 C3672 1.427 . S
N3676 C3673 1.384 . S
N3677 C3669 1.427 . S
N3677 C3675 1.384 . S
H3678 C3684 0.930 . S
H3679 C3688 0.930 . S
H3680 C3693 0.929 . S
H3681 C3691 0.929 . S
H3682 C3686 0.929 . S
H3683 C3692 0.929 . S
C3684 H3678 0.930 . S
C3684 C3685 1.367 . S
C3684 C3692 1.378 . S
C3685 C3684 1.367 . S
C3685 C3693 1.433 . S
C3686 H3682 0.929 . S
C3686 C3688 1.378 . S
C3686 C3690 1.350 . S
C3687 C3690 1.463 . S
C3687 C3692 1.350 . S
C3687 N3695 1.427 . S
C3688 H3679 0.930 . S
C3688 C3686 1.378 . S
C3688 C3689 1.367 . S
C3689 C3688 1.367 . S
C3689 C3691 1.433 . S
C3690 C3686 1.350 . S
C3690 C3687 1.463 . S
C3690 N3694 1.427 . S
C3691 H3681 0.929 . S
C3691 C3689 1.433 . S
C3691 N3694 1.384 . S
C3692 H3683 0.929 . S
C3692 C3684 1.378 . S
C3692 C3687 1.350 . S
C3693 H3680 0.929 . S
C3693 C3685 1.433 . S
C3693 N3695 1.384 . S
N3694 C3690 1.427 . S
N3694 C3691 1.384 . S
N3695 C3687 1.427 . S
N3695 C3693 1.384 . S
H3696 C3702 0.930 . S
H3697 C3706 0.930 . S
H3698 C3711 0.929 . S
H3699 C3709 0.929 . S
H3700 C3704 0.929 . S
H3701 C3710 0.929 . S
C3702 H3696 0.930 . S
C3702 C3703 1.367 . S
C3702 C3710 1.378 . S
C3703 C3702 1.367 . S
C3703 C3711 1.433 . S
C3704 H3700 0.929 . S
C3704 C3706 1.378 . S
C3704 C3708 1.350 . S
C3705 C3708 1.463 . S
C3705 C3710 1.350 . S
C3705 N3713 1.427 . S
C3706 H3697 0.930 . S
C3706 C3704 1.378 . S
C3706 C3707 1.367 . S
C3707 C3706 1.367 . S
C3707 C3709 1.433 . S
C3708 C3704 1.350 . S
C3708 C3705 1.463 . S
C3708 N3712 1.427 . S
C3709 H3699 0.929 . S
C3709 C3707 1.433 . S
C3709 N3712 1.384 . S
C3710 H3701 0.929 . S
C3710 C3702 1.378 . S
C3710 C3705 1.350 . S
C3711 H3698 0.929 . S
C3711 C3703 1.433 . S
C3711 N3713 1.384 . S
N3712 C3708 1.427 . S
N3712 C3709 1.384 . S
N3713 C3705 1.427 . S
N3713 C3711 1.384 . S
H3714 C3720 0.930 . S
H3715 C3724 0.930 . S
H3716 C3729 0.929 . S
H3717 C3727 0.929 . S
H3718 C3722 0.929 . S
H3719 C3728 0.929 . S
C3720 H3714 0.930 . S
C3720 C3721 1.367 . S
C3720 C3728 1.378 . S
C3721 C3720 1.367 . S
C3721 C3729 1.433 . S
C3722 H3718 0.929 . S
C3722 C3724 1.378 . S
C3722 C3726 1.350 . S
C3723 C3726 1.463 . S
C3723 C3728 1.350 . S
C3723 N3731 1.427 . S
C3724 H3715 0.930 . S
C3724 C3722 1.378 . S
C3724 C3725 1.367 . S
C3725 C3724 1.367 . S
C3725 C3727 1.433 . S
C3726 C3722 1.350 . S
C3726 C3723 1.463 . S
C3726 N3730 1.427 . S
C3727 H3717 0.929 . S
C3727 C3725 1.433 . S
C3727 N3730 1.384 . S
C3728 H3719 0.929 . S
C3728 C3720 1.378 . S
C3728 C3723 1.350 . S
C3729 H3716 0.929 . S
C3729 C3721 1.433 . S
C3729 N3731 1.384 . S
N3730 C3726 1.427 . S
N3730 C3727 1.384 . S
N3731 C3723 1.427 . S
N3731 C3729 1.384 . S
H3732 C3738 0.930 . S
H3733 C3742 0.930 . S
H3734 C3747 0.929 . S
H3735 C3745 0.929 . S
H3736 C3740 0.929 . S
H3737 C3746 0.929 . S
C3738 H3732 0.930 . S
C3738 C3739 1.367 . S
C3738 C3746 1.378 . S
C3739 C3738 1.367 . S
C3739 C3747 1.433 . S
C3740 H3736 0.929 . S
C3740 C3742 1.378 . S
C3740 C3744 1.350 . S
C3741 C3744 1.463 . S
C3741 C3746 1.350 . S
C3741 N3749 1.427 . S
C3742 H3733 0.930 . S
C3742 C3740 1.378 . S
C3742 C3743 1.367 . S
C3743 C3742 1.367 . S
C3743 C3745 1.433 . S
C3744 C3740 1.350 . S
C3744 C3741 1.463 . S
C3744 N3748 1.427 . S
C3745 H3735 0.929 . S
C3745 C3743 1.433 . S
C3745 N3748 1.384 . S
C3746 H3737 0.929 . S
C3746 C3738 1.378 . S
C3746 C3741 1.350 . S
C3747 H3734 0.929 . S
C3747 C3739 1.433 . S
C3747 N3749 1.384 . S
N3748 C3744 1.427 . S
N3748 C3745 1.384 . S
N3749 C3741 1.427 . S
N3749 C3747 1.384 . S
H3750 C3756 0.930 . S
H3751 C3760 0.930 . S
H3752 C3765 0.929 . S
H3753 C3763 0.929 . S
H3754 C3758 0.929 . S
H3755 C3764 0.929 . S
C3756 H3750 0.930 . S
C3756 C3757 1.367 . S
C3756 C3764 1.378 . S
C3757 C3756 1.367 . S
C3757 C3765 1.433 . S
C3758 H3754 0.929 . S
C3758 C3760 1.378 . S
C3758 C3762 1.350 . S
C3759 C3762 1.463 . S
C3759 C3764 1.350 . S
C3759 N3767 1.427 . S
C3760 H3751 0.930 . S
C3760 C3758 1.378 . S
C3760 C3761 1.367 . S
C3761 C3760 1.367 . S
C3761 C3763 1.433 . S
C3762 C3758 1.350 . S
C3762 C3759 1.463 . S
C3762 N3766 1.427 . S
C3763 H3753 0.929 . S
C3763 C3761 1.433 . S
C3763 N3766 1.384 . S
C3764 H3755 0.929 . S
C3764 C3756 1.378 . S
C3764 C3759 1.350 . S
C3765 H3752 0.929 . S
C3765 C3757 1.433 . S
C3765 N3767 1.384 . S
N3766 C3762 1.427 . S
N3766 C3763 1.384 . S
N3767 C3759 1.427 . S
N3767 C3765 1.384 . S
H3768 C3774 0.930 . S
H3769 C3778 0.930 . S
H3770 C3783 0.929 . S
H3771 C3781 0.929 . S
H3772 C3776 0.929 . S
H3773 C3782 0.929 . S
C3774 H3768 0.930 . S
C3774 C3775 1.367 . S
C3774 C3782 1.378 . S
C3775 C3774 1.367 . S
C3775 C3783 1.433 . S
C3776 H3772 0.929 . S
C3776 C3778 1.378 . S
C3776 C3780 1.350 . S
C3777 C3780 1.463 . S
C3777 C3782 1.350 . S
C3777 N3785 1.427 . S
C3778 H3769 0.930 . S
C3778 C3776 1.378 . S
C3778 C3779 1.367 . S
C3779 C3778 1.367 . S
C3779 C3781 1.433 . S
C3780 C3776 1.350 . S
C3780 C3777 1.463 . S
C3780 N3784 1.427 . S
C3781 H3771 0.929 . S
C3781 C3779 1.433 . S
C3781 N3784 1.384 . S
C3782 H3773 0.929 . S
C3782 C3774 1.378 . S
C3782 C3777 1.350 . S
C3783 H3770 0.929 . S
C3783 C3775 1.433 . S
C3783 N3785 1.384 . S
N3784 C3780 1.427 . S
N3784 C3781 1.384 . S
N3785 C3777 1.427 . S
N3785 C3783 1.384 . S
H3786 C3792 0.930 . S
H3787 C3796 0.930 . S
H3788 C3801 0.929 . S
H3789 C3799 0.929 . S
H3790 C3794 0.929 . S
H3791 C3800 0.929 . S
C3792 H3786 0.930 . S
C3792 C3793 1.367 . S
C3792 C3800 1.378 . S
C3793 C3792 1.367 . S
C3793 C3801 1.433 . S
C3794 H3790 0.929 . S
C3794 C3796 1.378 . S
C3794 C3798 1.350 . S
C3795 C3798 1.463 . S
C3795 C3800 1.350 . S
C3795 N3803 1.427 . S
C3796 H3787 0.930 . S
C3796 C3794 1.378 . S
C3796 C3797 1.367 . S
C3797 C3796 1.367 . S
C3797 C3799 1.433 . S
C3798 C3794 1.350 . S
C3798 C3795 1.463 . S
C3798 N3802 1.427 . S
C3799 H3789 0.929 . S
C3799 C3797 1.433 . S
C3799 N3802 1.384 . S
C3800 H3791 0.929 . S
C3800 C3792 1.378 . S
C3800 C3795 1.350 . S
C3801 H3788 0.929 . S
C3801 C3793 1.433 . S
C3801 N3803 1.384 . S
N3802 C3798 1.427 . S
N3802 C3799 1.384 . S
N3803 C3795 1.427 . S
N3803 C3801 1.384 . S
H3804 C3810 0.930 . S
H3805 C3814 0.930 . S
H3806 C3819 0.929 . S
H3807 C3817 0.929 . S
H3808 C3812 0.929 . S
H3809 C3818 0.929 . S
C3810 H3804 0.930 . S
C3810 C3811 1.367 . S
C3810 C3818 1.378 . S
C3811 C3810 1.367 . S
C3811 C3819 1.433 . S
C3812 H3808 0.929 . S
C3812 C3814 1.378 . S
C3812 C3816 1.350 . S
C3813 C3816 1.463 . S
C3813 C3818 1.350 . S
C3813 N3821 1.427 . S
C3814 H3805 0.930 . S
C3814 C3812 1.378 . S
C3814 C3815 1.367 . S
C3815 C3814 1.367 . S
C3815 C3817 1.433 . S
C3816 C3812 1.350 . S
C3816 C3813 1.463 . S
C3816 N3820 1.427 . S
C3817 H3807 0.929 . S
C3817 C3815 1.433 . S
C3817 N3820 1.384 . S
C3818 H3809 0.929 . S
C3818 C3810 1.378 . S
C3818 C3813 1.350 . S
C3819 H3806 0.929 . S
C3819 C3811 1.433 . S
C3819 N3821 1.384 . S
N3820 C3816 1.427 . S
N3820 C3817 1.384 . S
N3821 C3813 1.427 . S
N3821 C3819 1.384 . S
H3822 C3828 0.930 . S
H3823 C3832 0.930 . S
H3824 C3837 0.929 . S
H3825 C3835 0.929 . S
H3826 C3830 0.929 . S
H3827 C3836 0.929 . S
C3828 H3822 0.930 . S
C3828 C3829 1.367 . S
C3828 C3836 1.378 . S
C3829 C3828 1.367 . S
C3829 C3837 1.433 . S
C3830 H3826 0.929 . S
C3830 C3832 1.378 . S
C3830 C3834 1.350 . S
C3831 C3834 1.463 . S
C3831 C3836 1.350 . S
C3831 N3839 1.427 . S
C3832 H3823 0.930 . S
C3832 C3830 1.378 . S
C3832 C3833 1.367 . S
C3833 C3832 1.367 . S
C3833 C3835 1.433 . S
C3834 C3830 1.350 . S
C3834 C3831 1.463 . S
C3834 N3838 1.427 . S
C3835 H3825 0.929 . S
C3835 C3833 1.433 . S
C3835 N3838 1.384 . S
C3836 H3827 0.929 . S
C3836 C3828 1.378 . S
C3836 C3831 1.350 . S
C3837 H3824 0.929 . S
C3837 C3829 1.433 . S
C3837 N3839 1.384 . S
N3838 C3834 1.427 . S
N3838 C3835 1.384 . S
N3839 C3831 1.427 . S
N3839 C3837 1.384 . S
H3840 C3846 0.930 . S
H3841 C3850 0.930 . S
H3842 C3855 0.929 . S
H3843 C3853 0.929 . S
H3844 C3848 0.929 . S
H3845 C3854 0.929 . S
C3846 H3840 0.930 . S
C3846 C3847 1.367 . S
C3846 C3854 1.378 . S
C3847 C3846 1.367 . S
C3847 C3855 1.433 . S
C3848 H3844 0.929 . S
C3848 C3850 1.378 . S
C3848 C3852 1.350 . S
C3849 C3852 1.463 . S
C3849 C3854 1.350 . S
C3849 N3857 1.427 . S
C3850 H3841 0.930 . S
C3850 C3848 1.378 . S
C3850 C3851 1.367 . S
C3851 C3850 1.367 . S
C3851 C3853 1.433 . S
C3852 C3848 1.350 . S
C3852 C3849 1.463 . S
C3852 N3856 1.427 . S
C3853 H3843 0.929 . S
C3853 C3851 1.433 . S
C3853 N3856 1.384 . S
C3854 H3845 0.929 . S
C3854 C3846 1.378 . S
C3854 C3849 1.350 . S
C3855 H3842 0.929 . S
C3855 C3847 1.433 . S
C3855 N3857 1.384 . S
N3856 C3852 1.427 . S
N3856 C3853 1.384 . S
N3857 C3849 1.427 . S
N3857 C3855 1.384 . S
H3858 C3864 0.930 . S
H3859 C3868 0.930 . S
H3860 C3873 0.929 . S
H3861 C3871 0.929 . S
H3862 C3866 0.929 . S
H3863 C3872 0.929 . S
C3864 H3858 0.930 . S
C3864 C3865 1.367 . S
C3864 C3872 1.378 . S
C3865 C3864 1.367 . S
C3865 C3873 1.433 . S
C3866 H3862 0.929 . S
C3866 C3868 1.378 . S
C3866 C3870 1.350 . S
C3867 C3870 1.463 . S
C3867 C3872 1.350 . S
C3867 N3875 1.427 . S
C3868 H3859 0.930 . S
C3868 C3866 1.378 . S
C3868 C3869 1.367 . S
C3869 C3868 1.367 . S
C3869 C3871 1.433 . S
C3870 C3866 1.350 . S
C3870 C3867 1.463 . S
C3870 N3874 1.427 . S
C3871 H3861 0.929 . S
C3871 C3869 1.433 . S
C3871 N3874 1.384 . S
C3872 H3863 0.929 . S
C3872 C3864 1.378 . S
C3872 C3867 1.350 . S
C3873 H3860 0.929 . S
C3873 C3865 1.433 . S
C3873 N3875 1.384 . S
N3874 C3870 1.427 . S
N3874 C3871 1.384 . S
N3875 C3867 1.427 . S
N3875 C3873 1.384 . S
H3876 C3882 0.930 . S
H3877 C3886 0.930 . S
H3878 C3891 0.929 . S
H3879 C3889 0.929 . S
H3880 C3884 0.929 . S
H3881 C3890 0.929 . S
C3882 H3876 0.930 . S
C3882 C3883 1.367 . S
C3882 C3890 1.378 . S
C3883 C3882 1.367 . S
C3883 C3891 1.433 . S
C3884 H3880 0.929 . S
C3884 C3886 1.378 . S
C3884 C3888 1.350 . S
C3885 C3888 1.463 . S
C3885 C3890 1.350 . S
C3885 N3893 1.427 . S
C3886 H3877 0.930 . S
C3886 C3884 1.378 . S
C3886 C3887 1.367 . S
C3887 C3886 1.367 . S
C3887 C3889 1.433 . S
C3888 C3884 1.350 . S
C3888 C3885 1.463 . S
C3888 N3892 1.427 . S
C3889 H3879 0.929 . S
C3889 C3887 1.433 . S
C3889 N3892 1.384 . S
C3890 H3881 0.929 . S
C3890 C3882 1.378 . S
C3890 C3885 1.350 . S
C3891 H3878 0.929 . S
C3891 C3883 1.433 . S
C3891 N3893 1.384 . S
N3892 C3888 1.427 . S
N3892 C3889 1.384 . S
N3893 C3885 1.427 . S
N3893 C3891 1.384 . S
H3894 C3900 0.930 . S
H3895 C3904 0.930 . S
H3896 C3909 0.929 . S
H3897 C3907 0.929 . S
H3898 C3902 0.929 . S
H3899 C3908 0.929 . S
C3900 H3894 0.930 . S
C3900 C3901 1.367 . S
C3900 C3908 1.378 . S
C3901 C3900 1.367 . S
C3901 C3909 1.433 . S
C3902 H3898 0.929 . S
C3902 C3904 1.378 . S
C3902 C3906 1.350 . S
C3903 C3906 1.463 . S
C3903 C3908 1.350 . S
C3903 N3911 1.427 . S
C3904 H3895 0.930 . S
C3904 C3902 1.378 . S
C3904 C3905 1.367 . S
C3905 C3904 1.367 . S
C3905 C3907 1.433 . S
C3906 C3902 1.350 . S
C3906 C3903 1.463 . S
C3906 N3910 1.427 . S
C3907 H3897 0.929 . S
C3907 C3905 1.433 . S
C3907 N3910 1.384 . S
C3908 H3899 0.929 . S
C3908 C3900 1.378 . S
C3908 C3903 1.350 . S
C3909 H3896 0.929 . S
C3909 C3901 1.433 . S
C3909 N3911 1.384 . S
N3910 C3906 1.427 . S
N3910 C3907 1.384 . S
N3911 C3903 1.427 . S
N3911 C3909 1.384 . S
H3912 C3918 0.930 . S
H3913 C3922 0.930 . S
H3914 C3927 0.929 . S
H3915 C3925 0.929 . S
H3916 C3920 0.929 . S
H3917 C3926 0.929 . S
C3918 H3912 0.930 . S
C3918 C3919 1.367 . S
C3918 C3926 1.378 . S
C3919 C3918 1.367 . S
C3919 C3927 1.433 . S
C3920 H3916 0.929 . S
C3920 C3922 1.378 . S
C3920 C3924 1.350 . S
C3921 C3924 1.463 . S
C3921 C3926 1.350 . S
C3921 N3929 1.427 . S
C3922 H3913 0.930 . S
C3922 C3920 1.378 . S
C3922 C3923 1.367 . S
C3923 C3922 1.367 . S
C3923 C3925 1.433 . S
C3924 C3920 1.350 . S
C3924 C3921 1.463 . S
C3924 N3928 1.427 . S
C3925 H3915 0.929 . S
C3925 C3923 1.433 . S
C3925 N3928 1.384 . S
C3926 H3917 0.929 . S
C3926 C3918 1.378 . S
C3926 C3921 1.350 . S
C3927 H3914 0.929 . S
C3927 C3919 1.433 . S
C3927 N3929 1.384 . S
N3928 C3924 1.427 . S
N3928 C3925 1.384 . S
N3929 C3921 1.427 . S
N3929 C3927 1.384 . S
H3930 C3936 0.930 . S
H3931 C3940 0.930 . S
H3932 C3945 0.929 . S
H3933 C3943 0.929 . S
H3934 C3938 0.929 . S
H3935 C3944 0.929 . S
C3936 H3930 0.930 . S
C3936 C3937 1.367 . S
C3936 C3944 1.378 . S
C3937 C3936 1.367 . S
C3937 C3945 1.433 . S
C3938 H3934 0.929 . S
C3938 C3940 1.378 . S
C3938 C3942 1.350 . S
C3939 C3942 1.463 . S
C3939 C3944 1.350 . S
C3939 N3947 1.427 . S
C3940 H3931 0.930 . S
C3940 C3938 1.378 . S
C3940 C3941 1.367 . S
C3941 C3940 1.367 . S
C3941 C3943 1.433 . S
C3942 C3938 1.350 . S
C3942 C3939 1.463 . S
C3942 N3946 1.427 . S
C3943 H3933 0.929 . S
C3943 C3941 1.433 . S
C3943 N3946 1.384 . S
C3944 H3935 0.929 . S
C3944 C3936 1.378 . S
C3944 C3939 1.350 . S
C3945 H3932 0.929 . S
C3945 C3937 1.433 . S
C3945 N3947 1.384 . S
N3946 C3942 1.427 . S
N3946 C3943 1.384 . S
N3947 C3939 1.427 . S
N3947 C3945 1.384 . S
H3948 C3954 0.930 . S
H3949 C3958 0.930 . S
H3950 C3963 0.929 . S
H3951 C3961 0.929 . S
H3952 C3956 0.929 . S
H3953 C3962 0.929 . S
C3954 H3948 0.930 . S
C3954 C3955 1.367 . S
C3954 C3962 1.378 . S
C3955 C3954 1.367 . S
C3955 C3963 1.433 . S
C3956 H3952 0.929 . S
C3956 C3958 1.378 . S
C3956 C3960 1.350 . S
C3957 C3960 1.463 . S
C3957 C3962 1.350 . S
C3957 N3965 1.427 . S
C3958 H3949 0.930 . S
C3958 C3956 1.378 . S
C3958 C3959 1.367 . S
C3959 C3958 1.367 . S
C3959 C3961 1.433 . S
C3960 C3956 1.350 . S
C3960 C3957 1.463 . S
C3960 N3964 1.427 . S
C3961 H3951 0.929 . S
C3961 C3959 1.433 . S
C3961 N3964 1.384 . S
C3962 H3953 0.929 . S
C3962 C3954 1.378 . S
C3962 C3957 1.350 . S
C3963 H3950 0.929 . S
C3963 C3955 1.433 . S
C3963 N3965 1.384 . S
N3964 C3960 1.427 . S
N3964 C3961 1.384 . S
N3965 C3957 1.427 . S
N3965 C3963 1.384 . S
H3966 C3972 0.930 . S
H3967 C3976 0.930 . S
H3968 C3981 0.929 . S
H3969 C3979 0.929 . S
H3970 C3974 0.929 . S
H3971 C3980 0.929 . S
C3972 H3966 0.930 . S
C3972 C3973 1.367 . S
C3972 C3980 1.378 . S
C3973 C3972 1.367 . S
C3973 C3981 1.433 . S
C3974 H3970 0.929 . S
C3974 C3976 1.378 . S
C3974 C3978 1.350 . S
C3975 C3978 1.463 . S
C3975 C3980 1.350 . S
C3975 N3983 1.427 . S
C3976 H3967 0.930 . S
C3976 C3974 1.378 . S
C3976 C3977 1.367 . S
C3977 C3976 1.367 . S
C3977 C3979 1.433 . S
C3978 C3974 1.350 . S
C3978 C3975 1.463 . S
C3978 N3982 1.427 . S
C3979 H3969 0.929 . S
C3979 C3977 1.433 . S
C3979 N3982 1.384 . S
C3980 H3971 0.929 . S
C3980 C3972 1.378 . S
C3980 C3975 1.350 . S
C3981 H3968 0.929 . S
C3981 C3973 1.433 . S
C3981 N3983 1.384 . S
N3982 C3978 1.427 . S
N3982 C3979 1.384 . S
N3983 C3975 1.427 . S
N3983 C3981 1.384 . S
H3984 C3990 0.930 . S
H3985 C3994 0.930 . S
H3986 C3999 0.929 . S
H3987 C3997 0.929 . S
H3988 C3992 0.929 . S
H3989 C3998 0.929 . S
C3990 H3984 0.930 . S
C3990 C3991 1.367 . S
C3990 C3998 1.378 . S
C3991 C3990 1.367 . S
C3991 C3999 1.433 . S
C3992 H3988 0.929 . S
C3992 C3994 1.378 . S
C3992 C3996 1.350 . S
C3993 C3996 1.463 . S
C3993 C3998 1.350 . S
C3993 N4001 1.427 . S
C3994 H3985 0.930 . S
C3994 C3992 1.378 . S
C3994 C3995 1.367 . S
C3995 C3994 1.367 . S
C3995 C3997 1.433 . S
C3996 C3992 1.350 . S
C3996 C3993 1.463 . S
C3996 N4000 1.427 . S
C3997 H3987 0.929 . S
C3997 C3995 1.433 . S
C3997 N4000 1.384 . S
C3998 H3989 0.929 . S
C3998 C3990 1.378 . S
C3998 C3993 1.350 . S
C3999 H3986 0.929 . S
C3999 C3991 1.433 . S
C3999 N4001 1.384 . S
N4000 C3996 1.427 . S
N4000 C3997 1.384 . S
N4001 C3993 1.427 . S
N4001 C3999 1.384 . S
H4002 C4008 0.930 . S
H4003 C4012 0.930 . S
H4004 C4017 0.929 . S
H4005 C4015 0.929 . S
H4006 C4010 0.929 . S
H4007 C4016 0.929 . S
C4008 H4002 0.930 . S
C4008 C4009 1.367 . S
C4008 C4016 1.378 . S
C4009 C4008 1.367 . S
C4009 C4017 1.433 . S
C4010 H4006 0.929 . S
C4010 C4012 1.378 . S
C4010 C4014 1.350 . S
C4011 C4014 1.463 . S
C4011 C4016 1.350 . S
C4011 N4019 1.427 . S
C4012 H4003 0.930 . S
C4012 C4010 1.378 . S
C4012 C4013 1.367 . S
C4013 C4012 1.367 . S
C4013 C4015 1.433 . S
C4014 C4010 1.350 . S
C4014 C4011 1.463 . S
C4014 N4018 1.427 . S
C4015 H4005 0.929 . S
C4015 C4013 1.433 . S
C4015 N4018 1.384 . S
C4016 H4007 0.929 . S
C4016 C4008 1.378 . S
C4016 C4011 1.350 . S
C4017 H4004 0.929 . S
C4017 C4009 1.433 . S
C4017 N4019 1.384 . S
N4018 C4014 1.427 . S
N4018 C4015 1.384 . S
N4019 C4011 1.427 . S
N4019 C4017 1.384 . S
H4020 C4026 0.930 . S
H4021 C4030 0.930 . S
H4022 C4035 0.929 . S
H4023 C4033 0.929 . S
H4024 C4028 0.929 . S
H4025 C4034 0.929 . S
C4026 H4020 0.930 . S
C4026 C4027 1.367 . S
C4026 C4034 1.378 . S
C4027 C4026 1.367 . S
C4027 C4035 1.433 . S
C4028 H4024 0.929 . S
C4028 C4030 1.378 . S
C4028 C4032 1.350 . S
C4029 C4032 1.463 . S
C4029 C4034 1.350 . S
C4029 N4037 1.427 . S
C4030 H4021 0.930 . S
C4030 C4028 1.378 . S
C4030 C4031 1.367 . S
C4031 C4030 1.367 . S
C4031 C4033 1.433 . S
C4032 C4028 1.350 . S
C4032 C4029 1.463 . S
C4032 N4036 1.427 . S
C4033 H4023 0.929 . S
C4033 C4031 1.433 . S
C4033 N4036 1.384 . S
C4034 H4025 0.929 . S
C4034 C4026 1.378 . S
C4034 C4029 1.350 . S
C4035 H4022 0.929 . S
C4035 C4027 1.433 . S
C4035 N4037 1.384 . S
N4036 C4032 1.427 . S
N4036 C4033 1.384 . S
N4037 C4029 1.427 . S
N4037 C4035 1.384 . S
H4038 C4044 0.930 . S
H4039 C4048 0.930 . S
H4040 C4053 0.929 . S
H4041 C4051 0.929 . S
H4042 C4046 0.929 . S
H4043 C4052 0.929 . S
C4044 H4038 0.930 . S
C4044 C4045 1.367 . S
C4044 C4052 1.378 . S
C4045 C4044 1.367 . S
C4045 C4053 1.433 . S
C4046 H4042 0.929 . S
C4046 C4048 1.378 . S
C4046 C4050 1.350 . S
C4047 C4050 1.463 . S
C4047 C4052 1.350 . S
C4047 N4055 1.427 . S
C4048 H4039 0.930 . S
C4048 C4046 1.378 . S
C4048 C4049 1.367 . S
C4049 C4048 1.367 . S
C4049 C4051 1.433 . S
C4050 C4046 1.350 . S
C4050 C4047 1.463 . S
C4050 N4054 1.427 . S
C4051 H4041 0.929 . S
C4051 C4049 1.433 . S
C4051 N4054 1.384 . S
C4052 H4043 0.929 . S
C4052 C4044 1.378 . S
C4052 C4047 1.350 . S
C4053 H4040 0.929 . S
C4053 C4045 1.433 . S
C4053 N4055 1.384 . S
N4054 C4050 1.427 . S
N4054 C4051 1.384 . S
N4055 C4047 1.427 . S
N4055 C4053 1.384 . S
H4056 C4062 0.930 . S
H4057 C4066 0.930 . S
H4058 C4071 0.929 . S
H4059 C4069 0.929 . S
H4060 C4064 0.929 . S
H4061 C4070 0.929 . S
C4062 H4056 0.930 . S
C4062 C4063 1.367 . S
C4062 C4070 1.378 . S
C4063 C4062 1.367 . S
C4063 C4071 1.433 . S
C4064 H4060 0.929 . S
C4064 C4066 1.378 . S
C4064 C4068 1.350 . S
C4065 C4068 1.463 . S
C4065 C4070 1.350 . S
C4065 N4073 1.427 . S
C4066 H4057 0.930 . S
C4066 C4064 1.378 . S
C4066 C4067 1.367 . S
C4067 C4066 1.367 . S
C4067 C4069 1.433 . S
C4068 C4064 1.350 . S
C4068 C4065 1.463 . S
C4068 N4072 1.427 . S
C4069 H4059 0.929 . S
C4069 C4067 1.433 . S
C4069 N4072 1.384 . S
C4070 H4061 0.929 . S
C4070 C4062 1.378 . S
C4070 C4065 1.350 . S
C4071 H4058 0.929 . S
C4071 C4063 1.433 . S
C4071 N4073 1.384 . S
N4072 C4068 1.427 . S
N4072 C4069 1.384 . S
N4073 C4065 1.427 . S
N4073 C4071 1.384 . S
H4074 C4080 0.930 . S
H4075 C4084 0.930 . S
H4076 C4089 0.929 . S
H4077 C4087 0.929 . S
H4078 C4082 0.929 . S
H4079 C4088 0.929 . S
C4080 H4074 0.930 . S
C4080 C4081 1.367 . S
C4080 C4088 1.378 . S
C4081 C4080 1.367 . S
C4081 C4089 1.433 . S
C4082 H4078 0.929 . S
C4082 C4084 1.378 . S
C4082 C4086 1.350 . S
C4083 C4086 1.463 . S
C4083 C4088 1.350 . S
C4083 N4091 1.427 . S
C4084 H4075 0.930 . S
C4084 C4082 1.378 . S
C4084 C4085 1.367 . S
C4085 C4084 1.367 . S
C4085 C4087 1.433 . S
C4086 C4082 1.350 . S
C4086 C4083 1.463 . S
C4086 N4090 1.427 . S
C4087 H4077 0.929 . S
C4087 C4085 1.433 . S
C4087 N4090 1.384 . S
C4088 H4079 0.929 . S
C4088 C4080 1.378 . S
C4088 C4083 1.350 . S
C4089 H4076 0.929 . S
C4089 C4081 1.433 . S
C4089 N4091 1.384 . S
N4090 C4086 1.427 . S
N4090 C4087 1.384 . S
N4091 C4083 1.427 . S
N4091 C4089 1.384 . S
H4092 C4098 0.930 . S
H4093 C4102 0.930 . S
H4094 C4107 0.929 . S
H4095 C4105 0.929 . S
H4096 C4100 0.929 . S
H4097 C4106 0.929 . S
C4098 H4092 0.930 . S
C4098 C4099 1.367 . S
C4098 C4106 1.378 . S
C4099 C4098 1.367 . S
C4099 C4107 1.433 . S
C4100 H4096 0.929 . S
C4100 C4102 1.378 . S
C4100 C4104 1.350 . S
C4101 C4104 1.463 . S
C4101 C4106 1.350 . S
C4101 N4109 1.427 . S
C4102 H4093 0.930 . S
C4102 C4100 1.378 . S
C4102 C4103 1.367 . S
C4103 C4102 1.367 . S
C4103 C4105 1.433 . S
C4104 C4100 1.350 . S
C4104 C4101 1.463 . S
C4104 N4108 1.427 . S
C4105 H4095 0.929 . S
C4105 C4103 1.433 . S
C4105 N4108 1.384 . S
C4106 H4097 0.929 . S
C4106 C4098 1.378 . S
C4106 C4101 1.350 . S
C4107 H4094 0.929 . S
C4107 C4099 1.433 . S
C4107 N4109 1.384 . S
N4108 C4104 1.427 . S
N4108 C4105 1.384 . S
N4109 C4101 1.427 . S
N4109 C4107 1.384 . S
H4110 C4116 0.930 . S
H4111 C4120 0.930 . S
H4112 C4125 0.929 . S
H4113 C4123 0.929 . S
H4114 C4118 0.929 . S
H4115 C4124 0.929 . S
C4116 H4110 0.930 . S
C4116 C4117 1.367 . S
C4116 C4124 1.378 . S
C4117 C4116 1.367 . S
C4117 C4125 1.433 . S
C4118 H4114 0.929 . S
C4118 C4120 1.378 . S
C4118 C4122 1.350 . S
C4119 C4122 1.463 . S
C4119 C4124 1.350 . S
C4119 N4127 1.427 . S
C4120 H4111 0.930 . S
C4120 C4118 1.378 . S
C4120 C4121 1.367 . S
C4121 C4120 1.367 . S
C4121 C4123 1.433 . S
C4122 C4118 1.350 . S
C4122 C4119 1.463 . S
C4122 N4126 1.427 . S
C4123 H4113 0.929 . S
C4123 C4121 1.433 . S
C4123 N4126 1.384 . S
C4124 H4115 0.929 . S
C4124 C4116 1.378 . S
C4124 C4119 1.350 . S
C4125 H4112 0.929 . S
C4125 C4117 1.433 . S
C4125 N4127 1.384 . S
N4126 C4122 1.427 . S
N4126 C4123 1.384 . S
N4127 C4119 1.427 . S
N4127 C4125 1.384 . S
H4128 C4134 0.930 . S
H4129 C4138 0.930 . S
H4130 C4143 0.929 . S
H4131 C4141 0.929 . S
H4132 C4136 0.929 . S
H4133 C4142 0.929 . S
C4134 H4128 0.930 . S
C4134 C4135 1.367 . S
C4134 C4142 1.378 . S
C4135 C4134 1.367 . S
C4135 C4143 1.433 . S
C4136 H4132 0.929 . S
C4136 C4138 1.378 . S
C4136 C4140 1.350 . S
C4137 C4140 1.463 . S
C4137 C4142 1.350 . S
C4137 N4145 1.427 . S
C4138 H4129 0.930 . S
C4138 C4136 1.378 . S
C4138 C4139 1.367 . S
C4139 C4138 1.367 . S
C4139 C4141 1.433 . S
C4140 C4136 1.350 . S
C4140 C4137 1.463 . S
C4140 N4144 1.427 . S
C4141 H4131 0.929 . S
C4141 C4139 1.433 . S
C4141 N4144 1.384 . S
C4142 H4133 0.929 . S
C4142 C4134 1.378 . S
C4142 C4137 1.350 . S
C4143 H4130 0.929 . S
C4143 C4135 1.433 . S
C4143 N4145 1.384 . S
N4144 C4140 1.427 . S
N4144 C4141 1.384 . S
N4145 C4137 1.427 . S
N4145 C4143 1.384 . S
H4146 C4152 0.930 . S
H4147 C4156 0.930 . S
H4148 C4161 0.929 . S
H4149 C4159 0.929 . S
H4150 C4154 0.929 . S
H4151 C4160 0.929 . S
C4152 H4146 0.930 . S
C4152 C4153 1.367 . S
C4152 C4160 1.378 . S
C4153 C4152 1.367 . S
C4153 C4161 1.433 . S
C4154 H4150 0.929 . S
C4154 C4156 1.378 . S
C4154 C4158 1.350 . S
C4155 C4158 1.463 . S
C4155 C4160 1.350 . S
C4155 N4163 1.427 . S
C4156 H4147 0.930 . S
C4156 C4154 1.378 . S
C4156 C4157 1.367 . S
C4157 C4156 1.367 . S
C4157 C4159 1.433 . S
C4158 C4154 1.350 . S
C4158 C4155 1.463 . S
C4158 N4162 1.427 . S
C4159 H4149 0.929 . S
C4159 C4157 1.433 . S
C4159 N4162 1.384 . S
C4160 H4151 0.929 . S
C4160 C4152 1.378 . S
C4160 C4155 1.350 . S
C4161 H4148 0.929 . S
C4161 C4153 1.433 . S
C4161 N4163 1.384 . S
N4162 C4158 1.427 . S
N4162 C4159 1.384 . S
N4163 C4155 1.427 . S
N4163 C4161 1.384 . S
H4164 C4170 0.930 . S
H4165 C4174 0.930 . S
H4166 C4179 0.929 . S
H4167 C4177 0.929 . S
H4168 C4172 0.929 . S
H4169 C4178 0.929 . S
C4170 H4164 0.930 . S
C4170 C4171 1.367 . S
C4170 C4178 1.378 . S
C4171 C4170 1.367 . S
C4171 C4179 1.433 . S
C4172 H4168 0.929 . S
C4172 C4174 1.378 . S
C4172 C4176 1.350 . S
C4173 C4176 1.463 . S
C4173 C4178 1.350 . S
C4173 N4181 1.427 . S
C4174 H4165 0.930 . S
C4174 C4172 1.378 . S
C4174 C4175 1.367 . S
C4175 C4174 1.367 . S
C4175 C4177 1.433 . S
C4176 C4172 1.350 . S
C4176 C4173 1.463 . S
C4176 N4180 1.427 . S
C4177 H4167 0.929 . S
C4177 C4175 1.433 . S
C4177 N4180 1.384 . S
C4178 H4169 0.929 . S
C4178 C4170 1.378 . S
C4178 C4173 1.350 . S
C4179 H4166 0.929 . S
C4179 C4171 1.433 . S
C4179 N4181 1.384 . S
N4180 C4176 1.427 . S
N4180 C4177 1.384 . S
N4181 C4173 1.427 . S
N4181 C4179 1.384 . S
H4182 C4188 0.930 . S
H4183 C4192 0.930 . S
H4184 C4197 0.929 . S
H4185 C4195 0.929 . S
H4186 C4190 0.929 . S
H4187 C4196 0.929 . S
C4188 H4182 0.930 . S
C4188 C4189 1.367 . S
C4188 C4196 1.378 . S
C4189 C4188 1.367 . S
C4189 C4197 1.433 . S
C4190 H4186 0.929 . S
C4190 C4192 1.378 . S
C4190 C4194 1.350 . S
C4191 C4194 1.463 . S
C4191 C4196 1.350 . S
C4191 N4199 1.427 . S
C4192 H4183 0.930 . S
C4192 C4190 1.378 . S
C4192 C4193 1.367 . S
C4193 C4192 1.367 . S
C4193 C4195 1.433 . S
C4194 C4190 1.350 . S
C4194 C4191 1.463 . S
C4194 N4198 1.427 . S
C4195 H4185 0.929 . S
C4195 C4193 1.433 . S
C4195 N4198 1.384 . S
C4196 H4187 0.929 . S
C4196 C4188 1.378 . S
C4196 C4191 1.350 . S
C4197 H4184 0.929 . S
C4197 C4189 1.433 . S
C4197 N4199 1.384 . S
N4198 C4194 1.427 . S
N4198 C4195 1.384 . S
N4199 C4191 1.427 . S
N4199 C4197 1.384 . S
H4200 C4206 0.930 . S
H4201 C4210 0.930 . S
H4202 C4215 0.929 . S
H4203 C4213 0.929 . S
H4204 C4208 0.929 . S
H4205 C4214 0.929 . S
C4206 H4200 0.930 . S
C4206 C4207 1.367 . S
C4206 C4214 1.378 . S
C4207 C4206 1.367 . S
C4207 C4215 1.433 . S
C4208 H4204 0.929 . S
C4208 C4210 1.378 . S
C4208 C4212 1.350 . S
C4209 C4212 1.463 . S
C4209 C4214 1.350 . S
C4209 N4217 1.427 . S
C4210 H4201 0.930 . S
C4210 C4208 1.378 . S
C4210 C4211 1.367 . S
C4211 C4210 1.367 . S
C4211 C4213 1.433 . S
C4212 C4208 1.350 . S
C4212 C4209 1.463 . S
C4212 N4216 1.427 . S
C4213 H4203 0.929 . S
C4213 C4211 1.433 . S
C4213 N4216 1.384 . S
C4214 H4205 0.929 . S
C4214 C4206 1.378 . S
C4214 C4209 1.350 . S
C4215 H4202 0.929 . S
C4215 C4207 1.433 . S
C4215 N4217 1.384 . S
N4216 C4212 1.427 . S
N4216 C4213 1.384 . S
N4217 C4209 1.427 . S
N4217 C4215 1.384 . S
H4218 C4224 0.930 . S
H4219 C4228 0.930 . S
H4220 C4233 0.929 . S
H4221 C4231 0.929 . S
H4222 C4226 0.929 . S
H4223 C4232 0.929 . S
C4224 H4218 0.930 . S
C4224 C4225 1.367 . S
C4224 C4232 1.378 . S
C4225 C4224 1.367 . S
C4225 C4233 1.433 . S
C4226 H4222 0.929 . S
C4226 C4228 1.378 . S
C4226 C4230 1.350 . S
C4227 C4230 1.463 . S
C4227 C4232 1.350 . S
C4227 N4235 1.427 . S
C4228 H4219 0.930 . S
C4228 C4226 1.378 . S
C4228 C4229 1.367 . S
C4229 C4228 1.367 . S
C4229 C4231 1.433 . S
C4230 C4226 1.350 . S
C4230 C4227 1.463 . S
C4230 N4234 1.427 . S
C4231 H4221 0.929 . S
C4231 C4229 1.433 . S
C4231 N4234 1.384 . S
C4232 H4223 0.929 . S
C4232 C4224 1.378 . S
C4232 C4227 1.350 . S
C4233 H4220 0.929 . S
C4233 C4225 1.433 . S
C4233 N4235 1.384 . S
N4234 C4230 1.427 . S
N4234 C4231 1.384 . S
N4235 C4227 1.427 . S
N4235 C4233 1.384 . S
H4236 C4242 0.930 . S
H4237 C4246 0.930 . S
H4238 C4251 0.929 . S
H4239 C4249 0.929 . S
H4240 C4244 0.929 . S
H4241 C4250 0.929 . S
C4242 H4236 0.930 . S
C4242 C4243 1.367 . S
C4242 C4250 1.378 . S
C4243 C4242 1.367 . S
C4243 C4251 1.433 . S
C4244 H4240 0.929 . S
C4244 C4246 1.378 . S
C4244 C4248 1.350 . S
C4245 C4248 1.463 . S
C4245 C4250 1.350 . S
C4245 N4253 1.427 . S
C4246 H4237 0.930 . S
C4246 C4244 1.378 . S
C4246 C4247 1.367 . S
C4247 C4246 1.367 . S
C4247 C4249 1.433 . S
C4248 C4244 1.350 . S
C4248 C4245 1.463 . S
C4248 N4252 1.427 . S
C4249 H4239 0.929 . S
C4249 C4247 1.433 . S
C4249 N4252 1.384 . S
C4250 H4241 0.929 . S
C4250 C4242 1.378 . S
C4250 C4245 1.350 . S
C4251 H4238 0.929 . S
C4251 C4243 1.433 . S
C4251 N4253 1.384 . S
N4252 C4248 1.427 . S
N4252 C4249 1.384 . S
N4253 C4245 1.427 . S
N4253 C4251 1.384 . S
H4254 C4260 0.930 . S
H4255 C4264 0.930 . S
H4256 C4269 0.929 . S
H4257 C4267 0.929 . S
H4258 C4262 0.929 . S
H4259 C4268 0.929 . S
C4260 H4254 0.930 . S
C4260 C4261 1.367 . S
C4260 C4268 1.378 . S
C4261 C4260 1.367 . S
C4261 C4269 1.433 . S
C4262 H4258 0.929 . S
C4262 C4264 1.378 . S
C4262 C4266 1.350 . S
C4263 C4266 1.463 . S
C4263 C4268 1.350 . S
C4263 N4271 1.427 . S
C4264 H4255 0.930 . S
C4264 C4262 1.378 . S
C4264 C4265 1.367 . S
C4265 C4264 1.367 . S
C4265 C4267 1.433 . S
C4266 C4262 1.350 . S
C4266 C4263 1.463 . S
C4266 N4270 1.427 . S
C4267 H4257 0.929 . S
C4267 C4265 1.433 . S
C4267 N4270 1.384 . S
C4268 H4259 0.929 . S
C4268 C4260 1.378 . S
C4268 C4263 1.350 . S
C4269 H4256 0.929 . S
C4269 C4261 1.433 . S
C4269 N4271 1.384 . S
N4270 C4266 1.427 . S
N4270 C4267 1.384 . S
N4271 C4263 1.427 . S
N4271 C4269 1.384 . S
H4272 C4278 0.930 . S
H4273 C4282 0.930 . S
H4274 C4287 0.929 . S
H4275 C4285 0.929 . S
H4276 C4280 0.929 . S
H4277 C4286 0.929 . S
C4278 H4272 0.930 . S
C4278 C4279 1.367 . S
C4278 C4286 1.378 . S
C4279 C4278 1.367 . S
C4279 C4287 1.433 . S
C4280 H4276 0.929 . S
C4280 C4282 1.378 . S
C4280 C4284 1.350 . S
C4281 C4284 1.463 . S
C4281 C4286 1.350 . S
C4281 N4289 1.427 . S
C4282 H4273 0.930 . S
C4282 C4280 1.378 . S
C4282 C4283 1.367 . S
C4283 C4282 1.367 . S
C4283 C4285 1.433 . S
C4284 C4280 1.350 . S
C4284 C4281 1.463 . S
C4284 N4288 1.427 . S
C4285 H4275 0.929 . S
C4285 C4283 1.433 . S
C4285 N4288 1.384 . S
C4286 H4277 0.929 . S
C4286 C4278 1.378 . S
C4286 C4281 1.350 . S
C4287 H4274 0.929 . S
C4287 C4279 1.433 . S
C4287 N4289 1.384 . S
N4288 C4284 1.427 . S
N4288 C4285 1.384 . S
N4289 C4281 1.427 . S
N4289 C4287 1.384 . S
H4290 C4296 0.930 . S
H4291 C4300 0.930 . S
H4292 C4305 0.929 . S
H4293 C4303 0.929 . S
H4294 C4298 0.929 . S
H4295 C4304 0.929 . S
C4296 H4290 0.930 . S
C4296 C4297 1.367 . S
C4296 C4304 1.378 . S
C4297 C4296 1.367 . S
C4297 C4305 1.433 . S
C4298 H4294 0.929 . S
C4298 C4300 1.378 . S
C4298 C4302 1.350 . S
C4299 C4302 1.463 . S
C4299 C4304 1.350 . S
C4299 N4307 1.427 . S
C4300 H4291 0.930 . S
C4300 C4298 1.378 . S
C4300 C4301 1.367 . S
C4301 C4300 1.367 . S
C4301 C4303 1.433 . S
C4302 C4298 1.350 . S
C4302 C4299 1.463 . S
C4302 N4306 1.427 . S
C4303 H4293 0.929 . S
C4303 C4301 1.433 . S
C4303 N4306 1.384 . S
C4304 H4295 0.929 . S
C4304 C4296 1.378 . S
C4304 C4299 1.350 . S
C4305 H4292 0.929 . S
C4305 C4297 1.433 . S
C4305 N4307 1.384 . S
N4306 C4302 1.427 . S
N4306 C4303 1.384 . S
N4307 C4299 1.427 . S
N4307 C4305 1.384 . S
H4308 C4314 0.930 . S
H4309 C4318 0.930 . S
H4310 C4323 0.929 . S
H4311 C4321 0.929 . S
H4312 C4316 0.929 . S
H4313 C4322 0.929 . S
C4314 H4308 0.930 . S
C4314 C4315 1.367 . S
C4314 C4322 1.378 . S
C4315 C4314 1.367 . S
C4315 C4323 1.433 . S
C4316 H4312 0.929 . S
C4316 C4318 1.378 . S
C4316 C4320 1.350 . S
C4317 C4320 1.463 . S
C4317 C4322 1.350 . S
C4317 N4325 1.427 . S
C4318 H4309 0.930 . S
C4318 C4316 1.378 . S
C4318 C4319 1.367 . S
C4319 C4318 1.367 . S
C4319 C4321 1.433 . S
C4320 C4316 1.350 . S
C4320 C4317 1.463 . S
C4320 N4324 1.427 . S
C4321 H4311 0.929 . S
C4321 C4319 1.433 . S
C4321 N4324 1.384 . S
C4322 H4313 0.929 . S
C4322 C4314 1.378 . S
C4322 C4317 1.350 . S
C4323 H4310 0.929 . S
C4323 C4315 1.433 . S
C4323 N4325 1.384 . S
N4324 C4320 1.427 . S
N4324 C4321 1.384 . S
N4325 C4317 1.427 . S
N4325 C4323 1.384 . S
H4326 C4332 0.930 . S
H4327 C4336 0.930 . S
H4328 C4341 0.929 . S
H4329 C4339 0.929 . S
H4330 C4334 0.929 . S
H4331 C4340 0.929 . S
C4332 H4326 0.930 . S
C4332 C4333 1.367 . S
C4332 C4340 1.378 . S
C4333 C4332 1.367 . S
C4333 C4341 1.433 . S
C4334 H4330 0.929 . S
C4334 C4336 1.378 . S
C4334 C4338 1.350 . S
C4335 C4338 1.463 . S
C4335 C4340 1.350 . S
C4335 N4343 1.427 . S
C4336 H4327 0.930 . S
C4336 C4334 1.378 . S
C4336 C4337 1.367 . S
C4337 C4336 1.367 . S
C4337 C4339 1.433 . S
C4338 C4334 1.350 . S
C4338 C4335 1.463 . S
C4338 N4342 1.427 . S
C4339 H4329 0.929 . S
C4339 C4337 1.433 . S
C4339 N4342 1.384 . S
C4340 H4331 0.929 . S
C4340 C4332 1.378 . S
C4340 C4335 1.350 . S
C4341 H4328 0.929 . S
C4341 C4333 1.433 . S
C4341 N4343 1.384 . S
N4342 C4338 1.427 . S
N4342 C4339 1.384 . S
N4343 C4335 1.427 . S
N4343 C4341 1.384 . S
H4344 C4350 0.930 . S
H4345 C4354 0.930 . S
H4346 C4359 0.929 . S
H4347 C4357 0.929 . S
H4348 C4352 0.929 . S
H4349 C4358 0.929 . S
C4350 H4344 0.930 . S
C4350 C4351 1.367 . S
C4350 C4358 1.378 . S
C4351 C4350 1.367 . S
C4351 C4359 1.433 . S
C4352 H4348 0.929 . S
C4352 C4354 1.378 . S
C4352 C4356 1.350 . S
C4353 C4356 1.463 . S
C4353 C4358 1.350 . S
C4353 N4361 1.427 . S
C4354 H4345 0.930 . S
C4354 C4352 1.378 . S
C4354 C4355 1.367 . S
C4355 C4354 1.367 . S
C4355 C4357 1.433 . S
C4356 C4352 1.350 . S
C4356 C4353 1.463 . S
C4356 N4360 1.427 . S
C4357 H4347 0.929 . S
C4357 C4355 1.433 . S
C4357 N4360 1.384 . S
C4358 H4349 0.929 . S
C4358 C4350 1.378 . S
C4358 C4353 1.350 . S
C4359 H4346 0.929 . S
C4359 C4351 1.433 . S
C4359 N4361 1.384 . S
N4360 C4356 1.427 . S
N4360 C4357 1.384 . S
N4361 C4353 1.427 . S
N4361 C4359 1.384 . S
H4362 C4368 0.930 . S
H4363 C4372 0.930 . S
H4364 C4377 0.929 . S
H4365 C4375 0.929 . S
H4366 C4370 0.929 . S
H4367 C4376 0.929 . S
C4368 H4362 0.930 . S
C4368 C4369 1.367 . S
C4368 C4376 1.378 . S
C4369 C4368 1.367 . S
C4369 C4377 1.433 . S
C4370 H4366 0.929 . S
C4370 C4372 1.378 . S
C4370 C4374 1.350 . S
C4371 C4374 1.463 . S
C4371 C4376 1.350 . S
C4371 N4379 1.427 . S
C4372 H4363 0.930 . S
C4372 C4370 1.378 . S
C4372 C4373 1.367 . S
C4373 C4372 1.367 . S
C4373 C4375 1.433 . S
C4374 C4370 1.350 . S
C4374 C4371 1.463 . S
C4374 N4378 1.427 . S
C4375 H4365 0.929 . S
C4375 C4373 1.433 . S
C4375 N4378 1.384 . S
C4376 H4367 0.929 . S
C4376 C4368 1.378 . S
C4376 C4371 1.350 . S
C4377 H4364 0.929 . S
C4377 C4369 1.433 . S
C4377 N4379 1.384 . S
N4378 C4374 1.427 . S
N4378 C4375 1.384 . S
N4379 C4371 1.427 . S
N4379 C4377 1.384 . S
H4380 C4386 0.930 . S
H4381 C4390 0.930 . S
H4382 C4395 0.929 . S
H4383 C4393 0.929 . S
H4384 C4388 0.929 . S
H4385 C4394 0.929 . S
C4386 H4380 0.930 . S
C4386 C4387 1.367 . S
C4386 C4394 1.378 . S
C4387 C4386 1.367 . S
C4387 C4395 1.433 . S
C4388 H4384 0.929 . S
C4388 C4390 1.378 . S
C4388 C4392 1.350 . S
C4389 C4392 1.463 . S
C4389 C4394 1.350 . S
C4389 N4397 1.427 . S
C4390 H4381 0.930 . S
C4390 C4388 1.378 . S
C4390 C4391 1.367 . S
C4391 C4390 1.367 . S
C4391 C4393 1.433 . S
C4392 C4388 1.350 . S
C4392 C4389 1.463 . S
C4392 N4396 1.427 . S
C4393 H4383 0.929 . S
C4393 C4391 1.433 . S
C4393 N4396 1.384 . S
C4394 H4385 0.929 . S
C4394 C4386 1.378 . S
C4394 C4389 1.350 . S
C4395 H4382 0.929 . S
C4395 C4387 1.433 . S
C4395 N4397 1.384 . S
N4396 C4392 1.427 . S
N4396 C4393 1.384 . S
N4397 C4389 1.427 . S
N4397 C4395 1.384 . S
H4398 C4404 0.930 . S
H4399 C4408 0.930 . S
H4400 C4413 0.929 . S
H4401 C4411 0.929 . S
H4402 C4406 0.929 . S
H4403 C4412 0.929 . S
C4404 H4398 0.930 . S
C4404 C4405 1.367 . S
C4404 C4412 1.378 . S
C4405 C4404 1.367 . S
C4405 C4413 1.433 . S
C4406 H4402 0.929 . S
C4406 C4408 1.378 . S
C4406 C4410 1.350 . S
C4407 C4410 1.463 . S
C4407 C4412 1.350 . S
C4407 N4415 1.427 . S
C4408 H4399 0.930 . S
C4408 C4406 1.378 . S
C4408 C4409 1.367 . S
C4409 C4408 1.367 . S
C4409 C4411 1.433 . S
C4410 C4406 1.350 . S
C4410 C4407 1.463 . S
C4410 N4414 1.427 . S
C4411 H4401 0.929 . S
C4411 C4409 1.433 . S
C4411 N4414 1.384 . S
C4412 H4403 0.929 . S
C4412 C4404 1.378 . S
C4412 C4407 1.350 . S
C4413 H4400 0.929 . S
C4413 C4405 1.433 . S
C4413 N4415 1.384 . S
N4414 C4410 1.427 . S
N4414 C4411 1.384 . S
N4415 C4407 1.427 . S
N4415 C4413 1.384 . S
H4416 C4422 0.930 . S
H4417 C4426 0.930 . S
H4418 C4431 0.929 . S
H4419 C4429 0.929 . S
H4420 C4424 0.929 . S
H4421 C4430 0.929 . S
C4422 H4416 0.930 . S
C4422 C4423 1.367 . S
C4422 C4430 1.378 . S
C4423 C4422 1.367 . S
C4423 C4431 1.433 . S
C4424 H4420 0.929 . S
C4424 C4426 1.378 . S
C4424 C4428 1.350 . S
C4425 C4428 1.463 . S
C4425 C4430 1.350 . S
C4425 N4433 1.427 . S
C4426 H4417 0.930 . S
C4426 C4424 1.378 . S
C4426 C4427 1.367 . S
C4427 C4426 1.367 . S
C4427 C4429 1.433 . S
C4428 C4424 1.350 . S
C4428 C4425 1.463 . S
C4428 N4432 1.427 . S
C4429 H4419 0.929 . S
C4429 C4427 1.433 . S
C4429 N4432 1.384 . S
C4430 H4421 0.929 . S
C4430 C4422 1.378 . S
C4430 C4425 1.350 . S
C4431 H4418 0.929 . S
C4431 C4423 1.433 . S
C4431 N4433 1.384 . S
N4432 C4428 1.427 . S
N4432 C4429 1.384 . S
N4433 C4425 1.427 . S
N4433 C4431 1.384 . S
H4434 C4440 0.930 . S
H4435 C4444 0.930 . S
H4436 C4449 0.929 . S
H4437 C4447 0.929 . S
H4438 C4442 0.929 . S
H4439 C4448 0.929 . S
C4440 H4434 0.930 . S
C4440 C4441 1.367 . S
C4440 C4448 1.378 . S
C4441 C4440 1.367 . S
C4441 C4449 1.433 . S
C4442 H4438 0.929 . S
C4442 C4444 1.378 . S
C4442 C4446 1.350 . S
C4443 C4446 1.463 . S
C4443 C4448 1.350 . S
C4443 N4451 1.427 . S
C4444 H4435 0.930 . S
C4444 C4442 1.378 . S
C4444 C4445 1.367 . S
C4445 C4444 1.367 . S
C4445 C4447 1.433 . S
C4446 C4442 1.350 . S
C4446 C4443 1.463 . S
C4446 N4450 1.427 . S
C4447 H4437 0.929 . S
C4447 C4445 1.433 . S
C4447 N4450 1.384 . S
C4448 H4439 0.929 . S
C4448 C4440 1.378 . S
C4448 C4443 1.350 . S
C4449 H4436 0.929 . S
C4449 C4441 1.433 . S
C4449 N4451 1.384 . S
N4450 C4446 1.427 . S
N4450 C4447 1.384 . S
N4451 C4443 1.427 . S
N4451 C4449 1.384 . S
H4452 C4458 0.930 . S
H4453 C4462 0.930 . S
H4454 C4467 0.929 . S
H4455 C4465 0.929 . S
H4456 C4460 0.929 . S
H4457 C4466 0.929 . S
C4458 H4452 0.930 . S
C4458 C4459 1.367 . S
C4458 C4466 1.378 . S
C4459 C4458 1.367 . S
C4459 C4467 1.433 . S
C4460 H4456 0.929 . S
C4460 C4462 1.378 . S
C4460 C4464 1.350 . S
C4461 C4464 1.463 . S
C4461 C4466 1.350 . S
C4461 N4469 1.427 . S
C4462 H4453 0.930 . S
C4462 C4460 1.378 . S
C4462 C4463 1.367 . S
C4463 C4462 1.367 . S
C4463 C4465 1.433 . S
C4464 C4460 1.350 . S
C4464 C4461 1.463 . S
C4464 N4468 1.427 . S
C4465 H4455 0.929 . S
C4465 C4463 1.433 . S
C4465 N4468 1.384 . S
C4466 H4457 0.929 . S
C4466 C4458 1.378 . S
C4466 C4461 1.350 . S
C4467 H4454 0.929 . S
C4467 C4459 1.433 . S
C4467 N4469 1.384 . S
N4468 C4464 1.427 . S
N4468 C4465 1.384 . S
N4469 C4461 1.427 . S
N4469 C4467 1.384 . S
H4470 C4476 0.930 . S
H4471 C4480 0.930 . S
H4472 C4485 0.929 . S
H4473 C4483 0.929 . S
H4474 C4478 0.929 . S
H4475 C4484 0.929 . S
C4476 H4470 0.930 . S
C4476 C4477 1.367 . S
C4476 C4484 1.378 . S
C4477 C4476 1.367 . S
C4477 C4485 1.433 . S
C4478 H4474 0.929 . S
C4478 C4480 1.378 . S
C4478 C4482 1.350 . S
C4479 C4482 1.463 . S
C4479 C4484 1.350 . S
C4479 N4487 1.427 . S
C4480 H4471 0.930 . S
C4480 C4478 1.378 . S
C4480 C4481 1.367 . S
C4481 C4480 1.367 . S
C4481 C4483 1.433 . S
C4482 C4478 1.350 . S
C4482 C4479 1.463 . S
C4482 N4486 1.427 . S
C4483 H4473 0.929 . S
C4483 C4481 1.433 . S
C4483 N4486 1.384 . S
C4484 H4475 0.929 . S
C4484 C4476 1.378 . S
C4484 C4479 1.350 . S
C4485 H4472 0.929 . S
C4485 C4477 1.433 . S
C4485 N4487 1.384 . S
N4486 C4482 1.427 . S
N4486 C4483 1.384 . S
N4487 C4479 1.427 . S
N4487 C4485 1.384 . S
H4488 C4494 0.930 . S
H4489 C4498 0.930 . S
H4490 C4503 0.929 . S
H4491 C4501 0.929 . S
H4492 C4496 0.929 . S
H4493 C4502 0.929 . S
C4494 H4488 0.930 . S
C4494 C4495 1.367 . S
C4494 C4502 1.378 . S
C4495 C4494 1.367 . S
C4495 C4503 1.433 . S
C4496 H4492 0.929 . S
C4496 C4498 1.378 . S
C4496 C4500 1.350 . S
C4497 C4500 1.463 . S
C4497 C4502 1.350 . S
C4497 N4505 1.427 . S
C4498 H4489 0.930 . S
C4498 C4496 1.378 . S
C4498 C4499 1.367 . S
C4499 C4498 1.367 . S
C4499 C4501 1.433 . S
C4500 C4496 1.350 . S
C4500 C4497 1.463 . S
C4500 N4504 1.427 . S
C4501 H4491 0.929 . S
C4501 C4499 1.433 . S
C4501 N4504 1.384 . S
C4502 H4493 0.929 . S
C4502 C4494 1.378 . S
C4502 C4497 1.350 . S
C4503 H4490 0.929 . S
C4503 C4495 1.433 . S
C4503 N4505 1.384 . S
N4504 C4500 1.427 . S
N4504 C4501 1.384 . S
N4505 C4497 1.427 . S
N4505 C4503 1.384 . S
H4506 C4512 0.930 . S
H4507 C4516 0.930 . S
H4508 C4521 0.929 . S
H4509 C4519 0.929 . S
H4510 C4514 0.929 . S
H4511 C4520 0.929 . S
C4512 H4506 0.930 . S
C4512 C4513 1.367 . S
C4512 C4520 1.378 . S
C4513 C4512 1.367 . S
C4513 C4521 1.433 . S
C4514 H4510 0.929 . S
C4514 C4516 1.378 . S
C4514 C4518 1.350 . S
C4515 C4518 1.463 . S
C4515 C4520 1.350 . S
C4515 N4523 1.427 . S
C4516 H4507 0.930 . S
C4516 C4514 1.378 . S
C4516 C4517 1.367 . S
C4517 C4516 1.367 . S
C4517 C4519 1.433 . S
C4518 C4514 1.350 . S
C4518 C4515 1.463 . S
C4518 N4522 1.427 . S
C4519 H4509 0.929 . S
C4519 C4517 1.433 . S
C4519 N4522 1.384 . S
C4520 H4511 0.929 . S
C4520 C4512 1.378 . S
C4520 C4515 1.350 . S
C4521 H4508 0.929 . S
C4521 C4513 1.433 . S
C4521 N4523 1.384 . S
N4522 C4518 1.427 . S
N4522 C4519 1.384 . S
N4523 C4515 1.427 . S
N4523 C4521 1.384 . S
H4524 C4530 0.930 . S
H4525 C4534 0.930 . S
H4526 C4539 0.929 . S
H4527 C4537 0.929 . S
H4528 C4532 0.929 . S
H4529 C4538 0.929 . S
C4530 H4524 0.930 . S
C4530 C4531 1.367 . S
C4530 C4538 1.378 . S
C4531 C4530 1.367 . S
C4531 C4539 1.433 . S
C4532 H4528 0.929 . S
C4532 C4534 1.378 . S
C4532 C4536 1.350 . S
C4533 C4536 1.463 . S
C4533 C4538 1.350 . S
C4533 N4541 1.427 . S
C4534 H4525 0.930 . S
C4534 C4532 1.378 . S
C4534 C4535 1.367 . S
C4535 C4534 1.367 . S
C4535 C4537 1.433 . S
C4536 C4532 1.350 . S
C4536 C4533 1.463 . S
C4536 N4540 1.427 . S
C4537 H4527 0.929 . S
C4537 C4535 1.433 . S
C4537 N4540 1.384 . S
C4538 H4529 0.929 . S
C4538 C4530 1.378 . S
C4538 C4533 1.350 . S
C4539 H4526 0.929 . S
C4539 C4531 1.433 . S
C4539 N4541 1.384 . S
N4540 C4536 1.427 . S
N4540 C4537 1.384 . S
N4541 C4533 1.427 . S
N4541 C4539 1.384 . S
H4542 C4548 0.930 . S
H4543 C4552 0.930 . S
H4544 C4557 0.929 . S
H4545 C4555 0.929 . S
H4546 C4550 0.929 . S
H4547 C4556 0.929 . S
C4548 H4542 0.930 . S
C4548 C4549 1.367 . S
C4548 C4556 1.378 . S
C4549 C4548 1.367 . S
C4549 C4557 1.433 . S
C4550 H4546 0.929 . S
C4550 C4552 1.378 . S
C4550 C4554 1.350 . S
C4551 C4554 1.463 . S
C4551 C4556 1.350 . S
C4551 N4559 1.427 . S
C4552 H4543 0.930 . S
C4552 C4550 1.378 . S
C4552 C4553 1.367 . S
C4553 C4552 1.367 . S
C4553 C4555 1.433 . S
C4554 C4550 1.350 . S
C4554 C4551 1.463 . S
C4554 N4558 1.427 . S
C4555 H4545 0.929 . S
C4555 C4553 1.433 . S
C4555 N4558 1.384 . S
C4556 H4547 0.929 . S
C4556 C4548 1.378 . S
C4556 C4551 1.350 . S
C4557 H4544 0.929 . S
C4557 C4549 1.433 . S
C4557 N4559 1.384 . S
N4558 C4554 1.427 . S
N4558 C4555 1.384 . S
N4559 C4551 1.427 . S
N4559 C4557 1.384 . S
H4560 C4566 0.930 . S
H4561 C4570 0.930 . S
H4562 C4575 0.929 . S
H4563 C4573 0.929 . S
H4564 C4568 0.929 . S
H4565 C4574 0.929 . S
C4566 H4560 0.930 . S
C4566 C4567 1.367 . S
C4566 C4574 1.378 . S
C4567 C4566 1.367 . S
C4567 C4575 1.433 . S
C4568 H4564 0.929 . S
C4568 C4570 1.378 . S
C4568 C4572 1.350 . S
C4569 C4572 1.463 . S
C4569 C4574 1.350 . S
C4569 N4577 1.427 . S
C4570 H4561 0.930 . S
C4570 C4568 1.378 . S
C4570 C4571 1.367 . S
C4571 C4570 1.367 . S
C4571 C4573 1.433 . S
C4572 C4568 1.350 . S
C4572 C4569 1.463 . S
C4572 N4576 1.427 . S
C4573 H4563 0.929 . S
C4573 C4571 1.433 . S
C4573 N4576 1.384 . S
C4574 H4565 0.929 . S
C4574 C4566 1.378 . S
C4574 C4569 1.350 . S
C4575 H4562 0.929 . S
C4575 C4567 1.433 . S
C4575 N4577 1.384 . S
N4576 C4572 1.427 . S
N4576 C4573 1.384 . S
N4577 C4569 1.427 . S
N4577 C4575 1.384 . S
H4578 C4584 0.930 . S
H4579 C4588 0.930 . S
H4580 C4593 0.929 . S
H4581 C4591 0.929 . S
H4582 C4586 0.929 . S
H4583 C4592 0.929 . S
C4584 H4578 0.930 . S
C4584 C4585 1.367 . S
C4584 C4592 1.378 . S
C4585 C4584 1.367 . S
C4585 C4593 1.433 . S
C4586 H4582 0.929 . S
C4586 C4588 1.378 . S
C4586 C4590 1.350 . S
C4587 C4590 1.463 . S
C4587 C4592 1.350 . S
C4587 N4595 1.427 . S
C4588 H4579 0.930 . S
C4588 C4586 1.378 . S
C4588 C4589 1.367 . S
C4589 C4588 1.367 . S
C4589 C4591 1.433 . S
C4590 C4586 1.350 . S
C4590 C4587 1.463 . S
C4590 N4594 1.427 . S
C4591 H4581 0.929 . S
C4591 C4589 1.433 . S
C4591 N4594 1.384 . S
C4592 H4583 0.929 . S
C4592 C4584 1.378 . S
C4592 C4587 1.350 . S
C4593 H4580 0.929 . S
C4593 C4585 1.433 . S
C4593 N4595 1.384 . S
N4594 C4590 1.427 . S
N4594 C4591 1.384 . S
N4595 C4587 1.427 . S
N4595 C4593 1.384 . S
H4596 C4602 0.930 . S
H4597 C4606 0.930 . S
H4598 C4611 0.929 . S
H4599 C4609 0.929 . S
H4600 C4604 0.929 . S
H4601 C4610 0.929 . S
C4602 H4596 0.930 . S
C4602 C4603 1.367 . S
C4602 C4610 1.378 . S
C4603 C4602 1.367 . S
C4603 C4611 1.433 . S
C4604 H4600 0.929 . S
C4604 C4606 1.378 . S
C4604 C4608 1.350 . S
C4605 C4608 1.463 . S
C4605 C4610 1.350 . S
C4605 N4613 1.427 . S
C4606 H4597 0.930 . S
C4606 C4604 1.378 . S
C4606 C4607 1.367 . S
C4607 C4606 1.367 . S
C4607 C4609 1.433 . S
C4608 C4604 1.350 . S
C4608 C4605 1.463 . S
C4608 N4612 1.427 . S
C4609 H4599 0.929 . S
C4609 C4607 1.433 . S
C4609 N4612 1.384 . S
C4610 H4601 0.929 . S
C4610 C4602 1.378 . S
C4610 C4605 1.350 . S
C4611 H4598 0.929 . S
C4611 C4603 1.433 . S
C4611 N4613 1.384 . S
N4612 C4608 1.427 . S
N4612 C4609 1.384 . S
N4613 C4605 1.427 . S
N4613 C4611 1.384 . S
H4614 C4620 0.930 . S
H4615 C4624 0.930 . S
H4616 C4629 0.929 . S
H4617 C4627 0.929 . S
H4618 C4622 0.929 . S
H4619 C4628 0.929 . S
C4620 H4614 0.930 . S
C4620 C4621 1.367 . S
C4620 C4628 1.378 . S
C4621 C4620 1.367 . S
C4621 C4629 1.433 . S
C4622 H4618 0.929 . S
C4622 C4624 1.378 . S
C4622 C4626 1.350 . S
C4623 C4626 1.463 . S
C4623 C4628 1.350 . S
C4623 N4631 1.427 . S
C4624 H4615 0.930 . S
C4624 C4622 1.378 . S
C4624 C4625 1.367 . S
C4625 C4624 1.367 . S
C4625 C4627 1.433 . S
C4626 C4622 1.350 . S
C4626 C4623 1.463 . S
C4626 N4630 1.427 . S
C4627 H4617 0.929 . S
C4627 C4625 1.433 . S
C4627 N4630 1.384 . S
C4628 H4619 0.929 . S
C4628 C4620 1.378 . S
C4628 C4623 1.350 . S
C4629 H4616 0.929 . S
C4629 C4621 1.433 . S
C4629 N4631 1.384 . S
N4630 C4626 1.427 . S
N4630 C4627 1.384 . S
N4631 C4623 1.427 . S
N4631 C4629 1.384 . S
H4632 C4638 0.930 . S
H4633 C4642 0.930 . S
H4634 C4647 0.929 . S
H4635 C4645 0.929 . S
H4636 C4640 0.929 . S
H4637 C4646 0.929 . S
C4638 H4632 0.930 . S
C4638 C4639 1.367 . S
C4638 C4646 1.378 . S
C4639 C4638 1.367 . S
C4639 C4647 1.433 . S
C4640 H4636 0.929 . S
C4640 C4642 1.378 . S
C4640 C4644 1.350 . S
C4641 C4644 1.463 . S
C4641 C4646 1.350 . S
C4641 N4649 1.427 . S
C4642 H4633 0.930 . S
C4642 C4640 1.378 . S
C4642 C4643 1.367 . S
C4643 C4642 1.367 . S
C4643 C4645 1.433 . S
C4644 C4640 1.350 . S
C4644 C4641 1.463 . S
C4644 N4648 1.427 . S
C4645 H4635 0.929 . S
C4645 C4643 1.433 . S
C4645 N4648 1.384 . S
C4646 H4637 0.929 . S
C4646 C4638 1.378 . S
C4646 C4641 1.350 . S
C4647 H4634 0.929 . S
C4647 C4639 1.433 . S
C4647 N4649 1.384 . S
N4648 C4644 1.427 . S
N4648 C4645 1.384 . S
N4649 C4641 1.427 . S
N4649 C4647 1.384 . S
H4650 C4656 0.930 . S
H4651 C4660 0.930 . S
H4652 C4665 0.929 . S
H4653 C4663 0.929 . S
H4654 C4658 0.929 . S
H4655 C4664 0.929 . S
C4656 H4650 0.930 . S
C4656 C4657 1.367 . S
C4656 C4664 1.378 . S
C4657 C4656 1.367 . S
C4657 C4665 1.433 . S
C4658 H4654 0.929 . S
C4658 C4660 1.378 . S
C4658 C4662 1.350 . S
C4659 C4662 1.463 . S
C4659 C4664 1.350 . S
C4659 N4667 1.427 . S
C4660 H4651 0.930 . S
C4660 C4658 1.378 . S
C4660 C4661 1.367 . S
C4661 C4660 1.367 . S
C4661 C4663 1.433 . S
C4662 C4658 1.350 . S
C4662 C4659 1.463 . S
C4662 N4666 1.427 . S
C4663 H4653 0.929 . S
C4663 C4661 1.433 . S
C4663 N4666 1.384 . S
C4664 H4655 0.929 . S
C4664 C4656 1.378 . S
C4664 C4659 1.350 . S
C4665 H4652 0.929 . S
C4665 C4657 1.433 . S
C4665 N4667 1.384 . S
N4666 C4662 1.427 . S
N4666 C4663 1.384 . S
N4667 C4659 1.427 . S
N4667 C4665 1.384 . S
H4668 C4674 0.930 . S
H4669 C4678 0.930 . S
H4670 C4683 0.929 . S
H4671 C4681 0.929 . S
H4672 C4676 0.929 . S
H4673 C4682 0.929 . S
C4674 H4668 0.930 . S
C4674 C4675 1.367 . S
C4674 C4682 1.378 . S
C4675 C4674 1.367 . S
C4675 C4683 1.433 . S
C4676 H4672 0.929 . S
C4676 C4678 1.378 . S
C4676 C4680 1.350 . S
C4677 C4680 1.463 . S
C4677 C4682 1.350 . S
C4677 N4685 1.427 . S
C4678 H4669 0.930 . S
C4678 C4676 1.378 . S
C4678 C4679 1.367 . S
C4679 C4678 1.367 . S
C4679 C4681 1.433 . S
C4680 C4676 1.350 . S
C4680 C4677 1.463 . S
C4680 N4684 1.427 . S
C4681 H4671 0.929 . S
C4681 C4679 1.433 . S
C4681 N4684 1.384 . S
C4682 H4673 0.929 . S
C4682 C4674 1.378 . S
C4682 C4677 1.350 . S
C4683 H4670 0.929 . S
C4683 C4675 1.433 . S
C4683 N4685 1.384 . S
N4684 C4680 1.427 . S
N4684 C4681 1.384 . S
N4685 C4677 1.427 . S
N4685 C4683 1.384 . S
H4686 C4692 0.930 . S
H4687 C4696 0.930 . S
H4688 C4701 0.929 . S
H4689 C4699 0.929 . S
H4690 C4694 0.929 . S
H4691 C4700 0.929 . S
C4692 H4686 0.930 . S
C4692 C4693 1.367 . S
C4692 C4700 1.378 . S
C4693 C4692 1.367 . S
C4693 C4701 1.433 . S
C4694 H4690 0.929 . S
C4694 C4696 1.378 . S
C4694 C4698 1.350 . S
C4695 C4698 1.463 . S
C4695 C4700 1.350 . S
C4695 N4703 1.427 . S
C4696 H4687 0.930 . S
C4696 C4694 1.378 . S
C4696 C4697 1.367 . S
C4697 C4696 1.367 . S
C4697 C4699 1.433 . S
C4698 C4694 1.350 . S
C4698 C4695 1.463 . S
C4698 N4702 1.427 . S
C4699 H4689 0.929 . S
C4699 C4697 1.433 . S
C4699 N4702 1.384 . S
C4700 H4691 0.929 . S
C4700 C4692 1.378 . S
C4700 C4695 1.350 . S
C4701 H4688 0.929 . S
C4701 C4693 1.433 . S
C4701 N4703 1.384 . S
N4702 C4698 1.427 . S
N4702 C4699 1.384 . S
N4703 C4695 1.427 . S
N4703 C4701 1.384 . S
H4704 C4710 0.930 . S
H4705 C4714 0.930 . S
H4706 C4719 0.929 . S
H4707 C4717 0.929 . S
H4708 C4712 0.929 . S
H4709 C4718 0.929 . S
C4710 H4704 0.930 . S
C4710 C4711 1.367 . S
C4710 C4718 1.378 . S
C4711 C4710 1.367 . S
C4711 C4719 1.433 . S
C4712 H4708 0.929 . S
C4712 C4714 1.378 . S
C4712 C4716 1.350 . S
C4713 C4716 1.463 . S
C4713 C4718 1.350 . S
C4713 N4721 1.427 . S
C4714 H4705 0.930 . S
C4714 C4712 1.378 . S
C4714 C4715 1.367 . S
C4715 C4714 1.367 . S
C4715 C4717 1.433 . S
C4716 C4712 1.350 . S
C4716 C4713 1.463 . S
C4716 N4720 1.427 . S
C4717 H4707 0.929 . S
C4717 C4715 1.433 . S
C4717 N4720 1.384 . S
C4718 H4709 0.929 . S
C4718 C4710 1.378 . S
C4718 C4713 1.350 . S
C4719 H4706 0.929 . S
C4719 C4711 1.433 . S
C4719 N4721 1.384 . S
N4720 C4716 1.427 . S
N4720 C4717 1.384 . S
N4721 C4713 1.427 . S
N4721 C4719 1.384 . S
H4722 C4728 0.930 . S
H4723 C4732 0.930 . S
H4724 C4737 0.929 . S
H4725 C4735 0.929 . S
H4726 C4730 0.929 . S
H4727 C4736 0.929 . S
C4728 H4722 0.930 . S
C4728 C4729 1.367 . S
C4728 C4736 1.378 . S
C4729 C4728 1.367 . S
C4729 C4737 1.433 . S
C4730 H4726 0.929 . S
C4730 C4732 1.378 . S
C4730 C4734 1.350 . S
C4731 C4734 1.463 . S
C4731 C4736 1.350 . S
C4731 N4739 1.427 . S
C4732 H4723 0.930 . S
C4732 C4730 1.378 . S
C4732 C4733 1.367 . S
C4733 C4732 1.367 . S
C4733 C4735 1.433 . S
C4734 C4730 1.350 . S
C4734 C4731 1.463 . S
C4734 N4738 1.427 . S
C4735 H4725 0.929 . S
C4735 C4733 1.433 . S
C4735 N4738 1.384 . S
C4736 H4727 0.929 . S
C4736 C4728 1.378 . S
C4736 C4731 1.350 . S
C4737 H4724 0.929 . S
C4737 C4729 1.433 . S
C4737 N4739 1.384 . S
N4738 C4734 1.427 . S
N4738 C4735 1.384 . S
N4739 C4731 1.427 . S
N4739 C4737 1.384 . S
H4740 C4746 0.930 . S
H4741 C4750 0.930 . S
H4742 C4755 0.929 . S
H4743 C4753 0.929 . S
H4744 C4748 0.929 . S
H4745 C4754 0.929 . S
C4746 H4740 0.930 . S
C4746 C4747 1.367 . S
C4746 C4754 1.378 . S
C4747 C4746 1.367 . S
C4747 C4755 1.433 . S
C4748 H4744 0.929 . S
C4748 C4750 1.378 . S
C4748 C4752 1.350 . S
C4749 C4752 1.463 . S
C4749 C4754 1.350 . S
C4749 N4757 1.427 . S
C4750 H4741 0.930 . S
C4750 C4748 1.378 . S
C4750 C4751 1.367 . S
C4751 C4750 1.367 . S
C4751 C4753 1.433 . S
C4752 C4748 1.350 . S
C4752 C4749 1.463 . S
C4752 N4756 1.427 . S
C4753 H4743 0.929 . S
C4753 C4751 1.433 . S
C4753 N4756 1.384 . S
C4754 H4745 0.929 . S
C4754 C4746 1.378 . S
C4754 C4749 1.350 . S
C4755 H4742 0.929 . S
C4755 C4747 1.433 . S
C4755 N4757 1.384 . S
N4756 C4752 1.427 . S
N4756 C4753 1.384 . S
N4757 C4749 1.427 . S
N4757 C4755 1.384 . S
H4758 C4764 0.930 . S
H4759 C4768 0.930 . S
H4760 C4773 0.929 . S
H4761 C4771 0.929 . S
H4762 C4766 0.929 . S
H4763 C4772 0.929 . S
C4764 H4758 0.930 . S
C4764 C4765 1.367 . S
C4764 C4772 1.378 . S
C4765 C4764 1.367 . S
C4765 C4773 1.433 . S
C4766 H4762 0.929 . S
C4766 C4768 1.378 . S
C4766 C4770 1.350 . S
C4767 C4770 1.463 . S
C4767 C4772 1.350 . S
C4767 N4775 1.427 . S
C4768 H4759 0.930 . S
C4768 C4766 1.378 . S
C4768 C4769 1.367 . S
C4769 C4768 1.367 . S
C4769 C4771 1.433 . S
C4770 C4766 1.350 . S
C4770 C4767 1.463 . S
C4770 N4774 1.427 . S
C4771 H4761 0.929 . S
C4771 C4769 1.433 . S
C4771 N4774 1.384 . S
C4772 H4763 0.929 . S
C4772 C4764 1.378 . S
C4772 C4767 1.350 . S
C4773 H4760 0.929 . S
C4773 C4765 1.433 . S
C4773 N4775 1.384 . S
N4774 C4770 1.427 . S
N4774 C4771 1.384 . S
N4775 C4767 1.427 . S
N4775 C4773 1.384 . S
H4776 C4782 0.930 . S
H4777 C4786 0.930 . S
H4778 C4791 0.929 . S
H4779 C4789 0.929 . S
H4780 C4784 0.929 . S
H4781 C4790 0.929 . S
C4782 H4776 0.930 . S
C4782 C4783 1.367 . S
C4782 C4790 1.378 . S
C4783 C4782 1.367 . S
C4783 C4791 1.433 . S
C4784 H4780 0.929 . S
C4784 C4786 1.378 . S
C4784 C4788 1.350 . S
C4785 C4788 1.463 . S
C4785 C4790 1.350 . S
C4785 N4793 1.427 . S
C4786 H4777 0.930 . S
C4786 C4784 1.378 . S
C4786 C4787 1.367 . S
C4787 C4786 1.367 . S
C4787 C4789 1.433 . S
C4788 C4784 1.350 . S
C4788 C4785 1.463 . S
C4788 N4792 1.427 . S
C4789 H4779 0.929 . S
C4789 C4787 1.433 . S
C4789 N4792 1.384 . S
C4790 H4781 0.929 . S
C4790 C4782 1.378 . S
C4790 C4785 1.350 . S
C4791 H4778 0.929 . S
C4791 C4783 1.433 . S
C4791 N4793 1.384 . S
N4792 C4788 1.427 . S
N4792 C4789 1.384 . S
N4793 C4785 1.427 . S
N4793 C4791 1.384 . S
H4794 C4800 0.930 . S
H4795 C4804 0.930 . S
H4796 C4809 0.929 . S
H4797 C4807 0.929 . S
H4798 C4802 0.929 . S
H4799 C4808 0.929 . S
C4800 H4794 0.930 . S
C4800 C4801 1.367 . S
C4800 C4808 1.378 . S
C4801 C4800 1.367 . S
C4801 C4809 1.433 . S
C4802 H4798 0.929 . S
C4802 C4804 1.378 . S
C4802 C4806 1.350 . S
C4803 C4806 1.463 . S
C4803 C4808 1.350 . S
C4803 N4811 1.427 . S
C4804 H4795 0.930 . S
C4804 C4802 1.378 . S
C4804 C4805 1.367 . S
C4805 C4804 1.367 . S
C4805 C4807 1.433 . S
C4806 C4802 1.350 . S
C4806 C4803 1.463 . S
C4806 N4810 1.427 . S
C4807 H4797 0.929 . S
C4807 C4805 1.433 . S
C4807 N4810 1.384 . S
C4808 H4799 0.929 . S
C4808 C4800 1.378 . S
C4808 C4803 1.350 . S
C4809 H4796 0.929 . S
C4809 C4801 1.433 . S
C4809 N4811 1.384 . S
N4810 C4806 1.427 . S
N4810 C4807 1.384 . S
N4811 C4803 1.427 . S
N4811 C4809 1.384 . S
H4812 C4818 0.930 . S
H4813 C4822 0.930 . S
H4814 C4827 0.929 . S
H4815 C4825 0.929 . S
H4816 C4820 0.929 . S
H4817 C4826 0.929 . S
C4818 H4812 0.930 . S
C4818 C4819 1.367 . S
C4818 C4826 1.378 . S
C4819 C4818 1.367 . S
C4819 C4827 1.433 . S
C4820 H4816 0.929 . S
C4820 C4822 1.378 . S
C4820 C4824 1.350 . S
C4821 C4824 1.463 . S
C4821 C4826 1.350 . S
C4821 N4829 1.427 . S
C4822 H4813 0.930 . S
C4822 C4820 1.378 . S
C4822 C4823 1.367 . S
C4823 C4822 1.367 . S
C4823 C4825 1.433 . S
C4824 C4820 1.350 . S
C4824 C4821 1.463 . S
C4824 N4828 1.427 . S
C4825 H4815 0.929 . S
C4825 C4823 1.433 . S
C4825 N4828 1.384 . S
C4826 H4817 0.929 . S
C4826 C4818 1.378 . S
C4826 C4821 1.350 . S
C4827 H4814 0.929 . S
C4827 C4819 1.433 . S
C4827 N4829 1.384 . S
N4828 C4824 1.427 . S
N4828 C4825 1.384 . S
N4829 C4821 1.427 . S
N4829 C4827 1.384 . S
H4830 C4836 0.930 . S
H4831 C4840 0.930 . S
H4832 C4845 0.929 . S
H4833 C4843 0.929 . S
H4834 C4838 0.929 . S
H4835 C4844 0.929 . S
C4836 H4830 0.930 . S
C4836 C4837 1.367 . S
C4836 C4844 1.378 . S
C4837 C4836 1.367 . S
C4837 C4845 1.433 . S
C4838 H4834 0.929 . S
C4838 C4840 1.378 . S
C4838 C4842 1.350 . S
C4839 C4842 1.463 . S
C4839 C4844 1.350 . S
C4839 N4847 1.427 . S
C4840 H4831 0.930 . S
C4840 C4838 1.378 . S
C4840 C4841 1.367 . S
C4841 C4840 1.367 . S
C4841 C4843 1.433 . S
C4842 C4838 1.350 . S
C4842 C4839 1.463 . S
C4842 N4846 1.427 . S
C4843 H4833 0.929 . S
C4843 C4841 1.433 . S
C4843 N4846 1.384 . S
C4844 H4835 0.929 . S
C4844 C4836 1.378 . S
C4844 C4839 1.350 . S
C4845 H4832 0.929 . S
C4845 C4837 1.433 . S
C4845 N4847 1.384 . S
N4846 C4842 1.427 . S
N4846 C4843 1.384 . S
N4847 C4839 1.427 . S
N4847 C4845 1.384 . S
H4848 C4854 0.930 . S
H4849 C4858 0.930 . S
H4850 C4863 0.929 . S
H4851 C4861 0.929 . S
H4852 C4856 0.929 . S
H4853 C4862 0.929 . S
C4854 H4848 0.930 . S
C4854 C4855 1.367 . S
C4854 C4862 1.378 . S
C4855 C4854 1.367 . S
C4855 C4863 1.433 . S
C4856 H4852 0.929 . S
C4856 C4858 1.378 . S
C4856 C4860 1.350 . S
C4857 C4860 1.463 . S
C4857 C4862 1.350 . S
C4857 N4865 1.427 . S
C4858 H4849 0.930 . S
C4858 C4856 1.378 . S
C4858 C4859 1.367 . S
C4859 C4858 1.367 . S
C4859 C4861 1.433 . S
C4860 C4856 1.350 . S
C4860 C4857 1.463 . S
C4860 N4864 1.427 . S
C4861 H4851 0.929 . S
C4861 C4859 1.433 . S
C4861 N4864 1.384 . S
C4862 H4853 0.929 . S
C4862 C4854 1.378 . S
C4862 C4857 1.350 . S
C4863 H4850 0.929 . S
C4863 C4855 1.433 . S
C4863 N4865 1.384 . S
N4864 C4860 1.427 . S
N4864 C4861 1.384 . S
N4865 C4857 1.427 . S
N4865 C4863 1.384 . S
H4866 C4872 0.930 . S
H4867 C4876 0.930 . S
H4868 C4881 0.929 . S
H4869 C4879 0.929 . S
H4870 C4874 0.929 . S
H4871 C4880 0.929 . S
C4872 H4866 0.930 . S
C4872 C4873 1.367 . S
C4872 C4880 1.378 . S
C4873 C4872 1.367 . S
C4873 C4881 1.433 . S
C4874 H4870 0.929 . S
C4874 C4876 1.378 . S
C4874 C4878 1.350 . S
C4875 C4878 1.463 . S
C4875 C4880 1.350 . S
C4875 N4883 1.427 . S
C4876 H4867 0.930 . S
C4876 C4874 1.378 . S
C4876 C4877 1.367 . S
C4877 C4876 1.367 . S
C4877 C4879 1.433 . S
C4878 C4874 1.350 . S
C4878 C4875 1.463 . S
C4878 N4882 1.427 . S
C4879 H4869 0.929 . S
C4879 C4877 1.433 . S
C4879 N4882 1.384 . S
C4880 H4871 0.929 . S
C4880 C4872 1.378 . S
C4880 C4875 1.350 . S
C4881 H4868 0.929 . S
C4881 C4873 1.433 . S
C4881 N4883 1.384 . S
N4882 C4878 1.427 . S
N4882 C4879 1.384 . S
N4883 C4875 1.427 . S
N4883 C4881 1.384 . S
H4884 C4890 0.930 . S
H4885 C4894 0.930 . S
H4886 C4899 0.929 . S
H4887 C4897 0.929 . S
H4888 C4892 0.929 . S
H4889 C4898 0.929 . S
C4890 H4884 0.930 . S
C4890 C4891 1.367 . S
C4890 C4898 1.378 . S
C4891 C4890 1.367 . S
C4891 C4899 1.433 . S
C4892 H4888 0.929 . S
C4892 C4894 1.378 . S
C4892 C4896 1.350 . S
C4893 C4896 1.463 . S
C4893 C4898 1.350 . S
C4893 N4901 1.427 . S
C4894 H4885 0.930 . S
C4894 C4892 1.378 . S
C4894 C4895 1.367 . S
C4895 C4894 1.367 . S
C4895 C4897 1.433 . S
C4896 C4892 1.350 . S
C4896 C4893 1.463 . S
C4896 N4900 1.427 . S
C4897 H4887 0.929 . S
C4897 C4895 1.433 . S
C4897 N4900 1.384 . S
C4898 H4889 0.929 . S
C4898 C4890 1.378 . S
C4898 C4893 1.350 . S
C4899 H4886 0.929 . S
C4899 C4891 1.433 . S
C4899 N4901 1.384 . S
N4900 C4896 1.427 . S
N4900 C4897 1.384 . S
N4901 C4893 1.427 . S
N4901 C4899 1.384 . S
H4902 C4908 0.930 . S
H4903 C4912 0.930 . S
H4904 C4917 0.929 . S
H4905 C4915 0.929 . S
H4906 C4910 0.929 . S
H4907 C4916 0.929 . S
C4908 H4902 0.930 . S
C4908 C4909 1.367 . S
C4908 C4916 1.378 . S
C4909 C4908 1.367 . S
C4909 C4917 1.433 . S
C4910 H4906 0.929 . S
C4910 C4912 1.378 . S
C4910 C4914 1.350 . S
C4911 C4914 1.463 . S
C4911 C4916 1.350 . S
C4911 N4919 1.427 . S
C4912 H4903 0.930 . S
C4912 C4910 1.378 . S
C4912 C4913 1.367 . S
C4913 C4912 1.367 . S
C4913 C4915 1.433 . S
C4914 C4910 1.350 . S
C4914 C4911 1.463 . S
C4914 N4918 1.427 . S
C4915 H4905 0.929 . S
C4915 C4913 1.433 . S
C4915 N4918 1.384 . S
C4916 H4907 0.929 . S
C4916 C4908 1.378 . S
C4916 C4911 1.350 . S
C4917 H4904 0.929 . S
C4917 C4909 1.433 . S
C4917 N4919 1.384 . S
N4918 C4914 1.427 . S
N4918 C4915 1.384 . S
N4919 C4911 1.427 . S
N4919 C4917 1.384 . S
H4920 C4926 0.930 . S
H4921 C4930 0.930 . S
H4922 C4935 0.929 . S
H4923 C4933 0.929 . S
H4924 C4928 0.929 . S
H4925 C4934 0.929 . S
C4926 H4920 0.930 . S
C4926 C4927 1.367 . S
C4926 C4934 1.378 . S
C4927 C4926 1.367 . S
C4927 C4935 1.433 . S
C4928 H4924 0.929 . S
C4928 C4930 1.378 . S
C4928 C4932 1.350 . S
C4929 C4932 1.463 . S
C4929 C4934 1.350 . S
C4929 N4937 1.427 . S
C4930 H4921 0.930 . S
C4930 C4928 1.378 . S
C4930 C4931 1.367 . S
C4931 C4930 1.367 . S
C4931 C4933 1.433 . S
C4932 C4928 1.350 . S
C4932 C4929 1.463 . S
C4932 N4936 1.427 . S
C4933 H4923 0.929 . S
C4933 C4931 1.433 . S
C4933 N4936 1.384 . S
C4934 H4925 0.929 . S
C4934 C4926 1.378 . S
C4934 C4929 1.350 . S
C4935 H4922 0.929 . S
C4935 C4927 1.433 . S
C4935 N4937 1.384 . S
N4936 C4932 1.427 . S
N4936 C4933 1.384 . S
N4937 C4929 1.427 . S
N4937 C4935 1.384 . S
H4938 C4944 0.930 . S
H4939 C4948 0.930 . S
H4940 C4953 0.929 . S
H4941 C4951 0.929 . S
H4942 C4946 0.929 . S
H4943 C4952 0.929 . S
C4944 H4938 0.930 . S
C4944 C4945 1.367 . S
C4944 C4952 1.378 . S
C4945 C4944 1.367 . S
C4945 C4953 1.433 . S
C4946 H4942 0.929 . S
C4946 C4948 1.378 . S
C4946 C4950 1.350 . S
C4947 C4950 1.463 . S
C4947 C4952 1.350 . S
C4947 N4955 1.427 . S
C4948 H4939 0.930 . S
C4948 C4946 1.378 . S
C4948 C4949 1.367 . S
C4949 C4948 1.367 . S
C4949 C4951 1.433 . S
C4950 C4946 1.350 . S
C4950 C4947 1.463 . S
C4950 N4954 1.427 . S
C4951 H4941 0.929 . S
C4951 C4949 1.433 . S
C4951 N4954 1.384 . S
C4952 H4943 0.929 . S
C4952 C4944 1.378 . S
C4952 C4947 1.350 . S
C4953 H4940 0.929 . S
C4953 C4945 1.433 . S
C4953 N4955 1.384 . S
N4954 C4950 1.427 . S
N4954 C4951 1.384 . S
N4955 C4947 1.427 . S
N4955 C4953 1.384 . S
H4956 C4962 0.930 . S
H4957 C4966 0.930 . S
H4958 C4971 0.929 . S
H4959 C4969 0.929 . S
H4960 C4964 0.929 . S
H4961 C4970 0.929 . S
C4962 H4956 0.930 . S
C4962 C4963 1.367 . S
C4962 C4970 1.378 . S
C4963 C4962 1.367 . S
C4963 C4971 1.433 . S
C4964 H4960 0.929 . S
C4964 C4966 1.378 . S
C4964 C4968 1.350 . S
C4965 C4968 1.463 . S
C4965 C4970 1.350 . S
C4965 N4973 1.427 . S
C4966 H4957 0.930 . S
C4966 C4964 1.378 . S
C4966 C4967 1.367 . S
C4967 C4966 1.367 . S
C4967 C4969 1.433 . S
C4968 C4964 1.350 . S
C4968 C4965 1.463 . S
C4968 N4972 1.427 . S
C4969 H4959 0.929 . S
C4969 C4967 1.433 . S
C4969 N4972 1.384 . S
C4970 H4961 0.929 . S
C4970 C4962 1.378 . S
C4970 C4965 1.350 . S
C4971 H4958 0.929 . S
C4971 C4963 1.433 . S
C4971 N4973 1.384 . S
N4972 C4968 1.427 . S
N4972 C4969 1.384 . S
N4973 C4965 1.427 . S
N4973 C4971 1.384 . S
H4974 C4980 0.930 . S
H4975 C4984 0.930 . S
H4976 C4989 0.929 . S
H4977 C4987 0.929 . S
H4978 C4982 0.929 . S
H4979 C4988 0.929 . S
C4980 H4974 0.930 . S
C4980 C4981 1.367 . S
C4980 C4988 1.378 . S
C4981 C4980 1.367 . S
C4981 C4989 1.433 . S
C4982 H4978 0.929 . S
C4982 C4984 1.378 . S
C4982 C4986 1.350 . S
C4983 C4986 1.463 . S
C4983 C4988 1.350 . S
C4983 N4991 1.427 . S
C4984 H4975 0.930 . S
C4984 C4982 1.378 . S
C4984 C4985 1.367 . S
C4985 C4984 1.367 . S
C4985 C4987 1.433 . S
C4986 C4982 1.350 . S
C4986 C4983 1.463 . S
C4986 N4990 1.427 . S
C4987 H4977 0.929 . S
C4987 C4985 1.433 . S
C4987 N4990 1.384 . S
C4988 H4979 0.929 . S
C4988 C4980 1.378 . S
C4988 C4983 1.350 . S
C4989 H4976 0.929 . S
C4989 C4981 1.433 . S
C4989 N4991 1.384 . S
N4990 C4986 1.427 . S
N4990 C4987 1.384 . S
N4991 C4983 1.427 . S
N4991 C4989 1.384 . S
H4992 C4998 0.930 . S
H4993 C5002 0.930 . S
H4994 C5007 0.929 . S
H4995 C5005 0.929 . S
H4996 C5000 0.929 . S
H4997 C5006 0.929 . S
C4998 H4992 0.930 . S
C4998 C4999 1.367 . S
C4998 C5006 1.378 . S
C4999 C4998 1.367 . S
C4999 C5007 1.433 . S
C5000 H4996 0.929 . S
C5000 C5002 1.378 . S
C5000 C5004 1.350 . S
C5001 C5004 1.463 . S
C5001 C5006 1.350 . S
C5001 N5009 1.427 . S
C5002 H4993 0.930 . S
C5002 C5000 1.378 . S
C5002 C5003 1.367 . S
C5003 C5002 1.367 . S
C5003 C5005 1.433 . S
C5004 C5000 1.350 . S
C5004 C5001 1.463 . S
C5004 N5008 1.427 . S
C5005 H4995 0.929 . S
C5005 C5003 1.433 . S
C5005 N5008 1.384 . S
C5006 H4997 0.929 . S
C5006 C4998 1.378 . S
C5006 C5001 1.350 . S
C5007 H4994 0.929 . S
C5007 C4999 1.433 . S
C5007 N5009 1.384 . S
N5008 C5004 1.427 . S
N5008 C5005 1.384 . S
N5009 C5001 1.427 . S
N5009 C5007 1.384 . S
H5010 C5016 0.930 . S
H5011 C5020 0.930 . S
H5012 C5025 0.929 . S
H5013 C5023 0.929 . S
H5014 C5018 0.929 . S
H5015 C5024 0.929 . S
C5016 H5010 0.930 . S
C5016 C5017 1.367 . S
C5016 C5024 1.378 . S
C5017 C5016 1.367 . S
C5017 C5025 1.433 . S
C5018 H5014 0.929 . S
C5018 C5020 1.378 . S
C5018 C5022 1.350 . S
C5019 C5022 1.463 . S
C5019 C5024 1.350 . S
C5019 N5027 1.427 . S
C5020 H5011 0.930 . S
C5020 C5018 1.378 . S
C5020 C5021 1.367 . S
C5021 C5020 1.367 . S
C5021 C5023 1.433 . S
C5022 C5018 1.350 . S
C5022 C5019 1.463 . S
C5022 N5026 1.427 . S
C5023 H5013 0.929 . S
C5023 C5021 1.433 . S
C5023 N5026 1.384 . S
C5024 H5015 0.929 . S
C5024 C5016 1.378 . S
C5024 C5019 1.350 . S
C5025 H5012 0.929 . S
C5025 C5017 1.433 . S
C5025 N5027 1.384 . S
N5026 C5022 1.427 . S
N5026 C5023 1.384 . S
N5027 C5019 1.427 . S
N5027 C5025 1.384 . S
H5028 C5034 0.930 . S
H5029 C5038 0.930 . S
H5030 C5043 0.929 . S
H5031 C5041 0.929 . S
H5032 C5036 0.929 . S
H5033 C5042 0.929 . S
C5034 H5028 0.930 . S
C5034 C5035 1.367 . S
C5034 C5042 1.378 . S
C5035 C5034 1.367 . S
C5035 C5043 1.433 . S
C5036 H5032 0.929 . S
C5036 C5038 1.378 . S
C5036 C5040 1.350 . S
C5037 C5040 1.463 . S
C5037 C5042 1.350 . S
C5037 N5045 1.427 . S
C5038 H5029 0.930 . S
C5038 C5036 1.378 . S
C5038 C5039 1.367 . S
C5039 C5038 1.367 . S
C5039 C5041 1.433 . S
C5040 C5036 1.350 . S
C5040 C5037 1.463 . S
C5040 N5044 1.427 . S
C5041 H5031 0.929 . S
C5041 C5039 1.433 . S
C5041 N5044 1.384 . S
C5042 H5033 0.929 . S
C5042 C5034 1.378 . S
C5042 C5037 1.350 . S
C5043 H5030 0.929 . S
C5043 C5035 1.433 . S
C5043 N5045 1.384 . S
N5044 C5040 1.427 . S
N5044 C5041 1.384 . S
N5045 C5037 1.427 . S
N5045 C5043 1.384 . S
H5046 C5052 0.930 . S
H5047 C5056 0.930 . S
H5048 C5061 0.929 . S
H5049 C5059 0.929 . S
H5050 C5054 0.929 . S
H5051 C5060 0.929 . S
C5052 H5046 0.930 . S
C5052 C5053 1.367 . S
C5052 C5060 1.378 . S
C5053 C5052 1.367 . S
C5053 C5061 1.433 . S
C5054 H5050 0.929 . S
C5054 C5056 1.378 . S
C5054 C5058 1.350 . S
C5055 C5058 1.463 . S
C5055 C5060 1.350 . S
C5055 N5063 1.427 . S
C5056 H5047 0.930 . S
C5056 C5054 1.378 . S
C5056 C5057 1.367 . S
C5057 C5056 1.367 . S
C5057 C5059 1.433 . S
C5058 C5054 1.350 . S
C5058 C5055 1.463 . S
C5058 N5062 1.427 . S
C5059 H5049 0.929 . S
C5059 C5057 1.433 . S
C5059 N5062 1.384 . S
C5060 H5051 0.929 . S
C5060 C5052 1.378 . S
C5060 C5055 1.350 . S
C5061 H5048 0.929 . S
C5061 C5053 1.433 . S
C5061 N5063 1.384 . S
N5062 C5058 1.427 . S
N5062 C5059 1.384 . S
N5063 C5055 1.427 . S
N5063 C5061 1.384 . S
H5064 C5070 0.930 . S
H5065 C5074 0.930 . S
H5066 C5079 0.929 . S
H5067 C5077 0.929 . S
H5068 C5072 0.929 . S
H5069 C5078 0.929 . S
C5070 H5064 0.930 . S
C5070 C5071 1.367 . S
C5070 C5078 1.378 . S
C5071 C5070 1.367 . S
C5071 C5079 1.433 . S
C5072 H5068 0.929 . S
C5072 C5074 1.378 . S
C5072 C5076 1.350 . S
C5073 C5076 1.463 . S
C5073 C5078 1.350 . S
C5073 N5081 1.427 . S
C5074 H5065 0.930 . S
C5074 C5072 1.378 . S
C5074 C5075 1.367 . S
C5075 C5074 1.367 . S
C5075 C5077 1.433 . S
C5076 C5072 1.350 . S
C5076 C5073 1.463 . S
C5076 N5080 1.427 . S
C5077 H5067 0.929 . S
C5077 C5075 1.433 . S
C5077 N5080 1.384 . S
C5078 H5069 0.929 . S
C5078 C5070 1.378 . S
C5078 C5073 1.350 . S
C5079 H5066 0.929 . S
C5079 C5071 1.433 . S
C5079 N5081 1.384 . S
N5080 C5076 1.427 . S
N5080 C5077 1.384 . S
N5081 C5073 1.427 . S
N5081 C5079 1.384 . S
H5082 C5088 0.930 . S
H5083 C5092 0.930 . S
H5084 C5097 0.929 . S
H5085 C5095 0.929 . S
H5086 C5090 0.929 . S
H5087 C5096 0.929 . S
C5088 H5082 0.930 . S
C5088 C5089 1.367 . S
C5088 C5096 1.378 . S
C5089 C5088 1.367 . S
C5089 C5097 1.433 . S
C5090 H5086 0.929 . S
C5090 C5092 1.378 . S
C5090 C5094 1.350 . S
C5091 C5094 1.463 . S
C5091 C5096 1.350 . S
C5091 N5099 1.427 . S
C5092 H5083 0.930 . S
C5092 C5090 1.378 . S
C5092 C5093 1.367 . S
C5093 C5092 1.367 . S
C5093 C5095 1.433 . S
C5094 C5090 1.350 . S
C5094 C5091 1.463 . S
C5094 N5098 1.427 . S
C5095 H5085 0.929 . S
C5095 C5093 1.433 . S
C5095 N5098 1.384 . S
C5096 H5087 0.929 . S
C5096 C5088 1.378 . S
C5096 C5091 1.350 . S
C5097 H5084 0.929 . S
C5097 C5089 1.433 . S
C5097 N5099 1.384 . S
N5098 C5094 1.427 . S
N5098 C5095 1.384 . S
N5099 C5091 1.427 . S
N5099 C5097 1.384 . S
H5100 C5106 0.930 . S
H5101 C5110 0.930 . S
H5102 C5115 0.929 . S
H5103 C5113 0.929 . S
H5104 C5108 0.929 . S
H5105 C5114 0.929 . S
C5106 H5100 0.930 . S
C5106 C5107 1.367 . S
C5106 C5114 1.378 . S
C5107 C5106 1.367 . S
C5107 C5115 1.433 . S
C5108 H5104 0.929 . S
C5108 C5110 1.378 . S
C5108 C5112 1.350 . S
C5109 C5112 1.463 . S
C5109 C5114 1.350 . S
C5109 N5117 1.427 . S
C5110 H5101 0.930 . S
C5110 C5108 1.378 . S
C5110 C5111 1.367 . S
C5111 C5110 1.367 . S
C5111 C5113 1.433 . S
C5112 C5108 1.350 . S
C5112 C5109 1.463 . S
C5112 N5116 1.427 . S
C5113 H5103 0.929 . S
C5113 C5111 1.433 . S
C5113 N5116 1.384 . S
C5114 H5105 0.929 . S
C5114 C5106 1.378 . S
C5114 C5109 1.350 . S
C5115 H5102 0.929 . S
C5115 C5107 1.433 . S
C5115 N5117 1.384 . S
N5116 C5112 1.427 . S
N5116 C5113 1.384 . S
N5117 C5109 1.427 . S
N5117 C5115 1.384 . S
H5118 C5124 0.930 . S
H5119 C5128 0.930 . S
H5120 C5133 0.929 . S
H5121 C5131 0.929 . S
H5122 C5126 0.929 . S
H5123 C5132 0.929 . S
C5124 H5118 0.930 . S
C5124 C5125 1.367 . S
C5124 C5132 1.378 . S
C5125 C5124 1.367 . S
C5125 C5133 1.433 . S
C5126 H5122 0.929 . S
C5126 C5128 1.378 . S
C5126 C5130 1.350 . S
C5127 C5130 1.463 . S
C5127 C5132 1.350 . S
C5127 N5135 1.427 . S
C5128 H5119 0.930 . S
C5128 C5126 1.378 . S
C5128 C5129 1.367 . S
C5129 C5128 1.367 . S
C5129 C5131 1.433 . S
C5130 C5126 1.350 . S
C5130 C5127 1.463 . S
C5130 N5134 1.427 . S
C5131 H5121 0.929 . S
C5131 C5129 1.433 . S
C5131 N5134 1.384 . S
C5132 H5123 0.929 . S
C5132 C5124 1.378 . S
C5132 C5127 1.350 . S
C5133 H5120 0.929 . S
C5133 C5125 1.433 . S
C5133 N5135 1.384 . S
N5134 C5130 1.427 . S
N5134 C5131 1.384 . S
N5135 C5127 1.427 . S
N5135 C5133 1.384 . S
H5136 C5142 0.930 . S
H5137 C5146 0.930 . S
H5138 C5151 0.929 . S
H5139 C5149 0.929 . S
H5140 C5144 0.929 . S
H5141 C5150 0.929 . S
C5142 H5136 0.930 . S
C5142 C5143 1.367 . S
C5142 C5150 1.378 . S
C5143 C5142 1.367 . S
C5143 C5151 1.433 . S
C5144 H5140 0.929 . S
C5144 C5146 1.378 . S
C5144 C5148 1.350 . S
C5145 C5148 1.463 . S
C5145 C5150 1.350 . S
C5145 N5153 1.427 . S
C5146 H5137 0.930 . S
C5146 C5144 1.378 . S
C5146 C5147 1.367 . S
C5147 C5146 1.367 . S
C5147 C5149 1.433 . S
C5148 C5144 1.350 . S
C5148 C5145 1.463 . S
C5148 N5152 1.427 . S
C5149 H5139 0.929 . S
C5149 C5147 1.433 . S
C5149 N5152 1.384 . S
C5150 H5141 0.929 . S
C5150 C5142 1.378 . S
C5150 C5145 1.350 . S
C5151 H5138 0.929 . S
C5151 C5143 1.433 . S
C5151 N5153 1.384 . S
N5152 C5148 1.427 . S
N5152 C5149 1.384 . S
N5153 C5145 1.427 . S
N5153 C5151 1.384 . S
H5154 C5160 0.930 . S
H5155 C5164 0.930 . S
H5156 C5169 0.929 . S
H5157 C5167 0.929 . S
H5158 C5162 0.929 . S
H5159 C5168 0.929 . S
C5160 H5154 0.930 . S
C5160 C5161 1.367 . S
C5160 C5168 1.378 . S
C5161 C5160 1.367 . S
C5161 C5169 1.433 . S
C5162 H5158 0.929 . S
C5162 C5164 1.378 . S
C5162 C5166 1.350 . S
C5163 C5166 1.463 . S
C5163 C5168 1.350 . S
C5163 N5171 1.427 . S
C5164 H5155 0.930 . S
C5164 C5162 1.378 . S
C5164 C5165 1.367 . S
C5165 C5164 1.367 . S
C5165 C5167 1.433 . S
C5166 C5162 1.350 . S
C5166 C5163 1.463 . S
C5166 N5170 1.427 . S
C5167 H5157 0.929 . S
C5167 C5165 1.433 . S
C5167 N5170 1.384 . S
C5168 H5159 0.929 . S
C5168 C5160 1.378 . S
C5168 C5163 1.350 . S
C5169 H5156 0.929 . S
C5169 C5161 1.433 . S
C5169 N5171 1.384 . S
N5170 C5166 1.427 . S
N5170 C5167 1.384 . S
N5171 C5163 1.427 . S
N5171 C5169 1.384 . S
H5172 C5178 0.930 . S
H5173 C5182 0.930 . S
H5174 C5187 0.929 . S
H5175 C5185 0.929 . S
H5176 C5180 0.929 . S
H5177 C5186 0.929 . S
C5178 H5172 0.930 . S
C5178 C5179 1.367 . S
C5178 C5186 1.378 . S
C5179 C5178 1.367 . S
C5179 C5187 1.433 . S
C5180 H5176 0.929 . S
C5180 C5182 1.378 . S
C5180 C5184 1.350 . S
C5181 C5184 1.463 . S
C5181 C5186 1.350 . S
C5181 N5189 1.427 . S
C5182 H5173 0.930 . S
C5182 C5180 1.378 . S
C5182 C5183 1.367 . S
C5183 C5182 1.367 . S
C5183 C5185 1.433 . S
C5184 C5180 1.350 . S
C5184 C5181 1.463 . S
C5184 N5188 1.427 . S
C5185 H5175 0.929 . S
C5185 C5183 1.433 . S
C5185 N5188 1.384 . S
C5186 H5177 0.929 . S
C5186 C5178 1.378 . S
C5186 C5181 1.350 . S
C5187 H5174 0.929 . S
C5187 C5179 1.433 . S
C5187 N5189 1.384 . S
N5188 C5184 1.427 . S
N5188 C5185 1.384 . S
N5189 C5181 1.427 . S
N5189 C5187 1.384 . S
H5190 C5196 0.930 . S
H5191 C5200 0.930 . S
H5192 C5205 0.929 . S
H5193 C5203 0.929 . S
H5194 C5198 0.929 . S
H5195 C5204 0.929 . S
C5196 H5190 0.930 . S
C5196 C5197 1.367 . S
C5196 C5204 1.378 . S
C5197 C5196 1.367 . S
C5197 C5205 1.433 . S
C5198 H5194 0.929 . S
C5198 C5200 1.378 . S
C5198 C5202 1.350 . S
C5199 C5202 1.463 . S
C5199 C5204 1.350 . S
C5199 N5207 1.427 . S
C5200 H5191 0.930 . S
C5200 C5198 1.378 . S
C5200 C5201 1.367 . S
C5201 C5200 1.367 . S
C5201 C5203 1.433 . S
C5202 C5198 1.350 . S
C5202 C5199 1.463 . S
C5202 N5206 1.427 . S
C5203 H5193 0.929 . S
C5203 C5201 1.433 . S
C5203 N5206 1.384 . S
C5204 H5195 0.929 . S
C5204 C5196 1.378 . S
C5204 C5199 1.350 . S
C5205 H5192 0.929 . S
C5205 C5197 1.433 . S
C5205 N5207 1.384 . S
N5206 C5202 1.427 . S
N5206 C5203 1.384 . S
N5207 C5199 1.427 . S
N5207 C5205 1.384 . S
H5208 C5214 0.930 . S
H5209 C5218 0.930 . S
H5210 C5223 0.929 . S
H5211 C5221 0.929 . S
H5212 C5216 0.929 . S
H5213 C5222 0.929 . S
C5214 H5208 0.930 . S
C5214 C5215 1.367 . S
C5214 C5222 1.378 . S
C5215 C5214 1.367 . S
C5215 C5223 1.433 . S
C5216 H5212 0.929 . S
C5216 C5218 1.378 . S
C5216 C5220 1.350 . S
C5217 C5220 1.463 . S
C5217 C5222 1.350 . S
C5217 N5225 1.427 . S
C5218 H5209 0.930 . S
C5218 C5216 1.378 . S
C5218 C5219 1.367 . S
C5219 C5218 1.367 . S
C5219 C5221 1.433 . S
C5220 C5216 1.350 . S
C5220 C5217 1.463 . S
C5220 N5224 1.427 . S
C5221 H5211 0.929 . S
C5221 C5219 1.433 . S
C5221 N5224 1.384 . S
C5222 H5213 0.929 . S
C5222 C5214 1.378 . S
C5222 C5217 1.350 . S
C5223 H5210 0.929 . S
C5223 C5215 1.433 . S
C5223 N5225 1.384 . S
N5224 C5220 1.427 . S
N5224 C5221 1.384 . S
N5225 C5217 1.427 . S
N5225 C5223 1.384 . S
H5226 C5232 0.930 . S
H5227 C5236 0.930 . S
H5228 C5241 0.929 . S
H5229 C5239 0.929 . S
H5230 C5234 0.929 . S
H5231 C5240 0.929 . S
C5232 H5226 0.930 . S
C5232 C5233 1.367 . S
C5232 C5240 1.378 . S
C5233 C5232 1.367 . S
C5233 C5241 1.433 . S
C5234 H5230 0.929 . S
C5234 C5236 1.378 . S
C5234 C5238 1.350 . S
C5235 C5238 1.463 . S
C5235 C5240 1.350 . S
C5235 N5243 1.427 . S
C5236 H5227 0.930 . S
C5236 C5234 1.378 . S
C5236 C5237 1.367 . S
C5237 C5236 1.367 . S
C5237 C5239 1.433 . S
C5238 C5234 1.350 . S
C5238 C5235 1.463 . S
C5238 N5242 1.427 . S
C5239 H5229 0.929 . S
C5239 C5237 1.433 . S
C5239 N5242 1.384 . S
C5240 H5231 0.929 . S
C5240 C5232 1.378 . S
C5240 C5235 1.350 . S
C5241 H5228 0.929 . S
C5241 C5233 1.433 . S
C5241 N5243 1.384 . S
N5242 C5238 1.427 . S
N5242 C5239 1.384 . S
N5243 C5235 1.427 . S
N5243 C5241 1.384 . S
H5244 C5250 0.930 . S
H5245 C5254 0.930 . S
H5246 C5259 0.929 . S
H5247 C5257 0.929 . S
H5248 C5252 0.929 . S
H5249 C5258 0.929 . S
C5250 H5244 0.930 . S
C5250 C5251 1.367 . S
C5250 C5258 1.378 . S
C5251 C5250 1.367 . S
C5251 C5259 1.433 . S
C5252 H5248 0.929 . S
C5252 C5254 1.378 . S
C5252 C5256 1.350 . S
C5253 C5256 1.463 . S
C5253 C5258 1.350 . S
C5253 N5261 1.427 . S
C5254 H5245 0.930 . S
C5254 C5252 1.378 . S
C5254 C5255 1.367 . S
C5255 C5254 1.367 . S
C5255 C5257 1.433 . S
C5256 C5252 1.350 . S
C5256 C5253 1.463 . S
C5256 N5260 1.427 . S
C5257 H5247 0.929 . S
C5257 C5255 1.433 . S
C5257 N5260 1.384 . S
C5258 H5249 0.929 . S
C5258 C5250 1.378 . S
C5258 C5253 1.350 . S
C5259 H5246 0.929 . S
C5259 C5251 1.433 . S
C5259 N5261 1.384 . S
N5260 C5256 1.427 . S
N5260 C5257 1.384 . S
N5261 C5253 1.427 . S
N5261 C5259 1.384 . S
H5262 C5268 0.930 . S
H5263 C5272 0.930 . S
H5264 C5277 0.929 . S
H5265 C5275 0.929 . S
H5266 C5270 0.929 . S
H5267 C5276 0.929 . S
C5268 H5262 0.930 . S
C5268 C5269 1.367 . S
C5268 C5276 1.378 . S
C5269 C5268 1.367 . S
C5269 C5277 1.433 . S
C5270 H5266 0.929 . S
C5270 C5272 1.378 . S
C5270 C5274 1.350 . S
C5271 C5274 1.463 . S
C5271 C5276 1.350 . S
C5271 N5279 1.427 . S
C5272 H5263 0.930 . S
C5272 C5270 1.378 . S
C5272 C5273 1.367 . S
C5273 C5272 1.367 . S
C5273 C5275 1.433 . S
C5274 C5270 1.350 . S
C5274 C5271 1.463 . S
C5274 N5278 1.427 . S
C5275 H5265 0.929 . S
C5275 C5273 1.433 . S
C5275 N5278 1.384 . S
C5276 H5267 0.929 . S
C5276 C5268 1.378 . S
C5276 C5271 1.350 . S
C5277 H5264 0.929 . S
C5277 C5269 1.433 . S
C5277 N5279 1.384 . S
N5278 C5274 1.427 . S
N5278 C5275 1.384 . S
N5279 C5271 1.427 . S
N5279 C5277 1.384 . S
H5280 C5286 0.930 . S
H5281 C5290 0.930 . S
H5282 C5295 0.929 . S
H5283 C5293 0.929 . S
H5284 C5288 0.929 . S
H5285 C5294 0.929 . S
C5286 H5280 0.930 . S
C5286 C5287 1.367 . S
C5286 C5294 1.378 . S
C5287 C5286 1.367 . S
C5287 C5295 1.433 . S
C5288 H5284 0.929 . S
C5288 C5290 1.378 . S
C5288 C5292 1.350 . S
C5289 C5292 1.463 . S
C5289 C5294 1.350 . S
C5289 N5297 1.427 . S
C5290 H5281 0.930 . S
C5290 C5288 1.378 . S
C5290 C5291 1.367 . S
C5291 C5290 1.367 . S
C5291 C5293 1.433 . S
C5292 C5288 1.350 . S
C5292 C5289 1.463 . S
C5292 N5296 1.427 . S
C5293 H5283 0.929 . S
C5293 C5291 1.433 . S
C5293 N5296 1.384 . S
C5294 H5285 0.929 . S
C5294 C5286 1.378 . S
C5294 C5289 1.350 . S
C5295 H5282 0.929 . S
C5295 C5287 1.433 . S
C5295 N5297 1.384 . S
N5296 C5292 1.427 . S
N5296 C5293 1.384 . S
N5297 C5289 1.427 . S
N5297 C5295 1.384 . S
H5298 C5304 0.930 . S
H5299 C5308 0.930 . S
H5300 C5313 0.929 . S
H5301 C5311 0.929 . S
H5302 C5306 0.929 . S
H5303 C5312 0.929 . S
C5304 H5298 0.930 . S
C5304 C5305 1.367 . S
C5304 C5312 1.378 . S
C5305 C5304 1.367 . S
C5305 C5313 1.433 . S
C5306 H5302 0.929 . S
C5306 C5308 1.378 . S
C5306 C5310 1.350 . S
C5307 C5310 1.463 . S
C5307 C5312 1.350 . S
C5307 N5315 1.427 . S
C5308 H5299 0.930 . S
C5308 C5306 1.378 . S
C5308 C5309 1.367 . S
C5309 C5308 1.367 . S
C5309 C5311 1.433 . S
C5310 C5306 1.350 . S
C5310 C5307 1.463 . S
C5310 N5314 1.427 . S
C5311 H5301 0.929 . S
C5311 C5309 1.433 . S
C5311 N5314 1.384 . S
C5312 H5303 0.929 . S
C5312 C5304 1.378 . S
C5312 C5307 1.350 . S
C5313 H5300 0.929 . S
C5313 C5305 1.433 . S
C5313 N5315 1.384 . S
N5314 C5310 1.427 . S
N5314 C5311 1.384 . S
N5315 C5307 1.427 . S
N5315 C5313 1.384 . S
H5316 C5322 0.930 . S
H5317 C5326 0.930 . S
H5318 C5331 0.929 . S
H5319 C5329 0.929 . S
H5320 C5324 0.929 . S
H5321 C5330 0.929 . S
C5322 H5316 0.930 . S
C5322 C5323 1.367 . S
C5322 C5330 1.378 . S
C5323 C5322 1.367 . S
C5323 C5331 1.433 . S
C5324 H5320 0.929 . S
C5324 C5326 1.378 . S
C5324 C5328 1.350 . S
C5325 C5328 1.463 . S
C5325 C5330 1.350 . S
C5325 N5333 1.427 . S
C5326 H5317 0.930 . S
C5326 C5324 1.378 . S
C5326 C5327 1.367 . S
C5327 C5326 1.367 . S
C5327 C5329 1.433 . S
C5328 C5324 1.350 . S
C5328 C5325 1.463 . S
C5328 N5332 1.427 . S
C5329 H5319 0.929 . S
C5329 C5327 1.433 . S
C5329 N5332 1.384 . S
C5330 H5321 0.929 . S
C5330 C5322 1.378 . S
C5330 C5325 1.350 . S
C5331 H5318 0.929 . S
C5331 C5323 1.433 . S
C5331 N5333 1.384 . S
N5332 C5328 1.427 . S
N5332 C5329 1.384 . S
N5333 C5325 1.427 . S
N5333 C5331 1.384 . S
H5334 C5340 0.930 . S
H5335 C5344 0.930 . S
H5336 C5349 0.929 . S
H5337 C5347 0.929 . S
H5338 C5342 0.929 . S
H5339 C5348 0.929 . S
C5340 H5334 0.930 . S
C5340 C5341 1.367 . S
C5340 C5348 1.378 . S
C5341 C5340 1.367 . S
C5341 C5349 1.433 . S
C5342 H5338 0.929 . S
C5342 C5344 1.378 . S
C5342 C5346 1.350 . S
C5343 C5346 1.463 . S
C5343 C5348 1.350 . S
C5343 N5351 1.427 . S
C5344 H5335 0.930 . S
C5344 C5342 1.378 . S
C5344 C5345 1.367 . S
C5345 C5344 1.367 . S
C5345 C5347 1.433 . S
C5346 C5342 1.350 . S
C5346 C5343 1.463 . S
C5346 N5350 1.427 . S
C5347 H5337 0.929 . S
C5347 C5345 1.433 . S
C5347 N5350 1.384 . S
C5348 H5339 0.929 . S
C5348 C5340 1.378 . S
C5348 C5343 1.350 . S
C5349 H5336 0.929 . S
C5349 C5341 1.433 . S
C5349 N5351 1.384 . S
N5350 C5346 1.427 . S
N5350 C5347 1.384 . S
N5351 C5343 1.427 . S
N5351 C5349 1.384 . S
H5352 C5358 0.930 . S
H5353 C5362 0.930 . S
H5354 C5367 0.929 . S
H5355 C5365 0.929 . S
H5356 C5360 0.929 . S
H5357 C5366 0.929 . S
C5358 H5352 0.930 . S
C5358 C5359 1.367 . S
C5358 C5366 1.378 . S
C5359 C5358 1.367 . S
C5359 C5367 1.433 . S
C5360 H5356 0.929 . S
C5360 C5362 1.378 . S
C5360 C5364 1.350 . S
C5361 C5364 1.463 . S
C5361 C5366 1.350 . S
C5361 N5369 1.427 . S
C5362 H5353 0.930 . S
C5362 C5360 1.378 . S
C5362 C5363 1.367 . S
C5363 C5362 1.367 . S
C5363 C5365 1.433 . S
C5364 C5360 1.350 . S
C5364 C5361 1.463 . S
C5364 N5368 1.427 . S
C5365 H5355 0.929 . S
C5365 C5363 1.433 . S
C5365 N5368 1.384 . S
C5366 H5357 0.929 . S
C5366 C5358 1.378 . S
C5366 C5361 1.350 . S
C5367 H5354 0.929 . S
C5367 C5359 1.433 . S
C5367 N5369 1.384 . S
N5368 C5364 1.427 . S
N5368 C5365 1.384 . S
N5369 C5361 1.427 . S
N5369 C5367 1.384 . S
H5370 C5376 0.930 . S
H5371 C5380 0.930 . S
H5372 C5385 0.929 . S
H5373 C5383 0.929 . S
H5374 C5378 0.929 . S
H5375 C5384 0.929 . S
C5376 H5370 0.930 . S
C5376 C5377 1.367 . S
C5376 C5384 1.378 . S
C5377 C5376 1.367 . S
C5377 C5385 1.433 . S
C5378 H5374 0.929 . S
C5378 C5380 1.378 . S
C5378 C5382 1.350 . S
C5379 C5382 1.463 . S
C5379 C5384 1.350 . S
C5379 N5387 1.427 . S
C5380 H5371 0.930 . S
C5380 C5378 1.378 . S
C5380 C5381 1.367 . S
C5381 C5380 1.367 . S
C5381 C5383 1.433 . S
C5382 C5378 1.350 . S
C5382 C5379 1.463 . S
C5382 N5386 1.427 . S
C5383 H5373 0.929 . S
C5383 C5381 1.433 . S
C5383 N5386 1.384 . S
C5384 H5375 0.929 . S
C5384 C5376 1.378 . S
C5384 C5379 1.350 . S
C5385 H5372 0.929 . S
C5385 C5377 1.433 . S
C5385 N5387 1.384 . S
N5386 C5382 1.427 . S
N5386 C5383 1.384 . S
N5387 C5379 1.427 . S
N5387 C5385 1.384 . S
H5388 C5394 0.930 . S
H5389 C5398 0.930 . S
H5390 C5403 0.929 . S
H5391 C5401 0.929 . S
H5392 C5396 0.929 . S
H5393 C5402 0.929 . S
C5394 H5388 0.930 . S
C5394 C5395 1.367 . S
C5394 C5402 1.378 . S
C5395 C5394 1.367 . S
C5395 C5403 1.433 . S
C5396 H5392 0.929 . S
C5396 C5398 1.378 . S
C5396 C5400 1.350 . S
C5397 C5400 1.463 . S
C5397 C5402 1.350 . S
C5397 N5405 1.427 . S
C5398 H5389 0.930 . S
C5398 C5396 1.378 . S
C5398 C5399 1.367 . S
C5399 C5398 1.367 . S
C5399 C5401 1.433 . S
C5400 C5396 1.350 . S
C5400 C5397 1.463 . S
C5400 N5404 1.427 . S
C5401 H5391 0.929 . S
C5401 C5399 1.433 . S
C5401 N5404 1.384 . S
C5402 H5393 0.929 . S
C5402 C5394 1.378 . S
C5402 C5397 1.350 . S
C5403 H5390 0.929 . S
C5403 C5395 1.433 . S
C5403 N5405 1.384 . S
N5404 C5400 1.427 . S
N5404 C5401 1.384 . S
N5405 C5397 1.427 . S
N5405 C5403 1.384 . S
H5406 C5412 0.930 . S
H5407 C5416 0.930 . S
H5408 C5421 0.929 . S
H5409 C5419 0.929 . S
H5410 C5414 0.929 . S
H5411 C5420 0.929 . S
C5412 H5406 0.930 . S
C5412 C5413 1.367 . S
C5412 C5420 1.378 . S
C5413 C5412 1.367 . S
C5413 C5421 1.433 . S
C5414 H5410 0.929 . S
C5414 C5416 1.378 . S
C5414 C5418 1.350 . S
C5415 C5418 1.463 . S
C5415 C5420 1.350 . S
C5415 N5423 1.427 . S
C5416 H5407 0.930 . S
C5416 C5414 1.378 . S
C5416 C5417 1.367 . S
C5417 C5416 1.367 . S
C5417 C5419 1.433 . S
C5418 C5414 1.350 . S
C5418 C5415 1.463 . S
C5418 N5422 1.427 . S
C5419 H5409 0.929 . S
C5419 C5417 1.433 . S
C5419 N5422 1.384 . S
C5420 H5411 0.929 . S
C5420 C5412 1.378 . S
C5420 C5415 1.350 . S
C5421 H5408 0.929 . S
C5421 C5413 1.433 . S
C5421 N5423 1.384 . S
N5422 C5418 1.427 . S
N5422 C5419 1.384 . S
N5423 C5415 1.427 . S
N5423 C5421 1.384 . S
H5424 C5430 0.930 . S
H5425 C5434 0.930 . S
H5426 C5439 0.929 . S
H5427 C5437 0.929 . S
H5428 C5432 0.929 . S
H5429 C5438 0.929 . S
C5430 H5424 0.930 . S
C5430 C5431 1.367 . S
C5430 C5438 1.378 . S
C5431 C5430 1.367 . S
C5431 C5439 1.433 . S
C5432 H5428 0.929 . S
C5432 C5434 1.378 . S
C5432 C5436 1.350 . S
C5433 C5436 1.463 . S
C5433 C5438 1.350 . S
C5433 N5441 1.427 . S
C5434 H5425 0.930 . S
C5434 C5432 1.378 . S
C5434 C5435 1.367 . S
C5435 C5434 1.367 . S
C5435 C5437 1.433 . S
C5436 C5432 1.350 . S
C5436 C5433 1.463 . S
C5436 N5440 1.427 . S
C5437 H5427 0.929 . S
C5437 C5435 1.433 . S
C5437 N5440 1.384 . S
C5438 H5429 0.929 . S
C5438 C5430 1.378 . S
C5438 C5433 1.350 . S
C5439 H5426 0.929 . S
C5439 C5431 1.433 . S
C5439 N5441 1.384 . S
N5440 C5436 1.427 . S
N5440 C5437 1.384 . S
N5441 C5433 1.427 . S
N5441 C5439 1.384 . S
H5442 C5448 0.930 . S
H5443 C5452 0.930 . S
H5444 C5457 0.929 . S
H5445 C5455 0.929 . S
H5446 C5450 0.929 . S
H5447 C5456 0.929 . S
C5448 H5442 0.930 . S
C5448 C5449 1.367 . S
C5448 C5456 1.378 . S
C5449 C5448 1.367 . S
C5449 C5457 1.433 . S
C5450 H5446 0.929 . S
C5450 C5452 1.378 . S
C5450 C5454 1.350 . S
C5451 C5454 1.463 . S
C5451 C5456 1.350 . S
C5451 N5459 1.427 . S
C5452 H5443 0.930 . S
C5452 C5450 1.378 . S
C5452 C5453 1.367 . S
C5453 C5452 1.367 . S
C5453 C5455 1.433 . S
C5454 C5450 1.350 . S
C5454 C5451 1.463 . S
C5454 N5458 1.427 . S
C5455 H5445 0.929 . S
C5455 C5453 1.433 . S
C5455 N5458 1.384 . S
C5456 H5447 0.929 . S
C5456 C5448 1.378 . S
C5456 C5451 1.350 . S
C5457 H5444 0.929 . S
C5457 C5449 1.433 . S
C5457 N5459 1.384 . S
N5458 C5454 1.427 . S
N5458 C5455 1.384 . S
N5459 C5451 1.427 . S
N5459 C5457 1.384 . S
H5460 C5466 0.930 . S
H5461 C5470 0.930 . S
H5462 C5475 0.929 . S
H5463 C5473 0.929 . S
H5464 C5468 0.929 . S
H5465 C5474 0.929 . S
C5466 H5460 0.930 . S
C5466 C5467 1.367 . S
C5466 C5474 1.378 . S
C5467 C5466 1.367 . S
C5467 C5475 1.433 . S
C5468 H5464 0.929 . S
C5468 C5470 1.378 . S
C5468 C5472 1.350 . S
C5469 C5472 1.463 . S
C5469 C5474 1.350 . S
C5469 N5477 1.427 . S
C5470 H5461 0.930 . S
C5470 C5468 1.378 . S
C5470 C5471 1.367 . S
C5471 C5470 1.367 . S
C5471 C5473 1.433 . S
C5472 C5468 1.350 . S
C5472 C5469 1.463 . S
C5472 N5476 1.427 . S
C5473 H5463 0.929 . S
C5473 C5471 1.433 . S
C5473 N5476 1.384 . S
C5474 H5465 0.929 . S
C5474 C5466 1.378 . S
C5474 C5469 1.350 . S
C5475 H5462 0.929 . S
C5475 C5467 1.433 . S
C5475 N5477 1.384 . S
N5476 C5472 1.427 . S
N5476 C5473 1.384 . S
N5477 C5469 1.427 . S
N5477 C5475 1.384 . S
H5478 C5484 0.930 . S
H5479 C5488 0.930 . S
H5480 C5493 0.929 . S
H5481 C5491 0.929 . S
H5482 C5486 0.929 . S
H5483 C5492 0.929 . S
C5484 H5478 0.930 . S
C5484 C5485 1.367 . S
C5484 C5492 1.378 . S
C5485 C5484 1.367 . S
C5485 C5493 1.433 . S
C5486 H5482 0.929 . S
C5486 C5488 1.378 . S
C5486 C5490 1.350 . S
C5487 C5490 1.463 . S
C5487 C5492 1.350 . S
C5487 N5495 1.427 . S
C5488 H5479 0.930 . S
C5488 C5486 1.378 . S
C5488 C5489 1.367 . S
C5489 C5488 1.367 . S
C5489 C5491 1.433 . S
C5490 C5486 1.350 . S
C5490 C5487 1.463 . S
C5490 N5494 1.427 . S
C5491 H5481 0.929 . S
C5491 C5489 1.433 . S
C5491 N5494 1.384 . S
C5492 H5483 0.929 . S
C5492 C5484 1.378 . S
C5492 C5487 1.350 . S
C5493 H5480 0.929 . S
C5493 C5485 1.433 . S
C5493 N5495 1.384 . S
N5494 C5490 1.427 . S
N5494 C5491 1.384 . S
N5495 C5487 1.427 . S
N5495 C5493 1.384 . S
H5496 C5502 0.930 . S
H5497 C5506 0.930 . S
H5498 C5511 0.929 . S
H5499 C5509 0.929 . S
H5500 C5504 0.929 . S
H5501 C5510 0.929 . S
C5502 H5496 0.930 . S
C5502 C5503 1.367 . S
C5502 C5510 1.378 . S
C5503 C5502 1.367 . S
C5503 C5511 1.433 . S
C5504 H5500 0.929 . S
C5504 C5506 1.378 . S
C5504 C5508 1.350 . S
C5505 C5508 1.463 . S
C5505 C5510 1.350 . S
C5505 N5513 1.427 . S
C5506 H5497 0.930 . S
C5506 C5504 1.378 . S
C5506 C5507 1.367 . S
C5507 C5506 1.367 . S
C5507 C5509 1.433 . S
C5508 C5504 1.350 . S
C5508 C5505 1.463 . S
C5508 N5512 1.427 . S
C5509 H5499 0.929 . S
C5509 C5507 1.433 . S
C5509 N5512 1.384 . S
C5510 H5501 0.929 . S
C5510 C5502 1.378 . S
C5510 C5505 1.350 . S
C5511 H5498 0.929 . S
C5511 C5503 1.433 . S
C5511 N5513 1.384 . S
N5512 C5508 1.427 . S
N5512 C5509 1.384 . S
N5513 C5505 1.427 . S
N5513 C5511 1.384 . S
H5514 C5520 0.930 . S
H5515 C5524 0.930 . S
H5516 C5529 0.929 . S
H5517 C5527 0.929 . S
H5518 C5522 0.929 . S
H5519 C5528 0.929 . S
C5520 H5514 0.930 . S
C5520 C5521 1.367 . S
C5520 C5528 1.378 . S
C5521 C5520 1.367 . S
C5521 C5529 1.433 . S
C5522 H5518 0.929 . S
C5522 C5524 1.378 . S
C5522 C5526 1.350 . S
C5523 C5526 1.463 . S
C5523 C5528 1.350 . S
C5523 N5531 1.427 . S
C5524 H5515 0.930 . S
C5524 C5522 1.378 . S
C5524 C5525 1.367 . S
C5525 C5524 1.367 . S
C5525 C5527 1.433 . S
C5526 C5522 1.350 . S
C5526 C5523 1.463 . S
C5526 N5530 1.427 . S
C5527 H5517 0.929 . S
C5527 C5525 1.433 . S
C5527 N5530 1.384 . S
C5528 H5519 0.929 . S
C5528 C5520 1.378 . S
C5528 C5523 1.350 . S
C5529 H5516 0.929 . S
C5529 C5521 1.433 . S
C5529 N5531 1.384 . S
N5530 C5526 1.427 . S
N5530 C5527 1.384 . S
N5531 C5523 1.427 . S
N5531 C5529 1.384 . S
H5532 C5538 0.930 . S
H5533 C5542 0.930 . S
H5534 C5547 0.929 . S
H5535 C5545 0.929 . S
H5536 C5540 0.929 . S
H5537 C5546 0.929 . S
C5538 H5532 0.930 . S
C5538 C5539 1.367 . S
C5538 C5546 1.378 . S
C5539 C5538 1.367 . S
C5539 C5547 1.433 . S
C5540 H5536 0.929 . S
C5540 C5542 1.378 . S
C5540 C5544 1.350 . S
C5541 C5544 1.463 . S
C5541 C5546 1.350 . S
C5541 N5549 1.427 . S
C5542 H5533 0.930 . S
C5542 C5540 1.378 . S
C5542 C5543 1.367 . S
C5543 C5542 1.367 . S
C5543 C5545 1.433 . S
C5544 C5540 1.350 . S
C5544 C5541 1.463 . S
C5544 N5548 1.427 . S
C5545 H5535 0.929 . S
C5545 C5543 1.433 . S
C5545 N5548 1.384 . S
C5546 H5537 0.929 . S
C5546 C5538 1.378 . S
C5546 C5541 1.350 . S
C5547 H5534 0.929 . S
C5547 C5539 1.433 . S
C5547 N5549 1.384 . S
N5548 C5544 1.427 . S
N5548 C5545 1.384 . S
N5549 C5541 1.427 . S
N5549 C5547 1.384 . S
H5550 C5556 0.930 . S
H5551 C5560 0.930 . S
H5552 C5565 0.929 . S
H5553 C5563 0.929 . S
H5554 C5558 0.929 . S
H5555 C5564 0.929 . S
C5556 H5550 0.930 . S
C5556 C5557 1.367 . S
C5556 C5564 1.378 . S
C5557 C5556 1.367 . S
C5557 C5565 1.433 . S
C5558 H5554 0.929 . S
C5558 C5560 1.378 . S
C5558 C5562 1.350 . S
C5559 C5562 1.463 . S
C5559 C5564 1.350 . S
C5559 N5567 1.427 . S
C5560 H5551 0.930 . S
C5560 C5558 1.378 . S
C5560 C5561 1.367 . S
C5561 C5560 1.367 . S
C5561 C5563 1.433 . S
C5562 C5558 1.350 . S
C5562 C5559 1.463 . S
C5562 N5566 1.427 . S
C5563 H5553 0.929 . S
C5563 C5561 1.433 . S
C5563 N5566 1.384 . S
C5564 H5555 0.929 . S
C5564 C5556 1.378 . S
C5564 C5559 1.350 . S
C5565 H5552 0.929 . S
C5565 C5557 1.433 . S
C5565 N5567 1.384 . S
N5566 C5562 1.427 . S
N5566 C5563 1.384 . S
N5567 C5559 1.427 . S
N5567 C5565 1.384 . S
H5568 C5574 0.930 . S
H5569 C5578 0.930 . S
H5570 C5583 0.929 . S
H5571 C5581 0.929 . S
H5572 C5576 0.929 . S
H5573 C5582 0.929 . S
C5574 H5568 0.930 . S
C5574 C5575 1.367 . S
C5574 C5582 1.378 . S
C5575 C5574 1.367 . S
C5575 C5583 1.433 . S
C5576 H5572 0.929 . S
C5576 C5578 1.378 . S
C5576 C5580 1.350 . S
C5577 C5580 1.463 . S
C5577 C5582 1.350 . S
C5577 N5585 1.427 . S
C5578 H5569 0.930 . S
C5578 C5576 1.378 . S
C5578 C5579 1.367 . S
C5579 C5578 1.367 . S
C5579 C5581 1.433 . S
C5580 C5576 1.350 . S
C5580 C5577 1.463 . S
C5580 N5584 1.427 . S
C5581 H5571 0.929 . S
C5581 C5579 1.433 . S
C5581 N5584 1.384 . S
C5582 H5573 0.929 . S
C5582 C5574 1.378 . S
C5582 C5577 1.350 . S
C5583 H5570 0.929 . S
C5583 C5575 1.433 . S
C5583 N5585 1.384 . S
N5584 C5580 1.427 . S
N5584 C5581 1.384 . S
N5585 C5577 1.427 . S
N5585 C5583 1.384 . S
H5586 C5592 0.930 . S
H5587 C5596 0.930 . S
H5588 C5601 0.929 . S
H5589 C5599 0.929 . S
H5590 C5594 0.929 . S
H5591 C5600 0.929 . S
C5592 H5586 0.930 . S
C5592 C5593 1.367 . S
C5592 C5600 1.378 . S
C5593 C5592 1.367 . S
C5593 C5601 1.433 . S
C5594 H5590 0.929 . S
C5594 C5596 1.378 . S
C5594 C5598 1.350 . S
C5595 C5598 1.463 . S
C5595 C5600 1.350 . S
C5595 N5603 1.427 . S
C5596 H5587 0.930 . S
C5596 C5594 1.378 . S
C5596 C5597 1.367 . S
C5597 C5596 1.367 . S
C5597 C5599 1.433 . S
C5598 C5594 1.350 . S
C5598 C5595 1.463 . S
C5598 N5602 1.427 . S
C5599 H5589 0.929 . S
C5599 C5597 1.433 . S
C5599 N5602 1.384 . S
C5600 H5591 0.929 . S
C5600 C5592 1.378 . S
C5600 C5595 1.350 . S
C5601 H5588 0.929 . S
C5601 C5593 1.433 . S
C5601 N5603 1.384 . S
N5602 C5598 1.427 . S
N5602 C5599 1.384 . S
N5603 C5595 1.427 . S
N5603 C5601 1.384 . S
H5604 C5610 0.930 . S
H5605 C5614 0.930 . S
H5606 C5619 0.929 . S
H5607 C5617 0.929 . S
H5608 C5612 0.929 . S
H5609 C5618 0.929 . S
C5610 H5604 0.930 . S
C5610 C5611 1.367 . S
C5610 C5618 1.378 . S
C5611 C5610 1.367 . S
C5611 C5619 1.433 . S
C5612 H5608 0.929 . S
C5612 C5614 1.378 . S
C5612 C5616 1.350 . S
C5613 C5616 1.463 . S
C5613 C5618 1.350 . S
C5613 N5621 1.427 . S
C5614 H5605 0.930 . S
C5614 C5612 1.378 . S
C5614 C5615 1.367 . S
C5615 C5614 1.367 . S
C5615 C5617 1.433 . S
C5616 C5612 1.350 . S
C5616 C5613 1.463 . S
C5616 N5620 1.427 . S
C5617 H5607 0.929 . S
C5617 C5615 1.433 . S
C5617 N5620 1.384 . S
C5618 H5609 0.929 . S
C5618 C5610 1.378 . S
C5618 C5613 1.350 . S
C5619 H5606 0.929 . S
C5619 C5611 1.433 . S
C5619 N5621 1.384 . S
N5620 C5616 1.427 . S
N5620 C5617 1.384 . S
N5621 C5613 1.427 . S
N5621 C5619 1.384 . S
H5622 C5628 0.930 . S
H5623 C5632 0.930 . S
H5624 C5637 0.929 . S
H5625 C5635 0.929 . S
H5626 C5630 0.929 . S
H5627 C5636 0.929 . S
C5628 H5622 0.930 . S
C5628 C5629 1.367 . S
C5628 C5636 1.378 . S
C5629 C5628 1.367 . S
C5629 C5637 1.433 . S
C5630 H5626 0.929 . S
C5630 C5632 1.378 . S
C5630 C5634 1.350 . S
C5631 C5634 1.463 . S
C5631 C5636 1.350 . S
C5631 N5639 1.427 . S
C5632 H5623 0.930 . S
C5632 C5630 1.378 . S
C5632 C5633 1.367 . S
C5633 C5632 1.367 . S
C5633 C5635 1.433 . S
C5634 C5630 1.350 . S
C5634 C5631 1.463 . S
C5634 N5638 1.427 . S
C5635 H5625 0.929 . S
C5635 C5633 1.433 . S
C5635 N5638 1.384 . S
C5636 H5627 0.929 . S
C5636 C5628 1.378 . S
C5636 C5631 1.350 . S
C5637 H5624 0.929 . S
C5637 C5629 1.433 . S
C5637 N5639 1.384 . S
N5638 C5634 1.427 . S
N5638 C5635 1.384 . S
N5639 C5631 1.427 . S
N5639 C5637 1.384 . S
H5640 C5646 0.930 . S
H5641 C5650 0.930 . S
H5642 C5655 0.929 . S
H5643 C5653 0.929 . S
H5644 C5648 0.929 . S
H5645 C5654 0.929 . S
C5646 H5640 0.930 . S
C5646 C5647 1.367 . S
C5646 C5654 1.378 . S
C5647 C5646 1.367 . S
C5647 C5655 1.433 . S
C5648 H5644 0.929 . S
C5648 C5650 1.378 . S
C5648 C5652 1.350 . S
C5649 C5652 1.463 . S
C5649 C5654 1.350 . S
C5649 N5657 1.427 . S
C5650 H5641 0.930 . S
C5650 C5648 1.378 . S
C5650 C5651 1.367 . S
C5651 C5650 1.367 . S
C5651 C5653 1.433 . S
C5652 C5648 1.350 . S
C5652 C5649 1.463 . S
C5652 N5656 1.427 . S
C5653 H5643 0.929 . S
C5653 C5651 1.433 . S
C5653 N5656 1.384 . S
C5654 H5645 0.929 . S
C5654 C5646 1.378 . S
C5654 C5649 1.350 . S
C5655 H5642 0.929 . S
C5655 C5647 1.433 . S
C5655 N5657 1.384 . S
N5656 C5652 1.427 . S
N5656 C5653 1.384 . S
N5657 C5649 1.427 . S
N5657 C5655 1.384 . S
H5658 C5664 0.930 . S
H5659 C5668 0.930 . S
H5660 C5673 0.929 . S
H5661 C5671 0.929 . S
H5662 C5666 0.929 . S
H5663 C5672 0.929 . S
C5664 H5658 0.930 . S
C5664 C5665 1.367 . S
C5664 C5672 1.378 . S
C5665 C5664 1.367 . S
C5665 C5673 1.433 . S
C5666 H5662 0.929 . S
C5666 C5668 1.378 . S
C5666 C5670 1.350 . S
C5667 C5670 1.463 . S
C5667 C5672 1.350 . S
C5667 N5675 1.427 . S
C5668 H5659 0.930 . S
C5668 C5666 1.378 . S
C5668 C5669 1.367 . S
C5669 C5668 1.367 . S
C5669 C5671 1.433 . S
C5670 C5666 1.350 . S
C5670 C5667 1.463 . S
C5670 N5674 1.427 . S
C5671 H5661 0.929 . S
C5671 C5669 1.433 . S
C5671 N5674 1.384 . S
C5672 H5663 0.929 . S
C5672 C5664 1.378 . S
C5672 C5667 1.350 . S
C5673 H5660 0.929 . S
C5673 C5665 1.433 . S
C5673 N5675 1.384 . S
N5674 C5670 1.427 . S
N5674 C5671 1.384 . S
N5675 C5667 1.427 . S
N5675 C5673 1.384 . S
H5676 C5682 0.930 . S
H5677 C5686 0.930 . S
H5678 C5691 0.929 . S
H5679 C5689 0.929 . S
H5680 C5684 0.929 . S
H5681 C5690 0.929 . S
C5682 H5676 0.930 . S
C5682 C5683 1.367 . S
C5682 C5690 1.378 . S
C5683 C5682 1.367 . S
C5683 C5691 1.433 . S
C5684 H5680 0.929 . S
C5684 C5686 1.378 . S
C5684 C5688 1.350 . S
C5685 C5688 1.463 . S
C5685 C5690 1.350 . S
C5685 N5693 1.427 . S
C5686 H5677 0.930 . S
C5686 C5684 1.378 . S
C5686 C5687 1.367 . S
C5687 C5686 1.367 . S
C5687 C5689 1.433 . S
C5688 C5684 1.350 . S
C5688 C5685 1.463 . S
C5688 N5692 1.427 . S
C5689 H5679 0.929 . S
C5689 C5687 1.433 . S
C5689 N5692 1.384 . S
C5690 H5681 0.929 . S
C5690 C5682 1.378 . S
C5690 C5685 1.350 . S
C5691 H5678 0.929 . S
C5691 C5683 1.433 . S
C5691 N5693 1.384 . S
N5692 C5688 1.427 . S
N5692 C5689 1.384 . S
N5693 C5685 1.427 . S
N5693 C5691 1.384 . S
H5694 C5700 0.930 . S
H5695 C5704 0.930 . S
H5696 C5709 0.929 . S
H5697 C5707 0.929 . S
H5698 C5702 0.929 . S
H5699 C5708 0.929 . S
C5700 H5694 0.930 . S
C5700 C5701 1.367 . S
C5700 C5708 1.378 . S
C5701 C5700 1.367 . S
C5701 C5709 1.433 . S
C5702 H5698 0.929 . S
C5702 C5704 1.378 . S
C5702 C5706 1.350 . S
C5703 C5706 1.463 . S
C5703 C5708 1.350 . S
C5703 N5711 1.427 . S
C5704 H5695 0.930 . S
C5704 C5702 1.378 . S
C5704 C5705 1.367 . S
C5705 C5704 1.367 . S
C5705 C5707 1.433 . S
C5706 C5702 1.350 . S
C5706 C5703 1.463 . S
C5706 N5710 1.427 . S
C5707 H5697 0.929 . S
C5707 C5705 1.433 . S
C5707 N5710 1.384 . S
C5708 H5699 0.929 . S
C5708 C5700 1.378 . S
C5708 C5703 1.350 . S
C5709 H5696 0.929 . S
C5709 C5701 1.433 . S
C5709 N5711 1.384 . S
N5710 C5706 1.427 . S
N5710 C5707 1.384 . S
N5711 C5703 1.427 . S
N5711 C5709 1.384 . S
H5712 C5718 0.930 . S
H5713 C5722 0.930 . S
H5714 C5727 0.929 . S
H5715 C5725 0.929 . S
H5716 C5720 0.929 . S
H5717 C5726 0.929 . S
C5718 H5712 0.930 . S
C5718 C5719 1.367 . S
C5718 C5726 1.378 . S
C5719 C5718 1.367 . S
C5719 C5727 1.433 . S
C5720 H5716 0.929 . S
C5720 C5722 1.378 . S
C5720 C5724 1.350 . S
C5721 C5724 1.463 . S
C5721 C5726 1.350 . S
C5721 N5729 1.427 . S
C5722 H5713 0.930 . S
C5722 C5720 1.378 . S
C5722 C5723 1.367 . S
C5723 C5722 1.367 . S
C5723 C5725 1.433 . S
C5724 C5720 1.350 . S
C5724 C5721 1.463 . S
C5724 N5728 1.427 . S
C5725 H5715 0.929 . S
C5725 C5723 1.433 . S
C5725 N5728 1.384 . S
C5726 H5717 0.929 . S
C5726 C5718 1.378 . S
C5726 C5721 1.350 . S
C5727 H5714 0.929 . S
C5727 C5719 1.433 . S
C5727 N5729 1.384 . S
N5728 C5724 1.427 . S
N5728 C5725 1.384 . S
N5729 C5721 1.427 . S
N5729 C5727 1.384 . S
H5730 C5736 0.930 . S
H5731 C5740 0.930 . S
H5732 C5745 0.929 . S
H5733 C5743 0.929 . S
H5734 C5738 0.929 . S
H5735 C5744 0.929 . S
C5736 H5730 0.930 . S
C5736 C5737 1.367 . S
C5736 C5744 1.378 . S
C5737 C5736 1.367 . S
C5737 C5745 1.433 . S
C5738 H5734 0.929 . S
C5738 C5740 1.378 . S
C5738 C5742 1.350 . S
C5739 C5742 1.463 . S
C5739 C5744 1.350 . S
C5739 N5747 1.427 . S
C5740 H5731 0.930 . S
C5740 C5738 1.378 . S
C5740 C5741 1.367 . S
C5741 C5740 1.367 . S
C5741 C5743 1.433 . S
C5742 C5738 1.350 . S
C5742 C5739 1.463 . S
C5742 N5746 1.427 . S
C5743 H5733 0.929 . S
C5743 C5741 1.433 . S
C5743 N5746 1.384 . S
C5744 H5735 0.929 . S
C5744 C5736 1.378 . S
C5744 C5739 1.350 . S
C5745 H5732 0.929 . S
C5745 C5737 1.433 . S
C5745 N5747 1.384 . S
N5746 C5742 1.427 . S
N5746 C5743 1.384 . S
N5747 C5739 1.427 . S
N5747 C5745 1.384 . S
H5748 C5754 0.930 . S
H5749 C5758 0.930 . S
H5750 C5763 0.929 . S
H5751 C5761 0.929 . S
H5752 C5756 0.929 . S
H5753 C5762 0.929 . S
C5754 H5748 0.930 . S
C5754 C5755 1.367 . S
C5754 C5762 1.378 . S
C5755 C5754 1.367 . S
C5755 C5763 1.433 . S
C5756 H5752 0.929 . S
C5756 C5758 1.378 . S
C5756 C5760 1.350 . S
C5757 C5760 1.463 . S
C5757 C5762 1.350 . S
C5757 N5765 1.427 . S
C5758 H5749 0.930 . S
C5758 C5756 1.378 . S
C5758 C5759 1.367 . S
C5759 C5758 1.367 . S
C5759 C5761 1.433 . S
C5760 C5756 1.350 . S
C5760 C5757 1.463 . S
C5760 N5764 1.427 . S
C5761 H5751 0.929 . S
C5761 C5759 1.433 . S
C5761 N5764 1.384 . S
C5762 H5753 0.929 . S
C5762 C5754 1.378 . S
C5762 C5757 1.350 . S
C5763 H5750 0.929 . S
C5763 C5755 1.433 . S
C5763 N5765 1.384 . S
N5764 C5760 1.427 . S
N5764 C5761 1.384 . S
N5765 C5757 1.427 . S
N5765 C5763 1.384 . S
H5766 C5772 0.930 . S
H5767 C5776 0.930 . S
H5768 C5781 0.929 . S
H5769 C5779 0.929 . S
H5770 C5774 0.929 . S
H5771 C5780 0.929 . S
C5772 H5766 0.930 . S
C5772 C5773 1.367 . S
C5772 C5780 1.378 . S
C5773 C5772 1.367 . S
C5773 C5781 1.433 . S
C5774 H5770 0.929 . S
C5774 C5776 1.378 . S
C5774 C5778 1.350 . S
C5775 C5778 1.463 . S
C5775 C5780 1.350 . S
C5775 N5783 1.427 . S
C5776 H5767 0.930 . S
C5776 C5774 1.378 . S
C5776 C5777 1.367 . S
C5777 C5776 1.367 . S
C5777 C5779 1.433 . S
C5778 C5774 1.350 . S
C5778 C5775 1.463 . S
C5778 N5782 1.427 . S
C5779 H5769 0.929 . S
C5779 C5777 1.433 . S
C5779 N5782 1.384 . S
C5780 H5771 0.929 . S
C5780 C5772 1.378 . S
C5780 C5775 1.350 . S
C5781 H5768 0.929 . S
C5781 C5773 1.433 . S
C5781 N5783 1.384 . S
N5782 C5778 1.427 . S
N5782 C5779 1.384 . S
N5783 C5775 1.427 . S
N5783 C5781 1.384 . S
H5784 C5790 0.930 . S
H5785 C5794 0.930 . S
H5786 C5799 0.929 . S
H5787 C5797 0.929 . S
H5788 C5792 0.929 . S
H5789 C5798 0.929 . S
C5790 H5784 0.930 . S
C5790 C5791 1.367 . S
C5790 C5798 1.378 . S
C5791 C5790 1.367 . S
C5791 C5799 1.433 . S
C5792 H5788 0.929 . S
C5792 C5794 1.378 . S
C5792 C5796 1.350 . S
C5793 C5796 1.463 . S
C5793 C5798 1.350 . S
C5793 N5801 1.427 . S
C5794 H5785 0.930 . S
C5794 C5792 1.378 . S
C5794 C5795 1.367 . S
C5795 C5794 1.367 . S
C5795 C5797 1.433 . S
C5796 C5792 1.350 . S
C5796 C5793 1.463 . S
C5796 N5800 1.427 . S
C5797 H5787 0.929 . S
C5797 C5795 1.433 . S
C5797 N5800 1.384 . S
C5798 H5789 0.929 . S
C5798 C5790 1.378 . S
C5798 C5793 1.350 . S
C5799 H5786 0.929 . S
C5799 C5791 1.433 . S
C5799 N5801 1.384 . S
N5800 C5796 1.427 . S
N5800 C5797 1.384 . S
N5801 C5793 1.427 . S
N5801 C5799 1.384 . S
H5802 C5808 0.930 . S
H5803 C5812 0.930 . S
H5804 C5817 0.929 . S
H5805 C5815 0.929 . S
H5806 C5810 0.929 . S
H5807 C5816 0.929 . S
C5808 H5802 0.930 . S
C5808 C5809 1.367 . S
C5808 C5816 1.378 . S
C5809 C5808 1.367 . S
C5809 C5817 1.433 . S
C5810 H5806 0.929 . S
C5810 C5812 1.378 . S
C5810 C5814 1.350 . S
C5811 C5814 1.463 . S
C5811 C5816 1.350 . S
C5811 N5819 1.427 . S
C5812 H5803 0.930 . S
C5812 C5810 1.378 . S
C5812 C5813 1.367 . S
C5813 C5812 1.367 . S
C5813 C5815 1.433 . S
C5814 C5810 1.350 . S
C5814 C5811 1.463 . S
C5814 N5818 1.427 . S
C5815 H5805 0.929 . S
C5815 C5813 1.433 . S
C5815 N5818 1.384 . S
C5816 H5807 0.929 . S
C5816 C5808 1.378 . S
C5816 C5811 1.350 . S
C5817 H5804 0.929 . S
C5817 C5809 1.433 . S
C5817 N5819 1.384 . S
N5818 C5814 1.427 . S
N5818 C5815 1.384 . S
N5819 C5811 1.427 . S
N5819 C5817 1.384 . S
H5820 C5826 0.930 . S
H5821 C5830 0.930 . S
H5822 C5835 0.929 . S
H5823 C5833 0.929 . S
H5824 C5828 0.929 . S
H5825 C5834 0.929 . S
C5826 H5820 0.930 . S
C5826 C5827 1.367 . S
C5826 C5834 1.378 . S
C5827 C5826 1.367 . S
C5827 C5835 1.433 . S
C5828 H5824 0.929 . S
C5828 C5830 1.378 . S
C5828 C5832 1.350 . S
C5829 C5832 1.463 . S
C5829 C5834 1.350 . S
C5829 N5837 1.427 . S
C5830 H5821 0.930 . S
C5830 C5828 1.378 . S
C5830 C5831 1.367 . S
C5831 C5830 1.367 . S
C5831 C5833 1.433 . S
C5832 C5828 1.350 . S
C5832 C5829 1.463 . S
C5832 N5836 1.427 . S
C5833 H5823 0.929 . S
C5833 C5831 1.433 . S
C5833 N5836 1.384 . S
C5834 H5825 0.929 . S
C5834 C5826 1.378 . S
C5834 C5829 1.350 . S
C5835 H5822 0.929 . S
C5835 C5827 1.433 . S
C5835 N5837 1.384 . S
N5836 C5832 1.427 . S
N5836 C5833 1.384 . S
N5837 C5829 1.427 . S
N5837 C5835 1.384 . S
H5838 C5844 0.930 . S
H5839 C5848 0.930 . S
H5840 C5853 0.929 . S
H5841 C5851 0.929 . S
H5842 C5846 0.929 . S
H5843 C5852 0.929 . S
C5844 H5838 0.930 . S
C5844 C5845 1.367 . S
C5844 C5852 1.378 . S
C5845 C5844 1.367 . S
C5845 C5853 1.433 . S
C5846 H5842 0.929 . S
C5846 C5848 1.378 . S
C5846 C5850 1.350 . S
C5847 C5850 1.463 . S
C5847 C5852 1.350 . S
C5847 N5855 1.427 . S
C5848 H5839 0.930 . S
C5848 C5846 1.378 . S
C5848 C5849 1.367 . S
C5849 C5848 1.367 . S
C5849 C5851 1.433 . S
C5850 C5846 1.350 . S
C5850 C5847 1.463 . S
C5850 N5854 1.427 . S
C5851 H5841 0.929 . S
C5851 C5849 1.433 . S
C5851 N5854 1.384 . S
C5852 H5843 0.929 . S
C5852 C5844 1.378 . S
C5852 C5847 1.350 . S
C5853 H5840 0.929 . S
C5853 C5845 1.433 . S
C5853 N5855 1.384 . S
N5854 C5850 1.427 . S
N5854 C5851 1.384 . S
N5855 C5847 1.427 . S
N5855 C5853 1.384 . S
H5856 C5862 0.930 . S
H5857 C5866 0.930 . S
H5858 C5871 0.929 . S
H5859 C5869 0.929 . S
H5860 C5864 0.929 . S
H5861 C5870 0.929 . S
C5862 H5856 0.930 . S
C5862 C5863 1.367 . S
C5862 C5870 1.378 . S
C5863 C5862 1.367 . S
C5863 C5871 1.433 . S
C5864 H5860 0.929 . S
C5864 C5866 1.378 . S
C5864 C5868 1.350 . S
C5865 C5868 1.463 . S
C5865 C5870 1.350 . S
C5865 N5873 1.427 . S
C5866 H5857 0.930 . S
C5866 C5864 1.378 . S
C5866 C5867 1.367 . S
C5867 C5866 1.367 . S
C5867 C5869 1.433 . S
C5868 C5864 1.350 . S
C5868 C5865 1.463 . S
C5868 N5872 1.427 . S
C5869 H5859 0.929 . S
C5869 C5867 1.433 . S
C5869 N5872 1.384 . S
C5870 H5861 0.929 . S
C5870 C5862 1.378 . S
C5870 C5865 1.350 . S
C5871 H5858 0.929 . S
C5871 C5863 1.433 . S
C5871 N5873 1.384 . S
N5872 C5868 1.427 . S
N5872 C5869 1.384 . S
N5873 C5865 1.427 . S
N5873 C5871 1.384 . S
H5874 C5880 0.930 . S
H5875 C5884 0.930 . S
H5876 C5889 0.929 . S
H5877 C5887 0.929 . S
H5878 C5882 0.929 . S
H5879 C5888 0.929 . S
C5880 H5874 0.930 . S
C5880 C5881 1.367 . S
C5880 C5888 1.378 . S
C5881 C5880 1.367 . S
C5881 C5889 1.433 . S
C5882 H5878 0.929 . S
C5882 C5884 1.378 . S
C5882 C5886 1.350 . S
C5883 C5886 1.463 . S
C5883 C5888 1.350 . S
C5883 N5891 1.427 . S
C5884 H5875 0.930 . S
C5884 C5882 1.378 . S
C5884 C5885 1.367 . S
C5885 C5884 1.367 . S
C5885 C5887 1.433 . S
C5886 C5882 1.350 . S
C5886 C5883 1.463 . S
C5886 N5890 1.427 . S
C5887 H5877 0.929 . S
C5887 C5885 1.433 . S
C5887 N5890 1.384 . S
C5888 H5879 0.929 . S
C5888 C5880 1.378 . S
C5888 C5883 1.350 . S
C5889 H5876 0.929 . S
C5889 C5881 1.433 . S
C5889 N5891 1.384 . S
N5890 C5886 1.427 . S
N5890 C5887 1.384 . S
N5891 C5883 1.427 . S
N5891 C5889 1.384 . S
H5892 C5898 0.930 . S
H5893 C5902 0.930 . S
H5894 C5907 0.929 . S
H5895 C5905 0.929 . S
H5896 C5900 0.929 . S
H5897 C5906 0.929 . S
C5898 H5892 0.930 . S
C5898 C5899 1.367 . S
C5898 C5906 1.378 . S
C5899 C5898 1.367 . S
C5899 C5907 1.433 . S
C5900 H5896 0.929 . S
C5900 C5902 1.378 . S
C5900 C5904 1.350 . S
C5901 C5904 1.463 . S
C5901 C5906 1.350 . S
C5901 N5909 1.427 . S
C5902 H5893 0.930 . S
C5902 C5900 1.378 . S
C5902 C5903 1.367 . S
C5903 C5902 1.367 . S
C5903 C5905 1.433 . S
C5904 C5900 1.350 . S
C5904 C5901 1.463 . S
C5904 N5908 1.427 . S
C5905 H5895 0.929 . S
C5905 C5903 1.433 . S
C5905 N5908 1.384 . S
C5906 H5897 0.929 . S
C5906 C5898 1.378 . S
C5906 C5901 1.350 . S
C5907 H5894 0.929 . S
C5907 C5899 1.433 . S
C5907 N5909 1.384 . S
N5908 C5904 1.427 . S
N5908 C5905 1.384 . S
N5909 C5901 1.427 . S
N5909 C5907 1.384 . S
H5910 C5916 0.930 . S
H5911 C5920 0.930 . S
H5912 C5925 0.929 . S
H5913 C5923 0.929 . S
H5914 C5918 0.929 . S
H5915 C5924 0.929 . S
C5916 H5910 0.930 . S
C5916 C5917 1.367 . S
C5916 C5924 1.378 . S
C5917 C5916 1.367 . S
C5917 C5925 1.433 . S
C5918 H5914 0.929 . S
C5918 C5920 1.378 . S
C5918 C5922 1.350 . S
C5919 C5922 1.463 . S
C5919 C5924 1.350 . S
C5919 N5927 1.427 . S
C5920 H5911 0.930 . S
C5920 C5918 1.378 . S
C5920 C5921 1.367 . S
C5921 C5920 1.367 . S
C5921 C5923 1.433 . S
C5922 C5918 1.350 . S
C5922 C5919 1.463 . S
C5922 N5926 1.427 . S
C5923 H5913 0.929 . S
C5923 C5921 1.433 . S
C5923 N5926 1.384 . S
C5924 H5915 0.929 . S
C5924 C5916 1.378 . S
C5924 C5919 1.350 . S
C5925 H5912 0.929 . S
C5925 C5917 1.433 . S
C5925 N5927 1.384 . S
N5926 C5922 1.427 . S
N5926 C5923 1.384 . S
N5927 C5919 1.427 . S
N5927 C5925 1.384 . S
H5928 C5934 0.930 . S
H5929 C5938 0.930 . S
H5930 C5943 0.929 . S
H5931 C5941 0.929 . S
H5932 C5936 0.929 . S
H5933 C5942 0.929 . S
C5934 H5928 0.930 . S
C5934 C5935 1.367 . S
C5934 C5942 1.378 . S
C5935 C5934 1.367 . S
C5935 C5943 1.433 . S
C5936 H5932 0.929 . S
C5936 C5938 1.378 . S
C5936 C5940 1.350 . S
C5937 C5940 1.463 . S
C5937 C5942 1.350 . S
C5937 N5945 1.427 . S
C5938 H5929 0.930 . S
C5938 C5936 1.378 . S
C5938 C5939 1.367 . S
C5939 C5938 1.367 . S
C5939 C5941 1.433 . S
C5940 C5936 1.350 . S
C5940 C5937 1.463 . S
C5940 N5944 1.427 . S
C5941 H5931 0.929 . S
C5941 C5939 1.433 . S
C5941 N5944 1.384 . S
C5942 H5933 0.929 . S
C5942 C5934 1.378 . S
C5942 C5937 1.350 . S
C5943 H5930 0.929 . S
C5943 C5935 1.433 . S
C5943 N5945 1.384 . S
N5944 C5940 1.427 . S
N5944 C5941 1.384 . S
N5945 C5937 1.427 . S
N5945 C5943 1.384 . S
H5946 C5952 0.930 . S
H5947 C5956 0.930 . S
H5948 C5961 0.929 . S
H5949 C5959 0.929 . S
H5950 C5954 0.929 . S
H5951 C5960 0.929 . S
C5952 H5946 0.930 . S
C5952 C5953 1.367 . S
C5952 C5960 1.378 . S
C5953 C5952 1.367 . S
C5953 C5961 1.433 . S
C5954 H5950 0.929 . S
C5954 C5956 1.378 . S
C5954 C5958 1.350 . S
C5955 C5958 1.463 . S
C5955 C5960 1.350 . S
C5955 N5963 1.427 . S
C5956 H5947 0.930 . S
C5956 C5954 1.378 . S
C5956 C5957 1.367 . S
C5957 C5956 1.367 . S
C5957 C5959 1.433 . S
C5958 C5954 1.350 . S
C5958 C5955 1.463 . S
C5958 N5962 1.427 . S
C5959 H5949 0.929 . S
C5959 C5957 1.433 . S
C5959 N5962 1.384 . S
C5960 H5951 0.929 . S
C5960 C5952 1.378 . S
C5960 C5955 1.350 . S
C5961 H5948 0.929 . S
C5961 C5953 1.433 . S
C5961 N5963 1.384 . S
N5962 C5958 1.427 . S
N5962 C5959 1.384 . S
N5963 C5955 1.427 . S
N5963 C5961 1.384 . S
H5964 C5970 0.930 . S
H5965 C5974 0.930 . S
H5966 C5979 0.929 . S
H5967 C5977 0.929 . S
H5968 C5972 0.929 . S
H5969 C5978 0.929 . S
C5970 H5964 0.930 . S
C5970 C5971 1.367 . S
C5970 C5978 1.378 . S
C5971 C5970 1.367 . S
C5971 C5979 1.433 . S
C5972 H5968 0.929 . S
C5972 C5974 1.378 . S
C5972 C5976 1.350 . S
C5973 C5976 1.463 . S
C5973 C5978 1.350 . S
C5973 N5981 1.427 . S
C5974 H5965 0.930 . S
C5974 C5972 1.378 . S
C5974 C5975 1.367 . S
C5975 C5974 1.367 . S
C5975 C5977 1.433 . S
C5976 C5972 1.350 . S
C5976 C5973 1.463 . S
C5976 N5980 1.427 . S
C5977 H5967 0.929 . S
C5977 C5975 1.433 . S
C5977 N5980 1.384 . S
C5978 H5969 0.929 . S
C5978 C5970 1.378 . S
C5978 C5973 1.350 . S
C5979 H5966 0.929 . S
C5979 C5971 1.433 . S
C5979 N5981 1.384 . S
N5980 C5976 1.427 . S
N5980 C5977 1.384 . S
N5981 C5973 1.427 . S
N5981 C5979 1.384 . S
H5982 C5988 0.930 . S
H5983 C5992 0.930 . S
H5984 C5997 0.929 . S
H5985 C5995 0.929 . S
H5986 C5990 0.929 . S
H5987 C5996 0.929 . S
C5988 H5982 0.930 . S
C5988 C5989 1.367 . S
C5988 C5996 1.378 . S
C5989 C5988 1.367 . S
C5989 C5997 1.433 . S
C5990 H5986 0.929 . S
C5990 C5992 1.378 . S
C5990 C5994 1.350 . S
C5991 C5994 1.463 . S
C5991 C5996 1.350 . S
C5991 N5999 1.427 . S
C5992 H5983 0.930 . S
C5992 C5990 1.378 . S
C5992 C5993 1.367 . S
C5993 C5992 1.367 . S
C5993 C5995 1.433 . S
C5994 C5990 1.350 . S
C5994 C5991 1.463 . S
C5994 N5998 1.427 . S
C5995 H5985 0.929 . S
C5995 C5993 1.433 . S
C5995 N5998 1.384 . S
C5996 H5987 0.929 . S
C5996 C5988 1.378 . S
C5996 C5991 1.350 . S
C5997 H5984 0.929 . S
C5997 C5989 1.433 . S
C5997 N5999 1.384 . S
N5998 C5994 1.427 . S
N5998 C5995 1.384 . S
N5999 C5991 1.427 . S
N5999 C5997 1.384 . S
H6000 C6006 0.930 . S
H6001 C6010 0.930 . S
H6002 C6015 0.929 . S
H6003 C6013 0.929 . S
H6004 C6008 0.929 . S
H6005 C6014 0.929 . S
C6006 H6000 0.930 . S
C6006 C6007 1.367 . S
C6006 C6014 1.378 . S
C6007 C6006 1.367 . S
C6007 C6015 1.433 . S
C6008 H6004 0.929 . S
C6008 C6010 1.378 . S
C6008 C6012 1.350 . S
C6009 C6012 1.463 . S
C6009 C6014 1.350 . S
C6009 N6017 1.427 . S
C6010 H6001 0.930 . S
C6010 C6008 1.378 . S
C6010 C6011 1.367 . S
C6011 C6010 1.367 . S
C6011 C6013 1.433 . S
C6012 C6008 1.350 . S
C6012 C6009 1.463 . S
C6012 N6016 1.427 . S
C6013 H6003 0.929 . S
C6013 C6011 1.433 . S
C6013 N6016 1.384 . S
C6014 H6005 0.929 . S
C6014 C6006 1.378 . S
C6014 C6009 1.350 . S
C6015 H6002 0.929 . S
C6015 C6007 1.433 . S
C6015 N6017 1.384 . S
N6016 C6012 1.427 . S
N6016 C6013 1.384 . S
N6017 C6009 1.427 . S
N6017 C6015 1.384 . S
H6018 C6024 0.930 . S
H6019 C6028 0.930 . S
H6020 C6033 0.929 . S
H6021 C6031 0.929 . S
H6022 C6026 0.929 . S
H6023 C6032 0.929 . S
C6024 H6018 0.930 . S
C6024 C6025 1.367 . S
C6024 C6032 1.378 . S
C6025 C6024 1.367 . S
C6025 C6033 1.433 . S
C6026 H6022 0.929 . S
C6026 C6028 1.378 . S
C6026 C6030 1.350 . S
C6027 C6030 1.463 . S
C6027 C6032 1.350 . S
C6027 N6035 1.427 . S
C6028 H6019 0.930 . S
C6028 C6026 1.378 . S
C6028 C6029 1.367 . S
C6029 C6028 1.367 . S
C6029 C6031 1.433 . S
C6030 C6026 1.350 . S
C6030 C6027 1.463 . S
C6030 N6034 1.427 . S
C6031 H6021 0.929 . S
C6031 C6029 1.433 . S
C6031 N6034 1.384 . S
C6032 H6023 0.929 . S
C6032 C6024 1.378 . S
C6032 C6027 1.350 . S
C6033 H6020 0.929 . S
C6033 C6025 1.433 . S
C6033 N6035 1.384 . S
N6034 C6030 1.427 . S
N6034 C6031 1.384 . S
N6035 C6027 1.427 . S
N6035 C6033 1.384 . S
H6036 C6042 0.930 . S
H6037 C6046 0.930 . S
H6038 C6051 0.929 . S
H6039 C6049 0.929 . S
H6040 C6044 0.929 . S
H6041 C6050 0.929 . S
C6042 H6036 0.930 . S
C6042 C6043 1.367 . S
C6042 C6050 1.378 . S
C6043 C6042 1.367 . S
C6043 C6051 1.433 . S
C6044 H6040 0.929 . S
C6044 C6046 1.378 . S
C6044 C6048 1.350 . S
C6045 C6048 1.463 . S
C6045 C6050 1.350 . S
C6045 N6053 1.427 . S
C6046 H6037 0.930 . S
C6046 C6044 1.378 . S
C6046 C6047 1.367 . S
C6047 C6046 1.367 . S
C6047 C6049 1.433 . S
C6048 C6044 1.350 . S
C6048 C6045 1.463 . S
C6048 N6052 1.427 . S
C6049 H6039 0.929 . S
C6049 C6047 1.433 . S
C6049 N6052 1.384 . S
C6050 H6041 0.929 . S
C6050 C6042 1.378 . S
C6050 C6045 1.350 . S
C6051 H6038 0.929 . S
C6051 C6043 1.433 . S
C6051 N6053 1.384 . S
N6052 C6048 1.427 . S
N6052 C6049 1.384 . S
N6053 C6045 1.427 . S
N6053 C6051 1.384 . S
H6054 C6060 0.930 . S
H6055 C6064 0.930 . S
H6056 C6069 0.929 . S
H6057 C6067 0.929 . S
H6058 C6062 0.929 . S
H6059 C6068 0.929 . S
C6060 H6054 0.930 . S
C6060 C6061 1.367 . S
C6060 C6068 1.378 . S
C6061 C6060 1.367 . S
C6061 C6069 1.433 . S
C6062 H6058 0.929 . S
C6062 C6064 1.378 . S
C6062 C6066 1.350 . S
C6063 C6066 1.463 . S
C6063 C6068 1.350 . S
C6063 N6071 1.427 . S
C6064 H6055 0.930 . S
C6064 C6062 1.378 . S
C6064 C6065 1.367 . S
C6065 C6064 1.367 . S
C6065 C6067 1.433 . S
C6066 C6062 1.350 . S
C6066 C6063 1.463 . S
C6066 N6070 1.427 . S
C6067 H6057 0.929 . S
C6067 C6065 1.433 . S
C6067 N6070 1.384 . S
C6068 H6059 0.929 . S
C6068 C6060 1.378 . S
C6068 C6063 1.350 . S
C6069 H6056 0.929 . S
C6069 C6061 1.433 . S
C6069 N6071 1.384 . S
N6070 C6066 1.427 . S
N6070 C6067 1.384 . S
N6071 C6063 1.427 . S
N6071 C6069 1.384 . S
H6072 C6078 0.930 . S
H6073 C6082 0.930 . S
H6074 C6087 0.929 . S
H6075 C6085 0.929 . S
H6076 C6080 0.929 . S
H6077 C6086 0.929 . S
C6078 H6072 0.930 . S
C6078 C6079 1.367 . S
C6078 C6086 1.378 . S
C6079 C6078 1.367 . S
C6079 C6087 1.433 . S
C6080 H6076 0.929 . S
C6080 C6082 1.378 . S
C6080 C6084 1.350 . S
C6081 C6084 1.463 . S
C6081 C6086 1.350 . S
C6081 N6089 1.427 . S
C6082 H6073 0.930 . S
C6082 C6080 1.378 . S
C6082 C6083 1.367 . S
C6083 C6082 1.367 . S
C6083 C6085 1.433 . S
C6084 C6080 1.350 . S
C6084 C6081 1.463 . S
C6084 N6088 1.427 . S
C6085 H6075 0.929 . S
C6085 C6083 1.433 . S
C6085 N6088 1.384 . S
C6086 H6077 0.929 . S
C6086 C6078 1.378 . S
C6086 C6081 1.350 . S
C6087 H6074 0.929 . S
C6087 C6079 1.433 . S
C6087 N6089 1.384 . S
N6088 C6084 1.427 . S
N6088 C6085 1.384 . S
N6089 C6081 1.427 . S
N6089 C6087 1.384 . S
H6090 C6096 0.930 . S
H6091 C6100 0.930 . S
H6092 C6105 0.929 . S
H6093 C6103 0.929 . S
H6094 C6098 0.929 . S
H6095 C6104 0.929 . S
C6096 H6090 0.930 . S
C6096 C6097 1.367 . S
C6096 C6104 1.378 . S
C6097 C6096 1.367 . S
C6097 C6105 1.433 . S
C6098 H6094 0.929 . S
C6098 C6100 1.378 . S
C6098 C6102 1.350 . S
C6099 C6102 1.463 . S
C6099 C6104 1.350 . S
C6099 N6107 1.427 . S
C6100 H6091 0.930 . S
C6100 C6098 1.378 . S
C6100 C6101 1.367 . S
C6101 C6100 1.367 . S
C6101 C6103 1.433 . S
C6102 C6098 1.350 . S
C6102 C6099 1.463 . S
C6102 N6106 1.427 . S
C6103 H6093 0.929 . S
C6103 C6101 1.433 . S
C6103 N6106 1.384 . S
C6104 H6095 0.929 . S
C6104 C6096 1.378 . S
C6104 C6099 1.350 . S
C6105 H6092 0.929 . S
C6105 C6097 1.433 . S
C6105 N6107 1.384 . S
N6106 C6102 1.427 . S
N6106 C6103 1.384 . S
N6107 C6099 1.427 . S
N6107 C6105 1.384 . S
H6108 C6114 0.930 . S
H6109 C6118 0.930 . S
H6110 C6123 0.929 . S
H6111 C6121 0.929 . S
H6112 C6116 0.929 . S
H6113 C6122 0.929 . S
C6114 H6108 0.930 . S
C6114 C6115 1.367 . S
C6114 C6122 1.378 . S
C6115 C6114 1.367 . S
C6115 C6123 1.433 . S
C6116 H6112 0.929 . S
C6116 C6118 1.378 . S
C6116 C6120 1.350 . S
C6117 C6120 1.463 . S
C6117 C6122 1.350 . S
C6117 N6125 1.427 . S
C6118 H6109 0.930 . S
C6118 C6116 1.378 . S
C6118 C6119 1.367 . S
C6119 C6118 1.367 . S
C6119 C6121 1.433 . S
C6120 C6116 1.350 . S
C6120 C6117 1.463 . S
C6120 N6124 1.427 . S
C6121 H6111 0.929 . S
C6121 C6119 1.433 . S
C6121 N6124 1.384 . S
C6122 H6113 0.929 . S
C6122 C6114 1.378 . S
C6122 C6117 1.350 . S
C6123 H6110 0.929 . S
C6123 C6115 1.433 . S
C6123 N6125 1.384 . S
N6124 C6120 1.427 . S
N6124 C6121 1.384 . S
N6125 C6117 1.427 . S
N6125 C6123 1.384 . S
H6126 C6132 0.930 . S
H6127 C6136 0.930 . S
H6128 C6141 0.929 . S
H6129 C6139 0.929 . S
H6130 C6134 0.929 . S
H6131 C6140 0.929 . S
C6132 H6126 0.930 . S
C6132 C6133 1.367 . S
C6132 C6140 1.378 . S
C6133 C6132 1.367 . S
C6133 C6141 1.433 . S
C6134 H6130 0.929 . S
C6134 C6136 1.378 . S
C6134 C6138 1.350 . S
C6135 C6138 1.463 . S
C6135 C6140 1.350 . S
C6135 N6143 1.427 . S
C6136 H6127 0.930 . S
C6136 C6134 1.378 . S
C6136 C6137 1.367 . S
C6137 C6136 1.367 . S
C6137 C6139 1.433 . S
C6138 C6134 1.350 . S
C6138 C6135 1.463 . S
C6138 N6142 1.427 . S
C6139 H6129 0.929 . S
C6139 C6137 1.433 . S
C6139 N6142 1.384 . S
C6140 H6131 0.929 . S
C6140 C6132 1.378 . S
C6140 C6135 1.350 . S
C6141 H6128 0.929 . S
C6141 C6133 1.433 . S
C6141 N6143 1.384 . S
N6142 C6138 1.427 . S
N6142 C6139 1.384 . S
N6143 C6135 1.427 . S
N6143 C6141 1.384 . S
H6144 C6150 0.930 . S
H6145 C6154 0.930 . S
H6146 C6159 0.929 . S
H6147 C6157 0.922 1_455 S
H6148 C6152 0.929 . S
H6149 C6158 0.929 . S
C6150 H6144 0.930 . S
C6150 C6151 1.367 . S
C6150 C6158 1.378 . S
C6151 C6150 1.367 . S
C6151 C6159 1.433 . S
C6152 H6148 0.929 . S
C6152 C6154 1.378 1_655 S
C6152 C6156 1.350 . S
C6153 C6156 1.463 . S
C6153 C6158 1.350 . S
C6153 N6161 1.427 . S
C6154 H6145 0.930 . S
C6154 C6152 1.378 1_455 S
C6154 C6155 1.367 . S
C6155 C6154 1.367 . S
C6155 C6157 1.432 1_455 S
C6156 C6152 1.350 . S
C6156 C6153 1.463 . S
C6156 N6160 1.427 . S
C6157 H6147 0.922 1_655 S
C6157 C6155 1.432 1_655 S
C6157 N6160 1.385 . S
C6158 H6149 0.929 . S
C6158 C6150 1.378 . S
C6158 C6153 1.350 . S
C6159 H6146 0.929 . S
C6159 C6151 1.433 . S
C6159 N6161 1.384 . S
N6160 C6156 1.427 . S
N6160 C6157 1.385 . S
N6161 C6153 1.427 . S
N6161 C6159 1.384 . S
H6162 C6168 0.930 . S
H6163 C6172 0.930 . S
H6164 C6177 0.929 . S
H6165 C6175 0.929 . S
H6166 C6170 0.929 . S
H6167 C6176 0.929 . S
C6168 H6162 0.930 . S
C6168 C6169 1.367 . S
C6168 C6176 1.378 . S
C6169 C6168 1.367 . S
C6169 C6177 1.433 . S
C6170 H6166 0.929 . S
C6170 C6172 1.378 . S
C6170 C6174 1.350 . S
C6171 C6174 1.463 . S
C6171 C6176 1.350 . S
C6171 N6179 1.427 . S
C6172 H6163 0.930 . S
C6172 C6170 1.378 . S
C6172 C6173 1.367 . S
C6173 C6172 1.367 . S
C6173 C6175 1.433 . S
C6174 C6170 1.350 . S
C6174 C6171 1.463 . S
C6174 N6178 1.427 . S
C6175 H6165 0.929 . S
C6175 C6173 1.433 . S
C6175 N6178 1.384 . S
C6176 H6167 0.929 . S
C6176 C6168 1.378 . S
C6176 C6171 1.350 . S
C6177 H6164 0.929 . S
C6177 C6169 1.433 . S
C6177 N6179 1.384 . S
N6178 C6174 1.427 . S
N6178 C6175 1.384 . S
N6179 C6171 1.427 . S
N6179 C6177 1.384 . S
H6180 C6186 0.930 . S
H6181 C6190 0.928 1_554 S
H6182 C6195 0.929 . S
H6183 C6193 0.929 . S
H6184 C6188 0.929 . S
H6185 C6194 0.929 . S
C6186 H6180 0.930 . S
C6186 C6187 1.367 . S
C6186 C6194 1.378 . S
C6187 C6186 1.367 . S
C6187 C6195 1.433 . S
C6188 H6184 0.929 . S
C6188 C6190 1.416 . S
C6188 C6192 1.350 . S
C6189 C6192 1.463 . S
C6189 C6194 1.350 . S
C6189 N6197 1.427 . S
C6190 H6181 0.928 1_556 S
C6190 C6188 1.416 . S
C6190 C6191 1.334 1_556 S
C6191 C6190 1.334 1_554 S
C6191 C6193 1.433 . S
C6192 C6188 1.350 . S
C6192 C6189 1.463 . S
C6192 N6196 1.427 . S
C6193 H6183 0.929 . S
C6193 C6191 1.433 . S
C6193 N6196 1.384 1_554 S
C6194 H6185 0.929 . S
C6194 C6186 1.378 . S
C6194 C6189 1.350 . S
C6195 H6182 0.929 . S
C6195 C6187 1.433 . S
C6195 N6197 1.384 . S
N6196 C6192 1.427 . S
N6196 C6193 1.384 1_556 S
N6197 C6189 1.427 . S
N6197 C6195 1.384 . S
H6198 C6204 0.930 . S
H6199 C6208 0.930 . S
H6200 C6213 0.929 . S
H6201 C6211 0.929 . S
H6202 C6206 0.929 . S
H6203 C6212 0.929 . S
C6204 H6198 0.930 . S
C6204 C6205 1.367 . S
C6204 C6212 1.378 . S
C6205 C6204 1.367 . S
C6205 C6213 1.433 . S
C6206 H6202 0.929 . S
C6206 C6208 1.378 . S
C6206 C6210 1.350 . S
C6207 C6210 1.463 . S
C6207 C6212 1.350 . S
C6207 N6215 1.427 . S
C6208 H6199 0.930 . S
C6208 C6206 1.378 . S
C6208 C6209 1.367 1_545 S
C6209 C6208 1.367 1_565 S
C6209 C6211 1.433 . S
C6210 C6206 1.350 . S
C6210 C6207 1.463 . S
C6210 N6214 1.435 . S
C6211 H6201 0.929 . S
C6211 C6209 1.433 . S
C6211 N6214 1.376 1_565 S
C6212 H6203 0.929 . S
C6212 C6204 1.378 . S
C6212 C6207 1.350 . S
C6213 H6200 0.929 . S
C6213 C6205 1.433 . S
C6213 N6215 1.384 . S
N6214 C6210 1.435 . S
N6214 C6211 1.376 1_545 S
N6215 C6207 1.427 . S
N6215 C6213 1.384 . S
H6216 C6222 0.930 . S
H6217 C6226 0.930 . S
H6218 C6231 0.929 . S
H6219 C6229 0.929 . S
H6220 C6224 0.929 . S
H6221 C6230 0.929 . S
C6222 H6216 0.930 . S
C6222 C6223 1.367 . S
C6222 C6230 1.378 . S
C6223 C6222 1.367 . S
C6223 C6231 1.433 1_455 S
C6224 H6220 0.929 . S
C6224 C6226 1.378 . S
C6224 C6228 1.350 . S
C6225 C6228 1.463 . S
C6225 C6230 1.350 1_655 S
C6225 N6233 1.427 . S
C6226 H6217 0.930 . S
C6226 C6224 1.378 . S
C6226 C6227 1.367 . S
C6227 C6226 1.367 . S
C6227 C6229 1.433 . S
C6228 C6224 1.350 . S
C6228 C6225 1.463 . S
C6228 N6232 1.427 . S
C6229 H6219 0.929 . S
C6229 C6227 1.433 . S
C6229 N6232 1.384 . S
C6230 H6221 0.929 . S
C6230 C6222 1.378 . S
C6230 C6225 1.350 1_455 S
C6231 H6218 0.929 . S
C6231 C6223 1.433 1_655 S
C6231 N6233 1.384 . S
N6232 C6228 1.427 . S
N6232 C6229 1.384 . S
N6233 C6225 1.427 . S
N6233 C6231 1.384 . S
H6234 C6240 0.930 . S
H6235 C6244 0.930 . S
H6236 C6249 0.929 . S
H6237 C6247 0.929 . S
H6238 C6242 0.929 . S
H6239 C6248 0.949 . S
C6240 H6234 0.930 . S
C6240 C6241 1.367 . S
C6240 C6248 1.444 . S
C6241 C6240 1.367 . S
C6241 C6249 1.433 1_556 S
C6242 H6238 0.929 . S
C6242 C6244 1.378 . S
C6242 C6246 1.350 . S
C6243 C6246 1.463 . S
C6243 C6248 1.270 1_554 S
C6243 N6251 1.427 . S
C6244 H6235 0.930 . S
C6244 C6242 1.378 . S
C6244 C6245 1.367 . S
C6245 C6244 1.367 . S
C6245 C6247 1.433 . S
C6246 C6242 1.350 . S
C6246 C6243 1.463 . S
C6246 N6250 1.427 . S
C6247 H6237 0.929 . S
C6247 C6245 1.433 . S
C6247 N6250 1.384 . S
C6248 H6239 0.949 . S
C6248 C6240 1.444 . S
C6248 C6243 1.270 1_556 S
C6249 H6236 0.929 . S
C6249 C6241 1.433 1_554 S
C6249 N6251 1.384 . S
N6250 C6246 1.427 . S
N6250 C6247 1.384 . S
N6251 C6243 1.427 . S
N6251 C6249 1.384 . S
H6252 C6258 0.930 . S
H6253 C6262 0.930 . S
H6254 C6267 0.929 . S
H6255 C6265 0.929 . S
H6256 C6260 0.929 . S
H6257 C6266 0.929 . S
C6258 H6252 0.930 . S
C6258 C6259 1.367 . S
C6258 C6266 1.378 . S
C6259 C6258 1.367 . S
C6259 C6267 1.433 . S
C6260 H6256 0.929 . S
C6260 C6262 1.378 . S
C6260 C6264 1.350 . S
C6261 C6264 1.463 . S
C6261 C6266 1.350 . S
C6261 N6269 1.427 . S
C6262 H6253 0.930 . S
C6262 C6260 1.378 . S
C6262 C6263 1.367 . S
C6263 C6262 1.367 . S
C6263 C6265 1.433 . S
C6264 C6260 1.350 . S
C6264 C6261 1.463 . S
C6264 N6268 1.427 . S
C6265 H6255 0.929 . S
C6265 C6263 1.433 . S
C6265 N6268 1.384 . S
C6266 H6257 0.929 . S
C6266 C6258 1.378 . S
C6266 C6261 1.350 . S
C6267 H6254 0.929 . S
C6267 C6259 1.433 . S
C6267 N6269 1.384 . S
N6268 C6264 1.427 . S
N6268 C6265 1.384 . S
N6269 C6261 1.427 . S
N6269 C6267 1.384 . S
H6270 C6276 0.930 . S
H6271 C6280 0.930 . S
H6272 C6285 0.929 . S
H6273 C6283 0.929 . S
H6274 C6278 0.929 . S
H6275 C6284 0.929 . S
C6276 H6270 0.930 . S
C6276 C6277 1.367 . S
C6276 C6284 1.378 1_565 S
C6277 C6276 1.367 . S
C6277 C6285 1.433 . S
C6278 H6274 0.929 . S
C6278 C6280 1.378 . S
C6278 C6282 1.350 . S
C6279 C6282 1.463 . S
C6279 C6284 1.350 . S
C6279 N6287 1.427 . S
C6280 H6271 0.930 . S
C6280 C6278 1.378 . S
C6280 C6281 1.367 . S
C6281 C6280 1.367 . S
C6281 C6283 1.433 . S
C6282 C6278 1.350 . S
C6282 C6279 1.463 . S
C6282 N6286 1.427 . S
C6283 H6273 0.929 . S
C6283 C6281 1.433 . S
C6283 N6286 1.384 . S
C6284 H6275 0.929 . S
C6284 C6276 1.378 1_545 S
C6284 C6279 1.350 . S
C6285 H6272 0.929 . S
C6285 C6277 1.433 . S
C6285 N6287 1.384 1_565 S
N6286 C6282 1.427 . S
N6286 C6283 1.384 . S
N6287 C6279 1.427 . S
N6287 C6285 1.384 1_545 S
H6288 C6294 0.930 . S
H6289 C6298 0.930 . S
H6290 C6303 0.924 1_545 S
H6291 C6301 0.929 . S
H6292 C6296 0.929 . S
H6293 C6302 0.929 . S
C6294 H6288 0.930 . S
C6294 C6295 1.367 . S
C6294 C6302 1.378 1_545 S
C6295 C6294 1.367 . S
C6295 C6303 1.417 1_545 S
C6296 H6292 0.929 . S
C6296 C6298 1.378 . S
C6296 C6300 1.350 . S
C6297 C6300 1.463 . S
C6297 C6302 1.350 . S
C6297 N6305 1.427 . S
C6298 H6289 0.930 . S
C6298 C6296 1.378 . S
C6298 C6299 1.367 . S
C6299 C6298 1.367 . S
C6299 C6301 1.433 . S
C6300 C6296 1.350 . S
C6300 C6297 1.463 . S
C6300 N6304 1.427 . S
C6301 H6291 0.929 . S
C6301 C6299 1.433 . S
C6301 N6304 1.384 . S
C6302 H6293 0.929 . S
C6302 C6294 1.378 1_565 S
C6302 C6297 1.350 . S
C6303 H6290 0.924 1_565 S
C6303 C6295 1.417 1_565 S
C6303 N6305 1.403 . S
N6304 C6300 1.427 . S
N6304 C6301 1.384 . S
N6305 C6297 1.427 . S
N6305 C6303 1.403 . S
H6306 C6312 0.930 . S
H6307 C6316 0.930 . S
H6308 C6321 0.929 . S
H6309 C6319 0.929 . S
H6310 C6314 0.930 . S
H6311 C6320 0.929 . S
C6312 H6306 0.930 . S
C6312 C6313 1.367 . S
C6312 C6320 1.378 . S
C6313 C6312 1.367 . S
C6313 C6321 1.433 . S
C6314 H6310 0.930 . S
C6314 C6316 1.385 . S
C6314 C6318 1.341 1_655 S
C6315 C6318 1.463 . S
C6315 C6320 1.350 . S
C6315 N6323 1.427 . S
C6316 H6307 0.930 . S
C6316 C6314 1.385 . S
C6316 C6317 1.367 . S
C6317 C6316 1.367 . S
C6317 C6319 1.433 1_655 S
C6318 C6314 1.341 1_455 S
C6318 C6315 1.463 . S
C6318 N6322 1.427 . S
C6319 H6309 0.929 . S
C6319 C6317 1.433 1_455 S
C6319 N6322 1.384 . S
C6320 H6311 0.929 . S
C6320 C6312 1.378 . S
C6320 C6315 1.350 . S
C6321 H6308 0.929 . S
C6321 C6313 1.433 . S
C6321 N6323 1.384 . S
N6322 C6318 1.427 . S
N6322 C6319 1.384 . S
N6323 C6315 1.427 . S
N6323 C6321 1.384 . S
H6324 C6330 0.930 . S
H6325 C6334 0.930 . S
H6326 C6339 0.929 . S
H6327 C6337 0.929 . S
H6328 C6332 0.929 . S
H6329 C6338 0.929 . S
C6330 H6324 0.930 . S
C6330 C6331 1.367 . S
C6330 C6338 1.378 . S
C6331 C6330 1.367 . S
C6331 C6339 1.433 . S
C6332 H6328 0.929 . S
C6332 C6334 1.378 . S
C6332 C6336 1.350 . S
C6333 C6336 1.463 . S
C6333 C6338 1.350 . S
C6333 N6341 1.427 . S
C6334 H6325 0.930 . S
C6334 C6332 1.378 . S
C6334 C6335 1.367 . S
C6335 C6334 1.367 . S
C6335 C6337 1.433 . S
C6336 C6332 1.350 . S
C6336 C6333 1.463 . S
C6336 N6340 1.427 . S
C6337 H6327 0.929 . S
C6337 C6335 1.433 . S
C6337 N6340 1.384 . S
C6338 H6329 0.929 . S
C6338 C6330 1.378 . S
C6338 C6333 1.350 . S
C6339 H6326 0.929 . S
C6339 C6331 1.433 . S
C6339 N6341 1.384 . S
N6340 C6336 1.427 . S
N6340 C6337 1.384 . S
N6341 C6333 1.427 . S
N6341 C6339 1.384 . S
H6342 C6348 0.930 . S
H6343 C6352 0.930 . S
H6344 C6357 0.929 . S
H6345 C6355 0.929 . S
H6346 C6350 0.929 . S
H6347 C6356 0.929 . S
C6348 H6342 0.930 . S
C6348 C6349 1.367 . S
C6348 C6356 1.378 . S
C6349 C6348 1.367 . S
C6349 C6357 1.433 . S
C6350 H6346 0.929 . S
C6350 C6352 1.378 . S
C6350 C6354 1.350 . S
C6351 C6354 1.463 . S
C6351 C6356 1.350 . S
C6351 N6359 1.427 . S
C6352 H6343 0.930 . S
C6352 C6350 1.378 . S
C6352 C6353 1.367 . S
C6353 C6352 1.367 . S
C6353 C6355 1.433 . S
C6354 C6350 1.350 . S
C6354 C6351 1.463 . S
C6354 N6358 1.427 . S
C6355 H6345 0.929 . S
C6355 C6353 1.433 . S
C6355 N6358 1.384 . S
C6356 H6347 0.929 . S
C6356 C6348 1.378 . S
C6356 C6351 1.350 . S
C6357 H6344 0.929 . S
C6357 C6349 1.433 . S
C6357 N6359 1.384 . S
N6358 C6354 1.427 . S
N6358 C6355 1.384 . S
N6359 C6351 1.427 . S
N6359 C6357 1.384 . S
H6360 C6366 0.930 . S
H6361 C6370 0.930 . S
H6362 C6375 0.929 . S
H6363 C6373 0.929 . S
H6364 C6368 0.929 . S
H6365 C6374 0.929 . S
C6366 H6360 0.930 . S
C6366 C6367 1.367 . S
C6366 C6374 1.378 . S
C6367 C6366 1.367 . S
C6367 C6375 1.433 . S
C6368 H6364 0.929 . S
C6368 C6370 1.378 . S
C6368 C6372 1.350 . S
C6369 C6372 1.463 . S
C6369 C6374 1.350 . S
C6369 N6377 1.427 . S
C6370 H6361 0.930 . S
C6370 C6368 1.378 . S
C6370 C6371 1.367 . S
C6371 C6370 1.367 . S
C6371 C6373 1.433 . S
C6372 C6368 1.350 . S
C6372 C6369 1.463 . S
C6372 N6376 1.427 . S
C6373 H6363 0.929 . S
C6373 C6371 1.433 . S
C6373 N6376 1.384 . S
C6374 H6365 0.929 . S
C6374 C6366 1.378 . S
C6374 C6369 1.350 . S
C6375 H6362 0.929 . S
C6375 C6367 1.433 . S
C6375 N6377 1.384 . S
N6376 C6372 1.427 . S
N6376 C6373 1.384 . S
N6377 C6369 1.427 . S
N6377 C6375 1.384 . S
H6378 C6384 0.930 . S
H6379 C6388 0.930 . S
H6380 C6393 0.929 . S
H6381 C6391 0.929 . S
H6382 C6386 0.929 . S
H6383 C6392 0.929 . S
C6384 H6378 0.930 . S
C6384 C6385 1.367 . S
C6384 C6392 1.378 . S
C6385 C6384 1.367 . S
C6385 C6393 1.433 . S
C6386 H6382 0.929 . S
C6386 C6388 1.378 . S
C6386 C6390 1.350 . S
C6387 C6390 1.463 . S
C6387 C6392 1.350 . S
C6387 N6395 1.427 . S
C6388 H6379 0.930 . S
C6388 C6386 1.378 . S
C6388 C6389 1.367 . S
C6389 C6388 1.367 . S
C6389 C6391 1.433 . S
C6390 C6386 1.350 . S
C6390 C6387 1.463 . S
C6390 N6394 1.427 . S
C6391 H6381 0.929 . S
C6391 C6389 1.433 . S
C6391 N6394 1.384 . S
C6392 H6383 0.929 . S
C6392 C6384 1.378 . S
C6392 C6387 1.350 . S
C6393 H6380 0.929 . S
C6393 C6385 1.433 . S
C6393 N6395 1.384 . S
N6394 C6390 1.427 . S
N6394 C6391 1.384 . S
N6395 C6387 1.427 . S
N6395 C6393 1.384 . S
H6396 C6402 0.930 . S
H6397 C6406 0.930 . S
H6398 C6411 0.929 . S
H6399 C6409 0.929 . S
H6400 C6404 0.929 . S
H6401 C6410 0.929 . S
C6402 H6396 0.930 . S
C6402 C6403 1.367 . S
C6402 C6410 1.378 . S
C6403 C6402 1.367 . S
C6403 C6411 1.433 . S
C6404 H6400 0.929 . S
C6404 C6406 1.455 . S
C6404 C6408 1.350 . S
C6405 C6408 1.463 . S
C6405 C6410 1.350 . S
C6405 N6413 1.427 . S
C6406 H6397 0.930 . S
C6406 C6404 1.455 . S
C6406 C6407 1.298 1_565 S
C6407 C6406 1.298 1_545 S
C6407 C6409 1.433 . S
C6408 C6404 1.350 . S
C6408 C6405 1.463 . S
C6408 N6412 1.427 . S
C6409 H6399 0.929 . S
C6409 C6407 1.433 . S
C6409 N6412 1.384 1_545 S
C6410 H6401 0.929 . S
C6410 C6402 1.378 . S
C6410 C6405 1.350 . S
C6411 H6398 0.929 . S
C6411 C6403 1.433 . S
C6411 N6413 1.384 . S
N6412 C6408 1.427 . S
N6412 C6409 1.384 1_565 S
N6413 C6405 1.427 . S
N6413 C6411 1.384 . S
H6414 C6420 0.930 . S
H6415 C6424 0.930 . S
H6416 C6429 0.929 . S
H6417 C6427 0.929 . S
H6418 C6422 0.929 . S
H6419 C6428 0.929 . S
C6420 H6414 0.930 . S
C6420 C6421 1.367 1_455 S
C6420 C6428 1.378 . S
C6421 C6420 1.367 1_655 S
C6421 C6429 1.433 . S
C6422 H6418 0.929 . S
C6422 C6424 1.378 . S
C6422 C6426 1.350 . S
C6423 C6426 1.463 . S
C6423 C6428 1.350 . S
C6423 N6431 1.337 1_455 S
C6424 H6415 0.930 . S
C6424 C6422 1.378 . S
C6424 C6425 1.367 . S
C6425 C6424 1.367 . S
C6425 C6427 1.433 . S
C6426 C6422 1.350 . S
C6426 C6423 1.463 . S
C6426 N6430 1.427 . S
C6427 H6417 0.929 . S
C6427 C6425 1.433 . S
C6427 N6430 1.384 . S
C6428 H6419 0.929 . S
C6428 C6420 1.378 . S
C6428 C6423 1.350 . S
C6429 H6416 0.929 . S
C6429 C6421 1.433 . S
C6429 N6431 1.459 . S
N6430 C6426 1.427 . S
N6430 C6427 1.384 . S
N6431 C6423 1.337 1_655 S
N6431 C6429 1.459 . S
H6432 C6438 0.930 . S
H6433 C6442 0.930 . S
H6434 C6447 0.929 . S
H6435 C6445 0.929 . S
H6436 C6440 0.929 . S
H6437 C6446 0.926 1_554 S
C6438 H6432 0.930 . S
C6438 C6439 1.367 . S
C6438 C6446 1.358 1_554 S
C6439 C6438 1.367 . S
C6439 C6447 1.433 1_554 S
C6440 H6436 0.929 . S
C6440 C6442 1.378 . S
C6440 C6444 1.350 . S
C6441 C6444 1.463 . S
C6441 C6446 1.373 . S
C6441 N6449 1.427 . S
C6442 H6433 0.930 . S
C6442 C6440 1.378 . S
C6442 C6443 1.367 . S
C6443 C6442 1.367 . S
C6443 C6445 1.433 . S
C6444 C6440 1.350 . S
C6444 C6441 1.463 . S
C6444 N6448 1.427 . S
C6445 H6435 0.929 . S
C6445 C6443 1.433 . S
C6445 N6448 1.384 . S
C6446 H6437 0.926 1_556 S
C6446 C6438 1.358 1_556 S
C6446 C6441 1.373 . S
C6447 H6434 0.929 . S
C6447 C6439 1.433 1_556 S
C6447 N6449 1.384 . S
N6448 C6444 1.427 . S
N6448 C6445 1.384 . S
N6449 C6441 1.427 . S
N6449 C6447 1.384 . S
H6450 C6456 0.930 . S
H6451 C6460 0.930 . S
H6452 C6465 0.929 . S
H6453 C6463 0.929 . S
H6454 C6458 0.929 . S
H6455 C6464 0.929 . S
C6456 H6450 0.930 . S
C6456 C6457 1.367 . S
C6456 C6464 1.378 . S
C6457 C6456 1.367 . S
C6457 C6465 1.433 . S
C6458 H6454 0.929 . S
C6458 C6460 1.378 . S
C6458 C6462 1.350 . S
C6459 C6462 1.463 . S
C6459 C6464 1.350 . S
C6459 N6467 1.427 . S
C6460 H6451 0.930 . S
C6460 C6458 1.378 . S
C6460 C6461 1.367 . S
C6461 C6460 1.367 . S
C6461 C6463 1.433 . S
C6462 C6458 1.350 . S
C6462 C6459 1.463 . S
C6462 N6466 1.427 . S
C6463 H6453 0.929 . S
C6463 C6461 1.433 . S
C6463 N6466 1.384 . S
C6464 H6455 0.929 . S
C6464 C6456 1.378 . S
C6464 C6459 1.350 . S
C6465 H6452 0.929 . S
C6465 C6457 1.433 . S
C6465 N6467 1.384 . S
N6466 C6462 1.427 . S
N6466 C6463 1.384 . S
N6467 C6459 1.427 . S
N6467 C6465 1.384 . S
H6468 C6474 0.930 . S
H6469 C6478 0.930 . S
H6470 C6483 0.929 . S
H6471 C6481 0.929 . S
H6472 C6476 0.929 . S
H6473 C6482 0.929 . S
C6474 H6468 0.930 . S
C6474 C6475 1.367 . S
C6474 C6482 1.378 . S
C6475 C6474 1.367 . S
C6475 C6483 1.433 . S
C6476 H6472 0.929 . S
C6476 C6478 1.378 . S
C6476 C6480 1.350 . S
C6477 C6480 1.463 . S
C6477 C6482 1.350 . S
C6477 N6485 1.427 . S
C6478 H6469 0.930 . S
C6478 C6476 1.378 . S
C6478 C6479 1.367 . S
C6479 C6478 1.367 . S
C6479 C6481 1.433 . S
C6480 C6476 1.350 . S
C6480 C6477 1.463 . S
C6480 N6484 1.427 . S
C6481 H6471 0.929 . S
C6481 C6479 1.433 . S
C6481 N6484 1.384 . S
C6482 H6473 0.929 . S
C6482 C6474 1.378 . S
C6482 C6477 1.350 . S
C6483 H6470 0.929 . S
C6483 C6475 1.433 . S
C6483 N6485 1.384 . S
N6484 C6480 1.427 . S
N6484 C6481 1.384 . S
N6485 C6477 1.427 . S
N6485 C6483 1.384 . S
H6486 C6492 0.930 . S
H6487 C6496 0.930 . S
H6488 C6501 0.928 . S
H6489 C6499 0.929 . S
H6490 C6494 0.929 . S
H6491 C6500 0.929 . S
C6492 H6486 0.930 . S
C6492 C6493 1.367 . S
C6492 C6500 1.378 1_545 S
C6493 C6492 1.367 . S
C6493 C6501 1.369 1_545 S
C6494 H6490 0.929 . S
C6494 C6496 1.378 . S
C6494 C6498 1.350 . S
C6495 C6498 1.463 . S
C6495 C6500 1.350 . S
C6495 N6503 1.427 . S
C6496 H6487 0.930 . S
C6496 C6494 1.378 . S
C6496 C6497 1.367 . S
C6497 C6496 1.367 . S
C6497 C6499 1.433 . S
C6498 C6494 1.350 . S
C6498 C6495 1.463 . S
C6498 N6502 1.427 . S
C6499 H6489 0.929 . S
C6499 C6497 1.433 . S
C6499 N6502 1.384 . S
C6500 H6491 0.929 . S
C6500 C6492 1.378 1_565 S
C6500 C6495 1.350 . S
C6501 H6488 0.928 . S
C6501 C6493 1.369 1_565 S
C6501 N6503 1.458 . S
N6502 C6498 1.427 . S
N6502 C6499 1.384 . S
N6503 C6495 1.427 . S
N6503 C6501 1.458 . S
H6504 C6510 0.930 . S
H6505 C6514 0.930 . S
H6506 C6519 0.929 . S
H6507 C6517 0.929 . S
H6508 C6512 0.929 . S
H6509 C6518 0.929 . S
C6510 H6504 0.930 . S
C6510 C6511 1.367 . S
C6510 C6518 1.378 . S
C6511 C6510 1.367 . S
C6511 C6519 1.433 . S
C6512 H6508 0.929 . S
C6512 C6514 1.378 . S
C6512 C6516 1.350 . S
C6513 C6516 1.463 . S
C6513 C6518 1.350 . S
C6513 N6521 1.427 . S
C6514 H6505 0.930 . S
C6514 C6512 1.378 . S
C6514 C6515 1.367 . S
C6515 C6514 1.367 . S
C6515 C6517 1.433 . S
C6516 C6512 1.350 . S
C6516 C6513 1.463 . S
C6516 N6520 1.427 . S
C6517 H6507 0.929 . S
C6517 C6515 1.433 . S
C6517 N6520 1.384 . S
C6518 H6509 0.929 . S
C6518 C6510 1.378 . S
C6518 C6513 1.350 . S
C6519 H6506 0.929 . S
C6519 C6511 1.433 . S
C6519 N6521 1.384 . S
N6520 C6516 1.427 . S
N6520 C6517 1.384 . S
N6521 C6513 1.427 . S
N6521 C6519 1.384 . S
H6522 C6528 0.930 . S
H6523 C6532 0.930 . S
H6524 C6537 0.929 . S
H6525 C6535 0.929 . S
H6526 C6530 0.929 . S
H6527 C6536 0.929 . S
C6528 H6522 0.930 . S
C6528 C6529 1.367 . S
C6528 C6536 1.378 1_554 S
C6529 C6528 1.367 . S
C6529 C6537 1.433 1_554 S
C6530 H6526 0.929 . S
C6530 C6532 1.378 . S
C6530 C6534 1.350 . S
C6531 C6534 1.463 . S
C6531 C6536 1.350 . S
C6531 N6539 1.427 . S
C6532 H6523 0.930 . S
C6532 C6530 1.378 . S
C6532 C6533 1.367 . S
C6533 C6532 1.367 . S
C6533 C6535 1.433 . S
C6534 C6530 1.350 . S
C6534 C6531 1.463 . S
C6534 N6538 1.427 . S
C6535 H6525 0.929 . S
C6535 C6533 1.433 . S
C6535 N6538 1.384 . S
C6536 H6527 0.929 . S
C6536 C6528 1.378 1_556 S
C6536 C6531 1.350 . S
C6537 H6524 0.929 . S
C6537 C6529 1.433 1_556 S
C6537 N6539 1.384 . S
N6538 C6534 1.427 . S
N6538 C6535 1.384 . S
N6539 C6531 1.427 . S
N6539 C6537 1.384 . S
H6540 C6546 0.930 . S
H6541 C6550 0.930 . S
H6542 C6555 0.929 . S
H6543 C6553 0.929 . S
H6544 C6548 0.929 . S
H6545 C6554 0.929 . S
C6546 H6540 0.930 . S
C6546 C6547 1.367 . S
C6546 C6554 1.378 . S
C6547 C6546 1.367 . S
C6547 C6555 1.433 . S
C6548 H6544 0.929 . S
C6548 C6550 1.378 . S
C6548 C6552 1.350 . S
C6549 C6552 1.463 . S
C6549 C6554 1.350 . S
C6549 N6557 1.427 . S
C6550 H6541 0.930 . S
C6550 C6548 1.378 . S
C6550 C6551 1.367 . S
C6551 C6550 1.367 . S
C6551 C6553 1.433 . S
C6552 C6548 1.350 . S
C6552 C6549 1.463 . S
C6552 N6556 1.427 . S
C6553 H6543 0.929 . S
C6553 C6551 1.433 . S
C6553 N6556 1.384 . S
C6554 H6545 0.929 . S
C6554 C6546 1.378 . S
C6554 C6549 1.350 . S
C6555 H6542 0.929 . S
C6555 C6547 1.433 . S
C6555 N6557 1.384 . S
N6556 C6552 1.427 . S
N6556 C6553 1.384 . S
N6557 C6549 1.427 . S
N6557 C6555 1.384 . S
H6558 C6564 0.930 . S
H6559 C6568 0.930 . S
H6560 C6573 0.929 . S
H6561 C6571 0.929 . S
H6562 C6566 0.929 . S
H6563 C6572 0.929 . S
C6564 H6558 0.930 . S
C6564 C6565 1.367 . S
C6564 C6572 1.378 . S
C6565 C6564 1.367 . S
C6565 C6573 1.433 1_655 S
C6566 H6562 0.929 . S
C6566 C6568 1.378 . S
C6566 C6570 1.350 . S
C6567 C6570 1.463 . S
C6567 C6572 1.350 1_455 S
C6567 N6575 1.427 . S
C6568 H6559 0.930 . S
C6568 C6566 1.378 . S
C6568 C6569 1.367 . S
C6569 C6568 1.367 . S
C6569 C6571 1.433 . S
C6570 C6566 1.350 . S
C6570 C6567 1.463 . S
C6570 N6574 1.427 . S
C6571 H6561 0.929 . S
C6571 C6569 1.433 . S
C6571 N6574 1.384 . S
C6572 H6563 0.929 . S
C6572 C6564 1.378 . S
C6572 C6567 1.350 1_655 S
C6573 H6560 0.929 . S
C6573 C6565 1.433 1_455 S
C6573 N6575 1.384 . S
N6574 C6570 1.427 . S
N6574 C6571 1.384 . S
N6575 C6567 1.427 . S
N6575 C6573 1.384 . S
H6576 C6582 0.930 . S
H6577 C6586 0.930 . S
H6578 C6591 0.929 . S
H6579 C6589 0.929 . S
H6580 C6584 0.929 . S
H6581 C6590 0.929 . S
C6582 H6576 0.930 . S
C6582 C6583 1.367 . S
C6582 C6590 1.378 1_655 S
C6583 C6582 1.367 . S
C6583 C6591 1.433 . S
C6584 H6580 0.929 . S
C6584 C6586 1.378 . S
C6584 C6588 1.350 . S
C6585 C6588 1.463 . S
C6585 C6590 1.350 . S
C6585 N6593 1.427 . S
C6586 H6577 0.930 . S
C6586 C6584 1.378 . S
C6586 C6587 1.367 . S
C6587 C6586 1.367 . S
C6587 C6589 1.433 . S
C6588 C6584 1.350 . S
C6588 C6585 1.463 . S
C6588 N6592 1.427 . S
C6589 H6579 0.929 . S
C6589 C6587 1.433 . S
C6589 N6592 1.384 . S
C6590 H6581 0.929 . S
C6590 C6582 1.378 1_455 S
C6590 C6585 1.350 . S
C6591 H6578 0.929 . S
C6591 C6583 1.433 . S
C6591 N6593 1.384 1_655 S
N6592 C6588 1.427 . S
N6592 C6589 1.384 . S
N6593 C6585 1.427 . S
N6593 C6591 1.384 1_455 S
H6594 C6600 0.930 . S
H6595 C6604 0.930 . S
H6596 C6609 0.929 . S
H6597 C6607 0.929 . S
H6598 C6602 0.929 . S
H6599 C6608 0.929 . S
C6600 H6594 0.930 . S
C6600 C6601 1.367 . S
C6600 C6608 1.378 . S
C6601 C6600 1.367 . S
C6601 C6609 1.433 . S
C6602 H6598 0.929 . S
C6602 C6604 1.378 . S
C6602 C6606 1.350 . S
C6603 C6606 1.463 . S
C6603 C6608 1.350 . S
C6603 N6611 1.427 . S
C6604 H6595 0.930 . S
C6604 C6602 1.378 . S
C6604 C6605 1.367 . S
C6605 C6604 1.367 . S
C6605 C6607 1.433 . S
C6606 C6602 1.350 . S
C6606 C6603 1.463 . S
C6606 N6610 1.427 . S
C6607 H6597 0.929 . S
C6607 C6605 1.433 . S
C6607 N6610 1.384 . S
C6608 H6599 0.929 . S
C6608 C6600 1.378 . S
C6608 C6603 1.350 . S
C6609 H6596 0.929 . S
C6609 C6601 1.433 . S
C6609 N6611 1.384 . S
N6610 C6606 1.427 . S
N6610 C6607 1.384 . S
N6611 C6603 1.427 . S
N6611 C6609 1.384 . S
H6612 C6618 0.930 . S
H6613 C6622 0.938 . S
H6614 C6627 0.929 . S
H6615 C6625 0.929 . S
H6616 C6620 0.929 . S
H6617 C6626 0.929 . S
C6618 H6612 0.930 . S
C6618 C6619 1.367 . S
C6618 C6626 1.378 . S
C6619 C6618 1.367 . S
C6619 C6627 1.433 . S
C6620 H6616 0.929 . S
C6620 C6622 1.378 . S
C6620 C6624 1.350 . S
C6621 C6624 1.463 . S
C6621 C6626 1.350 . S
C6621 N6629 1.427 . S
C6622 H6613 0.938 . S
C6622 C6620 1.378 . S
C6622 C6623 1.367 1_554 S
C6623 C6622 1.367 1_556 S
C6623 C6625 1.433 . S
C6624 C6620 1.350 . S
C6624 C6621 1.463 . S
C6624 N6628 1.427 . S
C6625 H6615 0.929 . S
C6625 C6623 1.433 . S
C6625 N6628 1.384 1_556 S
C6626 H6617 0.929 . S
C6626 C6618 1.378 . S
C6626 C6621 1.350 . S
C6627 H6614 0.929 . S
C6627 C6619 1.433 . S
C6627 N6629 1.384 . S
N6628 C6624 1.427 . S
N6628 C6625 1.384 1_554 S
N6629 C6621 1.427 . S
N6629 C6627 1.384 . S
H6630 C6636 0.945 . S
H6631 C6640 0.930 . S
H6632 C6645 0.929 . S
H6633 C6643 0.929 . S
H6634 C6638 0.929 . S
H6635 C6644 0.929 . S
C6636 H6630 0.945 . S
C6636 C6637 1.404 . S
C6636 C6644 1.330 1_655 S
C6637 C6636 1.404 . S
C6637 C6645 1.433 . S
C6638 H6634 0.929 . S
C6638 C6640 1.378 . S
C6638 C6642 1.350 . S
C6639 C6642 1.463 . S
C6639 C6644 1.350 . S
C6639 N6647 1.427 . S
C6640 H6631 0.930 . S
C6640 C6638 1.378 . S
C6640 C6641 1.367 . S
C6641 C6640 1.367 . S
C6641 C6643 1.433 . S
C6642 C6638 1.350 . S
C6642 C6639 1.463 . S
C6642 N6646 1.427 . S
C6643 H6633 0.929 . S
C6643 C6641 1.433 . S
C6643 N6646 1.384 . S
C6644 H6635 0.929 . S
C6644 C6636 1.330 1_455 S
C6644 C6639 1.350 . S
C6645 H6632 0.929 . S
C6645 C6637 1.433 . S
C6645 N6647 1.384 1_655 S
N6646 C6642 1.427 . S
N6646 C6643 1.384 . S
N6647 C6639 1.427 . S
N6647 C6645 1.384 1_455 S
H6648 C6654 0.930 . S
H6649 C6658 0.930 . S
H6650 C6663 0.929 . S
H6651 C6661 0.929 . S
H6652 C6656 0.929 . S
H6653 C6662 0.929 . S
C6654 H6648 0.930 . S
C6654 C6655 1.367 . S
C6654 C6662 1.378 . S
C6655 C6654 1.367 . S
C6655 C6663 1.433 . S
C6656 H6652 0.929 . S
C6656 C6658 1.378 . S
C6656 C6660 1.350 . S
C6657 C6660 1.463 . S
C6657 C6662 1.350 . S
C6657 N6665 1.427 . S
C6658 H6649 0.930 . S
C6658 C6656 1.378 . S
C6658 C6659 1.367 . S
C6659 C6658 1.367 . S
C6659 C6661 1.433 . S
C6660 C6656 1.350 . S
C6660 C6657 1.463 . S
C6660 N6664 1.427 . S
C6661 H6651 0.929 . S
C6661 C6659 1.433 . S
C6661 N6664 1.384 . S
C6662 H6653 0.929 . S
C6662 C6654 1.378 . S
C6662 C6657 1.350 . S
C6663 H6650 0.929 . S
C6663 C6655 1.433 . S
C6663 N6665 1.384 . S
N6664 C6660 1.427 . S
N6664 C6661 1.384 . S
N6665 C6657 1.427 . S
N6665 C6663 1.384 . S
H6666 C6672 0.930 . S
H6667 C6676 0.930 . S
H6668 C6681 0.927 . S
H6669 C6679 0.929 . S
H6670 C6674 0.929 . S
H6671 C6680 0.929 . S
C6672 H6666 0.930 . S
C6672 C6673 1.367 . S
C6672 C6680 1.378 1_545 S
C6673 C6672 1.367 . S
C6673 C6681 1.388 1_545 S
C6674 H6670 0.929 . S
C6674 C6676 1.378 . S
C6674 C6678 1.350 . S
C6675 C6678 1.463 . S
C6675 C6680 1.350 . S
C6675 N6683 1.427 . S
C6676 H6667 0.930 . S
C6676 C6674 1.378 . S
C6676 C6677 1.367 . S
C6677 C6676 1.367 . S
C6677 C6679 1.433 . S
C6678 C6674 1.350 . S
C6678 C6675 1.463 . S
C6678 N6682 1.427 . S
C6679 H6669 0.929 . S
C6679 C6677 1.433 . S
C6679 N6682 1.384 . S
C6680 H6671 0.929 . S
C6680 C6672 1.378 1_565 S
C6680 C6675 1.350 . S
C6681 H6668 0.927 . S
C6681 C6673 1.388 1_565 S
C6681 N6683 1.437 . S
N6682 C6678 1.427 . S
N6682 C6679 1.384 . S
N6683 C6675 1.427 . S
N6683 C6681 1.437 . S
H6684 C6690 0.930 . S
H6685 C6694 0.930 . S
H6686 C6699 0.929 . S
H6687 C6697 0.936 . S
H6688 C6692 0.929 . S
H6689 C6698 0.929 . S
C6690 H6684 0.930 . S
C6690 C6691 1.367 . S
C6690 C6698 1.378 . S
C6691 C6690 1.367 . S
C6691 C6699 1.433 . S
C6692 H6688 0.929 . S
C6692 C6694 1.378 1_545 S
C6692 C6696 1.350 . S
C6693 C6696 1.463 . S
C6693 C6698 1.350 . S
C6693 N6701 1.427 . S
C6694 H6685 0.930 . S
C6694 C6692 1.378 1_565 S
C6694 C6695 1.367 . S
C6695 C6694 1.367 . S
C6695 C6697 1.452 . S
C6696 C6692 1.350 . S
C6696 C6693 1.463 . S
C6696 N6700 1.427 . S
C6697 H6687 0.936 . S
C6697 C6695 1.452 . S
C6697 N6700 1.359 1_565 S
C6698 H6689 0.929 . S
C6698 C6690 1.378 . S
C6698 C6693 1.350 . S
C6699 H6686 0.929 . S
C6699 C6691 1.433 . S
C6699 N6701 1.384 . S
N6700 C6696 1.427 . S
N6700 C6697 1.359 1_545 S
N6701 C6693 1.427 . S
N6701 C6699 1.384 . S
H6702 C6708 0.930 . S
H6703 C6712 0.930 . S
H6704 C6717 0.929 . S
H6705 C6715 0.929 . S
H6706 C6710 0.929 . S
H6707 C6716 0.929 . S
C6708 H6702 0.930 . S
C6708 C6709 1.367 . S
C6708 C6716 1.378 . S
C6709 C6708 1.367 . S
C6709 C6717 1.433 . S
C6710 H6706 0.929 . S
C6710 C6712 1.378 . S
C6710 C6714 1.350 1_455 S
C6711 C6714 1.463 . S
C6711 C6716 1.350 . S
C6711 N6719 1.427 . S
C6712 H6703 0.930 . S
C6712 C6710 1.378 . S
C6712 C6713 1.367 . S
C6713 C6712 1.367 . S
C6713 C6715 1.433 1_455 S
C6714 C6710 1.350 1_655 S
C6714 C6711 1.463 . S
C6714 N6718 1.427 . S
C6715 H6705 0.929 . S
C6715 C6713 1.433 1_655 S
C6715 N6718 1.384 . S
C6716 H6707 0.929 . S
C6716 C6708 1.378 . S
C6716 C6711 1.350 . S
C6717 H6704 0.929 . S
C6717 C6709 1.433 . S
C6717 N6719 1.384 . S
N6718 C6714 1.427 . S
N6718 C6715 1.384 . S
N6719 C6711 1.427 . S
N6719 C6717 1.384 . S
H6720 C6726 0.930 . S
H6721 C6730 0.930 . S
H6722 C6735 0.929 . S
H6723 C6733 0.929 . S
H6724 C6728 0.929 . S
H6725 C6734 0.929 . S
C6726 H6720 0.930 . S
C6726 C6727 1.367 . S
C6726 C6734 1.378 . S
C6727 C6726 1.367 . S
C6727 C6735 1.433 . S
C6728 H6724 0.929 . S
C6728 C6730 1.378 . S
C6728 C6732 1.350 . S
C6729 C6732 1.463 . S
C6729 C6734 1.350 . S
C6729 N6737 1.427 . S
C6730 H6721 0.930 . S
C6730 C6728 1.378 . S
C6730 C6731 1.367 . S
C6731 C6730 1.367 . S
C6731 C6733 1.433 . S
C6732 C6728 1.350 . S
C6732 C6729 1.463 . S
C6732 N6736 1.427 . S
C6733 H6723 0.929 . S
C6733 C6731 1.433 . S
C6733 N6736 1.384 . S
C6734 H6725 0.929 . S
C6734 C6726 1.378 . S
C6734 C6729 1.350 . S
C6735 H6722 0.929 . S
C6735 C6727 1.433 . S
C6735 N6737 1.384 . S
N6736 C6732 1.427 . S
N6736 C6733 1.384 . S
N6737 C6729 1.427 . S
N6737 C6735 1.384 . S
H6738 C6744 0.930 . S
H6739 C6748 0.930 . S
H6740 C6753 0.929 . S
H6741 C6751 0.929 . S
H6742 C6746 0.929 . S
H6743 C6752 0.929 . S
C6744 H6738 0.930 . S
C6744 C6745 1.367 . S
C6744 C6752 1.378 . S
C6745 C6744 1.367 . S
C6745 C6753 1.433 . S
C6746 H6742 0.929 . S
C6746 C6748 1.378 . S
C6746 C6750 1.350 . S
C6747 C6750 1.463 . S
C6747 C6752 1.350 . S
C6747 N6755 1.427 . S
C6748 H6739 0.930 . S
C6748 C6746 1.378 . S
C6748 C6749 1.367 . S
C6749 C6748 1.367 . S
C6749 C6751 1.433 . S
C6750 C6746 1.350 . S
C6750 C6747 1.463 . S
C6750 N6754 1.427 . S
C6751 H6741 0.929 . S
C6751 C6749 1.433 . S
C6751 N6754 1.384 . S
C6752 H6743 0.929 . S
C6752 C6744 1.378 . S
C6752 C6747 1.350 . S
C6753 H6740 0.929 . S
C6753 C6745 1.433 . S
C6753 N6755 1.384 . S
N6754 C6750 1.427 . S
N6754 C6751 1.384 . S
N6755 C6747 1.427 . S
N6755 C6753 1.384 . S
H6756 C6762 0.930 . S
H6757 C6766 0.930 . S
H6758 C6771 0.929 . S
H6759 C6769 0.929 . S
H6760 C6764 0.929 . S
H6761 C6770 0.929 . S
C6762 H6756 0.930 . S
C6762 C6763 1.367 . S
C6762 C6770 1.378 1_565 S
C6763 C6762 1.367 . S
C6763 C6771 1.433 . S
C6764 H6760 0.929 . S
C6764 C6766 1.378 . S
C6764 C6768 1.350 . S
C6765 C6768 1.463 . S
C6765 C6770 1.350 . S
C6765 N6773 1.427 . S
C6766 H6757 0.930 . S
C6766 C6764 1.378 . S
C6766 C6767 1.367 . S
C6767 C6766 1.367 . S
C6767 C6769 1.433 . S
C6768 C6764 1.350 . S
C6768 C6765 1.463 . S
C6768 N6772 1.427 . S
C6769 H6759 0.929 . S
C6769 C6767 1.433 . S
C6769 N6772 1.384 . S
C6770 H6761 0.929 . S
C6770 C6762 1.378 1_545 S
C6770 C6765 1.350 . S
C6771 H6758 0.929 . S
C6771 C6763 1.433 . S
C6771 N6773 1.384 1_565 S
N6772 C6768 1.427 . S
N6772 C6769 1.384 . S
N6773 C6765 1.427 . S
N6773 C6771 1.384 1_545 S
H6774 C6780 0.930 . S
H6775 C6784 0.930 . S
H6776 C6789 0.929 . S
H6777 C6787 0.929 . S
H6778 C6782 0.923 . S
H6779 C6788 0.929 . S
C6780 H6774 0.930 . S
C6780 C6781 1.367 . S
C6780 C6788 1.378 . S
C6781 C6780 1.367 . S
C6781 C6789 1.433 . S
C6782 H6778 0.923 . S
C6782 C6784 1.371 . S
C6782 C6786 1.358 1_455 S
C6783 C6786 1.463 . S
C6783 C6788 1.350 . S
C6783 N6791 1.427 . S
C6784 H6775 0.930 . S
C6784 C6782 1.371 . S
C6784 C6785 1.367 . S
C6785 C6784 1.367 . S
C6785 C6787 1.433 1_455 S
C6786 C6782 1.358 1_655 S
C6786 C6783 1.463 . S
C6786 N6790 1.427 . S
C6787 H6777 0.929 . S
C6787 C6785 1.433 1_655 S
C6787 N6790 1.384 . S
C6788 H6779 0.929 . S
C6788 C6780 1.378 . S
C6788 C6783 1.350 . S
C6789 H6776 0.929 . S
C6789 C6781 1.433 . S
C6789 N6791 1.384 . S
N6790 C6786 1.427 . S
N6790 C6787 1.384 . S
N6791 C6783 1.427 . S
N6791 C6789 1.384 . S
H6792 C6798 0.930 . S
H6793 C6802 0.938 . S
H6794 C6807 0.929 . S
H6795 C6805 0.929 . S
H6796 C6800 0.929 . S
H6797 C6806 0.929 . S
C6798 H6792 0.930 . S
C6798 C6799 1.367 . S
C6798 C6806 1.378 . S
C6799 C6798 1.367 . S
C6799 C6807 1.433 . S
C6800 H6796 0.929 . S
C6800 C6802 1.378 . S
C6800 C6804 1.350 . S
C6801 C6804 1.463 . S
C6801 C6806 1.350 . S
C6801 N6809 1.427 . S
C6802 H6793 0.938 . S
C6802 C6800 1.378 . S
C6802 C6803 1.367 1_554 S
C6803 C6802 1.367 1_556 S
C6803 C6805 1.433 . S
C6804 C6800 1.350 . S
C6804 C6801 1.463 . S
C6804 N6808 1.427 . S
C6805 H6795 0.929 . S
C6805 C6803 1.433 . S
C6805 N6808 1.384 1_556 S
C6806 H6797 0.929 . S
C6806 C6798 1.378 . S
C6806 C6801 1.350 . S
C6807 H6794 0.929 . S
C6807 C6799 1.433 . S
C6807 N6809 1.384 . S
N6808 C6804 1.427 . S
N6808 C6805 1.384 1_554 S
N6809 C6801 1.427 . S
N6809 C6807 1.384 . S
H6810 C6816 0.930 . S
H6811 C6820 0.930 . S
H6812 C6825 0.929 . S
H6813 C6823 0.929 . S
H6814 C6818 0.929 . S
H6815 C6824 0.929 . S
C6816 H6810 0.930 . S
C6816 C6817 1.367 . S
C6816 C6824 1.378 . S
C6817 C6816 1.367 . S
C6817 C6825 1.433 . S
C6818 H6814 0.929 . S
C6818 C6820 1.378 . S
C6818 C6822 1.350 . S
C6819 C6822 1.463 . S
C6819 C6824 1.350 . S
C6819 N6827 1.427 . S
C6820 H6811 0.930 . S
C6820 C6818 1.378 . S
C6820 C6821 1.367 . S
C6821 C6820 1.367 . S
C6821 C6823 1.433 . S
C6822 C6818 1.350 . S
C6822 C6819 1.463 . S
C6822 N6826 1.427 . S
C6823 H6813 0.929 . S
C6823 C6821 1.433 . S
C6823 N6826 1.384 . S
C6824 H6815 0.929 . S
C6824 C6816 1.378 . S
C6824 C6819 1.350 . S
C6825 H6812 0.929 . S
C6825 C6817 1.433 . S
C6825 N6827 1.384 . S
N6826 C6822 1.427 . S
N6826 C6823 1.384 . S
N6827 C6819 1.427 . S
N6827 C6825 1.384 . S
H6828 C6834 0.930 . S
H6829 C6838 0.930 . S
H6830 C6843 0.929 . S
H6831 C6841 0.929 . S
H6832 C6836 0.929 . S
H6833 C6842 0.929 . S
C6834 H6828 0.930 . S
C6834 C6835 1.367 . S
C6834 C6842 1.378 . S
C6835 C6834 1.367 . S
C6835 C6843 1.433 . S
C6836 H6832 0.929 . S
C6836 C6838 1.378 . S
C6836 C6840 1.350 . S
C6837 C6840 1.463 . S
C6837 C6842 1.350 . S
C6837 N6845 1.427 . S
C6838 H6829 0.930 . S
C6838 C6836 1.378 . S
C6838 C6839 1.367 . S
C6839 C6838 1.367 . S
C6839 C6841 1.433 . S
C6840 C6836 1.350 . S
C6840 C6837 1.463 . S
C6840 N6844 1.427 . S
C6841 H6831 0.929 . S
C6841 C6839 1.433 . S
C6841 N6844 1.384 . S
C6842 H6833 0.929 . S
C6842 C6834 1.378 . S
C6842 C6837 1.350 . S
C6843 H6830 0.929 . S
C6843 C6835 1.433 . S
C6843 N6845 1.384 . S
N6844 C6840 1.427 . S
N6844 C6841 1.384 . S
N6845 C6837 1.427 . S
N6845 C6843 1.384 . S
H6846 C6852 0.930 . S
H6847 C6856 0.930 . S
H6848 C6861 0.929 . S
H6849 C6859 0.929 . S
H6850 C6854 0.929 . S
H6851 C6860 0.929 . S
C6852 H6846 0.930 . S
C6852 C6853 1.367 . S
C6852 C6860 1.378 . S
C6853 C6852 1.367 . S
C6853 C6861 1.433 . S
C6854 H6850 0.929 . S
C6854 C6856 1.378 . S
C6854 C6858 1.350 . S
C6855 C6858 1.463 . S
C6855 C6860 1.350 . S
C6855 N6863 1.427 . S
C6856 H6847 0.930 . S
C6856 C6854 1.378 . S
C6856 C6857 1.367 . S
C6857 C6856 1.367 . S
C6857 C6859 1.433 . S
C6858 C6854 1.350 . S
C6858 C6855 1.463 . S
C6858 N6862 1.427 . S
C6859 H6849 0.929 . S
C6859 C6857 1.433 . S
C6859 N6862 1.384 . S
C6860 H6851 0.929 . S
C6860 C6852 1.378 . S
C6860 C6855 1.350 . S
C6861 H6848 0.929 . S
C6861 C6853 1.433 . S
C6861 N6863 1.384 . S
N6862 C6858 1.427 . S
N6862 C6859 1.384 . S
N6863 C6855 1.427 . S
N6863 C6861 1.384 . S
H6864 C6870 0.930 . S
H6865 C6874 0.930 . S
H6866 C6879 0.929 . S
H6867 C6877 0.929 . S
H6868 C6872 0.929 . S
H6869 C6878 0.929 . S
C6870 H6864 0.930 . S
C6870 C6871 1.367 . S
C6870 C6878 1.378 . S
C6871 C6870 1.367 . S
C6871 C6879 1.433 . S
C6872 H6868 0.929 . S
C6872 C6874 1.378 . S
C6872 C6876 1.350 . S
C6873 C6876 1.463 . S
C6873 C6878 1.350 . S
C6873 N6881 1.427 . S
C6874 H6865 0.930 . S
C6874 C6872 1.378 . S
C6874 C6875 1.367 . S
C6875 C6874 1.367 . S
C6875 C6877 1.433 . S
C6876 C6872 1.350 . S
C6876 C6873 1.463 . S
C6876 N6880 1.427 . S
C6877 H6867 0.929 . S
C6877 C6875 1.433 . S
C6877 N6880 1.384 . S
C6878 H6869 0.929 . S
C6878 C6870 1.378 . S
C6878 C6873 1.350 . S
C6879 H6866 0.929 . S
C6879 C6871 1.433 . S
C6879 N6881 1.384 . S
N6880 C6876 1.427 . S
N6880 C6877 1.384 . S
N6881 C6873 1.427 . S
N6881 C6879 1.384 . S
H6882 C6888 0.930 . S
H6883 C6892 0.930 . S
H6884 C6897 0.929 . S
H6885 C6895 0.929 . S
H6886 C6890 0.929 . S
H6887 C6896 0.929 . S
C6888 H6882 0.930 . S
C6888 C6889 1.367 . S
C6888 C6896 1.378 . S
C6889 C6888 1.367 . S
C6889 C6897 1.433 . S
C6890 H6886 0.929 . S
C6890 C6892 1.378 . S
C6890 C6894 1.350 . S
C6891 C6894 1.463 . S
C6891 C6896 1.350 . S
C6891 N6899 1.427 . S
C6892 H6883 0.930 . S
C6892 C6890 1.378 . S
C6892 C6893 1.367 1_655 S
C6893 C6892 1.367 1_455 S
C6893 C6895 1.433 . S
C6894 C6890 1.350 . S
C6894 C6891 1.463 . S
C6894 N6898 1.427 1_655 S
C6895 H6885 0.929 . S
C6895 C6893 1.433 . S
C6895 N6898 1.384 . S
C6896 H6887 0.929 . S
C6896 C6888 1.378 . S
C6896 C6891 1.350 . S
C6897 H6884 0.929 . S
C6897 C6889 1.433 . S
C6897 N6899 1.384 . S
N6898 C6894 1.427 1_455 S
N6898 C6895 1.384 . S
N6899 C6891 1.427 . S
N6899 C6897 1.384 . S
H6900 C6906 0.930 . S
H6901 C6910 0.929 . S
H6902 C6915 0.928 . S
H6903 C6913 0.929 . S
H6904 C6908 0.929 . S
H6905 C6914 0.929 . S
C6906 H6900 0.930 . S
C6906 C6907 1.367 . S
C6906 C6914 1.378 1_554 S
C6907 C6906 1.367 . S
C6907 C6915 1.371 1_554 S
C6908 H6904 0.929 . S
C6908 C6910 1.448 . S
C6908 C6912 1.350 . S
C6909 C6912 1.463 . S
C6909 C6914 1.350 . S
C6909 N6917 1.427 . S
C6910 H6901 0.929 . S
C6910 C6908 1.448 . S
C6910 C6911 1.305 1_655 S
C6911 C6910 1.305 1_455 S
C6911 C6913 1.433 . S
C6912 C6908 1.350 . S
C6912 C6909 1.463 . S
C6912 N6916 1.427 . S
C6913 H6903 0.929 . S
C6913 C6911 1.433 . S
C6913 N6916 1.384 1_455 S
C6914 H6905 0.929 . S
C6914 C6906 1.378 1_556 S
C6914 C6909 1.350 . S
C6915 H6902 0.928 . S
C6915 C6907 1.371 1_556 S
C6915 N6917 1.456 . S
N6916 C6912 1.427 . S
N6916 C6913 1.384 1_655 S
N6917 C6909 1.427 . S
N6917 C6915 1.456 . S
H6918 C6924 0.930 . S
H6919 C6928 0.930 . S
H6920 C6933 0.929 . S
H6921 C6931 0.929 . S
H6922 C6926 0.929 . S
H6923 C6932 0.929 . S
C6924 H6918 0.930 . S
C6924 C6925 1.367 . S
C6924 C6932 1.378 . S
C6925 C6924 1.367 . S
C6925 C6933 1.433 . S
C6926 H6922 0.929 . S
C6926 C6928 1.378 . S
C6926 C6930 1.350 . S
C6927 C6930 1.463 . S
C6927 C6932 1.350 . S
C6927 N6935 1.427 . S
C6928 H6919 0.930 . S
C6928 C6926 1.378 . S
C6928 C6929 1.367 . S
C6929 C6928 1.367 . S
C6929 C6931 1.433 . S
C6930 C6926 1.350 . S
C6930 C6927 1.463 . S
C6930 N6934 1.427 . S
C6931 H6921 0.929 . S
C6931 C6929 1.433 . S
C6931 N6934 1.384 . S
C6932 H6923 0.929 . S
C6932 C6924 1.378 . S
C6932 C6927 1.350 . S
C6933 H6920 0.929 . S
C6933 C6925 1.433 . S
C6933 N6935 1.384 . S
N6934 C6930 1.427 . S
N6934 C6931 1.384 . S
N6935 C6927 1.427 . S
N6935 C6933 1.384 . S
H6936 C6942 0.930 . S
H6937 C6946 0.930 . S
H6938 C6951 0.929 . S
H6939 C6949 0.929 . S
H6940 C6944 0.929 . S
H6941 C6950 0.929 . S
C6942 H6936 0.930 . S
C6942 C6943 1.367 . S
C6942 C6950 1.378 . S
C6943 C6942 1.367 . S
C6943 C6951 1.433 . S
C6944 H6940 0.929 . S
C6944 C6946 1.378 . S
C6944 C6948 1.350 . S
C6945 C6948 1.463 . S
C6945 C6950 1.350 . S
C6945 N6953 1.427 . S
C6946 H6937 0.930 . S
C6946 C6944 1.378 . S
C6946 C6947 1.367 . S
C6947 C6946 1.367 . S
C6947 C6949 1.433 . S
C6948 C6944 1.350 . S
C6948 C6945 1.463 . S
C6948 N6952 1.427 . S
C6949 H6939 0.929 . S
C6949 C6947 1.433 . S
C6949 N6952 1.384 . S
C6950 H6941 0.929 . S
C6950 C6942 1.378 . S
C6950 C6945 1.350 . S
C6951 H6938 0.929 . S
C6951 C6943 1.433 . S
C6951 N6953 1.384 . S
N6952 C6948 1.427 . S
N6952 C6949 1.384 . S
N6953 C6945 1.427 . S
N6953 C6951 1.384 . S
H6954 C6960 0.930 . S
H6955 C6964 0.930 . S
H6956 C6969 0.929 . S
H6957 C6967 0.929 . S
H6958 C6962 0.929 . S
H6959 C6968 0.929 . S
C6960 H6954 0.930 . S
C6960 C6961 1.367 . S
C6960 C6968 1.378 . S
C6961 C6960 1.367 . S
C6961 C6969 1.433 . S
C6962 H6958 0.929 . S
C6962 C6964 1.378 . S
C6962 C6966 1.350 . S
C6963 C6966 1.463 . S
C6963 C6968 1.350 . S
C6963 N6971 1.427 . S
C6964 H6955 0.930 . S
C6964 C6962 1.378 . S
C6964 C6965 1.367 . S
C6965 C6964 1.367 . S
C6965 C6967 1.433 . S
C6966 C6962 1.350 . S
C6966 C6963 1.463 . S
C6966 N6970 1.427 . S
C6967 H6957 0.929 . S
C6967 C6965 1.433 . S
C6967 N6970 1.384 . S
C6968 H6959 0.929 . S
C6968 C6960 1.378 . S
C6968 C6963 1.350 . S
C6969 H6956 0.929 . S
C6969 C6961 1.433 . S
C6969 N6971 1.384 . S
N6970 C6966 1.427 . S
N6970 C6967 1.384 . S
N6971 C6963 1.427 . S
N6971 C6969 1.384 . S
H6972 C6978 0.930 . S
H6973 C6982 0.930 . S
H6974 C6987 0.929 . S
H6975 C6985 0.929 . S
H6976 C6980 0.929 . S
H6977 C6986 0.929 . S
C6978 H6972 0.930 . S
C6978 C6979 1.367 . S
C6978 C6986 1.378 . S
C6979 C6978 1.367 . S
C6979 C6987 1.433 . S
C6980 H6976 0.929 . S
C6980 C6982 1.378 . S
C6980 C6984 1.350 . S
C6981 C6984 1.463 . S
C6981 C6986 1.350 . S
C6981 N6989 1.427 . S
C6982 H6973 0.930 . S
C6982 C6980 1.378 . S
C6982 C6983 1.367 . S
C6983 C6982 1.367 . S
C6983 C6985 1.433 . S
C6984 C6980 1.350 . S
C6984 C6981 1.463 . S
C6984 N6988 1.427 . S
C6985 H6975 0.929 . S
C6985 C6983 1.433 . S
C6985 N6988 1.384 . S
C6986 H6977 0.929 . S
C6986 C6978 1.378 . S
C6986 C6981 1.350 . S
C6987 H6974 0.929 . S
C6987 C6979 1.433 . S
C6987 N6989 1.384 . S
N6988 C6984 1.427 . S
N6988 C6985 1.384 . S
N6989 C6981 1.427 . S
N6989 C6987 1.384 . S
H6990 C6996 0.930 . S
H6991 C7000 0.930 . S
H6992 C7005 0.929 . S
H6993 C7003 0.929 . S
H6994 C6998 0.929 . S
H6995 C7004 0.929 . S
C6996 H6990 0.930 . S
C6996 C6997 1.367 . S
C6996 C7004 1.378 . S
C6997 C6996 1.367 . S
C6997 C7005 1.433 . S
C6998 H6994 0.929 . S
C6998 C7000 1.378 . S
C6998 C7002 1.350 . S
C6999 C7002 1.463 . S
C6999 C7004 1.350 . S
C6999 N7007 1.427 . S
C7000 H6991 0.930 . S
C7000 C6998 1.378 . S
C7000 C7001 1.367 . S
C7001 C7000 1.367 . S
C7001 C7003 1.433 . S
C7002 C6998 1.350 . S
C7002 C6999 1.463 . S
C7002 N7006 1.427 . S
C7003 H6993 0.929 . S
C7003 C7001 1.433 . S
C7003 N7006 1.384 . S
C7004 H6995 0.929 . S
C7004 C6996 1.378 . S
C7004 C6999 1.350 . S
C7005 H6992 0.929 . S
C7005 C6997 1.433 . S
C7005 N7007 1.384 . S
N7006 C7002 1.427 . S
N7006 C7003 1.384 . S
N7007 C6999 1.427 . S
N7007 C7005 1.384 . S
H7008 C7014 0.930 . S
H7009 C7018 0.930 . S
H7010 C7023 0.929 . S
H7011 C7021 0.929 . S
H7012 C7016 0.929 . S
H7013 C7022 0.929 . S
C7014 H7008 0.930 . S
C7014 C7015 1.367 . S
C7014 C7022 1.378 . S
C7015 C7014 1.367 . S
C7015 C7023 1.433 . S
C7016 H7012 0.929 . S
C7016 C7018 1.378 . S
C7016 C7020 1.350 . S
C7017 C7020 1.463 . S
C7017 C7022 1.350 . S
C7017 N7025 1.427 . S
C7018 H7009 0.930 . S
C7018 C7016 1.378 . S
C7018 C7019 1.367 . S
C7019 C7018 1.367 . S
C7019 C7021 1.433 . S
C7020 C7016 1.350 . S
C7020 C7017 1.463 . S
C7020 N7024 1.427 . S
C7021 H7011 0.929 . S
C7021 C7019 1.433 . S
C7021 N7024 1.384 . S
C7022 H7013 0.929 . S
C7022 C7014 1.378 . S
C7022 C7017 1.350 . S
C7023 H7010 0.929 . S
C7023 C7015 1.433 . S
C7023 N7025 1.384 . S
N7024 C7020 1.427 . S
N7024 C7021 1.384 . S
N7025 C7017 1.427 . S
N7025 C7023 1.384 . S
H7026 C7032 0.930 . S
H7027 C7036 0.930 . S
H7028 C7041 0.950 . S
H7029 C7039 0.929 . S
H7030 C7034 0.929 . S
H7031 C7040 0.929 . S
C7032 H7026 0.930 . S
C7032 C7033 1.367 . S
C7032 C7040 1.378 1_655 S
C7033 C7032 1.367 . S
C7033 C7041 1.478 . S
C7034 H7030 0.929 . S
C7034 C7036 1.378 . S
C7034 C7038 1.350 . S
C7035 C7038 1.463 . S
C7035 C7040 1.350 . S
C7035 N7043 1.427 . S
C7036 H7027 0.930 . S
C7036 C7034 1.378 . S
C7036 C7037 1.367 . S
C7037 C7036 1.367 . S
C7037 C7039 1.433 . S
C7038 C7034 1.350 . S
C7038 C7035 1.463 . S
C7038 N7042 1.427 . S
C7039 H7029 0.929 . S
C7039 C7037 1.433 . S
C7039 N7042 1.384 . S
C7040 H7031 0.929 . S
C7040 C7032 1.378 1_455 S
C7040 C7035 1.350 . S
C7041 H7028 0.950 . S
C7041 C7033 1.478 . S
C7041 N7043 1.324 1_655 S
N7042 C7038 1.427 . S
N7042 C7039 1.384 . S
N7043 C7035 1.427 . S
N7043 C7041 1.324 1_455 S
H7044 C7050 0.930 . S
H7045 C7054 0.930 . S
H7046 C7059 0.929 . S
H7047 C7057 0.929 . S
H7048 C7052 0.929 . S
H7049 C7058 0.929 . S
C7050 H7044 0.930 . S
C7050 C7051 1.367 . S
C7050 C7058 1.378 . S
C7051 C7050 1.367 . S
C7051 C7059 1.433 . S
C7052 H7048 0.929 . S
C7052 C7054 1.378 . S
C7052 C7056 1.350 . S
C7053 C7056 1.463 . S
C7053 C7058 1.350 . S
C7053 N7061 1.427 . S
C7054 H7045 0.930 . S
C7054 C7052 1.378 . S
C7054 C7055 1.367 . S
C7055 C7054 1.367 . S
C7055 C7057 1.433 . S
C7056 C7052 1.350 . S
C7056 C7053 1.463 . S
C7056 N7060 1.427 . S
C7057 H7047 0.929 . S
C7057 C7055 1.433 . S
C7057 N7060 1.384 . S
C7058 H7049 0.929 . S
C7058 C7050 1.378 . S
C7058 C7053 1.350 . S
C7059 H7046 0.929 . S
C7059 C7051 1.433 . S
C7059 N7061 1.384 . S
N7060 C7056 1.427 . S
N7060 C7057 1.384 . S
N7061 C7053 1.427 . S
N7061 C7059 1.384 . S
H7062 C7068 0.930 . S
H7063 C7072 0.930 . S
H7064 C7077 0.929 . S
H7065 C7075 0.929 . S
H7066 C7070 0.929 . S
H7067 C7076 0.929 . S
C7068 H7062 0.930 . S
C7068 C7069 1.367 . S
C7068 C7076 1.378 . S
C7069 C7068 1.367 . S
C7069 C7077 1.433 . S
C7070 H7066 0.929 . S
C7070 C7072 1.378 . S
C7070 C7074 1.350 . S
C7071 C7074 1.463 . S
C7071 C7076 1.350 . S
C7071 N7079 1.427 . S
C7072 H7063 0.930 . S
C7072 C7070 1.378 . S
C7072 C7073 1.367 . S
C7073 C7072 1.367 . S
C7073 C7075 1.433 . S
C7074 C7070 1.350 . S
C7074 C7071 1.463 . S
C7074 N7078 1.427 . S
C7075 H7065 0.929 . S
C7075 C7073 1.433 . S
C7075 N7078 1.384 . S
C7076 H7067 0.929 . S
C7076 C7068 1.378 . S
C7076 C7071 1.350 . S
C7077 H7064 0.929 . S
C7077 C7069 1.433 . S
C7077 N7079 1.384 . S
N7078 C7074 1.427 . S
N7078 C7075 1.384 . S
N7079 C7071 1.427 . S
N7079 C7077 1.384 . S
H7080 C7086 0.930 . S
H7081 C7090 0.930 . S
H7082 C7095 0.929 . S
H7083 C7093 0.929 . S
H7084 C7088 0.929 . S
H7085 C7094 0.929 . S
C7086 H7080 0.930 . S
C7086 C7087 1.367 . S
C7086 C7094 1.378 . S
C7087 C7086 1.367 . S
C7087 C7095 1.433 . S
C7088 H7084 0.929 . S
C7088 C7090 1.378 . S
C7088 C7092 1.350 . S
C7089 C7092 1.463 . S
C7089 C7094 1.350 . S
C7089 N7097 1.427 . S
C7090 H7081 0.930 . S
C7090 C7088 1.378 . S
C7090 C7091 1.367 . S
C7091 C7090 1.367 . S
C7091 C7093 1.433 . S
C7092 C7088 1.350 . S
C7092 C7089 1.463 . S
C7092 N7096 1.427 . S
C7093 H7083 0.929 . S
C7093 C7091 1.433 . S
C7093 N7096 1.384 . S
C7094 H7085 0.929 . S
C7094 C7086 1.378 . S
C7094 C7089 1.350 . S
C7095 H7082 0.929 . S
C7095 C7087 1.433 . S
C7095 N7097 1.384 . S
N7096 C7092 1.427 . S
N7096 C7093 1.384 . S
N7097 C7089 1.427 . S
N7097 C7095 1.384 . S
H7098 C7104 0.930 . S
H7099 C7108 0.930 . S
H7100 C7113 0.929 . S
H7101 C7111 0.929 . S
H7102 C7106 0.929 . S
H7103 C7112 0.924 1_565 S
C7104 H7098 0.930 . S
C7104 C7105 1.367 . S
C7104 C7112 1.383 1_565 S
C7105 C7104 1.367 . S
C7105 C7113 1.433 1_565 S
C7106 H7102 0.929 . S
C7106 C7108 1.378 . S
C7106 C7110 1.350 . S
C7107 C7110 1.463 . S
C7107 C7112 1.343 . S
C7107 N7115 1.427 . S
C7108 H7099 0.930 . S
C7108 C7106 1.378 . S
C7108 C7109 1.367 1_455 S
C7109 C7108 1.367 1_655 S
C7109 C7111 1.433 . S
C7110 C7106 1.350 . S
C7110 C7107 1.463 . S
C7110 N7114 1.418 . S
C7111 H7101 0.929 . S
C7111 C7109 1.433 . S
C7111 N7114 1.392 1_655 S
C7112 H7103 0.924 1_545 S
C7112 C7104 1.383 1_545 S
C7112 C7107 1.343 . S
C7113 H7100 0.929 . S
C7113 C7105 1.433 1_545 S
C7113 N7115 1.384 . S
N7114 C7110 1.418 . S
N7114 C7111 1.392 1_455 S
N7115 C7107 1.427 . S
N7115 C7113 1.384 . S
H7116 C7122 0.930 . S
H7117 C7126 0.930 . S
H7118 C7131 0.929 . S
H7119 C7129 0.929 . S
H7120 C7124 0.929 . S
H7121 C7130 0.929 . S
C7122 H7116 0.930 . S
C7122 C7123 1.367 . S
C7122 C7130 1.378 . S
C7123 C7122 1.367 . S
C7123 C7131 1.433 . S
C7124 H7120 0.929 . S
C7124 C7126 1.378 . S
C7124 C7128 1.350 . S
C7125 C7128 1.463 . S
C7125 C7130 1.350 . S
C7125 N7133 1.427 . S
C7126 H7117 0.930 . S
C7126 C7124 1.378 . S
C7126 C7127 1.367 . S
C7127 C7126 1.367 . S
C7127 C7129 1.433 . S
C7128 C7124 1.350 . S
C7128 C7125 1.463 . S
C7128 N7132 1.427 . S
C7129 H7119 0.929 . S
C7129 C7127 1.433 . S
C7129 N7132 1.384 . S
C7130 H7121 0.929 . S
C7130 C7122 1.378 . S
C7130 C7125 1.350 . S
C7131 H7118 0.929 . S
C7131 C7123 1.433 . S
C7131 N7133 1.384 . S
N7132 C7128 1.427 . S
N7132 C7129 1.384 . S
N7133 C7125 1.427 . S
N7133 C7131 1.384 . S
H7134 C7140 0.930 . S
H7135 C7144 0.951 . S
H7136 C7149 0.929 . S
H7137 C7147 0.929 . S
H7138 C7142 0.929 . S
H7139 C7148 0.929 . S
C7140 H7134 0.930 . S
C7140 C7141 1.367 . S
C7140 C7148 1.378 . S
C7141 C7140 1.367 . S
C7141 C7149 1.433 . S
C7142 H7138 0.929 . S
C7142 C7144 1.319 1_554 S
C7142 C7146 1.350 . S
C7143 C7146 1.463 . S
C7143 C7148 1.350 . S
C7143 N7151 1.427 . S
C7144 H7135 0.951 . S
C7144 C7142 1.319 1_556 S
C7144 C7145 1.412 . S
C7145 C7144 1.412 . S
C7145 C7147 1.433 . S
C7146 C7142 1.350 . S
C7146 C7143 1.463 . S
C7146 N7150 1.427 . S
C7147 H7137 0.929 . S
C7147 C7145 1.433 . S
C7147 N7150 1.384 1_556 S
C7148 H7139 0.929 . S
C7148 C7140 1.378 . S
C7148 C7143 1.350 . S
C7149 H7136 0.929 . S
C7149 C7141 1.433 . S
C7149 N7151 1.384 . S
N7150 C7146 1.427 . S
N7150 C7147 1.384 1_554 S
N7151 C7143 1.427 . S
N7151 C7149 1.384 . S
H7152 C7158 0.930 . S
H7153 C7162 0.930 . S
H7154 C7167 0.929 . S
H7155 C7165 0.929 . S
H7156 C7160 0.929 . S
H7157 C7166 0.929 . S
C7158 H7152 0.930 . S
C7158 C7159 1.367 . S
C7158 C7166 1.378 . S
C7159 C7158 1.367 . S
C7159 C7167 1.433 . S
C7160 H7156 0.929 . S
C7160 C7162 1.378 . S
C7160 C7164 1.350 . S
C7161 C7164 1.463 . S
C7161 C7166 1.350 . S
C7161 N7169 1.427 . S
C7162 H7153 0.930 . S
C7162 C7160 1.378 . S
C7162 C7163 1.367 . S
C7163 C7162 1.367 . S
C7163 C7165 1.433 . S
C7164 C7160 1.350 . S
C7164 C7161 1.463 . S
C7164 N7168 1.427 . S
C7165 H7155 0.929 . S
C7165 C7163 1.433 . S
C7165 N7168 1.384 . S
C7166 H7157 0.929 . S
C7166 C7158 1.378 . S
C7166 C7161 1.350 . S
C7167 H7154 0.929 . S
C7167 C7159 1.433 . S
C7167 N7169 1.384 . S
N7168 C7164 1.427 . S
N7168 C7165 1.384 . S
N7169 C7161 1.427 . S
N7169 C7167 1.384 . S
H7170 C7176 0.930 . S
H7171 C7180 0.930 . S
H7172 C7185 0.933 . S
H7173 C7183 0.929 . S
H7174 C7178 0.929 . S
H7175 C7184 0.929 . S
C7176 H7170 0.930 . S
C7176 C7177 1.367 . S
C7176 C7184 1.378 1_556 S
C7177 C7176 1.367 . S
C7177 C7185 1.445 . S
C7178 H7174 0.929 . S
C7178 C7180 1.378 . S
C7178 C7182 1.350 . S
C7179 C7182 1.463 . S
C7179 C7184 1.350 . S
C7179 N7187 1.427 . S
C7180 H7171 0.930 . S
C7180 C7178 1.378 . S
C7180 C7181 1.367 . S
C7181 C7180 1.367 . S
C7181 C7183 1.433 . S
C7182 C7178 1.350 . S
C7182 C7179 1.463 . S
C7182 N7186 1.427 . S
C7183 H7173 0.929 . S
C7183 C7181 1.433 . S
C7183 N7186 1.384 . S
C7184 H7175 0.929 . S
C7184 C7176 1.378 1_554 S
C7184 C7179 1.350 . S
C7185 H7172 0.933 . S
C7185 C7177 1.445 . S
C7185 N7187 1.369 1_556 S
N7186 C7182 1.427 . S
N7186 C7183 1.384 . S
N7187 C7179 1.427 . S
N7187 C7185 1.369 1_554 S
H7188 C7194 0.930 . S
H7189 C7198 0.930 . S
H7190 C7203 0.929 . S
H7191 C7201 0.929 . S
H7192 C7196 0.929 . S
H7193 C7202 0.929 . S
C7194 H7188 0.930 . S
C7194 C7195 1.367 . S
C7194 C7202 1.378 . S
C7195 C7194 1.367 . S
C7195 C7203 1.433 . S
C7196 H7192 0.929 . S
C7196 C7198 1.378 . S
C7196 C7200 1.350 . S
C7197 C7200 1.463 . S
C7197 C7202 1.350 . S
C7197 N7205 1.427 . S
C7198 H7189 0.930 . S
C7198 C7196 1.378 . S
C7198 C7199 1.367 . S
C7199 C7198 1.367 . S
C7199 C7201 1.433 . S
C7200 C7196 1.350 . S
C7200 C7197 1.463 . S
C7200 N7204 1.427 . S
C7201 H7191 0.929 . S
C7201 C7199 1.433 . S
C7201 N7204 1.384 . S
C7202 H7193 0.929 . S
C7202 C7194 1.378 . S
C7202 C7197 1.350 . S
C7203 H7190 0.929 . S
C7203 C7195 1.433 . S
C7203 N7205 1.384 . S
N7204 C7200 1.427 . S
N7204 C7201 1.384 . S
N7205 C7197 1.427 . S
N7205 C7203 1.384 . S
H7206 C7212 0.930 . S
H7207 C7216 0.930 . S
H7208 C7221 0.929 . S
H7209 C7219 0.929 . S
H7210 C7214 0.929 . S
H7211 C7220 0.929 . S
C7212 H7206 0.930 . S
C7212 C7213 1.367 . S
C7212 C7220 1.378 . S
C7213 C7212 1.367 . S
C7213 C7221 1.433 . S
C7214 H7210 0.929 . S
C7214 C7216 1.378 . S
C7214 C7218 1.350 . S
C7215 C7218 1.463 . S
C7215 C7220 1.350 . S
C7215 N7223 1.427 . S
C7216 H7207 0.930 . S
C7216 C7214 1.378 . S
C7216 C7217 1.367 . S
C7217 C7216 1.367 . S
C7217 C7219 1.433 . S
C7218 C7214 1.350 . S
C7218 C7215 1.463 . S
C7218 N7222 1.427 . S
C7219 H7209 0.929 . S
C7219 C7217 1.433 . S
C7219 N7222 1.384 . S
C7220 H7211 0.929 . S
C7220 C7212 1.378 . S
C7220 C7215 1.350 . S
C7221 H7208 0.929 . S
C7221 C7213 1.433 . S
C7221 N7223 1.384 . S
N7222 C7218 1.427 . S
N7222 C7219 1.384 . S
N7223 C7215 1.427 . S
N7223 C7221 1.384 . S
H7224 C7230 0.930 . S
H7225 C7234 0.930 . S
H7226 C7239 0.929 . S
H7227 C7237 0.929 . S
H7228 C7232 0.929 . S
H7229 C7238 0.929 . S
C7230 H7224 0.930 . S
C7230 C7231 1.367 . S
C7230 C7238 1.378 . S
C7231 C7230 1.367 . S
C7231 C7239 1.433 1_655 S
C7232 H7228 0.929 . S
C7232 C7234 1.378 . S
C7232 C7236 1.350 . S
C7233 C7236 1.463 . S
C7233 C7238 1.350 1_455 S
C7233 N7241 1.427 . S
C7234 H7225 0.930 . S
C7234 C7232 1.378 . S
C7234 C7235 1.367 1_554 S
C7235 C7234 1.367 1_556 S
C7235 C7237 1.433 . S
C7236 C7232 1.350 . S
C7236 C7233 1.463 . S
C7236 N7240 1.427 1_554 S
C7237 H7227 0.929 . S
C7237 C7235 1.433 . S
C7237 N7240 1.384 . S
C7238 H7229 0.929 . S
C7238 C7230 1.378 . S
C7238 C7233 1.350 1_655 S
C7239 H7226 0.929 . S
C7239 C7231 1.433 1_455 S
C7239 N7241 1.384 . S
N7240 C7236 1.427 1_556 S
N7240 C7237 1.384 . S
N7241 C7233 1.427 . S
N7241 C7239 1.384 . S
H7242 C7248 0.930 . S
H7243 C7252 0.930 . S
H7244 C7257 0.929 . S
H7245 C7255 0.929 . S
H7246 C7250 0.929 . S
H7247 C7256 0.929 . S
C7248 H7242 0.930 . S
C7248 C7249 1.367 . S
C7248 C7256 1.378 . S
C7249 C7248 1.367 . S
C7249 C7257 1.433 . S
C7250 H7246 0.929 . S
C7250 C7252 1.378 . S
C7250 C7254 1.350 . S
C7251 C7254 1.463 . S
C7251 C7256 1.350 . S
C7251 N7259 1.427 . S
C7252 H7243 0.930 . S
C7252 C7250 1.378 . S
C7252 C7253 1.367 . S
C7253 C7252 1.367 . S
C7253 C7255 1.433 . S
C7254 C7250 1.350 . S
C7254 C7251 1.463 . S
C7254 N7258 1.427 . S
C7255 H7245 0.929 . S
C7255 C7253 1.433 . S
C7255 N7258 1.384 . S
C7256 H7247 0.929 . S
C7256 C7248 1.378 . S
C7256 C7251 1.350 . S
C7257 H7244 0.929 . S
C7257 C7249 1.433 . S
C7257 N7259 1.384 . S
N7258 C7254 1.427 . S
N7258 C7255 1.384 . S
N7259 C7251 1.427 . S
N7259 C7257 1.384 . S
H7260 C7266 0.930 . S
H7261 C7270 0.930 . S
H7262 C7275 0.929 . S
H7263 C7273 0.929 . S
H7264 C7268 0.929 . S
H7265 C7274 0.929 . S
C7266 H7260 0.930 . S
C7266 C7267 1.367 . S
C7266 C7274 1.378 . S
C7267 C7266 1.367 . S
C7267 C7275 1.433 . S
C7268 H7264 0.929 . S
C7268 C7270 1.378 . S
C7268 C7272 1.350 . S
C7269 C7272 1.463 . S
C7269 C7274 1.350 . S
C7269 N7277 1.427 . S
C7270 H7261 0.930 . S
C7270 C7268 1.378 . S
C7270 C7271 1.367 . S
C7271 C7270 1.367 . S
C7271 C7273 1.433 . S
C7272 C7268 1.350 . S
C7272 C7269 1.463 . S
C7272 N7276 1.427 . S
C7273 H7263 0.929 . S
C7273 C7271 1.433 . S
C7273 N7276 1.384 . S
C7274 H7265 0.929 . S
C7274 C7266 1.378 . S
C7274 C7269 1.350 . S
C7275 H7262 0.929 . S
C7275 C7267 1.433 . S
C7275 N7277 1.384 . S
N7276 C7272 1.427 . S
N7276 C7273 1.384 . S
N7277 C7269 1.427 . S
N7277 C7275 1.384 . S
H7278 C7284 0.930 . S
H7279 C7288 0.930 . S
H7280 C7293 0.929 . S
H7281 C7291 0.929 . S
H7282 C7286 0.929 . S
H7283 C7292 0.929 . S
C7284 H7278 0.930 . S
C7284 C7285 1.367 . S
C7284 C7292 1.378 . S
C7285 C7284 1.367 . S
C7285 C7293 1.433 . S
C7286 H7282 0.929 . S
C7286 C7288 1.378 . S
C7286 C7290 1.350 . S
C7287 C7290 1.463 . S
C7287 C7292 1.350 . S
C7287 N7295 1.427 . S
C7288 H7279 0.930 . S
C7288 C7286 1.378 . S
C7288 C7289 1.367 . S
C7289 C7288 1.367 . S
C7289 C7291 1.433 . S
C7290 C7286 1.350 . S
C7290 C7287 1.463 . S
C7290 N7294 1.427 . S
C7291 H7281 0.929 . S
C7291 C7289 1.433 . S
C7291 N7294 1.384 . S
C7292 H7283 0.929 . S
C7292 C7284 1.378 . S
C7292 C7287 1.350 . S
C7293 H7280 0.929 . S
C7293 C7285 1.433 . S
C7293 N7295 1.384 . S
N7294 C7290 1.427 . S
N7294 C7291 1.384 . S
N7295 C7287 1.427 . S
N7295 C7293 1.384 . S
H7296 C7302 0.930 . S
H7297 C7306 0.930 . S
H7298 C7311 0.929 . S
H7299 C7309 0.929 . S
H7300 C7304 0.929 . S
H7301 C7310 0.929 . S
C7302 H7296 0.930 . S
C7302 C7303 1.367 . S
C7302 C7310 1.378 . S
C7303 C7302 1.367 . S
C7303 C7311 1.433 . S
C7304 H7300 0.929 . S
C7304 C7306 1.378 . S
C7304 C7308 1.350 . S
C7305 C7308 1.463 . S
C7305 C7310 1.350 . S
C7305 N7313 1.427 . S
C7306 H7297 0.930 . S
C7306 C7304 1.378 . S
C7306 C7307 1.367 . S
C7307 C7306 1.367 . S
C7307 C7309 1.433 . S
C7308 C7304 1.350 . S
C7308 C7305 1.463 . S
C7308 N7312 1.427 . S
C7309 H7299 0.929 . S
C7309 C7307 1.433 . S
C7309 N7312 1.384 . S
C7310 H7301 0.929 . S
C7310 C7302 1.378 . S
C7310 C7305 1.350 . S
C7311 H7298 0.929 . S
C7311 C7303 1.433 . S
C7311 N7313 1.384 . S
N7312 C7308 1.427 . S
N7312 C7309 1.384 . S
N7313 C7305 1.427 . S
N7313 C7311 1.384 . S
H7314 C7320 0.930 . S
H7315 C7324 0.930 . S
H7316 C7329 0.926 . S
H7317 C7327 0.929 . S
H7318 C7322 0.929 . S
H7319 C7328 0.929 . S
C7320 H7314 0.930 . S
C7320 C7321 1.367 . S
C7320 C7328 1.378 1_455 S
C7321 C7320 1.367 . S
C7321 C7329 1.391 1_455 S
C7322 H7318 0.929 . S
C7322 C7324 1.378 . S
C7322 C7326 1.350 . S
C7323 C7326 1.463 . S
C7323 C7328 1.350 . S
C7323 N7331 1.427 . S
C7324 H7315 0.930 . S
C7324 C7322 1.378 . S
C7324 C7325 1.367 . S
C7325 C7324 1.367 . S
C7325 C7327 1.433 . S
C7326 C7322 1.350 . S
C7326 C7323 1.463 . S
C7326 N7330 1.427 . S
C7327 H7317 0.929 . S
C7327 C7325 1.433 . S
C7327 N7330 1.384 . S
C7328 H7319 0.929 . S
C7328 C7320 1.378 1_655 S
C7328 C7323 1.350 . S
C7329 H7316 0.926 . S
C7329 C7321 1.391 1_655 S
C7329 N7331 1.434 . S
N7330 C7326 1.427 . S
N7330 C7327 1.384 . S
N7331 C7323 1.427 . S
N7331 C7329 1.434 . S
H7332 C7338 0.930 . S
H7333 C7342 0.930 . S
H7334 C7347 0.929 . S
H7335 C7345 0.929 . S
H7336 C7340 0.929 . S
H7337 C7346 0.929 . S
C7338 H7332 0.930 . S
C7338 C7339 1.367 . S
C7338 C7346 1.378 . S
C7339 C7338 1.367 . S
C7339 C7347 1.433 . S
C7340 H7336 0.929 . S
C7340 C7342 1.378 . S
C7340 C7344 1.350 . S
C7341 C7344 1.463 . S
C7341 C7346 1.350 . S
C7341 N7349 1.427 . S
C7342 H7333 0.930 . S
C7342 C7340 1.378 . S
C7342 C7343 1.367 . S
C7343 C7342 1.367 . S
C7343 C7345 1.433 . S
C7344 C7340 1.350 . S
C7344 C7341 1.463 . S
C7344 N7348 1.427 . S
C7345 H7335 0.929 . S
C7345 C7343 1.433 . S
C7345 N7348 1.384 . S
C7346 H7337 0.929 . S
C7346 C7338 1.378 . S
C7346 C7341 1.350 . S
C7347 H7334 0.929 . S
C7347 C7339 1.433 . S
C7347 N7349 1.384 . S
N7348 C7344 1.427 . S
N7348 C7345 1.384 . S
N7349 C7341 1.427 . S
N7349 C7347 1.384 . S
H7350 C7356 0.930 . S
H7351 C7360 0.929 . S
H7352 C7365 0.927 . S
H7353 C7363 0.929 . S
H7354 C7358 0.929 . S
H7355 C7364 0.929 . S
C7356 H7350 0.930 . S
C7356 C7357 1.367 . S
C7356 C7364 1.378 1_455 S
C7357 C7356 1.367 . S
C7357 C7365 1.378 1_455 S
C7358 H7354 0.929 . S
C7358 C7360 1.440 . S
C7358 C7362 1.350 . S
C7359 C7362 1.463 . S
C7359 C7364 1.350 . S
C7359 N7367 1.427 . S
C7360 H7351 0.929 . S
C7360 C7358 1.440 . S
C7360 C7361 1.312 1_565 S
C7361 C7360 1.312 1_545 S
C7361 C7363 1.433 . S
C7362 C7358 1.350 . S
C7362 C7359 1.463 . S
C7362 N7366 1.427 . S
C7363 H7353 0.929 . S
C7363 C7361 1.433 . S
C7363 N7366 1.384 1_545 S
C7364 H7355 0.929 . S
C7364 C7356 1.378 1_655 S
C7364 C7359 1.350 . S
C7365 H7352 0.927 . S
C7365 C7357 1.378 1_655 S
C7365 N7367 1.448 . S
N7366 C7362 1.427 . S
N7366 C7363 1.384 1_565 S
N7367 C7359 1.427 . S
N7367 C7365 1.448 . S
H7368 C7374 0.930 . S
H7369 C7378 0.930 . S
H7370 C7383 0.929 . S
H7371 C7381 0.929 . S
H7372 C7376 0.929 . S
H7373 C7382 0.929 . S
C7374 H7368 0.930 . S
C7374 C7375 1.367 . S
C7374 C7382 1.378 . S
C7375 C7374 1.367 . S
C7375 C7383 1.433 . S
C7376 H7372 0.929 . S
C7376 C7378 1.378 . S
C7376 C7380 1.350 . S
C7377 C7380 1.463 . S
C7377 C7382 1.350 . S
C7377 N7385 1.427 . S
C7378 H7369 0.930 . S
C7378 C7376 1.378 . S
C7378 C7379 1.367 . S
C7379 C7378 1.367 . S
C7379 C7381 1.433 . S
C7380 C7376 1.350 . S
C7380 C7377 1.463 . S
C7380 N7384 1.427 . S
C7381 H7371 0.929 . S
C7381 C7379 1.433 . S
C7381 N7384 1.384 . S
C7382 H7373 0.929 . S
C7382 C7374 1.378 . S
C7382 C7377 1.350 . S
C7383 H7370 0.929 . S
C7383 C7375 1.433 . S
C7383 N7385 1.384 . S
N7384 C7380 1.427 . S
N7384 C7381 1.384 . S
N7385 C7377 1.427 . S
N7385 C7383 1.384 . S
H7386 C7392 0.930 . S
H7387 C7396 0.924 1_554 S
H7388 C7401 0.929 . S
H7389 C7399 0.929 . S
H7390 C7394 0.929 . S
H7391 C7400 0.929 . S
C7392 H7386 0.930 . S
C7392 C7393 1.367 . S
C7392 C7400 1.378 . S
C7393 C7392 1.367 . S
C7393 C7401 1.433 . S
C7394 H7390 0.929 . S
C7394 C7396 1.372 . S
C7394 C7398 1.350 . S
C7395 C7398 1.463 . S
C7395 C7400 1.350 . S
C7395 N7403 1.427 . S
C7396 H7387 0.924 1_556 S
C7396 C7394 1.372 . S
C7396 C7397 1.372 1_556 S
C7397 C7396 1.372 1_554 S
C7397 C7399 1.433 . S
C7398 C7394 1.350 . S
C7398 C7395 1.463 . S
C7398 N7402 1.427 . S
C7399 H7389 0.929 . S
C7399 C7397 1.433 . S
C7399 N7402 1.384 1_554 S
C7400 H7391 0.929 . S
C7400 C7392 1.378 . S
C7400 C7395 1.350 . S
C7401 H7388 0.929 . S
C7401 C7393 1.433 . S
C7401 N7403 1.384 . S
N7402 C7398 1.427 . S
N7402 C7399 1.384 1_556 S
N7403 C7395 1.427 . S
N7403 C7401 1.384 . S
H7404 C7410 0.927 1_554 S
H7405 C7414 0.930 . S
H7406 C7419 0.929 . S
H7407 C7417 0.929 . S
H7408 C7412 0.929 . S
H7409 C7418 0.929 . S
C7410 H7404 0.927 1_556 S
C7410 C7411 1.344 1_556 S
C7410 C7418 1.404 . S
C7411 C7410 1.344 1_554 S
C7411 C7419 1.433 . S
C7412 H7408 0.929 . S
C7412 C7414 1.378 . S
C7412 C7416 1.350 . S
C7413 C7416 1.463 . S
C7413 C7418 1.350 . S
C7413 N7421 1.427 . S
C7414 H7405 0.930 . S
C7414 C7412 1.378 . S
C7414 C7415 1.367 . S
C7415 C7414 1.367 . S
C7415 C7417 1.433 . S
C7416 C7412 1.350 . S
C7416 C7413 1.463 . S
C7416 N7420 1.427 . S
C7417 H7407 0.929 . S
C7417 C7415 1.433 . S
C7417 N7420 1.384 . S
C7418 H7409 0.929 . S
C7418 C7410 1.404 . S
C7418 C7413 1.350 . S
C7419 H7406 0.929 . S
C7419 C7411 1.433 . S
C7419 N7421 1.384 1_554 S
N7420 C7416 1.427 . S
N7420 C7417 1.384 . S
N7421 C7413 1.427 . S
N7421 C7419 1.384 1_556 S
H7422 C7428 0.930 . S
H7423 C7432 0.930 . S
H7424 C7437 0.929 . S
H7425 C7435 0.929 . S
H7426 C7430 0.929 . S
H7427 C7436 0.929 . S
C7428 H7422 0.930 . S
C7428 C7429 1.367 . S
C7428 C7436 1.378 . S
C7429 C7428 1.367 . S
C7429 C7437 1.433 . S
C7430 H7426 0.929 . S
C7430 C7432 1.378 . S
C7430 C7434 1.350 . S
C7431 C7434 1.463 . S
C7431 C7436 1.350 . S
C7431 N7439 1.427 . S
C7432 H7423 0.930 . S
C7432 C7430 1.378 . S
C7432 C7433 1.367 . S
C7433 C7432 1.367 . S
C7433 C7435 1.433 . S
C7434 C7430 1.350 . S
C7434 C7431 1.463 . S
C7434 N7438 1.427 . S
C7435 H7425 0.929 . S
C7435 C7433 1.433 . S
C7435 N7438 1.384 . S
C7436 H7427 0.929 . S
C7436 C7428 1.378 . S
C7436 C7431 1.350 . S
C7437 H7424 0.929 . S
C7437 C7429 1.433 . S
C7437 N7439 1.384 . S
N7438 C7434 1.427 . S
N7438 C7435 1.384 . S
N7439 C7431 1.427 . S
N7439 C7437 1.384 . S
H7440 C7446 0.930 . S
H7441 C7450 0.930 . S
H7442 C7455 0.929 . S
H7443 C7453 0.929 . S
H7444 C7448 0.929 . S
H7445 C7454 0.929 . S
C7446 H7440 0.930 . S
C7446 C7447 1.367 . S
C7446 C7454 1.378 . S
C7447 C7446 1.367 . S
C7447 C7455 1.433 . S
C7448 H7444 0.929 . S
C7448 C7450 1.378 . S
C7448 C7452 1.350 . S
C7449 C7452 1.463 . S
C7449 C7454 1.350 . S
C7449 N7457 1.427 . S
C7450 H7441 0.930 . S
C7450 C7448 1.378 . S
C7450 C7451 1.367 1_545 S
C7451 C7450 1.367 1_565 S
C7451 C7453 1.433 . S
C7452 C7448 1.350 . S
C7452 C7449 1.463 . S
C7452 N7456 1.427 . S
C7453 H7443 0.929 . S
C7453 C7451 1.433 . S
C7453 N7456 1.384 1_565 S
C7454 H7445 0.929 . S
C7454 C7446 1.378 . S
C7454 C7449 1.350 . S
C7455 H7442 0.929 . S
C7455 C7447 1.433 . S
C7455 N7457 1.384 . S
N7456 C7452 1.427 . S
N7456 C7453 1.384 1_545 S
N7457 C7449 1.427 . S
N7457 C7455 1.384 . S
H7458 C7464 0.930 . S
H7459 C7468 0.930 . S
H7460 C7473 0.929 . S
H7461 C7471 0.929 . S
H7462 C7466 0.929 . S
H7463 C7472 0.929 . S
C7464 H7458 0.930 . S
C7464 C7465 1.367 . S
C7464 C7472 1.378 . S
C7465 C7464 1.367 . S
C7465 C7473 1.433 . S
C7466 H7462 0.929 . S
C7466 C7468 1.378 . S
C7466 C7470 1.350 . S
C7467 C7470 1.463 . S
C7467 C7472 1.350 . S
C7467 N7475 1.427 . S
C7468 H7459 0.930 . S
C7468 C7466 1.378 . S
C7468 C7469 1.367 . S
C7469 C7468 1.367 . S
C7469 C7471 1.433 . S
C7470 C7466 1.350 . S
C7470 C7467 1.463 . S
C7470 N7474 1.427 . S
C7471 H7461 0.929 . S
C7471 C7469 1.433 . S
C7471 N7474 1.384 . S
C7472 H7463 0.929 . S
C7472 C7464 1.378 . S
C7472 C7467 1.350 . S
C7473 H7460 0.929 . S
C7473 C7465 1.433 . S
C7473 N7475 1.384 . S
N7474 C7470 1.427 . S
N7474 C7471 1.384 . S
N7475 C7467 1.427 . S
N7475 C7473 1.384 . S
H7476 C7482 0.930 . S
H7477 C7486 0.930 . S
H7478 C7491 0.929 . S
H7479 C7489 0.929 . S
H7480 C7484 0.929 . S
H7481 C7490 0.929 . S
C7482 H7476 0.930 . S
C7482 C7483 1.367 . S
C7482 C7490 1.378 . S
C7483 C7482 1.367 . S
C7483 C7491 1.433 . S
C7484 H7480 0.929 . S
C7484 C7486 1.378 . S
C7484 C7488 1.350 . S
C7485 C7488 1.463 . S
C7485 C7490 1.350 . S
C7485 N7493 1.427 . S
C7486 H7477 0.930 . S
C7486 C7484 1.378 . S
C7486 C7487 1.367 . S
C7487 C7486 1.367 . S
C7487 C7489 1.433 . S
C7488 C7484 1.350 . S
C7488 C7485 1.463 . S
C7488 N7492 1.427 . S
C7489 H7479 0.929 . S
C7489 C7487 1.433 . S
C7489 N7492 1.384 . S
C7490 H7481 0.929 . S
C7490 C7482 1.378 . S
C7490 C7485 1.350 . S
C7491 H7478 0.929 . S
C7491 C7483 1.433 . S
C7491 N7493 1.384 . S
N7492 C7488 1.427 . S
N7492 C7489 1.384 . S
N7493 C7485 1.427 . S
N7493 C7491 1.384 . S
H7494 C7500 0.930 . S
H7495 C7504 0.930 . S
H7496 C7509 0.929 . S
H7497 C7507 0.929 . S
H7498 C7502 0.929 . S
H7499 C7508 0.929 . S
C7500 H7494 0.930 . S
C7500 C7501 1.367 . S
C7500 C7508 1.378 . S
C7501 C7500 1.367 . S
C7501 C7509 1.433 1_556 S
C7502 H7498 0.929 . S
C7502 C7504 1.378 . S
C7502 C7506 1.350 . S
C7503 C7506 1.463 . S
C7503 C7508 1.350 1_554 S
C7503 N7511 1.427 . S
C7504 H7495 0.930 . S
C7504 C7502 1.378 . S
C7504 C7505 1.367 1_545 S
C7505 C7504 1.367 1_565 S
C7505 C7507 1.433 . S
C7506 C7502 1.350 . S
C7506 C7503 1.463 . S
C7506 N7510 1.427 1_545 S
C7507 H7497 0.929 . S
C7507 C7505 1.433 . S
C7507 N7510 1.384 . S
C7508 H7499 0.929 . S
C7508 C7500 1.378 . S
C7508 C7503 1.350 1_556 S
C7509 H7496 0.929 . S
C7509 C7501 1.433 1_554 S
C7509 N7511 1.384 . S
N7510 C7506 1.427 1_565 S
N7510 C7507 1.384 . S
N7511 C7503 1.427 . S
N7511 C7509 1.384 . S
H7512 C7518 0.930 . S
H7513 C7522 0.930 . S
H7514 C7527 0.929 . S
H7515 C7525 0.929 . S
H7516 C7520 0.929 . S
H7517 C7526 0.929 . S
C7518 H7512 0.930 . S
C7518 C7519 1.367 . S
C7518 C7526 1.378 . S
C7519 C7518 1.367 . S
C7519 C7527 1.433 . S
C7520 H7516 0.929 . S
C7520 C7522 1.378 . S
C7520 C7524 1.350 . S
C7521 C7524 1.463 . S
C7521 C7526 1.350 . S
C7521 N7529 1.427 . S
C7522 H7513 0.930 . S
C7522 C7520 1.378 . S
C7522 C7523 1.367 . S
C7523 C7522 1.367 . S
C7523 C7525 1.433 . S
C7524 C7520 1.350 . S
C7524 C7521 1.463 . S
C7524 N7528 1.427 . S
C7525 H7515 0.929 . S
C7525 C7523 1.433 . S
C7525 N7528 1.384 . S
C7526 H7517 0.929 . S
C7526 C7518 1.378 . S
C7526 C7521 1.350 . S
C7527 H7514 0.929 . S
C7527 C7519 1.433 . S
C7527 N7529 1.384 . S
N7528 C7524 1.427 . S
N7528 C7525 1.384 . S
N7529 C7521 1.427 . S
N7529 C7527 1.384 . S
H7530 C7536 0.930 . S
H7531 C7540 0.930 . S
H7532 C7545 0.929 . S
H7533 C7543 0.929 . S
H7534 C7538 0.929 . S
H7535 C7544 0.929 . S
C7536 H7530 0.930 . S
C7536 C7537 1.367 . S
C7536 C7544 1.378 . S
C7537 C7536 1.367 . S
C7537 C7545 1.433 . S
C7538 H7534 0.929 . S
C7538 C7540 1.378 . S
C7538 C7542 1.350 . S
C7539 C7542 1.463 . S
C7539 C7544 1.350 . S
C7539 N7547 1.427 . S
C7540 H7531 0.930 . S
C7540 C7538 1.378 . S
C7540 C7541 1.367 . S
C7541 C7540 1.367 . S
C7541 C7543 1.433 . S
C7542 C7538 1.350 . S
C7542 C7539 1.463 . S
C7542 N7546 1.427 . S
C7543 H7533 0.929 . S
C7543 C7541 1.433 . S
C7543 N7546 1.384 . S
C7544 H7535 0.929 . S
C7544 C7536 1.378 . S
C7544 C7539 1.350 . S
C7545 H7532 0.929 . S
C7545 C7537 1.433 . S
C7545 N7547 1.384 . S
N7546 C7542 1.427 . S
N7546 C7543 1.384 . S
N7547 C7539 1.427 . S
N7547 C7545 1.384 . S
H7548 C7554 0.930 . S
H7549 C7558 0.930 . S
H7550 C7563 0.929 . S
H7551 C7561 0.929 . S
H7552 C7556 0.929 . S
H7553 C7562 0.929 . S
C7554 H7548 0.930 . S
C7554 C7555 1.367 . S
C7554 C7562 1.378 . S
C7555 C7554 1.367 . S
C7555 C7563 1.433 . S
C7556 H7552 0.929 . S
C7556 C7558 1.378 . S
C7556 C7560 1.350 . S
C7557 C7560 1.463 . S
C7557 C7562 1.350 . S
C7557 N7565 1.427 . S
C7558 H7549 0.930 . S
C7558 C7556 1.378 . S
C7558 C7559 1.367 . S
C7559 C7558 1.367 . S
C7559 C7561 1.433 . S
C7560 C7556 1.350 . S
C7560 C7557 1.463 . S
C7560 N7564 1.427 . S
C7561 H7551 0.929 . S
C7561 C7559 1.433 . S
C7561 N7564 1.384 . S
C7562 H7553 0.929 . S
C7562 C7554 1.378 . S
C7562 C7557 1.350 . S
C7563 H7550 0.929 . S
C7563 C7555 1.433 . S
C7563 N7565 1.384 . S
N7564 C7560 1.427 . S
N7564 C7561 1.384 . S
N7565 C7557 1.427 . S
N7565 C7563 1.384 . S
H7566 C7572 0.930 . S
H7567 C7576 0.930 . S
H7568 C7581 0.929 . S
H7569 C7579 0.929 . S
H7570 C7574 0.929 . S
H7571 C7580 0.929 . S
C7572 H7566 0.930 . S
C7572 C7573 1.367 1_565 S
C7572 C7580 1.378 . S
C7573 C7572 1.367 1_545 S
C7573 C7581 1.433 . S
C7574 H7570 0.929 . S
C7574 C7576 1.378 . S
C7574 C7578 1.350 . S
C7575 C7578 1.463 . S
C7575 C7580 1.350 . S
C7575 N7583 1.427 1_565 S
C7576 H7567 0.930 . S
C7576 C7574 1.378 . S
C7576 C7577 1.367 . S
C7577 C7576 1.367 . S
C7577 C7579 1.433 . S
C7578 C7574 1.350 . S
C7578 C7575 1.463 . S
C7578 N7582 1.427 . S
C7579 H7569 0.929 . S
C7579 C7577 1.433 . S
C7579 N7582 1.384 . S
C7580 H7571 0.929 . S
C7580 C7572 1.378 . S
C7580 C7575 1.350 . S
C7581 H7568 0.929 . S
C7581 C7573 1.433 . S
C7581 N7583 1.384 . S
N7582 C7578 1.427 . S
N7582 C7579 1.384 . S
N7583 C7575 1.427 1_545 S
N7583 C7581 1.384 . S
H7584 C7590 0.930 . S
H7585 C7594 0.930 . S
H7586 C7599 0.929 . S
H7587 C7597 0.929 . S
H7588 C7592 0.929 . S
H7589 C7598 0.929 . S
C7590 H7584 0.930 . S
C7590 C7591 1.367 . S
C7590 C7598 1.378 . S
C7591 C7590 1.367 . S
C7591 C7599 1.433 . S
C7592 H7588 0.929 . S
C7592 C7594 1.378 . S
C7592 C7596 1.350 . S
C7593 C7596 1.463 . S
C7593 C7598 1.350 . S
C7593 N7601 1.427 . S
C7594 H7585 0.930 . S
C7594 C7592 1.378 . S
C7594 C7595 1.367 . S
C7595 C7594 1.367 . S
C7595 C7597 1.433 . S
C7596 C7592 1.350 . S
C7596 C7593 1.463 . S
C7596 N7600 1.427 . S
C7597 H7587 0.929 . S
C7597 C7595 1.433 . S
C7597 N7600 1.384 . S
C7598 H7589 0.929 . S
C7598 C7590 1.378 . S
C7598 C7593 1.350 . S
C7599 H7586 0.929 . S
C7599 C7591 1.433 . S
C7599 N7601 1.384 . S
N7600 C7596 1.427 . S
N7600 C7597 1.384 . S
N7601 C7593 1.427 . S
N7601 C7599 1.384 . S
H7602 C7608 0.930 . S
H7603 C7612 0.930 . S
H7604 C7617 0.929 . S
H7605 C7615 0.952 . S
H7606 C7610 0.929 . S
H7607 C7616 0.929 . S
C7608 H7602 0.930 . S
C7608 C7609 1.367 . S
C7608 C7616 1.378 . S
C7609 C7608 1.367 . S
C7609 C7617 1.433 . S
C7610 H7606 0.929 . S
C7610 C7612 1.378 1_565 S
C7610 C7614 1.350 . S
C7611 C7614 1.463 . S
C7611 C7616 1.350 . S
C7611 N7619 1.427 . S
C7612 H7603 0.930 . S
C7612 C7610 1.378 1_545 S
C7612 C7613 1.367 . S
C7613 C7612 1.367 . S
C7613 C7615 1.479 . S
C7614 C7610 1.350 . S
C7614 C7611 1.463 . S
C7614 N7618 1.427 . S
C7615 H7605 0.952 . S
C7615 C7613 1.479 . S
C7615 N7618 1.322 1_545 S
C7616 H7607 0.929 . S
C7616 C7608 1.378 . S
C7616 C7611 1.350 . S
C7617 H7604 0.929 . S
C7617 C7609 1.433 . S
C7617 N7619 1.384 . S
N7618 C7614 1.427 . S
N7618 C7615 1.322 1_565 S
N7619 C7611 1.427 . S
N7619 C7617 1.384 . S
H7620 C7626 0.930 . S
H7621 C7630 0.930 . S
H7622 C7635 0.929 . S
H7623 C7633 0.929 . S
H7624 C7628 0.929 . S
H7625 C7634 0.929 . S
C7626 H7620 0.930 . S
C7626 C7627 1.367 . S
C7626 C7634 1.378 . S
C7627 C7626 1.367 . S
C7627 C7635 1.433 . S
C7628 H7624 0.929 . S
C7628 C7630 1.378 . S
C7628 C7632 1.350 . S
C7629 C7632 1.463 . S
C7629 C7634 1.350 . S
C7629 N7637 1.427 . S
C7630 H7621 0.930 . S
C7630 C7628 1.378 . S
C7630 C7631 1.367 . S
C7631 C7630 1.367 . S
C7631 C7633 1.433 . S
C7632 C7628 1.350 . S
C7632 C7629 1.463 . S
C7632 N7636 1.427 . S
C7633 H7623 0.929 . S
C7633 C7631 1.433 . S
C7633 N7636 1.384 . S
C7634 H7625 0.929 . S
C7634 C7626 1.378 . S
C7634 C7629 1.350 . S
C7635 H7622 0.929 . S
C7635 C7627 1.433 . S
C7635 N7637 1.384 . S
N7636 C7632 1.427 . S
N7636 C7633 1.384 . S
N7637 C7629 1.427 . S
N7637 C7635 1.384 . S
H7638 C7644 0.930 . S
H7639 C7648 0.930 . S
H7640 C7653 0.929 . S
H7641 C7651 0.929 . S
H7642 C7646 0.929 . S
H7643 C7652 0.929 . S
C7644 H7638 0.930 . S
C7644 C7645 1.367 . S
C7644 C7652 1.378 . S
C7645 C7644 1.367 . S
C7645 C7653 1.433 . S
C7646 H7642 0.929 . S
C7646 C7648 1.378 . S
C7646 C7650 1.350 . S
C7647 C7650 1.463 . S
C7647 C7652 1.350 . S
C7647 N7655 1.427 . S
C7648 H7639 0.930 . S
C7648 C7646 1.378 . S
C7648 C7649 1.367 . S
C7649 C7648 1.367 . S
C7649 C7651 1.433 . S
C7650 C7646 1.350 . S
C7650 C7647 1.463 . S
C7650 N7654 1.427 . S
C7651 H7641 0.929 . S
C7651 C7649 1.433 . S
C7651 N7654 1.384 . S
C7652 H7643 0.929 . S
C7652 C7644 1.378 . S
C7652 C7647 1.350 . S
C7653 H7640 0.929 . S
C7653 C7645 1.433 . S
C7653 N7655 1.384 . S
N7654 C7650 1.427 . S
N7654 C7651 1.384 . S
N7655 C7647 1.427 . S
N7655 C7653 1.384 . S
H7656 C7662 0.930 . S
H7657 C7666 0.930 . S
H7658 C7671 0.929 . S
H7659 C7669 0.929 . S
H7660 C7664 0.929 . S
H7661 C7670 0.929 . S
C7662 H7656 0.930 . S
C7662 C7663 1.367 . S
C7662 C7670 1.378 . S
C7663 C7662 1.367 . S
C7663 C7671 1.433 . S
C7664 H7660 0.929 . S
C7664 C7666 1.378 . S
C7664 C7668 1.350 . S
C7665 C7668 1.463 . S
C7665 C7670 1.350 . S
C7665 N7673 1.427 . S
C7666 H7657 0.930 . S
C7666 C7664 1.378 . S
C7666 C7667 1.367 . S
C7667 C7666 1.367 . S
C7667 C7669 1.433 . S
C7668 C7664 1.350 . S
C7668 C7665 1.463 . S
C7668 N7672 1.427 . S
C7669 H7659 0.929 . S
C7669 C7667 1.433 . S
C7669 N7672 1.384 . S
C7670 H7661 0.929 . S
C7670 C7662 1.378 . S
C7670 C7665 1.350 . S
C7671 H7658 0.929 . S
C7671 C7663 1.433 . S
C7671 N7673 1.384 . S
N7672 C7668 1.427 . S
N7672 C7669 1.384 . S
N7673 C7665 1.427 . S
N7673 C7671 1.384 . S
H7674 C7680 0.930 . S
H7675 C7684 0.930 . S
H7676 C7689 0.929 . S
H7677 C7687 0.929 . S
H7678 C7682 0.929 . S
H7679 C7688 0.927 1_545 S
C7680 H7674 0.930 . S
C7680 C7681 1.367 . S
C7680 C7688 1.347 1_545 S
C7681 C7680 1.367 . S
C7681 C7689 1.433 1_545 S
C7682 H7678 0.929 . S
C7682 C7684 1.378 . S
C7682 C7686 1.350 . S
C7683 C7686 1.463 . S
C7683 C7688 1.384 . S
C7683 N7691 1.427 . S
C7684 H7675 0.930 . S
C7684 C7682 1.378 . S
C7684 C7685 1.367 1_556 S
C7685 C7684 1.367 1_554 S
C7685 C7687 1.433 . S
C7686 C7682 1.350 . S
C7686 C7683 1.463 . S
C7686 N7690 1.458 . S
C7687 H7677 0.929 . S
C7687 C7685 1.433 . S
C7687 N7690 1.355 1_554 S
C7688 H7679 0.927 1_565 S
C7688 C7680 1.347 1_565 S
C7688 C7683 1.384 . S
C7689 H7676 0.929 . S
C7689 C7681 1.433 1_565 S
C7689 N7691 1.384 . S
N7690 C7686 1.458 . S
N7690 C7687 1.355 1_556 S
N7691 C7683 1.427 . S
N7691 C7689 1.384 . S
H7692 C7698 0.930 . S
H7693 C7702 0.930 . S
H7694 C7707 0.929 . S
H7695 C7705 0.929 . S
H7696 C7700 0.929 . S
H7697 C7706 0.929 . S
C7698 H7692 0.930 . S
C7698 C7699 1.367 . S
C7698 C7706 1.378 . S
C7699 C7698 1.367 . S
C7699 C7707 1.433 . S
C7700 H7696 0.929 . S
C7700 C7702 1.378 . S
C7700 C7704 1.350 . S
C7701 C7704 1.463 . S
C7701 C7706 1.350 . S
C7701 N7709 1.427 . S
C7702 H7693 0.930 . S
C7702 C7700 1.378 . S
C7702 C7703 1.367 . S
C7703 C7702 1.367 . S
C7703 C7705 1.433 . S
C7704 C7700 1.350 . S
C7704 C7701 1.463 . S
C7704 N7708 1.427 . S
C7705 H7695 0.929 . S
C7705 C7703 1.433 . S
C7705 N7708 1.384 . S
C7706 H7697 0.929 . S
C7706 C7698 1.378 . S
C7706 C7701 1.350 . S
C7707 H7694 0.929 . S
C7707 C7699 1.433 . S
C7707 N7709 1.384 . S
N7708 C7704 1.427 . S
N7708 C7705 1.384 . S
N7709 C7701 1.427 . S
N7709 C7707 1.384 . S
H7710 C7716 0.925 1_565 S
H7711 C7720 0.930 . S
H7712 C7725 0.929 . S
H7713 C7723 0.929 . S
H7714 C7718 0.929 . S
H7715 C7724 0.929 . S
C7716 H7710 0.925 1_545 S
C7716 C7717 1.357 1_545 S
C7716 C7724 1.389 . S
C7717 C7716 1.357 1_565 S
C7717 C7725 1.433 . S
C7718 H7714 0.929 . S
C7718 C7720 1.378 . S
C7718 C7722 1.350 . S
C7719 C7722 1.463 . S
C7719 C7724 1.350 . S
C7719 N7727 1.427 . S
C7720 H7711 0.930 . S
C7720 C7718 1.378 . S
C7720 C7721 1.367 . S
C7721 C7720 1.367 . S
C7721 C7723 1.433 . S
C7722 C7718 1.350 . S
C7722 C7719 1.463 . S
C7722 N7726 1.427 . S
C7723 H7713 0.929 . S
C7723 C7721 1.433 . S
C7723 N7726 1.384 . S
C7724 H7715 0.929 . S
C7724 C7716 1.389 . S
C7724 C7719 1.350 . S
C7725 H7712 0.929 . S
C7725 C7717 1.433 . S
C7725 N7727 1.384 1_565 S
N7726 C7722 1.427 . S
N7726 C7723 1.384 . S
N7727 C7719 1.427 . S
N7727 C7725 1.384 1_545 S
H7728 C7734 0.930 . S
H7729 C7738 0.930 . S
H7730 C7743 0.929 . S
H7731 C7741 0.929 . S
H7732 C7736 0.929 . S
H7733 C7742 0.929 . S
C7734 H7728 0.930 . S
C7734 C7735 1.367 . S
C7734 C7742 1.378 . S
C7735 C7734 1.367 . S
C7735 C7743 1.433 . S
C7736 H7732 0.929 . S
C7736 C7738 1.378 . S
C7736 C7740 1.350 . S
C7737 C7740 1.463 . S
C7737 C7742 1.350 . S
C7737 N7745 1.427 . S
C7738 H7729 0.930 . S
C7738 C7736 1.378 . S
C7738 C7739 1.367 . S
C7739 C7738 1.367 . S
C7739 C7741 1.433 . S
C7740 C7736 1.350 . S
C7740 C7737 1.463 . S
C7740 N7744 1.427 . S
C7741 H7731 0.929 . S
C7741 C7739 1.433 . S
C7741 N7744 1.384 . S
C7742 H7733 0.929 . S
C7742 C7734 1.378 . S
C7742 C7737 1.350 . S
C7743 H7730 0.929 . S
C7743 C7735 1.433 . S
C7743 N7745 1.384 . S
N7744 C7740 1.427 . S
N7744 C7741 1.384 . S
N7745 C7737 1.427 . S
N7745 C7743 1.384 . S
H7746 C7752 0.930 . S
H7747 C7756 0.930 . S
H7748 C7761 0.929 . S
H7749 C7759 0.929 . S
H7750 C7754 0.929 . S
H7751 C7760 0.929 . S
C7752 H7746 0.930 . S
C7752 C7753 1.367 . S
C7752 C7760 1.378 . S
C7753 C7752 1.367 . S
C7753 C7761 1.433 . S
C7754 H7750 0.929 . S
C7754 C7756 1.378 . S
C7754 C7758 1.350 . S
C7755 C7758 1.463 . S
C7755 C7760 1.350 . S
C7755 N7763 1.427 . S
C7756 H7747 0.930 . S
C7756 C7754 1.378 . S
C7756 C7757 1.367 . S
C7757 C7756 1.367 . S
C7757 C7759 1.433 . S
C7758 C7754 1.350 . S
C7758 C7755 1.463 . S
C7758 N7762 1.427 . S
C7759 H7749 0.929 . S
C7759 C7757 1.433 . S
C7759 N7762 1.384 . S
C7760 H7751 0.929 . S
C7760 C7752 1.378 . S
C7760 C7755 1.350 . S
C7761 H7748 0.929 . S
C7761 C7753 1.433 . S
C7761 N7763 1.384 . S
N7762 C7758 1.427 . S
N7762 C7759 1.384 . S
N7763 C7755 1.427 . S
N7763 C7761 1.384 . S
H7764 C7770 0.930 . S
H7765 C7774 0.930 . S
H7766 C7779 0.929 . S
H7767 C7777 0.929 . S
H7768 C7772 0.929 . S
H7769 C7778 0.929 . S
C7770 H7764 0.930 . S
C7770 C7771 1.367 . S
C7770 C7778 1.378 . S
C7771 C7770 1.367 . S
C7771 C7779 1.433 . S
C7772 H7768 0.929 . S
C7772 C7774 1.378 . S
C7772 C7776 1.350 . S
C7773 C7776 1.463 . S
C7773 C7778 1.350 . S
C7773 N7781 1.427 . S
C7774 H7765 0.930 . S
C7774 C7772 1.378 . S
C7774 C7775 1.367 . S
C7775 C7774 1.367 . S
C7775 C7777 1.433 . S
C7776 C7772 1.350 . S
C7776 C7773 1.463 . S
C7776 N7780 1.427 . S
C7777 H7767 0.929 . S
C7777 C7775 1.433 . S
C7777 N7780 1.384 . S
C7778 H7769 0.929 . S
C7778 C7770 1.378 . S
C7778 C7773 1.350 . S
C7779 H7766 0.929 . S
C7779 C7771 1.433 . S
C7779 N7781 1.384 . S
N7780 C7776 1.427 . S
N7780 C7777 1.384 . S
N7781 C7773 1.427 . S
N7781 C7779 1.384 . S
H7782 C7788 0.930 . S
H7783 C7792 0.930 . S
H7784 C7797 0.929 . S
H7785 C7795 0.929 . S
H7786 C7790 0.929 . S
H7787 C7796 0.929 . S
C7788 H7782 0.930 . S
C7788 C7789 1.367 . S
C7788 C7796 1.378 . S
C7789 C7788 1.367 . S
C7789 C7797 1.433 1_556 S
C7790 H7786 0.929 . S
C7790 C7792 1.378 . S
C7790 C7794 1.350 . S
C7791 C7794 1.463 . S
C7791 C7796 1.350 1_554 S
C7791 N7799 1.427 . S
C7792 H7783 0.930 . S
C7792 C7790 1.378 . S
C7792 C7793 1.367 . S
C7793 C7792 1.367 . S
C7793 C7795 1.433 . S
C7794 C7790 1.350 . S
C7794 C7791 1.463 . S
C7794 N7798 1.427 . S
C7795 H7785 0.929 . S
C7795 C7793 1.433 . S
C7795 N7798 1.384 . S
C7796 H7787 0.929 . S
C7796 C7788 1.378 . S
C7796 C7791 1.350 1_556 S
C7797 H7784 0.929 . S
C7797 C7789 1.433 1_554 S
C7797 N7799 1.384 . S
N7798 C7794 1.427 . S
N7798 C7795 1.384 . S
N7799 C7791 1.427 . S
N7799 C7797 1.384 . S
H7800 C7806 0.930 . S
H7801 C7810 0.930 . S
H7802 C7815 0.929 . S
H7803 C7813 0.929 . S
H7804 C7808 0.929 . S
H7805 C7814 0.929 . S
C7806 H7800 0.930 . S
C7806 C7807 1.367 . S
C7806 C7814 1.378 . S
C7807 C7806 1.367 . S
C7807 C7815 1.433 . S
C7808 H7804 0.929 . S
C7808 C7810 1.378 . S
C7808 C7812 1.350 . S
C7809 C7812 1.463 . S
C7809 C7814 1.350 . S
C7809 N7817 1.427 . S
C7810 H7801 0.930 . S
C7810 C7808 1.378 . S
C7810 C7811 1.367 . S
C7811 C7810 1.367 . S
C7811 C7813 1.433 . S
C7812 C7808 1.350 . S
C7812 C7809 1.463 . S
C7812 N7816 1.427 . S
C7813 H7803 0.929 . S
C7813 C7811 1.433 . S
C7813 N7816 1.384 . S
C7814 H7805 0.929 . S
C7814 C7806 1.378 . S
C7814 C7809 1.350 . S
C7815 H7802 0.929 . S
C7815 C7807 1.433 . S
C7815 N7817 1.384 . S
N7816 C7812 1.427 . S
N7816 C7813 1.384 . S
N7817 C7809 1.427 . S
N7817 C7815 1.384 . S
H7818 C7824 0.930 . S
H7819 C7828 0.930 . S
H7820 C7833 0.929 . S
H7821 C7831 0.929 . S
H7822 C7826 0.929 . S
H7823 C7832 0.929 . S
C7824 H7818 0.930 . S
C7824 C7825 1.367 . S
C7824 C7832 1.378 . S
C7825 C7824 1.367 . S
C7825 C7833 1.433 . S
C7826 H7822 0.929 . S
C7826 C7828 1.378 . S
C7826 C7830 1.350 . S
C7827 C7830 1.463 . S
C7827 C7832 1.350 . S
C7827 N7835 1.427 . S
C7828 H7819 0.930 . S
C7828 C7826 1.378 . S
C7828 C7829 1.367 . S
C7829 C7828 1.367 . S
C7829 C7831 1.433 . S
C7830 C7826 1.350 . S
C7830 C7827 1.463 . S
C7830 N7834 1.427 . S
C7831 H7821 0.929 . S
C7831 C7829 1.433 . S
C7831 N7834 1.384 . S
C7832 H7823 0.929 . S
C7832 C7824 1.378 . S
C7832 C7827 1.350 . S
C7833 H7820 0.929 . S
C7833 C7825 1.433 . S
C7833 N7835 1.384 . S
N7834 C7830 1.427 . S
N7834 C7831 1.384 . S
N7835 C7827 1.427 . S
N7835 C7833 1.384 . S
H7836 C7842 0.930 . S
H7837 C7846 0.930 . S
H7838 C7851 0.929 . S
H7839 C7849 0.929 . S
H7840 C7844 0.929 . S
H7841 C7850 0.929 . S
C7842 H7836 0.930 . S
C7842 C7843 1.367 . S
C7842 C7850 1.378 . S
C7843 C7842 1.367 . S
C7843 C7851 1.433 . S
C7844 H7840 0.929 . S
C7844 C7846 1.378 . S
C7844 C7848 1.350 . S
C7845 C7848 1.463 . S
C7845 C7850 1.350 . S
C7845 N7853 1.427 . S
C7846 H7837 0.930 . S
C7846 C7844 1.378 . S
C7846 C7847 1.367 . S
C7847 C7846 1.367 . S
C7847 C7849 1.433 . S
C7848 C7844 1.350 . S
C7848 C7845 1.463 . S
C7848 N7852 1.427 . S
C7849 H7839 0.929 . S
C7849 C7847 1.433 . S
C7849 N7852 1.384 . S
C7850 H7841 0.929 . S
C7850 C7842 1.378 . S
C7850 C7845 1.350 . S
C7851 H7838 0.929 . S
C7851 C7843 1.433 . S
C7851 N7853 1.384 . S
N7852 C7848 1.427 . S
N7852 C7849 1.384 . S
N7853 C7845 1.427 . S
N7853 C7851 1.384 . S
H7854 C7860 0.930 . S
H7855 C7864 0.930 . S
H7856 C7869 0.929 . S
H7857 C7867 0.929 . S
H7858 C7862 0.925 1_554 S
H7859 C7868 0.929 . S
C7860 H7854 0.930 . S
C7860 C7861 1.367 . S
C7860 C7868 1.378 . S
C7861 C7860 1.367 . S
C7861 C7869 1.433 . S
C7862 H7858 0.925 1_556 S
C7862 C7864 1.369 1_556 S
C7862 C7866 1.360 . S
C7863 C7866 1.463 . S
C7863 C7868 1.350 . S
C7863 N7871 1.427 . S
C7864 H7855 0.930 . S
C7864 C7862 1.369 1_554 S
C7864 C7865 1.367 . S
C7865 C7864 1.367 . S
C7865 C7867 1.433 1_554 S
C7866 C7862 1.360 . S
C7866 C7863 1.463 . S
C7866 N7870 1.427 . S
C7867 H7857 0.929 . S
C7867 C7865 1.433 1_556 S
C7867 N7870 1.384 . S
C7868 H7859 0.929 . S
C7868 C7860 1.378 . S
C7868 C7863 1.350 . S
C7869 H7856 0.929 . S
C7869 C7861 1.433 . S
C7869 N7871 1.384 . S
N7870 C7866 1.427 . S
N7870 C7867 1.384 . S
N7871 C7863 1.427 . S
N7871 C7869 1.384 . S
H7872 C7878 0.930 . S
H7873 C7882 0.930 . S
H7874 C7887 0.929 . S
H7875 C7885 0.929 . S
H7876 C7880 0.929 1_655 S
H7877 C7886 0.929 1_455 S
C7878 H7872 0.930 . S
C7878 C7879 1.367 . S
C7878 C7886 1.378 . S
C7879 C7878 1.367 . S
C7879 C7887 1.433 . S
C7880 H7876 0.929 1_455 S
C7880 C7882 1.378 . S
C7880 C7884 1.350 . S
C7881 C7884 1.463 1_655 S
C7881 C7886 1.350 . S
C7881 N7889 1.427 . S
C7882 H7873 0.930 . S
C7882 C7880 1.378 . S
C7882 C7883 1.367 . S
C7883 C7882 1.367 . S
C7883 C7885 1.433 . S
C7884 C7880 1.350 . S
C7884 C7881 1.463 1_455 S
C7884 N7888 1.427 . S
C7885 H7875 0.929 . S
C7885 C7883 1.433 . S
C7885 N7888 1.384 . S
C7886 H7877 0.929 1_655 S
C7886 C7878 1.378 . S
C7886 C7881 1.350 . S
C7887 H7874 0.929 . S
C7887 C7879 1.433 . S
C7887 N7889 1.384 . S
N7888 C7884 1.427 . S
N7888 C7885 1.384 . S
N7889 C7881 1.427 . S
N7889 C7887 1.384 . S
H7890 C7896 0.930 . S
H7891 C7900 0.930 . S
H7892 C7905 0.929 . S
H7893 C7903 0.929 . S
H7894 C7898 0.929 . S
H7895 C7904 0.929 . S
C7896 H7890 0.930 . S
C7896 C7897 1.367 . S
C7896 C7904 1.378 . S
C7897 C7896 1.367 . S
C7897 C7905 1.433 . S
C7898 H7894 0.929 . S
C7898 C7900 1.378 . S
C7898 C7902 1.350 . S
C7899 C7902 1.463 . S
C7899 C7904 1.350 . S
C7899 N7907 1.427 . S
C7900 H7891 0.930 . S
C7900 C7898 1.378 . S
C7900 C7901 1.367 . S
C7901 C7900 1.367 . S
C7901 C7903 1.433 . S
C7902 C7898 1.350 . S
C7902 C7899 1.463 . S
C7902 N7906 1.427 . S
C7903 H7893 0.929 . S
C7903 C7901 1.433 . S
C7903 N7906 1.384 . S
C7904 H7895 0.929 . S
C7904 C7896 1.378 . S
C7904 C7899 1.350 . S
C7905 H7892 0.929 . S
C7905 C7897 1.433 . S
C7905 N7907 1.384 . S
N7906 C7902 1.427 . S
N7906 C7903 1.384 . S
N7907 C7899 1.427 . S
N7907 C7905 1.384 . S
H7908 C7914 0.930 . S
H7909 C7918 0.930 . S
H7910 C7923 0.929 . S
H7911 C7921 0.929 . S
H7912 C7916 0.929 . S
H7913 C7922 0.929 . S
C7914 H7908 0.930 . S
C7914 C7915 1.367 . S
C7914 C7922 1.378 . S
C7915 C7914 1.367 . S
C7915 C7923 1.433 . S
C7916 H7912 0.929 . S
C7916 C7918 1.378 . S
C7916 C7920 1.350 . S
C7917 C7920 1.463 . S
C7917 C7922 1.350 . S
C7917 N7925 1.427 . S
C7918 H7909 0.930 . S
C7918 C7916 1.378 . S
C7918 C7919 1.367 . S
C7919 C7918 1.367 . S
C7919 C7921 1.433 . S
C7920 C7916 1.350 . S
C7920 C7917 1.463 . S
C7920 N7924 1.427 . S
C7921 H7911 0.929 . S
C7921 C7919 1.433 . S
C7921 N7924 1.384 . S
C7922 H7913 0.929 . S
C7922 C7914 1.378 . S
C7922 C7917 1.350 . S
C7923 H7910 0.929 . S
C7923 C7915 1.433 . S
C7923 N7925 1.384 . S
N7924 C7920 1.427 . S
N7924 C7921 1.384 . S
N7925 C7917 1.427 . S
N7925 C7923 1.384 . S
H7926 C7932 0.930 . S
H7927 C7936 0.930 . S
H7928 C7941 0.929 . S
H7929 C7939 0.929 . S
H7930 C7934 0.929 1_545 S
H7931 C7940 0.929 1_565 S
C7932 H7926 0.930 . S
C7932 C7933 1.367 . S
C7932 C7940 1.378 . S
C7933 C7932 1.367 . S
C7933 C7941 1.433 . S
C7934 H7930 0.929 1_565 S
C7934 C7936 1.378 . S
C7934 C7938 1.350 . S
C7935 C7938 1.463 1_545 S
C7935 C7940 1.350 . S
C7935 N7943 1.427 . S
C7936 H7927 0.930 . S
C7936 C7934 1.378 . S
C7936 C7937 1.367 . S
C7937 C7936 1.367 . S
C7937 C7939 1.433 . S
C7938 C7934 1.350 . S
C7938 C7935 1.463 1_565 S
C7938 N7942 1.427 . S
C7939 H7929 0.929 . S
C7939 C7937 1.433 . S
C7939 N7942 1.384 . S
C7940 H7931 0.929 1_545 S
C7940 C7932 1.378 . S
C7940 C7935 1.350 . S
C7941 H7928 0.929 . S
C7941 C7933 1.433 . S
C7941 N7943 1.384 . S
N7942 C7938 1.427 . S
N7942 C7939 1.384 . S
N7943 C7935 1.427 . S
N7943 C7941 1.384 . S
H7944 C7950 0.930 . S
H7945 C7954 0.930 . S
H7946 C7959 0.929 . S
H7947 C7957 0.929 . S
H7948 C7952 0.929 . S
H7949 C7958 0.929 . S
C7950 H7944 0.930 . S
C7950 C7951 1.367 . S
C7950 C7958 1.378 . S
C7951 C7950 1.367 . S
C7951 C7959 1.433 . S
C7952 H7948 0.929 . S
C7952 C7954 1.378 . S
C7952 C7956 1.350 . S
C7953 C7956 1.463 1_455 S
C7953 C7958 1.350 . S
C7953 N7961 1.427 . S
C7954 H7945 0.930 . S
C7954 C7952 1.378 . S
C7954 C7955 1.367 . S
C7955 C7954 1.367 . S
C7955 C7957 1.433 . S
C7956 C7952 1.350 . S
C7956 C7953 1.463 1_655 S
C7956 N7960 1.427 . S
C7957 H7947 0.929 . S
C7957 C7955 1.433 . S
C7957 N7960 1.384 . S
C7958 H7949 0.929 . S
C7958 C7950 1.378 . S
C7958 C7953 1.350 . S
C7959 H7946 0.929 . S
C7959 C7951 1.433 . S
C7959 N7961 1.384 . S
N7960 C7956 1.427 . S
N7960 C7957 1.384 . S
N7961 C7953 1.427 . S
N7961 C7959 1.384 . S
H7962 C7968 0.930 . S
H7963 C7972 0.930 . S
H7964 C7977 0.929 . S
H7965 C7975 0.929 . S
H7966 C7970 0.929 . S
H7967 C7976 0.929 . S
C7968 H7962 0.930 . S
C7968 C7969 1.367 . S
C7968 C7976 1.378 . S
C7969 C7968 1.367 . S
C7969 C7977 1.433 . S
C7970 H7966 0.929 . S
C7970 C7972 1.378 . S
C7970 C7974 1.350 . S
C7971 C7974 1.463 . S
C7971 C7976 1.350 . S
C7971 N7979 1.427 . S
C7972 H7963 0.930 . S
C7972 C7970 1.378 . S
C7972 C7973 1.367 . S
C7973 C7972 1.367 . S
C7973 C7975 1.433 . S
C7974 C7970 1.350 . S
C7974 C7971 1.463 . S
C7974 N7978 1.427 . S
C7975 H7965 0.929 . S
C7975 C7973 1.433 . S
C7975 N7978 1.384 . S
C7976 H7967 0.929 . S
C7976 C7968 1.378 . S
C7976 C7971 1.350 . S
C7977 H7964 0.929 . S
C7977 C7969 1.433 . S
C7977 N7979 1.384 . S
N7978 C7974 1.427 . S
N7978 C7975 1.384 . S
N7979 C7971 1.427 . S
N7979 C7977 1.384 . S
H7980 C7986 0.930 . S
H7981 C7990 0.930 . S
H7982 C7995 0.929 . S
H7983 C7993 0.929 . S
H7984 C7988 0.929 . S
H7985 C7994 0.929 . S
C7986 H7980 0.930 . S
C7986 C7987 1.367 . S
C7986 C7994 1.378 . S
C7987 C7986 1.367 . S
C7987 C7995 1.433 . S
C7988 H7984 0.929 . S
C7988 C7990 1.378 . S
C7988 C7992 1.350 . S
C7989 C7992 1.463 . S
C7989 C7994 1.350 . S
C7989 N7997 1.427 . S
C7990 H7981 0.930 . S
C7990 C7988 1.378 . S
C7990 C7991 1.367 . S
C7991 C7990 1.367 . S
C7991 C7993 1.433 . S
C7992 C7988 1.350 . S
C7992 C7989 1.463 . S
C7992 N7996 1.427 . S
C7993 H7983 0.929 . S
C7993 C7991 1.433 . S
C7993 N7996 1.384 . S
C7994 H7985 0.929 . S
C7994 C7986 1.378 . S
C7994 C7989 1.350 . S
C7995 H7982 0.929 . S
C7995 C7987 1.433 . S
C7995 N7997 1.384 . S
N7996 C7992 1.427 . S
N7996 C7993 1.384 . S
N7997 C7989 1.427 . S
N7997 C7995 1.384 . S
H7998 C8004 0.930 . S
H7999 C8008 0.930 . S
H8000 C8013 0.929 . S
H8001 C8011 0.929 . S
H8002 C8006 0.878 1_565 S
H8003 C8012 0.878 1_545 S
C8004 H7998 0.930 . S
C8004 C8005 1.367 . S
C8004 C8012 1.414 . S
C8005 C8004 1.367 . S
C8005 C8013 1.433 . S
C8006 H8002 0.878 1_545 S
C8006 C8008 1.414 . S
C8006 C8010 1.366 . S
C8007 C8010 1.463 1_565 S
C8007 C8012 1.366 . S
C8007 N8015 1.427 . S
C8008 H7999 0.930 . S
C8008 C8006 1.414 . S
C8008 C8009 1.367 . S
C8009 C8008 1.367 . S
C8009 C8011 1.433 . S
C8010 C8006 1.366 . S
C8010 C8007 1.463 1_545 S
C8010 N8014 1.427 . S
C8011 H8001 0.929 . S
C8011 C8009 1.433 . S
C8011 N8014 1.384 . S
C8012 H8003 0.878 1_565 S
C8012 C8004 1.414 . S
C8012 C8007 1.366 . S
C8013 H8000 0.929 . S
C8013 C8005 1.433 . S
C8013 N8015 1.384 . S
N8014 C8010 1.427 . S
N8014 C8011 1.384 . S
N8015 C8007 1.427 . S
N8015 C8013 1.384 . S
H8016 C8022 0.930 . S
H8017 C8026 0.930 . S
H8018 C8031 0.929 . S
H8019 C8029 0.929 . S
H8020 C8024 0.872 1_565 S
H8021 C8030 0.872 1_545 S
C8022 H8016 0.930 . S
C8022 C8023 1.367 . S
C8022 C8030 1.378 . S
C8023 C8022 1.367 . S
C8023 C8031 1.433 . S
C8024 H8020 0.872 1_545 S
C8024 C8026 1.378 . S
C8024 C8028 1.350 . S
C8025 C8028 1.463 1_565 S
C8025 C8030 1.350 . S
C8025 N8033 1.427 . S
C8026 H8017 0.930 . S
C8026 C8024 1.378 . S
C8026 C8027 1.367 . S
C8027 C8026 1.367 . S
C8027 C8029 1.433 . S
C8028 C8024 1.350 . S
C8028 C8025 1.463 1_545 S
C8028 N8032 1.427 . S
C8029 H8019 0.929 . S
C8029 C8027 1.433 . S
C8029 N8032 1.384 . S
C8030 H8021 0.872 1_565 S
C8030 C8022 1.378 . S
C8030 C8025 1.350 . S
C8031 H8018 0.929 . S
C8031 C8023 1.433 . S
C8031 N8033 1.384 . S
N8032 C8028 1.427 . S
N8032 C8029 1.384 . S
N8033 C8025 1.427 . S
N8033 C8031 1.384 . S
H8034 C8040 0.930 . S
H8035 C8044 0.930 . S
H8036 C8049 0.929 . S
H8037 C8047 0.929 . S
H8038 C8042 0.929 1_455 S
H8039 C8048 0.929 1_655 S
C8040 H8034 0.930 . S
C8040 C8041 1.367 . S
C8040 C8048 1.378 . S
C8041 C8040 1.367 . S
C8041 C8049 1.433 . S
C8042 H8038 0.929 1_655 S
C8042 C8044 1.378 . S
C8042 C8046 1.350 . S
C8043 C8046 1.463 1_455 S
C8043 C8048 1.350 . S
C8043 N8051 1.427 . S
C8044 H8035 0.930 . S
C8044 C8042 1.378 . S
C8044 C8045 1.367 . S
C8045 C8044 1.367 . S
C8045 C8047 1.433 . S
C8046 C8042 1.350 . S
C8046 C8043 1.463 1_655 S
C8046 N8050 1.427 . S
C8047 H8037 0.929 . S
C8047 C8045 1.433 . S
C8047 N8050 1.384 . S
C8048 H8039 0.929 1_455 S
C8048 C8040 1.378 . S
C8048 C8043 1.350 . S
C8049 H8036 0.929 . S
C8049 C8041 1.433 . S
C8049 N8051 1.384 . S
N8050 C8046 1.427 . S
N8050 C8047 1.384 . S
N8051 C8043 1.427 . S
N8051 C8049 1.384 . S
H8052 C8058 0.930 . S
H8053 C8062 0.930 . S
H8054 C8067 0.929 . S
H8055 C8065 0.929 . S
H8056 C8060 0.929 . S
H8057 C8066 0.929 . S
C8058 H8052 0.930 . S
C8058 C8059 1.367 . S
C8058 C8066 1.378 . S
C8059 C8058 1.367 . S
C8059 C8067 1.433 . S
C8060 H8056 0.929 . S
C8060 C8062 1.378 . S
C8060 C8064 1.350 . S
C8061 C8064 1.463 . S
C8061 C8066 1.350 . S
C8061 N8069 1.427 . S
C8062 H8053 0.930 . S
C8062 C8060 1.378 . S
C8062 C8063 1.367 . S
C8063 C8062 1.367 . S
C8063 C8065 1.433 . S
C8064 C8060 1.350 . S
C8064 C8061 1.463 . S
C8064 N8068 1.427 . S
C8065 H8055 0.929 . S
C8065 C8063 1.433 . S
C8065 N8068 1.384 . S
C8066 H8057 0.929 . S
C8066 C8058 1.378 . S
C8066 C8061 1.350 . S
C8067 H8054 0.929 . S
C8067 C8059 1.433 . S
C8067 N8069 1.384 . S
N8068 C8064 1.427 . S
N8068 C8065 1.384 . S
N8069 C8061 1.427 . S
N8069 C8067 1.384 . S
H8070 C8076 0.930 . S
H8071 C8080 0.930 . S
H8072 C8085 0.929 . S
H8073 C8083 0.929 . S
H8074 C8078 0.929 . S
H8075 C8084 0.929 . S
C8076 H8070 0.930 . S
C8076 C8077 1.367 . S
C8076 C8084 1.378 . S
C8077 C8076 1.367 . S
C8077 C8085 1.433 . S
C8078 H8074 0.929 . S
C8078 C8080 1.378 . S
C8078 C8082 1.350 . S
C8079 C8082 1.463 . S
C8079 C8084 1.350 . S
C8079 N8087 1.427 . S
C8080 H8071 0.930 . S
C8080 C8078 1.378 . S
C8080 C8081 1.367 . S
C8081 C8080 1.367 . S
C8081 C8083 1.433 . S
C8082 C8078 1.350 . S
C8082 C8079 1.463 . S
C8082 N8086 1.427 . S
C8083 H8073 0.929 . S
C8083 C8081 1.433 . S
C8083 N8086 1.384 . S
C8084 H8075 0.929 . S
C8084 C8076 1.378 . S
C8084 C8079 1.350 . S
C8085 H8072 0.929 . S
C8085 C8077 1.433 . S
C8085 N8087 1.384 . S
N8086 C8082 1.427 . S
N8086 C8083 1.384 . S
N8087 C8079 1.427 . S
N8087 C8085 1.384 . S
H8088 C8094 0.930 . S
H8089 C8098 0.930 . S
H8090 C8103 0.929 . S
H8091 C8101 0.929 . S
H8092 C8096 0.929 . S
H8093 C8102 0.929 . S
C8094 H8088 0.930 . S
C8094 C8095 1.367 . S
C8094 C8102 1.378 . S
C8095 C8094 1.367 . S
C8095 C8103 1.433 . S
C8096 H8092 0.929 . S
C8096 C8098 1.378 . S
C8096 C8100 1.350 . S
C8097 C8100 1.463 . S
C8097 C8102 1.350 . S
C8097 N8105 1.427 . S
C8098 H8089 0.930 . S
C8098 C8096 1.378 . S
C8098 C8099 1.367 . S
C8099 C8098 1.367 . S
C8099 C8101 1.433 . S
C8100 C8096 1.350 . S
C8100 C8097 1.463 . S
C8100 N8104 1.427 . S
C8101 H8091 0.929 . S
C8101 C8099 1.433 . S
C8101 N8104 1.384 . S
C8102 H8093 0.929 . S
C8102 C8094 1.378 . S
C8102 C8097 1.350 . S
C8103 H8090 0.929 . S
C8103 C8095 1.433 . S
C8103 N8105 1.384 . S
N8104 C8100 1.427 . S
N8104 C8101 1.384 . S
N8105 C8097 1.427 . S
N8105 C8103 1.384 . S
H8106 C8112 0.930 . S
H8107 C8116 0.930 . S
H8108 C8121 0.929 . S
H8109 C8119 0.929 . S
H8110 C8114 0.929 . S
H8111 C8120 0.929 . S
C8112 H8106 0.930 . S
C8112 C8113 1.367 . S
C8112 C8120 1.378 . S
C8113 C8112 1.367 . S
C8113 C8121 1.433 . S
C8114 H8110 0.929 . S
C8114 C8116 1.378 . S
C8114 C8118 1.350 . S
C8115 C8118 1.463 . S
C8115 C8120 1.350 . S
C8115 N8123 1.427 . S
C8116 H8107 0.930 . S
C8116 C8114 1.378 . S
C8116 C8117 1.367 . S
C8117 C8116 1.367 . S
C8117 C8119 1.433 . S
C8118 C8114 1.350 . S
C8118 C8115 1.463 . S
C8118 N8122 1.427 . S
C8119 H8109 0.929 . S
C8119 C8117 1.433 . S
C8119 N8122 1.384 . S
C8120 H8111 0.929 . S
C8120 C8112 1.378 . S
C8120 C8115 1.350 . S
C8121 H8108 0.929 . S
C8121 C8113 1.433 . S
C8121 N8123 1.384 . S
N8122 C8118 1.427 . S
N8122 C8119 1.384 . S
N8123 C8115 1.427 . S
N8123 C8121 1.384 . S
H8124 C8130 0.930 . S
H8125 C8134 0.930 . S
H8126 C8139 0.929 . S
H8127 C8137 0.929 . S
H8128 C8132 0.929 . S
H8129 C8138 0.929 . S
C8130 H8124 0.930 . S
C8130 C8131 1.367 . S
C8130 C8138 1.378 . S
C8131 C8130 1.367 . S
C8131 C8139 1.433 . S
C8132 H8128 0.929 . S
C8132 C8134 1.378 . S
C8132 C8136 1.350 . S
C8133 C8136 1.463 1_565 S
C8133 C8138 1.350 . S
C8133 N8141 1.459 . S
C8134 H8125 0.930 . S
C8134 C8132 1.378 . S
C8134 C8135 1.367 . S
C8135 C8134 1.367 . S
C8135 C8137 1.433 . S
C8136 C8132 1.350 . S
C8136 C8133 1.463 1_545 S
C8136 N8140 1.459 . S
C8137 H8127 0.929 . S
C8137 C8135 1.433 . S
C8137 N8140 1.455 . S
C8138 H8129 0.929 . S
C8138 C8130 1.378 . S
C8138 C8133 1.350 . S
C8139 H8126 0.929 . S
C8139 C8131 1.433 . S
C8139 N8141 1.455 . S
N8140 C8136 1.459 . S
N8140 C8137 1.455 . S
N8141 C8133 1.459 . S
N8141 C8139 1.455 . S
H8142 C8148 0.930 . S
H8143 C8152 0.930 . S
H8144 C8157 0.929 . S
H8145 C8155 0.929 . S
H8146 C8150 0.840 1_655 S
H8147 C8156 0.840 1_455 S
C8148 H8142 0.930 . S
C8148 C8149 1.367 . S
C8148 C8156 1.446 . S
C8149 C8148 1.367 . S
C8149 C8157 1.433 . S
C8150 H8146 0.840 1_455 S
C8150 C8152 1.446 . S
C8150 C8154 1.379 . S
C8151 C8154 1.463 1_655 S
C8151 C8156 1.379 . S
C8151 N8159 1.427 . S
C8152 H8143 0.930 . S
C8152 C8150 1.446 . S
C8152 C8153 1.367 . S
C8153 C8152 1.367 . S
C8153 C8155 1.433 . S
C8154 C8150 1.379 . S
C8154 C8151 1.463 1_455 S
C8154 N8158 1.427 . S
C8155 H8145 0.929 . S
C8155 C8153 1.433 . S
C8155 N8158 1.384 . S
C8156 H8147 0.840 1_655 S
C8156 C8148 1.446 . S
C8156 C8151 1.379 . S
C8157 H8144 0.929 . S
C8157 C8149 1.433 . S
C8157 N8159 1.384 . S
N8158 C8154 1.427 . S
N8158 C8155 1.384 . S
N8159 C8151 1.427 . S
N8159 C8157 1.384 . S
H8160 C8166 0.930 . S
H8161 C8170 0.930 . S
H8162 C8175 0.929 . S
H8163 C8173 0.929 . S
H8164 C8168 0.929 . S
H8165 C8174 0.929 . S
C8166 H8160 0.930 . S
C8166 C8167 1.367 . S
C8166 C8174 1.378 . S
C8167 C8166 1.367 . S
C8167 C8175 1.433 . S
C8168 H8164 0.929 . S
C8168 C8170 1.378 . S
C8168 C8172 1.350 . S
C8169 C8172 1.463 1_556 S
C8169 C8174 1.350 . S
C8169 N8177 1.427 . S
C8170 H8161 0.930 . S
C8170 C8168 1.378 . S
C8170 C8171 1.367 . S
C8171 C8170 1.367 . S
C8171 C8173 1.433 . S
C8172 C8168 1.350 . S
C8172 C8169 1.463 1_554 S
C8172 N8176 1.427 . S
C8173 H8163 0.929 . S
C8173 C8171 1.433 . S
C8173 N8176 1.384 . S
C8174 H8165 0.929 . S
C8174 C8166 1.378 . S
C8174 C8169 1.350 . S
C8175 H8162 0.929 . S
C8175 C8167 1.433 . S
C8175 N8177 1.384 . S
N8176 C8172 1.427 . S
N8176 C8173 1.384 . S
N8177 C8169 1.427 . S
N8177 C8175 1.384 . S
H8178 C8184 0.930 . S
H8179 C8188 0.930 . S
H8180 C8193 0.929 . S
H8181 C8191 0.929 . S
H8182 C8186 0.929 . S
H8183 C8192 0.929 . S
C8184 H8178 0.930 . S
C8184 C8185 1.367 . S
C8184 C8192 1.378 . S
C8185 C8184 1.367 . S
C8185 C8193 1.433 . S
C8186 H8182 0.929 . S
C8186 C8188 1.378 . S
C8186 C8190 1.350 . S
C8187 C8190 1.463 . S
C8187 C8192 1.350 . S
C8187 N8195 1.427 . S
C8188 H8179 0.930 . S
C8188 C8186 1.378 . S
C8188 C8189 1.367 . S
C8189 C8188 1.367 . S
C8189 C8191 1.433 . S
C8190 C8186 1.350 . S
C8190 C8187 1.463 . S
C8190 N8194 1.427 . S
C8191 H8181 0.929 . S
C8191 C8189 1.433 . S
C8191 N8194 1.384 . S
C8192 H8183 0.929 . S
C8192 C8184 1.378 . S
C8192 C8187 1.350 . S
C8193 H8180 0.929 . S
C8193 C8185 1.433 . S
C8193 N8195 1.384 . S
N8194 C8190 1.427 . S
N8194 C8191 1.384 . S
N8195 C8187 1.427 . S
N8195 C8193 1.384 . S
H8196 C8202 0.930 . S
H8197 C8206 0.930 . S
H8198 C8211 0.929 . S
H8199 C8209 0.929 . S
H8200 C8204 0.929 . S
H8201 C8210 0.929 . S
C8202 H8196 0.930 . S
C8202 C8203 1.367 . S
C8202 C8210 1.378 . S
C8203 C8202 1.367 . S
C8203 C8211 1.433 . S
C8204 H8200 0.929 . S
C8204 C8206 1.378 . S
C8204 C8208 1.350 . S
C8205 C8208 1.463 . S
C8205 C8210 1.350 . S
C8205 N8213 1.427 . S
C8206 H8197 0.930 . S
C8206 C8204 1.378 . S
C8206 C8207 1.367 . S
C8207 C8206 1.367 . S
C8207 C8209 1.433 . S
C8208 C8204 1.350 . S
C8208 C8205 1.463 . S
C8208 N8212 1.427 . S
C8209 H8199 0.929 . S
C8209 C8207 1.433 . S
C8209 N8212 1.384 . S
C8210 H8201 0.929 . S
C8210 C8202 1.378 . S
C8210 C8205 1.350 . S
C8211 H8198 0.929 . S
C8211 C8203 1.433 . S
C8211 N8213 1.384 . S
N8212 C8208 1.427 . S
N8212 C8209 1.384 . S
N8213 C8205 1.427 . S
N8213 C8211 1.384 . S
H8214 C8220 0.930 . S
H8215 C8224 0.930 . S
H8216 C8229 0.929 . S
H8217 C8227 0.929 . S
H8218 C8222 0.929 . S
H8219 C8228 0.929 . S
C8220 H8214 0.930 . S
C8220 C8221 1.367 . S
C8220 C8228 1.378 . S
C8221 C8220 1.367 . S
C8221 C8229 1.433 . S
C8222 H8218 0.929 . S
C8222 C8224 1.378 . S
C8222 C8226 1.350 . S
C8223 C8226 1.463 . S
C8223 C8228 1.350 . S
C8223 N8231 1.427 . S
C8224 H8215 0.930 . S
C8224 C8222 1.378 . S
C8224 C8225 1.367 . S
C8225 C8224 1.367 . S
C8225 C8227 1.433 . S
C8226 C8222 1.350 . S
C8226 C8223 1.463 . S
C8226 N8230 1.427 . S
C8227 H8217 0.929 . S
C8227 C8225 1.433 . S
C8227 N8230 1.384 . S
C8228 H8219 0.929 . S
C8228 C8220 1.378 . S
C8228 C8223 1.350 . S
C8229 H8216 0.929 . S
C8229 C8221 1.433 . S
C8229 N8231 1.384 . S
N8230 C8226 1.427 . S
N8230 C8227 1.384 . S
N8231 C8223 1.427 . S
N8231 C8229 1.384 . S
H8232 C8238 0.930 . S
H8233 C8242 0.930 . S
H8234 C8247 0.929 . S
H8235 C8245 0.929 . S
H8236 C8240 0.929 . S
H8237 C8246 0.929 . S
C8238 H8232 0.930 . S
C8238 C8239 1.367 . S
C8238 C8246 1.378 . S
C8239 C8238 1.367 . S
C8239 C8247 1.433 . S
C8240 H8236 0.929 . S
C8240 C8242 1.378 . S
C8240 C8244 1.350 . S
C8241 C8244 1.463 . S
C8241 C8246 1.350 . S
C8241 N8249 1.427 . S
C8242 H8233 0.930 . S
C8242 C8240 1.378 . S
C8242 C8243 1.367 . S
C8243 C8242 1.367 . S
C8243 C8245 1.433 . S
C8244 C8240 1.350 . S
C8244 C8241 1.463 . S
C8244 N8248 1.427 . S
C8245 H8235 0.929 . S
C8245 C8243 1.433 . S
C8245 N8248 1.384 . S
C8246 H8237 0.929 . S
C8246 C8238 1.378 . S
C8246 C8241 1.350 . S
C8247 H8234 0.929 . S
C8247 C8239 1.433 . S
C8247 N8249 1.384 . S
N8248 C8244 1.427 . S
N8248 C8245 1.384 . S
N8249 C8241 1.427 . S
N8249 C8247 1.384 . S
H8250 C8256 0.930 . S
H8251 C8260 0.930 . S
H8252 C8265 0.929 . S
H8253 C8263 0.929 . S
H8254 C8258 0.849 1_556 S
H8255 C8264 0.849 1_554 S
C8256 H8250 0.930 . S
C8256 C8257 1.367 . S
C8256 C8264 1.439 . S
C8257 C8256 1.367 . S
C8257 C8265 1.433 . S
C8258 H8254 0.849 1_554 S
C8258 C8260 1.439 . S
C8258 C8262 1.376 . S
C8259 C8262 1.463 1_556 S
C8259 C8264 1.376 . S
C8259 N8267 1.427 . S
C8260 H8251 0.930 . S
C8260 C8258 1.439 . S
C8260 C8261 1.367 . S
C8261 C8260 1.367 . S
C8261 C8263 1.433 . S
C8262 C8258 1.376 . S
C8262 C8259 1.463 1_554 S
C8262 N8266 1.427 . S
C8263 H8253 0.929 . S
C8263 C8261 1.433 . S
C8263 N8266 1.384 . S
C8264 H8255 0.849 1_556 S
C8264 C8256 1.439 . S
C8264 C8259 1.376 . S
C8265 H8252 0.929 . S
C8265 C8257 1.433 . S
C8265 N8267 1.384 . S
N8266 C8262 1.427 . S
N8266 C8263 1.384 . S
N8267 C8259 1.427 . S
N8267 C8265 1.384 . S
H8268 C8274 0.930 . S
H8269 C8278 0.930 . S
H8270 C8283 0.929 . S
H8271 C8281 0.929 . S
H8272 C8276 0.929 . S
H8273 C8282 0.929 . S
C8274 H8268 0.930 . S
C8274 C8275 1.367 . S
C8274 C8282 1.378 . S
C8275 C8274 1.367 . S
C8275 C8283 1.433 . S
C8276 H8272 0.929 . S
C8276 C8278 1.378 . S
C8276 C8280 1.350 . S
C8277 C8280 1.463 . S
C8277 C8282 1.350 . S
C8277 N8285 1.427 . S
C8278 H8269 0.930 . S
C8278 C8276 1.378 . S
C8278 C8279 1.367 . S
C8279 C8278 1.367 . S
C8279 C8281 1.433 . S
C8280 C8276 1.350 . S
C8280 C8277 1.463 . S
C8280 N8284 1.427 . S
C8281 H8271 0.929 . S
C8281 C8279 1.433 . S
C8281 N8284 1.384 . S
C8282 H8273 0.929 . S
C8282 C8274 1.378 . S
C8282 C8277 1.350 . S
C8283 H8270 0.929 . S
C8283 C8275 1.433 . S
C8283 N8285 1.384 . S
N8284 C8280 1.427 . S
N8284 C8281 1.384 . S
N8285 C8277 1.427 . S
N8285 C8283 1.384 . S
H8286 C8292 0.930 . S
H8287 C8296 0.930 . S
H8288 C8301 0.929 . S
H8289 C8299 0.929 . S
H8290 C8294 0.929 . S
H8291 C8300 0.929 . S
C8292 H8286 0.930 . S
C8292 C8293 1.367 . S
C8292 C8300 1.378 . S
C8293 C8292 1.367 . S
C8293 C8301 1.433 . S
C8294 H8290 0.929 . S
C8294 C8296 1.378 . S
C8294 C8298 1.350 . S
C8295 C8298 1.463 . S
C8295 C8300 1.350 . S
C8295 N8303 1.427 . S
C8296 H8287 0.930 . S
C8296 C8294 1.378 . S
C8296 C8297 1.367 . S
C8297 C8296 1.367 . S
C8297 C8299 1.433 . S
C8298 C8294 1.350 . S
C8298 C8295 1.463 . S
C8298 N8302 1.427 . S
C8299 H8289 0.929 . S
C8299 C8297 1.433 . S
C8299 N8302 1.384 . S
C8300 H8291 0.929 . S
C8300 C8292 1.378 . S
C8300 C8295 1.350 . S
C8301 H8288 0.929 . S
C8301 C8293 1.433 . S
C8301 N8303 1.384 . S
N8302 C8298 1.427 . S
N8302 C8299 1.384 . S
N8303 C8295 1.427 . S
N8303 C8301 1.384 . S
H8304 C8310 0.930 . S
H8305 C8314 0.930 . S
H8306 C8319 0.929 . S
H8307 C8317 0.929 . S
H8308 C8312 0.861 1_455 S
H8309 C8318 0.861 1_655 S
C8310 H8304 0.930 . S
C8310 C8311 1.367 . S
C8310 C8318 1.428 . S
C8311 C8310 1.367 . S
C8311 C8319 1.433 . S
C8312 H8308 0.861 1_655 S
C8312 C8314 1.428 . S
C8312 C8316 1.372 . S
C8313 C8316 1.463 1_455 S
C8313 C8318 1.372 . S
C8313 N8321 1.427 . S
C8314 H8305 0.930 . S
C8314 C8312 1.428 . S
C8314 C8315 1.367 . S
C8315 C8314 1.367 . S
C8315 C8317 1.433 . S
C8316 C8312 1.372 . S
C8316 C8313 1.463 1_655 S
C8316 N8320 1.427 . S
C8317 H8307 0.929 . S
C8317 C8315 1.433 . S
C8317 N8320 1.384 . S
C8318 H8309 0.861 1_455 S
C8318 C8310 1.428 . S
C8318 C8313 1.372 . S
C8319 H8306 0.929 . S
C8319 C8311 1.433 . S
C8319 N8321 1.384 . S
N8320 C8316 1.427 . S
N8320 C8317 1.384 . S
N8321 C8313 1.427 . S
N8321 C8319 1.384 . S
H8322 C8328 0.930 . S
H8323 C8332 0.930 . S
H8324 C8337 0.929 . S
H8325 C8335 0.929 . S
H8326 C8330 0.929 . S
H8327 C8336 0.929 . S
C8328 H8322 0.930 . S
C8328 C8329 1.367 . S
C8328 C8336 1.378 . S
C8329 C8328 1.367 . S
C8329 C8337 1.433 . S
C8330 H8326 0.929 . S
C8330 C8332 1.378 . S
C8330 C8334 1.350 . S
C8331 C8334 1.463 . S
C8331 C8336 1.350 . S
C8331 N8339 1.427 . S
C8332 H8323 0.930 . S
C8332 C8330 1.378 . S
C8332 C8333 1.367 . S
C8333 C8332 1.367 . S
C8333 C8335 1.433 . S
C8334 C8330 1.350 . S
C8334 C8331 1.463 . S
C8334 N8338 1.427 . S
C8335 H8325 0.929 . S
C8335 C8333 1.433 . S
C8335 N8338 1.384 . S
C8336 H8327 0.929 . S
C8336 C8328 1.378 . S
C8336 C8331 1.350 . S
C8337 H8324 0.929 . S
C8337 C8329 1.433 . S
C8337 N8339 1.384 . S
N8338 C8334 1.427 . S
N8338 C8335 1.384 . S
N8339 C8331 1.427 . S
N8339 C8337 1.384 . S
H8340 C8346 0.930 . S
H8341 C8350 0.930 . S
H8342 C8355 0.929 . S
H8343 C8353 0.929 . S
H8344 C8348 0.929 . S
H8345 C8354 0.929 . S
C8346 H8340 0.930 . S
C8346 C8347 1.367 . S
C8346 C8354 1.378 . S
C8347 C8346 1.367 . S
C8347 C8355 1.433 . S
C8348 H8344 0.929 . S
C8348 C8350 1.378 . S
C8348 C8352 1.350 . S
C8349 C8352 1.463 . S
C8349 C8354 1.350 . S
C8349 N8357 1.427 . S
C8350 H8341 0.930 . S
C8350 C8348 1.378 . S
C8350 C8351 1.367 . S
C8351 C8350 1.367 . S
C8351 C8353 1.433 . S
C8352 C8348 1.350 . S
C8352 C8349 1.463 . S
C8352 N8356 1.427 . S
C8353 H8343 0.929 . S
C8353 C8351 1.433 . S
C8353 N8356 1.384 . S
C8354 H8345 0.929 . S
C8354 C8346 1.378 . S
C8354 C8349 1.350 . S
C8355 H8342 0.929 . S
C8355 C8347 1.433 . S
C8355 N8357 1.384 . S
N8356 C8352 1.427 . S
N8356 C8353 1.384 . S
N8357 C8349 1.427 . S
N8357 C8355 1.384 . S
H8358 C8364 0.930 . S
H8359 C8368 0.930 . S
H8360 C8373 0.929 . S
H8361 C8371 0.929 . S
H8362 C8366 0.929 . S
H8363 C8372 0.929 . S
C8364 H8358 0.930 . S
C8364 C8365 1.367 . S
C8364 C8372 1.378 . S
C8365 C8364 1.367 . S
C8365 C8373 1.433 . S
C8366 H8362 0.929 . S
C8366 C8368 1.378 . S
C8366 C8370 1.350 . S
C8367 C8370 1.463 1_545 S
C8367 C8372 1.350 . S
C8367 N8375 1.425 1_545 S
C8368 H8359 0.930 . S
C8368 C8366 1.378 . S
C8368 C8369 1.367 . S
C8369 C8368 1.367 . S
C8369 C8371 1.433 . S
C8370 C8366 1.350 . S
C8370 C8367 1.463 1_565 S
C8370 N8374 1.425 1_565 S
C8371 H8361 0.929 . S
C8371 C8369 1.433 . S
C8371 N8374 1.380 1_565 S
C8372 H8363 0.929 . S
C8372 C8364 1.378 . S
C8372 C8367 1.350 . S
C8373 H8360 0.929 . S
C8373 C8365 1.433 . S
C8373 N8375 1.380 1_545 S
N8374 C8370 1.425 1_545 S
N8374 C8371 1.380 1_545 S
N8375 C8367 1.425 1_565 S
N8375 C8373 1.380 1_565 S
H8376 C8382 0.930 . S
H8377 C8386 0.930 . S
H8378 C8391 0.929 . S
H8379 C8389 0.929 . S
H8380 C8384 0.929 . S
H8381 C8390 0.929 . S
C8382 H8376 0.930 . S
C8382 C8383 1.367 . S
C8382 C8390 1.378 . S
C8383 C8382 1.367 . S
C8383 C8391 1.433 . S
C8384 H8380 0.929 . S
C8384 C8386 1.378 . S
C8384 C8388 1.350 . S
C8385 C8388 1.463 1_655 S
C8385 C8390 1.350 . S
C8385 N8393 1.427 . S
C8386 H8377 0.930 . S
C8386 C8384 1.378 . S
C8386 C8387 1.367 . S
C8387 C8386 1.367 . S
C8387 C8389 1.433 . S
C8388 C8384 1.350 . S
C8388 C8385 1.463 1_455 S
C8388 N8392 1.427 . S
C8389 H8379 0.929 . S
C8389 C8387 1.433 . S
C8389 N8392 1.384 . S
C8390 H8381 0.929 . S
C8390 C8382 1.378 . S
C8390 C8385 1.350 . S
C8391 H8378 0.929 . S
C8391 C8383 1.433 . S
C8391 N8393 1.384 . S
N8392 C8388 1.427 . S
N8392 C8389 1.384 . S
N8393 C8385 1.427 . S
N8393 C8391 1.384 . S
H8394 C8400 0.930 . S
H8395 C8404 0.930 . S
H8396 C8409 0.929 . S
H8397 C8407 0.929 . S
H8398 C8402 0.929 . S
H8399 C8408 0.929 . S
C8400 H8394 0.930 . S
C8400 C8401 1.367 . S
C8400 C8408 1.378 . S
C8401 C8400 1.367 . S
C8401 C8409 1.433 . S
C8402 H8398 0.929 . S
C8402 C8404 1.378 . S
C8402 C8406 1.350 . S
C8403 C8406 1.463 . S
C8403 C8408 1.350 . S
C8403 N8411 1.427 . S
C8404 H8395 0.930 . S
C8404 C8402 1.378 . S
C8404 C8405 1.367 . S
C8405 C8404 1.367 . S
C8405 C8407 1.433 . S
C8406 C8402 1.350 . S
C8406 C8403 1.463 . S
C8406 N8410 1.427 . S
C8407 H8397 0.929 . S
C8407 C8405 1.433 . S
C8407 N8410 1.384 . S
C8408 H8399 0.929 . S
C8408 C8400 1.378 . S
C8408 C8403 1.350 . S
C8409 H8396 0.929 . S
C8409 C8401 1.433 . S
C8409 N8411 1.384 . S
N8410 C8406 1.427 . S
N8410 C8407 1.384 . S
N8411 C8403 1.427 . S
N8411 C8409 1.384 . S
H8412 C8418 0.930 . S
H8413 C8422 0.930 . S
H8414 C8427 0.929 . S
H8415 C8425 0.929 . S
H8416 C8420 0.929 . S
H8417 C8426 0.929 . S
C8418 H8412 0.930 . S
C8418 C8419 1.367 . S
C8418 C8426 1.378 . S
C8419 C8418 1.367 . S
C8419 C8427 1.433 . S
C8420 H8416 0.929 . S
C8420 C8422 1.378 . S
C8420 C8424 1.350 . S
C8421 C8424 1.463 . S
C8421 C8426 1.350 . S
C8421 N8429 1.427 . S
C8422 H8413 0.930 . S
C8422 C8420 1.378 . S
C8422 C8423 1.367 . S
C8423 C8422 1.367 . S
C8423 C8425 1.433 . S
C8424 C8420 1.350 . S
C8424 C8421 1.463 . S
C8424 N8428 1.427 . S
C8425 H8415 0.929 . S
C8425 C8423 1.433 . S
C8425 N8428 1.384 . S
C8426 H8417 0.929 . S
C8426 C8418 1.378 . S
C8426 C8421 1.350 . S
C8427 H8414 0.929 . S
C8427 C8419 1.433 . S
C8427 N8429 1.384 . S
N8428 C8424 1.427 . S
N8428 C8425 1.384 . S
N8429 C8421 1.427 . S
N8429 C8427 1.384 . S
H8430 C8436 0.930 . S
H8431 C8440 0.930 . S
H8432 C8445 0.929 . S
H8433 C8443 0.929 . S
H8434 C8438 0.929 . S
H8435 C8444 0.929 . S
C8436 H8430 0.930 . S
C8436 C8437 1.367 . S
C8436 C8444 1.378 . S
C8437 C8436 1.367 . S
C8437 C8445 1.433 . S
C8438 H8434 0.929 . S
C8438 C8440 1.378 . S
C8438 C8442 1.350 . S
C8439 C8442 1.463 1_545 S
C8439 C8444 1.350 . S
C8439 N8447 1.427 . S
C8440 H8431 0.930 . S
C8440 C8438 1.378 . S
C8440 C8441 1.367 . S
C8441 C8440 1.367 . S
C8441 C8443 1.433 . S
C8442 C8438 1.350 . S
C8442 C8439 1.463 1_565 S
C8442 N8446 1.427 . S
C8443 H8433 0.929 . S
C8443 C8441 1.433 . S
C8443 N8446 1.384 . S
C8444 H8435 0.929 . S
C8444 C8436 1.378 . S
C8444 C8439 1.350 . S
C8445 H8432 0.929 . S
C8445 C8437 1.433 . S
C8445 N8447 1.384 . S
N8446 C8442 1.427 . S
N8446 C8443 1.384 . S
N8447 C8439 1.427 . S
N8447 C8445 1.384 . S
H8448 C8454 0.930 . S
H8449 C8458 0.930 . S
H8450 C8463 0.929 . S
H8451 C8461 0.929 . S
H8452 C8456 0.928 . S
H8453 C8462 0.928 . S
C8454 H8448 0.930 . S
C8454 C8455 1.367 . S
C8454 C8462 1.378 . S
C8455 C8454 1.367 . S
C8455 C8463 1.433 . S
C8456 H8452 0.928 . S
C8456 C8458 1.378 . S
C8456 C8460 1.350 . S
C8457 C8460 1.463 1_545 S
C8457 C8462 1.350 . S
C8457 N8465 1.427 . S
C8458 H8449 0.930 . S
C8458 C8456 1.378 . S
C8458 C8459 1.367 . S
C8459 C8458 1.367 . S
C8459 C8461 1.433 . S
C8460 C8456 1.350 . S
C8460 C8457 1.463 1_565 S
C8460 N8464 1.427 . S
C8461 H8451 0.929 . S
C8461 C8459 1.433 . S
C8461 N8464 1.384 . S
C8462 H8453 0.928 . S
C8462 C8454 1.378 . S
C8462 C8457 1.350 . S
C8463 H8450 0.929 . S
C8463 C8455 1.433 . S
C8463 N8465 1.384 . S
N8464 C8460 1.427 . S
N8464 C8461 1.384 . S
N8465 C8457 1.427 . S
N8465 C8463 1.384 . S
H8466 C8472 0.930 . S
H8467 C8476 0.930 . S
H8468 C8481 0.929 . S
H8469 C8479 0.929 . S
H8470 C8474 0.929 . S
H8471 C8480 0.929 . S
C8472 H8466 0.930 . S
C8472 C8473 1.367 . S
C8472 C8480 1.378 . S
C8473 C8472 1.367 . S
C8473 C8481 1.433 . S
C8474 H8470 0.929 . S
C8474 C8476 1.378 . S
C8474 C8478 1.350 . S
C8475 C8478 1.463 1_655 S
C8475 C8480 1.350 . S
C8475 N8483 1.423 1_655 S
C8476 H8467 0.930 . S
C8476 C8474 1.378 . S
C8476 C8477 1.367 . S
C8477 C8476 1.367 . S
C8477 C8479 1.433 . S
C8478 C8474 1.350 . S
C8478 C8475 1.463 1_455 S
C8478 N8482 1.423 1_455 S
C8479 H8469 0.929 . S
C8479 C8477 1.433 . S
C8479 N8482 1.376 1_455 S
C8480 H8471 0.929 . S
C8480 C8472 1.378 . S
C8480 C8475 1.350 . S
C8481 H8468 0.929 . S
C8481 C8473 1.433 . S
C8481 N8483 1.376 1_655 S
N8482 C8478 1.423 1_655 S
N8482 C8479 1.376 1_655 S
N8483 C8475 1.423 1_455 S
N8483 C8481 1.376 1_455 S
H8484 C8490 0.930 . S
H8485 C8494 0.930 . S
H8486 C8499 0.929 . S
H8487 C8497 0.929 . S
H8488 C8492 0.929 . S
H8489 C8498 0.929 . S
C8490 H8484 0.930 . S
C8490 C8491 1.367 . S
C8490 C8498 1.378 . S
C8491 C8490 1.367 . S
C8491 C8499 1.433 . S
C8492 H8488 0.929 . S
C8492 C8494 1.378 . S
C8492 C8496 1.350 . S
C8493 C8496 1.463 . S
C8493 C8498 1.350 . S
C8493 N8501 1.427 . S
C8494 H8485 0.930 . S
C8494 C8492 1.378 . S
C8494 C8495 1.367 . S
C8495 C8494 1.367 . S
C8495 C8497 1.433 . S
C8496 C8492 1.350 . S
C8496 C8493 1.463 . S
C8496 N8500 1.427 . S
C8497 H8487 0.929 . S
C8497 C8495 1.433 . S
C8497 N8500 1.384 . S
C8498 H8489 0.929 . S
C8498 C8490 1.378 . S
C8498 C8493 1.350 . S
C8499 H8486 0.929 . S
C8499 C8491 1.433 . S
C8499 N8501 1.384 . S
N8500 C8496 1.427 . S
N8500 C8497 1.384 . S
N8501 C8493 1.427 . S
N8501 C8499 1.384 . S
H8502 C8508 0.930 . S
H8503 C8512 0.930 . S
H8504 C8517 0.929 . S
H8505 C8515 0.929 . S
H8506 C8510 0.929 . S
H8507 C8516 0.929 . S
C8508 H8502 0.930 . S
C8508 C8509 1.367 . S
C8508 C8516 1.378 . S
C8509 C8508 1.367 . S
C8509 C8517 1.433 . S
C8510 H8506 0.929 . S
C8510 C8512 1.378 . S
C8510 C8514 1.350 . S
C8511 C8514 1.463 . S
C8511 C8516 1.350 . S
C8511 N8519 1.427 . S
C8512 H8503 0.930 . S
C8512 C8510 1.378 . S
C8512 C8513 1.367 . S
C8513 C8512 1.367 . S
C8513 C8515 1.433 . S
C8514 C8510 1.350 . S
C8514 C8511 1.463 . S
C8514 N8518 1.427 . S
C8515 H8505 0.929 . S
C8515 C8513 1.433 . S
C8515 N8518 1.384 . S
C8516 H8507 0.929 . S
C8516 C8508 1.378 . S
C8516 C8511 1.350 . S
C8517 H8504 0.929 . S
C8517 C8509 1.433 . S
C8517 N8519 1.384 . S
N8518 C8514 1.427 . S
N8518 C8515 1.384 . S
N8519 C8511 1.427 . S
N8519 C8517 1.384 . S
H8520 C8526 0.930 . S
H8521 C8530 0.930 . S
H8522 C8535 0.929 . S
H8523 C8533 0.929 . S
H8524 C8528 0.929 . S
H8525 C8534 0.929 . S
C8526 H8520 0.930 . S
C8526 C8527 1.367 . S
C8526 C8534 1.378 . S
C8527 C8526 1.367 . S
C8527 C8535 1.433 . S
C8528 H8524 0.929 . S
C8528 C8530 1.378 . S
C8528 C8532 1.350 . S
C8529 C8532 1.463 . S
C8529 C8534 1.350 . S
C8529 N8537 1.427 . S
C8530 H8521 0.930 . S
C8530 C8528 1.378 . S
C8530 C8531 1.367 . S
C8531 C8530 1.367 . S
C8531 C8533 1.433 . S
C8532 C8528 1.350 . S
C8532 C8529 1.463 . S
C8532 N8536 1.427 . S
C8533 H8523 0.929 . S
C8533 C8531 1.433 . S
C8533 N8536 1.384 . S
C8534 H8525 0.929 . S
C8534 C8526 1.378 . S
C8534 C8529 1.350 . S
C8535 H8522 0.929 . S
C8535 C8527 1.433 . S
C8535 N8537 1.384 . S
N8536 C8532 1.427 . S
N8536 C8533 1.384 . S
N8537 C8529 1.427 . S
N8537 C8535 1.384 . S
H8538 C8544 0.930 . S
H8539 C8548 0.930 . S
H8540 C8553 0.929 . S
H8541 C8551 0.929 . S
H8542 C8546 0.929 . S
H8543 C8552 0.929 . S
C8544 H8538 0.930 . S
C8544 C8545 1.367 . S
C8544 C8552 1.378 . S
C8545 C8544 1.367 . S
C8545 C8553 1.433 . S
C8546 H8542 0.929 . S
C8546 C8548 1.378 . S
C8546 C8550 1.350 . S
C8547 C8550 1.463 . S
C8547 C8552 1.350 . S
C8547 N8555 1.427 . S
C8548 H8539 0.930 . S
C8548 C8546 1.378 . S
C8548 C8549 1.367 . S
C8549 C8548 1.367 . S
C8549 C8551 1.433 . S
C8550 C8546 1.350 . S
C8550 C8547 1.463 . S
C8550 N8554 1.427 . S
C8551 H8541 0.929 . S
C8551 C8549 1.433 . S
C8551 N8554 1.384 . S
C8552 H8543 0.929 . S
C8552 C8544 1.378 . S
C8552 C8547 1.350 . S
C8553 H8540 0.929 . S
C8553 C8545 1.433 . S
C8553 N8555 1.384 . S
N8554 C8550 1.427 . S
N8554 C8551 1.384 . S
N8555 C8547 1.427 . S
N8555 C8553 1.384 . S
H8556 C8562 0.930 . S
H8557 C8566 0.930 . S
H8558 C8571 0.929 . S
H8559 C8569 0.929 . S
H8560 C8564 0.983 . S
H8561 C8570 0.983 . S
C8562 H8556 0.930 . S
C8562 C8563 1.367 . S
C8562 C8570 1.378 . S
C8563 C8562 1.367 . S
C8563 C8571 1.433 . S
C8564 H8560 0.983 . S
C8564 C8566 1.378 . S
C8564 C8568 1.350 . S
C8565 C8568 1.463 1_545 S
C8565 C8570 1.350 . S
C8565 N8573 1.427 . S
C8566 H8557 0.930 . S
C8566 C8564 1.378 . S
C8566 C8567 1.367 . S
C8567 C8566 1.367 . S
C8567 C8569 1.433 . S
C8568 C8564 1.350 . S
C8568 C8565 1.463 1_565 S
C8568 N8572 1.427 . S
C8569 H8559 0.929 . S
C8569 C8567 1.433 . S
C8569 N8572 1.384 . S
C8570 H8561 0.983 . S
C8570 C8562 1.378 . S
C8570 C8565 1.350 . S
C8571 H8558 0.929 . S
C8571 C8563 1.433 . S
C8571 N8573 1.384 . S
N8572 C8568 1.427 . S
N8572 C8569 1.384 . S
N8573 C8565 1.427 . S
N8573 C8571 1.384 . S
H8574 C8580 0.930 . S
H8575 C8584 0.930 . S
H8576 C8589 0.929 . S
H8577 C8587 0.929 . S
H8578 C8582 0.929 1_455 S
H8579 C8588 0.929 1_655 S
C8580 H8574 0.930 . S
C8580 C8581 1.367 . S
C8580 C8588 1.378 . S
C8581 C8580 1.367 . S
C8581 C8589 1.433 . S
C8582 H8578 0.929 1_655 S
C8582 C8584 1.378 . S
C8582 C8586 1.350 . S
C8583 C8586 1.463 1_455 S
C8583 C8588 1.350 . S
C8583 N8591 1.427 . S
C8584 H8575 0.930 . S
C8584 C8582 1.378 . S
C8584 C8585 1.367 . S
C8585 C8584 1.367 . S
C8585 C8587 1.433 . S
C8586 C8582 1.350 . S
C8586 C8583 1.463 1_655 S
C8586 N8590 1.427 . S
C8587 H8577 0.929 . S
C8587 C8585 1.433 . S
C8587 N8590 1.384 . S
C8588 H8579 0.929 1_455 S
C8588 C8580 1.378 . S
C8588 C8583 1.350 . S
C8589 H8576 0.929 . S
C8589 C8581 1.433 . S
C8589 N8591 1.384 . S
N8590 C8586 1.427 . S
N8590 C8587 1.384 . S
N8591 C8583 1.427 . S
N8591 C8589 1.384 . S
H8592 C8598 0.930 . S
H8593 C8602 0.930 . S
H8594 C8607 0.929 . S
H8595 C8605 0.929 . S
H8596 C8600 0.929 . S
H8597 C8606 0.929 . S
C8598 H8592 0.930 . S
C8598 C8599 1.367 . S
C8598 C8606 1.378 . S
C8599 C8598 1.367 . S
C8599 C8607 1.433 . S
C8600 H8596 0.929 . S
C8600 C8602 1.378 . S
C8600 C8604 1.350 . S
C8601 C8604 1.463 1_554 S
C8601 C8606 1.350 . S
C8601 N8609 1.435 . S
C8602 H8593 0.930 . S
C8602 C8600 1.378 . S
C8602 C8603 1.367 . S
C8603 C8602 1.367 . S
C8603 C8605 1.433 . S
C8604 C8600 1.350 . S
C8604 C8601 1.463 1_556 S
C8604 N8608 1.435 . S
C8605 H8595 0.929 . S
C8605 C8603 1.433 . S
C8605 N8608 1.398 . S
C8606 H8597 0.929 . S
C8606 C8598 1.378 . S
C8606 C8601 1.350 . S
C8607 H8594 0.929 . S
C8607 C8599 1.433 . S
C8607 N8609 1.398 . S
N8608 C8604 1.435 . S
N8608 C8605 1.398 . S
N8609 C8601 1.435 . S
N8609 C8607 1.398 . S
H8610 C8616 0.930 . S
H8611 C8620 0.930 . S
H8612 C8625 0.929 . S
H8613 C8623 0.929 . S
H8614 C8618 0.929 . S
H8615 C8624 0.929 . S
C8616 H8610 0.930 . S
C8616 C8617 1.367 . S
C8616 C8624 1.378 . S
C8617 C8616 1.367 . S
C8617 C8625 1.433 . S
C8618 H8614 0.929 . S
C8618 C8620 1.378 . S
C8618 C8622 1.350 . S
C8619 C8622 1.463 . S
C8619 C8624 1.350 . S
C8619 N8627 1.427 . S
C8620 H8611 0.930 . S
C8620 C8618 1.378 . S
C8620 C8621 1.367 . S
C8621 C8620 1.367 . S
C8621 C8623 1.433 . S
C8622 C8618 1.350 . S
C8622 C8619 1.463 . S
C8622 N8626 1.427 . S
C8623 H8613 0.929 . S
C8623 C8621 1.433 . S
C8623 N8626 1.384 . S
C8624 H8615 0.929 . S
C8624 C8616 1.378 . S
C8624 C8619 1.350 . S
C8625 H8612 0.929 . S
C8625 C8617 1.433 . S
C8625 N8627 1.384 . S
N8626 C8622 1.427 . S
N8626 C8623 1.384 . S
N8627 C8619 1.427 . S
N8627 C8625 1.384 . S
H8628 C8634 0.930 . S
H8629 C8638 0.930 . S
H8630 C8643 0.929 . S
H8631 C8641 0.929 . S
H8632 C8636 0.929 . S
H8633 C8642 0.929 . S
C8634 H8628 0.930 . S
C8634 C8635 1.367 . S
C8634 C8642 1.378 . S
C8635 C8634 1.367 . S
C8635 C8643 1.433 . S
C8636 H8632 0.929 . S
C8636 C8638 1.378 . S
C8636 C8640 1.350 . S
C8637 C8640 1.463 . S
C8637 C8642 1.350 . S
C8637 N8645 1.427 . S
C8638 H8629 0.930 . S
C8638 C8636 1.378 . S
C8638 C8639 1.367 . S
C8639 C8638 1.367 . S
C8639 C8641 1.433 . S
C8640 C8636 1.350 . S
C8640 C8637 1.463 . S
C8640 N8644 1.427 . S
C8641 H8631 0.929 . S
C8641 C8639 1.433 . S
C8641 N8644 1.384 . S
C8642 H8633 0.929 . S
C8642 C8634 1.378 . S
C8642 C8637 1.350 . S
C8643 H8630 0.929 . S
C8643 C8635 1.433 . S
C8643 N8645 1.384 . S
N8644 C8640 1.427 . S
N8644 C8641 1.384 . S
N8645 C8637 1.427 . S
N8645 C8643 1.384 . S
H8646 C8652 0.930 . S
H8647 C8656 0.930 . S
H8648 C8661 0.929 . S
H8649 C8659 0.929 . S
H8650 C8654 0.929 . S
H8651 C8660 0.929 . S
C8652 H8646 0.930 . S
C8652 C8653 1.367 . S
C8652 C8660 1.378 . S
C8653 C8652 1.367 . S
C8653 C8661 1.433 . S
C8654 H8650 0.929 . S
C8654 C8656 1.378 . S
C8654 C8658 1.350 . S
C8655 C8658 1.463 . S
C8655 C8660 1.350 . S
C8655 N8663 1.427 . S
C8656 H8647 0.930 . S
C8656 C8654 1.378 . S
C8656 C8657 1.367 . S
C8657 C8656 1.367 . S
C8657 C8659 1.433 . S
C8658 C8654 1.350 . S
C8658 C8655 1.463 . S
C8658 N8662 1.427 . S
C8659 H8649 0.929 . S
C8659 C8657 1.433 . S
C8659 N8662 1.384 . S
C8660 H8651 0.929 . S
C8660 C8652 1.378 . S
C8660 C8655 1.350 . S
C8661 H8648 0.929 . S
C8661 C8653 1.433 . S
C8661 N8663 1.384 . S
N8662 C8658 1.427 . S
N8662 C8659 1.384 . S
N8663 C8655 1.427 . S
N8663 C8661 1.384 . S
H8664 C8670 0.930 . S
H8665 C8674 0.930 . S
H8666 C8679 0.929 . S
H8667 C8677 0.929 . S
H8668 C8672 0.929 . S
H8669 C8678 0.929 . S
C8670 H8664 0.930 . S
C8670 C8671 1.367 . S
C8670 C8678 1.378 . S
C8671 C8670 1.367 . S
C8671 C8679 1.433 . S
C8672 H8668 0.929 . S
C8672 C8674 1.378 . S
C8672 C8676 1.350 . S
C8673 C8676 1.463 . S
C8673 C8678 1.350 . S
C8673 N8681 1.427 . S
C8674 H8665 0.930 . S
C8674 C8672 1.378 . S
C8674 C8675 1.367 . S
C8675 C8674 1.367 . S
C8675 C8677 1.433 . S
C8676 C8672 1.350 . S
C8676 C8673 1.463 . S
C8676 N8680 1.427 . S
C8677 H8667 0.929 . S
C8677 C8675 1.433 . S
C8677 N8680 1.384 . S
C8678 H8669 0.929 . S
C8678 C8670 1.378 . S
C8678 C8673 1.350 . S
C8679 H8666 0.929 . S
C8679 C8671 1.433 . S
C8679 N8681 1.384 . S
N8680 C8676 1.427 . S
N8680 C8677 1.384 . S
N8681 C8673 1.427 . S
N8681 C8679 1.384 . S
H8682 C8688 0.930 . S
H8683 C8692 0.930 . S
H8684 C8697 0.929 . S
H8685 C8695 0.929 . S
H8686 C8690 0.929 . S
H8687 C8696 0.929 . S
C8688 H8682 0.930 . S
C8688 C8689 1.367 . S
C8688 C8696 1.378 . S
C8689 C8688 1.367 . S
C8689 C8697 1.433 . S
C8690 H8686 0.929 . S
C8690 C8692 1.378 . S
C8690 C8694 1.350 . S
C8691 C8694 1.463 1_556 S
C8691 C8696 1.350 . S
C8691 N8699 1.411 1_556 S
C8692 H8683 0.930 . S
C8692 C8690 1.378 . S
C8692 C8693 1.367 . S
C8693 C8692 1.367 . S
C8693 C8695 1.433 . S
C8694 C8690 1.350 . S
C8694 C8691 1.463 1_554 S
C8694 N8698 1.411 1_554 S
C8695 H8685 0.929 . S
C8695 C8693 1.433 . S
C8695 N8698 1.357 1_554 S
C8696 H8687 0.929 . S
C8696 C8688 1.378 . S
C8696 C8691 1.350 . S
C8697 H8684 0.929 . S
C8697 C8689 1.433 . S
C8697 N8699 1.357 1_556 S
N8698 C8694 1.411 1_556 S
N8698 C8695 1.357 1_556 S
N8699 C8691 1.411 1_554 S
N8699 C8697 1.357 1_554 S
H8700 C8706 0.930 . S
H8701 C8710 0.930 . S
H8702 C8715 0.929 . S
H8703 C8713 0.929 . S
H8704 C8708 0.929 . S
H8705 C8714 0.929 . S
C8706 H8700 0.930 . S
C8706 C8707 1.367 . S
C8706 C8714 1.378 . S
C8707 C8706 1.367 . S
C8707 C8715 1.433 . S
C8708 H8704 0.929 . S
C8708 C8710 1.378 . S
C8708 C8712 1.350 . S
C8709 C8712 1.463 . S
C8709 C8714 1.350 . S
C8709 N8717 1.427 . S
C8710 H8701 0.930 . S
C8710 C8708 1.378 . S
C8710 C8711 1.367 . S
C8711 C8710 1.367 . S
C8711 C8713 1.433 . S
C8712 C8708 1.350 . S
C8712 C8709 1.463 . S
C8712 N8716 1.427 . S
C8713 H8703 0.929 . S
C8713 C8711 1.433 . S
C8713 N8716 1.384 . S
C8714 H8705 0.929 . S
C8714 C8706 1.378 . S
C8714 C8709 1.350 . S
C8715 H8702 0.929 . S
C8715 C8707 1.433 . S
C8715 N8717 1.384 . S
N8716 C8712 1.427 . S
N8716 C8713 1.384 . S
N8717 C8709 1.427 . S
N8717 C8715 1.384 . S
H8718 C8724 0.930 . S
H8719 C8728 0.930 . S
H8720 C8733 0.929 . S
H8721 C8731 0.929 . S
H8722 C8726 0.929 . S
H8723 C8732 0.929 . S
C8724 H8718 0.930 . S
C8724 C8725 1.367 . S
C8724 C8732 1.378 . S
C8725 C8724 1.367 . S
C8725 C8733 1.433 . S
C8726 H8722 0.929 . S
C8726 C8728 1.378 . S
C8726 C8730 1.350 . S
C8727 C8730 1.463 . S
C8727 C8732 1.350 . S
C8727 N8735 1.427 . S
C8728 H8719 0.930 . S
C8728 C8726 1.378 . S
C8728 C8729 1.367 . S
C8729 C8728 1.367 . S
C8729 C8731 1.433 . S
C8730 C8726 1.350 . S
C8730 C8727 1.463 . S
C8730 N8734 1.427 . S
C8731 H8721 0.929 . S
C8731 C8729 1.433 . S
C8731 N8734 1.384 . S
C8732 H8723 0.929 . S
C8732 C8724 1.378 . S
C8732 C8727 1.350 . S
C8733 H8720 0.929 . S
C8733 C8725 1.433 . S
C8733 N8735 1.384 . S
N8734 C8730 1.427 . S
N8734 C8731 1.384 . S
N8735 C8727 1.427 . S
N8735 C8733 1.384 . S
H8736 C8742 0.930 . S
H8737 C8746 0.930 . S
H8738 C8751 0.929 . S
H8739 C8749 0.929 . S
H8740 C8744 0.929 . S
H8741 C8750 0.929 . S
C8742 H8736 0.930 . S
C8742 C8743 1.367 . S
C8742 C8750 1.378 . S
C8743 C8742 1.367 . S
C8743 C8751 1.433 . S
C8744 H8740 0.929 . S
C8744 C8746 1.378 . S
C8744 C8748 1.350 . S
C8745 C8748 1.463 . S
C8745 C8750 1.350 . S
C8745 N8753 1.427 . S
C8746 H8737 0.930 . S
C8746 C8744 1.378 . S
C8746 C8747 1.367 . S
C8747 C8746 1.367 . S
C8747 C8749 1.433 . S
C8748 C8744 1.350 . S
C8748 C8745 1.463 . S
C8748 N8752 1.427 . S
C8749 H8739 0.929 . S
C8749 C8747 1.433 . S
C8749 N8752 1.384 . S
C8750 H8741 0.929 . S
C8750 C8742 1.378 . S
C8750 C8745 1.350 . S
C8751 H8738 0.929 . S
C8751 C8743 1.433 . S
C8751 N8753 1.384 . S
N8752 C8748 1.427 . S
N8752 C8749 1.384 . S
N8753 C8745 1.427 . S
N8753 C8751 1.384 . S
H8754 C8760 0.930 . S
H8755 C8764 0.930 . S
H8756 C8769 0.929 . S
H8757 C8767 0.929 . S
H8758 C8762 0.929 . S
H8759 C8768 0.929 . S
C8760 H8754 0.930 . S
C8760 C8761 1.367 . S
C8760 C8768 1.378 . S
C8761 C8760 1.367 . S
C8761 C8769 1.433 . S
C8762 H8758 0.929 . S
C8762 C8764 1.378 . S
C8762 C8766 1.350 . S
C8763 C8766 1.463 . S
C8763 C8768 1.350 . S
C8763 N8771 1.427 . S
C8764 H8755 0.930 . S
C8764 C8762 1.378 . S
C8764 C8765 1.367 . S
C8765 C8764 1.367 . S
C8765 C8767 1.433 . S
C8766 C8762 1.350 . S
C8766 C8763 1.463 . S
C8766 N8770 1.427 . S
C8767 H8757 0.929 . S
C8767 C8765 1.433 . S
C8767 N8770 1.384 . S
C8768 H8759 0.929 . S
C8768 C8760 1.378 . S
C8768 C8763 1.350 . S
C8769 H8756 0.929 . S
C8769 C8761 1.433 . S
C8769 N8771 1.384 . S
N8770 C8766 1.427 . S
N8770 C8767 1.384 . S
N8771 C8763 1.427 . S
N8771 C8769 1.384 . S
H8772 C8778 0.930 . S
H8773 C8782 0.930 . S
H8774 C8787 0.929 . S
H8775 C8785 0.929 . S
H8776 C8780 0.929 . S
H8777 C8786 0.929 . S
C8778 H8772 0.930 . S
C8778 C8779 1.367 . S
C8778 C8786 1.378 . S
C8779 C8778 1.367 . S
C8779 C8787 1.433 . S
C8780 H8776 0.929 . S
C8780 C8782 1.378 . S
C8780 C8784 1.350 . S
C8781 C8784 1.463 . S
C8781 C8786 1.350 . S
C8781 N8789 1.427 . S
C8782 H8773 0.930 . S
C8782 C8780 1.378 . S
C8782 C8783 1.367 . S
C8783 C8782 1.367 . S
C8783 C8785 1.433 . S
C8784 C8780 1.350 . S
C8784 C8781 1.463 . S
C8784 N8788 1.427 . S
C8785 H8775 0.929 . S
C8785 C8783 1.433 . S
C8785 N8788 1.384 . S
C8786 H8777 0.929 . S
C8786 C8778 1.378 . S
C8786 C8781 1.350 . S
C8787 H8774 0.929 . S
C8787 C8779 1.433 . S
C8787 N8789 1.384 . S
N8788 C8784 1.427 . S
N8788 C8785 1.384 . S
N8789 C8781 1.427 . S
N8789 C8787 1.384 . S
H8790 C8796 0.930 . S
H8791 C8800 0.930 . S
H8792 C8805 0.929 . S
H8793 C8803 0.929 . S
H8794 C8798 0.929 . S
H8795 C8804 0.929 . S
C8796 H8790 0.930 . S
C8796 C8797 1.367 . S
C8796 C8804 1.378 . S
C8797 C8796 1.367 . S
C8797 C8805 1.433 . S
C8798 H8794 0.929 . S
C8798 C8800 1.378 . S
C8798 C8802 1.350 . S
C8799 C8802 1.463 . S
C8799 C8804 1.350 . S
C8799 N8807 1.427 . S
C8800 H8791 0.930 . S
C8800 C8798 1.378 . S
C8800 C8801 1.367 . S
C8801 C8800 1.367 . S
C8801 C8803 1.433 . S
C8802 C8798 1.350 . S
C8802 C8799 1.463 . S
C8802 N8806 1.427 . S
C8803 H8793 0.929 . S
C8803 C8801 1.433 . S
C8803 N8806 1.384 . S
C8804 H8795 0.929 . S
C8804 C8796 1.378 . S
C8804 C8799 1.350 . S
C8805 H8792 0.929 . S
C8805 C8797 1.433 . S
C8805 N8807 1.384 . S
N8806 C8802 1.427 . S
N8806 C8803 1.384 . S
N8807 C8799 1.427 . S
N8807 C8805 1.384 . S
H8808 C8814 0.930 . S
H8809 C8818 0.930 . S
H8810 C8823 0.929 . S
H8811 C8821 0.929 . S
H8812 C8816 0.929 . S
H8813 C8822 0.929 . S
C8814 H8808 0.930 . S
C8814 C8815 1.367 . S
C8814 C8822 1.378 . S
C8815 C8814 1.367 . S
C8815 C8823 1.433 . S
C8816 H8812 0.929 . S
C8816 C8818 1.378 . S
C8816 C8820 1.350 . S
C8817 C8820 1.463 . S
C8817 C8822 1.350 . S
C8817 N8825 1.427 . S
C8818 H8809 0.930 . S
C8818 C8816 1.378 . S
C8818 C8819 1.367 . S
C8819 C8818 1.367 . S
C8819 C8821 1.433 . S
C8820 C8816 1.350 . S
C8820 C8817 1.463 . S
C8820 N8824 1.427 . S
C8821 H8811 0.929 . S
C8821 C8819 1.433 . S
C8821 N8824 1.384 . S
C8822 H8813 0.929 . S
C8822 C8814 1.378 . S
C8822 C8817 1.350 . S
C8823 H8810 0.929 . S
C8823 C8815 1.433 . S
C8823 N8825 1.384 . S
N8824 C8820 1.427 . S
N8824 C8821 1.384 . S
N8825 C8817 1.427 . S
N8825 C8823 1.384 . S
H8826 C8832 0.930 . S
H8827 C8836 0.930 . S
H8828 C8841 0.929 . S
H8829 C8839 0.929 . S
H8830 C8834 0.929 . S
H8831 C8840 0.929 . S
C8832 H8826 0.930 . S
C8832 C8833 1.367 . S
C8832 C8840 1.378 . S
C8833 C8832 1.367 . S
C8833 C8841 1.433 . S
C8834 H8830 0.929 . S
C8834 C8836 1.378 . S
C8834 C8838 1.350 . S
C8835 C8838 1.463 . S
C8835 C8840 1.350 . S
C8835 N8843 1.427 . S
C8836 H8827 0.930 . S
C8836 C8834 1.378 . S
C8836 C8837 1.367 . S
C8837 C8836 1.367 . S
C8837 C8839 1.433 . S
C8838 C8834 1.350 . S
C8838 C8835 1.463 . S
C8838 N8842 1.427 . S
C8839 H8829 0.929 . S
C8839 C8837 1.433 . S
C8839 N8842 1.384 . S
C8840 H8831 0.929 . S
C8840 C8832 1.378 . S
C8840 C8835 1.350 . S
C8841 H8828 0.929 . S
C8841 C8833 1.433 . S
C8841 N8843 1.384 . S
N8842 C8838 1.427 . S
N8842 C8839 1.384 . S
N8843 C8835 1.427 . S
N8843 C8841 1.384 . S
H8844 C8850 0.930 . S
H8845 C8854 0.930 . S
H8846 C8859 0.929 . S
H8847 C8857 0.929 . S
H8848 C8852 0.929 . S
H8849 C8858 0.929 . S
C8850 H8844 0.930 . S
C8850 C8851 1.367 . S
C8850 C8858 1.378 . S
C8851 C8850 1.367 . S
C8851 C8859 1.433 . S
C8852 H8848 0.929 . S
C8852 C8854 1.378 . S
C8852 C8856 1.350 . S
C8853 C8856 1.463 . S
C8853 C8858 1.350 . S
C8853 N8861 1.427 . S
C8854 H8845 0.930 . S
C8854 C8852 1.378 . S
C8854 C8855 1.367 . S
C8855 C8854 1.367 . S
C8855 C8857 1.433 . S
C8856 C8852 1.350 . S
C8856 C8853 1.463 . S
C8856 N8860 1.427 . S
C8857 H8847 0.929 . S
C8857 C8855 1.433 . S
C8857 N8860 1.384 . S
C8858 H8849 0.929 . S
C8858 C8850 1.378 . S
C8858 C8853 1.350 . S
C8859 H8846 0.929 . S
C8859 C8851 1.433 . S
C8859 N8861 1.384 . S
N8860 C8856 1.427 . S
N8860 C8857 1.384 . S
N8861 C8853 1.427 . S
N8861 C8859 1.384 . S
H8862 C8868 0.930 . S
H8863 C8872 0.930 . S
H8864 C8877 0.929 . S
H8865 C8875 0.929 . S
H8866 C8870 0.929 . S
H8867 C8876 0.929 . S
C8868 H8862 0.930 . S
C8868 C8869 1.367 . S
C8868 C8876 1.378 . S
C8869 C8868 1.367 . S
C8869 C8877 1.433 . S
C8870 H8866 0.929 . S
C8870 C8872 1.378 . S
C8870 C8874 1.350 . S
C8871 C8874 1.463 . S
C8871 C8876 1.350 . S
C8871 N8879 1.427 . S
C8872 H8863 0.930 . S
C8872 C8870 1.378 . S
C8872 C8873 1.367 . S
C8873 C8872 1.367 . S
C8873 C8875 1.433 . S
C8874 C8870 1.350 . S
C8874 C8871 1.463 . S
C8874 N8878 1.427 . S
C8875 H8865 0.929 . S
C8875 C8873 1.433 . S
C8875 N8878 1.384 . S
C8876 H8867 0.929 . S
C8876 C8868 1.378 . S
C8876 C8871 1.350 . S
C8877 H8864 0.929 . S
C8877 C8869 1.433 . S
C8877 N8879 1.384 . S
N8878 C8874 1.427 . S
N8878 C8875 1.384 . S
N8879 C8871 1.427 . S
N8879 C8877 1.384 . S
H8880 C8886 0.930 . S
H8881 C8890 0.930 . S
H8882 C8895 0.929 . S
H8883 C8893 0.929 . S
H8884 C8888 0.929 . S
H8885 C8894 0.929 . S
C8886 H8880 0.930 . S
C8886 C8887 1.367 . S
C8886 C8894 1.378 . S
C8887 C8886 1.367 . S
C8887 C8895 1.433 . S
C8888 H8884 0.929 . S
C8888 C8890 1.378 . S
C8888 C8892 1.350 . S
C8889 C8892 1.463 . S
C8889 C8894 1.350 . S
C8889 N8897 1.427 . S
C8890 H8881 0.930 . S
C8890 C8888 1.378 . S
C8890 C8891 1.367 . S
C8891 C8890 1.367 . S
C8891 C8893 1.433 . S
C8892 C8888 1.350 . S
C8892 C8889 1.463 . S
C8892 N8896 1.427 . S
C8893 H8883 0.929 . S
C8893 C8891 1.433 . S
C8893 N8896 1.384 . S
C8894 H8885 0.929 . S
C8894 C8886 1.378 . S
C8894 C8889 1.350 . S
C8895 H8882 0.929 . S
C8895 C8887 1.433 . S
C8895 N8897 1.384 . S
N8896 C8892 1.427 . S
N8896 C8893 1.384 . S
N8897 C8889 1.427 . S
N8897 C8895 1.384 . S
H8898 C8904 0.930 . S
H8899 C8908 0.930 . S
H8900 C8913 0.929 . S
H8901 C8911 0.929 . S
H8902 C8906 0.929 . S
H8903 C8912 0.929 . S
C8904 H8898 0.930 . S
C8904 C8905 1.367 . S
C8904 C8912 1.378 . S
C8905 C8904 1.367 . S
C8905 C8913 1.433 . S
C8906 H8902 0.929 . S
C8906 C8908 1.378 . S
C8906 C8910 1.350 . S
C8907 C8910 1.463 . S
C8907 C8912 1.350 . S
C8907 N8915 1.427 . S
C8908 H8899 0.930 . S
C8908 C8906 1.378 . S
C8908 C8909 1.367 . S
C8909 C8908 1.367 . S
C8909 C8911 1.433 . S
C8910 C8906 1.350 . S
C8910 C8907 1.463 . S
C8910 N8914 1.427 . S
C8911 H8901 0.929 . S
C8911 C8909 1.433 . S
C8911 N8914 1.384 . S
C8912 H8903 0.929 . S
C8912 C8904 1.378 . S
C8912 C8907 1.350 . S
C8913 H8900 0.929 . S
C8913 C8905 1.433 . S
C8913 N8915 1.384 . S
N8914 C8910 1.427 . S
N8914 C8911 1.384 . S
N8915 C8907 1.427 . S
N8915 C8913 1.384 . S
H8916 C8922 0.930 . S
H8917 C8926 0.930 . S
H8918 C8931 0.929 . S
H8919 C8929 0.929 . S
H8920 C8924 0.940 . S
H8921 C8930 0.940 . S
C8922 H8916 0.930 . S
C8922 C8923 1.367 . S
C8922 C8930 1.371 1_556 S
C8923 C8922 1.367 . S
C8923 C8931 1.433 . S
C8924 H8920 0.940 . S
C8924 C8926 1.371 1_556 S
C8924 C8928 1.346 1_556 S
C8925 C8928 1.463 1_556 S
C8925 C8930 1.346 1_556 S
C8925 N8933 1.427 . S
C8926 H8917 0.930 . S
C8926 C8924 1.371 1_554 S
C8926 C8927 1.367 . S
C8927 C8926 1.367 . S
C8927 C8929 1.433 . S
C8928 C8924 1.346 1_554 S
C8928 C8925 1.463 1_554 S
C8928 N8932 1.427 . S
C8929 H8919 0.929 . S
C8929 C8927 1.433 . S
C8929 N8932 1.384 . S
C8930 H8921 0.940 . S
C8930 C8922 1.371 1_554 S
C8930 C8925 1.346 1_554 S
C8931 H8918 0.929 . S
C8931 C8923 1.433 . S
C8931 N8933 1.384 . S
N8932 C8928 1.427 . S
N8932 C8929 1.384 . S
N8933 C8925 1.427 . S
N8933 C8931 1.384 . S
H8934 C8940 0.930 . S
H8935 C8944 0.930 . S
H8936 C8949 0.929 . S
H8937 C8947 0.929 . S
H8938 C8942 0.929 . S
H8939 C8948 0.929 . S
C8940 H8934 0.930 . S
C8940 C8941 1.367 . S
C8940 C8948 1.378 . S
C8941 C8940 1.367 . S
C8941 C8949 1.433 . S
C8942 H8938 0.929 . S
C8942 C8944 1.378 . S
C8942 C8946 1.350 . S
C8943 C8946 1.463 . S
C8943 C8948 1.350 . S
C8943 N8951 1.427 . S
C8944 H8935 0.930 . S
C8944 C8942 1.378 . S
C8944 C8945 1.367 . S
C8945 C8944 1.367 . S
C8945 C8947 1.433 . S
C8946 C8942 1.350 . S
C8946 C8943 1.463 . S
C8946 N8950 1.427 . S
C8947 H8937 0.929 . S
C8947 C8945 1.433 . S
C8947 N8950 1.384 . S
C8948 H8939 0.929 . S
C8948 C8940 1.378 . S
C8948 C8943 1.350 . S
C8949 H8936 0.929 . S
C8949 C8941 1.433 . S
C8949 N8951 1.384 . S
N8950 C8946 1.427 . S
N8950 C8947 1.384 . S
N8951 C8943 1.427 . S
N8951 C8949 1.384 . S
H8952 C8958 0.930 . S
H8953 C8962 0.930 . S
H8954 C8967 0.929 . S
H8955 C8965 0.929 . S
H8956 C8960 0.929 . S
H8957 C8966 0.929 . S
C8958 H8952 0.930 . S
C8958 C8959 1.367 . S
C8958 C8966 1.378 . S
C8959 C8958 1.367 . S
C8959 C8967 1.433 . S
C8960 H8956 0.929 . S
C8960 C8962 1.378 . S
C8960 C8964 1.350 . S
C8961 C8964 1.463 1_554 S
C8961 C8966 1.350 . S
C8961 N8969 1.427 . S
C8962 H8953 0.930 . S
C8962 C8960 1.378 . S
C8962 C8963 1.367 . S
C8963 C8962 1.367 . S
C8963 C8965 1.433 . S
C8964 C8960 1.350 . S
C8964 C8961 1.463 1_556 S
C8964 N8968 1.427 . S
C8965 H8955 0.929 . S
C8965 C8963 1.433 . S
C8965 N8968 1.384 . S
C8966 H8957 0.929 . S
C8966 C8958 1.378 . S
C8966 C8961 1.350 . S
C8967 H8954 0.929 . S
C8967 C8959 1.433 . S
C8967 N8969 1.384 . S
N8968 C8964 1.427 . S
N8968 C8965 1.384 . S
N8969 C8961 1.427 . S
N8969 C8967 1.384 . S
H8970 C8976 0.930 . S
H8971 C8980 0.930 . S
H8972 C8985 0.929 . S
H8973 C8983 0.929 . S
H8974 C8978 0.929 . S
H8975 C8984 0.929 . S
C8976 H8970 0.930 . S
C8976 C8977 1.367 . S
C8976 C8984 1.378 . S
C8977 C8976 1.367 . S
C8977 C8985 1.433 . S
C8978 H8974 0.929 . S
C8978 C8980 1.378 . S
C8978 C8982 1.350 . S
C8979 C8982 1.463 . S
C8979 C8984 1.350 . S
C8979 N8987 1.427 . S
C8980 H8971 0.930 . S
C8980 C8978 1.378 . S
C8980 C8981 1.367 . S
C8981 C8980 1.367 . S
C8981 C8983 1.433 . S
C8982 C8978 1.350 . S
C8982 C8979 1.463 . S
C8982 N8986 1.427 . S
C8983 H8973 0.929 . S
C8983 C8981 1.433 . S
C8983 N8986 1.384 . S
C8984 H8975 0.929 . S
C8984 C8976 1.378 . S
C8984 C8979 1.350 . S
C8985 H8972 0.929 . S
C8985 C8977 1.433 . S
C8985 N8987 1.384 . S
N8986 C8982 1.427 . S
N8986 C8983 1.384 . S
N8987 C8979 1.427 . S
N8987 C8985 1.384 . S
H8988 C8994 0.930 . S
H8989 C8998 0.930 . S
H8990 C9003 0.929 . S
H8991 C9001 0.929 . S
H8992 C8996 0.929 . S
H8993 C9002 0.929 . S
C8994 H8988 0.930 . S
C8994 C8995 1.367 . S
C8994 C9002 1.378 . S
C8995 C8994 1.367 . S
C8995 C9003 1.433 . S
C8996 H8992 0.929 . S
C8996 C8998 1.378 . S
C8996 C9000 1.350 . S
C8997 C9000 1.463 . S
C8997 C9002 1.350 . S
C8997 N9005 1.427 . S
C8998 H8989 0.930 . S
C8998 C8996 1.378 . S
C8998 C8999 1.367 . S
C8999 C8998 1.367 . S
C8999 C9001 1.433 . S
C9000 C8996 1.350 . S
C9000 C8997 1.463 . S
C9000 N9004 1.427 . S
C9001 H8991 0.929 . S
C9001 C8999 1.433 . S
C9001 N9004 1.384 . S
C9002 H8993 0.929 . S
C9002 C8994 1.378 . S
C9002 C8997 1.350 . S
C9003 H8990 0.929 . S
C9003 C8995 1.433 . S
C9003 N9005 1.384 . S
N9004 C9000 1.427 . S
N9004 C9001 1.384 . S
N9005 C8997 1.427 . S
N9005 C9003 1.384 . S
H9006 C9012 0.930 . S
H9007 C9016 0.930 . S
H9008 C9021 0.929 . S
H9009 C9019 0.929 . S
H9010 C9014 0.929 . S
H9011 C9020 0.929 . S
C9012 H9006 0.930 . S
C9012 C9013 1.367 . S
C9012 C9020 1.378 . S
C9013 C9012 1.367 . S
C9013 C9021 1.433 . S
C9014 H9010 0.929 . S
C9014 C9016 1.378 . S
C9014 C9018 1.350 . S
C9015 C9018 1.463 . S
C9015 C9020 1.350 . S
C9015 N9023 1.427 . S
C9016 H9007 0.930 . S
C9016 C9014 1.378 . S
C9016 C9017 1.367 . S
C9017 C9016 1.367 . S
C9017 C9019 1.433 . S
C9018 C9014 1.350 . S
C9018 C9015 1.463 . S
C9018 N9022 1.427 . S
C9019 H9009 0.929 . S
C9019 C9017 1.433 . S
C9019 N9022 1.384 . S
C9020 H9011 0.929 . S
C9020 C9012 1.378 . S
C9020 C9015 1.350 . S
C9021 H9008 0.929 . S
C9021 C9013 1.433 . S
C9021 N9023 1.384 . S
N9022 C9018 1.427 . S
N9022 C9019 1.384 . S
N9023 C9015 1.427 . S
N9023 C9021 1.384 . S
H9024 C9030 0.930 . S
H9025 C9034 0.930 . S
H9026 C9039 0.929 . S
H9027 C9037 0.929 . S
H9028 C9032 0.929 . S
H9029 C9038 0.929 . S
C9030 H9024 0.930 . S
C9030 C9031 1.367 . S
C9030 C9038 1.378 . S
C9031 C9030 1.367 . S
C9031 C9039 1.433 . S
C9032 H9028 0.929 . S
C9032 C9034 1.378 . S
C9032 C9036 1.350 . S
C9033 C9036 1.463 . S
C9033 C9038 1.350 . S
C9033 N9041 1.427 . S
C9034 H9025 0.930 . S
C9034 C9032 1.378 . S
C9034 C9035 1.367 . S
C9035 C9034 1.367 . S
C9035 C9037 1.433 . S
C9036 C9032 1.350 . S
C9036 C9033 1.463 . S
C9036 N9040 1.427 . S
C9037 H9027 0.929 . S
C9037 C9035 1.433 . S
C9037 N9040 1.384 . S
C9038 H9029 0.929 . S
C9038 C9030 1.378 . S
C9038 C9033 1.350 . S
C9039 H9026 0.929 . S
C9039 C9031 1.433 . S
C9039 N9041 1.384 . S
N9040 C9036 1.427 . S
N9040 C9037 1.384 . S
N9041 C9033 1.427 . S
N9041 C9039 1.384 . S
H9042 C9048 0.930 . S
H9043 C9052 0.930 . S
H9044 C9057 0.929 . S
H9045 C9055 0.929 . S
H9046 C9050 0.929 . S
H9047 C9056 0.929 . S
C9048 H9042 0.930 . S
C9048 C9049 1.367 . S
C9048 C9056 1.378 . S
C9049 C9048 1.367 . S
C9049 C9057 1.433 . S
C9050 H9046 0.929 . S
C9050 C9052 1.378 . S
C9050 C9054 1.350 . S
C9051 C9054 1.463 . S
C9051 C9056 1.350 . S
C9051 N9059 1.427 . S
C9052 H9043 0.930 . S
C9052 C9050 1.378 . S
C9052 C9053 1.367 . S
C9053 C9052 1.367 . S
C9053 C9055 1.433 . S
C9054 C9050 1.350 . S
C9054 C9051 1.463 . S
C9054 N9058 1.427 . S
C9055 H9045 0.929 . S
C9055 C9053 1.433 . S
C9055 N9058 1.384 . S
C9056 H9047 0.929 . S
C9056 C9048 1.378 . S
C9056 C9051 1.350 . S
C9057 H9044 0.929 . S
C9057 C9049 1.433 . S
C9057 N9059 1.384 . S
N9058 C9054 1.427 . S
N9058 C9055 1.384 . S
N9059 C9051 1.427 . S
N9059 C9057 1.384 . S
H9060 C9066 0.930 . S
H9061 C9070 0.930 . S
H9062 C9075 0.929 . S
H9063 C9073 0.929 . S
H9064 C9068 0.929 . S
H9065 C9074 0.929 . S
C9066 H9060 0.930 . S
C9066 C9067 1.367 . S
C9066 C9074 1.378 . S
C9067 C9066 1.367 . S
C9067 C9075 1.433 . S
C9068 H9064 0.929 . S
C9068 C9070 1.378 . S
C9068 C9072 1.350 . S
C9069 C9072 1.463 . S
C9069 C9074 1.350 . S
C9069 N9077 1.427 . S
C9070 H9061 0.930 . S
C9070 C9068 1.378 . S
C9070 C9071 1.367 . S
C9071 C9070 1.367 . S
C9071 C9073 1.433 . S
C9072 C9068 1.350 . S
C9072 C9069 1.463 . S
C9072 N9076 1.427 . S
C9073 H9063 0.929 . S
C9073 C9071 1.433 . S
C9073 N9076 1.384 . S
C9074 H9065 0.929 . S
C9074 C9066 1.378 . S
C9074 C9069 1.350 . S
C9075 H9062 0.929 . S
C9075 C9067 1.433 . S
C9075 N9077 1.384 . S
N9076 C9072 1.427 . S
N9076 C9073 1.384 . S
N9077 C9069 1.427 . S
N9077 C9075 1.384 . S
H9078 C9084 0.930 . S
H9079 C9088 0.930 . S
H9080 C9093 0.929 . S
H9081 C9091 0.929 . S
H9082 C9086 0.929 . S
H9083 C9092 0.929 . S
C9084 H9078 0.930 . S
C9084 C9085 1.367 . S
C9084 C9092 1.378 . S
C9085 C9084 1.367 . S
C9085 C9093 1.433 . S
C9086 H9082 0.929 . S
C9086 C9088 1.378 . S
C9086 C9090 1.350 . S
C9087 C9090 1.463 . S
C9087 C9092 1.350 . S
C9087 N9095 1.427 . S
C9088 H9079 0.930 . S
C9088 C9086 1.378 . S
C9088 C9089 1.367 . S
C9089 C9088 1.367 . S
C9089 C9091 1.433 . S
C9090 C9086 1.350 . S
C9090 C9087 1.463 . S
C9090 N9094 1.427 . S
C9091 H9081 0.929 . S
C9091 C9089 1.433 . S
C9091 N9094 1.384 . S
C9092 H9083 0.929 . S
C9092 C9084 1.378 . S
C9092 C9087 1.350 . S
C9093 H9080 0.929 . S
C9093 C9085 1.433 . S
C9093 N9095 1.384 . S
N9094 C9090 1.427 . S
N9094 C9091 1.384 . S
N9095 C9087 1.427 . S
N9095 C9093 1.384 . S
H9096 C9102 0.930 . S
H9097 C9106 0.930 . S
H9098 C9111 0.929 . S
H9099 C9109 0.929 . S
H9100 C9104 0.929 . S
H9101 C9110 0.929 . S
C9102 H9096 0.930 . S
C9102 C9103 1.367 . S
C9102 C9110 1.378 . S
C9103 C9102 1.367 . S
C9103 C9111 1.433 . S
C9104 H9100 0.929 . S
C9104 C9106 1.378 . S
C9104 C9108 1.350 . S
C9105 C9108 1.463 . S
C9105 C9110 1.350 . S
C9105 N9113 1.427 . S
C9106 H9097 0.930 . S
C9106 C9104 1.378 . S
C9106 C9107 1.367 . S
C9107 C9106 1.367 . S
C9107 C9109 1.433 . S
C9108 C9104 1.350 . S
C9108 C9105 1.463 . S
C9108 N9112 1.427 . S
C9109 H9099 0.929 . S
C9109 C9107 1.433 . S
C9109 N9112 1.384 . S
C9110 H9101 0.929 . S
C9110 C9102 1.378 . S
C9110 C9105 1.350 . S
C9111 H9098 0.929 . S
C9111 C9103 1.433 . S
C9111 N9113 1.384 . S
N9112 C9108 1.427 . S
N9112 C9109 1.384 . S
N9113 C9105 1.427 . S
N9113 C9111 1.384 . S
H9114 C9120 0.930 . S
H9115 C9124 0.930 . S
H9116 C9129 0.929 . S
H9117 C9127 0.929 . S
H9118 C9122 0.929 . S
H9119 C9128 0.929 . S
C9120 H9114 0.930 . S
C9120 C9121 1.367 . S
C9120 C9128 1.378 . S
C9121 C9120 1.367 . S
C9121 C9129 1.433 . S
C9122 H9118 0.929 . S
C9122 C9124 1.378 . S
C9122 C9126 1.350 . S
C9123 C9126 1.463 . S
C9123 C9128 1.350 . S
C9123 N9131 1.427 . S
C9124 H9115 0.930 . S
C9124 C9122 1.378 . S
C9124 C9125 1.367 . S
C9125 C9124 1.367 . S
C9125 C9127 1.433 . S
C9126 C9122 1.350 . S
C9126 C9123 1.463 . S
C9126 N9130 1.427 . S
C9127 H9117 0.929 . S
C9127 C9125 1.433 . S
C9127 N9130 1.384 . S
C9128 H9119 0.929 . S
C9128 C9120 1.378 . S
C9128 C9123 1.350 . S
C9129 H9116 0.929 . S
C9129 C9121 1.433 . S
C9129 N9131 1.384 . S
N9130 C9126 1.427 . S
N9130 C9127 1.384 . S
N9131 C9123 1.427 . S
N9131 C9129 1.384 . S
H9132 C9138 0.930 . S
H9133 C9142 0.930 . S
H9134 C9147 0.929 . S
H9135 C9145 0.929 . S
H9136 C9140 0.929 . S
H9137 C9146 0.929 . S
C9138 H9132 0.930 . S
C9138 C9139 1.367 . S
C9138 C9146 1.378 . S
C9139 C9138 1.367 . S
C9139 C9147 1.433 . S
C9140 H9136 0.929 . S
C9140 C9142 1.378 . S
C9140 C9144 1.350 . S
C9141 C9144 1.463 . S
C9141 C9146 1.350 . S
C9141 N9149 1.427 . S
C9142 H9133 0.930 . S
C9142 C9140 1.378 . S
C9142 C9143 1.367 . S
C9143 C9142 1.367 . S
C9143 C9145 1.433 . S
C9144 C9140 1.350 . S
C9144 C9141 1.463 . S
C9144 N9148 1.427 . S
C9145 H9135 0.929 . S
C9145 C9143 1.433 . S
C9145 N9148 1.384 . S
C9146 H9137 0.929 . S
C9146 C9138 1.378 . S
C9146 C9141 1.350 . S
C9147 H9134 0.929 . S
C9147 C9139 1.433 . S
C9147 N9149 1.384 . S
N9148 C9144 1.427 . S
N9148 C9145 1.384 . S
N9149 C9141 1.427 . S
N9149 C9147 1.384 . S
H9150 C9156 0.930 . S
H9151 C9160 0.930 . S
H9152 C9165 0.929 . S
H9153 C9163 0.929 . S
H9154 C9158 0.929 . S
H9155 C9164 0.929 . S
C9156 H9150 0.930 . S
C9156 C9157 1.367 . S
C9156 C9164 1.378 . S
C9157 C9156 1.367 . S
C9157 C9165 1.433 . S
C9158 H9154 0.929 . S
C9158 C9160 1.378 . S
C9158 C9162 1.350 . S
C9159 C9162 1.463 . S
C9159 C9164 1.350 . S
C9159 N9167 1.427 . S
C9160 H9151 0.930 . S
C9160 C9158 1.378 . S
C9160 C9161 1.367 . S
C9161 C9160 1.367 . S
C9161 C9163 1.433 . S
C9162 C9158 1.350 . S
C9162 C9159 1.463 . S
C9162 N9166 1.427 . S
C9163 H9153 0.929 . S
C9163 C9161 1.433 . S
C9163 N9166 1.384 . S
C9164 H9155 0.929 . S
C9164 C9156 1.378 . S
C9164 C9159 1.350 . S
C9165 H9152 0.929 . S
C9165 C9157 1.433 . S
C9165 N9167 1.384 . S
N9166 C9162 1.427 . S
N9166 C9163 1.384 . S
N9167 C9159 1.427 . S
N9167 C9165 1.384 . S
H9168 C9174 0.930 . S
H9169 C9178 0.930 . S
H9170 C9183 0.929 . S
H9171 C9181 0.929 . S
H9172 C9176 0.929 . S
H9173 C9182 0.929 . S
C9174 H9168 0.930 . S
C9174 C9175 1.367 . S
C9174 C9182 1.378 . S
C9175 C9174 1.367 . S
C9175 C9183 1.433 . S
C9176 H9172 0.929 . S
C9176 C9178 1.378 . S
C9176 C9180 1.350 . S
C9177 C9180 1.463 . S
C9177 C9182 1.350 . S
C9177 N9185 1.427 . S
C9178 H9169 0.930 . S
C9178 C9176 1.378 . S
C9178 C9179 1.367 . S
C9179 C9178 1.367 . S
C9179 C9181 1.433 . S
C9180 C9176 1.350 . S
C9180 C9177 1.463 . S
C9180 N9184 1.427 . S
C9181 H9171 0.929 . S
C9181 C9179 1.433 . S
C9181 N9184 1.384 . S
C9182 H9173 0.929 . S
C9182 C9174 1.378 . S
C9182 C9177 1.350 . S
C9183 H9170 0.929 . S
C9183 C9175 1.433 . S
C9183 N9185 1.384 . S
N9184 C9180 1.427 . S
N9184 C9181 1.384 . S
N9185 C9177 1.427 . S
N9185 C9183 1.384 . S
H9186 C9192 0.930 . S
H9187 C9196 0.930 . S
H9188 C9201 0.929 . S
H9189 C9199 0.929 . S
H9190 C9194 0.929 . S
H9191 C9200 0.929 . S
C9192 H9186 0.930 . S
C9192 C9193 1.367 . S
C9192 C9200 1.378 . S
C9193 C9192 1.367 . S
C9193 C9201 1.433 . S
C9194 H9190 0.929 . S
C9194 C9196 1.378 . S
C9194 C9198 1.350 . S
C9195 C9198 1.463 . S
C9195 C9200 1.350 . S
C9195 N9203 1.427 . S
C9196 H9187 0.930 . S
C9196 C9194 1.378 . S
C9196 C9197 1.367 . S
C9197 C9196 1.367 . S
C9197 C9199 1.433 . S
C9198 C9194 1.350 . S
C9198 C9195 1.463 . S
C9198 N9202 1.427 . S
C9199 H9189 0.929 . S
C9199 C9197 1.433 . S
C9199 N9202 1.384 . S
C9200 H9191 0.929 . S
C9200 C9192 1.378 . S
C9200 C9195 1.350 . S
C9201 H9188 0.929 . S
C9201 C9193 1.433 . S
C9201 N9203 1.384 . S
N9202 C9198 1.427 . S
N9202 C9199 1.384 . S
N9203 C9195 1.427 . S
N9203 C9201 1.384 . S
H9204 C9210 0.930 . S
H9205 C9214 0.930 . S
H9206 C9219 0.929 . S
H9207 C9217 0.929 . S
H9208 C9212 0.929 . S
H9209 C9218 0.929 . S
C9210 H9204 0.930 . S
C9210 C9211 1.367 . S
C9210 C9218 1.378 . S
C9211 C9210 1.367 . S
C9211 C9219 1.433 . S
C9212 H9208 0.929 . S
C9212 C9214 1.378 . S
C9212 C9216 1.350 . S
C9213 C9216 1.463 1_554 S
C9213 C9218 1.350 . S
C9213 N9221 1.427 . S
C9214 H9205 0.930 . S
C9214 C9212 1.378 . S
C9214 C9215 1.367 . S
C9215 C9214 1.367 . S
C9215 C9217 1.433 . S
C9216 C9212 1.350 . S
C9216 C9213 1.463 1_556 S
C9216 N9220 1.427 . S
C9217 H9207 0.929 . S
C9217 C9215 1.433 . S
C9217 N9220 1.384 . S
C9218 H9209 0.929 . S
C9218 C9210 1.378 . S
C9218 C9213 1.350 . S
C9219 H9206 0.929 . S
C9219 C9211 1.433 . S
C9219 N9221 1.384 . S
N9220 C9216 1.427 . S
N9220 C9217 1.384 . S
N9221 C9213 1.427 . S
N9221 C9219 1.384 . S
H9222 C9228 0.930 . S
H9223 C9232 0.930 . S
H9224 C9237 0.929 . S
H9225 C9235 0.929 . S
H9226 C9230 0.929 . S
H9227 C9236 0.929 . S
C9228 H9222 0.930 . S
C9228 C9229 1.367 . S
C9228 C9236 1.378 . S
C9229 C9228 1.367 . S
C9229 C9237 1.433 . S
C9230 H9226 0.929 . S
C9230 C9232 1.378 . S
C9230 C9234 1.350 . S
C9231 C9234 1.463 . S
C9231 C9236 1.350 . S
C9231 N9239 1.427 . S
C9232 H9223 0.930 . S
C9232 C9230 1.378 . S
C9232 C9233 1.367 . S
C9233 C9232 1.367 . S
C9233 C9235 1.433 . S
C9234 C9230 1.350 . S
C9234 C9231 1.463 . S
C9234 N9238 1.427 . S
C9235 H9225 0.929 . S
C9235 C9233 1.433 . S
C9235 N9238 1.384 . S
C9236 H9227 0.929 . S
C9236 C9228 1.378 . S
C9236 C9231 1.350 . S
C9237 H9224 0.929 . S
C9237 C9229 1.433 . S
C9237 N9239 1.384 . S
N9238 C9234 1.427 . S
N9238 C9235 1.384 . S
N9239 C9231 1.427 . S
N9239 C9237 1.384 . S
H9240 C9246 0.930 . S
H9241 C9250 0.930 . S
H9242 C9255 0.929 . S
H9243 C9253 0.929 . S
H9244 C9248 0.929 . S
H9245 C9254 0.929 . S
C9246 H9240 0.930 . S
C9246 C9247 1.367 . S
C9246 C9254 1.378 . S
C9247 C9246 1.367 . S
C9247 C9255 1.433 . S
C9248 H9244 0.929 . S
C9248 C9250 1.378 . S
C9248 C9252 1.350 . S
C9249 C9252 1.463 1_554 S
C9249 C9254 1.350 . S
C9249 N9257 1.427 . S
C9250 H9241 0.930 . S
C9250 C9248 1.378 . S
C9250 C9251 1.367 . S
C9251 C9250 1.367 . S
C9251 C9253 1.433 . S
C9252 C9248 1.350 . S
C9252 C9249 1.463 1_556 S
C9252 N9256 1.427 . S
C9253 H9243 0.929 . S
C9253 C9251 1.433 . S
C9253 N9256 1.384 . S
C9254 H9245 0.929 . S
C9254 C9246 1.378 . S
C9254 C9249 1.350 . S
C9255 H9242 0.929 . S
C9255 C9247 1.433 . S
C9255 N9257 1.384 . S
N9256 C9252 1.427 . S
N9256 C9253 1.384 . S
N9257 C9249 1.427 . S
N9257 C9255 1.384 . S
H9258 C9264 0.930 . S
H9259 C9268 0.930 . S
H9260 C9273 0.929 . S
H9261 C9271 0.929 . S
H9262 C9266 0.929 . S
H9263 C9272 0.929 . S
C9264 H9258 0.930 . S
C9264 C9265 1.367 . S
C9264 C9272 1.378 . S
C9265 C9264 1.367 . S
C9265 C9273 1.433 . S
C9266 H9262 0.929 . S
C9266 C9268 1.378 . S
C9266 C9270 1.350 . S
C9267 C9270 1.463 . S
C9267 C9272 1.350 . S
C9267 N9275 1.427 . S
C9268 H9259 0.930 . S
C9268 C9266 1.378 . S
C9268 C9269 1.367 . S
C9269 C9268 1.367 . S
C9269 C9271 1.433 . S
C9270 C9266 1.350 . S
C9270 C9267 1.463 . S
C9270 N9274 1.427 . S
C9271 H9261 0.929 . S
C9271 C9269 1.433 . S
C9271 N9274 1.384 . S
C9272 H9263 0.929 . S
C9272 C9264 1.378 . S
C9272 C9267 1.350 . S
C9273 H9260 0.929 . S
C9273 C9265 1.433 . S
C9273 N9275 1.384 . S
N9274 C9270 1.427 . S
N9274 C9271 1.384 . S
N9275 C9267 1.427 . S
N9275 C9273 1.384 . S
H9276 C9282 0.930 . S
H9277 C9286 0.930 . S
H9278 C9291 0.929 . S
H9279 C9289 0.929 . S
H9280 C9284 0.929 . S
H9281 C9290 0.929 . S
C9282 H9276 0.930 . S
C9282 C9283 1.367 . S
C9282 C9290 1.378 . S
C9283 C9282 1.367 . S
C9283 C9291 1.433 . S
C9284 H9280 0.929 . S
C9284 C9286 1.378 . S
C9284 C9288 1.350 . S
C9285 C9288 1.463 . S
C9285 C9290 1.350 . S
C9285 N9293 1.427 . S
C9286 H9277 0.930 . S
C9286 C9284 1.378 . S
C9286 C9287 1.367 . S
C9287 C9286 1.367 . S
C9287 C9289 1.433 . S
C9288 C9284 1.350 . S
C9288 C9285 1.463 . S
C9288 N9292 1.427 . S
C9289 H9279 0.929 . S
C9289 C9287 1.433 . S
C9289 N9292 1.384 . S
C9290 H9281 0.929 . S
C9290 C9282 1.378 . S
C9290 C9285 1.350 . S
C9291 H9278 0.929 . S
C9291 C9283 1.433 . S
C9291 N9293 1.384 . S
N9292 C9288 1.427 . S
N9292 C9289 1.384 . S
N9293 C9285 1.427 . S
N9293 C9291 1.384 . S
H9294 C9300 0.930 . S
H9295 C9304 0.930 . S
H9296 C9309 0.929 . S
H9297 C9307 0.929 . S
H9298 C9302 0.929 . S
H9299 C9308 0.929 . S
C9300 H9294 0.930 . S
C9300 C9301 1.367 . S
C9300 C9308 1.378 . S
C9301 C9300 1.367 . S
C9301 C9309 1.433 . S
C9302 H9298 0.929 . S
C9302 C9304 1.378 . S
C9302 C9306 1.350 . S
C9303 C9306 1.463 . S
C9303 C9308 1.350 . S
C9303 N9311 1.427 . S
C9304 H9295 0.930 . S
C9304 C9302 1.378 . S
C9304 C9305 1.367 . S
C9305 C9304 1.367 . S
C9305 C9307 1.433 . S
C9306 C9302 1.350 . S
C9306 C9303 1.463 . S
C9306 N9310 1.427 . S
C9307 H9297 0.929 . S
C9307 C9305 1.433 . S
C9307 N9310 1.384 . S
C9308 H9299 0.929 . S
C9308 C9300 1.378 . S
C9308 C9303 1.350 . S
C9309 H9296 0.929 . S
C9309 C9301 1.433 . S
C9309 N9311 1.384 . S
N9310 C9306 1.427 . S
N9310 C9307 1.384 . S
N9311 C9303 1.427 . S
N9311 C9309 1.384 . S
H9312 C9318 0.930 . S
H9313 C9322 0.930 . S
H9314 C9327 0.929 . S
H9315 C9325 0.929 . S
H9316 C9320 0.929 . S
H9317 C9326 0.929 . S
C9318 H9312 0.930 . S
C9318 C9319 1.367 . S
C9318 C9326 1.378 . S
C9319 C9318 1.367 . S
C9319 C9327 1.433 . S
C9320 H9316 0.929 . S
C9320 C9322 1.378 . S
C9320 C9324 1.350 . S
C9321 C9324 1.463 . S
C9321 C9326 1.350 . S
C9321 N9329 1.427 . S
C9322 H9313 0.930 . S
C9322 C9320 1.378 . S
C9322 C9323 1.367 . S
C9323 C9322 1.367 . S
C9323 C9325 1.433 . S
C9324 C9320 1.350 . S
C9324 C9321 1.463 . S
C9324 N9328 1.427 . S
C9325 H9315 0.929 . S
C9325 C9323 1.433 . S
C9325 N9328 1.384 . S
C9326 H9317 0.929 . S
C9326 C9318 1.378 . S
C9326 C9321 1.350 . S
C9327 H9314 0.929 . S
C9327 C9319 1.433 . S
C9327 N9329 1.384 . S
N9328 C9324 1.427 . S
N9328 C9325 1.384 . S
N9329 C9321 1.427 . S
N9329 C9327 1.384 . S
H9330 C9336 0.930 . S
H9331 C9340 0.930 . S
H9332 C9345 0.929 . S
H9333 C9343 0.929 . S
H9334 C9338 0.929 . S
H9335 C9344 0.929 . S
C9336 H9330 0.930 . S
C9336 C9337 1.367 . S
C9336 C9344 1.378 . S
C9337 C9336 1.367 . S
C9337 C9345 1.433 . S
C9338 H9334 0.929 . S
C9338 C9340 1.378 . S
C9338 C9342 1.350 . S
C9339 C9342 1.463 . S
C9339 C9344 1.350 . S
C9339 N9347 1.427 . S
C9340 H9331 0.930 . S
C9340 C9338 1.378 . S
C9340 C9341 1.367 . S
C9341 C9340 1.367 . S
C9341 C9343 1.433 . S
C9342 C9338 1.350 . S
C9342 C9339 1.463 . S
C9342 N9346 1.427 . S
C9343 H9333 0.929 . S
C9343 C9341 1.433 . S
C9343 N9346 1.384 . S
C9344 H9335 0.929 . S
C9344 C9336 1.378 . S
C9344 C9339 1.350 . S
C9345 H9332 0.929 . S
C9345 C9337 1.433 . S
C9345 N9347 1.384 . S
N9346 C9342 1.427 . S
N9346 C9343 1.384 . S
N9347 C9339 1.427 . S
N9347 C9345 1.384 . S
H9348 C9354 0.930 . S
H9349 C9358 0.930 . S
H9350 C9363 0.929 . S
H9351 C9361 0.929 . S
H9352 C9356 0.929 . S
H9353 C9362 0.929 . S
C9354 H9348 0.930 . S
C9354 C9355 1.367 . S
C9354 C9362 1.378 . S
C9355 C9354 1.367 . S
C9355 C9363 1.433 . S
C9356 H9352 0.929 . S
C9356 C9358 1.378 . S
C9356 C9360 1.350 . S
C9357 C9360 1.463 . S
C9357 C9362 1.350 . S
C9357 N9365 1.427 . S
C9358 H9349 0.930 . S
C9358 C9356 1.378 . S
C9358 C9359 1.367 . S
C9359 C9358 1.367 . S
C9359 C9361 1.433 . S
C9360 C9356 1.350 . S
C9360 C9357 1.463 . S
C9360 N9364 1.427 . S
C9361 H9351 0.929 . S
C9361 C9359 1.433 . S
C9361 N9364 1.384 . S
C9362 H9353 0.929 . S
C9362 C9354 1.378 . S
C9362 C9357 1.350 . S
C9363 H9350 0.929 . S
C9363 C9355 1.433 . S
C9363 N9365 1.384 . S
N9364 C9360 1.427 . S
N9364 C9361 1.384 . S
N9365 C9357 1.427 . S
N9365 C9363 1.384 . S
H9366 C9372 0.930 . S
H9367 C9376 0.930 . S
H9368 C9381 0.929 . S
H9369 C9379 0.929 . S
H9370 C9374 0.929 . S
H9371 C9380 0.929 . S
C9372 H9366 0.930 . S
C9372 C9373 1.367 . S
C9372 C9380 1.378 . S
C9373 C9372 1.367 . S
C9373 C9381 1.433 . S
C9374 H9370 0.929 . S
C9374 C9376 1.378 . S
C9374 C9378 1.350 . S
C9375 C9378 1.463 . S
C9375 C9380 1.350 . S
C9375 N9383 1.427 . S
C9376 H9367 0.930 . S
C9376 C9374 1.378 . S
C9376 C9377 1.367 . S
C9377 C9376 1.367 . S
C9377 C9379 1.433 . S
C9378 C9374 1.350 . S
C9378 C9375 1.463 . S
C9378 N9382 1.427 . S
C9379 H9369 0.929 . S
C9379 C9377 1.433 . S
C9379 N9382 1.384 . S
C9380 H9371 0.929 . S
C9380 C9372 1.378 . S
C9380 C9375 1.350 . S
C9381 H9368 0.929 . S
C9381 C9373 1.433 . S
C9381 N9383 1.384 . S
N9382 C9378 1.427 . S
N9382 C9379 1.384 . S
N9383 C9375 1.427 . S
N9383 C9381 1.384 . S
H9384 C9390 0.930 . S
H9385 C9394 0.930 . S
H9386 C9399 0.929 . S
H9387 C9397 0.929 . S
H9388 C9392 0.929 . S
H9389 C9398 0.929 . S
C9390 H9384 0.930 . S
C9390 C9391 1.367 . S
C9390 C9398 1.378 . S
C9391 C9390 1.367 . S
C9391 C9399 1.433 . S
C9392 H9388 0.929 . S
C9392 C9394 1.378 . S
C9392 C9396 1.350 . S
C9393 C9396 1.463 . S
C9393 C9398 1.350 . S
C9393 N9401 1.427 . S
C9394 H9385 0.930 . S
C9394 C9392 1.378 . S
C9394 C9395 1.367 . S
C9395 C9394 1.367 . S
C9395 C9397 1.433 . S
C9396 C9392 1.350 . S
C9396 C9393 1.463 . S
C9396 N9400 1.427 . S
C9397 H9387 0.929 . S
C9397 C9395 1.433 . S
C9397 N9400 1.384 . S
C9398 H9389 0.929 . S
C9398 C9390 1.378 . S
C9398 C9393 1.350 . S
C9399 H9386 0.929 . S
C9399 C9391 1.433 . S
C9399 N9401 1.384 . S
N9400 C9396 1.427 . S
N9400 C9397 1.384 . S
N9401 C9393 1.427 . S
N9401 C9399 1.384 . S
H9402 C9408 0.930 . S
H9403 C9412 0.930 . S
H9404 C9417 0.929 . S
H9405 C9415 0.929 . S
H9406 C9410 0.929 . S
H9407 C9416 0.929 . S
C9408 H9402 0.930 . S
C9408 C9409 1.367 . S
C9408 C9416 1.378 . S
C9409 C9408 1.367 . S
C9409 C9417 1.433 . S
C9410 H9406 0.929 . S
C9410 C9412 1.378 . S
C9410 C9414 1.350 . S
C9411 C9414 1.463 . S
C9411 C9416 1.350 . S
C9411 N9419 1.427 . S
C9412 H9403 0.930 . S
C9412 C9410 1.378 . S
C9412 C9413 1.367 . S
C9413 C9412 1.367 . S
C9413 C9415 1.433 . S
C9414 C9410 1.350 . S
C9414 C9411 1.463 . S
C9414 N9418 1.427 . S
C9415 H9405 0.929 . S
C9415 C9413 1.433 . S
C9415 N9418 1.384 . S
C9416 H9407 0.929 . S
C9416 C9408 1.378 . S
C9416 C9411 1.350 . S
C9417 H9404 0.929 . S
C9417 C9409 1.433 . S
C9417 N9419 1.384 . S
N9418 C9414 1.427 . S
N9418 C9415 1.384 . S
N9419 C9411 1.427 . S
N9419 C9417 1.384 . S
H9420 C9426 0.930 . S
H9421 C9430 0.930 . S
H9422 C9435 0.929 . S
H9423 C9433 0.929 . S
H9424 C9428 0.929 . S
H9425 C9434 0.929 . S
C9426 H9420 0.930 . S
C9426 C9427 1.367 . S
C9426 C9434 1.378 . S
C9427 C9426 1.367 . S
C9427 C9435 1.433 . S
C9428 H9424 0.929 . S
C9428 C9430 1.378 . S
C9428 C9432 1.350 . S
C9429 C9432 1.463 . S
C9429 C9434 1.350 . S
C9429 N9437 1.427 . S
C9430 H9421 0.930 . S
C9430 C9428 1.378 . S
C9430 C9431 1.367 . S
C9431 C9430 1.367 . S
C9431 C9433 1.433 . S
C9432 C9428 1.350 . S
C9432 C9429 1.463 . S
C9432 N9436 1.427 . S
C9433 H9423 0.929 . S
C9433 C9431 1.433 . S
C9433 N9436 1.384 . S
C9434 H9425 0.929 . S
C9434 C9426 1.378 . S
C9434 C9429 1.350 . S
C9435 H9422 0.929 . S
C9435 C9427 1.433 . S
C9435 N9437 1.384 . S
N9436 C9432 1.427 . S
N9436 C9433 1.384 . S
N9437 C9429 1.427 . S
N9437 C9435 1.384 . S
H9438 C9444 0.930 . S
H9439 C9448 0.930 . S
H9440 C9453 0.929 . S
H9441 C9451 0.929 . S
H9442 C9446 0.929 . S
H9443 C9452 0.929 . S
C9444 H9438 0.930 . S
C9444 C9445 1.367 . S
C9444 C9452 1.378 . S
C9445 C9444 1.367 . S
C9445 C9453 1.433 . S
C9446 H9442 0.929 . S
C9446 C9448 1.378 . S
C9446 C9450 1.350 . S
C9447 C9450 1.463 . S
C9447 C9452 1.350 . S
C9447 N9455 1.427 . S
C9448 H9439 0.930 . S
C9448 C9446 1.378 . S
C9448 C9449 1.367 . S
C9449 C9448 1.367 . S
C9449 C9451 1.433 . S
C9450 C9446 1.350 . S
C9450 C9447 1.463 . S
C9450 N9454 1.427 . S
C9451 H9441 0.929 . S
C9451 C9449 1.433 . S
C9451 N9454 1.384 . S
C9452 H9443 0.929 . S
C9452 C9444 1.378 . S
C9452 C9447 1.350 . S
C9453 H9440 0.929 . S
C9453 C9445 1.433 . S
C9453 N9455 1.384 . S
N9454 C9450 1.427 . S
N9454 C9451 1.384 . S
N9455 C9447 1.427 . S
N9455 C9453 1.384 . S
H9456 C9462 0.930 . S
H9457 C9466 0.930 . S
H9458 C9471 0.929 . S
H9459 C9469 0.929 . S
H9460 C9464 0.929 . S
H9461 C9470 0.929 . S
C9462 H9456 0.930 . S
C9462 C9463 1.367 . S
C9462 C9470 1.378 . S
C9463 C9462 1.367 . S
C9463 C9471 1.433 . S
C9464 H9460 0.929 . S
C9464 C9466 1.378 . S
C9464 C9468 1.350 . S
C9465 C9468 1.463 . S
C9465 C9470 1.350 . S
C9465 N9473 1.427 . S
C9466 H9457 0.930 . S
C9466 C9464 1.378 . S
C9466 C9467 1.367 . S
C9467 C9466 1.367 . S
C9467 C9469 1.433 . S
C9468 C9464 1.350 . S
C9468 C9465 1.463 . S
C9468 N9472 1.427 . S
C9469 H9459 0.929 . S
C9469 C9467 1.433 . S
C9469 N9472 1.384 . S
C9470 H9461 0.929 . S
C9470 C9462 1.378 . S
C9470 C9465 1.350 . S
C9471 H9458 0.929 . S
C9471 C9463 1.433 . S
C9471 N9473 1.384 . S
N9472 C9468 1.427 . S
N9472 C9469 1.384 . S
N9473 C9465 1.427 . S
N9473 C9471 1.384 . S
H9474 C9480 0.930 . S
H9475 C9484 0.930 . S
H9476 C9489 0.929 . S
H9477 C9487 0.929 . S
H9478 C9482 0.929 . S
H9479 C9488 0.929 . S
C9480 H9474 0.930 . S
C9480 C9481 1.367 . S
C9480 C9488 1.378 . S
C9481 C9480 1.367 . S
C9481 C9489 1.433 . S
C9482 H9478 0.929 . S
C9482 C9484 1.378 . S
C9482 C9486 1.350 . S
C9483 C9486 1.463 . S
C9483 C9488 1.350 . S
C9483 N9491 1.427 . S
C9484 H9475 0.930 . S
C9484 C9482 1.378 . S
C9484 C9485 1.367 . S
C9485 C9484 1.367 . S
C9485 C9487 1.433 . S
C9486 C9482 1.350 . S
C9486 C9483 1.463 . S
C9486 N9490 1.427 . S
C9487 H9477 0.929 . S
C9487 C9485 1.433 . S
C9487 N9490 1.384 . S
C9488 H9479 0.929 . S
C9488 C9480 1.378 . S
C9488 C9483 1.350 . S
C9489 H9476 0.929 . S
C9489 C9481 1.433 . S
C9489 N9491 1.384 . S
N9490 C9486 1.427 . S
N9490 C9487 1.384 . S
N9491 C9483 1.427 . S
N9491 C9489 1.384 . S
H9492 C9498 0.930 . S
H9493 C9502 0.930 . S
H9494 C9507 0.929 . S
H9495 C9505 0.929 . S
H9496 C9500 0.929 . S
H9497 C9506 0.929 . S
C9498 H9492 0.930 . S
C9498 C9499 1.367 . S
C9498 C9506 1.378 . S
C9499 C9498 1.367 . S
C9499 C9507 1.433 . S
C9500 H9496 0.929 . S
C9500 C9502 1.378 . S
C9500 C9504 1.350 . S
C9501 C9504 1.463 . S
C9501 C9506 1.350 . S
C9501 N9509 1.427 . S
C9502 H9493 0.930 . S
C9502 C9500 1.378 . S
C9502 C9503 1.367 . S
C9503 C9502 1.367 . S
C9503 C9505 1.433 . S
C9504 C9500 1.350 . S
C9504 C9501 1.463 . S
C9504 N9508 1.427 . S
C9505 H9495 0.929 . S
C9505 C9503 1.433 . S
C9505 N9508 1.384 . S
C9506 H9497 0.929 . S
C9506 C9498 1.378 . S
C9506 C9501 1.350 . S
C9507 H9494 0.929 . S
C9507 C9499 1.433 . S
C9507 N9509 1.384 . S
N9508 C9504 1.427 . S
N9508 C9505 1.384 . S
N9509 C9501 1.427 . S
N9509 C9507 1.384 . S
H9510 C9516 0.930 . S
H9511 C9520 0.930 . S
H9512 C9525 0.929 . S
H9513 C9523 0.929 . S
H9514 C9518 0.929 . S
H9515 C9524 0.929 . S
C9516 H9510 0.930 . S
C9516 C9517 1.367 . S
C9516 C9524 1.378 . S
C9517 C9516 1.367 . S
C9517 C9525 1.433 . S
C9518 H9514 0.929 . S
C9518 C9520 1.378 . S
C9518 C9522 1.350 . S
C9519 C9522 1.463 . S
C9519 C9524 1.350 . S
C9519 N9527 1.427 . S
C9520 H9511 0.930 . S
C9520 C9518 1.378 . S
C9520 C9521 1.367 . S
C9521 C9520 1.367 . S
C9521 C9523 1.433 . S
C9522 C9518 1.350 . S
C9522 C9519 1.463 . S
C9522 N9526 1.427 . S
C9523 H9513 0.929 . S
C9523 C9521 1.433 . S
C9523 N9526 1.384 . S
C9524 H9515 0.929 . S
C9524 C9516 1.378 . S
C9524 C9519 1.350 . S
C9525 H9512 0.929 . S
C9525 C9517 1.433 . S
C9525 N9527 1.384 . S
N9526 C9522 1.427 . S
N9526 C9523 1.384 . S
N9527 C9519 1.427 . S
N9527 C9525 1.384 . S
H9528 C9534 0.930 . S
H9529 C9538 0.930 . S
H9530 C9543 0.929 . S
H9531 C9541 0.929 . S
H9532 C9536 0.929 . S
H9533 C9542 0.929 . S
C9534 H9528 0.930 . S
C9534 C9535 1.367 . S
C9534 C9542 1.378 . S
C9535 C9534 1.367 . S
C9535 C9543 1.433 . S
C9536 H9532 0.929 . S
C9536 C9538 1.378 . S
C9536 C9540 1.350 . S
C9537 C9540 1.463 . S
C9537 C9542 1.350 . S
C9537 N9545 1.427 . S
C9538 H9529 0.930 . S
C9538 C9536 1.378 . S
C9538 C9539 1.367 . S
C9539 C9538 1.367 . S
C9539 C9541 1.433 . S
C9540 C9536 1.350 . S
C9540 C9537 1.463 . S
C9540 N9544 1.427 . S
C9541 H9531 0.929 . S
C9541 C9539 1.433 . S
C9541 N9544 1.384 . S
C9542 H9533 0.929 . S
C9542 C9534 1.378 . S
C9542 C9537 1.350 . S
C9543 H9530 0.929 . S
C9543 C9535 1.433 . S
C9543 N9545 1.384 . S
N9544 C9540 1.427 . S
N9544 C9541 1.384 . S
N9545 C9537 1.427 . S
N9545 C9543 1.384 . S
H9546 C9552 0.930 . S
H9547 C9556 0.930 . S
H9548 C9561 0.929 . S
H9549 C9559 0.929 . S
H9550 C9554 0.929 . S
H9551 C9560 0.929 . S
C9552 H9546 0.930 . S
C9552 C9553 1.367 . S
C9552 C9560 1.378 . S
C9553 C9552 1.367 . S
C9553 C9561 1.433 . S
C9554 H9550 0.929 . S
C9554 C9556 1.378 . S
C9554 C9558 1.350 . S
C9555 C9558 1.463 . S
C9555 C9560 1.350 . S
C9555 N9563 1.427 . S
C9556 H9547 0.930 . S
C9556 C9554 1.378 . S
C9556 C9557 1.367 . S
C9557 C9556 1.367 . S
C9557 C9559 1.433 . S
C9558 C9554 1.350 . S
C9558 C9555 1.463 . S
C9558 N9562 1.427 . S
C9559 H9549 0.929 . S
C9559 C9557 1.433 . S
C9559 N9562 1.384 . S
C9560 H9551 0.929 . S
C9560 C9552 1.378 . S
C9560 C9555 1.350 . S
C9561 H9548 0.929 . S
C9561 C9553 1.433 . S
C9561 N9563 1.384 . S
N9562 C9558 1.427 . S
N9562 C9559 1.384 . S
N9563 C9555 1.427 . S
N9563 C9561 1.384 . S
H9564 C9570 0.930 . S
H9565 C9574 0.930 . S
H9566 C9579 0.929 . S
H9567 C9577 0.929 . S
H9568 C9572 0.929 . S
H9569 C9578 0.929 . S
C9570 H9564 0.930 . S
C9570 C9571 1.367 . S
C9570 C9578 1.378 . S
C9571 C9570 1.367 . S
C9571 C9579 1.433 . S
C9572 H9568 0.929 . S
C9572 C9574 1.378 . S
C9572 C9576 1.350 . S
C9573 C9576 1.463 . S
C9573 C9578 1.350 . S
C9573 N9581 1.427 . S
C9574 H9565 0.930 . S
C9574 C9572 1.378 . S
C9574 C9575 1.367 . S
C9575 C9574 1.367 . S
C9575 C9577 1.433 . S
C9576 C9572 1.350 . S
C9576 C9573 1.463 . S
C9576 N9580 1.427 . S
C9577 H9567 0.929 . S
C9577 C9575 1.433 . S
C9577 N9580 1.384 . S
C9578 H9569 0.929 . S
C9578 C9570 1.378 . S
C9578 C9573 1.350 . S
C9579 H9566 0.929 . S
C9579 C9571 1.433 . S
C9579 N9581 1.384 . S
N9580 C9576 1.427 . S
N9580 C9577 1.384 . S
N9581 C9573 1.427 . S
N9581 C9579 1.384 . S
H9582 C9588 0.930 . S
H9583 C9592 0.930 . S
H9584 C9597 0.929 . S
H9585 C9595 0.929 . S
H9586 C9590 0.929 . S
H9587 C9596 0.929 . S
C9588 H9582 0.930 . S
C9588 C9589 1.367 . S
C9588 C9596 1.378 . S
C9589 C9588 1.367 . S
C9589 C9597 1.433 . S
C9590 H9586 0.929 . S
C9590 C9592 1.378 . S
C9590 C9594 1.350 . S
C9591 C9594 1.463 . S
C9591 C9596 1.350 . S
C9591 N9599 1.427 . S
C9592 H9583 0.930 . S
C9592 C9590 1.378 . S
C9592 C9593 1.367 . S
C9593 C9592 1.367 . S
C9593 C9595 1.433 . S
C9594 C9590 1.350 . S
C9594 C9591 1.463 . S
C9594 N9598 1.427 . S
C9595 H9585 0.929 . S
C9595 C9593 1.433 . S
C9595 N9598 1.384 . S
C9596 H9587 0.929 . S
C9596 C9588 1.378 . S
C9596 C9591 1.350 . S
C9597 H9584 0.929 . S
C9597 C9589 1.433 . S
C9597 N9599 1.384 . S
N9598 C9594 1.427 . S
N9598 C9595 1.384 . S
N9599 C9591 1.427 . S
N9599 C9597 1.384 . S
C2695 C1085 1.302 . S
C2699 C7 1.311 . S
C2713 C2443 1.301 . S
C2717 C21 1.312 . S
C2731 C1785 1.301 . S
C2735 C35 1.312 . S
C2749 C399 1.301 . S
C2753 C49 1.312 . S
C2767 C63 1.308 . S
C2771 C385 1.305 . S
C2785 C1015 1.301 . S
C2789 C77 1.312 . S
C2803 C2373 1.312 . S
C2807 C91 1.301 . S
C2821 C1715 1.301 . S
C2825 C105 1.312 . S
C2839 C2681 1.306 . S
C2843 C118 1.307 . S
C2857 C1309 1.301 . S
C2861 C133 1.312 . S
C2875 C146 1.310 . S
C2879 C651 1.302 . S
C2893 C567 1.308 . S
C2897 C161 1.304 . S
C2911 C1295 1.311 . S
C2915 C174 1.302 . S
C2929 C189 1.310 . S
C2933 C1925 1.303 . S
C2947 C595 1.304 . S
C2951 C202 1.309 . S
C2965 C217 1.302 . S
C2969 C1281 1.311 . S
C2983 C497 1.303 . S
C2987 C231 1.310 . S
C3001 C245 1.306 . S
C3005 C1869 1.307 . S
C3019 C258 1.311 . S
C3023 C539 1.302 . S
C3037 C1225 1.309 . S
C3041 C273 1.304 . S
C3055 C286 1.310 . S
C3059 C1183 1.302 . S
C3073 C1141 1.301 . S
C3077 C301 1.312 . S
C3091 C314 1.301 . S
C3095 C483 1.312 . S
C3109 C2471 1.307 . S
C3113 C328 1.306 . S
C3127 C343 1.312 . S
C3131 C749 1.301 . S
C3145 C357 1.310 . S
C3149 C2107 1.303 . S
C3163 C1449 1.312 . S
C3167 C371 1.301 . S
C3181 C413 1.309 . S
C3185 C679 1.304 . S
C3199 C427 1.301 . S
C3203 C2037 1.312 . S
C3217 C1379 1.302 . S
C3221 C441 1.311 . S
C3235 C455 1.308 . S
C3239 C2344 1.305 . S
C3253 C973 1.301 . S
C3257 C469 1.312 . S
C3271 C958 1.311 . S
C3275 C511 1.302 . S
C3289 C525 1.309 . S
C3293 C1589 1.304 . S
C3307 C945 1.310 . S
C3311 C553 1.303 . S
C3325 C1533 1.310 . S
C3329 C581 1.303 . S
C3343 C889 1.302 . S
C3347 C609 1.311 . S
C3361 C623 1.306 . S
C3365 C846 1.307 . S
C3379 C637 1.302 . S
C3383 C805 1.310 . S
C3397 C2134 1.312 . S
C3401 C665 1.301 . S
C3415 C1771 1.308 . S
C3419 C693 1.305 . S
C3433 C2457 1.311 . S
C3437 C707 1.302 . S
C3451 C1071 1.301 . S
C3455 C721 1.312 . S
C3469 C1057 1.308 . S
C3473 C735 1.305 . S
C3487 C1701 1.312 . S
C3491 C763 1.301 . S
C3505 C2387 1.312 . S
C3509 C777 1.301 . S
C3523 C790 1.310 . S
C3527 C2009 1.303 . S
C3541 C1323 1.306 . S
C3545 C818 1.307 . S
C3559 C1239 1.307 . S
C3563 C833 1.306 . S
C3577 C861 1.301 . S
C3581 C2597 1.311 . S
C3595 C874 1.302 . S
C3599 C1267 1.311 . S
C3613 C1169 1.301 . S
C3617 C903 1.311 . S
C3631 C917 1.302 . S
C3635 C2541 1.311 . S
C3649 C930 1.312 . S
C3653 C1211 1.301 . S
C3667 C986 1.301 . S
C3671 C1155 1.312 . S
C3685 C1799 1.307 . S
C3689 C1000 1.306 . S
C3703 C1435 1.310 . S
C3707 C1029 1.303 . S
C3721 C1043 1.301 . S
C3725 C2121 1.312 . S
C3739 C1099 1.312 . S
C3743 C1365 1.301 . S
C3757 C1113 1.311 . S
C3761 C2051 1.302 . S
C3775 C1672 1.306 . S
C3779 C1127 1.307 . S
C3793 C1197 1.301 . S
C3797 C2261 1.312 . S
C3811 C2205 1.302 . S
C3815 C1253 1.311 . S
C3829 C1462 1.307 . S
C3833 C1337 1.306 . S
C3847 C1351 1.303 . S
C3851 C2429 1.310 . S
C3865 C1743 1.307 . S
C3869 C1393 1.305 . S
C3883 C1729 1.304 . S
C3887 C1407 1.308 . S
C3901 C1421 1.311 . S
C3905 C2359 1.302 . S
C3919 C1477 1.309 . S
C3923 C2653 1.304 . S
C3937 C1490 1.312 . S
C3941 C1995 1.301 . S
C3955 C1911 1.312 . S
C3959 C1505 1.301 . S
C3973 C2639 1.309 . S
C3977 C1518 1.304 . S
C3991 C1939 1.308 . S
C3995 C1546 1.305 . S
C4009 C2625 1.301 . S
C4013 C1561 1.312 . S
C4027 C1841 1.301 . S
C4031 C1575 1.312 . S
C4045 C1602 1.312 . S
C4049 C1883 1.301 . S
C4063 C2569 1.311 . S
C4067 C1617 1.302 . S
C4081 C2527 1.303 . S
C4085 C1630 1.310 . S
C4099 C1645 1.308 . S
C4103 C2485 1.305 . S
C4117 C1658 1.301 . S
C4121 C1827 1.312 . S
C4135 C1687 1.311 . S
C4139 C2093 1.302 . S
C4153 C2023 1.310 . S
C4157 C1757 1.303 . S
C4171 C2317 1.308 . S
C4175 C1813 1.305 . S
C4189 C2302 1.312 . S
C4193 C1855 1.301 . S
C4207 C2289 1.301 . S
C4211 C1897 1.312 . S
C4225 C2233 1.302 . S
C4229 C1953 1.311 . S
C4243 C1967 1.308 . S
C4247 C2190 1.305 . S
C4261 C2149 1.306 . S
C4265 C1981 1.307 . S
C4279 C2415 1.303 . S
C4283 C2065 1.310 . S
C4297 C2401 1.301 . S
C4301 C2079 1.312 . S
C4315 C2162 1.312 . S
C4319 C2667 1.301 . S
C4333 C2177 1.301 . S
C4337 C2583 1.312 . S
C4351 C2611 1.307 . S
C4355 C2218 1.306 . S
C4369 C2247 1.312 . S
C4373 C2513 1.301 . S
C4387 C2555 1.304 . S
C4391 C2274 1.309 . S
C4405 C2499 1.308 . S
C4409 C2330 1.305 . S
C4423 C443 1.964 . S
C4427 C9 1.961 . S
C4441 C23 1.965 . S
C4445 C1073 1.960 . S
C4459 C2431 1.962 . S
C4463 C37 1.963 . S
C4477 C1773 1.964 . S
C4481 C51 1.960 . S
C4495 C65 1.963 . S
C4499 C1031 1.962 . S
C4513 C2389 1.962 . S
C4517 C79 1.963 . S
C4531 C93 1.963 . S
C4535 C1731 1.962 . S
C4549 C107 1.964 . S
C4553 C345 1.961 . S
C4567 C120 1.963 . S
C4571 C1297 1.962 . S
C4585 C135 1.960 . S
C4589 C1927 1.965 . S
C4603 C148 1.960 . S
C4607 C597 1.965 . S
C4621 C1283 1.963 . S
C4625 C163 1.962 . S
C4639 C176 1.965 . S
C4643 C2683 1.960 . S
C4657 C1311 1.962 . S
C4661 C191 1.963 . S
C4675 C204 1.963 . S
C4679 C653 1.962 . S
C4693 C569 1.963 . S
C4697 C219 1.962 . S
C4711 C233 1.965 . S
C4715 C555 1.960 . S
C4729 C247 1.960 . S
C4733 C1815 1.965 . S
C4747 C485 1.965 . S
C4751 C260 1.960 . S
C4765 C1171 1.960 . S
C4769 C275 1.964 . S
C4783 C288 1.964 . S
C4787 C1129 1.961 . S
C4801 C303 1.964 . S
C4805 C1199 1.961 . S
C4819 C316 1.961 . S
C4823 C541 1.964 . S
C4837 C2529 1.965 . S
C4841 C330 1.960 . S
C4855 C737 1.960 . S
C4859 C359 1.965 . S
C4873 C373 1.962 . S
C4877 C2095 1.963 . S
C4891 C1437 1.961 . S
C4895 C387 1.964 . S
C4909 C401 1.961 . S
C4913 C695 1.964 . S
C4927 C2053 1.960 . S
C4931 C415 1.965 . S
C4945 C429 1.962 . S
C4949 C1395 1.963 . S
C4963 C457 1.962 . S
C4967 C960 1.963 . S
C4981 C471 1.961 . S
C4985 C1591 1.963 . S
C4999 C499 1.962 . S
C5003 C947 1.962 . S
C5017 C2346 1.964 . S
C5021 C513 1.961 . S
C5035 C527 1.960 . S
C5039 C975 1.964 . S
C5053 C1479 1.960 . S
C5057 C583 1.964 . S
C5071 C835 1.964 . S
C5075 C611 1.961 . S
C5089 C625 1.965 . S
C5093 C792 1.960 . S
C5107 C863 1.960 . S
C5111 C639 1.964 . S
C5125 C667 1.960 . S
C5129 C2192 1.965 . S
C5143 C681 1.960 . S
C5147 C1115 1.965 . S
C5161 C709 1.960 . S
C5165 C1759 1.965 . S
C5179 C2445 1.960 . S
C5183 C723 1.964 . S
C5197 C751 1.965 . S
C5201 C1717 1.960 . S
C5215 C2403 1.960 . S
C5219 C765 1.965 . S
C5233 C779 1.962 . S
C5237 C1017 1.963 . S
C5251 C2599 1.962 . S
C5255 C807 1.963 . S
C5269 C820 1.961 . S
C5273 C1269 1.964 . S
C5287 C2011 1.965 . S
C5291 C848 1.960 . S
C5305 C1325 1.965 . S
C5309 C876 1.960 . S
C5323 C891 1.965 . S
C5327 C1241 1.960 . S
C5341 C905 1.962 . S
C5345 C1227 1.963 . S
C5359 C2487 1.962 . S
C5363 C919 1.963 . S
C5377 C1157 1.965 . S
C5381 C932 1.960 . S
C5395 C1213 1.960 . S
C5399 C988 1.965 . S
C5413 C1002 1.960 . S
C5417 C1857 1.964 . S
C5431 C1045 1.962 . S
C5435 C1423 1.963 . S
C5449 C1059 1.960 . S
C5453 C2109 1.965 . S
C5467 C1381 1.960 . S
C5471 C1087 1.965 . S
C5485 C1101 1.960 . S
C5489 C2067 1.965 . S
C5503 C2263 1.964 . S
C5507 C1143 1.961 . S
C5521 C1674 1.965 . S
C5525 C1185 1.960 . S
C5539 C2151 1.961 . S
C5543 C1255 1.963 . S
C5557 C1520 1.961 . S
C5561 C1339 1.964 . S
C5575 C1353 1.963 . S
C5579 C1787 1.962 . S
C5593 C1367 1.960 . S
C5597 C2417 1.965 . S
C5611 C2375 1.962 . S
C5615 C1409 1.962 . S
C5629 C1689 1.962 . S
C5633 C1451 1.963 . S
C5647 C1464 1.960 . S
C5651 C2641 1.965 . S
C5665 C1492 1.964 . S
C5669 C1941 1.961 . S
C5683 C2627 1.962 . S
C5687 C1507 1.963 . S
C5701 C2655 1.965 . S
C5705 C1535 1.960 . S
C5719 C1548 1.963 . S
C5723 C1997 1.962 . S
C5737 C1563 1.960 . S
C5741 C1913 1.964 . S
C5755 C1899 1.960 . S
C5759 C1577 1.965 . S
C5773 C1829 1.965 . S
C5777 C1604 1.960 . S
C5791 C1619 1.962 . S
C5795 C2515 1.962 . S
C5809 C1632 1.960 . S
C5813 C2473 1.965 . S
C5827 C2543 1.960 . S
C5831 C1647 1.965 . S
C5845 C1885 1.960 . S
C5849 C1660 1.965 . S
C5863 C2081 1.962 . S
C5867 C1703 1.963 . S
C5881 C1745 1.963 . S
C5885 C2039 1.962 . S
C5899 C1801 1.965 . S
C5903 C2304 1.960 . S
C5917 C1843 1.960 . S
C5921 C2291 1.965 . S
C5935 C1871 1.961 . S
C5939 C2319 1.964 . S
C5953 C1955 1.962 . S
C5957 C2179 1.963 . S
C5971 C1969 1.965 . S
C5975 C2136 1.960 . S
C5989 C1983 1.962 . S
C5993 C2207 1.963 . S
C6007 C2459 1.965 . S
C6011 C2025 1.960 . S
C6025 C2361 1.962 . S
C6029 C2123 1.963 . S
C6043 C2164 1.965 . S
C6047 C2613 1.960 . S
C6061 C2220 1.964 . S
C6065 C2669 1.960 . S
C6079 C2585 1.965 . S
C6083 C2235 1.960 . S
C6097 C2571 1.963 . S
C6101 C2249 1.961 . S
C6115 C2501 1.965 . S
C6119 C2276 1.960 . S
C6133 C2557 1.963 . S
C6137 C2332 1.961 . S
C6151 C2638 1.396 . S
C6155 C6 1.380 . S
C6169 C20 1.394 . S
C6173 C2596 1.382 . S
C6187 C34 1.380 . S
C6191 C1938 1.395 . S
C6205 C608 1.381 . S
C6209 C48 1.394 . S
C6223 C62 1.385 . S
C6227 C1336 1.391 . S
C6241 C636 1.382 . S
C6245 C76 1.393 . S
C6259 C1994 1.395 . S
C6263 C90 1.381 . S
C6277 C104 1.380 . S
C6281 C1238 1.395 . S
C6295 C119 1.380 . S
C6299 C2568 1.396 . S
C6313 C1854 1.385 . S
C6317 C132 1.391 . S
C6331 C147 1.395 . S
C6335 C524 1.380 . S
C6349 C160 1.394 . S
C6353 C1210 1.381 . S
C6367 C1812 1.380 . S
C6371 C175 1.395 . S
C6385 C188 1.380 . S
C6389 C482 1.395 . S
C6403 C1168 1.393 . S
C6407 C203 1.382 . S
C6421 C216 1.393 . S
C6425 C2470 1.382 . S
C6439 C230 1.392 . S
C6443 C1112 1.384 . S
C6457 C2372 1.383 . S
C6461 C244 1.392 . S
C6475 C1714 1.394 . S
C6479 C259 1.381 . S
C6493 C384 1.380 . S
C6497 C272 1.395 . S
C6511 C287 1.395 . S
C6515 C2358 1.380 . S
C6529 C300 1.393 . S
C6533 C412 1.383 . S
C6547 C315 1.395 . S
C6551 C1770 1.381 . S
C6565 C1070 1.388 . S
C6569 C329 1.388 . S
C6583 C342 1.380 . S
C6587 C2303 1.395 . S
C6601 C356 1.395 . S
C6605 C2260 1.380 . S
C6619 C370 1.393 . S
C6623 C1603 1.382 . S
C6637 C398 1.381 . S
C6641 C1001 1.394 . S
C6655 C1659 1.396 . S
C6659 C426 1.380 . S
C6673 C440 1.380 . S
C6677 C902 1.395 . S
C6691 C2232 1.381 . S
C6695 C454 1.394 . S
C6709 C1519 1.391 . S
C6713 C468 1.385 . S
C6727 C496 1.395 . S
C6731 C875 1.380 . S
C6745 C1476 1.388 . S
C6749 C510 1.388 . S
C6763 C538 1.380 . S
C6767 C832 1.396 . S
C6781 C2135 1.394 . S
C6785 C552 1.381 . S
C6799 C776 1.380 . S
C6803 C566 1.395 . S
C6817 C580 1.383 . S
C6821 C2036 1.393 . S
C6835 C1378 1.380 . S
C6839 C594 1.395 . S
C6853 C2022 1.396 . S
C6857 C622 1.380 . S
C6871 C1434 1.380 . S
C6875 C650 1.395 . S
C6889 C664 1.389 . S
C6893 C734 1.387 . S
C6907 C1966 1.393 . S
C6911 C678 1.382 . S
C6925 C1924 1.396 . S
C6929 C692 1.380 . S
C6943 C706 1.395 . S
C6947 C2610 1.381 . S
C6961 C720 1.385 . S
C6965 C1280 1.391 . S
C6979 C1308 1.382 . S
C6983 C748 1.394 . S
C6997 C762 1.385 . S
C7001 C2666 1.391 . S
C7015 C791 1.381 . S
C7019 C1896 1.394 . S
C7033 C804 1.380 . S
C7037 C2526 1.396 . S
C7051 C1196 1.380 . S
C7055 C819 1.395 . S
C7069 C847 1.382 . S
C7073 C2484 1.394 . S
C7087 C1154 1.396 . S
C7091 C860 1.380 . S
C7105 C1798 1.391 . S
C7109 C888 1.384 . S
C7123 C1700 1.395 . S
C7127 C916 1.381 . S
C7141 C2386 1.395 . S
C7145 C931 1.381 . S
C7159 C944 1.383 . S
C7163 C1056 1.393 . S
C7177 C959 1.380 . S
C7181 C1686 1.396 . S
C7195 C972 1.392 . S
C7199 C1084 1.383 . S
C7213 C2442 1.386 . S
C7217 C987 1.389 . S
C7231 C1014 1.384 . S
C7235 C1631 1.391 . S
C7249 C1588 1.385 . S
C7253 C1028 1.390 . S
C7267 C1042 1.395 . S
C7271 C2275 1.381 . S
C7285 C1098 1.389 . S
C7289 C2331 1.387 . S
C7303 C1560 1.381 . S
C7307 C1126 1.395 . S
C7321 C1140 1.380 . S
C7325 C2191 1.395 . S
C7339 C1182 1.382 . S
C7343 C2148 1.393 . S
C7357 C1224 1.393 . S
C7361 C1463 1.382 . S
C7375 C1364 1.387 . S
C7379 C1252 1.388 . S
C7393 C2050 1.380 . S
C7397 C1266 1.396 . S
C7411 C1294 1.382 . S
C7415 C1350 1.394 . S
C7429 C1322 1.380 . S
C7433 C2106 1.395 . S
C7447 C1952 1.380 . S
C7451 C1392 1.395 . S
C7465 C2680 1.381 . S
C7469 C1406 1.395 . S
C7483 C1980 1.385 . S
C7487 C1420 1.390 . S
C7501 C2582 1.383 . S
C7505 C1448 1.392 . S
C7519 C1868 1.381 . S
C7523 C1491 1.394 . S
C7537 C1504 1.380 . S
C7541 C2554 1.395 . S
C7555 C1826 1.391 . S
C7559 C1532 1.385 . S
C7573 C1547 1.392 . S
C7577 C2512 1.384 . S
C7591 C1574 1.390 . S
C7595 C2456 1.386 . S
C7609 C1616 1.381 . S
C7613 C1728 1.395 . S
C7627 C1644 1.388 . S
C7631 C1756 1.387 . S
C7645 C1673 1.396 . S
C7649 C2414 1.380 . S
C7663 C1742 1.383 . S
C7667 C2345 1.393 . S
C7681 C1784 1.381 . S
C7685 C2246 1.395 . S
C7699 C1840 1.395 . S
C7703 C2219 1.381 . S
C7717 C1882 1.396 . S
C7721 C2176 1.380 . S
C7735 C2120 1.390 . S
C7739 C1910 1.386 . S
C7753 C2078 1.396 . S
C7757 C2008 1.380 . S
C7771 C2624 1.382 . S
C7775 C2064 1.394 . S
C7789 C2652 1.385 . S
C7793 C2092 1.391 . S
C7807 C2540 1.388 . S
C7811 C2163 1.388 . S
C7825 C2204 1.396 . S
C7829 C2498 1.380 . S
C7843 C2288 1.391 . S
C7847 C2400 1.384 . S
C7861 C2428 1.394 . S
C7865 C2316 1.381 . S
C7879 C890 1.350 . S
C7883 C8 1.359 . S
C7897 C22 1.351 . S
C7901 C1521 1.364 . S
C7915 C862 1.360 . S
C7919 C36 1.349 . S
C7933 C1549 1.360 . S
C7937 C50 1.350 . S
C7951 C64 1.350 . S
C7955 C806 1.362 . S
C7969 C1493 1.359 . S
C7973 C78 1.350 . S
C7987 C834 1.350 . S
C7991 C92 1.363 . S
C8005 C106 1.357 . S
C8009 C1465 1.351 . S
C8023 C1450 1.349 . S
C8027 C121 1.361 . S
C8041 C736 1.349 . S
C8045 C134 1.361 . S
C8059 C149 1.364 . S
C8063 C1422 1.351 . S
C8077 C162 1.350 . S
C8081 C764 1.362 . S
C8095 C1366 1.350 . S
C8099 C177 1.362 . S
C8113 C708 1.349 . S
C8117 C190 1.360 . S
C8131 C1394 1.363 . S
C8135 C205 1.356 . S
C8149 C218 1.350 . S
C8153 C680 1.358 . S
C8167 C1633 1.351 . S
C8171 C232 1.364 . S
C8185 C1675 1.356 . S
C8189 C246 1.351 . S
C8203 C261 1.356 . S
C8207 C1646 1.351 . S
C8221 C1661 1.350 . S
C8225 C274 1.363 . S
C8239 C289 1.352 . S
C8243 C1576 1.364 . S
C8257 C1605 1.357 . S
C8261 C302 1.350 . S
C8275 C1618 1.350 . S
C8279 C317 1.362 . S
C8293 C331 1.350 . S
C8297 C1590 1.360 . S
C8311 C1226 1.350 . S
C8315 C344 1.357 . S
C8329 C358 1.357 . S
C8333 C1856 1.351 . S
C8347 C1198 1.349 . S
C8351 C372 1.361 . S
C8365 C386 1.362 . S
C8369 C1884 1.358 . S
C8383 C400 1.351 . S
C8387 C1142 1.364 . S
C8401 C1828 1.350 . S
C8405 C414 1.362 . S
C8419 C428 1.353 . S
C8423 C1170 1.364 . S
C8437 C442 1.364 . S
C8441 C1800 1.352 . S
C8455 C1786 1.350 . S
C8459 C456 1.361 . S
C8473 C1072 1.358 . S
C8477 C470 1.362 . S
C8491 C484 1.360 . S
C8495 C1758 1.361 . S
C8509 C1100 1.362 . S
C8513 C498 1.350 . S
C8527 C512 1.353 . S
C8531 C1702 1.354 . S
C8545 C1044 1.353 . S
C8549 C526 1.364 . S
C8563 C1730 1.350 . S
C8567 C540 1.362 . S
C8581 C554 1.351 . S
C8585 C1016 1.356 . S
C8599 C1968 1.363 . S
C8603 C568 1.357 . S
C8617 C582 1.350 . S
C8621 C2010 1.358 . S
C8635 C1982 1.364 . S
C8639 C596 1.355 . S
C8653 C1996 1.363 . S
C8657 C610 1.357 . S
C8671 C1912 1.350 . S
C8675 C624 1.360 . S
C8689 C638 1.361 . S
C8693 C1940 1.360 . S
C8707 C652 1.356 . S
C8711 C1954 1.363 . S
C8725 C1926 1.350 . S
C8729 C666 1.359 . S
C8743 C2193 1.362 . S
C8747 C694 1.350 . S
C8761 C2221 1.362 . S
C8765 C722 1.358 . S
C8779 C750 1.358 . S
C8783 C2165 1.350 . S
C8797 C2137 1.355 . S
C8801 C778 1.364 . S
C8815 C793 1.357 . S
C8819 C2122 1.363 . S
C8833 C821 1.360 . S
C8837 C2094 1.350 . S
C8851 C2038 1.350 . S
C8855 C849 1.358 . S
C8869 C877 1.363 . S
C8873 C2066 1.350 . S
C8887 C904 1.354 . S
C8891 C2305 1.364 . S
C8905 C2347 1.358 . S
C8909 C918 1.362 . S
C8923 C933 1.355 . S
C8927 C2318 1.352 . S
C8941 C2333 1.358 . S
C8945 C946 1.362 . S
C8959 C2248 1.362 . S
C8963 C961 1.350 . S
C8977 C974 1.349 . S
C8981 C2277 1.361 . S
C8995 C989 1.362 . S
C8999 C2290 1.359 . S
C9013 C2262 1.356 . S
C9017 C1003 1.351 . S
C9031 C2528 1.354 . S
C9035 C1030 1.364 . S
C9049 C2556 1.356 . S
C9053 C1058 1.363 . S
C9067 C2500 1.352 . S
C9071 C1086 1.354 . S
C9085 C2472 1.362 . S
C9089 C1114 1.358 . S
C9103 C1128 1.363 . S
C9107 C2458 1.350 . S
C9121 C2430 1.352 . S
C9125 C1156 1.364 . S
C9139 C2374 1.354 . S
C9143 C1184 1.352 . S
C9157 C2402 1.363 . S
C9161 C1212 1.356 . S
C9175 C1240 1.351 . S
C9179 C2640 1.357 . S
C9193 C2682 1.364 . S
C9197 C1254 1.352 . S
C9211 C1268 1.354 . S
C9215 C2654 1.364 . S
C9229 C2668 1.355 . S
C9233 C1282 1.352 . S
C9247 C1296 1.364 . S
C9251 C2584 1.355 . S
C9265 C1310 1.350 . S
C9269 C2612 1.362 . S
C9283 C2626 1.364 . S
C9287 C1324 1.352 . S
C9301 C2598 1.350 . S
C9305 C1338 1.362 . S
C9319 C2234 1.362 . S
C9323 C1352 1.358 . S
C9337 C1380 1.350 . S
C9341 C2206 1.359 . S
C9355 C2150 1.362 . S
C9359 C1408 1.350 . S
C9373 C1436 1.363 . S
C9377 C2178 1.351 . S
C9391 C1478 1.351 . S
C9395 C2080 1.363 . S
C9409 C1506 1.362 . S
C9413 C2108 1.358 . S
C9427 C2052 1.351 . S
C9431 C1534 1.356 . S
C9445 C1562 1.364 . S
C9449 C2024 1.351 . S
C9463 C2570 1.356 . S
C9467 C1688 1.351 . S
C9481 C2542 1.356 . S
C9485 C1716 1.351 . S
C9499 C2486 1.352 . S
C9503 C1744 1.364 . S
C9517 C2514 1.359 . S
C9521 C1772 1.362 . S
C9535 C2416 1.351 . S
C9539 C1814 1.364 . S
C9553 C1842 1.363 . S
C9557 C2444 1.350 . S
C9571 C1870 1.361 . S
C9575 C2388 1.349 . S
C9589 C2360 1.353 . S
C9593 C1898 1.364 . S
