# Generated by pormake.
# Topology unh, (4)-cn, num edge types: 1
# Building blocks:
#     Node 0, Type 0, BuildingBlock: MUDLON_clean_sbu_0, # of connection points: 4
#     Node 1, Type 0, BuildingBlock: MUDLON_clean_sbu_0, # of connection points: 4
#     Node 2, Type 0, BuildingBlock: MUDLON_clean_sbu_0, # of connection points: 4
#     Node 3, Type 0, BuildingBlock: MUDLON_clean_sbu_0, # of connection points: 4
#     Node 4, Type 0, BuildingBlock: MUDLON_clean_sbu_0, # of connection points: 4
#     Node 5, Type 0, BuildingBlock: MUDLON_clean_sbu_0, # of connection points: 4
#     Edge 6, Type (0, 0), BuildingBlock: TEMPAE_clean_linker_10, # of connection points: 2
#     Edge 7, Type (0, 0), BuildingBlock: TEMPAE_clean_linker_10, # of connection points: 2
#     Edge 8, Type (0, 0), BuildingBlock: TEMPAE_clean_linker_10, # of connection points: 2
#     Edge 9, Type (0, 0), BuildingBlock: TEMPAE_clean_linker_10, # of connection points: 2
#     Edge 10, Type (0, 0), BuildingBlock: TEMPAE_clean_linker_10, # of connection points: 2
#     Edge 11, Type (0, 0), BuildingBlock: TEMPAE_clean_linker_10, # of connection points: 2
#     Edge 12, Type (0, 0), BuildingBlock: TEMPAE_clean_linker_10, # of connection points: 2
#     Edge 13, Type (0, 0), BuildingBlock: TEMPAE_clean_linker_10, # of connection points: 2
#     Edge 14, Type (0, 0), BuildingBlock: TEMPAE_clean_linker_10, # of connection points: 2
#     Edge 15, Type (0, 0), BuildingBlock: TEMPAE_clean_linker_10, # of connection points: 2
#     Edge 16, Type (0, 0), BuildingBlock: TEMPAE_clean_linker_10, # of connection points: 2
#     Edge 17, Type (0, 0), BuildingBlock: TEMPAE_clean_linker_10, # of connection points: 2
# Relax obj value: 0.034
# Max RMSD: 0.245
# Mean RMSD: 0.245
data_MOF--net-unh--node1-MUDLON_clean_sbu_0--edge1-TEMPAE_clean_linker_10
_symmetry_space_group_name_H-M    P1
_symmetry_Int_Tables_number       1
_symmetry_cell_setting            triclinic
loop_
_symmetry_equiv_pos_as_xyz
'x, y, z'
_cell_length_a     44.62339
_cell_length_b     44.722932
_cell_length_c     23.565754
_cell_angle_alpha  89.964457
_cell_angle_beta   90.043501
_cell_angle_gamma 119.91948
loop_
_atom_site_label
_atom_site_type_symbol
_atom_site_fract_x
_atom_site_fract_y
_atom_site_fract_z
_atom_type_partial_charge
Mg0 Mg 0.14922 0.57689 0.10266 0.0
C1 C 0.1926 0.62945 1.01827 0.0
O2 O 0.1823 0.60009 0.99168 0.0
C3 C 0.08794 0.54613 0.17861 0.0
O4 O 0.08051 0.52129 0.14191 0.0
C5 C 0.18025 0.54387 0.17861 0.0
O6 O 0.15207 0.53495 0.20814 0.0
O7 O 0.18463 0.55979 0.13186 0.0
O8 O 0.18184 0.62859 0.06859 0.0
O9 O 0.11533 0.54626 0.03356 0.0
C10 C 0.09277 0.55442 0.01976 0.0
O11 O 0.09189 0.57932 0.04796 0.0
O12 O 0.11635 0.57435 0.17322 0.0
Mg13 Mg 0.59176 0.14638 0.26206 0.0
C14 C 0.55147 0.18285 0.22054 0.0
O15 O 0.52363 0.15576 0.24027 0.0
C16 C 0.53607 0.08318 0.32432 0.0
O17 O 0.53355 0.06886 0.27461 0.0
C18 C 0.64851 0.17289 0.35126 0.0
O19 O 0.62344 0.1482 0.38087 0.0
O20 O 0.64311 0.17668 0.29939 0.0
O21 O 0.58067 0.18457 0.22559 0.0
O22 O 0.59014 0.11298 0.1931 0.0
C23 C 0.56483 0.10273 0.15885 0.0
O24 O 0.54219 0.1129 0.16721 0.0
O25 O 0.55667 0.11541 0.32997 0.0
Mg26 Mg 0.45368 0.58417 0.43143 0.0
C27 C 0.3855 0.54659 0.36394 0.0
O28 O 0.39834 0.52745 0.34619 0.0
C29 C 0.48388 0.55537 0.51011 0.0
O30 O 0.51068 0.57964 0.4828 0.0
C31 C 0.4708 0.63657 0.52274 0.0
O32 O 0.45553 0.60757 0.55157 0.0
O33 O 0.47485 0.63525 0.46951 0.0
O34 O 0.40238 0.57033 0.4 0.0
O35 O 0.48503 0.58265 0.36174 0.0
C36 C 0.48303 0.55366 0.35267 0.0
O37 O 0.46232 0.52727 0.38462 0.0
O38 O 0.45391 0.55003 0.49722 0.0
Mg39 Mg 0.8758 0.44636 0.60353 0.0
C40 C 0.84552 0.37216 0.55448 0.0
O41 O 0.87758 0.37845 0.55494 0.0
C42 C 0.93732 0.47592 0.67891 0.0
O43 O 0.94486 0.50107 0.64275 0.0
C44 C 0.84984 0.48426 0.67978 0.0
O45 O 0.87841 0.49265 0.70782 0.0
O46 O 0.84369 0.46716 0.6339 0.0
O47 O 0.83878 0.39474 0.57366 0.0
O48 O 0.90893 0.4745 0.53184 0.0
C49 C 0.93367 0.46886 0.5215 0.0
O50 O 0.93764 0.44738 0.55445 0.0
O51 O 0.90874 0.44788 0.67331 0.0
Mg52 Mg 0.44859 0.88169 0.76212 0.0
C53 C 0.48778 0.84361 0.72172 0.0
O54 O 0.51558 0.86886 0.74533 0.0
C55 C 0.50483 0.94453 0.82445 0.0
O56 O 0.50823 0.95877 0.77437 0.0
C57 C 0.39871 0.83193 0.84187 0.0
O58 O 0.42842 0.83429 0.85525 0.0
O59 O 0.39821 0.85069 0.80167 0.0
O60 O 0.45937 0.84372 0.72416 0.0
O61 O 0.44967 0.91517 0.69375 0.0
C62 C 0.47489 0.92518 0.65943 0.0
O63 O 0.49725 0.91462 0.66775 0.0
O64 O 0.48349 0.91248 0.8303 0.0
Mg65 Mg 0.57941 0.44167 0.93616 0.0
C66 C 0.64864 0.48312 0.87439 0.0
O67 O 0.6337 0.49973 0.85377 0.0
C68 C 0.59421 0.49249 0.03757 0.0
O69 O 0.62517 0.49588 0.03994 0.0
C70 C 0.55816 0.38643 0.02467 0.0
O71 O 0.5665 0.41364 0.05631 0.0
O72 O 0.55966 0.38985 0.97092 0.0
O73 O 0.63266 0.45956 0.91114 0.0
O74 O 0.55139 0.44356 0.86152 0.0
C75 C 0.54915 0.47074 0.85668 0.0
O76 O 0.56295 0.49442 0.89636 0.0
O77 O 0.57282 0.47289 1.00032 0.0
C78 C 0.04215 0.54507 0.9614 0.0
C79 C 0.06848 0.53733 0.972 0.0
C80 C 0.02012 0.53114 0.9145 0.0
C81 C 0.0245 0.50892 0.87697 0.0
C82 C 0.05027 0.50003 0.88835 0.0
C83 C 0.07197 0.51433 0.93585 0.0
C84 C 0.99291 0.54122 0.90407 0.0
C85 C 0.05568 0.4764 0.84932 0.0
C86 C 0.9498 0.45951 0.77441 0.0
C87 C 0.96082 0.48162 0.72728 0.0
C88 C 0.97092 0.46715 0.82275 0.0
C89 C 1.00381 0.49747 0.82368 0.0
C90 C 1.01569 0.51887 0.77507 0.0
C91 C 0.99404 0.51074 0.72762 0.0
C92 C 0.95738 0.44368 0.87374 0.0
C93 C 0.05067 0.55131 0.77408 0.0
H94 H 0.03902 0.56257 0.98933 0.0
H95 H 0.09219 0.50814 0.94383 0.0
H96 H 0.99885 0.55637 0.86423 0.0
H97 H 0.96716 0.51785 0.8987 0.0
H98 H 0.99137 0.55693 0.93924 0.0
H99 H 0.07454 0.46947 0.86681 0.0
H100 H 0.03081 0.45237 0.84148 0.0
H101 H 0.06535 0.48922 0.80768 0.0
H102 H 0.92419 0.43692 0.77441 0.0
H103 H 1.00294 0.52776 0.69112 0.0
H104 H 0.95206 0.45708 0.90857 0.0
H105 H 0.97702 0.4374 0.88954 0.0
H106 H 0.93318 0.41926 0.86411 0.0
H107 H 0.05091 0.57026 0.80473 0.0
H108 H 0.05727 0.56348 0.7314 0.0
H109 H 0.07111 0.54555 0.78732 0.0
C110 C 0.51258 0.95267 0.92987 0.0
C111 C 0.52123 0.96659 0.87496 0.0
C112 C 0.52343 0.97413 0.97792 0.0
C113 C 0.54348 1.01036 0.97091 0.0
C114 C 0.55425 0.02434 0.91587 0.0
C115 C 0.54299 1.0023 0.86859 0.0
C116 C 0.51151 0.95816 0.03587 0.0
C117 C 0.57582 0.06278 0.90654 0.0
C118 C 0.53034 0.06657 0.07696 0.0
C119 C 0.5599 0.07899 0.11123 0.0
C120 C 0.52473 0.04409 0.03164 0.0
C121 C 0.54932 0.03373 0.01989 0.0
C122 C 0.57922 0.04604 0.0543 0.0
C123 C 0.58415 0.06852 0.09969 0.0
C124 C 0.49241 0.03151 0.99615 0.0
C125 C 0.60603 0.03561 0.04295 0.0
H126 H 0.49596 0.9251 0.93533 0.0
H127 H 0.55011 0.01331 0.82642 0.0
H128 H 0.53335 0.96917 0.06639 0.0
H129 H 0.49171 0.96413 0.05201 0.0
H130 H 0.50005 0.92969 0.03494 0.0
H131 H 0.58565 0.06923 0.86235 0.0
H132 H 0.55994 0.07501 0.91539 0.0
H133 H 0.59813 0.07428 0.93612 0.0
H134 H 0.51137 0.07437 0.08552 0.0
H135 H 0.60705 0.07797 0.12596 0.0
H136 H 0.47722 1.00291 0.99686 0.0
H137 H 0.49951 0.03953 0.95134 0.0
H138 H 0.47564 0.04167 1.01135 0.0
H139 H 0.5939 1.00711 0.04452 0.0
H140 H 0.62761 0.04704 0.07405 0.0
H141 H 0.61681 0.04388 0.99968 0.0
C142 C 0.52378 0.57606 0.26953 0.0
C143 C 0.50327 0.54911 0.307 0.0
C144 C 0.54195 0.57113 0.22512 0.0
C145 C 0.53951 0.53853 0.21817 0.0
C146 C 0.51948 0.51154 0.25668 0.0
C147 C 0.50164 0.51715 0.30048 0.0
C148 C 0.56308 0.60051 0.1849 0.0
C149 C 0.51617 0.47637 0.25082 0.0
C150 C 0.55021 0.50632 0.07523 0.0
C151 C 0.58252 0.50842 0.08103 0.0
C152 C 0.53673 0.5177 0.11843 0.0
C153 C 0.55598 0.53156 0.16885 0.0
C154 C 0.58936 0.53539 0.17389 0.0
C155 C 0.60228 0.52379 0.12984 0.0
C156 C 0.50109 0.51325 0.1112 0.0
C157 C 0.61071 0.55018 0.22693 0.0
H158 H 0.52527 0.60087 0.27437 0.0
H159 H 0.48606 0.49621 0.32938 0.0
H160 H 0.58981 0.60495 0.18191 0.0
H161 H 0.55168 0.59377 0.14173 0.0
H162 H 0.56426 0.62488 0.1983 0.0
H163 H 0.50088 0.45864 0.2858 0.0
H164 H 0.50343 0.46451 0.20995 0.0
H165 H 0.54215 0.47879 0.25031 0.0
H166 H 0.53488 0.49485 0.0374 0.0
H167 H 0.62732 0.52566 0.1346 0.0
H168 H 0.50149 0.53772 0.1209 0.0
H169 H 0.48296 0.49351 0.1415 0.0
H170 H 0.49086 0.50503 0.06754 0.0
H171 H 0.61174 0.57466 0.2389 0.0
H172 H 0.63755 0.55512 0.22169 0.0
H173 H 0.59846 0.53186 0.26264 0.0
C174 C 0.95245 0.50649 0.43443 0.0
C175 C 0.95734 0.48526 0.47275 0.0
C176 C 0.97388 0.52038 0.38655 0.0
C177 C 1.00071 0.51279 0.37683 0.0
C178 C 1.00636 0.49224 0.41631 0.0
C179 C 0.98466 0.47878 0.46367 0.0
C180 C 0.96716 0.5423 0.3455 0.0
C181 C 0.03466 0.48349 0.4076 0.0
C182 C 0.03188 0.50989 0.2285 0.0
C183 C 0.06441 0.53995 0.22716 0.0
C184 C 1.01024 0.50164 0.27596 0.0
C185 C 0.02137 0.52393 0.32351 0.0
C186 C 0.05354 0.55507 0.32158 0.0
C187 C 0.0747 0.56276 0.27332 0.0
C188 C 0.97609 0.46825 0.27612 0.0
C189 C 0.06625 0.57952 0.3714 0.0
H190 H 0.9315 0.51175 0.44124 0.0
H191 H 0.98884 0.46261 0.49315 0.0
H192 H 0.99139 0.56687 0.33708 0.0
H193 H 0.95815 0.52859 0.30437 0.0
H194 H 0.94734 0.54828 0.36154 0.0
H195 H 0.03692 0.46887 0.44389 0.0
H196 H 0.02935 0.46774 0.3686 0.0
H197 H 0.05989 0.5074 0.40158 0.0
H198 H 0.02352 0.49227 0.19281 0.0
H199 H 0.09975 0.58608 0.27255 0.0
H200 H 0.95482 0.47306 0.28801 0.0
H201 H 0.97678 0.45046 0.30828 0.0
H202 H 0.96999 0.45516 0.23419 0.0
H203 H 0.04591 0.58513 0.38585 0.0
H204 H 0.08994 0.60425 0.36103 0.0
H205 H 0.07214 0.56729 0.40743 0.0
C206 C 0.52782 0.0752 0.42968 0.0
C207 C 0.51956 0.06117 0.37482 0.0
C208 C 0.51682 0.05381 0.47785 0.0
C209 C 0.49704 0.01756 0.471 0.0
C210 C 0.48668 1.00345 0.41594 0.0
C211 C 0.49808 0.0254 0.36855 0.0
C212 C 0.52833 0.06991 0.53581 0.0
C213 C 0.46541 0.96497 0.40676 0.0
C214 C 0.5099 0.96166 0.57822 0.0
C215 C 0.48007 0.94902 0.61182 0.0
C216 C 0.51572 0.98416 0.53282 0.0
C217 C 0.49105 0.99431 0.52026 0.0
C218 C 0.46089 0.98181 0.55402 0.0
C219 C 0.45577 0.95934 0.59956 0.0
C220 C 0.54832 0.99695 0.49807 0.0
C221 C 0.43399 0.99201 0.54178 0.0
H222 H 0.54426 0.1028 0.43505 0.0
H223 H 0.49127 0.01431 0.3264 0.0
H224 H 0.50632 0.05881 0.56596 0.0
H225 H 0.54817 0.06417 0.55258 0.0
H226 H 0.5396 0.09836 0.53464 0.0
H227 H 0.45589 0.95839 0.36241 0.0
H228 H 0.48139 0.95294 0.41636 0.0
H229 H 0.4429 0.95339 0.4359 0.0
H230 H 0.52892 0.95399 0.58738 0.0
H231 H 0.43266 0.94971 0.6253 0.0
H232 H 0.56329 0.02556 0.49865 0.0
H233 H 0.54158 0.98883 0.45321 0.0
H234 H 0.56517 0.98704 0.51398 0.0
H235 H 0.44596 0.0205 0.54299 0.0
H236 H 0.41228 0.98058 0.5726 0.0
H237 H 0.42341 0.98354 0.49844 0.0
C238 C 0.52282 0.45492 0.75909 0.0
C239 C 0.53363 0.47729 0.80588 0.0
C240 C 0.51088 0.46295 0.70925 0.0
C241 C 0.50986 0.49408 0.70627 0.0
C242 C 0.51944 0.516 0.7542 0.0
C243 C 0.53113 0.50732 0.80331 0.0
C244 C 0.50063 0.43884 0.65911 0.0
C245 C 0.51879 0.54945 0.75289 0.0
C246 C 0.52256 0.54187 0.56772 0.0
C247 C 0.48926 0.53636 0.5569 0.0
C248 C 0.52919 0.52681 0.61468 0.0
C249 C 0.50186 0.50563 0.65191 0.0
C250 C 0.46785 0.49861 0.63985 0.0
C251 C 0.46193 0.5141 0.59242 0.0
C252 C 0.56585 0.53496 0.6259 0.0
C253 C 0.43801 0.47601 0.67839 0.0
H254 H 0.52453 0.4316 0.7608 0.0
H255 H 0.53912 0.52466 0.83936 0.0
H256 H 0.47518 0.43341 0.64225 0.0
H257 H 0.51982 0.45125 0.62456 0.0
H258 H 0.4992 0.41401 0.67018 0.0
H259 H 0.52486 0.56246 0.79488 0.0
H260 H 0.53798 0.56729 0.72161 0.0
H261 H 0.493 0.54472 0.73913 0.0
H262 H 0.5438 0.55874 0.54021 0.0
H263 H 0.43609 0.50957 0.5842 0.0
H264 H 0.56669 0.51084 0.6327 0.0
H265 H 0.5756 0.55057 0.6652 0.0
H266 H 0.5836 0.54955 0.59049 0.0
H267 H 0.43784 0.45161 0.68776 0.0
H268 H 0.41269 0.46972 0.65964 0.0
H269 H 0.44104 0.48941 0.71939 0.0
C270 C 0.20335 0.52111 0.25395 0.0
C271 C 0.20836 0.53911 0.2028 0.0
C272 C 0.23068 0.51933 0.2803 0.0
C273 C 0.26392 0.53616 0.25515 0.0
C274 C 0.26887 0.55339 0.20258 0.0
C275 C 0.24103 0.55454 0.17695 0.0
C276 C 0.22424 0.50037 0.33599 0.0
C277 C 0.30393 0.57176 0.17444 0.0
C278 C 0.34284 0.5669 0.35006 0.0
C279 C 0.35314 0.54253 0.33879 0.0
C280 C 0.31366 0.56484 0.32363 0.0
C281 C 0.29399 0.53756 0.28532 0.0
C282 C 0.30368 0.51235 0.27486 0.0
C283 C 0.33322 0.51522 0.3015 0.0
C284 C 0.30433 0.59236 0.33575 0.0
C285 C 0.28316 0.48266 0.23482 0.0
H286 H 0.17818 0.50896 0.27415 0.0
H287 H 0.2452 0.56851 0.13746 0.0
H288 H 0.2336 0.48161 0.33384 0.0
H289 H 0.23892 0.51898 0.37029 0.0
H290 H 0.19642 0.48636 0.34767 0.0
H291 H 0.3031 0.58239 0.13222 0.0
H292 H 0.3224 0.59329 0.20182 0.0
H293 H 0.31418 0.55388 0.16909 0.0
H294 H 0.35805 0.58813 0.37869 0.0
H295 H 0.34087 0.49619 0.29266 0.0
H296 H 0.27742 0.58039 0.35179 0.0
H297 H 0.30554 0.60622 0.29598 0.0
H298 H 0.32185 0.61149 0.36746 0.0
H299 H 0.2556 0.46844 0.24784 0.0
H300 H 0.29306 0.46429 0.23338 0.0
H301 H 0.28413 0.49265 0.19135 0.0
C302 C 0.70574 0.22783 0.35063 0.0
C303 C 0.68078 0.19871 0.38001 0.0
C304 C 0.73422 0.25451 0.37906 0.0
C305 C 0.73792 0.252 0.43831 0.0
C306 C 0.71374 0.22194 0.46769 0.0
C307 C 0.68548 0.19569 0.43823 0.0
C308 C 0.75948 0.2861 0.34614 0.0
C309 C 0.71684 0.21816 0.53077 0.0
C310 C 0.82431 0.31485 0.50652 0.0
C311 C 0.81767 0.34035 0.52754 0.0
C312 C 0.79849 0.28565 0.47811 0.0
C313 C 0.76535 0.28198 0.4702 0.0
C314 C 0.75838 0.30737 0.49204 0.0
C315 C 0.78453 0.33611 0.52055 0.0
C316 C 0.8068 0.25896 0.45588 0.0
C317 C 0.72342 0.30451 0.48443 0.0
H318 H 0.70244 0.23039 0.30565 0.0
H319 H 0.66647 0.17323 0.46133 0.0
H320 H 0.75749 0.30869 0.36041 0.0
H321 H 0.78637 0.29203 0.35437 0.0
H322 H 0.75462 0.28289 0.2997 0.0
H323 H 0.69789 0.19195 0.5463 0.0
H324 H 0.74328 0.22355 0.5416 0.0
H325 H 0.71244 0.23726 0.5538 0.0
H326 H 0.84979 0.31784 0.51177 0.0
H327 H 0.77908 0.35563 0.5365 0.0
H328 H 0.80426 0.2574 0.40899 0.0
H329 H 0.7881 0.23314 0.47297 0.0
H330 H 0.83338 0.26494 0.46732 0.0
H331 H 0.71762 0.3041 0.43855 0.0
H332 H 0.72203 0.32622 0.50463 0.0
H333 H 0.70296 0.27996 0.50298 0.0
C334 C 0.45913 0.78897 0.6654 0.0
C335 C 0.48908 0.81519 0.69133 0.0
C336 C 0.4594 0.76164 0.63679 0.0
C337 C 0.49039 0.7603 0.6339 0.0
C338 C 0.52087 0.78682 0.65936 0.0
C339 C 0.51986 0.81399 0.68781 0.0
C340 C 0.42629 0.73387 0.6103 0.0
C341 C 0.55438 0.78625 0.65716 0.0
C342 C 0.47599 0.67016 0.61051 0.0
C343 C 0.48 0.66958 0.55152 0.0
C344 C 0.48093 0.70005 0.6382 0.0
C345 C 0.49011 0.73021 0.6062 0.0
C346 C 0.49581 0.73032 0.54703 0.0
C347 C 0.4907 0.69999 0.52036 0.0
C348 C 0.47469 0.69882 0.70137 0.0
C349 C 0.50574 0.762 0.51148 0.0
H350 H 0.43521 0.78964 0.66763 0.0
H351 H 0.54316 0.83414 0.70755 0.0
H352 H 0.43032 0.73138 0.56449 0.0
H353 H 0.41859 0.70863 0.63048 0.0
H354 H 0.40465 0.73925 0.61485 0.0
H355 H 0.57612 0.80951 0.67697 0.0
H356 H 0.55131 0.76304 0.67949 0.0
H357 H 0.56122 0.78455 0.61248 0.0
H358 H 0.46802 0.64691 0.63511 0.0
H359 H 0.494 0.69983 0.47482 0.0
H360 H 0.45142 0.70108 0.70966 0.0
H361 H 0.49684 0.72087 0.72273 0.0
H362 H 0.4707 0.67447 0.72085 0.0
H363 H 0.48379 0.76702 0.50978 0.0
H364 H 0.51271 0.7591 0.46739 0.0
H365 H 0.52793 0.78497 0.53092 0.0
C366 C 0.70023 0.51531 0.81092 0.0
C367 C 0.68167 0.48859 0.8499 0.0
C368 C 0.72967 0.51861 0.78331 0.0
C369 C 0.74056 0.49437 0.79444 0.0
C370 C 0.72255 0.46799 0.83502 0.0
C371 C 0.6935 0.46555 0.86247 0.0
C372 C 0.7485 0.54741 0.74102 0.0
C373 C 0.73318 0.4415 0.84794 0.0
C374 C 0.78942 0.47438 0.68269 0.0
C375 C 0.82297 0.49041 0.70535 0.0
C376 C 0.76262 0.47641 0.71036 0.0
C377 C 0.76956 0.49523 0.76166 0.0
C378 C 0.80371 0.51286 0.78329 0.0
C379 C 0.82997 0.51009 0.75506 0.0
C380 C 0.72653 0.45709 0.68598 0.0
C381 C 0.81227 0.53362 0.83737 0.0
H382 H 0.69141 0.53334 0.80113 0.0
H383 H 0.67937 0.4448 0.89246 0.0
H384 H 0.77657 0.56181 0.75073 0.0
H385 H 0.74553 0.53647 0.6978 0.0
H386 H 0.73861 0.56582 0.74073 0.0
H387 H 0.71731 0.42344 0.88217 0.0
H388 H 0.73054 0.42628 0.80918 0.0
H389 H 0.76074 0.45446 0.86088 0.0
H390 H 0.78371 0.45911 0.64435 0.0
H391 H 0.85584 0.52275 0.77274 0.0
H392 H 0.71592 0.47469 0.68078 0.0
H393 H 0.70927 0.43637 0.71573 0.0
H394 H 0.72577 0.44522 0.64421 0.0
H395 H 0.80221 0.55183 0.83551 0.0
H396 H 0.84055 0.5485 0.84555 0.0
H397 H 0.79956 0.51608 0.87382 0.0
C398 C 0.33443 0.80301 0.85819 0.0
C399 C 0.36659 0.8061 0.87086 0.0
C400 C 0.30385 0.77696 0.88329 0.0
C401 C 0.30551 0.7533 0.9214 0.0
C402 C 0.33802 0.75697 0.93549 0.0
C403 C 0.36807 0.78335 0.91032 0.0
C404 C 0.26971 0.77411 0.86778 0.0
C405 C 0.341 0.73218 0.97555 0.0
C406 C 0.23259 0.69377 0.02053 0.0
C407 C 0.21868 0.66227 0.99141 0.0
C408 C 0.25973 0.72419 0.99697 0.0
C409 C 0.27338 0.72296 0.9433 0.0
C410 C 0.25837 0.69155 0.91273 0.0
C411 C 0.23119 0.6617 0.93702 0.0
C412 C 0.27478 0.75728 0.03057 0.0
C413 C 0.27218 0.68901 0.8555 0.0
H414 H 0.33305 0.82059 0.82802 0.0
H415 H 0.39276 0.78552 0.92061 0.0
H416 H 0.25398 0.75021 0.84291 0.0
H417 H 0.25485 0.77225 0.90665 0.0
H418 H 0.27307 0.79647 0.84222 0.0
H419 H 0.36831 0.7396 0.98426 0.0
H420 H 0.32812 0.73094 1.01643 0.0
H421 H 0.32767 0.70585 0.95706 0.0
H422 H 0.22295 0.69453 0.0624 0.0
H423 H 0.22049 0.63759 0.91389 0.0
H424 H 0.27745 0.77874 1.0034 0.0
H425 H 0.30104 0.76426 0.04561 0.0
H426 H 0.25867 0.755 0.06803 0.0
H427 H 0.27353 0.70917 0.82645 0.0
H428 H 0.25601 0.66338 0.83536 0.0
H429 H 0.29884 0.69349 0.86041 0.0
C430 C 0.55055 0.35104 0.11129 0.0
C431 C 0.55079 0.35349 0.05188 0.0
C432 C 0.54743 0.32166 0.13831 0.0
C433 C 0.54434 0.29387 0.1052 0.0
C434 C 0.54295 0.29545 0.04526 0.0
C435 C 0.54623 0.32528 1.01927 0.0
C436 C 0.54903 0.32106 0.2023 0.0
C437 C 0.53947 0.26625 1.00851 0.0
C438 C 0.57938 0.24007 0.17141 0.0
C439 C 0.54919 0.21095 0.19081 0.0
C440 C 0.57802 0.2669 0.1429 0.0
C441 C 0.54564 0.26466 0.13329 0.0
C442 C 0.51499 0.23526 0.15229 0.0
C443 C 0.51712 0.20875 0.18094 0.0
C444 C 0.61135 0.29787 0.12357 0.0
C445 C 0.48001 0.23194 0.14272 0.0
H446 H 0.55383 0.37257 0.13697 0.0
H447 H 0.54625 0.32685 0.97337 0.0
H448 H 0.52692 0.297 0.21918 0.0
H449 H 0.57305 0.32137 0.2156 0.0
H450 H 0.54874 0.34347 0.22199 0.0
H451 H 0.53538 0.26995 0.96312 0.0
H452 H 0.56324 0.26433 1.01205 0.0
H453 H 0.51754 0.24135 0.0232 0.0
H454 H 0.6043 0.24206 0.17869 0.0
H455 H 0.49364 0.18632 0.19553 0.0
H456 H 0.61459 0.3215 0.1446 0.0
H457 H 0.61052 0.30154 0.07716 0.0
H458 H 0.63434 0.29532 0.13329 0.0
H459 H 0.47872 0.2532 0.16469 0.0
H460 H 0.45856 0.20696 0.15841 0.0
H461 H 0.47602 0.23427 0.09681 0.0
loop_
_geom_bond_atom_site_label_1
_geom_bond_atom_site_label_2
_geom_bond_distance
_geom_bond_site_symmetry_2
_ccdc_geom_bond_type
Mg0 O7 2.141 . S
Mg0 O8 2.048 . S
Mg0 O9 2.048 . S
Mg0 O12 2.141 . S
C1 O2 1.313 . S
C1 O8 1.195 . S
O2 C1 1.313 . S
C3 O4 1.245 . S
C3 O12 1.289 . S
O4 C3 1.245 . S
C5 O6 1.245 . S
C5 O7 1.289 . S
O6 C5 1.245 . S
O7 Mg0 2.141 . S
O7 C5 1.289 . S
O8 Mg0 2.048 . S
O8 C1 1.195 . S
O9 Mg0 2.048 . S
O9 C10 1.195 . S
C10 O9 1.195 . S
C10 O11 1.313 . S
O11 C10 1.313 . S
O12 Mg0 2.141 . S
O12 C3 1.289 . S
Mg13 O20 2.141 . S
Mg13 O21 2.048 . S
Mg13 O22 2.048 . S
Mg13 O25 2.141 . S
C14 O15 1.313 . S
C14 O21 1.195 . S
O15 C14 1.313 . S
C16 O17 1.245 . S
C16 O25 1.289 . S
O17 C16 1.245 . S
C18 O19 1.245 . S
C18 O20 1.289 . S
O19 C18 1.245 . S
O20 Mg13 2.141 . S
O20 C18 1.289 . S
O21 Mg13 2.048 . S
O21 C14 1.195 . S
O22 Mg13 2.048 . S
O22 C23 1.195 . S
C23 O22 1.195 . S
C23 O24 1.313 . S
O24 C23 1.313 . S
O25 Mg13 2.141 . S
O25 C16 1.289 . S
Mg26 O33 2.141 . S
Mg26 O34 2.048 . S
Mg26 O35 2.048 . S
Mg26 O38 2.141 . S
C27 O28 1.313 . S
C27 O34 1.195 . S
O28 C27 1.313 . S
C29 O30 1.245 . S
C29 O38 1.289 . S
O30 C29 1.245 . S
C31 O32 1.245 . S
C31 O33 1.289 . S
O32 C31 1.245 . S
O33 Mg26 2.141 . S
O33 C31 1.289 . S
O34 Mg26 2.048 . S
O34 C27 1.195 . S
O35 Mg26 2.048 . S
O35 C36 1.195 . S
C36 O35 1.195 . S
C36 O37 1.313 . S
O37 C36 1.313 . S
O38 Mg26 2.141 . S
O38 C29 1.289 . S
Mg39 O46 2.141 . S
Mg39 O47 2.048 . S
Mg39 O48 2.048 . S
Mg39 O51 2.141 . S
C40 O41 1.313 . S
C40 O47 1.195 . S
O41 C40 1.313 . S
C42 O43 1.245 . S
C42 O51 1.289 . S
O43 C42 1.245 . S
C44 O45 1.245 . S
C44 O46 1.289 . S
O45 C44 1.245 . S
O46 Mg39 2.141 . S
O46 C44 1.289 . S
O47 Mg39 2.048 . S
O47 C40 1.195 . S
O48 Mg39 2.048 . S
O48 C49 1.195 . S
C49 O48 1.195 . S
C49 O50 1.313 . S
O50 C49 1.313 . S
O51 Mg39 2.141 . S
O51 C42 1.289 . S
Mg52 O59 2.141 . S
Mg52 O60 2.048 . S
Mg52 O61 2.048 . S
Mg52 O64 2.141 . S
C53 O54 1.313 . S
C53 O60 1.195 . S
O54 C53 1.313 . S
C55 O56 1.245 . S
C55 O64 1.289 . S
O56 C55 1.245 . S
C57 O58 1.245 . S
C57 O59 1.289 . S
O58 C57 1.245 . S
O59 Mg52 2.141 . S
O59 C57 1.289 . S
O60 Mg52 2.048 . S
O60 C53 1.195 . S
O61 Mg52 2.048 . S
O61 C62 1.195 . S
C62 O61 1.195 . S
C62 O63 1.313 . S
O63 C62 1.313 . S
O64 Mg52 2.141 . S
O64 C55 1.289 . S
Mg65 O72 2.141 . S
Mg65 O73 2.048 . S
Mg65 O74 2.048 . S
Mg65 O77 2.141 . S
C66 O67 1.313 . S
C66 O73 1.195 . S
O67 C66 1.313 . S
C68 O69 1.245 1_556 S
C68 O77 1.292 . S
O69 C68 1.245 1_554 S
C70 O71 1.245 1_556 S
C70 O72 1.289 . S
O71 C70 1.245 1_554 S
O72 Mg65 2.141 . S
O72 C70 1.289 . S
O73 Mg65 2.048 . S
O73 C66 1.195 . S
O74 Mg65 2.048 . S
O74 C75 1.195 . S
C75 O74 1.195 . S
C75 O76 1.313 . S
O76 C75 1.313 . S
O77 Mg65 2.141 . S
O77 C68 1.292 . S
C78 C79 1.391 . S
C78 C80 1.394 . S
C78 H94 0.931 . S
C79 C78 1.391 . S
C79 C83 1.376 . S
C80 C78 1.394 . S
C80 C81 1.369 . S
C80 C84 1.531 . S
C81 C80 1.369 . S
C81 C82 1.410 . S
C81 C89 1.503 1_455 S
C82 C81 1.410 . S
C82 C83 1.392 . S
C82 C85 1.511 . S
C83 C79 1.376 . S
C83 C82 1.392 . S
C83 H95 0.929 . S
C84 C80 1.531 . S
C84 H96 0.960 . S
C84 H97 0.962 1_455 S
C84 H98 0.960 . S
C85 C82 1.511 . S
C85 H99 0.961 . S
C85 H100 0.961 . S
C85 H101 0.961 . S
C86 C87 1.370 . S
C86 C88 1.363 . S
C86 H102 0.931 . S
C87 C86 1.370 . S
C87 C91 1.408 . S
C88 C86 1.363 . S
C88 C89 1.370 . S
C88 C92 1.524 . S
C89 C81 1.503 1_655 S
C89 C88 1.370 . S
C89 C90 1.403 1_655 S
C90 C89 1.403 1_455 S
C90 C91 1.404 1_455 S
C90 C93 1.539 . S
C91 C87 1.408 . S
C91 C90 1.404 1_655 S
C91 H103 0.930 . S
C92 C88 1.524 . S
C92 H104 0.956 . S
C92 H105 0.961 . S
C92 H106 0.961 . S
C93 C90 1.539 . S
C93 H107 0.958 . S
C93 H108 0.961 . S
C93 H109 0.960 . S
H94 C78 0.931 . S
H95 C83 0.929 . S
H96 C84 0.960 . S
H97 C84 0.962 1_655 S
H98 C84 0.960 . S
H99 C85 0.961 . S
H100 C85 0.961 . S
H101 C85 0.961 . S
H102 C86 0.931 . S
H103 C91 0.930 . S
H104 C92 0.956 . S
H105 C92 0.961 . S
H106 C92 0.961 . S
H107 C93 0.958 . S
H108 C93 0.961 . S
H109 C93 0.960 . S
C110 C111 1.391 . S
C110 C112 1.394 . S
C110 H126 0.931 . S
C111 C110 1.391 . S
C111 C115 1.376 . S
C112 C110 1.394 . S
C112 C113 1.369 . S
C112 C116 1.531 1_556 S
C113 C112 1.369 . S
C113 C114 1.410 . S
C113 C121 1.503 1_566 S
C114 C113 1.410 . S
C114 C115 1.392 . S
C114 C117 1.511 1_565 S
C115 C111 1.376 . S
C115 C114 1.392 . S
C115 H127 0.929 . S
C116 C112 1.531 1_554 S
C116 H128 0.960 . S
C116 H129 0.962 . S
C116 H130 0.960 . S
C117 C114 1.511 1_545 S
C117 H131 0.961 . S
C117 H132 0.961 . S
C117 H133 0.961 . S
C118 C119 1.370 . S
C118 C120 1.363 . S
C118 H134 0.931 . S
C119 C118 1.370 . S
C119 C123 1.408 . S
C120 C118 1.363 . S
C120 C121 1.370 . S
C120 C124 1.524 1_554 S
C121 C113 1.503 1_544 S
C121 C120 1.370 . S
C121 C122 1.403 . S
C122 C121 1.403 . S
C122 C123 1.404 . S
C122 C125 1.539 1_545 S
C123 C119 1.408 . S
C123 C122 1.404 . S
C123 H135 0.930 . S
C124 C120 1.524 1_556 S
C124 H136 0.956 . S
C124 H137 0.961 . S
C124 H138 0.961 . S
C125 C122 1.539 1_565 S
C125 H139 0.958 . S
C125 H140 0.961 . S
C125 H141 0.960 . S
H126 C110 0.931 . S
H127 C115 0.929 . S
H128 C116 0.960 . S
H129 C116 0.962 . S
H130 C116 0.960 . S
H131 C117 0.961 . S
H132 C117 0.961 . S
H133 C117 0.961 . S
H134 C118 0.931 . S
H135 C123 0.930 . S
H136 C124 0.956 . S
H137 C124 0.961 . S
H138 C124 0.961 . S
H139 C125 0.958 . S
H140 C125 0.961 . S
H141 C125 0.960 . S
C142 C143 1.391 . S
C142 C144 1.394 . S
C142 H158 0.931 . S
C143 C142 1.391 . S
C143 C147 1.376 . S
C144 C142 1.394 . S
C144 C145 1.369 . S
C144 C148 1.531 . S
C145 C144 1.369 . S
C145 C146 1.410 . S
C145 C153 1.503 . S
C146 C145 1.410 . S
C146 C147 1.392 . S
C146 C149 1.511 . S
C147 C143 1.376 . S
C147 C146 1.392 . S
C147 H159 0.929 . S
C148 C144 1.531 . S
C148 H160 0.960 . S
C148 H161 0.962 . S
C148 H162 0.960 . S
C149 C146 1.511 . S
C149 H163 0.961 . S
C149 H164 0.961 . S
C149 H165 0.961 . S
C150 C151 1.370 . S
C150 C152 1.363 . S
C150 H166 0.931 . S
C151 C150 1.370 . S
C151 C155 1.408 . S
C152 C150 1.363 . S
C152 C153 1.370 . S
C152 C156 1.524 . S
C153 C145 1.503 . S
C153 C152 1.370 . S
C153 C154 1.403 . S
C154 C153 1.403 . S
C154 C155 1.404 . S
C154 C157 1.539 . S
C155 C151 1.408 . S
C155 C154 1.404 . S
C155 H167 0.930 . S
C156 C152 1.524 . S
C156 H168 0.956 . S
C156 H169 0.961 . S
C156 H170 0.961 . S
C157 C154 1.539 . S
C157 H171 0.958 . S
C157 H172 0.961 . S
C157 H173 0.960 . S
H158 C142 0.931 . S
H159 C147 0.929 . S
H160 C148 0.960 . S
H161 C148 0.962 . S
H162 C148 0.960 . S
H163 C149 0.961 . S
H164 C149 0.961 . S
H165 C149 0.961 . S
H166 C150 0.931 . S
H167 C155 0.930 . S
H168 C156 0.956 . S
H169 C156 0.961 . S
H170 C156 0.961 . S
H171 C157 0.958 . S
H172 C157 0.961 . S
H173 C157 0.960 . S
C174 C175 1.391 . S
C174 C176 1.394 . S
C174 H190 0.931 . S
C175 C174 1.391 . S
C175 C179 1.376 . S
C176 C174 1.394 . S
C176 C177 1.369 . S
C176 C180 1.531 1_655 S
C177 C176 1.369 . S
C177 C178 1.410 . S
C177 C185 1.503 1_655 S
C178 C177 1.410 . S
C178 C179 1.392 . S
C178 C181 1.511 . S
C179 C175 1.376 . S
C179 C178 1.392 . S
C179 H191 0.929 . S
C180 C176 1.531 1_455 S
C180 H192 0.960 . S
C180 H193 0.962 1_455 S
C180 H194 0.960 . S
C181 C178 1.511 . S
C181 H195 0.961 . S
C181 H196 0.961 . S
C181 H197 0.961 . S
C182 C183 1.370 . S
C182 C184 1.361 . S
C182 H198 0.931 . S
C183 C182 1.370 . S
C183 C187 1.408 . S
C184 C182 1.361 . S
C184 C185 1.369 . S
C184 C188 1.528 1_455 S
C185 C177 1.503 1_455 S
C185 C184 1.369 . S
C185 C186 1.403 . S
C186 C185 1.403 . S
C186 C187 1.404 . S
C186 C189 1.539 . S
C187 C183 1.408 . S
C187 C186 1.404 . S
C187 H199 0.930 . S
C188 C184 1.528 1_655 S
C188 H200 0.956 . S
C188 H201 0.961 . S
C188 H202 0.961 . S
C189 C186 1.539 . S
C189 H203 0.958 . S
C189 H204 0.961 . S
C189 H205 0.960 . S
H190 C174 0.931 . S
H191 C179 0.929 . S
H192 C180 0.960 . S
H193 C180 0.962 1_655 S
H194 C180 0.960 . S
H195 C181 0.961 . S
H196 C181 0.961 . S
H197 C181 0.961 . S
H198 C182 0.931 . S
H199 C187 0.930 . S
H200 C188 0.956 . S
H201 C188 0.961 . S
H202 C188 0.961 . S
H203 C189 0.958 . S
H204 C189 0.961 . S
H205 C189 0.960 . S
C206 C207 1.391 . S
C206 C208 1.394 . S
C206 H222 0.931 . S
C207 C206 1.391 . S
C207 C211 1.376 . S
C208 C206 1.394 . S
C208 C209 1.369 . S
C208 C212 1.531 . S
C209 C208 1.369 . S
C209 C210 1.410 . S
C209 C217 1.503 1_545 S
C210 C209 1.410 . S
C210 C211 1.392 . S
C210 C213 1.511 1_545 S
C211 C207 1.376 . S
C211 C210 1.392 . S
C211 H223 0.929 . S
C212 C208 1.531 . S
C212 H224 0.960 . S
C212 H225 0.962 . S
C212 H226 0.960 . S
C213 C210 1.511 1_565 S
C213 H227 0.961 . S
C213 H228 0.961 . S
C213 H229 0.961 . S
C214 C215 1.370 . S
C214 C216 1.363 . S
C214 H230 0.931 . S
C215 C214 1.370 . S
C215 C219 1.408 . S
C216 C214 1.363 . S
C216 C217 1.370 . S
C216 C220 1.524 . S
C217 C209 1.503 1_565 S
C217 C216 1.370 . S
C217 C218 1.403 . S
C218 C217 1.403 . S
C218 C219 1.404 . S
C218 C221 1.539 1_565 S
C219 C215 1.408 . S
C219 C218 1.404 . S
C219 H231 0.930 . S
C220 C216 1.524 . S
C220 H232 0.956 . S
C220 H233 0.961 . S
C220 H234 0.961 . S
C221 C218 1.539 1_545 S
C221 H235 0.958 . S
C221 H236 0.961 . S
C221 H237 0.960 . S
H222 C206 0.931 . S
H223 C211 0.929 . S
H224 C212 0.960 . S
H225 C212 0.962 . S
H226 C212 0.960 . S
H227 C213 0.961 . S
H228 C213 0.961 . S
H229 C213 0.961 . S
H230 C214 0.931 . S
H231 C219 0.930 . S
H232 C220 0.956 . S
H233 C220 0.961 . S
H234 C220 0.961 . S
H235 C221 0.958 . S
H236 C221 0.961 . S
H237 C221 0.960 . S
C238 C239 1.391 . S
C238 C240 1.394 . S
C238 H254 0.931 . S
C239 C238 1.391 . S
C239 C243 1.376 . S
C240 C238 1.394 . S
C240 C241 1.369 . S
C240 C244 1.531 . S
C241 C240 1.369 . S
C241 C242 1.410 . S
C241 C249 1.503 . S
C242 C241 1.410 . S
C242 C243 1.392 . S
C242 C245 1.511 . S
C243 C239 1.376 . S
C243 C242 1.392 . S
C243 H255 0.929 . S
C244 C240 1.531 . S
C244 H256 0.960 . S
C244 H257 0.962 . S
C244 H258 0.960 . S
C245 C242 1.511 . S
C245 H259 0.961 . S
C245 H260 0.961 . S
C245 H261 0.961 . S
C246 C247 1.370 . S
C246 C248 1.363 . S
C246 H262 0.931 . S
C247 C246 1.370 . S
C247 C251 1.408 . S
C248 C246 1.363 . S
C248 C249 1.370 . S
C248 C252 1.524 . S
C249 C241 1.503 . S
C249 C248 1.370 . S
C249 C250 1.403 . S
C250 C249 1.403 . S
C250 C251 1.404 . S
C250 C253 1.539 . S
C251 C247 1.408 . S
C251 C250 1.404 . S
C251 H263 0.930 . S
C252 C248 1.524 . S
C252 H264 0.956 . S
C252 H265 0.961 . S
C252 H266 0.961 . S
C253 C250 1.539 . S
C253 H267 0.958 . S
C253 H268 0.961 . S
C253 H269 0.960 . S
H254 C238 0.931 . S
H255 C243 0.929 . S
H256 C244 0.960 . S
H257 C244 0.962 . S
H258 C244 0.960 . S
H259 C245 0.961 . S
H260 C245 0.961 . S
H261 C245 0.961 . S
H262 C246 0.931 . S
H263 C251 0.930 . S
H264 C252 0.956 . S
H265 C252 0.961 . S
H266 C252 0.961 . S
H267 C253 0.958 . S
H268 C253 0.961 . S
H269 C253 0.960 . S
C270 C271 1.391 . S
C270 C272 1.394 . S
C270 H286 0.931 . S
C271 C270 1.391 . S
C271 C275 1.376 . S
C272 C270 1.394 . S
C272 C273 1.369 . S
C272 C276 1.531 . S
C273 C272 1.369 . S
C273 C274 1.410 . S
C273 C281 1.503 . S
C274 C273 1.410 . S
C274 C275 1.392 . S
C274 C277 1.511 . S
C275 C271 1.376 . S
C275 C274 1.392 . S
C275 H287 0.929 . S
C276 C272 1.531 . S
C276 H288 0.960 . S
C276 H289 0.962 . S
C276 H290 0.960 . S
C277 C274 1.511 . S
C277 H291 0.961 . S
C277 H292 0.961 . S
C277 H293 0.961 . S
C278 C279 1.370 . S
C278 C280 1.363 . S
C278 H294 0.931 . S
C279 C278 1.370 . S
C279 C283 1.408 . S
C280 C278 1.363 . S
C280 C281 1.370 . S
C280 C284 1.524 . S
C281 C273 1.503 . S
C281 C280 1.370 . S
C281 C282 1.403 . S
C282 C281 1.403 . S
C282 C283 1.404 . S
C282 C285 1.539 . S
C283 C279 1.408 . S
C283 C282 1.404 . S
C283 H295 0.930 . S
C284 C280 1.524 . S
C284 H296 0.956 . S
C284 H297 0.961 . S
C284 H298 0.961 . S
C285 C282 1.539 . S
C285 H299 0.958 . S
C285 H300 0.961 . S
C285 H301 0.960 . S
H286 C270 0.931 . S
H287 C275 0.929 . S
H288 C276 0.960 . S
H289 C276 0.962 . S
H290 C276 0.960 . S
H291 C277 0.961 . S
H292 C277 0.961 . S
H293 C277 0.961 . S
H294 C278 0.931 . S
H295 C283 0.930 . S
H296 C284 0.956 . S
H297 C284 0.961 . S
H298 C284 0.961 . S
H299 C285 0.958 . S
H300 C285 0.961 . S
H301 C285 0.960 . S
C302 C303 1.391 . S
C302 C304 1.394 . S
C302 H318 0.931 . S
C303 C302 1.391 . S
C303 C307 1.376 . S
C304 C302 1.394 . S
C304 C305 1.369 . S
C304 C308 1.531 . S
C305 C304 1.369 . S
C305 C306 1.410 . S
C305 C313 1.503 . S
C306 C305 1.410 . S
C306 C307 1.392 . S
C306 C309 1.511 . S
C307 C303 1.376 . S
C307 C306 1.392 . S
C307 H319 0.929 . S
C308 C304 1.531 . S
C308 H320 0.960 . S
C308 H321 0.962 . S
C308 H322 0.960 . S
C309 C306 1.511 . S
C309 H323 0.961 . S
C309 H324 0.961 . S
C309 H325 0.961 . S
C310 C311 1.370 . S
C310 C312 1.363 . S
C310 H326 0.931 . S
C311 C310 1.370 . S
C311 C315 1.408 . S
C312 C310 1.363 . S
C312 C313 1.370 . S
C312 C316 1.524 . S
C313 C305 1.503 . S
C313 C312 1.370 . S
C313 C314 1.403 . S
C314 C313 1.403 . S
C314 C315 1.404 . S
C314 C317 1.539 . S
C315 C311 1.408 . S
C315 C314 1.404 . S
C315 H327 0.930 . S
C316 C312 1.524 . S
C316 H328 0.956 . S
C316 H329 0.961 . S
C316 H330 0.961 . S
C317 C314 1.539 . S
C317 H331 0.958 . S
C317 H332 0.961 . S
C317 H333 0.960 . S
H318 C302 0.931 . S
H319 C307 0.929 . S
H320 C308 0.960 . S
H321 C308 0.962 . S
H322 C308 0.960 . S
H323 C309 0.961 . S
H324 C309 0.961 . S
H325 C309 0.961 . S
H326 C310 0.931 . S
H327 C315 0.930 . S
H328 C316 0.956 . S
H329 C316 0.961 . S
H330 C316 0.961 . S
H331 C317 0.958 . S
H332 C317 0.961 . S
H333 C317 0.960 . S
C334 C335 1.391 . S
C334 C336 1.394 . S
C334 H350 0.931 . S
C335 C334 1.391 . S
C335 C339 1.376 . S
C336 C334 1.394 . S
C336 C337 1.369 . S
C336 C340 1.531 . S
C337 C336 1.369 . S
C337 C338 1.410 . S
C337 C345 1.503 . S
C338 C337 1.410 . S
C338 C339 1.392 . S
C338 C341 1.511 . S
C339 C335 1.376 . S
C339 C338 1.392 . S
C339 H351 0.929 . S
C340 C336 1.531 . S
C340 H352 0.960 . S
C340 H353 0.962 . S
C340 H354 0.960 . S
C341 C338 1.511 . S
C341 H355 0.961 . S
C341 H356 0.961 . S
C341 H357 0.961 . S
C342 C343 1.370 . S
C342 C344 1.363 . S
C342 H358 0.931 . S
C343 C342 1.370 . S
C343 C347 1.408 . S
C344 C342 1.363 . S
C344 C345 1.370 . S
C344 C348 1.524 . S
C345 C337 1.503 . S
C345 C344 1.370 . S
C345 C346 1.403 . S
C346 C345 1.403 . S
C346 C347 1.404 . S
C346 C349 1.539 . S
C347 C343 1.408 . S
C347 C346 1.404 . S
C347 H359 0.930 . S
C348 C344 1.524 . S
C348 H360 0.956 . S
C348 H361 0.961 . S
C348 H362 0.961 . S
C349 C346 1.539 . S
C349 H363 0.958 . S
C349 H364 0.961 . S
C349 H365 0.960 . S
H350 C334 0.931 . S
H351 C339 0.929 . S
H352 C340 0.960 . S
H353 C340 0.962 . S
H354 C340 0.960 . S
H355 C341 0.961 . S
H356 C341 0.961 . S
H357 C341 0.961 . S
H358 C342 0.931 . S
H359 C347 0.930 . S
H360 C348 0.956 . S
H361 C348 0.961 . S
H362 C348 0.961 . S
H363 C349 0.958 . S
H364 C349 0.961 . S
H365 C349 0.960 . S
C366 C367 1.391 . S
C366 C368 1.394 . S
C366 H382 0.931 . S
C367 C366 1.391 . S
C367 C371 1.376 . S
C368 C366 1.394 . S
C368 C369 1.369 . S
C368 C372 1.531 . S
C369 C368 1.369 . S
C369 C370 1.410 . S
C369 C377 1.503 . S
C370 C369 1.410 . S
C370 C371 1.392 . S
C370 C373 1.511 . S
C371 C367 1.376 . S
C371 C370 1.392 . S
C371 H383 0.929 . S
C372 C368 1.531 . S
C372 H384 0.960 . S
C372 H385 0.962 . S
C372 H386 0.960 . S
C373 C370 1.511 . S
C373 H387 0.961 . S
C373 H388 0.961 . S
C373 H389 0.961 . S
C374 C375 1.370 . S
C374 C376 1.363 . S
C374 H390 0.931 . S
C375 C374 1.370 . S
C375 C379 1.408 . S
C376 C374 1.363 . S
C376 C377 1.370 . S
C376 C380 1.524 . S
C377 C369 1.503 . S
C377 C376 1.370 . S
C377 C378 1.403 . S
C378 C377 1.403 . S
C378 C379 1.404 . S
C378 C381 1.539 . S
C379 C375 1.408 . S
C379 C378 1.404 . S
C379 H391 0.930 . S
C380 C376 1.524 . S
C380 H392 0.956 . S
C380 H393 0.961 . S
C380 H394 0.961 . S
C381 C378 1.539 . S
C381 H395 0.958 . S
C381 H396 0.961 . S
C381 H397 0.960 . S
H382 C366 0.931 . S
H383 C371 0.929 . S
H384 C372 0.960 . S
H385 C372 0.962 . S
H386 C372 0.960 . S
H387 C373 0.961 . S
H388 C373 0.961 . S
H389 C373 0.961 . S
H390 C374 0.931 . S
H391 C379 0.930 . S
H392 C380 0.956 . S
H393 C380 0.961 . S
H394 C380 0.961 . S
H395 C381 0.958 . S
H396 C381 0.961 . S
H397 C381 0.960 . S
C398 C399 1.391 . S
C398 C400 1.394 . S
C398 H414 0.931 . S
C399 C398 1.391 . S
C399 C403 1.376 . S
C400 C398 1.394 . S
C400 C401 1.369 . S
C400 C404 1.531 . S
C401 C400 1.369 . S
C401 C402 1.410 . S
C401 C409 1.503 . S
C402 C401 1.410 . S
C402 C403 1.392 . S
C402 C405 1.511 . S
C403 C399 1.376 . S
C403 C402 1.392 . S
C403 H415 0.929 . S
C404 C400 1.531 . S
C404 H416 0.960 . S
C404 H417 0.962 . S
C404 H418 0.960 . S
C405 C402 1.511 . S
C405 H419 0.961 . S
C405 H420 0.961 . S
C405 H421 0.961 . S
C406 C407 1.370 . S
C406 C408 1.363 . S
C406 H422 0.931 1_556 S
C407 C406 1.370 . S
C407 C411 1.408 . S
C408 C406 1.363 . S
C408 C409 1.370 . S
C408 C412 1.524 1_556 S
C409 C401 1.503 . S
C409 C408 1.370 . S
C409 C410 1.403 . S
C410 C409 1.403 . S
C410 C411 1.404 . S
C410 C413 1.539 . S
C411 C407 1.408 . S
C411 C410 1.404 . S
C411 H423 0.930 . S
C412 C408 1.524 1_554 S
C412 H424 0.956 . S
C412 H425 0.961 1_554 S
C412 H426 0.961 . S
C413 C410 1.539 . S
C413 H427 0.958 . S
C413 H428 0.961 . S
C413 H429 0.960 . S
H414 C398 0.931 . S
H415 C403 0.929 . S
H416 C404 0.960 . S
H417 C404 0.962 . S
H418 C404 0.960 . S
H419 C405 0.961 . S
H420 C405 0.961 . S
H421 C405 0.961 . S
H422 C406 0.931 1_554 S
H423 C411 0.930 . S
H424 C412 0.956 . S
H425 C412 0.961 1_556 S
H426 C412 0.961 . S
H427 C413 0.958 . S
H428 C413 0.961 . S
H429 C413 0.960 . S
C430 C431 1.391 . S
C430 C432 1.394 . S
C430 H446 0.931 . S
C431 C430 1.391 . S
C431 C435 1.376 1_554 S
C432 C430 1.394 . S
C432 C433 1.369 . S
C432 C436 1.531 . S
C433 C432 1.369 . S
C433 C434 1.410 . S
C433 C441 1.503 . S
C434 C433 1.410 . S
C434 C435 1.392 1_554 S
C434 C437 1.511 1_554 S
C435 C431 1.376 1_556 S
C435 C434 1.392 1_556 S
C435 H447 0.929 . S
C436 C432 1.531 . S
C436 H448 0.960 . S
C436 H449 0.962 . S
C436 H450 0.960 . S
C437 C434 1.511 1_556 S
C437 H451 0.961 . S
C437 H452 0.961 1_556 S
C437 H453 0.961 . S
C438 C439 1.370 . S
C438 C440 1.363 . S
C438 H454 0.931 . S
C439 C438 1.370 . S
C439 C443 1.408 . S
C440 C438 1.363 . S
C440 C441 1.370 . S
C440 C444 1.524 . S
C441 C433 1.503 . S
C441 C440 1.370 . S
C441 C442 1.403 . S
C442 C441 1.403 . S
C442 C443 1.404 . S
C442 C445 1.539 . S
C443 C439 1.408 . S
C443 C442 1.404 . S
C443 H455 0.930 . S
C444 C440 1.524 . S
C444 H456 0.956 . S
C444 H457 0.961 . S
C444 H458 0.961 . S
C445 C442 1.539 . S
C445 H459 0.958 . S
C445 H460 0.961 . S
C445 H461 0.960 . S
H446 C430 0.931 . S
H447 C435 0.929 . S
H448 C436 0.960 . S
H449 C436 0.962 . S
H450 C436 0.960 . S
H451 C437 0.961 . S
H452 C437 0.961 1_554 S
H453 C437 0.961 . S
H454 C438 0.931 . S
H455 C443 0.930 . S
H456 C444 0.956 . S
H457 C444 0.961 . S
H458 C444 0.961 . S
H459 C445 0.958 . S
H460 C445 0.961 . S
H461 C445 0.960 . S
C79 C10 1.893 1_556 S
C87 C42 1.851 . S
C111 C55 1.818 . S
C119 C23 1.908 . S
C143 C36 1.901 . S
C151 C68 1.833 1_554 S
C175 C49 1.909 . S
C183 C3 1.846 . S
C207 C16 1.817 . S
C215 C62 1.908 . S
C239 C75 1.910 . S
C247 C29 1.845 . S
C271 C5 1.595 . S
C279 C27 1.534 . S
C303 C18 1.588 . S
C311 C40 1.551 . S
C335 C53 1.556 . S
C343 C31 1.592 . S
C367 C66 1.514 . S
C375 C44 1.600 . S
C399 C57 1.583 . S
C407 C1 1.552 1_556 S
C431 C70 1.589 1_554 S
C439 C14 1.542 . S
