# Generated by pormake.
# Topology ecn, (8)-cn, num edge types: 1
# Building blocks:
#     Node 0, Type 0, BuildingBlock: AJUNOK_clean_sbu_0, # of connection points: 8
#     Node 1, Type 0, BuildingBlock: AJUNOK_clean_sbu_0, # of connection points: 8
#     Node 2, Type 0, BuildingBlock: AJUNOK_clean_sbu_0, # of connection points: 8
#     Node 3, Type 0, BuildingBlock: AJUNOK_clean_sbu_0, # of connection points: 8
#     Node 4, Type 0, BuildingBlock: AJUNOK_clean_sbu_0, # of connection points: 8
#     Node 5, Type 0, BuildingBlock: AJUNOK_clean_sbu_0, # of connection points: 8
#     Node 6, Type 0, BuildingBlock: AJUNOK_clean_sbu_0, # of connection points: 8
#     Node 7, Type 0, BuildingBlock: AJUNOK_clean_sbu_0, # of connection points: 8
#     Node 8, Type 0, BuildingBlock: AJUNOK_clean_sbu_0, # of connection points: 8
#     Edge 9, Type (0, 0), BuildingBlock: CIFDUS_clean_linker_0, # of connection points: 2
#     Edge 10, Type (0, 0), BuildingBlock: CIFDUS_clean_linker_0, # of connection points: 2
#     Edge 11, Type (0, 0), BuildingBlock: CIFDUS_clean_linker_0, # of connection points: 2
#     Edge 12, Type (0, 0), BuildingBlock: CIFDUS_clean_linker_0, # of connection points: 2
#     Edge 13, Type (0, 0), BuildingBlock: CIFDUS_clean_linker_0, # of connection points: 2
#     Edge 14, Type (0, 0), BuildingBlock: CIFDUS_clean_linker_0, # of connection points: 2
#     Edge 15, Type (0, 0), BuildingBlock: CIFDUS_clean_linker_0, # of connection points: 2
#     Edge 16, Type (0, 0), BuildingBlock: CIFDUS_clean_linker_0, # of connection points: 2
#     Edge 17, Type (0, 0), BuildingBlock: CIFDUS_clean_linker_0, # of connection points: 2
#     Edge 18, Type (0, 0), BuildingBlock: CIFDUS_clean_linker_0, # of connection points: 2
#     Edge 19, Type (0, 0), BuildingBlock: CIFDUS_clean_linker_0, # of connection points: 2
#     Edge 20, Type (0, 0), BuildingBlock: CIFDUS_clean_linker_0, # of connection points: 2
#     Edge 21, Type (0, 0), BuildingBlock: CIFDUS_clean_linker_0, # of connection points: 2
#     Edge 22, Type (0, 0), BuildingBlock: CIFDUS_clean_linker_0, # of connection points: 2
#     Edge 23, Type (0, 0), BuildingBlock: CIFDUS_clean_linker_0, # of connection points: 2
#     Edge 24, Type (0, 0), BuildingBlock: CIFDUS_clean_linker_0, # of connection points: 2
#     Edge 25, Type (0, 0), BuildingBlock: CIFDUS_clean_linker_0, # of connection points: 2
#     Edge 26, Type (0, 0), BuildingBlock: CIFDUS_clean_linker_0, # of connection points: 2
#     Edge 27, Type (0, 0), BuildingBlock: CIFDUS_clean_linker_0, # of connection points: 2
#     Edge 28, Type (0, 0), BuildingBlock: CIFDUS_clean_linker_0, # of connection points: 2
#     Edge 29, Type (0, 0), BuildingBlock: CIFDUS_clean_linker_0, # of connection points: 2
#     Edge 30, Type (0, 0), BuildingBlock: CIFDUS_clean_linker_0, # of connection points: 2
#     Edge 31, Type (0, 0), BuildingBlock: CIFDUS_clean_linker_0, # of connection points: 2
#     Edge 32, Type (0, 0), BuildingBlock: CIFDUS_clean_linker_0, # of connection points: 2
#     Edge 33, Type (0, 0), BuildingBlock: CIFDUS_clean_linker_0, # of connection points: 2
#     Edge 34, Type (0, 0), BuildingBlock: CIFDUS_clean_linker_0, # of connection points: 2
#     Edge 35, Type (0, 0), BuildingBlock: CIFDUS_clean_linker_0, # of connection points: 2
#     Edge 36, Type (0, 0), BuildingBlock: CIFDUS_clean_linker_0, # of connection points: 2
#     Edge 37, Type (0, 0), BuildingBlock: CIFDUS_clean_linker_0, # of connection points: 2
#     Edge 38, Type (0, 0), BuildingBlock: CIFDUS_clean_linker_0, # of connection points: 2
#     Edge 39, Type (0, 0), BuildingBlock: CIFDUS_clean_linker_0, # of connection points: 2
#     Edge 40, Type (0, 0), BuildingBlock: CIFDUS_clean_linker_0, # of connection points: 2
#     Edge 41, Type (0, 0), BuildingBlock: CIFDUS_clean_linker_0, # of connection points: 2
#     Edge 42, Type (0, 0), BuildingBlock: CIFDUS_clean_linker_0, # of connection points: 2
#     Edge 43, Type (0, 0), BuildingBlock: CIFDUS_clean_linker_0, # of connection points: 2
#     Edge 44, Type (0, 0), BuildingBlock: CIFDUS_clean_linker_0, # of connection points: 2
# Relax obj value: 0.188
# Max RMSD: 0.202
# Mean RMSD: 0.202
data_MOF--net-ecn--node1-AJUNOK_clean_sbu_0--edge1-CIFDUS_clean_linker_0
_symmetry_space_group_name_H-M    P1
_symmetry_Int_Tables_number       1
_symmetry_cell_setting            triclinic
loop_
_symmetry_equiv_pos_as_xyz
'x, y, z'
_cell_length_a     54.08312
_cell_length_b     54.223583
_cell_length_c     11.489859
_cell_angle_alpha  90.309953
_cell_angle_beta   89.801233
_cell_angle_gamma 120.03049
loop_
_atom_site_label
_atom_site_type_symbol
_atom_site_fract_x
_atom_site_fract_y
_atom_site_fract_z
_atom_type_partial_charge
Cd0 Cd 0.11828 0.18321 0.05497 0.0
Cd1 Cd 0.11219 0.25976 0.9037 0.0
C2 C 0.0536 0.14567 0.97014 0.0
N3 N 0.06847 0.15956 0.06713 0.0
C4 C 0.02496 0.14365 0.1734 0.0
C5 C 0.00916 0.1293 0.07399 0.0
C6 C 0.0239 0.13055 0.97143 0.0
C7 C 0.0548 0.15867 0.16807 0.0
H8 H 0.06468 0.14579 0.89182 0.0
H9 H 0.06694 0.16915 0.245 0.0
C10 C 0.10991 0.24183 0.1548 0.0
C11 C 0.17605 0.29113 -0.0003 0.0
C12 C 0.20576 0.30426 -0.00255 0.0
C13 C 0.21935 0.29925 0.90329 0.0
C14 C 0.20239 0.27946 0.81752 0.0
C15 C 0.17275 0.26709 0.82249 0.0
N16 N 0.16032 0.27353 0.91154 0.0
H17 H 0.16563 0.29628 0.0683 0.0
H18 H 0.15985 0.25366 0.75182 0.0
C19 C 0.04716 0.21091 0.96333 0.0
N20 N 0.06236 0.2358 0.9049 0.0
C21 C 0.02049 0.23946 0.8791 0.0
C22 C 0.00444 0.21459 0.9448 0.0
C23 C 0.01797 0.19973 0.98365 0.0
C24 C 0.04952 0.24972 0.86031 0.0
H25 H 0.05802 0.20065 -0.00051 0.0
H26 H 0.06212 0.26976 0.81607 0.0
C27 C 0.11251 0.19694 0.80359 0.0
C28 C 0.12448 0.13973 0.16324 0.0
N29 N 0.16661 0.21811 0.06371 0.0
C30 C 0.18342 0.21399 0.98721 0.0
C31 C 0.21307 0.22923 -0.00107 0.0
C32 C 0.2255 0.24879 0.09096 0.0
C33 C 0.20771 0.25446 0.16201 0.0
C34 C 0.17814 0.2387 0.14714 0.0
C35 C 0.12103 0.30783 0.77436 0.0
O36 O 0.11376 0.22613 0.08381 0.0
O37 O 0.10846 0.26279 0.11414 0.0
O38 O 0.11237 0.21489 0.87369 0.0
O39 O 0.11586 0.1772 0.84509 0.0
O40 O 0.11601 0.15403 0.22255 0.0
O41 O 0.13027 0.14616 0.05666 0.0
O42 O 0.11334 0.28419 0.72317 0.0
O43 O 0.12511 0.30887 0.88354 0.0
H44 H 0.17369 0.19743 0.92185 0.0
H45 H 0.16461 0.24211 0.20605 0.0
H46 H 0.01442 0.14311 0.25442 0.0
H47 H 0.01266 0.11912 0.89366 0.0
H48 H 0.21793 0.31974 0.06436 0.0
H49 H 0.212 0.27499 0.74351 0.0
H50 H 0.0113 0.25201 0.84908 0.0
H51 H 0.00642 0.18038 0.0337 0.0
H52 H 0.22582 0.22387 0.94274 0.0
H53 H 0.21645 0.26973 0.23271 0.0
Cd54 Cd 0.81473 0.93829 0.03872 0.0
Cd55 Cd 0.73633 0.84625 0.93492 0.0
C56 C 0.86279 0.93121 0.17638 0.0
N57 N 0.83684 0.91525 0.12519 0.0
C58 C 0.84208 0.87403 0.12983 0.0
C59 C 0.86982 0.89047 0.17472 0.0
C60 C 0.87965 0.91918 0.20254 0.0
C61 C 0.82599 0.88699 0.10486 0.0
H62 H 0.87144 0.95378 0.18944 0.0
H63 H 0.80566 0.87498 0.06216 0.0
C64 C 0.75606 0.87931 0.16313 0.0
C65 C 0.70872 0.88574 0.95484 0.0
C66 C 0.69564 0.90099 0.91966 0.0
C67 C 0.69771 0.90947 0.80289 0.0
C68 C 0.71483 0.90406 0.72645 0.0
C69 C 0.72741 0.88855 0.76537 0.0
N70 N 0.72355 0.87921 0.87707 0.0
H71 H 0.70556 0.87757 0.04254 0.0
H72 H 0.73891 0.88268 0.70489 0.0
C73 C 0.7685 0.81704 0.05585 0.0
N74 N 0.75807 0.81842 0.95022 0.0
C75 C 0.76828 0.78343 0.87305 0.0
C76 C 0.77926 0.78157 0.98118 0.0
C77 C 0.77929 0.79876 0.07332 0.0
C78 C 0.75714 0.80154 0.86028 0.0
H79 H 0.7677 0.82955 0.12778 0.0
H80 H 0.74714 0.80151 0.77904 0.0
C81 C 0.80254 0.90156 0.81518 0.0
C82 C 0.85671 0.99457 0.09903 0.0
N83 N 0.7802 0.95156 0.01679 0.0
C84 C 0.77219 0.95401 0.90746 0.0
C85 C 0.75654 0.9678 0.88933 0.0
C86 C 0.74937 0.9794 0.98469 0.0
C87 C 0.75635 0.9747 0.09712 0.0
C88 C 0.77197 0.96088 0.11113 0.0
C89 C 0.68604 0.80092 0.83844 0.0
O90 O 0.76791 0.89547 0.07731 0.0
O91 O 0.73523 0.85448 0.14333 0.0
O92 O 0.78401 0.88757 0.89168 0.0
O93 O 0.82241 0.92643 0.84156 0.0
O94 O 0.84116 0.97718 0.17762 0.0
O95 O 0.85209 0.98579 -0.0059 0.0
O96 O 0.707 0.81708 0.77296 0.0
O97 O 0.68868 0.80642 0.94705 0.0
H98 H 0.77936 0.94671 0.83384 0.0
H99 H 0.77924 0.95956 0.19695 0.0
H100 H 0.8336 0.8518 0.10787 0.0
H101 H 0.90105 0.93286 0.23532 0.0
H102 H 0.68231 0.90414 0.98147 0.0
H103 H 0.71725 0.91043 0.63607 0.0
H104 H 0.7677 0.77062 0.7994 0.0
H105 H 0.7866 0.79744 0.15943 0.0
H106 H 0.75142 0.97061 0.80116 0.0
H107 H 0.75211 0.98379 0.17345 0.0
Cd108 Cd 0.06256 0.88471 0.10538 0.0
Cd109 Cd 0.15344 0.89553 0.92729 0.0
C110 C 0.10272 0.95065 0.06667 0.0
N111 N 0.08928 0.93278 0.15684 0.0
C112 C 0.10272 0.97236 0.28542 0.0
C113 C 0.11607 0.99134 0.19264 0.0
C114 C 0.11637 0.98003 0.08263 0.0
C115 C 0.08924 0.94297 0.26532 0.0
H116 H 0.10199 0.94206 0.98094 0.0
H117 H 0.07788 0.92838 0.33531 0.0
C118 C 0.12922 0.89196 0.1865 0.0
C119 C 0.11277 0.82758 0.91273 0.0
C120 C 0.10121 0.80024 0.86509 0.0
C121 C 0.10292 0.79687 0.74423 0.0
C122 C 0.11444 0.82127 0.67389 0.0
C123 C 0.1263 0.84811 0.72544 0.0
N124 N 0.12555 0.8508 0.84278 0.0
H125 H 0.11321 0.83039 0.00614 0.0
H126 H 0.13793 0.86677 0.67234 0.0
C127 C 0.16999 0.95952 0.97309 0.0
N128 N 0.17502 0.94429 0.89183 0.0
C129 C 0.21616 0.98643 0.82352 0.0
C130 C 0.21302 0.00236 0.91361 0.0
C131 C 0.18846 0.98881 0.9841 0.0
C132 C 0.19675 0.95725 0.81398 0.0
H133 H 0.15309 0.9485 0.03592 0.0
H134 H 0.20058 0.94468 0.75098 0.0
C135 C 0.08737 0.89241 0.84524 0.0
C136 C 0.00929 0.87806 0.17422 0.0
N137 N 0.0507 0.83831 0.15355 0.0
C138 C 0.05366 0.82207 0.07034 0.0
C139 C 0.04244 0.79289 0.08788 0.0
C140 C 0.02772 0.78032 0.19163 0.0
C141 C 0.02636 0.79803 0.27829 0.0
C142 C 0.03787 0.82704 0.25702 0.0
C143 C 0.20269 0.89163 0.88103 0.0
O144 O 0.10933 0.88811 0.11835 0.0
O145 O 0.1517 0.89398 0.14234 0.0
O146 O 0.10639 0.89279 0.91042 0.0
O147 O 0.0644 0.88868 0.89201 0.0
O148 O 0.029 0.88441 0.24875 0.0
O149 O 0.01447 0.87446 0.06924 0.0
O150 O 0.18847 0.89412 0.79835 0.0
O151 O 0.19374 0.89081 0.98443 0.0
H152 H 0.06347 0.83156 0.98801 0.0
H153 H 0.03519 0.84024 0.32073 0.0
H154 H 0.10201 0.9801 0.37173 0.0
H155 H 0.12576 0.99363 0.00768 0.0
H156 H 0.09304 0.78222 0.9234 0.0
H157 H 0.11602 0.81982 0.58039 0.0
H158 H 0.23473 0.99569 0.76735 0.0
H159 H 0.18465 0.00023 0.05289 0.0
H160 H 0.04406 0.78009 0.01883 0.0
H161 H 0.01472 0.7893 0.35851 0.0
Cd162 Cd 0.78597 0.5178 0.39501 0.0
Cd163 Cd 0.78122 0.59605 0.24532 0.0
C164 C 0.72739 0.46968 0.51416 0.0
N165 N 0.73865 0.49527 0.4597 0.0
C166 C 0.69226 0.48989 0.43801 0.0
C167 C 0.67987 0.46249 0.48609 0.0
C168 C 0.6979 0.45292 0.52892 0.0
C169 C 0.72187 0.50594 0.42501 0.0
H170 H 0.741 0.46133 0.53908 0.0
H171 H 0.7313 0.52612 0.38064 0.0
C172 C 0.78193 0.57842 0.49297 0.0
C173 C 0.84661 0.62643 0.31928 0.0
C174 C 0.87614 0.63974 0.30576 0.0
C175 C 0.88774 0.63465 0.20482 0.0
C176 C 0.86897 0.61407 0.12492 0.0
C177 C 0.83948 0.60135 0.14164 0.0
N178 N 0.82903 0.60843 0.23587 0.0
H179 H 0.83773 0.63199 0.39246 0.0
H180 H 0.82502 0.58723 0.07586 0.0
C181 C 0.72457 0.58849 0.35703 0.0
N182 N 0.73207 0.575 0.27623 0.0
C183 C 0.68287 0.54111 0.23988 0.0
C184 C 0.67485 0.55438 0.32516 0.0
C185 C 0.69599 0.57828 0.38396 0.0
C186 C 0.71196 0.55181 0.21688 0.0
H187 H 0.74087 0.60739 0.40029 0.0
H188 H 0.71845 0.54162 0.15222 0.0
C189 C 0.77278 0.52916 0.14276 0.0
C190 C 0.80198 0.47738 0.45676 0.0
N191 N 0.83347 0.55453 0.40688 0.0
C192 C 0.85095 0.55358 0.32397 0.0
C193 C 0.88054 0.56932 0.33763 0.0
C194 C 0.89223 0.58634 0.43756 0.0
C195 C 0.87364 0.58943 0.51435 0.0
C196 C 0.84418 0.57274 0.49887 0.0
C197 C 0.78716 0.64299 0.11724 0.0
O198 O 0.78527 0.56265 0.42033 0.0
O199 O 0.78254 0.60058 0.45477 0.0
O200 O 0.77621 0.54926 0.20926 0.0
O201 O 0.77485 0.50895 0.18723 0.0
O202 O 0.79536 0.48953 0.53644 0.0
O203 O 0.80095 0.48414 0.35191 0.0
O204 O 0.77648 0.61849 0.06995 0.0
O205 O 0.79555 0.64538 0.22193 0.0
H206 H 0.84184 0.53881 0.25192 0.0
H207 H 0.83012 0.57308 0.56459 0.0
H208 H 0.67909 0.49811 0.40491 0.0
H209 H 0.68927 0.43177 0.56497 0.0
H210 H 0.88953 0.65568 0.36913 0.0
H211 H 0.87691 0.6092 0.04659 0.0
H212 H 0.6669 0.52261 0.19295 0.0
H213 H 0.69038 0.58915 0.44921 0.0
H214 H 0.89378 0.56597 0.27607 0.0
H215 H 0.88164 0.60283 0.59104 0.0
Cd216 Cd 0.48786 0.26598 0.38475 0.0
Cd217 Cd 0.40317 0.17824 0.28112 0.0
C218 C 0.53784 0.26001 0.49634 0.0
N219 N 0.50968 0.24285 0.47196 0.0
C220 C 0.51333 0.20138 0.50824 0.0
C221 C 0.54285 0.21869 0.52674 0.0
C222 C 0.5548 0.24837 0.52528 0.0
C223 C 0.49694 0.21406 0.48197 0.0
H224 H 0.54765 0.28277 0.48602 0.0
H225 H 0.47447 0.20092 0.46347 0.0
C226 C 0.4264 0.20971 0.51256 0.0
C227 C 0.38817 0.22803 0.30398 0.0
C228 C 0.37601 0.24455 0.27541 0.0
C229 C 0.3674 0.24488 0.16024 0.0
C230 C 0.37422 0.23049 0.07456 0.0
C231 C 0.38726 0.21484 0.10672 0.0
N232 N 0.39306 0.21319 0.22042 0.0
H233 H 0.3923 0.22598 0.39413 0.0
H234 H 0.39087 0.20238 0.04215 0.0
C235 C 0.40415 0.1202 0.29985 0.0
N236 N 0.4232 0.14845 0.28797 0.0
C237 C 0.46227 0.1397 0.3033 0.0
C238 C 0.44301 0.11058 0.31822 0.0
C239 C 0.41362 0.10078 0.31423 0.0
C240 C 0.45184 0.15834 0.28723 0.0
H241 H 0.38153 0.11278 0.3014 0.0
H242 H 0.46677 0.18069 0.27634 0.0
C243 C 0.47165 0.22861 0.16315 0.0
C244 C 0.52996 0.32201 0.45285 0.0
N245 N 0.4562 0.28143 0.34102 0.0
C246 C 0.45202 0.28552 0.2278 0.0
C247 C 0.43801 0.30045 0.19999 0.0
C248 C 0.4285 0.31136 0.28988 0.0
C249 C 0.43167 0.30521 0.4058 0.0
C250 C 0.44576 0.29024 0.42948 0.0
C251 C 0.34919 0.13485 0.19978 0.0
O252 O 0.4399 0.22548 0.42805 0.0
O253 O 0.40409 0.18604 0.491 0.0
O254 O 0.45236 0.21684 0.23888 0.0
O255 O 0.49387 0.252 0.18929 0.0
O256 O 0.51317 0.30431 0.52789 0.0
O257 O 0.52681 0.31363 0.34745 0.0
O258 O 0.37019 0.14727 0.12954 0.0
O259 O 0.3537 0.14274 0.30592 0.0
H260 H 0.46089 0.27853 0.15929 0.0
H261 H 0.44991 0.28724 0.51863 0.0
H262 H 0.50335 0.17837 0.50889 0.0
H263 H 0.57754 0.26249 0.53699 0.0
H264 H 0.37245 0.25598 0.34472 0.0
H265 H 0.3678 0.22945 0.98483 0.0
H266 H 0.48512 0.14797 0.30556 0.0
H267 H 0.39811 0.07847 0.32714 0.0
H268 H 0.43584 0.30454 0.10954 0.0
H269 H 0.42532 0.31369 0.47812 0.0
Cd270 Cd 0.73716 0.22165 0.39362 0.0
Cd271 Cd 0.81915 0.22078 0.22873 0.0
C272 C 0.77504 0.2892 0.37387 0.0
N273 N 0.76353 0.26884 0.45723 0.0
C274 C 0.77429 0.30419 0.60421 0.0
C275 C 0.7847 0.32559 0.51901 0.0
C276 C 0.7858 0.31779 0.40282 0.0
C277 C 0.76339 0.2758 0.57099 0.0
H278 H 0.77439 0.28309 0.28375 0.0
H279 H 0.75331 0.25929 0.63529 0.0
C280 C 0.79983 0.21961 0.4845 0.0
C281 C 0.77679 0.15468 0.27611 0.0
C282 C 0.75951 0.12576 0.25062 0.0
C283 C 0.7484 0.11722 0.13768 0.0
C284 C 0.75371 0.13833 0.05508 0.0
C285 C 0.77139 0.16696 0.08399 0.0
N286 N 0.78287 0.17449 0.19229 0.0
H287 H 0.78668 0.16127 0.36081 0.0
H288 H 0.77721 0.18297 0.01799 0.0
C289 C 0.8692 0.28355 0.15733 0.0
N290 N 0.84502 0.27049 0.22266 0.0
C291 C 0.85665 0.31467 0.31452 0.0
C292 C 0.88281 0.32839 0.25415 0.0
C293 C 0.88846 0.31258 0.17168 0.0
C294 C 0.83813 0.28549 0.29816 0.0
H295 H 0.87451 0.27119 0.09912 0.0
H296 H 0.81902 0.27451 0.3504 0.0
C297 C 0.76124 0.23098 0.13915 0.0
C298 C 0.68409 0.21213 0.48275 0.0
N299 N 0.72103 0.17318 0.39764 0.0
C300 C 0.71689 0.15987 0.29313 0.0
C301 C 0.70144 0.13021 0.28614 0.0
C302 C 0.68989 0.11408 0.38764 0.0
C303 C 0.69588 0.1285 0.49517 0.0
C304 C 0.71139 0.15821 0.4981 0.0
C305 C 0.86048 0.21167 0.11391 0.0
O306 O 0.78126 0.2188 0.41524 0.0
O307 O 0.82111 0.21892 0.44114 0.0
O308 O 0.77781 0.22766 0.20631 0.0
O309 O 0.73966 0.23082 0.18388 0.0
O310 O 0.70437 0.2166 0.55142 0.0
O311 O 0.68864 0.21196 0.37412 0.0
O312 O 0.84406 0.21753 0.0558 0.0
O313 O 0.85735 0.21004 0.22391 0.0
H314 H 0.72421 0.1723 0.21436 0.0
H315 H 0.71396 0.16924 0.57967 0.0
H316 H 0.77326 0.30909 0.69494 0.0
H317 H 0.79306 0.33325 0.33325 0.0
H318 H 0.75641 0.11028 0.31659 0.0
H319 H 0.74552 0.13272 0.96721 0.0
H320 H 0.85112 0.32602 0.37765 0.0
H321 H 0.90843 0.32198 0.12424 0.0
H322 H 0.69754 0.12014 0.20139 0.0
H323 H 0.68682 0.11719 0.57557 0.0
Cd324 Cd 0.45135 0.84797 0.77103 0.0
Cd325 Cd 0.44933 0.92907 0.61432 0.0
C326 C 0.39144 0.80507 0.90122 0.0
N327 N 0.40372 0.82734 0.82612 0.0
C328 C 0.35805 0.81884 0.76413 0.0
C329 C 0.34464 0.79415 0.83261 0.0
C330 C 0.36169 0.78805 0.90592 0.0
C331 C 0.38773 0.83481 0.76055 0.0
H332 H 0.40462 0.79916 0.95069 0.0
H333 H 0.39805 0.85194 0.69896 0.0
C334 C 0.45216 0.91141 0.8647 0.0
C335 C 0.51548 0.95785 0.676 0.0
C336 C 0.54482 0.97168 0.65578 0.0
C337 C 0.55509 0.96982 0.54539 0.0
C338 C 0.53536 0.95231 0.46036 0.0
C339 C 0.50616 0.93896 0.48425 0.0
N340 N 0.49692 0.94253 0.58971 0.0
H341 H 0.5075 0.96079 0.7582 0.0
H342 H 0.4909 0.92709 0.41665 0.0
C343 C 0.38636 0.89527 0.72814 0.0
N344 N 0.39939 0.90687 0.62533 0.0
C345 C 0.35592 0.90185 0.54984 0.0
C346 C 0.34229 0.89101 0.65725 0.0
C347 C 0.35765 0.88661 0.74513 0.0
C348 C 0.38457 0.90954 0.53555 0.0
H349 H 0.39835 0.89342 0.79885 0.0
H350 H 0.3953 0.91904 0.45474 0.0
C351 C 0.44119 0.86197 0.51574 0.0
C352 C 0.46304 0.80462 0.83443 0.0
N353 N 0.49897 0.88292 0.78227 0.0
C354 C 0.51283 0.89248 0.67933 0.0
C355 C 0.54249 0.90921 0.67659 0.0
C356 C 0.55813 0.91589 0.78081 0.0
C357 C 0.54297 0.90701 0.88652 0.0
C358 C 0.51322 0.89031 0.88518 0.0
C359 C 0.45551 0.97644 0.48831 0.0
O360 O 0.45365 0.89444 0.79263 0.0
O361 O 0.45241 0.93334 0.82488 0.0
O362 O 0.44438 0.88202 0.58215 0.0
O363 O 0.4424 0.84131 0.56088 0.0
O364 O 0.45937 0.81899 0.91409 0.0
O365 O 0.46126 0.81087 0.72945 0.0
O366 O 0.44897 0.95313 0.43677 0.0
O367 O 0.45979 0.97766 0.59748 0.0
H368 H 0.50095 0.88587 0.59879 0.0
H369 H 0.50173 0.88176 0.96565 0.0
H370 H 0.34583 0.82467 0.70763 0.0
H371 H 0.35239 0.76908 0.95913 0.0
H372 H 0.55915 0.98527 0.72333 0.0
H373 H 0.54236 0.95015 0.37442 0.0
H374 H 0.34517 0.90593 0.47961 0.0
H375 H 0.34796 0.87752 0.82822 0.0
H376 H 0.5531 0.91569 0.5931 0.0
H377 H 0.55395 0.91095 0.96901 0.0
Cd378 Cd 0.14875 0.59926 0.73516 0.0
Cd379 Cd 0.06587 0.50924 0.6293 0.0
C380 C 0.19861 0.5925 0.84875 0.0
N381 N 0.17081 0.57571 0.81772 0.0
C382 C 0.17494 0.53396 0.83472 0.0
C383 C 0.20422 0.55106 0.85888 0.0
C384 C 0.21569 0.58056 0.87093 0.0
C385 C 0.15846 0.54685 0.81511 0.0
H386 H 0.20822 0.61537 0.84827 0.0
H387 H 0.13631 0.53398 0.79098 0.0
C388 C 0.08886 0.5411 0.86103 0.0
C389 C 0.0509 0.55905 0.65073 0.0
C390 C 0.03965 0.57635 0.62225 0.0
C391 C 0.0313 0.5771 0.50711 0.0
C392 C 0.0375 0.56227 0.42128 0.0
C393 C 0.04978 0.54589 0.45333 0.0
N394 N 0.05539 0.54394 0.56707 0.0
H395 H 0.05465 0.55666 0.74095 0.0
H396 H 0.05305 0.53326 0.38853 0.0
C397 C 0.06853 0.45199 0.63995 0.0
N398 N 0.08708 0.48034 0.62738 0.0
C399 C 0.12668 0.47215 0.62457 0.0
C400 C 0.10794 0.44289 0.6391 0.0
C401 C 0.07851 0.43278 0.64511 0.0
C402 C 0.11571 0.49058 0.61781 0.0
H403 H 0.04593 0.44428 0.64828 0.0
H404 H 0.1302 0.51302 0.60595 0.0
C405 C 0.13276 0.56209 0.51202 0.0
C406 C 0.19218 0.65499 0.79749 0.0
N407 N 0.11642 0.61522 0.71252 0.0
C408 C 0.11311 0.62317 0.60436 0.0
C409 C 0.09912 0.63872 0.58993 0.0
C410 C 0.0887 0.64627 0.68806 0.0
C411 C 0.09076 0.636 0.79754 0.0
C412 C 0.10492 0.62058 0.80793 0.0
C413 C 0.01229 0.46536 0.54731 0.0
O414 O 0.10141 0.55752 0.77705 0.0
O415 O 0.06721 0.5169 0.83929 0.0
O416 O 0.11407 0.54951 0.58903 0.0
O417 O 0.15405 0.58629 0.53671 0.0
O418 O 0.17553 0.638 0.87484 0.0
O419 O 0.18813 0.64599 0.6928 0.0
O420 O 0.03335 0.4783 0.47788 0.0
O421 O 0.01641 0.47309 0.65373 0.0
H422 H 0.12272 0.61879 0.53022 0.0
H423 H 0.10824 0.61451 0.89321 0.0
H424 H 0.1653 0.51109 0.82537 0.0
H425 H 0.23823 0.59459 0.88759 0.0
H426 H 0.0364 0.58796 0.69174 0.0
H427 H 0.03122 0.56158 0.33152 0.0
H428 H 0.14954 0.48067 0.61941 0.0
H429 H 0.06342 0.41037 0.65816 0.0
H430 H 0.09774 0.64596 0.50382 0.0
H431 H 0.08352 0.64169 0.87581 0.0
Cd432 Cd 0.39791 0.55005 0.72459 0.0
Cd433 Cd 0.48113 0.5466 0.58046 0.0
C434 C 0.45038 0.61323 0.71999 0.0
N435 N 0.42754 0.5967 0.78841 0.0
C436 C 0.43353 0.63766 0.89196 0.0
C437 C 0.45602 0.65556 0.81699 0.0
C438 C 0.46552 0.64271 0.73507 0.0
C439 C 0.41967 0.60816 0.87659 0.0
H440 H 0.45585 0.60366 0.64918 0.0
H441 H 0.40137 0.59474 0.92988 0.0
C442 C 0.45106 0.53619 0.81643 0.0
C443 C 0.43772 0.479 0.5968 0.0
C444 C 0.42271 0.45089 0.55705 0.0
C445 C 0.4194 0.44524 0.43669 0.0
C446 C 0.43043 0.46839 0.35966 0.0
C447 C 0.44572 0.49609 0.40314 0.0
N448 N 0.4491 0.50082 0.51958 0.0
H449 H 0.44144 0.48332 0.68894 0.0
H450 H 0.45603 0.51384 0.34387 0.0
C451 C 0.50586 0.6053 0.72562 0.0
N452 N 0.50928 0.5954 0.62158 0.0
C453 C 0.55128 0.64011 0.58293 0.0
C454 C 0.54876 0.65061 0.69198 0.0
C455 C 0.52497 0.63304 0.7615 0.0
C456 C 0.53111 0.6124 0.54907 0.0
H457 H 0.48866 0.59152 0.78245 0.0
H458 H 0.53376 0.6041 0.46726 0.0
C459 C 0.4239 0.55881 0.46758 0.0
C460 C 0.34479 0.54215 0.80563 0.0
N461 N 0.38199 0.5019 0.74284 0.0
C462 C 0.38138 0.48714 0.64601 0.0
C463 C 0.36766 0.45747 0.64824 0.0
C464 C 0.35404 0.4428 0.75071 0.0
C465 C 0.35631 0.45888 0.85095 0.0
C466 C 0.37039 0.48853 0.84487 0.0
C467 C 0.52659 0.54344 0.46936 0.0
O468 O 0.43855 0.5422 0.73865 0.0
O469 O 0.47283 0.53444 0.78811 0.0
O470 O 0.44087 0.55477 0.52991 0.0
O471 O 0.40281 0.55916 0.51507 0.0
O472 O 0.3643 0.54562 0.8767 0.0
O473 O 0.35001 0.5421 0.6975 0.0
O474 O 0.51158 0.55143 0.41307 0.0
O475 O 0.52021 0.53698 0.57579 0.0
H476 H 0.39058 0.49838 0.56571 0.0
H477 H 0.37091 0.50083 0.92019 0.0
H478 H 0.42503 0.64617 0.95592 0.0
H479 H 0.48334 0.65529 0.67772 0.0
H480 H 0.41528 0.43384 0.61998 0.0
H481 H 0.42862 0.46512 0.26644 0.0
H482 H 0.56937 0.65248 0.52651 0.0
H483 H 0.52143 0.64024 0.84467 0.0
H484 H 0.36677 0.44616 0.56905 0.0
H485 H 0.34572 0.44878 0.93143 0.0
H486 H 0.27285 0.26692 0.95173 0.0
H487 H 0.24513 0.2512 0.31029 0.0
H488 H 0.28942 0.25354 0.36604 0.0
H489 H 0.33005 0.24954 0.30789 0.0
H490 H 0.36005 0.26621 0.95181 0.0
H491 H 0.32023 0.27315 0.90041 0.0
C492 C 0.27681 0.26458 0.04234 0.0
C493 C 0.25538 0.25834 0.12609 0.0
C494 C 0.30221 0.26516 0.07399 0.0
C495 C 0.26112 0.25609 0.24365 0.0
C496 C 0.28638 0.25706 0.27569 0.0
C497 C 0.329 0.25579 0.21961 0.0
C498 C 0.34791 0.25631 0.13351 0.0
C499 C 0.30632 0.26009 0.19073 0.0
C500 C 0.34528 0.26432 0.01966 0.0
C501 C 0.32258 0.26856 0.99007 0.0
H502 H 0.75807 0.0967 0.93811 0.0
H503 H 0.71034 0.06951 0.25906 0.0
H504 H 0.7001 0.02077 0.22333 0.0
H505 H 0.7132 0.98892 0.12105 0.0
H506 H 0.76526 0.01884 0.81097 0.0
H507 H 0.76352 0.06261 0.81816 0.0
C508 C 0.74452 0.07998 -0.00165 0.0
C509 C 0.7355 0.08687 0.10236 0.0
C510 C 0.73952 0.05232 0.97912 0.0
C511 C 0.7181 0.06487 0.17961 0.0
C512 C 0.71224 0.03701 0.15917 0.0
C513 C 0.7238 0.00484 0.05401 0.0
C514 C 0.74011 0.00081 0.96797 0.0
C515 C 0.72424 0.0309 0.0625 0.0
C516 C 0.75264 0.02115 0.87893 0.0
C517 C 0.75205 0.04654 0.88378 0.0
H518 H 0.99515 0.74256 0.02445 0.0
H519 H 0.01949 0.74731 0.3847 0.0
H520 H 0.98058 0.69854 0.41521 0.0
H521 H 0.93458 0.65864 0.3481 0.0
H522 H 0.90921 0.65661 0.99046 0.0
H523 H 0.95433 0.69923 0.94929 0.0
C524 C 0.99269 0.73267 0.10872 0.0
C525 C 0.00986 0.74884 0.20276 0.0
C526 C 0.96986 0.70497 0.12638 0.0
C527 C 0.00614 0.73557 0.31145 0.0
C528 C 0.98389 0.70767 0.32896 0.0
C529 C 0.93915 0.66727 0.26067 0.0
C530 C 0.91809 0.65471 0.17359 0.0
C531 C 0.9647 0.69278 0.23853 0.0
C532 C 0.9248 0.66563 0.05976 0.0
C533 C 0.95056 0.69037 0.03619 0.0
H534 H 0.75611 0.72812 0.8883 0.0
H535 H 0.82298 0.78677 0.11897 0.0
H536 H 0.83309 0.74932 0.17387 0.0
H537 H 0.81963 0.69886 0.1708 0.0
H538 H 0.75433 0.64094 0.93394 0.0
H539 H 0.74773 0.67971 0.86325 0.0
C540 C 0.77347 0.73311 0.94805 0.0
C541 C 0.78836 0.76019 0.00102 0.0
C542 C 0.77945 0.71162 0.97811 0.0
C543 C 0.81057 0.76592 0.07936 0.0
C544 C 0.81652 0.74458 0.11025 0.0
C545 C 0.80429 0.69486 0.10231 0.0
C546 C 0.78717 0.66709 0.05881 0.0
C547 C 0.80053 0.71716 0.06267 0.0
C548 C 0.76768 0.66218 0.96895 0.0
C549 C 0.76377 0.68427 0.92913 0.0
H550 H 0.22998 0.0244 0.13108 0.0
H551 H 0.2514 0.04494 0.76857 0.0
H552 H 0.29534 0.08817 0.82465 0.0
H553 H 0.32928 0.11847 0.97778 0.0
H554 H 0.30588 0.09793 0.33875 0.0
H555 H 0.26077 0.05669 0.28142 0.0
C556 C 0.24365 0.03861 0.06358 0.0
C557 C 0.23722 0.03111 0.94544 0.0
C558 C 0.26876 0.06343 0.09625 0.0
C559 C 0.25589 0.04979 0.86023 0.0
C560 C 0.28105 0.07459 0.89222 0.0
C561 C 0.3142 0.10504 0.04369 0.0
C562 C 0.3211 0.11112 0.16237 0.0
C563 C 0.28803 0.08129 0.01012 0.0
C564 C 0.3012 0.09372 0.24681 0.0
C565 C 0.27537 0.07008 0.21417 0.0
H566 H 0.96249 0.2177 0.8237 0.0
H567 H 0.9805 0.19401 0.15784 0.0
H568 H 0.93602 0.18821 0.23517 0.0
H569 H 0.89496 0.19522 0.21576 0.0
H570 H 0.87764 0.22121 0.88599 0.0
H571 H 0.91903 0.22108 0.79991 0.0
C572 C 0.95665 0.21115 0.91331 0.0
C573 C 0.97512 0.20658 0.98474 0.0
C574 C 0.93133 0.20867 0.95877 0.0
C575 C 0.96675 0.19742 0.09994 0.0
C576 C 0.94139 0.1944 0.14498 0.0
C577 C 0.90006 0.20061 0.12471 0.0
C578 C 0.88346 0.20857 0.05783 0.0
C579 C 0.92399 0.2008 0.07629 0.0
C580 C 0.89017 0.21517 0.93964 0.0
C581 C 0.91387 0.21515 0.89042 0.0
H582 H 0.94042 0.60507 0.30127 0.0
H583 H 0.91089 0.58618 0.65747 0.0
H584 H 0.95417 0.5868 0.71281 0.0
H585 H 0.99409 0.58183 0.65425 0.0
H586 H 0.0254 0.60003 0.30032 0.0
H587 H 0.98699 0.60934 0.25005 0.0
C588 C 0.94367 0.60153 0.39133 0.0
C589 C 0.92191 0.59502 0.47404 0.0
C590 C 0.9684 0.60073 0.42272 0.0
C591 C 0.927 0.5914 0.59114 0.0
C592 C 0.95172 0.5913 0.62311 0.0
C593 C 0.99365 0.58893 0.56682 0.0
C594 C 0.01256 0.5894 0.48092 0.0
C595 C 0.97174 0.5944 0.53857 0.0
C596 C 0.01067 0.59835 0.36795 0.0
C597 C 0.98877 0.60392 0.33908 0.0
H598 H 0.43941 0.42932 0.25108 0.0
H599 H 0.37598 0.39474 0.52385 0.0
H600 H 0.36823 0.34709 0.48272 0.0
H601 H 0.38669 0.31778 0.39575 0.0
H602 H 0.45229 0.35442 0.13205 0.0
H603 H 0.4504 0.39818 0.13774 0.0
C604 C 0.42302 0.41135 0.29893 0.0
C605 C 0.40886 0.41581 0.39262 0.0
C606 C 0.41905 0.38423 0.27626 0.0
C607 C 0.38786 0.39205 0.45362 0.0
C608 C 0.38334 0.36478 0.4299 0.0
C609 C 0.40011 0.33517 0.33785 0.0
C610 C 0.42018 0.33309 0.2662 0.0
C611 C 0.4 0.36095 0.34575 0.0
C612 C 0.43672 0.35536 0.18862 0.0
C613 C 0.43596 0.38064 0.19292 0.0
H614 H 0.57497 -0.0001 0.34669 0.0
H615 H 0.60316 0.98503 0.67626 0.0
H616 H 0.65047 0.02664 0.64548 0.0
H617 H 0.6805 0.07153 0.5405 0.0
H618 H 0.64951 0.08711 0.21869 0.0
H619 H 0.60742 0.04026 0.22811 0.0
C620 C 0.59169 0.00505 0.41009 0.0
C621 C 0.58538 0.98967 0.51454 0.0
C622 C 0.61844 0.02936 0.3934 0.0
C623 C 0.60733 0.9969 0.59608 0.0
C624 C 0.63436 0.0207 0.57857 0.0
C625 C 0.66469 0.06456 0.47178 0.0
C626 C 0.66808 0.08326 0.38047 0.0
C627 C 0.63965 0.0379 0.48023 0.0
C628 C 0.64778 0.07341 0.29014 0.0
C629 C 0.62337 0.04661 0.29598 0.0
H630 H 0.42741 0.05953 0.21738 0.0
H631 H 0.48108 0.11712 0.48612 0.0
H632 H 0.49208 0.08122 0.55652 0.0
H633 H 0.48195 0.03173 0.55501 0.0
H634 H 0.42886 0.97424 0.28462 0.0
H635 H 0.42233 0.0119 0.20048 0.0
C636 C 0.44181 0.06425 0.29033 0.0
C637 C 0.45317 0.09067 0.34753 0.0
C638 C 0.44795 0.04351 0.33037 0.0
C639 C 0.47214 0.09687 0.44081 0.0
C640 C 0.47827 0.07632 0.48149 0.0
C641 C 0.46929 0.02761 0.47669 0.0
C642 C 0.45557 0.00023 0.42692 0.0
C643 C 0.46563 0.04931 0.42902 0.0
C644 C 0.43958 0.99518 0.32454 0.0
C645 C 0.43571 0.01664 0.27682 0.0
H646 H 0.99482 0.44748 0.32473 0.0
H647 H 0.96774 0.4287 0.68302 0.0
H648 H 0.92403 0.38608 0.62258 0.0
H649 H 0.89576 0.35196 0.47082 0.0
H650 H 0.92166 0.37076 0.11126 0.0
H651 H 0.96358 0.41551 0.16972 0.0
C652 C 0.97922 0.43418 0.38941 0.0
C653 C 0.98471 0.44111 0.50829 0.0
C654 C 0.95402 0.4096 0.35408 0.0
C655 C 0.96415 0.42382 0.59097 0.0
C656 C 0.93913 0.39939 0.55655 0.0
C657 C 0.91006 0.36611 0.40452 0.0
C658 C 0.90557 0.35773 0.28673 0.0
C659 C 0.9341 0.39179 0.43862 0.0
C660 C 0.92478 0.37634 0.20279 0.0
C661 C 0.94876 0.402 0.23609 0.0
H662 H 0.55897 0.52358 0.56517 0.0
H663 H 0.54981 0.56237 0.25358 0.0
H664 H 0.59348 0.56589 0.17409 0.0
H665 H 0.63687 0.56222 0.20203 0.0
H666 H 0.64654 0.52511 0.51671 0.0
H667 H 0.59987 0.51619 0.58577 0.0
C668 C 0.56635 0.53256 0.47936 0.0
C669 C 0.55133 0.54299 0.41597 0.0
C670 C 0.59157 0.53475 0.43482 0.0
C671 C 0.56106 0.55432 0.30447 0.0
C672 C 0.58605 0.55637 0.259 0.0
C673 C 0.62827 0.55153 0.28422 0.0
C674 C 0.64471 0.54406 0.35423 0.0
C675 C 0.60181 0.54721 0.32444 0.0
C676 C 0.63391 0.53074 0.46155 0.0
C677 C 0.60741 0.52586 0.50116 0.0
H678 H 0.58837 0.90478 0.62078 0.0
H679 H 0.59888 0.95256 0.93671 0.0
H680 H 0.64715 0.96014 0.95931 0.0
H681 H 0.68194 0.94497 0.90864 0.0
H682 H 0.6687 0.89478 0.59735 0.0
H683 H 0.6268 0.89805 0.55025 0.0
C684 C 0.6014 0.91782 0.69247 0.0
C685 C 0.58956 0.92738 0.77864 0.0
C686 C 0.6288 0.92164 0.706 0.0
C687 C 0.60706 0.94412 0.87098 0.0
C688 C 0.63471 0.94854 0.88382 0.0
C689 C 0.67017 0.93522 0.82937 0.0
C690 C 0.67814 0.91905 0.75845 0.0
C691 C 0.64513 0.936 0.80519 0.0
C692 C 0.66321 0.90734 0.65405 0.0
C693 C 0.6389 0.90885 0.62756 0.0
H694 H 0.11468 0.69458 0.56173 0.0
H695 H 0.04496 0.64855 0.80128 0.0
H696 H 0.04029 0.69088 0.82774 0.0
H697 H 0.0612 0.74286 0.80536 0.0
H698 H 0.13313 0.78831 0.57374 0.0
H699 H 0.1308 0.74409 0.51819 0.0
C700 C 0.09775 0.69338 0.6166 0.0
C701 C 0.08049 0.66857 0.68079 0.0
C702 C 0.0957 0.71789 0.63357 0.0
C703 C 0.05889 0.66761 0.75251 0.0
C704 C 0.05625 0.69181 0.76781 0.0
C705 C 0.07615 0.74304 0.74176 0.0
C706 C 0.09745 0.76911 0.69507 0.0
C707 C 0.07545 0.71746 0.71285 0.0
C708 C 0.11624 0.76876 0.61069 0.0
C709 C 0.11518 0.74341 0.57952 0.0
H710 H 0.24479 0.32418 0.70096 0.0
H711 H 0.26324 0.31902 0.06208 0.0
H712 H 0.31054 0.36126 0.03947 0.0
H713 H 0.34219 0.40424 0.92638 0.0
H714 H 0.32006 0.4104 0.57061 0.0
H715 H 0.27962 0.36256 0.58048 0.0
C716 C 0.25949 0.33155 0.77387 0.0
C717 C 0.25032 0.31876 0.88356 0.0
C718 C 0.28606 0.35632 0.76133 0.0
C719 C 0.26964 0.32884 0.97719 0.0
C720 C 0.29663 0.35303 0.96434 0.0
C721 C 0.3287 0.39504 0.85058 0.0
C722 C 0.334 0.41144 0.74898 0.0
C723 C 0.30437 0.36783 0.85839 0.0
C724 C 0.31683 0.39862 0.6503 0.0
C725 C 0.29332 0.37121 0.65607 0.0
H726 H 0.15016 0.36318 0.83923 0.0
H727 H 0.09285 0.30661 0.57614 0.0
H728 H 0.08585 0.34489 0.50188 0.0
H729 H 0.09115 0.39246 0.52954 0.0
H730 H 0.14887 0.44895 0.79168 0.0
H731 H 0.16096 0.41284 0.84773 0.0
C732 C 0.13657 0.35943 0.76421 0.0
C733 C 0.1217 0.3321 0.7142 0.0
C734 C 0.13255 0.38142 0.72267 0.0
C735 C 0.10448 0.32751 0.61611 0.0
C736 C 0.10031 0.34931 0.57424 0.0
C737 C 0.1067 0.39692 0.59764 0.0
C738 C 0.11883 0.42306 0.65763 0.0
C739 C 0.11345 0.37603 0.62955 0.0
C740 C 0.13928 0.42893 0.74446 0.0
C741 C 0.14605 0.40824 0.77696 0.0
H742 H 0.64657 0.75603 0.96052 0.0
H743 H 0.66778 0.78959 0.61219 0.0
H744 H 0.62576 0.74689 0.53654 0.0
H745 H 0.58394 0.6994 0.56971 0.0
H746 H 0.56659 0.66467 0.91787 0.0
H747 H 0.60559 0.70882 0.99309 0.0
C748 C 0.6419 0.75414 0.86809 0.0
C749 C 0.66017 0.77592 0.79206 0.0
C750 C 0.61824 0.72936 0.82518 0.0
C751 C 0.65402 0.77303 0.67241 0.0
C752 C 0.63001 0.74865 0.62922 0.0
C753 C 0.58874 0.70131 0.66192 0.0
C754 C 0.5719 0.6785 0.73744 0.0
C755 C 0.61214 0.72651 0.70478 0.0
C756 C 0.57841 0.68186 0.85719 0.0
C757 C 0.60105 0.70708 0.90062 0.0
H758 H 0.32303 0.90088 0.86139 0.0
H759 H 0.29652 0.87271 0.50788 0.0
H760 H 0.25102 0.8706 0.54558 0.0
H761 H 0.21929 0.87809 0.67813 0.0
H762 H 0.24525 0.90317 0.03426 0.0
H763 H 0.29025 0.90436 -0.00327 0.0
C764 C 0.30715 0.89353 0.79289 0.0
C765 C 0.31342 0.887 0.68173 0.0
C766 C 0.28089 0.89185 0.81562 0.0
C767 C 0.2926 0.87832 0.59381 0.0
C768 C 0.26647 0.87695 0.61543 0.0
C769 C 0.2348 0.88371 0.74745 0.0
C770 C 0.22909 0.89074 0.85854 0.0
C771 C 0.26053 0.884 0.7257 0.0
C772 C 0.24916 0.89766 0.94804 0.0
C773 C 0.27492 0.89842 0.9266 0.0
H774 H 0.09267 0.01735 0.31948 0.0
H775 H 0.1637 0.03544 0.09333 0.0
H776 H 0.17474 0.08469 0.07535 0.0
H777 H 0.15968 0.12025 0.09993 0.0
H778 H 0.08986 0.10306 0.33045 0.0
H779 H 0.0834 0.05598 0.37362 0.0
C780 C 0.11113 0.03222 0.26925 0.0
C781 C 0.12683 0.02242 0.20524 0.0
C782 C 0.11742 0.0606 0.25927 0.0
C783 C 0.15069 0.04214 0.14061 0.0
C784 C 0.15709 0.07036 0.13049 0.0
C785 C 0.14347 0.1064 0.16163 0.0
C786 C 0.12495 0.11476 0.21055 0.0
C787 C 0.13984 0.07945 0.18537 0.0
C788 C 0.10431 0.09696 0.29164 0.0
C789 C 0.10049 0.06999 0.31557 0.0
H790 H 0.9767 0.09328 0.2465 0.0
H791 H 0.97076 0.12453 0.90908 0.0
H792 H 0.9209 0.08698 0.89343 0.0
H793 H 0.88183 0.04113 0.96212 0.0
H794 H 0.88726 0.01021 0.30058 0.0
H795 H 0.93429 0.05226 0.3309 0.0
C796 C 0.96428 0.09243 0.17114 0.0
C797 C 0.97762 0.11115 0.07762 0.0
C798 C 0.93564 0.07069 0.16245 0.0
C799 C 0.96118 0.1098 0.98068 0.0
C800 C 0.93267 0.08839 0.97175 0.0
C801 C 0.89309 0.04396 0.04348 0.0
C802 C 0.88147 0.02251 0.12812 0.0
C803 C 0.92012 0.068 0.05977 0.0
C804 C 0.89591 0.02648 0.23401 0.0
C805 C 0.92287 0.05041 0.25102 0.0
H806 H 0.91057 0.89965 0.33688 0.0
H807 H 0.875 0.8569 0.01018 0.0
H808 H 0.9135 0.84639 0.98849 0.0
H809 H 0.96058 0.85499 0.04786 0.0
H810 H 0.9974 0.89879 0.37096 0.0
H811 H 0.95526 0.90332 0.40804 0.0
C812 C 0.91109 0.88776 0.26162 0.0
C813 C 0.89003 0.87939 0.17486 0.0
C814 C 0.93378 0.88234 0.24797 0.0
C815 C 0.89071 0.86346 0.07901 0.0
C816 C 0.91296 0.85769 0.06567 0.0
C817 C 0.95923 0.86522 0.12713 0.0
C818 C 0.98223 0.87696 0.20556 0.0
C819 C 0.9351 0.86791 0.14741 0.0
C820 C 0.98001 0.88973 0.30883 0.0
C821 C 0.95597 0.89241 0.32988 0.0
H822 H 0.82528 0.37585 0.4236 0.0
H823 H 0.75712 0.34154 0.67726 0.0
H824 H 0.76059 0.38782 0.69711 0.0
H825 H 0.77713 0.43573 0.61826 0.0
H826 H 0.84052 0.46767 0.34611 0.0
H827 H 0.84463 0.42487 0.3569 0.0
C828 C 0.81124 0.37847 0.48367 0.0
C829 C 0.79071 0.35495 0.54729 0.0
C830 C 0.81225 0.4048 0.49033 0.0
C831 C 0.77334 0.35912 0.62743 0.0
C832 C 0.77504 0.38561 0.63802 0.0
C833 C 0.79236 0.43355 0.56379 0.0
C834 C 0.80845 0.45461 0.4814 0.0
C835 C 0.7936 0.40827 0.56659 0.0
C836 C 0.82785 0.45154 0.40982 0.0
C837 C 0.83012 0.42706 0.41568 0.0
H838 H 0.6436 0.42446 0.64654 0.0
H839 H 0.64659 0.4545 0.29678 0.0
H840 H 0.59862 0.41509 0.25988 0.0
H841 H 0.55881 0.36853 0.31717 0.0
H842 H 0.55538 0.33791 0.66581 0.0
H843 H 0.60039 0.38103 0.71301 0.0
C844 C 0.63352 0.42258 0.56297 0.0
C845 C 0.64879 0.44221 0.47428 0.0
C846 C 0.60601 0.39953 0.54149 0.0
C847 C 0.63531 0.43982 0.36695 0.0
C848 C 0.60794 0.41709 0.34521 0.0
C849 C 0.56772 0.37154 0.40401 0.0
C850 C 0.55412 0.34996 0.48731 0.0
C851 C 0.59356 0.39628 0.43032 0.0
C852 C 0.56556 0.35424 0.60008 0.0
C853 C 0.59136 0.37881 0.62692 0.0
H854 H 0.58661 0.23144 0.67641 0.0
H855 H 0.54312 0.18005 0.37607 0.0
H856 H 0.58231 0.17073 0.34257 0.0
H857 H 0.63217 0.18375 0.38003 0.0
H858 H 0.67571 0.23469 0.68121 0.0
H859 H 0.63332 0.2376 0.73342 0.0
C860 C 0.58546 0.21761 0.60548 0.0
C861 C 0.56223 0.20674 0.52798 0.0
C862 C 0.60832 0.21275 0.58561 0.0
C863 C 0.56073 0.18859 0.43715 0.0
C864 C 0.58331 0.18353 0.41711 0.0
C865 C 0.63216 0.19507 0.45817 0.0
C866 C 0.6571 0.20945 0.52555 0.0
C867 C 0.60772 0.19654 0.48772 0.0
C868 C 0.65675 0.2236 0.62772 0.0
C869 C 0.63258 0.22536 0.65729 0.0
H870 H 0.47793 0.77665 0.68136 0.0
H871 H 0.45797 0.77817 0.04419 0.0
H872 H 0.45855 0.73374 0.07558 0.0
H873 H 0.45942 0.69196 -0.00633 0.0
H874 H 0.47443 0.68979 0.62427 0.0
H875 H 0.48234 0.73741 0.60381 0.0
C876 C 0.47398 0.76747 0.76782 0.0
C877 C 0.46744 0.7804 0.85987 0.0
C878 C 0.47363 0.74177 0.78432 0.0
C879 C 0.46286 0.76849 0.97164 0.0
C880 C 0.46309 0.74304 0.98944 0.0
C881 C 0.46443 0.70181 0.90857 0.0
C882 C 0.46598 0.68669 0.8109 0.0
C883 C 0.46755 0.72902 0.89536 0.0
C884 C 0.47346 0.70054 0.70224 0.0
C885 C 0.47761 0.72785 0.68956 0.0
H886 H 0.22588 0.69731 0.65016 0.0
H887 H 0.21433 0.67509 0.01405 0.0
H888 H 0.25951 0.71821 0.05999 0.0
H889 H 0.30456 0.75968 0.99308 0.0
H890 H 0.316 0.77964 0.62624 0.0
H891 H 0.26842 0.74048 0.5862 0.0
C892 C 0.23306 0.70205 0.73978 0.0
C893 C 0.217 0.6829 0.82828 0.0
C894 C 0.25911 0.72656 0.76521 0.0
C895 C 0.22639 0.6895 0.94417 0.0
C896 C 0.25228 0.71408 0.97043 0.0
C897 C 0.29655 0.75558 0.90458 0.0
C898 C 0.31403 0.77271 0.81319 0.0
C899 C 0.26921 0.73237 0.8811 0.0
C900 C 0.30305 0.76727 0.69908 0.0
C901 C 0.27585 0.74459 0.67552 0.0
H902 H 0.29383 0.51756 0.69377 0.0
H903 H 0.33576 0.56268 0.00834 0.0
H904 H 0.29373 0.56599 0.06227 0.0
H905 H 0.24757 0.56129 0.00711 0.0
H906 H 0.20558 0.51573 0.69332 0.0
H907 H 0.24464 0.50655 0.65387 0.0
C908 C 0.29356 0.52776 0.77487 0.0
C909 C 0.31796 0.54029 0.84603 0.0
C910 C 0.26929 0.52945 0.80557 0.0
C911 C 0.31724 0.553 0.95189 0.0
C912 C 0.29326 0.55498 0.98258 0.0
C913 C 0.24675 0.54883 0.93148 0.0
C914 C 0.22391 0.53949 0.85262 0.0
C915 C 0.26951 0.54403 0.90833 0.0
C916 C 0.22285 0.52305 0.75569 0.0
C917 C 0.24535 0.51808 0.7323 0.0
H918 H 0.09502 0.22942 0.69648 0.0
H919 H 0.12641 0.17141 0.63218 0.0
H920 H 0.1274 0.17985 0.42394 0.0
H921 H 0.12062 0.20451 0.26271 0.0
H922 H 0.09198 0.26477 0.32471 0.0
H923 H 0.08787 0.25412 0.53271 0.0
C924 C 0.10214 0.21875 0.63651 0.0
C925 C 0.11102 0.20022 0.67855 0.0
C926 C 0.10298 0.22397 0.51754 0.0
C927 C 0.11953 0.18583 0.60098 0.0
C928 C 0.12012 0.19066 0.48221 0.0
C929 C 0.11383 0.21561 0.32174 0.0
C930 C 0.10703 0.23564 0.27931 0.0
C931 C 0.11222 0.20991 0.44007 0.0
C932 C 0.09764 0.24944 0.35616 0.0
C933 C 0.09533 0.2434 0.47474 0.0
H934 H 0.74575 0.84466 0.34702 0.0
H935 H 0.79731 0.93133 0.23274 0.0
H936 H 0.82082 0.94534 0.42039 0.0
H937 H 0.82311 0.93364 0.62269 0.0
H938 H 0.76934 0.84796 0.74153 0.0
H939 H 0.7509 0.83215 0.54561 0.0
C940 C 0.76204 0.8666 0.36357 0.0
C941 C 0.76946 0.88724 0.27747 0.0
C942 C 0.77537 0.87437 0.47183 0.0
C943 C 0.79097 0.91539 0.29884 0.0
C944 C 0.80458 0.92331 0.40573 0.0
C945 C 0.80798 0.91139 0.60472 0.0
C946 C 0.79738 0.89166 0.69514 0.0
C947 C 0.79654 0.90306 0.49354 0.0
C948 C 0.77776 0.86302 0.67173 0.0
C949 C 0.76698 0.85423 0.56044 0.0
H950 H 0.13663 0.91073 0.72754 0.0
H951 H 0.04674 0.87998 0.67989 0.0
H952 H 0.05251 0.8791 0.46947 0.0
H953 H 0.08229 0.88325 0.30249 0.0
H954 H 0.17132 0.91022 0.35048 0.0
H955 H 0.16681 0.9164 0.55901 0.0
C956 C 0.11834 0.9039 0.67102 0.0
C957 C 0.09124 0.89479 0.71872 0.0
C958 C 0.12163 0.90246 0.55104 0.0
C959 C 0.06777 0.88668 0.64486 0.0
C960 C 0.07102 0.88599 0.52482 0.0
C961 C 0.1006 0.89014 0.35852 0.0
C962 C 0.12687 0.89571 0.31183 0.0
C963 C 0.09767 0.89303 0.4776 0.0
C964 C 0.15072 0.90541 0.38499 0.0
C965 C 0.1482 0.90909 0.50378 0.0
H966 H 0.78072 0.53345 0.60003 0.0
H967 H 0.7695 0.6059 0.66126 0.0
H968 H 0.76166 0.59436 0.86709 0.0
H969 H 0.76283 0.56665 0.03156 0.0
H970 H 0.77598 0.49543 0.97274 0.0
H971 H 0.77782 0.50324 0.76275 0.0
C972 C 0.77641 0.54661 0.65828 0.0
C973 C 0.77623 0.57075 0.61614 0.0
C974 C 0.7725 0.5402 0.77672 0.0
C975 C 0.77035 0.58751 0.69228 0.0
C976 C 0.76586 0.58095 0.80999 0.0
C977 C 0.76592 0.55277 0.97271 0.0
C978 C 0.76981 0.53095 0.01694 0.0
C979 C 0.76765 0.55782 0.85339 0.0
C980 C 0.77318 0.51259 0.94021 0.0
C981 C 0.77439 0.51712 0.8205 0.0
H982 H 0.49492 0.25916 0.97129 0.0
H983 H 0.43366 0.17502 0.09108 0.0
H984 H 0.41502 0.1608 0.89544 0.0
H985 H 0.41217 0.1744 0.6962 0.0
H986 H 0.46945 0.26025 0.58403 0.0
H987 H 0.4935 0.27209 0.77103 0.0
C988 C 0.47807 0.23749 0.95368 0.0
C989 C 0.4657 0.2181 0.04436 0.0
C990 C 0.46625 0.23012 0.84306 0.0
C991 C 0.44365 0.19018 0.02178 0.0
C992 C 0.4327 0.18216 0.91032 0.0
C993 C 0.42981 0.19569 0.71325 0.0
C994 C 0.43915 0.21662 0.62761 0.0
C995 C 0.44306 0.20235 0.82155 0.0
C996 C 0.46213 0.244 0.6495 0.0
C997 C 0.47591 0.25068 0.75596 0.0
H998 H 0.75413 0.2141 0.59945 0.0
H999 H 0.84123 0.23423 0.64943 0.0
H1000 H 0.8378 0.24254 0.85672 0.0
H1001 H 0.80934 0.24259 0.02352 0.0
H1002 H 0.72137 0.21986 0.97301 0.0
H1003 H 0.72577 0.21406 0.76486 0.0
C1004 C 0.77221 0.21994 0.65593 0.0
C1005 C 0.79771 0.22332 0.60992 0.0
C1006 C 0.76995 0.22438 0.77419 0.0
C1007 C 0.82124 0.2313 0.68345 0.0
C1008 C 0.81934 0.23617 0.80161 0.0
C1009 C 0.79127 0.23668 0.96651 0.0
C1010 C 0.76505 0.23144 0.0129 0.0
C1011 C 0.79375 0.23271 0.84773 0.0
C1012 C 0.74178 0.22402 0.93878 0.0
C1013 C 0.74421 0.22048 0.82011 0.0
H1014 H 0.43124 0.89931 0.40293 0.0
H1015 H 0.44586 0.82892 0.34678 0.0
H1016 H 0.4488 0.83712 0.13693 0.0
H1017 H 0.45136 0.86693 0.97321 0.0
H1018 H 0.44039 0.93958 0.0325 0.0
H1019 H 0.43161 0.92773 0.23799 0.0
C1020 C 0.43505 0.88579 0.34463 0.0
C1021 C 0.43898 0.86405 0.38964 0.0
C1022 C 0.43774 0.89126 0.22551 0.0
C1023 C 0.44307 0.84603 0.31365 0.0
C1024 C 0.44493 0.8508 0.19404 0.0
C1025 C 0.4474 0.88036 0.03133 0.0
C1026 C 0.44722 0.90444 0.98859 0.0
C1027 C 0.44313 0.87388 0.14967 0.0
C1028 C 0.44126 0.92124 0.0641 0.0
C1029 C 0.43621 0.91449 0.18156 0.0
H1030 H 0.15744 0.59141 0.31851 0.0
H1031 H 0.09381 0.50864 0.44246 0.0
H1032 H 0.07626 0.49346 0.24685 0.0
H1033 H 0.07435 0.50629 0.04606 0.0
H1034 H 0.13329 0.59135 0.92967 0.0
H1035 H 0.1571 0.60343 0.11633 0.0
C1036 C 0.14025 0.56984 0.30202 0.0
C1037 C 0.12697 0.55111 0.39394 0.0
C1038 C 0.1289 0.56201 0.19093 0.0
C1039 C 0.10462 0.52327 0.37248 0.0
C1040 C 0.09424 0.5147 0.2608 0.0
C1041 C 0.09236 0.52743 0.06191 0.0
C1042 C 0.10208 0.54807 0.97513 0.0
C1043 C 0.10539 0.53437 0.17048 0.0
C1044 C 0.12553 0.57527 -0.00425 0.0
C1045 C 0.13922 0.58213 0.10224 0.0
H1046 H 0.40807 0.5136 0.33204 0.0
H1047 H 0.44492 0.60468 0.32588 0.0
H1048 H 0.45492 0.60526 0.1168 0.0
H1049 H 0.45698 0.58001 0.94273 0.0
H1050 H 0.42557 0.48973 0.95497 0.0
H1051 H 0.40929 0.4882 0.15594 0.0
C1052 C 0.41843 0.53346 0.28416 0.0
C1053 C 0.42641 0.55909 0.34197 0.0
C1054 C 0.42531 0.53364 0.16697 0.0
C1055 C 0.43891 0.58483 0.28112 0.0
C1056 C 0.44476 0.58513 0.1627 0.0
C1057 C 0.44679 0.56012 0.99027 0.0
C1058 C 0.44262 0.53506 0.93695 0.0
C1059 C 0.43879 0.55975 0.10595 0.0
C1060 C 0.42935 0.50924 -0.00292 0.0
C1061 C 0.42009 0.50841 0.11109 0.0
loop_
_geom_bond_atom_site_label_1
_geom_bond_atom_site_label_2
_geom_bond_distance
_geom_bond_site_symmetry_2
_ccdc_geom_bond_type
Cd0 N3 2.334 1_556 S
Cd0 N29 2.304 . S
Cd0 O36 2.265 1_556 S
Cd0 O39 2.276 . S
Cd0 O40 2.415 1_556 S
Cd0 O41 2.331 . S
Cd1 N16 2.304 1_554 S
Cd1 N20 2.334 . S
Cd1 O37 2.273 . S
Cd1 O38 2.268 1_554 S
Cd1 O42 2.417 1_554 S
Cd1 O43 2.330 . S
C2 N3 1.332 1_556 S
C2 C6 1.381 . S
C2 H8 0.931 . S
N3 Cd0 2.334 1_554 S
N3 C2 1.332 1_554 S
N3 C7 1.328 . S
C4 C5 1.396 . S
C4 C7 1.378 . S
C4 H46 0.931 . S
C5 C4 1.396 . S
C5 C6 1.382 1_554 S
C6 C2 1.381 . S
C6 C5 1.382 1_556 S
C6 H47 0.930 . S
C7 N3 1.328 . S
C7 C4 1.378 . S
C7 H9 0.930 . S
H8 C2 0.931 . S
H9 C7 0.930 . S
C10 O36 1.238 . S
C10 O37 1.253 . S
C11 C12 1.379 . S
C11 N16 1.337 1_554 S
C11 H17 0.929 . S
C12 C11 1.379 . S
C12 C13 1.380 1_554 S
C12 H48 0.929 . S
C13 C12 1.380 1_556 S
C13 C14 1.399 . S
C14 C13 1.399 . S
C14 C15 1.376 . S
C14 H49 0.931 . S
C15 C14 1.376 . S
C15 N16 1.338 . S
C15 H18 0.930 . S
N16 Cd1 2.304 1_556 S
N16 C11 1.337 1_556 S
N16 C15 1.338 . S
H17 C11 0.929 . S
H18 C15 0.930 . S
C19 N20 1.332 . S
C19 C23 1.381 . S
C19 H25 0.931 . S
N20 Cd1 2.334 . S
N20 C19 1.332 . S
N20 C24 1.328 1_554 S
C21 C22 1.396 1_556 S
C21 C24 1.378 . S
C21 H50 0.931 . S
C22 C21 1.396 1_554 S
C22 C23 1.382 . S
C23 C19 1.381 . S
C23 C22 1.382 . S
C23 H51 0.930 . S
C24 N20 1.328 1_556 S
C24 C21 1.378 . S
C24 H26 0.930 . S
H25 C19 0.931 . S
H26 C24 0.930 . S
C27 O38 1.238 . S
C27 O39 1.253 . S
C28 O40 1.239 . S
C28 O41 1.230 1_554 S
N29 Cd0 2.304 . S
N29 C30 1.343 . S
N29 C34 1.333 1_556 S
C30 N29 1.343 . S
C30 C31 1.379 . S
C30 H44 0.929 . S
C31 C30 1.379 . S
C31 C32 1.380 . S
C31 H52 0.929 . S
C32 C31 1.380 . S
C32 C33 1.399 1_556 S
C33 C32 1.399 1_554 S
C33 C34 1.376 . S
C33 H53 0.931 . S
C34 N29 1.333 1_554 S
C34 C33 1.376 . S
C34 H45 0.930 . S
C35 O42 1.239 . S
C35 O43 1.230 1_556 S
O36 Cd0 2.265 1_554 S
O36 C10 1.238 . S
O37 Cd1 2.273 . S
O37 C10 1.253 . S
O38 Cd1 2.268 1_556 S
O38 C27 1.238 . S
O39 Cd0 2.276 . S
O39 C27 1.253 . S
O40 Cd0 2.415 1_554 S
O40 C28 1.239 . S
O41 Cd0 2.331 . S
O41 C28 1.230 1_556 S
O42 Cd1 2.417 1_556 S
O42 C35 1.239 . S
O43 Cd1 2.330 . S
O43 C35 1.230 1_554 S
H44 C30 0.929 . S
H45 C34 0.930 . S
H46 C4 0.931 . S
H47 C6 0.930 . S
H48 C12 0.929 . S
H49 C14 0.931 . S
H50 C21 0.931 . S
H51 C23 0.930 . S
H52 C31 0.929 . S
H53 C33 0.931 . S
Cd54 N57 2.334 1_556 S
Cd54 N83 2.304 . S
Cd54 O90 2.265 1_556 S
Cd54 O93 2.276 . S
Cd54 O94 2.415 1_556 S
Cd54 O95 2.331 . S
Cd55 N70 2.304 1_554 S
Cd55 N74 2.334 . S
Cd55 O91 2.273 . S
Cd55 O92 2.268 1_554 S
Cd55 O96 2.417 1_554 S
Cd55 O97 2.330 . S
C56 N57 1.332 1_556 S
C56 C60 1.381 . S
C56 H62 0.931 . S
N57 Cd54 2.334 1_554 S
N57 C56 1.332 1_554 S
N57 C61 1.328 . S
C58 C59 1.396 . S
C58 C61 1.378 . S
C58 H100 0.931 . S
C59 C58 1.396 . S
C59 C60 1.382 1_554 S
C60 C56 1.381 . S
C60 C59 1.382 1_556 S
C60 H101 0.930 . S
C61 N57 1.328 . S
C61 C58 1.378 . S
C61 H63 0.930 . S
H62 C56 0.931 . S
H63 C61 0.930 . S
C64 O90 1.238 . S
C64 O91 1.253 . S
C65 C66 1.379 . S
C65 N70 1.337 1_554 S
C65 H71 0.929 . S
C66 C65 1.379 . S
C66 C67 1.380 1_554 S
C66 H102 0.929 . S
C67 C66 1.380 1_556 S
C67 C68 1.399 . S
C68 C67 1.399 . S
C68 C69 1.376 . S
C68 H103 0.931 . S
C69 C68 1.376 . S
C69 N70 1.338 . S
C69 H72 0.930 . S
N70 Cd55 2.304 1_556 S
N70 C65 1.337 1_556 S
N70 C69 1.338 . S
H71 C65 0.929 . S
H72 C69 0.930 . S
C73 N74 1.332 . S
C73 C77 1.381 . S
C73 H79 0.931 . S
N74 Cd55 2.334 . S
N74 C73 1.332 . S
N74 C78 1.328 1_554 S
C75 C76 1.396 1_556 S
C75 C78 1.378 . S
C75 H104 0.931 . S
C76 C75 1.396 1_554 S
C76 C77 1.382 . S
C77 C73 1.381 . S
C77 C76 1.382 . S
C77 H105 0.930 . S
C78 N74 1.328 1_556 S
C78 C75 1.378 . S
C78 H80 0.930 . S
H79 C73 0.931 . S
H80 C78 0.930 . S
C81 O92 1.238 . S
C81 O93 1.253 . S
C82 O94 1.239 . S
C82 O95 1.230 1_554 S
N83 Cd54 2.304 . S
N83 C84 1.343 . S
N83 C88 1.333 1_556 S
C84 N83 1.343 . S
C84 C85 1.379 . S
C84 H98 0.929 . S
C85 C84 1.379 . S
C85 C86 1.380 . S
C85 H106 0.929 . S
C86 C85 1.380 . S
C86 C87 1.399 1_556 S
C87 C86 1.399 1_554 S
C87 C88 1.376 . S
C87 H107 0.931 . S
C88 N83 1.333 1_554 S
C88 C87 1.376 . S
C88 H99 0.930 . S
C89 O96 1.239 . S
C89 O97 1.230 1_556 S
O90 Cd54 2.265 1_554 S
O90 C64 1.238 . S
O91 Cd55 2.273 . S
O91 C64 1.253 . S
O92 Cd55 2.268 1_556 S
O92 C81 1.238 . S
O93 Cd54 2.276 . S
O93 C81 1.253 . S
O94 Cd54 2.415 1_554 S
O94 C82 1.239 . S
O95 Cd54 2.331 . S
O95 C82 1.230 1_556 S
O96 Cd55 2.417 1_556 S
O96 C89 1.239 . S
O97 Cd55 2.330 . S
O97 C89 1.230 1_554 S
H98 C84 0.929 . S
H99 C88 0.930 . S
H100 C58 0.931 . S
H101 C60 0.930 . S
H102 C66 0.929 . S
H103 C68 0.931 . S
H104 C75 0.931 . S
H105 C77 0.930 . S
H106 C85 0.929 . S
H107 C87 0.931 . S
Cd108 N111 2.334 1_556 S
Cd108 N137 2.304 . S
Cd108 O144 2.264 1_556 S
Cd108 O147 2.277 . S
Cd108 O148 2.414 1_556 S
Cd108 O149 2.331 . S
Cd109 N124 2.304 1_554 S
Cd109 N128 2.334 . S
Cd109 O145 2.273 . S
Cd109 O146 2.268 1_554 S
Cd109 O150 2.417 1_554 S
Cd109 O151 2.330 . S
C110 N111 1.332 1_556 S
C110 C114 1.381 . S
C110 H116 0.931 . S
N111 Cd108 2.334 1_554 S
N111 C110 1.332 1_554 S
N111 C115 1.328 . S
C112 C113 1.396 . S
C112 C115 1.378 . S
C112 H154 0.931 . S
C113 C112 1.396 . S
C113 C114 1.382 1_554 S
C114 C110 1.381 . S
C114 C113 1.382 1_556 S
C114 H155 0.930 . S
C115 N111 1.328 . S
C115 C112 1.378 . S
C115 H117 0.930 . S
H116 C110 0.931 . S
H117 C115 0.930 . S
C118 O144 1.238 . S
C118 O145 1.253 . S
C119 C120 1.379 . S
C119 N124 1.337 1_554 S
C119 H125 0.929 . S
C120 C119 1.379 . S
C120 C121 1.380 1_554 S
C120 H156 0.929 . S
C121 C120 1.380 1_556 S
C121 C122 1.399 . S
C122 C121 1.399 . S
C122 C123 1.376 . S
C122 H157 0.931 . S
C123 C122 1.376 . S
C123 N124 1.338 . S
C123 H126 0.930 . S
N124 Cd109 2.304 1_556 S
N124 C119 1.337 1_556 S
N124 C123 1.338 . S
H125 C119 0.929 . S
H126 C123 0.930 . S
C127 N128 1.332 . S
C127 C131 1.381 . S
C127 H133 0.931 . S
N128 Cd109 2.334 . S
N128 C127 1.332 . S
N128 C132 1.328 1_554 S
C129 C130 1.396 1_556 S
C129 C132 1.378 . S
C129 H158 0.931 . S
C130 C129 1.396 1_554 S
C130 C131 1.382 . S
C131 C127 1.381 . S
C131 C130 1.382 . S
C131 H159 0.930 . S
C132 N128 1.328 1_556 S
C132 C129 1.378 . S
C132 H134 0.930 . S
H133 C127 0.931 . S
H134 C132 0.930 . S
C135 O146 1.238 . S
C135 O147 1.253 . S
C136 O148 1.239 . S
C136 O149 1.230 1_554 S
N137 Cd108 2.304 . S
N137 C138 1.344 . S
N137 C142 1.332 1_556 S
C138 N137 1.344 . S
C138 C139 1.379 . S
C138 H152 0.929 . S
C139 C138 1.379 . S
C139 C140 1.380 . S
C139 H160 0.929 . S
C140 C139 1.380 . S
C140 C141 1.399 1_556 S
C141 C140 1.399 1_554 S
C141 C142 1.376 . S
C141 H161 0.931 . S
C142 N137 1.332 1_554 S
C142 C141 1.376 . S
C142 H153 0.930 . S
C143 O150 1.239 . S
C143 O151 1.230 1_556 S
O144 Cd108 2.264 1_554 S
O144 C118 1.238 . S
O145 Cd109 2.273 . S
O145 C118 1.253 . S
O146 Cd109 2.268 1_556 S
O146 C135 1.238 . S
O147 Cd108 2.277 . S
O147 C135 1.253 . S
O148 Cd108 2.414 1_554 S
O148 C136 1.239 . S
O149 Cd108 2.331 . S
O149 C136 1.230 1_556 S
O150 Cd109 2.417 1_556 S
O150 C143 1.239 . S
O151 Cd109 2.330 . S
O151 C143 1.230 1_554 S
H152 C138 0.929 . S
H153 C142 0.930 . S
H154 C112 0.931 . S
H155 C114 0.930 . S
H156 C120 0.929 . S
H157 C122 0.931 . S
H158 C129 0.931 . S
H159 C131 0.930 . S
H160 C139 0.929 . S
H161 C141 0.931 . S
Cd162 N165 2.334 . S
Cd162 N191 2.304 . S
Cd162 O198 2.268 . S
Cd162 O201 2.273 . S
Cd162 O202 2.417 . S
Cd162 O203 2.330 . S
Cd163 N178 2.304 . S
Cd163 N182 2.334 . S
Cd163 O199 2.273 . S
Cd163 O200 2.268 . S
Cd163 O204 2.417 . S
Cd163 O205 2.330 . S
C164 N165 1.332 . S
C164 C168 1.381 . S
C164 H170 0.931 . S
N165 Cd162 2.334 . S
N165 C164 1.332 . S
N165 C169 1.328 . S
C166 C167 1.396 . S
C166 C169 1.378 . S
C166 H208 0.931 . S
C167 C166 1.396 . S
C167 C168 1.382 . S
C168 C164 1.381 . S
C168 C167 1.382 . S
C168 H209 0.930 . S
C169 N165 1.328 . S
C169 C166 1.378 . S
C169 H171 0.930 . S
H170 C164 0.931 . S
H171 C169 0.930 . S
C172 O198 1.238 . S
C172 O199 1.253 . S
C173 C174 1.379 . S
C173 N178 1.337 . S
C173 H179 0.929 . S
C174 C173 1.379 . S
C174 C175 1.380 . S
C174 H210 0.929 . S
C175 C174 1.380 . S
C175 C176 1.399 . S
C176 C175 1.399 . S
C176 C177 1.376 . S
C176 H211 0.931 . S
C177 C176 1.376 . S
C177 N178 1.338 . S
C177 H180 0.930 . S
N178 Cd163 2.304 . S
N178 C173 1.337 . S
N178 C177 1.338 . S
H179 C173 0.929 . S
H180 C177 0.930 . S
C181 N182 1.332 . S
C181 C185 1.381 . S
C181 H187 0.931 . S
N182 Cd163 2.334 . S
N182 C181 1.332 . S
N182 C186 1.328 . S
C183 C184 1.396 . S
C183 C186 1.378 . S
C183 H212 0.931 . S
C184 C183 1.396 . S
C184 C185 1.382 . S
C185 C181 1.381 . S
C185 C184 1.382 . S
C185 H213 0.930 . S
C186 N182 1.328 . S
C186 C183 1.378 . S
C186 H188 0.930 . S
H187 C181 0.931 . S
H188 C186 0.930 . S
C189 O200 1.238 . S
C189 O201 1.253 . S
C190 O202 1.239 . S
C190 O203 1.230 . S
N191 Cd162 2.304 . S
N191 C192 1.337 . S
N191 C196 1.338 . S
C192 N191 1.337 . S
C192 C193 1.379 . S
C192 H206 0.929 . S
C193 C192 1.379 . S
C193 C194 1.380 . S
C193 H214 0.929 . S
C194 C193 1.380 . S
C194 C195 1.399 . S
C195 C194 1.399 . S
C195 C196 1.376 . S
C195 H215 0.931 . S
C196 N191 1.338 . S
C196 C195 1.376 . S
C196 H207 0.930 . S
C197 O204 1.239 . S
C197 O205 1.230 . S
O198 Cd162 2.268 . S
O198 C172 1.238 . S
O199 Cd163 2.273 . S
O199 C172 1.253 . S
O200 Cd163 2.268 . S
O200 C189 1.238 . S
O201 Cd162 2.273 . S
O201 C189 1.253 . S
O202 Cd162 2.417 . S
O202 C190 1.239 . S
O203 Cd162 2.330 . S
O203 C190 1.230 . S
O204 Cd163 2.417 . S
O204 C197 1.239 . S
O205 Cd163 2.330 . S
O205 C197 1.230 . S
H206 C192 0.929 . S
H207 C196 0.930 . S
H208 C166 0.931 . S
H209 C168 0.930 . S
H210 C174 0.929 . S
H211 C176 0.931 . S
H212 C183 0.931 . S
H213 C185 0.930 . S
H214 C193 0.929 . S
H215 C195 0.931 . S
Cd216 N219 2.334 . S
Cd216 N245 2.304 . S
Cd216 O252 2.268 . S
Cd216 O255 2.273 . S
Cd216 O256 2.417 . S
Cd216 O257 2.330 . S
Cd217 N232 2.304 . S
Cd217 N236 2.334 . S
Cd217 O253 2.273 . S
Cd217 O254 2.268 . S
Cd217 O258 2.417 . S
Cd217 O259 2.330 . S
C218 N219 1.332 . S
C218 C222 1.381 . S
C218 H224 0.931 . S
N219 Cd216 2.334 . S
N219 C218 1.332 . S
N219 C223 1.328 . S
C220 C221 1.396 . S
C220 C223 1.378 . S
C220 H262 0.931 . S
C221 C220 1.396 . S
C221 C222 1.382 . S
C222 C218 1.381 . S
C222 C221 1.382 . S
C222 H263 0.930 . S
C223 N219 1.328 . S
C223 C220 1.378 . S
C223 H225 0.930 . S
H224 C218 0.931 . S
H225 C223 0.930 . S
C226 O252 1.238 . S
C226 O253 1.253 . S
C227 C228 1.379 . S
C227 N232 1.337 . S
C227 H233 0.929 . S
C228 C227 1.379 . S
C228 C229 1.380 . S
C228 H264 0.929 . S
C229 C228 1.380 . S
C229 C230 1.399 . S
C230 C229 1.399 . S
C230 C231 1.376 . S
C230 H265 0.931 . S
C231 C230 1.376 . S
C231 N232 1.338 . S
C231 H234 0.930 . S
N232 Cd217 2.304 . S
N232 C227 1.337 . S
N232 C231 1.338 . S
H233 C227 0.929 . S
H234 C231 0.930 . S
C235 N236 1.332 . S
C235 C239 1.381 . S
C235 H241 0.931 . S
N236 Cd217 2.334 . S
N236 C235 1.332 . S
N236 C240 1.328 . S
C237 C238 1.396 . S
C237 C240 1.378 . S
C237 H266 0.931 . S
C238 C237 1.396 . S
C238 C239 1.382 . S
C239 C235 1.381 . S
C239 C238 1.382 . S
C239 H267 0.930 . S
C240 N236 1.328 . S
C240 C237 1.378 . S
C240 H242 0.930 . S
H241 C235 0.931 . S
H242 C240 0.930 . S
C243 O254 1.238 . S
C243 O255 1.253 . S
C244 O256 1.239 . S
C244 O257 1.230 . S
N245 Cd216 2.304 . S
N245 C246 1.337 . S
N245 C250 1.338 . S
C246 N245 1.337 . S
C246 C247 1.379 . S
C246 H260 0.929 . S
C247 C246 1.379 . S
C247 C248 1.380 . S
C247 H268 0.929 . S
C248 C247 1.380 . S
C248 C249 1.399 . S
C249 C248 1.399 . S
C249 C250 1.376 . S
C249 H269 0.931 . S
C250 N245 1.338 . S
C250 C249 1.376 . S
C250 H261 0.930 . S
C251 O258 1.239 . S
C251 O259 1.230 . S
O252 Cd216 2.268 . S
O252 C226 1.238 . S
O253 Cd217 2.273 . S
O253 C226 1.253 . S
O254 Cd217 2.268 . S
O254 C243 1.238 . S
O255 Cd216 2.273 . S
O255 C243 1.253 . S
O256 Cd216 2.417 . S
O256 C244 1.239 . S
O257 Cd216 2.330 . S
O257 C244 1.230 . S
O258 Cd217 2.417 . S
O258 C251 1.239 . S
O259 Cd217 2.330 . S
O259 C251 1.230 . S
H260 C246 0.929 . S
H261 C250 0.930 . S
H262 C220 0.931 . S
H263 C222 0.930 . S
H264 C228 0.929 . S
H265 C230 0.931 . S
H266 C237 0.931 . S
H267 C239 0.930 . S
H268 C247 0.929 . S
H269 C249 0.931 . S
Cd270 N273 2.334 . S
Cd270 N299 2.304 . S
Cd270 O306 2.268 . S
Cd270 O309 2.273 . S
Cd270 O310 2.417 . S
Cd270 O311 2.330 . S
Cd271 N286 2.304 . S
Cd271 N290 2.334 . S
Cd271 O307 2.273 . S
Cd271 O308 2.268 . S
Cd271 O312 2.417 . S
Cd271 O313 2.330 . S
C272 N273 1.332 . S
C272 C276 1.381 . S
C272 H278 0.931 . S
N273 Cd270 2.334 . S
N273 C272 1.332 . S
N273 C277 1.328 . S
C274 C275 1.396 . S
C274 C277 1.378 . S
C274 H316 0.931 . S
C275 C274 1.396 . S
C275 C276 1.382 . S
C276 C272 1.381 . S
C276 C275 1.382 . S
C276 H317 0.930 . S
C277 N273 1.328 . S
C277 C274 1.378 . S
C277 H279 0.930 . S
H278 C272 0.931 . S
H279 C277 0.930 . S
C280 O306 1.238 . S
C280 O307 1.253 . S
C281 C282 1.379 . S
C281 N286 1.337 . S
C281 H287 0.929 . S
C282 C281 1.379 . S
C282 C283 1.380 . S
C282 H318 0.929 . S
C283 C282 1.380 . S
C283 C284 1.399 . S
C284 C283 1.399 . S
C284 C285 1.376 . S
C284 H319 0.931 . S
C285 C284 1.376 . S
C285 N286 1.338 . S
C285 H288 0.930 . S
N286 Cd271 2.304 . S
N286 C281 1.337 . S
N286 C285 1.338 . S
H287 C281 0.929 . S
H288 C285 0.930 . S
C289 N290 1.332 . S
C289 C293 1.381 . S
C289 H295 0.931 . S
N290 Cd271 2.334 . S
N290 C289 1.332 . S
N290 C294 1.328 . S
C291 C292 1.396 . S
C291 C294 1.378 . S
C291 H320 0.931 . S
C292 C291 1.396 . S
C292 C293 1.382 . S
C293 C289 1.381 . S
C293 C292 1.382 . S
C293 H321 0.930 . S
C294 N290 1.328 . S
C294 C291 1.378 . S
C294 H296 0.930 . S
H295 C289 0.931 . S
H296 C294 0.930 . S
C297 O308 1.238 . S
C297 O309 1.253 . S
C298 O310 1.239 . S
C298 O311 1.230 . S
N299 Cd270 2.304 . S
N299 C300 1.337 . S
N299 C304 1.338 . S
C300 N299 1.337 . S
C300 C301 1.379 . S
C300 H314 0.929 . S
C301 C300 1.379 . S
C301 C302 1.380 . S
C301 H322 0.929 . S
C302 C301 1.380 . S
C302 C303 1.399 . S
C303 C302 1.399 . S
C303 C304 1.376 . S
C303 H323 0.931 . S
C304 N299 1.338 . S
C304 C303 1.376 . S
C304 H315 0.930 . S
C305 O312 1.239 . S
C305 O313 1.230 . S
O306 Cd270 2.268 . S
O306 C280 1.238 . S
O307 Cd271 2.273 . S
O307 C280 1.253 . S
O308 Cd271 2.268 . S
O308 C297 1.238 . S
O309 Cd270 2.273 . S
O309 C297 1.253 . S
O310 Cd270 2.417 . S
O310 C298 1.239 . S
O311 Cd270 2.330 . S
O311 C298 1.230 . S
O312 Cd271 2.417 . S
O312 C305 1.239 . S
O313 Cd271 2.330 . S
O313 C305 1.230 . S
H314 C300 0.929 . S
H315 C304 0.930 . S
H316 C274 0.931 . S
H317 C276 0.930 . S
H318 C282 0.929 . S
H319 C284 0.931 . S
H320 C291 0.931 . S
H321 C293 0.930 . S
H322 C301 0.929 . S
H323 C303 0.931 . S
Cd324 N327 2.334 . S
Cd324 N353 2.304 . S
Cd324 O360 2.268 . S
Cd324 O363 2.273 . S
Cd324 O364 2.417 . S
Cd324 O365 2.330 . S
Cd325 N340 2.304 . S
Cd325 N344 2.334 . S
Cd325 O361 2.273 . S
Cd325 O362 2.268 . S
Cd325 O366 2.417 . S
Cd325 O367 2.330 . S
C326 N327 1.332 . S
C326 C330 1.381 . S
C326 H332 0.931 . S
N327 Cd324 2.334 . S
N327 C326 1.332 . S
N327 C331 1.328 . S
C328 C329 1.396 . S
C328 C331 1.378 . S
C328 H370 0.931 . S
C329 C328 1.396 . S
C329 C330 1.382 . S
C330 C326 1.381 . S
C330 C329 1.382 . S
C330 H371 0.930 . S
C331 N327 1.328 . S
C331 C328 1.378 . S
C331 H333 0.930 . S
H332 C326 0.931 . S
H333 C331 0.930 . S
C334 O360 1.238 . S
C334 O361 1.253 . S
C335 C336 1.379 . S
C335 N340 1.337 . S
C335 H341 0.929 . S
C336 C335 1.379 . S
C336 C337 1.380 . S
C336 H372 0.929 . S
C337 C336 1.380 . S
C337 C338 1.399 . S
C338 C337 1.399 . S
C338 C339 1.376 . S
C338 H373 0.931 . S
C339 C338 1.376 . S
C339 N340 1.338 . S
C339 H342 0.930 . S
N340 Cd325 2.304 . S
N340 C335 1.337 . S
N340 C339 1.338 . S
H341 C335 0.929 . S
H342 C339 0.930 . S
C343 N344 1.332 . S
C343 C347 1.381 . S
C343 H349 0.931 . S
N344 Cd325 2.334 . S
N344 C343 1.332 . S
N344 C348 1.328 . S
C345 C346 1.396 . S
C345 C348 1.378 . S
C345 H374 0.931 . S
C346 C345 1.396 . S
C346 C347 1.382 . S
C347 C343 1.381 . S
C347 C346 1.382 . S
C347 H375 0.930 . S
C348 N344 1.328 . S
C348 C345 1.378 . S
C348 H350 0.930 . S
H349 C343 0.931 . S
H350 C348 0.930 . S
C351 O362 1.238 . S
C351 O363 1.253 . S
C352 O364 1.239 . S
C352 O365 1.230 . S
N353 Cd324 2.304 . S
N353 C354 1.337 . S
N353 C358 1.338 . S
C354 N353 1.337 . S
C354 C355 1.379 . S
C354 H368 0.929 . S
C355 C354 1.379 . S
C355 C356 1.380 . S
C355 H376 0.929 . S
C356 C355 1.380 . S
C356 C357 1.399 . S
C357 C356 1.399 . S
C357 C358 1.376 . S
C357 H377 0.931 . S
C358 N353 1.338 . S
C358 C357 1.376 . S
C358 H369 0.930 . S
C359 O366 1.239 . S
C359 O367 1.230 . S
O360 Cd324 2.268 . S
O360 C334 1.238 . S
O361 Cd325 2.273 . S
O361 C334 1.253 . S
O362 Cd325 2.268 . S
O362 C351 1.238 . S
O363 Cd324 2.273 . S
O363 C351 1.253 . S
O364 Cd324 2.417 . S
O364 C352 1.239 . S
O365 Cd324 2.330 . S
O365 C352 1.230 . S
O366 Cd325 2.417 . S
O366 C359 1.239 . S
O367 Cd325 2.330 . S
O367 C359 1.230 . S
H368 C354 0.929 . S
H369 C358 0.930 . S
H370 C328 0.931 . S
H371 C330 0.930 . S
H372 C336 0.929 . S
H373 C338 0.931 . S
H374 C345 0.931 . S
H375 C347 0.930 . S
H376 C355 0.929 . S
H377 C357 0.931 . S
Cd378 N381 2.334 . S
Cd378 N407 2.304 . S
Cd378 O414 2.268 . S
Cd378 O417 2.273 . S
Cd378 O418 2.417 . S
Cd378 O419 2.330 . S
Cd379 N394 2.304 . S
Cd379 N398 2.334 . S
Cd379 O415 2.273 . S
Cd379 O416 2.268 . S
Cd379 O420 2.417 . S
Cd379 O421 2.330 . S
C380 N381 1.332 . S
C380 C384 1.381 . S
C380 H386 0.931 . S
N381 Cd378 2.334 . S
N381 C380 1.332 . S
N381 C385 1.328 . S
C382 C383 1.396 . S
C382 C385 1.378 . S
C382 H424 0.931 . S
C383 C382 1.396 . S
C383 C384 1.382 . S
C384 C380 1.381 . S
C384 C383 1.382 . S
C384 H425 0.930 . S
C385 N381 1.328 . S
C385 C382 1.378 . S
C385 H387 0.930 . S
H386 C380 0.931 . S
H387 C385 0.930 . S
C388 O414 1.238 . S
C388 O415 1.253 . S
C389 C390 1.379 . S
C389 N394 1.337 . S
C389 H395 0.929 . S
C390 C389 1.379 . S
C390 C391 1.380 . S
C390 H426 0.929 . S
C391 C390 1.380 . S
C391 C392 1.399 . S
C392 C391 1.399 . S
C392 C393 1.376 . S
C392 H427 0.931 . S
C393 C392 1.376 . S
C393 N394 1.338 . S
C393 H396 0.930 . S
N394 Cd379 2.304 . S
N394 C389 1.337 . S
N394 C393 1.338 . S
H395 C389 0.929 . S
H396 C393 0.930 . S
C397 N398 1.332 . S
C397 C401 1.381 . S
C397 H403 0.931 . S
N398 Cd379 2.334 . S
N398 C397 1.332 . S
N398 C402 1.328 . S
C399 C400 1.396 . S
C399 C402 1.378 . S
C399 H428 0.931 . S
C400 C399 1.396 . S
C400 C401 1.382 . S
C401 C397 1.381 . S
C401 C400 1.382 . S
C401 H429 0.930 . S
C402 N398 1.328 . S
C402 C399 1.378 . S
C402 H404 0.930 . S
H403 C397 0.931 . S
H404 C402 0.930 . S
C405 O416 1.238 . S
C405 O417 1.253 . S
C406 O418 1.239 . S
C406 O419 1.230 . S
N407 Cd378 2.304 . S
N407 C408 1.337 . S
N407 C412 1.338 . S
C408 N407 1.337 . S
C408 C409 1.379 . S
C408 H422 0.929 . S
C409 C408 1.379 . S
C409 C410 1.380 . S
C409 H430 0.929 . S
C410 C409 1.380 . S
C410 C411 1.399 . S
C411 C410 1.399 . S
C411 C412 1.376 . S
C411 H431 0.931 . S
C412 N407 1.338 . S
C412 C411 1.376 . S
C412 H423 0.930 . S
C413 O420 1.239 . S
C413 O421 1.230 . S
O414 Cd378 2.268 . S
O414 C388 1.238 . S
O415 Cd379 2.273 . S
O415 C388 1.253 . S
O416 Cd379 2.268 . S
O416 C405 1.238 . S
O417 Cd378 2.273 . S
O417 C405 1.253 . S
O418 Cd378 2.417 . S
O418 C406 1.239 . S
O419 Cd378 2.330 . S
O419 C406 1.230 . S
O420 Cd379 2.417 . S
O420 C413 1.239 . S
O421 Cd379 2.330 . S
O421 C413 1.230 . S
H422 C408 0.929 . S
H423 C412 0.930 . S
H424 C382 0.931 . S
H425 C384 0.930 . S
H426 C390 0.929 . S
H427 C392 0.931 . S
H428 C399 0.931 . S
H429 C401 0.930 . S
H430 C409 0.929 . S
H431 C411 0.931 . S
Cd432 N435 2.334 . S
Cd432 N461 2.304 . S
Cd432 O468 2.268 . S
Cd432 O471 2.273 . S
Cd432 O472 2.417 . S
Cd432 O473 2.330 . S
Cd433 N448 2.304 . S
Cd433 N452 2.334 . S
Cd433 O469 2.273 . S
Cd433 O470 2.268 . S
Cd433 O474 2.417 . S
Cd433 O475 2.330 . S
C434 N435 1.332 . S
C434 C438 1.381 . S
C434 H440 0.931 . S
N435 Cd432 2.334 . S
N435 C434 1.332 . S
N435 C439 1.328 . S
C436 C437 1.396 . S
C436 C439 1.378 . S
C436 H478 0.931 . S
C437 C436 1.396 . S
C437 C438 1.382 . S
C438 C434 1.381 . S
C438 C437 1.382 . S
C438 H479 0.930 . S
C439 N435 1.328 . S
C439 C436 1.378 . S
C439 H441 0.930 . S
H440 C434 0.931 . S
H441 C439 0.930 . S
C442 O468 1.238 . S
C442 O469 1.253 . S
C443 C444 1.379 . S
C443 N448 1.337 . S
C443 H449 0.929 . S
C444 C443 1.379 . S
C444 C445 1.380 . S
C444 H480 0.929 . S
C445 C444 1.380 . S
C445 C446 1.399 . S
C446 C445 1.399 . S
C446 C447 1.376 . S
C446 H481 0.931 . S
C447 C446 1.376 . S
C447 N448 1.338 . S
C447 H450 0.930 . S
N448 Cd433 2.304 . S
N448 C443 1.337 . S
N448 C447 1.338 . S
H449 C443 0.929 . S
H450 C447 0.930 . S
C451 N452 1.332 . S
C451 C455 1.381 . S
C451 H457 0.931 . S
N452 Cd433 2.334 . S
N452 C451 1.332 . S
N452 C456 1.328 . S
C453 C454 1.396 . S
C453 C456 1.378 . S
C453 H482 0.931 . S
C454 C453 1.396 . S
C454 C455 1.382 . S
C455 C451 1.381 . S
C455 C454 1.382 . S
C455 H483 0.930 . S
C456 N452 1.328 . S
C456 C453 1.378 . S
C456 H458 0.930 . S
H457 C451 0.931 . S
H458 C456 0.930 . S
C459 O470 1.238 . S
C459 O471 1.253 . S
C460 O472 1.239 . S
C460 O473 1.230 . S
N461 Cd432 2.304 . S
N461 C462 1.337 . S
N461 C466 1.338 . S
C462 N461 1.337 . S
C462 C463 1.379 . S
C462 H476 0.929 . S
C463 C462 1.379 . S
C463 C464 1.380 . S
C463 H484 0.929 . S
C464 C463 1.380 . S
C464 C465 1.399 . S
C465 C464 1.399 . S
C465 C466 1.376 . S
C465 H485 0.931 . S
C466 N461 1.338 . S
C466 C465 1.376 . S
C466 H477 0.930 . S
C467 O474 1.239 . S
C467 O475 1.230 . S
O468 Cd432 2.268 . S
O468 C442 1.238 . S
O469 Cd433 2.273 . S
O469 C442 1.253 . S
O470 Cd433 2.268 . S
O470 C459 1.238 . S
O471 Cd432 2.273 . S
O471 C459 1.253 . S
O472 Cd432 2.417 . S
O472 C460 1.239 . S
O473 Cd432 2.330 . S
O473 C460 1.230 . S
O474 Cd433 2.417 . S
O474 C467 1.239 . S
O475 Cd433 2.330 . S
O475 C467 1.230 . S
H476 C462 0.929 . S
H477 C466 0.930 . S
H478 C436 0.931 . S
H479 C438 0.930 . S
H480 C444 0.929 . S
H481 C446 0.931 . S
H482 C453 0.931 . S
H483 C455 0.930 . S
H484 C463 0.929 . S
H485 C465 0.931 . S
H486 C492 0.930 1_556 S
H487 C495 0.930 . S
H488 C496 0.930 . S
H489 C497 0.930 . S
H490 C500 0.930 . S
H491 C501 0.930 . S
C492 H486 0.930 1_554 S
C492 C493 1.355 . S
C492 C494 1.415 . S
C493 C492 1.355 . S
C493 C495 1.419 . S
C494 C492 1.415 . S
C494 C499 1.425 . S
C494 C501 1.409 . S
C495 H487 0.930 . S
C495 C493 1.419 . S
C495 C496 1.362 . S
C496 H488 0.930 . S
C496 C495 1.362 . S
C496 C499 1.409 . S
C497 H489 0.930 . S
C497 C498 1.355 . S
C497 C499 1.415 . S
C498 C497 1.355 . S
C498 C500 1.419 . S
C499 C494 1.425 . S
C499 C496 1.409 . S
C499 C497 1.415 . S
C500 H490 0.930 . S
C500 C498 1.419 . S
C500 C501 1.362 . S
C501 H491 0.930 . S
C501 C494 1.409 . S
C501 C500 1.362 . S
H502 C508 0.930 . S
H503 C511 0.930 . S
H504 C512 0.930 . S
H505 C513 0.930 1_565 S
H506 C516 0.930 . S
H507 C517 0.930 . S
C508 H502 0.930 . S
C508 C509 1.355 . S
C508 C510 1.415 . S
C509 C508 1.355 . S
C509 C511 1.419 . S
C510 C508 1.415 . S
C510 C515 1.425 . S
C510 C517 1.409 . S
C511 H503 0.930 . S
C511 C509 1.419 . S
C511 C512 1.362 . S
C512 H504 0.930 . S
C512 C511 1.362 . S
C512 C515 1.409 . S
C513 H505 0.930 1_545 S
C513 C514 1.355 . S
C513 C515 1.415 . S
C514 C513 1.355 . S
C514 C516 1.419 1_554 S
C515 C510 1.425 . S
C515 C512 1.409 . S
C515 C513 1.415 . S
C516 H506 0.930 . S
C516 C514 1.419 1_556 S
C516 C517 1.362 1_556 S
C517 H507 0.930 . S
C517 C510 1.409 . S
C517 C516 1.362 1_554 S
H518 C524 0.930 1_556 S
H519 C527 0.930 . S
H520 C528 0.930 1_455 S
H521 C529 0.930 . S
H522 C532 0.930 . S
H523 C533 0.930 . S
C524 H518 0.930 1_554 S
C524 C525 1.339 1_655 S
C524 C526 1.415 . S
C525 C524 1.339 1_455 S
C525 C527 1.429 . S
C526 C524 1.415 . S
C526 C531 1.425 . S
C526 C533 1.409 . S
C527 H519 0.930 . S
C527 C525 1.429 . S
C527 C528 1.362 1_455 S
C528 H520 0.930 1_655 S
C528 C527 1.362 1_655 S
C528 C531 1.409 . S
C529 H521 0.930 . S
C529 C530 1.355 . S
C529 C531 1.415 . S
C530 C529 1.355 . S
C530 C532 1.419 . S
C531 C526 1.425 . S
C531 C528 1.409 . S
C531 C529 1.415 . S
C532 H522 0.930 . S
C532 C530 1.419 . S
C532 C533 1.362 . S
C533 H523 0.930 . S
C533 C526 1.409 . S
C533 C532 1.362 . S
H534 C540 0.930 . S
H535 C543 0.930 . S
H536 C544 0.930 . S
H537 C545 0.930 . S
H538 C548 0.930 . S
H539 C549 0.930 . S
C540 H534 0.930 . S
C540 C541 1.355 . S
C540 C542 1.415 . S
C541 C540 1.355 . S
C541 C543 1.419 . S
C542 C540 1.415 . S
C542 C547 1.425 . S
C542 C549 1.409 . S
C543 H535 0.930 . S
C543 C541 1.419 . S
C543 C544 1.362 . S
C544 H536 0.930 . S
C544 C543 1.362 . S
C544 C547 1.409 . S
C545 H537 0.930 . S
C545 C546 1.355 . S
C545 C547 1.415 . S
C546 C545 1.355 . S
C546 C548 1.419 . S
C547 C542 1.425 . S
C547 C544 1.409 . S
C547 C545 1.415 . S
C548 H538 0.930 . S
C548 C546 1.419 . S
C548 C549 1.362 . S
C549 H539 0.930 . S
C549 C542 1.409 . S
C549 C548 1.362 . S
H550 C556 0.930 . S
H551 C559 0.930 1_556 S
H552 C560 0.930 . S
H553 C561 0.930 . S
H554 C564 0.930 . S
H555 C565 0.930 . S
C556 H550 0.930 . S
C556 C557 1.355 . S
C556 C558 1.415 . S
C557 C556 1.355 . S
C557 C559 1.419 . S
C558 C556 1.415 . S
C558 C563 1.425 . S
C558 C565 1.409 . S
C559 H551 0.930 1_554 S
C559 C557 1.419 . S
C559 C560 1.362 . S
C560 H552 0.930 . S
C560 C559 1.362 . S
C560 C563 1.409 . S
C561 H553 0.930 . S
C561 C562 1.355 . S
C561 C563 1.415 . S
C562 C561 1.355 . S
C562 C564 1.419 . S
C563 C558 1.425 . S
C563 C560 1.409 . S
C563 C561 1.415 . S
C564 H554 0.930 . S
C564 C562 1.419 . S
C564 C565 1.362 . S
C565 H555 0.930 . S
C565 C558 1.409 . S
C565 C564 1.362 . S
H566 C572 0.930 1_556 S
H567 C575 0.930 1_455 S
H568 C576 0.930 . S
H569 C577 0.930 . S
H570 C580 0.930 . S
H571 C581 0.930 . S
C572 H566 0.930 1_554 S
C572 C573 1.355 . S
C572 C574 1.415 . S
C573 C572 1.355 . S
C573 C575 1.419 . S
C574 C572 1.415 . S
C574 C579 1.425 . S
C574 C581 1.409 . S
C575 H567 0.930 1_655 S
C575 C573 1.419 . S
C575 C576 1.362 . S
C576 H568 0.930 . S
C576 C575 1.362 . S
C576 C579 1.409 . S
C577 H569 0.930 . S
C577 C578 1.355 . S
C577 C579 1.415 . S
C578 C577 1.355 . S
C578 C580 1.419 . S
C579 C574 1.425 . S
C579 C576 1.409 . S
C579 C577 1.415 . S
C580 H570 0.930 . S
C580 C578 1.419 . S
C580 C581 1.362 . S
C581 H571 0.930 . S
C581 C574 1.409 . S
C581 C580 1.362 . S
H582 C588 0.930 . S
H583 C591 0.930 . S
H584 C592 0.930 . S
H585 C593 0.930 . S
H586 C596 0.930 . S
H587 C597 0.930 1_455 S
C588 H582 0.930 . S
C588 C589 1.355 . S
C588 C590 1.415 . S
C589 C588 1.355 . S
C589 C591 1.419 . S
C590 C588 1.415 . S
C590 C595 1.425 . S
C590 C597 1.409 . S
C591 H583 0.930 . S
C591 C589 1.419 . S
C591 C592 1.362 . S
C592 H584 0.930 . S
C592 C591 1.362 . S
C592 C595 1.409 . S
C593 H585 0.930 . S
C593 C594 1.355 . S
C593 C595 1.415 . S
C594 C593 1.355 . S
C594 C596 1.419 1_655 S
C595 C590 1.425 . S
C595 C592 1.409 . S
C595 C593 1.415 . S
C596 H586 0.930 . S
C596 C594 1.419 1_455 S
C596 C597 1.362 1_455 S
C597 H587 0.930 1_655 S
C597 C590 1.409 . S
C597 C596 1.362 1_655 S
H598 C604 0.930 . S
H599 C607 0.930 . S
H600 C608 0.930 . S
H601 C609 0.930 . S
H602 C612 0.930 . S
H603 C613 0.930 . S
C604 H598 0.930 . S
C604 C605 1.355 . S
C604 C606 1.415 . S
C605 C604 1.355 . S
C605 C607 1.419 . S
C606 C604 1.415 . S
C606 C611 1.425 . S
C606 C613 1.409 . S
C607 H599 0.930 . S
C607 C605 1.419 . S
C607 C608 1.362 . S
C608 H600 0.930 . S
C608 C607 1.362 . S
C608 C611 1.409 . S
C609 H601 0.930 . S
C609 C610 1.355 . S
C609 C611 1.415 . S
C610 C609 1.355 . S
C610 C612 1.419 . S
C611 C606 1.425 . S
C611 C608 1.409 . S
C611 C609 1.415 . S
C612 H602 0.930 . S
C612 C610 1.419 . S
C612 C613 1.362 . S
C613 H603 0.930 . S
C613 C606 1.409 . S
C613 C612 1.362 . S
H614 C620 0.930 1_565 S
H615 C623 0.930 . S
H616 C624 0.930 . S
H617 C625 0.930 . S
H618 C628 0.930 . S
H619 C629 0.930 . S
C620 H614 0.930 1_545 S
C620 C621 1.355 . S
C620 C622 1.415 . S
C621 C620 1.355 . S
C621 C623 1.419 . S
C622 C620 1.415 . S
C622 C627 1.425 . S
C622 C629 1.409 . S
C623 H615 0.930 . S
C623 C621 1.419 . S
C623 C624 1.362 . S
C624 H616 0.930 . S
C624 C623 1.362 . S
C624 C627 1.409 . S
C625 H617 0.930 . S
C625 C626 1.355 . S
C625 C627 1.415 . S
C626 C625 1.355 . S
C626 C628 1.419 . S
C627 C622 1.425 . S
C627 C624 1.409 . S
C627 C625 1.415 . S
C628 H618 0.930 . S
C628 C626 1.419 . S
C628 C629 1.362 . S
C629 H619 0.930 . S
C629 C622 1.409 . S
C629 C628 1.362 . S
H630 C636 0.930 . S
H631 C639 0.930 . S
H632 C640 0.930 . S
H633 C641 0.930 . S
H634 C644 0.930 1_565 S
H635 C645 0.930 . S
C636 H630 0.930 . S
C636 C637 1.355 . S
C636 C638 1.415 . S
C637 C636 1.355 . S
C637 C639 1.419 . S
C638 C636 1.415 . S
C638 C643 1.425 . S
C638 C645 1.409 . S
C639 H631 0.930 . S
C639 C637 1.419 . S
C639 C640 1.362 . S
C640 H632 0.930 . S
C640 C639 1.362 . S
C640 C643 1.409 . S
C641 H633 0.930 . S
C641 C642 1.355 . S
C641 C643 1.415 . S
C642 C641 1.355 . S
C642 C644 1.419 . S
C643 C638 1.425 . S
C643 C640 1.409 . S
C643 C641 1.415 . S
C644 H634 0.930 1_545 S
C644 C642 1.419 . S
C644 C645 1.362 . S
C645 H635 0.930 . S
C645 C638 1.409 . S
C645 C644 1.362 . S
H646 C652 0.930 . S
H647 C655 0.930 . S
H648 C656 0.930 . S
H649 C657 0.930 . S
H650 C660 0.930 . S
H651 C661 0.930 . S
C652 H646 0.930 . S
C652 C653 1.355 . S
C652 C654 1.415 . S
C653 C652 1.355 . S
C653 C655 1.419 . S
C654 C652 1.415 . S
C654 C659 1.425 . S
C654 C661 1.409 . S
C655 H647 0.930 . S
C655 C653 1.419 . S
C655 C656 1.362 . S
C656 H648 0.930 . S
C656 C655 1.362 . S
C656 C659 1.409 . S
C657 H649 0.930 . S
C657 C658 1.355 . S
C657 C659 1.415 . S
C658 C657 1.355 . S
C658 C660 1.419 . S
C659 C654 1.425 . S
C659 C656 1.409 . S
C659 C657 1.415 . S
C660 H650 0.930 . S
C660 C658 1.419 . S
C660 C661 1.362 . S
C661 H651 0.930 . S
C661 C654 1.409 . S
C661 C660 1.362 . S
H662 C668 0.930 . S
H663 C671 0.930 . S
H664 C672 0.930 . S
H665 C673 0.930 . S
H666 C676 0.930 . S
H667 C677 0.930 . S
C668 H662 0.930 . S
C668 C669 1.355 . S
C668 C670 1.415 . S
C669 C668 1.355 . S
C669 C671 1.419 . S
C670 C668 1.415 . S
C670 C675 1.425 . S
C670 C677 1.409 . S
C671 H663 0.930 . S
C671 C669 1.419 . S
C671 C672 1.362 . S
C672 H664 0.930 . S
C672 C671 1.362 . S
C672 C675 1.409 . S
C673 H665 0.930 . S
C673 C674 1.355 . S
C673 C675 1.415 . S
C674 C673 1.355 . S
C674 C676 1.419 . S
C675 C670 1.425 . S
C675 C672 1.409 . S
C675 C673 1.415 . S
C676 H666 0.930 . S
C676 C674 1.419 . S
C676 C677 1.362 . S
C677 H667 0.930 . S
C677 C670 1.409 . S
C677 C676 1.362 . S
H678 C684 0.930 . S
H679 C687 0.930 . S
H680 C688 0.930 . S
H681 C689 0.930 1_554 S
H682 C692 0.930 . S
H683 C693 0.930 . S
C684 H678 0.930 . S
C684 C685 1.355 . S
C684 C686 1.415 . S
C685 C684 1.355 . S
C685 C687 1.419 . S
C686 C684 1.415 . S
C686 C691 1.425 . S
C686 C693 1.409 . S
C687 H679 0.930 . S
C687 C685 1.419 . S
C687 C688 1.362 . S
C688 H680 0.930 . S
C688 C687 1.362 . S
C688 C691 1.409 . S
C689 H681 0.930 1_556 S
C689 C690 1.355 . S
C689 C691 1.415 . S
C690 C689 1.355 . S
C690 C692 1.419 . S
C691 C686 1.425 . S
C691 C688 1.409 . S
C691 C689 1.415 . S
C692 H682 0.930 . S
C692 C690 1.419 . S
C692 C693 1.362 . S
C693 H683 0.930 . S
C693 C686 1.409 . S
C693 C692 1.362 . S
H694 C700 0.930 . S
H695 C703 0.930 . S
H696 C704 0.930 . S
H697 C705 0.930 . S
H698 C708 0.930 . S
H699 C709 0.930 . S
C700 H694 0.930 . S
C700 C701 1.355 . S
C700 C702 1.415 . S
C701 C700 1.355 . S
C701 C703 1.419 . S
C702 C700 1.415 . S
C702 C707 1.425 . S
C702 C709 1.409 . S
C703 H695 0.930 . S
C703 C701 1.419 . S
C703 C704 1.362 . S
C704 H696 0.930 . S
C704 C703 1.362 . S
C704 C707 1.409 . S
C705 H697 0.930 . S
C705 C706 1.355 . S
C705 C707 1.415 . S
C706 C705 1.355 . S
C706 C708 1.419 . S
C707 C702 1.425 . S
C707 C704 1.409 . S
C707 C705 1.415 . S
C708 H698 0.930 . S
C708 C706 1.419 . S
C708 C709 1.362 . S
C709 H699 0.930 . S
C709 C702 1.409 . S
C709 C708 1.362 . S
H710 C716 0.930 . S
H711 C719 0.930 . S
H712 C720 0.930 1_554 S
H713 C721 0.930 . S
H714 C724 0.930 . S
H715 C725 0.930 . S
C716 H710 0.930 . S
C716 C717 1.355 . S
C716 C718 1.415 . S
C717 C716 1.355 . S
C717 C719 1.419 1_556 S
C718 C716 1.415 . S
C718 C723 1.425 . S
C718 C725 1.409 . S
C719 H711 0.930 . S
C719 C717 1.419 1_554 S
C719 C720 1.362 1_554 S
C720 H712 0.930 1_556 S
C720 C719 1.362 1_556 S
C720 C723 1.409 . S
C721 H713 0.930 . S
C721 C722 1.355 . S
C721 C723 1.415 . S
C722 C721 1.355 . S
C722 C724 1.419 . S
C723 C718 1.425 . S
C723 C720 1.409 . S
C723 C721 1.415 . S
C724 H714 0.930 . S
C724 C722 1.419 . S
C724 C725 1.362 . S
C725 H715 0.930 . S
C725 C718 1.409 . S
C725 C724 1.362 . S
H726 C732 0.930 . S
H727 C735 0.930 . S
H728 C736 0.930 . S
H729 C737 0.930 . S
H730 C740 0.930 . S
H731 C741 0.930 . S
C732 H726 0.930 . S
C732 C733 1.355 . S
C732 C734 1.415 . S
C733 C732 1.355 . S
C733 C735 1.419 . S
C734 C732 1.415 . S
C734 C739 1.425 . S
C734 C741 1.409 . S
C735 H727 0.930 . S
C735 C733 1.419 . S
C735 C736 1.362 . S
C736 H728 0.930 . S
C736 C735 1.362 . S
C736 C739 1.409 . S
C737 H729 0.930 . S
C737 C738 1.355 . S
C737 C739 1.415 . S
C738 C737 1.355 . S
C738 C740 1.419 . S
C739 C734 1.425 . S
C739 C736 1.409 . S
C739 C737 1.415 . S
C740 H730 0.930 . S
C740 C738 1.419 . S
C740 C741 1.362 . S
C741 H731 0.930 . S
C741 C734 1.409 . S
C741 C740 1.362 . S
H742 C748 0.930 . S
H743 C751 0.930 . S
H744 C752 0.930 . S
H745 C753 0.930 . S
H746 C756 0.930 . S
H747 C757 0.930 . S
C748 H742 0.930 . S
C748 C749 1.355 . S
C748 C750 1.415 . S
C749 C748 1.355 . S
C749 C751 1.419 . S
C750 C748 1.415 . S
C750 C755 1.425 . S
C750 C757 1.409 . S
C751 H743 0.930 . S
C751 C749 1.419 . S
C751 C752 1.362 . S
C752 H744 0.930 . S
C752 C751 1.362 . S
C752 C755 1.409 . S
C753 H745 0.930 . S
C753 C754 1.355 . S
C753 C755 1.415 . S
C754 C753 1.355 . S
C754 C756 1.419 . S
C755 C750 1.425 . S
C755 C752 1.409 . S
C755 C753 1.415 . S
C756 H746 0.930 . S
C756 C754 1.419 . S
C756 C757 1.362 . S
C757 H747 0.930 . S
C757 C750 1.409 . S
C757 C756 1.362 . S
H758 C764 0.930 . S
H759 C767 0.930 . S
H760 C768 0.930 . S
H761 C769 0.930 . S
H762 C772 0.930 . S
H763 C773 0.930 . S
C764 H758 0.930 . S
C764 C765 1.355 . S
C764 C766 1.415 . S
C765 C764 1.355 . S
C765 C767 1.419 . S
C766 C764 1.415 . S
C766 C771 1.425 . S
C766 C773 1.409 . S
C767 H759 0.930 . S
C767 C765 1.419 . S
C767 C768 1.362 . S
C768 H760 0.930 . S
C768 C767 1.362 . S
C768 C771 1.409 . S
C769 H761 0.930 . S
C769 C770 1.355 . S
C769 C771 1.415 . S
C770 C769 1.355 . S
C770 C772 1.419 . S
C771 C766 1.425 . S
C771 C768 1.409 . S
C771 C769 1.415 . S
C772 H762 0.930 . S
C772 C770 1.419 . S
C772 C773 1.362 . S
C773 H763 0.930 . S
C773 C766 1.409 . S
C773 C772 1.362 . S
H774 C780 0.930 . S
H775 C783 0.930 . S
H776 C784 0.930 . S
H777 C785 0.930 . S
H778 C788 0.930 . S
H779 C789 0.930 . S
C780 H774 0.930 . S
C780 C781 1.355 . S
C780 C782 1.415 . S
C781 C780 1.355 . S
C781 C783 1.419 1_554 S
C782 C780 1.415 . S
C782 C787 1.425 1_554 S
C782 C789 1.409 . S
C783 H775 0.930 . S
C783 C781 1.419 1_556 S
C783 C784 1.362 . S
C784 H776 0.930 . S
C784 C783 1.362 . S
C784 C787 1.409 . S
C785 H777 0.930 . S
C785 C786 1.355 1_556 S
C785 C787 1.415 . S
C786 C785 1.355 1_554 S
C786 C788 1.419 . S
C787 C782 1.425 1_556 S
C787 C784 1.409 . S
C787 C785 1.415 . S
C788 H778 0.930 . S
C788 C786 1.419 . S
C788 C789 1.362 . S
C789 H779 0.930 . S
C789 C782 1.409 . S
C789 C788 1.362 . S
H790 C796 0.930 . S
H791 C799 0.930 . S
H792 C800 0.930 . S
H793 C801 0.930 . S
H794 C804 0.930 . S
H795 C805 0.930 . S
C796 H790 0.930 . S
C796 C797 1.355 . S
C796 C798 1.415 . S
C797 C796 1.355 . S
C797 C799 1.419 1_554 S
C798 C796 1.415 . S
C798 C803 1.425 1_554 S
C798 C805 1.409 . S
C799 H791 0.930 . S
C799 C797 1.419 1_556 S
C799 C800 1.362 . S
C800 H792 0.930 . S
C800 C799 1.362 . S
C800 C803 1.409 . S
C801 H793 0.930 . S
C801 C802 1.355 1_556 S
C801 C803 1.415 . S
C802 C801 1.355 1_554 S
C802 C804 1.419 . S
C803 C798 1.425 1_556 S
C803 C800 1.409 . S
C803 C801 1.415 . S
C804 H794 0.930 . S
C804 C802 1.419 . S
C804 C805 1.362 . S
C805 H795 0.930 . S
C805 C798 1.409 . S
C805 C804 1.362 . S
H806 C812 0.930 . S
H807 C815 0.930 . S
H808 C816 0.930 . S
H809 C817 0.930 . S
H810 C820 0.930 1_455 S
H811 C821 0.930 . S
C812 H806 0.930 . S
C812 C813 1.355 . S
C812 C814 1.415 . S
C813 C812 1.355 . S
C813 C815 1.419 1_554 S
C814 C812 1.415 . S
C814 C819 1.425 . S
C814 C821 1.409 . S
C815 H807 0.930 . S
C815 C813 1.419 1_556 S
C815 C816 1.362 . S
C816 H808 0.930 . S
C816 C815 1.362 . S
C816 C819 1.409 1_556 S
C817 H809 0.930 . S
C817 C818 1.355 . S
C817 C819 1.415 . S
C818 C817 1.355 . S
C818 C820 1.419 . S
C819 C814 1.425 . S
C819 C816 1.409 1_554 S
C819 C817 1.415 . S
C820 H810 0.930 1_655 S
C820 C818 1.419 . S
C820 C821 1.362 . S
C821 H811 0.930 . S
C821 C814 1.409 . S
C821 C820 1.362 . S
H822 C828 0.930 . S
H823 C831 0.930 . S
H824 C832 0.930 . S
H825 C833 0.930 . S
H826 C836 0.930 . S
H827 C837 0.930 . S
C828 H822 0.930 . S
C828 C829 1.355 . S
C828 C830 1.415 . S
C829 C828 1.355 . S
C829 C831 1.419 . S
C830 C828 1.415 . S
C830 C835 1.425 . S
C830 C837 1.409 . S
C831 H823 0.930 . S
C831 C829 1.419 . S
C831 C832 1.362 . S
C832 H824 0.930 . S
C832 C831 1.362 . S
C832 C835 1.409 . S
C833 H825 0.930 . S
C833 C834 1.355 . S
C833 C835 1.415 . S
C834 C833 1.355 . S
C834 C836 1.419 . S
C835 C830 1.425 . S
C835 C832 1.409 . S
C835 C833 1.415 . S
C836 H826 0.930 . S
C836 C834 1.419 . S
C836 C837 1.362 . S
C837 H827 0.930 . S
C837 C830 1.409 . S
C837 C836 1.362 . S
H838 C844 0.930 . S
H839 C847 0.930 . S
H840 C848 0.930 . S
H841 C849 0.930 . S
H842 C852 0.930 . S
H843 C853 0.930 . S
C844 H838 0.930 . S
C844 C845 1.355 . S
C844 C846 1.415 . S
C845 C844 1.355 . S
C845 C847 1.419 . S
C846 C844 1.415 . S
C846 C851 1.425 . S
C846 C853 1.409 . S
C847 H839 0.930 . S
C847 C845 1.419 . S
C847 C848 1.362 . S
C848 H840 0.930 . S
C848 C847 1.362 . S
C848 C851 1.409 . S
C849 H841 0.930 . S
C849 C850 1.355 . S
C849 C851 1.415 . S
C850 C849 1.355 . S
C850 C852 1.419 . S
C851 C846 1.425 . S
C851 C848 1.409 . S
C851 C849 1.415 . S
C852 H842 0.930 . S
C852 C850 1.419 . S
C852 C853 1.362 . S
C853 H843 0.930 . S
C853 C846 1.409 . S
C853 C852 1.362 . S
H854 C860 0.930 . S
H855 C863 0.930 . S
H856 C864 0.930 . S
H857 C865 0.930 . S
H858 C868 0.930 . S
H859 C869 0.930 . S
C860 H854 0.930 . S
C860 C861 1.355 . S
C860 C862 1.415 . S
C861 C860 1.355 . S
C861 C863 1.419 . S
C862 C860 1.415 . S
C862 C867 1.425 . S
C862 C869 1.409 . S
C863 H855 0.930 . S
C863 C861 1.419 . S
C863 C864 1.362 . S
C864 H856 0.930 . S
C864 C863 1.362 . S
C864 C867 1.409 . S
C865 H857 0.930 . S
C865 C866 1.355 . S
C865 C867 1.415 . S
C866 C865 1.355 . S
C866 C868 1.419 . S
C867 C862 1.425 . S
C867 C864 1.409 . S
C867 C865 1.415 . S
C868 H858 0.930 . S
C868 C866 1.419 . S
C868 C869 1.362 . S
C869 H859 0.930 . S
C869 C862 1.409 . S
C869 C868 1.362 . S
H870 C876 0.930 . S
H871 C879 0.930 . S
H872 C880 0.930 . S
H873 C881 0.930 . S
H874 C884 0.930 . S
H875 C885 0.930 . S
C876 H870 0.930 . S
C876 C877 1.355 . S
C876 C878 1.415 . S
C877 C876 1.355 . S
C877 C879 1.419 . S
C878 C876 1.415 . S
C878 C883 1.425 . S
C878 C885 1.409 . S
C879 H871 0.930 . S
C879 C877 1.419 . S
C879 C880 1.362 . S
C880 H872 0.930 . S
C880 C879 1.362 . S
C880 C883 1.409 . S
C881 H873 0.930 . S
C881 C882 1.355 . S
C881 C883 1.415 . S
C882 C881 1.355 . S
C882 C884 1.419 . S
C883 C878 1.425 . S
C883 C880 1.409 . S
C883 C881 1.415 . S
C884 H874 0.930 . S
C884 C882 1.419 . S
C884 C885 1.362 . S
C885 H875 0.930 . S
C885 C878 1.409 . S
C885 C884 1.362 . S
H886 C892 0.930 . S
H887 C895 0.930 . S
H888 C896 0.930 . S
H889 C897 0.930 . S
H890 C900 0.930 . S
H891 C901 0.930 . S
C892 H886 0.930 . S
C892 C893 1.355 . S
C892 C894 1.415 . S
C893 C892 1.355 . S
C893 C895 1.419 . S
C894 C892 1.415 . S
C894 C899 1.425 . S
C894 C901 1.409 . S
C895 H887 0.930 . S
C895 C893 1.419 . S
C895 C896 1.362 . S
C896 H888 0.930 . S
C896 C895 1.362 . S
C896 C899 1.409 . S
C897 H889 0.930 . S
C897 C898 1.355 . S
C897 C899 1.415 . S
C898 C897 1.355 . S
C898 C900 1.419 . S
C899 C894 1.425 . S
C899 C896 1.409 . S
C899 C897 1.415 . S
C900 H890 0.930 . S
C900 C898 1.419 . S
C900 C901 1.362 . S
C901 H891 0.930 . S
C901 C894 1.409 . S
C901 C900 1.362 . S
H902 C908 0.930 . S
H903 C911 0.930 . S
H904 C912 0.930 . S
H905 C913 0.930 . S
H906 C916 0.930 . S
H907 C917 0.930 . S
C908 H902 0.930 . S
C908 C909 1.355 . S
C908 C910 1.415 . S
C909 C908 1.355 . S
C909 C911 1.419 . S
C910 C908 1.415 . S
C910 C915 1.425 . S
C910 C917 1.409 . S
C911 H903 0.930 . S
C911 C909 1.419 . S
C911 C912 1.362 . S
C912 H904 0.930 . S
C912 C911 1.362 . S
C912 C915 1.409 . S
C913 H905 0.930 . S
C913 C914 1.355 . S
C913 C915 1.415 . S
C914 C913 1.355 . S
C914 C916 1.419 . S
C915 C910 1.425 . S
C915 C912 1.409 . S
C915 C913 1.415 . S
C916 H906 0.930 . S
C916 C914 1.419 . S
C916 C917 1.362 . S
C917 H907 0.930 . S
C917 C910 1.409 . S
C917 C916 1.362 . S
H918 C924 0.930 . S
H919 C927 0.930 . S
H920 C928 0.930 . S
H921 C929 0.930 . S
H922 C932 0.930 . S
H923 C933 0.930 . S
C924 H918 0.930 . S
C924 C925 1.355 . S
C924 C926 1.415 . S
C925 C924 1.355 . S
C925 C927 1.419 . S
C926 C924 1.415 . S
C926 C931 1.425 . S
C926 C933 1.409 . S
C927 H919 0.930 . S
C927 C925 1.419 . S
C927 C928 1.362 . S
C928 H920 0.930 . S
C928 C927 1.362 . S
C928 C931 1.409 . S
C929 H921 0.930 . S
C929 C930 1.355 . S
C929 C931 1.415 . S
C930 C929 1.355 . S
C930 C932 1.419 . S
C931 C926 1.425 . S
C931 C928 1.409 . S
C931 C929 1.415 . S
C932 H922 0.930 . S
C932 C930 1.419 . S
C932 C933 1.362 . S
C933 H923 0.930 . S
C933 C926 1.409 . S
C933 C932 1.362 . S
H934 C940 0.930 . S
H935 C943 0.930 . S
H936 C944 0.930 . S
H937 C945 0.930 . S
H938 C948 0.930 . S
H939 C949 0.930 . S
C940 H934 0.930 . S
C940 C941 1.355 . S
C940 C942 1.415 . S
C941 C940 1.355 . S
C941 C943 1.419 . S
C942 C940 1.415 . S
C942 C947 1.425 . S
C942 C949 1.409 . S
C943 H935 0.930 . S
C943 C941 1.419 . S
C943 C944 1.362 . S
C944 H936 0.930 . S
C944 C943 1.362 . S
C944 C947 1.409 . S
C945 H937 0.930 . S
C945 C946 1.355 . S
C945 C947 1.415 . S
C946 C945 1.355 . S
C946 C948 1.419 . S
C947 C942 1.425 . S
C947 C944 1.409 . S
C947 C945 1.415 . S
C948 H938 0.930 . S
C948 C946 1.419 . S
C948 C949 1.362 . S
C949 H939 0.930 . S
C949 C942 1.409 . S
C949 C948 1.362 . S
H950 C956 0.930 . S
H951 C959 0.930 . S
H952 C960 0.930 . S
H953 C961 0.930 . S
H954 C964 0.930 . S
H955 C965 0.930 . S
C956 H950 0.930 . S
C956 C957 1.355 . S
C956 C958 1.415 . S
C957 C956 1.355 . S
C957 C959 1.419 . S
C958 C956 1.415 . S
C958 C963 1.425 . S
C958 C965 1.409 . S
C959 H951 0.930 . S
C959 C957 1.419 . S
C959 C960 1.362 . S
C960 H952 0.930 . S
C960 C959 1.362 . S
C960 C963 1.409 . S
C961 H953 0.930 . S
C961 C962 1.355 . S
C961 C963 1.415 . S
C962 C961 1.355 . S
C962 C964 1.419 . S
C963 C958 1.425 . S
C963 C960 1.409 . S
C963 C961 1.415 . S
C964 H954 0.930 . S
C964 C962 1.419 . S
C964 C965 1.362 . S
C965 H955 0.930 . S
C965 C958 1.409 . S
C965 C964 1.362 . S
H966 C972 0.930 . S
H967 C975 0.930 . S
H968 C976 0.930 . S
H969 C977 0.930 1_554 S
H970 C980 0.930 . S
H971 C981 0.930 . S
C972 H966 0.930 . S
C972 C973 1.355 . S
C972 C974 1.415 . S
C973 C972 1.355 . S
C973 C975 1.419 . S
C974 C972 1.415 . S
C974 C979 1.425 . S
C974 C981 1.409 . S
C975 H967 0.930 . S
C975 C973 1.419 . S
C975 C976 1.362 . S
C976 H968 0.930 . S
C976 C975 1.362 . S
C976 C979 1.409 . S
C977 H969 0.930 1_556 S
C977 C978 1.355 1_556 S
C977 C979 1.415 . S
C978 C977 1.355 1_554 S
C978 C980 1.419 . S
C979 C974 1.425 . S
C979 C976 1.409 . S
C979 C977 1.415 . S
C980 H970 0.930 . S
C980 C978 1.419 . S
C980 C981 1.362 1_554 S
C981 H971 0.930 . S
C981 C974 1.409 . S
C981 C980 1.362 1_556 S
H982 C988 0.930 1_554 S
H983 C991 0.930 . S
H984 C992 0.930 . S
H985 C993 0.930 . S
H986 C996 0.930 . S
H987 C997 0.930 . S
C988 H982 0.930 1_556 S
C988 C989 1.355 1_556 S
C988 C990 1.415 . S
C989 C988 1.355 1_554 S
C989 C991 1.419 . S
C990 C988 1.415 . S
C990 C995 1.425 . S
C990 C997 1.409 . S
C991 H983 0.930 . S
C991 C989 1.419 . S
C991 C992 1.362 1_554 S
C992 H984 0.930 . S
C992 C991 1.362 1_556 S
C992 C995 1.409 . S
C993 H985 0.930 . S
C993 C994 1.355 . S
C993 C995 1.415 . S
C994 C993 1.355 . S
C994 C996 1.419 . S
C995 C990 1.425 . S
C995 C992 1.409 . S
C995 C993 1.415 . S
C996 H986 0.930 . S
C996 C994 1.419 . S
C996 C997 1.362 . S
C997 H987 0.930 . S
C997 C990 1.409 . S
C997 C996 1.362 . S
H998 C1004 0.930 . S
H999 C1007 0.930 . S
H1000 C1008 0.930 . S
H1001 C1009 0.930 1_554 S
H1002 C1012 0.930 . S
H1003 C1013 0.930 . S
C1004 H998 0.930 . S
C1004 C1005 1.355 . S
C1004 C1006 1.415 . S
C1005 C1004 1.355 . S
C1005 C1007 1.419 . S
C1006 C1004 1.415 . S
C1006 C1011 1.425 . S
C1006 C1013 1.409 . S
C1007 H999 0.930 . S
C1007 C1005 1.419 . S
C1007 C1008 1.362 . S
C1008 H1000 0.930 . S
C1008 C1007 1.362 . S
C1008 C1011 1.409 . S
C1009 H1001 0.930 1_556 S
C1009 C1010 1.355 1_556 S
C1009 C1011 1.415 . S
C1010 C1009 1.355 1_554 S
C1010 C1012 1.419 . S
C1011 C1006 1.425 . S
C1011 C1008 1.409 . S
C1011 C1009 1.415 . S
C1012 H1002 0.930 . S
C1012 C1010 1.419 . S
C1012 C1013 1.362 1_554 S
C1013 H1003 0.930 . S
C1013 C1006 1.409 . S
C1013 C1012 1.362 1_556 S
H1014 C1020 0.930 . S
H1015 C1023 0.930 . S
H1016 C1024 0.930 . S
H1017 C1025 0.930 1_556 S
H1018 C1028 0.930 1_556 S
H1019 C1029 0.930 . S
C1020 H1014 0.930 . S
C1020 C1021 1.355 . S
C1020 C1022 1.415 . S
C1021 C1020 1.355 . S
C1021 C1023 1.419 . S
C1022 C1020 1.415 . S
C1022 C1027 1.425 . S
C1022 C1029 1.409 . S
C1023 H1015 0.930 . S
C1023 C1021 1.419 . S
C1023 C1024 1.362 . S
C1024 H1016 0.930 . S
C1024 C1023 1.362 . S
C1024 C1027 1.409 . S
C1025 H1017 0.930 1_554 S
C1025 C1026 1.355 1_554 S
C1025 C1027 1.415 . S
C1026 C1025 1.355 1_556 S
C1026 C1028 1.419 1_556 S
C1027 C1022 1.425 . S
C1027 C1024 1.409 . S
C1027 C1025 1.415 . S
C1028 H1018 0.930 1_554 S
C1028 C1026 1.419 1_554 S
C1028 C1029 1.362 . S
C1029 H1019 0.930 . S
C1029 C1022 1.409 . S
C1029 C1028 1.362 . S
H1030 C1036 0.930 . S
H1031 C1039 0.930 . S
H1032 C1040 0.930 . S
H1033 C1041 0.930 . S
H1034 C1044 0.930 . S
H1035 C1045 0.930 . S
C1036 H1030 0.930 . S
C1036 C1037 1.355 . S
C1036 C1038 1.415 . S
C1037 C1036 1.355 . S
C1037 C1039 1.419 . S
C1038 C1036 1.415 . S
C1038 C1043 1.425 . S
C1038 C1045 1.409 . S
C1039 H1031 0.930 . S
C1039 C1037 1.419 . S
C1039 C1040 1.362 . S
C1040 H1032 0.930 . S
C1040 C1039 1.362 . S
C1040 C1043 1.409 . S
C1041 H1033 0.930 . S
C1041 C1042 1.355 1_554 S
C1041 C1043 1.415 . S
C1042 C1041 1.355 1_556 S
C1042 C1044 1.419 . S
C1043 C1038 1.425 . S
C1043 C1040 1.409 . S
C1043 C1041 1.415 . S
C1044 H1034 0.930 . S
C1044 C1042 1.419 . S
C1044 C1045 1.362 1_556 S
C1045 H1035 0.930 . S
C1045 C1038 1.409 . S
C1045 C1044 1.362 1_554 S
H1046 C1052 0.930 . S
H1047 C1055 0.930 . S
H1048 C1056 0.930 . S
H1049 C1057 0.930 1_556 S
H1050 C1060 0.935 . S
H1051 C1061 0.930 . S
C1052 H1046 0.930 . S
C1052 C1053 1.355 . S
C1052 C1054 1.415 . S
C1053 C1052 1.355 . S
C1053 C1055 1.419 . S
C1054 C1052 1.415 . S
C1054 C1059 1.425 . S
C1054 C1061 1.409 . S
C1055 H1047 0.930 . S
C1055 C1053 1.419 . S
C1055 C1056 1.362 . S
C1056 H1048 0.930 . S
C1056 C1055 1.362 . S
C1056 C1059 1.409 . S
C1057 H1049 0.930 1_554 S
C1057 C1058 1.355 1_554 S
C1057 C1059 1.415 . S
C1058 C1057 1.355 1_556 S
C1058 C1060 1.422 . S
C1059 C1054 1.425 . S
C1059 C1056 1.409 . S
C1059 C1057 1.415 . S
C1060 H1050 0.935 . S
C1060 C1058 1.422 . S
C1060 C1061 1.354 1_556 S
C1061 H1051 0.930 . S
C1061 C1054 1.409 . S
C1061 C1060 1.354 1_554 S
C493 C32 1.452 1_554 S
C498 C229 1.524 . S
C509 C283 1.566 . S
C514 C86 1.477 1_544 S
C525 C140 1.475 1_554 S
C530 C175 1.491 . S
C541 C76 1.898 . S
C546 C197 1.984 . S
C557 C130 1.912 1_545 S
C562 C251 1.993 . S
C573 C22 1.841 1_655 S
C578 C305 1.974 . S
C589 C194 1.453 . S
C594 C391 1.531 1_655 S
C605 C445 1.528 . S
C610 C248 1.452 . S
C621 C337 1.562 1_545 S
C626 C302 1.538 . S
C637 C238 1.907 . S
C642 C359 1.989 1_545 S
C653 C413 1.976 1_655 S
C658 C292 1.840 . S
C669 C467 1.976 . S
C674 C184 1.871 . S
C685 C356 1.474 . S
C690 C67 1.488 . S
C701 C410 1.517 . S
C706 C121 1.481 . S
C717 C13 1.572 . S
C722 C464 1.516 . S
C733 C35 1.992 . S
C738 C400 1.910 . S
C749 C89 1.972 . S
C754 C454 1.846 . S
C765 C346 1.905 . S
C770 C143 1.988 . S
C781 C113 1.678 1_545 S
C786 C28 1.781 . S
C797 C5 1.679 1_655 S
C802 C82 1.781 1_545 S
C813 C59 1.722 . S
C818 C136 1.783 1_655 S
C829 C275 1.662 . S
C834 C190 1.756 . S
C845 C167 1.723 . S
C850 C244 1.782 . S
C861 C221 1.711 . S
C866 C298 1.785 . S
C877 C352 1.778 . S
C882 C437 1.670 . S
C893 C406 1.766 . S
C898 C329 1.717 . S
C909 C460 1.771 . S
C914 C383 1.723 . S
C925 C27 0.635 . S
C930 C10 0.634 . S
C941 C64 0.693 . S
C946 C81 0.693 . S
C957 C135 0.632 . S
C962 C118 0.632 . S
C973 C172 0.640 . S
C978 C189 0.639 . S
C989 C243 0.698 . S
C994 C226 0.699 . S
C1005 C280 0.656 . S
C1010 C297 0.657 . S
C1021 C351 0.669 . S
C1026 C334 0.670 . S
C1037 C405 0.696 . S
C1042 C388 0.696 . S
C1053 C459 0.684 . S
C1058 C442 0.684 . S
